# Generated by pormake.
# Topology wkd, (5)-cn, num edge types: 1
# Building blocks:
#     Node 0, Type 0, BuildingBlock: BEQFEK_clean_sbu_0, # of connection points: 5
#     Node 1, Type 0, BuildingBlock: BEQFEK_clean_sbu_0, # of connection points: 5
#     Node 2, Type 0, BuildingBlock: BEQFEK_clean_sbu_0, # of connection points: 5
#     Node 3, Type 0, BuildingBlock: BEQFEK_clean_sbu_0, # of connection points: 5
#     Node 4, Type 0, BuildingBlock: BEQFEK_clean_sbu_0, # of connection points: 5
#     Node 5, Type 0, BuildingBlock: BEQFEK_clean_sbu_0, # of connection points: 5
#     Node 6, Type 0, BuildingBlock: BEQFEK_clean_sbu_0, # of connection points: 5
#     Node 7, Type 0, BuildingBlock: BEQFEK_clean_sbu_0, # of connection points: 5
#     Node 8, Type 0, BuildingBlock: BEQFEK_clean_sbu_0, # of connection points: 5
#     Node 9, Type 0, BuildingBlock: BEQFEK_clean_sbu_0, # of connection points: 5
#     Node 10, Type 0, BuildingBlock: BEQFEK_clean_sbu_0, # of connection points: 5
#     Node 11, Type 0, BuildingBlock: BEQFEK_clean_sbu_0, # of connection points: 5
#     Edge 12, Type (0, 0), BuildingBlock: XIVTED_clean_linker_0, # of connection points: 2
#     Edge 13, Type (0, 0), BuildingBlock: XIVTED_clean_linker_0, # of connection points: 2
#     Edge 14, Type (0, 0), BuildingBlock: XIVTED_clean_linker_0, # of connection points: 2
#     Edge 15, Type (0, 0), BuildingBlock: XIVTED_clean_linker_0, # of connection points: 2
#     Edge 16, Type (0, 0), BuildingBlock: XIVTED_clean_linker_0, # of connection points: 2
#     Edge 17, Type (0, 0), BuildingBlock: XIVTED_clean_linker_0, # of connection points: 2
#     Edge 18, Type (0, 0), BuildingBlock: XIVTED_clean_linker_0, # of connection points: 2
#     Edge 19, Type (0, 0), BuildingBlock: XIVTED_clean_linker_0, # of connection points: 2
#     Edge 20, Type (0, 0), BuildingBlock: XIVTED_clean_linker_0, # of connection points: 2
#     Edge 21, Type (0, 0), BuildingBlock: XIVTED_clean_linker_0, # of connection points: 2
#     Edge 22, Type (0, 0), BuildingBlock: XIVTED_clean_linker_0, # of connection points: 2
#     Edge 23, Type (0, 0), BuildingBlock: XIVTED_clean_linker_0, # of connection points: 2
#     Edge 24, Type (0, 0), BuildingBlock: XIVTED_clean_linker_0, # of connection points: 2
#     Edge 25, Type (0, 0), BuildingBlock: XIVTED_clean_linker_0, # of connection points: 2
#     Edge 26, Type (0, 0), BuildingBlock: XIVTED_clean_linker_0, # of connection points: 2
#     Edge 27, Type (0, 0), BuildingBlock: XIVTED_clean_linker_0, # of connection points: 2
#     Edge 28, Type (0, 0), BuildingBlock: XIVTED_clean_linker_0, # of connection points: 2
#     Edge 29, Type (0, 0), BuildingBlock: XIVTED_clean_linker_0, # of connection points: 2
#     Edge 30, Type (0, 0), BuildingBlock: XIVTED_clean_linker_0, # of connection points: 2
#     Edge 31, Type (0, 0), BuildingBlock: XIVTED_clean_linker_0, # of connection points: 2
#     Edge 32, Type (0, 0), BuildingBlock: XIVTED_clean_linker_0, # of connection points: 2
#     Edge 33, Type (0, 0), BuildingBlock: XIVTED_clean_linker_0, # of connection points: 2
#     Edge 34, Type (0, 0), BuildingBlock: XIVTED_clean_linker_0, # of connection points: 2
#     Edge 35, Type (0, 0), BuildingBlock: XIVTED_clean_linker_0, # of connection points: 2
#     Edge 36, Type (0, 0), BuildingBlock: XIVTED_clean_linker_0, # of connection points: 2
#     Edge 37, Type (0, 0), BuildingBlock: XIVTED_clean_linker_0, # of connection points: 2
#     Edge 38, Type (0, 0), BuildingBlock: XIVTED_clean_linker_0, # of connection points: 2
#     Edge 39, Type (0, 0), BuildingBlock: XIVTED_clean_linker_0, # of connection points: 2
#     Edge 40, Type (0, 0), BuildingBlock: XIVTED_clean_linker_0, # of connection points: 2
#     Edge 41, Type (0, 0), BuildingBlock: XIVTED_clean_linker_0, # of connection points: 2
# Relax obj value: 0.046
# Max RMSD: 0.099
# Mean RMSD: 0.099
data_MOF--net-wkd--node1-BEQFEK_clean_sbu_0--edge1-XIVTED_clean_linker_0
_symmetry_space_group_name_H-M    P1
_symmetry_Int_Tables_number       1
_symmetry_cell_setting            triclinic
loop_
_symmetry_equiv_pos_as_xyz
'x, y, z'
_cell_length_a     24.120057
_cell_length_b     24.122316
_cell_length_c     136.59751
_cell_angle_alpha  89.993098
_cell_angle_beta   89.992026
_cell_angle_gamma 119.96322
loop_
_atom_site_label
_atom_site_type_symbol
_atom_site_fract_x
_atom_site_fract_y
_atom_site_fract_z
_atom_type_partial_charge
Co0 Co 0.96062 0.33283 0.03259 0.0
Co1 Co 0.02487 0.27529 0.04605 0.0
C2 C 0.93076 0.19696 0.03038 0.0
O3 O 0.9215 0.24282 0.02801 0.0
O4 O 0.96967 0.20304 0.03718 0.0
C5 C 0.86217 0.35192 0.02343 0.0
O6 O 0.82121 0.29331 0.02623 0.0
C7 C 0.0348 0.1909 0.06074 0.0
C8 C 0.12956 0.25595 0.06721 0.0
C9 C 0.07697 0.19508 0.068 0.0
N10 N 0.06116 0.24705 0.05594 0.0
N11 N 0.11818 0.28532 0.05975 0.0
C12 C 0.96829 0.1371 0.05898 0.0
H13 H 0.93812 0.15566 0.05591 0.0
H14 H 0.9467 0.11051 0.06587 0.0
H15 H 0.97003 0.10355 0.0536 0.0
C16 C 0.93012 0.36704 0.05191 0.0
N17 N 0.95299 0.33693 0.04632 0.0
N18 N 0.97837 0.31142 0.052 0.0
C19 C 0.9713 0.32365 0.06142 0.0
C20 C 0.94047 0.35919 0.06167 0.0
C21 C 0.90244 0.40577 0.04792 0.0
H22 H 0.93637 0.44139 0.04261 0.0
H23 H 0.85753 0.37364 0.04396 0.0
H24 H 0.89165 0.43063 0.05381 0.0
O25 O 0.0517 0.38071 0.02876 0.0
O26 O 0.09787 0.34105 0.03829 0.0
H27 H 0.05275 0.33307 0.06909 0.0
H28 H 0.98874 0.32328 0.07701 0.0
C29 C 6e-05 0.30825 0.06997 0.0
H30 H 0.98162 0.25601 0.0702 0.0
H31 H 0.14846 0.33233 0.05747 0.0
O32 O 0.92097 0.37609 0.02559 0.0
C33 C 0.10122 0.3794 0.03161 0.0
Co34 Co 0.63079 0.9718 0.19896 0.0
Co35 Co 0.75 0.01986 0.21277 0.0
C36 C 0.72865 0.92987 0.19637 0.0
O37 O 0.67803 0.93017 0.19378 0.0
O38 O 0.76129 0.96153 0.20377 0.0
C39 C 0.51401 0.87847 0.18965 0.0
O40 O 0.53183 0.8376 0.19245 0.0
C41 C 0.84059 0.02041 0.22736 0.0
C42 C 0.87374 0.11425 0.23444 0.0
C43 C 0.87896 0.05971 0.23485 0.0
N44 N 0.81339 0.05024 0.2228 0.0
N45 N 0.83422 0.10667 0.22697 0.0
C46 C 0.82522 0.9535 0.22515 0.0
H47 H 0.77631 0.92566 0.22204 0.0
H48 H 0.8291 0.92949 0.23183 0.0
H49 H 0.85977 0.95501 0.21964 0.0
C50 C 0.5639 0.93783 0.21822 0.0
N51 N 0.61702 0.95942 0.21268 0.0
N52 N 0.66688 0.97794 0.21846 0.0
C53 C 0.64681 0.9675 0.22785 0.0
C54 C 0.58093 0.94169 0.22801 0.0
C55 C 0.4986 0.91645 0.21419 0.0
H56 H 0.50074 0.95315 0.20907 0.0
H57 H 0.48227 0.87152 0.21001 0.0
H58 H 0.4634 0.9075 0.22008 0.0
O59 O 0.67998 0.06372 0.1958 0.0
O60 O 0.76482 0.09737 0.20543 0.0
H61 H 0.72211 0.04093 0.23632 0.0
H62 H 0.66387 0.97537 0.24355 0.0
C63 C 0.6905 0.98831 0.23653 0.0
H64 H 0.72063 0.96561 0.23625 0.0
H65 H 0.81974 0.13918 0.22492 0.0
O66 O 0.54864 0.93724 0.19183 0.0
C67 C 0.73346 0.10821 0.19895 0.0
Co68 Co 0.67082 0.62746 0.36701 0.0
Co69 Co 0.73729 0.75488 0.37912 0.0
C70 C 0.81018 0.72623 0.36434 0.0
O71 O 0.76017 0.6738 0.36213 0.0
O72 O 0.80938 0.7625 0.37105 0.0
C73 C 0.61106 0.53529 0.35219 0.0
O74 O 0.62223 0.58658 0.34724 0.0
C75 C 0.82202 0.85143 0.39358 0.0
C76 C 0.7636 0.89514 0.39759 0.0
C77 C 0.82036 0.89642 0.39979 0.0
N78 N 0.76833 0.82462 0.38813 0.0
N79 N 0.7342 0.8517 0.39047 0.0
C80 C 0.86993 0.82925 0.39344 0.0
H81 H 0.84905 0.78117 0.39004 0.0
H82 H 0.88622 0.82762 0.40098 0.0
H83 H 0.91202 0.86322 0.38905 0.0
C84 C 0.63187 0.57222 0.38683 0.0
N85 N 0.66616 0.62218 0.38082 0.0
N86 N 0.69476 0.67524 0.38599 0.0
C87 C 0.68044 0.66045 0.39553 0.0
C88 C 0.6397 0.5947 0.3964 0.0
C89 C 0.58658 0.50596 0.38326 0.0
H90 H 0.559 0.50835 0.37694 0.0
H91 H 0.61444 0.48349 0.38071 0.0
H92 H 0.55264 0.47572 0.38904 0.0
O93 O 0.62578 0.67136 0.36234 0.0
O94 O 0.67509 0.76336 0.37042 0.0
H95 H 0.6856 0.74098 0.40297 0.0
H96 H 0.69353 0.68547 0.41098 0.0
C97 C 0.70547 0.70844 0.40366 0.0
H98 H 0.75815 0.73721 0.40312 0.0
H99 H 0.68977 0.83903 0.38741 0.0
O100 O 0.62864 0.54114 0.36108 0.0
C101 C 0.63335 0.72631 0.36424 0.0
Co102 Co 0.03558 0.66563 0.5337 0.0
Co103 Co 0.97496 0.73028 0.54636 0.0
C104 C 0.07286 0.80406 0.53107 0.0
O105 O 0.07638 0.7548 0.52869 0.0
O106 O 0.03653 0.80235 0.53799 0.0
C107 C 0.13395 0.64431 0.52533 0.0
O108 O 0.17453 0.70289 0.52819 0.0
C109 C 0.96226 0.81588 0.56056 0.0
C110 C 0.867 0.75009 0.56683 0.0
C111 C 0.91898 0.81128 0.56765 0.0
N112 N 0.93712 0.75953 0.55582 0.0
N113 N 0.87974 0.7209 0.5595 0.0
C114 C 0.02887 0.87003 0.55899 0.0
H115 H 0.0602 0.85164 0.55636 0.0
H116 H 0.04869 0.89778 0.56584 0.0
H117 H 0.02792 0.90248 0.55332 0.0
C118 C 0.06076 0.63145 0.55345 0.0
N119 N 0.04093 0.66277 0.54751 0.0
N120 N 0.01591 0.69025 0.55284 0.0
C121 C 0.01976 0.6778 0.56236 0.0
C122 C 0.04788 0.63989 0.56307 0.0
C123 C 0.08466 0.58854 0.54987 0.0
H124 H 0.05259 0.55681 0.54403 0.0
H125 H 0.13299 0.61825 0.54666 0.0
H126 H 0.08741 0.55894 0.55586 0.0
O127 O 0.94557 0.6195 0.52959 0.0
O128 O 0.90276 0.66706 0.53809 0.0
H129 H 0.94251 0.67507 0.57043 0.0
H130 H 0.01078 0.69098 0.57786 0.0
C131 C 0.9955 0.70021 0.57067 0.0
H132 H 0.01418 0.75228 0.56998 0.0
H133 H 0.8503 0.67365 0.55726 0.0
O134 O 0.07479 0.6205 0.52718 0.0
C135 C 0.89779 0.62563 0.53184 0.0
Co136 Co 0.36489 0.02974 0.70007 0.0
Co137 Co 0.23994 0.9661 0.71279 0.0
C138 C 0.26154 0.06371 0.69751 0.0
O139 O 0.31678 0.07213 0.69544 0.0
O140 O 0.22642 0.02373 0.70403 0.0
C141 C 0.48773 0.12992 0.6927 0.0
O142 O 0.47386 0.17051 0.6969 0.0
C143 C 0.13997 0.9541 0.72653 0.0
C144 C 0.11505 0.86313 0.73396 0.0
C145 C 0.10275 0.91337 0.73398 0.0
N146 N 0.17324 0.92923 0.72235 0.0
N147 N 0.15724 0.87433 0.72672 0.0
C148 C 0.14944 0.01879 0.72413 0.0
H149 H 0.19962 0.0513 0.72182 0.0
H150 H 0.13773 0.03967 0.7305 0.0
H151 H 0.11754 0.01414 0.71796 0.0
C152 C 0.42455 0.05216 0.71984 0.0
N153 N 0.37358 0.03321 0.71388 0.0
N154 N 0.32121 0.00987 0.71921 0.0
C155 C 0.33751 0.01544 0.72875 0.0
C156 C 0.4034 0.04146 0.72949 0.0
C157 C 0.49078 0.07298 0.71626 0.0
H158 H 0.48864 0.04632 0.70953 0.0
H159 H 0.51517 0.12475 0.71448 0.0
H160 H 0.51926 0.06493 0.72187 0.0
O161 O 0.3208 0.93978 0.69572 0.0
O162 O 0.2329 0.89372 0.70482 0.0
H163 H 0.26436 0.94496 0.73792 0.0
H164 H 0.31578 0.01984 0.74402 0.0
C165 C 0.2911 0.9977 0.73705 0.0
H166 H 0.25678 0.01431 0.73546 0.0
H167 H 0.17713 0.84578 0.72501 0.0
O168 O 0.44888 0.07023 0.69342 0.0
C169 C 0.2687 0.89054 0.69824 0.0
Co170 Co 0.33563 0.36711 0.8664 0.0
Co171 Co 0.26826 0.24394 0.87948 0.0
C172 C 0.19677 0.26579 0.86364 0.0
O173 O 0.24648 0.31809 0.86123 0.0
O174 O 0.19745 0.23207 0.87077 0.0
C175 C 0.35954 0.48788 0.85813 0.0
O176 O 0.30341 0.47345 0.86174 0.0
C177 C 0.17998 0.14552 0.8935 0.0
C178 C 0.24679 0.12242 0.90112 0.0
C179 C 0.18409 0.10958 0.90111 0.0
N180 N 0.23801 0.17865 0.88928 0.0
N181 N 0.27731 0.1637 0.89377 0.0
C182 C 0.12418 0.1537 0.89094 0.0
H183 H 0.1411 0.2034 0.88845 0.0
H184 H 0.0915 0.14238 0.89729 0.0
H185 H 0.09725 0.12076 0.88485 0.0
C186 C 0.37069 0.42898 0.88602 0.0
N187 N 0.33816 0.37754 0.88018 0.0
N188 N 0.30722 0.32599 0.88564 0.0
C189 C 0.31704 0.34339 0.89514 0.0
C190 C 0.35851 0.40903 0.89574 0.0
C191 C 0.41816 0.49419 0.88233 0.0
H192 H 0.44333 0.49009 0.87582 0.0
H193 H 0.39239 0.51954 0.88012 0.0
H194 H 0.45397 0.52284 0.88801 0.0
O195 O 0.38164 0.32253 0.86286 0.0
O196 O 0.33288 0.23358 0.87168 0.0
H197 H 0.31081 0.27064 0.90478 0.0
H198 H 0.28808 0.32426 0.91033 0.0
C199 C 0.28606 0.29829 0.90352 0.0
H200 H 0.23522 0.26467 0.90178 0.0
H201 H 0.32574 0.18369 0.89206 0.0
O202 O 0.38112 0.45009 0.85951 0.0
C203 C 0.3752 0.26907 0.86545 0.0
Co204 Co 0.66513 0.03423 0.81954 0.0
Co205 Co 0.72746 0.97366 0.80636 0.0
C206 C 0.80275 0.06894 0.82196 0.0
O207 O 0.75417 0.07329 0.82448 0.0
O208 O 0.80011 0.03307 0.81491 0.0
C209 C 0.64656 0.13068 0.82917 0.0
O210 O 0.7071 0.1701 0.82714 0.0
C211 C 0.81281 0.96401 0.7918 0.0
C212 C 0.74878 0.86824 0.78555 0.0
C213 C 0.80926 0.92131 0.78467 0.0
N214 N 0.75666 0.93746 0.79661 0.0
N215 N 0.71901 0.87987 0.79293 0.0
C216 C 0.866 0.03103 0.79341 0.0
H217 H 0.84675 0.06114 0.79627 0.0
H218 H 0.89284 0.05191 0.78652 0.0
H219 H 0.89951 0.0305 0.79893 0.0
C220 C 0.63141 0.06351 0.80013 0.0
N221 N 0.66219 0.04184 0.8058 0.0
N222 N 0.68889 0.01723 0.80021 0.0
C223 C 0.67673 0.02361 0.79075 0.0
C224 C 0.63994 0.05312 0.79039 0.0
C225 C 0.59152 0.09013 0.80402 0.0
H226 H 0.62219 0.13342 0.80843 0.0
H227 H 0.56892 0.10309 0.79804 0.0
H228 H 0.55394 0.05443 0.80892 0.0
O229 O 0.61825 0.94389 0.82331 0.0
O230 O 0.66316 0.90012 0.8144 0.0
H231 H 0.67851 0.00612 0.7752 0.0
H232 H 0.74616 0.01525 0.78213 0.0
C233 C 0.69369 0.99557 0.78228 0.0
H234 H 0.67003 0.94297 0.78319 0.0
H235 H 0.67215 0.8493 0.79525 0.0
O236 O 0.62051 0.07288 0.82636 0.0
C237 C 0.62258 0.89552 0.8208 0.0
Co238 Co 0.6267 0.66846 0.98592 0.0
Co239 Co 0.74991 0.72623 0.97281 0.0
C240 C 0.7323 0.80402 0.98839 0.0
O241 O 0.67691 0.75815 0.99061 0.0
O242 O 0.76598 0.79815 0.98171 0.0
C243 C 0.50959 0.65062 0.99493 0.0
O244 O 0.52878 0.70983 0.99227 0.0
C245 C 0.84418 0.81133 0.95823 0.0
C246 C 0.87724 0.74816 0.95204 0.0
C247 C 0.88353 0.80819 0.9511 0.0
N248 N 0.81553 0.7554 0.9631 0.0
N249 N 0.83627 0.71827 0.95946 0.0
C250 C 0.82903 0.86372 0.95977 0.0
H251 H 0.7802 0.84401 0.96287 0.0
H252 H 0.83286 0.88901 0.9528 0.0
H253 H 0.8638 0.89874 0.96506 0.0
C254 C 0.56416 0.63559 0.96645 0.0
N255 N 0.61651 0.66509 0.97217 0.0
N256 N 0.66802 0.69039 0.96662 0.0
C257 C 0.64978 0.67842 0.95715 0.0
C258 C 0.58343 0.64345 0.95673 0.0
C259 C 0.49728 0.59758 0.97027 0.0
H260 H 0.48517 0.62987 0.97434 0.0
H261 H 0.46203 0.57426 0.96428 0.0
H262 H 0.49422 0.56074 0.97546 0.0
O263 O 0.66939 0.62023 0.98989 0.0
O264 O 0.7563 0.66 0.98059 0.0
H265 H 0.66925 0.67657 0.94166 0.0
H266 H 0.72762 0.7457 0.94833 0.0
C267 C 0.69484 0.69331 0.94874 0.0
H268 H 0.72373 0.66982 0.94993 0.0
H269 H 0.82071 0.67163 0.96182 0.0
O270 O 0.54319 0.62534 0.99272 0.0
C271 C 0.72045 0.62143 0.98719 0.0
Co272 Co 0.96292 0.63121 0.1519 0.0
Co273 Co 0.02242 0.7569 0.13931 0.0
C274 C 0.92727 0.73399 0.15484 0.0
O275 O 0.924 0.68113 0.15707 0.0
O276 O 0.96258 0.76865 0.14785 0.0
C277 C 0.93053 0.53983 0.16695 0.0
O278 O 0.97274 0.59083 0.17174 0.0
C279 C 0.03612 0.85745 0.12549 0.0
C280 C 0.12778 0.88182 0.11834 0.0
C281 C 0.07782 0.89453 0.11811 0.0
N282 N 0.06019 0.82387 0.12981 0.0
N283 N 0.11549 0.83956 0.12561 0.0
C284 C 0.97135 0.84847 0.12767 0.0
H285 H 0.93853 0.79866 0.13011 0.0
H286 H 0.951 0.85944 0.12116 0.0
H287 H 0.97572 0.8813 0.13369 0.0
C288 C 0.93855 0.57296 0.13213 0.0
N289 N 0.95747 0.62377 0.1381 0.0
N290 N 0.97976 0.67614 0.13281 0.0
C291 C 0.97361 0.66 0.12326 0.0
C292 C 0.94824 0.59421 0.12248 0.0
C293 C 0.91893 0.50702 0.13572 0.0
H294 H 0.94906 0.5099 0.14205 0.0
H295 H 0.86847 0.48361 0.13823 0.0
H296 H 0.92339 0.47733 0.12991 0.0
O297 O 0.05314 0.67327 0.15589 0.0
O298 O 0.09477 0.76405 0.14747 0.0
H299 H 0.04319 0.73383 0.11408 0.0
H300 H 0.96828 0.68179 0.10802 0.0
C301 C 0.99048 0.70649 0.11499 0.0
H302 H 0.97334 0.74029 0.11665 0.0
H303 H 0.14359 0.81938 0.12744 0.0
O304 O 0.91783 0.54564 0.15811 0.0
C305 C 0.10055 0.72736 0.1536 0.0
Co306 Co 0.34327 0.96935 0.3195 0.0
Co307 Co 0.2671 0.01564 0.30648 0.0
C308 C 0.20217 0.92228 0.32252 0.0
O309 O 0.25432 0.92413 0.32482 0.0
O310 O 0.19917 0.9545 0.31536 0.0
C311 C 0.37311 0.87597 0.3271 0.0
O312 O 0.31799 0.83424 0.32321 0.0
C313 C 0.17453 0.01959 0.29266 0.0
C314 C 0.23735 0.11052 0.28497 0.0
C315 C 0.17588 0.05852 0.28508 0.0
N316 N 0.233 0.04717 0.29678 0.0
N317 N 0.26988 0.10199 0.29225 0.0
C318 C 0.12106 0.95445 0.2953 0.0
H319 H 0.14051 0.9239 0.29787 0.0
H320 H 0.08873 0.93142 0.28897 0.0
H321 H 0.09296 0.95902 0.30136 0.0
C322 C 0.37946 0.94483 0.29971 0.0
N323 N 0.34517 0.96105 0.30567 0.0
N324 N 0.31017 0.9772 0.3003 0.0
C325 C 0.31934 0.9696 0.29078 0.0
C326 C 0.36435 0.94997 0.29004 0.0
C327 C 0.43049 0.93155 0.3032 0.0
H328 H 0.45531 0.96186 0.30964 0.0
H329 H 0.40799 0.88066 0.30546 0.0
H330 H 0.46603 0.94065 0.29736 0.0
O331 O 0.38349 0.0601 0.32315 0.0
O332 O 0.32882 0.09248 0.31406 0.0
H333 H 0.306 0.03164 0.28109 0.0
H334 H 0.2878 0.95619 0.27569 0.0
C335 C 0.28473 0.97967 0.28249 0.0
H336 H 0.23363 0.95931 0.2844 0.0
H337 H 0.3181 0.13243 0.29389 0.0
O338 O 0.39277 0.93534 0.32619 0.0
C339 C 0.3721 0.10373 0.32037 0.0
Co340 Co 0.37051 0.33523 0.48647 0.0
Co341 Co 0.24483 0.26967 0.47391 0.0
C342 C 0.27096 0.1976 0.48941 0.0
O343 O 0.3238 0.24681 0.49172 0.0
O344 O 0.23618 0.1992 0.48252 0.0
C345 C 0.48956 0.35705 0.49498 0.0
O346 O 0.4701 0.29743 0.49254 0.0
C347 C 0.15276 0.18412 0.45893 0.0
C348 C 0.09444 0.23041 0.45675 0.0
C349 C 0.10115 0.17936 0.45368 0.0
N350 N 0.17564 0.23602 0.46475 0.0
N351 N 0.14048 0.26334 0.4634 0.0
C352 C 0.17756 0.1383 0.45886 0.0
H353 H 0.20802 0.1456 0.46536 0.0
H354 H 0.20693 0.14621 0.45221 0.0
H355 H 0.13711 0.08828 0.45868 0.0
C356 C 0.42868 0.3691 0.4667 0.0
N357 N 0.3777 0.33723 0.47263 0.0
N358 N 0.32517 0.31045 0.4673 0.0
C359 C 0.34131 0.32453 0.45779 0.0
C360 C 0.40738 0.36161 0.45711 0.0
C361 C 0.49596 0.40942 0.47025 0.0
H362 H 0.49838 0.44602 0.47542 0.0
H363 H 0.51044 0.37874 0.47427 0.0
H364 H 0.52985 0.43331 0.46412 0.0
O365 O 0.32596 0.38088 0.49054 0.0
O366 O 0.23557 0.33335 0.48204 0.0
H367 H 0.25767 0.32236 0.452 0.0
H368 H 0.31812 0.3373 0.44293 0.0
C369 C 0.29435 0.3102 0.44968 0.0
H370 H 0.27008 0.25843 0.44798 0.0
H371 H 0.14777 0.30446 0.46705 0.0
O372 O 0.45529 0.38165 0.49282 0.0
C373 C 0.27212 0.37489 0.48827 0.0
Co374 Co 0.03279 0.36318 0.65289 0.0
Co375 Co 0.96578 0.23843 0.64013 0.0
C376 C 0.06447 0.25864 0.65528 0.0
O377 O 0.07421 0.31421 0.65746 0.0
O378 O 0.02378 0.22437 0.64878 0.0
C379 C 0.13268 0.48398 0.66098 0.0
O380 O 0.17363 0.46762 0.65767 0.0
C381 C 0.95416 0.14125 0.62592 0.0
C382 C 0.85901 0.1108 0.61953 0.0
C383 C 0.91163 0.10248 0.61877 0.0
N384 N 0.92802 0.17161 0.63063 0.0
N385 N 0.8707 0.1523 0.62689 0.0
C386 C 0.0211 0.1548 0.62755 0.0
H387 H 0.05156 0.20446 0.63025 0.0
H388 H 0.04169 0.14773 0.62072 0.0
H389 H 0.02052 0.12143 0.6332 0.0
C390 C 0.05732 0.42333 0.63316 0.0
N391 N 0.03659 0.3719 0.63907 0.0
N392 N 0.00934 0.31952 0.63371 0.0
C393 C 0.01245 0.33616 0.62422 0.0
C394 C 0.04262 0.4023 0.62355 0.0
C395 C 0.08385 0.49043 0.63677 0.0
H396 H 0.05326 0.4914 0.64275 0.0
H397 H 0.1324 0.50748 0.63979 0.0
H398 H 0.08697 0.52326 0.63083 0.0
O399 O 0.94257 0.31972 0.65732 0.0
O400 O 0.89457 0.2321 0.6482 0.0
H401 H 0.93199 0.26298 0.61652 0.0
H402 H -0.00145 0.31426 0.60871 0.0
C403 C 0.98488 0.28975 0.61591 0.0
H404 H 0.00259 0.25541 0.61627 0.0
H405 H 0.84061 0.16946 0.6291 0.0
O406 O 0.07323 0.44738 0.65949 0.0
C407 C 0.89259 0.26812 0.65484 0.0
H408 H 0.66834 0.85426 0.99819 0.0
H409 H 0.97092 0.1104 0.02764 0.0
H410 H 0.85843 0.88894 0.9919 0.0
H411 H 0.81874 0.1474 0.02 0.0
H412 H 0.9219 0.0154 0.01713 0.0
H413 H 0.71518 0.95013 0.00859 0.0
C414 C 0.71987 0.88216 0.99897 0.0
C415 C 0.75964 0.86382 0.99416 0.0
C416 C 0.89928 0.04432 0.0178 0.0
C417 C 0.81297 0.97198 0.00619 0.0
C418 C 0.92684 0.09816 0.02384 0.0
C419 C 0.89889 0.13689 0.02467 0.0
C420 C 0.84261 0.02827 0.01274 0.0
C421 C 0.84197 0.11897 0.01952 0.0
C422 C 0.74643 0.93672 1.00488 0.0
C423 C 0.82609 0.90165 0.99542 0.0
N424 N 0.81539 0.06563 0.01381 0.0
N425 N 0.85067 0.95353 1.00141 0.0
H426 H 0.88944 0.70424 0.17387 0.0
H427 H 0.7051 0.89943 0.17699 0.0
H428 H 0.88594 0.81703 0.14959 0.0
H429 H 0.80584 0.88191 0.20184 0.0
H430 H 0.74974 0.84795 0.16672 0.0
H431 H 0.83711 0.74817 0.18411 0.0
C432 C 0.87704 0.73771 0.17066 0.0
C433 C 0.89215 0.75719 0.16087 0.0
C434 C 0.7617 0.85519 0.17443 0.0
C435 C 0.83186 0.80677 0.17251 0.0
C436 C 0.73604 0.88413 0.18031 0.0
C437 C 0.75199 0.89508 0.19028 0.0
C438 C 0.80236 0.83576 0.1786 0.0
C439 C 0.79265 0.87467 0.19417 0.0
C440 C 0.84761 0.76294 0.17653 0.0
C441 C 0.87542 0.80103 0.15712 0.0
N442 N 0.81622 0.84561 0.18833 0.0
N443 N 0.84578 0.82413 0.16293 0.0
H444 H 0.81883 0.69161 0.34564 0.0
H445 H 0.19807 0.89244 0.34191 0.0
H446 H 0.93462 0.81004 0.36952 0.0
H447 H 0.07634 0.86951 0.31728 0.0
H448 H 0.10291 0.83945 0.3524 0.0
H449 H 0.9149 0.7339 0.33543 0.0
C450 C 0.86458 0.72586 0.34878 0.0
C451 C 0.86879 0.74756 0.35844 0.0
C452 C 0.09726 0.84571 0.34468 0.0
C453 C 0.97856 0.79536 0.34682 0.0
C454 C 0.15129 0.87547 0.33868 0.0
C455 C 0.14497 0.88548 0.32872 0.0
C456 C 0.03653 0.82449 0.34062 0.0
C457 C 0.08329 0.86302 0.32493 0.0
C458 C 0.91916 0.75015 0.34293 0.0
C459 C 0.92928 0.79235 0.3621 0.0
N460 N 0.03133 0.83326 0.33089 0.0
N461 N 0.98198 0.81467 0.35629 0.0
H462 H 0.19039 0.07397 0.48368 0.0
H463 H 0.11485 0.92766 0.5368 0.0
H464 H 0.29712 0.18737 0.50855 0.0
H465 H 0.11099 0.81474 0.51202 0.0
H466 H 0.16873 0.02418 0.52657 0.0
H467 H 0.14706 0.97764 0.49394 0.0
C468 C 0.20487 0.0785 0.49128 0.0
C469 C 0.24747 0.1386 0.49528 0.0
C470 C 0.15641 0.97822 0.52343 0.0
C471 C 0.19718 0.02931 0.50704 0.0
C472 C 0.12557 0.92326 0.52923 0.0
C473 C 0.1086 0.86323 0.52524 0.0
C474 C 0.16864 0.97273 0.51353 0.0
C475 C 0.12362 0.86016 0.5154 0.0
C476 C 0.18035 0.02366 0.4971 0.0
C477 C 0.26473 0.14186 0.50517 0.0
N478 N 0.15203 0.91406 0.50983 0.0
N479 N 0.23882 0.08805 0.51076 0.0
H480 H 0.32745 0.17708 0.68746 0.0
H481 H 0.02517 0.13245 0.65816 0.0
H482 H 0.13613 0.02563 0.69414 0.0
H483 H 0.17759 0.32206 0.66546 0.0
H484 H 0.07477 0.08723 0.66867 0.0
H485 H 0.28177 0.22707 0.67695 0.0
C486 C 0.27595 0.15454 0.68675 0.0
C487 C 0.23547 0.0972 0.69169 0.0
C488 C 0.09738 0.13872 0.66792 0.0
C489 C 0.18351 0.15302 0.67955 0.0
C490 C 0.06947 0.16458 0.66188 0.0
C491 C 0.09722 0.23116 0.66096 0.0
C492 C 0.15422 0.17958 0.67292 0.0
C493 C 0.15448 0.27047 0.66602 0.0
C494 C 0.25008 0.18308 0.68078 0.0
C495 C 0.16908 0.07 0.69052 0.0
N496 N 0.18141 0.24407 0.67175 0.0
N497 N 0.14521 0.09771 0.68447 0.0
H498 H 0.92591 0.10808 0.81621 0.0
H499 H 0.07284 0.18718 0.86939 0.0
H500 H 0.81461 0.10742 0.841 0.0
H501 H 0.18733 0.2889 0.8443 0.0
H502 H 0.97675 0.14337 0.8591 0.0
H503 H 0.0228 0.16102 0.82637 0.0
C504 C 0.92191 0.11921 0.82377 0.0
C505 C 0.86222 0.10347 0.82777 0.0
C506 C 0.02296 0.17562 0.85588 0.0
C507 C 0.97214 0.16254 0.83941 0.0
C508 C 0.07769 0.20043 0.86173 0.0
C509 C 0.13802 0.24183 0.85769 0.0
C510 C 0.02887 0.19096 0.84588 0.0
C511 C 0.14164 0.25749 0.84772 0.0
C512 C 0.97709 0.14954 0.82953 0.0
C513 C 0.85972 0.11906 0.83761 0.0
N514 N 0.08786 0.23138 0.84211 0.0
N515 N 0.91378 0.14701 0.84313 0.0
H516 H 0.09987 0.2158 0.0875 0.0
H517 H 0.09162 0.89183 0.09844 0.0
H518 H 0.03589 0.06767 0.06562 0.0
H519 H 0.04619 0.98766 0.12101 0.0
H520 H 0.08316 0.96145 0.08616 0.0
H521 H 0.09211 0.13871 0.09992 0.0
C522 C 0.0838 0.16685 0.08535 0.0
C523 C 0.06816 0.14771 0.07557 0.0
C524 C 0.07445 0.96679 0.09379 0.0
C525 C 0.06048 0.06011 0.08962 0.0
C526 C 0.0796 0.92746 0.10078 0.0
C527 C 0.06935 0.93414 0.1107 0.0
C528 C 0.06079 0.0143 0.09679 0.0
C529 C 0.05386 0.98084 0.1134 0.0
C530 C 0.07911 0.12298 0.09242 0.0
C531 C 0.04767 0.08393 0.07311 0.0
N532 N 0.05087 0.01988 0.10648 0.0
N533 N 0.04524 0.04247 0.08008 0.0
H534 H 0.96142 0.01435 0.23197 0.0
H535 H 0.05075 0.0233 0.28846 0.0
H536 H 0.88041 0.07766 0.25448 0.0
H537 H 0.18827 0.0676 0.26533 0.0
H538 H 0.97151 0.01313 0.27617 0.0
H539 H 0.02921 0.00353 0.2444 0.0
C540 C 0.95719 0.02482 0.23955 0.0
C541 C 0.91558 0.04693 0.24225 0.0
C542 C 0.01888 0.02436 0.27382 0.0
C543 C 0.99196 0.03433 0.2564 0.0
C544 C 0.06375 0.02983 0.28078 0.0
C545 C 0.1258 0.04643 0.27785 0.0
C546 C 0.03612 0.03432 0.26388 0.0
C547 C 0.14086 0.05513 0.26785 0.0
C548 C 0.99596 0.01903 0.2466 0.0
C549 C 0.91231 0.0608 0.25213 0.0
N550 N 0.09623 0.04879 0.2612 0.0
N551 N 0.94994 0.05412 0.25888 0.0
H552 H 0.97316 0.12804 0.45148 0.0
H553 H 0.95187 0.94832 0.40129 0.0
H554 H 0.13506 0.12361 0.43897 0.0
H555 H 0.78816 0.93174 0.41675 0.0
H556 H 0.02035 0.01137 0.4149 0.0
H557 H 0.90511 0.05546 0.43869 0.0
C558 C 0.99425 0.11119 0.44608 0.0
C559 C 0.05966 0.13117 0.44638 0.0
C560 C 0.96933 0.99333 0.41534 0.0
C561 C 0.98219 0.04862 0.43157 0.0
C562 C 0.93004 0.95679 0.40759 0.0
C563 C 0.86386 0.93371 0.40792 0.0
C564 C 0.94228 0.00742 0.4234 0.0
C565 C 0.83888 0.94855 0.41615 0.0
C566 C 0.95538 0.06969 0.43878 0.0
C567 C 0.08459 0.10813 0.43918 0.0
N568 N 0.87801 0.98442 0.42353 0.0
N569 N 0.04587 0.06835 0.43202 0.0
H570 H 0.89235 0.10403 0.59922 0.0
H571 H 0.89886 0.78949 0.58716 0.0
H572 H 0.95129 0.01502 0.62105 0.0
H573 H 0.95593 0.93785 0.56544 0.0
H574 H 0.90542 0.86498 0.59977 0.0
H575 H 0.90285 0.03731 0.58661 0.0
C576 C 0.90776 0.07053 0.60132 0.0
C577 C 0.92118 0.06485 0.61114 0.0
C578 C 0.91714 0.88113 0.59226 0.0
C579 C 0.93205 0.98803 0.59688 0.0
C580 C 0.91311 0.83817 0.58508 0.0
C581 C 0.92708 0.85785 0.5753 0.0
C582 C 0.93336 0.94354 0.58957 0.0
C583 C 0.94533 0.92124 0.57294 0.0
C584 C 0.91407 0.0329 0.59415 0.0
C585 C 0.94104 0.02097 0.61354 0.0
N586 N 0.94705 0.96177 0.58001 0.0
N587 N 0.94503 0.98343 0.60646 0.0
H588 H 0.00999 0.94491 0.73072 0.0
H589 H 0.93697 0.96424 0.78717 0.0
H590 H 0.10563 0.90284 0.75374 0.0
H591 H 0.78894 0.89624 0.76522 0.0
H592 H 0.01274 0.96954 0.77464 0.0
H593 H 0.94094 0.95446 0.74308 0.0
C594 C 0.01683 0.93849 0.73838 0.0
C595 C 0.06321 0.92302 0.74126 0.0
C596 C 0.96376 0.95406 0.77258 0.0
C597 C 0.98566 0.93456 0.75533 0.0
C598 C 0.92082 0.95144 0.77969 0.0
C599 C 0.85691 0.92984 0.77718 0.0
C600 C 0.94272 0.9362 0.7629 0.0
C601 C 0.8379 0.91288 0.76742 0.0
C602 C 0.97744 0.94363 0.7454 0.0
C603 C 0.07002 0.91449 0.75126 0.0
N604 N 0.88072 0.91668 0.76061 0.0
N605 N 0.03185 0.92071 0.75796 0.0
H606 H 0.88831 0.78676 0.93168 0.0
H607 H 0.19806 0.11531 0.92084 0.0
H608 H 0.9659 0.93663 0.95336 0.0
H609 H 0.06052 0.01444 0.89803 0.0
H610 H 0.11957 0.04553 0.93305 0.0
H611 H 0.95672 0.8643 0.91925 0.0
C612 C 0.91954 0.83616 0.93379 0.0
C613 C 0.92148 0.85566 0.94351 0.0
C614 C 0.10637 0.03914 0.92539 0.0
C615 C 0.00035 0.94385 0.92944 0.0
C616 C 0.15108 0.07859 0.91843 0.0
C617 C 0.13536 0.07045 0.90846 0.0
C618 C 0.04625 0.99007 0.9223 0.0
C619 C 0.07404 0.02236 0.90568 0.0
C620 C 0.95818 0.88029 0.92671 0.0
C621 C 0.96264 0.92004 0.9459 0.0
N622 N 0.03184 0.98322 0.91256 0.0
N623 N 0.00123 0.96181 0.93893 0.0
H624 H 0.41442 0.67913 0.99838 0.0
H625 H 0.21216 0.37448 0.03273 0.0
H626 H 0.46881 0.53698 1.00438 0.0
H627 H 0.13192 0.4816 0.01957 0.0
H628 H 0.31265 0.44256 0.02412 0.0
H629 H 0.31585 0.61542 0.00778 0.0
C630 C 0.40572 0.63466 1.00168 0.0
C631 C 0.44979 0.61325 1.00057 0.0
C632 C 0.27303 0.45117 0.02314 0.0
C633 C 0.33769 0.54062 0.01137 0.0
C634 C 0.21574 0.41251 0.02808 0.0
C635 C 0.16338 0.4221 0.02683 0.0
C636 C 0.2783 0.50024 0.01698 0.0
C637 C 0.17087 0.47216 0.0207 0.0
C638 C 0.34946 0.59831 0.00703 0.0
C639 C 0.43605 0.55521 1.005 0.0
N640 N 0.22726 0.5094 0.01601 0.0
N641 N 0.38135 0.52106 0.01023 0.0
H642 H 0.83348 0.4264 0.15985 0.0
H643 H 0.83888 0.21901 0.2051 0.0
H644 H 0.95624 0.50878 0.185 0.0
H645 H 0.69056 0.14547 0.18308 0.0
H646 H 0.88547 0.32471 0.19751 0.0
H647 H 0.78352 0.32191 0.16789 0.0
C648 C 0.84988 0.42255 0.16707 0.0
C649 C 0.89913 0.47643 0.17176 0.0
C650 C 0.84256 0.28548 0.19437 0.0
C651 C 0.84234 0.35694 0.18098 0.0
C652 C 0.81597 0.22507 0.19869 0.0
C653 C 0.76074 0.17317 0.19471 0.0
C654 C 0.81412 0.29401 0.18596 0.0
C655 C 0.73309 0.18402 0.18641 0.0
C656 C 0.82123 0.36291 0.17166 0.0
C657 C 0.91839 0.46858 0.18111 0.0
N658 N 0.76027 0.24311 0.18229 0.0
N659 N 0.89014 0.40991 0.1854 0.0
H660 H 0.48275 0.94936 0.33755 0.0
H661 H 0.53236 0.65596 0.35198 0.0
H662 H 0.3517 0.75378 0.32924 0.0
H663 H 0.64325 0.84488 0.36447 0.0
H664 H 0.46873 0.692 0.34302 0.0
H665 H 0.54538 0.91307 0.34678 0.0
C666 C 0.46715 0.89875 0.33765 0.0
C667 C 0.4118 0.8545 0.33261 0.0
C668 C 0.50684 0.72554 0.34774 0.0
C669 C 0.48347 0.81269 0.34318 0.0
C670 C 0.54334 0.70505 0.35286 0.0
C671 C 0.59341 0.74749 0.359 0.0
C672 C 0.52062 0.78911 0.34868 0.0
C673 C 0.60515 0.81047 0.35984 0.0
C674 C 0.50288 0.87808 0.34295 0.0
C675 C 0.39394 0.78956 0.33303 0.0
N676 N 0.56919 0.82943 0.35471 0.0
N677 N 0.42975 0.77064 0.3382 0.0
H678 H 0.79046 0.63762 0.53188 0.0
H679 H 0.58351 0.32751 0.49879 0.0
H680 H 0.86411 0.52002 0.52049 0.0
H681 H 0.53278 0.47346 0.50369 0.0
H682 H 0.68218 0.39148 0.5081 0.0
H683 H 0.69038 0.57122 0.52305 0.0
C684 C 0.78553 0.59771 0.52757 0.0
C685 C 0.8359 0.58457 0.5269 0.0
C686 C 0.64942 0.40945 0.50712 0.0
C687 C 0.72153 0.5084 0.5168 0.0
C688 C 0.59309 0.37295 0.50182 0.0
C689 C 0.54991 0.39522 0.50044 0.0
C690 C 0.66225 0.46827 0.51116 0.0
C691 C 0.56481 0.4545 0.50453 0.0
C692 C 0.7285 0.56 0.5225 0.0
C693 C 0.82675 0.53221 0.52118 0.0
N694 N 0.61959 0.48883 0.50973 0.0
N695 N 0.77069 0.49602 0.51637 0.0
H696 H 0.25572 0.58271 0.66359 0.0
H697 H 0.15272 0.77951 0.69917 0.0
H698 H 0.05966 0.52166 0.67116 0.0
H699 H 0.3398 0.8612 0.68588 0.0
H700 H 0.12041 0.67991 0.6903 0.0
H701 H 0.29 0.68105 0.673 0.0
C702 C 0.21992 0.58992 0.66723 0.0
C703 C 0.15474 0.54394 0.66657 0.0
C704 C 0.16855 0.71966 0.68934 0.0
C705 C 0.1936 0.65594 0.67739 0.0
C706 C 0.18711 0.77647 0.69443 0.0
C707 C 0.249 0.82896 0.69324 0.0
C708 C 0.2123 0.71501 0.68308 0.0
C709 C 0.29148 0.82214 0.68698 0.0
C710 C 0.2395 0.64607 0.67258 0.0
C711 C 0.11042 0.55586 0.67143 0.0
N712 N 0.27236 0.76624 0.68215 0.0
N713 N 0.13068 0.61054 0.67665 0.0
H714 H 0.36075 0.14861 0.86532 0.0
H715 H 0.67947 0.25335 0.83424 0.0
H716 H 0.48555 0.34168 0.85522 0.0
H717 H 0.52772 0.05718 0.83714 0.0
H718 H 0.61549 0.28733 0.84372 0.0
H719 H 0.42869 0.11486 0.85688 0.0
C720 C 0.40259 0.18393 0.86139 0.0
C721 C 0.41724 0.24795 0.86092 0.0
C722 C 0.59629 0.23686 0.84227 0.0
C723 C 0.49505 0.2098 0.8513 0.0
C724 C 0.63279 0.21745 0.83687 0.0
C725 C 0.6088 0.1524 0.83486 0.0
C726 C 0.53569 0.19082 0.84576 0.0
C727 C 0.54798 0.10791 0.83847 0.0
C728 C 0.44115 0.16462 0.85655 0.0
C729 C 0.47207 0.2917 0.85571 0.0
N730 N 0.51359 0.12793 0.84376 0.0
N731 N 0.50895 0.27182 0.85111 0.0
H732 H 0.51897 0.86432 0.83245 0.0
H733 H 0.4697 0.52362 0.84788 0.0
H734 H 0.63044 0.78565 0.82036 0.0
H735 H 0.3357 0.58659 0.85516 0.0
H736 H 0.53161 0.62093 0.83829 0.0
H737 H 0.45347 0.76441 0.84122 0.0
C738 C 0.52962 0.82595 0.8316 0.0
C739 C 0.58057 0.83357 0.82568 0.0
C740 C 0.48858 0.6134 0.84196 0.0
C741 C 0.50565 0.71888 0.83578 0.0
C742 C 0.45326 0.55794 0.84747 0.0
C743 C 0.39738 0.54694 0.85235 0.0
C744 C 0.46828 0.6586 0.84137 0.0
C745 C 0.37841 0.59305 0.85152 0.0
C746 C 0.49202 0.76881 0.83661 0.0
C747 C 0.59171 0.78194 0.82484 0.0
N748 N 0.41394 0.64699 0.84617 0.0
N749 N 0.5548 0.72691 0.8299 0.0
H750 H 0.93658 0.465 0.01393 0.0
H751 H 0.64759 0.51938 0.99918 0.0
H752 H 0.73928 0.32628 0.02007 0.0
H753 H 0.83595 0.62532 0.98633 0.0
H754 H 0.68085 0.45172 0.00771 0.0
H755 H 0.90127 0.52835 1.00471 0.0
C756 C 0.88576 0.44782 0.01335 0.0
C757 C 0.84077 0.3902 0.01779 0.0
C758 C 0.71475 0.48956 1.00299 0.0
C759 C 0.80008 0.46282 0.00724 0.0
C760 C 0.69591 0.52836 0.99813 0.0
C761 C 0.73913 0.57831 0.99204 0.0
C762 C 0.7775 0.5012 1.00186 0.0
C763 C 0.801 0.58741 0.99094 0.0
C764 C 0.86566 0.48395 0.00804 0.0
C765 C 0.77557 0.37031 0.01675 0.0
N766 N 0.81845 0.54953 0.99585 0.0
N767 N 0.75716 0.40678 0.01162 0.0
H768 H 0.47193 0.95199 0.18064 0.0
H769 H 0.13544 0.65583 0.16483 0.0
H770 H 0.41959 0.75531 0.18593 0.0
H771 H 0.20776 0.84678 0.15344 0.0
H772 H 0.23677 0.69211 0.17334 0.0
H773 H 0.3727 0.91512 0.17146 0.0
C774 C 0.43956 0.90101 0.17988 0.0
C775 C 0.45409 0.85663 0.18407 0.0
C776 C 0.2306 0.726 0.16894 0.0
C777 C 0.3403 0.81418 0.17358 0.0
C778 C 0.17268 0.70539 0.16409 0.0
C779 C 0.16295 0.74837 0.15842 0.0
C780 C 0.27908 0.79026 0.16822 0.0
C781 C 0.21311 0.81195 0.15771 0.0
C782 C 0.38303 0.88004 0.1746 0.0
C783 C 0.4104 0.79121 0.18281 0.0
N784 N 0.26887 0.83106 0.16261 0.0
N785 N 0.35534 0.77196 0.17772 0.0
H786 H 0.59147 0.42113 0.35951 0.0
H787 H 0.37523 0.21412 0.31456 0.0
H788 H 0.5538 0.50443 0.3342 0.0
H789 H 0.45255 0.14047 0.33617 0.0
H790 H 0.43452 0.31964 0.3222 0.0
H791 H 0.5346 0.31624 0.35162 0.0
C792 C 0.57131 0.41739 0.35229 0.0
C793 C 0.57746 0.47163 0.3475 0.0
C794 C 0.43864 0.28039 0.32524 0.0
C795 C 0.51207 0.35178 0.33846 0.0
C796 C 0.40469 0.2201 0.3209 0.0
C797 C 0.40887 0.1683 0.32473 0.0
C798 C 0.47653 0.28883 0.33353 0.0
C799 C 0.44798 0.179 0.33295 0.0
C800 C 0.53898 0.35754 0.34779 0.0
C801 C 0.55036 0.46394 0.33815 0.0
N802 N 0.48002 0.23796 0.3371 0.0
N803 N 0.51863 0.40509 0.33395 0.0
H804 H 0.25733 0.67269 0.5217 0.0
H805 H 0.15323 0.36399 0.48814 0.0
H806 H 0.06058 0.52957 0.51618 0.0
H807 H 0.34425 0.48034 0.49963 0.0
H808 H 0.12001 0.43095 0.49693 0.0
H809 H 0.29172 0.60884 0.51226 0.0
C810 C 0.22139 0.62791 0.51851 0.0
C811 C 0.15601 0.60638 0.51975 0.0
C812 C 0.1692 0.44179 0.49751 0.0
C813 C 0.19495 0.53343 0.50891 0.0
C814 C 0.18825 0.40374 0.49246 0.0
C815 C 0.25154 0.41633 0.49318 0.0
C816 C 0.21388 0.49314 0.50324 0.0
C817 C 0.29484 0.46854 0.49891 0.0
C818 C 0.24103 0.59147 0.51314 0.0
C819 C 0.11152 0.54795 0.51544 0.0
N820 N 0.27522 0.50501 0.50371 0.0
N821 N 0.13181 0.51364 0.5102 0.0
H822 H 0.58967 0.25237 0.69124 0.0
H823 H 0.77961 0.15466 0.65335 0.0
H824 H 0.52194 0.05921 0.68123 0.0
H825 H 0.86619 0.33758 0.66804 0.0
H826 H 0.68068 0.12235 0.66235 0.0
H827 H 0.68784 0.28778 0.68171 0.0
C828 C 0.59538 0.21745 0.68704 0.0
C829 C 0.54756 0.15272 0.68705 0.0
C830 C 0.72132 0.16959 0.6636 0.0
C831 C 0.65934 0.19289 0.67611 0.0
C832 C 0.77781 0.18818 0.65843 0.0
C833 C 0.83149 0.24886 0.65996 0.0
C834 C 0.71815 0.21206 0.67031 0.0
C835 C 0.82615 0.29021 0.66666 0.0
C836 C 0.65142 0.23767 0.68162 0.0
C837 C 0.55755 0.10955 0.68148 0.0
N838 N 0.7705 0.27105 0.67158 0.0
N839 N 0.61217 0.13044 0.67622 0.0
H840 H 0.84848 0.47813 0.11659 0.0
H841 H 0.00671 0.48713 0.06479 0.0
H842 H 0.03689 0.62666 0.10802 0.0
H843 H 0.86468 0.30997 0.07784 0.0
H844 H 0.0057 0.5444 0.07955 0.0
H845 H 0.84223 0.41948 0.1015 0.0
C846 C 0.88841 0.4983 0.11153 0.0
C847 C 0.94301 0.55754 0.11348 0.0
C848 C 0.97444 0.49304 0.07917 0.0
C849 C 0.93576 0.49179 0.09624 0.0
C850 C 0.97474 0.4606 0.07075 0.0
C851 C 0.93556 0.39414 0.07017 0.0
C852 C 0.93424 0.4587 0.08703 0.0
C853 C 0.89536 0.36143 0.07807 0.0
C854 C 0.88476 0.46504 0.10294 0.0
C855 C 0.99333 0.58185 0.10669 0.0
N856 N 0.89559 0.3941 0.08621 0.0
N857 N 0.98835 0.54911 0.09835 0.0
H858 H 0.55298 0.85989 0.24344 0.0
H859 H 0.41332 0.0384 0.27551 0.0
H860 H 0.52258 0.00984 0.23239 0.0
H861 H 0.38929 0.85565 0.28406 0.0
H862 H 0.46069 0.03174 0.26012 0.0
H863 H 0.49836 0.85884 0.25872 0.0
C864 C 0.53385 0.89185 0.24421 0.0
C865 C 0.54162 0.93473 0.2367 0.0
C866 C 0.44486 0.99283 0.26531 0.0
C867 C 0.48076 0.93488 0.25408 0.0
C868 C 0.41769 0.99657 0.2741 0.0
C869 C 0.39642 0.94697 0.28098 0.0
C870 C 0.4518 0.93945 0.26341 0.0
C871 C 0.40504 0.8948 0.27892 0.0
C872 C 0.50298 0.89141 0.2529 0.0
C873 C 0.51686 0.97572 0.23801 0.0
N874 N 0.43214 0.89231 0.27029 0.0
N875 N 0.48796 0.97515 0.24657 0.0
H876 H 0.46553 0.48922 0.45362 0.0
H877 H 0.6263 0.48159 0.40309 0.0
H878 H 0.43195 0.3118 0.44087 0.0
H879 H 0.57497 0.62487 0.40979 0.0
H880 H 0.57007 0.42307 0.41798 0.0
H881 H 0.52289 0.54584 0.43873 0.0
C882 C 0.47089 0.4625 0.44768 0.0
C883 C 0.44462 0.39618 0.44839 0.0
C884 C 0.57133 0.4674 0.41617 0.0
C885 C 0.50981 0.45999 0.43145 0.0
C886 C 0.60319 0.50063 0.4077 0.0
C887 C 0.6058 0.55841 0.40529 0.0
C888 C 0.54286 0.4928 0.42231 0.0
C889 C 0.57533 0.58124 0.4115 0.0
C890 C 0.50315 0.49455 0.4392 0.0
C891 C 0.452 0.36316 0.44053 0.0
N892 N 0.54558 0.54869 0.41977 0.0
N893 N 0.48435 0.3955 0.43237 0.0
H894 H 0.15187 0.64144 0.57145 0.0
H895 H 0.94178 0.38826 0.61291 0.0
H896 H 0.94799 0.5597 0.57452 0.0
H897 H 0.14735 0.50028 0.61455 0.0
H898 H 0.9441 0.44606 0.59809 0.0
H899 H 0.15269 0.58507 0.58646 0.0
C900 C 0.10741 0.61145 0.5753 0.0
C901 C 0.04986 0.60522 0.57185 0.0
C902 C 0.98884 0.45834 0.60168 0.0
C903 C 0.05016 0.54097 0.58885 0.0
C904 C 0.98744 0.42528 0.61011 0.0
C905 C 0.04447 0.43961 0.61486 0.0
C906 C 0.04782 0.50593 0.59792 0.0
C907 C 0.10245 0.48814 0.61104 0.0
C908 C 0.10786 0.57965 0.58384 0.0
C909 C 0.99339 0.56602 0.57702 0.0
N910 N 0.10277 0.51949 0.60272 0.0
N911 N 0.99494 0.53532 0.58525 0.0
H912 H 0.51943 0.1417 0.73531 0.0
H913 H 0.51198 0.98607 0.78726 0.0
H914 H 0.37209 0.9529 0.74396 0.0
H915 H 0.6889 0.12767 0.77409 0.0
H916 H 0.45454 0.98586 0.77244 0.0
H917 H 0.57858 0.1486 0.75038 0.0
C918 C 0.49962 0.10181 0.74038 0.0
C919 C 0.44049 0.04696 0.73846 0.0
C920 C 0.50589 0.01726 0.7728 0.0
C921 C 0.50684 0.05496 0.75568 0.0
C922 C 0.53843 0.01765 0.78126 0.0
C923 C 0.60489 0.05706 0.78182 0.0
C924 C 0.5401 0.05703 0.7649 0.0
C925 C 0.63746 0.09678 0.77386 0.0
C926 C 0.53317 0.10584 0.74896 0.0
C927 C 0.41672 0.9967 0.74526 0.0
N928 N 0.60468 0.09591 0.7657 0.0
N929 N 0.44971 0.00207 0.75359 0.0
H930 H 0.51836 0.51536 0.95371 0.0
H931 H 0.3788 0.52747 0.90122 0.0
H932 H 0.56182 0.6941 0.94025 0.0
H933 H 0.41207 0.37561 0.91047 0.0
H934 H 0.43104 0.58639 0.9163 0.0
H935 H 0.46117 0.45878 0.93885 0.0
C936 C 0.515 0.54242 0.94763 0.0
C937 C 0.54431 0.60912 0.94813 0.0
C938 C 0.42659 0.54006 0.91501 0.0
C939 C 0.47969 0.5453 0.93116 0.0
C940 C 0.39708 0.50663 0.90642 0.0
C941 C 0.39045 0.44629 0.90467 0.0
C942 C 0.44874 0.51238 0.9219 0.0
C943 C 0.41471 0.42123 0.91164 0.0
C944 C 0.48288 0.51036 0.93915 0.0
C945 C 0.53945 0.64246 0.94008 0.0
N946 N 0.44233 0.45413 0.91997 0.0
N947 N 0.50757 0.61015 0.93189 0.0
loop_
_geom_bond_atom_site_label_1
_geom_bond_atom_site_label_2
_geom_bond_distance
_geom_bond_site_symmetry_2
_ccdc_geom_bond_type
Co0 O3 1.970 . S
Co0 N17 1.989 . S
Co0 O25 1.967 1_655 S
Co0 O32 1.920 . S
Co1 O4 1.966 1_455 S
Co1 N10 2.022 . S
Co1 N18 1.993 . S
Co1 O26 1.941 . S
C2 O3 1.258 . S
C2 O4 1.263 . S
O3 Co0 1.970 . S
O3 C2 1.258 . S
O4 Co1 1.966 1_655 S
O4 C2 1.263 . S
C5 O6 1.235 . S
C5 O32 1.289 . S
O6 C5 1.235 . S
C7 C9 1.400 . S
C7 N10 1.351 . S
C7 C12 1.501 1_455 S
C8 C9 1.387 . S
C8 N11 1.341 . S
C9 C7 1.400 . S
C9 C8 1.387 . S
N10 Co1 2.022 . S
N10 C7 1.351 . S
N10 N11 1.365 . S
N11 C8 1.341 . S
N11 N10 1.365 . S
N11 H31 0.862 . S
C12 C7 1.501 1_655 S
C12 H13 0.961 . S
C12 H14 0.961 . S
C12 H15 0.960 . S
H13 C12 0.961 . S
H14 C12 0.961 . S
H15 C12 0.960 . S
C16 N17 1.342 . S
C16 C20 1.401 . S
C16 C21 1.499 . S
N17 Co0 1.989 . S
N17 C16 1.342 . S
N17 N18 1.388 1_655 S
N18 Co1 1.993 . S
N18 N17 1.388 1_455 S
N18 C19 1.345 1_455 S
C19 N18 1.345 1_655 S
C19 C20 1.400 . S
C19 C29 1.508 1_655 S
C20 C16 1.401 . S
C20 C19 1.400 . S
C21 C16 1.499 . S
C21 H22 0.959 . S
C21 H23 0.960 . S
C21 H24 0.961 . S
H22 C21 0.959 . S
H23 C21 0.960 . S
H24 C21 0.961 . S
O25 Co0 1.967 1_455 S
O25 C33 1.258 . S
O26 Co1 1.941 . S
O26 C33 1.266 . S
H27 C29 0.959 . S
H28 C29 0.961 1_655 S
C29 C19 1.508 1_455 S
C29 H27 0.959 . S
C29 H28 0.961 1_455 S
C29 H30 0.960 . S
H30 C29 0.960 . S
H31 N11 0.862 . S
O32 Co0 1.920 . S
O32 C5 1.289 . S
C33 O25 1.258 . S
C33 O26 1.266 . S
Co34 O37 1.970 . S
Co34 N51 1.989 . S
Co34 O59 1.967 1_565 S
Co34 O66 1.920 . S
Co35 O38 1.966 1_545 S
Co35 N44 2.022 . S
Co35 N52 1.993 . S
Co35 O60 1.941 . S
C36 O37 1.258 . S
C36 O38 1.263 . S
O37 Co34 1.970 . S
O37 C36 1.258 . S
O38 Co35 1.966 1_565 S
O38 C36 1.263 . S
C39 O40 1.235 . S
C39 O66 1.289 . S
O40 C39 1.235 . S
C41 C43 1.400 . S
C41 N44 1.351 . S
C41 C46 1.501 1_545 S
C42 C43 1.387 . S
C42 N45 1.341 . S
C43 C41 1.400 . S
C43 C42 1.387 . S
N44 Co35 2.022 . S
N44 C41 1.351 . S
N44 N45 1.365 . S
N45 C42 1.341 . S
N45 N44 1.365 . S
N45 H65 0.862 . S
C46 C41 1.501 1_565 S
C46 H47 0.961 . S
C46 H48 0.961 . S
C46 H49 0.960 . S
H47 C46 0.961 . S
H48 C46 0.961 . S
H49 C46 0.960 . S
C50 N51 1.342 . S
C50 C54 1.401 . S
C50 C55 1.499 . S
N51 Co34 1.989 . S
N51 C50 1.342 . S
N51 N52 1.388 1_565 S
N52 Co35 1.993 . S
N52 N51 1.388 1_545 S
N52 C53 1.347 1_545 S
C53 N52 1.347 1_565 S
C53 C54 1.392 . S
C53 C63 1.512 1_565 S
C54 C50 1.401 . S
C54 C53 1.392 . S
C55 C50 1.499 . S
C55 H56 0.959 . S
C55 H57 0.960 . S
C55 H58 0.961 . S
H56 C55 0.959 . S
H57 C55 0.960 . S
H58 C55 0.961 . S
O59 Co34 1.967 1_545 S
O59 C67 1.258 . S
O60 Co35 1.941 . S
O60 C67 1.266 . S
H61 C63 0.959 . S
H62 C63 0.961 1_565 S
C63 C53 1.512 1_545 S
C63 H61 0.959 . S
C63 H62 0.961 1_545 S
C63 H64 0.960 . S
H64 C63 0.960 . S
H65 N45 0.862 . S
O66 Co34 1.920 . S
O66 C39 1.289 . S
C67 O59 1.258 . S
C67 O60 1.266 . S
Co68 O71 1.970 . S
Co68 N85 1.989 . S
Co68 O93 1.967 . S
Co68 O100 1.920 . S
Co69 O72 1.966 . S
Co69 N78 2.022 . S
Co69 N86 1.993 . S
Co69 O94 1.941 . S
C70 O71 1.258 . S
C70 O72 1.263 . S
O71 Co68 1.970 . S
O71 C70 1.258 . S
O72 Co69 1.966 . S
O72 C70 1.263 . S
C73 O74 1.235 . S
C73 O100 1.289 . S
O74 C73 1.235 . S
C75 C77 1.400 . S
C75 N78 1.351 . S
C75 C80 1.501 . S
C76 C77 1.387 . S
C76 N79 1.341 . S
C77 C75 1.400 . S
C77 C76 1.387 . S
N78 Co69 2.022 . S
N78 C75 1.351 . S
N78 N79 1.365 . S
N79 C76 1.341 . S
N79 N78 1.365 . S
N79 H99 0.862 . S
C80 C75 1.501 . S
C80 H81 0.961 . S
C80 H82 0.961 . S
C80 H83 0.960 . S
H81 C80 0.961 . S
H82 C80 0.961 . S
H83 C80 0.960 . S
C84 N85 1.342 . S
C84 C88 1.401 . S
C84 C89 1.499 . S
N85 Co68 1.989 . S
N85 C84 1.342 . S
N85 N86 1.388 . S
N86 Co69 1.993 . S
N86 N85 1.388 . S
N86 C87 1.346 . S
C87 N86 1.346 . S
C87 C88 1.396 . S
C87 C97 1.510 . S
C88 C84 1.401 . S
C88 C87 1.396 . S
C89 C84 1.499 . S
C89 H90 0.959 . S
C89 H91 0.960 . S
C89 H92 0.961 . S
H90 C89 0.959 . S
H91 C89 0.960 . S
H92 C89 0.961 . S
O93 Co68 1.967 . S
O93 C101 1.258 . S
O94 Co69 1.941 . S
O94 C101 1.266 . S
H95 C97 0.959 . S
H96 C97 0.961 . S
C97 C87 1.510 . S
C97 H95 0.959 . S
C97 H96 0.961 . S
C97 H98 0.960 . S
H98 C97 0.960 . S
H99 N79 0.862 . S
O100 Co68 1.920 . S
O100 C73 1.289 . S
C101 O93 1.258 . S
C101 O94 1.266 . S
Co102 O105 1.970 . S
Co102 N119 1.989 . S
Co102 O127 1.967 1_455 S
Co102 O134 1.920 . S
Co103 O106 1.966 1_655 S
Co103 N112 2.022 . S
Co103 N120 1.993 . S
Co103 O128 1.941 . S
C104 O105 1.258 . S
C104 O106 1.263 . S
O105 Co102 1.970 . S
O105 C104 1.258 . S
O106 Co103 1.966 1_455 S
O106 C104 1.263 . S
C107 O108 1.235 . S
C107 O134 1.289 . S
O108 C107 1.235 . S
C109 C111 1.400 . S
C109 N112 1.351 . S
C109 C114 1.501 1_655 S
C110 C111 1.387 . S
C110 N113 1.341 . S
C111 C109 1.400 . S
C111 C110 1.387 . S
N112 Co103 2.022 . S
N112 C109 1.351 . S
N112 N113 1.365 . S
N113 C110 1.341 . S
N113 N112 1.365 . S
N113 H133 0.862 . S
C114 C109 1.501 1_455 S
C114 H115 0.961 . S
C114 H116 0.961 . S
C114 H117 0.960 . S
H115 C114 0.961 . S
H116 C114 0.961 . S
H117 C114 0.960 . S
C118 N119 1.342 . S
C118 C122 1.401 . S
C118 C123 1.499 . S
N119 Co102 1.989 . S
N119 C118 1.342 . S
N119 N120 1.388 1_455 S
N120 Co103 1.993 . S
N120 N119 1.388 1_655 S
N120 C121 1.345 1_655 S
C121 N120 1.345 1_455 S
C121 C122 1.400 . S
C121 C131 1.508 1_455 S
C122 C118 1.401 . S
C122 C121 1.400 . S
C123 C118 1.499 . S
C123 H124 0.959 . S
C123 H125 0.960 . S
C123 H126 0.961 . S
H124 C123 0.959 . S
H125 C123 0.960 . S
H126 C123 0.961 . S
O127 Co102 1.967 1_655 S
O127 C135 1.258 . S
O128 Co103 1.941 . S
O128 C135 1.266 . S
H129 C131 0.959 . S
H130 C131 0.961 1_455 S
C131 C121 1.508 1_655 S
C131 H129 0.959 . S
C131 H130 0.961 1_655 S
C131 H132 0.960 . S
H132 C131 0.960 . S
H133 N113 0.862 . S
O134 Co102 1.920 . S
O134 C107 1.289 . S
C135 O127 1.258 . S
C135 O128 1.266 . S
Co136 O139 1.970 . S
Co136 N153 1.989 . S
Co136 O161 1.967 1_545 S
Co136 O168 1.920 . S
Co137 O140 1.966 1_565 S
Co137 N146 2.022 . S
Co137 N154 1.993 . S
Co137 O162 1.941 . S
C138 O139 1.258 . S
C138 O140 1.263 . S
O139 Co136 1.970 . S
O139 C138 1.258 . S
O140 Co137 1.966 1_545 S
O140 C138 1.263 . S
C141 O142 1.235 . S
C141 O168 1.289 . S
O142 C141 1.235 . S
C143 C145 1.400 . S
C143 N146 1.351 . S
C143 C148 1.501 1_565 S
C144 C145 1.387 . S
C144 N147 1.341 . S
C145 C143 1.400 . S
C145 C144 1.387 . S
N146 Co137 2.022 . S
N146 C143 1.351 . S
N146 N147 1.365 . S
N147 C144 1.341 . S
N147 N146 1.365 . S
N147 H167 0.862 . S
C148 C143 1.501 1_545 S
C148 H149 0.961 . S
C148 H150 0.961 . S
C148 H151 0.960 . S
H149 C148 0.961 . S
H150 C148 0.961 . S
H151 C148 0.960 . S
C152 N153 1.342 . S
C152 C156 1.401 . S
C152 C157 1.499 . S
N153 Co136 1.989 . S
N153 C152 1.342 . S
N153 N154 1.388 1_545 S
N154 Co137 1.993 . S
N154 N153 1.388 1_565 S
N154 C155 1.347 1_565 S
C155 N154 1.347 1_545 S
C155 C156 1.392 . S
C155 C165 1.513 1_545 S
C156 C152 1.401 . S
C156 C155 1.392 . S
C157 C152 1.499 . S
C157 H158 0.959 . S
C157 H159 0.960 . S
C157 H160 0.961 . S
H158 C157 0.959 . S
H159 C157 0.960 . S
H160 C157 0.961 . S
O161 Co136 1.967 1_565 S
O161 C169 1.258 . S
O162 Co137 1.941 . S
O162 C169 1.266 . S
H163 C165 0.959 . S
H164 C165 0.961 1_545 S
C165 C155 1.513 1_565 S
C165 H163 0.959 . S
C165 H164 0.961 1_565 S
C165 H166 0.960 . S
H166 C165 0.960 . S
H167 N147 0.862 . S
O168 Co136 1.920 . S
O168 C141 1.289 . S
C169 O161 1.258 . S
C169 O162 1.266 . S
Co170 O173 1.970 . S
Co170 N187 1.989 . S
Co170 O195 1.967 . S
Co170 O202 1.920 . S
Co171 O174 1.966 . S
Co171 N180 2.022 . S
Co171 N188 1.993 . S
Co171 O196 1.941 . S
C172 O173 1.258 . S
C172 O174 1.263 . S
O173 Co170 1.970 . S
O173 C172 1.258 . S
O174 Co171 1.966 . S
O174 C172 1.263 . S
C175 O176 1.235 . S
C175 O202 1.289 . S
O176 C175 1.235 . S
C177 C179 1.400 . S
C177 N180 1.351 . S
C177 C182 1.501 . S
C178 C179 1.387 . S
C178 N181 1.341 . S
C179 C177 1.400 . S
C179 C178 1.387 . S
N180 Co171 2.022 . S
N180 C177 1.351 . S
N180 N181 1.365 . S
N181 C178 1.341 . S
N181 N180 1.365 . S
N181 H201 0.862 . S
C182 C177 1.501 . S
C182 H183 0.961 . S
C182 H184 0.961 . S
C182 H185 0.960 . S
H183 C182 0.961 . S
H184 C182 0.961 . S
H185 C182 0.960 . S
C186 N187 1.342 . S
C186 C190 1.401 . S
C186 C191 1.499 . S
N187 Co170 1.989 . S
N187 C186 1.342 . S
N187 N188 1.388 . S
N188 Co171 1.993 . S
N188 N187 1.388 . S
N188 C189 1.346 . S
C189 N188 1.346 . S
C189 C190 1.396 . S
C189 C199 1.510 . S
C190 C186 1.401 . S
C190 C189 1.396 . S
C191 C186 1.499 . S
C191 H192 0.959 . S
C191 H193 0.960 . S
C191 H194 0.961 . S
H192 C191 0.959 . S
H193 C191 0.960 . S
H194 C191 0.961 . S
O195 Co170 1.967 . S
O195 C203 1.258 . S
O196 Co171 1.941 . S
O196 C203 1.266 . S
H197 C199 0.959 . S
H198 C199 0.961 . S
C199 C189 1.510 . S
C199 H197 0.959 . S
C199 H198 0.961 . S
C199 H200 0.960 . S
H200 C199 0.960 . S
H201 N181 0.862 . S
O202 Co170 1.920 . S
O202 C175 1.289 . S
C203 O195 1.258 . S
C203 O196 1.266 . S
Co204 O207 1.970 . S
Co204 N221 1.989 . S
Co204 O229 1.967 1_545 S
Co204 O236 1.920 . S
Co205 O208 1.966 1_565 S
Co205 N214 2.022 . S
Co205 N222 1.993 . S
Co205 O230 1.941 . S
C206 O207 1.258 . S
C206 O208 1.263 . S
O207 Co204 1.970 . S
O207 C206 1.258 . S
O208 Co205 1.966 1_545 S
O208 C206 1.263 . S
C209 O210 1.235 . S
C209 O236 1.289 . S
O210 C209 1.235 . S
C211 C213 1.400 . S
C211 N214 1.351 . S
C211 C216 1.501 1_565 S
C212 C213 1.387 . S
C212 N215 1.341 . S
C213 C211 1.400 . S
C213 C212 1.387 . S
N214 Co205 2.022 . S
N214 C211 1.351 . S
N214 N215 1.365 . S
N215 C212 1.341 . S
N215 N214 1.365 . S
N215 H235 0.862 . S
C216 C211 1.501 1_545 S
C216 H217 0.961 . S
C216 H218 0.961 . S
C216 H219 0.960 . S
H217 C216 0.961 . S
H218 C216 0.961 . S
H219 C216 0.960 . S
C220 N221 1.342 . S
C220 C224 1.401 . S
C220 C225 1.499 . S
N221 Co204 1.989 . S
N221 C220 1.342 . S
N221 N222 1.388 1_545 S
N222 Co205 1.993 . S
N222 N221 1.388 1_565 S
N222 C223 1.345 1_565 S
C223 N222 1.345 1_545 S
C223 C224 1.400 . S
C223 C233 1.508 1_545 S
C224 C220 1.401 . S
C224 C223 1.400 . S
C225 C220 1.499 . S
C225 H226 0.959 . S
C225 H227 0.960 . S
C225 H228 0.961 . S
H226 C225 0.959 . S
H227 C225 0.960 . S
H228 C225 0.961 . S
O229 Co204 1.967 1_565 S
O229 C237 1.258 . S
O230 Co205 1.941 . S
O230 C237 1.266 . S
H231 C233 0.959 . S
H232 C233 0.961 1_545 S
C233 C223 1.508 1_565 S
C233 H231 0.959 . S
C233 H232 0.961 1_565 S
C233 H234 0.960 . S
H234 C233 0.960 . S
H235 N215 0.862 . S
O236 Co204 1.920 . S
O236 C209 1.289 . S
C237 O229 1.258 . S
C237 O230 1.266 . S
Co238 O241 1.970 . S
Co238 N255 1.989 . S
Co238 O263 1.967 . S
Co238 O270 1.920 . S
Co239 O242 1.966 . S
Co239 N248 2.022 . S
Co239 N256 1.993 . S
Co239 O264 1.941 . S
C240 O241 1.258 . S
C240 O242 1.263 . S
O241 Co238 1.970 . S
O241 C240 1.258 . S
O242 Co239 1.966 . S
O242 C240 1.263 . S
C243 O244 1.235 . S
C243 O270 1.289 . S
O244 C243 1.235 . S
C245 C247 1.400 . S
C245 N248 1.351 . S
C245 C250 1.501 . S
C246 C247 1.387 . S
C246 N249 1.341 . S
C247 C245 1.400 . S
C247 C246 1.387 . S
N248 Co239 2.022 . S
N248 C245 1.351 . S
N248 N249 1.365 . S
N249 C246 1.341 . S
N249 N248 1.365 . S
N249 H269 0.862 . S
C250 C245 1.501 . S
C250 H251 0.961 . S
C250 H252 0.961 . S
C250 H253 0.960 . S
H251 C250 0.961 . S
H252 C250 0.961 . S
H253 C250 0.960 . S
C254 N255 1.342 . S
C254 C258 1.401 . S
C254 C259 1.499 . S
N255 Co238 1.989 . S
N255 C254 1.342 . S
N255 N256 1.388 . S
N256 Co239 1.993 . S
N256 N255 1.388 . S
N256 C257 1.346 . S
C257 N256 1.346 . S
C257 C258 1.396 . S
C257 C267 1.510 . S
C258 C254 1.401 . S
C258 C257 1.396 . S
C259 C254 1.499 . S
C259 H260 0.959 . S
C259 H261 0.960 . S
C259 H262 0.961 . S
H260 C259 0.959 . S
H261 C259 0.960 . S
H262 C259 0.961 . S
O263 Co238 1.967 . S
O263 C271 1.258 . S
O264 Co239 1.941 . S
O264 C271 1.266 . S
H265 C267 0.959 . S
H266 C267 0.961 . S
C267 C257 1.510 . S
C267 H265 0.959 . S
C267 H266 0.961 . S
C267 H268 0.960 . S
H268 C267 0.960 . S
H269 N249 0.862 . S
O270 Co238 1.920 . S
O270 C243 1.289 . S
C271 O263 1.258 . S
C271 O264 1.266 . S
Co272 O275 1.970 . S
Co272 N289 1.989 . S
Co272 O297 1.967 1_655 S
Co272 O304 1.920 . S
Co273 O276 1.966 1_455 S
Co273 N282 2.022 . S
Co273 N290 1.993 . S
Co273 O298 1.941 . S
C274 O275 1.258 . S
C274 O276 1.263 . S
O275 Co272 1.970 . S
O275 C274 1.258 . S
O276 Co273 1.966 1_655 S
O276 C274 1.263 . S
C277 O278 1.235 . S
C277 O304 1.289 . S
O278 C277 1.235 . S
C279 C281 1.400 . S
C279 N282 1.351 . S
C279 C284 1.501 1_455 S
C280 C281 1.387 . S
C280 N283 1.341 . S
C281 C279 1.400 . S
C281 C280 1.387 . S
N282 Co273 2.022 . S
N282 C279 1.351 . S
N282 N283 1.365 . S
N283 C280 1.341 . S
N283 N282 1.365 . S
N283 H303 0.862 . S
C284 C279 1.501 1_655 S
C284 H285 0.961 . S
C284 H286 0.961 . S
C284 H287 0.960 . S
H285 C284 0.961 . S
H286 C284 0.961 . S
H287 C284 0.960 . S
C288 N289 1.342 . S
C288 C292 1.401 . S
C288 C293 1.499 . S
N289 Co272 1.989 . S
N289 C288 1.342 . S
N289 N290 1.388 1_655 S
N290 Co273 1.993 . S
N290 N289 1.388 1_455 S
N290 C291 1.347 1_455 S
C291 N290 1.347 1_655 S
C291 C292 1.392 . S
C291 C301 1.512 1_655 S
C292 C288 1.401 . S
C292 C291 1.392 . S
C293 C288 1.499 . S
C293 H294 0.959 . S
C293 H295 0.960 . S
C293 H296 0.961 . S
H294 C293 0.959 . S
H295 C293 0.960 . S
H296 C293 0.961 . S
O297 Co272 1.967 1_455 S
O297 C305 1.258 . S
O298 Co273 1.941 . S
O298 C305 1.266 . S
H299 C301 0.959 . S
H300 C301 0.961 1_655 S
C301 C291 1.512 1_455 S
C301 H299 0.959 . S
C301 H300 0.961 1_455 S
C301 H302 0.960 . S
H302 C301 0.960 . S
H303 N283 0.862 . S
O304 Co272 1.920 . S
O304 C277 1.289 . S
C305 O297 1.258 . S
C305 O298 1.266 . S
Co306 O309 1.970 . S
Co306 N323 1.989 . S
Co306 O331 1.967 1_565 S
Co306 O338 1.920 . S
Co307 O310 1.966 1_545 S
Co307 N316 2.022 . S
Co307 N324 1.993 . S
Co307 O332 1.941 . S
C308 O309 1.258 . S
C308 O310 1.263 . S
O309 Co306 1.970 . S
O309 C308 1.258 . S
O310 Co307 1.966 1_565 S
O310 C308 1.263 . S
C311 O312 1.235 . S
C311 O338 1.289 . S
O312 C311 1.235 . S
C313 C315 1.400 . S
C313 N316 1.351 . S
C313 C318 1.501 1_545 S
C314 C315 1.387 . S
C314 N317 1.341 . S
C315 C313 1.400 . S
C315 C314 1.387 . S
N316 Co307 2.022 . S
N316 C313 1.351 . S
N316 N317 1.365 . S
N317 C314 1.341 . S
N317 N316 1.365 . S
N317 H337 0.862 . S
C318 C313 1.501 1_565 S
C318 H319 0.961 . S
C318 H320 0.961 . S
C318 H321 0.960 . S
H319 C318 0.961 . S
H320 C318 0.961 . S
H321 C318 0.960 . S
C322 N323 1.342 . S
C322 C326 1.401 . S
C322 C327 1.499 . S
N323 Co306 1.989 . S
N323 C322 1.342 . S
N323 N324 1.388 1_565 S
N324 Co307 1.993 . S
N324 N323 1.388 1_545 S
N324 C325 1.345 1_545 S
C325 N324 1.345 1_565 S
C325 C326 1.400 . S
C325 C335 1.508 1_565 S
C326 C322 1.401 . S
C326 C325 1.400 . S
C327 C322 1.499 . S
C327 H328 0.959 . S
C327 H329 0.960 . S
C327 H330 0.961 . S
H328 C327 0.959 . S
H329 C327 0.960 . S
H330 C327 0.961 . S
O331 Co306 1.967 1_545 S
O331 C339 1.258 . S
O332 Co307 1.941 . S
O332 C339 1.266 . S
H333 C335 0.959 . S
H334 C335 0.961 1_565 S
C335 C325 1.508 1_545 S
C335 H333 0.959 . S
C335 H334 0.961 1_545 S
C335 H336 0.960 . S
H336 C335 0.960 . S
H337 N317 0.862 . S
O338 Co306 1.920 . S
O338 C311 1.289 . S
C339 O331 1.258 . S
C339 O332 1.266 . S
Co340 O343 1.970 . S
Co340 N357 1.989 . S
Co340 O365 1.967 . S
Co340 O372 1.920 . S
Co341 O344 1.966 . S
Co341 N350 2.022 . S
Co341 N358 1.993 . S
Co341 O366 1.941 . S
C342 O343 1.258 . S
C342 O344 1.263 . S
O343 Co340 1.970 . S
O343 C342 1.258 . S
O344 Co341 1.966 . S
O344 C342 1.263 . S
C345 O346 1.235 . S
C345 O372 1.289 . S
O346 C345 1.235 . S
C347 C349 1.400 . S
C347 N350 1.351 . S
C347 C352 1.501 . S
C348 C349 1.387 . S
C348 N351 1.341 . S
C349 C347 1.400 . S
C349 C348 1.387 . S
N350 Co341 2.022 . S
N350 C347 1.351 . S
N350 N351 1.365 . S
N351 C348 1.341 . S
N351 N350 1.365 . S
N351 H371 0.862 . S
C352 C347 1.501 . S
C352 H353 0.961 . S
C352 H354 0.961 . S
C352 H355 0.960 . S
H353 C352 0.961 . S
H354 C352 0.961 . S
H355 C352 0.960 . S
C356 N357 1.342 . S
C356 C360 1.401 . S
C356 C361 1.499 . S
N357 Co340 1.989 . S
N357 C356 1.342 . S
N357 N358 1.388 . S
N358 Co341 1.993 . S
N358 N357 1.388 . S
N358 C359 1.346 . S
C359 N358 1.346 . S
C359 C360 1.396 . S
C359 C369 1.510 . S
C360 C356 1.401 . S
C360 C359 1.396 . S
C361 C356 1.499 . S
C361 H362 0.959 . S
C361 H363 0.960 . S
C361 H364 0.961 . S
H362 C361 0.959 . S
H363 C361 0.960 . S
H364 C361 0.961 . S
O365 Co340 1.967 . S
O365 C373 1.258 . S
O366 Co341 1.941 . S
O366 C373 1.266 . S
H367 C369 0.959 . S
H368 C369 0.961 . S
C369 C359 1.510 . S
C369 H367 0.959 . S
C369 H368 0.961 . S
C369 H370 0.960 . S
H370 C369 0.960 . S
H371 N351 0.862 . S
O372 Co340 1.920 . S
O372 C345 1.289 . S
C373 O365 1.258 . S
C373 O366 1.266 . S
Co374 O377 1.970 . S
Co374 N391 1.989 . S
Co374 O399 1.967 1_455 S
Co374 O406 1.920 . S
Co375 O378 1.966 1_655 S
Co375 N384 2.022 . S
Co375 N392 1.993 . S
Co375 O400 1.941 . S
C376 O377 1.258 . S
C376 O378 1.263 . S
O377 Co374 1.970 . S
O377 C376 1.258 . S
O378 Co375 1.966 1_455 S
O378 C376 1.263 . S
C379 O380 1.235 . S
C379 O406 1.289 . S
O380 C379 1.235 . S
C381 C383 1.400 . S
C381 N384 1.351 . S
C381 C386 1.501 1_655 S
C382 C383 1.387 . S
C382 N385 1.341 . S
C383 C381 1.400 . S
C383 C382 1.387 . S
N384 Co375 2.022 . S
N384 C381 1.351 . S
N384 N385 1.365 . S
N385 C382 1.341 . S
N385 N384 1.365 . S
N385 H405 0.862 . S
C386 C381 1.501 1_455 S
C386 H387 0.961 . S
C386 H388 0.961 . S
C386 H389 0.960 . S
H387 C386 0.961 . S
H388 C386 0.961 . S
H389 C386 0.960 . S
C390 N391 1.342 . S
C390 C394 1.401 . S
C390 C395 1.499 . S
N391 Co374 1.989 . S
N391 C390 1.342 . S
N391 N392 1.388 1_455 S
N392 Co375 1.993 . S
N392 N391 1.388 1_655 S
N392 C393 1.347 1_655 S
C393 N392 1.347 1_455 S
C393 C394 1.392 . S
C393 C403 1.512 1_455 S
C394 C390 1.401 . S
C394 C393 1.392 . S
C395 C390 1.499 . S
C395 H396 0.959 . S
C395 H397 0.960 . S
C395 H398 0.961 . S
H396 C395 0.959 . S
H397 C395 0.960 . S
H398 C395 0.961 . S
O399 Co374 1.967 1_655 S
O399 C407 1.258 . S
O400 Co375 1.941 . S
O400 C407 1.266 . S
H401 C403 0.959 . S
H402 C403 0.961 1_455 S
C403 C393 1.512 1_655 S
C403 H401 0.959 . S
C403 H402 0.961 1_655 S
C403 H404 0.960 . S
H404 C403 0.960 . S
H405 N385 0.862 . S
O406 Co374 1.920 . S
O406 C379 1.289 . S
C407 O399 1.258 . S
C407 O400 1.266 . S
H408 C414 0.930 . S
H409 C418 0.930 . S
H410 C423 0.929 . S
H411 C421 0.929 . S
H412 C416 0.929 . S
H413 C422 0.929 . S
C414 H408 0.930 . S
C414 C415 1.367 . S
C414 C422 1.378 . S
C415 C414 1.367 . S
C415 C423 1.433 . S
C416 H412 0.929 . S
C416 C418 1.378 . S
C416 C420 1.350 . S
C417 C420 1.463 1_565 S
C417 C422 1.350 1_554 S
C417 N425 1.427 . S
C418 H409 0.930 . S
C418 C416 1.378 . S
C418 C419 1.367 . S
C419 C418 1.367 . S
C419 C421 1.433 . S
C420 C416 1.350 . S
C420 C417 1.463 1_545 S
C420 N424 1.427 . S
C421 H411 0.929 . S
C421 C419 1.433 . S
C421 N424 1.384 . S
C422 H413 0.929 . S
C422 C414 1.378 . S
C422 C417 1.350 1_556 S
C423 H410 0.929 . S
C423 C415 1.433 . S
C423 N425 1.384 1_556 S
N424 C420 1.427 . S
N424 C421 1.384 . S
N425 C417 1.427 . S
N425 C423 1.384 1_554 S
H426 C432 0.930 . S
H427 C436 0.930 . S
H428 C441 0.929 . S
H429 C439 0.929 . S
H430 C434 0.929 . S
H431 C440 0.929 . S
C432 H426 0.930 . S
C432 C433 1.367 . S
C432 C440 1.378 . S
C433 C432 1.367 . S
C433 C441 1.433 . S
C434 H430 0.929 . S
C434 C436 1.378 . S
C434 C438 1.350 . S
C435 C438 1.463 . S
C435 C440 1.350 . S
C435 N443 1.427 . S
C436 H427 0.930 . S
C436 C434 1.378 . S
C436 C437 1.367 . S
C437 C436 1.367 . S
C437 C439 1.433 . S
C438 C434 1.350 . S
C438 C435 1.463 . S
C438 N442 1.427 . S
C439 H429 0.929 . S
C439 C437 1.433 . S
C439 N442 1.384 . S
C440 H431 0.929 . S
C440 C432 1.378 . S
C440 C435 1.350 . S
C441 H428 0.929 . S
C441 C433 1.433 . S
C441 N443 1.384 . S
N442 C438 1.427 . S
N442 C439 1.384 . S
N443 C435 1.427 . S
N443 C441 1.384 . S
H444 C450 0.930 . S
H445 C454 0.930 . S
H446 C459 0.929 . S
H447 C457 0.929 . S
H448 C452 0.929 . S
H449 C458 0.929 . S
C450 H444 0.930 . S
C450 C451 1.367 . S
C450 C458 1.378 . S
C451 C450 1.367 . S
C451 C459 1.433 . S
C452 H448 0.929 . S
C452 C454 1.378 . S
C452 C456 1.350 . S
C453 C456 1.463 1_655 S
C453 C458 1.350 . S
C453 N461 1.427 . S
C454 H445 0.930 . S
C454 C452 1.378 . S
C454 C455 1.367 . S
C455 C454 1.367 . S
C455 C457 1.433 . S
C456 C452 1.350 . S
C456 C453 1.463 1_455 S
C456 N460 1.427 . S
C457 H447 0.929 . S
C457 C455 1.433 . S
C457 N460 1.384 . S
C458 H449 0.929 . S
C458 C450 1.378 . S
C458 C453 1.350 . S
C459 H446 0.929 . S
C459 C451 1.433 . S
C459 N461 1.384 . S
N460 C456 1.427 . S
N460 C457 1.384 . S
N461 C453 1.427 . S
N461 C459 1.384 . S
H462 C468 0.930 . S
H463 C472 0.930 . S
H464 C477 0.929 . S
H465 C475 0.929 . S
H466 C470 0.932 . S
H467 C476 0.929 1_565 S
C468 H462 0.930 . S
C468 C469 1.367 . S
C468 C476 1.378 . S
C469 C468 1.367 . S
C469 C477 1.433 . S
C470 H466 0.932 . S
C470 C472 1.378 . S
C470 C474 1.350 . S
C471 C474 1.463 1_545 S
C471 C476 1.350 . S
C471 N479 1.427 . S
C472 H463 0.930 . S
C472 C470 1.378 . S
C472 C473 1.367 . S
C473 C472 1.367 . S
C473 C475 1.433 . S
C474 C470 1.350 . S
C474 C471 1.463 1_565 S
C474 N478 1.427 . S
C475 H465 0.929 . S
C475 C473 1.433 . S
C475 N478 1.384 . S
C476 H467 0.929 1_545 S
C476 C468 1.378 . S
C476 C471 1.350 . S
C477 H464 0.929 . S
C477 C469 1.433 . S
C477 N479 1.384 . S
N478 C474 1.427 . S
N478 C475 1.384 . S
N479 C471 1.427 . S
N479 C477 1.384 . S
H480 C486 0.930 . S
H481 C490 0.930 . S
H482 C495 0.929 . S
H483 C493 0.929 . S
H484 C488 0.929 . S
H485 C494 0.929 . S
C486 H480 0.930 . S
C486 C487 1.367 . S
C486 C494 1.378 . S
C487 C486 1.367 . S
C487 C495 1.433 . S
C488 H484 0.929 . S
C488 C490 1.378 . S
C488 C492 1.350 . S
C489 C492 1.463 . S
C489 C494 1.350 . S
C489 N497 1.427 . S
C490 H481 0.930 . S
C490 C488 1.378 . S
C490 C491 1.367 . S
C491 C490 1.367 . S
C491 C493 1.433 . S
C492 C488 1.350 . S
C492 C489 1.463 . S
C492 N496 1.427 . S
C493 H483 0.929 . S
C493 C491 1.433 . S
C493 N496 1.384 . S
C494 H485 0.929 . S
C494 C486 1.378 . S
C494 C489 1.350 . S
C495 H482 0.929 . S
C495 C487 1.433 . S
C495 N497 1.384 . S
N496 C492 1.427 . S
N496 C493 1.384 . S
N497 C489 1.427 . S
N497 C495 1.384 . S
H498 C504 0.930 . S
H499 C508 0.930 . S
H500 C513 0.929 . S
H501 C511 0.929 . S
H502 C506 0.929 1_655 S
H503 C512 0.929 . S
C504 H498 0.930 . S
C504 C505 1.367 . S
C504 C512 1.378 . S
C505 C504 1.367 . S
C505 C513 1.433 . S
C506 H502 0.929 1_455 S
C506 C508 1.378 . S
C506 C510 1.350 . S
C507 C510 1.463 1_655 S
C507 C512 1.350 . S
C507 N515 1.427 . S
C508 H499 0.930 . S
C508 C506 1.378 . S
C508 C509 1.367 . S
C509 C508 1.367 . S
C509 C511 1.433 . S
C510 C506 1.350 . S
C510 C507 1.463 1_455 S
C510 N514 1.427 . S
C511 H501 0.929 . S
C511 C509 1.433 . S
C511 N514 1.384 . S
C512 H503 0.929 . S
C512 C504 1.378 . S
C512 C507 1.350 . S
C513 H500 0.929 . S
C513 C505 1.433 . S
C513 N515 1.384 . S
N514 C510 1.427 . S
N514 C511 1.384 . S
N515 C507 1.427 . S
N515 C513 1.384 . S
H516 C522 0.930 . S
H517 C526 0.930 . S
H518 C531 0.929 . S
H519 C529 0.929 . S
H520 C524 0.929 . S
H521 C530 0.929 . S
C522 H516 0.930 . S
C522 C523 1.367 . S
C522 C530 1.378 . S
C523 C522 1.367 . S
C523 C531 1.433 . S
C524 H520 0.929 . S
C524 C526 1.378 . S
C524 C528 1.350 . S
C525 C528 1.463 1_545 S
C525 C530 1.350 . S
C525 N533 1.427 . S
C526 H517 0.930 . S
C526 C524 1.378 . S
C526 C527 1.367 . S
C527 C526 1.367 . S
C527 C529 1.433 . S
C528 C524 1.350 . S
C528 C525 1.463 1_565 S
C528 N532 1.427 1_565 S
C529 H519 0.929 . S
C529 C527 1.433 . S
C529 N532 1.384 1_565 S
C530 H521 0.929 . S
C530 C522 1.378 . S
C530 C525 1.350 . S
C531 H518 0.929 . S
C531 C523 1.433 . S
C531 N533 1.384 . S
N532 C528 1.427 1_545 S
N532 C529 1.384 1_545 S
N533 C525 1.427 . S
N533 C531 1.384 . S
H534 C540 0.930 . S
H535 C544 0.930 . S
H536 C549 0.929 . S
H537 C547 0.929 . S
H538 C542 0.929 1_655 S
H539 C548 0.929 . S
C540 H534 0.930 . S
C540 C541 1.367 . S
C540 C548 1.378 1_655 S
C541 C540 1.367 . S
C541 C549 1.433 . S
C542 H538 0.929 1_455 S
C542 C544 1.378 . S
C542 C546 1.350 . S
C543 C546 1.463 1_655 S
C543 C548 1.350 1_655 S
C543 N551 1.427 . S
C544 H535 0.930 . S
C544 C542 1.378 . S
C544 C545 1.367 . S
C545 C544 1.367 . S
C545 C547 1.433 . S
C546 C542 1.350 . S
C546 C543 1.463 1_455 S
C546 N550 1.427 . S
C547 H537 0.929 . S
C547 C545 1.433 . S
C547 N550 1.384 . S
C548 H539 0.929 . S
C548 C540 1.378 1_455 S
C548 C543 1.350 1_455 S
C549 H536 0.929 . S
C549 C541 1.433 . S
C549 N551 1.384 . S
N550 C546 1.427 . S
N550 C547 1.384 . S
N551 C543 1.427 . S
N551 C549 1.384 . S
H552 C558 0.930 . S
H553 C562 0.930 . S
H554 C567 0.929 . S
H555 C565 0.929 . S
H556 C560 0.929 1_445 S
H557 C566 0.929 . S
C558 H552 0.930 . S
C558 C559 1.367 . S
C558 C566 1.378 1_455 S
C559 C558 1.367 . S
C559 C567 1.433 . S
C560 H556 0.929 1_665 S
C560 C562 1.378 . S
C560 C564 1.350 . S
C561 C564 1.463 1_445 S
C561 C566 1.350 1_455 S
C561 N569 1.427 . S
C562 H553 0.930 . S
C562 C560 1.378 . S
C562 C563 1.367 . S
C563 C562 1.367 . S
C563 C565 1.433 . S
C564 C560 1.350 . S
C564 C561 1.463 1_665 S
C564 N568 1.427 . S
C565 H555 0.929 . S
C565 C563 1.433 . S
C565 N568 1.384 . S
C566 H557 0.929 . S
C566 C558 1.378 1_655 S
C566 C561 1.350 1_655 S
C567 H554 0.929 . S
C567 C559 1.433 . S
C567 N569 1.384 . S
N568 C564 1.427 . S
N568 C565 1.384 . S
N569 C561 1.427 . S
N569 C567 1.384 . S
H570 C576 0.930 1_455 S
H571 C580 0.930 . S
H572 C585 0.930 . S
H573 C583 0.929 1_455 S
H574 C578 0.929 . S
H575 C584 0.929 1_455 S
C576 H570 0.930 1_655 S
C576 C577 1.367 . S
C576 C584 1.378 . S
C577 C576 1.367 . S
C577 C585 1.433 . S
C578 H574 0.929 . S
C578 C580 1.378 . S
C578 C582 1.350 . S
C579 C582 1.463 1_545 S
C579 C584 1.350 . S
C579 N587 1.427 1_545 S
C580 H571 0.930 . S
C580 C578 1.378 . S
C580 C581 1.367 . S
C581 C580 1.367 . S
C581 C583 1.433 . S
C582 C578 1.350 . S
C582 C579 1.463 1_565 S
C582 N586 1.427 . S
C583 H573 0.929 1_655 S
C583 C581 1.433 . S
C583 N586 1.384 . S
C584 H575 0.929 1_655 S
C584 C576 1.378 . S
C584 C579 1.350 . S
C585 H572 0.930 . S
C585 C577 1.433 . S
C585 N587 1.384 1_545 S
N586 C582 1.427 . S
N586 C583 1.384 . S
N587 C579 1.427 1_565 S
N587 C585 1.384 1_565 S
H588 C594 0.930 . S
H589 C598 0.930 . S
H590 C603 0.929 . S
H591 C601 0.929 . S
H592 C596 0.929 1_455 S
H593 C602 0.929 . S
C594 H588 0.930 . S
C594 C595 1.367 . S
C594 C602 1.378 1_455 S
C595 C594 1.367 . S
C595 C603 1.433 . S
C596 H592 0.929 1_655 S
C596 C598 1.378 . S
C596 C600 1.350 . S
C597 C600 1.463 1_455 S
C597 C602 1.350 1_455 S
C597 N605 1.427 . S
C598 H589 0.930 . S
C598 C596 1.378 . S
C598 C599 1.367 . S
C599 C598 1.367 . S
C599 C601 1.433 . S
C600 C596 1.350 . S
C600 C597 1.463 1_655 S
C600 N604 1.427 . S
C601 H591 0.929 . S
C601 C599 1.433 . S
C601 N604 1.384 . S
C602 H593 0.929 . S
C602 C594 1.378 1_655 S
C602 C597 1.350 1_655 S
C603 H590 0.929 . S
C603 C595 1.433 . S
C603 N605 1.384 . S
N604 C600 1.427 . S
N604 C601 1.384 . S
N605 C597 1.427 . S
N605 C603 1.384 . S
H606 C612 0.930 . S
H607 C616 0.930 . S
H608 C621 0.929 . S
H609 C619 0.929 . S
H610 C614 0.929 . S
H611 C620 0.929 . S
C612 H606 0.930 . S
C612 C613 1.367 . S
C612 C620 1.378 . S
C613 C612 1.367 . S
C613 C621 1.433 . S
C614 H610 0.929 . S
C614 C616 1.378 . S
C614 C618 1.350 . S
C615 C618 1.463 1_665 S
C615 C620 1.350 . S
C615 N623 1.427 1_655 S
C616 H607 0.930 . S
C616 C614 1.378 . S
C616 C617 1.367 . S
C617 C616 1.367 . S
C617 C619 1.433 . S
C618 C614 1.350 . S
C618 C615 1.463 1_445 S
C618 N622 1.427 1_545 S
C619 H609 0.929 . S
C619 C617 1.433 . S
C619 N622 1.384 1_545 S
C620 H611 0.929 . S
C620 C612 1.378 . S
C620 C615 1.350 . S
C621 H608 0.929 . S
C621 C613 1.433 . S
C621 N623 1.384 1_655 S
N622 C618 1.427 1_565 S
N622 C619 1.384 1_565 S
N623 C615 1.427 1_455 S
N623 C621 1.384 1_455 S
H624 C630 0.930 . S
H625 C634 0.930 . S
H626 C639 0.929 . S
H627 C637 0.929 . S
H628 C632 0.929 . S
H629 C638 0.929 . S
C630 H624 0.930 . S
C630 C631 1.367 1_554 S
C630 C638 1.378 . S
C631 C630 1.367 1_556 S
C631 C639 1.433 . S
C632 H628 0.929 . S
C632 C634 1.378 . S
C632 C636 1.350 . S
C633 C636 1.463 . S
C633 C638 1.350 . S
C633 N641 1.427 1_554 S
C634 H625 0.930 . S
C634 C632 1.378 . S
C634 C635 1.367 . S
C635 C634 1.367 . S
C635 C637 1.433 . S
C636 C632 1.350 . S
C636 C633 1.463 . S
C636 N640 1.427 . S
C637 H627 0.929 . S
C637 C635 1.433 . S
C637 N640 1.384 . S
C638 H629 0.929 . S
C638 C630 1.378 . S
C638 C633 1.350 . S
C639 H626 0.929 . S
C639 C631 1.433 . S
C639 N641 1.384 . S
N640 C636 1.427 . S
N640 C637 1.384 . S
N641 C633 1.427 1_556 S
N641 C639 1.384 . S
H642 C648 0.930 . S
H643 C652 0.930 . S
H644 C657 0.929 . S
H645 C655 0.929 . S
H646 C650 0.929 . S
H647 C656 0.929 . S
C648 H642 0.930 . S
C648 C649 1.367 . S
C648 C656 1.378 . S
C649 C648 1.367 . S
C649 C657 1.433 . S
C650 H646 0.929 . S
C650 C652 1.378 . S
C650 C654 1.350 . S
C651 C654 1.463 . S
C651 C656 1.350 . S
C651 N659 1.427 . S
C652 H643 0.930 . S
C652 C650 1.378 . S
C652 C653 1.367 . S
C653 C652 1.367 . S
C653 C655 1.433 . S
C654 C650 1.350 . S
C654 C651 1.463 . S
C654 N658 1.427 . S
C655 H645 0.929 . S
C655 C653 1.433 . S
C655 N658 1.384 . S
C656 H647 0.929 . S
C656 C648 1.378 . S
C656 C651 1.350 . S
C657 H644 0.929 . S
C657 C649 1.433 . S
C657 N659 1.384 . S
N658 C654 1.427 . S
N658 C655 1.384 . S
N659 C651 1.427 . S
N659 C657 1.384 . S
H660 C666 0.930 . S
H661 C670 0.930 . S
H662 C675 0.929 . S
H663 C673 0.929 . S
H664 C668 0.929 . S
H665 C674 0.929 . S
C666 H660 0.930 . S
C666 C667 1.367 . S
C666 C674 1.378 . S
C667 C666 1.367 . S
C667 C675 1.433 . S
C668 H664 0.929 . S
C668 C670 1.378 . S
C668 C672 1.350 . S
C669 C672 1.463 . S
C669 C674 1.350 . S
C669 N677 1.427 . S
C670 H661 0.930 . S
C670 C668 1.378 . S
C670 C671 1.367 . S
C671 C670 1.367 . S
C671 C673 1.433 . S
C672 C668 1.350 . S
C672 C669 1.463 . S
C672 N676 1.427 . S
C673 H663 0.929 . S
C673 C671 1.433 . S
C673 N676 1.384 . S
C674 H665 0.929 . S
C674 C666 1.378 . S
C674 C669 1.350 . S
C675 H662 0.929 . S
C675 C667 1.433 . S
C675 N677 1.384 . S
N676 C672 1.427 . S
N676 C673 1.384 . S
N677 C669 1.427 . S
N677 C675 1.384 . S
H678 C684 0.930 . S
H679 C688 0.930 . S
H680 C693 0.929 . S
H681 C691 0.929 . S
H682 C686 0.929 . S
H683 C692 0.929 . S
C684 H678 0.930 . S
C684 C685 1.367 . S
C684 C692 1.378 . S
C685 C684 1.367 . S
C685 C693 1.433 . S
C686 H682 0.929 . S
C686 C688 1.378 . S
C686 C690 1.350 . S
C687 C690 1.463 . S
C687 C692 1.350 . S
C687 N695 1.427 . S
C688 H679 0.930 . S
C688 C686 1.378 . S
C688 C689 1.367 . S
C689 C688 1.367 . S
C689 C691 1.433 . S
C690 C686 1.350 . S
C690 C687 1.463 . S
C690 N694 1.427 . S
C691 H681 0.929 . S
C691 C689 1.433 . S
C691 N694 1.384 . S
C692 H683 0.929 . S
C692 C684 1.378 . S
C692 C687 1.350 . S
C693 H680 0.929 . S
C693 C685 1.433 . S
C693 N695 1.384 . S
N694 C690 1.427 . S
N694 C691 1.384 . S
N695 C687 1.427 . S
N695 C693 1.384 . S
H696 C702 0.930 . S
H697 C706 0.930 . S
H698 C711 0.929 . S
H699 C709 0.929 . S
H700 C704 0.929 . S
H701 C710 0.929 . S
C702 H696 0.930 . S
C702 C703 1.367 . S
C702 C710 1.378 . S
C703 C702 1.367 . S
C703 C711 1.433 . S
C704 H700 0.929 . S
C704 C706 1.378 . S
C704 C708 1.350 . S
C705 C708 1.463 . S
C705 C710 1.350 . S
C705 N713 1.427 . S
C706 H697 0.930 . S
C706 C704 1.378 . S
C706 C707 1.367 . S
C707 C706 1.367 . S
C707 C709 1.433 . S
C708 C704 1.350 . S
C708 C705 1.463 . S
C708 N712 1.427 . S
C709 H699 0.929 . S
C709 C707 1.433 . S
C709 N712 1.384 . S
C710 H701 0.929 . S
C710 C702 1.378 . S
C710 C705 1.350 . S
C711 H698 0.929 . S
C711 C703 1.433 . S
C711 N713 1.384 . S
N712 C708 1.427 . S
N712 C709 1.384 . S
N713 C705 1.427 . S
N713 C711 1.384 . S
H714 C720 0.930 . S
H715 C724 0.930 . S
H716 C729 0.929 . S
H717 C727 0.929 . S
H718 C722 0.929 . S
H719 C728 0.929 . S
C720 H714 0.930 . S
C720 C721 1.367 . S
C720 C728 1.378 . S
C721 C720 1.367 . S
C721 C729 1.433 . S
C722 H718 0.929 . S
C722 C724 1.378 . S
C722 C726 1.350 . S
C723 C726 1.463 . S
C723 C728 1.350 . S
C723 N731 1.427 . S
C724 H715 0.930 . S
C724 C722 1.378 . S
C724 C725 1.367 . S
C725 C724 1.367 . S
C725 C727 1.433 . S
C726 C722 1.350 . S
C726 C723 1.463 . S
C726 N730 1.427 . S
C727 H717 0.929 . S
C727 C725 1.433 . S
C727 N730 1.384 . S
C728 H719 0.929 . S
C728 C720 1.378 . S
C728 C723 1.350 . S
C729 H716 0.929 . S
C729 C721 1.433 . S
C729 N731 1.384 . S
N730 C726 1.427 . S
N730 C727 1.384 . S
N731 C723 1.427 . S
N731 C729 1.384 . S
H732 C738 0.930 . S
H733 C742 0.930 . S
H734 C747 0.929 . S
H735 C745 0.929 . S
H736 C740 0.929 . S
H737 C746 0.929 . S
C738 H732 0.930 . S
C738 C739 1.367 . S
C738 C746 1.378 . S
C739 C738 1.367 . S
C739 C747 1.433 . S
C740 H736 0.929 . S
C740 C742 1.378 . S
C740 C744 1.350 . S
C741 C744 1.463 . S
C741 C746 1.350 . S
C741 N749 1.427 . S
C742 H733 0.930 . S
C742 C740 1.378 . S
C742 C743 1.367 . S
C743 C742 1.367 . S
C743 C745 1.433 . S
C744 C740 1.350 . S
C744 C741 1.463 . S
C744 N748 1.427 . S
C745 H735 0.929 . S
C745 C743 1.433 . S
C745 N748 1.384 . S
C746 H737 0.929 . S
C746 C738 1.378 . S
C746 C741 1.350 . S
C747 H734 0.929 . S
C747 C739 1.433 . S
C747 N749 1.384 . S
N748 C744 1.427 . S
N748 C745 1.384 . S
N749 C741 1.427 . S
N749 C747 1.384 . S
H750 C756 0.930 . S
H751 C760 0.930 . S
H752 C765 0.929 . S
H753 C763 0.929 . S
H754 C758 0.929 . S
H755 C764 0.929 . S
C756 H750 0.930 . S
C756 C757 1.367 . S
C756 C764 1.378 . S
C757 C756 1.367 . S
C757 C765 1.433 . S
C758 H754 0.929 . S
C758 C760 1.378 . S
C758 C762 1.350 . S
C759 C762 1.463 1_554 S
C759 C764 1.350 . S
C759 N767 1.427 . S
C760 H751 0.930 . S
C760 C758 1.378 . S
C760 C761 1.367 . S
C761 C760 1.367 . S
C761 C763 1.433 . S
C762 C758 1.350 . S
C762 C759 1.463 1_556 S
C762 N766 1.427 . S
C763 H753 0.929 . S
C763 C761 1.433 . S
C763 N766 1.384 . S
C764 H755 0.929 . S
C764 C756 1.378 . S
C764 C759 1.350 . S
C765 H752 0.929 . S
C765 C757 1.433 . S
C765 N767 1.384 . S
N766 C762 1.427 . S
N766 C763 1.384 . S
N767 C759 1.427 . S
N767 C765 1.384 . S
H768 C774 0.930 . S
H769 C778 0.930 . S
H770 C783 0.929 . S
H771 C781 0.929 . S
H772 C776 0.929 . S
H773 C782 0.929 . S
C774 H768 0.930 . S
C774 C775 1.367 . S
C774 C782 1.378 . S
C775 C774 1.367 . S
C775 C783 1.433 . S
C776 H772 0.929 . S
C776 C778 1.378 . S
C776 C780 1.350 . S
C777 C780 1.463 . S
C777 C782 1.350 . S
C777 N785 1.427 . S
C778 H769 0.930 . S
C778 C776 1.378 . S
C778 C779 1.367 . S
C779 C778 1.367 . S
C779 C781 1.433 . S
C780 C776 1.350 . S
C780 C777 1.463 . S
C780 N784 1.427 . S
C781 H771 0.929 . S
C781 C779 1.433 . S
C781 N784 1.384 . S
C782 H773 0.929 . S
C782 C774 1.378 . S
C782 C777 1.350 . S
C783 H770 0.929 . S
C783 C775 1.433 . S
C783 N785 1.384 . S
N784 C780 1.427 . S
N784 C781 1.384 . S
N785 C777 1.427 . S
N785 C783 1.384 . S
H786 C792 0.930 . S
H787 C796 0.930 . S
H788 C801 0.929 . S
H789 C799 0.929 . S
H790 C794 0.929 . S
H791 C800 0.929 . S
C792 H786 0.930 . S
C792 C793 1.367 . S
C792 C800 1.378 . S
C793 C792 1.367 . S
C793 C801 1.433 . S
C794 H790 0.929 . S
C794 C796 1.378 . S
C794 C798 1.350 . S
C795 C798 1.463 . S
C795 C800 1.350 . S
C795 N803 1.427 . S
C796 H787 0.930 . S
C796 C794 1.378 . S
C796 C797 1.367 . S
C797 C796 1.367 . S
C797 C799 1.433 . S
C798 C794 1.350 . S
C798 C795 1.463 . S
C798 N802 1.427 . S
C799 H789 0.929 . S
C799 C797 1.433 . S
C799 N802 1.384 . S
C800 H791 0.929 . S
C800 C792 1.378 . S
C800 C795 1.350 . S
C801 H788 0.929 . S
C801 C793 1.433 . S
C801 N803 1.384 . S
N802 C798 1.427 . S
N802 C799 1.384 . S
N803 C795 1.427 . S
N803 C801 1.384 . S
H804 C810 0.930 . S
H805 C814 0.930 . S
H806 C819 0.929 . S
H807 C817 0.929 . S
H808 C812 0.929 . S
H809 C818 0.929 . S
C810 H804 0.930 . S
C810 C811 1.367 . S
C810 C818 1.378 . S
C811 C810 1.367 . S
C811 C819 1.433 . S
C812 H808 0.929 . S
C812 C814 1.378 . S
C812 C816 1.350 . S
C813 C816 1.463 . S
C813 C818 1.350 . S
C813 N821 1.427 . S
C814 H805 0.930 . S
C814 C812 1.378 . S
C814 C815 1.367 . S
C815 C814 1.367 . S
C815 C817 1.433 . S
C816 C812 1.350 . S
C816 C813 1.463 . S
C816 N820 1.427 . S
C817 H807 0.929 . S
C817 C815 1.433 . S
C817 N820 1.384 . S
C818 H809 0.929 . S
C818 C810 1.378 . S
C818 C813 1.350 . S
C819 H806 0.929 . S
C819 C811 1.433 . S
C819 N821 1.384 . S
N820 C816 1.427 . S
N820 C817 1.384 . S
N821 C813 1.427 . S
N821 C819 1.384 . S
H822 C828 0.930 . S
H823 C832 0.930 . S
H824 C837 0.929 . S
H825 C835 0.929 . S
H826 C830 0.929 . S
H827 C836 0.929 . S
C828 H822 0.930 . S
C828 C829 1.367 . S
C828 C836 1.378 . S
C829 C828 1.367 . S
C829 C837 1.433 . S
C830 H826 0.929 . S
C830 C832 1.378 . S
C830 C834 1.350 . S
C831 C834 1.463 . S
C831 C836 1.350 . S
C831 N839 1.427 . S
C832 H823 0.930 . S
C832 C830 1.378 . S
C832 C833 1.367 . S
C833 C832 1.367 . S
C833 C835 1.433 . S
C834 C830 1.350 . S
C834 C831 1.463 . S
C834 N838 1.427 . S
C835 H825 0.929 . S
C835 C833 1.433 . S
C835 N838 1.384 . S
C836 H827 0.929 . S
C836 C828 1.378 . S
C836 C831 1.350 . S
C837 H824 0.929 . S
C837 C829 1.433 . S
C837 N839 1.384 . S
N838 C834 1.427 . S
N838 C835 1.384 . S
N839 C831 1.427 . S
N839 C837 1.384 . S
H840 C846 0.930 . S
H841 C850 0.930 . S
H842 C855 0.929 . S
H843 C853 0.929 . S
H844 C848 0.929 . S
H845 C854 0.929 . S
C846 H840 0.930 . S
C846 C847 1.367 . S
C846 C854 1.378 . S
C847 C846 1.367 . S
C847 C855 1.433 1_655 S
C848 H844 0.929 . S
C848 C850 1.378 . S
C848 C852 1.350 1_455 S
C849 C852 1.463 . S
C849 C854 1.350 . S
C849 N857 1.427 1_655 S
C850 H841 0.930 . S
C850 C848 1.378 . S
C850 C851 1.367 1_455 S
C851 C850 1.367 1_655 S
C851 C853 1.433 . S
C852 C848 1.350 1_655 S
C852 C849 1.463 . S
C852 N856 1.427 . S
C853 H843 0.929 . S
C853 C851 1.433 . S
C853 N856 1.384 . S
C854 H845 0.929 . S
C854 C846 1.378 . S
C854 C849 1.350 . S
C855 H842 0.929 . S
C855 C847 1.433 1_455 S
C855 N857 1.384 . S
N856 C852 1.427 . S
N856 C853 1.384 . S
N857 C849 1.427 1_455 S
N857 C855 1.384 . S
H858 C864 0.930 . S
H859 C868 0.930 . S
H860 C873 0.929 . S
H861 C871 0.929 . S
H862 C866 0.929 . S
H863 C872 0.929 . S
C864 H858 0.930 . S
C864 C865 1.367 . S
C864 C872 1.378 . S
C865 C864 1.367 . S
C865 C873 1.433 1_565 S
C866 H862 0.929 . S
C866 C868 1.378 . S
C866 C870 1.350 1_545 S
C867 C870 1.463 . S
C867 C872 1.350 . S
C867 N875 1.427 1_565 S
C868 H859 0.930 . S
C868 C866 1.378 . S
C868 C869 1.367 1_545 S
C869 C868 1.367 1_565 S
C869 C871 1.433 . S
C870 C866 1.350 1_565 S
C870 C867 1.463 . S
C870 N874 1.427 . S
C871 H861 0.929 . S
C871 C869 1.433 . S
C871 N874 1.384 . S
C872 H863 0.929 . S
C872 C864 1.378 . S
C872 C867 1.350 . S
C873 H860 0.929 . S
C873 C865 1.433 1_545 S
C873 N875 1.384 . S
N874 C870 1.427 . S
N874 C871 1.384 . S
N875 C867 1.427 1_545 S
N875 C873 1.384 . S
H876 C882 0.930 . S
H877 C886 0.930 . S
H878 C891 0.929 . S
H879 C889 0.929 . S
H880 C884 0.929 . S
H881 C890 0.929 . S
C882 H876 0.930 . S
C882 C883 1.367 . S
C882 C890 1.378 . S
C883 C882 1.367 . S
C883 C891 1.433 . S
C884 H880 0.929 . S
C884 C886 1.378 . S
C884 C888 1.350 . S
C885 C888 1.463 . S
C885 C890 1.350 . S
C885 N893 1.427 . S
C886 H877 0.930 . S
C886 C884 1.378 . S
C886 C887 1.367 . S
C887 C886 1.367 . S
C887 C889 1.433 . S
C888 C884 1.350 . S
C888 C885 1.463 . S
C888 N892 1.427 . S
C889 H879 0.929 . S
C889 C887 1.433 . S
C889 N892 1.384 . S
C890 H881 0.929 . S
C890 C882 1.378 . S
C890 C885 1.350 . S
C891 H878 0.929 . S
C891 C883 1.433 . S
C891 N893 1.384 . S
N892 C888 1.427 . S
N892 C889 1.384 . S
N893 C885 1.427 . S
N893 C891 1.384 . S
H894 C900 0.930 . S
H895 C904 0.930 . S
H896 C909 0.929 . S
H897 C907 0.929 . S
H898 C902 0.929 . S
H899 C908 0.929 . S
C900 H894 0.930 . S
C900 C901 1.367 . S
C900 C908 1.378 . S
C901 C900 1.367 . S
C901 C909 1.433 1_455 S
C902 H898 0.929 . S
C902 C904 1.378 . S
C902 C906 1.350 1_655 S
C903 C906 1.463 . S
C903 C908 1.350 . S
C903 N911 1.427 1_455 S
C904 H895 0.930 . S
C904 C902 1.378 . S
C904 C905 1.367 1_655 S
C905 C904 1.367 1_455 S
C905 C907 1.433 . S
C906 C902 1.350 1_455 S
C906 C903 1.463 . S
C906 N910 1.427 . S
C907 H897 0.929 . S
C907 C905 1.433 . S
C907 N910 1.384 . S
C908 H899 0.929 . S
C908 C900 1.378 . S
C908 C903 1.350 . S
C909 H896 0.929 . S
C909 C901 1.433 1_655 S
C909 N911 1.384 . S
N910 C906 1.427 . S
N910 C907 1.384 . S
N911 C903 1.427 1_655 S
N911 C909 1.384 . S
H912 C918 0.930 . S
H913 C922 0.930 . S
H914 C927 0.929 . S
H915 C925 0.929 . S
H916 C920 0.929 . S
H917 C926 0.929 . S
C918 H912 0.930 . S
C918 C919 1.367 . S
C918 C926 1.378 . S
C919 C918 1.367 . S
C919 C927 1.433 . S
C920 H916 0.929 . S
C920 C922 1.378 . S
C920 C924 1.350 . S
C921 C924 1.463 . S
C921 C926 1.350 . S
C921 N929 1.427 . S
C922 H913 0.930 . S
C922 C920 1.378 . S
C922 C923 1.367 . S
C923 C922 1.367 . S
C923 C925 1.433 . S
C924 C920 1.350 . S
C924 C921 1.463 . S
C924 N928 1.427 . S
C925 H915 0.929 . S
C925 C923 1.433 . S
C925 N928 1.384 . S
C926 H917 0.929 . S
C926 C918 1.378 . S
C926 C921 1.350 . S
C927 H914 0.929 . S
C927 C919 1.433 . S
C927 N929 1.384 . S
N928 C924 1.427 . S
N928 C925 1.384 . S
N929 C921 1.427 . S
N929 C927 1.384 . S
H930 C936 0.930 . S
H931 C940 0.930 . S
H932 C945 0.929 . S
H933 C943 0.929 . S
H934 C938 0.929 . S
H935 C944 0.929 . S
C936 H930 0.930 . S
C936 C937 1.367 . S
C936 C944 1.378 . S
C937 C936 1.367 . S
C937 C945 1.433 . S
C938 H934 0.929 . S
C938 C940 1.378 . S
C938 C942 1.350 . S
C939 C942 1.463 . S
C939 C944 1.350 . S
C939 N947 1.427 . S
C940 H931 0.930 . S
C940 C938 1.378 . S
C940 C941 1.367 . S
C941 C940 1.367 . S
C941 C943 1.433 . S
C942 C938 1.350 . S
C942 C939 1.463 . S
C942 N946 1.427 . S
C943 H933 0.929 . S
C943 C941 1.433 . S
C943 N946 1.384 . S
C944 H935 0.929 . S
C944 C936 1.378 . S
C944 C939 1.350 . S
C945 H932 0.929 . S
C945 C937 1.433 . S
C945 N947 1.384 . S
N946 C942 1.427 . S
N946 C943 1.384 . S
N947 C939 1.427 . S
N947 C945 1.384 . S
C415 C240 1.883 . S
C419 C2 1.882 . S
C433 C274 1.859 . S
C437 C36 1.862 . S
C451 C70 1.882 . S
C455 C308 1.881 . S
C469 C342 1.883 . S
C473 C104 1.882 . S
C487 C138 1.860 . S
C491 C376 1.862 . S
C505 C206 1.882 . S
C509 C172 1.883 . S
C523 C9 1.216 . S
C527 C281 1.212 . S
C541 C43 1.221 . S
C545 C315 1.218 . S
C559 C349 1.193 . S
C563 C77 1.201 . S
C577 C383 1.217 . S
C581 C111 1.213 . S
C595 C145 1.218 . S
C599 C213 1.221 . S
C613 C247 1.192 . S
C617 C179 1.193 . S
C631 C243 1.523 . S
C635 C33 1.535 . S
C649 C277 1.560 . S
C653 C67 1.571 . S
C667 C311 1.579 . S
C671 C101 1.591 . S
C685 C135 1.537 . S
C689 C345 1.521 . S
C703 C379 1.558 . S
C707 C169 1.572 . S
C721 C203 1.588 . S
C725 C209 1.574 . S
C739 C237 1.537 . S
C743 C175 1.527 . S
C757 C5 1.579 . S
C761 C271 1.591 . S
C775 C39 1.564 . S
C779 C305 1.571 . S
C793 C73 1.524 . S
C797 C339 1.535 . S
C811 C107 1.573 . S
C815 C373 1.590 . S
C829 C141 1.557 . S
C833 C407 1.571 . S
C847 C292 1.342 . S
C851 C20 1.342 . S
C865 C54 1.342 . S
C869 C326 1.342 . S
C883 C360 1.378 . S
C887 C88 1.379 . S
C901 C122 1.342 . S
C905 C394 1.342 . S
C919 C156 1.343 . S
C923 C224 1.343 . S
C937 C258 1.378 . S
C941 C190 1.378 . S
