# Generated by pormake.
# Topology rob, (6)-cn, num edge types: 1
# Building blocks:
#     Node 0, Type 0, BuildingBlock: KUMBUR_clean_sbu_1, # of connection points: 6
#     Node 1, Type 0, BuildingBlock: KUMBUR_clean_sbu_1, # of connection points: 6
#     Node 2, Type 0, BuildingBlock: KUMBUR_clean_sbu_1, # of connection points: 6
#     Node 3, Type 0, BuildingBlock: KUMBUR_clean_sbu_1, # of connection points: 6
#     Edge 4, Type (0, 0), BuildingBlock: AJUNOK_clean_linker_0, # of connection points: 2
#     Edge 5, Type (0, 0), BuildingBlock: AJUNOK_clean_linker_0, # of connection points: 2
#     Edge 6, Type (0, 0), BuildingBlock: AJUNOK_clean_linker_0, # of connection points: 2
#     Edge 7, Type (0, 0), BuildingBlock: AJUNOK_clean_linker_0, # of connection points: 2
#     Edge 8, Type (0, 0), BuildingBlock: AJUNOK_clean_linker_0, # of connection points: 2
#     Edge 9, Type (0, 0), BuildingBlock: AJUNOK_clean_linker_0, # of connection points: 2
#     Edge 10, Type (0, 0), BuildingBlock: AJUNOK_clean_linker_0, # of connection points: 2
#     Edge 11, Type (0, 0), BuildingBlock: AJUNOK_clean_linker_0, # of connection points: 2
#     Edge 12, Type (0, 0), BuildingBlock: AJUNOK_clean_linker_0, # of connection points: 2
#     Edge 13, Type (0, 0), BuildingBlock: AJUNOK_clean_linker_0, # of connection points: 2
#     Edge 14, Type (0, 0), BuildingBlock: AJUNOK_clean_linker_0, # of connection points: 2
#     Edge 15, Type (0, 0), BuildingBlock: AJUNOK_clean_linker_0, # of connection points: 2
# Relax obj value: 0.026
# Max RMSD: 0.135
# Mean RMSD: 0.135
data_MOF--net-rob--node1-KUMBUR_clean_sbu_1--edge1-AJUNOK_clean_linker_0
_symmetry_space_group_name_H-M    P1
_symmetry_Int_Tables_number       1
_symmetry_cell_setting            triclinic
loop_
_symmetry_equiv_pos_as_xyz
'x, y, z'
_cell_length_a     15.020867
_cell_length_b     17.571451
_cell_length_c     26.620457
_cell_angle_alpha  106.65027
_cell_angle_beta   90.770045
_cell_angle_gamma 89.818719
loop_
_atom_site_label
_atom_site_type_symbol
_atom_site_fract_x
_atom_site_fract_y
_atom_site_fract_z
_atom_type_partial_charge
Tb0 Tb 0.32757 0.14579 0.97234 0.0
C1 C 0.09677 0.46161 0.10642 0.0
N2 N 0.17923 0.43297 0.11004 0.0
C3 C 0.23255 0.56483 0.15294 0.0
C4 C 0.07883 0.54308 0.12559 0.0
C5 C 0.24675 0.483 0.13423 0.0
C6 C 0.14799 0.59518 0.14844 0.0
C7 C 0.9413 0.43454 0.08389 0.0
C8 C 0.02948 0.40842 0.08531 0.0
C9 C 0.92318 0.51557 0.10204 0.0
C10 C 0.9923 0.56978 0.12201 0.0
Tb11 Tb 0.1927 0.29824 0.08221 0.0
N12 N 0.05006 0.33062 0.06792 0.0
C13 C 0.87412 0.3785 0.06425 0.0
C14 C 0.9845 0.27504 0.05085 0.0
C15 C 0.89593 0.2981 0.04776 0.0
H16 H 0.31137 0.45951 0.1403 0.0
H17 H 0.84454 0.25386 0.0334 0.0
H18 H 0.21761 -0.00646 0.89628 0.0
H19 H 0.6664 0.18055 0.04784 0.0
H20 H 0.99998 0.21273 0.03976 0.0
H21 H 0.80543 0.39661 0.06226 0.0
H22 H 0.51176 0.22217 0.0446 0.0
H23 H 0.28633 0.60411 0.17158 0.0
H24 H 0.85598 0.53564 0.09985 0.0
H25 H 0.98025 0.63234 0.13408 0.0
H26 H 0.2444 0.8497 0.85634 0.0
H27 H 0.13638 0.65851 0.16353 0.0
H28 H 0.71017 0.04215 1.00328 0.0
N29 N 0.34514 0.0143 0.93329 0.0
C30 C 0.42579 -0.01603 0.93999 0.0
C31 C 0.29579 0.88677 0.88 0.0
C32 C 0.44474 0.90343 0.917 0.0
C33 C 0.28054 -0.03217 0.90302 0.0
C34 C 0.37823 0.85421 0.88734 0.0
N35 N 0.46705 0.11083 0.99337 0.0
C36 C 0.52909 0.1626 0.02256 0.0
C37 C 0.57733 0.00728 0.97288 0.0
C38 C 0.49004 0.03467 0.96914 0.0
C39 C 0.64206 0.06096 1.00005 0.0
C40 C 0.61759 0.13899 0.02528 0.0
H41 H 0.39038 0.79155 0.86929 0.0
H42 H 0.54188 0.81253 0.91079 0.0
H43 H 0.6627 0.90495 0.95433 0.0
O44 O 0.33031 0.22796 0.92845 0.0
O45 O 0.3427 0.13842 0.05335 0.0
O46 O 0.32708 0.26755 0.09212 0.0
O47 O 0.38096 0.10783 0.89646 0.0
O48 O 0.3964 0.26311 1.00048 0.0
O49 O 0.30729 0.36033 0.05381 0.0
O50 O 0.21345 0.34755 0.16336 0.0
O51 O 0.14758 0.28279 1.00019 0.0
O52 O 0.18943 0.15625 0.95083 0.0
O53 O 0.12896 0.24652 0.13489 0.0
O54 O 0.14344 0.17184 0.06472 0.0
O55 O 0.20219 0.08579 0.989 0.0
C56 C 0.34258 0.19794 0.09618 0.0
C57 C 0.34708 0.18055 0.83584 0.0
C58 C 0.39097 0.2128 0.75584 0.0
C59 C 0.30237 0.19923 0.73766 0.0
C60 C 0.26256 0.15855 0.81408 0.0
C61 C 0.23943 0.17044 0.76593 0.0
C62 C 0.41148 0.20661 0.80644 0.0
C63 C 0.38128 0.3388 0.02544 0.0
C64 C 0.37023 0.17766 0.88909 0.0
C65 C 0.52925 0.87486 0.92443 0.0
C66 C 0.59658 0.92697 0.9504 0.0
C67 C 0.14116 0.22049 0.95806 0.0
C68 C 0.08957 0.33901 0.21633 0.0
C69 C 0.9774 0.32935 0.28111 0.0
C70 C 0.97777 0.41302 0.29994 0.0
C71 C 0.08436 0.42222 0.23488 0.0
C72 C 0.03516 0.29267 0.23935 0.0
C73 C 0.02915 0.45855 0.27633 0.0
C74 C 0.14447 0.10115 0.02873 0.0
C75 C 0.15648 0.30117 0.17613 0.0
H76 H 0.28222 0.2078 0.70058 0.0
H77 H 0.214 0.13434 0.83499 0.0
H78 H 0.17266 0.15667 0.7502 0.0
H79 H 0.47766 0.22164 0.82299 0.0
H80 H 0.94044 0.4441 0.3342 0.0
H81 H 0.12499 0.45978 0.21858 0.0
H82 H 0.03915 0.22853 0.22535 0.0
H83 H 0.02797 0.52252 0.29119 0.0
Tb84 Tb 0.86097 0.6529 0.98929 0.0
C85 C 0.52045 0.90205 0.06233 0.0
N86 N 0.60674 0.90589 0.07848 0.0
C87 C 0.59738 0.04625 0.11431 0.0
C88 C 0.46745 -0.02996 0.07393 0.0
C89 C 0.6464 -0.02348 0.10369 0.0
C90 C 0.50835 0.04244 0.09859 0.0
C91 C 0.39661 0.82353 1.01567 0.0
C92 C 0.4861 0.82977 0.03323 0.0
C93 C 0.34145 0.8905 0.0301 0.0
C94 C 0.37678 0.96348 0.0594 0.0
Tb95 Tb 0.67096 0.7875 0.07009 0.0
N96 N 0.54136 0.76631 0.02104 0.0
C97 C 0.36546 0.75045 0.98407 0.0
C98 C 0.51134 0.69496 0.98922 0.0
C99 C 0.42358 0.68615 0.9702 0.0
H100 H 0.71387 -0.02176 0.11814 0.0
H101 H 0.40058 0.62935 0.94532 0.0
H102 H 0.85234 0.45683 0.96007 0.0
H103 H 0.10742 0.84921 0.11688 0.0
H104 H 0.55398 0.64413 0.97766 0.0
H105 H 0.29725 0.74336 0.9697 0.0
H106 H 0.95657 0.8083 0.08931 0.0
H107 H 0.62824 0.10279 0.13376 0.0
H108 H 0.27194 0.88683 0.01815 0.0
H109 H 0.33293 0.01373 0.07049 0.0
H110 H 0.96185 0.34877 0.94306 0.0
H111 H 0.47433 0.09612 0.10198 0.0
H112 H 0.23275 0.75686 0.08621 0.0
N113 N 0.94952 0.54746 0.98702 0.0
C114 C 0.03657 0.56509 0.9983 0.0
C115 C 0.9842 0.40932 0.9581 0.0
C116 C 0.10193 0.5058 0.98771 0.0
C117 C 0.92178 0.47054 0.96892 0.0
C118 C 0.07485 0.4277 0.96614 0.0
N119 N 0.9914 0.69528 0.03725 0.0
C120 C 0.00835 0.76775 0.07259 0.0
C121 C 0.14756 0.66239 0.04064 0.0
C122 C 0.05872 0.64217 0.02411 0.0
C123 C 0.16562 0.73893 0.07255 0.0
C124 C 0.09516 0.79106 0.08984 0.0
H125 H 0.12457 0.38235 0.95715 0.0
H126 H 0.24296 0.48071 0.99211 0.0
H127 H 0.28314 0.61879 0.0388 0.0
O128 O 0.91948 0.69479 0.93033 0.0
O129 O 0.84836 0.65414 0.07176 0.0
O130 O 0.80122 0.78085 0.10283 0.0
O131 O 0.8767 0.57339 0.91413 0.0
O132 O 0.87387 0.78221 0.99531 0.0
O133 O 0.79607 0.85968 0.06686 0.0
O134 O 0.6164 0.72726 0.12034 0.0
O135 O 0.67692 0.78548 0.98738 0.0
O136 O 0.72783 0.66088 0.9606 0.0
O137 O 0.61891 0.85469 0.14251 0.0
O138 O 0.64643 0.65801 0.05388 0.0
O139 O 0.7454 0.57283 0.99802 0.0
C140 C 0.82636 0.71492 0.11151 0.0
C141 C 0.99973 0.59792 0.86459 0.0
C142 C 0.10882 0.61735 0.80034 0.0
C143 C 0.13551 0.53753 0.79269 0.0
C144 C 0.02944 0.51942 0.85548 0.0
C145 C 0.09782 0.49029 0.8207 0.0
C146 C 0.04168 0.64745 0.83817 0.0
C147 C 0.85836 0.85216 0.02973 0.0
C148 C 0.91833 0.62484 0.89619 0.0
C149 C 0.19157 0.52587 1.00055 0.0
C150 C 0.21445 0.60438 0.02701 0.0
C151 C 0.70285 0.72455 0.94921 0.0
C152 C 0.61313 0.79314 0.21079 0.0
C153 C 0.56881 0.75695 0.28911 0.0
C154 C 0.64908 0.78951 0.31312 0.0
C155 C 0.69079 0.82842 0.23687 0.0
C156 C 0.55122 0.75837 0.23727 0.0
C157 C 0.70892 0.82588 0.28774 0.0
C158 C 0.67099 0.58531 0.02714 0.0
C159 C 0.59567 0.79234 0.15617 0.0
H160 H 0.18313 0.5089 0.76319 0.0
H161 H 0.9981 0.4792 0.87383 0.0
H162 H 0.11929 0.42934 0.81359 0.0
H163 H 0.01981 0.70833 0.84679 0.0
H164 H 0.6647 0.78759 0.35205 0.0
H165 H 0.73803 0.85676 0.2176 0.0
H166 H 0.48987 0.73297 0.21778 0.0
H167 H 0.76967 0.85191 0.30757 0.0
Tb168 Tb 0.33634 0.78735 0.58192 0.0
C169 C 0.07585 0.48257 0.46592 0.0
N170 N 0.15522 0.50766 0.45394 0.0
C171 C 0.18903 0.37867 0.3974 0.0
C172 C 0.04821 0.40525 0.44202 0.0
C173 C 0.21267 0.45772 0.42057 0.0
C174 C 0.10594 0.35232 0.40801 0.0
C175 C 0.93807 0.51163 0.51408 0.0
C176 C 0.02168 0.5356 0.5014 0.0
C177 C 0.90829 0.43528 0.48839 0.0
C178 C 0.96463 0.38277 0.45346 0.0
Tb179 Tb 0.17961 0.63761 0.48786 0.0
N180 N 0.05141 0.61021 0.52365 0.0
C181 C 0.88872 0.56403 0.55331 0.0
C182 C 1.00209 0.66289 0.56102 0.0
C183 C 0.92092 0.6401 0.57695 0.0
H184 H 0.27524 0.47972 0.41069 0.0
H185 H 0.88341 0.68112 0.60749 0.0
H186 H 0.20348 0.94047 0.63642 0.0
H187 H 0.69427 0.78424 0.57952 0.0
H188 H 0.02456 0.72244 0.57958 0.0
H189 H 0.82762 0.54556 0.56722 0.0
H190 H 0.54443 0.72869 0.58277 0.0
H191 H 0.23396 0.33868 0.37094 0.0
H192 H 0.84409 0.41561 0.49724 0.0
H193 H 0.94821 0.32285 0.43816 0.0
H194 H 0.20268 0.08432 0.64456 0.0
H195 H 0.08762 0.29096 0.39036 0.0
H196 H 0.7097 0.9249 0.57979 0.0
N197 N 0.3337 0.92232 0.60426 0.0
C198 C 0.40901 0.95688 0.59527 0.0
C199 C 0.26135 0.04916 0.63054 0.0
C200 C 0.41173 0.03756 0.59884 0.0
C201 C 0.26207 -0.03209 0.62593 0.0
C202 C 0.33539 0.08343 0.61427 0.0
N203 N 0.47661 0.83355 0.58046 0.0
C204 C 0.55061 0.78835 0.58038 0.0
C205 C 0.56757 0.9462 0.58343 0.0
C206 C 0.48443 0.91138 0.58522 0.0
C207 C 0.64422 0.89986 0.58076 0.0
C208 C 0.63568 0.82048 0.58007 0.0
H209 H 0.33438 0.14565 0.61577 0.0
H210 H 0.48945 0.12755 0.58226 0.0
H211 H 0.63347 0.05052 0.57738 0.0
O212 O 0.39683 0.73202 0.63486 0.0
O213 O 0.36999 0.76279 0.49785 0.0
O214 O 0.30808 0.64146 0.45379 0.0
O215 O 0.31954 0.83869 0.66249 0.0
O216 O 0.39928 0.66559 0.55492 0.0
O217 O 0.30259 0.57229 0.50196 0.0
O218 O 0.15746 0.71234 0.43883 0.0
O219 O 0.18803 0.63036 0.5698 0.0
O220 O 0.20559 0.76024 0.6008 0.0
O221 O 0.1196 0.58916 0.41382 0.0
O222 O 0.11513 0.75601 0.51992 0.0
O223 O 0.23054 0.84561 0.54291 0.0
C224 C 0.35516 0.70372 0.45449 0.0
C225 C 0.4462 0.82748 0.71389 0.0
C226 C 0.56199 0.81644 0.77775 0.0
C227 C 0.56532 0.9003 0.79534 0.0
C228 C 0.45378 0.91071 0.73171 0.0
C229 C 0.51291 0.9465 0.77205 0.0
C230 C 0.50222 0.78053 0.73606 0.0
C231 C 0.37911 0.59066 0.52874 0.0
C232 C 0.37516 0.79049 0.67542 0.0
C233 C 0.49097 0.0694 0.58753 0.0
C234 C 0.57041 0.02524 0.58293 0.0
C235 C 0.1943 0.69342 0.61027 0.0
C236 C 0.0235 0.67602 0.38789 0.0
C237 C 0.91555 0.6884 0.32036 0.0
C238 C 0.84651 0.68598 0.35502 0.0
C239 C 0.95258 0.67561 0.42153 0.0
C240 C 0.00483 0.68394 0.33735 0.0
C241 C 0.86497 0.67935 0.40496 0.0
C242 C 0.14451 0.82987 0.53081 0.0
C243 C 0.11415 0.65698 0.40352 0.0
H244 H 0.6066 0.93122 0.8285 0.0
H245 H 0.41246 0.9487 0.71547 0.0
H246 H 0.51629 0.01062 0.78648 0.0
H247 H 0.49792 0.71659 0.721 0.0
H248 H 0.77776 0.68998 0.34376 0.0
H249 H 0.96465 0.67007 0.46026 0.0
H250 H 0.05896 0.68291 0.31065 0.0
H251 H 0.81098 0.67742 0.4311 0.0
Tb252 Tb 0.83945 0.27455 0.56788 0.0
C253 C 0.60961 0.96132 0.45994 0.0
N254 N 0.68817 -0.00531 0.45537 0.0
C255 C 0.76044 0.86855 0.43965 0.0
C256 C 0.60352 0.88093 0.45743 0.0
C257 C 0.76141 0.94784 0.43941 0.0
C258 C 0.68144 0.83546 0.45097 0.0
C259 C 0.45033 -0.02562 0.46242 0.0
C260 C 0.53494 0.0079 0.46512 0.0
C261 C 0.44289 0.89546 0.46242 0.0
C262 C 0.52009 0.84939 0.46187 0.0
Tb263 Tb 0.68639 0.12893 0.47082 0.0
N264 N 0.54547 0.08589 0.4709 0.0
C265 C 0.3762 0.02136 0.46007 0.0
C266 C 0.4738 0.13346 0.47013 0.0
C267 C 0.38786 0.10169 0.46403 0.0
H268 H 0.82235 -0.02672 0.43015 0.0
H269 H 0.33119 0.13882 0.46182 0.0
H270 H 0.73434 0.42257 0.64955 0.0
H271 H 0.16601 0.24938 0.48133 0.0
H272 H 0.48289 0.19506 0.47219 0.0
H273 H 0.31057 -0.00468 0.45374 0.0
H274 H 0.00926 0.21236 0.48374 0.0
H275 H 0.82067 0.83396 0.43145 0.0
H276 H 0.37734 0.8719 0.46409 0.0
H277 H 0.51665 0.79011 0.46539 0.0
H278 H 0.77381 0.55467 0.70844 0.0
H279 H 0.67985 0.77369 0.45065 0.0
H280 H 0.22207 0.37503 0.54163 0.0
N281 N 0.86218 0.40239 0.61457 0.0
C282 C 0.94577 0.43 0.61372 0.0
C283 C 0.82272 0.52024 0.68188 0.0
C284 C 0.97198 0.50289 0.64785 0.0
C285 C 0.80038 0.44579 0.64804 0.0
C286 C 0.90939 0.54876 0.68213 0.0
N287 N 0.97722 0.31221 0.54843 0.0
C288 C 0.03295 0.26551 0.51209 0.0
C289 C 0.09467 0.40764 0.57854 0.0
C290 C 0.006 0.38282 0.57983 0.0
C291 C 0.15331 0.35824 0.54353 0.0
C292 C 0.12201 0.28707 0.50976 0.0
H293 H 0.92736 0.60575 0.70898 0.0
H294 H 0.0799 0.5809 0.67378 0.0
H295 H 0.18979 0.50045 0.61312 0.0
O296 O 0.81728 0.19662 0.614 0.0
O297 O 0.83263 0.27415 0.48448 0.0
O298 O 0.81742 0.14431 0.44661 0.0
O299 O 0.91975 0.28683 0.63493 0.0
O300 O 0.90388 0.15981 0.52895 0.0
O301 O 0.78617 0.07562 0.51737 0.0
O302 O 0.63268 0.18093 0.41411 0.0
O303 O 0.62993 0.16769 0.55051 0.0
O304 O 0.7074 0.27921 0.60087 0.0
O305 O 0.69662 0.06711 0.39125 0.0
O306 O 0.63324 0.25497 0.49257 0.0
O307 O 0.72669 0.3477 0.54939 0.0
C308 C 0.83497 0.21322 0.44225 0.0
C309 C 0.85556 0.25141 0.70496 0.0
C310 C 0.89436 0.24885 0.79416 0.0
C311 C 0.81686 0.29226 0.81246 0.0
C312 C 0.78084 0.29802 0.72467 0.0
C313 C 0.76072 0.31683 0.77789 0.0
C314 C 0.91315 0.22814 0.74014 0.0
C315 C 0.87376 0.08796 0.52473 0.0
C316 C 0.87813 0.2313 0.64875 0.0
C317 C 0.05997 0.52692 0.64714 0.0
C318 C 0.12168 0.48029 0.61275 0.0
C319 C 0.64269 0.22714 0.59391 0.0
C320 C 0.57342 0.08306 0.33899 0.0
C321 C 0.46574 0.09147 0.27017 0.0
C322 C 0.44928 0.00954 0.26058 0.0
C323 C 0.55046 0.00272 0.33013 0.0
C324 C 0.52939 0.12779 0.3096 0.0
C325 C 0.48893 -0.03328 0.29133 0.0
C326 C 0.65283 0.32985 0.51957 0.0
C327 C 0.64795 0.11743 0.37565 0.0
H328 H 0.80159 0.30978 0.85387 0.0
H329 H 0.73776 0.31978 0.6991 0.0
H330 H 0.70219 0.35184 0.79255 0.0
H331 H 0.97316 0.19508 0.72569 0.0
H332 H 0.40741 -0.023 0.22825 0.0
H333 H 0.58213 -0.03354 0.3519 0.0
H334 H 0.54605 0.18997 0.3169 0.0
H335 H 0.47362 0.90454 0.28391 0.0
C336 C 0.51821 0.53864 0.05274 0.0
C337 C 0.60087 0.51888 0.02614 0.0
C338 C 0.44918 0.48216 0.05191 0.0
C339 C 0.45655 0.40033 0.02483 0.0
H340 H 0.50515 0.59968 0.07454 0.0
H341 H 0.38878 0.50379 0.07275 0.0
S342 S 0.65697 0.31351 0.94688 0.0
N343 N 0.68306 0.40843 0.97053 0.0
N344 N 0.55656 0.30375 0.96885 0.0
C345 C 0.53872 0.37937 0.99759 0.0
C346 C 0.60918 0.4374 0.99833 0.0
C347 C 0.42582 0.44622 0.5259 0.0
C348 C 0.44954 0.52407 0.52513 0.0
C349 C 0.49029 0.38478 0.52386 0.0
C350 C 0.58346 0.39633 0.52037 0.0
H351 H 0.35634 0.43278 0.52904 0.0
H352 H 0.46648 0.32784 0.52608 0.0
S353 S 0.68143 0.58329 0.50643 0.0
N354 N 0.57454 0.60413 0.51416 0.0
N355 N 0.69249 0.49113 0.50938 0.0
C356 C 0.60734 0.47277 0.5173 0.0
C357 C 0.54193 0.53532 0.51983 0.0
C358 C 0.06092 0.96581 0.9903 0.0
C359 C 0.0706 0.03878 0.0304 0.0
C360 C 0.99257 0.90879 0.99028 0.0
C361 C 0.92755 0.91937 0.03034 0.0
H362 H 0.10686 0.95201 0.95798 0.0
H363 H 0.99148 0.85484 0.95796 0.0
S364 S 0.92102 0.09837 0.14625 0.0
N365 N 0.00573 0.11646 0.11248 0.0
N366 N 0.88144 0.01084 0.11256 0.0
C367 C 0.93653 -0.00816 0.07086 0.0
C368 C 0.00608 0.05032 0.07085 0.0
C369 C 0.91796 0.94574 0.53153 0.0
C370 C 0.94209 0.02156 0.52702 0.0
C371 C 0.98235 0.88523 0.53231 0.0
C372 C 0.07607 0.89632 0.52959 0.0
H373 H 0.84844 0.93285 0.53507 0.0
H374 H 0.95786 0.82903 0.53566 0.0
S375 S 0.17685 0.08345 0.51834 0.0
N376 N 0.06959 0.10256 0.52131 0.0
N377 N 0.18691 -0.00886 0.52102 0.0
C378 C 0.10068 -0.02827 0.52536 0.0
C379 C 0.03542 0.03309 0.52478 0.0
C380 C 0.4695 0.19241 0.21859 0.0
C381 C 0.42202 0.13502 0.23534 0.0
C382 C 0.43776 0.2198 0.17688 0.0
C383 C 0.36029 0.18725 0.14859 0.0
H384 H 0.53461 0.21219 0.23494 0.0
H385 H 0.47917 0.25975 0.16298 0.0
S386 S 0.19755 0.05628 0.18616 0.0
N387 N 0.27961 0.06598 0.22944 0.0
N388 N 0.22784 0.10818 0.14649 0.0
C389 C 0.30774 0.13684 0.16811 0.0
C390 C 0.33685 0.11289 0.21253 0.0
C391 C 0.42054 0.76435 0.33356 0.0
C392 C 0.50356 0.72678 0.32078 0.0
C393 C 0.36916 0.75194 0.37449 0.0
C394 C 0.39996 0.70292 0.40467 0.0
H395 H 0.39782 0.80752 0.31432 0.0
H396 H 0.30794 0.78515 0.38491 0.0
S397 S 0.6001 0.57486 0.37734 0.0
N398 N 0.60491 0.62681 0.3347 0.0
N399 N 0.5083 0.60346 0.41108 0.0
C400 C 0.47687 0.65768 0.38788 0.0
C401 C 0.52916 0.6703 0.34643 0.0
C402 C 0.73029 0.78165 0.87567 0.0
C403 C 0.6879 0.72415 0.89405 0.0
C404 C 0.69622 0.80273 0.83222 0.0
C405 C 0.61556 0.77013 0.80727 0.0
H406 H 0.78576 0.8152 0.89757 0.0
H407 H 0.7288 0.85065 0.82154 0.0
S408 S 0.49704 0.59825 0.83115 0.0
N409 N 0.57859 0.61804 0.87519 0.0
N410 N 0.50756 0.66295 0.79724 0.0
C411 C 0.58123 0.70342 0.82031 0.0
C412 C 0.61916 0.67935 0.86312 0.0
C413 C 0.50661 0.27829 0.64744 0.0
C414 C 0.58544 0.23333 0.64002 0.0
C415 C 0.44595 0.27477 0.68672 0.0
C416 C 0.46203 0.22641 0.72017 0.0
H417 H 0.48998 0.31363 0.62133 0.0
H418 H 0.38472 0.30841 0.68986 0.0
S419 S 0.66225 0.10064 0.71797 0.0
N420 N 0.67921 0.14311 0.67111 0.0
N421 N 0.56553 0.13483 0.74353 0.0
C422 C 0.54316 0.18443 0.71449 0.0
C423 C 0.60481 0.1885 0.67489 0.0
C424 C 0.90794 0.76163 0.19804 0.0
C425 C 0.84281 0.71245 0.16617 0.0
C426 C 0.93306 0.75208 0.24711 0.0
C427 C 0.89255 0.6943 0.26665 0.0
H428 H 0.94187 0.80588 0.1842 0.0
H429 H 0.98372 0.7909 0.27021 0.0
S430 S 0.71183 0.55638 0.20019 0.0
N431 N 0.73312 0.60901 0.15939 0.0
N432 N 0.78127 0.58918 0.25032 0.0
C433 C 0.8253 0.64657 0.23555 0.0
C434 C 0.79989 0.65645 0.18585 0.0
C435 C 0.92322 0.18562 0.35998 0.0
C436 C 0.84982 0.22299 0.38935 0.0
C437 C 0.95968 0.2152 0.32075 0.0
C438 C 0.92333 0.28265 0.3093 0.0
H439 H 0.95867 0.1392 0.37132 0.0
H440 H 0.02175 0.18992 0.30337 0.0
S441 S 0.71299 0.38358 0.36356 0.0
N442 N 0.73112 0.3191 0.39704 0.0
N443 N 0.79463 0.37076 0.321 0.0
C444 C 0.84139 0.31166 0.33282 0.0
C445 C 0.80586 0.28287 0.37347 0.0
C446 C 0.0451 0.26493 0.83673 0.0
C447 C 0.95903 0.23245 0.83251 0.0
C448 C 0.10366 0.26007 0.87721 0.0
C449 C 0.07861 0.22237 0.91489 0.0
H450 H 0.06617 0.29673 0.80962 0.0
H451 H 0.16858 0.2877 0.87977 0.0
S452 S 0.86615 0.11609 0.9159 0.0
N453 N 0.85451 0.15459 0.86635 0.0
N454 N 0.96671 0.14196 0.94075 0.0
C455 C 0.99526 0.18454 0.90881 0.0
C456 C 0.93471 0.1909 0.86824 0.0
C457 C 0.2424 0.64782 0.6876 0.0
C458 C 0.18366 0.69164 0.66534 0.0
C459 C 0.22533 0.63627 0.73673 0.0
C460 C 0.14467 0.66199 0.76362 0.0
H461 H 0.30001 0.61951 0.666 0.0
H462 H 0.27252 0.60065 0.7512 0.0
S463 S 0.98475 0.80191 0.72829 0.0
N464 N 0.05766 0.78162 0.68048 0.0
N465 N 0.01786 0.75172 0.76892 0.0
C466 C 0.09277 0.71635 0.74515 0.0
C467 C 0.11374 0.73219 0.69653 0.0
loop_
_geom_bond_atom_site_label_1
_geom_bond_atom_site_label_2
_geom_bond_distance
_geom_bond_site_symmetry_2
_ccdc_geom_bond_type
Tb0 N29 2.612 1_545 S
Tb0 N35 2.572 . S
Tb0 O44 2.465 . S
Tb0 O45 2.387 1_556 S
Tb0 O47 2.428 . S
Tb0 O48 2.308 1_556 S
Tb0 O52 2.349 . S
Tb0 O55 2.393 . S
Tb0 C64 2.802 . S
C1 N2 1.379 . S
C1 C4 1.416 1_455 S
C1 C8 1.424 1_455 S
N2 C1 1.379 . S
N2 C5 1.334 . S
N2 Tb11 2.617 . S
C3 C5 1.390 . S
C3 C6 1.339 . S
C3 H23 0.930 . S
C4 C1 1.416 1_655 S
C4 C6 1.416 1_655 S
C4 C10 1.448 . S
C5 N2 1.334 . S
C5 C3 1.390 . S
C5 H16 0.930 . S
C6 C3 1.339 . S
C6 C4 1.416 1_455 S
C6 H27 0.930 . S
C7 C8 1.413 . S
C7 C9 1.427 . S
C7 C13 1.416 . S
C8 C1 1.424 1_655 S
C8 C7 1.413 . S
C8 N12 1.362 . S
C9 C7 1.427 . S
C9 C10 1.328 . S
C9 H24 0.929 . S
C10 C4 1.448 . S
C10 C9 1.328 . S
C10 H25 0.930 . S
Tb11 N2 2.617 . S
Tb11 N12 2.568 1_455 S
Tb11 O46 2.349 . S
Tb11 O49 2.393 . S
Tb11 O50 2.465 . S
Tb11 O51 2.387 1_554 S
Tb11 O53 2.428 . S
Tb11 O54 2.308 . S
Tb11 C75 2.802 . S
N12 C8 1.362 . S
N12 Tb11 2.568 1_655 S
N12 C14 1.342 . S
C13 C7 1.416 . S
C13 C15 1.332 . S
C13 H21 0.930 1_554 S
C14 N12 1.342 . S
C14 C15 1.407 . S
C14 H20 0.930 . S
C15 C13 1.332 . S
C15 C14 1.407 . S
C15 H17 0.929 . S
H16 C5 0.930 . S
H17 C15 0.929 . S
H18 C33 0.930 . S
H19 C40 0.929 . S
H20 C14 0.930 . S
H21 C13 0.930 1_556 S
H22 C36 0.930 . S
H23 C3 0.930 . S
H24 C9 0.929 . S
H25 C10 0.930 . S
H26 C31 0.930 . S
H27 C6 0.930 . S
H28 C39 0.931 . S
N29 Tb0 2.612 1_565 S
N29 C30 1.380 . S
N29 C33 1.339 . S
C30 N29 1.380 . S
C30 C32 1.416 . S
C30 C38 1.424 1_565 S
C31 H26 0.930 . S
C31 C33 1.390 . S
C31 C34 1.339 . S
C32 C30 1.416 . S
C32 C34 1.416 . S
C32 C65 1.448 . S
C33 H18 0.930 . S
C33 N29 1.339 . S
C33 C31 1.390 . S
C34 C31 1.339 . S
C34 C32 1.416 . S
C34 H41 0.930 . S
N35 Tb0 2.572 . S
N35 C36 1.340 . S
N35 C38 1.361 . S
C36 H22 0.930 . S
C36 N35 1.340 . S
C36 C40 1.407 1_556 S
C37 C38 1.413 1_554 S
C37 C39 1.416 . S
C37 C66 1.427 1_545 S
C38 C30 1.424 1_545 S
C38 N35 1.361 . S
C38 C37 1.413 1_556 S
C39 H28 0.931 . S
C39 C37 1.416 . S
C39 C40 1.332 . S
C40 H19 0.929 . S
C40 C36 1.407 1_554 S
C40 C39 1.332 . S
H41 C34 0.930 . S
H42 C65 0.921 1_554 S
H43 C66 0.929 . S
O44 Tb0 2.465 . S
O44 C64 1.264 . S
O45 Tb0 2.387 1_554 S
O45 C56 1.264 . S
O46 Tb11 2.349 . S
O46 C56 1.243 . S
O47 Tb0 2.428 . S
O47 C64 1.256 . S
O48 Tb0 2.308 1_554 S
O48 C63 1.266 . S
O49 Tb11 2.393 . S
O49 C63 1.248 . S
O50 Tb11 2.465 . S
O50 C75 1.264 . S
O51 Tb11 2.387 1_556 S
O51 C67 1.264 . S
O52 Tb0 2.349 . S
O52 C67 1.243 . S
O53 Tb11 2.428 . S
O53 C75 1.256 . S
O54 Tb11 2.308 . S
O54 C74 1.266 . S
O55 Tb0 2.393 . S
O55 C74 1.248 1_556 S
C56 O45 1.264 . S
C56 O46 1.243 . S
C57 C60 1.399 . S
C57 C62 1.383 . S
C57 C64 1.496 . S
C58 C59 1.399 . S
C58 C62 1.389 . S
C59 C58 1.399 . S
C59 C61 1.380 1_545 S
C59 H76 0.929 . S
C60 C57 1.399 . S
C60 C61 1.392 1_545 S
C60 H77 0.929 1_545 S
C61 C59 1.380 1_565 S
C61 C60 1.392 1_565 S
C61 H78 0.929 . S
C62 C57 1.383 . S
C62 C58 1.389 . S
C62 H79 0.931 . S
C63 O48 1.266 . S
C63 O49 1.248 . S
C64 Tb0 2.802 . S
C64 O44 1.264 . S
C64 O47 1.256 . S
C64 C57 1.496 . S
C65 C32 1.448 . S
C65 H42 0.921 1_556 S
C65 C66 1.328 1_556 S
C66 C37 1.427 1_565 S
C66 H43 0.929 . S
C66 C65 1.328 1_554 S
C67 O51 1.264 . S
C67 O52 1.243 . S
C68 C71 1.399 . S
C68 C72 1.383 . S
C68 C75 1.496 . S
C69 C70 1.399 . S
C69 C72 1.389 1_655 S
C70 C69 1.399 . S
C70 C73 1.380 1_655 S
C70 H80 0.929 . S
C71 C68 1.399 . S
C71 C73 1.392 . S
C71 H81 0.929 . S
C72 C68 1.383 . S
C72 C69 1.389 1_455 S
C72 H82 0.931 . S
C73 C70 1.380 1_455 S
C73 C71 1.392 . S
C73 H83 0.929 . S
C74 O54 1.266 . S
C74 O55 1.248 1_554 S
C75 Tb11 2.802 . S
C75 O50 1.264 . S
C75 O53 1.256 . S
C75 C68 1.496 . S
H76 C59 0.929 . S
H77 C60 0.929 1_565 S
H78 C61 0.929 . S
H79 C62 0.931 . S
H80 C70 0.929 . S
H81 C71 0.929 . S
H82 C72 0.931 . S
H83 C73 0.929 . S
Tb84 N113 2.617 . S
Tb84 N119 2.568 1_655 S
Tb84 O128 2.465 . S
Tb84 O129 2.387 1_556 S
Tb84 O131 2.428 . S
Tb84 O132 2.308 1_556 S
Tb84 O136 2.349 . S
Tb84 O139 2.393 . S
Tb84 C148 2.802 . S
C85 N86 1.380 . S
C85 C88 1.416 . S
C85 C92 1.424 1_545 S
N86 C85 1.380 . S
N86 C89 1.339 . S
N86 Tb95 2.612 1_545 S
C87 C89 1.390 . S
C87 C90 1.339 . S
C87 H107 0.930 . S
C88 C85 1.416 . S
C88 C90 1.416 . S
C88 C94 1.448 . S
C89 N86 1.339 . S
C89 C87 1.390 . S
C89 H100 0.930 . S
C90 C87 1.339 . S
C90 C88 1.416 . S
C90 H111 0.930 . S
C91 C92 1.413 . S
C91 C93 1.427 1_565 S
C91 C97 1.416 . S
C92 C85 1.424 1_565 S
C92 C91 1.413 . S
C92 N96 1.361 . S
C93 C91 1.427 1_545 S
C93 C94 1.328 . S
C93 H108 0.929 . S
C94 C88 1.448 . S
C94 C93 1.328 . S
C94 H109 0.930 . S
Tb95 N86 2.612 1_565 S
Tb95 N96 2.572 . S
Tb95 O130 2.349 . S
Tb95 O133 2.393 . S
Tb95 O134 2.465 . S
Tb95 O135 2.387 1_554 S
Tb95 O137 2.428 . S
Tb95 O138 2.308 . S
Tb95 C159 2.802 . S
N96 C92 1.361 . S
N96 Tb95 2.572 . S
N96 C98 1.340 . S
C97 C91 1.416 . S
C97 C99 1.332 . S
C97 H105 0.930 1_554 S
C98 N96 1.340 . S
C98 C99 1.407 . S
C98 H104 0.930 . S
C99 C97 1.332 . S
C99 C98 1.407 . S
C99 H101 0.929 . S
H100 C89 0.930 . S
H101 C99 0.929 . S
H102 C117 0.930 . S
H103 C124 0.929 . S
H104 C98 0.930 . S
H105 C97 0.930 1_556 S
H106 C120 0.930 . S
H107 C87 0.930 . S
H108 C93 0.929 . S
H109 C94 0.930 . S
H110 C115 0.930 . S
H111 C90 0.930 . S
H112 C123 0.931 . S
N113 Tb84 2.617 . S
N113 C114 1.379 . S
N113 C117 1.334 . S
C114 N113 1.379 . S
C114 C116 1.416 1_655 S
C114 C122 1.424 1_655 S
C115 H110 0.930 . S
C115 C117 1.390 . S
C115 C118 1.339 . S
C116 C114 1.416 1_455 S
C116 C118 1.416 1_455 S
C116 C149 1.448 . S
C117 H102 0.930 . S
C117 N113 1.334 . S
C117 C115 1.390 . S
C118 C115 1.339 . S
C118 C116 1.416 1_655 S
C118 H125 0.930 . S
N119 Tb84 2.568 1_455 S
N119 C120 1.342 . S
N119 C122 1.362 . S
C120 H106 0.930 . S
C120 N119 1.342 . S
C120 C124 1.407 1_556 S
C121 C122 1.413 1_554 S
C121 C123 1.416 . S
C121 C150 1.427 . S
C122 C114 1.424 1_455 S
C122 N119 1.362 . S
C122 C121 1.413 1_556 S
C123 H112 0.931 . S
C123 C121 1.416 . S
C123 C124 1.332 . S
C124 H103 0.929 . S
C124 C120 1.407 1_554 S
C124 C123 1.332 . S
H125 C118 0.930 . S
H126 C149 0.921 1_554 S
H127 C150 0.929 . S
O128 Tb84 2.465 . S
O128 C148 1.264 . S
O129 Tb84 2.387 1_554 S
O129 C140 1.264 . S
O130 Tb95 2.349 . S
O130 C140 1.243 . S
O131 Tb84 2.428 . S
O131 C148 1.256 . S
O132 Tb84 2.308 1_554 S
O132 C147 1.266 . S
O133 Tb95 2.393 . S
O133 C147 1.248 . S
O134 Tb95 2.465 . S
O134 C159 1.264 . S
O135 Tb95 2.387 1_556 S
O135 C151 1.264 . S
O136 Tb84 2.349 . S
O136 C151 1.243 . S
O137 Tb95 2.428 . S
O137 C159 1.256 . S
O138 Tb95 2.308 . S
O138 C158 1.266 . S
O139 Tb84 2.393 . S
O139 C158 1.248 1_556 S
C140 O129 1.264 . S
C140 O130 1.243 . S
C141 C144 1.399 . S
C141 C146 1.383 . S
C141 C148 1.496 . S
C142 C143 1.399 . S
C142 C146 1.389 1_455 S
C143 C142 1.399 . S
C143 C145 1.380 1_455 S
C143 H160 0.929 . S
C144 C141 1.399 . S
C144 C145 1.392 . S
C144 H161 0.929 . S
C145 C143 1.380 1_655 S
C145 C144 1.392 . S
C145 H162 0.929 . S
C146 C141 1.383 . S
C146 C142 1.389 1_655 S
C146 H163 0.931 . S
C147 O132 1.266 . S
C147 O133 1.248 . S
C148 Tb84 2.802 . S
C148 O128 1.264 . S
C148 O131 1.256 . S
C148 C141 1.496 . S
C149 C116 1.448 . S
C149 H126 0.921 1_556 S
C149 C150 1.328 1_556 S
C150 C121 1.427 . S
C150 H127 0.929 . S
C150 C149 1.328 1_554 S
C151 O135 1.264 . S
C151 O136 1.243 . S
C152 C155 1.399 . S
C152 C156 1.383 . S
C152 C159 1.496 . S
C153 C154 1.399 . S
C153 C156 1.389 . S
C154 C153 1.399 . S
C154 C157 1.380 1_565 S
C154 H164 0.929 . S
C155 C152 1.399 . S
C155 C157 1.392 1_565 S
C155 H165 0.929 1_565 S
C156 C152 1.383 . S
C156 C153 1.389 . S
C156 H166 0.931 . S
C157 C154 1.380 1_545 S
C157 C155 1.392 1_545 S
C157 H167 0.929 . S
C158 O138 1.266 . S
C158 O139 1.248 1_554 S
C159 Tb95 2.802 . S
C159 O134 1.264 . S
C159 O137 1.256 . S
C159 C152 1.496 . S
H160 C143 0.929 . S
H161 C144 0.929 . S
H162 C145 0.929 . S
H163 C146 0.931 . S
H164 C154 0.929 . S
H165 C155 0.929 1_545 S
H166 C156 0.931 . S
H167 C157 0.929 . S
Tb168 N197 2.612 1_565 S
Tb168 N203 2.572 . S
Tb168 O212 2.465 . S
Tb168 O213 2.387 . S
Tb168 O215 2.428 . S
Tb168 O216 2.308 . S
Tb168 O220 2.349 . S
Tb168 O223 2.393 . S
Tb168 C232 2.802 . S
C169 N170 1.379 . S
C169 C172 1.416 1_455 S
C169 C176 1.424 1_455 S
N170 C169 1.379 . S
N170 C173 1.334 . S
N170 Tb179 2.617 . S
C171 C173 1.390 . S
C171 C174 1.339 . S
C171 H191 0.930 . S
C172 C169 1.416 1_655 S
C172 C174 1.416 1_655 S
C172 C178 1.448 . S
C173 N170 1.334 . S
C173 C171 1.390 . S
C173 H184 0.930 . S
C174 C171 1.339 . S
C174 C172 1.416 1_455 S
C174 H195 0.930 . S
C175 C176 1.413 . S
C175 C177 1.427 . S
C175 C181 1.416 . S
C176 C169 1.424 1_655 S
C176 C175 1.413 . S
C176 N180 1.362 . S
C177 C175 1.427 . S
C177 C178 1.328 . S
C177 H192 0.929 . S
C178 C172 1.448 . S
C178 C177 1.328 . S
C178 H193 0.930 . S
Tb179 N170 2.617 . S
Tb179 N180 2.568 1_455 S
Tb179 O214 2.349 . S
Tb179 O217 2.393 . S
Tb179 O218 2.465 . S
Tb179 O219 2.387 . S
Tb179 O221 2.428 . S
Tb179 O222 2.308 . S
Tb179 C243 2.802 . S
N180 C176 1.362 . S
N180 Tb179 2.568 1_655 S
N180 C182 1.342 . S
C181 C175 1.416 . S
C181 C183 1.332 . S
C181 H189 0.931 . S
C182 N180 1.342 . S
C182 C183 1.407 . S
C182 H188 0.930 . S
C183 C181 1.332 . S
C183 C182 1.407 . S
C183 H185 0.929 . S
H184 C173 0.930 . S
H185 C183 0.929 . S
H186 C201 0.930 . S
H187 C208 0.929 . S
H188 C182 0.930 . S
H189 C181 0.931 . S
H190 C204 0.930 . S
H191 C171 0.930 . S
H192 C177 0.929 . S
H193 C178 0.930 . S
H194 C199 0.930 . S
H195 C174 0.930 . S
H196 C207 0.931 . S
N197 Tb168 2.612 1_545 S
N197 C198 1.380 . S
N197 C201 1.339 . S
C198 N197 1.380 . S
C198 C200 1.416 . S
C198 C206 1.424 1_545 S
C199 H194 0.930 . S
C199 C201 1.390 . S
C199 C202 1.339 . S
C200 C198 1.416 . S
C200 C202 1.416 . S
C200 C233 1.448 . S
C201 H186 0.930 . S
C201 N197 1.339 . S
C201 C199 1.390 . S
C202 C199 1.339 . S
C202 C200 1.416 . S
C202 H209 0.930 . S
N203 Tb168 2.572 . S
N203 C204 1.340 . S
N203 C206 1.361 . S
C204 H190 0.930 . S
C204 N203 1.340 . S
C204 C208 1.407 . S
C205 C206 1.413 . S
C205 C207 1.416 . S
C205 C234 1.427 1_565 S
C206 C198 1.424 1_565 S
C206 N203 1.361 . S
C206 C205 1.413 . S
C207 H196 0.931 . S
C207 C205 1.416 . S
C207 C208 1.332 . S
C208 H187 0.929 . S
C208 C204 1.407 . S
C208 C207 1.332 . S
H209 C202 0.930 . S
H210 C233 0.930 . S
H211 C234 0.929 . S
O212 Tb168 2.465 . S
O212 C232 1.264 . S
O213 Tb168 2.387 . S
O213 C224 1.264 . S
O214 Tb179 2.349 . S
O214 C224 1.243 . S
O215 Tb168 2.428 . S
O215 C232 1.256 . S
O216 Tb168 2.308 . S
O216 C231 1.266 . S
O217 Tb179 2.393 . S
O217 C231 1.248 . S
O218 Tb179 2.465 . S
O218 C243 1.264 . S
O219 Tb179 2.387 . S
O219 C235 1.264 . S
O220 Tb168 2.349 . S
O220 C235 1.243 . S
O221 Tb179 2.428 . S
O221 C243 1.256 . S
O222 Tb179 2.308 . S
O222 C242 1.266 . S
O223 Tb168 2.393 . S
O223 C242 1.248 . S
C224 O213 1.264 . S
C224 O214 1.243 . S
C225 C228 1.399 . S
C225 C230 1.383 . S
C225 C232 1.496 . S
C226 C227 1.399 . S
C226 C230 1.389 . S
C227 C226 1.399 . S
C227 C229 1.380 1_565 S
C227 H244 0.929 . S
C228 C225 1.399 . S
C228 C229 1.392 1_565 S
C228 H245 0.929 1_565 S
C229 C227 1.380 1_545 S
C229 C228 1.392 1_545 S
C229 H246 0.929 . S
C230 C225 1.383 . S
C230 C226 1.389 . S
C230 H247 0.931 . S
C231 O216 1.266 . S
C231 O217 1.248 . S
C232 Tb168 2.802 . S
C232 O212 1.264 . S
C232 O215 1.256 . S
C232 C225 1.496 . S
C233 C200 1.448 . S
C233 H210 0.930 . S
C233 C234 1.328 . S
C234 C205 1.427 1_545 S
C234 H211 0.929 . S
C234 C233 1.328 . S
C235 O219 1.264 . S
C235 O220 1.243 . S
C236 C239 1.399 . S
C236 C240 1.383 . S
C236 C243 1.496 . S
C237 C238 1.399 . S
C237 C240 1.389 1_655 S
C238 C237 1.399 . S
C238 C241 1.380 1_655 S
C238 H248 0.929 . S
C239 C236 1.399 . S
C239 C241 1.392 . S
C239 H249 0.929 . S
C240 C236 1.383 . S
C240 C237 1.389 1_455 S
C240 H250 0.931 . S
C241 C238 1.380 1_455 S
C241 C239 1.392 . S
C241 H251 0.929 . S
C242 O222 1.266 . S
C242 O223 1.248 . S
C243 Tb179 2.802 . S
C243 O218 1.264 . S
C243 O221 1.256 . S
C243 C236 1.496 . S
H244 C227 0.929 . S
H245 C228 0.929 1_545 S
H246 C229 0.929 . S
H247 C230 0.931 . S
H248 C238 0.929 . S
H249 C239 0.929 . S
H250 C240 0.931 . S
H251 C241 0.929 . S
Tb252 N281 2.617 . S
Tb252 N287 2.568 1_655 S
Tb252 O296 2.465 . S
Tb252 O297 2.387 . S
Tb252 O299 2.428 . S
Tb252 O300 2.308 . S
Tb252 O304 2.349 . S
Tb252 O307 2.393 . S
Tb252 C316 2.802 . S
C253 N254 1.380 . S
C253 C256 1.416 . S
C253 C260 1.424 1_565 S
N254 C253 1.380 . S
N254 C257 1.339 . S
N254 Tb263 2.612 1_565 S
C255 C257 1.390 . S
C255 C258 1.339 . S
C255 H275 0.930 . S
C256 C253 1.416 . S
C256 C258 1.416 . S
C256 C262 1.448 . S
C257 N254 1.339 . S
C257 C255 1.390 . S
C257 H268 0.930 . S
C258 C255 1.339 . S
C258 C256 1.416 . S
C258 H279 0.930 . S
C259 C260 1.413 . S
C259 C261 1.427 1_545 S
C259 C265 1.416 . S
C260 C253 1.424 1_545 S
C260 C259 1.413 . S
C260 N264 1.361 . S
C261 C259 1.427 1_565 S
C261 C262 1.328 . S
C261 H276 0.929 . S
C262 C256 1.448 . S
C262 C261 1.328 . S
C262 H277 0.930 . S
Tb263 N254 2.612 1_545 S
Tb263 N264 2.572 . S
Tb263 O298 2.349 . S
Tb263 O301 2.393 . S
Tb263 O302 2.465 . S
Tb263 O303 2.387 . S
Tb263 O305 2.428 . S
Tb263 O306 2.308 . S
Tb263 C327 2.802 . S
N264 C260 1.361 . S
N264 Tb263 2.572 . S
N264 C266 1.340 . S
C265 C259 1.416 . S
C265 C267 1.332 . S
C265 H273 0.931 . S
C266 N264 1.340 . S
C266 C267 1.407 . S
C266 H272 0.930 . S
C267 C265 1.332 . S
C267 C266 1.407 . S
C267 H269 0.929 . S
H268 C257 0.930 . S
H269 C267 0.929 . S
H270 C285 0.930 . S
H271 C292 0.929 . S
H272 C266 0.930 . S
H273 C265 0.931 . S
H274 C288 0.930 . S
H275 C255 0.930 . S
H276 C261 0.929 . S
H277 C262 0.930 . S
H278 C283 0.930 . S
H279 C258 0.930 . S
H280 C291 0.931 . S
N281 Tb252 2.617 . S
N281 C282 1.379 . S
N281 C285 1.334 . S
C282 N281 1.379 . S
C282 C284 1.416 1_655 S
C282 C290 1.424 1_655 S
C283 H278 0.930 . S
C283 C285 1.390 . S
C283 C286 1.339 . S
C284 C282 1.416 1_455 S
C284 C286 1.416 1_455 S
C284 C317 1.448 . S
C285 H270 0.930 . S
C285 N281 1.334 . S
C285 C283 1.390 . S
C286 C283 1.339 . S
C286 C284 1.416 1_655 S
C286 H293 0.930 . S
N287 Tb252 2.568 1_455 S
N287 C288 1.342 . S
N287 C290 1.362 . S
C288 H274 0.930 . S
C288 N287 1.342 . S
C288 C292 1.407 . S
C289 C290 1.413 . S
C289 C291 1.416 . S
C289 C318 1.427 . S
C290 C282 1.424 1_455 S
C290 N287 1.362 . S
C290 C289 1.413 . S
C291 H280 0.931 . S
C291 C289 1.416 . S
C291 C292 1.332 . S
C292 H271 0.929 . S
C292 C288 1.407 . S
C292 C291 1.332 . S
H293 C286 0.930 . S
H294 C317 0.930 . S
H295 C318 0.929 . S
O296 Tb252 2.465 . S
O296 C316 1.264 . S
O297 Tb252 2.387 . S
O297 C308 1.264 . S
O298 Tb263 2.349 . S
O298 C308 1.243 . S
O299 Tb252 2.428 . S
O299 C316 1.256 . S
O300 Tb252 2.308 . S
O300 C315 1.266 . S
O301 Tb263 2.393 . S
O301 C315 1.248 . S
O302 Tb263 2.465 . S
O302 C327 1.264 . S
O303 Tb263 2.387 . S
O303 C319 1.264 . S
O304 Tb252 2.349 . S
O304 C319 1.243 . S
O305 Tb263 2.428 . S
O305 C327 1.256 . S
O306 Tb263 2.308 . S
O306 C326 1.266 . S
O307 Tb252 2.393 . S
O307 C326 1.248 . S
C308 O297 1.264 . S
C308 O298 1.243 . S
C309 C312 1.399 . S
C309 C314 1.383 . S
C309 C316 1.496 . S
C310 C311 1.399 . S
C310 C314 1.389 1_455 S
C311 C310 1.399 . S
C311 C313 1.380 1_455 S
C311 H328 0.929 . S
C312 C309 1.399 . S
C312 C313 1.392 . S
C312 H329 0.929 . S
C313 C311 1.380 1_655 S
C313 C312 1.392 . S
C313 H330 0.929 . S
C314 C309 1.383 . S
C314 C310 1.389 1_655 S
C314 H331 0.931 . S
C315 O300 1.266 . S
C315 O301 1.248 . S
C316 Tb252 2.802 . S
C316 O296 1.264 . S
C316 O299 1.256 . S
C316 C309 1.496 . S
C317 C284 1.448 . S
C317 H294 0.930 . S
C317 C318 1.328 . S
C318 C289 1.427 . S
C318 H295 0.929 . S
C318 C317 1.328 . S
C319 O303 1.264 . S
C319 O304 1.243 . S
C320 C323 1.399 . S
C320 C324 1.383 . S
C320 C327 1.496 . S
C321 C322 1.399 . S
C321 C324 1.389 . S
C322 C321 1.399 . S
C322 C325 1.380 1_545 S
C322 H332 0.929 . S
C323 C320 1.399 . S
C323 C325 1.392 1_545 S
C323 H333 0.929 1_545 S
C324 C320 1.383 . S
C324 C321 1.389 . S
C324 H334 0.931 . S
C325 C322 1.380 1_565 S
C325 C323 1.392 1_565 S
C325 H335 0.929 . S
C326 O306 1.266 . S
C326 O307 1.248 . S
C327 Tb263 2.802 . S
C327 O302 1.264 . S
C327 O305 1.256 . S
C327 C320 1.496 . S
H328 C311 0.929 . S
H329 C312 0.929 . S
H330 C313 0.929 . S
H331 C314 0.931 . S
H332 C322 0.929 . S
H333 C323 0.929 1_565 S
H334 C324 0.931 . S
H335 C325 0.929 . S
C336 C337 1.369 . S
C336 C338 1.419 . S
C336 H340 0.930 . S
C337 C336 1.369 . S
C337 C346 1.429 1_554 S
C338 C336 1.419 . S
C338 C339 1.363 . S
C338 H341 0.929 . S
C339 C338 1.363 . S
C339 C345 1.428 1_554 S
H340 C336 0.930 . S
H341 C338 0.929 . S
S342 N343 1.613 . S
S342 N344 1.610 . S
N343 S342 1.613 . S
N343 C346 1.350 . S
N344 S342 1.610 . S
N344 C345 1.351 . S
C345 C339 1.428 1_556 S
C345 N344 1.351 . S
C345 C346 1.434 . S
C346 C337 1.429 1_556 S
C346 N343 1.350 . S
C346 C345 1.434 . S
C347 C348 1.369 . S
C347 C349 1.419 . S
C347 H351 0.930 . S
C348 C347 1.369 . S
C348 C357 1.429 . S
C349 C347 1.419 . S
C349 C350 1.363 . S
C349 H352 0.929 . S
C350 C349 1.363 . S
C350 C356 1.428 . S
H351 C347 0.930 . S
H352 C349 0.929 . S
S353 N354 1.613 . S
S353 N355 1.610 . S
N354 S353 1.613 . S
N354 C357 1.350 . S
N355 S353 1.610 . S
N355 C356 1.351 . S
C356 C350 1.428 . S
C356 N355 1.351 . S
C356 C357 1.434 . S
C357 C348 1.429 . S
C357 N354 1.350 . S
C357 C356 1.434 . S
C358 C359 1.369 1_566 S
C358 C360 1.419 1_455 S
C358 H362 0.930 . S
C359 C358 1.369 1_544 S
C359 C368 1.420 1_455 S
C360 C358 1.419 1_655 S
C360 C361 1.363 1_556 S
C360 H363 0.929 1_655 S
C361 C360 1.363 1_554 S
C361 C367 1.428 1_565 S
H362 C358 0.930 . S
H363 C360 0.929 1_455 S
S364 N365 1.613 . S
S364 N366 1.610 . S
N365 S364 1.613 . S
N365 C368 1.351 . S
N366 S364 1.610 . S
N366 C367 1.351 . S
C367 C361 1.428 1_545 S
C367 N366 1.351 . S
C367 C368 1.442 . S
C368 C359 1.420 1_655 S
C368 N365 1.351 . S
C368 C367 1.442 . S
C369 C370 1.369 1_565 S
C369 C371 1.419 1_655 S
C369 H373 0.930 . S
C370 C369 1.369 1_545 S
C370 C379 1.429 . S
C371 C369 1.419 1_455 S
C371 C372 1.363 . S
C371 H374 0.929 . S
C372 C371 1.363 . S
C372 C378 1.428 1_565 S
H373 C369 0.930 . S
H374 C371 0.929 . S
S375 N376 1.613 1_455 S
S375 N377 1.610 . S
N376 S375 1.613 1_655 S
N376 C379 1.350 . S
N377 S375 1.610 . S
N377 C378 1.351 . S
C378 C372 1.428 1_545 S
C378 N377 1.351 . S
C378 C379 1.434 1_455 S
C379 C370 1.429 . S
C379 N376 1.350 . S
C379 C378 1.434 1_655 S
C380 C381 1.369 . S
C380 C382 1.419 . S
C380 H384 0.930 . S
C381 C380 1.369 . S
C381 C390 1.429 . S
C382 C380 1.419 . S
C382 C383 1.363 . S
C382 H385 0.929 . S
C383 C382 1.363 . S
C383 C389 1.428 . S
H384 C380 0.930 . S
H385 C382 0.929 . S
S386 N387 1.613 1_565 S
S386 N388 1.610 1_565 S
N387 S386 1.613 1_545 S
N387 C390 1.350 . S
N388 S386 1.610 1_545 S
N388 C389 1.351 . S
C389 C383 1.428 . S
C389 N388 1.351 . S
C389 C390 1.434 . S
C390 C381 1.429 . S
C390 N387 1.350 . S
C390 C389 1.434 . S
C391 C392 1.369 . S
C391 C393 1.419 . S
C391 H395 0.930 . S
C392 C391 1.369 . S
C392 C401 1.429 . S
C393 C391 1.419 . S
C393 C394 1.363 . S
C393 H396 0.929 . S
C394 C393 1.363 . S
C394 C400 1.428 . S
H395 C391 0.930 . S
H396 C393 0.929 . S
S397 N398 1.613 . S
S397 N399 1.610 . S
N398 S397 1.613 . S
N398 C401 1.350 . S
N399 S397 1.610 . S
N399 C400 1.351 . S
C400 C394 1.428 . S
C400 N399 1.351 . S
C400 C401 1.434 . S
C401 C392 1.429 . S
C401 N398 1.350 . S
C401 C400 1.434 . S
C402 C403 1.369 . S
C402 C404 1.419 . S
C402 H406 0.930 . S
C403 C402 1.369 . S
C403 C412 1.429 . S
C404 C402 1.419 . S
C404 C405 1.363 . S
C404 H407 0.929 . S
C405 C404 1.363 . S
C405 C411 1.428 . S
H406 C402 0.930 . S
H407 C404 0.929 . S
S408 N409 1.613 . S
S408 N410 1.610 . S
N409 S408 1.613 . S
N409 C412 1.350 . S
N410 S408 1.610 . S
N410 C411 1.351 . S
C411 C405 1.428 . S
C411 N410 1.351 . S
C411 C412 1.434 . S
C412 C403 1.429 . S
C412 N409 1.350 . S
C412 C411 1.434 . S
C413 C414 1.369 . S
C413 C415 1.419 . S
C413 H417 0.930 . S
C414 C413 1.369 . S
C414 C423 1.429 . S
C415 C413 1.419 . S
C415 C416 1.363 . S
C415 H418 0.929 . S
C416 C415 1.363 . S
C416 C422 1.428 . S
H417 C413 0.930 . S
H418 C415 0.929 . S
S419 N420 1.613 . S
S419 N421 1.610 . S
N420 S419 1.613 . S
N420 C423 1.350 . S
N421 S419 1.610 . S
N421 C422 1.351 . S
C422 C416 1.428 . S
C422 N421 1.351 . S
C422 C423 1.434 . S
C423 C414 1.429 . S
C423 N420 1.350 . S
C423 C422 1.434 . S
C424 C425 1.369 . S
C424 C426 1.419 . S
C424 H428 0.930 . S
C425 C424 1.369 . S
C425 C434 1.429 . S
C426 C424 1.419 . S
C426 C427 1.363 . S
C426 H429 0.929 . S
C427 C426 1.363 . S
C427 C433 1.428 . S
H428 C424 0.930 . S
H429 C426 0.929 . S
S430 N431 1.613 1_455 S
S430 N432 1.610 . S
N431 S430 1.613 1_655 S
N431 C434 1.350 . S
N432 S430 1.610 . S
N432 C433 1.351 1_455 S
C433 C427 1.428 . S
C433 N432 1.351 1_655 S
C433 C434 1.434 . S
C434 C425 1.429 . S
C434 N431 1.350 . S
C434 C433 1.434 . S
C435 C436 1.369 . S
C435 C437 1.419 . S
C435 H439 0.930 . S
C436 C435 1.369 . S
C436 C445 1.429 . S
C437 C435 1.419 . S
C437 C438 1.363 . S
C437 H440 0.935 . S
C438 C437 1.363 . S
C438 C444 1.428 . S
H439 C435 0.930 . S
H440 C437 0.935 . S
S441 N442 1.613 . S
S441 N443 1.610 . S
N442 S441 1.613 . S
N442 C445 1.350 . S
N443 S441 1.610 . S
N443 C444 1.351 . S
C444 C438 1.428 . S
C444 N443 1.351 . S
C444 C445 1.434 . S
C445 C436 1.429 . S
C445 N442 1.350 . S
C445 C444 1.434 . S
C446 C447 1.369 . S
C446 C448 1.419 . S
C446 H450 0.930 . S
C447 C446 1.369 . S
C447 C456 1.429 . S
C448 C446 1.419 . S
C448 C449 1.363 . S
C448 H451 0.929 . S
C449 C448 1.363 . S
C449 C455 1.428 . S
H450 C446 0.930 . S
H451 C448 0.929 . S
S452 N453 1.613 . S
S452 N454 1.610 1_655 S
N453 S452 1.613 . S
N453 C456 1.350 1_655 S
N454 S452 1.610 1_455 S
N454 C455 1.351 . S
C455 C449 1.428 . S
C455 N454 1.351 . S
C455 C456 1.434 . S
C456 C447 1.429 . S
C456 N453 1.350 1_455 S
C456 C455 1.434 . S
C457 C458 1.369 . S
C457 C459 1.419 . S
C457 H461 0.930 . S
C458 C457 1.369 . S
C458 C467 1.429 . S
C459 C457 1.419 . S
C459 C460 1.363 . S
C459 H462 0.929 . S
C460 C459 1.363 . S
C460 C466 1.428 . S
H461 C457 0.930 . S
H462 C459 0.929 . S
S463 N464 1.613 . S
S463 N465 1.610 . S
N464 S463 1.613 . S
N464 C467 1.350 1_655 S
N465 S463 1.610 . S
N465 C466 1.351 1_655 S
C466 C460 1.428 . S
C466 N465 1.351 1_455 S
C466 C467 1.434 . S
C467 C458 1.429 . S
C467 N464 1.350 1_455 S
C467 C466 1.434 . S
C337 C158 1.535 . S
C339 C63 1.540 . S
C348 C231 1.535 . S
C350 C326 1.540 . S
C359 C74 1.539 . S
C361 C147 1.538 . S
C370 C315 1.537 . S
C372 C242 1.538 . S
C381 C321 1.328 . S
C383 C56 1.387 . S
C392 C153 1.336 . S
C394 C224 1.390 . S
C403 C151 1.391 . S
C405 C226 1.335 . S
C414 C319 1.385 . S
C416 C58 1.336 . S
C425 C140 1.388 . S
C427 C237 1.329 . S
C436 C308 1.385 . S
C438 C69 1.333 . S
C447 C310 1.332 . S
C449 C67 1.391 . S
C458 C235 1.391 . S
C460 C142 1.330 . S
