# Generated by pormake.
# Topology uoj, (4)-cn, num edge types: 1
# Building blocks:
#     Node 0, Type 0, BuildingBlock: ESEHIV_clean_sbu_0, # of connection points: 4
#     Node 1, Type 0, BuildingBlock: ESEHIV_clean_sbu_0, # of connection points: 4
#     Node 2, Type 0, BuildingBlock: ESEHIV_clean_sbu_0, # of connection points: 4
#     Node 3, Type 0, BuildingBlock: ESEHIV_clean_sbu_0, # of connection points: 4
#     Node 4, Type 0, BuildingBlock: ESEHIV_clean_sbu_0, # of connection points: 4
#     Node 5, Type 0, BuildingBlock: ESEHIV_clean_sbu_0, # of connection points: 4
#     Node 6, Type 0, BuildingBlock: ESEHIV_clean_sbu_0, # of connection points: 4
#     Node 7, Type 0, BuildingBlock: ESEHIV_clean_sbu_0, # of connection points: 4
#     Edge 8, Type (0, 0), BuildingBlock: FUNLAD_clean_linker_1, # of connection points: 2
#     Edge 9, Type (0, 0), BuildingBlock: FUNLAD_clean_linker_1, # of connection points: 2
#     Edge 10, Type (0, 0), BuildingBlock: FUNLAD_clean_linker_1, # of connection points: 2
#     Edge 11, Type (0, 0), BuildingBlock: FUNLAD_clean_linker_1, # of connection points: 2
#     Edge 12, Type (0, 0), BuildingBlock: FUNLAD_clean_linker_1, # of connection points: 2
#     Edge 13, Type (0, 0), BuildingBlock: FUNLAD_clean_linker_1, # of connection points: 2
#     Edge 14, Type (0, 0), BuildingBlock: FUNLAD_clean_linker_1, # of connection points: 2
#     Edge 15, Type (0, 0), BuildingBlock: FUNLAD_clean_linker_1, # of connection points: 2
#     Edge 16, Type (0, 0), BuildingBlock: FUNLAD_clean_linker_1, # of connection points: 2
#     Edge 17, Type (0, 0), BuildingBlock: FUNLAD_clean_linker_1, # of connection points: 2
#     Edge 18, Type (0, 0), BuildingBlock: FUNLAD_clean_linker_1, # of connection points: 2
#     Edge 19, Type (0, 0), BuildingBlock: FUNLAD_clean_linker_1, # of connection points: 2
#     Edge 20, Type (0, 0), BuildingBlock: FUNLAD_clean_linker_1, # of connection points: 2
#     Edge 21, Type (0, 0), BuildingBlock: FUNLAD_clean_linker_1, # of connection points: 2
#     Edge 22, Type (0, 0), BuildingBlock: FUNLAD_clean_linker_1, # of connection points: 2
#     Edge 23, Type (0, 0), BuildingBlock: FUNLAD_clean_linker_1, # of connection points: 2
# Relax obj value: 0.035
# Max RMSD: 0.222
# Mean RMSD: 0.222
data_MOF--net-uoj--node1-ESEHIV_clean_sbu_0--edge1-FUNLAD_clean_linker_1
_symmetry_space_group_name_H-M    P1
_symmetry_Int_Tables_number       1
_symmetry_cell_setting            triclinic
loop_
_symmetry_equiv_pos_as_xyz
'x, y, z'
_cell_length_a     36.313154
_cell_length_b     36.665154
_cell_length_c     46.920466
_cell_angle_alpha  90.345536
_cell_angle_beta   89.905394
_cell_angle_gamma 90.258403
loop_
_atom_site_label
_atom_site_type_symbol
_atom_site_fract_x
_atom_site_fract_y
_atom_site_fract_z
_atom_type_partial_charge
Cu0 Cu 0.04832 0.29673 0.42436 0.0
N1 N 1.0066 0.26695 0.42111 0.0
N2 N 0.95833 0.23132 0.4315 0.0
C3 C 0.98753 0.25012 0.442 0.0
C4 C 0.95922 0.23654 0.40312 0.0
C5 C 0.98887 0.25857 0.39677 0.0
O6 O 0.08198 0.27457 0.45148 0.0
C7 C 0.05285 0.37233 0.43993 0.0
O8 O 0.08874 0.36823 0.43846 0.0
H9 H 0.99503 0.25172 0.46428 0.0
H10 H 0.9969 0.268 0.37586 0.0
N11 N 0.07144 0.29907 0.38866 0.0
N12 N 0.09734 0.31952 0.34847 0.0
C13 C 0.08199 0.32871 0.37374 0.0
C14 C 0.08062 0.27025 0.3723 0.0
C15 C 0.09661 0.28271 0.34752 0.0
C16 C 0.0828 0.28238 0.47793 0.0
O17 O 0.06084 0.30765 0.4881 0.0
H18 H 0.07845 0.35649 0.38112 0.0
H19 H 0.07607 0.24208 0.3781 0.0
O20 O 0.03176 0.34512 0.43556 0.0
H21 H 0.93961 0.22528 0.38805 0.0
H22 H 0.1075 0.26584 0.33053 0.0
Cu23 Cu 0.30499 1.00172 0.59816 0.0
N24 N 0.28725 0.0495 0.59602 0.0
N25 N 0.25725 0.09793 0.57914 0.0
C26 C 0.26934 0.06387 0.57364 0.0
C27 C 0.26814 0.10544 0.60607 0.0
C28 C 0.28656 0.07543 0.61644 0.0
O29 O 0.27219 0.9725 0.57446 0.0
C30 C 0.37957 0.02092 0.59628 0.0
O31 O 0.36864 0.0451 0.61522 0.0
H32 H 0.26442 0.04925 0.55388 0.0
H33 H 0.29797 0.07242 0.63757 0.0
N34 N 0.30383 0.98515 0.6358 0.0
N35 N 0.32134 0.95857 0.67635 0.0
C36 C 0.33019 0.96579 0.64901 0.0
C37 C 0.27731 0.99032 0.65544 0.0
C38 C 0.288 0.97395 0.68051 0.0
C39 C 0.27042 0.9379 0.57335 0.0
O40 O 0.29314 0.91823 0.58861 0.0
H41 H 0.35549 0.95721 0.63879 0.0
H42 H 0.25204 1.00507 0.65177 0.0
O43 O 0.35591 0.9995 0.58511 0.0
H44 H 0.26286 0.13045 0.61768 0.0
H45 H 0.27229 0.9735 0.70011 0.0
Cu46 Cu 1.00312 0.72574 0.43248 0.0
N47 N 0.0469 0.75271 0.43119 0.0
N48 N 0.09772 0.78296 0.44437 0.0
C49 C 0.06402 0.771 0.45247 0.0
C50 C 0.10192 0.77171 0.41719 0.0
C51 C 0.07056 0.75318 0.40909 0.0
O52 O 0.96933 0.74741 0.46009 0.0
C53 C 0.99484 0.65032 0.44771 0.0
O54 O 0.95918 0.65622 0.44775 0.0
H55 H 0.05281 0.77373 0.47376 0.0
H56 H 0.06588 0.73962 0.38887 0.0
N57 N 0.98183 0.72494 0.39606 0.0
N58 N 0.95394 0.70584 0.35613 0.0
C59 C 0.96399 0.69719 0.38293 0.0
C60 C 0.98285 0.7521 0.3769 0.0
C61 C 0.96565 0.74047 0.35227 0.0
C62 C 0.96074 0.78096 0.45839 0.0
O63 O 0.97484 0.80078 0.43781 0.0
H64 H 0.95881 0.67096 0.3926 0.0
H65 H 0.99548 0.77848 0.38055 0.0
O66 O 1.01704 0.6764 0.44269 0.0
H67 H 0.12642 0.77577 0.40439 0.0
H68 H 0.96175 0.75653 0.33326 0.0
Cu69 Cu 0.74278 0.0488 0.60701 0.0
N70 N 0.76172 1.00239 0.59853 0.0
N71 N 0.79311 0.9573 0.57729 0.0
C72 C 0.78242 0.99249 0.57588 0.0
C73 C 0.77866 0.94455 0.60185 0.0
C74 C 0.75948 0.97244 0.6149 0.0
O75 O 0.7744 0.08519 0.58929 0.0
C76 C 0.66804 0.02914 0.60166 0.0
O77 O 0.67873 1.00055 0.61617 0.0
H78 H 0.79012 1.01083 0.55889 0.0
H79 H 0.74541 0.97118 0.63521 0.0
N80 N 0.74456 0.05693 0.64637 0.0
N81 N 0.7319 0.07822 0.69005 0.0
C82 C 0.71961 0.07411 0.66301 0.0
C83 C 0.77337 0.04998 0.66344 0.0
C84 C 0.7657 0.06322 0.69034 0.0
C85 C 0.77541 0.09121 0.56264 0.0
O86 O 0.7529 0.07341 0.54557 0.0
H87 H 0.69386 0.08477 0.65511 0.0
H88 H 0.79869 0.03723 0.65651 0.0
O89 O 0.69171 0.05323 0.59472 0.0
H90 H 0.78209 0.91735 0.61019 0.0
H91 H 0.78387 0.06266 0.7086 0.0
Cu92 Cu 0.49125 0.79997 0.92194 0.0
N93 N 0.53814 0.77896 0.92079 0.0
N94 N 0.58843 0.74738 0.93247 0.0
C95 C 0.55529 0.75986 0.94136 0.0
C96 C 0.5921 0.75899 0.90543 0.0
C97 C 0.56116 0.77849 0.8983 0.0
O98 O 0.4594 0.76983 0.94555 0.0
C99 C 0.51541 0.87254 0.92479 0.0
O100 O 0.53545 0.86213 0.90289 0.0
H101 H 0.54324 0.75455 0.96203 0.0
H102 H 0.55554 0.79103 0.87797 0.0
N103 N 0.47194 0.8022 0.88501 0.0
N104 N 0.44504 0.82332 0.84556 0.0
C105 C 0.45452 0.83054 0.87284 0.0
C106 C 0.47336 0.7761 0.86478 0.0
C107 C 0.4568 0.78899 0.84041 0.0
C108 C 0.45895 0.77342 0.97254 0.0
O109 O 0.47959 0.79856 0.98463 0.0
H110 H 0.44907 0.8561 0.88371 0.0
H111 H 0.48576 0.74959 0.86756 0.0
O112 O 0.49439 0.84949 0.93687 0.0
H113 H 0.61541 0.75336 0.8917 0.0
H114 H 0.45365 0.77403 0.82062 0.0
Cu115 Cu 0.79667 0.55017 0.10243 0.0
N116 N 0.76662 0.50868 0.09866 0.0
N117 N 0.73988 0.45932 0.07932 0.0
C118 C 0.7668 0.48459 0.07683 0.0
C119 C 0.72228 0.46753 0.1039 0.0
C120 C 0.73887 0.49793 0.11576 0.0
O121 O 0.77422 0.59028 0.08151 0.0
C122 C 0.87315 0.55868 0.08876 0.0
O123 O 0.86923 0.59265 0.0973 0.0
H124 H 0.78559 0.48625 0.05893 0.0
H125 H 0.73061 0.51168 0.13515 0.0
N126 N 0.79956 0.56441 0.14089 0.0
N127 N 0.82111 0.5845 0.18289 0.0
C128 C 0.82978 0.57078 0.15695 0.0
C129 C 0.77091 0.57458 0.15728 0.0
C130 C 0.78401 0.58686 0.18317 0.0
C131 C 0.75897 0.58642 0.05726 0.0
O132 O 0.7606 0.55479 0.04407 0.0
H133 H 0.85769 0.56663 0.14955 0.0
H134 H 0.74251 0.57464 0.15038 0.0
O135 O 0.84542 0.5374 0.08839 0.0
H136 H 0.69856 0.45337 0.11244 0.0
H137 H 0.76749 0.59839 0.20014 0.0
Cu138 Cu 0.54684 0.22206 0.93151 0.0
N139 N 0.5005 0.24392 0.9335 0.0
N140 N 0.45348 0.27691 0.95029 0.0
C141 C 0.48866 0.26649 0.95431 0.0
C142 C 0.44271 0.26031 0.92588 0.0
C143 C 0.47185 0.23995 0.91559 0.0
O144 O 0.57772 0.24686 0.95972 0.0
C145 C 0.57002 0.1508 0.94375 0.0
O146 O 0.60286 0.16587 0.94301 0.0
H147 H 0.50541 0.27484 0.97229 0.0
H148 H 0.47207 0.22322 0.89652 0.0
N149 N 0.56586 0.22528 0.89443 0.0
N150 N 0.58827 0.20801 0.85204 0.0
C151 C 0.57346 0.19698 0.87692 0.0
C152 C 0.57554 0.25534 0.87982 0.0
C153 C 0.58959 0.24477 0.85367 0.0
C154 C 0.60953 0.26058 0.95561 0.0
O155 O 0.62586 0.2566 0.9308 0.0
H156 H 0.56872 0.16872 0.88244 0.0
H157 H 0.57293 0.28296 0.88778 0.0
O158 O 0.54172 0.17063 0.94036 0.0
H159 H 0.41586 0.26251 0.91612 0.0
H160 H 0.59961 0.26276 0.83716 0.0
Cu161 Cu 0.22916 0.49364 0.09437 0.0
N162 N 0.26094 0.53383 0.0919 0.0
N163 N 0.29793 0.57696 0.07402 0.0
C164 C 0.27804 0.54655 0.06843 0.0
C165 C 0.29311 0.58363 0.10213 0.0
C166 C 0.27022 0.55704 0.11303 0.0
O167 O 0.24522 0.45674 0.06701 0.0
C168 C 0.15163 0.49076 0.0831 0.0
O169 O 0.15526 0.45513 0.0836 0.0
H170 H 0.27563 0.534 0.04756 0.0
H171 H 0.26062 0.55502 0.1348 0.0
N172 N 0.2305 0.4746 0.13139 0.0
N173 N 0.21369 0.44841 0.1724 0.0
C174 C 0.20297 0.45843 0.14606 0.0
C175 C 0.25965 0.47456 0.14907 0.0
C176 C 0.24942 0.45845 0.17437 0.0
C177 C 0.27872 0.44661 0.06718 0.0
O178 O 0.30133 0.46083 0.08609 0.0
H179 H 0.17556 0.45406 0.1377 0.0
H180 H 0.28657 0.48537 0.14386 0.0
O181 O 0.17976 0.51111 0.08639 0.0
H182 H 0.30479 0.6062 0.11405 0.0
H183 H 0.26722 0.45392 0.19246 0.0
H184 H 0.16543 0.41722 0.18599 0.0
C185 C 0.19135 0.42921 0.19298 0.0
H186 H 0.22743 0.43708 0.22776 0.0
H187 H 0.07194 0.38353 0.29154 0.0
H188 H 0.0451 0.43929 0.27366 0.0
H189 H 0.08022 0.47953 0.24149 0.0
H190 H 0.1422 0.46397 0.22668 0.0
C191 C 0.20159 0.4255 0.2204 0.0
C192 C 0.1804 0.40245 0.24091 0.0
C193 C 0.14467 0.41268 0.25027 0.0
C194 C 0.12497 0.39023 0.26985 0.0
C195 C 0.08867 0.40017 0.27761 0.0
C196 C 0.07282 0.43203 0.26736 0.0
C197 C 0.09255 0.45463 0.24918 0.0
C198 C 0.12806 0.44525 0.2407 0.0
H199 H 0.11858 0.3724 0.33463 0.0
C200 C 0.11307 0.34444 0.32801 0.0
H201 H 0.11612 0.30625 0.29425 0.0
H202 H 0.24806 0.37456 0.22722 0.0
H203 H 0.27577 0.32001 0.24643 0.0
H204 H 0.24283 0.28266 0.28189 0.0
H205 H 0.18189 0.29949 0.29824 0.0
C206 C 0.12139 0.33406 0.30117 0.0
C207 C 0.14159 0.35832 0.28093 0.0
C208 C 0.17749 0.34843 0.27184 0.0
C209 C 0.1968 0.37037 0.25177 0.0
C210 C 0.23234 0.35931 0.24275 0.0
C211 C 0.24857 0.32797 0.25355 0.0
C212 C 0.23001 0.30691 0.27347 0.0
C213 C 0.19494 0.31687 0.2826 0.0
H214 H 0.3695 0.92673 0.68836 0.0
C215 C 0.34371 0.93817 0.69603 0.0
H216 H 0.30781 0.94259 0.73142 0.0
H217 H 0.36237 0.80065 0.79311 0.0
H218 H 0.30297 0.78055 0.77531 0.0
H219 H 0.26738 0.81883 0.74234 0.0
H220 H 0.2909 0.87753 0.72703 0.0
C221 C 0.33383 0.93246 0.72334 0.0
C222 C 0.35623 0.90921 0.74273 0.0
C223 C 0.3422 0.87487 0.75145 0.0
C224 C 0.36297 0.85256 0.77019 0.0
C225 C 0.34804 0.81852 0.77864 0.0
C226 C 0.3139 0.80666 0.76864 0.0
C227 C 0.29384 0.82824 0.75011 0.0
C228 C 0.30766 0.86194 0.74154 0.0
H229 H 0.41589 0.87358 0.8354 0.0
C230 C 0.42585 0.84785 0.82677 0.0
H231 H 0.42876 0.81433 0.79 0.0
H232 H 0.39 0.9747 0.73222 0.0
H233 H 0.45012 0.99416 0.74899 0.0
H234 H 0.48743 0.95426 0.77958 0.0
H235 H 0.46472 0.89481 0.7938 0.0
C236 C 0.4198 0.84008 0.79905 0.0
C237 C 0.39782 0.86453 0.78028 0.0
C238 C 0.41196 0.89886 0.7715 0.0
C239 C 0.39093 0.92141 0.75304 0.0
C240 C 0.40518 0.95605 0.74549 0.0
C241 C 0.43961 0.96764 0.75508 0.0
C242 C 0.46058 0.94521 0.77236 0.0
C243 C 0.44711 0.91119 0.78049 0.0
H244 H 0.91988 0.6586 0.34501 0.0
C245 C 0.93362 0.68269 0.33666 0.0
H246 H 0.94458 0.71393 0.29994 0.0
H247 H 0.88299 0.55794 0.24332 0.0
H248 H 0.93683 0.52971 0.26412 0.0
H249 H 0.97828 0.5648 0.29571 0.0
H250 H 0.96594 0.62821 0.30696 0.0
C251 C 0.93112 0.68998 0.30862 0.0
C252 C 0.90699 0.66834 0.28897 0.0
C253 C 0.91532 0.63159 0.28182 0.0
C254 C 0.89213 0.61168 0.26269 0.0
C255 C 0.90024 0.57463 0.25695 0.0
C256 C 0.93098 0.55803 0.26886 0.0
C257 C 0.95427 0.57777 0.28671 0.0
C258 C 0.94672 0.61412 0.29313 0.0
H259 H 0.87554 0.60199 0.19751 0.0
C260 C 0.8469 0.59843 0.20375 0.0
H261 H 0.80786 0.60547 0.2367 0.0
H262 H 0.88271 0.73804 0.29831 0.0
H263 H 0.8301 0.76679 0.27629 0.0
H264 H 0.79146 0.73315 0.24177 0.0
H265 H 0.80507 0.67048 0.22918 0.0
C266 C 0.83635 0.60858 0.23017 0.0
C267 C 0.86135 0.6289 0.25 0.0
C268 C 0.85331 0.66574 0.25695 0.0
C269 C 0.87601 0.68538 0.27647 0.0
C270 C 0.86684 0.72196 0.28328 0.0
C271 C 0.83661 0.73882 0.27085 0.0
C272 C 0.81483 0.71986 0.25146 0.0
C273 C 0.82293 0.6838 0.2445 0.0
H274 H 0.58915 0.15664 0.82831 0.0
C275 C 0.59982 0.18439 0.82902 0.0
H276 H 0.63579 0.22244 0.80997 0.0
H277 H 0.68926 0.06025 0.75785 0.0
H278 H 0.70005 0.04252 0.80679 0.0
H279 H 0.68469 0.08407 0.84656 0.0
H280 H 0.65734 0.14295 0.83767 0.0
C281 C 0.62482 0.19486 0.80943 0.0
C282 C 0.63712 0.17037 0.78561 0.0
C283 C 0.65544 0.13698 0.79118 0.0
C284 C 0.66698 0.11417 0.76815 0.0
C285 C 0.68213 0.07961 0.77441 0.0
C286 C 0.68815 0.06892 0.80244 0.0
C287 C 0.67931 0.09222 0.82482 0.0
C288 C 0.66324 0.12588 0.8194 0.0
H289 H 0.73312 0.10642 0.73103 0.0
C290 C 0.71539 0.09764 0.71361 0.0
H291 H 0.66091 0.09587 0.69813 0.0
H292 H 0.60122 0.23132 0.76715 0.0
H293 H 0.59313 0.25021 0.71818 0.0
H294 H 0.61745 0.21307 0.67847 0.0
H295 H 0.64963 0.15661 0.68744 0.0
C296 C 0.67904 0.10449 0.71528 0.0
C297 C 0.66308 0.12606 0.73954 0.0
C298 C 0.64471 0.15935 0.73398 0.0
C299 C 0.63144 0.18127 0.75697 0.0
C300 C 0.61254 0.21396 0.75063 0.0
C301 C 0.60758 0.22511 0.72259 0.0
C302 C 0.62122 0.20417 0.70023 0.0
C303 C 0.63961 0.17172 0.70571 0.0
H304 H 0.23082 0.10943 0.53845 0.0
C305 C 0.23591 0.11991 0.55982 0.0
H306 H 0.22441 0.16273 0.58887 0.0
H307 H 0.1884 0.2428 0.46542 0.0
H308 H 0.2541 0.23907 0.45676 0.0
H309 H 0.29456 0.20578 0.48969 0.0
H310 H 0.26955 0.17591 0.53146 0.0
C311 C 0.22122 0.15223 0.56737 0.0
C312 C 0.19709 0.17297 0.54748 0.0
C313 C 0.21213 0.1905 0.5232 0.0
C314 C 0.18878 0.21 0.50431 0.0
C315 C 0.20471 0.22741 0.48037 0.0
C316 C 0.24244 0.22561 0.47518 0.0
C317 C 0.26521 0.20684 0.49371 0.0
C318 C 0.25044 0.18961 0.51754 0.0
H319 H 0.10905 0.27201 0.51955 0.0
C320 C 0.10736 0.26253 0.49759 0.0
H321 H 0.12514 0.22323 0.4676 0.0
H322 H 0.15946 0.14321 0.59227 0.0
H323 H 0.09358 0.14565 0.60047 0.0
H324 H 0.05274 0.17716 0.56675 0.0
H325 H 0.07749 0.20677 0.5249 0.0
C326 C 0.1262 0.23259 0.4896 0.0
C327 C 0.15039 0.21229 0.50979 0.0
C328 C 0.13528 0.19435 0.53393 0.0
C329 C 0.15875 0.17527 0.55301 0.0
C330 C 0.14296 0.15799 0.57706 0.0
C331 C 0.10515 0.15907 0.58199 0.0
C332 C 0.08217 0.17687 0.56304 0.0
C333 C 0.09685 0.19412 0.53919 0.0
H334 H 0.22155 0.93854 0.5456 0.0
C335 C 0.24158 0.92069 0.55551 0.0
H336 H 0.25836 0.86626 0.56137 0.0
H337 H 0.10754 0.78955 0.53291 0.0
H338 H 0.11602 0.77415 0.58257 0.0
H339 H 0.16621 0.80201 0.61069 0.0
H340 H 0.20855 0.8451 0.58921 0.0
C341 C 0.23909 0.88449 0.55103 0.0
C342 C 0.20844 0.86815 0.53379 0.0
C343 C 0.18343 0.84342 0.54677 0.0
C344 C 0.15387 0.82798 0.5307 0.0
C345 C 0.13004 0.80263 0.54413 0.0
C346 C 0.13462 0.79345 0.57266 0.0
C347 C 0.16291 0.8091 0.58848 0.0
C348 C 0.18709 0.83377 0.57582 0.0
H349 H 0.1543 0.79878 0.45367 0.0
C350 C 0.12598 0.80051 0.46113 0.0
H351 H 0.09052 0.82226 0.49247 0.0
H352 H 0.25441 0.90971 0.50055 0.0
H353 H 0.24322 0.92893 0.45205 0.0
H354 H 0.18728 0.90908 0.42645 0.0
H355 H 0.14294 0.86884 0.44888 0.0
C356 C 0.11863 0.82015 0.48476 0.0
C357 C 0.1488 0.83779 0.50176 0.0
C358 C 0.173 0.86364 0.4891 0.0
C359 C 0.20373 0.87749 0.50467 0.0
C360 C 0.22937 0.90026 0.49045 0.0
C361 C 0.22348 0.91124 0.46247 0.0
C362 C 0.19211 0.89989 0.448 0.0
C363 C 0.16706 0.87644 0.46105 0.0
H364 H 0.82695 0.95423 0.53884 0.0
C365 C 0.81633 0.93879 0.55681 0.0
H366 H 0.81599 0.88744 0.57713 0.0
H367 H 0.87065 0.84272 0.44608 0.0
H368 H 0.81007 0.86205 0.43082 0.0
H369 H 0.76706 0.89105 0.46469 0.0
H370 H 0.78443 0.90118 0.51394 0.0
C371 C 0.82538 0.9033 0.55908 0.0
C372 C 0.85083 0.88504 0.53841 0.0
C373 C 0.84004 0.87885 0.50971 0.0
C374 C 0.86467 0.86152 0.49025 0.0
C375 C 0.85316 0.85583 0.46173 0.0
C376 C 0.81839 0.86667 0.45269 0.0
C377 C 0.79419 0.88303 0.47176 0.0
C378 C 0.80465 0.88894 0.49996 0.0
H379 H 0.92454 0.78028 0.49646 0.0
C380 C 0.93542 0.79745 0.47959 0.0
H381 H 0.93567 0.84997 0.46134 0.0
H382 H 0.87994 0.89181 0.59195 0.0
H383 H 0.94039 0.87221 0.60724 0.0
H384 H 0.98328 0.84295 0.57341 0.0
H385 H 0.96592 0.83285 0.52418 0.0
C386 C 0.92583 0.83289 0.47862 0.0
C387 C 0.89978 0.84968 0.49956 0.0
C388 C 0.91044 0.85557 0.52832 0.0
C389 C 0.88585 0.87296 0.54777 0.0
C390 C 0.89737 0.87863 0.5763 0.0
C391 C 0.93207 0.86762 0.58536 0.0
C392 C 0.9562 0.85112 0.56632 0.0
C393 C 0.94576 0.84527 0.53811 0.0
H394 H 0.82215 0.12976 0.56624 0.0
C395 C 0.80379 0.11625 0.5512 0.0
H396 H 0.79158 0.1069 0.50781 0.0
H397 H 0.89399 0.25763 0.50006 0.0
H398 H 0.84462 0.28755 0.52591 0.0
H399 H 0.79234 0.25211 0.54502 0.0
H400 H 0.78918 0.18655 0.53857 0.0
C401 C 0.80872 0.12146 0.5231 0.0
C402 C 0.84027 0.1434 0.51187 0.0
C403 C 0.84157 0.18183 0.51567 0.0
C404 C 0.87149 0.20239 0.50424 0.0
C405 C 0.87197 0.2407 0.50827 0.0
C406 C 0.84377 0.25824 0.52302 0.0
C407 C 0.81436 0.23828 0.53382 0.0
C408 C 0.81302 0.20057 0.53012 0.0
H409 H 0.91065 0.19515 0.43337 0.0
C410 C 0.93105 0.20964 0.44614 0.0
H411 H 0.94826 0.2219 0.4882 0.0
H412 H 0.847 0.07016 0.50144 0.0
H413 H 0.89683 0.04026 0.47621 0.0
H414 H 0.94899 0.07581 0.45701 0.0
H415 H 0.95153 0.14151 0.46281 0.0
C416 C 0.92938 0.20672 0.47468 0.0
C417 C 0.89968 0.18467 0.48851 0.0
C418 C 0.89883 0.14616 0.4853 0.0
C419 C 0.86897 0.12559 0.49674 0.0
C420 C 0.86886 0.08719 0.4931 0.0
C421 C 0.89738 0.06962 0.47874 0.0
C422 C 0.92672 0.08964 0.46791 0.0
C423 C 0.92767 0.12741 0.47119 0.0
H424 H 0.31881 0.5885 0.03131 0.0
C425 C 0.31868 0.59773 0.05338 0.0
H426 H 0.33685 0.63881 0.08197 0.0
H427 H 0.45763 0.66377 0.97817 0.0
H428 H 0.48066 0.60374 0.99 0.0
H429 H 0.44793 0.56491 0.02462 0.0
H430 H 0.39178 0.58565 0.0474 0.0
C431 C 0.33745 0.62826 0.06035 0.0
C432 C 0.35691 0.65077 0.03856 0.0
C433 C 0.38982 0.6382 0.02549 0.0
C434 C 0.40906 0.66085 1.00583 0.0
C435 C 0.44193 0.64772 0.99322 0.0
C436 C 0.45552 0.61335 0.99988 0.0
C437 C 0.43705 0.59146 0.01933 0.0
C438 C 0.40469 0.60364 0.03214 0.0
H439 H 0.4349 0.75549 1.01334 0.0
C440 C 0.43595 0.74954 0.99063 0.0
H441 H 0.41917 0.71324 0.95791 0.0
H442 H 0.29423 0.6828 0.05909 0.0
H443 H 0.27105 0.74264 0.04693 0.0
H444 H 0.30417 0.78161 1.01262 0.0
H445 H 0.36076 0.76105 0.99036 0.0
C446 C 0.41724 0.72061 0.98033 0.0
C447 C 0.3958 0.69627 0.99967 0.0
C448 C 0.36255 0.70854 1.01232 0.0
C449 C 0.34325 0.68588 0.0319 0.0
C450 C 0.31013 0.69891 0.04421 0.0
C451 C 0.29643 0.73317 0.03735 0.0
C452 C 0.31509 0.75512 0.01804 0.0
C453 C 0.34769 0.74306 1.00554 0.0
H454 H 0.73521 0.64196 0.05737 0.0
C455 C 0.73674 0.61652 0.04542 0.0
H456 H 0.71697 0.58655 1.01006 0.0
H457 H 0.56804 0.66735 0.99133 0.0
H458 H 0.54697 0.60991 1.0109 0.0
H459 H 0.59098 0.56616 0.03119 0.0
H460 H 0.6564 0.57952 0.03199 0.0
C461 C 0.71682 0.61247 0.0214 0.0
C462 C 0.69038 0.64078 1.0114 0.0
C463 C 0.65207 0.63286 1.01144 0.0
C464 C 0.62658 0.65837 1.00011 0.0
C465 C 0.58861 0.64925 0.99995 0.0
C466 C 0.57609 0.61631 1.01108 0.0
C467 C 0.60088 0.59167 0.02248 0.0
C468 C 0.63841 0.59966 0.02271 0.0
H469 H 0.63719 0.71313 0.93473 0.0
C470 C 0.61461 0.72464 0.94705 0.0
H471 H 0.59018 0.72803 0.98789 0.0
H472 H 0.7619 0.66427 1.00669 0.0
H473 H 0.78258 0.72333 0.99 0.0
H474 H 0.73799 0.76937 0.97393 0.0
H475 H 0.67247 0.75631 0.9739 0.0
C476 C 0.6126 0.71731 0.97509 0.0
C477 C 0.63932 0.69196 0.98885 0.0
C478 C 0.67746 0.70066 0.99009 0.0
C479 C 0.70308 0.67473 1.00073 0.0
C480 C 0.74111 0.68336 0.99994 0.0
C481 C 0.7534 0.71713 0.99025 0.0
C482 C 0.72831 0.743 0.98111 0.0
C483 C 0.69078 0.73503 0.981 0.0
H484 H 0.7471 0.43076 0.03876 0.0
C485 C 0.73083 0.43189 0.05822 0.0
H486 H 0.68611 0.40833 0.08062 0.0
H487 H 0.64173 0.36271 0.94843 0.0
H488 H 0.63357 0.42751 0.94089 0.0
H489 H 0.65107 0.47219 0.97803 0.0
H490 H 0.67709 0.4524 0.02278 0.0
C491 C 0.70219 0.40873 0.06114 0.0
C492 C 0.69202 0.38197 0.03834 0.0
C493 C 0.67655 0.39405 1.01229 0.0
C494 C 0.66584 0.36822 0.99104 0.0
C495 C 0.65039 0.38107 0.96529 0.0
C496 C 0.64545 0.41822 0.96069 0.0
C497 C 0.65535 0.44337 0.98158 0.0
C498 C 0.67053 0.4316 1.00715 0.0
H499 H 0.6119 0.28521 0.99863 0.0
C500 C 0.62626 0.28333 0.97832 0.0
H501 H 0.67044 0.30334 0.95352 0.0
H502 H 0.72091 0.34965 0.08562 0.0
H503 H 0.7289 0.28476 0.09318 0.0
H504 H 0.71065 0.24008 0.05625 0.0
H505 H 0.68415 0.25998 1.01157 0.0
C506 C 0.65678 0.30353 0.97414 0.0
C507 C 0.66977 0.33031 0.99607 0.0
C508 C 0.68549 0.31826 0.02199 0.0
C509 C 0.6964 0.34409 0.04319 0.0
C510 C 0.71202 0.33125 0.06886 0.0
C511 C 0.71686 0.29407 0.07344 0.0
C512 C 0.70656 0.26891 0.05266 0.0
C513 C 0.69117 0.2807 0.02716 0.0
H514 H 0.44722 0.3126 0.9873 0.0
C515 C 0.43296 0.30058 0.96914 0.0
H516 H 0.38206 0.29701 0.94737 0.0
H517 H 0.33701 0.35582 0.07803 0.0
H518 H 0.3571 0.29641 0.09412 0.0
H519 H 0.38517 0.25253 0.06058 0.0
H520 H 0.39366 0.26789 1.01083 0.0
C521 C 0.39694 0.30789 0.96556 0.0
C522 C 0.37686 0.33287 0.98548 0.0
C523 C 0.37132 0.32314 0.01442 0.0
C524 C 0.35446 0.3482 0.03367 0.0
C525 C 0.34974 0.33791 0.06251 0.0
C526 C 0.361 0.30383 0.07202 0.0
C527 C 0.37685 0.27914 0.05314 0.0
C528 C 0.38185 0.28845 0.02465 0.0
H529 H 0.27293 0.40854 0.03052 0.0
C530 C 0.29228 0.41987 0.04588 0.0
H531 H 0.34717 0.4203 0.06069 0.0
H532 H 0.3807 0.3591 0.93108 0.0
H533 H 0.35937 0.41795 0.91478 0.0
H534 H 0.33069 0.46158 0.9482 0.0
H535 H 0.32293 0.44659 0.99806 0.0
C536 C 0.3279 0.40985 0.0449 0.0
C537 C 0.34232 0.38265 0.02392 0.0
C538 C 0.34661 0.39186 0.99475 0.0
C539 C 0.36362 0.36683 0.97551 0.0
C540 C 0.36791 0.37695 0.9466 0.0
C541 C 0.35587 0.41071 0.93696 0.0
C542 C 0.3397 0.43526 0.95577 0.0
C543 C 0.33523 0.42619 0.98436 0.0
H544 H 0.03958 0.61022 0.45179 0.0
C545 C 1.00981 0.6132 0.45107 0.0
H546 H 0.95879 0.58547 0.44888 0.0
H547 H 0.0331 0.44517 0.39385 0.0
H548 H 1.0018 0.47045 0.35297 0.0
H549 H 0.97142 0.53039 0.35601 0.0
H550 H 0.97235 0.56549 0.39996 0.0
C551 C 0.98847 0.58316 0.45111 0.0
C552 C 1.00512 0.54605 0.45011 0.0
C553 C 1.00346 0.52537 0.42449 0.0
C554 C 1.02054 0.49054 0.42286 0.0
C555 C 1.01979 0.47129 0.39658 0.0
C556 C 1.0021 0.4856 0.37285 0.0
C557 C 0.98504 0.51936 0.37455 0.0
C558 C 0.98572 0.53918 0.39996 0.0
H559 H 1.00641 0.41058 0.44424 0.0
C560 C 0.03629 0.40874 0.44399 0.0
H561 H 0.08635 0.43832 0.44583 0.0
H562 H 1.01139 0.57741 0.50296 0.0
H563 H 0.04309 0.55232 0.54383 0.0
H564 H 0.07312 0.4922 0.54089 0.0
H565 H 0.07153 0.45669 0.49707 0.0
C566 C 0.05647 0.43951 0.44553 0.0
C567 C 0.03863 0.47606 0.44707 0.0
C568 C 0.04025 0.49673 0.47267 0.0
C569 C 0.02328 0.53163 0.47427 0.0
C570 C 0.02447 0.55115 0.50038 0.0
C571 C 0.0424 0.53697 0.52406 0.0
C572 C 0.05928 0.5031 0.52241 0.0
C573 C 0.05822 0.48304 0.49711 0.0
H574 H 0.61986 0.0615 0.58804 0.0
C575 C 0.62843 0.03508 0.59599 0.0
H576 H 0.61145 0.98337 0.61051 0.0
H577 H 0.45427 0.02263 0.65425 0.0
H578 H 0.48633 1.00971 0.69824 0.0
H579 H 0.55361 1.00089 0.69865 0.0
H580 H 0.58915 1.00449 0.65505 0.0
C581 C 0.60289 1.00948 0.60196 0.0
C582 C 0.56251 0.01709 0.60134 0.0
C583 C 0.54214 1.01562 0.62717 0.0
C584 C 0.50346 0.02168 0.62706 0.0
C585 C 0.48379 0.01908 0.65311 0.0
C586 C 0.50183 1.01154 0.67856 0.0
C587 C 0.53968 1.00649 0.67878 0.0
C588 C 0.55973 1.0085 0.65351 0.0
H589 H 0.42791 0.99255 0.57781 0.0
C590 C 0.41933 1.01596 0.59045 0.0
H591 H 0.43633 0.06104 0.61534 0.0
H592 H 0.5921 0.0179 0.5476 0.0
H593 H 0.56035 0.03292 0.50383 0.0
H594 H 0.49424 0.04808 0.50421 0.0
H595 H 0.45929 0.04759 0.5483 0.0
C596 C 0.4449 0.03824 0.60202 0.0
C597 C 0.48511 0.0299 0.60121 0.0
C598 C 0.50545 0.03161 0.57539 0.0
C599 C 0.54403 0.02445 0.57537 0.0
C600 C 0.56317 0.02448 0.54906 0.0
C601 C 0.54521 0.03284 0.52373 0.0
C602 C 0.50796 0.04126 0.52393 0.0
C603 C 0.48817 0.04071 0.54938 0.0
H604 H 0.59216 0.095 0.9459 0.0
C605 C 0.56684 0.11065 0.94494 0.0
H606 H 0.50906 0.10835 0.94044 0.0
H607 H 0.50765 0.95746 0.87538 0.0
H608 H 0.48716 0.99898 0.83874 0.0
H609 H 0.48774 0.06548 0.84702 0.0
H610 H 0.50847 0.09084 0.89203 0.0
C611 C 0.53443 0.093 0.94257 0.0
C612 C 0.53288 0.05263 0.93834 0.0
C613 C 0.5208 0.03825 0.9118 0.0
C614 C 0.52119 0.99993 0.90681 0.0
C615 C 0.50859 0.98635 0.88018 0.0
C616 C 0.49663 1.00987 0.85896 0.0
C617 C 0.49689 0.0473 0.86363 0.0
C618 C 0.50882 0.06148 0.88965 0.0
H619 H 0.49628 0.91935 0.95083 0.0
C620 C 0.51529 0.91113 0.93409 0.0
H621 H 0.55515 0.92837 0.90426 0.0
H622 H 0.55279 0.07061 0.99289 0.0
H623 H 0.57483 0.02923 0.02917 0.0
H624 H 0.57971 0.96325 0.01937 0.0
H625 H 0.56196 0.93816 0.97348 0.0
C626 C 0.53698 0.93627 0.92164 0.0
C627 C 0.53401 0.97599 0.92822 0.0
C628 C 0.54558 0.9903 0.95493 0.0
C629 C 0.5443 0.02859 0.96018 0.0
C630 C 0.55451 0.04197 0.98742 0.0
C631 C 0.567 0.01849 1.0085 0.0
C632 C 0.56963 0.98132 1.00301 0.0
C633 C 0.55914 0.96725 0.97659 0.0
H634 H 0.11369 0.53732 0.07897 0.0
C635 C 0.11495 0.5078 0.08078 0.0
H636 H 0.08409 0.45928 0.08597 0.0
H637 H 0.95205 0.54892 0.142 0.0
H638 H 0.98238 0.52766 0.18479 0.0
H639 H 0.04256 0.49685 0.18207 0.0
H640 H 0.0728 0.4871 0.13651 0.0
C641 C 0.08346 0.48859 0.08279 0.0
C642 C 0.04712 0.50728 0.08416 0.0
C643 C 0.02976 0.51273 0.11093 0.0
C644 C 0.99513 0.53065 0.1125 0.0
C645 C 0.97845 0.53567 0.13956 0.0
C646 C 0.99553 0.52356 0.1643 0.0
C647 C 0.0294 0.5062 0.16277 0.0
C648 C 0.04645 0.50076 0.13647 0.0
H649 H 0.91149 0.51591 0.07406 0.0
C650 C 0.90997 0.54356 0.08249 0.0
H651 H 0.94022 0.5881 0.09922 0.0
H652 H 0.07229 0.5001 0.02949 0.0
H653 H 0.04231 0.52194 0.98666 0.0
H654 H 0.9828 0.55398 0.98944 0.0
H655 H 0.95274 0.56423 0.03504 0.0
C656 C 0.94126 0.5613 0.08924 0.0
C657 C 0.9777 0.54283 0.08727 0.0
C658 C 0.99508 0.53742 0.0605 0.0
C659 C 0.02975 0.51948 0.05893 0.0
C660 C 0.04623 0.51398 0.0319 0.0
C661 C 0.02928 0.52631 1.00716 0.0
C662 C 0.99574 0.54431 1.00872 0.0
C663 C 0.97873 0.54991 0.03502 0.0
loop_
_geom_bond_atom_site_label_1
_geom_bond_atom_site_label_2
_geom_bond_distance
_geom_bond_site_symmetry_2
_ccdc_geom_bond_type
Cu0 N1 1.999 . S
Cu0 O6 1.974 . S
Cu0 N11 1.985 . S
Cu0 O20 1.959 . S
N1 Cu0 1.999 . S
N1 C3 1.263 . S
N1 C5 1.389 1_455 S
N2 C3 1.358 1_655 S
N2 C4 1.400 . S
C3 N1 1.263 . S
C3 N2 1.358 1_455 S
C3 H9 0.930 . S
C4 N2 1.400 . S
C4 C5 1.351 . S
C4 H21 0.930 . S
C5 N1 1.389 1_655 S
C5 C4 1.351 . S
C5 H10 0.930 . S
O6 Cu0 1.974 . S
O6 C16 1.282 . S
C7 O8 1.261 . S
C7 O20 1.251 . S
O8 C7 1.261 . S
H9 C3 0.930 . S
H10 C5 0.930 . S
N11 Cu0 1.985 . S
N11 C13 1.335 . S
N11 C14 1.390 . S
N12 C13 1.345 . S
N12 C15 1.336 . S
C13 N11 1.335 . S
C13 N12 1.345 . S
C13 H18 0.930 . S
C14 N11 1.390 . S
C14 C15 1.346 . S
C14 H19 0.930 . S
C15 N12 1.336 . S
C15 C14 1.346 . S
C15 H22 0.929 . S
C16 O6 1.282 . S
C16 O17 1.216 . S
O17 C16 1.216 . S
H18 C13 0.930 . S
H19 C14 0.930 . S
O20 Cu0 1.959 . S
O20 C7 1.251 . S
H21 C4 0.930 . S
H22 C15 0.929 . S
Cu23 N24 1.999 . S
Cu23 O29 1.974 . S
Cu23 N34 1.985 . S
Cu23 O43 1.959 . S
N24 Cu23 1.999 . S
N24 C26 1.263 . S
N24 C28 1.389 1_565 S
N25 C26 1.358 1_545 S
N25 C27 1.400 . S
C26 N24 1.263 . S
C26 N25 1.358 1_565 S
C26 H32 0.930 . S
C27 N25 1.400 . S
C27 C28 1.351 . S
C27 H44 0.930 . S
C28 N24 1.389 1_545 S
C28 C27 1.351 . S
C28 H33 0.930 . S
O29 Cu23 1.974 . S
O29 C39 1.282 . S
C30 O31 1.261 . S
C30 O43 1.251 . S
O31 C30 1.261 . S
H32 C26 0.930 . S
H33 C28 0.930 . S
N34 Cu23 1.985 . S
N34 C36 1.335 . S
N34 C37 1.390 . S
N35 C36 1.345 . S
N35 C38 1.336 . S
C36 N34 1.335 . S
C36 N35 1.345 . S
C36 H41 0.930 . S
C37 N34 1.390 . S
C37 C38 1.346 . S
C37 H42 0.930 . S
C38 N35 1.336 . S
C38 C37 1.346 . S
C38 H45 0.929 . S
C39 O29 1.282 . S
C39 O40 1.216 . S
O40 C39 1.216 . S
H41 C36 0.930 . S
H42 C37 0.930 . S
O43 Cu23 1.959 . S
O43 C30 1.251 . S
H44 C27 0.930 . S
H45 C38 0.929 . S
Cu46 N47 1.999 . S
Cu46 O52 1.974 . S
Cu46 N57 1.985 . S
Cu46 O66 1.959 . S
N47 Cu46 1.999 . S
N47 C49 1.263 . S
N47 C51 1.389 1_655 S
N48 C49 1.358 1_455 S
N48 C50 1.400 . S
C49 N47 1.263 . S
C49 N48 1.358 1_655 S
C49 H55 0.930 . S
C50 N48 1.400 . S
C50 C51 1.351 . S
C50 H67 0.930 . S
C51 N47 1.389 1_455 S
C51 C50 1.351 . S
C51 H56 0.930 . S
O52 Cu46 1.974 . S
O52 C62 1.282 . S
C53 O54 1.261 . S
C53 O66 1.251 . S
O54 C53 1.261 . S
H55 C49 0.930 . S
H56 C51 0.930 . S
N57 Cu46 1.985 . S
N57 C59 1.335 . S
N57 C60 1.390 . S
N58 C59 1.345 . S
N58 C61 1.336 . S
C59 N57 1.335 . S
C59 N58 1.345 . S
C59 H64 0.930 . S
C60 N57 1.390 . S
C60 C61 1.346 . S
C60 H65 0.930 . S
C61 N58 1.336 . S
C61 C60 1.346 . S
C61 H68 0.929 . S
C62 O52 1.282 . S
C62 O63 1.216 . S
O63 C62 1.216 . S
H64 C59 0.930 . S
H65 C60 0.930 . S
O66 Cu46 1.959 . S
O66 C53 1.251 . S
H67 C50 0.930 . S
H68 C61 0.929 . S
Cu69 N70 1.999 . S
Cu69 O75 1.974 . S
Cu69 N80 1.985 . S
Cu69 O89 1.959 . S
N70 Cu69 1.999 . S
N70 C72 1.263 . S
N70 C74 1.389 1_545 S
N71 C72 1.358 1_565 S
N71 C73 1.400 . S
C72 N70 1.263 . S
C72 N71 1.358 1_545 S
C72 H78 0.930 . S
C73 N71 1.400 . S
C73 C74 1.351 . S
C73 H90 0.930 . S
C74 N70 1.389 1_565 S
C74 C73 1.351 . S
C74 H79 0.930 . S
O75 Cu69 1.974 . S
O75 C85 1.282 . S
C76 O77 1.261 . S
C76 O89 1.251 . S
O77 C76 1.261 . S
H78 C72 0.930 . S
H79 C74 0.930 . S
N80 Cu69 1.985 . S
N80 C82 1.335 . S
N80 C83 1.390 . S
N81 C82 1.345 . S
N81 C84 1.336 . S
C82 N80 1.335 . S
C82 N81 1.345 . S
C82 H87 0.930 . S
C83 N80 1.390 . S
C83 C84 1.346 . S
C83 H88 0.930 . S
C84 N81 1.336 . S
C84 C83 1.346 . S
C84 H91 0.929 . S
C85 O75 1.282 . S
C85 O86 1.216 . S
O86 C85 1.216 . S
H87 C82 0.930 . S
H88 C83 0.930 . S
O89 Cu69 1.959 . S
O89 C76 1.251 . S
H90 C73 0.930 . S
H91 C84 0.929 . S
Cu92 N93 1.999 . S
Cu92 O98 1.974 . S
Cu92 N103 1.985 . S
Cu92 O112 1.959 . S
N93 Cu92 1.999 . S
N93 C95 1.263 . S
N93 C97 1.389 . S
N94 C95 1.358 . S
N94 C96 1.400 . S
C95 N93 1.263 . S
C95 N94 1.358 . S
C95 H101 0.930 . S
C96 N94 1.400 . S
C96 C97 1.351 . S
C96 H113 0.930 . S
C97 N93 1.389 . S
C97 C96 1.351 . S
C97 H102 0.930 . S
O98 Cu92 1.974 . S
O98 C108 1.282 . S
C99 O100 1.261 . S
C99 O112 1.251 . S
O100 C99 1.261 . S
H101 C95 0.930 . S
H102 C97 0.930 . S
N103 Cu92 1.985 . S
N103 C105 1.335 . S
N103 C106 1.390 . S
N104 C105 1.345 . S
N104 C107 1.336 . S
C105 N103 1.335 . S
C105 N104 1.345 . S
C105 H110 0.930 . S
C106 N103 1.390 . S
C106 C107 1.346 . S
C106 H111 0.930 . S
C107 N104 1.336 . S
C107 C106 1.346 . S
C107 H114 0.929 . S
C108 O98 1.282 . S
C108 O109 1.216 . S
O109 C108 1.216 . S
H110 C105 0.930 . S
H111 C106 0.930 . S
O112 Cu92 1.959 . S
O112 C99 1.251 . S
H113 C96 0.930 . S
H114 C107 0.929 . S
Cu115 N116 1.999 . S
Cu115 O121 1.974 . S
Cu115 N126 1.985 . S
Cu115 O135 1.959 . S
N116 Cu115 1.999 . S
N116 C118 1.263 . S
N116 C120 1.389 . S
N117 C118 1.358 . S
N117 C119 1.400 . S
C118 N116 1.263 . S
C118 N117 1.358 . S
C118 H124 0.930 . S
C119 N117 1.400 . S
C119 C120 1.351 . S
C119 H136 0.930 . S
C120 N116 1.389 . S
C120 C119 1.351 . S
C120 H125 0.930 . S
O121 Cu115 1.974 . S
O121 C131 1.282 . S
C122 O123 1.261 . S
C122 O135 1.251 . S
O123 C122 1.261 . S
H124 C118 0.930 . S
H125 C120 0.930 . S
N126 Cu115 1.985 . S
N126 C128 1.335 . S
N126 C129 1.390 . S
N127 C128 1.345 . S
N127 C130 1.336 . S
C128 N126 1.335 . S
C128 N127 1.345 . S
C128 H133 0.930 . S
C129 N126 1.390 . S
C129 C130 1.346 . S
C129 H134 0.930 . S
C130 N127 1.336 . S
C130 C129 1.346 . S
C130 H137 0.929 . S
C131 O121 1.282 . S
C131 O132 1.216 . S
O132 C131 1.216 . S
H133 C128 0.930 . S
H134 C129 0.930 . S
O135 Cu115 1.959 . S
O135 C122 1.251 . S
H136 C119 0.930 . S
H137 C130 0.929 . S
Cu138 N139 1.999 . S
Cu138 O144 1.974 . S
Cu138 N149 1.985 . S
Cu138 O158 1.959 . S
N139 Cu138 1.999 . S
N139 C141 1.263 . S
N139 C143 1.389 . S
N140 C141 1.358 . S
N140 C142 1.400 . S
C141 N139 1.263 . S
C141 N140 1.358 . S
C141 H147 0.930 . S
C142 N140 1.400 . S
C142 C143 1.351 . S
C142 H159 0.930 . S
C143 N139 1.389 . S
C143 C142 1.351 . S
C143 H148 0.930 . S
O144 Cu138 1.974 . S
O144 C154 1.282 . S
C145 O146 1.261 . S
C145 O158 1.251 . S
O146 C145 1.261 . S
H147 C141 0.930 . S
H148 C143 0.930 . S
N149 Cu138 1.985 . S
N149 C151 1.335 . S
N149 C152 1.390 . S
N150 C151 1.345 . S
N150 C153 1.336 . S
C151 N149 1.335 . S
C151 N150 1.345 . S
C151 H156 0.930 . S
C152 N149 1.390 . S
C152 C153 1.346 . S
C152 H157 0.930 . S
C153 N150 1.336 . S
C153 C152 1.346 . S
C153 H160 0.929 . S
C154 O144 1.282 . S
C154 O155 1.216 . S
O155 C154 1.216 . S
H156 C151 0.930 . S
H157 C152 0.930 . S
O158 Cu138 1.959 . S
O158 C145 1.251 . S
H159 C142 0.930 . S
H160 C153 0.929 . S
Cu161 N162 1.999 . S
Cu161 O167 1.974 . S
Cu161 N172 1.985 . S
Cu161 O181 1.959 . S
N162 Cu161 1.999 . S
N162 C164 1.263 . S
N162 C166 1.389 . S
N163 C164 1.358 . S
N163 C165 1.400 . S
C164 N162 1.263 . S
C164 N163 1.358 . S
C164 H170 0.930 . S
C165 N163 1.400 . S
C165 C166 1.351 . S
C165 H182 0.930 . S
C166 N162 1.389 . S
C166 C165 1.351 . S
C166 H171 0.930 . S
O167 Cu161 1.974 . S
O167 C177 1.282 . S
C168 O169 1.261 . S
C168 O181 1.251 . S
O169 C168 1.261 . S
H170 C164 0.930 . S
H171 C166 0.930 . S
N172 Cu161 1.985 . S
N172 C174 1.335 . S
N172 C175 1.390 . S
N173 C174 1.345 . S
N173 C176 1.336 . S
C174 N172 1.335 . S
C174 N173 1.345 . S
C174 H179 0.930 . S
C175 N172 1.390 . S
C175 C176 1.346 . S
C175 H180 0.930 . S
C176 N173 1.336 . S
C176 C175 1.346 . S
C176 H183 0.929 . S
C177 O167 1.282 . S
C177 O178 1.216 . S
O178 C177 1.216 . S
H179 C174 0.930 . S
H180 C175 0.930 . S
O181 Cu161 1.959 . S
O181 C168 1.251 . S
H182 C165 0.930 . S
H183 C176 0.929 . S
H184 C185 0.951 . S
C185 H184 0.951 . S
C185 C191 1.265 . S
H186 C191 0.950 . S
H187 C195 0.949 . S
H188 C196 0.950 . S
H189 C197 0.951 . S
H190 C198 0.951 . S
C191 C185 1.265 . S
C191 H186 0.950 . S
C191 C192 1.478 . S
C192 C191 1.478 . S
C192 C193 1.397 . S
C192 C209 1.394 . S
C193 C192 1.397 . S
C193 C194 1.438 . S
C193 C198 1.429 . S
C194 C193 1.438 . S
C194 C195 1.428 . S
C194 C207 1.394 . S
C195 H187 0.949 . S
C195 C194 1.428 . S
C195 C196 1.345 . S
C196 H188 0.950 . S
C196 C195 1.345 . S
C196 C197 1.424 . S
C197 H189 0.951 . S
C197 C196 1.424 . S
C197 C198 1.347 . S
C198 H190 0.951 . S
C198 C193 1.429 . S
C198 C197 1.347 . S
H199 C200 0.951 . S
C200 H199 0.951 . S
C200 C206 1.265 . S
H201 C206 0.950 . S
H202 C210 0.949 . S
H203 C211 0.950 . S
H204 C212 0.951 . S
H205 C213 0.951 . S
C206 C200 1.265 . S
C206 H201 0.950 . S
C206 C207 1.478 . S
C207 C194 1.394 . S
C207 C206 1.478 . S
C207 C208 1.397 . S
C208 C207 1.397 . S
C208 C209 1.438 . S
C208 C213 1.429 . S
C209 C192 1.394 . S
C209 C208 1.438 . S
C209 C210 1.428 . S
C210 H202 0.949 . S
C210 C209 1.428 . S
C210 C211 1.345 . S
C211 H203 0.950 . S
C211 C210 1.345 . S
C211 C212 1.424 . S
C212 H204 0.951 . S
C212 C211 1.424 . S
C212 C213 1.347 . S
C213 H205 0.951 . S
C213 C208 1.429 . S
C213 C212 1.347 . S
H214 C215 0.951 . S
C215 H214 0.951 . S
C215 C221 1.265 . S
H216 C221 0.950 . S
H217 C225 0.949 . S
H218 C226 0.950 . S
H219 C227 0.951 . S
H220 C228 0.951 . S
C221 C215 1.265 . S
C221 H216 0.950 . S
C221 C222 1.478 . S
C222 C221 1.478 . S
C222 C223 1.397 . S
C222 C239 1.394 . S
C223 C222 1.397 . S
C223 C224 1.438 . S
C223 C228 1.429 . S
C224 C223 1.438 . S
C224 C225 1.428 . S
C224 C237 1.394 . S
C225 H217 0.949 . S
C225 C224 1.428 . S
C225 C226 1.345 . S
C226 H218 0.950 . S
C226 C225 1.345 . S
C226 C227 1.424 . S
C227 H219 0.951 . S
C227 C226 1.424 . S
C227 C228 1.347 . S
C228 H220 0.951 . S
C228 C223 1.429 . S
C228 C227 1.347 . S
H229 C230 0.951 . S
C230 H229 0.951 . S
C230 C236 1.265 . S
H231 C236 0.950 . S
H232 C240 0.949 . S
H233 C241 0.950 . S
H234 C242 0.951 . S
H235 C243 0.951 . S
C236 C230 1.265 . S
C236 H231 0.950 . S
C236 C237 1.478 . S
C237 C224 1.394 . S
C237 C236 1.478 . S
C237 C238 1.397 . S
C238 C237 1.397 . S
C238 C239 1.438 . S
C238 C243 1.429 . S
C239 C222 1.394 . S
C239 C238 1.438 . S
C239 C240 1.428 . S
C240 H232 0.949 . S
C240 C239 1.428 . S
C240 C241 1.345 . S
C241 H233 0.950 . S
C241 C240 1.345 . S
C241 C242 1.424 . S
C242 H234 0.951 . S
C242 C241 1.424 . S
C242 C243 1.347 . S
C243 H235 0.951 . S
C243 C238 1.429 . S
C243 C242 1.347 . S
H244 C245 0.951 . S
C245 H244 0.951 . S
C245 C251 1.265 . S
H246 C251 0.950 . S
H247 C255 0.949 . S
H248 C256 0.950 . S
H249 C257 0.951 . S
H250 C258 0.951 . S
C251 C245 1.265 . S
C251 H246 0.950 . S
C251 C252 1.478 . S
C252 C251 1.478 . S
C252 C253 1.397 . S
C252 C269 1.394 . S
C253 C252 1.397 . S
C253 C254 1.438 . S
C253 C258 1.429 . S
C254 C253 1.438 . S
C254 C255 1.428 . S
C254 C267 1.394 . S
C255 H247 0.949 . S
C255 C254 1.428 . S
C255 C256 1.345 . S
C256 H248 0.950 . S
C256 C255 1.345 . S
C256 C257 1.424 . S
C257 H249 0.951 . S
C257 C256 1.424 . S
C257 C258 1.347 . S
C258 H250 0.951 . S
C258 C253 1.429 . S
C258 C257 1.347 . S
H259 C260 0.951 . S
C260 H259 0.951 . S
C260 C266 1.265 . S
H261 C266 0.950 . S
H262 C270 0.949 . S
H263 C271 0.950 . S
H264 C272 0.951 . S
H265 C273 0.951 . S
C266 C260 1.265 . S
C266 H261 0.950 . S
C266 C267 1.478 . S
C267 C254 1.394 . S
C267 C266 1.478 . S
C267 C268 1.397 . S
C268 C267 1.397 . S
C268 C269 1.438 . S
C268 C273 1.429 . S
C269 C252 1.394 . S
C269 C268 1.438 . S
C269 C270 1.428 . S
C270 H262 0.949 . S
C270 C269 1.428 . S
C270 C271 1.345 . S
C271 H263 0.950 . S
C271 C270 1.345 . S
C271 C272 1.424 . S
C272 H264 0.951 . S
C272 C271 1.424 . S
C272 C273 1.347 . S
C273 H265 0.951 . S
C273 C268 1.429 . S
C273 C272 1.347 . S
H274 C275 0.951 . S
C275 H274 0.951 . S
C275 C281 1.265 . S
H276 C281 0.950 . S
H277 C285 0.949 . S
H278 C286 0.950 . S
H279 C287 0.951 . S
H280 C288 0.951 . S
C281 C275 1.265 . S
C281 H276 0.950 . S
C281 C282 1.478 . S
C282 C281 1.478 . S
C282 C283 1.397 . S
C282 C299 1.394 . S
C283 C282 1.397 . S
C283 C284 1.438 . S
C283 C288 1.429 . S
C284 C283 1.438 . S
C284 C285 1.428 . S
C284 C297 1.394 . S
C285 H277 0.949 . S
C285 C284 1.428 . S
C285 C286 1.345 . S
C286 H278 0.950 . S
C286 C285 1.345 . S
C286 C287 1.424 . S
C287 H279 0.951 . S
C287 C286 1.424 . S
C287 C288 1.347 . S
C288 H280 0.951 . S
C288 C283 1.429 . S
C288 C287 1.347 . S
H289 C290 0.951 . S
C290 H289 0.951 . S
C290 C296 1.265 . S
H291 C296 0.950 . S
H292 C300 0.949 . S
H293 C301 0.950 . S
H294 C302 0.951 . S
H295 C303 0.951 . S
C296 C290 1.265 . S
C296 H291 0.950 . S
C296 C297 1.478 . S
C297 C284 1.394 . S
C297 C296 1.478 . S
C297 C298 1.397 . S
C298 C297 1.397 . S
C298 C299 1.438 . S
C298 C303 1.429 . S
C299 C282 1.394 . S
C299 C298 1.438 . S
C299 C300 1.428 . S
C300 H292 0.949 . S
C300 C299 1.428 . S
C300 C301 1.345 . S
C301 H293 0.950 . S
C301 C300 1.345 . S
C301 C302 1.424 . S
C302 H294 0.951 . S
C302 C301 1.424 . S
C302 C303 1.347 . S
C303 H295 0.951 . S
C303 C298 1.429 . S
C303 C302 1.347 . S
H304 C305 0.951 . S
C305 H304 0.951 . S
C305 C311 1.265 . S
H306 C311 0.950 . S
H307 C315 0.949 . S
H308 C316 0.950 . S
H309 C317 0.951 . S
H310 C318 0.951 . S
C311 C305 1.265 . S
C311 H306 0.950 . S
C311 C312 1.478 . S
C312 C311 1.478 . S
C312 C313 1.397 . S
C312 C329 1.394 . S
C313 C312 1.397 . S
C313 C314 1.438 . S
C313 C318 1.429 . S
C314 C313 1.438 . S
C314 C315 1.428 . S
C314 C327 1.394 . S
C315 H307 0.949 . S
C315 C314 1.428 . S
C315 C316 1.345 . S
C316 H308 0.950 . S
C316 C315 1.345 . S
C316 C317 1.424 . S
C317 H309 0.951 . S
C317 C316 1.424 . S
C317 C318 1.347 . S
C318 H310 0.951 . S
C318 C313 1.429 . S
C318 C317 1.347 . S
H319 C320 0.951 . S
C320 H319 0.951 . S
C320 C326 1.265 . S
H321 C326 0.950 . S
H322 C330 0.949 . S
H323 C331 0.950 . S
H324 C332 0.951 . S
H325 C333 0.951 . S
C326 C320 1.265 . S
C326 H321 0.950 . S
C326 C327 1.478 . S
C327 C314 1.394 . S
C327 C326 1.478 . S
C327 C328 1.397 . S
C328 C327 1.397 . S
C328 C329 1.438 . S
C328 C333 1.429 . S
C329 C312 1.394 . S
C329 C328 1.438 . S
C329 C330 1.428 . S
C330 H322 0.949 . S
C330 C329 1.428 . S
C330 C331 1.345 . S
C331 H323 0.950 . S
C331 C330 1.345 . S
C331 C332 1.424 . S
C332 H324 0.951 . S
C332 C331 1.424 . S
C332 C333 1.347 . S
C333 H325 0.951 . S
C333 C328 1.429 . S
C333 C332 1.347 . S
H334 C335 0.951 . S
C335 H334 0.951 . S
C335 C341 1.265 . S
H336 C341 0.950 . S
H337 C345 0.949 . S
H338 C346 0.950 . S
H339 C347 0.951 . S
H340 C348 0.951 . S
C341 C335 1.265 . S
C341 H336 0.950 . S
C341 C342 1.478 . S
C342 C341 1.478 . S
C342 C343 1.397 . S
C342 C359 1.394 . S
C343 C342 1.397 . S
C343 C344 1.438 . S
C343 C348 1.429 . S
C344 C343 1.438 . S
C344 C345 1.428 . S
C344 C357 1.394 . S
C345 H337 0.949 . S
C345 C344 1.428 . S
C345 C346 1.345 . S
C346 H338 0.950 . S
C346 C345 1.345 . S
C346 C347 1.424 . S
C347 H339 0.951 . S
C347 C346 1.424 . S
C347 C348 1.347 . S
C348 H340 0.951 . S
C348 C343 1.429 . S
C348 C347 1.347 . S
H349 C350 0.951 . S
C350 H349 0.951 . S
C350 C356 1.265 . S
H351 C356 0.950 . S
H352 C360 0.949 . S
H353 C361 0.950 . S
H354 C362 0.951 . S
H355 C363 0.951 . S
C356 C350 1.265 . S
C356 H351 0.950 . S
C356 C357 1.478 . S
C357 C344 1.394 . S
C357 C356 1.478 . S
C357 C358 1.397 . S
C358 C357 1.397 . S
C358 C359 1.438 . S
C358 C363 1.429 . S
C359 C342 1.394 . S
C359 C358 1.438 . S
C359 C360 1.428 . S
C360 H352 0.949 . S
C360 C359 1.428 . S
C360 C361 1.345 . S
C361 H353 0.950 . S
C361 C360 1.345 . S
C361 C362 1.424 . S
C362 H354 0.951 . S
C362 C361 1.424 . S
C362 C363 1.347 . S
C363 H355 0.951 . S
C363 C358 1.429 . S
C363 C362 1.347 . S
H364 C365 0.951 . S
C365 H364 0.951 . S
C365 C371 1.265 . S
H366 C371 0.950 . S
H367 C375 0.949 . S
H368 C376 0.950 . S
H369 C377 0.951 . S
H370 C378 0.951 . S
C371 C365 1.265 . S
C371 H366 0.950 . S
C371 C372 1.478 . S
C372 C371 1.478 . S
C372 C373 1.397 . S
C372 C389 1.394 . S
C373 C372 1.397 . S
C373 C374 1.438 . S
C373 C378 1.429 . S
C374 C373 1.438 . S
C374 C375 1.428 . S
C374 C387 1.394 . S
C375 H367 0.949 . S
C375 C374 1.428 . S
C375 C376 1.345 . S
C376 H368 0.950 . S
C376 C375 1.345 . S
C376 C377 1.424 . S
C377 H369 0.951 . S
C377 C376 1.424 . S
C377 C378 1.347 . S
C378 H370 0.951 . S
C378 C373 1.429 . S
C378 C377 1.347 . S
H379 C380 0.951 . S
C380 H379 0.951 . S
C380 C386 1.265 . S
H381 C386 0.950 . S
H382 C390 0.949 . S
H383 C391 0.950 . S
H384 C392 0.951 . S
H385 C393 0.951 . S
C386 C380 1.265 . S
C386 H381 0.950 . S
C386 C387 1.478 . S
C387 C374 1.394 . S
C387 C386 1.478 . S
C387 C388 1.397 . S
C388 C387 1.397 . S
C388 C389 1.438 . S
C388 C393 1.429 . S
C389 C372 1.394 . S
C389 C388 1.438 . S
C389 C390 1.428 . S
C390 H382 0.949 . S
C390 C389 1.428 . S
C390 C391 1.345 . S
C391 H383 0.950 . S
C391 C390 1.345 . S
C391 C392 1.424 . S
C392 H384 0.951 . S
C392 C391 1.424 . S
C392 C393 1.347 . S
C393 H385 0.951 . S
C393 C388 1.429 . S
C393 C392 1.347 . S
H394 C395 0.951 . S
C395 H394 0.951 . S
C395 C401 1.265 . S
H396 C401 0.950 . S
H397 C405 0.949 . S
H398 C406 0.950 . S
H399 C407 0.951 . S
H400 C408 0.951 . S
C401 C395 1.265 . S
C401 H396 0.950 . S
C401 C402 1.478 . S
C402 C401 1.478 . S
C402 C403 1.397 . S
C402 C419 1.394 . S
C403 C402 1.397 . S
C403 C404 1.438 . S
C403 C408 1.429 . S
C404 C403 1.438 . S
C404 C405 1.428 . S
C404 C417 1.394 . S
C405 H397 0.949 . S
C405 C404 1.428 . S
C405 C406 1.345 . S
C406 H398 0.950 . S
C406 C405 1.345 . S
C406 C407 1.424 . S
C407 H399 0.951 . S
C407 C406 1.424 . S
C407 C408 1.347 . S
C408 H400 0.951 . S
C408 C403 1.429 . S
C408 C407 1.347 . S
H409 C410 0.951 . S
C410 H409 0.951 . S
C410 C416 1.265 . S
H411 C416 0.950 . S
H412 C420 0.949 . S
H413 C421 0.950 . S
H414 C422 0.951 . S
H415 C423 0.951 . S
C416 C410 1.265 . S
C416 H411 0.950 . S
C416 C417 1.478 . S
C417 C404 1.394 . S
C417 C416 1.478 . S
C417 C418 1.397 . S
C418 C417 1.397 . S
C418 C419 1.438 . S
C418 C423 1.429 . S
C419 C402 1.394 . S
C419 C418 1.438 . S
C419 C420 1.428 . S
C420 H412 0.949 . S
C420 C419 1.428 . S
C420 C421 1.345 . S
C421 H413 0.950 . S
C421 C420 1.345 . S
C421 C422 1.424 . S
C422 H414 0.951 . S
C422 C421 1.424 . S
C422 C423 1.347 . S
C423 H415 0.951 . S
C423 C418 1.429 . S
C423 C422 1.347 . S
H424 C425 0.951 1_556 S
C425 H424 0.951 1_554 S
C425 C431 1.265 . S
H426 C431 0.950 . S
H427 C435 0.949 . S
H428 C436 0.950 . S
H429 C437 0.951 . S
H430 C438 0.951 1_554 S
C431 C425 1.265 . S
C431 H426 0.950 . S
C431 C432 1.478 1_554 S
C432 C431 1.478 1_556 S
C432 C433 1.397 . S
C432 C449 1.394 . S
C433 C432 1.397 . S
C433 C434 1.438 . S
C433 C438 1.429 . S
C434 C433 1.438 . S
C434 C435 1.428 . S
C434 C447 1.394 . S
C435 H427 0.949 . S
C435 C434 1.428 . S
C435 C436 1.345 . S
C436 H428 0.950 . S
C436 C435 1.345 . S
C436 C437 1.424 . S
C437 H429 0.951 . S
C437 C436 1.424 . S
C437 C438 1.347 . S
C438 H430 0.951 1_556 S
C438 C433 1.429 . S
C438 C437 1.347 . S
H439 C440 0.951 . S
C440 H439 0.951 . S
C440 C446 1.265 . S
H441 C446 0.950 . S
H442 C450 0.949 1_554 S
H443 C451 0.950 . S
H444 C452 0.951 . S
H445 C453 0.951 . S
C446 C440 1.265 . S
C446 H441 0.950 . S
C446 C447 1.478 . S
C447 C434 1.394 . S
C447 C446 1.478 . S
C447 C448 1.397 . S
C448 C447 1.397 . S
C448 C449 1.438 . S
C448 C453 1.429 . S
C449 C432 1.394 . S
C449 C448 1.438 . S
C449 C450 1.428 . S
C450 H442 0.949 1_556 S
C450 C449 1.428 . S
C450 C451 1.345 . S
C451 H443 0.950 . S
C451 C450 1.345 . S
C451 C452 1.424 . S
C452 H444 0.951 . S
C452 C451 1.424 . S
C452 C453 1.347 . S
C453 H445 0.951 . S
C453 C448 1.429 . S
C453 C452 1.347 . S
H454 C455 0.951 . S
C455 H454 0.951 . S
C455 C461 1.265 . S
H456 C461 0.950 . S
H457 C465 0.947 1_556 S
H458 C466 0.950 . S
H459 C467 0.957 . S
H460 C468 0.951 . S
C461 C455 1.265 . S
C461 H456 0.950 . S
C461 C462 1.478 . S
C462 C461 1.478 . S
C462 C463 1.397 . S
C462 C479 1.394 . S
C463 C462 1.397 . S
C463 C464 1.438 . S
C463 C468 1.429 . S
C464 C463 1.438 . S
C464 C465 1.434 . S
C464 C477 1.394 . S
C465 H457 0.947 1_554 S
C465 C464 1.434 . S
C465 C466 1.341 1_554 S
C466 H458 0.950 . S
C466 C465 1.341 1_556 S
C466 C467 1.429 . S
C467 H459 0.957 . S
C467 C466 1.429 . S
C467 C468 1.337 1_556 S
C468 H460 0.951 . S
C468 C463 1.429 . S
C468 C467 1.337 1_554 S
H469 C470 0.951 . S
C470 H469 0.951 . S
C470 C476 1.265 1_556 S
H471 C476 0.950 . S
H472 C480 0.949 . S
H473 C481 0.950 . S
H474 C482 0.951 . S
H475 C483 0.951 . S
C476 C470 1.265 1_554 S
C476 H471 0.950 . S
C476 C477 1.478 . S
C477 C464 1.394 . S
C477 C476 1.478 . S
C477 C478 1.397 . S
C478 C477 1.397 . S
C478 C479 1.438 . S
C478 C483 1.429 . S
C479 C462 1.394 . S
C479 C478 1.438 . S
C479 C480 1.428 . S
C480 H472 0.949 . S
C480 C479 1.428 . S
C480 C481 1.345 . S
C481 H473 0.950 . S
C481 C480 1.345 . S
C481 C482 1.424 . S
C482 H474 0.951 . S
C482 C481 1.424 . S
C482 C483 1.347 . S
C483 H475 0.951 . S
C483 C478 1.429 . S
C483 C482 1.347 . S
H484 C485 0.951 . S
C485 H484 0.951 . S
C485 C491 1.265 1_554 S
H486 C491 0.950 . S
H487 C495 0.949 . S
H488 C496 0.950 . S
H489 C497 0.951 . S
H490 C498 0.951 . S
C491 C485 1.265 1_556 S
C491 H486 0.950 . S
C491 C492 1.478 . S
C492 C491 1.478 . S
C492 C493 1.397 . S
C492 C509 1.394 1_556 S
C493 C492 1.397 . S
C493 C494 1.438 . S
C493 C498 1.429 . S
C494 C493 1.438 . S
C494 C495 1.428 . S
C494 C507 1.394 . S
C495 H487 0.949 . S
C495 C494 1.428 . S
C495 C496 1.345 . S
C496 H488 0.950 . S
C496 C495 1.345 . S
C496 C497 1.424 . S
C497 H489 0.951 . S
C497 C496 1.424 . S
C497 C498 1.347 . S
C498 H490 0.951 . S
C498 C493 1.429 . S
C498 C497 1.347 . S
H499 C500 0.951 . S
C500 H499 0.951 . S
C500 C506 1.265 . S
H501 C506 0.950 . S
H502 C510 0.949 . S
H503 C511 0.950 . S
H504 C512 0.951 . S
H505 C513 0.951 . S
C506 C500 1.265 . S
C506 H501 0.950 . S
C506 C507 1.478 . S
C507 C494 1.394 . S
C507 C506 1.478 . S
C507 C508 1.397 . S
C508 C507 1.397 . S
C508 C509 1.438 1_556 S
C508 C513 1.429 1_556 S
C509 C492 1.394 1_554 S
C509 C508 1.438 1_554 S
C509 C510 1.428 . S
C510 H502 0.949 . S
C510 C509 1.428 . S
C510 C511 1.345 . S
C511 H503 0.950 . S
C511 C510 1.345 . S
C511 C512 1.424 . S
C512 H504 0.951 . S
C512 C511 1.424 . S
C512 C513 1.347 . S
C513 H505 0.951 . S
C513 C508 1.429 1_554 S
C513 C512 1.347 . S
H514 C515 0.951 . S
C515 H514 0.951 . S
C515 C521 1.265 1_556 S
H516 C521 0.950 . S
H517 C525 0.949 . S
H518 C526 0.950 . S
H519 C527 0.951 . S
H520 C528 0.951 . S
C521 C515 1.265 1_554 S
C521 H516 0.950 . S
C521 C522 1.478 . S
C522 C521 1.478 . S
C522 C523 1.397 . S
C522 C539 1.391 1_554 S
C523 C522 1.397 . S
C523 C524 1.438 . S
C523 C528 1.429 . S
C524 C523 1.438 . S
C524 C525 1.428 . S
C524 C537 1.394 . S
C525 H517 0.949 . S
C525 C524 1.428 . S
C525 C526 1.345 . S
C526 H518 0.950 . S
C526 C525 1.345 . S
C526 C527 1.424 . S
C527 H519 0.951 . S
C527 C526 1.424 . S
C527 C528 1.347 . S
C528 H520 0.951 . S
C528 C523 1.429 . S
C528 C527 1.347 . S
H529 C530 0.951 . S
C530 H529 0.951 . S
C530 C536 1.265 . S
H531 C536 0.950 . S
H532 C540 0.949 . S
H533 C541 0.950 . S
H534 C542 0.951 . S
H535 C543 0.951 . S
C536 C530 1.265 . S
C536 H531 0.950 . S
C536 C537 1.478 . S
C537 C524 1.394 . S
C537 C536 1.478 . S
C537 C538 1.397 . S
C538 C537 1.397 . S
C538 C539 1.437 1_554 S
C538 C543 1.429 1_554 S
C539 C522 1.391 1_556 S
C539 C538 1.437 1_556 S
C539 C540 1.432 . S
C540 H532 0.949 . S
C540 C539 1.432 . S
C540 C541 1.345 . S
C541 H533 0.950 . S
C541 C540 1.345 . S
C541 C542 1.424 . S
C542 H534 0.951 . S
C542 C541 1.424 . S
C542 C543 1.347 . S
C543 H535 0.951 . S
C543 C538 1.429 1_556 S
C543 C542 1.347 . S
H544 C545 0.951 1_455 S
C545 H544 0.951 1_655 S
C545 C551 1.265 . S
H546 C551 0.950 . S
H547 C555 0.949 . S
H548 C556 0.950 . S
H549 C557 0.951 . S
H550 C558 0.951 . S
C551 C545 1.265 . S
C551 H546 0.950 . S
C551 C552 1.478 . S
C552 C551 1.478 . S
C552 C553 1.397 . S
C552 C569 1.394 1_655 S
C553 C552 1.397 . S
C553 C554 1.438 . S
C553 C558 1.429 . S
C554 C553 1.438 . S
C554 C555 1.428 . S
C554 C567 1.394 1_655 S
C555 H547 0.949 . S
C555 C554 1.428 . S
C555 C556 1.345 . S
C556 H548 0.950 . S
C556 C555 1.345 . S
C556 C557 1.424 . S
C557 H549 0.951 . S
C557 C556 1.424 . S
C557 C558 1.347 . S
C558 H550 0.951 . S
C558 C553 1.429 . S
C558 C557 1.347 . S
H559 C560 0.951 1_655 S
C560 H559 0.951 1_455 S
C560 C566 1.265 . S
H561 C566 0.950 . S
H562 C570 0.949 . S
H563 C571 0.950 . S
H564 C572 0.951 . S
H565 C573 0.951 . S
C566 C560 1.265 . S
C566 H561 0.950 . S
C566 C567 1.478 . S
C567 C554 1.394 1_455 S
C567 C566 1.478 . S
C567 C568 1.397 . S
C568 C567 1.397 . S
C568 C569 1.438 . S
C568 C573 1.429 . S
C569 C552 1.394 1_455 S
C569 C568 1.438 . S
C569 C570 1.428 . S
C570 H562 0.949 . S
C570 C569 1.428 . S
C570 C571 1.345 . S
C571 H563 0.950 . S
C571 C570 1.345 . S
C571 C572 1.424 . S
C572 H564 0.951 . S
C572 C571 1.424 . S
C572 C573 1.347 . S
C573 H565 0.951 . S
C573 C568 1.429 . S
C573 C572 1.347 . S
H574 C575 0.951 . S
C575 H574 0.951 . S
C575 C581 1.265 1_545 S
H576 C581 0.950 . S
H577 C585 0.949 . S
H578 C586 0.950 . S
H579 C587 0.951 . S
H580 C588 0.951 . S
C581 C575 1.265 1_565 S
C581 H576 0.950 . S
C581 C582 1.478 . S
C582 C581 1.478 . S
C582 C583 1.397 . S
C582 C599 1.394 1_565 S
C583 C582 1.397 . S
C583 C584 1.438 . S
C583 C588 1.429 . S
C584 C583 1.438 . S
C584 C585 1.428 . S
C584 C597 1.394 1_565 S
C585 H577 0.949 . S
C585 C584 1.428 . S
C585 C586 1.345 . S
C586 H578 0.950 . S
C586 C585 1.345 . S
C586 C587 1.424 . S
C587 H579 0.951 . S
C587 C586 1.424 . S
C587 C588 1.347 . S
C588 H580 0.951 . S
C588 C583 1.429 . S
C588 C587 1.347 . S
H589 C590 0.951 . S
C590 H589 0.951 . S
C590 C596 1.265 1_565 S
H591 C596 0.950 . S
H592 C600 0.949 . S
H593 C601 0.950 . S
H594 C602 0.951 . S
H595 C603 0.951 . S
C596 C590 1.265 1_545 S
C596 H591 0.950 . S
C596 C597 1.478 . S
C597 C584 1.394 1_545 S
C597 C596 1.478 . S
C597 C598 1.397 . S
C598 C597 1.397 . S
C598 C599 1.438 . S
C598 C603 1.429 . S
C599 C582 1.394 1_545 S
C599 C598 1.438 . S
C599 C600 1.428 . S
C600 H592 0.949 . S
C600 C599 1.428 . S
C600 C601 1.345 . S
C601 H593 0.950 . S
C601 C600 1.345 . S
C601 C602 1.424 . S
C602 H594 0.951 . S
C602 C601 1.424 . S
C602 C603 1.347 . S
C603 H595 0.951 . S
C603 C598 1.429 . S
C603 C602 1.347 . S
H604 C605 0.951 . S
C605 H604 0.951 . S
C605 C611 1.265 . S
H606 C611 0.950 . S
H607 C615 0.949 . S
H608 C616 0.950 . S
H609 C617 0.951 . S
H610 C618 0.951 . S
C611 C605 1.265 . S
C611 H606 0.950 . S
C611 C612 1.478 . S
C612 C611 1.478 . S
C612 C613 1.397 . S
C612 C629 1.394 . S
C613 C612 1.397 . S
C613 C614 1.438 1_545 S
C613 C618 1.429 . S
C614 C613 1.438 1_565 S
C614 C615 1.428 . S
C614 C627 1.394 . S
C615 H607 0.949 . S
C615 C614 1.428 . S
C615 C616 1.345 . S
C616 H608 0.950 . S
C616 C615 1.345 . S
C616 C617 1.424 1_565 S
C617 H609 0.951 . S
C617 C616 1.424 1_545 S
C617 C618 1.347 . S
C618 H610 0.951 . S
C618 C613 1.429 . S
C618 C617 1.347 . S
H619 C620 0.951 . S
C620 H619 0.951 . S
C620 C626 1.265 . S
H621 C626 0.950 . S
H622 C630 0.949 . S
H623 C631 0.950 1_554 S
H624 C632 0.951 1_554 S
H625 C633 0.951 . S
C626 C620 1.265 . S
C626 H621 0.950 . S
C626 C627 1.478 . S
C627 C614 1.394 . S
C627 C626 1.478 . S
C627 C628 1.397 . S
C628 C627 1.397 . S
C628 C629 1.438 1_565 S
C628 C633 1.429 . S
C629 C612 1.394 . S
C629 C628 1.438 1_545 S
C629 C630 1.428 . S
C630 H622 0.949 . S
C630 C629 1.428 . S
C630 C631 1.345 . S
C631 H623 0.950 1_556 S
C631 C630 1.345 . S
C631 C632 1.424 1_545 S
C632 H624 0.951 1_556 S
C632 C631 1.424 1_565 S
C632 C633 1.347 . S
C633 H625 0.951 . S
C633 C628 1.429 . S
C633 C632 1.347 . S
H634 C635 0.951 . S
C635 H634 0.951 . S
C635 C641 1.265 . S
H636 C641 0.950 . S
H637 C645 0.949 . S
H638 C646 0.950 . S
H639 C647 0.951 . S
H640 C648 0.951 . S
C641 C635 1.265 . S
C641 H636 0.950 . S
C641 C642 1.478 . S
C642 C641 1.478 . S
C642 C643 1.397 . S
C642 C659 1.394 . S
C643 C642 1.397 . S
C643 C644 1.438 1_455 S
C643 C648 1.429 . S
C644 C643 1.438 1_655 S
C644 C645 1.428 . S
C644 C657 1.394 . S
C645 H637 0.949 . S
C645 C644 1.428 . S
C645 C646 1.345 . S
C646 H638 0.950 . S
C646 C645 1.345 . S
C646 C647 1.424 1_655 S
C647 H639 0.951 . S
C647 C646 1.424 1_455 S
C647 C648 1.347 . S
C648 H640 0.951 . S
C648 C643 1.429 . S
C648 C647 1.347 . S
H649 C650 0.951 . S
C650 H649 0.951 . S
C650 C656 1.265 . S
H651 C656 0.950 . S
H652 C660 0.949 . S
H653 C661 0.950 . S
H654 C662 0.953 . S
H655 C663 0.951 . S
C656 C650 1.265 . S
C656 H651 0.950 . S
C656 C657 1.478 . S
C657 C644 1.394 . S
C657 C656 1.478 . S
C657 C658 1.397 . S
C658 C657 1.397 . S
C658 C659 1.438 1_655 S
C658 C663 1.429 . S
C659 C642 1.394 . S
C659 C658 1.438 1_455 S
C659 C660 1.428 . S
C660 H652 0.949 . S
C660 C659 1.428 . S
C660 C661 1.345 . S
C661 H653 0.950 . S
C661 C660 1.345 . S
C661 C662 1.424 1_455 S
C662 H654 0.953 . S
C662 C661 1.424 1_655 S
C662 C663 1.347 . S
C663 H655 0.951 . S
C663 C658 1.429 . S
C663 C662 1.347 . S
C185 N173 1.774 . S
C200 N12 1.757 . S
C215 N35 1.774 . S
C230 N104 1.743 . S
C245 N58 1.746 . S
C260 N127 1.775 . S
C275 N150 1.730 . S
C290 N81 1.697 . S
C305 N25 1.627 . S
C320 C16 1.680 . S
C335 C39 1.734 . S
C350 N48 1.606 . S
C365 N71 1.620 . S
C380 C62 1.684 . S
C395 C85 1.738 . S
C410 N2 1.590 . S
C425 N163 1.665 . S
C440 C108 1.700 . S
C455 C131 1.716 . S
C470 N94 1.575 . S
C485 N117 1.586 . S
C500 C154 1.738 . S
C515 N140 1.590 . S
C530 C177 1.702 . S
C545 C53 1.840 . S
C560 C7 1.840 . S
C575 C76 1.805 . S
C590 C30 1.806 . S
C605 C145 1.802 . S
C620 C99 1.810 . S
C635 C168 1.840 . S
C650 C122 1.840 . S
