# Generated by pormake.
# Topology uog, (4)-cn, num edge types: 1
# Building blocks:
#     Node 0, Type 0, BuildingBlock: ICAMEG_clean_sbu_1, # of connection points: 4
#     Node 1, Type 0, BuildingBlock: ICAMEG_clean_sbu_1, # of connection points: 4
#     Node 2, Type 0, BuildingBlock: ICAMEG_clean_sbu_1, # of connection points: 4
#     Node 3, Type 0, BuildingBlock: ICAMEG_clean_sbu_1, # of connection points: 4
#     Node 4, Type 0, BuildingBlock: ICAMEG_clean_sbu_1, # of connection points: 4
#     Node 5, Type 0, BuildingBlock: ICAMEG_clean_sbu_1, # of connection points: 4
#     Edge 6, Type (0, 0), BuildingBlock: KIFKEQ_clean_linker_1, # of connection points: 2
#     Edge 7, Type (0, 0), BuildingBlock: KIFKEQ_clean_linker_1, # of connection points: 2
#     Edge 8, Type (0, 0), BuildingBlock: KIFKEQ_clean_linker_1, # of connection points: 2
#     Edge 9, Type (0, 0), BuildingBlock: KIFKEQ_clean_linker_1, # of connection points: 2
#     Edge 10, Type (0, 0), BuildingBlock: KIFKEQ_clean_linker_1, # of connection points: 2
#     Edge 11, Type (0, 0), BuildingBlock: KIFKEQ_clean_linker_1, # of connection points: 2
#     Edge 12, Type (0, 0), BuildingBlock: KIFKEQ_clean_linker_1, # of connection points: 2
#     Edge 13, Type (0, 0), BuildingBlock: KIFKEQ_clean_linker_1, # of connection points: 2
#     Edge 14, Type (0, 0), BuildingBlock: KIFKEQ_clean_linker_1, # of connection points: 2
#     Edge 15, Type (0, 0), BuildingBlock: KIFKEQ_clean_linker_1, # of connection points: 2
#     Edge 16, Type (0, 0), BuildingBlock: KIFKEQ_clean_linker_1, # of connection points: 2
#     Edge 17, Type (0, 0), BuildingBlock: KIFKEQ_clean_linker_1, # of connection points: 2
# Relax obj value: 0.054
# Max RMSD: 0.119
# Mean RMSD: 0.119
data_MOF--net-uog--node1-ICAMEG_clean_sbu_1--edge1-KIFKEQ_clean_linker_1
_symmetry_space_group_name_H-M    P1
_symmetry_Int_Tables_number       1
_symmetry_cell_setting            triclinic
loop_
_symmetry_equiv_pos_as_xyz
'x, y, z'
_cell_length_a     30.715053
_cell_length_b     30.72071
_cell_length_c     46.100971
_cell_angle_alpha  90.000734
_cell_angle_beta   90.000539
_cell_angle_gamma 120.008
loop_
_atom_site_label
_atom_site_type_symbol
_atom_site_fract_x
_atom_site_fract_y
_atom_site_fract_z
_atom_type_partial_charge
Co0 Co 0.63767 0.34609 0.16398 0.0
Co1 Co 0.51755 0.26106 0.18674 0.0
O2 O 0.57696 0.28009 0.16301 0.0
C3 C 0.60714 0.3295 0.10239 0.0
O4 O 0.56168 0.31686 0.1112 0.0
C5 C 0.54426 0.18325 0.19977 0.0
O6 O 0.59033 0.21985 0.20458 0.0
O7 O 0.55938 0.28611 0.22246 0.0
O8 O 0.63398 0.34918 0.20723 0.0
H9 H 0.41599 0.28668 0.26323 0.0
H10 H 0.63831 0.26091 0.13407 0.0
O11 O 0.64275 0.34368 0.12072 0.0
H12 H 0.76875 0.31527 0.20973 0.0
H13 H 0.81274 0.47464 0.13276 0.0
H14 H 0.66916 0.44151 0.19534 0.0
H15 H 0.72065 0.35914 0.20324 0.0
H16 H 0.73584 0.39127 0.13286 0.0
O17 O 0.51008 0.19319 0.19275 0.0
H18 H 0.49057 0.31105 0.23259 0.0
H19 H 0.41768 0.16773 0.19201 0.0
H20 H 0.74548 0.52532 0.1961 0.0
H21 H 0.68581 0.21623 0.13965 0.0
H22 H 0.81796 0.54228 0.16464 0.0
H23 H 0.75147 0.24328 0.17777 0.0
O24 O 0.59761 0.38055 0.15982 0.0
H25 H 0.46284 0.16691 0.09239 0.0
H26 H 0.43573 0.27429 0.16096 0.0
H27 H 0.38578 0.24598 0.11595 0.0
H28 H 0.39919 0.19186 0.0813 0.0
H29 H 0.51225 0.19641 0.13754 0.0
H30 H 0.34244 0.14166 0.22235 0.0
H31 H 0.34123 0.20143 0.25819 0.0
O32 O 0.52355 0.32822 0.18093 0.0
C33 C 0.60352 0.32282 0.22732 0.0
C34 C 0.416 0.26037 0.24762 0.0
C35 C 0.37474 0.17894 0.22471 0.0
N36 N 0.45829 0.24101 0.21039 0.0
C37 C 0.45806 0.274 0.23016 0.0
C38 C 0.41748 0.19388 0.20763 0.0
C39 C 0.37408 0.2125 0.24481 0.0
C40 C 0.66714 0.27321 0.15053 0.0
N41 N 0.67682 0.31273 0.16822 0.0
C42 C 0.69378 0.24763 0.15366 0.0
C43 C 0.73056 0.26278 0.17508 0.0
C44 C 0.74025 0.30315 0.19303 0.0
C45 C 0.71281 0.32778 0.1893 0.0
C46 C 0.78145 0.46768 0.1466 0.0
C47 C 0.70067 0.44855 0.18173 0.0
C48 C 0.73777 0.42059 0.1467 0.0
N49 N 0.69823 0.41148 0.16425 0.0
C50 C 0.74373 0.4961 0.18218 0.0
C51 C 0.78436 0.50561 0.1645 0.0
C52 C 0.55433 0.37012 0.16918 0.0
C53 C 0.45655 0.19036 0.10735 0.0
C54 C 0.44188 0.25087 0.14596 0.0
C55 C 0.41339 0.23484 0.12054 0.0
C56 C 0.42091 0.20444 0.10112 0.0
N57 N 0.47679 0.23692 0.15192 0.0
C58 C 0.48427 0.20701 0.13302 0.0
Co59 Co 0.29202 0.63571 0.49806 0.0
Co60 Co 0.25796 0.51613 0.52084 0.0
O61 O 0.29768 0.57523 0.49676 0.0
C62 C 0.27839 0.60814 0.43579 0.0
O63 O 0.24128 0.56373 0.44327 0.0
C64 C 0.36297 0.54248 0.53127 0.0
O65 O 0.37348 0.58927 0.53401 0.0
O66 O 0.27724 0.55849 0.55633 0.0
O67 O 0.28335 0.631 0.54131 0.0
H68 H 0.13365 0.41652 0.59897 0.0
H69 H 0.3796 0.63874 0.4688 0.0
O70 O 0.30163 0.64186 0.45495 0.0
H71 H 0.45152 0.76627 0.54623 0.0
H72 H 0.33868 0.81121 0.46781 0.0
H73 H 0.22605 0.66568 0.52852 0.0
H74 H 0.3598 0.71722 0.53875 0.0
H75 H 0.34576 0.73467 0.46786 0.0
O76 O 0.31814 0.50785 0.52603 0.0
H77 H 0.18321 0.49057 0.56784 0.0
H78 H 0.25041 0.41579 0.5258 0.0
H79 H 0.2179 0.74159 0.5293 0.0
H80 H 0.47155 0.68735 0.47533 0.0
H81 H 0.2745 0.81505 0.49879 0.0
H82 H 0.50807 0.75153 0.51435 0.0
O83 O 0.21774 0.5952 0.49308 0.0
H84 H 0.29205 0.46016 0.42535 0.0
H85 H 0.16136 0.43437 0.49649 0.0
H86 H 0.13719 0.38389 0.45163 0.0
H87 H 0.2028 0.39662 0.4157 0.0
H88 H 0.31449 0.51007 0.47042 0.0
H89 H 0.20193 0.3411 0.55665 0.0
H90 H 0.14288 0.3411 0.59347 0.0
O91 O 0.19681 0.52283 0.51607 0.0
C92 C 0.28232 0.60165 0.56126 0.0
C93 C 0.15913 0.416 0.58294 0.0
C94 C 0.1975 0.37369 0.55921 0.0
N95 N 0.2193 0.4573 0.54488 0.0
C96 C 0.18716 0.45775 0.5652 0.0
C97 C 0.22493 0.41612 0.54185 0.0
C98 C 0.16437 0.37372 0.57986 0.0
C99 C 0.39521 0.66701 0.48561 0.0
N100 N 0.36433 0.67528 0.50327 0.0
C101 C 0.44731 0.69425 0.48929 0.0
C102 C 0.46777 0.73018 0.51123 0.0
C103 C 0.43605 0.73844 0.52914 0.0
C104 C 0.38413 0.71044 0.52485 0.0
C105 C 0.31387 0.77949 0.48125 0.0
C106 C 0.25103 0.69763 0.51534 0.0
C107 C 0.31765 0.73603 0.48133 0.0
N108 N 0.28664 0.69595 0.49838 0.0
C109 C 0.24613 0.74044 0.51579 0.0
C110 C 0.27787 0.78163 0.49864 0.0
C111 C 0.18522 0.55266 0.50347 0.0
C112 C 0.26313 0.45417 0.44088 0.0
C113 C 0.1901 0.44021 0.48094 0.0
C114 C 0.17621 0.41144 0.4556 0.0
C115 C 0.21304 0.41857 0.43546 0.0
N116 N 0.23931 0.475 0.48612 0.0
C117 C 0.27564 0.48219 0.46648 0.0
Co118 Co 0.65383 0.29137 0.83042 0.0
Co119 Co 0.73926 0.25694 0.85373 0.0
O120 O 0.71995 0.29675 0.82957 0.0
C121 C 0.67039 0.27637 0.76893 0.0
O122 O 0.6838 0.24423 0.77795 0.0
C123 C 0.81607 0.36228 0.86528 0.0
O124 O 0.77923 0.37213 0.86708 0.0
O125 O 0.71362 0.27363 0.88916 0.0
O126 O 0.65109 0.28582 0.87374 0.0
H127 H 0.71331 0.13028 0.93062 0.0
H128 H 0.73819 0.37645 0.79949 0.0
O129 O 0.65579 0.29764 0.7871 0.0
H130 H 0.68477 0.45447 0.87446 0.0
H131 H 0.52469 0.33659 0.79845 0.0
H132 H 0.5587 0.22808 0.8622 0.0
H133 H 0.64121 0.36232 0.86902 0.0
H134 H 0.60816 0.3433 0.79866 0.0
O135 O 0.8068 0.31769 0.86027 0.0
H136 H 0.68892 0.17994 0.89952 0.0
H137 H 0.83299 0.25132 0.85981 0.0
H138 H 0.4748 0.22037 0.86285 0.0
H139 H 0.78247 0.46878 0.80399 0.0
H140 H 0.45739 0.2749 0.8308 0.0
H141 H 0.75592 0.50838 0.84176 0.0
O142 O 0.61947 0.21676 0.82694 0.0
H143 H 0.83498 0.29694 0.75993 0.0
H144 H 0.72729 0.16218 0.82828 0.0
H145 H 0.75667 0.14085 0.78359 0.0
H146 H 0.81095 0.20852 0.74905 0.0
H147 H 0.80443 0.31653 0.80478 0.0
H148 H 0.85911 0.20274 0.89063 0.0
H149 H 0.79897 0.14156 0.92626 0.0
O150 O 0.67242 0.19543 0.84765 0.0
C151 C 0.67725 0.28158 0.8939 0.0
C152 C 0.73979 0.1567 0.9151 0.0
C153 C 0.82165 0.19742 0.89268 0.0
N154 N 0.75934 0.21814 0.87772 0.0
C155 C 0.72614 0.1848 0.89738 0.0
C156 C 0.80668 0.22488 0.87533 0.0
C157 C 0.78788 0.16308 0.91267 0.0
C158 C 0.72605 0.3934 0.81578 0.0
N159 N 0.68704 0.36399 0.83391 0.0
C160 C 0.75142 0.44571 0.81831 0.0
C161 C 0.73657 0.46789 0.83954 0.0
C162 C 0.69668 0.43767 0.85791 0.0
C163 C 0.67225 0.38548 0.85478 0.0
C164 C 0.53185 0.31268 0.81255 0.0
C165 C 0.55147 0.25213 0.84832 0.0
C166 C 0.57899 0.31624 0.81271 0.0
N167 N 0.58835 0.28636 0.83059 0.0
C168 C 0.50386 0.24751 0.84872 0.0
C169 C 0.4941 0.27808 0.83071 0.0
C170 C 0.63026 0.18409 0.83616 0.0
C171 C 0.81148 0.26714 0.77485 0.0
C172 C 0.75079 0.19181 0.81334 0.0
C173 C 0.76742 0.17952 0.78809 0.0
C174 C 0.79791 0.21752 0.76873 0.0
N175 N 0.76427 0.24058 0.81919 0.0
C176 C 0.79424 0.27804 0.80034 0.0
Co177 Co 0.3649 0.65618 0.16502 0.0
Co178 Co 0.48494 0.74182 0.18682 0.0
O179 O 0.42522 0.72228 0.16342 0.0
C180 C 0.39153 0.6697 0.10269 0.0
O181 O 0.43595 0.67694 0.11008 0.0
C182 C 0.45933 0.82053 0.19923 0.0
O183 O 0.41348 0.78419 0.20484 0.0
O184 O 0.4436 0.71878 0.22276 0.0
O185 O 0.37055 0.65247 0.20819 0.0
H186 H 0.58729 0.71842 0.26374 0.0
H187 H 0.36184 0.74111 0.13632 0.0
O188 O 0.35799 0.6595 0.12194 0.0
H189 H 0.23538 0.68528 0.21438 0.0
H190 H 0.1888 0.52722 0.13576 0.0
H191 H 0.33545 0.56038 0.1955 0.0
H192 H 0.28396 0.64232 0.20619 0.0
H193 H 0.26539 0.61085 0.13545 0.0
O194 O 0.49308 0.81021 0.1918 0.0
H195 H 0.5122 0.69335 0.23343 0.0
H196 H 0.58525 0.83488 0.19084 0.0
H197 H 0.25952 0.47632 0.19664 0.0
H198 H 0.31378 0.78483 0.1436 0.0
H199 H 0.18549 0.45933 0.16661 0.0
H200 H 0.25012 0.75705 0.18293 0.0
O201 O 0.40527 0.62237 0.15966 0.0
H202 H 0.53802 0.83097 0.09092 0.0
H203 H 0.56603 0.72688 0.16154 0.0
H204 H 0.61517 0.75278 0.11619 0.0
H205 H 0.60133 0.80526 0.08052 0.0
H206 H 0.48944 0.8039 0.13646 0.0
H207 H 0.66099 0.86166 0.22085 0.0
H208 H 0.66237 0.80314 0.25753 0.0
O209 O 0.47825 0.67406 0.18203 0.0
C210 C 0.40048 0.68075 0.22796 0.0
C211 C 0.5872 0.74419 0.24777 0.0
C212 C 0.62854 0.82462 0.22372 0.0
N213 N 0.54454 0.76245 0.21024 0.0
C214 C 0.54486 0.73015 0.23049 0.0
C215 C 0.58553 0.80929 0.20684 0.0
C216 C 0.6293 0.79175 0.24429 0.0
C217 C 0.33385 0.72845 0.15329 0.0
N218 N 0.32552 0.689 0.17068 0.0
C219 C 0.3069 0.7535 0.15739 0.0
C220 C 0.27124 0.73794 0.17949 0.0
C221 C 0.26298 0.6977 0.19715 0.0
C222 C 0.29067 0.67358 0.19244 0.0
C223 C 0.22077 0.5342 0.14899 0.0
C224 C 0.30326 0.55335 0.18253 0.0
C225 C 0.26426 0.58143 0.14886 0.0
N226 N 0.30464 0.59056 0.16564 0.0
C227 C 0.26043 0.50564 0.18319 0.0
C228 C 0.21893 0.49612 0.16631 0.0
C229 C 0.4481 0.63252 0.16966 0.0
C230 C 0.54449 0.80821 0.10633 0.0
C231 C 0.55969 0.74959 0.1461 0.0
C232 C 0.58771 0.76425 0.12049 0.0
C233 C 0.57995 0.79372 0.10049 0.0
N234 N 0.52502 0.76401 0.15169 0.0
C235 C 0.51722 0.79292 0.13219 0.0
Co236 Co 0.70887 0.362 0.49706 0.0
Co237 Co 0.74314 0.48173 0.52051 0.0
O238 O 0.70331 0.42264 0.49632 0.0
C239 C 0.72309 0.3934 0.43556 0.0
O240 O 0.75529 0.43899 0.44449 0.0
C241 C 0.63776 0.45336 0.532 0.0
O242 O 0.62773 0.40661 0.53378 0.0
O243 O 0.72632 0.43927 0.5559 0.0
O244 O 0.71484 0.36489 0.54037 0.0
H245 H 0.8697 0.58218 0.59751 0.0
H246 H 0.62334 0.36094 0.46648 0.0
O247 O 0.70213 0.35757 0.45377 0.0
H248 H 0.54632 0.22957 0.54156 0.0
H249 H 0.66375 0.18771 0.46504 0.0
H250 H 0.77267 0.33048 0.52854 0.0
H251 H 0.63843 0.27841 0.53583 0.0
H252 H 0.65681 0.26432 0.46539 0.0
O253 O 0.68242 0.48859 0.52704 0.0
H254 H 0.82003 0.5082 0.56635 0.0
H255 H 0.74889 0.58111 0.52665 0.0
H256 H 0.78062 0.25444 0.52906 0.0
H257 H 0.53104 0.31264 0.47127 0.0
H258 H 0.72588 0.18237 0.49714 0.0
H259 H 0.49195 0.24653 0.5091 0.0
O260 O 0.78347 0.40244 0.49335 0.0
H261 H 0.70336 0.53769 0.42674 0.0
H262 H 0.838 0.56457 0.49515 0.0
H263 H 0.85944 0.6154 0.4505 0.0
H264 H 0.79183 0.6021 0.41593 0.0
H265 H 0.68366 0.48744 0.47155 0.0
H266 H 0.79749 0.65573 0.55753 0.0
H267 H 0.85856 0.65662 0.5932 0.0
O268 O 0.80468 0.47639 0.51445 0.0
C269 C 0.71876 0.39508 0.56058 0.0
C270 C 0.84334 0.58231 0.58198 0.0
C271 C 0.80276 0.62356 0.55957 0.0
N272 N 0.78195 0.54054 0.54455 0.0
C273 C 0.81523 0.5406 0.56423 0.0
C274 C 0.77528 0.58118 0.54218 0.0
C275 C 0.83703 0.62405 0.57957 0.0
C276 C 0.60662 0.33187 0.48279 0.0
N277 N 0.63628 0.32242 0.50079 0.0
C278 C 0.55432 0.30479 0.48548 0.0
C279 C 0.53242 0.26777 0.50675 0.0
C280 C 0.56291 0.25828 0.52499 0.0
C281 C 0.61507 0.28616 0.5217 0.0
C282 C 0.68775 0.21882 0.47909 0.0
C283 C 0.74853 0.29914 0.51472 0.0
C284 C 0.68406 0.26233 0.47933 0.0
N285 N 0.71406 0.30165 0.49713 0.0
C286 C 0.75329 0.25625 0.51505 0.0
C287 C 0.7226 0.21585 0.49711 0.0
C288 C 0.8161 0.44578 0.50274 0.0
C289 C 0.73313 0.54394 0.44167 0.0
C290 C 0.80839 0.55848 0.48019 0.0
C291 C 0.82074 0.58746 0.45497 0.0
C292 C 0.78279 0.58001 0.4356 0.0
N293 N 0.7596 0.52317 0.486 0.0
C294 C 0.72217 0.51574 0.46714 0.0
Co295 Co 0.34356 0.70846 0.83152 0.0
Co296 Co 0.25808 0.74273 0.85414 0.0
O297 O 0.2775 0.70299 0.83011 0.0
C298 C 0.33017 0.7227 0.76925 0.0
O299 O 0.32287 0.75977 0.7768 0.0
C300 C 0.17957 0.63778 0.86462 0.0
O301 O 0.21595 0.62742 0.86739 0.0
O302 O 0.2811 0.72354 0.88968 0.0
O303 O 0.34722 0.7168 0.87478 0.0
H304 H 0.28264 0.86717 0.93215 0.0
H305 H 0.25907 0.62125 0.80195 0.0
O306 O 0.34041 0.69922 0.78837 0.0
H307 H 0.31378 0.54846 0.87936 0.0
H308 H 0.4723 0.66157 0.80137 0.0
H309 H 0.43934 0.77399 0.86224 0.0
H310 H 0.35675 0.64024 0.8721 0.0
H311 H 0.38877 0.65475 0.80128 0.0
O312 O 0.18964 0.68255 0.85933 0.0
H313 H 0.3072 0.81758 0.9011 0.0
H314 H 0.16524 0.75023 0.859 0.0
H315 H 0.52331 0.78188 0.86316 0.0
H316 H 0.21544 0.52927 0.80826 0.0
H317 H 0.5402 0.72538 0.83257 0.0
H318 H 0.24263 0.4923 0.84726 0.0
O319 O 0.37754 0.78275 0.82672 0.0
H320 H 0.16812 0.70849 0.7586 0.0
H321 H 0.27301 0.83927 0.82969 0.0
H322 H 0.24678 0.86337 0.78478 0.0
H323 H 0.1939 0.79771 0.74887 0.0
H324 H 0.19552 0.68612 0.80373 0.0
H325 H 0.13896 0.79875 0.88976 0.0
H326 H 0.19796 0.85788 0.92656 0.0
O327 O 0.32593 0.80383 0.84938 0.0
C328 C 0.31896 0.71812 0.89468 0.0
C329 C 0.25666 0.84165 0.91612 0.0
C330 C 0.17599 0.8032 0.89235 0.0
N331 N 0.23786 0.78141 0.87811 0.0
C332 C 0.27042 0.8136 0.89843 0.0
C333 C 0.19104 0.77575 0.87505 0.0
C334 C 0.20912 0.83638 0.913 0.0
C335 C 0.27154 0.60546 0.81876 0.0
N336 N 0.3106 0.63612 0.83654 0.0
C337 C 0.24651 0.55334 0.82231 0.0
C338 C 0.26172 0.53263 0.84424 0.0
C339 C 0.30161 0.56412 0.86227 0.0
C340 C 0.32571 0.61608 0.8581 0.0
C341 C 0.46537 0.68633 0.81485 0.0
C342 C 0.44633 0.74906 0.84902 0.0
C343 C 0.41819 0.6827 0.81485 0.0
N344 N 0.40911 0.71365 0.83194 0.0
C345 C 0.49398 0.7538 0.84956 0.0
C346 C 0.50344 0.72213 0.83236 0.0
C347 C 0.36747 0.81532 0.83696 0.0
C348 C 0.19105 0.73743 0.77412 0.0
C349 C 0.25011 0.81051 0.81415 0.0
C350 C 0.23528 0.82436 0.78878 0.0
C351 C 0.20558 0.7875 0.76865 0.0
N352 N 0.23564 0.76131 0.81937 0.0
C353 C 0.20652 0.72496 0.79975 0.0
H354 H 0.60555 0.1467 0.2164 0.0
H355 H 0.45492 0.09965 0.18664 0.0
H356 H 0.58491 0.05903 0.2182 0.0
H357 H 0.43486 0.01248 0.18761 0.0
H358 H 0.39932 0.85749 0.21754 0.0
H359 H 0.42029 0.94517 0.21971 0.0
H360 H 0.56835 0.99118 0.18587 0.0
H361 H 0.54797 0.90386 0.18453 0.0
C362 C 0.56809 0.1177 0.21022 0.0
C363 C 0.5319 0.13018 0.20143 0.0
C364 C 0.55633 0.06746 0.21108 0.0
C365 C 0.5082 0.02864 0.20303 0.0
C366 C 0.472 0.04126 0.19441 0.0
C367 C 0.48366 0.09137 0.19368 0.0
C368 C 0.43641 0.88635 0.21069 0.0
C369 C 0.47195 0.87367 0.20088 0.0
C370 C 0.44836 0.93662 0.21178 0.0
C371 C 0.49602 0.97529 0.20293 0.0
C372 C 0.5316 0.9625 0.19329 0.0
C373 C 0.51975 0.91232 0.19233 0.0
H374 H 0.35359 0.45227 0.54576 0.0
H375 H 0.46308 0.60396 0.52121 0.0
H376 H 0.41958 0.43058 0.54847 0.0
H377 H 0.52886 0.58181 0.52205 0.0
H378 H 0.53812 0.39183 0.52046 0.0
H379 H 0.47203 0.4136 0.5208 0.0
H380 H 0.57934 0.56335 0.55051 0.0
H381 H 0.6457 0.54217 0.54829 0.0
C382 C 0.39185 0.48088 0.54073 0.0
C383 C 0.40329 0.52981 0.53334 0.0
C384 C 0.42973 0.46838 0.54204 0.0
C385 C 0.47986 0.50425 0.53535 0.0
C386 C 0.49107 0.55331 0.52795 0.0
C387 C 0.4533 0.56606 0.52726 0.0
C388 C 0.54737 0.42929 0.52717 0.0
C389 C 0.59698 0.46535 0.53425 0.0
C390 C 0.50942 0.44182 0.52755 0.0
C391 C 0.52005 0.49043 0.53563 0.0
C392 C 0.5697 0.52597 0.54348 0.0
C393 C 0.60777 0.51374 0.54247 0.0
H394 H 0.89707 0.35464 0.88167 0.0
H395 H 0.85385 0.46181 0.85372 0.0
H396 H 0.98454 0.42121 0.88393 0.0
H397 H 0.94165 0.52811 0.85411 0.0
H398 H 0.09859 0.64688 0.87913 0.0
H399 H 0.01097 0.5807 0.88185 0.0
H400 H 0.05339 0.47179 0.8554 0.0
H401 H 0.14125 0.53776 0.85456 0.0
C402 C 0.90646 0.39253 0.87584 0.0
C403 C 0.86876 0.40315 0.86757 0.0
C404 C 0.95671 0.43072 0.87687 0.0
C405 C 0.97066 0.4803 0.869 0.0
C406 C 0.93258 0.49076 0.86088 0.0
C407 C 0.88216 0.45271 0.86047 0.0
C408 C 0.08905 0.60867 0.87409 0.0
C409 C 0.12664 0.59737 0.86669 0.0
C410 C 0.03871 0.57067 0.87541 0.0
C411 C 0.02462 0.5206 0.86872 0.0
C412 C 0.06257 0.50954 0.86131 0.0
C413 C 0.11304 0.54741 0.86062 0.0
H414 H 0.14293 0.60669 0.48234 0.0
H415 H 0.10446 0.46252 0.51949 0.0
H416 H 0.05378 0.58062 0.47976 0.0
H417 H 0.01581 0.43695 0.51705 0.0
H418 H 0.85829 0.39021 0.48404 0.0
H419 H 0.94745 0.41615 0.4819 0.0
H420 H 0.98558 0.56284 0.51442 0.0
H421 H 0.89695 0.53741 0.51639 0.0
C422 C 0.1156 0.56943 0.48985 0.0
C423 C 0.13107 0.53677 0.50111 0.0
C424 C 0.06451 0.55459 0.48848 0.0
C425 C 0.02773 0.50669 0.49817 0.0
C426 C 0.04314 0.47383 0.50904 0.0
C427 C 0.09413 0.48871 0.51058 0.0
C428 C 0.88566 0.42811 0.49056 0.0
C429 C 0.87024 0.46165 0.50038 0.0
C430 C 0.93675 0.44287 0.48946 0.0
C431 C 0.97358 0.49156 0.49798 0.0
C432 C 0.95822 0.5253 0.50734 0.0
C433 C 0.90724 0.51051 0.50861 0.0
H434 H 0.4638 0.8574 0.81586 0.0
H435 H 0.35825 0.89615 0.85297 0.0
H436 H 0.52701 0.94648 0.81326 0.0
H437 H 0.42149 0.98474 0.85053 0.0
H438 H 0.53245 0.14209 0.81756 0.0
H439 H 0.4691 0.053 0.81543 0.0
H440 H 0.57756 0.01461 0.84783 0.0
H441 H 0.64091 0.10318 0.84976 0.0
C442 C 0.45394 0.88477 0.82336 0.0
C443 C 0.40582 0.86942 0.83461 0.0
C444 C 0.49026 0.93582 0.82198 0.0
C445 C 0.47922 0.97266 0.83166 0.0
C446 C 0.43097 0.95736 0.84253 0.0
C447 C 0.39478 0.90642 0.84407 0.0
C448 C 0.54293 0.11468 0.82405 0.0
C449 C 0.5919 0.13 0.83382 0.0
C450 C 0.50653 0.06363 0.82296 0.0
C451 C 0.51833 0.02676 0.83146 0.0
C452 C 0.56743 0.04202 0.84077 0.0
C453 C 0.60371 0.09295 0.84202 0.0
H454 H 0.3937 0.5361 0.14873 0.0
H455 H 0.53857 0.64215 0.18504 0.0
H456 H 0.41972 0.47301 0.146 0.0
H457 H 0.56405 0.57904 0.18249 0.0
H458 H 0.60999 0.46755 0.14992 0.0
H459 H 0.58422 0.53088 0.14748 0.0
H460 H 0.43781 0.42311 0.18078 0.0
H461 H 0.46303 0.35983 0.18303 0.0
C462 C 0.4311 0.5461 0.15601 0.0
C463 C 0.46396 0.5943 0.16711 0.0
C464 C 0.44591 0.50986 0.15455 0.0
C465 C 0.49396 0.52107 0.16401 0.0
C466 C 0.52705 0.56943 0.17466 0.0
C467 C 0.51221 0.60554 0.17628 0.0
C468 C 0.57219 0.45723 0.15654 0.0
C469 C 0.53866 0.40849 0.16667 0.0
C470 C 0.55752 0.49361 0.15526 0.0
C471 C 0.50895 0.48197 0.16391 0.0
C472 C 0.47524 0.43308 0.17358 0.0
C473 C 0.48991 0.39686 0.17502 0.0
H474 H 0.72025 0.27099 0.94353 0.0
H475 H 0.60723 0.30517 0.91357 0.0
H476 H 0.7022 0.2824 0.99343 0.0
H477 H 0.59032 0.31798 0.96347 0.0
H478 H 0.53835 0.2868 0.05851 0.0
H479 H 0.5542 0.27409 0.00823 0.0
H480 H 0.7136 0.3482 0.02603 0.0
H481 H 0.69769 0.35975 0.07634 0.0
C482 C 0.6917 0.28114 0.94752 0.0
C483 C 0.66542 0.28739 0.92441 0.0
C484 C 0.68157 0.28801 0.97619 0.0
C485 C 0.64503 0.30147 0.98252 0.0
C486 C 0.61834 0.30715 0.95944 0.0
C487 C 0.62833 0.3001 0.93076 0.0
C488 C 0.5768 0.30063 0.05164 0.0
C489 C 0.61673 0.32425 0.07146 0.0
C490 C 0.58591 0.29347 0.02277 0.0
C491 C 0.63518 0.30989 0.01306 0.0
C492 C 0.67511 0.33422 0.03284 0.0
C493 C 0.666 0.3412 0.06168 0.0
H494 H 0.42908 0.74643 0.27328 0.0
H495 H 0.33251 0.59009 0.25138 0.0
H496 H 0.39808 0.72929 0.32284 0.0
H497 H 0.30364 0.57195 0.30141 0.0
H498 H 0.22534 0.56113 0.3868 0.0
H499 H 0.25413 0.57913 0.33665 0.0
H500 H 0.4007 0.69435 0.36634 0.0
H501 H 0.37066 0.67839 0.41602 0.0
C502 C 0.4018 0.70817 0.27923 0.0
C503 C 0.38335 0.66961 0.25845 0.0
C504 C 0.38411 0.69816 0.30777 0.0
C505 C 0.34829 0.64905 0.31648 0.0
C506 C 0.33037 0.6104 0.29561 0.0
C507 C 0.34728 0.62067 0.2669 0.0
C508 C 0.2636 0.59046 0.38247 0.0
C509 C 0.29558 0.61856 0.4053 0.0
C510 C 0.28038 0.60059 0.3537 0.0
C511 C 0.32995 0.63834 0.34714 0.0
C512 C 0.36198 0.66587 0.37022 0.0
C513 C 0.34485 0.65649 0.39885 0.0
H514 H 0.71416 0.2511 0.72523 0.0
H515 H 0.63885 0.33535 0.7426 0.0
H516 H 0.72703 0.27977 0.67494 0.0
H517 H 0.6506 0.36292 0.69232 0.0
H518 H 0.72826 0.44807 0.6103 0.0
H519 H 0.71671 0.41829 0.66014 0.0
H520 H 0.68345 0.27168 0.62993 0.0
H521 H 0.69637 0.30173 0.58009 0.0
C522 C 0.69983 0.27524 0.71825 0.0
C523 C 0.67553 0.29096 0.73795 0.0
C524 C 0.70709 0.29159 0.68939 0.0
C525 C 0.69012 0.32393 0.67958 0.0
C526 C 0.66503 0.33884 0.69923 0.0
C527 C 0.65794 0.32268 0.72805 0.0
C528 C 0.7186 0.40949 0.61422 0.0
C529 C 0.713 0.3773 0.59105 0.0
C530 C 0.71164 0.3923 0.64285 0.0
C531 C 0.69876 0.34244 0.64909 0.0
C532 C 0.6938 0.31042 0.62597 0.0
C533 C 0.70092 0.32765 0.59732 0.0
H534 H 0.25324 0.68101 0.93995 0.0
H535 H 0.40946 0.73993 0.91802 0.0
H536 H 0.27027 0.66724 0.98954 0.0
H537 H 0.42752 0.72929 0.9681 0.0
H538 H 0.43809 0.66264 0.05382 0.0
H539 H 0.42005 0.67287 1.0036 0.0
H540 H 0.30538 0.70529 0.03292 0.0
H541 H 0.3214 0.69177 0.08273 0.0
C542 C 0.29146 0.69178 0.94589 0.0
C543 C 0.33002 0.71167 0.9251 0.0
C544 C 0.3014 0.68417 0.97446 0.0
C545 C 0.35045 0.69732 0.98318 0.0
C546 C 0.3891 0.71771 0.96228 0.0
C547 C 0.37889 0.72427 0.93355 0.0
C548 C 0.40886 0.67167 0.0494 0.0
C549 C 0.38094 0.67605 0.07217 0.0
C550 C 0.39872 0.678 0.02059 0.0
C551 C 0.36113 0.68998 0.0139 0.0
C552 C 0.33374 0.69491 0.03691 0.0
C553 C 0.34314 0.6875 0.06561 0.0
H554 H 0.74758 0.46233 0.39189 0.0
H555 H 0.66379 0.30279 0.40935 0.0
H556 H 0.71834 0.4464 0.34172 0.0
H557 H 0.63566 0.28683 0.35917 0.0
H558 H 0.55041 0.27885 0.27699 0.0
H559 H 0.58009 0.29708 0.32689 0.0
H560 H 0.72652 0.41115 0.29679 0.0
H561 H 0.69657 0.39406 0.24697 0.0
C562 C 0.72341 0.42384 0.38496 0.0
C563 C 0.70803 0.38386 0.40465 0.0
C564 C 0.70673 0.41468 0.35616 0.0
C565 C 0.6744 0.36532 0.34639 0.0
C566 C 0.65974 0.32536 0.36604 0.0
C567 C 0.67623 0.33451 0.3948 0.0
C568 C 0.58891 0.30794 0.28096 0.0
C569 C 0.62108 0.33476 0.25784 0.0
C570 C 0.60605 0.31818 0.30962 0.0
C571 C 0.65584 0.35538 0.3159 0.0
C572 C 0.68782 0.38262 0.29281 0.0
C573 C 0.67065 0.37252 0.26416 0.0
H574 H 0.33684 0.77634 0.7204 0.0
H575 H 0.30831 0.63068 0.74919 0.0
H576 H 0.32673 0.74815 0.67014 0.0
H577 H 0.29493 0.60126 0.6994 0.0
H578 H 0.31978 0.5736 0.6066 0.0
H579 H 0.3334 0.60457 0.65614 0.0
H580 H 0.27057 0.69898 0.63451 0.0
H581 H 0.26006 0.67011 0.58446 0.0
C582 C 0.32796 0.73814 0.71596 0.0
C583 C 0.32375 0.70588 0.7387 0.0
C584 C 0.32171 0.72172 0.68712 0.0
C585 C 0.31 0.67224 0.68041 0.0
C586 C 0.30514 0.63993 0.7034 0.0
C587 C 0.31247 0.6567 0.7321 0.0
C588 C 0.3088 0.60091 0.61249 0.0
C589 C 0.28871 0.61928 0.59165 0.0
C590 C 0.31632 0.61856 0.64102 0.0
C591 C 0.30288 0.65426 0.64969 0.0
C592 C 0.28234 0.67228 0.62874 0.0
C593 C 0.27586 0.6554 0.60003 0.0
loop_
_geom_bond_atom_site_label_1
_geom_bond_atom_site_label_2
_geom_bond_distance
_geom_bond_site_symmetry_2
_ccdc_geom_bond_type
Co0 O2 2.143 . S
Co0 O8 2.074 . S
Co0 O11 2.093 . S
Co0 O24 2.097 . S
Co0 N41 2.151 . S
Co0 N49 2.214 . S
Co1 O2 2.160 . S
Co1 O7 2.058 . S
Co1 O17 2.057 . S
Co1 O32 2.037 . S
Co1 N36 2.145 . S
Co1 N57 2.257 . S
O2 Co0 2.143 . S
O2 Co1 2.160 . S
C3 O4 1.278 . S
C3 O11 1.224 . S
O4 C3 1.278 . S
C5 O6 1.245 . S
C5 O17 1.232 . S
O6 C5 1.245 . S
O7 Co1 2.058 . S
O7 C33 1.269 . S
O8 Co0 2.074 . S
O8 C33 1.257 . S
H9 C34 0.930 . S
H10 C40 0.930 . S
O11 Co0 2.093 . S
O11 C3 1.224 . S
H12 C44 0.929 . S
H13 C46 0.930 . S
H14 C47 0.930 . S
H15 C45 0.929 . S
H16 C48 0.928 . S
O17 Co1 2.057 . S
O17 C5 1.232 . S
H18 C37 0.929 . S
H19 C38 0.929 . S
H20 C50 0.931 . S
H21 C42 0.929 . S
H22 C51 0.930 . S
H23 C43 0.931 . S
O24 Co0 2.097 . S
O24 C52 1.214 . S
H25 C53 0.929 . S
H26 C54 0.929 . S
H27 C55 0.930 . S
H28 C56 0.929 . S
H29 C58 0.930 . S
H30 C35 0.930 . S
H31 C39 0.930 . S
O32 Co1 2.037 . S
O32 C52 1.234 . S
C33 O7 1.269 . S
C33 O8 1.257 . S
C34 H9 0.930 . S
C34 C37 1.388 . S
C34 C39 1.418 . S
C35 H30 0.930 . S
C35 C38 1.404 . S
C35 C39 1.353 . S
N36 Co1 2.145 . S
N36 C37 1.397 . S
N36 C38 1.334 . S
C37 H18 0.929 . S
C37 C34 1.388 . S
C37 N36 1.397 . S
C38 H19 0.929 . S
C38 C35 1.404 . S
C38 N36 1.334 . S
C39 H31 0.930 . S
C39 C34 1.418 . S
C39 C35 1.353 . S
C40 H10 0.930 . S
C40 N41 1.330 . S
C40 C42 1.446 . S
N41 Co0 2.151 . S
N41 C40 1.330 . S
N41 C45 1.418 . S
C42 H21 0.929 . S
C42 C40 1.446 . S
C42 C43 1.332 . S
C43 H23 0.931 . S
C43 C42 1.332 . S
C43 C44 1.267 . S
C44 H12 0.929 . S
C44 C43 1.267 . S
C44 C45 1.251 . S
C45 H15 0.929 . S
C45 N41 1.418 . S
C45 C44 1.251 . S
C46 H13 0.930 . S
C46 C48 1.406 . S
C46 C51 1.261 . S
C47 H14 0.930 . S
C47 N49 1.325 . S
C47 C50 1.357 . S
C48 H16 0.928 . S
C48 C46 1.406 . S
C48 N49 1.261 . S
N49 Co0 2.214 . S
N49 C47 1.325 . S
N49 C48 1.261 . S
C50 H20 0.931 . S
C50 C47 1.357 . S
C50 C51 1.312 . S
C51 H22 0.930 . S
C51 C46 1.261 . S
C51 C50 1.312 . S
C52 O24 1.214 . S
C52 O32 1.234 . S
C53 H25 0.929 . S
C53 C56 1.391 . S
C53 C58 1.391 . S
C54 H26 0.929 . S
C54 C55 1.390 . S
C54 N57 1.391 . S
C55 H27 0.930 . S
C55 C54 1.390 . S
C55 C56 1.392 . S
C56 H28 0.929 . S
C56 C53 1.391 . S
C56 C55 1.392 . S
N57 Co1 2.257 . S
N57 C54 1.391 . S
N57 C58 1.388 . S
C58 H29 0.930 . S
C58 C53 1.391 . S
C58 N57 1.388 . S
Co59 O61 2.143 . S
Co59 O67 2.074 . S
Co59 O70 2.093 . S
Co59 O83 2.097 . S
Co59 N100 2.151 . S
Co59 N108 2.214 . S
Co60 O61 2.160 . S
Co60 O66 2.058 . S
Co60 O76 2.057 . S
Co60 O91 2.037 . S
Co60 N95 2.145 . S
Co60 N116 2.257 . S
O61 Co59 2.143 . S
O61 Co60 2.160 . S
C62 O63 1.278 . S
C62 O70 1.224 . S
O63 C62 1.278 . S
C64 O65 1.245 . S
C64 O76 1.232 . S
O65 C64 1.245 . S
O66 Co60 2.058 . S
O66 C92 1.269 . S
O67 Co59 2.074 . S
O67 C92 1.257 . S
H68 C93 0.930 . S
H69 C99 0.930 . S
O70 Co59 2.093 . S
O70 C62 1.224 . S
H71 C103 0.929 . S
H72 C105 0.930 . S
H73 C106 0.930 . S
H74 C104 0.929 . S
H75 C107 0.928 . S
O76 Co60 2.057 . S
O76 C64 1.232 . S
H77 C96 0.929 . S
H78 C97 0.929 . S
H79 C109 0.931 . S
H80 C101 0.929 . S
H81 C110 0.930 . S
H82 C102 0.931 . S
O83 Co59 2.097 . S
O83 C111 1.214 . S
H84 C112 0.929 . S
H85 C113 0.929 . S
H86 C114 0.930 . S
H87 C115 0.929 . S
H88 C117 0.930 . S
H89 C94 0.930 . S
H90 C98 0.930 . S
O91 Co60 2.037 . S
O91 C111 1.234 . S
C92 O66 1.269 . S
C92 O67 1.257 . S
C93 H68 0.930 . S
C93 C96 1.388 . S
C93 C98 1.418 . S
C94 H89 0.930 . S
C94 C97 1.404 . S
C94 C98 1.353 . S
N95 Co60 2.145 . S
N95 C96 1.397 . S
N95 C97 1.334 . S
C96 H77 0.929 . S
C96 C93 1.388 . S
C96 N95 1.397 . S
C97 H78 0.929 . S
C97 C94 1.404 . S
C97 N95 1.334 . S
C98 H90 0.930 . S
C98 C93 1.418 . S
C98 C94 1.353 . S
C99 H69 0.930 . S
C99 N100 1.330 . S
C99 C101 1.446 . S
N100 Co59 2.151 . S
N100 C99 1.330 . S
N100 C104 1.418 . S
C101 H80 0.929 . S
C101 C99 1.446 . S
C101 C102 1.332 . S
C102 H82 0.931 . S
C102 C101 1.332 . S
C102 C103 1.267 . S
C103 H71 0.929 . S
C103 C102 1.267 . S
C103 C104 1.251 . S
C104 H74 0.929 . S
C104 N100 1.418 . S
C104 C103 1.251 . S
C105 H72 0.930 . S
C105 C107 1.406 . S
C105 C110 1.261 . S
C106 H73 0.930 . S
C106 N108 1.325 . S
C106 C109 1.357 . S
C107 H75 0.928 . S
C107 C105 1.406 . S
C107 N108 1.261 . S
N108 Co59 2.214 . S
N108 C106 1.325 . S
N108 C107 1.261 . S
C109 H79 0.931 . S
C109 C106 1.357 . S
C109 C110 1.312 . S
C110 H81 0.930 . S
C110 C105 1.261 . S
C110 C109 1.312 . S
C111 O83 1.214 . S
C111 O91 1.234 . S
C112 H84 0.929 . S
C112 C115 1.391 . S
C112 C117 1.391 . S
C113 H85 0.929 . S
C113 C114 1.390 . S
C113 N116 1.391 . S
C114 H86 0.930 . S
C114 C113 1.390 . S
C114 C115 1.392 . S
C115 H87 0.929 . S
C115 C112 1.391 . S
C115 C114 1.392 . S
N116 Co60 2.257 . S
N116 C113 1.391 . S
N116 C117 1.388 . S
C117 H88 0.930 . S
C117 C112 1.391 . S
C117 N116 1.388 . S
Co118 O120 2.143 . S
Co118 O126 2.074 . S
Co118 O129 2.093 . S
Co118 O142 2.097 . S
Co118 N159 2.151 . S
Co118 N167 2.214 . S
Co119 O120 2.160 . S
Co119 O125 2.058 . S
Co119 O135 2.057 . S
Co119 O150 2.037 . S
Co119 N154 2.145 . S
Co119 N175 2.257 . S
O120 Co118 2.143 . S
O120 Co119 2.160 . S
C121 O122 1.278 . S
C121 O129 1.224 . S
O122 C121 1.278 . S
C123 O124 1.245 . S
C123 O135 1.232 . S
O124 C123 1.245 . S
O125 Co119 2.058 . S
O125 C151 1.269 . S
O126 Co118 2.074 . S
O126 C151 1.257 . S
H127 C152 0.930 . S
H128 C158 0.930 . S
O129 Co118 2.093 . S
O129 C121 1.224 . S
H130 C162 0.929 . S
H131 C164 0.930 . S
H132 C165 0.930 . S
H133 C163 0.929 . S
H134 C166 0.928 . S
O135 Co119 2.057 . S
O135 C123 1.232 . S
H136 C155 0.929 . S
H137 C156 0.929 . S
H138 C168 0.931 . S
H139 C160 0.929 . S
H140 C169 0.930 . S
H141 C161 0.931 . S
O142 Co118 2.097 . S
O142 C170 1.214 . S
H143 C171 0.929 . S
H144 C172 0.929 . S
H145 C173 0.930 . S
H146 C174 0.929 . S
H147 C176 0.930 . S
H148 C153 0.930 . S
H149 C157 0.930 . S
O150 Co119 2.037 . S
O150 C170 1.234 . S
C151 O125 1.269 . S
C151 O126 1.257 . S
C152 H127 0.930 . S
C152 C155 1.388 . S
C152 C157 1.418 . S
C153 H148 0.930 . S
C153 C156 1.404 . S
C153 C157 1.353 . S
N154 Co119 2.145 . S
N154 C155 1.397 . S
N154 C156 1.334 . S
C155 H136 0.929 . S
C155 C152 1.388 . S
C155 N154 1.397 . S
C156 H137 0.929 . S
C156 C153 1.404 . S
C156 N154 1.334 . S
C157 H149 0.930 . S
C157 C152 1.418 . S
C157 C153 1.353 . S
C158 H128 0.930 . S
C158 N159 1.330 . S
C158 C160 1.446 . S
N159 Co118 2.151 . S
N159 C158 1.330 . S
N159 C163 1.418 . S
C160 H139 0.929 . S
C160 C158 1.446 . S
C160 C161 1.332 . S
C161 H141 0.931 . S
C161 C160 1.332 . S
C161 C162 1.267 . S
C162 H130 0.929 . S
C162 C161 1.267 . S
C162 C163 1.251 . S
C163 H133 0.929 . S
C163 N159 1.418 . S
C163 C162 1.251 . S
C164 H131 0.930 . S
C164 C166 1.406 . S
C164 C169 1.261 . S
C165 H132 0.930 . S
C165 N167 1.325 . S
C165 C168 1.357 . S
C166 H134 0.928 . S
C166 C164 1.406 . S
C166 N167 1.261 . S
N167 Co118 2.214 . S
N167 C165 1.325 . S
N167 C166 1.261 . S
C168 H138 0.931 . S
C168 C165 1.357 . S
C168 C169 1.312 . S
C169 H140 0.930 . S
C169 C164 1.261 . S
C169 C168 1.312 . S
C170 O142 1.214 . S
C170 O150 1.234 . S
C171 H143 0.929 . S
C171 C174 1.391 . S
C171 C176 1.391 . S
C172 H144 0.929 . S
C172 C173 1.390 . S
C172 N175 1.391 . S
C173 H145 0.930 . S
C173 C172 1.390 . S
C173 C174 1.392 . S
C174 H146 0.929 . S
C174 C171 1.391 . S
C174 C173 1.392 . S
N175 Co119 2.257 . S
N175 C172 1.391 . S
N175 C176 1.388 . S
C176 H147 0.930 . S
C176 C171 1.391 . S
C176 N175 1.388 . S
Co177 O179 2.143 . S
Co177 O185 2.074 . S
Co177 O188 2.093 . S
Co177 O201 2.097 . S
Co177 N218 2.151 . S
Co177 N226 2.214 . S
Co178 O179 2.160 . S
Co178 O184 2.058 . S
Co178 O194 2.057 . S
Co178 O209 2.037 . S
Co178 N213 2.145 . S
Co178 N234 2.257 . S
O179 Co177 2.143 . S
O179 Co178 2.160 . S
C180 O181 1.278 . S
C180 O188 1.224 . S
O181 C180 1.278 . S
C182 O183 1.245 . S
C182 O194 1.232 . S
O183 C182 1.245 . S
O184 Co178 2.058 . S
O184 C210 1.269 . S
O185 Co177 2.074 . S
O185 C210 1.257 . S
H186 C211 0.930 . S
H187 C217 0.930 . S
O188 Co177 2.093 . S
O188 C180 1.224 . S
H189 C221 0.929 . S
H190 C223 0.930 . S
H191 C224 0.930 . S
H192 C222 0.929 . S
H193 C225 0.928 . S
O194 Co178 2.057 . S
O194 C182 1.232 . S
H195 C214 0.929 . S
H196 C215 0.929 . S
H197 C227 0.931 . S
H198 C219 0.929 . S
H199 C228 0.930 . S
H200 C220 0.931 . S
O201 Co177 2.097 . S
O201 C229 1.214 . S
H202 C230 0.929 . S
H203 C231 0.929 . S
H204 C232 0.930 . S
H205 C233 0.929 . S
H206 C235 0.930 . S
H207 C212 0.930 . S
H208 C216 0.930 . S
O209 Co178 2.037 . S
O209 C229 1.234 . S
C210 O184 1.269 . S
C210 O185 1.257 . S
C211 H186 0.930 . S
C211 C214 1.388 . S
C211 C216 1.418 . S
C212 H207 0.930 . S
C212 C215 1.404 . S
C212 C216 1.353 . S
N213 Co178 2.145 . S
N213 C214 1.397 . S
N213 C215 1.334 . S
C214 H195 0.929 . S
C214 C211 1.388 . S
C214 N213 1.397 . S
C215 H196 0.929 . S
C215 C212 1.404 . S
C215 N213 1.334 . S
C216 H208 0.930 . S
C216 C211 1.418 . S
C216 C212 1.353 . S
C217 H187 0.930 . S
C217 N218 1.330 . S
C217 C219 1.446 . S
N218 Co177 2.151 . S
N218 C217 1.330 . S
N218 C222 1.418 . S
C219 H198 0.929 . S
C219 C217 1.446 . S
C219 C220 1.332 . S
C220 H200 0.931 . S
C220 C219 1.332 . S
C220 C221 1.267 . S
C221 H189 0.929 . S
C221 C220 1.267 . S
C221 C222 1.251 . S
C222 H192 0.929 . S
C222 N218 1.418 . S
C222 C221 1.251 . S
C223 H190 0.930 . S
C223 C225 1.406 . S
C223 C228 1.261 . S
C224 H191 0.930 . S
C224 N226 1.325 . S
C224 C227 1.357 . S
C225 H193 0.928 . S
C225 C223 1.406 . S
C225 N226 1.261 . S
N226 Co177 2.214 . S
N226 C224 1.325 . S
N226 C225 1.261 . S
C227 H197 0.931 . S
C227 C224 1.357 . S
C227 C228 1.312 . S
C228 H199 0.930 . S
C228 C223 1.261 . S
C228 C227 1.312 . S
C229 O201 1.214 . S
C229 O209 1.234 . S
C230 H202 0.929 . S
C230 C233 1.391 . S
C230 C235 1.391 . S
C231 H203 0.929 . S
C231 C232 1.390 . S
C231 N234 1.391 . S
C232 H204 0.930 . S
C232 C231 1.390 . S
C232 C233 1.392 . S
C233 H205 0.929 . S
C233 C230 1.391 . S
C233 C232 1.392 . S
N234 Co178 2.257 . S
N234 C231 1.391 . S
N234 C235 1.388 . S
C235 H206 0.930 . S
C235 C230 1.391 . S
C235 N234 1.388 . S
Co236 O238 2.143 . S
Co236 O244 2.074 . S
Co236 O247 2.093 . S
Co236 O260 2.097 . S
Co236 N277 2.151 . S
Co236 N285 2.214 . S
Co237 O238 2.160 . S
Co237 O243 2.058 . S
Co237 O253 2.057 . S
Co237 O268 2.037 . S
Co237 N272 2.145 . S
Co237 N293 2.257 . S
O238 Co236 2.143 . S
O238 Co237 2.160 . S
C239 O240 1.278 . S
C239 O247 1.224 . S
O240 C239 1.278 . S
C241 O242 1.245 . S
C241 O253 1.232 . S
O242 C241 1.245 . S
O243 Co237 2.058 . S
O243 C269 1.269 . S
O244 Co236 2.074 . S
O244 C269 1.257 . S
H245 C270 0.930 . S
H246 C276 0.930 . S
O247 Co236 2.093 . S
O247 C239 1.224 . S
H248 C280 0.929 . S
H249 C282 0.930 . S
H250 C283 0.930 . S
H251 C281 0.929 . S
H252 C284 0.928 . S
O253 Co237 2.057 . S
O253 C241 1.232 . S
H254 C273 0.929 . S
H255 C274 0.929 . S
H256 C286 0.931 . S
H257 C278 0.929 . S
H258 C287 0.930 . S
H259 C279 0.931 . S
O260 Co236 2.097 . S
O260 C288 1.214 . S
H261 C289 0.929 . S
H262 C290 0.929 . S
H263 C291 0.930 . S
H264 C292 0.929 . S
H265 C294 0.930 . S
H266 C271 0.930 . S
H267 C275 0.930 . S
O268 Co237 2.037 . S
O268 C288 1.234 . S
C269 O243 1.269 . S
C269 O244 1.257 . S
C270 H245 0.930 . S
C270 C273 1.388 . S
C270 C275 1.418 . S
C271 H266 0.930 . S
C271 C274 1.404 . S
C271 C275 1.353 . S
N272 Co237 2.145 . S
N272 C273 1.397 . S
N272 C274 1.334 . S
C273 H254 0.929 . S
C273 C270 1.388 . S
C273 N272 1.397 . S
C274 H255 0.929 . S
C274 C271 1.404 . S
C274 N272 1.334 . S
C275 H267 0.930 . S
C275 C270 1.418 . S
C275 C271 1.353 . S
C276 H246 0.930 . S
C276 N277 1.330 . S
C276 C278 1.446 . S
N277 Co236 2.151 . S
N277 C276 1.330 . S
N277 C281 1.418 . S
C278 H257 0.929 . S
C278 C276 1.446 . S
C278 C279 1.332 . S
C279 H259 0.931 . S
C279 C278 1.332 . S
C279 C280 1.267 . S
C280 H248 0.929 . S
C280 C279 1.267 . S
C280 C281 1.251 . S
C281 H251 0.929 . S
C281 N277 1.418 . S
C281 C280 1.251 . S
C282 H249 0.930 . S
C282 C284 1.406 . S
C282 C287 1.261 . S
C283 H250 0.930 . S
C283 N285 1.325 . S
C283 C286 1.357 . S
C284 H252 0.928 . S
C284 C282 1.406 . S
C284 N285 1.261 . S
N285 Co236 2.214 . S
N285 C283 1.325 . S
N285 C284 1.261 . S
C286 H256 0.931 . S
C286 C283 1.357 . S
C286 C287 1.312 . S
C287 H258 0.930 . S
C287 C282 1.261 . S
C287 C286 1.312 . S
C288 O260 1.214 . S
C288 O268 1.234 . S
C289 H261 0.929 . S
C289 C292 1.391 . S
C289 C294 1.391 . S
C290 H262 0.929 . S
C290 C291 1.390 . S
C290 N293 1.391 . S
C291 H263 0.930 . S
C291 C290 1.390 . S
C291 C292 1.392 . S
C292 H264 0.929 . S
C292 C289 1.391 . S
C292 C291 1.392 . S
N293 Co237 2.257 . S
N293 C290 1.391 . S
N293 C294 1.388 . S
C294 H265 0.930 . S
C294 C289 1.391 . S
C294 N293 1.388 . S
Co295 O297 2.143 . S
Co295 O303 2.074 . S
Co295 O306 2.093 . S
Co295 O319 2.097 . S
Co295 N336 2.151 . S
Co295 N344 2.214 . S
Co296 O297 2.160 . S
Co296 O302 2.058 . S
Co296 O312 2.057 . S
Co296 O327 2.037 . S
Co296 N331 2.145 . S
Co296 N352 2.257 . S
O297 Co295 2.143 . S
O297 Co296 2.160 . S
C298 O299 1.278 . S
C298 O306 1.224 . S
O299 C298 1.278 . S
C300 O301 1.245 . S
C300 O312 1.232 . S
O301 C300 1.245 . S
O302 Co296 2.058 . S
O302 C328 1.269 . S
O303 Co295 2.074 . S
O303 C328 1.257 . S
H304 C329 0.930 . S
H305 C335 0.930 . S
O306 Co295 2.093 . S
O306 C298 1.224 . S
H307 C339 0.929 . S
H308 C341 0.930 . S
H309 C342 0.930 . S
H310 C340 0.929 . S
H311 C343 0.928 . S
O312 Co296 2.057 . S
O312 C300 1.232 . S
H313 C332 0.929 . S
H314 C333 0.929 . S
H315 C345 0.931 . S
H316 C337 0.929 . S
H317 C346 0.930 . S
H318 C338 0.931 . S
O319 Co295 2.097 . S
O319 C347 1.214 . S
H320 C348 0.929 . S
H321 C349 0.929 . S
H322 C350 0.930 . S
H323 C351 0.929 . S
H324 C353 0.930 . S
H325 C330 0.930 . S
H326 C334 0.930 . S
O327 Co296 2.037 . S
O327 C347 1.234 . S
C328 O302 1.269 . S
C328 O303 1.257 . S
C329 H304 0.930 . S
C329 C332 1.388 . S
C329 C334 1.418 . S
C330 H325 0.930 . S
C330 C333 1.404 . S
C330 C334 1.353 . S
N331 Co296 2.145 . S
N331 C332 1.397 . S
N331 C333 1.334 . S
C332 H313 0.929 . S
C332 C329 1.388 . S
C332 N331 1.397 . S
C333 H314 0.929 . S
C333 C330 1.404 . S
C333 N331 1.334 . S
C334 H326 0.930 . S
C334 C329 1.418 . S
C334 C330 1.353 . S
C335 H305 0.930 . S
C335 N336 1.330 . S
C335 C337 1.446 . S
N336 Co295 2.151 . S
N336 C335 1.330 . S
N336 C340 1.418 . S
C337 H316 0.929 . S
C337 C335 1.446 . S
C337 C338 1.332 . S
C338 H318 0.931 . S
C338 C337 1.332 . S
C338 C339 1.267 . S
C339 H307 0.929 . S
C339 C338 1.267 . S
C339 C340 1.251 . S
C340 H310 0.929 . S
C340 N336 1.418 . S
C340 C339 1.251 . S
C341 H308 0.930 . S
C341 C343 1.406 . S
C341 C346 1.261 . S
C342 H309 0.930 . S
C342 N344 1.325 . S
C342 C345 1.357 . S
C343 H311 0.928 . S
C343 C341 1.406 . S
C343 N344 1.261 . S
N344 Co295 2.214 . S
N344 C342 1.325 . S
N344 C343 1.261 . S
C345 H315 0.931 . S
C345 C342 1.357 . S
C345 C346 1.312 . S
C346 H317 0.930 . S
C346 C341 1.261 . S
C346 C345 1.312 . S
C347 O319 1.214 . S
C347 O327 1.234 . S
C348 H320 0.929 . S
C348 C351 1.391 . S
C348 C353 1.391 . S
C349 H321 0.929 . S
C349 C350 1.390 . S
C349 N352 1.391 . S
C350 H322 0.930 . S
C350 C349 1.390 . S
C350 C351 1.392 . S
C351 H323 0.929 . S
C351 C348 1.391 . S
C351 C350 1.392 . S
N352 Co296 2.257 . S
N352 C349 1.391 . S
N352 C353 1.388 . S
C353 H324 0.930 . S
C353 C348 1.391 . S
C353 N352 1.388 . S
H354 C362 0.950 . S
H355 C367 0.950 . S
H356 C364 0.950 . S
H357 C366 0.950 . S
H358 C368 0.950 . S
H359 C370 0.950 . S
H360 C372 0.950 . S
H361 C373 0.950 . S
C362 H354 0.950 . S
C362 C363 1.386 . S
C362 C364 1.391 . S
C363 C362 1.386 . S
C363 C367 1.393 . S
C364 H356 0.950 . S
C364 C362 1.391 . S
C364 C365 1.400 . S
C365 C364 1.400 . S
C365 C366 1.398 . S
C365 C371 1.491 1_545 S
C366 H357 0.950 . S
C366 C365 1.398 . S
C366 C367 1.391 . S
C367 H355 0.950 . S
C367 C363 1.393 . S
C367 C366 1.391 . S
C368 H358 0.950 . S
C368 C369 1.386 . S
C368 C370 1.391 . S
C369 C368 1.386 . S
C369 C373 1.393 . S
C370 H359 0.950 . S
C370 C368 1.391 . S
C370 C371 1.400 . S
C371 C365 1.491 1_565 S
C371 C370 1.400 . S
C371 C372 1.398 . S
C372 H360 0.950 . S
C372 C371 1.398 . S
C372 C373 1.391 . S
C373 H361 0.950 . S
C373 C369 1.393 . S
C373 C372 1.391 . S
H374 C382 0.950 . S
H375 C387 0.950 . S
H376 C384 0.950 . S
H377 C386 0.950 . S
H378 C388 0.950 . S
H379 C390 0.950 . S
H380 C392 0.950 . S
H381 C393 0.950 . S
C382 H374 0.950 . S
C382 C383 1.386 . S
C382 C384 1.391 . S
C383 C382 1.386 . S
C383 C387 1.393 . S
C384 H376 0.950 . S
C384 C382 1.391 . S
C384 C385 1.400 . S
C385 C384 1.400 . S
C385 C386 1.398 . S
C385 C391 1.491 . S
C386 H377 0.950 . S
C386 C385 1.398 . S
C386 C387 1.391 . S
C387 H375 0.950 . S
C387 C383 1.393 . S
C387 C386 1.391 . S
C388 H378 0.950 . S
C388 C389 1.386 . S
C388 C390 1.391 . S
C389 C388 1.386 . S
C389 C393 1.393 . S
C390 H379 0.950 . S
C390 C388 1.391 . S
C390 C391 1.400 . S
C391 C385 1.491 . S
C391 C390 1.400 . S
C391 C392 1.398 . S
C392 H380 0.950 . S
C392 C391 1.398 . S
C392 C393 1.391 . S
C393 H381 0.950 . S
C393 C389 1.393 . S
C393 C392 1.391 . S
H394 C402 0.950 . S
H395 C407 0.950 . S
H396 C404 0.950 . S
H397 C406 0.950 . S
H398 C408 0.950 . S
H399 C410 0.950 . S
H400 C412 0.950 . S
H401 C413 0.950 . S
C402 H394 0.950 . S
C402 C403 1.386 . S
C402 C404 1.391 . S
C403 C402 1.386 . S
C403 C407 1.393 . S
C404 H396 0.950 . S
C404 C402 1.391 . S
C404 C405 1.400 . S
C405 C404 1.400 . S
C405 C406 1.398 . S
C405 C411 1.491 1_655 S
C406 H397 0.950 . S
C406 C405 1.398 . S
C406 C407 1.391 . S
C407 H395 0.950 . S
C407 C403 1.393 . S
C407 C406 1.391 . S
C408 H398 0.950 . S
C408 C409 1.386 . S
C408 C410 1.391 . S
C409 C408 1.386 . S
C409 C413 1.393 . S
C410 H399 0.950 . S
C410 C408 1.391 . S
C410 C411 1.400 . S
C411 C405 1.491 1_455 S
C411 C410 1.400 . S
C411 C412 1.398 . S
C412 H400 0.950 . S
C412 C411 1.398 . S
C412 C413 1.391 . S
C413 H401 0.950 . S
C413 C409 1.393 . S
C413 C412 1.391 . S
H414 C422 0.950 . S
H415 C427 0.950 . S
H416 C424 0.950 . S
H417 C426 0.950 . S
H418 C428 0.950 . S
H419 C430 0.950 . S
H420 C432 0.950 . S
H421 C433 0.950 . S
C422 H414 0.950 . S
C422 C423 1.386 . S
C422 C424 1.391 . S
C423 C422 1.386 . S
C423 C427 1.393 . S
C424 H416 0.950 . S
C424 C422 1.391 . S
C424 C425 1.400 . S
C425 C424 1.400 . S
C425 C426 1.398 . S
C425 C431 1.491 1_455 S
C426 H417 0.950 . S
C426 C425 1.398 . S
C426 C427 1.391 . S
C427 H415 0.950 . S
C427 C423 1.393 . S
C427 C426 1.391 . S
C428 H418 0.950 . S
C428 C429 1.386 . S
C428 C430 1.391 . S
C429 C428 1.386 . S
C429 C433 1.393 . S
C430 H419 0.950 . S
C430 C428 1.391 . S
C430 C431 1.400 . S
C431 C425 1.491 1_655 S
C431 C430 1.400 . S
C431 C432 1.398 . S
C432 H420 0.950 . S
C432 C431 1.398 . S
C432 C433 1.391 . S
C433 H421 0.950 . S
C433 C429 1.393 . S
C433 C432 1.391 . S
H434 C442 0.950 . S
H435 C447 0.950 . S
H436 C444 0.950 . S
H437 C446 0.950 . S
H438 C448 0.950 . S
H439 C450 0.950 . S
H440 C452 0.950 . S
H441 C453 0.950 . S
C442 H434 0.950 . S
C442 C443 1.386 . S
C442 C444 1.391 . S
C443 C442 1.386 . S
C443 C447 1.393 . S
C444 H436 0.950 . S
C444 C442 1.391 . S
C444 C445 1.400 . S
C445 C444 1.400 . S
C445 C446 1.398 . S
C445 C451 1.491 1_565 S
C446 H437 0.950 . S
C446 C445 1.398 . S
C446 C447 1.391 . S
C447 H435 0.950 . S
C447 C443 1.393 . S
C447 C446 1.391 . S
C448 H438 0.950 . S
C448 C449 1.386 . S
C448 C450 1.391 . S
C449 C448 1.386 . S
C449 C453 1.393 . S
C450 H439 0.950 . S
C450 C448 1.391 . S
C450 C451 1.400 . S
C451 C445 1.491 1_545 S
C451 C450 1.400 . S
C451 C452 1.398 . S
C452 H440 0.950 . S
C452 C451 1.398 . S
C452 C453 1.391 . S
C453 H441 0.950 . S
C453 C449 1.393 . S
C453 C452 1.391 . S
H454 C462 0.950 . S
H455 C467 0.950 . S
H456 C464 0.950 . S
H457 C466 0.950 . S
H458 C468 0.950 . S
H459 C470 0.950 . S
H460 C472 0.950 . S
H461 C473 0.950 . S
C462 H454 0.950 . S
C462 C463 1.386 . S
C462 C464 1.391 . S
C463 C462 1.386 . S
C463 C467 1.393 . S
C464 H456 0.950 . S
C464 C462 1.391 . S
C464 C465 1.400 . S
C465 C464 1.400 . S
C465 C466 1.398 . S
C465 C471 1.491 . S
C466 H457 0.950 . S
C466 C465 1.398 . S
C466 C467 1.391 . S
C467 H455 0.950 . S
C467 C463 1.393 . S
C467 C466 1.391 . S
C468 H458 0.950 . S
C468 C469 1.386 . S
C468 C470 1.391 . S
C469 C468 1.386 . S
C469 C473 1.393 . S
C470 H459 0.950 . S
C470 C468 1.391 . S
C470 C471 1.400 . S
C471 C465 1.491 . S
C471 C470 1.400 . S
C471 C472 1.398 . S
C472 H460 0.950 . S
C472 C471 1.398 . S
C472 C473 1.391 . S
C473 H461 0.950 . S
C473 C469 1.393 . S
C473 C472 1.391 . S
H474 C482 0.950 . S
H475 C487 0.950 . S
H476 C484 0.950 . S
H477 C486 0.950 . S
H478 C488 0.950 . S
H479 C490 0.950 . S
H480 C492 0.950 . S
H481 C493 0.950 . S
C482 H474 0.950 . S
C482 C483 1.386 . S
C482 C484 1.391 . S
C483 C482 1.386 . S
C483 C487 1.393 . S
C484 H476 0.950 . S
C484 C482 1.391 . S
C484 C485 1.400 . S
C485 C484 1.400 . S
C485 C486 1.398 . S
C485 C491 1.491 1_556 S
C486 H477 0.950 . S
C486 C485 1.398 . S
C486 C487 1.391 . S
C487 H475 0.950 . S
C487 C483 1.393 . S
C487 C486 1.391 . S
C488 H478 0.950 . S
C488 C489 1.386 . S
C488 C490 1.391 . S
C489 C488 1.386 . S
C489 C493 1.393 . S
C490 H479 0.950 . S
C490 C488 1.391 . S
C490 C491 1.400 . S
C491 C485 1.491 1_554 S
C491 C490 1.400 . S
C491 C492 1.398 . S
C492 H480 0.950 . S
C492 C491 1.398 . S
C492 C493 1.391 . S
C493 H481 0.950 . S
C493 C489 1.393 . S
C493 C492 1.391 . S
H494 C502 0.950 . S
H495 C507 0.950 . S
H496 C504 0.950 . S
H497 C506 0.950 . S
H498 C508 0.950 . S
H499 C510 0.950 . S
H500 C512 0.950 . S
H501 C513 0.950 . S
C502 H494 0.950 . S
C502 C503 1.386 . S
C502 C504 1.391 . S
C503 C502 1.386 . S
C503 C507 1.393 . S
C504 H496 0.950 . S
C504 C502 1.391 . S
C504 C505 1.400 . S
C505 C504 1.400 . S
C505 C506 1.398 . S
C505 C511 1.491 . S
C506 H497 0.950 . S
C506 C505 1.398 . S
C506 C507 1.391 . S
C507 H495 0.950 . S
C507 C503 1.393 . S
C507 C506 1.391 . S
C508 H498 0.950 . S
C508 C509 1.386 . S
C508 C510 1.391 . S
C509 C508 1.386 . S
C509 C513 1.393 . S
C510 H499 0.950 . S
C510 C508 1.391 . S
C510 C511 1.400 . S
C511 C505 1.491 . S
C511 C510 1.400 . S
C511 C512 1.398 . S
C512 H500 0.950 . S
C512 C511 1.398 . S
C512 C513 1.391 . S
C513 H501 0.950 . S
C513 C509 1.393 . S
C513 C512 1.391 . S
H514 C522 0.950 . S
H515 C527 0.950 . S
H516 C524 0.950 . S
H517 C526 0.950 . S
H518 C528 0.950 . S
H519 C530 0.950 . S
H520 C532 0.950 . S
H521 C533 0.950 . S
C522 H514 0.950 . S
C522 C523 1.386 . S
C522 C524 1.391 . S
C523 C522 1.386 . S
C523 C527 1.393 . S
C524 H516 0.950 . S
C524 C522 1.391 . S
C524 C525 1.400 . S
C525 C524 1.400 . S
C525 C526 1.398 . S
C525 C531 1.491 . S
C526 H517 0.950 . S
C526 C525 1.398 . S
C526 C527 1.391 . S
C527 H515 0.950 . S
C527 C523 1.393 . S
C527 C526 1.391 . S
C528 H518 0.950 . S
C528 C529 1.386 . S
C528 C530 1.391 . S
C529 C528 1.386 . S
C529 C533 1.393 . S
C530 H519 0.950 . S
C530 C528 1.391 . S
C530 C531 1.400 . S
C531 C525 1.491 . S
C531 C530 1.400 . S
C531 C532 1.398 . S
C532 H520 0.950 . S
C532 C531 1.398 . S
C532 C533 1.391 . S
C533 H521 0.950 . S
C533 C529 1.393 . S
C533 C532 1.391 . S
H534 C542 0.950 . S
H535 C547 0.950 . S
H536 C544 0.950 . S
H537 C546 0.950 . S
H538 C548 0.950 . S
H539 C550 0.950 . S
H540 C552 0.950 . S
H541 C553 0.950 . S
C542 H534 0.950 . S
C542 C543 1.386 . S
C542 C544 1.391 . S
C543 C542 1.386 . S
C543 C547 1.393 . S
C544 H536 0.950 . S
C544 C542 1.391 . S
C544 C545 1.400 . S
C545 C544 1.400 . S
C545 C546 1.398 . S
C545 C551 1.491 1_556 S
C546 H537 0.950 . S
C546 C545 1.398 . S
C546 C547 1.391 . S
C547 H535 0.950 . S
C547 C543 1.393 . S
C547 C546 1.391 . S
C548 H538 0.950 . S
C548 C549 1.386 . S
C548 C550 1.391 . S
C549 C548 1.386 . S
C549 C553 1.393 . S
C550 H539 0.950 . S
C550 C548 1.391 . S
C550 C551 1.400 . S
C551 C545 1.491 1_554 S
C551 C550 1.400 . S
C551 C552 1.398 . S
C552 H540 0.950 . S
C552 C551 1.398 . S
C552 C553 1.391 . S
C553 H541 0.950 . S
C553 C549 1.393 . S
C553 C552 1.391 . S
H554 C562 0.950 . S
H555 C567 0.950 . S
H556 C564 0.950 . S
H557 C566 0.950 . S
H558 C568 0.950 . S
H559 C570 0.950 . S
H560 C572 0.950 . S
H561 C573 0.950 . S
C562 H554 0.950 . S
C562 C563 1.386 . S
C562 C564 1.391 . S
C563 C562 1.386 . S
C563 C567 1.393 . S
C564 H556 0.950 . S
C564 C562 1.391 . S
C564 C565 1.400 . S
C565 C564 1.400 . S
C565 C566 1.398 . S
C565 C571 1.491 . S
C566 H557 0.950 . S
C566 C565 1.398 . S
C566 C567 1.391 . S
C567 H555 0.950 . S
C567 C563 1.393 . S
C567 C566 1.391 . S
C568 H558 0.950 . S
C568 C569 1.386 . S
C568 C570 1.391 . S
C569 C568 1.386 . S
C569 C573 1.393 . S
C570 H559 0.950 . S
C570 C568 1.391 . S
C570 C571 1.400 . S
C571 C565 1.491 . S
C571 C570 1.400 . S
C571 C572 1.398 . S
C572 H560 0.950 . S
C572 C571 1.398 . S
C572 C573 1.391 . S
C573 H561 0.950 . S
C573 C569 1.393 . S
C573 C572 1.391 . S
H574 C582 0.950 . S
H575 C587 0.950 . S
H576 C584 0.950 . S
H577 C586 0.950 . S
H578 C588 0.950 . S
H579 C590 0.950 . S
H580 C592 0.950 . S
H581 C593 0.950 . S
C582 H574 0.950 . S
C582 C583 1.386 . S
C582 C584 1.391 . S
C583 C582 1.386 . S
C583 C587 1.393 . S
C584 H576 0.950 . S
C584 C582 1.391 . S
C584 C585 1.400 . S
C585 C584 1.400 . S
C585 C586 1.398 . S
C585 C591 1.491 . S
C586 H577 0.950 . S
C586 C585 1.398 . S
C586 C587 1.391 . S
C587 H575 0.950 . S
C587 C583 1.393 . S
C587 C586 1.391 . S
C588 H578 0.950 . S
C588 C589 1.386 . S
C588 C590 1.391 . S
C589 C588 1.386 . S
C589 C593 1.393 . S
C590 H579 0.950 . S
C590 C588 1.391 . S
C590 C591 1.400 . S
C591 C585 1.491 . S
C591 C590 1.400 . S
C591 C592 1.398 . S
C592 H580 0.950 . S
C592 C591 1.398 . S
C592 C593 1.391 . S
C593 H581 0.950 . S
C593 C589 1.393 . S
C593 C592 1.391 . S
C363 C5 1.187 . S
C369 C182 1.187 . S
C383 C64 1.191 . S
C389 C241 1.191 . S
C403 C123 1.190 . S
C409 C300 1.190 . S
C423 C111 1.856 . S
C429 C288 1.859 . S
C443 C347 1.855 . S
C449 C170 1.859 . S
C463 C229 1.854 . S
C469 C52 1.858 . S
C483 C151 1.360 . S
C489 C3 1.352 . S
C503 C210 1.355 . S
C509 C62 1.344 . S
C523 C121 1.338 . S
C529 C269 1.346 . S
C543 C328 1.347 . S
C549 C180 1.335 . S
C563 C239 1.338 . S
C569 C33 1.346 . S
C583 C298 1.352 . S
C589 C92 1.358 . S
