# Generated by pormake.
# Topology wgi, (5)-cn, num edge types: 1
# Building blocks:
#     Node 0, Type 0, BuildingBlock: BEQFEK_clean_sbu_0, # of connection points: 5
#     Node 1, Type 0, BuildingBlock: BEQFEK_clean_sbu_0, # of connection points: 5
#     Node 2, Type 0, BuildingBlock: BEQFEK_clean_sbu_0, # of connection points: 5
#     Node 3, Type 0, BuildingBlock: BEQFEK_clean_sbu_0, # of connection points: 5
#     Node 4, Type 0, BuildingBlock: BEQFEK_clean_sbu_0, # of connection points: 5
#     Node 5, Type 0, BuildingBlock: BEQFEK_clean_sbu_0, # of connection points: 5
#     Node 6, Type 0, BuildingBlock: BEQFEK_clean_sbu_0, # of connection points: 5
#     Node 7, Type 0, BuildingBlock: BEQFEK_clean_sbu_0, # of connection points: 5
#     Node 8, Type 0, BuildingBlock: BEQFEK_clean_sbu_0, # of connection points: 5
#     Node 9, Type 0, BuildingBlock: BEQFEK_clean_sbu_0, # of connection points: 5
#     Node 10, Type 0, BuildingBlock: BEQFEK_clean_sbu_0, # of connection points: 5
#     Node 11, Type 0, BuildingBlock: BEQFEK_clean_sbu_0, # of connection points: 5
#     Node 12, Type 0, BuildingBlock: BEQFEK_clean_sbu_0, # of connection points: 5
#     Node 13, Type 0, BuildingBlock: BEQFEK_clean_sbu_0, # of connection points: 5
#     Node 14, Type 0, BuildingBlock: BEQFEK_clean_sbu_0, # of connection points: 5
#     Node 15, Type 0, BuildingBlock: BEQFEK_clean_sbu_0, # of connection points: 5
#     Node 16, Type 0, BuildingBlock: BEQFEK_clean_sbu_0, # of connection points: 5
#     Node 17, Type 0, BuildingBlock: BEQFEK_clean_sbu_0, # of connection points: 5
#     Node 18, Type 0, BuildingBlock: BEQFEK_clean_sbu_0, # of connection points: 5
#     Node 19, Type 0, BuildingBlock: BEQFEK_clean_sbu_0, # of connection points: 5
#     Node 20, Type 0, BuildingBlock: BEQFEK_clean_sbu_0, # of connection points: 5
#     Node 21, Type 0, BuildingBlock: BEQFEK_clean_sbu_0, # of connection points: 5
#     Node 22, Type 0, BuildingBlock: BEQFEK_clean_sbu_0, # of connection points: 5
#     Node 23, Type 0, BuildingBlock: BEQFEK_clean_sbu_0, # of connection points: 5
#     Node 24, Type 0, BuildingBlock: BEQFEK_clean_sbu_0, # of connection points: 5
#     Node 25, Type 0, BuildingBlock: BEQFEK_clean_sbu_0, # of connection points: 5
#     Node 26, Type 0, BuildingBlock: BEQFEK_clean_sbu_0, # of connection points: 5
#     Node 27, Type 0, BuildingBlock: BEQFEK_clean_sbu_0, # of connection points: 5
#     Node 28, Type 0, BuildingBlock: BEQFEK_clean_sbu_0, # of connection points: 5
#     Node 29, Type 0, BuildingBlock: BEQFEK_clean_sbu_0, # of connection points: 5
#     Node 30, Type 0, BuildingBlock: BEQFEK_clean_sbu_0, # of connection points: 5
#     Node 31, Type 0, BuildingBlock: BEQFEK_clean_sbu_0, # of connection points: 5
#     Edge 32, Type (0, 0), BuildingBlock: XIVTED_clean_linker_0, # of connection points: 2
#     Edge 33, Type (0, 0), BuildingBlock: XIVTED_clean_linker_0, # of connection points: 2
#     Edge 34, Type (0, 0), BuildingBlock: XIVTED_clean_linker_0, # of connection points: 2
#     Edge 35, Type (0, 0), BuildingBlock: XIVTED_clean_linker_0, # of connection points: 2
#     Edge 36, Type (0, 0), BuildingBlock: XIVTED_clean_linker_0, # of connection points: 2
#     Edge 37, Type (0, 0), BuildingBlock: XIVTED_clean_linker_0, # of connection points: 2
#     Edge 38, Type (0, 0), BuildingBlock: XIVTED_clean_linker_0, # of connection points: 2
#     Edge 39, Type (0, 0), BuildingBlock: XIVTED_clean_linker_0, # of connection points: 2
#     Edge 40, Type (0, 0), BuildingBlock: XIVTED_clean_linker_0, # of connection points: 2
#     Edge 41, Type (0, 0), BuildingBlock: XIVTED_clean_linker_0, # of connection points: 2
#     Edge 42, Type (0, 0), BuildingBlock: XIVTED_clean_linker_0, # of connection points: 2
#     Edge 43, Type (0, 0), BuildingBlock: XIVTED_clean_linker_0, # of connection points: 2
#     Edge 44, Type (0, 0), BuildingBlock: XIVTED_clean_linker_0, # of connection points: 2
#     Edge 45, Type (0, 0), BuildingBlock: XIVTED_clean_linker_0, # of connection points: 2
#     Edge 46, Type (0, 0), BuildingBlock: XIVTED_clean_linker_0, # of connection points: 2
#     Edge 47, Type (0, 0), BuildingBlock: XIVTED_clean_linker_0, # of connection points: 2
#     Edge 48, Type (0, 0), BuildingBlock: XIVTED_clean_linker_0, # of connection points: 2
#     Edge 49, Type (0, 0), BuildingBlock: XIVTED_clean_linker_0, # of connection points: 2
#     Edge 50, Type (0, 0), BuildingBlock: XIVTED_clean_linker_0, # of connection points: 2
#     Edge 51, Type (0, 0), BuildingBlock: XIVTED_clean_linker_0, # of connection points: 2
#     Edge 52, Type (0, 0), BuildingBlock: XIVTED_clean_linker_0, # of connection points: 2
#     Edge 53, Type (0, 0), BuildingBlock: XIVTED_clean_linker_0, # of connection points: 2
#     Edge 54, Type (0, 0), BuildingBlock: XIVTED_clean_linker_0, # of connection points: 2
#     Edge 55, Type (0, 0), BuildingBlock: XIVTED_clean_linker_0, # of connection points: 2
#     Edge 56, Type (0, 0), BuildingBlock: XIVTED_clean_linker_0, # of connection points: 2
#     Edge 57, Type (0, 0), BuildingBlock: XIVTED_clean_linker_0, # of connection points: 2
#     Edge 58, Type (0, 0), BuildingBlock: XIVTED_clean_linker_0, # of connection points: 2
#     Edge 59, Type (0, 0), BuildingBlock: XIVTED_clean_linker_0, # of connection points: 2
#     Edge 60, Type (0, 0), BuildingBlock: XIVTED_clean_linker_0, # of connection points: 2
#     Edge 61, Type (0, 0), BuildingBlock: XIVTED_clean_linker_0, # of connection points: 2
#     Edge 62, Type (0, 0), BuildingBlock: XIVTED_clean_linker_0, # of connection points: 2
#     Edge 63, Type (0, 0), BuildingBlock: XIVTED_clean_linker_0, # of connection points: 2
#     Edge 64, Type (0, 0), BuildingBlock: XIVTED_clean_linker_0, # of connection points: 2
#     Edge 65, Type (0, 0), BuildingBlock: XIVTED_clean_linker_0, # of connection points: 2
#     Edge 66, Type (0, 0), BuildingBlock: XIVTED_clean_linker_0, # of connection points: 2
#     Edge 67, Type (0, 0), BuildingBlock: XIVTED_clean_linker_0, # of connection points: 2
#     Edge 68, Type (0, 0), BuildingBlock: XIVTED_clean_linker_0, # of connection points: 2
#     Edge 69, Type (0, 0), BuildingBlock: XIVTED_clean_linker_0, # of connection points: 2
#     Edge 70, Type (0, 0), BuildingBlock: XIVTED_clean_linker_0, # of connection points: 2
#     Edge 71, Type (0, 0), BuildingBlock: XIVTED_clean_linker_0, # of connection points: 2
#     Edge 72, Type (0, 0), BuildingBlock: XIVTED_clean_linker_0, # of connection points: 2
#     Edge 73, Type (0, 0), BuildingBlock: XIVTED_clean_linker_0, # of connection points: 2
#     Edge 74, Type (0, 0), BuildingBlock: XIVTED_clean_linker_0, # of connection points: 2
#     Edge 75, Type (0, 0), BuildingBlock: XIVTED_clean_linker_0, # of connection points: 2
#     Edge 76, Type (0, 0), BuildingBlock: XIVTED_clean_linker_0, # of connection points: 2
#     Edge 77, Type (0, 0), BuildingBlock: XIVTED_clean_linker_0, # of connection points: 2
#     Edge 78, Type (0, 0), BuildingBlock: XIVTED_clean_linker_0, # of connection points: 2
#     Edge 79, Type (0, 0), BuildingBlock: XIVTED_clean_linker_0, # of connection points: 2
#     Edge 80, Type (0, 0), BuildingBlock: XIVTED_clean_linker_0, # of connection points: 2
#     Edge 81, Type (0, 0), BuildingBlock: XIVTED_clean_linker_0, # of connection points: 2
#     Edge 82, Type (0, 0), BuildingBlock: XIVTED_clean_linker_0, # of connection points: 2
#     Edge 83, Type (0, 0), BuildingBlock: XIVTED_clean_linker_0, # of connection points: 2
#     Edge 84, Type (0, 0), BuildingBlock: XIVTED_clean_linker_0, # of connection points: 2
#     Edge 85, Type (0, 0), BuildingBlock: XIVTED_clean_linker_0, # of connection points: 2
#     Edge 86, Type (0, 0), BuildingBlock: XIVTED_clean_linker_0, # of connection points: 2
#     Edge 87, Type (0, 0), BuildingBlock: XIVTED_clean_linker_0, # of connection points: 2
#     Edge 88, Type (0, 0), BuildingBlock: XIVTED_clean_linker_0, # of connection points: 2
#     Edge 89, Type (0, 0), BuildingBlock: XIVTED_clean_linker_0, # of connection points: 2
#     Edge 90, Type (0, 0), BuildingBlock: XIVTED_clean_linker_0, # of connection points: 2
#     Edge 91, Type (0, 0), BuildingBlock: XIVTED_clean_linker_0, # of connection points: 2
#     Edge 92, Type (0, 0), BuildingBlock: XIVTED_clean_linker_0, # of connection points: 2
#     Edge 93, Type (0, 0), BuildingBlock: XIVTED_clean_linker_0, # of connection points: 2
#     Edge 94, Type (0, 0), BuildingBlock: XIVTED_clean_linker_0, # of connection points: 2
#     Edge 95, Type (0, 0), BuildingBlock: XIVTED_clean_linker_0, # of connection points: 2
#     Edge 96, Type (0, 0), BuildingBlock: XIVTED_clean_linker_0, # of connection points: 2
#     Edge 97, Type (0, 0), BuildingBlock: XIVTED_clean_linker_0, # of connection points: 2
#     Edge 98, Type (0, 0), BuildingBlock: XIVTED_clean_linker_0, # of connection points: 2
#     Edge 99, Type (0, 0), BuildingBlock: XIVTED_clean_linker_0, # of connection points: 2
#     Edge 100, Type (0, 0), BuildingBlock: XIVTED_clean_linker_0, # of connection points: 2
#     Edge 101, Type (0, 0), BuildingBlock: XIVTED_clean_linker_0, # of connection points: 2
#     Edge 102, Type (0, 0), BuildingBlock: XIVTED_clean_linker_0, # of connection points: 2
#     Edge 103, Type (0, 0), BuildingBlock: XIVTED_clean_linker_0, # of connection points: 2
#     Edge 104, Type (0, 0), BuildingBlock: XIVTED_clean_linker_0, # of connection points: 2
#     Edge 105, Type (0, 0), BuildingBlock: XIVTED_clean_linker_0, # of connection points: 2
#     Edge 106, Type (0, 0), BuildingBlock: XIVTED_clean_linker_0, # of connection points: 2
#     Edge 107, Type (0, 0), BuildingBlock: XIVTED_clean_linker_0, # of connection points: 2
#     Edge 108, Type (0, 0), BuildingBlock: XIVTED_clean_linker_0, # of connection points: 2
#     Edge 109, Type (0, 0), BuildingBlock: XIVTED_clean_linker_0, # of connection points: 2
#     Edge 110, Type (0, 0), BuildingBlock: XIVTED_clean_linker_0, # of connection points: 2
#     Edge 111, Type (0, 0), BuildingBlock: XIVTED_clean_linker_0, # of connection points: 2
# Relax obj value: 0.192
# Max RMSD: 0.122
# Mean RMSD: 0.122
data_MOF--net-wgi--node1-BEQFEK_clean_sbu_0--edge1-XIVTED_clean_linker_0
_symmetry_space_group_name_H-M    P1
_symmetry_Int_Tables_number       1
_symmetry_cell_setting            triclinic
loop_
_symmetry_equiv_pos_as_xyz
'x, y, z'
_cell_length_a     76.881341
_cell_length_b     76.887228
_cell_length_c     29.448813
_cell_angle_alpha  90.044827
_cell_angle_beta   90.025801
_cell_angle_gamma 90.000345
loop_
_atom_site_label
_atom_site_type_symbol
_atom_site_fract_x
_atom_site_fract_y
_atom_site_fract_z
_atom_type_partial_charge
Co0 Co 0.10735 0.16861 0.33913 0.0
Co1 Co 0.14824 0.17312 0.34564 0.0
C2 C 0.13265 0.15471 0.26775 0.0
O3 O 0.11768 0.15738 0.28512 0.0
O4 O 0.14662 0.16034 0.28637 0.0
C5 C 0.07626 0.14737 0.3396 0.0
O6 O 0.08695 0.13452 0.3303 0.0
C7 C 0.18652 0.16953 0.37034 0.0
C8 C 0.18748 0.19154 0.41861 0.0
C9 C 0.19702 0.1776 0.40269 0.0
N10 N 0.1712 0.17813 0.36856 0.0
N11 N 0.17222 0.19154 0.39656 0.0
C12 C 0.19034 0.15301 0.34545 0.0
H13 H 0.17846 0.14798 0.32849 0.0
H14 H 0.19565 0.14315 0.36924 0.0
H15 H 0.20046 0.15558 0.31944 0.0
C16 C 0.11301 0.15236 0.42831 0.0
N17 N 0.11896 0.16027 0.39068 0.0
N18 N 0.13608 0.16053 0.39153 0.0
C19 C 0.14154 0.15216 0.42916 0.0
C20 C 0.12712 0.14676 0.45352 0.0
C21 C 0.09426 0.15167 0.44201 0.0
H22 H 0.08712 0.16301 0.42813 0.0
H23 H 0.08835 0.13952 0.42879 0.0
H24 H 0.09293 0.15168 0.47953 0.0
O25 O 0.10922 0.19403 0.33623 0.0
O26 O 0.13785 0.19685 0.33963 0.0
H27 H 0.16663 0.16035 0.4519 0.0
H28 H 0.16132 0.13824 0.46692 0.0
C29 C 0.16011 0.1483 0.44015 0.0
H30 H 0.16668 0.14344 0.4093 0.0
H31 H 0.16197 0.20006 0.40312 0.0
O32 O 0.08224 0.16272 0.34321 0.0
C33 C 0.12273 0.20353 0.33705 0.0
Co34 Co 0.08552 0.86178 0.59964 0.0
Co35 Co 0.07915 0.9025 0.59777 0.0
C36 C 0.09918 0.88419 0.52434 0.0
O37 O 0.09686 0.8696 0.54377 0.0
O38 O 0.093 0.89827 0.54079 0.0
C39 C 0.10651 0.83063 0.6004 0.0
O40 O 0.11852 0.84098 0.58377 0.0
C41 C 0.08663 0.93963 0.62008 0.0
C42 C 0.05988 0.94881 0.63198 0.0
C43 C 0.07714 0.95355 0.63743 0.0
N44 N 0.07545 0.92707 0.60692 0.0
N45 N 0.05948 0.93304 0.61234 0.0
C46 C 0.106 0.93771 0.61962 0.0
H47 H 0.10973 0.92376 0.62012 0.0
H48 H 0.11203 0.9448 0.64845 0.0
H49 H 0.11107 0.9435 0.58776 0.0
C50 C 0.10101 0.87056 0.68795 0.0
N51 N 0.09347 0.8754 0.64874 0.0
N52 N 0.08993 0.89219 0.65017 0.0
C53 C 0.09435 0.89827 0.69174 0.0
C54 C 0.10203 0.8849 0.71602 0.0
C55 C 0.10538 0.85218 0.70032 0.0
H56 H 0.0942 0.84359 0.69247 0.0
H57 H 0.11675 0.84787 0.6801 0.0
H58 H 0.10854 0.85083 0.7369 0.0
O59 O 0.05976 0.8636 0.59583 0.0
O60 O 0.05559 0.89215 0.59268 0.0
H61 H 0.08768 0.91569 0.74699 0.0
H62 H 0.10076 0.92492 0.70389 0.0
C63 C 0.08982 0.91589 0.7099 0.0
H64 H 0.07778 0.92072 0.69376 0.0
H65 H 0.04826 0.92575 0.6065 0.0
O66 O 0.09152 0.83679 0.60911 0.0
C67 C 0.04963 0.8767 0.59351 0.0
Co68 Co 0.39163 0.83792 0.83402 0.0
Co69 Co 0.35111 0.83259 0.84484 0.0
C70 C 0.36684 0.85316 0.76751 0.0
O71 O 0.38212 0.85026 0.78205 0.0
O72 O 0.35341 0.84697 0.78737 0.0
C73 C 0.42445 0.85599 0.82338 0.0
O74 O 0.41506 0.86788 0.80272 0.0
C75 C 0.31592 0.84228 0.87896 0.0
C76 C 0.30393 0.81632 0.88483 0.0
C77 C 0.30116 0.83372 0.89439 0.0
N78 N 0.32697 0.83043 0.86139 0.0
N79 N 0.31946 0.815 0.86408 0.0
C80 C 0.31972 0.8613 0.88282 0.0
H81 H 0.33378 0.86389 0.87753 0.0
H82 H 0.31542 0.86636 0.91629 0.0
H83 H 0.31222 0.86831 0.85635 0.0
C84 C 0.38763 0.85288 0.92453 0.0
N85 N 0.3806 0.84609 0.88676 0.0
N86 N 0.36404 0.8426 0.89394 0.0
C87 C 0.36038 0.84615 0.9379 0.0
C88 C 0.37511 0.85307 0.95807 0.0
C89 C 0.40617 0.85861 0.9288 0.0
H90 H 0.41486 0.84712 0.92653 0.0
H91 H 0.4093 0.86761 0.90065 0.0
H92 H 0.40863 0.86549 0.96129 0.0
O93 O 0.38853 0.81234 0.82978 0.0
O94 O 0.36002 0.8085 0.83635 0.0
H95 H 0.3385 0.82882 0.94505 0.0
H96 H 0.34799 0.83593 -0.00217 0.0
C97 C 0.34455 0.83999 0.96278 0.0
H98 H 0.33511 0.8508 0.96568 0.0
H99 H 0.32538 0.80338 0.85423 0.0
O100 O 0.41706 0.84232 0.83815 0.0
C101 C 0.37532 0.80236 0.83184 0.0
Co102 Co 0.41989 0.14248 0.08902 0.0
Co103 Co 0.42457 0.10163 0.08865 0.0
C104 C 0.4037 0.12011 0.0169 0.0
O105 O 0.40688 0.13469 0.03553 0.0
O106 O 0.40983 0.10593 0.03294 0.0
C107 C 0.40013 0.17429 0.09224 0.0
O108 O 0.38718 0.16415 0.08015 0.0
C109 C 0.41559 0.06463 0.10921 0.0
C110 C 0.44193 0.0536 0.11709 0.0
C111 C 0.42448 0.04959 0.12174 0.0
N112 N 0.42736 0.07703 0.09888 0.0
N113 N 0.44305 0.07017 0.10281 0.0
C114 C 0.39634 0.06704 0.10514 0.0
H115 H 0.39298 0.08108 0.10554 0.0
H116 H 0.38932 0.06007 0.13247 0.0
H117 H 0.392 0.06147 0.07227 0.0
C118 C 0.40678 0.13522 0.18073 0.0
N119 N 0.41277 0.12969 0.14035 0.0
N120 N 0.41499 0.11268 0.14157 0.0
C121 C 0.41086 0.10699 0.18368 0.0
C122 C 0.40517 0.12104 0.20916 0.0
C123 C 0.40451 0.15394 0.19354 0.0
H124 H 0.41582 0.1616 0.18155 0.0
H125 H 0.39258 0.15906 0.17717 0.0
H126 H 0.40332 0.15567 0.23081 0.0
O127 O 0.44529 0.1397 0.08088 0.0
O128 O 0.44859 0.11102 0.08028 0.0
H129 H 0.42529 0.08311 0.18671 0.0
H130 H 0.41348 0.08805 0.23785 0.0
C131 C 0.41311 0.08875 0.20033 0.0
H132 H 0.40186 0.08087 0.18912 0.0
H133 H 0.45459 0.07702 0.09773 0.0
O134 O 0.41518 0.16773 0.09759 0.0
C135 C 0.45499 0.1263 0.07855 0.0
Co136 Co 0.11174 0.83808 0.14077 0.0
Co137 Co 0.1526 0.83268 0.14266 0.0
C138 C 0.13389 0.85142 0.21742 0.0
O139 O 0.11941 0.84918 0.19727 0.0
O140 O 0.14811 0.8455 0.20113 0.0
C141 C 0.08003 0.85843 0.13851 0.0
O142 O 0.08997 0.87101 0.15397 0.0
C143 C 0.19021 0.84089 0.12737 0.0
C144 C 0.19983 0.81484 0.10831 0.0
C145 C 0.20478 0.83212 0.11092 0.0
N146 N 0.17717 0.82932 0.13273 0.0
N147 N 0.18324 0.81374 0.12236 0.0
C148 C 0.18883 0.85974 0.13957 0.0
H149 H 0.1943 0.86162 0.1741 0.0
H150 H 0.175 0.86389 0.14015 0.0
H151 H 0.19645 0.86798 0.11599 0.0
C152 C 0.12017 0.85422 0.05335 0.0
N153 N 0.1252 0.84657 0.0922 0.0
N154 N 0.14225 0.84457 0.09206 0.0
C155 C 0.1485 0.85082 0.05236 0.0
C156 C 0.13476 0.85743 0.02734 0.0
C157 C 0.10161 0.85654 0.03905 0.0
H158 H 0.09388 0.84498 0.04887 0.0
H159 H 0.09616 0.86818 0.05615 0.0
H160 H 0.10041 0.85832 0.00181 0.0
O161 O 0.1139 0.81256 0.14345 0.0
O162 O 0.14251 0.80875 0.14466 0.0
H163 H 0.17276 0.83729 0.04561 0.0
H164 H 0.16879 0.8529 0.00127 0.0
C165 C 0.16714 0.85021 0.03791 0.0
H166 H 0.17437 0.86042 0.05636 0.0
H167 H 0.17576 0.80241 0.12244 0.0
O168 O 0.08665 0.84352 0.13135 0.0
C169 C 0.12711 0.8026 0.14417 0.0
Co170 Co 0.41784 0.86368 0.40378 0.0
Co171 Co 0.42251 0.90447 0.39542 0.0
C172 C 0.40045 0.88793 0.46852 0.0
O173 O 0.40403 0.87279 0.45381 0.0
O174 O 0.40677 0.90162 0.45021 0.0
C175 C 0.39996 0.83053 0.40919 0.0
O176 O 0.38735 0.83964 0.42765 0.0
C177 C 0.41402 0.93991 0.35984 0.0
C178 C 0.44057 0.95056 0.35434 0.0
C179 C 0.42345 0.9539 0.34278 0.0
N180 N 0.4252 0.92866 0.37953 0.0
N181 N 0.44096 0.93549 0.37739 0.0
C182 C 0.39499 0.93654 0.35382 0.0
H183 H 0.39206 0.9225 0.358 0.0
H184 H 0.39048 0.94125 0.32019 0.0
H185 H 0.38776 0.9439 0.38018 0.0
C186 C 0.40523 0.86793 0.31088 0.0
N187 N 0.41098 0.87486 0.34997 0.0
N188 N 0.41412 0.89157 0.34415 0.0
C189 C 0.41137 0.89548 0.29993 0.0
C190 C 0.40532 0.88073 0.27812 0.0
C191 C 0.40007 0.8493 0.30481 0.0
H192 H 0.41161 0.84083 0.30953 0.0
H193 H 0.3902 0.84588 0.33068 0.0
H194 H 0.39437 0.84681 0.27084 0.0
O195 O 0.44316 0.86719 0.41331 0.0
O196 O 0.44635 0.89582 0.40858 0.0
H197 H 0.42844 0.91763 0.29544 0.0
H198 H 0.42195 0.90865 0.24158 0.0
C199 C 0.41752 0.91164 0.2766 0.0
H200 H 0.4066 0.92096 0.27366 0.0
H201 H 0.45221 0.92924 0.38854 0.0
O202 O 0.41397 0.83817 0.39784 0.0
C203 C 0.45277 0.88068 0.41391 0.0
Co204 Co 0.39474 0.17052 0.64938 0.0
Co205 Co 0.35409 0.17442 0.63693 0.0
C206 C 0.36836 0.15478 0.71486 0.0
O207 O 0.38361 0.15801 0.70006 0.0
O208 O 0.35472 0.16053 0.69493 0.0
C209 C 0.42597 0.14988 0.65178 0.0
O210 O 0.4152 0.13682 0.6578 0.0
C211 C 0.31659 0.17005 0.6064 0.0
C212 C 0.31545 0.19332 0.56245 0.0
C213 C 0.3063 0.17854 0.57432 0.0
N214 N 0.33144 0.17923 0.61179 0.0
N215 N 0.3303 0.19335 0.58633 0.0
C216 C 0.31319 0.15271 0.62755 0.0
H217 H 0.32516 0.14755 0.64379 0.0
H218 H 0.3083 0.14344 0.6016 0.0
H219 H 0.30294 0.15416 0.65378 0.0
C220 C 0.39176 0.15657 0.55665 0.0
N221 N 0.38465 0.16312 0.59473 0.0
N222 N 0.3676 0.16318 0.59082 0.0
C223 C 0.36334 0.15603 0.55044 0.0
C224 C 0.37849 0.15167 0.52759 0.0
C225 C 0.41085 0.1566 0.54645 0.0
H226 H 0.41729 0.16773 0.56351 0.0
H227 H 0.41669 0.1443 0.55885 0.0
H228 H 0.41322 0.15755 0.50937 0.0
O229 O 0.39224 0.19577 0.65567 0.0
O230 O 0.3637 0.19832 0.64772 0.0
H231 H 0.3388 0.16481 0.52521 0.0
H232 H 0.34483 0.14339 0.50571 0.0
C233 C 0.34516 0.15244 0.53503 0.0
H234 H 0.33784 0.14641 0.56317 0.0
H235 H 0.34024 0.20247 0.58279 0.0
O236 O 0.41993 0.16522 0.64879 0.0
C237 C 0.37863 0.20512 0.65383 0.0
Co238 Co 0.08651 0.14186 0.88369 0.0
Co239 Co 0.08021 0.10124 0.88817 0.0
C240 C 0.0997 0.12032 0.96128 0.0
O241 O 0.09757 0.13467 0.94057 0.0
O242 O 0.09353 0.10609 0.94571 0.0
C243 C 0.10734 0.17304 0.88122 0.0
O244 O 0.11951 0.16283 0.89767 0.0
C245 C 0.08829 0.06374 0.8724 0.0
C246 C 0.0618 0.05354 0.86115 0.0
C247 C 0.07918 0.04893 0.85902 0.0
N248 N 0.07676 0.07659 0.88051 0.0
N249 N 0.06095 0.0702 0.87483 0.0
C250 C 0.10751 0.06558 0.87893 0.0
H251 H 0.11143 0.07944 0.87635 0.0
H252 H 0.11486 0.05753 0.8543 0.0
H253 H 0.11089 0.06094 0.91349 0.0
C254 C 0.1022 0.13227 0.7963 0.0
N255 N 0.09475 0.1278 0.8359 0.0
N256 N 0.09169 0.11091 0.83616 0.0
C257 C 0.09663 0.10429 0.79562 0.0
C258 C 0.10382 0.11751 0.76992 0.0
C259 C 0.10573 0.15061 0.78183 0.0
H260 H 0.09433 0.15889 0.78971 0.0
H261 H 0.11714 0.15563 0.80079 0.0
H262 H 0.10847 0.15154 0.74494 0.0
O263 O 0.06084 0.14008 0.88653 0.0
O264 O 0.05648 0.11158 0.89048 0.0
H265 H 0.081 0.08115 0.79303 0.0
H266 H 0.09374 0.08478 0.74281 0.0
C267 C 0.09363 0.08599 0.78025 0.0
H268 H 0.10436 0.0778 0.79305 0.0
H269 H 0.04956 0.07748 0.87782 0.0
O270 O 0.09237 0.16676 0.873 0.0
C271 C 0.05062 0.12707 0.88863 0.0
Co272 Co 0.89009 0.83908 0.65127 0.0
Co273 Co 0.84973 0.83219 0.64152 0.0
C274 C 0.86479 0.85409 0.71713 0.0
O275 O 0.88015 0.85161 0.70245 0.0
O276 O 0.85151 0.84725 0.6979 0.0
C277 C 0.92306 0.85764 0.65928 0.0
O278 O 0.91393 0.87018 0.67799 0.0
C279 C 0.81324 0.83818 0.6084 0.0
C280 C 0.80473 0.81084 0.60278 0.0
C281 C 0.79957 0.82769 0.593 0.0
N282 N 0.82591 0.82779 0.62493 0.0
N283 N 0.82049 0.81152 0.6222 0.0
C284 C 0.81405 0.85762 0.60971 0.0
H285 H 0.82354 0.86196 0.6358 0.0
H286 H 0.81834 0.86275 0.57647 0.0
H287 H 0.801 0.86308 0.61722 0.0
C288 C 0.88536 0.8527 0.55968 0.0
N289 N 0.87864 0.84615 0.59805 0.0
N290 N 0.86216 0.84213 0.59149 0.0
C291 C 0.85824 0.84513 0.54739 0.0
C292 C 0.87272 0.85221 0.52644 0.0
C293 C 0.90377 0.85873 0.55453 0.0
H294 H 0.91268 0.84744 0.55756 0.0
H295 H 0.90683 0.86813 0.58189 0.0
H296 H 0.90598 0.86523 0.52143 0.0
O297 O 0.88809 0.81356 0.65812 0.0
O298 O 0.85975 0.80882 0.65275 0.0
H299 H 0.837 0.82694 0.54161 0.0
H300 H 0.84601 0.83399 0.4883 0.0
C301 C 0.84255 0.83819 0.52324 0.0
H302 H 0.83268 0.84858 0.52 0.0
H303 H 0.82786 0.80075 0.63178 0.0
O304 O 0.91543 0.84381 0.64653 0.0
C305 C 0.87519 0.80319 0.65767 0.0
Co306 Co 0.91547 0.14097 0.40129 0.0
Co307 Co 0.92037 0.10018 0.39455 0.0
C308 C 0.89903 0.11735 0.46847 0.0
O309 O 0.90223 0.13242 0.45289 0.0
O310 O 0.90538 0.10364 0.45034 0.0
C311 C 0.89801 0.17436 0.40639 0.0
O312 O 0.88522 0.16539 0.42446 0.0
C313 C 0.91 0.065 0.36216 0.0
C314 C 0.93515 0.05121 0.36538 0.0
C315 C 0.91806 0.04932 0.35129 0.0
N316 N 0.92191 0.07571 0.38082 0.0
N317 N 0.93682 0.06721 0.3834 0.0
C318 C 0.89115 0.06948 0.35702 0.0
H319 H 0.88649 0.06669 0.3222 0.0
H320 H 0.88344 0.06121 0.38043 0.0
H321 H 0.88883 0.08336 0.36547 0.0
C322 C 0.90199 0.13596 0.30958 0.0
N323 N 0.90791 0.12935 0.34882 0.0
N324 N 0.91131 0.11267 0.34352 0.0
C325 C 0.9086 0.10847 0.29949 0.0
C326 C 0.90228 0.12299 0.27722 0.0
C327 C 0.89689 0.15457 0.30274 0.0
H328 H 0.90854 0.16298 0.30609 0.0
H329 H 0.88734 0.15833 0.32911 0.0
H330 H 0.89086 0.15673 0.26899 0.0
O331 O 0.94087 0.13727 0.4082 0.0
O332 O 0.94453 0.10865 0.40434 0.0
H333 H 0.9255 0.08609 0.29706 0.0
H334 H 0.92041 0.09545 0.24261 0.0
C335 C 0.91513 0.09234 0.27674 0.0
H336 H 0.90414 0.08325 0.2717 0.0
H337 H 0.94835 0.07259 0.39563 0.0
O338 O 0.91189 0.16653 0.39483 0.0
C339 C 0.95074 0.12395 0.40815 0.0
Co340 Co 0.61361 0.16717 0.14173 0.0
Co341 Co 0.65385 0.17476 0.14893 0.0
C342 C 0.63433 0.1541 0.21968 0.0
O343 O 0.62001 0.15602 0.1987 0.0
O344 O 0.64846 0.16079 0.20504 0.0
C345 C 0.58156 0.14726 0.13771 0.0
O346 O 0.5906 0.13521 0.15879 0.0
C347 C 0.69074 0.16581 0.13136 0.0
C348 C 0.70245 0.19201 0.12962 0.0
C349 C 0.70611 0.17463 0.12145 0.0
N350 N 0.67855 0.17757 0.14326 0.0
N351 N 0.68579 0.19314 0.14313 0.0
C352 C 0.68776 0.14656 0.13125 0.0
H353 H 0.67769 0.14313 0.15674 0.0
H354 H 0.68299 0.14226 0.09764 0.0
H355 H 0.70005 0.13955 0.13872 0.0
C356 C 0.62485 0.15087 0.05653 0.0
N357 N 0.62854 0.15881 0.09597 0.0
N358 N 0.64498 0.16365 0.09596 0.0
C359 C 0.65184 0.16012 0.05476 0.0
C360 C 0.63954 0.15122 0.02959 0.0
C361 C 0.60701 0.14523 0.04242 0.0
H362 H 0.5981 0.15658 0.04304 0.0
H363 H 0.60212 0.1354 0.06677 0.0
H364 H 0.60693 0.13948 0.00785 0.0
O365 O 0.61525 0.19303 0.14499 0.0
O366 O 0.64352 0.19837 0.15161 0.0
H367 H 0.67224 0.17943 0.05701 0.0
H368 H 0.66559 0.1731 0.00091 0.0
C369 C 0.66799 0.16831 0.0359 0.0
H370 H 0.67847 0.15849 0.03348 0.0
H371 H 0.67912 0.20466 0.14991 0.0
O372 O 0.58887 0.16157 0.12749 0.0
C373 C 0.62788 0.2037 0.14851 0.0
Co374 Co 0.58562 0.86079 0.89882 0.0
Co375 Co 0.5804 0.90139 0.88876 0.0
C376 C 0.59931 0.885 0.96834 0.0
O377 O 0.59679 0.86975 0.953 0.0
O378 O 0.59351 0.89849 0.94798 0.0
C379 C 0.60255 0.82733 0.91091 0.0
O380 O 0.6137 0.83603 0.93597 0.0
C381 C 0.59077 0.937 0.85877 0.0
C382 C 0.56524 0.95014 0.85854 0.0
C383 C 0.5826 0.95259 0.84805 0.0
N384 N 0.5787 0.92577 0.87434 0.0
N385 N 0.56352 0.93387 0.87475 0.0
C386 C 0.60981 0.93316 0.85605 0.0
H387 H 0.61231 0.91906 0.86069 0.0
H388 H 0.61523 0.93771 0.82325 0.0
H389 H 0.6166 0.94044 0.88336 0.0
C390 C 0.60364 0.86566 0.81265 0.0
N391 N 0.59513 0.8723 0.84841 0.0
N392 N 0.59149 0.88879 0.84077 0.0
C393 C 0.59651 0.89272 0.798 0.0
C394 C 0.6046 0.87826 0.77935 0.0
C395 C 0.61113 0.84769 0.81113 0.0
H396 H 0.60048 0.83806 0.8074 0.0
H397 H 0.61815 0.84508 0.84324 0.0
H398 H 0.62047 0.84609 0.78275 0.0
O399 O 0.56002 0.86404 0.89982 0.0
O400 O 0.55622 0.89256 0.89351 0.0
H401 H 0.57979 0.91499 0.78902 0.0
H402 H 0.58738 0.90512 0.73709 0.0
C403 C 0.59103 0.90862 0.77241 0.0
H404 H 0.6021 0.91779 0.7703 0.0
H405 H 0.55185 0.92809 0.88463 0.0
O406 O 0.58976 0.83532 0.89318 0.0
C407 C 0.55006 0.87724 0.89695 0.0
Co408 Co 0.89184 0.16688 0.8293 0.0
Co409 Co 0.85142 0.1724 0.84367 0.0
C410 C 0.86586 0.15054 0.76741 0.0
O411 O 0.88138 0.15371 0.77991 0.0
O412 O 0.85272 0.15702 0.78797 0.0
C413 C 0.92481 0.14883 0.81768 0.0
O414 O 0.91541 0.1364 0.79931 0.0
C415 C 0.81624 0.1652 0.88353 0.0
C416 C 0.80659 0.19219 0.88834 0.0
C417 C 0.80282 0.17531 0.90142 0.0
N418 N 0.82766 0.17585 0.86254 0.0
N419 N 0.82143 0.19185 0.86437 0.0
C420 C 0.81897 0.14608 0.88953 0.0
H421 H 0.83271 0.14253 0.88261 0.0
H422 H 0.81515 0.14194 0.92421 0.0
H423 H 0.81054 0.13903 0.86509 0.0
C424 C 0.88915 0.15317 0.92143 0.0
N425 N 0.88161 0.15969 0.88402 0.0
N426 N 0.86515 0.16326 0.89254 0.0
C427 C 0.8621 0.16006 0.93698 0.0
C428 C 0.87708 0.15324 0.95605 0.0
C429 C 0.90761 0.14703 0.92392 0.0
H430 H 0.91651 0.15829 0.92014 0.0
H431 H 0.91005 0.13776 0.89586 0.0
H432 H 0.91046 0.14031 0.95637 0.0
O433 O 0.8888 0.19235 0.82221 0.0
O434 O 0.86038 0.19605 0.83048 0.0
H435 H 0.84032 0.17742 0.94541 0.0
H436 H 0.8507 0.17088 -0.00254 0.0
C437 C 0.84668 0.16644 0.96314 0.0
H438 H 0.83735 0.15563 0.96798 0.0
H439 H 0.82787 0.20277 0.85188 0.0
O440 O 0.91735 0.16263 0.83139 0.0
C441 C 0.87552 0.20222 0.82383 0.0
Co442 Co 0.58803 0.14469 0.59255 0.0
Co443 Co 0.58274 0.10399 0.6017 0.0
C444 C 0.60232 0.12045 0.52374 0.0
O445 O 0.59967 0.13567 0.53907 0.0
O446 O 0.59636 0.10692 0.54352 0.0
C447 C 0.60528 0.17799 0.58093 0.0
O448 O 0.61643 0.16908 0.55638 0.0
C449 C 0.59256 0.06825 0.63208 0.0
C450 C 0.56693 0.05532 0.63027 0.0
C451 C 0.58416 0.05271 0.64201 0.0
N452 N 0.58074 0.07961 0.61579 0.0
N453 N 0.56552 0.07163 0.61416 0.0
C454 C 0.6116 0.07193 0.63611 0.0
H455 H 0.61425 0.08603 0.6319 0.0
H456 H 0.61669 0.06726 0.66915 0.0
H457 H 0.61858 0.06468 0.6091 0.0
C458 C 0.60496 0.13972 0.68004 0.0
N459 N 0.59698 0.13309 0.64344 0.0
N460 N 0.59335 0.11656 0.65054 0.0
C461 C 0.59788 0.11257 0.69365 0.0
C462 C 0.60561 0.12705 0.71315 0.0
C463 C 0.61206 0.15783 0.68278 0.0
H464 H 0.60115 0.16723 0.68535 0.0
H465 H 0.61958 0.16067 0.65161 0.0
H466 H 0.62084 0.15954 0.71233 0.0
O467 O 0.56245 0.14145 0.58993 0.0
O468 O 0.55868 0.11289 0.59499 0.0
H469 H 0.58118 0.09021 0.70118 0.0
H470 H 0.58828 0.09995 0.75375 0.0
C471 C 0.59225 0.09658 0.71858 0.0
H472 H 0.60334 0.08744 0.7212 0.0
H473 H 0.554 0.07751 0.60349 0.0
O474 O 0.59231 0.17019 0.59836 0.0
C475 C 0.55251 0.1282 0.59158 0.0
Co476 Co 0.61065 0.84055 0.34947 0.0
Co477 Co 0.65012 0.82975 0.34203 0.0
C478 C 0.63236 0.85273 0.27253 0.0
O479 O 0.61795 0.85194 0.29363 0.0
O480 O 0.64586 0.84465 0.28664 0.0
C481 C 0.5795 0.86204 0.35541 0.0
O482 O 0.5888 0.87398 0.33467 0.0
C483 C 0.68753 0.83578 0.35991 0.0
C484 C 0.6966 0.80872 0.36762 0.0
C485 C 0.70183 0.82586 0.37361 0.0
N486 N 0.67447 0.82491 0.34853 0.0
N487 N 0.68019 0.80878 0.35204 0.0
C488 C 0.68615 0.85517 0.35652 0.0
H489 H 0.67675 0.85874 0.32947 0.0
H490 H 0.68126 0.86068 0.38882 0.0
H491 H 0.69905 0.86098 0.349 0.0
C492 C 0.62288 0.85476 0.43622 0.0
N493 N 0.62602 0.84697 0.39624 0.0
N494 N 0.64207 0.84099 0.39583 0.0
C495 C 0.64921 0.84375 0.43715 0.0
C496 C 0.63753 0.85317 0.46307 0.0
C497 C 0.60546 0.86149 0.45064 0.0
H498 H 0.5958 0.85079 0.44924 0.0
H499 H 0.60128 0.87185 0.42688 0.0
H500 H 0.60573 0.86689 0.48557 0.0
O501 O 0.61028 0.81484 0.34277 0.0
O502 O 0.63797 0.80699 0.33689 0.0
H503 H 0.66786 0.82282 0.43552 0.0
H504 H 0.66381 0.83158 0.49115 0.0
C505 C 0.66525 0.83492 0.45472 0.0
H506 H 0.67652 0.84382 0.45208 0.0
H507 H 0.67253 0.79778 0.34665 0.0
O508 O 0.58637 0.84741 0.36446 0.0
C509 C 0.62187 0.80311 0.33846 0.0
Co510 Co 0.91821 0.86085 0.08137 0.0
Co511 Co 0.92285 0.90154 0.09065 0.0
C512 C 0.9016 0.88512 0.01564 0.0
O513 O 0.90497 0.86995 0.03024 0.0
O514 O 0.90782 0.8987 0.03472 0.0
C515 C 0.90001 0.82815 0.07373 0.0
O516 O 0.88764 0.83777 0.05592 0.0
C517 C 0.91258 0.93679 0.12292 0.0
C518 C 0.93788 0.95034 0.12103 0.0
C519 C 0.92067 0.95242 0.13365 0.0
N520 N 0.92456 0.92587 0.10544 0.0
N521 N 0.93958 0.93422 0.10377 0.0
C522 C 0.89367 0.93255 0.12756 0.0
H523 H 0.89143 0.91838 0.12341 0.0
H524 H 0.88859 0.93706 0.16076 0.0
H525 H 0.88635 0.93956 0.10074 0.0
C526 C 0.90447 0.86502 0.17332 0.0
N527 N 0.91067 0.87195 0.13476 0.0
N528 N 0.91369 0.88867 0.14091 0.0
C529 C 0.91029 0.89261 0.18479 0.0
C530 C 0.90405 0.87784 0.20608 0.0
C531 C 0.89937 0.84634 0.17889 0.0
H532 H 0.91098 0.83795 0.17446 0.0
H533 H 0.88967 0.84292 0.15256 0.0
H534 H 0.89348 0.84376 0.21257 0.0
O535 O 0.94364 0.86444 0.0744 0.0
O536 O 0.947 0.89305 0.08023 0.0
H537 H 0.92653 0.91539 0.18989 0.0
H538 H 0.92015 0.90609 0.24351 0.0
C539 C 0.91577 0.90896 0.20838 0.0
H540 H 0.90448 0.91785 0.21101 0.0
H541 H 0.95118 0.92869 0.09236 0.0
O542 O 0.91414 0.83534 0.08605 0.0
C543 C 0.95337 0.87786 0.07526 0.0
Co544 Co 0.61307 0.66704 0.83999 0.0
Co545 Co 0.65364 0.6736 0.84705 0.0
C546 C 0.63749 0.65214 0.77198 0.0
O547 O 0.62231 0.65483 0.78759 0.0
O548 O 0.65103 0.65872 0.79055 0.0
C549 C 0.58027 0.64837 0.83313 0.0
O550 O 0.58942 0.63636 0.81223 0.0
C551 C 0.68948 0.66649 0.88214 0.0
C552 C 0.69893 0.6935 0.88771 0.0
C553 C 0.70294 0.67657 0.89976 0.0
N554 N 0.6778 0.67716 0.86221 0.0
N555 N 0.68395 0.69319 0.86429 0.0
C556 C 0.68694 0.64733 0.888 0.0
H557 H 0.67314 0.6437 0.88233 0.0
H558 H 0.69133 0.64307 0.92213 0.0
H559 H 0.69505 0.64042 0.86257 0.0
C560 C 0.61882 0.65246 0.93009 0.0
N561 N 0.62511 0.65938 0.89166 0.0
N562 N 0.64157 0.66363 0.89751 0.0
C563 C 0.64583 0.66064 0.94136 0.0
C564 C 0.63169 0.65308 0.96265 0.0
C565 C 0.60058 0.64604 0.93603 0.0
H566 H 0.59145 0.6572 0.93476 0.0
H567 H 0.59738 0.63695 0.90807 0.0
H568 H 0.59887 0.63907 0.96869 0.0
O569 O 0.61531 0.69267 0.83489 0.0
O570 O 0.64378 0.69721 0.83811 0.0
H571 H 0.66652 0.67948 0.9463 0.0
H572 H 0.65752 0.67276 -0.00016 0.0
C573 C 0.66123 0.66827 0.96534 0.0
H574 H 0.67135 0.65816 0.96971 0.0
H575 H 0.67724 0.70414 0.85292 0.0
O576 O 0.58778 0.66217 0.84663 0.0
C577 C 0.62829 0.70296 0.83511 0.0
Co578 Co 0.58873 0.36244 0.08048 0.0
Co579 Co 0.58378 0.40333 0.08743 0.0
C580 C 0.6059 0.38632 0.01485 0.0
O581 O 0.60246 0.37124 0.03001 0.0
O582 O 0.59942 0.40002 0.03272 0.0
C583 C 0.60688 0.32954 0.07567 0.0
O584 O 0.61941 0.33898 0.05804 0.0
C585 C 0.59328 0.43875 0.1212 0.0
C586 C 0.56801 0.45217 0.11535 0.0
C587 C 0.58484 0.45431 0.13103 0.0
N588 N 0.58183 0.42783 0.10136 0.0
N589 N 0.56685 0.43613 0.09725 0.0
C590 C 0.61203 0.43457 0.12925 0.0
H591 H 0.61444 0.42042 0.12539 0.0
H592 H 0.61623 0.43909 0.1633 0.0
H593 H 0.62001 0.44164 0.10384 0.0
C594 C 0.60137 0.36738 0.17308 0.0
N595 N 0.59564 0.37402 0.13368 0.0
N596 N 0.59225 0.39072 0.13892 0.0
C597 C 0.59479 0.39489 0.18302 0.0
C598 C 0.601 0.38035 0.20541 0.0
C599 C 0.60674 0.34884 0.1798 0.0
H600 H 0.59526 0.34024 0.17561 0.0
H601 H 0.61656 0.34534 0.15388 0.0
H602 H 0.61255 0.34665 0.21378 0.0
O603 O 0.5634 0.36603 0.07143 0.0
O604 O 0.55981 0.39468 0.07546 0.0
H605 H 0.57803 0.41738 0.18519 0.0
H606 H 0.58291 0.40797 0.23969 0.0
C607 C 0.58831 0.41106 0.20568 0.0
H608 H 0.59934 0.42009 0.21103 0.0
H609 H 0.55558 0.43058 0.08387 0.0
O610 O 0.59269 0.33688 0.08687 0.0
C611 C 0.55359 0.3794 0.07082 0.0
Co612 Co 0.89487 0.33684 0.34719 0.0
Co613 Co 0.85408 0.33104 0.34136 0.0
C614 C 0.87354 0.35025 0.26885 0.0
O615 O 0.8878 0.34793 0.29001 0.0
O616 O 0.85915 0.3443 0.28403 0.0
C617 C 0.92625 0.35765 0.35142 0.0
O618 O 0.91618 0.37002 0.33546 0.0
C619 C 0.81603 0.33836 0.35404 0.0
C620 C 0.80673 0.31175 0.3683 0.0
C621 C 0.80141 0.32893 0.36726 0.0
N622 N 0.82945 0.32721 0.34886 0.0
N623 N 0.8236 0.31131 0.35651 0.0
C624 C 0.81709 0.35744 0.34452 0.0
H625 H 0.83084 0.36185 0.34466 0.0
H626 H 0.80932 0.365 0.36933 0.0
H627 H 0.81154 0.35994 0.31035 0.0
C628 C 0.88492 0.35272 0.43423 0.0
N629 N 0.88059 0.34512 0.39468 0.0
N630 N 0.86361 0.34263 0.39339 0.0
C631 C 0.85671 0.34831 0.43295 0.0
C632 C 0.86994 0.3552 0.45934 0.0
C633 C 0.90322 0.35575 0.44981 0.0
H634 H 0.91139 0.34434 0.44119 0.0
H635 H 0.90852 0.36735 0.43228 0.0
H636 H 0.90394 0.35794 0.48699 0.0
O637 O 0.89305 0.31116 0.34384 0.0
O638 O 0.86451 0.30732 0.33882 0.0
H639 H 0.833 0.33366 0.4365 0.0
H640 H 0.83604 0.34843 0.48326 0.0
C641 C 0.83802 0.34662 0.44634 0.0
H642 H 0.83043 0.35689 0.42917 0.0
H643 H 0.83134 0.30017 0.3558 0.0
O644 O 0.91982 0.34265 0.35859 0.0
C645 C 0.87988 0.30118 0.34092 0.0
Co646 Co 0.92072 0.64686 0.59533 0.0
Co647 Co 0.92652 0.60618 0.60016 0.0
C648 C 0.90727 0.62153 0.52337 0.0
O649 O 0.90962 0.63649 0.54114 0.0
O650 O 0.91331 0.60765 0.54149 0.0
C651 C 0.89862 0.67724 0.59651 0.0
O652 O 0.88607 0.66621 0.58711 0.0
C653 C 0.92503 0.56748 0.62366 0.0
C654 C 0.94941 0.56672 0.66338 0.0
C655 C 0.9353 0.55668 0.65085 0.0
N656 N 0.93274 0.58328 0.62143 0.0
N657 N 0.94739 0.58247 0.6448 0.0
C658 C 0.90872 0.56269 0.59889 0.0
H659 H 0.90517 0.57298 0.57415 0.0
H660 H 0.89786 0.56097 0.62316 0.0
H661 H 0.91059 0.5501 0.58107 0.0
C662 C 0.90506 0.64028 0.68491 0.0
N663 N 0.91299 0.63477 0.64683 0.0
N664 N 0.91398 0.61768 0.64731 0.0
C665 C 0.90616 0.61177 0.68526 0.0
C666 C 0.90024 0.62588 0.71014 0.0
C667 C 0.90354 0.65896 0.69882 0.0
H668 H 0.91457 0.66659 0.68506 0.0
H669 H 0.89118 0.66437 0.68552 0.0
H670 H 0.90347 0.66026 0.73636 0.0
O671 O 0.94617 0.64598 0.59161 0.0
O672 O 0.94981 0.61745 0.59311 0.0
H673 H 0.91588 0.58696 0.70584 0.0
H674 H 0.89379 0.59116 0.72369 0.0
C675 C 0.90335 0.593 0.69593 0.0
H676 H 0.89833 0.58643 0.66525 0.0
H677 H 0.95574 0.59297 0.6499 0.0
O678 O 0.91412 0.67169 0.60015 0.0
C679 C 0.95606 0.63276 0.59115 0.0
Co680 Co 0.61367 0.33918 0.65301 0.0
Co681 Co 0.65396 0.33258 0.63778 0.0
C682 C 0.6402 0.35372 0.71639 0.0
O683 O 0.6246 0.3512 0.70362 0.0
O684 O 0.65316 0.34717 0.69518 0.0
C685 C 0.58123 0.3582 0.66634 0.0
O686 O 0.59097 0.37023 0.68525 0.0
C687 C 0.68933 0.33914 0.59767 0.0
C688 C 0.69787 0.31192 0.58937 0.0
C689 C 0.70225 0.32884 0.57815 0.0
N690 N 0.67761 0.32862 0.61799 0.0
N691 N 0.68321 0.31244 0.61407 0.0
C692 C 0.68736 0.35843 0.59356 0.0
H693 H 0.67376 0.3624 0.60076 0.0
H694 H 0.6914 0.36291 0.55934 0.0
H695 H 0.69603 0.36477 0.61873 0.0
C696 C 0.61675 0.35386 0.56208 0.0
N697 N 0.62417 0.3469 0.59909 0.0
N698 N 0.6405 0.34293 0.59016 0.0
C699 C 0.64355 0.3463 0.54581 0.0
C700 C 0.62873 0.35366 0.52728 0.0
C701 C 0.59831 0.36008 0.5597 0.0
H702 H 0.58936 0.34884 0.56323 0.0
H703 H 0.5959 0.36928 0.58793 0.0
H704 H 0.59552 0.36689 0.52733 0.0
O705 O 0.61582 0.31349 0.65714 0.0
O706 O 0.6441 0.30902 0.64801 0.0
H707 H 0.66439 0.32794 0.53594 0.0
H708 H 0.65444 0.33561 0.48441 0.0
C709 C 0.65863 0.33943 0.51909 0.0
H710 H 0.66853 0.34978 0.51523 0.0
H711 H 0.67639 0.30157 0.62553 0.0
O712 O 0.5883 0.34434 0.65168 0.0
C713 C 0.62876 0.30322 0.654 0.0
Co714 Co 0.9193 0.35945 0.8863 0.0
Co715 Co 0.92581 0.40009 0.88442 0.0
C716 C 0.90686 0.38387 0.961 0.0
O717 O 0.90874 0.36907 0.94198 0.0
O718 O 0.91303 0.39782 0.9436 0.0
C719 C 0.89754 0.32848 0.88409 0.0
O720 O 0.88475 0.33887 0.89588 0.0
C721 C 0.92392 0.43894 0.86467 0.0
C722 C 0.9492 0.4412 0.8295 0.0
C723 C 0.93447 0.45052 0.84074 0.0
N724 N 0.93209 0.42338 0.86643 0.0
N725 N 0.94727 0.42507 0.84581 0.0
C726 C 0.90687 0.44279 0.88692 0.0
H727 H 0.90164 0.431 0.90382 0.0
H728 H 0.89736 0.4476 0.86159 0.0
H729 H 0.9087 0.45328 0.9124 0.0
C730 C 0.90316 0.36734 0.79812 0.0
N731 N 0.91133 0.37236 0.83631 0.0
N732 N 0.91287 0.38942 0.83654 0.0
C733 C 0.9053 0.39579 0.7987 0.0
C734 C 0.89884 0.38203 0.77345 0.0
C735 C 0.9011 0.3488 0.78338 0.0
H736 H 0.91221 0.3409 0.79556 0.0
H737 H 0.88888 0.3435 0.79779 0.0
H738 H 0.90042 0.34774 0.74585 0.0
O739 O 0.94478 0.36004 0.88887 0.0
O740 O 0.94899 0.38849 0.88906 0.0
H741 H 0.91659 0.42033 0.78149 0.0
H742 H 0.89514 0.41698 0.75788 0.0
C743 C 0.90354 0.4147 0.78788 0.0
H744 H 0.89759 0.42134 0.81726 0.0
H745 H 0.95608 0.41495 0.84093 0.0
O746 O 0.91277 0.33465 0.87947 0.0
C747 C 0.95493 0.37305 0.88961 0.0
Co748 Co 0.89309 0.66629 0.13776 0.0
Co749 Co 0.85256 0.67296 0.14381 0.0
C750 C 0.87199 0.65326 0.2162 0.0
O751 O 0.88624 0.65516 0.19483 0.0
O752 O 0.85773 0.65962 0.20122 0.0
C753 C 0.92502 0.64615 0.13332 0.0
O754 O 0.91564 0.63356 0.15089 0.0
C755 C 0.81471 0.66556 0.12992 0.0
C756 C 0.805 0.6923 0.11987 0.0
C757 C 0.79996 0.67504 0.11792 0.0
N758 N 0.82791 0.67678 0.13718 0.0
N759 N 0.82183 0.69274 0.13211 0.0
C760 C 0.81613 0.64631 0.13649 0.0
H761 H 0.8299 0.64209 0.13394 0.0
H762 H 0.80795 0.63913 0.1118 0.0
H763 H 0.81136 0.64305 0.171 0.0
C764 C 0.88288 0.65081 0.0506 0.0
N765 N 0.87865 0.65825 0.09041 0.0
N766 N 0.86178 0.66138 0.09134 0.0
C767 C 0.85489 0.65645 0.05107 0.0
C768 C 0.86796 0.64923 0.02474 0.0
C769 C 0.90115 0.64732 0.03547 0.0
H770 H 0.9094 0.65881 0.04273 0.0
H771 H 0.90636 0.63604 0.05456 0.0
H772 H 0.90192 0.64445 -0.00138 0.0
O773 O 0.89152 0.6919 0.14149 0.0
O774 O 0.86311 0.69663 0.14597 0.0
H775 H 0.83191 0.67232 0.04907 0.0
H776 H 0.83503 0.6592 -0.00087 0.0
C777 C 0.8365 0.65955 0.03651 0.0
H778 H 0.82821 0.64906 0.05022 0.0
H779 H 0.82939 0.70396 0.13478 0.0
O780 O 0.91795 0.66079 0.12546 0.0
C781 C 0.87867 0.70229 0.14406 0.0
Co782 Co 0.58903 0.64253 0.40257 0.0
Co783 Co 0.58246 0.6019 0.39502 0.0
C784 C 0.60221 0.61832 0.47308 0.0
O785 O 0.59997 0.63347 0.45689 0.0
O786 O 0.59595 0.60479 0.45379 0.0
C787 C 0.58478 0.67885 0.37964 0.0
O788 O 0.56932 0.67385 0.36586 0.0
C789 C 0.5916 0.56598 0.36432 0.0
C790 C 0.56568 0.55365 0.36422 0.0
C791 C 0.58289 0.55074 0.35276 0.0
N792 N 0.57997 0.57746 0.38106 0.0
N793 N 0.56457 0.56981 0.38164 0.0
C794 C 0.61073 0.56929 0.36105 0.0
H795 H 0.61369 0.58324 0.36677 0.0
H796 H 0.61585 0.56499 0.3277 0.0
H797 H 0.61746 0.5615 0.38744 0.0
C798 C 0.6063 0.63635 0.31613 0.0
N799 N 0.59811 0.63023 0.35298 0.0
N800 N 0.59394 0.61379 0.34651 0.0
C801 C 0.59827 0.60941 0.30353 0.0
C802 C 0.60661 0.62342 0.2837 0.0
C803 C 0.61254 0.65467 0.31057 0.0
H804 H 0.60128 0.66322 0.30318 0.0
H805 H 0.61889 0.65915 0.34229 0.0
H806 H 0.62196 0.65572 0.28214 0.0
O807 O 0.56328 0.64019 0.40356 0.0
O808 O 0.55853 0.61174 0.39915 0.0
H809 H 0.58024 0.58805 0.29642 0.0
H810 H 0.58728 0.59763 0.24376 0.0
C811 C 0.59146 0.59389 0.27849 0.0
H812 H 0.60203 0.58422 0.27463 0.0
H813 H 0.55313 0.57588 0.39212 0.0
O814 O 0.59503 0.66771 0.3971 0.0
C815 C 0.55288 0.62731 0.40136 0.0
Co816 Co 0.39619 0.33755 0.13812 0.0
Co817 Co 0.35546 0.33168 0.14175 0.0
C818 C 0.37405 0.35118 0.21504 0.0
O819 O 0.38843 0.3489 0.19441 0.0
O820 O 0.35975 0.34506 0.19957 0.0
C821 C 0.42738 0.35859 0.13412 0.0
O822 O 0.41724 0.37106 0.14924 0.0
C823 C 0.31712 0.3377 0.12795 0.0
C824 C 0.30961 0.31144 0.10478 0.0
C825 C 0.30325 0.32813 0.11035 0.0
N826 N 0.3311 0.32714 0.1312 0.0
N827 N 0.3263 0.3114 0.11823 0.0
C828 C 0.31691 0.35623 0.14357 0.0
H829 H 0.33038 0.3612 0.14773 0.0
H830 H 0.30953 0.36458 0.11975 0.0
H831 H 0.31025 0.35689 0.17693 0.0
C832 C 0.38701 0.35345 0.05069 0.0
N833 N 0.3824 0.34548 0.08947 0.0
N834 N 0.36536 0.34357 0.09054 0.0
C835 C 0.35865 0.35036 0.05194 0.0
C836 C 0.37214 0.35707 0.02612 0.0
C837 C 0.4054 0.35617 0.03549 0.0
H838 H 0.4135 0.34485 0.04524 0.0
H839 H 0.41066 0.36803 0.05195 0.0
H840 H 0.40622 0.35784 -0.00187 0.0
O841 O 0.39472 0.31203 0.14252 0.0
O842 O 0.3662 0.30801 0.14567 0.0
H843 H 0.33409 0.33755 0.04414 0.0
H844 H 0.33741 0.35522 0.00489 0.0
C845 C 0.33974 0.3507 0.04005 0.0
H846 H 0.33304 0.3599 0.06296 0.0
H847 H 0.33466 0.30075 0.11628 0.0
O848 O 0.42107 0.34349 0.12785 0.0
C849 C 0.38163 0.30196 0.14501 0.0
Co850 Co 0.41866 0.64466 0.89866 0.0
Co851 Co 0.42454 0.60398 0.8911 0.0
C852 C 0.4032 0.62021 0.96584 0.0
O853 O 0.4061 0.63541 0.95065 0.0
O854 O 0.40967 0.60667 0.94711 0.0
C855 C 0.39983 0.67735 0.90495 0.0
O856 O 0.38776 0.66797 0.92486 0.0
C857 C 0.41591 0.56849 0.8574 0.0
C858 C 0.44235 0.55767 0.85068 0.0
C859 C 0.4251 0.55433 0.84045 0.0
N860 N 0.42731 0.57979 0.87596 0.0
N861 N 0.44302 0.57289 0.87311 0.0
C862 C 0.39684 0.57187 0.85249 0.0
H863 H 0.39391 0.58587 0.85748 0.0
H864 H 0.39209 0.56737 0.81888 0.0
H865 H 0.38981 0.56431 0.87879 0.0
C866 C 0.40448 0.6393 0.80777 0.0
N867 N 0.41105 0.63286 0.84646 0.0
N868 N 0.41488 0.61629 0.84074 0.0
C869 C 0.41186 0.61205 0.79689 0.0
C870 C 0.40481 0.62637 0.77533 0.0
C871 C 0.39867 0.65773 0.80143 0.0
H872 H 0.41003 0.66655 0.80427 0.0
H873 H 0.38918 0.6611 0.82832 0.0
H874 H 0.3923 0.65974 0.76805 0.0
O875 O 0.44429 0.6419 0.90443 0.0
O876 O 0.44829 0.61334 0.90067 0.0
H877 H 0.43009 0.59082 0.79212 0.0
H878 H 0.42317 0.59955 0.7384 0.0
C879 C 0.41887 0.59626 0.77335 0.0
H880 H 0.40847 0.58638 0.77016 0.0
H881 H 0.45439 0.57919 0.88327 0.0
O882 O 0.41387 0.67004 0.89234 0.0
C883 C 0.45433 0.62871 0.90419 0.0
Co884 Co 0.11553 0.66888 0.65075 0.0
Co885 Co 0.15612 0.67468 0.64608 0.0
C886 C 0.1389 0.65328 0.71996 0.0
O887 O 0.12393 0.65603 0.70316 0.0
O888 O 0.15261 0.65986 0.70242 0.0
C889 C 0.08294 0.65026 0.65427 0.0
O890 O 0.09239 0.6377 0.67181 0.0
C891 C 0.19192 0.66519 0.61631 0.0
C892 C 0.20505 0.69066 0.62072 0.0
C893 C 0.20751 0.67361 0.60702 0.0
N894 N 0.18066 0.67683 0.63392 0.0
N895 N 0.18877 0.69195 0.63718 0.0
C896 C 0.188 0.64627 0.61007 0.0
H897 H 0.17387 0.64374 0.61375 0.0
H898 H 0.19269 0.64162 0.57661 0.0
H899 H 0.19508 0.63877 0.63644 0.0
C900 C 0.1214 0.65542 0.55922 0.0
N901 N 0.12762 0.66151 0.59875 0.0
N902 N 0.1443 0.6651 0.59437 0.0
C903 C 0.1489 0.66223 0.55065 0.0
C904 C 0.13465 0.6556 0.5277 0.0
C905 C 0.10279 0.65065 0.55084 0.0
H906 H 0.09445 0.66228 0.5556 0.0
H907 H 0.0988 0.64057 0.57559 0.0
H908 H 0.10076 0.6454 0.51615 0.0
O909 O 0.1184 0.69434 0.65805 0.0
O910 O 0.14692 0.69873 0.65501 0.0
H911 H 0.17108 0.67938 0.54879 0.0
H912 H 0.16239 0.67363 0.49397 0.0
C913 C 0.16518 0.66874 0.52868 0.0
H914 H 0.17448 0.65783 0.52511 0.0
H915 H 0.18295 0.70335 0.6489 0.0
O916 O 0.09022 0.66451 0.64348 0.0
C917 C 0.13145 0.70455 0.65849 0.0
Co918 Co 0.08883 0.36324 0.39988 0.0
Co919 Co 0.08337 0.40387 0.39838 0.0
C920 C 0.10432 0.38583 0.47155 0.0
O921 O 0.10144 0.37108 0.45353 0.0
O922 O 0.09799 0.39981 0.45482 0.0
C923 C 0.10752 0.33064 0.40118 0.0
O924 O 0.12016 0.33991 0.41898 0.0
C925 C 0.09252 0.44032 0.37308 0.0
C926 C 0.06649 0.45245 0.37413 0.0
C927 C 0.08372 0.45572 0.36354 0.0
N928 N 0.08088 0.42845 0.38764 0.0
N929 N 0.06541 0.43594 0.38883 0.0
C930 C 0.11171 0.43717 0.37094 0.0
H931 H 0.11459 0.42305 0.37326 0.0
H932 H 0.11739 0.44265 0.33949 0.0
H933 H 0.11799 0.44388 0.40001 0.0
C934 C 0.10298 0.37019 0.30942 0.0
N935 N 0.09655 0.3759 0.34911 0.0
N936 N 0.09334 0.39271 0.34625 0.0
C937 C 0.0969 0.39796 0.3034 0.0
C938 C 0.10357 0.38396 0.2795 0.0
C939 C 0.10701 0.35156 0.29893 0.0
H940 H 0.0952 0.34353 0.30412 0.0
H941 H 0.11729 0.34693 0.32234 0.0
H942 H 0.11167 0.34983 0.26356 0.0
O943 O 0.06331 0.36596 0.40649 0.0
O944 O 0.05929 0.39453 0.40591 0.0
H945 H 0.07981 0.42013 0.3011 0.0
H946 H 0.08786 0.41314 0.24657 0.0
C947 C 0.09126 0.41485 0.28294 0.0
H948 H 0.10215 0.42425 0.28461 0.0
H949 H 0.05397 0.42958 0.39809 0.0
O950 O 0.09325 0.33804 0.39105 0.0
C951 C 0.05325 0.37911 0.40783 0.0
Co952 Co 0.39552 0.67016 0.33054 0.0
Co953 Co 0.35477 0.6752 0.34131 0.0
C954 C 0.37066 0.65486 0.26409 0.0
O955 O 0.38596 0.65789 0.27839 0.0
O956 O 0.35722 0.66094 0.28411 0.0
C957 C 0.42832 0.65185 0.32061 0.0
O958 O 0.41881 0.63999 0.30021 0.0
C959 C 0.3196 0.66528 0.37533 0.0
C960 C 0.30662 0.69088 0.37609 0.0
C961 C 0.30432 0.67365 0.38823 0.0
N962 N 0.33052 0.67715 0.35733 0.0
N963 N 0.32248 0.69235 0.35715 0.0
C964 C 0.32348 0.64624 0.37816 0.0
H965 H 0.33752 0.64375 0.37232 0.0
H966 H 0.31941 0.64082 0.41134 0.0
H967 H 0.3159 0.63938 0.35154 0.0
C968 C 0.39138 0.65493 0.4206 0.0
N969 N 0.3844 0.66181 0.38291 0.0
N970 N 0.36779 0.66516 0.38997 0.0
C971 C 0.36406 0.66143 0.43372 0.0
C972 C 0.37877 0.65451 0.45381 0.0
C973 C 0.40998 0.64945 0.42526 0.0
H974 H 0.41323 0.64026 0.39757 0.0
H975 H 0.41249 0.64283 0.45806 0.0
H976 H 0.41855 0.66101 0.42251 0.0
O977 O 0.39219 0.69576 0.32701 0.0
O978 O 0.3636 0.69926 0.33318 0.0
H979 H 0.34192 0.67844 0.44087 0.0
H980 H 0.35159 0.67158 0.4936 0.0
C981 C 0.34818 0.6674 0.45861 0.0
H982 H 0.33898 0.6564 0.46171 0.0
H983 H 0.32811 0.7039 0.34588 0.0
O984 O 0.42107 0.66569 0.33486 0.0
C985 C 0.37885 0.70557 0.32907 0.0
Co986 Co 0.08734 0.64391 0.08373 0.0
Co987 Co 0.08272 0.6033 0.09588 0.0
C988 C 0.10363 0.6188 0.01911 0.0
O989 O 0.10025 0.6341 0.03293 0.0
O990 O 0.09764 0.60532 0.03923 0.0
C991 C 0.10504 0.67697 0.07249 0.0
O992 O 0.11724 0.66769 0.05276 0.0
C993 C 0.09118 0.56781 0.13165 0.0
C994 C 0.06452 0.55799 0.14227 0.0
C995 C 0.0818 0.55413 0.15056 0.0
N996 N 0.07984 0.57937 0.11395 0.0
N997 N 0.06398 0.57306 0.11925 0.0
C998 C 0.11041 0.57056 0.13404 0.0
H999 H 0.11366 0.58449 0.12879 0.0
H1000 H 0.11565 0.5659 0.16699 0.0
H1001 H 0.11669 0.56283 0.10676 0.0
C1002 C 0.10197 0.64067 0.17498 0.0
N1003 N 0.09515 0.63335 0.13757 0.0
N1004 N 0.09215 0.61673 0.14513 0.0
C1005 C 0.0961 0.61327 0.18899 0.0
C1006 C 0.10271 0.62824 0.20873 0.0
C1007 C 0.10787 0.65919 0.17802 0.0
H1008 H 0.09645 0.66796 0.1755 0.0
H1009 H 0.11679 0.66198 0.14945 0.0
H1010 H 0.11493 0.66191 0.21007 0.0
O1011 O 0.06185 0.64056 0.07744 0.0
O1012 O 0.05877 0.61201 0.08433 0.0
H1013 H 0.07952 0.59097 0.19804 0.0
H1014 H 0.08773 0.60025 0.24996 0.0
C1015 C 0.09097 0.59715 0.21412 0.0
H1016 H 0.10204 0.58795 0.21462 0.0
H1017 H 0.05264 0.57962 0.11004 0.0
O1018 O 0.0914 0.66942 0.08691 0.0
C1019 C 0.05224 0.62708 0.07867 0.0
Co1020 Co 0.11424 0.33577 0.83673 0.0
Co1021 Co 0.15454 0.32969 0.84887 0.0
C1022 C 0.13957 0.35094 0.77154 0.0
O1023 O 0.12419 0.34823 0.78563 0.0
O1024 O 0.15285 0.34447 0.79164 0.0
C1025 C 0.08143 0.35378 0.8246 0.0
O1026 O 0.09077 0.36571 0.80403 0.0
C1027 C 0.1903 0.33769 0.88335 0.0
C1028 C 0.20032 0.31096 0.89152 0.0
C1029 C 0.2044 0.3282 0.90015 0.0
N1030 N 0.17838 0.32641 0.86697 0.0
N1031 N 0.18468 0.31051 0.87128 0.0
C1032 C 0.18844 0.35704 0.88071 0.0
H1033 H 0.1794 0.3606 0.85282 0.0
H1034 H 0.18302 0.36218 0.9128 0.0
H1035 H 0.20133 0.36319 0.87516 0.0
C1036 C 0.11808 0.35073 0.92741 0.0
N1037 N 0.12509 0.34346 0.89024 0.0
N1038 N 0.14153 0.33964 0.89805 0.0
C1039 C 0.1451 0.34339 0.94198 0.0
C1040 C 0.13044 0.35081 0.96147 0.0
C1041 C 0.09993 0.35773 0.9298 0.0
H1042 H 0.0975 0.36611 0.89991 0.0
H1043 H 0.09777 0.36565 0.96077 0.0
H1044 H 0.09053 0.34678 0.92922 0.0
O1045 O 0.11684 0.31022 0.83052 0.0
O1046 O 0.14522 0.30593 0.83785 0.0
H1047 H 0.1668 0.32589 0.95006 0.0
H1048 H 0.15695 0.33299 0.00233 0.0
C1049 C 0.16072 0.33708 0.96754 0.0
H1050 H 0.17025 0.34777 0.97123 0.0
H1051 H 0.17797 0.29925 0.8622 0.0
O1052 O 0.08887 0.34027 0.84007 0.0
C1053 C 0.1299 0.30005 0.83197 0.0
Co1054 Co 0.41897 0.36405 0.60324 0.0
Co1055 Co 0.42491 0.40463 0.59907 0.0
C1056 C 0.4063 0.38536 0.52467 0.0
O1057 O 0.40825 0.37108 0.54585 0.0
O1058 O 0.41229 0.39967 0.54029 0.0
C1059 C 0.39877 0.33235 0.60446 0.0
O1060 O 0.38648 0.34203 0.58654 0.0
C1061 C 0.41678 0.44232 0.61213 0.0
C1062 C 0.44306 0.45231 0.6275 0.0
C1063 C 0.42573 0.45715 0.62606 0.0
N1064 N 0.42832 0.42926 0.60694 0.0
N1065 N 0.44403 0.43551 0.61516 0.0
C1066 C 0.39777 0.44071 0.6021 0.0
H1067 H 0.39369 0.42686 0.60299 0.0
H1068 H 0.38989 0.44856 0.62606 0.0
H1069 H 0.3953 0.44581 0.56744 0.0
C1070 C 0.40209 0.37343 0.6892 0.0
N1071 N 0.4102 0.378 0.6506 0.0
N1072 N 0.41273 0.39497 0.65023 0.0
C1073 C 0.40655 0.40162 0.68962 0.0
C1074 C 0.39927 0.38823 0.71477 0.0
C1075 C 0.39883 0.35503 0.70358 0.0
H1076 H 0.41043 0.34695 0.69621 0.0
H1077 H 0.38761 0.34979 0.68426 0.0
H1078 H 0.39593 0.35406 0.74038 0.0
O1079 O 0.44457 0.36593 0.60136 0.0
O1080 O 0.44883 0.39444 0.59847 0.0
H1081 H 0.42093 0.42549 0.69418 0.0
H1082 H 0.40638 0.42187 0.74105 0.0
C1083 C 0.40807 0.42022 0.70399 0.0
H1084 H 0.39762 0.42779 0.68749 0.0
H1085 H 0.45538 0.42808 0.61461 0.0
O1086 O 0.41341 0.33916 0.61374 0.0
C1087 C 0.45475 0.37897 0.60011 0.0
H1088 H 0.09609 0.09858 0.03479 0.0
H1089 H 0.15417 0.15993 0.19449 0.0
H1090 H 0.12473 0.14325 0.98718 0.0
H1091 H 0.11192 0.12794 0.24236 0.0
H1092 H 0.15024 0.14752 0.11811 0.0
H1093 H 0.10862 0.10302 0.1107 0.0
C1094 C 0.10527 0.10908 0.04008 0.0
C1095 C 0.10914 0.12076 0.00499 0.0
C1096 C 0.14208 0.143 0.14565 0.0
C1097 C 0.12353 0.12584 0.09117 0.0
C1098 C 0.1444 0.14999 0.18915 0.0
C1099 C 0.13317 0.14512 0.22438 0.0
C1100 C 0.12863 0.13094 0.13782 0.0
C1101 C 0.12065 0.13223 0.21579 0.0
C1102 C 0.11236 0.11165 0.08334 0.0
C1103 C 0.12114 0.13414 0.0136 0.0
N1104 N 0.11862 0.1257 0.17331 0.0
N1105 N 0.12779 0.13641 0.05589 0.0
H1106 H 0.09501 0.90595 0.45116 0.0
H1107 H 0.15524 0.84682 0.29135 0.0
H1108 H 0.12498 0.86215 0.49865 0.0
H1109 H 0.11159 0.87693 0.24342 0.0
H1110 H 0.1507 0.85892 0.36774 0.0
H1111 H 0.10759 0.90188 0.37516 0.0
C1112 C 0.10451 0.89575 0.44583 0.0
C1113 C 0.10875 0.88419 0.48089 0.0
C1114 C 0.14234 0.86308 0.34021 0.0
C1115 C 0.12318 0.87952 0.39466 0.0
C1116 C 0.14497 0.85625 0.2967 0.0
C1117 C 0.13359 0.86067 0.26136 0.0
C1118 C 0.12839 0.87456 0.34802 0.0
C1119 C 0.12047 0.87295 0.27002 0.0
C1120 C 0.11162 0.89338 0.40253 0.0
C1121 C 0.12113 0.87116 0.47225 0.0
N1122 N 0.11814 0.87936 0.31253 0.0
N1123 N 0.1278 0.86908 0.42994 0.0
H1124 H 0.38493 0.88234 0.748 0.0
H1125 H 0.37236 0.86796 0.48728 0.0
H1126 H 0.34585 0.84808 0.69305 0.0
H1127 H 0.40346 0.90957 0.54239 0.0
H1128 H 0.35846 0.86424 0.56104 0.0
H1129 H 0.38786 0.89617 0.67395 0.0
C1130 C 0.37668 0.878 0.72038 0.0
C1131 C 0.3653 0.86391 0.7263 0.0
C1132 C 0.36802 0.87447 0.55695 0.0
C1133 C 0.36888 0.8794 0.64104 0.0
C1134 C 0.37596 0.8766 0.51482 0.0
C1135 C 0.38924 0.88892 0.50906 0.0
C1136 C 0.37369 0.88446 0.59398 0.0
C1137 C 0.39332 0.89988 0.54555 0.0
C1138 C 0.37834 0.88591 0.67809 0.0
C1139 C 0.3548 0.85887 0.68972 0.0
N1140 N 0.38585 0.89711 0.58686 0.0
N1141 N 0.35714 0.86636 0.64825 0.0
H1142 H 0.34726 0.16038 0.78869 0.0
H1143 H 0.40537 0.09764 0.94424 0.0
H1144 H 0.38754 0.12661 0.73777 0.0
H1145 H 0.37847 0.14316 -0.00671 0.0
H1146 H 0.39168 0.10189 0.86961 0.0
H1147 H 0.35133 0.14771 0.86468 0.0
C1148 C 0.35654 0.14993 0.79325 0.0
C1149 C 0.36722 0.14463 0.75726 0.0
C1150 C 0.38855 0.11073 0.89705 0.0
C1151 C 0.37202 0.13022 0.84349 0.0
C1152 C 0.39629 0.10826 0.93962 0.0
C1153 C 0.39328 0.12024 0.97466 0.0
C1154 C 0.37759 0.12514 0.88986 0.0
C1155 C 0.38139 0.1338 0.96688 0.0
C1156 C 0.35897 0.1428 0.83656 0.0
C1157 C 0.37919 0.13116 0.76491 0.0
N1158 N 0.37412 0.13598 0.92524 0.0
N1159 N 0.3814 0.12454 0.80723 0.0
H1160 H 0.84332 0.84844 0.7901 0.0
H1161 H 0.90335 0.90879 0.94576 0.0
H1162 H 0.88298 0.88299 0.7395 0.0
H1163 H 0.87459 0.8642 0.99312 0.0
H1164 H 0.88845 0.90632 0.87212 0.0
H1165 H 0.84702 0.86123 0.86601 0.0
C1166 C 0.85237 0.8591 0.79469 0.0
C1167 C 0.86308 0.86449 0.75893 0.0
C1168 C 0.88515 0.89732 0.89905 0.0
C1169 C 0.86751 0.879 0.8451 0.0
C1170 C 0.89359 0.89878 0.94101 0.0
C1171 C 0.89044 0.88644 0.97501 0.0
C1172 C 0.87342 0.88355 0.8915 0.0
C1173 C 0.87766 0.87373 0.9673 0.0
C1174 C 0.85458 0.8663 0.83797 0.0
C1175 C 0.87469 0.87829 0.76656 0.0
N1176 N 0.86978 0.87248 0.92621 0.0
N1177 N 0.87678 0.8849 0.80893 0.0
H1178 H 0.88333 0.12098 0.74781 0.0
H1179 H 0.87134 0.13767 0.48877 0.0
H1180 H 0.84427 0.15558 0.69444 0.0
H1181 H 0.90182 0.09511 0.54114 0.0
H1182 H 0.85714 0.1406 0.56233 0.0
H1183 H 0.88599 0.10736 0.67333 0.0
C1184 C 0.87497 0.12538 0.72049 0.0
C1185 C 0.86373 0.13954 0.72688 0.0
C1186 C 0.86665 0.13035 0.55768 0.0
C1187 C 0.86707 0.12439 0.64121 0.0
C1188 C 0.8748 0.12871 0.51569 0.0
C1189 C 0.88799 0.11634 0.50929 0.0
C1190 C 0.87203 0.11983 0.59395 0.0
C1191 C 0.8918 0.1049 0.5449 0.0
C1192 C 0.8765 0.11762 0.67795 0.0
C1193 C 0.85312 0.14472 0.69071 0.0
N1194 N 0.88414 0.10719 0.58616 0.0
N1195 N 0.85536 0.13741 0.64899 0.0
H1196 H 0.61174 0.12842 0.2427 0.0
H1197 H 0.6313 0.13839 0.5017 0.0
H1198 H 0.65625 0.15663 0.29321 0.0
H1199 H 0.59564 0.10005 0.44935 0.0
H1200 H 0.64366 0.14182 0.42601 0.0
H1201 H 0.60836 0.11472 0.31667 0.0
C1202 C 0.62094 0.13159 0.26934 0.0
C1203 C 0.63408 0.14397 0.26219 0.0
C1204 C 0.63342 0.13235 0.43106 0.0
C1205 C 0.63019 0.12839 0.34719 0.0
C1206 C 0.62636 0.13039 0.47425 0.0
C1207 C 0.61231 0.1191 0.48137 0.0
C1208 C 0.62604 0.12327 0.39448 0.0
C1209 C 0.60644 0.10893 0.44503 0.0
C1210 C 0.61906 0.12366 0.31152 0.0
C1211 C 0.64583 0.1473 0.29751 0.0
N1212 N 0.61308 0.11156 0.40275 0.0
N1213 N 0.64339 0.13982 0.33887 0.0
H1214 H 0.65448 0.84885 0.19986 0.0
H1215 H 0.59344 0.90684 0.04064 0.0
H1216 H 0.611 0.87928 0.24767 0.0
H1217 H 0.62734 0.86605 0.99306 0.0
H1218 H 0.60618 0.90379 0.11686 0.0
H1219 H 0.65097 0.86203 0.12457 0.0
C1220 C 0.64445 0.85855 0.19477 0.0
C1221 C 0.63275 0.86267 0.22965 0.0
C1222 C 0.61107 0.89579 0.08942 0.0
C1223 C 0.62868 0.87776 0.14405 0.0
C1224 C 0.60388 0.89761 0.04601 0.0
C1225 C 0.60916 0.88645 0.01103 0.0
C1226 C 0.62368 0.88285 0.09737 0.0
C1227 C 0.6227 0.87466 0.01954 0.0
C1228 C 0.64241 0.86603 0.15184 0.0
C1229 C 0.62004 0.87542 0.22135 0.0
N1230 N 0.62936 0.87302 0.06195 0.0
N1231 N 0.6182 0.88234 0.17927 0.0
H1232 H 0.59764 0.59643 0.54611 0.0
H1233 H 0.65938 0.65613 0.69893 0.0
H1234 H 0.63036 0.63757 0.49521 0.0
H1235 H 0.61797 0.624 0.75088 0.0
H1236 H 0.65566 0.64237 0.62419 0.0
H1237 H 0.61167 0.59949 0.62079 0.0
C1238 C 0.60806 0.60577 0.55039 0.0
C1239 C 0.61262 0.61702 0.51499 0.0
C1240 C 0.64767 0.63807 0.65228 0.0
C1241 C 0.62864 0.62062 0.5996 0.0
C1242 C 0.64988 0.64584 0.69489 0.0
C1243 C 0.63872 0.64141 0.73061 0.0
C1244 C 0.63429 0.62579 0.64579 0.0
C1245 C 0.62658 0.62802 0.72375 0.0
C1246 C 0.61602 0.60758 0.59293 0.0
C1247 C 0.62622 0.62891 0.52209 0.0
N1248 N 0.62451 0.62085 0.68201 0.0
N1249 N 0.6336 0.63055 0.56369 0.0
H1250 H 0.62441 0.38417 0.73595 0.0
H1251 H 0.63356 0.36575 -0.00411 0.0
H1252 H 0.6606 0.3469 0.79076 0.0
H1253 H 0.60398 0.40872 0.94227 0.0
H1254 H 0.64823 0.36268 0.923 0.0
H1255 H 0.62163 0.39744 0.81083 0.0
C1256 C 0.63215 0.3791 0.76372 0.0
C1257 C 0.6426 0.36433 0.75752 0.0
C1258 C 0.63882 0.37303 0.92723 0.0
C1259 C 0.63907 0.37907 0.84367 0.0
C1260 C 0.6304 0.37477 0.96886 0.0
C1261 C 0.61732 0.3873 0.9747 0.0
C1262 C 0.63383 0.38364 0.89075 0.0
C1263 C 0.61391 0.39881 0.93896 0.0
C1264 C 0.63053 0.38665 0.8065 0.0
C1265 C 0.6524 0.35827 0.7943 0.0
N1266 N 0.62183 0.39644 0.89807 0.0
N1267 N 0.65007 0.36542 0.83619 0.0
H1268 H 0.91331 0.40459 0.03524 0.0
H1269 H 0.85149 0.34741 0.19566 0.0
H1270 H 0.87991 0.36345 0.98704 0.0
H1271 H 0.89737 0.37436 0.24238 0.0
H1272 H 0.85598 0.35995 0.11986 0.0
H1273 H 0.90155 0.40033 0.11212 0.0
C1274 C 0.90321 0.39498 0.04065 0.0
C1275 C 0.89774 0.38418 0.00508 0.0
C1276 C 0.86488 0.3633 0.14699 0.0
C1277 C 0.88429 0.37927 0.09227 0.0
C1278 C 0.86229 0.35621 0.1902 0.0
C1279 C 0.87425 0.35961 0.22505 0.0
C1280 C 0.87938 0.37403 0.13894 0.0
C1281 C 0.88802 0.37113 0.21619 0.0
C1282 C 0.89659 0.39248 0.08445 0.0
C1283 C 0.88466 0.37187 0.01381 0.0
N1284 N 0.89029 0.37782 0.17396 0.0
N1285 N 0.87849 0.36965 0.05657 0.0
H1286 H 0.8506 0.65729 0.29031 0.0
H1287 H 0.91249 0.59991 0.45019 0.0
H1288 H 0.895 0.62831 0.24224 0.0
H1289 H 0.88044 0.64219 0.49781 0.0
H1290 H 0.89997 0.60362 0.37389 0.0
H1291 H 0.85538 0.6452 0.3665 0.0
C1292 C 0.86111 0.64812 0.29557 0.0
C1293 C 0.8726 0.64403 0.2602 0.0
C1294 C 0.89547 0.61185 0.40135 0.0
C1295 C 0.87808 0.63014 0.34678 0.0
C1296 C 0.90252 0.60966 0.44482 0.0
C1297 C 0.89766 0.62094 0.47999 0.0
C1298 C 0.88335 0.62523 0.39345 0.0
C1299 C 0.88473 0.63341 0.47132 0.0
C1300 C 0.86387 0.64129 0.339 0.0
C1301 C 0.88601 0.63206 0.26882 0.0
N1302 N 0.87814 0.63533 0.42887 0.0
N1303 N 0.88848 0.62565 0.31128 0.0
H1304 H 0.38038 0.36333 0.49996 0.0
H1305 H 0.39653 0.37679 0.23942 0.0
H1306 H 0.41171 0.4055 0.44876 0.0
H1307 H 0.35315 0.34701 0.29007 0.0
H1308 H 0.40082 0.38907 0.31499 0.0
H1309 H 0.36869 0.35869 0.42392 0.0
C1310 C 0.38462 0.37179 0.47271 0.0
C1311 C 0.3972 0.38469 0.48049 0.0
C1312 C 0.39016 0.38009 0.30954 0.0
C1313 C 0.38404 0.37925 0.39308 0.0
C1314 C 0.38774 0.37302 0.26642 0.0
C1315 C 0.37459 0.36069 0.25866 0.0
C1316 C 0.37961 0.37453 0.34554 0.0
C1317 C 0.36347 0.35643 0.29467 0.0
C1318 C 0.37788 0.36916 0.42932 0.0
C1319 C 0.40208 0.39538 0.44414 0.0
N1320 N 0.36645 0.36309 0.33684 0.0
N1321 N 0.39574 0.3922 0.40173 0.0
H1322 H 0.40675 0.59755 0.03728 0.0
H1323 H 0.34768 0.6585 0.19326 0.0
H1324 H 0.37545 0.64012 0.9882 0.0
H1325 H 0.39019 0.62693 0.24148 0.0
H1326 H 0.35015 0.64433 0.11865 0.0
H1327 H 0.39302 0.60071 0.11217 0.0
C1328 C 0.39665 0.6072 0.04196 0.0
C1329 C 0.39248 0.61885 0.00709 0.0
C1330 C 0.35865 0.64024 0.14597 0.0
C1331 C 0.37684 0.62258 0.09198 0.0
C1332 C 0.35719 0.64826 0.18845 0.0
C1333 C 0.36901 0.64411 0.22295 0.0
C1334 C 0.37192 0.62794 0.13848 0.0
C1335 C 0.38109 0.63075 0.21524 0.0
C1336 C 0.38888 0.60907 0.08463 0.0
C1337 C 0.37929 0.63114 0.0147 0.0
N1338 N 0.3824 0.6233 0.17365 0.0
N1339 N 0.37211 0.63285 0.0565 0.0
H1340 H 0.09946 0.59678 0.94634 0.0
H1341 H 0.16097 0.65667 0.79303 0.0
H1342 H 0.13189 0.63808 -0.00224 0.0
H1343 H 0.11827 0.62597 0.742 0.0
H1344 H 0.15719 0.6429 0.86772 0.0
H1345 H 0.11313 0.6003 0.8714 0.0
C1346 C 0.10982 0.60619 0.94217 0.0
C1347 C 0.1144 0.61734 0.97785 0.0
C1348 C 0.14891 0.63893 0.83983 0.0
C1349 C 0.12993 0.62154 0.89279 0.0
C1350 C 0.15113 0.64671 0.79724 0.0
C1351 C 0.1397 0.64267 0.76171 0.0
C1352 C 0.13528 0.62696 0.84652 0.0
C1353 C 0.12714 0.62969 0.76888 0.0
C1354 C 0.11753 0.6083 0.89943 0.0
C1355 C 0.12782 0.62941 0.97075 0.0
N1356 N 0.12512 0.62246 0.81056 0.0
N1357 N 0.13497 0.63135 0.92894 0.0
H1358 H 0.16058 0.34505 0.69763 0.0
H1359 H 0.10215 0.40816 0.54454 0.0
H1360 H 0.12174 0.38012 0.75015 0.0
H1361 H 0.1305 0.36378 0.49399 0.0
H1362 H 0.11623 0.40417 0.6188 0.0
H1363 H 0.15681 0.35816 0.62211 0.0
C1364 C 0.1517 0.35588 0.69354 0.0
C1365 C 0.14129 0.36139 0.7298 0.0
C1366 C 0.1196 0.39553 0.59112 0.0
C1367 C 0.13675 0.37626 0.64402 0.0
C1368 C 0.11162 0.39786 0.54877 0.0
C1369 C 0.11492 0.38608 0.51347 0.0
C1370 C 0.13102 0.38143 0.59783 0.0
C1371 C 0.12732 0.37294 0.52068 0.0
C1372 C 0.14943 0.36326 0.65046 0.0
C1373 C 0.12985 0.37537 0.72275 0.0
N1374 N 0.13477 0.37086 0.56211 0.0
N1375 N 0.12771 0.38217 0.68061 0.0
H1376 H 0.1075 0.11894 0.47889 0.0
H1377 H 0.13579 0.1261 0.73891 0.0
H1378 H 0.14571 0.15529 0.52894 0.0
H1379 H 0.08537 0.1083 0.69484 0.0
H1380 H 0.14457 0.12916 0.65919 0.0
H1381 H 0.10428 0.10731 0.55591 0.0
C1382 C 0.11533 0.1243 0.50608 0.0
C1383 C 0.12672 0.13817 0.49804 0.0
C1384 C 0.13173 0.12422 0.66708 0.0
C1385 C 0.12336 0.12488 0.58523 0.0
C1386 C 0.12677 0.12246 0.71227 0.0
C1387 C 0.10996 0.11681 0.72288 0.0
C1388 C 0.11973 0.1203 0.63266 0.0
C1389 C 0.09857 0.11238 0.68769 0.0
C1390 C 0.11356 0.11764 0.54975 0.0
C1391 C 0.13685 0.14452 0.53391 0.0
N1392 N 0.10363 0.11432 0.64391 0.0
N1393 N 0.13484 0.13789 0.57621 0.0
H1394 H 0.08535 0.89266 0.79531 0.0
H1395 H 0.14752 0.84317 0.94934 0.0
H1396 H 0.1349 0.87679 0.74064 0.0
H1397 H 0.12128 0.88844 0.00207 0.0
H1398 H 0.14299 0.85411 0.87217 0.0
H1399 H 0.09737 0.89036 0.87198 0.0
C1400 C 0.09893 0.88928 0.7995 0.0
C1401 C 0.10936 0.88533 0.76199 0.0
C1402 C 0.13867 0.86186 0.90075 0.0
C1403 C 0.12278 0.88177 0.84891 0.0
C1404 C 0.14134 0.8557 0.94462 0.0
C1405 C 0.13491 0.86509 0.98171 0.0
C1406 C 0.129 0.87712 0.89433 0.0
C1407 C 0.12639 0.88091 0.974 0.0
C1408 C 0.10572 0.88784 0.8431 0.0
C1409 C 0.12658 0.88005 0.76908 0.0
N1410 N 0.12333 0.8863 0.93094 0.0
N1411 N 0.13273 0.87811 0.81194 0.0
H1412 H 0.35807 0.87635 0.01186 0.0
H1413 H 0.42191 0.85861 0.22154 0.0
H1414 H 0.39885 0.83789 0.01283 0.0
H1415 H 0.38126 0.89716 0.22565 0.0
H1416 H 0.41394 0.85167 0.14346 0.0
H1417 H 0.36578 0.88432 0.09027 0.0
C1418 C 0.36852 0.86952 0.02895 0.0
C1419 C 0.37805 0.85668 0.00631 0.0
C1420 C 0.40676 0.86171 0.16117 0.0
C1421 C 0.387 0.86567 0.09466 0.0
C1422 C 0.41137 0.86569 0.20553 0.0
C1423 C 0.40205 0.87828 0.22956 0.0
C1424 C 0.3927 0.87041 0.14085 0.0
C1425 C 0.38864 0.8873 0.20776 0.0
C1426 C 0.373 0.87412 0.07331 0.0
C1427 C 0.39142 0.84807 0.0293 0.0
N1428 N 0.38422 0.88308 0.16447 0.0
N1429 N 0.39558 0.85279 0.0722 0.0
H1430 H 0.42378 0.11162 0.28412 0.0
H1431 H 0.36182 0.16235 0.45094 0.0
H1432 H 0.37434 0.13242 0.24164 0.0
H1433 H 0.39939 0.1251 0.49958 0.0
H1434 H 0.36631 0.15166 0.37371 0.0
H1435 H 0.41539 0.11621 0.3635 0.0
C1436 C 0.41097 0.11671 0.29173 0.0
C1437 C 0.39958 0.12146 0.25681 0.0
C1438 C 0.37341 0.14566 0.40133 0.0
C1439 C 0.39019 0.12733 0.34667 0.0
C1440 C 0.37081 0.15172 0.44533 0.0
C1441 C 0.38025 0.14455 0.4814 0.0
C1442 C 0.38579 0.13258 0.3934 0.0
C1443 C 0.39203 0.13108 0.4724 0.0
C1444 C 0.40623 0.11944 0.33685 0.0
C1445 C 0.38338 0.12855 0.26798 0.0
N1446 N 0.39462 0.12562 0.4291 0.0
N1447 N 0.37921 0.13147 0.31205 0.0
H1448 H 0.92005 0.85571 0.2637 0.0
H1449 H 0.85566 0.87498 0.47124 0.0
H1450 H 0.87955 0.89435 0.25707 0.0
H1451 H 0.89619 0.83627 0.47246 0.0
H1452 H 0.86341 0.88222 0.39241 0.0
H1453 H 0.91155 0.84901 0.34148 0.0
C1454 C 0.9094 0.86284 0.27906 0.0
C1455 C 0.90029 0.8754 0.2544 0.0
C1456 C 0.87054 0.8721 0.40991 0.0
C1457 C 0.89037 0.86784 0.34284 0.0
C1458 C 0.86604 0.86792 0.45452 0.0
C1459 C 0.8755 0.85522 0.47787 0.0
C1460 C 0.88451 0.8634 0.38908 0.0
C1461 C 0.88879 0.84632 0.45537 0.0
C1462 C 0.90449 0.85901 0.32327 0.0
C1463 C 0.88676 0.88452 0.27543 0.0
N1464 N 0.89299 0.85065 0.41225 0.0
N1465 N 0.88207 0.88046 0.31862 0.0
H1466 H 0.87925 0.10612 0.22252 0.0
H1467 H 0.9021 0.16677 0.01011 0.0
H1468 H 0.91952 0.14509 0.22206 0.0
H1469 H 0.85942 0.13044 0.00956 0.0
H1470 H 0.90923 0.15799 0.08742 0.0
H1471 H 0.87279 0.1131 0.14278 0.0
C1472 C 0.88681 0.11599 0.20524 0.0
C1473 C 0.8997 0.12528 0.22836 0.0
C1474 C 0.89828 0.1519 0.07059 0.0
C1475 C 0.89246 0.13338 0.13849 0.0
C1476 C 0.89423 0.15694 0.02661 0.0
C1477 C 0.88033 0.14912 0.00385 0.0
C1478 C 0.88828 0.13898 0.09189 0.0
C1479 C 0.87028 0.13667 0.02643 0.0
C1480 C 0.88309 0.12005 0.1601 0.0
C1481 C 0.9093 0.13788 0.20513 0.0
N1482 N 0.87452 0.13187 0.0694 0.0
N1483 N 0.9054 0.14166 0.16145 0.0
H1484 H 0.5956 0.15286 0.7697 0.0
H1485 H 0.64523 0.12037 0.98756 0.0
H1486 H 0.62759 0.10685 0.76355 0.0
H1487 H 0.63277 0.17416 0.96296 0.0
H1488 H 0.63819 0.11367 0.90791 0.0
H1489 H 0.60708 0.15916 0.84499 0.0
C1490 C 0.60509 0.1441 0.78441 0.0
C1491 C 0.611 0.12955 0.76046 0.0
C1492 C 0.63742 0.12699 0.91974 0.0
C1493 C 0.62403 0.13651 0.84639 0.0
C1494 C 0.64152 0.13079 0.96478 0.0
C1495 C 0.63968 0.1478 0.98088 0.0
C1496 C 0.63108 0.1403 0.89168 0.0
C1497 C 0.63449 0.16093 0.95111 0.0
C1498 C 0.61169 0.14772 0.82716 0.0
C1499 C 0.62286 0.11826 0.78123 0.0
N1500 N 0.63013 0.15686 0.90788 0.0
N1501 N 0.62908 0.12199 0.82334 0.0
H1502 H 0.62627 0.89917 0.72989 0.0
H1503 H 0.63269 0.82964 0.52961 0.0
H1504 H 0.59649 0.85169 0.72286 0.0
H1505 H 0.64222 0.88407 0.50573 0.0
H1506 H 0.62668 0.83611 0.60945 0.0
H1507 H 0.63797 0.89295 0.65368 0.0
C1508 C 0.62218 0.88752 0.71216 0.0
C1509 C 0.61068 0.87575 0.73255 0.0
C1510 C 0.6304 0.84661 0.58694 0.0
C1511 C 0.62417 0.86842 0.64718 0.0
C1512 C 0.63401 0.84288 0.54178 0.0
C1513 C 0.63804 0.85638 0.51192 0.0
C1514 C 0.63073 0.86396 0.60185 0.0
C1515 C 0.63927 0.8734 0.52842 0.0
C1516 C 0.62892 0.88392 0.66913 0.0
C1517 C 0.60569 0.86084 0.70858 0.0
N1518 N 0.63547 0.8768 0.57256 0.0
N1519 N 0.61259 0.85752 0.66727 0.0
H1520 H 0.60817 0.66796 0.01831 0.0
H1521 H 0.63136 0.60783 0.23143 0.0
H1522 H 0.65009 0.63077 0.01597 0.0
H1523 H 0.58973 0.64532 0.22789 0.0
H1524 H 0.63874 0.61544 0.15252 0.0
H1525 H 0.60199 0.66005 0.09667 0.0
C1526 C 0.61611 0.65816 0.03473 0.0
C1527 C 0.62944 0.64976 0.01114 0.0
C1528 C 0.62796 0.62192 0.16903 0.0
C1529 C 0.62252 0.64055 0.10029 0.0
C1530 C 0.62372 0.6175 0.21363 0.0
C1531 C 0.61008 0.62612 0.23549 0.0
C1532 C 0.61835 0.63494 0.14681 0.0
C1533 C 0.60046 0.63856 0.21183 0.0
C1534 C 0.6126 0.6536 0.0793 0.0
C1535 C 0.63963 0.63738 0.03352 0.0
N1536 N 0.60482 0.64266 0.16872 0.0
N1537 N 0.63586 0.63298 0.07709 0.0
H1538 H 0.60373 0.33908 0.47525 0.0
H1539 H 0.6239 0.39818 0.25821 0.0
H1540 H 0.64572 0.37617 0.47151 0.0
H1541 H 0.585 0.35786 0.26215 0.0
H1542 H 0.63109 0.39198 0.33793 0.0
H1543 H 0.59611 0.34676 0.39748 0.0
C1544 C 0.61134 0.34885 0.4577 0.0
C1545 C 0.62518 0.35722 0.47937 0.0
C1546 C 0.62094 0.38454 0.32136 0.0
C1547 C 0.61667 0.36609 0.39081 0.0
C1548 C 0.6168 0.38816 0.27624 0.0
C1549 C 0.60408 0.37829 0.25412 0.0
C1550 C 0.61214 0.37108 0.344 0.0
C1551 C 0.59509 0.36551 0.27829 0.0
C1552 C 0.60702 0.35325 0.41345 0.0
C1553 C 0.6349 0.36956 0.4555 0.0
N1554 N 0.59937 0.36219 0.32197 0.0
N1555 N 0.63039 0.37375 0.41228 0.0
H1556 H 0.90987 0.39921 0.69796 0.0
H1557 H 0.85791 0.3389 0.53508 0.0
H1558 H 0.86924 0.36549 0.74722 0.0
H1559 H 0.88073 0.38684 0.48828 0.0
H1560 H 0.86046 0.34921 0.61331 0.0
H1561 H 0.89825 0.39624 0.6211 0.0
C1562 C 0.89824 0.39153 0.69262 0.0
C1563 C 0.89051 0.38248 0.72855 0.0
C1564 C 0.86451 0.35768 0.58591 0.0
C1565 C 0.8775 0.37861 0.64111 0.0
C1566 C 0.86297 0.35183 0.54138 0.0
C1567 C 0.86897 0.36218 0.50564 0.0
C1568 C 0.87257 0.37374 0.5945 0.0
C1569 C 0.87597 0.37857 0.5153 0.0
C1570 C 0.89164 0.38979 0.64884 0.0
C1571 C 0.87566 0.37245 0.72002 0.0
N1572 N 0.87784 0.38378 0.55903 0.0
N1573 N 0.86978 0.37052 0.6769 0.0
H1574 H 0.90948 0.60758 0.78554 0.0
H1575 H 0.85828 0.66782 0.95029 0.0
H1576 H 0.87159 0.64426 0.73568 0.0
H1577 H 0.87681 0.61747 0.99257 0.0
H1578 H 0.8618 0.65904 0.87101 0.0
H1579 H 0.8969 0.61016 0.8614 0.0
C1580 C 0.89828 0.61591 0.79049 0.0
C1581 C 0.89159 0.62583 0.75468 0.0
C1582 C 0.86467 0.64974 0.89757 0.0
C1583 C 0.87748 0.6292 0.84111 0.0
C1584 C 0.86255 0.65471 0.94268 0.0
C1585 C 0.8671 0.64322 0.97751 0.0
C1586 C 0.87185 0.63339 0.88762 0.0
C1587 C 0.87315 0.6266 0.96627 0.0
C1588 C 0.89113 0.61741 0.8337 0.0
C1589 C 0.87727 0.63666 0.76281 0.0
N1590 N 0.87564 0.62224 0.92213 0.0
N1591 N 0.87083 0.63829 0.80546 0.0
H1592 H 0.38596 0.38834 0.00399 0.0
H1593 H 0.36728 0.37693 0.73933 0.0
H1594 H 0.3573 0.3452 0.94778 0.0
H1595 H 0.41407 0.39994 0.79321 0.0
H1596 H 0.35646 0.37303 0.8171 0.0
H1597 H 0.38915 0.40045 0.9274 0.0
C1598 C 0.38002 0.38167 0.97553 0.0
C1599 C 0.37138 0.36581 0.98179 0.0
C1600 C 0.36889 0.37934 0.81169 0.0
C1601 C 0.37482 0.37951 0.895 0.0
C1602 C 0.37501 0.38158 0.7676 0.0
C1603 C 0.39147 0.38887 0.76026 0.0
C1604 C 0.37929 0.38455 0.84834 0.0
C1605 C 0.40116 0.3946 0.79762 0.0
C1606 C 0.38182 0.38855 0.9321 0.0
C1607 C 0.36385 0.35759 0.9442 0.0
N1608 N 0.39495 0.39222 0.84027 0.0
N1609 N 0.36585 0.36449 0.90214 0.0
H1610 H 0.38185 0.60889 0.72181 0.0
H1611 H 0.40173 0.67038 0.50924 0.0
H1612 H 0.42094 0.64905 0.7197 0.0
H1613 H 0.3622 0.63066 0.50655 0.0
H1614 H 0.40868 0.66251 0.58724 0.0
H1615 H 0.37473 0.61563 0.6423 0.0
C1616 C 0.389 0.61899 0.70421 0.0
C1617 C 0.40176 0.62866 0.72675 0.0
C1618 C 0.39845 0.65548 0.56983 0.0
C1619 C 0.39377 0.63649 0.63726 0.0
C1620 C 0.3945 0.66001 0.52549 0.0
C1621 C 0.3816 0.65094 0.50195 0.0
C1622 C 0.38937 0.64179 0.59066 0.0
C1623 C 0.37231 0.63781 0.52408 0.0
C1624 C 0.38491 0.6229 0.65923 0.0
C1625 C 0.41083 0.64154 0.7032 0.0
N1626 N 0.37647 0.6335 0.56745 0.0
N1627 N 0.40658 0.64517 0.65971 0.0
H1628 H 0.11572 0.67527 0.47032 0.0
H1629 H 0.12632 0.6103 0.25962 0.0
H1630 H 0.14854 0.62992 0.47538 0.0
H1631 H 0.0898 0.65276 0.26539 0.0
H1632 H 0.13601 0.61755 0.337 0.0
H1633 H 0.10834 0.66842 0.39172 0.0
C1634 C 0.12153 0.66398 0.45431 0.0
C1635 C 0.13262 0.65304 0.47873 0.0
C1636 C 0.12587 0.62525 0.32128 0.0
C1637 C 0.12407 0.64486 0.38963 0.0
C1638 C 0.12029 0.62104 0.27749 0.0
C1639 C 0.10748 0.63114 0.25642 0.0
C1640 C 0.11846 0.6396 0.34369 0.0
C1641 C 0.09994 0.64489 0.28049 0.0
C1642 C 0.11726 0.65998 0.40972 0.0
C1643 C 0.13993 0.63859 0.45712 0.0
N1644 N 0.10562 0.64879 0.32279 0.0
N1645 N 0.13539 0.63477 0.41362 0.0
H1646 H 0.08158 0.37051 0.21759 0.0
H1647 H 0.15031 0.37243 0.01376 0.0
H1648 H 0.13244 0.39331 0.23208 0.0
H1649 H 0.10436 0.34033 0.0169 0.0
H1650 H 0.14347 0.38272 0.09087 0.0
H1651 H 0.08842 0.363 0.13895 0.0
C1652 C 0.09407 0.37421 0.20358 0.0
C1653 C 0.10649 0.38253 0.23056 0.0
C1654 C 0.13492 0.37341 0.0746 0.0
C1655 C 0.11465 0.37365 0.14169 0.0
C1656 C 0.13888 0.36749 0.03095 0.0
C1657 C 0.12769 0.35578 0.00914 0.0
C1658 C 0.11969 0.36754 0.09605 0.0
C1659 C 0.11308 0.34966 0.03244 0.0
C1660 C 0.09807 0.36979 0.15905 0.0
C1661 C 0.12258 0.38697 0.21169 0.0
N1662 N 0.10943 0.35571 0.07454 0.0
N1663 N 0.1263 0.38235 0.16821 0.0
H1664 H 0.27563 0.16528 0.60816 0.0
H1665 H 0.22869 0.16967 0.36459 0.0
H1666 H 0.30182 0.17808 0.4832 0.0
H1667 H 0.20151 0.17171 0.49239 0.0
H1668 H 0.25608 0.16481 0.40615 0.0
H1669 H 0.24884 0.15975 0.56462 0.0
C1670 C 0.27582 0.16654 0.57155 0.0
C1671 C 0.29083 0.17231 0.54923 0.0
C1672 C 0.24405 0.16601 0.425 0.0
C1673 C 0.26044 0.1661 0.49936 0.0
C1674 C 0.22846 0.16866 0.40126 0.0
C1675 C 0.21296 0.17124 0.42523 0.0
C1676 C 0.24399 0.16583 0.47286 0.0
C1677 C 0.21329 0.16997 0.47279 0.0
C1678 C 0.26055 0.1635 0.54673 0.0
C1679 C 0.2904 0.17389 0.50172 0.0
N1680 N 0.22856 0.16749 0.49507 0.0
N1681 N 0.27545 0.17093 0.47842 0.0
H1682 H 0.07053 0.95073 0.7269 0.0
H1683 H 0.10148 0.04719 0.78634 0.0
H1684 H 0.09586 0.98405 0.62979 0.0
H1685 H 0.06937 0.01545 0.87287 0.0
H1686 H 0.10526 0.02244 0.73502 0.0
H1687 H 0.07572 0.97228 0.78609 0.0
C1688 C 0.07744 0.96255 0.71827 0.0
C1689 C 0.0827 0.96572 0.67347 0.0
C1690 C 0.09775 0.02076 0.7658 0.0
C1691 C 0.08843 0.9907 0.74101 0.0
C1692 C 0.09581 0.03483 0.79557 0.0
C1693 C 0.08534 0.03329 0.83446 0.0
C1694 C 0.0891 0.00506 0.77493 0.0
C1695 C 0.07769 0.01713 0.84354 0.0
C1696 C 0.08035 0.97489 0.75205 0.0
C1697 C 0.09159 0.9812 0.664 0.0
N1698 N 0.07962 0.00371 0.8139 0.0
N1699 N 0.09401 0.99327 0.69746 0.0
H1700 H 0.20602 0.85715 0.04475 0.0
H1701 H 0.26852 0.84609 0.87725 0.0
H1702 H 0.23833 0.8214 0.11942 0.0
H1703 H 0.30398 0.83402 0.9859 0.0
H1704 H 0.24535 0.85068 0.93325 0.0
H1705 H 0.23021 0.86277 0.99302 0.0
C1706 C 0.21839 0.85094 0.05125 0.0
C1707 C 0.22025 0.83898 0.08695 0.0
C1708 C 0.25831 0.84764 0.94515 0.0
C1709 C 0.24774 0.84458 0.0262 0.0
C1710 C 0.2715 0.84497 0.91309 0.0
C1711 C 0.28812 0.83993 0.92727 0.0
C1712 C 0.26181 0.84495 0.99161 0.0
C1713 C 0.29131 0.83814 0.97389 0.0
C1714 C 0.2321 0.85384 0.02097 0.0
C1715 C 0.23641 0.83081 0.09256 0.0
N1716 N 0.27822 0.84038 0.00437 0.0
N1717 N 0.2495 0.8337 0.06242 0.0
H1718 H 0.40086 0.98171 0.34657 0.0
H1719 H 0.43295 0.01608 0.1038 0.0
H1720 H 0.43504 0.95382 0.25642 0.0
H1721 H 0.4033 0.04763 0.19666 0.0
H1722 H 0.42863 0.99103 0.15354 0.0
H1723 H 0.39667 0.00395 0.28713 0.0
C1724 C 0.4072 0.98015 0.31398 0.0
C1725 C 0.41842 0.96609 0.30629 0.0
C1726 C 0.42271 0.00332 0.1627 0.0
C1727 C 0.41379 0.99126 0.23857 0.0
C1728 C 0.42507 0.01758 0.13406 0.0
C1729 C 0.41821 0.03386 0.14565 0.0
C1730 C 0.41372 0.00539 0.20394 0.0
C1731 C 0.40839 0.0352 0.18575 0.0
C1732 C 0.40488 0.99283 0.28019 0.0
C1733 C 0.42642 0.96461 0.26371 0.0
N1734 N 0.40663 0.02121 0.21378 0.0
N1735 N 0.42404 0.97706 0.23165 0.0
H1736 H 0.70819 0.85518 0.42743 0.0
H1737 H 0.7704 0.80814 0.58526 0.0
H1738 H 0.73154 0.80708 0.38216 0.0
H1739 H 0.79318 0.8557 0.53462 0.0
H1740 H 0.7475 0.81068 0.52835 0.0
H1741 H 0.73227 0.85898 0.48101 0.0
C1742 C 0.71855 0.84572 0.42728 0.0
C1743 C 0.71776 0.83079 0.39954 0.0
C1744 C 0.75737 0.82071 0.53051 0.0
C1745 C 0.74482 0.83482 0.46247 0.0
C1746 C 0.77045 0.81935 0.56298 0.0
C1747 C 0.7839 0.83171 0.56507 0.0
C1748 C 0.75744 0.83468 0.50018 0.0
C1749 C 0.78306 0.84598 0.53514 0.0
C1750 C 0.73221 0.84787 0.45839 0.0
C1751 C 0.73145 0.81874 0.40282 0.0
N1752 N 0.77006 0.84706 0.50363 0.0
N1753 N 0.74417 0.82082 0.43433 0.0
H1754 H 0.92098 0.98687 0.11317 0.0
H1755 H 0.90267 0.05211 0.26774 0.0
H1756 H 0.9075 0.95092 0.21954 0.0
H1757 H 0.92133 0.01439 0.36431 0.0
H1758 H 0.8984 0.02886 0.21232 0.0
H1759 H 0.91575 0.01109 0.16549 0.0
C1760 C 0.91637 0.98415 0.1472 0.0
C1761 C 0.91424 0.96696 0.16182 0.0
C1762 C 0.90322 0.02562 0.24581 0.0
C1763 C 0.90858 0.99449 0.22227 0.0
C1764 C 0.90529 0.03886 0.27789 0.0
C1765 C 0.91206 0.03514 0.32106 0.0
C1766 C 0.90808 0.00853 0.25686 0.0
C1767 C 0.91596 0.01777 0.33148 0.0
C1768 C 0.91334 0.99795 0.17705 0.0
C1769 C 0.90879 0.96403 0.20664 0.0
N1770 N 0.91395 0.00509 0.29959 0.0
N1771 N 0.90645 0.97766 0.23558 0.0
H1772 H 0.78128 0.14642 0.90827 0.0
H1773 H 0.70896 0.14964 0.05423 0.0
H1774 H 0.79497 0.19429 0.97581 0.0
H1775 H 0.73897 0.187 0.13042 0.0
H1776 H 0.73347 0.14566 0.00289 0.0
H1777 H 0.75899 0.14125 0.96656 0.0
C1778 C 0.77966 0.15576 0.93547 0.0
C1779 C 0.78986 0.1709 0.9369 0.0
C1780 C 0.73499 0.15429 0.03161 0.0
C1781 C 0.76426 0.16532 0.00323 0.0
C1782 C 0.72092 0.15651 0.06133 0.0
C1783 C 0.72189 0.16864 0.09698 0.0
C1784 C 0.75011 0.16436 0.03756 0.0
C1785 C 0.73762 0.17754 0.10336 0.0
C1786 C 0.7668 0.15292 0.96855 0.0
C1787 C 0.78721 0.1826 0.97283 0.0
N1788 N 0.75095 0.1754 0.07369 0.0
N1789 N 0.77473 0.17957 0.00432 0.0
H1790 H 0.58338 0.01842 0.61927 0.0
H1791 H 0.58239 0.9869 0.87079 0.0
H1792 H 0.59739 0.05328 0.72783 0.0
H1793 H 0.59623 0.95174 0.76275 0.0
H1794 H 0.5877 0.01156 0.81968 0.0
H1795 H 0.58789 0.99366 0.67055 0.0
C1796 C 0.58787 0.02078 0.65359 0.0
C1797 C 0.59034 0.03782 0.66922 0.0
C1798 C 0.59 0.99847 0.80748 0.0
C1799 C 0.59482 0.00974 0.72847 0.0
C1800 C 0.58701 0.98444 0.83662 0.0
C1801 C 0.58919 0.96736 0.82107 0.0
C1802 C 0.59458 0.99532 0.76201 0.0
C1803 C 0.59478 0.96477 0.77623 0.0
C1804 C 0.59041 0.0067 0.68284 0.0
C1805 C 0.59576 0.04029 0.71427 0.0
N1806 N 0.59698 0.97859 0.74797 0.0
N1807 N 0.59751 0.02642 0.74261 0.0
H1808 H 0.72767 0.65042 0.90174 0.0
H1809 H 0.7673 0.68626 0.13595 0.0
H1810 H 0.70658 0.69268 0.98064 0.0
H1811 H 0.79587 0.65233 0.0465 0.0
H1812 H 0.74177 0.68309 0.08722 0.0
H1813 H 0.74988 0.64584 0.96125 0.0
C1814 C 0.7276 0.65855 0.93179 0.0
C1815 C 0.71548 0.67209 0.93613 0.0
C1816 C 0.75349 0.676 0.07868 0.0
C1817 C 0.7405 0.66688 0.00409 0.0
C1818 C 0.76801 0.67769 0.10678 0.0
C1819 C 0.78363 0.66933 0.09575 0.0
C1820 C 0.75465 0.66612 0.03859 0.0
C1821 C 0.78396 0.65862 0.05702 0.0
C1822 C 0.74024 0.65598 0.96561 0.0
C1823 C 0.71588 0.68228 0.97564 0.0
N1824 N 0.76975 0.6575 0.02947 0.0
N1825 N 0.72818 0.67951 0.00787 0.0
H1826 H 0.58069 0.51601 0.37026 0.0
H1827 H 0.58535 0.48908 0.11342 0.0
H1828 H 0.59688 0.55251 0.26781 0.0
H1829 H 0.59506 0.45179 0.21947 0.0
H1830 H 0.58902 0.51269 0.16891 0.0
H1831 H 0.58533 0.49214 0.31606 0.0
C1832 C 0.58565 0.51892 0.33669 0.0
C1833 C 0.58878 0.53618 0.32373 0.0
C1834 C 0.59074 0.49935 0.17983 0.0
C1835 C 0.59344 0.50913 0.26108 0.0
C1836 C 0.5887 0.48592 0.14819 0.0
C1837 C 0.59028 0.46853 0.16177 0.0
C1838 C 0.59379 0.49531 0.22571 0.0
C1839 C 0.59419 0.46505 0.20744 0.0
C1840 C 0.58826 0.50534 0.30577 0.0
C1841 C 0.59478 0.53935 0.2795 0.0
N1842 N 0.59554 0.4783 0.23794 0.0
N1843 N 0.59665 0.52599 0.24952 0.0
H1844 H 0.72727 0.35477 0.57754 0.0
H1845 H 0.769 0.31742 0.34767 0.0
H1846 H 0.70625 0.31286 0.49721 0.0
H1847 H 0.79655 0.3525 0.43628 0.0
H1848 H 0.74297 0.32105 0.39422 0.0
H1849 H 0.75006 0.35903 0.51946 0.0
C1850 C 0.72731 0.34668 0.54743 0.0
C1851 C 0.71502 0.33333 0.54232 0.0
C1852 C 0.75458 0.32829 0.40308 0.0
C1853 C 0.74077 0.33813 0.47601 0.0
C1854 C 0.76938 0.32633 0.37618 0.0
C1855 C 0.78485 0.33488 0.38767 0.0
C1856 C 0.75529 0.3386 0.4425 0.0
C1857 C 0.78476 0.34603 0.42553 0.0
C1858 C 0.74031 0.34906 0.51443 0.0
C1859 C 0.71563 0.32314 0.50281 0.0
N1860 N 0.77027 0.34739 0.45202 0.0
N1861 N 0.72828 0.32571 0.47143 0.0
H1862 H 0.95659 0.47764 0.83921 0.0
H1863 H 0.90432 0.54245 0.68247 0.0
H1864 H 0.90526 0.46242 0.79555 0.0
H1865 H 0.95921 0.53199 0.66891 0.0
H1866 H 0.90171 0.51687 0.73226 0.0
H1867 H 0.95486 0.50309 0.79004 0.0
C1868 C 0.94471 0.47997 0.82035 0.0
C1869 C 0.93098 0.46801 0.82197 0.0
C1870 C 0.91421 0.52008 0.71753 0.0
C1871 C 0.92908 0.49691 0.76461 0.0
C1872 C 0.91568 0.5345 0.68847 0.0
C1873 C 0.93201 0.53931 0.67101 0.0
C1874 C 0.92923 0.51084 0.72986 0.0
C1875 C 0.94638 0.52882 0.68163 0.0
C1876 C 0.94382 0.49436 0.79187 0.0
C1877 C 0.91595 0.47156 0.79631 0.0
N1878 N 0.94471 0.51531 0.71081 0.0
N1879 N 0.91542 0.48569 0.76827 0.0
H1880 H 0.20675 0.35528 0.96246 0.0
H1881 H 0.27155 0.31305 0.11785 0.0
H1882 H 0.23596 0.31259 0.90533 0.0
H1883 H 0.2982 0.35504 0.05037 0.0
H1884 H 0.24674 0.3172 0.06643 0.0
H1885 H 0.23012 0.35968 0.01846 0.0
C1886 C 0.21825 0.34723 0.96049 0.0
C1887 C 0.21944 0.33364 0.92858 0.0
C1888 C 0.2578 0.3259 0.06422 0.0
C1889 C 0.24574 0.33835 -0.00674 0.0
C1890 C 0.27188 0.32362 0.09353 0.0
C1891 C 0.28679 0.33399 0.08917 0.0
C1892 C 0.25867 0.33857 0.03017 0.0
C1893 C 0.28675 0.34719 0.05609 0.0
C1894 C 0.23145 0.34966 0.99283 0.0
C1895 C 0.23446 0.32322 0.92917 0.0
N1896 N 0.27298 0.34893 0.02721 0.0
N1897 N 0.24689 0.32563 0.96132 0.0
H1898 H 0.43293 0.55673 0.75152 0.0
H1899 H 0.402 0.45992 0.69509 0.0
H1900 H 0.40559 0.52446 0.84725 0.0
H1901 H 0.43598 0.49037 0.61027 0.0
H1902 H 0.39737 0.48539 0.74361 0.0
H1903 H 0.42838 0.53475 0.69274 0.0
C1904 C 0.42571 0.54506 0.75982 0.0
C1905 C 0.4197 0.54227 0.80411 0.0
C1906 C 0.40548 0.48663 0.71372 0.0
C1907 C 0.41467 0.51687 0.73734 0.0
C1908 C 0.4079 0.47216 0.68555 0.0
C1909 C 0.41915 0.47314 0.64807 0.0
C1910 C 0.41444 0.50216 0.70442 0.0
C1911 C 0.42707 0.48914 0.63856 0.0
C1912 C 0.42315 0.53249 0.72636 0.0
C1913 C 0.41041 0.52701 0.81336 0.0
N1914 N 0.42467 0.50295 0.66668 0.0
N1915 N 0.40834 0.51473 0.78032 0.0
H1916 H 0.30751 0.65796 0.47112 0.0
H1917 H 0.24201 0.67456 0.62762 0.0
H1918 H 0.26935 0.67699 0.37618 0.0
H1919 H 0.20636 0.66118 0.52032 0.0
H1920 H 0.26635 0.67024 0.57505 0.0
H1921 H 0.28443 0.6534 0.52708 0.0
C1922 C 0.29419 0.66064 0.46152 0.0
C1923 C 0.29027 0.66757 0.41865 0.0
C1924 C 0.25326 0.66766 0.56334 0.0
C1925 C 0.2639 0.66314 0.48322 0.0
C1926 C 0.23938 0.67017 0.59333 0.0
C1927 C 0.22223 0.66777 0.57854 0.0
C1928 C 0.24988 0.66317 0.51786 0.0
C1929 C 0.21943 0.66263 0.53339 0.0
C1930 C 0.28107 0.65838 0.49383 0.0
C1931 C 0.27286 0.67147 0.40875 0.0
N1932 N 0.2331 0.6608 0.5044 0.0
N1933 N 0.2603 0.66921 0.44078 0.0
H1934 H 0.10367 0.52599 0.14059 0.0
H1935 H 0.07721 0.48929 0.38579 0.0
H1936 H 0.07232 0.55331 0.23862 0.0
H1937 H 0.10203 0.4578 0.28355 0.0
H1938 H 0.08101 0.51482 0.33743 0.0
H1939 H 0.10866 0.5028 0.19708 0.0
C1940 C 0.09815 0.52722 0.17427 0.0
C1941 C 0.08748 0.54141 0.18508 0.0
C1942 C 0.08599 0.50241 0.32585 0.0
C1943 C 0.09301 0.51518 0.24944 0.0
C1944 C 0.08392 0.48787 0.35364 0.0
C1945 C 0.08961 0.47148 0.33909 0.0
C1946 C 0.0935 0.50055 0.28258 0.0
C1947 C 0.09794 0.47028 0.29674 0.0
C1948 C 0.10091 0.51401 0.20637 0.0
C1949 C 0.08051 0.54246 0.22896 0.0
N1950 N 0.09945 0.48458 0.2697 0.0
N1951 N 0.08331 0.5295 0.25936 0.0
H1952 H 0.09296 0.22279 0.32718 0.0
H1953 H 0.13737 0.31141 0.4096 0.0
H1954 H 0.14797 0.22794 0.35375 0.0
H1955 H 0.08387 0.30766 0.36606 0.0
H1956 H 0.14155 0.28085 0.38933 0.0
H1957 H 0.08948 0.25396 0.34007 0.0
C1958 C 0.10434 0.23049 0.33529 0.0
C1959 C 0.12077 0.22268 0.33958 0.0
C1960 C 0.12891 0.28673 0.38412 0.0
C1961 C 0.11683 0.2584 0.35494 0.0
C1962 C 0.12649 0.30416 0.39587 0.0
C1963 C 0.11022 0.3121 0.38973 0.0
C1964 C 0.11493 0.27712 0.36631 0.0
C1965 C 0.09663 0.30208 0.37154 0.0
C1966 C 0.10234 0.2483 0.34274 0.0
C1967 C 0.13505 0.23336 0.35009 0.0
N1968 N 0.09927 0.28511 0.36064 0.0
N1969 N 0.13272 0.25064 0.35778 0.0
H1970 H 0.94622 0.83351 0.62741 0.0
H1971 H 0.02429 0.90155 0.60207 0.0
H1972 H 0.94237 0.88753 0.66623 0.0
H1973 H 0.03143 0.84592 0.59362 0.0
H1974 H 0.9934 0.89695 0.61652 0.0
H1975 H 0.97671 0.83812 0.60736 0.0
C1976 C 0.95179 0.84634 0.63185 0.0
C1977 C 0.94172 0.86015 0.64871 0.0
C1978 C 1.00171 0.88575 0.61129 0.0
C1979 C 0.9766 0.86553 0.6253 0.0
C1980 C 0.01936 0.88835 0.60272 0.0
C1981 C 0.03056 0.87409 0.5968 0.0
C1982 C 0.99511 0.86876 0.61372 0.0
C1983 C 0.02334 0.85731 0.59812 0.0
C1984 C 0.9692 0.84895 0.62034 0.0
C1985 C 0.94965 0.87649 0.6536 0.0
N1986 N 0.00608 0.85511 0.60657 0.0
N1987 N 0.9666 0.87873 0.64182 0.0
H1988 H 0.42196 0.70055 0.86428 0.0
H1989 H 0.35131 0.77702 0.85158 0.0
H1990 H 0.36964 0.69588 0.91602 0.0
H1991 H 0.40571 0.78416 0.82017 0.0
H1992 H 0.35702 0.74632 0.86698 0.0
H1993 H 0.41559 0.73041 0.84127 0.0
C1994 C 0.40915 0.70581 0.87096 0.0
C1995 C 0.39635 0.69569 0.89239 0.0
C1996 C 0.36768 0.75459 0.8564 0.0
C1997 C 0.38891 0.72987 0.86561 0.0
C1998 C 0.36441 0.77212 0.84726 0.0
C1999 C 0.37807 0.78328 0.83477 0.0
C2000 C 0.38471 0.7481 0.85289 0.0
C2001 C 0.39478 0.77611 0.82991 0.0
C2002 C 0.4055 0.72286 0.85769 0.0
C2003 C 0.37995 0.70321 0.89988 0.0
N2004 N 0.39764 0.75902 0.83919 0.0
N2005 N 0.3767 0.71982 0.88648 0.0
H2006 H 0.48019 0.10137 0.08998 0.0
H2007 H 0.5585 0.17005 0.09905 0.0
H2008 H 0.47356 0.15653 0.06867 0.0
H2009 H 0.56291 0.11701 0.1456 0.0
H2010 H 0.52819 0.16453 0.07849 0.0
H2011 H 0.5114 0.10606 0.1001 0.0
C2012 C 0.48529 0.11444 0.08681 0.0
C2013 C 0.47416 0.12859 0.07875 0.0
C2014 C 0.5358 0.15409 0.09312 0.0
C2015 C 0.50992 0.13405 0.09066 0.0
C2016 C 0.55312 0.15723 0.10489 0.0
C2017 C 0.56325 0.144 0.12442 0.0
C2018 C 0.52854 0.13757 0.10064 0.0
C2019 C 0.55557 0.12763 0.13096 0.0
C2020 C 0.50312 0.11711 0.09288 0.0
C2021 C 0.48159 0.14524 0.07511 0.0
N2022 N 0.53868 0.12488 0.11915 0.0
N2023 N 0.49897 0.1475 0.08131 0.0
H2024 H 0.1516 0.77744 0.12703 0.0
H2025 H 0.08211 0.70018 0.10975 0.0
H2026 H 0.09655 0.78437 0.14982 0.0
H2027 H 0.13489 0.69598 0.06096 0.0
H2028 H 0.08774 0.73036 0.1311 0.0
H2029 H 0.14638 0.7467 0.11075 0.0
C2030 C 0.13844 0.77249 0.12918 0.0
C2031 C 0.12448 0.78357 0.13964 0.0
C2032 C 0.09808 0.72285 0.11562 0.0
C2033 C 0.11842 0.74839 0.12065 0.0
C2034 C 0.09487 0.70562 0.10332 0.0
C2035 C 0.10803 0.69553 0.08334 0.0
C2036 C 0.11462 0.73006 0.10823 0.0
C2037 C 0.12433 0.70328 0.07604 0.0
C2038 C 0.13546 0.75495 0.11955 0.0
C2039 C 0.10771 0.77637 0.14171 0.0
N2040 N 0.12717 0.72007 0.0886 0.0
N2041 N 0.10515 0.75926 0.13217 0.0
H2042 H 0.47149 0.85092 0.42998 0.0
H2043 H 0.56127 0.89258 0.34759 0.0
H2044 H 0.47784 0.9055 0.39971 0.0
H2045 H 0.55629 0.8397 0.39497 0.0
H2046 H 0.53098 0.89786 0.36889 0.0
H2047 H 0.5028 0.8469 0.42095 0.0
C2048 C 0.47948 0.86212 0.422 0.0
C2049 C 0.47195 0.87856 0.41527 0.0
C2050 C 0.53655 0.88513 0.37485 0.0
C2051 C 0.50786 0.87398 0.40422 0.0
C2052 C 0.55383 0.88209 0.36254 0.0
C2053 C 0.56132 0.86563 0.36916 0.0
C2054 C 0.52661 0.87159 0.39368 0.0
C2055 C 0.55106 0.85256 0.38898 0.0
C2056 C 0.49738 0.8598 0.41674 0.0
C2057 C 0.48302 0.89258 0.40511 0.0
N2058 N 0.53422 0.85579 0.40025 0.0
N2059 N 0.50036 0.88993 0.39941 0.0
H2060 H 0.35362 0.22975 0.63645 0.0
H2061 H 0.42131 0.3089 0.64215 0.0
H2062 H 0.40791 0.2243 0.67132 0.0
H2063 H 0.36862 0.31372 0.59299 0.0
H2064 H 0.41575 0.27842 0.65994 0.0
H2065 H 0.35792 0.26111 0.62831 0.0
C2066 C 0.36639 0.23514 0.64296 0.0
C2067 C 0.38045 0.22431 0.65429 0.0
C2068 C 0.40538 0.28614 0.64533 0.0
C2069 C 0.38548 0.2602 0.64465 0.0
C2070 C 0.40856 0.30356 0.63508 0.0
C2071 C 0.39545 0.31388 0.61571 0.0
C2072 C 0.38896 0.27892 0.63626 0.0
C2073 C 0.37914 0.30624 0.60763 0.0
C2074 C 0.36885 0.25305 0.63806 0.0
C2075 C 0.39671 0.23208 0.66223 0.0
N2076 N 0.37637 0.28921 0.61783 0.0
N2077 N 0.39878 0.24951 0.65702 0.0
H2078 H 0.94835 0.17234 0.85089 0.0
H2079 H 0.02508 0.10264 0.87567 0.0
H2080 H 0.94367 0.11873 0.80894 0.0
H2081 H 0.03282 0.15802 0.88972 0.0
H2082 H 0.99439 0.10789 0.85921 0.0
H2083 H 0.97865 0.16697 0.87171 0.0
C2084 C 0.95371 0.15945 0.84585 0.0
C2085 C 0.94345 0.14597 0.82797 0.0
C2086 C 1.00279 0.11888 0.86611 0.0
C2087 C 0.9781 0.1397 0.8523 0.0
C2088 C 0.02032 0.1159 0.87585 0.0
C2089 C 0.03162 0.12992 0.88397 0.0
C2090 C 0.99645 0.136 0.86474 0.0
C2091 C 0.02464 0.14681 0.88352 0.0
C2092 C 0.97101 0.1564 0.85783 0.0
C2093 C 0.9511 0.12953 0.82236 0.0
N2094 N 0.00753 0.14937 0.87395 0.0
N2095 N 0.96794 0.12684 0.83464 0.0
H2096 H 0.86677 0.69339 0.59816 0.0
H2097 H 0.9063 0.7861 0.66682 0.0
H2098 H 0.92144 0.7029 0.62085 0.0
H2099 H 0.85144 0.77688 0.64636 0.0
H2100 H 0.91178 0.75518 0.65503 0.0
H2101 H 0.86065 0.7236 0.61888 0.0
C2102 C 0.8775 0.70182 0.60734 0.0
C2103 C 0.89466 0.69561 0.60749 0.0
C2104 C 0.89852 0.75989 0.65346 0.0
C2105 C 0.88773 0.73016 0.63159 0.0
C2106 C 0.89537 0.77757 0.6604 0.0
C2107 C 0.87839 0.78418 0.65725 0.0
C2108 C 0.88463 0.74871 0.64307 0.0
C2109 C 0.86475 0.77242 0.64894 0.0
C2110 C 0.87398 0.71906 0.61936 0.0
C2111 C 0.90801 0.70712 0.62 0.0
N2112 N 0.86819 0.7553 0.64174 0.0
N2113 N 0.90427 0.72382 0.63145 0.0
H2114 H 0.97631 0.09942 0.39531 0.0
H2115 H 0.05129 0.17078 0.36504 0.0
H2116 H 0.9688 0.15454 0.41574 0.0
H2117 H 0.05929 0.11592 0.34174 0.0
H2118 H 0.02137 0.16474 0.38731 0.0
H2119 H 0.00719 0.10479 0.38108 0.0
C2120 C 0.98117 0.11262 0.39749 0.0
C2121 C 0.96985 0.12656 0.40647 0.0
C2122 C 0.02964 0.154 0.37732 0.0
C2123 C 0.00519 0.1328 0.38957 0.0
C2124 C 0.04675 0.15745 0.36439 0.0
C2125 C 0.05784 0.14385 0.35122 0.0
C2126 C 0.02349 0.1368 0.37715 0.0
C2127 C 0.0512 0.12683 0.3514 0.0
C2128 C 0.9988 0.11568 0.38906 0.0
C2129 C 0.97695 0.14338 0.40871 0.0
N2130 N 0.03446 0.12379 0.36411 0.0
N2131 N 0.99409 0.14603 0.39999 0.0
H2132 H 0.59636 0.22058 0.14739 0.0
H2133 H 0.63739 0.31131 0.06997 0.0
H2134 H 0.65162 0.23001 0.13835 0.0
H2135 H 0.58348 0.30559 0.10809 0.0
H2136 H 0.64252 0.2811 0.09163 0.0
H2137 H 0.59109 0.25135 0.13134 0.0
C2138 C 0.6074 0.22913 0.1425 0.0
C2139 C 0.62447 0.22263 0.14413 0.0
C2140 C 0.62957 0.28645 0.09533 0.0
C2141 C 0.61849 0.25785 0.12506 0.0
C2142 C 0.6266 0.30369 0.08271 0.0
C2143 C 0.60996 0.31101 0.08708 0.0
C2144 C 0.61578 0.27634 0.11214 0.0
C2145 C 0.59652 0.30049 0.10407 0.0
C2146 C 0.60437 0.2467 0.13325 0.0
C2147 C 0.63824 0.23438 0.13749 0.0
N2148 N 0.5997 0.28368 0.11582 0.0
N2149 N 0.63494 0.25135 0.12787 0.0
H2150 H 0.44332 0.88566 0.80801 0.0
H2151 H 0.53171 0.84705 0.90963 0.0
H2152 H 0.44764 0.83408 0.86473 0.0
H2153 H 0.52508 0.90103 0.87308 0.0
H2154 H 0.50099 0.842 0.89318 0.0
H2155 H 0.47347 0.89133 0.82986 0.0
C2156 C 0.45062 0.87549 0.82485 0.0
C2157 C 0.44294 0.85935 0.83441 0.0
C2158 C 0.50622 0.85498 0.8891 0.0
C2159 C 0.47745 0.86579 0.85976 0.0
C2160 C 0.52377 0.85789 0.8986 0.0
C2161 C 0.53105 0.87449 0.8926 0.0
C2162 C 0.49586 0.86871 0.87306 0.0
C2163 C 0.52007 0.88802 0.87825 0.0
C2164 C 0.46782 0.87878 0.83755 0.0
C2165 C 0.45303 0.8467 0.85656 0.0
N2166 N 0.50308 0.8848 0.86861 0.0
N2167 N 0.46976 0.85018 0.86837 0.0
H2168 H 0.92099 0.30408 0.8555 0.0
H2169 H 0.85079 0.22762 0.83524 0.0
H2170 H 0.8664 0.31093 0.88493 0.0
H2171 H 0.9059 0.22053 0.81364 0.0
H2172 H 0.85578 0.25869 0.8465 0.0
H2173 H 0.91527 0.27394 0.83463 0.0
C2174 C 0.90778 0.29924 0.8577 0.0
C2175 C 0.89416 0.31005 0.87231 0.0
C2176 C 0.86676 0.25036 0.83892 0.0
C2177 C 0.88751 0.27546 0.84808 0.0
C2178 C 0.86392 0.2326 0.83223 0.0
C2179 C 0.87797 0.22136 0.82381 0.0
C2180 C 0.88377 0.25697 0.8372 0.0
C2181 C 0.89467 0.22863 0.82029 0.0
C2182 C 0.90452 0.28201 0.84561 0.0
C2183 C 0.87731 0.30305 0.87412 0.0
N2184 N 0.89711 0.24593 0.82733 0.0
N2185 N 0.87447 0.28619 0.86223 0.0
H2186 H 0.52705 0.10352 0.60279 0.0
H2187 H 0.45121 0.17391 0.63329 0.0
H2188 H 0.53446 0.15891 0.58787 0.0
H2189 H 0.44326 0.11865 0.64905 0.0
H2190 H 0.48161 0.16846 0.61474 0.0
H2191 H 0.4961 0.10857 0.61628 0.0
C2192 C 0.52216 0.11673 0.60183 0.0
C2193 C 0.53344 0.13082 0.59436 0.0
C2194 C 0.47325 0.15751 0.6223 0.0
C2195 C 0.49801 0.13668 0.61031 0.0
C2196 C 0.45587 0.16062 0.63309 0.0
C2197 C 0.44465 0.14672 0.64291 0.0
C2198 C 0.47953 0.14036 0.62126 0.0
C2199 C 0.45144 0.12977 0.64187 0.0
C2200 C 0.50449 0.1196 0.60977 0.0
C2201 C 0.52632 0.14764 0.59361 0.0
N2202 N 0.46844 0.12707 0.63122 0.0
N2203 N 0.5091 0.15009 0.60174 0.0
H2204 H 0.58889 0.7898 0.33167 0.0
H2205 H 0.61757 0.69237 0.39011 0.0
H2206 H 0.64249 0.77411 0.34716 0.0
H2207 H 0.56532 0.70667 0.35156 0.0
H2208 H 0.6269 0.72232 0.3763 0.0
H2209 H 0.58001 0.75948 0.33961 0.0
C2210 C 0.59883 0.77998 0.3364 0.0
C2211 C 0.61649 0.78457 0.33887 0.0
C2212 C 0.6134 0.7189 0.3708 0.0
C2213 C 0.60634 0.74974 0.34852 0.0
C2214 C 0.60804 0.70181 0.3789 0.0
C2215 C 0.5906 0.697 0.37221 0.0
C2216 C 0.60123 0.73133 0.35619 0.0
C2217 C 0.57888 0.70978 0.35726 0.0
C2218 C 0.59373 0.76264 0.34097 0.0
C2219 C 0.62874 0.77121 0.34496 0.0
N2220 N 0.58439 0.72635 0.34996 0.0
N2221 N 0.62342 0.75444 0.34993 0.0
H2222 H 0.06213 0.88924 0.14377 0.0
H2223 H 0.97192 0.84783 0.0616 0.0
H2224 H 0.05601 0.83546 0.10479 0.0
H2225 H 0.97858 0.9024 0.0918 0.0
H2226 H 0.00302 0.84342 0.07351 0.0
H2227 H 0.03183 0.89457 0.12262 0.0
C2228 C 0.05443 0.87854 0.13083 0.0
C2229 C 0.06163 0.86185 0.12633 0.0
C2230 C 0.99772 0.85639 0.07715 0.0
C2231 C 0.0269 0.86788 0.10182 0.0
C2232 C 0.97994 0.85894 0.0702 0.0
C2233 C 0.97254 0.87551 0.07595 0.0
C2234 C 0.00824 0.87046 0.09028 0.0
C2235 C 0.98366 0.88939 0.08703 0.0
C2236 C 0.03713 0.88161 0.11859 0.0
C2237 C 0.05101 0.84852 0.10908 0.0
N2238 N 1.0009 0.88652 0.09424 0.0
N2239 N 0.0342 0.85181 0.09762 0.0
H2240 H 0.58112 0.80478 0.86544 0.0
H2241 H 0.65194 0.72865 0.85399 0.0
H2242 H 0.63201 0.80824 0.92678 0.0
H2243 H 0.59748 0.72059 0.82471 0.0
H2244 H 0.64578 0.75917 0.87035 0.0
H2245 H 0.58769 0.77499 0.84178 0.0
C2246 C 0.59365 0.79926 0.87409 0.0
C2247 C 0.60601 0.80901 0.89835 0.0
C2248 C 0.63521 0.75074 0.86003 0.0
C2249 C 0.61368 0.77501 0.87077 0.0
C2250 C 0.63872 0.73332 0.85029 0.0
C2251 C 0.62518 0.72196 0.83817 0.0
C2252 C 0.61805 0.75692 0.85735 0.0
C2253 C 0.60831 0.72882 0.83415 0.0
C2254 C 0.5974 0.78227 0.86048 0.0
C2255 C 0.62205 0.80119 0.90842 0.0
N2256 N 0.60522 0.74583 0.8439 0.0
N2257 N 0.62545 0.78468 0.89446 0.0
H2258 H 0.44471 0.38977 0.13765 0.0
H2259 H 0.5354 0.3492 0.05683 0.0
H2260 H 0.45167 0.33586 0.1008 0.0
H2261 H 0.5281 0.40379 0.08561 0.0
H2262 H 0.50433 0.3445 0.06819 0.0
H2263 H 0.47486 0.39548 0.11574 0.0
C2264 C 0.45257 0.37912 0.125 0.0
C2265 C 0.44566 0.36228 0.12136 0.0
C2266 C 0.50948 0.35754 0.07162 0.0
C2267 C 0.48019 0.36875 0.09599 0.0
C2268 C 0.52725 0.36026 0.06496 0.0
C2269 C 0.53446 0.3769 0.07057 0.0
C2270 C 0.49879 0.37154 0.08432 0.0
C2271 C 0.52317 0.39072 0.081 0.0
C2272 C 0.46977 0.38241 0.11233 0.0
C2273 C 0.45644 0.34903 0.10445 0.0
N2274 N 0.50594 0.38769 0.08799 0.0
N2275 N 0.47316 0.35254 0.09258 0.0
H2276 H 0.85484 0.27597 0.34918 0.0
H2277 H 0.92238 0.19733 0.37443 0.0
H2278 H 0.91053 0.28275 0.34159 0.0
H2279 H 0.86826 0.19385 0.4124 0.0
H2280 H 0.91799 0.22789 0.35438 0.0
H2281 H 0.85923 0.245 0.36315 0.0
C2282 C 0.868 0.27095 0.34996 0.0
C2283 C 0.88234 0.28207 0.34441 0.0
C2284 C 0.90709 0.22044 0.36716 0.0
C2285 C 0.88744 0.24652 0.3607 0.0
C2286 C 0.90958 0.20299 0.37866 0.0
C2287 C 0.89568 0.19302 0.39536 0.0
C2288 C 0.89054 0.22796 0.37198 0.0
C2289 C 0.87938 0.20105 0.39993 0.0
C2290 C 0.87049 0.25325 0.35822 0.0
C2291 C 0.89908 0.27473 0.34585 0.0
N2292 N 0.87725 0.21802 0.38821 0.0
N2293 N 0.90116 0.25744 0.35397 0.0
H2294 H 0.97445 0.66322 0.58416 0.0
H2295 H 0.06422 0.62007 0.66178 0.0
H2296 H 0.98125 0.60798 0.60398 0.0
H2297 H 0.05944 0.67377 0.6209 0.0
H2298 H 0.03373 0.61547 0.64161 0.0
H2299 H 0.00556 0.66736 0.59693 0.0
C2300 C 0.98249 0.65193 0.59074 0.0
C2301 C 0.97516 0.63523 0.59325 0.0
C2302 C 0.03936 0.62825 0.63696 0.0
C2303 C 0.0108 0.63993 0.60849 0.0
C2304 C 0.05676 0.63091 0.64869 0.0
C2305 C 0.06439 0.64735 0.64322 0.0
C2306 C 0.02947 0.64215 0.6199 0.0
C2307 C 0.05409 0.66089 0.62582 0.0
C2308 C 1.00027 0.65432 0.59812 0.0
C2309 C 0.98628 0.6211 0.60182 0.0
N2310 N 0.03716 0.658 0.61495 0.0
N2311 N 0.0035 0.6238 0.60952 0.0
H2312 H 0.63446 0.19707 0.56198 0.0
H2313 H 0.59831 0.28541 0.66908 0.0
H2314 H 0.58437 0.20077 0.62748 0.0
H2315 H 0.65198 0.27765 0.63097 0.0
H2316 H 0.59263 0.25468 0.65339 0.0
H2317 H 0.64062 0.22702 0.58454 0.0
C2318 C 0.62471 0.2042 0.58093 0.0
C2319 C 0.60885 0.19639 0.59272 0.0
C2320 C 0.60569 0.25968 0.64891 0.0
C2321 C 0.61586 0.23073 0.61887 0.0
C2322 C 0.60896 0.27723 0.65799 0.0
C2323 C 0.62565 0.2842 0.6512 0.0
C2324 C 0.61914 0.24905 0.63242 0.0
C2325 C 0.63891 0.27291 0.63673 0.0
C2326 C 0.62829 0.22128 0.59406 0.0
C2327 C 0.59676 0.20627 0.61756 0.0
N2328 N 0.63533 0.25597 0.6274 0.0
N2329 N 0.60049 0.22293 0.62966 0.0
H2330 H 0.97278 0.34222 0.89468 0.0
H2331 H 0.06254 0.38359 0.8115 0.0
H2332 H 0.98047 0.39739 0.87585 0.0
H2333 H 0.05794 0.3309 0.86063 0.0
H2334 H 0.03204 0.38856 0.83115 0.0
H2335 H 0.00371 0.33756 0.88018 0.0
C2336 C 0.98098 0.35338 0.88792 0.0
C2337 C 0.97395 0.37023 0.88625 0.0
C2338 C 0.03772 0.37592 0.83767 0.0
C2339 C 0.00935 0.36492 0.86898 0.0
C2340 C 0.05511 0.37304 0.8262 0.0
C2341 C 0.0628 0.3568 0.83434 0.0
C2342 C 0.02792 0.36241 0.85706 0.0
C2343 C 0.05255 0.34363 0.85373 0.0
C2344 C 0.99864 0.35069 0.87956 0.0
C2345 C 0.98526 0.38417 0.87737 0.0
N2346 N 0.03563 0.34671 0.86429 0.0
N2347 N 1.00235 0.38119 0.86867 0.0
H2348 H 0.86956 0.80996 0.06479 0.0
H2349 H 0.90985 0.71958 0.14768 0.0
H2350 H 0.92293 0.80417 0.10791 0.0
H2351 H 0.85476 0.72822 0.13 0.0
H2352 H 0.91506 0.75034 0.13208 0.0
H2353 H 0.86413 0.77971 0.08585 0.0
C2354 C 0.88017 0.80232 0.07848 0.0
C2355 C 0.89675 0.80962 0.08445 0.0
C2356 C 0.90182 0.74554 0.13197 0.0
C2357 C 0.89058 0.77496 0.10884 0.0
C2358 C 0.89882 0.72796 0.14097 0.0
C2359 C 0.88183 0.72125 0.14004 0.0
C2360 C 0.88776 0.75649 0.12149 0.0
C2361 C 0.86807 0.73278 0.13116 0.0
C2362 C 0.87703 0.78506 0.09074 0.0
C2363 C 0.90995 0.79909 0.10261 0.0
N2364 N 0.87135 0.74979 0.12185 0.0
N2365 N 0.9066 0.78229 0.11404 0.0
H2366 H 0.44654 0.62161 0.30744 0.0
H2367 H 0.53557 0.65835 0.41026 0.0
H2368 H 0.45197 0.67353 0.36153 0.0
H2369 H 0.52711 0.60415 0.37864 0.0
H2370 H 0.50518 0.66432 0.39175 0.0
H2371 H 0.47637 0.61529 0.33084 0.0
C2372 C 0.45402 0.63173 0.324 0.0
C2373 C 0.44672 0.64816 0.33239 0.0
C2374 C 0.50993 0.65109 0.38923 0.0
C2375 C 0.48092 0.64094 0.35956 0.0
C2376 C 0.5273 0.64765 0.39993 0.0
C2377 C 0.53398 0.63071 0.39596 0.0
C2378 C 0.49914 0.63754 0.374 0.0
C2379 C 0.52257 0.6174 0.38232 0.0
C2380 C 0.47104 0.62807 0.33761 0.0
C2381 C 0.45705 0.6607 0.35425 0.0
N2382 N 0.50578 0.62113 0.37148 0.0
N2383 N 0.47362 0.65684 0.36697 0.0
H2384 H 0.36918 0.192 0.09142 0.0
H2385 H 0.41252 0.28415 0.14787 0.0
H2386 H 0.42408 0.19908 0.11618 0.0
H2387 H 0.35705 0.27617 0.1375 0.0
H2388 H 0.41694 0.25296 0.13762 0.0
H2389 H 0.36445 0.22276 0.10847 0.0
C2390 C 0.38025 0.20001 0.10038 0.0
C2391 C 0.39707 0.19294 0.10216 0.0
C2392 C 0.40379 0.25801 0.13787 0.0
C2393 C 0.39172 0.2282 0.12185 0.0
C2394 C 0.40124 0.27584 0.1438 0.0
C2395 C 0.38438 0.28287 0.14335 0.0
C2396 C 0.3894 0.24706 0.13112 0.0
C2397 C 0.37029 0.27139 0.13803 0.0
C2398 C 0.37752 0.21758 0.11027 0.0
C2399 C 0.41089 0.20396 0.11422 0.0
N2400 N 0.37313 0.25409 0.1318 0.0
N2401 N 0.40792 0.22103 0.12344 0.0
H2402 H 0.47259 0.65917 0.91457 0.0
H2403 H 0.56132 0.6185 0.82146 0.0
H2404 H 0.47962 0.60442 0.88734 0.0
H2405 H 0.55728 0.67092 0.87304 0.0
H2406 H 0.53117 0.6133 0.84398 0.0
H2407 H 0.50352 0.66383 0.89983 0.0
C2408 C 0.48065 0.64808 0.90607 0.0
C2409 C 0.47342 0.63138 0.90201 0.0
C2410 C 0.53689 0.62593 0.85046 0.0
C2411 C 0.50883 0.6367 0.88434 0.0
C2412 C 0.55409 0.62894 0.83736 0.0
C2413 C 0.56184 0.64519 0.84519 0.0
C2414 C 0.5273 0.6393 0.87127 0.0
C2415 C 0.55183 0.65819 0.86621 0.0
C2416 C 0.49832 0.65077 0.89752 0.0
C2417 C 0.48457 0.61753 0.89087 0.0
N2418 N 0.53508 0.65499 0.87835 0.0
N2419 N 0.50165 0.62053 0.88199 0.0
H2420 H 0.13788 0.81392 0.59235 0.0
H2421 H 0.10073 0.72177 0.67282 0.0
H2422 H 0.08481 0.80563 0.63498 0.0
H2423 H 0.15488 0.73082 0.64192 0.0
H2424 H 0.09498 0.75269 0.66202 0.0
H2425 H 0.14456 0.78375 0.6119 0.0
C2426 C 0.12761 0.80577 0.60577 0.0
C2427 C 0.11072 0.81232 0.61178 0.0
C2428 C 0.10815 0.74796 0.65797 0.0
C2429 C 0.11832 0.77773 0.63441 0.0
C2430 C 0.11147 0.73028 0.66425 0.0
C2431 C 0.12832 0.7236 0.65805 0.0
C2432 C 0.12173 0.75912 0.64503 0.0
C2433 C 0.14169 0.73533 0.64706 0.0
C2434 C 0.13146 0.78854 0.61709 0.0
C2435 C 0.09799 0.80114 0.62957 0.0
N2436 N 0.13807 0.75248 0.6405 0.0
N2437 N 0.10204 0.7844 0.64008 0.0
H2438 H 0.94359 0.38877 0.34637 0.0
H2439 H 0.03553 0.34841 0.41807 0.0
H2440 H 0.95096 0.33492 0.383 0.0
H2441 H 0.02733 0.40323 0.39468 0.0
H2442 H 0.00443 0.34343 0.40771 0.0
H2443 H 0.97405 0.39446 0.36518 0.0
C2444 C 0.9516 0.37813 0.35836 0.0
C2445 C 0.94469 0.36131 0.36287 0.0
C2446 C 0.00939 0.35658 0.40519 0.0
C2447 C 0.97963 0.36777 0.38457 0.0
C2448 C 0.02718 0.35945 0.4112 0.0
C2449 C 0.03414 0.37627 0.40706 0.0
C2450 C 0.9984 0.37059 0.39459 0.0
C2451 C 0.0226 0.39004 0.3982 0.0
C2452 C 0.96899 0.38141 0.36924 0.0
C2453 C 0.95571 0.34808 0.37881 0.0
N2454 N 0.00535 0.38688 0.39189 0.0
N2455 N 0.97262 0.35157 0.38888 0.0
H2456 H 0.42329 0.80788 0.37101 0.0
H2457 H 0.35418 0.73049 0.34652 0.0
H2458 H 0.37002 0.81137 0.41645 0.0
H2459 H 0.40918 0.72422 0.3216 0.0
H2460 H 0.35917 0.76113 0.36384 0.0
H2461 H 0.41788 0.77802 0.34624 0.0
C2462 C 0.41047 0.80235 0.37598 0.0
C2463 C 0.39711 0.81214 0.39609 0.0
C2464 C 0.37013 0.75308 0.35427 0.0
C2465 C 0.39078 0.77799 0.36725 0.0
C2466 C 0.36728 0.73558 0.34403 0.0
C2467 C 0.3813 0.72466 0.33282 0.0
C2468 C 0.38711 0.7598 0.35319 0.0
C2469 C 0.39798 0.73208 0.33027 0.0
C2470 C 0.40738 0.78531 0.36169 0.0
C2471 C 0.38074 0.8043 0.40138 0.0
N2472 N 0.40043 0.74914 0.34064 0.0
N2473 N 0.37804 0.78771 0.38699 0.0
H2474 H 0.02737 0.60188 0.09073 0.0
H2475 H 0.94828 0.66963 0.0986 0.0
H2476 H 0.03324 0.65701 0.06726 0.0
H2477 H 0.94386 0.61593 0.13969 0.0
H2478 H 0.97878 0.66463 0.07939 0.0
H2479 H 0.9961 0.60615 0.10005 0.0
C2480 C 0.02209 0.61486 0.08698 0.0
C2481 C 0.03304 0.62913 0.07849 0.0
C2482 C 0.97113 0.65392 0.09253 0.0
C2483 C 0.99717 0.6341 0.08953 0.0
C2484 C 0.9537 0.65677 0.10356 0.0
C2485 C 0.94349 0.6432 0.1211 0.0
C2486 C 0.97845 0.63737 0.09888 0.0
C2487 C 0.95124 0.6268 0.12654 0.0
C2488 C 0.00422 0.61729 0.09255 0.0
C2489 C 0.02537 0.64563 0.074 0.0
N2490 N 0.96825 0.62435 0.11555 0.0
N2491 N 0.00794 0.64767 0.07982 0.0
H2492 H 0.09936 0.28252 0.81675 0.0
H2493 H 0.13846 0.19019 0.88925 0.0
H2494 H 0.15368 0.27401 0.8468 0.0
H2495 H 0.0851 0.19789 0.84823 0.0
H2496 H 0.14448 0.22066 0.87178 0.0
H2497 H 0.09416 0.25136 0.82494 0.0
C2498 C 0.11024 0.2741 0.82462 0.0
C2499 C 0.12698 0.28097 0.83135 0.0
C2500 C 0.13146 0.21568 0.86646 0.0
C2501 C 0.12104 0.24521 0.8413 0.0
C2502 C 0.128 0.19827 0.87656 0.0
C2503 C 0.11122 0.19147 0.87047 0.0
C2504 C 0.11804 0.22642 0.85029 0.0
C2505 C 0.09821 0.20257 0.85367 0.0
C2506 C 0.10725 0.25628 0.82939 0.0
C2507 C 0.14055 0.26935 0.84138 0.0
N2508 N 0.10188 0.21949 0.84437 0.0
N2509 N 0.13726 0.25209 0.84642 0.0
H2510 H 0.47254 0.34818 0.59417 0.0
H2511 H 0.5628 0.38838 0.67949 0.0
H2512 H 0.48026 0.40307 0.61786 0.0
H2513 H 0.55716 0.33563 0.63133 0.0
H2514 H 0.5323 0.3938 0.66037 0.0
H2515 H 0.50334 0.34322 0.60958 0.0
C2516 C 0.48073 0.35922 0.60225 0.0
C2517 C 0.47374 0.37607 0.60477 0.0
C2518 C 0.53775 0.38104 0.65399 0.0
C2519 C 0.50907 0.37042 0.62308 0.0
C2520 C 0.55514 0.3779 0.66514 0.0
C2521 C 0.56257 0.3615 0.65711 0.0
C2522 C 0.52765 0.36766 0.63496 0.0
C2523 C 0.55201 0.34847 0.63818 0.0
C2524 C 0.49833 0.35637 0.61112 0.0
C2525 C 0.48504 0.38986 0.61538 0.0
N2526 N 0.53511 0.35182 0.62786 0.0
N2527 N 0.50211 0.38671 0.62448 0.0
loop_
_geom_bond_atom_site_label_1
_geom_bond_atom_site_label_2
_geom_bond_distance
_geom_bond_site_symmetry_2
_ccdc_geom_bond_type
Co0 O3 1.970 . S
Co0 N17 1.989 . S
Co0 O25 1.967 . S
Co0 O32 1.920 . S
Co1 O4 1.966 . S
Co1 N10 2.022 . S
Co1 N18 1.993 . S
Co1 O26 1.941 . S
C2 O3 1.258 . S
C2 O4 1.263 . S
O3 Co0 1.970 . S
O3 C2 1.258 . S
O4 Co1 1.966 . S
O4 C2 1.263 . S
C5 O6 1.235 . S
C5 O32 1.289 . S
O6 C5 1.235 . S
C7 C9 1.400 . S
C7 N10 1.351 . S
C7 C12 1.501 . S
C8 C9 1.387 . S
C8 N11 1.341 . S
C9 C7 1.400 . S
C9 C8 1.387 . S
N10 Co1 2.022 . S
N10 C7 1.351 . S
N10 N11 1.365 . S
N11 C8 1.341 . S
N11 N10 1.365 . S
N11 H31 0.862 . S
C12 C7 1.501 . S
C12 H13 0.961 . S
C12 H14 0.961 . S
C12 H15 0.960 . S
H13 C12 0.961 . S
H14 C12 0.961 . S
H15 C12 0.960 . S
C16 N17 1.342 . S
C16 C20 1.401 . S
C16 C21 1.499 . S
N17 Co0 1.989 . S
N17 C16 1.342 . S
N17 N18 1.388 . S
N18 Co1 1.993 . S
N18 N17 1.388 . S
N18 C19 1.346 . S
C19 N18 1.346 . S
C19 C20 1.396 . S
C19 C29 1.510 . S
C20 C16 1.401 . S
C20 C19 1.396 . S
C21 C16 1.499 . S
C21 H22 0.959 . S
C21 H23 0.960 . S
C21 H24 0.961 . S
H22 C21 0.959 . S
H23 C21 0.960 . S
H24 C21 0.961 . S
O25 Co0 1.967 . S
O25 C33 1.258 . S
O26 Co1 1.941 . S
O26 C33 1.266 . S
H27 C29 0.959 . S
H28 C29 0.961 . S
C29 C19 1.510 . S
C29 H27 0.959 . S
C29 H28 0.961 . S
C29 H30 0.960 . S
H30 C29 0.960 . S
H31 N11 0.862 . S
O32 Co0 1.920 . S
O32 C5 1.289 . S
C33 O25 1.258 . S
C33 O26 1.266 . S
Co34 O37 1.970 . S
Co34 N51 1.989 . S
Co34 O59 1.967 . S
Co34 O66 1.920 . S
Co35 O38 1.966 . S
Co35 N44 2.022 . S
Co35 N52 1.993 . S
Co35 O60 1.941 . S
C36 O37 1.258 . S
C36 O38 1.263 . S
O37 Co34 1.970 . S
O37 C36 1.258 . S
O38 Co35 1.966 . S
O38 C36 1.263 . S
C39 O40 1.235 . S
C39 O66 1.289 . S
O40 C39 1.235 . S
C41 C43 1.400 . S
C41 N44 1.351 . S
C41 C46 1.501 . S
C42 C43 1.387 . S
C42 N45 1.341 . S
C43 C41 1.400 . S
C43 C42 1.387 . S
N44 Co35 2.022 . S
N44 C41 1.351 . S
N44 N45 1.365 . S
N45 C42 1.341 . S
N45 N44 1.365 . S
N45 H65 0.862 . S
C46 C41 1.501 . S
C46 H47 0.961 . S
C46 H48 0.961 . S
C46 H49 0.960 . S
H47 C46 0.961 . S
H48 C46 0.961 . S
H49 C46 0.960 . S
C50 N51 1.342 . S
C50 C54 1.401 . S
C50 C55 1.499 . S
N51 Co34 1.989 . S
N51 C50 1.342 . S
N51 N52 1.388 . S
N52 Co35 1.993 . S
N52 N51 1.388 . S
N52 C53 1.346 . S
C53 N52 1.346 . S
C53 C54 1.396 . S
C53 C63 1.510 . S
C54 C50 1.401 . S
C54 C53 1.396 . S
C55 C50 1.499 . S
C55 H56 0.959 . S
C55 H57 0.960 . S
C55 H58 0.961 . S
H56 C55 0.959 . S
H57 C55 0.960 . S
H58 C55 0.961 . S
O59 Co34 1.967 . S
O59 C67 1.258 . S
O60 Co35 1.941 . S
O60 C67 1.266 . S
H61 C63 0.959 . S
H62 C63 0.961 . S
C63 C53 1.510 . S
C63 H61 0.959 . S
C63 H62 0.961 . S
C63 H64 0.960 . S
H64 C63 0.960 . S
H65 N45 0.862 . S
O66 Co34 1.920 . S
O66 C39 1.289 . S
C67 O59 1.258 . S
C67 O60 1.266 . S
Co68 O71 1.970 . S
Co68 N85 1.989 . S
Co68 O93 1.967 . S
Co68 O100 1.920 . S
Co69 O72 1.966 . S
Co69 N78 2.022 . S
Co69 N86 1.993 . S
Co69 O94 1.941 . S
C70 O71 1.258 . S
C70 O72 1.263 . S
O71 Co68 1.970 . S
O71 C70 1.258 . S
O72 Co69 1.966 . S
O72 C70 1.263 . S
C73 O74 1.235 . S
C73 O100 1.289 . S
O74 C73 1.235 . S
C75 C77 1.400 . S
C75 N78 1.351 . S
C75 C80 1.501 . S
C76 C77 1.387 . S
C76 N79 1.341 . S
C77 C75 1.400 . S
C77 C76 1.387 . S
N78 Co69 2.022 . S
N78 C75 1.351 . S
N78 N79 1.365 . S
N79 C76 1.341 . S
N79 N78 1.365 . S
N79 H99 0.862 . S
C80 C75 1.501 . S
C80 H81 0.961 . S
C80 H82 0.961 . S
C80 H83 0.960 . S
H81 C80 0.961 . S
H82 C80 0.961 . S
H83 C80 0.960 . S
C84 N85 1.342 . S
C84 C88 1.401 1_556 S
C84 C89 1.499 . S
N85 Co68 1.989 . S
N85 C84 1.342 . S
N85 N86 1.388 . S
N86 Co69 1.993 . S
N86 N85 1.388 . S
N86 C87 1.346 . S
C87 N86 1.346 . S
C87 C88 1.396 1_556 S
C87 C97 1.510 . S
C88 C84 1.401 1_554 S
C88 C87 1.396 1_554 S
C89 C84 1.499 . S
C89 H90 0.959 . S
C89 H91 0.960 . S
C89 H92 0.961 1_556 S
H90 C89 0.959 . S
H91 C89 0.960 . S
H92 C89 0.961 1_554 S
O93 Co68 1.967 . S
O93 C101 1.258 . S
O94 Co69 1.941 . S
O94 C101 1.266 . S
H95 C97 0.959 1_554 S
H96 C97 0.961 1_554 S
C97 C87 1.510 . S
C97 H95 0.959 1_556 S
C97 H96 0.961 1_556 S
C97 H98 0.960 . S
H98 C97 0.960 . S
H99 N79 0.862 . S
O100 Co68 1.920 . S
O100 C73 1.289 . S
C101 O93 1.258 . S
C101 O94 1.266 . S
Co102 O105 1.970 . S
Co102 N119 1.989 . S
Co102 O127 1.967 . S
Co102 O134 1.920 . S
Co103 O106 1.966 . S
Co103 N112 2.022 . S
Co103 N120 1.993 . S
Co103 O128 1.941 . S
C104 O105 1.258 . S
C104 O106 1.263 . S
O105 Co102 1.970 . S
O105 C104 1.258 . S
O106 Co103 1.966 . S
O106 C104 1.263 . S
C107 O108 1.235 . S
C107 O134 1.289 . S
O108 C107 1.235 . S
C109 C111 1.400 . S
C109 N112 1.351 . S
C109 C114 1.501 . S
C110 C111 1.387 . S
C110 N113 1.341 . S
C111 C109 1.400 . S
C111 C110 1.387 . S
N112 Co103 2.022 . S
N112 C109 1.351 . S
N112 N113 1.365 . S
N113 C110 1.341 . S
N113 N112 1.365 . S
N113 H133 0.862 . S
C114 C109 1.501 . S
C114 H115 0.961 . S
C114 H116 0.961 . S
C114 H117 0.960 . S
H115 C114 0.961 . S
H116 C114 0.961 . S
H117 C114 0.960 . S
C118 N119 1.342 . S
C118 C122 1.401 . S
C118 C123 1.499 . S
N119 Co102 1.989 . S
N119 C118 1.342 . S
N119 N120 1.388 . S
N120 Co103 1.993 . S
N120 N119 1.388 . S
N120 C121 1.346 . S
C121 N120 1.346 . S
C121 C122 1.396 . S
C121 C131 1.510 . S
C122 C118 1.401 . S
C122 C121 1.396 . S
C123 C118 1.499 . S
C123 H124 0.959 . S
C123 H125 0.960 . S
C123 H126 0.961 . S
H124 C123 0.959 . S
H125 C123 0.960 . S
H126 C123 0.961 . S
O127 Co102 1.967 . S
O127 C135 1.258 . S
O128 Co103 1.941 . S
O128 C135 1.266 . S
H129 C131 0.959 . S
H130 C131 0.961 . S
C131 C121 1.510 . S
C131 H129 0.959 . S
C131 H130 0.961 . S
C131 H132 0.960 . S
H132 C131 0.960 . S
H133 N113 0.862 . S
O134 Co102 1.920 . S
O134 C107 1.289 . S
C135 O127 1.258 . S
C135 O128 1.266 . S
Co136 O139 1.970 . S
Co136 N153 1.989 . S
Co136 O161 1.967 . S
Co136 O168 1.920 . S
Co137 O140 1.966 . S
Co137 N146 2.022 . S
Co137 N154 1.993 . S
Co137 O162 1.941 . S
C138 O139 1.258 . S
C138 O140 1.263 . S
O139 Co136 1.970 . S
O139 C138 1.258 . S
O140 Co137 1.966 . S
O140 C138 1.263 . S
C141 O142 1.235 . S
C141 O168 1.289 . S
O142 C141 1.235 . S
C143 C145 1.400 . S
C143 N146 1.351 . S
C143 C148 1.501 . S
C144 C145 1.387 . S
C144 N147 1.341 . S
C145 C143 1.400 . S
C145 C144 1.387 . S
N146 Co137 2.022 . S
N146 C143 1.351 . S
N146 N147 1.365 . S
N147 C144 1.341 . S
N147 N146 1.365 . S
N147 H167 0.862 . S
C148 C143 1.501 . S
C148 H149 0.961 . S
C148 H150 0.961 . S
C148 H151 0.960 . S
H149 C148 0.961 . S
H150 C148 0.961 . S
H151 C148 0.960 . S
C152 N153 1.342 . S
C152 C156 1.401 1_554 S
C152 C157 1.499 . S
N153 Co136 1.989 . S
N153 C152 1.342 . S
N153 N154 1.388 . S
N154 Co137 1.993 . S
N154 N153 1.388 . S
N154 C155 1.346 . S
C155 N154 1.346 . S
C155 C156 1.396 1_554 S
C155 C165 1.510 . S
C156 C152 1.401 1_556 S
C156 C155 1.396 1_556 S
C157 C152 1.499 . S
C157 H158 0.959 . S
C157 H159 0.960 . S
C157 H160 0.961 1_554 S
H158 C157 0.959 . S
H159 C157 0.960 . S
H160 C157 0.961 1_556 S
O161 Co136 1.967 . S
O161 C169 1.258 . S
O162 Co137 1.941 . S
O162 C169 1.266 . S
H163 C165 0.959 1_556 S
H164 C165 0.961 1_556 S
C165 C155 1.510 . S
C165 H163 0.959 1_554 S
C165 H164 0.961 1_554 S
C165 H166 0.960 . S
H166 C165 0.960 . S
H167 N147 0.862 . S
O168 Co136 1.920 . S
O168 C141 1.289 . S
C169 O161 1.258 . S
C169 O162 1.266 . S
Co170 O173 1.970 . S
Co170 N187 1.989 . S
Co170 O195 1.967 . S
Co170 O202 1.920 . S
Co171 O174 1.966 . S
Co171 N180 2.022 . S
Co171 N188 1.993 . S
Co171 O196 1.941 . S
C172 O173 1.258 . S
C172 O174 1.263 . S
O173 Co170 1.970 . S
O173 C172 1.258 . S
O174 Co171 1.966 . S
O174 C172 1.263 . S
C175 O176 1.235 . S
C175 O202 1.289 . S
O176 C175 1.235 . S
C177 C179 1.400 . S
C177 N180 1.351 . S
C177 C182 1.501 . S
C178 C179 1.387 . S
C178 N181 1.341 . S
C179 C177 1.400 . S
C179 C178 1.387 . S
N180 Co171 2.022 . S
N180 C177 1.351 . S
N180 N181 1.365 . S
N181 C178 1.341 . S
N181 N180 1.365 . S
N181 H201 0.862 . S
C182 C177 1.501 . S
C182 H183 0.961 . S
C182 H184 0.961 . S
C182 H185 0.960 . S
H183 C182 0.961 . S
H184 C182 0.961 . S
H185 C182 0.960 . S
C186 N187 1.342 . S
C186 C190 1.401 . S
C186 C191 1.499 . S
N187 Co170 1.989 . S
N187 C186 1.342 . S
N187 N188 1.388 . S
N188 Co171 1.993 . S
N188 N187 1.388 . S
N188 C189 1.346 . S
C189 N188 1.346 . S
C189 C190 1.396 . S
C189 C199 1.510 . S
C190 C186 1.401 . S
C190 C189 1.396 . S
C191 C186 1.499 . S
C191 H192 0.959 . S
C191 H193 0.960 . S
C191 H194 0.961 . S
H192 C191 0.959 . S
H193 C191 0.960 . S
H194 C191 0.961 . S
O195 Co170 1.967 . S
O195 C203 1.258 . S
O196 Co171 1.941 . S
O196 C203 1.266 . S
H197 C199 0.959 . S
H198 C199 0.961 . S
C199 C189 1.510 . S
C199 H197 0.959 . S
C199 H198 0.961 . S
C199 H200 0.960 . S
H200 C199 0.960 . S
H201 N181 0.862 . S
O202 Co170 1.920 . S
O202 C175 1.289 . S
C203 O195 1.258 . S
C203 O196 1.266 . S
Co204 O207 1.970 . S
Co204 N221 1.989 . S
Co204 O229 1.967 . S
Co204 O236 1.920 . S
Co205 O208 1.966 . S
Co205 N214 2.022 . S
Co205 N222 1.993 . S
Co205 O230 1.941 . S
C206 O207 1.258 . S
C206 O208 1.263 . S
O207 Co204 1.970 . S
O207 C206 1.258 . S
O208 Co205 1.966 . S
O208 C206 1.263 . S
C209 O210 1.235 . S
C209 O236 1.289 . S
O210 C209 1.235 . S
C211 C213 1.400 . S
C211 N214 1.351 . S
C211 C216 1.501 . S
C212 C213 1.387 . S
C212 N215 1.341 . S
C213 C211 1.400 . S
C213 C212 1.387 . S
N214 Co205 2.022 . S
N214 C211 1.351 . S
N214 N215 1.365 . S
N215 C212 1.341 . S
N215 N214 1.365 . S
N215 H235 0.862 . S
C216 C211 1.501 . S
C216 H217 0.961 . S
C216 H218 0.961 . S
C216 H219 0.960 . S
H217 C216 0.961 . S
H218 C216 0.961 . S
H219 C216 0.960 . S
C220 N221 1.342 . S
C220 C224 1.401 . S
C220 C225 1.499 . S
N221 Co204 1.989 . S
N221 C220 1.342 . S
N221 N222 1.388 . S
N222 Co205 1.993 . S
N222 N221 1.388 . S
N222 C223 1.346 . S
C223 N222 1.346 . S
C223 C224 1.396 . S
C223 C233 1.510 . S
C224 C220 1.401 . S
C224 C223 1.396 . S
C225 C220 1.499 . S
C225 H226 0.959 . S
C225 H227 0.960 . S
C225 H228 0.961 . S
H226 C225 0.959 . S
H227 C225 0.960 . S
H228 C225 0.961 . S
O229 Co204 1.967 . S
O229 C237 1.258 . S
O230 Co205 1.941 . S
O230 C237 1.266 . S
H231 C233 0.959 . S
H232 C233 0.961 . S
C233 C223 1.510 . S
C233 H231 0.959 . S
C233 H232 0.961 . S
C233 H234 0.960 . S
H234 C233 0.960 . S
H235 N215 0.862 . S
O236 Co204 1.920 . S
O236 C209 1.289 . S
C237 O229 1.258 . S
C237 O230 1.266 . S
Co238 O241 1.970 . S
Co238 N255 1.989 . S
Co238 O263 1.967 . S
Co238 O270 1.920 . S
Co239 O242 1.966 . S
Co239 N248 2.022 . S
Co239 N256 1.993 . S
Co239 O264 1.941 . S
C240 O241 1.258 . S
C240 O242 1.263 . S
O241 Co238 1.970 . S
O241 C240 1.258 . S
O242 Co239 1.966 . S
O242 C240 1.263 . S
C243 O244 1.235 . S
C243 O270 1.289 . S
O244 C243 1.235 . S
C245 C247 1.400 . S
C245 N248 1.351 . S
C245 C250 1.501 . S
C246 C247 1.387 . S
C246 N249 1.341 . S
C247 C245 1.400 . S
C247 C246 1.387 . S
N248 Co239 2.022 . S
N248 C245 1.351 . S
N248 N249 1.365 . S
N249 C246 1.341 . S
N249 N248 1.365 . S
N249 H269 0.862 . S
C250 C245 1.501 . S
C250 H251 0.961 . S
C250 H252 0.961 . S
C250 H253 0.960 . S
H251 C250 0.961 . S
H252 C250 0.961 . S
H253 C250 0.960 . S
C254 N255 1.342 . S
C254 C258 1.401 . S
C254 C259 1.499 . S
N255 Co238 1.989 . S
N255 C254 1.342 . S
N255 N256 1.388 . S
N256 Co239 1.993 . S
N256 N255 1.388 . S
N256 C257 1.346 . S
C257 N256 1.346 . S
C257 C258 1.396 . S
C257 C267 1.510 . S
C258 C254 1.401 . S
C258 C257 1.396 . S
C259 C254 1.499 . S
C259 H260 0.959 . S
C259 H261 0.960 . S
C259 H262 0.961 . S
H260 C259 0.959 . S
H261 C259 0.960 . S
H262 C259 0.961 . S
O263 Co238 1.967 . S
O263 C271 1.258 . S
O264 Co239 1.941 . S
O264 C271 1.266 . S
H265 C267 0.959 . S
H266 C267 0.961 . S
C267 C257 1.510 . S
C267 H265 0.959 . S
C267 H266 0.961 . S
C267 H268 0.960 . S
H268 C267 0.960 . S
H269 N249 0.862 . S
O270 Co238 1.920 . S
O270 C243 1.289 . S
C271 O263 1.258 . S
C271 O264 1.266 . S
Co272 O275 1.970 . S
Co272 N289 1.989 . S
Co272 O297 1.967 . S
Co272 O304 1.920 . S
Co273 O276 1.966 . S
Co273 N282 2.022 . S
Co273 N290 1.993 . S
Co273 O298 1.941 . S
C274 O275 1.258 . S
C274 O276 1.263 . S
O275 Co272 1.970 . S
O275 C274 1.258 . S
O276 Co273 1.966 . S
O276 C274 1.263 . S
C277 O278 1.235 . S
C277 O304 1.289 . S
O278 C277 1.235 . S
C279 C281 1.400 . S
C279 N282 1.351 . S
C279 C284 1.501 . S
C280 C281 1.387 . S
C280 N283 1.341 . S
C281 C279 1.400 . S
C281 C280 1.387 . S
N282 Co273 2.022 . S
N282 C279 1.351 . S
N282 N283 1.365 . S
N283 C280 1.341 . S
N283 N282 1.365 . S
N283 H303 0.862 . S
C284 C279 1.501 . S
C284 H285 0.961 . S
C284 H286 0.961 . S
C284 H287 0.960 . S
H285 C284 0.961 . S
H286 C284 0.961 . S
H287 C284 0.960 . S
C288 N289 1.342 . S
C288 C292 1.401 . S
C288 C293 1.499 . S
N289 Co272 1.989 . S
N289 C288 1.342 . S
N289 N290 1.388 . S
N290 Co273 1.993 . S
N290 N289 1.388 . S
N290 C291 1.346 . S
C291 N290 1.346 . S
C291 C292 1.396 . S
C291 C301 1.510 . S
C292 C288 1.401 . S
C292 C291 1.396 . S
C293 C288 1.499 . S
C293 H294 0.959 . S
C293 H295 0.960 . S
C293 H296 0.961 . S
H294 C293 0.959 . S
H295 C293 0.960 . S
H296 C293 0.961 . S
O297 Co272 1.967 . S
O297 C305 1.258 . S
O298 Co273 1.941 . S
O298 C305 1.266 . S
H299 C301 0.959 . S
H300 C301 0.961 . S
C301 C291 1.510 . S
C301 H299 0.959 . S
C301 H300 0.961 . S
C301 H302 0.960 . S
H302 C301 0.960 . S
H303 N283 0.862 . S
O304 Co272 1.920 . S
O304 C277 1.289 . S
C305 O297 1.258 . S
C305 O298 1.266 . S
Co306 O309 1.970 . S
Co306 N323 1.989 . S
Co306 O331 1.967 . S
Co306 O338 1.920 . S
Co307 O310 1.966 . S
Co307 N316 2.022 . S
Co307 N324 1.993 . S
Co307 O332 1.941 . S
C308 O309 1.258 . S
C308 O310 1.263 . S
O309 Co306 1.970 . S
O309 C308 1.258 . S
O310 Co307 1.966 . S
O310 C308 1.263 . S
C311 O312 1.235 . S
C311 O338 1.289 . S
O312 C311 1.235 . S
C313 C315 1.400 . S
C313 N316 1.351 . S
C313 C318 1.501 . S
C314 C315 1.387 . S
C314 N317 1.341 . S
C315 C313 1.400 . S
C315 C314 1.387 . S
N316 Co307 2.022 . S
N316 C313 1.351 . S
N316 N317 1.365 . S
N317 C314 1.341 . S
N317 N316 1.365 . S
N317 H337 0.862 . S
C318 C313 1.501 . S
C318 H319 0.961 . S
C318 H320 0.961 . S
C318 H321 0.960 . S
H319 C318 0.961 . S
H320 C318 0.961 . S
H321 C318 0.960 . S
C322 N323 1.342 . S
C322 C326 1.401 . S
C322 C327 1.499 . S
N323 Co306 1.989 . S
N323 C322 1.342 . S
N323 N324 1.388 . S
N324 Co307 1.993 . S
N324 N323 1.388 . S
N324 C325 1.346 . S
C325 N324 1.346 . S
C325 C326 1.396 . S
C325 C335 1.510 . S
C326 C322 1.401 . S
C326 C325 1.396 . S
C327 C322 1.499 . S
C327 H328 0.959 . S
C327 H329 0.960 . S
C327 H330 0.961 . S
H328 C327 0.959 . S
H329 C327 0.960 . S
H330 C327 0.961 . S
O331 Co306 1.967 . S
O331 C339 1.258 . S
O332 Co307 1.941 . S
O332 C339 1.266 . S
H333 C335 0.959 . S
H334 C335 0.961 . S
C335 C325 1.510 . S
C335 H333 0.959 . S
C335 H334 0.961 . S
C335 H336 0.960 . S
H336 C335 0.960 . S
H337 N317 0.862 . S
O338 Co306 1.920 . S
O338 C311 1.289 . S
C339 O331 1.258 . S
C339 O332 1.266 . S
Co340 O343 1.970 . S
Co340 N357 1.989 . S
Co340 O365 1.967 . S
Co340 O372 1.920 . S
Co341 O344 1.966 . S
Co341 N350 2.022 . S
Co341 N358 1.993 . S
Co341 O366 1.941 . S
C342 O343 1.258 . S
C342 O344 1.263 . S
O343 Co340 1.970 . S
O343 C342 1.258 . S
O344 Co341 1.966 . S
O344 C342 1.263 . S
C345 O346 1.235 . S
C345 O372 1.289 . S
O346 C345 1.235 . S
C347 C349 1.400 . S
C347 N350 1.351 . S
C347 C352 1.501 . S
C348 C349 1.387 . S
C348 N351 1.341 . S
C349 C347 1.400 . S
C349 C348 1.387 . S
N350 Co341 2.022 . S
N350 C347 1.351 . S
N350 N351 1.365 . S
N351 C348 1.341 . S
N351 N350 1.365 . S
N351 H371 0.862 . S
C352 C347 1.501 . S
C352 H353 0.961 . S
C352 H354 0.961 . S
C352 H355 0.960 . S
H353 C352 0.961 . S
H354 C352 0.961 . S
H355 C352 0.960 . S
C356 N357 1.342 . S
C356 C360 1.401 1_554 S
C356 C361 1.499 . S
N357 Co340 1.989 . S
N357 C356 1.342 . S
N357 N358 1.388 . S
N358 Co341 1.993 . S
N358 N357 1.388 . S
N358 C359 1.346 . S
C359 N358 1.346 . S
C359 C360 1.396 1_554 S
C359 C369 1.510 . S
C360 C356 1.401 1_556 S
C360 C359 1.396 1_556 S
C361 C356 1.499 . S
C361 H362 0.959 . S
C361 H363 0.960 . S
C361 H364 0.961 1_554 S
H362 C361 0.959 . S
H363 C361 0.960 . S
H364 C361 0.961 1_556 S
O365 Co340 1.967 . S
O365 C373 1.258 . S
O366 Co341 1.941 . S
O366 C373 1.266 . S
H367 C369 0.959 1_556 S
H368 C369 0.961 1_556 S
C369 C359 1.510 . S
C369 H367 0.959 1_554 S
C369 H368 0.961 1_554 S
C369 H370 0.960 . S
H370 C369 0.960 . S
H371 N351 0.862 . S
O372 Co340 1.920 . S
O372 C345 1.289 . S
C373 O365 1.258 . S
C373 O366 1.266 . S
Co374 O377 1.970 . S
Co374 N391 1.989 . S
Co374 O399 1.967 . S
Co374 O406 1.920 . S
Co375 O378 1.966 . S
Co375 N384 2.022 . S
Co375 N392 1.993 . S
Co375 O400 1.941 . S
C376 O377 1.258 . S
C376 O378 1.263 . S
O377 Co374 1.970 . S
O377 C376 1.258 . S
O378 Co375 1.966 . S
O378 C376 1.263 . S
C379 O380 1.235 . S
C379 O406 1.289 . S
O380 C379 1.235 . S
C381 C383 1.400 . S
C381 N384 1.351 . S
C381 C386 1.501 . S
C382 C383 1.387 . S
C382 N385 1.341 . S
C383 C381 1.400 . S
C383 C382 1.387 . S
N384 Co375 2.022 . S
N384 C381 1.351 . S
N384 N385 1.365 . S
N385 C382 1.341 . S
N385 N384 1.365 . S
N385 H405 0.862 . S
C386 C381 1.501 . S
C386 H387 0.961 . S
C386 H388 0.961 . S
C386 H389 0.960 . S
H387 C386 0.961 . S
H388 C386 0.961 . S
H389 C386 0.960 . S
C390 N391 1.342 . S
C390 C394 1.401 . S
C390 C395 1.499 . S
N391 Co374 1.989 . S
N391 C390 1.342 . S
N391 N392 1.388 . S
N392 Co375 1.993 . S
N392 N391 1.388 . S
N392 C393 1.346 . S
C393 N392 1.346 . S
C393 C394 1.396 . S
C393 C403 1.510 . S
C394 C390 1.401 . S
C394 C393 1.396 . S
C395 C390 1.499 . S
C395 H396 0.959 . S
C395 H397 0.960 . S
C395 H398 0.961 . S
H396 C395 0.959 . S
H397 C395 0.960 . S
H398 C395 0.961 . S
O399 Co374 1.967 . S
O399 C407 1.258 . S
O400 Co375 1.941 . S
O400 C407 1.266 . S
H401 C403 0.959 . S
H402 C403 0.961 . S
C403 C393 1.510 . S
C403 H401 0.959 . S
C403 H402 0.961 . S
C403 H404 0.960 . S
H404 C403 0.960 . S
H405 N385 0.862 . S
O406 Co374 1.920 . S
O406 C379 1.289 . S
C407 O399 1.258 . S
C407 O400 1.266 . S
Co408 O411 1.970 . S
Co408 N425 1.989 . S
Co408 O433 1.967 . S
Co408 O440 1.920 . S
Co409 O412 1.966 . S
Co409 N418 2.022 . S
Co409 N426 1.993 . S
Co409 O434 1.941 . S
C410 O411 1.258 . S
C410 O412 1.263 . S
O411 Co408 1.970 . S
O411 C410 1.258 . S
O412 Co409 1.966 . S
O412 C410 1.263 . S
C413 O414 1.235 . S
C413 O440 1.289 . S
O414 C413 1.235 . S
C415 C417 1.400 . S
C415 N418 1.351 . S
C415 C420 1.501 . S
C416 C417 1.387 . S
C416 N419 1.341 . S
C417 C415 1.400 . S
C417 C416 1.387 . S
N418 Co409 2.022 . S
N418 C415 1.351 . S
N418 N419 1.365 . S
N419 C416 1.341 . S
N419 N418 1.365 . S
N419 H439 0.862 . S
C420 C415 1.501 . S
C420 H421 0.961 . S
C420 H422 0.961 . S
C420 H423 0.960 . S
H421 C420 0.961 . S
H422 C420 0.961 . S
H423 C420 0.960 . S
C424 N425 1.342 . S
C424 C428 1.401 1_556 S
C424 C429 1.499 . S
N425 Co408 1.989 . S
N425 C424 1.342 . S
N425 N426 1.388 . S
N426 Co409 1.993 . S
N426 N425 1.388 . S
N426 C427 1.346 . S
C427 N426 1.346 . S
C427 C428 1.396 1_556 S
C427 C437 1.510 . S
C428 C424 1.401 1_554 S
C428 C427 1.396 1_554 S
C429 C424 1.499 . S
C429 H430 0.959 . S
C429 H431 0.960 . S
C429 H432 0.961 1_556 S
H430 C429 0.959 . S
H431 C429 0.960 . S
H432 C429 0.961 1_554 S
O433 Co408 1.967 . S
O433 C441 1.258 . S
O434 Co409 1.941 . S
O434 C441 1.266 . S
H435 C437 0.959 1_554 S
H436 C437 0.961 1_554 S
C437 C427 1.510 . S
C437 H435 0.959 1_556 S
C437 H436 0.961 1_556 S
C437 H438 0.960 . S
H438 C437 0.960 . S
H439 N419 0.862 . S
O440 Co408 1.920 . S
O440 C413 1.289 . S
C441 O433 1.258 . S
C441 O434 1.266 . S
Co442 O445 1.970 . S
Co442 N459 1.989 . S
Co442 O467 1.967 . S
Co442 O474 1.920 . S
Co443 O446 1.966 . S
Co443 N452 2.022 . S
Co443 N460 1.993 . S
Co443 O468 1.941 . S
C444 O445 1.258 . S
C444 O446 1.263 . S
O445 Co442 1.970 . S
O445 C444 1.258 . S
O446 Co443 1.966 . S
O446 C444 1.263 . S
C447 O448 1.235 . S
C447 O474 1.289 . S
O448 C447 1.235 . S
C449 C451 1.400 . S
C449 N452 1.351 . S
C449 C454 1.501 . S
C450 C451 1.387 . S
C450 N453 1.341 . S
C451 C449 1.400 . S
C451 C450 1.387 . S
N452 Co443 2.022 . S
N452 C449 1.351 . S
N452 N453 1.365 . S
N453 C450 1.341 . S
N453 N452 1.365 . S
N453 H473 0.862 . S
C454 C449 1.501 . S
C454 H455 0.961 . S
C454 H456 0.961 . S
C454 H457 0.960 . S
H455 C454 0.961 . S
H456 C454 0.961 . S
H457 C454 0.960 . S
C458 N459 1.342 . S
C458 C462 1.401 . S
C458 C463 1.499 . S
N459 Co442 1.989 . S
N459 C458 1.342 . S
N459 N460 1.388 . S
N460 Co443 1.993 . S
N460 N459 1.388 . S
N460 C461 1.346 . S
C461 N460 1.346 . S
C461 C462 1.396 . S
C461 C471 1.510 . S
C462 C458 1.401 . S
C462 C461 1.396 . S
C463 C458 1.499 . S
C463 H464 0.959 . S
C463 H465 0.960 . S
C463 H466 0.961 . S
H464 C463 0.959 . S
H465 C463 0.960 . S
H466 C463 0.961 . S
O467 Co442 1.967 . S
O467 C475 1.258 . S
O468 Co443 1.941 . S
O468 C475 1.266 . S
H469 C471 0.959 . S
H470 C471 0.961 . S
C471 C461 1.510 . S
C471 H469 0.959 . S
C471 H470 0.961 . S
C471 H472 0.960 . S
H472 C471 0.960 . S
H473 N453 0.862 . S
O474 Co442 1.920 . S
O474 C447 1.289 . S
C475 O467 1.258 . S
C475 O468 1.266 . S
Co476 O479 1.970 . S
Co476 N493 1.989 . S
Co476 O501 1.967 . S
Co476 O508 1.920 . S
Co477 O480 1.966 . S
Co477 N486 2.022 . S
Co477 N494 1.993 . S
Co477 O502 1.941 . S
C478 O479 1.258 . S
C478 O480 1.263 . S
O479 Co476 1.970 . S
O479 C478 1.258 . S
O480 Co477 1.966 . S
O480 C478 1.263 . S
C481 O482 1.235 . S
C481 O508 1.289 . S
O482 C481 1.235 . S
C483 C485 1.400 . S
C483 N486 1.351 . S
C483 C488 1.501 . S
C484 C485 1.387 . S
C484 N487 1.341 . S
C485 C483 1.400 . S
C485 C484 1.387 . S
N486 Co477 2.022 . S
N486 C483 1.351 . S
N486 N487 1.365 . S
N487 C484 1.341 . S
N487 N486 1.365 . S
N487 H507 0.862 . S
C488 C483 1.501 . S
C488 H489 0.961 . S
C488 H490 0.961 . S
C488 H491 0.960 . S
H489 C488 0.961 . S
H490 C488 0.961 . S
H491 C488 0.960 . S
C492 N493 1.342 . S
C492 C496 1.401 . S
C492 C497 1.499 . S
N493 Co476 1.989 . S
N493 C492 1.342 . S
N493 N494 1.388 . S
N494 Co477 1.993 . S
N494 N493 1.388 . S
N494 C495 1.346 . S
C495 N494 1.346 . S
C495 C496 1.396 . S
C495 C505 1.510 . S
C496 C492 1.401 . S
C496 C495 1.396 . S
C497 C492 1.499 . S
C497 H498 0.959 . S
C497 H499 0.960 . S
C497 H500 0.961 . S
H498 C497 0.959 . S
H499 C497 0.960 . S
H500 C497 0.961 . S
O501 Co476 1.967 . S
O501 C509 1.258 . S
O502 Co477 1.941 . S
O502 C509 1.266 . S
H503 C505 0.959 . S
H504 C505 0.961 . S
C505 C495 1.510 . S
C505 H503 0.959 . S
C505 H504 0.961 . S
C505 H506 0.960 . S
H506 C505 0.960 . S
H507 N487 0.862 . S
O508 Co476 1.920 . S
O508 C481 1.289 . S
C509 O501 1.258 . S
C509 O502 1.266 . S
Co510 O513 1.970 . S
Co510 N527 1.989 . S
Co510 O535 1.967 . S
Co510 O542 1.920 . S
Co511 O514 1.966 . S
Co511 N520 2.022 . S
Co511 N528 1.993 . S
Co511 O536 1.941 . S
C512 O513 1.258 . S
C512 O514 1.263 . S
O513 Co510 1.970 . S
O513 C512 1.258 . S
O514 Co511 1.966 . S
O514 C512 1.263 . S
C515 O516 1.235 . S
C515 O542 1.289 . S
O516 C515 1.235 . S
C517 C519 1.400 . S
C517 N520 1.351 . S
C517 C522 1.501 . S
C518 C519 1.387 . S
C518 N521 1.341 . S
C519 C517 1.400 . S
C519 C518 1.387 . S
N520 Co511 2.022 . S
N520 C517 1.351 . S
N520 N521 1.365 . S
N521 C518 1.341 . S
N521 N520 1.365 . S
N521 H541 0.862 . S
C522 C517 1.501 . S
C522 H523 0.961 . S
C522 H524 0.961 . S
C522 H525 0.960 . S
H523 C522 0.961 . S
H524 C522 0.961 . S
H525 C522 0.960 . S
C526 N527 1.342 . S
C526 C530 1.401 . S
C526 C531 1.499 . S
N527 Co510 1.989 . S
N527 C526 1.342 . S
N527 N528 1.388 . S
N528 Co511 1.993 . S
N528 N527 1.388 . S
N528 C529 1.346 . S
C529 N528 1.346 . S
C529 C530 1.396 . S
C529 C539 1.510 . S
C530 C526 1.401 . S
C530 C529 1.396 . S
C531 C526 1.499 . S
C531 H532 0.959 . S
C531 H533 0.960 . S
C531 H534 0.961 . S
H532 C531 0.959 . S
H533 C531 0.960 . S
H534 C531 0.961 . S
O535 Co510 1.967 . S
O535 C543 1.258 . S
O536 Co511 1.941 . S
O536 C543 1.266 . S
H537 C539 0.959 . S
H538 C539 0.961 . S
C539 C529 1.510 . S
C539 H537 0.959 . S
C539 H538 0.961 . S
C539 H540 0.960 . S
H540 C539 0.960 . S
H541 N521 0.862 . S
O542 Co510 1.920 . S
O542 C515 1.289 . S
C543 O535 1.258 . S
C543 O536 1.266 . S
Co544 O547 1.970 . S
Co544 N561 1.989 . S
Co544 O569 1.967 . S
Co544 O576 1.920 . S
Co545 O548 1.966 . S
Co545 N554 2.022 . S
Co545 N562 1.993 . S
Co545 O570 1.941 . S
C546 O547 1.258 . S
C546 O548 1.263 . S
O547 Co544 1.970 . S
O547 C546 1.258 . S
O548 Co545 1.966 . S
O548 C546 1.263 . S
C549 O550 1.235 . S
C549 O576 1.289 . S
O550 C549 1.235 . S
C551 C553 1.400 . S
C551 N554 1.351 . S
C551 C556 1.501 . S
C552 C553 1.387 . S
C552 N555 1.341 . S
C553 C551 1.400 . S
C553 C552 1.387 . S
N554 Co545 2.022 . S
N554 C551 1.351 . S
N554 N555 1.365 . S
N555 C552 1.341 . S
N555 N554 1.365 . S
N555 H575 0.862 . S
C556 C551 1.501 . S
C556 H557 0.961 . S
C556 H558 0.961 . S
C556 H559 0.960 . S
H557 C556 0.961 . S
H558 C556 0.961 . S
H559 C556 0.960 . S
C560 N561 1.342 . S
C560 C564 1.401 1_556 S
C560 C565 1.499 . S
N561 Co544 1.989 . S
N561 C560 1.342 . S
N561 N562 1.388 . S
N562 Co545 1.993 . S
N562 N561 1.388 . S
N562 C563 1.346 . S
C563 N562 1.346 . S
C563 C564 1.396 1_556 S
C563 C573 1.510 . S
C564 C560 1.401 1_554 S
C564 C563 1.396 1_554 S
C565 C560 1.499 . S
C565 H566 0.959 . S
C565 H567 0.960 . S
C565 H568 0.961 1_556 S
H566 C565 0.959 . S
H567 C565 0.960 . S
H568 C565 0.961 1_554 S
O569 Co544 1.967 . S
O569 C577 1.258 . S
O570 Co545 1.941 . S
O570 C577 1.266 . S
H571 C573 0.959 1_554 S
H572 C573 0.961 1_554 S
C573 C563 1.510 . S
C573 H571 0.959 1_556 S
C573 H572 0.961 1_556 S
C573 H574 0.960 . S
H574 C573 0.960 . S
H575 N555 0.862 . S
O576 Co544 1.920 . S
O576 C549 1.289 . S
C577 O569 1.258 . S
C577 O570 1.266 . S
Co578 O581 1.970 . S
Co578 N595 1.989 . S
Co578 O603 1.967 . S
Co578 O610 1.920 . S
Co579 O582 1.966 . S
Co579 N588 2.022 . S
Co579 N596 1.993 . S
Co579 O604 1.941 . S
C580 O581 1.258 . S
C580 O582 1.263 . S
O581 Co578 1.970 . S
O581 C580 1.258 . S
O582 Co579 1.966 . S
O582 C580 1.263 . S
C583 O584 1.235 . S
C583 O610 1.289 . S
O584 C583 1.235 . S
C585 C587 1.400 . S
C585 N588 1.351 . S
C585 C590 1.501 . S
C586 C587 1.387 . S
C586 N589 1.341 . S
C587 C585 1.400 . S
C587 C586 1.387 . S
N588 Co579 2.022 . S
N588 C585 1.351 . S
N588 N589 1.365 . S
N589 C586 1.341 . S
N589 N588 1.365 . S
N589 H609 0.862 . S
C590 C585 1.501 . S
C590 H591 0.961 . S
C590 H592 0.961 . S
C590 H593 0.960 . S
H591 C590 0.961 . S
H592 C590 0.961 . S
H593 C590 0.960 . S
C594 N595 1.342 . S
C594 C598 1.401 . S
C594 C599 1.499 . S
N595 Co578 1.989 . S
N595 C594 1.342 . S
N595 N596 1.388 . S
N596 Co579 1.993 . S
N596 N595 1.388 . S
N596 C597 1.346 . S
C597 N596 1.346 . S
C597 C598 1.396 . S
C597 C607 1.510 . S
C598 C594 1.401 . S
C598 C597 1.396 . S
C599 C594 1.499 . S
C599 H600 0.959 . S
C599 H601 0.960 . S
C599 H602 0.961 . S
H600 C599 0.959 . S
H601 C599 0.960 . S
H602 C599 0.961 . S
O603 Co578 1.967 . S
O603 C611 1.258 . S
O604 Co579 1.941 . S
O604 C611 1.266 . S
H605 C607 0.959 . S
H606 C607 0.961 . S
C607 C597 1.510 . S
C607 H605 0.959 . S
C607 H606 0.961 . S
C607 H608 0.960 . S
H608 C607 0.960 . S
H609 N589 0.862 . S
O610 Co578 1.920 . S
O610 C583 1.289 . S
C611 O603 1.258 . S
C611 O604 1.266 . S
Co612 O615 1.970 . S
Co612 N629 1.989 . S
Co612 O637 1.967 . S
Co612 O644 1.920 . S
Co613 O616 1.966 . S
Co613 N622 2.022 . S
Co613 N630 1.993 . S
Co613 O638 1.941 . S
C614 O615 1.258 . S
C614 O616 1.263 . S
O615 Co612 1.970 . S
O615 C614 1.258 . S
O616 Co613 1.966 . S
O616 C614 1.263 . S
C617 O618 1.235 . S
C617 O644 1.289 . S
O618 C617 1.235 . S
C619 C621 1.400 . S
C619 N622 1.351 . S
C619 C624 1.501 . S
C620 C621 1.387 . S
C620 N623 1.341 . S
C621 C619 1.400 . S
C621 C620 1.387 . S
N622 Co613 2.022 . S
N622 C619 1.351 . S
N622 N623 1.365 . S
N623 C620 1.341 . S
N623 N622 1.365 . S
N623 H643 0.862 . S
C624 C619 1.501 . S
C624 H625 0.961 . S
C624 H626 0.961 . S
C624 H627 0.960 . S
H625 C624 0.961 . S
H626 C624 0.961 . S
H627 C624 0.960 . S
C628 N629 1.342 . S
C628 C632 1.401 . S
C628 C633 1.499 . S
N629 Co612 1.989 . S
N629 C628 1.342 . S
N629 N630 1.388 . S
N630 Co613 1.993 . S
N630 N629 1.388 . S
N630 C631 1.346 . S
C631 N630 1.346 . S
C631 C632 1.396 . S
C631 C641 1.510 . S
C632 C628 1.401 . S
C632 C631 1.396 . S
C633 C628 1.499 . S
C633 H634 0.959 . S
C633 H635 0.960 . S
C633 H636 0.961 . S
H634 C633 0.959 . S
H635 C633 0.960 . S
H636 C633 0.961 . S
O637 Co612 1.967 . S
O637 C645 1.258 . S
O638 Co613 1.941 . S
O638 C645 1.266 . S
H639 C641 0.959 . S
H640 C641 0.961 . S
C641 C631 1.510 . S
C641 H639 0.959 . S
C641 H640 0.961 . S
C641 H642 0.960 . S
H642 C641 0.960 . S
H643 N623 0.862 . S
O644 Co612 1.920 . S
O644 C617 1.289 . S
C645 O637 1.258 . S
C645 O638 1.266 . S
Co646 O649 1.970 . S
Co646 N663 1.989 . S
Co646 O671 1.967 . S
Co646 O678 1.920 . S
Co647 O650 1.966 . S
Co647 N656 2.022 . S
Co647 N664 1.993 . S
Co647 O672 1.941 . S
C648 O649 1.258 . S
C648 O650 1.263 . S
O649 Co646 1.970 . S
O649 C648 1.258 . S
O650 Co647 1.966 . S
O650 C648 1.263 . S
C651 O652 1.235 . S
C651 O678 1.289 . S
O652 C651 1.235 . S
C653 C655 1.400 . S
C653 N656 1.351 . S
C653 C658 1.501 . S
C654 C655 1.387 . S
C654 N657 1.341 . S
C655 C653 1.400 . S
C655 C654 1.387 . S
N656 Co647 2.022 . S
N656 C653 1.351 . S
N656 N657 1.365 . S
N657 C654 1.341 . S
N657 N656 1.365 . S
N657 H677 0.862 . S
C658 C653 1.501 . S
C658 H659 0.961 . S
C658 H660 0.961 . S
C658 H661 0.960 . S
H659 C658 0.961 . S
H660 C658 0.961 . S
H661 C658 0.960 . S
C662 N663 1.342 . S
C662 C666 1.401 . S
C662 C667 1.499 . S
N663 Co646 1.989 . S
N663 C662 1.342 . S
N663 N664 1.388 . S
N664 Co647 1.993 . S
N664 N663 1.388 . S
N664 C665 1.346 . S
C665 N664 1.346 . S
C665 C666 1.396 . S
C665 C675 1.510 . S
C666 C662 1.401 . S
C666 C665 1.396 . S
C667 C662 1.499 . S
C667 H668 0.959 . S
C667 H669 0.960 . S
C667 H670 0.961 . S
H668 C667 0.959 . S
H669 C667 0.960 . S
H670 C667 0.961 . S
O671 Co646 1.967 . S
O671 C679 1.258 . S
O672 Co647 1.941 . S
O672 C679 1.266 . S
H673 C675 0.959 . S
H674 C675 0.961 . S
C675 C665 1.510 . S
C675 H673 0.959 . S
C675 H674 0.961 . S
C675 H676 0.960 . S
H676 C675 0.960 . S
H677 N657 0.862 . S
O678 Co646 1.920 . S
O678 C651 1.289 . S
C679 O671 1.258 . S
C679 O672 1.266 . S
Co680 O683 1.970 . S
Co680 N697 1.989 . S
Co680 O705 1.967 . S
Co680 O712 1.920 . S
Co681 O684 1.966 . S
Co681 N690 2.022 . S
Co681 N698 1.993 . S
Co681 O706 1.941 . S
C682 O683 1.258 . S
C682 O684 1.263 . S
O683 Co680 1.970 . S
O683 C682 1.258 . S
O684 Co681 1.966 . S
O684 C682 1.263 . S
C685 O686 1.235 . S
C685 O712 1.289 . S
O686 C685 1.235 . S
C687 C689 1.400 . S
C687 N690 1.351 . S
C687 C692 1.501 . S
C688 C689 1.387 . S
C688 N691 1.341 . S
C689 C687 1.400 . S
C689 C688 1.387 . S
N690 Co681 2.022 . S
N690 C687 1.351 . S
N690 N691 1.365 . S
N691 C688 1.341 . S
N691 N690 1.365 . S
N691 H711 0.862 . S
C692 C687 1.501 . S
C692 H693 0.961 . S
C692 H694 0.961 . S
C692 H695 0.960 . S
H693 C692 0.961 . S
H694 C692 0.961 . S
H695 C692 0.960 . S
C696 N697 1.342 . S
C696 C700 1.401 . S
C696 C701 1.499 . S
N697 Co680 1.989 . S
N697 C696 1.342 . S
N697 N698 1.388 . S
N698 Co681 1.993 . S
N698 N697 1.388 . S
N698 C699 1.346 . S
C699 N698 1.346 . S
C699 C700 1.396 . S
C699 C709 1.510 . S
C700 C696 1.401 . S
C700 C699 1.396 . S
C701 C696 1.499 . S
C701 H702 0.959 . S
C701 H703 0.960 . S
C701 H704 0.961 . S
H702 C701 0.959 . S
H703 C701 0.960 . S
H704 C701 0.961 . S
O705 Co680 1.967 . S
O705 C713 1.258 . S
O706 Co681 1.941 . S
O706 C713 1.266 . S
H707 C709 0.959 . S
H708 C709 0.961 . S
C709 C699 1.510 . S
C709 H707 0.959 . S
C709 H708 0.961 . S
C709 H710 0.960 . S
H710 C709 0.960 . S
H711 N691 0.862 . S
O712 Co680 1.920 . S
O712 C685 1.289 . S
C713 O705 1.258 . S
C713 O706 1.266 . S
Co714 O717 1.970 . S
Co714 N731 1.989 . S
Co714 O739 1.967 . S
Co714 O746 1.920 . S
Co715 O718 1.966 . S
Co715 N724 2.022 . S
Co715 N732 1.993 . S
Co715 O740 1.941 . S
C716 O717 1.258 . S
C716 O718 1.263 . S
O717 Co714 1.970 . S
O717 C716 1.258 . S
O718 Co715 1.966 . S
O718 C716 1.263 . S
C719 O720 1.235 . S
C719 O746 1.289 . S
O720 C719 1.235 . S
C721 C723 1.400 . S
C721 N724 1.351 . S
C721 C726 1.501 . S
C722 C723 1.387 . S
C722 N725 1.341 . S
C723 C721 1.400 . S
C723 C722 1.387 . S
N724 Co715 2.022 . S
N724 C721 1.351 . S
N724 N725 1.365 . S
N725 C722 1.341 . S
N725 N724 1.365 . S
N725 H745 0.862 . S
C726 C721 1.501 . S
C726 H727 0.961 . S
C726 H728 0.961 . S
C726 H729 0.960 . S
H727 C726 0.961 . S
H728 C726 0.961 . S
H729 C726 0.960 . S
C730 N731 1.342 . S
C730 C734 1.401 . S
C730 C735 1.499 . S
N731 Co714 1.989 . S
N731 C730 1.342 . S
N731 N732 1.388 . S
N732 Co715 1.993 . S
N732 N731 1.388 . S
N732 C733 1.346 . S
C733 N732 1.346 . S
C733 C734 1.396 . S
C733 C743 1.510 . S
C734 C730 1.401 . S
C734 C733 1.396 . S
C735 C730 1.499 . S
C735 H736 0.959 . S
C735 H737 0.960 . S
C735 H738 0.961 . S
H736 C735 0.959 . S
H737 C735 0.960 . S
H738 C735 0.961 . S
O739 Co714 1.967 . S
O739 C747 1.258 . S
O740 Co715 1.941 . S
O740 C747 1.266 . S
H741 C743 0.959 . S
H742 C743 0.961 . S
C743 C733 1.510 . S
C743 H741 0.959 . S
C743 H742 0.961 . S
C743 H744 0.960 . S
H744 C743 0.960 . S
H745 N725 0.862 . S
O746 Co714 1.920 . S
O746 C719 1.289 . S
C747 O739 1.258 . S
C747 O740 1.266 . S
Co748 O751 1.970 . S
Co748 N765 1.989 . S
Co748 O773 1.967 . S
Co748 O780 1.920 . S
Co749 O752 1.966 . S
Co749 N758 2.022 . S
Co749 N766 1.993 . S
Co749 O774 1.941 . S
C750 O751 1.258 . S
C750 O752 1.263 . S
O751 Co748 1.970 . S
O751 C750 1.258 . S
O752 Co749 1.966 . S
O752 C750 1.263 . S
C753 O754 1.235 . S
C753 O780 1.289 . S
O754 C753 1.235 . S
C755 C757 1.400 . S
C755 N758 1.351 . S
C755 C760 1.501 . S
C756 C757 1.387 . S
C756 N759 1.341 . S
C757 C755 1.400 . S
C757 C756 1.387 . S
N758 Co749 2.022 . S
N758 C755 1.351 . S
N758 N759 1.365 . S
N759 C756 1.341 . S
N759 N758 1.365 . S
N759 H779 0.862 . S
C760 C755 1.501 . S
C760 H761 0.961 . S
C760 H762 0.961 . S
C760 H763 0.960 . S
H761 C760 0.961 . S
H762 C760 0.961 . S
H763 C760 0.960 . S
C764 N765 1.342 . S
C764 C768 1.401 1_554 S
C764 C769 1.499 . S
N765 Co748 1.989 . S
N765 C764 1.342 . S
N765 N766 1.388 . S
N766 Co749 1.993 . S
N766 N765 1.388 . S
N766 C767 1.346 . S
C767 N766 1.346 . S
C767 C768 1.396 1_554 S
C767 C777 1.510 . S
C768 C764 1.401 1_556 S
C768 C767 1.396 1_556 S
C769 C764 1.499 . S
C769 H770 0.959 . S
C769 H771 0.960 . S
C769 H772 0.961 1_554 S
H770 C769 0.959 . S
H771 C769 0.960 . S
H772 C769 0.961 1_556 S
O773 Co748 1.967 . S
O773 C781 1.258 . S
O774 Co749 1.941 . S
O774 C781 1.266 . S
H775 C777 0.959 1_556 S
H776 C777 0.961 1_556 S
C777 C767 1.510 . S
C777 H775 0.959 1_554 S
C777 H776 0.961 1_554 S
C777 H778 0.960 . S
H778 C777 0.960 . S
H779 N759 0.862 . S
O780 Co748 1.920 . S
O780 C753 1.289 . S
C781 O773 1.258 . S
C781 O774 1.266 . S
Co782 O785 1.970 . S
Co782 N799 1.989 . S
Co782 O807 1.967 . S
Co782 O814 1.920 . S
Co783 O786 1.966 . S
Co783 N792 2.022 . S
Co783 N800 1.993 . S
Co783 O808 1.941 . S
C784 O785 1.258 . S
C784 O786 1.263 . S
O785 Co782 1.970 . S
O785 C784 1.258 . S
O786 Co783 1.966 . S
O786 C784 1.263 . S
C787 O788 1.235 . S
C787 O814 1.289 . S
O788 C787 1.235 . S
C789 C791 1.400 . S
C789 N792 1.351 . S
C789 C794 1.501 . S
C790 C791 1.387 . S
C790 N793 1.341 . S
C791 C789 1.400 . S
C791 C790 1.387 . S
N792 Co783 2.022 . S
N792 C789 1.351 . S
N792 N793 1.365 . S
N793 C790 1.341 . S
N793 N792 1.365 . S
N793 H813 0.862 . S
C794 C789 1.501 . S
C794 H795 0.961 . S
C794 H796 0.961 . S
C794 H797 0.960 . S
H795 C794 0.961 . S
H796 C794 0.961 . S
H797 C794 0.960 . S
C798 N799 1.342 . S
C798 C802 1.401 . S
C798 C803 1.499 . S
N799 Co782 1.989 . S
N799 C798 1.342 . S
N799 N800 1.388 . S
N800 Co783 1.993 . S
N800 N799 1.388 . S
N800 C801 1.346 . S
C801 N800 1.346 . S
C801 C802 1.396 . S
C801 C811 1.510 . S
C802 C798 1.401 . S
C802 C801 1.396 . S
C803 C798 1.499 . S
C803 H804 0.959 . S
C803 H805 0.960 . S
C803 H806 0.961 . S
H804 C803 0.959 . S
H805 C803 0.960 . S
H806 C803 0.961 . S
O807 Co782 1.967 . S
O807 C815 1.258 . S
O808 Co783 1.941 . S
O808 C815 1.266 . S
H809 C811 0.959 . S
H810 C811 0.961 . S
C811 C801 1.510 . S
C811 H809 0.959 . S
C811 H810 0.961 . S
C811 H812 0.960 . S
H812 C811 0.960 . S
H813 N793 0.862 . S
O814 Co782 1.920 . S
O814 C787 1.289 . S
C815 O807 1.258 . S
C815 O808 1.266 . S
Co816 O819 1.970 . S
Co816 N833 1.989 . S
Co816 O841 1.967 . S
Co816 O848 1.920 . S
Co817 O820 1.966 . S
Co817 N826 2.022 . S
Co817 N834 1.993 . S
Co817 O842 1.941 . S
C818 O819 1.258 . S
C818 O820 1.263 . S
O819 Co816 1.970 . S
O819 C818 1.258 . S
O820 Co817 1.966 . S
O820 C818 1.263 . S
C821 O822 1.235 . S
C821 O848 1.289 . S
O822 C821 1.235 . S
C823 C825 1.400 . S
C823 N826 1.351 . S
C823 C828 1.501 . S
C824 C825 1.387 . S
C824 N827 1.341 . S
C825 C823 1.400 . S
C825 C824 1.387 . S
N826 Co817 2.022 . S
N826 C823 1.351 . S
N826 N827 1.365 . S
N827 C824 1.341 . S
N827 N826 1.365 . S
N827 H847 0.862 . S
C828 C823 1.501 . S
C828 H829 0.961 . S
C828 H830 0.961 . S
C828 H831 0.960 . S
H829 C828 0.961 . S
H830 C828 0.961 . S
H831 C828 0.960 . S
C832 N833 1.342 . S
C832 C836 1.401 1_554 S
C832 C837 1.499 . S
N833 Co816 1.989 . S
N833 C832 1.342 . S
N833 N834 1.388 . S
N834 Co817 1.993 . S
N834 N833 1.388 . S
N834 C835 1.346 . S
C835 N834 1.346 . S
C835 C836 1.396 1_554 S
C835 C845 1.510 . S
C836 C832 1.401 1_556 S
C836 C835 1.396 1_556 S
C837 C832 1.499 . S
C837 H838 0.959 . S
C837 H839 0.960 . S
C837 H840 0.961 1_554 S
H838 C837 0.959 . S
H839 C837 0.960 . S
H840 C837 0.961 1_556 S
O841 Co816 1.967 . S
O841 C849 1.258 . S
O842 Co817 1.941 . S
O842 C849 1.266 . S
H843 C845 0.959 1_556 S
H844 C845 0.961 1_556 S
C845 C835 1.510 . S
C845 H843 0.959 1_554 S
C845 H844 0.961 1_554 S
C845 H846 0.960 . S
H846 C845 0.960 . S
H847 N827 0.862 . S
O848 Co816 1.920 . S
O848 C821 1.289 . S
C849 O841 1.258 . S
C849 O842 1.266 . S
Co850 O853 1.970 . S
Co850 N867 1.989 . S
Co850 O875 1.967 . S
Co850 O882 1.920 . S
Co851 O854 1.966 . S
Co851 N860 2.022 . S
Co851 N868 1.993 . S
Co851 O876 1.941 . S
C852 O853 1.258 . S
C852 O854 1.263 . S
O853 Co850 1.970 . S
O853 C852 1.258 . S
O854 Co851 1.966 . S
O854 C852 1.263 . S
C855 O856 1.235 . S
C855 O882 1.289 . S
O856 C855 1.235 . S
C857 C859 1.400 . S
C857 N860 1.351 . S
C857 C862 1.501 . S
C858 C859 1.387 . S
C858 N861 1.341 . S
C859 C857 1.400 . S
C859 C858 1.387 . S
N860 Co851 2.022 . S
N860 C857 1.351 . S
N860 N861 1.365 . S
N861 C858 1.341 . S
N861 N860 1.365 . S
N861 H881 0.862 . S
C862 C857 1.501 . S
C862 H863 0.961 . S
C862 H864 0.961 . S
C862 H865 0.960 . S
H863 C862 0.961 . S
H864 C862 0.961 . S
H865 C862 0.960 . S
C866 N867 1.342 . S
C866 C870 1.401 . S
C866 C871 1.499 . S
N867 Co850 1.989 . S
N867 C866 1.342 . S
N867 N868 1.388 . S
N868 Co851 1.993 . S
N868 N867 1.388 . S
N868 C869 1.346 . S
C869 N868 1.346 . S
C869 C870 1.396 . S
C869 C879 1.510 . S
C870 C866 1.401 . S
C870 C869 1.396 . S
C871 C866 1.499 . S
C871 H872 0.959 . S
C871 H873 0.960 . S
C871 H874 0.961 . S
H872 C871 0.959 . S
H873 C871 0.960 . S
H874 C871 0.961 . S
O875 Co850 1.967 . S
O875 C883 1.258 . S
O876 Co851 1.941 . S
O876 C883 1.266 . S
H877 C879 0.959 . S
H878 C879 0.961 . S
C879 C869 1.510 . S
C879 H877 0.959 . S
C879 H878 0.961 . S
C879 H880 0.960 . S
H880 C879 0.960 . S
H881 N861 0.862 . S
O882 Co850 1.920 . S
O882 C855 1.289 . S
C883 O875 1.258 . S
C883 O876 1.266 . S
Co884 O887 1.970 . S
Co884 N901 1.989 . S
Co884 O909 1.967 . S
Co884 O916 1.920 . S
Co885 O888 1.966 . S
Co885 N894 2.022 . S
Co885 N902 1.993 . S
Co885 O910 1.941 . S
C886 O887 1.258 . S
C886 O888 1.263 . S
O887 Co884 1.970 . S
O887 C886 1.258 . S
O888 Co885 1.966 . S
O888 C886 1.263 . S
C889 O890 1.235 . S
C889 O916 1.289 . S
O890 C889 1.235 . S
C891 C893 1.400 . S
C891 N894 1.351 . S
C891 C896 1.501 . S
C892 C893 1.387 . S
C892 N895 1.341 . S
C893 C891 1.400 . S
C893 C892 1.387 . S
N894 Co885 2.022 . S
N894 C891 1.351 . S
N894 N895 1.365 . S
N895 C892 1.341 . S
N895 N894 1.365 . S
N895 H915 0.862 . S
C896 C891 1.501 . S
C896 H897 0.961 . S
C896 H898 0.961 . S
C896 H899 0.960 . S
H897 C896 0.961 . S
H898 C896 0.961 . S
H899 C896 0.960 . S
C900 N901 1.342 . S
C900 C904 1.401 . S
C900 C905 1.499 . S
N901 Co884 1.989 . S
N901 C900 1.342 . S
N901 N902 1.388 . S
N902 Co885 1.993 . S
N902 N901 1.388 . S
N902 C903 1.346 . S
C903 N902 1.346 . S
C903 C904 1.396 . S
C903 C913 1.510 . S
C904 C900 1.401 . S
C904 C903 1.396 . S
C905 C900 1.499 . S
C905 H906 0.959 . S
C905 H907 0.960 . S
C905 H908 0.961 . S
H906 C905 0.959 . S
H907 C905 0.960 . S
H908 C905 0.961 . S
O909 Co884 1.967 . S
O909 C917 1.258 . S
O910 Co885 1.941 . S
O910 C917 1.266 . S
H911 C913 0.959 . S
H912 C913 0.961 . S
C913 C903 1.510 . S
C913 H911 0.959 . S
C913 H912 0.961 . S
C913 H914 0.960 . S
H914 C913 0.960 . S
H915 N895 0.862 . S
O916 Co884 1.920 . S
O916 C889 1.289 . S
C917 O909 1.258 . S
C917 O910 1.266 . S
Co918 O921 1.970 . S
Co918 N935 1.989 . S
Co918 O943 1.967 . S
Co918 O950 1.920 . S
Co919 O922 1.966 . S
Co919 N928 2.022 . S
Co919 N936 1.993 . S
Co919 O944 1.941 . S
C920 O921 1.258 . S
C920 O922 1.263 . S
O921 Co918 1.970 . S
O921 C920 1.258 . S
O922 Co919 1.966 . S
O922 C920 1.263 . S
C923 O924 1.235 . S
C923 O950 1.289 . S
O924 C923 1.235 . S
C925 C927 1.400 . S
C925 N928 1.351 . S
C925 C930 1.501 . S
C926 C927 1.387 . S
C926 N929 1.341 . S
C927 C925 1.400 . S
C927 C926 1.387 . S
N928 Co919 2.022 . S
N928 C925 1.351 . S
N928 N929 1.365 . S
N929 C926 1.341 . S
N929 N928 1.365 . S
N929 H949 0.862 . S
C930 C925 1.501 . S
C930 H931 0.961 . S
C930 H932 0.961 . S
C930 H933 0.960 . S
H931 C930 0.961 . S
H932 C930 0.961 . S
H933 C930 0.960 . S
C934 N935 1.342 . S
C934 C938 1.401 . S
C934 C939 1.499 . S
N935 Co918 1.989 . S
N935 C934 1.342 . S
N935 N936 1.388 . S
N936 Co919 1.993 . S
N936 N935 1.388 . S
N936 C937 1.346 . S
C937 N936 1.346 . S
C937 C938 1.396 . S
C937 C947 1.510 . S
C938 C934 1.401 . S
C938 C937 1.396 . S
C939 C934 1.499 . S
C939 H940 0.959 . S
C939 H941 0.960 . S
C939 H942 0.961 . S
H940 C939 0.959 . S
H941 C939 0.960 . S
H942 C939 0.961 . S
O943 Co918 1.967 . S
O943 C951 1.258 . S
O944 Co919 1.941 . S
O944 C951 1.266 . S
H945 C947 0.959 . S
H946 C947 0.961 . S
C947 C937 1.510 . S
C947 H945 0.959 . S
C947 H946 0.961 . S
C947 H948 0.960 . S
H948 C947 0.960 . S
H949 N929 0.862 . S
O950 Co918 1.920 . S
O950 C923 1.289 . S
C951 O943 1.258 . S
C951 O944 1.266 . S
Co952 O955 1.970 . S
Co952 N969 1.989 . S
Co952 O977 1.967 . S
Co952 O984 1.920 . S
Co953 O956 1.966 . S
Co953 N962 2.022 . S
Co953 N970 1.993 . S
Co953 O978 1.941 . S
C954 O955 1.258 . S
C954 O956 1.263 . S
O955 Co952 1.970 . S
O955 C954 1.258 . S
O956 Co953 1.966 . S
O956 C954 1.263 . S
C957 O958 1.235 . S
C957 O984 1.289 . S
O958 C957 1.235 . S
C959 C961 1.400 . S
C959 N962 1.351 . S
C959 C964 1.501 . S
C960 C961 1.387 . S
C960 N963 1.341 . S
C961 C959 1.400 . S
C961 C960 1.387 . S
N962 Co953 2.022 . S
N962 C959 1.351 . S
N962 N963 1.365 . S
N963 C960 1.341 . S
N963 N962 1.365 . S
N963 H983 0.862 . S
C964 C959 1.501 . S
C964 H965 0.961 . S
C964 H966 0.961 . S
C964 H967 0.960 . S
H965 C964 0.961 . S
H966 C964 0.961 . S
H967 C964 0.960 . S
C968 N969 1.342 . S
C968 C972 1.401 . S
C968 C973 1.499 . S
N969 Co952 1.989 . S
N969 C968 1.342 . S
N969 N970 1.388 . S
N970 Co953 1.993 . S
N970 N969 1.388 . S
N970 C971 1.346 . S
C971 N970 1.346 . S
C971 C972 1.396 . S
C971 C981 1.510 . S
C972 C968 1.401 . S
C972 C971 1.396 . S
C973 C968 1.499 . S
C973 H974 0.959 . S
C973 H975 0.960 . S
C973 H976 0.961 . S
H974 C973 0.959 . S
H975 C973 0.960 . S
H976 C973 0.961 . S
O977 Co952 1.967 . S
O977 C985 1.258 . S
O978 Co953 1.941 . S
O978 C985 1.266 . S
H979 C981 0.959 . S
H980 C981 0.961 . S
C981 C971 1.510 . S
C981 H979 0.959 . S
C981 H980 0.961 . S
C981 H982 0.960 . S
H982 C981 0.960 . S
H983 N963 0.862 . S
O984 Co952 1.920 . S
O984 C957 1.289 . S
C985 O977 1.258 . S
C985 O978 1.266 . S
Co986 O989 1.970 . S
Co986 N1003 1.989 . S
Co986 O1011 1.967 . S
Co986 O1018 1.920 . S
Co987 O990 1.966 . S
Co987 N996 2.022 . S
Co987 N1004 1.993 . S
Co987 O1012 1.941 . S
C988 O989 1.258 . S
C988 O990 1.263 . S
O989 Co986 1.970 . S
O989 C988 1.258 . S
O990 Co987 1.966 . S
O990 C988 1.263 . S
C991 O992 1.235 . S
C991 O1018 1.289 . S
O992 C991 1.235 . S
C993 C995 1.400 . S
C993 N996 1.351 . S
C993 C998 1.501 . S
C994 C995 1.387 . S
C994 N997 1.341 . S
C995 C993 1.400 . S
C995 C994 1.387 . S
N996 Co987 2.022 . S
N996 C993 1.351 . S
N996 N997 1.365 . S
N997 C994 1.341 . S
N997 N996 1.365 . S
N997 H1017 0.862 . S
C998 C993 1.501 . S
C998 H999 0.961 . S
C998 H1000 0.961 . S
C998 H1001 0.960 . S
H999 C998 0.961 . S
H1000 C998 0.961 . S
H1001 C998 0.960 . S
C1002 N1003 1.342 . S
C1002 C1006 1.401 . S
C1002 C1007 1.499 . S
N1003 Co986 1.989 . S
N1003 C1002 1.342 . S
N1003 N1004 1.388 . S
N1004 Co987 1.993 . S
N1004 N1003 1.388 . S
N1004 C1005 1.346 . S
C1005 N1004 1.346 . S
C1005 C1006 1.396 . S
C1005 C1015 1.510 . S
C1006 C1002 1.401 . S
C1006 C1005 1.396 . S
C1007 C1002 1.499 . S
C1007 H1008 0.959 . S
C1007 H1009 0.960 . S
C1007 H1010 0.961 . S
H1008 C1007 0.959 . S
H1009 C1007 0.960 . S
H1010 C1007 0.961 . S
O1011 Co986 1.967 . S
O1011 C1019 1.258 . S
O1012 Co987 1.941 . S
O1012 C1019 1.266 . S
H1013 C1015 0.959 . S
H1014 C1015 0.961 . S
C1015 C1005 1.510 . S
C1015 H1013 0.959 . S
C1015 H1014 0.961 . S
C1015 H1016 0.960 . S
H1016 C1015 0.960 . S
H1017 N997 0.862 . S
O1018 Co986 1.920 . S
O1018 C991 1.289 . S
C1019 O1011 1.258 . S
C1019 O1012 1.266 . S
Co1020 O1023 1.970 . S
Co1020 N1037 1.989 . S
Co1020 O1045 1.967 . S
Co1020 O1052 1.920 . S
Co1021 O1024 1.966 . S
Co1021 N1030 2.022 . S
Co1021 N1038 1.993 . S
Co1021 O1046 1.941 . S
C1022 O1023 1.258 . S
C1022 O1024 1.263 . S
O1023 Co1020 1.970 . S
O1023 C1022 1.258 . S
O1024 Co1021 1.966 . S
O1024 C1022 1.263 . S
C1025 O1026 1.235 . S
C1025 O1052 1.289 . S
O1026 C1025 1.235 . S
C1027 C1029 1.400 . S
C1027 N1030 1.351 . S
C1027 C1032 1.501 . S
C1028 C1029 1.387 . S
C1028 N1031 1.341 . S
C1029 C1027 1.400 . S
C1029 C1028 1.387 . S
N1030 Co1021 2.022 . S
N1030 C1027 1.351 . S
N1030 N1031 1.365 . S
N1031 C1028 1.341 . S
N1031 N1030 1.365 . S
N1031 H1051 0.862 . S
C1032 C1027 1.501 . S
C1032 H1033 0.961 . S
C1032 H1034 0.961 . S
C1032 H1035 0.960 . S
H1033 C1032 0.961 . S
H1034 C1032 0.961 . S
H1035 C1032 0.960 . S
C1036 N1037 1.342 . S
C1036 C1040 1.401 1_556 S
C1036 C1041 1.499 . S
N1037 Co1020 1.989 . S
N1037 C1036 1.342 . S
N1037 N1038 1.388 . S
N1038 Co1021 1.993 . S
N1038 N1037 1.388 . S
N1038 C1039 1.346 . S
C1039 N1038 1.346 . S
C1039 C1040 1.396 1_556 S
C1039 C1049 1.510 . S
C1040 C1036 1.401 1_554 S
C1040 C1039 1.396 1_554 S
C1041 C1036 1.499 . S
C1041 H1042 0.959 . S
C1041 H1043 0.960 . S
C1041 H1044 0.961 1_556 S
H1042 C1041 0.959 . S
H1043 C1041 0.960 . S
H1044 C1041 0.961 1_554 S
O1045 Co1020 1.967 . S
O1045 C1053 1.258 . S
O1046 Co1021 1.941 . S
O1046 C1053 1.266 . S
H1047 C1049 0.959 1_554 S
H1048 C1049 0.961 1_554 S
C1049 C1039 1.510 . S
C1049 H1047 0.959 1_556 S
C1049 H1048 0.961 1_556 S
C1049 H1050 0.960 . S
H1050 C1049 0.960 . S
H1051 N1031 0.862 . S
O1052 Co1020 1.920 . S
O1052 C1025 1.289 . S
C1053 O1045 1.258 . S
C1053 O1046 1.266 . S
Co1054 O1057 1.970 . S
Co1054 N1071 1.989 . S
Co1054 O1079 1.967 . S
Co1054 O1086 1.920 . S
Co1055 O1058 1.966 . S
Co1055 N1064 2.022 . S
Co1055 N1072 1.993 . S
Co1055 O1080 1.941 . S
C1056 O1057 1.258 . S
C1056 O1058 1.263 . S
O1057 Co1054 1.970 . S
O1057 C1056 1.258 . S
O1058 Co1055 1.966 . S
O1058 C1056 1.263 . S
C1059 O1060 1.235 . S
C1059 O1086 1.289 . S
O1060 C1059 1.235 . S
C1061 C1063 1.400 . S
C1061 N1064 1.351 . S
C1061 C1066 1.501 . S
C1062 C1063 1.387 . S
C1062 N1065 1.341 . S
C1063 C1061 1.400 . S
C1063 C1062 1.387 . S
N1064 Co1055 2.022 . S
N1064 C1061 1.351 . S
N1064 N1065 1.365 . S
N1065 C1062 1.341 . S
N1065 N1064 1.365 . S
N1065 H1085 0.862 . S
C1066 C1061 1.501 . S
C1066 H1067 0.961 . S
C1066 H1068 0.961 . S
C1066 H1069 0.960 . S
H1067 C1066 0.961 . S
H1068 C1066 0.961 . S
H1069 C1066 0.960 . S
C1070 N1071 1.342 . S
C1070 C1074 1.401 . S
C1070 C1075 1.499 . S
N1071 Co1054 1.989 . S
N1071 C1070 1.342 . S
N1071 N1072 1.388 . S
N1072 Co1055 1.993 . S
N1072 N1071 1.388 . S
N1072 C1073 1.346 . S
C1073 N1072 1.346 . S
C1073 C1074 1.396 . S
C1073 C1083 1.510 . S
C1074 C1070 1.401 . S
C1074 C1073 1.396 . S
C1075 C1070 1.499 . S
C1075 H1076 0.959 . S
C1075 H1077 0.960 . S
C1075 H1078 0.961 . S
H1076 C1075 0.959 . S
H1077 C1075 0.960 . S
H1078 C1075 0.961 . S
O1079 Co1054 1.967 . S
O1079 C1087 1.258 . S
O1080 Co1055 1.941 . S
O1080 C1087 1.266 . S
H1081 C1083 0.959 . S
H1082 C1083 0.961 . S
C1083 C1073 1.510 . S
C1083 H1081 0.959 . S
C1083 H1082 0.961 . S
C1083 H1084 0.960 . S
H1084 C1083 0.960 . S
H1085 N1065 0.862 . S
O1086 Co1054 1.920 . S
O1086 C1059 1.289 . S
C1087 O1079 1.258 . S
C1087 O1080 1.266 . S
H1088 C1094 0.930 . S
H1089 C1098 0.930 . S
H1090 C1103 0.929 . S
H1091 C1101 0.929 . S
H1092 C1096 0.929 . S
H1093 C1102 0.929 . S
C1094 H1088 0.930 . S
C1094 C1095 1.367 . S
C1094 C1102 1.378 . S
C1095 C1094 1.367 . S
C1095 C1103 1.433 . S
C1096 H1092 0.929 . S
C1096 C1098 1.378 . S
C1096 C1100 1.350 . S
C1097 C1100 1.463 . S
C1097 C1102 1.350 . S
C1097 N1105 1.427 . S
C1098 H1089 0.930 . S
C1098 C1096 1.378 . S
C1098 C1099 1.367 . S
C1099 C1098 1.367 . S
C1099 C1101 1.433 . S
C1100 C1096 1.350 . S
C1100 C1097 1.463 . S
C1100 N1104 1.427 . S
C1101 H1091 0.929 . S
C1101 C1099 1.433 . S
C1101 N1104 1.384 . S
C1102 H1093 0.929 . S
C1102 C1094 1.378 . S
C1102 C1097 1.350 . S
C1103 H1090 0.929 . S
C1103 C1095 1.433 . S
C1103 N1105 1.384 . S
N1104 C1100 1.427 . S
N1104 C1101 1.384 . S
N1105 C1097 1.427 . S
N1105 C1103 1.384 . S
H1106 C1112 0.930 . S
H1107 C1116 0.930 . S
H1108 C1121 0.929 . S
H1109 C1119 0.929 . S
H1110 C1114 0.929 . S
H1111 C1120 0.929 . S
C1112 H1106 0.930 . S
C1112 C1113 1.367 . S
C1112 C1120 1.378 . S
C1113 C1112 1.367 . S
C1113 C1121 1.433 . S
C1114 H1110 0.929 . S
C1114 C1116 1.378 . S
C1114 C1118 1.350 . S
C1115 C1118 1.463 . S
C1115 C1120 1.350 . S
C1115 N1123 1.427 . S
C1116 H1107 0.930 . S
C1116 C1114 1.378 . S
C1116 C1117 1.367 . S
C1117 C1116 1.367 . S
C1117 C1119 1.433 . S
C1118 C1114 1.350 . S
C1118 C1115 1.463 . S
C1118 N1122 1.427 . S
C1119 H1109 0.929 . S
C1119 C1117 1.433 . S
C1119 N1122 1.384 . S
C1120 H1111 0.929 . S
C1120 C1112 1.378 . S
C1120 C1115 1.350 . S
C1121 H1108 0.929 . S
C1121 C1113 1.433 . S
C1121 N1123 1.384 . S
N1122 C1118 1.427 . S
N1122 C1119 1.384 . S
N1123 C1115 1.427 . S
N1123 C1121 1.384 . S
H1124 C1130 0.930 . S
H1125 C1134 0.930 . S
H1126 C1139 0.929 . S
H1127 C1137 0.929 . S
H1128 C1132 0.929 . S
H1129 C1138 0.929 . S
C1130 H1124 0.930 . S
C1130 C1131 1.367 . S
C1130 C1138 1.378 . S
C1131 C1130 1.367 . S
C1131 C1139 1.433 . S
C1132 H1128 0.929 . S
C1132 C1134 1.378 . S
C1132 C1136 1.350 . S
C1133 C1136 1.463 . S
C1133 C1138 1.350 . S
C1133 N1141 1.427 . S
C1134 H1125 0.930 . S
C1134 C1132 1.378 . S
C1134 C1135 1.367 . S
C1135 C1134 1.367 . S
C1135 C1137 1.433 . S
C1136 C1132 1.350 . S
C1136 C1133 1.463 . S
C1136 N1140 1.427 . S
C1137 H1127 0.929 . S
C1137 C1135 1.433 . S
C1137 N1140 1.384 . S
C1138 H1129 0.929 . S
C1138 C1130 1.378 . S
C1138 C1133 1.350 . S
C1139 H1126 0.929 . S
C1139 C1131 1.433 . S
C1139 N1141 1.384 . S
N1140 C1136 1.427 . S
N1140 C1137 1.384 . S
N1141 C1133 1.427 . S
N1141 C1139 1.384 . S
H1142 C1148 0.930 . S
H1143 C1152 0.930 . S
H1144 C1157 0.929 . S
H1145 C1155 0.929 . S
H1146 C1150 0.929 . S
H1147 C1156 0.929 . S
C1148 H1142 0.930 . S
C1148 C1149 1.367 . S
C1148 C1156 1.378 . S
C1149 C1148 1.367 . S
C1149 C1157 1.433 . S
C1150 H1146 0.929 . S
C1150 C1152 1.378 . S
C1150 C1154 1.350 . S
C1151 C1154 1.463 . S
C1151 C1156 1.350 . S
C1151 N1159 1.427 . S
C1152 H1143 0.930 . S
C1152 C1150 1.378 . S
C1152 C1153 1.367 . S
C1153 C1152 1.367 . S
C1153 C1155 1.433 . S
C1154 C1150 1.350 . S
C1154 C1151 1.463 . S
C1154 N1158 1.427 . S
C1155 H1145 0.929 . S
C1155 C1153 1.433 . S
C1155 N1158 1.384 . S
C1156 H1147 0.929 . S
C1156 C1148 1.378 . S
C1156 C1151 1.350 . S
C1157 H1144 0.929 . S
C1157 C1149 1.433 . S
C1157 N1159 1.384 . S
N1158 C1154 1.427 . S
N1158 C1155 1.384 . S
N1159 C1151 1.427 . S
N1159 C1157 1.384 . S
H1160 C1166 0.930 . S
H1161 C1170 0.930 . S
H1162 C1175 0.929 . S
H1163 C1173 0.929 . S
H1164 C1168 0.929 . S
H1165 C1174 0.929 . S
C1166 H1160 0.930 . S
C1166 C1167 1.367 . S
C1166 C1174 1.378 . S
C1167 C1166 1.367 . S
C1167 C1175 1.433 . S
C1168 H1164 0.929 . S
C1168 C1170 1.378 . S
C1168 C1172 1.350 . S
C1169 C1172 1.463 . S
C1169 C1174 1.350 . S
C1169 N1177 1.427 . S
C1170 H1161 0.930 . S
C1170 C1168 1.378 . S
C1170 C1171 1.367 . S
C1171 C1170 1.367 . S
C1171 C1173 1.433 . S
C1172 C1168 1.350 . S
C1172 C1169 1.463 . S
C1172 N1176 1.427 . S
C1173 H1163 0.929 . S
C1173 C1171 1.433 . S
C1173 N1176 1.384 . S
C1174 H1165 0.929 . S
C1174 C1166 1.378 . S
C1174 C1169 1.350 . S
C1175 H1162 0.929 . S
C1175 C1167 1.433 . S
C1175 N1177 1.384 . S
N1176 C1172 1.427 . S
N1176 C1173 1.384 . S
N1177 C1169 1.427 . S
N1177 C1175 1.384 . S
H1178 C1184 0.930 . S
H1179 C1188 0.930 . S
H1180 C1193 0.929 . S
H1181 C1191 0.929 . S
H1182 C1186 0.929 . S
H1183 C1192 0.929 . S
C1184 H1178 0.930 . S
C1184 C1185 1.367 . S
C1184 C1192 1.378 . S
C1185 C1184 1.367 . S
C1185 C1193 1.433 . S
C1186 H1182 0.929 . S
C1186 C1188 1.378 . S
C1186 C1190 1.350 . S
C1187 C1190 1.463 . S
C1187 C1192 1.350 . S
C1187 N1195 1.427 . S
C1188 H1179 0.930 . S
C1188 C1186 1.378 . S
C1188 C1189 1.367 . S
C1189 C1188 1.367 . S
C1189 C1191 1.433 . S
C1190 C1186 1.350 . S
C1190 C1187 1.463 . S
C1190 N1194 1.427 . S
C1191 H1181 0.929 . S
C1191 C1189 1.433 . S
C1191 N1194 1.384 . S
C1192 H1183 0.929 . S
C1192 C1184 1.378 . S
C1192 C1187 1.350 . S
C1193 H1180 0.929 . S
C1193 C1185 1.433 . S
C1193 N1195 1.384 . S
N1194 C1190 1.427 . S
N1194 C1191 1.384 . S
N1195 C1187 1.427 . S
N1195 C1193 1.384 . S
H1196 C1202 0.930 . S
H1197 C1206 0.930 . S
H1198 C1211 0.929 . S
H1199 C1209 0.929 . S
H1200 C1204 0.929 . S
H1201 C1210 0.929 . S
C1202 H1196 0.930 . S
C1202 C1203 1.367 . S
C1202 C1210 1.378 . S
C1203 C1202 1.367 . S
C1203 C1211 1.433 . S
C1204 H1200 0.929 . S
C1204 C1206 1.378 . S
C1204 C1208 1.350 . S
C1205 C1208 1.463 . S
C1205 C1210 1.350 . S
C1205 N1213 1.427 . S
C1206 H1197 0.930 . S
C1206 C1204 1.378 . S
C1206 C1207 1.367 . S
C1207 C1206 1.367 . S
C1207 C1209 1.433 . S
C1208 C1204 1.350 . S
C1208 C1205 1.463 . S
C1208 N1212 1.427 . S
C1209 H1199 0.929 . S
C1209 C1207 1.433 . S
C1209 N1212 1.384 . S
C1210 H1201 0.929 . S
C1210 C1202 1.378 . S
C1210 C1205 1.350 . S
C1211 H1198 0.929 . S
C1211 C1203 1.433 . S
C1211 N1213 1.384 . S
N1212 C1208 1.427 . S
N1212 C1209 1.384 . S
N1213 C1205 1.427 . S
N1213 C1211 1.384 . S
H1214 C1220 0.930 . S
H1215 C1224 0.930 . S
H1216 C1229 0.929 . S
H1217 C1227 0.929 . S
H1218 C1222 0.929 . S
H1219 C1228 0.929 . S
C1220 H1214 0.930 . S
C1220 C1221 1.367 . S
C1220 C1228 1.378 . S
C1221 C1220 1.367 . S
C1221 C1229 1.433 . S
C1222 H1218 0.929 . S
C1222 C1224 1.378 . S
C1222 C1226 1.350 . S
C1223 C1226 1.463 . S
C1223 C1228 1.350 . S
C1223 N1231 1.427 . S
C1224 H1215 0.930 . S
C1224 C1222 1.378 . S
C1224 C1225 1.367 . S
C1225 C1224 1.367 . S
C1225 C1227 1.433 . S
C1226 C1222 1.350 . S
C1226 C1223 1.463 . S
C1226 N1230 1.427 . S
C1227 H1217 0.929 . S
C1227 C1225 1.433 . S
C1227 N1230 1.384 . S
C1228 H1219 0.929 . S
C1228 C1220 1.378 . S
C1228 C1223 1.350 . S
C1229 H1216 0.929 . S
C1229 C1221 1.433 . S
C1229 N1231 1.384 . S
N1230 C1226 1.427 . S
N1230 C1227 1.384 . S
N1231 C1223 1.427 . S
N1231 C1229 1.384 . S
H1232 C1238 0.930 . S
H1233 C1242 0.930 . S
H1234 C1247 0.929 . S
H1235 C1245 0.929 . S
H1236 C1240 0.929 . S
H1237 C1246 0.929 . S
C1238 H1232 0.930 . S
C1238 C1239 1.367 . S
C1238 C1246 1.378 . S
C1239 C1238 1.367 . S
C1239 C1247 1.433 . S
C1240 H1236 0.929 . S
C1240 C1242 1.378 . S
C1240 C1244 1.350 . S
C1241 C1244 1.463 . S
C1241 C1246 1.350 . S
C1241 N1249 1.427 . S
C1242 H1233 0.930 . S
C1242 C1240 1.378 . S
C1242 C1243 1.367 . S
C1243 C1242 1.367 . S
C1243 C1245 1.433 . S
C1244 C1240 1.350 . S
C1244 C1241 1.463 . S
C1244 N1248 1.427 . S
C1245 H1235 0.929 . S
C1245 C1243 1.433 . S
C1245 N1248 1.384 . S
C1246 H1237 0.929 . S
C1246 C1238 1.378 . S
C1246 C1241 1.350 . S
C1247 H1234 0.929 . S
C1247 C1239 1.433 . S
C1247 N1249 1.384 . S
N1248 C1244 1.427 . S
N1248 C1245 1.384 . S
N1249 C1241 1.427 . S
N1249 C1247 1.384 . S
H1250 C1256 0.930 . S
H1251 C1260 0.930 . S
H1252 C1265 0.929 . S
H1253 C1263 0.929 . S
H1254 C1258 0.929 . S
H1255 C1264 0.929 . S
C1256 H1250 0.930 . S
C1256 C1257 1.367 . S
C1256 C1264 1.378 . S
C1257 C1256 1.367 . S
C1257 C1265 1.433 . S
C1258 H1254 0.929 . S
C1258 C1260 1.378 . S
C1258 C1262 1.350 . S
C1259 C1262 1.463 . S
C1259 C1264 1.350 . S
C1259 N1267 1.427 . S
C1260 H1251 0.930 . S
C1260 C1258 1.378 . S
C1260 C1261 1.367 . S
C1261 C1260 1.367 . S
C1261 C1263 1.433 . S
C1262 C1258 1.350 . S
C1262 C1259 1.463 . S
C1262 N1266 1.427 . S
C1263 H1253 0.929 . S
C1263 C1261 1.433 . S
C1263 N1266 1.384 . S
C1264 H1255 0.929 . S
C1264 C1256 1.378 . S
C1264 C1259 1.350 . S
C1265 H1252 0.929 . S
C1265 C1257 1.433 . S
C1265 N1267 1.384 . S
N1266 C1262 1.427 . S
N1266 C1263 1.384 . S
N1267 C1259 1.427 . S
N1267 C1265 1.384 . S
H1268 C1274 0.930 . S
H1269 C1278 0.930 . S
H1270 C1283 0.929 . S
H1271 C1281 0.929 . S
H1272 C1276 0.929 . S
H1273 C1282 0.929 . S
C1274 H1268 0.930 . S
C1274 C1275 1.367 . S
C1274 C1282 1.378 . S
C1275 C1274 1.367 . S
C1275 C1283 1.433 . S
C1276 H1272 0.929 . S
C1276 C1278 1.378 . S
C1276 C1280 1.350 . S
C1277 C1280 1.463 . S
C1277 C1282 1.350 . S
C1277 N1285 1.427 . S
C1278 H1269 0.930 . S
C1278 C1276 1.378 . S
C1278 C1279 1.367 . S
C1279 C1278 1.367 . S
C1279 C1281 1.433 . S
C1280 C1276 1.350 . S
C1280 C1277 1.463 . S
C1280 N1284 1.427 . S
C1281 H1271 0.929 . S
C1281 C1279 1.433 . S
C1281 N1284 1.384 . S
C1282 H1273 0.929 . S
C1282 C1274 1.378 . S
C1282 C1277 1.350 . S
C1283 H1270 0.929 . S
C1283 C1275 1.433 . S
C1283 N1285 1.384 . S
N1284 C1280 1.427 . S
N1284 C1281 1.384 . S
N1285 C1277 1.427 . S
N1285 C1283 1.384 . S
H1286 C1292 0.930 . S
H1287 C1296 0.930 . S
H1288 C1301 0.929 . S
H1289 C1299 0.929 . S
H1290 C1294 0.929 . S
H1291 C1300 0.929 . S
C1292 H1286 0.930 . S
C1292 C1293 1.367 . S
C1292 C1300 1.378 . S
C1293 C1292 1.367 . S
C1293 C1301 1.433 . S
C1294 H1290 0.929 . S
C1294 C1296 1.378 . S
C1294 C1298 1.350 . S
C1295 C1298 1.463 . S
C1295 C1300 1.350 . S
C1295 N1303 1.427 . S
C1296 H1287 0.930 . S
C1296 C1294 1.378 . S
C1296 C1297 1.367 . S
C1297 C1296 1.367 . S
C1297 C1299 1.433 . S
C1298 C1294 1.350 . S
C1298 C1295 1.463 . S
C1298 N1302 1.427 . S
C1299 H1289 0.929 . S
C1299 C1297 1.433 . S
C1299 N1302 1.384 . S
C1300 H1291 0.929 . S
C1300 C1292 1.378 . S
C1300 C1295 1.350 . S
C1301 H1288 0.929 . S
C1301 C1293 1.433 . S
C1301 N1303 1.384 . S
N1302 C1298 1.427 . S
N1302 C1299 1.384 . S
N1303 C1295 1.427 . S
N1303 C1301 1.384 . S
H1304 C1310 0.930 . S
H1305 C1314 0.930 . S
H1306 C1319 0.929 . S
H1307 C1317 0.929 . S
H1308 C1312 0.929 . S
H1309 C1318 0.929 . S
C1310 H1304 0.930 . S
C1310 C1311 1.367 . S
C1310 C1318 1.378 . S
C1311 C1310 1.367 . S
C1311 C1319 1.433 . S
C1312 H1308 0.929 . S
C1312 C1314 1.378 . S
C1312 C1316 1.350 . S
C1313 C1316 1.463 . S
C1313 C1318 1.350 . S
C1313 N1321 1.427 . S
C1314 H1305 0.930 . S
C1314 C1312 1.378 . S
C1314 C1315 1.367 . S
C1315 C1314 1.367 . S
C1315 C1317 1.433 . S
C1316 C1312 1.350 . S
C1316 C1313 1.463 . S
C1316 N1320 1.427 . S
C1317 H1307 0.929 . S
C1317 C1315 1.433 . S
C1317 N1320 1.384 . S
C1318 H1309 0.929 . S
C1318 C1310 1.378 . S
C1318 C1313 1.350 . S
C1319 H1306 0.929 . S
C1319 C1311 1.433 . S
C1319 N1321 1.384 . S
N1320 C1316 1.427 . S
N1320 C1317 1.384 . S
N1321 C1313 1.427 . S
N1321 C1319 1.384 . S
H1322 C1328 0.930 . S
H1323 C1332 0.930 . S
H1324 C1337 0.946 . S
H1325 C1335 0.929 . S
H1326 C1330 0.929 . S
H1327 C1336 0.929 . S
C1328 H1322 0.930 . S
C1328 C1329 1.367 . S
C1328 C1336 1.378 . S
C1329 C1328 1.367 . S
C1329 C1337 1.433 . S
C1330 H1326 0.929 . S
C1330 C1332 1.378 . S
C1330 C1334 1.350 . S
C1331 C1334 1.463 . S
C1331 C1336 1.350 . S
C1331 N1339 1.427 . S
C1332 H1323 0.930 . S
C1332 C1330 1.378 . S
C1332 C1333 1.367 . S
C1333 C1332 1.367 . S
C1333 C1335 1.433 . S
C1334 C1330 1.350 . S
C1334 C1331 1.463 . S
C1334 N1338 1.427 . S
C1335 H1325 0.929 . S
C1335 C1333 1.433 . S
C1335 N1338 1.384 . S
C1336 H1327 0.929 . S
C1336 C1328 1.378 . S
C1336 C1331 1.350 . S
C1337 H1324 0.946 . S
C1337 C1329 1.433 . S
C1337 N1339 1.384 . S
N1338 C1334 1.427 . S
N1338 C1335 1.384 . S
N1339 C1331 1.427 . S
N1339 C1337 1.384 . S
H1340 C1346 0.930 . S
H1341 C1350 0.930 . S
H1342 C1355 0.929 . S
H1343 C1353 0.929 . S
H1344 C1348 0.929 . S
H1345 C1354 0.929 . S
C1346 H1340 0.930 . S
C1346 C1347 1.367 . S
C1346 C1354 1.378 . S
C1347 C1346 1.367 . S
C1347 C1355 1.433 . S
C1348 H1344 0.929 . S
C1348 C1350 1.378 . S
C1348 C1352 1.350 . S
C1349 C1352 1.463 . S
C1349 C1354 1.350 . S
C1349 N1357 1.427 . S
C1350 H1341 0.930 . S
C1350 C1348 1.378 . S
C1350 C1351 1.367 . S
C1351 C1350 1.367 . S
C1351 C1353 1.433 . S
C1352 C1348 1.350 . S
C1352 C1349 1.463 . S
C1352 N1356 1.427 . S
C1353 H1343 0.929 . S
C1353 C1351 1.433 . S
C1353 N1356 1.384 . S
C1354 H1345 0.929 . S
C1354 C1346 1.378 . S
C1354 C1349 1.350 . S
C1355 H1342 0.929 . S
C1355 C1347 1.433 . S
C1355 N1357 1.384 . S
N1356 C1352 1.427 . S
N1356 C1353 1.384 . S
N1357 C1349 1.427 . S
N1357 C1355 1.384 . S
H1358 C1364 0.930 . S
H1359 C1368 0.930 . S
H1360 C1373 0.929 . S
H1361 C1371 0.929 . S
H1362 C1366 0.929 . S
H1363 C1372 0.929 . S
C1364 H1358 0.930 . S
C1364 C1365 1.367 . S
C1364 C1372 1.378 . S
C1365 C1364 1.367 . S
C1365 C1373 1.433 . S
C1366 H1362 0.929 . S
C1366 C1368 1.378 . S
C1366 C1370 1.350 . S
C1367 C1370 1.463 . S
C1367 C1372 1.350 . S
C1367 N1375 1.427 . S
C1368 H1359 0.930 . S
C1368 C1366 1.378 . S
C1368 C1369 1.367 . S
C1369 C1368 1.367 . S
C1369 C1371 1.433 . S
C1370 C1366 1.350 . S
C1370 C1367 1.463 . S
C1370 N1374 1.427 . S
C1371 H1361 0.929 . S
C1371 C1369 1.433 . S
C1371 N1374 1.384 . S
C1372 H1363 0.929 . S
C1372 C1364 1.378 . S
C1372 C1367 1.350 . S
C1373 H1360 0.929 . S
C1373 C1365 1.433 . S
C1373 N1375 1.384 . S
N1374 C1370 1.427 . S
N1374 C1371 1.384 . S
N1375 C1367 1.427 . S
N1375 C1373 1.384 . S
H1376 C1382 0.930 . S
H1377 C1386 0.930 . S
H1378 C1391 0.929 . S
H1379 C1389 0.929 . S
H1380 C1384 0.929 . S
H1381 C1390 0.929 . S
C1382 H1376 0.930 . S
C1382 C1383 1.367 . S
C1382 C1390 1.378 . S
C1383 C1382 1.367 . S
C1383 C1391 1.433 . S
C1384 H1380 0.929 . S
C1384 C1386 1.378 . S
C1384 C1388 1.350 . S
C1385 C1388 1.463 . S
C1385 C1390 1.350 . S
C1385 N1393 1.427 . S
C1386 H1377 0.930 . S
C1386 C1384 1.378 . S
C1386 C1387 1.367 . S
C1387 C1386 1.367 . S
C1387 C1389 1.433 . S
C1388 C1384 1.350 . S
C1388 C1385 1.463 . S
C1388 N1392 1.427 . S
C1389 H1379 0.929 . S
C1389 C1387 1.433 . S
C1389 N1392 1.384 . S
C1390 H1381 0.929 . S
C1390 C1382 1.378 . S
C1390 C1385 1.350 . S
C1391 H1378 0.929 . S
C1391 C1383 1.433 . S
C1391 N1393 1.384 . S
N1392 C1388 1.427 . S
N1392 C1389 1.384 . S
N1393 C1385 1.427 . S
N1393 C1391 1.384 . S
H1394 C1400 0.930 . S
H1395 C1404 0.930 . S
H1396 C1409 0.929 . S
H1397 C1407 0.929 . S
H1398 C1402 0.929 . S
H1399 C1408 0.929 . S
C1400 H1394 0.930 . S
C1400 C1401 1.367 . S
C1400 C1408 1.378 . S
C1401 C1400 1.367 . S
C1401 C1409 1.433 . S
C1402 H1398 0.929 . S
C1402 C1404 1.378 . S
C1402 C1406 1.350 . S
C1403 C1406 1.463 . S
C1403 C1408 1.350 . S
C1403 N1411 1.427 . S
C1404 H1395 0.930 . S
C1404 C1402 1.378 . S
C1404 C1405 1.367 . S
C1405 C1404 1.367 . S
C1405 C1407 1.433 . S
C1406 C1402 1.350 . S
C1406 C1403 1.463 . S
C1406 N1410 1.427 . S
C1407 H1397 0.929 . S
C1407 C1405 1.433 . S
C1407 N1410 1.384 . S
C1408 H1399 0.929 . S
C1408 C1400 1.378 . S
C1408 C1403 1.350 . S
C1409 H1396 0.929 . S
C1409 C1401 1.433 . S
C1409 N1411 1.384 . S
N1410 C1406 1.427 . S
N1410 C1407 1.384 . S
N1411 C1403 1.427 . S
N1411 C1409 1.384 . S
H1412 C1418 0.930 . S
H1413 C1422 0.930 . S
H1414 C1427 0.929 . S
H1415 C1425 0.929 . S
H1416 C1420 0.929 . S
H1417 C1426 0.929 . S
C1418 H1412 0.930 . S
C1418 C1419 1.367 . S
C1418 C1426 1.378 . S
C1419 C1418 1.367 . S
C1419 C1427 1.433 . S
C1420 H1416 0.929 . S
C1420 C1422 1.378 . S
C1420 C1424 1.350 . S
C1421 C1424 1.463 . S
C1421 C1426 1.350 . S
C1421 N1429 1.427 . S
C1422 H1413 0.930 . S
C1422 C1420 1.378 . S
C1422 C1423 1.367 . S
C1423 C1422 1.367 . S
C1423 C1425 1.433 . S
C1424 C1420 1.350 . S
C1424 C1421 1.463 . S
C1424 N1428 1.427 . S
C1425 H1415 0.929 . S
C1425 C1423 1.433 . S
C1425 N1428 1.384 . S
C1426 H1417 0.929 . S
C1426 C1418 1.378 . S
C1426 C1421 1.350 . S
C1427 H1414 0.929 . S
C1427 C1419 1.433 . S
C1427 N1429 1.384 . S
N1428 C1424 1.427 . S
N1428 C1425 1.384 . S
N1429 C1421 1.427 . S
N1429 C1427 1.384 . S
H1430 C1436 0.930 . S
H1431 C1440 0.930 . S
H1432 C1445 0.929 . S
H1433 C1443 0.929 . S
H1434 C1438 0.929 . S
H1435 C1444 0.929 . S
C1436 H1430 0.930 . S
C1436 C1437 1.367 . S
C1436 C1444 1.378 . S
C1437 C1436 1.367 . S
C1437 C1445 1.433 . S
C1438 H1434 0.929 . S
C1438 C1440 1.378 . S
C1438 C1442 1.350 . S
C1439 C1442 1.463 . S
C1439 C1444 1.350 . S
C1439 N1447 1.427 . S
C1440 H1431 0.930 . S
C1440 C1438 1.378 . S
C1440 C1441 1.367 . S
C1441 C1440 1.367 . S
C1441 C1443 1.433 . S
C1442 C1438 1.350 . S
C1442 C1439 1.463 . S
C1442 N1446 1.427 . S
C1443 H1433 0.929 . S
C1443 C1441 1.433 . S
C1443 N1446 1.384 . S
C1444 H1435 0.929 . S
C1444 C1436 1.378 . S
C1444 C1439 1.350 . S
C1445 H1432 0.929 . S
C1445 C1437 1.433 . S
C1445 N1447 1.384 . S
N1446 C1442 1.427 . S
N1446 C1443 1.384 . S
N1447 C1439 1.427 . S
N1447 C1445 1.384 . S
H1448 C1454 0.930 . S
H1449 C1458 0.930 . S
H1450 C1463 0.929 . S
H1451 C1461 0.929 . S
H1452 C1456 0.929 . S
H1453 C1462 0.929 . S
C1454 H1448 0.930 . S
C1454 C1455 1.367 . S
C1454 C1462 1.378 . S
C1455 C1454 1.367 . S
C1455 C1463 1.433 . S
C1456 H1452 0.929 . S
C1456 C1458 1.378 . S
C1456 C1460 1.350 . S
C1457 C1460 1.463 . S
C1457 C1462 1.350 . S
C1457 N1465 1.427 . S
C1458 H1449 0.930 . S
C1458 C1456 1.378 . S
C1458 C1459 1.367 . S
C1459 C1458 1.367 . S
C1459 C1461 1.433 . S
C1460 C1456 1.350 . S
C1460 C1457 1.463 . S
C1460 N1464 1.427 . S
C1461 H1451 0.929 . S
C1461 C1459 1.433 . S
C1461 N1464 1.384 . S
C1462 H1453 0.929 . S
C1462 C1454 1.378 . S
C1462 C1457 1.350 . S
C1463 H1450 0.929 . S
C1463 C1455 1.433 . S
C1463 N1465 1.384 . S
N1464 C1460 1.427 . S
N1464 C1461 1.384 . S
N1465 C1457 1.427 . S
N1465 C1463 1.384 . S
H1466 C1472 0.930 . S
H1467 C1476 0.930 . S
H1468 C1481 0.929 . S
H1469 C1479 0.929 . S
H1470 C1474 0.929 . S
H1471 C1480 0.929 . S
C1472 H1466 0.930 . S
C1472 C1473 1.367 . S
C1472 C1480 1.378 . S
C1473 C1472 1.367 . S
C1473 C1481 1.433 . S
C1474 H1470 0.929 . S
C1474 C1476 1.378 . S
C1474 C1478 1.350 . S
C1475 C1478 1.463 . S
C1475 C1480 1.350 . S
C1475 N1483 1.427 . S
C1476 H1467 0.930 . S
C1476 C1474 1.378 . S
C1476 C1477 1.367 . S
C1477 C1476 1.367 . S
C1477 C1479 1.433 . S
C1478 C1474 1.350 . S
C1478 C1475 1.463 . S
C1478 N1482 1.427 . S
C1479 H1469 0.929 . S
C1479 C1477 1.433 . S
C1479 N1482 1.384 . S
C1480 H1471 0.929 . S
C1480 C1472 1.378 . S
C1480 C1475 1.350 . S
C1481 H1468 0.929 . S
C1481 C1473 1.433 . S
C1481 N1483 1.384 . S
N1482 C1478 1.427 . S
N1482 C1479 1.384 . S
N1483 C1475 1.427 . S
N1483 C1481 1.384 . S
H1484 C1490 0.930 . S
H1485 C1494 0.930 . S
H1486 C1499 0.929 . S
H1487 C1497 0.929 . S
H1488 C1492 0.929 . S
H1489 C1498 0.929 . S
C1490 H1484 0.930 . S
C1490 C1491 1.367 . S
C1490 C1498 1.378 . S
C1491 C1490 1.367 . S
C1491 C1499 1.433 . S
C1492 H1488 0.929 . S
C1492 C1494 1.378 . S
C1492 C1496 1.350 . S
C1493 C1496 1.463 . S
C1493 C1498 1.350 . S
C1493 N1501 1.427 . S
C1494 H1485 0.930 . S
C1494 C1492 1.378 . S
C1494 C1495 1.367 . S
C1495 C1494 1.367 . S
C1495 C1497 1.433 . S
C1496 C1492 1.350 . S
C1496 C1493 1.463 . S
C1496 N1500 1.427 . S
C1497 H1487 0.929 . S
C1497 C1495 1.433 . S
C1497 N1500 1.384 . S
C1498 H1489 0.929 . S
C1498 C1490 1.378 . S
C1498 C1493 1.350 . S
C1499 H1486 0.929 . S
C1499 C1491 1.433 . S
C1499 N1501 1.384 . S
N1500 C1496 1.427 . S
N1500 C1497 1.384 . S
N1501 C1493 1.427 . S
N1501 C1499 1.384 . S
H1502 C1508 0.930 . S
H1503 C1512 0.930 . S
H1504 C1517 0.929 . S
H1505 C1515 0.929 . S
H1506 C1510 0.929 . S
H1507 C1516 0.929 . S
C1508 H1502 0.930 . S
C1508 C1509 1.367 . S
C1508 C1516 1.378 . S
C1509 C1508 1.367 . S
C1509 C1517 1.433 . S
C1510 H1506 0.929 . S
C1510 C1512 1.378 . S
C1510 C1514 1.350 . S
C1511 C1514 1.463 . S
C1511 C1516 1.350 . S
C1511 N1519 1.427 . S
C1512 H1503 0.930 . S
C1512 C1510 1.378 . S
C1512 C1513 1.367 . S
C1513 C1512 1.367 . S
C1513 C1515 1.433 . S
C1514 C1510 1.350 . S
C1514 C1511 1.463 . S
C1514 N1518 1.427 . S
C1515 H1505 0.929 . S
C1515 C1513 1.433 . S
C1515 N1518 1.384 . S
C1516 H1507 0.929 . S
C1516 C1508 1.378 . S
C1516 C1511 1.350 . S
C1517 H1504 0.929 . S
C1517 C1509 1.433 . S
C1517 N1519 1.384 . S
N1518 C1514 1.427 . S
N1518 C1515 1.384 . S
N1519 C1511 1.427 . S
N1519 C1517 1.384 . S
H1520 C1526 0.930 . S
H1521 C1530 0.930 . S
H1522 C1535 0.929 . S
H1523 C1533 0.929 . S
H1524 C1528 0.929 . S
H1525 C1534 0.929 . S
C1526 H1520 0.930 . S
C1526 C1527 1.367 . S
C1526 C1534 1.378 . S
C1527 C1526 1.367 . S
C1527 C1535 1.433 . S
C1528 H1524 0.929 . S
C1528 C1530 1.378 . S
C1528 C1532 1.350 . S
C1529 C1532 1.463 . S
C1529 C1534 1.350 . S
C1529 N1537 1.427 . S
C1530 H1521 0.930 . S
C1530 C1528 1.378 . S
C1530 C1531 1.367 . S
C1531 C1530 1.367 . S
C1531 C1533 1.433 . S
C1532 C1528 1.350 . S
C1532 C1529 1.463 . S
C1532 N1536 1.427 . S
C1533 H1523 0.929 . S
C1533 C1531 1.433 . S
C1533 N1536 1.384 . S
C1534 H1525 0.929 . S
C1534 C1526 1.378 . S
C1534 C1529 1.350 . S
C1535 H1522 0.929 . S
C1535 C1527 1.433 . S
C1535 N1537 1.384 . S
N1536 C1532 1.427 . S
N1536 C1533 1.384 . S
N1537 C1529 1.427 . S
N1537 C1535 1.384 . S
H1538 C1544 0.930 . S
H1539 C1548 0.930 . S
H1540 C1553 0.929 . S
H1541 C1551 0.929 . S
H1542 C1546 0.929 . S
H1543 C1552 0.929 . S
C1544 H1538 0.930 . S
C1544 C1545 1.367 . S
C1544 C1552 1.378 . S
C1545 C1544 1.367 . S
C1545 C1553 1.433 . S
C1546 H1542 0.929 . S
C1546 C1548 1.378 . S
C1546 C1550 1.350 . S
C1547 C1550 1.463 . S
C1547 C1552 1.350 . S
C1547 N1555 1.427 . S
C1548 H1539 0.930 . S
C1548 C1546 1.378 . S
C1548 C1549 1.367 . S
C1549 C1548 1.367 . S
C1549 C1551 1.433 . S
C1550 C1546 1.350 . S
C1550 C1547 1.463 . S
C1550 N1554 1.427 . S
C1551 H1541 0.929 . S
C1551 C1549 1.433 . S
C1551 N1554 1.384 . S
C1552 H1543 0.929 . S
C1552 C1544 1.378 . S
C1552 C1547 1.350 . S
C1553 H1540 0.929 . S
C1553 C1545 1.433 . S
C1553 N1555 1.384 . S
N1554 C1550 1.427 . S
N1554 C1551 1.384 . S
N1555 C1547 1.427 . S
N1555 C1553 1.384 . S
H1556 C1562 0.930 . S
H1557 C1566 0.930 . S
H1558 C1571 0.929 . S
H1559 C1569 0.929 . S
H1560 C1564 0.929 . S
H1561 C1570 0.929 . S
C1562 H1556 0.930 . S
C1562 C1563 1.367 . S
C1562 C1570 1.378 . S
C1563 C1562 1.367 . S
C1563 C1571 1.433 . S
C1564 H1560 0.929 . S
C1564 C1566 1.378 . S
C1564 C1568 1.350 . S
C1565 C1568 1.463 . S
C1565 C1570 1.350 . S
C1565 N1573 1.427 . S
C1566 H1557 0.930 . S
C1566 C1564 1.378 . S
C1566 C1567 1.367 . S
C1567 C1566 1.367 . S
C1567 C1569 1.433 . S
C1568 C1564 1.350 . S
C1568 C1565 1.463 . S
C1568 N1572 1.427 . S
C1569 H1559 0.929 . S
C1569 C1567 1.433 . S
C1569 N1572 1.384 . S
C1570 H1561 0.929 . S
C1570 C1562 1.378 . S
C1570 C1565 1.350 . S
C1571 H1558 0.929 . S
C1571 C1563 1.433 . S
C1571 N1573 1.384 . S
N1572 C1568 1.427 . S
N1572 C1569 1.384 . S
N1573 C1565 1.427 . S
N1573 C1571 1.384 . S
H1574 C1580 0.930 . S
H1575 C1584 0.930 . S
H1576 C1589 0.929 . S
H1577 C1587 0.929 . S
H1578 C1582 0.929 . S
H1579 C1588 0.929 . S
C1580 H1574 0.930 . S
C1580 C1581 1.367 . S
C1580 C1588 1.378 . S
C1581 C1580 1.367 . S
C1581 C1589 1.433 . S
C1582 H1578 0.929 . S
C1582 C1584 1.378 . S
C1582 C1586 1.350 . S
C1583 C1586 1.463 . S
C1583 C1588 1.350 . S
C1583 N1591 1.427 . S
C1584 H1575 0.930 . S
C1584 C1582 1.378 . S
C1584 C1585 1.367 . S
C1585 C1584 1.367 . S
C1585 C1587 1.433 . S
C1586 C1582 1.350 . S
C1586 C1583 1.463 . S
C1586 N1590 1.427 . S
C1587 H1577 0.929 . S
C1587 C1585 1.433 . S
C1587 N1590 1.384 . S
C1588 H1579 0.929 . S
C1588 C1580 1.378 . S
C1588 C1583 1.350 . S
C1589 H1576 0.929 . S
C1589 C1581 1.433 . S
C1589 N1591 1.384 . S
N1590 C1586 1.427 . S
N1590 C1587 1.384 . S
N1591 C1583 1.427 . S
N1591 C1589 1.384 . S
H1592 C1598 0.930 . S
H1593 C1602 0.930 . S
H1594 C1607 0.929 . S
H1595 C1605 0.929 . S
H1596 C1600 0.929 . S
H1597 C1606 0.929 . S
C1598 H1592 0.930 . S
C1598 C1599 1.367 . S
C1598 C1606 1.378 . S
C1599 C1598 1.367 . S
C1599 C1607 1.433 . S
C1600 H1596 0.929 . S
C1600 C1602 1.378 . S
C1600 C1604 1.350 . S
C1601 C1604 1.463 . S
C1601 C1606 1.350 . S
C1601 N1609 1.427 . S
C1602 H1593 0.930 . S
C1602 C1600 1.378 . S
C1602 C1603 1.367 . S
C1603 C1602 1.367 . S
C1603 C1605 1.433 . S
C1604 C1600 1.350 . S
C1604 C1601 1.463 . S
C1604 N1608 1.427 . S
C1605 H1595 0.929 . S
C1605 C1603 1.433 . S
C1605 N1608 1.384 . S
C1606 H1597 0.929 . S
C1606 C1598 1.378 . S
C1606 C1601 1.350 . S
C1607 H1594 0.929 . S
C1607 C1599 1.433 . S
C1607 N1609 1.384 . S
N1608 C1604 1.427 . S
N1608 C1605 1.384 . S
N1609 C1601 1.427 . S
N1609 C1607 1.384 . S
H1610 C1616 0.930 . S
H1611 C1620 0.930 . S
H1612 C1625 0.929 . S
H1613 C1623 0.929 . S
H1614 C1618 0.929 . S
H1615 C1624 0.929 . S
C1616 H1610 0.930 . S
C1616 C1617 1.367 . S
C1616 C1624 1.378 . S
C1617 C1616 1.367 . S
C1617 C1625 1.433 . S
C1618 H1614 0.929 . S
C1618 C1620 1.378 . S
C1618 C1622 1.350 . S
C1619 C1622 1.463 . S
C1619 C1624 1.350 . S
C1619 N1627 1.427 . S
C1620 H1611 0.930 . S
C1620 C1618 1.378 . S
C1620 C1621 1.367 . S
C1621 C1620 1.367 . S
C1621 C1623 1.433 . S
C1622 C1618 1.350 . S
C1622 C1619 1.463 . S
C1622 N1626 1.427 . S
C1623 H1613 0.929 . S
C1623 C1621 1.433 . S
C1623 N1626 1.384 . S
C1624 H1615 0.929 . S
C1624 C1616 1.378 . S
C1624 C1619 1.350 . S
C1625 H1612 0.929 . S
C1625 C1617 1.433 . S
C1625 N1627 1.384 . S
N1626 C1622 1.427 . S
N1626 C1623 1.384 . S
N1627 C1619 1.427 . S
N1627 C1625 1.384 . S
H1628 C1634 0.930 . S
H1629 C1638 0.930 . S
H1630 C1643 0.929 . S
H1631 C1641 0.929 . S
H1632 C1636 0.929 . S
H1633 C1642 0.929 . S
C1634 H1628 0.930 . S
C1634 C1635 1.367 . S
C1634 C1642 1.378 . S
C1635 C1634 1.367 . S
C1635 C1643 1.433 . S
C1636 H1632 0.929 . S
C1636 C1638 1.378 . S
C1636 C1640 1.350 . S
C1637 C1640 1.463 . S
C1637 C1642 1.350 . S
C1637 N1645 1.427 . S
C1638 H1629 0.930 . S
C1638 C1636 1.378 . S
C1638 C1639 1.367 . S
C1639 C1638 1.367 . S
C1639 C1641 1.433 . S
C1640 C1636 1.350 . S
C1640 C1637 1.463 . S
C1640 N1644 1.427 . S
C1641 H1631 0.929 . S
C1641 C1639 1.433 . S
C1641 N1644 1.384 . S
C1642 H1633 0.929 . S
C1642 C1634 1.378 . S
C1642 C1637 1.350 . S
C1643 H1630 0.929 . S
C1643 C1635 1.433 . S
C1643 N1645 1.384 . S
N1644 C1640 1.427 . S
N1644 C1641 1.384 . S
N1645 C1637 1.427 . S
N1645 C1643 1.384 . S
H1646 C1652 0.930 . S
H1647 C1656 0.930 . S
H1648 C1661 0.929 . S
H1649 C1659 0.929 . S
H1650 C1654 0.929 . S
H1651 C1660 0.929 . S
C1652 H1646 0.930 . S
C1652 C1653 1.367 . S
C1652 C1660 1.378 . S
C1653 C1652 1.367 . S
C1653 C1661 1.433 . S
C1654 H1650 0.929 . S
C1654 C1656 1.378 . S
C1654 C1658 1.350 . S
C1655 C1658 1.463 . S
C1655 C1660 1.350 . S
C1655 N1663 1.427 . S
C1656 H1647 0.930 . S
C1656 C1654 1.378 . S
C1656 C1657 1.367 . S
C1657 C1656 1.367 . S
C1657 C1659 1.433 . S
C1658 C1654 1.350 . S
C1658 C1655 1.463 . S
C1658 N1662 1.427 . S
C1659 H1649 0.929 . S
C1659 C1657 1.433 . S
C1659 N1662 1.384 . S
C1660 H1651 0.929 . S
C1660 C1652 1.378 . S
C1660 C1655 1.350 . S
C1661 H1648 0.929 . S
C1661 C1653 1.433 . S
C1661 N1663 1.384 . S
N1662 C1658 1.427 . S
N1662 C1659 1.384 . S
N1663 C1655 1.427 . S
N1663 C1661 1.384 . S
H1664 C1670 0.930 . S
H1665 C1674 0.930 . S
H1666 C1679 0.929 . S
H1667 C1677 0.929 . S
H1668 C1672 0.929 . S
H1669 C1678 0.929 . S
C1670 H1664 0.930 . S
C1670 C1671 1.367 . S
C1670 C1678 1.378 . S
C1671 C1670 1.367 . S
C1671 C1679 1.433 . S
C1672 H1668 0.929 . S
C1672 C1674 1.378 . S
C1672 C1676 1.350 . S
C1673 C1676 1.463 . S
C1673 C1678 1.350 . S
C1673 N1681 1.427 . S
C1674 H1665 0.930 . S
C1674 C1672 1.378 . S
C1674 C1675 1.367 . S
C1675 C1674 1.367 . S
C1675 C1677 1.433 . S
C1676 C1672 1.350 . S
C1676 C1673 1.463 . S
C1676 N1680 1.427 . S
C1677 H1667 0.929 . S
C1677 C1675 1.433 . S
C1677 N1680 1.384 . S
C1678 H1669 0.929 . S
C1678 C1670 1.378 . S
C1678 C1673 1.350 . S
C1679 H1666 0.929 . S
C1679 C1671 1.433 . S
C1679 N1681 1.384 . S
N1680 C1676 1.427 . S
N1680 C1677 1.384 . S
N1681 C1673 1.427 . S
N1681 C1679 1.384 . S
H1682 C1688 0.930 . S
H1683 C1692 0.930 . S
H1684 C1697 0.929 . S
H1685 C1695 0.929 . S
H1686 C1690 0.929 . S
H1687 C1696 0.929 . S
C1688 H1682 0.930 . S
C1688 C1689 1.367 . S
C1688 C1696 1.378 . S
C1689 C1688 1.367 . S
C1689 C1697 1.433 . S
C1690 H1686 0.929 . S
C1690 C1692 1.378 . S
C1690 C1694 1.350 . S
C1691 C1694 1.463 1_565 S
C1691 C1696 1.350 . S
C1691 N1699 1.427 . S
C1692 H1683 0.930 . S
C1692 C1690 1.378 . S
C1692 C1693 1.367 . S
C1693 C1692 1.367 . S
C1693 C1695 1.433 . S
C1694 C1690 1.350 . S
C1694 C1691 1.463 1_545 S
C1694 N1698 1.427 . S
C1695 H1685 0.929 . S
C1695 C1693 1.433 . S
C1695 N1698 1.384 . S
C1696 H1687 0.929 . S
C1696 C1688 1.378 . S
C1696 C1691 1.350 . S
C1697 H1684 0.929 . S
C1697 C1689 1.433 . S
C1697 N1699 1.384 . S
N1698 C1694 1.427 . S
N1698 C1695 1.384 . S
N1699 C1691 1.427 . S
N1699 C1697 1.384 . S
H1700 C1706 0.930 . S
H1701 C1710 0.930 . S
H1702 C1715 0.929 . S
H1703 C1713 0.929 . S
H1704 C1708 0.929 . S
H1705 C1714 0.929 . S
C1706 H1700 0.930 . S
C1706 C1707 1.367 . S
C1706 C1714 1.378 . S
C1707 C1706 1.367 . S
C1707 C1715 1.433 . S
C1708 H1704 0.929 . S
C1708 C1710 1.378 . S
C1708 C1712 1.350 . S
C1709 C1712 1.463 1_554 S
C1709 C1714 1.350 . S
C1709 N1717 1.427 . S
C1710 H1701 0.930 . S
C1710 C1708 1.378 . S
C1710 C1711 1.367 . S
C1711 C1710 1.367 . S
C1711 C1713 1.433 . S
C1712 C1708 1.350 . S
C1712 C1709 1.463 1_556 S
C1712 N1716 1.427 . S
C1713 H1703 0.929 . S
C1713 C1711 1.433 . S
C1713 N1716 1.384 . S
C1714 H1705 0.929 . S
C1714 C1706 1.378 . S
C1714 C1709 1.350 . S
C1715 H1702 0.929 . S
C1715 C1707 1.433 . S
C1715 N1717 1.384 . S
N1716 C1712 1.427 . S
N1716 C1713 1.384 . S
N1717 C1709 1.427 . S
N1717 C1715 1.384 . S
H1718 C1724 0.930 . S
H1719 C1728 0.930 . S
H1720 C1733 0.929 . S
H1721 C1731 0.929 . S
H1722 C1726 0.928 1_565 S
H1723 C1732 0.928 1_545 S
C1724 H1718 0.930 . S
C1724 C1725 1.367 . S
C1724 C1732 1.378 . S
C1725 C1724 1.367 . S
C1725 C1733 1.433 . S
C1726 H1722 0.928 1_545 S
C1726 C1728 1.378 . S
C1726 C1730 1.350 . S
C1727 C1730 1.463 1_565 S
C1727 C1732 1.350 . S
C1727 N1735 1.427 . S
C1728 H1719 0.930 . S
C1728 C1726 1.378 . S
C1728 C1729 1.367 . S
C1729 C1728 1.367 . S
C1729 C1731 1.433 . S
C1730 C1726 1.350 . S
C1730 C1727 1.463 1_545 S
C1730 N1734 1.427 . S
C1731 H1721 0.929 . S
C1731 C1729 1.433 . S
C1731 N1734 1.384 . S
C1732 H1723 0.928 1_565 S
C1732 C1724 1.378 . S
C1732 C1727 1.350 . S
C1733 H1720 0.929 . S
C1733 C1725 1.433 . S
C1733 N1735 1.384 . S
N1734 C1730 1.427 . S
N1734 C1731 1.384 . S
N1735 C1727 1.427 . S
N1735 C1733 1.384 . S
H1736 C1742 0.930 . S
H1737 C1746 0.930 . S
H1738 C1751 0.929 . S
H1739 C1749 0.929 . S
H1740 C1744 0.929 . S
H1741 C1750 0.929 . S
C1742 H1736 0.930 . S
C1742 C1743 1.367 . S
C1742 C1750 1.378 . S
C1743 C1742 1.367 . S
C1743 C1751 1.433 . S
C1744 H1740 0.929 . S
C1744 C1746 1.378 . S
C1744 C1748 1.350 . S
C1745 C1748 1.463 . S
C1745 C1750 1.350 . S
C1745 N1753 1.427 . S
C1746 H1737 0.930 . S
C1746 C1744 1.378 . S
C1746 C1747 1.367 . S
C1747 C1746 1.367 . S
C1747 C1749 1.433 . S
C1748 C1744 1.350 . S
C1748 C1745 1.463 . S
C1748 N1752 1.427 . S
C1749 H1739 0.929 . S
C1749 C1747 1.433 . S
C1749 N1752 1.384 . S
C1750 H1741 0.929 . S
C1750 C1742 1.378 . S
C1750 C1745 1.350 . S
C1751 H1738 0.929 . S
C1751 C1743 1.433 . S
C1751 N1753 1.384 . S
N1752 C1748 1.427 . S
N1752 C1749 1.384 . S
N1753 C1745 1.427 . S
N1753 C1751 1.384 . S
H1754 C1760 0.930 . S
H1755 C1764 0.930 . S
H1756 C1769 0.929 . S
H1757 C1767 0.929 . S
H1758 C1762 0.929 . S
H1759 C1768 0.929 . S
C1760 H1754 0.930 . S
C1760 C1761 1.367 . S
C1760 C1768 1.378 . S
C1761 C1760 1.367 . S
C1761 C1769 1.433 . S
C1762 H1758 0.929 . S
C1762 C1764 1.378 . S
C1762 C1766 1.350 . S
C1763 C1766 1.463 1_565 S
C1763 C1768 1.350 . S
C1763 N1771 1.427 . S
C1764 H1755 0.930 . S
C1764 C1762 1.378 . S
C1764 C1765 1.367 . S
C1765 C1764 1.367 . S
C1765 C1767 1.433 . S
C1766 C1762 1.350 . S
C1766 C1763 1.463 1_545 S
C1766 N1770 1.427 . S
C1767 H1757 0.929 . S
C1767 C1765 1.433 . S
C1767 N1770 1.384 . S
C1768 H1759 0.929 . S
C1768 C1760 1.378 . S
C1768 C1763 1.350 . S
C1769 H1756 0.929 . S
C1769 C1761 1.433 . S
C1769 N1771 1.384 . S
N1770 C1766 1.427 . S
N1770 C1767 1.384 . S
N1771 C1763 1.427 . S
N1771 C1769 1.384 . S
H1772 C1778 0.930 . S
H1773 C1782 0.930 . S
H1774 C1787 0.929 . S
H1775 C1785 0.929 . S
H1776 C1780 0.929 . S
H1777 C1786 0.929 . S
C1778 H1772 0.930 . S
C1778 C1779 1.367 . S
C1778 C1786 1.378 . S
C1779 C1778 1.367 . S
C1779 C1787 1.433 . S
C1780 H1776 0.929 . S
C1780 C1782 1.378 . S
C1780 C1784 1.350 . S
C1781 C1784 1.463 1_556 S
C1781 C1786 1.350 . S
C1781 N1789 1.427 . S
C1782 H1773 0.930 . S
C1782 C1780 1.378 . S
C1782 C1783 1.367 . S
C1783 C1782 1.367 . S
C1783 C1785 1.433 . S
C1784 C1780 1.350 . S
C1784 C1781 1.463 1_554 S
C1784 N1788 1.427 . S
C1785 H1775 0.929 . S
C1785 C1783 1.433 . S
C1785 N1788 1.384 . S
C1786 H1777 0.929 . S
C1786 C1778 1.378 . S
C1786 C1781 1.350 . S
C1787 H1774 0.929 . S
C1787 C1779 1.433 . S
C1787 N1789 1.384 . S
N1788 C1784 1.427 . S
N1788 C1785 1.384 . S
N1789 C1781 1.427 . S
N1789 C1787 1.384 . S
H1790 C1796 0.930 . S
H1791 C1800 0.930 . S
H1792 C1805 0.929 . S
H1793 C1803 0.929 . S
H1794 C1798 0.918 1_545 S
H1795 C1804 0.918 1_565 S
C1796 H1790 0.930 . S
C1796 C1797 1.367 . S
C1796 C1804 1.378 . S
C1797 C1796 1.367 . S
C1797 C1805 1.433 . S
C1798 H1794 0.918 1_565 S
C1798 C1800 1.378 . S
C1798 C1802 1.350 . S
C1799 C1802 1.463 1_545 S
C1799 C1804 1.350 . S
C1799 N1807 1.427 . S
C1800 H1791 0.930 . S
C1800 C1798 1.378 . S
C1800 C1801 1.367 . S
C1801 C1800 1.367 . S
C1801 C1803 1.433 . S
C1802 C1798 1.350 . S
C1802 C1799 1.463 1_565 S
C1802 N1806 1.427 . S
C1803 H1793 0.929 . S
C1803 C1801 1.433 . S
C1803 N1806 1.384 . S
C1804 H1795 0.918 1_545 S
C1804 C1796 1.378 . S
C1804 C1799 1.350 . S
C1805 H1792 0.929 . S
C1805 C1797 1.433 . S
C1805 N1807 1.384 . S
N1806 C1802 1.427 . S
N1806 C1803 1.384 . S
N1807 C1799 1.427 . S
N1807 C1805 1.384 . S
H1808 C1814 0.930 . S
H1809 C1818 0.930 . S
H1810 C1823 0.929 . S
H1811 C1821 0.929 . S
H1812 C1816 0.929 . S
H1813 C1822 0.929 . S
C1814 H1808 0.930 . S
C1814 C1815 1.367 . S
C1814 C1822 1.378 . S
C1815 C1814 1.367 . S
C1815 C1823 1.433 . S
C1816 H1812 0.929 . S
C1816 C1818 1.378 . S
C1816 C1820 1.350 . S
C1817 C1820 1.463 1_556 S
C1817 C1822 1.350 . S
C1817 N1825 1.427 1_556 S
C1818 H1809 0.930 . S
C1818 C1816 1.378 . S
C1818 C1819 1.367 . S
C1819 C1818 1.367 . S
C1819 C1821 1.433 . S
C1820 C1816 1.350 . S
C1820 C1817 1.463 1_554 S
C1820 N1824 1.427 1_554 S
C1821 H1811 0.929 . S
C1821 C1819 1.433 . S
C1821 N1824 1.384 1_554 S
C1822 H1813 0.929 . S
C1822 C1814 1.378 . S
C1822 C1817 1.350 . S
C1823 H1810 0.929 . S
C1823 C1815 1.433 . S
C1823 N1825 1.384 1_556 S
N1824 C1820 1.427 1_556 S
N1824 C1821 1.384 1_556 S
N1825 C1817 1.427 1_554 S
N1825 C1823 1.384 1_554 S
H1826 C1832 0.930 . S
H1827 C1836 0.930 . S
H1828 C1841 0.929 . S
H1829 C1839 0.929 . S
H1830 C1834 0.929 . S
H1831 C1840 0.929 . S
C1832 H1826 0.930 . S
C1832 C1833 1.367 . S
C1832 C1840 1.378 . S
C1833 C1832 1.367 . S
C1833 C1841 1.433 . S
C1834 H1830 0.929 . S
C1834 C1836 1.378 . S
C1834 C1838 1.350 . S
C1835 C1838 1.463 . S
C1835 C1840 1.350 . S
C1835 N1843 1.427 . S
C1836 H1827 0.930 . S
C1836 C1834 1.378 . S
C1836 C1837 1.367 . S
C1837 C1836 1.367 . S
C1837 C1839 1.433 . S
C1838 C1834 1.350 . S
C1838 C1835 1.463 . S
C1838 N1842 1.427 . S
C1839 H1829 0.929 . S
C1839 C1837 1.433 . S
C1839 N1842 1.384 . S
C1840 H1831 0.929 . S
C1840 C1832 1.378 . S
C1840 C1835 1.350 . S
C1841 H1828 0.929 . S
C1841 C1833 1.433 . S
C1841 N1843 1.384 . S
N1842 C1838 1.427 . S
N1842 C1839 1.384 . S
N1843 C1835 1.427 . S
N1843 C1841 1.384 . S
H1844 C1850 0.930 . S
H1845 C1854 0.930 . S
H1846 C1859 0.929 . S
H1847 C1857 0.929 . S
H1848 C1852 0.929 . S
H1849 C1858 0.929 . S
C1850 H1844 0.930 . S
C1850 C1851 1.367 . S
C1850 C1858 1.378 . S
C1851 C1850 1.367 . S
C1851 C1859 1.433 . S
C1852 H1848 0.929 . S
C1852 C1854 1.378 . S
C1852 C1856 1.350 . S
C1853 C1856 1.463 . S
C1853 C1858 1.350 . S
C1853 N1861 1.427 . S
C1854 H1845 0.930 . S
C1854 C1852 1.378 . S
C1854 C1855 1.367 . S
C1855 C1854 1.367 . S
C1855 C1857 1.433 . S
C1856 C1852 1.350 . S
C1856 C1853 1.463 . S
C1856 N1860 1.427 . S
C1857 H1847 0.929 . S
C1857 C1855 1.433 . S
C1857 N1860 1.384 . S
C1858 H1849 0.929 . S
C1858 C1850 1.378 . S
C1858 C1853 1.350 . S
C1859 H1846 0.929 . S
C1859 C1851 1.433 . S
C1859 N1861 1.384 . S
N1860 C1856 1.427 . S
N1860 C1857 1.384 . S
N1861 C1853 1.427 . S
N1861 C1859 1.384 . S
H1862 C1868 0.930 . S
H1863 C1872 0.930 . S
H1864 C1877 0.929 . S
H1865 C1875 0.929 . S
H1866 C1870 0.929 . S
H1867 C1876 0.929 . S
C1868 H1862 0.930 . S
C1868 C1869 1.367 . S
C1868 C1876 1.378 . S
C1869 C1868 1.367 . S
C1869 C1877 1.433 . S
C1870 H1866 0.929 . S
C1870 C1872 1.378 . S
C1870 C1874 1.350 . S
C1871 C1874 1.463 . S
C1871 C1876 1.350 . S
C1871 N1879 1.427 . S
C1872 H1863 0.930 . S
C1872 C1870 1.378 . S
C1872 C1873 1.367 . S
C1873 C1872 1.367 . S
C1873 C1875 1.433 . S
C1874 C1870 1.350 . S
C1874 C1871 1.463 . S
C1874 N1878 1.427 . S
C1875 H1865 0.929 . S
C1875 C1873 1.433 . S
C1875 N1878 1.384 . S
C1876 H1867 0.929 . S
C1876 C1868 1.378 . S
C1876 C1871 1.350 . S
C1877 H1864 0.929 . S
C1877 C1869 1.433 . S
C1877 N1879 1.384 . S
N1878 C1874 1.427 . S
N1878 C1875 1.384 . S
N1879 C1871 1.427 . S
N1879 C1877 1.384 . S
H1880 C1886 0.930 . S
H1881 C1890 0.930 . S
H1882 C1895 0.929 . S
H1883 C1893 0.929 . S
H1884 C1888 0.929 . S
H1885 C1894 0.929 . S
C1886 H1880 0.930 . S
C1886 C1887 1.367 . S
C1886 C1894 1.378 . S
C1887 C1886 1.367 . S
C1887 C1895 1.433 . S
C1888 H1884 0.929 . S
C1888 C1890 1.378 . S
C1888 C1892 1.350 . S
C1889 C1892 1.463 1_556 S
C1889 C1894 1.350 . S
C1889 N1897 1.427 . S
C1890 H1881 0.930 . S
C1890 C1888 1.378 . S
C1890 C1891 1.367 . S
C1891 C1890 1.367 . S
C1891 C1893 1.433 . S
C1892 C1888 1.350 . S
C1892 C1889 1.463 1_554 S
C1892 N1896 1.427 . S
C1893 H1883 0.929 . S
C1893 C1891 1.433 . S
C1893 N1896 1.384 . S
C1894 H1885 0.929 . S
C1894 C1886 1.378 . S
C1894 C1889 1.350 . S
C1895 H1882 0.929 . S
C1895 C1887 1.433 . S
C1895 N1897 1.384 . S
N1896 C1892 1.427 . S
N1896 C1893 1.384 . S
N1897 C1889 1.427 . S
N1897 C1895 1.384 . S
H1898 C1904 0.930 . S
H1899 C1908 0.930 . S
H1900 C1913 0.929 . S
H1901 C1911 0.929 . S
H1902 C1906 0.929 . S
H1903 C1912 0.929 . S
C1904 H1898 0.930 . S
C1904 C1905 1.367 . S
C1904 C1912 1.378 . S
C1905 C1904 1.367 . S
C1905 C1913 1.433 . S
C1906 H1902 0.929 . S
C1906 C1908 1.378 . S
C1906 C1910 1.350 . S
C1907 C1910 1.463 . S
C1907 C1912 1.350 . S
C1907 N1915 1.427 . S
C1908 H1899 0.930 . S
C1908 C1906 1.378 . S
C1908 C1909 1.367 . S
C1909 C1908 1.367 . S
C1909 C1911 1.433 . S
C1910 C1906 1.350 . S
C1910 C1907 1.463 . S
C1910 N1914 1.427 . S
C1911 H1901 0.929 . S
C1911 C1909 1.433 . S
C1911 N1914 1.384 . S
C1912 H1903 0.929 . S
C1912 C1904 1.378 . S
C1912 C1907 1.350 . S
C1913 H1900 0.929 . S
C1913 C1905 1.433 . S
C1913 N1915 1.384 . S
N1914 C1910 1.427 . S
N1914 C1911 1.384 . S
N1915 C1907 1.427 . S
N1915 C1913 1.384 . S
H1916 C1922 0.930 . S
H1917 C1926 0.930 . S
H1918 C1931 0.929 . S
H1919 C1929 0.929 . S
H1920 C1924 0.929 . S
H1921 C1930 0.929 . S
C1922 H1916 0.930 . S
C1922 C1923 1.367 . S
C1922 C1930 1.378 . S
C1923 C1922 1.367 . S
C1923 C1931 1.433 . S
C1924 H1920 0.929 . S
C1924 C1926 1.378 . S
C1924 C1928 1.350 . S
C1925 C1928 1.463 . S
C1925 C1930 1.350 . S
C1925 N1933 1.427 . S
C1926 H1917 0.930 . S
C1926 C1924 1.378 . S
C1926 C1927 1.367 . S
C1927 C1926 1.367 . S
C1927 C1929 1.433 . S
C1928 C1924 1.350 . S
C1928 C1925 1.463 . S
C1928 N1932 1.427 . S
C1929 H1919 0.929 . S
C1929 C1927 1.433 . S
C1929 N1932 1.384 . S
C1930 H1921 0.929 . S
C1930 C1922 1.378 . S
C1930 C1925 1.350 . S
C1931 H1918 0.929 . S
C1931 C1923 1.433 . S
C1931 N1933 1.384 . S
N1932 C1928 1.427 . S
N1932 C1929 1.384 . S
N1933 C1925 1.427 . S
N1933 C1931 1.384 . S
H1934 C1940 0.930 . S
H1935 C1944 0.930 . S
H1936 C1949 0.929 . S
H1937 C1947 0.929 . S
H1938 C1942 0.929 . S
H1939 C1948 0.929 . S
C1940 H1934 0.930 . S
C1940 C1941 1.367 . S
C1940 C1948 1.378 . S
C1941 C1940 1.367 . S
C1941 C1949 1.433 . S
C1942 H1938 0.929 . S
C1942 C1944 1.378 . S
C1942 C1946 1.350 . S
C1943 C1946 1.463 . S
C1943 C1948 1.350 . S
C1943 N1951 1.427 . S
C1944 H1935 0.930 . S
C1944 C1942 1.378 . S
C1944 C1945 1.367 . S
C1945 C1944 1.367 . S
C1945 C1947 1.433 . S
C1946 C1942 1.350 . S
C1946 C1943 1.463 . S
C1946 N1950 1.427 . S
C1947 H1937 0.929 . S
C1947 C1945 1.433 . S
C1947 N1950 1.384 . S
C1948 H1939 0.929 . S
C1948 C1940 1.378 . S
C1948 C1943 1.350 . S
C1949 H1936 0.929 . S
C1949 C1941 1.433 . S
C1949 N1951 1.384 . S
N1950 C1946 1.427 . S
N1950 C1947 1.384 . S
N1951 C1943 1.427 . S
N1951 C1949 1.384 . S
H1952 C1958 0.930 . S
H1953 C1962 0.930 . S
H1954 C1967 0.929 . S
H1955 C1965 0.929 . S
H1956 C1960 0.929 . S
H1957 C1966 0.929 . S
C1958 H1952 0.930 . S
C1958 C1959 1.367 . S
C1958 C1966 1.378 . S
C1959 C1958 1.367 . S
C1959 C1967 1.433 . S
C1960 H1956 0.929 . S
C1960 C1962 1.378 . S
C1960 C1964 1.350 . S
C1961 C1964 1.463 . S
C1961 C1966 1.350 . S
C1961 N1969 1.427 . S
C1962 H1953 0.930 . S
C1962 C1960 1.378 . S
C1962 C1963 1.367 . S
C1963 C1962 1.367 . S
C1963 C1965 1.433 . S
C1964 C1960 1.350 . S
C1964 C1961 1.463 . S
C1964 N1968 1.427 . S
C1965 H1955 0.929 . S
C1965 C1963 1.433 . S
C1965 N1968 1.384 . S
C1966 H1957 0.929 . S
C1966 C1958 1.378 . S
C1966 C1961 1.350 . S
C1967 H1954 0.929 . S
C1967 C1959 1.433 . S
C1967 N1969 1.384 . S
N1968 C1964 1.427 . S
N1968 C1965 1.384 . S
N1969 C1961 1.427 . S
N1969 C1967 1.384 . S
H1970 C1976 0.930 . S
H1971 C1980 0.930 . S
H1972 C1985 0.929 . S
H1973 C1983 0.929 . S
H1974 C1978 0.929 . S
H1975 C1984 0.929 . S
C1976 H1970 0.930 . S
C1976 C1977 1.367 . S
C1976 C1984 1.378 . S
C1977 C1976 1.367 . S
C1977 C1985 1.433 . S
C1978 H1974 0.929 . S
C1978 C1980 1.378 . S
C1978 C1982 1.350 . S
C1979 C1982 1.463 1_655 S
C1979 C1984 1.350 . S
C1979 N1987 1.427 . S
C1980 H1971 0.930 . S
C1980 C1978 1.378 . S
C1980 C1981 1.367 . S
C1981 C1980 1.367 . S
C1981 C1983 1.433 . S
C1982 C1978 1.350 . S
C1982 C1979 1.463 1_455 S
C1982 N1986 1.427 . S
C1983 H1973 0.929 . S
C1983 C1981 1.433 . S
C1983 N1986 1.384 . S
C1984 H1975 0.929 . S
C1984 C1976 1.378 . S
C1984 C1979 1.350 . S
C1985 H1972 0.929 . S
C1985 C1977 1.433 . S
C1985 N1987 1.384 . S
N1986 C1982 1.427 . S
N1986 C1983 1.384 . S
N1987 C1979 1.427 . S
N1987 C1985 1.384 . S
H1988 C1994 0.930 . S
H1989 C1998 0.930 . S
H1990 C2003 0.929 . S
H1991 C2001 0.929 . S
H1992 C1996 0.929 . S
H1993 C2002 0.929 . S
C1994 H1988 0.930 . S
C1994 C1995 1.367 . S
C1994 C2002 1.378 . S
C1995 C1994 1.367 . S
C1995 C2003 1.433 . S
C1996 H1992 0.929 . S
C1996 C1998 1.378 . S
C1996 C2000 1.350 . S
C1997 C2000 1.463 . S
C1997 C2002 1.350 . S
C1997 N2005 1.427 . S
C1998 H1989 0.930 . S
C1998 C1996 1.378 . S
C1998 C1999 1.367 . S
C1999 C1998 1.367 . S
C1999 C2001 1.433 . S
C2000 C1996 1.350 . S
C2000 C1997 1.463 . S
C2000 N2004 1.427 . S
C2001 H1991 0.929 . S
C2001 C1999 1.433 . S
C2001 N2004 1.384 . S
C2002 H1993 0.929 . S
C2002 C1994 1.378 . S
C2002 C1997 1.350 . S
C2003 H1990 0.929 . S
C2003 C1995 1.433 . S
C2003 N2005 1.384 . S
N2004 C2000 1.427 . S
N2004 C2001 1.384 . S
N2005 C1997 1.427 . S
N2005 C2003 1.384 . S
H2006 C2012 0.930 . S
H2007 C2016 0.930 . S
H2008 C2021 0.929 . S
H2009 C2019 0.929 . S
H2010 C2014 0.929 . S
H2011 C2020 0.929 . S
C2012 H2006 0.930 . S
C2012 C2013 1.367 . S
C2012 C2020 1.378 . S
C2013 C2012 1.367 . S
C2013 C2021 1.433 . S
C2014 H2010 0.929 . S
C2014 C2016 1.378 . S
C2014 C2018 1.350 . S
C2015 C2018 1.463 . S
C2015 C2020 1.350 . S
C2015 N2023 1.427 . S
C2016 H2007 0.930 . S
C2016 C2014 1.378 . S
C2016 C2017 1.367 . S
C2017 C2016 1.367 . S
C2017 C2019 1.433 . S
C2018 C2014 1.350 . S
C2018 C2015 1.463 . S
C2018 N2022 1.427 . S
C2019 H2009 0.929 . S
C2019 C2017 1.433 . S
C2019 N2022 1.384 . S
C2020 H2011 0.929 . S
C2020 C2012 1.378 . S
C2020 C2015 1.350 . S
C2021 H2008 0.929 . S
C2021 C2013 1.433 . S
C2021 N2023 1.384 . S
N2022 C2018 1.427 . S
N2022 C2019 1.384 . S
N2023 C2015 1.427 . S
N2023 C2021 1.384 . S
H2024 C2030 0.930 . S
H2025 C2034 0.930 . S
H2026 C2039 0.929 . S
H2027 C2037 0.929 . S
H2028 C2032 0.929 . S
H2029 C2038 0.929 . S
C2030 H2024 0.930 . S
C2030 C2031 1.367 . S
C2030 C2038 1.378 . S
C2031 C2030 1.367 . S
C2031 C2039 1.433 . S
C2032 H2028 0.929 . S
C2032 C2034 1.378 . S
C2032 C2036 1.350 . S
C2033 C2036 1.463 . S
C2033 C2038 1.350 . S
C2033 N2041 1.427 . S
C2034 H2025 0.930 . S
C2034 C2032 1.378 . S
C2034 C2035 1.367 . S
C2035 C2034 1.367 . S
C2035 C2037 1.433 . S
C2036 C2032 1.350 . S
C2036 C2033 1.463 . S
C2036 N2040 1.427 . S
C2037 H2027 0.929 . S
C2037 C2035 1.433 . S
C2037 N2040 1.384 . S
C2038 H2029 0.929 . S
C2038 C2030 1.378 . S
C2038 C2033 1.350 . S
C2039 H2026 0.929 . S
C2039 C2031 1.433 . S
C2039 N2041 1.384 . S
N2040 C2036 1.427 . S
N2040 C2037 1.384 . S
N2041 C2033 1.427 . S
N2041 C2039 1.384 . S
H2042 C2048 0.930 . S
H2043 C2052 0.930 . S
H2044 C2057 0.929 . S
H2045 C2055 0.929 . S
H2046 C2050 0.929 . S
H2047 C2056 0.929 . S
C2048 H2042 0.930 . S
C2048 C2049 1.367 . S
C2048 C2056 1.378 . S
C2049 C2048 1.367 . S
C2049 C2057 1.433 . S
C2050 H2046 0.929 . S
C2050 C2052 1.378 . S
C2050 C2054 1.350 . S
C2051 C2054 1.463 . S
C2051 C2056 1.350 . S
C2051 N2059 1.427 . S
C2052 H2043 0.930 . S
C2052 C2050 1.378 . S
C2052 C2053 1.367 . S
C2053 C2052 1.367 . S
C2053 C2055 1.433 . S
C2054 C2050 1.350 . S
C2054 C2051 1.463 . S
C2054 N2058 1.427 . S
C2055 H2045 0.929 . S
C2055 C2053 1.433 . S
C2055 N2058 1.384 . S
C2056 H2047 0.929 . S
C2056 C2048 1.378 . S
C2056 C2051 1.350 . S
C2057 H2044 0.929 . S
C2057 C2049 1.433 . S
C2057 N2059 1.384 . S
N2058 C2054 1.427 . S
N2058 C2055 1.384 . S
N2059 C2051 1.427 . S
N2059 C2057 1.384 . S
H2060 C2066 0.930 . S
H2061 C2070 0.930 . S
H2062 C2075 0.929 . S
H2063 C2073 0.929 . S
H2064 C2068 0.929 . S
H2065 C2074 0.929 . S
C2066 H2060 0.930 . S
C2066 C2067 1.367 . S
C2066 C2074 1.378 . S
C2067 C2066 1.367 . S
C2067 C2075 1.433 . S
C2068 H2064 0.929 . S
C2068 C2070 1.378 . S
C2068 C2072 1.350 . S
C2069 C2072 1.463 . S
C2069 C2074 1.350 . S
C2069 N2077 1.427 . S
C2070 H2061 0.930 . S
C2070 C2068 1.378 . S
C2070 C2071 1.367 . S
C2071 C2070 1.367 . S
C2071 C2073 1.433 . S
C2072 C2068 1.350 . S
C2072 C2069 1.463 . S
C2072 N2076 1.427 . S
C2073 H2063 0.929 . S
C2073 C2071 1.433 . S
C2073 N2076 1.384 . S
C2074 H2065 0.929 . S
C2074 C2066 1.378 . S
C2074 C2069 1.350 . S
C2075 H2062 0.929 . S
C2075 C2067 1.433 . S
C2075 N2077 1.384 . S
N2076 C2072 1.427 . S
N2076 C2073 1.384 . S
N2077 C2069 1.427 . S
N2077 C2075 1.384 . S
H2078 C2084 0.930 . S
H2079 C2088 0.930 . S
H2080 C2093 0.929 . S
H2081 C2091 0.929 . S
H2082 C2086 0.929 . S
H2083 C2092 0.929 . S
C2084 H2078 0.930 . S
C2084 C2085 1.367 . S
C2084 C2092 1.378 . S
C2085 C2084 1.367 . S
C2085 C2093 1.433 . S
C2086 H2082 0.929 . S
C2086 C2088 1.378 . S
C2086 C2090 1.350 . S
C2087 C2090 1.463 1_655 S
C2087 C2092 1.350 . S
C2087 N2095 1.427 . S
C2088 H2079 0.930 . S
C2088 C2086 1.378 . S
C2088 C2089 1.367 . S
C2089 C2088 1.367 . S
C2089 C2091 1.433 . S
C2090 C2086 1.350 . S
C2090 C2087 1.463 1_455 S
C2090 N2094 1.427 . S
C2091 H2081 0.929 . S
C2091 C2089 1.433 . S
C2091 N2094 1.384 . S
C2092 H2083 0.929 . S
C2092 C2084 1.378 . S
C2092 C2087 1.350 . S
C2093 H2080 0.929 . S
C2093 C2085 1.433 . S
C2093 N2095 1.384 . S
N2094 C2090 1.427 . S
N2094 C2091 1.384 . S
N2095 C2087 1.427 . S
N2095 C2093 1.384 . S
H2096 C2102 0.930 . S
H2097 C2106 0.930 . S
H2098 C2111 0.929 . S
H2099 C2109 0.929 . S
H2100 C2104 0.929 . S
H2101 C2110 0.929 . S
C2102 H2096 0.930 . S
C2102 C2103 1.367 . S
C2102 C2110 1.378 . S
C2103 C2102 1.367 . S
C2103 C2111 1.433 . S
C2104 H2100 0.929 . S
C2104 C2106 1.378 . S
C2104 C2108 1.350 . S
C2105 C2108 1.463 . S
C2105 C2110 1.350 . S
C2105 N2113 1.427 . S
C2106 H2097 0.930 . S
C2106 C2104 1.378 . S
C2106 C2107 1.367 . S
C2107 C2106 1.367 . S
C2107 C2109 1.433 . S
C2108 C2104 1.350 . S
C2108 C2105 1.463 . S
C2108 N2112 1.427 . S
C2109 H2099 0.929 . S
C2109 C2107 1.433 . S
C2109 N2112 1.384 . S
C2110 H2101 0.929 . S
C2110 C2102 1.378 . S
C2110 C2105 1.350 . S
C2111 H2098 0.929 . S
C2111 C2103 1.433 . S
C2111 N2113 1.384 . S
N2112 C2108 1.427 . S
N2112 C2109 1.384 . S
N2113 C2105 1.427 . S
N2113 C2111 1.384 . S
H2114 C2120 0.930 . S
H2115 C2124 0.930 . S
H2116 C2129 0.929 . S
H2117 C2127 0.929 . S
H2118 C2122 0.929 . S
H2119 C2128 0.929 . S
C2120 H2114 0.930 . S
C2120 C2121 1.367 . S
C2120 C2128 1.378 . S
C2121 C2120 1.367 . S
C2121 C2129 1.433 . S
C2122 H2118 0.929 . S
C2122 C2124 1.378 . S
C2122 C2126 1.350 . S
C2123 C2126 1.463 1_655 S
C2123 C2128 1.350 . S
C2123 N2131 1.427 . S
C2124 H2115 0.930 . S
C2124 C2122 1.378 . S
C2124 C2125 1.367 . S
C2125 C2124 1.367 . S
C2125 C2127 1.433 . S
C2126 C2122 1.350 . S
C2126 C2123 1.463 1_455 S
C2126 N2130 1.427 . S
C2127 H2117 0.929 . S
C2127 C2125 1.433 . S
C2127 N2130 1.384 . S
C2128 H2119 0.929 . S
C2128 C2120 1.378 . S
C2128 C2123 1.350 . S
C2129 H2116 0.929 . S
C2129 C2121 1.433 . S
C2129 N2131 1.384 . S
N2130 C2126 1.427 . S
N2130 C2127 1.384 . S
N2131 C2123 1.427 . S
N2131 C2129 1.384 . S
H2132 C2138 0.930 . S
H2133 C2142 0.930 . S
H2134 C2147 0.929 . S
H2135 C2145 0.929 . S
H2136 C2140 0.929 . S
H2137 C2146 0.929 . S
C2138 H2132 0.930 . S
C2138 C2139 1.367 . S
C2138 C2146 1.378 . S
C2139 C2138 1.367 . S
C2139 C2147 1.433 . S
C2140 H2136 0.929 . S
C2140 C2142 1.378 . S
C2140 C2144 1.350 . S
C2141 C2144 1.463 . S
C2141 C2146 1.350 . S
C2141 N2149 1.427 . S
C2142 H2133 0.930 . S
C2142 C2140 1.378 . S
C2142 C2143 1.367 . S
C2143 C2142 1.367 . S
C2143 C2145 1.433 . S
C2144 C2140 1.350 . S
C2144 C2141 1.463 . S
C2144 N2148 1.427 . S
C2145 H2135 0.929 . S
C2145 C2143 1.433 . S
C2145 N2148 1.384 . S
C2146 H2137 0.929 . S
C2146 C2138 1.378 . S
C2146 C2141 1.350 . S
C2147 H2134 0.929 . S
C2147 C2139 1.433 . S
C2147 N2149 1.384 . S
N2148 C2144 1.427 . S
N2148 C2145 1.384 . S
N2149 C2141 1.427 . S
N2149 C2147 1.384 . S
H2150 C2156 0.930 . S
H2151 C2160 0.930 . S
H2152 C2165 0.929 . S
H2153 C2163 0.929 . S
H2154 C2158 0.929 . S
H2155 C2164 0.929 . S
C2156 H2150 0.930 . S
C2156 C2157 1.367 . S
C2156 C2164 1.378 . S
C2157 C2156 1.367 . S
C2157 C2165 1.433 . S
C2158 H2154 0.929 . S
C2158 C2160 1.378 . S
C2158 C2162 1.350 . S
C2159 C2162 1.463 . S
C2159 C2164 1.350 . S
C2159 N2167 1.427 . S
C2160 H2151 0.930 . S
C2160 C2158 1.378 . S
C2160 C2161 1.367 . S
C2161 C2160 1.367 . S
C2161 C2163 1.433 . S
C2162 C2158 1.350 . S
C2162 C2159 1.463 . S
C2162 N2166 1.427 . S
C2163 H2153 0.929 . S
C2163 C2161 1.433 . S
C2163 N2166 1.384 . S
C2164 H2155 0.929 . S
C2164 C2156 1.378 . S
C2164 C2159 1.350 . S
C2165 H2152 0.929 . S
C2165 C2157 1.433 . S
C2165 N2167 1.384 . S
N2166 C2162 1.427 . S
N2166 C2163 1.384 . S
N2167 C2159 1.427 . S
N2167 C2165 1.384 . S
H2168 C2174 0.930 . S
H2169 C2178 0.930 . S
H2170 C2183 0.929 . S
H2171 C2181 0.929 . S
H2172 C2176 0.929 . S
H2173 C2182 0.929 . S
C2174 H2168 0.930 . S
C2174 C2175 1.367 . S
C2174 C2182 1.378 . S
C2175 C2174 1.367 . S
C2175 C2183 1.433 . S
C2176 H2172 0.929 . S
C2176 C2178 1.378 . S
C2176 C2180 1.350 . S
C2177 C2180 1.463 . S
C2177 C2182 1.350 . S
C2177 N2185 1.427 . S
C2178 H2169 0.930 . S
C2178 C2176 1.378 . S
C2178 C2179 1.367 . S
C2179 C2178 1.367 . S
C2179 C2181 1.433 . S
C2180 C2176 1.350 . S
C2180 C2177 1.463 . S
C2180 N2184 1.427 . S
C2181 H2171 0.929 . S
C2181 C2179 1.433 . S
C2181 N2184 1.384 . S
C2182 H2173 0.929 . S
C2182 C2174 1.378 . S
C2182 C2177 1.350 . S
C2183 H2170 0.929 . S
C2183 C2175 1.433 . S
C2183 N2185 1.384 . S
N2184 C2180 1.427 . S
N2184 C2181 1.384 . S
N2185 C2177 1.427 . S
N2185 C2183 1.384 . S
H2186 C2192 0.930 . S
H2187 C2196 0.930 . S
H2188 C2201 0.929 . S
H2189 C2199 0.929 . S
H2190 C2194 0.929 . S
H2191 C2200 0.929 . S
C2192 H2186 0.930 . S
C2192 C2193 1.367 . S
C2192 C2200 1.378 . S
C2193 C2192 1.367 . S
C2193 C2201 1.433 . S
C2194 H2190 0.929 . S
C2194 C2196 1.378 . S
C2194 C2198 1.350 . S
C2195 C2198 1.463 . S
C2195 C2200 1.350 . S
C2195 N2203 1.427 . S
C2196 H2187 0.930 . S
C2196 C2194 1.378 . S
C2196 C2197 1.367 . S
C2197 C2196 1.367 . S
C2197 C2199 1.433 . S
C2198 C2194 1.350 . S
C2198 C2195 1.463 . S
C2198 N2202 1.427 . S
C2199 H2189 0.929 . S
C2199 C2197 1.433 . S
C2199 N2202 1.384 . S
C2200 H2191 0.929 . S
C2200 C2192 1.378 . S
C2200 C2195 1.350 . S
C2201 H2188 0.929 . S
C2201 C2193 1.433 . S
C2201 N2203 1.384 . S
N2202 C2198 1.427 . S
N2202 C2199 1.384 . S
N2203 C2195 1.427 . S
N2203 C2201 1.384 . S
H2204 C2210 0.930 . S
H2205 C2214 0.930 . S
H2206 C2219 0.929 . S
H2207 C2217 0.929 . S
H2208 C2212 0.929 . S
H2209 C2218 0.929 . S
C2210 H2204 0.930 . S
C2210 C2211 1.367 . S
C2210 C2218 1.378 . S
C2211 C2210 1.367 . S
C2211 C2219 1.433 . S
C2212 H2208 0.929 . S
C2212 C2214 1.378 . S
C2212 C2216 1.350 . S
C2213 C2216 1.463 . S
C2213 C2218 1.350 . S
C2213 N2221 1.427 . S
C2214 H2205 0.930 . S
C2214 C2212 1.378 . S
C2214 C2215 1.367 . S
C2215 C2214 1.367 . S
C2215 C2217 1.433 . S
C2216 C2212 1.350 . S
C2216 C2213 1.463 . S
C2216 N2220 1.427 . S
C2217 H2207 0.929 . S
C2217 C2215 1.433 . S
C2217 N2220 1.384 . S
C2218 H2209 0.929 . S
C2218 C2210 1.378 . S
C2218 C2213 1.350 . S
C2219 H2206 0.929 . S
C2219 C2211 1.433 . S
C2219 N2221 1.384 . S
N2220 C2216 1.427 . S
N2220 C2217 1.384 . S
N2221 C2213 1.427 . S
N2221 C2219 1.384 . S
H2222 C2228 0.930 . S
H2223 C2232 0.930 . S
H2224 C2237 0.929 . S
H2225 C2235 0.929 . S
H2226 C2230 0.929 . S
H2227 C2236 0.929 . S
C2228 H2222 0.930 . S
C2228 C2229 1.367 . S
C2228 C2236 1.378 . S
C2229 C2228 1.367 . S
C2229 C2237 1.433 . S
C2230 H2226 0.929 . S
C2230 C2232 1.378 . S
C2230 C2234 1.350 . S
C2231 C2234 1.463 1_455 S
C2231 C2236 1.350 . S
C2231 N2239 1.427 . S
C2232 H2223 0.930 . S
C2232 C2230 1.378 . S
C2232 C2233 1.367 . S
C2233 C2232 1.367 . S
C2233 C2235 1.433 . S
C2234 C2230 1.350 . S
C2234 C2231 1.463 1_655 S
C2234 N2238 1.427 . S
C2235 H2225 0.929 . S
C2235 C2233 1.433 . S
C2235 N2238 1.384 . S
C2236 H2227 0.929 . S
C2236 C2228 1.378 . S
C2236 C2231 1.350 . S
C2237 H2224 0.929 . S
C2237 C2229 1.433 . S
C2237 N2239 1.384 . S
N2238 C2234 1.427 . S
N2238 C2235 1.384 . S
N2239 C2231 1.427 . S
N2239 C2237 1.384 . S
H2240 C2246 0.930 . S
H2241 C2250 0.930 . S
H2242 C2255 0.929 . S
H2243 C2253 0.929 . S
H2244 C2248 0.929 . S
H2245 C2254 0.929 . S
C2246 H2240 0.930 . S
C2246 C2247 1.367 . S
C2246 C2254 1.378 . S
C2247 C2246 1.367 . S
C2247 C2255 1.433 . S
C2248 H2244 0.929 . S
C2248 C2250 1.378 . S
C2248 C2252 1.350 . S
C2249 C2252 1.463 . S
C2249 C2254 1.350 . S
C2249 N2257 1.427 . S
C2250 H2241 0.930 . S
C2250 C2248 1.378 . S
C2250 C2251 1.367 . S
C2251 C2250 1.367 . S
C2251 C2253 1.433 . S
C2252 C2248 1.350 . S
C2252 C2249 1.463 . S
C2252 N2256 1.427 . S
C2253 H2243 0.929 . S
C2253 C2251 1.433 . S
C2253 N2256 1.384 . S
C2254 H2245 0.929 . S
C2254 C2246 1.378 . S
C2254 C2249 1.350 . S
C2255 H2242 0.929 . S
C2255 C2247 1.433 . S
C2255 N2257 1.384 . S
N2256 C2252 1.427 . S
N2256 C2253 1.384 . S
N2257 C2249 1.427 . S
N2257 C2255 1.384 . S
H2258 C2264 0.930 . S
H2259 C2268 0.930 . S
H2260 C2273 0.929 . S
H2261 C2271 0.929 . S
H2262 C2266 0.929 . S
H2263 C2272 0.929 . S
C2264 H2258 0.930 . S
C2264 C2265 1.367 . S
C2264 C2272 1.378 . S
C2265 C2264 1.367 . S
C2265 C2273 1.433 . S
C2266 H2262 0.929 . S
C2266 C2268 1.378 . S
C2266 C2270 1.350 . S
C2267 C2270 1.463 . S
C2267 C2272 1.350 . S
C2267 N2275 1.427 . S
C2268 H2259 0.930 . S
C2268 C2266 1.378 . S
C2268 C2269 1.367 . S
C2269 C2268 1.367 . S
C2269 C2271 1.433 . S
C2270 C2266 1.350 . S
C2270 C2267 1.463 . S
C2270 N2274 1.427 . S
C2271 H2261 0.929 . S
C2271 C2269 1.433 . S
C2271 N2274 1.384 . S
C2272 H2263 0.929 . S
C2272 C2264 1.378 . S
C2272 C2267 1.350 . S
C2273 H2260 0.929 . S
C2273 C2265 1.433 . S
C2273 N2275 1.384 . S
N2274 C2270 1.427 . S
N2274 C2271 1.384 . S
N2275 C2267 1.427 . S
N2275 C2273 1.384 . S
H2276 C2282 0.930 . S
H2277 C2286 0.930 . S
H2278 C2291 0.929 . S
H2279 C2289 0.929 . S
H2280 C2284 0.929 . S
H2281 C2290 0.929 . S
C2282 H2276 0.930 . S
C2282 C2283 1.367 . S
C2282 C2290 1.378 . S
C2283 C2282 1.367 . S
C2283 C2291 1.433 . S
C2284 H2280 0.929 . S
C2284 C2286 1.378 . S
C2284 C2288 1.350 . S
C2285 C2288 1.463 . S
C2285 C2290 1.350 . S
C2285 N2293 1.427 . S
C2286 H2277 0.930 . S
C2286 C2284 1.378 . S
C2286 C2287 1.367 . S
C2287 C2286 1.367 . S
C2287 C2289 1.433 . S
C2288 C2284 1.350 . S
C2288 C2285 1.463 . S
C2288 N2292 1.427 . S
C2289 H2279 0.929 . S
C2289 C2287 1.433 . S
C2289 N2292 1.384 . S
C2290 H2281 0.929 . S
C2290 C2282 1.378 . S
C2290 C2285 1.350 . S
C2291 H2278 0.929 . S
C2291 C2283 1.433 . S
C2291 N2293 1.384 . S
N2292 C2288 1.427 . S
N2292 C2289 1.384 . S
N2293 C2285 1.427 . S
N2293 C2291 1.384 . S
H2294 C2300 0.930 . S
H2295 C2304 0.930 . S
H2296 C2309 0.929 . S
H2297 C2307 0.929 . S
H2298 C2302 0.929 . S
H2299 C2308 0.929 . S
C2300 H2294 0.930 . S
C2300 C2301 1.367 . S
C2300 C2308 1.378 . S
C2301 C2300 1.367 . S
C2301 C2309 1.433 . S
C2302 H2298 0.929 . S
C2302 C2304 1.378 . S
C2302 C2306 1.350 . S
C2303 C2306 1.463 1_655 S
C2303 C2308 1.350 . S
C2303 N2311 1.427 . S
C2304 H2295 0.930 . S
C2304 C2302 1.378 . S
C2304 C2305 1.367 . S
C2305 C2304 1.367 . S
C2305 C2307 1.433 . S
C2306 C2302 1.350 . S
C2306 C2303 1.463 1_455 S
C2306 N2310 1.427 . S
C2307 H2297 0.929 . S
C2307 C2305 1.433 . S
C2307 N2310 1.384 . S
C2308 H2299 0.929 . S
C2308 C2300 1.378 . S
C2308 C2303 1.350 . S
C2309 H2296 0.929 . S
C2309 C2301 1.433 . S
C2309 N2311 1.384 . S
N2310 C2306 1.427 . S
N2310 C2307 1.384 . S
N2311 C2303 1.427 . S
N2311 C2309 1.384 . S
H2312 C2318 0.930 . S
H2313 C2322 0.930 . S
H2314 C2327 0.929 . S
H2315 C2325 0.929 . S
H2316 C2320 0.929 . S
H2317 C2326 0.929 . S
C2318 H2312 0.930 . S
C2318 C2319 1.367 . S
C2318 C2326 1.378 . S
C2319 C2318 1.367 . S
C2319 C2327 1.433 . S
C2320 H2316 0.929 . S
C2320 C2322 1.378 . S
C2320 C2324 1.350 . S
C2321 C2324 1.463 . S
C2321 C2326 1.350 . S
C2321 N2329 1.427 . S
C2322 H2313 0.930 . S
C2322 C2320 1.378 . S
C2322 C2323 1.367 . S
C2323 C2322 1.367 . S
C2323 C2325 1.433 . S
C2324 C2320 1.350 . S
C2324 C2321 1.463 . S
C2324 N2328 1.427 . S
C2325 H2315 0.929 . S
C2325 C2323 1.433 . S
C2325 N2328 1.384 . S
C2326 H2317 0.929 . S
C2326 C2318 1.378 . S
C2326 C2321 1.350 . S
C2327 H2314 0.929 . S
C2327 C2319 1.433 . S
C2327 N2329 1.384 . S
N2328 C2324 1.427 . S
N2328 C2325 1.384 . S
N2329 C2321 1.427 . S
N2329 C2327 1.384 . S
H2330 C2336 0.930 . S
H2331 C2340 0.930 . S
H2332 C2345 0.929 . S
H2333 C2343 0.929 . S
H2334 C2338 0.929 . S
H2335 C2344 0.929 . S
C2336 H2330 0.930 . S
C2336 C2337 1.367 . S
C2336 C2344 1.378 . S
C2337 C2336 1.367 . S
C2337 C2345 1.433 . S
C2338 H2334 0.929 . S
C2338 C2340 1.378 . S
C2338 C2342 1.350 . S
C2339 C2342 1.463 1_655 S
C2339 C2344 1.350 . S
C2339 N2347 1.427 . S
C2340 H2331 0.930 . S
C2340 C2338 1.378 . S
C2340 C2341 1.367 . S
C2341 C2340 1.367 . S
C2341 C2343 1.433 . S
C2342 C2338 1.350 . S
C2342 C2339 1.463 1_455 S
C2342 N2346 1.427 . S
C2343 H2333 0.929 . S
C2343 C2341 1.433 . S
C2343 N2346 1.384 . S
C2344 H2335 0.929 . S
C2344 C2336 1.378 . S
C2344 C2339 1.350 . S
C2345 H2332 0.929 . S
C2345 C2337 1.433 . S
C2345 N2347 1.384 . S
N2346 C2342 1.427 . S
N2346 C2343 1.384 . S
N2347 C2339 1.427 . S
N2347 C2345 1.384 . S
H2348 C2354 0.930 . S
H2349 C2358 0.930 . S
H2350 C2363 0.929 . S
H2351 C2361 0.929 . S
H2352 C2356 0.929 . S
H2353 C2362 0.929 . S
C2354 H2348 0.930 . S
C2354 C2355 1.367 . S
C2354 C2362 1.378 . S
C2355 C2354 1.367 . S
C2355 C2363 1.433 . S
C2356 H2352 0.929 . S
C2356 C2358 1.378 . S
C2356 C2360 1.350 . S
C2357 C2360 1.463 . S
C2357 C2362 1.350 . S
C2357 N2365 1.427 . S
C2358 H2349 0.930 . S
C2358 C2356 1.378 . S
C2358 C2359 1.367 . S
C2359 C2358 1.367 . S
C2359 C2361 1.433 . S
C2360 C2356 1.350 . S
C2360 C2357 1.463 . S
C2360 N2364 1.427 . S
C2361 H2351 0.929 . S
C2361 C2359 1.433 . S
C2361 N2364 1.384 . S
C2362 H2353 0.929 . S
C2362 C2354 1.378 . S
C2362 C2357 1.350 . S
C2363 H2350 0.929 . S
C2363 C2355 1.433 . S
C2363 N2365 1.384 . S
N2364 C2360 1.427 . S
N2364 C2361 1.384 . S
N2365 C2357 1.427 . S
N2365 C2363 1.384 . S
H2366 C2372 0.930 . S
H2367 C2376 0.930 . S
H2368 C2381 0.929 . S
H2369 C2379 0.929 . S
H2370 C2374 0.929 . S
H2371 C2380 0.929 . S
C2372 H2366 0.930 . S
C2372 C2373 1.367 . S
C2372 C2380 1.378 . S
C2373 C2372 1.367 . S
C2373 C2381 1.433 . S
C2374 H2370 0.929 . S
C2374 C2376 1.378 . S
C2374 C2378 1.350 . S
C2375 C2378 1.463 . S
C2375 C2380 1.350 . S
C2375 N2383 1.427 . S
C2376 H2367 0.930 . S
C2376 C2374 1.378 . S
C2376 C2377 1.367 . S
C2377 C2376 1.367 . S
C2377 C2379 1.433 . S
C2378 C2374 1.350 . S
C2378 C2375 1.463 . S
C2378 N2382 1.427 . S
C2379 H2369 0.929 . S
C2379 C2377 1.433 . S
C2379 N2382 1.384 . S
C2380 H2371 0.929 . S
C2380 C2372 1.378 . S
C2380 C2375 1.350 . S
C2381 H2368 0.929 . S
C2381 C2373 1.433 . S
C2381 N2383 1.384 . S
N2382 C2378 1.427 . S
N2382 C2379 1.384 . S
N2383 C2375 1.427 . S
N2383 C2381 1.384 . S
H2384 C2390 0.930 . S
H2385 C2394 0.930 . S
H2386 C2399 0.929 . S
H2387 C2397 0.929 . S
H2388 C2392 0.929 . S
H2389 C2398 0.929 . S
C2390 H2384 0.930 . S
C2390 C2391 1.367 . S
C2390 C2398 1.378 . S
C2391 C2390 1.367 . S
C2391 C2399 1.433 . S
C2392 H2388 0.929 . S
C2392 C2394 1.378 . S
C2392 C2396 1.350 . S
C2393 C2396 1.463 . S
C2393 C2398 1.350 . S
C2393 N2401 1.427 . S
C2394 H2385 0.930 . S
C2394 C2392 1.378 . S
C2394 C2395 1.367 . S
C2395 C2394 1.367 . S
C2395 C2397 1.433 . S
C2396 C2392 1.350 . S
C2396 C2393 1.463 . S
C2396 N2400 1.427 . S
C2397 H2387 0.929 . S
C2397 C2395 1.433 . S
C2397 N2400 1.384 . S
C2398 H2389 0.929 . S
C2398 C2390 1.378 . S
C2398 C2393 1.350 . S
C2399 H2386 0.929 . S
C2399 C2391 1.433 . S
C2399 N2401 1.384 . S
N2400 C2396 1.427 . S
N2400 C2397 1.384 . S
N2401 C2393 1.427 . S
N2401 C2399 1.384 . S
H2402 C2408 0.930 . S
H2403 C2412 0.930 . S
H2404 C2417 0.929 . S
H2405 C2415 0.929 . S
H2406 C2410 0.929 . S
H2407 C2416 0.929 . S
C2408 H2402 0.930 . S
C2408 C2409 1.367 . S
C2408 C2416 1.378 . S
C2409 C2408 1.367 . S
C2409 C2417 1.433 . S
C2410 H2406 0.929 . S
C2410 C2412 1.378 . S
C2410 C2414 1.350 . S
C2411 C2414 1.463 . S
C2411 C2416 1.350 . S
C2411 N2419 1.427 . S
C2412 H2403 0.930 . S
C2412 C2410 1.378 . S
C2412 C2413 1.367 . S
C2413 C2412 1.367 . S
C2413 C2415 1.433 . S
C2414 C2410 1.350 . S
C2414 C2411 1.463 . S
C2414 N2418 1.427 . S
C2415 H2405 0.929 . S
C2415 C2413 1.433 . S
C2415 N2418 1.384 . S
C2416 H2407 0.929 . S
C2416 C2408 1.378 . S
C2416 C2411 1.350 . S
C2417 H2404 0.929 . S
C2417 C2409 1.433 . S
C2417 N2419 1.384 . S
N2418 C2414 1.427 . S
N2418 C2415 1.384 . S
N2419 C2411 1.427 . S
N2419 C2417 1.384 . S
H2420 C2426 0.930 . S
H2421 C2430 0.930 . S
H2422 C2435 0.929 . S
H2423 C2433 0.929 . S
H2424 C2428 0.929 . S
H2425 C2434 0.929 . S
C2426 H2420 0.930 . S
C2426 C2427 1.367 . S
C2426 C2434 1.378 . S
C2427 C2426 1.367 . S
C2427 C2435 1.433 . S
C2428 H2424 0.929 . S
C2428 C2430 1.378 . S
C2428 C2432 1.350 . S
C2429 C2432 1.463 . S
C2429 C2434 1.350 . S
C2429 N2437 1.427 . S
C2430 H2421 0.930 . S
C2430 C2428 1.378 . S
C2430 C2431 1.367 . S
C2431 C2430 1.367 . S
C2431 C2433 1.433 . S
C2432 C2428 1.350 . S
C2432 C2429 1.463 . S
C2432 N2436 1.427 . S
C2433 H2423 0.929 . S
C2433 C2431 1.433 . S
C2433 N2436 1.384 . S
C2434 H2425 0.929 . S
C2434 C2426 1.378 . S
C2434 C2429 1.350 . S
C2435 H2422 0.929 . S
C2435 C2427 1.433 . S
C2435 N2437 1.384 . S
N2436 C2432 1.427 . S
N2436 C2433 1.384 . S
N2437 C2429 1.427 . S
N2437 C2435 1.384 . S
H2438 C2444 0.930 . S
H2439 C2448 0.930 . S
H2440 C2453 0.929 . S
H2441 C2451 0.929 . S
H2442 C2446 0.929 . S
H2443 C2452 0.929 . S
C2444 H2438 0.930 . S
C2444 C2445 1.367 . S
C2444 C2452 1.378 . S
C2445 C2444 1.367 . S
C2445 C2453 1.433 . S
C2446 H2442 0.929 . S
C2446 C2448 1.378 . S
C2446 C2450 1.350 . S
C2447 C2450 1.463 1_655 S
C2447 C2452 1.350 . S
C2447 N2455 1.427 . S
C2448 H2439 0.930 . S
C2448 C2446 1.378 . S
C2448 C2449 1.367 . S
C2449 C2448 1.367 . S
C2449 C2451 1.433 . S
C2450 C2446 1.350 . S
C2450 C2447 1.463 1_455 S
C2450 N2454 1.427 . S
C2451 H2441 0.929 . S
C2451 C2449 1.433 . S
C2451 N2454 1.384 . S
C2452 H2443 0.929 . S
C2452 C2444 1.378 . S
C2452 C2447 1.350 . S
C2453 H2440 0.929 . S
C2453 C2445 1.433 . S
C2453 N2455 1.384 . S
N2454 C2450 1.427 . S
N2454 C2451 1.384 . S
N2455 C2447 1.427 . S
N2455 C2453 1.384 . S
H2456 C2462 0.930 . S
H2457 C2466 0.930 . S
H2458 C2471 0.929 . S
H2459 C2469 0.929 . S
H2460 C2464 0.929 . S
H2461 C2470 0.929 . S
C2462 H2456 0.930 . S
C2462 C2463 1.367 . S
C2462 C2470 1.378 . S
C2463 C2462 1.367 . S
C2463 C2471 1.433 . S
C2464 H2460 0.929 . S
C2464 C2466 1.378 . S
C2464 C2468 1.350 . S
C2465 C2468 1.463 . S
C2465 C2470 1.350 . S
C2465 N2473 1.427 . S
C2466 H2457 0.930 . S
C2466 C2464 1.378 . S
C2466 C2467 1.367 . S
C2467 C2466 1.367 . S
C2467 C2469 1.433 . S
C2468 C2464 1.350 . S
C2468 C2465 1.463 . S
C2468 N2472 1.427 . S
C2469 H2459 0.929 . S
C2469 C2467 1.433 . S
C2469 N2472 1.384 . S
C2470 H2461 0.929 . S
C2470 C2462 1.378 . S
C2470 C2465 1.350 . S
C2471 H2458 0.929 . S
C2471 C2463 1.433 . S
C2471 N2473 1.384 . S
N2472 C2468 1.427 . S
N2472 C2469 1.384 . S
N2473 C2465 1.427 . S
N2473 C2471 1.384 . S
H2474 C2480 0.930 . S
H2475 C2484 0.930 . S
H2476 C2489 0.929 . S
H2477 C2487 0.929 . S
H2478 C2482 0.929 . S
H2479 C2488 0.929 . S
C2480 H2474 0.930 . S
C2480 C2481 1.367 . S
C2480 C2488 1.378 . S
C2481 C2480 1.367 . S
C2481 C2489 1.433 . S
C2482 H2478 0.929 . S
C2482 C2484 1.378 . S
C2482 C2486 1.350 . S
C2483 C2486 1.463 1_455 S
C2483 C2488 1.350 . S
C2483 N2491 1.427 . S
C2484 H2475 0.930 . S
C2484 C2482 1.378 . S
C2484 C2485 1.367 . S
C2485 C2484 1.367 . S
C2485 C2487 1.433 . S
C2486 C2482 1.350 . S
C2486 C2483 1.463 1_655 S
C2486 N2490 1.427 . S
C2487 H2477 0.929 . S
C2487 C2485 1.433 . S
C2487 N2490 1.384 . S
C2488 H2479 0.929 . S
C2488 C2480 1.378 . S
C2488 C2483 1.350 . S
C2489 H2476 0.929 . S
C2489 C2481 1.433 . S
C2489 N2491 1.384 . S
N2490 C2486 1.427 . S
N2490 C2487 1.384 . S
N2491 C2483 1.427 . S
N2491 C2489 1.384 . S
H2492 C2498 0.930 . S
H2493 C2502 0.930 . S
H2494 C2507 0.929 . S
H2495 C2505 0.929 . S
H2496 C2500 0.929 . S
H2497 C2506 0.929 . S
C2498 H2492 0.930 . S
C2498 C2499 1.367 . S
C2498 C2506 1.378 . S
C2499 C2498 1.367 . S
C2499 C2507 1.433 . S
C2500 H2496 0.929 . S
C2500 C2502 1.378 . S
C2500 C2504 1.350 . S
C2501 C2504 1.463 . S
C2501 C2506 1.350 . S
C2501 N2509 1.427 . S
C2502 H2493 0.930 . S
C2502 C2500 1.378 . S
C2502 C2503 1.367 . S
C2503 C2502 1.367 . S
C2503 C2505 1.433 . S
C2504 C2500 1.350 . S
C2504 C2501 1.463 . S
C2504 N2508 1.427 . S
C2505 H2495 0.929 . S
C2505 C2503 1.433 . S
C2505 N2508 1.384 . S
C2506 H2497 0.929 . S
C2506 C2498 1.378 . S
C2506 C2501 1.350 . S
C2507 H2494 0.929 . S
C2507 C2499 1.433 . S
C2507 N2509 1.384 . S
N2508 C2504 1.427 . S
N2508 C2505 1.384 . S
N2509 C2501 1.427 . S
N2509 C2507 1.384 . S
H2510 C2516 0.930 . S
H2511 C2520 0.930 . S
H2512 C2525 0.929 . S
H2513 C2523 0.929 . S
H2514 C2518 0.929 . S
H2515 C2524 0.929 . S
C2516 H2510 0.930 . S
C2516 C2517 1.367 . S
C2516 C2524 1.378 . S
C2517 C2516 1.367 . S
C2517 C2525 1.433 . S
C2518 H2514 0.929 . S
C2518 C2520 1.378 . S
C2518 C2522 1.350 . S
C2519 C2522 1.463 . S
C2519 C2524 1.350 . S
C2519 N2527 1.427 . S
C2520 H2511 0.930 . S
C2520 C2518 1.378 . S
C2520 C2521 1.367 . S
C2521 C2520 1.367 . S
C2521 C2523 1.433 . S
C2522 C2518 1.350 . S
C2522 C2519 1.463 . S
C2522 N2526 1.427 . S
C2523 H2513 0.929 . S
C2523 C2521 1.433 . S
C2523 N2526 1.384 . S
C2524 H2515 0.929 . S
C2524 C2516 1.378 . S
C2524 C2519 1.350 . S
C2525 H2512 0.929 . S
C2525 C2517 1.433 . S
C2525 N2527 1.384 . S
N2526 C2522 1.427 . S
N2526 C2523 1.384 . S
N2527 C2519 1.427 . S
N2527 C2525 1.384 . S
C1095 C240 1.899 1_554 S
C1099 C2 1.892 . S
C1113 C36 1.893 . S
C1117 C138 1.899 . S
C1131 C70 1.895 . S
C1135 C172 1.893 . S
C1149 C206 1.896 . S
C1153 C104 1.898 1_556 S
C1167 C274 1.894 . S
C1171 C512 1.899 1_556 S
C1185 C410 1.898 . S
C1189 C308 1.892 . S
C1203 C342 1.892 . S
C1207 C444 1.899 . S
C1221 C478 1.899 . S
C1225 C376 1.892 1_554 S
C1239 C784 1.899 . S
C1243 C546 1.892 . S
C1257 C682 1.897 . S
C1261 C580 1.892 1_556 S
C1275 C716 1.899 1_554 S
C1279 C614 1.892 . S
C1293 C750 1.894 . S
C1297 C648 1.899 . S
C1311 C1056 1.893 . S
C1315 C818 1.895 . S
C1329 C852 1.898 1_554 S
C1333 C954 1.896 . S
C1347 C988 1.893 1_556 S
C1351 C886 1.899 . S
C1365 C1022 1.892 . S
C1369 C920 1.899 . S
C1383 C20 0.234 . S
C1387 C258 0.214 . S
C1401 C54 0.215 . S
C1405 C156 0.184 . S
C1419 C88 0.226 . S
C1423 C190 0.192 . S
C1437 C122 0.192 . S
C1441 C224 0.189 . S
C1455 C530 0.192 . S
C1459 C292 0.227 . S
C1473 C326 0.224 . S
C1477 C428 0.189 . S
C1491 C462 0.198 . S
C1495 C360 0.231 . S
C1509 C394 0.223 . S
C1513 C496 0.188 . S
C1527 C564 0.189 . S
C1531 C802 0.224 . S
C1545 C700 0.189 . S
C1549 C598 0.224 . S
C1563 C734 0.189 . S
C1567 C632 0.192 . S
C1581 C666 0.193 . S
C1585 C768 0.187 . S
C1599 C836 0.231 . S
C1603 C1074 0.224 . S
C1617 C870 0.233 . S
C1621 C972 0.203 . S
C1635 C904 0.190 . S
C1639 C1006 0.224 . S
C1653 C938 0.186 . S
C1657 C1040 0.219 . S
C1671 C213 1.660 . S
C1675 C9 1.650 . S
C1689 C43 1.644 . S
C1693 C247 1.643 . S
C1707 C145 1.658 . S
C1711 C77 1.644 . S
C1725 C179 1.650 . S
C1729 C111 1.660 . S
C1743 C485 1.657 . S
C1747 C281 1.642 . S
C1761 C519 1.640 . S
C1765 C315 1.653 . S
C1779 C417 1.646 . S
C1783 C349 1.660 . S
C1797 C451 1.650 . S
C1801 C383 1.660 . S
C1815 C553 1.659 . S
C1819 C757 1.655 . S
C1833 C791 1.659 . S
C1837 C587 1.654 . S
C1851 C689 1.660 . S
C1855 C621 1.648 . S
C1869 C723 1.641 . S
C1873 C655 1.654 . S
C1887 C1029 1.656 . S
C1891 C825 1.642 . S
C1905 C859 1.640 . S
C1909 C1063 1.649 . S
C1923 C961 1.653 . S
C1927 C893 1.640 . S
C1941 C995 1.660 . S
C1945 C927 1.653 . S
C1959 C33 1.569 . S
C1963 C923 1.565 . S
C1977 C277 1.570 . S
C1981 C67 1.569 . S
C1995 C855 1.570 . S
C1999 C101 1.567 . S
C2013 C135 1.566 . S
C2017 C345 1.567 . S
C2031 C169 1.568 . S
C2035 C991 1.570 . S
C2049 C203 1.571 . S
C2053 C481 1.566 . S
C2067 C237 1.566 . S
C2071 C1059 1.568 . S
C2085 C413 1.569 . S
C2089 C271 1.566 . S
C2103 C651 1.567 . S
C2107 C305 1.571 . S
C2121 C339 1.570 . S
C2125 C5 1.570 . S
C2139 C373 1.568 . S
C2143 C583 1.565 . S
C2157 C73 1.569 . S
C2161 C407 1.571 . S
C2175 C719 1.568 . S
C2179 C441 1.566 . S
C2193 C475 1.566 . S
C2197 C209 1.569 . S
C2211 C509 1.567 . S
C2215 C787 1.566 . S
C2229 C141 1.565 . S
C2233 C543 1.568 . S
C2247 C379 1.570 . S
C2251 C577 1.569 . S
C2265 C821 1.568 . S
C2269 C611 1.571 . S
C2283 C645 1.566 . S
C2287 C311 1.568 . S
C2301 C679 1.567 . S
C2305 C889 1.565 . S
C2319 C447 1.565 . S
C2323 C713 1.567 . S
C2337 C747 1.571 . S
C2341 C1025 1.568 . S
C2355 C515 1.565 . S
C2359 C781 1.567 . S
C2373 C957 1.565 . S
C2377 C815 1.568 . S
C2391 C107 1.567 . S
C2395 C849 1.571 . S
C2409 C883 1.571 . S
C2413 C549 1.567 . S
C2427 C39 1.566 . S
C2431 C917 1.566 . S
C2445 C617 1.566 . S
C2449 C951 1.567 . S
C2463 C175 1.567 . S
C2467 C985 1.566 . S
C2481 C1019 1.566 . S
C2485 C753 1.568 . S
C2499 C1053 1.571 . S
C2503 C243 1.569 . S
C2517 C1087 1.571 . S
C2521 C685 1.568 . S
