# Generated by pormake.
# Topology umf, (4)-cn, num edge types: 1
# Building blocks:
#     Node 0, Type 0, BuildingBlock: QUQFOY_clean_sbu_1, # of connection points: 4
#     Node 1, Type 0, BuildingBlock: QUQFOY_clean_sbu_1, # of connection points: 4
#     Node 2, Type 0, BuildingBlock: QUQFOY_clean_sbu_1, # of connection points: 4
#     Node 3, Type 0, BuildingBlock: QUQFOY_clean_sbu_1, # of connection points: 4
#     Node 4, Type 0, BuildingBlock: QUQFOY_clean_sbu_1, # of connection points: 4
#     Node 5, Type 0, BuildingBlock: QUQFOY_clean_sbu_1, # of connection points: 4
#     Node 6, Type 0, BuildingBlock: QUQFOY_clean_sbu_1, # of connection points: 4
#     Node 7, Type 0, BuildingBlock: QUQFOY_clean_sbu_1, # of connection points: 4
#     Edge 8, Type (0, 0), BuildingBlock: CIFDUS_clean_linker_0, # of connection points: 2
#     Edge 9, Type (0, 0), BuildingBlock: CIFDUS_clean_linker_0, # of connection points: 2
#     Edge 10, Type (0, 0), BuildingBlock: CIFDUS_clean_linker_0, # of connection points: 2
#     Edge 11, Type (0, 0), BuildingBlock: CIFDUS_clean_linker_0, # of connection points: 2
#     Edge 12, Type (0, 0), BuildingBlock: CIFDUS_clean_linker_0, # of connection points: 2
#     Edge 13, Type (0, 0), BuildingBlock: CIFDUS_clean_linker_0, # of connection points: 2
#     Edge 14, Type (0, 0), BuildingBlock: CIFDUS_clean_linker_0, # of connection points: 2
#     Edge 15, Type (0, 0), BuildingBlock: CIFDUS_clean_linker_0, # of connection points: 2
#     Edge 16, Type (0, 0), BuildingBlock: CIFDUS_clean_linker_0, # of connection points: 2
#     Edge 17, Type (0, 0), BuildingBlock: CIFDUS_clean_linker_0, # of connection points: 2
#     Edge 18, Type (0, 0), BuildingBlock: CIFDUS_clean_linker_0, # of connection points: 2
#     Edge 19, Type (0, 0), BuildingBlock: CIFDUS_clean_linker_0, # of connection points: 2
#     Edge 20, Type (0, 0), BuildingBlock: CIFDUS_clean_linker_0, # of connection points: 2
#     Edge 21, Type (0, 0), BuildingBlock: CIFDUS_clean_linker_0, # of connection points: 2
#     Edge 22, Type (0, 0), BuildingBlock: CIFDUS_clean_linker_0, # of connection points: 2
#     Edge 23, Type (0, 0), BuildingBlock: CIFDUS_clean_linker_0, # of connection points: 2
# Relax obj value: 0.061
# Max RMSD: 0.223
# Mean RMSD: 0.223
data_MOF--net-umf--node1-QUQFOY_clean_sbu_1--edge1-CIFDUS_clean_linker_0
_symmetry_space_group_name_H-M    P1
_symmetry_Int_Tables_number       1
_symmetry_cell_setting            triclinic
loop_
_symmetry_equiv_pos_as_xyz
'x, y, z'
_cell_length_a     25.794642
_cell_length_b     25.814369
_cell_length_c     46.206285
_cell_angle_alpha  89.82179
_cell_angle_beta   90.234863
_cell_angle_gamma 88.639607
loop_
_atom_site_label
_atom_site_type_symbol
_atom_site_fract_x
_atom_site_fract_y
_atom_site_fract_z
_atom_type_partial_charge
O0 O 0.01251 0.25395 0.1386 0.0
Cd1 Cd 0.01477 0.25779 0.18287 0.0
Cd2 Cd 0.11162 0.21718 0.17474 0.0
O3 O 0.09738 0.24558 0.13268 0.0
O4 O 0.97532 0.32181 0.19698 0.0
O5 O 0.06063 0.31358 0.19633 0.0
C6 C 0.02011 0.3423 0.20091 0.0
C7 C 0.17907 0.23088 0.20787 0.0
C8 C 0.05184 0.25293 0.12208 0.0
C9 C 0.03205 0.14727 0.19963 0.0
O10 O 0.07383 0.15103 0.18541 0.0
O11 O 0.00362 0.18747 0.20451 0.0
O12 O 0.1867 0.20197 0.18541 0.0
O13 O 0.1355 0.25591 0.20953 0.0
O14 O 0.84458 0.06585 0.68501 0.0
Cd15 Cd 0.77598 0.10356 0.67605 0.0
Cd16 Cd 0.7403 0.00471 0.68039 0.0
O17 O 0.81082 0.99438 0.70259 0.0
O18 O 0.77983 0.17653 0.69274 0.0
O19 O 0.73546 0.11355 0.71221 0.0
C20 C 0.75232 0.15978 0.71402 0.0
C21 C 0.65488 0.00595 0.69748 0.0
C22 C 0.84987 0.02301 0.69844 0.0
C23 C 0.74347 0.04856 0.6214 0.0
O24 O 0.74587 0.00727 0.63647 0.0
O25 O 0.74718 0.09289 0.63359 0.0
O26 O 0.67913 0.96213 0.69341 0.0
O27 O 0.67997 0.04749 0.69297 0.0
O28 O 1.0013 0.74066 0.13944 0.0
Cd29 Cd 0.00438 0.73544 0.18362 0.0
Cd30 Cd 0.90502 0.77653 0.17797 0.0
O31 O 0.916 0.75015 0.13529 0.0
O32 O 0.04724 0.67182 0.19618 0.0
O33 O 0.96199 0.67796 0.19823 0.0
C34 C 0.00355 0.65016 0.20151 0.0
C35 C 0.8441 0.75721 0.21384 0.0
C36 C 0.96066 0.74289 0.12375 0.0
C37 C 0.98697 0.84591 0.20118 0.0
O38 O 0.9436 0.84227 0.1883 0.0
O39 O 0.01627 0.80581 0.20499 0.0
O40 O 0.83132 0.78783 0.19262 0.0
O41 O 0.8888 0.73432 0.21275 0.0
O42 O 0.15678 0.93285 0.68251 0.0
Cd43 Cd 0.22609 0.89666 0.67494 0.0
Cd44 Cd 0.26202 0.99287 0.68037 0.0
O45 O 0.19182 1.00087 0.70315 0.0
O46 O 0.22505 0.82394 0.69236 0.0
O47 O 0.26357 0.89015 0.71253 0.0
C48 C 0.24968 0.84283 0.71425 0.0
C49 C 0.34855 0.98838 0.69629 0.0
C50 C 0.15216 0.97379 0.69754 0.0
C51 C 0.25867 0.95441 0.62119 0.0
O52 O 0.25462 0.99493 0.63665 0.0
O53 O 0.25652 0.90945 0.63299 0.0
O54 O 0.32418 0.03273 0.69479 0.0
O55 O 0.32324 0.94784 0.68973 0.0
O56 O 1.00209 0.75031 0.9411 0.0
Cd57 Cd 0.00345 0.74273 0.89737 0.0
Cd58 Cd 0.10098 0.77757 0.90275 0.0
O59 O 0.0877 0.74816 0.94494 0.0
O60 O 0.96319 0.68069 0.88319 0.0
O61 O 0.04822 0.68168 0.88802 0.0
C62 C 0.00757 0.65641 0.88158 0.0
C63 C 0.15626 0.75311 0.86449 0.0
C64 C 0.04275 0.74638 0.95666 0.0
C65 C 0.02391 0.85195 0.87921 0.0
O66 O 0.06525 0.84693 0.89408 0.0
O67 O 0.99593 0.81273 0.87417 0.0
O68 O 0.17429 0.77856 0.88628 0.0
O69 O 0.10899 0.73893 0.86577 0.0
O70 O 0.15846 0.06579 0.39195 0.0
Cd71 Cd 0.22784 0.09899 0.40132 0.0
Cd72 Cd 0.262 1.00093 0.39412 0.0
O73 O 0.19017 0.99303 0.37339 0.0
O74 O 0.21923 0.17394 0.389 0.0
O75 O 0.26776 0.11629 0.36576 0.0
C76 C 0.2469 0.16203 0.36659 0.0
C77 C 0.34643 0.99487 0.37551 0.0
C78 C 0.15173 0.02379 0.37834 0.0
C79 C 0.2611 0.04029 0.45452 0.0
O80 O 0.25939 1.00047 0.43845 0.0
O81 O 0.25626 0.08562 0.4434 0.0
O82 O 0.3207 0.95346 0.38071 0.0
O83 O 0.32282 0.03883 0.37909 0.0
O84 O 1.00031 0.25489 0.94023 0.0
Cd85 Cd 0.99758 0.26321 0.89655 0.0
Cd86 Cd 0.90083 0.22719 0.9026 0.0
O87 O 0.9149 0.25594 0.9448 0.0
O88 O 0.03766 0.32545 0.88242 0.0
O89 O 0.95272 0.32458 0.88739 0.0
C90 C 0.99331 0.34987 0.88094 0.0
C91 C 0.84551 0.25162 0.86406 0.0
C92 C 0.96029 0.25791 0.95615 0.0
C93 C 0.9778 0.15382 0.87877 0.0
O94 O 0.93699 0.15831 0.89393 0.0
O95 O 0.00512 0.19339 0.8734 0.0
O96 O 0.8275 0.22607 0.88583 0.0
O97 O 0.8927 0.26602 0.86558 0.0
O98 O 0.84049 0.95092 0.39032 0.0
Cd99 Cd 0.77125 0.91728 0.39898 0.0
Cd100 Cd 0.73678 0.01756 0.39406 0.0
O101 O 0.80859 0.02537 0.3734 0.0
O102 O 0.77513 0.8445 0.38231 0.0
O103 O 0.72912 0.9092 0.36324 0.0
C104 C 0.74689 0.86243 0.36116 0.0
C105 C 0.65162 0.02808 0.37619 0.0
C106 C 0.84702 0.99401 0.37764 0.0
C107 C 0.73934 0.97229 0.45346 0.0
O108 O 0.7408 0.01334 0.43824 0.0
O109 O 0.74366 0.92779 0.44143 0.0
O110 O 0.67872 0.06816 0.38233 0.0
O111 O 0.6741 0.98331 0.37854 0.0
H112 H 0.94369 0.41556 0.21037 0.0
H113 H 0.10996 0.39516 0.20534 0.0
H114 H 0.12035 0.48858 0.20774 0.0
H115 H 0.08187 0.57687 0.206 0.0
H116 H 0.91561 0.59698 0.21164 0.0
H117 H 0.90593 0.50359 0.2146 0.0
C118 C 0.98222 0.43149 0.21029 0.0
C119 C 0.02581 0.39824 0.2073 0.0
C120 C 0.98808 0.48554 0.21154 0.0
C121 C 0.07553 0.41969 0.20742 0.0
C122 C 0.08162 0.47329 0.2087 0.0
C123 C 0.04363 0.56086 0.20839 0.0
C124 C 0.99962 0.59406 0.2082 0.0
C125 C 0.03812 0.50673 0.20996 0.0
C126 C 0.9503 0.5725 0.21146 0.0
C127 C 0.94459 0.51892 0.21309 0.0
H128 H 0.41762 0.0653 0.70593 0.0
H129 H 0.40591 0.89901 0.70102 0.0
H130 H 0.49979 0.88898 0.70394 0.0
H131 H 0.58591 0.92765 0.70237 0.0
H132 H 0.59771 0.09389 0.70753 0.0
H133 H 0.5038 0.10337 0.71041 0.0
C134 C 0.43558 0.02688 0.70599 0.0
C135 C 0.40472 0.98317 0.70279 0.0
C136 C 0.48992 0.0212 0.70748 0.0
C137 C 0.42867 0.93354 0.70311 0.0
C138 C 0.48251 0.92763 0.70473 0.0
C139 C 0.56798 0.96583 0.70465 0.0
C140 C 0.59885 0.00989 0.70427 0.0
C141 C 0.51364 0.97123 0.70607 0.0
C142 C 0.57492 0.05917 0.70742 0.0
C143 C 0.52107 0.06477 0.70901 0.0
H144 H 0.07032 0.41984 0.87405 0.0
H145 H 0.90385 0.4063 0.87372 0.0
H146 H 0.89304 0.50008 0.87102 0.0
H147 H 0.93056 0.58659 0.87414 0.0
H148 H 0.09703 0.60014 0.87452 0.0
H149 H 0.10784 0.50643 0.87146 0.0
C150 C 0.03174 0.43738 0.87288 0.0
C151 C 0.98811 0.40603 0.87453 0.0
C152 C 0.0256 0.49166 0.87159 0.0
C153 C 0.93829 0.42946 0.87284 0.0
C154 C 0.93193 0.48323 0.87134 0.0
C155 C 0.96914 0.56908 0.87306 0.0
C156 C 0.01277 0.60039 0.87501 0.0
C157 C 0.97527 0.51484 0.87155 0.0
C158 C 0.06259 0.57701 0.87342 0.0
C159 C 0.06895 0.52327 0.8717 0.0
H160 H 0.41118 0.07605 0.37033 0.0
H161 H 0.40866 0.90906 0.36638 0.0
H162 H 0.50321 0.90544 0.36279 0.0
H163 H 0.58651 0.94897 0.36599 0.0
H164 H 0.5894 0.11563 0.37266 0.0
H165 H 0.49466 0.12009 0.36961 0.0
C166 C 0.43116 0.03882 0.36823 0.0
C167 C 0.40273 0.9928 0.36882 0.0
C168 C 0.48565 0.03698 0.36688 0.0
C169 C 0.42944 0.94502 0.36607 0.0
C170 C 0.48358 0.94294 0.36412 0.0
C171 C 0.56658 0.98643 0.36635 0.0
C172 C 0.59517 0.03195 0.36977 0.0
C173 C 0.5121 0.98857 0.3653 0.0
C174 C 0.5685 0.08003 0.37011 0.0
C175 C 0.51426 0.08255 0.3685 0.0
H176 H 0.05183 0.26042 0.9854 0.0
H177 H 0.88621 0.26342 0.99886 0.0
H178 H 0.90029 0.26454 0.0513 0.0
H179 H 0.9596 0.26105 0.09314 0.0
H180 H 0.12515 0.25582 0.07928 0.0
H181 H 0.11087 0.25936 1.02699 0.0
C182 C 0.01859 0.26158 0.99969 0.0
C183 C 0.96788 0.26166 0.98804 0.0
C184 C 0.027 0.26166 1.02975 0.0
C185 C 0.92557 0.26326 1.0071 0.0
C186 C 0.93365 0.26382 1.03712 0.0
C187 C 0.99271 0.26099 0.07875 0.0
C188 C 0.04353 0.25803 0.09029 0.0
C189 C 0.9842 0.26248 0.04866 0.0
C190 C 0.08572 0.25797 0.07115 0.0
C191 C 0.07755 0.25994 0.0412 0.0
H192 H 0.73725 0.95973 0.59011 0.0
H193 H 0.73826 0.12619 0.5805 0.0
H194 H 0.73444 0.11686 0.52785 0.0
H195 H 0.7345 0.06153 0.48473 0.0
H196 H 0.73565 0.89503 0.49442 0.0
H197 H 0.73467 0.90452 0.54707 0.0
C198 C 0.73638 0.99416 0.57661 0.0
C199 C 0.73824 0.04373 0.58942 0.0
C200 C 0.73469 0.98848 0.54638 0.0
C201 C 0.73697 0.08765 0.57137 0.0
C202 C 0.73485 0.0823 0.54123 0.0
C203 C 0.73422 0.02715 0.49827 0.0
C204 C 0.7353 0.97749 0.48546 0.0
C205 C 0.73424 0.0329 0.52852 0.0
C206 C 0.73489 0.93363 0.50354 0.0
C207 C 0.73442 0.93907 0.53368 0.0
H208 H 0.05075 0.73429 0.09338 0.0
H209 H 0.88455 0.74476 0.08193 0.0
H210 H 0.89574 0.74464 1.02938 0.0
H211 H 0.95253 0.74498 0.98696 0.0
H212 H 0.1188 0.73667 0.99836 0.0
H213 H 0.10753 0.7324 0.05088 0.0
C214 C 0.01678 0.73624 0.07949 0.0
C215 C 0.96673 0.73963 0.09176 0.0
C216 C 0.02354 0.73674 0.0493 0.0
C217 C 0.92343 0.74216 0.07322 0.0
C218 C 0.92985 0.74218 0.04314 0.0
C219 C 0.98649 0.74199 1.00083 0.0
C220 C 0.0366 0.7413 0.98857 0.0
C221 C 0.97971 0.74003 1.03098 0.0
C222 C 0.07987 0.73737 1.00707 0.0
C223 C 0.07341 0.73497 1.03713 0.0
H224 H 0.26642 0.94899 0.48436 0.0
H225 H 0.26605 0.11483 0.49658 0.0
H226 H 0.26784 0.10226 0.54903 0.0
H227 H 0.2654 0.04472 0.59118 0.0
H228 H 0.26371 0.87889 0.57929 0.0
H229 H 0.26711 0.89113 0.52676 0.0
C230 C 0.26708 0.98253 0.49842 0.0
C231 C 0.2659 0.03293 0.48639 0.0
C232 C 0.26753 0.97502 0.52859 0.0
C233 C 0.26683 0.07569 0.50511 0.0
C234 C 0.26776 0.0685 0.53514 0.0
C235 C 0.26601 0.01104 0.57721 0.0
C236 C 0.26403 0.96082 0.58932 0.0
C237 C 0.26746 0.0184 0.54709 0.0
C238 C 0.2651 0.91791 0.57068 0.0
C239 C 0.26696 0.92492 0.54062 0.0
H240 H 0.16928 0.28442 0.25817 0.0
H241 H 0.26503 0.16804 0.21609 0.0
H242 H 0.30338 0.14332 0.26269 0.0
H243 H 0.296 0.14268 0.31565 0.0
H244 H 0.19505 0.2546 0.35776 0.0
H245 H 0.17335 0.29376 0.31095 0.0
C246 C 0.1996 0.2546 0.25903 0.0
C247 C 0.21346 0.22739 0.23368 0.0
C248 C 0.22 0.23921 0.28605 0.0
C249 C 0.25327 0.18935 0.23522 0.0
C250 C 0.27492 0.17488 0.26195 0.0
C251 C 0.27034 0.17655 0.31473 0.0
C252 C 0.24636 0.19498 0.3402 0.0
C253 C 0.25651 0.19765 0.28761 0.0
C254 C 0.21371 0.23927 0.33855 0.0
C255 C 0.20097 0.26147 0.31171 0.0
H256 H 0.7586 0.20188 0.84617 0.0
H257 H 0.87118 0.31235 0.81839 0.0
H258 H 0.845 0.30078 0.7682 0.0
H259 H 0.80342 0.24579 0.73184 0.0
H260 H 0.69121 0.13491 0.75961 0.0
H261 H 0.70305 0.16099 0.80973 0.0
C262 C 0.77612 0.22475 0.82926 0.0
C263 C 0.81766 0.25688 0.83601 0.0
C264 C 0.76158 0.21718 0.80018 0.0
C265 C 0.8397 0.28654 0.81378 0.0
C266 C 0.82494 0.2798 0.78496 0.0
C267 C 0.78027 0.2286 0.74872 0.0
C268 C 0.74754 0.18755 0.74199 0.0
C269 C 0.78795 0.2431 0.77776 0.0
C270 C 0.71749 0.166 0.76419 0.0
C271 C 0.72437 0.1807 0.79298 0.0
H272 H 0.79395 0.771 0.34492 0.0
H273 H 0.69125 0.89339 0.31368 0.0
H274 H 0.70493 0.86504 0.26406 0.0
H275 H 0.75986 0.8171 0.22933 0.0
H276 H 0.86269 0.69483 0.26056 0.0
H277 H 0.83421 0.7107 0.30997 0.0
C278 C 0.77327 0.79044 0.32735 0.0
C279 C 0.74273 0.83507 0.33305 0.0
C280 C 0.78194 0.77445 0.29862 0.0
C281 C 0.71577 0.85942 0.30997 0.0
C282 C 0.72374 0.8434 0.28146 0.0
C283 C 0.77475 0.79277 0.2468 0.0
C284 C 0.81432 0.75577 0.24125 0.0
C285 C 0.75888 0.8027 0.27542 0.0
C286 C 0.8328 0.72427 0.26419 0.0
C287 C 0.81675 0.73347 0.29259 0.0
H288 H 0.19956 0.75656 0.7325 0.0
H289 H 0.30994 0.86952 0.75999 0.0
H290 H 0.29802 0.84424 0.81029 0.0
H291 H 0.24274 0.80334 0.84672 0.0
H292 H 0.13138 0.69135 0.81921 0.0
H293 H 0.15802 0.70202 0.7691 0.0
C294 C 0.22233 0.77435 0.74939 0.0
C295 C 0.25458 0.81569 0.7425 0.0
C296 C 0.21446 0.76041 0.77851 0.0
C297 C 0.28406 0.83815 0.7647 0.0
C298 C 0.27712 0.82391 0.79358 0.0
C299 C 0.2256 0.77996 0.8299 0.0
C300 C 0.1843 0.74759 0.83667 0.0
C301 C 0.24032 0.7871 0.80086 0.0
C302 C 0.16269 0.71732 0.81457 0.0
C303 C 0.17772 0.72355 0.7858 0.0
H304 H 0.09337 0.06167 0.2078 0.0
H305 H 0.93348 0.11452 0.20985 0.0
H306 H 0.90567 0.02481 0.2142 0.0
H307 H 0.92653 0.93151 0.21082 0.0
H308 H 0.08643 0.8787 0.20844 0.0
H309 H 0.1146 0.96843 0.21128 0.0
C310 C 0.05242 0.05364 0.20965 0.0
C311 C 0.01545 0.0947 0.20802 0.0
C312 C 0.03679 1.00201 0.21186 0.0
C313 C 0.96267 0.08371 0.21096 0.0
C314 C 0.94678 0.03237 0.21325 0.0
C315 C 0.96761 0.93955 0.2114 0.0
C316 C 0.00437 0.89847 0.20895 0.0
C317 C 0.98343 0.99121 0.21272 0.0
C318 C 0.05737 0.9095 0.21022 0.0
C319 C 0.07346 0.96086 0.21164 0.0
H320 H 0.069 0.91379 0.7062 0.0
H321 H 0.11667 0.07282 0.70768 0.0
H322 H 0.02602 0.10206 0.71185 0.0
H323 H 0.93333 0.0825 0.70813 0.0
H324 H 0.8858 0.92339 0.70645 0.0
H325 H 0.97649 0.89396 0.70978 0.0
C326 C 0.0596 0.95485 0.70793 0.0
C327 C 0.09936 0.9912 0.70613 0.0
C328 C 0.00749 0.97127 0.71004 0.0
C329 C 0.08678 0.04414 0.70892 0.0
C330 C 0.03492 0.06084 0.7111 0.0
C331 C 0.94277 0.04135 0.70898 0.0
C332 C 0.90296 0.00512 0.70653 0.0
C333 C 0.99495 0.0248 0.71061 0.0
C334 C 0.91567 0.95201 0.70819 0.0
C335 C 0.96756 0.9352 0.7099 0.0
H336 H 0.91719 0.07159 0.86887 0.0
H337 H 0.07688 0.11757 0.86954 0.0
H338 H 0.1054 0.02669 0.86583 0.0
H339 H 0.08471 0.93436 0.86976 0.0
H340 H 0.92497 0.88846 0.8693 0.0
H341 H 0.89656 0.97931 0.86509 0.0
C342 C 0.95825 0.06176 0.86766 0.0
C343 C 0.99497 0.1011 0.86998 0.0
C344 C 0.97424 0.00952 0.86584 0.0
C345 C 0.04793 0.088 0.86787 0.0
C346 C 0.06421 0.03601 0.86597 0.0
C347 C 0.04367 0.9442 0.86822 0.0
C348 C 0.00691 0.90485 0.87036 0.0
C349 C 0.02771 0.99645 0.86608 0.0
C350 C 0.95397 0.91801 0.8678 0.0
C351 C 0.93773 0.96998 0.8656 0.0
H352 H 0.92995 0.92925 0.36901 0.0
H353 H 0.88519 0.09135 0.37046 0.0
H354 H 0.97641 0.11485 0.36763 0.0
H355 H 0.06874 0.08909 0.3708 0.0
H356 H 0.11353 0.92701 0.36927 0.0
H357 H 0.02228 0.90372 0.36568 0.0
C358 C 0.94008 0.96978 0.36828 0.0
C359 C 0.90079 0.00854 0.37039 0.0
C360 C 0.99258 0.98294 0.36686 0.0
C361 C 0.91455 0.06079 0.36893 0.0
C362 C 0.96676 0.07422 0.3675 0.0
C363 C 0.0586 0.04864 0.36926 0.0
C364 C 0.09789 0.00976 0.37074 0.0
C365 C 0.0061 0.0356 0.36739 0.0
C366 C 0.08414 0.95765 0.36824 0.0
C367 C 0.03192 0.94433 0.36637 0.0
loop_
_geom_bond_atom_site_label_1
_geom_bond_atom_site_label_2
_geom_bond_distance
_geom_bond_site_symmetry_2
_ccdc_geom_bond_type
O0 Cd1 2.223 . S
O0 C8 1.315 . S
Cd1 O0 2.223 . S
Cd1 O4 2.297 1_455 S
Cd1 O5 2.439 . S
Cd1 O11 2.240 . S
Cd2 O3 2.240 . S
Cd2 O10 2.223 . S
Cd2 O12 2.297 . S
Cd2 O13 2.439 . S
O3 Cd2 2.240 . S
O3 C8 1.279 . S
O4 Cd1 2.297 1_655 S
O4 C6 1.247 1_655 S
O5 Cd1 2.439 . S
O5 C6 1.208 . S
C6 O4 1.247 1_455 S
C6 O5 1.208 . S
C7 O12 1.247 . S
C7 O13 1.208 . S
C8 O0 1.315 . S
C8 O3 1.279 . S
C9 O10 1.315 . S
C9 O11 1.279 . S
O10 Cd2 2.223 . S
O10 C9 1.315 . S
O11 Cd1 2.240 . S
O11 C9 1.279 . S
O12 Cd2 2.297 . S
O12 C7 1.247 . S
O13 Cd2 2.439 . S
O13 C7 1.208 . S
O14 Cd15 2.223 . S
O14 C22 1.315 . S
Cd15 O14 2.223 . S
Cd15 O18 2.297 . S
Cd15 O19 2.439 . S
Cd15 O25 2.240 . S
Cd16 O17 2.240 . S
Cd16 O24 2.223 . S
Cd16 O26 2.297 1_545 S
Cd16 O27 2.439 . S
O17 Cd16 2.240 . S
O17 C22 1.279 . S
O18 Cd15 2.297 . S
O18 C20 1.247 . S
O19 Cd15 2.439 . S
O19 C20 1.208 . S
C20 O18 1.247 . S
C20 O19 1.208 . S
C21 O26 1.247 1_545 S
C21 O27 1.208 . S
C22 O14 1.315 . S
C22 O17 1.279 . S
C23 O24 1.315 . S
C23 O25 1.279 . S
O24 Cd16 2.223 . S
O24 C23 1.315 . S
O25 Cd15 2.240 . S
O25 C23 1.279 . S
O26 Cd16 2.297 1_565 S
O26 C21 1.247 1_565 S
O27 Cd16 2.439 . S
O27 C21 1.208 . S
O28 Cd29 2.223 . S
O28 C36 1.315 . S
Cd29 O28 2.223 . S
Cd29 O32 2.297 1_655 S
Cd29 O33 2.439 . S
Cd29 O39 2.240 . S
Cd30 O31 2.240 . S
Cd30 O38 2.223 . S
Cd30 O40 2.297 . S
Cd30 O41 2.439 . S
O31 Cd30 2.240 . S
O31 C36 1.279 . S
O32 Cd29 2.297 1_455 S
O32 C34 1.247 1_455 S
O33 Cd29 2.439 . S
O33 C34 1.208 . S
C34 O32 1.247 1_655 S
C34 O33 1.208 . S
C35 O40 1.247 . S
C35 O41 1.208 . S
C36 O28 1.315 . S
C36 O31 1.279 . S
C37 O38 1.315 . S
C37 O39 1.279 . S
O38 Cd30 2.223 . S
O38 C37 1.315 . S
O39 Cd29 2.240 . S
O39 C37 1.279 . S
O40 Cd30 2.297 . S
O40 C35 1.247 . S
O41 Cd30 2.439 . S
O41 C35 1.208 . S
O42 Cd43 2.223 . S
O42 C50 1.315 . S
Cd43 O42 2.223 . S
Cd43 O46 2.297 . S
Cd43 O47 2.439 . S
Cd43 O53 2.240 . S
Cd44 O45 2.240 . S
Cd44 O52 2.223 . S
Cd44 O54 2.297 1_565 S
Cd44 O55 2.439 . S
O45 Cd44 2.240 . S
O45 C50 1.279 . S
O46 Cd43 2.297 . S
O46 C48 1.247 . S
O47 Cd43 2.439 . S
O47 C48 1.208 . S
C48 O46 1.247 . S
C48 O47 1.208 . S
C49 O54 1.247 1_565 S
C49 O55 1.208 . S
C50 O42 1.315 . S
C50 O45 1.279 . S
C51 O52 1.315 . S
C51 O53 1.279 . S
O52 Cd44 2.223 . S
O52 C51 1.315 . S
O53 Cd43 2.240 . S
O53 C51 1.279 . S
O54 Cd44 2.297 1_545 S
O54 C49 1.247 1_545 S
O55 Cd44 2.439 . S
O55 C49 1.208 . S
O56 Cd57 2.223 . S
O56 C64 1.315 . S
Cd57 O56 2.223 . S
Cd57 O60 2.297 1_455 S
Cd57 O61 2.439 . S
Cd57 O67 2.240 . S
Cd58 O59 2.240 . S
Cd58 O66 2.223 . S
Cd58 O68 2.297 . S
Cd58 O69 2.439 . S
O59 Cd58 2.240 . S
O59 C64 1.279 . S
O60 Cd57 2.297 1_655 S
O60 C62 1.247 1_655 S
O61 Cd57 2.439 . S
O61 C62 1.208 . S
C62 O60 1.247 1_455 S
C62 O61 1.208 . S
C63 O68 1.247 . S
C63 O69 1.208 . S
C64 O56 1.315 . S
C64 O59 1.279 . S
C65 O66 1.315 . S
C65 O67 1.279 . S
O66 Cd58 2.223 . S
O66 C65 1.315 . S
O67 Cd57 2.240 . S
O67 C65 1.279 . S
O68 Cd58 2.297 . S
O68 C63 1.247 . S
O69 Cd58 2.439 . S
O69 C63 1.208 . S
O70 Cd71 2.223 . S
O70 C78 1.315 . S
Cd71 O70 2.223 . S
Cd71 O74 2.297 . S
Cd71 O75 2.439 . S
Cd71 O81 2.240 . S
Cd72 O73 2.240 . S
Cd72 O80 2.223 . S
Cd72 O82 2.297 1_545 S
Cd72 O83 2.439 . S
O73 Cd72 2.240 . S
O73 C78 1.279 . S
O74 Cd71 2.297 . S
O74 C76 1.247 . S
O75 Cd71 2.439 . S
O75 C76 1.208 . S
C76 O74 1.247 . S
C76 O75 1.208 . S
C77 O82 1.247 1_545 S
C77 O83 1.208 . S
C78 O70 1.315 . S
C78 O73 1.279 . S
C79 O80 1.315 . S
C79 O81 1.279 . S
O80 Cd72 2.223 . S
O80 C79 1.315 . S
O81 Cd71 2.240 . S
O81 C79 1.279 . S
O82 Cd72 2.297 1_565 S
O82 C77 1.247 1_565 S
O83 Cd72 2.439 . S
O83 C77 1.208 . S
O84 Cd85 2.223 . S
O84 C92 1.315 . S
Cd85 O84 2.223 . S
Cd85 O88 2.297 1_655 S
Cd85 O89 2.439 . S
Cd85 O95 2.240 . S
Cd86 O87 2.240 . S
Cd86 O94 2.223 . S
Cd86 O96 2.297 . S
Cd86 O97 2.439 . S
O87 Cd86 2.240 . S
O87 C92 1.279 . S
O88 Cd85 2.297 1_455 S
O88 C90 1.247 1_455 S
O89 Cd85 2.439 . S
O89 C90 1.208 . S
C90 O88 1.247 1_655 S
C90 O89 1.208 . S
C91 O96 1.247 . S
C91 O97 1.208 . S
C92 O84 1.315 . S
C92 O87 1.279 . S
C93 O94 1.315 . S
C93 O95 1.279 . S
O94 Cd86 2.223 . S
O94 C93 1.315 . S
O95 Cd85 2.240 . S
O95 C93 1.279 . S
O96 Cd86 2.297 . S
O96 C91 1.247 . S
O97 Cd86 2.439 . S
O97 C91 1.208 . S
O98 Cd99 2.223 . S
O98 C106 1.315 . S
Cd99 O98 2.223 . S
Cd99 O102 2.297 . S
Cd99 O103 2.439 . S
Cd99 O109 2.240 . S
Cd100 O101 2.240 . S
Cd100 O108 2.223 . S
Cd100 O110 2.297 1_565 S
Cd100 O111 2.439 . S
O101 Cd100 2.240 . S
O101 C106 1.279 . S
O102 Cd99 2.297 . S
O102 C104 1.247 . S
O103 Cd99 2.439 . S
O103 C104 1.208 . S
C104 O102 1.247 . S
C104 O103 1.208 . S
C105 O110 1.247 1_565 S
C105 O111 1.208 . S
C106 O98 1.315 . S
C106 O101 1.279 . S
C107 O108 1.315 . S
C107 O109 1.279 . S
O108 Cd100 2.223 . S
O108 C107 1.315 . S
O109 Cd99 2.240 . S
O109 C107 1.279 . S
O110 Cd100 2.297 1_545 S
O110 C105 1.247 1_545 S
O111 Cd100 2.439 . S
O111 C105 1.208 . S
H112 C118 0.938 . S
H113 C121 0.930 . S
H114 C122 0.930 . S
H115 C123 0.938 . S
H116 C126 0.930 . S
H117 C127 0.930 . S
C118 H112 0.938 . S
C118 C119 1.342 1_655 S
C118 C120 1.419 . S
C119 C118 1.342 1_455 S
C119 C121 1.419 . S
C120 C118 1.419 . S
C120 C125 1.425 1_655 S
C120 C127 1.409 . S
C121 H113 0.930 . S
C121 C119 1.419 . S
C121 C122 1.362 . S
C122 H114 0.930 . S
C122 C121 1.362 . S
C122 C125 1.409 . S
C123 H115 0.938 . S
C123 C124 1.342 1_455 S
C123 C125 1.419 . S
C124 C123 1.342 1_655 S
C124 C126 1.419 . S
C125 C120 1.425 1_455 S
C125 C122 1.409 . S
C125 C123 1.419 . S
C126 H116 0.930 . S
C126 C124 1.419 . S
C126 C127 1.362 . S
C127 H117 0.930 . S
C127 C120 1.409 . S
C127 C126 1.362 . S
H128 C134 0.930 . S
H129 C137 0.930 . S
H130 C138 0.930 . S
H131 C139 0.930 . S
H132 C142 0.930 . S
H133 C143 0.930 . S
C134 H128 0.930 . S
C134 C135 1.355 . S
C134 C136 1.416 . S
C135 C134 1.355 . S
C135 C137 1.419 . S
C136 C134 1.416 . S
C136 C141 1.425 1_565 S
C136 C143 1.408 1_565 S
C137 H129 0.930 . S
C137 C135 1.419 . S
C137 C138 1.362 . S
C138 H130 0.930 . S
C138 C137 1.362 . S
C138 C141 1.407 1_565 S
C139 H131 0.930 . S
C139 C140 1.355 . S
C139 C141 1.416 . S
C140 C139 1.355 . S
C140 C142 1.419 . S
C141 C136 1.425 1_545 S
C141 C138 1.407 1_545 S
C141 C139 1.416 . S
C142 H132 0.930 . S
C142 C140 1.419 . S
C142 C143 1.362 . S
C143 H133 0.930 . S
C143 C136 1.408 1_545 S
C143 C142 1.362 . S
H144 C150 0.930 . S
H145 C153 0.930 . S
H146 C154 0.930 . S
H147 C155 0.930 . S
H148 C158 0.930 . S
H149 C159 0.930 . S
C150 H144 0.930 . S
C150 C151 1.355 1_455 S
C150 C152 1.415 . S
C151 C150 1.355 1_655 S
C151 C153 1.419 . S
C152 C150 1.415 . S
C152 C157 1.425 1_455 S
C152 C159 1.409 . S
C153 H145 0.930 . S
C153 C151 1.419 . S
C153 C154 1.362 . S
C154 H146 0.930 . S
C154 C153 1.362 . S
C154 C157 1.409 . S
C155 H147 0.930 . S
C155 C156 1.355 1_655 S
C155 C157 1.415 . S
C156 C155 1.355 1_455 S
C156 C158 1.419 . S
C157 C152 1.425 1_655 S
C157 C154 1.409 . S
C157 C155 1.415 . S
C158 H148 0.930 . S
C158 C156 1.419 . S
C158 C159 1.362 . S
C159 H149 0.930 . S
C159 C152 1.409 . S
C159 C158 1.362 . S
H160 C166 0.930 . S
H161 C169 0.930 . S
H162 C170 0.930 . S
H163 C171 0.930 . S
H164 C174 0.930 . S
H165 C175 0.930 . S
C166 H160 0.930 . S
C166 C167 1.355 . S
C166 C168 1.415 . S
C167 C166 1.355 . S
C167 C169 1.419 1_545 S
C168 C166 1.415 . S
C168 C173 1.425 1_545 S
C168 C175 1.409 . S
C169 H161 0.930 . S
C169 C167 1.419 1_565 S
C169 C170 1.362 . S
C170 H162 0.930 . S
C170 C169 1.362 . S
C170 C173 1.409 . S
C171 H163 0.930 . S
C171 C172 1.355 . S
C171 C173 1.415 . S
C172 C171 1.355 . S
C172 C174 1.419 1_565 S
C173 C168 1.425 1_565 S
C173 C170 1.409 . S
C173 C171 1.415 . S
C174 H164 0.930 . S
C174 C172 1.419 1_545 S
C174 C175 1.362 . S
C175 H165 0.930 . S
C175 C168 1.409 . S
C175 C174 1.362 . S
H176 C182 0.930 . S
H177 C185 0.930 . S
H178 C186 0.930 . S
H179 C187 0.930 . S
H180 C190 0.930 . S
H181 C191 0.930 . S
C182 H176 0.930 . S
C182 C183 1.355 . S
C182 C184 1.415 1_655 S
C183 C182 1.355 . S
C183 C185 1.419 . S
C184 C182 1.415 1_455 S
C184 C189 1.425 1_456 S
C184 C191 1.409 . S
C185 H177 0.930 . S
C185 C183 1.419 . S
C185 C186 1.362 1_556 S
C186 H178 0.930 . S
C186 C185 1.362 1_554 S
C186 C189 1.409 . S
C187 H179 0.930 . S
C187 C188 1.355 . S
C187 C189 1.415 1_455 S
C188 C187 1.355 . S
C188 C190 1.419 . S
C189 C184 1.425 1_654 S
C189 C186 1.409 . S
C189 C187 1.415 1_655 S
C190 H180 0.930 . S
C190 C188 1.419 . S
C190 C191 1.362 1_554 S
C191 H181 0.930 . S
C191 C184 1.409 . S
C191 C190 1.362 1_556 S
H192 C198 0.930 . S
H193 C201 0.930 . S
H194 C202 0.930 . S
H195 C203 0.930 . S
H196 C206 0.930 . S
H197 C207 0.930 . S
C198 H192 0.930 . S
C198 C199 1.355 . S
C198 C200 1.415 1_545 S
C199 C198 1.355 . S
C199 C201 1.419 . S
C200 C198 1.415 1_565 S
C200 C205 1.425 1_565 S
C200 C207 1.409 . S
C201 H193 0.930 . S
C201 C199 1.419 . S
C201 C202 1.362 . S
C202 H194 0.930 . S
C202 C201 1.362 . S
C202 C205 1.409 . S
C203 H195 0.930 . S
C203 C204 1.355 . S
C203 C205 1.415 1_565 S
C204 C203 1.355 . S
C204 C206 1.419 . S
C205 C200 1.425 1_545 S
C205 C202 1.409 . S
C205 C203 1.415 1_545 S
C206 H196 0.930 . S
C206 C204 1.419 . S
C206 C207 1.362 . S
C207 H197 0.930 . S
C207 C200 1.409 . S
C207 C206 1.362 . S
H208 C214 0.930 . S
H209 C217 0.930 . S
H210 C218 0.930 . S
H211 C219 0.930 . S
H212 C222 0.930 . S
H213 C223 0.930 . S
C214 H208 0.930 . S
C214 C215 1.355 . S
C214 C216 1.415 1_554 S
C215 C214 1.355 . S
C215 C217 1.419 . S
C216 C214 1.415 1_556 S
C216 C221 1.425 1_656 S
C216 C223 1.409 . S
C217 H209 0.930 . S
C217 C215 1.419 . S
C217 C218 1.362 1_655 S
C218 H210 0.930 . S
C218 C217 1.362 1_455 S
C218 C221 1.409 . S
C219 H211 0.930 . S
C219 C220 1.355 . S
C219 C221 1.415 1_556 S
C220 C219 1.355 . S
C220 C222 1.419 . S
C221 C216 1.425 1_454 S
C221 C218 1.409 . S
C221 C219 1.415 1_554 S
C222 H212 0.930 . S
C222 C220 1.419 . S
C222 C223 1.362 1_455 S
C223 H213 0.930 . S
C223 C216 1.409 . S
C223 C222 1.362 1_655 S
H224 C230 0.930 . S
H225 C233 0.930 . S
H226 C234 0.930 . S
H227 C235 0.930 . S
H228 C238 0.930 . S
H229 C239 0.930 . S
C230 H224 0.930 . S
C230 C231 1.355 . S
C230 C232 1.415 1_545 S
C231 C230 1.355 . S
C231 C233 1.419 . S
C232 C230 1.415 1_565 S
C232 C237 1.425 1_565 S
C232 C239 1.409 . S
C233 H225 0.930 . S
C233 C231 1.419 . S
C233 C234 1.362 . S
C234 H226 0.930 . S
C234 C233 1.362 . S
C234 C237 1.409 . S
C235 H227 0.930 . S
C235 C236 1.355 . S
C235 C237 1.415 1_565 S
C236 C235 1.355 . S
C236 C238 1.419 . S
C237 C232 1.425 1_545 S
C237 C234 1.409 . S
C237 C235 1.415 1_545 S
C238 H228 0.930 . S
C238 C236 1.419 . S
C238 C239 1.362 . S
C239 H229 0.930 . S
C239 C232 1.409 . S
C239 C238 1.362 . S
H240 C246 0.930 . S
H241 C249 0.930 . S
H242 C250 0.930 . S
H243 C251 0.930 . S
H244 C254 0.930 . S
H245 C255 0.930 . S
C246 H240 0.930 . S
C246 C247 1.355 . S
C246 C248 1.415 . S
C247 C246 1.355 . S
C247 C249 1.419 . S
C248 C246 1.415 . S
C248 C253 1.425 . S
C248 C255 1.409 . S
C249 H241 0.930 . S
C249 C247 1.419 . S
C249 C250 1.362 . S
C250 H242 0.930 . S
C250 C249 1.362 . S
C250 C253 1.409 . S
C251 H243 0.930 . S
C251 C252 1.355 . S
C251 C253 1.415 . S
C252 C251 1.355 . S
C252 C254 1.419 . S
C253 C248 1.425 . S
C253 C250 1.409 . S
C253 C251 1.415 . S
C254 H244 0.930 . S
C254 C252 1.419 . S
C254 C255 1.362 . S
C255 H245 0.930 . S
C255 C248 1.409 . S
C255 C254 1.362 . S
H256 C262 0.930 . S
H257 C265 0.930 . S
H258 C266 0.930 . S
H259 C267 0.930 . S
H260 C270 0.930 . S
H261 C271 0.930 . S
C262 H256 0.930 . S
C262 C263 1.355 . S
C262 C264 1.415 . S
C263 C262 1.355 . S
C263 C265 1.419 . S
C264 C262 1.415 . S
C264 C269 1.425 . S
C264 C271 1.409 . S
C265 H257 0.930 . S
C265 C263 1.419 . S
C265 C266 1.362 . S
C266 H258 0.930 . S
C266 C265 1.362 . S
C266 C269 1.409 . S
C267 H259 0.930 . S
C267 C268 1.355 . S
C267 C269 1.415 . S
C268 C267 1.355 . S
C268 C270 1.419 . S
C269 C264 1.425 . S
C269 C266 1.409 . S
C269 C267 1.415 . S
C270 H260 0.930 . S
C270 C268 1.419 . S
C270 C271 1.362 . S
C271 H261 0.930 . S
C271 C264 1.409 . S
C271 C270 1.362 . S
H272 C278 0.930 . S
H273 C281 0.930 . S
H274 C282 0.930 . S
H275 C283 0.930 . S
H276 C286 0.930 . S
H277 C287 0.930 . S
C278 H272 0.930 . S
C278 C279 1.355 . S
C278 C280 1.415 . S
C279 C278 1.355 . S
C279 C281 1.419 . S
C280 C278 1.415 . S
C280 C285 1.425 . S
C280 C287 1.409 . S
C281 H273 0.930 . S
C281 C279 1.419 . S
C281 C282 1.362 . S
C282 H274 0.930 . S
C282 C281 1.362 . S
C282 C285 1.409 . S
C283 H275 0.930 . S
C283 C284 1.355 . S
C283 C285 1.415 . S
C284 C283 1.355 . S
C284 C286 1.419 . S
C285 C280 1.425 . S
C285 C282 1.409 . S
C285 C283 1.415 . S
C286 H276 0.930 . S
C286 C284 1.419 . S
C286 C287 1.362 . S
C287 H277 0.930 . S
C287 C280 1.409 . S
C287 C286 1.362 . S
H288 C294 0.930 . S
H289 C297 0.930 . S
H290 C298 0.930 . S
H291 C299 0.930 . S
H292 C302 0.930 . S
H293 C303 0.930 . S
C294 H288 0.930 . S
C294 C295 1.355 . S
C294 C296 1.415 . S
C295 C294 1.355 . S
C295 C297 1.419 . S
C296 C294 1.415 . S
C296 C301 1.425 . S
C296 C303 1.409 . S
C297 H289 0.930 . S
C297 C295 1.419 . S
C297 C298 1.362 . S
C298 H290 0.930 . S
C298 C297 1.362 . S
C298 C301 1.409 . S
C299 H291 0.930 . S
C299 C300 1.355 . S
C299 C301 1.415 . S
C300 C299 1.355 . S
C300 C302 1.419 . S
C301 C296 1.425 . S
C301 C298 1.409 . S
C301 C299 1.415 . S
C302 H292 0.930 . S
C302 C300 1.419 . S
C302 C303 1.362 . S
C303 H293 0.930 . S
C303 C296 1.409 . S
C303 C302 1.362 . S
H304 C310 0.930 . S
H305 C313 0.930 . S
H306 C314 0.930 . S
H307 C315 0.930 . S
H308 C318 0.930 . S
H309 C319 0.930 . S
C310 H304 0.930 . S
C310 C311 1.355 . S
C310 C312 1.415 . S
C311 C310 1.355 . S
C311 C313 1.419 1_455 S
C312 C310 1.415 . S
C312 C317 1.425 1_445 S
C312 C319 1.409 1_545 S
C313 H305 0.930 . S
C313 C311 1.419 1_655 S
C313 C314 1.362 . S
C314 H306 0.930 . S
C314 C313 1.362 . S
C314 C317 1.409 1_545 S
C315 H307 0.930 . S
C315 C316 1.355 . S
C315 C317 1.415 . S
C316 C315 1.355 . S
C316 C318 1.419 1_655 S
C317 C312 1.425 1_665 S
C317 C314 1.409 1_565 S
C317 C315 1.415 . S
C318 H308 0.930 . S
C318 C316 1.419 1_455 S
C318 C319 1.362 . S
C319 H309 0.930 . S
C319 C312 1.409 1_565 S
C319 C318 1.362 . S
H320 C326 0.930 . S
H321 C329 0.930 . S
H322 C330 0.930 . S
H323 C331 0.930 . S
H324 C334 0.930 . S
H325 C335 0.930 . S
C326 H320 0.930 . S
C326 C327 1.355 . S
C326 C328 1.415 . S
C327 C326 1.355 . S
C327 C329 1.419 1_565 S
C328 C326 1.415 . S
C328 C333 1.425 1_465 S
C328 C335 1.409 1_455 S
C329 H321 0.930 . S
C329 C327 1.419 1_545 S
C329 C330 1.362 . S
C330 H322 0.930 . S
C330 C329 1.362 . S
C330 C333 1.409 1_455 S
C331 H323 0.930 . S
C331 C332 1.355 . S
C331 C333 1.415 . S
C332 C331 1.355 . S
C332 C334 1.419 1_545 S
C333 C328 1.425 1_645 S
C333 C330 1.409 1_655 S
C333 C331 1.415 . S
C334 H324 0.930 . S
C334 C332 1.419 1_565 S
C334 C335 1.362 . S
C335 H325 0.930 . S
C335 C328 1.409 1_655 S
C335 C334 1.362 . S
H336 C342 0.930 . S
H337 C345 0.930 . S
H338 C346 0.930 . S
H339 C347 0.930 . S
H340 C350 0.930 . S
H341 C351 0.930 . S
C342 H336 0.930 . S
C342 C343 1.355 . S
C342 C344 1.415 . S
C343 C342 1.355 . S
C343 C345 1.419 1_655 S
C344 C342 1.415 . S
C344 C349 1.425 1_645 S
C344 C351 1.409 1_545 S
C345 H337 0.930 . S
C345 C343 1.419 1_455 S
C345 C346 1.362 . S
C346 H338 0.930 . S
C346 C345 1.362 . S
C346 C349 1.409 1_545 S
C347 H339 0.930 . S
C347 C348 1.355 . S
C347 C349 1.415 . S
C348 C347 1.355 . S
C348 C350 1.419 1_455 S
C349 C344 1.425 1_465 S
C349 C346 1.409 1_565 S
C349 C347 1.415 . S
C350 H340 0.930 . S
C350 C348 1.419 1_655 S
C350 C351 1.362 . S
C351 H341 0.930 . S
C351 C344 1.409 1_565 S
C351 C350 1.362 . S
H352 C358 0.930 . S
H353 C361 0.928 1_545 S
H354 C362 0.930 . S
H355 C363 0.930 . S
H356 C366 0.928 1_565 S
H357 C367 0.930 . S
C358 H352 0.930 . S
C358 C359 1.355 . S
C358 C360 1.415 . S
C359 C358 1.355 . S
C359 C361 1.427 . S
C360 C358 1.415 . S
C360 C365 1.425 1_665 S
C360 C367 1.409 1_655 S
C361 H353 0.928 1_565 S
C361 C359 1.427 . S
C361 C362 1.356 1_565 S
C362 H354 0.930 . S
C362 C361 1.356 1_545 S
C362 C365 1.409 1_655 S
C363 H355 0.930 . S
C363 C364 1.355 . S
C363 C365 1.415 . S
C364 C363 1.355 . S
C364 C366 1.427 . S
C365 C360 1.425 1_445 S
C365 C362 1.409 1_455 S
C365 C363 1.415 . S
C366 H356 0.928 1_545 S
C366 C364 1.427 . S
C366 C367 1.356 1_545 S
C367 H357 0.930 . S
C367 C360 1.409 1_455 S
C367 C366 1.356 1_565 S
C119 C6 1.490 . S
C124 C34 1.477 . S
C135 C49 1.453 . S
C140 C21 1.473 . S
C151 C90 1.471 . S
C156 C62 1.487 . S
C167 C77 1.459 . S
C172 C105 1.446 . S
C183 C92 1.486 . S
C188 C8 1.492 . S
C199 C23 1.485 . S
C204 C107 1.467 . S
C215 C36 1.363 . S
C220 C64 1.361 . S
C231 C79 1.492 . S
C236 C51 1.486 . S
C247 C7 1.734 . S
C252 C76 1.717 . S
C263 C91 1.707 . S
C268 C20 1.708 . S
C279 C104 1.704 . S
C284 C35 1.733 . S
C295 C48 1.700 . S
C300 C63 1.720 . S
C311 C9 1.319 . S
C316 C37 1.318 . S
C327 C50 1.304 . S
C332 C22 1.293 . S
C343 C93 1.319 . S
C348 C65 1.316 . S
C359 C106 1.302 . S
C364 C78 1.312 . S
