# Generated by pormake.
# Topology vbb, (4)-cn, num edge types: 1
# Building blocks:
#     Node 0, Type 0, BuildingBlock: QUQFOY_clean_sbu_1, # of connection points: 4
#     Node 1, Type 0, BuildingBlock: QUQFOY_clean_sbu_1, # of connection points: 4
#     Node 2, Type 0, BuildingBlock: QUQFOY_clean_sbu_1, # of connection points: 4
#     Node 3, Type 0, BuildingBlock: QUQFOY_clean_sbu_1, # of connection points: 4
#     Node 4, Type 0, BuildingBlock: QUQFOY_clean_sbu_1, # of connection points: 4
#     Node 5, Type 0, BuildingBlock: QUQFOY_clean_sbu_1, # of connection points: 4
#     Node 6, Type 0, BuildingBlock: QUQFOY_clean_sbu_1, # of connection points: 4
#     Node 7, Type 0, BuildingBlock: QUQFOY_clean_sbu_1, # of connection points: 4
#     Node 8, Type 0, BuildingBlock: QUQFOY_clean_sbu_1, # of connection points: 4
#     Node 9, Type 0, BuildingBlock: QUQFOY_clean_sbu_1, # of connection points: 4
#     Node 10, Type 0, BuildingBlock: QUQFOY_clean_sbu_1, # of connection points: 4
#     Node 11, Type 0, BuildingBlock: QUQFOY_clean_sbu_1, # of connection points: 4
#     Node 12, Type 0, BuildingBlock: QUQFOY_clean_sbu_1, # of connection points: 4
#     Node 13, Type 0, BuildingBlock: QUQFOY_clean_sbu_1, # of connection points: 4
#     Node 14, Type 0, BuildingBlock: QUQFOY_clean_sbu_1, # of connection points: 4
#     Node 15, Type 0, BuildingBlock: QUQFOY_clean_sbu_1, # of connection points: 4
#     Node 16, Type 0, BuildingBlock: QUQFOY_clean_sbu_1, # of connection points: 4
#     Node 17, Type 0, BuildingBlock: QUQFOY_clean_sbu_1, # of connection points: 4
#     Node 18, Type 0, BuildingBlock: QUQFOY_clean_sbu_1, # of connection points: 4
#     Node 19, Type 0, BuildingBlock: QUQFOY_clean_sbu_1, # of connection points: 4
#     Node 20, Type 0, BuildingBlock: QUQFOY_clean_sbu_1, # of connection points: 4
#     Node 21, Type 0, BuildingBlock: QUQFOY_clean_sbu_1, # of connection points: 4
#     Node 22, Type 0, BuildingBlock: QUQFOY_clean_sbu_1, # of connection points: 4
#     Node 23, Type 0, BuildingBlock: QUQFOY_clean_sbu_1, # of connection points: 4
#     Node 24, Type 0, BuildingBlock: QUQFOY_clean_sbu_1, # of connection points: 4
#     Node 25, Type 0, BuildingBlock: QUQFOY_clean_sbu_1, # of connection points: 4
#     Node 26, Type 0, BuildingBlock: QUQFOY_clean_sbu_1, # of connection points: 4
#     Node 27, Type 0, BuildingBlock: QUQFOY_clean_sbu_1, # of connection points: 4
#     Node 28, Type 0, BuildingBlock: QUQFOY_clean_sbu_1, # of connection points: 4
#     Node 29, Type 0, BuildingBlock: QUQFOY_clean_sbu_1, # of connection points: 4
#     Node 30, Type 0, BuildingBlock: QUQFOY_clean_sbu_1, # of connection points: 4
#     Node 31, Type 0, BuildingBlock: QUQFOY_clean_sbu_1, # of connection points: 4
#     Edge 32, Type (0, 0), BuildingBlock: UVAHIK_clean_linker_0, # of connection points: 2
#     Edge 33, Type (0, 0), BuildingBlock: UVAHIK_clean_linker_0, # of connection points: 2
#     Edge 34, Type (0, 0), BuildingBlock: UVAHIK_clean_linker_0, # of connection points: 2
#     Edge 35, Type (0, 0), BuildingBlock: UVAHIK_clean_linker_0, # of connection points: 2
#     Edge 36, Type (0, 0), BuildingBlock: UVAHIK_clean_linker_0, # of connection points: 2
#     Edge 37, Type (0, 0), BuildingBlock: UVAHIK_clean_linker_0, # of connection points: 2
#     Edge 38, Type (0, 0), BuildingBlock: UVAHIK_clean_linker_0, # of connection points: 2
#     Edge 39, Type (0, 0), BuildingBlock: UVAHIK_clean_linker_0, # of connection points: 2
#     Edge 40, Type (0, 0), BuildingBlock: UVAHIK_clean_linker_0, # of connection points: 2
#     Edge 41, Type (0, 0), BuildingBlock: UVAHIK_clean_linker_0, # of connection points: 2
#     Edge 42, Type (0, 0), BuildingBlock: UVAHIK_clean_linker_0, # of connection points: 2
#     Edge 43, Type (0, 0), BuildingBlock: UVAHIK_clean_linker_0, # of connection points: 2
#     Edge 44, Type (0, 0), BuildingBlock: UVAHIK_clean_linker_0, # of connection points: 2
#     Edge 45, Type (0, 0), BuildingBlock: UVAHIK_clean_linker_0, # of connection points: 2
#     Edge 46, Type (0, 0), BuildingBlock: UVAHIK_clean_linker_0, # of connection points: 2
#     Edge 47, Type (0, 0), BuildingBlock: UVAHIK_clean_linker_0, # of connection points: 2
#     Edge 48, Type (0, 0), BuildingBlock: UVAHIK_clean_linker_0, # of connection points: 2
#     Edge 49, Type (0, 0), BuildingBlock: UVAHIK_clean_linker_0, # of connection points: 2
#     Edge 50, Type (0, 0), BuildingBlock: UVAHIK_clean_linker_0, # of connection points: 2
#     Edge 51, Type (0, 0), BuildingBlock: UVAHIK_clean_linker_0, # of connection points: 2
#     Edge 52, Type (0, 0), BuildingBlock: UVAHIK_clean_linker_0, # of connection points: 2
#     Edge 53, Type (0, 0), BuildingBlock: UVAHIK_clean_linker_0, # of connection points: 2
#     Edge 54, Type (0, 0), BuildingBlock: UVAHIK_clean_linker_0, # of connection points: 2
#     Edge 55, Type (0, 0), BuildingBlock: UVAHIK_clean_linker_0, # of connection points: 2
#     Edge 56, Type (0, 0), BuildingBlock: UVAHIK_clean_linker_0, # of connection points: 2
#     Edge 57, Type (0, 0), BuildingBlock: UVAHIK_clean_linker_0, # of connection points: 2
#     Edge 58, Type (0, 0), BuildingBlock: UVAHIK_clean_linker_0, # of connection points: 2
#     Edge 59, Type (0, 0), BuildingBlock: UVAHIK_clean_linker_0, # of connection points: 2
#     Edge 60, Type (0, 0), BuildingBlock: UVAHIK_clean_linker_0, # of connection points: 2
#     Edge 61, Type (0, 0), BuildingBlock: UVAHIK_clean_linker_0, # of connection points: 2
#     Edge 62, Type (0, 0), BuildingBlock: UVAHIK_clean_linker_0, # of connection points: 2
#     Edge 63, Type (0, 0), BuildingBlock: UVAHIK_clean_linker_0, # of connection points: 2
#     Edge 64, Type (0, 0), BuildingBlock: UVAHIK_clean_linker_0, # of connection points: 2
#     Edge 65, Type (0, 0), BuildingBlock: UVAHIK_clean_linker_0, # of connection points: 2
#     Edge 66, Type (0, 0), BuildingBlock: UVAHIK_clean_linker_0, # of connection points: 2
#     Edge 67, Type (0, 0), BuildingBlock: UVAHIK_clean_linker_0, # of connection points: 2
#     Edge 68, Type (0, 0), BuildingBlock: UVAHIK_clean_linker_0, # of connection points: 2
#     Edge 69, Type (0, 0), BuildingBlock: UVAHIK_clean_linker_0, # of connection points: 2
#     Edge 70, Type (0, 0), BuildingBlock: UVAHIK_clean_linker_0, # of connection points: 2
#     Edge 71, Type (0, 0), BuildingBlock: UVAHIK_clean_linker_0, # of connection points: 2
#     Edge 72, Type (0, 0), BuildingBlock: UVAHIK_clean_linker_0, # of connection points: 2
#     Edge 73, Type (0, 0), BuildingBlock: UVAHIK_clean_linker_0, # of connection points: 2
#     Edge 74, Type (0, 0), BuildingBlock: UVAHIK_clean_linker_0, # of connection points: 2
#     Edge 75, Type (0, 0), BuildingBlock: UVAHIK_clean_linker_0, # of connection points: 2
#     Edge 76, Type (0, 0), BuildingBlock: UVAHIK_clean_linker_0, # of connection points: 2
#     Edge 77, Type (0, 0), BuildingBlock: UVAHIK_clean_linker_0, # of connection points: 2
#     Edge 78, Type (0, 0), BuildingBlock: UVAHIK_clean_linker_0, # of connection points: 2
#     Edge 79, Type (0, 0), BuildingBlock: UVAHIK_clean_linker_0, # of connection points: 2
#     Edge 80, Type (0, 0), BuildingBlock: UVAHIK_clean_linker_0, # of connection points: 2
#     Edge 81, Type (0, 0), BuildingBlock: UVAHIK_clean_linker_0, # of connection points: 2
#     Edge 82, Type (0, 0), BuildingBlock: UVAHIK_clean_linker_0, # of connection points: 2
#     Edge 83, Type (0, 0), BuildingBlock: UVAHIK_clean_linker_0, # of connection points: 2
#     Edge 84, Type (0, 0), BuildingBlock: UVAHIK_clean_linker_0, # of connection points: 2
#     Edge 85, Type (0, 0), BuildingBlock: UVAHIK_clean_linker_0, # of connection points: 2
#     Edge 86, Type (0, 0), BuildingBlock: UVAHIK_clean_linker_0, # of connection points: 2
#     Edge 87, Type (0, 0), BuildingBlock: UVAHIK_clean_linker_0, # of connection points: 2
#     Edge 88, Type (0, 0), BuildingBlock: UVAHIK_clean_linker_0, # of connection points: 2
#     Edge 89, Type (0, 0), BuildingBlock: UVAHIK_clean_linker_0, # of connection points: 2
#     Edge 90, Type (0, 0), BuildingBlock: UVAHIK_clean_linker_0, # of connection points: 2
#     Edge 91, Type (0, 0), BuildingBlock: UVAHIK_clean_linker_0, # of connection points: 2
#     Edge 92, Type (0, 0), BuildingBlock: UVAHIK_clean_linker_0, # of connection points: 2
#     Edge 93, Type (0, 0), BuildingBlock: UVAHIK_clean_linker_0, # of connection points: 2
#     Edge 94, Type (0, 0), BuildingBlock: UVAHIK_clean_linker_0, # of connection points: 2
#     Edge 95, Type (0, 0), BuildingBlock: UVAHIK_clean_linker_0, # of connection points: 2
# Relax obj value: 0.069
# Max RMSD: 0.228
# Mean RMSD: 0.228
data_MOF--net-vbb--node1-QUQFOY_clean_sbu_1--edge1-UVAHIK_clean_linker_0
_symmetry_space_group_name_H-M    P1
_symmetry_Int_Tables_number       1
_symmetry_cell_setting            triclinic
loop_
_symmetry_equiv_pos_as_xyz
'x, y, z'
_cell_length_a     57.839761
_cell_length_b     48.857233
_cell_length_c     140.00368
_cell_angle_alpha  89.981599
_cell_angle_beta   89.970932
_cell_angle_gamma 89.988796
loop_
_atom_site_label
_atom_site_type_symbol
_atom_site_fract_x
_atom_site_fract_y
_atom_site_fract_z
_atom_type_partial_charge
O0 O 0.48317 0.00934 0.07205 0.0
Cd1 Cd 0.48364 0.00778 0.08673 0.0
Cd2 Cd 0.46537 0.0603 0.08388 0.0
O3 O 0.46301 0.04728 0.06962 0.0
O4 O 0.47907 0.9685 0.091 0.0
O5 O 0.45322 1.00129 0.09286 0.0
C6 C 0.45861 0.97587 0.09369 0.0
C7 C 0.43719 0.07636 0.09453 0.0
C8 C 0.4733 0.02605 0.06638 0.0
C9 C 0.51301 0.05467 0.09282 0.0
O10 O 0.49791 0.06946 0.08871 0.0
O11 O 0.51027 0.02885 0.09351 0.0
O12 O 0.44552 0.09242 0.08804 0.0
O13 O 0.44302 0.05097 0.0942 0.0
O14 O 0.75604 0.24302 0.07141 0.0
Cd15 Cd 0.7559 0.24344 0.08611 0.0
Cd16 Cd 0.77338 0.19159 0.08289 0.0
O17 O 0.77715 0.20593 0.06886 0.0
O18 O 0.75903 0.28266 0.09063 0.0
O19 O 0.78637 0.25143 0.09207 0.0
C20 C 0.77989 0.27642 0.09313 0.0
C21 C 0.80043 0.1761 0.09411 0.0
C22 C 0.76655 0.22703 0.06569 0.0
C23 C 0.72589 0.19612 0.09149 0.0
O24 O 0.74042 0.18164 0.08692 0.0
O25 O 0.72958 0.22156 0.09287 0.0
O26 O 0.79382 0.16023 0.08723 0.0
O27 O 0.79347 0.20112 0.09393 0.0
O28 O 0.48648 0.24333 0.20969 0.0
Cd29 Cd 0.48684 0.24388 0.19501 0.0
Cd30 Cd 0.46718 0.19272 0.19812 0.0
O31 O 0.46433 0.20706 0.21221 0.0
O32 O 0.48414 0.28311 0.19043 0.0
O33 O 0.45652 0.25221 0.18903 0.0
C34 C 0.46321 0.27712 0.18795 0.0
C35 C 0.43926 0.1777 0.18719 0.0
C36 C 0.47553 0.2277 0.21539 0.0
C37 C 0.51494 0.19521 0.18943 0.0
O38 O 0.49964 0.18136 0.19381 0.0
O39 O 0.51259 0.22097 0.18831 0.0
O40 O 0.44597 0.16181 0.19404 0.0
O41 O 0.44657 0.20257 0.18726 0.0
O42 O 0.75911 0.00915 0.21009 0.0
Cd43 Cd 0.75907 0.00812 0.19539 0.0
Cd44 Cd 0.77528 0.06082 0.19846 0.0
O45 O 0.77878 0.04736 0.2126 0.0
O46 O 0.76285 0.96877 0.1911 0.0
O47 O 0.78966 1.00053 0.18942 0.0
C48 C 0.78358 0.97534 0.18853 0.0
C49 C 0.80246 0.07633 0.18731 0.0
C50 C 0.76883 0.02586 0.2158 0.0
C51 C 0.72804 0.05416 0.18968 0.0
O52 O 0.74227 0.06935 0.19412 0.0
O53 O 0.73218 0.02872 0.18854 0.0
O54 O 0.79495 0.09262 0.1939 0.0
O55 O 0.79632 0.05104 0.18776 0.0
O56 O 0.50677 0.99315 0.9603 0.0
Cd57 Cd 0.50657 0.99371 0.94559 0.0
Cd58 Cd 0.52434 0.94167 0.94892 0.0
O59 O 0.52775 0.95599 0.96296 0.0
O60 O 0.50932 0.03308 0.94112 0.0
O61 O 0.5369 0.00222 0.93958 0.0
C62 C 0.53021 0.02714 0.93857 0.0
C63 C 0.55165 0.92714 0.93767 0.0
C64 C 0.51714 0.97716 0.96607 0.0
C65 C 0.47688 0.94606 0.94021 0.0
O66 O 0.49148 0.93172 0.94479 0.0
O67 O 0.48039 0.97155 0.93884 0.0
O68 O 0.54494 0.91067 0.94436 0.0
O69 O 0.54464 0.9521 0.93808 0.0
O70 O 0.23235 0.76095 0.96047 0.0
Cd71 Cd 0.23397 0.7586 0.94579 0.0
Cd72 Cd 0.21625 0.81183 0.94794 0.0
O73 O 0.21395 0.80044 0.96234 0.0
O74 O 0.22926 0.71922 0.9417 0.0
O75 O 0.20391 0.75229 0.93933 0.0
C76 C 0.20908 0.72674 0.93872 0.0
C77 C 0.1881 0.82758 0.93722 0.0
C78 C 0.22309 0.77885 0.96586 0.0
C79 C 0.26405 0.80468 0.93929 0.0
O80 O 0.24878 0.82013 0.94296 0.0
O81 O 0.26131 0.77879 0.93909 0.0
O82 O 0.19679 0.84396 0.94353 0.0
O83 O 0.19355 0.80209 0.93779 0.0
O84 O 0.50855 0.75732 0.82186 0.0
Cd85 Cd 0.5086 0.75613 0.83655 0.0
Cd86 Cd 0.52455 0.80903 0.8336 0.0
O87 O 0.52813 0.79564 0.81944 0.0
O88 O 0.51398 0.71708 0.84093 0.0
O89 O 0.53946 0.75041 0.84245 0.0
C90 C 0.53444 0.72492 0.84344 0.0
C91 C 0.55143 0.8263 0.84457 0.0
C92 C 0.51823 0.77418 0.81619 0.0
C93 C 0.47725 0.80168 0.84234 0.0
O94 O 0.49144 0.81705 0.83795 0.0
O95 O 0.48149 0.77624 0.84343 0.0
O96 O 0.54359 0.84174 0.8378 0.0
O97 O 0.54584 0.80081 0.84439 0.0
O98 O 0.23639 0.99187 0.82159 0.0
Cd99 Cd 0.23687 0.99244 0.83628 0.0
Cd100 Cd 0.21675 0.94149 0.83322 0.0
O101 O 0.21385 0.95591 0.81915 0.0
O102 O 0.23444 0.03168 0.84087 0.0
O103 O 0.20663 1.00102 0.84229 0.0
C104 C 0.21349 0.02586 0.84338 0.0
C105 C 0.18887 0.92674 0.84424 0.0
C106 C 0.22521 0.97638 0.81593 0.0
C107 C 0.26457 0.9434 0.84183 0.0
O108 O 0.24915 0.92976 0.83746 0.0
O109 O 0.26242 0.96918 0.84297 0.0
O110 O 0.19536 0.91078 0.83737 0.0
O111 O 0.19635 0.95153 0.84413 0.0
O112 O 0.48443 0.51156 0.57174 0.0
Cd113 Cd 0.4848 0.51062 0.58645 0.0
Cd114 Cd 0.46775 0.56305 0.58336 0.0
O115 O 0.46434 0.54946 0.56923 0.0
O116 O 0.48175 0.47117 0.59074 0.0
O117 O 0.45454 0.50238 0.59257 0.0
C118 C 0.46101 0.47732 0.59343 0.0
C119 C 0.44026 0.57782 0.59451 0.0
C120 C 0.47447 0.52807 0.56604 0.0
C121 C 0.51523 0.55734 0.59204 0.0
O122 O 0.50068 0.57225 0.58765 0.0
O123 O 0.5115 0.53181 0.59318 0.0
O124 O 0.4475 0.59434 0.58793 0.0
O125 O 0.44691 0.55272 0.59405 0.0
O126 O 0.75767 0.74428 0.57108 0.0
Cd127 Cd 0.75765 0.74531 0.58577 0.0
Cd128 Cd 0.77631 0.69369 0.58283 0.0
O129 O 0.7793 0.70751 0.56868 0.0
O130 O 0.76132 0.78451 0.59024 0.0
O131 O 0.78832 0.75281 0.59157 0.0
C132 C 0.78217 0.77793 0.59265 0.0
C133 C 0.80384 0.6778 0.59379 0.0
C134 C 0.76832 0.72824 0.56543 0.0
C135 C 0.72874 0.69765 0.5916 0.0
O136 O 0.7437 0.68332 0.58722 0.0
O137 O 0.73157 0.72336 0.59264 0.0
O138 O 0.79674 0.66209 0.58696 0.0
O139 O 0.79723 0.70295 0.59366 0.0
O140 O 0.4841 0.7441 0.71021 0.0
Cd141 Cd 0.48435 0.74499 0.69553 0.0
Cd142 Cd 0.46562 0.69335 0.69848 0.0
O143 O 0.46268 0.70716 0.71262 0.0
O144 O 0.48086 0.78418 0.69101 0.0
O145 O 0.45381 0.75258 0.68961 0.0
C146 C 0.46004 0.77766 0.68854 0.0
C147 C 0.438 0.67757 0.68755 0.0
C148 C 0.47351 0.72799 0.71587 0.0
C149 C 0.51323 0.69723 0.68974 0.0
O150 O 0.4982 0.68291 0.69408 0.0
O151 O 0.51047 0.72297 0.68873 0.0
O152 O 0.44512 0.66182 0.69437 0.0
O153 O 0.44465 0.7027 0.68768 0.0
O154 O 0.75743 0.51127 0.70963 0.0
Cd155 Cd 0.75724 0.51038 0.69493 0.0
Cd156 Cd 0.7742 0.56273 0.69805 0.0
O157 O 0.77768 0.54902 0.71217 0.0
O158 O 0.76024 0.47094 0.69064 0.0
O159 O 0.78756 0.50204 0.68886 0.0
C160 C 0.78103 0.47701 0.688 0.0
C161 C 0.8016 0.57754 0.68687 0.0
C162 C 0.76745 0.52768 0.71535 0.0
C163 C 0.72678 0.55707 0.68934 0.0
O164 O 0.74125 0.57195 0.69378 0.0
O165 O 0.7306 0.53158 0.68816 0.0
O166 O 0.79443 0.59402 0.69347 0.0
O167 O 0.79495 0.55243 0.68732 0.0
O168 O 0.50751 0.4959 0.45996 0.0
Cd169 Cd 0.50723 0.49669 0.44526 0.0
Cd170 Cd 0.52373 0.44397 0.44837 0.0
O171 O 0.52736 0.45781 0.46247 0.0
O172 O 0.51211 0.53573 0.44076 0.0
O173 O 0.53787 0.50271 0.4392 0.0
C174 C 0.53258 0.52811 0.43817 0.0
C175 C 0.55074 0.42702 0.43738 0.0
C176 C 0.51738 0.4793 0.46566 0.0
C177 C 0.47625 0.4505 0.43972 0.0
O178 O 0.49065 0.43542 0.44412 0.0
O179 O 0.48024 0.47596 0.43854 0.0
O180 O 0.54316 0.41152 0.44419 0.0
O181 O 0.54481 0.45239 0.43753 0.0
O182 O 0.23424 0.26145 0.4602 0.0
Cd183 Cd 0.23517 0.26027 0.44552 0.0
Cd184 Cd 0.21543 0.31181 0.44836 0.0
O185 O 0.21248 0.29817 0.46253 0.0
O186 O 0.23275 0.22078 0.44119 0.0
O187 O 0.20517 0.25154 0.43933 0.0
C188 C 0.21194 0.22659 0.43849 0.0
C189 C 0.18756 0.32596 0.43726 0.0
C190 C 0.22339 0.27743 0.46581 0.0
C191 C 0.2634 0.30866 0.43978 0.0
O192 O 0.24794 0.32271 0.44398 0.0
O193 O 0.26117 0.28283 0.43884 0.0
O194 O 0.19444 0.34253 0.44387 0.0
O195 O 0.19465 0.30102 0.43768 0.0
O196 O 0.50779 0.26003 0.32154 0.0
Cd197 Cd 0.50777 0.259 0.33624 0.0
Cd198 Cd 0.52465 0.31146 0.33311 0.0
O199 O 0.52808 0.29777 0.31899 0.0
O200 O 0.51111 0.2196 0.34057 0.0
O201 O 0.53827 0.25094 0.34219 0.0
C202 C 0.53191 0.22587 0.34312 0.0
C203 C 0.55192 0.32638 0.34431 0.0
C204 C 0.51779 0.27648 0.31581 0.0
C205 C 0.47735 0.30567 0.34191 0.0
O206 O 0.49171 0.32055 0.33741 0.0
O207 O 0.48123 0.28019 0.34311 0.0
O208 O 0.54476 0.34284 0.3377 0.0
O209 O 0.54538 0.30125 0.34384 0.0
O210 O 0.23502 0.49377 0.32179 0.0
Cd211 Cd 0.23562 0.49468 0.33648 0.0
Cd212 Cd 0.21665 0.44275 0.33353 0.0
O213 O 0.21393 0.45657 0.31937 0.0
O214 O 0.23139 0.53376 0.34102 0.0
O215 O 0.20519 0.50122 0.34259 0.0
C216 C 0.21084 0.52651 0.34363 0.0
C217 C 0.18878 0.42635 0.34428 0.0
C218 C 0.22458 0.47756 0.31613 0.0
C219 C 0.26445 0.44692 0.34228 0.0
O220 O 0.24922 0.43259 0.33806 0.0
O221 O 0.26191 0.47273 0.34317 0.0
O222 O 0.19639 0.4108 0.3375 0.0
O223 O 0.1951 0.45159 0.34421 0.0
O224 O 0.9867 0.00969 0.57219 0.0
Cd225 Cd 0.98715 0.0082 0.58688 0.0
Cd226 Cd 0.96735 0.06012 0.58396 0.0
O227 O 0.96513 0.04653 0.56976 0.0
O228 O 0.98314 0.96888 0.59125 0.0
O229 O 0.95672 1.00112 0.59288 0.0
C230 C 0.96249 0.97585 0.59382 0.0
C231 C 0.93895 0.07541 0.59466 0.0
C232 C 0.97613 0.02579 0.56652 0.0
C233 C 0.01507 0.05638 0.59295 0.0
O234 O -0.00031 0.07049 0.58873 0.0
O235 O 0.01297 0.03049 0.59374 0.0
O236 O 0.94676 0.09163 0.58811 0.0
O237 O 0.9454 0.05023 0.59436 0.0
O238 O 0.25658 0.24534 0.57191 0.0
Cd239 Cd 0.25659 0.24656 0.58662 0.0
Cd240 Cd 0.27334 0.19363 0.58352 0.0
O241 O 0.27624 0.20712 0.56935 0.0
O242 O 0.26127 0.28578 0.59095 0.0
O243 O 0.28725 0.25305 0.59258 0.0
C244 C 0.28181 0.27842 0.59353 0.0
C245 C 0.30104 0.17755 0.59437 0.0
C246 C 0.2662 0.2286 0.56618 0.0
C247 C 0.22613 0.20027 0.59255 0.0
O248 O 0.24051 0.18517 0.58815 0.0
O249 O 0.22992 0.22583 0.59355 0.0
O250 O 0.29299 0.16147 0.58783 0.0
O251 O 0.29514 0.20291 0.59401 0.0
O252 O 0.98385 0.244 0.71017 0.0
Cd253 Cd 0.98405 0.24486 0.69547 0.0
Cd254 Cd 0.96707 0.19237 0.69857 0.0
O255 O 0.96362 0.2062 0.71269 0.0
O256 O 0.97972 0.28401 0.69101 0.0
O257 O 0.95349 0.25153 0.68945 0.0
C258 C 0.95914 0.27682 0.68843 0.0
C259 C 0.93989 0.17605 0.68755 0.0
C260 C 0.97383 0.22752 0.71588 0.0
C261 C 0.01451 0.19822 0.68986 0.0
O262 O 4e-05 0.18333 0.6943 0.0
O263 O 0.01073 0.22372 0.68869 0.0
O264 O 0.94722 0.16034 0.69434 0.0
O265 O 0.94616 0.20131 0.68773 0.0
O266 O 0.25574 0.00841 0.70976 0.0
Cd267 Cd 0.25512 0.00729 0.69508 0.0
Cd268 Cd 0.27452 0.05908 0.69796 0.0
O269 O 0.27739 0.04521 0.71212 0.0
O270 O 0.25928 0.96815 0.69056 0.0
O271 O 0.28555 1.00061 0.68901 0.0
C272 C 0.27987 0.97534 0.68798 0.0
C273 C 0.30225 0.07522 0.68711 0.0
C274 C 0.26647 0.02445 0.71539 0.0
C275 C 0.22663 0.05532 0.68929 0.0
O276 O 0.24194 0.06949 0.69352 0.0
O277 O 0.22901 0.0295 0.68836 0.0
O278 O 0.29491 0.09085 0.69392 0.0
O279 O 0.29577 0.05003 0.68721 0.0
O280 O 0.00745 0.99369 0.46023 0.0
Cd281 Cd 0.00776 0.99502 0.44553 0.0
Cd282 Cd 0.02418 0.94207 0.44861 0.0
O283 O 0.02728 0.95559 0.46277 0.0
O284 O 0.01266 0.03425 0.44122 0.0
O285 O 0.0386 0.00144 0.43971 0.0
C286 C 0.03326 0.02683 0.43874 0.0
C287 C 0.05163 0.92583 0.43768 0.0
C288 C 0.01713 0.97699 0.46595 0.0
C289 C 0.9771 0.94901 0.43956 0.0
O290 O 0.99127 0.93383 0.44404 0.0
O291 O 0.98112 0.9745 0.43851 0.0
O292 O 0.04362 0.9098 0.44425 0.0
O293 O 0.04584 0.95124 0.43805 0.0
O294 O 0.73734 0.75883 0.45911 0.0
Cd295 Cd 0.73739 0.75799 0.44443 0.0
Cd296 Cd 0.71769 0.80918 0.44745 0.0
O297 O 0.71514 0.7951 0.46158 0.0
O298 O 0.7342 0.71879 0.4399 0.0
O299 O 0.70683 0.75006 0.43861 0.0
C300 C 0.71327 0.72506 0.43751 0.0
C301 C 0.6896 0.82457 0.43665 0.0
C302 C 0.72645 0.77457 0.4648 0.0
C303 C 0.76531 0.8065 0.4386 0.0
O304 O 0.75005 0.82041 0.44298 0.0
O305 O 0.76301 0.7807 0.43758 0.0
O306 O 0.69662 0.84035 0.44347 0.0
O307 O 0.69667 0.7996 0.43669 0.0
O308 O 0.00752 0.75885 0.32168 0.0
Cd309 Cd 0.00754 0.75834 0.33638 0.0
Cd310 Cd 0.0248 0.81024 0.33316 0.0
O311 O 0.02867 0.7959 0.31913 0.0
O312 O 0.01077 0.71909 0.34088 0.0
O313 O 0.03812 0.75032 0.34225 0.0
C314 C 0.03166 0.72533 0.34333 0.0
C315 C 0.05159 0.82564 0.34449 0.0
C316 C 0.01803 0.77484 0.31596 0.0
C317 C 0.97737 0.80553 0.34175 0.0
O318 O 0.99179 0.82004 0.33714 0.0
O319 O 0.9812 0.78013 0.34317 0.0
O320 O 0.04515 0.84157 0.3376 0.0
O321 O 0.04466 0.80063 0.34425 0.0
O322 O 0.73505 0.99385 0.32174 0.0
Cd323 Cd 0.73587 0.99515 0.33643 0.0
Cd324 Cd 0.71702 0.94281 0.33355 0.0
O325 O 0.71464 0.95609 0.31933 0.0
O326 O 0.73165 0.03436 0.34083 0.0
O327 O 0.70561 0.00177 0.34267 0.0
C328 C 0.71119 0.02712 0.34357 0.0
C329 C 0.68868 0.92697 0.34418 0.0
C330 C 0.72497 0.97729 0.31609 0.0
C331 C 0.76481 0.94772 0.34242 0.0
O332 O 0.7495 0.93316 0.33835 0.0
O333 O 0.76236 0.97358 0.34312 0.0
O334 O 0.69688 0.91089 0.33767 0.0
O335 O 0.69475 0.95228 0.34389 0.0
O336 O 0.98649 0.50619 0.07211 0.0
Cd337 Cd 0.98615 0.50493 0.0868 0.0
Cd338 Cd 0.96999 0.55779 0.08384 0.0
O339 O 0.96683 0.54445 0.06966 0.0
O340 O 0.98092 0.46584 0.09113 0.0
O341 O 0.95526 0.49899 0.09264 0.0
C342 C 0.9604 0.47354 0.09362 0.0
C343 C 0.94258 0.57479 0.09466 0.0
C344 C 0.97687 0.52305 0.06643 0.0
C345 C 0.01707 0.55064 0.09281 0.0
O346 O 0.00291 0.566 0.0884 0.0
O347 O 0.01297 0.52514 0.0938 0.0
O348 O 0.95059 0.59033 0.08794 0.0
O349 O 0.94834 0.54936 0.09451 0.0
O350 O 0.25099 0.74289 0.07229 0.0
Cd351 Cd 0.25322 0.74475 0.0869 0.0
Cd352 Cd 0.27449 0.69508 0.0838 0.0
O353 O 0.27683 0.71024 0.06972 0.0
O354 O 0.2567 0.78403 0.0914 0.0
O355 O 0.28465 0.75328 0.09166 0.0
C356 C 0.27809 0.77807 0.09312 0.0
C357 C 0.3025 0.67994 0.09473 0.0
C358 C 0.26317 0.72874 0.06655 0.0
C359 C 0.22737 0.69536 0.09298 0.0
O360 O 0.24233 0.68241 0.08809 0.0
O361 O 0.22945 0.72102 0.09438 0.0
O362 O 0.29625 0.6644 0.08771 0.0
O363 O 0.29477 0.70462 0.09482 0.0
O364 O 0.98639 0.74269 0.20983 0.0
Cd365 Cd 0.98725 0.74401 0.19514 0.0
Cd366 Cd 0.96778 0.69197 0.19808 0.0
O367 O 0.9653 0.70547 0.21227 0.0
O368 O 0.98351 0.78334 0.19074 0.0
O369 O 0.95709 0.7512 0.18892 0.0
C370 C 0.96296 0.77644 0.18802 0.0
C371 C 0.93957 0.67674 0.18731 0.0
C372 C 0.97599 0.72643 0.2155 0.0
C373 C 0.01566 0.69598 0.18926 0.0
O374 O 0.00024 0.68175 0.19341 0.0
O375 O 0.01342 0.72184 0.18845 0.0
O376 O 0.94729 0.66047 0.19386 0.0
O377 O 0.946 0.70192 0.18764 0.0
O378 O 0.25937 0.50936 0.21015 0.0
Cd379 Cd 0.25915 0.50816 0.19544 0.0
Cd380 Cd 0.27561 0.56114 0.19848 0.0
O381 O 0.27885 0.54772 0.21266 0.0
O382 O 0.26384 0.46894 0.1911 0.0
O383 O 0.28972 0.50174 0.18937 0.0
C384 C 0.28432 0.47635 0.18845 0.0
C385 C 0.30295 0.5774 0.1875 0.0
C386 C 0.26897 0.52617 0.21585 0.0
C387 C 0.22826 0.55421 0.18965 0.0
O388 O 0.24264 0.5694 0.19401 0.0
O389 O 0.2322 0.52869 0.18862 0.0
O390 O 0.29499 0.59342 0.19408 0.0
O391 O 0.29718 0.55199 0.18788 0.0
O392 O 0.00799 0.49229 0.96019 0.0
Cd393 Cd 0.00721 0.49343 0.9455 0.0
Cd394 Cd 0.02673 0.44181 0.94841 0.0
O395 O 0.02964 0.4555 0.96257 0.0
O396 O 0.00979 0.53288 0.94112 0.0
O397 O 0.03733 0.50203 0.93937 0.0
C398 C 0.03062 0.52699 0.93847 0.0
C399 C 0.05461 0.4275 0.93734 0.0
C400 C 0.01874 0.47628 0.96583 0.0
C401 C 0.97886 0.44511 0.93978 0.0
O402 O 0.99422 0.43102 0.94402 0.0
O403 O 0.98121 0.47092 0.93881 0.0
O404 O 0.04765 0.41098 0.94397 0.0
O405 O 0.04759 0.45246 0.93774 0.0
O406 O 0.73439 0.25884 0.95957 0.0
Cd407 Cd 0.73457 0.25788 0.94488 0.0
Cd408 Cd 0.71804 0.31049 0.9479 0.0
O409 O 0.71437 0.29683 0.96202 0.0
O410 O 0.72977 0.21875 0.94049 0.0
O411 O 0.7039 0.25164 0.93888 0.0
C412 C 0.70924 0.22623 0.93792 0.0
C413 C 0.69099 0.32736 0.93691 0.0
C414 C 0.72444 0.27545 0.96525 0.0
C415 C 0.76556 0.30398 0.93927 0.0
O416 O 0.75113 0.31908 0.94364 0.0
O417 O 0.76157 0.2785 0.93812 0.0
O418 O 0.69857 0.34288 0.94371 0.0
O419 O 0.69698 0.302 0.93706 0.0
O420 O 0.00941 0.25776 0.82186 0.0
Cd421 Cd 0.0094 0.25683 0.83656 0.0
Cd422 Cd 0.02578 0.3095 0.8335 0.0
O423 O 0.02919 0.2959 0.81936 0.0
O424 O 0.01431 0.21775 0.84099 0.0
O425 O 0.04014 0.2507 0.84252 0.0
C426 C 0.03483 0.22529 0.84352 0.0
C427 C 0.05291 0.32649 0.84442 0.0
C428 C 0.01917 0.27446 0.81616 0.0
C429 C 0.97841 0.30285 0.84226 0.0
O430 O 0.99276 0.318 0.83785 0.0
O431 O 0.98243 0.27738 0.84338 0.0
O432 O 0.04518 0.34197 0.83764 0.0
O433 O 0.04706 0.30109 0.84428 0.0
O434 O 0.73719 0.49316 0.8215 0.0
Cd435 Cd 0.73794 0.49395 0.83619 0.0
Cd436 Cd 0.71809 0.44246 0.8331 0.0
O437 O 0.71547 0.45652 0.81898 0.0
O438 O 0.73543 0.5333 0.84069 0.0
O439 O 0.70788 0.50245 0.84237 0.0
C440 C 0.71461 0.52737 0.84334 0.0
C441 C 0.68991 0.42814 0.84404 0.0
C442 C 0.72644 0.47735 0.8158 0.0
C443 C 0.76592 0.44524 0.84185 0.0
O444 O 0.75049 0.43136 0.83757 0.0
O445 O 0.76376 0.47106 0.84285 0.0
O446 O 0.69695 0.41167 0.83741 0.0
O447 O 0.69704 0.45306 0.84371 0.0
C448 C 0.41679 0.06859 0.11004 0.0
C449 C 0.42488 0.08701 0.10307 0.0
C450 C 0.41068 0.07779 0.11915 0.0
C451 C 0.39875 0.13889 0.13416 0.0
H452 H 0.43154 0.09765 0.15355 0.0
C453 C 0.42301 0.18445 0.17081 0.0
C454 C 0.42695 0.16705 0.17865 0.0
C455 C 0.41655 0.17382 0.16193 0.0
C456 C 0.42172 0.10914 0.14833 0.0
H457 H 0.431 0.12989 0.1 0.0
H458 H 0.42013 0.14601 0.11591 0.0
H459 H 0.4309 0.08112 0.13723 0.0
H460 H 0.42514 0.12499 0.18349 0.0
H461 H 0.41296 0.10647 0.1681 0.0
H462 H 0.38975 0.1671 0.14526 0.0
C463 C 0.41857 0.1244 0.11432 0.0
C464 C 0.42145 0.09964 0.13891 0.0
C465 C 0.42479 0.11516 0.10518 0.0
C466 C 0.42239 0.13896 0.1776 0.0
C467 C 0.41567 0.12832 0.16871 0.0
C468 C 0.39879 0.14827 0.14363 0.0
C469 C 0.4124 0.10566 0.12152 0.0
C470 C 0.41034 0.11462 0.13167 0.0
C471 C 0.41359 0.14547 0.16065 0.0
C472 C 0.41071 0.13382 0.15083 0.0
H473 H 0.41647 0.04678 0.10865 0.0
H474 H 0.40555 0.0629 0.12448 0.0
H475 H 0.38984 0.15076 0.12876 0.0
H476 H 0.42632 0.20622 0.17134 0.0
H477 H 0.41533 0.18779 0.15595 0.0
C478 C 0.82181 0.06794 0.17161 0.0
C479 C 0.81434 0.08662 0.17861 0.0
C480 C 0.82769 0.07691 0.16244 0.0
C481 C 0.84019 0.1376 0.14731 0.0
H482 H 0.80659 0.09672 0.12807 0.0
C483 C 0.81637 0.18288 0.11054 0.0
C484 C 0.81234 0.16538 0.10273 0.0
C485 C 0.8226 0.17233 0.11946 0.0
C486 C 0.81661 0.10809 0.13325 0.0
H487 H 0.80902 0.12965 0.18166 0.0
H488 H 0.81946 0.14536 0.16564 0.0
H489 H 0.80717 0.08046 0.14443 0.0
H490 H 0.81367 0.12319 0.09801 0.0
H491 H 0.82542 0.10479 0.11349 0.0
H492 H 0.84944 0.16544 0.13612 0.0
C493 C 0.82073 0.12374 0.16726 0.0
C494 C 0.81686 0.09876 0.14269 0.0
C495 C 0.81476 0.11473 0.17645 0.0
C496 C 0.81651 0.13724 0.10388 0.0
C497 C 0.82298 0.12667 0.1128 0.0
C498 C 0.84016 0.14683 0.13782 0.0
C499 C 0.82634 0.10479 0.16004 0.0
C500 C 0.8283 0.11362 0.14987 0.0
C501 C 0.82522 0.14397 0.12082 0.0
C502 C 0.82796 0.13249 0.13067 0.0
H503 H 0.82187 0.04614 0.17303 0.0
H504 H 0.83239 0.06185 0.15711 0.0
H505 H 0.84935 0.14937 0.15265 0.0
H506 H 0.81335 0.2047 0.10993 0.0
H507 H 0.82395 0.1864 0.1254 0.0
C508 C 0.56594 0.86617 0.85426 0.0
C509 C 0.5631 0.8378 0.85313 0.0
C510 C 0.57213 0.87715 0.86315 0.0
C511 C 0.59081 0.85813 0.88811 0.0
H512 H 0.55518 0.92248 0.89481 0.0
C513 C 0.56497 0.88918 0.92683 0.0
C514 C 0.56365 0.91728 0.92894 0.0
C515 C 0.57102 0.88036 0.91762 0.0
C516 C 0.56559 0.90476 0.89304 0.0
H517 H 0.56623 0.79861 0.86032 0.0
H518 H 0.57632 0.81758 0.87574 0.0
H519 H 0.55488 0.90611 0.87847 0.0
H520 H 0.56969 0.95801 0.92327 0.0
H521 H 0.58031 0.94262 0.90732 0.0
H522 H 0.60044 0.85621 0.90291 0.0
C523 C 0.57415 0.83154 0.8698 0.0
C524 C 0.56551 0.89537 0.88361 0.0
C525 C 0.5682 0.82059 0.86091 0.0
C526 C 0.57032 0.9362 0.92188 0.0
C527 C 0.57627 0.92742 0.9127 0.0
C528 C 0.59066 0.86738 0.89759 0.0
C529 C 0.57541 0.86004 0.87116 0.0
C530 C 0.57785 0.87168 0.881 0.0
C531 C 0.57581 0.89947 0.91035 0.0
C532 C 0.57783 0.89065 0.90019 0.0
H533 H 0.56225 0.88001 0.84841 0.0
H534 H 0.57353 0.89916 0.86382 0.0
H535 H 0.60086 0.8401 0.88638 0.0
H536 H 0.55986 0.87407 0.93208 0.0
H537 H 0.57047 0.85867 0.91603 0.0
C538 C 0.17277 0.93373 0.86064 0.0
C539 C 0.17663 0.91621 0.85282 0.0
C540 C 0.16642 0.92323 0.86955 0.0
C541 C 0.17188 0.85881 0.88329 0.0
H542 H 0.14018 0.90072 0.90284 0.0
C543 C 0.16771 0.8192 0.92175 0.0
C544 C 0.17578 0.83788 0.92863 0.0
C545 C 0.16147 0.82811 0.91262 0.0
C546 C 0.14904 0.88876 0.89745 0.0
H547 H 0.17481 0.87407 0.84807 0.0
H548 H 0.16283 0.85578 0.86354 0.0
H549 H 0.1398 0.91671 0.88629 0.0
H550 H 0.18175 0.88088 0.93153 0.0
H551 H 0.17066 0.89647 0.91558 0.0
H552 H 0.18131 0.83106 0.89443 0.0
C553 C 0.16551 0.87762 0.86287 0.0
C554 C 0.14891 0.89795 0.88795 0.0
C555 C 0.1721 0.88814 0.85395 0.0
C556 C 0.17556 0.86596 0.92642 0.0
C557 C 0.16922 0.87489 0.91726 0.0
C558 C 0.17178 0.84951 0.89273 0.0
C559 C 0.1635 0.8949 0.8709 0.0
C560 C 0.16078 0.88341 0.88076 0.0
C561 C 0.16303 0.85592 0.91014 0.0
C562 C 0.16075 0.86461 0.89997 0.0
H563 H 0.17605 0.9555 0.86005 0.0
H564 H 0.16525 0.93729 0.87551 0.0
H565 H 0.18164 0.84725 0.87806 0.0
H566 H 0.16748 0.79743 0.92322 0.0
H567 H 0.15635 0.81303 0.90735 0.0
C568 C 0.42081 0.5688 0.61014 0.0
C569 C 0.428 0.58772 0.60317 0.0
C570 C 0.41444 0.57757 0.61928 0.0
C571 C 0.39993 0.63781 0.63431 0.0
H572 H 0.43389 0.59811 0.65375 0.0
C573 C 0.4217 0.68392 0.67116 0.0
C574 C 0.4261 0.66656 0.67897 0.0
C575 C 0.4158 0.67316 0.66224 0.0
C576 C 0.42375 0.60913 0.64852 0.0
H577 H 0.43234 0.63091 0.60013 0.0
H578 H 0.42106 0.64627 0.61609 0.0
H579 H 0.43426 0.58183 0.6374 0.0
H580 H 0.42564 0.62434 0.68371 0.0
H581 H 0.41445 0.60557 0.66823 0.0
H582 H 0.38962 0.66533 0.64544 0.0
C583 C 0.42038 0.62461 0.61448 0.0
C584 C 0.42406 0.59979 0.63908 0.0
C585 C 0.42684 0.61581 0.60531 0.0
C586 C 0.42251 0.6383 0.67784 0.0
C587 C 0.41637 0.62752 0.66891 0.0
C588 C 0.39941 0.64704 0.6438 0.0
C589 C 0.41502 0.60549 0.62167 0.0
C590 C 0.4125 0.61425 0.63182 0.0
C591 C 0.41389 0.64472 0.66088 0.0
C592 C 0.41172 0.63313 0.65102 0.0
H593 H 0.42131 0.54701 0.60873 0.0
H594 H 0.40996 0.56235 0.62459 0.0
H595 H 0.39066 0.64926 0.62891 0.0
H596 H 0.42426 0.70582 0.67176 0.0
H597 H 0.41422 0.68718 0.65628 0.0
C598 C 0.81495 0.61558 0.67606 0.0
C599 C 0.81379 0.58748 0.67819 0.0
C600 C 0.82134 0.62444 0.6669 0.0
C601 C 0.81753 0.5998 0.64227 0.0
H602 H 0.85203 0.66531 0.63593 0.0
C603 C 0.81919 0.63845 0.60352 0.0
C604 C 0.81566 0.66672 0.60238 0.0
C605 C 0.82526 0.62763 0.61245 0.0
C606 C 0.84222 0.64703 0.63757 0.0
H607 H 0.8204 0.5468 0.6726 0.0
H608 H 0.83165 0.56224 0.65673 0.0
H609 H 0.851 0.64915 0.65246 0.0
H610 H 0.81754 0.70596 0.6096 0.0
H611 H 0.82747 0.68724 0.62509 0.0
H612 H 0.80768 0.59821 0.6276 0.0
C613 C 0.82722 0.57742 0.66206 0.0
C614 C 0.84171 0.63775 0.64705 0.0
C615 C 0.82091 0.5686 0.67119 0.0
C616 C 0.82005 0.68405 0.6102 0.0
C617 C 0.82589 0.67325 0.61913 0.0
C618 C 0.81783 0.60919 0.63284 0.0
C619 C 0.82664 0.60536 0.65968 0.0
C620 C 0.82912 0.6142 0.64953 0.0
C621 C 0.82775 0.6448 0.62048 0.0
C622 C 0.82989 0.63318 0.63035 0.0
H623 H 0.8095 0.63066 0.68127 0.0
H624 H 0.82067 0.64611 0.6653 0.0
H625 H 0.80732 0.58185 0.64395 0.0
H626 H 0.81606 0.62452 0.59764 0.0
H627 H 0.82715 0.60567 0.61313 0.0
C628 C 0.56749 0.43292 0.42104 0.0
C629 C 0.56256 0.41566 0.42883 0.0
C630 C 0.57358 0.42204 0.41216 0.0
C631 C 0.56568 0.35807 0.39836 0.0
H632 H 0.60015 0.3978 0.37905 0.0
C633 C 0.5708 0.31749 0.36006 0.0
C634 C 0.56386 0.33636 0.35303 0.0
C635 C 0.57671 0.32631 0.36924 0.0
C636 C 0.5905 0.38646 0.38437 0.0
H637 H 0.56215 0.37345 0.43357 0.0
H638 H 0.57369 0.35443 0.41816 0.0
H639 H 0.60042 0.41387 0.39558 0.0
H640 H 0.55954 0.37953 0.34994 0.0
H641 H 0.57007 0.39498 0.36598 0.0
H642 H 0.55563 0.33083 0.38716 0.0
C643 C 0.57205 0.37642 0.41882 0.0
C644 C 0.59057 0.39569 0.39386 0.0
C645 C 0.5657 0.38733 0.42771 0.0
C646 C 0.56486 0.36446 0.35517 0.0
C647 C 0.57087 0.37331 0.36437 0.0
C648 C 0.56585 0.3487 0.38893 0.0
C649 C 0.57517 0.39356 0.41081 0.0
C650 C 0.57775 0.38194 0.40097 0.0
C651 C 0.57594 0.35423 0.37161 0.0
C652 C 0.57791 0.36302 0.38178 0.0
H653 H 0.56528 0.45487 0.42163 0.0
H654 H 0.57563 0.43602 0.40622 0.0
H655 H 0.55517 0.34717 0.40351 0.0
H656 H 0.57042 0.29569 0.35865 0.0
H657 H 0.58096 0.31113 0.3746 0.0
C658 C 0.17336 0.38675 0.35388 0.0
C659 C 0.17665 0.41507 0.35278 0.0
C660 C 0.16691 0.37581 0.36275 0.0
C661 C 0.14836 0.39494 0.38772 0.0
H662 H 0.1834 0.33011 0.3944 0.0
C663 C 0.17403 0.36381 0.42642 0.0
C664 C 0.17539 0.33572 0.42856 0.0
C665 C 0.16791 0.37258 0.41721 0.0
C666 C 0.17314 0.34796 0.39264 0.0
H667 H 0.174 0.45425 0.36 0.0
H668 H 0.16342 0.43535 0.37538 0.0
H669 H 0.18382 0.34651 0.37805 0.0
H670 H 0.16935 0.29496 0.42293 0.0
H671 H 0.15858 0.31025 0.40699 0.0
H672 H 0.13875 0.39695 0.40253 0.0
C673 C 0.16546 0.4214 0.36944 0.0
C674 C 0.17329 0.35737 0.3832 0.0
C675 C 0.17168 0.43231 0.36057 0.0
C676 C 0.16868 0.31675 0.42152 0.0
C677 C 0.16265 0.32549 0.41235 0.0
C678 C 0.14842 0.38565 0.3972 0.0
C679 C 0.1638 0.39292 0.37077 0.0
C680 C 0.1612 0.38124 0.38061 0.0
C681 C 0.1631 0.35343 0.40996 0.0
C682 C 0.16105 0.36222 0.39979 0.0
H683 H 0.17694 0.37288 0.34803 0.0
H684 H 0.1652 0.35383 0.36341 0.0
H685 H 0.13849 0.41312 0.386 0.0
H686 H 0.17917 0.37896 0.43165 0.0
H687 H 0.16846 0.39426 0.41561 0.0
C688 C 0.92601 0.11386 0.60536 0.0
C689 C 0.92655 0.08573 0.60323 0.0
C690 C 0.91982 0.12288 0.61452 0.0
C691 C 0.92374 0.09807 0.63907 0.0
H692 H 0.89055 0.16432 0.64565 0.0
C693 C 0.9243 0.13677 0.67785 0.0
C694 C 0.92799 0.16501 0.67897 0.0
C695 C 0.91784 0.12603 0.66895 0.0
C696 C 0.90002 0.14584 0.64395 0.0
H697 H 0.9189 0.04527 0.6088 0.0
H698 H 0.90804 0.06102 0.62468 0.0
H699 H 0.89072 0.14824 0.62912 0.0
H700 H 0.92611 0.20428 0.67176 0.0
H701 H 0.91558 0.18571 0.65634 0.0
H702 H 0.93418 0.09621 0.65367 0.0
C703 C 0.9128 0.07607 0.61934 0.0
C704 C 0.90002 0.1366 0.63446 0.0
C705 C 0.91888 0.06708 0.6102 0.0
C706 C 0.92348 0.18239 0.67118 0.0
C707 C 0.91728 0.17168 0.66228 0.0
C708 C 0.92398 0.10744 0.64851 0.0
C709 C 0.91411 0.10395 0.62173 0.0
C710 C 0.91211 0.11276 0.6319 0.0
C711 C 0.91514 0.14325 0.66093 0.0
C712 C 0.91243 0.1317 0.65108 0.0
H713 H 0.9319 0.12876 0.60017 0.0
H714 H 0.92104 0.14451 0.61614 0.0
H715 H 0.93358 0.07988 0.63732 0.0
H716 H 0.92751 0.1228 0.68371 0.0
H717 H 0.91576 0.1041 0.66829 0.0
C718 C 0.32112 0.18549 0.60993 0.0
C719 C 0.31329 0.16699 0.60294 0.0
C720 C 0.32735 0.17632 0.61903 0.0
C721 C 0.34064 0.11553 0.63393 0.0
H722 H 0.30715 0.15551 0.65345 0.0
C723 C 0.31862 0.0691 0.67072 0.0
C724 C 0.31421 0.08636 0.67855 0.0
C725 C 0.32458 0.07997 0.66181 0.0
C726 C 0.31716 0.1444 0.64819 0.0
H727 H 0.30772 0.12405 0.59982 0.0
H728 H 0.31885 0.10796 0.61572 0.0
H729 H 0.30708 0.17211 0.63713 0.0
H730 H 0.3147 0.1285 0.68336 0.0
H731 H 0.32608 0.14747 0.66792 0.0
H732 H 0.35062 0.08768 0.645 0.0
C733 C 0.32008 0.12962 0.61415 0.0
C734 C 0.31702 0.15392 0.63877 0.0
C735 C 0.31372 0.13883 0.60502 0.0
C736 C 0.31784 0.11462 0.67746 0.0
C737 C 0.32408 0.12551 0.66855 0.0
C738 C 0.34104 0.10615 0.6434 0.0
C739 C 0.32604 0.14839 0.62136 0.0
C740 C 0.32839 0.13938 0.63149 0.0
C741 C 0.32658 0.10843 0.6605 0.0
C742 C 0.32889 0.12015 0.65065 0.0
H743 H 0.32118 0.20732 0.60856 0.0
H744 H 0.33229 0.19125 0.62437 0.0
H745 H 0.34976 0.10402 0.6285 0.0
H746 H 0.31603 0.0472 0.67128 0.0
H747 H 0.32615 0.06603 0.65584 0.0
C748 C 0.06747 0.86441 0.35436 0.0
C749 C 0.06325 0.83629 0.35318 0.0
C750 C 0.0737 0.87491 0.36332 0.0
C751 C 0.09 0.85448 0.38843 0.0
H752 H 0.05743 0.92127 0.39487 0.0
C753 C 0.06369 0.88709 0.42693 0.0
C754 C 0.06367 0.91521 0.42907 0.0
C755 C 0.06981 0.87792 0.41777 0.0
C756 C 0.06699 0.90284 0.39318 0.0
H757 H 0.06393 0.79694 0.36038 0.0
H758 H 0.07408 0.81511 0.3759 0.0
H759 H 0.05716 0.90503 0.37851 0.0
H760 H 0.07206 0.95548 0.42351 0.0
H761 H 0.0828 0.93949 0.40765 0.0
H762 H 0.09872 0.85179 0.40331 0.0
C763 C 0.07297 0.82922 0.36996 0.0
C764 C 0.06693 0.89352 0.38374 0.0
C765 C 0.06699 0.81874 0.361 0.0
C766 C 0.07168 0.93369 0.4221 0.0
C767 C 0.0777 0.92456 0.41297 0.0
C768 C 0.08982 0.86368 0.39792 0.0
C769 C 0.07564 0.85757 0.37134 0.0
C770 C 0.07815 0.86898 0.38122 0.0
C771 C 0.07596 0.89671 0.41057 0.0
C772 C 0.07808 0.88783 0.40042 0.0
H773 H 0.06485 0.8785 0.34848 0.0
H774 H 0.07619 0.89677 0.36402 0.0
H775 H 0.09919 0.83576 0.38678 0.0
H776 H 0.05753 0.87232 0.43211 0.0
H777 H 0.06825 0.85632 0.41615 0.0
C778 C 0.67296 0.86361 0.42713 0.0
C779 C 0.67727 0.83545 0.42814 0.0
C780 C 0.66631 0.87443 0.41826 0.0
C781 C 0.64928 0.855 0.39314 0.0
H782 H 0.68205 0.92178 0.38685 0.0
C783 C 0.67585 0.8882 0.35476 0.0
C784 C 0.67621 0.91637 0.35269 0.0
C785 C 0.66948 0.87894 0.36388 0.0
C786 C 0.67242 0.90336 0.3885 0.0
H787 H 0.67624 0.79637 0.42079 0.0
H788 H 0.66537 0.81511 0.40543 0.0
H789 H 0.68247 0.90505 0.40315 0.0
H790 H 0.66809 0.95664 0.35831 0.0
H791 H 0.6569 0.94047 0.3741 0.0
H792 H 0.64038 0.8528 0.37826 0.0
C793 C 0.66673 0.829 0.41143 0.0
C794 C 0.67256 0.89376 0.39791 0.0
C795 C 0.67313 0.81818 0.42029 0.0
C796 C 0.66821 0.93481 0.35967 0.0
C797 C 0.66194 0.92558 0.36876 0.0
C798 C 0.64937 0.86449 0.38368 0.0
C799 C 0.66404 0.8574 0.41018 0.0
C800 C 0.66131 0.8692 0.40037 0.0
C801 C 0.6634 0.89766 0.3711 0.0
C802 C 0.6612 0.88862 0.38123 0.0
H803 H 0.67587 0.87748 0.43303 0.0
H804 H 0.66379 0.89633 0.41767 0.0
H805 H 0.64006 0.83628 0.39475 0.0
H806 H 0.68198 0.87346 0.34957 0.0
H807 H 0.67083 0.85729 0.36545 0.0
C808 C 0.91993 0.68513 0.17168 0.0
C809 C 0.9273 0.66647 0.1787 0.0
C810 C 0.914 0.67612 0.16253 0.0
C811 C 0.90115 0.61563 0.14742 0.0
H812 H 0.93638 0.65526 0.12834 0.0
C813 C 0.92544 0.56896 0.11093 0.0
C814 C 0.93047 0.58616 0.10314 0.0
C815 C 0.91901 0.5799 0.11977 0.0
C816 C 0.92589 0.64425 0.13347 0.0
H817 H 0.93227 0.62341 0.18183 0.0
H818 H 0.92168 0.60762 0.16584 0.0
H819 H 0.93537 0.67182 0.14466 0.0
H820 H 0.93067 0.6283 0.09833 0.0
H821 H 0.91851 0.64742 0.11364 0.0
H822 H 0.89178 0.58791 0.13623 0.0
C823 C 0.92057 0.62928 0.16743 0.0
C824 C 0.92541 0.65375 0.14288 0.0
C825 C 0.92662 0.63833 0.17661 0.0
C826 C 0.92707 0.61447 0.10419 0.0
C827 C 0.92036 0.62544 0.11303 0.0
C828 C 0.90137 0.60627 0.13795 0.0
C829 C 0.91518 0.6482 0.16018 0.0
C830 C 0.9134 0.63932 0.15002 0.0
C831 C 0.91714 0.60838 0.12105 0.0
C832 C 0.91418 0.62013 0.13086 0.0
H833 H 0.92007 0.70695 0.17306 0.0
H834 H 0.90949 0.69117 0.15716 0.0
H835 H 0.89156 0.60419 0.15274 0.0
H836 H 0.92784 0.54702 0.1104 0.0
H837 H 0.91691 0.56598 0.12572 0.0
C838 C 0.32272 0.56962 0.17184 0.0
C839 C 0.31493 0.58805 0.17887 0.0
C840 C 0.32877 0.57887 0.16273 0.0
C841 C 0.34147 0.63998 0.14785 0.0
H842 H 0.3086 0.5995 0.1283 0.0
C843 C 0.31863 0.68626 0.11114 0.0
C844 C 0.31465 0.669 0.10327 0.0
C845 C 0.32476 0.67544 0.12003 0.0
C846 C 0.31843 0.61077 0.13357 0.0
H847 H 0.30919 0.63095 0.18202 0.0
H848 H 0.31997 0.64716 0.16609 0.0
H849 H 0.30869 0.58281 0.14461 0.0
H850 H 0.31604 0.62696 0.09839 0.0
H851 H 0.32764 0.60809 0.11382 0.0
H852 H 0.35106 0.66812 0.1368 0.0
C853 C 0.32133 0.6255 0.16765 0.0
C854 C 0.31839 0.60119 0.14298 0.0
C855 C 0.31517 0.61621 0.17679 0.0
C856 C 0.31886 0.64083 0.10431 0.0
C857 C 0.32522 0.62999 0.11321 0.0
C858 C 0.34175 0.64944 0.13839 0.0
C859 C 0.32729 0.6068 0.1604 0.0
C860 C 0.32954 0.6159 0.15028 0.0
C861 C 0.32733 0.64703 0.1213 0.0
C862 C 0.32981 0.63526 0.13113 0.0
H863 H 0.32292 0.54779 0.1732 0.0
H864 H 0.33372 0.56399 0.15737 0.0
H865 H 0.35043 0.65164 0.15329 0.0
H866 H 0.3156 0.70809 0.11062 0.0
H867 H 0.32602 0.68934 0.12603 0.0
C868 C 0.06798 0.36624 0.85402 0.0
C869 C 0.06482 0.3379 0.85294 0.0
C870 C 0.07444 0.37722 0.86288 0.0
C871 C 0.09332 0.35819 0.88781 0.0
H872 H 0.05837 0.42304 0.89454 0.0
C873 C 0.06802 0.38954 0.92654 0.0
C874 C 0.06676 0.41764 0.92865 0.0
C875 C 0.07406 0.38069 0.91733 0.0
C876 C 0.0686 0.40518 0.89276 0.0
H877 H 0.06762 0.29875 0.86018 0.0
H878 H 0.07817 0.31773 0.87554 0.0
H879 H 0.05771 0.40657 0.87821 0.0
H880 H 0.07293 0.45834 0.92299 0.0
H881 H 0.08355 0.44293 0.90704 0.0
H882 H 0.10314 0.35625 0.90259 0.0
C883 C 0.07605 0.33166 0.86959 0.0
C884 C 0.06831 0.39573 0.88334 0.0
C885 C 0.06984 0.3207 0.86073 0.0
C886 C 0.07352 0.43654 0.9216 0.0
C887 C 0.07947 0.42773 0.91242 0.0
C888 C 0.09339 0.36752 0.89729 0.0
C889 C 0.07766 0.36015 0.8709 0.0
C890 C 0.08038 0.37186 0.88073 0.0
C891 C 0.0789 0.39979 0.91006 0.0
C892 C 0.0808 0.39096 0.8999 0.0
H893 H 0.06436 0.38008 0.84816 0.0
H894 H 0.07609 0.39922 0.86352 0.0
H895 H 0.10317 0.34002 0.88608 0.0
H896 H 0.06285 0.37443 0.93178 0.0
H897 H 0.07343 0.35901 0.91574 0.0
C898 C 0.67578 0.36701 0.92729 0.0
C899 C 0.67909 0.3387 0.92838 0.0
C900 C 0.6693 0.37795 0.91842 0.0
C901 C 0.65066 0.3588 0.89348 0.0
H902 H 0.68537 0.42384 0.88677 0.0
C903 C 0.67633 0.39015 0.8548 0.0
C904 C 0.67754 0.41825 0.85267 0.0
C905 C 0.67015 0.38131 0.86399 0.0
C906 C 0.6752 0.40593 0.88854 0.0
H907 H 0.67654 0.29953 0.92114 0.0
H908 H 0.66595 0.31844 0.90577 0.0
H909 H 0.68597 0.40741 0.9031 0.0
H910 H 0.67111 0.45894 0.85829 0.0
H911 H 0.66023 0.44353 0.87421 0.0
H912 H 0.64099 0.35675 0.87868 0.0
C913 C 0.66797 0.33238 0.91172 0.0
C914 C 0.67545 0.3965 0.89797 0.0
C915 C 0.6742 0.32147 0.92058 0.0
C916 C 0.67056 0.43714 0.85969 0.0
C917 C 0.66447 0.42833 0.86885 0.0
C918 C 0.65063 0.3681 0.884 0.0
C919 C 0.66621 0.36086 0.9104 0.0
C920 C 0.66349 0.37255 0.90057 0.0
C921 C 0.66512 0.4004 0.87123 0.0
C922 C 0.66314 0.39161 0.8814 0.0
H923 H 0.67929 0.38087 0.93315 0.0
H924 H 0.66753 0.39994 0.91778 0.0
H925 H 0.64089 0.34056 0.89521 0.0
H926 H 0.68168 0.37506 0.84958 0.0
H927 H 0.67085 0.35963 0.86559 0.0
C928 C 0.2891 0.82666 0.09707 0.0
C929 C 0.29525 0.79901 0.09601 0.0
C930 C 0.30608 0.84651 0.0988 0.0
C931 C 0.36842 0.85516 0.10554 0.0
H932 H 0.36258 0.92277 0.09126 0.0
C933 C 0.44514 0.92751 0.09643 0.0
C934 C 0.44088 0.95581 0.09677 0.0
C935 C 0.42716 0.90881 0.09802 0.0
C936 C 0.36435 0.90415 0.0954 0.0
H937 H 0.32401 0.77044 0.09629 0.0
H938 H 0.3534 0.80481 0.09904 0.0
H939 H 0.33111 0.88979 0.09104 0.0
H940 H 0.41469 0.98664 0.0996 0.0
H941 H 0.38353 0.95411 0.10233 0.0
H942 H 0.40217 0.8693 0.10956 0.0
C943 C 0.33553 0.81133 0.09873 0.0
C944 C 0.34623 0.88524 0.09532 0.0
C945 C 0.3186 0.79155 0.09707 0.0
C946 C 0.41857 0.96497 0.0992 0.0
C947 C 0.40065 0.94635 0.10072 0.0
C948 C 0.38666 0.87399 0.10554 0.0
C949 C 0.3296 0.83915 0.09946 0.0
C950 C 0.34809 0.86033 0.10029 0.0
C951 C 0.40458 0.91809 0.09992 0.0
C952 C 0.38489 0.8986 0.10041 0.0
H953 H 0.27125 0.83305 0.09633 0.0
H954 H 0.3008 0.86768 0.09949 0.0
H955 H 0.37036 0.83643 0.1096 0.0
H956 H 0.46211 0.9198 0.09456 0.0
H957 H 0.4307 0.88713 0.09731 0.0
C958 C 0.81989 0.28989 0.09792 0.0
C959 C 0.79674 0.29738 0.09631 0.0
C960 C 0.83672 0.30975 0.09964 0.0
C961 C 0.84787 0.38316 0.09526 0.0
H962 H 0.90283 0.3689 0.11034 0.0
C963 C 0.92 0.46323 0.0988 0.0
C964 C 0.94242 0.4538 0.09671 0.0
C965 C 0.90198 0.44479 0.1004 0.0
C966 C 0.88759 0.37311 0.10609 0.0
H967 H 0.77289 0.33155 0.09579 0.0
H968 H 0.8022 0.3663 0.09909 0.0
H969 H 0.87094 0.33612 0.11053 0.0
H970 H 0.96373 0.41757 0.09516 0.0
H971 H 0.93213 0.38523 0.09804 0.0
H972 H 0.86455 0.42012 0.09082 0.0
C973 C 0.80746 0.34505 0.09876 0.0
C974 C 0.86932 0.35433 0.10617 0.0
C975 C 0.79059 0.32513 0.09695 0.0
C976 C 0.94666 0.42547 0.09675 0.0
C977 C 0.92858 0.40697 0.09842 0.0
C978 C 0.86601 0.40203 0.09526 0.0
C979 C 0.83086 0.33767 0.09989 0.0
C980 C 0.84934 0.35888 0.10063 0.0
C981 C 0.90593 0.41647 0.10001 0.0
C982 C 0.8862 0.39706 0.10057 0.0
H983 H 0.82527 0.26869 0.09748 0.0
H984 H 0.85452 0.30319 0.10035 0.0
H985 H 0.83307 0.3872 0.09074 0.0
H986 H 0.91612 0.48492 0.09889 0.0
H987 H 0.88479 0.45272 0.10175 0.0
C988 C 0.42326 0.29105 0.18326 0.0
C989 C 0.44648 0.29828 0.18482 0.0
C990 C 0.40652 0.31111 0.18163 0.0
C991 C 0.39601 0.3846 0.18618 0.0
H992 H 0.34048 0.37107 0.17138 0.0
C993 C 0.32443 0.46552 0.18301 0.0
C994 C 0.30201 0.45637 0.18526 0.0
C995 C 0.34224 0.44686 0.18132 0.0
C996 C 0.35588 0.37507 0.17555 0.0
H997 H 0.47058 0.3322 0.18531 0.0
H998 H 0.44146 0.36729 0.18216 0.0
H999 H 0.37214 0.33796 0.17098 0.0
H1000 H 0.28047 0.4204 0.18697 0.0
H1001 H 0.31169 0.38767 0.18391 0.0
H1002 H 0.37973 0.42169 0.19073 0.0
C1003 C 0.43605 0.3461 0.18247 0.0
C1004 C 0.37403 0.3561 0.17535 0.0
C1005 C 0.45281 0.32597 0.18419 0.0
C1006 C 0.29753 0.4281 0.18526 0.0
C1007 C 0.3154 0.40937 0.18349 0.0
C1008 C 0.37801 0.40366 0.18629 0.0
C1009 C 0.41257 0.33898 0.18141 0.0
C1010 C 0.39421 0.36039 0.18079 0.0
C1011 C 0.33806 0.41859 0.18176 0.0
C1012 C 0.35762 0.39896 0.18108 0.0
H1013 H 0.41773 0.2699 0.18369 0.0
H1014 H 0.38867 0.30473 0.18098 0.0
H1015 H 0.41098 0.38844 0.19062 0.0
H1016 H 0.32848 0.48716 0.18288 0.0
H1017 H 0.35944 0.45458 0.17986 0.0
C1018 C 0.7947 0.92686 0.18457 0.0
C1019 C 0.80072 0.95459 0.18545 0.0
C1020 C 0.81172 0.90709 0.18279 0.0
C1021 C 0.87405 0.89838 0.1759 0.0
H1022 H 0.86809 0.83114 0.19038 0.0
C1023 C 0.95024 0.82508 0.1852 0.0
C1024 C 0.94564 0.79685 0.18482 0.0
C1025 C 0.93252 0.8441 0.18355 0.0
C1026 C 0.8699 0.84966 0.18619 0.0
H1027 H 0.82923 0.98342 0.18475 0.0
H1028 H 0.85876 0.94916 0.18196 0.0
H1029 H 0.83679 0.8643 0.19059 0.0
H1030 H 0.91916 0.7665 0.18185 0.0
H1031 H 0.88847 0.79958 0.17904 0.0
H1032 H 0.90773 0.88394 0.17187 0.0
C1033 C 0.84094 0.9425 0.18244 0.0
C1034 C 0.85186 0.86867 0.18626 0.0
C1035 C 0.82395 0.96223 0.18412 0.0
C1036 C 0.9233 0.78809 0.18228 0.0
C1037 C 0.90564 0.80702 0.18071 0.0
C1038 C 0.89223 0.87945 0.17592 0.0
C1039 C 0.83517 0.91458 0.18194 0.0
C1040 C 0.85372 0.89343 0.18119 0.0
C1041 C 0.90989 0.8352 0.18157 0.0
C1042 C 0.89038 0.85495 0.18111 0.0
H1043 H 0.77695 0.92033 0.1855 0.0
H1044 H 0.80651 0.88587 0.18225 0.0
H1045 H 0.876 0.91698 0.17177 0.0
H1046 H 0.96725 0.83247 0.18714 0.0
H1047 H 0.93628 0.86571 0.18429 0.0
C1048 C 0.66897 0.21547 0.93271 0.0
C1049 C 0.69145 0.2063 0.93482 0.0
C1050 C 0.65108 0.19684 0.93113 0.0
C1051 C 0.63717 0.125 0.92553 0.0
H1052 H 0.58261 0.13858 0.94093 0.0
C1053 C 0.57006 0.04109 0.93373 0.0
C1054 C 0.54687 0.04833 0.9354 0.0
C1055 C 0.58675 0.06114 0.932 0.0
C1056 C 0.59743 0.13467 0.9364 0.0
H1057 H 0.713 0.17029 0.93642 0.0
H1058 H 0.68165 0.1376 0.93358 0.0
H1059 H 0.61387 0.17181 0.9408 0.0
H1060 H 0.5228 0.08226 0.93601 0.0
H1061 H 0.55184 0.11734 0.9327 0.0
H1062 H 0.62076 0.08785 0.92112 0.0
C1063 C 0.67795 0.1593 0.93316 0.0
C1064 C 0.61544 0.15373 0.93637 0.0
C1065 C 0.69589 0.17801 0.93481 0.0
C1066 C 0.54053 0.07603 0.93481 0.0
C1067 C 0.55725 0.09614 0.93299 0.0
C1068 C 0.61902 0.10604 0.92547 0.0
C1069 C 0.65523 0.16856 0.93157 0.0
C1070 C 0.63563 0.14895 0.93104 0.0
C1071 C 0.5807 0.089 0.9318 0.0
C1072 C 0.59904 0.1104 0.93104 0.0
H1073 H 0.66493 0.23712 0.93259 0.0
H1074 H 0.63384 0.20458 0.92978 0.0
H1075 H 0.65243 0.12093 0.92127 0.0
H1076 H 0.5756 0.01994 0.93413 0.0
H1077 H 0.60458 0.05474 0.93126 0.0
C1078 C 0.19585 0.67846 0.93564 0.0
C1079 C 0.19141 0.70675 0.93555 0.0
C1080 C 0.17799 0.65972 0.93389 0.0
C1081 C 0.11544 0.654 0.93667 0.0
H1082 H 0.12136 0.58824 0.9214 0.0
C1083 C 0.04084 0.57596 0.9348 0.0
C1084 C 0.04725 0.54828 0.93535 0.0
C1085 C 0.05752 0.59617 0.93305 0.0
C1086 C 0.11945 0.60639 0.92576 0.0
H1087 H 0.16499 0.73753 0.93304 0.0
H1088 H 0.13403 0.70491 0.93007 0.0
H1089 H 0.15295 0.6214 0.92174 0.0
H1090 H 0.07606 0.52002 0.93408 0.0
H1091 H 0.10498 0.55497 0.93135 0.0
H1092 H 0.08254 0.63871 0.94107 0.0
C1093 C 0.15121 0.69721 0.93157 0.0
C1094 C 0.13756 0.6254 0.92592 0.0
C1095 C 0.16903 0.71588 0.93323 0.0
C1096 C 0.07047 0.54116 0.93371 0.0
C1097 C 0.08712 0.56129 0.93206 0.0
C1098 C 0.09748 0.63488 0.93661 0.0
C1099 C 0.15536 0.66894 0.93209 0.0
C1100 C 0.13581 0.6493 0.93144 0.0
C1101 C 0.081 0.58915 0.93191 0.0
C1102 C 0.0993 0.61064 0.93124 0.0
H1103 H 0.21288 0.67077 0.9374 0.0
H1104 H 0.18167 0.63803 0.93438 0.0
H1105 H 0.11371 0.67206 0.9411 0.0
H1106 H 0.02307 0.5821 0.93598 0.0
H1107 H 0.05204 0.61734 0.93279 0.0
C1108 C 0.54828 0.67698 0.84674 0.0
C1109 C 0.5525 0.70531 0.84654 0.0
C1110 C 0.5664 0.65855 0.84845 0.0
C1111 C 0.62889 0.65338 0.84512 0.0
H1112 H 0.62428 0.58843 0.8609 0.0
C1113 C 0.70423 0.57633 0.84694 0.0
C1114 C 0.698 0.54858 0.84654 0.0
C1115 C 0.68748 0.59643 0.84871 0.0
C1116 C 0.62582 0.60636 0.8564 0.0
H1117 H 0.57882 0.73652 0.84848 0.0
H1118 H 0.61022 0.70445 0.8514 0.0
H1119 H 0.59239 0.6212 0.86059 0.0
H1120 H 0.66945 0.52008 0.84813 0.0
H1121 H 0.6404 0.55485 0.85094 0.0
H1122 H 0.66173 0.63824 0.84057 0.0
C1123 C 0.59301 0.69646 0.85015 0.0
C1124 C 0.60754 0.62514 0.85625 0.0
C1125 C 0.57495 0.71482 0.84852 0.0
C1126 C 0.6749 0.54129 0.84838 0.0
C1127 C 0.65818 0.56131 0.85007 0.0
C1128 C 0.64703 0.63449 0.84518 0.0
C1129 C 0.58907 0.66812 0.84992 0.0
C1130 C 0.60882 0.64874 0.85055 0.0
C1131 C 0.6641 0.58922 0.85006 0.0
C1132 C 0.64567 0.61054 0.85074 0.0
H1133 H 0.5312 0.669 0.84525 0.0
H1134 H 0.56286 0.63679 0.8482 0.0
H1135 H 0.63025 0.6712 0.84055 0.0
H1136 H 0.7219 0.58261 0.84559 0.0
H1137 H 0.6928 0.61768 0.84884 0.0
C1138 C 0.0482 0.17714 0.84678 0.0
C1139 C 0.05265 0.20542 0.84667 0.0
C1140 C 0.06614 0.15847 0.8485 0.0
C1141 C 0.12868 0.15275 0.84537 0.0
H1142 H 0.12317 0.08723 0.86081 0.0
C1143 C 0.20336 0.07479 0.84715 0.0
C1144 C 0.19692 0.04712 0.84658 0.0
C1145 C 0.18672 0.09501 0.84894 0.0
C1146 C 0.12496 0.10532 0.8564 0.0
H1147 H 0.07918 0.23629 0.84879 0.0
H1148 H 0.11026 0.20381 0.85173 0.0
H1149 H 0.09156 0.12039 0.86054 0.0
H1150 H 0.16811 0.01889 0.84788 0.0
H1151 H 0.13925 0.05387 0.85072 0.0
H1152 H 0.1615 0.1374 0.84088 0.0
C1153 C 0.09302 0.19604 0.8504 0.0
C1154 C 0.10684 0.12433 0.85628 0.0
C1155 C 0.07514 0.21464 0.84875 0.0
C1156 C 0.17372 0.04002 0.84826 0.0
C1157 C 0.1571 0.06016 0.84997 0.0
C1158 C 0.14666 0.13364 0.84541 0.0
C1159 C 0.08885 0.16775 0.85007 0.0
C1160 C 0.10844 0.14814 0.85069 0.0
C1161 C 0.16325 0.088 0.85013 0.0
C1162 C 0.14497 0.1095 0.85084 0.0
H1163 H 0.03109 0.16939 0.8452 0.0
H1164 H 0.06243 0.13676 0.84817 0.0
H1165 H 0.13029 0.17072 0.84088 0.0
H1166 H 0.22112 0.08093 0.84593 0.0
H1167 H 0.1922 0.11618 0.8492 0.0
C1168 C 0.45046 0.42848 0.59711 0.0
C1169 C 0.44423 0.45621 0.59655 0.0
C1170 C 0.43367 0.40843 0.59886 0.0
C1171 C 0.37178 0.39866 0.60623 0.0
H1172 H 0.37704 0.33308 0.59082 0.0
C1173 C 0.29504 0.32669 0.59665 0.0
C1174 C 0.29953 0.29842 0.59665 0.0
C1175 C 0.31293 0.34544 0.59834 0.0
C1176 C 0.37544 0.35111 0.59527 0.0
H1177 H 0.41561 0.48474 0.59783 0.0
H1178 H 0.38647 0.45004 0.6006 0.0
H1179 H 0.40832 0.36627 0.59079 0.0
H1180 H 0.32606 0.26765 0.59896 0.0
H1181 H 0.35705 0.30025 0.60185 0.0
H1182 H 0.33831 0.38376 0.61035 0.0
C1183 C 0.40429 0.44357 0.59987 0.0
C1184 C 0.39346 0.37014 0.5953 0.0
C1185 C 0.42106 0.46355 0.59821 0.0
C1186 C 0.32199 0.28929 0.59883 0.0
C1187 C 0.33982 0.30796 0.60045 0.0
C1188 C 0.35361 0.37973 0.60611 0.0
C1189 C 0.41024 0.41567 0.60003 0.0
C1190 C 0.39183 0.39433 0.6007 0.0
C1191 C 0.33563 0.33622 0.6 0.0
C1192 C 0.3552 0.35585 0.60058 0.0
H1193 H 0.46818 0.42217 0.59592 0.0
H1194 H 0.43901 0.3872 0.59913 0.0
H1195 H 0.37002 0.4168 0.61062 0.0
H1196 H 0.27794 0.33438 0.59499 0.0
H1197 H 0.30921 0.36713 0.59792 0.0
C1198 C 0.79342 0.82637 0.5966 0.0
C1199 C 0.79935 0.79861 0.59574 0.0
C1200 C 0.8105 0.84606 0.5984 0.0
C1201 C 0.87271 0.85441 0.60545 0.0
H1202 H 0.86739 0.9216 0.5909 0.0
C1203 C 0.94948 0.92728 0.59654 0.0
C1204 C 0.94496 0.95553 0.59688 0.0
C1205 C 0.93162 0.90835 0.59807 0.0
C1206 C 0.86902 0.9031 0.59511 0.0
H1207 H 0.82776 0.76963 0.59648 0.0
H1208 H 0.85737 0.80373 0.59931 0.0
H1209 H 0.83595 0.88865 0.5906 0.0
H1210 H 0.91846 0.98602 0.59967 0.0
H1211 H 0.88755 0.95311 0.60229 0.0
H1212 H 0.90635 0.86866 0.6096 0.0
C1213 C 0.83958 0.81048 0.5988 0.0
C1214 C 0.8509 0.8842 0.59498 0.0
C1215 C 0.82254 0.79085 0.5971 0.0
C1216 C 0.92254 0.9644 0.59927 0.0
C1217 C 0.90476 0.94557 0.60073 0.0
C1218 C 0.89097 0.87323 0.60548 0.0
C1219 C 0.83391 0.83843 0.59929 0.0
C1220 C 0.85254 0.85947 0.60009 0.0
C1221 C 0.90894 0.91737 0.5999 0.0
C1222 C 0.88935 0.89771 0.60027 0.0
H1223 H 0.7757 0.833 0.59564 0.0
H1224 H 0.80537 0.86732 0.59892 0.0
H1225 H 0.87449 0.83582 0.6096 0.0
H1226 H 0.96654 0.91979 0.59471 0.0
H1227 H 0.93534 0.88672 0.59736 0.0
C1228 C 0.44897 0.82614 0.68454 0.0
C1229 C 0.44296 0.7984 0.68539 0.0
C1230 C 0.43196 0.8459 0.68273 0.0
C1231 C 0.36975 0.85456 0.67569 0.0
H1232 H 0.37517 0.92142 0.6904 0.0
C1233 C 0.293 0.92693 0.68501 0.0
C1234 C 0.29743 0.95521 0.68479 0.0
C1235 C 0.31088 0.90813 0.68335 0.0
C1236 C 0.37352 0.90301 0.68614 0.0
H1237 H 0.4145 0.76953 0.68459 0.0
H1238 H 0.38499 0.80376 0.68173 0.0
H1239 H 0.40662 0.88845 0.69057 0.0
H1240 H 0.32379 0.9859 0.68206 0.0
H1241 H 0.35475 0.95321 0.67921 0.0
H1242 H 0.33608 0.8689 0.67162 0.0
C1243 C 0.40279 0.81044 0.68227 0.0
C1244 C 0.39164 0.88411 0.6862 0.0
C1245 C 0.41978 0.79074 0.68398 0.0
C1246 C 0.31977 0.96426 0.68238 0.0
C1247 C 0.33759 0.94555 0.68078 0.0
C1248 C 0.35149 0.87338 0.67572 0.0
C1249 C 0.40854 0.83837 0.6818 0.0
C1250 C 0.38996 0.85948 0.68104 0.0
C1251 C 0.3335 0.9173 0.68149 0.0
C1252 C 0.35313 0.89773 0.681 0.0
H1253 H 0.4667 0.8327 0.68553 0.0
H1254 H 0.43714 0.86715 0.68222 0.0
H1255 H 0.36795 0.83606 0.6715 0.0
H1256 H 0.27599 0.91931 0.68686 0.0
H1257 H 0.30723 0.88646 0.68398 0.0
C1258 C 0.79142 0.42814 0.6843 0.0
C1259 C 0.79778 0.45583 0.68491 0.0
C1260 C 0.80816 0.408 0.68258 0.0
C1261 C 0.87013 0.39785 0.67542 0.0
H1262 H 0.86423 0.33218 0.69076 0.0
C1263 C 0.94629 0.32519 0.68521 0.0
C1264 C 0.94163 0.29695 0.68521 0.0
C1265 C 0.92855 0.34408 0.68345 0.0
C1266 C 0.86601 0.35024 0.68633 0.0
H1267 H 0.82655 0.48417 0.68377 0.0
H1268 H 0.85559 0.44929 0.68106 0.0
H1269 H 0.83313 0.36561 0.69071 0.0
H1270 H 0.91497 0.2664 0.68282 0.0
H1271 H 0.88423 0.29927 0.67981 0.0
H1272 H 0.9036 0.38271 0.6714 0.0
C1273 C 0.83773 0.44294 0.68171 0.0
C1274 C 0.84809 0.3694 0.68626 0.0
C1275 C 0.82101 0.46302 0.68334 0.0
C1276 C 0.91916 0.28801 0.68296 0.0
C1277 C 0.90148 0.30683 0.68127 0.0
C1278 C 0.8882 0.37877 0.67558 0.0
C1279 C 0.83165 0.41508 0.68151 0.0
C1280 C 0.84996 0.39362 0.68087 0.0
C1281 C 0.90582 0.33506 0.68172 0.0
C1282 C 0.88638 0.35485 0.68109 0.0
H1283 H 0.77365 0.42194 0.68542 0.0
H1284 H 0.80272 0.38681 0.68227 0.0
H1285 H 0.87208 0.41601 0.67106 0.0
H1286 H 0.9634 0.33272 0.68693 0.0
H1287 H 0.93238 0.36574 0.68388 0.0
C1288 C 0.57273 0.53847 0.43269 0.0
C1289 C 0.5504 0.54787 0.43495 0.0
C1290 C 0.59068 0.55693 0.43098 0.0
C1291 C 0.60489 0.62863 0.42525 0.0
H1292 H 0.65998 0.61439 0.44023 0.0
C1293 C 0.67309 0.71168 0.43295 0.0
C1294 C 0.69628 0.70413 0.43443 0.0
C1295 C 0.65615 0.69187 0.43134 0.0
C1296 C 0.64501 0.61847 0.43581 0.0
H1297 H 0.52915 0.58409 0.43666 0.0
H1298 H 0.56062 0.61646 0.43359 0.0
H1299 H 0.62845 0.58153 0.44034 0.0
H1300 H 0.72006 0.66989 0.43482 0.0
H1301 H 0.69057 0.63522 0.43172 0.0
H1302 H 0.62142 0.66559 0.42071 0.0
C1303 C 0.56415 0.59473 0.43316 0.0
C1304 C 0.62684 0.59963 0.43592 0.0
C1305 C 0.54614 0.5762 0.43494 0.0
C1306 C 0.70234 0.67636 0.43376 0.0
C1307 C 0.68537 0.65648 0.43206 0.0
C1308 C 0.62319 0.64737 0.42505 0.0
C1309 C 0.58674 0.58525 0.43142 0.0
C1310 C 0.60646 0.60465 0.43075 0.0
C1311 C 0.66194 0.66393 0.43107 0.0
C1312 C 0.64338 0.64276 0.43046 0.0
H1313 H 0.57662 0.51678 0.43256 0.0
H1314 H 0.60782 0.54901 0.42951 0.0
H1315 H 0.58949 0.63288 0.42111 0.0
H1316 H 0.66777 0.7329 0.43341 0.0
H1317 H 0.63835 0.69849 0.43074 0.0
C1318 C 0.04654 0.07504 0.43551 0.0
C1319 C 0.05109 0.04678 0.43568 0.0
C1320 C 0.06444 0.09377 0.43382 0.0
C1321 C 0.12685 0.09993 0.43717 0.0
H1322 H 0.12174 0.1646 0.42128 0.0
C1323 C 0.20173 0.17749 0.43507 0.0
C1324 C 0.19538 0.20522 0.43539 0.0
C1325 C 0.18505 0.15725 0.43339 0.0
C1326 C 0.12341 0.14675 0.42582 0.0
H1327 H 0.0778 0.01602 0.43373 0.0
H1328 H 0.10883 0.04861 0.43087 0.0
H1329 H 0.09011 0.13148 0.42166 0.0
H1330 H 0.1667 0.23351 0.43376 0.0
H1331 H 0.13777 0.19851 0.43112 0.0
H1332 H 0.15957 0.11548 0.44168 0.0
C1333 C 0.09152 0.05631 0.43211 0.0
C1334 C 0.10528 0.12777 0.42601 0.0
C1335 C 0.07367 0.03765 0.43371 0.0
C1336 C 0.17224 0.21233 0.43357 0.0
C1337 C 0.15559 0.19217 0.43198 0.0
C1338 C 0.14484 0.11901 0.43708 0.0
C1339 C 0.08723 0.08457 0.43236 0.0
C1340 C 0.10676 0.10425 0.43174 0.0
C1341 C 0.16163 0.1643 0.43206 0.0
C1342 C 0.1433 0.14285 0.43147 0.0
H1343 H 0.02935 0.08273 0.437 0.0
H1344 H 0.06065 0.11547 0.43409 0.0
H1345 H 0.12836 0.08218 0.44177 0.0
H1346 H 0.21943 0.17134 0.4364 0.0
H1347 H 0.19047 0.13604 0.43331 0.0
C1348 C 0.69813 0.07552 0.34656 0.0
C1349 C 0.69366 0.04725 0.34677 0.0
C1350 C 0.68029 0.09435 0.34824 0.0
C1351 C 0.61771 0.09975 0.34544 0.0
H1352 H 0.62345 0.16647 0.3602 0.0
C1353 C 0.54265 0.1772 0.347 0.0
C1354 C 0.54883 0.20491 0.34624 0.0
C1355 C 0.55952 0.15727 0.34881 0.0
C1356 C 0.62159 0.14805 0.35598 0.0
H1357 H 0.66725 0.0166 0.34948 0.0
H1358 H 0.63634 0.04936 0.35235 0.0
H1359 H 0.65517 0.13345 0.36007 0.0
H1360 H 0.57745 0.23353 0.34716 0.0
H1361 H 0.60672 0.19902 0.35001 0.0
H1362 H 0.58472 0.11458 0.34098 0.0
C1363 C 0.65351 0.05698 0.35079 0.0
C1364 C 0.63978 0.12912 0.35594 0.0
C1365 C 0.6713 0.03823 0.34918 0.0
C1366 C 0.57204 0.21236 0.34771 0.0
C1367 C 0.58889 0.19249 0.34942 0.0
C1368 C 0.59968 0.11877 0.34539 0.0
C1369 C 0.65766 0.08522 0.3501 0.0
C1370 C 0.63808 0.10486 0.35061 0.0
C1371 C 0.58297 0.1646 0.34981 0.0
C1372 C 0.60142 0.14333 0.35058 0.0
H1373 H 0.71515 0.08312 0.34472 0.0
H1374 H 0.68397 0.11602 0.34763 0.0
H1375 H 0.61603 0.08141 0.34115 0.0
H1376 H 0.5249 0.17082 0.34596 0.0
H1377 H 0.55421 0.13606 0.34926 0.0
C1378 C 0.19778 0.57486 0.34672 0.0
C1379 C 0.19328 0.54659 0.34685 0.0
C1380 C 0.17994 0.59368 0.34842 0.0
C1381 C 0.11732 0.59914 0.34562 0.0
H1382 H 0.12317 0.6658 0.36041 0.0
C1383 C 0.04234 0.67668 0.34727 0.0
C1384 C 0.04857 0.70437 0.34647 0.0
C1385 C 0.0592 0.65673 0.34908 0.0
C1386 C 0.12129 0.64738 0.35618 0.0
H1387 H 0.16683 0.51592 0.34945 0.0
H1388 H 0.13593 0.54865 0.35238 0.0
H1389 H 0.15487 0.63273 0.36024 0.0
H1390 H 0.07724 0.73293 0.34732 0.0
H1391 H 0.10647 0.69837 0.35018 0.0
H1392 H 0.08432 0.61403 0.34119 0.0
C1393 C 0.15312 0.55629 0.35085 0.0
C1394 C 0.13945 0.62843 0.35612 0.0
C1395 C 0.1709 0.53756 0.34921 0.0
C1396 C 0.0718 0.71178 0.3479 0.0
C1397 C 0.08862 0.69189 0.34962 0.0
C1398 C 0.0993 0.61818 0.34559 0.0
C1399 C 0.15729 0.58454 0.35024 0.0
C1400 C 0.13771 0.60419 0.35078 0.0
C1401 C 0.08267 0.66401 0.35004 0.0
C1402 C 0.10109 0.64271 0.35079 0.0
H1403 H 0.21482 0.58248 0.34492 0.0
H1404 H 0.18365 0.61535 0.34787 0.0
H1405 H 0.1156 0.58083 0.34131 0.0
H1406 H 0.02458 0.67033 0.34626 0.0
H1407 H 0.05386 0.63553 0.34955 0.0
C1408 C 0.46994 0.04118 0.04914 0.0
C1409 C 0.47532 0.02092 0.05592 0.0
C1410 C 0.47429 0.03672 0.03938 0.0
C1411 C 0.51052 0.99372 0.02335 0.0
H1412 H 0.46847 0.01828 1.00361 0.0
C1413 C 0.52099 0.96311 0.98339 0.0
C1414 C 0.5153 0.98292 0.97649 0.0
C1415 C 0.51678 0.96803 0.99312 0.0
C1416 C 0.48057 0.01156 1.00902 0.0
H1417 H 0.48852 0.97959 0.05765 0.0
H1418 H 0.49567 0.97182 0.0408 0.0
H1419 H 0.45904 0.02655 0.02034 0.0
H1420 H 0.50168 0.02397 0.97452 0.0
H1421 H 0.49482 0.0326 0.99135 0.0
H1422 H 0.53206 0.97874 1.01205 0.0
C1423 C 0.48866 0.9914 0.04298 0.0
C1424 C 0.47513 0.01632 0.01863 0.0
C1425 C 0.48436 0.99583 0.05268 0.0
C1426 C 0.50609 0.00807 0.9796 0.0
C1427 C 0.50196 0.01299 0.98928 0.0
C1428 C 0.51597 0.98898 1.01375 0.0
C1429 C 0.48409 0.01191 0.03621 0.0
C1430 C 0.48999 0.00738 0.02593 0.0
C1431 C 0.50683 0.9929 0.99617 0.0
C1432 C 0.50108 0.99783 1.00644 0.0
H1433 H 0.46305 0.06077 0.05138 0.0
H1434 H 0.47063 0.05304 0.03437 0.0
H1435 H 0.5226 0.98695 0.02877 0.0
H1436 H 0.528 0.94349 0.98125 0.0
H1437 H 0.52065 0.95201 0.99822 0.0
C1438 C 0.75571 0.25775 0.05209 0.0
C1439 C 0.7649 0.23266 0.05526 0.0
C1440 C 0.75173 0.26253 0.04239 0.0
C1441 C 0.76612 0.23822 0.01799 0.0
H1442 H 0.70923 0.2756 1.01123 0.0
C1443 C 0.73523 0.24507 0.97896 0.0
C1444 C 0.72621 0.27017 0.9757 0.0
C1445 C 0.73933 0.24056 0.98866 0.0
C1446 C 0.72531 0.26542 1.01299 0.0
H1447 H 0.77773 0.19319 0.0506 0.0
H1448 H 0.77064 0.20146 0.03361 0.0
H1449 H 0.71842 0.26751 0.02799 0.0
H1450 H 0.7138 0.30995 0.98024 0.0
H1451 H 0.72104 0.30211 0.99726 0.0
H1452 H 0.77298 0.23608 1.00298 0.0
C1453 C 0.76667 0.21755 0.03866 0.0
C1454 C 0.73062 0.26076 0.02261 0.0
C1455 C 0.77073 0.21277 0.04842 0.0
C1456 C 0.72067 0.29036 0.98249 0.0
C1457 C 0.72482 0.28583 0.99225 0.0
C1458 C 0.76081 0.24286 1.00837 0.0
C1459 C 0.75674 0.24235 0.03554 0.0
C1460 C 0.75111 0.24712 0.02525 0.0
C1461 C 0.7346 0.26102 0.99544 0.0
C1462 C 0.7403 0.25647 1.00573 0.0
H1463 H 0.7512 0.27371 0.05713 0.0
H1464 H 0.74461 0.2821 0.04026 0.0
H1465 H 0.78221 0.22804 0.01974 0.0
H1466 H 0.73952 0.22889 0.97397 0.0
H1467 H 0.74634 0.22098 0.99085 0.0
C1468 C 0.48694 0.25812 0.22899 0.0
C1469 C 0.47726 0.23329 0.22582 0.0
C1470 C 0.49093 0.26286 0.23868 0.0
C1471 C 0.47582 0.23923 0.26309 0.0
H1472 H 0.5333 0.27524 0.26988 0.0
C1473 C 0.50641 0.24616 0.30218 0.0
C1474 C 0.51587 0.27108 0.30537 0.0
C1475 C 0.50229 0.24155 0.29248 0.0
C1476 C 0.51706 0.26545 0.26811 0.0
H1477 H 0.46359 0.19423 0.2305 0.0
H1478 H 0.47071 0.20242 0.24751 0.0
H1479 H 0.52418 0.26705 0.25312 0.0
H1480 H 0.52903 0.31044 0.30074 0.0
H1481 H 0.52175 0.30242 0.28373 0.0
H1482 H 0.46873 0.23759 0.27809 0.0
C1483 C 0.47506 0.21835 0.24244 0.0
C1484 C 0.51179 0.26073 0.25849 0.0
C1485 C 0.47098 0.21361 0.23268 0.0
C1486 C 0.52181 0.29098 0.29854 0.0
C1487 C 0.51764 0.28635 0.28879 0.0
C1488 C 0.48109 0.24393 0.27272 0.0
C1489 C 0.48546 0.24288 0.24554 0.0
C1490 C 0.49107 0.2476 0.25584 0.0
C1491 C 0.50745 0.26172 0.28565 0.0
C1492 C 0.5018 0.25707 0.27537 0.0
H1493 H 0.4918 0.27392 0.22394 0.0
H1494 H 0.49842 0.28224 0.2408 0.0
H1495 H 0.45957 0.22945 0.26133 0.0
H1496 H 0.50179 0.23019 0.3072 0.0
H1497 H 0.49494 0.22211 0.29034 0.0
C1498 C 0.77214 0.04075 0.23305 0.0
C1499 C 0.76701 0.02048 0.22624 0.0
C1500 C 0.76798 0.03607 0.2428 0.0
C1501 C 0.75692 0.98057 0.26055 0.0
H1502 H 0.72845 0.03864 0.27528 0.0
C1503 C 0.72148 0.96227 0.29885 0.0
C1504 C 0.72674 0.98256 0.30563 0.0
C1505 C 0.72557 0.96687 0.28909 0.0
C1506 C 0.73657 0.02225 0.2713 0.0
H1507 H 0.75421 0.979 0.22446 0.0
H1508 H 0.74697 0.97101 0.2413 0.0
H1509 H 0.73903 0.04683 0.25866 0.0
H1510 H 0.7397 0.02399 0.30736 0.0
H1511 H 0.7468 0.03184 0.29051 0.0
H1512 H 0.75445 0.956 0.27318 0.0
C1513 C 0.75431 0.99047 0.23917 0.0
C1514 C 0.74273 0.027 0.26177 0.0
C1515 C 0.75836 0.99516 0.22947 0.0
C1516 C 0.73545 0.00781 0.30238 0.0
C1517 C 0.73942 0.01242 0.29267 0.0
C1518 C 0.75075 0.97582 0.27008 0.0
C1519 C 0.75874 0.01095 0.24597 0.0
C1520 C 0.75299 0.00623 0.25625 0.0
C1521 C 0.73485 0.99194 0.28589 0.0
C1522 C 0.74051 0.9966 0.2756 0.0
H1523 H 0.77877 0.06048 0.23083 0.0
H1524 H 0.77189 0.05219 0.24785 0.0
H1525 H 0.76505 0.96418 0.25657 0.0
H1526 H 0.71479 0.94259 0.3011 0.0
H1527 H 0.72157 0.95074 0.28405 0.0
C1528 C 0.22635 0.74802 0.98006 0.0
C1529 C 0.22452 0.77467 0.97635 0.0
C1530 C 0.23047 0.74364 0.98978 0.0
C1531 C 0.23119 0.77868 1.01358 0.0
H1532 H 0.26737 0.71499 0.02063 0.0
C1533 C 0.23972 0.74616 0.05288 0.0
C1534 C 0.26011 0.73354 0.05613 0.0
C1535 C 0.23622 0.75132 0.04318 0.0
C1536 C 0.25752 0.7331 0.01882 0.0
H1537 H 0.22532 0.81771 0.98 0.0
H1538 H 0.23333 0.81026 0.99693 0.0
H1539 H 0.2598 0.72439 1.0039 0.0
H1540 H 0.29287 0.71636 0.05166 0.0
H1541 H 0.28722 0.72631 0.03466 0.0
H1542 H 0.22992 0.78821 0.02845 0.0
C1543 C 0.23096 0.79256 0.99239 0.0
C1544 C 0.25276 0.73827 1.00917 0.0
C1545 C 0.22637 0.79692 0.98266 0.0
C1546 C 0.27695 0.72606 0.04939 0.0
C1547 C 0.27361 0.73167 0.03963 0.0
C1548 C 0.23626 0.77376 0.0232 0.0
C1549 C 0.2334 0.76582 0.99608 0.0
C1550 C 0.23921 0.76092 1.00639 0.0
C1551 C 0.25317 0.74451 0.03638 0.0
C1552 C 0.24917 0.75064 0.02601 0.0
H1553 H 0.22482 0.73041 0.9754 0.0
H1554 H 0.23147 0.72274 0.99231 0.0
H1555 H 0.22059 0.79622 1.01182 0.0
H1556 H 0.22616 0.75183 0.05784 0.0
H1557 H 0.21995 0.76039 0.04104 0.0
C1558 C 0.48441 0.75825 0.72959 0.0
C1559 C 0.47528 0.73323 0.72632 0.0
C1560 C 0.48845 0.76272 0.7393 0.0
C1561 C 0.49936 0.72565 0.76181 0.0
H1562 H 0.48859 0.79664 0.77338 0.0
C1563 C 0.5075 0.74394 0.80244 0.0
C1564 C 0.51634 0.76908 0.80573 0.0
C1565 C 0.50334 0.73956 0.79274 0.0
C1566 C 0.49203 0.7768 0.77024 0.0
H1567 H 0.46265 0.69353 0.73084 0.0
H1568 H 0.46957 0.70141 0.74789 0.0
H1569 H 0.47785 0.78895 0.75676 0.0
H1570 H 0.52837 0.80908 0.80125 0.0
H1571 H 0.52134 0.8013 0.78421 0.0
H1572 H 0.51359 0.71351 0.77528 0.0
C1573 C 0.47383 0.71748 0.74286 0.0
C1574 C 0.48577 0.77234 0.7607 0.0
C1575 C 0.46965 0.71304 0.73309 0.0
C1576 C 0.52158 0.78948 0.79898 0.0
C1577 C 0.51733 0.78509 0.78922 0.0
C1578 C 0.50564 0.73011 0.77135 0.0
C1579 C 0.48355 0.74229 0.74607 0.0
C1580 C 0.48935 0.7467 0.75635 0.0
C1581 C 0.50789 0.76016 0.78599 0.0
C1582 C 0.50205 0.75575 0.7757 0.0
H1583 H 0.48894 0.77434 0.7246 0.0
H1584 H 0.49615 0.78194 0.74146 0.0
H1585 H 0.50278 0.70581 0.75866 0.0
H1586 H 0.50325 0.72769 0.80741 0.0
H1587 H 0.49583 0.72023 0.79057 0.0
C1588 C 0.25498 0.9945 0.72912 0.0
C1589 C 0.26482 0.01915 0.72585 0.0
C1590 C 0.25121 0.98996 0.73885 0.0
C1591 C 0.24311 0.02672 0.76166 0.0
H1592 H 0.25143 0.95457 0.7727 0.0
C1593 C 0.23687 0.00654 0.80227 0.0
C1594 C 0.22685 0.98194 0.80549 0.0
C1595 C 0.24063 0.01124 0.79255 0.0
C1596 C 0.24868 0.97475 0.76971 0.0
H1597 H 0.27897 0.0581 0.73038 0.0
H1598 H 0.27259 0.05005 0.74746 0.0
H1599 H 0.26152 0.96246 0.75602 0.0
H1600 H 0.21235 0.94325 0.80087 0.0
H1601 H 0.21878 0.95155 0.78381 0.0
H1602 H 0.23031 0.03901 0.77537 0.0
C1603 C 0.26753 0.03436 0.74242 0.0
C1604 C 0.25456 0.97932 0.76014 0.0
C1605 C 0.27139 0.03889 0.73263 0.0
C1606 C 0.22008 0.96242 0.79866 0.0
C1607 C 0.22397 0.9671 0.78888 0.0
C1608 C 0.23725 0.02215 0.77124 0.0
C1609 C 0.25715 0.00992 0.74564 0.0
C1610 C 0.25182 0.00536 0.75597 0.0
C1611 C 0.23454 0.99147 0.78572 0.0
C1612 C 0.23995 0.99609 0.7754 0.0
H1613 H 0.24969 0.97875 0.72413 0.0
H1614 H 0.24296 0.97106 0.74101 0.0
H1615 H 0.24035 0.0469 0.75867 0.0
H1616 H 0.2423 0.02212 0.8073 0.0
H1617 H 0.24902 0.0301 0.79043 0.0
C1618 C 0.52084 0.46449 0.48292 0.0
C1619 C 0.51562 0.48472 0.4761 0.0
C1620 C 0.51665 0.46916 0.49267 0.0
C1621 C 0.48109 0.51297 0.5087 0.0
H1622 H 0.52271 0.4872 0.52841 0.0
C1623 C 0.47097 0.54282 0.54878 0.0
C1624 C 0.47625 0.52263 0.5556 0.0
C1625 C 0.47515 0.53811 0.53903 0.0
C1626 C 0.51073 0.49427 0.52301 0.0
H1627 H 0.50287 0.52622 0.47431 0.0
H1628 H 0.49602 0.53439 0.49117 0.0
H1629 H 0.53206 0.47901 0.51167 0.0
H1630 H 0.48907 0.48116 0.55741 0.0
H1631 H 0.4959 0.47293 0.54055 0.0
H1632 H 0.45976 0.52822 0.52003 0.0
C1633 C 0.50278 0.51467 0.48901 0.0
C1634 C 0.51613 0.48956 0.51339 0.0
C1635 C 0.50691 0.51001 0.47932 0.0
C1636 C 0.485 0.49735 0.55239 0.0
C1637 C 0.48911 0.49265 0.5427 0.0
C1638 C 0.47569 0.51768 0.51831 0.0
C1639 C 0.50718 0.49418 0.49582 0.0
C1640 C 0.50141 0.49888 0.5061 0.0
C1641 C 0.48466 0.5131 0.53589 0.0
C1642 C 0.49042 0.50837 0.52561 0.0
H1643 H 0.52747 0.44475 0.4807 0.0
H1644 H 0.52016 0.45285 0.4977 0.0
H1645 H 0.46911 0.52005 0.50329 0.0
H1646 H 0.46431 0.56254 0.55098 0.0
H1647 H 0.47161 0.5544 0.53399 0.0
C1648 C 0.77303 0.71368 0.54819 0.0
C1649 C 0.76646 0.73344 0.55497 0.0
C1650 C 0.76896 0.71807 0.53841 0.0
C1651 C 0.73175 0.75918 0.52215 0.0
H1652 H 0.77569 0.73718 0.50273 0.0
C1653 C 0.72167 0.78885 0.48206 0.0
C1654 C 0.72836 0.76924 0.47525 0.0
C1655 C 0.72576 0.78436 0.49183 0.0
C1656 C 0.76307 0.74318 0.50805 0.0
H1657 H 0.75134 0.77384 0.55668 0.0
H1658 H 0.74466 0.78153 0.53979 0.0
H1659 H 0.78466 0.7294 0.51953 0.0
H1660 H 0.74373 0.729 0.47346 0.0
H1661 H 0.75041 0.72111 0.49035 0.0
H1662 H 0.71015 0.77294 0.51068 0.0
C1663 C 0.75243 0.76236 0.54199 0.0
C1664 C 0.76825 0.73869 0.5177 0.0
C1665 C 0.75645 0.75799 0.5517 0.0
C1666 C 0.73853 0.74474 0.47847 0.0
C1667 C 0.74255 0.74025 0.48818 0.0
C1668 C 0.72656 0.76365 0.51251 0.0
C1669 C 0.75823 0.74232 0.53521 0.0
C1670 C 0.75268 0.74669 0.52489 0.0
C1671 C 0.73661 0.76015 0.495 0.0
C1672 C 0.74213 0.75568 0.50531 0.0
H1673 H 0.78069 0.69451 0.55044 0.0
H1674 H 0.77357 0.70211 0.5334 0.0
H1675 H 0.71914 0.7652 0.52748 0.0
H1676 H 0.71389 0.80798 0.47984 0.0
H1677 H 0.72105 0.80023 0.49686 0.0
C1678 C 0.72194 0.46334 0.7985 0.0
C1679 C 0.72814 0.483 0.80537 0.0
C1680 C 0.72591 0.46821 0.78875 0.0
C1681 C 0.7622 0.51111 0.77266 0.0
H1682 H 0.71903 0.48792 0.75314 0.0
C1683 C 0.77159 0.542 0.73263 0.0
C1684 C 0.76566 0.52215 0.72578 0.0
C1685 C 0.76756 0.53721 0.74239 0.0
C1686 C 0.73142 0.49428 0.75849 0.0
H1687 H 0.74242 0.52376 0.80726 0.0
H1688 H 0.74888 0.53229 0.79041 0.0
H1689 H 0.71013 0.47945 0.7699 0.0
H1690 H 0.75176 0.48119 0.72394 0.0
H1691 H 0.74515 0.47283 0.7408 0.0
H1692 H 0.78349 0.52596 0.76124 0.0
C1693 C 0.74153 0.51282 0.79251 0.0
C1694 C 0.7263 0.48939 0.76812 0.0
C1695 C 0.73763 0.50796 0.80221 0.0
C1696 C 0.75635 0.49712 0.72897 0.0
C1697 C 0.75237 0.49236 0.73867 0.0
C1698 C 0.76732 0.51601 0.76303 0.0
C1699 C 0.73613 0.49287 0.78564 0.0
C1700 C 0.7416 0.49777 0.77535 0.0
C1701 C 0.75753 0.51246 0.74551 0.0
C1702 C 0.75203 0.50762 0.75581 0.0
H1703 H 0.71469 0.44387 0.80067 0.0
H1704 H 0.72163 0.45229 0.78366 0.0
H1705 H 0.77462 0.51744 0.77801 0.0
H1706 H 0.7787 0.56152 0.73044 0.0
H1707 H 0.77166 0.55322 0.74746 0.0
C1708 C 0.21895 0.29205 0.48306 0.0
C1709 C 0.22488 0.27204 0.47627 0.0
C1710 C 0.2228 0.28739 0.49283 0.0
C1711 C 0.23437 0.23206 0.51058 0.0
H1712 H 0.26143 0.29061 0.52553 0.0
C1713 C 0.26962 0.21385 0.54891 0.0
C1714 C 0.26418 0.23397 0.55573 0.0
C1715 C 0.26542 0.21854 0.53916 0.0
C1716 C 0.25368 0.27408 0.52149 0.0
H1717 H 0.23877 0.23103 0.47453 0.0
H1718 H 0.24544 0.22308 0.4914 0.0
H1719 H 0.25104 0.29879 0.50889 0.0
H1720 H 0.25072 0.27515 0.55755 0.0
H1721 H 0.2434 0.28312 0.54073 0.0
H1722 H 0.23701 0.20735 0.52318 0.0
C1723 C 0.23773 0.24232 0.48925 0.0
C1724 C 0.24764 0.27883 0.51194 0.0
C1725 C 0.23401 0.24699 0.47952 0.0
C1726 C 0.25513 0.25911 0.55253 0.0
C1727 C 0.25103 0.26379 0.54284 0.0
C1728 C 0.2404 0.22732 0.52013 0.0
C1729 C 0.2325 0.26255 0.49604 0.0
C1730 C 0.23794 0.25787 0.50635 0.0
C1731 C 0.25583 0.2435 0.53601 0.0
C1732 C 0.25015 0.24826 0.52572 0.0
H1733 H 0.21193 0.31157 0.48081 0.0
H1734 H 0.2183 0.30331 0.49788 0.0
H1735 H 0.22667 0.21553 0.50654 0.0
H1736 H 0.27657 0.19426 0.55111 0.0
H1737 H 0.26962 0.20256 0.53409 0.0
C1738 C 0.22085 0.46277 0.29888 0.0
C1739 C 0.2263 0.48294 0.30568 0.0
C1740 C 0.22497 0.46742 0.28912 0.0
C1741 C 0.23641 0.52277 0.27137 0.0
H1742 H 0.26458 0.46452 0.25662 0.0
C1743 C 0.27214 0.54112 0.23311 0.0
C1744 C 0.26705 0.52083 0.2263 0.0
C1745 C 0.26789 0.53647 0.24286 0.0
C1746 C 0.25653 0.48097 0.2606 0.0
H1747 H 0.23958 0.52421 0.30745 0.0
H1748 H 0.2467 0.53214 0.2906 0.0
H1749 H 0.25386 0.45636 0.27322 0.0
H1750 H 0.2542 0.47937 0.22453 0.0
H1751 H 0.24679 0.47146 0.24134 0.0
H1752 H 0.23905 0.54738 0.25874 0.0
C1753 C 0.23918 0.51279 0.29274 0.0
C1754 C 0.25029 0.47623 0.27013 0.0
C1755 C 0.23519 0.50812 0.30245 0.0
C1756 C 0.25834 0.49555 0.22953 0.0
C1757 C 0.25419 0.4909 0.23923 0.0
C1758 C 0.24263 0.5275 0.26183 0.0
C1759 C 0.23445 0.4924 0.28594 0.0
C1760 C 0.24017 0.49707 0.27565 0.0
C1761 C 0.25859 0.51138 0.24603 0.0
C1762 C 0.25277 0.50667 0.25631 0.0
H1763 H 0.21403 0.44314 0.30111 0.0
H1764 H 0.22085 0.45137 0.28407 0.0
H1765 H 0.22839 0.53922 0.27535 0.0
H1766 H 0.27882 0.56083 0.23089 0.0
H1767 H 0.27179 0.5526 0.24791 0.0
C1768 C 0.00522 0.00701 0.47961 0.0
C1769 C 0.01517 0.98235 0.4764 0.0
C1770 C 0.00139 0.0117 0.48932 0.0
C1771 C 0.99362 0.97536 0.51228 0.0
H1772 H 0.00177 0.04779 0.5231 0.0
C1773 C 0.98808 0.99592 0.55284 0.0
C1774 C 0.97795 0.02044 0.55607 0.0
C1775 C 0.99177 0.99125 0.54312 0.0
C1776 C -0.00093 0.02753 0.52017 0.0
H1777 H 0.02937 0.94351 0.48104 0.0
H1778 H 0.0229 0.95183 0.49809 0.0
H1779 H 0.01155 0.03965 0.5064 0.0
H1780 H 0.96325 0.05907 0.55147 0.0
H1781 H 0.96953 0.05079 0.5344 0.0
H1782 H 0.98119 0.96324 0.52605 0.0
C1783 C 0.01779 0.96742 0.49301 0.0
C1784 C 0.00477 0.02281 0.51058 0.0
C1785 C 0.02169 0.96272 0.48324 0.0
C1786 C 0.97107 0.03996 0.54925 0.0
C1787 C 0.97486 0.03529 0.53947 0.0
C1788 C 0.98794 0.98008 0.52186 0.0
C1789 C 0.00737 0.9919 0.49617 0.0
C1790 C 0.00211 0.99666 0.50649 0.0
C1791 C 0.98546 0.01095 0.53629 0.0
C1792 C 0.99061 0.00622 0.52595 0.0
H1793 H -7e-05 0.02267 0.47459 0.0
H1794 H 0.99307 0.03061 0.49143 0.0
H1795 H 0.99092 0.9551 0.50935 0.0
H1796 H 0.99362 0.98034 0.55785 0.0
H1797 H 0.00022 0.97244 0.54098 0.0
C1798 C 0.98448 0.25811 0.72954 0.0
C1799 C 0.97572 0.23286 0.72632 0.0
C1800 C 0.9888 0.26265 0.73923 0.0
C1801 C 0.97613 0.23707 0.76363 0.0
H1802 H 0.03258 0.27578 0.77007 0.0
C1803 C 0.00846 0.24398 0.80248 0.0
C1804 C 0.01719 0.26923 0.80571 0.0
C1805 C 0.00407 0.23952 0.79279 0.0
C1806 C 0.01663 0.26522 0.76841 0.0
H1807 H 0.96398 0.19283 0.73091 0.0
H1808 H 0.97164 0.20071 0.74788 0.0
H1809 H 0.02275 0.26796 0.75336 0.0
H1810 H 0.0288 0.30933 0.80116 0.0
H1811 H 0.02104 0.30158 0.78418 0.0
H1812 H 0.97001 0.23432 0.77868 0.0
C1813 C 0.97502 0.2171 0.74287 0.0
C1814 C 0.01095 0.26071 0.75881 0.0
C1815 C 0.97063 0.21255 0.73313 0.0
C1816 C 0.02218 0.28962 0.79892 0.0
C1817 C 0.01773 0.28514 0.78918 0.0
C1818 C 0.9818 0.24158 0.77323 0.0
C1819 C 0.98457 0.24207 0.74602 0.0
C1820 C 0.9906 0.24661 0.75628 0.0
C1821 C 0.00822 0.26017 0.78602 0.0
C1822 C 0.00216 0.25567 0.77576 0.0
H1823 H 0.98841 0.27438 0.72454 0.0
H1824 H 0.9956 0.28235 0.74139 0.0
H1825 H 0.96017 0.22651 0.76197 0.0
H1826 H 0.0046 0.22765 0.80746 0.0
H1827 H -0.0027 0.21982 0.79062 0.0
C1828 C 0.97187 0.71175 0.23276 0.0
C1829 C 0.9778 0.73173 0.22595 0.0
C1830 C 0.976 0.7163 0.24252 0.0
C1831 C 0.01243 0.75878 0.25864 0.0
H1832 H 0.96956 0.7351 0.27823 0.0
C1833 C 0.02235 0.78905 0.29867 0.0
C1834 C 0.01632 0.76925 0.30553 0.0
C1835 C 0.01828 0.7843 0.28892 0.0
C1836 C 0.98189 0.74158 0.27286 0.0
H1837 H 0.99179 0.77268 0.22418 0.0
H1838 H -0.00145 0.78063 0.24105 0.0
H1839 H 0.96043 0.72698 0.26147 0.0
H1840 H 0.00222 0.7284 0.3074 0.0
H1841 H 0.99558 0.72007 0.29054 0.0
H1842 H 0.03389 0.77337 0.27002 0.0
C1843 C 0.99127 0.76118 0.23888 0.0
C1844 C 0.97662 0.7369 0.26323 0.0
C1845 C 0.9872 0.75665 0.22918 0.0
C1846 C 0.0069 0.74429 0.30236 0.0
C1847 C 0.00289 0.73955 0.29266 0.0
C1848 C 0.0177 0.76345 0.26826 0.0
C1849 C 0.98613 0.74093 0.24569 0.0
C1850 C 0.99179 0.74549 0.25598 0.0
C1851 C 0.00812 0.75964 0.28581 0.0
C1852 C 0.00252 0.7549 0.27552 0.0
H1853 H 0.96469 0.69231 0.23053 0.0
H1854 H 0.97191 0.70017 0.24755 0.0
H1855 H 0.02475 0.76527 0.25327 0.0
H1856 H 0.02954 0.80854 0.30086 0.0
H1857 H 0.02243 0.80032 0.28385 0.0
C1858 C 0.00781 0.50659 0.97953 0.0
C1859 C 0.01713 0.48164 0.97628 0.0
C1860 C 0.00391 0.51116 0.98924 0.0
C1861 C 0.01875 0.48666 1.01357 0.0
H1862 H 0.96172 0.5235 0.0205 0.0
C1863 C 0.98814 0.49301 0.05269 0.0
C1864 C 0.97889 0.51796 0.05597 0.0
C1865 C 0.99229 0.48864 0.04298 0.0
C1866 C 0.97784 0.51348 0.0187 0.0
H1867 H 0.03029 0.44222 0.98083 0.0
H1868 H 0.02334 0.45013 0.99787 0.0
H1869 H 0.97073 0.51559 1.00371 0.0
H1870 H 0.96617 0.55765 0.05146 0.0
H1871 H 0.97351 0.55005 0.03444 0.0
H1872 H 0.02582 0.4845 0.02856 0.0
C1873 C 0.0192 0.46626 0.99285 0.0
C1874 C 0.98305 0.50892 1.00905 0.0
C1875 C 0.02317 0.46169 0.98307 0.0
C1876 C 0.97323 0.53817 0.0492 0.0
C1877 C 0.97742 0.53377 0.03944 0.0
C1878 C 0.01353 0.4912 0.02321 0.0
C1879 C 0.00913 0.49092 0.99604 0.0
C1880 C 0.00359 0.49548 1.00635 0.0
C1881 C 0.98737 0.50909 0.03622 0.0
C1882 C 0.99298 0.50463 0.02591 0.0
H1883 H 0.00314 0.5226 0.97453 0.0
H1884 H -0.00331 0.53064 0.99142 0.0
H1885 H 0.03487 0.47663 1.01177 0.0
H1886 H 0.99255 0.47682 0.05765 0.0
H1887 H -0.00055 0.46916 0.04077 0.0
C1888 C 0.53364 0.09628 0.09851 0.0
C1889 C 0.53422 0.0682 0.09635 0.0
C1890 C 0.55397 0.11055 0.10046 0.0
C1891 C 0.61684 0.10305 0.10551 0.0
H1892 H 0.62048 0.1725 0.09215 0.0
C1893 C 0.70261 0.15415 0.09482 0.0
C1894 C 0.70433 0.18288 0.09487 0.0
C1895 C 0.68182 0.14122 0.09705 0.0
C1896 C 0.61966 0.15345 0.09609 0.0
H1897 H 0.55642 0.0327 0.09504 0.0
H1898 H 0.59221 0.0578 0.09823 0.0
H1899 H 0.58431 0.14732 0.0923 0.0
H1900 H 0.68574 0.22051 0.09775 0.0
H1901 H 0.64918 0.1978 0.10167 0.0
H1902 H 0.65258 0.10892 0.10899 0.0
C1903 C 0.57594 0.06873 0.09856 0.0
C1904 C 0.59888 0.13893 0.09618 0.0
C1905 C 0.55546 0.05432 0.0967 0.0
C1906 C 0.68496 0.19836 0.09761 0.0
C1907 C 0.66402 0.18536 0.0998 0.0
C1908 C 0.6377 0.11758 0.10539 0.0
C1909 C 0.57547 0.0972 0.10017 0.0
C1910 C 0.59725 0.11337 0.10078 0.0
C1911 C 0.66213 0.15664 0.09938 0.0
C1912 C 0.63943 0.14275 0.10055 0.0
H1913 H 0.51747 0.10747 0.09844 0.0
H1914 H 0.55287 0.13228 0.10193 0.0
H1915 H 0.61612 0.08364 0.10924 0.0
H1916 H 0.71723 0.14154 0.09281 0.0
H1917 H 0.68094 0.11912 0.09655 0.0
C1918 C 0.55702 0.1944 0.18487 0.0
C1919 C 0.53585 0.18073 0.18602 0.0
C1920 C 0.57725 0.17958 0.18294 0.0
C1921 C 0.60068 0.10987 0.18631 0.0
H1922 H 0.65228 0.13748 0.17151 0.0
C1923 C 0.6867 0.05052 0.18418 0.0
C1924 C 0.70622 0.06659 0.18623 0.0
C1925 C 0.66546 0.06299 0.1821 0.0
C1926 C 0.63799 0.12949 0.17566 0.0
H1927 H 0.51892 0.14115 0.18532 0.0
H1928 H 0.55386 0.11558 0.18171 0.0
H1929 H 0.61576 0.16267 0.17164 0.0
H1930 H 0.71909 0.10826 0.18712 0.0
H1931 H 0.6823 0.12978 0.18355 0.0
H1932 H 0.62297 0.07709 0.19051 0.0
C1933 C 0.55513 0.13754 0.18261 0.0
C1934 C 0.6171 0.14397 0.17576 0.0
C1935 C 0.53506 0.15225 0.18463 0.0
C1936 C 0.70435 0.09525 0.18565 0.0
C1937 C 0.68326 0.10764 0.18351 0.0
C1938 C 0.62149 0.09539 0.18618 0.0
C1939 C 0.57661 0.15085 0.18203 0.0
C1940 C 0.5983 0.13456 0.18122 0.0
C1941 C 0.66343 0.09172 0.18194 0.0
C1942 C 0.64052 0.10527 0.181 0.0
H1943 H 0.55816 0.21632 0.18591 0.0
H1944 H 0.59352 0.1905 0.1826 0.0
H1945 H 0.58675 0.10222 0.19074 0.0
H1946 H 0.6876 0.02841 0.18454 0.0
H1947 H 0.6505 0.05017 0.18082 0.0
C1948 C 0.45377 0.90385 0.93709 0.0
C1949 C 0.45543 0.93257 0.93683 0.0
C1950 C 0.43307 0.89071 0.93487 0.0
C1951 C 0.37078 0.90291 0.93538 0.0
H1952 H 0.36792 0.83177 0.92312 0.0
C1953 C 0.28498 0.84538 0.933 0.0
C1954 C 0.28545 0.81765 0.93567 0.0
C1955 C 0.30539 0.85941 0.93099 0.0
C1956 C 0.36845 0.85156 0.92659 0.0
H1957 H 0.43682 0.96995 0.9336 0.0
H1958 H 0.40043 0.94688 0.92969 0.0
H1959 H 0.4043 0.85722 0.92326 0.0
H1960 H 0.30758 0.78243 0.93779 0.0
H1961 H 0.34354 0.80713 0.93446 0.0
H1962 H 0.33527 0.89705 0.93898 0.0
C1963 C 0.41524 0.9346 0.93171 0.0
C1964 C 0.38927 0.86618 0.92665 0.0
C1965 C 0.43609 0.94782 0.9339 0.0
C1966 C 0.30671 0.80378 0.93574 0.0
C1967 C 0.32728 0.81795 0.93381 0.0
C1968 C 0.35002 0.88833 0.93532 0.0
C1969 C 0.4134 0.9059 0.93235 0.0
C1970 C 0.39076 0.89183 0.93119 0.0
C1971 C 0.32687 0.84616 0.9317 0.0
C1972 C 0.34865 0.8623 0.93104 0.0
H1973 H 0.46836 0.8914 0.93925 0.0
H1974 H 0.43225 0.86864 0.93555 0.0
H1975 H 0.37139 0.92234 0.93909 0.0
H1976 H 0.2688 0.85655 0.93273 0.0
H1977 H 0.30437 0.8809 0.92914 0.0
C1978 C 0.43573 0.79778 0.84762 0.0
C1979 C 0.45534 0.81392 0.84578 0.0
C1980 C 0.41442 0.81018 0.84963 0.0
C1981 C 0.38673 0.87648 0.85621 0.0
H1982 H 0.33623 0.85005 0.84057 0.0
C1983 C 0.30651 0.94216 0.8466 0.0
C1984 C 0.28533 0.92866 0.84526 0.0
C1985 C 0.3266 0.92715 0.84861 0.0
C1986 C 0.34994 0.85746 0.84515 0.0
H1987 H 0.4683 0.8556 0.84523 0.0
H1988 H 0.43139 0.87701 0.8487 0.0
H1989 H 0.37234 0.82475 0.84099 0.0
H1990 H 0.26823 0.88914 0.84568 0.0
H1991 H 0.30291 0.86324 0.84941 0.0
H1992 H 0.36441 0.9096 0.86018 0.0
C1993 C 0.43233 0.85487 0.84861 0.0
C1994 C 0.37069 0.84287 0.84539 0.0
C1995 C 0.45348 0.84255 0.84653 0.0
C1996 C 0.28437 0.90013 0.84652 0.0
C1997 C 0.3043 0.88523 0.84861 0.0
C1998 C 0.36591 0.89107 0.85599 0.0
C1999 C 0.41241 0.83891 0.84995 0.0
C2000 C 0.38948 0.85246 0.85078 0.0
C2001 C 0.3258 0.8984 0.8494 0.0
C2002 C 0.34738 0.88197 0.85033 0.0
H2003 H 0.43663 0.77569 0.84711 0.0
H2004 H 0.39939 0.79733 0.85073 0.0
H2005 H 0.40083 0.88424 0.86052 0.0
H2006 H 0.30778 0.96412 0.84567 0.0
H2007 H 0.34289 0.93797 0.84911 0.0
C2008 C 0.70828 0.65541 0.59685 0.0
C2009 C 0.70769 0.68375 0.59514 0.0
C2010 C 0.68807 0.64106 0.59894 0.0
C2011 C 0.6259 0.64848 0.60534 0.0
H2012 H 0.62033 0.58044 0.59125 0.0
C2013 C 0.53879 0.59885 0.59568 0.0
C2014 C 0.537 0.57015 0.59537 0.0
C2015 C 0.55983 0.61148 0.59774 0.0
C2016 C 0.62171 0.59908 0.59539 0.0
H2017 H 0.68562 0.71954 0.59475 0.0
H2018 H 0.65 0.69432 0.59818 0.0
H2019 H 0.65659 0.6054 0.59095 0.0
H2020 H 0.55571 0.53218 0.59747 0.0
H2021 H 0.59269 0.55435 0.60107 0.0
H2022 H 0.59058 0.64245 0.60948 0.0
C2023 C 0.66621 0.68324 0.59804 0.0
C2024 C 0.64255 0.61347 0.59522 0.0
C2025 C 0.68658 0.69771 0.59605 0.0
C2026 C 0.55654 0.55432 0.59762 0.0
C2027 C 0.57772 0.56702 0.59963 0.0
C2028 C 0.60497 0.63408 0.60548 0.0
C2029 C 0.66665 0.6546 0.59925 0.0
C2030 C 0.64485 0.63854 0.60009 0.0
C2031 C 0.57968 0.59575 0.59951 0.0
C2032 C 0.60255 0.60942 0.60038 0.0
H2033 H 0.72436 0.64412 0.59636 0.0
H2034 H 0.68918 0.61918 0.60009 0.0
H2035 H 0.62716 0.66749 0.60927 0.0
H2036 H 0.52404 0.6117 0.59406 0.0
H2037 H 0.56074 0.63361 0.59749 0.0
C2038 C 0.53369 0.65496 0.6845 0.0
C2039 C 0.53429 0.6833 0.68621 0.0
C2040 C 0.5539 0.64061 0.68241 0.0
C2041 C 0.61605 0.64804 0.67598 0.0
H2042 H 0.6217 0.57999 0.69008 0.0
C2043 C 0.70318 0.59855 0.68569 0.0
C2044 C 0.70502 0.56985 0.68599 0.0
C2045 C 0.68213 0.61114 0.68362 0.0
C2046 C 0.62029 0.59863 0.68593 0.0
H2047 H 0.55636 0.71908 0.68658 0.0
H2048 H 0.59197 0.69385 0.68315 0.0
H2049 H 0.58541 0.60492 0.69038 0.0
H2050 H 0.68639 0.53185 0.68385 0.0
H2051 H 0.6494 0.55396 0.68023 0.0
H2052 H 0.65137 0.64205 0.67184 0.0
C2053 C 0.57576 0.68277 0.68329 0.0
C2054 C 0.59943 0.613 0.6861 0.0
C2055 C 0.55539 0.69726 0.68529 0.0
C2056 C 0.68552 0.55399 0.68371 0.0
C2057 C 0.66433 0.56665 0.68169 0.0
C2058 C 0.63698 0.63366 0.67584 0.0
C2059 C 0.57531 0.65413 0.68209 0.0
C2060 C 0.59711 0.63807 0.68124 0.0
C2061 C 0.66232 0.59538 0.68182 0.0
C2062 C 0.63943 0.609 0.68093 0.0
H2063 H 0.51761 0.64368 0.68501 0.0
H2064 H 0.55278 0.61872 0.68127 0.0
H2065 H 0.61476 0.66706 0.67204 0.0
H2066 H 0.7179 0.61142 0.68734 0.0
H2067 H 0.68118 0.63327 0.68387 0.0
C2068 C 0.45268 0.4092 0.43587 0.0
C2069 C 0.45444 0.43788 0.43635 0.0
C2070 C 0.43164 0.39664 0.43378 0.0
C2071 C 0.36976 0.40865 0.43636 0.0
H2072 H 0.36444 0.34086 0.4221 0.0
C2073 C 0.28352 0.35145 0.4348 0.0
C2074 C 0.28435 0.32303 0.43635 0.0
C2075 C 0.30359 0.36613 0.43277 0.0
C2076 C 0.36567 0.3597 0.42614 0.0
H2077 H 0.43565 0.47592 0.43456 0.0
H2078 H 0.39863 0.45386 0.43092 0.0
H2079 H 0.40086 0.36623 0.42192 0.0
H2080 H 0.30676 0.28752 0.43653 0.0
H2081 H 0.34213 0.31332 0.4332 0.0
H2082 H 0.33499 0.4018 0.44088 0.0
C2083 C 0.41364 0.44115 0.43224 0.0
C2084 C 0.3865 0.37428 0.42601 0.0
C2085 C 0.43484 0.45379 0.43426 0.0
C2086 C 0.30559 0.30938 0.43536 0.0
C2087 C 0.32582 0.32419 0.43342 0.0
C2088 C 0.34901 0.39407 0.43652 0.0
C2089 C 0.41173 0.4124 0.43216 0.0
C2090 C 0.38889 0.3987 0.43125 0.0
C2091 C 0.32512 0.35287 0.43235 0.0
C2092 C 0.34677 0.3692 0.43152 0.0
H2093 H 0.46748 0.3963 0.43736 0.0
H2094 H 0.43077 0.37449 0.43389 0.0
H2095 H 0.37113 0.42709 0.44062 0.0
H2096 H 0.26734 0.36252 0.43536 0.0
H2097 H 0.30229 0.38805 0.43174 0.0
C2098 C 0.43619 0.30267 0.34771 0.0
C2099 C 0.45567 0.31847 0.34535 0.0
C2100 C 0.41508 0.3154 0.34983 0.0
C2101 C 0.3881 0.38256 0.35581 0.0
H2102 H 0.33603 0.35406 0.34155 0.0
C2103 C 0.30669 0.44668 0.34656 0.0
C2104 C 0.28548 0.4329 0.34577 0.0
C2105 C 0.32702 0.43206 0.34852 0.0
C2106 C 0.3502 0.36208 0.34575 0.0
H2107 H 0.46862 0.36001 0.34396 0.0
H2108 H 0.43205 0.38197 0.3476 0.0
H2109 H 0.37221 0.32889 0.3417 0.0
H2110 H 0.26859 0.39345 0.34717 0.0
H2111 H 0.30369 0.36826 0.35082 0.0
H2112 H 0.36614 0.41614 0.35967 0.0
C2113 C 0.43295 0.35983 0.34784 0.0
C2114 C 0.37099 0.34756 0.34584 0.0
C2115 C 0.4539 0.34718 0.34566 0.0
C2116 C 0.28475 0.4046 0.34757 0.0
C2117 C 0.30491 0.39011 0.34961 0.0
C2118 C 0.36724 0.39708 0.35575 0.0
C2119 C 0.41314 0.34413 0.34973 0.0
C2120 C 0.39032 0.35785 0.35073 0.0
C2121 C 0.32641 0.40345 0.3498 0.0
C2122 C 0.34813 0.38721 0.35059 0.0
H2123 H 0.43701 0.28053 0.34756 0.0
H2124 H 0.40015 0.30275 0.35136 0.0
H2125 H 0.40263 0.39088 0.35973 0.0
H2126 H 0.30777 0.46847 0.3452 0.0
H2127 H 0.3433 0.44299 0.34856 0.0
C2128 C 0.03459 0.0991 0.59835 0.0
C2129 C 0.03579 0.07082 0.59656 0.0
C2130 C 0.05447 0.11401 0.60047 0.0
C2131 C 0.11672 0.10843 0.60688 0.0
H2132 H 0.12118 0.17618 0.59253 0.0
C2133 C 0.20301 0.15884 0.5967 0.0
C2134 C 0.20455 0.18753 0.59613 0.0
C2135 C 0.18214 0.14613 0.59897 0.0
C2136 C 0.1201 0.15766 0.59676 0.0
H2137 H 0.05862 0.03571 0.59612 0.0
H2138 H 0.09367 0.06192 0.59964 0.0
H2139 H 0.08529 0.15045 0.59239 0.0
H2140 H 0.18559 0.22543 0.59797 0.0
H2141 H 0.14888 0.2031 0.60194 0.0
H2142 H 0.15194 0.11534 0.61096 0.0
C2143 C 0.07722 0.07251 0.59952 0.0
C2144 C 0.09947 0.14281 0.59667 0.0
C2145 C 0.05718 0.05747 0.59747 0.0
C2146 C 0.18494 0.20329 0.59833 0.0
C2147 C 0.16391 0.1905 0.60055 0.0
C2148 C 0.13741 0.1233 0.60695 0.0
C2149 C 0.07616 0.10111 0.60077 0.0
C2150 C 0.09761 0.11779 0.6016 0.0
C2151 C 0.16219 0.16174 0.60069 0.0
C2152 C 0.13946 0.14783 0.60174 0.0
H2153 H 0.01828 0.10993 0.59786 0.0
H2154 H 0.05291 0.13584 0.60165 0.0
H2155 H 0.11577 0.08948 0.61087 0.0
H2156 H 0.21783 0.14604 0.59513 0.0
H2157 H 0.18142 0.12398 0.59891 0.0
C2158 C 0.18438 0.05597 0.68501 0.0
C2159 C 0.20568 0.06956 0.68582 0.0
C2160 C 0.16415 0.07079 0.68307 0.0
C2161 C 0.14141 0.14092 0.68596 0.0
H2162 H 0.08883 0.11281 0.67191 0.0
C2163 C 0.05573 0.20103 0.68412 0.0
C2164 C 0.03617 0.18533 0.68642 0.0
C2165 C 0.07679 0.1882 0.68198 0.0
C2166 C 0.1034 0.12094 0.67585 0.0
H2167 H 0.22283 0.10887 0.68447 0.0
H2168 H 0.18788 0.13441 0.68086 0.0
H2169 H 0.12515 0.08723 0.67193 0.0
H2170 H 0.02301 0.14386 0.68772 0.0
H2171 H 0.05947 0.12171 0.68406 0.0
H2172 H 0.11959 0.17422 0.69008 0.0
C2173 C 0.18653 0.11256 0.68203 0.0
C2174 C 0.12417 0.10624 0.67589 0.0
C2175 C 0.20659 0.09786 0.68406 0.0
C2176 C 0.03779 0.15661 0.68606 0.0
C2177 C 0.05869 0.14385 0.68387 0.0
C2178 C 0.1207 0.15561 0.6859 0.0
C2179 C 0.16494 0.09941 0.68183 0.0
C2180 C 0.14333 0.11585 0.68107 0.0
C2181 C 0.07857 0.15944 0.68202 0.0
C2182 C 0.10132 0.14557 0.68099 0.0
H2183 H 0.18317 0.03418 0.68634 0.0
H2184 H 0.1478 0.06001 0.68302 0.0
H2185 H 0.15563 0.14875 0.69018 0.0
H2186 H 0.05502 0.22318 0.68432 0.0
H2187 H 0.09178 0.20076 0.68049 0.0
C2188 C 0.93601 0.95238 0.43371 0.0
C2189 C 0.95549 0.93645 0.43595 0.0
C2190 C 0.91493 0.93977 0.43145 0.0
C2191 C 0.88809 0.87292 0.42494 0.0
H2192 H 0.83603 0.9002 0.43953 0.0
C2193 C 0.80741 0.80749 0.43408 0.0
C2194 C 0.7861 0.82097 0.43508 0.0
C2195 C 0.82754 0.82245 0.43211 0.0
C2196 C 0.8502 0.89253 0.43523 0.0
H2197 H 0.9685 0.89485 0.43698 0.0
H2198 H 0.932 0.87309 0.43312 0.0
H2199 H 0.87207 0.92563 0.43947 0.0
H2200 H 0.76882 0.86027 0.43402 0.0
H2201 H 0.80359 0.88607 0.43034 0.0
H2202 H 0.86628 0.8394 0.4209 0.0
C2203 C 0.93286 0.89524 0.43307 0.0
C2204 C 0.87091 0.9072 0.43519 0.0
C2205 C 0.95378 0.90777 0.43538 0.0
C2206 C 0.78507 0.84934 0.43346 0.0
C2207 C 0.80504 0.86418 0.43139 0.0
C2208 C 0.86731 0.85824 0.42495 0.0
C2209 C 0.91304 0.91103 0.4313 0.0
C2210 C 0.89024 0.89733 0.4302 0.0
C2211 C 0.82665 0.85112 0.43101 0.0
C2212 C 0.84821 0.86765 0.43023 0.0
H2213 H 0.93679 0.97451 0.43407 0.0
H2214 H 0.89999 0.9525 0.43003 0.0
H2215 H 0.90262 0.86493 0.42093 0.0
H2216 H 0.80872 0.78565 0.4353 0.0
H2217 H 0.84392 0.81172 0.43191 0.0
C2218 C 0.93634 0.80313 0.34774 0.0
C2219 C 0.95577 0.81868 0.34513 0.0
C2220 C 0.91534 0.8161 0.34988 0.0
C2221 C 0.88886 0.88375 0.35552 0.0
H2222 H 0.83596 0.85454 0.34196 0.0
C2223 C 0.80719 0.94761 0.34647 0.0
C2224 C 0.7859 0.93387 0.34594 0.0
C2225 C 0.82755 0.93303 0.34838 0.0
C2226 C 0.85038 0.86278 0.34597 0.0
H2227 H 0.96874 0.86005 0.34325 0.0
H2228 H 0.93236 0.88241 0.34691 0.0
H2229 H 0.87208 0.82924 0.34199 0.0
H2230 H 0.76895 0.89462 0.34779 0.0
H2231 H 0.80414 0.86951 0.35138 0.0
H2232 H 0.86719 0.91767 0.3593 0.0
C2233 C 0.93322 0.8603 0.34735 0.0
C2234 C 0.87113 0.84819 0.34598 0.0
C2235 C 0.95407 0.8474 0.34516 0.0
C2236 C 0.78516 0.90572 0.34798 0.0
C2237 C 0.80537 0.89127 0.34999 0.0
C2238 C 0.86803 0.89835 0.35553 0.0
C2239 C 0.91347 0.84483 0.34953 0.0
C2240 C 0.89074 0.85871 0.35061 0.0
C2241 C 0.82692 0.90451 0.3499 0.0
C2242 C 0.84862 0.88823 0.35063 0.0
H2243 H 0.93711 0.78098 0.34781 0.0
H2244 H 0.90044 0.80363 0.35163 0.0
H2245 H 0.90361 0.89227 0.35924 0.0
H2246 H 0.80828 0.96929 0.3449 0.0
H2247 H 0.84386 0.94388 0.3482 0.0
C2248 C 0.18583 0.69304 0.09822 0.0
C2249 C 0.20713 0.68005 0.09661 0.0
C2250 C 0.16607 0.67752 0.10029 0.0
C2251 C 0.14376 0.60753 0.09647 0.0
H2252 H 0.0924 0.63293 0.11188 0.0
C2253 C 0.0584 0.5469 0.09831 0.0
C2254 C 0.03878 0.56295 0.09641 0.0
C2255 C 0.07956 0.55938 0.10051 0.0
C2256 C 0.10664 0.62554 0.10757 0.0
H2257 H 0.22488 0.64093 0.09668 0.0
H2258 H 0.19078 0.61411 0.10057 0.0
H2259 H 0.12859 0.65875 0.11178 0.0
H2260 H 0.02559 0.60455 0.09597 0.0
H2261 H 0.06223 0.6261 0.09978 0.0
H2262 H 0.12172 0.57475 0.09207 0.0
C2263 C 0.18901 0.6361 0.0999 0.0
C2264 C 0.12733 0.64039 0.10748 0.0
C2265 C 0.20861 0.65151 0.09772 0.0
C2266 C 0.04043 0.59156 0.0973 0.0
C2267 C 0.06142 0.60396 0.09958 0.0
C2268 C 0.12315 0.59267 0.09659 0.0
C2269 C 0.16734 0.64876 0.1009 0.0
C2270 C 0.14601 0.63184 0.10179 0.0
C2271 C 0.08137 0.5881 0.10097 0.0
C2272 C 0.10419 0.60178 0.10198 0.0
H2273 H 0.18417 0.715 0.09739 0.0
H2274 H 0.14964 0.68797 0.10095 0.0
H2275 H 0.15758 0.60053 0.09185 0.0
H2276 H 0.05766 0.52482 0.0977 0.0
H2277 H 0.09462 0.54661 0.10164 0.0
C2278 C 0.03572 0.65338 0.18406 0.0
C2279 C 0.0366 0.68172 0.18576 0.0
C2280 C 0.05579 0.6387 0.18202 0.0
C2281 C 0.118 0.64505 0.17564 0.0
H2282 H 0.12307 0.57749 0.19006 0.0
C2283 C 0.20477 0.59547 0.18564 0.0
C2284 C 0.20652 0.56679 0.18619 0.0
C2285 C 0.18377 0.60801 0.18347 0.0
C2286 C 0.12182 0.59597 0.18582 0.0
H2287 H 0.05907 0.71716 0.18616 0.0
H2288 H 0.09443 0.69135 0.18279 0.0
H2289 H 0.08696 0.60282 0.19021 0.0
H2290 H 0.18777 0.52874 0.18439 0.0
H2291 H 0.15084 0.55077 0.18057 0.0
H2292 H 0.15326 0.6385 0.17154 0.0
C2293 C 0.0781 0.68054 0.18292 0.0
C2294 C 0.10107 0.61058 0.18591 0.0
C2295 C 0.05787 0.69534 0.18487 0.0
C2296 C 0.18697 0.55087 0.18405 0.0
C2297 C 0.16581 0.56349 0.18192 0.0
C2298 C 0.13881 0.63042 0.17557 0.0
C2299 C 0.07735 0.6519 0.18173 0.0
C2300 C 0.09898 0.63551 0.18094 0.0
C2301 C 0.1639 0.59223 0.1818 0.0
C2302 C 0.14107 0.60595 0.1808 0.0
H2303 H 0.01952 0.64234 0.18454 0.0
H2304 H 0.05447 0.61682 0.18091 0.0
H2305 H 0.11687 0.66395 0.17163 0.0
H2306 H 0.21953 0.60838 0.18717 0.0
H2307 H 0.18291 0.63016 0.18354 0.0
C2308 C 0.80706 0.3006 0.93393 0.0
C2309 C 0.78744 0.31654 0.93593 0.0
C2310 C 0.82832 0.31319 0.93197 0.0
C2311 C 0.85573 0.37998 0.9258 0.0
H2312 H 0.90683 0.35234 0.94087 0.0
C2313 C 0.93672 0.44457 0.93529 0.0
C2314 C 0.95788 0.43081 0.93635 0.0
C2315 C 0.91646 0.42985 0.93332 0.0
C2316 C 0.89294 0.3601 0.93645 0.0
H2317 H 0.77442 0.35815 0.93686 0.0
H2318 H 0.81123 0.37988 0.9335 0.0
H2319 H 0.87064 0.32718 0.9405 0.0
H2320 H 0.97475 0.39121 0.93546 0.0
H2321 H 0.93976 0.36584 0.93181 0.0
H2322 H 0.87797 0.41329 0.92193 0.0
C2323 C 0.81034 0.35774 0.93341 0.0
C2324 C 0.87215 0.3456 0.93624 0.0
C2325 C 0.78924 0.34522 0.93543 0.0
C2326 C 0.95863 0.40238 0.93484 0.0
C2327 C 0.93852 0.38778 0.9328 0.0
C2328 C 0.8766 0.39448 0.92599 0.0
C2329 C 0.83027 0.34193 0.93188 0.0
C2330 C 0.85316 0.35558 0.93105 0.0
C2331 C 0.91706 0.40115 0.93231 0.0
C2332 C 0.89536 0.38493 0.93144 0.0
H2333 H 0.80622 0.27847 0.93424 0.0
H2334 H 0.84335 0.30045 0.93072 0.0
H2335 H 0.84149 0.38806 0.92165 0.0
H2336 H 0.93562 0.46646 0.93642 0.0
H2337 H 0.9002 0.44081 0.93305 0.0
C2338 C 0.93694 0.29945 0.84763 0.0
C2339 C 0.95659 0.31539 0.84566 0.0
C2340 C 0.91571 0.31206 0.84964 0.0
C2341 C 0.88845 0.3788 0.85598 0.0
H2342 H 0.83738 0.35184 0.84077 0.0
C2343 C 0.80798 0.44422 0.84645 0.0
C2344 C 0.78675 0.43068 0.8453 0.0
C2345 C 0.82812 0.42928 0.84844 0.0
C2346 C 0.85126 0.35941 0.84523 0.0
H2347 H 0.9697 0.35697 0.84485 0.0
H2348 H 0.93294 0.37874 0.84831 0.0
H2349 H 0.87346 0.32644 0.84113 0.0
H2350 H 0.76962 0.39122 0.84608 0.0
H2351 H 0.8044 0.36546 0.84977 0.0
H2352 H 0.86632 0.41218 0.8599 0.0
C2353 C 0.93378 0.35659 0.84833 0.0
C2354 C 0.87199 0.34477 0.84544 0.0
C2355 C 0.95485 0.34406 0.84626 0.0
C2356 C 0.7858 0.40222 0.84675 0.0
C2357 C 0.80578 0.3874 0.84883 0.0
C2358 C 0.86765 0.39345 0.8558 0.0
C2359 C 0.91383 0.34081 0.84982 0.0
C2360 C 0.89097 0.35453 0.85067 0.0
C2361 C 0.82732 0.40058 0.8494 0.0
C2362 C 0.84891 0.38415 0.85029 0.0
H2363 H 0.93773 0.27733 0.84724 0.0
H2364 H 0.90066 0.29934 0.85086 0.0
H2365 H 0.90269 0.3867 0.86018 0.0
H2366 H 0.80924 0.46612 0.84536 0.0
H2367 H 0.84444 0.44009 0.84878 0.0
loop_
_geom_bond_atom_site_label_1
_geom_bond_atom_site_label_2
_geom_bond_distance
_geom_bond_site_symmetry_2
_ccdc_geom_bond_type
O0 Cd1 2.223 . S
O0 C8 1.315 . S
Cd1 O0 2.223 . S
Cd1 O4 2.297 1_545 S
Cd1 O5 2.439 . S
Cd1 O11 2.240 . S
Cd2 O3 2.240 . S
Cd2 O10 2.223 . S
Cd2 O12 2.297 . S
Cd2 O13 2.439 . S
O3 Cd2 2.240 . S
O3 C8 1.279 . S
O4 Cd1 2.297 1_565 S
O4 C6 1.247 . S
O5 Cd1 2.439 . S
O5 C6 1.208 1_545 S
C6 O4 1.247 . S
C6 O5 1.208 1_565 S
C7 O12 1.247 . S
C7 O13 1.208 . S
C8 O0 1.315 . S
C8 O3 1.279 . S
C9 O10 1.315 . S
C9 O11 1.279 . S
O10 Cd2 2.223 . S
O10 C9 1.315 . S
O11 Cd1 2.240 . S
O11 C9 1.279 . S
O12 Cd2 2.297 . S
O12 C7 1.247 . S
O13 Cd2 2.439 . S
O13 C7 1.208 . S
O14 Cd15 2.223 . S
O14 C22 1.315 . S
Cd15 O14 2.223 . S
Cd15 O18 2.297 . S
Cd15 O19 2.439 . S
Cd15 O25 2.240 . S
Cd16 O17 2.240 . S
Cd16 O24 2.223 . S
Cd16 O26 2.297 . S
Cd16 O27 2.439 . S
O17 Cd16 2.240 . S
O17 C22 1.279 . S
O18 Cd15 2.297 . S
O18 C20 1.247 . S
O19 Cd15 2.439 . S
O19 C20 1.208 . S
C20 O18 1.247 . S
C20 O19 1.208 . S
C21 O26 1.247 . S
C21 O27 1.208 . S
C22 O14 1.315 . S
C22 O17 1.279 . S
C23 O24 1.315 . S
C23 O25 1.279 . S
O24 Cd16 2.223 . S
O24 C23 1.315 . S
O25 Cd15 2.240 . S
O25 C23 1.279 . S
O26 Cd16 2.297 . S
O26 C21 1.247 . S
O27 Cd16 2.439 . S
O27 C21 1.208 . S
O28 Cd29 2.223 . S
O28 C36 1.315 . S
Cd29 O28 2.223 . S
Cd29 O32 2.297 . S
Cd29 O33 2.439 . S
Cd29 O39 2.240 . S
Cd30 O31 2.240 . S
Cd30 O38 2.223 . S
Cd30 O40 2.297 . S
Cd30 O41 2.439 . S
O31 Cd30 2.240 . S
O31 C36 1.279 . S
O32 Cd29 2.297 . S
O32 C34 1.247 . S
O33 Cd29 2.439 . S
O33 C34 1.208 . S
C34 O32 1.247 . S
C34 O33 1.208 . S
C35 O40 1.247 . S
C35 O41 1.208 . S
C36 O28 1.315 . S
C36 O31 1.279 . S
C37 O38 1.315 . S
C37 O39 1.279 . S
O38 Cd30 2.223 . S
O38 C37 1.315 . S
O39 Cd29 2.240 . S
O39 C37 1.279 . S
O40 Cd30 2.297 . S
O40 C35 1.247 . S
O41 Cd30 2.439 . S
O41 C35 1.208 . S
O42 Cd43 2.223 . S
O42 C50 1.315 . S
Cd43 O42 2.223 . S
Cd43 O46 2.297 1_545 S
Cd43 O47 2.439 . S
Cd43 O53 2.240 . S
Cd44 O45 2.240 . S
Cd44 O52 2.223 . S
Cd44 O54 2.297 . S
Cd44 O55 2.439 . S
O45 Cd44 2.240 . S
O45 C50 1.279 . S
O46 Cd43 2.297 1_565 S
O46 C48 1.247 . S
O47 Cd43 2.439 . S
O47 C48 1.208 1_545 S
C48 O46 1.247 . S
C48 O47 1.208 1_565 S
C49 O54 1.247 . S
C49 O55 1.208 . S
C50 O42 1.315 . S
C50 O45 1.279 . S
C51 O52 1.315 . S
C51 O53 1.279 . S
O52 Cd44 2.223 . S
O52 C51 1.315 . S
O53 Cd43 2.240 . S
O53 C51 1.279 . S
O54 Cd44 2.297 . S
O54 C49 1.247 . S
O55 Cd44 2.439 . S
O55 C49 1.208 . S
O56 Cd57 2.223 . S
O56 C64 1.315 . S
Cd57 O56 2.223 . S
Cd57 O60 2.297 1_565 S
Cd57 O61 2.439 . S
Cd57 O67 2.240 . S
Cd58 O59 2.240 . S
Cd58 O66 2.223 . S
Cd58 O68 2.297 . S
Cd58 O69 2.439 . S
O59 Cd58 2.240 . S
O59 C64 1.279 . S
O60 Cd57 2.297 1_545 S
O60 C62 1.247 . S
O61 Cd57 2.439 . S
O61 C62 1.208 1_565 S
C62 O60 1.247 . S
C62 O61 1.208 1_545 S
C63 O68 1.247 . S
C63 O69 1.208 . S
C64 O56 1.315 . S
C64 O59 1.279 . S
C65 O66 1.315 . S
C65 O67 1.279 . S
O66 Cd58 2.223 . S
O66 C65 1.315 . S
O67 Cd57 2.240 . S
O67 C65 1.279 . S
O68 Cd58 2.297 . S
O68 C63 1.247 . S
O69 Cd58 2.439 . S
O69 C63 1.208 . S
O70 Cd71 2.223 . S
O70 C78 1.315 . S
Cd71 O70 2.223 . S
Cd71 O74 2.297 . S
Cd71 O75 2.439 . S
Cd71 O81 2.240 . S
Cd72 O73 2.240 . S
Cd72 O80 2.223 . S
Cd72 O82 2.297 . S
Cd72 O83 2.439 . S
O73 Cd72 2.240 . S
O73 C78 1.279 . S
O74 Cd71 2.297 . S
O74 C76 1.247 . S
O75 Cd71 2.439 . S
O75 C76 1.208 . S
C76 O74 1.247 . S
C76 O75 1.208 . S
C77 O82 1.247 . S
C77 O83 1.208 . S
C78 O70 1.315 . S
C78 O73 1.279 . S
C79 O80 1.315 . S
C79 O81 1.279 . S
O80 Cd72 2.223 . S
O80 C79 1.315 . S
O81 Cd71 2.240 . S
O81 C79 1.279 . S
O82 Cd72 2.297 . S
O82 C77 1.247 . S
O83 Cd72 2.439 . S
O83 C77 1.208 . S
O84 Cd85 2.223 . S
O84 C92 1.315 . S
Cd85 O84 2.223 . S
Cd85 O88 2.297 . S
Cd85 O89 2.439 . S
Cd85 O95 2.240 . S
Cd86 O87 2.240 . S
Cd86 O94 2.223 . S
Cd86 O96 2.297 . S
Cd86 O97 2.439 . S
O87 Cd86 2.240 . S
O87 C92 1.279 . S
O88 Cd85 2.297 . S
O88 C90 1.247 . S
O89 Cd85 2.439 . S
O89 C90 1.208 . S
C90 O88 1.247 . S
C90 O89 1.208 . S
C91 O96 1.247 . S
C91 O97 1.208 . S
C92 O84 1.315 . S
C92 O87 1.279 . S
C93 O94 1.315 . S
C93 O95 1.279 . S
O94 Cd86 2.223 . S
O94 C93 1.315 . S
O95 Cd85 2.240 . S
O95 C93 1.279 . S
O96 Cd86 2.297 . S
O96 C91 1.247 . S
O97 Cd86 2.439 . S
O97 C91 1.208 . S
O98 Cd99 2.223 . S
O98 C106 1.315 . S
Cd99 O98 2.223 . S
Cd99 O102 2.297 1_565 S
Cd99 O103 2.439 . S
Cd99 O109 2.240 . S
Cd100 O101 2.240 . S
Cd100 O108 2.223 . S
Cd100 O110 2.297 . S
Cd100 O111 2.439 . S
O101 Cd100 2.240 . S
O101 C106 1.279 . S
O102 Cd99 2.297 1_545 S
O102 C104 1.247 . S
O103 Cd99 2.439 . S
O103 C104 1.208 1_565 S
C104 O102 1.247 . S
C104 O103 1.208 1_545 S
C105 O110 1.247 . S
C105 O111 1.208 . S
C106 O98 1.315 . S
C106 O101 1.279 . S
C107 O108 1.315 . S
C107 O109 1.279 . S
O108 Cd100 2.223 . S
O108 C107 1.315 . S
O109 Cd99 2.240 . S
O109 C107 1.279 . S
O110 Cd100 2.297 . S
O110 C105 1.247 . S
O111 Cd100 2.439 . S
O111 C105 1.208 . S
O112 Cd113 2.223 . S
O112 C120 1.315 . S
Cd113 O112 2.223 . S
Cd113 O116 2.297 . S
Cd113 O117 2.439 . S
Cd113 O123 2.240 . S
Cd114 O115 2.240 . S
Cd114 O122 2.223 . S
Cd114 O124 2.297 . S
Cd114 O125 2.439 . S
O115 Cd114 2.240 . S
O115 C120 1.279 . S
O116 Cd113 2.297 . S
O116 C118 1.247 . S
O117 Cd113 2.439 . S
O117 C118 1.208 . S
C118 O116 1.247 . S
C118 O117 1.208 . S
C119 O124 1.247 . S
C119 O125 1.208 . S
C120 O112 1.315 . S
C120 O115 1.279 . S
C121 O122 1.315 . S
C121 O123 1.279 . S
O122 Cd114 2.223 . S
O122 C121 1.315 . S
O123 Cd113 2.240 . S
O123 C121 1.279 . S
O124 Cd114 2.297 . S
O124 C119 1.247 . S
O125 Cd114 2.439 . S
O125 C119 1.208 . S
O126 Cd127 2.223 . S
O126 C134 1.315 . S
Cd127 O126 2.223 . S
Cd127 O130 2.297 . S
Cd127 O131 2.439 . S
Cd127 O137 2.240 . S
Cd128 O129 2.240 . S
Cd128 O136 2.223 . S
Cd128 O138 2.297 . S
Cd128 O139 2.439 . S
O129 Cd128 2.240 . S
O129 C134 1.279 . S
O130 Cd127 2.297 . S
O130 C132 1.247 . S
O131 Cd127 2.439 . S
O131 C132 1.208 . S
C132 O130 1.247 . S
C132 O131 1.208 . S
C133 O138 1.247 . S
C133 O139 1.208 . S
C134 O126 1.315 . S
C134 O129 1.279 . S
C135 O136 1.315 . S
C135 O137 1.279 . S
O136 Cd128 2.223 . S
O136 C135 1.315 . S
O137 Cd127 2.240 . S
O137 C135 1.279 . S
O138 Cd128 2.297 . S
O138 C133 1.247 . S
O139 Cd128 2.439 . S
O139 C133 1.208 . S
O140 Cd141 2.223 . S
O140 C148 1.315 . S
Cd141 O140 2.223 . S
Cd141 O144 2.297 . S
Cd141 O145 2.439 . S
Cd141 O151 2.240 . S
Cd142 O143 2.240 . S
Cd142 O150 2.223 . S
Cd142 O152 2.297 . S
Cd142 O153 2.439 . S
O143 Cd142 2.240 . S
O143 C148 1.279 . S
O144 Cd141 2.297 . S
O144 C146 1.247 . S
O145 Cd141 2.439 . S
O145 C146 1.208 . S
C146 O144 1.247 . S
C146 O145 1.208 . S
C147 O152 1.247 . S
C147 O153 1.208 . S
C148 O140 1.315 . S
C148 O143 1.279 . S
C149 O150 1.315 . S
C149 O151 1.279 . S
O150 Cd142 2.223 . S
O150 C149 1.315 . S
O151 Cd141 2.240 . S
O151 C149 1.279 . S
O152 Cd142 2.297 . S
O152 C147 1.247 . S
O153 Cd142 2.439 . S
O153 C147 1.208 . S
O154 Cd155 2.223 . S
O154 C162 1.315 . S
Cd155 O154 2.223 . S
Cd155 O158 2.297 . S
Cd155 O159 2.439 . S
Cd155 O165 2.240 . S
Cd156 O157 2.240 . S
Cd156 O164 2.223 . S
Cd156 O166 2.297 . S
Cd156 O167 2.439 . S
O157 Cd156 2.240 . S
O157 C162 1.279 . S
O158 Cd155 2.297 . S
O158 C160 1.247 . S
O159 Cd155 2.439 . S
O159 C160 1.208 . S
C160 O158 1.247 . S
C160 O159 1.208 . S
C161 O166 1.247 . S
C161 O167 1.208 . S
C162 O154 1.315 . S
C162 O157 1.279 . S
C163 O164 1.315 . S
C163 O165 1.279 . S
O164 Cd156 2.223 . S
O164 C163 1.315 . S
O165 Cd155 2.240 . S
O165 C163 1.279 . S
O166 Cd156 2.297 . S
O166 C161 1.247 . S
O167 Cd156 2.439 . S
O167 C161 1.208 . S
O168 Cd169 2.223 . S
O168 C176 1.315 . S
Cd169 O168 2.223 . S
Cd169 O172 2.297 . S
Cd169 O173 2.439 . S
Cd169 O179 2.240 . S
Cd170 O171 2.240 . S
Cd170 O178 2.223 . S
Cd170 O180 2.297 . S
Cd170 O181 2.439 . S
O171 Cd170 2.240 . S
O171 C176 1.279 . S
O172 Cd169 2.297 . S
O172 C174 1.247 . S
O173 Cd169 2.439 . S
O173 C174 1.208 . S
C174 O172 1.247 . S
C174 O173 1.208 . S
C175 O180 1.247 . S
C175 O181 1.208 . S
C176 O168 1.315 . S
C176 O171 1.279 . S
C177 O178 1.315 . S
C177 O179 1.279 . S
O178 Cd170 2.223 . S
O178 C177 1.315 . S
O179 Cd169 2.240 . S
O179 C177 1.279 . S
O180 Cd170 2.297 . S
O180 C175 1.247 . S
O181 Cd170 2.439 . S
O181 C175 1.208 . S
O182 Cd183 2.223 . S
O182 C190 1.315 . S
Cd183 O182 2.223 . S
Cd183 O186 2.297 . S
Cd183 O187 2.439 . S
Cd183 O193 2.240 . S
Cd184 O185 2.240 . S
Cd184 O192 2.223 . S
Cd184 O194 2.297 . S
Cd184 O195 2.439 . S
O185 Cd184 2.240 . S
O185 C190 1.279 . S
O186 Cd183 2.297 . S
O186 C188 1.247 . S
O187 Cd183 2.439 . S
O187 C188 1.208 . S
C188 O186 1.247 . S
C188 O187 1.208 . S
C189 O194 1.247 . S
C189 O195 1.208 . S
C190 O182 1.315 . S
C190 O185 1.279 . S
C191 O192 1.315 . S
C191 O193 1.279 . S
O192 Cd184 2.223 . S
O192 C191 1.315 . S
O193 Cd183 2.240 . S
O193 C191 1.279 . S
O194 Cd184 2.297 . S
O194 C189 1.247 . S
O195 Cd184 2.439 . S
O195 C189 1.208 . S
O196 Cd197 2.223 . S
O196 C204 1.315 . S
Cd197 O196 2.223 . S
Cd197 O200 2.297 . S
Cd197 O201 2.439 . S
Cd197 O207 2.240 . S
Cd198 O199 2.240 . S
Cd198 O206 2.223 . S
Cd198 O208 2.297 . S
Cd198 O209 2.439 . S
O199 Cd198 2.240 . S
O199 C204 1.279 . S
O200 Cd197 2.297 . S
O200 C202 1.247 . S
O201 Cd197 2.439 . S
O201 C202 1.208 . S
C202 O200 1.247 . S
C202 O201 1.208 . S
C203 O208 1.247 . S
C203 O209 1.208 . S
C204 O196 1.315 . S
C204 O199 1.279 . S
C205 O206 1.315 . S
C205 O207 1.279 . S
O206 Cd198 2.223 . S
O206 C205 1.315 . S
O207 Cd197 2.240 . S
O207 C205 1.279 . S
O208 Cd198 2.297 . S
O208 C203 1.247 . S
O209 Cd198 2.439 . S
O209 C203 1.208 . S
O210 Cd211 2.223 . S
O210 C218 1.315 . S
Cd211 O210 2.223 . S
Cd211 O214 2.297 . S
Cd211 O215 2.439 . S
Cd211 O221 2.240 . S
Cd212 O213 2.240 . S
Cd212 O220 2.223 . S
Cd212 O222 2.297 . S
Cd212 O223 2.439 . S
O213 Cd212 2.240 . S
O213 C218 1.279 . S
O214 Cd211 2.297 . S
O214 C216 1.247 . S
O215 Cd211 2.439 . S
O215 C216 1.208 . S
C216 O214 1.247 . S
C216 O215 1.208 . S
C217 O222 1.247 . S
C217 O223 1.208 . S
C218 O210 1.315 . S
C218 O213 1.279 . S
C219 O220 1.315 . S
C219 O221 1.279 . S
O220 Cd212 2.223 . S
O220 C219 1.315 . S
O221 Cd211 2.240 . S
O221 C219 1.279 . S
O222 Cd212 2.297 . S
O222 C217 1.247 . S
O223 Cd212 2.439 . S
O223 C217 1.208 . S
O224 Cd225 2.223 . S
O224 C232 1.315 . S
Cd225 O224 2.223 . S
Cd225 O228 2.297 1_545 S
Cd225 O229 2.439 . S
Cd225 O235 2.240 . S
Cd226 O227 2.240 . S
Cd226 O234 2.223 . S
Cd226 O236 2.297 . S
Cd226 O237 2.439 . S
O227 Cd226 2.240 . S
O227 C232 1.279 . S
O228 Cd225 2.297 1_565 S
O228 C230 1.247 . S
O229 Cd225 2.439 . S
O229 C230 1.208 1_545 S
C230 O228 1.247 . S
C230 O229 1.208 1_565 S
C231 O236 1.247 . S
C231 O237 1.208 . S
C232 O224 1.315 . S
C232 O227 1.279 . S
C233 O234 1.315 1_455 S
C233 O235 1.279 1_455 S
O234 Cd226 2.223 . S
O234 C233 1.315 1_655 S
O235 Cd225 2.240 . S
O235 C233 1.279 1_655 S
O236 Cd226 2.297 . S
O236 C231 1.247 . S
O237 Cd226 2.439 . S
O237 C231 1.208 . S
O238 Cd239 2.223 . S
O238 C246 1.315 . S
Cd239 O238 2.223 . S
Cd239 O242 2.297 . S
Cd239 O243 2.439 . S
Cd239 O249 2.240 . S
Cd240 O241 2.240 . S
Cd240 O248 2.223 . S
Cd240 O250 2.297 . S
Cd240 O251 2.439 . S
O241 Cd240 2.240 . S
O241 C246 1.279 . S
O242 Cd239 2.297 . S
O242 C244 1.247 . S
O243 Cd239 2.439 . S
O243 C244 1.208 . S
C244 O242 1.247 . S
C244 O243 1.208 . S
C245 O250 1.247 . S
C245 O251 1.208 . S
C246 O238 1.315 . S
C246 O241 1.279 . S
C247 O248 1.315 . S
C247 O249 1.279 . S
O248 Cd240 2.223 . S
O248 C247 1.315 . S
O249 Cd239 2.240 . S
O249 C247 1.279 . S
O250 Cd240 2.297 . S
O250 C245 1.247 . S
O251 Cd240 2.439 . S
O251 C245 1.208 . S
O252 Cd253 2.223 . S
O252 C260 1.315 . S
Cd253 O252 2.223 . S
Cd253 O256 2.297 . S
Cd253 O257 2.439 . S
Cd253 O263 2.240 . S
Cd254 O255 2.240 . S
Cd254 O262 2.223 . S
Cd254 O264 2.297 . S
Cd254 O265 2.439 . S
O255 Cd254 2.240 . S
O255 C260 1.279 . S
O256 Cd253 2.297 . S
O256 C258 1.247 . S
O257 Cd253 2.439 . S
O257 C258 1.208 . S
C258 O256 1.247 . S
C258 O257 1.208 . S
C259 O264 1.247 . S
C259 O265 1.208 . S
C260 O252 1.315 . S
C260 O255 1.279 . S
C261 O262 1.315 1_455 S
C261 O263 1.279 1_455 S
O262 Cd254 2.223 . S
O262 C261 1.315 1_655 S
O263 Cd253 2.240 . S
O263 C261 1.279 1_655 S
O264 Cd254 2.297 . S
O264 C259 1.247 . S
O265 Cd254 2.439 . S
O265 C259 1.208 . S
O266 Cd267 2.223 . S
O266 C274 1.315 . S
Cd267 O266 2.223 . S
Cd267 O270 2.297 1_545 S
Cd267 O271 2.439 . S
Cd267 O277 2.240 . S
Cd268 O269 2.240 . S
Cd268 O276 2.223 . S
Cd268 O278 2.297 . S
Cd268 O279 2.439 . S
O269 Cd268 2.240 . S
O269 C274 1.279 . S
O270 Cd267 2.297 1_565 S
O270 C272 1.247 . S
O271 Cd267 2.439 . S
O271 C272 1.208 1_545 S
C272 O270 1.247 . S
C272 O271 1.208 1_565 S
C273 O278 1.247 . S
C273 O279 1.208 . S
C274 O266 1.315 . S
C274 O269 1.279 . S
C275 O276 1.315 . S
C275 O277 1.279 . S
O276 Cd268 2.223 . S
O276 C275 1.315 . S
O277 Cd267 2.240 . S
O277 C275 1.279 . S
O278 Cd268 2.297 . S
O278 C273 1.247 . S
O279 Cd268 2.439 . S
O279 C273 1.208 . S
O280 Cd281 2.223 . S
O280 C288 1.315 . S
Cd281 O280 2.223 . S
Cd281 O284 2.297 1_565 S
Cd281 O285 2.439 . S
Cd281 O291 2.240 . S
Cd282 O283 2.240 . S
Cd282 O290 2.223 . S
Cd282 O292 2.297 . S
Cd282 O293 2.439 . S
O283 Cd282 2.240 . S
O283 C288 1.279 . S
O284 Cd281 2.297 1_545 S
O284 C286 1.247 . S
O285 Cd281 2.439 . S
O285 C286 1.208 1_565 S
C286 O284 1.247 . S
C286 O285 1.208 1_545 S
C287 O292 1.247 . S
C287 O293 1.208 . S
C288 O280 1.315 . S
C288 O283 1.279 . S
C289 O290 1.315 1_655 S
C289 O291 1.279 1_655 S
O290 Cd282 2.223 . S
O290 C289 1.315 1_455 S
O291 Cd281 2.240 . S
O291 C289 1.279 1_455 S
O292 Cd282 2.297 . S
O292 C287 1.247 . S
O293 Cd282 2.439 . S
O293 C287 1.208 . S
O294 Cd295 2.223 . S
O294 C302 1.315 . S
Cd295 O294 2.223 . S
Cd295 O298 2.297 . S
Cd295 O299 2.439 . S
Cd295 O305 2.240 . S
Cd296 O297 2.240 . S
Cd296 O304 2.223 . S
Cd296 O306 2.297 . S
Cd296 O307 2.439 . S
O297 Cd296 2.240 . S
O297 C302 1.279 . S
O298 Cd295 2.297 . S
O298 C300 1.247 . S
O299 Cd295 2.439 . S
O299 C300 1.208 . S
C300 O298 1.247 . S
C300 O299 1.208 . S
C301 O306 1.247 . S
C301 O307 1.208 . S
C302 O294 1.315 . S
C302 O297 1.279 . S
C303 O304 1.315 . S
C303 O305 1.279 . S
O304 Cd296 2.223 . S
O304 C303 1.315 . S
O305 Cd295 2.240 . S
O305 C303 1.279 . S
O306 Cd296 2.297 . S
O306 C301 1.247 . S
O307 Cd296 2.439 . S
O307 C301 1.208 . S
O308 Cd309 2.223 . S
O308 C316 1.315 . S
Cd309 O308 2.223 . S
Cd309 O312 2.297 . S
Cd309 O313 2.439 . S
Cd309 O319 2.240 . S
Cd310 O311 2.240 . S
Cd310 O318 2.223 . S
Cd310 O320 2.297 . S
Cd310 O321 2.439 . S
O311 Cd310 2.240 . S
O311 C316 1.279 . S
O312 Cd309 2.297 . S
O312 C314 1.247 . S
O313 Cd309 2.439 . S
O313 C314 1.208 . S
C314 O312 1.247 . S
C314 O313 1.208 . S
C315 O320 1.247 . S
C315 O321 1.208 . S
C316 O308 1.315 . S
C316 O311 1.279 . S
C317 O318 1.315 1_655 S
C317 O319 1.279 1_655 S
O318 Cd310 2.223 . S
O318 C317 1.315 1_455 S
O319 Cd309 2.240 . S
O319 C317 1.279 1_455 S
O320 Cd310 2.297 . S
O320 C315 1.247 . S
O321 Cd310 2.439 . S
O321 C315 1.208 . S
O322 Cd323 2.223 . S
O322 C330 1.315 . S
Cd323 O322 2.223 . S
Cd323 O326 2.297 1_565 S
Cd323 O327 2.439 . S
Cd323 O333 2.240 . S
Cd324 O325 2.240 . S
Cd324 O332 2.223 . S
Cd324 O334 2.297 . S
Cd324 O335 2.439 . S
O325 Cd324 2.240 . S
O325 C330 1.279 . S
O326 Cd323 2.297 1_545 S
O326 C328 1.247 . S
O327 Cd323 2.439 . S
O327 C328 1.208 1_565 S
C328 O326 1.247 . S
C328 O327 1.208 1_545 S
C329 O334 1.247 . S
C329 O335 1.208 . S
C330 O322 1.315 . S
C330 O325 1.279 . S
C331 O332 1.315 . S
C331 O333 1.279 . S
O332 Cd324 2.223 . S
O332 C331 1.315 . S
O333 Cd323 2.240 . S
O333 C331 1.279 . S
O334 Cd324 2.297 . S
O334 C329 1.247 . S
O335 Cd324 2.439 . S
O335 C329 1.208 . S
O336 Cd337 2.223 . S
O336 C344 1.315 . S
Cd337 O336 2.223 . S
Cd337 O340 2.297 . S
Cd337 O341 2.439 . S
Cd337 O347 2.240 . S
Cd338 O339 2.240 . S
Cd338 O346 2.223 . S
Cd338 O348 2.297 . S
Cd338 O349 2.439 . S
O339 Cd338 2.240 . S
O339 C344 1.279 . S
O340 Cd337 2.297 . S
O340 C342 1.247 . S
O341 Cd337 2.439 . S
O341 C342 1.208 . S
C342 O340 1.247 . S
C342 O341 1.208 . S
C343 O348 1.247 . S
C343 O349 1.208 . S
C344 O336 1.315 . S
C344 O339 1.279 . S
C345 O346 1.315 1_455 S
C345 O347 1.279 1_455 S
O346 Cd338 2.223 . S
O346 C345 1.315 1_655 S
O347 Cd337 2.240 . S
O347 C345 1.279 1_655 S
O348 Cd338 2.297 . S
O348 C343 1.247 . S
O349 Cd338 2.439 . S
O349 C343 1.208 . S
O350 Cd351 2.223 . S
O350 C358 1.315 . S
Cd351 O350 2.223 . S
Cd351 O354 2.297 . S
Cd351 O355 2.439 . S
Cd351 O361 2.240 . S
Cd352 O353 2.240 . S
Cd352 O360 2.223 . S
Cd352 O362 2.297 . S
Cd352 O363 2.439 . S
O353 Cd352 2.240 . S
O353 C358 1.279 . S
O354 Cd351 2.297 . S
O354 C356 1.247 . S
O355 Cd351 2.439 . S
O355 C356 1.208 . S
C356 O354 1.247 . S
C356 O355 1.208 . S
C357 O362 1.247 . S
C357 O363 1.208 . S
C358 O350 1.315 . S
C358 O353 1.279 . S
C359 O360 1.315 . S
C359 O361 1.279 . S
O360 Cd352 2.223 . S
O360 C359 1.315 . S
O361 Cd351 2.240 . S
O361 C359 1.279 . S
O362 Cd352 2.297 . S
O362 C357 1.247 . S
O363 Cd352 2.439 . S
O363 C357 1.208 . S
O364 Cd365 2.223 . S
O364 C372 1.315 . S
Cd365 O364 2.223 . S
Cd365 O368 2.297 . S
Cd365 O369 2.439 . S
Cd365 O375 2.240 . S
Cd366 O367 2.240 . S
Cd366 O374 2.223 . S
Cd366 O376 2.297 . S
Cd366 O377 2.439 . S
O367 Cd366 2.240 . S
O367 C372 1.279 . S
O368 Cd365 2.297 . S
O368 C370 1.247 . S
O369 Cd365 2.439 . S
O369 C370 1.208 . S
C370 O368 1.247 . S
C370 O369 1.208 . S
C371 O376 1.247 . S
C371 O377 1.208 . S
C372 O364 1.315 . S
C372 O367 1.279 . S
C373 O374 1.315 1_455 S
C373 O375 1.279 1_455 S
O374 Cd366 2.223 . S
O374 C373 1.315 1_655 S
O375 Cd365 2.240 . S
O375 C373 1.279 1_655 S
O376 Cd366 2.297 . S
O376 C371 1.247 . S
O377 Cd366 2.439 . S
O377 C371 1.208 . S
O378 Cd379 2.223 . S
O378 C386 1.315 . S
Cd379 O378 2.223 . S
Cd379 O382 2.297 . S
Cd379 O383 2.439 . S
Cd379 O389 2.240 . S
Cd380 O381 2.240 . S
Cd380 O388 2.223 . S
Cd380 O390 2.297 . S
Cd380 O391 2.439 . S
O381 Cd380 2.240 . S
O381 C386 1.279 . S
O382 Cd379 2.297 . S
O382 C384 1.247 . S
O383 Cd379 2.439 . S
O383 C384 1.208 . S
C384 O382 1.247 . S
C384 O383 1.208 . S
C385 O390 1.247 . S
C385 O391 1.208 . S
C386 O378 1.315 . S
C386 O381 1.279 . S
C387 O388 1.315 . S
C387 O389 1.279 . S
O388 Cd380 2.223 . S
O388 C387 1.315 . S
O389 Cd379 2.240 . S
O389 C387 1.279 . S
O390 Cd380 2.297 . S
O390 C385 1.247 . S
O391 Cd380 2.439 . S
O391 C385 1.208 . S
O392 Cd393 2.223 . S
O392 C400 1.315 . S
Cd393 O392 2.223 . S
Cd393 O396 2.297 . S
Cd393 O397 2.439 . S
Cd393 O403 2.240 . S
Cd394 O395 2.240 . S
Cd394 O402 2.223 . S
Cd394 O404 2.297 . S
Cd394 O405 2.439 . S
O395 Cd394 2.240 . S
O395 C400 1.279 . S
O396 Cd393 2.297 . S
O396 C398 1.247 . S
O397 Cd393 2.439 . S
O397 C398 1.208 . S
C398 O396 1.247 . S
C398 O397 1.208 . S
C399 O404 1.247 . S
C399 O405 1.208 . S
C400 O392 1.315 . S
C400 O395 1.279 . S
C401 O402 1.315 1_655 S
C401 O403 1.279 1_655 S
O402 Cd394 2.223 . S
O402 C401 1.315 1_455 S
O403 Cd393 2.240 . S
O403 C401 1.279 1_455 S
O404 Cd394 2.297 . S
O404 C399 1.247 . S
O405 Cd394 2.439 . S
O405 C399 1.208 . S
O406 Cd407 2.223 . S
O406 C414 1.315 . S
Cd407 O406 2.223 . S
Cd407 O410 2.297 . S
Cd407 O411 2.439 . S
Cd407 O417 2.240 . S
Cd408 O409 2.240 . S
Cd408 O416 2.223 . S
Cd408 O418 2.297 . S
Cd408 O419 2.439 . S
O409 Cd408 2.240 . S
O409 C414 1.279 . S
O410 Cd407 2.297 . S
O410 C412 1.247 . S
O411 Cd407 2.439 . S
O411 C412 1.208 . S
C412 O410 1.247 . S
C412 O411 1.208 . S
C413 O418 1.247 . S
C413 O419 1.208 . S
C414 O406 1.315 . S
C414 O409 1.279 . S
C415 O416 1.315 . S
C415 O417 1.279 . S
O416 Cd408 2.223 . S
O416 C415 1.315 . S
O417 Cd407 2.240 . S
O417 C415 1.279 . S
O418 Cd408 2.297 . S
O418 C413 1.247 . S
O419 Cd408 2.439 . S
O419 C413 1.208 . S
O420 Cd421 2.223 . S
O420 C428 1.315 . S
Cd421 O420 2.223 . S
Cd421 O424 2.297 . S
Cd421 O425 2.439 . S
Cd421 O431 2.240 . S
Cd422 O423 2.240 . S
Cd422 O430 2.223 . S
Cd422 O432 2.297 . S
Cd422 O433 2.439 . S
O423 Cd422 2.240 . S
O423 C428 1.279 . S
O424 Cd421 2.297 . S
O424 C426 1.247 . S
O425 Cd421 2.439 . S
O425 C426 1.208 . S
C426 O424 1.247 . S
C426 O425 1.208 . S
C427 O432 1.247 . S
C427 O433 1.208 . S
C428 O420 1.315 . S
C428 O423 1.279 . S
C429 O430 1.315 1_655 S
C429 O431 1.279 1_655 S
O430 Cd422 2.223 . S
O430 C429 1.315 1_455 S
O431 Cd421 2.240 . S
O431 C429 1.279 1_455 S
O432 Cd422 2.297 . S
O432 C427 1.247 . S
O433 Cd422 2.439 . S
O433 C427 1.208 . S
O434 Cd435 2.223 . S
O434 C442 1.315 . S
Cd435 O434 2.223 . S
Cd435 O438 2.297 . S
Cd435 O439 2.439 . S
Cd435 O445 2.240 . S
Cd436 O437 2.240 . S
Cd436 O444 2.223 . S
Cd436 O446 2.297 . S
Cd436 O447 2.439 . S
O437 Cd436 2.240 . S
O437 C442 1.279 . S
O438 Cd435 2.297 . S
O438 C440 1.247 . S
O439 Cd435 2.439 . S
O439 C440 1.208 . S
C440 O438 1.247 . S
C440 O439 1.208 . S
C441 O446 1.247 . S
C441 O447 1.208 . S
C442 O434 1.315 . S
C442 O437 1.279 . S
C443 O444 1.315 . S
C443 O445 1.279 . S
O444 Cd436 2.223 . S
O444 C443 1.315 . S
O445 Cd435 2.240 . S
O445 C443 1.279 . S
O446 Cd436 2.297 . S
O446 C441 1.247 . S
O447 Cd436 2.439 . S
O447 C441 1.208 . S
C448 C449 1.349 . S
C448 C450 1.327 . S
C448 H473 0.950 . S
C449 C448 1.349 . S
C449 C465 1.349 . S
C450 C448 1.327 . S
C450 C469 1.429 . S
C450 H474 0.950 . S
C451 C468 1.574 . S
C451 C470 1.368 . S
C451 H475 0.949 . S
H452 C456 0.949 . S
C453 C454 1.349 . S
C453 C455 1.327 . S
C453 H476 0.950 . S
C454 C453 1.349 . S
C454 C466 1.349 . S
C455 C453 1.327 . S
C455 C471 1.429 . S
C455 H477 0.950 . S
C456 H452 0.949 . S
C456 C464 1.574 . S
C456 C472 1.368 . S
H457 C465 0.950 . S
H458 C463 0.950 . S
H459 C464 0.949 . S
H460 C466 0.950 . S
H461 C467 0.950 . S
H462 C468 0.949 . S
C463 H458 0.950 . S
C463 C465 1.327 . S
C463 C469 1.429 . S
C464 C456 1.574 . S
C464 H459 0.949 . S
C464 C470 1.368 . S
C465 C449 1.349 . S
C465 H457 0.950 . S
C465 C463 1.327 . S
C466 C454 1.349 . S
C466 H460 0.950 . S
C466 C467 1.327 . S
C467 H461 0.950 . S
C467 C466 1.327 . S
C467 C471 1.429 . S
C468 C451 1.574 . S
C468 H462 0.949 . S
C468 C472 1.368 . S
C469 C450 1.429 . S
C469 C463 1.429 . S
C469 C470 1.523 . S
C470 C451 1.368 . S
C470 C464 1.368 . S
C470 C469 1.523 . S
C471 C455 1.429 . S
C471 C467 1.429 . S
C471 C472 1.523 . S
C472 C456 1.368 . S
C472 C468 1.368 . S
C472 C471 1.523 . S
H473 C448 0.950 . S
H474 C450 0.950 . S
H475 C451 0.949 . S
H476 C453 0.950 . S
H477 C455 0.950 . S
C478 C479 1.349 . S
C478 C480 1.327 . S
C478 H503 0.950 . S
C479 C478 1.349 . S
C479 C495 1.349 . S
C480 C478 1.327 . S
C480 C499 1.429 . S
C480 H504 0.950 . S
C481 C498 1.574 . S
C481 C500 1.368 . S
C481 H505 0.949 . S
H482 C486 0.949 . S
C483 C484 1.349 . S
C483 C485 1.327 . S
C483 H506 0.950 . S
C484 C483 1.349 . S
C484 C496 1.349 . S
C485 C483 1.327 . S
C485 C501 1.429 . S
C485 H507 0.950 . S
C486 H482 0.949 . S
C486 C494 1.574 . S
C486 C502 1.368 . S
H487 C495 0.950 . S
H488 C493 0.950 . S
H489 C494 0.949 . S
H490 C496 0.950 . S
H491 C497 0.950 . S
H492 C498 0.949 . S
C493 H488 0.950 . S
C493 C495 1.327 . S
C493 C499 1.429 . S
C494 C486 1.574 . S
C494 H489 0.949 . S
C494 C500 1.368 . S
C495 C479 1.349 . S
C495 H487 0.950 . S
C495 C493 1.327 . S
C496 C484 1.349 . S
C496 H490 0.950 . S
C496 C497 1.327 . S
C497 H491 0.950 . S
C497 C496 1.327 . S
C497 C501 1.429 . S
C498 C481 1.574 . S
C498 H492 0.949 . S
C498 C502 1.368 . S
C499 C480 1.429 . S
C499 C493 1.429 . S
C499 C500 1.523 . S
C500 C481 1.368 . S
C500 C494 1.368 . S
C500 C499 1.523 . S
C501 C485 1.429 . S
C501 C497 1.429 . S
C501 C502 1.523 . S
C502 C486 1.368 . S
C502 C498 1.368 . S
C502 C501 1.523 . S
H503 C478 0.950 . S
H504 C480 0.950 . S
H505 C481 0.949 . S
H506 C483 0.950 . S
H507 C485 0.950 . S
C508 C509 1.349 . S
C508 C510 1.327 . S
C508 H533 0.950 . S
C509 C508 1.349 . S
C509 C525 1.349 . S
C510 C508 1.327 . S
C510 C529 1.429 . S
C510 H534 0.950 . S
C511 C528 1.574 . S
C511 C530 1.368 . S
C511 H535 0.949 . S
H512 C516 0.949 . S
C513 C514 1.349 . S
C513 C515 1.327 . S
C513 H536 0.950 . S
C514 C513 1.349 . S
C514 C526 1.349 . S
C515 C513 1.327 . S
C515 C531 1.429 . S
C515 H537 0.950 . S
C516 H512 0.949 . S
C516 C524 1.574 . S
C516 C532 1.368 . S
H517 C525 0.950 . S
H518 C523 0.950 . S
H519 C524 0.949 . S
H520 C526 0.950 . S
H521 C527 0.950 . S
H522 C528 0.949 . S
C523 H518 0.950 . S
C523 C525 1.327 . S
C523 C529 1.429 . S
C524 C516 1.574 . S
C524 H519 0.949 . S
C524 C530 1.368 . S
C525 C509 1.349 . S
C525 H517 0.950 . S
C525 C523 1.327 . S
C526 C514 1.349 . S
C526 H520 0.950 . S
C526 C527 1.327 . S
C527 H521 0.950 . S
C527 C526 1.327 . S
C527 C531 1.429 . S
C528 C511 1.574 . S
C528 H522 0.949 . S
C528 C532 1.368 . S
C529 C510 1.429 . S
C529 C523 1.429 . S
C529 C530 1.523 . S
C530 C511 1.368 . S
C530 C524 1.368 . S
C530 C529 1.523 . S
C531 C515 1.429 . S
C531 C527 1.429 . S
C531 C532 1.523 . S
C532 C516 1.368 . S
C532 C528 1.368 . S
C532 C531 1.523 . S
H533 C508 0.950 . S
H534 C510 0.950 . S
H535 C511 0.949 . S
H536 C513 0.950 . S
H537 C515 0.950 . S
C538 C539 1.349 . S
C538 C540 1.327 . S
C538 H563 0.950 . S
C539 C538 1.349 . S
C539 C555 1.349 . S
C540 C538 1.327 . S
C540 C559 1.429 . S
C540 H564 0.950 . S
C541 C558 1.574 . S
C541 C560 1.368 . S
C541 H565 0.949 . S
H542 C546 0.949 . S
C543 C544 1.349 . S
C543 C545 1.327 . S
C543 H566 0.950 . S
C544 C543 1.349 . S
C544 C556 1.349 . S
C545 C543 1.327 . S
C545 C561 1.429 . S
C545 H567 0.950 . S
C546 H542 0.949 . S
C546 C554 1.574 . S
C546 C562 1.368 . S
H547 C555 0.950 . S
H548 C553 0.950 . S
H549 C554 0.949 . S
H550 C556 0.950 . S
H551 C557 0.950 . S
H552 C558 0.949 . S
C553 H548 0.950 . S
C553 C555 1.327 . S
C553 C559 1.429 . S
C554 C546 1.574 . S
C554 H549 0.949 . S
C554 C560 1.368 . S
C555 C539 1.349 . S
C555 H547 0.950 . S
C555 C553 1.327 . S
C556 C544 1.349 . S
C556 H550 0.950 . S
C556 C557 1.327 . S
C557 H551 0.950 . S
C557 C556 1.327 . S
C557 C561 1.429 . S
C558 C541 1.574 . S
C558 H552 0.949 . S
C558 C562 1.368 . S
C559 C540 1.429 . S
C559 C553 1.429 . S
C559 C560 1.523 . S
C560 C541 1.368 . S
C560 C554 1.368 . S
C560 C559 1.523 . S
C561 C545 1.429 . S
C561 C557 1.429 . S
C561 C562 1.523 . S
C562 C546 1.368 . S
C562 C558 1.368 . S
C562 C561 1.523 . S
H563 C538 0.950 . S
H564 C540 0.950 . S
H565 C541 0.949 . S
H566 C543 0.950 . S
H567 C545 0.950 . S
C568 C569 1.349 . S
C568 C570 1.327 . S
C568 H593 0.950 . S
C569 C568 1.349 . S
C569 C585 1.349 . S
C570 C568 1.327 . S
C570 C589 1.429 . S
C570 H594 0.950 . S
C571 C588 1.574 . S
C571 C590 1.368 . S
C571 H595 0.949 . S
H572 C576 0.949 . S
C573 C574 1.349 . S
C573 C575 1.327 . S
C573 H596 0.950 . S
C574 C573 1.349 . S
C574 C586 1.349 . S
C575 C573 1.327 . S
C575 C591 1.429 . S
C575 H597 0.950 . S
C576 H572 0.949 . S
C576 C584 1.574 . S
C576 C592 1.368 . S
H577 C585 0.950 . S
H578 C583 0.950 . S
H579 C584 0.949 . S
H580 C586 0.950 . S
H581 C587 0.950 . S
H582 C588 0.949 . S
C583 H578 0.950 . S
C583 C585 1.327 . S
C583 C589 1.429 . S
C584 C576 1.574 . S
C584 H579 0.949 . S
C584 C590 1.368 . S
C585 C569 1.349 . S
C585 H577 0.950 . S
C585 C583 1.327 . S
C586 C574 1.349 . S
C586 H580 0.950 . S
C586 C587 1.327 . S
C587 H581 0.950 . S
C587 C586 1.327 . S
C587 C591 1.429 . S
C588 C571 1.574 . S
C588 H582 0.949 . S
C588 C592 1.368 . S
C589 C570 1.429 . S
C589 C583 1.429 . S
C589 C590 1.523 . S
C590 C571 1.368 . S
C590 C584 1.368 . S
C590 C589 1.523 . S
C591 C575 1.429 . S
C591 C587 1.429 . S
C591 C592 1.523 . S
C592 C576 1.368 . S
C592 C588 1.368 . S
C592 C591 1.523 . S
H593 C568 0.950 . S
H594 C570 0.950 . S
H595 C571 0.949 . S
H596 C573 0.950 . S
H597 C575 0.950 . S
C598 C599 1.349 . S
C598 C600 1.327 . S
C598 H623 0.950 . S
C599 C598 1.349 . S
C599 C615 1.349 . S
C600 C598 1.327 . S
C600 C619 1.429 . S
C600 H624 0.950 . S
C601 C618 1.574 . S
C601 C620 1.368 . S
C601 H625 0.949 . S
H602 C606 0.949 . S
C603 C604 1.349 . S
C603 C605 1.327 . S
C603 H626 0.950 . S
C604 C603 1.349 . S
C604 C616 1.349 . S
C605 C603 1.327 . S
C605 C621 1.429 . S
C605 H627 0.950 . S
C606 H602 0.949 . S
C606 C614 1.574 . S
C606 C622 1.368 . S
H607 C615 0.950 . S
H608 C613 0.950 . S
H609 C614 0.949 . S
H610 C616 0.950 . S
H611 C617 0.950 . S
H612 C618 0.949 . S
C613 H608 0.950 . S
C613 C615 1.327 . S
C613 C619 1.429 . S
C614 C606 1.574 . S
C614 H609 0.949 . S
C614 C620 1.368 . S
C615 C599 1.349 . S
C615 H607 0.950 . S
C615 C613 1.327 . S
C616 C604 1.349 . S
C616 H610 0.950 . S
C616 C617 1.327 . S
C617 H611 0.950 . S
C617 C616 1.327 . S
C617 C621 1.429 . S
C618 C601 1.574 . S
C618 H612 0.949 . S
C618 C622 1.368 . S
C619 C600 1.429 . S
C619 C613 1.429 . S
C619 C620 1.523 . S
C620 C601 1.368 . S
C620 C614 1.368 . S
C620 C619 1.523 . S
C621 C605 1.429 . S
C621 C617 1.429 . S
C621 C622 1.523 . S
C622 C606 1.368 . S
C622 C618 1.368 . S
C622 C621 1.523 . S
H623 C598 0.950 . S
H624 C600 0.950 . S
H625 C601 0.949 . S
H626 C603 0.950 . S
H627 C605 0.950 . S
C628 C629 1.349 . S
C628 C630 1.327 . S
C628 H653 0.950 . S
C629 C628 1.349 . S
C629 C645 1.349 . S
C630 C628 1.327 . S
C630 C649 1.429 . S
C630 H654 0.950 . S
C631 C648 1.574 . S
C631 C650 1.368 . S
C631 H655 0.949 . S
H632 C636 0.949 . S
C633 C634 1.349 . S
C633 C635 1.327 . S
C633 H656 0.950 . S
C634 C633 1.349 . S
C634 C646 1.349 . S
C635 C633 1.327 . S
C635 C651 1.429 . S
C635 H657 0.950 . S
C636 H632 0.949 . S
C636 C644 1.574 . S
C636 C652 1.368 . S
H637 C645 0.950 . S
H638 C643 0.950 . S
H639 C644 0.949 . S
H640 C646 0.950 . S
H641 C647 0.950 . S
H642 C648 0.949 . S
C643 H638 0.950 . S
C643 C645 1.327 . S
C643 C649 1.429 . S
C644 C636 1.574 . S
C644 H639 0.949 . S
C644 C650 1.368 . S
C645 C629 1.349 . S
C645 H637 0.950 . S
C645 C643 1.327 . S
C646 C634 1.349 . S
C646 H640 0.950 . S
C646 C647 1.327 . S
C647 H641 0.950 . S
C647 C646 1.327 . S
C647 C651 1.429 . S
C648 C631 1.574 . S
C648 H642 0.949 . S
C648 C652 1.368 . S
C649 C630 1.429 . S
C649 C643 1.429 . S
C649 C650 1.523 . S
C650 C631 1.368 . S
C650 C644 1.368 . S
C650 C649 1.523 . S
C651 C635 1.429 . S
C651 C647 1.429 . S
C651 C652 1.523 . S
C652 C636 1.368 . S
C652 C648 1.368 . S
C652 C651 1.523 . S
H653 C628 0.950 . S
H654 C630 0.950 . S
H655 C631 0.949 . S
H656 C633 0.950 . S
H657 C635 0.950 . S
C658 C659 1.349 . S
C658 C660 1.327 . S
C658 H683 0.950 . S
C659 C658 1.349 . S
C659 C675 1.349 . S
C660 C658 1.327 . S
C660 C679 1.429 . S
C660 H684 0.950 . S
C661 C678 1.574 . S
C661 C680 1.368 . S
C661 H685 0.949 . S
H662 C666 0.949 . S
C663 C664 1.349 . S
C663 C665 1.327 . S
C663 H686 0.950 . S
C664 C663 1.349 . S
C664 C676 1.349 . S
C665 C663 1.327 . S
C665 C681 1.429 . S
C665 H687 0.950 . S
C666 H662 0.949 . S
C666 C674 1.574 . S
C666 C682 1.368 . S
H667 C675 0.950 . S
H668 C673 0.950 . S
H669 C674 0.949 . S
H670 C676 0.950 . S
H671 C677 0.950 . S
H672 C678 0.949 . S
C673 H668 0.950 . S
C673 C675 1.327 . S
C673 C679 1.429 . S
C674 C666 1.574 . S
C674 H669 0.949 . S
C674 C680 1.368 . S
C675 C659 1.349 . S
C675 H667 0.950 . S
C675 C673 1.327 . S
C676 C664 1.349 . S
C676 H670 0.950 . S
C676 C677 1.327 . S
C677 H671 0.950 . S
C677 C676 1.327 . S
C677 C681 1.429 . S
C678 C661 1.574 . S
C678 H672 0.949 . S
C678 C682 1.368 . S
C679 C660 1.429 . S
C679 C673 1.429 . S
C679 C680 1.523 . S
C680 C661 1.368 . S
C680 C674 1.368 . S
C680 C679 1.523 . S
C681 C665 1.429 . S
C681 C677 1.429 . S
C681 C682 1.523 . S
C682 C666 1.368 . S
C682 C678 1.368 . S
C682 C681 1.523 . S
H683 C658 0.950 . S
H684 C660 0.950 . S
H685 C661 0.949 . S
H686 C663 0.950 . S
H687 C665 0.950 . S
C688 C689 1.349 . S
C688 C690 1.327 . S
C688 H713 0.950 . S
C689 C688 1.349 . S
C689 C705 1.349 . S
C690 C688 1.327 . S
C690 C709 1.429 . S
C690 H714 0.950 . S
C691 C708 1.574 . S
C691 C710 1.368 . S
C691 H715 0.949 . S
H692 C696 0.949 . S
C693 C694 1.349 . S
C693 C695 1.327 . S
C693 H716 0.950 . S
C694 C693 1.349 . S
C694 C706 1.349 . S
C695 C693 1.327 . S
C695 C711 1.429 . S
C695 H717 0.950 . S
C696 H692 0.949 . S
C696 C704 1.574 . S
C696 C712 1.368 . S
H697 C705 0.950 . S
H698 C703 0.950 . S
H699 C704 0.949 . S
H700 C706 0.950 . S
H701 C707 0.950 . S
H702 C708 0.949 . S
C703 H698 0.950 . S
C703 C705 1.327 . S
C703 C709 1.429 . S
C704 C696 1.574 . S
C704 H699 0.949 . S
C704 C710 1.368 . S
C705 C689 1.349 . S
C705 H697 0.950 . S
C705 C703 1.327 . S
C706 C694 1.349 . S
C706 H700 0.950 . S
C706 C707 1.327 . S
C707 H701 0.950 . S
C707 C706 1.327 . S
C707 C711 1.429 . S
C708 C691 1.574 . S
C708 H702 0.949 . S
C708 C712 1.368 . S
C709 C690 1.429 . S
C709 C703 1.429 . S
C709 C710 1.523 . S
C710 C691 1.368 . S
C710 C704 1.368 . S
C710 C709 1.523 . S
C711 C695 1.429 . S
C711 C707 1.429 . S
C711 C712 1.523 . S
C712 C696 1.368 . S
C712 C708 1.368 . S
C712 C711 1.523 . S
H713 C688 0.950 . S
H714 C690 0.950 . S
H715 C691 0.949 . S
H716 C693 0.950 . S
H717 C695 0.950 . S
C718 C719 1.349 . S
C718 C720 1.327 . S
C718 H743 0.950 . S
C719 C718 1.349 . S
C719 C735 1.349 . S
C720 C718 1.327 . S
C720 C739 1.429 . S
C720 H744 0.950 . S
C721 C738 1.574 . S
C721 C740 1.368 . S
C721 H745 0.949 . S
H722 C726 0.949 . S
C723 C724 1.349 . S
C723 C725 1.327 . S
C723 H746 0.950 . S
C724 C723 1.349 . S
C724 C736 1.349 . S
C725 C723 1.327 . S
C725 C741 1.429 . S
C725 H747 0.950 . S
C726 H722 0.949 . S
C726 C734 1.574 . S
C726 C742 1.368 . S
H727 C735 0.950 . S
H728 C733 0.950 . S
H729 C734 0.949 . S
H730 C736 0.950 . S
H731 C737 0.950 . S
H732 C738 0.949 . S
C733 H728 0.950 . S
C733 C735 1.327 . S
C733 C739 1.429 . S
C734 C726 1.574 . S
C734 H729 0.949 . S
C734 C740 1.368 . S
C735 C719 1.349 . S
C735 H727 0.950 . S
C735 C733 1.327 . S
C736 C724 1.349 . S
C736 H730 0.950 . S
C736 C737 1.327 . S
C737 H731 0.950 . S
C737 C736 1.327 . S
C737 C741 1.429 . S
C738 C721 1.574 . S
C738 H732 0.949 . S
C738 C742 1.368 . S
C739 C720 1.429 . S
C739 C733 1.429 . S
C739 C740 1.523 . S
C740 C721 1.368 . S
C740 C734 1.368 . S
C740 C739 1.523 . S
C741 C725 1.429 . S
C741 C737 1.429 . S
C741 C742 1.523 . S
C742 C726 1.368 . S
C742 C738 1.368 . S
C742 C741 1.523 . S
H743 C718 0.950 . S
H744 C720 0.950 . S
H745 C721 0.949 . S
H746 C723 0.950 . S
H747 C725 0.950 . S
C748 C749 1.349 . S
C748 C750 1.327 . S
C748 H773 0.950 . S
C749 C748 1.349 . S
C749 C765 1.349 . S
C750 C748 1.327 . S
C750 C769 1.429 . S
C750 H774 0.950 . S
C751 C768 1.574 . S
C751 C770 1.368 . S
C751 H775 0.949 . S
H752 C756 0.949 . S
C753 C754 1.349 . S
C753 C755 1.327 . S
C753 H776 0.950 . S
C754 C753 1.349 . S
C754 C766 1.349 . S
C755 C753 1.327 . S
C755 C771 1.429 . S
C755 H777 0.950 . S
C756 H752 0.949 . S
C756 C764 1.574 . S
C756 C772 1.368 . S
H757 C765 0.950 . S
H758 C763 0.950 . S
H759 C764 0.949 . S
H760 C766 0.950 . S
H761 C767 0.950 . S
H762 C768 0.949 . S
C763 H758 0.950 . S
C763 C765 1.327 . S
C763 C769 1.429 . S
C764 C756 1.574 . S
C764 H759 0.949 . S
C764 C770 1.368 . S
C765 C749 1.349 . S
C765 H757 0.950 . S
C765 C763 1.327 . S
C766 C754 1.349 . S
C766 H760 0.950 . S
C766 C767 1.327 . S
C767 H761 0.950 . S
C767 C766 1.327 . S
C767 C771 1.429 . S
C768 C751 1.574 . S
C768 H762 0.949 . S
C768 C772 1.368 . S
C769 C750 1.429 . S
C769 C763 1.429 . S
C769 C770 1.523 . S
C770 C751 1.368 . S
C770 C764 1.368 . S
C770 C769 1.523 . S
C771 C755 1.429 . S
C771 C767 1.429 . S
C771 C772 1.523 . S
C772 C756 1.368 . S
C772 C768 1.368 . S
C772 C771 1.523 . S
H773 C748 0.950 . S
H774 C750 0.950 . S
H775 C751 0.949 . S
H776 C753 0.950 . S
H777 C755 0.950 . S
C778 C779 1.349 . S
C778 C780 1.327 . S
C778 H803 0.950 . S
C779 C778 1.349 . S
C779 C795 1.349 . S
C780 C778 1.327 . S
C780 C799 1.429 . S
C780 H804 0.950 . S
C781 C798 1.574 . S
C781 C800 1.368 . S
C781 H805 0.949 . S
H782 C786 0.949 . S
C783 C784 1.349 . S
C783 C785 1.327 . S
C783 H806 0.950 . S
C784 C783 1.349 . S
C784 C796 1.349 . S
C785 C783 1.327 . S
C785 C801 1.429 . S
C785 H807 0.950 . S
C786 H782 0.949 . S
C786 C794 1.574 . S
C786 C802 1.368 . S
H787 C795 0.950 . S
H788 C793 0.950 . S
H789 C794 0.949 . S
H790 C796 0.950 . S
H791 C797 0.950 . S
H792 C798 0.949 . S
C793 H788 0.950 . S
C793 C795 1.327 . S
C793 C799 1.429 . S
C794 C786 1.574 . S
C794 H789 0.949 . S
C794 C800 1.368 . S
C795 C779 1.349 . S
C795 H787 0.950 . S
C795 C793 1.327 . S
C796 C784 1.349 . S
C796 H790 0.950 . S
C796 C797 1.327 . S
C797 H791 0.950 . S
C797 C796 1.327 . S
C797 C801 1.429 . S
C798 C781 1.574 . S
C798 H792 0.949 . S
C798 C802 1.368 . S
C799 C780 1.429 . S
C799 C793 1.429 . S
C799 C800 1.523 . S
C800 C781 1.368 . S
C800 C794 1.368 . S
C800 C799 1.523 . S
C801 C785 1.429 . S
C801 C797 1.429 . S
C801 C802 1.523 . S
C802 C786 1.368 . S
C802 C798 1.368 . S
C802 C801 1.523 . S
H803 C778 0.950 . S
H804 C780 0.950 . S
H805 C781 0.949 . S
H806 C783 0.950 . S
H807 C785 0.950 . S
C808 C809 1.349 . S
C808 C810 1.327 . S
C808 H833 0.950 . S
C809 C808 1.349 . S
C809 C825 1.349 . S
C810 C808 1.327 . S
C810 C829 1.429 . S
C810 H834 0.950 . S
C811 C828 1.574 . S
C811 C830 1.368 . S
C811 H835 0.949 . S
H812 C816 0.949 . S
C813 C814 1.349 . S
C813 C815 1.327 . S
C813 H836 0.950 . S
C814 C813 1.349 . S
C814 C826 1.349 . S
C815 C813 1.327 . S
C815 C831 1.429 . S
C815 H837 0.950 . S
C816 H812 0.949 . S
C816 C824 1.574 . S
C816 C832 1.368 . S
H817 C825 0.950 . S
H818 C823 0.950 . S
H819 C824 0.949 . S
H820 C826 0.950 . S
H821 C827 0.950 . S
H822 C828 0.949 . S
C823 H818 0.950 . S
C823 C825 1.327 . S
C823 C829 1.429 . S
C824 C816 1.574 . S
C824 H819 0.949 . S
C824 C830 1.368 . S
C825 C809 1.349 . S
C825 H817 0.950 . S
C825 C823 1.327 . S
C826 C814 1.349 . S
C826 H820 0.950 . S
C826 C827 1.327 . S
C827 H821 0.950 . S
C827 C826 1.327 . S
C827 C831 1.429 . S
C828 C811 1.574 . S
C828 H822 0.949 . S
C828 C832 1.368 . S
C829 C810 1.429 . S
C829 C823 1.429 . S
C829 C830 1.523 . S
C830 C811 1.368 . S
C830 C824 1.368 . S
C830 C829 1.523 . S
C831 C815 1.429 . S
C831 C827 1.429 . S
C831 C832 1.523 . S
C832 C816 1.368 . S
C832 C828 1.368 . S
C832 C831 1.523 . S
H833 C808 0.950 . S
H834 C810 0.950 . S
H835 C811 0.949 . S
H836 C813 0.950 . S
H837 C815 0.950 . S
C838 C839 1.349 . S
C838 C840 1.327 . S
C838 H863 0.950 . S
C839 C838 1.349 . S
C839 C855 1.349 . S
C840 C838 1.327 . S
C840 C859 1.429 . S
C840 H864 0.950 . S
C841 C858 1.574 . S
C841 C860 1.368 . S
C841 H865 0.949 . S
H842 C846 0.949 . S
C843 C844 1.349 . S
C843 C845 1.327 . S
C843 H866 0.950 . S
C844 C843 1.349 . S
C844 C856 1.349 . S
C845 C843 1.327 . S
C845 C861 1.429 . S
C845 H867 0.950 . S
C846 H842 0.949 . S
C846 C854 1.574 . S
C846 C862 1.368 . S
H847 C855 0.950 . S
H848 C853 0.950 . S
H849 C854 0.949 . S
H850 C856 0.950 . S
H851 C857 0.950 . S
H852 C858 0.949 . S
C853 H848 0.950 . S
C853 C855 1.327 . S
C853 C859 1.429 . S
C854 C846 1.574 . S
C854 H849 0.949 . S
C854 C860 1.368 . S
C855 C839 1.349 . S
C855 H847 0.950 . S
C855 C853 1.327 . S
C856 C844 1.349 . S
C856 H850 0.950 . S
C856 C857 1.327 . S
C857 H851 0.950 . S
C857 C856 1.327 . S
C857 C861 1.429 . S
C858 C841 1.574 . S
C858 H852 0.949 . S
C858 C862 1.368 . S
C859 C840 1.429 . S
C859 C853 1.429 . S
C859 C860 1.523 . S
C860 C841 1.368 . S
C860 C854 1.368 . S
C860 C859 1.523 . S
C861 C845 1.429 . S
C861 C857 1.429 . S
C861 C862 1.523 . S
C862 C846 1.368 . S
C862 C858 1.368 . S
C862 C861 1.523 . S
H863 C838 0.950 . S
H864 C840 0.950 . S
H865 C841 0.949 . S
H866 C843 0.950 . S
H867 C845 0.950 . S
C868 C869 1.349 . S
C868 C870 1.327 . S
C868 H893 0.950 . S
C869 C868 1.349 . S
C869 C885 1.349 . S
C870 C868 1.327 . S
C870 C889 1.429 . S
C870 H894 0.950 . S
C871 C888 1.574 . S
C871 C890 1.368 . S
C871 H895 0.949 . S
H872 C876 0.949 . S
C873 C874 1.349 . S
C873 C875 1.327 . S
C873 H896 0.950 . S
C874 C873 1.349 . S
C874 C886 1.349 . S
C875 C873 1.327 . S
C875 C891 1.429 . S
C875 H897 0.950 . S
C876 H872 0.949 . S
C876 C884 1.574 . S
C876 C892 1.368 . S
H877 C885 0.950 . S
H878 C883 0.950 . S
H879 C884 0.949 . S
H880 C886 0.950 . S
H881 C887 0.950 . S
H882 C888 0.949 . S
C883 H878 0.950 . S
C883 C885 1.327 . S
C883 C889 1.429 . S
C884 C876 1.574 . S
C884 H879 0.949 . S
C884 C890 1.368 . S
C885 C869 1.349 . S
C885 H877 0.950 . S
C885 C883 1.327 . S
C886 C874 1.349 . S
C886 H880 0.950 . S
C886 C887 1.327 . S
C887 H881 0.950 . S
C887 C886 1.327 . S
C887 C891 1.429 . S
C888 C871 1.574 . S
C888 H882 0.949 . S
C888 C892 1.368 . S
C889 C870 1.429 . S
C889 C883 1.429 . S
C889 C890 1.523 . S
C890 C871 1.368 . S
C890 C884 1.368 . S
C890 C889 1.523 . S
C891 C875 1.429 . S
C891 C887 1.429 . S
C891 C892 1.523 . S
C892 C876 1.368 . S
C892 C888 1.368 . S
C892 C891 1.523 . S
H893 C868 0.950 . S
H894 C870 0.950 . S
H895 C871 0.949 . S
H896 C873 0.950 . S
H897 C875 0.950 . S
C898 C899 1.349 . S
C898 C900 1.327 . S
C898 H923 0.950 . S
C899 C898 1.349 . S
C899 C915 1.349 . S
C900 C898 1.327 . S
C900 C919 1.429 . S
C900 H924 0.950 . S
C901 C918 1.574 . S
C901 C920 1.368 . S
C901 H925 0.949 . S
H902 C906 0.949 . S
C903 C904 1.349 . S
C903 C905 1.327 . S
C903 H926 0.950 . S
C904 C903 1.349 . S
C904 C916 1.349 . S
C905 C903 1.327 . S
C905 C921 1.429 . S
C905 H927 0.950 . S
C906 H902 0.949 . S
C906 C914 1.574 . S
C906 C922 1.368 . S
H907 C915 0.950 . S
H908 C913 0.950 . S
H909 C914 0.949 . S
H910 C916 0.950 . S
H911 C917 0.950 . S
H912 C918 0.949 . S
C913 H908 0.950 . S
C913 C915 1.327 . S
C913 C919 1.429 . S
C914 C906 1.574 . S
C914 H909 0.949 . S
C914 C920 1.368 . S
C915 C899 1.349 . S
C915 H907 0.950 . S
C915 C913 1.327 . S
C916 C904 1.349 . S
C916 H910 0.950 . S
C916 C917 1.327 . S
C917 H911 0.950 . S
C917 C916 1.327 . S
C917 C921 1.429 . S
C918 C901 1.574 . S
C918 H912 0.949 . S
C918 C922 1.368 . S
C919 C900 1.429 . S
C919 C913 1.429 . S
C919 C920 1.523 . S
C920 C901 1.368 . S
C920 C914 1.368 . S
C920 C919 1.523 . S
C921 C905 1.429 . S
C921 C917 1.429 . S
C921 C922 1.523 . S
C922 C906 1.368 . S
C922 C918 1.368 . S
C922 C921 1.523 . S
H923 C898 0.950 . S
H924 C900 0.950 . S
H925 C901 0.949 . S
H926 C903 0.950 . S
H927 C905 0.950 . S
C928 C929 1.349 . S
C928 C930 1.327 . S
C928 H953 0.950 . S
C929 C928 1.349 . S
C929 C945 1.349 . S
C930 C928 1.327 . S
C930 C949 1.429 . S
C930 H954 0.950 . S
C931 C948 1.574 . S
C931 C950 1.368 . S
C931 H955 0.949 . S
H932 C936 0.949 . S
C933 C934 1.349 . S
C933 C935 1.327 . S
C933 H956 0.950 . S
C934 C933 1.349 . S
C934 C946 1.349 . S
C935 C933 1.327 . S
C935 C951 1.429 . S
C935 H957 0.950 . S
C936 H932 0.949 . S
C936 C944 1.574 . S
C936 C952 1.368 . S
H937 C945 0.950 . S
H938 C943 0.950 . S
H939 C944 0.949 . S
H940 C946 0.950 . S
H941 C947 0.950 . S
H942 C948 0.949 . S
C943 H938 0.950 . S
C943 C945 1.327 . S
C943 C949 1.429 . S
C944 C936 1.574 . S
C944 H939 0.949 . S
C944 C950 1.368 . S
C945 C929 1.349 . S
C945 H937 0.950 . S
C945 C943 1.327 . S
C946 C934 1.349 . S
C946 H940 0.950 . S
C946 C947 1.327 . S
C947 H941 0.950 . S
C947 C946 1.327 . S
C947 C951 1.429 . S
C948 C931 1.574 . S
C948 H942 0.949 . S
C948 C952 1.368 . S
C949 C930 1.429 . S
C949 C943 1.429 . S
C949 C950 1.523 . S
C950 C931 1.368 . S
C950 C944 1.368 . S
C950 C949 1.523 . S
C951 C935 1.429 . S
C951 C947 1.429 . S
C951 C952 1.523 . S
C952 C936 1.368 . S
C952 C948 1.368 . S
C952 C951 1.523 . S
H953 C928 0.950 . S
H954 C930 0.950 . S
H955 C931 0.949 . S
H956 C933 0.950 . S
H957 C935 0.950 . S
C958 C959 1.349 . S
C958 C960 1.327 . S
C958 H983 0.950 . S
C959 C958 1.349 . S
C959 C975 1.349 . S
C960 C958 1.327 . S
C960 C979 1.429 . S
C960 H984 0.950 . S
C961 C978 1.574 . S
C961 C980 1.368 . S
C961 H985 0.949 . S
H962 C966 0.949 . S
C963 C964 1.349 . S
C963 C965 1.327 . S
C963 H986 0.950 . S
C964 C963 1.349 . S
C964 C976 1.349 . S
C965 C963 1.327 . S
C965 C981 1.429 . S
C965 H987 0.950 . S
C966 H962 0.949 . S
C966 C974 1.574 . S
C966 C982 1.368 . S
H967 C975 0.950 . S
H968 C973 0.950 . S
H969 C974 0.949 . S
H970 C976 0.950 . S
H971 C977 0.950 . S
H972 C978 0.949 . S
C973 H968 0.950 . S
C973 C975 1.327 . S
C973 C979 1.429 . S
C974 C966 1.574 . S
C974 H969 0.949 . S
C974 C980 1.368 . S
C975 C959 1.349 . S
C975 H967 0.950 . S
C975 C973 1.327 . S
C976 C964 1.349 . S
C976 H970 0.950 . S
C976 C977 1.327 . S
C977 H971 0.950 . S
C977 C976 1.327 . S
C977 C981 1.429 . S
C978 C961 1.574 . S
C978 H972 0.949 . S
C978 C982 1.368 . S
C979 C960 1.429 . S
C979 C973 1.429 . S
C979 C980 1.523 . S
C980 C961 1.368 . S
C980 C974 1.368 . S
C980 C979 1.523 . S
C981 C965 1.429 . S
C981 C977 1.429 . S
C981 C982 1.523 . S
C982 C966 1.368 . S
C982 C978 1.368 . S
C982 C981 1.523 . S
H983 C958 0.950 . S
H984 C960 0.950 . S
H985 C961 0.949 . S
H986 C963 0.950 . S
H987 C965 0.950 . S
C988 C989 1.349 . S
C988 C990 1.327 . S
C988 H1013 0.950 . S
C989 C988 1.349 . S
C989 C1005 1.349 . S
C990 C988 1.327 . S
C990 C1009 1.429 . S
C990 H1014 0.950 . S
C991 C1008 1.574 . S
C991 C1010 1.368 . S
C991 H1015 0.949 . S
H992 C996 0.949 . S
C993 C994 1.349 . S
C993 C995 1.327 . S
C993 H1016 0.950 . S
C994 C993 1.349 . S
C994 C1006 1.349 . S
C995 C993 1.327 . S
C995 C1011 1.429 . S
C995 H1017 0.950 . S
C996 H992 0.949 . S
C996 C1004 1.574 . S
C996 C1012 1.368 . S
H997 C1005 0.950 . S
H998 C1003 0.950 . S
H999 C1004 0.949 . S
H1000 C1006 0.950 . S
H1001 C1007 0.950 . S
H1002 C1008 0.949 . S
C1003 H998 0.950 . S
C1003 C1005 1.327 . S
C1003 C1009 1.429 . S
C1004 C996 1.574 . S
C1004 H999 0.949 . S
C1004 C1010 1.368 . S
C1005 C989 1.349 . S
C1005 H997 0.950 . S
C1005 C1003 1.327 . S
C1006 C994 1.349 . S
C1006 H1000 0.950 . S
C1006 C1007 1.327 . S
C1007 H1001 0.950 . S
C1007 C1006 1.327 . S
C1007 C1011 1.429 . S
C1008 C991 1.574 . S
C1008 H1002 0.949 . S
C1008 C1012 1.368 . S
C1009 C990 1.429 . S
C1009 C1003 1.429 . S
C1009 C1010 1.523 . S
C1010 C991 1.368 . S
C1010 C1004 1.368 . S
C1010 C1009 1.523 . S
C1011 C995 1.429 . S
C1011 C1007 1.429 . S
C1011 C1012 1.523 . S
C1012 C996 1.368 . S
C1012 C1008 1.368 . S
C1012 C1011 1.523 . S
H1013 C988 0.950 . S
H1014 C990 0.950 . S
H1015 C991 0.949 . S
H1016 C993 0.950 . S
H1017 C995 0.950 . S
C1018 C1019 1.349 . S
C1018 C1020 1.327 . S
C1018 H1043 0.950 . S
C1019 C1018 1.349 . S
C1019 C1035 1.349 . S
C1020 C1018 1.327 . S
C1020 C1039 1.429 . S
C1020 H1044 0.950 . S
C1021 C1038 1.574 . S
C1021 C1040 1.368 . S
C1021 H1045 0.949 . S
H1022 C1026 0.949 . S
C1023 C1024 1.349 . S
C1023 C1025 1.327 . S
C1023 H1046 0.950 . S
C1024 C1023 1.349 . S
C1024 C1036 1.349 . S
C1025 C1023 1.327 . S
C1025 C1041 1.429 . S
C1025 H1047 0.950 . S
C1026 H1022 0.949 . S
C1026 C1034 1.574 . S
C1026 C1042 1.368 . S
H1027 C1035 0.950 . S
H1028 C1033 0.950 . S
H1029 C1034 0.949 . S
H1030 C1036 0.950 . S
H1031 C1037 0.950 . S
H1032 C1038 0.949 . S
C1033 H1028 0.950 . S
C1033 C1035 1.327 . S
C1033 C1039 1.429 . S
C1034 C1026 1.574 . S
C1034 H1029 0.949 . S
C1034 C1040 1.368 . S
C1035 C1019 1.349 . S
C1035 H1027 0.950 . S
C1035 C1033 1.327 . S
C1036 C1024 1.349 . S
C1036 H1030 0.950 . S
C1036 C1037 1.327 . S
C1037 H1031 0.950 . S
C1037 C1036 1.327 . S
C1037 C1041 1.429 . S
C1038 C1021 1.574 . S
C1038 H1032 0.949 . S
C1038 C1042 1.368 . S
C1039 C1020 1.429 . S
C1039 C1033 1.429 . S
C1039 C1040 1.523 . S
C1040 C1021 1.368 . S
C1040 C1034 1.368 . S
C1040 C1039 1.523 . S
C1041 C1025 1.429 . S
C1041 C1037 1.429 . S
C1041 C1042 1.523 . S
C1042 C1026 1.368 . S
C1042 C1038 1.368 . S
C1042 C1041 1.523 . S
H1043 C1018 0.950 . S
H1044 C1020 0.950 . S
H1045 C1021 0.949 . S
H1046 C1023 0.950 . S
H1047 C1025 0.950 . S
C1048 C1049 1.349 . S
C1048 C1050 1.327 . S
C1048 H1073 0.950 . S
C1049 C1048 1.349 . S
C1049 C1065 1.349 . S
C1050 C1048 1.327 . S
C1050 C1069 1.429 . S
C1050 H1074 0.950 . S
C1051 C1068 1.574 . S
C1051 C1070 1.368 . S
C1051 H1075 0.949 . S
H1052 C1056 0.949 . S
C1053 C1054 1.349 . S
C1053 C1055 1.327 . S
C1053 H1076 0.950 . S
C1054 C1053 1.349 . S
C1054 C1066 1.349 . S
C1055 C1053 1.327 . S
C1055 C1071 1.429 . S
C1055 H1077 0.950 . S
C1056 H1052 0.949 . S
C1056 C1064 1.574 . S
C1056 C1072 1.368 . S
H1057 C1065 0.950 . S
H1058 C1063 0.950 . S
H1059 C1064 0.949 . S
H1060 C1066 0.950 . S
H1061 C1067 0.950 . S
H1062 C1068 0.949 . S
C1063 H1058 0.950 . S
C1063 C1065 1.327 . S
C1063 C1069 1.429 . S
C1064 C1056 1.574 . S
C1064 H1059 0.949 . S
C1064 C1070 1.368 . S
C1065 C1049 1.349 . S
C1065 H1057 0.950 . S
C1065 C1063 1.327 . S
C1066 C1054 1.349 . S
C1066 H1060 0.950 . S
C1066 C1067 1.327 . S
C1067 H1061 0.950 . S
C1067 C1066 1.327 . S
C1067 C1071 1.429 . S
C1068 C1051 1.574 . S
C1068 H1062 0.949 . S
C1068 C1072 1.368 . S
C1069 C1050 1.429 . S
C1069 C1063 1.429 . S
C1069 C1070 1.523 . S
C1070 C1051 1.368 . S
C1070 C1064 1.368 . S
C1070 C1069 1.523 . S
C1071 C1055 1.429 . S
C1071 C1067 1.429 . S
C1071 C1072 1.523 . S
C1072 C1056 1.368 . S
C1072 C1068 1.368 . S
C1072 C1071 1.523 . S
H1073 C1048 0.950 . S
H1074 C1050 0.950 . S
H1075 C1051 0.949 . S
H1076 C1053 0.950 . S
H1077 C1055 0.950 . S
C1078 C1079 1.349 . S
C1078 C1080 1.327 . S
C1078 H1103 0.950 . S
C1079 C1078 1.349 . S
C1079 C1095 1.349 . S
C1080 C1078 1.327 . S
C1080 C1099 1.429 . S
C1080 H1104 0.950 . S
C1081 C1098 1.574 . S
C1081 C1100 1.368 . S
C1081 H1105 0.949 . S
H1082 C1086 0.949 . S
C1083 C1084 1.349 . S
C1083 C1085 1.327 . S
C1083 H1106 0.950 . S
C1084 C1083 1.349 . S
C1084 C1096 1.349 . S
C1085 C1083 1.327 . S
C1085 C1101 1.429 . S
C1085 H1107 0.950 . S
C1086 H1082 0.949 . S
C1086 C1094 1.574 . S
C1086 C1102 1.368 . S
H1087 C1095 0.950 . S
H1088 C1093 0.950 . S
H1089 C1094 0.949 . S
H1090 C1096 0.950 . S
H1091 C1097 0.950 . S
H1092 C1098 0.949 . S
C1093 H1088 0.950 . S
C1093 C1095 1.327 . S
C1093 C1099 1.429 . S
C1094 C1086 1.574 . S
C1094 H1089 0.949 . S
C1094 C1100 1.368 . S
C1095 C1079 1.349 . S
C1095 H1087 0.950 . S
C1095 C1093 1.327 . S
C1096 C1084 1.349 . S
C1096 H1090 0.950 . S
C1096 C1097 1.327 . S
C1097 H1091 0.950 . S
C1097 C1096 1.327 . S
C1097 C1101 1.429 . S
C1098 C1081 1.574 . S
C1098 H1092 0.949 . S
C1098 C1102 1.368 . S
C1099 C1080 1.429 . S
C1099 C1093 1.429 . S
C1099 C1100 1.523 . S
C1100 C1081 1.368 . S
C1100 C1094 1.368 . S
C1100 C1099 1.523 . S
C1101 C1085 1.429 . S
C1101 C1097 1.429 . S
C1101 C1102 1.523 . S
C1102 C1086 1.368 . S
C1102 C1098 1.368 . S
C1102 C1101 1.523 . S
H1103 C1078 0.950 . S
H1104 C1080 0.950 . S
H1105 C1081 0.949 . S
H1106 C1083 0.950 . S
H1107 C1085 0.950 . S
C1108 C1109 1.349 . S
C1108 C1110 1.327 . S
C1108 H1133 0.950 . S
C1109 C1108 1.349 . S
C1109 C1125 1.349 . S
C1110 C1108 1.327 . S
C1110 C1129 1.429 . S
C1110 H1134 0.950 . S
C1111 C1128 1.574 . S
C1111 C1130 1.368 . S
C1111 H1135 0.949 . S
H1112 C1116 0.949 . S
C1113 C1114 1.349 . S
C1113 C1115 1.327 . S
C1113 H1136 0.950 . S
C1114 C1113 1.349 . S
C1114 C1126 1.349 . S
C1115 C1113 1.327 . S
C1115 C1131 1.429 . S
C1115 H1137 0.950 . S
C1116 H1112 0.949 . S
C1116 C1124 1.574 . S
C1116 C1132 1.368 . S
H1117 C1125 0.950 . S
H1118 C1123 0.950 . S
H1119 C1124 0.949 . S
H1120 C1126 0.950 . S
H1121 C1127 0.950 . S
H1122 C1128 0.949 . S
C1123 H1118 0.950 . S
C1123 C1125 1.327 . S
C1123 C1129 1.429 . S
C1124 C1116 1.574 . S
C1124 H1119 0.949 . S
C1124 C1130 1.368 . S
C1125 C1109 1.349 . S
C1125 H1117 0.950 . S
C1125 C1123 1.327 . S
C1126 C1114 1.349 . S
C1126 H1120 0.950 . S
C1126 C1127 1.327 . S
C1127 H1121 0.950 . S
C1127 C1126 1.327 . S
C1127 C1131 1.429 . S
C1128 C1111 1.574 . S
C1128 H1122 0.949 . S
C1128 C1132 1.368 . S
C1129 C1110 1.429 . S
C1129 C1123 1.429 . S
C1129 C1130 1.523 . S
C1130 C1111 1.368 . S
C1130 C1124 1.368 . S
C1130 C1129 1.523 . S
C1131 C1115 1.429 . S
C1131 C1127 1.429 . S
C1131 C1132 1.523 . S
C1132 C1116 1.368 . S
C1132 C1128 1.368 . S
C1132 C1131 1.523 . S
H1133 C1108 0.950 . S
H1134 C1110 0.950 . S
H1135 C1111 0.949 . S
H1136 C1113 0.950 . S
H1137 C1115 0.950 . S
C1138 C1139 1.349 . S
C1138 C1140 1.327 . S
C1138 H1163 0.950 . S
C1139 C1138 1.349 . S
C1139 C1155 1.349 . S
C1140 C1138 1.327 . S
C1140 C1159 1.429 . S
C1140 H1164 0.950 . S
C1141 C1158 1.574 . S
C1141 C1160 1.368 . S
C1141 H1165 0.949 . S
H1142 C1146 0.949 . S
C1143 C1144 1.349 . S
C1143 C1145 1.327 . S
C1143 H1166 0.950 . S
C1144 C1143 1.349 . S
C1144 C1156 1.349 . S
C1145 C1143 1.327 . S
C1145 C1161 1.429 . S
C1145 H1167 0.950 . S
C1146 H1142 0.949 . S
C1146 C1154 1.574 . S
C1146 C1162 1.368 . S
H1147 C1155 0.950 . S
H1148 C1153 0.950 . S
H1149 C1154 0.949 . S
H1150 C1156 0.950 . S
H1151 C1157 0.950 . S
H1152 C1158 0.949 . S
C1153 H1148 0.950 . S
C1153 C1155 1.327 . S
C1153 C1159 1.429 . S
C1154 C1146 1.574 . S
C1154 H1149 0.949 . S
C1154 C1160 1.368 . S
C1155 C1139 1.349 . S
C1155 H1147 0.950 . S
C1155 C1153 1.327 . S
C1156 C1144 1.349 . S
C1156 H1150 0.950 . S
C1156 C1157 1.327 . S
C1157 H1151 0.950 . S
C1157 C1156 1.327 . S
C1157 C1161 1.429 . S
C1158 C1141 1.574 . S
C1158 H1152 0.949 . S
C1158 C1162 1.368 . S
C1159 C1140 1.429 . S
C1159 C1153 1.429 . S
C1159 C1160 1.523 . S
C1160 C1141 1.368 . S
C1160 C1154 1.368 . S
C1160 C1159 1.523 . S
C1161 C1145 1.429 . S
C1161 C1157 1.429 . S
C1161 C1162 1.523 . S
C1162 C1146 1.368 . S
C1162 C1158 1.368 . S
C1162 C1161 1.523 . S
H1163 C1138 0.950 . S
H1164 C1140 0.950 . S
H1165 C1141 0.949 . S
H1166 C1143 0.950 . S
H1167 C1145 0.950 . S
C1168 C1169 1.349 . S
C1168 C1170 1.327 . S
C1168 H1193 0.950 . S
C1169 C1168 1.349 . S
C1169 C1185 1.349 . S
C1170 C1168 1.327 . S
C1170 C1189 1.429 . S
C1170 H1194 0.950 . S
C1171 C1188 1.574 . S
C1171 C1190 1.368 . S
C1171 H1195 0.949 . S
H1172 C1176 0.949 . S
C1173 C1174 1.349 . S
C1173 C1175 1.327 . S
C1173 H1196 0.950 . S
C1174 C1173 1.349 . S
C1174 C1186 1.349 . S
C1175 C1173 1.327 . S
C1175 C1191 1.429 . S
C1175 H1197 0.950 . S
C1176 H1172 0.949 . S
C1176 C1184 1.574 . S
C1176 C1192 1.368 . S
H1177 C1185 0.950 . S
H1178 C1183 0.950 . S
H1179 C1184 0.949 . S
H1180 C1186 0.950 . S
H1181 C1187 0.950 . S
H1182 C1188 0.949 . S
C1183 H1178 0.950 . S
C1183 C1185 1.327 . S
C1183 C1189 1.429 . S
C1184 C1176 1.574 . S
C1184 H1179 0.949 . S
C1184 C1190 1.368 . S
C1185 C1169 1.349 . S
C1185 H1177 0.950 . S
C1185 C1183 1.327 . S
C1186 C1174 1.349 . S
C1186 H1180 0.950 . S
C1186 C1187 1.327 . S
C1187 H1181 0.950 . S
C1187 C1186 1.327 . S
C1187 C1191 1.429 . S
C1188 C1171 1.574 . S
C1188 H1182 0.949 . S
C1188 C1192 1.368 . S
C1189 C1170 1.429 . S
C1189 C1183 1.429 . S
C1189 C1190 1.523 . S
C1190 C1171 1.368 . S
C1190 C1184 1.368 . S
C1190 C1189 1.523 . S
C1191 C1175 1.429 . S
C1191 C1187 1.429 . S
C1191 C1192 1.523 . S
C1192 C1176 1.368 . S
C1192 C1188 1.368 . S
C1192 C1191 1.523 . S
H1193 C1168 0.950 . S
H1194 C1170 0.950 . S
H1195 C1171 0.949 . S
H1196 C1173 0.950 . S
H1197 C1175 0.950 . S
C1198 C1199 1.349 . S
C1198 C1200 1.327 . S
C1198 H1223 0.950 . S
C1199 C1198 1.349 . S
C1199 C1215 1.349 . S
C1200 C1198 1.327 . S
C1200 C1219 1.429 . S
C1200 H1224 0.950 . S
C1201 C1218 1.574 . S
C1201 C1220 1.368 . S
C1201 H1225 0.949 . S
H1202 C1206 0.949 . S
C1203 C1204 1.349 . S
C1203 C1205 1.327 . S
C1203 H1226 0.950 . S
C1204 C1203 1.349 . S
C1204 C1216 1.349 . S
C1205 C1203 1.327 . S
C1205 C1221 1.429 . S
C1205 H1227 0.950 . S
C1206 H1202 0.949 . S
C1206 C1214 1.574 . S
C1206 C1222 1.368 . S
H1207 C1215 0.950 . S
H1208 C1213 0.950 . S
H1209 C1214 0.949 . S
H1210 C1216 0.950 . S
H1211 C1217 0.950 . S
H1212 C1218 0.949 . S
C1213 H1208 0.950 . S
C1213 C1215 1.327 . S
C1213 C1219 1.429 . S
C1214 C1206 1.574 . S
C1214 H1209 0.949 . S
C1214 C1220 1.368 . S
C1215 C1199 1.349 . S
C1215 H1207 0.950 . S
C1215 C1213 1.327 . S
C1216 C1204 1.349 . S
C1216 H1210 0.950 . S
C1216 C1217 1.327 . S
C1217 H1211 0.950 . S
C1217 C1216 1.327 . S
C1217 C1221 1.429 . S
C1218 C1201 1.574 . S
C1218 H1212 0.949 . S
C1218 C1222 1.368 . S
C1219 C1200 1.429 . S
C1219 C1213 1.429 . S
C1219 C1220 1.523 . S
C1220 C1201 1.368 . S
C1220 C1214 1.368 . S
C1220 C1219 1.523 . S
C1221 C1205 1.429 . S
C1221 C1217 1.429 . S
C1221 C1222 1.523 . S
C1222 C1206 1.368 . S
C1222 C1218 1.368 . S
C1222 C1221 1.523 . S
H1223 C1198 0.950 . S
H1224 C1200 0.950 . S
H1225 C1201 0.949 . S
H1226 C1203 0.950 . S
H1227 C1205 0.950 . S
C1228 C1229 1.349 . S
C1228 C1230 1.327 . S
C1228 H1253 0.950 . S
C1229 C1228 1.349 . S
C1229 C1245 1.349 . S
C1230 C1228 1.327 . S
C1230 C1249 1.429 . S
C1230 H1254 0.950 . S
C1231 C1248 1.574 . S
C1231 C1250 1.368 . S
C1231 H1255 0.949 . S
H1232 C1236 0.949 . S
C1233 C1234 1.349 . S
C1233 C1235 1.327 . S
C1233 H1256 0.950 . S
C1234 C1233 1.349 . S
C1234 C1246 1.349 . S
C1235 C1233 1.327 . S
C1235 C1251 1.429 . S
C1235 H1257 0.950 . S
C1236 H1232 0.949 . S
C1236 C1244 1.574 . S
C1236 C1252 1.368 . S
H1237 C1245 0.950 . S
H1238 C1243 0.950 . S
H1239 C1244 0.949 . S
H1240 C1246 0.950 . S
H1241 C1247 0.950 . S
H1242 C1248 0.949 . S
C1243 H1238 0.950 . S
C1243 C1245 1.327 . S
C1243 C1249 1.429 . S
C1244 C1236 1.574 . S
C1244 H1239 0.949 . S
C1244 C1250 1.368 . S
C1245 C1229 1.349 . S
C1245 H1237 0.950 . S
C1245 C1243 1.327 . S
C1246 C1234 1.349 . S
C1246 H1240 0.950 . S
C1246 C1247 1.327 . S
C1247 H1241 0.950 . S
C1247 C1246 1.327 . S
C1247 C1251 1.429 . S
C1248 C1231 1.574 . S
C1248 H1242 0.949 . S
C1248 C1252 1.368 . S
C1249 C1230 1.429 . S
C1249 C1243 1.429 . S
C1249 C1250 1.523 . S
C1250 C1231 1.368 . S
C1250 C1244 1.368 . S
C1250 C1249 1.523 . S
C1251 C1235 1.429 . S
C1251 C1247 1.429 . S
C1251 C1252 1.523 . S
C1252 C1236 1.368 . S
C1252 C1248 1.368 . S
C1252 C1251 1.523 . S
H1253 C1228 0.950 . S
H1254 C1230 0.950 . S
H1255 C1231 0.949 . S
H1256 C1233 0.950 . S
H1257 C1235 0.950 . S
C1258 C1259 1.349 . S
C1258 C1260 1.327 . S
C1258 H1283 0.950 . S
C1259 C1258 1.349 . S
C1259 C1275 1.349 . S
C1260 C1258 1.327 . S
C1260 C1279 1.429 . S
C1260 H1284 0.950 . S
C1261 C1278 1.574 . S
C1261 C1280 1.368 . S
C1261 H1285 0.949 . S
H1262 C1266 0.949 . S
C1263 C1264 1.349 . S
C1263 C1265 1.327 . S
C1263 H1286 0.950 . S
C1264 C1263 1.349 . S
C1264 C1276 1.349 . S
C1265 C1263 1.327 . S
C1265 C1281 1.429 . S
C1265 H1287 0.950 . S
C1266 H1262 0.949 . S
C1266 C1274 1.574 . S
C1266 C1282 1.368 . S
H1267 C1275 0.950 . S
H1268 C1273 0.950 . S
H1269 C1274 0.949 . S
H1270 C1276 0.950 . S
H1271 C1277 0.950 . S
H1272 C1278 0.949 . S
C1273 H1268 0.950 . S
C1273 C1275 1.327 . S
C1273 C1279 1.429 . S
C1274 C1266 1.574 . S
C1274 H1269 0.949 . S
C1274 C1280 1.368 . S
C1275 C1259 1.349 . S
C1275 H1267 0.950 . S
C1275 C1273 1.327 . S
C1276 C1264 1.349 . S
C1276 H1270 0.950 . S
C1276 C1277 1.327 . S
C1277 H1271 0.950 . S
C1277 C1276 1.327 . S
C1277 C1281 1.429 . S
C1278 C1261 1.574 . S
C1278 H1272 0.949 . S
C1278 C1282 1.368 . S
C1279 C1260 1.429 . S
C1279 C1273 1.429 . S
C1279 C1280 1.523 . S
C1280 C1261 1.368 . S
C1280 C1274 1.368 . S
C1280 C1279 1.523 . S
C1281 C1265 1.429 . S
C1281 C1277 1.429 . S
C1281 C1282 1.523 . S
C1282 C1266 1.368 . S
C1282 C1278 1.368 . S
C1282 C1281 1.523 . S
H1283 C1258 0.950 . S
H1284 C1260 0.950 . S
H1285 C1261 0.949 . S
H1286 C1263 0.950 . S
H1287 C1265 0.950 . S
C1288 C1289 1.349 . S
C1288 C1290 1.327 . S
C1288 H1313 0.950 . S
C1289 C1288 1.349 . S
C1289 C1305 1.349 . S
C1290 C1288 1.327 . S
C1290 C1309 1.429 . S
C1290 H1314 0.950 . S
C1291 C1308 1.574 . S
C1291 C1310 1.368 . S
C1291 H1315 0.949 . S
H1292 C1296 0.949 . S
C1293 C1294 1.349 . S
C1293 C1295 1.327 . S
C1293 H1316 0.950 . S
C1294 C1293 1.349 . S
C1294 C1306 1.349 . S
C1295 C1293 1.327 . S
C1295 C1311 1.429 . S
C1295 H1317 0.950 . S
C1296 H1292 0.949 . S
C1296 C1304 1.574 . S
C1296 C1312 1.368 . S
H1297 C1305 0.950 . S
H1298 C1303 0.950 . S
H1299 C1304 0.949 . S
H1300 C1306 0.950 . S
H1301 C1307 0.950 . S
H1302 C1308 0.949 . S
C1303 H1298 0.950 . S
C1303 C1305 1.327 . S
C1303 C1309 1.429 . S
C1304 C1296 1.574 . S
C1304 H1299 0.949 . S
C1304 C1310 1.368 . S
C1305 C1289 1.349 . S
C1305 H1297 0.950 . S
C1305 C1303 1.327 . S
C1306 C1294 1.349 . S
C1306 H1300 0.950 . S
C1306 C1307 1.327 . S
C1307 H1301 0.950 . S
C1307 C1306 1.327 . S
C1307 C1311 1.429 . S
C1308 C1291 1.574 . S
C1308 H1302 0.949 . S
C1308 C1312 1.368 . S
C1309 C1290 1.429 . S
C1309 C1303 1.429 . S
C1309 C1310 1.523 . S
C1310 C1291 1.368 . S
C1310 C1304 1.368 . S
C1310 C1309 1.523 . S
C1311 C1295 1.429 . S
C1311 C1307 1.429 . S
C1311 C1312 1.523 . S
C1312 C1296 1.368 . S
C1312 C1308 1.368 . S
C1312 C1311 1.523 . S
H1313 C1288 0.950 . S
H1314 C1290 0.950 . S
H1315 C1291 0.949 . S
H1316 C1293 0.950 . S
H1317 C1295 0.950 . S
C1318 C1319 1.349 . S
C1318 C1320 1.327 . S
C1318 H1343 0.950 . S
C1319 C1318 1.349 . S
C1319 C1335 1.349 . S
C1320 C1318 1.327 . S
C1320 C1339 1.429 . S
C1320 H1344 0.950 . S
C1321 C1338 1.574 . S
C1321 C1340 1.368 . S
C1321 H1345 0.949 . S
H1322 C1326 0.949 . S
C1323 C1324 1.349 . S
C1323 C1325 1.327 . S
C1323 H1346 0.950 . S
C1324 C1323 1.349 . S
C1324 C1336 1.349 . S
C1325 C1323 1.327 . S
C1325 C1341 1.429 . S
C1325 H1347 0.950 . S
C1326 H1322 0.949 . S
C1326 C1334 1.574 . S
C1326 C1342 1.368 . S
H1327 C1335 0.950 . S
H1328 C1333 0.950 . S
H1329 C1334 0.949 . S
H1330 C1336 0.950 . S
H1331 C1337 0.950 . S
H1332 C1338 0.949 . S
C1333 H1328 0.950 . S
C1333 C1335 1.327 . S
C1333 C1339 1.429 . S
C1334 C1326 1.574 . S
C1334 H1329 0.949 . S
C1334 C1340 1.368 . S
C1335 C1319 1.349 . S
C1335 H1327 0.950 . S
C1335 C1333 1.327 . S
C1336 C1324 1.349 . S
C1336 H1330 0.950 . S
C1336 C1337 1.327 . S
C1337 H1331 0.950 . S
C1337 C1336 1.327 . S
C1337 C1341 1.429 . S
C1338 C1321 1.574 . S
C1338 H1332 0.949 . S
C1338 C1342 1.368 . S
C1339 C1320 1.429 . S
C1339 C1333 1.429 . S
C1339 C1340 1.523 . S
C1340 C1321 1.368 . S
C1340 C1334 1.368 . S
C1340 C1339 1.523 . S
C1341 C1325 1.429 . S
C1341 C1337 1.429 . S
C1341 C1342 1.523 . S
C1342 C1326 1.368 . S
C1342 C1338 1.368 . S
C1342 C1341 1.523 . S
H1343 C1318 0.950 . S
H1344 C1320 0.950 . S
H1345 C1321 0.949 . S
H1346 C1323 0.950 . S
H1347 C1325 0.950 . S
C1348 C1349 1.349 . S
C1348 C1350 1.327 . S
C1348 H1373 0.950 . S
C1349 C1348 1.349 . S
C1349 C1365 1.349 . S
C1350 C1348 1.327 . S
C1350 C1369 1.429 . S
C1350 H1374 0.950 . S
C1351 C1368 1.574 . S
C1351 C1370 1.368 . S
C1351 H1375 0.949 . S
H1352 C1356 0.949 . S
C1353 C1354 1.349 . S
C1353 C1355 1.327 . S
C1353 H1376 0.950 . S
C1354 C1353 1.349 . S
C1354 C1366 1.349 . S
C1355 C1353 1.327 . S
C1355 C1371 1.429 . S
C1355 H1377 0.950 . S
C1356 H1352 0.949 . S
C1356 C1364 1.574 . S
C1356 C1372 1.368 . S
H1357 C1365 0.950 . S
H1358 C1363 0.950 . S
H1359 C1364 0.949 . S
H1360 C1366 0.950 . S
H1361 C1367 0.950 . S
H1362 C1368 0.949 . S
C1363 H1358 0.950 . S
C1363 C1365 1.327 . S
C1363 C1369 1.429 . S
C1364 C1356 1.574 . S
C1364 H1359 0.949 . S
C1364 C1370 1.368 . S
C1365 C1349 1.349 . S
C1365 H1357 0.950 . S
C1365 C1363 1.327 . S
C1366 C1354 1.349 . S
C1366 H1360 0.950 . S
C1366 C1367 1.327 . S
C1367 H1361 0.950 . S
C1367 C1366 1.327 . S
C1367 C1371 1.429 . S
C1368 C1351 1.574 . S
C1368 H1362 0.949 . S
C1368 C1372 1.368 . S
C1369 C1350 1.429 . S
C1369 C1363 1.429 . S
C1369 C1370 1.523 . S
C1370 C1351 1.368 . S
C1370 C1364 1.368 . S
C1370 C1369 1.523 . S
C1371 C1355 1.429 . S
C1371 C1367 1.429 . S
C1371 C1372 1.523 . S
C1372 C1356 1.368 . S
C1372 C1368 1.368 . S
C1372 C1371 1.523 . S
H1373 C1348 0.950 . S
H1374 C1350 0.950 . S
H1375 C1351 0.949 . S
H1376 C1353 0.950 . S
H1377 C1355 0.950 . S
C1378 C1379 1.349 . S
C1378 C1380 1.327 . S
C1378 H1403 0.950 . S
C1379 C1378 1.349 . S
C1379 C1395 1.349 . S
C1380 C1378 1.327 . S
C1380 C1399 1.429 . S
C1380 H1404 0.950 . S
C1381 C1398 1.574 . S
C1381 C1400 1.368 . S
C1381 H1405 0.949 . S
H1382 C1386 0.949 . S
C1383 C1384 1.349 . S
C1383 C1385 1.327 . S
C1383 H1406 0.950 . S
C1384 C1383 1.349 . S
C1384 C1396 1.349 . S
C1385 C1383 1.327 . S
C1385 C1401 1.429 . S
C1385 H1407 0.950 . S
C1386 H1382 0.949 . S
C1386 C1394 1.574 . S
C1386 C1402 1.368 . S
H1387 C1395 0.950 . S
H1388 C1393 0.950 . S
H1389 C1394 0.949 . S
H1390 C1396 0.950 . S
H1391 C1397 0.950 . S
H1392 C1398 0.949 . S
C1393 H1388 0.950 . S
C1393 C1395 1.327 . S
C1393 C1399 1.429 . S
C1394 C1386 1.574 . S
C1394 H1389 0.949 . S
C1394 C1400 1.368 . S
C1395 C1379 1.349 . S
C1395 H1387 0.950 . S
C1395 C1393 1.327 . S
C1396 C1384 1.349 . S
C1396 H1390 0.950 . S
C1396 C1397 1.327 . S
C1397 H1391 0.950 . S
C1397 C1396 1.327 . S
C1397 C1401 1.429 . S
C1398 C1381 1.574 . S
C1398 H1392 0.949 . S
C1398 C1402 1.368 . S
C1399 C1380 1.429 . S
C1399 C1393 1.429 . S
C1399 C1400 1.523 . S
C1400 C1381 1.368 . S
C1400 C1394 1.368 . S
C1400 C1399 1.523 . S
C1401 C1385 1.429 . S
C1401 C1397 1.429 . S
C1401 C1402 1.523 . S
C1402 C1386 1.368 . S
C1402 C1398 1.368 . S
C1402 C1401 1.523 . S
H1403 C1378 0.950 . S
H1404 C1380 0.950 . S
H1405 C1381 0.949 . S
H1406 C1383 0.950 . S
H1407 C1385 0.950 . S
C1408 C1409 1.349 . S
C1408 C1410 1.327 . S
C1408 H1433 0.950 . S
C1409 C1408 1.349 . S
C1409 C1425 1.349 . S
C1410 C1408 1.327 . S
C1410 C1429 1.429 . S
C1410 H1434 0.950 . S
C1411 C1428 1.562 1_554 S
C1411 C1430 1.368 1_565 S
C1411 H1435 0.949 . S
H1412 C1416 0.949 . S
C1413 C1414 1.349 . S
C1413 C1415 1.327 . S
C1413 H1436 0.950 . S
C1414 C1413 1.349 . S
C1414 C1426 1.349 . S
C1415 C1413 1.327 . S
C1415 C1431 1.429 . S
C1415 H1437 0.950 . S
C1416 H1412 0.949 . S
C1416 C1424 1.562 1_556 S
C1416 C1432 1.368 1_545 S
H1417 C1425 0.950 . S
H1418 C1423 0.950 1_565 S
H1419 C1424 0.948 . S
H1420 C1426 0.950 . S
H1421 C1427 0.950 1_545 S
H1422 C1428 0.948 . S
C1423 H1418 0.950 1_545 S
C1423 C1425 1.327 . S
C1423 C1429 1.429 . S
C1424 C1416 1.562 1_554 S
C1424 H1419 0.948 . S
C1424 C1430 1.380 . S
C1425 C1409 1.349 . S
C1425 H1417 0.950 . S
C1425 C1423 1.327 . S
C1426 C1414 1.349 . S
C1426 H1420 0.950 . S
C1426 C1427 1.327 . S
C1427 H1421 0.950 1_565 S
C1427 C1426 1.327 . S
C1427 C1431 1.429 . S
C1428 C1411 1.562 1_556 S
C1428 H1422 0.948 . S
C1428 C1432 1.380 . S
C1429 C1410 1.429 . S
C1429 C1423 1.429 . S
C1429 C1430 1.523 . S
C1430 C1411 1.368 1_545 S
C1430 C1424 1.380 . S
C1430 C1429 1.523 . S
C1431 C1415 1.429 . S
C1431 C1427 1.429 . S
C1431 C1432 1.523 . S
C1432 C1416 1.368 1_565 S
C1432 C1428 1.380 . S
C1432 C1431 1.523 . S
H1433 C1408 0.950 . S
H1434 C1410 0.950 . S
H1435 C1411 0.949 . S
H1436 C1413 0.950 . S
H1437 C1415 0.950 . S
C1438 C1439 1.349 . S
C1438 C1440 1.327 . S
C1438 H1463 0.950 . S
C1439 C1438 1.349 . S
C1439 C1455 1.349 . S
C1440 C1438 1.327 . S
C1440 C1459 1.429 . S
C1440 H1464 0.950 . S
C1441 C1458 1.479 1_554 S
C1441 C1460 1.452 . S
C1441 H1465 0.968 . S
H1442 C1446 0.968 . S
C1443 C1444 1.349 . S
C1443 C1445 1.327 . S
C1443 H1466 0.950 . S
C1444 C1443 1.349 . S
C1444 C1456 1.349 . S
C1445 C1443 1.327 . S
C1445 C1461 1.429 . S
C1445 H1467 0.950 . S
C1446 H1442 0.968 . S
C1446 C1454 1.479 1_556 S
C1446 C1462 1.452 . S
H1447 C1455 0.950 . S
H1448 C1453 0.950 . S
H1449 C1454 0.949 . S
H1450 C1456 0.950 . S
H1451 C1457 0.950 . S
H1452 C1458 0.949 . S
C1453 H1448 0.950 . S
C1453 C1455 1.327 . S
C1453 C1459 1.429 . S
C1454 C1446 1.479 1_554 S
C1454 H1449 0.949 . S
C1454 C1460 1.368 . S
C1455 C1439 1.349 . S
C1455 H1447 0.950 . S
C1455 C1453 1.327 . S
C1456 C1444 1.349 . S
C1456 H1450 0.950 . S
C1456 C1457 1.327 . S
C1457 H1451 0.950 . S
C1457 C1456 1.327 . S
C1457 C1461 1.429 . S
C1458 C1441 1.479 1_556 S
C1458 H1452 0.949 . S
C1458 C1462 1.368 . S
C1459 C1440 1.429 . S
C1459 C1453 1.429 . S
C1459 C1460 1.523 . S
C1460 C1441 1.452 . S
C1460 C1454 1.368 . S
C1460 C1459 1.523 . S
C1461 C1445 1.429 . S
C1461 C1457 1.429 . S
C1461 C1462 1.523 . S
C1462 C1446 1.452 . S
C1462 C1458 1.368 . S
C1462 C1461 1.523 . S
H1463 C1438 0.950 . S
H1464 C1440 0.950 . S
H1465 C1441 0.968 . S
H1466 C1443 0.950 . S
H1467 C1445 0.950 . S
C1468 C1469 1.349 . S
C1468 C1470 1.327 . S
C1468 H1493 0.950 . S
C1469 C1468 1.349 . S
C1469 C1485 1.349 . S
C1470 C1468 1.327 . S
C1470 C1489 1.429 . S
C1470 H1494 0.950 . S
C1471 C1488 1.574 . S
C1471 C1490 1.368 . S
C1471 H1495 0.949 . S
H1472 C1476 0.949 . S
C1473 C1474 1.349 . S
C1473 C1475 1.327 . S
C1473 H1496 0.950 . S
C1474 C1473 1.349 . S
C1474 C1486 1.349 . S
C1475 C1473 1.327 . S
C1475 C1491 1.429 . S
C1475 H1497 0.950 . S
C1476 H1472 0.949 . S
C1476 C1484 1.574 . S
C1476 C1492 1.368 . S
H1477 C1485 0.950 . S
H1478 C1483 0.950 . S
H1479 C1484 0.949 . S
H1480 C1486 0.950 . S
H1481 C1487 0.950 . S
H1482 C1488 0.949 . S
C1483 H1478 0.950 . S
C1483 C1485 1.327 . S
C1483 C1489 1.429 . S
C1484 C1476 1.574 . S
C1484 H1479 0.949 . S
C1484 C1490 1.368 . S
C1485 C1469 1.349 . S
C1485 H1477 0.950 . S
C1485 C1483 1.327 . S
C1486 C1474 1.349 . S
C1486 H1480 0.950 . S
C1486 C1487 1.327 . S
C1487 H1481 0.950 . S
C1487 C1486 1.327 . S
C1487 C1491 1.429 . S
C1488 C1471 1.574 . S
C1488 H1482 0.949 . S
C1488 C1492 1.368 . S
C1489 C1470 1.429 . S
C1489 C1483 1.429 . S
C1489 C1490 1.523 . S
C1490 C1471 1.368 . S
C1490 C1484 1.368 . S
C1490 C1489 1.523 . S
C1491 C1475 1.429 . S
C1491 C1487 1.429 . S
C1491 C1492 1.523 . S
C1492 C1476 1.368 . S
C1492 C1488 1.368 . S
C1492 C1491 1.523 . S
H1493 C1468 0.950 . S
H1494 C1470 0.950 . S
H1495 C1471 0.949 . S
H1496 C1473 0.950 . S
H1497 C1475 0.950 . S
C1498 C1499 1.349 . S
C1498 C1500 1.327 . S
C1498 H1523 0.950 . S
C1499 C1498 1.349 . S
C1499 C1515 1.349 . S
C1500 C1498 1.327 . S
C1500 C1519 1.429 . S
C1500 H1524 0.950 . S
C1501 C1518 1.574 . S
C1501 C1520 1.368 1_565 S
C1501 H1525 0.949 . S
H1502 C1506 0.949 . S
C1503 C1504 1.349 . S
C1503 C1505 1.327 . S
C1503 H1526 0.950 . S
C1504 C1503 1.349 . S
C1504 C1516 1.349 . S
C1505 C1503 1.327 . S
C1505 C1521 1.429 . S
C1505 H1527 0.950 . S
C1506 H1502 0.949 . S
C1506 C1514 1.574 . S
C1506 C1522 1.368 1_545 S
H1507 C1515 0.950 . S
H1508 C1513 0.950 . S
H1509 C1514 0.949 . S
H1510 C1516 0.950 . S
H1511 C1517 0.950 . S
H1512 C1518 0.949 . S
C1513 H1508 0.950 . S
C1513 C1515 1.327 . S
C1513 C1519 1.429 . S
C1514 C1506 1.574 . S
C1514 H1509 0.949 . S
C1514 C1520 1.368 . S
C1515 C1499 1.349 . S
C1515 H1507 0.950 . S
C1515 C1513 1.327 . S
C1516 C1504 1.349 . S
C1516 H1510 0.950 . S
C1516 C1517 1.327 . S
C1517 H1511 0.950 . S
C1517 C1516 1.327 . S
C1517 C1521 1.429 . S
C1518 C1501 1.574 . S
C1518 H1512 0.949 . S
C1518 C1522 1.368 . S
C1519 C1500 1.429 . S
C1519 C1513 1.429 . S
C1519 C1520 1.523 . S
C1520 C1501 1.368 1_545 S
C1520 C1514 1.368 . S
C1520 C1519 1.523 . S
C1521 C1505 1.429 . S
C1521 C1517 1.429 . S
C1521 C1522 1.523 . S
C1522 C1506 1.368 1_565 S
C1522 C1518 1.368 . S
C1522 C1521 1.523 . S
H1523 C1498 0.950 . S
H1524 C1500 0.950 . S
H1525 C1501 0.949 . S
H1526 C1503 0.950 . S
H1527 C1505 0.950 . S
C1528 C1529 1.349 . S
C1528 C1530 1.327 . S
C1528 H1553 0.950 . S
C1529 C1528 1.349 . S
C1529 C1545 1.349 . S
C1530 C1528 1.327 . S
C1530 C1549 1.429 . S
C1530 H1554 0.950 . S
C1531 C1548 1.565 . S
C1531 C1550 1.377 1_554 S
C1531 H1555 0.949 1_554 S
H1532 C1536 0.949 1_554 S
C1533 C1534 1.349 . S
C1533 C1535 1.327 . S
C1533 H1556 0.950 . S
C1534 C1533 1.349 . S
C1534 C1546 1.349 . S
C1535 C1533 1.327 . S
C1535 C1551 1.429 . S
C1535 H1557 0.950 . S
C1536 H1532 0.949 1_556 S
C1536 C1544 1.565 . S
C1536 C1552 1.377 1_556 S
H1537 C1545 0.950 . S
H1538 C1543 0.950 . S
H1539 C1544 0.949 . S
H1540 C1546 0.950 . S
H1541 C1547 0.950 . S
H1542 C1548 0.949 . S
C1543 H1538 0.950 . S
C1543 C1545 1.327 . S
C1543 C1549 1.429 . S
C1544 C1536 1.565 . S
C1544 H1539 0.949 . S
C1544 C1550 1.368 . S
C1545 C1529 1.349 . S
C1545 H1537 0.950 . S
C1545 C1543 1.327 . S
C1546 C1534 1.349 . S
C1546 H1540 0.950 . S
C1546 C1547 1.327 . S
C1547 H1541 0.950 . S
C1547 C1546 1.327 . S
C1547 C1551 1.429 . S
C1548 C1531 1.565 . S
C1548 H1542 0.949 . S
C1548 C1552 1.368 . S
C1549 C1530 1.429 . S
C1549 C1543 1.429 . S
C1549 C1550 1.523 . S
C1550 C1531 1.377 1_556 S
C1550 C1544 1.368 . S
C1550 C1549 1.523 . S
C1551 C1535 1.429 . S
C1551 C1547 1.429 . S
C1551 C1552 1.523 . S
C1552 C1536 1.377 1_554 S
C1552 C1548 1.368 . S
C1552 C1551 1.523 . S
H1553 C1528 0.950 . S
H1554 C1530 0.950 . S
H1555 C1531 0.949 1_556 S
H1556 C1533 0.950 . S
H1557 C1535 0.950 . S
C1558 C1559 1.349 . S
C1558 C1560 1.327 . S
C1558 H1583 0.950 . S
C1559 C1558 1.349 . S
C1559 C1575 1.349 . S
C1560 C1558 1.327 . S
C1560 C1579 1.429 . S
C1560 H1584 0.950 . S
C1561 C1578 1.574 . S
C1561 C1580 1.368 . S
C1561 H1585 0.949 . S
H1562 C1566 0.949 . S
C1563 C1564 1.349 . S
C1563 C1565 1.327 . S
C1563 H1586 0.950 . S
C1564 C1563 1.349 . S
C1564 C1576 1.349 . S
C1565 C1563 1.327 . S
C1565 C1581 1.429 . S
C1565 H1587 0.950 . S
C1566 H1562 0.949 . S
C1566 C1574 1.574 . S
C1566 C1582 1.368 . S
H1567 C1575 0.950 . S
H1568 C1573 0.950 . S
H1569 C1574 0.949 . S
H1570 C1576 0.950 . S
H1571 C1577 0.950 . S
H1572 C1578 0.949 . S
C1573 H1568 0.950 . S
C1573 C1575 1.327 . S
C1573 C1579 1.429 . S
C1574 C1566 1.574 . S
C1574 H1569 0.949 . S
C1574 C1580 1.368 . S
C1575 C1559 1.349 . S
C1575 H1567 0.950 . S
C1575 C1573 1.327 . S
C1576 C1564 1.349 . S
C1576 H1570 0.950 . S
C1576 C1577 1.327 . S
C1577 H1571 0.950 . S
C1577 C1576 1.327 . S
C1577 C1581 1.429 . S
C1578 C1561 1.574 . S
C1578 H1572 0.949 . S
C1578 C1582 1.368 . S
C1579 C1560 1.429 . S
C1579 C1573 1.429 . S
C1579 C1580 1.523 . S
C1580 C1561 1.368 . S
C1580 C1574 1.368 . S
C1580 C1579 1.523 . S
C1581 C1565 1.429 . S
C1581 C1577 1.429 . S
C1581 C1582 1.523 . S
C1582 C1566 1.368 . S
C1582 C1578 1.368 . S
C1582 C1581 1.523 . S
H1583 C1558 0.950 . S
H1584 C1560 0.950 . S
H1585 C1561 0.949 . S
H1586 C1563 0.950 . S
H1587 C1565 0.950 . S
C1588 C1589 1.349 . S
C1588 C1590 1.327 . S
C1588 H1613 0.950 . S
C1589 C1588 1.349 . S
C1589 C1605 1.349 . S
C1590 C1588 1.327 . S
C1590 C1609 1.429 . S
C1590 H1614 0.950 . S
C1591 C1608 1.574 . S
C1591 C1610 1.368 1_565 S
C1591 H1615 0.949 . S
H1592 C1596 0.949 . S
C1593 C1594 1.349 . S
C1593 C1595 1.327 . S
C1593 H1616 0.950 . S
C1594 C1593 1.349 . S
C1594 C1606 1.349 . S
C1595 C1593 1.327 . S
C1595 C1611 1.429 . S
C1595 H1617 0.950 . S
C1596 H1592 0.949 . S
C1596 C1604 1.574 . S
C1596 C1612 1.368 1_545 S
H1597 C1605 0.950 . S
H1598 C1603 0.950 . S
H1599 C1604 0.949 . S
H1600 C1606 0.950 . S
H1601 C1607 0.950 . S
H1602 C1608 0.949 . S
C1603 H1598 0.950 . S
C1603 C1605 1.327 . S
C1603 C1609 1.429 . S
C1604 C1596 1.574 . S
C1604 H1599 0.949 . S
C1604 C1610 1.368 . S
C1605 C1589 1.349 . S
C1605 H1597 0.950 . S
C1605 C1603 1.327 . S
C1606 C1594 1.349 . S
C1606 H1600 0.950 . S
C1606 C1607 1.327 . S
C1607 H1601 0.950 . S
C1607 C1606 1.327 . S
C1607 C1611 1.429 . S
C1608 C1591 1.574 . S
C1608 H1602 0.949 . S
C1608 C1612 1.368 . S
C1609 C1590 1.429 . S
C1609 C1603 1.429 . S
C1609 C1610 1.523 . S
C1610 C1591 1.368 1_545 S
C1610 C1604 1.368 . S
C1610 C1609 1.523 . S
C1611 C1595 1.429 . S
C1611 C1607 1.429 . S
C1611 C1612 1.523 . S
C1612 C1596 1.368 1_565 S
C1612 C1608 1.368 . S
C1612 C1611 1.523 . S
H1613 C1588 0.950 . S
H1614 C1590 0.950 . S
H1615 C1591 0.949 . S
H1616 C1593 0.950 . S
H1617 C1595 0.950 . S
C1618 C1619 1.349 . S
C1618 C1620 1.327 . S
C1618 H1643 0.950 . S
C1619 C1618 1.349 . S
C1619 C1635 1.349 . S
C1620 C1618 1.327 . S
C1620 C1639 1.429 . S
C1620 H1644 0.950 . S
C1621 C1638 1.574 . S
C1621 C1640 1.368 . S
C1621 H1645 0.949 . S
H1622 C1626 0.949 . S
C1623 C1624 1.349 . S
C1623 C1625 1.327 . S
C1623 H1646 0.950 . S
C1624 C1623 1.349 . S
C1624 C1636 1.349 . S
C1625 C1623 1.327 . S
C1625 C1641 1.429 . S
C1625 H1647 0.950 . S
C1626 H1622 0.949 . S
C1626 C1634 1.574 . S
C1626 C1642 1.368 . S
H1627 C1635 0.950 . S
H1628 C1633 0.950 . S
H1629 C1634 0.949 . S
H1630 C1636 0.950 . S
H1631 C1637 0.950 . S
H1632 C1638 0.949 . S
C1633 H1628 0.950 . S
C1633 C1635 1.327 . S
C1633 C1639 1.429 . S
C1634 C1626 1.574 . S
C1634 H1629 0.949 . S
C1634 C1640 1.368 . S
C1635 C1619 1.349 . S
C1635 H1627 0.950 . S
C1635 C1633 1.327 . S
C1636 C1624 1.349 . S
C1636 H1630 0.950 . S
C1636 C1637 1.327 . S
C1637 H1631 0.950 . S
C1637 C1636 1.327 . S
C1637 C1641 1.429 . S
C1638 C1621 1.574 . S
C1638 H1632 0.949 . S
C1638 C1642 1.368 . S
C1639 C1620 1.429 . S
C1639 C1633 1.429 . S
C1639 C1640 1.523 . S
C1640 C1621 1.368 . S
C1640 C1634 1.368 . S
C1640 C1639 1.523 . S
C1641 C1625 1.429 . S
C1641 C1637 1.429 . S
C1641 C1642 1.523 . S
C1642 C1626 1.368 . S
C1642 C1638 1.368 . S
C1642 C1641 1.523 . S
H1643 C1618 0.950 . S
H1644 C1620 0.950 . S
H1645 C1621 0.949 . S
H1646 C1623 0.950 . S
H1647 C1625 0.950 . S
C1648 C1649 1.349 . S
C1648 C1650 1.327 . S
C1648 H1673 0.950 . S
C1649 C1648 1.349 . S
C1649 C1665 1.349 . S
C1650 C1648 1.327 . S
C1650 C1669 1.429 . S
C1650 H1674 0.950 . S
C1651 C1668 1.574 . S
C1651 C1670 1.368 . S
C1651 H1675 0.949 . S
H1652 C1656 0.949 . S
C1653 C1654 1.349 . S
C1653 C1655 1.327 . S
C1653 H1676 0.950 . S
C1654 C1653 1.349 . S
C1654 C1666 1.349 . S
C1655 C1653 1.327 . S
C1655 C1671 1.429 . S
C1655 H1677 0.950 . S
C1656 H1652 0.949 . S
C1656 C1664 1.574 . S
C1656 C1672 1.368 . S
H1657 C1665 0.950 . S
H1658 C1663 0.950 . S
H1659 C1664 0.949 . S
H1660 C1666 0.950 . S
H1661 C1667 0.950 . S
H1662 C1668 0.949 . S
C1663 H1658 0.950 . S
C1663 C1665 1.327 . S
C1663 C1669 1.429 . S
C1664 C1656 1.574 . S
C1664 H1659 0.949 . S
C1664 C1670 1.368 . S
C1665 C1649 1.349 . S
C1665 H1657 0.950 . S
C1665 C1663 1.327 . S
C1666 C1654 1.349 . S
C1666 H1660 0.950 . S
C1666 C1667 1.327 . S
C1667 H1661 0.950 . S
C1667 C1666 1.327 . S
C1667 C1671 1.429 . S
C1668 C1651 1.574 . S
C1668 H1662 0.949 . S
C1668 C1672 1.368 . S
C1669 C1650 1.429 . S
C1669 C1663 1.429 . S
C1669 C1670 1.523 . S
C1670 C1651 1.368 . S
C1670 C1664 1.368 . S
C1670 C1669 1.523 . S
C1671 C1655 1.429 . S
C1671 C1667 1.429 . S
C1671 C1672 1.523 . S
C1672 C1656 1.368 . S
C1672 C1668 1.368 . S
C1672 C1671 1.523 . S
H1673 C1648 0.950 . S
H1674 C1650 0.950 . S
H1675 C1651 0.949 . S
H1676 C1653 0.950 . S
H1677 C1655 0.950 . S
C1678 C1679 1.349 . S
C1678 C1680 1.327 . S
C1678 H1703 0.950 . S
C1679 C1678 1.349 . S
C1679 C1695 1.349 . S
C1680 C1678 1.327 . S
C1680 C1699 1.429 . S
C1680 H1704 0.950 . S
C1681 C1698 1.574 . S
C1681 C1700 1.368 . S
C1681 H1705 0.949 . S
H1682 C1686 0.949 . S
C1683 C1684 1.349 . S
C1683 C1685 1.327 . S
C1683 H1706 0.950 . S
C1684 C1683 1.349 . S
C1684 C1696 1.349 . S
C1685 C1683 1.327 . S
C1685 C1701 1.429 . S
C1685 H1707 0.950 . S
C1686 H1682 0.949 . S
C1686 C1694 1.574 . S
C1686 C1702 1.368 . S
H1687 C1695 0.950 . S
H1688 C1693 0.950 . S
H1689 C1694 0.949 . S
H1690 C1696 0.950 . S
H1691 C1697 0.950 . S
H1692 C1698 0.949 . S
C1693 H1688 0.950 . S
C1693 C1695 1.327 . S
C1693 C1699 1.429 . S
C1694 C1686 1.574 . S
C1694 H1689 0.949 . S
C1694 C1700 1.368 . S
C1695 C1679 1.349 . S
C1695 H1687 0.950 . S
C1695 C1693 1.327 . S
C1696 C1684 1.349 . S
C1696 H1690 0.950 . S
C1696 C1697 1.327 . S
C1697 H1691 0.950 . S
C1697 C1696 1.327 . S
C1697 C1701 1.429 . S
C1698 C1681 1.574 . S
C1698 H1692 0.949 . S
C1698 C1702 1.368 . S
C1699 C1680 1.429 . S
C1699 C1693 1.429 . S
C1699 C1700 1.523 . S
C1700 C1681 1.368 . S
C1700 C1694 1.368 . S
C1700 C1699 1.523 . S
C1701 C1685 1.429 . S
C1701 C1697 1.429 . S
C1701 C1702 1.523 . S
C1702 C1686 1.368 . S
C1702 C1698 1.368 . S
C1702 C1701 1.523 . S
H1703 C1678 0.950 . S
H1704 C1680 0.950 . S
H1705 C1681 0.949 . S
H1706 C1683 0.950 . S
H1707 C1685 0.950 . S
C1708 C1709 1.349 . S
C1708 C1710 1.327 . S
C1708 H1733 0.950 . S
C1709 C1708 1.349 . S
C1709 C1725 1.349 . S
C1710 C1708 1.327 . S
C1710 C1729 1.429 . S
C1710 H1734 0.950 . S
C1711 C1728 1.574 . S
C1711 C1730 1.368 . S
C1711 H1735 0.949 . S
H1712 C1716 0.949 . S
C1713 C1714 1.349 . S
C1713 C1715 1.327 . S
C1713 H1736 0.950 . S
C1714 C1713 1.349 . S
C1714 C1726 1.349 . S
C1715 C1713 1.327 . S
C1715 C1731 1.429 . S
C1715 H1737 0.950 . S
C1716 H1712 0.949 . S
C1716 C1724 1.574 . S
C1716 C1732 1.368 . S
H1717 C1725 0.950 . S
H1718 C1723 0.950 . S
H1719 C1724 0.949 . S
H1720 C1726 0.950 . S
H1721 C1727 0.950 . S
H1722 C1728 0.949 . S
C1723 H1718 0.950 . S
C1723 C1725 1.327 . S
C1723 C1729 1.429 . S
C1724 C1716 1.574 . S
C1724 H1719 0.949 . S
C1724 C1730 1.368 . S
C1725 C1709 1.349 . S
C1725 H1717 0.950 . S
C1725 C1723 1.327 . S
C1726 C1714 1.349 . S
C1726 H1720 0.950 . S
C1726 C1727 1.327 . S
C1727 H1721 0.950 . S
C1727 C1726 1.327 . S
C1727 C1731 1.429 . S
C1728 C1711 1.574 . S
C1728 H1722 0.949 . S
C1728 C1732 1.368 . S
C1729 C1710 1.429 . S
C1729 C1723 1.429 . S
C1729 C1730 1.523 . S
C1730 C1711 1.368 . S
C1730 C1724 1.368 . S
C1730 C1729 1.523 . S
C1731 C1715 1.429 . S
C1731 C1727 1.429 . S
C1731 C1732 1.523 . S
C1732 C1716 1.368 . S
C1732 C1728 1.368 . S
C1732 C1731 1.523 . S
H1733 C1708 0.950 . S
H1734 C1710 0.950 . S
H1735 C1711 0.949 . S
H1736 C1713 0.950 . S
H1737 C1715 0.950 . S
C1738 C1739 1.349 . S
C1738 C1740 1.327 . S
C1738 H1763 0.950 . S
C1739 C1738 1.349 . S
C1739 C1755 1.349 . S
C1740 C1738 1.327 . S
C1740 C1759 1.429 . S
C1740 H1764 0.950 . S
C1741 C1758 1.574 . S
C1741 C1760 1.368 . S
C1741 H1765 0.949 . S
H1742 C1746 0.949 . S
C1743 C1744 1.349 . S
C1743 C1745 1.327 . S
C1743 H1766 0.950 . S
C1744 C1743 1.349 . S
C1744 C1756 1.349 . S
C1745 C1743 1.327 . S
C1745 C1761 1.429 . S
C1745 H1767 0.950 . S
C1746 H1742 0.949 . S
C1746 C1754 1.574 . S
C1746 C1762 1.368 . S
H1747 C1755 0.950 . S
H1748 C1753 0.950 . S
H1749 C1754 0.949 . S
H1750 C1756 0.950 . S
H1751 C1757 0.950 . S
H1752 C1758 0.949 . S
C1753 H1748 0.950 . S
C1753 C1755 1.327 . S
C1753 C1759 1.429 . S
C1754 C1746 1.574 . S
C1754 H1749 0.949 . S
C1754 C1760 1.368 . S
C1755 C1739 1.349 . S
C1755 H1747 0.950 . S
C1755 C1753 1.327 . S
C1756 C1744 1.349 . S
C1756 H1750 0.950 . S
C1756 C1757 1.327 . S
C1757 H1751 0.950 . S
C1757 C1756 1.327 . S
C1757 C1761 1.429 . S
C1758 C1741 1.574 . S
C1758 H1752 0.949 . S
C1758 C1762 1.368 . S
C1759 C1740 1.429 . S
C1759 C1753 1.429 . S
C1759 C1760 1.523 . S
C1760 C1741 1.368 . S
C1760 C1754 1.368 . S
C1760 C1759 1.523 . S
C1761 C1745 1.429 . S
C1761 C1757 1.429 . S
C1761 C1762 1.523 . S
C1762 C1746 1.368 . S
C1762 C1758 1.368 . S
C1762 C1761 1.523 . S
H1763 C1738 0.950 . S
H1764 C1740 0.950 . S
H1765 C1741 0.949 . S
H1766 C1743 0.950 . S
H1767 C1745 0.950 . S
C1768 C1769 1.349 . S
C1768 C1770 1.327 . S
C1768 H1793 0.950 . S
C1769 C1768 1.349 . S
C1769 C1785 1.349 . S
C1770 C1768 1.327 . S
C1770 C1789 1.429 . S
C1770 H1794 0.950 1_455 S
C1771 C1788 1.574 . S
C1771 C1790 1.368 . S
C1771 H1795 0.949 . S
H1772 C1776 0.949 . S
C1773 C1774 1.349 . S
C1773 C1775 1.327 . S
C1773 H1796 0.950 . S
C1774 C1773 1.349 . S
C1774 C1786 1.349 . S
C1775 C1773 1.327 . S
C1775 C1791 1.429 . S
C1775 H1797 0.950 1_655 S
C1776 H1772 0.949 . S
C1776 C1784 1.574 . S
C1776 C1792 1.368 . S
H1777 C1785 0.950 . S
H1778 C1783 0.950 . S
H1779 C1784 0.949 . S
H1780 C1786 0.950 . S
H1781 C1787 0.950 . S
H1782 C1788 0.949 . S
C1783 H1778 0.950 . S
C1783 C1785 1.327 . S
C1783 C1789 1.429 . S
C1784 C1776 1.574 . S
C1784 H1779 0.949 . S
C1784 C1790 1.368 1_645 S
C1785 C1769 1.349 . S
C1785 H1777 0.950 . S
C1785 C1783 1.327 . S
C1786 C1774 1.349 . S
C1786 H1780 0.950 . S
C1786 C1787 1.327 . S
C1787 H1781 0.950 . S
C1787 C1786 1.327 . S
C1787 C1791 1.429 . S
C1788 C1771 1.574 . S
C1788 H1782 0.949 . S
C1788 C1792 1.368 1_465 S
C1789 C1770 1.429 . S
C1789 C1783 1.429 . S
C1789 C1790 1.523 . S
C1790 C1771 1.368 . S
C1790 C1784 1.368 1_465 S
C1790 C1789 1.523 . S
C1791 C1775 1.429 . S
C1791 C1787 1.429 . S
C1791 C1792 1.523 . S
C1792 C1776 1.368 . S
C1792 C1788 1.368 1_645 S
C1792 C1791 1.523 . S
H1793 C1768 0.950 . S
H1794 C1770 0.950 1_655 S
H1795 C1771 0.949 . S
H1796 C1773 0.950 . S
H1797 C1775 0.950 1_455 S
C1798 C1799 1.349 . S
C1798 C1800 1.327 . S
C1798 H1823 0.950 . S
C1799 C1798 1.349 . S
C1799 C1815 1.349 . S
C1800 C1798 1.327 . S
C1800 C1819 1.429 . S
C1800 H1824 0.950 . S
C1801 C1818 1.574 . S
C1801 C1820 1.368 1_455 S
C1801 H1825 0.949 . S
H1802 C1806 0.949 . S
C1803 C1804 1.349 . S
C1803 C1805 1.327 . S
C1803 H1826 0.950 . S
C1804 C1803 1.349 . S
C1804 C1816 1.349 . S
C1805 C1803 1.327 . S
C1805 C1821 1.429 . S
C1805 H1827 0.950 . S
C1806 H1802 0.949 . S
C1806 C1814 1.574 . S
C1806 C1822 1.368 1_655 S
H1807 C1815 0.950 . S
H1808 C1813 0.950 1_455 S
H1809 C1814 0.949 . S
H1810 C1816 0.950 . S
H1811 C1817 0.950 1_655 S
H1812 C1818 0.949 . S
C1813 H1808 0.950 1_655 S
C1813 C1815 1.327 . S
C1813 C1819 1.429 . S
C1814 C1806 1.574 . S
C1814 H1809 0.949 . S
C1814 C1820 1.368 . S
C1815 C1799 1.349 . S
C1815 H1807 0.950 . S
C1815 C1813 1.327 . S
C1816 C1804 1.349 . S
C1816 H1810 0.950 . S
C1816 C1817 1.327 . S
C1817 H1811 0.950 1_455 S
C1817 C1816 1.327 . S
C1817 C1821 1.429 . S
C1818 C1801 1.574 . S
C1818 H1812 0.949 . S
C1818 C1822 1.368 . S
C1819 C1800 1.429 . S
C1819 C1813 1.429 . S
C1819 C1820 1.523 . S
C1820 C1801 1.368 1_655 S
C1820 C1814 1.368 . S
C1820 C1819 1.523 . S
C1821 C1805 1.429 . S
C1821 C1817 1.429 . S
C1821 C1822 1.523 . S
C1822 C1806 1.368 1_455 S
C1822 C1818 1.368 . S
C1822 C1821 1.523 . S
H1823 C1798 0.950 . S
H1824 C1800 0.950 . S
H1825 C1801 0.949 . S
H1826 C1803 0.950 . S
H1827 C1805 0.950 . S
C1828 C1829 1.349 . S
C1828 C1830 1.327 . S
C1828 H1853 0.950 . S
C1829 C1828 1.349 . S
C1829 C1845 1.349 . S
C1830 C1828 1.327 . S
C1830 C1849 1.429 . S
C1830 H1854 0.950 1_655 S
C1831 C1848 1.574 . S
C1831 C1850 1.368 . S
C1831 H1855 0.949 . S
H1832 C1836 0.949 . S
C1833 C1834 1.349 . S
C1833 C1835 1.327 . S
C1833 H1856 0.950 . S
C1834 C1833 1.349 . S
C1834 C1846 1.349 . S
C1835 C1833 1.327 . S
C1835 C1851 1.429 . S
C1835 H1857 0.950 1_455 S
C1836 H1832 0.949 . S
C1836 C1844 1.574 . S
C1836 C1852 1.368 . S
H1837 C1845 0.950 . S
H1838 C1843 0.950 . S
H1839 C1844 0.949 . S
H1840 C1846 0.950 . S
H1841 C1847 0.950 . S
H1842 C1848 0.949 . S
C1843 H1838 0.950 . S
C1843 C1845 1.327 . S
C1843 C1849 1.429 . S
C1844 C1836 1.574 . S
C1844 H1839 0.949 . S
C1844 C1850 1.368 1_455 S
C1845 C1829 1.349 . S
C1845 H1837 0.950 . S
C1845 C1843 1.327 . S
C1846 C1834 1.349 . S
C1846 H1840 0.950 . S
C1846 C1847 1.327 . S
C1847 H1841 0.950 . S
C1847 C1846 1.327 . S
C1847 C1851 1.429 . S
C1848 C1831 1.574 . S
C1848 H1842 0.949 . S
C1848 C1852 1.368 1_655 S
C1849 C1830 1.429 . S
C1849 C1843 1.429 . S
C1849 C1850 1.523 . S
C1850 C1831 1.368 . S
C1850 C1844 1.368 1_655 S
C1850 C1849 1.523 . S
C1851 C1835 1.429 . S
C1851 C1847 1.429 . S
C1851 C1852 1.523 . S
C1852 C1836 1.368 . S
C1852 C1848 1.368 1_455 S
C1852 C1851 1.523 . S
H1853 C1828 0.950 . S
H1854 C1830 0.950 1_455 S
H1855 C1831 0.949 . S
H1856 C1833 0.950 . S
H1857 C1835 0.950 1_655 S
C1858 C1859 1.349 . S
C1858 C1860 1.327 . S
C1858 H1883 0.950 . S
C1859 C1858 1.349 . S
C1859 C1875 1.349 . S
C1860 C1858 1.327 . S
C1860 C1879 1.429 . S
C1860 H1884 0.950 . S
C1861 C1878 1.557 1_456 S
C1861 C1880 1.381 . S
C1861 H1885 0.948 . S
H1862 C1866 0.948 . S
C1863 C1864 1.349 . S
C1863 C1865 1.327 . S
C1863 H1886 0.950 . S
C1864 C1863 1.349 . S
C1864 C1876 1.349 . S
C1865 C1863 1.327 . S
C1865 C1881 1.429 . S
C1865 H1887 0.950 . S
C1866 H1862 0.948 . S
C1866 C1874 1.557 1_654 S
C1866 C1882 1.381 . S
H1867 C1875 0.950 . S
H1868 C1873 0.950 . S
H1869 C1874 0.949 . S
H1870 C1876 0.950 . S
H1871 C1877 0.950 . S
H1872 C1878 0.949 . S
C1873 H1868 0.950 . S
C1873 C1875 1.327 . S
C1873 C1879 1.429 . S
C1874 C1866 1.557 1_456 S
C1874 H1869 0.949 . S
C1874 C1880 1.372 . S
C1875 C1859 1.349 . S
C1875 H1867 0.950 . S
C1875 C1873 1.327 . S
C1876 C1864 1.349 . S
C1876 H1870 0.950 . S
C1876 C1877 1.327 . S
C1877 H1871 0.950 . S
C1877 C1876 1.327 . S
C1877 C1881 1.429 . S
C1878 C1861 1.557 1_654 S
C1878 H1872 0.949 . S
C1878 C1882 1.372 . S
C1879 C1860 1.429 . S
C1879 C1873 1.429 . S
C1879 C1880 1.523 . S
C1880 C1861 1.381 . S
C1880 C1874 1.372 . S
C1880 C1879 1.523 . S
C1881 C1865 1.429 . S
C1881 C1877 1.429 . S
C1881 C1882 1.523 . S
C1882 C1866 1.381 . S
C1882 C1878 1.372 . S
C1882 C1881 1.523 . S
H1883 C1858 0.950 . S
H1884 C1860 0.950 . S
H1885 C1861 0.948 . S
H1886 C1863 0.950 . S
H1887 C1865 0.950 . S
C1888 C1889 1.349 . S
C1888 C1890 1.327 . S
C1888 H1913 0.950 . S
C1889 C1888 1.349 . S
C1889 C1905 1.349 . S
C1890 C1888 1.327 . S
C1890 C1909 1.429 . S
C1890 H1914 0.950 . S
C1891 C1908 1.574 . S
C1891 C1910 1.368 . S
C1891 H1915 0.949 . S
H1892 C1896 0.949 . S
C1893 C1894 1.349 . S
C1893 C1895 1.327 . S
C1893 H1916 0.950 . S
C1894 C1893 1.349 . S
C1894 C1906 1.349 . S
C1895 C1893 1.327 . S
C1895 C1911 1.429 . S
C1895 H1917 0.950 . S
C1896 H1892 0.949 . S
C1896 C1904 1.574 . S
C1896 C1912 1.368 . S
H1897 C1905 0.950 . S
H1898 C1903 0.950 . S
H1899 C1904 0.949 . S
H1900 C1906 0.950 . S
H1901 C1907 0.950 . S
H1902 C1908 0.949 . S
C1903 H1898 0.950 . S
C1903 C1905 1.327 . S
C1903 C1909 1.429 . S
C1904 C1896 1.574 . S
C1904 H1899 0.949 . S
C1904 C1910 1.368 . S
C1905 C1889 1.349 . S
C1905 H1897 0.950 . S
C1905 C1903 1.327 . S
C1906 C1894 1.349 . S
C1906 H1900 0.950 . S
C1906 C1907 1.327 . S
C1907 H1901 0.950 . S
C1907 C1906 1.327 . S
C1907 C1911 1.429 . S
C1908 C1891 1.574 . S
C1908 H1902 0.949 . S
C1908 C1912 1.368 . S
C1909 C1890 1.429 . S
C1909 C1903 1.429 . S
C1909 C1910 1.523 . S
C1910 C1891 1.368 . S
C1910 C1904 1.368 . S
C1910 C1909 1.523 . S
C1911 C1895 1.429 . S
C1911 C1907 1.429 . S
C1911 C1912 1.523 . S
C1912 C1896 1.368 . S
C1912 C1908 1.368 . S
C1912 C1911 1.523 . S
H1913 C1888 0.950 . S
H1914 C1890 0.950 . S
H1915 C1891 0.949 . S
H1916 C1893 0.950 . S
H1917 C1895 0.950 . S
C1918 C1919 1.349 . S
C1918 C1920 1.327 . S
C1918 H1943 0.950 . S
C1919 C1918 1.349 . S
C1919 C1935 1.349 . S
C1920 C1918 1.327 . S
C1920 C1939 1.429 . S
C1920 H1944 0.950 . S
C1921 C1938 1.574 . S
C1921 C1940 1.368 . S
C1921 H1945 0.949 . S
H1922 C1926 0.949 . S
C1923 C1924 1.349 . S
C1923 C1925 1.327 . S
C1923 H1946 0.950 . S
C1924 C1923 1.349 . S
C1924 C1936 1.349 . S
C1925 C1923 1.327 . S
C1925 C1941 1.429 . S
C1925 H1947 0.950 . S
C1926 H1922 0.949 . S
C1926 C1934 1.574 . S
C1926 C1942 1.368 . S
H1927 C1935 0.950 . S
H1928 C1933 0.950 . S
H1929 C1934 0.949 . S
H1930 C1936 0.950 . S
H1931 C1937 0.950 . S
H1932 C1938 0.949 . S
C1933 H1928 0.950 . S
C1933 C1935 1.327 . S
C1933 C1939 1.429 . S
C1934 C1926 1.574 . S
C1934 H1929 0.949 . S
C1934 C1940 1.368 . S
C1935 C1919 1.349 . S
C1935 H1927 0.950 . S
C1935 C1933 1.327 . S
C1936 C1924 1.349 . S
C1936 H1930 0.950 . S
C1936 C1937 1.327 . S
C1937 H1931 0.950 . S
C1937 C1936 1.327 . S
C1937 C1941 1.429 . S
C1938 C1921 1.574 . S
C1938 H1932 0.949 . S
C1938 C1942 1.368 . S
C1939 C1920 1.429 . S
C1939 C1933 1.429 . S
C1939 C1940 1.523 . S
C1940 C1921 1.368 . S
C1940 C1934 1.368 . S
C1940 C1939 1.523 . S
C1941 C1925 1.429 . S
C1941 C1937 1.429 . S
C1941 C1942 1.523 . S
C1942 C1926 1.368 . S
C1942 C1938 1.368 . S
C1942 C1941 1.523 . S
H1943 C1918 0.950 . S
H1944 C1920 0.950 . S
H1945 C1921 0.949 . S
H1946 C1923 0.950 . S
H1947 C1925 0.950 . S
C1948 C1949 1.349 . S
C1948 C1950 1.327 . S
C1948 H1973 0.950 . S
C1949 C1948 1.349 . S
C1949 C1965 1.349 . S
C1950 C1948 1.327 . S
C1950 C1969 1.429 . S
C1950 H1974 0.950 . S
C1951 C1968 1.574 . S
C1951 C1970 1.368 . S
C1951 H1975 0.949 . S
H1952 C1956 0.949 . S
C1953 C1954 1.349 . S
C1953 C1955 1.327 . S
C1953 H1976 0.950 . S
C1954 C1953 1.349 . S
C1954 C1966 1.349 . S
C1955 C1953 1.327 . S
C1955 C1971 1.429 . S
C1955 H1977 0.950 . S
C1956 H1952 0.949 . S
C1956 C1964 1.574 . S
C1956 C1972 1.368 . S
H1957 C1965 0.950 . S
H1958 C1963 0.950 . S
H1959 C1964 0.949 . S
H1960 C1966 0.950 . S
H1961 C1967 0.950 . S
H1962 C1968 0.949 . S
C1963 H1958 0.950 . S
C1963 C1965 1.327 . S
C1963 C1969 1.429 . S
C1964 C1956 1.574 . S
C1964 H1959 0.949 . S
C1964 C1970 1.368 . S
C1965 C1949 1.349 . S
C1965 H1957 0.950 . S
C1965 C1963 1.327 . S
C1966 C1954 1.349 . S
C1966 H1960 0.950 . S
C1966 C1967 1.327 . S
C1967 H1961 0.950 . S
C1967 C1966 1.327 . S
C1967 C1971 1.429 . S
C1968 C1951 1.574 . S
C1968 H1962 0.949 . S
C1968 C1972 1.368 . S
C1969 C1950 1.429 . S
C1969 C1963 1.429 . S
C1969 C1970 1.523 . S
C1970 C1951 1.368 . S
C1970 C1964 1.368 . S
C1970 C1969 1.523 . S
C1971 C1955 1.429 . S
C1971 C1967 1.429 . S
C1971 C1972 1.523 . S
C1972 C1956 1.368 . S
C1972 C1968 1.368 . S
C1972 C1971 1.523 . S
H1973 C1948 0.950 . S
H1974 C1950 0.950 . S
H1975 C1951 0.949 . S
H1976 C1953 0.950 . S
H1977 C1955 0.950 . S
C1978 C1979 1.349 . S
C1978 C1980 1.327 . S
C1978 H2003 0.950 . S
C1979 C1978 1.349 . S
C1979 C1995 1.349 . S
C1980 C1978 1.327 . S
C1980 C1999 1.429 . S
C1980 H2004 0.950 . S
C1981 C1998 1.574 . S
C1981 C2000 1.368 . S
C1981 H2005 0.949 . S
H1982 C1986 0.949 . S
C1983 C1984 1.349 . S
C1983 C1985 1.327 . S
C1983 H2006 0.950 . S
C1984 C1983 1.349 . S
C1984 C1996 1.349 . S
C1985 C1983 1.327 . S
C1985 C2001 1.429 . S
C1985 H2007 0.950 . S
C1986 H1982 0.949 . S
C1986 C1994 1.574 . S
C1986 C2002 1.368 . S
H1987 C1995 0.950 . S
H1988 C1993 0.950 . S
H1989 C1994 0.949 . S
H1990 C1996 0.950 . S
H1991 C1997 0.950 . S
H1992 C1998 0.949 . S
C1993 H1988 0.950 . S
C1993 C1995 1.327 . S
C1993 C1999 1.429 . S
C1994 C1986 1.574 . S
C1994 H1989 0.949 . S
C1994 C2000 1.368 . S
C1995 C1979 1.349 . S
C1995 H1987 0.950 . S
C1995 C1993 1.327 . S
C1996 C1984 1.349 . S
C1996 H1990 0.950 . S
C1996 C1997 1.327 . S
C1997 H1991 0.950 . S
C1997 C1996 1.327 . S
C1997 C2001 1.429 . S
C1998 C1981 1.574 . S
C1998 H1992 0.949 . S
C1998 C2002 1.368 . S
C1999 C1980 1.429 . S
C1999 C1993 1.429 . S
C1999 C2000 1.523 . S
C2000 C1981 1.368 . S
C2000 C1994 1.368 . S
C2000 C1999 1.523 . S
C2001 C1985 1.429 . S
C2001 C1997 1.429 . S
C2001 C2002 1.523 . S
C2002 C1986 1.368 . S
C2002 C1998 1.368 . S
C2002 C2001 1.523 . S
H2003 C1978 0.950 . S
H2004 C1980 0.950 . S
H2005 C1981 0.949 . S
H2006 C1983 0.950 . S
H2007 C1985 0.950 . S
C2008 C2009 1.349 . S
C2008 C2010 1.327 . S
C2008 H2033 0.950 . S
C2009 C2008 1.349 . S
C2009 C2025 1.349 . S
C2010 C2008 1.327 . S
C2010 C2029 1.429 . S
C2010 H2034 0.950 . S
C2011 C2028 1.574 . S
C2011 C2030 1.368 . S
C2011 H2035 0.949 . S
H2012 C2016 0.949 . S
C2013 C2014 1.349 . S
C2013 C2015 1.327 . S
C2013 H2036 0.950 . S
C2014 C2013 1.349 . S
C2014 C2026 1.349 . S
C2015 C2013 1.327 . S
C2015 C2031 1.429 . S
C2015 H2037 0.950 . S
C2016 H2012 0.949 . S
C2016 C2024 1.574 . S
C2016 C2032 1.368 . S
H2017 C2025 0.950 . S
H2018 C2023 0.950 . S
H2019 C2024 0.949 . S
H2020 C2026 0.950 . S
H2021 C2027 0.950 . S
H2022 C2028 0.949 . S
C2023 H2018 0.950 . S
C2023 C2025 1.327 . S
C2023 C2029 1.429 . S
C2024 C2016 1.574 . S
C2024 H2019 0.949 . S
C2024 C2030 1.368 . S
C2025 C2009 1.349 . S
C2025 H2017 0.950 . S
C2025 C2023 1.327 . S
C2026 C2014 1.349 . S
C2026 H2020 0.950 . S
C2026 C2027 1.327 . S
C2027 H2021 0.950 . S
C2027 C2026 1.327 . S
C2027 C2031 1.429 . S
C2028 C2011 1.574 . S
C2028 H2022 0.949 . S
C2028 C2032 1.368 . S
C2029 C2010 1.429 . S
C2029 C2023 1.429 . S
C2029 C2030 1.523 . S
C2030 C2011 1.368 . S
C2030 C2024 1.368 . S
C2030 C2029 1.523 . S
C2031 C2015 1.429 . S
C2031 C2027 1.429 . S
C2031 C2032 1.523 . S
C2032 C2016 1.368 . S
C2032 C2028 1.368 . S
C2032 C2031 1.523 . S
H2033 C2008 0.950 . S
H2034 C2010 0.950 . S
H2035 C2011 0.949 . S
H2036 C2013 0.950 . S
H2037 C2015 0.950 . S
C2038 C2039 1.349 . S
C2038 C2040 1.327 . S
C2038 H2063 0.950 . S
C2039 C2038 1.349 . S
C2039 C2055 1.349 . S
C2040 C2038 1.327 . S
C2040 C2059 1.429 . S
C2040 H2064 0.950 . S
C2041 C2058 1.574 . S
C2041 C2060 1.368 . S
C2041 H2065 0.949 . S
H2042 C2046 0.949 . S
C2043 C2044 1.349 . S
C2043 C2045 1.327 . S
C2043 H2066 0.950 . S
C2044 C2043 1.349 . S
C2044 C2056 1.349 . S
C2045 C2043 1.327 . S
C2045 C2061 1.429 . S
C2045 H2067 0.950 . S
C2046 H2042 0.949 . S
C2046 C2054 1.574 . S
C2046 C2062 1.368 . S
H2047 C2055 0.950 . S
H2048 C2053 0.950 . S
H2049 C2054 0.949 . S
H2050 C2056 0.950 . S
H2051 C2057 0.950 . S
H2052 C2058 0.949 . S
C2053 H2048 0.950 . S
C2053 C2055 1.327 . S
C2053 C2059 1.429 . S
C2054 C2046 1.574 . S
C2054 H2049 0.949 . S
C2054 C2060 1.368 . S
C2055 C2039 1.349 . S
C2055 H2047 0.950 . S
C2055 C2053 1.327 . S
C2056 C2044 1.349 . S
C2056 H2050 0.950 . S
C2056 C2057 1.327 . S
C2057 H2051 0.950 . S
C2057 C2056 1.327 . S
C2057 C2061 1.429 . S
C2058 C2041 1.574 . S
C2058 H2052 0.949 . S
C2058 C2062 1.368 . S
C2059 C2040 1.429 . S
C2059 C2053 1.429 . S
C2059 C2060 1.523 . S
C2060 C2041 1.368 . S
C2060 C2054 1.368 . S
C2060 C2059 1.523 . S
C2061 C2045 1.429 . S
C2061 C2057 1.429 . S
C2061 C2062 1.523 . S
C2062 C2046 1.368 . S
C2062 C2058 1.368 . S
C2062 C2061 1.523 . S
H2063 C2038 0.950 . S
H2064 C2040 0.950 . S
H2065 C2041 0.949 . S
H2066 C2043 0.950 . S
H2067 C2045 0.950 . S
C2068 C2069 1.349 . S
C2068 C2070 1.327 . S
C2068 H2093 0.950 . S
C2069 C2068 1.349 . S
C2069 C2085 1.349 . S
C2070 C2068 1.327 . S
C2070 C2089 1.429 . S
C2070 H2094 0.950 . S
C2071 C2088 1.574 . S
C2071 C2090 1.368 . S
C2071 H2095 0.949 . S
H2072 C2076 0.949 . S
C2073 C2074 1.349 . S
C2073 C2075 1.327 . S
C2073 H2096 0.950 . S
C2074 C2073 1.349 . S
C2074 C2086 1.349 . S
C2075 C2073 1.327 . S
C2075 C2091 1.429 . S
C2075 H2097 0.950 . S
C2076 H2072 0.949 . S
C2076 C2084 1.574 . S
C2076 C2092 1.368 . S
H2077 C2085 0.950 . S
H2078 C2083 0.950 . S
H2079 C2084 0.949 . S
H2080 C2086 0.950 . S
H2081 C2087 0.950 . S
H2082 C2088 0.949 . S
C2083 H2078 0.950 . S
C2083 C2085 1.327 . S
C2083 C2089 1.429 . S
C2084 C2076 1.574 . S
C2084 H2079 0.949 . S
C2084 C2090 1.368 . S
C2085 C2069 1.349 . S
C2085 H2077 0.950 . S
C2085 C2083 1.327 . S
C2086 C2074 1.349 . S
C2086 H2080 0.950 . S
C2086 C2087 1.327 . S
C2087 H2081 0.950 . S
C2087 C2086 1.327 . S
C2087 C2091 1.429 . S
C2088 C2071 1.574 . S
C2088 H2082 0.949 . S
C2088 C2092 1.368 . S
C2089 C2070 1.429 . S
C2089 C2083 1.429 . S
C2089 C2090 1.523 . S
C2090 C2071 1.368 . S
C2090 C2084 1.368 . S
C2090 C2089 1.523 . S
C2091 C2075 1.429 . S
C2091 C2087 1.429 . S
C2091 C2092 1.523 . S
C2092 C2076 1.368 . S
C2092 C2088 1.368 . S
C2092 C2091 1.523 . S
H2093 C2068 0.950 . S
H2094 C2070 0.950 . S
H2095 C2071 0.949 . S
H2096 C2073 0.950 . S
H2097 C2075 0.950 . S
C2098 C2099 1.349 . S
C2098 C2100 1.327 . S
C2098 H2123 0.950 . S
C2099 C2098 1.349 . S
C2099 C2115 1.349 . S
C2100 C2098 1.327 . S
C2100 C2119 1.429 . S
C2100 H2124 0.950 . S
C2101 C2118 1.574 . S
C2101 C2120 1.368 . S
C2101 H2125 0.949 . S
H2102 C2106 0.949 . S
C2103 C2104 1.349 . S
C2103 C2105 1.327 . S
C2103 H2126 0.950 . S
C2104 C2103 1.349 . S
C2104 C2116 1.349 . S
C2105 C2103 1.327 . S
C2105 C2121 1.429 . S
C2105 H2127 0.950 . S
C2106 H2102 0.949 . S
C2106 C2114 1.574 . S
C2106 C2122 1.368 . S
H2107 C2115 0.950 . S
H2108 C2113 0.950 . S
H2109 C2114 0.949 . S
H2110 C2116 0.950 . S
H2111 C2117 0.950 . S
H2112 C2118 0.949 . S
C2113 H2108 0.950 . S
C2113 C2115 1.327 . S
C2113 C2119 1.429 . S
C2114 C2106 1.574 . S
C2114 H2109 0.949 . S
C2114 C2120 1.368 . S
C2115 C2099 1.349 . S
C2115 H2107 0.950 . S
C2115 C2113 1.327 . S
C2116 C2104 1.349 . S
C2116 H2110 0.950 . S
C2116 C2117 1.327 . S
C2117 H2111 0.950 . S
C2117 C2116 1.327 . S
C2117 C2121 1.429 . S
C2118 C2101 1.574 . S
C2118 H2112 0.949 . S
C2118 C2122 1.368 . S
C2119 C2100 1.429 . S
C2119 C2113 1.429 . S
C2119 C2120 1.523 . S
C2120 C2101 1.368 . S
C2120 C2114 1.368 . S
C2120 C2119 1.523 . S
C2121 C2105 1.429 . S
C2121 C2117 1.429 . S
C2121 C2122 1.523 . S
C2122 C2106 1.368 . S
C2122 C2118 1.368 . S
C2122 C2121 1.523 . S
H2123 C2098 0.950 . S
H2124 C2100 0.950 . S
H2125 C2101 0.949 . S
H2126 C2103 0.950 . S
H2127 C2105 0.950 . S
C2128 C2129 1.349 . S
C2128 C2130 1.327 . S
C2128 H2153 0.950 . S
C2129 C2128 1.349 . S
C2129 C2145 1.349 . S
C2130 C2128 1.327 . S
C2130 C2149 1.429 . S
C2130 H2154 0.950 . S
C2131 C2148 1.574 . S
C2131 C2150 1.368 . S
C2131 H2155 0.949 . S
H2132 C2136 0.949 . S
C2133 C2134 1.349 . S
C2133 C2135 1.327 . S
C2133 H2156 0.950 . S
C2134 C2133 1.349 . S
C2134 C2146 1.349 . S
C2135 C2133 1.327 . S
C2135 C2151 1.429 . S
C2135 H2157 0.950 . S
C2136 H2132 0.949 . S
C2136 C2144 1.574 . S
C2136 C2152 1.368 . S
H2137 C2145 0.950 . S
H2138 C2143 0.950 . S
H2139 C2144 0.949 . S
H2140 C2146 0.950 . S
H2141 C2147 0.950 . S
H2142 C2148 0.949 . S
C2143 H2138 0.950 . S
C2143 C2145 1.327 . S
C2143 C2149 1.429 . S
C2144 C2136 1.574 . S
C2144 H2139 0.949 . S
C2144 C2150 1.368 . S
C2145 C2129 1.349 . S
C2145 H2137 0.950 . S
C2145 C2143 1.327 . S
C2146 C2134 1.349 . S
C2146 H2140 0.950 . S
C2146 C2147 1.327 . S
C2147 H2141 0.950 . S
C2147 C2146 1.327 . S
C2147 C2151 1.429 . S
C2148 C2131 1.574 . S
C2148 H2142 0.949 . S
C2148 C2152 1.368 . S
C2149 C2130 1.429 . S
C2149 C2143 1.429 . S
C2149 C2150 1.523 . S
C2150 C2131 1.368 . S
C2150 C2144 1.368 . S
C2150 C2149 1.523 . S
C2151 C2135 1.429 . S
C2151 C2147 1.429 . S
C2151 C2152 1.523 . S
C2152 C2136 1.368 . S
C2152 C2148 1.368 . S
C2152 C2151 1.523 . S
H2153 C2128 0.950 . S
H2154 C2130 0.950 . S
H2155 C2131 0.949 . S
H2156 C2133 0.950 . S
H2157 C2135 0.950 . S
C2158 C2159 1.349 . S
C2158 C2160 1.327 . S
C2158 H2183 0.950 . S
C2159 C2158 1.349 . S
C2159 C2175 1.349 . S
C2160 C2158 1.327 . S
C2160 C2179 1.429 . S
C2160 H2184 0.950 . S
C2161 C2178 1.574 . S
C2161 C2180 1.368 . S
C2161 H2185 0.949 . S
H2162 C2166 0.949 . S
C2163 C2164 1.349 . S
C2163 C2165 1.327 . S
C2163 H2186 0.950 . S
C2164 C2163 1.349 . S
C2164 C2176 1.349 . S
C2165 C2163 1.327 . S
C2165 C2181 1.429 . S
C2165 H2187 0.950 . S
C2166 H2162 0.949 . S
C2166 C2174 1.574 . S
C2166 C2182 1.368 . S
H2167 C2175 0.950 . S
H2168 C2173 0.950 . S
H2169 C2174 0.949 . S
H2170 C2176 0.950 . S
H2171 C2177 0.950 . S
H2172 C2178 0.949 . S
C2173 H2168 0.950 . S
C2173 C2175 1.327 . S
C2173 C2179 1.429 . S
C2174 C2166 1.574 . S
C2174 H2169 0.949 . S
C2174 C2180 1.368 . S
C2175 C2159 1.349 . S
C2175 H2167 0.950 . S
C2175 C2173 1.327 . S
C2176 C2164 1.349 . S
C2176 H2170 0.950 . S
C2176 C2177 1.327 . S
C2177 H2171 0.950 . S
C2177 C2176 1.327 . S
C2177 C2181 1.429 . S
C2178 C2161 1.574 . S
C2178 H2172 0.949 . S
C2178 C2182 1.368 . S
C2179 C2160 1.429 . S
C2179 C2173 1.429 . S
C2179 C2180 1.523 . S
C2180 C2161 1.368 . S
C2180 C2174 1.368 . S
C2180 C2179 1.523 . S
C2181 C2165 1.429 . S
C2181 C2177 1.429 . S
C2181 C2182 1.523 . S
C2182 C2166 1.368 . S
C2182 C2178 1.368 . S
C2182 C2181 1.523 . S
H2183 C2158 0.950 . S
H2184 C2160 0.950 . S
H2185 C2161 0.949 . S
H2186 C2163 0.950 . S
H2187 C2165 0.950 . S
C2188 C2189 1.349 . S
C2188 C2190 1.327 . S
C2188 H2213 0.950 . S
C2189 C2188 1.349 . S
C2189 C2205 1.349 . S
C2190 C2188 1.327 . S
C2190 C2209 1.429 . S
C2190 H2214 0.950 . S
C2191 C2208 1.574 . S
C2191 C2210 1.368 . S
C2191 H2215 0.949 . S
H2192 C2196 0.949 . S
C2193 C2194 1.349 . S
C2193 C2195 1.327 . S
C2193 H2216 0.950 . S
C2194 C2193 1.349 . S
C2194 C2206 1.349 . S
C2195 C2193 1.327 . S
C2195 C2211 1.429 . S
C2195 H2217 0.950 . S
C2196 H2192 0.949 . S
C2196 C2204 1.574 . S
C2196 C2212 1.368 . S
H2197 C2205 0.950 . S
H2198 C2203 0.950 . S
H2199 C2204 0.949 . S
H2200 C2206 0.950 . S
H2201 C2207 0.950 . S
H2202 C2208 0.949 . S
C2203 H2198 0.950 . S
C2203 C2205 1.327 . S
C2203 C2209 1.429 . S
C2204 C2196 1.574 . S
C2204 H2199 0.949 . S
C2204 C2210 1.368 . S
C2205 C2189 1.349 . S
C2205 H2197 0.950 . S
C2205 C2203 1.327 . S
C2206 C2194 1.349 . S
C2206 H2200 0.950 . S
C2206 C2207 1.327 . S
C2207 H2201 0.950 . S
C2207 C2206 1.327 . S
C2207 C2211 1.429 . S
C2208 C2191 1.574 . S
C2208 H2202 0.949 . S
C2208 C2212 1.368 . S
C2209 C2190 1.429 . S
C2209 C2203 1.429 . S
C2209 C2210 1.523 . S
C2210 C2191 1.368 . S
C2210 C2204 1.368 . S
C2210 C2209 1.523 . S
C2211 C2195 1.429 . S
C2211 C2207 1.429 . S
C2211 C2212 1.523 . S
C2212 C2196 1.368 . S
C2212 C2208 1.368 . S
C2212 C2211 1.523 . S
H2213 C2188 0.950 . S
H2214 C2190 0.950 . S
H2215 C2191 0.949 . S
H2216 C2193 0.950 . S
H2217 C2195 0.950 . S
C2218 C2219 1.349 . S
C2218 C2220 1.327 . S
C2218 H2243 0.950 . S
C2219 C2218 1.349 . S
C2219 C2235 1.349 . S
C2220 C2218 1.327 . S
C2220 C2239 1.429 . S
C2220 H2244 0.950 . S
C2221 C2238 1.574 . S
C2221 C2240 1.368 . S
C2221 H2245 0.949 . S
H2222 C2226 0.949 . S
C2223 C2224 1.349 . S
C2223 C2225 1.327 . S
C2223 H2246 0.950 . S
C2224 C2223 1.349 . S
C2224 C2236 1.349 . S
C2225 C2223 1.327 . S
C2225 C2241 1.429 . S
C2225 H2247 0.950 . S
C2226 H2222 0.949 . S
C2226 C2234 1.574 . S
C2226 C2242 1.368 . S
H2227 C2235 0.950 . S
H2228 C2233 0.950 . S
H2229 C2234 0.949 . S
H2230 C2236 0.950 . S
H2231 C2237 0.950 . S
H2232 C2238 0.949 . S
C2233 H2228 0.950 . S
C2233 C2235 1.327 . S
C2233 C2239 1.429 . S
C2234 C2226 1.574 . S
C2234 H2229 0.949 . S
C2234 C2240 1.368 . S
C2235 C2219 1.349 . S
C2235 H2227 0.950 . S
C2235 C2233 1.327 . S
C2236 C2224 1.349 . S
C2236 H2230 0.950 . S
C2236 C2237 1.327 . S
C2237 H2231 0.950 . S
C2237 C2236 1.327 . S
C2237 C2241 1.429 . S
C2238 C2221 1.574 . S
C2238 H2232 0.949 . S
C2238 C2242 1.368 . S
C2239 C2220 1.429 . S
C2239 C2233 1.429 . S
C2239 C2240 1.523 . S
C2240 C2221 1.368 . S
C2240 C2234 1.368 . S
C2240 C2239 1.523 . S
C2241 C2225 1.429 . S
C2241 C2237 1.429 . S
C2241 C2242 1.523 . S
C2242 C2226 1.368 . S
C2242 C2238 1.368 . S
C2242 C2241 1.523 . S
H2243 C2218 0.950 . S
H2244 C2220 0.950 . S
H2245 C2221 0.949 . S
H2246 C2223 0.950 . S
H2247 C2225 0.950 . S
C2248 C2249 1.349 . S
C2248 C2250 1.327 . S
C2248 H2273 0.950 . S
C2249 C2248 1.349 . S
C2249 C2265 1.349 . S
C2250 C2248 1.327 . S
C2250 C2269 1.429 . S
C2250 H2274 0.950 . S
C2251 C2268 1.574 . S
C2251 C2270 1.368 . S
C2251 H2275 0.949 . S
H2252 C2256 0.949 . S
C2253 C2254 1.349 . S
C2253 C2255 1.327 . S
C2253 H2276 0.950 . S
C2254 C2253 1.349 . S
C2254 C2266 1.349 . S
C2255 C2253 1.327 . S
C2255 C2271 1.429 . S
C2255 H2277 0.950 . S
C2256 H2252 0.949 . S
C2256 C2264 1.574 . S
C2256 C2272 1.368 . S
H2257 C2265 0.950 . S
H2258 C2263 0.950 . S
H2259 C2264 0.949 . S
H2260 C2266 0.950 . S
H2261 C2267 0.950 . S
H2262 C2268 0.949 . S
C2263 H2258 0.950 . S
C2263 C2265 1.327 . S
C2263 C2269 1.429 . S
C2264 C2256 1.574 . S
C2264 H2259 0.949 . S
C2264 C2270 1.368 . S
C2265 C2249 1.349 . S
C2265 H2257 0.950 . S
C2265 C2263 1.327 . S
C2266 C2254 1.349 . S
C2266 H2260 0.950 . S
C2266 C2267 1.327 . S
C2267 H2261 0.950 . S
C2267 C2266 1.327 . S
C2267 C2271 1.429 . S
C2268 C2251 1.574 . S
C2268 H2262 0.949 . S
C2268 C2272 1.368 . S
C2269 C2250 1.429 . S
C2269 C2263 1.429 . S
C2269 C2270 1.523 . S
C2270 C2251 1.368 . S
C2270 C2264 1.368 . S
C2270 C2269 1.523 . S
C2271 C2255 1.429 . S
C2271 C2267 1.429 . S
C2271 C2272 1.523 . S
C2272 C2256 1.368 . S
C2272 C2268 1.368 . S
C2272 C2271 1.523 . S
H2273 C2248 0.950 . S
H2274 C2250 0.950 . S
H2275 C2251 0.949 . S
H2276 C2253 0.950 . S
H2277 C2255 0.950 . S
C2278 C2279 1.349 . S
C2278 C2280 1.327 . S
C2278 H2303 0.950 . S
C2279 C2278 1.349 . S
C2279 C2295 1.349 . S
C2280 C2278 1.327 . S
C2280 C2299 1.429 . S
C2280 H2304 0.950 . S
C2281 C2298 1.574 . S
C2281 C2300 1.368 . S
C2281 H2305 0.949 . S
H2282 C2286 0.949 . S
C2283 C2284 1.349 . S
C2283 C2285 1.327 . S
C2283 H2306 0.950 . S
C2284 C2283 1.349 . S
C2284 C2296 1.349 . S
C2285 C2283 1.327 . S
C2285 C2301 1.429 . S
C2285 H2307 0.950 . S
C2286 H2282 0.949 . S
C2286 C2294 1.574 . S
C2286 C2302 1.368 . S
H2287 C2295 0.950 . S
H2288 C2293 0.950 . S
H2289 C2294 0.949 . S
H2290 C2296 0.950 . S
H2291 C2297 0.950 . S
H2292 C2298 0.949 . S
C2293 H2288 0.950 . S
C2293 C2295 1.327 . S
C2293 C2299 1.429 . S
C2294 C2286 1.574 . S
C2294 H2289 0.949 . S
C2294 C2300 1.368 . S
C2295 C2279 1.349 . S
C2295 H2287 0.950 . S
C2295 C2293 1.327 . S
C2296 C2284 1.349 . S
C2296 H2290 0.950 . S
C2296 C2297 1.327 . S
C2297 H2291 0.950 . S
C2297 C2296 1.327 . S
C2297 C2301 1.429 . S
C2298 C2281 1.574 . S
C2298 H2292 0.949 . S
C2298 C2302 1.368 . S
C2299 C2280 1.429 . S
C2299 C2293 1.429 . S
C2299 C2300 1.523 . S
C2300 C2281 1.368 . S
C2300 C2294 1.368 . S
C2300 C2299 1.523 . S
C2301 C2285 1.429 . S
C2301 C2297 1.429 . S
C2301 C2302 1.523 . S
C2302 C2286 1.368 . S
C2302 C2298 1.368 . S
C2302 C2301 1.523 . S
H2303 C2278 0.950 . S
H2304 C2280 0.950 . S
H2305 C2281 0.949 . S
H2306 C2283 0.950 . S
H2307 C2285 0.950 . S
C2308 C2309 1.349 . S
C2308 C2310 1.327 . S
C2308 H2333 0.950 . S
C2309 C2308 1.349 . S
C2309 C2325 1.349 . S
C2310 C2308 1.327 . S
C2310 C2329 1.429 . S
C2310 H2334 0.950 . S
C2311 C2328 1.574 . S
C2311 C2330 1.368 . S
C2311 H2335 0.949 . S
H2312 C2316 0.949 . S
C2313 C2314 1.349 . S
C2313 C2315 1.327 . S
C2313 H2336 0.950 . S
C2314 C2313 1.349 . S
C2314 C2326 1.349 . S
C2315 C2313 1.327 . S
C2315 C2331 1.429 . S
C2315 H2337 0.950 . S
C2316 H2312 0.949 . S
C2316 C2324 1.574 . S
C2316 C2332 1.368 . S
H2317 C2325 0.950 . S
H2318 C2323 0.950 . S
H2319 C2324 0.949 . S
H2320 C2326 0.950 . S
H2321 C2327 0.950 . S
H2322 C2328 0.949 . S
C2323 H2318 0.950 . S
C2323 C2325 1.327 . S
C2323 C2329 1.429 . S
C2324 C2316 1.574 . S
C2324 H2319 0.949 . S
C2324 C2330 1.368 . S
C2325 C2309 1.349 . S
C2325 H2317 0.950 . S
C2325 C2323 1.327 . S
C2326 C2314 1.349 . S
C2326 H2320 0.950 . S
C2326 C2327 1.327 . S
C2327 H2321 0.950 . S
C2327 C2326 1.327 . S
C2327 C2331 1.429 . S
C2328 C2311 1.574 . S
C2328 H2322 0.949 . S
C2328 C2332 1.368 . S
C2329 C2310 1.429 . S
C2329 C2323 1.429 . S
C2329 C2330 1.523 . S
C2330 C2311 1.368 . S
C2330 C2324 1.368 . S
C2330 C2329 1.523 . S
C2331 C2315 1.429 . S
C2331 C2327 1.429 . S
C2331 C2332 1.523 . S
C2332 C2316 1.368 . S
C2332 C2328 1.368 . S
C2332 C2331 1.523 . S
H2333 C2308 0.950 . S
H2334 C2310 0.950 . S
H2335 C2311 0.949 . S
H2336 C2313 0.950 . S
H2337 C2315 0.950 . S
C2338 C2339 1.349 . S
C2338 C2340 1.327 . S
C2338 H2363 0.950 . S
C2339 C2338 1.349 . S
C2339 C2355 1.349 . S
C2340 C2338 1.327 . S
C2340 C2359 1.429 . S
C2340 H2364 0.950 . S
C2341 C2358 1.574 . S
C2341 C2360 1.368 . S
C2341 H2365 0.949 . S
H2342 C2346 0.949 . S
C2343 C2344 1.349 . S
C2343 C2345 1.327 . S
C2343 H2366 0.950 . S
C2344 C2343 1.349 . S
C2344 C2356 1.349 . S
C2345 C2343 1.327 . S
C2345 C2361 1.429 . S
C2345 H2367 0.950 . S
C2346 H2342 0.949 . S
C2346 C2354 1.574 . S
C2346 C2362 1.368 . S
H2347 C2355 0.950 . S
H2348 C2353 0.950 . S
H2349 C2354 0.949 . S
H2350 C2356 0.950 . S
H2351 C2357 0.950 . S
H2352 C2358 0.949 . S
C2353 H2348 0.950 . S
C2353 C2355 1.327 . S
C2353 C2359 1.429 . S
C2354 C2346 1.574 . S
C2354 H2349 0.949 . S
C2354 C2360 1.368 . S
C2355 C2339 1.349 . S
C2355 H2347 0.950 . S
C2355 C2353 1.327 . S
C2356 C2344 1.349 . S
C2356 H2350 0.950 . S
C2356 C2357 1.327 . S
C2357 H2351 0.950 . S
C2357 C2356 1.327 . S
C2357 C2361 1.429 . S
C2358 C2341 1.574 . S
C2358 H2352 0.949 . S
C2358 C2362 1.368 . S
C2359 C2340 1.429 . S
C2359 C2353 1.429 . S
C2359 C2360 1.523 . S
C2360 C2341 1.368 . S
C2360 C2354 1.368 . S
C2360 C2359 1.523 . S
C2361 C2345 1.429 . S
C2361 C2357 1.429 . S
C2361 C2362 1.523 . S
C2362 C2346 1.368 . S
C2362 C2358 1.368 . S
C2362 C2361 1.523 . S
H2363 C2338 0.950 . S
H2364 C2340 0.950 . S
H2365 C2341 0.949 . S
H2366 C2343 0.950 . S
H2367 C2345 0.950 . S
C449 C7 1.527 . S
C454 C35 1.527 . S
C479 C49 1.525 . S
C484 C21 1.525 . S
C509 C91 1.527 . S
C514 C63 1.527 . S
C539 C105 1.525 . S
C544 C77 1.525 . S
C569 C119 1.527 . S
C574 C147 1.527 . S
C599 C161 1.525 . S
C604 C133 1.525 . S
C629 C175 1.527 . S
C634 C203 1.527 . S
C659 C217 1.525 . S
C664 C189 1.525 . S
C689 C231 1.527 . S
C694 C259 1.527 . S
C719 C245 1.525 . S
C724 C273 1.525 . S
C749 C315 1.527 . S
C754 C287 1.527 . S
C779 C301 1.525 . S
C784 C329 1.525 . S
C809 C371 1.527 . S
C814 C343 1.527 . S
C839 C385 1.525 . S
C844 C357 1.525 . S
C869 C427 1.527 . S
C874 C399 1.527 . S
C899 C413 1.525 . S
C904 C441 1.525 . S
C929 C356 1.152 . S
C934 C6 1.152 . S
C959 C20 1.152 . S
C964 C342 1.152 . S
C989 C34 1.152 . S
C994 C384 1.152 . S
C1019 C48 1.152 . S
C1024 C370 1.152 . S
C1049 C412 1.152 . S
C1054 C62 1.152 . S
C1079 C76 1.152 . S
C1084 C398 1.152 . S
C1109 C90 1.152 . S
C1114 C440 1.152 . S
C1139 C426 1.152 . S
C1144 C104 1.152 . S
C1169 C118 1.152 . S
C1174 C244 1.152 . S
C1199 C132 1.152 . S
C1204 C230 1.152 . S
C1229 C146 1.152 . S
C1234 C272 1.152 . S
C1259 C160 1.152 . S
C1264 C258 1.152 . S
C1289 C174 1.152 . S
C1294 C300 1.152 . S
C1319 C286 1.152 . S
C1324 C188 1.152 . S
C1349 C328 1.152 . S
C1354 C202 1.152 . S
C1379 C216 1.152 . S
C1384 C314 1.152 . S
C1409 C8 1.244 . S
C1414 C64 1.244 . S
C1439 C22 1.242 . S
C1444 C414 1.242 . S
C1469 C36 1.244 . S
C1474 C204 1.244 . S
C1499 C50 1.241 . S
C1504 C330 1.241 . S
C1529 C78 1.242 . S
C1534 C358 1.242 . S
C1559 C148 1.244 . S
C1564 C92 1.244 . S
C1589 C274 1.241 . S
C1594 C106 1.241 . S
C1619 C176 1.244 . S
C1624 C120 1.244 . S
C1649 C134 1.242 . S
C1654 C302 1.242 . S
C1679 C442 1.241 . S
C1684 C162 1.241 . S
C1709 C190 1.242 . S
C1714 C246 1.242 . S
C1739 C218 1.241 . S
C1744 C386 1.241 . S
C1769 C288 1.244 . S
C1774 C232 1.244 . S
C1799 C260 1.244 . S
C1804 C428 1.244 . S
C1829 C372 1.244 . S
C1834 C316 1.244 . S
C1859 C400 1.244 . S
C1864 C344 1.244 . S
C1889 C9 1.568 . S
C1894 C23 1.568 . S
C1919 C37 1.568 . S
C1924 C51 1.568 . S
C1949 C65 1.568 . S
C1954 C79 1.568 . S
C1979 C93 1.568 . S
C1984 C107 1.568 . S
C2009 C135 1.568 . S
C2014 C121 1.568 . S
C2039 C149 1.568 . S
C2044 C163 1.568 . S
C2069 C177 1.568 . S
C2074 C191 1.568 . S
C2099 C205 1.568 . S
C2104 C219 1.568 . S
C2129 C233 1.568 . S
C2134 C247 1.568 . S
C2159 C275 1.568 . S
C2164 C261 1.568 . S
C2189 C289 1.568 . S
C2194 C303 1.568 . S
C2219 C317 1.568 . S
C2224 C331 1.568 . S
C2249 C359 1.568 . S
C2254 C345 1.568 . S
C2279 C373 1.568 . S
C2284 C387 1.568 . S
C2309 C415 1.568 . S
C2314 C401 1.568 . S
C2339 C429 1.568 . S
C2344 C443 1.568 . S
