# Generated by pormake.
# Topology ukn, (4)-cn, num edge types: 1
# Building blocks:
#     Node 0, Type 0, BuildingBlock: QUQFOY_clean_sbu_1, # of connection points: 4
#     Node 1, Type 0, BuildingBlock: QUQFOY_clean_sbu_1, # of connection points: 4
#     Node 2, Type 0, BuildingBlock: QUQFOY_clean_sbu_1, # of connection points: 4
#     Node 3, Type 0, BuildingBlock: QUQFOY_clean_sbu_1, # of connection points: 4
#     Node 4, Type 0, BuildingBlock: QUQFOY_clean_sbu_1, # of connection points: 4
#     Node 5, Type 0, BuildingBlock: QUQFOY_clean_sbu_1, # of connection points: 4
#     Node 6, Type 0, BuildingBlock: QUQFOY_clean_sbu_1, # of connection points: 4
#     Node 7, Type 0, BuildingBlock: QUQFOY_clean_sbu_1, # of connection points: 4
#     Node 8, Type 0, BuildingBlock: QUQFOY_clean_sbu_1, # of connection points: 4
#     Node 9, Type 0, BuildingBlock: QUQFOY_clean_sbu_1, # of connection points: 4
#     Node 10, Type 0, BuildingBlock: QUQFOY_clean_sbu_1, # of connection points: 4
#     Node 11, Type 0, BuildingBlock: QUQFOY_clean_sbu_1, # of connection points: 4
#     Node 12, Type 0, BuildingBlock: QUQFOY_clean_sbu_1, # of connection points: 4
#     Node 13, Type 0, BuildingBlock: QUQFOY_clean_sbu_1, # of connection points: 4
#     Node 14, Type 0, BuildingBlock: QUQFOY_clean_sbu_1, # of connection points: 4
#     Node 15, Type 0, BuildingBlock: QUQFOY_clean_sbu_1, # of connection points: 4
#     Node 16, Type 0, BuildingBlock: QUQFOY_clean_sbu_1, # of connection points: 4
#     Node 17, Type 0, BuildingBlock: QUQFOY_clean_sbu_1, # of connection points: 4
#     Node 18, Type 0, BuildingBlock: QUQFOY_clean_sbu_1, # of connection points: 4
#     Node 19, Type 0, BuildingBlock: QUQFOY_clean_sbu_1, # of connection points: 4
#     Node 20, Type 0, BuildingBlock: QUQFOY_clean_sbu_1, # of connection points: 4
#     Node 21, Type 0, BuildingBlock: QUQFOY_clean_sbu_1, # of connection points: 4
#     Node 22, Type 0, BuildingBlock: QUQFOY_clean_sbu_1, # of connection points: 4
#     Node 23, Type 0, BuildingBlock: QUQFOY_clean_sbu_1, # of connection points: 4
#     Node 24, Type 0, BuildingBlock: QUQFOY_clean_sbu_1, # of connection points: 4
#     Node 25, Type 0, BuildingBlock: QUQFOY_clean_sbu_1, # of connection points: 4
#     Node 26, Type 0, BuildingBlock: QUQFOY_clean_sbu_1, # of connection points: 4
#     Node 27, Type 0, BuildingBlock: QUQFOY_clean_sbu_1, # of connection points: 4
#     Node 28, Type 0, BuildingBlock: QUQFOY_clean_sbu_1, # of connection points: 4
#     Node 29, Type 0, BuildingBlock: QUQFOY_clean_sbu_1, # of connection points: 4
#     Node 30, Type 0, BuildingBlock: QUQFOY_clean_sbu_1, # of connection points: 4
#     Node 31, Type 0, BuildingBlock: QUQFOY_clean_sbu_1, # of connection points: 4
#     Node 32, Type 0, BuildingBlock: QUQFOY_clean_sbu_1, # of connection points: 4
#     Node 33, Type 0, BuildingBlock: QUQFOY_clean_sbu_1, # of connection points: 4
#     Node 34, Type 0, BuildingBlock: QUQFOY_clean_sbu_1, # of connection points: 4
#     Node 35, Type 0, BuildingBlock: QUQFOY_clean_sbu_1, # of connection points: 4
#     Edge 36, Type (0, 0), BuildingBlock: UVAHIK_clean_linker_0, # of connection points: 2
#     Edge 37, Type (0, 0), BuildingBlock: UVAHIK_clean_linker_0, # of connection points: 2
#     Edge 38, Type (0, 0), BuildingBlock: UVAHIK_clean_linker_0, # of connection points: 2
#     Edge 39, Type (0, 0), BuildingBlock: UVAHIK_clean_linker_0, # of connection points: 2
#     Edge 40, Type (0, 0), BuildingBlock: UVAHIK_clean_linker_0, # of connection points: 2
#     Edge 41, Type (0, 0), BuildingBlock: UVAHIK_clean_linker_0, # of connection points: 2
#     Edge 42, Type (0, 0), BuildingBlock: UVAHIK_clean_linker_0, # of connection points: 2
#     Edge 43, Type (0, 0), BuildingBlock: UVAHIK_clean_linker_0, # of connection points: 2
#     Edge 44, Type (0, 0), BuildingBlock: UVAHIK_clean_linker_0, # of connection points: 2
#     Edge 45, Type (0, 0), BuildingBlock: UVAHIK_clean_linker_0, # of connection points: 2
#     Edge 46, Type (0, 0), BuildingBlock: UVAHIK_clean_linker_0, # of connection points: 2
#     Edge 47, Type (0, 0), BuildingBlock: UVAHIK_clean_linker_0, # of connection points: 2
#     Edge 48, Type (0, 0), BuildingBlock: UVAHIK_clean_linker_0, # of connection points: 2
#     Edge 49, Type (0, 0), BuildingBlock: UVAHIK_clean_linker_0, # of connection points: 2
#     Edge 50, Type (0, 0), BuildingBlock: UVAHIK_clean_linker_0, # of connection points: 2
#     Edge 51, Type (0, 0), BuildingBlock: UVAHIK_clean_linker_0, # of connection points: 2
#     Edge 52, Type (0, 0), BuildingBlock: UVAHIK_clean_linker_0, # of connection points: 2
#     Edge 53, Type (0, 0), BuildingBlock: UVAHIK_clean_linker_0, # of connection points: 2
#     Edge 54, Type (0, 0), BuildingBlock: UVAHIK_clean_linker_0, # of connection points: 2
#     Edge 55, Type (0, 0), BuildingBlock: UVAHIK_clean_linker_0, # of connection points: 2
#     Edge 56, Type (0, 0), BuildingBlock: UVAHIK_clean_linker_0, # of connection points: 2
#     Edge 57, Type (0, 0), BuildingBlock: UVAHIK_clean_linker_0, # of connection points: 2
#     Edge 58, Type (0, 0), BuildingBlock: UVAHIK_clean_linker_0, # of connection points: 2
#     Edge 59, Type (0, 0), BuildingBlock: UVAHIK_clean_linker_0, # of connection points: 2
#     Edge 60, Type (0, 0), BuildingBlock: UVAHIK_clean_linker_0, # of connection points: 2
#     Edge 61, Type (0, 0), BuildingBlock: UVAHIK_clean_linker_0, # of connection points: 2
#     Edge 62, Type (0, 0), BuildingBlock: UVAHIK_clean_linker_0, # of connection points: 2
#     Edge 63, Type (0, 0), BuildingBlock: UVAHIK_clean_linker_0, # of connection points: 2
#     Edge 64, Type (0, 0), BuildingBlock: UVAHIK_clean_linker_0, # of connection points: 2
#     Edge 65, Type (0, 0), BuildingBlock: UVAHIK_clean_linker_0, # of connection points: 2
#     Edge 66, Type (0, 0), BuildingBlock: UVAHIK_clean_linker_0, # of connection points: 2
#     Edge 67, Type (0, 0), BuildingBlock: UVAHIK_clean_linker_0, # of connection points: 2
#     Edge 68, Type (0, 0), BuildingBlock: UVAHIK_clean_linker_0, # of connection points: 2
#     Edge 69, Type (0, 0), BuildingBlock: UVAHIK_clean_linker_0, # of connection points: 2
#     Edge 70, Type (0, 0), BuildingBlock: UVAHIK_clean_linker_0, # of connection points: 2
#     Edge 71, Type (0, 0), BuildingBlock: UVAHIK_clean_linker_0, # of connection points: 2
#     Edge 72, Type (0, 0), BuildingBlock: UVAHIK_clean_linker_0, # of connection points: 2
#     Edge 73, Type (0, 0), BuildingBlock: UVAHIK_clean_linker_0, # of connection points: 2
#     Edge 74, Type (0, 0), BuildingBlock: UVAHIK_clean_linker_0, # of connection points: 2
#     Edge 75, Type (0, 0), BuildingBlock: UVAHIK_clean_linker_0, # of connection points: 2
#     Edge 76, Type (0, 0), BuildingBlock: UVAHIK_clean_linker_0, # of connection points: 2
#     Edge 77, Type (0, 0), BuildingBlock: UVAHIK_clean_linker_0, # of connection points: 2
#     Edge 78, Type (0, 0), BuildingBlock: UVAHIK_clean_linker_0, # of connection points: 2
#     Edge 79, Type (0, 0), BuildingBlock: UVAHIK_clean_linker_0, # of connection points: 2
#     Edge 80, Type (0, 0), BuildingBlock: UVAHIK_clean_linker_0, # of connection points: 2
#     Edge 81, Type (0, 0), BuildingBlock: UVAHIK_clean_linker_0, # of connection points: 2
#     Edge 82, Type (0, 0), BuildingBlock: UVAHIK_clean_linker_0, # of connection points: 2
#     Edge 83, Type (0, 0), BuildingBlock: UVAHIK_clean_linker_0, # of connection points: 2
#     Edge 84, Type (0, 0), BuildingBlock: UVAHIK_clean_linker_0, # of connection points: 2
#     Edge 85, Type (0, 0), BuildingBlock: UVAHIK_clean_linker_0, # of connection points: 2
#     Edge 86, Type (0, 0), BuildingBlock: UVAHIK_clean_linker_0, # of connection points: 2
#     Edge 87, Type (0, 0), BuildingBlock: UVAHIK_clean_linker_0, # of connection points: 2
#     Edge 88, Type (0, 0), BuildingBlock: UVAHIK_clean_linker_0, # of connection points: 2
#     Edge 89, Type (0, 0), BuildingBlock: UVAHIK_clean_linker_0, # of connection points: 2
#     Edge 90, Type (0, 0), BuildingBlock: UVAHIK_clean_linker_0, # of connection points: 2
#     Edge 91, Type (0, 0), BuildingBlock: UVAHIK_clean_linker_0, # of connection points: 2
#     Edge 92, Type (0, 0), BuildingBlock: UVAHIK_clean_linker_0, # of connection points: 2
#     Edge 93, Type (0, 0), BuildingBlock: UVAHIK_clean_linker_0, # of connection points: 2
#     Edge 94, Type (0, 0), BuildingBlock: UVAHIK_clean_linker_0, # of connection points: 2
#     Edge 95, Type (0, 0), BuildingBlock: UVAHIK_clean_linker_0, # of connection points: 2
#     Edge 96, Type (0, 0), BuildingBlock: UVAHIK_clean_linker_0, # of connection points: 2
#     Edge 97, Type (0, 0), BuildingBlock: UVAHIK_clean_linker_0, # of connection points: 2
#     Edge 98, Type (0, 0), BuildingBlock: UVAHIK_clean_linker_0, # of connection points: 2
#     Edge 99, Type (0, 0), BuildingBlock: UVAHIK_clean_linker_0, # of connection points: 2
#     Edge 100, Type (0, 0), BuildingBlock: UVAHIK_clean_linker_0, # of connection points: 2
#     Edge 101, Type (0, 0), BuildingBlock: UVAHIK_clean_linker_0, # of connection points: 2
#     Edge 102, Type (0, 0), BuildingBlock: UVAHIK_clean_linker_0, # of connection points: 2
#     Edge 103, Type (0, 0), BuildingBlock: UVAHIK_clean_linker_0, # of connection points: 2
#     Edge 104, Type (0, 0), BuildingBlock: UVAHIK_clean_linker_0, # of connection points: 2
#     Edge 105, Type (0, 0), BuildingBlock: UVAHIK_clean_linker_0, # of connection points: 2
#     Edge 106, Type (0, 0), BuildingBlock: UVAHIK_clean_linker_0, # of connection points: 2
#     Edge 107, Type (0, 0), BuildingBlock: UVAHIK_clean_linker_0, # of connection points: 2
# Relax obj value: 0.014
# Max RMSD: 0.063
# Mean RMSD: 0.063
data_MOF--net-ukn--node1-QUQFOY_clean_sbu_1--edge1-UVAHIK_clean_linker_0
_symmetry_space_group_name_H-M    P1
_symmetry_Int_Tables_number       1
_symmetry_cell_setting            triclinic
loop_
_symmetry_equiv_pos_as_xyz
'x, y, z'
_cell_length_a     139.93092
_cell_length_b     139.95434
_cell_length_c     36.637961
_cell_angle_alpha  90.031441
_cell_angle_beta   90.007207
_cell_angle_gamma 120.00174
loop_
_atom_site_label
_atom_site_type_symbol
_atom_site_fract_x
_atom_site_fract_y
_atom_site_fract_z
_atom_type_partial_charge
O0 O 0.09907 0.30688 0.10761 0.0
Cd1 Cd 0.08722 0.31148 0.10247 0.0
Cd2 Cd 0.07639 0.29124 0.0696 0.0
O3 O 0.08909 0.28944 0.09092 0.0
O4 O 0.09152 0.32373 0.13831 0.0
O5 O 0.07641 0.30744 0.14396 0.0
C6 C 0.08293 0.31715 0.15713 0.0
C7 C 0.05794 0.27721 0.06962 0.0
C8 C 0.09806 0.29739 0.10321 0.0
C9 C 0.08302 0.31138 0.02285 0.0
O10 O 0.07991 0.30118 0.02456 0.0
O11 O 0.08564 0.31719 0.05178 0.0
O12 O 0.06523 0.27655 0.05004 0.0
O13 O 0.06129 0.28552 0.09157 0.0
O14 O 0.69757 0.7938 0.10333 0.0
Cd15 Cd 0.69174 0.77711 0.09712 0.0
Cd16 Cd 0.71232 0.78614 0.06337 0.0
O17 O 0.71485 0.80083 0.08532 0.0
O18 O 0.67864 0.7705 0.13018 0.0
O19 O 0.69334 0.76891 0.14009 0.0
C20 C 0.68382 0.76717 0.15098 0.0
C21 C 0.72599 0.78121 0.06206 0.0
C22 C 0.70716 0.80208 0.09872 0.0
C23 C 0.69183 0.77341 0.01686 0.0
O24 O 0.70213 0.78014 0.01872 0.0
O25 O 0.686 0.77031 0.04575 0.0
O26 O 0.72677 0.78926 0.04274 0.0
O27 O 0.71776 0.7764 0.08435 0.0
O28 O 0.20661 0.90244 0.10853 0.0
Cd29 Cd 0.22321 0.91357 0.10007 0.0
Cd30 Cd 0.21378 0.92401 0.0671 0.0
O31 O 0.19959 0.91295 0.09407 0.0
O32 O 0.23062 0.90808 0.13384 0.0
O33 O 0.23153 0.92417 0.14121 0.0
C34 C 0.23379 0.91684 0.15324 0.0
C35 C 0.22084 0.943 0.06556 0.0
C36 C 0.19838 0.90395 0.10664 0.0
C37 C 0.225 0.91537 0.01912 0.0
O38 O 0.21764 0.91811 0.02147 0.0
O39 O 0.22951 0.91431 0.04787 0.0
O40 O 0.21174 0.93631 0.04919 0.0
O41 O 0.22558 0.93884 0.08499 0.0
O42 O 0.3028 0.09682 0.91145 0.0
Cd43 Cd 0.30813 0.08558 0.91857 0.0
Cd44 Cd 0.28782 0.07443 0.94883 0.0
O45 O 0.28521 0.08635 0.92533 0.0
O46 O 0.3214 0.0916 0.88641 0.0
O47 O 0.30634 0.07562 0.87593 0.0
C48 C 0.31605 0.08314 0.8655 0.0
C49 C 0.27592 0.0555 0.94457 0.0
C50 C 0.29312 0.09544 0.91374 0.0
C51 C 0.30715 0.0818 0.99901 0.0
O52 O 0.29697 0.07871 0.99598 0.0
O53 O 0.31317 0.0841 0.97066 0.0
O54 O 0.27325 0.0617 0.96286 0.0
O55 O 0.28503 0.06019 0.92622 0.0
O56 O 0.90443 0.20689 0.90534 0.0
Cd57 Cd 0.91504 0.22367 0.91069 0.0
Cd58 Cd 0.92667 0.215 0.94735 0.0
O59 O 0.91465 0.20012 0.92609 0.0
O60 O 0.9083 0.22982 0.87672 0.0
O61 O 0.9248 0.23185 0.86757 0.0
C62 C 0.91687 0.23329 0.85616 0.0
C63 C 0.94528 0.21998 0.95027 0.0
C64 C 0.90578 0.1987 0.91152 0.0
C65 C 0.91851 0.22794 0.99098 0.0
O66 O 0.92224 0.22132 0.99052 0.0
O67 O 0.91581 0.23073 0.96137 0.0
O68 O 0.93793 0.21209 0.96987 0.0
O69 O 0.94195 0.2246 0.92688 0.0
O70 O 0.79453 0.69588 0.90625 0.0
Cd71 Cd 0.778 0.69073 0.91318 0.0
Cd72 Cd 0.78757 0.71122 0.94557 0.0
O73 O 0.80202 0.71331 0.92291 0.0
O74 O 0.77054 0.67789 0.8792 0.0
O75 O 0.77005 0.69329 0.87156 0.0
C76 C 0.7676 0.68363 0.85963 0.0
C77 C 0.78267 0.72489 0.94584 0.0
C78 C 0.80298 0.7054 0.91004 0.0
C79 C 0.7747 0.69116 0.99341 0.0
O80 O 0.78171 0.70139 0.99103 0.0
O81 O 0.77128 0.68524 0.96476 0.0
O82 O 0.79085 0.72586 0.96485 0.0
O83 O 0.77773 0.71648 0.9243 0.0
O84 O 0.90332 0.69469 0.90585 0.0
Cd85 Cd 0.91501 0.68993 0.91259 0.0
Cd86 Cd 0.92586 0.71003 0.94358 0.0
O87 O 0.91373 0.7123 0.91979 0.0
O88 O 0.9107 0.67747 0.87759 0.0
O89 O 0.92587 0.6937 0.87147 0.0
C90 C 0.91931 0.68395 0.85865 0.0
C91 C 0.94469 0.72264 0.9413 0.0
C92 C 0.90464 0.70434 0.90828 0.0
C93 C 0.91864 0.69051 0.99283 0.0
O94 O 0.92163 0.70068 0.99024 0.0
O95 O 0.91644 0.68461 0.96421 0.0
O96 O 0.93804 0.72476 0.95926 0.0
O97 O 0.94051 0.71368 0.92215 0.0
O98 O 0.30365 0.20635 0.90452 0.0
Cd99 Cd 0.30948 0.22307 0.91009 0.0
Cd100 Cd 0.28919 0.21422 0.94566 0.0
O101 O 0.28653 0.19943 0.92407 0.0
O102 O 0.3222 0.22975 0.87538 0.0
O103 O 0.30726 0.23107 0.8678 0.0
C104 C 0.31672 0.23296 0.85564 0.0
C105 C 0.27555 0.2192 0.94797 0.0
C106 C 0.2941 0.1981 0.91011 0.0
C107 C 0.31004 0.22716 0.99035 0.0
O108 O 0.29972 0.22043 0.98944 0.0
O109 O 0.31563 0.23011 0.96093 0.0
O110 O 0.2749 0.21122 0.96741 0.0
O111 O 0.28361 0.22388 0.92501 0.0
O112 O 0.79551 0.09773 0.90784 0.0
Cd113 Cd 0.77878 0.08688 0.91356 0.0
Cd114 Cd 0.78768 0.0755 0.94915 0.0
O115 O 0.80247 0.08761 0.92773 0.0
O116 O 0.77227 0.0933 0.87975 0.0
O117 O 0.77064 0.07695 0.8707 0.0
C118 C 0.76894 0.08471 0.85931 0.0
C119 C 0.78262 0.05689 0.95051 0.0
C120 C 0.80378 0.09647 0.91352 0.0
C121 C 0.77471 0.0833 0.99388 0.0
O122 O 0.78148 0.07976 0.99304 0.0
O123 O 0.77175 0.08592 0.96443 0.0
O124 O 0.79059 0.0641 0.97028 0.0
O125 O 0.77797 0.06038 0.92782 0.0
O126 O 0.69725 0.90269 0.10539 0.0
Cd127 Cd 0.69141 0.91355 0.09939 0.0
Cd128 Cd 0.71185 0.9251 0.06519 0.0
O129 O 0.71444 0.91294 0.08667 0.0
O130 O 0.67846 0.90724 0.13304 0.0
O131 O 0.69323 0.92355 0.14202 0.0
C132 C 0.68374 0.91584 0.1534 0.0
C133 C 0.72551 0.94369 0.06417 0.0
C134 C 0.70682 0.90401 0.10031 0.0
C135 C 0.69126 0.9173 0.01921 0.0
O136 O 0.70159 0.92096 0.02076 0.0
O137 O 0.6855 0.91451 0.04825 0.0
O138 O 0.72627 0.93646 0.04453 0.0
O139 O 0.7173 0.94023 0.08655 0.0
O140 O 0.09766 0.79418 0.10605 0.0
Cd141 Cd 0.08668 0.77762 0.09765 0.0
Cd142 Cd 0.07566 0.78683 0.06548 0.0
O143 O 0.0873 0.80127 0.09034 0.0
O144 O 0.09268 0.77045 0.13025 0.0
O145 O 0.07646 0.76912 0.13937 0.0
C146 C 0.08405 0.7671 0.15044 0.0
C147 C 0.05672 0.78002 0.06669 0.0
C148 C 0.09625 0.80244 0.10333 0.0
C149 C 0.08377 0.77512 0.01679 0.0
O150 O 0.08048 0.78207 0.01923 0.0
O151 O 0.08588 0.77138 0.0455 0.0
O152 O 0.06325 0.78891 0.04909 0.0
O153 O 0.06104 0.77542 0.08601 0.0
O154 O 0.2087 0.30625 0.10296 0.0
Cd155 Cd 0.2251 0.3107 0.09742 0.0
Cd156 Cd 0.21539 0.29035 0.06541 0.0
O157 O 0.20103 0.28869 0.0875 0.0
O158 O 0.23319 0.32313 0.13261 0.0
O159 O 0.23189 0.30681 0.13925 0.0
C160 C 0.23514 0.31659 0.15193 0.0
C161 C 0.21993 0.27641 0.06582 0.0
C162 C 0.20016 0.29677 0.09939 0.0
C163 C 0.22881 0.31024 0.01763 0.0
O164 O 0.22155 0.30009 0.01983 0.0
O165 O 0.23226 0.31612 0.04636 0.0
O166 O 0.21183 0.27558 0.04659 0.0
O167 O 0.22495 0.28484 0.08725 0.0
O168 O 0.76482 0.63791 0.43942 0.0
Cd169 Cd 0.75355 0.64324 0.43321 0.0
Cd170 Cd 0.74269 0.6229 0.39794 0.0
O171 O 0.75507 0.62072 0.41998 0.0
O172 O 0.75919 0.65597 0.46776 0.0
O173 O 0.74314 0.64075 0.47513 0.0
C174 C 0.75049 0.6503 0.48732 0.0
C175 C 0.72425 0.60885 0.39547 0.0
C176 C 0.76383 0.62848 0.43409 0.0
C177 C 0.75009 0.6436 0.35292 0.0
O178 O 0.74676 0.63333 0.354 0.0
O179 O 0.75257 0.64922 0.38225 0.0
O180 O 0.73175 0.60848 0.37608 0.0
O181 O 0.72737 0.61687 0.41848 0.0
O182 O 0.36285 0.12615 0.44163 0.0
Cd183 Cd 0.35686 0.10939 0.43678 0.0
Cd184 Cd 0.37705 0.11807 0.39978 0.0
O185 O 0.3798 0.13297 0.42053 0.0
O186 O 0.34411 0.10317 0.47125 0.0
O187 O 0.35875 0.10139 0.47981 0.0
C188 C 0.34938 0.09984 0.49158 0.0
C189 C 0.39083 0.11331 0.39704 0.0
C190 C 0.37235 0.13437 0.4351 0.0
C191 C 0.35588 0.10485 0.35671 0.0
O192 O 0.36622 0.1115 0.35686 0.0
O193 O 0.35045 0.10216 0.38645 0.0
O194 O 0.39123 0.12109 0.37712 0.0
O195 O 0.38293 0.10869 0.42059 0.0
O196 O 0.87284 0.23665 0.43509 0.0
Cd197 Cd 0.8895 0.2477 0.42868 0.0
Cd198 Cd 0.88031 0.25905 0.39596 0.0
O199 O 0.86569 0.24688 0.41819 0.0
O200 O 0.89637 0.24144 0.46158 0.0
O201 O 0.89764 0.25759 0.47155 0.0
C202 C 0.89958 0.24994 0.48237 0.0
C203 C 0.88552 0.2777 0.39612 0.0
C204 C 0.86452 0.23793 0.43109 0.0
C205 C 0.89297 0.25154 0.34841 0.0
O206 O 0.8861 0.25493 0.35062 0.0
O207 O 0.89627 0.24894 0.37714 0.0
O208 O 0.87733 0.27062 0.37678 0.0
O209 O 0.8903 0.27405 0.41763 0.0
O210 O 0.97059 0.43159 0.23646 0.0
Cd211 Cd 0.97681 0.42104 0.24237 0.0
Cd212 Cd 0.95659 0.40947 0.27928 0.0
O213 O 0.95369 0.42143 0.25787 0.0
O214 O 0.98961 0.42757 0.20803 0.0
O215 O 0.9751 0.41103 0.19984 0.0
C216 C 0.98444 0.41889 0.18798 0.0
C217 C 0.94295 0.39088 0.28213 0.0
C218 C 0.96106 0.43024 0.24283 0.0
C219 C 0.97774 0.41778 0.32276 0.0
O220 O 0.96738 0.41394 0.32239 0.0
O221 O 0.98321 0.42051 0.29309 0.0
O222 O 0.94243 0.39824 0.30183 0.0
O223 O 0.9509 0.39419 0.25876 0.0
O224 O 0.57007 0.53992 0.24119 0.0
Cd225 Cd 0.58115 0.55656 0.24764 0.0
Cd226 Cd 0.59251 0.54735 0.28113 0.0
O227 O 0.58018 0.53274 0.2592 0.0
O228 O 0.57539 0.56363 0.21347 0.0
O229 O 0.59149 0.56458 0.20569 0.0
C230 C 0.58407 0.56673 0.19374 0.0
C231 C 0.61101 0.55189 0.28283 0.0
C232 C 0.57128 0.53158 0.24582 0.0
C233 C 0.58495 0.56024 0.32784 0.0
O234 O 0.58849 0.55348 0.3258 0.0
O235 O 0.5822 0.56336 0.29904 0.0
O236 O 0.6036 0.54395 0.30214 0.0
O237 O 0.60777 0.55681 0.26029 0.0
O238 O 0.46005 0.02881 0.23769 0.0
Cd239 Cd 0.44342 0.02326 0.24443 0.0
Cd240 Cd 0.45252 0.04362 0.27818 0.0
O241 O 0.46717 0.04605 0.25619 0.0
O242 O 0.43627 0.01056 0.2098 0.0
O243 O 0.43535 0.02576 0.20305 0.0
C244 C 0.43314 0.01622 0.19062 0.0
C245 C 0.44755 0.05725 0.27901 0.0
C246 C 0.46837 0.03836 0.24252 0.0
C247 C 0.43978 0.02318 0.32469 0.0
O248 O 0.4465 0.03348 0.32292 0.0
O249 O 0.43668 0.01737 0.29573 0.0
O250 O 0.45563 0.05811 0.29839 0.0
O251 O 0.44274 0.04896 0.25693 0.0
O252 O 0.56913 0.0286 0.23709 0.0
Cd253 Cd 0.58012 0.02294 0.24369 0.0
Cd254 Cd 0.59151 0.04336 0.27774 0.0
O255 O 0.57929 0.04581 0.25589 0.0
O256 O 0.57443 0.01022 0.2091 0.0
O257 O 0.59061 0.02534 0.20216 0.0
C258 C 0.58321 0.01582 0.1898 0.0
C259 C 0.61006 0.05714 0.27935 0.0
C260 C 0.5704 0.03816 0.24211 0.0
C261 C 0.58371 0.0228 0.32391 0.0
O262 O 0.58738 0.03312 0.32222 0.0
O263 O 0.58092 0.017 0.29493 0.0
O264 O 0.60273 0.05781 0.29868 0.0
O265 O 0.60673 0.04896 0.25689 0.0
O266 O 0.97031 0.5401 0.23863 0.0
Cd267 Cd 0.97635 0.55679 0.2458 0.0
Cd268 Cd 0.95631 0.54811 0.28048 0.0
O269 O 0.95313 0.53337 0.25711 0.0
O270 O 0.98934 0.56338 0.21232 0.0
O271 O 0.97475 0.56524 0.20359 0.0
C272 C 0.98419 0.56688 0.19214 0.0
C273 C 0.94396 0.55468 0.28028 0.0
C274 C 0.96063 0.53195 0.24313 0.0
C275 C 0.97673 0.56005 0.32665 0.0
O276 O 0.96642 0.55331 0.32546 0.0
O277 O 0.98232 0.56335 0.29728 0.0
O278 O 0.94198 0.54604 0.29872 0.0
O279 O 0.95264 0.55918 0.25974 0.0
O280 O 0.46067 0.43072 0.23897 0.0
Cd281 Cd 0.44401 0.41966 0.24506 0.0
Cd282 Cd 0.45311 0.40845 0.27992 0.0
O283 O 0.46779 0.42065 0.25805 0.0
O284 O 0.43705 0.42544 0.21051 0.0
O285 O 0.43602 0.4093 0.20304 0.0
C286 C 0.43393 0.41673 0.19088 0.0
C287 C 0.44825 0.38988 0.28147 0.0
C288 C 0.469 0.42952 0.2442 0.0
C289 C 0.44018 0.41615 0.32541 0.0
O290 O 0.44699 0.41267 0.32418 0.0
O291 O 0.43708 0.41871 0.29613 0.0
O292 O 0.45626 0.39719 0.30091 0.0
O293 O 0.44346 0.39326 0.25896 0.0
O294 O 0.3636 0.23574 0.43577 0.0
Cd295 Cd 0.35811 0.24689 0.42938 0.0
Cd296 Cd 0.37861 0.25819 0.39645 0.0
O297 O 0.38094 0.2459 0.41837 0.0
O298 O 0.34526 0.24118 0.46346 0.0
O299 O 0.36048 0.25722 0.47144 0.0
C300 C 0.35089 0.24984 0.4833 0.0
C301 C 0.39223 0.27679 0.39622 0.0
C302 C 0.37316 0.23697 0.43142 0.0
C303 C 0.35837 0.25074 0.34915 0.0
O304 O 0.36864 0.25417 0.35132 0.0
O305 O 0.35247 0.24806 0.3779 0.0
O306 O 0.39317 0.26961 0.37684 0.0
O307 O 0.38388 0.27326 0.41803 0.0
O308 O 0.76401 0.12736 0.43778 0.0
Cd309 Cd 0.75316 0.11066 0.4317 0.0
Cd310 Cd 0.74154 0.1196 0.39823 0.0
O311 O 0.75365 0.13431 0.4202 0.0
O312 O 0.75965 0.10406 0.46478 0.0
O313 O 0.74336 0.10248 0.47468 0.0
C314 C 0.75115 0.10074 0.48558 0.0
C315 C 0.72291 0.1145 0.39715 0.0
C316 C 0.76264 0.13561 0.43334 0.0
C317 C 0.74934 0.10696 0.35149 0.0
O318 O 0.74576 0.11368 0.35343 0.0
O319 O 0.75206 0.10384 0.38034 0.0
O320 O 0.73012 0.12261 0.37787 0.0
O321 O 0.72641 0.10974 0.4193 0.0
O322 O 0.87486 0.63894 0.43989 0.0
Cd323 Cd 0.89131 0.64365 0.43344 0.0
Cd324 Cd 0.88201 0.62371 0.40128 0.0
O325 O 0.86759 0.62141 0.42485 0.0
O326 O 0.89946 0.65637 0.46753 0.0
O327 O 0.89848 0.64023 0.47535 0.0
C328 C 0.90169 0.65009 0.48716 0.0
C329 C 0.88836 0.61123 0.40402 0.0
C330 C 0.86648 0.62933 0.43683 0.0
C331 C 0.89452 0.64331 0.35296 0.0
O332 O 0.88723 0.63317 0.35487 0.0
O333 O 0.89819 0.64902 0.38197 0.0
O334 O 0.87961 0.60903 0.38576 0.0
O335 O 0.89304 0.62019 0.42317 0.0
O336 O 0.43015 0.97022 0.77284 0.0
Cd337 Cd 0.41903 0.97566 0.76514 0.0
Cd338 Cd 0.40801 0.95559 0.73283 0.0
O339 O 0.41977 0.95279 0.7568 0.0
O340 O 0.4246 0.98858 0.79887 0.0
O341 O 0.40852 0.97338 0.80649 0.0
C342 C 0.41586 0.98299 0.81838 0.0
C343 C 0.38907 0.94349 0.7352 0.0
C344 C 0.42876 0.96055 0.76964 0.0
C345 C 0.41592 0.97538 0.68438 0.0
O346 O 0.41265 0.96514 0.68656 0.0
O347 O 0.41809 0.98118 0.71325 0.0
O348 O 0.39549 0.9411 0.71699 0.0
O349 O 0.39354 0.95245 0.75441 0.0
O350 O 0.0318 0.46197 0.76956 0.0
Cd351 Cd 0.02611 0.44537 0.76144 0.0
Cd352 Cd 0.04644 0.45444 0.73007 0.0
O353 O 0.04931 0.46891 0.75479 0.0
O354 O 0.01282 0.4383 0.79358 0.0
O355 O 0.02761 0.43688 0.80366 0.0
C356 C 0.01799 0.43494 0.81425 0.0
C357 C 0.05848 0.44752 0.73181 0.0
C358 C 0.04153 0.47017 0.76723 0.0
C359 C 0.02681 0.44287 0.68063 0.0
O360 O 0.03704 0.44982 0.68346 0.0
O361 O 0.02086 0.4391 0.70914 0.0
O362 O 0.06094 0.45644 0.71422 0.0
O363 O 0.04949 0.44295 0.75081 0.0
O364 O 0.53994 0.56939 0.77355 0.0
Cd365 Cd 0.55662 0.58038 0.76737 0.0
Cd366 Cd 0.5476 0.59165 0.7324 0.0
O367 O 0.5329 0.5795 0.75423 0.0
O368 O 0.56353 0.57456 0.80194 0.0
O369 O 0.56467 0.59075 0.8093 0.0
C370 C 0.56671 0.58329 0.82149 0.0
C371 C 0.55252 0.61024 0.73089 0.0
C372 C 0.53165 0.57063 0.76822 0.0
C373 C 0.56049 0.58389 0.68701 0.0
O374 O 0.55371 0.58741 0.68818 0.0
O375 O 0.56354 0.58129 0.7163 0.0
O376 O 0.54451 0.60296 0.71141 0.0
O377 O 0.55729 0.60683 0.7534 0.0
O378 O 0.6364 0.76414 0.57292 0.0
Cd379 Cd 0.64227 0.7533 0.57884 0.0
Cd380 Cd 0.62198 0.74195 0.6143 0.0
O381 O 0.61928 0.75401 0.59251 0.0
O382 O 0.65521 0.75971 0.54512 0.0
O383 O 0.64051 0.74337 0.53603 0.0
C384 C 0.64998 0.75113 0.52468 0.0
C385 C 0.60846 0.72332 0.61577 0.0
C386 C 0.62685 0.76287 0.57836 0.0
C387 C 0.64273 0.7498 0.65922 0.0
O388 O 0.63242 0.74629 0.65831 0.0
O389 O 0.64831 0.75237 0.6298 0.0
O390 O 0.60765 0.73053 0.63537 0.0
O391 O 0.61662 0.72682 0.59318 0.0
O392 O 0.23604 0.87308 0.57029 0.0
Cd393 Cd 0.2472 0.88966 0.57892 0.0
Cd394 Cd 0.25762 0.8802 0.61155 0.0
O395 O 0.24654 0.86602 0.58451 0.0
O396 O 0.24173 0.89712 0.54526 0.0
O397 O 0.25779 0.89797 0.53782 0.0
C398 C 0.25048 0.90026 0.52584 0.0
C399 C 0.27663 0.88739 0.61263 0.0
C400 C 0.23753 0.86484 0.57202 0.0
C401 C 0.24904 0.8914 0.65988 0.0
O402 O 0.25177 0.88402 0.65737 0.0
O403 O 0.24798 0.89593 0.63121 0.0
O404 O 0.27003 0.87827 0.629 0.0
O405 O 0.27237 0.89208 0.59343 0.0
O406 O 0.12604 0.36162 0.57587 0.0
Cd407 Cd 0.10972 0.35739 0.58227 0.0
Cd408 Cd 0.11952 0.37743 0.61324 0.0
O409 O 0.13372 0.37931 0.58911 0.0
O410 O 0.1013 0.34458 0.54878 0.0
O411 O 0.10275 0.36088 0.53994 0.0
C412 C 0.09931 0.35093 0.52864 0.0
C413 C 0.11328 0.38998 0.60986 0.0
C414 C 0.13456 0.37116 0.57796 0.0
C415 C 0.10681 0.3582 0.66265 0.0
O416 O 0.11439 0.36823 0.66021 0.0
O417 O 0.10283 0.35242 0.63391 0.0
O418 O 0.1221 0.39224 0.62779 0.0
O419 O 0.10848 0.38091 0.59131 0.0
O420 O 0.23596 0.36156 0.5726 0.0
Cd421 Cd 0.24795 0.35713 0.57787 0.0
Cd422 Cd 0.25837 0.37732 0.61127 0.0
O423 O 0.24574 0.37904 0.58896 0.0
O424 O 0.24332 0.34445 0.54358 0.0
O425 O 0.25834 0.36066 0.53523 0.0
C426 C 0.25171 0.35078 0.52357 0.0
C427 C 0.27685 0.39123 0.61132 0.0
C428 C 0.23685 0.371 0.57663 0.0
C429 C 0.25193 0.35731 0.65792 0.0
O430 O 0.25465 0.36742 0.65647 0.0
O431 O 0.24975 0.35165 0.62874 0.0
O432 O 0.26957 0.39203 0.63054 0.0
O433 O 0.27347 0.38285 0.58966 0.0
O434 O 0.63643 0.87305 0.57366 0.0
Cd435 Cd 0.64222 0.88971 0.58059 0.0
Cd436 Cd 0.62208 0.88085 0.61409 0.0
O437 O 0.61911 0.86619 0.59066 0.0
O438 O 0.65535 0.89647 0.54771 0.0
O439 O 0.64063 0.89804 0.53799 0.0
C440 C 0.65017 0.89983 0.52708 0.0
C441 C 0.60973 0.8874 0.61292 0.0
C442 C 0.62676 0.86485 0.57749 0.0
C443 C 0.6422 0.8929 0.66133 0.0
O444 O 0.63193 0.88599 0.65968 0.0
O445 O 0.64789 0.89634 0.63221 0.0
O446 O 0.60764 0.87872 0.63129 0.0
O447 O 0.61852 0.89196 0.59294 0.0
O448 O 0.12749 0.7643 0.56958 0.0
Cd449 Cd 0.11089 0.75336 0.57739 0.0
Cd450 Cd 0.12 0.74241 0.61121 0.0
O451 O 0.13455 0.75404 0.58691 0.0
O452 O 0.10391 0.75943 0.54424 0.0
O453 O 0.10246 0.74315 0.5355 0.0
C454 C 0.10054 0.75077 0.52415 0.0
C455 C 0.11343 0.7235 0.61062 0.0
C456 C 0.13576 0.76293 0.57326 0.0
C457 C 0.10803 0.7506 0.65828 0.0
O458 O 0.11497 0.74728 0.65672 0.0
O459 O 0.10447 0.75268 0.6291 0.0
O460 O 0.12219 0.73016 0.62864 0.0
O461 O 0.10882 0.72769 0.59065 0.0
O462 O 0.03138 0.57022 0.77312 0.0
Cd463 Cd 0.02554 0.58102 0.76536 0.0
Cd464 Cd 0.04578 0.59242 0.73325 0.0
O465 O 0.0488 0.58085 0.75736 0.0
O466 O 0.01238 0.57479 0.79806 0.0
O467 O 0.02712 0.5911 0.80743 0.0
C468 C 0.01757 0.5834 0.81842 0.0
C469 C 0.05784 0.61138 0.73485 0.0
C470 C 0.04112 0.5718 0.77014 0.0
C471 C 0.02592 0.58416 0.6846 0.0
O472 O 0.0362 0.58762 0.68701 0.0
O473 O 0.02005 0.58186 0.71332 0.0
O474 O 0.06022 0.60491 0.71689 0.0
O475 O 0.04893 0.60698 0.75425 0.0
O476 O 0.4306 0.4604 0.77153 0.0
Cd477 Cd 0.41962 0.44375 0.76483 0.0
Cd478 Cd 0.40823 0.45288 0.73118 0.0
O479 O 0.42042 0.46751 0.75346 0.0
O480 O 0.42545 0.43674 0.79896 0.0
O481 O 0.40928 0.43563 0.80668 0.0
C482 C 0.41674 0.43355 0.81864 0.0
C483 C 0.38964 0.44798 0.7296 0.0
C484 C 0.42933 0.46871 0.76697 0.0
C485 C 0.41599 0.44019 0.68449 0.0
O486 O 0.41243 0.44693 0.68646 0.0
O487 O 0.41867 0.43702 0.71335 0.0
O488 O 0.39695 0.45607 0.71053 0.0
O489 O 0.39302 0.44313 0.75186 0.0
O490 O 0.53905 0.97013 0.77217 0.0
Cd491 Cd 0.55559 0.97545 0.76441 0.0
Cd492 Cd 0.54641 0.9554 0.73215 0.0
O493 O 0.53191 0.95269 0.75625 0.0
O494 O 0.56309 0.98833 0.79823 0.0
O495 O 0.56376 0.97301 0.80559 0.0
C496 C 0.56616 0.98265 0.81759 0.0
C497 C 0.55317 0.94324 0.73445 0.0
C498 C 0.53074 0.96049 0.76906 0.0
C499 C 0.5584 0.97513 0.68365 0.0
O500 O 0.55134 0.96492 0.68583 0.0
O501 O 0.56208 0.98092 0.71252 0.0
O502 O 0.54434 0.94087 0.71636 0.0
O503 O 0.55772 0.9522 0.75362 0.0
C504 C 0.10771 0.28634 0.09865 0.0
C505 C 0.10768 0.29592 0.11016 0.0
C506 C 0.11728 0.28557 0.10171 0.0
C507 C 0.14744 0.30364 0.10664 0.0
H508 H 0.14777 0.27693 0.13228 0.0
C509 C 0.18831 0.30408 0.12334 0.0
C510 C 0.18915 0.29543 0.107 0.0
C511 C 0.17808 0.30341 0.12722 0.0
C512 C 0.14779 0.28442 0.12481 0.0
H513 H 0.11752 0.31192 0.13585 0.0
H514 H 0.13407 0.3105 0.14163 0.0
H515 H 0.13032 0.27703 0.133 0.0
H516 H 0.17977 0.27908 0.08328 0.0
H517 H 0.16186 0.27798 0.08967 0.0
H518 H 0.16479 0.31102 0.09799 0.0
C519 C 0.1268 0.30369 0.12944 0.0
C520 C 0.1378 0.28448 0.12522 0.0
C521 C 0.11727 0.30447 0.1263 0.0
C522 C 0.17942 0.28589 0.09599 0.0
C523 C 0.16915 0.28524 0.09976 0.0
C524 C 0.15737 0.30358 0.10622 0.0
C525 C 0.12701 0.29435 0.11639 0.0
C526 C 0.13753 0.29412 0.11631 0.0
C527 C 0.16839 0.29411 0.11469 0.0
C528 C 0.15771 0.294 0.11546 0.0
H529 H 0.10047 0.27959 0.0861 0.0
H530 H 0.11718 0.27828 0.09124 0.0
H531 H 0.1475 0.31113 0.09873 0.0
H532 H 0.19561 0.31149 0.13254 0.0
H533 H 0.17777 0.31028 0.1396 0.0
C534 C 0.7183 0.82276 0.0931 0.0
C535 C 0.70902 0.81326 0.10676 0.0
C536 C 0.71921 0.83315 0.09694 0.0
C537 C 0.70127 0.84518 0.10849 0.0
H538 H 0.72846 0.87256 0.12698 0.0
C539 C 0.70074 0.88542 0.12713 0.0
C540 C 0.70873 0.8947 0.10802 0.0
C541 C 0.70175 0.87604 0.13079 0.0
C542 C 0.72082 0.86498 0.12155 0.0
H543 H 0.6938 0.80735 0.13731 0.0
H544 H 0.69549 0.82539 0.1445 0.0
H545 H 0.72852 0.85508 0.1267 0.0
H546 H 0.72435 0.90157 0.07931 0.0
H547 H 0.72603 0.88507 0.08532 0.0
H548 H 0.69356 0.85495 0.10283 0.0
C549 C 0.70192 0.82481 0.12997 0.0
C550 C 0.72086 0.85498 0.12139 0.0
C551 C 0.70099 0.81446 0.126 0.0
C552 C 0.71804 0.89456 0.09418 0.0
C553 C 0.71902 0.88512 0.09771 0.0
C554 C 0.70123 0.85512 0.10865 0.0
C555 C 0.71088 0.83424 0.1146 0.0
C556 C 0.71105 0.84495 0.11507 0.0
C557 C 0.71073 0.87565 0.11524 0.0
C558 C 0.71097 0.86514 0.11539 0.0
H559 H 0.72463 0.82212 0.07814 0.0
H560 H 0.7262 0.84025 0.08468 0.0
H561 H 0.69362 0.83766 0.10255 0.0
H562 H 0.69354 0.88528 0.13857 0.0
H563 H 0.69534 0.86898 0.14522 0.0
C564 C 0.10576 0.82318 0.10063 0.0
C565 C 0.1055 0.81353 0.11293 0.0
C566 C 0.11523 0.83352 0.10561 0.0
C567 C 0.14515 0.84531 0.11718 0.0
H568 H 0.14549 0.87261 0.13863 0.0
C569 C 0.18615 0.88543 0.13436 0.0
C570 C 0.18726 0.89475 0.11605 0.0
C571 C 0.17578 0.87607 0.13892 0.0
C572 C 0.14551 0.86506 0.13241 0.0
H573 H 0.11468 0.80728 0.14241 0.0
H574 H 0.13102 0.82522 0.15157 0.0
H575 H 0.12791 0.85517 0.13767 0.0
H576 H 0.17826 0.90175 0.08986 0.0
H577 H 0.16013 0.8853 0.09729 0.0
H578 H 0.16262 0.85507 0.1112 0.0
C579 C 0.12405 0.82481 0.13722 0.0
C580 C 0.13545 0.85508 0.13186 0.0
C581 C 0.11465 0.81451 0.13211 0.0
C582 C 0.17768 0.89471 0.1041 0.0
C583 C 0.16728 0.88528 0.10845 0.0
C584 C 0.15515 0.85523 0.11769 0.0
C585 C 0.1246 0.8344 0.12308 0.0
C586 C 0.13517 0.84508 0.12437 0.0
C587 C 0.16625 0.87574 0.125 0.0
C588 C 0.15549 0.86523 0.12543 0.0
H589 H 0.09885 0.82271 0.08576 0.0
H590 H 0.11539 0.84075 0.09429 0.0
H591 H 0.14523 0.83782 0.11036 0.0
H592 H 0.19333 0.88523 0.14434 0.0
H593 H 0.17526 0.86897 0.15261 0.0
C594 C 0.29972 0.11417 0.8873 0.0
C595 C 0.29141 0.10484 0.90532 0.0
C596 C 0.29888 0.12363 0.8832 0.0
C597 C 0.27993 0.13495 0.88938 0.0
H598 H 0.30711 0.16208 0.91045 0.0
C599 C 0.28278 0.17742 0.91615 0.0
C600 C 0.29219 0.18685 0.90268 0.0
C601 C 0.28177 0.16697 0.91288 0.0
C602 C 0.29947 0.15462 0.90395 0.0
H603 H 0.27544 0.09797 0.93163 0.0
H604 H 0.27405 0.11462 0.92494 0.0
H605 H 0.30695 0.14468 0.91104 0.0
H606 H 0.30754 0.19256 0.87314 0.0
H607 H 0.3057 0.17443 0.86707 0.0
H608 H 0.27245 0.14502 0.88289 0.0
C609 C 0.28117 0.11455 0.91368 0.0
C610 C 0.29938 0.14461 0.90427 0.0
C611 C 0.28198 0.10502 0.9176 0.0
C612 C 0.30026 0.18551 0.88426 0.0
C613 C 0.29923 0.17511 0.88093 0.0
C614 C 0.28001 0.14501 0.88912 0.0
C615 C 0.28976 0.12407 0.89727 0.0
C616 C 0.28965 0.13465 0.89674 0.0
C617 C 0.29014 0.16576 0.89605 0.0
C618 C 0.28982 0.15497 0.89617 0.0
H619 H 0.30703 0.11427 0.87706 0.0
H620 H 0.30552 0.13071 0.86959 0.0
H621 H 0.2723 0.12743 0.88331 0.0
H622 H 0.27641 0.17816 0.93048 0.0
H623 H 0.27468 0.15994 0.92492 0.0
C624 C 0.81629 0.11489 0.88561 0.0
C625 C 0.815 0.10577 0.90573 0.0
C626 C 0.82667 0.12427 0.88171 0.0
C627 C 0.85681 0.13551 0.89248 0.0
H628 H 0.85677 0.16293 0.90726 0.0
C629 C 0.8963 0.17807 0.91916 0.0
C630 C 0.89653 0.18742 0.90398 0.0
C631 C 0.88687 0.16763 0.91578 0.0
C632 C 0.85694 0.15538 0.90251 0.0
H633 H 0.82371 0.09917 0.9361 0.0
H634 H 0.84187 0.11568 0.92973 0.0
H635 H 0.83945 0.1456 0.9077 0.0
H636 H 0.88732 0.19298 0.87124 0.0
H637 H 0.87105 0.17484 0.8649 0.0
H638 H 0.87443 0.14543 0.88784 0.0
C639 C 0.83484 0.11551 0.91669 0.0
C640 C 0.84699 0.14542 0.90275 0.0
C641 C 0.82443 0.10606 0.92043 0.0
C642 C 0.88738 0.186 0.88372 0.0
C643 C 0.87801 0.17559 0.88023 0.0
C644 C 0.86683 0.14554 0.89226 0.0
C645 C 0.83602 0.12483 0.89806 0.0
C646 C 0.84676 0.13536 0.89752 0.0
C647 C 0.87751 0.16633 0.89708 0.0
C648 C 0.86699 0.15559 0.89705 0.0
H649 H 0.80924 0.11489 0.87349 0.0
H650 H 0.82732 0.13119 0.86643 0.0
H651 H 0.85691 0.12791 0.88822 0.0
H652 H 0.90322 0.17889 0.93494 0.0
H653 H 0.88674 0.16066 0.92918 0.0
C654 C 0.81493 0.69847 0.88414 0.0
C655 C 0.81404 0.70692 0.90173 0.0
C656 C 0.82518 0.6992 0.87995 0.0
C657 C 0.85545 0.71802 0.88406 0.0
H658 H 0.85544 0.69107 0.90867 0.0
C659 C 0.89524 0.71566 0.91144 0.0
C660 C 0.8952 0.70603 0.90016 0.0
C661 C 0.88576 0.71656 0.9077 0.0
C662 C 0.8556 0.69863 0.90112 0.0
H663 H 0.82333 0.72303 0.92713 0.0
H664 H 0.84128 0.72424 0.92013 0.0
H665 H 0.83822 0.69128 0.90902 0.0
H666 H 0.8854 0.69011 0.87394 0.0
H667 H 0.86902 0.69177 0.86682 0.0
H668 H 0.87294 0.72536 0.87661 0.0
C669 C 0.83402 0.71708 0.90937 0.0
C670 C 0.8457 0.69875 0.90135 0.0
C671 C 0.82373 0.71637 0.91348 0.0
C672 C 0.88568 0.69759 0.88337 0.0
C673 C 0.87625 0.69851 0.87947 0.0
C674 C 0.86541 0.71789 0.8838 0.0
C675 C 0.83482 0.70836 0.89338 0.0
C676 C 0.84547 0.70841 0.89267 0.0
C677 C 0.87606 0.70787 0.89249 0.0
C678 C 0.86558 0.70816 0.89218 0.0
H679 H 0.80766 0.69114 0.87433 0.0
H680 H 0.82553 0.69245 0.86675 0.0
H681 H 0.85555 0.72558 0.87708 0.0
H682 H 0.90244 0.72232 0.9245 0.0
H683 H 0.88588 0.72386 0.91816 0.0
C684 C 0.85426 0.63606 0.46174 0.0
C685 C 0.85536 0.62767 0.44467 0.0
C686 C 0.84391 0.63516 0.46542 0.0
C687 C 0.81367 0.61582 0.45971 0.0
H688 H 0.81321 0.64259 0.43609 0.0
C689 C 0.77365 0.61757 0.42954 0.0
C690 C 0.77335 0.62691 0.44217 0.0
C691 C 0.78322 0.61684 0.4336 0.0
C692 C 0.81319 0.63507 0.44329 0.0
H693 H 0.84634 0.61149 0.41954 0.0
H694 H 0.82825 0.60999 0.42546 0.0
H695 H 0.83065 0.64279 0.43667 0.0
H696 H 0.78264 0.64247 0.471 0.0
H697 H 0.79917 0.64111 0.47842 0.0
H698 H 0.79609 0.6081 0.46567 0.0
C699 C 0.83541 0.61723 0.43634 0.0
C700 C 0.82321 0.63519 0.44367 0.0
C701 C 0.84579 0.61811 0.43284 0.0
C702 C 0.78262 0.63522 0.46051 0.0
C703 C 0.79213 0.63447 0.46462 0.0
C704 C 0.8036 0.6157 0.45926 0.0
C705 C 0.83439 0.62587 0.45189 0.0
C706 C 0.82361 0.62559 0.45205 0.0
C707 C 0.79266 0.62542 0.4504 0.0
C708 C 0.80326 0.62536 0.45122 0.0
H709 H 0.86144 0.64348 0.47158 0.0
H710 H 0.8434 0.64185 0.47833 0.0
H711 H 0.8137 0.6083 0.46647 0.0
H712 H 0.76665 0.61102 0.4153 0.0
H713 H 0.78338 0.60977 0.42223 0.0
C714 C 0.36641 0.14706 0.46151 0.0
C715 C 0.37431 0.14565 0.44224 0.0
C716 C 0.36744 0.15747 0.46468 0.0
C717 C 0.3865 0.18751 0.45429 0.0
H718 H 0.35932 0.18766 0.43522 0.0
C719 C 0.38418 0.2273 0.42588 0.0
C720 C 0.37489 0.22755 0.43933 0.0
C721 C 0.38502 0.21778 0.42965 0.0
C722 C 0.36696 0.18778 0.44118 0.0
H723 H 0.38979 0.15421 0.4127 0.0
H724 H 0.39153 0.17244 0.41796 0.0
H725 H 0.35922 0.17028 0.4359 0.0
H726 H 0.35958 0.21827 0.46937 0.0
H727 H 0.36115 0.20185 0.47652 0.0
H728 H 0.39423 0.20512 0.4592 0.0
C729 C 0.38457 0.16546 0.43081 0.0
C730 C 0.3669 0.1778 0.44155 0.0
C731 C 0.38356 0.15501 0.42771 0.0
C732 C 0.36677 0.21831 0.45824 0.0
C733 C 0.36764 0.20886 0.46217 0.0
C734 C 0.38656 0.19756 0.45397 0.0
C735 C 0.37636 0.16674 0.44853 0.0
C736 C 0.37664 0.17751 0.44832 0.0
C737 C 0.37661 0.20835 0.44705 0.0
C738 C 0.37676 0.19779 0.44763 0.0
H739 H 0.35925 0.14006 0.47346 0.0
H740 H 0.36111 0.15821 0.47923 0.0
H741 H 0.39413 0.18756 0.45972 0.0
H742 H 0.39058 0.23427 0.41116 0.0
H743 H 0.39202 0.21765 0.41757 0.0
C744 C 0.84381 0.22836 0.42633 0.0
C745 C 0.85338 0.22855 0.43927 0.0
C746 C 0.83344 0.21886 0.43032 0.0
C747 C 0.82147 0.18887 0.44088 0.0
H748 H 0.79416 0.18864 0.46126 0.0
C749 C 0.78129 0.14808 0.45986 0.0
C750 C 0.77196 0.14682 0.4412 0.0
C751 C 0.79068 0.15846 0.46355 0.0
C752 C 0.80172 0.18859 0.45531 0.0
H753 H 0.85944 0.21919 0.46869 0.0
H754 H 0.84143 0.20281 0.47616 0.0
H755 H 0.81165 0.20618 0.46083 0.0
H756 H 0.76498 0.1556 0.41337 0.0
H757 H 0.7815 0.17378 0.41944 0.0
H758 H 0.81166 0.1714 0.43487 0.0
C759 C 0.84194 0.20986 0.46206 0.0
C760 C 0.81173 0.19863 0.45506 0.0
C761 C 0.85227 0.21928 0.45794 0.0
C762 C 0.77204 0.15629 0.42788 0.0
C763 C 0.78149 0.16671 0.43145 0.0
C764 C 0.81153 0.17889 0.44115 0.0
C765 C 0.83244 0.20941 0.44742 0.0
C766 C 0.82172 0.19886 0.44803 0.0
C767 C 0.79102 0.16785 0.44849 0.0
C768 C 0.80153 0.1786 0.44856 0.0
H769 H 0.84438 0.23536 0.41182 0.0
H770 H 0.82629 0.21877 0.41861 0.0
H771 H 0.82896 0.18875 0.4344 0.0
H772 H 0.78147 0.14099 0.47091 0.0
H773 H 0.79779 0.15908 0.4776 0.0
C774 C 0.94941 0.5113 0.24948 0.0
C775 C 0.95852 0.5207 0.23457 0.0
C776 C 0.94839 0.50087 0.24552 0.0
C777 C 0.96619 0.4888 0.231 0.0
H778 H 0.93877 0.46122 0.21795 0.0
C779 C 0.96655 0.44845 0.21397 0.0
C780 C 0.95894 0.4394 0.23486 0.0
C781 C 0.96543 0.45774 0.20995 0.0
C782 C 0.94647 0.46886 0.22183 0.0
H783 H 0.97325 0.5264 0.20154 0.0
H784 H 0.97136 0.50829 0.19404 0.0
H785 H 0.93866 0.47868 0.21771 0.0
H786 H 0.94384 0.43283 0.26639 0.0
H787 H 0.94195 0.4492 0.25975 0.0
H788 H 0.97401 0.47911 0.23566 0.0
C789 C 0.96517 0.50897 0.2097 0.0
C790 C 0.94641 0.47885 0.22169 0.0
C791 C 0.96622 0.51936 0.21383 0.0
C792 C 0.94985 0.43966 0.25014 0.0
C793 C 0.94875 0.44903 0.24624 0.0
C794 C 0.96625 0.47887 0.23113 0.0
C795 C 0.95645 0.49965 0.22645 0.0
C796 C 0.9563 0.48894 0.22609 0.0
C797 C 0.9567 0.45829 0.22691 0.0
C798 C 0.95642 0.46878 0.22636 0.0
H799 H 0.94334 0.51206 0.26562 0.0
H800 H 0.94159 0.49386 0.25885 0.0
H801 H 0.97391 0.49638 0.23548 0.0
H802 H 0.97357 0.44847 0.20139 0.0
H803 H 0.97155 0.46463 0.19414 0.0
C804 C 0.5526 0.5193 0.21906 0.0
C805 C 0.56187 0.52043 0.23783 0.0
C806 C 0.54316 0.50897 0.21506 0.0
C807 C 0.53194 0.47877 0.22259 0.0
H808 H 0.50467 0.4787 0.24216 0.0
C809 C 0.48968 0.43907 0.24996 0.0
C810 C 0.48018 0.4389 0.23646 0.0
C811 C 0.50007 0.44855 0.2464 0.0
C812 C 0.51218 0.47856 0.23606 0.0
H813 H 0.56866 0.51147 0.26563 0.0
H814 H 0.55205 0.49339 0.25906 0.0
H815 H 0.52202 0.49602 0.24251 0.0
H816 H 0.47428 0.44831 0.20651 0.0
H817 H 0.49233 0.46468 0.19983 0.0
H818 H 0.52197 0.4612 0.21667 0.0
C819 C 0.55215 0.50052 0.24717 0.0
C820 C 0.52214 0.48852 0.23625 0.0
C821 C 0.56166 0.51089 0.25103 0.0
C822 C 0.48139 0.44819 0.21768 0.0
C823 C 0.49174 0.45762 0.214 0.0
C824 C 0.52191 0.46876 0.2224 0.0
C825 C 0.5427 0.4995 0.22993 0.0
C826 C 0.53215 0.48877 0.22934 0.0
C827 C 0.50117 0.45803 0.22918 0.0
C828 C 0.51191 0.46856 0.22896 0.0
H829 H 0.55252 0.52645 0.20811 0.0
H830 H 0.53612 0.50845 0.20087 0.0
H831 H 0.5395 0.4787 0.21698 0.0
H832 H 0.48904 0.43205 0.26457 0.0
H833 H 0.50716 0.44862 0.25851 0.0
C834 C 0.56088 0.04932 0.24781 0.0
C835 C 0.56105 0.04001 0.23419 0.0
C836 C 0.55141 0.05026 0.24411 0.0
C837 C 0.52142 0.03238 0.23305 0.0
H838 H 0.52133 0.05961 0.21448 0.0
C839 C 0.48071 0.03209 0.21548 0.0
C840 C 0.47954 0.04016 0.23452 0.0
C841 C 0.49105 0.033 0.21157 0.0
C842 C 0.52124 0.05197 0.21993 0.0
H843 H 0.55168 0.02475 0.20385 0.0
H844 H 0.53534 0.02648 0.19691 0.0
H845 H 0.53882 0.05958 0.21441 0.0
H846 H 0.48844 0.05584 0.26285 0.0
H847 H 0.50655 0.05736 0.25641 0.0
H848 H 0.50395 0.02476 0.2391 0.0
C849 C 0.54238 0.03292 0.2113 0.0
C850 C 0.53125 0.05195 0.21989 0.0
C851 C 0.55179 0.03196 0.21513 0.0
C852 C 0.48905 0.04947 0.24804 0.0
C853 C 0.49944 0.05036 0.24426 0.0
C854 C 0.51146 0.0324 0.23309 0.0
C855 C 0.54196 0.04191 0.22661 0.0
C856 C 0.53143 0.04213 0.22626 0.0
C857 C 0.5005 0.04198 0.22678 0.0
C858 C 0.51122 0.04216 0.22634 0.0
H859 H 0.56788 0.05567 0.26264 0.0
H860 H 0.55134 0.05727 0.25633 0.0
H861 H 0.52127 0.02473 0.23902 0.0
H862 H 0.47358 0.02488 0.20429 0.0
H863 H 0.49161 0.02654 0.1972 0.0
C864 C 0.43818 0.94926 0.76581 0.0
C865 C 0.43806 0.9587 0.77835 0.0
C866 C 0.44765 0.94835 0.76992 0.0
C867 C 0.47768 0.96635 0.77961 0.0
H868 H 0.47791 0.93931 0.8005 0.0
C869 C 0.51854 0.96691 0.79623 0.0
C870 C 0.51961 0.95868 0.77782 0.0
C871 C 0.50821 0.96599 0.8006 0.0
C872 C 0.47796 0.9469 0.79441 0.0
H873 H 0.44751 0.97421 0.8073 0.0
H874 H 0.46385 0.97252 0.81499 0.0
H875 H 0.46039 0.9393 0.8006 0.0
H876 H 0.51057 0.94275 0.75116 0.0
H877 H 0.49248 0.94121 0.75836 0.0
H878 H 0.49512 0.97395 0.77283 0.0
C879 C 0.45677 0.96596 0.8011 0.0
C880 C 0.46793 0.9469 0.79447 0.0
C881 C 0.44736 0.96689 0.79685 0.0
C882 C 0.51002 0.94923 0.76547 0.0
C883 C 0.49965 0.94833 0.76969 0.0
C884 C 0.48764 0.96635 0.77955 0.0
C885 C 0.45716 0.95684 0.78675 0.0
C886 C 0.4677 0.95665 0.78724 0.0
C887 C 0.49867 0.95685 0.78645 0.0
C888 C 0.48794 0.95666 0.7871 0.0
H889 H 0.43115 0.94281 0.75142 0.0
H890 H 0.44769 0.94124 0.75845 0.0
H891 H 0.47779 0.97394 0.77297 0.0
H892 H 0.52573 0.97423 0.80652 0.0
H893 H 0.50772 0.97257 0.81443 0.0
C894 C 0.03513 0.55338 0.79807 0.0
C895 C 0.04316 0.56264 0.77899 0.0
C896 C 0.03619 0.54405 0.80235 0.0
C897 C 0.05531 0.53299 0.79427 0.0
H898 H 0.02819 0.50573 0.7738 0.0
C899 C 0.05287 0.49089 0.76402 0.0
C900 C 0.04346 0.48131 0.77658 0.0
C901 C 0.05381 0.50127 0.76868 0.0
C902 C 0.03581 0.51323 0.7802 0.0
H903 H 0.05891 0.56957 0.75115 0.0
H904 H 0.06068 0.55314 0.75819 0.0
H905 H 0.02813 0.52302 0.77437 0.0
H906 H 0.02807 0.4752 0.80625 0.0
H907 H 0.02983 0.49322 0.81498 0.0
H908 H 0.06299 0.52306 0.79952 0.0
C909 C 0.05361 0.55316 0.7701 0.0
C910 C 0.03578 0.52317 0.78052 0.0
C911 C 0.05258 0.56257 0.76598 0.0
C912 C 0.03535 0.48239 0.79574 0.0
C913 C 0.03633 0.49273 0.80059 0.0
C914 C 0.05535 0.52298 0.79397 0.0
C915 C 0.04526 0.54368 0.78743 0.0
C916 C 0.0455 0.53317 0.78772 0.0
C917 C 0.04539 0.50226 0.78614 0.0
C918 C 0.04556 0.51298 0.78709 0.0
H919 H 0.02785 0.55321 0.80891 0.0
H920 H 0.02974 0.53699 0.81664 0.0
H921 H 0.06293 0.54055 0.80004 0.0
H922 H 0.05926 0.49033 0.74913 0.0
H923 H 0.06088 0.50844 0.75712 0.0
C924 C 0.43894 0.4894 0.76151 0.0
C925 C 0.43868 0.47988 0.77514 0.0
C926 C 0.44843 0.49977 0.76542 0.0
C927 C 0.4784 0.51175 0.7773 0.0
H928 H 0.4786 0.53916 0.79526 0.0
C929 C 0.51919 0.55206 0.7953 0.0
C930 C 0.52044 0.5613 0.77606 0.0
C931 C 0.50881 0.54267 0.79911 0.0
C932 C 0.47866 0.53157 0.78999 0.0
H933 H 0.44793 0.47391 0.80571 0.0
H934 H 0.46431 0.49192 0.81306 0.0
H935 H 0.46105 0.52168 0.79508 0.0
H936 H 0.51165 0.56811 0.74723 0.0
H937 H 0.4935 0.55159 0.75349 0.0
H938 H 0.49588 0.52151 0.77169 0.0
C939 C 0.45731 0.49137 0.79848 0.0
C940 C 0.46862 0.52157 0.78988 0.0
C941 C 0.44789 0.48104 0.79443 0.0
C942 C 0.51097 0.56112 0.7622 0.0
C943 C 0.50056 0.55167 0.76589 0.0
C944 C 0.48838 0.52168 0.77741 0.0
C945 C 0.45783 0.50082 0.78315 0.0
C946 C 0.46839 0.51153 0.78371 0.0
C947 C 0.49941 0.54223 0.78359 0.0
C948 C 0.48866 0.53172 0.78393 0.0
H949 H 0.43198 0.48879 0.7465 0.0
H950 H 0.44857 0.50688 0.75317 0.0
H951 H 0.47852 0.50422 0.77149 0.0
H952 H 0.52627 0.55196 0.80675 0.0
H953 H 0.50819 0.53564 0.81366 0.0
C954 C 0.63274 0.85238 0.54962 0.0
C955 C 0.62478 0.85364 0.56911 0.0
C956 C 0.63174 0.84201 0.54565 0.0
C957 C 0.6128 0.81185 0.55539 0.0
H958 H 0.64016 0.81193 0.57333 0.0
C959 C 0.61569 0.77238 0.58438 0.0
C960 C 0.62493 0.77216 0.57033 0.0
C961 C 0.6147 0.78182 0.58042 0.0
C962 C 0.63247 0.81175 0.56768 0.0
H963 H 0.60922 0.84486 0.59809 0.0
H964 H 0.60757 0.8267 0.5916 0.0
H965 H 0.64011 0.82923 0.57293 0.0
H966 H 0.64 0.7814 0.539 0.0
H967 H 0.63819 0.79767 0.53163 0.0
H968 H 0.60517 0.79424 0.55073 0.0
C969 C 0.61453 0.83376 0.57912 0.0
C970 C 0.63244 0.82169 0.56744 0.0
C971 C 0.6155 0.84417 0.58293 0.0
C972 C 0.63285 0.78133 0.55062 0.0
C973 C 0.63184 0.7907 0.54654 0.0
C974 C 0.61283 0.80184 0.55565 0.0
C975 C 0.62282 0.83262 0.56131 0.0
C976 C 0.62264 0.8219 0.5611 0.0
C977 C 0.62293 0.79119 0.56225 0.0
C978 C 0.62269 0.8017 0.56161 0.0
H979 H 0.63992 0.85947 0.53818 0.0
H980 H 0.63813 0.84139 0.53097 0.0
H981 H 0.60512 0.81173 0.55028 0.0
H982 H 0.60944 0.76545 0.59971 0.0
H983 H 0.60776 0.78194 0.59296 0.0
C984 C 0.14797 0.78131 0.54464 0.0
C985 C 0.1469 0.77216 0.56403 0.0
C986 C 0.15829 0.79069 0.53981 0.0
C987 C 0.18853 0.80199 0.54623 0.0
H988 H 0.18858 0.82922 0.56646 0.0
C989 C 0.22821 0.84414 0.57452 0.0
C990 C 0.22831 0.85374 0.5625 0.0
C991 C 0.21877 0.83376 0.57005 0.0
C992 C 0.18873 0.82173 0.56009 0.0
H993 H 0.15595 0.76548 0.59188 0.0
H994 H 0.17404 0.78199 0.58381 0.0
H995 H 0.17129 0.81187 0.56693 0.0
H996 H 0.21888 0.85986 0.53396 0.0
H997 H 0.20258 0.84183 0.52546 0.0
H998 H 0.20608 0.81198 0.5399 0.0
C999 C 0.16686 0.78184 0.57212 0.0
C1000 C 0.17879 0.81176 0.56039 0.0
C1001 C 0.15649 0.7724 0.57684 0.0
C1002 C 0.21903 0.85266 0.544 0.0
C1003 C 0.20965 0.84231 0.53931 0.0
C1004 C 0.19853 0.81203 0.54586 0.0
C1005 C 0.16783 0.79121 0.55443 0.0
C1006 C 0.17853 0.80176 0.55337 0.0
C1007 C 0.20927 0.83277 0.5533 0.0
C1008 C 0.19873 0.82203 0.55269 0.0
H1009 H 0.14077 0.78136 0.53396 0.0
H1010 H 0.15878 0.79766 0.52529 0.0
H1011 H 0.1886 0.79444 0.54055 0.0
H1012 H 0.23523 0.84469 0.58891 0.0
H1013 H 0.21874 0.82659 0.58127 0.0
C1014 C 0.22706 0.38196 0.57968 0.0
C1015 C 0.22716 0.37233 0.56917 0.0
C1016 C 0.21745 0.38264 0.57607 0.0
C1017 C 0.18732 0.36442 0.57161 0.0
H1018 H 0.18684 0.39085 0.54304 0.0
C1019 C 0.14633 0.36371 0.55438 0.0
C1020 C 0.14555 0.37248 0.56986 0.0
C1021 C 0.15656 0.36437 0.5504 0.0
C1022 C 0.18687 0.38343 0.55132 0.0
H1023 H 0.21738 0.35613 0.54471 0.0
H1024 H 0.20076 0.35738 0.53801 0.0
H1025 H 0.20433 0.39081 0.54304 0.0
H1026 H 0.155 0.38906 0.59183 0.0
H1027 H 0.1729 0.39015 0.58529 0.0
H1028 H 0.16998 0.35705 0.58043 0.0
C1029 C 0.20802 0.36431 0.54981 0.0
C1030 C 0.19687 0.38341 0.55132 0.0
C1031 C 0.21759 0.36362 0.55349 0.0
C1032 C 0.15531 0.38214 0.5798 0.0
C1033 C 0.16558 0.38279 0.57594 0.0
C1034 C 0.17737 0.36444 0.57165 0.0
C1035 C 0.20775 0.37371 0.56184 0.0
C1036 C 0.1972 0.37388 0.56133 0.0
C1037 C 0.16629 0.3738 0.56197 0.0
C1038 C 0.17699 0.37392 0.56137 0.0
H1039 H 0.23429 0.38882 0.59186 0.0
H1040 H 0.21751 0.38997 0.58576 0.0
H1041 H 0.1873 0.35701 0.58035 0.0
H1042 H 0.139 0.35619 0.54602 0.0
H1043 H 0.15683 0.35739 0.53875 0.0
C1044 C 0.03799 0.27148 0.0784 0.0
C1045 C 0.04604 0.26942 0.06348 0.0
C1046 C 0.02695 0.26522 0.06741 0.0
C1047 C 0.00686 0.2395 0.01937 0.0
H1048 H 0.99228 0.25619 0.99719 0.0
C1049 C 0.96522 0.23432 0.94206 0.0
C1050 C 0.95717 0.22432 0.95757 0.0
C1051 C 0.97623 0.23926 0.95355 0.0
C1052 C 0.99627 0.25142 1.00287 0.0
H1053 H 0.0487 0.25879 0.02683 0.0
H1054 H 0.02953 0.24793 0.00775 0.0
H1055 H 0.01084 0.2656 0.0228 0.0
H1056 H 0.95446 0.21141 0.99599 0.0
H1057 H 0.97357 0.22 0.01596 0.0
H1058 H 0.99234 0.22536 0.99881 0.0
C1059 C 0.03169 0.25433 0.028 0.0
C1060 C 0.00685 0.25678 0.01813 0.0
C1061 C 0.04271 0.26059 0.03889 0.0
C1062 C 0.96045 0.21911 0.98344 0.0
C1063 C 0.97144 0.22403 0.99485 0.0
C1064 C 0.99626 0.23413 1.00417 0.0
C1065 C 0.02373 0.25675 0.04137 0.0
C1066 C 0.01228 0.2509 0.02657 0.0
C1067 C 0.97941 0.23429 0.98071 0.0
C1068 C 0.99084 0.24003 0.99568 0.0
H1069 H 0.04027 0.27821 0.0974 0.0
H1070 H 0.02098 0.26717 0.07875 0.0
H1071 H 0.01077 0.23471 0.0257 0.0
H1072 H 0.96297 0.23855 0.92207 0.0
H1073 H 0.98221 0.24707 0.94164 0.0
C1074 C 0.78372 0.74133 0.97676 0.0
C1075 C 0.77834 0.7325 0.95212 0.0
C1076 C 0.77881 0.74745 0.98763 0.0
C1077 C 0.75134 0.74471 0.99665 0.0
H1078 H 0.76804 0.77611 0.01655 0.0
C1079 C 0.7423 0.78223 0.03035 0.0
C1080 C 0.73361 0.77692 0.0555 0.0
C1081 C 0.74846 0.77736 0.01947 0.0
C1082 C 0.76324 0.76734 0.01101 0.0
H1083 H 0.76383 0.72355 0.9181 0.0
H1084 H 0.75533 0.73436 0.93661 0.0
H1085 H 0.77731 0.7669 0.99012 0.0
H1086 H 0.72494 0.76257 0.09034 0.0
H1087 H 0.73582 0.75414 0.07176 0.0
H1088 H 0.73723 0.74518 0.01682 0.0
C1089 C 0.76327 0.73642 0.94806 0.0
C1090 C 0.76857 0.76205 0.9961 0.0
C1091 C 0.76819 0.73029 0.93715 0.0
C1092 C 0.73157 0.76688 0.0709 0.0
C1093 C 0.73773 0.76199 0.05995 0.0
C1094 C 0.74601 0.75 0.01157 0.0
C1095 C 0.7684 0.7449 0.97412 0.0
C1096 C 0.76268 0.75066 0.9887 0.0
C1097 C 0.74608 0.76706 0.03346 0.0
C1098 C 0.75189 0.76138 0.01895 0.0
H1099 H 0.79155 0.74326 0.98888 0.0
H1100 H 0.78297 0.75386 0.0079 0.0
H1101 H 0.74657 0.7359 0.99184 0.0
H1102 H 0.74409 0.78997 0.01792 0.0
H1103 H 0.75476 0.78147 0.99884 0.0
C1104 C 0.23774 0.96157 0.05951 0.0
C1105 C 0.22619 0.95499 0.05862 0.0
C1106 C 0.24292 0.97245 0.04684 0.0
C1107 C 0.23727 0.99104 0.98853 0.0
H1108 H 0.26579 0.01343 0.02505 0.0
C1109 C 0.25838 0.03828 0.96045 0.0
C1110 C 0.26942 0.04338 0.94878 0.0
C1111 C 0.2528 0.02717 0.97079 0.0
C1112 C 0.25786 0.00721 0.01445 0.0
H1113 H 0.21099 0.95481 0.04593 0.0
H1114 H 0.21994 0.97396 0.02608 0.0
H1115 H 0.25659 0.99519 0.05298 0.0
H1116 H 0.28317 0.04077 0.93773 0.0
H1117 H 0.27347 0.0214 0.95676 0.0
H1118 H 0.23844 0.00339 0.95113 0.0
C1119 C 0.22508 0.97064 0.03485 0.0
C1120 C 0.25258 0.99672 0.03033 0.0
C1121 C 0.21992 0.95968 0.04673 0.0
C1122 C 0.27463 0.03704 0.94627 0.0
C1123 C 0.26913 0.026 0.95744 0.0
C1124 C 0.24246 0.00162 0.97323 0.0
C1125 C 0.23668 0.9771 0.03366 0.0
C1126 C 0.24221 0.98844 0.01752 0.0
C1127 C 0.25825 0.02104 0.97044 0.0
C1128 C 0.25282 0.00976 0.98591 0.0
H1129 H 0.24279 0.95812 0.0681 0.0
H1130 H 0.25185 0.97703 0.04601 0.0
H1131 H 0.22945 0.98489 0.97715 0.0
H1132 H 0.25417 0.04298 0.96276 0.0
H1133 H 0.24441 0.02353 0.98079 0.0
C1134 C 0.9613 0.74046 0.95927 0.0
C1135 C 0.95673 0.72954 0.94677 0.0
C1136 C 0.97231 0.74637 0.97069 0.0
C1137 C 0.99257 0.74224 0.01612 0.0
H1138 H 0.01463 0.77081 0.97918 0.0
C1139 C 0.03816 0.76306 0.06231 0.0
C1140 C 0.04467 0.7746 0.06077 0.0
C1141 C 0.02724 0.75774 0.04986 0.0
C1142 C 0.00854 0.76295 0.9905 0.0
H1143 H 0.96018 0.71635 0.93546 0.0
H1144 H 0.97936 0.72662 0.95643 0.0
H1145 H 0.99624 0.76143 0.95215 0.0
H1146 H 0.04469 0.78967 0.04738 0.0
H1147 H 0.02547 0.7805 0.02798 0.0
H1148 H 0.00453 0.74384 0.05554 0.0
C1149 C 0.97443 0.73061 0.95688 0.0
C1150 C 0.99804 0.75754 0.97461 0.0
C1151 C 0.9635 0.72479 0.94461 0.0
C1152 C 0.03986 0.78075 0.04868 0.0
C1153 C 0.02887 0.77546 0.03705 0.0
C1154 C 0.00298 0.74775 0.03259 0.0
C1155 C 0.97885 0.74137 0.97063 0.0
C1156 C 0.99001 0.7471 0.98707 0.0
C1157 C 0.02249 0.76385 0.03629 0.0
C1158 C 0.01117 0.75816 0.01988 0.0
H1159 H 0.95626 0.74431 0.96134 0.0
H1160 H 0.97555 0.75466 0.98124 0.0
H1161 H 0.98644 0.73425 0.02654 0.0
H1162 H 0.04169 0.75809 0.07105 0.0
H1163 H 0.02274 0.74881 0.04938 0.0
C1164 C 0.25947 0.21834 0.98081 0.0
C1165 C 0.268 0.22355 0.95507 0.0
C1166 C 0.2534 0.22327 0.99206 0.0
C1167 C 0.25596 0.25069 0.9997 0.0
H1168 H 0.22475 0.23397 0.02257 0.0
C1169 C 0.21859 0.25977 0.03545 0.0
C1170 C 0.22409 0.26866 0.05979 0.0
C1171 C 0.22338 0.25353 0.02465 0.0
C1172 C 0.23346 0.23877 0.01622 0.0
H1173 H 0.27649 0.23778 0.91963 0.0
H1174 H 0.26578 0.24632 0.9389 0.0
H1175 H 0.23385 0.22461 0.99594 0.0
H1176 H 0.23871 0.2776 0.09338 0.0
H1177 H 0.24701 0.26659 0.07494 0.0
H1178 H 0.25555 0.26488 0.0193 0.0
C1179 C 0.26391 0.2385 0.95085 0.0
C1180 C 0.23869 0.23339 1.00117 0.0
C1181 C 0.26998 0.23355 0.93952 0.0
C1182 C 0.23425 0.27081 0.07457 0.0
C1183 C 0.23906 0.26457 0.0637 0.0
C1184 C 0.25073 0.25606 0.01478 0.0
C1185 C 0.25572 0.23354 0.97789 0.0
C1186 C 0.25001 0.23929 0.99269 0.0
C1187 C 0.23381 0.25603 0.03789 0.0
C1188 C 0.23942 0.25018 0.02324 0.0
H1189 H 0.25773 0.21063 0.99338 0.0
H1190 H 0.24721 0.21925 0.01309 0.0
H1191 H 0.26472 0.25547 0.99402 0.0
H1192 H 0.21075 0.25788 0.02349 0.0
H1193 H 0.21912 0.24707 1.00458 0.0
C1194 C 0.76821 0.03702 0.94119 0.0
C1195 C 0.77823 0.04496 0.95692 0.0
C1196 C 0.76323 0.02596 0.95193 0.0
C1197 C 0.75104 0.00564 0.99997 0.0
H1198 H 0.7677 0.99096 0.02084 0.0
C1199 C 0.73105 0.96359 0.07335 0.0
C1200 C 0.73314 0.95562 0.05792 0.0
C1201 C 0.73724 0.97465 0.06269 0.0
C1202 C 0.76292 0.99493 0.01503 0.0
H1203 H 0.79117 0.04739 0.99488 0.0
H1204 H 0.78251 0.02817 0.01355 0.0
H1205 H 0.77708 0.00951 0.99503 0.0
H1206 H 0.74374 0.95312 0.02059 0.0
H1207 H 0.75447 0.97233 1.00206 0.0
H1208 H 0.73685 0.991 0.01932 0.0
C1209 C 0.77849 0.03044 0.99285 0.0
C1210 C 0.76831 0.00559 1.00047 0.0
C1211 C 0.78344 0.04149 0.9822 0.0
C1212 C 0.74191 0.95904 0.03304 0.0
C1213 C 0.7481 0.97009 0.02247 0.0
C1214 C 0.74566 0.99499 0.01458 0.0
C1215 C 0.7682 0.02259 0.97851 0.0
C1216 C 0.76243 0.01108 0.99272 0.0
C1217 C 0.74567 0.97799 0.03648 0.0
C1218 C 0.75153 0.98949 0.0223 0.0
H1219 H 0.76398 0.03942 0.92165 0.0
H1220 H 0.75539 0.02007 0.93988 0.0
H1221 H 0.74629 0.00968 0.99485 0.0
H1222 H 0.72436 0.96122 0.09258 0.0
H1223 H 0.73529 0.98057 0.07449 0.0
C1224 C 0.62604 0.55093 0.31656 0.0
C1225 C 0.62287 0.55596 0.28962 0.0
C1226 C 0.63706 0.55566 0.32734 0.0
C1227 C 0.66573 0.57567 0.30114 0.0
H1228 H 0.67094 0.57801 0.40567 0.0
C1229 C 0.70938 0.59298 0.36077 0.0
C1230 C 0.71242 0.60099 0.38832 0.0
C1231 C 0.69838 0.58664 0.34983 0.0
C1232 C 0.66962 0.57744 0.37643 0.0
H1233 H 0.62892 0.56964 0.25165 0.0
H1234 H 0.64822 0.57787 0.27033 0.0
H1235 H 0.65205 0.56861 0.38244 0.0
H1236 H 0.70619 0.60825 0.42714 0.0
H1237 H 0.68693 0.59709 0.40818 0.0
H1238 H 0.6833 0.58467 0.29514 0.0
C1239 C 0.64214 0.57025 0.2831 0.0
C1240 C 0.6588 0.57196 0.36309 0.0
C1241 C 0.63108 0.56554 0.2724 0.0
C1242 C 0.70412 0.60213 0.40592 0.0
C1243 C 0.69308 0.59573 0.39506 0.0
C1244 C 0.67654 0.58108 0.31448 0.0
C1245 C 0.6452 0.56551 0.31134 0.0
C1246 C 0.65673 0.57105 0.32529 0.0
C1247 C 0.69013 0.58811 0.36627 0.0
C1248 C 0.67861 0.58206 0.35228 0.0
H1249 H 0.61994 0.54352 0.33032 0.0
H1250 H 0.63918 0.55169 0.34869 0.0
H1251 H 0.6644 0.57507 0.2719 0.0
H1252 H 0.71555 0.59184 0.34669 0.0
H1253 H 0.69635 0.58069 0.32803 0.0
C1254 C 0.43305 0.0626 0.2705 0.0
C1255 C 0.44322 0.06484 0.28535 0.0
C1256 C 0.42812 0.06873 0.28145 0.0
C1257 C 0.43343 0.09441 0.32891 0.0
H1258 H 0.40221 0.07743 0.3514 0.0
C1259 C 0.39671 0.0992 0.4058 0.0
C1260 C 0.39849 0.1091 0.38994 0.0
C1261 C 0.40288 0.09436 0.39452 0.0
C1262 C 0.41095 0.08228 0.34563 0.0
H1263 H 0.45647 0.07566 0.32186 0.0
H1264 H 0.44791 0.08628 0.34087 0.0
H1265 H 0.41154 0.06818 0.32611 0.0
H1266 H 0.40853 0.12196 0.35113 0.0
H1267 H 0.41924 0.11354 0.33154 0.0
H1268 H 0.43287 0.10849 0.34905 0.0
C1269 C 0.44373 0.07984 0.32072 0.0
C1270 C 0.41627 0.077 0.33055 0.0
C1271 C 0.44863 0.07371 0.30987 0.0
C1272 C 0.40694 0.11433 0.36394 0.0
C1273 C 0.41312 0.10952 0.35275 0.0
C1274 C 0.42811 0.0997 0.34392 0.0
C1275 C 0.43329 0.07724 0.30736 0.0
C1276 C 0.42758 0.083 0.32201 0.0
C1277 C 0.41099 0.09934 0.36725 0.0
C1278 C 0.4168 0.0937 0.35251 0.0
H1279 H 0.42866 0.05584 0.25156 0.0
H1280 H 0.42016 0.06665 0.27015 0.0
H1281 H 0.44213 0.09929 0.32248 0.0
H1282 H 0.39026 0.09497 0.42589 0.0
H1283 H 0.40117 0.08662 0.40669 0.0
C1284 C 0.88466 0.29332 0.36625 0.0
C1285 C 0.88999 0.28968 0.39034 0.0
C1286 C 0.88967 0.30439 0.3559 0.0
C1287 C 0.91726 0.32888 0.34676 0.0
H1288 H 0.90089 0.34406 0.3294 0.0
C1289 C 0.92686 0.37575 0.31518 0.0
C1290 C 0.93532 0.379 0.28917 0.0
C1291 C 0.92067 0.36474 0.32613 0.0
C1292 C 0.90559 0.33996 0.33423 0.0
H1293 H 0.90454 0.29494 0.42392 0.0
H1294 H 0.91324 0.31433 0.40624 0.0
H1295 H 0.89149 0.32551 0.35523 0.0
H1296 H 0.94355 0.37314 0.25299 0.0
H1297 H 0.93261 0.35385 0.27175 0.0
H1298 H 0.93141 0.34339 0.32639 0.0
C1299 C 0.90525 0.30856 0.39486 0.0
C1300 C 0.90018 0.32929 0.3488 0.0
C1301 C 0.90022 0.29747 0.40529 0.0
C1302 C 0.9371 0.37091 0.27311 0.0
C1303 C 0.93091 0.35987 0.28413 0.0
C1304 C 0.92266 0.33954 0.33215 0.0
C1305 C 0.90015 0.3121 0.36936 0.0
C1306 C 0.90595 0.32362 0.35526 0.0
C1307 C 0.92278 0.3567 0.31136 0.0
C1308 C 0.9169 0.34521 0.32568 0.0
H1309 H 0.87678 0.28753 0.35419 0.0
H1310 H 0.88553 0.3068 0.33604 0.0
H1311 H 0.92193 0.32471 0.35086 0.0
H1312 H 0.92528 0.38177 0.32815 0.0
H1313 H 0.91454 0.36262 0.34733 0.0
C1314 C 0.7075 0.11538 0.36573 0.0
C1315 C 0.71097 0.11009 0.39063 0.0
C1316 C 0.69648 0.11041 0.35476 0.0
C1317 C 0.67185 0.08288 0.34582 0.0
H1318 H 0.657 0.09941 0.32544 0.0
C1319 C 0.62523 0.0735 0.31129 0.0
C1320 C 0.62195 0.06484 0.28608 0.0
C1321 C 0.63623 0.07973 0.32235 0.0
C1322 C 0.66102 0.09466 0.3311 0.0
H1323 H 0.70546 0.09566 0.42495 0.0
H1324 H 0.68614 0.08703 0.4062 0.0
H1325 H 0.67546 0.10879 0.35209 0.0
H1326 H 0.62778 0.05627 0.25132 0.0
H1327 H 0.64706 0.06727 0.27023 0.0
H1328 H 0.65735 0.06871 0.32551 0.0
C1329 C 0.69201 0.09496 0.39467 0.0
C1330 C 0.67163 0.10005 0.34615 0.0
C1331 C 0.70306 0.09995 0.40571 0.0
C1332 C 0.63003 0.06289 0.27081 0.0
C1333 C 0.64106 0.06911 0.28193 0.0
C1334 C 0.66126 0.07749 0.33075 0.0
C1335 C 0.68864 0.10001 0.36839 0.0
C1336 C 0.67718 0.09423 0.35372 0.0
C1337 C 0.64424 0.07744 0.30849 0.0
C1338 C 0.6557 0.08331 0.32319 0.0
H1339 H 0.71338 0.1232 0.35354 0.0
H1340 H 0.69421 0.11451 0.33432 0.0
H1341 H 0.67594 0.07816 0.35077 0.0
H1342 H 0.61922 0.07523 0.32364 0.0
H1343 H 0.63836 0.08601 0.34302 0.0
C1344 C 0.88732 0.59345 0.38663 0.0
C1345 C 0.8936 0.6044 0.3989 0.0
C1346 C 0.89251 0.5876 0.3755 0.0
C1347 C 0.91679 0.59179 0.32976 0.0
H1348 H 0.91111 0.56371 0.36883 0.0
C1349 C 0.942 0.57144 0.28385 0.0
C1350 C 0.9372 0.55994 0.28634 0.0
C1351 C 0.93631 0.57667 0.29625 0.0
C1352 C 0.91264 0.57143 0.35692 0.0
H1353 H 0.91018 0.61772 0.4101 0.0
H1354 H 0.91925 0.60756 0.38958 0.0
H1355 H 0.90194 0.57297 0.39553 0.0
H1356 H 0.92243 0.54481 0.30141 0.0
H1357 H 0.91219 0.55378 0.32071 0.0
H1358 H 0.92705 0.59015 0.29007 0.0
C1359 C 0.91032 0.60349 0.38913 0.0
C1360 C 0.90746 0.57677 0.37262 0.0
C1361 C 0.90513 0.60925 0.40113 0.0
C1362 C 0.92635 0.55371 0.29937 0.0
C1363 C 0.92055 0.5589 0.31094 0.0
C1364 C 0.92177 0.58634 0.31347 0.0
C1365 C 0.90406 0.5927 0.3756 0.0
C1366 C 0.90958 0.58704 0.35937 0.0
C1367 C 0.92557 0.57049 0.31071 0.0
C1368 C 0.91985 0.5761 0.32696 0.0
H1369 H 0.87843 0.58952 0.38452 0.0
H1370 H 0.88753 0.57928 0.36511 0.0
H1371 H 0.91841 0.59965 0.31876 0.0
H1372 H 0.95042 0.57647 0.27437 0.0
H1373 H 0.94058 0.58559 0.29596 0.0
C1374 C 0.434 0.36994 0.27253 0.0
C1375 C 0.44401 0.37798 0.28807 0.0
C1376 C 0.42915 0.3589 0.28343 0.0
C1377 C 0.41719 0.33861 0.3317 0.0
H1378 H 0.43419 0.32431 0.353 0.0
C1379 C 0.39758 0.29663 0.40538 0.0
C1380 C 0.39981 0.28873 0.39015 0.0
C1381 C 0.40369 0.3077 0.39471 0.0
C1382 C 0.42931 0.32817 0.34708 0.0
H1383 H 0.45704 0.38062 0.3259 0.0
H1384 H 0.4486 0.36145 0.34489 0.0
H1385 H 0.44335 0.34282 0.32691 0.0
H1386 H 0.41059 0.28638 0.35321 0.0
H1387 H 0.42117 0.30561 0.33463 0.0
H1388 H 0.40311 0.3239 0.35118 0.0
C1389 C 0.4445 0.36362 0.32419 0.0
C1390 C 0.43458 0.33881 0.33235 0.0
C1391 C 0.44932 0.37464 0.31335 0.0
C1392 C 0.40865 0.29225 0.36551 0.0
C1393 C 0.41475 0.3033 0.35491 0.0
C1394 C 0.41193 0.32798 0.34646 0.0
C1395 C 0.43422 0.35566 0.31003 0.0
C1396 C 0.42858 0.34417 0.32444 0.0
C1397 C 0.41217 0.31112 0.36866 0.0
C1398 C 0.41791 0.32262 0.35434 0.0
H1399 H 0.42969 0.37224 0.25298 0.0
H1400 H 0.42132 0.35293 0.27151 0.0
H1401 H 0.41234 0.34254 0.32647 0.0
H1402 H 0.39084 0.2942 0.42444 0.0
H1403 H 0.40162 0.31356 0.40634 0.0
C1404 C 0.29512 0.90439 0.61862 0.0
C1405 C 0.28864 0.89284 0.61936 0.0
C1406 C 0.30603 0.90966 0.63119 0.0
C1407 C 0.32484 0.90419 0.68904 0.0
H1408 H 0.34696 0.93291 0.65321 0.0
C1409 C 0.37211 0.92591 0.7178 0.0
C1410 C 0.37699 0.93686 0.73018 0.0
C1411 C 0.36103 0.92021 0.70704 0.0
C1412 C 0.34082 0.92492 0.6636 0.0
H1413 H 0.28865 0.87772 0.63163 0.0
H1414 H 0.30784 0.88681 0.65129 0.0
H1415 H 0.32873 0.92355 0.62512 0.0
H1416 H 0.37403 0.95035 0.74194 0.0
H1417 H 0.35472 0.94046 0.72214 0.0
H1418 H 0.33726 0.90548 0.72639 0.0
C1419 C 0.30443 0.8919 0.64273 0.0
C1420 C 0.33033 0.91955 0.64764 0.0
C1421 C 0.29345 0.88664 0.63096 0.0
C1422 C 0.37047 0.94188 0.73285 0.0
C1423 C 0.35946 0.93627 0.72126 0.0
C1424 C 0.33541 0.90948 0.70441 0.0
C1425 C 0.31079 0.9035 0.6441 0.0
C1426 C 0.32214 0.90911 0.66023 0.0
C1427 C 0.35472 0.92546 0.70766 0.0
C1428 C 0.34346 0.91991 0.692 0.0
H1429 H 0.29158 0.90938 0.61026 0.0
H1430 H 0.31052 0.91858 0.63218 0.0
H1431 H 0.31875 0.89632 0.70025 0.0
H1432 H 0.37695 0.92185 0.71535 0.0
H1433 H 0.35755 0.91188 0.69659 0.0
C1434 C 0.07607 0.44818 0.7145 0.0
C1435 C 0.06507 0.44205 0.72623 0.0
C1436 C 0.08176 0.44285 0.70314 0.0
C1437 C 0.07984 0.4151 0.69898 0.0
H1438 H 0.10047 0.42876 0.61905 0.0
C1439 C 0.09658 0.39207 0.61258 0.0
C1440 C 0.1081 0.39687 0.6148 0.0
C1441 C 0.09143 0.39789 0.62443 0.0
C1442 C 0.09473 0.42488 0.64137 0.0
H1443 H 0.05147 0.42557 0.73615 0.0
H1444 H 0.06113 0.41623 0.71496 0.0
H1445 H 0.09143 0.43817 0.64559 0.0
H1446 H 0.12332 0.41173 0.62902 0.0
H1447 H 0.11431 0.42207 0.64823 0.0
H1448 H 0.08288 0.40159 0.6933 0.0
C1449 C 0.06559 0.42516 0.71552 0.0
C1450 C 0.08962 0.43031 0.65697 0.0
C1451 C 0.06 0.43051 0.72769 0.0
C1452 C 0.11442 0.40784 0.62691 0.0
C1453 C 0.10929 0.41375 0.63793 0.0
C1454 C 0.08477 0.40959 0.68279 0.0
C1455 C 0.07649 0.43124 0.7023 0.0
C1456 C 0.08212 0.42553 0.68617 0.0
C1457 C 0.09774 0.4087 0.63785 0.0
C1458 C 0.09227 0.41444 0.65394 0.0
H1459 H 0.08021 0.4571 0.71326 0.0
H1460 H 0.09024 0.44787 0.69434 0.0
H1461 H 0.07433 0.41121 0.72179 0.0
H1462 H 0.09149 0.3836 0.60372 0.0
H1463 H 0.08251 0.39387 0.62395 0.0
C1464 C 0.56684 0.63016 0.73975 0.0
C1465 C 0.5568 0.62215 0.72434 0.0
C1466 C 0.57171 0.64121 0.72888 0.0
C1467 C 0.56626 0.66136 0.68061 0.0
H1468 H 0.59768 0.67619 0.66083 0.0
C1469 C 0.60308 0.70346 0.60675 0.0
C1470 C 0.60094 0.71139 0.62226 0.0
C1471 C 0.597 0.6924 0.61757 0.0
C1472 C 0.58888 0.67213 0.66583 0.0
H1473 H 0.54372 0.61956 0.6868 0.0
H1474 H 0.55218 0.63874 0.6679 0.0
H1475 H 0.58845 0.65753 0.68549 0.0
H1476 H 0.59036 0.71381 0.65993 0.0
H1477 H 0.57983 0.6946 0.67875 0.0
H1478 H 0.56667 0.67591 0.66031 0.0
C1479 C 0.5563 0.63654 0.68846 0.0
C1480 C 0.58362 0.66149 0.68055 0.0
C1481 C 0.55146 0.62551 0.69924 0.0
C1482 C 0.59223 0.70792 0.64741 0.0
C1483 C 0.58615 0.69688 0.65815 0.0
C1484 C 0.57153 0.67202 0.66594 0.0
C1485 C 0.56661 0.64448 0.70248 0.0
C1486 C 0.57225 0.65597 0.68813 0.0
C1487 C 0.58863 0.68903 0.64403 0.0
C1488 C 0.5829 0.67753 0.65834 0.0
H1489 H 0.57117 0.62784 0.75915 0.0
H1490 H 0.57956 0.64715 0.74069 0.0
H1491 H 0.5575 0.65738 0.6863 0.0
H1492 H 0.60972 0.70586 0.58731 0.0
H1493 H 0.59899 0.68653 0.60569 0.0
C1494 C 0.36971 0.4336 0.73787 0.0
C1495 C 0.37774 0.44368 0.72275 0.0
C1496 C 0.35869 0.4287 0.72659 0.0
C1497 C 0.33857 0.41673 0.67756 0.0
H1498 H 0.32407 0.43352 0.65601 0.0
C1499 C 0.29678 0.39688 0.6025 0.0
C1500 C 0.28876 0.39896 0.61754 0.0
C1501 C 0.30782 0.40308 0.61348 0.0
C1502 C 0.32798 0.4287 0.662 0.0
H1503 H 0.38036 0.45678 0.6853 0.0
H1504 H 0.36123 0.44826 0.66566 0.0
H1505 H 0.3425 0.44278 0.68283 0.0
H1506 H 0.28617 0.40959 0.65442 0.0
H1507 H 0.30534 0.42034 0.67353 0.0
H1508 H 0.32399 0.40261 0.65744 0.0
C1509 C 0.3634 0.44414 0.68633 0.0
C1510 C 0.33858 0.43402 0.67715 0.0
C1511 C 0.3744 0.44902 0.69754 0.0
C1512 C 0.29213 0.40776 0.64226 0.0
C1513 C 0.30315 0.41396 0.65318 0.0
C1514 C 0.32798 0.41141 0.66239 0.0
C1515 C 0.35545 0.43379 0.70003 0.0
C1516 C 0.34401 0.4281 0.68516 0.0
C1517 C 0.31109 0.41152 0.63966 0.0
C1518 C 0.32255 0.41732 0.65441 0.0
H1519 H 0.372 0.42928 0.75735 0.0
H1520 H 0.35274 0.42082 0.7382 0.0
H1521 H 0.34256 0.41193 0.68285 0.0
H1522 H 0.29447 0.39016 0.58339 0.0
H1523 H 0.31377 0.40112 0.60201 0.0
C1524 C 0.59203 0.8864 0.63092 0.0
C1525 C 0.60294 0.89266 0.61851 0.0
C1526 C 0.58618 0.89157 0.64219 0.0
C1527 C 0.5874 0.919 0.64498 0.0
H1528 H 0.56722 0.9054 0.72607 0.0
C1529 C 0.57013 0.94161 0.73139 0.0
C1530 C 0.55858 0.93659 0.72927 0.0
C1531 C 0.57547 0.93597 0.71952 0.0
C1532 C 0.57284 0.90927 0.70343 0.0
H1533 H 0.61623 0.90922 0.6073 0.0
H1534 H 0.6063 0.91829 0.62837 0.0
H1535 H 0.57653 0.89624 0.69976 0.0
H1536 H 0.54353 0.92155 0.71517 0.0
H1537 H 0.55288 0.91153 0.69597 0.0
H1538 H 0.58397 0.93227 0.65013 0.0
C1539 C 0.60202 0.90937 0.62841 0.0
C1540 C 0.5781 0.90398 0.68796 0.0
C1541 C 0.60777 0.90417 0.6163 0.0
C1542 C 0.55244 0.9256 0.71719 0.0
C1543 C 0.55777 0.91988 0.70618 0.0
C1544 C 0.58232 0.9244 0.66104 0.0
C1545 C 0.59121 0.90316 0.64229 0.0
C1546 C 0.58543 0.90873 0.65833 0.0
C1547 C 0.56933 0.92513 0.70623 0.0
C1548 C 0.57498 0.91956 0.6903 0.0
H1549 H 0.58809 0.87749 0.63273 0.0
H1550 H 0.57778 0.88644 0.65151 0.0
H1551 H 0.59277 0.92287 0.62185 0.0
H1552 H 0.57508 0.9501 0.74022 0.0
H1553 H 0.5844 0.94015 0.71995 0.0
C1554 C 0.07543 0.62828 0.71717 0.0
C1555 C 0.06445 0.62344 0.72932 0.0
C1556 C 0.08111 0.63931 0.70591 0.0
C1557 C 0.07647 0.65922 0.6604 0.0
H1558 H 0.10471 0.68166 0.6985 0.0
C1559 C 0.09665 0.7048 0.61463 0.0
C1560 C 0.10817 0.71148 0.6166 0.0
C1561 C 0.09146 0.69388 0.62703 0.0
C1562 C 0.09694 0.67547 0.68686 0.0
H1563 H 0.05091 0.62638 0.7401 0.0
H1564 H 0.06078 0.6456 0.71938 0.0
H1565 H 0.09559 0.66324 0.72517 0.0
H1566 H 0.12335 0.7118 0.6307 0.0
H1567 H 0.11443 0.6926 0.64999 0.0
H1568 H 0.07792 0.67112 0.62101 0.0
C1569 C 0.06499 0.64088 0.7191 0.0
C1570 C 0.09168 0.66495 0.70254 0.0
C1571 C 0.05939 0.62993 0.73122 0.0
C1572 C 0.11445 0.70685 0.62907 0.0
C1573 C 0.10929 0.69586 0.64064 0.0
C1574 C 0.08184 0.66966 0.64413 0.0
C1575 C 0.07582 0.64559 0.70577 0.0
C1576 C 0.08136 0.65678 0.68964 0.0
C1577 C 0.09769 0.68931 0.64096 0.0
C1578 C 0.09213 0.67799 0.65725 0.0
H1579 H 0.07951 0.62346 0.71531 0.0
H1580 H 0.08946 0.64277 0.69567 0.0
H1581 H 0.06857 0.65297 0.64964 0.0
H1582 H 0.09159 0.70819 0.60558 0.0
H1583 H 0.08254 0.68924 0.62715 0.0
C1584 C 0.10671 0.35999 0.73064 0.0
C1585 C 0.10284 0.35331 0.69928 0.0
C1586 C 0.10343 0.35542 0.7654 0.0
C1587 C 0.09331 0.32929 0.81452 0.0
H1588 H 0.08689 0.34424 0.89167 0.0
C1589 C 0.07916 0.30957 0.95587 0.0
C1590 C 0.08384 0.3164 0.98654 0.0
C1591 C 0.08053 0.31408 0.92104 0.0
C1592 C 0.08876 0.34002 0.87051 0.0
H1593 H 0.09228 0.33658 0.67996 0.0
H1594 H 0.08654 0.32858 0.74082 0.0
H1595 H 0.09083 0.35197 0.83009 0.0
H1596 H 0.09337 0.33338 1.00469 0.0
H1597 H 0.09595 0.34131 0.94353 0.0
H1598 H 0.09147 0.31746 0.85483 0.0
C1599 C 0.0922 0.33737 0.73838 0.0
C1600 C 0.091 0.34443 0.83522 0.0
C1601 C 0.09545 0.34196 0.70352 0.0
C1602 C 0.08965 0.3279 0.98164 0.0
C1603 C 0.09109 0.33243 0.9466 0.0
C1604 C 0.09112 0.32491 0.84976 0.0
C1605 C 0.09623 0.34404 0.76972 0.0
C1606 C 0.09334 0.33913 0.80686 0.0
C1607 C 0.08669 0.32555 0.91581 0.0
C1608 C 0.08884 0.33022 0.87824 0.0
H1609 H 0.1124 0.36878 0.72843 0.0
H1610 H 0.10679 0.36077 0.78895 0.0
H1611 H 0.09529 0.32511 0.79348 0.0
H1612 H 0.0745 0.30067 0.95867 0.0
H1613 H 0.07681 0.30855 0.8981 0.0
C1614 C 0.67522 0.76347 0.97586 0.0
C1615 C 0.68673 0.76953 0.98038 0.0
C1616 C 0.67059 0.76049 0.94088 0.0
C1617 C 0.67734 0.76877 0.84425 0.0
H1618 H 0.65142 0.74046 0.82413 0.0
C1619 C 0.65964 0.75599 0.69831 0.0
C1620 C 0.64812 0.75106 0.69517 0.0
C1621 C 0.6646 0.75756 0.7327 0.0
C1622 C 0.65862 0.74843 0.82937 0.0
H1623 H 0.7024 0.77682 0.95165 0.0
H1624 H 0.69436 0.77151 0.89119 0.0
H1625 H 0.65941 0.74442 0.88533 0.0
H1626 H 0.63278 0.74371 0.72581 0.0
H1627 H 0.6414 0.74653 0.78532 0.0
H1628 H 0.67651 0.77284 0.78849 0.0
C1629 C 0.68889 0.76926 0.91446 0.0
C1630 C 0.66318 0.75071 0.86446 0.0
C1631 C 0.69349 0.77226 0.94926 0.0
C1632 C 0.64168 0.74755 0.7271 0.0
C1633 C 0.64662 0.74909 0.76133 0.0
C1634 C 0.67279 0.7665 0.8092 0.0
C1635 C 0.67739 0.76349 0.90974 0.0
C1636 C 0.67257 0.76092 0.87236 0.0
C1637 C 0.65814 0.75419 0.76462 0.0
C1638 C 0.66333 0.75633 0.80138 0.0
H1639 H 0.66978 0.76125 0.99923 0.0
H1640 H 0.66169 0.7561 0.93818 0.0
H1641 H 0.68447 0.77679 0.84951 0.0
H1642 H 0.66484 0.75877 0.6743 0.0
H1643 H 0.6735 0.76142 0.73429 0.0
C1644 C 0.22068 0.91072 0.95319 0.0
C1645 C 0.22804 0.91321 0.98254 0.0
C1646 C 0.22333 0.90864 0.91849 0.0
C1647 C 0.24589 0.91435 0.85738 0.0
H1648 H 0.22488 0.88721 0.80881 0.0
C1649 C 0.24738 0.90455 0.70291 0.0
C1650 C 0.24691 0.89441 0.69653 0.0
C1651 C 0.24552 0.90727 0.73802 0.0
C1652 C 0.23081 0.89483 0.82205 0.0
H1653 H 0.24404 0.91565 0.99834 0.0
H1654 H 0.2488 0.91225 0.93697 0.0
H1655 H 0.22095 0.89112 0.87036 0.0
H1656 H 0.244 0.87916 0.72183 0.0
H1657 H 0.24046 0.88381 0.78254 0.0
H1658 H 0.25565 0.91812 0.80859 0.0
C1659 C 0.24094 0.91183 0.94123 0.0
C1660 C 0.22855 0.89706 0.85715 0.0
C1661 C 0.23819 0.9137 0.97629 0.0
C1662 C 0.24446 0.88705 0.72582 0.0
C1663 C 0.24239 0.88968 0.76057 0.0
C1664 C 0.24805 0.91221 0.82188 0.0
C1665 C 0.23348 0.90919 0.91213 0.0
C1666 C 0.23609 0.90682 0.8752 0.0
C1667 C 0.24292 0.89981 0.76705 0.0
C1668 C 0.24054 0.90239 0.80402 0.0
H1669 H 0.21278 0.91024 0.95708 0.0
H1670 H 0.21747 0.90668 0.89647 0.0
H1671 H 0.25178 0.92196 0.87069 0.0
H1672 H 0.2493 0.9104 0.68092 0.0
H1673 H 0.24592 0.91512 0.74237 0.0
C1674 C 0.30497 0.07946 0.06677 0.0
C1675 C 0.3119 0.08279 0.03597 0.0
C1676 C 0.30932 0.08068 0.10184 0.0
C1677 C 0.33404 0.08503 0.15281 0.0
H1678 H 0.32254 0.09597 0.22835 0.0
C1679 C 0.35653 0.10276 0.28911 0.0
C1680 C 0.35025 0.10057 0.32119 0.0
C1681 C 0.35141 0.0994 0.25515 0.0
C1682 C 0.32573 0.09274 0.20775 0.0
H1683 H 0.32887 0.08988 0.018 0.0
H1684 H 0.33652 0.09214 0.07943 0.0
H1685 H 0.31465 0.09259 0.16725 0.0
H1686 H 0.33359 0.09287 0.34267 0.0
H1687 H 0.3246 0.08696 0.28308 0.0
H1688 H 0.34525 0.08537 0.19329 0.0
C1689 C 0.32767 0.08846 0.07632 0.0
C1690 C 0.32121 0.09081 0.17267 0.0
C1691 C 0.3233 0.08722 0.04111 0.0
C1692 C 0.33868 0.0947 0.31852 0.0
C1693 C 0.33353 0.09138 0.28438 0.0
C1694 C 0.33857 0.08697 0.18791 0.0
C1695 C 0.32074 0.08529 0.10712 0.0
C1696 C 0.32537 0.08702 0.14468 0.0
C1697 C 0.33986 0.09379 0.25228 0.0
C1698 C 0.33453 0.09094 0.21571 0.0
H1699 H 0.29613 0.07593 0.06389 0.0
H1700 H 0.30372 0.07797 0.12487 0.0
H1701 H 0.33731 0.08193 0.13207 0.0
H1702 H 0.36547 0.10723 0.29008 0.0
H1703 H 0.35653 0.10151 0.23099 0.0
C1704 C 0.90345 0.24559 0.3071 0.0
C1705 C 0.89686 0.25047 0.31177 0.0
C1706 C 0.90658 0.24418 0.27206 0.0
C1707 C 0.89813 0.2422 0.17542 0.0
H1708 H 0.92723 0.24654 0.15542 0.0
C1709 C 0.91162 0.23815 0.02961 0.0
C1710 C 0.91711 0.23208 0.02672 0.0
C1711 C 0.90982 0.24142 0.06389 0.0
C1712 C 0.91905 0.24523 0.16063 0.0
H1713 H 0.8887 0.25802 0.28321 0.0
H1714 H 0.89424 0.25568 0.22262 0.0
H1715 H 0.92284 0.25011 0.21661 0.0
H1716 H 0.92527 0.22495 0.05763 0.0
H1717 H 0.92207 0.23055 0.11693 0.0
H1718 H 0.89428 0.2372 0.11962 0.0
C1719 C 0.89682 0.25274 0.24585 0.0
C1720 C 0.91652 0.24725 0.19571 0.0
C1721 C 0.89369 0.25413 0.28071 0.0
C1722 C 0.92098 0.2296 0.05875 0.0
C1723 C 0.91923 0.23289 0.09285 0.0
C1724 C 0.90065 0.24018 0.14037 0.0
C1725 C 0.90319 0.24764 0.241 0.0
C1726 C 0.90601 0.2457 0.20358 0.0
C1727 C 0.91353 0.23874 0.09592 0.0
C1728 C 0.91111 0.24159 0.1326 0.0
H1729 H 0.90603 0.24268 0.33042 0.0
H1730 H 0.91142 0.24014 0.26926 0.0
H1731 H 0.88989 0.24075 0.18065 0.0
H1732 H 0.90855 0.24022 1.00551 0.0
H1733 H 0.90551 0.24603 0.06532 0.0
C1734 C 0.75643 0.66043 0.31334 0.0
C1735 C 0.7513 0.6489 0.31685 0.0
C1736 C 0.75808 0.66529 0.27878 0.0
C1737 C 0.74897 0.6592 0.18209 0.0
H1738 H 0.7778 0.68431 0.16158 0.0
C1739 C 0.76437 0.67483 0.03517 0.0
C1740 C 0.7708 0.6863 0.03013 0.0
C1741 C 0.76128 0.6704 0.07035 0.0
C1742 C 0.76965 0.6774 0.16693 0.0
H1743 H 0.74359 0.63345 0.28673 0.0
H1744 H 0.74652 0.64191 0.22692 0.0
H1745 H 0.77355 0.67663 0.22293 0.0
H1746 H 0.77866 0.70211 0.05812 0.0
H1747 H 0.77316 0.69442 0.11891 0.0
H1748 H 0.74511 0.65991 0.12591 0.0
C1749 C 0.74921 0.6472 0.25074 0.0
C1750 C 0.76721 0.67301 0.20216 0.0
C1751 C 0.7476 0.64236 0.28513 0.0
C1752 C 0.77381 0.69322 0.06092 0.0
C1753 C 0.77071 0.68881 0.09591 0.0
C1754 C 0.7514 0.6636 0.14681 0.0
C1755 C 0.75457 0.65872 0.24707 0.0
C1756 C 0.75687 0.66381 0.21013 0.0
C1757 C 0.76453 0.67735 0.10116 0.0
C1758 C 0.76179 0.67272 0.13875 0.0
H1759 H 0.75935 0.6657 0.33719 0.0
H1760 H 0.76213 0.67419 0.27687 0.0
H1761 H 0.74087 0.65219 0.18743 0.0
H1762 H 0.76192 0.66927 0.01206 0.0
H1763 H 0.75659 0.66152 0.07345 0.0
C1764 C 0.92147 0.69256 0.06039 0.0
C1765 C 0.91754 0.68564 0.02959 0.0
C1766 C 0.92 0.68812 0.0954 0.0
C1767 C 0.91322 0.6626 0.14636 0.0
H1768 H 0.90472 0.67624 0.22221 0.0
C1769 C 0.89518 0.64178 0.28503 0.0
C1770 C 0.89849 0.64841 0.31658 0.0
C1771 C 0.89845 0.64651 0.25047 0.0
C1772 C 0.90725 0.67243 0.2015 0.0
H1773 H 0.90918 0.66861 0.01148 0.0
H1774 H 0.90643 0.66082 0.07284 0.0
H1775 H 0.90848 0.68395 0.1609 0.0
H1776 H 0.90804 0.66522 0.33646 0.0
H1777 H 0.91375 0.67349 0.2759 0.0
H1778 H 0.91176 0.65095 0.18703 0.0
C1779 C 0.91079 0.66971 0.06979 0.0
C1780 C 0.9094 0.67685 0.16629 0.0
C1781 C 0.91231 0.67416 0.03462 0.0
C1782 C 0.90532 0.65988 0.31274 0.0
C1783 C 0.90854 0.66462 0.27805 0.0
C1784 C 0.91102 0.65816 0.1816 0.0
C1785 C 0.9145 0.67664 0.10064 0.0
C1786 C 0.91239 0.67198 0.13823 0.0
C1787 C 0.90507 0.65799 0.24652 0.0
C1788 C 0.90796 0.663 0.20952 0.0
H1789 H 0.92565 0.70145 0.05755 0.0
H1790 H 0.92318 0.69371 0.11841 0.0
H1791 H 0.91566 0.65874 0.12558 0.0
H1792 H 0.88994 0.63291 0.28693 0.0
H1793 H 0.89552 0.64118 0.22674 0.0
C1794 C 0.30896 0.2285 0.05817 0.0
C1795 C 0.31544 0.23126 0.02634 0.0
C1796 C 0.31388 0.23178 0.09247 0.0
C1797 C 0.33979 0.23965 0.14074 0.0
H1798 H 0.32677 0.24872 0.21704 0.0
C1799 C 0.36027 0.25364 0.2816 0.0
C1800 C 0.35341 0.24971 0.31252 0.0
C1801 C 0.35578 0.25225 0.24669 0.0
C1802 C 0.33045 0.2461 0.19613 0.0
H1803 H 0.3322 0.23987 0.00572 0.0
H1804 H 0.34082 0.24565 0.06588 0.0
H1805 H 0.31895 0.24512 0.15562 0.0
H1806 H 0.3364 0.24144 0.33087 0.0
H1807 H 0.32852 0.23889 0.2696 0.0
H1808 H 0.3512 0.24049 0.18121 0.0
C1809 C 0.33191 0.24084 0.06414 0.0
C1810 C 0.32598 0.24406 0.1609 0.0
C1811 C 0.32698 0.23758 0.02966 0.0
C1812 C 0.34192 0.24456 0.30767 0.0
C1813 C 0.33741 0.24315 0.27256 0.0
C1814 C 0.34425 0.24168 0.17591 0.0
C1815 C 0.32541 0.23789 0.09597 0.0
C1816 C 0.33056 0.24074 0.13284 0.0
C1817 C 0.3443 0.24686 0.24163 0.0
C1818 C 0.3396 0.24488 0.2041 0.0
H1819 H 0.30004 0.22365 0.05673 0.0
H1820 H 0.30862 0.22923 0.11637 0.0
H1821 H 0.3434 0.23692 0.11998 0.0
H1822 H 0.36916 0.25774 0.28424 0.0
H1823 H 0.36134 0.2554 0.22359 0.0
C1824 C 0.77338 0.08095 0.06171 0.0
C1825 C 0.77053 0.08454 0.02977 0.0
C1826 C 0.76996 0.08248 0.09591 0.0
C1827 C 0.76136 0.10001 0.14377 0.0
H1828 H 0.7525 0.07788 0.2198 0.0
C1829 C 0.74653 0.10586 0.28389 0.0
C1830 C 0.75053 0.10308 0.31497 0.0
C1831 C 0.74811 0.10286 0.24907 0.0
C1832 C 0.75505 0.08418 0.19896 0.0
H1833 H 0.76163 0.09236 0.00885 0.0
H1834 H 0.7556 0.095 0.0688 0.0
H1835 H 0.75648 0.07389 0.15859 0.0
H1836 H 0.75911 0.0947 0.33375 0.0
H1837 H 0.76199 0.08953 0.27266 0.0
H1838 H 0.76007 0.11035 0.18412 0.0
C1839 C 0.76059 0.09109 0.06723 0.0
C1840 C 0.75731 0.08189 0.16386 0.0
C1841 C 0.76399 0.08952 0.03287 0.0
C1842 C 0.75592 0.09697 0.3104 0.0
C1843 C 0.75753 0.09397 0.2754 0.0
C1844 C 0.7591 0.1023 0.17882 0.0
C1845 C 0.76361 0.08765 0.09916 0.0
C1846 C 0.76056 0.08981 0.13591 0.0
C1847 C 0.75376 0.09702 0.2443 0.0
C1848 C 0.75597 0.09443 0.2069 0.0
H1849 H 0.77839 0.07705 0.06044 0.0
H1850 H 0.77256 0.07987 0.11991 0.0
H1851 H 0.76403 0.10636 0.12309 0.0
H1852 H 0.74223 0.11047 0.28632 0.0
H1853 H 0.74491 0.10515 0.22581 0.0
C1854 C 0.64093 0.89334 0.72941 0.0
C1855 C 0.64745 0.89672 0.69764 0.0
C1856 C 0.64577 0.89652 0.76387 0.0
C1857 C 0.67199 0.90553 0.81176 0.0
H1858 H 0.65823 0.91338 0.88908 0.0
C1859 C 0.69275 0.92032 0.95172 0.0
C1860 C 0.68607 0.91609 0.98292 0.0
C1861 C 0.68806 0.91871 0.91707 0.0
C1862 C 0.66211 0.9111 0.86788 0.0
H1863 H 0.6642 0.90629 0.67729 0.0
H1864 H 0.67267 0.91189 0.73764 0.0
H1865 H 0.6502 0.90945 0.82793 0.0
H1866 H 0.66916 0.90706 1.00211 0.0
H1867 H 0.66093 0.90411 0.94129 0.0
H1868 H 0.68381 0.90703 0.85164 0.0
C1869 C 0.66379 0.90667 0.73576 0.0
C1870 C 0.65753 0.90887 0.83282 0.0
C1871 C 0.65894 0.90351 0.70118 0.0
C1872 C 0.67454 0.91043 0.97866 0.0
C1873 C 0.66983 0.90878 0.94382 0.0
C1874 C 0.67656 0.90774 0.84677 0.0
C1875 C 0.65726 0.90315 0.76751 0.0
C1876 C 0.66239 0.90602 0.80439 0.0
C1877 C 0.67655 0.91278 0.91257 0.0
C1878 C 0.67167 0.91053 0.8753 0.0
H1879 H 0.63205 0.88811 0.72779 0.0
H1880 H 0.64051 0.89354 0.78773 0.0
H1881 H 0.67583 0.90316 0.79068 0.0
H1882 H 0.70167 0.92483 0.95394 0.0
H1883 H 0.69348 0.9221 0.89372 0.0
C1884 C 0.10744 0.74881 0.72634 0.0
C1885 C 0.10429 0.75216 0.69453 0.0
C1886 C 0.10433 0.75058 0.76074 0.0
C1887 C 0.09622 0.76843 0.80881 0.0
H1888 H 0.08701 0.74634 0.88506 0.0
C1889 C 0.08165 0.77476 0.94892 0.0
C1890 C 0.08522 0.77156 0.98008 0.0
C1891 C 0.08331 0.77183 0.91407 0.0
C1892 C 0.08968 0.75264 0.86419 0.0
H1893 H 0.09522 0.75987 0.67405 0.0
H1894 H 0.08977 0.76297 0.73434 0.0
H1895 H 0.09088 0.74218 0.82395 0.0
H1896 H 0.09321 0.76259 0.99896 0.0
H1897 H 0.09628 0.75761 0.93791 0.0
H1898 H 0.09522 0.77897 0.84901 0.0
C1899 C 0.09473 0.75903 0.73251 0.0
C1900 C 0.09187 0.75024 0.82915 0.0
C1901 C 0.09781 0.7572 0.69797 0.0
C1902 C 0.09034 0.76518 0.97554 0.0
C1903 C 0.09205 0.76228 0.94055 0.0
C1904 C 0.09408 0.77084 0.84384 0.0
C1905 C 0.09802 0.75579 0.76428 0.0
C1906 C 0.0952 0.75813 0.8011 0.0
C1907 C 0.08864 0.76566 0.90937 0.0
C1908 C 0.0908 0.76299 0.87201 0.0
H1909 H 0.11242 0.74489 0.72476 0.0
H1910 H 0.1071 0.7481 0.78466 0.0
H1911 H 0.09896 0.77475 0.78799 0.0
H1912 H 0.07758 0.77958 0.95135 0.0
H1913 H 0.08037 0.77438 0.89077 0.0
C1914 C 0.23019 0.30815 0.9504 0.0
C1915 C 0.23289 0.3151 0.98105 0.0
C1916 C 0.23331 0.31256 0.91542 0.0
C1917 C 0.25192 0.33806 0.86427 0.0
H1918 H 0.22988 0.32416 0.78822 0.0
C1919 C 0.25446 0.35878 0.7257 0.0
C1920 C 0.25105 0.35218 0.6941 0.0
C1921 C 0.25314 0.35404 0.76017 0.0
C1922 C 0.23619 0.32804 0.80897 0.0
H1923 H 0.24127 0.33215 0.99894 0.0
H1924 H 0.2466 0.33988 0.93755 0.0
H1925 H 0.22595 0.31651 0.84959 0.0
H1926 H 0.24385 0.3354 0.67401 0.0
H1927 H 0.24156 0.3271 0.73442 0.0
H1928 H 0.26208 0.34973 0.82359 0.0
C1929 C 0.24216 0.331 0.94074 0.0
C1930 C 0.23394 0.32366 0.84422 0.0
C1931 C 0.23907 0.32658 0.97592 0.0
C1932 C 0.24652 0.34072 0.69777 0.0
C1933 C 0.24516 0.33596 0.73239 0.0
C1934 C 0.25416 0.34247 0.82898 0.0
C1935 C 0.23916 0.32403 0.91002 0.0
C1936 C 0.24175 0.32863 0.87237 0.0
C1937 C 0.24836 0.34257 0.764 0.0
C1938 C 0.24629 0.33754 0.80097 0.0
H1939 H 0.22555 0.29926 0.95333 0.0
H1940 H 0.23108 0.30694 0.89251 0.0
H1941 H 0.25818 0.34201 0.88515 0.0
H1942 H 0.25801 0.36765 0.72395 0.0
H1943 H 0.25558 0.35936 0.78394 0.0
C1944 C 0.0105 0.43245 0.63883 0.0
C1945 C 0.02193 0.43933 0.64371 0.0
C1946 C 0.00602 0.42948 0.60368 0.0
C1947 C 0.01228 0.43852 0.5074 0.0
H1948 H 0.98818 0.40911 0.48635 0.0
C1949 C 0.99491 0.42503 0.36129 0.0
C1950 C 0.98334 0.41927 0.35844 0.0
C1951 C 1.00001 0.4269 0.39553 0.0
C1952 C 0.99488 0.41738 0.49185 0.0
H1953 H 0.03762 0.44824 0.61536 0.0
H1954 H 0.02984 0.44297 0.55452 0.0
H1955 H 0.99615 0.41349 0.54752 0.0
H1956 H 0.96808 0.41071 0.38936 0.0
H1957 H 0.97695 0.41401 0.44861 0.0
H1958 H 0.01095 0.44245 0.45185 0.0
C1959 C 0.0243 0.44003 0.5777 0.0
C1960 C 0.99942 0.4199 0.52694 0.0
C1961 C 0.02877 0.44301 0.6127 0.0
C1962 C 0.97701 0.4152 0.39046 0.0
C1963 C 0.9821 0.41702 0.42452 0.0
C1964 C 0.00775 0.43601 0.47232 0.0
C1965 C 0.01287 0.43331 0.57268 0.0
C1966 C 0.00814 0.43052 0.53521 0.0
C1967 C 0.99365 0.42298 0.42755 0.0
C1968 C 0.99893 0.42543 0.4642 0.0
H1969 H 0.005 0.42948 0.6621 0.0
H1970 H 0.99716 0.42438 0.60078 0.0
H1971 H 0.01888 0.44684 0.51293 0.0
H1972 H 1.00002 0.42826 0.33719 0.0
H1973 H 0.00893 0.43143 0.39695 0.0
C1974 C 0.58791 0.56137 0.39537 0.0
C1975 C 0.58383 0.56413 0.36443 0.0
C1976 C 0.58638 0.56436 0.43027 0.0
C1977 C 0.5795 0.58299 0.48095 0.0
H1978 H 0.57078 0.56082 0.55675 0.0
C1979 C 0.56162 0.58625 0.61916 0.0
C1980 C 0.56456 0.58265 0.65089 0.0
C1981 C 0.56492 0.58471 0.58477 0.0
C1982 C 0.57338 0.56717 0.53609 0.0
H1983 H 0.57519 0.57249 0.34602 0.0
H1984 H 0.57242 0.57765 0.4073 0.0
H1985 H 0.57456 0.55684 0.49547 0.0
H1986 H 0.57351 0.57481 0.67122 0.0
H1987 H 0.57934 0.57216 0.61093 0.0
H1988 H 0.57817 0.59327 0.52161 0.0
C1989 C 0.57689 0.57322 0.40435 0.0
C1990 C 0.57553 0.56489 0.50089 0.0
C1991 C 0.57843 0.57023 0.36925 0.0
C1992 C 0.57107 0.57765 0.64737 0.0
C1993 C 0.57436 0.57608 0.61281 0.0
C1994 C 0.57733 0.58528 0.5162 0.0
C1995 C 0.58072 0.57018 0.43531 0.0
C1996 C 0.57858 0.57275 0.47283 0.0
C1997 C 0.57125 0.57952 0.58109 0.0
C1998 C 0.57418 0.57737 0.54414 0.0
H1999 H 0.59221 0.55677 0.39275 0.0
H2000 H 0.58964 0.56208 0.4534 0.0
H2001 H 0.58198 0.58929 0.46014 0.0
H2002 H 0.55662 0.59015 0.62075 0.0
H2003 H 0.56225 0.58733 0.56096 0.0
C2004 C 0.42186 0.99191 0.64375 0.0
C2005 C 0.4173 0.98045 0.64781 0.0
C2006 C 0.42349 0.99661 0.60895 0.0
C2007 C 0.41499 0.98988 0.51207 0.0
H2008 H 0.44293 0.01631 0.49247 0.0
C2009 C 0.4301 0.00655 0.36567 0.0
C2010 C 0.43588 0.01807 0.36111 0.0
C2011 C 0.42713 0.00193 0.40065 0.0
C2012 C 0.43502 0.00901 0.49755 0.0
H2013 H 0.41068 0.96495 0.61834 0.0
H2014 H 0.41359 0.97314 0.558 0.0
H2015 H 0.43896 0.00854 0.5537 0.0
H2016 H 0.44266 0.03373 0.38968 0.0
H2017 H 0.43735 0.0257 0.45012 0.0
H2018 H 0.41109 0.99033 0.45576 0.0
C2019 C 0.41582 0.97849 0.58163 0.0
C2020 C 0.43274 0.00456 0.53271 0.0
C2021 C 0.41423 0.97381 0.61631 0.0
C2022 C 0.43833 0.02482 0.39214 0.0
C2023 C 0.43534 0.02022 0.42692 0.0
C2024 C 0.41726 0.99435 0.47685 0.0
C2025 C 0.42055 0.98995 0.57748 0.0
C2026 C 0.42273 0.99492 0.54039 0.0
C2027 C 0.42986 0.00873 0.43172 0.0
C2028 C 0.42732 0.00396 0.46915 0.0
H2029 H 0.42429 0.99726 0.66741 0.0
H2030 H 0.42705 0.00546 0.60668 0.0
H2031 H 0.40714 0.98251 0.51718 0.0
H2032 H 0.4281 0.00112 0.34235 0.0
H2033 H 0.42297 0.99304 0.4034 0.0
C2034 C 0.56933 0.99159 0.64303 0.0
C2035 C 0.56219 0.98017 0.64708 0.0
C2036 C 0.57254 0.99626 0.60824 0.0
C2037 C 0.57424 0.98933 0.51152 0.0
H2038 H 0.57369 0.01624 0.49143 0.0
C2039 C 0.57646 0.00615 0.36491 0.0
C2040 C 0.58244 0.01766 0.3603 0.0
C2041 C 0.57469 0.00153 0.39991 0.0
C2042 C 0.57404 0.0088 0.49665 0.0
H2043 H 0.553 0.96471 0.6176 0.0
H2044 H 0.55853 0.97285 0.55729 0.0
H2045 H 0.56959 0.00849 0.55268 0.0
H2046 H 0.5917 0.0333 0.38879 0.0
H2047 H 0.58878 0.02526 0.44927 0.0
H2048 H 0.57863 0.98962 0.45533 0.0
C2049 C 0.56173 0.97819 0.58092 0.0
C2050 C 0.57169 0.00437 0.53183 0.0
C2051 C 0.5585 0.97353 0.61559 0.0
C2052 C 0.58692 0.0244 0.39129 0.0
C2053 C 0.5852 0.01979 0.42609 0.0
C2054 C 0.57661 0.99378 0.47629 0.0
C2055 C 0.56873 0.98961 0.57677 0.0
C2056 C 0.57171 0.99456 0.53968 0.0
C2057 C 0.57891 0.00832 0.43096 0.0
C2058 C 0.57652 0.00357 0.46841 0.0
H2059 H 0.57235 0.99694 0.66669 0.0
H2060 H 0.57804 0.00508 0.60597 0.0
H2061 H 0.57445 0.98183 0.51678 0.0
H2062 H 0.57289 0.00073 0.34162 0.0
H2063 H 0.56975 0.99265 0.40272 0.0
C2064 C 0.9937 0.57012 0.36592 0.0
C2065 C 0.98215 0.56384 0.36273 0.0
C2066 C 0.99868 0.57321 0.40035 0.0
C2067 C 0.99303 0.57645 0.49708 0.0
H2068 H 0.01811 0.57259 0.5168 0.0
C2069 C 0.00941 0.57769 0.64338 0.0
C2070 C 0.0209 0.58272 0.6479 0.0
C2071 C 0.0048 0.57602 0.60839 0.0
C2072 C 0.0112 0.57387 0.51166 0.0
H2073 H 0.9668 0.55611 0.39331 0.0
H2074 H 0.97547 0.56144 0.45296 0.0
H2075 H 0.0101 0.56891 0.45583 0.0
H2076 H 0.03656 0.59023 0.61911 0.0
H2077 H 0.02856 0.58749 0.55854 0.0
H2078 H 0.9941 0.58136 0.55299 0.0
C2079 C 0.98068 0.56405 0.42895 0.0
C2080 C 0.00662 0.57176 0.47666 0.0
C2081 C 0.97572 0.56093 0.39467 0.0
C2082 C 0.02767 0.58623 0.61671 0.0
C2083 C 0.02308 0.5846 0.58187 0.0
C2084 C 0.99763 0.57859 0.53209 0.0
C2085 C 0.99222 0.57015 0.43226 0.0
C2086 C 0.99744 0.57296 0.469 0.0
C2087 C 0.01159 0.57938 0.5772 0.0
C2088 C 0.00674 0.57727 0.53986 0.0
H2089 H 0.99889 0.57252 0.34189 0.0
H2090 H 0.0076 0.57801 0.40199 0.0
H2091 H 0.98604 0.57759 0.49193 0.0
H2092 H 0.00396 0.57487 0.6668 0.0
H2093 H 0.99591 0.57187 0.60577 0.0
C2094 C 0.42962 0.4224 0.36512 0.0
C2095 C 0.43614 0.41741 0.36156 0.0
C2096 C 0.42639 0.42402 0.39971 0.0
C2097 C 0.4236 0.415 0.49647 0.0
H2098 H 0.42641 0.44347 0.51676 0.0
C2099 C 0.42257 0.43022 0.64323 0.0
C2100 C 0.41716 0.43632 0.64793 0.0
C2101 C 0.42413 0.42721 0.60817 0.0
C2102 C 0.42543 0.43542 0.51147 0.0
H2103 H 0.44415 0.40997 0.39166 0.0
H2104 H 0.43861 0.41287 0.45151 0.0
H2105 H 0.43011 0.43939 0.45551 0.0
H2106 H 0.4088 0.44367 0.61946 0.0
H2107 H 0.41138 0.43832 0.55889 0.0
H2108 H 0.41903 0.41109 0.55262 0.0
C2109 C 0.43589 0.41545 0.4277 0.0
C2110 C 0.42754 0.43307 0.47629 0.0
C2111 C 0.43914 0.41386 0.39328 0.0
C2112 C 0.41311 0.43908 0.61692 0.0
C2113 C 0.41464 0.43606 0.58207 0.0
C2114 C 0.42149 0.41735 0.5317 0.0
C2115 C 0.42957 0.42064 0.43142 0.0
C2116 C 0.42671 0.42286 0.46838 0.0
C2117 C 0.4203 0.43023 0.57714 0.0
C2118 C 0.42242 0.4276 0.53966 0.0
H2119 H 0.42714 0.4252 0.34127 0.0
H2120 H 0.42141 0.42794 0.40162 0.0
H2121 H 0.42276 0.407 0.49119 0.0
H2122 H 0.42579 0.42797 0.6665 0.0
H2123 H 0.42859 0.42278 0.60531 0.0
C2124 C 0.0872 0.33149 0.20517 0.0
C2125 C 0.08123 0.32039 0.19406 0.0
C2126 C 0.08678 0.33444 0.24139 0.0
C2127 C 0.08337 0.32329 0.33295 0.0
H2128 H 0.08141 0.34884 0.36265 0.0
C2129 C 0.08811 0.33582 0.48419 0.0
C2130 C 0.09414 0.34714 0.49225 0.0
C2131 C 0.08452 0.33219 0.44858 0.0
C2132 C 0.08209 0.34174 0.35488 0.0
H2133 H 0.06982 0.30373 0.21201 0.0
H2134 H 0.06923 0.30887 0.2755 0.0
H2135 H 0.07886 0.34329 0.29853 0.0
H2136 H 0.10085 0.36354 0.46952 0.0
H2137 H 0.09502 0.35727 0.40718 0.0
H2138 H 0.08719 0.32199 0.38843 0.0
C2139 C 0.07421 0.31528 0.25606 0.0
C2140 C 0.08056 0.33853 0.31812 0.0
C2141 C 0.07449 0.31235 0.21967 0.0
C2142 C 0.09615 0.35476 0.46421 0.0
C2143 C 0.09275 0.35113 0.42838 0.0
C2144 C 0.08507 0.32658 0.36953 0.0
C2145 C 0.08051 0.32633 0.26744 0.0
C2146 C 0.08125 0.32931 0.30674 0.0
C2147 C 0.0871 0.33978 0.41986 0.0
C2148 C 0.08454 0.33591 0.38109 0.0
H2149 H 0.09246 0.33789 0.1861 0.0
H2150 H 0.09178 0.34301 0.24938 0.0
H2151 H 0.08415 0.31625 0.32493 0.0
H2152 H 0.08634 0.32975 0.50531 0.0
H2153 H 0.07992 0.32339 0.44352 0.0
C2154 C 0.66372 0.7602 0.47449 0.0
C2155 C 0.65431 0.7508 0.48797 0.0
C2156 C 0.66706 0.76064 0.43831 0.0
C2157 C 0.66541 0.74472 0.35679 0.0
H2158 H 0.66897 0.77043 0.30472 0.0
C2159 C 0.68507 0.75921 0.21138 0.0
C2160 C 0.67939 0.76255 0.18764 0.0
C2161 C 0.68156 0.75629 0.24762 0.0
C2162 C 0.66797 0.76319 0.31883 0.0
H2163 H 0.64139 0.73422 0.4744 0.0
H2164 H 0.64739 0.73494 0.41101 0.0
H2165 H 0.66422 0.76824 0.36938 0.0
H2166 H 0.66524 0.76493 0.183 0.0
H2167 H 0.65928 0.76001 0.24599 0.0
H2168 H 0.66936 0.73979 0.30594 0.0
C2169 C 0.6521 0.74199 0.42863 0.0
C2170 C 0.66534 0.76198 0.35591 0.0
C2171 C 0.64866 0.74159 0.46486 0.0
C2172 C 0.66986 0.76244 0.20048 0.0
C2173 C 0.66645 0.75966 0.23665 0.0
C2174 C 0.66826 0.74603 0.31964 0.0
C2175 C 0.66116 0.75164 0.41476 0.0
C2176 C 0.66401 0.75274 0.37532 0.0
C2177 C 0.67239 0.75681 0.26085 0.0
C2178 C 0.66949 0.75526 0.30027 0.0
H2179 H 0.6683 0.76744 0.49147 0.0
H2180 H 0.67414 0.76814 0.42847 0.0
H2181 H 0.66446 0.73753 0.37116 0.0
H2182 H 0.69244 0.7592 0.20236 0.0
H2183 H 0.68631 0.75415 0.26574 0.0
C2184 C 0.23993 0.90907 0.20367 0.0
C2185 C 0.23891 0.91787 0.18964 0.0
C2186 C 0.24341 0.90929 0.23958 0.0
C2187 C 0.25453 0.91268 0.313 0.0
H2188 H 0.24306 0.92432 0.38609 0.0
C2189 C 0.26074 0.90837 0.4671 0.0
C2190 C 0.25151 0.90539 0.48947 0.0
C2191 C 0.26099 0.91193 0.43114 0.0
C2192 C 0.2463 0.92098 0.36611 0.0
H2193 H 0.24127 0.93405 0.20202 0.0
H2194 H 0.24765 0.93459 0.26449 0.0
H2195 H 0.24027 0.92642 0.32179 0.0
H2196 H 0.23544 0.90417 0.49182 0.0
H2197 H 0.23574 0.91007 0.42942 0.0
H2198 H 0.25997 0.90665 0.35732 0.0
C2199 C 0.2455 0.92737 0.24795 0.0
C2200 C 0.24484 0.92234 0.32904 0.0
C2201 C 0.24193 0.92712 0.21198 0.0
C2202 C 0.24272 0.90644 0.47547 0.0
C2203 C 0.24293 0.90991 0.43956 0.0
C2204 C 0.2559 0.91124 0.35007 0.0
C2205 C 0.24607 0.91835 0.26251 0.0
C2206 C 0.24873 0.91801 0.30191 0.0
C2207 C 0.25197 0.91253 0.4166 0.0
C2208 C 0.25161 0.91517 0.3772 0.0
H2209 H 0.23764 0.90178 0.18734 0.0
H2210 H 0.24356 0.9021 0.24974 0.0
H2211 H 0.25784 0.90941 0.29301 0.0
H2212 H 0.26767 0.9077 0.47704 0.0
H2213 H 0.26819 0.91406 0.41458 0.0
C2214 C 0.33596 0.09562 0.5425 0.0
C2215 C 0.34518 0.09535 0.52854 0.0
C2216 C 0.33275 0.09284 0.57883 0.0
C2217 C 0.33417 0.07839 0.65993 0.0
H2218 H 0.33167 0.10111 0.71258 0.0
C2219 C 0.31463 0.07381 0.8052 0.0
C2220 C 0.32052 0.08277 0.82909 0.0
C2221 C 0.31817 0.0743 0.76906 0.0
C2222 C 0.33237 0.0947 0.69831 0.0
H2223 H 0.35791 0.09136 0.54144 0.0
H2224 H 0.35212 0.08628 0.60511 0.0
H2225 H 0.33631 0.10355 0.64783 0.0
H2226 H 0.33506 0.099 0.83416 0.0
H2227 H 0.34109 0.09987 0.77131 0.0
H2228 H 0.33 0.06947 0.71069 0.0
C2229 C 0.34746 0.08874 0.58774 0.0
C2230 C 0.33495 0.09607 0.66119 0.0
C2231 C 0.35078 0.09166 0.55135 0.0
C2232 C 0.33029 0.09197 0.81655 0.0
C2233 C 0.33374 0.0925 0.78046 0.0
C2234 C 0.33137 0.07693 0.69713 0.0
C2235 C 0.33859 0.0896 0.60204 0.0
C2236 C 0.33588 0.08795 0.64157 0.0
C2237 C 0.32758 0.0838 0.75608 0.0
C2238 C 0.33052 0.08512 0.7167 0.0
H2239 H 0.33142 0.09838 0.52577 0.0
H2240 H 0.32581 0.09347 0.58903 0.0
H2241 H 0.33481 0.072 0.64539 0.0
H2242 H 0.30708 0.06661 0.814 0.0
H2243 H 0.31326 0.06749 0.75079 0.0
C2244 C 0.90744 0.23746 0.80581 0.0
C2245 C 0.91701 0.23778 0.81931 0.0
C2246 C 0.90687 0.24022 0.76957 0.0
C2247 C 0.92252 0.25465 0.68788 0.0
H2248 H 0.89701 0.23203 0.6361 0.0
C2249 C 0.90752 0.25926 0.54268 0.0
C2250 C 0.9043 0.25024 0.51896 0.0
C2251 C 0.91054 0.25876 0.57888 0.0
C2252 C 0.90419 0.23841 0.65013 0.0
H2253 H 0.93371 0.24185 0.80567 0.0
H2254 H 0.93274 0.2469 0.74217 0.0
H2255 H 0.89938 0.22963 0.70074 0.0
H2256 H 0.90226 0.23386 0.51429 0.0
H2257 H 0.90737 0.23298 0.57719 0.0
H2258 H 0.9272 0.26349 0.63697 0.0
C2259 C 0.92568 0.24442 0.75983 0.0
C2260 C 0.90551 0.23707 0.6872 0.0
C2261 C 0.92622 0.24151 0.79613 0.0
C2262 C 0.90465 0.24095 0.53176 0.0
C2263 C 0.90753 0.24041 0.56789 0.0
C2264 C 0.92109 0.25608 0.65073 0.0
C2265 C 0.91588 0.24351 0.74597 0.0
C2266 C 0.91468 0.24515 0.70651 0.0
C2267 C 0.91027 0.24919 0.59208 0.0
C2268 C 0.91194 0.24793 0.63146 0.0
H2269 H 0.9002 0.23466 0.82284 0.0
H2270 H 0.89926 0.23956 0.75974 0.0
H2271 H 0.92965 0.26101 0.70216 0.0
H2272 H 0.90735 0.26654 0.53369 0.0
H2273 H 0.91259 0.26565 0.59698 0.0
C2274 C 0.76132 0.66971 0.80922 0.0
C2275 C 0.76246 0.67957 0.82325 0.0
C2276 C 0.75775 0.66643 0.77339 0.0
C2277 C 0.75628 0.67805 0.68409 0.0
H2278 H 0.74097 0.64721 0.65599 0.0
C2279 C 0.75835 0.66414 0.53793 0.0
C2280 C 0.74952 0.65434 0.52387 0.0
C2281 C 0.75814 0.66741 0.57383 0.0
C2282 C 0.74508 0.65587 0.6632 0.0
H2283 H 0.76022 0.69348 0.81103 0.0
H2284 H 0.75369 0.68761 0.7487 0.0
H2285 H 0.74315 0.65215 0.72027 0.0
H2286 H 0.73331 0.64055 0.53615 0.0
H2287 H 0.7328 0.64641 0.59864 0.0
H2288 H 0.75804 0.68176 0.62703 0.0
C2289 C 0.75582 0.68252 0.76515 0.0
C2290 C 0.74649 0.65872 0.70024 0.0
C2291 C 0.75948 0.68586 0.80103 0.0
C2292 C 0.74026 0.64812 0.54617 0.0
C2293 C 0.74002 0.65145 0.58213 0.0
C2294 C 0.75478 0.6752 0.64705 0.0
C2295 C 0.75512 0.67287 0.75057 0.0
C2296 C 0.75237 0.66985 0.71125 0.0
C2297 C 0.74906 0.66104 0.5967 0.0
C2298 C 0.74941 0.66407 0.63604 0.0
H2299 H 0.76358 0.66468 0.82547 0.0
H2300 H 0.75751 0.65905 0.7632 0.0
H2301 H 0.76091 0.6867 0.69128 0.0
H2302 H 0.76564 0.66912 0.52163 0.0
H2303 H 0.76535 0.67473 0.58401 0.0
C2304 C 0.91288 0.66516 0.53174 0.0
C2305 C 0.9069 0.65385 0.52349 0.0
C2306 C 0.91655 0.66875 0.56731 0.0
C2307 C 0.91933 0.65911 0.6605 0.0
H2308 H 0.91743 0.6846 0.69147 0.0
C2309 C 0.91486 0.66949 0.81085 0.0
C2310 C 0.92093 0.6806 0.82179 0.0
C2311 C 0.91513 0.66648 0.77458 0.0
C2312 C 0.91816 0.67756 0.68315 0.0
H2313 H 0.90036 0.63743 0.54586 0.0
H2314 H 0.90633 0.64362 0.60818 0.0
H2315 H 0.9141 0.67888 0.62799 0.0
H2316 H 0.93239 0.69721 0.80349 0.0
H2317 H 0.93271 0.69197 0.73995 0.0
H2318 H 0.92279 0.65754 0.71661 0.0
C2319 C 0.9085 0.64979 0.58713 0.0
C2320 C 0.91629 0.67428 0.64658 0.0
C2321 C 0.90503 0.64621 0.55132 0.0
C2322 C 0.92764 0.68858 0.79598 0.0
C2323 C 0.92777 0.68559 0.75956 0.0
C2324 C 0.92102 0.66231 0.69728 0.0
C2325 C 0.91411 0.66113 0.59584 0.0
C2326 C 0.91678 0.66496 0.63464 0.0
C2327 C 0.92135 0.67454 0.74833 0.0
C2328 C 0.92039 0.67154 0.70901 0.0
H2329 H 0.91454 0.67125 0.51078 0.0
H2330 H 0.92112 0.67754 0.57248 0.0
H2331 H 0.91998 0.65201 0.65246 0.0
H2332 H 0.90961 0.66314 0.83008 0.0
H2333 H 0.91004 0.65791 0.76672 0.0
C2334 C 0.31478 0.24102 0.79646 0.0
C2335 C 0.32085 0.23785 0.81901 0.0
C2336 C 0.31819 0.24452 0.76051 0.0
C2337 C 0.34202 0.25327 0.69629 0.0
H2338 H 0.31916 0.24222 0.62234 0.0
C2339 C 0.35301 0.25988 0.54255 0.0
C2340 C 0.34677 0.25073 0.51982 0.0
C2341 C 0.34962 0.26003 0.57849 0.0
C2342 C 0.32567 0.24534 0.64257 0.0
H2343 H 0.33544 0.2362 0.82168 0.0
H2344 H 0.34121 0.24201 0.75932 0.0
H2345 H 0.31405 0.23934 0.68648 0.0
H2346 H 0.33189 0.23471 0.5168 0.0
H2347 H 0.32615 0.23485 0.57915 0.0
H2348 H 0.35364 0.2587 0.65238 0.0
C2349 C 0.33393 0.24203 0.76931 0.0
C2350 C 0.32273 0.24383 0.67953 0.0
C2351 C 0.33057 0.23861 0.80518 0.0
C2352 C 0.33689 0.24192 0.53344 0.0
C2353 C 0.33355 0.24204 0.56932 0.0
C2354 C 0.34496 0.25471 0.65933 0.0
C2355 C 0.32772 0.24489 0.74621 0.0
C2356 C 0.33086 0.24758 0.70695 0.0
C2357 C 0.33995 0.25101 0.59261 0.0
C2358 C 0.33683 0.25057 0.6319 0.0
H2359 H 0.30726 0.24057 0.80627 0.0
H2360 H 0.31327 0.24682 0.74381 0.0
H2361 H 0.34854 0.25647 0.71652 0.0
H2362 H 0.36065 0.26682 0.5329 0.0
H2363 H 0.35468 0.26717 0.59533 0.0
C2364 C 0.76427 0.09378 0.80908 0.0
C2365 C 0.76428 0.08438 0.82258 0.0
C2366 C 0.76137 0.09421 0.77291 0.0
C2367 C 0.74709 0.07828 0.6914 0.0
H2368 H 0.76925 0.10399 0.63932 0.0
C2369 C 0.74193 0.09278 0.54597 0.0
C2370 C 0.75096 0.09612 0.52224 0.0
C2371 C 0.74253 0.08986 0.58221 0.0
C2372 C 0.763 0.09675 0.65343 0.0
H2373 H 0.76063 0.0678 0.80903 0.0
H2374 H 0.75534 0.06851 0.74563 0.0
H2375 H 0.77182 0.10181 0.70398 0.0
H2376 H 0.76748 0.09849 0.51761 0.0
H2377 H 0.76852 0.09357 0.5806 0.0
H2378 H 0.73822 0.07335 0.64054 0.0
C2379 C 0.75768 0.07556 0.76325 0.0
C2380 C 0.76443 0.09554 0.69051 0.0
C2381 C 0.76073 0.07517 0.79949 0.0
C2382 C 0.76038 0.096 0.53508 0.0
C2383 C 0.76101 0.09323 0.57126 0.0
C2384 C 0.74556 0.0796 0.65424 0.0
C2385 C 0.75827 0.08521 0.74937 0.0
C2386 C 0.75652 0.08631 0.70993 0.0
C2387 C 0.7522 0.09037 0.59545 0.0
C2388 C 0.75356 0.08882 0.63486 0.0
H2389 H 0.76693 0.10102 0.82606 0.0
H2390 H 0.76178 0.10171 0.76305 0.0
H2391 H 0.74086 0.0711 0.70576 0.0
H2392 H 0.73456 0.09278 0.53694 0.0
H2393 H 0.73562 0.08771 0.60033 0.0
C2394 C 0.68515 0.92543 0.21315 0.0
C2395 C 0.67943 0.91623 0.19008 0.0
C2396 C 0.68173 0.92507 0.2494 0.0
C2397 C 0.66848 0.90513 0.32214 0.0
H2398 H 0.66464 0.9274 0.37233 0.0
C2399 C 0.66416 0.90469 0.47759 0.0
C2400 C 0.65461 0.90453 0.49051 0.0
C2401 C 0.66755 0.9075 0.44142 0.0
C2402 C 0.66569 0.92113 0.35857 0.0
H2403 H 0.66534 0.89965 0.18664 0.0
H2404 H 0.65955 0.89901 0.24966 0.0
H2405 H 0.66946 0.92963 0.30704 0.0
H2406 H 0.64153 0.90786 0.47599 0.0
H2407 H 0.64764 0.91298 0.41261 0.0
H2408 H 0.66489 0.89668 0.37333 0.0
C2409 C 0.66666 0.90648 0.23978 0.0
C2410 C 0.66849 0.92243 0.32138 0.0
C2411 C 0.66997 0.90687 0.20359 0.0
C2412 C 0.64891 0.90788 0.46689 0.0
C2413 C 0.65241 0.91084 0.43066 0.0
C2414 C 0.66589 0.90394 0.35925 0.0
C2415 C 0.67264 0.91546 0.26331 0.0
C2416 C 0.66983 0.91438 0.30277 0.0
C2417 C 0.66158 0.91035 0.41733 0.0
C2418 C 0.66444 0.91189 0.37789 0.0
H2419 H 0.69246 0.93276 0.20359 0.0
H2420 H 0.6865 0.93211 0.26701 0.0
H2421 H 0.66955 0.89884 0.3086 0.0
H2422 H 0.66878 0.90219 0.49497 0.0
H2423 H 0.67472 0.90717 0.43199 0.0
C2424 C 0.09545 0.75954 0.47409 0.0
C2425 C 0.0957 0.75026 0.48762 0.0
C2426 C 0.09255 0.7599 0.43787 0.0
C2427 C 0.07876 0.74401 0.3559 0.0
H2428 H 0.10113 0.76976 0.30453 0.0
C2429 C 0.07441 0.75892 0.21007 0.0
C2430 C 0.08354 0.7622 0.18683 0.0
C2431 C 0.07477 0.75585 0.24631 0.0
C2432 C 0.09482 0.76251 0.31846 0.0
H2433 H 0.09242 0.7338 0.47414 0.0
H2434 H 0.08712 0.73438 0.41066 0.0
H2435 H 0.10339 0.76757 0.36943 0.0
H2436 H 0.09995 0.76426 0.18301 0.0
H2437 H 0.10058 0.7591 0.24602 0.0
H2438 H 0.07011 0.73909 0.30461 0.0
C2439 C 0.08927 0.74139 0.42828 0.0
C2440 C 0.09608 0.7613 0.35565 0.0
C2441 C 0.09233 0.74107 0.46457 0.0
C2442 C 0.09278 0.76183 0.2001 0.0
C2443 C 0.09318 0.75891 0.23627 0.0
C2444 C 0.07739 0.74534 0.31862 0.0
C2445 C 0.08969 0.75094 0.41433 0.0
C2446 C 0.08809 0.75204 0.3748 0.0
C2447 C 0.0843 0.75615 0.26001 0.0
C2448 C 0.08547 0.75458 0.29952 0.0
H2449 H 0.09796 0.76675 0.49103 0.0
H2450 H 0.09282 0.76732 0.42793 0.0
H2451 H 0.07247 0.73681 0.37007 0.0
H2452 H 0.06717 0.75911 0.20071 0.0
H2453 H 0.06781 0.75378 0.26409 0.0
C2454 C 0.23864 0.31197 0.21492 0.0
C2455 C 0.24002 0.31994 0.1889 0.0
C2456 C 0.24173 0.31499 0.25134 0.0
C2457 C 0.2584 0.33838 0.31322 0.0
H2458 H 0.23498 0.32192 0.38286 0.0
C2459 C 0.25872 0.35464 0.45913 0.0
C2460 C 0.25304 0.34701 0.48709 0.0
C2461 C 0.25853 0.35103 0.4233 0.0
C2462 C 0.24176 0.32649 0.36415 0.0
H2463 H 0.24632 0.33742 0.18029 0.0
H2464 H 0.25192 0.3427 0.24364 0.0
H2465 H 0.23251 0.31611 0.31945 0.0
H2466 H 0.24336 0.32961 0.49997 0.0
H2467 H 0.24349 0.32329 0.43821 0.0
H2468 H 0.26771 0.34874 0.35787 0.0
C2469 C 0.24837 0.33411 0.23594 0.0
C2470 C 0.24029 0.32315 0.32763 0.0
C2471 C 0.24512 0.33107 0.19968 0.0
C2472 C 0.24771 0.3357 0.47892 0.0
C2473 C 0.2477 0.33208 0.44332 0.0
C2474 C 0.25995 0.34164 0.34995 0.0
C2475 C 0.24644 0.32607 0.26237 0.0
C2476 C 0.24852 0.32914 0.30165 0.0
C2477 C 0.25281 0.33969 0.41469 0.0
C2478 C 0.25159 0.33583 0.37593 0.0
H2479 H 0.2347 0.30332 0.20754 0.0
H2480 H 0.24023 0.30863 0.27108 0.0
H2481 H 0.26492 0.34311 0.29382 0.0
H2482 H 0.26283 0.36342 0.46454 0.0
H2483 H 0.26246 0.35718 0.40216 0.0
C2484 C 0.00377 0.42969 0.86317 0.0
C2485 C 0.01347 0.43011 0.85062 0.0
C2486 C 1.0003 0.42683 0.89926 0.0
C2487 C 0.00252 0.41361 0.9828 0.0
H2488 H 0.99778 0.43549 0.03171 0.0
C2489 C 0.98314 0.40921 0.12847 0.0
C2490 C 0.98869 0.41854 0.15115 0.0
C2491 C 0.98649 0.40955 0.09214 0.0
C2492 C 0.99909 0.42932 0.01847 0.0
H2493 H 0.02676 0.42716 0.86575 0.0
H2494 H 0.02055 0.42197 0.92899 0.0
H2495 H 0.00243 0.43758 0.96698 0.0
H2496 H 0.00242 0.43534 0.15377 0.0
H2497 H 0.00809 0.43594 0.09062 0.0
H2498 H 0.99902 0.40531 0.03465 0.0
C2499 C 0.0157 0.42394 0.9107 0.0
C2500 C 0.00167 0.43046 0.98135 0.0
C2501 C 0.01926 0.42694 0.87454 0.0
C2502 C 0.99792 0.42802 0.13714 0.0
C2503 C 0.00116 0.42839 0.10087 0.0
C2504 C 0.99973 0.41235 0.02 0.0
C2505 C 0.00637 0.4242 0.92368 0.0
C2506 C 0.00345 0.42266 0.96309 0.0
C2507 C 0.99535 0.41926 0.07775 0.0
C2508 C 0.99808 0.42026 0.03823 0.0
H2509 H 0.99906 0.43203 0.84554 0.0
H2510 H 0.99301 0.42697 0.9084 0.0
H2511 H 0.00383 0.40746 0.96935 0.0
H2512 H 0.97601 0.40178 0.13842 0.0
H2513 H 0.98185 0.4024 0.07486 0.0
C2514 C 0.57611 0.57272 0.14351 0.0
C2515 C 0.58495 0.57172 0.15723 0.0
C2516 C 0.57621 0.57616 0.10763 0.0
C2517 C 0.58894 0.57745 0.01775 0.0
H2518 H 0.57335 0.59275 0.99032 0.0
C2519 C 0.57261 0.57533 0.87199 0.0
C2520 C 0.57172 0.5842 0.85802 0.0
C2521 C 0.57612 0.5755 0.90783 0.0
C2522 C 0.57791 0.58863 0.99734 0.0
H2523 H 0.60109 0.57404 0.14431 0.0
H2524 H 0.60142 0.58033 0.08185 0.0
H2525 H 0.5763 0.59065 0.0545 0.0
H2526 H 0.5743 0.60047 0.87045 0.0
H2527 H 0.58071 0.60092 0.93284 0.0
H2528 H 0.59069 0.57559 0.9606 0.0
C2529 C 0.59427 0.57821 0.09863 0.0
C2530 C 0.57946 0.58728 0.03432 0.0
C2531 C 0.59413 0.57469 0.13458 0.0
C2532 C 0.57485 0.59347 0.88038 0.0
C2533 C 0.57844 0.59369 0.91629 0.0
C2534 C 0.58747 0.57889 0.98077 0.0
C2535 C 0.58521 0.57879 0.08442 0.0
C2536 C 0.58475 0.58142 0.0451 0.0
C2537 C 0.57893 0.58461 0.93074 0.0
C2538 C 0.58169 0.58426 0.97001 0.0
H2539 H 0.56888 0.57047 0.16009 0.0
H2540 H 0.569 0.57631 0.09772 0.0
H2541 H 0.59299 0.57283 0.02479 0.0
H2542 H 0.57023 0.56802 0.85564 0.0
H2543 H 0.57619 0.56827 0.91794 0.0
C2544 C 0.427 0.00242 0.13984 0.0
C2545 C 0.42804 0.01222 0.15416 0.0
C2546 C 0.42342 0.99919 0.104 0.0
C2547 C 0.42176 0.01083 0.01503 0.0
H2548 H 0.40647 0.98001 0.98671 0.0
C2549 C 0.42369 0.99695 0.86864 0.0
C2550 C 0.41487 0.98713 0.85471 0.0
C2551 C 0.4235 1.00026 0.90451 0.0
C2552 C 0.41058 0.98867 0.99398 0.0
H2553 H 0.42564 0.02606 0.14239 0.0
H2554 H 0.41912 0.02027 0.07999 0.0
H2555 H 0.40875 0.98491 0.05102 0.0
H2556 H 0.39867 0.97333 0.86718 0.0
H2557 H 0.3982 0.97924 0.9296 0.0
H2558 H 0.42343 0.01459 0.95799 0.0
C2559 C 0.42132 0.0152 0.09627 0.0
C2560 C 0.41204 0.99149 0.03104 0.0
C2561 C 0.42497 0.01848 0.13218 0.0
C2562 C 0.40562 0.98093 0.87708 0.0
C2563 C 0.4054 0.98428 0.91301 0.0
C2564 C 0.42021 0.00801 0.97797 0.0
C2565 C 0.42069 0.00561 0.08143 0.0
C2566 C 0.4179 0.00261 0.04212 0.0
C2567 C 0.41445 0.99388 0.92749 0.0
C2568 C 0.41485 0.99689 0.96687 0.0
H2569 H 0.42932 0.99741 0.1559 0.0
H2570 H 0.42325 0.99186 0.09359 0.0
H2571 H 0.42637 0.01949 0.0223 0.0
H2572 H 0.43097 0.00192 0.85227 0.0
H2573 H 0.4307 0.00759 0.91462 0.0
C2574 C 0.57251 0.99659 0.86796 0.0
C2575 C 0.57137 0.98673 0.85385 0.0
C2576 C 0.57611 0.99987 0.90377 0.0
C2577 C 0.57757 0.98819 0.99293 0.0
H2578 H 0.59288 0.01901 0.02131 0.0
C2579 C 0.57538 0.00201 0.1391 0.0
C2580 C 0.58421 0.01178 0.15329 0.0
C2581 C 0.57561 0.99876 0.1032 0.0
C2582 C 0.58877 0.01035 0.01401 0.0
H2583 H 0.57365 0.97284 0.86591 0.0
H2584 H 0.58023 0.9787 0.92822 0.0
H2585 H 0.59072 0.01412 0.95697 0.0
H2586 H 0.60046 0.02554 0.14124 0.0
H2587 H 0.60102 0.01971 0.07874 0.0
H2588 H 0.57576 0.98443 0.04995 0.0
C2589 C 0.57808 0.98379 0.91183 0.0
C2590 C 0.58738 0.00754 0.97694 0.0
C2591 C 0.57439 0.98046 0.87597 0.0
C2592 C 0.5935 0.01799 0.13113 0.0
C2593 C 0.59377 0.01469 0.09516 0.0
C2594 C 0.57905 0.99101 0.02999 0.0
C2595 C 0.57876 0.99342 0.9265 0.0
C2596 C 0.5815 0.99642 0.96584 0.0
C2597 C 0.58473 0.00513 0.08046 0.0
C2598 C 0.58441 0.00213 0.0411 0.0
H2599 H 0.57022 0.00162 0.85179 0.0
H2600 H 0.57634 0.00723 0.91403 0.0
H2601 H 0.57294 0.97954 0.98564 0.0
H2602 H 0.56806 0.99704 0.1553 0.0
H2603 H 0.56841 0.99146 0.0929 0.0
C2604 C 0.01887 0.5929 0.87827 0.0
C2605 C 0.01312 0.5838 0.85485 0.0
C2606 C 0.01538 0.59248 0.91447 0.0
C2607 C 0.00178 0.57228 0.98628 0.0
H2608 H 0.9986 0.59473 0.03799 0.0
C2609 C 0.99792 0.57154 0.14194 0.0
C2610 C 0.98853 0.57157 0.15549 0.0
C2611 C 0.00121 0.57437 0.10569 0.0
C2612 C 0.99946 0.58841 0.0238 0.0
H2613 H 0.99887 0.56733 0.85069 0.0
H2614 H 0.99295 0.56658 0.91361 0.0
H2615 H 0.00335 0.59711 0.97264 0.0
H2616 H 0.97562 0.57524 0.14198 0.0
H2617 H 0.98154 0.5804 0.07847 0.0
H2618 H 0.99809 0.56364 0.03713 0.0
C2619 C 1.00015 0.57402 0.90405 0.0
C2620 C 0.00222 0.58979 0.98657 0.0
C2621 C 0.00354 0.57449 0.86792 0.0
C2622 C 0.98288 0.57512 0.1324 0.0
C2623 C 0.98627 0.57809 0.09609 0.0
C2624 C 0.99924 0.571 0.02343 0.0
C2625 C 0.00618 0.58289 0.92797 0.0
C2626 C 0.00333 0.58168 0.96742 0.0
C2627 C 0.99528 0.57743 0.08214 0.0
C2628 C 0.99804 0.57902 0.04262 0.0
H2629 H 0.02628 0.6002 0.86907 0.0
H2630 H 0.0202 0.59943 0.93236 0.0
H2631 H 0.00269 0.56594 0.97235 0.0
H2632 H 0.00251 0.56889 0.1589 0.0
H2633 H 0.00826 0.5739 0.09578 0.0
C2634 C 0.42594 0.40661 0.13179 0.0
C2635 C 0.42895 0.41582 0.15431 0.0
C2636 C 0.42239 0.40642 0.09584 0.0
C2637 C 0.423 0.4116 0.01487 0.0
H2638 H 0.40765 0.42715 0.9875 0.0
C2639 C 0.42479 0.42765 0.86889 0.0
C2640 C 0.41589 0.42854 0.85511 0.0
C2641 C 0.42469 0.42419 0.90473 0.0
C2642 C 0.41178 0.4226 0.99451 0.0
H2643 H 0.43025 0.43192 0.15695 0.0
H2644 H 0.42434 0.43171 0.09459 0.0
H2645 H 0.4099 0.42433 0.05167 0.0
H2646 H 0.39966 0.42601 0.86788 0.0
H2647 H 0.39934 0.41968 0.93028 0.0
H2648 H 0.42473 0.40972 0.9577 0.0
C2649 C 0.42449 0.4245 0.1046 0.0
C2650 C 0.41322 0.42113 0.03148 0.0
C2651 C 0.42796 0.42466 0.14047 0.0
C2652 C 0.40667 0.42545 0.87766 0.0
C2653 C 0.40653 0.42191 0.91357 0.0
C2654 C 0.42147 0.413 0.97789 0.0
C2655 C 0.42181 0.41546 0.08152 0.0
C2656 C 0.4191 0.41585 0.04223 0.0
C2657 C 0.41564 0.42143 0.92785 0.0
C2658 C 0.41608 0.41876 0.96714 0.0
H2659 H 0.42657 0.39965 0.14161 0.0
H2660 H 0.42022 0.39923 0.07916 0.0
H2661 H 0.42763 0.40756 0.02188 0.0
H2662 H 0.43205 0.43 0.85239 0.0
H2663 H 0.43193 0.42412 0.9147 0.0
loop_
_geom_bond_atom_site_label_1
_geom_bond_atom_site_label_2
_geom_bond_distance
_geom_bond_site_symmetry_2
_ccdc_geom_bond_type
O0 Cd1 2.223 . S
O0 C8 1.315 . S
Cd1 O0 2.223 . S
Cd1 O4 2.297 . S
Cd1 O5 2.439 . S
Cd1 O11 2.240 . S
Cd2 O3 2.240 . S
Cd2 O10 2.223 1_554 S
Cd2 O12 2.297 . S
Cd2 O13 2.439 . S
O3 Cd2 2.240 . S
O3 C8 1.279 . S
O4 Cd1 2.297 . S
O4 C6 1.247 . S
O5 Cd1 2.439 . S
O5 C6 1.208 . S
C6 O4 1.247 . S
C6 O5 1.208 . S
C7 O12 1.247 . S
C7 O13 1.208 . S
C8 O0 1.315 . S
C8 O3 1.279 . S
C9 O10 1.312 1_554 S
C9 O11 1.291 . S
O10 Cd2 2.223 1_556 S
O10 C9 1.312 1_556 S
O11 Cd1 2.240 . S
O11 C9 1.291 . S
O12 Cd2 2.297 . S
O12 C7 1.247 . S
O13 Cd2 2.439 . S
O13 C7 1.208 . S
O14 Cd15 2.223 . S
O14 C22 1.315 . S
Cd15 O14 2.223 . S
Cd15 O18 2.297 . S
Cd15 O19 2.439 . S
Cd15 O25 2.240 . S
Cd16 O17 2.240 . S
Cd16 O24 2.223 1_554 S
Cd16 O26 2.297 . S
Cd16 O27 2.439 . S
O17 Cd16 2.240 . S
O17 C22 1.279 . S
O18 Cd15 2.297 . S
O18 C20 1.247 . S
O19 Cd15 2.439 . S
O19 C20 1.208 . S
C20 O18 1.247 . S
C20 O19 1.208 . S
C21 O26 1.247 . S
C21 O27 1.208 . S
C22 O14 1.315 . S
C22 O17 1.279 . S
C23 O24 1.312 1_554 S
C23 O25 1.291 . S
O24 Cd16 2.223 1_556 S
O24 C23 1.312 1_556 S
O25 Cd15 2.240 . S
O25 C23 1.291 . S
O26 Cd16 2.297 . S
O26 C21 1.247 . S
O27 Cd16 2.439 . S
O27 C21 1.208 . S
O28 Cd29 2.223 . S
O28 C36 1.315 . S
Cd29 O28 2.223 . S
Cd29 O32 2.297 . S
Cd29 O33 2.439 . S
Cd29 O39 2.240 . S
Cd30 O31 2.240 . S
Cd30 O38 2.223 1_554 S
Cd30 O40 2.297 . S
Cd30 O41 2.439 . S
O31 Cd30 2.240 . S
O31 C36 1.279 . S
O32 Cd29 2.297 . S
O32 C34 1.247 . S
O33 Cd29 2.439 . S
O33 C34 1.208 . S
C34 O32 1.247 . S
C34 O33 1.208 . S
C35 O40 1.247 . S
C35 O41 1.208 . S
C36 O28 1.315 . S
C36 O31 1.279 . S
C37 O38 1.311 1_554 S
C37 O39 1.296 . S
O38 Cd30 2.223 1_556 S
O38 C37 1.311 1_556 S
O39 Cd29 2.240 . S
O39 C37 1.296 . S
O40 Cd30 2.297 . S
O40 C35 1.247 . S
O41 Cd30 2.439 . S
O41 C35 1.208 . S
O42 Cd43 2.223 . S
O42 C50 1.315 . S
Cd43 O42 2.223 . S
Cd43 O46 2.297 . S
Cd43 O47 2.439 . S
Cd43 O53 2.240 . S
Cd44 O45 2.240 . S
Cd44 O52 2.223 1_556 S
Cd44 O54 2.297 . S
Cd44 O55 2.439 . S
O45 Cd44 2.240 . S
O45 C50 1.279 . S
O46 Cd43 2.297 . S
O46 C48 1.247 . S
O47 Cd43 2.439 . S
O47 C48 1.208 . S
C48 O46 1.247 . S
C48 O47 1.208 . S
C49 O54 1.247 . S
C49 O55 1.208 . S
C50 O42 1.315 . S
C50 O45 1.279 . S
C51 O52 1.312 1_556 S
C51 O53 1.291 . S
O52 Cd44 2.223 1_554 S
O52 C51 1.312 1_554 S
O53 Cd43 2.240 . S
O53 C51 1.291 . S
O54 Cd44 2.297 . S
O54 C49 1.247 . S
O55 Cd44 2.439 . S
O55 C49 1.208 . S
O56 Cd57 2.223 . S
O56 C64 1.315 . S
Cd57 O56 2.223 . S
Cd57 O60 2.297 . S
Cd57 O61 2.439 . S
Cd57 O67 2.240 . S
Cd58 O59 2.240 . S
Cd58 O66 2.223 1_556 S
Cd58 O68 2.297 . S
Cd58 O69 2.439 . S
O59 Cd58 2.240 . S
O59 C64 1.279 . S
O60 Cd57 2.297 . S
O60 C62 1.247 . S
O61 Cd57 2.439 . S
O61 C62 1.208 . S
C62 O60 1.247 . S
C62 O61 1.208 . S
C63 O68 1.247 . S
C63 O69 1.208 . S
C64 O56 1.315 . S
C64 O59 1.279 . S
C65 O66 1.311 1_556 S
C65 O67 1.296 . S
O66 Cd58 2.223 1_554 S
O66 C65 1.311 1_554 S
O67 Cd57 2.240 . S
O67 C65 1.296 . S
O68 Cd58 2.297 . S
O68 C63 1.247 . S
O69 Cd58 2.439 . S
O69 C63 1.208 . S
O70 Cd71 2.223 . S
O70 C78 1.315 . S
Cd71 O70 2.223 . S
Cd71 O74 2.297 . S
Cd71 O75 2.439 . S
Cd71 O81 2.240 . S
Cd72 O73 2.240 . S
Cd72 O80 2.223 1_556 S
Cd72 O82 2.297 . S
Cd72 O83 2.439 . S
O73 Cd72 2.240 . S
O73 C78 1.279 . S
O74 Cd71 2.297 . S
O74 C76 1.247 . S
O75 Cd71 2.439 . S
O75 C76 1.208 . S
C76 O74 1.247 . S
C76 O75 1.208 . S
C77 O82 1.247 . S
C77 O83 1.208 . S
C78 O70 1.315 . S
C78 O73 1.279 . S
C79 O80 1.312 1_556 S
C79 O81 1.291 . S
O80 Cd72 2.223 1_554 S
O80 C79 1.312 1_554 S
O81 Cd71 2.240 . S
O81 C79 1.291 . S
O82 Cd72 2.297 . S
O82 C77 1.247 . S
O83 Cd72 2.439 . S
O83 C77 1.208 . S
O84 Cd85 2.223 . S
O84 C92 1.315 . S
Cd85 O84 2.223 . S
Cd85 O88 2.297 . S
Cd85 O89 2.439 . S
Cd85 O95 2.240 . S
Cd86 O87 2.240 . S
Cd86 O94 2.223 1_556 S
Cd86 O96 2.297 . S
Cd86 O97 2.439 . S
O87 Cd86 2.240 . S
O87 C92 1.279 . S
O88 Cd85 2.297 . S
O88 C90 1.247 . S
O89 Cd85 2.439 . S
O89 C90 1.208 . S
C90 O88 1.247 . S
C90 O89 1.208 . S
C91 O96 1.247 . S
C91 O97 1.208 . S
C92 O84 1.315 . S
C92 O87 1.279 . S
C93 O94 1.312 1_556 S
C93 O95 1.291 . S
O94 Cd86 2.223 1_554 S
O94 C93 1.312 1_554 S
O95 Cd85 2.240 . S
O95 C93 1.291 . S
O96 Cd86 2.297 . S
O96 C91 1.247 . S
O97 Cd86 2.439 . S
O97 C91 1.208 . S
O98 Cd99 2.223 . S
O98 C106 1.315 . S
Cd99 O98 2.223 . S
Cd99 O102 2.297 . S
Cd99 O103 2.439 . S
Cd99 O109 2.240 . S
Cd100 O101 2.240 . S
Cd100 O108 2.223 1_556 S
Cd100 O110 2.297 . S
Cd100 O111 2.439 . S
O101 Cd100 2.240 . S
O101 C106 1.279 . S
O102 Cd99 2.297 . S
O102 C104 1.247 . S
O103 Cd99 2.439 . S
O103 C104 1.208 . S
C104 O102 1.247 . S
C104 O103 1.208 . S
C105 O110 1.247 . S
C105 O111 1.208 . S
C106 O98 1.315 . S
C106 O101 1.279 . S
C107 O108 1.312 1_556 S
C107 O109 1.291 . S
O108 Cd100 2.223 1_554 S
O108 C107 1.312 1_554 S
O109 Cd99 2.240 . S
O109 C107 1.291 . S
O110 Cd100 2.297 . S
O110 C105 1.247 . S
O111 Cd100 2.439 . S
O111 C105 1.208 . S
O112 Cd113 2.223 . S
O112 C120 1.315 . S
Cd113 O112 2.223 . S
Cd113 O116 2.297 . S
Cd113 O117 2.439 . S
Cd113 O123 2.240 . S
Cd114 O115 2.240 . S
Cd114 O122 2.223 1_556 S
Cd114 O124 2.297 . S
Cd114 O125 2.439 . S
O115 Cd114 2.240 . S
O115 C120 1.279 . S
O116 Cd113 2.297 . S
O116 C118 1.247 . S
O117 Cd113 2.439 . S
O117 C118 1.208 . S
C118 O116 1.247 . S
C118 O117 1.208 . S
C119 O124 1.247 . S
C119 O125 1.208 . S
C120 O112 1.315 . S
C120 O115 1.279 . S
C121 O122 1.311 1_556 S
C121 O123 1.296 . S
O122 Cd114 2.223 1_554 S
O122 C121 1.311 1_554 S
O123 Cd113 2.240 . S
O123 C121 1.296 . S
O124 Cd114 2.297 . S
O124 C119 1.247 . S
O125 Cd114 2.439 . S
O125 C119 1.208 . S
O126 Cd127 2.223 . S
O126 C134 1.315 . S
Cd127 O126 2.223 . S
Cd127 O130 2.297 . S
Cd127 O131 2.439 . S
Cd127 O137 2.240 . S
Cd128 O129 2.240 . S
Cd128 O136 2.223 1_554 S
Cd128 O138 2.297 . S
Cd128 O139 2.439 . S
O129 Cd128 2.240 . S
O129 C134 1.279 . S
O130 Cd127 2.297 . S
O130 C132 1.247 . S
O131 Cd127 2.439 . S
O131 C132 1.208 . S
C132 O130 1.247 . S
C132 O131 1.208 . S
C133 O138 1.247 . S
C133 O139 1.208 . S
C134 O126 1.315 . S
C134 O129 1.279 . S
C135 O136 1.312 1_554 S
C135 O137 1.291 . S
O136 Cd128 2.223 1_556 S
O136 C135 1.312 1_556 S
O137 Cd127 2.240 . S
O137 C135 1.291 . S
O138 Cd128 2.297 . S
O138 C133 1.247 . S
O139 Cd128 2.439 . S
O139 C133 1.208 . S
O140 Cd141 2.223 . S
O140 C148 1.315 . S
Cd141 O140 2.223 . S
Cd141 O144 2.297 . S
Cd141 O145 2.439 . S
Cd141 O151 2.240 . S
Cd142 O143 2.240 . S
Cd142 O150 2.223 1_554 S
Cd142 O152 2.297 . S
Cd142 O153 2.439 . S
O143 Cd142 2.240 . S
O143 C148 1.279 . S
O144 Cd141 2.297 . S
O144 C146 1.247 . S
O145 Cd141 2.439 . S
O145 C146 1.208 . S
C146 O144 1.247 . S
C146 O145 1.208 . S
C147 O152 1.247 . S
C147 O153 1.208 . S
C148 O140 1.315 . S
C148 O143 1.279 . S
C149 O150 1.311 1_554 S
C149 O151 1.296 . S
O150 Cd142 2.223 1_556 S
O150 C149 1.311 1_556 S
O151 Cd141 2.240 . S
O151 C149 1.296 . S
O152 Cd142 2.297 . S
O152 C147 1.247 . S
O153 Cd142 2.439 . S
O153 C147 1.208 . S
O154 Cd155 2.223 . S
O154 C162 1.315 . S
Cd155 O154 2.223 . S
Cd155 O158 2.297 . S
Cd155 O159 2.439 . S
Cd155 O165 2.240 . S
Cd156 O157 2.240 . S
Cd156 O164 2.223 1_554 S
Cd156 O166 2.297 . S
Cd156 O167 2.439 . S
O157 Cd156 2.240 . S
O157 C162 1.279 . S
O158 Cd155 2.297 . S
O158 C160 1.247 . S
O159 Cd155 2.439 . S
O159 C160 1.208 . S
C160 O158 1.247 . S
C160 O159 1.208 . S
C161 O166 1.247 . S
C161 O167 1.208 . S
C162 O154 1.315 . S
C162 O157 1.279 . S
C163 O164 1.312 1_554 S
C163 O165 1.291 . S
O164 Cd156 2.223 1_556 S
O164 C163 1.312 1_556 S
O165 Cd155 2.240 . S
O165 C163 1.291 . S
O166 Cd156 2.297 . S
O166 C161 1.247 . S
O167 Cd156 2.439 . S
O167 C161 1.208 . S
O168 Cd169 2.223 . S
O168 C176 1.315 . S
Cd169 O168 2.223 . S
Cd169 O172 2.297 . S
Cd169 O173 2.439 . S
Cd169 O179 2.240 . S
Cd170 O171 2.240 . S
Cd170 O178 2.223 . S
Cd170 O180 2.297 . S
Cd170 O181 2.439 . S
O171 Cd170 2.240 . S
O171 C176 1.279 . S
O172 Cd169 2.297 . S
O172 C174 1.247 . S
O173 Cd169 2.439 . S
O173 C174 1.208 . S
C174 O172 1.247 . S
C174 O173 1.208 . S
C175 O180 1.247 . S
C175 O181 1.208 . S
C176 O168 1.315 . S
C176 O171 1.279 . S
C177 O178 1.315 . S
C177 O179 1.279 . S
O178 Cd170 2.223 . S
O178 C177 1.315 . S
O179 Cd169 2.240 . S
O179 C177 1.279 . S
O180 Cd170 2.297 . S
O180 C175 1.247 . S
O181 Cd170 2.439 . S
O181 C175 1.208 . S
O182 Cd183 2.223 . S
O182 C190 1.315 . S
Cd183 O182 2.223 . S
Cd183 O186 2.297 . S
Cd183 O187 2.439 . S
Cd183 O193 2.240 . S
Cd184 O185 2.240 . S
Cd184 O192 2.223 . S
Cd184 O194 2.297 . S
Cd184 O195 2.439 . S
O185 Cd184 2.240 . S
O185 C190 1.279 . S
O186 Cd183 2.297 . S
O186 C188 1.247 . S
O187 Cd183 2.439 . S
O187 C188 1.208 . S
C188 O186 1.247 . S
C188 O187 1.208 . S
C189 O194 1.247 . S
C189 O195 1.208 . S
C190 O182 1.315 . S
C190 O185 1.279 . S
C191 O192 1.315 . S
C191 O193 1.279 . S
O192 Cd184 2.223 . S
O192 C191 1.315 . S
O193 Cd183 2.240 . S
O193 C191 1.279 . S
O194 Cd184 2.297 . S
O194 C189 1.247 . S
O195 Cd184 2.439 . S
O195 C189 1.208 . S
O196 Cd197 2.223 . S
O196 C204 1.315 . S
Cd197 O196 2.223 . S
Cd197 O200 2.297 . S
Cd197 O201 2.439 . S
Cd197 O207 2.240 . S
Cd198 O199 2.240 . S
Cd198 O206 2.223 . S
Cd198 O208 2.297 . S
Cd198 O209 2.439 . S
O199 Cd198 2.240 . S
O199 C204 1.279 . S
O200 Cd197 2.297 . S
O200 C202 1.247 . S
O201 Cd197 2.439 . S
O201 C202 1.208 . S
C202 O200 1.247 . S
C202 O201 1.208 . S
C203 O208 1.247 . S
C203 O209 1.208 . S
C204 O196 1.315 . S
C204 O199 1.279 . S
C205 O206 1.315 . S
C205 O207 1.279 . S
O206 Cd198 2.223 . S
O206 C205 1.315 . S
O207 Cd197 2.240 . S
O207 C205 1.279 . S
O208 Cd198 2.297 . S
O208 C203 1.247 . S
O209 Cd198 2.439 . S
O209 C203 1.208 . S
O210 Cd211 2.223 . S
O210 C218 1.315 . S
Cd211 O210 2.223 . S
Cd211 O214 2.297 . S
Cd211 O215 2.439 . S
Cd211 O221 2.240 . S
Cd212 O213 2.240 . S
Cd212 O220 2.223 . S
Cd212 O222 2.297 . S
Cd212 O223 2.439 . S
O213 Cd212 2.240 . S
O213 C218 1.279 . S
O214 Cd211 2.297 . S
O214 C216 1.247 . S
O215 Cd211 2.439 . S
O215 C216 1.208 . S
C216 O214 1.247 . S
C216 O215 1.208 . S
C217 O222 1.247 . S
C217 O223 1.208 . S
C218 O210 1.315 . S
C218 O213 1.279 . S
C219 O220 1.315 . S
C219 O221 1.279 . S
O220 Cd212 2.223 . S
O220 C219 1.315 . S
O221 Cd211 2.240 . S
O221 C219 1.279 . S
O222 Cd212 2.297 . S
O222 C217 1.247 . S
O223 Cd212 2.439 . S
O223 C217 1.208 . S
O224 Cd225 2.223 . S
O224 C232 1.315 . S
Cd225 O224 2.223 . S
Cd225 O228 2.297 . S
Cd225 O229 2.439 . S
Cd225 O235 2.240 . S
Cd226 O227 2.240 . S
Cd226 O234 2.223 . S
Cd226 O236 2.297 . S
Cd226 O237 2.439 . S
O227 Cd226 2.240 . S
O227 C232 1.279 . S
O228 Cd225 2.297 . S
O228 C230 1.247 . S
O229 Cd225 2.439 . S
O229 C230 1.208 . S
C230 O228 1.247 . S
C230 O229 1.208 . S
C231 O236 1.247 . S
C231 O237 1.208 . S
C232 O224 1.315 . S
C232 O227 1.279 . S
C233 O234 1.315 . S
C233 O235 1.279 . S
O234 Cd226 2.223 . S
O234 C233 1.315 . S
O235 Cd225 2.240 . S
O235 C233 1.279 . S
O236 Cd226 2.297 . S
O236 C231 1.247 . S
O237 Cd226 2.439 . S
O237 C231 1.208 . S
O238 Cd239 2.223 . S
O238 C246 1.315 . S
Cd239 O238 2.223 . S
Cd239 O242 2.297 . S
Cd239 O243 2.439 . S
Cd239 O249 2.240 . S
Cd240 O241 2.240 . S
Cd240 O248 2.223 . S
Cd240 O250 2.297 . S
Cd240 O251 2.439 . S
O241 Cd240 2.240 . S
O241 C246 1.279 . S
O242 Cd239 2.297 . S
O242 C244 1.247 . S
O243 Cd239 2.439 . S
O243 C244 1.208 . S
C244 O242 1.247 . S
C244 O243 1.208 . S
C245 O250 1.247 . S
C245 O251 1.208 . S
C246 O238 1.315 . S
C246 O241 1.279 . S
C247 O248 1.315 . S
C247 O249 1.279 . S
O248 Cd240 2.223 . S
O248 C247 1.315 . S
O249 Cd239 2.240 . S
O249 C247 1.279 . S
O250 Cd240 2.297 . S
O250 C245 1.247 . S
O251 Cd240 2.439 . S
O251 C245 1.208 . S
O252 Cd253 2.223 . S
O252 C260 1.315 . S
Cd253 O252 2.223 . S
Cd253 O256 2.297 . S
Cd253 O257 2.439 . S
Cd253 O263 2.240 . S
Cd254 O255 2.240 . S
Cd254 O262 2.223 . S
Cd254 O264 2.297 . S
Cd254 O265 2.439 . S
O255 Cd254 2.240 . S
O255 C260 1.279 . S
O256 Cd253 2.297 . S
O256 C258 1.247 . S
O257 Cd253 2.439 . S
O257 C258 1.208 . S
C258 O256 1.247 . S
C258 O257 1.208 . S
C259 O264 1.247 . S
C259 O265 1.208 . S
C260 O252 1.315 . S
C260 O255 1.279 . S
C261 O262 1.315 . S
C261 O263 1.279 . S
O262 Cd254 2.223 . S
O262 C261 1.315 . S
O263 Cd253 2.240 . S
O263 C261 1.279 . S
O264 Cd254 2.297 . S
O264 C259 1.247 . S
O265 Cd254 2.439 . S
O265 C259 1.208 . S
O266 Cd267 2.223 . S
O266 C274 1.315 . S
Cd267 O266 2.223 . S
Cd267 O270 2.297 . S
Cd267 O271 2.439 . S
Cd267 O277 2.240 . S
Cd268 O269 2.240 . S
Cd268 O276 2.223 . S
Cd268 O278 2.297 . S
Cd268 O279 2.439 . S
O269 Cd268 2.240 . S
O269 C274 1.279 . S
O270 Cd267 2.297 . S
O270 C272 1.247 . S
O271 Cd267 2.439 . S
O271 C272 1.208 . S
C272 O270 1.247 . S
C272 O271 1.208 . S
C273 O278 1.247 . S
C273 O279 1.208 . S
C274 O266 1.315 . S
C274 O269 1.279 . S
C275 O276 1.315 . S
C275 O277 1.279 . S
O276 Cd268 2.223 . S
O276 C275 1.315 . S
O277 Cd267 2.240 . S
O277 C275 1.279 . S
O278 Cd268 2.297 . S
O278 C273 1.247 . S
O279 Cd268 2.439 . S
O279 C273 1.208 . S
O280 Cd281 2.223 . S
O280 C288 1.315 . S
Cd281 O280 2.223 . S
Cd281 O284 2.297 . S
Cd281 O285 2.439 . S
Cd281 O291 2.240 . S
Cd282 O283 2.240 . S
Cd282 O290 2.223 . S
Cd282 O292 2.297 . S
Cd282 O293 2.439 . S
O283 Cd282 2.240 . S
O283 C288 1.279 . S
O284 Cd281 2.297 . S
O284 C286 1.247 . S
O285 Cd281 2.439 . S
O285 C286 1.208 . S
C286 O284 1.247 . S
C286 O285 1.208 . S
C287 O292 1.247 . S
C287 O293 1.208 . S
C288 O280 1.315 . S
C288 O283 1.279 . S
C289 O290 1.315 . S
C289 O291 1.279 . S
O290 Cd282 2.223 . S
O290 C289 1.315 . S
O291 Cd281 2.240 . S
O291 C289 1.279 . S
O292 Cd282 2.297 . S
O292 C287 1.247 . S
O293 Cd282 2.439 . S
O293 C287 1.208 . S
O294 Cd295 2.223 . S
O294 C302 1.315 . S
Cd295 O294 2.223 . S
Cd295 O298 2.297 . S
Cd295 O299 2.439 . S
Cd295 O305 2.240 . S
Cd296 O297 2.240 . S
Cd296 O304 2.223 . S
Cd296 O306 2.297 . S
Cd296 O307 2.439 . S
O297 Cd296 2.240 . S
O297 C302 1.279 . S
O298 Cd295 2.297 . S
O298 C300 1.247 . S
O299 Cd295 2.439 . S
O299 C300 1.208 . S
C300 O298 1.247 . S
C300 O299 1.208 . S
C301 O306 1.247 . S
C301 O307 1.208 . S
C302 O294 1.315 . S
C302 O297 1.279 . S
C303 O304 1.315 . S
C303 O305 1.279 . S
O304 Cd296 2.223 . S
O304 C303 1.315 . S
O305 Cd295 2.240 . S
O305 C303 1.279 . S
O306 Cd296 2.297 . S
O306 C301 1.247 . S
O307 Cd296 2.439 . S
O307 C301 1.208 . S
O308 Cd309 2.223 . S
O308 C316 1.315 . S
Cd309 O308 2.223 . S
Cd309 O312 2.297 . S
Cd309 O313 2.439 . S
Cd309 O319 2.240 . S
Cd310 O311 2.240 . S
Cd310 O318 2.223 . S
Cd310 O320 2.297 . S
Cd310 O321 2.439 . S
O311 Cd310 2.240 . S
O311 C316 1.279 . S
O312 Cd309 2.297 . S
O312 C314 1.247 . S
O313 Cd309 2.439 . S
O313 C314 1.208 . S
C314 O312 1.247 . S
C314 O313 1.208 . S
C315 O320 1.247 . S
C315 O321 1.208 . S
C316 O308 1.315 . S
C316 O311 1.279 . S
C317 O318 1.315 . S
C317 O319 1.279 . S
O318 Cd310 2.223 . S
O318 C317 1.315 . S
O319 Cd309 2.240 . S
O319 C317 1.279 . S
O320 Cd310 2.297 . S
O320 C315 1.247 . S
O321 Cd310 2.439 . S
O321 C315 1.208 . S
O322 Cd323 2.223 . S
O322 C330 1.315 . S
Cd323 O322 2.223 . S
Cd323 O326 2.297 . S
Cd323 O327 2.439 . S
Cd323 O333 2.240 . S
Cd324 O325 2.240 . S
Cd324 O332 2.223 . S
Cd324 O334 2.297 . S
Cd324 O335 2.439 . S
O325 Cd324 2.240 . S
O325 C330 1.279 . S
O326 Cd323 2.297 . S
O326 C328 1.247 . S
O327 Cd323 2.439 . S
O327 C328 1.208 . S
C328 O326 1.247 . S
C328 O327 1.208 . S
C329 O334 1.247 . S
C329 O335 1.208 . S
C330 O322 1.315 . S
C330 O325 1.279 . S
C331 O332 1.315 . S
C331 O333 1.279 . S
O332 Cd324 2.223 . S
O332 C331 1.315 . S
O333 Cd323 2.240 . S
O333 C331 1.279 . S
O334 Cd324 2.297 . S
O334 C329 1.247 . S
O335 Cd324 2.439 . S
O335 C329 1.208 . S
O336 Cd337 2.223 . S
O336 C344 1.315 . S
Cd337 O336 2.223 . S
Cd337 O340 2.297 . S
Cd337 O341 2.439 . S
Cd337 O347 2.240 . S
Cd338 O339 2.240 . S
Cd338 O346 2.223 . S
Cd338 O348 2.297 . S
Cd338 O349 2.439 . S
O339 Cd338 2.240 . S
O339 C344 1.279 . S
O340 Cd337 2.297 . S
O340 C342 1.247 . S
O341 Cd337 2.439 . S
O341 C342 1.208 . S
C342 O340 1.247 . S
C342 O341 1.208 . S
C343 O348 1.247 . S
C343 O349 1.208 . S
C344 O336 1.315 . S
C344 O339 1.279 . S
C345 O346 1.315 . S
C345 O347 1.279 . S
O346 Cd338 2.223 . S
O346 C345 1.315 . S
O347 Cd337 2.240 . S
O347 C345 1.279 . S
O348 Cd338 2.297 . S
O348 C343 1.247 . S
O349 Cd338 2.439 . S
O349 C343 1.208 . S
O350 Cd351 2.223 . S
O350 C358 1.315 . S
Cd351 O350 2.223 . S
Cd351 O354 2.297 . S
Cd351 O355 2.439 . S
Cd351 O361 2.240 . S
Cd352 O353 2.240 . S
Cd352 O360 2.223 . S
Cd352 O362 2.297 . S
Cd352 O363 2.439 . S
O353 Cd352 2.240 . S
O353 C358 1.279 . S
O354 Cd351 2.297 . S
O354 C356 1.247 . S
O355 Cd351 2.439 . S
O355 C356 1.208 . S
C356 O354 1.247 . S
C356 O355 1.208 . S
C357 O362 1.247 . S
C357 O363 1.208 . S
C358 O350 1.315 . S
C358 O353 1.279 . S
C359 O360 1.315 . S
C359 O361 1.279 . S
O360 Cd352 2.223 . S
O360 C359 1.315 . S
O361 Cd351 2.240 . S
O361 C359 1.279 . S
O362 Cd352 2.297 . S
O362 C357 1.247 . S
O363 Cd352 2.439 . S
O363 C357 1.208 . S
O364 Cd365 2.223 . S
O364 C372 1.315 . S
Cd365 O364 2.223 . S
Cd365 O368 2.297 . S
Cd365 O369 2.439 . S
Cd365 O375 2.240 . S
Cd366 O367 2.240 . S
Cd366 O374 2.223 . S
Cd366 O376 2.297 . S
Cd366 O377 2.439 . S
O367 Cd366 2.240 . S
O367 C372 1.279 . S
O368 Cd365 2.297 . S
O368 C370 1.247 . S
O369 Cd365 2.439 . S
O369 C370 1.208 . S
C370 O368 1.247 . S
C370 O369 1.208 . S
C371 O376 1.247 . S
C371 O377 1.208 . S
C372 O364 1.315 . S
C372 O367 1.279 . S
C373 O374 1.315 . S
C373 O375 1.279 . S
O374 Cd366 2.223 . S
O374 C373 1.315 . S
O375 Cd365 2.240 . S
O375 C373 1.279 . S
O376 Cd366 2.297 . S
O376 C371 1.247 . S
O377 Cd366 2.439 . S
O377 C371 1.208 . S
O378 Cd379 2.223 . S
O378 C386 1.315 . S
Cd379 O378 2.223 . S
Cd379 O382 2.297 . S
Cd379 O383 2.439 . S
Cd379 O389 2.240 . S
Cd380 O381 2.240 . S
Cd380 O388 2.223 . S
Cd380 O390 2.297 . S
Cd380 O391 2.439 . S
O381 Cd380 2.240 . S
O381 C386 1.279 . S
O382 Cd379 2.297 . S
O382 C384 1.247 . S
O383 Cd379 2.439 . S
O383 C384 1.208 . S
C384 O382 1.247 . S
C384 O383 1.208 . S
C385 O390 1.247 . S
C385 O391 1.208 . S
C386 O378 1.315 . S
C386 O381 1.279 . S
C387 O388 1.315 . S
C387 O389 1.279 . S
O388 Cd380 2.223 . S
O388 C387 1.315 . S
O389 Cd379 2.240 . S
O389 C387 1.279 . S
O390 Cd380 2.297 . S
O390 C385 1.247 . S
O391 Cd380 2.439 . S
O391 C385 1.208 . S
O392 Cd393 2.223 . S
O392 C400 1.315 . S
Cd393 O392 2.223 . S
Cd393 O396 2.297 . S
Cd393 O397 2.439 . S
Cd393 O403 2.240 . S
Cd394 O395 2.240 . S
Cd394 O402 2.223 . S
Cd394 O404 2.297 . S
Cd394 O405 2.439 . S
O395 Cd394 2.240 . S
O395 C400 1.279 . S
O396 Cd393 2.297 . S
O396 C398 1.247 . S
O397 Cd393 2.439 . S
O397 C398 1.208 . S
C398 O396 1.247 . S
C398 O397 1.208 . S
C399 O404 1.247 . S
C399 O405 1.208 . S
C400 O392 1.315 . S
C400 O395 1.279 . S
C401 O402 1.315 . S
C401 O403 1.279 . S
O402 Cd394 2.223 . S
O402 C401 1.315 . S
O403 Cd393 2.240 . S
O403 C401 1.279 . S
O404 Cd394 2.297 . S
O404 C399 1.247 . S
O405 Cd394 2.439 . S
O405 C399 1.208 . S
O406 Cd407 2.223 . S
O406 C414 1.315 . S
Cd407 O406 2.223 . S
Cd407 O410 2.297 . S
Cd407 O411 2.439 . S
Cd407 O417 2.240 . S
Cd408 O409 2.240 . S
Cd408 O416 2.223 . S
Cd408 O418 2.297 . S
Cd408 O419 2.439 . S
O409 Cd408 2.240 . S
O409 C414 1.279 . S
O410 Cd407 2.297 . S
O410 C412 1.247 . S
O411 Cd407 2.439 . S
O411 C412 1.208 . S
C412 O410 1.247 . S
C412 O411 1.208 . S
C413 O418 1.247 . S
C413 O419 1.208 . S
C414 O406 1.315 . S
C414 O409 1.279 . S
C415 O416 1.315 . S
C415 O417 1.279 . S
O416 Cd408 2.223 . S
O416 C415 1.315 . S
O417 Cd407 2.240 . S
O417 C415 1.279 . S
O418 Cd408 2.297 . S
O418 C413 1.247 . S
O419 Cd408 2.439 . S
O419 C413 1.208 . S
O420 Cd421 2.223 . S
O420 C428 1.315 . S
Cd421 O420 2.223 . S
Cd421 O424 2.297 . S
Cd421 O425 2.439 . S
Cd421 O431 2.240 . S
Cd422 O423 2.240 . S
Cd422 O430 2.223 . S
Cd422 O432 2.297 . S
Cd422 O433 2.439 . S
O423 Cd422 2.240 . S
O423 C428 1.279 . S
O424 Cd421 2.297 . S
O424 C426 1.247 . S
O425 Cd421 2.439 . S
O425 C426 1.208 . S
C426 O424 1.247 . S
C426 O425 1.208 . S
C427 O432 1.247 . S
C427 O433 1.208 . S
C428 O420 1.315 . S
C428 O423 1.279 . S
C429 O430 1.315 . S
C429 O431 1.279 . S
O430 Cd422 2.223 . S
O430 C429 1.315 . S
O431 Cd421 2.240 . S
O431 C429 1.279 . S
O432 Cd422 2.297 . S
O432 C427 1.247 . S
O433 Cd422 2.439 . S
O433 C427 1.208 . S
O434 Cd435 2.223 . S
O434 C442 1.315 . S
Cd435 O434 2.223 . S
Cd435 O438 2.297 . S
Cd435 O439 2.439 . S
Cd435 O445 2.240 . S
Cd436 O437 2.240 . S
Cd436 O444 2.223 . S
Cd436 O446 2.297 . S
Cd436 O447 2.439 . S
O437 Cd436 2.240 . S
O437 C442 1.279 . S
O438 Cd435 2.297 . S
O438 C440 1.247 . S
O439 Cd435 2.439 . S
O439 C440 1.208 . S
C440 O438 1.247 . S
C440 O439 1.208 . S
C441 O446 1.247 . S
C441 O447 1.208 . S
C442 O434 1.315 . S
C442 O437 1.279 . S
C443 O444 1.315 . S
C443 O445 1.279 . S
O444 Cd436 2.223 . S
O444 C443 1.315 . S
O445 Cd435 2.240 . S
O445 C443 1.279 . S
O446 Cd436 2.297 . S
O446 C441 1.247 . S
O447 Cd436 2.439 . S
O447 C441 1.208 . S
O448 Cd449 2.223 . S
O448 C456 1.315 . S
Cd449 O448 2.223 . S
Cd449 O452 2.297 . S
Cd449 O453 2.439 . S
Cd449 O459 2.240 . S
Cd450 O451 2.240 . S
Cd450 O458 2.223 . S
Cd450 O460 2.297 . S
Cd450 O461 2.439 . S
O451 Cd450 2.240 . S
O451 C456 1.279 . S
O452 Cd449 2.297 . S
O452 C454 1.247 . S
O453 Cd449 2.439 . S
O453 C454 1.208 . S
C454 O452 1.247 . S
C454 O453 1.208 . S
C455 O460 1.247 . S
C455 O461 1.208 . S
C456 O448 1.315 . S
C456 O451 1.279 . S
C457 O458 1.315 . S
C457 O459 1.279 . S
O458 Cd450 2.223 . S
O458 C457 1.315 . S
O459 Cd449 2.240 . S
O459 C457 1.279 . S
O460 Cd450 2.297 . S
O460 C455 1.247 . S
O461 Cd450 2.439 . S
O461 C455 1.208 . S
O462 Cd463 2.223 . S
O462 C470 1.315 . S
Cd463 O462 2.223 . S
Cd463 O466 2.297 . S
Cd463 O467 2.439 . S
Cd463 O473 2.240 . S
Cd464 O465 2.240 . S
Cd464 O472 2.223 . S
Cd464 O474 2.297 . S
Cd464 O475 2.439 . S
O465 Cd464 2.240 . S
O465 C470 1.279 . S
O466 Cd463 2.297 . S
O466 C468 1.247 . S
O467 Cd463 2.439 . S
O467 C468 1.208 . S
C468 O466 1.247 . S
C468 O467 1.208 . S
C469 O474 1.247 . S
C469 O475 1.208 . S
C470 O462 1.315 . S
C470 O465 1.279 . S
C471 O472 1.315 . S
C471 O473 1.279 . S
O472 Cd464 2.223 . S
O472 C471 1.315 . S
O473 Cd463 2.240 . S
O473 C471 1.279 . S
O474 Cd464 2.297 . S
O474 C469 1.247 . S
O475 Cd464 2.439 . S
O475 C469 1.208 . S
O476 Cd477 2.223 . S
O476 C484 1.315 . S
Cd477 O476 2.223 . S
Cd477 O480 2.297 . S
Cd477 O481 2.439 . S
Cd477 O487 2.240 . S
Cd478 O479 2.240 . S
Cd478 O486 2.223 . S
Cd478 O488 2.297 . S
Cd478 O489 2.439 . S
O479 Cd478 2.240 . S
O479 C484 1.279 . S
O480 Cd477 2.297 . S
O480 C482 1.247 . S
O481 Cd477 2.439 . S
O481 C482 1.208 . S
C482 O480 1.247 . S
C482 O481 1.208 . S
C483 O488 1.247 . S
C483 O489 1.208 . S
C484 O476 1.315 . S
C484 O479 1.279 . S
C485 O486 1.315 . S
C485 O487 1.279 . S
O486 Cd478 2.223 . S
O486 C485 1.315 . S
O487 Cd477 2.240 . S
O487 C485 1.279 . S
O488 Cd478 2.297 . S
O488 C483 1.247 . S
O489 Cd478 2.439 . S
O489 C483 1.208 . S
O490 Cd491 2.223 . S
O490 C498 1.315 . S
Cd491 O490 2.223 . S
Cd491 O494 2.297 . S
Cd491 O495 2.439 . S
Cd491 O501 2.240 . S
Cd492 O493 2.240 . S
Cd492 O500 2.223 . S
Cd492 O502 2.297 . S
Cd492 O503 2.439 . S
O493 Cd492 2.240 . S
O493 C498 1.279 . S
O494 Cd491 2.297 . S
O494 C496 1.247 . S
O495 Cd491 2.439 . S
O495 C496 1.208 . S
C496 O494 1.247 . S
C496 O495 1.208 . S
C497 O502 1.247 . S
C497 O503 1.208 . S
C498 O490 1.315 . S
C498 O493 1.279 . S
C499 O500 1.315 . S
C499 O501 1.279 . S
O500 Cd492 2.223 . S
O500 C499 1.315 . S
O501 Cd491 2.240 . S
O501 C499 1.279 . S
O502 Cd492 2.297 . S
O502 C497 1.247 . S
O503 Cd492 2.439 . S
O503 C497 1.208 . S
C504 C505 1.349 . S
C504 C506 1.327 . S
C504 H529 0.950 . S
C505 C504 1.349 . S
C505 C521 1.349 . S
C506 C504 1.327 . S
C506 C525 1.429 . S
C506 H530 0.950 . S
C507 C524 1.574 . S
C507 C526 1.368 . S
C507 H531 0.949 . S
H508 C512 0.949 . S
C509 C510 1.349 . S
C509 C511 1.327 . S
C509 H532 0.950 . S
C510 C509 1.349 . S
C510 C522 1.349 . S
C511 C509 1.327 . S
C511 C527 1.429 . S
C511 H533 0.950 . S
C512 H508 0.949 . S
C512 C520 1.574 . S
C512 C528 1.368 . S
H513 C521 0.950 . S
H514 C519 0.950 . S
H515 C520 0.949 . S
H516 C522 0.950 . S
H517 C523 0.950 . S
H518 C524 0.949 . S
C519 H514 0.950 . S
C519 C521 1.327 . S
C519 C525 1.429 . S
C520 C512 1.574 . S
C520 H515 0.949 . S
C520 C526 1.368 . S
C521 C505 1.349 . S
C521 H513 0.950 . S
C521 C519 1.327 . S
C522 C510 1.349 . S
C522 H516 0.950 . S
C522 C523 1.327 . S
C523 H517 0.950 . S
C523 C522 1.327 . S
C523 C527 1.429 . S
C524 C507 1.574 . S
C524 H518 0.949 . S
C524 C528 1.368 . S
C525 C506 1.429 . S
C525 C519 1.429 . S
C525 C526 1.523 . S
C526 C507 1.368 . S
C526 C520 1.368 . S
C526 C525 1.523 . S
C527 C511 1.429 . S
C527 C523 1.429 . S
C527 C528 1.523 . S
C528 C512 1.368 . S
C528 C524 1.368 . S
C528 C527 1.523 . S
H529 C504 0.950 . S
H530 C506 0.950 . S
H531 C507 0.949 . S
H532 C509 0.950 . S
H533 C511 0.950 . S
C534 C535 1.349 . S
C534 C536 1.327 . S
C534 H559 0.950 . S
C535 C534 1.349 . S
C535 C551 1.349 . S
C536 C534 1.327 . S
C536 C555 1.429 . S
C536 H560 0.950 . S
C537 C554 1.574 . S
C537 C556 1.368 . S
C537 H561 0.949 . S
H538 C542 0.949 . S
C539 C540 1.349 . S
C539 C541 1.327 . S
C539 H562 0.950 . S
C540 C539 1.349 . S
C540 C552 1.349 . S
C541 C539 1.327 . S
C541 C557 1.429 . S
C541 H563 0.950 . S
C542 H538 0.949 . S
C542 C550 1.574 . S
C542 C558 1.368 . S
H543 C551 0.950 . S
H544 C549 0.950 . S
H545 C550 0.949 . S
H546 C552 0.950 . S
H547 C553 0.950 . S
H548 C554 0.949 . S
C549 H544 0.950 . S
C549 C551 1.327 . S
C549 C555 1.429 . S
C550 C542 1.574 . S
C550 H545 0.949 . S
C550 C556 1.368 . S
C551 C535 1.349 . S
C551 H543 0.950 . S
C551 C549 1.327 . S
C552 C540 1.349 . S
C552 H546 0.950 . S
C552 C553 1.327 . S
C553 H547 0.950 . S
C553 C552 1.327 . S
C553 C557 1.429 . S
C554 C537 1.574 . S
C554 H548 0.949 . S
C554 C558 1.368 . S
C555 C536 1.429 . S
C555 C549 1.429 . S
C555 C556 1.523 . S
C556 C537 1.368 . S
C556 C550 1.368 . S
C556 C555 1.523 . S
C557 C541 1.429 . S
C557 C553 1.429 . S
C557 C558 1.523 . S
C558 C542 1.368 . S
C558 C554 1.368 . S
C558 C557 1.523 . S
H559 C534 0.950 . S
H560 C536 0.950 . S
H561 C537 0.949 . S
H562 C539 0.950 . S
H563 C541 0.950 . S
C564 C565 1.349 . S
C564 C566 1.327 . S
C564 H589 0.950 . S
C565 C564 1.349 . S
C565 C581 1.349 . S
C566 C564 1.327 . S
C566 C585 1.429 . S
C566 H590 0.950 . S
C567 C584 1.574 . S
C567 C586 1.368 . S
C567 H591 0.949 . S
H568 C572 0.949 . S
C569 C570 1.349 . S
C569 C571 1.327 . S
C569 H592 0.950 . S
C570 C569 1.349 . S
C570 C582 1.349 . S
C571 C569 1.327 . S
C571 C587 1.429 . S
C571 H593 0.950 . S
C572 H568 0.949 . S
C572 C580 1.574 . S
C572 C588 1.368 . S
H573 C581 0.950 . S
H574 C579 0.950 . S
H575 C580 0.949 . S
H576 C582 0.950 . S
H577 C583 0.950 . S
H578 C584 0.949 . S
C579 H574 0.950 . S
C579 C581 1.327 . S
C579 C585 1.429 . S
C580 C572 1.574 . S
C580 H575 0.949 . S
C580 C586 1.368 . S
C581 C565 1.349 . S
C581 H573 0.950 . S
C581 C579 1.327 . S
C582 C570 1.349 . S
C582 H576 0.950 . S
C582 C583 1.327 . S
C583 H577 0.950 . S
C583 C582 1.327 . S
C583 C587 1.429 . S
C584 C567 1.574 . S
C584 H578 0.949 . S
C584 C588 1.368 . S
C585 C566 1.429 . S
C585 C579 1.429 . S
C585 C586 1.523 . S
C586 C567 1.368 . S
C586 C580 1.368 . S
C586 C585 1.523 . S
C587 C571 1.429 . S
C587 C583 1.429 . S
C587 C588 1.523 . S
C588 C572 1.368 . S
C588 C584 1.368 . S
C588 C587 1.523 . S
H589 C564 0.950 . S
H590 C566 0.950 . S
H591 C567 0.949 . S
H592 C569 0.950 . S
H593 C571 0.950 . S
C594 C595 1.349 . S
C594 C596 1.327 . S
C594 H619 0.950 . S
C595 C594 1.349 . S
C595 C611 1.349 . S
C596 C594 1.327 . S
C596 C615 1.429 . S
C596 H620 0.950 . S
C597 C614 1.574 . S
C597 C616 1.368 . S
C597 H621 0.949 . S
H598 C602 0.949 . S
C599 C600 1.349 . S
C599 C601 1.327 . S
C599 H622 0.950 . S
C600 C599 1.349 . S
C600 C612 1.349 . S
C601 C599 1.327 . S
C601 C617 1.429 . S
C601 H623 0.950 . S
C602 H598 0.949 . S
C602 C610 1.574 . S
C602 C618 1.368 . S
H603 C611 0.950 . S
H604 C609 0.950 . S
H605 C610 0.949 . S
H606 C612 0.950 . S
H607 C613 0.950 . S
H608 C614 0.949 . S
C609 H604 0.950 . S
C609 C611 1.327 . S
C609 C615 1.429 . S
C610 C602 1.574 . S
C610 H605 0.949 . S
C610 C616 1.368 . S
C611 C595 1.349 . S
C611 H603 0.950 . S
C611 C609 1.327 . S
C612 C600 1.349 . S
C612 H606 0.950 . S
C612 C613 1.327 . S
C613 H607 0.950 . S
C613 C612 1.327 . S
C613 C617 1.429 . S
C614 C597 1.574 . S
C614 H608 0.949 . S
C614 C618 1.368 . S
C615 C596 1.429 . S
C615 C609 1.429 . S
C615 C616 1.523 . S
C616 C597 1.368 . S
C616 C610 1.368 . S
C616 C615 1.523 . S
C617 C601 1.429 . S
C617 C613 1.429 . S
C617 C618 1.523 . S
C618 C602 1.368 . S
C618 C614 1.368 . S
C618 C617 1.523 . S
H619 C594 0.950 . S
H620 C596 0.950 . S
H621 C597 0.949 . S
H622 C599 0.950 . S
H623 C601 0.950 . S
C624 C625 1.349 . S
C624 C626 1.327 . S
C624 H649 0.950 . S
C625 C624 1.349 . S
C625 C641 1.349 . S
C626 C624 1.327 . S
C626 C645 1.429 . S
C626 H650 0.950 . S
C627 C644 1.574 . S
C627 C646 1.368 . S
C627 H651 0.949 . S
H628 C632 0.949 . S
C629 C630 1.349 . S
C629 C631 1.327 . S
C629 H652 0.950 . S
C630 C629 1.349 . S
C630 C642 1.349 . S
C631 C629 1.327 . S
C631 C647 1.429 . S
C631 H653 0.950 . S
C632 H628 0.949 . S
C632 C640 1.574 . S
C632 C648 1.368 . S
H633 C641 0.950 . S
H634 C639 0.950 . S
H635 C640 0.949 . S
H636 C642 0.950 . S
H637 C643 0.950 . S
H638 C644 0.949 . S
C639 H634 0.950 . S
C639 C641 1.327 . S
C639 C645 1.429 . S
C640 C632 1.574 . S
C640 H635 0.949 . S
C640 C646 1.368 . S
C641 C625 1.349 . S
C641 H633 0.950 . S
C641 C639 1.327 . S
C642 C630 1.349 . S
C642 H636 0.950 . S
C642 C643 1.327 . S
C643 H637 0.950 . S
C643 C642 1.327 . S
C643 C647 1.429 . S
C644 C627 1.574 . S
C644 H638 0.949 . S
C644 C648 1.368 . S
C645 C626 1.429 . S
C645 C639 1.429 . S
C645 C646 1.523 . S
C646 C627 1.368 . S
C646 C640 1.368 . S
C646 C645 1.523 . S
C647 C631 1.429 . S
C647 C643 1.429 . S
C647 C648 1.523 . S
C648 C632 1.368 . S
C648 C644 1.368 . S
C648 C647 1.523 . S
H649 C624 0.950 . S
H650 C626 0.950 . S
H651 C627 0.949 . S
H652 C629 0.950 . S
H653 C631 0.950 . S
C654 C655 1.349 . S
C654 C656 1.327 . S
C654 H679 0.950 . S
C655 C654 1.349 . S
C655 C671 1.349 . S
C656 C654 1.327 . S
C656 C675 1.429 . S
C656 H680 0.950 . S
C657 C674 1.574 . S
C657 C676 1.368 . S
C657 H681 0.949 . S
H658 C662 0.949 . S
C659 C660 1.349 . S
C659 C661 1.327 . S
C659 H682 0.950 . S
C660 C659 1.349 . S
C660 C672 1.349 . S
C661 C659 1.327 . S
C661 C677 1.429 . S
C661 H683 0.950 . S
C662 H658 0.949 . S
C662 C670 1.574 . S
C662 C678 1.368 . S
H663 C671 0.950 . S
H664 C669 0.950 . S
H665 C670 0.949 . S
H666 C672 0.950 . S
H667 C673 0.950 . S
H668 C674 0.949 . S
C669 H664 0.950 . S
C669 C671 1.327 . S
C669 C675 1.429 . S
C670 C662 1.574 . S
C670 H665 0.949 . S
C670 C676 1.368 . S
C671 C655 1.349 . S
C671 H663 0.950 . S
C671 C669 1.327 . S
C672 C660 1.349 . S
C672 H666 0.950 . S
C672 C673 1.327 . S
C673 H667 0.950 . S
C673 C672 1.327 . S
C673 C677 1.429 . S
C674 C657 1.574 . S
C674 H668 0.949 . S
C674 C678 1.368 . S
C675 C656 1.429 . S
C675 C669 1.429 . S
C675 C676 1.523 . S
C676 C657 1.368 . S
C676 C670 1.368 . S
C676 C675 1.523 . S
C677 C661 1.429 . S
C677 C673 1.429 . S
C677 C678 1.523 . S
C678 C662 1.368 . S
C678 C674 1.368 . S
C678 C677 1.523 . S
H679 C654 0.950 . S
H680 C656 0.950 . S
H681 C657 0.949 . S
H682 C659 0.950 . S
H683 C661 0.950 . S
C684 C685 1.349 . S
C684 C686 1.327 . S
C684 H709 0.950 . S
C685 C684 1.349 . S
C685 C701 1.349 . S
C686 C684 1.327 . S
C686 C705 1.429 . S
C686 H710 0.950 . S
C687 C704 1.574 . S
C687 C706 1.368 . S
C687 H711 0.949 . S
H688 C692 0.949 . S
C689 C690 1.349 . S
C689 C691 1.327 . S
C689 H712 0.950 . S
C690 C689 1.349 . S
C690 C702 1.349 . S
C691 C689 1.327 . S
C691 C707 1.429 . S
C691 H713 0.950 . S
C692 H688 0.949 . S
C692 C700 1.574 . S
C692 C708 1.368 . S
H693 C701 0.950 . S
H694 C699 0.950 . S
H695 C700 0.949 . S
H696 C702 0.950 . S
H697 C703 0.950 . S
H698 C704 0.949 . S
C699 H694 0.950 . S
C699 C701 1.327 . S
C699 C705 1.429 . S
C700 C692 1.574 . S
C700 H695 0.949 . S
C700 C706 1.368 . S
C701 C685 1.349 . S
C701 H693 0.950 . S
C701 C699 1.327 . S
C702 C690 1.349 . S
C702 H696 0.950 . S
C702 C703 1.327 . S
C703 H697 0.950 . S
C703 C702 1.327 . S
C703 C707 1.429 . S
C704 C687 1.574 . S
C704 H698 0.949 . S
C704 C708 1.368 . S
C705 C686 1.429 . S
C705 C699 1.429 . S
C705 C706 1.523 . S
C706 C687 1.368 . S
C706 C700 1.368 . S
C706 C705 1.523 . S
C707 C691 1.429 . S
C707 C703 1.429 . S
C707 C708 1.523 . S
C708 C692 1.368 . S
C708 C704 1.368 . S
C708 C707 1.523 . S
H709 C684 0.950 . S
H710 C686 0.950 . S
H711 C687 0.949 . S
H712 C689 0.950 . S
H713 C691 0.950 . S
C714 C715 1.349 . S
C714 C716 1.327 . S
C714 H739 0.950 . S
C715 C714 1.349 . S
C715 C731 1.349 . S
C716 C714 1.327 . S
C716 C735 1.429 . S
C716 H740 0.950 . S
C717 C734 1.574 . S
C717 C736 1.368 . S
C717 H741 0.949 . S
H718 C722 0.949 . S
C719 C720 1.349 . S
C719 C721 1.327 . S
C719 H742 0.950 . S
C720 C719 1.349 . S
C720 C732 1.349 . S
C721 C719 1.327 . S
C721 C737 1.429 . S
C721 H743 0.950 . S
C722 H718 0.949 . S
C722 C730 1.574 . S
C722 C738 1.368 . S
H723 C731 0.950 . S
H724 C729 0.950 . S
H725 C730 0.949 . S
H726 C732 0.950 . S
H727 C733 0.950 . S
H728 C734 0.949 . S
C729 H724 0.950 . S
C729 C731 1.327 . S
C729 C735 1.429 . S
C730 C722 1.574 . S
C730 H725 0.949 . S
C730 C736 1.368 . S
C731 C715 1.349 . S
C731 H723 0.950 . S
C731 C729 1.327 . S
C732 C720 1.349 . S
C732 H726 0.950 . S
C732 C733 1.327 . S
C733 H727 0.950 . S
C733 C732 1.327 . S
C733 C737 1.429 . S
C734 C717 1.574 . S
C734 H728 0.949 . S
C734 C738 1.368 . S
C735 C716 1.429 . S
C735 C729 1.429 . S
C735 C736 1.523 . S
C736 C717 1.368 . S
C736 C730 1.368 . S
C736 C735 1.523 . S
C737 C721 1.429 . S
C737 C733 1.429 . S
C737 C738 1.523 . S
C738 C722 1.368 . S
C738 C734 1.368 . S
C738 C737 1.523 . S
H739 C714 0.950 . S
H740 C716 0.950 . S
H741 C717 0.949 . S
H742 C719 0.950 . S
H743 C721 0.950 . S
C744 C745 1.349 . S
C744 C746 1.327 . S
C744 H769 0.950 . S
C745 C744 1.349 . S
C745 C761 1.349 . S
C746 C744 1.327 . S
C746 C765 1.429 . S
C746 H770 0.950 . S
C747 C764 1.574 . S
C747 C766 1.368 . S
C747 H771 0.949 . S
H748 C752 0.949 . S
C749 C750 1.349 . S
C749 C751 1.327 . S
C749 H772 0.950 . S
C750 C749 1.349 . S
C750 C762 1.349 . S
C751 C749 1.327 . S
C751 C767 1.429 . S
C751 H773 0.950 . S
C752 H748 0.949 . S
C752 C760 1.574 . S
C752 C768 1.368 . S
H753 C761 0.950 . S
H754 C759 0.950 . S
H755 C760 0.949 . S
H756 C762 0.950 . S
H757 C763 0.950 . S
H758 C764 0.949 . S
C759 H754 0.950 . S
C759 C761 1.327 . S
C759 C765 1.429 . S
C760 C752 1.574 . S
C760 H755 0.949 . S
C760 C766 1.368 . S
C761 C745 1.349 . S
C761 H753 0.950 . S
C761 C759 1.327 . S
C762 C750 1.349 . S
C762 H756 0.950 . S
C762 C763 1.327 . S
C763 H757 0.950 . S
C763 C762 1.327 . S
C763 C767 1.429 . S
C764 C747 1.574 . S
C764 H758 0.949 . S
C764 C768 1.368 . S
C765 C746 1.429 . S
C765 C759 1.429 . S
C765 C766 1.523 . S
C766 C747 1.368 . S
C766 C760 1.368 . S
C766 C765 1.523 . S
C767 C751 1.429 . S
C767 C763 1.429 . S
C767 C768 1.523 . S
C768 C752 1.368 . S
C768 C764 1.368 . S
C768 C767 1.523 . S
H769 C744 0.950 . S
H770 C746 0.950 . S
H771 C747 0.949 . S
H772 C749 0.950 . S
H773 C751 0.950 . S
C774 C775 1.349 . S
C774 C776 1.327 . S
C774 H799 0.950 . S
C775 C774 1.349 . S
C775 C791 1.349 . S
C776 C774 1.327 . S
C776 C795 1.429 . S
C776 H800 0.950 . S
C777 C794 1.574 . S
C777 C796 1.368 . S
C777 H801 0.949 . S
H778 C782 0.949 . S
C779 C780 1.349 . S
C779 C781 1.327 . S
C779 H802 0.950 . S
C780 C779 1.349 . S
C780 C792 1.349 . S
C781 C779 1.327 . S
C781 C797 1.429 . S
C781 H803 0.950 . S
C782 H778 0.949 . S
C782 C790 1.574 . S
C782 C798 1.368 . S
H783 C791 0.950 . S
H784 C789 0.950 . S
H785 C790 0.949 . S
H786 C792 0.950 . S
H787 C793 0.950 . S
H788 C794 0.949 . S
C789 H784 0.950 . S
C789 C791 1.327 . S
C789 C795 1.429 . S
C790 C782 1.574 . S
C790 H785 0.949 . S
C790 C796 1.368 . S
C791 C775 1.349 . S
C791 H783 0.950 . S
C791 C789 1.327 . S
C792 C780 1.349 . S
C792 H786 0.950 . S
C792 C793 1.327 . S
C793 H787 0.950 . S
C793 C792 1.327 . S
C793 C797 1.429 . S
C794 C777 1.574 . S
C794 H788 0.949 . S
C794 C798 1.368 . S
C795 C776 1.429 . S
C795 C789 1.429 . S
C795 C796 1.523 . S
C796 C777 1.368 . S
C796 C790 1.368 . S
C796 C795 1.523 . S
C797 C781 1.429 . S
C797 C793 1.429 . S
C797 C798 1.523 . S
C798 C782 1.368 . S
C798 C794 1.368 . S
C798 C797 1.523 . S
H799 C774 0.950 . S
H800 C776 0.950 . S
H801 C777 0.949 . S
H802 C779 0.950 . S
H803 C781 0.950 . S
C804 C805 1.349 . S
C804 C806 1.327 . S
C804 H829 0.950 . S
C805 C804 1.349 . S
C805 C821 1.349 . S
C806 C804 1.327 . S
C806 C825 1.429 . S
C806 H830 0.950 . S
C807 C824 1.574 . S
C807 C826 1.368 . S
C807 H831 0.949 . S
H808 C812 0.949 . S
C809 C810 1.349 . S
C809 C811 1.327 . S
C809 H832 0.950 . S
C810 C809 1.349 . S
C810 C822 1.349 . S
C811 C809 1.327 . S
C811 C827 1.429 . S
C811 H833 0.950 . S
C812 H808 0.949 . S
C812 C820 1.574 . S
C812 C828 1.368 . S
H813 C821 0.950 . S
H814 C819 0.950 . S
H815 C820 0.949 . S
H816 C822 0.950 . S
H817 C823 0.950 . S
H818 C824 0.949 . S
C819 H814 0.950 . S
C819 C821 1.327 . S
C819 C825 1.429 . S
C820 C812 1.574 . S
C820 H815 0.949 . S
C820 C826 1.368 . S
C821 C805 1.349 . S
C821 H813 0.950 . S
C821 C819 1.327 . S
C822 C810 1.349 . S
C822 H816 0.950 . S
C822 C823 1.327 . S
C823 H817 0.950 . S
C823 C822 1.327 . S
C823 C827 1.429 . S
C824 C807 1.574 . S
C824 H818 0.949 . S
C824 C828 1.368 . S
C825 C806 1.429 . S
C825 C819 1.429 . S
C825 C826 1.523 . S
C826 C807 1.368 . S
C826 C820 1.368 . S
C826 C825 1.523 . S
C827 C811 1.429 . S
C827 C823 1.429 . S
C827 C828 1.523 . S
C828 C812 1.368 . S
C828 C824 1.368 . S
C828 C827 1.523 . S
H829 C804 0.950 . S
H830 C806 0.950 . S
H831 C807 0.949 . S
H832 C809 0.950 . S
H833 C811 0.950 . S
C834 C835 1.349 . S
C834 C836 1.327 . S
C834 H859 0.950 . S
C835 C834 1.349 . S
C835 C851 1.349 . S
C836 C834 1.327 . S
C836 C855 1.429 . S
C836 H860 0.950 . S
C837 C854 1.574 . S
C837 C856 1.368 . S
C837 H861 0.949 . S
H838 C842 0.949 . S
C839 C840 1.349 . S
C839 C841 1.327 . S
C839 H862 0.950 . S
C840 C839 1.349 . S
C840 C852 1.349 . S
C841 C839 1.327 . S
C841 C857 1.429 . S
C841 H863 0.950 . S
C842 H838 0.949 . S
C842 C850 1.574 . S
C842 C858 1.368 . S
H843 C851 0.950 . S
H844 C849 0.950 . S
H845 C850 0.949 . S
H846 C852 0.950 . S
H847 C853 0.950 . S
H848 C854 0.949 . S
C849 H844 0.950 . S
C849 C851 1.327 . S
C849 C855 1.429 . S
C850 C842 1.574 . S
C850 H845 0.949 . S
C850 C856 1.368 . S
C851 C835 1.349 . S
C851 H843 0.950 . S
C851 C849 1.327 . S
C852 C840 1.349 . S
C852 H846 0.950 . S
C852 C853 1.327 . S
C853 H847 0.950 . S
C853 C852 1.327 . S
C853 C857 1.429 . S
C854 C837 1.574 . S
C854 H848 0.949 . S
C854 C858 1.368 . S
C855 C836 1.429 . S
C855 C849 1.429 . S
C855 C856 1.523 . S
C856 C837 1.368 . S
C856 C850 1.368 . S
C856 C855 1.523 . S
C857 C841 1.429 . S
C857 C853 1.429 . S
C857 C858 1.523 . S
C858 C842 1.368 . S
C858 C854 1.368 . S
C858 C857 1.523 . S
H859 C834 0.950 . S
H860 C836 0.950 . S
H861 C837 0.949 . S
H862 C839 0.950 . S
H863 C841 0.950 . S
C864 C865 1.349 . S
C864 C866 1.327 . S
C864 H889 0.950 . S
C865 C864 1.349 . S
C865 C881 1.349 . S
C866 C864 1.327 . S
C866 C885 1.429 . S
C866 H890 0.950 . S
C867 C884 1.574 . S
C867 C886 1.368 . S
C867 H891 0.949 . S
H868 C872 0.949 . S
C869 C870 1.349 . S
C869 C871 1.327 . S
C869 H892 0.950 . S
C870 C869 1.349 . S
C870 C882 1.349 . S
C871 C869 1.327 . S
C871 C887 1.429 . S
C871 H893 0.950 . S
C872 H868 0.949 . S
C872 C880 1.574 . S
C872 C888 1.368 . S
H873 C881 0.950 . S
H874 C879 0.950 . S
H875 C880 0.949 . S
H876 C882 0.950 . S
H877 C883 0.950 . S
H878 C884 0.949 . S
C879 H874 0.950 . S
C879 C881 1.327 . S
C879 C885 1.429 . S
C880 C872 1.574 . S
C880 H875 0.949 . S
C880 C886 1.368 . S
C881 C865 1.349 . S
C881 H873 0.950 . S
C881 C879 1.327 . S
C882 C870 1.349 . S
C882 H876 0.950 . S
C882 C883 1.327 . S
C883 H877 0.950 . S
C883 C882 1.327 . S
C883 C887 1.429 . S
C884 C867 1.574 . S
C884 H878 0.949 . S
C884 C888 1.368 . S
C885 C866 1.429 . S
C885 C879 1.429 . S
C885 C886 1.523 . S
C886 C867 1.368 . S
C886 C880 1.368 . S
C886 C885 1.523 . S
C887 C871 1.429 . S
C887 C883 1.429 . S
C887 C888 1.523 . S
C888 C872 1.368 . S
C888 C884 1.368 . S
C888 C887 1.523 . S
H889 C864 0.950 . S
H890 C866 0.950 . S
H891 C867 0.949 . S
H892 C869 0.950 . S
H893 C871 0.950 . S
C894 C895 1.349 . S
C894 C896 1.327 . S
C894 H919 0.950 . S
C895 C894 1.349 . S
C895 C911 1.349 . S
C896 C894 1.327 . S
C896 C915 1.429 . S
C896 H920 0.950 . S
C897 C914 1.574 . S
C897 C916 1.368 . S
C897 H921 0.949 . S
H898 C902 0.949 . S
C899 C900 1.349 . S
C899 C901 1.327 . S
C899 H922 0.950 . S
C900 C899 1.349 . S
C900 C912 1.349 . S
C901 C899 1.327 . S
C901 C917 1.429 . S
C901 H923 0.950 . S
C902 H898 0.949 . S
C902 C910 1.574 . S
C902 C918 1.368 . S
H903 C911 0.950 . S
H904 C909 0.950 . S
H905 C910 0.949 . S
H906 C912 0.950 . S
H907 C913 0.950 . S
H908 C914 0.949 . S
C909 H904 0.950 . S
C909 C911 1.327 . S
C909 C915 1.429 . S
C910 C902 1.574 . S
C910 H905 0.949 . S
C910 C916 1.368 . S
C911 C895 1.349 . S
C911 H903 0.950 . S
C911 C909 1.327 . S
C912 C900 1.349 . S
C912 H906 0.950 . S
C912 C913 1.327 . S
C913 H907 0.950 . S
C913 C912 1.327 . S
C913 C917 1.429 . S
C914 C897 1.574 . S
C914 H908 0.949 . S
C914 C918 1.368 . S
C915 C896 1.429 . S
C915 C909 1.429 . S
C915 C916 1.523 . S
C916 C897 1.368 . S
C916 C910 1.368 . S
C916 C915 1.523 . S
C917 C901 1.429 . S
C917 C913 1.429 . S
C917 C918 1.523 . S
C918 C902 1.368 . S
C918 C914 1.368 . S
C918 C917 1.523 . S
H919 C894 0.950 . S
H920 C896 0.950 . S
H921 C897 0.949 . S
H922 C899 0.950 . S
H923 C901 0.950 . S
C924 C925 1.349 . S
C924 C926 1.327 . S
C924 H949 0.950 . S
C925 C924 1.349 . S
C925 C941 1.349 . S
C926 C924 1.327 . S
C926 C945 1.429 . S
C926 H950 0.950 . S
C927 C944 1.574 . S
C927 C946 1.368 . S
C927 H951 0.949 . S
H928 C932 0.949 . S
C929 C930 1.349 . S
C929 C931 1.327 . S
C929 H952 0.950 . S
C930 C929 1.349 . S
C930 C942 1.349 . S
C931 C929 1.327 . S
C931 C947 1.429 . S
C931 H953 0.950 . S
C932 H928 0.949 . S
C932 C940 1.574 . S
C932 C948 1.368 . S
H933 C941 0.950 . S
H934 C939 0.950 . S
H935 C940 0.949 . S
H936 C942 0.950 . S
H937 C943 0.950 . S
H938 C944 0.949 . S
C939 H934 0.950 . S
C939 C941 1.327 . S
C939 C945 1.429 . S
C940 C932 1.574 . S
C940 H935 0.949 . S
C940 C946 1.368 . S
C941 C925 1.349 . S
C941 H933 0.950 . S
C941 C939 1.327 . S
C942 C930 1.349 . S
C942 H936 0.950 . S
C942 C943 1.327 . S
C943 H937 0.950 . S
C943 C942 1.327 . S
C943 C947 1.429 . S
C944 C927 1.574 . S
C944 H938 0.949 . S
C944 C948 1.368 . S
C945 C926 1.429 . S
C945 C939 1.429 . S
C945 C946 1.523 . S
C946 C927 1.368 . S
C946 C940 1.368 . S
C946 C945 1.523 . S
C947 C931 1.429 . S
C947 C943 1.429 . S
C947 C948 1.523 . S
C948 C932 1.368 . S
C948 C944 1.368 . S
C948 C947 1.523 . S
H949 C924 0.950 . S
H950 C926 0.950 . S
H951 C927 0.949 . S
H952 C929 0.950 . S
H953 C931 0.950 . S
C954 C955 1.349 . S
C954 C956 1.327 . S
C954 H979 0.950 . S
C955 C954 1.349 . S
C955 C971 1.349 . S
C956 C954 1.327 . S
C956 C975 1.429 . S
C956 H980 0.950 . S
C957 C974 1.574 . S
C957 C976 1.368 . S
C957 H981 0.949 . S
H958 C962 0.949 . S
C959 C960 1.349 . S
C959 C961 1.327 . S
C959 H982 0.950 . S
C960 C959 1.349 . S
C960 C972 1.349 . S
C961 C959 1.327 . S
C961 C977 1.429 . S
C961 H983 0.950 . S
C962 H958 0.949 . S
C962 C970 1.574 . S
C962 C978 1.368 . S
H963 C971 0.950 . S
H964 C969 0.950 . S
H965 C970 0.949 . S
H966 C972 0.950 . S
H967 C973 0.950 . S
H968 C974 0.949 . S
C969 H964 0.950 . S
C969 C971 1.327 . S
C969 C975 1.429 . S
C970 C962 1.574 . S
C970 H965 0.949 . S
C970 C976 1.368 . S
C971 C955 1.349 . S
C971 H963 0.950 . S
C971 C969 1.327 . S
C972 C960 1.349 . S
C972 H966 0.950 . S
C972 C973 1.327 . S
C973 H967 0.950 . S
C973 C972 1.327 . S
C973 C977 1.429 . S
C974 C957 1.574 . S
C974 H968 0.949 . S
C974 C978 1.368 . S
C975 C956 1.429 . S
C975 C969 1.429 . S
C975 C976 1.523 . S
C976 C957 1.368 . S
C976 C970 1.368 . S
C976 C975 1.523 . S
C977 C961 1.429 . S
C977 C973 1.429 . S
C977 C978 1.523 . S
C978 C962 1.368 . S
C978 C974 1.368 . S
C978 C977 1.523 . S
H979 C954 0.950 . S
H980 C956 0.950 . S
H981 C957 0.949 . S
H982 C959 0.950 . S
H983 C961 0.950 . S
C984 C985 1.349 . S
C984 C986 1.327 . S
C984 H1009 0.950 . S
C985 C984 1.349 . S
C985 C1001 1.349 . S
C986 C984 1.327 . S
C986 C1005 1.429 . S
C986 H1010 0.950 . S
C987 C1004 1.574 . S
C987 C1006 1.368 . S
C987 H1011 0.949 . S
H988 C992 0.949 . S
C989 C990 1.349 . S
C989 C991 1.327 . S
C989 H1012 0.950 . S
C990 C989 1.349 . S
C990 C1002 1.349 . S
C991 C989 1.327 . S
C991 C1007 1.429 . S
C991 H1013 0.950 . S
C992 H988 0.949 . S
C992 C1000 1.574 . S
C992 C1008 1.368 . S
H993 C1001 0.950 . S
H994 C999 0.950 . S
H995 C1000 0.949 . S
H996 C1002 0.950 . S
H997 C1003 0.950 . S
H998 C1004 0.949 . S
C999 H994 0.950 . S
C999 C1001 1.327 . S
C999 C1005 1.429 . S
C1000 C992 1.574 . S
C1000 H995 0.949 . S
C1000 C1006 1.368 . S
C1001 C985 1.349 . S
C1001 H993 0.950 . S
C1001 C999 1.327 . S
C1002 C990 1.349 . S
C1002 H996 0.950 . S
C1002 C1003 1.327 . S
C1003 H997 0.950 . S
C1003 C1002 1.327 . S
C1003 C1007 1.429 . S
C1004 C987 1.574 . S
C1004 H998 0.949 . S
C1004 C1008 1.368 . S
C1005 C986 1.429 . S
C1005 C999 1.429 . S
C1005 C1006 1.523 . S
C1006 C987 1.368 . S
C1006 C1000 1.368 . S
C1006 C1005 1.523 . S
C1007 C991 1.429 . S
C1007 C1003 1.429 . S
C1007 C1008 1.523 . S
C1008 C992 1.368 . S
C1008 C1004 1.368 . S
C1008 C1007 1.523 . S
H1009 C984 0.950 . S
H1010 C986 0.950 . S
H1011 C987 0.949 . S
H1012 C989 0.950 . S
H1013 C991 0.950 . S
C1014 C1015 1.349 . S
C1014 C1016 1.327 . S
C1014 H1039 0.950 . S
C1015 C1014 1.349 . S
C1015 C1031 1.349 . S
C1016 C1014 1.327 . S
C1016 C1035 1.429 . S
C1016 H1040 0.950 . S
C1017 C1034 1.574 . S
C1017 C1036 1.368 . S
C1017 H1041 0.949 . S
H1018 C1022 0.949 . S
C1019 C1020 1.349 . S
C1019 C1021 1.327 . S
C1019 H1042 0.950 . S
C1020 C1019 1.349 . S
C1020 C1032 1.349 . S
C1021 C1019 1.327 . S
C1021 C1037 1.429 . S
C1021 H1043 0.950 . S
C1022 H1018 0.949 . S
C1022 C1030 1.574 . S
C1022 C1038 1.368 . S
H1023 C1031 0.950 . S
H1024 C1029 0.950 . S
H1025 C1030 0.949 . S
H1026 C1032 0.950 . S
H1027 C1033 0.950 . S
H1028 C1034 0.949 . S
C1029 H1024 0.950 . S
C1029 C1031 1.327 . S
C1029 C1035 1.429 . S
C1030 C1022 1.574 . S
C1030 H1025 0.949 . S
C1030 C1036 1.368 . S
C1031 C1015 1.349 . S
C1031 H1023 0.950 . S
C1031 C1029 1.327 . S
C1032 C1020 1.349 . S
C1032 H1026 0.950 . S
C1032 C1033 1.327 . S
C1033 H1027 0.950 . S
C1033 C1032 1.327 . S
C1033 C1037 1.429 . S
C1034 C1017 1.574 . S
C1034 H1028 0.949 . S
C1034 C1038 1.368 . S
C1035 C1016 1.429 . S
C1035 C1029 1.429 . S
C1035 C1036 1.523 . S
C1036 C1017 1.368 . S
C1036 C1030 1.368 . S
C1036 C1035 1.523 . S
C1037 C1021 1.429 . S
C1037 C1033 1.429 . S
C1037 C1038 1.523 . S
C1038 C1022 1.368 . S
C1038 C1034 1.368 . S
C1038 C1037 1.523 . S
H1039 C1014 0.950 . S
H1040 C1016 0.950 . S
H1041 C1017 0.949 . S
H1042 C1019 0.950 . S
H1043 C1021 0.950 . S
C1044 C1045 1.349 . S
C1044 C1046 1.327 . S
C1044 H1069 0.950 . S
C1045 C1044 1.349 . S
C1045 C1061 1.349 . S
C1046 C1044 1.327 . S
C1046 C1065 1.429 . S
C1046 H1070 0.950 . S
C1047 C1064 1.574 1_455 S
C1047 C1066 1.368 1_556 S
C1047 H1071 0.949 . S
H1048 C1052 0.949 . S
C1049 C1050 1.349 . S
C1049 C1051 1.327 . S
C1049 H1072 0.950 . S
C1050 C1049 1.349 . S
C1050 C1062 1.349 . S
C1051 C1049 1.327 . S
C1051 C1067 1.429 . S
C1051 H1073 0.950 . S
C1052 H1048 0.949 . S
C1052 C1060 1.574 1_655 S
C1052 C1068 1.368 1_554 S
H1053 C1061 0.950 1_556 S
H1054 C1059 0.950 . S
H1055 C1060 0.949 . S
H1056 C1062 0.950 1_554 S
H1057 C1063 0.950 . S
H1058 C1064 0.949 . S
C1059 H1054 0.950 . S
C1059 C1061 1.327 1_556 S
C1059 C1065 1.429 1_556 S
C1060 C1052 1.574 1_455 S
C1060 H1055 0.949 . S
C1060 C1066 1.368 . S
C1061 C1045 1.349 . S
C1061 H1053 0.950 1_554 S
C1061 C1059 1.327 1_554 S
C1062 C1050 1.349 . S
C1062 H1056 0.950 1_556 S
C1062 C1063 1.327 1_556 S
C1063 H1057 0.950 . S
C1063 C1062 1.327 1_554 S
C1063 C1067 1.429 1_554 S
C1064 C1047 1.574 1_655 S
C1064 H1058 0.949 . S
C1064 C1068 1.368 . S
C1065 C1046 1.429 . S
C1065 C1059 1.429 1_554 S
C1065 C1066 1.523 . S
C1066 C1047 1.368 1_554 S
C1066 C1060 1.368 . S
C1066 C1065 1.523 . S
C1067 C1051 1.429 . S
C1067 C1063 1.429 1_556 S
C1067 C1068 1.523 . S
C1068 C1052 1.368 1_556 S
C1068 C1064 1.368 . S
C1068 C1067 1.523 . S
H1069 C1044 0.950 . S
H1070 C1046 0.950 . S
H1071 C1047 0.949 . S
H1072 C1049 0.950 . S
H1073 C1051 0.950 . S
C1074 C1075 1.349 . S
C1074 C1076 1.327 1_556 S
C1074 H1099 0.950 1_556 S
C1075 C1074 1.349 . S
C1075 C1091 1.349 . S
C1076 C1074 1.327 1_554 S
C1076 C1095 1.429 1_554 S
C1076 H1100 0.950 . S
C1077 C1094 1.574 . S
C1077 C1096 1.368 . S
C1077 H1101 0.949 . S
H1078 C1082 0.949 . S
C1079 C1080 1.349 . S
C1079 C1081 1.327 1_554 S
C1079 H1102 0.950 1_554 S
C1080 C1079 1.349 . S
C1080 C1092 1.349 . S
C1081 C1079 1.327 1_556 S
C1081 C1097 1.429 1_556 S
C1081 H1103 0.950 . S
C1082 H1078 0.949 . S
C1082 C1090 1.574 . S
C1082 C1098 1.368 . S
H1083 C1091 0.950 . S
H1084 C1089 0.950 . S
H1085 C1090 0.949 . S
H1086 C1092 0.950 . S
H1087 C1093 0.950 . S
H1088 C1094 0.949 . S
C1089 H1084 0.950 . S
C1089 C1091 1.327 . S
C1089 C1095 1.429 . S
C1090 C1082 1.574 . S
C1090 H1085 0.949 . S
C1090 C1096 1.368 1_554 S
C1091 C1075 1.349 . S
C1091 H1083 0.950 . S
C1091 C1089 1.327 . S
C1092 C1080 1.349 . S
C1092 H1086 0.950 . S
C1092 C1093 1.327 . S
C1093 H1087 0.950 . S
C1093 C1092 1.327 . S
C1093 C1097 1.429 . S
C1094 C1077 1.574 . S
C1094 H1088 0.949 . S
C1094 C1098 1.368 1_556 S
C1095 C1076 1.429 1_556 S
C1095 C1089 1.429 . S
C1095 C1096 1.523 . S
C1096 C1077 1.368 . S
C1096 C1090 1.368 1_556 S
C1096 C1095 1.523 . S
C1097 C1081 1.429 1_554 S
C1097 C1093 1.429 . S
C1097 C1098 1.523 . S
C1098 C1082 1.368 . S
C1098 C1094 1.368 1_554 S
C1098 C1097 1.523 . S
H1099 C1074 0.950 1_554 S
H1100 C1076 0.950 . S
H1101 C1077 0.949 . S
H1102 C1079 0.950 1_556 S
H1103 C1081 0.950 . S
C1104 C1105 1.349 . S
C1104 C1106 1.327 . S
C1104 H1129 0.950 . S
C1105 C1104 1.349 . S
C1105 C1121 1.349 . S
C1106 C1104 1.327 . S
C1106 C1125 1.429 . S
C1106 H1130 0.950 . S
C1107 C1124 1.574 1_565 S
C1107 C1126 1.368 1_556 S
C1107 H1131 0.949 . S
H1108 C1112 0.949 . S
C1109 C1110 1.349 . S
C1109 C1111 1.327 . S
C1109 H1132 0.950 . S
C1110 C1109 1.349 . S
C1110 C1122 1.349 . S
C1111 C1109 1.327 . S
C1111 C1127 1.429 . S
C1111 H1133 0.950 . S
C1112 H1108 0.949 . S
C1112 C1120 1.574 1_545 S
C1112 C1128 1.368 1_554 S
H1113 C1121 0.950 . S
H1114 C1119 0.950 1_556 S
H1115 C1120 0.949 . S
H1116 C1122 0.950 . S
H1117 C1123 0.950 1_554 S
H1118 C1124 0.949 . S
C1119 H1114 0.950 1_554 S
C1119 C1121 1.327 . S
C1119 C1125 1.429 . S
C1120 C1112 1.574 1_565 S
C1120 H1115 0.949 . S
C1120 C1126 1.368 . S
C1121 C1105 1.349 . S
C1121 H1113 0.950 . S
C1121 C1119 1.327 . S
C1122 C1110 1.349 . S
C1122 H1116 0.950 . S
C1122 C1123 1.327 . S
C1123 H1117 0.950 1_556 S
C1123 C1122 1.327 . S
C1123 C1127 1.429 . S
C1124 C1107 1.574 1_545 S
C1124 H1118 0.949 . S
C1124 C1128 1.368 . S
C1125 C1106 1.429 . S
C1125 C1119 1.429 . S
C1125 C1126 1.523 . S
C1126 C1107 1.368 1_554 S
C1126 C1120 1.368 . S
C1126 C1125 1.523 . S
C1127 C1111 1.429 . S
C1127 C1123 1.429 . S
C1127 C1128 1.523 . S
C1128 C1112 1.368 1_556 S
C1128 C1124 1.368 . S
C1128 C1127 1.523 . S
H1129 C1104 0.950 . S
H1130 C1106 0.950 . S
H1131 C1107 0.949 . S
H1132 C1109 0.950 . S
H1133 C1111 0.950 . S
C1134 C1135 1.349 . S
C1134 C1136 1.327 . S
C1134 H1159 0.950 . S
C1135 C1134 1.349 . S
C1135 C1151 1.349 . S
C1136 C1134 1.327 . S
C1136 C1155 1.429 . S
C1136 H1160 0.950 . S
C1137 C1154 1.574 1_655 S
C1137 C1156 1.368 1_554 S
C1137 H1161 0.949 . S
H1138 C1142 0.949 . S
C1139 C1140 1.349 . S
C1139 C1141 1.327 . S
C1139 H1162 0.950 . S
C1140 C1139 1.349 . S
C1140 C1152 1.349 . S
C1141 C1139 1.327 . S
C1141 C1157 1.429 . S
C1141 H1163 0.950 . S
C1142 H1138 0.949 . S
C1142 C1150 1.574 1_455 S
C1142 C1158 1.368 1_556 S
H1143 C1151 0.950 . S
H1144 C1149 0.950 1_554 S
H1145 C1150 0.949 . S
H1146 C1152 0.950 . S
H1147 C1153 0.950 1_556 S
H1148 C1154 0.949 . S
C1149 H1144 0.950 1_556 S
C1149 C1151 1.327 . S
C1149 C1155 1.429 . S
C1150 C1142 1.574 1_655 S
C1150 H1145 0.949 . S
C1150 C1156 1.368 . S
C1151 C1135 1.349 . S
C1151 H1143 0.950 . S
C1151 C1149 1.327 . S
C1152 C1140 1.349 . S
C1152 H1146 0.950 . S
C1152 C1153 1.327 . S
C1153 H1147 0.950 1_554 S
C1153 C1152 1.327 . S
C1153 C1157 1.429 . S
C1154 C1137 1.574 1_455 S
C1154 H1148 0.949 . S
C1154 C1158 1.368 . S
C1155 C1136 1.429 . S
C1155 C1149 1.429 . S
C1155 C1156 1.523 . S
C1156 C1137 1.368 1_556 S
C1156 C1150 1.368 . S
C1156 C1155 1.523 . S
C1157 C1141 1.429 . S
C1157 C1153 1.429 . S
C1157 C1158 1.523 . S
C1158 C1142 1.368 1_554 S
C1158 C1154 1.368 . S
C1158 C1157 1.523 . S
H1159 C1134 0.950 . S
H1160 C1136 0.950 . S
H1161 C1137 0.949 . S
H1162 C1139 0.950 . S
H1163 C1141 0.950 . S
C1164 C1165 1.349 . S
C1164 C1166 1.327 1_556 S
C1164 H1189 0.950 1_556 S
C1165 C1164 1.349 . S
C1165 C1181 1.349 . S
C1166 C1164 1.327 1_554 S
C1166 C1185 1.429 1_554 S
C1166 H1190 0.950 . S
C1167 C1184 1.574 . S
C1167 C1186 1.368 . S
C1167 H1191 0.949 . S
H1168 C1172 0.949 . S
C1169 C1170 1.349 . S
C1169 C1171 1.327 1_554 S
C1169 H1192 0.950 1_554 S
C1170 C1169 1.349 . S
C1170 C1182 1.349 . S
C1171 C1169 1.327 1_556 S
C1171 C1187 1.429 1_556 S
C1171 H1193 0.950 . S
C1172 H1168 0.949 . S
C1172 C1180 1.574 . S
C1172 C1188 1.368 . S
H1173 C1181 0.950 . S
H1174 C1179 0.950 . S
H1175 C1180 0.949 . S
H1176 C1182 0.950 . S
H1177 C1183 0.950 . S
H1178 C1184 0.949 . S
C1179 H1174 0.950 . S
C1179 C1181 1.327 . S
C1179 C1185 1.429 . S
C1180 C1172 1.574 . S
C1180 H1175 0.949 . S
C1180 C1186 1.368 1_554 S
C1181 C1165 1.349 . S
C1181 H1173 0.950 . S
C1181 C1179 1.327 . S
C1182 C1170 1.349 . S
C1182 H1176 0.950 . S
C1182 C1183 1.327 . S
C1183 H1177 0.950 . S
C1183 C1182 1.327 . S
C1183 C1187 1.429 . S
C1184 C1167 1.574 . S
C1184 H1178 0.949 . S
C1184 C1188 1.368 1_556 S
C1185 C1166 1.429 1_556 S
C1185 C1179 1.429 . S
C1185 C1186 1.523 . S
C1186 C1167 1.368 . S
C1186 C1180 1.368 1_556 S
C1186 C1185 1.523 . S
C1187 C1171 1.429 1_554 S
C1187 C1183 1.429 . S
C1187 C1188 1.523 . S
C1188 C1172 1.368 . S
C1188 C1184 1.368 1_554 S
C1188 C1187 1.523 . S
H1189 C1164 0.950 1_554 S
H1190 C1166 0.950 . S
H1191 C1167 0.949 . S
H1192 C1169 0.950 1_556 S
H1193 C1171 0.950 . S
C1194 C1195 1.349 . S
C1194 C1196 1.327 . S
C1194 H1219 0.950 . S
C1195 C1194 1.349 . S
C1195 C1211 1.349 . S
C1196 C1194 1.327 . S
C1196 C1215 1.429 . S
C1196 H1220 0.950 . S
C1197 C1214 1.574 1_545 S
C1197 C1216 1.368 1_554 S
C1197 H1221 0.949 . S
H1198 C1202 0.949 . S
C1199 C1200 1.349 . S
C1199 C1201 1.327 . S
C1199 H1222 0.950 . S
C1200 C1199 1.349 . S
C1200 C1212 1.349 . S
C1201 C1199 1.327 . S
C1201 C1217 1.429 . S
C1201 H1223 0.950 . S
C1202 H1198 0.949 . S
C1202 C1210 1.574 1_565 S
C1202 C1218 1.368 1_556 S
H1203 C1211 0.950 1_554 S
H1204 C1209 0.950 . S
H1205 C1210 0.949 . S
H1206 C1212 0.950 1_556 S
H1207 C1213 0.950 . S
H1208 C1214 0.949 . S
C1209 H1204 0.950 . S
C1209 C1211 1.327 1_554 S
C1209 C1215 1.429 1_554 S
C1210 C1202 1.574 1_545 S
C1210 H1205 0.949 . S
C1210 C1216 1.368 . S
C1211 C1195 1.349 . S
C1211 H1203 0.950 1_556 S
C1211 C1209 1.327 1_556 S
C1212 C1200 1.349 . S
C1212 H1206 0.950 1_554 S
C1212 C1213 1.327 1_554 S
C1213 H1207 0.950 . S
C1213 C1212 1.327 1_556 S
C1213 C1217 1.429 1_556 S
C1214 C1197 1.574 1_565 S
C1214 H1208 0.949 . S
C1214 C1218 1.368 . S
C1215 C1196 1.429 . S
C1215 C1209 1.429 1_556 S
C1215 C1216 1.523 . S
C1216 C1197 1.368 1_556 S
C1216 C1210 1.368 . S
C1216 C1215 1.523 . S
C1217 C1201 1.429 . S
C1217 C1213 1.429 1_554 S
C1217 C1218 1.523 . S
C1218 C1202 1.368 1_554 S
C1218 C1214 1.368 . S
C1218 C1217 1.523 . S
H1219 C1194 0.950 . S
H1220 C1196 0.950 . S
H1221 C1197 0.949 . S
H1222 C1199 0.950 . S
H1223 C1201 0.950 . S
C1224 C1225 1.349 . S
C1224 C1226 1.327 . S
C1224 H1249 0.950 . S
C1225 C1224 1.349 . S
C1225 C1241 1.349 . S
C1226 C1224 1.327 . S
C1226 C1245 1.429 . S
C1226 H1250 0.950 . S
C1227 C1244 1.574 . S
C1227 C1246 1.368 . S
C1227 H1251 0.949 . S
H1228 C1232 0.949 . S
C1229 C1230 1.349 . S
C1229 C1231 1.327 . S
C1229 H1252 0.950 . S
C1230 C1229 1.349 . S
C1230 C1242 1.349 . S
C1231 C1229 1.327 . S
C1231 C1247 1.429 . S
C1231 H1253 0.950 . S
C1232 H1228 0.949 . S
C1232 C1240 1.574 . S
C1232 C1248 1.368 . S
H1233 C1241 0.950 . S
H1234 C1239 0.950 . S
H1235 C1240 0.949 . S
H1236 C1242 0.950 . S
H1237 C1243 0.950 . S
H1238 C1244 0.949 . S
C1239 H1234 0.950 . S
C1239 C1241 1.327 . S
C1239 C1245 1.429 . S
C1240 C1232 1.574 . S
C1240 H1235 0.949 . S
C1240 C1246 1.368 . S
C1241 C1225 1.349 . S
C1241 H1233 0.950 . S
C1241 C1239 1.327 . S
C1242 C1230 1.349 . S
C1242 H1236 0.950 . S
C1242 C1243 1.327 . S
C1243 H1237 0.950 . S
C1243 C1242 1.327 . S
C1243 C1247 1.429 . S
C1244 C1227 1.574 . S
C1244 H1238 0.949 . S
C1244 C1248 1.368 . S
C1245 C1226 1.429 . S
C1245 C1239 1.429 . S
C1245 C1246 1.523 . S
C1246 C1227 1.368 . S
C1246 C1240 1.368 . S
C1246 C1245 1.523 . S
C1247 C1231 1.429 . S
C1247 C1243 1.429 . S
C1247 C1248 1.523 . S
C1248 C1232 1.368 . S
C1248 C1244 1.368 . S
C1248 C1247 1.523 . S
H1249 C1224 0.950 . S
H1250 C1226 0.950 . S
H1251 C1227 0.949 . S
H1252 C1229 0.950 . S
H1253 C1231 0.950 . S
C1254 C1255 1.349 . S
C1254 C1256 1.327 . S
C1254 H1279 0.950 . S
C1255 C1254 1.349 . S
C1255 C1271 1.349 . S
C1256 C1254 1.327 . S
C1256 C1275 1.429 . S
C1256 H1280 0.950 . S
C1257 C1274 1.574 . S
C1257 C1276 1.368 . S
C1257 H1281 0.949 . S
H1258 C1262 0.949 . S
C1259 C1260 1.349 . S
C1259 C1261 1.327 . S
C1259 H1282 0.950 . S
C1260 C1259 1.349 . S
C1260 C1272 1.349 . S
C1261 C1259 1.327 . S
C1261 C1277 1.429 . S
C1261 H1283 0.950 . S
C1262 H1258 0.949 . S
C1262 C1270 1.574 . S
C1262 C1278 1.368 . S
H1263 C1271 0.950 . S
H1264 C1269 0.950 . S
H1265 C1270 0.949 . S
H1266 C1272 0.950 . S
H1267 C1273 0.950 . S
H1268 C1274 0.949 . S
C1269 H1264 0.950 . S
C1269 C1271 1.327 . S
C1269 C1275 1.429 . S
C1270 C1262 1.574 . S
C1270 H1265 0.949 . S
C1270 C1276 1.368 . S
C1271 C1255 1.349 . S
C1271 H1263 0.950 . S
C1271 C1269 1.327 . S
C1272 C1260 1.349 . S
C1272 H1266 0.950 . S
C1272 C1273 1.327 . S
C1273 H1267 0.950 . S
C1273 C1272 1.327 . S
C1273 C1277 1.429 . S
C1274 C1257 1.574 . S
C1274 H1268 0.949 . S
C1274 C1278 1.368 . S
C1275 C1256 1.429 . S
C1275 C1269 1.429 . S
C1275 C1276 1.523 . S
C1276 C1257 1.368 . S
C1276 C1270 1.368 . S
C1276 C1275 1.523 . S
C1277 C1261 1.429 . S
C1277 C1273 1.429 . S
C1277 C1278 1.523 . S
C1278 C1262 1.368 . S
C1278 C1274 1.368 . S
C1278 C1277 1.523 . S
H1279 C1254 0.950 . S
H1280 C1256 0.950 . S
H1281 C1257 0.949 . S
H1282 C1259 0.950 . S
H1283 C1261 0.950 . S
C1284 C1285 1.349 . S
C1284 C1286 1.327 . S
C1284 H1309 0.950 . S
C1285 C1284 1.349 . S
C1285 C1301 1.349 . S
C1286 C1284 1.327 . S
C1286 C1305 1.429 . S
C1286 H1310 0.950 . S
C1287 C1304 1.574 . S
C1287 C1306 1.368 . S
C1287 H1311 0.949 . S
H1288 C1292 0.949 . S
C1289 C1290 1.349 . S
C1289 C1291 1.327 . S
C1289 H1312 0.950 . S
C1290 C1289 1.349 . S
C1290 C1302 1.349 . S
C1291 C1289 1.327 . S
C1291 C1307 1.429 . S
C1291 H1313 0.950 . S
C1292 H1288 0.949 . S
C1292 C1300 1.574 . S
C1292 C1308 1.368 . S
H1293 C1301 0.950 . S
H1294 C1299 0.950 . S
H1295 C1300 0.949 . S
H1296 C1302 0.950 . S
H1297 C1303 0.950 . S
H1298 C1304 0.949 . S
C1299 H1294 0.950 . S
C1299 C1301 1.327 . S
C1299 C1305 1.429 . S
C1300 C1292 1.574 . S
C1300 H1295 0.949 . S
C1300 C1306 1.368 . S
C1301 C1285 1.349 . S
C1301 H1293 0.950 . S
C1301 C1299 1.327 . S
C1302 C1290 1.349 . S
C1302 H1296 0.950 . S
C1302 C1303 1.327 . S
C1303 H1297 0.950 . S
C1303 C1302 1.327 . S
C1303 C1307 1.429 . S
C1304 C1287 1.574 . S
C1304 H1298 0.949 . S
C1304 C1308 1.368 . S
C1305 C1286 1.429 . S
C1305 C1299 1.429 . S
C1305 C1306 1.523 . S
C1306 C1287 1.368 . S
C1306 C1300 1.368 . S
C1306 C1305 1.523 . S
C1307 C1291 1.429 . S
C1307 C1303 1.429 . S
C1307 C1308 1.523 . S
C1308 C1292 1.368 . S
C1308 C1304 1.368 . S
C1308 C1307 1.523 . S
H1309 C1284 0.950 . S
H1310 C1286 0.950 . S
H1311 C1287 0.949 . S
H1312 C1289 0.950 . S
H1313 C1291 0.950 . S
C1314 C1315 1.349 . S
C1314 C1316 1.327 . S
C1314 H1339 0.950 . S
C1315 C1314 1.349 . S
C1315 C1331 1.349 . S
C1316 C1314 1.327 . S
C1316 C1335 1.429 . S
C1316 H1340 0.950 . S
C1317 C1334 1.574 . S
C1317 C1336 1.368 . S
C1317 H1341 0.949 . S
H1318 C1322 0.949 . S
C1319 C1320 1.349 . S
C1319 C1321 1.327 . S
C1319 H1342 0.950 . S
C1320 C1319 1.349 . S
C1320 C1332 1.349 . S
C1321 C1319 1.327 . S
C1321 C1337 1.429 . S
C1321 H1343 0.950 . S
C1322 H1318 0.949 . S
C1322 C1330 1.574 . S
C1322 C1338 1.368 . S
H1323 C1331 0.950 . S
H1324 C1329 0.950 . S
H1325 C1330 0.949 . S
H1326 C1332 0.950 . S
H1327 C1333 0.950 . S
H1328 C1334 0.949 . S
C1329 H1324 0.950 . S
C1329 C1331 1.327 . S
C1329 C1335 1.429 . S
C1330 C1322 1.574 . S
C1330 H1325 0.949 . S
C1330 C1336 1.368 . S
C1331 C1315 1.349 . S
C1331 H1323 0.950 . S
C1331 C1329 1.327 . S
C1332 C1320 1.349 . S
C1332 H1326 0.950 . S
C1332 C1333 1.327 . S
C1333 H1327 0.950 . S
C1333 C1332 1.327 . S
C1333 C1337 1.429 . S
C1334 C1317 1.574 . S
C1334 H1328 0.949 . S
C1334 C1338 1.368 . S
C1335 C1316 1.429 . S
C1335 C1329 1.429 . S
C1335 C1336 1.523 . S
C1336 C1317 1.368 . S
C1336 C1330 1.368 . S
C1336 C1335 1.523 . S
C1337 C1321 1.429 . S
C1337 C1333 1.429 . S
C1337 C1338 1.523 . S
C1338 C1322 1.368 . S
C1338 C1334 1.368 . S
C1338 C1337 1.523 . S
H1339 C1314 0.950 . S
H1340 C1316 0.950 . S
H1341 C1317 0.949 . S
H1342 C1319 0.950 . S
H1343 C1321 0.950 . S
C1344 C1345 1.349 . S
C1344 C1346 1.327 . S
C1344 H1369 0.950 . S
C1345 C1344 1.349 . S
C1345 C1361 1.349 . S
C1346 C1344 1.327 . S
C1346 C1365 1.429 . S
C1346 H1370 0.950 . S
C1347 C1364 1.574 . S
C1347 C1366 1.368 . S
C1347 H1371 0.949 . S
H1348 C1352 0.949 . S
C1349 C1350 1.349 . S
C1349 C1351 1.327 . S
C1349 H1372 0.950 . S
C1350 C1349 1.349 . S
C1350 C1362 1.349 . S
C1351 C1349 1.327 . S
C1351 C1367 1.429 . S
C1351 H1373 0.950 . S
C1352 H1348 0.949 . S
C1352 C1360 1.574 . S
C1352 C1368 1.368 . S
H1353 C1361 0.950 . S
H1354 C1359 0.950 . S
H1355 C1360 0.949 . S
H1356 C1362 0.950 . S
H1357 C1363 0.950 . S
H1358 C1364 0.949 . S
C1359 H1354 0.950 . S
C1359 C1361 1.327 . S
C1359 C1365 1.429 . S
C1360 C1352 1.574 . S
C1360 H1355 0.949 . S
C1360 C1366 1.368 . S
C1361 C1345 1.349 . S
C1361 H1353 0.950 . S
C1361 C1359 1.327 . S
C1362 C1350 1.349 . S
C1362 H1356 0.950 . S
C1362 C1363 1.327 . S
C1363 H1357 0.950 . S
C1363 C1362 1.327 . S
C1363 C1367 1.429 . S
C1364 C1347 1.574 . S
C1364 H1358 0.949 . S
C1364 C1368 1.368 . S
C1365 C1346 1.429 . S
C1365 C1359 1.429 . S
C1365 C1366 1.523 . S
C1366 C1347 1.368 . S
C1366 C1360 1.368 . S
C1366 C1365 1.523 . S
C1367 C1351 1.429 . S
C1367 C1363 1.429 . S
C1367 C1368 1.523 . S
C1368 C1352 1.368 . S
C1368 C1364 1.368 . S
C1368 C1367 1.523 . S
H1369 C1344 0.950 . S
H1370 C1346 0.950 . S
H1371 C1347 0.949 . S
H1372 C1349 0.950 . S
H1373 C1351 0.950 . S
C1374 C1375 1.349 . S
C1374 C1376 1.327 . S
C1374 H1399 0.950 . S
C1375 C1374 1.349 . S
C1375 C1391 1.349 . S
C1376 C1374 1.327 . S
C1376 C1395 1.429 . S
C1376 H1400 0.950 . S
C1377 C1394 1.574 . S
C1377 C1396 1.368 . S
C1377 H1401 0.949 . S
H1378 C1382 0.949 . S
C1379 C1380 1.349 . S
C1379 C1381 1.327 . S
C1379 H1402 0.950 . S
C1380 C1379 1.349 . S
C1380 C1392 1.349 . S
C1381 C1379 1.327 . S
C1381 C1397 1.429 . S
C1381 H1403 0.950 . S
C1382 H1378 0.949 . S
C1382 C1390 1.574 . S
C1382 C1398 1.368 . S
H1383 C1391 0.950 . S
H1384 C1389 0.950 . S
H1385 C1390 0.949 . S
H1386 C1392 0.950 . S
H1387 C1393 0.950 . S
H1388 C1394 0.949 . S
C1389 H1384 0.950 . S
C1389 C1391 1.327 . S
C1389 C1395 1.429 . S
C1390 C1382 1.574 . S
C1390 H1385 0.949 . S
C1390 C1396 1.368 . S
C1391 C1375 1.349 . S
C1391 H1383 0.950 . S
C1391 C1389 1.327 . S
C1392 C1380 1.349 . S
C1392 H1386 0.950 . S
C1392 C1393 1.327 . S
C1393 H1387 0.950 . S
C1393 C1392 1.327 . S
C1393 C1397 1.429 . S
C1394 C1377 1.574 . S
C1394 H1388 0.949 . S
C1394 C1398 1.368 . S
C1395 C1376 1.429 . S
C1395 C1389 1.429 . S
C1395 C1396 1.523 . S
C1396 C1377 1.368 . S
C1396 C1390 1.368 . S
C1396 C1395 1.523 . S
C1397 C1381 1.429 . S
C1397 C1393 1.429 . S
C1397 C1398 1.523 . S
C1398 C1382 1.368 . S
C1398 C1394 1.368 . S
C1398 C1397 1.523 . S
H1399 C1374 0.950 . S
H1400 C1376 0.950 . S
H1401 C1377 0.949 . S
H1402 C1379 0.950 . S
H1403 C1381 0.950 . S
C1404 C1405 1.349 . S
C1404 C1406 1.327 . S
C1404 H1429 0.950 . S
C1405 C1404 1.349 . S
C1405 C1421 1.349 . S
C1406 C1404 1.327 . S
C1406 C1425 1.429 . S
C1406 H1430 0.950 . S
C1407 C1424 1.574 . S
C1407 C1426 1.368 . S
C1407 H1431 0.949 . S
H1408 C1412 0.949 . S
C1409 C1410 1.349 . S
C1409 C1411 1.327 . S
C1409 H1432 0.950 . S
C1410 C1409 1.349 . S
C1410 C1422 1.349 . S
C1411 C1409 1.327 . S
C1411 C1427 1.429 . S
C1411 H1433 0.950 . S
C1412 H1408 0.949 . S
C1412 C1420 1.574 . S
C1412 C1428 1.368 . S
H1413 C1421 0.950 . S
H1414 C1419 0.950 . S
H1415 C1420 0.949 . S
H1416 C1422 0.950 . S
H1417 C1423 0.950 . S
H1418 C1424 0.949 . S
C1419 H1414 0.950 . S
C1419 C1421 1.327 . S
C1419 C1425 1.429 . S
C1420 C1412 1.574 . S
C1420 H1415 0.949 . S
C1420 C1426 1.368 . S
C1421 C1405 1.349 . S
C1421 H1413 0.950 . S
C1421 C1419 1.327 . S
C1422 C1410 1.349 . S
C1422 H1416 0.950 . S
C1422 C1423 1.327 . S
C1423 H1417 0.950 . S
C1423 C1422 1.327 . S
C1423 C1427 1.429 . S
C1424 C1407 1.574 . S
C1424 H1418 0.949 . S
C1424 C1428 1.368 . S
C1425 C1406 1.429 . S
C1425 C1419 1.429 . S
C1425 C1426 1.523 . S
C1426 C1407 1.368 . S
C1426 C1420 1.368 . S
C1426 C1425 1.523 . S
C1427 C1411 1.429 . S
C1427 C1423 1.429 . S
C1427 C1428 1.523 . S
C1428 C1412 1.368 . S
C1428 C1424 1.368 . S
C1428 C1427 1.523 . S
H1429 C1404 0.950 . S
H1430 C1406 0.950 . S
H1431 C1407 0.949 . S
H1432 C1409 0.950 . S
H1433 C1411 0.950 . S
C1434 C1435 1.349 . S
C1434 C1436 1.327 . S
C1434 H1459 0.950 . S
C1435 C1434 1.349 . S
C1435 C1451 1.349 . S
C1436 C1434 1.327 . S
C1436 C1455 1.429 . S
C1436 H1460 0.950 . S
C1437 C1454 1.574 . S
C1437 C1456 1.368 . S
C1437 H1461 0.949 . S
H1438 C1442 0.949 . S
C1439 C1440 1.349 . S
C1439 C1441 1.327 . S
C1439 H1462 0.950 . S
C1440 C1439 1.349 . S
C1440 C1452 1.349 . S
C1441 C1439 1.327 . S
C1441 C1457 1.429 . S
C1441 H1463 0.950 . S
C1442 H1438 0.949 . S
C1442 C1450 1.574 . S
C1442 C1458 1.368 . S
H1443 C1451 0.950 . S
H1444 C1449 0.950 . S
H1445 C1450 0.949 . S
H1446 C1452 0.950 . S
H1447 C1453 0.950 . S
H1448 C1454 0.949 . S
C1449 H1444 0.950 . S
C1449 C1451 1.327 . S
C1449 C1455 1.429 . S
C1450 C1442 1.574 . S
C1450 H1445 0.949 . S
C1450 C1456 1.368 . S
C1451 C1435 1.349 . S
C1451 H1443 0.950 . S
C1451 C1449 1.327 . S
C1452 C1440 1.349 . S
C1452 H1446 0.950 . S
C1452 C1453 1.327 . S
C1453 H1447 0.950 . S
C1453 C1452 1.327 . S
C1453 C1457 1.429 . S
C1454 C1437 1.574 . S
C1454 H1448 0.949 . S
C1454 C1458 1.368 . S
C1455 C1436 1.429 . S
C1455 C1449 1.429 . S
C1455 C1456 1.523 . S
C1456 C1437 1.368 . S
C1456 C1450 1.368 . S
C1456 C1455 1.523 . S
C1457 C1441 1.429 . S
C1457 C1453 1.429 . S
C1457 C1458 1.523 . S
C1458 C1442 1.368 . S
C1458 C1454 1.368 . S
C1458 C1457 1.523 . S
H1459 C1434 0.950 . S
H1460 C1436 0.950 . S
H1461 C1437 0.949 . S
H1462 C1439 0.950 . S
H1463 C1441 0.950 . S
C1464 C1465 1.349 . S
C1464 C1466 1.327 . S
C1464 H1489 0.950 . S
C1465 C1464 1.349 . S
C1465 C1481 1.349 . S
C1466 C1464 1.327 . S
C1466 C1485 1.429 . S
C1466 H1490 0.950 . S
C1467 C1484 1.574 . S
C1467 C1486 1.368 . S
C1467 H1491 0.949 . S
H1468 C1472 0.949 . S
C1469 C1470 1.349 . S
C1469 C1471 1.327 . S
C1469 H1492 0.950 . S
C1470 C1469 1.349 . S
C1470 C1482 1.349 . S
C1471 C1469 1.327 . S
C1471 C1487 1.429 . S
C1471 H1493 0.950 . S
C1472 H1468 0.949 . S
C1472 C1480 1.574 . S
C1472 C1488 1.368 . S
H1473 C1481 0.950 . S
H1474 C1479 0.950 . S
H1475 C1480 0.949 . S
H1476 C1482 0.950 . S
H1477 C1483 0.950 . S
H1478 C1484 0.949 . S
C1479 H1474 0.950 . S
C1479 C1481 1.327 . S
C1479 C1485 1.429 . S
C1480 C1472 1.574 . S
C1480 H1475 0.949 . S
C1480 C1486 1.368 . S
C1481 C1465 1.349 . S
C1481 H1473 0.950 . S
C1481 C1479 1.327 . S
C1482 C1470 1.349 . S
C1482 H1476 0.950 . S
C1482 C1483 1.327 . S
C1483 H1477 0.950 . S
C1483 C1482 1.327 . S
C1483 C1487 1.429 . S
C1484 C1467 1.574 . S
C1484 H1478 0.949 . S
C1484 C1488 1.368 . S
C1485 C1466 1.429 . S
C1485 C1479 1.429 . S
C1485 C1486 1.523 . S
C1486 C1467 1.368 . S
C1486 C1480 1.368 . S
C1486 C1485 1.523 . S
C1487 C1471 1.429 . S
C1487 C1483 1.429 . S
C1487 C1488 1.523 . S
C1488 C1472 1.368 . S
C1488 C1484 1.368 . S
C1488 C1487 1.523 . S
H1489 C1464 0.950 . S
H1490 C1466 0.950 . S
H1491 C1467 0.949 . S
H1492 C1469 0.950 . S
H1493 C1471 0.950 . S
C1494 C1495 1.349 . S
C1494 C1496 1.327 . S
C1494 H1519 0.950 . S
C1495 C1494 1.349 . S
C1495 C1511 1.349 . S
C1496 C1494 1.327 . S
C1496 C1515 1.429 . S
C1496 H1520 0.950 . S
C1497 C1514 1.574 . S
C1497 C1516 1.368 . S
C1497 H1521 0.949 . S
H1498 C1502 0.949 . S
C1499 C1500 1.349 . S
C1499 C1501 1.327 . S
C1499 H1522 0.950 . S
C1500 C1499 1.349 . S
C1500 C1512 1.349 . S
C1501 C1499 1.327 . S
C1501 C1517 1.429 . S
C1501 H1523 0.950 . S
C1502 H1498 0.949 . S
C1502 C1510 1.574 . S
C1502 C1518 1.368 . S
H1503 C1511 0.950 . S
H1504 C1509 0.950 . S
H1505 C1510 0.949 . S
H1506 C1512 0.950 . S
H1507 C1513 0.950 . S
H1508 C1514 0.949 . S
C1509 H1504 0.950 . S
C1509 C1511 1.327 . S
C1509 C1515 1.429 . S
C1510 C1502 1.574 . S
C1510 H1505 0.949 . S
C1510 C1516 1.368 . S
C1511 C1495 1.349 . S
C1511 H1503 0.950 . S
C1511 C1509 1.327 . S
C1512 C1500 1.349 . S
C1512 H1506 0.950 . S
C1512 C1513 1.327 . S
C1513 H1507 0.950 . S
C1513 C1512 1.327 . S
C1513 C1517 1.429 . S
C1514 C1497 1.574 . S
C1514 H1508 0.949 . S
C1514 C1518 1.368 . S
C1515 C1496 1.429 . S
C1515 C1509 1.429 . S
C1515 C1516 1.523 . S
C1516 C1497 1.368 . S
C1516 C1510 1.368 . S
C1516 C1515 1.523 . S
C1517 C1501 1.429 . S
C1517 C1513 1.429 . S
C1517 C1518 1.523 . S
C1518 C1502 1.368 . S
C1518 C1514 1.368 . S
C1518 C1517 1.523 . S
H1519 C1494 0.950 . S
H1520 C1496 0.950 . S
H1521 C1497 0.949 . S
H1522 C1499 0.950 . S
H1523 C1501 0.950 . S
C1524 C1525 1.349 . S
C1524 C1526 1.327 . S
C1524 H1549 0.950 . S
C1525 C1524 1.349 . S
C1525 C1541 1.349 . S
C1526 C1524 1.327 . S
C1526 C1545 1.429 . S
C1526 H1550 0.950 . S
C1527 C1544 1.574 . S
C1527 C1546 1.368 . S
C1527 H1551 0.949 . S
H1528 C1532 0.949 . S
C1529 C1530 1.349 . S
C1529 C1531 1.327 . S
C1529 H1552 0.950 . S
C1530 C1529 1.349 . S
C1530 C1542 1.349 . S
C1531 C1529 1.327 . S
C1531 C1547 1.429 . S
C1531 H1553 0.950 . S
C1532 H1528 0.949 . S
C1532 C1540 1.574 . S
C1532 C1548 1.368 . S
H1533 C1541 0.950 . S
H1534 C1539 0.950 . S
H1535 C1540 0.949 . S
H1536 C1542 0.950 . S
H1537 C1543 0.950 . S
H1538 C1544 0.949 . S
C1539 H1534 0.950 . S
C1539 C1541 1.327 . S
C1539 C1545 1.429 . S
C1540 C1532 1.574 . S
C1540 H1535 0.949 . S
C1540 C1546 1.368 . S
C1541 C1525 1.349 . S
C1541 H1533 0.950 . S
C1541 C1539 1.327 . S
C1542 C1530 1.349 . S
C1542 H1536 0.950 . S
C1542 C1543 1.327 . S
C1543 H1537 0.950 . S
C1543 C1542 1.327 . S
C1543 C1547 1.429 . S
C1544 C1527 1.574 . S
C1544 H1538 0.949 . S
C1544 C1548 1.368 . S
C1545 C1526 1.429 . S
C1545 C1539 1.429 . S
C1545 C1546 1.523 . S
C1546 C1527 1.368 . S
C1546 C1540 1.368 . S
C1546 C1545 1.523 . S
C1547 C1531 1.429 . S
C1547 C1543 1.429 . S
C1547 C1548 1.523 . S
C1548 C1532 1.368 . S
C1548 C1544 1.368 . S
C1548 C1547 1.523 . S
H1549 C1524 0.950 . S
H1550 C1526 0.950 . S
H1551 C1527 0.949 . S
H1552 C1529 0.950 . S
H1553 C1531 0.950 . S
C1554 C1555 1.349 . S
C1554 C1556 1.327 . S
C1554 H1579 0.950 . S
C1555 C1554 1.349 . S
C1555 C1571 1.349 . S
C1556 C1554 1.327 . S
C1556 C1575 1.429 . S
C1556 H1580 0.950 . S
C1557 C1574 1.574 . S
C1557 C1576 1.368 . S
C1557 H1581 0.949 . S
H1558 C1562 0.949 . S
C1559 C1560 1.349 . S
C1559 C1561 1.327 . S
C1559 H1582 0.950 . S
C1560 C1559 1.349 . S
C1560 C1572 1.349 . S
C1561 C1559 1.327 . S
C1561 C1577 1.429 . S
C1561 H1583 0.950 . S
C1562 H1558 0.949 . S
C1562 C1570 1.574 . S
C1562 C1578 1.368 . S
H1563 C1571 0.950 . S
H1564 C1569 0.950 . S
H1565 C1570 0.949 . S
H1566 C1572 0.950 . S
H1567 C1573 0.950 . S
H1568 C1574 0.949 . S
C1569 H1564 0.950 . S
C1569 C1571 1.327 . S
C1569 C1575 1.429 . S
C1570 C1562 1.574 . S
C1570 H1565 0.949 . S
C1570 C1576 1.368 . S
C1571 C1555 1.349 . S
C1571 H1563 0.950 . S
C1571 C1569 1.327 . S
C1572 C1560 1.349 . S
C1572 H1566 0.950 . S
C1572 C1573 1.327 . S
C1573 H1567 0.950 . S
C1573 C1572 1.327 . S
C1573 C1577 1.429 . S
C1574 C1557 1.574 . S
C1574 H1568 0.949 . S
C1574 C1578 1.368 . S
C1575 C1556 1.429 . S
C1575 C1569 1.429 . S
C1575 C1576 1.523 . S
C1576 C1557 1.368 . S
C1576 C1570 1.368 . S
C1576 C1575 1.523 . S
C1577 C1561 1.429 . S
C1577 C1573 1.429 . S
C1577 C1578 1.523 . S
C1578 C1562 1.368 . S
C1578 C1574 1.368 . S
C1578 C1577 1.523 . S
H1579 C1554 0.950 . S
H1580 C1556 0.950 . S
H1581 C1557 0.949 . S
H1582 C1559 0.950 . S
H1583 C1561 0.950 . S
C1584 C1585 1.349 . S
C1584 C1586 1.327 . S
C1584 H1609 0.950 . S
C1585 C1584 1.349 . S
C1585 C1601 1.349 . S
C1586 C1584 1.327 . S
C1586 C1605 1.429 . S
C1586 H1610 0.950 . S
C1587 C1604 1.574 . S
C1587 C1606 1.368 . S
C1587 H1611 0.949 . S
H1588 C1592 0.949 . S
C1589 C1590 1.349 . S
C1589 C1591 1.327 . S
C1589 H1612 0.950 . S
C1590 C1589 1.349 . S
C1590 C1602 1.349 . S
C1591 C1589 1.327 . S
C1591 C1607 1.429 . S
C1591 H1613 0.950 . S
C1592 H1588 0.949 . S
C1592 C1600 1.574 . S
C1592 C1608 1.368 . S
H1593 C1601 0.950 . S
H1594 C1599 0.950 . S
H1595 C1600 0.949 . S
H1596 C1602 0.950 . S
H1597 C1603 0.950 . S
H1598 C1604 0.949 . S
C1599 H1594 0.950 . S
C1599 C1601 1.327 . S
C1599 C1605 1.429 . S
C1600 C1592 1.574 . S
C1600 H1595 0.949 . S
C1600 C1606 1.368 . S
C1601 C1585 1.349 . S
C1601 H1593 0.950 . S
C1601 C1599 1.327 . S
C1602 C1590 1.349 . S
C1602 H1596 0.950 . S
C1602 C1603 1.327 . S
C1603 H1597 0.950 . S
C1603 C1602 1.327 . S
C1603 C1607 1.429 . S
C1604 C1587 1.574 . S
C1604 H1598 0.949 . S
C1604 C1608 1.368 . S
C1605 C1586 1.429 . S
C1605 C1599 1.429 . S
C1605 C1606 1.523 . S
C1606 C1587 1.368 . S
C1606 C1600 1.368 . S
C1606 C1605 1.523 . S
C1607 C1591 1.429 . S
C1607 C1603 1.429 . S
C1607 C1608 1.523 . S
C1608 C1592 1.368 . S
C1608 C1604 1.368 . S
C1608 C1607 1.523 . S
H1609 C1584 0.950 . S
H1610 C1586 0.950 . S
H1611 C1587 0.949 . S
H1612 C1589 0.950 . S
H1613 C1591 0.950 . S
C1614 C1615 1.349 . S
C1614 C1616 1.327 . S
C1614 H1639 0.950 . S
C1615 C1614 1.349 . S
C1615 C1631 1.349 . S
C1616 C1614 1.327 . S
C1616 C1635 1.429 . S
C1616 H1640 0.950 . S
C1617 C1634 1.574 . S
C1617 C1636 1.368 . S
C1617 H1641 0.949 . S
H1618 C1622 0.949 . S
C1619 C1620 1.349 . S
C1619 C1621 1.327 . S
C1619 H1642 0.950 . S
C1620 C1619 1.349 . S
C1620 C1632 1.349 . S
C1621 C1619 1.327 . S
C1621 C1637 1.429 . S
C1621 H1643 0.950 . S
C1622 H1618 0.949 . S
C1622 C1630 1.574 . S
C1622 C1638 1.368 . S
H1623 C1631 0.950 . S
H1624 C1629 0.950 . S
H1625 C1630 0.949 . S
H1626 C1632 0.950 . S
H1627 C1633 0.950 . S
H1628 C1634 0.949 . S
C1629 H1624 0.950 . S
C1629 C1631 1.327 . S
C1629 C1635 1.429 . S
C1630 C1622 1.574 . S
C1630 H1625 0.949 . S
C1630 C1636 1.368 . S
C1631 C1615 1.349 . S
C1631 H1623 0.950 . S
C1631 C1629 1.327 . S
C1632 C1620 1.349 . S
C1632 H1626 0.950 . S
C1632 C1633 1.327 . S
C1633 H1627 0.950 . S
C1633 C1632 1.327 . S
C1633 C1637 1.429 . S
C1634 C1617 1.574 . S
C1634 H1628 0.949 . S
C1634 C1638 1.368 . S
C1635 C1616 1.429 . S
C1635 C1629 1.429 . S
C1635 C1636 1.523 . S
C1636 C1617 1.368 . S
C1636 C1630 1.368 . S
C1636 C1635 1.523 . S
C1637 C1621 1.429 . S
C1637 C1633 1.429 . S
C1637 C1638 1.523 . S
C1638 C1622 1.368 . S
C1638 C1634 1.368 . S
C1638 C1637 1.523 . S
H1639 C1614 0.950 . S
H1640 C1616 0.950 . S
H1641 C1617 0.949 . S
H1642 C1619 0.950 . S
H1643 C1621 0.950 . S
C1644 C1645 1.349 . S
C1644 C1646 1.327 . S
C1644 H1669 0.950 . S
C1645 C1644 1.349 . S
C1645 C1661 1.349 . S
C1646 C1644 1.327 . S
C1646 C1665 1.429 . S
C1646 H1670 0.950 . S
C1647 C1664 1.574 . S
C1647 C1666 1.368 . S
C1647 H1671 0.949 . S
H1648 C1652 0.949 . S
C1649 C1650 1.349 . S
C1649 C1651 1.327 . S
C1649 H1672 0.950 . S
C1650 C1649 1.349 . S
C1650 C1662 1.349 . S
C1651 C1649 1.327 . S
C1651 C1667 1.429 . S
C1651 H1673 0.950 . S
C1652 H1648 0.949 . S
C1652 C1660 1.574 . S
C1652 C1668 1.368 . S
H1653 C1661 0.950 . S
H1654 C1659 0.950 . S
H1655 C1660 0.949 . S
H1656 C1662 0.950 . S
H1657 C1663 0.950 . S
H1658 C1664 0.949 . S
C1659 H1654 0.950 . S
C1659 C1661 1.327 . S
C1659 C1665 1.429 . S
C1660 C1652 1.574 . S
C1660 H1655 0.949 . S
C1660 C1666 1.368 . S
C1661 C1645 1.349 . S
C1661 H1653 0.950 . S
C1661 C1659 1.327 . S
C1662 C1650 1.349 . S
C1662 H1656 0.950 . S
C1662 C1663 1.327 . S
C1663 H1657 0.950 . S
C1663 C1662 1.327 . S
C1663 C1667 1.429 . S
C1664 C1647 1.574 . S
C1664 H1658 0.949 . S
C1664 C1668 1.368 . S
C1665 C1646 1.429 . S
C1665 C1659 1.429 . S
C1665 C1666 1.523 . S
C1666 C1647 1.368 . S
C1666 C1660 1.368 . S
C1666 C1665 1.523 . S
C1667 C1651 1.429 . S
C1667 C1663 1.429 . S
C1667 C1668 1.523 . S
C1668 C1652 1.368 . S
C1668 C1664 1.368 . S
C1668 C1667 1.523 . S
H1669 C1644 0.950 . S
H1670 C1646 0.950 . S
H1671 C1647 0.949 . S
H1672 C1649 0.950 . S
H1673 C1651 0.950 . S
C1674 C1675 1.349 . S
C1674 C1676 1.327 . S
C1674 H1699 0.950 . S
C1675 C1674 1.349 . S
C1675 C1691 1.349 . S
C1676 C1674 1.327 . S
C1676 C1695 1.429 . S
C1676 H1700 0.950 . S
C1677 C1694 1.574 . S
C1677 C1696 1.368 . S
C1677 H1701 0.949 . S
H1678 C1682 0.949 . S
C1679 C1680 1.349 . S
C1679 C1681 1.327 . S
C1679 H1702 0.950 . S
C1680 C1679 1.349 . S
C1680 C1692 1.349 . S
C1681 C1679 1.327 . S
C1681 C1697 1.429 . S
C1681 H1703 0.950 . S
C1682 H1678 0.949 . S
C1682 C1690 1.574 . S
C1682 C1698 1.368 . S
H1683 C1691 0.950 . S
H1684 C1689 0.950 . S
H1685 C1690 0.949 . S
H1686 C1692 0.950 . S
H1687 C1693 0.950 . S
H1688 C1694 0.949 . S
C1689 H1684 0.950 . S
C1689 C1691 1.327 . S
C1689 C1695 1.429 . S
C1690 C1682 1.574 . S
C1690 H1685 0.949 . S
C1690 C1696 1.368 . S
C1691 C1675 1.349 . S
C1691 H1683 0.950 . S
C1691 C1689 1.327 . S
C1692 C1680 1.349 . S
C1692 H1686 0.950 . S
C1692 C1693 1.327 . S
C1693 H1687 0.950 . S
C1693 C1692 1.327 . S
C1693 C1697 1.429 . S
C1694 C1677 1.574 . S
C1694 H1688 0.949 . S
C1694 C1698 1.368 . S
C1695 C1676 1.429 . S
C1695 C1689 1.429 . S
C1695 C1696 1.523 . S
C1696 C1677 1.368 . S
C1696 C1690 1.368 . S
C1696 C1695 1.523 . S
C1697 C1681 1.429 . S
C1697 C1693 1.429 . S
C1697 C1698 1.523 . S
C1698 C1682 1.368 . S
C1698 C1694 1.368 . S
C1698 C1697 1.523 . S
H1699 C1674 0.950 . S
H1700 C1676 0.950 . S
H1701 C1677 0.949 . S
H1702 C1679 0.950 . S
H1703 C1681 0.950 . S
C1704 C1705 1.349 . S
C1704 C1706 1.327 . S
C1704 H1729 0.950 . S
C1705 C1704 1.349 . S
C1705 C1721 1.349 . S
C1706 C1704 1.327 . S
C1706 C1725 1.429 . S
C1706 H1730 0.950 . S
C1707 C1724 1.574 . S
C1707 C1726 1.368 . S
C1707 H1731 0.949 . S
H1708 C1712 0.949 . S
C1709 C1710 1.349 . S
C1709 C1711 1.327 . S
C1709 H1732 0.950 . S
C1710 C1709 1.349 . S
C1710 C1722 1.349 . S
C1711 C1709 1.327 . S
C1711 C1727 1.429 . S
C1711 H1733 0.950 . S
C1712 H1708 0.949 . S
C1712 C1720 1.574 . S
C1712 C1728 1.368 . S
H1713 C1721 0.950 . S
H1714 C1719 0.950 . S
H1715 C1720 0.949 . S
H1716 C1722 0.950 . S
H1717 C1723 0.950 . S
H1718 C1724 0.949 . S
C1719 H1714 0.950 . S
C1719 C1721 1.327 . S
C1719 C1725 1.429 . S
C1720 C1712 1.574 . S
C1720 H1715 0.949 . S
C1720 C1726 1.368 . S
C1721 C1705 1.349 . S
C1721 H1713 0.950 . S
C1721 C1719 1.327 . S
C1722 C1710 1.349 . S
C1722 H1716 0.950 . S
C1722 C1723 1.327 . S
C1723 H1717 0.950 . S
C1723 C1722 1.327 . S
C1723 C1727 1.429 . S
C1724 C1707 1.574 . S
C1724 H1718 0.949 . S
C1724 C1728 1.368 . S
C1725 C1706 1.429 . S
C1725 C1719 1.429 . S
C1725 C1726 1.523 . S
C1726 C1707 1.368 . S
C1726 C1720 1.368 . S
C1726 C1725 1.523 . S
C1727 C1711 1.429 . S
C1727 C1723 1.429 . S
C1727 C1728 1.523 . S
C1728 C1712 1.368 . S
C1728 C1724 1.368 . S
C1728 C1727 1.523 . S
H1729 C1704 0.950 . S
H1730 C1706 0.950 . S
H1731 C1707 0.949 . S
H1732 C1709 0.950 . S
H1733 C1711 0.950 . S
C1734 C1735 1.349 . S
C1734 C1736 1.327 . S
C1734 H1759 0.950 . S
C1735 C1734 1.349 . S
C1735 C1751 1.349 . S
C1736 C1734 1.327 . S
C1736 C1755 1.429 . S
C1736 H1760 0.950 . S
C1737 C1754 1.574 . S
C1737 C1756 1.368 . S
C1737 H1761 0.949 . S
H1738 C1742 0.949 . S
C1739 C1740 1.349 . S
C1739 C1741 1.327 . S
C1739 H1762 0.950 . S
C1740 C1739 1.349 . S
C1740 C1752 1.349 . S
C1741 C1739 1.327 . S
C1741 C1757 1.429 . S
C1741 H1763 0.950 . S
C1742 H1738 0.949 . S
C1742 C1750 1.574 . S
C1742 C1758 1.368 . S
H1743 C1751 0.950 . S
H1744 C1749 0.950 . S
H1745 C1750 0.949 . S
H1746 C1752 0.950 . S
H1747 C1753 0.950 . S
H1748 C1754 0.949 . S
C1749 H1744 0.950 . S
C1749 C1751 1.327 . S
C1749 C1755 1.429 . S
C1750 C1742 1.574 . S
C1750 H1745 0.949 . S
C1750 C1756 1.368 . S
C1751 C1735 1.349 . S
C1751 H1743 0.950 . S
C1751 C1749 1.327 . S
C1752 C1740 1.349 . S
C1752 H1746 0.950 . S
C1752 C1753 1.327 . S
C1753 H1747 0.950 . S
C1753 C1752 1.327 . S
C1753 C1757 1.429 . S
C1754 C1737 1.574 . S
C1754 H1748 0.949 . S
C1754 C1758 1.368 . S
C1755 C1736 1.429 . S
C1755 C1749 1.429 . S
C1755 C1756 1.523 . S
C1756 C1737 1.368 . S
C1756 C1750 1.368 . S
C1756 C1755 1.523 . S
C1757 C1741 1.429 . S
C1757 C1753 1.429 . S
C1757 C1758 1.523 . S
C1758 C1742 1.368 . S
C1758 C1754 1.368 . S
C1758 C1757 1.523 . S
H1759 C1734 0.950 . S
H1760 C1736 0.950 . S
H1761 C1737 0.949 . S
H1762 C1739 0.950 . S
H1763 C1741 0.950 . S
C1764 C1765 1.349 . S
C1764 C1766 1.327 . S
C1764 H1789 0.950 . S
C1765 C1764 1.349 . S
C1765 C1781 1.349 . S
C1766 C1764 1.327 . S
C1766 C1785 1.429 . S
C1766 H1790 0.950 . S
C1767 C1784 1.574 . S
C1767 C1786 1.368 . S
C1767 H1791 0.949 . S
H1768 C1772 0.949 . S
C1769 C1770 1.349 . S
C1769 C1771 1.327 . S
C1769 H1792 0.950 . S
C1770 C1769 1.349 . S
C1770 C1782 1.349 . S
C1771 C1769 1.327 . S
C1771 C1787 1.429 . S
C1771 H1793 0.950 . S
C1772 H1768 0.949 . S
C1772 C1780 1.574 . S
C1772 C1788 1.368 . S
H1773 C1781 0.950 . S
H1774 C1779 0.950 . S
H1775 C1780 0.949 . S
H1776 C1782 0.950 . S
H1777 C1783 0.950 . S
H1778 C1784 0.949 . S
C1779 H1774 0.950 . S
C1779 C1781 1.327 . S
C1779 C1785 1.429 . S
C1780 C1772 1.574 . S
C1780 H1775 0.949 . S
C1780 C1786 1.368 . S
C1781 C1765 1.349 . S
C1781 H1773 0.950 . S
C1781 C1779 1.327 . S
C1782 C1770 1.349 . S
C1782 H1776 0.950 . S
C1782 C1783 1.327 . S
C1783 H1777 0.950 . S
C1783 C1782 1.327 . S
C1783 C1787 1.429 . S
C1784 C1767 1.574 . S
C1784 H1778 0.949 . S
C1784 C1788 1.368 . S
C1785 C1766 1.429 . S
C1785 C1779 1.429 . S
C1785 C1786 1.523 . S
C1786 C1767 1.368 . S
C1786 C1780 1.368 . S
C1786 C1785 1.523 . S
C1787 C1771 1.429 . S
C1787 C1783 1.429 . S
C1787 C1788 1.523 . S
C1788 C1772 1.368 . S
C1788 C1784 1.368 . S
C1788 C1787 1.523 . S
H1789 C1764 0.950 . S
H1790 C1766 0.950 . S
H1791 C1767 0.949 . S
H1792 C1769 0.950 . S
H1793 C1771 0.950 . S
C1794 C1795 1.349 . S
C1794 C1796 1.327 . S
C1794 H1819 0.950 . S
C1795 C1794 1.349 . S
C1795 C1811 1.349 . S
C1796 C1794 1.327 . S
C1796 C1815 1.429 . S
C1796 H1820 0.950 . S
C1797 C1814 1.574 . S
C1797 C1816 1.368 . S
C1797 H1821 0.949 . S
H1798 C1802 0.949 . S
C1799 C1800 1.349 . S
C1799 C1801 1.327 . S
C1799 H1822 0.950 . S
C1800 C1799 1.349 . S
C1800 C1812 1.349 . S
C1801 C1799 1.327 . S
C1801 C1817 1.429 . S
C1801 H1823 0.950 . S
C1802 H1798 0.949 . S
C1802 C1810 1.574 . S
C1802 C1818 1.368 . S
H1803 C1811 0.950 . S
H1804 C1809 0.950 . S
H1805 C1810 0.949 . S
H1806 C1812 0.950 . S
H1807 C1813 0.950 . S
H1808 C1814 0.949 . S
C1809 H1804 0.950 . S
C1809 C1811 1.327 . S
C1809 C1815 1.429 . S
C1810 C1802 1.574 . S
C1810 H1805 0.949 . S
C1810 C1816 1.368 . S
C1811 C1795 1.349 . S
C1811 H1803 0.950 . S
C1811 C1809 1.327 . S
C1812 C1800 1.349 . S
C1812 H1806 0.950 . S
C1812 C1813 1.327 . S
C1813 H1807 0.950 . S
C1813 C1812 1.327 . S
C1813 C1817 1.429 . S
C1814 C1797 1.574 . S
C1814 H1808 0.949 . S
C1814 C1818 1.368 . S
C1815 C1796 1.429 . S
C1815 C1809 1.429 . S
C1815 C1816 1.523 . S
C1816 C1797 1.368 . S
C1816 C1810 1.368 . S
C1816 C1815 1.523 . S
C1817 C1801 1.429 . S
C1817 C1813 1.429 . S
C1817 C1818 1.523 . S
C1818 C1802 1.368 . S
C1818 C1814 1.368 . S
C1818 C1817 1.523 . S
H1819 C1794 0.950 . S
H1820 C1796 0.950 . S
H1821 C1797 0.949 . S
H1822 C1799 0.950 . S
H1823 C1801 0.950 . S
C1824 C1825 1.349 . S
C1824 C1826 1.327 . S
C1824 H1849 0.950 . S
C1825 C1824 1.349 . S
C1825 C1841 1.349 . S
C1826 C1824 1.327 . S
C1826 C1845 1.429 . S
C1826 H1850 0.950 . S
C1827 C1844 1.574 . S
C1827 C1846 1.368 . S
C1827 H1851 0.949 . S
H1828 C1832 0.949 . S
C1829 C1830 1.349 . S
C1829 C1831 1.327 . S
C1829 H1852 0.950 . S
C1830 C1829 1.349 . S
C1830 C1842 1.349 . S
C1831 C1829 1.327 . S
C1831 C1847 1.429 . S
C1831 H1853 0.950 . S
C1832 H1828 0.949 . S
C1832 C1840 1.574 . S
C1832 C1848 1.368 . S
H1833 C1841 0.950 . S
H1834 C1839 0.950 . S
H1835 C1840 0.949 . S
H1836 C1842 0.950 . S
H1837 C1843 0.950 . S
H1838 C1844 0.949 . S
C1839 H1834 0.950 . S
C1839 C1841 1.327 . S
C1839 C1845 1.429 . S
C1840 C1832 1.574 . S
C1840 H1835 0.949 . S
C1840 C1846 1.368 . S
C1841 C1825 1.349 . S
C1841 H1833 0.950 . S
C1841 C1839 1.327 . S
C1842 C1830 1.349 . S
C1842 H1836 0.950 . S
C1842 C1843 1.327 . S
C1843 H1837 0.950 . S
C1843 C1842 1.327 . S
C1843 C1847 1.429 . S
C1844 C1827 1.574 . S
C1844 H1838 0.949 . S
C1844 C1848 1.368 . S
C1845 C1826 1.429 . S
C1845 C1839 1.429 . S
C1845 C1846 1.523 . S
C1846 C1827 1.368 . S
C1846 C1840 1.368 . S
C1846 C1845 1.523 . S
C1847 C1831 1.429 . S
C1847 C1843 1.429 . S
C1847 C1848 1.523 . S
C1848 C1832 1.368 . S
C1848 C1844 1.368 . S
C1848 C1847 1.523 . S
H1849 C1824 0.950 . S
H1850 C1826 0.950 . S
H1851 C1827 0.949 . S
H1852 C1829 0.950 . S
H1853 C1831 0.950 . S
C1854 C1855 1.349 . S
C1854 C1856 1.327 . S
C1854 H1879 0.950 . S
C1855 C1854 1.349 . S
C1855 C1871 1.349 . S
C1856 C1854 1.327 . S
C1856 C1875 1.429 . S
C1856 H1880 0.950 . S
C1857 C1874 1.574 . S
C1857 C1876 1.368 . S
C1857 H1881 0.949 . S
H1858 C1862 0.949 . S
C1859 C1860 1.349 . S
C1859 C1861 1.327 . S
C1859 H1882 0.950 . S
C1860 C1859 1.349 . S
C1860 C1872 1.349 . S
C1861 C1859 1.327 . S
C1861 C1877 1.429 . S
C1861 H1883 0.950 . S
C1862 H1858 0.949 . S
C1862 C1870 1.574 . S
C1862 C1878 1.368 . S
H1863 C1871 0.950 . S
H1864 C1869 0.950 . S
H1865 C1870 0.949 . S
H1866 C1872 0.950 . S
H1867 C1873 0.950 . S
H1868 C1874 0.949 . S
C1869 H1864 0.950 . S
C1869 C1871 1.327 . S
C1869 C1875 1.429 . S
C1870 C1862 1.574 . S
C1870 H1865 0.949 . S
C1870 C1876 1.368 . S
C1871 C1855 1.349 . S
C1871 H1863 0.950 . S
C1871 C1869 1.327 . S
C1872 C1860 1.349 . S
C1872 H1866 0.950 . S
C1872 C1873 1.327 . S
C1873 H1867 0.950 . S
C1873 C1872 1.327 . S
C1873 C1877 1.429 . S
C1874 C1857 1.574 . S
C1874 H1868 0.949 . S
C1874 C1878 1.368 . S
C1875 C1856 1.429 . S
C1875 C1869 1.429 . S
C1875 C1876 1.523 . S
C1876 C1857 1.368 . S
C1876 C1870 1.368 . S
C1876 C1875 1.523 . S
C1877 C1861 1.429 . S
C1877 C1873 1.429 . S
C1877 C1878 1.523 . S
C1878 C1862 1.368 . S
C1878 C1874 1.368 . S
C1878 C1877 1.523 . S
H1879 C1854 0.950 . S
H1880 C1856 0.950 . S
H1881 C1857 0.949 . S
H1882 C1859 0.950 . S
H1883 C1861 0.950 . S
C1884 C1885 1.349 . S
C1884 C1886 1.327 . S
C1884 H1909 0.950 . S
C1885 C1884 1.349 . S
C1885 C1901 1.349 . S
C1886 C1884 1.327 . S
C1886 C1905 1.429 . S
C1886 H1910 0.950 . S
C1887 C1904 1.574 . S
C1887 C1906 1.368 . S
C1887 H1911 0.949 . S
H1888 C1892 0.949 . S
C1889 C1890 1.349 . S
C1889 C1891 1.327 . S
C1889 H1912 0.950 . S
C1890 C1889 1.349 . S
C1890 C1902 1.349 . S
C1891 C1889 1.327 . S
C1891 C1907 1.429 . S
C1891 H1913 0.950 . S
C1892 H1888 0.949 . S
C1892 C1900 1.574 . S
C1892 C1908 1.368 . S
H1893 C1901 0.950 . S
H1894 C1899 0.950 . S
H1895 C1900 0.949 . S
H1896 C1902 0.950 . S
H1897 C1903 0.950 . S
H1898 C1904 0.949 . S
C1899 H1894 0.950 . S
C1899 C1901 1.327 . S
C1899 C1905 1.429 . S
C1900 C1892 1.574 . S
C1900 H1895 0.949 . S
C1900 C1906 1.368 . S
C1901 C1885 1.349 . S
C1901 H1893 0.950 . S
C1901 C1899 1.327 . S
C1902 C1890 1.349 . S
C1902 H1896 0.950 . S
C1902 C1903 1.327 . S
C1903 H1897 0.950 . S
C1903 C1902 1.327 . S
C1903 C1907 1.429 . S
C1904 C1887 1.574 . S
C1904 H1898 0.949 . S
C1904 C1908 1.368 . S
C1905 C1886 1.429 . S
C1905 C1899 1.429 . S
C1905 C1906 1.523 . S
C1906 C1887 1.368 . S
C1906 C1900 1.368 . S
C1906 C1905 1.523 . S
C1907 C1891 1.429 . S
C1907 C1903 1.429 . S
C1907 C1908 1.523 . S
C1908 C1892 1.368 . S
C1908 C1904 1.368 . S
C1908 C1907 1.523 . S
H1909 C1884 0.950 . S
H1910 C1886 0.950 . S
H1911 C1887 0.949 . S
H1912 C1889 0.950 . S
H1913 C1891 0.950 . S
C1914 C1915 1.349 . S
C1914 C1916 1.327 . S
C1914 H1939 0.950 . S
C1915 C1914 1.349 . S
C1915 C1931 1.349 . S
C1916 C1914 1.327 . S
C1916 C1935 1.429 . S
C1916 H1940 0.950 . S
C1917 C1934 1.574 . S
C1917 C1936 1.368 . S
C1917 H1941 0.949 . S
H1918 C1922 0.949 . S
C1919 C1920 1.349 . S
C1919 C1921 1.327 . S
C1919 H1942 0.950 . S
C1920 C1919 1.349 . S
C1920 C1932 1.349 . S
C1921 C1919 1.327 . S
C1921 C1937 1.429 . S
C1921 H1943 0.950 . S
C1922 H1918 0.949 . S
C1922 C1930 1.574 . S
C1922 C1938 1.368 . S
H1923 C1931 0.950 . S
H1924 C1929 0.950 . S
H1925 C1930 0.949 . S
H1926 C1932 0.950 . S
H1927 C1933 0.950 . S
H1928 C1934 0.949 . S
C1929 H1924 0.950 . S
C1929 C1931 1.327 . S
C1929 C1935 1.429 . S
C1930 C1922 1.574 . S
C1930 H1925 0.949 . S
C1930 C1936 1.368 . S
C1931 C1915 1.349 . S
C1931 H1923 0.950 . S
C1931 C1929 1.327 . S
C1932 C1920 1.349 . S
C1932 H1926 0.950 . S
C1932 C1933 1.327 . S
C1933 H1927 0.950 . S
C1933 C1932 1.327 . S
C1933 C1937 1.429 . S
C1934 C1917 1.574 . S
C1934 H1928 0.949 . S
C1934 C1938 1.368 . S
C1935 C1916 1.429 . S
C1935 C1929 1.429 . S
C1935 C1936 1.523 . S
C1936 C1917 1.368 . S
C1936 C1930 1.368 . S
C1936 C1935 1.523 . S
C1937 C1921 1.429 . S
C1937 C1933 1.429 . S
C1937 C1938 1.523 . S
C1938 C1922 1.368 . S
C1938 C1934 1.368 . S
C1938 C1937 1.523 . S
H1939 C1914 0.950 . S
H1940 C1916 0.950 . S
H1941 C1917 0.949 . S
H1942 C1919 0.950 . S
H1943 C1921 0.950 . S
C1944 C1945 1.349 . S
C1944 C1946 1.327 . S
C1944 H1969 0.950 . S
C1945 C1944 1.349 . S
C1945 C1961 1.349 . S
C1946 C1944 1.327 . S
C1946 C1965 1.429 . S
C1946 H1970 0.938 1_455 S
C1947 C1964 1.574 . S
C1947 C1966 1.368 . S
C1947 H1971 0.949 . S
H1948 C1952 0.949 . S
C1949 C1950 1.349 . S
C1949 C1951 1.327 . S
C1949 H1972 0.950 . S
C1950 C1949 1.349 . S
C1950 C1962 1.349 . S
C1951 C1949 1.327 . S
C1951 C1967 1.429 . S
C1951 H1973 0.937 1_655 S
C1952 H1948 0.949 . S
C1952 C1960 1.574 . S
C1952 C1968 1.368 . S
H1953 C1961 0.950 . S
H1954 C1959 0.950 . S
H1955 C1960 0.949 . S
H1956 C1962 0.950 . S
H1957 C1963 0.950 . S
H1958 C1964 0.949 . S
C1959 H1954 0.950 . S
C1959 C1961 1.327 . S
C1959 C1965 1.429 . S
C1960 C1952 1.574 . S
C1960 H1955 0.949 . S
C1960 C1966 1.368 1_655 S
C1961 C1945 1.349 . S
C1961 H1953 0.950 . S
C1961 C1959 1.327 . S
C1962 C1950 1.349 . S
C1962 H1956 0.950 . S
C1962 C1963 1.327 . S
C1963 H1957 0.950 . S
C1963 C1962 1.327 . S
C1963 C1967 1.429 . S
C1964 C1947 1.574 . S
C1964 H1958 0.949 . S
C1964 C1968 1.368 1_455 S
C1965 C1946 1.429 . S
C1965 C1959 1.429 . S
C1965 C1966 1.523 . S
C1966 C1947 1.368 . S
C1966 C1960 1.368 1_455 S
C1966 C1965 1.523 . S
C1967 C1951 1.429 . S
C1967 C1963 1.429 . S
C1967 C1968 1.523 . S
C1968 C1952 1.368 . S
C1968 C1964 1.368 1_655 S
C1968 C1967 1.523 . S
H1969 C1944 0.950 . S
H1970 C1946 0.938 1_655 S
H1971 C1947 0.949 . S
H1972 C1949 0.950 . S
H1973 C1951 0.937 1_455 S
C1974 C1975 1.349 . S
C1974 C1976 1.327 . S
C1974 H1999 0.950 . S
C1975 C1974 1.349 . S
C1975 C1991 1.349 . S
C1976 C1974 1.327 . S
C1976 C1995 1.429 . S
C1976 H2000 0.950 . S
C1977 C1994 1.574 . S
C1977 C1996 1.368 . S
C1977 H2001 0.949 . S
H1978 C1982 0.949 . S
C1979 C1980 1.349 . S
C1979 C1981 1.327 . S
C1979 H2002 0.950 . S
C1980 C1979 1.349 . S
C1980 C1992 1.349 . S
C1981 C1979 1.327 . S
C1981 C1997 1.429 . S
C1981 H2003 0.950 . S
C1982 H1978 0.949 . S
C1982 C1990 1.574 . S
C1982 C1998 1.368 . S
H1983 C1991 0.950 . S
H1984 C1989 0.950 . S
H1985 C1990 0.949 . S
H1986 C1992 0.950 . S
H1987 C1993 0.950 . S
H1988 C1994 0.949 . S
C1989 H1984 0.950 . S
C1989 C1991 1.327 . S
C1989 C1995 1.429 . S
C1990 C1982 1.574 . S
C1990 H1985 0.949 . S
C1990 C1996 1.368 . S
C1991 C1975 1.349 . S
C1991 H1983 0.950 . S
C1991 C1989 1.327 . S
C1992 C1980 1.349 . S
C1992 H1986 0.950 . S
C1992 C1993 1.327 . S
C1993 H1987 0.950 . S
C1993 C1992 1.327 . S
C1993 C1997 1.429 . S
C1994 C1977 1.574 . S
C1994 H1988 0.949 . S
C1994 C1998 1.368 . S
C1995 C1976 1.429 . S
C1995 C1989 1.429 . S
C1995 C1996 1.523 . S
C1996 C1977 1.368 . S
C1996 C1990 1.368 . S
C1996 C1995 1.523 . S
C1997 C1981 1.429 . S
C1997 C1993 1.429 . S
C1997 C1998 1.523 . S
C1998 C1982 1.368 . S
C1998 C1994 1.368 . S
C1998 C1997 1.523 . S
H1999 C1974 0.950 . S
H2000 C1976 0.950 . S
H2001 C1977 0.949 . S
H2002 C1979 0.950 . S
H2003 C1981 0.950 . S
C2004 C2005 1.349 . S
C2004 C2006 1.327 . S
C2004 H2029 0.950 . S
C2005 C2004 1.349 . S
C2005 C2021 1.349 . S
C2006 C2004 1.327 . S
C2006 C2025 1.429 . S
C2006 H2030 0.942 1_565 S
C2007 C2024 1.574 . S
C2007 C2026 1.368 . S
C2007 H2031 0.949 . S
H2008 C2012 0.949 . S
C2009 C2010 1.349 . S
C2009 C2011 1.327 . S
C2009 H2032 0.950 . S
C2010 C2009 1.349 . S
C2010 C2022 1.349 . S
C2011 C2009 1.327 . S
C2011 C2027 1.429 . S
C2011 H2033 0.943 1_545 S
C2012 H2008 0.949 . S
C2012 C2020 1.574 . S
C2012 C2028 1.368 . S
H2013 C2021 0.950 . S
H2014 C2019 0.950 . S
H2015 C2020 0.949 . S
H2016 C2022 0.950 . S
H2017 C2023 0.950 . S
H2018 C2024 0.949 . S
C2019 H2014 0.950 . S
C2019 C2021 1.327 . S
C2019 C2025 1.429 . S
C2020 C2012 1.574 . S
C2020 H2015 0.949 . S
C2020 C2026 1.368 1_545 S
C2021 C2005 1.349 . S
C2021 H2013 0.950 . S
C2021 C2019 1.327 . S
C2022 C2010 1.349 . S
C2022 H2016 0.950 . S
C2022 C2023 1.327 . S
C2023 H2017 0.950 . S
C2023 C2022 1.327 . S
C2023 C2027 1.429 . S
C2024 C2007 1.574 . S
C2024 H2018 0.949 . S
C2024 C2028 1.368 1_565 S
C2025 C2006 1.429 . S
C2025 C2019 1.429 . S
C2025 C2026 1.523 . S
C2026 C2007 1.368 . S
C2026 C2020 1.368 1_565 S
C2026 C2025 1.523 . S
C2027 C2011 1.429 . S
C2027 C2023 1.429 . S
C2027 C2028 1.523 . S
C2028 C2012 1.368 . S
C2028 C2024 1.368 1_545 S
C2028 C2027 1.523 . S
H2029 C2004 0.950 . S
H2030 C2006 0.942 1_545 S
H2031 C2007 0.949 . S
H2032 C2009 0.950 . S
H2033 C2011 0.943 1_565 S
C2034 C2035 1.349 . S
C2034 C2036 1.327 . S
C2034 H2059 0.950 . S
C2035 C2034 1.349 . S
C2035 C2051 1.349 . S
C2036 C2034 1.327 . S
C2036 C2055 1.429 . S
C2036 H2060 0.950 1_565 S
C2037 C2054 1.574 . S
C2037 C2056 1.368 . S
C2037 H2061 0.949 . S
H2038 C2042 0.949 . S
C2039 C2040 1.349 . S
C2039 C2041 1.327 . S
C2039 H2062 0.950 . S
C2040 C2039 1.349 . S
C2040 C2052 1.349 . S
C2041 C2039 1.327 . S
C2041 C2057 1.429 . S
C2041 H2063 0.950 1_545 S
C2042 H2038 0.949 . S
C2042 C2050 1.574 . S
C2042 C2058 1.368 . S
H2043 C2051 0.950 . S
H2044 C2049 0.950 . S
H2045 C2050 0.949 . S
H2046 C2052 0.950 . S
H2047 C2053 0.950 . S
H2048 C2054 0.949 . S
C2049 H2044 0.950 . S
C2049 C2051 1.327 . S
C2049 C2055 1.429 . S
C2050 C2042 1.574 . S
C2050 H2045 0.949 . S
C2050 C2056 1.368 1_545 S
C2051 C2035 1.349 . S
C2051 H2043 0.950 . S
C2051 C2049 1.327 . S
C2052 C2040 1.349 . S
C2052 H2046 0.950 . S
C2052 C2053 1.327 . S
C2053 H2047 0.950 . S
C2053 C2052 1.327 . S
C2053 C2057 1.429 . S
C2054 C2037 1.574 . S
C2054 H2048 0.949 . S
C2054 C2058 1.368 1_565 S
C2055 C2036 1.429 . S
C2055 C2049 1.429 . S
C2055 C2056 1.523 . S
C2056 C2037 1.368 . S
C2056 C2050 1.368 1_565 S
C2056 C2055 1.523 . S
C2057 C2041 1.429 . S
C2057 C2053 1.429 . S
C2057 C2058 1.523 . S
C2058 C2042 1.368 . S
C2058 C2054 1.368 1_545 S
C2058 C2057 1.523 . S
H2059 C2034 0.950 . S
H2060 C2036 0.950 1_545 S
H2061 C2037 0.949 . S
H2062 C2039 0.950 . S
H2063 C2041 0.950 1_565 S
C2064 C2065 1.349 . S
C2064 C2066 1.327 . S
C2064 H2089 0.950 . S
C2065 C2064 1.349 . S
C2065 C2081 1.349 . S
C2066 C2064 1.327 . S
C2066 C2085 1.429 . S
C2066 H2090 0.950 . S
C2067 C2084 1.574 1_655 S
C2067 C2086 1.368 . S
C2067 H2091 0.949 . S
H2068 C2072 0.949 . S
C2069 C2070 1.349 . S
C2069 C2071 1.327 . S
C2069 H2092 0.950 . S
C2070 C2069 1.349 . S
C2070 C2082 1.349 . S
C2071 C2069 1.327 . S
C2071 C2087 1.429 . S
C2071 H2093 0.950 . S
C2072 H2068 0.949 . S
C2072 C2080 1.574 1_455 S
C2072 C2088 1.368 . S
H2073 C2081 0.950 . S
H2074 C2079 0.950 . S
H2075 C2080 0.949 . S
H2076 C2082 0.950 . S
H2077 C2083 0.950 . S
H2078 C2084 0.949 . S
C2079 H2074 0.950 . S
C2079 C2081 1.327 . S
C2079 C2085 1.429 . S
C2080 C2072 1.574 1_655 S
C2080 H2075 0.949 . S
C2080 C2086 1.368 . S
C2081 C2065 1.349 . S
C2081 H2073 0.950 . S
C2081 C2079 1.327 . S
C2082 C2070 1.349 . S
C2082 H2076 0.950 . S
C2082 C2083 1.327 . S
C2083 H2077 0.950 . S
C2083 C2082 1.327 . S
C2083 C2087 1.429 . S
C2084 C2067 1.574 1_455 S
C2084 H2078 0.949 . S
C2084 C2088 1.368 . S
C2085 C2066 1.429 . S
C2085 C2079 1.429 . S
C2085 C2086 1.523 . S
C2086 C2067 1.368 . S
C2086 C2080 1.368 . S
C2086 C2085 1.523 . S
C2087 C2071 1.429 . S
C2087 C2083 1.429 . S
C2087 C2088 1.523 . S
C2088 C2072 1.368 . S
C2088 C2084 1.368 . S
C2088 C2087 1.523 . S
H2089 C2064 0.950 . S
H2090 C2066 0.950 . S
H2091 C2067 0.949 . S
H2092 C2069 0.950 . S
H2093 C2071 0.950 . S
C2094 C2095 1.349 . S
C2094 C2096 1.327 . S
C2094 H2119 0.950 . S
C2095 C2094 1.349 . S
C2095 C2111 1.349 . S
C2096 C2094 1.327 . S
C2096 C2115 1.429 . S
C2096 H2120 0.950 . S
C2097 C2114 1.574 . S
C2097 C2116 1.368 . S
C2097 H2121 0.949 . S
H2098 C2102 0.949 . S
C2099 C2100 1.349 . S
C2099 C2101 1.327 . S
C2099 H2122 0.950 . S
C2100 C2099 1.349 . S
C2100 C2112 1.349 . S
C2101 C2099 1.327 . S
C2101 C2117 1.429 . S
C2101 H2123 0.950 . S
C2102 H2098 0.949 . S
C2102 C2110 1.574 . S
C2102 C2118 1.368 . S
H2103 C2111 0.950 . S
H2104 C2109 0.950 . S
H2105 C2110 0.949 . S
H2106 C2112 0.950 . S
H2107 C2113 0.950 . S
H2108 C2114 0.949 . S
C2109 H2104 0.950 . S
C2109 C2111 1.327 . S
C2109 C2115 1.429 . S
C2110 C2102 1.574 . S
C2110 H2105 0.949 . S
C2110 C2116 1.368 . S
C2111 C2095 1.349 . S
C2111 H2103 0.950 . S
C2111 C2109 1.327 . S
C2112 C2100 1.349 . S
C2112 H2106 0.950 . S
C2112 C2113 1.327 . S
C2113 H2107 0.950 . S
C2113 C2112 1.327 . S
C2113 C2117 1.429 . S
C2114 C2097 1.574 . S
C2114 H2108 0.949 . S
C2114 C2118 1.368 . S
C2115 C2096 1.429 . S
C2115 C2109 1.429 . S
C2115 C2116 1.523 . S
C2116 C2097 1.368 . S
C2116 C2110 1.368 . S
C2116 C2115 1.523 . S
C2117 C2101 1.429 . S
C2117 C2113 1.429 . S
C2117 C2118 1.523 . S
C2118 C2102 1.368 . S
C2118 C2114 1.368 . S
C2118 C2117 1.523 . S
H2119 C2094 0.950 . S
H2120 C2096 0.950 . S
H2121 C2097 0.949 . S
H2122 C2099 0.950 . S
H2123 C2101 0.950 . S
C2124 C2125 1.349 . S
C2124 C2126 1.327 . S
C2124 H2149 0.950 . S
C2125 C2124 1.349 . S
C2125 C2141 1.349 . S
C2126 C2124 1.327 . S
C2126 C2145 1.429 . S
C2126 H2150 0.950 . S
C2127 C2144 1.574 . S
C2127 C2146 1.368 . S
C2127 H2151 0.949 . S
H2128 C2132 0.949 . S
C2129 C2130 1.349 . S
C2129 C2131 1.327 . S
C2129 H2152 0.950 . S
C2130 C2129 1.349 . S
C2130 C2142 1.349 . S
C2131 C2129 1.327 . S
C2131 C2147 1.429 . S
C2131 H2153 0.950 . S
C2132 H2128 0.949 . S
C2132 C2140 1.574 . S
C2132 C2148 1.368 . S
H2133 C2141 0.950 . S
H2134 C2139 0.950 . S
H2135 C2140 0.949 . S
H2136 C2142 0.950 . S
H2137 C2143 0.950 . S
H2138 C2144 0.949 . S
C2139 H2134 0.950 . S
C2139 C2141 1.327 . S
C2139 C2145 1.429 . S
C2140 C2132 1.574 . S
C2140 H2135 0.949 . S
C2140 C2146 1.368 . S
C2141 C2125 1.349 . S
C2141 H2133 0.950 . S
C2141 C2139 1.327 . S
C2142 C2130 1.349 . S
C2142 H2136 0.950 . S
C2142 C2143 1.327 . S
C2143 H2137 0.950 . S
C2143 C2142 1.327 . S
C2143 C2147 1.429 . S
C2144 C2127 1.574 . S
C2144 H2138 0.949 . S
C2144 C2148 1.368 . S
C2145 C2126 1.429 . S
C2145 C2139 1.429 . S
C2145 C2146 1.523 . S
C2146 C2127 1.368 . S
C2146 C2140 1.368 . S
C2146 C2145 1.523 . S
C2147 C2131 1.429 . S
C2147 C2143 1.429 . S
C2147 C2148 1.523 . S
C2148 C2132 1.368 . S
C2148 C2144 1.368 . S
C2148 C2147 1.523 . S
H2149 C2124 0.950 . S
H2150 C2126 0.950 . S
H2151 C2127 0.949 . S
H2152 C2129 0.950 . S
H2153 C2131 0.950 . S
C2154 C2155 1.349 . S
C2154 C2156 1.327 . S
C2154 H2179 0.950 . S
C2155 C2154 1.349 . S
C2155 C2171 1.349 . S
C2156 C2154 1.327 . S
C2156 C2175 1.429 . S
C2156 H2180 0.950 . S
C2157 C2174 1.574 . S
C2157 C2176 1.368 . S
C2157 H2181 0.949 . S
H2158 C2162 0.949 . S
C2159 C2160 1.349 . S
C2159 C2161 1.327 . S
C2159 H2182 0.950 . S
C2160 C2159 1.349 . S
C2160 C2172 1.349 . S
C2161 C2159 1.327 . S
C2161 C2177 1.429 . S
C2161 H2183 0.950 . S
C2162 H2158 0.949 . S
C2162 C2170 1.574 . S
C2162 C2178 1.368 . S
H2163 C2171 0.950 . S
H2164 C2169 0.950 . S
H2165 C2170 0.949 . S
H2166 C2172 0.950 . S
H2167 C2173 0.950 . S
H2168 C2174 0.949 . S
C2169 H2164 0.950 . S
C2169 C2171 1.327 . S
C2169 C2175 1.429 . S
C2170 C2162 1.574 . S
C2170 H2165 0.949 . S
C2170 C2176 1.368 . S
C2171 C2155 1.349 . S
C2171 H2163 0.950 . S
C2171 C2169 1.327 . S
C2172 C2160 1.349 . S
C2172 H2166 0.950 . S
C2172 C2173 1.327 . S
C2173 H2167 0.950 . S
C2173 C2172 1.327 . S
C2173 C2177 1.429 . S
C2174 C2157 1.574 . S
C2174 H2168 0.949 . S
C2174 C2178 1.368 . S
C2175 C2156 1.429 . S
C2175 C2169 1.429 . S
C2175 C2176 1.523 . S
C2176 C2157 1.368 . S
C2176 C2170 1.368 . S
C2176 C2175 1.523 . S
C2177 C2161 1.429 . S
C2177 C2173 1.429 . S
C2177 C2178 1.523 . S
C2178 C2162 1.368 . S
C2178 C2174 1.368 . S
C2178 C2177 1.523 . S
H2179 C2154 0.950 . S
H2180 C2156 0.950 . S
H2181 C2157 0.949 . S
H2182 C2159 0.950 . S
H2183 C2161 0.950 . S
C2184 C2185 1.349 . S
C2184 C2186 1.327 . S
C2184 H2209 0.950 . S
C2185 C2184 1.349 . S
C2185 C2201 1.349 . S
C2186 C2184 1.327 . S
C2186 C2205 1.429 . S
C2186 H2210 0.950 . S
C2187 C2204 1.574 . S
C2187 C2206 1.368 . S
C2187 H2211 0.949 . S
H2188 C2192 0.949 . S
C2189 C2190 1.349 . S
C2189 C2191 1.327 . S
C2189 H2212 0.950 . S
C2190 C2189 1.349 . S
C2190 C2202 1.349 . S
C2191 C2189 1.327 . S
C2191 C2207 1.429 . S
C2191 H2213 0.950 . S
C2192 H2188 0.949 . S
C2192 C2200 1.574 . S
C2192 C2208 1.368 . S
H2193 C2201 0.950 . S
H2194 C2199 0.950 . S
H2195 C2200 0.949 . S
H2196 C2202 0.950 . S
H2197 C2203 0.950 . S
H2198 C2204 0.949 . S
C2199 H2194 0.950 . S
C2199 C2201 1.327 . S
C2199 C2205 1.429 . S
C2200 C2192 1.574 . S
C2200 H2195 0.949 . S
C2200 C2206 1.368 . S
C2201 C2185 1.349 . S
C2201 H2193 0.950 . S
C2201 C2199 1.327 . S
C2202 C2190 1.349 . S
C2202 H2196 0.950 . S
C2202 C2203 1.327 . S
C2203 H2197 0.950 . S
C2203 C2202 1.327 . S
C2203 C2207 1.429 . S
C2204 C2187 1.574 . S
C2204 H2198 0.949 . S
C2204 C2208 1.368 . S
C2205 C2186 1.429 . S
C2205 C2199 1.429 . S
C2205 C2206 1.523 . S
C2206 C2187 1.368 . S
C2206 C2200 1.368 . S
C2206 C2205 1.523 . S
C2207 C2191 1.429 . S
C2207 C2203 1.429 . S
C2207 C2208 1.523 . S
C2208 C2192 1.368 . S
C2208 C2204 1.368 . S
C2208 C2207 1.523 . S
H2209 C2184 0.950 . S
H2210 C2186 0.950 . S
H2211 C2187 0.949 . S
H2212 C2189 0.950 . S
H2213 C2191 0.950 . S
C2214 C2215 1.349 . S
C2214 C2216 1.327 . S
C2214 H2239 0.950 . S
C2215 C2214 1.349 . S
C2215 C2231 1.349 . S
C2216 C2214 1.327 . S
C2216 C2235 1.429 . S
C2216 H2240 0.950 . S
C2217 C2234 1.574 . S
C2217 C2236 1.368 . S
C2217 H2241 0.949 . S
H2218 C2222 0.949 . S
C2219 C2220 1.349 . S
C2219 C2221 1.327 . S
C2219 H2242 0.950 . S
C2220 C2219 1.349 . S
C2220 C2232 1.349 . S
C2221 C2219 1.327 . S
C2221 C2237 1.429 . S
C2221 H2243 0.950 . S
C2222 H2218 0.949 . S
C2222 C2230 1.574 . S
C2222 C2238 1.368 . S
H2223 C2231 0.950 . S
H2224 C2229 0.950 . S
H2225 C2230 0.949 . S
H2226 C2232 0.950 . S
H2227 C2233 0.950 . S
H2228 C2234 0.949 . S
C2229 H2224 0.950 . S
C2229 C2231 1.327 . S
C2229 C2235 1.429 . S
C2230 C2222 1.574 . S
C2230 H2225 0.949 . S
C2230 C2236 1.368 . S
C2231 C2215 1.349 . S
C2231 H2223 0.950 . S
C2231 C2229 1.327 . S
C2232 C2220 1.349 . S
C2232 H2226 0.950 . S
C2232 C2233 1.327 . S
C2233 H2227 0.950 . S
C2233 C2232 1.327 . S
C2233 C2237 1.429 . S
C2234 C2217 1.574 . S
C2234 H2228 0.949 . S
C2234 C2238 1.368 . S
C2235 C2216 1.429 . S
C2235 C2229 1.429 . S
C2235 C2236 1.523 . S
C2236 C2217 1.368 . S
C2236 C2230 1.368 . S
C2236 C2235 1.523 . S
C2237 C2221 1.429 . S
C2237 C2233 1.429 . S
C2237 C2238 1.523 . S
C2238 C2222 1.368 . S
C2238 C2234 1.368 . S
C2238 C2237 1.523 . S
H2239 C2214 0.950 . S
H2240 C2216 0.950 . S
H2241 C2217 0.949 . S
H2242 C2219 0.950 . S
H2243 C2221 0.950 . S
C2244 C2245 1.349 . S
C2244 C2246 1.327 . S
C2244 H2269 0.950 . S
C2245 C2244 1.349 . S
C2245 C2261 1.349 . S
C2246 C2244 1.327 . S
C2246 C2265 1.429 . S
C2246 H2270 0.950 . S
C2247 C2264 1.574 . S
C2247 C2266 1.368 . S
C2247 H2271 0.949 . S
H2248 C2252 0.949 . S
C2249 C2250 1.349 . S
C2249 C2251 1.327 . S
C2249 H2272 0.950 . S
C2250 C2249 1.349 . S
C2250 C2262 1.349 . S
C2251 C2249 1.327 . S
C2251 C2267 1.429 . S
C2251 H2273 0.950 . S
C2252 H2248 0.949 . S
C2252 C2260 1.574 . S
C2252 C2268 1.368 . S
H2253 C2261 0.950 . S
H2254 C2259 0.950 . S
H2255 C2260 0.949 . S
H2256 C2262 0.950 . S
H2257 C2263 0.950 . S
H2258 C2264 0.949 . S
C2259 H2254 0.950 . S
C2259 C2261 1.327 . S
C2259 C2265 1.429 . S
C2260 C2252 1.574 . S
C2260 H2255 0.949 . S
C2260 C2266 1.368 . S
C2261 C2245 1.349 . S
C2261 H2253 0.950 . S
C2261 C2259 1.327 . S
C2262 C2250 1.349 . S
C2262 H2256 0.950 . S
C2262 C2263 1.327 . S
C2263 H2257 0.950 . S
C2263 C2262 1.327 . S
C2263 C2267 1.429 . S
C2264 C2247 1.574 . S
C2264 H2258 0.949 . S
C2264 C2268 1.368 . S
C2265 C2246 1.429 . S
C2265 C2259 1.429 . S
C2265 C2266 1.523 . S
C2266 C2247 1.368 . S
C2266 C2260 1.368 . S
C2266 C2265 1.523 . S
C2267 C2251 1.429 . S
C2267 C2263 1.429 . S
C2267 C2268 1.523 . S
C2268 C2252 1.368 . S
C2268 C2264 1.368 . S
C2268 C2267 1.523 . S
H2269 C2244 0.950 . S
H2270 C2246 0.950 . S
H2271 C2247 0.949 . S
H2272 C2249 0.950 . S
H2273 C2251 0.950 . S
C2274 C2275 1.349 . S
C2274 C2276 1.327 . S
C2274 H2299 0.950 . S
C2275 C2274 1.349 . S
C2275 C2291 1.349 . S
C2276 C2274 1.327 . S
C2276 C2295 1.429 . S
C2276 H2300 0.950 . S
C2277 C2294 1.574 . S
C2277 C2296 1.368 . S
C2277 H2301 0.949 . S
H2278 C2282 0.949 . S
C2279 C2280 1.349 . S
C2279 C2281 1.327 . S
C2279 H2302 0.950 . S
C2280 C2279 1.349 . S
C2280 C2292 1.349 . S
C2281 C2279 1.327 . S
C2281 C2297 1.429 . S
C2281 H2303 0.950 . S
C2282 H2278 0.949 . S
C2282 C2290 1.574 . S
C2282 C2298 1.368 . S
H2283 C2291 0.950 . S
H2284 C2289 0.950 . S
H2285 C2290 0.949 . S
H2286 C2292 0.950 . S
H2287 C2293 0.950 . S
H2288 C2294 0.949 . S
C2289 H2284 0.950 . S
C2289 C2291 1.327 . S
C2289 C2295 1.429 . S
C2290 C2282 1.574 . S
C2290 H2285 0.949 . S
C2290 C2296 1.368 . S
C2291 C2275 1.349 . S
C2291 H2283 0.950 . S
C2291 C2289 1.327 . S
C2292 C2280 1.349 . S
C2292 H2286 0.950 . S
C2292 C2293 1.327 . S
C2293 H2287 0.950 . S
C2293 C2292 1.327 . S
C2293 C2297 1.429 . S
C2294 C2277 1.574 . S
C2294 H2288 0.949 . S
C2294 C2298 1.368 . S
C2295 C2276 1.429 . S
C2295 C2289 1.429 . S
C2295 C2296 1.523 . S
C2296 C2277 1.368 . S
C2296 C2290 1.368 . S
C2296 C2295 1.523 . S
C2297 C2281 1.429 . S
C2297 C2293 1.429 . S
C2297 C2298 1.523 . S
C2298 C2282 1.368 . S
C2298 C2294 1.368 . S
C2298 C2297 1.523 . S
H2299 C2274 0.950 . S
H2300 C2276 0.950 . S
H2301 C2277 0.949 . S
H2302 C2279 0.950 . S
H2303 C2281 0.950 . S
C2304 C2305 1.349 . S
C2304 C2306 1.327 . S
C2304 H2329 0.950 . S
C2305 C2304 1.349 . S
C2305 C2321 1.349 . S
C2306 C2304 1.327 . S
C2306 C2325 1.429 . S
C2306 H2330 0.950 . S
C2307 C2324 1.574 . S
C2307 C2326 1.368 . S
C2307 H2331 0.949 . S
H2308 C2312 0.949 . S
C2309 C2310 1.349 . S
C2309 C2311 1.327 . S
C2309 H2332 0.950 . S
C2310 C2309 1.349 . S
C2310 C2322 1.349 . S
C2311 C2309 1.327 . S
C2311 C2327 1.429 . S
C2311 H2333 0.950 . S
C2312 H2308 0.949 . S
C2312 C2320 1.574 . S
C2312 C2328 1.368 . S
H2313 C2321 0.950 . S
H2314 C2319 0.950 . S
H2315 C2320 0.949 . S
H2316 C2322 0.950 . S
H2317 C2323 0.950 . S
H2318 C2324 0.949 . S
C2319 H2314 0.950 . S
C2319 C2321 1.327 . S
C2319 C2325 1.429 . S
C2320 C2312 1.574 . S
C2320 H2315 0.949 . S
C2320 C2326 1.368 . S
C2321 C2305 1.349 . S
C2321 H2313 0.950 . S
C2321 C2319 1.327 . S
C2322 C2310 1.349 . S
C2322 H2316 0.950 . S
C2322 C2323 1.327 . S
C2323 H2317 0.950 . S
C2323 C2322 1.327 . S
C2323 C2327 1.429 . S
C2324 C2307 1.574 . S
C2324 H2318 0.949 . S
C2324 C2328 1.368 . S
C2325 C2306 1.429 . S
C2325 C2319 1.429 . S
C2325 C2326 1.523 . S
C2326 C2307 1.368 . S
C2326 C2320 1.368 . S
C2326 C2325 1.523 . S
C2327 C2311 1.429 . S
C2327 C2323 1.429 . S
C2327 C2328 1.523 . S
C2328 C2312 1.368 . S
C2328 C2324 1.368 . S
C2328 C2327 1.523 . S
H2329 C2304 0.950 . S
H2330 C2306 0.950 . S
H2331 C2307 0.949 . S
H2332 C2309 0.950 . S
H2333 C2311 0.950 . S
C2334 C2335 1.349 . S
C2334 C2336 1.327 . S
C2334 H2359 0.950 . S
C2335 C2334 1.349 . S
C2335 C2351 1.349 . S
C2336 C2334 1.327 . S
C2336 C2355 1.429 . S
C2336 H2360 0.950 . S
C2337 C2354 1.574 . S
C2337 C2356 1.368 . S
C2337 H2361 0.949 . S
H2338 C2342 0.949 . S
C2339 C2340 1.349 . S
C2339 C2341 1.327 . S
C2339 H2362 0.950 . S
C2340 C2339 1.349 . S
C2340 C2352 1.349 . S
C2341 C2339 1.327 . S
C2341 C2357 1.429 . S
C2341 H2363 0.950 . S
C2342 H2338 0.949 . S
C2342 C2350 1.574 . S
C2342 C2358 1.368 . S
H2343 C2351 0.950 . S
H2344 C2349 0.950 . S
H2345 C2350 0.949 . S
H2346 C2352 0.950 . S
H2347 C2353 0.950 . S
H2348 C2354 0.949 . S
C2349 H2344 0.950 . S
C2349 C2351 1.327 . S
C2349 C2355 1.429 . S
C2350 C2342 1.574 . S
C2350 H2345 0.949 . S
C2350 C2356 1.368 . S
C2351 C2335 1.349 . S
C2351 H2343 0.950 . S
C2351 C2349 1.327 . S
C2352 C2340 1.349 . S
C2352 H2346 0.950 . S
C2352 C2353 1.327 . S
C2353 H2347 0.950 . S
C2353 C2352 1.327 . S
C2353 C2357 1.429 . S
C2354 C2337 1.574 . S
C2354 H2348 0.949 . S
C2354 C2358 1.368 . S
C2355 C2336 1.429 . S
C2355 C2349 1.429 . S
C2355 C2356 1.523 . S
C2356 C2337 1.368 . S
C2356 C2350 1.368 . S
C2356 C2355 1.523 . S
C2357 C2341 1.429 . S
C2357 C2353 1.429 . S
C2357 C2358 1.523 . S
C2358 C2342 1.368 . S
C2358 C2354 1.368 . S
C2358 C2357 1.523 . S
H2359 C2334 0.950 . S
H2360 C2336 0.950 . S
H2361 C2337 0.949 . S
H2362 C2339 0.950 . S
H2363 C2341 0.950 . S
C2364 C2365 1.349 . S
C2364 C2366 1.327 . S
C2364 H2389 0.950 . S
C2365 C2364 1.349 . S
C2365 C2381 1.349 . S
C2366 C2364 1.327 . S
C2366 C2385 1.429 . S
C2366 H2390 0.950 . S
C2367 C2384 1.574 . S
C2367 C2386 1.368 . S
C2367 H2391 0.949 . S
H2368 C2372 0.949 . S
C2369 C2370 1.349 . S
C2369 C2371 1.327 . S
C2369 H2392 0.950 . S
C2370 C2369 1.349 . S
C2370 C2382 1.349 . S
C2371 C2369 1.327 . S
C2371 C2387 1.429 . S
C2371 H2393 0.950 . S
C2372 H2368 0.949 . S
C2372 C2380 1.574 . S
C2372 C2388 1.368 . S
H2373 C2381 0.950 . S
H2374 C2379 0.950 . S
H2375 C2380 0.949 . S
H2376 C2382 0.950 . S
H2377 C2383 0.950 . S
H2378 C2384 0.949 . S
C2379 H2374 0.950 . S
C2379 C2381 1.327 . S
C2379 C2385 1.429 . S
C2380 C2372 1.574 . S
C2380 H2375 0.949 . S
C2380 C2386 1.368 . S
C2381 C2365 1.349 . S
C2381 H2373 0.950 . S
C2381 C2379 1.327 . S
C2382 C2370 1.349 . S
C2382 H2376 0.950 . S
C2382 C2383 1.327 . S
C2383 H2377 0.950 . S
C2383 C2382 1.327 . S
C2383 C2387 1.429 . S
C2384 C2367 1.574 . S
C2384 H2378 0.949 . S
C2384 C2388 1.368 . S
C2385 C2366 1.429 . S
C2385 C2379 1.429 . S
C2385 C2386 1.523 . S
C2386 C2367 1.368 . S
C2386 C2380 1.368 . S
C2386 C2385 1.523 . S
C2387 C2371 1.429 . S
C2387 C2383 1.429 . S
C2387 C2388 1.523 . S
C2388 C2372 1.368 . S
C2388 C2384 1.368 . S
C2388 C2387 1.523 . S
H2389 C2364 0.950 . S
H2390 C2366 0.950 . S
H2391 C2367 0.949 . S
H2392 C2369 0.950 . S
H2393 C2371 0.950 . S
C2394 C2395 1.349 . S
C2394 C2396 1.327 . S
C2394 H2419 0.950 . S
C2395 C2394 1.349 . S
C2395 C2411 1.349 . S
C2396 C2394 1.327 . S
C2396 C2415 1.429 . S
C2396 H2420 0.950 . S
C2397 C2414 1.574 . S
C2397 C2416 1.368 . S
C2397 H2421 0.949 . S
H2398 C2402 0.949 . S
C2399 C2400 1.349 . S
C2399 C2401 1.327 . S
C2399 H2422 0.950 . S
C2400 C2399 1.349 . S
C2400 C2412 1.349 . S
C2401 C2399 1.327 . S
C2401 C2417 1.429 . S
C2401 H2423 0.950 . S
C2402 H2398 0.949 . S
C2402 C2410 1.574 . S
C2402 C2418 1.368 . S
H2403 C2411 0.950 . S
H2404 C2409 0.950 . S
H2405 C2410 0.949 . S
H2406 C2412 0.950 . S
H2407 C2413 0.950 . S
H2408 C2414 0.949 . S
C2409 H2404 0.950 . S
C2409 C2411 1.327 . S
C2409 C2415 1.429 . S
C2410 C2402 1.574 . S
C2410 H2405 0.949 . S
C2410 C2416 1.368 . S
C2411 C2395 1.349 . S
C2411 H2403 0.950 . S
C2411 C2409 1.327 . S
C2412 C2400 1.349 . S
C2412 H2406 0.950 . S
C2412 C2413 1.327 . S
C2413 H2407 0.950 . S
C2413 C2412 1.327 . S
C2413 C2417 1.429 . S
C2414 C2397 1.574 . S
C2414 H2408 0.949 . S
C2414 C2418 1.368 . S
C2415 C2396 1.429 . S
C2415 C2409 1.429 . S
C2415 C2416 1.523 . S
C2416 C2397 1.368 . S
C2416 C2410 1.368 . S
C2416 C2415 1.523 . S
C2417 C2401 1.429 . S
C2417 C2413 1.429 . S
C2417 C2418 1.523 . S
C2418 C2402 1.368 . S
C2418 C2414 1.368 . S
C2418 C2417 1.523 . S
H2419 C2394 0.950 . S
H2420 C2396 0.950 . S
H2421 C2397 0.949 . S
H2422 C2399 0.950 . S
H2423 C2401 0.950 . S
C2424 C2425 1.349 . S
C2424 C2426 1.327 . S
C2424 H2449 0.950 . S
C2425 C2424 1.349 . S
C2425 C2441 1.349 . S
C2426 C2424 1.327 . S
C2426 C2445 1.429 . S
C2426 H2450 0.950 . S
C2427 C2444 1.574 . S
C2427 C2446 1.368 . S
C2427 H2451 0.949 . S
H2428 C2432 0.949 . S
C2429 C2430 1.349 . S
C2429 C2431 1.327 . S
C2429 H2452 0.950 . S
C2430 C2429 1.349 . S
C2430 C2442 1.349 . S
C2431 C2429 1.327 . S
C2431 C2447 1.429 . S
C2431 H2453 0.950 . S
C2432 H2428 0.949 . S
C2432 C2440 1.574 . S
C2432 C2448 1.368 . S
H2433 C2441 0.950 . S
H2434 C2439 0.950 . S
H2435 C2440 0.949 . S
H2436 C2442 0.950 . S
H2437 C2443 0.950 . S
H2438 C2444 0.949 . S
C2439 H2434 0.950 . S
C2439 C2441 1.327 . S
C2439 C2445 1.429 . S
C2440 C2432 1.574 . S
C2440 H2435 0.949 . S
C2440 C2446 1.368 . S
C2441 C2425 1.349 . S
C2441 H2433 0.950 . S
C2441 C2439 1.327 . S
C2442 C2430 1.349 . S
C2442 H2436 0.950 . S
C2442 C2443 1.327 . S
C2443 H2437 0.950 . S
C2443 C2442 1.327 . S
C2443 C2447 1.429 . S
C2444 C2427 1.574 . S
C2444 H2438 0.949 . S
C2444 C2448 1.368 . S
C2445 C2426 1.429 . S
C2445 C2439 1.429 . S
C2445 C2446 1.523 . S
C2446 C2427 1.368 . S
C2446 C2440 1.368 . S
C2446 C2445 1.523 . S
C2447 C2431 1.429 . S
C2447 C2443 1.429 . S
C2447 C2448 1.523 . S
C2448 C2432 1.368 . S
C2448 C2444 1.368 . S
C2448 C2447 1.523 . S
H2449 C2424 0.950 . S
H2450 C2426 0.950 . S
H2451 C2427 0.949 . S
H2452 C2429 0.950 . S
H2453 C2431 0.950 . S
C2454 C2455 1.349 . S
C2454 C2456 1.327 . S
C2454 H2479 0.950 . S
C2455 C2454 1.349 . S
C2455 C2471 1.349 . S
C2456 C2454 1.327 . S
C2456 C2475 1.429 . S
C2456 H2480 0.950 . S
C2457 C2474 1.574 . S
C2457 C2476 1.368 . S
C2457 H2481 0.949 . S
H2458 C2462 0.949 . S
C2459 C2460 1.349 . S
C2459 C2461 1.327 . S
C2459 H2482 0.950 . S
C2460 C2459 1.349 . S
C2460 C2472 1.349 . S
C2461 C2459 1.327 . S
C2461 C2477 1.429 . S
C2461 H2483 0.950 . S
C2462 H2458 0.949 . S
C2462 C2470 1.574 . S
C2462 C2478 1.368 . S
H2463 C2471 0.950 . S
H2464 C2469 0.950 . S
H2465 C2470 0.949 . S
H2466 C2472 0.950 . S
H2467 C2473 0.950 . S
H2468 C2474 0.949 . S
C2469 H2464 0.950 . S
C2469 C2471 1.327 . S
C2469 C2475 1.429 . S
C2470 C2462 1.574 . S
C2470 H2465 0.949 . S
C2470 C2476 1.368 . S
C2471 C2455 1.349 . S
C2471 H2463 0.950 . S
C2471 C2469 1.327 . S
C2472 C2460 1.349 . S
C2472 H2466 0.950 . S
C2472 C2473 1.327 . S
C2473 H2467 0.950 . S
C2473 C2472 1.327 . S
C2473 C2477 1.429 . S
C2474 C2457 1.574 . S
C2474 H2468 0.949 . S
C2474 C2478 1.368 . S
C2475 C2456 1.429 . S
C2475 C2469 1.429 . S
C2475 C2476 1.523 . S
C2476 C2457 1.368 . S
C2476 C2470 1.368 . S
C2476 C2475 1.523 . S
C2477 C2461 1.429 . S
C2477 C2473 1.429 . S
C2477 C2478 1.523 . S
C2478 C2462 1.368 . S
C2478 C2474 1.368 . S
C2478 C2477 1.523 . S
H2479 C2454 0.950 . S
H2480 C2456 0.950 . S
H2481 C2457 0.949 . S
H2482 C2459 0.950 . S
H2483 C2461 0.950 . S
C2484 C2485 1.349 . S
C2484 C2486 1.327 . S
C2484 H2509 0.950 . S
C2485 C2484 1.349 . S
C2485 C2501 1.349 . S
C2486 C2484 1.327 . S
C2486 C2505 1.429 . S
C2486 H2510 0.950 . S
C2487 C2504 1.574 1_456 S
C2487 C2506 1.368 . S
C2487 H2511 0.949 . S
H2488 C2492 0.949 . S
C2489 C2490 1.349 . S
C2489 C2491 1.327 . S
C2489 H2512 0.950 . S
C2490 C2489 1.349 . S
C2490 C2502 1.349 . S
C2491 C2489 1.327 . S
C2491 C2507 1.429 . S
C2491 H2513 0.950 . S
C2492 H2488 0.949 . S
C2492 C2500 1.574 1_654 S
C2492 C2508 1.368 . S
H2493 C2501 0.950 . S
H2494 C2499 0.950 . S
H2495 C2500 0.949 . S
H2496 C2502 0.950 . S
H2497 C2503 0.950 . S
H2498 C2504 0.949 . S
C2499 H2494 0.950 . S
C2499 C2501 1.327 . S
C2499 C2505 1.429 . S
C2500 C2492 1.574 1_456 S
C2500 H2495 0.949 . S
C2500 C2506 1.368 . S
C2501 C2485 1.349 . S
C2501 H2493 0.950 . S
C2501 C2499 1.327 . S
C2502 C2490 1.349 . S
C2502 H2496 0.950 . S
C2502 C2503 1.327 . S
C2503 H2497 0.950 . S
C2503 C2502 1.327 . S
C2503 C2507 1.429 . S
C2504 C2487 1.574 1_654 S
C2504 H2498 0.949 . S
C2504 C2508 1.368 . S
C2505 C2486 1.429 . S
C2505 C2499 1.429 . S
C2505 C2506 1.523 . S
C2506 C2487 1.368 . S
C2506 C2500 1.368 . S
C2506 C2505 1.523 . S
C2507 C2491 1.429 . S
C2507 C2503 1.429 . S
C2507 C2508 1.523 . S
C2508 C2492 1.368 . S
C2508 C2504 1.368 . S
C2508 C2507 1.523 . S
H2509 C2484 0.950 . S
H2510 C2486 0.950 . S
H2511 C2487 0.949 . S
H2512 C2489 0.950 . S
H2513 C2491 0.950 . S
C2514 C2515 1.349 . S
C2514 C2516 1.327 . S
C2514 H2539 0.950 . S
C2515 C2514 1.349 . S
C2515 C2531 1.349 . S
C2516 C2514 1.327 . S
C2516 C2535 1.429 . S
C2516 H2540 0.950 . S
C2517 C2534 1.574 1_554 S
C2517 C2536 1.368 . S
C2517 H2541 0.949 . S
H2518 C2522 0.949 . S
C2519 C2520 1.349 . S
C2519 C2521 1.327 . S
C2519 H2542 0.950 . S
C2520 C2519 1.349 . S
C2520 C2532 1.349 . S
C2521 C2519 1.327 . S
C2521 C2537 1.429 . S
C2521 H2543 0.950 . S
C2522 H2518 0.949 . S
C2522 C2530 1.574 1_556 S
C2522 C2538 1.368 . S
H2523 C2531 0.950 . S
H2524 C2529 0.950 . S
H2525 C2530 0.949 . S
H2526 C2532 0.950 . S
H2527 C2533 0.950 . S
H2528 C2534 0.949 . S
C2529 H2524 0.950 . S
C2529 C2531 1.327 . S
C2529 C2535 1.429 . S
C2530 C2522 1.574 1_554 S
C2530 H2525 0.949 . S
C2530 C2536 1.368 . S
C2531 C2515 1.349 . S
C2531 H2523 0.950 . S
C2531 C2529 1.327 . S
C2532 C2520 1.349 . S
C2532 H2526 0.950 . S
C2532 C2533 1.327 . S
C2533 H2527 0.950 . S
C2533 C2532 1.327 . S
C2533 C2537 1.429 . S
C2534 C2517 1.574 1_556 S
C2534 H2528 0.949 . S
C2534 C2538 1.368 . S
C2535 C2516 1.429 . S
C2535 C2529 1.429 . S
C2535 C2536 1.523 . S
C2536 C2517 1.368 . S
C2536 C2530 1.368 . S
C2536 C2535 1.523 . S
C2537 C2521 1.429 . S
C2537 C2533 1.429 . S
C2537 C2538 1.523 . S
C2538 C2522 1.368 . S
C2538 C2534 1.368 . S
C2538 C2537 1.523 . S
H2539 C2514 0.950 . S
H2540 C2516 0.950 . S
H2541 C2517 0.949 . S
H2542 C2519 0.950 . S
H2543 C2521 0.950 . S
C2544 C2545 1.349 . S
C2544 C2546 1.327 . S
C2544 H2569 0.950 . S
C2545 C2544 1.349 . S
C2545 C2561 1.349 . S
C2546 C2544 1.327 . S
C2546 C2565 1.429 . S
C2546 H2570 0.950 1_545 S
C2547 C2564 1.574 1_554 S
C2547 C2566 1.368 . S
C2547 H2571 0.949 . S
H2548 C2552 0.949 . S
C2549 C2550 1.349 . S
C2549 C2551 1.327 . S
C2549 H2572 0.950 . S
C2550 C2549 1.349 . S
C2550 C2562 1.349 . S
C2551 C2549 1.327 . S
C2551 C2567 1.429 . S
C2551 H2573 0.950 1_565 S
C2552 H2548 0.949 . S
C2552 C2560 1.574 1_556 S
C2552 C2568 1.368 . S
H2553 C2561 0.950 . S
H2554 C2559 0.950 . S
H2555 C2560 0.949 . S
H2556 C2562 0.950 . S
H2557 C2563 0.950 . S
H2558 C2564 0.949 . S
C2559 H2554 0.950 . S
C2559 C2561 1.327 . S
C2559 C2565 1.429 . S
C2560 C2552 1.574 1_554 S
C2560 H2555 0.949 . S
C2560 C2566 1.368 1_565 S
C2561 C2545 1.349 . S
C2561 H2553 0.950 . S
C2561 C2559 1.327 . S
C2562 C2550 1.349 . S
C2562 H2556 0.950 . S
C2562 C2563 1.327 . S
C2563 H2557 0.950 . S
C2563 C2562 1.327 . S
C2563 C2567 1.429 . S
C2564 C2547 1.574 1_556 S
C2564 H2558 0.949 . S
C2564 C2568 1.368 1_545 S
C2565 C2546 1.429 . S
C2565 C2559 1.429 . S
C2565 C2566 1.523 . S
C2566 C2547 1.368 . S
C2566 C2560 1.368 1_545 S
C2566 C2565 1.523 . S
C2567 C2551 1.429 . S
C2567 C2563 1.429 . S
C2567 C2568 1.523 . S
C2568 C2552 1.368 . S
C2568 C2564 1.368 1_565 S
C2568 C2567 1.523 . S
H2569 C2544 0.950 . S
H2570 C2546 0.950 1_565 S
H2571 C2547 0.949 . S
H2572 C2549 0.950 . S
H2573 C2551 0.950 1_545 S
C2574 C2575 1.349 . S
C2574 C2576 1.327 . S
C2574 H2599 0.950 . S
C2575 C2574 1.349 . S
C2575 C2591 1.349 . S
C2576 C2574 1.327 . S
C2576 C2595 1.429 . S
C2576 H2600 0.950 1_565 S
C2577 C2594 1.574 1_556 S
C2577 C2596 1.368 . S
C2577 H2601 0.949 . S
H2578 C2582 0.949 . S
C2579 C2580 1.349 . S
C2579 C2581 1.327 . S
C2579 H2602 0.950 . S
C2580 C2579 1.349 . S
C2580 C2592 1.349 . S
C2581 C2579 1.327 . S
C2581 C2597 1.429 . S
C2581 H2603 0.950 1_545 S
C2582 H2578 0.949 . S
C2582 C2590 1.574 1_554 S
C2582 C2598 1.368 . S
H2583 C2591 0.950 . S
H2584 C2589 0.950 . S
H2585 C2590 0.949 . S
H2586 C2592 0.950 . S
H2587 C2593 0.950 . S
H2588 C2594 0.949 . S
C2589 H2584 0.950 . S
C2589 C2591 1.327 . S
C2589 C2595 1.429 . S
C2590 C2582 1.574 1_556 S
C2590 H2585 0.949 . S
C2590 C2596 1.368 1_545 S
C2591 C2575 1.349 . S
C2591 H2583 0.950 . S
C2591 C2589 1.327 . S
C2592 C2580 1.349 . S
C2592 H2586 0.950 . S
C2592 C2593 1.327 . S
C2593 H2587 0.950 . S
C2593 C2592 1.327 . S
C2593 C2597 1.429 . S
C2594 C2577 1.574 1_554 S
C2594 H2588 0.949 . S
C2594 C2598 1.368 1_565 S
C2595 C2576 1.429 . S
C2595 C2589 1.429 . S
C2595 C2596 1.523 . S
C2596 C2577 1.368 . S
C2596 C2590 1.368 1_565 S
C2596 C2595 1.523 . S
C2597 C2581 1.429 . S
C2597 C2593 1.429 . S
C2597 C2598 1.523 . S
C2598 C2582 1.368 . S
C2598 C2594 1.368 1_545 S
C2598 C2597 1.523 . S
H2599 C2574 0.950 . S
H2600 C2576 0.950 1_545 S
H2601 C2577 0.949 . S
H2602 C2579 0.950 . S
H2603 C2581 0.950 1_565 S
C2604 C2605 1.349 . S
C2604 C2606 1.327 . S
C2604 H2629 0.950 . S
C2605 C2604 1.349 . S
C2605 C2621 1.349 . S
C2606 C2604 1.327 . S
C2606 C2625 1.429 . S
C2606 H2630 0.950 . S
C2607 C2624 1.569 1_556 S
C2607 C2626 1.368 . S
C2607 H2631 0.949 . S
H2608 C2612 0.949 . S
C2609 C2610 1.349 . S
C2609 C2611 1.327 . S
C2609 H2632 0.950 . S
C2610 C2609 1.349 . S
C2610 C2622 1.349 . S
C2611 C2609 1.327 . S
C2611 C2627 1.429 . S
C2611 H2633 0.950 . S
C2612 H2608 0.949 . S
C2612 C2620 1.570 1_554 S
C2612 C2628 1.368 . S
H2613 C2621 0.950 . S
H2614 C2619 0.950 . S
H2615 C2620 0.943 1_455 S
H2616 C2622 0.950 . S
H2617 C2623 0.950 . S
H2618 C2624 0.943 1_655 S
C2619 H2614 0.950 . S
C2619 C2621 1.327 . S
C2619 C2625 1.429 . S
C2620 C2612 1.570 1_556 S
C2620 H2615 0.943 1_655 S
C2620 C2626 1.376 1_655 S
C2621 C2605 1.349 . S
C2621 H2613 0.950 . S
C2621 C2619 1.327 . S
C2622 C2610 1.349 . S
C2622 H2616 0.950 . S
C2622 C2623 1.327 . S
C2623 H2617 0.950 . S
C2623 C2622 1.327 . S
C2623 C2627 1.429 . S
C2624 C2607 1.569 1_554 S
C2624 H2618 0.943 1_455 S
C2624 C2628 1.378 1_455 S
C2625 C2606 1.429 . S
C2625 C2619 1.429 . S
C2625 C2626 1.523 . S
C2626 C2607 1.368 . S
C2626 C2620 1.376 1_455 S
C2626 C2625 1.523 . S
C2627 C2611 1.429 . S
C2627 C2623 1.429 . S
C2627 C2628 1.523 . S
C2628 C2612 1.368 . S
C2628 C2624 1.378 1_655 S
C2628 C2627 1.523 . S
H2629 C2604 0.950 . S
H2630 C2606 0.950 . S
H2631 C2607 0.949 . S
H2632 C2609 0.950 . S
H2633 C2611 0.950 . S
C2634 C2635 1.349 . S
C2634 C2636 1.327 . S
C2634 H2659 0.950 . S
C2635 C2634 1.349 . S
C2635 C2651 1.349 . S
C2636 C2634 1.327 . S
C2636 C2655 1.429 . S
C2636 H2660 0.950 . S
C2637 C2654 1.574 1_554 S
C2637 C2656 1.368 . S
C2637 H2661 0.949 . S
H2638 C2642 0.949 . S
C2639 C2640 1.349 . S
C2639 C2641 1.327 . S
C2639 H2662 0.950 . S
C2640 C2639 1.349 . S
C2640 C2652 1.349 . S
C2641 C2639 1.327 . S
C2641 C2657 1.429 . S
C2641 H2663 0.950 . S
C2642 H2638 0.949 . S
C2642 C2650 1.574 1_556 S
C2642 C2658 1.368 . S
H2643 C2651 0.950 . S
H2644 C2649 0.950 . S
H2645 C2650 0.949 . S
H2646 C2652 0.950 . S
H2647 C2653 0.950 . S
H2648 C2654 0.949 . S
C2649 H2644 0.950 . S
C2649 C2651 1.327 . S
C2649 C2655 1.429 . S
C2650 C2642 1.574 1_554 S
C2650 H2645 0.949 . S
C2650 C2656 1.368 . S
C2651 C2635 1.349 . S
C2651 H2643 0.950 . S
C2651 C2649 1.327 . S
C2652 C2640 1.349 . S
C2652 H2646 0.950 . S
C2652 C2653 1.327 . S
C2653 H2647 0.950 . S
C2653 C2652 1.327 . S
C2653 C2657 1.429 . S
C2654 C2637 1.574 1_556 S
C2654 H2648 0.949 . S
C2654 C2658 1.368 . S
C2655 C2636 1.429 . S
C2655 C2649 1.429 . S
C2655 C2656 1.523 . S
C2656 C2637 1.368 . S
C2656 C2650 1.368 . S
C2656 C2655 1.523 . S
C2657 C2641 1.429 . S
C2657 C2653 1.429 . S
C2657 C2658 1.523 . S
C2658 C2642 1.368 . S
C2658 C2654 1.368 . S
C2658 C2657 1.523 . S
H2659 C2634 0.950 . S
H2660 C2636 0.950 . S
H2661 C2637 0.949 . S
H2662 C2639 0.950 . S
H2663 C2641 0.950 . S
C505 C8 1.274 . S
C510 C162 1.274 . S
C535 C22 1.274 . S
C540 C134 1.274 . S
C565 C148 1.274 . S
C570 C36 1.274 . S
C595 C50 1.274 . S
C600 C106 1.274 . S
C625 C120 1.274 . S
C630 C64 1.274 . S
C655 C78 1.274 . S
C660 C92 1.274 . S
C685 C330 1.274 . S
C690 C176 1.274 . S
C715 C190 1.274 . S
C720 C302 1.274 . S
C745 C204 1.274 . S
C750 C316 1.274 . S
C775 C274 1.274 . S
C780 C218 1.274 . S
C805 C232 1.274 . S
C810 C288 1.274 . S
C835 C260 1.274 . S
C840 C246 1.274 . S
C865 C344 1.274 . S
C870 C498 1.274 . S
C895 C470 1.274 . S
C900 C358 1.274 . S
C925 C484 1.274 . S
C930 C372 1.274 . S
C955 C442 1.274 . S
C960 C386 1.274 . S
C985 C456 1.274 . S
C990 C400 1.274 . S
C1015 C428 1.274 . S
C1020 C414 1.274 . S
C1045 C7 1.375 . S
C1050 C63 1.375 . S
C1075 C77 1.375 . S
C1080 C21 1.375 . S
C1105 C35 1.375 . S
C1110 C49 1.375 . S
C1135 C91 1.375 . S
C1140 C147 1.375 . S
C1165 C105 1.375 . S
C1170 C161 1.375 . S
C1195 C119 1.375 . S
C1200 C133 1.375 . S
C1225 C231 1.375 . S
C1230 C175 1.375 . S
C1255 C245 1.376 . S
C1260 C189 1.376 . S
C1285 C203 1.375 . S
C1290 C217 1.375 . S
C1315 C315 1.375 . S
C1320 C259 1.375 . S
C1345 C329 1.375 . S
C1350 C273 1.375 . S
C1375 C287 1.375 . S
C1380 C301 1.375 . S
C1405 C399 1.375 . S
C1410 C343 1.375 . S
C1435 C357 1.375 . S
C1440 C413 1.375 . S
C1465 C371 1.375 . S
C1470 C385 1.375 . S
C1495 C483 1.375 . S
C1500 C427 1.375 . S
C1525 C441 1.375 . S
C1530 C497 1.375 . S
C1555 C469 1.375 . S
C1560 C455 1.375 . S
C1585 C415 1.381 . S
C1590 C9 1.370 1_556 S
C1615 C23 1.369 1_556 S
C1620 C387 1.380 . S
C1645 C37 1.364 1_556 S
C1650 C401 1.380 . S
C1675 C51 1.370 1_554 S
C1680 C191 1.381 . S
C1705 C205 1.380 . S
C1710 C65 1.364 1_554 S
C1735 C177 1.380 . S
C1740 C79 1.369 1_554 S
C1765 C93 1.370 1_554 S
C1770 C331 1.381 . S
C1795 C107 1.369 1_554 S
C1800 C303 1.380 . S
C1825 C121 1.364 1_554 S
C1830 C317 1.380 . S
C1855 C443 1.380 . S
C1860 C135 1.370 1_556 S
C1885 C457 1.380 . S
C1890 C149 1.364 1_556 S
C1915 C163 1.369 1_556 S
C1920 C429 1.380 . S
C1945 C359 1.381 . S
C1950 C219 1.381 . S
C1975 C233 1.380 . S
C1980 C373 1.380 . S
C2005 C345 1.380 . S
C2010 C247 1.380 . S
C2035 C499 1.380 . S
C2040 C261 1.380 . S
C2065 C275 1.380 . S
C2070 C471 1.380 . S
C2095 C289 1.380 . S
C2100 C485 1.380 . S
C2125 C6 1.598 . S
C2130 C412 1.598 . S
C2155 C384 1.598 . S
C2160 C20 1.598 . S
C2185 C34 1.598 . S
C2190 C398 1.598 . S
C2215 C188 1.598 . S
C2220 C48 1.598 . S
C2245 C62 1.598 . S
C2250 C202 1.598 . S
C2275 C76 1.598 . S
C2280 C174 1.598 . S
C2305 C328 1.598 . S
C2310 C90 1.598 . S
C2335 C104 1.598 . S
C2340 C300 1.598 . S
C2365 C118 1.598 . S
C2370 C314 1.598 . S
C2395 C132 1.598 . S
C2400 C440 1.598 . S
C2425 C454 1.598 . S
C2430 C146 1.598 . S
C2455 C160 1.598 . S
C2460 C426 1.598 . S
C2485 C356 1.598 . S
C2490 C216 1.598 . S
C2515 C230 1.598 . S
C2520 C370 1.598 . S
C2545 C244 1.598 . S
C2550 C342 1.598 . S
C2575 C496 1.598 . S
C2580 C258 1.598 . S
C2605 C468 1.598 . S
C2610 C272 1.598 . S
C2635 C286 1.598 . S
C2640 C482 1.598 . S
