# Generated by pormake.
# Topology uov, (4)-cn, num edge types: 1
# Building blocks:
#     Node 0, Type 0, BuildingBlock: QUQFOY_clean_sbu_1, # of connection points: 4
#     Node 1, Type 0, BuildingBlock: QUQFOY_clean_sbu_1, # of connection points: 4
#     Node 2, Type 0, BuildingBlock: QUQFOY_clean_sbu_1, # of connection points: 4
#     Node 3, Type 0, BuildingBlock: QUQFOY_clean_sbu_1, # of connection points: 4
#     Node 4, Type 0, BuildingBlock: QUQFOY_clean_sbu_1, # of connection points: 4
#     Node 5, Type 0, BuildingBlock: QUQFOY_clean_sbu_1, # of connection points: 4
#     Node 6, Type 0, BuildingBlock: QUQFOY_clean_sbu_1, # of connection points: 4
#     Node 7, Type 0, BuildingBlock: QUQFOY_clean_sbu_1, # of connection points: 4
#     Edge 8, Type (0, 0), BuildingBlock: KIFKEQ_clean_linker_1, # of connection points: 2
#     Edge 9, Type (0, 0), BuildingBlock: KIFKEQ_clean_linker_1, # of connection points: 2
#     Edge 10, Type (0, 0), BuildingBlock: KIFKEQ_clean_linker_1, # of connection points: 2
#     Edge 11, Type (0, 0), BuildingBlock: KIFKEQ_clean_linker_1, # of connection points: 2
#     Edge 12, Type (0, 0), BuildingBlock: KIFKEQ_clean_linker_1, # of connection points: 2
#     Edge 13, Type (0, 0), BuildingBlock: KIFKEQ_clean_linker_1, # of connection points: 2
#     Edge 14, Type (0, 0), BuildingBlock: KIFKEQ_clean_linker_1, # of connection points: 2
#     Edge 15, Type (0, 0), BuildingBlock: KIFKEQ_clean_linker_1, # of connection points: 2
#     Edge 16, Type (0, 0), BuildingBlock: KIFKEQ_clean_linker_1, # of connection points: 2
#     Edge 17, Type (0, 0), BuildingBlock: KIFKEQ_clean_linker_1, # of connection points: 2
#     Edge 18, Type (0, 0), BuildingBlock: KIFKEQ_clean_linker_1, # of connection points: 2
#     Edge 19, Type (0, 0), BuildingBlock: KIFKEQ_clean_linker_1, # of connection points: 2
#     Edge 20, Type (0, 0), BuildingBlock: KIFKEQ_clean_linker_1, # of connection points: 2
#     Edge 21, Type (0, 0), BuildingBlock: KIFKEQ_clean_linker_1, # of connection points: 2
#     Edge 22, Type (0, 0), BuildingBlock: KIFKEQ_clean_linker_1, # of connection points: 2
#     Edge 23, Type (0, 0), BuildingBlock: KIFKEQ_clean_linker_1, # of connection points: 2
# Relax obj value: 0.031
# Max RMSD: 0.047
# Mean RMSD: 0.047
data_MOF--net-uov--node1-QUQFOY_clean_sbu_1--edge1-KIFKEQ_clean_linker_1
_symmetry_space_group_name_H-M    P1
_symmetry_Int_Tables_number       1
_symmetry_cell_setting            triclinic
loop_
_symmetry_equiv_pos_as_xyz
'x, y, z'
_cell_length_a     32.57196
_cell_length_b     32.584014
_cell_length_c     45.798585
_cell_angle_alpha  89.989769
_cell_angle_beta   90.014804
_cell_angle_gamma 90.191114
loop_
_atom_site_label
_atom_site_type_symbol
_atom_site_fract_x
_atom_site_fract_y
_atom_site_fract_z
_atom_type_partial_charge
O0 O 0.99703 0.25925 0.56629 0.0
Cd1 Cd 0.05206 0.28279 0.58045 0.0
Cd2 Cd 0.0547 0.20671 0.60744 0.0
O3 O 0.99539 0.20134 0.59123 0.0
O4 O 0.04993 0.33977 0.5654 0.0
O5 O 0.05182 0.3257 0.61256 0.0
C6 C 0.04984 0.35261 0.59194 0.0
C7 C 0.07117 0.18531 0.65479 0.0
C8 C 0.97878 0.22623 0.57339 0.0
C9 C 0.1171 0.22535 0.56015 0.0
O10 O 0.10159 0.19934 0.57767 0.0
O11 O 0.10314 0.2616 0.55883 0.0
O12 O 0.06306 0.15936 0.63435 0.0
O13 O 0.06813 0.22391 0.64871 0.0
O14 O 0.2663 0.02259 0.42804 0.0
Cd15 Cd 0.28108 0.96355 0.41649 0.0
Cd16 Cd 0.20919 0.97462 0.38635 0.0
O17 O 0.2177 0.03602 0.396 0.0
O18 O 0.33694 0.95878 0.4336 0.0
O19 O 0.32581 0.95675 0.38609 0.0
C20 C 0.35154 0.95732 0.40754 0.0
C21 C 0.18302 0.95278 0.34118 0.0
C22 C 0.24139 0.0477 0.41648 0.0
C23 C 0.20949 0.91831 0.43914 0.0
O24 O 0.18927 0.93996 0.42114 0.0
O25 O 0.24852 0.91874 0.43867 0.0
O26 O 0.16094 0.97298 0.35951 0.0
O27 O 0.22101 0.94646 0.34786 0.0
O28 O 0.01891 0.75276 0.58066 0.0
Cd29 Cd 0.9654 0.7204 0.58554 0.0
Cd30 Cd 0.94135 0.79297 0.61402 0.0
O31 O -0.00089 0.81159 0.59985 0.0
O32 O 0.98075 0.66701 0.56798 0.0
O33 O 0.9625 0.6728 0.61416 0.0
C34 C 0.97462 0.64991 0.59288 0.0
C35 C 0.91862 0.81316 0.66044 0.0
C36 C 0.02599 0.79011 0.58673 0.0
C37 C 0.89389 0.76688 0.56063 0.0
O38 O 0.89627 0.79075 0.58247 0.0
O39 O 0.919 0.73754 0.55746 0.0
O40 O 0.9218 0.83889 0.63923 0.0
O41 O 0.92948 0.77568 0.65562 0.0
O42 O 0.74149 0.98252 0.433 0.0
Cd43 Cd 0.7199 0.03756 0.41808 0.0
Cd44 Cd 0.79441 0.03174 0.38752 0.0
O45 O 0.79217 0.9713 0.40209 0.0
O46 O 0.66364 0.03774 0.43489 0.0
O47 O 0.67496 0.03645 0.3874 0.0
C48 C 0.64919 0.03535 0.4088 0.0
C49 C 0.82165 0.04842 0.34154 0.0
C50 C 0.76948 0.9594 0.42309 0.0
C51 C 0.78499 0.09585 0.43571 0.0
O52 O 0.80801 0.07579 0.41848 0.0
O53 O 0.74682 0.08804 0.4373 0.0
O54 O 0.84426 0.03404 0.36218 0.0
O55 O 0.7827 0.05135 0.34639 0.0
O56 O 0.03962 0.25016 0.07952 0.0
Cd57 Cd 0.98159 0.27088 0.089 0.0
Cd58 Cd 0.9868 0.19695 0.12038 0.0
O59 O 0.04895 0.20046 0.11145 0.0
O60 O 0.98426 0.32435 0.0681 0.0
O61 O 0.97469 0.32036 0.11562 0.0
C62 C 0.98019 0.3428 0.09272 0.0
C63 C 0.96186 0.17207 0.16513 0.0
C64 C 0.06258 0.22322 0.09106 0.0
C65 C 0.93128 0.20207 0.06692 0.0
O66 O 0.95101 0.1804 0.08521 0.0
O67 O 0.93498 0.24092 0.06692 0.0
O68 O 0.9806 0.14863 0.14688 0.0
O69 O 0.95889 0.21054 0.15865 0.0
O70 O 0.23065 0.96551 0.91642 0.0
Cd71 Cd 0.26863 0.01567 0.91722 0.0
Cd72 Cd 0.19991 0.05413 0.89298 0.0
O73 O 0.17367 -0.0007 0.90695 0.0
O74 O 0.31946 0.9902 0.93265 0.0
O75 O 0.31777 0.02222 0.89028 0.0
C76 C 0.33851 0.00227 0.90962 0.0
C77 C 0.17828 0.08041 0.84782 0.0
C78 C 0.19181 0.96645 0.91456 0.0
C79 C 0.23423 0.08968 0.94789 0.0
O80 O 0.21286 0.09652 0.92522 0.0
O81 O 0.25613 0.05765 0.9498 0.0
O82 O 0.15512 0.08163 0.87057 0.0
O83 O 0.21407 0.06389 0.85054 0.0
O84 O 0.95089 0.7439 0.0884 0.0
Cd85 Cd 0.01041 0.72345 0.09094 0.0
Cd86 Cd 0.0133 0.79912 0.12294 0.0
O87 O 0.95038 0.79813 0.11723 0.0
O88 O 0.0032 0.67056 0.06982 0.0
O89 O 0.02328 0.67319 0.11569 0.0
C90 C 0.01282 0.6514 0.09335 0.0
C91 C 0.0421 0.82511 0.1663 0.0
C92 C 0.93174 0.77334 0.10033 0.0
C93 C 0.05925 0.7921 0.06504 0.0
O94 O 0.04584 0.81394 0.08594 0.0
O95 O 0.05168 0.75381 0.06411 0.0
O96 O 0.02313 0.84833 0.14804 0.0
O97 O 0.04358 0.78634 0.16056 0.0
O98 O 0.74873 0.01827 0.93088 0.0
Cd99 Cd 0.71533 0.96502 0.92707 0.0
Cd100 Cd 0.7877 0.93807 0.89963 0.0
O101 O 0.80702 0.99604 0.91223 0.0
O102 O 0.66126 0.98242 0.94255 0.0
O103 O 0.66899 0.95877 0.89778 0.0
C104 C 0.64507 0.97291 0.91784 0.0
C105 C 0.80931 0.91361 0.85395 0.0
C106 C 0.78627 0.02409 0.92464 0.0
C107 C 0.7598 0.89368 0.95411 0.0
O108 O 0.7842 0.89491 0.93248 0.0
O109 O 0.73062 0.91925 0.9562 0.0
O110 O 0.83422 0.91684 0.87565 0.0
O111 O 0.77175 0.92485 0.85795 0.0
H112 H 0.97669 0.59288 0.55018 0.0
H113 H 0.99123 0.60714 0.64336 0.0
H114 H 0.99702 0.52167 0.55384 0.0
H115 H 0.01319 0.53524 0.64702 0.0
H116 H 0.01097 0.3898 0.63797 0.0
H117 H 0.99199 0.46253 0.6413 0.0
H118 H 0.06048 0.48709 0.56234 0.0
H119 H 0.07769 0.41485 0.5585 0.0
C120 C 0.98429 0.58071 0.57152 0.0
C121 C 0.98283 0.60567 0.59644 0.0
C122 C 0.99632 0.53992 0.5736 0.0
C123 C 0.00786 0.52303 0.60062 0.0
C124 C 0.00466 0.54742 0.62588 0.0
C125 C 0.9921 0.58849 0.6238 0.0
C126 C 0.02249 0.41108 0.62172 0.0
C127 C 0.04524 0.39681 0.59775 0.0
C128 C 0.01164 0.45264 0.62359 0.0
C129 C 0.0238 0.48037 0.60164 0.0
C130 C 0.0494 0.46632 0.57907 0.0
C131 C 0.0596 0.425 0.57698 0.0
H132 H 0.58807 0.04709 0.44804 0.0
H133 H 0.61013 0.0057 0.35985 0.0
H134 H 0.51699 0.0252 0.44435 0.0
H135 H 0.53844 0.98277 0.35633 0.0
H136 H 0.39246 0.98471 0.35883 0.0
H137 H 0.46501 0.00474 0.35607 0.0
H138 H 0.48375 0.95854 0.44347 0.0
H139 H 0.41166 0.93966 0.44644 0.0
C140 C 0.57762 0.03356 0.42773 0.0
C141 C 0.60481 0.0278 0.40433 0.0
C142 C 0.53691 0.02063 0.42571 0.0
C143 C 0.52231 0.00123 0.40032 0.0
C144 C 0.54884 0.99745 0.37623 0.0
C145 C 0.58981 0.01066 0.37822 0.0
C146 C 0.4124 0.97806 0.37715 0.0
C147 C 0.39633 0.96108 0.40299 0.0
C148 C 0.45388 0.98962 0.3756 0.0
C149 C 0.47986 0.98422 0.39984 0.0
C150 C 0.46428 0.96432 0.42475 0.0
C151 C 0.42302 0.95312 0.42636 0.0
H152 H 0.96782 0.39378 0.13995 0.0
H153 H 0.00299 0.39408 0.04899 0.0
H154 H 0.97636 0.46859 0.14145 0.0
H155 H 0.0129 0.46762 0.05074 0.0
H156 H 0.98197 0.60118 0.05153 0.0
H157 H 0.97279 0.52755 0.05315 0.0
H158 H 0.02688 0.52428 0.1393 0.0
H159 H 0.03478 0.59916 0.13807 0.0
C160 C 0.97736 0.40976 0.12034 0.0
C161 C 0.98421 0.38804 0.09427 0.0
C162 C 0.98262 0.45252 0.12125 0.0
C163 C 0.99501 0.47425 0.09615 0.0
C164 C 0.0024 0.45219 0.07032 0.0
C165 C 0.99683 0.40982 0.06935 0.0
C166 C 0.99216 0.58492 0.07083 0.0
C167 C 0.00946 0.60608 0.09458 0.0
C168 C 0.98701 0.5425 0.07172 0.0
C169 C -0.00053 0.51977 0.09623 0.0
C170 C 0.01666 0.54087 0.12016 0.0
C171 C 0.02153 0.58368 0.11937 0.0
H172 H 0.39153 0.03 0.867 0.0
H173 H 0.38614 0.95655 0.94553 0.0
H174 H 0.46651 0.02175 0.86594 0.0
H175 H 0.46011 0.94838 0.9443 0.0
H176 H 0.58907 0.9963 0.95824 0.0
H177 H 0.51528 0.00174 0.95279 0.0
H178 H 0.52491 0.96572 0.86236 0.0
H179 H 0.59983 0.96017 0.86773 0.0
C180 C 0.4062 0.01174 0.88375 0.0
C181 C 0.383 0.99444 0.90658 0.0
C182 C 0.44899 0.00691 0.88307 0.0
C183 C 0.46902 0.98492 0.90528 0.0
C184 C 0.44551 0.9661 0.9272 0.0
C185 C 0.40308 0.97077 0.92785 0.0
C186 C 0.57572 0.98959 0.9371 0.0
C187 C 0.60033 0.97749 0.91346 0.0
C188 C 0.53334 0.99257 0.93404 0.0
C189 C 0.51438 0.98369 0.90726 0.0
C190 C 0.53887 0.97273 0.88324 0.0
C191 C 0.5816 0.9694 0.88637 0.0
H192 H 0.28954 0.08332 0.45817 0.0
H193 H 0.1789 0.1027 0.40792 0.0
H194 H 0.26929 0.13769 0.49159 0.0
H195 H 0.15882 0.15719 0.44147 0.0
H196 H 0.16946 0.16089 0.56529 0.0
H197 H 0.20975 0.12946 0.52659 0.0
H198 H 0.17331 0.22564 0.4672 0.0
H199 H 0.13313 0.25756 0.50621 0.0
C200 C 0.26149 0.09997 0.45371 0.0
C201 C 0.2353 0.08798 0.43078 0.0
C202 C 0.24994 0.13108 0.47292 0.0
C203 C 0.21216 0.15105 0.46944 0.0
C204 C 0.18817 0.14231 0.44466 0.0
C205 C 0.19965 0.11099 0.42545 0.0
C206 C 0.17092 0.17595 0.54421 0.0
C207 C 0.14793 0.21146 0.53871 0.0
C208 C 0.1942 0.1581 0.52207 0.0
C209 C 0.19452 0.17507 0.49385 0.0
C210 C 0.17346 0.21192 0.48875 0.0
C211 C 0.15068 0.23023 0.51111 0.0
H212 H 0.24027 0.86705 0.48175 0.0
H213 H 0.12761 0.92142 0.45037 0.0
H214 H 0.20255 0.83731 0.52314 0.0
H215 H 0.09073 0.89234 0.49145 0.0
H216 H 0.04073 0.8722 0.57976 0.0
H217 H 0.09079 0.90323 0.5468 0.0
H218 H 0.14338 0.78412 0.53015 0.0
H219 H 0.09342 0.75286 0.56314 0.0
C220 C 0.20757 0.87245 0.48353 0.0
C221 C 0.18701 0.89664 0.46272 0.0
C222 C 0.18611 0.85561 0.50726 0.0
C223 C 0.14396 0.8633 0.51077 0.0
C224 C 0.12341 0.88674 0.48968 0.0
C225 C 0.14456 0.903 0.46591 0.0
C226 C 0.06372 0.85273 0.56983 0.0
C227 C 0.0626 0.80997 0.57368 0.0
C228 C 0.09219 0.87048 0.55079 0.0
C229 C 0.12034 0.8459 0.53552 0.0
C230 C 0.12194 0.80374 0.54159 0.0
C231 C 0.09322 0.78589 0.56043 0.0
H232 H 0.74784 0.94062 0.47851 0.0
H233 H 0.81214 0.89164 0.4039 0.0
H234 H 0.77091 0.88435 0.50795 0.0
H235 H 0.83292 0.83237 0.43295 0.0
H236 H 0.91617 0.7768 0.50441 0.0
H237 H 0.87931 0.81502 0.46745 0.0
H238 H 0.77316 0.8199 0.52436 0.0
H239 H 0.81241 0.78543 0.56239 0.0
C240 C 0.76596 0.91695 0.4681 0.0
C241 C 0.7786 0.92091 0.43893 0.0
C242 C 0.77897 0.88402 0.48505 0.0
C243 C 0.80422 0.85325 0.47319 0.0
C244 C 0.8145 0.85581 0.44328 0.0
C245 C 0.80233 0.88962 0.42645 0.0
C246 C 0.88459 0.78532 0.50863 0.0
C247 C 0.86715 0.77873 0.53623 0.0
C248 C 0.86316 0.80721 0.48732 0.0
C249 C 0.82329 0.82198 0.49291 0.0
C250 C 0.80438 0.81092 0.51953 0.0
C251 C 0.82649 0.79052 0.54126 0.0
H252 H 0.76124 0.11358 0.4915 0.0
H253 H 0.85314 0.14231 0.42662 0.0
H254 H 0.80103 0.15144 0.52825 0.0
H255 H 0.89219 0.1807 0.46303 0.0
H256 H 0.94102 0.26836 0.5295 0.0
H257 H 0.88641 0.24391 0.49759 0.0
H258 H 0.87493 0.13394 0.54946 0.0
H259 H 0.93015 0.15801 0.58146 0.0
C260 C 0.78927 0.12899 0.48492 0.0
C261 C 0.80421 0.12503 0.45625 0.0
C262 C 0.8121 0.15033 0.50596 0.0
C263 C 0.84962 0.16886 0.49843 0.0
C264 C 0.86318 0.16698 0.46935 0.0
C265 C 0.84091 0.14495 0.44854 0.0
C266 C 0.92642 0.23931 0.53457 0.0
C267 C 0.94046 0.21482 0.55784 0.0
C268 C 0.89514 0.22538 0.51622 0.0
C269 C 0.87678 0.18697 0.52095 0.0
C270 C 0.88851 0.16381 0.54545 0.0
C271 C 0.92023 0.17752 0.56368 0.0
H272 H 0.8688 0.03944 0.92623 0.0
H273 H 0.75181 0.09098 0.95127 0.0
H274 H 0.90374 0.08889 0.95755 0.0
H275 H 0.78712 0.14046 0.98258 0.0
H276 H 0.87784 0.2357 0.02683 0.0
H277 H 0.84308 0.19996 0.98647 0.0
H278 H 0.89769 0.08585 0.01401 0.0
H279 H 0.9316 0.12072 0.05412 0.0
C280 C 0.85056 0.06204 0.93767 0.0
C281 C 0.80745 0.06066 0.93671 0.0
C282 C 0.8706 0.09023 0.95571 0.0
C283 C 0.848 0.11785 0.97285 0.0
C284 C 0.80521 0.11939 0.96962 0.0
C285 C 0.78506 0.09094 0.95174 0.0
C286 C 0.88214 0.20295 0.02432 0.0
C287 C 0.90747 0.18108 0.04373 0.0
C288 C 0.8624 0.18263 1.00121 0.0
C289 C 0.86843 0.14039 0.99688 0.0
C290 C 0.89325 0.11861 0.01649 0.0
C291 C 0.91231 0.13861 0.03969 0.0
H292 H 0.23238 0.17322 0.95168 0.0
H293 H 0.21882 0.06271 1.0025 0.0
H294 H 0.20683 0.21361 0.99254 0.0
H295 H 0.18912 0.10164 0.04214 0.0
H296 H 0.12362 0.17039 0.10906 0.0
H297 H 0.18067 0.14537 0.07965 0.0
H298 H 0.14485 0.22784 0.01001 0.0
H299 H 0.09122 0.25471 0.04008 0.0
C300 C 0.22426 0.15775 0.97182 0.0
C301 C 0.2272 0.115 0.97399 0.0
C302 C 0.20898 0.1807 0.99519 0.0
C303 C 0.19418 0.1611 0.02063 0.0
C304 C 0.20018 0.11842 0.02333 0.0
C305 C 0.21707 0.09579 1.00042 0.0
C306 C 0.12896 0.18393 0.08779 0.0
C307 C 0.10231 0.21396 0.07676 0.0
C308 C 0.16142 0.16923 0.07066 0.0
C309 C 0.16717 0.18342 0.0418 0.0
C310 C 0.14236 0.21593 0.03197 0.0
C311 C 0.11086 0.23129 0.04932 0.0
H312 H 0.06852 0.87423 0.05675 0.0
H313 H 0.09598 0.75722 0.01681 0.0
H314 H 0.09627 0.90948 0.0145 0.0
H315 H 0.12446 0.79321 0.97421 0.0
H316 H 0.21997 0.89075 0.93099 0.0
H317 H 0.18587 0.84309 0.96426 0.0
H318 H 0.07603 0.9166 0.96073 0.0
H319 H 0.10989 0.9644 0.92755 0.0
C320 C 0.08071 0.85592 0.03904 0.0
C321 C 0.07994 0.8128 0.04022 0.0
C322 C 0.09618 0.87622 0.01465 0.0
C323 C 0.11172 0.85406 0.99085 0.0
C324 C 0.11229 0.81097 0.99221 0.0
C325 C 0.09618 0.79046 0.01661 0.0
C326 C 0.18812 0.89613 0.93658 0.0
C327 C 0.16793 0.9319 0.92708 0.0
C328 C 0.16862 0.86872 0.9556 0.0
C329 C 0.12871 0.87674 0.96553 0.0
C330 C 0.10715 0.91018 0.95377 0.0
C331 C 0.12649 0.9374 0.9346 0.0
H332 H 0.80764 0.82527 0.95343 0.0
H333 H 0.73442 0.90051 0.01088 0.0
H334 H 0.83553 0.78924 0.99539 0.0
H335 H 0.76256 0.86426 0.05311 0.0
H336 H 0.87987 0.72289 0.0702 0.0
H337 H 0.82397 0.74477 0.03857 0.0
H338 H 0.83427 0.8678 0.07288 0.0
H339 H 0.88996 0.84593 0.10472 0.0
C340 C 0.79666 0.83337 0.97499 0.0
C341 C 0.76922 0.86604 0.97883 0.0
C342 C 0.81243 0.8125 0.9991 0.0
C343 C 0.80141 0.82409 0.02762 0.0
C344 C 0.77178 0.85487 0.0314 0.0
C345 C 0.75555 0.87545 0.0072 0.0
C346 C 0.86929 0.7543 0.07176 0.0
C347 C 0.89006 0.78294 0.08944 0.0
C348 C 0.83733 0.76682 0.05354 0.0
C349 C 0.82545 0.80818 0.05271 0.0
C350 C 0.84275 0.83568 0.07299 0.0
C351 C 0.87477 0.82314 0.09127 0.0
H352 H 0.08141 0.23001 0.7051 0.0
H353 H 0.09445 0.10786 0.66967 0.0
H354 H 0.10841 0.20584 0.75197 0.0
H355 H 0.12157 0.08401 0.71625 0.0
H356 H 0.21149 0.06955 0.79338 0.0
H357 H 0.18558 0.09607 0.7469 0.0
H358 H 0.08649 0.15633 0.79224 0.0
H359 H 0.11208 0.12973 0.8386 0.0
C360 C 0.08987 0.19805 0.70733 0.0
C361 C 0.08567 0.17086 0.68369 0.0
C362 C 0.10527 0.18422 0.73415 0.0
C363 C 0.11733 0.14309 0.73768 0.0
C364 C 0.11301 0.11597 0.71406 0.0
C365 C 0.09714 0.12961 0.68745 0.0
C366 C 0.18428 0.08857 0.79342 0.0
C367 C 0.16376 0.09739 0.81965 0.0
C368 C 0.16936 0.10359 0.76682 0.0
C369 C 0.13397 0.12822 0.76596 0.0
C370 C 0.11397 0.1377 0.79225 0.0
C371 C 0.12854 0.12224 0.81876 0.0
H372 H 0.03981 0.90466 0.18443 0.0
H373 H 0.09161 0.78676 0.20651 0.0
H374 H 0.07556 0.93579 0.22546 0.0
H375 H 0.12718 0.81808 0.24809 0.0
H376 H 0.21691 0.89922 0.30165 0.0
H377 H 0.18334 0.86772 0.25931 0.0
H378 H 0.07259 0.93505 0.2785 0.0
H379 H 0.10603 0.96671 0.32029 0.0
C380 C 0.05863 0.88526 0.19817 0.0
C381 C 0.06267 0.84313 0.19223 0.0
C382 C 0.07907 0.90315 0.22178 0.0
C383 C 0.10421 0.87946 0.24011 0.0
C384 C 0.10837 0.83728 0.2342 0.0
C385 C 0.08771 0.81927 0.21056 0.0
C386 C 0.18554 0.90755 0.29662 0.0
C387 C 0.16423 0.9356 0.3143 0.0
C388 C 0.16618 0.88921 0.27254 0.0
C389 C 0.12524 0.89881 0.26554 0.0
C390 C 0.10426 0.9273 0.28304 0.0
C391 C 0.12346 0.94539 0.30709 0.0
H392 H 0.88065 0.88538 0.67304 0.0
H393 H 0.91851 0.77105 0.71236 0.0
H394 H 0.85259 0.90782 0.71968 0.0
H395 H 0.89043 0.79378 0.75924 0.0
H396 H 0.88181 0.87522 0.84276 0.0
H397 H 0.90691 0.84924 0.79618 0.0
H398 H 0.79508 0.8888 0.75429 0.0
H399 H 0.76971 0.9148 0.80108 0.0
C400 C 0.88303 0.86501 0.69165 0.0
C401 C 0.90196 0.82645 0.68901 0.0
C402 C 0.86664 0.87779 0.71832 0.0
C403 C 0.8692 0.85253 0.74308 0.0
C404 C 0.88822 0.81399 0.74053 0.0
C405 C 0.9042 0.80094 0.7137 0.0
C406 C 0.86246 0.87832 0.82366 0.0
C407 C 0.82379 0.89723 0.8256 0.0
C408 C 0.87678 0.86315 0.79701 0.0
C409 C 0.85298 0.86696 0.7716 0.0
C410 C 0.81421 0.8857 0.77351 0.0
C411 C 0.79963 0.90044 0.80028 0.0
H412 H 0.90047 0.03743 0.32335 0.0
H413 H 0.78645 0.09494 0.29833 0.0
H414 H 0.93431 0.06779 0.28114 0.0
H415 H 0.82047 0.12523 0.25574 0.0
H416 H 0.90934 0.20957 0.20361 0.0
H417 H 0.8742 0.17843 0.2454 0.0
H418 H 0.93453 0.06329 0.22766 0.0
H419 H 0.96974 0.09429 0.18625 0.0
C420 C 0.88247 0.05621 0.30865 0.0
C421 C 0.84071 0.0637 0.3142 0.0
C422 C 0.9019 0.07356 0.28439 0.0
C423 C 0.88015 0.09909 0.26513 0.0
C424 C 0.83818 0.1061 0.27038 0.0
C425 C 0.8186 0.08842 0.29459 0.0
C426 C 0.91533 0.17772 0.20881 0.0
C427 C 0.94248 0.15448 0.19166 0.0
C428 C 0.89489 0.15977 0.23255 0.0
C429 C 0.90145 0.11833 0.2398 0.0
C430 C 0.92904 0.09535 0.22285 0.0
C431 C 0.94919 0.11316 0.19905 0.0
loop_
_geom_bond_atom_site_label_1
_geom_bond_atom_site_label_2
_geom_bond_distance
_geom_bond_site_symmetry_2
_ccdc_geom_bond_type
O0 Cd1 2.223 . S
O0 C8 1.315 . S
Cd1 O0 2.223 . S
Cd1 O4 2.297 . S
Cd1 O5 2.439 . S
Cd1 O11 2.240 . S
Cd2 O3 2.240 . S
Cd2 O10 2.223 . S
Cd2 O12 2.297 . S
Cd2 O13 2.439 . S
O3 Cd2 2.240 . S
O3 C8 1.279 . S
O4 Cd1 2.297 . S
O4 C6 1.247 . S
O5 Cd1 2.439 . S
O5 C6 1.208 . S
C6 O4 1.247 . S
C6 O5 1.208 . S
C7 O12 1.247 . S
C7 O13 1.208 . S
C8 O0 1.315 . S
C8 O3 1.279 . S
C9 O10 1.315 . S
C9 O11 1.279 . S
O10 Cd2 2.223 . S
O10 C9 1.315 . S
O11 Cd1 2.240 . S
O11 C9 1.279 . S
O12 Cd2 2.297 . S
O12 C7 1.247 . S
O13 Cd2 2.439 . S
O13 C7 1.208 . S
O14 Cd15 2.223 . S
O14 C22 1.315 . S
Cd15 O14 2.223 . S
Cd15 O18 2.297 . S
Cd15 O19 2.439 . S
Cd15 O25 2.240 . S
Cd16 O17 2.240 . S
Cd16 O24 2.223 . S
Cd16 O26 2.297 . S
Cd16 O27 2.439 . S
O17 Cd16 2.240 . S
O17 C22 1.279 . S
O18 Cd15 2.297 . S
O18 C20 1.247 . S
O19 Cd15 2.439 . S
O19 C20 1.208 . S
C20 O18 1.247 . S
C20 O19 1.208 . S
C21 O26 1.247 . S
C21 O27 1.208 . S
C22 O14 1.315 . S
C22 O17 1.279 . S
C23 O24 1.315 . S
C23 O25 1.279 . S
O24 Cd16 2.223 . S
O24 C23 1.315 . S
O25 Cd15 2.240 . S
O25 C23 1.279 . S
O26 Cd16 2.297 . S
O26 C21 1.247 . S
O27 Cd16 2.439 . S
O27 C21 1.208 . S
O28 Cd29 2.223 . S
O28 C36 1.315 . S
Cd29 O28 2.223 . S
Cd29 O32 2.297 . S
Cd29 O33 2.439 . S
Cd29 O39 2.240 . S
Cd30 O31 2.240 . S
Cd30 O38 2.223 . S
Cd30 O40 2.297 . S
Cd30 O41 2.439 . S
O31 Cd30 2.240 . S
O31 C36 1.279 . S
O32 Cd29 2.297 . S
O32 C34 1.247 . S
O33 Cd29 2.439 . S
O33 C34 1.208 . S
C34 O32 1.247 . S
C34 O33 1.208 . S
C35 O40 1.247 . S
C35 O41 1.208 . S
C36 O28 1.315 . S
C36 O31 1.279 . S
C37 O38 1.315 . S
C37 O39 1.279 . S
O38 Cd30 2.223 . S
O38 C37 1.315 . S
O39 Cd29 2.240 . S
O39 C37 1.279 . S
O40 Cd30 2.297 . S
O40 C35 1.247 . S
O41 Cd30 2.439 . S
O41 C35 1.208 . S
O42 Cd43 2.223 . S
O42 C50 1.315 . S
Cd43 O42 2.223 . S
Cd43 O46 2.297 . S
Cd43 O47 2.439 . S
Cd43 O53 2.240 . S
Cd44 O45 2.240 . S
Cd44 O52 2.223 . S
Cd44 O54 2.297 . S
Cd44 O55 2.439 . S
O45 Cd44 2.240 . S
O45 C50 1.279 . S
O46 Cd43 2.297 . S
O46 C48 1.247 . S
O47 Cd43 2.439 . S
O47 C48 1.208 . S
C48 O46 1.247 . S
C48 O47 1.208 . S
C49 O54 1.247 . S
C49 O55 1.208 . S
C50 O42 1.315 . S
C50 O45 1.279 . S
C51 O52 1.315 . S
C51 O53 1.279 . S
O52 Cd44 2.223 . S
O52 C51 1.315 . S
O53 Cd43 2.240 . S
O53 C51 1.279 . S
O54 Cd44 2.297 . S
O54 C49 1.247 . S
O55 Cd44 2.439 . S
O55 C49 1.208 . S
O56 Cd57 2.223 . S
O56 C64 1.315 . S
Cd57 O56 2.223 . S
Cd57 O60 2.297 . S
Cd57 O61 2.439 . S
Cd57 O67 2.240 . S
Cd58 O59 2.240 . S
Cd58 O66 2.223 . S
Cd58 O68 2.297 . S
Cd58 O69 2.439 . S
O59 Cd58 2.240 . S
O59 C64 1.279 . S
O60 Cd57 2.297 . S
O60 C62 1.247 . S
O61 Cd57 2.439 . S
O61 C62 1.208 . S
C62 O60 1.247 . S
C62 O61 1.208 . S
C63 O68 1.247 . S
C63 O69 1.208 . S
C64 O56 1.315 . S
C64 O59 1.279 . S
C65 O66 1.315 . S
C65 O67 1.279 . S
O66 Cd58 2.223 . S
O66 C65 1.315 . S
O67 Cd57 2.240 . S
O67 C65 1.279 . S
O68 Cd58 2.297 . S
O68 C63 1.247 . S
O69 Cd58 2.439 . S
O69 C63 1.208 . S
O70 Cd71 2.223 . S
O70 C78 1.315 . S
Cd71 O70 2.223 . S
Cd71 O74 2.297 . S
Cd71 O75 2.439 . S
Cd71 O81 2.240 . S
Cd72 O73 2.240 . S
Cd72 O80 2.223 . S
Cd72 O82 2.297 . S
Cd72 O83 2.439 . S
O73 Cd72 2.240 . S
O73 C78 1.279 . S
O74 Cd71 2.297 . S
O74 C76 1.247 . S
O75 Cd71 2.439 . S
O75 C76 1.208 . S
C76 O74 1.247 . S
C76 O75 1.208 . S
C77 O82 1.247 . S
C77 O83 1.208 . S
C78 O70 1.315 . S
C78 O73 1.279 . S
C79 O80 1.315 . S
C79 O81 1.279 . S
O80 Cd72 2.223 . S
O80 C79 1.315 . S
O81 Cd71 2.240 . S
O81 C79 1.279 . S
O82 Cd72 2.297 . S
O82 C77 1.247 . S
O83 Cd72 2.439 . S
O83 C77 1.208 . S
O84 Cd85 2.223 . S
O84 C92 1.315 . S
Cd85 O84 2.223 . S
Cd85 O88 2.297 . S
Cd85 O89 2.439 . S
Cd85 O95 2.240 . S
Cd86 O87 2.240 . S
Cd86 O94 2.223 . S
Cd86 O96 2.297 . S
Cd86 O97 2.439 . S
O87 Cd86 2.240 . S
O87 C92 1.279 . S
O88 Cd85 2.297 . S
O88 C90 1.247 . S
O89 Cd85 2.439 . S
O89 C90 1.208 . S
C90 O88 1.247 . S
C90 O89 1.208 . S
C91 O96 1.247 . S
C91 O97 1.208 . S
C92 O84 1.315 . S
C92 O87 1.279 . S
C93 O94 1.315 . S
C93 O95 1.279 . S
O94 Cd86 2.223 . S
O94 C93 1.315 . S
O95 Cd85 2.240 . S
O95 C93 1.279 . S
O96 Cd86 2.297 . S
O96 C91 1.247 . S
O97 Cd86 2.439 . S
O97 C91 1.208 . S
O98 Cd99 2.223 . S
O98 C106 1.315 . S
Cd99 O98 2.223 . S
Cd99 O102 2.297 . S
Cd99 O103 2.439 . S
Cd99 O109 2.240 . S
Cd100 O101 2.240 . S
Cd100 O108 2.223 . S
Cd100 O110 2.297 . S
Cd100 O111 2.439 . S
O101 Cd100 2.240 . S
O101 C106 1.279 . S
O102 Cd99 2.297 . S
O102 C104 1.247 . S
O103 Cd99 2.439 . S
O103 C104 1.208 . S
C104 O102 1.247 . S
C104 O103 1.208 . S
C105 O110 1.247 . S
C105 O111 1.208 . S
C106 O98 1.315 . S
C106 O101 1.279 . S
C107 O108 1.315 . S
C107 O109 1.279 . S
O108 Cd100 2.223 . S
O108 C107 1.315 . S
O109 Cd99 2.240 . S
O109 C107 1.279 . S
O110 Cd100 2.297 . S
O110 C105 1.247 . S
O111 Cd100 2.439 . S
O111 C105 1.208 . S
H112 C120 0.950 . S
H113 C125 0.950 . S
H114 C122 0.950 1_455 S
H115 C124 0.950 . S
H116 C126 0.950 . S
H117 C128 0.950 1_655 S
H118 C130 0.950 . S
H119 C131 0.950 . S
C120 H112 0.950 . S
C120 C121 1.386 . S
C120 C122 1.391 . S
C121 C120 1.386 . S
C121 C125 1.393 . S
C122 H114 0.950 1_655 S
C122 C120 1.391 . S
C122 C123 1.400 . S
C123 C122 1.400 . S
C123 C124 1.398 . S
C123 C129 1.491 1_655 S
C124 H115 0.950 . S
C124 C123 1.398 . S
C124 C125 1.391 . S
C125 H113 0.950 . S
C125 C121 1.393 . S
C125 C124 1.391 . S
C126 H116 0.950 . S
C126 C127 1.386 . S
C126 C128 1.391 . S
C127 C126 1.386 . S
C127 C131 1.393 . S
C128 H117 0.950 1_455 S
C128 C126 1.391 . S
C128 C129 1.400 . S
C129 C123 1.491 1_455 S
C129 C128 1.400 . S
C129 C130 1.398 . S
C130 H118 0.950 . S
C130 C129 1.398 . S
C130 C131 1.391 . S
C131 H119 0.950 . S
C131 C127 1.393 . S
C131 C130 1.391 . S
H132 C140 0.950 . S
H133 C145 0.950 . S
H134 C142 0.950 1_565 S
H135 C144 0.950 . S
H136 C146 0.950 . S
H137 C148 0.950 1_545 S
H138 C150 0.950 . S
H139 C151 0.950 . S
C140 H132 0.950 . S
C140 C141 1.386 . S
C140 C142 1.391 . S
C141 C140 1.386 . S
C141 C145 1.393 . S
C142 H134 0.950 1_545 S
C142 C140 1.391 . S
C142 C143 1.400 . S
C143 C142 1.400 . S
C143 C144 1.398 . S
C143 C149 1.491 1_545 S
C144 H135 0.950 . S
C144 C143 1.398 . S
C144 C145 1.391 . S
C145 H133 0.950 . S
C145 C141 1.393 . S
C145 C144 1.391 . S
C146 H136 0.950 . S
C146 C147 1.386 . S
C146 C148 1.391 . S
C147 C146 1.386 . S
C147 C151 1.393 . S
C148 H137 0.950 1_565 S
C148 C146 1.391 . S
C148 C149 1.400 . S
C149 C143 1.491 1_565 S
C149 C148 1.400 . S
C149 C150 1.398 . S
C150 H138 0.950 . S
C150 C149 1.398 . S
C150 C151 1.391 . S
C151 H139 0.950 . S
C151 C147 1.393 . S
C151 C150 1.391 . S
H152 C160 0.950 . S
H153 C165 0.950 . S
H154 C162 0.950 . S
H155 C164 0.950 . S
H156 C166 0.950 . S
H157 C168 0.950 . S
H158 C170 0.950 . S
H159 C171 0.950 . S
C160 H152 0.950 . S
C160 C161 1.386 . S
C160 C162 1.391 . S
C161 C160 1.386 . S
C161 C165 1.393 . S
C162 H154 0.950 . S
C162 C160 1.391 . S
C162 C163 1.400 . S
C163 C162 1.400 . S
C163 C164 1.398 1_655 S
C163 C169 1.491 1_655 S
C164 H155 0.950 . S
C164 C163 1.398 1_455 S
C164 C165 1.391 1_455 S
C165 H153 0.950 . S
C165 C161 1.393 . S
C165 C164 1.391 1_655 S
C166 H156 0.950 . S
C166 C167 1.386 . S
C166 C168 1.391 . S
C167 C166 1.386 . S
C167 C171 1.393 . S
C168 H157 0.950 . S
C168 C166 1.391 . S
C168 C169 1.400 . S
C169 C163 1.491 1_455 S
C169 C168 1.400 . S
C169 C170 1.398 1_455 S
C170 H158 0.950 . S
C170 C169 1.398 1_655 S
C170 C171 1.391 1_655 S
C171 H159 0.950 . S
C171 C167 1.393 . S
C171 C170 1.391 1_455 S
H172 C180 0.950 1_565 S
H173 C185 0.950 . S
H174 C182 0.950 . S
H175 C184 0.950 . S
H176 C186 0.951 1_545 S
H177 C188 0.950 . S
H178 C190 0.950 . S
H179 C191 0.950 . S
C180 H172 0.950 1_545 S
C180 C181 1.386 . S
C180 C182 1.391 1_545 S
C181 C180 1.386 . S
C181 C185 1.393 . S
C182 H174 0.950 . S
C182 C180 1.391 1_565 S
C182 C183 1.400 1_565 S
C183 C182 1.400 1_545 S
C183 C184 1.398 . S
C183 C189 1.491 1_545 S
C184 H175 0.950 . S
C184 C183 1.398 . S
C184 C185 1.391 . S
C185 H173 0.950 . S
C185 C181 1.393 . S
C185 C184 1.391 . S
C186 H176 0.951 1_565 S
C186 C187 1.386 . S
C186 C188 1.391 1_565 S
C187 C186 1.386 . S
C187 C191 1.393 . S
C188 H177 0.950 . S
C188 C186 1.391 1_545 S
C188 C189 1.400 1_545 S
C189 C183 1.491 1_565 S
C189 C188 1.400 1_565 S
C189 C190 1.398 . S
C190 H178 0.950 . S
C190 C189 1.398 . S
C190 C191 1.391 . S
C191 H179 0.950 . S
C191 C187 1.393 . S
C191 C190 1.391 . S
H192 C200 0.950 . S
H193 C205 0.950 1_565 S
H194 C202 0.950 . S
H195 C204 0.950 . S
H196 C206 0.950 . S
H197 C208 0.950 . S
H198 C210 0.950 . S
H199 C211 0.950 . S
C200 H192 0.950 . S
C200 C201 1.386 . S
C200 C202 1.391 . S
C201 C200 1.386 . S
C201 C205 1.393 . S
C202 H194 0.950 . S
C202 C200 1.391 . S
C202 C203 1.400 . S
C203 C202 1.400 . S
C203 C204 1.398 . S
C203 C209 1.491 . S
C204 H195 0.950 . S
C204 C203 1.398 . S
C204 C205 1.391 . S
C205 H193 0.950 1_545 S
C205 C201 1.393 . S
C205 C204 1.391 . S
C206 H196 0.950 . S
C206 C207 1.386 . S
C206 C208 1.391 . S
C207 C206 1.386 . S
C207 C211 1.393 . S
C208 H197 0.950 . S
C208 C206 1.391 . S
C208 C209 1.400 . S
C209 C203 1.491 . S
C209 C208 1.400 . S
C209 C210 1.398 . S
C210 H198 0.950 . S
C210 C209 1.398 . S
C210 C211 1.391 . S
C211 H199 0.950 . S
C211 C207 1.393 . S
C211 C210 1.391 . S
H212 C220 0.950 . S
H213 C225 0.950 . S
H214 C222 0.950 . S
H215 C224 0.950 . S
H216 C226 0.950 1_655 S
H217 C228 0.950 . S
H218 C230 0.950 . S
H219 C231 0.950 . S
C220 H212 0.950 . S
C220 C221 1.386 . S
C220 C222 1.391 . S
C221 C220 1.386 . S
C221 C225 1.393 . S
C222 H214 0.950 . S
C222 C220 1.391 . S
C222 C223 1.400 . S
C223 C222 1.400 . S
C223 C224 1.398 . S
C223 C229 1.491 . S
C224 H215 0.950 . S
C224 C223 1.398 . S
C224 C225 1.391 . S
C225 H213 0.950 . S
C225 C221 1.393 . S
C225 C224 1.391 . S
C226 H216 0.950 1_455 S
C226 C227 1.386 . S
C226 C228 1.391 . S
C227 C226 1.386 . S
C227 C231 1.401 . S
C228 H217 0.950 . S
C228 C226 1.391 . S
C228 C229 1.400 . S
C229 C223 1.491 . S
C229 C228 1.400 . S
C229 C230 1.398 . S
C230 H218 0.950 . S
C230 C229 1.398 . S
C230 C231 1.391 . S
C231 H219 0.950 . S
C231 C227 1.401 . S
C231 C230 1.391 . S
H232 C240 0.950 . S
H233 C245 0.950 . S
H234 C242 0.950 . S
H235 C244 0.950 . S
H236 C246 0.950 . S
H237 C248 0.950 . S
H238 C250 0.950 . S
H239 C251 0.950 . S
C240 H232 0.950 . S
C240 C241 1.386 . S
C240 C242 1.391 . S
C241 C240 1.386 . S
C241 C245 1.393 . S
C242 H234 0.950 . S
C242 C240 1.391 . S
C242 C243 1.400 . S
C243 C242 1.400 . S
C243 C244 1.398 . S
C243 C249 1.491 . S
C244 H235 0.950 . S
C244 C243 1.398 . S
C244 C245 1.391 . S
C245 H233 0.950 . S
C245 C241 1.393 . S
C245 C244 1.391 . S
C246 H236 0.950 . S
C246 C247 1.386 . S
C246 C248 1.391 . S
C247 C246 1.386 . S
C247 C251 1.393 . S
C248 H237 0.950 . S
C248 C246 1.391 . S
C248 C249 1.400 . S
C249 C243 1.491 . S
C249 C248 1.400 . S
C249 C250 1.398 . S
C250 H238 0.950 . S
C250 C249 1.398 . S
C250 C251 1.391 . S
C251 H239 0.950 . S
C251 C247 1.393 . S
C251 C250 1.391 . S
H252 C260 0.950 . S
H253 C265 0.950 . S
H254 C262 0.950 . S
H255 C264 0.950 . S
H256 C266 0.950 . S
H257 C268 0.950 . S
H258 C270 0.950 . S
H259 C271 0.950 . S
C260 H252 0.950 . S
C260 C261 1.386 . S
C260 C262 1.391 . S
C261 C260 1.386 . S
C261 C265 1.393 . S
C262 H254 0.950 . S
C262 C260 1.391 . S
C262 C263 1.400 . S
C263 C262 1.400 . S
C263 C264 1.398 . S
C263 C269 1.491 . S
C264 H255 0.950 . S
C264 C263 1.398 . S
C264 C265 1.391 . S
C265 H253 0.950 . S
C265 C261 1.393 . S
C265 C264 1.391 . S
C266 H256 0.950 . S
C266 C267 1.384 1_455 S
C266 C268 1.391 1_455 S
C267 C266 1.384 1_655 S
C267 C271 1.414 . S
C268 H257 0.950 . S
C268 C266 1.391 1_655 S
C268 C269 1.400 . S
C269 C263 1.491 . S
C269 C268 1.400 . S
C269 C270 1.398 . S
C270 H258 0.950 . S
C270 C269 1.398 . S
C270 C271 1.391 . S
C271 H259 0.950 . S
C271 C267 1.414 . S
C271 C270 1.391 . S
H272 C280 0.950 . S
H273 C285 0.950 . S
H274 C282 0.950 . S
H275 C284 0.950 . S
H276 C286 0.950 . S
H277 C288 0.950 . S
H278 C290 0.950 . S
H279 C291 0.950 . S
C280 H272 0.950 . S
C280 C281 1.412 . S
C280 C282 1.391 . S
C281 C280 1.412 . S
C281 C285 1.390 1_545 S
C282 H274 0.950 . S
C282 C280 1.391 . S
C282 C283 1.400 . S
C283 C282 1.400 . S
C283 C284 1.398 1_556 S
C283 C289 1.491 1_556 S
C284 H275 0.950 . S
C284 C283 1.398 1_554 S
C284 C285 1.391 1_544 S
C285 H273 0.950 . S
C285 C281 1.390 1_565 S
C285 C284 1.391 1_566 S
C286 H276 0.950 . S
C286 C287 1.386 . S
C286 C288 1.391 . S
C287 C286 1.386 . S
C287 C291 1.393 . S
C288 H277 0.950 . S
C288 C286 1.391 . S
C288 C289 1.400 . S
C289 C283 1.491 1_554 S
C289 C288 1.400 . S
C289 C290 1.398 1_554 S
C290 H278 0.950 . S
C290 C289 1.398 1_556 S
C290 C291 1.391 1_556 S
C291 H279 0.950 . S
C291 C287 1.393 . S
C291 C290 1.391 1_554 S
H292 C300 0.950 . S
H293 C305 0.950 . S
H294 C302 0.950 . S
H295 C304 0.950 1_554 S
H296 C306 0.950 . S
H297 C308 0.950 . S
H298 C310 0.950 1_556 S
H299 C311 0.950 . S
C300 H292 0.950 . S
C300 C301 1.386 . S
C300 C302 1.391 . S
C301 C300 1.386 . S
C301 C305 1.393 . S
C302 H294 0.950 . S
C302 C300 1.391 . S
C302 C303 1.400 . S
C303 C302 1.400 . S
C303 C304 1.398 . S
C303 C309 1.491 1_556 S
C304 H295 0.950 1_556 S
C304 C303 1.398 . S
C304 C305 1.391 . S
C305 H293 0.950 . S
C305 C301 1.393 . S
C305 C304 1.391 . S
C306 H296 0.950 . S
C306 C307 1.386 . S
C306 C308 1.391 . S
C307 C306 1.386 . S
C307 C311 1.393 . S
C308 H297 0.950 . S
C308 C306 1.391 . S
C308 C309 1.400 . S
C309 C303 1.491 1_554 S
C309 C308 1.400 . S
C309 C310 1.398 . S
C310 H298 0.950 1_554 S
C310 C309 1.398 . S
C310 C311 1.391 . S
C311 H299 0.950 . S
C311 C307 1.393 . S
C311 C310 1.391 . S
H312 C320 0.950 . S
H313 C325 0.950 . S
H314 C322 0.950 . S
H315 C324 0.950 . S
H316 C326 0.950 . S
H317 C328 0.950 . S
H318 C330 0.950 . S
H319 C331 0.950 1_545 S
C320 H312 0.950 . S
C320 C321 1.386 . S
C320 C322 1.391 . S
C321 C320 1.386 . S
C321 C325 1.393 . S
C322 H314 0.950 . S
C322 C320 1.391 . S
C322 C323 1.400 . S
C323 C322 1.400 . S
C323 C324 1.398 . S
C323 C329 1.491 1_554 S
C324 H315 0.950 . S
C324 C323 1.398 . S
C324 C325 1.391 . S
C325 H313 0.950 . S
C325 C321 1.393 . S
C325 C324 1.391 . S
C326 H316 0.950 . S
C326 C327 1.386 . S
C326 C328 1.391 . S
C327 C326 1.386 . S
C327 C331 1.393 . S
C328 H317 0.950 . S
C328 C326 1.391 . S
C328 C329 1.400 . S
C329 C323 1.491 1_556 S
C329 C328 1.400 . S
C329 C330 1.398 . S
C330 H318 0.950 . S
C330 C329 1.398 . S
C330 C331 1.391 . S
C331 H319 0.950 1_565 S
C331 C327 1.393 . S
C331 C330 1.391 . S
H332 C340 0.950 . S
H333 C345 0.950 . S
H334 C342 0.934 1_554 S
H335 C344 0.950 . S
H336 C346 0.950 . S
H337 C348 0.950 1_556 S
H338 C350 0.950 . S
H339 C351 0.950 1_455 S
C340 H332 0.950 . S
C340 C341 1.386 . S
C340 C342 1.391 . S
C341 C340 1.386 . S
C341 C345 1.393 . S
C342 H334 0.934 1_556 S
C342 C340 1.391 . S
C342 C343 1.400 . S
C343 C342 1.400 . S
C343 C344 1.398 . S
C343 C349 1.491 1_556 S
C344 H335 0.950 . S
C344 C343 1.398 . S
C344 C345 1.391 . S
C345 H333 0.950 . S
C345 C341 1.393 . S
C345 C344 1.391 . S
C346 H336 0.950 . S
C346 C347 1.387 . S
C346 C348 1.391 . S
C347 C346 1.387 . S
C347 C351 1.393 . S
C348 H337 0.950 1_554 S
C348 C346 1.391 . S
C348 C349 1.400 . S
C349 C343 1.491 1_554 S
C349 C348 1.400 . S
C349 C350 1.398 . S
C350 H338 0.950 . S
C350 C349 1.398 . S
C350 C351 1.391 . S
C351 H339 0.950 1_655 S
C351 C347 1.393 . S
C351 C350 1.391 . S
H352 C360 0.950 . S
H353 C365 0.950 . S
H354 C362 0.950 . S
H355 C364 0.950 . S
H356 C366 0.950 . S
H357 C368 0.950 . S
H358 C370 0.950 . S
H359 C371 0.950 . S
C360 H352 0.950 . S
C360 C361 1.386 . S
C360 C362 1.391 . S
C361 C360 1.386 . S
C361 C365 1.393 . S
C362 H354 0.950 . S
C362 C360 1.391 . S
C362 C363 1.400 . S
C363 C362 1.400 . S
C363 C364 1.398 . S
C363 C369 1.491 . S
C364 H355 0.950 . S
C364 C363 1.398 . S
C364 C365 1.391 . S
C365 H353 0.950 . S
C365 C361 1.393 . S
C365 C364 1.391 . S
C366 H356 0.950 . S
C366 C367 1.386 . S
C366 C368 1.391 . S
C367 C366 1.386 . S
C367 C371 1.393 . S
C368 H357 0.950 . S
C368 C366 1.391 . S
C368 C369 1.400 . S
C369 C363 1.491 . S
C369 C368 1.400 . S
C369 C370 1.398 . S
C370 H358 0.950 . S
C370 C369 1.398 . S
C370 C371 1.391 . S
C371 H359 0.950 . S
C371 C367 1.393 . S
C371 C370 1.391 . S
H372 C380 0.950 . S
H373 C385 0.950 . S
H374 C382 0.950 . S
H375 C384 0.950 . S
H376 C386 0.950 . S
H377 C388 0.950 . S
H378 C390 0.950 . S
H379 C391 0.950 . S
C380 H372 0.950 . S
C380 C381 1.386 . S
C380 C382 1.391 . S
C381 C380 1.386 . S
C381 C385 1.393 . S
C382 H374 0.950 . S
C382 C380 1.391 . S
C382 C383 1.400 . S
C383 C382 1.400 . S
C383 C384 1.398 . S
C383 C389 1.491 . S
C384 H375 0.950 . S
C384 C383 1.398 . S
C384 C385 1.391 . S
C385 H373 0.950 . S
C385 C381 1.393 . S
C385 C384 1.391 . S
C386 H376 0.950 . S
C386 C387 1.386 . S
C386 C388 1.391 . S
C387 C386 1.386 . S
C387 C391 1.393 . S
C388 H377 0.950 . S
C388 C386 1.391 . S
C388 C389 1.400 . S
C389 C383 1.491 . S
C389 C388 1.400 . S
C389 C390 1.398 . S
C390 H378 0.950 . S
C390 C389 1.398 . S
C390 C391 1.391 . S
C391 H379 0.950 . S
C391 C387 1.393 . S
C391 C390 1.391 . S
H392 C400 0.950 . S
H393 C405 0.950 . S
H394 C402 0.950 . S
H395 C404 0.950 . S
H396 C406 0.950 . S
H397 C408 0.950 . S
H398 C410 0.950 . S
H399 C411 0.950 . S
C400 H392 0.950 . S
C400 C401 1.386 . S
C400 C402 1.391 . S
C401 C400 1.386 . S
C401 C405 1.393 . S
C402 H394 0.950 . S
C402 C400 1.391 . S
C402 C403 1.400 . S
C403 C402 1.400 . S
C403 C404 1.398 . S
C403 C409 1.491 . S
C404 H395 0.950 . S
C404 C403 1.398 . S
C404 C405 1.391 . S
C405 H393 0.950 . S
C405 C401 1.393 . S
C405 C404 1.391 . S
C406 H396 0.950 . S
C406 C407 1.386 . S
C406 C408 1.391 . S
C407 C406 1.386 . S
C407 C411 1.393 . S
C408 H397 0.950 . S
C408 C406 1.391 . S
C408 C409 1.400 . S
C409 C403 1.491 . S
C409 C408 1.400 . S
C409 C410 1.398 . S
C410 H398 0.950 . S
C410 C409 1.398 . S
C410 C411 1.391 . S
C411 H399 0.950 . S
C411 C407 1.393 . S
C411 C410 1.391 . S
H412 C420 0.950 . S
H413 C425 0.950 . S
H414 C422 0.950 . S
H415 C424 0.950 . S
H416 C426 0.950 . S
H417 C428 0.950 . S
H418 C430 0.950 . S
H419 C431 0.950 . S
C420 H412 0.950 . S
C420 C421 1.386 . S
C420 C422 1.391 . S
C421 C420 1.386 . S
C421 C425 1.393 . S
C422 H414 0.950 . S
C422 C420 1.391 . S
C422 C423 1.400 . S
C423 C422 1.400 . S
C423 C424 1.398 . S
C423 C429 1.491 . S
C424 H415 0.950 . S
C424 C423 1.398 . S
C424 C425 1.391 . S
C425 H413 0.950 . S
C425 C421 1.393 . S
C425 C424 1.391 . S
C426 H416 0.950 . S
C426 C427 1.386 . S
C426 C428 1.391 . S
C427 C426 1.386 . S
C427 C431 1.393 . S
C428 H417 0.950 . S
C428 C426 1.391 . S
C428 C429 1.400 . S
C429 C423 1.491 . S
C429 C428 1.400 . S
C429 C430 1.398 . S
C430 H418 0.950 . S
C430 C429 1.398 . S
C430 C431 1.391 . S
C431 H419 0.950 . S
C431 C427 1.393 . S
C431 C430 1.391 . S
C121 C34 1.423 . S
C127 C6 1.415 . S
C141 C48 1.422 . S
C147 C20 1.431 . S
C161 C62 1.426 . S
C167 C90 1.414 . S
C181 C76 1.432 . S
C187 C104 1.417 . S
C201 C22 1.431 1_545 S
C207 C9 1.370 . S
C221 C23 1.388 . S
C227 C36 1.411 1_455 S
C241 C50 1.428 1_565 S
C247 C37 1.366 . S
C261 C51 1.381 . S
C267 C8 1.400 1_655 S
C281 C106 1.395 1_545 S
C287 C65 1.378 . S
C301 C79 1.365 . S
C307 C64 1.426 1_455 S
C321 C93 1.372 . S
C327 C78 1.432 1_565 S
C341 C107 1.394 . S
C347 C92 1.422 1_655 S
C361 C7 1.582 . S
C367 C77 1.600 . S
C381 C91 1.599 . S
C387 C21 1.584 . S
C401 C35 1.601 . S
C407 C105 1.581 . S
C421 C49 1.599 . S
C427 C63 1.584 . S
