# Generated by pormake.
# Topology fne, (5)-cn, num edge types: 1
# Building blocks:
#     Node 0, Type 0, BuildingBlock: BEQFEK_clean_sbu_0, # of connection points: 5
#     Node 1, Type 0, BuildingBlock: BEQFEK_clean_sbu_0, # of connection points: 5
#     Node 2, Type 0, BuildingBlock: BEQFEK_clean_sbu_0, # of connection points: 5
#     Node 3, Type 0, BuildingBlock: BEQFEK_clean_sbu_0, # of connection points: 5
#     Node 4, Type 0, BuildingBlock: BEQFEK_clean_sbu_0, # of connection points: 5
#     Node 5, Type 0, BuildingBlock: BEQFEK_clean_sbu_0, # of connection points: 5
#     Edge 6, Type (0, 0), BuildingBlock: MIFKUJ_clean_linker_0, # of connection points: 2
#     Edge 7, Type (0, 0), BuildingBlock: MIFKUJ_clean_linker_0, # of connection points: 2
#     Edge 8, Type (0, 0), BuildingBlock: MIFKUJ_clean_linker_0, # of connection points: 2
#     Edge 9, Type (0, 0), BuildingBlock: MIFKUJ_clean_linker_0, # of connection points: 2
#     Edge 10, Type (0, 0), BuildingBlock: MIFKUJ_clean_linker_0, # of connection points: 2
#     Edge 11, Type (0, 0), BuildingBlock: MIFKUJ_clean_linker_0, # of connection points: 2
#     Edge 12, Type (0, 0), BuildingBlock: MIFKUJ_clean_linker_0, # of connection points: 2
#     Edge 13, Type (0, 0), BuildingBlock: MIFKUJ_clean_linker_0, # of connection points: 2
#     Edge 14, Type (0, 0), BuildingBlock: MIFKUJ_clean_linker_0, # of connection points: 2
#     Edge 15, Type (0, 0), BuildingBlock: MIFKUJ_clean_linker_0, # of connection points: 2
#     Edge 16, Type (0, 0), BuildingBlock: MIFKUJ_clean_linker_0, # of connection points: 2
#     Edge 17, Type (0, 0), BuildingBlock: MIFKUJ_clean_linker_0, # of connection points: 2
#     Edge 18, Type (0, 0), BuildingBlock: MIFKUJ_clean_linker_0, # of connection points: 2
#     Edge 19, Type (0, 0), BuildingBlock: MIFKUJ_clean_linker_0, # of connection points: 2
#     Edge 20, Type (0, 0), BuildingBlock: MIFKUJ_clean_linker_0, # of connection points: 2
# Relax obj value: 0.201
# Max RMSD: 0.173
# Mean RMSD: 0.173
data_MOF--net-fne--node1-BEQFEK_clean_sbu_0--edge1-MIFKUJ_clean_linker_0
_symmetry_space_group_name_H-M    P1
_symmetry_Int_Tables_number       1
_symmetry_cell_setting            triclinic
loop_
_symmetry_equiv_pos_as_xyz
'x, y, z'
_cell_length_a     56.632282
_cell_length_b     56.642621
_cell_length_c     22.778877
_cell_angle_alpha  89.901573
_cell_angle_beta   90.041767
_cell_angle_gamma 120.01634
loop_
_atom_site_label
_atom_site_type_symbol
_atom_site_fract_x
_atom_site_fract_y
_atom_site_fract_z
_atom_type_partial_charge
Co0 Co 0.56055 0.30616 0.97262 0.0
Co1 Co 0.5402 0.28049 0.09676 0.0
C2 C 0.59156 0.2866 0.04332 0.0
O3 O 0.58925 0.29798 0.99706 0.0
O4 O 0.57404 0.27899 0.08454 0.0
C5 C 0.59185 0.33426 0.8687 0.0
O6 O 0.61237 0.33334 0.89327 0.0
C7 C 0.54429 0.2788 0.22356 0.0
C8 C 0.50105 0.2562 0.25094 0.0
C9 C 0.52746 0.27022 0.27228 0.0
N10 N 0.52857 0.27033 0.17541 0.0
N11 N 0.50275 0.25635 0.19195 0.0
C12 C 0.57452 0.29758 0.22241 0.0
H13 H 0.5808 0.30919 0.18058 0.0
H14 H 0.58118 0.31195 0.26 0.0
H15 H 0.58477 0.2853 0.22584 0.0
C16 C 0.5585 0.35217 0.02837 0.0
N17 N 0.55514 0.32691 0.02986 0.0
N18 N 0.54621 0.31612 0.08205 0.0
C19 C 0.54347 0.33424 0.11544 0.0
C20 C 0.55142 0.35768 0.0827 0.0
C21 C 0.56892 0.37072 0.97626 0.0
H22 H 0.55371 0.36203 0.94029 0.0
H23 H 0.58804 0.37197 0.96045 0.0
H24 H 0.57284 0.39148 0.98689 0.0
O25 O 0.52651 0.27141 0.95725 0.0
O26 O 0.51163 0.25327 0.04521 0.0
H27 H 0.51357 0.30797 0.17814 0.0
H28 H 0.52537 0.34357 0.18916 0.0
C29 C 0.53165 0.32867 0.17607 0.0
H30 H 0.54712 0.32999 0.20778 0.0
H31 H 0.48627 0.24814 0.16296 0.0
O32 O 0.56953 0.32509 0.89647 0.0
C33 C 0.50912 0.25231 0.98965 0.0
Co34 Co 0.49791 0.6072 0.32718 0.0
Co35 Co 0.50439 0.59007 0.45421 0.0
C36 C 0.54852 0.6403 0.40015 0.0
O37 O 0.53473 0.63558 0.35316 0.0
O38 O 0.53909 0.62467 0.44453 0.0
C39 C 0.50585 0.64125 0.22693 0.0
O40 O 0.52691 0.65983 0.25635 0.0
C41 C 0.51146 0.59296 0.58141 0.0
C42 C 0.48739 0.54959 0.60733 0.0
C43 C 0.50248 0.57574 0.6297 0.0
N44 N 0.50204 0.57768 0.53274 0.0
N45 N 0.48808 0.55175 0.54841 0.0
C46 C 0.52551 0.62347 0.58143 0.0
H47 H 0.51978 0.63092 0.54189 0.0
H48 H 0.52021 0.6311 0.62125 0.0
H49 H 0.54789 0.63182 0.58084 0.0
C50 C 0.44647 0.59937 0.37755 0.0
N51 N 0.47072 0.60056 0.38271 0.0
N52 N 0.47372 0.59432 0.43678 0.0
C53 C 0.45175 0.58982 0.46846 0.0
C54 C 0.43355 0.59252 0.43184 0.0
C55 C 0.43502 0.60204 0.32027 0.0
H56 H 0.4402 0.59191 0.28504 0.0
H57 H 0.44438 0.62397 0.3089 0.0
H58 H 0.41255 0.59282 0.3222 0.0
O59 O 0.49878 0.57357 0.3128 0.0
O60 O 0.50539 0.56226 0.40221 0.0
H61 H 0.44478 0.56323 0.54133 0.0
H62 H 0.43214 0.58659 0.55235 0.0
C63 C 0.44881 0.58423 0.53311 0.0
H64 H 0.46796 0.59875 0.55551 0.0
H65 H 0.47805 0.53563 0.51896 0.0
O66 O 0.49024 0.61827 0.25061 0.0
C67 C 0.50256 0.55803 0.34704 0.0
Co68 Co 0.12575 0.54938 0.64263 0.0
Co69 Co 0.15268 0.55475 0.7653 0.0
C70 C 0.14465 0.59933 0.71277 0.0
O71 O 0.1319 0.58529 0.66808 0.0
O72 O 0.1539 0.58994 0.75167 0.0
C73 C 0.09791 0.5536 0.54047 0.0
O74 O 0.09875 0.5744 0.56785 0.0
C75 C 0.1526 0.56204 0.8906 0.0
C76 C 0.17798 0.54546 0.92424 0.0
C77 C 0.16195 0.55632 0.9419 0.0
N78 N 0.16251 0.55479 0.84491 0.0
N79 N 0.17807 0.54533 0.86509 0.0
C80 C 0.13173 0.57077 0.88459 0.0
H81 H 0.12112 0.56414 0.84169 0.0
H82 H 0.11649 0.56214 0.92054 0.0
H83 H 0.14206 0.59334 0.88684 0.0
C84 C 0.0821 0.4988 0.69704 0.0
N85 N 0.10616 0.52224 0.69941 0.0
N86 N 0.11751 0.52424 0.75094 0.0
C87 C 0.10112 0.5019 0.78295 0.0
C88 C 0.07816 0.48508 0.74987 0.0
C89 C 0.06451 0.489 0.64345 0.0
H90 H 0.07653 0.48775 0.60638 0.0
H91 H 0.05823 0.50404 0.63119 0.0
H92 H 0.04616 0.46872 0.65036 0.0
O93 O 0.16164 0.55239 0.62712 0.0
O94 O 0.17986 0.55315 0.71402 0.0
H95 H 0.1278 0.49904 0.84563 0.0
H96 H 0.09203 0.47648 0.86091 0.0
C97 C 0.10725 0.49689 0.8442 0.0
H98 H 0.10705 0.51222 0.87393 0.0
H99 H 0.18779 0.53775 0.83861 0.0
O100 O 0.10686 0.53972 0.56614 0.0
C101 C 0.18073 0.55318 0.65817 0.0
Co102 Co 0.81977 0.17924 0.9796 0.0
Co103 Co 0.83943 0.20429 0.10439 0.0
C104 C 0.78764 0.19706 0.04892 0.0
O105 O 0.7897 0.18519 0.00351 0.0
O106 O 0.80561 0.20545 0.08915 0.0
C107 C 0.78782 0.1493 0.87915 0.0
O108 O 0.76683 0.14688 0.9088 0.0
C109 C 0.82978 0.20089 0.22934 0.0
C110 C 0.87113 0.22485 0.26696 0.0
C111 C 0.84399 0.20797 0.2819 0.0
N112 N 0.84775 0.21226 0.18531 0.0
N113 N 0.87241 0.22702 0.20795 0.0
C114 C 0.79962 0.18357 0.22021 0.0
H115 H 0.79217 0.19544 0.19563 0.0
H116 H 0.79528 0.16553 0.19327 0.0
H117 H 0.78819 0.177 0.26211 0.0
C118 C 0.82684 0.13528 0.03103 0.0
N119 N 0.82662 0.15887 0.03533 0.0
N120 N 0.83529 0.16945 0.0877 0.0
C121 C 0.84145 0.15288 0.11846 0.0
C122 C 0.83639 0.13078 0.08351 0.0
C123 C 0.8204 0.11889 0.97586 0.0
H124 H 0.83403 0.13193 0.94017 0.0
H125 H 0.79911 0.11215 0.96252 0.0
H126 H 0.82297 0.10084 0.98139 0.0
O127 O 0.8529 0.21515 0.96745 0.0
O128 O 0.86876 0.23276 0.05553 0.0
H129 H 0.87032 0.17853 0.18322 0.0
H130 H 0.85687 0.14253 0.19613 0.0
C131 C 0.85191 0.15804 0.18025 0.0
H132 H 0.83605 0.15738 0.20963 0.0
H133 H 0.89019 0.23759 0.18311 0.0
O134 O 0.81133 0.16128 0.90248 0.0
C135 C 0.87053 0.23416 -0.00028 0.0
Co136 Co 0.88223 0.87134 0.31102 0.0
Co137 Co 0.87887 0.89213 0.43577 0.0
C138 C 0.83309 0.84024 0.38509 0.0
O139 O 0.84612 0.84235 0.33811 0.0
O140 O 0.84349 0.8581 0.42534 0.0
C141 C 0.87608 0.83786 0.21052 0.0
O142 O 0.85588 0.81824 0.24013 0.0
C143 C 0.87333 0.88466 0.561 0.0
C144 C 0.8902 0.92649 0.5954 0.0
C145 C 0.87927 0.8995 0.61253 0.0
N146 N 0.8804 0.90201 0.51564 0.0
N147 N 0.89014 0.92698 0.53625 0.0
C148 C 0.86435 0.85503 0.55433 0.0
H149 H 0.87105 0.85125 0.51136 0.0
H150 H 0.87274 0.84808 0.59014 0.0
H151 H 0.84176 0.84295 0.55627 0.0
C152 C 0.93358 0.87789 0.35976 0.0
N153 N 0.91005 0.87817 0.36529 0.0
N154 N 0.90902 0.88741 0.41759 0.0
C155 C 0.93204 0.89354 0.44701 0.0
C156 C 0.94836 0.88773 0.41132 0.0
C157 C 0.94259 0.87073 0.30415 0.0
H158 H 0.94289 0.88412 0.2682 0.0
H159 H 0.92763 0.8494 0.292 0.0
H160 H 0.96316 0.87305 0.30841 0.0
O161 O 0.88049 0.90496 0.29725 0.0
O162 O 0.87927 0.92083 0.38561 0.0
H163 H 0.9367 0.92355 0.51015 0.0
H164 H 0.95885 0.90958 0.52288 0.0
C165 C 0.93831 0.90485 0.50805 0.0
H166 H 0.92323 0.88963 0.53878 0.0
H167 H 0.89752 0.94438 0.51002 0.0
O168 O 0.89017 0.86119 0.23393 0.0
C169 C 0.87953 0.92271 0.32985 0.0
Co170 Co 0.25375 0.93526 0.64463 0.0
Co171 Co 0.22601 0.93143 0.76483 0.0
C172 C 0.23035 0.88448 0.71129 0.0
O173 O 0.24495 0.89831 0.66809 0.0
O174 O 0.22165 0.89493 0.74888 0.0
C175 C 0.28199 0.93144 0.5428 0.0
O176 O 0.28015 0.90975 0.56825 0.0
C177 C 0.23026 0.92767 0.89007 0.0
C178 C 0.20179 0.94008 0.92541 0.0
C179 C 0.22127 0.93333 0.94199 0.0
N180 N 0.21733 0.93169 0.84513 0.0
N181 N 0.20005 0.93875 0.86638 0.0
C182 C 0.25076 0.91854 0.88244 0.0
H183 H 0.24666 0.90634 0.84203 0.0
H184 H 0.27143 0.93664 0.87813 0.0
H185 H 0.25046 0.90615 0.92055 0.0
C186 C 0.29949 0.98315 0.70161 0.0
N187 N 0.27429 0.96114 0.70227 0.0
N188 N 0.26214 0.9605 0.75184 0.0
C189 C 0.27896 0.98269 0.78371 0.0
C190 C 0.30334 0.99755 0.75335 0.0
C191 C 0.31927 0.99009 0.65217 0.0
H192 H 0.31827 0.97124 0.63533 0.0
H193 H 0.34043 0.00462 0.66633 0.0
H194 H 0.31356 0.99935 0.61587 0.0
O195 O 0.21905 0.93508 0.62864 0.0
O196 O 0.2002 0.93537 0.71387 0.0
H197 H 0.28225 0.01412 0.84261 0.0
H198 H 0.27476 0.98258 0.87712 0.0
C199 C 0.27062 0.9916 0.83797 0.0
H200 H 0.2486 0.98484 0.8364 0.0
H201 H 0.18778 0.94353 0.84059 0.0
O202 O 0.27318 0.94518 0.56933 0.0
C203 C 0.20012 0.93553 0.65797 0.0
H204 H 0.6316 0.29742 0.96263 0.0
H205 H 0.66517 0.28232 0.96549 0.0
H206 H 0.63561 0.24631 0.13592 0.0
H207 H 0.60191 0.26114 0.13352 0.0
H208 H 0.70682 0.29133 0.04061 0.0
H209 H 0.6339 0.18508 0.13846 0.0
H210 H 0.58456 0.15202 0.14291 0.0
H211 H 0.57261 0.18296 0.98013 0.0
H212 H 0.6219 0.21592 0.97431 0.0
H213 H 0.78094 0.22811 0.13162 0.0
H214 H 0.74718 0.24285 0.13199 0.0
H215 H 0.71025 0.19561 0.97592 0.0
H216 H 0.74399 0.18065 0.975 0.0
H217 H 0.67215 0.19192 0.0585 0.0
H218 H 0.75234 0.26058 0.96026 0.0
H219 H 0.80151 0.29335 0.95014 0.0
H220 H 0.79861 0.33718 0.10097 0.0
H221 H 0.74947 0.30441 0.11255 0.0
C222 C 0.63241 0.28655 0.00104 0.0
C223 C 0.61386 0.28025 0.04758 0.0
C224 C 0.65164 0.27799 0.00261 0.0
C225 C 0.65255 0.26287 0.0505 0.0
C226 C 0.63492 0.25761 0.09816 0.0
C227 C 0.61573 0.26618 0.09673 0.0
C228 C 0.67113 0.2516 0.04954 0.0
C229 C 0.69927 0.26962 0.04467 0.0
C230 C 0.66117 0.22322 0.05384 0.0
C231 C 0.63155 0.20313 0.0563 0.0
C232 C 0.62075 0.18473 0.1035 0.0
C233 C 0.59279 0.16603 0.10628 0.0
C234 C 0.57545 0.16545 0.06192 0.0
C235 C 0.58604 0.1835 0.01456 0.0
C236 C 0.61399 0.20221 0.01154 0.0
C237 C 0.76545 0.22052 0.09773 0.0
C238 C 0.7653 0.20335 0.05296 0.0
C239 C 0.74625 0.22907 0.09794 0.0
C240 C 0.72652 0.22059 0.05355 0.0
C241 C 0.72543 0.20242 0.01043 0.0
C242 C 0.74475 0.19396 0.00994 0.0
C243 C 0.70784 0.23169 0.05067 0.0
C244 C 0.67969 0.21364 0.05473 0.0
C245 C 0.71778 0.26001 0.04478 0.0
C246 C 0.74727 0.27989 0.0376 0.0
C247 C 0.76223 0.27708 0.99155 0.0
C248 C 0.79009 0.29567 0.98551 0.0
C249 C 0.80319 0.31729 0.02498 0.0
C250 C 0.78844 0.3204 0.07048 0.0
C251 C 0.76058 0.30184 0.07678 0.0
H252 H 0.82475 0.33168 0.02023 0.0
H253 H 0.55381 0.15098 0.0642 0.0
H254 H 0.80003 0.82727 0.4815 0.0
H255 H 0.75157 0.79332 0.48801 0.0
H256 H 0.75292 0.76892 0.30937 0.0
H257 H 0.80136 0.80282 0.30223 0.0
H258 H 0.71128 0.7801 0.3314 0.0
H259 H 0.74886 0.72828 0.41981 0.0
H260 H 0.77702 0.72055 0.49135 0.0
H261 H 0.73129 0.72793 0.63332 0.0
H262 H 0.70308 0.73606 0.56261 0.0
H263 H 0.58277 0.66224 0.30733 0.0
H264 H 0.63094 0.69663 0.30918 0.0
H265 H 0.62658 0.70479 0.49677 0.0
H266 H 0.57852 0.66892 0.49545 0.0
H267 H 0.66993 0.70398 0.47478 0.0
H268 H 0.63159 0.75469 0.39128 0.0
H269 H 0.60347 0.76417 0.32314 0.0
H270 H 0.65031 0.76203 0.17722 0.0
H271 H 0.6785 0.75219 0.24439 0.0
C272 C 0.79013 0.81448 0.44377 0.0
C273 C 0.80456 0.81783 0.39125 0.0
C274 C 0.76244 0.79506 0.44766 0.0
C275 C 0.74873 0.77866 0.39917 0.0
C276 C 0.76318 0.78148 0.3472 0.0
C277 C 0.79089 0.80077 0.34334 0.0
C278 C 0.71902 0.7594 0.40161 0.0
C279 C 0.70219 0.76323 0.36224 0.0
C280 C 0.70722 0.73815 0.44347 0.0
C281 C 0.72404 0.73303 0.48593 0.0
C282 C 0.74495 0.72846 0.46629 0.0
C283 C 0.76089 0.72397 0.50669 0.0
C284 C 0.75599 0.72382 0.56685 0.0
C285 C 0.73508 0.72808 0.58672 0.0
C286 C 0.71909 0.7326 0.5465 0.0
C287 C 0.59199 0.6716 0.34889 0.0
C288 C 0.57691 0.66305 0.40123 0.0
C289 C 0.61955 0.6914 0.34989 0.0
C290 C 0.63238 0.7038 0.40295 0.0
C291 C 0.61717 0.69558 0.45525 0.0
C292 C 0.58971 0.6752 0.45447 0.0
C293 C 0.66194 0.72438 0.40397 0.0
C294 C 0.67883 0.7209 0.44408 0.0
C295 C 0.67378 0.74629 0.36338 0.0
C296 C 0.65704 0.75251 0.32288 0.0
C297 C 0.6358 0.75609 0.34463 0.0
C298 C 0.61986 0.76155 0.30618 0.0
C299 C 0.62507 0.76365 0.24588 0.0
C300 C 0.64629 0.76039 0.22393 0.0
C301 C 0.66229 0.75492 0.26219 0.0
H302 H 0.61269 0.76784 0.21618 0.0
H303 H 0.76837 0.72035 0.59806 0.0
H304 H 0.18322 0.6397 0.78095 0.0
H305 H 0.19567 0.68754 0.78312 0.0
H306 H 0.13149 0.67115 0.65936 0.0
H307 H 0.11973 0.62335 0.6549 0.0
H308 H 0.17434 0.71479 0.62784 0.0
H309 H 0.12748 0.68366 0.81013 0.0
H310 H 0.11647 0.66063 0.90644 0.0
H311 H 0.19739 0.71636 0.96755 0.0
H312 H 0.20901 0.7395 0.87132 0.0
H313 H 0.1881 0.84558 0.77521 0.0
H314 H 0.1715 0.79672 0.77712 0.0
H315 H 0.23724 0.80853 0.66253 0.0
H316 H 0.25322 0.85738 0.65823 0.0
H317 H 0.18958 0.76632 0.8132 0.0
H318 H 0.21806 0.7542 0.57484 0.0
H319 H 0.22404 0.77597 0.47789 0.0
H320 H 0.16961 0.80458 0.52789 0.0
H321 H 0.16298 0.78264 0.62484 0.0
C322 C 0.17156 0.6462 0.7546 0.0
C323 C 0.15046 0.62774 0.71779 0.0
C324 C 0.17864 0.67358 0.75608 0.0
C325 C 0.1643 0.68294 0.72203 0.0
C326 C 0.14288 0.66443 0.68599 0.0
C327 C 0.13611 0.6371 0.68365 0.0
C328 C 0.1724 0.71225 0.72231 0.0
C329 C 0.17754 0.72601 0.6684 0.0
C330 C 0.17617 0.72687 0.77513 0.0
C331 C 0.16917 0.71318 0.83333 0.0
C332 C 0.14298 0.6909 0.84399 0.0
C333 C 0.13662 0.67784 0.89858 0.0
C334 C 0.15623 0.68698 0.94304 0.0
C335 C 0.18222 0.70928 0.93306 0.0
C336 C 0.1887 0.7224 0.87852 0.0
C337 C 0.1991 0.83781 0.75055 0.0
C338 C 0.22185 0.85529 0.71617 0.0
C339 C 0.18959 0.80985 0.75176 0.0
C340 C 0.2028 0.79883 0.71918 0.0
C341 C 0.22625 0.81643 0.6868 0.0
C342 C 0.23549 0.84437 0.68466 0.0
C343 C 0.1918 0.76891 0.71875 0.0
C344 C 0.18621 0.75505 0.77264 0.0
C345 C 0.18676 0.75404 0.66583 0.0
C346 C 0.19025 0.76699 0.60732 0.0
C347 C 0.20727 0.76503 0.56506 0.0
C348 C 0.21079 0.77741 0.51013 0.0
C349 C 0.19728 0.79171 0.49682 0.0
C350 C 0.18013 0.79357 0.53834 0.0
C351 C 0.1765 0.78118 0.59331 0.0
H352 H 0.20007 0.80129 0.45428 0.0
H353 H 0.15128 0.67683 0.98526 0.0
H354 H 0.50951 0.2961 0.34373 0.0
H355 H 0.52532 0.31287 0.44365 0.0
H356 H 0.579 0.27945 0.43777 0.0
H357 H 0.56388 0.26342 0.33705 0.0
H358 H 0.53969 0.26802 0.54569 0.0
H359 H 0.6103 0.33765 0.42084 0.0
H360 H 0.62497 0.37034 0.33863 0.0
H361 H 0.58963 0.41305 0.42319 0.0
H362 H 0.57402 0.38009 0.50516 0.0
H363 H 0.63153 0.34365 0.78786 0.0
H364 H 0.62585 0.34068 0.681 0.0
H365 H 0.54694 0.33381 0.69959 0.0
H366 H 0.55245 0.33718 0.80588 0.0
H367 H 0.60203 0.36664 0.58391 0.0
H368 H 0.50778 0.26933 0.64397 0.0
H369 H 0.48847 0.23841 0.72919 0.0
H370 H 0.56811 0.25252 0.77439 0.0
H371 H 0.58778 0.28314 0.68895 0.0
C372 C 0.52451 0.29218 0.36415 0.0
C373 C 0.53552 0.27848 0.33339 0.0
C374 C 0.53357 0.30183 0.42079 0.0
C375 C 0.5533 0.29738 0.44754 0.0
C376 C 0.56376 0.28303 0.41747 0.0
C377 C 0.55518 0.27394 0.36029 0.0
C378 C 0.56316 0.30791 0.50693 0.0
C379 C 0.55353 0.28951 0.55396 0.0
C380 C 0.58082 0.33603 0.51743 0.0
C381 C 0.59074 0.35622 0.46885 0.0
C382 C 0.60539 0.35382 0.42162 0.0
C383 C 0.61387 0.37241 0.37506 0.0
C384 C 0.60811 0.39368 0.37555 0.0
C385 C 0.59396 0.39648 0.42275 0.0
C386 C 0.58528 0.37784 0.46926 0.0
C387 C 0.61342 0.34253 0.76912 0.0
C388 C 0.59216 0.33999 0.80534 0.0
C389 C 0.61029 0.34097 0.70809 0.0
C390 C 0.58588 0.33677 0.68293 0.0
C391 C 0.56589 0.33705 0.71852 0.0
C392 C 0.56905 0.33879 0.77928 0.0
C393 C 0.57885 0.32667 0.6223 0.0
C394 C 0.58862 0.34511 0.5753 0.0
C395 C 0.56107 0.2986 0.61163 0.0
C396 C 0.54925 0.27868 0.66048 0.0
C397 C 0.5211 0.26561 0.67182 0.0
C398 C 0.51012 0.24822 0.72021 0.0
C399 C 0.5271 0.24372 0.75742 0.0
C400 C 0.55502 0.2562 0.74576 0.0
C401 C 0.56609 0.27356 0.69736 0.0
H402 H 0.51861 0.23048 0.79517 0.0
H403 H 0.61468 0.40805 0.33947 0.0
H404 H 0.54716 0.61346 0.6899 0.0
H405 H 0.54844 0.62905 0.7909 0.0
H406 H 0.46259 0.57121 0.80973 0.0
H407 H 0.46126 0.55555 0.70892 0.0
H408 H 0.47671 0.62392 0.84408 0.0
H409 H 0.50457 0.55828 0.87817 0.0
H410 H 0.53149 0.53522 0.86818 0.0
H411 H 0.60384 0.60854 0.92034 0.0
H412 H 0.5774 0.63218 0.92986 0.0
H413 H 0.46163 0.61219 0.15667 0.0
H414 H 0.46201 0.60859 0.0498 0.0
H415 H 0.5465 0.67194 0.04604 0.0
H416 H 0.54623 0.67596 0.15287 0.0
H417 H 0.53541 0.62061 0.00181 0.0
H418 H 0.50411 0.68422 0.97775 0.0
H419 H 0.47442 0.70378 0.99492 0.0
H420 H 0.40554 0.63065 0.92958 0.0
H421 H 0.43474 0.61045 0.91283 0.0
C422 C 0.52865 0.60404 0.71584 0.0
C423 C 0.50407 0.58352 0.69183 0.0
C424 C 0.52941 0.61285 0.77339 0.0
C425 C 0.50557 0.60132 0.80746 0.0
C426 C 0.48115 0.5804 0.7839 0.0
C427 C 0.48046 0.57137 0.72665 0.0
C428 C 0.50592 0.61164 0.86712 0.0
C429 C 0.48937 0.62303 0.8788 0.0
C430 C 0.52289 0.61094 0.91176 0.0
C431 C 0.53908 0.59714 0.90376 0.0
C432 C 0.5263 0.56963 0.8866 0.0
C433 C 0.54145 0.55641 0.88128 0.0
C434 C 0.56938 0.57044 0.89337 0.0
C435 C 0.58222 0.59772 0.9108 0.0
C436 C 0.56716 0.61104 0.91615 0.0
C437 C 0.48003 0.62596 0.13288 0.0
C438 C 0.504 0.64408 0.16304 0.0
C439 C 0.48019 0.62394 0.07189 0.0
C440 C 0.50434 0.63989 0.04036 0.0
C441 C 0.52769 0.65949 0.06986 0.0
C442 C 0.52745 0.6618 0.13082 0.0
C443 C 0.50625 0.63294 0.97883 0.0
C444 C 0.52312 0.62198 0.96683 0.0
C445 C 0.48928 0.6337 0.9343 0.0
C446 C 0.4716 0.64572 0.9445 0.0
C447 C 0.48258 0.67219 0.96757 0.0
C448 C 0.46585 0.68342 0.97711 0.0
C449 C 0.4381 0.66844 0.96348 0.0
C450 C 0.42704 0.64222 0.94017 0.0
C451 C 0.44368 0.63088 0.93057 0.0
H452 H 0.42518 0.67718 0.97087 0.0
H453 H 0.58105 0.56014 0.88943 0.0
H454 H 0.14911 0.5182 0.02697 0.0
H455 H 0.13141 0.51755 0.12531 0.0
H456 H 0.1371 0.59521 0.09154 0.0
H457 H 0.15535 0.59621 0.99351 0.0
H458 H 0.15661 0.59295 0.19945 0.0
H459 H 0.07628 0.53862 0.08675 0.0
H460 H 0.04648 0.502 0.01846 0.0
H461 H 0.04356 0.44192 0.13804 0.0
H462 H 0.07376 0.47822 0.20666 0.0
H463 H 0.09202 0.58772 0.46433 0.0
H464 H 0.09464 0.5872 0.35725 0.0
H465 H 0.09528 0.51145 0.36525 0.0
H466 H 0.09241 0.51163 0.47211 0.0
H467 H 0.06847 0.51498 0.26608 0.0
H468 H 0.15401 0.56872 0.36902 0.0
H469 H 0.18485 0.60454 0.43779 0.0
H470 H 0.17848 0.66493 0.33571 0.0
H471 H 0.14726 0.62935 0.26675 0.0
C472 C 0.14677 0.53522 0.04075 0.0
C473 C 0.15314 0.55704 0.00245 0.0
C474 C 0.13641 0.53469 0.0966 0.0
C475 C 0.13239 0.55605 0.11509 0.0
C476 C 0.13971 0.57837 0.07771 0.0
C477 C 0.14997 0.57884 0.02172 0.0
C478 C 0.12112 0.55528 0.17406 0.0
C479 C 0.13707 0.5762 0.21361 0.0
C480 C 0.09583 0.53314 0.19269 0.0
C481 C 0.07748 0.51119 0.1517 0.0
C482 C 0.06947 0.51762 0.09832 0.0
C483 C 0.05248 0.49691 0.05955 0.0
C484 C 0.04317 0.46965 0.07385 0.0
C485 C 0.0508 0.46305 0.12701 0.0
C486 C 0.06784 0.48369 0.16588 0.0
C487 C 0.09189 0.57053 0.44327 0.0
C488 C 0.09261 0.55001 0.47669 0.0
C489 C 0.09344 0.57031 0.38209 0.0
C490 C 0.09573 0.54958 0.35361 0.0
C491 C 0.09368 0.5277 0.38649 0.0
C492 C 0.09219 0.52792 0.44759 0.0
C493 C 0.1041 0.55252 0.29133 0.0
C494 C 0.08772 0.53197 0.25136 0.0
C495 C 0.12908 0.57491 0.2722 0.0
C496 C 0.14807 0.59636 0.31318 0.0
C497 C 0.15904 0.58961 0.3615 0.0
C498 C 0.1766 0.60987 0.40047 0.0
C499 C 0.18356 0.63699 0.39123 0.0
C500 C 0.17303 0.64391 0.34287 0.0
C501 C 0.15541 0.62371 0.30383 0.0
H502 H 0.19715 0.65265 0.42145 0.0
H503 H 0.03 0.45365 0.04379 0.0
H504 H 0.74433 0.136 0.80664 0.0
H505 H 0.74439 0.13461 0.69925 0.0
H506 H 0.8263 0.14774 0.70185 0.0
H507 H 0.8262 0.14859 0.80856 0.0
H508 H 0.77648 0.17692 0.635 0.0
H509 H 0.84089 0.12478 0.58103 0.0
H510 H 0.84399 0.08493 0.61399 0.0
H511 H 0.76163 0.0468 0.67748 0.0
H512 H 0.75786 0.0862 0.64414 0.0
H513 H 0.8571 0.23544 0.3854 0.0
H514 H 0.83991 0.21676 0.48334 0.0
H515 H 0.79095 0.13659 0.40851 0.0
H516 H 0.80927 0.15492 0.31142 0.0
H517 H 0.81264 0.13243 0.50431 0.0
H518 H 0.762 0.17533 0.45157 0.0
H519 H 0.75458 0.21222 0.41578 0.0
H520 H 0.80057 0.26257 0.56092 0.0
H521 H 0.80861 0.22613 0.59715 0.0
C522 C 0.76204 0.13779 0.78433 0.0
C523 C 0.78541 0.14279 0.81596 0.0
C524 C 0.76207 0.13708 0.72299 0.0
C525 C 0.78535 0.1411 0.69254 0.0
C526 C 0.80796 0.14421 0.7243 0.0
C527 C 0.80795 0.14492 0.78542 0.0
C528 C 0.78775 0.14587 0.62834 0.0
C529 C 0.78405 0.16694 0.60623 0.0
C530 C 0.79709 0.13248 0.59055 0.0
C531 C 0.79917 0.10858 0.61034 0.0
C532 C 0.82338 0.10784 0.6017 0.0
C533 C 0.82527 0.08533 0.62054 0.0
C534 C 0.80305 0.06338 0.64793 0.0
C535 C 0.77886 0.06386 0.65644 0.0
C536 C 0.77686 0.0863 0.63766 0.0
C537 C 0.84264 0.21387 0.39008 0.0
C538 C 0.83365 0.1968 0.3408 0.0
C539 C 0.83268 0.20324 0.44581 0.0
C540 C 0.81353 0.1754 0.45298 0.0
C541 C 0.80535 0.15818 0.40392 0.0
C542 C 0.81551 0.16876 0.34838 0.0
C543 C 0.80245 0.16421 0.51186 0.0
C544 C 0.80458 0.14202 0.53284 0.0
C545 C 0.79098 0.17609 0.54825 0.0
C546 C 0.78604 0.19803 0.52688 0.0
C547 C 0.77067 0.19433 0.47568 0.0
C548 C 0.76634 0.21515 0.45532 0.0
C549 C 0.77713 0.23973 0.48601 0.0
C550 C 0.79223 0.24352 0.53719 0.0
C551 C 0.79665 0.22277 0.5577 0.0
H552 H 0.77376 0.25584 0.47017 0.0
H553 H 0.80455 0.04598 0.66249 0.0
H554 H 0.83846 0.85286 0.6618 0.0
H555 H 0.83778 0.83491 0.75992 0.0
H556 H 0.91541 0.90609 0.79832 0.0
H557 H 0.91651 0.92379 0.69951 0.0
H558 H 0.91359 0.85852 0.83237 0.0
H559 H 0.85812 0.9008 0.85165 0.0
H560 H 0.82022 0.9086 0.82628 0.0
H561 H 0.76251 0.82455 0.8622 0.0
H562 H 0.80013 0.81618 0.88706 0.0
H563 H 0.91853 0.8718 0.14022 0.0
H564 H 0.91878 0.87304 0.03332 0.0
H565 H 0.84056 0.79906 0.02981 0.0
H566 H 0.84004 0.79778 0.1372 0.0
H567 H 0.83952 0.84014 0.97316 0.0
H568 H 0.89549 0.79993 0.96906 0.0
H569 H 0.93373 0.793 0.99624 0.0
H570 H 0.99087 0.87327 0.93377 0.0
H571 H 0.95299 0.88087 0.90699 0.0
C572 C 0.8555 0.86452 0.69097 0.0
C573 C 0.87775 0.88948 0.67295 0.0
C574 C 0.85498 0.85435 0.74707 0.0
C575 C 0.87659 0.86916 0.78618 0.0
C576 C 0.89865 0.89429 0.76853 0.0
C577 C 0.89913 0.90448 0.71244 0.0
C578 C 0.87605 0.8587 0.84593 0.0
C579 C 0.89753 0.85464 0.86343 0.0
C580 C 0.85456 0.85279 0.88549 0.0
C581 C 0.83194 0.85779 0.87049 0.0
C582 C 0.83736 0.88393 0.85362 0.0
C583 C 0.81593 0.88847 0.83944 0.0
C584 C 0.78898 0.86706 0.84243 0.0
C585 C 0.7834 0.84109 0.85977 0.0
C586 C 0.80476 0.83644 0.87394 0.0
C587 C 0.90169 0.85538 0.11672 0.0
C588 C 0.87907 0.83493 0.14705 0.0
C589 C 0.90195 0.85602 0.05556 0.0
C590 C 0.87965 0.83616 0.02367 0.0
C591 C 0.85794 0.81457 0.05373 0.0
C592 C 0.85773 0.81384 0.11505 0.0
C593 C 0.87738 0.84042 0.96031 0.0
C594 C 0.85536 0.84343 0.94197 0.0
C595 C 0.89843 0.84544 0.92017 0.0
C596 C 0.92135 0.84103 0.93633 0.0
C597 C 0.9162 0.8162 0.96155 0.0
C598 C 0.93783 0.81214 0.97681 0.0
C599 C 0.96471 0.8327 0.96683 0.0
C600 C 0.97003 0.85736 0.94148 0.0
C601 C 0.94848 0.86154 0.92616 0.0
H602 H 0.98142 0.82951 0.97866 0.0
H603 H 0.77242 0.87062 0.83147 0.0
H604 H 0.28955 0.9755 0.47951 0.0
H605 H 0.28706 0.97807 0.3732 0.0
H606 H 0.28636 0.90186 0.35627 0.0
H607 H 0.28816 0.89875 0.46312 0.0
H608 H 0.31143 0.97764 0.27388 0.0
H609 H 0.23521 0.8618 0.26445 0.0
H610 H 0.20419 0.82467 0.331 0.0
H611 H 0.19655 0.88241 0.43953 0.0
H612 H 0.22722 0.91975 0.37332 0.0
H613 H 0.27325 0.94787 0.97805 0.0
H614 H 0.28863 0.94725 0.07691 0.0
H615 H 0.20896 0.92549 0.14386 0.0
H616 H 0.19251 0.92303 0.04352 0.0
H617 H 0.22578 0.89849 0.20093 0.0
H618 H 0.26669 0.99258 0.14775 0.0
H619 H 0.29345 0.0331 0.08575 0.0
H620 H 0.36474 0.02586 0.11068 0.0
H621 H 0.33823 0.98495 0.17206 0.0
C622 C 0.28953 0.95958 0.45318 0.0
C623 C 0.28827 0.93653 0.47967 0.0
C624 C 0.28828 0.96118 0.39234 0.0
C625 C 0.28584 0.93982 0.3571 0.0
C626 C 0.28773 0.91831 0.38299 0.0
C627 C 0.28885 0.91661 0.44401 0.0
C628 C 0.27731 0.93824 0.29521 0.0
C629 C 0.29289 0.96025 0.25755 0.0
C630 C 0.25255 0.91599 0.27483 0.0
C631 C 0.23374 0.89356 0.3143 0.0
C632 C 0.22683 0.86652 0.30243 0.0
C633 C 0.20933 0.84545 0.3401 0.0
C634 C 0.19847 0.85119 0.38953 0.0
C635 C 0.20503 0.878 0.40134 0.0
C636 C 0.22248 0.89911 0.36379 0.0
C637 C 0.25857 0.94176 0.01322 0.0
C638 C 0.23124 0.93425 0.00247 0.0
C639 C 0.26768 0.9422 0.07023 0.0
C640 C 0.25007 0.93658 0.11807 0.0
C641 C 0.22291 0.92972 0.10764 0.0
C642 C 0.21358 0.92852 0.05035 0.0
C643 C 0.25996 0.93789 0.17895 0.0
C644 C 0.24456 0.91579 0.21662 0.0
C645 C 0.28428 0.96064 0.19999 0.0
C646 C 0.3004 0.98555 0.16404 0.0
C647 C 0.28804 -0.00046 0.13975 0.0
C648 C 0.30317 0.02259 0.10471 0.0
C649 C 0.33078 0.03204 0.09415 0.0
C650 C 0.34334 0.0185 0.11882 0.0
C651 C 0.32827 0.99539 0.15377 0.0
H652 H 0.34248 0.04985 0.06694 0.0
H653 H 0.1849 0.83488 0.41859 0.0
H654 H 0.57824 0.38997 0.17518 0.0
H655 H 0.57218 0.4265 0.21648 0.0
H656 H 0.51649 0.41601 0.0761 0.0
H657 H 0.52316 0.37988 0.03399 0.0
H658 H 0.54816 0.46925 0.10517 0.0
H659 H 0.4933 0.38417 0.20722 0.0
H660 H 0.48615 0.34347 0.26177 0.0
H661 H 0.53909 0.39434 0.39891 0.0
H662 H 0.54708 0.43542 0.34455 0.0
H663 H 0.48233 0.53217 0.2428 0.0
H664 H 0.4913 0.49881 0.19541 0.0
H665 H 0.54047 0.50205 0.3435 0.0
H666 H 0.53043 0.53444 0.39229 0.0
H667 H 0.51248 0.4526 0.30903 0.0
H668 H 0.56744 0.53786 0.20822 0.0
H669 H 0.57683 0.57884 0.15171 0.0
H670 H 0.52542 0.52854 0.01207 0.0
H671 H 0.51534 0.48722 0.06816 0.0
C672 C 0.56517 0.39594 0.15269 0.0
C673 C 0.55101 0.38225 0.10185 0.0
C674 C 0.56162 0.41664 0.17632 0.0
C675 C 0.54343 0.42351 0.15001 0.0
C676 C 0.53052 0.4109 0.09716 0.0
C677 C 0.53432 0.39036 0.07316 0.0
C678 C 0.53638 0.44237 0.17977 0.0
C679 C 0.54008 0.46554 0.14951 0.0
C680 C 0.52632 0.43764 0.23803 0.0
C681 C 0.52097 0.4129 0.27152 0.0
C682 C 0.50355 0.3867 0.24884 0.0
C683 C 0.49938 0.36356 0.2797 0.0
C684 C 0.5123 0.36633 0.3336 0.0
C685 C 0.52926 0.39224 0.35697 0.0
C686 C 0.53359 0.41547 0.32618 0.0
C687 C 0.49483 0.52554 0.26547 0.0
C688 C 0.5058 0.53597 0.3211 0.0
C689 C 0.50015 0.50666 0.23812 0.0
C690 C 0.51719 0.49847 0.26513 0.0
C691 C 0.5274 0.50819 0.3216 0.0
C692 C 0.52161 0.52665 0.34952 0.0
C693 C 0.52444 0.47982 0.23469 0.0
C694 C 0.52064 0.45651 0.26476 0.0
C695 C 0.53453 0.48453 0.1763 0.0
C696 C 0.54041 0.50942 0.14273 0.0
C697 C 0.55794 0.53552 0.16571 0.0
C698 C 0.56341 0.55882 0.1337 0.0
C699 C 0.55167 0.5563 0.0784 0.0
C700 C 0.53445 0.53046 0.05496 0.0
C701 C 0.52886 0.5071 0.08684 0.0
H702 H 0.55597 0.57435 0.05363 0.0
H703 H 0.50911 0.34839 0.35736 0.0
H704 H 0.41015 0.62287 0.40129 0.0
H705 H 0.36482 0.61461 0.42819 0.0
H706 H 0.35039 0.54333 0.5266 0.0
H707 H 0.39436 0.54998 0.4945 0.0
H708 H 0.30622 0.53226 0.48075 0.0
H709 H 0.37209 0.61015 0.58981 0.0
H710 H 0.41201 0.656 0.60382 0.0
H711 H 0.37319 0.69104 0.50253 0.0
H712 H 0.33316 0.64534 0.48732 0.0
H713 H 0.21647 0.53824 0.7008 0.0
H714 H 0.25744 0.54341 0.65214 0.0
H715 H 0.24098 0.579 0.50136 0.0
H716 H 0.19958 0.57321 0.54875 0.0
H717 H 0.29862 0.60847 0.56755 0.0
H718 H 0.23052 0.5266 0.46704 0.0
H719 H 0.1911 0.47986 0.46533 0.0
H720 H 0.2359 0.45158 0.56727 0.0
H721 H 0.27545 0.49828 0.57035 0.0
C722 C 0.39703 0.60518 0.42772 0.0
C723 C 0.40591 0.58732 0.44667 0.0
C724 C 0.37129 0.60067 0.44383 0.0
C725 C 0.3544 0.57878 0.48095 0.0
C726 C 0.36303 0.5605 0.49836 0.0
C727 C 0.38835 0.56453 0.48073 0.0
C728 C 0.32802 0.57507 0.50284 0.0
C729 C 0.30474 0.54897 0.50005 0.0
C730 C 0.32578 0.59682 0.52767 0.0
C731 C 0.34978 0.62431 0.53691 0.0
C732 C 0.37216 0.62763 0.57022 0.0
C733 C 0.39478 0.65358 0.57841 0.0
C734 C 0.39517 0.67641 0.55394 0.0
C735 C 0.37288 0.67334 0.52137 0.0
C736 C 0.35022 0.64742 0.51298 0.0
C737 C 0.22149 0.54698 0.65713 0.0
C738 C 0.20486 0.55529 0.62851 0.0
C739 C 0.24479 0.54986 0.62945 0.0
C740 C 0.25201 0.56151 0.57334 0.0
C741 C 0.23554 0.56988 0.54466 0.0
C742 C 0.21193 0.56646 0.57171 0.0
C743 C 0.27737 0.56585 0.54563 0.0
C744 C 0.30032 0.59199 0.54762 0.0
C745 C 0.2795 0.54406 0.52164 0.0
C746 C 0.25581 0.51598 0.51947 0.0
C747 C 0.23186 0.51048 0.48961 0.0
C748 C 0.20952 0.48398 0.48827 0.0
C749 C 0.21096 0.46278 0.51632 0.0
C750 C 0.23479 0.46803 0.54563 0.0
C751 C 0.25718 0.4945 0.54715 0.0
H752 H 0.19365 0.44227 0.51523 0.0
H753 H 0.41271 0.69649 0.56033 0.0
H754 H 0.91394 0.27819 0.05172 0.0
H755 H 0.94855 0.31996 0.00378 0.0
H756 H 0.91098 0.28808 0.83567 0.0
H757 H 0.87687 0.24616 0.88272 0.0
H758 H 0.96369 0.31249 0.82447 0.0
H759 H 0.90027 0.3345 0.91021 0.0
H760 H 0.87248 0.33803 0.98922 0.0
H761 H 0.94514 0.392 0.08478 0.0
H762 H 0.97338 0.38845 0.0067 0.0
H763 H 0.02412 0.46862 0.75461 0.0
H764 H 0.98702 0.42446 0.78939 0.0
H765 H 0.04496 0.3973 0.8195 0.0
H766 H 0.08167 0.44091 0.78267 0.0
H767 H 0.9791 0.40215 0.8935 0.0
H768 H 0.01549 0.32952 0.80359 0.0
H769 H 0.03934 0.32555 0.71687 0.0
H770 H 0.01351 0.37239 0.61483 0.0
H771 H 0.9892 0.37631 0.70065 0.0
C772 C 0.91316 0.28 0.00451 0.0
C773 C 0.89255 0.25887 0.97114 0.0
C774 C 0.93287 0.30393 0.97721 0.0
C775 C 0.93209 0.30729 0.91624 0.0
C776 C 0.91197 0.28595 0.88275 0.0
C777 C 0.89243 0.26199 0.90985 0.0
C778 C 0.95193 0.33315 0.88721 0.0
C779 C 0.96709 0.3321 0.83959 0.0
C780 C 0.95581 0.35868 0.90591 0.0
C781 C 0.93892 0.36098 0.95286 0.0
C782 C 0.91032 0.34696 0.94828 0.0
C783 C 0.89448 0.34898 0.99287 0.0
C784 C 0.90703 0.36518 0.04206 0.0
C785 C 0.93545 0.37943 0.04669 0.0
C786 C 0.95138 0.37743 0.00226 0.0
C787 C 0.02869 0.45294 0.76778 0.0
C788 C 0.05557 0.45797 0.76642 0.0
C789 C 0.00762 0.42789 0.78797 0.0
C790 C 0.0132 0.40754 0.80682 0.0
C791 C 0.04008 0.41251 0.8044 0.0
C792 C 0.06104 0.43743 0.78381 0.0
C793 C 0.9912 0.38153 0.83137 0.0
C794 C 0.97567 0.38255 0.87827 0.0
C795 C 0.98641 0.35592 0.81087 0.0
C796 C 0.00073 0.35341 0.75877 0.0
C797 C 0.0148 0.33887 0.76258 0.0
C798 C 0.02842 0.33665 0.71359 0.0
C799 C 0.02801 0.34878 0.66043 0.0
C800 C 0.0139 0.36309 0.65609 0.0
C801 C 0.00023 0.36534 0.70492 0.0
H802 H 0.03858 0.34706 0.62256 0.0
H803 H 0.89473 0.36673 0.07654 0.0
H804 H 0.8009 0.07612 0.08368 0.0
H805 H 0.80975 0.04021 0.11856 0.0
H806 H 0.89369 0.10078 0.15214 0.0
H807 H 0.88503 0.13638 0.11533 0.0
H808 H 0.89109 0.05608 0.11171 0.0
H809 H 0.84596 0.07837 0.26144 0.0
H810 H 0.80944 0.08501 0.30261 0.0
H811 H 0.75105 0.00074 0.27138 0.0
H812 H 0.78718 0.9937 0.22919 0.0
H813 H 0.87964 0.966 0.38363 0.0
H814 H 0.87455 0.00216 0.33729 0.0
H815 H 0.86898 0.96619 0.16736 0.0
H816 H 0.87463 0.93038 0.21296 0.0
H817 H 0.83363 -0.00028 0.27754 0.0
H818 H 0.89523 0.01549 0.06298 0.0
H819 H 0.93527 0.01294 0.02916 0.0
H820 H 0.96724 0.02805 0.20464 0.0
H821 H 0.9276 0.03106 0.23933 0.0
C822 C 0.8213 0.08153 0.09753 0.0
C823 C 0.84223 0.10885 0.09786 0.0
C824 C 0.82631 0.06114 0.11773 0.0
C825 C 0.85226 0.06792 0.13905 0.0
C826 C 0.87351 0.0951 0.13619 0.0
C827 C 0.86854 0.11539 0.11557 0.0
C828 C 0.85696 0.04714 0.1677 0.0
C829 C 0.87845 0.04364 0.14775 0.0
C830 C 0.84093 0.03146 0.21578 0.0
C831 C 0.81922 0.03557 0.24166 0.0
C832 C 0.8253 0.0613 0.26301 0.0
C833 C 0.80467 0.06513 0.28656 0.0
C834 C 0.77793 0.04333 0.28949 0.0
C835 C 0.77177 0.01762 0.26901 0.0
C836 C 0.79231 0.01369 0.24531 0.0
C837 C 0.87755 0.9659 0.33635 0.0
C838 C 0.8776 0.94531 0.30203 0.0
C839 C 0.87454 0.98652 0.30997 0.0
C840 C 0.87157 0.98698 0.24886 0.0
C841 C 0.87169 0.96651 0.21449 0.0
C842 C 0.87484 0.94598 0.24074 0.0
C843 C 0.86759 0.00842 0.22115 0.0
C844 C 0.8462 0.01203 0.24127 0.0
C845 C 0.88422 0.02474 0.17436 0.0
C846 C 0.90828 0.0232 0.15381 0.0
C847 C 0.91085 0.01835 0.09429 0.0
C848 C 0.93347 0.01682 0.07498 0.0
C849 C 0.95374 0.02023 0.11476 0.0
C850 C 0.95147 0.02529 0.17391 0.0
C851 C 0.92891 0.02688 0.19343 0.0
H852 H 0.97123 0.01902 0.09973 0.0
H853 H 0.76198 0.04633 0.30773 0.0
H854 H 0.1562 0.93693 0.70422 0.0
H855 H 0.11529 0.92959 0.6524 0.0
H856 H 0.14943 0.9226 0.48853 0.0
H857 H 0.19062 0.93043 0.53963 0.0
H858 H 0.12313 0.95017 0.47312 0.0
H859 H 0.10404 0.8659 0.56086 0.0
H860 H 0.10176 0.83548 0.64094 0.0
H861 H 0.046 0.85199 0.73529 0.0
H862 H 0.04826 0.88285 0.65612 0.0
H863 H 0.96625 0.85126 0.4109 0.0
H864 H 0.01152 0.85949 0.44017 0.0
H865 H 0.03738 0.94417 0.47158 0.0
H866 H 0.99256 0.93607 0.44053 0.0
H867 H 0.03459 0.87415 0.54333 0.0
H868 H 0.10508 0.98375 0.4521 0.0
H869 H 0.10783 0.01125 0.36555 0.0
H870 H 0.06119 0.93825 0.26481 0.0
H871 H 0.05848 0.91033 0.35044 0.0
C872 C 0.15517 0.93415 0.65707 0.0
C873 C 0.1766 0.93403 0.6262 0.0
C874 C 0.13172 0.92984 0.62756 0.0
C875 C 0.12915 0.92505 0.5668 0.0
C876 C 0.15097 0.92615 0.53546 0.0
C877 C 0.17448 0.93059 0.56485 0.0
C878 C 0.10325 0.91779 0.53643 0.0
C879 C 0.10375 0.93356 0.48838 0.0
C880 C 0.0781 0.89557 0.55525 0.0
C881 C 0.0765 0.87686 0.60277 0.0
C882 C 0.09144 0.86319 0.59887 0.0
C883 C 0.09013 0.84585 0.64407 0.0
C884 C 0.07379 0.84185 0.69323 0.0
C885 C 0.05867 0.85513 0.69721 0.0
C886 C 0.05993 0.87253 0.65216 0.0
C887 C 0.98187 0.87167 0.4231 0.0
C888 C 0.9761 0.89302 0.42403 0.0
C889 C 0.00758 0.87634 0.44004 0.0
C890 C 0.02788 0.90247 0.45783 0.0
C891 C 0.02222 0.92395 0.45721 0.0
C892 C 0.9966 0.91929 0.44 0.0
C893 C 0.0543 0.907 0.4809 0.0
C894 C 0.05393 0.89069 0.52772 0.0
C895 C 0.0796 0.92829 0.45992 0.0
C896 C 0.0814 0.94494 0.40792 0.0
C897 C 0.09552 0.97357 0.41141 0.0
C898 C 0.09705 0.98923 0.36251 0.0
C899 C 0.08463 0.9765 0.30977 0.0
C900 C 0.07072 0.94808 0.30575 0.0
C901 C 0.06915 0.93233 0.35449 0.0
H902 H 0.08582 0.98867 0.27198 0.0
H903 H 0.07281 0.82842 0.72818 0.0
H904 H 0.32884 0.01033 0.85894 0.0
H905 H 0.3643 0.05525 0.89277 0.0
H906 H 0.36628 0.08901 0.7217 0.0
H907 H 0.33038 0.04411 0.68798 0.0
H908 H 0.41846 0.10808 0.772 0.0
H909 H 0.33121 0.09629 0.82352 0.0
H910 H 0.2853 0.0726 0.86749 0.0
H911 H 0.3203 0.07957 0.03826 0.0
H912 H 0.36638 0.10228 0.99509 0.0
H913 H 0.49349 0.245 0.87418 0.0
H914 H 0.45849 0.20315 0.82766 0.0
H915 H 0.43965 0.16206 0.99532 0.0
H916 H 0.47402 0.20388 0.04229 0.0
H917 H 0.39467 0.14842 0.93902 0.0
H918 H 0.48026 0.15433 0.88966 0.0
H919 H 0.52665 0.1751 0.84823 0.0
H920 H 0.4957 0.17844 0.67815 0.0
H921 H 0.44914 0.15794 0.71875 0.0
C922 C 0.33699 0.02733 0.82853 0.0
C923 C 0.32688 0.0239 0.77105 0.0
C924 C 0.35721 0.0529 0.8478 0.0
C925 C 0.3676 0.07544 0.80986 0.0
C926 C 0.35846 0.07182 0.75154 0.0
C927 C 0.33809 0.04621 0.73231 0.0
C928 C 0.38697 0.10296 0.83224 0.0
C929 C 0.4132 0.11716 0.80791 0.0
C930 C 0.38008 0.11444 0.87975 0.0
C931 C 0.3523 0.10077 0.90588 0.0
C932 C 0.32913 0.09245 0.87034 0.0
C933 C 0.30305 0.07914 0.89514 0.0
C934 C 0.29987 0.0744 0.95559 0.0
C935 C 0.32277 0.08302 0.99138 0.0
C936 C 0.34888 0.09607 0.96675 0.0
C937 C 0.48176 0.22709 0.9012 0.0
C938 C 0.48664 0.22773 0.96192 0.0
C939 C 0.46187 0.20315 0.87447 0.0
C940 C 0.44675 0.17934 0.90785 0.0
C941 C 0.45109 0.18017 0.96867 0.0
C942 C 0.47077 0.20412 0.99548 0.0
C943 C 0.42651 0.15339 0.87983 0.0
C944 C 0.39997 0.1395 0.90288 0.0
C945 C 0.43322 0.14208 0.83162 0.0
C946 C 0.46126 0.15481 0.80735 0.0
C947 C 0.48338 0.15968 0.84353 0.0
C948 C 0.50969 0.17132 0.82015 0.0
C949 C 0.5141 0.17798 0.76055 0.0
C950 C 0.49222 0.17313 0.72425 0.0
C951 C 0.46588 0.16153 0.74742 0.0
H952 H 0.53448 0.18703 0.74256 0.0
H953 H 0.27967 0.06417 0.97475 0.0
loop_
_geom_bond_atom_site_label_1
_geom_bond_atom_site_label_2
_geom_bond_distance
_geom_bond_site_symmetry_2
_ccdc_geom_bond_type
Co0 O3 1.970 . S
Co0 N17 1.989 1_556 S
Co0 O25 1.967 . S
Co0 O32 1.920 . S
Co1 O4 1.966 . S
Co1 N10 2.022 . S
Co1 N18 1.993 . S
Co1 O26 1.941 . S
C2 O3 1.258 1_554 S
C2 O4 1.263 . S
O3 Co0 1.970 . S
O3 C2 1.258 1_556 S
O4 Co1 1.966 . S
O4 C2 1.263 . S
C5 O6 1.235 . S
C5 O32 1.289 . S
O6 C5 1.235 . S
C7 C9 1.400 . S
C7 N10 1.351 . S
C7 C12 1.501 . S
C8 C9 1.387 . S
C8 N11 1.341 . S
C9 C7 1.400 . S
C9 C8 1.387 . S
N10 Co1 2.022 . S
N10 C7 1.351 . S
N10 N11 1.365 . S
N11 C8 1.341 . S
N11 N10 1.365 . S
N11 H31 0.862 . S
C12 C7 1.501 . S
C12 H13 0.961 . S
C12 H14 0.961 . S
C12 H15 0.960 . S
H13 C12 0.961 . S
H14 C12 0.961 . S
H15 C12 0.960 . S
C16 N17 1.342 . S
C16 C20 1.401 . S
C16 C21 1.499 1_554 S
N17 Co0 1.989 1_554 S
N17 C16 1.342 . S
N17 N18 1.388 . S
N18 Co1 1.993 . S
N18 N17 1.388 . S
N18 C19 1.346 . S
C19 N18 1.346 . S
C19 C20 1.396 . S
C19 C29 1.510 . S
C20 C16 1.401 . S
C20 C19 1.396 . S
C21 C16 1.499 1_556 S
C21 H22 0.959 . S
C21 H23 0.960 . S
C21 H24 0.961 . S
H22 C21 0.959 . S
H23 C21 0.960 . S
H24 C21 0.961 . S
O25 Co0 1.967 . S
O25 C33 1.258 1_556 S
O26 Co1 1.941 . S
O26 C33 1.266 . S
H27 C29 0.959 . S
H28 C29 0.961 . S
C29 C19 1.510 . S
C29 H27 0.959 . S
C29 H28 0.961 . S
C29 H30 0.960 . S
H30 C29 0.960 . S
H31 N11 0.862 . S
O32 Co0 1.920 . S
O32 C5 1.289 . S
C33 O25 1.258 1_554 S
C33 O26 1.266 . S
Co34 O37 1.970 . S
Co34 N51 1.989 . S
Co34 O59 1.967 . S
Co34 O66 1.920 . S
Co35 O38 1.966 . S
Co35 N44 2.022 . S
Co35 N52 1.993 . S
Co35 O60 1.941 . S
C36 O37 1.258 . S
C36 O38 1.263 . S
O37 Co34 1.970 . S
O37 C36 1.258 . S
O38 Co35 1.966 . S
O38 C36 1.263 . S
C39 O40 1.235 . S
C39 O66 1.289 . S
O40 C39 1.235 . S
C41 C43 1.400 . S
C41 N44 1.351 . S
C41 C46 1.501 . S
C42 C43 1.387 . S
C42 N45 1.341 . S
C43 C41 1.400 . S
C43 C42 1.387 . S
N44 Co35 2.022 . S
N44 C41 1.351 . S
N44 N45 1.365 . S
N45 C42 1.341 . S
N45 N44 1.365 . S
N45 H65 0.862 . S
C46 C41 1.501 . S
C46 H47 0.961 . S
C46 H48 0.961 . S
C46 H49 0.960 . S
H47 C46 0.961 . S
H48 C46 0.961 . S
H49 C46 0.960 . S
C50 N51 1.342 . S
C50 C54 1.401 . S
C50 C55 1.499 . S
N51 Co34 1.989 . S
N51 C50 1.342 . S
N51 N52 1.388 . S
N52 Co35 1.993 . S
N52 N51 1.388 . S
N52 C53 1.346 . S
C53 N52 1.346 . S
C53 C54 1.396 . S
C53 C63 1.510 . S
C54 C50 1.401 . S
C54 C53 1.396 . S
C55 C50 1.499 . S
C55 H56 0.959 . S
C55 H57 0.960 . S
C55 H58 0.961 . S
H56 C55 0.959 . S
H57 C55 0.960 . S
H58 C55 0.961 . S
O59 Co34 1.967 . S
O59 C67 1.258 . S
O60 Co35 1.941 . S
O60 C67 1.266 . S
H61 C63 0.959 . S
H62 C63 0.961 . S
C63 C53 1.510 . S
C63 H61 0.959 . S
C63 H62 0.961 . S
C63 H64 0.960 . S
H64 C63 0.960 . S
H65 N45 0.862 . S
O66 Co34 1.920 . S
O66 C39 1.289 . S
C67 O59 1.258 . S
C67 O60 1.266 . S
Co68 O71 1.970 . S
Co68 N85 1.989 . S
Co68 O93 1.967 . S
Co68 O100 1.920 . S
Co69 O72 1.966 . S
Co69 N78 2.022 . S
Co69 N86 1.993 . S
Co69 O94 1.941 . S
C70 O71 1.258 . S
C70 O72 1.263 . S
O71 Co68 1.970 . S
O71 C70 1.258 . S
O72 Co69 1.966 . S
O72 C70 1.263 . S
C73 O74 1.235 . S
C73 O100 1.289 . S
O74 C73 1.235 . S
C75 C77 1.400 . S
C75 N78 1.351 . S
C75 C80 1.501 . S
C76 C77 1.387 . S
C76 N79 1.341 . S
C77 C75 1.400 . S
C77 C76 1.387 . S
N78 Co69 2.022 . S
N78 C75 1.351 . S
N78 N79 1.365 . S
N79 C76 1.341 . S
N79 N78 1.365 . S
N79 H99 0.862 . S
C80 C75 1.501 . S
C80 H81 0.961 . S
C80 H82 0.961 . S
C80 H83 0.960 . S
H81 C80 0.961 . S
H82 C80 0.961 . S
H83 C80 0.960 . S
C84 N85 1.342 . S
C84 C88 1.401 . S
C84 C89 1.499 . S
N85 Co68 1.989 . S
N85 C84 1.342 . S
N85 N86 1.388 . S
N86 Co69 1.993 . S
N86 N85 1.388 . S
N86 C87 1.346 . S
C87 N86 1.346 . S
C87 C88 1.396 . S
C87 C97 1.510 . S
C88 C84 1.401 . S
C88 C87 1.396 . S
C89 C84 1.499 . S
C89 H90 0.959 . S
C89 H91 0.960 . S
C89 H92 0.961 . S
H90 C89 0.959 . S
H91 C89 0.960 . S
H92 C89 0.961 . S
O93 Co68 1.967 . S
O93 C101 1.258 . S
O94 Co69 1.941 . S
O94 C101 1.266 . S
H95 C97 0.959 . S
H96 C97 0.961 . S
C97 C87 1.510 . S
C97 H95 0.959 . S
C97 H96 0.961 . S
C97 H98 0.960 . S
H98 C97 0.960 . S
H99 N79 0.862 . S
O100 Co68 1.920 . S
O100 C73 1.289 . S
C101 O93 1.258 . S
C101 O94 1.266 . S
Co102 O105 1.970 . S
Co102 N119 1.989 1_556 S
Co102 O127 1.967 . S
Co102 O134 1.920 . S
Co103 O106 1.966 . S
Co103 N112 2.022 . S
Co103 N120 1.993 . S
Co103 O128 1.941 . S
C104 O105 1.258 1_554 S
C104 O106 1.263 . S
O105 Co102 1.970 . S
O105 C104 1.258 1_556 S
O106 Co103 1.966 . S
O106 C104 1.263 . S
C107 O108 1.235 . S
C107 O134 1.289 . S
O108 C107 1.235 . S
C109 C111 1.400 . S
C109 N112 1.351 . S
C109 C114 1.501 . S
C110 C111 1.387 . S
C110 N113 1.341 . S
C111 C109 1.400 . S
C111 C110 1.387 . S
N112 Co103 2.022 . S
N112 C109 1.351 . S
N112 N113 1.365 . S
N113 C110 1.341 . S
N113 N112 1.365 . S
N113 H133 0.862 . S
C114 C109 1.501 . S
C114 H115 0.961 . S
C114 H116 0.961 . S
C114 H117 0.960 . S
H115 C114 0.961 . S
H116 C114 0.961 . S
H117 C114 0.960 . S
C118 N119 1.342 . S
C118 C122 1.401 . S
C118 C123 1.499 1_554 S
N119 Co102 1.989 1_554 S
N119 C118 1.342 . S
N119 N120 1.388 . S
N120 Co103 1.993 . S
N120 N119 1.388 . S
N120 C121 1.346 . S
C121 N120 1.346 . S
C121 C122 1.396 . S
C121 C131 1.510 . S
C122 C118 1.401 . S
C122 C121 1.396 . S
C123 C118 1.499 1_556 S
C123 H124 0.959 . S
C123 H125 0.960 . S
C123 H126 0.961 . S
H124 C123 0.959 . S
H125 C123 0.960 . S
H126 C123 0.961 . S
O127 Co102 1.967 . S
O127 C135 1.258 1_556 S
O128 Co103 1.941 . S
O128 C135 1.266 . S
H129 C131 0.959 . S
H130 C131 0.961 . S
C131 C121 1.510 . S
C131 H129 0.959 . S
C131 H130 0.961 . S
C131 H132 0.960 . S
H132 C131 0.960 . S
H133 N113 0.862 . S
O134 Co102 1.920 . S
O134 C107 1.289 . S
C135 O127 1.258 1_554 S
C135 O128 1.266 . S
Co136 O139 1.970 . S
Co136 N153 1.989 . S
Co136 O161 1.967 . S
Co136 O168 1.920 . S
Co137 O140 1.966 . S
Co137 N146 2.022 . S
Co137 N154 1.993 . S
Co137 O162 1.941 . S
C138 O139 1.258 . S
C138 O140 1.263 . S
O139 Co136 1.970 . S
O139 C138 1.258 . S
O140 Co137 1.966 . S
O140 C138 1.263 . S
C141 O142 1.235 . S
C141 O168 1.289 . S
O142 C141 1.235 . S
C143 C145 1.400 . S
C143 N146 1.351 . S
C143 C148 1.501 . S
C144 C145 1.387 . S
C144 N147 1.341 . S
C145 C143 1.400 . S
C145 C144 1.387 . S
N146 Co137 2.022 . S
N146 C143 1.351 . S
N146 N147 1.365 . S
N147 C144 1.341 . S
N147 N146 1.365 . S
N147 H167 0.862 . S
C148 C143 1.501 . S
C148 H149 0.961 . S
C148 H150 0.961 . S
C148 H151 0.960 . S
H149 C148 0.961 . S
H150 C148 0.961 . S
H151 C148 0.960 . S
C152 N153 1.342 . S
C152 C156 1.401 . S
C152 C157 1.499 . S
N153 Co136 1.989 . S
N153 C152 1.342 . S
N153 N154 1.388 . S
N154 Co137 1.993 . S
N154 N153 1.388 . S
N154 C155 1.346 . S
C155 N154 1.346 . S
C155 C156 1.396 . S
C155 C165 1.510 . S
C156 C152 1.401 . S
C156 C155 1.396 . S
C157 C152 1.499 . S
C157 H158 0.959 . S
C157 H159 0.960 . S
C157 H160 0.961 . S
H158 C157 0.959 . S
H159 C157 0.960 . S
H160 C157 0.961 . S
O161 Co136 1.967 . S
O161 C169 1.258 . S
O162 Co137 1.941 . S
O162 C169 1.266 . S
H163 C165 0.959 . S
H164 C165 0.961 . S
C165 C155 1.510 . S
C165 H163 0.959 . S
C165 H164 0.961 . S
C165 H166 0.960 . S
H166 C165 0.960 . S
H167 N147 0.862 . S
O168 Co136 1.920 . S
O168 C141 1.289 . S
C169 O161 1.258 . S
C169 O162 1.266 . S
Co170 O173 1.970 . S
Co170 N187 1.989 . S
Co170 O195 1.967 . S
Co170 O202 1.920 . S
Co171 O174 1.966 . S
Co171 N180 2.022 . S
Co171 N188 1.993 . S
Co171 O196 1.941 . S
C172 O173 1.258 . S
C172 O174 1.263 . S
O173 Co170 1.970 . S
O173 C172 1.258 . S
O174 Co171 1.966 . S
O174 C172 1.263 . S
C175 O176 1.235 . S
C175 O202 1.289 . S
O176 C175 1.235 . S
C177 C179 1.400 . S
C177 N180 1.351 . S
C177 C182 1.501 . S
C178 C179 1.387 . S
C178 N181 1.341 . S
C179 C177 1.400 . S
C179 C178 1.387 . S
N180 Co171 2.022 . S
N180 C177 1.351 . S
N180 N181 1.365 . S
N181 C178 1.341 . S
N181 N180 1.365 . S
N181 H201 0.862 . S
C182 C177 1.501 . S
C182 H183 0.961 . S
C182 H184 0.961 . S
C182 H185 0.960 . S
H183 C182 0.961 . S
H184 C182 0.961 . S
H185 C182 0.960 . S
C186 N187 1.342 . S
C186 C190 1.401 1_565 S
C186 C191 1.499 1_565 S
N187 Co170 1.989 . S
N187 C186 1.342 . S
N187 N188 1.388 . S
N188 Co171 1.993 . S
N188 N187 1.388 . S
N188 C189 1.346 . S
C189 N188 1.346 . S
C189 C190 1.396 1_565 S
C189 C199 1.510 . S
C190 C186 1.401 1_545 S
C190 C189 1.396 1_545 S
C191 C186 1.499 1_545 S
C191 H192 0.959 1_545 S
C191 H193 0.960 . S
C191 H194 0.961 . S
H192 C191 0.959 1_565 S
H193 C191 0.960 . S
H194 C191 0.961 . S
O195 Co170 1.967 . S
O195 C203 1.258 . S
O196 Co171 1.941 . S
O196 C203 1.266 . S
H197 C199 0.959 1_545 S
H198 C199 0.961 . S
C199 C189 1.510 . S
C199 H197 0.959 1_565 S
C199 H198 0.961 . S
C199 H200 0.960 . S
H200 C199 0.960 . S
H201 N181 0.862 . S
O202 Co170 1.920 . S
O202 C175 1.289 . S
C203 O195 1.258 . S
C203 O196 1.266 . S
H204 C222 0.951 . S
H205 C224 0.951 . S
H206 C226 0.950 . S
H207 C227 0.950 . S
H208 C229 0.950 . S
H209 C232 0.950 . S
H210 C233 0.950 . S
H211 C235 0.950 . S
H212 C236 0.950 . S
H213 C237 0.951 . S
H214 C239 0.951 . S
H215 C241 0.950 . S
H216 C242 0.950 . S
H217 C244 0.950 . S
H218 C247 0.950 . S
H219 C248 0.950 . S
H220 C250 0.950 . S
H221 C251 0.945 1_554 S
C222 H204 0.951 . S
C222 C223 1.366 . S
C222 C224 1.388 . S
C223 C222 1.366 . S
C223 C227 1.385 . S
C224 H205 0.951 . S
C224 C222 1.388 . S
C224 C225 1.366 . S
C225 C224 1.366 . S
C225 C226 1.414 . S
C225 C228 1.499 . S
C226 H206 0.950 . S
C226 C225 1.414 . S
C226 C227 1.374 . S
C227 H207 0.950 . S
C227 C223 1.385 . S
C227 C226 1.374 . S
C228 C225 1.499 . S
C228 C229 1.373 . S
C228 C230 1.389 . S
C229 H208 0.950 . S
C229 C228 1.373 . S
C229 C245 1.377 . S
C230 C228 1.389 . S
C230 C231 1.524 . S
C230 C244 1.377 . S
C231 C230 1.524 . S
C231 C232 1.397 . S
C231 C236 1.363 . S
C232 H209 0.950 . S
C232 C231 1.397 . S
C232 C233 1.334 . S
C233 H210 0.950 . S
C233 C232 1.334 . S
C233 C234 1.287 . S
C234 C233 1.287 . S
C234 C235 1.524 . S
C234 H253 0.913 . S
C235 H211 0.950 . S
C235 C234 1.524 . S
C235 C236 1.415 . S
C236 H212 0.950 . S
C236 C231 1.363 . S
C236 C235 1.415 . S
C237 H213 0.951 . S
C237 C238 1.366 . S
C237 C239 1.388 . S
C238 C237 1.366 . S
C238 C242 1.385 . S
C239 H214 0.951 . S
C239 C237 1.388 . S
C239 C240 1.366 . S
C240 C239 1.366 . S
C240 C241 1.414 . S
C240 C243 1.499 . S
C241 H215 0.950 . S
C241 C240 1.414 . S
C241 C242 1.374 . S
C242 H216 0.950 . S
C242 C238 1.385 . S
C242 C241 1.374 . S
C243 C240 1.499 . S
C243 C244 1.373 . S
C243 C245 1.389 . S
C244 H217 0.950 . S
C244 C230 1.377 . S
C244 C243 1.373 . S
C245 C229 1.377 . S
C245 C243 1.389 . S
C245 C246 1.524 1_554 S
C246 C245 1.524 1_556 S
C246 C247 1.397 . S
C246 C251 1.365 . S
C247 H218 0.950 . S
C247 C246 1.397 . S
C247 C248 1.334 . S
C248 H219 0.950 . S
C248 C247 1.334 . S
C248 C249 1.287 . S
C249 C248 1.287 . S
C249 C250 1.524 . S
C249 H252 0.999 . S
C250 H220 0.950 . S
C250 C249 1.524 . S
C250 C251 1.418 . S
C251 H221 0.945 1_556 S
C251 C246 1.365 . S
C251 C250 1.418 . S
H252 C249 0.999 . S
H253 C234 0.913 . S
H254 C272 0.951 . S
H255 C274 0.951 . S
H256 C276 0.950 . S
H257 C277 0.950 . S
H258 C279 0.950 . S
H259 C282 0.950 . S
H260 C283 0.950 . S
H261 C285 0.950 . S
H262 C286 0.950 . S
H263 C287 0.951 . S
H264 C289 0.951 . S
H265 C291 0.950 . S
H266 C292 0.950 . S
H267 C294 0.950 . S
H268 C297 0.950 . S
H269 C298 0.950 . S
H270 C300 0.950 . S
H271 C301 0.950 . S
C272 H254 0.951 . S
C272 C273 1.366 . S
C272 C274 1.388 . S
C273 C272 1.366 . S
C273 C277 1.385 . S
C274 H255 0.951 . S
C274 C272 1.388 . S
C274 C275 1.366 . S
C275 C274 1.366 . S
C275 C276 1.414 . S
C275 C278 1.499 . S
C276 H256 0.950 . S
C276 C275 1.414 . S
C276 C277 1.374 . S
C277 H257 0.950 . S
C277 C273 1.385 . S
C277 C276 1.374 . S
C278 C275 1.499 . S
C278 C279 1.373 . S
C278 C280 1.389 . S
C279 H258 0.950 . S
C279 C278 1.373 . S
C279 C295 1.377 . S
C280 C278 1.389 . S
C280 C281 1.524 . S
C280 C294 1.377 . S
C281 C280 1.524 . S
C281 C282 1.397 . S
C281 C286 1.363 . S
C282 H259 0.950 . S
C282 C281 1.397 . S
C282 C283 1.334 . S
C283 H260 0.950 . S
C283 C282 1.334 . S
C283 C284 1.287 . S
C284 C283 1.287 . S
C284 C285 1.524 . S
C284 H303 0.913 . S
C285 H261 0.950 . S
C285 C284 1.524 . S
C285 C286 1.415 . S
C286 H262 0.950 . S
C286 C281 1.363 . S
C286 C285 1.415 . S
C287 H263 0.951 . S
C287 C288 1.366 . S
C287 C289 1.388 . S
C288 C287 1.366 . S
C288 C292 1.385 . S
C289 H264 0.951 . S
C289 C287 1.388 . S
C289 C290 1.366 . S
C290 C289 1.366 . S
C290 C291 1.414 . S
C290 C293 1.499 . S
C291 H265 0.950 . S
C291 C290 1.414 . S
C291 C292 1.374 . S
C292 H266 0.950 . S
C292 C288 1.385 . S
C292 C291 1.374 . S
C293 C290 1.499 . S
C293 C294 1.373 . S
C293 C295 1.389 . S
C294 H267 0.950 . S
C294 C280 1.377 . S
C294 C293 1.373 . S
C295 C279 1.377 . S
C295 C293 1.389 . S
C295 C296 1.524 . S
C296 C295 1.524 . S
C296 C297 1.397 . S
C296 C301 1.363 . S
C297 H268 0.950 . S
C297 C296 1.397 . S
C297 C298 1.334 . S
C298 H269 0.950 . S
C298 C297 1.334 . S
C298 C299 1.287 . S
C299 C298 1.287 . S
C299 C300 1.524 . S
C299 H302 0.999 . S
C300 H270 0.950 . S
C300 C299 1.524 . S
C300 C301 1.415 . S
C301 H271 0.950 . S
C301 C296 1.363 . S
C301 C300 1.415 . S
H302 C299 0.999 . S
H303 C284 0.913 . S
H304 C322 0.951 . S
H305 C324 0.951 . S
H306 C326 0.950 . S
H307 C327 0.950 . S
H308 C329 0.950 . S
H309 C332 0.950 . S
H310 C333 0.950 . S
H311 C335 0.950 . S
H312 C336 0.950 . S
H313 C337 0.951 . S
H314 C339 0.951 . S
H315 C341 0.950 . S
H316 C342 0.950 . S
H317 C344 0.950 . S
H318 C347 0.950 . S
H319 C348 0.950 . S
H320 C350 0.950 . S
H321 C351 0.950 . S
C322 H304 0.951 . S
C322 C323 1.366 . S
C322 C324 1.388 . S
C323 C322 1.366 . S
C323 C327 1.385 . S
C324 H305 0.951 . S
C324 C322 1.388 . S
C324 C325 1.366 . S
C325 C324 1.366 . S
C325 C326 1.414 . S
C325 C328 1.499 . S
C326 H306 0.950 . S
C326 C325 1.414 . S
C326 C327 1.374 . S
C327 H307 0.950 . S
C327 C323 1.385 . S
C327 C326 1.374 . S
C328 C325 1.499 . S
C328 C329 1.373 . S
C328 C330 1.389 . S
C329 H308 0.950 . S
C329 C328 1.373 . S
C329 C345 1.377 . S
C330 C328 1.389 . S
C330 C331 1.524 . S
C330 C344 1.377 . S
C331 C330 1.524 . S
C331 C332 1.397 . S
C331 C336 1.363 . S
C332 H309 0.950 . S
C332 C331 1.397 . S
C332 C333 1.334 . S
C333 H310 0.950 . S
C333 C332 1.334 . S
C333 C334 1.287 . S
C334 C333 1.287 . S
C334 C335 1.524 . S
C334 H353 0.913 . S
C335 H311 0.950 . S
C335 C334 1.524 . S
C335 C336 1.415 . S
C336 H312 0.950 . S
C336 C331 1.363 . S
C336 C335 1.415 . S
C337 H313 0.951 . S
C337 C338 1.366 . S
C337 C339 1.388 . S
C338 C337 1.366 . S
C338 C342 1.385 . S
C339 H314 0.951 . S
C339 C337 1.388 . S
C339 C340 1.366 . S
C340 C339 1.366 . S
C340 C341 1.414 . S
C340 C343 1.499 . S
C341 H315 0.950 . S
C341 C340 1.414 . S
C341 C342 1.374 . S
C342 H316 0.950 . S
C342 C338 1.385 . S
C342 C341 1.374 . S
C343 C340 1.499 . S
C343 C344 1.373 . S
C343 C345 1.389 . S
C344 H317 0.950 . S
C344 C330 1.377 . S
C344 C343 1.373 . S
C345 C329 1.377 . S
C345 C343 1.389 . S
C345 C346 1.524 . S
C346 C345 1.524 . S
C346 C347 1.397 . S
C346 C351 1.363 . S
C347 H318 0.950 . S
C347 C346 1.397 . S
C347 C348 1.334 . S
C348 H319 0.950 . S
C348 C347 1.334 . S
C348 C349 1.287 . S
C349 C348 1.287 . S
C349 C350 1.524 . S
C349 H352 0.999 . S
C350 H320 0.950 . S
C350 C349 1.524 . S
C350 C351 1.415 . S
C351 H321 0.950 . S
C351 C346 1.363 . S
C351 C350 1.415 . S
H352 C349 0.999 . S
H353 C334 0.913 . S
H354 C372 0.951 . S
H355 C374 0.951 . S
H356 C376 0.950 . S
H357 C377 0.950 . S
H358 C379 0.950 . S
H359 C382 0.950 . S
H360 C383 0.950 . S
H361 C385 0.950 . S
H362 C386 0.950 . S
H363 C387 0.951 . S
H364 C389 0.951 . S
H365 C391 0.950 . S
H366 C392 0.950 . S
H367 C394 0.950 . S
H368 C397 0.950 . S
H369 C398 0.950 . S
H370 C400 0.950 . S
H371 C401 0.950 . S
C372 H354 0.951 . S
C372 C373 1.366 . S
C372 C374 1.388 . S
C373 C372 1.366 . S
C373 C377 1.385 . S
C374 H355 0.951 . S
C374 C372 1.388 . S
C374 C375 1.366 . S
C375 C374 1.366 . S
C375 C376 1.414 . S
C375 C378 1.499 . S
C376 H356 0.950 . S
C376 C375 1.414 . S
C376 C377 1.374 . S
C377 H357 0.950 . S
C377 C373 1.385 . S
C377 C376 1.374 . S
C378 C375 1.499 . S
C378 C379 1.373 . S
C378 C380 1.389 . S
C379 H358 0.950 . S
C379 C378 1.373 . S
C379 C395 1.377 . S
C380 C378 1.389 . S
C380 C381 1.524 . S
C380 C394 1.377 . S
C381 C380 1.524 . S
C381 C382 1.397 . S
C381 C386 1.363 . S
C382 H359 0.950 . S
C382 C381 1.397 . S
C382 C383 1.334 . S
C383 H360 0.950 . S
C383 C382 1.334 . S
C383 C384 1.287 . S
C384 C383 1.287 . S
C384 C385 1.524 . S
C384 H403 0.913 . S
C385 H361 0.950 . S
C385 C384 1.524 . S
C385 C386 1.415 . S
C386 H362 0.950 . S
C386 C381 1.363 . S
C386 C385 1.415 . S
C387 H363 0.951 . S
C387 C388 1.366 . S
C387 C389 1.388 . S
C388 C387 1.366 . S
C388 C392 1.385 . S
C389 H364 0.951 . S
C389 C387 1.388 . S
C389 C390 1.366 . S
C390 C389 1.366 . S
C390 C391 1.414 . S
C390 C393 1.499 . S
C391 H365 0.950 . S
C391 C390 1.414 . S
C391 C392 1.374 . S
C392 H366 0.950 . S
C392 C388 1.385 . S
C392 C391 1.374 . S
C393 C390 1.499 . S
C393 C394 1.373 . S
C393 C395 1.389 . S
C394 H367 0.950 . S
C394 C380 1.377 . S
C394 C393 1.373 . S
C395 C379 1.377 . S
C395 C393 1.389 . S
C395 C396 1.524 . S
C396 C395 1.524 . S
C396 C397 1.397 . S
C396 C401 1.363 . S
C397 H368 0.950 . S
C397 C396 1.397 . S
C397 C398 1.334 . S
C398 H369 0.950 . S
C398 C397 1.334 . S
C398 C399 1.287 . S
C399 C398 1.287 . S
C399 C400 1.524 . S
C399 H402 0.999 . S
C400 H370 0.950 . S
C400 C399 1.524 . S
C400 C401 1.415 . S
C401 H371 0.950 . S
C401 C396 1.363 . S
C401 C400 1.415 . S
H402 C399 0.999 . S
H403 C384 0.913 . S
H404 C422 0.951 . S
H405 C424 0.951 . S
H406 C426 0.950 . S
H407 C427 0.950 . S
H408 C429 0.950 . S
H409 C432 0.950 . S
H410 C433 0.950 . S
H411 C435 0.950 . S
H412 C436 0.950 . S
H413 C437 0.951 . S
H414 C439 0.951 . S
H415 C441 0.950 . S
H416 C442 0.950 . S
H417 C444 0.950 . S
H418 C447 0.950 . S
H419 C448 0.950 . S
H420 C450 0.950 . S
H421 C451 0.950 . S
C422 H404 0.951 . S
C422 C423 1.366 . S
C422 C424 1.388 . S
C423 C422 1.366 . S
C423 C427 1.385 . S
C424 H405 0.951 . S
C424 C422 1.388 . S
C424 C425 1.366 . S
C425 C424 1.366 . S
C425 C426 1.414 . S
C425 C428 1.499 . S
C426 H406 0.950 . S
C426 C425 1.414 . S
C426 C427 1.374 . S
C427 H407 0.950 . S
C427 C423 1.385 . S
C427 C426 1.374 . S
C428 C425 1.499 . S
C428 C429 1.373 . S
C428 C430 1.389 . S
C429 H408 0.950 . S
C429 C428 1.373 . S
C429 C445 1.377 . S
C430 C428 1.389 . S
C430 C431 1.524 . S
C430 C444 1.377 . S
C431 C430 1.524 . S
C431 C432 1.397 . S
C431 C436 1.363 . S
C432 H409 0.950 . S
C432 C431 1.397 . S
C432 C433 1.334 . S
C433 H410 0.950 . S
C433 C432 1.334 . S
C433 C434 1.287 . S
C434 C433 1.287 . S
C434 C435 1.524 . S
C434 H453 0.913 . S
C435 H411 0.950 . S
C435 C434 1.524 . S
C435 C436 1.415 . S
C436 H412 0.950 . S
C436 C431 1.363 . S
C436 C435 1.415 . S
C437 H413 0.951 . S
C437 C438 1.366 . S
C437 C439 1.388 . S
C438 C437 1.366 . S
C438 C442 1.385 . S
C439 H414 0.951 . S
C439 C437 1.388 . S
C439 C440 1.366 . S
C440 C439 1.366 . S
C440 C441 1.414 . S
C440 C443 1.499 1_554 S
C441 H415 0.950 . S
C441 C440 1.414 . S
C441 C442 1.374 . S
C442 H416 0.950 . S
C442 C438 1.385 . S
C442 C441 1.374 . S
C443 C440 1.499 1_556 S
C443 C444 1.373 . S
C443 C445 1.389 . S
C444 H417 0.950 . S
C444 C430 1.377 . S
C444 C443 1.373 . S
C445 C429 1.377 . S
C445 C443 1.389 . S
C445 C446 1.524 . S
C446 C445 1.524 . S
C446 C447 1.397 . S
C446 C451 1.363 . S
C447 H418 0.950 . S
C447 C446 1.397 . S
C447 C448 1.334 1_556 S
C448 H419 0.950 . S
C448 C447 1.334 1_554 S
C448 C449 1.287 1_554 S
C449 C448 1.287 1_556 S
C449 C450 1.524 . S
C449 H452 0.999 . S
C450 H420 0.950 . S
C450 C449 1.524 . S
C450 C451 1.415 . S
C451 H421 0.950 . S
C451 C446 1.363 . S
C451 C450 1.415 . S
H452 C449 0.999 . S
H453 C434 0.913 . S
H454 C472 0.951 . S
H455 C474 0.951 . S
H456 C476 0.950 . S
H457 C477 0.950 . S
H458 C479 0.950 . S
H459 C482 0.950 . S
H460 C483 0.950 . S
H461 C485 0.950 . S
H462 C486 0.950 . S
H463 C487 0.951 . S
H464 C489 0.951 . S
H465 C491 0.950 . S
H466 C492 0.950 . S
H467 C494 0.950 . S
H468 C497 0.950 . S
H469 C498 0.950 . S
H470 C500 0.950 . S
H471 C501 0.950 . S
C472 H454 0.951 . S
C472 C473 1.366 1_554 S
C472 C474 1.388 . S
C473 C472 1.366 1_556 S
C473 C477 1.385 1_556 S
C474 H455 0.951 . S
C474 C472 1.388 . S
C474 C475 1.366 . S
C475 C474 1.366 . S
C475 C476 1.414 . S
C475 C478 1.499 . S
C476 H456 0.950 . S
C476 C475 1.414 . S
C476 C477 1.374 . S
C477 H457 0.950 . S
C477 C473 1.385 1_554 S
C477 C476 1.374 . S
C478 C475 1.499 . S
C478 C479 1.373 . S
C478 C480 1.389 . S
C479 H458 0.950 . S
C479 C478 1.373 . S
C479 C495 1.377 . S
C480 C478 1.389 . S
C480 C481 1.524 . S
C480 C494 1.377 . S
C481 C480 1.524 . S
C481 C482 1.397 . S
C481 C486 1.363 . S
C482 H459 0.950 . S
C482 C481 1.397 . S
C482 C483 1.334 . S
C483 H460 0.950 . S
C483 C482 1.334 . S
C483 C484 1.287 . S
C484 C483 1.287 . S
C484 C485 1.524 . S
C484 H503 0.913 . S
C485 H461 0.950 . S
C485 C484 1.524 . S
C485 C486 1.415 . S
C486 H462 0.950 . S
C486 C481 1.363 . S
C486 C485 1.415 . S
C487 H463 0.951 . S
C487 C488 1.366 . S
C487 C489 1.388 . S
C488 C487 1.366 . S
C488 C492 1.385 . S
C489 H464 0.951 . S
C489 C487 1.388 . S
C489 C490 1.366 . S
C490 C489 1.366 . S
C490 C491 1.414 . S
C490 C493 1.499 . S
C491 H465 0.950 . S
C491 C490 1.414 . S
C491 C492 1.374 . S
C492 H466 0.950 . S
C492 C488 1.385 . S
C492 C491 1.374 . S
C493 C490 1.499 . S
C493 C494 1.373 . S
C493 C495 1.389 . S
C494 H467 0.950 . S
C494 C480 1.377 . S
C494 C493 1.373 . S
C495 C479 1.377 . S
C495 C493 1.389 . S
C495 C496 1.524 . S
C496 C495 1.524 . S
C496 C497 1.397 . S
C496 C501 1.363 . S
C497 H468 0.950 . S
C497 C496 1.397 . S
C497 C498 1.334 . S
C498 H469 0.950 . S
C498 C497 1.334 . S
C498 C499 1.287 . S
C499 C498 1.287 . S
C499 C500 1.524 . S
C499 H502 0.999 . S
C500 H470 0.950 . S
C500 C499 1.524 . S
C500 C501 1.415 . S
C501 H471 0.950 . S
C501 C496 1.363 . S
C501 C500 1.415 . S
H502 C499 0.999 . S
H503 C484 0.913 . S
H504 C522 0.951 . S
H505 C524 0.951 . S
H506 C526 0.950 . S
H507 C527 0.950 . S
H508 C529 0.950 . S
H509 C532 0.950 . S
H510 C533 0.950 . S
H511 C535 0.950 . S
H512 C536 0.950 . S
H513 C537 0.951 . S
H514 C539 0.951 . S
H515 C541 0.950 . S
H516 C542 0.950 . S
H517 C544 0.950 . S
H518 C547 0.950 . S
H519 C548 0.950 . S
H520 C550 0.950 . S
H521 C551 0.950 . S
C522 H504 0.951 . S
C522 C523 1.366 . S
C522 C524 1.388 . S
C523 C522 1.366 . S
C523 C527 1.385 . S
C524 H505 0.951 . S
C524 C522 1.388 . S
C524 C525 1.366 . S
C525 C524 1.366 . S
C525 C526 1.414 . S
C525 C528 1.499 . S
C526 H506 0.950 . S
C526 C525 1.414 . S
C526 C527 1.374 . S
C527 H507 0.950 . S
C527 C523 1.385 . S
C527 C526 1.374 . S
C528 C525 1.499 . S
C528 C529 1.373 . S
C528 C530 1.389 . S
C529 H508 0.950 . S
C529 C528 1.373 . S
C529 C545 1.377 . S
C530 C528 1.389 . S
C530 C531 1.524 . S
C530 C544 1.377 . S
C531 C530 1.524 . S
C531 C532 1.397 . S
C531 C536 1.363 . S
C532 H509 0.950 . S
C532 C531 1.397 . S
C532 C533 1.334 . S
C533 H510 0.950 . S
C533 C532 1.334 . S
C533 C534 1.287 . S
C534 C533 1.287 . S
C534 C535 1.524 . S
C534 H553 0.913 . S
C535 H511 0.950 . S
C535 C534 1.524 . S
C535 C536 1.415 . S
C536 H512 0.950 . S
C536 C531 1.363 . S
C536 C535 1.415 . S
C537 H513 0.951 . S
C537 C538 1.366 . S
C537 C539 1.388 . S
C538 C537 1.366 . S
C538 C542 1.385 . S
C539 H514 0.951 . S
C539 C537 1.388 . S
C539 C540 1.366 . S
C540 C539 1.366 . S
C540 C541 1.414 . S
C540 C543 1.499 . S
C541 H515 0.950 . S
C541 C540 1.414 . S
C541 C542 1.374 . S
C542 H516 0.950 . S
C542 C538 1.385 . S
C542 C541 1.374 . S
C543 C540 1.499 . S
C543 C544 1.373 . S
C543 C545 1.389 . S
C544 H517 0.950 . S
C544 C530 1.377 . S
C544 C543 1.373 . S
C545 C529 1.377 . S
C545 C543 1.389 . S
C545 C546 1.524 . S
C546 C545 1.524 . S
C546 C547 1.397 . S
C546 C551 1.363 . S
C547 H518 0.950 . S
C547 C546 1.397 . S
C547 C548 1.334 . S
C548 H519 0.950 . S
C548 C547 1.334 . S
C548 C549 1.287 . S
C549 C548 1.287 . S
C549 C550 1.524 . S
C549 H552 0.999 . S
C550 H520 0.950 . S
C550 C549 1.524 . S
C550 C551 1.415 . S
C551 H521 0.950 . S
C551 C546 1.363 . S
C551 C550 1.415 . S
H552 C549 0.999 . S
H553 C534 0.913 . S
H554 C572 0.951 . S
H555 C574 0.951 . S
H556 C576 0.950 . S
H557 C577 0.950 . S
H558 C579 0.950 . S
H559 C582 0.950 . S
H560 C583 0.950 . S
H561 C585 0.950 . S
H562 C586 0.950 . S
H563 C587 0.951 . S
H564 C589 0.951 . S
H565 C591 0.950 . S
H566 C592 0.950 . S
H567 C594 0.950 . S
H568 C597 0.950 . S
H569 C598 0.950 . S
H570 C600 0.950 . S
H571 C601 0.950 . S
C572 H554 0.951 . S
C572 C573 1.366 . S
C572 C574 1.388 . S
C573 C572 1.366 . S
C573 C577 1.385 . S
C574 H555 0.951 . S
C574 C572 1.388 . S
C574 C575 1.366 . S
C575 C574 1.366 . S
C575 C576 1.414 . S
C575 C578 1.499 . S
C576 H556 0.950 . S
C576 C575 1.414 . S
C576 C577 1.374 . S
C577 H557 0.950 . S
C577 C573 1.385 . S
C577 C576 1.374 . S
C578 C575 1.499 . S
C578 C579 1.373 . S
C578 C580 1.389 . S
C579 H558 0.950 . S
C579 C578 1.373 . S
C579 C595 1.377 . S
C580 C578 1.389 . S
C580 C581 1.524 . S
C580 C594 1.377 . S
C581 C580 1.524 . S
C581 C582 1.397 . S
C581 C586 1.363 . S
C582 H559 0.950 . S
C582 C581 1.397 . S
C582 C583 1.334 . S
C583 H560 0.950 . S
C583 C582 1.334 . S
C583 C584 1.287 . S
C584 C583 1.287 . S
C584 C585 1.524 . S
C584 H603 0.913 . S
C585 H561 0.950 . S
C585 C584 1.524 . S
C585 C586 1.415 . S
C586 H562 0.950 . S
C586 C581 1.363 . S
C586 C585 1.415 . S
C587 H563 0.951 . S
C587 C588 1.366 . S
C587 C589 1.388 . S
C588 C587 1.366 . S
C588 C592 1.385 . S
C589 H564 0.951 . S
C589 C587 1.388 . S
C589 C590 1.366 . S
C590 C589 1.366 . S
C590 C591 1.414 . S
C590 C593 1.499 1_554 S
C591 H565 0.950 . S
C591 C590 1.414 . S
C591 C592 1.374 . S
C592 H566 0.950 . S
C592 C588 1.385 . S
C592 C591 1.374 . S
C593 C590 1.499 1_556 S
C593 C594 1.373 . S
C593 C595 1.389 . S
C594 H567 0.950 . S
C594 C580 1.377 . S
C594 C593 1.373 . S
C595 C579 1.377 . S
C595 C593 1.389 . S
C595 C596 1.524 . S
C596 C595 1.524 . S
C596 C597 1.397 . S
C596 C601 1.363 . S
C597 H568 0.950 . S
C597 C596 1.397 . S
C597 C598 1.334 1_556 S
C598 H569 0.950 . S
C598 C597 1.334 1_554 S
C598 C599 1.287 1_554 S
C599 C598 1.287 1_556 S
C599 C600 1.524 . S
C599 H602 0.999 . S
C600 H570 0.950 . S
C600 C599 1.524 . S
C600 C601 1.415 . S
C601 H571 0.950 . S
C601 C596 1.363 . S
C601 C600 1.415 . S
H602 C599 0.999 . S
H603 C584 0.913 . S
H604 C622 0.951 . S
H605 C624 0.951 . S
H606 C626 0.950 . S
H607 C627 0.950 . S
H608 C629 0.950 . S
H609 C632 0.950 . S
H610 C633 0.950 . S
H611 C635 0.950 . S
H612 C636 0.950 . S
H613 C637 0.951 1_556 S
H614 C639 0.951 . S
H615 C641 0.950 . S
H616 C642 0.950 . S
H617 C644 0.950 . S
H618 C647 0.950 . S
H619 C648 0.950 . S
H620 C650 0.950 . S
H621 C651 0.950 . S
C622 H604 0.951 . S
C622 C623 1.366 . S
C622 C624 1.388 . S
C623 C622 1.366 . S
C623 C627 1.385 . S
C624 H605 0.951 . S
C624 C622 1.388 . S
C624 C625 1.366 . S
C625 C624 1.366 . S
C625 C626 1.414 . S
C625 C628 1.499 . S
C626 H606 0.950 . S
C626 C625 1.414 . S
C626 C627 1.374 . S
C627 H607 0.950 . S
C627 C623 1.385 . S
C627 C626 1.374 . S
C628 C625 1.499 . S
C628 C629 1.373 . S
C628 C630 1.389 . S
C629 H608 0.950 . S
C629 C628 1.373 . S
C629 C645 1.377 . S
C630 C628 1.389 . S
C630 C631 1.524 . S
C630 C644 1.377 . S
C631 C630 1.524 . S
C631 C632 1.397 . S
C631 C636 1.363 . S
C632 H609 0.950 . S
C632 C631 1.397 . S
C632 C633 1.334 . S
C633 H610 0.950 . S
C633 C632 1.334 . S
C633 C634 1.287 . S
C634 C633 1.287 . S
C634 C635 1.524 . S
C634 H653 0.913 . S
C635 H611 0.950 . S
C635 C634 1.524 . S
C635 C636 1.415 . S
C636 H612 0.950 . S
C636 C631 1.363 . S
C636 C635 1.415 . S
C637 H613 0.951 1_554 S
C637 C638 1.366 1_554 S
C637 C639 1.388 . S
C638 C637 1.366 1_556 S
C638 C642 1.385 1_556 S
C639 H614 0.951 . S
C639 C637 1.388 . S
C639 C640 1.366 . S
C640 C639 1.366 . S
C640 C641 1.414 . S
C640 C643 1.499 . S
C641 H615 0.950 . S
C641 C640 1.414 . S
C641 C642 1.374 . S
C642 H616 0.950 . S
C642 C638 1.385 1_554 S
C642 C641 1.374 . S
C643 C640 1.499 . S
C643 C644 1.373 . S
C643 C645 1.389 . S
C644 H617 0.950 . S
C644 C630 1.377 . S
C644 C643 1.373 . S
C645 C629 1.377 . S
C645 C643 1.389 . S
C645 C646 1.524 . S
C646 C645 1.524 . S
C646 C647 1.397 . S
C646 C651 1.363 . S
C647 H618 0.950 . S
C647 C646 1.397 . S
C647 C648 1.334 1_565 S
C648 H619 0.950 . S
C648 C647 1.334 1_545 S
C648 C649 1.287 . S
C649 C648 1.287 . S
C649 C650 1.524 1_545 S
C649 H652 0.999 . S
C650 H620 0.950 . S
C650 C649 1.524 1_565 S
C650 C651 1.415 . S
C651 H621 0.950 . S
C651 C646 1.363 . S
C651 C650 1.415 . S
H652 C649 0.999 . S
H653 C634 0.913 . S
H654 C672 0.951 . S
H655 C674 0.951 . S
H656 C676 0.950 . S
H657 C677 0.950 . S
H658 C679 0.950 . S
H659 C682 0.950 . S
H660 C683 0.950 . S
H661 C685 0.950 . S
H662 C686 0.950 . S
H663 C687 0.951 . S
H664 C689 0.951 . S
H665 C691 0.950 . S
H666 C692 0.950 . S
H667 C694 0.950 . S
H668 C697 0.950 . S
H669 C698 0.950 . S
H670 C700 0.950 . S
H671 C701 0.950 . S
C672 H654 0.951 . S
C672 C673 1.366 . S
C672 C674 1.388 . S
C673 C672 1.366 . S
C673 C677 1.385 . S
C674 H655 0.951 . S
C674 C672 1.388 . S
C674 C675 1.366 . S
C675 C674 1.366 . S
C675 C676 1.414 . S
C675 C678 1.499 . S
C676 H656 0.950 . S
C676 C675 1.414 . S
C676 C677 1.374 . S
C677 H657 0.950 . S
C677 C673 1.385 . S
C677 C676 1.374 . S
C678 C675 1.499 . S
C678 C679 1.373 . S
C678 C680 1.389 . S
C679 H658 0.950 . S
C679 C678 1.373 . S
C679 C695 1.377 . S
C680 C678 1.389 . S
C680 C681 1.524 . S
C680 C694 1.377 . S
C681 C680 1.524 . S
C681 C682 1.397 . S
C681 C686 1.363 . S
C682 H659 0.950 . S
C682 C681 1.397 . S
C682 C683 1.334 . S
C683 H660 0.950 . S
C683 C682 1.334 . S
C683 C684 1.287 . S
C684 C683 1.287 . S
C684 C685 1.524 . S
C684 H703 0.913 . S
C685 H661 0.950 . S
C685 C684 1.524 . S
C685 C686 1.415 . S
C686 H662 0.950 . S
C686 C681 1.363 . S
C686 C685 1.415 . S
C687 H663 0.951 . S
C687 C688 1.366 . S
C687 C689 1.388 . S
C688 C687 1.366 . S
C688 C692 1.385 . S
C689 H664 0.951 . S
C689 C687 1.388 . S
C689 C690 1.366 . S
C690 C689 1.366 . S
C690 C691 1.414 . S
C690 C693 1.499 . S
C691 H665 0.950 . S
C691 C690 1.414 . S
C691 C692 1.374 . S
C692 H666 0.950 . S
C692 C688 1.385 . S
C692 C691 1.374 . S
C693 C690 1.499 . S
C693 C694 1.373 . S
C693 C695 1.389 . S
C694 H667 0.950 . S
C694 C680 1.377 . S
C694 C693 1.373 . S
C695 C679 1.377 . S
C695 C693 1.389 . S
C695 C696 1.524 . S
C696 C695 1.524 . S
C696 C697 1.397 . S
C696 C701 1.363 . S
C697 H668 0.950 . S
C697 C696 1.397 . S
C697 C698 1.334 . S
C698 H669 0.950 . S
C698 C697 1.334 . S
C698 C699 1.287 . S
C699 C698 1.287 . S
C699 C700 1.524 . S
C699 H702 0.999 . S
C700 H670 0.950 . S
C700 C699 1.524 . S
C700 C701 1.415 . S
C701 H671 0.950 . S
C701 C696 1.363 . S
C701 C700 1.415 . S
H702 C699 0.999 . S
H703 C684 0.913 . S
H704 C722 0.951 . S
H705 C724 0.951 . S
H706 C726 0.950 . S
H707 C727 0.950 . S
H708 C729 0.950 . S
H709 C732 0.950 . S
H710 C733 0.950 . S
H711 C735 0.950 . S
H712 C736 0.950 . S
H713 C737 0.951 . S
H714 C739 0.951 . S
H715 C741 0.950 . S
H716 C742 0.950 . S
H717 C744 0.950 . S
H718 C747 0.950 . S
H719 C748 0.950 . S
H720 C750 0.950 . S
H721 C751 0.950 . S
C722 H704 0.951 . S
C722 C723 1.366 . S
C722 C724 1.388 . S
C723 C722 1.366 . S
C723 C727 1.385 . S
C724 H705 0.951 . S
C724 C722 1.388 . S
C724 C725 1.366 . S
C725 C724 1.366 . S
C725 C726 1.414 . S
C725 C728 1.499 . S
C726 H706 0.950 . S
C726 C725 1.414 . S
C726 C727 1.374 . S
C727 H707 0.950 . S
C727 C723 1.385 . S
C727 C726 1.374 . S
C728 C725 1.499 . S
C728 C729 1.373 . S
C728 C730 1.389 . S
C729 H708 0.950 . S
C729 C728 1.373 . S
C729 C745 1.377 . S
C730 C728 1.389 . S
C730 C731 1.524 . S
C730 C744 1.377 . S
C731 C730 1.524 . S
C731 C732 1.397 . S
C731 C736 1.363 . S
C732 H709 0.950 . S
C732 C731 1.397 . S
C732 C733 1.334 . S
C733 H710 0.950 . S
C733 C732 1.334 . S
C733 C734 1.287 . S
C734 C733 1.287 . S
C734 C735 1.524 . S
C734 H753 0.913 . S
C735 H711 0.950 . S
C735 C734 1.524 . S
C735 C736 1.415 . S
C736 H712 0.950 . S
C736 C731 1.363 . S
C736 C735 1.415 . S
C737 H713 0.951 . S
C737 C738 1.366 . S
C737 C739 1.388 . S
C738 C737 1.366 . S
C738 C742 1.385 . S
C739 H714 0.951 . S
C739 C737 1.388 . S
C739 C740 1.366 . S
C740 C739 1.366 . S
C740 C741 1.414 . S
C740 C743 1.499 . S
C741 H715 0.950 . S
C741 C740 1.414 . S
C741 C742 1.374 . S
C742 H716 0.950 . S
C742 C738 1.385 . S
C742 C741 1.374 . S
C743 C740 1.499 . S
C743 C744 1.373 . S
C743 C745 1.389 . S
C744 H717 0.950 . S
C744 C730 1.377 . S
C744 C743 1.373 . S
C745 C729 1.377 . S
C745 C743 1.389 . S
C745 C746 1.524 . S
C746 C745 1.524 . S
C746 C747 1.397 . S
C746 C751 1.363 . S
C747 H718 0.950 . S
C747 C746 1.397 . S
C747 C748 1.334 . S
C748 H719 0.950 . S
C748 C747 1.334 . S
C748 C749 1.287 . S
C749 C748 1.287 . S
C749 C750 1.524 . S
C749 H752 0.999 . S
C750 H720 0.950 . S
C750 C749 1.524 . S
C750 C751 1.415 . S
C751 H721 0.950 . S
C751 C746 1.363 . S
C751 C750 1.415 . S
H752 C749 0.999 . S
H753 C734 0.913 . S
H754 C772 0.951 . S
H755 C774 0.951 1_554 S
H756 C776 0.950 . S
H757 C777 0.950 . S
H758 C779 0.950 . S
H759 C782 0.950 . S
H760 C783 0.950 . S
H761 C785 0.950 . S
H762 C786 0.950 . S
H763 C787 0.951 . S
H764 C789 0.951 1_655 S
H765 C791 0.950 . S
H766 C792 0.950 . S
H767 C794 0.950 . S
H768 C797 0.950 . S
H769 C798 0.950 . S
H770 C800 0.950 . S
H771 C801 0.950 . S
C772 H754 0.951 . S
C772 C773 1.366 1_554 S
C772 C774 1.388 1_554 S
C773 C772 1.366 1_556 S
C773 C777 1.385 . S
C774 H755 0.951 1_556 S
C774 C772 1.388 1_556 S
C774 C775 1.366 . S
C775 C774 1.366 . S
C775 C776 1.414 . S
C775 C778 1.499 . S
C776 H756 0.950 . S
C776 C775 1.414 . S
C776 C777 1.374 . S
C777 H757 0.950 . S
C777 C773 1.385 . S
C777 C776 1.374 . S
C778 C775 1.499 . S
C778 C779 1.373 . S
C778 C780 1.389 . S
C779 H758 0.950 . S
C779 C778 1.373 . S
C779 C795 1.377 . S
C780 C778 1.389 . S
C780 C781 1.524 . S
C780 C794 1.377 . S
C781 C780 1.524 . S
C781 C782 1.397 . S
C781 C786 1.363 1_556 S
C782 H759 0.950 . S
C782 C781 1.397 . S
C782 C783 1.334 1_556 S
C783 H760 0.950 . S
C783 C782 1.334 1_554 S
C783 C784 1.287 . S
C784 C783 1.287 . S
C784 C785 1.524 . S
C784 H803 0.913 . S
C785 H761 0.950 . S
C785 C784 1.524 . S
C785 C786 1.415 . S
C786 H762 0.950 . S
C786 C781 1.363 1_554 S
C786 C785 1.415 . S
C787 H763 0.951 . S
C787 C788 1.366 . S
C787 C789 1.388 . S
C788 C787 1.366 . S
C788 C792 1.385 . S
C789 H764 0.951 1_455 S
C789 C787 1.388 . S
C789 C790 1.366 . S
C790 C789 1.366 . S
C790 C791 1.414 . S
C790 C793 1.499 1_455 S
C791 H765 0.950 . S
C791 C790 1.414 . S
C791 C792 1.374 . S
C792 H766 0.950 . S
C792 C788 1.385 . S
C792 C791 1.374 . S
C793 C790 1.499 1_655 S
C793 C794 1.373 . S
C793 C795 1.389 . S
C794 H767 0.950 . S
C794 C780 1.377 . S
C794 C793 1.373 . S
C795 C779 1.377 . S
C795 C793 1.389 . S
C795 C796 1.524 . S
C796 C795 1.524 . S
C796 C797 1.397 1_655 S
C796 C801 1.363 . S
C797 H768 0.950 . S
C797 C796 1.397 1_455 S
C797 C798 1.334 . S
C798 H769 0.950 . S
C798 C797 1.334 . S
C798 C799 1.287 . S
C799 C798 1.287 . S
C799 C800 1.524 1_455 S
C799 H802 0.999 . S
C800 H770 0.950 . S
C800 C799 1.524 1_655 S
C800 C801 1.415 . S
C801 H771 0.950 . S
C801 C796 1.363 . S
C801 C800 1.415 . S
H802 C799 0.999 . S
H803 C784 0.913 . S
H804 C822 0.951 . S
H805 C824 0.951 . S
H806 C826 0.950 . S
H807 C827 0.950 . S
H808 C829 0.950 . S
H809 C832 0.950 . S
H810 C833 0.950 . S
H811 C835 0.950 . S
H812 C836 0.950 . S
H813 C837 0.951 . S
H814 C839 0.951 1_545 S
H815 C841 0.950 . S
H816 C842 0.950 . S
H817 C844 0.950 . S
H818 C847 0.950 1_565 S
H819 C848 0.950 1_565 S
H820 C850 0.950 . S
H821 C851 0.950 . S
C822 H804 0.951 . S
C822 C823 1.366 . S
C822 C824 1.388 . S
C823 C822 1.366 . S
C823 C827 1.385 . S
C824 H805 0.951 . S
C824 C822 1.388 . S
C824 C825 1.366 . S
C825 C824 1.366 . S
C825 C826 1.414 . S
C825 C828 1.499 . S
C826 H806 0.950 . S
C826 C825 1.414 . S
C826 C827 1.374 . S
C827 H807 0.950 . S
C827 C823 1.385 . S
C827 C826 1.374 . S
C828 C825 1.499 . S
C828 C829 1.373 . S
C828 C830 1.389 . S
C829 H808 0.950 . S
C829 C828 1.373 . S
C829 C845 1.377 . S
C830 C828 1.389 . S
C830 C831 1.524 . S
C830 C844 1.377 1_545 S
C831 C830 1.524 . S
C831 C832 1.397 . S
C831 C836 1.363 1_545 S
C832 H809 0.950 . S
C832 C831 1.397 . S
C832 C833 1.334 . S
C833 H810 0.950 . S
C833 C832 1.334 . S
C833 C834 1.287 . S
C834 C833 1.287 . S
C834 C835 1.524 1_545 S
C834 H853 0.913 . S
C835 H811 0.950 . S
C835 C834 1.524 1_565 S
C835 C836 1.415 . S
C836 H812 0.950 . S
C836 C831 1.363 1_565 S
C836 C835 1.415 . S
C837 H813 0.951 . S
C837 C838 1.366 . S
C837 C839 1.388 . S
C838 C837 1.366 . S
C838 C842 1.385 . S
C839 H814 0.951 1_565 S
C839 C837 1.388 . S
C839 C840 1.366 . S
C840 C839 1.366 . S
C840 C841 1.414 . S
C840 C843 1.493 1_565 S
C841 H815 0.950 . S
C841 C840 1.414 . S
C841 C842 1.374 . S
C842 H816 0.950 . S
C842 C838 1.385 . S
C842 C841 1.374 . S
C843 C840 1.493 1_545 S
C843 C844 1.376 1_545 S
C843 C845 1.393 . S
C844 H817 0.950 . S
C844 C830 1.377 1_565 S
C844 C843 1.376 1_565 S
C845 C829 1.377 . S
C845 C843 1.393 . S
C845 C846 1.524 . S
C846 C845 1.524 . S
C846 C847 1.397 . S
C846 C851 1.363 . S
C847 H818 0.950 1_545 S
C847 C846 1.397 . S
C847 C848 1.334 . S
C848 H819 0.950 1_545 S
C848 C847 1.334 . S
C848 C849 1.287 . S
C849 C848 1.287 . S
C849 C850 1.524 . S
C849 H852 0.999 . S
C850 H820 0.950 . S
C850 C849 1.524 . S
C850 C851 1.415 . S
C851 H821 0.950 . S
C851 C846 1.363 . S
C851 C850 1.415 . S
H852 C849 0.999 . S
H853 C834 0.913 . S
H854 C872 0.951 . S
H855 C874 0.951 . S
H856 C876 0.950 . S
H857 C877 0.950 . S
H858 C879 0.950 . S
H859 C882 0.950 . S
H860 C883 0.950 . S
H861 C885 0.950 . S
H862 C886 0.950 . S
H863 C887 0.951 . S
H864 C889 0.951 . S
H865 C891 0.950 . S
H866 C892 0.950 . S
H867 C894 0.950 . S
H868 C897 0.950 . S
H869 C898 0.950 . S
H870 C900 0.950 . S
H871 C901 0.950 . S
C872 H854 0.951 . S
C872 C873 1.366 . S
C872 C874 1.388 . S
C873 C872 1.366 . S
C873 C877 1.385 . S
C874 H855 0.951 . S
C874 C872 1.388 . S
C874 C875 1.366 . S
C875 C874 1.366 . S
C875 C876 1.414 . S
C875 C878 1.499 . S
C876 H856 0.950 . S
C876 C875 1.414 . S
C876 C877 1.374 . S
C877 H857 0.950 . S
C877 C873 1.385 . S
C877 C876 1.374 . S
C878 C875 1.499 . S
C878 C879 1.373 . S
C878 C880 1.389 . S
C879 H858 0.950 . S
C879 C878 1.373 . S
C879 C895 1.377 . S
C880 C878 1.389 . S
C880 C881 1.524 . S
C880 C894 1.377 . S
C881 C880 1.524 . S
C881 C882 1.397 . S
C881 C886 1.363 . S
C882 H859 0.950 . S
C882 C881 1.397 . S
C882 C883 1.334 . S
C883 H860 0.950 . S
C883 C882 1.334 . S
C883 C884 1.287 . S
C884 C883 1.287 . S
C884 C885 1.524 . S
C884 H903 0.913 . S
C885 H861 0.950 . S
C885 C884 1.524 . S
C885 C886 1.415 . S
C886 H862 0.950 . S
C886 C881 1.363 . S
C886 C885 1.415 . S
C887 H863 0.951 . S
C887 C888 1.366 1_455 S
C887 C889 1.388 . S
C888 C887 1.366 1_655 S
C888 C892 1.385 . S
C889 H864 0.951 . S
C889 C887 1.388 . S
C889 C890 1.366 . S
C890 C889 1.366 . S
C890 C891 1.414 . S
C890 C893 1.499 . S
C891 H865 0.950 . S
C891 C890 1.414 . S
C891 C892 1.374 1_455 S
C892 H866 0.950 . S
C892 C888 1.385 . S
C892 C891 1.374 1_655 S
C893 C890 1.499 . S
C893 C894 1.373 . S
C893 C895 1.389 . S
C894 H867 0.950 . S
C894 C880 1.377 . S
C894 C893 1.373 . S
C895 C879 1.377 . S
C895 C893 1.389 . S
C895 C896 1.524 . S
C896 C895 1.524 . S
C896 C897 1.397 . S
C896 C901 1.363 . S
C897 H868 0.950 . S
C897 C896 1.397 . S
C897 C898 1.334 . S
C898 H869 0.950 . S
C898 C897 1.334 . S
C898 C899 1.287 . S
C899 C898 1.287 . S
C899 C900 1.524 . S
C899 H902 0.999 . S
C900 H870 0.950 . S
C900 C899 1.524 . S
C900 C901 1.415 . S
C901 H871 0.950 . S
C901 C896 1.363 . S
C901 C900 1.415 . S
H902 C899 0.999 . S
H903 C884 0.913 . S
H904 C922 0.951 . S
H905 C924 0.951 . S
H906 C926 0.950 . S
H907 C927 0.950 . S
H908 C929 0.950 . S
H909 C932 0.950 . S
H910 C933 0.950 . S
H911 C935 0.950 . S
H912 C936 0.950 1_554 S
H913 C937 0.951 . S
H914 C939 0.951 . S
H915 C941 0.950 1_554 S
H916 C942 0.950 . S
H917 C944 0.950 . S
H918 C947 0.950 . S
H919 C948 0.950 . S
H920 C950 0.950 . S
H921 C951 0.950 . S
C922 H904 0.951 . S
C922 C923 1.366 . S
C922 C924 1.388 . S
C923 C922 1.366 . S
C923 C927 1.385 . S
C924 H905 0.951 . S
C924 C922 1.388 . S
C924 C925 1.366 . S
C925 C924 1.366 . S
C925 C926 1.414 . S
C925 C928 1.499 . S
C926 H906 0.950 . S
C926 C925 1.414 . S
C926 C927 1.374 . S
C927 H907 0.950 . S
C927 C923 1.385 . S
C927 C926 1.374 . S
C928 C925 1.499 . S
C928 C929 1.373 . S
C928 C930 1.389 . S
C929 H908 0.950 . S
C929 C928 1.373 . S
C929 C945 1.377 . S
C930 C928 1.389 . S
C930 C931 1.524 . S
C930 C944 1.377 . S
C931 C930 1.524 . S
C931 C932 1.397 . S
C931 C936 1.363 . S
C932 H909 0.950 . S
C932 C931 1.397 . S
C932 C933 1.334 . S
C933 H910 0.950 . S
C933 C932 1.334 . S
C933 C934 1.287 . S
C934 C933 1.287 . S
C934 C935 1.523 1_556 S
C934 H953 0.913 . S
C935 H911 0.950 . S
C935 C934 1.523 1_554 S
C935 C936 1.415 1_554 S
C936 H912 0.950 1_556 S
C936 C931 1.363 . S
C936 C935 1.415 1_556 S
C937 H913 0.951 . S
C937 C938 1.366 . S
C937 C939 1.388 . S
C938 C937 1.366 . S
C938 C942 1.385 1_556 S
C939 H914 0.951 . S
C939 C937 1.388 . S
C939 C940 1.366 . S
C940 C939 1.366 . S
C940 C941 1.414 . S
C940 C943 1.499 . S
C941 H915 0.950 1_556 S
C941 C940 1.414 . S
C941 C942 1.374 1_556 S
C942 H916 0.950 . S
C942 C938 1.385 1_554 S
C942 C941 1.374 1_554 S
C943 C940 1.499 . S
C943 C944 1.373 . S
C943 C945 1.389 . S
C944 H917 0.950 . S
C944 C930 1.377 . S
C944 C943 1.373 . S
C945 C929 1.377 . S
C945 C943 1.389 . S
C945 C946 1.524 . S
C946 C945 1.524 . S
C946 C947 1.397 . S
C946 C951 1.363 . S
C947 H918 0.950 . S
C947 C946 1.397 . S
C947 C948 1.334 . S
C948 H919 0.950 . S
C948 C947 1.334 . S
C948 C949 1.287 . S
C949 C948 1.287 . S
C949 C950 1.524 . S
C949 H952 0.999 . S
C950 H920 0.950 . S
C950 C949 1.524 . S
C950 C951 1.415 . S
C951 H921 0.950 . S
C951 C946 1.363 . S
C951 C950 1.415 . S
H952 C949 0.999 . S
H953 C934 0.913 . S
C223 C2 1.615 . S
C238 C104 1.615 . S
C273 C138 1.615 . S
C288 C36 1.615 . S
C323 C70 1.615 . S
C338 C172 1.615 . S
C373 C9 0.893 . S
C388 C5 0.910 . S
C423 C43 0.895 . S
C438 C39 0.910 . S
C473 C77 0.894 . S
C488 C73 0.910 . S
C523 C107 0.910 . S
C538 C111 0.894 . S
C573 C145 0.895 . S
C588 C141 0.910 . S
C623 C175 0.910 . S
C638 C179 0.894 . S
C673 C20 1.557 . S
C688 C67 1.569 . S
C723 C54 1.557 . S
C738 C101 1.568 . S
C773 C135 1.568 1_556 S
C788 C88 1.557 . S
C823 C122 1.557 . S
C838 C169 1.568 . S
C873 C203 1.568 . S
C888 C156 1.557 . S
C923 C190 1.557 . S
C938 C33 1.569 1_556 S
