# Generated by pormake.
# Topology rho, (4)-cn, num edge types: 1
# Building blocks:
#     Node 0, Type 0, BuildingBlock: CEKHIL_clean_sbu_0, # of connection points: 4
#     Node 1, Type 0, BuildingBlock: CEKHIL_clean_sbu_0, # of connection points: 4
#     Node 2, Type 0, BuildingBlock: CEKHIL_clean_sbu_0, # of connection points: 4
#     Node 3, Type 0, BuildingBlock: CEKHIL_clean_sbu_0, # of connection points: 4
#     Node 4, Type 0, BuildingBlock: CEKHIL_clean_sbu_0, # of connection points: 4
#     Node 5, Type 0, BuildingBlock: CEKHIL_clean_sbu_0, # of connection points: 4
#     Node 6, Type 0, BuildingBlock: CEKHIL_clean_sbu_0, # of connection points: 4
#     Node 7, Type 0, BuildingBlock: CEKHIL_clean_sbu_0, # of connection points: 4
#     Node 8, Type 0, BuildingBlock: CEKHIL_clean_sbu_0, # of connection points: 4
#     Node 9, Type 0, BuildingBlock: CEKHIL_clean_sbu_0, # of connection points: 4
#     Node 10, Type 0, BuildingBlock: CEKHIL_clean_sbu_0, # of connection points: 4
#     Node 11, Type 0, BuildingBlock: CEKHIL_clean_sbu_0, # of connection points: 4
#     Node 12, Type 0, BuildingBlock: CEKHIL_clean_sbu_0, # of connection points: 4
#     Node 13, Type 0, BuildingBlock: CEKHIL_clean_sbu_0, # of connection points: 4
#     Node 14, Type 0, BuildingBlock: CEKHIL_clean_sbu_0, # of connection points: 4
#     Node 15, Type 0, BuildingBlock: CEKHIL_clean_sbu_0, # of connection points: 4
#     Node 16, Type 0, BuildingBlock: CEKHIL_clean_sbu_0, # of connection points: 4
#     Node 17, Type 0, BuildingBlock: CEKHIL_clean_sbu_0, # of connection points: 4
#     Node 18, Type 0, BuildingBlock: CEKHIL_clean_sbu_0, # of connection points: 4
#     Node 19, Type 0, BuildingBlock: CEKHIL_clean_sbu_0, # of connection points: 4
#     Node 20, Type 0, BuildingBlock: CEKHIL_clean_sbu_0, # of connection points: 4
#     Node 21, Type 0, BuildingBlock: CEKHIL_clean_sbu_0, # of connection points: 4
#     Node 22, Type 0, BuildingBlock: CEKHIL_clean_sbu_0, # of connection points: 4
#     Node 23, Type 0, BuildingBlock: CEKHIL_clean_sbu_0, # of connection points: 4
#     Node 24, Type 0, BuildingBlock: CEKHIL_clean_sbu_0, # of connection points: 4
#     Node 25, Type 0, BuildingBlock: CEKHIL_clean_sbu_0, # of connection points: 4
#     Node 26, Type 0, BuildingBlock: CEKHIL_clean_sbu_0, # of connection points: 4
#     Node 27, Type 0, BuildingBlock: CEKHIL_clean_sbu_0, # of connection points: 4
#     Node 28, Type 0, BuildingBlock: CEKHIL_clean_sbu_0, # of connection points: 4
#     Node 29, Type 0, BuildingBlock: CEKHIL_clean_sbu_0, # of connection points: 4
#     Node 30, Type 0, BuildingBlock: CEKHIL_clean_sbu_0, # of connection points: 4
#     Node 31, Type 0, BuildingBlock: CEKHIL_clean_sbu_0, # of connection points: 4
#     Node 32, Type 0, BuildingBlock: CEKHIL_clean_sbu_0, # of connection points: 4
#     Node 33, Type 0, BuildingBlock: CEKHIL_clean_sbu_0, # of connection points: 4
#     Node 34, Type 0, BuildingBlock: CEKHIL_clean_sbu_0, # of connection points: 4
#     Node 35, Type 0, BuildingBlock: CEKHIL_clean_sbu_0, # of connection points: 4
#     Node 36, Type 0, BuildingBlock: CEKHIL_clean_sbu_0, # of connection points: 4
#     Node 37, Type 0, BuildingBlock: CEKHIL_clean_sbu_0, # of connection points: 4
#     Node 38, Type 0, BuildingBlock: CEKHIL_clean_sbu_0, # of connection points: 4
#     Node 39, Type 0, BuildingBlock: CEKHIL_clean_sbu_0, # of connection points: 4
#     Node 40, Type 0, BuildingBlock: CEKHIL_clean_sbu_0, # of connection points: 4
#     Node 41, Type 0, BuildingBlock: CEKHIL_clean_sbu_0, # of connection points: 4
#     Node 42, Type 0, BuildingBlock: CEKHIL_clean_sbu_0, # of connection points: 4
#     Node 43, Type 0, BuildingBlock: CEKHIL_clean_sbu_0, # of connection points: 4
#     Node 44, Type 0, BuildingBlock: CEKHIL_clean_sbu_0, # of connection points: 4
#     Node 45, Type 0, BuildingBlock: CEKHIL_clean_sbu_0, # of connection points: 4
#     Node 46, Type 0, BuildingBlock: CEKHIL_clean_sbu_0, # of connection points: 4
#     Node 47, Type 0, BuildingBlock: CEKHIL_clean_sbu_0, # of connection points: 4
#     Edge 48, Type (0, 0), BuildingBlock: TEMPAE_clean_linker_10, # of connection points: 2
#     Edge 49, Type (0, 0), BuildingBlock: TEMPAE_clean_linker_10, # of connection points: 2
#     Edge 50, Type (0, 0), BuildingBlock: TEMPAE_clean_linker_10, # of connection points: 2
#     Edge 51, Type (0, 0), BuildingBlock: TEMPAE_clean_linker_10, # of connection points: 2
#     Edge 52, Type (0, 0), BuildingBlock: TEMPAE_clean_linker_10, # of connection points: 2
#     Edge 53, Type (0, 0), BuildingBlock: TEMPAE_clean_linker_10, # of connection points: 2
#     Edge 54, Type (0, 0), BuildingBlock: TEMPAE_clean_linker_10, # of connection points: 2
#     Edge 55, Type (0, 0), BuildingBlock: TEMPAE_clean_linker_10, # of connection points: 2
#     Edge 56, Type (0, 0), BuildingBlock: TEMPAE_clean_linker_10, # of connection points: 2
#     Edge 57, Type (0, 0), BuildingBlock: TEMPAE_clean_linker_10, # of connection points: 2
#     Edge 58, Type (0, 0), BuildingBlock: TEMPAE_clean_linker_10, # of connection points: 2
#     Edge 59, Type (0, 0), BuildingBlock: TEMPAE_clean_linker_10, # of connection points: 2
#     Edge 60, Type (0, 0), BuildingBlock: TEMPAE_clean_linker_10, # of connection points: 2
#     Edge 61, Type (0, 0), BuildingBlock: TEMPAE_clean_linker_10, # of connection points: 2
#     Edge 62, Type (0, 0), BuildingBlock: TEMPAE_clean_linker_10, # of connection points: 2
#     Edge 63, Type (0, 0), BuildingBlock: TEMPAE_clean_linker_10, # of connection points: 2
#     Edge 64, Type (0, 0), BuildingBlock: TEMPAE_clean_linker_10, # of connection points: 2
#     Edge 65, Type (0, 0), BuildingBlock: TEMPAE_clean_linker_10, # of connection points: 2
#     Edge 66, Type (0, 0), BuildingBlock: TEMPAE_clean_linker_10, # of connection points: 2
#     Edge 67, Type (0, 0), BuildingBlock: TEMPAE_clean_linker_10, # of connection points: 2
#     Edge 68, Type (0, 0), BuildingBlock: TEMPAE_clean_linker_10, # of connection points: 2
#     Edge 69, Type (0, 0), BuildingBlock: TEMPAE_clean_linker_10, # of connection points: 2
#     Edge 70, Type (0, 0), BuildingBlock: TEMPAE_clean_linker_10, # of connection points: 2
#     Edge 71, Type (0, 0), BuildingBlock: TEMPAE_clean_linker_10, # of connection points: 2
#     Edge 72, Type (0, 0), BuildingBlock: TEMPAE_clean_linker_10, # of connection points: 2
#     Edge 73, Type (0, 0), BuildingBlock: TEMPAE_clean_linker_10, # of connection points: 2
#     Edge 74, Type (0, 0), BuildingBlock: TEMPAE_clean_linker_10, # of connection points: 2
#     Edge 75, Type (0, 0), BuildingBlock: TEMPAE_clean_linker_10, # of connection points: 2
#     Edge 76, Type (0, 0), BuildingBlock: TEMPAE_clean_linker_10, # of connection points: 2
#     Edge 77, Type (0, 0), BuildingBlock: TEMPAE_clean_linker_10, # of connection points: 2
#     Edge 78, Type (0, 0), BuildingBlock: TEMPAE_clean_linker_10, # of connection points: 2
#     Edge 79, Type (0, 0), BuildingBlock: TEMPAE_clean_linker_10, # of connection points: 2
#     Edge 80, Type (0, 0), BuildingBlock: TEMPAE_clean_linker_10, # of connection points: 2
#     Edge 81, Type (0, 0), BuildingBlock: TEMPAE_clean_linker_10, # of connection points: 2
#     Edge 82, Type (0, 0), BuildingBlock: TEMPAE_clean_linker_10, # of connection points: 2
#     Edge 83, Type (0, 0), BuildingBlock: TEMPAE_clean_linker_10, # of connection points: 2
#     Edge 84, Type (0, 0), BuildingBlock: TEMPAE_clean_linker_10, # of connection points: 2
#     Edge 85, Type (0, 0), BuildingBlock: TEMPAE_clean_linker_10, # of connection points: 2
#     Edge 86, Type (0, 0), BuildingBlock: TEMPAE_clean_linker_10, # of connection points: 2
#     Edge 87, Type (0, 0), BuildingBlock: TEMPAE_clean_linker_10, # of connection points: 2
#     Edge 88, Type (0, 0), BuildingBlock: TEMPAE_clean_linker_10, # of connection points: 2
#     Edge 89, Type (0, 0), BuildingBlock: TEMPAE_clean_linker_10, # of connection points: 2
#     Edge 90, Type (0, 0), BuildingBlock: TEMPAE_clean_linker_10, # of connection points: 2
#     Edge 91, Type (0, 0), BuildingBlock: TEMPAE_clean_linker_10, # of connection points: 2
#     Edge 92, Type (0, 0), BuildingBlock: TEMPAE_clean_linker_10, # of connection points: 2
#     Edge 93, Type (0, 0), BuildingBlock: TEMPAE_clean_linker_10, # of connection points: 2
#     Edge 94, Type (0, 0), BuildingBlock: TEMPAE_clean_linker_10, # of connection points: 2
#     Edge 95, Type (0, 0), BuildingBlock: TEMPAE_clean_linker_10, # of connection points: 2
#     Edge 96, Type (0, 0), BuildingBlock: TEMPAE_clean_linker_10, # of connection points: 2
#     Edge 97, Type (0, 0), BuildingBlock: TEMPAE_clean_linker_10, # of connection points: 2
#     Edge 98, Type (0, 0), BuildingBlock: TEMPAE_clean_linker_10, # of connection points: 2
#     Edge 99, Type (0, 0), BuildingBlock: TEMPAE_clean_linker_10, # of connection points: 2
#     Edge 100, Type (0, 0), BuildingBlock: TEMPAE_clean_linker_10, # of connection points: 2
#     Edge 101, Type (0, 0), BuildingBlock: TEMPAE_clean_linker_10, # of connection points: 2
#     Edge 102, Type (0, 0), BuildingBlock: TEMPAE_clean_linker_10, # of connection points: 2
#     Edge 103, Type (0, 0), BuildingBlock: TEMPAE_clean_linker_10, # of connection points: 2
#     Edge 104, Type (0, 0), BuildingBlock: TEMPAE_clean_linker_10, # of connection points: 2
#     Edge 105, Type (0, 0), BuildingBlock: TEMPAE_clean_linker_10, # of connection points: 2
#     Edge 106, Type (0, 0), BuildingBlock: TEMPAE_clean_linker_10, # of connection points: 2
#     Edge 107, Type (0, 0), BuildingBlock: TEMPAE_clean_linker_10, # of connection points: 2
#     Edge 108, Type (0, 0), BuildingBlock: TEMPAE_clean_linker_10, # of connection points: 2
#     Edge 109, Type (0, 0), BuildingBlock: TEMPAE_clean_linker_10, # of connection points: 2
#     Edge 110, Type (0, 0), BuildingBlock: TEMPAE_clean_linker_10, # of connection points: 2
#     Edge 111, Type (0, 0), BuildingBlock: TEMPAE_clean_linker_10, # of connection points: 2
#     Edge 112, Type (0, 0), BuildingBlock: TEMPAE_clean_linker_10, # of connection points: 2
#     Edge 113, Type (0, 0), BuildingBlock: TEMPAE_clean_linker_10, # of connection points: 2
#     Edge 114, Type (0, 0), BuildingBlock: TEMPAE_clean_linker_10, # of connection points: 2
#     Edge 115, Type (0, 0), BuildingBlock: TEMPAE_clean_linker_10, # of connection points: 2
#     Edge 116, Type (0, 0), BuildingBlock: TEMPAE_clean_linker_10, # of connection points: 2
#     Edge 117, Type (0, 0), BuildingBlock: TEMPAE_clean_linker_10, # of connection points: 2
#     Edge 118, Type (0, 0), BuildingBlock: TEMPAE_clean_linker_10, # of connection points: 2
#     Edge 119, Type (0, 0), BuildingBlock: TEMPAE_clean_linker_10, # of connection points: 2
#     Edge 120, Type (0, 0), BuildingBlock: TEMPAE_clean_linker_10, # of connection points: 2
#     Edge 121, Type (0, 0), BuildingBlock: TEMPAE_clean_linker_10, # of connection points: 2
#     Edge 122, Type (0, 0), BuildingBlock: TEMPAE_clean_linker_10, # of connection points: 2
#     Edge 123, Type (0, 0), BuildingBlock: TEMPAE_clean_linker_10, # of connection points: 2
#     Edge 124, Type (0, 0), BuildingBlock: TEMPAE_clean_linker_10, # of connection points: 2
#     Edge 125, Type (0, 0), BuildingBlock: TEMPAE_clean_linker_10, # of connection points: 2
#     Edge 126, Type (0, 0), BuildingBlock: TEMPAE_clean_linker_10, # of connection points: 2
#     Edge 127, Type (0, 0), BuildingBlock: TEMPAE_clean_linker_10, # of connection points: 2
#     Edge 128, Type (0, 0), BuildingBlock: TEMPAE_clean_linker_10, # of connection points: 2
#     Edge 129, Type (0, 0), BuildingBlock: TEMPAE_clean_linker_10, # of connection points: 2
#     Edge 130, Type (0, 0), BuildingBlock: TEMPAE_clean_linker_10, # of connection points: 2
#     Edge 131, Type (0, 0), BuildingBlock: TEMPAE_clean_linker_10, # of connection points: 2
#     Edge 132, Type (0, 0), BuildingBlock: TEMPAE_clean_linker_10, # of connection points: 2
#     Edge 133, Type (0, 0), BuildingBlock: TEMPAE_clean_linker_10, # of connection points: 2
#     Edge 134, Type (0, 0), BuildingBlock: TEMPAE_clean_linker_10, # of connection points: 2
#     Edge 135, Type (0, 0), BuildingBlock: TEMPAE_clean_linker_10, # of connection points: 2
#     Edge 136, Type (0, 0), BuildingBlock: TEMPAE_clean_linker_10, # of connection points: 2
#     Edge 137, Type (0, 0), BuildingBlock: TEMPAE_clean_linker_10, # of connection points: 2
#     Edge 138, Type (0, 0), BuildingBlock: TEMPAE_clean_linker_10, # of connection points: 2
#     Edge 139, Type (0, 0), BuildingBlock: TEMPAE_clean_linker_10, # of connection points: 2
#     Edge 140, Type (0, 0), BuildingBlock: TEMPAE_clean_linker_10, # of connection points: 2
#     Edge 141, Type (0, 0), BuildingBlock: TEMPAE_clean_linker_10, # of connection points: 2
#     Edge 142, Type (0, 0), BuildingBlock: TEMPAE_clean_linker_10, # of connection points: 2
#     Edge 143, Type (0, 0), BuildingBlock: TEMPAE_clean_linker_10, # of connection points: 2
# Relax obj value: 0.078
# Max RMSD: 0.092
# Mean RMSD: 0.084
data_MOF--net-rho--node1-CEKHIL_clean_sbu_0--edge1-TEMPAE_clean_linker_10
_symmetry_space_group_name_H-M    P1
_symmetry_Int_Tables_number       1
_symmetry_cell_setting            triclinic
loop_
_symmetry_equiv_pos_as_xyz
'x, y, z'
_cell_length_a     72.599474
_cell_length_b     71.921636
_cell_length_c     71.876402
_cell_angle_alpha  90.183485
_cell_angle_beta   90.070428
_cell_angle_gamma 90.764371
loop_
_atom_site_label
_atom_site_type_symbol
_atom_site_fract_x
_atom_site_fract_y
_atom_site_fract_z
_atom_type_partial_charge
Co0 Co 0.10859 0.25091 0.39115 0.0
O1 O 0.13386 0.24329 0.39105 0.0
O2 O 0.10965 0.22409 0.39085 0.0
C3 C 0.11095 0.27281 0.36902 0.0
O4 O 0.08071 0.25371 0.39086 0.0
Co5 Co 0.09899 0.29123 0.40339 0.0
O6 O 0.07331 0.28331 0.39756 0.0
C7 C 0.1122 0.26439 0.43079 0.0
C8 C 0.12745 0.22635 0.391 0.0
C9 C 0.06883 0.26666 0.3932 0.0
O10 O 0.10898 0.25111 0.41919 0.0
O11 O 0.11123 0.28159 0.42644 0.0
O12 O 0.10928 0.2554 0.36436 0.0
O13 O 0.1132 0.2761 0.38654 0.0
Co14 Co 0.75157 0.10419 0.39209 0.0
O15 O 0.74334 0.10674 0.36687 0.0
O16 O 0.72485 0.10339 0.39119 0.0
C17 C 0.77265 0.12733 0.39088 0.0
O18 O 0.75535 0.10209 0.42012 0.0
Co19 Co 0.79184 0.09301 0.40003 0.0
O20 O 0.78588 0.10202 0.42551 0.0
C21 C 0.76508 0.06443 0.38789 0.0
C22 C 0.72671 0.10554 0.3733 0.0
C23 C 0.7693 0.10318 0.43118 0.0
O24 O 0.75213 0.07635 0.38937 0.0
O25 O 0.78217 0.06859 0.38996 0.0
O26 O 0.75547 0.13102 0.39407 0.0
O27 O 0.77622 0.11023 0.38691 0.0
Co28 Co 0.89222 0.74891 0.39322 0.0
O29 O 0.86672 0.7557 0.39146 0.0
O30 O 0.8901 0.77559 0.39502 0.0
C31 C 0.8921 0.72839 0.36954 0.0
O32 O 0.92016 0.74731 0.39452 0.0
Co33 Co 0.90316 0.70845 0.40323 0.0
O34 O 0.92871 0.71766 0.39888 0.0
C35 C 0.88805 0.73284 0.43203 0.0
C36 C 0.87246 0.7728 0.39318 0.0
C37 C 0.93256 0.73478 0.39614 0.0
O38 O 0.8902 0.74687 0.42116 0.0
O39 O 0.89041 0.71602 0.42679 0.0
O40 O 0.8934 0.7461 0.36617 0.0
O41 O 0.88899 0.7239 0.38663 0.0
Co42 Co 0.25149 0.89464 0.38892 0.0
O43 O 0.26018 0.89614 0.3637 0.0
O44 O 0.27815 0.89635 0.38867 0.0
C45 C 0.23141 0.87105 0.38425 0.0
O46 O 0.24753 0.89293 0.41702 0.0
Co47 Co 0.21063 0.90208 0.39868 0.0
O48 O 0.21716 0.88975 0.42241 0.0
C49 C 0.23593 0.93371 0.39128 0.0
C50 C 0.27667 0.89699 0.37064 0.0
C51 C 0.23385 0.88929 0.42787 0.0
O52 O 0.24953 0.92253 0.38975 0.0
O53 O 0.21928 0.9283 0.39402 0.0
O54 O 0.24871 0.86767 0.38712 0.0
O55 O 0.2271 0.88833 0.38275 0.0
Co56 Co 0.10645 0.74464 0.60338 0.0
O57 O 0.13147 0.75367 0.60382 0.0
O58 O 0.10677 0.77155 0.60316 0.0
C59 C 0.10912 0.72347 0.62613 0.0
O60 O 0.07869 0.74025 0.60337 0.0
Co61 Co 0.09846 0.70382 0.59176 0.0
O62 O 0.07258 0.70992 0.59808 0.0
C63 C 0.10978 0.73082 0.5635 0.0
C64 C 0.12462 0.77022 0.60344 0.0
C65 C 0.06738 0.7264 0.60178 0.0
O66 O 0.10721 0.74396 0.57535 0.0
O67 O 0.109 0.71358 0.56779 0.0
O68 O 0.10648 0.74084 0.6302 0.0
O69 O 0.1121 0.71983 0.60878 0.0
Co70 Co 0.25211 0.10812 0.60713 0.0
O71 O 0.24469 0.13378 0.60607 0.0
O72 O 0.22558 0.1095 0.60723 0.0
C73 C 0.27395 0.11177 0.62924 0.0
O74 O 0.25405 0.07994 0.6088 0.0
Co75 Co 0.29158 0.09496 0.59761 0.0
O76 O 0.28372 0.07159 0.61006 0.0
C77 C 0.2656 0.10466 0.56736 0.0
C78 C 0.22784 0.12743 0.6064 0.0
C79 C 0.26661 0.06779 0.61149 0.0
O80 O 0.25251 0.10708 0.57913 0.0
O81 O 0.28213 0.1007 0.57202 0.0
O82 O 0.2567 0.11009 0.63389 0.0
O83 O 0.27722 0.11264 0.61162 0.0
Co84 Co 0.89248 0.24944 0.60675 0.0
O85 O 0.86665 0.24327 0.60663 0.0
O86 O 0.88907 0.22281 0.60396 0.0
C87 C 0.89139 0.26899 0.63125 0.0
O88 O 0.92059 0.25072 0.60722 0.0
Co89 Co 0.90529 0.2901 0.59909 0.0
O90 O 0.9291 0.28091 0.60892 0.0
C91 C 0.89249 0.26662 0.56802 0.0
C92 C 0.8715 0.22607 0.60495 0.0
C93 C 0.93282 0.26365 0.60966 0.0
O94 O 0.89236 0.25245 0.57888 0.0
O95 O 0.89556 0.28328 0.57366 0.0
O96 O 0.89202 0.25115 0.63389 0.0
O97 O 0.88965 0.27423 0.61418 0.0
Co98 Co 0.75076 0.89016 0.61044 0.0
O99 O 0.75928 0.86502 0.60814 0.0
O100 O 0.77732 0.89015 0.60884 0.0
C101 C 0.73073 0.88482 0.63369 0.0
O102 O 0.74741 0.91811 0.61308 0.0
Co103 Co 0.71011 0.90116 0.60377 0.0
O104 O 0.71744 0.92454 0.61671 0.0
C105 C 0.73468 0.894 0.57168 0.0
C106 C 0.7758 0.87216 0.60761 0.0
C107 C 0.73437 0.92936 0.61712 0.0
O108 O 0.74852 0.89176 0.58259 0.0
O109 O 0.71828 0.89705 0.5774 0.0
O110 O 0.7481 0.88754 0.63734 0.0
O111 O 0.72629 0.88406 0.61632 0.0
Co112 Co 0.39081 0.10875 0.24775 0.0
O113 O 0.36496 0.10669 0.25334 0.0
O114 O 0.38754 0.10622 0.27423 0.0
C115 C 0.38889 0.13311 0.22834 0.0
O116 O 0.41876 0.11091 0.24734 0.0
Co117 Co 0.40517 0.10243 0.20754 0.0
O118 O 0.42855 0.11304 0.21772 0.0
C119 C 0.39229 0.07057 0.22999 0.0
C120 C 0.36998 0.10567 0.27064 0.0
C121 C 0.43146 0.1138 0.23519 0.0
O122 O 0.39202 0.08097 0.24457 0.0
O123 O 0.39539 0.0768 0.2136 0.0
O124 O 0.38906 0.13575 0.24622 0.0
O125 O 0.38804 0.11598 0.2229 0.0
Co126 Co 0.89128 0.39184 0.24827 0.0
O127 O 0.86549 0.3916 0.24187 0.0
O128 O 0.88839 0.39299 0.22158 0.0
C129 C 0.89007 0.36855 0.26913 0.0
O130 O 0.91928 0.39176 0.24936 0.0
Co131 Co 0.90446 0.40168 0.28834 0.0
O132 O 0.92852 0.39227 0.27928 0.0
C133 C 0.89126 0.43126 0.26366 0.0
C134 C 0.87074 0.39243 0.22461 0.0
C135 C 0.93181 0.39058 0.26196 0.0
O136 O 0.8913 0.4198 0.24989 0.0
O137 O 0.89432 0.42642 0.28051 0.0
O138 O 0.89065 0.36486 0.25144 0.0
O139 O 0.88837 0.38589 0.27347 0.0
Co140 Co 0.60886 0.8936 0.25048 0.0
O141 O 0.63429 0.89237 0.25737 0.0
O142 O 0.61112 0.89431 0.27737 0.0
C143 C 0.60985 0.87055 0.22945 0.0
O144 O 0.58092 0.89413 0.24811 0.0
Co145 Co 0.59853 0.90444 0.21024 0.0
O146 O 0.57438 0.89326 0.21751 0.0
C147 C 0.60998 0.93371 0.23659 0.0
C148 C 0.62877 0.89296 0.27449 0.0
C149 C 0.56954 0.89191 0.23451 0.0
O150 O 0.61021 0.92156 0.24967 0.0
O151 O 0.60712 0.92958 0.21948 0.0
O152 O 0.60783 0.86674 0.24697 0.0
O153 O 0.61295 0.88779 0.22537 0.0
Co154 Co 0.10682 0.60675 0.2491 0.0
O155 O 0.1328 0.60788 0.24356 0.0
O156 O 0.11054 0.60411 0.22267 0.0
C157 C 0.1066 0.63109 0.26883 0.0
O158 O 0.07873 0.60587 0.24896 0.0
Co159 Co 0.0917 0.59887 0.28866 0.0
O160 O 0.0684 0.60858 0.27829 0.0
C161 C 0.10531 0.56778 0.26581 0.0
C162 C 0.12803 0.60575 0.22624 0.0
C163 C 0.06573 0.60854 0.26079 0.0
O164 O 0.10794 0.57897 0.25212 0.0
O165 O 0.09965 0.57305 0.28183 0.0
O166 O 0.10634 0.63383 0.25096 0.0
O167 O 0.10858 0.61408 0.27412 0.0
Co168 Co 0.3881 0.89178 0.74765 0.0
O169 O 0.36244 0.89224 0.74078 0.0
O170 O 0.38576 0.89115 0.7209 0.0
C171 C 0.38594 0.86999 0.77001 0.0
O172 O 0.41608 0.89061 0.74935 0.0
Co173 Co 0.40064 0.90397 0.78738 0.0
O174 O 0.4256 0.89735 0.77847 0.0
C175 C 0.38661 0.93144 0.76106 0.0
C176 C 0.36808 0.89171 0.72364 0.0
C177 C 0.42884 0.89263 0.76168 0.0
O178 O 0.38887 0.91986 0.74761 0.0
O179 O 0.38833 0.92702 0.7782 0.0
O180 O 0.3865 0.86506 0.75261 0.0
O181 O 0.38464 0.88761 0.77309 0.0
Co182 Co 0.1062 0.39257 0.74848 0.0
O183 O 0.13148 0.39462 0.75611 0.0
O184 O 0.10757 0.39374 0.77536 0.0
C185 C 0.10969 0.36932 0.72793 0.0
O186 O 0.07836 0.39017 0.74523 0.0
Co187 Co 0.09698 0.40245 0.70739 0.0
O188 O 0.07167 0.39498 0.71496 0.0
C189 C 0.10654 0.43217 0.73366 0.0
C190 C 0.12533 0.39484 0.77302 0.0
C191 C 0.06686 0.39113 0.7316 0.0
O192 O 0.10485 0.42049 0.74706 0.0
O193 O 0.10604 0.42743 0.71649 0.0
O194 O 0.1083 0.36574 0.74557 0.0
O195 O 0.11119 0.38671 0.72363 0.0
Co196 Co 0.60864 0.10241 0.75151 0.0
O197 O 0.6338 0.10207 0.74295 0.0
O198 O 0.60923 0.10088 0.72463 0.0
C199 C 0.61207 0.12618 0.77168 0.0
O200 O 0.58073 0.10305 0.75491 0.0
Co201 Co 0.59826 0.09446 0.79256 0.0
O202 O 0.57458 0.10593 0.7854 0.0
C203 C 0.60684 0.06312 0.76745 0.0
C204 C 0.62708 0.10119 0.72622 0.0
C205 C 0.56959 0.10633 0.76841 0.0
O206 O 0.60859 0.07443 0.75369 0.0
O207 O 0.60352 0.0684 0.78414 0.0
O208 O 0.60951 0.1294 0.75411 0.0
O209 O 0.61406 0.10898 0.77629 0.0
Co210 Co 0.89503 0.60738 0.74994 0.0
O211 O 0.8692 0.60517 0.75568 0.0
O212 O 0.89188 0.6047 0.77642 0.0
C213 C 0.89284 0.63188 0.73074 0.0
O214 O 0.92297 0.60972 0.74947 0.0
Co215 Co 0.90941 0.60165 0.70964 0.0
O216 O 0.93273 0.61235 0.71988 0.0
C217 C 0.89707 0.56935 0.73181 0.0
C218 C 0.87431 0.60422 0.77296 0.0
C219 C 0.93566 0.61287 0.73736 0.0
O220 O 0.89644 0.57961 0.74649 0.0
O221 O 0.90019 0.57579 0.7155 0.0
O222 O 0.89311 0.63437 0.74863 0.0
O223 O 0.89211 0.61479 0.72515 0.0
Co224 Co 0.24856 0.38684 0.10664 0.0
O225 O 0.25873 0.36234 0.10841 0.0
O226 O 0.27496 0.38825 0.10352 0.0
C227 C 0.22979 0.384 0.13133 0.0
O228 O 0.24346 0.41451 0.10501 0.0
Co229 Co 0.20709 0.3942 0.10017 0.0
O230 O 0.21335 0.41948 0.10965 0.0
C231 C 0.23107 0.3846 0.06826 0.0
C232 C 0.27465 0.37033 0.10579 0.0
C233 C 0.22991 0.42535 0.10839 0.0
O234 O 0.24526 0.38395 0.07896 0.0
O235 O 0.21474 0.38777 0.07411 0.0
O236 O 0.24705 0.38846 0.13373 0.0
O237 O 0.22477 0.38024 0.1145 0.0
Co238 Co 0.25479 0.60684 0.89221 0.0
O239 O 0.24893 0.60452 0.86616 0.0
O240 O 0.2284 0.60652 0.88887 0.0
C241 C 0.27652 0.6292 0.88913 0.0
O242 O 0.25548 0.60989 0.9205 0.0
Co243 Co 0.29358 0.59741 0.90732 0.0
O244 O 0.2851 0.61114 0.92961 0.0
C245 C 0.26754 0.56697 0.89776 0.0
C246 C 0.23177 0.6051 0.87115 0.0
C247 C 0.26799 0.61308 0.93287 0.0
O248 O 0.25495 0.57893 0.89445 0.0
O249 O 0.2841 0.57148 0.90223 0.0
O250 O 0.25919 0.63345 0.8893 0.0
O251 O 0.28008 0.61163 0.88911 0.0
Co252 Co 0.39165 0.25341 0.89117 0.0
O253 O 0.36629 0.26065 0.89255 0.0
O254 O 0.3902 0.2802 0.89273 0.0
C255 C 0.38866 0.23305 0.86755 0.0
O256 O 0.41954 0.25096 0.88947 0.0
Co257 Co 0.40201 0.2124 0.89993 0.0
O258 O 0.42733 0.22099 0.89361 0.0
C259 C 0.39027 0.23722 0.92995 0.0
C260 C 0.37243 0.27766 0.8932 0.0
C261 C 0.43152 0.23793 0.89028 0.0
O262 O 0.39251 0.2513 0.91916 0.0
O263 O 0.39118 0.22036 0.92431 0.0
O264 O 0.38992 0.25075 0.86415 0.0
O265 O 0.3871 0.22856 0.88485 0.0
Co266 Co 0.74982 0.39506 0.89133 0.0
O267 O 0.7577 0.39454 0.86579 0.0
O268 O 0.77639 0.39717 0.89011 0.0
C269 C 0.72963 0.37118 0.889 0.0
O270 O 0.74686 0.39511 0.91962 0.0
Co271 Co 0.70933 0.40363 0.90189 0.0
O272 O 0.71661 0.39261 0.92601 0.0
C273 C 0.73454 0.43444 0.89183 0.0
C274 C 0.77438 0.39608 0.87216 0.0
C275 C 0.73343 0.39213 0.93098 0.0
O276 O 0.74789 0.42294 0.89046 0.0
O277 O 0.71794 0.42949 0.89551 0.0
O278 O 0.74709 0.36801 0.89107 0.0
O279 O 0.72522 0.38837 0.88672 0.0
Co280 Co 0.61178 0.7489 0.89072 0.0
O281 O 0.6365 0.7404 0.88729 0.0
O282 O 0.61239 0.72216 0.89349 0.0
C283 C 0.61157 0.76818 0.86619 0.0
O284 O 0.58427 0.75252 0.89413 0.0
Co285 Co 0.60376 0.79034 0.89905 0.0
O286 O 0.57833 0.78299 0.89125 0.0
C287 C 0.6177 0.76628 0.92897 0.0
C288 C 0.62995 0.72379 0.89018 0.0
C289 C 0.57305 0.76603 0.89199 0.0
O290 O 0.616 0.75202 0.91824 0.0
O291 O 0.61497 0.78297 0.92353 0.0
O292 O 0.60831 0.75052 0.86382 0.0
O293 O 0.6164 0.77326 0.88275 0.0
Co294 Co 0.74767 0.60955 0.10921 0.0
O295 O 0.7401 0.63505 0.10751 0.0
O296 O 0.72119 0.61059 0.10663 0.0
C297 C 0.76687 0.61364 0.13344 0.0
O298 O 0.75005 0.58139 0.111 0.0
Co299 Co 0.78815 0.59756 0.10371 0.0
O300 O 0.7797 0.57406 0.11554 0.0
C301 C 0.76504 0.60636 0.07094 0.0
C302 C 0.72338 0.62856 0.10617 0.0
C303 C 0.76265 0.56968 0.11516 0.0
O304 O 0.75089 0.60867 0.0814 0.0
O305 O 0.78112 0.6027 0.07719 0.0
O306 O 0.74932 0.61128 0.13627 0.0
O307 O 0.77207 0.61476 0.11632 0.0
Co308 Co 0.3926 0.74635 0.10725 0.0
O309 O 0.36767 0.73713 0.10687 0.0
O310 O 0.39252 0.71947 0.10602 0.0
C311 C 0.38909 0.76661 0.13082 0.0
O312 O 0.4203 0.75094 0.10781 0.0
Co313 Co 0.40095 0.78769 0.09821 0.0
O314 O 0.4257 0.7818 0.10842 0.0
C315 C 0.39125 0.76175 0.06789 0.0
C316 C 0.37466 0.72065 0.10611 0.0
C317 C 0.43119 0.76508 0.10972 0.0
O318 O 0.39242 0.74807 0.07928 0.0
O319 O 0.39249 0.77881 0.07294 0.0
O320 O 0.39205 0.74918 0.13424 0.0
O321 O 0.38658 0.77087 0.11357 0.0
Co322 Co 0.60945 0.24343 0.10251 0.0
O323 O 0.6349 0.25108 0.10437 0.0
O324 O 0.61141 0.27029 0.10179 0.0
C325 C 0.6102 0.22232 0.12558 0.0
O326 O 0.58142 0.24095 0.10156 0.0
Co327 Co 0.59847 0.20314 0.09157 0.0
O328 O 0.57331 0.21079 0.09858 0.0
C329 C 0.60956 0.22942 0.0622 0.0
C330 C 0.62908 0.26803 0.10346 0.0
C331 C 0.56923 0.22779 0.10107 0.0
O332 O 0.61122 0.24244 0.07445 0.0
O333 O 0.60546 0.21256 0.06629 0.0
O334 O 0.60824 0.23986 0.12936 0.0
O335 O 0.61335 0.21829 0.10835 0.0
Co336 Co 0.89172 0.75037 0.60884 0.0
O337 O 0.86704 0.75943 0.61044 0.0
O338 O 0.89177 0.7771 0.60527 0.0
C339 C 0.8895 0.73207 0.63404 0.0
O340 O 0.91945 0.74598 0.60735 0.0
Co341 Co 0.89958 0.70851 0.60306 0.0
O342 O 0.92411 0.71572 0.61313 0.0
C343 C 0.88983 0.73179 0.57071 0.0
C344 C 0.87403 0.77587 0.60769 0.0
C345 C 0.93005 0.73238 0.61151 0.0
O346 O 0.88895 0.74629 0.58119 0.0
O347 O 0.89326 0.71548 0.57682 0.0
O348 O 0.89339 0.74966 0.63596 0.0
O349 O 0.88587 0.72644 0.61736 0.0
Co350 Co 0.24491 0.89181 0.60635 0.0
O351 O 0.25305 0.89007 0.63175 0.0
O352 O 0.27155 0.89148 0.60724 0.0
C353 C 0.22261 0.86985 0.60803 0.0
O354 O 0.24148 0.89265 0.5782 0.0
Co355 Co 0.20525 0.90522 0.5978 0.0
O356 O 0.21195 0.89938 0.57166 0.0
C357 C 0.23317 0.9321 0.61051 0.0
C358 C 0.26969 0.89029 0.62519 0.0
C359 C 0.2282 0.89512 0.5666 0.0
O360 O 0.24563 0.91983 0.60786 0.0
O361 O 0.2159 0.9285 0.60933 0.0
O362 O 0.23969 0.8651 0.60585 0.0
O363 O 0.21991 0.88729 0.61112 0.0
Co364 Co 0.10919 0.24759 0.60773 0.0
O365 O 0.13426 0.23958 0.6095 0.0
O366 O 0.11014 0.2207 0.60572 0.0
C367 C 0.11098 0.26772 0.63171 0.0
O368 O 0.08126 0.25081 0.6064 0.0
Co369 Co 0.10046 0.289 0.59928 0.0
O370 O 0.07475 0.28129 0.60464 0.0
C371 C 0.11082 0.2638 0.56862 0.0
C372 C 0.12788 0.22275 0.60771 0.0
C373 C 0.06976 0.2643 0.60603 0.0
O374 O 0.11139 0.24988 0.57981 0.0
O375 O 0.10779 0.2805 0.57387 0.0
O376 O 0.10787 0.25016 0.63481 0.0
O377 O 0.11429 0.27222 0.61469 0.0
Co378 Co 0.74946 0.10556 0.60917 0.0
O379 O 0.74014 0.10939 0.63392 0.0
O380 O 0.72274 0.10511 0.60886 0.0
C381 C 0.77123 0.12815 0.60987 0.0
O382 O 0.7542 0.10224 0.58142 0.0
Co383 Co 0.78973 0.09263 0.60376 0.0
O384 O 0.78423 0.09613 0.5769 0.0
C385 C 0.76193 0.066 0.61697 0.0
C386 C 0.72379 0.10783 0.62675 0.0
C387 C 0.76812 0.09938 0.57073 0.0
O388 O 0.74933 0.07779 0.61314 0.0
O389 O 0.77916 0.06989 0.61614 0.0
O390 O 0.75419 0.13221 0.60623 0.0
O391 O 0.77407 0.11122 0.61489 0.0
Co392 Co 0.89449 0.24791 0.39013 0.0
O393 O 0.89609 0.25267 0.36376 0.0
O394 O 0.89544 0.27435 0.38579 0.0
C395 C 0.87157 0.22659 0.38866 0.0
O396 O 0.89247 0.24875 0.41845 0.0
Co397 Co 0.90274 0.20933 0.40715 0.0
O398 O 0.89057 0.21961 0.42956 0.0
C399 C 0.93355 0.23376 0.39514 0.0
C400 C 0.89614 0.27019 0.36821 0.0
C401 C 0.88945 0.23713 0.43173 0.0
O402 O 0.92216 0.24684 0.3916 0.0
O403 O 0.92852 0.21752 0.40058 0.0
O404 O 0.86792 0.24422 0.38817 0.0
O405 O 0.88883 0.22241 0.38837 0.0
Co406 Co 0.74934 0.88831 0.39395 0.0
O407 O 0.75696 0.86281 0.39492 0.0
O408 O 0.77591 0.88728 0.39464 0.0
C409 C 0.72839 0.88468 0.37114 0.0
O410 O 0.74678 0.91637 0.3926 0.0
Co411 Co 0.70909 0.89967 0.4028 0.0
O412 O 0.71681 0.92385 0.39163 0.0
C413 C 0.73422 0.88855 0.43306 0.0
C414 C 0.77373 0.86931 0.39515 0.0
C415 C 0.73383 0.92817 0.39026 0.0
O416 O 0.74803 0.88913 0.42189 0.0
O417 O 0.71749 0.89056 0.42781 0.0
O418 O 0.74572 0.88681 0.36704 0.0
O419 O 0.72456 0.88322 0.38859 0.0
Co420 Co 0.10593 0.75456 0.38731 0.0
O421 O 0.10327 0.74949 0.36107 0.0
O422 O 0.10405 0.72813 0.38328 0.0
C423 C 0.12943 0.77506 0.38493 0.0
O424 O 0.10891 0.75407 0.41551 0.0
Co425 Co 0.09934 0.79353 0.40429 0.0
O426 O 0.11182 0.78325 0.42648 0.0
C427 C 0.06745 0.76968 0.39397 0.0
C428 C 0.10291 0.73205 0.36569 0.0
C429 C 0.11254 0.76572 0.42869 0.0
O430 O 0.07841 0.75643 0.38973 0.0
O431 O 0.07302 0.78582 0.39929 0.0
O432 O 0.13246 0.75732 0.38447 0.0
O433 O 0.11233 0.77989 0.38514 0.0
Co434 Co 0.24973 0.11052 0.39023 0.0
O435 O 0.24176 0.13584 0.38861 0.0
O436 O 0.22317 0.11122 0.39115 0.0
C437 C 0.27062 0.11191 0.36725 0.0
O438 O 0.25285 0.08248 0.39121 0.0
Co439 Co 0.29018 0.10177 0.40144 0.0
O440 O 0.28247 0.07553 0.39703 0.0
C441 C 0.26423 0.11475 0.42973 0.0
C442 C 0.22509 0.12915 0.38961 0.0
C443 C 0.26588 0.07073 0.39343 0.0
O444 O 0.25083 0.11226 0.41823 0.0
O445 O 0.28117 0.1134 0.4251 0.0
O446 O 0.25325 0.10976 0.36328 0.0
O447 O 0.27447 0.11516 0.38449 0.0
Co448 Co 0.60115 0.88608 0.74343 0.0
O449 O 0.60103 0.85983 0.74841 0.0
O450 O 0.598 0.88185 0.7698 0.0
C451 C 0.62578 0.88617 0.72456 0.0
O452 O 0.60165 0.91449 0.74365 0.0
Co453 Co 0.59404 0.90046 0.7035 0.0
O454 O 0.6002 0.92512 0.71424 0.0
C455 C 0.56262 0.88781 0.72612 0.0
C456 C 0.59909 0.86424 0.76581 0.0
C457 C 0.60188 0.9278 0.73169 0.0
O458 O 0.57359 0.88547 0.73994 0.0
O459 O 0.56812 0.89277 0.70994 0.0
O460 O 0.62791 0.88619 0.74249 0.0
O461 O 0.60904 0.88418 0.71859 0.0
Co462 Co 0.10898 0.60884 0.75308 0.0
O463 O 0.1102 0.63472 0.74626 0.0
O464 O 0.10728 0.61118 0.72641 0.0
C465 C 0.13237 0.60961 0.77362 0.0
O466 O 0.10808 0.58063 0.75452 0.0
Co467 Co 0.09926 0.59662 0.79336 0.0
O468 O 0.10651 0.57155 0.78442 0.0
C469 C 0.0701 0.61024 0.76874 0.0
C470 C 0.10869 0.62901 0.72915 0.0
C471 C 0.10829 0.568 0.76714 0.0
O472 O 0.08137 0.60981 0.75498 0.0
O473 O 0.0749 0.60726 0.78561 0.0
O474 O 0.13575 0.60853 0.75591 0.0
O475 O 0.11537 0.61203 0.77819 0.0
Co476 Co 0.39291 0.10831 0.75066 0.0
O477 O 0.36793 0.11041 0.74228 0.0
O478 O 0.39196 0.10607 0.72377 0.0
C479 C 0.39186 0.13258 0.77036 0.0
O480 O 0.42076 0.10658 0.75444 0.0
Co481 Co 0.40096 0.09979 0.79215 0.0
O482 O 0.42691 0.10457 0.7851 0.0
C483 C 0.3899 0.06922 0.76693 0.0
C484 C 0.3743 0.10837 0.72559 0.0
C485 C 0.4321 0.10598 0.76823 0.0
O486 O 0.38983 0.08049 0.75307 0.0
O487 O 0.39295 0.07438 0.78372 0.0
O488 O 0.39511 0.1353 0.75281 0.0
O489 O 0.38788 0.11572 0.77514 0.0
Co490 Co 0.89136 0.39183 0.74964 0.0
O491 O 0.86624 0.39446 0.75767 0.0
O492 O 0.8906 0.395 0.77635 0.0
C493 C 0.88641 0.3672 0.73082 0.0
O494 O 0.91915 0.38908 0.74675 0.0
Co495 Co 0.9029 0.39629 0.70839 0.0
O496 O 0.92542 0.38337 0.71671 0.0
C497 C 0.89624 0.42974 0.73139 0.0
C498 C 0.87283 0.39591 0.77441 0.0
C499 C 0.93019 0.38395 0.73376 0.0
O500 O 0.89333 0.41957 0.74581 0.0
O501 O 0.89958 0.42315 0.71519 0.0
O502 O 0.88861 0.36481 0.74859 0.0
O503 O 0.88577 0.38423 0.72525 0.0
Co504 Co 0.60492 0.10958 0.25428 0.0
O505 O 0.60719 0.13514 0.24661 0.0
O506 O 0.60441 0.11105 0.22744 0.0
C507 C 0.62739 0.11069 0.27586 0.0
O508 O 0.60324 0.08146 0.25669 0.0
Co509 Co 0.59376 0.09864 0.29441 0.0
O510 O 0.60345 0.07387 0.287 0.0
C511 C 0.56554 0.11192 0.26832 0.0
C512 C 0.60617 0.12893 0.22966 0.0
C513 C 0.60466 0.06951 0.26985 0.0
O514 O 0.57731 0.1114 0.25499 0.0
O515 O 0.56967 0.10892 0.28536 0.0
O516 O 0.63148 0.10837 0.2584 0.0
O517 O 0.61029 0.11379 0.27946 0.0
Co518 Co 0.89265 0.60835 0.2478 0.0
O519 O 0.89519 0.63437 0.25376 0.0
O520 O 0.89513 0.61144 0.27437 0.0
C521 C 0.8686 0.61091 0.22823 0.0
O522 O 0.89006 0.58016 0.24696 0.0
Co523 Co 0.89899 0.59424 0.20745 0.0
O524 O 0.88822 0.5706 0.21715 0.0
C525 C 0.93072 0.60552 0.23061 0.0
C526 C 0.89607 0.62918 0.27101 0.0
C527 C 0.88731 0.56747 0.23457 0.0
O528 O 0.9201 0.60649 0.24486 0.0
O529 O 0.92483 0.60262 0.21403 0.0
O530 O 0.86599 0.61061 0.2461 0.0
O531 O 0.88561 0.61154 0.2229 0.0
Co532 Co 0.39275 0.89289 0.24659 0.0
O533 O 0.36741 0.89236 0.25451 0.0
O534 O 0.39141 0.89627 0.27328 0.0
C535 C 0.39084 0.86792 0.22758 0.0
O536 O 0.42077 0.89317 0.24381 0.0
Co537 Co 0.40298 0.89942 0.20493 0.0
O538 O 0.42834 0.8944 0.21343 0.0
C539 C 0.39321 0.93138 0.22858 0.0
C540 C 0.37365 0.89474 0.27129 0.0
C541 C 0.4327 0.8932 0.23055 0.0
O542 O 0.39185 0.92075 0.24291 0.0
O543 O 0.39651 0.92541 0.21214 0.0
O544 O 0.39268 0.86568 0.24542 0.0
O545 O 0.3884 0.88478 0.22214 0.0
Co546 Co 0.10601 0.39175 0.24745 0.0
O547 O 0.10429 0.36608 0.25465 0.0
O548 O 0.10469 0.39006 0.27422 0.0
C549 C 0.12929 0.38882 0.22715 0.0
O550 O 0.10808 0.41989 0.24511 0.0
Co551 Co 0.09693 0.40274 0.20676 0.0
O552 O 0.10399 0.42816 0.2152 0.0
C553 C 0.06698 0.39185 0.23194 0.0
C554 C 0.10396 0.37215 0.27166 0.0
C555 C 0.1074 0.43219 0.23216 0.0
O556 O 0.07835 0.39277 0.24565 0.0
O557 O 0.07198 0.39338 0.21493 0.0
O558 O 0.1326 0.39001 0.24487 0.0
O559 O 0.11212 0.38733 0.22248 0.0
Co560 Co 0.75427 0.6101 0.89273 0.0
O561 O 0.74631 0.63552 0.89358 0.0
O562 O 0.72772 0.61078 0.89303 0.0
C563 C 0.77552 0.6133 0.87019 0.0
O564 O 0.75722 0.58206 0.89133 0.0
Co565 Co 0.79451 0.60009 0.90359 0.0
O566 O 0.78658 0.57428 0.89736 0.0
C567 C 0.76844 0.61181 0.93232 0.0
C568 C 0.72961 0.62877 0.89356 0.0
C569 C 0.77002 0.56997 0.89306 0.0
O570 O 0.75505 0.60949 0.92078 0.0
O571 O 0.7854 0.61094 0.92758 0.0
O572 O 0.75818 0.6117 0.86587 0.0
O573 O 0.77913 0.61506 0.8877 0.0
Co574 Co 0.74654 0.39311 0.10875 0.0
O575 O 0.75576 0.39102 0.13375 0.0
O576 O 0.77318 0.39372 0.10849 0.0
C577 C 0.72517 0.37017 0.11035 0.0
O578 O 0.74212 0.39471 0.08086 0.0
Co579 Co 0.70624 0.40493 0.10182 0.0
O580 O 0.7121 0.3998 0.07529 0.0
C581 C 0.73339 0.43288 0.11405 0.0
C582 C 0.77207 0.39212 0.12646 0.0
C583 C 0.72842 0.39659 0.06969 0.0
O584 O 0.74625 0.42108 0.11121 0.0
O585 O 0.71624 0.42865 0.11301 0.0
O586 O 0.74233 0.3663 0.10718 0.0
O587 O 0.72189 0.38732 0.11445 0.0
Co588 Co 0.60804 0.75188 0.10615 0.0
O589 O 0.63318 0.7439 0.10789 0.0
O590 O 0.60904 0.72511 0.10373 0.0
C591 C 0.60907 0.77176 0.13043 0.0
O592 O 0.5801 0.75486 0.10487 0.0
Co593 Co 0.59894 0.79325 0.09762 0.0
O594 O 0.5733 0.78528 0.10283 0.0
C595 C 0.61026 0.76851 0.06711 0.0
C596 C 0.62676 0.7271 0.10578 0.0
C597 C 0.5685 0.76826 0.10443 0.0
O598 O 0.61044 0.75453 0.07824 0.0
O599 O 0.60704 0.78517 0.07231 0.0
O600 O 0.60679 0.75404 0.13326 0.0
O601 O 0.61248 0.77654 0.11348 0.0
Co602 Co 0.2522 0.60229 0.10993 0.0
O603 O 0.24454 0.60093 0.13548 0.0
O604 O 0.22569 0.6042 0.11143 0.0
C605 C 0.27556 0.62281 0.11382 0.0
O606 O 0.25527 0.60456 0.0818 0.0
Co607 Co 0.29122 0.58804 0.09943 0.0
O608 O 0.28419 0.59643 0.07415 0.0
C609 C 0.26213 0.5615 0.10984 0.0
C610 C 0.22784 0.60257 0.12932 0.0
C611 C 0.26821 0.60219 0.0698 0.0
O612 O 0.25015 0.57436 0.10799 0.0
O613 O 0.27953 0.56456 0.10919 0.0
O614 O 0.25871 0.6286 0.11271 0.0
O615 O 0.27742 0.60502 0.11475 0.0
Co616 Co 0.39408 0.25245 0.10715 0.0
O617 O 0.36897 0.26032 0.1061 0.0
O618 O 0.39327 0.27921 0.10423 0.0
C619 C 0.39037 0.23356 0.13172 0.0
O620 O 0.42199 0.24932 0.10816 0.0
Co621 Co 0.40413 0.2111 0.10132 0.0
O622 O 0.42777 0.21907 0.11288 0.0
C623 C 0.39545 0.23451 0.06878 0.0
C624 C 0.37543 0.27711 0.10424 0.0
C625 C 0.433 0.23604 0.11228 0.0
O626 O 0.39398 0.24886 0.07937 0.0
O627 O 0.39865 0.21815 0.07487 0.0
O628 O 0.39322 0.25126 0.13427 0.0
O629 O 0.3885 0.22812 0.11469 0.0
Co630 Co 0.24749 0.39099 0.89109 0.0
O631 O 0.25551 0.36567 0.88868 0.0
O632 O 0.27404 0.39027 0.89175 0.0
C633 C 0.22612 0.39012 0.8684 0.0
O634 O 0.24459 0.41903 0.89293 0.0
Co635 Co 0.20738 0.4001 0.90297 0.0
O636 O 0.21513 0.42638 0.89888 0.0
C637 C 0.23326 0.38502 0.93018 0.0
C638 C 0.27218 0.37236 0.88992 0.0
C639 C 0.23179 0.431 0.89541 0.0
O640 O 0.24669 0.38848 0.91902 0.0
O641 O 0.21632 0.38657 0.92555 0.0
O642 O 0.24342 0.39235 0.86418 0.0
O643 O 0.22265 0.38659 0.88563 0.0
Co644 Co 0.6056 0.25349 0.8866 0.0
O645 O 0.60596 0.24657 0.86073 0.0
O646 O 0.60338 0.22674 0.88411 0.0
C647 C 0.62956 0.27346 0.88533 0.0
O648 O 0.60577 0.25522 0.91495 0.0
Co649 Co 0.59778 0.29389 0.89893 0.0
O650 O 0.60455 0.28513 0.9241 0.0
C651 C 0.56684 0.2696 0.88732 0.0
C652 C 0.60446 0.22945 0.86625 0.0
C653 C 0.60626 0.2679 0.92765 0.0
O654 O 0.57792 0.25587 0.88569 0.0
O655 O 0.57218 0.28614 0.89145 0.0
O656 O 0.63235 0.25575 0.88697 0.0
O657 O 0.61269 0.27842 0.88287 0.0
Co658 Co 0.39775 0.75014 0.89053 0.0
O659 O 0.39842 0.75724 0.86479 0.0
O660 O 0.39787 0.77697 0.8886 0.0
C661 C 0.37534 0.72851 0.88769 0.0
O662 O 0.39663 0.74796 0.91872 0.0
Co663 Co 0.40774 0.71017 0.90248 0.0
O664 O 0.39643 0.7177 0.92654 0.0
C665 C 0.43718 0.73658 0.89159 0.0
C666 C 0.3982 0.7743 0.87069 0.0
C667 C 0.39465 0.73483 0.93069 0.0
O668 O 0.42546 0.74981 0.89124 0.0
O669 O 0.43269 0.71949 0.89413 0.0
O670 O 0.37122 0.74594 0.88941 0.0
O671 O 0.39264 0.72487 0.88605 0.0
C672 C 0.09075 0.34437 0.28734 0.0
C673 C 0.10354 0.35908 0.28727 0.0
C674 C 0.09104 0.33091 0.30141 0.0
C675 C 0.10503 0.33178 0.31515 0.0
C676 C 0.11796 0.34672 0.31512 0.0
C677 C 0.1168 0.36045 0.30135 0.0
C678 C 0.07657 0.31563 0.3014 0.0
C679 C 0.13347 0.34775 0.32912 0.0
C680 C 0.10026 0.30423 0.35991 0.0
C681 C 0.10945 0.28786 0.35533 0.0
C682 C 0.09836 0.31852 0.34682 0.0
C683 C 0.10658 0.31665 0.32908 0.0
C684 C 0.11623 0.30025 0.32456 0.0
C685 C 0.11719 0.28585 0.33764 0.0
C686 C 0.08732 0.33545 0.35188 0.0
C687 C 0.12572 0.298 0.30602 0.0
H688 H 0.08048 0.34344 0.27639 0.0
H689 H 0.12682 0.37176 0.30104 0.0
H690 H 0.08304 0.3021 0.29831 0.0
H691 H 0.07011 0.3145 0.31535 0.0
H692 H 0.0656 0.31805 0.29092 0.0
H693 H 0.1423 0.36034 0.32725 0.0
H694 H 0.12789 0.34781 0.34347 0.0
H695 H 0.14219 0.33526 0.32775 0.0
H696 H 0.09413 0.30568 0.37356 0.0
H697 H 0.12441 0.27319 0.33421 0.0
H698 H 0.07607 0.33734 0.34161 0.0
H699 H 0.0962 0.34809 0.35136 0.0
H700 H 0.08117 0.33439 0.36599 0.0
H701 H 0.11542 0.2981 0.29463 0.0
H702 H 0.13354 0.28485 0.30513 0.0
H703 H 0.13537 0.30985 0.30364 0.0
C704 C 0.69497 0.09582 0.36326 0.0
C705 C 0.71089 0.10664 0.3605 0.0
C706 C 0.6807 0.09565 0.34998 0.0
C707 C 0.68224 0.10705 0.33398 0.0
C708 C 0.69806 0.11849 0.33155 0.0
C709 C 0.71232 0.1179 0.34468 0.0
C710 C 0.66427 0.08288 0.35277 0.0
C711 C 0.70001 0.13127 0.31502 0.0
C712 C 0.65595 0.09709 0.28921 0.0
C713 C 0.64113 0.10924 0.29086 0.0
C714 C 0.66898 0.09559 0.30357 0.0
C715 C 0.66748 0.10701 0.31959 0.0
C716 C 0.65248 0.11928 0.32127 0.0
C717 C 0.6393 0.11999 0.30701 0.0
C718 C 0.68446 0.08193 0.30151 0.0
C719 C 0.6507 0.13213 0.33782 0.0
H720 H 0.694 0.08696 0.3754 0.0
H721 H 0.72462 0.12635 0.34262 0.0
H722 H 0.6514 0.09101 0.35287 0.0
H723 H 0.66324 0.0729 0.341 0.0
H724 H 0.66514 0.07493 0.36596 0.0
H725 H 0.71266 0.14011 0.31581 0.0
H726 H 0.7005 0.12298 0.302 0.0
H727 H 0.68788 0.14045 0.31406 0.0
H728 H 0.65718 0.08858 0.27681 0.0
H729 H 0.62782 0.12942 0.30823 0.0
H730 H 0.68533 0.07305 0.31408 0.0
H731 H 0.69778 0.08954 0.30023 0.0
H732 H 0.68266 0.07283 0.28911 0.0
H733 H 0.65056 0.12402 0.35091 0.0
H734 H 0.63799 0.14055 0.3372 0.0
H735 H 0.66279 0.14171 0.33844 0.0
C736 C 0.88569 0.71652 0.33761 0.0
C737 C 0.89419 0.71423 0.35492 0.0
C738 C 0.88645 0.70248 0.32402 0.0
C739 C 0.89665 0.6862 0.3276 0.0
C740 C 0.90588 0.68423 0.34483 0.0
C741 C 0.90416 0.6981 0.35847 0.0
C742 C 0.87586 0.70481 0.3061 0.0
C743 C 0.91752 0.66748 0.34888 0.0
C744 C 0.88482 0.6419 0.301 0.0
C745 C 0.89714 0.64299 0.28608 0.0
C746 C 0.88441 0.65598 0.31455 0.0
C747 C 0.89719 0.67101 0.31353 0.0
C748 C 0.91018 0.6717 0.29885 0.0
C749 C 0.90969 0.65788 0.28501 0.0
C750 C 0.86991 0.65509 0.32958 0.0
C751 C 0.92452 0.68705 0.29771 0.0
H752 H 0.87786 0.72898 0.335 0.0
H753 H 0.91083 0.69644 0.37184 0.0
H754 H 0.88537 0.70435 0.29406 0.0
H755 H 0.86582 0.69315 0.3044 0.0
H756 H 0.86828 0.71812 0.30567 0.0
H757 H 0.92507 0.66885 0.36228 0.0
H758 H 0.9087 0.6548 0.34946 0.0
H759 H 0.92766 0.66542 0.33754 0.0
H760 H 0.87498 0.63044 0.3016 0.0
H761 H 0.91923 0.65859 0.27344 0.0
H762 H 0.86136 0.66776 0.32909 0.0
H763 H 0.87652 0.65472 0.34348 0.0
H764 H 0.86072 0.64269 0.32813 0.0
H765 H 0.91776 0.70056 0.29528 0.0
H766 H 0.93458 0.68467 0.28635 0.0
H767 H 0.93211 0.68822 0.31109 0.0
C768 C 0.36472 0.9068 0.30268 0.0
C769 C 0.36099 0.89529 0.28733 0.0
C770 C 0.35215 0.90802 0.3175 0.0
C771 C 0.33585 0.89695 0.31721 0.0
C772 C 0.33242 0.88481 0.302 0.0
C773 C 0.34486 0.8844 0.28709 0.0
C774 C 0.35598 0.92159 0.33314 0.0
C775 C 0.3155 0.87237 0.30136 0.0
C776 C 0.30842 0.88769 0.36143 0.0
C777 C 0.29283 0.8985 0.35833 0.0
C778 C 0.32283 0.88735 0.34837 0.0
C779 C 0.32183 0.8986 0.33224 0.0
C780 C 0.30656 0.91038 0.32971 0.0
C781 C 0.29207 0.9099 0.3426 0.0
C782 C 0.33858 0.87418 0.3513 0.0
C783 C 0.30522 0.92307 0.31308 0.0
H784 H 0.37716 0.91531 0.30278 0.0
H785 H 0.34207 0.87535 0.27529 0.0
H786 H 0.34501 0.93218 0.33355 0.0
H787 H 0.35575 0.91431 0.34671 0.0
H788 H 0.36951 0.92882 0.33156 0.0
H789 H 0.3157 0.86259 0.28936 0.0
H790 H 0.31438 0.86418 0.31438 0.0
H791 H 0.30297 0.88095 0.30031 0.0
H792 H 0.30888 0.87878 0.37355 0.0
H793 H 0.28003 0.91838 0.34033 0.0
H794 H 0.35197 0.88166 0.35003 0.0
H795 H 0.3382 0.86327 0.34035 0.0
H796 H 0.33797 0.86732 0.36512 0.0
H797 H 0.31825 0.9311 0.31128 0.0
H798 H 0.29368 0.93298 0.31438 0.0
H799 H 0.30305 0.91466 0.30028 0.0
C800 C 0.11902 0.65874 0.71466 0.0
C801 C 0.1086 0.64226 0.71356 0.0
C802 C 0.11923 0.67146 0.69991 0.0
C803 C 0.1082 0.66791 0.68399 0.0
C804 C 0.09743 0.65137 0.68294 0.0
C805 C 0.09803 0.63855 0.69763 0.0
C806 C 0.13135 0.68865 0.70131 0.0
C807 C 0.085 0.64741 0.6665 0.0
C808 C 0.09643 0.71059 0.65561 0.0
C809 C 0.10833 0.70885 0.64041 0.0
C810 C 0.09576 0.69699 0.66955 0.0
C811 C 0.10779 0.68167 0.66858 0.0
C812 C 0.11986 0.67989 0.65321 0.0
C813 C 0.11972 0.69335 0.6391 0.0
C814 C 0.08224 0.69905 0.68535 0.0
C815 C 0.13329 0.66409 0.65197 0.0
H816 H 0.12731 0.66151 0.72695 0.0
H817 H 0.08985 0.62585 0.69687 0.0
H818 H 0.14063 0.6895 0.68907 0.0
H819 H 0.12275 0.70127 0.70123 0.0
H820 H 0.13988 0.68881 0.71415 0.0
H821 H 0.0772 0.63411 0.66802 0.0
H822 H 0.07504 0.65886 0.66484 0.0
H823 H 0.09324 0.64677 0.65354 0.0
H824 H 0.08747 0.72251 0.65647 0.0
H825 H 0.12899 0.6921 0.62736 0.0
H826 H 0.08979 0.70122 0.69862 0.0
H827 H 0.07383 0.68615 0.68684 0.0
H828 H 0.07285 0.71094 0.68326 0.0
H829 H 0.14265 0.66448 0.66419 0.0
H830 H 0.14175 0.66471 0.63911 0.0
H831 H 0.12581 0.65056 0.65229 0.0
C832 C 0.30717 0.1156 0.63739 0.0
C833 C 0.28916 0.11095 0.64289 0.0
C834 C 0.32189 0.11495 0.65001 0.0
C835 C 0.31857 0.10923 0.66853 0.0
C836 C 0.30046 0.10422 0.6741 0.0
C837 C 0.28592 0.10529 0.66124 0.0
C838 C 0.34093 0.12072 0.64362 0.0
C839 C 0.29643 0.09781 0.69368 0.0
C840 C 0.35907 0.09363 0.69809 0.0
C841 C 0.36171 0.10912 0.70964 0.0
C842 C 0.34505 0.09343 0.68456 0.0
C843 C 0.3339 0.10931 0.6823 0.0
C844 C 0.33712 0.12524 0.69352 0.0
C845 C 0.35078 0.12481 0.7073 0.0
C846 C 0.34173 0.07603 0.67318 0.0
C847 C 0.32591 0.14263 0.69122 0.0
H848 H 0.30975 0.12001 0.62321 0.0
H849 H 0.27205 0.10154 0.66551 0.0
H850 H 0.34589 0.13282 0.65193 0.0
H851 H 0.35075 0.10927 0.64594 0.0
H852 H 0.34125 0.12454 0.62866 0.0
H853 H 0.28181 0.09343 0.69551 0.0
H854 H 0.30538 0.08597 0.69731 0.0
H855 H 0.29957 0.1092 0.70367 0.0
H856 H 0.36737 0.0814 0.70024 0.0
H857 H 0.35285 0.13672 0.7164 0.0
H858 H 0.34252 0.07925 0.65812 0.0
H859 H 0.32765 0.0705 0.67593 0.0
H860 H 0.35182 0.06501 0.67639 0.0
H861 H 0.32628 0.14726 0.67651 0.0
H862 H 0.331 0.15421 0.70019 0.0
H863 H 0.3113 0.13966 0.69477 0.0
C864 C 0.88128 0.27875 0.66279 0.0
C865 C 0.89169 0.28234 0.6468 0.0
C866 C 0.8803 0.29195 0.67718 0.0
C867 C 0.89066 0.30872 0.67584 0.0
C868 C 0.90185 0.31199 0.66001 0.0
C869 C 0.90184 0.29896 0.64544 0.0
C870 C 0.86763 0.28827 0.69345 0.0
C871 C 0.91367 0.32934 0.65838 0.0
C872 C 0.87578 0.35219 0.7015 0.0
C873 C 0.88684 0.35169 0.71744 0.0
C874 C 0.87646 0.33794 0.68816 0.0
C875 C 0.88909 0.32328 0.69049 0.0
C876 C 0.90042 0.32282 0.70654 0.0
C877 C 0.8989 0.3369 0.72004 0.0
C878 C 0.86373 0.33864 0.67156 0.0
C879 C 0.91453 0.30782 0.70917 0.0
H880 H 0.8733 0.26593 0.66369 0.0
H881 H 0.90993 0.30167 0.63307 0.0
H882 H 0.87546 0.28895 0.70669 0.0
H883 H 0.85699 0.29919 0.69409 0.0
H884 H 0.86063 0.27448 0.69245 0.0
H885 H 0.92305 0.32881 0.64619 0.0
H886 H 0.9048 0.34168 0.65696 0.0
H887 H 0.92208 0.33134 0.67116 0.0
H888 H 0.86644 0.36367 0.69957 0.0
H889 H 0.90765 0.33673 0.73227 0.0
H890 H 0.85594 0.32532 0.6702 0.0
H891 H 0.87187 0.3405 0.65864 0.0
H892 H 0.85375 0.35017 0.67259 0.0
H893 H 0.90774 0.29393 0.70908 0.0
H894 H 0.92232 0.30951 0.72239 0.0
H895 H 0.92444 0.30811 0.69742 0.0
C896 C 0.71781 0.8966 0.66357 0.0
C897 C 0.71644 0.88472 0.64815 0.0
C898 C 0.70334 0.89771 0.67647 0.0
C899 C 0.68751 0.88618 0.67414 0.0
C900 C 0.68639 0.87376 0.65885 0.0
C901 C 0.70074 0.87345 0.64584 0.0
C902 C 0.70474 0.91155 0.69225 0.0
C903 C 0.67004 0.86081 0.6562 0.0
C904 C 0.65724 0.87628 0.71604 0.0
C905 C 0.64167 0.88678 0.71194 0.0
C906 C 0.6723 0.87595 0.70385 0.0
C907 C 0.67203 0.88704 0.68762 0.0
C908 C 0.65655 0.89823 0.68381 0.0
C909 C 0.64132 0.89763 0.69584 0.0
C910 C 0.68819 0.86328 0.70802 0.0
C911 C 0.65604 0.91075 0.667 0.0
H912 H 0.72988 0.90552 0.66513 0.0
H913 H 0.69975 0.86426 0.63388 0.0
H914 H 0.69306 0.92133 0.69155 0.0
H915 H 0.70377 0.90427 0.7058 0.0
H916 H 0.71785 0.9197 0.69192 0.0
H917 H 0.67184 0.85123 0.64421 0.0
H918 H 0.66779 0.85241 0.66894 0.0
H919 H 0.6574 0.86898 0.65387 0.0
H920 H 0.65736 0.8678 0.72849 0.0
H921 H 0.62929 0.90587 0.69284 0.0
H922 H 0.70124 0.87143 0.7089 0.0
H923 H 0.68975 0.85307 0.69654 0.0
H924 H 0.68626 0.85557 0.72126 0.0
H925 H 0.66863 0.91965 0.66654 0.0
H926 H 0.64377 0.91982 0.66699 0.0
H927 H 0.65581 0.90223 0.65411 0.0
C928 C 0.34084 0.09314 0.28398 0.0
C929 C 0.35621 0.10497 0.28555 0.0
C930 C 0.32705 0.09311 0.29764 0.0
C931 C 0.32834 0.10586 0.31266 0.0
C932 C 0.34388 0.11789 0.31421 0.0
C933 C 0.35787 0.117 0.3008 0.0
C934 C 0.3111 0.07952 0.29596 0.0
C935 C 0.34543 0.13215 0.32963 0.0
C936 C 0.28355 0.11915 0.3361 0.0
C937 C 0.28506 0.10998 0.35314 0.0
C938 C 0.29769 0.11815 0.32287 0.0
C939 C 0.31322 0.10698 0.3265 0.0
C940 C 0.31444 0.09717 0.34349 0.0
C941 C 0.30053 0.09918 0.35683 0.0
C942 C 0.29625 0.12941 0.30524 0.0
C943 C 0.33035 0.08448 0.34752 0.0
H944 H 0.3397 0.08381 0.27215 0.0
H945 H 0.36972 0.12629 0.30178 0.0
H946 H 0.30936 0.07169 0.30914 0.0
H947 H 0.29815 0.08715 0.29348 0.0
H948 H 0.31301 0.06945 0.2844 0.0
H949 H 0.35825 0.14069 0.32862 0.0
H950 H 0.33343 0.14154 0.32913 0.0
H951 H 0.34519 0.12519 0.34336 0.0
H952 H 0.27158 0.12761 0.33342 0.0
H953 H 0.30158 0.09202 0.37001 0.0
H954 H 0.29615 0.12006 0.29294 0.0
H955 H 0.30844 0.13878 0.30392 0.0
H956 H 0.28361 0.13794 0.30489 0.0
H957 H 0.33192 0.07429 0.33602 0.0
H958 H 0.32848 0.07676 0.36077 0.0
H959 H 0.34336 0.09269 0.34839 0.0
C960 C 0.90875 0.28421 0.33918 0.0
C961 C 0.89614 0.28471 0.35387 0.0
C962 C 0.90871 0.29798 0.32535 0.0
C963 C 0.89517 0.31199 0.32583 0.0
C964 C 0.88221 0.31229 0.34055 0.0
C965 C 0.88313 0.29887 0.35464 0.0
C966 C 0.92325 0.29765 0.31035 0.0
C967 C 0.86713 0.32655 0.34122 0.0
C968 C 0.90126 0.35766 0.29999 0.0
C969 C 0.8918 0.35397 0.28337 0.0
C970 C 0.90308 0.34387 0.31363 0.0
C971 C 0.89444 0.3263 0.31094 0.0
C972 C 0.88465 0.32261 0.29423 0.0
C973 C 0.88381 0.33638 0.28045 0.0
C974 C 0.91428 0.34811 0.33088 0.0
C975 C 0.87464 0.30432 0.29113 0.0
H976 H 0.91887 0.27326 0.33874 0.0
H977 H 0.87328 0.29906 0.36597 0.0
H978 H 0.9167 0.2954 0.29657 0.0
H979 H 0.93062 0.31126 0.30984 0.0
H980 H 0.93348 0.28653 0.31264 0.0
H981 H 0.85764 0.32432 0.35314 0.0
H982 H 0.87322 0.34073 0.34235 0.0
H983 H 0.859 0.32599 0.32814 0.0
H984 H 0.90752 0.37123 0.30223 0.0
H985 H 0.87637 0.3336 0.26763 0.0
H986 H 0.92473 0.3372 0.33302 0.0
H987 H 0.90521 0.34807 0.34328 0.0
H988 H 0.92143 0.36184 0.3301 0.0
H989 H 0.88449 0.29269 0.29159 0.0
H990 H 0.86728 0.30383 0.27757 0.0
H991 H 0.86448 0.30197 0.30244 0.0
C992 C 0.69752 0.87529 0.35934 0.0
C993 C 0.71365 0.88594 0.35719 0.0
C994 C 0.68308 0.87646 0.34645 0.0
C995 C 0.68459 0.88913 0.33148 0.0
C996 C 0.7007 0.90031 0.32957 0.0
C997 C 0.71523 0.89833 0.3423 0.0
C998 C 0.66643 0.86385 0.3486 0.0
C999 C 0.70258 0.91436 0.3141 0.0
C1000 C 0.65753 0.88006 0.28725 0.0
C1001 C 0.64225 0.89148 0.28968 0.0
C1002 C 0.67117 0.87886 0.30096 0.0
C1003 C 0.66979 0.88988 0.31722 0.0
C1004 C 0.65437 0.90151 0.31975 0.0
C1005 C 0.64054 0.90193 0.30603 0.0
C1006 C 0.68706 0.86583 0.29799 0.0
C1007 C 0.65272 0.91384 0.33669 0.0
H1008 H 0.69637 0.86573 0.37094 0.0
H1009 H 0.72761 0.9068 0.34089 0.0
H1010 H 0.65376 0.87222 0.34973 0.0
H1011 H 0.66489 0.85488 0.33609 0.0
H1012 H 0.6674 0.85481 0.36106 0.0
H1013 H 0.71531 0.92301 0.31547 0.0
H1014 H 0.70286 0.90712 0.30046 0.0
H1015 H 0.6905 0.92366 0.31402 0.0
H1016 H 0.65874 0.87189 0.27461 0.0
H1017 H 0.62878 0.9109 0.30776 0.0
H1018 H 0.6882 0.8562 0.30996 0.0
H1019 H 0.70017 0.87388 0.29719 0.0
H1020 H 0.68551 0.85747 0.28504 0.0
H1021 H 0.65272 0.9053 0.34951 0.0
H1022 H 0.63999 0.92223 0.33645 0.0
H1023 H 0.66482 0.92341 0.33752 0.0
C1024 C 0.11281 0.66373 0.27891 0.0
C1025 C 0.10457 0.64637 0.28232 0.0
C1026 C 0.11214 0.67799 0.29228 0.0
C1027 C 0.10228 0.67501 0.30904 0.0
C1028 C 0.09326 0.65772 0.31213 0.0
C1029 C 0.09492 0.64344 0.29893 0.0
C1030 C 0.12255 0.69595 0.28879 0.0
C1031 C 0.08199 0.65424 0.32946 0.0
C1032 C 0.11485 0.70278 0.35232 0.0
C1033 C 0.10226 0.71731 0.3515 0.0
C1034 C 0.11523 0.68913 0.33836 0.0
C1035 C 0.10215 0.68962 0.32373 0.0
C1036 C 0.08903 0.70402 0.3232 0.0
C1037 C 0.08954 0.71799 0.3369 0.0
C1038 C 0.12986 0.67441 0.33907 0.0
C1039 C 0.07438 0.70456 0.3083 0.0
H1040 H 0.12042 0.66589 0.26611 0.0
H1041 H 0.0885 0.63003 0.30155 0.0
H1042 H 0.11305 0.70787 0.28938 0.0
H1043 H 0.13305 0.69816 0.29985 0.0
H1044 H 0.12959 0.69603 0.27507 0.0
H1045 H 0.07425 0.64082 0.32879 0.0
H1046 H 0.09114 0.65404 0.34181 0.0
H1047 H 0.07204 0.66565 0.33156 0.0
H1048 H 0.1248 0.70246 0.36358 0.0
H1049 H 0.07976 0.72925 0.33643 0.0
H1050 H 0.13781 0.6744 0.32589 0.0
H1051 H 0.12336 0.66046 0.34051 0.0
H1052 H 0.1396 0.6766 0.35084 0.0
H1053 H 0.08085 0.70625 0.29443 0.0
H1054 H 0.06458 0.71609 0.31048 0.0
H1055 H 0.06652 0.69121 0.30806 0.0
C1056 C 0.35829 0.88153 0.69186 0.0
C1057 C 0.35492 0.89187 0.70801 0.0
C1058 C 0.34531 0.88082 0.67733 0.0
C1059 C 0.32898 0.89129 0.67877 0.0
C1060 C 0.32592 0.90234 0.6948 0.0
C1061 C 0.33877 0.90219 0.70939 0.0
C1062 C 0.34877 0.86837 0.66078 0.0
C1063 C 0.30899 0.91418 0.69662 0.0
C1064 C 0.30088 0.90134 0.63526 0.0
C1065 C 0.28564 0.88951 0.63782 0.0
C1066 C 0.31525 0.902 0.6484 0.0
C1067 C 0.31458 0.89002 0.66402 0.0
C1068 C 0.29958 0.87742 0.6661 0.0
C1069 C 0.28509 0.87761 0.65318 0.0
C1070 C 0.33067 0.91608 0.64603 0.0
C1071 C 0.29864 0.86396 0.68217 0.0
H1072 H 0.37076 0.87346 0.69088 0.0
H1073 H 0.33629 0.91035 0.72183 0.0
H1074 H 0.33779 0.85752 0.65991 0.0
H1075 H 0.34823 0.8765 0.64772 0.0
H1076 H 0.36233 0.86144 0.66161 0.0
H1077 H 0.30953 0.92326 0.70915 0.0
H1078 H 0.30745 0.92307 0.68413 0.0
H1079 H 0.29652 0.90516 0.69751 0.0
H1080 H 0.30115 0.91068 0.62344 0.0
H1081 H 0.2733 0.86839 0.65505 0.0
H1082 H 0.3442 0.90912 0.64634 0.0
H1083 H 0.3305 0.92612 0.65779 0.0
H1084 H 0.3295 0.92393 0.6328 0.0
H1085 H 0.31169 0.85617 0.68324 0.0
H1086 H 0.28703 0.85383 0.68072 0.0
H1087 H 0.29688 0.87171 0.6954 0.0
C1088 C 0.11792 0.33745 0.71798 0.0
C1089 C 0.10949 0.35436 0.71396 0.0
C1090 C 0.11806 0.32298 0.70487 0.0
C1091 C 0.10885 0.32526 0.68768 0.0
C1092 C 0.09985 0.34218 0.68378 0.0
C1093 C 0.10062 0.35671 0.69686 0.0
C1094 C 0.12841 0.30544 0.70925 0.0
C1095 C 0.08937 0.34489 0.66586 0.0
C1096 C 0.12334 0.29666 0.64597 0.0
C1097 C 0.11058 0.28191 0.64642 0.0
C1098 C 0.12314 0.31065 0.65955 0.0
C1099 C 0.10935 0.31025 0.67345 0.0
C1100 C 0.09623 0.29548 0.67379 0.0
C1101 C 0.09723 0.28123 0.66043 0.0
C1102 C 0.13777 0.32578 0.65909 0.0
C1103 C 0.08096 0.29495 0.68802 0.0
H1104 H 0.12485 0.33573 0.73123 0.0
H1105 H 0.09392 0.36975 0.69389 0.0
H1106 H 0.11893 0.29324 0.70877 0.0
H1107 H 0.13921 0.30317 0.6986 0.0
H1108 H 0.13506 0.306 0.72318 0.0
H1109 H 0.08194 0.35829 0.66561 0.0
H1110 H 0.099 0.34457 0.6539 0.0
H1111 H 0.07925 0.33336 0.66384 0.0
H1112 H 0.1337 0.29706 0.63511 0.0
H1113 H 0.08724 0.26989 0.66056 0.0
H1114 H 0.14509 0.32645 0.67265 0.0
H1115 H 0.13132 0.33948 0.65688 0.0
H1116 H 0.14806 0.32352 0.64791 0.0
H1117 H 0.08684 0.29425 0.70224 0.0
H1118 H 0.07148 0.28286 0.68596 0.0
H1119 H 0.07287 0.30791 0.68722 0.0
C1120 C 0.6929 0.0953 0.6361 0.0
C1121 C 0.70737 0.1081 0.63882 0.0
C1122 C 0.67853 0.0937 0.64915 0.0
C1123 C 0.67837 0.10564 0.66488 0.0
C1124 C 0.69247 0.11929 0.66704 0.0
C1125 C 0.70699 0.1201 0.65419 0.0
C1126 C 0.66411 0.07858 0.64664 0.0
C1127 C 0.69254 0.1327 0.68326 0.0
C1128 C 0.63477 0.11097 0.69379 0.0
C1129 C 0.63932 0.10103 0.70984 0.0
C1130 C 0.64723 0.11242 0.67886 0.0
C1131 C 0.6643 0.10313 0.6798 0.0
C1132 C 0.66848 0.09231 0.69566 0.0
C1133 C 0.6561 0.0917 0.71064 0.0
C1134 C 0.6425 0.12459 0.66251 0.0
C1135 C 0.68623 0.08168 0.697 0.0
H1136 H 0.69336 0.08586 0.62432 0.0
H1137 H 0.71818 0.13004 0.65624 0.0
H1138 H 0.6654 0.06827 0.658 0.0
H1139 H 0.6501 0.08445 0.64755 0.0
H1140 H 0.66549 0.07124 0.6331 0.0
H1141 H 0.70326 0.14376 0.68178 0.0
H1142 H 0.6789 0.13935 0.68461 0.0
H1143 H 0.69517 0.12506 0.69636 0.0
H1144 H 0.62184 0.11832 0.69326 0.0
H1145 H 0.65953 0.08389 0.72302 0.0
H1146 H 0.6438 0.11671 0.6493 0.0
H1147 H 0.65238 0.13648 0.66184 0.0
H1148 H 0.62832 0.13013 0.66346 0.0
H1149 H 0.68825 0.07316 0.68428 0.0
H1150 H 0.6865 0.07238 0.70931 0.0
H1151 H 0.69805 0.09156 0.69802 0.0
C1152 C 0.87704 0.7045 0.65051 0.0
C1153 C 0.89015 0.71889 0.64958 0.0
C1154 C 0.87771 0.69121 0.66469 0.0
C1155 C 0.89229 0.69196 0.67779 0.0
C1156 C 0.90563 0.7065 0.67685 0.0
C1157 C 0.9042 0.72004 0.66289 0.0
C1158 C 0.86291 0.67628 0.66554 0.0
C1159 C 0.92172 0.70736 0.69015 0.0
C1160 C 0.88589 0.66464 0.72247 0.0
C1161 C 0.89365 0.64757 0.71765 0.0
C1162 C 0.88555 0.67937 0.70972 0.0
C1163 C 0.89378 0.67711 0.69201 0.0
C1164 C 0.90235 0.66014 0.68742 0.0
C1165 C 0.90186 0.64543 0.70017 0.0
C1166 C 0.87576 0.69703 0.7149 0.0
C1167 C 0.91177 0.6574 0.6689 0.0
H1168 H 0.86615 0.70373 0.64019 0.0
H1169 H 0.91446 0.73109 0.66193 0.0
H1170 H 0.86902 0.66248 0.66282 0.0
H1171 H 0.85673 0.67582 0.67965 0.0
H1172 H 0.85176 0.67855 0.65522 0.0
H1173 H 0.93077 0.71969 0.6877 0.0
H1174 H 0.91674 0.70779 0.70472 0.0
H1175 H 0.93006 0.69463 0.68864 0.0
H1176 H 0.87945 0.66623 0.73598 0.0
H1177 H 0.90803 0.63228 0.6965 0.0
H1178 H 0.86389 0.69905 0.7054 0.0
H1179 H 0.88511 0.70922 0.71322 0.0
H1180 H 0.8706 0.6968 0.72944 0.0
H1181 H 0.90138 0.6573 0.65758 0.0
H1182 H 0.91945 0.64415 0.66829 0.0
H1183 H 0.92151 0.66909 0.66615 0.0
C1184 C 0.30385 0.3607 0.09062 0.0
C1185 C 0.29157 0.35938 0.10556 0.0
C1186 C 0.31902 0.34881 0.08942 0.0
C1187 C 0.32222 0.33588 0.10387 0.0
C1188 C 0.31035 0.33534 0.11949 0.0
C1189 C 0.29492 0.34683 0.11994 0.0
C1190 C 0.33098 0.34938 0.07226 0.0
C1191 C 0.31358 0.32217 0.13545 0.0
C1192 C 0.34503 0.28966 0.09524 0.0
C1193 C 0.36276 0.29286 0.10236 0.0
C1194 C 0.33206 0.30389 0.09473 0.0
C1195 C 0.33678 0.32164 0.10197 0.0
C1196 C 0.35488 0.32514 0.10867 0.0
C1197 C 0.36777 0.3107 0.10858 0.0
C1198 C 0.31307 0.29968 0.08704 0.0
C1199 C 0.36031 0.34379 0.1168 0.0
H1200 H 0.30106 0.37037 0.07945 0.0
H1201 H 0.28541 0.346 0.13154 0.0
H1202 H 0.34574 0.35042 0.07616 0.0
H1203 H 0.32906 0.33626 0.06428 0.0
H1204 H 0.32759 0.36123 0.06304 0.0
H1205 H 0.30442 0.32504 0.14747 0.0
H1206 H 0.31103 0.30765 0.13077 0.0
H1207 H 0.32811 0.32318 0.1402 0.0
H1208 H 0.34121 0.27591 0.09021 0.0
H1209 H 0.38148 0.31316 0.11414 0.0
H1210 H 0.30908 0.31045 0.07683 0.0
H1211 H 0.30283 0.29994 0.09848 0.0
H1212 H 0.31225 0.28584 0.08016 0.0
H1213 H 0.35666 0.35514 0.10712 0.0
H1214 H 0.37529 0.34478 0.1199 0.0
H1215 H 0.35257 0.34611 0.12988 0.0
C1216 C 0.34716 0.71448 0.90172 0.0
C1217 C 0.36123 0.71372 0.88847 0.0
C1218 C 0.33363 0.7004 0.90264 0.0
C1219 C 0.33381 0.68571 0.88946 0.0
C1220 C 0.34795 0.68505 0.87592 0.0
C1221 C 0.36176 0.69889 0.87586 0.0
C1222 C 0.31922 0.70118 0.91775 0.0
C1223 C 0.34825 0.67 0.86123 0.0
C1224 C 0.30788 0.6404 0.89842 0.0
C1225 C 0.29114 0.64358 0.88934 0.0
C1226 C 0.32172 0.65421 0.89903 0.0
C1227 C 0.31902 0.67122 0.8896 0.0
C1228 C 0.30224 0.67432 0.8801 0.0
C1229 C 0.28834 0.66058 0.88042 0.0
C1230 C 0.33912 0.65067 0.9099 0.0
C1231 C 0.29909 0.69199 0.86933 0.0
H1232 H 0.34697 0.72591 0.9116 0.0
H1233 H 0.37266 0.69845 0.86557 0.0
H1234 H 0.3054 0.70299 0.91148 0.0
H1235 H 0.31887 0.6879 0.92557 0.0
H1236 H 0.32183 0.71277 0.92771 0.0
H1237 H 0.35992 0.6718 0.85138 0.0
H1238 H 0.34933 0.65616 0.86786 0.0
H1239 H 0.33517 0.67003 0.85322 0.0
H1240 H 0.31001 0.62727 0.9054 0.0
H1241 H 0.27542 0.66295 0.87327 0.0
H1242 H 0.34148 0.66199 0.9202 0.0
H1243 H 0.35115 0.65067 0.9004 0.0
H1244 H 0.33859 0.63718 0.91737 0.0
H1245 H 0.29969 0.70415 0.87884 0.0
H1246 H 0.28556 0.6919 0.86208 0.0
H1247 H 0.31015 0.69395 0.85884 0.0
C1248 C 0.28789 0.34375 0.8791 0.0
C1249 C 0.28822 0.36002 0.88984 0.0
C1250 C 0.30275 0.33148 0.87939 0.0
C1251 C 0.31795 0.33523 0.89126 0.0
C1252 C 0.31834 0.35171 0.90211 0.0
C1253 C 0.30359 0.36411 0.901 0.0
C1254 C 0.30206 0.31437 0.86715 0.0
C1255 C 0.33398 0.35588 0.91542 0.0
C1256 C 0.34388 0.29201 0.90521 0.0
C1257 C 0.35957 0.29328 0.89398 0.0
C1258 C 0.3307 0.30608 0.90515 0.0
C1259 C 0.33291 0.32139 0.89296 0.0
C1260 C 0.3489 0.32282 0.88173 0.0
C1261 C 0.36225 0.30887 0.88265 0.0
C1262 C 0.31421 0.30436 0.91786 0.0
C1263 C 0.35146 0.33857 0.8681 0.0
H1264 H 0.27604 0.34069 0.87037 0.0
H1265 H 0.30373 0.37664 0.90943 0.0
H1266 H 0.31491 0.31338 0.85888 0.0
H1267 H 0.30107 0.30173 0.8759 0.0
H1268 H 0.29012 0.3144 0.85747 0.0
H1269 H 0.33246 0.36954 0.92248 0.0
H1270 H 0.33455 0.34486 0.92617 0.0
H1271 H 0.34733 0.35583 0.90795 0.0
H1272 H 0.34193 0.27995 0.91405 0.0
H1273 H 0.37434 0.30969 0.87383 0.0
H1274 H 0.30156 0.30197 0.90947 0.0
H1275 H 0.31235 0.31746 0.9258 0.0
H1276 H 0.31555 0.29272 0.92786 0.0
H1277 H 0.34038 0.33789 0.85746 0.0
H1278 H 0.36499 0.33807 0.86093 0.0
H1279 H 0.35032 0.35215 0.87531 0.0
C1280 C 0.64603 0.3011 0.87286 0.0
C1281 C 0.64467 0.28716 0.88631 0.0
C1282 C 0.66055 0.31415 0.87334 0.0
C1283 C 0.67344 0.31368 0.88814 0.0
C1284 C 0.67186 0.29977 0.90198 0.0
C1285 C 0.65767 0.28637 0.90065 0.0
C1286 C 0.66214 0.32835 0.85797 0.0
C1287 C 0.68485 0.29931 0.91838 0.0
C1288 C 0.7195 0.33865 0.88219 0.0
C1289 C 0.71563 0.3562 0.88956 0.0
C1290 C 0.70587 0.32462 0.88159 0.0
C1291 C 0.68828 0.32806 0.8893 0.0
C1292 C 0.6846 0.34557 0.89743 0.0
C1293 C 0.69819 0.35959 0.89703 0.0
C1294 C 0.71006 0.30639 0.87212 0.0
C1295 C 0.66628 0.34955 0.90645 0.0
H1296 H 0.63596 0.30153 0.86172 0.0
H1297 H 0.65639 0.2756 0.91112 0.0
H1298 H 0.66019 0.34252 0.8637 0.0
H1299 H 0.67611 0.328 0.85175 0.0
H1300 H 0.6518 0.32593 0.84678 0.0
H1301 H 0.68144 0.28785 0.92817 0.0
H1302 H 0.69922 0.29759 0.91351 0.0
H1303 H 0.68434 0.31271 0.92605 0.0
H1304 H 0.73296 0.33613 0.87626 0.0
H1305 H 0.69519 0.37316 0.90275 0.0
H1306 H 0.70045 0.30413 0.86029 0.0
H1307 H 0.70794 0.29469 0.88192 0.0
H1308 H 0.72441 0.30595 0.8668 0.0
H1309 H 0.65528 0.34965 0.89574 0.0
H1310 H 0.66633 0.36315 0.91381 0.0
H1311 H 0.66269 0.33844 0.91655 0.0
C1312 C 0.71501 0.65862 0.90245 0.0
C1313 C 0.71355 0.64109 0.89401 0.0
C1314 C 0.70009 0.67081 0.90249 0.0
C1315 C 0.68354 0.66556 0.89331 0.0
C1316 C 0.68193 0.64776 0.88492 0.0
C1317 C 0.6969 0.6356 0.88562 0.0
C1318 C 0.70219 0.68945 0.91205 0.0
C1319 C 0.66472 0.64188 0.87455 0.0
C1320 C 0.64091 0.694 0.90367 0.0
C1321 C 0.64224 0.7077 0.88995 0.0
C1322 C 0.6541 0.6799 0.90481 0.0
C1323 C 0.66847 0.67924 0.89149 0.0
C1324 C 0.66917 0.69253 0.877 0.0
C1325 C 0.65625 0.70683 0.87664 0.0
C1326 C 0.65322 0.66634 0.92078 0.0
C1327 C 0.68388 0.69197 0.86218 0.0
H1328 H 0.72783 0.66278 0.90911 0.0
H1329 H 0.69582 0.62206 0.87901 0.0
H1330 H 0.70197 0.70072 0.90156 0.0
H1331 H 0.69048 0.69174 0.92167 0.0
H1332 H 0.71525 0.69065 0.92006 0.0
H1333 H 0.66533 0.62727 0.86955 0.0
H1334 H 0.65244 0.64336 0.88357 0.0
H1335 H 0.66275 0.6511 0.86237 0.0
H1336 H 0.63014 0.69486 0.91406 0.0
H1337 H 0.65715 0.71742 0.86596 0.0
H1338 H 0.66542 0.66849 0.9299 0.0
H1339 H 0.65367 0.65184 0.91555 0.0
H1340 H 0.64058 0.66801 0.92929 0.0
H1341 H 0.69751 0.69528 0.86845 0.0
H1342 H 0.6813 0.70205 0.85081 0.0
H1343 H 0.68466 0.67781 0.85607 0.0
C1344 C 0.63673 0.69638 0.09329 0.0
C1345 C 0.63921 0.71109 0.10588 0.0
C1346 C 0.64947 0.68183 0.09243 0.0
C1347 C 0.66456 0.68173 0.10497 0.0
C1348 C 0.66659 0.69622 0.11823 0.0
C1349 C 0.6541 0.71093 0.11826 0.0
C1350 C 0.6472 0.667 0.07767 0.0
C1351 C 0.68211 0.69634 0.13225 0.0
C1352 C 0.69109 0.63731 0.11374 0.0
C1353 C 0.70766 0.6412 0.10451 0.0
C1354 C 0.67672 0.65023 0.11376 0.0
C1355 C 0.67881 0.66707 0.10374 0.0
C1356 C 0.6952 0.67053 0.09357 0.0
C1357 C 0.70957 0.65771 0.09439 0.0
C1358 C 0.65973 0.64629 0.12525 0.0
C1359 C 0.69775 0.68799 0.0822 0.0
H1360 H 0.62527 0.69665 0.08362 0.0
H1361 H 0.65589 0.72227 0.1281 0.0
H1362 H 0.65916 0.6675 0.06809 0.0
H1363 H 0.64692 0.653 0.0841 0.0
H1364 H 0.6344 0.66873 0.0694 0.0
H1365 H 0.68073 0.70765 0.1427 0.0
H1366 H 0.68253 0.68283 0.13965 0.0
H1367 H 0.69548 0.69821 0.12501 0.0
H1368 H 0.6897 0.62457 0.12167 0.0
H1369 H 0.72236 0.6606 0.0871 0.0
H1370 H 0.64714 0.6477 0.11665 0.0
H1371 H 0.65886 0.65664 0.13669 0.0
H1372 H 0.65979 0.63214 0.13141 0.0
H1373 H 0.68564 0.69008 0.07304 0.0
H1374 H 0.71034 0.68756 0.07344 0.0
H1375 H 0.69884 0.70023 0.09158 0.0
C1376 C 0.36449 0.69011 0.11891 0.0
C1377 C 0.36253 0.70416 0.10568 0.0
C1378 C 0.35126 0.67575 0.12034 0.0
C1379 C 0.33619 0.67519 0.10778 0.0
C1380 C 0.33486 0.68882 0.09368 0.0
C1381 C 0.34785 0.7034 0.09308 0.0
C1382 C 0.35282 0.66185 0.13594 0.0
C1383 C 0.3194 0.68835 0.0796 0.0
C1384 C 0.30747 0.63079 0.10349 0.0
C1385 C 0.29142 0.63574 0.11298 0.0
C1386 C 0.32221 0.64349 0.10163 0.0
C1387 C 0.32109 0.66122 0.11013 0.0
C1388 C 0.30512 0.66598 0.12032 0.0
C1389 C 0.29031 0.6533 0.12128 0.0
C1390 C 0.33867 0.63819 0.09004 0.0
C1391 C 0.30362 0.68452 0.1301 0.0
H1392 H 0.37579 0.69094 0.12877 0.0
H1393 H 0.34645 0.71433 0.08283 0.0
H1394 H 0.34109 0.66353 0.14566 0.0
H1395 H 0.35203 0.64745 0.1304 0.0
H1396 H 0.36587 0.66359 0.14388 0.0
H1397 H 0.32165 0.69856 0.06823 0.0
H1398 H 0.31798 0.67425 0.07339 0.0
H1399 H 0.30619 0.69155 0.08656 0.0
H1400 H 0.30824 0.61723 0.09694 0.0
H1401 H 0.27791 0.65704 0.12873 0.0
H1402 H 0.35147 0.63944 0.09839 0.0
H1403 H 0.34009 0.64788 0.07813 0.0
H1404 H 0.3375 0.62376 0.08454 0.0
H1405 H 0.31583 0.687 0.13912 0.0
H1406 H 0.29101 0.68538 0.13878 0.0
H1407 H 0.30333 0.69587 0.11969 0.0
C1408 C 0.69392 0.358 0.11874 0.0
C1409 C 0.71032 0.35604 0.10871 0.0
C1410 C 0.68 0.34426 0.11792 0.0
C1411 C 0.68232 0.32851 0.10631 0.0
C1412 C 0.69863 0.32682 0.09566 0.0
C1413 C 0.71256 0.34046 0.09723 0.0
C1414 C 0.66307 0.34633 0.12989 0.0
C1415 C 0.70142 0.31052 0.08272 0.0
C1416 C 0.65719 0.28307 0.11668 0.0
C1417 C 0.64211 0.28388 0.10457 0.0
C1418 C 0.67003 0.29779 0.1178 0.0
C1419 C 0.66813 0.31335 0.10596 0.0
C1420 C 0.65294 0.31416 0.09358 0.0
C1421 C 0.63988 0.29953 0.0933 0.0
C1422 C 0.68565 0.29665 0.13164 0.0
C1423 C 0.65078 0.33019 0.08029 0.0
H1424 H 0.69221 0.37002 0.12768 0.0
H1425 H 0.72516 0.33904 0.08929 0.0
H1426 H 0.65048 0.34589 0.12114 0.0
H1427 H 0.66206 0.33452 0.13976 0.0
H1428 H 0.66326 0.35952 0.13797 0.0
H1429 H 0.71417 0.31204 0.07431 0.0
H1430 H 0.70228 0.29749 0.09088 0.0
H1431 H 0.68948 0.30899 0.07315 0.0
H1432 H 0.6588 0.27099 0.1255 0.0
H1433 H 0.62827 0.30003 0.08382 0.0
H1434 H 0.68599 0.30928 0.14056 0.0
H1435 H 0.69899 0.2961 0.12418 0.0
H1436 H 0.68442 0.28422 0.14071 0.0
H1437 H 0.65003 0.34348 0.08811 0.0
H1438 H 0.63825 0.32869 0.0715 0.0
H1439 H 0.66301 0.33117 0.07108 0.0
C1440 C 0.59085 0.85292 0.79766 0.0
C1441 C 0.59912 0.84981 0.78035 0.0
C1442 C 0.59139 0.83935 0.81167 0.0
C1443 C 0.60096 0.8226 0.80843 0.0
C1444 C 0.60926 0.81941 0.79092 0.0
C1445 C 0.60799 0.83295 0.777 0.0
C1446 C 0.58193 0.843 0.82998 0.0
C1447 C 0.62001 0.80198 0.78707 0.0
C1448 C 0.62047 0.79746 0.85022 0.0
C1449 C 0.60873 0.78192 0.85139 0.0
C1450 C 0.61812 0.81077 0.83624 0.0
C1451 C 0.60322 0.80882 0.82361 0.0
C1452 C 0.59098 0.79338 0.82512 0.0
C1453 C 0.5941 0.77989 0.83882 0.0
C1454 C 0.6318 0.8267 0.83476 0.0
C1455 C 0.57458 0.79118 0.81234 0.0
H1456 H 0.58385 0.86591 0.8002 0.0
H1457 H 0.61452 0.83057 0.76366 0.0
H1458 H 0.57267 0.83115 0.83357 0.0
H1459 H 0.59233 0.84428 0.84124 0.0
H1460 H 0.57373 0.85593 0.8297 0.0
H1461 H 0.6255 0.80156 0.77266 0.0
H1462 H 0.63173 0.80109 0.79695 0.0
H1463 H 0.61116 0.78949 0.78927 0.0
H1464 H 0.63179 0.79896 0.85999 0.0
H1465 H 0.58485 0.76799 0.84 0.0
H1466 H 0.62465 0.84015 0.83627 0.0
H1467 H 0.63834 0.82661 0.82081 0.0
H1468 H 0.6428 0.826 0.84549 0.0
H1469 H 0.5662 0.80397 0.81265 0.0
H1470 H 0.56566 0.77913 0.81621 0.0
H1471 H 0.57931 0.78922 0.79781 0.0
C1472 C 0.20002 0.61321 0.86092 0.0
C1473 C 0.21685 0.60467 0.85719 0.0
C1474 C 0.18618 0.61396 0.84729 0.0
C1475 C 0.18908 0.60545 0.82975 0.0
C1476 C 0.20586 0.59631 0.82614 0.0
C1477 C 0.21967 0.59629 0.83982 0.0
C1478 C 0.16866 0.62423 0.85149 0.0
C1479 C 0.20924 0.58658 0.80784 0.0
C1480 C 0.14632 0.59429 0.80111 0.0
C1481 C 0.14701 0.60828 0.78765 0.0
C1482 C 0.16021 0.59288 0.8146 0.0
C1483 C 0.17464 0.60632 0.81509 0.0
C1484 C 0.17519 0.62068 0.80162 0.0
C1485 C 0.16153 0.62124 0.78779 0.0
C1486 C 0.15951 0.57695 0.82823 0.0
C1487 C 0.18999 0.63562 0.80204 0.0
H1488 H 0.19789 0.61982 0.87431 0.0
H1489 H 0.23265 0.58956 0.83698 0.0
H1490 H 0.16679 0.63556 0.84124 0.0
H1491 H 0.1566 0.61468 0.85018 0.0
H1492 H 0.16869 0.63035 0.86571 0.0
H1493 H 0.2226 0.57922 0.80764 0.0
H1494 H 0.198 0.57635 0.805 0.0
H1495 H 0.2092 0.59682 0.79633 0.0
H1496 H 0.13511 0.58424 0.8009 0.0
H1497 H 0.16188 0.63214 0.7774 0.0
H1498 H 0.15788 0.58237 0.84259 0.0
H1499 H 0.17265 0.56925 0.82782 0.0
H1500 H 0.14799 0.56706 0.82525 0.0
H1501 H 0.18995 0.64278 0.81575 0.0
H1502 H 0.18809 0.64615 0.79095 0.0
H1503 H 0.20374 0.62932 0.80031 0.0
C1504 C 0.37834 0.14829 0.79773 0.0
C1505 C 0.39193 0.14783 0.78397 0.0
C1506 C 0.37788 0.16283 0.81072 0.0
C1507 C 0.39183 0.17677 0.81037 0.0
C1508 C 0.4058 0.17616 0.79664 0.0
C1509 C 0.40545 0.16185 0.7833 0.0
C1510 C 0.36241 0.16333 0.82475 0.0
C1511 C 0.42129 0.19037 0.79629 0.0
C1512 C 0.38268 0.22245 0.83509 0.0
C1513 C 0.39003 0.219 0.85273 0.0
C1514 C 0.3832 0.20882 0.82108 0.0
C1515 C 0.39193 0.1917 0.82468 0.0
C1516 C 0.39999 0.18849 0.8423 0.0
C1517 C 0.3986 0.20205 0.85625 0.0
C1518 C 0.3739 0.2125 0.80268 0.0
C1519 C 0.40996 0.17067 0.84646 0.0
H1520 H 0.36781 0.13745 0.79806 0.0
H1521 H 0.41603 0.16131 0.77268 0.0
H1522 H 0.36801 0.16178 0.83901 0.0
H1523 H 0.35544 0.17695 0.82417 0.0
H1524 H 0.35199 0.15213 0.82232 0.0
H1525 H 0.43127 0.18771 0.78492 0.0
H1526 H 0.41568 0.20452 0.79451 0.0
H1527 H 0.42877 0.19025 0.80977 0.0
H1528 H 0.37598 0.23556 0.83245 0.0
H1529 H 0.40447 0.19948 0.86985 0.0
H1530 H 0.36278 0.20202 0.8003 0.0
H1531 H 0.38389 0.21109 0.79112 0.0
H1532 H 0.36784 0.22659 0.80207 0.0
H1533 H 0.40006 0.15879 0.8463 0.0
H1534 H 0.41691 0.17108 0.86024 0.0
H1535 H 0.42043 0.16797 0.83558 0.0
C1536 C 0.8633 0.38753 0.80664 0.0
C1537 C 0.86045 0.39791 0.79048 0.0
C1538 C 0.85031 0.3876 0.82112 0.0
C1539 C 0.83452 0.39888 0.8196 0.0
C1540 C 0.83222 0.41024 0.80372 0.0
C1541 C 0.84502 0.4093 0.78916 0.0
C1542 C 0.85295 0.37483 0.8375 0.0
C1543 C 0.81594 0.42295 0.80185 0.0
C1544 C 0.78977 0.38517 0.84339 0.0
C1545 C 0.79024 0.39631 0.85939 0.0
C1546 C 0.80443 0.38541 0.83071 0.0
C1547 C 0.8196 0.39764 0.83376 0.0
C1548 C 0.8201 0.40899 0.84991 0.0
C1549 C 0.80552 0.40792 0.86276 0.0
C1550 C 0.8036 0.37265 0.81399 0.0
C1551 C 0.8357 0.42267 0.8533 0.0
H1552 H 0.87519 0.3786 0.80752 0.0
H1553 H 0.84295 0.41743 0.77667 0.0
H1554 H 0.85188 0.38268 0.85075 0.0
H1555 H 0.84186 0.36405 0.83754 0.0
H1556 H 0.86647 0.36778 0.83712 0.0
H1557 H 0.81743 0.43256 0.78985 0.0
H1558 H 0.80316 0.41455 0.79987 0.0
H1559 H 0.81422 0.43131 0.81472 0.0
H1560 H 0.77797 0.37609 0.84089 0.0
H1561 H 0.80575 0.41666 0.87508 0.0
H1562 H 0.81638 0.3644 0.81308 0.0
H1563 H 0.80265 0.38098 0.80108 0.0
H1564 H 0.7916 0.36292 0.81448 0.0
H1565 H 0.84906 0.41539 0.85338 0.0
H1566 H 0.83418 0.43028 0.86667 0.0
H1567 H 0.83624 0.43294 0.84181 0.0
C1568 C 0.59716 0.21028 0.15534 0.0
C1569 C 0.60883 0.20789 0.14005 0.0
C1570 C 0.59598 0.19677 0.16937 0.0
C1571 C 0.60727 0.18088 0.16839 0.0
C1572 C 0.6191 0.17845 0.15294 0.0
C1573 C 0.61947 0.19184 0.13876 0.0
C1574 C 0.58273 0.19956 0.18528 0.0
C1575 C 0.63178 0.16202 0.15167 0.0
C1576 C 0.61796 0.15779 0.21456 0.0
C1577 C 0.60682 0.14177 0.21372 0.0
C1578 C 0.61859 0.17037 0.19968 0.0
C1579 C 0.60724 0.1672 0.18391 0.0
C1580 C 0.59579 0.1511 0.18311 0.0
C1581 C 0.596 0.13836 0.1979 0.0
C1582 C 0.63145 0.18702 0.20082 0.0
C1583 C 0.58303 0.14756 0.16684 0.0
H1584 H 0.58879 0.22262 0.1562 0.0
H1585 H 0.62858 0.19007 0.12696 0.0
H1586 H 0.57378 0.18705 0.18695 0.0
H1587 H 0.59049 0.2015 0.19846 0.0
H1588 H 0.57385 0.21185 0.18318 0.0
H1589 H 0.64011 0.16216 0.13871 0.0
H1590 H 0.64127 0.16206 0.16379 0.0
H1591 H 0.6237 0.14884 0.15216 0.0
H1592 H 0.62642 0.16034 0.22677 0.0
H1593 H 0.58724 0.12604 0.19738 0.0
H1594 H 0.62339 0.20001 0.20084 0.0
H1595 H 0.64056 0.18743 0.18843 0.0
H1596 H 0.64017 0.18685 0.21352 0.0
H1597 H 0.57348 0.15938 0.16529 0.0
H1598 H 0.57476 0.13456 0.16851 0.0
H1599 H 0.59105 0.14658 0.15377 0.0
C1600 C 0.83586 0.6171 0.22033 0.0
C1601 C 0.8531 0.61041 0.21497 0.0
C1602 C 0.82112 0.61744 0.20769 0.0
C1603 C 0.82357 0.61038 0.18946 0.0
C1604 C 0.84082 0.60304 0.18419 0.0
C1605 C 0.85549 0.60344 0.19694 0.0
C1606 C 0.80311 0.62587 0.21366 0.0
C1607 C 0.84381 0.59491 0.16506 0.0
C1608 C 0.78082 0.59838 0.16098 0.0
C1609 C 0.78044 0.6133 0.14856 0.0
C1610 C 0.7949 0.59711 0.17433 0.0
C1611 C 0.80839 0.61149 0.17562 0.0
C1612 C 0.80761 0.62689 0.16342 0.0
C1613 C 0.79384 0.62739 0.14974 0.0
C1614 C 0.79568 0.58017 0.18662 0.0
C1615 C 0.82137 0.64278 0.16472 0.0
H1616 H 0.83404 0.62258 0.23426 0.0
H1617 H 0.86877 0.5981 0.19284 0.0
H1618 H 0.79998 0.63796 0.20469 0.0
H1619 H 0.79169 0.61563 0.21189 0.0
H1620 H 0.8034 0.63058 0.22839 0.0
H1621 H 0.85753 0.58837 0.16369 0.0
H1622 H 0.833 0.5843 0.16192 0.0
H1623 H 0.8427 0.60597 0.15442 0.0
H1624 H 0.77055 0.58735 0.15974 0.0
H1625 H 0.79345 0.63888 0.14002 0.0
H1626 H 0.79498 0.58434 0.20146 0.0
H1627 H 0.80899 0.57303 0.18457 0.0
H1628 H 0.78428 0.57012 0.18367 0.0
H1629 H 0.82177 0.64837 0.17912 0.0
H1630 H 0.81806 0.65428 0.15505 0.0
H1631 H 0.83537 0.63775 0.16142 0.0
C1632 C 0.40369 0.78063 0.15899 0.0
C1633 C 0.38973 0.78082 0.14555 0.0
C1634 C 0.40479 0.7945 0.17275 0.0
C1635 C 0.39112 0.80837 0.17349 0.0
C1636 C 0.37673 0.80828 0.16015 0.0
C1637 C 0.37645 0.79472 0.14606 0.0
C1638 C 0.42077 0.79458 0.18622 0.0
C1639 C 0.36157 0.82245 0.1608 0.0
C1640 C 0.38432 0.83493 0.21876 0.0
C1641 C 0.39187 0.85235 0.21428 0.0
C1642 C 0.38398 0.82042 0.20562 0.0
C1643 C 0.39205 0.82326 0.18789 0.0
C1644 C 0.4004 0.84063 0.18364 0.0
C1645 C 0.39986 0.8551 0.19676 0.0
C1646 C 0.37442 0.8023 0.21046 0.0
C1647 C 0.40975 0.84402 0.16518 0.0
H1648 H 0.41407 0.76994 0.15837 0.0
H1649 H 0.36562 0.79473 0.13566 0.0
H1650 H 0.42845 0.80799 0.18525 0.0
H1651 H 0.41565 0.79334 0.20069 0.0
H1652 H 0.43046 0.78307 0.18348 0.0
H1653 H 0.35072 0.81967 0.1502 0.0
H1654 H 0.35508 0.82248 0.17478 0.0
H1655 H 0.36739 0.83657 0.15842 0.0
H1656 H 0.37802 0.83289 0.23229 0.0
H1657 H 0.40585 0.86853 0.19336 0.0
H1658 H 0.38407 0.79057 0.20894 0.0
H1659 H 0.36283 0.79971 0.20066 0.0
H1660 H 0.36894 0.80228 0.22488 0.0
H1661 H 0.41981 0.83289 0.16232 0.0
H1662 H 0.41706 0.85768 0.16475 0.0
H1663 H 0.3994 0.8436 0.15382 0.0
C1664 C 0.20152 0.37184 0.14646 0.0
C1665 C 0.21613 0.38473 0.14637 0.0
C1666 C 0.18773 0.37265 0.16004 0.0
C1667 C 0.18823 0.38715 0.1734 0.0
C1668 C 0.20293 0.40033 0.17326 0.0
C1669 C 0.21693 0.39876 0.15988 0.0
C1670 C 0.17263 0.35799 0.16008 0.0
C1671 C 0.2036 0.41632 0.18691 0.0
C1672 C 0.14218 0.3972 0.19609 0.0
C1673 C 0.14433 0.38877 0.21346 0.0
C1674 C 0.15667 0.39744 0.18316 0.0
C1675 C 0.17335 0.38839 0.18751 0.0
C1676 C 0.17546 0.37972 0.20502 0.0
C1677 C 0.16102 0.38034 0.21793 0.0
C1678 C 0.15413 0.40735 0.16487 0.0
C1679 C 0.19275 0.36935 0.20992 0.0
H1680 H 0.20098 0.36098 0.13596 0.0
H1681 H 0.22812 0.40889 0.15955 0.0
H1682 H 0.17186 0.35123 0.17392 0.0
H1683 H 0.15912 0.36451 0.15747 0.0
H1684 H 0.17482 0.34709 0.14934 0.0
H1685 H 0.21574 0.4256 0.18467 0.0
H1686 H 0.19091 0.42465 0.18563 0.0
H1687 H 0.20407 0.41097 0.20136 0.0
H1688 H 0.12931 0.4039 0.19277 0.0
H1689 H 0.1626 0.37374 0.23138 0.0
H1690 H 0.15433 0.39715 0.15326 0.0
H1691 H 0.16568 0.41734 0.16255 0.0
H1692 H 0.14095 0.41499 0.16428 0.0
H1693 H 0.19487 0.35791 0.19977 0.0
H1694 H 0.19217 0.36333 0.22412 0.0
H1695 H 0.20493 0.37877 0.20903 0.0
C1696 C 0.80568 0.60088 0.85997 0.0
C1697 C 0.79013 0.61152 0.85618 0.0
C1698 C 0.81947 0.59855 0.84655 0.0
C1699 C 0.81806 0.60787 0.8293 0.0
C1700 C 0.80251 0.61898 0.82558 0.0
C1701 C 0.78848 0.6203 0.83893 0.0
C1702 C 0.83542 0.58594 0.85074 0.0
C1703 C 0.80085 0.62973 0.80766 0.0
C1704 C 0.8625 0.61664 0.80279 0.0
C1705 C 0.86064 0.60409 0.78799 0.0
C1706 C 0.84863 0.61816 0.81626 0.0
C1707 C 0.83297 0.60624 0.81527 0.0
C1708 C 0.83144 0.59299 0.8007 0.0
C1709 C 0.84512 0.5924 0.78693 0.0
C1710 C 0.85043 0.63294 0.83115 0.0
C1711 C 0.81535 0.5795 0.79961 0.0
H1712 H 0.80686 0.59397 0.87327 0.0
H1713 H 0.77645 0.62862 0.8361 0.0
H1714 H 0.83669 0.57531 0.8396 0.0
H1715 H 0.84848 0.5941 0.85101 0.0
H1716 H 0.83381 0.57874 0.8643 0.0
H1717 H 0.78831 0.63841 0.8073 0.0
H1718 H 0.81312 0.63891 0.80582 0.0
H1719 H 0.8004 0.62003 0.79565 0.0
H1720 H 0.87444 0.62585 0.80336 0.0
H1721 H 0.84379 0.58268 0.77542 0.0
H1722 H 0.85036 0.62647 0.84512 0.0
H1723 H 0.83846 0.64236 0.83049 0.0
H1724 H 0.86327 0.64139 0.82967 0.0
H1725 H 0.81372 0.57209 0.81304 0.0
H1726 H 0.81703 0.56907 0.78833 0.0
H1727 H 0.80244 0.58717 0.79707 0.0
C1728 C 0.37996 0.83881 0.78389 0.0
C1729 C 0.38801 0.85654 0.78526 0.0
C1730 C 0.38154 0.826 0.7985 0.0
C1731 C 0.39209 0.83083 0.81445 0.0
C1732 C 0.40056 0.84864 0.81567 0.0
C1733 C 0.39807 0.86143 0.80122 0.0
C1734 C 0.37178 0.80739 0.79694 0.0
C1735 C 0.41253 0.85405 0.83207 0.0
C1736 C 0.38455 0.80364 0.85916 0.0
C1737 C 0.39776 0.78976 0.8574 0.0
C1738 C 0.38252 0.81715 0.84525 0.0
C1739 C 0.39449 0.81712 0.82969 0.0
C1740 C 0.40843 0.80359 0.82839 0.0
C1741 C 0.40961 0.7898 0.84207 0.0
C1742 C 0.36708 0.83093 0.84682 0.0
C1743 C 0.42195 0.80354 0.81243 0.0
H1744 H 0.37206 0.83512 0.77158 0.0
H1745 H 0.40443 0.8751 0.8022 0.0
H1746 H 0.382 0.79607 0.79673 0.0
H1747 H 0.36283 0.8051 0.80926 0.0
H1748 H 0.36318 0.80627 0.78418 0.0
H1749 H 0.41861 0.86822 0.8306 0.0
H1750 H 0.40437 0.85355 0.84509 0.0
H1751 H 0.42388 0.84397 0.83359 0.0
H1752 H 0.37525 0.80338 0.87095 0.0
H1753 H 0.41985 0.77901 0.84082 0.0
H1754 H 0.35761 0.82924 0.83478 0.0
H1755 H 0.37266 0.84535 0.84639 0.0
H1756 H 0.35904 0.82914 0.85984 0.0
H1757 H 0.41463 0.80023 0.79925 0.0
H1758 H 0.43301 0.7932 0.81443 0.0
H1759 H 0.42839 0.81752 0.81083 0.0
C1760 C 0.21342 0.38566 0.83645 0.0
C1761 C 0.21122 0.39213 0.85467 0.0
C1762 C 0.19883 0.3864 0.82365 0.0
C1763 C 0.18195 0.39449 0.82906 0.0
C1764 C 0.17993 0.40162 0.8473 0.0
C1765 C 0.19449 0.4 0.86001 0.0
C1766 C 0.20132 0.37815 0.80448 0.0
C1767 C 0.16245 0.41102 0.85337 0.0
C1768 C 0.15161 0.4101 0.7892 0.0
C1769 C 0.13827 0.3959 0.78867 0.0
C1770 C 0.16545 0.41027 0.80283 0.0
C1771 C 0.16639 0.39539 0.81564 0.0
C1772 C 0.15277 0.38108 0.81522 0.0
C1773 C 0.13862 0.3817 0.80189 0.0
C1774 C 0.17926 0.42615 0.80327 0.0
C1775 C 0.15362 0.3647 0.82827 0.0
H1776 H 0.22635 0.37943 0.83242 0.0
H1777 H 0.19285 0.40516 0.87408 0.0
H1778 H 0.19056 0.36734 0.80188 0.0
H1779 H 0.19965 0.38904 0.79376 0.0
H1780 H 0.21507 0.37179 0.8027 0.0
H1781 H 0.16351 0.41678 0.8677 0.0
H1782 H 0.15916 0.4225 0.84368 0.0
H1783 H 0.15074 0.40097 0.85288 0.0
H1784 H 0.15125 0.42103 0.77885 0.0
H1785 H 0.1284 0.37058 0.80118 0.0
H1786 H 0.19308 0.42104 0.79938 0.0
H1787 H 0.18035 0.43197 0.81756 0.0
H1788 H 0.17551 0.4375 0.79358 0.0
H1789 H 0.16666 0.35714 0.82602 0.0
H1790 H 0.14189 0.35483 0.82623 0.0
H1791 H 0.1536 0.36955 0.84293 0.0
C1792 C 0.59382 0.15027 0.78791 0.0
C1793 C 0.61043 0.14086 0.78579 0.0
C1794 C 0.59189 0.16398 0.80169 0.0
C1795 C 0.60721 0.16886 0.81303 0.0
C1796 C 0.62408 0.15942 0.81075 0.0
C1797 C 0.62536 0.14523 0.79736 0.0
C1798 C 0.57351 0.17325 0.80409 0.0
C1799 C 0.64088 0.16459 0.82215 0.0
C1800 C 0.60874 0.21738 0.83398 0.0
C1801 C 0.60453 0.2139 0.8527 0.0
C1802 C 0.60958 0.20286 0.82095 0.0
C1803 C 0.60587 0.18439 0.8267 0.0
C1804 C 0.60127 0.18079 0.84552 0.0
C1805 C 0.60079 0.19559 0.85834 0.0
C1806 C 0.61476 0.20727 0.80108 0.0
C1807 C 0.59693 0.16131 0.8521 0.0
H1808 H 0.58224 0.14664 0.779 0.0
H1809 H 0.63817 0.13786 0.79561 0.0
H1810 H 0.5691 0.1725 0.81885 0.0
H1811 H 0.57476 0.18818 0.80043 0.0
H1812 H 0.56261 0.16675 0.79526 0.0
H1813 H 0.65294 0.15592 0.81863 0.0
H1814 H 0.64461 0.17941 0.81978 0.0
H1815 H 0.63786 0.16301 0.83718 0.0
H1816 H 0.6117 0.23149 0.82951 0.0
H1817 H 0.59746 0.19282 0.87277 0.0
H1818 H 0.60361 0.20262 0.79152 0.0
H1819 H 0.62735 0.1996 0.79717 0.0
H1820 H 0.61734 0.22236 0.79889 0.0
H1821 H 0.58563 0.15514 0.8436 0.0
H1822 H 0.59282 0.16095 0.86698 0.0
H1823 H 0.60915 0.1524 0.85024 0.0
C1824 C 0.83826 0.39208 0.21307 0.0
C1825 C 0.85718 0.39266 0.20919 0.0
C1826 C 0.82516 0.39212 0.1987 0.0
C1827 C 0.83112 0.39272 0.17996 0.0
C1828 C 0.8502 0.39336 0.17593 0.0
C1829 C 0.86302 0.39333 0.19061 0.0
C1830 C 0.80494 0.39146 0.20359 0.0
C1831 C 0.85707 0.394 0.15612 0.0
C1832 C 0.79596 0.37555 0.14444 0.0
C1833 C 0.78849 0.39228 0.13836 0.0
C1834 C 0.81039 0.3755 0.15746 0.0
C1835 C 0.81726 0.39261 0.16466 0.0
C1836 C 0.80999 0.40957 0.15811 0.0
C1837 C 0.79565 0.40919 0.14498 0.0
C1838 C 0.81783 0.35714 0.16401 0.0
C1839 C 0.81685 0.42808 0.16549 0.0
H1840 H 0.83362 0.39157 0.2274 0.0
H1841 H 0.87762 0.39378 0.1875 0.0
H1842 H 0.79794 0.40377 0.19775 0.0
H1843 H 0.79833 0.37893 0.19732 0.0
H1844 H 0.80258 0.39117 0.21886 0.0
H1845 H 0.87234 0.39453 0.15532 0.0
H1846 H 0.85202 0.38157 0.14838 0.0
H1847 H 0.85153 0.40638 0.14896 0.0
H1848 H 0.7902 0.36251 0.13932 0.0
H1849 H 0.78962 0.42208 0.14031 0.0
H1850 H 0.81451 0.35518 0.17895 0.0
H1851 H 0.83306 0.35705 0.1627 0.0
H1852 H 0.81199 0.34519 0.15603 0.0
H1853 H 0.81348 0.42926 0.1805 0.0
H1854 H 0.81063 0.43999 0.15807 0.0
H1855 H 0.83205 0.42913 0.16421 0.0
C1856 C 0.62403 0.85256 0.20394 0.0
C1857 C 0.60875 0.85604 0.21514 0.0
C1858 C 0.62353 0.83821 0.19068 0.0
C1859 C 0.60708 0.82767 0.18817 0.0
C1860 C 0.59145 0.83148 0.19926 0.0
C1861 C 0.59261 0.84543 0.21294 0.0
C1862 C 0.64064 0.83423 0.1795 0.0
C1863 C 0.57348 0.82103 0.19652 0.0
C1864 C 0.60301 0.80408 0.14109 0.0
C1865 C 0.60741 0.78568 0.14541 0.0
C1866 C 0.60209 0.81772 0.15502 0.0
C1867 C 0.60623 0.81294 0.17363 0.0
C1868 C 0.61047 0.79431 0.17812 0.0
C1869 C 0.61076 0.78082 0.16395 0.0
C1870 C 0.59698 0.8373 0.14976 0.0
C1871 C 0.61538 0.78879 0.19774 0.0
H1872 H 0.63653 0.86078 0.20588 0.0
H1873 H 0.5808 0.84833 0.22166 0.0
H1874 H 0.6444 0.81941 0.18104 0.0
H1875 H 0.63797 0.83668 0.16452 0.0
H1876 H 0.65257 0.84305 0.18387 0.0
H1877 H 0.56243 0.8262 0.20581 0.0
H1878 H 0.56884 0.82235 0.18187 0.0
H1879 H 0.57541 0.80602 0.19924 0.0
H1880 H 0.60023 0.80784 0.12679 0.0
H1881 H 0.61423 0.7666 0.16728 0.0
H1882 H 0.60897 0.84679 0.15194 0.0
H1883 H 0.58568 0.84229 0.15879 0.0
H1884 H 0.59256 0.83833 0.135 0.0
H1885 H 0.62797 0.79647 0.20225 0.0
H1886 H 0.61788 0.77364 0.199 0.0
H1887 H 0.60418 0.79261 0.20744 0.0
C1888 C 0.13886 0.59448 0.19532 0.0
C1889 C 0.1419 0.6053 0.21129 0.0
C1890 C 0.15222 0.59354 0.18124 0.0
C1891 C 0.16868 0.60421 0.18293 0.0
C1892 C 0.17156 0.61555 0.19885 0.0
C1893 C 0.15826 0.61569 0.213 0.0
C1894 C 0.14894 0.58078 0.1648 0.0
C1895 C 0.18868 0.62754 0.20094 0.0
C1896 C 0.21244 0.59063 0.15779 0.0
C1897 C 0.21211 0.60231 0.14225 0.0
C1898 C 0.19799 0.59058 0.17072 0.0
C1899 C 0.18324 0.60305 0.16842 0.0
C1900 C 0.18284 0.61486 0.15267 0.0
C1901 C 0.19716 0.61408 0.13955 0.0
C1902 C 0.19863 0.57731 0.18695 0.0
C1903 C 0.16766 0.62875 0.15005 0.0
H1904 H 0.12624 0.58633 0.19408 0.0
H1905 H 0.16053 0.62419 0.2253 0.0
H1906 H 0.14945 0.58882 0.15167 0.0
H1907 H 0.16001 0.57031 0.16409 0.0
H1908 H 0.13543 0.57338 0.16561 0.0
H1909 H 0.1882 0.63655 0.21351 0.0
H1910 H 0.20099 0.61864 0.2019 0.0
H1911 H 0.19047 0.6365 0.18851 0.0
H1912 H 0.22397 0.5814 0.15974 0.0
H1913 H 0.19703 0.6232 0.12757 0.0
H1914 H 0.18552 0.56924 0.18785 0.0
H1915 H 0.2002 0.58523 0.20013 0.0
H1916 H 0.2102 0.56742 0.18582 0.0
H1917 H 0.15405 0.62156 0.1499 0.0
H1918 H 0.16923 0.63675 0.13694 0.0
H1919 H 0.16763 0.63866 0.16192 0.0
C1920 C 0.40378 0.22091 0.16088 0.0
C1921 C 0.39018 0.22019 0.14708 0.0
C1922 C 0.40441 0.20723 0.17477 0.0
C1923 C 0.39067 0.19305 0.17517 0.0
C1924 C 0.37654 0.19274 0.16157 0.0
C1925 C 0.37672 0.20611 0.14743 0.0
C1926 C 0.42007 0.20759 0.18861 0.0
C1927 C 0.36132 0.17822 0.16186 0.0
C1928 C 0.39858 0.14629 0.19782 0.0
C1929 C 0.39009 0.14867 0.21512 0.0
C1930 C 0.39963 0.16094 0.18503 0.0
C1931 C 0.39131 0.17811 0.18938 0.0
C1932 C 0.38272 0.18058 0.20688 0.0
C1933 C 0.38252 0.1659 0.2197 0.0
C1934 C 0.40945 0.15797 0.16677 0.0
C1935 C 0.37316 0.19845 0.21178 0.0
H1936 H 0.41431 0.23173 0.16035 0.0
H1937 H 0.36618 0.20569 0.13672 0.0
H1938 H 0.41463 0.20824 0.203 0.0
H1939 H 0.42803 0.19457 0.18741 0.0
H1940 H 0.4296 0.21961 0.18643 0.0
H1941 H 0.35059 0.18085 0.15119 0.0
H1942 H 0.36712 0.16426 0.15929 0.0
H1943 H 0.35468 0.17789 0.17576 0.0
H1944 H 0.40459 0.13301 0.19435 0.0
H1945 H 0.37586 0.16768 0.23307 0.0
H1946 H 0.4196 0.16938 0.16433 0.0
H1947 H 0.39938 0.15822 0.15516 0.0
H1948 H 0.41675 0.1445 0.16632 0.0
H1949 H 0.38287 0.21041 0.21054 0.0
H1950 H 0.36746 0.19827 0.22611 0.0
H1951 H 0.36173 0.20083 0.20183 0.0
C1952 C 0.86445 0.80664 0.59497 0.0
C1953 C 0.86206 0.79224 0.60784 0.0
C1954 C 0.85169 0.82117 0.59396 0.0
C1955 C 0.83665 0.8215 0.60652 0.0
C1956 C 0.83482 0.80741 0.62014 0.0
C1957 C 0.84736 0.79279 0.62039 0.0
C1958 C 0.85379 0.83564 0.57892 0.0
C1959 C 0.81933 0.8075 0.63415 0.0
C1960 C 0.80858 0.86498 0.61487 0.0
C1961 C 0.79206 0.86023 0.60585 0.0
C1962 C 0.82354 0.85277 0.61474 0.0
C1963 C 0.82205 0.83574 0.60486 0.0
C1964 C 0.80572 0.83145 0.59483 0.0
C1965 C 0.79079 0.84359 0.59574 0.0
C1966 C 0.84049 0.85761 0.62603 0.0
C1967 C 0.80376 0.8137 0.58367 0.0
H1968 H 0.87577 0.80607 0.58517 0.0
H1969 H 0.84564 0.78169 0.63045 0.0
H1970 H 0.84213 0.83431 0.56898 0.0
H1971 H 0.85331 0.84982 0.58498 0.0
H1972 H 0.86689 0.83418 0.5711 0.0
H1973 H 0.82094 0.79661 0.64493 0.0
H1974 H 0.81864 0.82125 0.64114 0.0
H1975 H 0.80598 0.80508 0.62695 0.0
H1976 H 0.8095 0.87784 0.62275 0.0
H1977 H 0.77807 0.84004 0.58857 0.0
H1978 H 0.85309 0.85608 0.61749 0.0
H1979 H 0.8416 0.84783 0.63788 0.0
H1980 H 0.84012 0.87202 0.63163 0.0
H1981 H 0.81596 0.8118 0.57462 0.0
H1982 H 0.79119 0.81357 0.57484 0.0
H1983 H 0.80299 0.80163 0.59322 0.0
C1984 C 0.86006 0.19558 0.39929 0.0
C1985 C 0.85691 0.2123 0.38995 0.0
C1986 C 0.84618 0.18187 0.40058 0.0
C1987 C 0.82905 0.18468 0.39164 0.0
C1988 C 0.82589 0.20151 0.38205 0.0
C1989 C 0.83976 0.21529 0.38163 0.0
C1990 C 0.84985 0.1644 0.41149 0.0
C1991 C 0.80805 0.20477 0.37181 0.0
C1992 C 0.80149 0.1414 0.37842 0.0
C1993 C 0.78717 0.14177 0.39142 0.0
C1994 C 0.81507 0.15545 0.37817 0.0
C1995 C 0.81468 0.16975 0.39176 0.0
C1996 C 0.8005 0.16985 0.40528 0.0
C1997 C 0.78665 0.15603 0.4047 0.0
C1998 C 0.8296 0.15519 0.36315 0.0
C1999 C 0.80003 0.18445 0.4204 0.0
H2000 H 0.87329 0.19331 0.40583 0.0
H2001 H 0.83739 0.22819 0.3743 0.0
H2002 H 0.83879 0.16206 0.4219 0.0
H2003 H 0.84977 0.1522 0.40202 0.0
H2004 H 0.86332 0.16502 0.41884 0.0
H2005 H 0.80787 0.21852 0.36481 0.0
H2006 H 0.80587 0.19375 0.36116 0.0
H2007 H 0.79627 0.20396 0.3816 0.0
H2008 H 0.80175 0.13039 0.36808 0.0
H2009 H 0.77562 0.15614 0.41486 0.0
H2010 H 0.84347 0.15403 0.36948 0.0
H2011 H 0.8294 0.16843 0.35527 0.0
H2012 H 0.82754 0.14346 0.35323 0.0
H2013 H 0.8133 0.18472 0.42809 0.0
H2014 H 0.78867 0.18193 0.43047 0.0
H2015 H 0.79827 0.1984 0.41418 0.0
C2016 C 0.80555 0.8606 0.38574 0.0
C2017 C 0.78951 0.85668 0.39586 0.0
C2018 C 0.82002 0.84782 0.38514 0.0
C2019 C 0.81861 0.83112 0.39548 0.0
C2020 C 0.80273 0.82757 0.4064 0.0
C2021 C 0.78821 0.84022 0.40615 0.0
C2022 C 0.83644 0.85182 0.37284 0.0
C2023 C 0.80095 0.81025 0.41813 0.0
C2024 C 0.84409 0.78762 0.38126 0.0
C2025 C 0.85939 0.78827 0.39312 0.0
C2026 C 0.83116 0.80193 0.38133 0.0
C2027 C 0.8332 0.81683 0.39414 0.0
C2028 C 0.84867 0.81753 0.40617 0.0
C2029 C 0.86181 0.80337 0.40525 0.0
C2030 C 0.81521 0.80099 0.36784 0.0
C2031 C 0.85098 0.83281 0.42047 0.0
H2032 H 0.80645 0.87329 0.37767 0.0
H2033 H 0.77583 0.83731 0.41412 0.0
H2034 H 0.84937 0.85116 0.38102 0.0
H2035 H 0.83724 0.84104 0.36179 0.0
H2036 H 0.8357 0.86569 0.36615 0.0
H2037 H 0.78858 0.81048 0.42722 0.0
H2038 H 0.79997 0.79781 0.409 0.0
H2039 H 0.81335 0.80867 0.427 0.0
H2040 H 0.84235 0.77597 0.37177 0.0
H2041 H 0.8736 0.80374 0.41453 0.0
H2042 H 0.81419 0.81426 0.3601 0.0
H2043 H 0.80212 0.79898 0.37556 0.0
H2044 H 0.81657 0.78943 0.35766 0.0
H2045 H 0.85086 0.8466 0.41364 0.0
H2046 H 0.86398 0.83156 0.4285 0.0
H2047 H 0.83923 0.83236 0.43033 0.0
C2048 C 0.14266 0.80578 0.39465 0.0
C2049 C 0.14468 0.78877 0.3854 0.0
C2050 C 0.15722 0.81882 0.39529 0.0
C2051 C 0.17385 0.81501 0.38581 0.0
C2052 C 0.17584 0.79789 0.37629 0.0
C2053 C 0.16133 0.78482 0.37651 0.0
C2054 C 0.1548 0.83665 0.40612 0.0
C2055 C 0.19311 0.79357 0.3655 0.0
C2056 C 0.20264 0.85699 0.37158 0.0
C2057 C 0.21719 0.85634 0.38433 0.0
C2058 C 0.18868 0.84334 0.37163 0.0
C2059 C 0.18891 0.8292 0.38529 0.0
C2060 C 0.20348 0.82869 0.39841 0.0
C2061 C 0.21769 0.8421 0.39753 0.0
C2062 C 0.17373 0.84401 0.35701 0.0
C2063 C 0.20383 0.81425 0.4136 0.0
H2064 H 0.12983 0.80877 0.40166 0.0
H2065 H 0.16281 0.77168 0.36925 0.0
H2066 H 0.16631 0.83858 0.41615 0.0
H2067 H 0.15517 0.84868 0.39651 0.0
H2068 H 0.14159 0.83683 0.41389 0.0
H2069 H 0.19237 0.7797 0.35867 0.0
H2070 H 0.19541 0.8043 0.35464 0.0
H2071 H 0.20525 0.79399 0.37486 0.0
H2072 H 0.20236 0.86805 0.36137 0.0
H2073 H 0.22886 0.84185 0.40756 0.0
H2074 H 0.16018 0.8462 0.36371 0.0
H2075 H 0.1729 0.83054 0.34945 0.0
H2076 H 0.17615 0.8553 0.34676 0.0
H2077 H 0.19101 0.81497 0.42195 0.0
H2078 H 0.21583 0.81614 0.42306 0.0
H2079 H 0.20434 0.80012 0.40743 0.0
C2080 C 0.20963 0.15723 0.37759 0.0
C2081 C 0.20915 0.14155 0.38906 0.0
C2082 C 0.19501 0.16975 0.37742 0.0
C2083 C 0.17991 0.16689 0.38958 0.0
C2084 C 0.1793 0.15094 0.40109 0.0
C2085 C 0.19383 0.13823 0.40043 0.0
C2086 C 0.19592 0.18626 0.36449 0.0
C2087 C 0.16376 0.14774 0.41469 0.0
C2088 C 0.15595 0.21158 0.40246 0.0
C2089 C 0.14002 0.21049 0.39152 0.0
C2090 C 0.16856 0.197 0.40267 0.0
C2091 C 0.1655 0.18131 0.39106 0.0
C2092 C 0.14929 0.18009 0.38009 0.0
C2093 C 0.13653 0.1946 0.38073 0.0
C2094 C 0.18534 0.19857 0.41506 0.0
C2095 C 0.14586 0.16389 0.36708 0.0
H2096 H 0.22145 0.15966 0.36867 0.0
H2097 H 0.19359 0.12613 0.4094 0.0
H2098 H 0.18291 0.18731 0.35646 0.0
H2099 H 0.19754 0.19926 0.37271 0.0
H2100 H 0.2076 0.18539 0.35456 0.0
H2101 H 0.16488 0.13422 0.422 0.0
H2102 H 0.16383 0.15906 0.42523 0.0
H2103 H 0.15029 0.14815 0.40743 0.0
H2104 H 0.15849 0.22384 0.41096 0.0
H2105 H 0.12421 0.19388 0.3722 0.0
H2106 H 0.1979 0.20006 0.4064 0.0
H2107 H 0.18682 0.18574 0.42345 0.0
H2108 H 0.18467 0.21068 0.42465 0.0
H2109 H 0.15672 0.16369 0.35623 0.0
H2110 H 0.13221 0.16461 0.36013 0.0
H2111 H 0.14664 0.15057 0.37475 0.0
C2112 C 0.19562 0.13542 0.61515 0.0
C2113 C 0.21198 0.14004 0.60582 0.0
C2114 C 0.18078 0.14777 0.6155 0.0
C2115 C 0.18214 0.16481 0.60574 0.0
C2116 C 0.1984 0.16914 0.59566 0.0
C2117 C 0.21326 0.15685 0.59611 0.0
C2118 C 0.16395 0.1429 0.6269 0.0
C2119 C 0.20021 0.1869 0.58461 0.0
C2120 C 0.13878 0.19227 0.59533 0.0
C2121 C 0.14053 0.20691 0.60812 0.0
C2122 C 0.15215 0.1783 0.59443 0.0
C2123 C 0.16717 0.17873 0.60708 0.0
C2124 C 0.16841 0.19306 0.62059 0.0
C2125 C 0.15527 0.20717 0.62069 0.0
C2126 C 0.15066 0.1636 0.57946 0.0
C2127 C 0.18383 0.19373 0.63471 0.0
H2128 H 0.19468 0.12244 0.62273 0.0
H2129 H 0.22584 0.16031 0.58871 0.0
H2130 H 0.1624 0.15322 0.63828 0.0
H2131 H 0.15136 0.14355 0.61818 0.0
H2132 H 0.16476 0.12882 0.63312 0.0
H2133 H 0.21295 0.1873 0.57606 0.0
H2134 H 0.18814 0.18847 0.57529 0.0
H2135 H 0.20048 0.19902 0.5942 0.0
H2136 H 0.12745 0.19224 0.58548 0.0
H2137 H 0.15653 0.21848 0.63065 0.0
H2138 H 0.15113 0.14952 0.58569 0.0
H2139 H 0.16259 0.16489 0.56989 0.0
H2140 H 0.13778 0.16476 0.57121 0.0
H2141 H 0.18488 0.18015 0.64189 0.0
H2142 H 0.18182 0.20477 0.64534 0.0
H2143 H 0.19714 0.1964 0.62759 0.0
C2144 C 0.80254 0.13977 0.6186 0.0
C2145 C 0.78647 0.1418 0.60804 0.0
C2146 C 0.81693 0.15296 0.61761 0.0
C2147 C 0.81542 0.16821 0.60532 0.0
C2148 C 0.79946 0.16993 0.59412 0.0
C2149 C 0.78502 0.15685 0.59584 0.0
C2150 C 0.83345 0.1509 0.63019 0.0
C2151 C 0.79756 0.1857 0.58046 0.0
C2152 C 0.84181 0.21284 0.61612 0.0
C2153 C 0.85751 0.21103 0.605 0.0
C2154 C 0.82819 0.19885 0.61657 0.0
C2155 C 0.83 0.18297 0.60507 0.0
C2156 C 0.84573 0.1812 0.59355 0.0
C2157 C 0.85952 0.19514 0.59393 0.0
C2158 C 0.81197 0.201 0.62951 0.0
C2159 C 0.84784 0.16477 0.58066 0.0
H2160 H 0.80364 0.12814 0.62808 0.0
H2161 H 0.77267 0.15829 0.5875 0.0
H2162 H 0.84628 0.15061 0.62185 0.0
H2163 H 0.83453 0.16308 0.63968 0.0
H2164 H 0.83265 0.13806 0.63872 0.0
H2165 H 0.78508 0.1841 0.5716 0.0
H2166 H 0.79672 0.1991 0.58808 0.0
H2167 H 0.80986 0.18652 0.57134 0.0
H2168 H 0.84035 0.2251 0.6248 0.0
H2169 H 0.87161 0.19386 0.58521 0.0
H2170 H 0.81093 0.18882 0.63891 0.0
H2171 H 0.799 0.20148 0.62137 0.0
H2172 H 0.81306 0.21382 0.63813 0.0
H2173 H 0.84818 0.1517 0.58879 0.0
H2174 H 0.86058 0.16578 0.57215 0.0
H2175 H 0.83579 0.16375 0.57117 0.0
C2176 C 0.19031 0.86109 0.59955 0.0
C2177 C 0.20735 0.85618 0.6071 0.0
C2178 C 0.17582 0.848 0.59824 0.0
C2179 C 0.17827 0.82985 0.60535 0.0
C2180 C 0.19537 0.82503 0.61342 0.0
C2181 C 0.20983 0.83816 0.61384 0.0
C2182 C 0.15807 0.85345 0.5889 0.0
C2183 C 0.19837 0.80602 0.62167 0.0
C2184 C 0.13644 0.79981 0.61728 0.0
C2185 C 0.13685 0.78662 0.60296 0.0
C2186 C 0.14971 0.8142 0.61814 0.0
C2187 C 0.16321 0.81568 0.60395 0.0
C2188 C 0.16298 0.80287 0.58895 0.0
C2189 C 0.15003 0.78823 0.58886 0.0
C2190 C 0.14987 0.8272 0.63466 0.0
C2191 C 0.17669 0.80433 0.57322 0.0
H2192 H 0.18846 0.87502 0.59422 0.0
H2193 H 0.223 0.83445 0.61983 0.0
H2194 H 0.15528 0.8441 0.57687 0.0
H2195 H 0.14637 0.8518 0.59869 0.0
H2196 H 0.15846 0.86804 0.58388 0.0
H2197 H 0.21201 0.80493 0.62857 0.0
H2198 H 0.18746 0.80282 0.63203 0.0
H2199 H 0.19741 0.79526 0.61061 0.0
H2200 H 0.12631 0.79832 0.62827 0.0
H2201 H 0.15022 0.77795 0.57779 0.0
H2202 H 0.14953 0.84186 0.62998 0.0
H2203 H 0.16282 0.82544 0.64265 0.0
H2204 H 0.13802 0.82462 0.64413 0.0
H2205 H 0.17713 0.81872 0.56769 0.0
H2206 H 0.17334 0.7946 0.56163 0.0
H2207 H 0.19069 0.80116 0.57843 0.0
C2208 C 0.12756 0.27126 0.46103 0.0
C2209 C 0.11583 0.25982 0.45041 0.0
C2210 C 0.12908 0.26888 0.4803 0.0
C2211 C 0.11813 0.25511 0.48919 0.0
C2212 C 0.10716 0.24274 0.47836 0.0
C2213 C 0.10633 0.24511 0.459 0.0
C2214 C 0.14133 0.28202 0.49129 0.0
C2215 C 0.09505 0.2281 0.48732 0.0
C2216 C 0.12479 0.24759 0.54119 0.0
C2217 C 0.11239 0.26048 0.54846 0.0
C2218 C 0.12675 0.2454 0.52183 0.0
C2219 C 0.11567 0.25599 0.50968 0.0
C2220 C 0.1026 0.26841 0.51708 0.0
C2221 C 0.10131 0.27068 0.53635 0.0
C2222 C 0.14109 0.23233 0.5144 0.0
C2223 C 0.09017 0.27963 0.50465 0.0
H2224 H 0.13515 0.28247 0.45432 0.0
H2225 H 0.09724 0.23625 0.45077 0.0
H2226 H 0.13272 0.29235 0.49862 0.0
H2227 H 0.14919 0.27435 0.50198 0.0
H2228 H 0.15121 0.28965 0.48221 0.0
H2229 H 0.08978 0.21777 0.47702 0.0
H2230 H 0.1026 0.22067 0.49839 0.0
H2231 H 0.08308 0.23491 0.49395 0.0
H2232 H 0.13335 0.23972 0.55061 0.0
H2233 H 0.09149 0.28042 0.54199 0.0
H2234 H 0.15211 0.24047 0.50733 0.0
H2235 H 0.13494 0.22277 0.50389 0.0
H2236 H 0.14745 0.22394 0.52561 0.0
H2237 H 0.09854 0.28966 0.49643 0.0
H2238 H 0.07978 0.28753 0.51268 0.0
H2239 H 0.08283 0.27035 0.49467 0.0
C2240 C 0.77536 0.0877 0.53895 0.0
C2241 C 0.76551 0.09989 0.55034 0.0
C2242 C 0.77394 0.08855 0.51951 0.0
C2243 C 0.76286 0.10232 0.51122 0.0
C2244 C 0.75269 0.11453 0.52267 0.0
C2245 C 0.75393 0.11298 0.54214 0.0
C2246 C 0.78464 0.07494 0.50784 0.0
C2247 C 0.74111 0.12969 0.51438 0.0
C2248 C 0.77876 0.11478 0.46253 0.0
C2249 C 0.76619 0.10476 0.45145 0.0
C2250 C 0.77714 0.115 0.48197 0.0
C2251 C 0.76292 0.10448 0.49059 0.0
C2252 C 0.74983 0.09479 0.47943 0.0
C2253 C 0.75148 0.09526 0.45994 0.0
C2254 C 0.79108 0.12595 0.49332 0.0
C2255 C 0.73471 0.0831 0.48807 0.0
H2256 H 0.78419 0.07745 0.54528 0.0
H2257 H 0.74642 0.12251 0.55096 0.0
H2258 H 0.77539 0.06801 0.49757 0.0
H2259 H 0.7955 0.08246 0.49991 0.0
H2260 H 0.7913 0.06409 0.51641 0.0
H2261 H 0.73322 0.13734 0.52512 0.0
H2262 H 0.75014 0.13974 0.50691 0.0
H2263 H 0.7313 0.12377 0.50403 0.0
H2264 H 0.79003 0.12231 0.45596 0.0
H2265 H 0.74181 0.08741 0.45139 0.0
H2266 H 0.80008 0.11625 0.50098 0.0
H2267 H 0.78401 0.13469 0.50379 0.0
H2268 H 0.79991 0.13506 0.48451 0.0
H2269 H 0.74087 0.07109 0.49535 0.0
H2270 H 0.72475 0.07772 0.47754 0.0
H2271 H 0.72711 0.09125 0.49861 0.0
C2272 C 0.89346 0.75077 0.4613 0.0
C2273 C 0.88441 0.73617 0.45193 0.0
C2274 C 0.89281 0.75209 0.48078 0.0
C2275 C 0.88241 0.73881 0.49099 0.0
C2276 C 0.87202 0.72499 0.48141 0.0
C2277 C 0.87341 0.72363 0.462 0.0
C2278 C 0.90445 0.76675 0.49046 0.0
C2279 C 0.86029 0.71095 0.49174 0.0
C2280 C 0.89914 0.72386 0.53849 0.0
C2281 C 0.88785 0.73405 0.55043 0.0
C2282 C 0.89781 0.72575 0.51916 0.0
C2283 C 0.88442 0.73768 0.51155 0.0
C2284 C 0.87288 0.74798 0.52355 0.0
C2285 C 0.87496 0.74628 0.54293 0.0
C2286 C 0.91076 0.71494 0.50689 0.0
C2287 C 0.8581 0.7604 0.51592 0.0
H2288 H 0.90207 0.7604 0.45351 0.0
H2289 H 0.86625 0.71245 0.45471 0.0
H2290 H 0.89643 0.77387 0.50143 0.0
H2291 H 0.91629 0.76001 0.49736 0.0
H2292 H 0.90987 0.77735 0.4806 0.0
H2293 H 0.85088 0.70312 0.48225 0.0
H2294 H 0.8693 0.70084 0.49884 0.0
H2295 H 0.85196 0.71791 0.50259 0.0
H2296 H 0.9093 0.7146 0.54431 0.0
H2297 H 0.8662 0.75412 0.55221 0.0
H2298 H 0.91805 0.72448 0.49719 0.0
H2299 H 0.90283 0.70477 0.49833 0.0
H2300 H 0.92119 0.70726 0.51506 0.0
H2301 H 0.86421 0.77085 0.50634 0.0
H2302 H 0.85057 0.7678 0.5271 0.0
H2303 H 0.84807 0.75196 0.50772 0.0
C2304 C 0.25071 0.89707 0.45727 0.0
C2305 C 0.23715 0.88656 0.44797 0.0
C2306 C 0.25158 0.89733 0.47681 0.0
C2307 C 0.23885 0.88645 0.4872 0.0
C2308 C 0.22613 0.87466 0.47777 0.0
C2309 C 0.22526 0.87506 0.45827 0.0
C2310 C 0.26514 0.91032 0.4863 0.0
C2311 C 0.21264 0.86247 0.48827 0.0
C2312 C 0.24485 0.88083 0.5396 0.0
C2313 C 0.2318 0.89334 0.54641 0.0
C2314 C 0.24747 0.87846 0.52034 0.0
C2315 C 0.23712 0.8892 0.50768 0.0
C2316 C 0.22437 0.90228 0.51456 0.0
C2317 C 0.22171 0.904 0.53379 0.0
C2318 C 0.26087 0.8641 0.51353 0.0
C2319 C 0.21333 0.91432 0.50159 0.0
H2320 H 0.25984 0.90607 0.44933 0.0
H2321 H 0.21487 0.86677 0.45108 0.0
H2322 H 0.25761 0.92212 0.49255 0.0
H2323 H 0.27237 0.90313 0.49776 0.0
H2324 H 0.27556 0.916 0.47646 0.0
H2325 H 0.20561 0.8522 0.47903 0.0
H2326 H 0.21976 0.8549 0.49956 0.0
H2327 H 0.20201 0.87126 0.49485 0.0
H2328 H 0.25259 0.87248 0.54933 0.0
H2329 H 0.21176 0.91385 0.53899 0.0
H2330 H 0.27096 0.87052 0.50383 0.0
H2331 H 0.25331 0.85309 0.50567 0.0
H2332 H 0.26848 0.8575 0.52513 0.0
H2333 H 0.22267 0.92186 0.49191 0.0
H2334 H 0.20493 0.92465 0.5092 0.0
H2335 H 0.20396 0.90548 0.49303 0.0
C2336 C 0.12429 0.72542 0.53246 0.0
C2337 C 0.1126 0.73584 0.54381 0.0
C2338 C 0.12648 0.72976 0.51353 0.0
C2339 C 0.11618 0.74439 0.50572 0.0
C2340 C 0.10439 0.75496 0.51719 0.0
C2341 C 0.10299 0.75076 0.53618 0.0
C2342 C 0.13969 0.71863 0.50189 0.0
C2343 C 0.09277 0.77034 0.50931 0.0
C2344 C 0.12763 0.76783 0.45986 0.0
C2345 C 0.11544 0.75866 0.44769 0.0
C2346 C 0.12886 0.76255 0.4786 0.0
C2347 C 0.11709 0.74828 0.48542 0.0
C2348 C 0.10508 0.73868 0.47304 0.0
C2349 C 0.10464 0.74379 0.45422 0.0
C2350 C 0.14231 0.77266 0.49123 0.0
C2351 C 0.09192 0.72376 0.47985 0.0
H2352 H 0.13184 0.71398 0.53842 0.0
H2353 H 0.09383 0.75872 0.54494 0.0
H2354 H 0.13198 0.71063 0.49113 0.0
H2355 H 0.1494 0.7281 0.49452 0.0
H2356 H 0.14775 0.70874 0.51039 0.0
H2357 H 0.08412 0.77705 0.52008 0.0
H2358 H 0.10171 0.78114 0.50286 0.0
H2359 H 0.08362 0.76468 0.49822 0.0
H2360 H 0.13605 0.77929 0.45474 0.0
H2361 H 0.09506 0.73684 0.44484 0.0
H2362 H 0.15027 0.76258 0.49955 0.0
H2363 H 0.13468 0.78156 0.50113 0.0
H2364 H 0.1521 0.78161 0.48332 0.0
H2365 H 0.09951 0.71282 0.48738 0.0
H2366 H 0.08401 0.71713 0.4683 0.0
H2367 H 0.08203 0.72991 0.48982 0.0
C2368 C 0.27228 0.12733 0.46106 0.0
C2369 C 0.26006 0.11725 0.44966 0.0
C2370 C 0.27037 0.12714 0.48045 0.0
C2371 C 0.25622 0.11616 0.48861 0.0
C2372 C 0.24315 0.1069 0.47712 0.0
C2373 C 0.24511 0.10775 0.4577 0.0
C2374 C 0.28428 0.13764 0.49222 0.0
C2375 C 0.22804 0.09483 0.48526 0.0
C2376 C 0.27078 0.09538 0.5345 0.0
C2377 C 0.26162 0.10662 0.54735 0.0
C2378 C 0.26838 0.09783 0.51535 0.0
C2379 C 0.25691 0.11221 0.50888 0.0
C2380 C 0.24724 0.12334 0.52179 0.0
C2381 C 0.24954 0.12024 0.54096 0.0
C2382 C 0.27857 0.08533 0.50205 0.0
C2383 C 0.23518 0.13902 0.51541 0.0
H2384 H 0.28373 0.13487 0.45482 0.0
H2385 H 0.23568 0.09987 0.4489 0.0
H2386 H 0.27731 0.14531 0.50357 0.0
H2387 H 0.29382 0.12767 0.49878 0.0
H2388 H 0.29256 0.14768 0.48388 0.0
H2389 H 0.21745 0.09094 0.47473 0.0
H2390 H 0.23412 0.08189 0.49079 0.0
H2391 H 0.22122 0.10197 0.49703 0.0
H2392 H 0.27996 0.0847 0.53947 0.0
H2393 H 0.24253 0.129 0.55092 0.0
H2394 H 0.28909 0.09358 0.49436 0.0
H2395 H 0.26891 0.07927 0.49163 0.0
H2396 H 0.28561 0.0738 0.50932 0.0
H2397 H 0.2439 0.15011 0.50911 0.0
H2398 H 0.22723 0.14517 0.52706 0.0
H2399 H 0.22541 0.1341 0.50453 0.0
C2400 C 0.89904 0.2483 0.53946 0.0
C2401 C 0.89016 0.26329 0.54788 0.0
C2402 C 0.89782 0.2453 0.52021 0.0
C2403 C 0.88685 0.25717 0.50923 0.0
C2404 C 0.87741 0.27204 0.51777 0.0
C2405 C 0.87949 0.27517 0.53699 0.0
C2406 C 0.90858 0.22964 0.5116 0.0
C2407 C 0.86505 0.28454 0.50664 0.0
C2408 C 0.89833 0.25837 0.4577 0.0
C2409 C 0.88677 0.24422 0.45078 0.0
C2410 C 0.89813 0.26316 0.47666 0.0
C2411 C 0.8856 0.25402 0.48877 0.0
C2412 C 0.87303 0.2406 0.48153 0.0
C2413 C 0.87403 0.23557 0.46267 0.0
C2414 C 0.91216 0.27709 0.4839 0.0
C2415 C 0.859 0.23104 0.49383 0.0
H2416 H 0.90744 0.23923 0.54789 0.0
H2417 H 0.87252 0.28669 0.54356 0.0
H2418 H 0.89903 0.21946 0.50493 0.0
H2419 H 0.9178 0.23517 0.50057 0.0
H2420 H 0.91707 0.22219 0.52199 0.0
H2421 H 0.85795 0.29488 0.51553 0.0
H2422 H 0.87321 0.29211 0.49598 0.0
H2423 H 0.8545 0.27606 0.49916 0.0
H2424 H 0.90833 0.26488 0.44852 0.0
H2425 H 0.86505 0.22467 0.45725 0.0
H2426 H 0.92189 0.27 0.49337 0.0
H2427 H 0.90533 0.2881 0.4921 0.0
H2428 H 0.92019 0.28375 0.47252 0.0
H2429 H 0.86605 0.2213 0.50332 0.0
H2430 H 0.8486 0.22304 0.48562 0.0
H2431 H 0.85179 0.24137 0.50259 0.0
C2432 C 0.72527 0.87649 0.46418 0.0
C2433 C 0.73769 0.88661 0.45314 0.0
C2434 C 0.72707 0.8763 0.48358 0.0
C2435 C 0.74127 0.88699 0.49212 0.0
C2436 C 0.7543 0.89664 0.48097 0.0
C2437 C 0.75249 0.89611 0.46153 0.0
C2438 C 0.71323 0.86539 0.49496 0.0
C2439 C 0.76936 0.90854 0.48957 0.0
C2440 C 0.72795 0.90489 0.53969 0.0
C2441 C 0.73767 0.89304 0.55146 0.0
C2442 C 0.72974 0.9036 0.52035 0.0
C2443 C 0.74108 0.88972 0.51259 0.0
C2444 C 0.75119 0.87789 0.52443 0.0
C2445 C 0.74957 0.87989 0.54381 0.0
C2446 C 0.71912 0.91682 0.50821 0.0
C2447 C 0.76305 0.86265 0.51666 0.0
H2448 H 0.71393 0.86899 0.45763 0.0
H2449 H 0.76202 0.90403 0.45295 0.0
H2450 H 0.72033 0.85705 0.5057 0.0
H2451 H 0.70397 0.87512 0.5023 0.0
H2452 H 0.70465 0.8559 0.48621 0.0
H2453 H 0.77952 0.91345 0.47908 0.0
H2454 H 0.76315 0.92086 0.49632 0.0
H2455 H 0.77672 0.90075 0.50053 0.0
H2456 H 0.71891 0.9152 0.54566 0.0
H2457 H 0.757 0.87066 0.55296 0.0
H2458 H 0.70838 0.90902 0.5003 0.0
H2459 H 0.72846 0.9235 0.49792 0.0
H2460 H 0.71231 0.92788 0.51643 0.0
H2461 H 0.7542 0.85219 0.50944 0.0
H2462 H 0.77102 0.85551 0.52767 0.0
H2463 H 0.7728 0.86834 0.5062 0.0
C2464 C 0.46238 0.12918 0.23291 0.0
C2465 C 0.45058 0.11637 0.24166 0.0
C2466 C 0.48103 0.13059 0.238 0.0
C2467 C 0.48811 0.11835 0.25157 0.0
C2468 C 0.47612 0.1056 0.26063 0.0
C2469 C 0.4574 0.10502 0.2558 0.0
C2470 C 0.49323 0.14483 0.22853 0.0
C2471 C 0.48323 0.09189 0.27472 0.0
C2472 C 0.53849 0.10554 0.24801 0.0
C2473 C 0.54604 0.11471 0.26351 0.0
C2474 C 0.51965 0.10667 0.24395 0.0
C2475 C 0.50825 0.11783 0.25528 0.0
C2476 C 0.51599 0.12775 0.27052 0.0
C2477 C 0.53477 0.12574 0.2747 0.0
C2478 C 0.51184 0.09539 0.22795 0.0
C2479 C 0.50441 0.14032 0.28246 0.0
H2480 H 0.45701 0.13803 0.22205 0.0
H2481 H 0.44827 0.09499 0.26241 0.0
H2482 H 0.50142 0.15275 0.23901 0.0
H2483 H 0.50309 0.13774 0.21922 0.0
H2484 H 0.48517 0.15479 0.22011 0.0
H2485 H 0.47202 0.08322 0.28084 0.0
H2486 H 0.4933 0.08256 0.26796 0.0
H2487 H 0.49056 0.0993 0.28613 0.0
H2488 H 0.54721 0.09685 0.23948 0.0
H2489 H 0.54069 0.13292 0.28662 0.0
H2490 H 0.50522 0.10467 0.21771 0.0
H2491 H 0.50105 0.08565 0.23314 0.0
H2492 H 0.52255 0.08723 0.22067 0.0
H2493 H 0.49682 0.15023 0.27359 0.0
H2494 H 0.51285 0.14834 0.29269 0.0
H2495 H 0.49401 0.13196 0.29016 0.0
C2496 C 0.89678 0.54104 0.2544 0.0
C2497 C 0.88508 0.54804 0.24068 0.0
C2498 C 0.8967 0.52203 0.25869 0.0
C2499 C 0.88411 0.50988 0.24951 0.0
C2500 C 0.87153 0.51711 0.23639 0.0
C2501 C 0.87245 0.53608 0.23182 0.0
C2502 C 0.91076 0.51481 0.27228 0.0
C2503 C 0.85745 0.50474 0.22683 0.0
C2504 C 0.89734 0.45925 0.24431 0.0
C2505 C 0.88861 0.45114 0.25969 0.0
C2506 C 0.89599 0.47837 0.24087 0.0
C2507 C 0.88505 0.48948 0.2527 0.0
C2508 C 0.87565 0.4812 0.26788 0.0
C2509 C 0.87785 0.46215 0.27142 0.0
C2510 C 0.90673 0.48675 0.2249 0.0
C2511 C 0.86332 0.49245 0.28038 0.0
H2512 H 0.90671 0.5503 0.26107 0.0
H2513 H 0.86336 0.54156 0.22125 0.0
H2514 H 0.90385 0.507 0.28363 0.0
H2515 H 0.92003 0.50499 0.26506 0.0
H2516 H 0.91928 0.52615 0.27855 0.0
H2517 H 0.84726 0.51286 0.2188 0.0
H2518 H 0.86446 0.49513 0.21714 0.0
H2519 H 0.84999 0.4961 0.23722 0.0
H2520 H 0.90579 0.45073 0.23534 0.0
H2521 H 0.87098 0.4558 0.28324 0.0
H2522 H 0.91628 0.49773 0.23021 0.0
H2523 H 0.89723 0.49345 0.21495 0.0
H2524 H 0.91488 0.47624 0.21726 0.0
H2525 H 0.87163 0.50301 0.28805 0.0
H2526 H 0.85586 0.48364 0.29064 0.0
H2527 H 0.85309 0.50003 0.2719 0.0
C2528 C 0.53922 0.87732 0.22686 0.0
C2529 C 0.54979 0.88896 0.23845 0.0
C2530 C 0.52 0.87636 0.22859 0.0
C2531 C 0.51112 0.88775 0.24185 0.0
C2532 C 0.52184 0.89875 0.2543 0.0
C2533 C 0.54113 0.89904 0.25259 0.0
C2534 C 0.50915 0.86405 0.21538 0.0
C2535 C 0.51292 0.91132 0.26841 0.0
C2536 C 0.46472 0.90407 0.22497 0.0
C2537 C 0.45251 0.89274 0.23504 0.0
C2538 C 0.48376 0.90317 0.2278 0.0
C2539 C 0.49083 0.89021 0.24066 0.0
C2540 C 0.47854 0.87899 0.25123 0.0
C2541 C 0.45941 0.88058 0.24846 0.0
C2542 C 0.49632 0.91573 0.21657 0.0
C2543 C 0.48558 0.86476 0.26477 0.0
H2544 H 0.54597 0.86933 0.21608 0.0
H2545 H 0.54933 0.90809 0.26152 0.0
H2546 H 0.4983 0.85617 0.22298 0.0
H2547 H 0.50219 0.87277 0.20486 0.0
H2548 H 0.51808 0.85402 0.20797 0.0
H2549 H 0.52302 0.91684 0.27874 0.0
H2550 H 0.50663 0.92325 0.26112 0.0
H2551 H 0.50173 0.90386 0.27591 0.0
H2552 H 0.45933 0.91364 0.21474 0.0
H2553 H 0.44993 0.87176 0.25617 0.0
H2554 H 0.50451 0.90727 0.20673 0.0
H2555 H 0.50616 0.92318 0.22587 0.0
H2556 H 0.48856 0.92616 0.20845 0.0
H2557 H 0.49256 0.85353 0.257 0.0
H2558 H 0.47431 0.85845 0.27319 0.0
H2559 H 0.49592 0.87114 0.2743 0.0
C2560 C 0.12106 0.54172 0.24948 0.0
C2561 C 0.1081 0.54772 0.26255 0.0
C2562 C 0.12293 0.52275 0.24533 0.0
C2563 C 0.11114 0.50957 0.25404 0.0
C2564 C 0.0983 0.51554 0.26754 0.0
C2565 C 0.09711 0.53454 0.27182 0.0
C2566 C 0.13714 0.51687 0.23125 0.0
C2567 C 0.08516 0.502 0.27679 0.0
C2568 C 0.09953 0.4654 0.22735 0.0
C2569 C 0.10937 0.45203 0.23727 0.0
C2570 C 0.10007 0.48416 0.23266 0.0
C2571 C 0.11114 0.48979 0.24795 0.0
C2572 C 0.12159 0.47645 0.25766 0.0
C2573 C 0.12035 0.45764 0.25239 0.0
C2574 C 0.08834 0.49786 0.22222 0.0
C2575 C 0.13396 0.48204 0.27368 0.0
H2576 H 0.1297 0.55188 0.24241 0.0
H2577 H 0.08699 0.53915 0.28184 0.0
H2578 H 0.14545 0.5053 0.23684 0.0
H2579 H 0.13017 0.51167 0.21848 0.0
H2580 H 0.14657 0.5285 0.22734 0.0
H2581 H 0.07655 0.50877 0.28756 0.0
H2582 H 0.07593 0.49563 0.26616 0.0
H2583 H 0.09288 0.49056 0.28338 0.0
H2584 H 0.09087 0.46109 0.21578 0.0
H2585 H 0.12805 0.44732 0.26001 0.0
H2586 H 0.09713 0.50908 0.21628 0.0
H2587 H 0.07852 0.50451 0.23193 0.0
H2588 H 0.08039 0.49118 0.21074 0.0
H2589 H 0.14354 0.49335 0.26932 0.0
H2590 H 0.14216 0.47021 0.27892 0.0
H2591 H 0.12557 0.48751 0.2853 0.0
C2592 C 0.45283 0.8778 0.7417 0.0
C2593 C 0.44823 0.89016 0.75603 0.0
C2594 C 0.47125 0.87564 0.73616 0.0
C2595 C 0.48526 0.88653 0.74478 0.0
C2596 C 0.48064 0.8991 0.75919 0.0
C2597 C 0.46223 0.90057 0.7648 0.0
C2598 C 0.47572 0.86173 0.72111 0.0
C2599 C 0.4951 0.91129 0.76844 0.0
C2600 C 0.53594 0.87418 0.74362 0.0
C2601 C 0.54258 0.88588 0.7295 0.0
C2602 C 0.51712 0.8735 0.74808 0.0
C2603 C 0.50475 0.88521 0.73856 0.0
C2604 C 0.51133 0.89672 0.72399 0.0
C2605 C 0.53014 0.89674 0.71948 0.0
C2606 C 0.51056 0.86068 0.76336 0.0
C2607 C 0.49868 0.90973 0.71379 0.0
H2608 H 0.44205 0.86963 0.73499 0.0
H2609 H 0.45871 0.91028 0.77577 0.0
H2610 H 0.48174 0.869 0.70892 0.0
H2611 H 0.48618 0.85187 0.72623 0.0
H2612 H 0.46337 0.8537 0.71645 0.0
H2613 H 0.48917 0.92057 0.7792 0.0
H2614 H 0.50571 0.90256 0.77509 0.0
H2615 H 0.50218 0.92001 0.75785 0.0
H2616 H 0.5455 0.86566 0.75131 0.0
H2617 H 0.53523 0.90593 0.70866 0.0
H2618 H 0.49845 0.85237 0.7586 0.0
H2619 H 0.50613 0.869 0.77554 0.0
H2620 H 0.52149 0.85104 0.76796 0.0
H2621 H 0.48666 0.90195 0.70805 0.0
H2622 H 0.50576 0.91711 0.70223 0.0
H2623 H 0.49329 0.92023 0.72366 0.0
C2624 C 0.11975 0.46395 0.72827 0.0
C2625 C 0.10806 0.45209 0.73838 0.0
C2626 C 0.12116 0.48295 0.73271 0.0
C2627 C 0.11007 0.4903 0.74711 0.0
C2628 C 0.0981 0.47835 0.7572 0.0
C2629 C 0.0975 0.45932 0.75293 0.0
C2630 C 0.13454 0.49514 0.72209 0.0
C2631 C 0.08562 0.48572 0.77224 0.0
C2632 C 0.12107 0.53627 0.77106 0.0
C2633 C 0.1097 0.54844 0.76132 0.0
C2634 C 0.12197 0.51742 0.76603 0.0
C2635 C 0.11063 0.51053 0.75143 0.0
C2636 C 0.09914 0.52284 0.74155 0.0
C2637 C 0.09908 0.54175 0.7464 0.0
C2638 C 0.13487 0.50487 0.77646 0.0
C2639 C 0.08639 0.51593 0.72634 0.0
H2640 H 0.12802 0.45829 0.71711 0.0
H2641 H 0.08834 0.45014 0.76063 0.0
H2642 H 0.12696 0.50592 0.71431 0.0
H2643 H 0.14395 0.50249 0.73192 0.0
H2644 H 0.14292 0.48708 0.71206 0.0
H2645 H 0.07674 0.47466 0.77839 0.0
H2646 H 0.09395 0.49223 0.78352 0.0
H2647 H 0.07666 0.49667 0.76644 0.0
H2648 H 0.12938 0.54155 0.78251 0.0
H2649 H 0.09017 0.5512 0.73901 0.0
H2650 H 0.1436 0.49711 0.76652 0.0
H2651 H 0.12682 0.49446 0.78452 0.0
H2652 H 0.14396 0.51273 0.78623 0.0
H2653 H 0.09437 0.50893 0.71526 0.0
H2654 H 0.07839 0.52733 0.71997 0.0
H2655 H 0.07658 0.50547 0.7321 0.0
C2656 C 0.46008 0.11851 0.75182 0.0
C2657 C 0.45212 0.10622 0.76468 0.0
C2658 C 0.47936 0.11993 0.74997 0.0
C2659 C 0.49078 0.1084 0.76088 0.0
C2660 C 0.48266 0.09537 0.77323 0.0
C2661 C 0.46348 0.09464 0.77516 0.0
C2662 C 0.48751 0.13426 0.73697 0.0
C2663 C 0.49427 0.08248 0.78479 0.0
C2664 C 0.54106 0.09923 0.75006 0.0
C2665 C 0.54986 0.10918 0.7644 0.0
C2666 C 0.5218 0.09957 0.74806 0.0
C2667 C 0.51122 0.11048 0.76042 0.0
C2668 C 0.52024 0.12163 0.77401 0.0
C2669 C 0.53943 0.12064 0.77601 0.0
C2670 C 0.51272 0.08723 0.73361 0.0
C2671 C 0.50955 0.13383 0.78717 0.0
H2672 H 0.45127 0.12756 0.74381 0.0
H2673 H 0.4573 0.085 0.78499 0.0
H2674 H 0.49498 0.14506 0.74519 0.0
H2675 H 0.49767 0.12778 0.72754 0.0
H2676 H 0.47681 0.14114 0.72845 0.0
H2677 H 0.48577 0.07212 0.79251 0.0
H2678 H 0.50409 0.07494 0.77579 0.0
H2679 H 0.50249 0.09069 0.79501 0.0
H2680 H 0.5491 0.09029 0.74112 0.0
H2681 H 0.54626 0.12854 0.78696 0.0
H2682 H 0.50218 0.09498 0.72573 0.0
H2683 H 0.50555 0.07548 0.74064 0.0
H2684 H 0.52284 0.08146 0.72363 0.0
H2685 H 0.49924 0.14202 0.77942 0.0
H2686 H 0.51869 0.14356 0.79505 0.0
H2687 H 0.50196 0.125 0.79729 0.0
C2688 C 0.88565 0.5386 0.72022 0.0
C2689 C 0.89496 0.54903 0.73386 0.0
C2690 C 0.88461 0.51914 0.72129 0.0
C2691 C 0.89368 0.50989 0.73599 0.0
C2692 C 0.90283 0.52041 0.75 0.0
C2693 C 0.90309 0.53991 0.74892 0.0
C2694 C 0.87424 0.50846 0.70639 0.0
C2695 C 0.91312 0.51107 0.76557 0.0
C2696 C 0.88265 0.45872 0.74451 0.0
C2697 C 0.89601 0.45014 0.7335 0.0
C2698 C 0.88169 0.47821 0.74552 0.0
C2699 C 0.8948 0.48925 0.73581 0.0
C2700 C 0.90874 0.48055 0.72527 0.0
C2701 C 0.90897 0.4611 0.72398 0.0
C2702 C 0.86631 0.48698 0.75645 0.0
C2703 C 0.92333 0.49178 0.71518 0.0
H2704 H 0.87922 0.54568 0.70867 0.0
H2705 H 0.91041 0.548 0.7594 0.0
H2706 H 0.88407 0.50057 0.69771 0.0
H2707 H 0.86463 0.49822 0.71282 0.0
H2708 H 0.86626 0.51775 0.69717 0.0
H2709 H 0.91862 0.52122 0.77593 0.0
H2710 H 0.90403 0.50095 0.77284 0.0
H2711 H 0.92481 0.50318 0.75971 0.0
H2712 H 0.87256 0.4502 0.75177 0.0
H2713 H 0.91942 0.45443 0.71562 0.0
H2714 H 0.85753 0.49518 0.74694 0.0
H2715 H 0.87201 0.49677 0.767 0.0
H2716 H 0.85752 0.47647 0.7636 0.0
H2717 H 0.91687 0.50005 0.70399 0.0
H2718 H 0.93403 0.48286 0.70884 0.0
H2719 H 0.93014 0.50172 0.72492 0.0
C2720 C 0.24013 0.53578 0.10186 0.0
C2721 C 0.25563 0.54209 0.11177 0.0
C2722 C 0.23491 0.51692 0.10206 0.0
C2723 C 0.24512 0.50427 0.11291 0.0
C2724 C 0.26019 0.51081 0.12372 0.0
C2725 C 0.26547 0.52961 0.12277 0.0
C2726 C 0.21908 0.5104 0.08995 0.0
C2727 C 0.27106 0.49785 0.13591 0.0
C2728 C 0.22392 0.45658 0.12225 0.0
C2729 C 0.23365 0.4455 0.10968 0.0
C2730 C 0.22766 0.47575 0.12368 0.0
C2731 C 0.24098 0.48401 0.11181 0.0
C2732 C 0.25058 0.47286 0.09886 0.0
C2733 C 0.247 0.45368 0.09817 0.0
C2734 C 0.21758 0.48709 0.13804 0.0
C2735 C 0.26453 0.48122 0.08562 0.0
H2736 H 0.2326 0.54544 0.09325 0.0
H2737 H 0.27735 0.53456 0.13059 0.0
H2738 H 0.22426 0.50086 0.07904 0.0
H2739 H 0.20885 0.50248 0.09831 0.0
H2740 H 0.21199 0.52213 0.08307 0.0
H2741 H 0.281 0.50547 0.145 0.0
H2742 H 0.26163 0.48949 0.14479 0.0
H2743 H 0.27883 0.488 0.12709 0.0
H2744 H 0.21369 0.45017 0.13124 0.0
H2745 H 0.2544 0.44511 0.08833 0.0
H2746 H 0.20968 0.49823 0.13115 0.0
H2747 H 0.22764 0.49399 0.14753 0.0
H2748 H 0.20792 0.47848 0.14646 0.0
H2749 H 0.25814 0.4925 0.07745 0.0
H2750 H 0.27013 0.47076 0.07581 0.0
H2751 H 0.27616 0.4875 0.09356 0.0
C2752 C 0.2488 0.54084 0.88421 0.0
C2753 C 0.26255 0.547 0.89657 0.0
C2754 C 0.24385 0.52193 0.88304 0.0
C2755 C 0.25249 0.50899 0.89489 0.0
C2756 C 0.26633 0.51517 0.90747 0.0
C2757 C 0.27137 0.53407 0.90797 0.0
C2758 C 0.22938 0.51581 0.86912 0.0
C2759 C 0.27555 0.50188 0.92065 0.0
C2760 C 0.22692 0.46384 0.90545 0.0
C2761 C 0.23672 0.451 0.89474 0.0
C2762 C 0.23194 0.48275 0.90565 0.0
C2763 C 0.2468 0.48904 0.89448 0.0
C2764 C 0.25645 0.47621 0.88326 0.0
C2765 C 0.25145 0.45728 0.88373 0.0
C2766 C 0.22159 0.49592 0.91813 0.0
C2767 C 0.27206 0.48247 0.87081 0.0
H2768 H 0.24207 0.55079 0.87526 0.0
H2769 H 0.2819 0.53882 0.91765 0.0
H2770 H 0.23493 0.50475 0.85998 0.0
H2771 H 0.21729 0.5098 0.87648 0.0
H2772 H 0.22466 0.52746 0.86028 0.0
H2773 H 0.28591 0.50895 0.9297 0.0
H2774 H 0.26504 0.49506 0.92962 0.0
H2775 H 0.28248 0.49075 0.9127 0.0
H2776 H 0.21562 0.45901 0.9141 0.0
H2777 H 0.25896 0.44741 0.87531 0.0
H2778 H 0.21541 0.50715 0.90974 0.0
H2779 H 0.23126 0.50261 0.92815 0.0
H2780 H 0.21046 0.48878 0.92606 0.0
H2781 H 0.26734 0.49366 0.86141 0.0
H2782 H 0.27751 0.47091 0.86223 0.0
H2783 H 0.28348 0.48835 0.87934 0.0
C2784 C 0.46434 0.23363 0.89899 0.0
C2785 C 0.45122 0.24279 0.88817 0.0
C2786 C 0.48309 0.23834 0.8978 0.0
C2787 C 0.48894 0.25215 0.88504 0.0
C2788 C 0.47579 0.26111 0.87369 0.0
C2789 C 0.457 0.25654 0.87564 0.0
C2790 C 0.49657 0.22886 0.91055 0.0
C2791 C 0.48158 0.2755 0.85955 0.0
C2792 C 0.53437 0.27651 0.89586 0.0
C2793 C 0.54683 0.26595 0.88549 0.0
C2794 C 0.51544 0.27238 0.89556 0.0
C2795 C 0.50875 0.25764 0.88421 0.0
C2796 C 0.52118 0.24742 0.87311 0.0
C2797 C 0.54013 0.25151 0.87411 0.0
C2798 C 0.50273 0.28326 0.90801 0.0
C2799 C 0.51449 0.23194 0.86047 0.0
H2800 H 0.45985 0.2231 0.90882 0.0
H2801 H 0.44686 0.26351 0.86716 0.0
H2802 H 0.50718 0.22162 0.90226 0.0
H2803 H 0.50383 0.23939 0.9193 0.0
H2804 H 0.48974 0.21856 0.91983 0.0
H2805 H 0.46982 0.28027 0.85098 0.0
H2806 H 0.48783 0.28774 0.8667 0.0
H2807 H 0.49224 0.26972 0.85019 0.0
H2808 H 0.5395 0.28758 0.90481 0.0
H2809 H 0.54973 0.24341 0.86597 0.0
H2810 H 0.49625 0.27379 0.91834 0.0
H2811 H 0.49146 0.28939 0.89971 0.0
H2812 H 0.51006 0.29463 0.91561 0.0
H2813 H 0.50902 0.22024 0.86893 0.0
H2814 H 0.52563 0.22662 0.85139 0.0
H2815 H 0.50305 0.23685 0.85157 0.0
C2816 C 0.77439 0.53675 0.90144 0.0
C2817 C 0.76515 0.55009 0.8909 0.0
C2818 C 0.76918 0.51793 0.9006 0.0
C2819 C 0.75473 0.51226 0.88853 0.0
C2820 C 0.74576 0.52558 0.87738 0.0
C2821 C 0.75089 0.54442 0.87891 0.0
C2822 C 0.77877 0.50422 0.91307 0.0
C2823 C 0.73065 0.51995 0.86396 0.0
C2824 C 0.75287 0.46052 0.87794 0.0
C2825 C 0.73881 0.45445 0.8899 0.0
C2826 C 0.75767 0.47945 0.87673 0.0
C2827 C 0.74859 0.49246 0.88821 0.0
C2828 C 0.73427 0.4864 0.9002 0.0
C2829 C 0.72936 0.46748 0.90068 0.0
C2830 C 0.77264 0.48547 0.8634 0.0
C2831 C 0.72462 0.49977 0.91304 0.0
H2832 H 0.7853 0.54113 0.91085 0.0
H2833 H 0.74383 0.55471 0.87065 0.0
H2834 H 0.76859 0.49752 0.9225 0.0
H2835 H 0.78503 0.49305 0.90461 0.0
H2836 H 0.78975 0.51091 0.92166 0.0
H2837 H 0.72601 0.53179 0.85533 0.0
H2838 H 0.7355 0.50873 0.85462 0.0
H2839 H 0.71864 0.51435 0.87176 0.0
H2840 H 0.76009 0.45046 0.86949 0.0
H2841 H 0.71861 0.46278 0.91007 0.0
H2842 H 0.78474 0.49081 0.8713 0.0
H2843 H 0.76773 0.49699 0.85451 0.0
H2844 H 0.77718 0.4739 0.85429 0.0
H2845 H 0.73476 0.50615 0.9228 0.0
H2846 H 0.71357 0.49286 0.92129 0.0
H2847 H 0.71846 0.51122 0.90493 0.0
C2848 C 0.46384 0.7575 0.89888 0.0
C2849 C 0.45692 0.74147 0.89006 0.0
C2850 C 0.48276 0.7617 0.89877 0.0
C2851 C 0.49494 0.74992 0.88905 0.0
C2852 C 0.4879 0.73408 0.87952 0.0
C2853 C 0.46899 0.72984 0.88044 0.0
C2854 C 0.48979 0.77838 0.90959 0.0
C2855 C 0.50036 0.72154 0.86848 0.0
C2856 C 0.54215 0.77034 0.87766 0.0
C2857 C 0.55319 0.76177 0.89102 0.0
C2858 C 0.52322 0.76623 0.8765 0.0
C2859 C 0.51511 0.7538 0.88947 0.0
C2860 C 0.52625 0.74529 0.90314 0.0
C2861 C 0.54525 0.74912 0.9035 0.0
C2862 C 0.51192 0.77506 0.86133 0.0
C2863 C 0.51805 0.73244 0.91759 0.0
H2864 H 0.45451 0.76639 0.90647 0.0
H2865 H 0.46359 0.71751 0.87351 0.0
H2866 H 0.49964 0.77383 0.92043 0.0
H2867 H 0.49735 0.78804 0.90025 0.0
H2868 H 0.4785 0.7861 0.91644 0.0
H2869 H 0.49252 0.71069 0.86064 0.0
H2870 H 0.50867 0.72987 0.8585 0.0
H2871 H 0.51013 0.71456 0.87796 0.0
H2872 H 0.54841 0.77998 0.86789 0.0
H2873 H 0.55384 0.7426 0.9139 0.0
H2874 H 0.50132 0.78412 0.86756 0.0
H2875 H 0.50456 0.76414 0.85317 0.0
H2876 H 0.52052 0.78354 0.8517 0.0
H2877 H 0.50716 0.73974 0.92547 0.0
H2878 H 0.52854 0.72741 0.9276 0.0
H2879 H 0.51146 0.72022 0.91074 0.0
C2880 C 0.74377 0.54185 0.10644 0.0
C2881 C 0.75744 0.54996 0.11772 0.0
C2882 C 0.74 0.52269 0.10717 0.0
C2883 C 0.7497 0.51149 0.11996 0.0
C2884 C 0.76293 0.51978 0.132 0.0
C2885 C 0.76689 0.5389 0.13049 0.0
C2886 C 0.72617 0.51432 0.09373 0.0
C2887 C 0.7731 0.50843 0.14624 0.0
C2888 C 0.7278 0.46399 0.12847 0.0
C2889 C 0.73859 0.45258 0.11714 0.0
C2890 C 0.73184 0.48307 0.1303 0.0
C2891 C 0.74658 0.49099 0.11999 0.0
C2892 C 0.75769 0.47943 0.10877 0.0
C2893 C 0.75374 0.4603 0.10773 0.0
C2894 C 0.72011 0.49481 0.14292 0.0
C2895 C 0.77321 0.48739 0.09716 0.0
H2896 H 0.7366 0.55038 0.09642 0.0
H2897 H 0.77739 0.54521 0.1393 0.0
H2898 H 0.73304 0.50395 0.08471 0.0
H2899 H 0.71511 0.50688 0.10143 0.0
H2900 H 0.71976 0.52497 0.08472 0.0
H2901 H 0.78156 0.51727 0.15575 0.0
H2902 H 0.76319 0.50012 0.15465 0.0
H2903 H 0.7823 0.49851 0.13911 0.0
H2904 H 0.71617 0.45799 0.13587 0.0
H2905 H 0.76199 0.45152 0.09883 0.0
H2906 H 0.71187 0.50456 0.13449 0.0
H2907 H 0.72896 0.50331 0.15234 0.0
H2908 H 0.71052 0.48623 0.15148 0.0
H2909 H 0.76762 0.49741 0.08696 0.0
H2910 H 0.78076 0.47646 0.08945 0.0
H2911 H 0.78313 0.49513 0.1061 0.0
C2912 C 0.54135 0.75194 0.11871 0.0
C2913 C 0.5486 0.76408 0.10531 0.0
C2914 C 0.52217 0.7498 0.1209 0.0
C2915 C 0.51014 0.75966 0.10905 0.0
C2916 C 0.51753 0.77119 0.0949 0.0
C2917 C 0.53665 0.77347 0.0934 0.0
C2918 C 0.51482 0.73773 0.13641 0.0
C2919 C 0.50523 0.78156 0.08163 0.0
C2920 C 0.45957 0.74714 0.10269 0.0
C2921 C 0.45114 0.76196 0.11192 0.0
C2922 C 0.47884 0.74562 0.10236 0.0
C2923 C 0.48984 0.75898 0.1119 0.0
C2924 C 0.48128 0.77318 0.12237 0.0
C2925 C 0.46203 0.77466 0.12202 0.0
C2926 C 0.48741 0.73052 0.09073 0.0
C2927 C 0.49249 0.7874 0.13315 0.0
H2928 H 0.55065 0.74481 0.12802 0.0
H2929 H 0.54231 0.78276 0.08295 0.0
H2930 H 0.50795 0.74658 0.14693 0.0
H2931 H 0.5043 0.72776 0.13102 0.0
H2932 H 0.52588 0.72983 0.14341 0.0
H2933 H 0.51317 0.78859 0.0704 0.0
H2934 H 0.49505 0.77188 0.07516 0.0
H2935 H 0.49741 0.79224 0.08936 0.0
H2936 H 0.45116 0.73735 0.09479 0.0
H2937 H 0.45551 0.786 0.12936 0.0
H2938 H 0.49836 0.7234 0.09865 0.0
H2939 H 0.49397 0.73683 0.07828 0.0
H2940 H 0.47707 0.71998 0.08601 0.0
H2941 H 0.50323 0.78047 0.14155 0.0
H2942 H 0.48379 0.79583 0.14258 0.0
H2943 H 0.49961 0.79693 0.12333 0.0
C2944 C 0.54398 0.24705 0.11468 0.0
C2945 C 0.54954 0.23238 0.10317 0.0
C2946 C 0.52517 0.25049 0.11767 0.0
C2947 C 0.51172 0.23926 0.10857 0.0
C2948 C 0.51735 0.22491 0.09638 0.0
C2949 C 0.53615 0.22151 0.09402 0.0
C2950 C 0.5197 0.26564 0.13106 0.0
C2951 C 0.50348 0.21287 0.08607 0.0
C2952 C 0.46357 0.22923 0.1262 0.0
C2953 C 0.45293 0.23994 0.11412 0.0
C2954 C 0.48287 0.23014 0.12565 0.0
C2955 C 0.49172 0.24163 0.11232 0.0
C2956 C 0.48103 0.25336 0.1009 0.0
C2957 C 0.46171 0.25253 0.10209 0.0
C2958 C 0.49374 0.21779 0.13845 0.0
C2959 C 0.48987 0.2656 0.08632 0.0
H2960 H 0.55432 0.2554 0.12185 0.0
H2961 H 0.54041 0.2103 0.08494 0.0
H2962 H 0.50973 0.27511 0.12441 0.0
H2963 H 0.51274 0.25935 0.14329 0.0
H2964 H 0.53176 0.27396 0.136 0.0
H2965 H 0.51014 0.20325 0.07607 0.0
H2966 H 0.49536 0.20447 0.09613 0.0
H2967 H 0.49368 0.22168 0.07832 0.0
H2968 H 0.45677 0.21961 0.13563 0.0
H2969 H 0.45348 0.26073 0.09265 0.0
H2970 H 0.5055 0.22562 0.14469 0.0
H2971 H 0.49948 0.20605 0.13037 0.0
H2972 H 0.48509 0.21198 0.14983 0.0
H2973 H 0.50189 0.27331 0.09216 0.0
H2974 H 0.48003 0.27575 0.08049 0.0
H2975 H 0.49499 0.25679 0.07478 0.0
C2976 C 0.62719 0.75422 0.04043 0.0
C2977 C 0.61287 0.76529 0.04706 0.0
C2978 C 0.63032 0.7524 0.02119 0.0
C2979 C 0.61845 0.76136 0.00848 0.0
C2980 C 0.60352 0.7719 0.01524 0.0
C2981 C 0.60113 0.77399 0.03444 0.0
C2982 C 0.64664 0.74147 0.0145 0.0
C2983 C 0.59017 0.7812 0.0022 0.0
C2984 C 0.63035 0.77668 0.95966 0.0
C2985 C 0.62103 0.76321 0.94898 0.0
C2986 C 0.63108 0.7753 0.97911 0.0
C2987 C 0.6217 0.76044 0.98808 0.0
C2988 C 0.61315 0.74625 0.97729 0.0
C2989 C 0.61314 0.74769 0.95782 0.0
C2990 C 0.64086 0.79039 0.9901 0.0
C2991 C 0.60264 0.73042 0.98629 0.0
H2992 H 0.6363 0.74759 0.05027 0.0
H2993 H 0.58993 0.78237 0.03964 0.0
H2994 H 0.64223 0.73086 0.00414 0.0
H2995 H 0.65655 0.75098 0.00745 0.0
H2996 H 0.65387 0.73443 0.02609 0.0
H2997 H 0.57851 0.78766 0.00972 0.0
H2998 H 0.59745 0.79219 0.99415 0.0
H2999 H 0.58452 0.77093 0.99207 0.0
H3000 H 0.63664 0.78858 0.95282 0.0
H3001 H 0.60583 0.73729 0.9496 0.0
H3002 H 0.64929 0.78427 0.00135 0.0
H3003 H 0.63055 0.79951 0.99674 0.0
H3004 H 0.64993 0.79912 0.98115 0.0
H3005 H 0.61072 0.72428 0.99777 0.0
H3006 H 0.599 0.71927 0.97614 0.0
H3007 H 0.58971 0.73579 0.9924 0.0
C3008 C 0.27412 0.62774 0.96369 0.0
C3009 C 0.26264 0.61673 0.95235 0.0
C3010 C 0.27186 0.628 0.98306 0.0
C3011 C 0.25811 0.61657 0.99129 0.0
C3012 C 0.2455 0.60665 0.97977 0.0
C3013 C 0.24782 0.607 0.96035 0.0
C3014 C 0.2853 0.63919 0.99477 0.0
C3015 C 0.23073 0.5942 0.98795 0.0
C3016 C 0.27388 0.59506 0.03647 0.0
C3017 C 0.26449 0.6055 0.04984 0.0
C3018 C 0.27131 0.59813 0.01743 0.0
C3019 C 0.25931 0.6123 0.01151 0.0
C3020 C 0.24949 0.62273 0.02491 0.0
C3021 C 0.25206 0.61907 0.04398 0.0
C3022 C 0.2818 0.5864 0.00365 0.0
C3023 C 0.23682 0.63814 0.01914 0.0
H3024 H 0.28547 0.63546 0.95748 0.0
H3025 H 0.23896 0.59842 0.9516 0.0
H3026 H 0.27806 0.64633 0.00629 0.0
H3027 H 0.2955 0.62972 0.00107 0.0
H3028 H 0.29287 0.64975 0.98639 0.0
H3029 H 0.22012 0.59023 0.97746 0.0
H3030 H 0.23714 0.58131 0.99321 0.0
H3031 H 0.22389 0.60104 -0.00012 0.0
H3032 H 0.2833 0.58436 0.04091 0.0
H3033 H 0.2448 0.62719 0.0543 0.0
H3034 H 0.2917 0.59529 0.99585 0.0
H3035 H 0.27217 0.58004 0.99338 0.0
H3036 H 0.28957 0.57512 0.01051 0.0
H3037 H 0.24505 0.64967 0.01298 0.0
H3038 H 0.22886 0.64371 0.03106 0.0
H3039 H 0.22704 0.63315 0.0083 0.0
C3040 C 0.38165 0.25016 0.04115 0.0
C3041 C 0.39373 0.23702 0.0485 0.0
C3042 C 0.37956 0.25213 0.02182 0.0
C3043 C 0.39022 0.24108 0.00968 0.0
C3044 C 0.40281 0.22818 0.01711 0.0
C3045 C 0.40421 0.22612 0.03642 0.0
C3046 C 0.36564 0.26564 0.01441 0.0
C3047 C 0.41476 0.21645 0.00464 0.0
C3048 C 0.37658 0.22844 0.96042 0.0
C3049 C 0.388 0.24034 0.95007 0.0
C3050 C 0.37614 0.2295 0.97988 0.0
C3051 C 0.3879 0.24235 0.98919 0.0
C3052 C 0.39888 0.25496 0.97875 0.0
C3053 C 0.3986 0.25397 0.95924 0.0
C3054 C 0.36381 0.21621 0.99049 0.0
C3055 C 0.4119 0.26857 0.98816 0.0
H3056 H 0.37347 0.25853 0.05052 0.0
H3057 H 0.41372 0.21611 0.04211 0.0
H3058 H 0.37238 0.27566 0.0048 0.0
H3059 H 0.35495 0.25799 0.00629 0.0
H3060 H 0.35878 0.27354 0.02569 0.0
H3061 H 0.42471 0.20802 0.01265 0.0
H3062 H 0.40599 0.2069 0.99619 0.0
H3063 H 0.42256 0.22547 0.99483 0.0
H3064 H 0.36825 0.21801 0.95327 0.0
H3065 H 0.40754 0.26308 0.95121 0.0
H3066 H 0.35619 0.22371 0.00151 0.0
H3067 H 0.37232 0.20556 0.99743 0.0
H3068 H 0.35372 0.20897 0.98126 0.0
H3069 H 0.4047 0.2764 0.99924 0.0
H3070 H 0.41805 0.27865 0.97819 0.0
H3071 H 0.42321 0.26084 0.99492 0.0
C3072 C 0.74579 0.38408 0.04235 0.0
C3073 C 0.73171 0.39524 0.04942 0.0
C3074 C 0.74848 0.38222 0.02307 0.0
C3075 C 0.73711 0.39214 0.01064 0.0
C3076 C 0.72323 0.40384 0.01777 0.0
C3077 C 0.72056 0.40506 0.03704 0.0
C3078 C 0.76311 0.36928 0.01598 0.0
C3079 C 0.71104 0.41494 0.00502 0.0
C3080 C 0.74976 0.4014 0.96021 0.0
C3081 C 0.73716 0.38969 0.95098 0.0
C3082 C 0.75062 0.40174 0.97976 0.0
C3083 C 0.73892 0.38974 0.99015 0.0
C3084 C 0.72727 0.37685 0.98075 0.0
C3085 C 0.72632 0.37719 0.96128 0.0
C3086 C 0.76299 0.41589 0.98924 0.0
C3087 C 0.71497 0.36346 0.99127 0.0
H3088 H 0.75437 0.37638 0.05189 0.0
H3089 H 0.70979 0.41387 0.04245 0.0
H3090 H 0.75654 0.35778 0.00793 0.0
H3091 H 0.77257 0.37676 0.0064 0.0
H3092 H 0.77132 0.3632 0.02745 0.0
H3093 H 0.70178 0.42435 0.01281 0.0
H3094 H 0.71959 0.42341 0.99537 0.0
H3095 H 0.70243 0.40538 0.99642 0.0
H3096 H 0.75802 0.41118 0.95222 0.0
H3097 H 0.71666 0.36805 0.95408 0.0
H3098 H 0.77094 0.40936 0.0006 0.0
H3099 H 0.75442 0.42687 0.99562 0.0
H3100 H 0.77278 0.42258 0.97937 0.0
H3101 H 0.72281 0.35648 0.00245 0.0
H3102 H 0.70879 0.35266 0.982 0.0
H3103 H 0.70364 0.37121 0.99798 0.0
C3104 C 0.61975 0.24764 0.95225 0.0
C3105 C 0.60824 0.26231 0.94729 0.0
C3106 C 0.62168 0.24233 0.97095 0.0
C3107 C 0.61133 0.25148 0.98487 0.0
C3108 C 0.59963 0.26625 0.97986 0.0
C3109 C 0.59848 0.27169 0.96117 0.0
C3110 C 0.63473 0.22692 0.97582 0.0
C3111 C 0.58792 0.27598 0.99416 0.0
C3112 C 0.59987 0.22522 0.02919 0.0
C3113 C 0.61111 0.23436 0.0423 0.0
C3114 C 0.59992 0.23058 0.01045 0.0
C3115 C 0.61195 0.24504 0.00454 0.0
C3116 C 0.62384 0.25388 0.0176 0.0
C3117 C 0.62303 0.24865 0.03642 0.0
C3118 C 0.58661 0.22121 0.99711 0.0
C3119 C 0.63724 0.26897 0.01173 0.0
H3120 H 0.62746 0.24052 0.94153 0.0
H3121 H 0.58948 0.28296 0.95732 0.0
H3122 H 0.64441 0.23165 0.98688 0.0
H3123 H 0.62689 0.21483 0.98139 0.0
H3124 H 0.64283 0.22223 0.96361 0.0
H3125 H 0.5795 0.28717 0.98796 0.0
H3126 H 0.57854 0.26576 0.00094 0.0
H3127 H 0.59676 0.28217 0.00521 0.0
H3128 H 0.59046 0.21432 0.03373 0.0
H3129 H 0.63179 0.25567 0.04654 0.0
H3130 H 0.5942 0.21494 0.98533 0.0
H3131 H 0.57718 0.23169 0.99119 0.0
H3132 H 0.57821 0.21016 0.00393 0.0
H3133 H 0.64565 0.26411 -0.00017 0.0
H3134 H 0.64661 0.27329 0.02323 0.0
H3135 H 0.62959 0.28133 0.00698 0.0
C3136 C 0.77329 0.59653 0.03887 0.0
C3137 C 0.76277 0.60776 0.0506 0.0
C3138 C 0.77193 0.59802 0.0195 0.0
C3139 C 0.76014 0.61144 0.01168 0.0
C3140 C 0.74932 0.62272 0.02346 0.0
C3141 C 0.75057 0.62055 0.04284 0.0
C3142 C 0.78338 0.58541 0.00742 0.0
C3143 C 0.73695 0.63747 0.01562 0.0
C3144 C 0.77599 0.62502 0.96348 0.0
C3145 C 0.76432 0.61411 0.95226 0.0
C3146 C 0.77384 0.62539 0.98285 0.0
C3147 C 0.76003 0.61412 0.99119 0.0
C3148 C 0.74764 0.60375 0.97985 0.0
C3149 C 0.74979 0.60407 0.96044 0.0
C3150 C 0.787 0.63705 0.99442 0.0
C3151 C 0.73299 0.59127 0.98823 0.0
H3152 H 0.78256 0.58648 0.04487 0.0
H3153 H 0.7425 0.62931 0.05195 0.0
H3154 H 0.7745 0.57821 0.99701 0.0
H3155 H 0.79374 0.59378 -0.00033 0.0
H3156 H 0.79072 0.57476 0.01566 0.0
H3157 H 0.72868 0.64437 0.02658 0.0
H3158 H 0.74544 0.6482 0.00844 0.0
H3159 H 0.72744 0.63135 0.0051 0.0
H3160 H 0.78711 0.63296 0.95712 0.0
H3161 H 0.74081 0.59555 0.95175 0.0
H3162 H 0.7967 0.62785 0.00182 0.0
H3163 H 0.77938 0.64501 0.00512 0.0
H3164 H 0.79514 0.64696 0.98579 0.0
H3165 H 0.73964 0.57926 0.99504 0.0
H3166 H 0.72316 0.58588 0.97759 0.0
H3167 H 0.72518 0.59878 0.99909 0.0
C3168 C 0.40259 0.75394 0.9585 0.0
C3169 C 0.39182 0.73981 0.95036 0.0
C3170 C 0.40148 0.75769 0.97763 0.0
C3171 C 0.38876 0.74753 0.98871 0.0
C3172 C 0.37721 0.73385 0.98033 0.0
C3173 C 0.37916 0.72987 0.96128 0.0
C3174 C 0.41446 0.77195 0.9861 0.0
C3175 C 0.36301 0.72322 0.99152 0.0
C3176 C 0.39947 0.74277 0.04018 0.0
C3177 C 0.38959 0.75753 0.04784 0.0
C3178 C 0.39926 0.73934 0.02095 0.0
C3179 C 0.38836 0.75053 0.00921 0.0
C3180 C 0.37777 0.765 0.01699 0.0
C3181 C 0.3788 0.76857 0.0362 0.0
C3182 C 0.41121 0.72415 0.01316 0.0
C3183 C 0.36547 0.77679 0.00502 0.0
H3184 H 0.41251 0.76148 0.95003 0.0
H3185 H 0.37074 0.71903 0.95489 0.0
H3186 H 0.40659 0.78286 0.99342 0.0
H3187 H 0.42335 0.76519 0.9966 0.0
H3188 H 0.42343 0.77873 0.97553 0.0
H3189 H 0.35383 0.71452 0.98257 0.0
H3190 H 0.36998 0.71403 0.0016 0.0
H3191 H 0.35444 0.73299 -0.00035 0.0
H3192 H 0.40796 0.73434 0.04916 0.0
H3193 H 0.37105 0.77991 0.04217 0.0
H3194 H 0.42118 0.73018 0.00308 0.0
H3195 H 0.40263 0.7138 0.00551 0.0
H3196 H 0.419 0.71683 0.02418 0.0
H3197 H 0.37396 0.78518 0.99526 0.0
H3198 H 0.35693 0.78638 0.01342 0.0
H3199 H 0.35622 0.76778 0.9965 0.0
C3200 C 0.24714 0.3709 0.0407 0.0
C3201 C 0.23376 0.38274 0.04802 0.0
C3202 C 0.24945 0.3691 0.02135 0.0
C3203 C 0.23851 0.37984 0.00923 0.0
C3204 C 0.22534 0.39217 0.01665 0.0
C3205 C 0.22295 0.39325 0.03593 0.0
C3206 C 0.26325 0.35547 0.0139 0.0
C3207 C 0.21373 0.40425 0.00423 0.0
C3208 C 0.25093 0.39098 0.95933 0.0
C3209 C 0.23729 0.38083 0.94979 0.0
C3210 C 0.25237 0.38993 0.97878 0.0
C3211 C 0.24019 0.37804 0.98871 0.0
C3212 C 0.22756 0.36648 0.97888 0.0
C3213 C 0.22603 0.36827 0.95953 0.0
C3214 C 0.26574 0.40277 0.98875 0.0
C3215 C 0.21474 0.3532 0.98889 0.0
H3216 H 0.25548 0.36276 0.05008 0.0
H3217 H 0.2128 0.40263 0.04159 0.0
H3218 H 0.256 0.34457 0.00562 0.0
H3219 H 0.2731 0.36259 0.00444 0.0
H3220 H 0.27113 0.34865 0.02518 0.0
H3221 H 0.20501 0.41396 0.01229 0.0
H3222 H 0.22269 0.41251 0.99478 0.0
H3223 H 0.2046 0.39539 0.99543 0.0
H3224 H 0.25957 0.40077 0.95177 0.0
H3225 H 0.21561 0.36028 0.95207 0.0
H3226 H 0.27318 0.39528 -0.00014 0.0
H3227 H 0.258 0.41415 0.9955 0.0
H3228 H 0.27598 0.40906 0.97908 0.0
H3229 H 0.22228 0.34546 -0.00022 0.0
H3230 H 0.20813 0.34306 0.9792 0.0
H3231 H 0.20374 0.36116 0.99591 0.0
C3232 C 0.03958 0.62433 0.77574 0.0
C3233 C 0.05043 0.61281 0.76462 0.0
C3234 C 0.02073 0.62645 0.77195 0.0
C3235 C 0.0125 0.61616 0.75721 0.0
C3236 C 0.02346 0.60441 0.74605 0.0
C3237 C 0.04237 0.60317 0.74968 0.0
C3238 C 0.00962 0.63964 0.78368 0.0
C3239 C 0.01514 0.59273 0.7306 0.0
C3240 C 0.96143 0.60445 0.75839 0.0
C3241 C 0.95478 0.61543 0.74386 0.0
C3242 C 0.98015 0.60489 0.76322 0.0
C3243 C 0.99235 0.61709 0.7537 0.0
C3244 C 0.98545 0.62902 0.73976 0.0
C3245 C 0.96678 0.62777 0.73473 0.0
C3246 C 0.98704 0.59153 0.77774 0.0
C3247 C 0.99789 0.64268 0.72976 0.0
H3248 H 0.04591 0.63188 0.78722 0.0
H3249 H 0.05078 0.59411 0.74121 0.0
H3250 H 0.00233 0.64961 0.77461 0.0
H3251 H 0.99897 0.63179 0.79157 0.0
H3252 H 0.01834 0.64759 0.79371 0.0
H3253 H 0.02551 0.58392 0.72357 0.0
H3254 H 0.0041 0.58356 0.73627 0.0
H3255 H 0.00872 0.6018 0.72004 0.0
H3256 H 0.95215 0.59478 0.76532 0.0
H3257 H 0.96157 0.63635 0.72357 0.0
H3258 H 0.99481 0.59912 0.78873 0.0
H3259 H 0.99667 0.58159 0.7712 0.0
H3260 H 0.97566 0.5835 0.78438 0.0
H3261 H 0.00639 0.65068 0.73992 0.0
H3262 H 0.98999 0.65258 0.72113 0.0
H3263 H 0.00747 0.63506 0.72056 0.0
C3264 C 0.37046 0.96094 0.76752 0.0
C3265 C 0.38323 0.95111 0.75689 0.0
C3266 C 0.36931 0.98032 0.7662 0.0
C3267 C 0.38171 0.9901 0.75448 0.0
C3268 C 0.39385 0.9801 0.74284 0.0
C3269 C 0.39428 0.96061 0.744 0.0
C3270 C 0.35578 0.9904 0.77843 0.0
C3271 C 0.40754 0.99 0.73043 0.0
C3272 C 0.3765 0.04242 0.74875 0.0
C3273 C 0.38765 0.0491 0.76331 0.0
C3274 C 0.37438 0.02319 0.74557 0.0
C3275 C 0.38408 0.01053 0.75688 0.0
C3276 C 0.39576 0.01732 0.77123 0.0
C3277 C 0.39719 0.03648 0.77442 0.0
C3278 C 0.36146 0.01643 0.73046 0.0
C3279 C 0.40671 0.00433 0.78334 0.0
H3280 H 0.3618 0.9535 0.77735 0.0
H3281 H 0.40423 0.95296 0.73587 0.0
H3282 H 0.36324 0.99701 0.79026 0.0
H3283 H 0.3489 0.00159 0.77056 0.0
H3284 H 0.34508 0.98083 0.78415 0.0
H3285 H 0.41395 0.98039 0.72027 0.0
H3286 H 0.4009 0.00144 0.72273 0.0
H3287 H 0.41863 0.99629 0.73915 0.0
H3288 H 0.36912 0.0522 0.74015 0.0
H3289 H 0.40607 0.04162 0.78548 0.0
H3290 H 0.34995 0.00835 0.73676 0.0
H3291 H 0.36871 0.00695 0.72081 0.0
H3292 H 0.35563 0.02807 0.72231 0.0
H3293 H 0.39721 0.99551 0.7917 0.0
H3294 H 0.41611 0.01193 0.79302 0.0
H3295 H 0.41504 0.99492 0.77456 0.0
C3296 C 0.03435 0.39876 0.72463 0.0
C3297 C 0.04694 0.38861 0.73518 0.0
C3298 C 0.01535 0.39648 0.72713 0.0
C3299 C 0.00868 0.38338 0.74023 0.0
C3300 C 0.0213 0.37317 0.75111 0.0
C3301 C 0.04036 0.37609 0.74861 0.0
C3302 C 0.00241 0.40798 0.71552 0.0
C3303 C 0.01468 0.35883 0.76492 0.0
C3304 C 0.95859 0.39134 0.75213 0.0
C3305 C 0.94978 0.38082 0.73821 0.0
C3306 C 0.97786 0.39131 0.75395 0.0
C3307 C 0.98844 0.38018 0.74179 0.0
C3308 C 0.97942 0.36821 0.72891 0.0
C3309 C 0.9602 0.36886 0.7271 0.0
C3310 C 0.98692 0.40444 0.7677 0.0
C3311 C 0.99014 0.35577 0.71602 0.0
H3312 H 0.03939 0.40865 0.71442 0.0
H3313 H 0.0501 0.36818 0.75673 0.0
H3314 H 0.99417 0.39876 0.70621 0.0
H3315 H 0.99262 0.41544 0.72464 0.0
H3316 H 0.00985 0.41836 0.70681 0.0
H3317 H 0.02618 0.3529 0.7731 0.0
H3318 H 0.00462 0.36502 0.77467 0.0
H3319 H 0.00746 0.34735 0.75745 0.0
H3320 H 0.95057 0.40063 0.76073 0.0
H3321 H 0.95337 0.3605 0.71649 0.0
H3322 H 0.99305 0.41642 0.76009 0.0
H3323 H 0.99824 0.3975 0.77523 0.0
H3324 H 0.97694 0.40986 0.77802 0.0
H3325 H 0.99677 0.36432 0.70502 0.0
H3326 H 0.98114 0.34515 0.70919 0.0
H3327 H 0.00123 0.34861 0.72371 0.0
C3328 C 0.59285 0.9609 0.72954 0.0
C3329 C 0.60333 0.94722 0.73826 0.0
C3330 C 0.59405 0.97953 0.7352 0.0
C3331 C 0.60649 0.98473 0.74954 0.0
C3332 C 0.61726 0.97097 0.75831 0.0
C3333 C 0.61531 0.95227 0.75276 0.0
C3334 C 0.58189 0.99364 0.72589 0.0
C3335 C 0.63103 0.97607 0.77328 0.0
C3336 C 0.61915 0.03615 0.74949 0.0
C3337 C 0.60788 0.04294 0.76372 0.0
C3338 C 0.61957 0.01705 0.74537 0.0
C3339 C 0.60799 0.00458 0.75532 0.0
C3340 C 0.59676 0.01137 0.76986 0.0
C3341 C 0.59705 0.03043 0.77406 0.0
C3342 C 0.6321 0.01028 0.73011 0.0
C3343 C 0.58381 0.99863 0.78042 0.0
H3344 H 0.58346 0.95695 0.71843 0.0
H3345 H 0.62352 0.94168 0.75939 0.0
H3346 H 0.57358 0.001 0.73649 0.0
H3347 H 0.5905 0.00425 0.71871 0.0
H3348 H 0.57239 0.98717 0.71554 0.0
H3349 H 0.63862 0.9638 0.77843 0.0
H3350 H 0.64113 0.9864 0.76781 0.0
H3351 H 0.62394 0.98268 0.7852 0.0
H3352 H 0.62766 0.04578 0.74159 0.0
H3353 H 0.58821 0.03567 0.78498 0.0
H3354 H 0.62374 0.0052 0.71817 0.0
H3355 H 0.64037 0.99843 0.73512 0.0
H3356 H 0.64162 0.0214 0.72509 0.0
H3357 H 0.57336 0.99268 0.77074 0.0
H3358 H 0.57656 0.00597 0.79183 0.0
H3359 H 0.59146 0.98684 0.78644 0.0
C3360 C 0.96219 0.375 0.26381 0.0
C3361 C 0.9511 0.38876 0.25611 0.0
C3362 C 0.98092 0.37391 0.25912 0.0
C3363 C 0.98881 0.38743 0.24713 0.0
C3364 C 0.97756 0.40132 0.23929 0.0
C3365 C 0.95872 0.40158 0.2436 0.0
C3366 C 0.99231 0.3585 0.26722 0.0
C3367 C 0.98554 0.41637 0.22698 0.0
C3368 C 0.03995 0.39795 0.2523 0.0
C3369 C 0.04712 0.38992 0.23611 0.0
C3370 C 0.02099 0.39722 0.25604 0.0
C3371 C 0.009 0.38772 0.24358 0.0
C3372 C 0.01626 0.37906 0.2275 0.0
C3373 C 0.03522 0.38054 0.22379 0.0
C3374 C 0.01376 0.40708 0.27306 0.0
C3375 C 0.00399 0.36831 0.21421 0.0
H3376 H 0.95617 0.36507 0.27344 0.0
H3377 H 0.95008 0.41234 0.23785 0.0
H3378 H 1.0 0.35132 0.25602 0.0
H3379 H 0.00263 0.36439 0.27707 0.0
H3380 H 0.98372 0.34807 0.27474 0.0
H3381 H 0.97488 0.42607 0.2219 0.0
H3382 H 0.99611 0.42449 0.23481 0.0
H3383 H 0.9925 0.41011 0.21479 0.0
H3384 H 0.0491 0.40534 0.26177 0.0
H3385 H 0.04077 0.37419 0.21134 0.0
H3386 H 0.00647 0.39705 0.28225 0.0
H3387 H 0.00362 0.41769 0.26884 0.0
H3388 H 0.02489 0.41405 0.28121 0.0
H3389 H 0.99588 0.35764 0.2219 0.0
H3390 H 0.01195 0.3613 0.20308 0.0
H3391 H 0.99403 0.3778 0.2076 0.0
C3392 C 0.59553 0.04179 0.25107 0.0
C3393 C 0.60684 0.0498 0.26479 0.0
C3394 C 0.59688 0.02288 0.24651 0.0
C3395 C 0.6104 0.01193 0.25535 0.0
C3396 C 0.62229 0.02018 0.26877 0.0
C3397 C 0.62011 0.03896 0.27362 0.0
C3398 C 0.5835 0.0145 0.23262 0.0
C3399 C 0.63729 0.00916 0.27801 0.0
C3400 C 0.60193 0.95979 0.25768 0.0
C3401 C 0.61134 0.95352 0.2419 0.0
C3402 C 0.60157 0.97876 0.26224 0.0
C3403 C 0.61145 0.99169 0.25113 0.0
C3404 C 0.6216 0.98532 0.23558 0.0
C3405 C 0.6211 0.96631 0.23091 0.0
C3406 C 0.59004 0.98501 0.27852 0.0
C3407 C 0.63284 0.99858 0.2238 0.0
H3408 H 0.58521 0.05022 0.24434 0.0
H3409 H 0.62898 0.04529 0.28409 0.0
H3410 H 0.59108 0.00848 0.2207 0.0
H3411 H 0.57557 0.003 0.23923 0.0
H3412 H 0.57365 0.02486 0.22721 0.0
H3413 H 0.64632 0.01799 0.28697 0.0
H3414 H 0.63109 0.99801 0.2867 0.0
H3415 H 0.6459 0.00231 0.2673 0.0
H3416 H 0.59419 0.94991 0.26606 0.0
H3417 H 0.62844 0.96142 0.21875 0.0
H3418 H 0.57937 0.99478 0.27364 0.0
H3419 H 0.59875 0.99261 0.28878 0.0
H3420 H 0.5831 0.97319 0.28568 0.0
H3421 H 0.62358 0.00824 0.21642 0.0
H3422 H 0.6413 0.99121 0.21331 0.0
H3423 H 0.6421 0.00715 0.23276 0.0
C3424 C 0.04004 0.59828 0.24 0.0
C3425 C 0.04665 0.61016 0.25403 0.0
C3426 C 0.02133 0.59809 0.23503 0.0
C3427 C 0.00916 0.61056 0.24388 0.0
C3428 C 0.01605 0.62331 0.25732 0.0
C3429 C 0.03467 0.62271 0.2625 0.0
C3430 C 0.01442 0.58389 0.22108 0.0
C3431 C 0.00365 0.63723 0.26662 0.0
C3432 C 0.96202 0.61749 0.22193 0.0
C3433 C 0.95075 0.60689 0.23375 0.0
C3434 C 0.98107 0.6191 0.2252 0.0
C3435 C 0.98901 0.60927 0.2402 0.0
C3436 C 0.97766 0.59822 0.2519 0.0
C3437 C 0.95861 0.59746 0.24873 0.0
C3438 C 0.99263 0.63153 0.21286 0.0
C3439 C 0.98565 0.58706 0.26767 0.0
H3440 H 0.04932 0.58846 0.23359 0.0
H3441 H 0.03987 0.63199 0.27327 0.0
H3442 H 0.00472 0.57407 0.22801 0.0
H3443 H 0.00671 0.59077 0.20976 0.0
H3444 H 0.02579 0.57579 0.21483 0.0
H3445 H 0.01155 0.64758 0.27505 0.0
H3446 H 0.99547 0.64472 0.25605 0.0
H3447 H 0.99379 0.62989 0.27591 0.0
H3448 H 0.95585 0.62488 0.21042 0.0
H3449 H 0.94987 0.58912 0.25776 0.0
H3450 H 0.00344 0.62333 0.20586 0.0
H3451 H 0.99974 0.64231 0.22142 0.0
H3452 H 0.98427 0.63854 0.20205 0.0
H3453 H 0.99662 0.57787 0.26235 0.0
H3454 H 0.97506 0.57835 0.27478 0.0
H3455 H 0.99206 0.59653 0.2781 0.0
C3456 C 0.39798 0.04123 0.24736 0.0
C3457 C 0.38981 0.05033 0.2323 0.0
C3458 C 0.39749 0.02175 0.24859 0.0
C3459 C 0.38809 0.01123 0.23475 0.0
C3460 C 0.37882 0.02048 0.22018 0.0
C3461 C 0.38009 0.03992 0.21894 0.0
C3462 C 0.408 0.01241 0.26402 0.0
C3463 C 0.36819 0.00981 0.20547 0.0
C3464 C 0.40457 0.96323 0.22164 0.0
C3465 C 0.39209 0.95167 0.23111 0.0
C3466 C 0.40376 0.9826 0.22329 0.0
C3467 C 0.38972 0.99064 0.2342 0.0
C3468 C 0.37709 0.97902 0.24391 0.0
C3469 C 0.37863 0.95958 0.2425 0.0
C3470 C 0.41786 0.99444 0.21318 0.0
C3471 C 0.36164 0.98711 0.25525 0.0
H3472 H 0.40558 0.0493 0.25764 0.0
H3473 H 0.37359 0.047 0.20742 0.0
H3474 H 0.3992 0.00187 0.27107 0.0
H3475 H 0.41995 0.00503 0.25804 0.0
H3476 H 0.41316 0.02253 0.27459 0.0
H3477 H 0.35975 0.01909 0.19666 0.0
H3478 H 0.37791 0.00229 0.19635 0.0
H3479 H 0.35899 0.99928 0.21201 0.0
H3480 H 0.41514 0.95707 0.21303 0.0
H3481 H 0.36896 0.95058 0.24976 0.0
H3482 H 0.42455 0.00438 0.22299 0.0
H3483 H 0.41098 0.00273 0.20226 0.0
H3484 H 0.4287 0.98598 0.20648 0.0
H3485 H 0.36721 0.997 0.26577 0.0
H3486 H 0.35339 0.97621 0.26247 0.0
H3487 H 0.35238 0.99506 0.24601 0.0
C3488 C 0.74145 0.0386 0.61104 0.0
C3489 C 0.75639 0.04654 0.62068 0.0
C3490 C 0.73753 0.01949 0.61227 0.0
C3491 C 0.74844 0.00822 0.62392 0.0
C3492 C 0.76281 0.01642 0.63461 0.0
C3493 C 0.76685 0.03546 0.63259 0.0
C3494 C 0.72241 0.01122 0.60025 0.0
C3495 C 0.77431 0.00499 0.64769 0.0
C3496 C 0.72891 0.95979 0.63294 0.0
C3497 C 0.73902 0.94913 0.6203 0.0
C3498 C 0.73243 0.97895 0.63497 0.0
C3499 C 0.74585 0.98768 0.62355 0.0
C3500 C 0.75623 0.97687 0.61093 0.0
C3501 C 0.75289 0.95767 0.6097 0.0
C3502 C 0.72157 0.98989 0.64905 0.0
C3503 C 0.77031 0.9857 0.59814 0.0
H3504 H 0.73345 0.04713 0.6017 0.0
H3505 H 0.77832 0.04164 0.64017 0.0
H3506 H 0.72845 0.00146 0.59002 0.0
H3507 H 0.71253 0.00313 0.60887 0.0
H3508 H 0.7147 0.02201 0.59255 0.0
H3509 H 0.78318 0.01382 0.65682 0.0
H3510 H 0.76532 0.9961 0.65654 0.0
H3511 H 0.78329 0.99563 0.63956 0.0
H3512 H 0.71825 0.95313 0.64123 0.0
H3513 H 0.76058 0.94945 0.59979 0.0
H3514 H 0.71224 -0.00043 0.64178 0.0
H3515 H 0.731 0.99844 0.65784 0.0
H3516 H 0.71314 0.98074 0.65821 0.0
H3517 H 0.76353 0.99604 0.58908 0.0
H3518 H 0.77723 0.97532 0.58916 0.0
H3519 H 0.78097 0.99325 0.60637 0.0
C3520 C 0.74458 0.03747 0.39503 0.0
C3521 C 0.75982 0.0447 0.3854 0.0
C3522 C 0.74029 0.01842 0.39449 0.0
C3523 C 0.75112 0.00641 0.38347 0.0
C3524 C 0.76599 0.01381 0.37297 0.0
C3525 C 0.77042 0.03285 0.37437 0.0
C3526 C 0.72471 0.01103 0.40639 0.0
C3527 C 0.77741 0.00156 0.36054 0.0
C3528 C 0.75297 0.95591 0.39833 0.0
C3529 C 0.73897 0.94784 0.38746 0.0
C3530 C 0.75716 0.97494 0.39704 0.0
C3531 C 0.74758 0.986 0.38404 0.0
C3532 C 0.73397 0.9777 0.37242 0.0
C3533 C 0.72954 0.95875 0.37456 0.0
C3534 C 0.77132 0.98334 0.41011 0.0
C3535 C 0.72396 0.98888 0.35794 0.0
H3536 H 0.73649 0.04662 0.40372 0.0
H3537 H 0.78213 0.03848 0.36682 0.0
H3538 H 0.71451 0.00339 0.39767 0.0
H3539 H 0.73016 0.00103 0.41669 0.0
H3540 H 0.71751 0.02226 0.414 0.0
H3541 H 0.78707 0.00977 0.35171 0.0
H3542 H 0.78555 0.99186 0.36913 0.0
H3543 H 0.76833 0.993 0.35139 0.0
H3544 H 0.76013 0.94745 0.40842 0.0
H3545 H 0.71881 0.9524 0.36605 0.0
H3546 H 0.76482 0.99419 0.41884 0.0
H3547 H 0.78252 0.99021 0.4021 0.0
H3548 H 0.7775 0.97281 0.41942 0.0
H3549 H 0.71505 0.99924 0.36484 0.0
H3550 H 0.71521 0.97997 0.34876 0.0
H3551 H 0.73398 0.99669 0.34921 0.0
C3552 C 0.96552 0.73035 0.40476 0.0
C3553 C 0.95218 0.74049 0.39516 0.0
C3554 C 0.98416 0.73571 0.40429 0.0
C3555 C 0.98966 0.7513 0.39357 0.0
C3556 C 0.97629 0.76144 0.38362 0.0
C3557 C 0.95765 0.75606 0.38474 0.0
C3558 C 0.99794 0.72479 0.41543 0.0
C3559 C 0.9817 0.77786 0.37169 0.0
C3560 C 0.03544 0.77459 0.40558 0.0
C3561 C 0.04741 0.76583 0.39314 0.0
C3562 C 0.01656 0.77012 0.40577 0.0
C3563 C 0.00944 0.75694 0.39286 0.0
C3564 C 0.02138 0.74854 0.37983 0.0
C3565 C 0.04027 0.75289 0.38031 0.0
C3566 C 0.00436 0.77902 0.42017 0.0
C3567 C 0.01423 0.73478 0.36555 0.0
H3568 H 0.96133 0.71841 0.41296 0.0
H3569 H 0.94738 0.76384 0.37719 0.0
H3570 H 0.00837 0.71871 0.40602 0.0
H3571 H 0.00537 0.73417 0.42526 0.0
H3572 H 0.99133 0.71336 0.42348 0.0
H3573 H 0.96969 0.78396 0.36444 0.0
H3574 H 0.98836 0.78881 0.38037 0.0
H3575 H 0.99192 0.77353 0.36111 0.0
H3576 H 0.04095 0.78449 0.41561 0.0
H3577 H 0.04948 0.74621 0.37056 0.0
H3578 H 0.99831 0.76814 0.4293 0.0
H3579 H 0.99276 0.78618 0.41331 0.0
H3580 H 0.01198 0.78926 0.42899 0.0
H3581 H 0.00886 0.72214 0.37262 0.0
H3582 H 0.02506 0.73057 0.35554 0.0
H3583 H 0.00262 0.74085 0.35768 0.0
C3584 C 0.27081 0.03805 0.40341 0.0
C3585 C 0.26141 0.0507 0.3922 0.0
C3586 C 0.26647 0.01901 0.40282 0.0
C3587 C 0.25277 0.01242 0.39031 0.0
C3588 C 0.2435 0.0251 0.37866 0.0
C3589 C 0.24774 0.04417 0.37995 0.0
C3590 C 0.27629 0.00599 0.41584 0.0
C3591 C 0.22917 0.01852 0.3648 0.0
C3592 C 0.2541 0.96081 0.37921 0.0
C3593 C 0.23979 0.95388 0.39038 0.0
C3594 C 0.25809 0.97995 0.37856 0.0
C3595 C 0.24789 0.9923 0.3898 0.0
C3596 C 0.23343 0.98534 0.40111 0.0
C3597 C 0.22938 0.96623 0.40105 0.0
C3598 C 0.27329 0.98692 0.36595 0.0
C3599 C 0.22258 0.99801 0.41367 0.0
H3600 H 0.28128 0.04311 0.413 0.0
H3601 H 0.24058 0.05394 0.37116 0.0
H3602 H 0.26611 0.99862 0.42476 0.0
H3603 H 0.28369 0.99527 0.40775 0.0
H3604 H 0.28637 0.0134 0.42494 0.0
H3605 H 0.2239 0.03004 0.35613 0.0
H3606 H 0.2351 0.0078 0.35551 0.0
H3607 H 0.2174 0.01193 0.3722 0.0
H3608 H 0.26206 0.95127 0.37083 0.0
H3609 H 0.21841 0.96086 0.40983 0.0
H3610 H 0.28461 0.99313 0.3744 0.0
H3611 H 0.26803 0.99801 0.35674 0.0
H3612 H 0.27905 0.97566 0.35718 0.0
H3613 H 0.232 0.00502 0.42373 0.0
H3614 H 0.21174 0.99039 0.42158 0.0
H3615 H 0.21594 0.00904 0.40538 0.0
C3616 C 0.04283 0.24707 0.38056 0.0
C3617 C 0.04899 0.2619 0.39175 0.0
C3618 C 0.02403 0.24224 0.37963 0.0
C3619 C 0.01121 0.25214 0.39057 0.0
C3620 C 0.01738 0.26713 0.40187 0.0
C3621 C 0.03615 0.27197 0.40214 0.0
C3622 C 0.01788 0.22647 0.36707 0.0
C3623 C 0.00423 0.27777 0.41407 0.0
C3624 C 0.95982 0.25117 0.38052 0.0
C3625 C 0.95348 0.23781 0.39325 0.0
C3626 C 0.97868 0.25545 0.37896 0.0
C3627 C 0.99142 0.24653 0.39078 0.0
C3628 C 0.98509 0.23294 0.40356 0.0
C3629 C 0.96622 0.22857 0.40447 0.0
C3630 C 0.98494 0.26969 0.36485 0.0
C3631 C 0.99818 0.22345 0.41671 0.0
H3632 H 0.0527 0.23934 0.37241 0.0
H3633 H 0.04085 0.28333 0.41096 0.0
H3634 H 0.01198 0.21498 0.37552 0.0
H3635 H 0.00687 0.23123 0.35756 0.0
H3636 H 0.02939 0.22094 0.35861 0.0
H3637 H 0.01126 0.28905 0.42206 0.0
H3638 H 0.99324 0.284 0.40546 0.0
H3639 H 0.99742 0.26815 0.42403 0.0
H3640 H 0.95002 0.2582 0.37169 0.0
H3641 H 0.96137 0.21833 0.41442 0.0
H3642 H 0.99603 0.2639 0.35603 0.0
H3643 H 0.99076 0.28208 0.37208 0.0
H3644 H 0.97351 0.27423 0.35571 0.0
H3645 H 0.00923 0.21648 0.40878 0.0
H3646 H 0.9911 0.21293 0.42557 0.0
H3647 H 0.00491 0.23396 0.42589 0.0
C3648 C 0.24605 0.04079 0.60427 0.0
C3649 C 0.26098 0.04822 0.61431 0.0
C3650 C 0.24167 0.02177 0.60509 0.0
C3651 C 0.25208 0.01003 0.61675 0.0
C3652 C 0.2666 0.01766 0.62765 0.0
C3653 C 0.27113 0.03664 0.62601 0.0
C3654 C 0.22644 0.0141 0.59282 0.0
C3655 C 0.27756 0.00573 0.64076 0.0
C3656 C 0.22952 0.96299 0.62595 0.0
C3657 C 0.23904 0.95158 0.61352 0.0
C3658 C 0.23429 0.98189 0.62793 0.0
C3659 C 0.24838 0.98963 0.61662 0.0
C3660 C 0.25817 0.97805 0.60421 0.0
C3661 C 0.2536 0.95907 0.60308 0.0
C3662 C 0.22403 0.99363 0.64182 0.0
C3663 C 0.27289 0.98585 0.59149 0.0
H3664 H 0.23832 0.04973 0.59507 0.0
H3665 H 0.28261 0.04245 0.63387 0.0
H3666 H 0.23214 0.00371 0.58301 0.0
H3667 H 0.21588 0.00685 0.60136 0.0
H3668 H 0.2196 0.02513 0.58463 0.0
H3669 H 0.28698 0.01414 0.64973 0.0
H3670 H 0.26815 0.99748 0.64978 0.0
H3671 H 0.28591 0.99575 0.63269 0.0
H3672 H 0.21835 0.95712 0.63413 0.0
H3673 H 0.26085 0.95025 0.59334 0.0
H3674 H 0.21535 0.00378 0.63439 0.0
H3675 H 0.2339 0.00169 0.65059 0.0
H3676 H 0.21503 0.98509 0.65102 0.0
H3677 H 0.26679 0.99636 0.58212 0.0
H3678 H 0.27937 0.97492 0.58283 0.0
H3679 H 0.2838 0.993 0.59973 0.0
C3680 C 0.96343 0.26907 0.62438 0.0
C3681 C 0.95233 0.25869 0.61212 0.0
C3682 C 0.98258 0.26681 0.62477 0.0
C3683 C 0.99088 0.25428 0.61217 0.0
C3684 C 0.97961 0.24298 0.60049 0.0
C3685 C 0.96038 0.24517 0.60078 0.0
C3686 C 0.99401 0.27876 0.63781 0.0
C3687 C 0.9879 0.22971 0.58663 0.0
C3688 C 0.0378 0.27136 0.59623 0.0
C3689 C 0.04975 0.26025 0.60655 0.0
C3690 C 0.01867 0.26886 0.59728 0.0
C3691 C 0.01121 0.25519 0.60935 0.0
C3692 C 0.02321 0.24357 0.6195 0.0
C3693 C 0.04241 0.24609 0.6178 0.0
C3694 C 0.00644 0.28129 0.58587 0.0
C3695 C 0.01578 0.22909 0.63275 0.0
H3696 H 0.95716 0.27942 0.63327 0.0
H3697 H 0.95179 0.23722 0.59121 0.0
H3698 H 0.00463 0.27033 0.64484 0.0
H3699 H 0.00128 0.28975 0.62975 0.0
H3700 H 0.98544 0.28559 0.64858 0.0
H3701 H 0.9774 0.22005 0.5806 0.0
H3702 H 0.99428 0.23777 0.57512 0.0
H3703 H 0.99892 0.22144 0.59318 0.0
H3704 H 0.04346 0.28216 0.58732 0.0
H3705 H 0.05165 0.23754 0.62585 0.0
H3706 H 0.99864 0.2906 0.59523 0.0
H3707 H 0.99625 0.2728 0.57792 0.0
H3708 H 0.01442 0.29002 0.57594 0.0
H3709 H 0.00905 0.23609 0.64468 0.0
H3710 H 0.02679 0.22 0.6382 0.0
H3711 H 0.00514 0.22029 0.62582 0.0
C3712 C 0.03467 0.71816 0.59458 0.0
C3713 C 0.0474 0.72966 0.60392 0.0
C3714 C 0.01566 0.72079 0.59647 0.0
C3715 C 0.00917 0.735 0.60836 0.0
C3716 C 0.02195 0.74672 0.61782 0.0
C3717 C 0.04095 0.74405 0.6153 0.0
C3718 C 0.00252 0.70821 0.58585 0.0
C3719 C 0.01556 0.76174 0.63092 0.0
C3720 C 0.95914 0.74781 0.6006 0.0
C3721 C 0.95016 0.73553 0.61278 0.0
C3722 C 0.97847 0.74847 0.59957 0.0
C3723 C 0.98899 0.7369 0.61133 0.0
C3724 C 0.97994 0.72552 0.62461 0.0
C3725 C 0.96063 0.72478 0.62499 0.0
C3726 C 0.98757 0.76057 0.58503 0.0
C3727 C 0.99061 0.71334 0.63773 0.0
H3728 H 0.03957 0.70715 0.58559 0.0
H3729 H 0.05076 0.75291 0.62263 0.0
H3730 H 0.9942 0.69978 0.59573 0.0
H3731 H 0.99281 0.71664 0.57756 0.0
H3732 H 0.0098 0.6986 0.5763 0.0
H3733 H 0.02721 0.77009 0.63671 0.0
H3734 H 0.00602 0.7712 0.62365 0.0
H3735 H 0.00781 0.75536 0.64262 0.0
H3736 H 0.95105 0.75605 0.59107 0.0
H3737 H 0.95368 0.71542 0.63458 0.0
H3738 H 0.99354 0.75163 0.57402 0.0
H3739 H 0.99905 0.76884 0.59121 0.0
H3740 H 0.9777 0.77022 0.57842 0.0
H3741 H 0.99689 0.70177 0.62982 0.0
H3742 H 0.98171 0.70729 0.6488 0.0
H3743 H 0.00199 0.72139 0.64439 0.0
loop_
_geom_bond_atom_site_label_1
_geom_bond_atom_site_label_2
_geom_bond_distance
_geom_bond_site_symmetry_2
_ccdc_geom_bond_type
Co0 O1 2.216 . S
Co0 O2 2.091 . S
Co0 O4 2.004 . S
Co0 O10 2.021 . S
Co0 O12 2.137 . S
Co0 O13 2.244 . S
O1 Co0 2.216 . S
O1 C8 1.247 . S
O2 Co0 2.091 . S
O2 C8 1.261 . S
C3 O12 1.247 . S
C3 O13 1.272 . S
O4 Co0 2.004 . S
O4 C9 1.259 . S
Co5 O6 2.061 . S
Co5 O11 2.052 . S
Co5 O13 2.135 . S
O6 Co5 2.061 . S
O6 C9 1.235 . S
C7 O10 1.238 . S
C7 O11 1.241 . S
C8 O1 1.247 . S
C8 O2 1.261 . S
C9 O4 1.259 . S
C9 O6 1.235 . S
O10 Co0 2.021 . S
O10 C7 1.238 . S
O11 Co5 2.052 . S
O11 C7 1.241 . S
O12 Co0 2.137 . S
O12 C3 1.247 . S
O13 Co0 2.244 . S
O13 C3 1.272 . S
O13 Co5 2.135 . S
Co14 O15 2.216 . S
Co14 O16 2.091 . S
Co14 O18 2.004 . S
Co14 O24 2.021 . S
Co14 O26 2.137 . S
Co14 O27 2.244 . S
O15 Co14 2.216 . S
O15 C22 1.247 . S
O16 Co14 2.091 . S
O16 C22 1.261 . S
C17 O26 1.247 . S
C17 O27 1.272 . S
O18 Co14 2.004 . S
O18 C23 1.259 . S
Co19 O20 2.061 . S
Co19 O25 2.052 . S
Co19 O27 2.135 . S
O20 Co19 2.061 . S
O20 C23 1.235 . S
C21 O24 1.238 . S
C21 O25 1.241 . S
C22 O15 1.247 . S
C22 O16 1.261 . S
C23 O18 1.259 . S
C23 O20 1.235 . S
O24 Co14 2.021 . S
O24 C21 1.238 . S
O25 Co19 2.052 . S
O25 C21 1.241 . S
O26 Co14 2.137 . S
O26 C17 1.247 . S
O27 Co14 2.244 . S
O27 C17 1.272 . S
O27 Co19 2.135 . S
Co28 O29 2.216 . S
Co28 O30 2.091 . S
Co28 O32 2.004 . S
Co28 O38 2.021 . S
Co28 O40 2.137 . S
Co28 O41 2.244 . S
O29 Co28 2.216 . S
O29 C36 1.247 . S
O30 Co28 2.091 . S
O30 C36 1.261 . S
C31 O40 1.247 . S
C31 O41 1.272 . S
O32 Co28 2.004 . S
O32 C37 1.259 . S
Co33 O34 2.061 . S
Co33 O39 2.052 . S
Co33 O41 2.135 . S
O34 Co33 2.061 . S
O34 C37 1.235 . S
C35 O38 1.238 . S
C35 O39 1.241 . S
C36 O29 1.247 . S
C36 O30 1.261 . S
C37 O32 1.259 . S
C37 O34 1.235 . S
O38 Co28 2.021 . S
O38 C35 1.238 . S
O39 Co33 2.052 . S
O39 C35 1.241 . S
O40 Co28 2.137 . S
O40 C31 1.247 . S
O41 Co28 2.244 . S
O41 C31 1.272 . S
O41 Co33 2.135 . S
Co42 O43 2.216 . S
Co42 O44 2.091 . S
Co42 O46 2.004 . S
Co42 O52 2.021 . S
Co42 O54 2.137 . S
Co42 O55 2.244 . S
O43 Co42 2.216 . S
O43 C50 1.247 . S
O44 Co42 2.091 . S
O44 C50 1.261 . S
C45 O54 1.247 . S
C45 O55 1.272 . S
O46 Co42 2.004 . S
O46 C51 1.259 . S
Co47 O48 2.061 . S
Co47 O53 2.052 . S
Co47 O55 2.135 . S
O48 Co47 2.061 . S
O48 C51 1.235 . S
C49 O52 1.238 . S
C49 O53 1.241 . S
C50 O43 1.247 . S
C50 O44 1.261 . S
C51 O46 1.259 . S
C51 O48 1.235 . S
O52 Co42 2.021 . S
O52 C49 1.238 . S
O53 Co47 2.052 . S
O53 C49 1.241 . S
O54 Co42 2.137 . S
O54 C45 1.247 . S
O55 Co42 2.244 . S
O55 C45 1.272 . S
O55 Co47 2.135 . S
Co56 O57 2.216 . S
Co56 O58 2.091 . S
Co56 O60 2.004 . S
Co56 O66 2.021 . S
Co56 O68 2.137 . S
Co56 O69 2.244 . S
O57 Co56 2.216 . S
O57 C64 1.247 . S
O58 Co56 2.091 . S
O58 C64 1.261 . S
C59 O68 1.247 . S
C59 O69 1.272 . S
O60 Co56 2.004 . S
O60 C65 1.259 . S
Co61 O62 2.061 . S
Co61 O67 2.052 . S
Co61 O69 2.135 . S
O62 Co61 2.061 . S
O62 C65 1.235 . S
C63 O66 1.238 . S
C63 O67 1.241 . S
C64 O57 1.247 . S
C64 O58 1.261 . S
C65 O60 1.259 . S
C65 O62 1.235 . S
O66 Co56 2.021 . S
O66 C63 1.238 . S
O67 Co61 2.052 . S
O67 C63 1.241 . S
O68 Co56 2.137 . S
O68 C59 1.247 . S
O69 Co56 2.244 . S
O69 C59 1.272 . S
O69 Co61 2.135 . S
Co70 O71 2.216 . S
Co70 O72 2.091 . S
Co70 O74 2.004 . S
Co70 O80 2.021 . S
Co70 O82 2.137 . S
Co70 O83 2.244 . S
O71 Co70 2.216 . S
O71 C78 1.247 . S
O72 Co70 2.091 . S
O72 C78 1.261 . S
C73 O82 1.247 . S
C73 O83 1.272 . S
O74 Co70 2.004 . S
O74 C79 1.259 . S
Co75 O76 2.061 . S
Co75 O81 2.052 . S
Co75 O83 2.135 . S
O76 Co75 2.061 . S
O76 C79 1.235 . S
C77 O80 1.238 . S
C77 O81 1.241 . S
C78 O71 1.247 . S
C78 O72 1.261 . S
C79 O74 1.259 . S
C79 O76 1.235 . S
O80 Co70 2.021 . S
O80 C77 1.238 . S
O81 Co75 2.052 . S
O81 C77 1.241 . S
O82 Co70 2.137 . S
O82 C73 1.247 . S
O83 Co70 2.244 . S
O83 C73 1.272 . S
O83 Co75 2.135 . S
Co84 O85 2.216 . S
Co84 O86 2.091 . S
Co84 O88 2.004 . S
Co84 O94 2.021 . S
Co84 O96 2.137 . S
Co84 O97 2.244 . S
O85 Co84 2.216 . S
O85 C92 1.247 . S
O86 Co84 2.091 . S
O86 C92 1.261 . S
C87 O96 1.247 . S
C87 O97 1.272 . S
O88 Co84 2.004 . S
O88 C93 1.259 . S
Co89 O90 2.061 . S
Co89 O95 2.052 . S
Co89 O97 2.135 . S
O90 Co89 2.061 . S
O90 C93 1.235 . S
C91 O94 1.238 . S
C91 O95 1.241 . S
C92 O85 1.247 . S
C92 O86 1.261 . S
C93 O88 1.259 . S
C93 O90 1.235 . S
O94 Co84 2.021 . S
O94 C91 1.238 . S
O95 Co89 2.052 . S
O95 C91 1.241 . S
O96 Co84 2.137 . S
O96 C87 1.247 . S
O97 Co84 2.244 . S
O97 C87 1.272 . S
O97 Co89 2.135 . S
Co98 O99 2.216 . S
Co98 O100 2.091 . S
Co98 O102 2.004 . S
Co98 O108 2.021 . S
Co98 O110 2.137 . S
Co98 O111 2.244 . S
O99 Co98 2.216 . S
O99 C106 1.247 . S
O100 Co98 2.091 . S
O100 C106 1.261 . S
C101 O110 1.247 . S
C101 O111 1.272 . S
O102 Co98 2.004 . S
O102 C107 1.259 . S
Co103 O104 2.061 . S
Co103 O109 2.052 . S
Co103 O111 2.135 . S
O104 Co103 2.061 . S
O104 C107 1.235 . S
C105 O108 1.238 . S
C105 O109 1.241 . S
C106 O99 1.247 . S
C106 O100 1.261 . S
C107 O102 1.259 . S
C107 O104 1.235 . S
O108 Co98 2.021 . S
O108 C105 1.238 . S
O109 Co103 2.052 . S
O109 C105 1.241 . S
O110 Co98 2.137 . S
O110 C101 1.247 . S
O111 Co98 2.244 . S
O111 C101 1.272 . S
O111 Co103 2.135 . S
Co112 O113 2.216 . S
Co112 O114 2.091 . S
Co112 O116 2.004 . S
Co112 O122 2.021 . S
Co112 O124 2.137 . S
Co112 O125 2.244 . S
O113 Co112 2.216 . S
O113 C120 1.247 . S
O114 Co112 2.091 . S
O114 C120 1.261 . S
C115 O124 1.247 . S
C115 O125 1.272 . S
O116 Co112 2.004 . S
O116 C121 1.259 . S
Co117 O118 2.061 . S
Co117 O123 2.052 . S
Co117 O125 2.135 . S
O118 Co117 2.061 . S
O118 C121 1.235 . S
C119 O122 1.238 . S
C119 O123 1.241 . S
C120 O113 1.247 . S
C120 O114 1.261 . S
C121 O116 1.259 . S
C121 O118 1.235 . S
O122 Co112 2.021 . S
O122 C119 1.238 . S
O123 Co117 2.052 . S
O123 C119 1.241 . S
O124 Co112 2.137 . S
O124 C115 1.247 . S
O125 Co112 2.244 . S
O125 C115 1.272 . S
O125 Co117 2.135 . S
Co126 O127 2.216 . S
Co126 O128 2.091 . S
Co126 O130 2.004 . S
Co126 O136 2.021 . S
Co126 O138 2.137 . S
Co126 O139 2.244 . S
O127 Co126 2.216 . S
O127 C134 1.247 . S
O128 Co126 2.091 . S
O128 C134 1.261 . S
C129 O138 1.247 . S
C129 O139 1.272 . S
O130 Co126 2.004 . S
O130 C135 1.259 . S
Co131 O132 2.061 . S
Co131 O137 2.052 . S
Co131 O139 2.135 . S
O132 Co131 2.061 . S
O132 C135 1.235 . S
C133 O136 1.238 . S
C133 O137 1.241 . S
C134 O127 1.247 . S
C134 O128 1.261 . S
C135 O130 1.259 . S
C135 O132 1.235 . S
O136 Co126 2.021 . S
O136 C133 1.238 . S
O137 Co131 2.052 . S
O137 C133 1.241 . S
O138 Co126 2.137 . S
O138 C129 1.247 . S
O139 Co126 2.244 . S
O139 C129 1.272 . S
O139 Co131 2.135 . S
Co140 O141 2.216 . S
Co140 O142 2.091 . S
Co140 O144 2.004 . S
Co140 O150 2.021 . S
Co140 O152 2.137 . S
Co140 O153 2.244 . S
O141 Co140 2.216 . S
O141 C148 1.247 . S
O142 Co140 2.091 . S
O142 C148 1.261 . S
C143 O152 1.247 . S
C143 O153 1.272 . S
O144 Co140 2.004 . S
O144 C149 1.259 . S
Co145 O146 2.061 . S
Co145 O151 2.052 . S
Co145 O153 2.135 . S
O146 Co145 2.061 . S
O146 C149 1.235 . S
C147 O150 1.238 . S
C147 O151 1.241 . S
C148 O141 1.247 . S
C148 O142 1.261 . S
C149 O144 1.259 . S
C149 O146 1.235 . S
O150 Co140 2.021 . S
O150 C147 1.238 . S
O151 Co145 2.052 . S
O151 C147 1.241 . S
O152 Co140 2.137 . S
O152 C143 1.247 . S
O153 Co140 2.244 . S
O153 C143 1.272 . S
O153 Co145 2.135 . S
Co154 O155 2.216 . S
Co154 O156 2.091 . S
Co154 O158 2.004 . S
Co154 O164 2.021 . S
Co154 O166 2.137 . S
Co154 O167 2.244 . S
O155 Co154 2.216 . S
O155 C162 1.247 . S
O156 Co154 2.091 . S
O156 C162 1.261 . S
C157 O166 1.247 . S
C157 O167 1.272 . S
O158 Co154 2.004 . S
O158 C163 1.259 . S
Co159 O160 2.061 . S
Co159 O165 2.052 . S
Co159 O167 2.135 . S
O160 Co159 2.061 . S
O160 C163 1.235 . S
C161 O164 1.238 . S
C161 O165 1.241 . S
C162 O155 1.247 . S
C162 O156 1.261 . S
C163 O158 1.259 . S
C163 O160 1.235 . S
O164 Co154 2.021 . S
O164 C161 1.238 . S
O165 Co159 2.052 . S
O165 C161 1.241 . S
O166 Co154 2.137 . S
O166 C157 1.247 . S
O167 Co154 2.244 . S
O167 C157 1.272 . S
O167 Co159 2.135 . S
Co168 O169 2.216 . S
Co168 O170 2.091 . S
Co168 O172 2.004 . S
Co168 O178 2.021 . S
Co168 O180 2.137 . S
Co168 O181 2.244 . S
O169 Co168 2.216 . S
O169 C176 1.247 . S
O170 Co168 2.091 . S
O170 C176 1.261 . S
C171 O180 1.247 . S
C171 O181 1.272 . S
O172 Co168 2.004 . S
O172 C177 1.259 . S
Co173 O174 2.061 . S
Co173 O179 2.052 . S
Co173 O181 2.135 . S
O174 Co173 2.061 . S
O174 C177 1.235 . S
C175 O178 1.238 . S
C175 O179 1.241 . S
C176 O169 1.247 . S
C176 O170 1.261 . S
C177 O172 1.259 . S
C177 O174 1.235 . S
O178 Co168 2.021 . S
O178 C175 1.238 . S
O179 Co173 2.052 . S
O179 C175 1.241 . S
O180 Co168 2.137 . S
O180 C171 1.247 . S
O181 Co168 2.244 . S
O181 C171 1.272 . S
O181 Co173 2.135 . S
Co182 O183 2.216 . S
Co182 O184 2.091 . S
Co182 O186 2.004 . S
Co182 O192 2.021 . S
Co182 O194 2.137 . S
Co182 O195 2.244 . S
O183 Co182 2.216 . S
O183 C190 1.247 . S
O184 Co182 2.091 . S
O184 C190 1.261 . S
C185 O194 1.247 . S
C185 O195 1.272 . S
O186 Co182 2.004 . S
O186 C191 1.259 . S
Co187 O188 2.061 . S
Co187 O193 2.052 . S
Co187 O195 2.135 . S
O188 Co187 2.061 . S
O188 C191 1.235 . S
C189 O192 1.238 . S
C189 O193 1.241 . S
C190 O183 1.247 . S
C190 O184 1.261 . S
C191 O186 1.259 . S
C191 O188 1.235 . S
O192 Co182 2.021 . S
O192 C189 1.238 . S
O193 Co187 2.052 . S
O193 C189 1.241 . S
O194 Co182 2.137 . S
O194 C185 1.247 . S
O195 Co182 2.244 . S
O195 C185 1.272 . S
O195 Co187 2.135 . S
Co196 O197 2.216 . S
Co196 O198 2.091 . S
Co196 O200 2.004 . S
Co196 O206 2.021 . S
Co196 O208 2.137 . S
Co196 O209 2.244 . S
O197 Co196 2.216 . S
O197 C204 1.247 . S
O198 Co196 2.091 . S
O198 C204 1.261 . S
C199 O208 1.247 . S
C199 O209 1.272 . S
O200 Co196 2.004 . S
O200 C205 1.259 . S
Co201 O202 2.061 . S
Co201 O207 2.052 . S
Co201 O209 2.135 . S
O202 Co201 2.061 . S
O202 C205 1.235 . S
C203 O206 1.238 . S
C203 O207 1.241 . S
C204 O197 1.247 . S
C204 O198 1.261 . S
C205 O200 1.259 . S
C205 O202 1.235 . S
O206 Co196 2.021 . S
O206 C203 1.238 . S
O207 Co201 2.052 . S
O207 C203 1.241 . S
O208 Co196 2.137 . S
O208 C199 1.247 . S
O209 Co196 2.244 . S
O209 C199 1.272 . S
O209 Co201 2.135 . S
Co210 O211 2.216 . S
Co210 O212 2.091 . S
Co210 O214 2.004 . S
Co210 O220 2.021 . S
Co210 O222 2.137 . S
Co210 O223 2.244 . S
O211 Co210 2.216 . S
O211 C218 1.247 . S
O212 Co210 2.091 . S
O212 C218 1.261 . S
C213 O222 1.247 . S
C213 O223 1.272 . S
O214 Co210 2.004 . S
O214 C219 1.259 . S
Co215 O216 2.061 . S
Co215 O221 2.052 . S
Co215 O223 2.135 . S
O216 Co215 2.061 . S
O216 C219 1.235 . S
C217 O220 1.238 . S
C217 O221 1.241 . S
C218 O211 1.247 . S
C218 O212 1.261 . S
C219 O214 1.259 . S
C219 O216 1.235 . S
O220 Co210 2.021 . S
O220 C217 1.238 . S
O221 Co215 2.052 . S
O221 C217 1.241 . S
O222 Co210 2.137 . S
O222 C213 1.247 . S
O223 Co210 2.244 . S
O223 C213 1.272 . S
O223 Co215 2.135 . S
Co224 O225 2.216 . S
Co224 O226 2.091 . S
Co224 O228 2.004 . S
Co224 O234 2.021 . S
Co224 O236 2.137 . S
Co224 O237 2.244 . S
O225 Co224 2.216 . S
O225 C232 1.247 . S
O226 Co224 2.091 . S
O226 C232 1.261 . S
C227 O236 1.247 . S
C227 O237 1.272 . S
O228 Co224 2.004 . S
O228 C233 1.259 . S
Co229 O230 2.061 . S
Co229 O235 2.052 . S
Co229 O237 2.135 . S
O230 Co229 2.061 . S
O230 C233 1.235 . S
C231 O234 1.238 . S
C231 O235 1.241 . S
C232 O225 1.247 . S
C232 O226 1.261 . S
C233 O228 1.259 . S
C233 O230 1.235 . S
O234 Co224 2.021 . S
O234 C231 1.238 . S
O235 Co229 2.052 . S
O235 C231 1.241 . S
O236 Co224 2.137 . S
O236 C227 1.247 . S
O237 Co224 2.244 . S
O237 C227 1.272 . S
O237 Co229 2.135 . S
Co238 O239 2.216 . S
Co238 O240 2.091 . S
Co238 O242 2.004 . S
Co238 O248 2.021 . S
Co238 O250 2.137 . S
Co238 O251 2.244 . S
O239 Co238 2.216 . S
O239 C246 1.247 . S
O240 Co238 2.091 . S
O240 C246 1.261 . S
C241 O250 1.247 . S
C241 O251 1.272 . S
O242 Co238 2.004 . S
O242 C247 1.259 . S
Co243 O244 2.061 . S
Co243 O249 2.052 . S
Co243 O251 2.135 . S
O244 Co243 2.061 . S
O244 C247 1.235 . S
C245 O248 1.238 . S
C245 O249 1.241 . S
C246 O239 1.247 . S
C246 O240 1.261 . S
C247 O242 1.259 . S
C247 O244 1.235 . S
O248 Co238 2.021 . S
O248 C245 1.238 . S
O249 Co243 2.052 . S
O249 C245 1.241 . S
O250 Co238 2.137 . S
O250 C241 1.247 . S
O251 Co238 2.244 . S
O251 C241 1.272 . S
O251 Co243 2.135 . S
Co252 O253 2.216 . S
Co252 O254 2.091 . S
Co252 O256 2.004 . S
Co252 O262 2.021 . S
Co252 O264 2.137 . S
Co252 O265 2.244 . S
O253 Co252 2.216 . S
O253 C260 1.247 . S
O254 Co252 2.091 . S
O254 C260 1.261 . S
C255 O264 1.247 . S
C255 O265 1.272 . S
O256 Co252 2.004 . S
O256 C261 1.259 . S
Co257 O258 2.061 . S
Co257 O263 2.052 . S
Co257 O265 2.135 . S
O258 Co257 2.061 . S
O258 C261 1.235 . S
C259 O262 1.238 . S
C259 O263 1.241 . S
C260 O253 1.247 . S
C260 O254 1.261 . S
C261 O256 1.259 . S
C261 O258 1.235 . S
O262 Co252 2.021 . S
O262 C259 1.238 . S
O263 Co257 2.052 . S
O263 C259 1.241 . S
O264 Co252 2.137 . S
O264 C255 1.247 . S
O265 Co252 2.244 . S
O265 C255 1.272 . S
O265 Co257 2.135 . S
Co266 O267 2.216 . S
Co266 O268 2.091 . S
Co266 O270 2.004 . S
Co266 O276 2.021 . S
Co266 O278 2.137 . S
Co266 O279 2.244 . S
O267 Co266 2.216 . S
O267 C274 1.247 . S
O268 Co266 2.091 . S
O268 C274 1.261 . S
C269 O278 1.247 . S
C269 O279 1.272 . S
O270 Co266 2.004 . S
O270 C275 1.259 . S
Co271 O272 2.061 . S
Co271 O277 2.052 . S
Co271 O279 2.135 . S
O272 Co271 2.061 . S
O272 C275 1.235 . S
C273 O276 1.238 . S
C273 O277 1.241 . S
C274 O267 1.247 . S
C274 O268 1.261 . S
C275 O270 1.259 . S
C275 O272 1.235 . S
O276 Co266 2.021 . S
O276 C273 1.238 . S
O277 Co271 2.052 . S
O277 C273 1.241 . S
O278 Co266 2.137 . S
O278 C269 1.247 . S
O279 Co266 2.244 . S
O279 C269 1.272 . S
O279 Co271 2.135 . S
Co280 O281 2.216 . S
Co280 O282 2.091 . S
Co280 O284 2.004 . S
Co280 O290 2.021 . S
Co280 O292 2.137 . S
Co280 O293 2.244 . S
O281 Co280 2.216 . S
O281 C288 1.247 . S
O282 Co280 2.091 . S
O282 C288 1.261 . S
C283 O292 1.247 . S
C283 O293 1.272 . S
O284 Co280 2.004 . S
O284 C289 1.259 . S
Co285 O286 2.061 . S
Co285 O291 2.052 . S
Co285 O293 2.135 . S
O286 Co285 2.061 . S
O286 C289 1.235 . S
C287 O290 1.238 . S
C287 O291 1.241 . S
C288 O281 1.247 . S
C288 O282 1.261 . S
C289 O284 1.259 . S
C289 O286 1.235 . S
O290 Co280 2.021 . S
O290 C287 1.238 . S
O291 Co285 2.052 . S
O291 C287 1.241 . S
O292 Co280 2.137 . S
O292 C283 1.247 . S
O293 Co280 2.244 . S
O293 C283 1.272 . S
O293 Co285 2.135 . S
Co294 O295 2.216 . S
Co294 O296 2.091 . S
Co294 O298 2.004 . S
Co294 O304 2.021 . S
Co294 O306 2.137 . S
Co294 O307 2.244 . S
O295 Co294 2.216 . S
O295 C302 1.247 . S
O296 Co294 2.091 . S
O296 C302 1.261 . S
C297 O306 1.247 . S
C297 O307 1.272 . S
O298 Co294 2.004 . S
O298 C303 1.259 . S
Co299 O300 2.061 . S
Co299 O305 2.052 . S
Co299 O307 2.135 . S
O300 Co299 2.061 . S
O300 C303 1.235 . S
C301 O304 1.238 . S
C301 O305 1.241 . S
C302 O295 1.247 . S
C302 O296 1.261 . S
C303 O298 1.259 . S
C303 O300 1.235 . S
O304 Co294 2.021 . S
O304 C301 1.238 . S
O305 Co299 2.052 . S
O305 C301 1.241 . S
O306 Co294 2.137 . S
O306 C297 1.247 . S
O307 Co294 2.244 . S
O307 C297 1.272 . S
O307 Co299 2.135 . S
Co308 O309 2.216 . S
Co308 O310 2.091 . S
Co308 O312 2.004 . S
Co308 O318 2.021 . S
Co308 O320 2.137 . S
Co308 O321 2.244 . S
O309 Co308 2.216 . S
O309 C316 1.247 . S
O310 Co308 2.091 . S
O310 C316 1.261 . S
C311 O320 1.247 . S
C311 O321 1.272 . S
O312 Co308 2.004 . S
O312 C317 1.259 . S
Co313 O314 2.061 . S
Co313 O319 2.052 . S
Co313 O321 2.135 . S
O314 Co313 2.061 . S
O314 C317 1.235 . S
C315 O318 1.238 . S
C315 O319 1.241 . S
C316 O309 1.247 . S
C316 O310 1.261 . S
C317 O312 1.259 . S
C317 O314 1.235 . S
O318 Co308 2.021 . S
O318 C315 1.238 . S
O319 Co313 2.052 . S
O319 C315 1.241 . S
O320 Co308 2.137 . S
O320 C311 1.247 . S
O321 Co308 2.244 . S
O321 C311 1.272 . S
O321 Co313 2.135 . S
Co322 O323 2.216 . S
Co322 O324 2.091 . S
Co322 O326 2.004 . S
Co322 O332 2.021 . S
Co322 O334 2.137 . S
Co322 O335 2.244 . S
O323 Co322 2.216 . S
O323 C330 1.247 . S
O324 Co322 2.091 . S
O324 C330 1.261 . S
C325 O334 1.247 . S
C325 O335 1.272 . S
O326 Co322 2.004 . S
O326 C331 1.259 . S
Co327 O328 2.061 . S
Co327 O333 2.052 . S
Co327 O335 2.135 . S
O328 Co327 2.061 . S
O328 C331 1.235 . S
C329 O332 1.238 . S
C329 O333 1.241 . S
C330 O323 1.247 . S
C330 O324 1.261 . S
C331 O326 1.259 . S
C331 O328 1.235 . S
O332 Co322 2.021 . S
O332 C329 1.238 . S
O333 Co327 2.052 . S
O333 C329 1.241 . S
O334 Co322 2.137 . S
O334 C325 1.247 . S
O335 Co322 2.244 . S
O335 C325 1.272 . S
O335 Co327 2.135 . S
Co336 O337 2.216 . S
Co336 O338 2.091 . S
Co336 O340 2.004 . S
Co336 O346 2.021 . S
Co336 O348 2.137 . S
Co336 O349 2.244 . S
O337 Co336 2.216 . S
O337 C344 1.247 . S
O338 Co336 2.091 . S
O338 C344 1.261 . S
C339 O348 1.247 . S
C339 O349 1.272 . S
O340 Co336 2.004 . S
O340 C345 1.259 . S
Co341 O342 2.061 . S
Co341 O347 2.052 . S
Co341 O349 2.135 . S
O342 Co341 2.061 . S
O342 C345 1.235 . S
C343 O346 1.238 . S
C343 O347 1.241 . S
C344 O337 1.247 . S
C344 O338 1.261 . S
C345 O340 1.259 . S
C345 O342 1.235 . S
O346 Co336 2.021 . S
O346 C343 1.238 . S
O347 Co341 2.052 . S
O347 C343 1.241 . S
O348 Co336 2.137 . S
O348 C339 1.247 . S
O349 Co336 2.244 . S
O349 C339 1.272 . S
O349 Co341 2.135 . S
Co350 O351 2.216 . S
Co350 O352 2.091 . S
Co350 O354 2.004 . S
Co350 O360 2.021 . S
Co350 O362 2.137 . S
Co350 O363 2.244 . S
O351 Co350 2.216 . S
O351 C358 1.247 . S
O352 Co350 2.091 . S
O352 C358 1.261 . S
C353 O362 1.247 . S
C353 O363 1.272 . S
O354 Co350 2.004 . S
O354 C359 1.259 . S
Co355 O356 2.061 . S
Co355 O361 2.052 . S
Co355 O363 2.135 . S
O356 Co355 2.061 . S
O356 C359 1.235 . S
C357 O360 1.238 . S
C357 O361 1.241 . S
C358 O351 1.247 . S
C358 O352 1.261 . S
C359 O354 1.259 . S
C359 O356 1.235 . S
O360 Co350 2.021 . S
O360 C357 1.238 . S
O361 Co355 2.052 . S
O361 C357 1.241 . S
O362 Co350 2.137 . S
O362 C353 1.247 . S
O363 Co350 2.244 . S
O363 C353 1.272 . S
O363 Co355 2.135 . S
Co364 O365 2.216 . S
Co364 O366 2.091 . S
Co364 O368 2.004 . S
Co364 O374 2.021 . S
Co364 O376 2.137 . S
Co364 O377 2.244 . S
O365 Co364 2.216 . S
O365 C372 1.247 . S
O366 Co364 2.091 . S
O366 C372 1.261 . S
C367 O376 1.247 . S
C367 O377 1.272 . S
O368 Co364 2.004 . S
O368 C373 1.259 . S
Co369 O370 2.061 . S
Co369 O375 2.052 . S
Co369 O377 2.135 . S
O370 Co369 2.061 . S
O370 C373 1.235 . S
C371 O374 1.238 . S
C371 O375 1.241 . S
C372 O365 1.247 . S
C372 O366 1.261 . S
C373 O368 1.259 . S
C373 O370 1.235 . S
O374 Co364 2.021 . S
O374 C371 1.238 . S
O375 Co369 2.052 . S
O375 C371 1.241 . S
O376 Co364 2.137 . S
O376 C367 1.247 . S
O377 Co364 2.244 . S
O377 C367 1.272 . S
O377 Co369 2.135 . S
Co378 O379 2.216 . S
Co378 O380 2.091 . S
Co378 O382 2.004 . S
Co378 O388 2.021 . S
Co378 O390 2.137 . S
Co378 O391 2.244 . S
O379 Co378 2.216 . S
O379 C386 1.247 . S
O380 Co378 2.091 . S
O380 C386 1.261 . S
C381 O390 1.247 . S
C381 O391 1.272 . S
O382 Co378 2.004 . S
O382 C387 1.259 . S
Co383 O384 2.061 . S
Co383 O389 2.052 . S
Co383 O391 2.135 . S
O384 Co383 2.061 . S
O384 C387 1.235 . S
C385 O388 1.238 . S
C385 O389 1.241 . S
C386 O379 1.247 . S
C386 O380 1.261 . S
C387 O382 1.259 . S
C387 O384 1.235 . S
O388 Co378 2.021 . S
O388 C385 1.238 . S
O389 Co383 2.052 . S
O389 C385 1.241 . S
O390 Co378 2.137 . S
O390 C381 1.247 . S
O391 Co378 2.244 . S
O391 C381 1.272 . S
O391 Co383 2.135 . S
Co392 O393 2.216 . S
Co392 O394 2.091 . S
Co392 O396 2.004 . S
Co392 O402 2.021 . S
Co392 O404 2.137 . S
Co392 O405 2.244 . S
O393 Co392 2.216 . S
O393 C400 1.247 . S
O394 Co392 2.091 . S
O394 C400 1.261 . S
C395 O404 1.247 . S
C395 O405 1.272 . S
O396 Co392 2.004 . S
O396 C401 1.259 . S
Co397 O398 2.061 . S
Co397 O403 2.052 . S
Co397 O405 2.135 . S
O398 Co397 2.061 . S
O398 C401 1.235 . S
C399 O402 1.238 . S
C399 O403 1.241 . S
C400 O393 1.247 . S
C400 O394 1.261 . S
C401 O396 1.259 . S
C401 O398 1.235 . S
O402 Co392 2.021 . S
O402 C399 1.238 . S
O403 Co397 2.052 . S
O403 C399 1.241 . S
O404 Co392 2.137 . S
O404 C395 1.247 . S
O405 Co392 2.244 . S
O405 C395 1.272 . S
O405 Co397 2.135 . S
Co406 O407 2.216 . S
Co406 O408 2.091 . S
Co406 O410 2.004 . S
Co406 O416 2.021 . S
Co406 O418 2.137 . S
Co406 O419 2.244 . S
O407 Co406 2.216 . S
O407 C414 1.247 . S
O408 Co406 2.091 . S
O408 C414 1.261 . S
C409 O418 1.247 . S
C409 O419 1.272 . S
O410 Co406 2.004 . S
O410 C415 1.259 . S
Co411 O412 2.061 . S
Co411 O417 2.052 . S
Co411 O419 2.135 . S
O412 Co411 2.061 . S
O412 C415 1.235 . S
C413 O416 1.238 . S
C413 O417 1.241 . S
C414 O407 1.247 . S
C414 O408 1.261 . S
C415 O410 1.259 . S
C415 O412 1.235 . S
O416 Co406 2.021 . S
O416 C413 1.238 . S
O417 Co411 2.052 . S
O417 C413 1.241 . S
O418 Co406 2.137 . S
O418 C409 1.247 . S
O419 Co406 2.244 . S
O419 C409 1.272 . S
O419 Co411 2.135 . S
Co420 O421 2.216 . S
Co420 O422 2.091 . S
Co420 O424 2.004 . S
Co420 O430 2.021 . S
Co420 O432 2.137 . S
Co420 O433 2.244 . S
O421 Co420 2.216 . S
O421 C428 1.247 . S
O422 Co420 2.091 . S
O422 C428 1.261 . S
C423 O432 1.247 . S
C423 O433 1.272 . S
O424 Co420 2.004 . S
O424 C429 1.259 . S
Co425 O426 2.061 . S
Co425 O431 2.052 . S
Co425 O433 2.135 . S
O426 Co425 2.061 . S
O426 C429 1.235 . S
C427 O430 1.238 . S
C427 O431 1.241 . S
C428 O421 1.247 . S
C428 O422 1.261 . S
C429 O424 1.259 . S
C429 O426 1.235 . S
O430 Co420 2.021 . S
O430 C427 1.238 . S
O431 Co425 2.052 . S
O431 C427 1.241 . S
O432 Co420 2.137 . S
O432 C423 1.247 . S
O433 Co420 2.244 . S
O433 C423 1.272 . S
O433 Co425 2.135 . S
Co434 O435 2.216 . S
Co434 O436 2.091 . S
Co434 O438 2.004 . S
Co434 O444 2.021 . S
Co434 O446 2.137 . S
Co434 O447 2.244 . S
O435 Co434 2.216 . S
O435 C442 1.247 . S
O436 Co434 2.091 . S
O436 C442 1.261 . S
C437 O446 1.247 . S
C437 O447 1.272 . S
O438 Co434 2.004 . S
O438 C443 1.259 . S
Co439 O440 2.061 . S
Co439 O445 2.052 . S
Co439 O447 2.135 . S
O440 Co439 2.061 . S
O440 C443 1.235 . S
C441 O444 1.238 . S
C441 O445 1.241 . S
C442 O435 1.247 . S
C442 O436 1.261 . S
C443 O438 1.259 . S
C443 O440 1.235 . S
O444 Co434 2.021 . S
O444 C441 1.238 . S
O445 Co439 2.052 . S
O445 C441 1.241 . S
O446 Co434 2.137 . S
O446 C437 1.247 . S
O447 Co434 2.244 . S
O447 C437 1.272 . S
O447 Co439 2.135 . S
Co448 O449 2.216 . S
Co448 O450 2.091 . S
Co448 O452 2.004 . S
Co448 O458 2.021 . S
Co448 O460 2.137 . S
Co448 O461 2.244 . S
O449 Co448 2.216 . S
O449 C456 1.247 . S
O450 Co448 2.091 . S
O450 C456 1.261 . S
C451 O460 1.247 . S
C451 O461 1.272 . S
O452 Co448 2.004 . S
O452 C457 1.259 . S
Co453 O454 2.061 . S
Co453 O459 2.052 . S
Co453 O461 2.135 . S
O454 Co453 2.061 . S
O454 C457 1.235 . S
C455 O458 1.238 . S
C455 O459 1.241 . S
C456 O449 1.247 . S
C456 O450 1.261 . S
C457 O452 1.259 . S
C457 O454 1.235 . S
O458 Co448 2.021 . S
O458 C455 1.238 . S
O459 Co453 2.052 . S
O459 C455 1.241 . S
O460 Co448 2.137 . S
O460 C451 1.247 . S
O461 Co448 2.244 . S
O461 C451 1.272 . S
O461 Co453 2.135 . S
Co462 O463 2.216 . S
Co462 O464 2.091 . S
Co462 O466 2.004 . S
Co462 O472 2.021 . S
Co462 O474 2.137 . S
Co462 O475 2.244 . S
O463 Co462 2.216 . S
O463 C470 1.247 . S
O464 Co462 2.091 . S
O464 C470 1.261 . S
C465 O474 1.247 . S
C465 O475 1.272 . S
O466 Co462 2.004 . S
O466 C471 1.259 . S
Co467 O468 2.061 . S
Co467 O473 2.052 . S
Co467 O475 2.135 . S
O468 Co467 2.061 . S
O468 C471 1.235 . S
C469 O472 1.238 . S
C469 O473 1.241 . S
C470 O463 1.247 . S
C470 O464 1.261 . S
C471 O466 1.259 . S
C471 O468 1.235 . S
O472 Co462 2.021 . S
O472 C469 1.238 . S
O473 Co467 2.052 . S
O473 C469 1.241 . S
O474 Co462 2.137 . S
O474 C465 1.247 . S
O475 Co462 2.244 . S
O475 C465 1.272 . S
O475 Co467 2.135 . S
Co476 O477 2.216 . S
Co476 O478 2.091 . S
Co476 O480 2.004 . S
Co476 O486 2.021 . S
Co476 O488 2.137 . S
Co476 O489 2.244 . S
O477 Co476 2.216 . S
O477 C484 1.247 . S
O478 Co476 2.091 . S
O478 C484 1.261 . S
C479 O488 1.247 . S
C479 O489 1.272 . S
O480 Co476 2.004 . S
O480 C485 1.259 . S
Co481 O482 2.061 . S
Co481 O487 2.052 . S
Co481 O489 2.135 . S
O482 Co481 2.061 . S
O482 C485 1.235 . S
C483 O486 1.238 . S
C483 O487 1.241 . S
C484 O477 1.247 . S
C484 O478 1.261 . S
C485 O480 1.259 . S
C485 O482 1.235 . S
O486 Co476 2.021 . S
O486 C483 1.238 . S
O487 Co481 2.052 . S
O487 C483 1.241 . S
O488 Co476 2.137 . S
O488 C479 1.247 . S
O489 Co476 2.244 . S
O489 C479 1.272 . S
O489 Co481 2.135 . S
Co490 O491 2.216 . S
Co490 O492 2.091 . S
Co490 O494 2.004 . S
Co490 O500 2.021 . S
Co490 O502 2.137 . S
Co490 O503 2.244 . S
O491 Co490 2.216 . S
O491 C498 1.247 . S
O492 Co490 2.091 . S
O492 C498 1.261 . S
C493 O502 1.247 . S
C493 O503 1.272 . S
O494 Co490 2.004 . S
O494 C499 1.259 . S
Co495 O496 2.061 . S
Co495 O501 2.052 . S
Co495 O503 2.135 . S
O496 Co495 2.061 . S
O496 C499 1.235 . S
C497 O500 1.238 . S
C497 O501 1.241 . S
C498 O491 1.247 . S
C498 O492 1.261 . S
C499 O494 1.259 . S
C499 O496 1.235 . S
O500 Co490 2.021 . S
O500 C497 1.238 . S
O501 Co495 2.052 . S
O501 C497 1.241 . S
O502 Co490 2.137 . S
O502 C493 1.247 . S
O503 Co490 2.244 . S
O503 C493 1.272 . S
O503 Co495 2.135 . S
Co504 O505 2.216 . S
Co504 O506 2.091 . S
Co504 O508 2.004 . S
Co504 O514 2.021 . S
Co504 O516 2.137 . S
Co504 O517 2.244 . S
O505 Co504 2.216 . S
O505 C512 1.247 . S
O506 Co504 2.091 . S
O506 C512 1.261 . S
C507 O516 1.247 . S
C507 O517 1.272 . S
O508 Co504 2.004 . S
O508 C513 1.259 . S
Co509 O510 2.061 . S
Co509 O515 2.052 . S
Co509 O517 2.135 . S
O510 Co509 2.061 . S
O510 C513 1.235 . S
C511 O514 1.238 . S
C511 O515 1.241 . S
C512 O505 1.247 . S
C512 O506 1.261 . S
C513 O508 1.259 . S
C513 O510 1.235 . S
O514 Co504 2.021 . S
O514 C511 1.238 . S
O515 Co509 2.052 . S
O515 C511 1.241 . S
O516 Co504 2.137 . S
O516 C507 1.247 . S
O517 Co504 2.244 . S
O517 C507 1.272 . S
O517 Co509 2.135 . S
Co518 O519 2.216 . S
Co518 O520 2.091 . S
Co518 O522 2.004 . S
Co518 O528 2.021 . S
Co518 O530 2.137 . S
Co518 O531 2.244 . S
O519 Co518 2.216 . S
O519 C526 1.247 . S
O520 Co518 2.091 . S
O520 C526 1.261 . S
C521 O530 1.247 . S
C521 O531 1.272 . S
O522 Co518 2.004 . S
O522 C527 1.259 . S
Co523 O524 2.061 . S
Co523 O529 2.052 . S
Co523 O531 2.135 . S
O524 Co523 2.061 . S
O524 C527 1.235 . S
C525 O528 1.238 . S
C525 O529 1.241 . S
C526 O519 1.247 . S
C526 O520 1.261 . S
C527 O522 1.259 . S
C527 O524 1.235 . S
O528 Co518 2.021 . S
O528 C525 1.238 . S
O529 Co523 2.052 . S
O529 C525 1.241 . S
O530 Co518 2.137 . S
O530 C521 1.247 . S
O531 Co518 2.244 . S
O531 C521 1.272 . S
O531 Co523 2.135 . S
Co532 O533 2.216 . S
Co532 O534 2.091 . S
Co532 O536 2.004 . S
Co532 O542 2.021 . S
Co532 O544 2.137 . S
Co532 O545 2.244 . S
O533 Co532 2.216 . S
O533 C540 1.247 . S
O534 Co532 2.091 . S
O534 C540 1.261 . S
C535 O544 1.247 . S
C535 O545 1.272 . S
O536 Co532 2.004 . S
O536 C541 1.259 . S
Co537 O538 2.061 . S
Co537 O543 2.052 . S
Co537 O545 2.135 . S
O538 Co537 2.061 . S
O538 C541 1.235 . S
C539 O542 1.238 . S
C539 O543 1.241 . S
C540 O533 1.247 . S
C540 O534 1.261 . S
C541 O536 1.259 . S
C541 O538 1.235 . S
O542 Co532 2.021 . S
O542 C539 1.238 . S
O543 Co537 2.052 . S
O543 C539 1.241 . S
O544 Co532 2.137 . S
O544 C535 1.247 . S
O545 Co532 2.244 . S
O545 C535 1.272 . S
O545 Co537 2.135 . S
Co546 O547 2.216 . S
Co546 O548 2.091 . S
Co546 O550 2.004 . S
Co546 O556 2.021 . S
Co546 O558 2.137 . S
Co546 O559 2.244 . S
O547 Co546 2.216 . S
O547 C554 1.247 . S
O548 Co546 2.091 . S
O548 C554 1.261 . S
C549 O558 1.247 . S
C549 O559 1.272 . S
O550 Co546 2.004 . S
O550 C555 1.259 . S
Co551 O552 2.061 . S
Co551 O557 2.052 . S
Co551 O559 2.135 . S
O552 Co551 2.061 . S
O552 C555 1.235 . S
C553 O556 1.238 . S
C553 O557 1.241 . S
C554 O547 1.247 . S
C554 O548 1.261 . S
C555 O550 1.259 . S
C555 O552 1.235 . S
O556 Co546 2.021 . S
O556 C553 1.238 . S
O557 Co551 2.052 . S
O557 C553 1.241 . S
O558 Co546 2.137 . S
O558 C549 1.247 . S
O559 Co546 2.244 . S
O559 C549 1.272 . S
O559 Co551 2.135 . S
Co560 O561 2.216 . S
Co560 O562 2.091 . S
Co560 O564 2.004 . S
Co560 O570 2.021 . S
Co560 O572 2.137 . S
Co560 O573 2.244 . S
O561 Co560 2.216 . S
O561 C568 1.247 . S
O562 Co560 2.091 . S
O562 C568 1.261 . S
C563 O572 1.247 . S
C563 O573 1.272 . S
O564 Co560 2.004 . S
O564 C569 1.259 . S
Co565 O566 2.061 . S
Co565 O571 2.052 . S
Co565 O573 2.135 . S
O566 Co565 2.061 . S
O566 C569 1.235 . S
C567 O570 1.238 . S
C567 O571 1.241 . S
C568 O561 1.247 . S
C568 O562 1.261 . S
C569 O564 1.259 . S
C569 O566 1.235 . S
O570 Co560 2.021 . S
O570 C567 1.238 . S
O571 Co565 2.052 . S
O571 C567 1.241 . S
O572 Co560 2.137 . S
O572 C563 1.247 . S
O573 Co560 2.244 . S
O573 C563 1.272 . S
O573 Co565 2.135 . S
Co574 O575 2.216 . S
Co574 O576 2.091 . S
Co574 O578 2.004 . S
Co574 O584 2.021 . S
Co574 O586 2.137 . S
Co574 O587 2.244 . S
O575 Co574 2.216 . S
O575 C582 1.247 . S
O576 Co574 2.091 . S
O576 C582 1.261 . S
C577 O586 1.247 . S
C577 O587 1.272 . S
O578 Co574 2.004 . S
O578 C583 1.259 . S
Co579 O580 2.061 . S
Co579 O585 2.052 . S
Co579 O587 2.135 . S
O580 Co579 2.061 . S
O580 C583 1.235 . S
C581 O584 1.238 . S
C581 O585 1.241 . S
C582 O575 1.247 . S
C582 O576 1.261 . S
C583 O578 1.259 . S
C583 O580 1.235 . S
O584 Co574 2.021 . S
O584 C581 1.238 . S
O585 Co579 2.052 . S
O585 C581 1.241 . S
O586 Co574 2.137 . S
O586 C577 1.247 . S
O587 Co574 2.244 . S
O587 C577 1.272 . S
O587 Co579 2.135 . S
Co588 O589 2.216 . S
Co588 O590 2.091 . S
Co588 O592 2.004 . S
Co588 O598 2.021 . S
Co588 O600 2.137 . S
Co588 O601 2.244 . S
O589 Co588 2.216 . S
O589 C596 1.247 . S
O590 Co588 2.091 . S
O590 C596 1.261 . S
C591 O600 1.247 . S
C591 O601 1.272 . S
O592 Co588 2.004 . S
O592 C597 1.259 . S
Co593 O594 2.061 . S
Co593 O599 2.052 . S
Co593 O601 2.135 . S
O594 Co593 2.061 . S
O594 C597 1.235 . S
C595 O598 1.238 . S
C595 O599 1.241 . S
C596 O589 1.247 . S
C596 O590 1.261 . S
C597 O592 1.259 . S
C597 O594 1.235 . S
O598 Co588 2.021 . S
O598 C595 1.238 . S
O599 Co593 2.052 . S
O599 C595 1.241 . S
O600 Co588 2.137 . S
O600 C591 1.247 . S
O601 Co588 2.244 . S
O601 C591 1.272 . S
O601 Co593 2.135 . S
Co602 O603 2.216 . S
Co602 O604 2.091 . S
Co602 O606 2.004 . S
Co602 O612 2.021 . S
Co602 O614 2.137 . S
Co602 O615 2.244 . S
O603 Co602 2.216 . S
O603 C610 1.247 . S
O604 Co602 2.091 . S
O604 C610 1.261 . S
C605 O614 1.247 . S
C605 O615 1.272 . S
O606 Co602 2.004 . S
O606 C611 1.259 . S
Co607 O608 2.061 . S
Co607 O613 2.052 . S
Co607 O615 2.135 . S
O608 Co607 2.061 . S
O608 C611 1.235 . S
C609 O612 1.238 . S
C609 O613 1.241 . S
C610 O603 1.247 . S
C610 O604 1.261 . S
C611 O606 1.259 . S
C611 O608 1.235 . S
O612 Co602 2.021 . S
O612 C609 1.238 . S
O613 Co607 2.052 . S
O613 C609 1.241 . S
O614 Co602 2.137 . S
O614 C605 1.247 . S
O615 Co602 2.244 . S
O615 C605 1.272 . S
O615 Co607 2.135 . S
Co616 O617 2.216 . S
Co616 O618 2.091 . S
Co616 O620 2.004 . S
Co616 O626 2.021 . S
Co616 O628 2.137 . S
Co616 O629 2.244 . S
O617 Co616 2.216 . S
O617 C624 1.247 . S
O618 Co616 2.091 . S
O618 C624 1.261 . S
C619 O628 1.247 . S
C619 O629 1.272 . S
O620 Co616 2.004 . S
O620 C625 1.259 . S
Co621 O622 2.061 . S
Co621 O627 2.052 . S
Co621 O629 2.135 . S
O622 Co621 2.061 . S
O622 C625 1.235 . S
C623 O626 1.238 . S
C623 O627 1.241 . S
C624 O617 1.247 . S
C624 O618 1.261 . S
C625 O620 1.259 . S
C625 O622 1.235 . S
O626 Co616 2.021 . S
O626 C623 1.238 . S
O627 Co621 2.052 . S
O627 C623 1.241 . S
O628 Co616 2.137 . S
O628 C619 1.247 . S
O629 Co616 2.244 . S
O629 C619 1.272 . S
O629 Co621 2.135 . S
Co630 O631 2.216 . S
Co630 O632 2.091 . S
Co630 O634 2.004 . S
Co630 O640 2.021 . S
Co630 O642 2.137 . S
Co630 O643 2.244 . S
O631 Co630 2.216 . S
O631 C638 1.247 . S
O632 Co630 2.091 . S
O632 C638 1.261 . S
C633 O642 1.247 . S
C633 O643 1.272 . S
O634 Co630 2.004 . S
O634 C639 1.259 . S
Co635 O636 2.061 . S
Co635 O641 2.052 . S
Co635 O643 2.135 . S
O636 Co635 2.061 . S
O636 C639 1.235 . S
C637 O640 1.238 . S
C637 O641 1.241 . S
C638 O631 1.247 . S
C638 O632 1.261 . S
C639 O634 1.259 . S
C639 O636 1.235 . S
O640 Co630 2.021 . S
O640 C637 1.238 . S
O641 Co635 2.052 . S
O641 C637 1.241 . S
O642 Co630 2.137 . S
O642 C633 1.247 . S
O643 Co630 2.244 . S
O643 C633 1.272 . S
O643 Co635 2.135 . S
Co644 O645 2.216 . S
Co644 O646 2.091 . S
Co644 O648 2.004 . S
Co644 O654 2.021 . S
Co644 O656 2.137 . S
Co644 O657 2.244 . S
O645 Co644 2.216 . S
O645 C652 1.247 . S
O646 Co644 2.091 . S
O646 C652 1.261 . S
C647 O656 1.247 . S
C647 O657 1.272 . S
O648 Co644 2.004 . S
O648 C653 1.259 . S
Co649 O650 2.061 . S
Co649 O655 2.052 . S
Co649 O657 2.135 . S
O650 Co649 2.061 . S
O650 C653 1.235 . S
C651 O654 1.238 . S
C651 O655 1.241 . S
C652 O645 1.247 . S
C652 O646 1.261 . S
C653 O648 1.259 . S
C653 O650 1.235 . S
O654 Co644 2.021 . S
O654 C651 1.238 . S
O655 Co649 2.052 . S
O655 C651 1.241 . S
O656 Co644 2.137 . S
O656 C647 1.247 . S
O657 Co644 2.244 . S
O657 C647 1.272 . S
O657 Co649 2.135 . S
Co658 O659 2.216 . S
Co658 O660 2.091 . S
Co658 O662 2.004 . S
Co658 O668 2.021 . S
Co658 O670 2.137 . S
Co658 O671 2.244 . S
O659 Co658 2.216 . S
O659 C666 1.247 . S
O660 Co658 2.091 . S
O660 C666 1.261 . S
C661 O670 1.247 . S
C661 O671 1.272 . S
O662 Co658 2.004 . S
O662 C667 1.259 . S
Co663 O664 2.061 . S
Co663 O669 2.052 . S
Co663 O671 2.135 . S
O664 Co663 2.061 . S
O664 C667 1.235 . S
C665 O668 1.238 . S
C665 O669 1.241 . S
C666 O659 1.247 . S
C666 O660 1.261 . S
C667 O662 1.259 . S
C667 O664 1.235 . S
O668 Co658 2.021 . S
O668 C665 1.238 . S
O669 Co663 2.052 . S
O669 C665 1.241 . S
O670 Co658 2.137 . S
O670 C661 1.247 . S
O671 Co658 2.244 . S
O671 C661 1.272 . S
O671 Co663 2.135 . S
C672 C673 1.391 . S
C672 C674 1.394 . S
C672 H688 0.931 . S
C673 C672 1.391 . S
C673 C677 1.376 . S
C674 C672 1.394 . S
C674 C675 1.369 . S
C674 C678 1.531 . S
C675 C674 1.369 . S
C675 C676 1.410 . S
C675 C683 1.503 . S
C676 C675 1.410 . S
C676 C677 1.392 . S
C676 C679 1.511 . S
C677 C673 1.376 . S
C677 C676 1.392 . S
C677 H689 0.929 . S
C678 C674 1.531 . S
C678 H690 0.960 . S
C678 H691 0.962 . S
C678 H692 0.960 . S
C679 C676 1.511 . S
C679 H693 0.961 . S
C679 H694 0.961 . S
C679 H695 0.961 . S
C680 C681 1.370 . S
C680 C682 1.363 . S
C680 H696 0.931 . S
C681 C680 1.370 . S
C681 C685 1.408 . S
C682 C680 1.363 . S
C682 C683 1.370 . S
C682 C686 1.524 . S
C683 C675 1.503 . S
C683 C682 1.370 . S
C683 C684 1.403 . S
C684 C683 1.403 . S
C684 C685 1.404 . S
C684 C687 1.539 . S
C685 C681 1.408 . S
C685 C684 1.404 . S
C685 H697 0.930 . S
C686 C682 1.524 . S
C686 H698 0.956 . S
C686 H699 0.961 . S
C686 H700 0.961 . S
C687 C684 1.539 . S
C687 H701 0.958 . S
C687 H702 0.961 . S
C687 H703 0.960 . S
H688 C672 0.931 . S
H689 C677 0.929 . S
H690 C678 0.960 . S
H691 C678 0.962 . S
H692 C678 0.960 . S
H693 C679 0.961 . S
H694 C679 0.961 . S
H695 C679 0.961 . S
H696 C680 0.931 . S
H697 C685 0.930 . S
H698 C686 0.956 . S
H699 C686 0.961 . S
H700 C686 0.961 . S
H701 C687 0.958 . S
H702 C687 0.961 . S
H703 C687 0.960 . S
C704 C705 1.391 . S
C704 C706 1.394 . S
C704 H720 0.931 . S
C705 C704 1.391 . S
C705 C709 1.376 . S
C706 C704 1.394 . S
C706 C707 1.369 . S
C706 C710 1.531 . S
C707 C706 1.369 . S
C707 C708 1.410 . S
C707 C715 1.503 . S
C708 C707 1.410 . S
C708 C709 1.392 . S
C708 C711 1.511 . S
C709 C705 1.376 . S
C709 C708 1.392 . S
C709 H721 0.929 . S
C710 C706 1.531 . S
C710 H722 0.960 . S
C710 H723 0.962 . S
C710 H724 0.960 . S
C711 C708 1.511 . S
C711 H725 0.961 . S
C711 H726 0.961 . S
C711 H727 0.961 . S
C712 C713 1.370 . S
C712 C714 1.363 . S
C712 H728 0.931 . S
C713 C712 1.370 . S
C713 C717 1.408 . S
C714 C712 1.363 . S
C714 C715 1.370 . S
C714 C718 1.524 . S
C715 C707 1.503 . S
C715 C714 1.370 . S
C715 C716 1.403 . S
C716 C715 1.403 . S
C716 C717 1.404 . S
C716 C719 1.539 . S
C717 C713 1.408 . S
C717 C716 1.404 . S
C717 H729 0.930 . S
C718 C714 1.524 . S
C718 H730 0.956 . S
C718 H731 0.961 . S
C718 H732 0.961 . S
C719 C716 1.539 . S
C719 H733 0.958 . S
C719 H734 0.961 . S
C719 H735 0.960 . S
H720 C704 0.931 . S
H721 C709 0.929 . S
H722 C710 0.960 . S
H723 C710 0.962 . S
H724 C710 0.960 . S
H725 C711 0.961 . S
H726 C711 0.961 . S
H727 C711 0.961 . S
H728 C712 0.931 . S
H729 C717 0.930 . S
H730 C718 0.956 . S
H731 C718 0.961 . S
H732 C718 0.961 . S
H733 C719 0.958 . S
H734 C719 0.961 . S
H735 C719 0.960 . S
C736 C737 1.391 . S
C736 C738 1.394 . S
C736 H752 0.931 . S
C737 C736 1.391 . S
C737 C741 1.376 . S
C738 C736 1.394 . S
C738 C739 1.369 . S
C738 C742 1.531 . S
C739 C738 1.369 . S
C739 C740 1.410 . S
C739 C747 1.503 . S
C740 C739 1.410 . S
C740 C741 1.392 . S
C740 C743 1.511 . S
C741 C737 1.376 . S
C741 C740 1.392 . S
C741 H753 0.929 . S
C742 C738 1.531 . S
C742 H754 0.960 . S
C742 H755 0.962 . S
C742 H756 0.960 . S
C743 C740 1.511 . S
C743 H757 0.961 . S
C743 H758 0.961 . S
C743 H759 0.961 . S
C744 C745 1.370 . S
C744 C746 1.363 . S
C744 H760 0.931 . S
C745 C744 1.370 . S
C745 C749 1.408 . S
C746 C744 1.363 . S
C746 C747 1.370 . S
C746 C750 1.524 . S
C747 C739 1.503 . S
C747 C746 1.370 . S
C747 C748 1.403 . S
C748 C747 1.403 . S
C748 C749 1.404 . S
C748 C751 1.539 . S
C749 C745 1.408 . S
C749 C748 1.404 . S
C749 H761 0.930 . S
C750 C746 1.524 . S
C750 H762 0.956 . S
C750 H763 0.961 . S
C750 H764 0.961 . S
C751 C748 1.539 . S
C751 H765 0.958 . S
C751 H766 0.961 . S
C751 H767 0.960 . S
H752 C736 0.931 . S
H753 C741 0.929 . S
H754 C742 0.960 . S
H755 C742 0.962 . S
H756 C742 0.960 . S
H757 C743 0.961 . S
H758 C743 0.961 . S
H759 C743 0.961 . S
H760 C744 0.931 . S
H761 C749 0.930 . S
H762 C750 0.956 . S
H763 C750 0.961 . S
H764 C750 0.961 . S
H765 C751 0.958 . S
H766 C751 0.961 . S
H767 C751 0.960 . S
C768 C769 1.391 . S
C768 C770 1.394 . S
C768 H784 0.931 . S
C769 C768 1.391 . S
C769 C773 1.376 . S
C770 C768 1.394 . S
C770 C771 1.369 . S
C770 C774 1.531 . S
C771 C770 1.369 . S
C771 C772 1.410 . S
C771 C779 1.503 . S
C772 C771 1.410 . S
C772 C773 1.392 . S
C772 C775 1.511 . S
C773 C769 1.376 . S
C773 C772 1.392 . S
C773 H785 0.929 . S
C774 C770 1.531 . S
C774 H786 0.960 . S
C774 H787 0.962 . S
C774 H788 0.960 . S
C775 C772 1.511 . S
C775 H789 0.961 . S
C775 H790 0.961 . S
C775 H791 0.961 . S
C776 C777 1.370 . S
C776 C778 1.363 . S
C776 H792 0.931 . S
C777 C776 1.370 . S
C777 C781 1.408 . S
C778 C776 1.363 . S
C778 C779 1.370 . S
C778 C782 1.524 . S
C779 C771 1.503 . S
C779 C778 1.370 . S
C779 C780 1.403 . S
C780 C779 1.403 . S
C780 C781 1.404 . S
C780 C783 1.539 . S
C781 C777 1.408 . S
C781 C780 1.404 . S
C781 H793 0.930 . S
C782 C778 1.524 . S
C782 H794 0.956 . S
C782 H795 0.961 . S
C782 H796 0.961 . S
C783 C780 1.539 . S
C783 H797 0.958 . S
C783 H798 0.961 . S
C783 H799 0.960 . S
H784 C768 0.931 . S
H785 C773 0.929 . S
H786 C774 0.960 . S
H787 C774 0.962 . S
H788 C774 0.960 . S
H789 C775 0.961 . S
H790 C775 0.961 . S
H791 C775 0.961 . S
H792 C776 0.931 . S
H793 C781 0.930 . S
H794 C782 0.956 . S
H795 C782 0.961 . S
H796 C782 0.961 . S
H797 C783 0.958 . S
H798 C783 0.961 . S
H799 C783 0.960 . S
C800 C801 1.391 . S
C800 C802 1.394 . S
C800 H816 0.931 . S
C801 C800 1.391 . S
C801 C805 1.376 . S
C802 C800 1.394 . S
C802 C803 1.369 . S
C802 C806 1.531 . S
C803 C802 1.369 . S
C803 C804 1.410 . S
C803 C811 1.503 . S
C804 C803 1.410 . S
C804 C805 1.392 . S
C804 C807 1.511 . S
C805 C801 1.376 . S
C805 C804 1.392 . S
C805 H817 0.929 . S
C806 C802 1.531 . S
C806 H818 0.960 . S
C806 H819 0.962 . S
C806 H820 0.960 . S
C807 C804 1.511 . S
C807 H821 0.961 . S
C807 H822 0.961 . S
C807 H823 0.961 . S
C808 C809 1.370 . S
C808 C810 1.363 . S
C808 H824 0.931 . S
C809 C808 1.370 . S
C809 C813 1.408 . S
C810 C808 1.363 . S
C810 C811 1.370 . S
C810 C814 1.524 . S
C811 C803 1.503 . S
C811 C810 1.370 . S
C811 C812 1.403 . S
C812 C811 1.403 . S
C812 C813 1.404 . S
C812 C815 1.539 . S
C813 C809 1.408 . S
C813 C812 1.404 . S
C813 H825 0.930 . S
C814 C810 1.524 . S
C814 H826 0.956 . S
C814 H827 0.961 . S
C814 H828 0.961 . S
C815 C812 1.539 . S
C815 H829 0.958 . S
C815 H830 0.961 . S
C815 H831 0.960 . S
H816 C800 0.931 . S
H817 C805 0.929 . S
H818 C806 0.960 . S
H819 C806 0.962 . S
H820 C806 0.960 . S
H821 C807 0.961 . S
H822 C807 0.961 . S
H823 C807 0.961 . S
H824 C808 0.931 . S
H825 C813 0.930 . S
H826 C814 0.956 . S
H827 C814 0.961 . S
H828 C814 0.961 . S
H829 C815 0.958 . S
H830 C815 0.961 . S
H831 C815 0.960 . S
C832 C833 1.391 . S
C832 C834 1.394 . S
C832 H848 0.931 . S
C833 C832 1.391 . S
C833 C837 1.376 . S
C834 C832 1.394 . S
C834 C835 1.369 . S
C834 C838 1.531 . S
C835 C834 1.369 . S
C835 C836 1.410 . S
C835 C843 1.503 . S
C836 C835 1.410 . S
C836 C837 1.392 . S
C836 C839 1.511 . S
C837 C833 1.376 . S
C837 C836 1.392 . S
C837 H849 0.929 . S
C838 C834 1.531 . S
C838 H850 0.960 . S
C838 H851 0.962 . S
C838 H852 0.960 . S
C839 C836 1.511 . S
C839 H853 0.961 . S
C839 H854 0.961 . S
C839 H855 0.961 . S
C840 C841 1.370 . S
C840 C842 1.363 . S
C840 H856 0.931 . S
C841 C840 1.370 . S
C841 C845 1.408 . S
C842 C840 1.363 . S
C842 C843 1.370 . S
C842 C846 1.524 . S
C843 C835 1.503 . S
C843 C842 1.370 . S
C843 C844 1.403 . S
C844 C843 1.403 . S
C844 C845 1.404 . S
C844 C847 1.539 . S
C845 C841 1.408 . S
C845 C844 1.404 . S
C845 H857 0.930 . S
C846 C842 1.524 . S
C846 H858 0.956 . S
C846 H859 0.961 . S
C846 H860 0.961 . S
C847 C844 1.539 . S
C847 H861 0.958 . S
C847 H862 0.961 . S
C847 H863 0.960 . S
H848 C832 0.931 . S
H849 C837 0.929 . S
H850 C838 0.960 . S
H851 C838 0.962 . S
H852 C838 0.960 . S
H853 C839 0.961 . S
H854 C839 0.961 . S
H855 C839 0.961 . S
H856 C840 0.931 . S
H857 C845 0.930 . S
H858 C846 0.956 . S
H859 C846 0.961 . S
H860 C846 0.961 . S
H861 C847 0.958 . S
H862 C847 0.961 . S
H863 C847 0.960 . S
C864 C865 1.391 . S
C864 C866 1.394 . S
C864 H880 0.931 . S
C865 C864 1.391 . S
C865 C869 1.376 . S
C866 C864 1.394 . S
C866 C867 1.369 . S
C866 C870 1.531 . S
C867 C866 1.369 . S
C867 C868 1.410 . S
C867 C875 1.503 . S
C868 C867 1.410 . S
C868 C869 1.392 . S
C868 C871 1.511 . S
C869 C865 1.376 . S
C869 C868 1.392 . S
C869 H881 0.929 . S
C870 C866 1.531 . S
C870 H882 0.960 . S
C870 H883 0.962 . S
C870 H884 0.960 . S
C871 C868 1.511 . S
C871 H885 0.961 . S
C871 H886 0.961 . S
C871 H887 0.961 . S
C872 C873 1.370 . S
C872 C874 1.363 . S
C872 H888 0.931 . S
C873 C872 1.370 . S
C873 C877 1.408 . S
C874 C872 1.363 . S
C874 C875 1.370 . S
C874 C878 1.524 . S
C875 C867 1.503 . S
C875 C874 1.370 . S
C875 C876 1.403 . S
C876 C875 1.403 . S
C876 C877 1.404 . S
C876 C879 1.539 . S
C877 C873 1.408 . S
C877 C876 1.404 . S
C877 H889 0.930 . S
C878 C874 1.524 . S
C878 H890 0.956 . S
C878 H891 0.961 . S
C878 H892 0.961 . S
C879 C876 1.539 . S
C879 H893 0.958 . S
C879 H894 0.961 . S
C879 H895 0.960 . S
H880 C864 0.931 . S
H881 C869 0.929 . S
H882 C870 0.960 . S
H883 C870 0.962 . S
H884 C870 0.960 . S
H885 C871 0.961 . S
H886 C871 0.961 . S
H887 C871 0.961 . S
H888 C872 0.931 . S
H889 C877 0.930 . S
H890 C878 0.956 . S
H891 C878 0.961 . S
H892 C878 0.961 . S
H893 C879 0.958 . S
H894 C879 0.961 . S
H895 C879 0.960 . S
C896 C897 1.391 . S
C896 C898 1.394 . S
C896 H912 0.931 . S
C897 C896 1.391 . S
C897 C901 1.376 . S
C898 C896 1.394 . S
C898 C899 1.369 . S
C898 C902 1.531 . S
C899 C898 1.369 . S
C899 C900 1.410 . S
C899 C907 1.503 . S
C900 C899 1.410 . S
C900 C901 1.392 . S
C900 C903 1.511 . S
C901 C897 1.376 . S
C901 C900 1.392 . S
C901 H913 0.929 . S
C902 C898 1.531 . S
C902 H914 0.960 . S
C902 H915 0.962 . S
C902 H916 0.960 . S
C903 C900 1.511 . S
C903 H917 0.961 . S
C903 H918 0.961 . S
C903 H919 0.961 . S
C904 C905 1.370 . S
C904 C906 1.363 . S
C904 H920 0.931 . S
C905 C904 1.370 . S
C905 C909 1.408 . S
C906 C904 1.363 . S
C906 C907 1.370 . S
C906 C910 1.524 . S
C907 C899 1.503 . S
C907 C906 1.370 . S
C907 C908 1.403 . S
C908 C907 1.403 . S
C908 C909 1.404 . S
C908 C911 1.539 . S
C909 C905 1.408 . S
C909 C908 1.404 . S
C909 H921 0.930 . S
C910 C906 1.524 . S
C910 H922 0.956 . S
C910 H923 0.961 . S
C910 H924 0.961 . S
C911 C908 1.539 . S
C911 H925 0.958 . S
C911 H926 0.961 . S
C911 H927 0.960 . S
H912 C896 0.931 . S
H913 C901 0.929 . S
H914 C902 0.960 . S
H915 C902 0.962 . S
H916 C902 0.960 . S
H917 C903 0.961 . S
H918 C903 0.961 . S
H919 C903 0.961 . S
H920 C904 0.931 . S
H921 C909 0.930 . S
H922 C910 0.956 . S
H923 C910 0.961 . S
H924 C910 0.961 . S
H925 C911 0.958 . S
H926 C911 0.961 . S
H927 C911 0.960 . S
C928 C929 1.391 . S
C928 C930 1.394 . S
C928 H944 0.931 . S
C929 C928 1.391 . S
C929 C933 1.376 . S
C930 C928 1.394 . S
C930 C931 1.369 . S
C930 C934 1.531 . S
C931 C930 1.369 . S
C931 C932 1.410 . S
C931 C939 1.503 . S
C932 C931 1.410 . S
C932 C933 1.392 . S
C932 C935 1.511 . S
C933 C929 1.376 . S
C933 C932 1.392 . S
C933 H945 0.929 . S
C934 C930 1.531 . S
C934 H946 0.960 . S
C934 H947 0.962 . S
C934 H948 0.960 . S
C935 C932 1.511 . S
C935 H949 0.961 . S
C935 H950 0.961 . S
C935 H951 0.961 . S
C936 C937 1.370 . S
C936 C938 1.363 . S
C936 H952 0.931 . S
C937 C936 1.370 . S
C937 C941 1.408 . S
C938 C936 1.363 . S
C938 C939 1.370 . S
C938 C942 1.524 . S
C939 C931 1.503 . S
C939 C938 1.370 . S
C939 C940 1.403 . S
C940 C939 1.403 . S
C940 C941 1.404 . S
C940 C943 1.539 . S
C941 C937 1.408 . S
C941 C940 1.404 . S
C941 H953 0.930 . S
C942 C938 1.524 . S
C942 H954 0.956 . S
C942 H955 0.961 . S
C942 H956 0.961 . S
C943 C940 1.539 . S
C943 H957 0.958 . S
C943 H958 0.961 . S
C943 H959 0.960 . S
H944 C928 0.931 . S
H945 C933 0.929 . S
H946 C934 0.960 . S
H947 C934 0.962 . S
H948 C934 0.960 . S
H949 C935 0.961 . S
H950 C935 0.961 . S
H951 C935 0.961 . S
H952 C936 0.931 . S
H953 C941 0.930 . S
H954 C942 0.956 . S
H955 C942 0.961 . S
H956 C942 0.961 . S
H957 C943 0.958 . S
H958 C943 0.961 . S
H959 C943 0.960 . S
C960 C961 1.391 . S
C960 C962 1.394 . S
C960 H976 0.931 . S
C961 C960 1.391 . S
C961 C965 1.376 . S
C962 C960 1.394 . S
C962 C963 1.369 . S
C962 C966 1.531 . S
C963 C962 1.369 . S
C963 C964 1.410 . S
C963 C971 1.503 . S
C964 C963 1.410 . S
C964 C965 1.392 . S
C964 C967 1.511 . S
C965 C961 1.376 . S
C965 C964 1.392 . S
C965 H977 0.929 . S
C966 C962 1.531 . S
C966 H978 0.960 . S
C966 H979 0.962 . S
C966 H980 0.960 . S
C967 C964 1.511 . S
C967 H981 0.961 . S
C967 H982 0.961 . S
C967 H983 0.961 . S
C968 C969 1.370 . S
C968 C970 1.363 . S
C968 H984 0.931 . S
C969 C968 1.370 . S
C969 C973 1.408 . S
C970 C968 1.363 . S
C970 C971 1.370 . S
C970 C974 1.524 . S
C971 C963 1.503 . S
C971 C970 1.370 . S
C971 C972 1.403 . S
C972 C971 1.403 . S
C972 C973 1.404 . S
C972 C975 1.539 . S
C973 C969 1.408 . S
C973 C972 1.404 . S
C973 H985 0.930 . S
C974 C970 1.524 . S
C974 H986 0.956 . S
C974 H987 0.961 . S
C974 H988 0.961 . S
C975 C972 1.539 . S
C975 H989 0.958 . S
C975 H990 0.961 . S
C975 H991 0.960 . S
H976 C960 0.931 . S
H977 C965 0.929 . S
H978 C966 0.960 . S
H979 C966 0.962 . S
H980 C966 0.960 . S
H981 C967 0.961 . S
H982 C967 0.961 . S
H983 C967 0.961 . S
H984 C968 0.931 . S
H985 C973 0.930 . S
H986 C974 0.956 . S
H987 C974 0.961 . S
H988 C974 0.961 . S
H989 C975 0.958 . S
H990 C975 0.961 . S
H991 C975 0.960 . S
C992 C993 1.391 . S
C992 C994 1.394 . S
C992 H1008 0.931 . S
C993 C992 1.391 . S
C993 C997 1.376 . S
C994 C992 1.394 . S
C994 C995 1.369 . S
C994 C998 1.531 . S
C995 C994 1.369 . S
C995 C996 1.410 . S
C995 C1003 1.503 . S
C996 C995 1.410 . S
C996 C997 1.392 . S
C996 C999 1.511 . S
C997 C993 1.376 . S
C997 C996 1.392 . S
C997 H1009 0.929 . S
C998 C994 1.531 . S
C998 H1010 0.960 . S
C998 H1011 0.962 . S
C998 H1012 0.960 . S
C999 C996 1.511 . S
C999 H1013 0.961 . S
C999 H1014 0.961 . S
C999 H1015 0.961 . S
C1000 C1001 1.370 . S
C1000 C1002 1.363 . S
C1000 H1016 0.931 . S
C1001 C1000 1.370 . S
C1001 C1005 1.408 . S
C1002 C1000 1.363 . S
C1002 C1003 1.370 . S
C1002 C1006 1.524 . S
C1003 C995 1.503 . S
C1003 C1002 1.370 . S
C1003 C1004 1.403 . S
C1004 C1003 1.403 . S
C1004 C1005 1.404 . S
C1004 C1007 1.539 . S
C1005 C1001 1.408 . S
C1005 C1004 1.404 . S
C1005 H1017 0.930 . S
C1006 C1002 1.524 . S
C1006 H1018 0.956 . S
C1006 H1019 0.961 . S
C1006 H1020 0.961 . S
C1007 C1004 1.539 . S
C1007 H1021 0.958 . S
C1007 H1022 0.961 . S
C1007 H1023 0.960 . S
H1008 C992 0.931 . S
H1009 C997 0.929 . S
H1010 C998 0.960 . S
H1011 C998 0.962 . S
H1012 C998 0.960 . S
H1013 C999 0.961 . S
H1014 C999 0.961 . S
H1015 C999 0.961 . S
H1016 C1000 0.931 . S
H1017 C1005 0.930 . S
H1018 C1006 0.956 . S
H1019 C1006 0.961 . S
H1020 C1006 0.961 . S
H1021 C1007 0.958 . S
H1022 C1007 0.961 . S
H1023 C1007 0.960 . S
C1024 C1025 1.391 . S
C1024 C1026 1.394 . S
C1024 H1040 0.931 . S
C1025 C1024 1.391 . S
C1025 C1029 1.376 . S
C1026 C1024 1.394 . S
C1026 C1027 1.369 . S
C1026 C1030 1.531 . S
C1027 C1026 1.369 . S
C1027 C1028 1.410 . S
C1027 C1035 1.503 . S
C1028 C1027 1.410 . S
C1028 C1029 1.392 . S
C1028 C1031 1.511 . S
C1029 C1025 1.376 . S
C1029 C1028 1.392 . S
C1029 H1041 0.929 . S
C1030 C1026 1.531 . S
C1030 H1042 0.960 . S
C1030 H1043 0.962 . S
C1030 H1044 0.960 . S
C1031 C1028 1.511 . S
C1031 H1045 0.961 . S
C1031 H1046 0.961 . S
C1031 H1047 0.961 . S
C1032 C1033 1.370 . S
C1032 C1034 1.363 . S
C1032 H1048 0.931 . S
C1033 C1032 1.370 . S
C1033 C1037 1.408 . S
C1034 C1032 1.363 . S
C1034 C1035 1.370 . S
C1034 C1038 1.524 . S
C1035 C1027 1.503 . S
C1035 C1034 1.370 . S
C1035 C1036 1.403 . S
C1036 C1035 1.403 . S
C1036 C1037 1.404 . S
C1036 C1039 1.539 . S
C1037 C1033 1.408 . S
C1037 C1036 1.404 . S
C1037 H1049 0.930 . S
C1038 C1034 1.524 . S
C1038 H1050 0.956 . S
C1038 H1051 0.961 . S
C1038 H1052 0.961 . S
C1039 C1036 1.539 . S
C1039 H1053 0.958 . S
C1039 H1054 0.961 . S
C1039 H1055 0.960 . S
H1040 C1024 0.931 . S
H1041 C1029 0.929 . S
H1042 C1030 0.960 . S
H1043 C1030 0.962 . S
H1044 C1030 0.960 . S
H1045 C1031 0.961 . S
H1046 C1031 0.961 . S
H1047 C1031 0.961 . S
H1048 C1032 0.931 . S
H1049 C1037 0.930 . S
H1050 C1038 0.956 . S
H1051 C1038 0.961 . S
H1052 C1038 0.961 . S
H1053 C1039 0.958 . S
H1054 C1039 0.961 . S
H1055 C1039 0.960 . S
C1056 C1057 1.391 . S
C1056 C1058 1.394 . S
C1056 H1072 0.931 . S
C1057 C1056 1.391 . S
C1057 C1061 1.376 . S
C1058 C1056 1.394 . S
C1058 C1059 1.369 . S
C1058 C1062 1.531 . S
C1059 C1058 1.369 . S
C1059 C1060 1.410 . S
C1059 C1067 1.503 . S
C1060 C1059 1.410 . S
C1060 C1061 1.392 . S
C1060 C1063 1.511 . S
C1061 C1057 1.376 . S
C1061 C1060 1.392 . S
C1061 H1073 0.929 . S
C1062 C1058 1.531 . S
C1062 H1074 0.960 . S
C1062 H1075 0.962 . S
C1062 H1076 0.960 . S
C1063 C1060 1.511 . S
C1063 H1077 0.961 . S
C1063 H1078 0.961 . S
C1063 H1079 0.961 . S
C1064 C1065 1.370 . S
C1064 C1066 1.363 . S
C1064 H1080 0.931 . S
C1065 C1064 1.370 . S
C1065 C1069 1.408 . S
C1066 C1064 1.363 . S
C1066 C1067 1.370 . S
C1066 C1070 1.524 . S
C1067 C1059 1.503 . S
C1067 C1066 1.370 . S
C1067 C1068 1.403 . S
C1068 C1067 1.403 . S
C1068 C1069 1.404 . S
C1068 C1071 1.539 . S
C1069 C1065 1.408 . S
C1069 C1068 1.404 . S
C1069 H1081 0.930 . S
C1070 C1066 1.524 . S
C1070 H1082 0.956 . S
C1070 H1083 0.961 . S
C1070 H1084 0.961 . S
C1071 C1068 1.539 . S
C1071 H1085 0.958 . S
C1071 H1086 0.961 . S
C1071 H1087 0.960 . S
H1072 C1056 0.931 . S
H1073 C1061 0.929 . S
H1074 C1062 0.960 . S
H1075 C1062 0.962 . S
H1076 C1062 0.960 . S
H1077 C1063 0.961 . S
H1078 C1063 0.961 . S
H1079 C1063 0.961 . S
H1080 C1064 0.931 . S
H1081 C1069 0.930 . S
H1082 C1070 0.956 . S
H1083 C1070 0.961 . S
H1084 C1070 0.961 . S
H1085 C1071 0.958 . S
H1086 C1071 0.961 . S
H1087 C1071 0.960 . S
C1088 C1089 1.391 . S
C1088 C1090 1.394 . S
C1088 H1104 0.931 . S
C1089 C1088 1.391 . S
C1089 C1093 1.376 . S
C1090 C1088 1.394 . S
C1090 C1091 1.369 . S
C1090 C1094 1.531 . S
C1091 C1090 1.369 . S
C1091 C1092 1.410 . S
C1091 C1099 1.503 . S
C1092 C1091 1.410 . S
C1092 C1093 1.392 . S
C1092 C1095 1.511 . S
C1093 C1089 1.376 . S
C1093 C1092 1.392 . S
C1093 H1105 0.929 . S
C1094 C1090 1.531 . S
C1094 H1106 0.960 . S
C1094 H1107 0.962 . S
C1094 H1108 0.960 . S
C1095 C1092 1.511 . S
C1095 H1109 0.961 . S
C1095 H1110 0.961 . S
C1095 H1111 0.961 . S
C1096 C1097 1.370 . S
C1096 C1098 1.363 . S
C1096 H1112 0.931 . S
C1097 C1096 1.370 . S
C1097 C1101 1.408 . S
C1098 C1096 1.363 . S
C1098 C1099 1.370 . S
C1098 C1102 1.524 . S
C1099 C1091 1.503 . S
C1099 C1098 1.370 . S
C1099 C1100 1.403 . S
C1100 C1099 1.403 . S
C1100 C1101 1.404 . S
C1100 C1103 1.539 . S
C1101 C1097 1.408 . S
C1101 C1100 1.404 . S
C1101 H1113 0.930 . S
C1102 C1098 1.524 . S
C1102 H1114 0.956 . S
C1102 H1115 0.961 . S
C1102 H1116 0.961 . S
C1103 C1100 1.539 . S
C1103 H1117 0.958 . S
C1103 H1118 0.961 . S
C1103 H1119 0.960 . S
H1104 C1088 0.931 . S
H1105 C1093 0.929 . S
H1106 C1094 0.960 . S
H1107 C1094 0.962 . S
H1108 C1094 0.960 . S
H1109 C1095 0.961 . S
H1110 C1095 0.961 . S
H1111 C1095 0.961 . S
H1112 C1096 0.931 . S
H1113 C1101 0.930 . S
H1114 C1102 0.956 . S
H1115 C1102 0.961 . S
H1116 C1102 0.961 . S
H1117 C1103 0.958 . S
H1118 C1103 0.961 . S
H1119 C1103 0.960 . S
C1120 C1121 1.391 . S
C1120 C1122 1.394 . S
C1120 H1136 0.931 . S
C1121 C1120 1.391 . S
C1121 C1125 1.376 . S
C1122 C1120 1.394 . S
C1122 C1123 1.369 . S
C1122 C1126 1.531 . S
C1123 C1122 1.369 . S
C1123 C1124 1.410 . S
C1123 C1131 1.503 . S
C1124 C1123 1.410 . S
C1124 C1125 1.392 . S
C1124 C1127 1.511 . S
C1125 C1121 1.376 . S
C1125 C1124 1.392 . S
C1125 H1137 0.929 . S
C1126 C1122 1.531 . S
C1126 H1138 0.960 . S
C1126 H1139 0.962 . S
C1126 H1140 0.960 . S
C1127 C1124 1.511 . S
C1127 H1141 0.961 . S
C1127 H1142 0.961 . S
C1127 H1143 0.961 . S
C1128 C1129 1.370 . S
C1128 C1130 1.363 . S
C1128 H1144 0.931 . S
C1129 C1128 1.370 . S
C1129 C1133 1.408 . S
C1130 C1128 1.363 . S
C1130 C1131 1.370 . S
C1130 C1134 1.524 . S
C1131 C1123 1.503 . S
C1131 C1130 1.370 . S
C1131 C1132 1.403 . S
C1132 C1131 1.403 . S
C1132 C1133 1.404 . S
C1132 C1135 1.539 . S
C1133 C1129 1.408 . S
C1133 C1132 1.404 . S
C1133 H1145 0.930 . S
C1134 C1130 1.524 . S
C1134 H1146 0.956 . S
C1134 H1147 0.961 . S
C1134 H1148 0.961 . S
C1135 C1132 1.539 . S
C1135 H1149 0.958 . S
C1135 H1150 0.961 . S
C1135 H1151 0.960 . S
H1136 C1120 0.931 . S
H1137 C1125 0.929 . S
H1138 C1126 0.960 . S
H1139 C1126 0.962 . S
H1140 C1126 0.960 . S
H1141 C1127 0.961 . S
H1142 C1127 0.961 . S
H1143 C1127 0.961 . S
H1144 C1128 0.931 . S
H1145 C1133 0.930 . S
H1146 C1134 0.956 . S
H1147 C1134 0.961 . S
H1148 C1134 0.961 . S
H1149 C1135 0.958 . S
H1150 C1135 0.961 . S
H1151 C1135 0.960 . S
C1152 C1153 1.391 . S
C1152 C1154 1.394 . S
C1152 H1168 0.931 . S
C1153 C1152 1.391 . S
C1153 C1157 1.376 . S
C1154 C1152 1.394 . S
C1154 C1155 1.369 . S
C1154 C1158 1.531 . S
C1155 C1154 1.369 . S
C1155 C1156 1.410 . S
C1155 C1163 1.503 . S
C1156 C1155 1.410 . S
C1156 C1157 1.392 . S
C1156 C1159 1.511 . S
C1157 C1153 1.376 . S
C1157 C1156 1.392 . S
C1157 H1169 0.929 . S
C1158 C1154 1.531 . S
C1158 H1170 0.960 . S
C1158 H1171 0.962 . S
C1158 H1172 0.960 . S
C1159 C1156 1.511 . S
C1159 H1173 0.961 . S
C1159 H1174 0.961 . S
C1159 H1175 0.961 . S
C1160 C1161 1.370 . S
C1160 C1162 1.363 . S
C1160 H1176 0.931 . S
C1161 C1160 1.370 . S
C1161 C1165 1.408 . S
C1162 C1160 1.363 . S
C1162 C1163 1.370 . S
C1162 C1166 1.524 . S
C1163 C1155 1.503 . S
C1163 C1162 1.370 . S
C1163 C1164 1.403 . S
C1164 C1163 1.403 . S
C1164 C1165 1.404 . S
C1164 C1167 1.539 . S
C1165 C1161 1.408 . S
C1165 C1164 1.404 . S
C1165 H1177 0.930 . S
C1166 C1162 1.524 . S
C1166 H1178 0.956 . S
C1166 H1179 0.961 . S
C1166 H1180 0.961 . S
C1167 C1164 1.539 . S
C1167 H1181 0.958 . S
C1167 H1182 0.961 . S
C1167 H1183 0.960 . S
H1168 C1152 0.931 . S
H1169 C1157 0.929 . S
H1170 C1158 0.960 . S
H1171 C1158 0.962 . S
H1172 C1158 0.960 . S
H1173 C1159 0.961 . S
H1174 C1159 0.961 . S
H1175 C1159 0.961 . S
H1176 C1160 0.931 . S
H1177 C1165 0.930 . S
H1178 C1166 0.956 . S
H1179 C1166 0.961 . S
H1180 C1166 0.961 . S
H1181 C1167 0.958 . S
H1182 C1167 0.961 . S
H1183 C1167 0.960 . S
C1184 C1185 1.391 . S
C1184 C1186 1.394 . S
C1184 H1200 0.931 . S
C1185 C1184 1.391 . S
C1185 C1189 1.376 . S
C1186 C1184 1.394 . S
C1186 C1187 1.369 . S
C1186 C1190 1.531 . S
C1187 C1186 1.369 . S
C1187 C1188 1.410 . S
C1187 C1195 1.503 . S
C1188 C1187 1.410 . S
C1188 C1189 1.392 . S
C1188 C1191 1.511 . S
C1189 C1185 1.376 . S
C1189 C1188 1.392 . S
C1189 H1201 0.929 . S
C1190 C1186 1.531 . S
C1190 H1202 0.960 . S
C1190 H1203 0.962 . S
C1190 H1204 0.960 . S
C1191 C1188 1.511 . S
C1191 H1205 0.961 . S
C1191 H1206 0.961 . S
C1191 H1207 0.961 . S
C1192 C1193 1.370 . S
C1192 C1194 1.363 . S
C1192 H1208 0.931 . S
C1193 C1192 1.370 . S
C1193 C1197 1.408 . S
C1194 C1192 1.363 . S
C1194 C1195 1.370 . S
C1194 C1198 1.524 . S
C1195 C1187 1.503 . S
C1195 C1194 1.370 . S
C1195 C1196 1.403 . S
C1196 C1195 1.403 . S
C1196 C1197 1.404 . S
C1196 C1199 1.539 . S
C1197 C1193 1.408 . S
C1197 C1196 1.404 . S
C1197 H1209 0.930 . S
C1198 C1194 1.524 . S
C1198 H1210 0.956 . S
C1198 H1211 0.961 . S
C1198 H1212 0.961 . S
C1199 C1196 1.539 . S
C1199 H1213 0.958 . S
C1199 H1214 0.961 . S
C1199 H1215 0.960 . S
H1200 C1184 0.931 . S
H1201 C1189 0.929 . S
H1202 C1190 0.960 . S
H1203 C1190 0.962 . S
H1204 C1190 0.960 . S
H1205 C1191 0.961 . S
H1206 C1191 0.961 . S
H1207 C1191 0.961 . S
H1208 C1192 0.931 . S
H1209 C1197 0.930 . S
H1210 C1198 0.956 . S
H1211 C1198 0.961 . S
H1212 C1198 0.961 . S
H1213 C1199 0.958 . S
H1214 C1199 0.961 . S
H1215 C1199 0.960 . S
C1216 C1217 1.391 . S
C1216 C1218 1.394 . S
C1216 H1232 0.931 . S
C1217 C1216 1.391 . S
C1217 C1221 1.376 . S
C1218 C1216 1.394 . S
C1218 C1219 1.369 . S
C1218 C1222 1.531 . S
C1219 C1218 1.369 . S
C1219 C1220 1.410 . S
C1219 C1227 1.503 . S
C1220 C1219 1.410 . S
C1220 C1221 1.392 . S
C1220 C1223 1.511 . S
C1221 C1217 1.376 . S
C1221 C1220 1.392 . S
C1221 H1233 0.929 . S
C1222 C1218 1.531 . S
C1222 H1234 0.960 . S
C1222 H1235 0.962 . S
C1222 H1236 0.960 . S
C1223 C1220 1.511 . S
C1223 H1237 0.961 . S
C1223 H1238 0.961 . S
C1223 H1239 0.961 . S
C1224 C1225 1.370 . S
C1224 C1226 1.363 . S
C1224 H1240 0.931 . S
C1225 C1224 1.370 . S
C1225 C1229 1.408 . S
C1226 C1224 1.363 . S
C1226 C1227 1.370 . S
C1226 C1230 1.524 . S
C1227 C1219 1.503 . S
C1227 C1226 1.370 . S
C1227 C1228 1.403 . S
C1228 C1227 1.403 . S
C1228 C1229 1.404 . S
C1228 C1231 1.539 . S
C1229 C1225 1.408 . S
C1229 C1228 1.404 . S
C1229 H1241 0.930 . S
C1230 C1226 1.524 . S
C1230 H1242 0.956 . S
C1230 H1243 0.961 . S
C1230 H1244 0.961 . S
C1231 C1228 1.539 . S
C1231 H1245 0.958 . S
C1231 H1246 0.961 . S
C1231 H1247 0.960 . S
H1232 C1216 0.931 . S
H1233 C1221 0.929 . S
H1234 C1222 0.960 . S
H1235 C1222 0.962 . S
H1236 C1222 0.960 . S
H1237 C1223 0.961 . S
H1238 C1223 0.961 . S
H1239 C1223 0.961 . S
H1240 C1224 0.931 . S
H1241 C1229 0.930 . S
H1242 C1230 0.956 . S
H1243 C1230 0.961 . S
H1244 C1230 0.961 . S
H1245 C1231 0.958 . S
H1246 C1231 0.961 . S
H1247 C1231 0.960 . S
C1248 C1249 1.391 . S
C1248 C1250 1.394 . S
C1248 H1264 0.931 . S
C1249 C1248 1.391 . S
C1249 C1253 1.376 . S
C1250 C1248 1.394 . S
C1250 C1251 1.369 . S
C1250 C1254 1.531 . S
C1251 C1250 1.369 . S
C1251 C1252 1.410 . S
C1251 C1259 1.503 . S
C1252 C1251 1.410 . S
C1252 C1253 1.392 . S
C1252 C1255 1.511 . S
C1253 C1249 1.376 . S
C1253 C1252 1.392 . S
C1253 H1265 0.929 . S
C1254 C1250 1.531 . S
C1254 H1266 0.960 . S
C1254 H1267 0.962 . S
C1254 H1268 0.960 . S
C1255 C1252 1.511 . S
C1255 H1269 0.961 . S
C1255 H1270 0.961 . S
C1255 H1271 0.961 . S
C1256 C1257 1.370 . S
C1256 C1258 1.363 . S
C1256 H1272 0.931 . S
C1257 C1256 1.370 . S
C1257 C1261 1.408 . S
C1258 C1256 1.363 . S
C1258 C1259 1.370 . S
C1258 C1262 1.524 . S
C1259 C1251 1.503 . S
C1259 C1258 1.370 . S
C1259 C1260 1.403 . S
C1260 C1259 1.403 . S
C1260 C1261 1.404 . S
C1260 C1263 1.539 . S
C1261 C1257 1.408 . S
C1261 C1260 1.404 . S
C1261 H1273 0.930 . S
C1262 C1258 1.524 . S
C1262 H1274 0.956 . S
C1262 H1275 0.961 . S
C1262 H1276 0.961 . S
C1263 C1260 1.539 . S
C1263 H1277 0.958 . S
C1263 H1278 0.961 . S
C1263 H1279 0.960 . S
H1264 C1248 0.931 . S
H1265 C1253 0.929 . S
H1266 C1254 0.960 . S
H1267 C1254 0.962 . S
H1268 C1254 0.960 . S
H1269 C1255 0.961 . S
H1270 C1255 0.961 . S
H1271 C1255 0.961 . S
H1272 C1256 0.931 . S
H1273 C1261 0.930 . S
H1274 C1262 0.956 . S
H1275 C1262 0.961 . S
H1276 C1262 0.961 . S
H1277 C1263 0.958 . S
H1278 C1263 0.961 . S
H1279 C1263 0.960 . S
C1280 C1281 1.391 . S
C1280 C1282 1.394 . S
C1280 H1296 0.931 . S
C1281 C1280 1.391 . S
C1281 C1285 1.376 . S
C1282 C1280 1.394 . S
C1282 C1283 1.369 . S
C1282 C1286 1.531 . S
C1283 C1282 1.369 . S
C1283 C1284 1.410 . S
C1283 C1291 1.503 . S
C1284 C1283 1.410 . S
C1284 C1285 1.392 . S
C1284 C1287 1.511 . S
C1285 C1281 1.376 . S
C1285 C1284 1.392 . S
C1285 H1297 0.929 . S
C1286 C1282 1.531 . S
C1286 H1298 0.960 . S
C1286 H1299 0.962 . S
C1286 H1300 0.960 . S
C1287 C1284 1.511 . S
C1287 H1301 0.961 . S
C1287 H1302 0.961 . S
C1287 H1303 0.961 . S
C1288 C1289 1.370 . S
C1288 C1290 1.363 . S
C1288 H1304 0.931 . S
C1289 C1288 1.370 . S
C1289 C1293 1.408 . S
C1290 C1288 1.363 . S
C1290 C1291 1.370 . S
C1290 C1294 1.524 . S
C1291 C1283 1.503 . S
C1291 C1290 1.370 . S
C1291 C1292 1.403 . S
C1292 C1291 1.403 . S
C1292 C1293 1.404 . S
C1292 C1295 1.539 . S
C1293 C1289 1.408 . S
C1293 C1292 1.404 . S
C1293 H1305 0.930 . S
C1294 C1290 1.524 . S
C1294 H1306 0.956 . S
C1294 H1307 0.961 . S
C1294 H1308 0.961 . S
C1295 C1292 1.539 . S
C1295 H1309 0.958 . S
C1295 H1310 0.961 . S
C1295 H1311 0.960 . S
H1296 C1280 0.931 . S
H1297 C1285 0.929 . S
H1298 C1286 0.960 . S
H1299 C1286 0.962 . S
H1300 C1286 0.960 . S
H1301 C1287 0.961 . S
H1302 C1287 0.961 . S
H1303 C1287 0.961 . S
H1304 C1288 0.931 . S
H1305 C1293 0.930 . S
H1306 C1294 0.956 . S
H1307 C1294 0.961 . S
H1308 C1294 0.961 . S
H1309 C1295 0.958 . S
H1310 C1295 0.961 . S
H1311 C1295 0.960 . S
C1312 C1313 1.391 . S
C1312 C1314 1.394 . S
C1312 H1328 0.931 . S
C1313 C1312 1.391 . S
C1313 C1317 1.376 . S
C1314 C1312 1.394 . S
C1314 C1315 1.369 . S
C1314 C1318 1.531 . S
C1315 C1314 1.369 . S
C1315 C1316 1.410 . S
C1315 C1323 1.503 . S
C1316 C1315 1.410 . S
C1316 C1317 1.392 . S
C1316 C1319 1.511 . S
C1317 C1313 1.376 . S
C1317 C1316 1.392 . S
C1317 H1329 0.929 . S
C1318 C1314 1.531 . S
C1318 H1330 0.960 . S
C1318 H1331 0.962 . S
C1318 H1332 0.960 . S
C1319 C1316 1.511 . S
C1319 H1333 0.961 . S
C1319 H1334 0.961 . S
C1319 H1335 0.961 . S
C1320 C1321 1.370 . S
C1320 C1322 1.363 . S
C1320 H1336 0.931 . S
C1321 C1320 1.370 . S
C1321 C1325 1.408 . S
C1322 C1320 1.363 . S
C1322 C1323 1.370 . S
C1322 C1326 1.524 . S
C1323 C1315 1.503 . S
C1323 C1322 1.370 . S
C1323 C1324 1.403 . S
C1324 C1323 1.403 . S
C1324 C1325 1.404 . S
C1324 C1327 1.539 . S
C1325 C1321 1.408 . S
C1325 C1324 1.404 . S
C1325 H1337 0.930 . S
C1326 C1322 1.524 . S
C1326 H1338 0.956 . S
C1326 H1339 0.961 . S
C1326 H1340 0.961 . S
C1327 C1324 1.539 . S
C1327 H1341 0.958 . S
C1327 H1342 0.961 . S
C1327 H1343 0.960 . S
H1328 C1312 0.931 . S
H1329 C1317 0.929 . S
H1330 C1318 0.960 . S
H1331 C1318 0.962 . S
H1332 C1318 0.960 . S
H1333 C1319 0.961 . S
H1334 C1319 0.961 . S
H1335 C1319 0.961 . S
H1336 C1320 0.931 . S
H1337 C1325 0.930 . S
H1338 C1326 0.956 . S
H1339 C1326 0.961 . S
H1340 C1326 0.961 . S
H1341 C1327 0.958 . S
H1342 C1327 0.961 . S
H1343 C1327 0.960 . S
C1344 C1345 1.391 . S
C1344 C1346 1.394 . S
C1344 H1360 0.931 . S
C1345 C1344 1.391 . S
C1345 C1349 1.376 . S
C1346 C1344 1.394 . S
C1346 C1347 1.369 . S
C1346 C1350 1.531 . S
C1347 C1346 1.369 . S
C1347 C1348 1.410 . S
C1347 C1355 1.503 . S
C1348 C1347 1.410 . S
C1348 C1349 1.392 . S
C1348 C1351 1.511 . S
C1349 C1345 1.376 . S
C1349 C1348 1.392 . S
C1349 H1361 0.929 . S
C1350 C1346 1.531 . S
C1350 H1362 0.960 . S
C1350 H1363 0.962 . S
C1350 H1364 0.960 . S
C1351 C1348 1.511 . S
C1351 H1365 0.961 . S
C1351 H1366 0.961 . S
C1351 H1367 0.961 . S
C1352 C1353 1.370 . S
C1352 C1354 1.363 . S
C1352 H1368 0.931 . S
C1353 C1352 1.370 . S
C1353 C1357 1.408 . S
C1354 C1352 1.363 . S
C1354 C1355 1.370 . S
C1354 C1358 1.524 . S
C1355 C1347 1.503 . S
C1355 C1354 1.370 . S
C1355 C1356 1.403 . S
C1356 C1355 1.403 . S
C1356 C1357 1.404 . S
C1356 C1359 1.539 . S
C1357 C1353 1.408 . S
C1357 C1356 1.404 . S
C1357 H1369 0.930 . S
C1358 C1354 1.524 . S
C1358 H1370 0.956 . S
C1358 H1371 0.961 . S
C1358 H1372 0.961 . S
C1359 C1356 1.539 . S
C1359 H1373 0.958 . S
C1359 H1374 0.961 . S
C1359 H1375 0.960 . S
H1360 C1344 0.931 . S
H1361 C1349 0.929 . S
H1362 C1350 0.960 . S
H1363 C1350 0.962 . S
H1364 C1350 0.960 . S
H1365 C1351 0.961 . S
H1366 C1351 0.961 . S
H1367 C1351 0.961 . S
H1368 C1352 0.931 . S
H1369 C1357 0.930 . S
H1370 C1358 0.956 . S
H1371 C1358 0.961 . S
H1372 C1358 0.961 . S
H1373 C1359 0.958 . S
H1374 C1359 0.961 . S
H1375 C1359 0.960 . S
C1376 C1377 1.391 . S
C1376 C1378 1.394 . S
C1376 H1392 0.931 . S
C1377 C1376 1.391 . S
C1377 C1381 1.376 . S
C1378 C1376 1.394 . S
C1378 C1379 1.369 . S
C1378 C1382 1.531 . S
C1379 C1378 1.369 . S
C1379 C1380 1.410 . S
C1379 C1387 1.503 . S
C1380 C1379 1.410 . S
C1380 C1381 1.392 . S
C1380 C1383 1.511 . S
C1381 C1377 1.376 . S
C1381 C1380 1.392 . S
C1381 H1393 0.929 . S
C1382 C1378 1.531 . S
C1382 H1394 0.960 . S
C1382 H1395 0.962 . S
C1382 H1396 0.960 . S
C1383 C1380 1.511 . S
C1383 H1397 0.961 . S
C1383 H1398 0.961 . S
C1383 H1399 0.961 . S
C1384 C1385 1.370 . S
C1384 C1386 1.363 . S
C1384 H1400 0.931 . S
C1385 C1384 1.370 . S
C1385 C1389 1.408 . S
C1386 C1384 1.363 . S
C1386 C1387 1.370 . S
C1386 C1390 1.524 . S
C1387 C1379 1.503 . S
C1387 C1386 1.370 . S
C1387 C1388 1.403 . S
C1388 C1387 1.403 . S
C1388 C1389 1.404 . S
C1388 C1391 1.539 . S
C1389 C1385 1.408 . S
C1389 C1388 1.404 . S
C1389 H1401 0.930 . S
C1390 C1386 1.524 . S
C1390 H1402 0.956 . S
C1390 H1403 0.961 . S
C1390 H1404 0.961 . S
C1391 C1388 1.539 . S
C1391 H1405 0.958 . S
C1391 H1406 0.961 . S
C1391 H1407 0.960 . S
H1392 C1376 0.931 . S
H1393 C1381 0.929 . S
H1394 C1382 0.960 . S
H1395 C1382 0.962 . S
H1396 C1382 0.960 . S
H1397 C1383 0.961 . S
H1398 C1383 0.961 . S
H1399 C1383 0.961 . S
H1400 C1384 0.931 . S
H1401 C1389 0.930 . S
H1402 C1390 0.956 . S
H1403 C1390 0.961 . S
H1404 C1390 0.961 . S
H1405 C1391 0.958 . S
H1406 C1391 0.961 . S
H1407 C1391 0.960 . S
C1408 C1409 1.391 . S
C1408 C1410 1.394 . S
C1408 H1424 0.931 . S
C1409 C1408 1.391 . S
C1409 C1413 1.376 . S
C1410 C1408 1.394 . S
C1410 C1411 1.369 . S
C1410 C1414 1.531 . S
C1411 C1410 1.369 . S
C1411 C1412 1.410 . S
C1411 C1419 1.503 . S
C1412 C1411 1.410 . S
C1412 C1413 1.392 . S
C1412 C1415 1.511 . S
C1413 C1409 1.376 . S
C1413 C1412 1.392 . S
C1413 H1425 0.929 . S
C1414 C1410 1.531 . S
C1414 H1426 0.960 . S
C1414 H1427 0.962 . S
C1414 H1428 0.960 . S
C1415 C1412 1.511 . S
C1415 H1429 0.961 . S
C1415 H1430 0.961 . S
C1415 H1431 0.961 . S
C1416 C1417 1.370 . S
C1416 C1418 1.363 . S
C1416 H1432 0.931 . S
C1417 C1416 1.370 . S
C1417 C1421 1.408 . S
C1418 C1416 1.363 . S
C1418 C1419 1.370 . S
C1418 C1422 1.524 . S
C1419 C1411 1.503 . S
C1419 C1418 1.370 . S
C1419 C1420 1.403 . S
C1420 C1419 1.403 . S
C1420 C1421 1.404 . S
C1420 C1423 1.539 . S
C1421 C1417 1.408 . S
C1421 C1420 1.404 . S
C1421 H1433 0.930 . S
C1422 C1418 1.524 . S
C1422 H1434 0.956 . S
C1422 H1435 0.961 . S
C1422 H1436 0.961 . S
C1423 C1420 1.539 . S
C1423 H1437 0.958 . S
C1423 H1438 0.961 . S
C1423 H1439 0.960 . S
H1424 C1408 0.931 . S
H1425 C1413 0.929 . S
H1426 C1414 0.960 . S
H1427 C1414 0.962 . S
H1428 C1414 0.960 . S
H1429 C1415 0.961 . S
H1430 C1415 0.961 . S
H1431 C1415 0.961 . S
H1432 C1416 0.931 . S
H1433 C1421 0.930 . S
H1434 C1422 0.956 . S
H1435 C1422 0.961 . S
H1436 C1422 0.961 . S
H1437 C1423 0.958 . S
H1438 C1423 0.961 . S
H1439 C1423 0.960 . S
C1440 C1441 1.391 . S
C1440 C1442 1.394 . S
C1440 H1456 0.931 . S
C1441 C1440 1.391 . S
C1441 C1445 1.376 . S
C1442 C1440 1.394 . S
C1442 C1443 1.369 . S
C1442 C1446 1.531 . S
C1443 C1442 1.369 . S
C1443 C1444 1.410 . S
C1443 C1451 1.503 . S
C1444 C1443 1.410 . S
C1444 C1445 1.392 . S
C1444 C1447 1.511 . S
C1445 C1441 1.376 . S
C1445 C1444 1.392 . S
C1445 H1457 0.929 . S
C1446 C1442 1.531 . S
C1446 H1458 0.960 . S
C1446 H1459 0.962 . S
C1446 H1460 0.960 . S
C1447 C1444 1.511 . S
C1447 H1461 0.961 . S
C1447 H1462 0.961 . S
C1447 H1463 0.961 . S
C1448 C1449 1.370 . S
C1448 C1450 1.363 . S
C1448 H1464 0.931 . S
C1449 C1448 1.370 . S
C1449 C1453 1.408 . S
C1450 C1448 1.363 . S
C1450 C1451 1.370 . S
C1450 C1454 1.524 . S
C1451 C1443 1.503 . S
C1451 C1450 1.370 . S
C1451 C1452 1.403 . S
C1452 C1451 1.403 . S
C1452 C1453 1.404 . S
C1452 C1455 1.539 . S
C1453 C1449 1.408 . S
C1453 C1452 1.404 . S
C1453 H1465 0.930 . S
C1454 C1450 1.524 . S
C1454 H1466 0.956 . S
C1454 H1467 0.961 . S
C1454 H1468 0.961 . S
C1455 C1452 1.539 . S
C1455 H1469 0.958 . S
C1455 H1470 0.961 . S
C1455 H1471 0.960 . S
H1456 C1440 0.931 . S
H1457 C1445 0.929 . S
H1458 C1446 0.960 . S
H1459 C1446 0.962 . S
H1460 C1446 0.960 . S
H1461 C1447 0.961 . S
H1462 C1447 0.961 . S
H1463 C1447 0.961 . S
H1464 C1448 0.931 . S
H1465 C1453 0.930 . S
H1466 C1454 0.956 . S
H1467 C1454 0.961 . S
H1468 C1454 0.961 . S
H1469 C1455 0.958 . S
H1470 C1455 0.961 . S
H1471 C1455 0.960 . S
C1472 C1473 1.391 . S
C1472 C1474 1.394 . S
C1472 H1488 0.931 . S
C1473 C1472 1.391 . S
C1473 C1477 1.376 . S
C1474 C1472 1.394 . S
C1474 C1475 1.369 . S
C1474 C1478 1.531 . S
C1475 C1474 1.369 . S
C1475 C1476 1.410 . S
C1475 C1483 1.503 . S
C1476 C1475 1.410 . S
C1476 C1477 1.392 . S
C1476 C1479 1.511 . S
C1477 C1473 1.376 . S
C1477 C1476 1.392 . S
C1477 H1489 0.929 . S
C1478 C1474 1.531 . S
C1478 H1490 0.960 . S
C1478 H1491 0.962 . S
C1478 H1492 0.960 . S
C1479 C1476 1.511 . S
C1479 H1493 0.961 . S
C1479 H1494 0.961 . S
C1479 H1495 0.961 . S
C1480 C1481 1.370 . S
C1480 C1482 1.363 . S
C1480 H1496 0.931 . S
C1481 C1480 1.370 . S
C1481 C1485 1.408 . S
C1482 C1480 1.363 . S
C1482 C1483 1.370 . S
C1482 C1486 1.524 . S
C1483 C1475 1.503 . S
C1483 C1482 1.370 . S
C1483 C1484 1.403 . S
C1484 C1483 1.403 . S
C1484 C1485 1.404 . S
C1484 C1487 1.539 . S
C1485 C1481 1.408 . S
C1485 C1484 1.404 . S
C1485 H1497 0.930 . S
C1486 C1482 1.524 . S
C1486 H1498 0.956 . S
C1486 H1499 0.961 . S
C1486 H1500 0.961 . S
C1487 C1484 1.539 . S
C1487 H1501 0.958 . S
C1487 H1502 0.961 . S
C1487 H1503 0.960 . S
H1488 C1472 0.931 . S
H1489 C1477 0.929 . S
H1490 C1478 0.960 . S
H1491 C1478 0.962 . S
H1492 C1478 0.960 . S
H1493 C1479 0.961 . S
H1494 C1479 0.961 . S
H1495 C1479 0.961 . S
H1496 C1480 0.931 . S
H1497 C1485 0.930 . S
H1498 C1486 0.956 . S
H1499 C1486 0.961 . S
H1500 C1486 0.961 . S
H1501 C1487 0.958 . S
H1502 C1487 0.961 . S
H1503 C1487 0.960 . S
C1504 C1505 1.391 . S
C1504 C1506 1.394 . S
C1504 H1520 0.931 . S
C1505 C1504 1.391 . S
C1505 C1509 1.376 . S
C1506 C1504 1.394 . S
C1506 C1507 1.369 . S
C1506 C1510 1.531 . S
C1507 C1506 1.369 . S
C1507 C1508 1.410 . S
C1507 C1515 1.503 . S
C1508 C1507 1.410 . S
C1508 C1509 1.392 . S
C1508 C1511 1.511 . S
C1509 C1505 1.376 . S
C1509 C1508 1.392 . S
C1509 H1521 0.929 . S
C1510 C1506 1.531 . S
C1510 H1522 0.960 . S
C1510 H1523 0.962 . S
C1510 H1524 0.960 . S
C1511 C1508 1.511 . S
C1511 H1525 0.961 . S
C1511 H1526 0.961 . S
C1511 H1527 0.961 . S
C1512 C1513 1.370 . S
C1512 C1514 1.363 . S
C1512 H1528 0.931 . S
C1513 C1512 1.370 . S
C1513 C1517 1.408 . S
C1514 C1512 1.363 . S
C1514 C1515 1.370 . S
C1514 C1518 1.524 . S
C1515 C1507 1.503 . S
C1515 C1514 1.370 . S
C1515 C1516 1.403 . S
C1516 C1515 1.403 . S
C1516 C1517 1.404 . S
C1516 C1519 1.539 . S
C1517 C1513 1.408 . S
C1517 C1516 1.404 . S
C1517 H1529 0.930 . S
C1518 C1514 1.524 . S
C1518 H1530 0.956 . S
C1518 H1531 0.961 . S
C1518 H1532 0.961 . S
C1519 C1516 1.539 . S
C1519 H1533 0.958 . S
C1519 H1534 0.961 . S
C1519 H1535 0.960 . S
H1520 C1504 0.931 . S
H1521 C1509 0.929 . S
H1522 C1510 0.960 . S
H1523 C1510 0.962 . S
H1524 C1510 0.960 . S
H1525 C1511 0.961 . S
H1526 C1511 0.961 . S
H1527 C1511 0.961 . S
H1528 C1512 0.931 . S
H1529 C1517 0.930 . S
H1530 C1518 0.956 . S
H1531 C1518 0.961 . S
H1532 C1518 0.961 . S
H1533 C1519 0.958 . S
H1534 C1519 0.961 . S
H1535 C1519 0.960 . S
C1536 C1537 1.391 . S
C1536 C1538 1.394 . S
C1536 H1552 0.931 . S
C1537 C1536 1.391 . S
C1537 C1541 1.376 . S
C1538 C1536 1.394 . S
C1538 C1539 1.369 . S
C1538 C1542 1.531 . S
C1539 C1538 1.369 . S
C1539 C1540 1.410 . S
C1539 C1547 1.503 . S
C1540 C1539 1.410 . S
C1540 C1541 1.392 . S
C1540 C1543 1.511 . S
C1541 C1537 1.376 . S
C1541 C1540 1.392 . S
C1541 H1553 0.929 . S
C1542 C1538 1.531 . S
C1542 H1554 0.960 . S
C1542 H1555 0.962 . S
C1542 H1556 0.960 . S
C1543 C1540 1.511 . S
C1543 H1557 0.961 . S
C1543 H1558 0.961 . S
C1543 H1559 0.961 . S
C1544 C1545 1.370 . S
C1544 C1546 1.363 . S
C1544 H1560 0.931 . S
C1545 C1544 1.370 . S
C1545 C1549 1.408 . S
C1546 C1544 1.363 . S
C1546 C1547 1.370 . S
C1546 C1550 1.524 . S
C1547 C1539 1.503 . S
C1547 C1546 1.370 . S
C1547 C1548 1.403 . S
C1548 C1547 1.403 . S
C1548 C1549 1.404 . S
C1548 C1551 1.539 . S
C1549 C1545 1.408 . S
C1549 C1548 1.404 . S
C1549 H1561 0.930 . S
C1550 C1546 1.524 . S
C1550 H1562 0.956 . S
C1550 H1563 0.961 . S
C1550 H1564 0.961 . S
C1551 C1548 1.539 . S
C1551 H1565 0.958 . S
C1551 H1566 0.961 . S
C1551 H1567 0.960 . S
H1552 C1536 0.931 . S
H1553 C1541 0.929 . S
H1554 C1542 0.960 . S
H1555 C1542 0.962 . S
H1556 C1542 0.960 . S
H1557 C1543 0.961 . S
H1558 C1543 0.961 . S
H1559 C1543 0.961 . S
H1560 C1544 0.931 . S
H1561 C1549 0.930 . S
H1562 C1550 0.956 . S
H1563 C1550 0.961 . S
H1564 C1550 0.961 . S
H1565 C1551 0.958 . S
H1566 C1551 0.961 . S
H1567 C1551 0.960 . S
C1568 C1569 1.391 . S
C1568 C1570 1.394 . S
C1568 H1584 0.931 . S
C1569 C1568 1.391 . S
C1569 C1573 1.376 . S
C1570 C1568 1.394 . S
C1570 C1571 1.369 . S
C1570 C1574 1.531 . S
C1571 C1570 1.369 . S
C1571 C1572 1.410 . S
C1571 C1579 1.503 . S
C1572 C1571 1.410 . S
C1572 C1573 1.392 . S
C1572 C1575 1.511 . S
C1573 C1569 1.376 . S
C1573 C1572 1.392 . S
C1573 H1585 0.929 . S
C1574 C1570 1.531 . S
C1574 H1586 0.960 . S
C1574 H1587 0.962 . S
C1574 H1588 0.960 . S
C1575 C1572 1.511 . S
C1575 H1589 0.961 . S
C1575 H1590 0.961 . S
C1575 H1591 0.961 . S
C1576 C1577 1.370 . S
C1576 C1578 1.363 . S
C1576 H1592 0.931 . S
C1577 C1576 1.370 . S
C1577 C1581 1.408 . S
C1578 C1576 1.363 . S
C1578 C1579 1.370 . S
C1578 C1582 1.524 . S
C1579 C1571 1.503 . S
C1579 C1578 1.370 . S
C1579 C1580 1.403 . S
C1580 C1579 1.403 . S
C1580 C1581 1.404 . S
C1580 C1583 1.539 . S
C1581 C1577 1.408 . S
C1581 C1580 1.404 . S
C1581 H1593 0.930 . S
C1582 C1578 1.524 . S
C1582 H1594 0.956 . S
C1582 H1595 0.961 . S
C1582 H1596 0.961 . S
C1583 C1580 1.539 . S
C1583 H1597 0.958 . S
C1583 H1598 0.961 . S
C1583 H1599 0.960 . S
H1584 C1568 0.931 . S
H1585 C1573 0.929 . S
H1586 C1574 0.960 . S
H1587 C1574 0.962 . S
H1588 C1574 0.960 . S
H1589 C1575 0.961 . S
H1590 C1575 0.961 . S
H1591 C1575 0.961 . S
H1592 C1576 0.931 . S
H1593 C1581 0.930 . S
H1594 C1582 0.956 . S
H1595 C1582 0.961 . S
H1596 C1582 0.961 . S
H1597 C1583 0.958 . S
H1598 C1583 0.961 . S
H1599 C1583 0.960 . S
C1600 C1601 1.391 . S
C1600 C1602 1.394 . S
C1600 H1616 0.931 . S
C1601 C1600 1.391 . S
C1601 C1605 1.376 . S
C1602 C1600 1.394 . S
C1602 C1603 1.369 . S
C1602 C1606 1.531 . S
C1603 C1602 1.369 . S
C1603 C1604 1.410 . S
C1603 C1611 1.503 . S
C1604 C1603 1.410 . S
C1604 C1605 1.392 . S
C1604 C1607 1.511 . S
C1605 C1601 1.376 . S
C1605 C1604 1.392 . S
C1605 H1617 0.929 . S
C1606 C1602 1.531 . S
C1606 H1618 0.960 . S
C1606 H1619 0.962 . S
C1606 H1620 0.960 . S
C1607 C1604 1.511 . S
C1607 H1621 0.961 . S
C1607 H1622 0.961 . S
C1607 H1623 0.961 . S
C1608 C1609 1.370 . S
C1608 C1610 1.363 . S
C1608 H1624 0.931 . S
C1609 C1608 1.370 . S
C1609 C1613 1.408 . S
C1610 C1608 1.363 . S
C1610 C1611 1.370 . S
C1610 C1614 1.524 . S
C1611 C1603 1.503 . S
C1611 C1610 1.370 . S
C1611 C1612 1.403 . S
C1612 C1611 1.403 . S
C1612 C1613 1.404 . S
C1612 C1615 1.539 . S
C1613 C1609 1.408 . S
C1613 C1612 1.404 . S
C1613 H1625 0.930 . S
C1614 C1610 1.524 . S
C1614 H1626 0.956 . S
C1614 H1627 0.961 . S
C1614 H1628 0.961 . S
C1615 C1612 1.539 . S
C1615 H1629 0.958 . S
C1615 H1630 0.961 . S
C1615 H1631 0.960 . S
H1616 C1600 0.931 . S
H1617 C1605 0.929 . S
H1618 C1606 0.960 . S
H1619 C1606 0.962 . S
H1620 C1606 0.960 . S
H1621 C1607 0.961 . S
H1622 C1607 0.961 . S
H1623 C1607 0.961 . S
H1624 C1608 0.931 . S
H1625 C1613 0.930 . S
H1626 C1614 0.956 . S
H1627 C1614 0.961 . S
H1628 C1614 0.961 . S
H1629 C1615 0.958 . S
H1630 C1615 0.961 . S
H1631 C1615 0.960 . S
C1632 C1633 1.391 . S
C1632 C1634 1.394 . S
C1632 H1648 0.931 . S
C1633 C1632 1.391 . S
C1633 C1637 1.376 . S
C1634 C1632 1.394 . S
C1634 C1635 1.369 . S
C1634 C1638 1.531 . S
C1635 C1634 1.369 . S
C1635 C1636 1.410 . S
C1635 C1643 1.503 . S
C1636 C1635 1.410 . S
C1636 C1637 1.392 . S
C1636 C1639 1.511 . S
C1637 C1633 1.376 . S
C1637 C1636 1.392 . S
C1637 H1649 0.929 . S
C1638 C1634 1.531 . S
C1638 H1650 0.960 . S
C1638 H1651 0.962 . S
C1638 H1652 0.960 . S
C1639 C1636 1.511 . S
C1639 H1653 0.961 . S
C1639 H1654 0.961 . S
C1639 H1655 0.961 . S
C1640 C1641 1.370 . S
C1640 C1642 1.363 . S
C1640 H1656 0.931 . S
C1641 C1640 1.370 . S
C1641 C1645 1.408 . S
C1642 C1640 1.363 . S
C1642 C1643 1.370 . S
C1642 C1646 1.524 . S
C1643 C1635 1.503 . S
C1643 C1642 1.370 . S
C1643 C1644 1.403 . S
C1644 C1643 1.403 . S
C1644 C1645 1.404 . S
C1644 C1647 1.539 . S
C1645 C1641 1.408 . S
C1645 C1644 1.404 . S
C1645 H1657 0.930 . S
C1646 C1642 1.524 . S
C1646 H1658 0.956 . S
C1646 H1659 0.961 . S
C1646 H1660 0.961 . S
C1647 C1644 1.539 . S
C1647 H1661 0.958 . S
C1647 H1662 0.961 . S
C1647 H1663 0.960 . S
H1648 C1632 0.931 . S
H1649 C1637 0.929 . S
H1650 C1638 0.960 . S
H1651 C1638 0.962 . S
H1652 C1638 0.960 . S
H1653 C1639 0.961 . S
H1654 C1639 0.961 . S
H1655 C1639 0.961 . S
H1656 C1640 0.931 . S
H1657 C1645 0.930 . S
H1658 C1646 0.956 . S
H1659 C1646 0.961 . S
H1660 C1646 0.961 . S
H1661 C1647 0.958 . S
H1662 C1647 0.961 . S
H1663 C1647 0.960 . S
C1664 C1665 1.391 . S
C1664 C1666 1.394 . S
C1664 H1680 0.931 . S
C1665 C1664 1.391 . S
C1665 C1669 1.376 . S
C1666 C1664 1.394 . S
C1666 C1667 1.369 . S
C1666 C1670 1.531 . S
C1667 C1666 1.369 . S
C1667 C1668 1.410 . S
C1667 C1675 1.503 . S
C1668 C1667 1.410 . S
C1668 C1669 1.392 . S
C1668 C1671 1.511 . S
C1669 C1665 1.376 . S
C1669 C1668 1.392 . S
C1669 H1681 0.929 . S
C1670 C1666 1.531 . S
C1670 H1682 0.960 . S
C1670 H1683 0.962 . S
C1670 H1684 0.960 . S
C1671 C1668 1.511 . S
C1671 H1685 0.961 . S
C1671 H1686 0.961 . S
C1671 H1687 0.961 . S
C1672 C1673 1.370 . S
C1672 C1674 1.363 . S
C1672 H1688 0.931 . S
C1673 C1672 1.370 . S
C1673 C1677 1.408 . S
C1674 C1672 1.363 . S
C1674 C1675 1.370 . S
C1674 C1678 1.524 . S
C1675 C1667 1.503 . S
C1675 C1674 1.370 . S
C1675 C1676 1.403 . S
C1676 C1675 1.403 . S
C1676 C1677 1.404 . S
C1676 C1679 1.539 . S
C1677 C1673 1.408 . S
C1677 C1676 1.404 . S
C1677 H1689 0.930 . S
C1678 C1674 1.524 . S
C1678 H1690 0.956 . S
C1678 H1691 0.961 . S
C1678 H1692 0.961 . S
C1679 C1676 1.539 . S
C1679 H1693 0.958 . S
C1679 H1694 0.961 . S
C1679 H1695 0.960 . S
H1680 C1664 0.931 . S
H1681 C1669 0.929 . S
H1682 C1670 0.960 . S
H1683 C1670 0.962 . S
H1684 C1670 0.960 . S
H1685 C1671 0.961 . S
H1686 C1671 0.961 . S
H1687 C1671 0.961 . S
H1688 C1672 0.931 . S
H1689 C1677 0.930 . S
H1690 C1678 0.956 . S
H1691 C1678 0.961 . S
H1692 C1678 0.961 . S
H1693 C1679 0.958 . S
H1694 C1679 0.961 . S
H1695 C1679 0.960 . S
C1696 C1697 1.391 . S
C1696 C1698 1.394 . S
C1696 H1712 0.931 . S
C1697 C1696 1.391 . S
C1697 C1701 1.376 . S
C1698 C1696 1.394 . S
C1698 C1699 1.369 . S
C1698 C1702 1.531 . S
C1699 C1698 1.369 . S
C1699 C1700 1.410 . S
C1699 C1707 1.503 . S
C1700 C1699 1.410 . S
C1700 C1701 1.392 . S
C1700 C1703 1.511 . S
C1701 C1697 1.376 . S
C1701 C1700 1.392 . S
C1701 H1713 0.929 . S
C1702 C1698 1.531 . S
C1702 H1714 0.960 . S
C1702 H1715 0.962 . S
C1702 H1716 0.960 . S
C1703 C1700 1.511 . S
C1703 H1717 0.961 . S
C1703 H1718 0.961 . S
C1703 H1719 0.961 . S
C1704 C1705 1.370 . S
C1704 C1706 1.363 . S
C1704 H1720 0.931 . S
C1705 C1704 1.370 . S
C1705 C1709 1.408 . S
C1706 C1704 1.363 . S
C1706 C1707 1.370 . S
C1706 C1710 1.524 . S
C1707 C1699 1.503 . S
C1707 C1706 1.370 . S
C1707 C1708 1.403 . S
C1708 C1707 1.403 . S
C1708 C1709 1.404 . S
C1708 C1711 1.539 . S
C1709 C1705 1.408 . S
C1709 C1708 1.404 . S
C1709 H1721 0.930 . S
C1710 C1706 1.524 . S
C1710 H1722 0.956 . S
C1710 H1723 0.961 . S
C1710 H1724 0.961 . S
C1711 C1708 1.539 . S
C1711 H1725 0.958 . S
C1711 H1726 0.961 . S
C1711 H1727 0.960 . S
H1712 C1696 0.931 . S
H1713 C1701 0.929 . S
H1714 C1702 0.960 . S
H1715 C1702 0.962 . S
H1716 C1702 0.960 . S
H1717 C1703 0.961 . S
H1718 C1703 0.961 . S
H1719 C1703 0.961 . S
H1720 C1704 0.931 . S
H1721 C1709 0.930 . S
H1722 C1710 0.956 . S
H1723 C1710 0.961 . S
H1724 C1710 0.961 . S
H1725 C1711 0.958 . S
H1726 C1711 0.961 . S
H1727 C1711 0.960 . S
C1728 C1729 1.391 . S
C1728 C1730 1.394 . S
C1728 H1744 0.931 . S
C1729 C1728 1.391 . S
C1729 C1733 1.376 . S
C1730 C1728 1.394 . S
C1730 C1731 1.369 . S
C1730 C1734 1.531 . S
C1731 C1730 1.369 . S
C1731 C1732 1.410 . S
C1731 C1739 1.503 . S
C1732 C1731 1.410 . S
C1732 C1733 1.392 . S
C1732 C1735 1.511 . S
C1733 C1729 1.376 . S
C1733 C1732 1.392 . S
C1733 H1745 0.929 . S
C1734 C1730 1.531 . S
C1734 H1746 0.960 . S
C1734 H1747 0.962 . S
C1734 H1748 0.960 . S
C1735 C1732 1.511 . S
C1735 H1749 0.961 . S
C1735 H1750 0.961 . S
C1735 H1751 0.961 . S
C1736 C1737 1.370 . S
C1736 C1738 1.363 . S
C1736 H1752 0.931 . S
C1737 C1736 1.370 . S
C1737 C1741 1.408 . S
C1738 C1736 1.363 . S
C1738 C1739 1.370 . S
C1738 C1742 1.524 . S
C1739 C1731 1.503 . S
C1739 C1738 1.370 . S
C1739 C1740 1.403 . S
C1740 C1739 1.403 . S
C1740 C1741 1.404 . S
C1740 C1743 1.539 . S
C1741 C1737 1.408 . S
C1741 C1740 1.404 . S
C1741 H1753 0.930 . S
C1742 C1738 1.524 . S
C1742 H1754 0.956 . S
C1742 H1755 0.961 . S
C1742 H1756 0.961 . S
C1743 C1740 1.539 . S
C1743 H1757 0.958 . S
C1743 H1758 0.961 . S
C1743 H1759 0.960 . S
H1744 C1728 0.931 . S
H1745 C1733 0.929 . S
H1746 C1734 0.960 . S
H1747 C1734 0.962 . S
H1748 C1734 0.960 . S
H1749 C1735 0.961 . S
H1750 C1735 0.961 . S
H1751 C1735 0.961 . S
H1752 C1736 0.931 . S
H1753 C1741 0.930 . S
H1754 C1742 0.956 . S
H1755 C1742 0.961 . S
H1756 C1742 0.961 . S
H1757 C1743 0.958 . S
H1758 C1743 0.961 . S
H1759 C1743 0.960 . S
C1760 C1761 1.391 . S
C1760 C1762 1.394 . S
C1760 H1776 0.931 . S
C1761 C1760 1.391 . S
C1761 C1765 1.376 . S
C1762 C1760 1.394 . S
C1762 C1763 1.369 . S
C1762 C1766 1.531 . S
C1763 C1762 1.369 . S
C1763 C1764 1.410 . S
C1763 C1771 1.503 . S
C1764 C1763 1.410 . S
C1764 C1765 1.392 . S
C1764 C1767 1.511 . S
C1765 C1761 1.376 . S
C1765 C1764 1.392 . S
C1765 H1777 0.929 . S
C1766 C1762 1.531 . S
C1766 H1778 0.960 . S
C1766 H1779 0.962 . S
C1766 H1780 0.960 . S
C1767 C1764 1.511 . S
C1767 H1781 0.961 . S
C1767 H1782 0.961 . S
C1767 H1783 0.961 . S
C1768 C1769 1.370 . S
C1768 C1770 1.363 . S
C1768 H1784 0.931 . S
C1769 C1768 1.370 . S
C1769 C1773 1.408 . S
C1770 C1768 1.363 . S
C1770 C1771 1.370 . S
C1770 C1774 1.524 . S
C1771 C1763 1.503 . S
C1771 C1770 1.370 . S
C1771 C1772 1.403 . S
C1772 C1771 1.403 . S
C1772 C1773 1.404 . S
C1772 C1775 1.539 . S
C1773 C1769 1.408 . S
C1773 C1772 1.404 . S
C1773 H1785 0.930 . S
C1774 C1770 1.524 . S
C1774 H1786 0.956 . S
C1774 H1787 0.961 . S
C1774 H1788 0.961 . S
C1775 C1772 1.539 . S
C1775 H1789 0.958 . S
C1775 H1790 0.961 . S
C1775 H1791 0.960 . S
H1776 C1760 0.931 . S
H1777 C1765 0.929 . S
H1778 C1766 0.960 . S
H1779 C1766 0.962 . S
H1780 C1766 0.960 . S
H1781 C1767 0.961 . S
H1782 C1767 0.961 . S
H1783 C1767 0.961 . S
H1784 C1768 0.931 . S
H1785 C1773 0.930 . S
H1786 C1774 0.956 . S
H1787 C1774 0.961 . S
H1788 C1774 0.961 . S
H1789 C1775 0.958 . S
H1790 C1775 0.961 . S
H1791 C1775 0.960 . S
C1792 C1793 1.391 . S
C1792 C1794 1.394 . S
C1792 H1808 0.931 . S
C1793 C1792 1.391 . S
C1793 C1797 1.376 . S
C1794 C1792 1.394 . S
C1794 C1795 1.369 . S
C1794 C1798 1.531 . S
C1795 C1794 1.369 . S
C1795 C1796 1.410 . S
C1795 C1803 1.503 . S
C1796 C1795 1.410 . S
C1796 C1797 1.392 . S
C1796 C1799 1.511 . S
C1797 C1793 1.376 . S
C1797 C1796 1.392 . S
C1797 H1809 0.929 . S
C1798 C1794 1.531 . S
C1798 H1810 0.960 . S
C1798 H1811 0.962 . S
C1798 H1812 0.960 . S
C1799 C1796 1.511 . S
C1799 H1813 0.961 . S
C1799 H1814 0.961 . S
C1799 H1815 0.961 . S
C1800 C1801 1.370 . S
C1800 C1802 1.363 . S
C1800 H1816 0.931 . S
C1801 C1800 1.370 . S
C1801 C1805 1.408 . S
C1802 C1800 1.363 . S
C1802 C1803 1.370 . S
C1802 C1806 1.524 . S
C1803 C1795 1.503 . S
C1803 C1802 1.370 . S
C1803 C1804 1.403 . S
C1804 C1803 1.403 . S
C1804 C1805 1.404 . S
C1804 C1807 1.539 . S
C1805 C1801 1.408 . S
C1805 C1804 1.404 . S
C1805 H1817 0.930 . S
C1806 C1802 1.524 . S
C1806 H1818 0.956 . S
C1806 H1819 0.961 . S
C1806 H1820 0.961 . S
C1807 C1804 1.539 . S
C1807 H1821 0.958 . S
C1807 H1822 0.961 . S
C1807 H1823 0.960 . S
H1808 C1792 0.931 . S
H1809 C1797 0.929 . S
H1810 C1798 0.960 . S
H1811 C1798 0.962 . S
H1812 C1798 0.960 . S
H1813 C1799 0.961 . S
H1814 C1799 0.961 . S
H1815 C1799 0.961 . S
H1816 C1800 0.931 . S
H1817 C1805 0.930 . S
H1818 C1806 0.956 . S
H1819 C1806 0.961 . S
H1820 C1806 0.961 . S
H1821 C1807 0.958 . S
H1822 C1807 0.961 . S
H1823 C1807 0.960 . S
C1824 C1825 1.391 . S
C1824 C1826 1.394 . S
C1824 H1840 0.931 . S
C1825 C1824 1.391 . S
C1825 C1829 1.376 . S
C1826 C1824 1.394 . S
C1826 C1827 1.369 . S
C1826 C1830 1.531 . S
C1827 C1826 1.369 . S
C1827 C1828 1.410 . S
C1827 C1835 1.503 . S
C1828 C1827 1.410 . S
C1828 C1829 1.392 . S
C1828 C1831 1.511 . S
C1829 C1825 1.376 . S
C1829 C1828 1.392 . S
C1829 H1841 0.929 . S
C1830 C1826 1.531 . S
C1830 H1842 0.960 . S
C1830 H1843 0.962 . S
C1830 H1844 0.960 . S
C1831 C1828 1.511 . S
C1831 H1845 0.961 . S
C1831 H1846 0.961 . S
C1831 H1847 0.961 . S
C1832 C1833 1.370 . S
C1832 C1834 1.363 . S
C1832 H1848 0.931 . S
C1833 C1832 1.370 . S
C1833 C1837 1.408 . S
C1834 C1832 1.363 . S
C1834 C1835 1.370 . S
C1834 C1838 1.524 . S
C1835 C1827 1.503 . S
C1835 C1834 1.370 . S
C1835 C1836 1.403 . S
C1836 C1835 1.403 . S
C1836 C1837 1.404 . S
C1836 C1839 1.539 . S
C1837 C1833 1.408 . S
C1837 C1836 1.404 . S
C1837 H1849 0.930 . S
C1838 C1834 1.524 . S
C1838 H1850 0.956 . S
C1838 H1851 0.961 . S
C1838 H1852 0.961 . S
C1839 C1836 1.539 . S
C1839 H1853 0.958 . S
C1839 H1854 0.961 . S
C1839 H1855 0.960 . S
H1840 C1824 0.931 . S
H1841 C1829 0.929 . S
H1842 C1830 0.960 . S
H1843 C1830 0.962 . S
H1844 C1830 0.960 . S
H1845 C1831 0.961 . S
H1846 C1831 0.961 . S
H1847 C1831 0.961 . S
H1848 C1832 0.931 . S
H1849 C1837 0.930 . S
H1850 C1838 0.956 . S
H1851 C1838 0.961 . S
H1852 C1838 0.961 . S
H1853 C1839 0.958 . S
H1854 C1839 0.961 . S
H1855 C1839 0.960 . S
C1856 C1857 1.391 . S
C1856 C1858 1.394 . S
C1856 H1872 0.931 . S
C1857 C1856 1.391 . S
C1857 C1861 1.376 . S
C1858 C1856 1.394 . S
C1858 C1859 1.369 . S
C1858 C1862 1.531 . S
C1859 C1858 1.369 . S
C1859 C1860 1.410 . S
C1859 C1867 1.503 . S
C1860 C1859 1.410 . S
C1860 C1861 1.392 . S
C1860 C1863 1.511 . S
C1861 C1857 1.376 . S
C1861 C1860 1.392 . S
C1861 H1873 0.929 . S
C1862 C1858 1.531 . S
C1862 H1874 0.960 . S
C1862 H1875 0.962 . S
C1862 H1876 0.960 . S
C1863 C1860 1.511 . S
C1863 H1877 0.961 . S
C1863 H1878 0.961 . S
C1863 H1879 0.961 . S
C1864 C1865 1.370 . S
C1864 C1866 1.363 . S
C1864 H1880 0.931 . S
C1865 C1864 1.370 . S
C1865 C1869 1.408 . S
C1866 C1864 1.363 . S
C1866 C1867 1.370 . S
C1866 C1870 1.524 . S
C1867 C1859 1.503 . S
C1867 C1866 1.370 . S
C1867 C1868 1.403 . S
C1868 C1867 1.403 . S
C1868 C1869 1.404 . S
C1868 C1871 1.539 . S
C1869 C1865 1.408 . S
C1869 C1868 1.404 . S
C1869 H1881 0.930 . S
C1870 C1866 1.524 . S
C1870 H1882 0.956 . S
C1870 H1883 0.961 . S
C1870 H1884 0.961 . S
C1871 C1868 1.539 . S
C1871 H1885 0.958 . S
C1871 H1886 0.961 . S
C1871 H1887 0.960 . S
H1872 C1856 0.931 . S
H1873 C1861 0.929 . S
H1874 C1862 0.960 . S
H1875 C1862 0.962 . S
H1876 C1862 0.960 . S
H1877 C1863 0.961 . S
H1878 C1863 0.961 . S
H1879 C1863 0.961 . S
H1880 C1864 0.931 . S
H1881 C1869 0.930 . S
H1882 C1870 0.956 . S
H1883 C1870 0.961 . S
H1884 C1870 0.961 . S
H1885 C1871 0.958 . S
H1886 C1871 0.961 . S
H1887 C1871 0.960 . S
C1888 C1889 1.391 . S
C1888 C1890 1.394 . S
C1888 H1904 0.931 . S
C1889 C1888 1.391 . S
C1889 C1893 1.376 . S
C1890 C1888 1.394 . S
C1890 C1891 1.369 . S
C1890 C1894 1.531 . S
C1891 C1890 1.369 . S
C1891 C1892 1.410 . S
C1891 C1899 1.503 . S
C1892 C1891 1.410 . S
C1892 C1893 1.392 . S
C1892 C1895 1.511 . S
C1893 C1889 1.376 . S
C1893 C1892 1.392 . S
C1893 H1905 0.929 . S
C1894 C1890 1.531 . S
C1894 H1906 0.960 . S
C1894 H1907 0.962 . S
C1894 H1908 0.960 . S
C1895 C1892 1.511 . S
C1895 H1909 0.961 . S
C1895 H1910 0.961 . S
C1895 H1911 0.961 . S
C1896 C1897 1.370 . S
C1896 C1898 1.363 . S
C1896 H1912 0.931 . S
C1897 C1896 1.370 . S
C1897 C1901 1.408 . S
C1898 C1896 1.363 . S
C1898 C1899 1.370 . S
C1898 C1902 1.524 . S
C1899 C1891 1.503 . S
C1899 C1898 1.370 . S
C1899 C1900 1.403 . S
C1900 C1899 1.403 . S
C1900 C1901 1.404 . S
C1900 C1903 1.539 . S
C1901 C1897 1.408 . S
C1901 C1900 1.404 . S
C1901 H1913 0.930 . S
C1902 C1898 1.524 . S
C1902 H1914 0.956 . S
C1902 H1915 0.961 . S
C1902 H1916 0.961 . S
C1903 C1900 1.539 . S
C1903 H1917 0.958 . S
C1903 H1918 0.961 . S
C1903 H1919 0.960 . S
H1904 C1888 0.931 . S
H1905 C1893 0.929 . S
H1906 C1894 0.960 . S
H1907 C1894 0.962 . S
H1908 C1894 0.960 . S
H1909 C1895 0.961 . S
H1910 C1895 0.961 . S
H1911 C1895 0.961 . S
H1912 C1896 0.931 . S
H1913 C1901 0.930 . S
H1914 C1902 0.956 . S
H1915 C1902 0.961 . S
H1916 C1902 0.961 . S
H1917 C1903 0.958 . S
H1918 C1903 0.961 . S
H1919 C1903 0.960 . S
C1920 C1921 1.391 . S
C1920 C1922 1.394 . S
C1920 H1936 0.931 . S
C1921 C1920 1.391 . S
C1921 C1925 1.376 . S
C1922 C1920 1.394 . S
C1922 C1923 1.369 . S
C1922 C1926 1.531 . S
C1923 C1922 1.369 . S
C1923 C1924 1.410 . S
C1923 C1931 1.503 . S
C1924 C1923 1.410 . S
C1924 C1925 1.392 . S
C1924 C1927 1.511 . S
C1925 C1921 1.376 . S
C1925 C1924 1.392 . S
C1925 H1937 0.929 . S
C1926 C1922 1.531 . S
C1926 H1938 0.960 . S
C1926 H1939 0.962 . S
C1926 H1940 0.960 . S
C1927 C1924 1.511 . S
C1927 H1941 0.961 . S
C1927 H1942 0.961 . S
C1927 H1943 0.961 . S
C1928 C1929 1.370 . S
C1928 C1930 1.363 . S
C1928 H1944 0.931 . S
C1929 C1928 1.370 . S
C1929 C1933 1.408 . S
C1930 C1928 1.363 . S
C1930 C1931 1.370 . S
C1930 C1934 1.524 . S
C1931 C1923 1.503 . S
C1931 C1930 1.370 . S
C1931 C1932 1.403 . S
C1932 C1931 1.403 . S
C1932 C1933 1.404 . S
C1932 C1935 1.539 . S
C1933 C1929 1.408 . S
C1933 C1932 1.404 . S
C1933 H1945 0.930 . S
C1934 C1930 1.524 . S
C1934 H1946 0.956 . S
C1934 H1947 0.961 . S
C1934 H1948 0.961 . S
C1935 C1932 1.539 . S
C1935 H1949 0.958 . S
C1935 H1950 0.961 . S
C1935 H1951 0.960 . S
H1936 C1920 0.931 . S
H1937 C1925 0.929 . S
H1938 C1926 0.960 . S
H1939 C1926 0.962 . S
H1940 C1926 0.960 . S
H1941 C1927 0.961 . S
H1942 C1927 0.961 . S
H1943 C1927 0.961 . S
H1944 C1928 0.931 . S
H1945 C1933 0.930 . S
H1946 C1934 0.956 . S
H1947 C1934 0.961 . S
H1948 C1934 0.961 . S
H1949 C1935 0.958 . S
H1950 C1935 0.961 . S
H1951 C1935 0.960 . S
C1952 C1953 1.391 . S
C1952 C1954 1.394 . S
C1952 H1968 0.931 . S
C1953 C1952 1.391 . S
C1953 C1957 1.376 . S
C1954 C1952 1.394 . S
C1954 C1955 1.369 . S
C1954 C1958 1.531 . S
C1955 C1954 1.369 . S
C1955 C1956 1.410 . S
C1955 C1963 1.503 . S
C1956 C1955 1.410 . S
C1956 C1957 1.392 . S
C1956 C1959 1.511 . S
C1957 C1953 1.376 . S
C1957 C1956 1.392 . S
C1957 H1969 0.929 . S
C1958 C1954 1.531 . S
C1958 H1970 0.960 . S
C1958 H1971 0.962 . S
C1958 H1972 0.960 . S
C1959 C1956 1.511 . S
C1959 H1973 0.961 . S
C1959 H1974 0.961 . S
C1959 H1975 0.961 . S
C1960 C1961 1.370 . S
C1960 C1962 1.363 . S
C1960 H1976 0.931 . S
C1961 C1960 1.370 . S
C1961 C1965 1.408 . S
C1962 C1960 1.363 . S
C1962 C1963 1.370 . S
C1962 C1966 1.524 . S
C1963 C1955 1.503 . S
C1963 C1962 1.370 . S
C1963 C1964 1.403 . S
C1964 C1963 1.403 . S
C1964 C1965 1.404 . S
C1964 C1967 1.539 . S
C1965 C1961 1.408 . S
C1965 C1964 1.404 . S
C1965 H1977 0.930 . S
C1966 C1962 1.524 . S
C1966 H1978 0.956 . S
C1966 H1979 0.961 . S
C1966 H1980 0.961 . S
C1967 C1964 1.539 . S
C1967 H1981 0.958 . S
C1967 H1982 0.961 . S
C1967 H1983 0.960 . S
H1968 C1952 0.931 . S
H1969 C1957 0.929 . S
H1970 C1958 0.960 . S
H1971 C1958 0.962 . S
H1972 C1958 0.960 . S
H1973 C1959 0.961 . S
H1974 C1959 0.961 . S
H1975 C1959 0.961 . S
H1976 C1960 0.931 . S
H1977 C1965 0.930 . S
H1978 C1966 0.956 . S
H1979 C1966 0.961 . S
H1980 C1966 0.961 . S
H1981 C1967 0.958 . S
H1982 C1967 0.961 . S
H1983 C1967 0.960 . S
C1984 C1985 1.391 . S
C1984 C1986 1.394 . S
C1984 H2000 0.931 . S
C1985 C1984 1.391 . S
C1985 C1989 1.376 . S
C1986 C1984 1.394 . S
C1986 C1987 1.369 . S
C1986 C1990 1.531 . S
C1987 C1986 1.369 . S
C1987 C1988 1.410 . S
C1987 C1995 1.503 . S
C1988 C1987 1.410 . S
C1988 C1989 1.392 . S
C1988 C1991 1.511 . S
C1989 C1985 1.376 . S
C1989 C1988 1.392 . S
C1989 H2001 0.929 . S
C1990 C1986 1.531 . S
C1990 H2002 0.960 . S
C1990 H2003 0.962 . S
C1990 H2004 0.960 . S
C1991 C1988 1.511 . S
C1991 H2005 0.961 . S
C1991 H2006 0.961 . S
C1991 H2007 0.961 . S
C1992 C1993 1.370 . S
C1992 C1994 1.363 . S
C1992 H2008 0.931 . S
C1993 C1992 1.370 . S
C1993 C1997 1.408 . S
C1994 C1992 1.363 . S
C1994 C1995 1.370 . S
C1994 C1998 1.524 . S
C1995 C1987 1.503 . S
C1995 C1994 1.370 . S
C1995 C1996 1.403 . S
C1996 C1995 1.403 . S
C1996 C1997 1.404 . S
C1996 C1999 1.539 . S
C1997 C1993 1.408 . S
C1997 C1996 1.404 . S
C1997 H2009 0.930 . S
C1998 C1994 1.524 . S
C1998 H2010 0.956 . S
C1998 H2011 0.961 . S
C1998 H2012 0.961 . S
C1999 C1996 1.539 . S
C1999 H2013 0.958 . S
C1999 H2014 0.961 . S
C1999 H2015 0.960 . S
H2000 C1984 0.931 . S
H2001 C1989 0.929 . S
H2002 C1990 0.960 . S
H2003 C1990 0.962 . S
H2004 C1990 0.960 . S
H2005 C1991 0.961 . S
H2006 C1991 0.961 . S
H2007 C1991 0.961 . S
H2008 C1992 0.931 . S
H2009 C1997 0.930 . S
H2010 C1998 0.956 . S
H2011 C1998 0.961 . S
H2012 C1998 0.961 . S
H2013 C1999 0.958 . S
H2014 C1999 0.961 . S
H2015 C1999 0.960 . S
C2016 C2017 1.391 . S
C2016 C2018 1.394 . S
C2016 H2032 0.931 . S
C2017 C2016 1.391 . S
C2017 C2021 1.376 . S
C2018 C2016 1.394 . S
C2018 C2019 1.369 . S
C2018 C2022 1.531 . S
C2019 C2018 1.369 . S
C2019 C2020 1.410 . S
C2019 C2027 1.503 . S
C2020 C2019 1.410 . S
C2020 C2021 1.392 . S
C2020 C2023 1.511 . S
C2021 C2017 1.376 . S
C2021 C2020 1.392 . S
C2021 H2033 0.929 . S
C2022 C2018 1.531 . S
C2022 H2034 0.960 . S
C2022 H2035 0.962 . S
C2022 H2036 0.960 . S
C2023 C2020 1.511 . S
C2023 H2037 0.961 . S
C2023 H2038 0.961 . S
C2023 H2039 0.961 . S
C2024 C2025 1.370 . S
C2024 C2026 1.363 . S
C2024 H2040 0.931 . S
C2025 C2024 1.370 . S
C2025 C2029 1.408 . S
C2026 C2024 1.363 . S
C2026 C2027 1.370 . S
C2026 C2030 1.524 . S
C2027 C2019 1.503 . S
C2027 C2026 1.370 . S
C2027 C2028 1.403 . S
C2028 C2027 1.403 . S
C2028 C2029 1.404 . S
C2028 C2031 1.539 . S
C2029 C2025 1.408 . S
C2029 C2028 1.404 . S
C2029 H2041 0.930 . S
C2030 C2026 1.524 . S
C2030 H2042 0.956 . S
C2030 H2043 0.961 . S
C2030 H2044 0.961 . S
C2031 C2028 1.539 . S
C2031 H2045 0.958 . S
C2031 H2046 0.961 . S
C2031 H2047 0.960 . S
H2032 C2016 0.931 . S
H2033 C2021 0.929 . S
H2034 C2022 0.960 . S
H2035 C2022 0.962 . S
H2036 C2022 0.960 . S
H2037 C2023 0.961 . S
H2038 C2023 0.961 . S
H2039 C2023 0.961 . S
H2040 C2024 0.931 . S
H2041 C2029 0.930 . S
H2042 C2030 0.956 . S
H2043 C2030 0.961 . S
H2044 C2030 0.961 . S
H2045 C2031 0.958 . S
H2046 C2031 0.961 . S
H2047 C2031 0.960 . S
C2048 C2049 1.391 . S
C2048 C2050 1.394 . S
C2048 H2064 0.931 . S
C2049 C2048 1.391 . S
C2049 C2053 1.376 . S
C2050 C2048 1.394 . S
C2050 C2051 1.369 . S
C2050 C2054 1.531 . S
C2051 C2050 1.369 . S
C2051 C2052 1.410 . S
C2051 C2059 1.503 . S
C2052 C2051 1.410 . S
C2052 C2053 1.392 . S
C2052 C2055 1.511 . S
C2053 C2049 1.376 . S
C2053 C2052 1.392 . S
C2053 H2065 0.929 . S
C2054 C2050 1.531 . S
C2054 H2066 0.960 . S
C2054 H2067 0.962 . S
C2054 H2068 0.960 . S
C2055 C2052 1.511 . S
C2055 H2069 0.961 . S
C2055 H2070 0.961 . S
C2055 H2071 0.961 . S
C2056 C2057 1.370 . S
C2056 C2058 1.363 . S
C2056 H2072 0.931 . S
C2057 C2056 1.370 . S
C2057 C2061 1.408 . S
C2058 C2056 1.363 . S
C2058 C2059 1.370 . S
C2058 C2062 1.524 . S
C2059 C2051 1.503 . S
C2059 C2058 1.370 . S
C2059 C2060 1.403 . S
C2060 C2059 1.403 . S
C2060 C2061 1.404 . S
C2060 C2063 1.539 . S
C2061 C2057 1.408 . S
C2061 C2060 1.404 . S
C2061 H2073 0.930 . S
C2062 C2058 1.524 . S
C2062 H2074 0.956 . S
C2062 H2075 0.961 . S
C2062 H2076 0.961 . S
C2063 C2060 1.539 . S
C2063 H2077 0.958 . S
C2063 H2078 0.961 . S
C2063 H2079 0.960 . S
H2064 C2048 0.931 . S
H2065 C2053 0.929 . S
H2066 C2054 0.960 . S
H2067 C2054 0.962 . S
H2068 C2054 0.960 . S
H2069 C2055 0.961 . S
H2070 C2055 0.961 . S
H2071 C2055 0.961 . S
H2072 C2056 0.931 . S
H2073 C2061 0.930 . S
H2074 C2062 0.956 . S
H2075 C2062 0.961 . S
H2076 C2062 0.961 . S
H2077 C2063 0.958 . S
H2078 C2063 0.961 . S
H2079 C2063 0.960 . S
C2080 C2081 1.391 . S
C2080 C2082 1.394 . S
C2080 H2096 0.931 . S
C2081 C2080 1.391 . S
C2081 C2085 1.376 . S
C2082 C2080 1.394 . S
C2082 C2083 1.369 . S
C2082 C2086 1.531 . S
C2083 C2082 1.369 . S
C2083 C2084 1.410 . S
C2083 C2091 1.503 . S
C2084 C2083 1.410 . S
C2084 C2085 1.392 . S
C2084 C2087 1.511 . S
C2085 C2081 1.376 . S
C2085 C2084 1.392 . S
C2085 H2097 0.929 . S
C2086 C2082 1.531 . S
C2086 H2098 0.960 . S
C2086 H2099 0.962 . S
C2086 H2100 0.960 . S
C2087 C2084 1.511 . S
C2087 H2101 0.961 . S
C2087 H2102 0.961 . S
C2087 H2103 0.961 . S
C2088 C2089 1.370 . S
C2088 C2090 1.363 . S
C2088 H2104 0.931 . S
C2089 C2088 1.370 . S
C2089 C2093 1.408 . S
C2090 C2088 1.363 . S
C2090 C2091 1.370 . S
C2090 C2094 1.524 . S
C2091 C2083 1.503 . S
C2091 C2090 1.370 . S
C2091 C2092 1.403 . S
C2092 C2091 1.403 . S
C2092 C2093 1.404 . S
C2092 C2095 1.539 . S
C2093 C2089 1.408 . S
C2093 C2092 1.404 . S
C2093 H2105 0.930 . S
C2094 C2090 1.524 . S
C2094 H2106 0.956 . S
C2094 H2107 0.961 . S
C2094 H2108 0.961 . S
C2095 C2092 1.539 . S
C2095 H2109 0.958 . S
C2095 H2110 0.961 . S
C2095 H2111 0.960 . S
H2096 C2080 0.931 . S
H2097 C2085 0.929 . S
H2098 C2086 0.960 . S
H2099 C2086 0.962 . S
H2100 C2086 0.960 . S
H2101 C2087 0.961 . S
H2102 C2087 0.961 . S
H2103 C2087 0.961 . S
H2104 C2088 0.931 . S
H2105 C2093 0.930 . S
H2106 C2094 0.956 . S
H2107 C2094 0.961 . S
H2108 C2094 0.961 . S
H2109 C2095 0.958 . S
H2110 C2095 0.961 . S
H2111 C2095 0.960 . S
C2112 C2113 1.391 . S
C2112 C2114 1.394 . S
C2112 H2128 0.931 . S
C2113 C2112 1.391 . S
C2113 C2117 1.376 . S
C2114 C2112 1.394 . S
C2114 C2115 1.369 . S
C2114 C2118 1.531 . S
C2115 C2114 1.369 . S
C2115 C2116 1.410 . S
C2115 C2123 1.503 . S
C2116 C2115 1.410 . S
C2116 C2117 1.392 . S
C2116 C2119 1.511 . S
C2117 C2113 1.376 . S
C2117 C2116 1.392 . S
C2117 H2129 0.929 . S
C2118 C2114 1.531 . S
C2118 H2130 0.960 . S
C2118 H2131 0.962 . S
C2118 H2132 0.960 . S
C2119 C2116 1.511 . S
C2119 H2133 0.961 . S
C2119 H2134 0.961 . S
C2119 H2135 0.961 . S
C2120 C2121 1.370 . S
C2120 C2122 1.363 . S
C2120 H2136 0.931 . S
C2121 C2120 1.370 . S
C2121 C2125 1.408 . S
C2122 C2120 1.363 . S
C2122 C2123 1.370 . S
C2122 C2126 1.524 . S
C2123 C2115 1.503 . S
C2123 C2122 1.370 . S
C2123 C2124 1.403 . S
C2124 C2123 1.403 . S
C2124 C2125 1.404 . S
C2124 C2127 1.539 . S
C2125 C2121 1.408 . S
C2125 C2124 1.404 . S
C2125 H2137 0.930 . S
C2126 C2122 1.524 . S
C2126 H2138 0.956 . S
C2126 H2139 0.961 . S
C2126 H2140 0.961 . S
C2127 C2124 1.539 . S
C2127 H2141 0.958 . S
C2127 H2142 0.961 . S
C2127 H2143 0.960 . S
H2128 C2112 0.931 . S
H2129 C2117 0.929 . S
H2130 C2118 0.960 . S
H2131 C2118 0.962 . S
H2132 C2118 0.960 . S
H2133 C2119 0.961 . S
H2134 C2119 0.961 . S
H2135 C2119 0.961 . S
H2136 C2120 0.931 . S
H2137 C2125 0.930 . S
H2138 C2126 0.956 . S
H2139 C2126 0.961 . S
H2140 C2126 0.961 . S
H2141 C2127 0.958 . S
H2142 C2127 0.961 . S
H2143 C2127 0.960 . S
C2144 C2145 1.391 . S
C2144 C2146 1.394 . S
C2144 H2160 0.931 . S
C2145 C2144 1.391 . S
C2145 C2149 1.376 . S
C2146 C2144 1.394 . S
C2146 C2147 1.369 . S
C2146 C2150 1.531 . S
C2147 C2146 1.369 . S
C2147 C2148 1.410 . S
C2147 C2155 1.503 . S
C2148 C2147 1.410 . S
C2148 C2149 1.392 . S
C2148 C2151 1.511 . S
C2149 C2145 1.376 . S
C2149 C2148 1.392 . S
C2149 H2161 0.929 . S
C2150 C2146 1.531 . S
C2150 H2162 0.960 . S
C2150 H2163 0.962 . S
C2150 H2164 0.960 . S
C2151 C2148 1.511 . S
C2151 H2165 0.961 . S
C2151 H2166 0.961 . S
C2151 H2167 0.961 . S
C2152 C2153 1.370 . S
C2152 C2154 1.363 . S
C2152 H2168 0.931 . S
C2153 C2152 1.370 . S
C2153 C2157 1.408 . S
C2154 C2152 1.363 . S
C2154 C2155 1.370 . S
C2154 C2158 1.524 . S
C2155 C2147 1.503 . S
C2155 C2154 1.370 . S
C2155 C2156 1.403 . S
C2156 C2155 1.403 . S
C2156 C2157 1.404 . S
C2156 C2159 1.539 . S
C2157 C2153 1.408 . S
C2157 C2156 1.404 . S
C2157 H2169 0.930 . S
C2158 C2154 1.524 . S
C2158 H2170 0.956 . S
C2158 H2171 0.961 . S
C2158 H2172 0.961 . S
C2159 C2156 1.539 . S
C2159 H2173 0.958 . S
C2159 H2174 0.961 . S
C2159 H2175 0.960 . S
H2160 C2144 0.931 . S
H2161 C2149 0.929 . S
H2162 C2150 0.960 . S
H2163 C2150 0.962 . S
H2164 C2150 0.960 . S
H2165 C2151 0.961 . S
H2166 C2151 0.961 . S
H2167 C2151 0.961 . S
H2168 C2152 0.931 . S
H2169 C2157 0.930 . S
H2170 C2158 0.956 . S
H2171 C2158 0.961 . S
H2172 C2158 0.961 . S
H2173 C2159 0.958 . S
H2174 C2159 0.961 . S
H2175 C2159 0.960 . S
C2176 C2177 1.391 . S
C2176 C2178 1.394 . S
C2176 H2192 0.931 . S
C2177 C2176 1.391 . S
C2177 C2181 1.376 . S
C2178 C2176 1.394 . S
C2178 C2179 1.369 . S
C2178 C2182 1.531 . S
C2179 C2178 1.369 . S
C2179 C2180 1.410 . S
C2179 C2187 1.503 . S
C2180 C2179 1.410 . S
C2180 C2181 1.392 . S
C2180 C2183 1.511 . S
C2181 C2177 1.376 . S
C2181 C2180 1.392 . S
C2181 H2193 0.929 . S
C2182 C2178 1.531 . S
C2182 H2194 0.960 . S
C2182 H2195 0.962 . S
C2182 H2196 0.960 . S
C2183 C2180 1.511 . S
C2183 H2197 0.961 . S
C2183 H2198 0.961 . S
C2183 H2199 0.961 . S
C2184 C2185 1.370 . S
C2184 C2186 1.363 . S
C2184 H2200 0.931 . S
C2185 C2184 1.370 . S
C2185 C2189 1.408 . S
C2186 C2184 1.363 . S
C2186 C2187 1.370 . S
C2186 C2190 1.524 . S
C2187 C2179 1.503 . S
C2187 C2186 1.370 . S
C2187 C2188 1.403 . S
C2188 C2187 1.403 . S
C2188 C2189 1.404 . S
C2188 C2191 1.539 . S
C2189 C2185 1.408 . S
C2189 C2188 1.404 . S
C2189 H2201 0.930 . S
C2190 C2186 1.524 . S
C2190 H2202 0.956 . S
C2190 H2203 0.961 . S
C2190 H2204 0.961 . S
C2191 C2188 1.539 . S
C2191 H2205 0.958 . S
C2191 H2206 0.961 . S
C2191 H2207 0.960 . S
H2192 C2176 0.931 . S
H2193 C2181 0.929 . S
H2194 C2182 0.960 . S
H2195 C2182 0.962 . S
H2196 C2182 0.960 . S
H2197 C2183 0.961 . S
H2198 C2183 0.961 . S
H2199 C2183 0.961 . S
H2200 C2184 0.931 . S
H2201 C2189 0.930 . S
H2202 C2190 0.956 . S
H2203 C2190 0.961 . S
H2204 C2190 0.961 . S
H2205 C2191 0.958 . S
H2206 C2191 0.961 . S
H2207 C2191 0.960 . S
C2208 C2209 1.391 . S
C2208 C2210 1.394 . S
C2208 H2224 0.931 . S
C2209 C2208 1.391 . S
C2209 C2213 1.376 . S
C2210 C2208 1.394 . S
C2210 C2211 1.369 . S
C2210 C2214 1.531 . S
C2211 C2210 1.369 . S
C2211 C2212 1.410 . S
C2211 C2219 1.503 . S
C2212 C2211 1.410 . S
C2212 C2213 1.392 . S
C2212 C2215 1.511 . S
C2213 C2209 1.376 . S
C2213 C2212 1.392 . S
C2213 H2225 0.929 . S
C2214 C2210 1.531 . S
C2214 H2226 0.960 . S
C2214 H2227 0.962 . S
C2214 H2228 0.960 . S
C2215 C2212 1.511 . S
C2215 H2229 0.961 . S
C2215 H2230 0.961 . S
C2215 H2231 0.961 . S
C2216 C2217 1.370 . S
C2216 C2218 1.363 . S
C2216 H2232 0.931 . S
C2217 C2216 1.370 . S
C2217 C2221 1.408 . S
C2218 C2216 1.363 . S
C2218 C2219 1.370 . S
C2218 C2222 1.524 . S
C2219 C2211 1.503 . S
C2219 C2218 1.370 . S
C2219 C2220 1.403 . S
C2220 C2219 1.403 . S
C2220 C2221 1.404 . S
C2220 C2223 1.539 . S
C2221 C2217 1.408 . S
C2221 C2220 1.404 . S
C2221 H2233 0.930 . S
C2222 C2218 1.524 . S
C2222 H2234 0.956 . S
C2222 H2235 0.961 . S
C2222 H2236 0.961 . S
C2223 C2220 1.539 . S
C2223 H2237 0.958 . S
C2223 H2238 0.961 . S
C2223 H2239 0.960 . S
H2224 C2208 0.931 . S
H2225 C2213 0.929 . S
H2226 C2214 0.960 . S
H2227 C2214 0.962 . S
H2228 C2214 0.960 . S
H2229 C2215 0.961 . S
H2230 C2215 0.961 . S
H2231 C2215 0.961 . S
H2232 C2216 0.931 . S
H2233 C2221 0.930 . S
H2234 C2222 0.956 . S
H2235 C2222 0.961 . S
H2236 C2222 0.961 . S
H2237 C2223 0.958 . S
H2238 C2223 0.961 . S
H2239 C2223 0.960 . S
C2240 C2241 1.391 . S
C2240 C2242 1.394 . S
C2240 H2256 0.931 . S
C2241 C2240 1.391 . S
C2241 C2245 1.376 . S
C2242 C2240 1.394 . S
C2242 C2243 1.369 . S
C2242 C2246 1.531 . S
C2243 C2242 1.369 . S
C2243 C2244 1.410 . S
C2243 C2251 1.503 . S
C2244 C2243 1.410 . S
C2244 C2245 1.392 . S
C2244 C2247 1.511 . S
C2245 C2241 1.376 . S
C2245 C2244 1.392 . S
C2245 H2257 0.929 . S
C2246 C2242 1.531 . S
C2246 H2258 0.960 . S
C2246 H2259 0.962 . S
C2246 H2260 0.960 . S
C2247 C2244 1.511 . S
C2247 H2261 0.961 . S
C2247 H2262 0.961 . S
C2247 H2263 0.961 . S
C2248 C2249 1.370 . S
C2248 C2250 1.363 . S
C2248 H2264 0.931 . S
C2249 C2248 1.370 . S
C2249 C2253 1.408 . S
C2250 C2248 1.363 . S
C2250 C2251 1.370 . S
C2250 C2254 1.524 . S
C2251 C2243 1.503 . S
C2251 C2250 1.370 . S
C2251 C2252 1.403 . S
C2252 C2251 1.403 . S
C2252 C2253 1.404 . S
C2252 C2255 1.539 . S
C2253 C2249 1.408 . S
C2253 C2252 1.404 . S
C2253 H2265 0.930 . S
C2254 C2250 1.524 . S
C2254 H2266 0.956 . S
C2254 H2267 0.961 . S
C2254 H2268 0.961 . S
C2255 C2252 1.539 . S
C2255 H2269 0.958 . S
C2255 H2270 0.961 . S
C2255 H2271 0.960 . S
H2256 C2240 0.931 . S
H2257 C2245 0.929 . S
H2258 C2246 0.960 . S
H2259 C2246 0.962 . S
H2260 C2246 0.960 . S
H2261 C2247 0.961 . S
H2262 C2247 0.961 . S
H2263 C2247 0.961 . S
H2264 C2248 0.931 . S
H2265 C2253 0.930 . S
H2266 C2254 0.956 . S
H2267 C2254 0.961 . S
H2268 C2254 0.961 . S
H2269 C2255 0.958 . S
H2270 C2255 0.961 . S
H2271 C2255 0.960 . S
C2272 C2273 1.391 . S
C2272 C2274 1.394 . S
C2272 H2288 0.931 . S
C2273 C2272 1.391 . S
C2273 C2277 1.376 . S
C2274 C2272 1.394 . S
C2274 C2275 1.369 . S
C2274 C2278 1.531 . S
C2275 C2274 1.369 . S
C2275 C2276 1.410 . S
C2275 C2283 1.503 . S
C2276 C2275 1.410 . S
C2276 C2277 1.392 . S
C2276 C2279 1.511 . S
C2277 C2273 1.376 . S
C2277 C2276 1.392 . S
C2277 H2289 0.929 . S
C2278 C2274 1.531 . S
C2278 H2290 0.960 . S
C2278 H2291 0.962 . S
C2278 H2292 0.960 . S
C2279 C2276 1.511 . S
C2279 H2293 0.961 . S
C2279 H2294 0.961 . S
C2279 H2295 0.961 . S
C2280 C2281 1.370 . S
C2280 C2282 1.363 . S
C2280 H2296 0.931 . S
C2281 C2280 1.370 . S
C2281 C2285 1.408 . S
C2282 C2280 1.363 . S
C2282 C2283 1.370 . S
C2282 C2286 1.524 . S
C2283 C2275 1.503 . S
C2283 C2282 1.370 . S
C2283 C2284 1.403 . S
C2284 C2283 1.403 . S
C2284 C2285 1.404 . S
C2284 C2287 1.539 . S
C2285 C2281 1.408 . S
C2285 C2284 1.404 . S
C2285 H2297 0.930 . S
C2286 C2282 1.524 . S
C2286 H2298 0.956 . S
C2286 H2299 0.961 . S
C2286 H2300 0.961 . S
C2287 C2284 1.539 . S
C2287 H2301 0.958 . S
C2287 H2302 0.961 . S
C2287 H2303 0.960 . S
H2288 C2272 0.931 . S
H2289 C2277 0.929 . S
H2290 C2278 0.960 . S
H2291 C2278 0.962 . S
H2292 C2278 0.960 . S
H2293 C2279 0.961 . S
H2294 C2279 0.961 . S
H2295 C2279 0.961 . S
H2296 C2280 0.931 . S
H2297 C2285 0.930 . S
H2298 C2286 0.956 . S
H2299 C2286 0.961 . S
H2300 C2286 0.961 . S
H2301 C2287 0.958 . S
H2302 C2287 0.961 . S
H2303 C2287 0.960 . S
C2304 C2305 1.391 . S
C2304 C2306 1.394 . S
C2304 H2320 0.931 . S
C2305 C2304 1.391 . S
C2305 C2309 1.376 . S
C2306 C2304 1.394 . S
C2306 C2307 1.369 . S
C2306 C2310 1.531 . S
C2307 C2306 1.369 . S
C2307 C2308 1.410 . S
C2307 C2315 1.503 . S
C2308 C2307 1.410 . S
C2308 C2309 1.392 . S
C2308 C2311 1.511 . S
C2309 C2305 1.376 . S
C2309 C2308 1.392 . S
C2309 H2321 0.929 . S
C2310 C2306 1.531 . S
C2310 H2322 0.960 . S
C2310 H2323 0.962 . S
C2310 H2324 0.960 . S
C2311 C2308 1.511 . S
C2311 H2325 0.961 . S
C2311 H2326 0.961 . S
C2311 H2327 0.961 . S
C2312 C2313 1.370 . S
C2312 C2314 1.363 . S
C2312 H2328 0.931 . S
C2313 C2312 1.370 . S
C2313 C2317 1.408 . S
C2314 C2312 1.363 . S
C2314 C2315 1.370 . S
C2314 C2318 1.524 . S
C2315 C2307 1.503 . S
C2315 C2314 1.370 . S
C2315 C2316 1.403 . S
C2316 C2315 1.403 . S
C2316 C2317 1.404 . S
C2316 C2319 1.539 . S
C2317 C2313 1.408 . S
C2317 C2316 1.404 . S
C2317 H2329 0.930 . S
C2318 C2314 1.524 . S
C2318 H2330 0.956 . S
C2318 H2331 0.961 . S
C2318 H2332 0.961 . S
C2319 C2316 1.539 . S
C2319 H2333 0.958 . S
C2319 H2334 0.961 . S
C2319 H2335 0.960 . S
H2320 C2304 0.931 . S
H2321 C2309 0.929 . S
H2322 C2310 0.960 . S
H2323 C2310 0.962 . S
H2324 C2310 0.960 . S
H2325 C2311 0.961 . S
H2326 C2311 0.961 . S
H2327 C2311 0.961 . S
H2328 C2312 0.931 . S
H2329 C2317 0.930 . S
H2330 C2318 0.956 . S
H2331 C2318 0.961 . S
H2332 C2318 0.961 . S
H2333 C2319 0.958 . S
H2334 C2319 0.961 . S
H2335 C2319 0.960 . S
C2336 C2337 1.391 . S
C2336 C2338 1.394 . S
C2336 H2352 0.931 . S
C2337 C2336 1.391 . S
C2337 C2341 1.376 . S
C2338 C2336 1.394 . S
C2338 C2339 1.369 . S
C2338 C2342 1.531 . S
C2339 C2338 1.369 . S
C2339 C2340 1.410 . S
C2339 C2347 1.503 . S
C2340 C2339 1.410 . S
C2340 C2341 1.392 . S
C2340 C2343 1.511 . S
C2341 C2337 1.376 . S
C2341 C2340 1.392 . S
C2341 H2353 0.929 . S
C2342 C2338 1.531 . S
C2342 H2354 0.960 . S
C2342 H2355 0.962 . S
C2342 H2356 0.960 . S
C2343 C2340 1.511 . S
C2343 H2357 0.961 . S
C2343 H2358 0.961 . S
C2343 H2359 0.961 . S
C2344 C2345 1.370 . S
C2344 C2346 1.363 . S
C2344 H2360 0.931 . S
C2345 C2344 1.370 . S
C2345 C2349 1.408 . S
C2346 C2344 1.363 . S
C2346 C2347 1.370 . S
C2346 C2350 1.524 . S
C2347 C2339 1.503 . S
C2347 C2346 1.370 . S
C2347 C2348 1.403 . S
C2348 C2347 1.403 . S
C2348 C2349 1.404 . S
C2348 C2351 1.539 . S
C2349 C2345 1.408 . S
C2349 C2348 1.404 . S
C2349 H2361 0.930 . S
C2350 C2346 1.524 . S
C2350 H2362 0.956 . S
C2350 H2363 0.961 . S
C2350 H2364 0.961 . S
C2351 C2348 1.539 . S
C2351 H2365 0.958 . S
C2351 H2366 0.961 . S
C2351 H2367 0.960 . S
H2352 C2336 0.931 . S
H2353 C2341 0.929 . S
H2354 C2342 0.960 . S
H2355 C2342 0.962 . S
H2356 C2342 0.960 . S
H2357 C2343 0.961 . S
H2358 C2343 0.961 . S
H2359 C2343 0.961 . S
H2360 C2344 0.931 . S
H2361 C2349 0.930 . S
H2362 C2350 0.956 . S
H2363 C2350 0.961 . S
H2364 C2350 0.961 . S
H2365 C2351 0.958 . S
H2366 C2351 0.961 . S
H2367 C2351 0.960 . S
C2368 C2369 1.391 . S
C2368 C2370 1.394 . S
C2368 H2384 0.931 . S
C2369 C2368 1.391 . S
C2369 C2373 1.376 . S
C2370 C2368 1.394 . S
C2370 C2371 1.369 . S
C2370 C2374 1.531 . S
C2371 C2370 1.369 . S
C2371 C2372 1.410 . S
C2371 C2379 1.503 . S
C2372 C2371 1.410 . S
C2372 C2373 1.392 . S
C2372 C2375 1.511 . S
C2373 C2369 1.376 . S
C2373 C2372 1.392 . S
C2373 H2385 0.929 . S
C2374 C2370 1.531 . S
C2374 H2386 0.960 . S
C2374 H2387 0.962 . S
C2374 H2388 0.960 . S
C2375 C2372 1.511 . S
C2375 H2389 0.961 . S
C2375 H2390 0.961 . S
C2375 H2391 0.961 . S
C2376 C2377 1.370 . S
C2376 C2378 1.363 . S
C2376 H2392 0.931 . S
C2377 C2376 1.370 . S
C2377 C2381 1.408 . S
C2378 C2376 1.363 . S
C2378 C2379 1.370 . S
C2378 C2382 1.524 . S
C2379 C2371 1.503 . S
C2379 C2378 1.370 . S
C2379 C2380 1.403 . S
C2380 C2379 1.403 . S
C2380 C2381 1.404 . S
C2380 C2383 1.539 . S
C2381 C2377 1.408 . S
C2381 C2380 1.404 . S
C2381 H2393 0.930 . S
C2382 C2378 1.524 . S
C2382 H2394 0.956 . S
C2382 H2395 0.961 . S
C2382 H2396 0.961 . S
C2383 C2380 1.539 . S
C2383 H2397 0.958 . S
C2383 H2398 0.961 . S
C2383 H2399 0.960 . S
H2384 C2368 0.931 . S
H2385 C2373 0.929 . S
H2386 C2374 0.960 . S
H2387 C2374 0.962 . S
H2388 C2374 0.960 . S
H2389 C2375 0.961 . S
H2390 C2375 0.961 . S
H2391 C2375 0.961 . S
H2392 C2376 0.931 . S
H2393 C2381 0.930 . S
H2394 C2382 0.956 . S
H2395 C2382 0.961 . S
H2396 C2382 0.961 . S
H2397 C2383 0.958 . S
H2398 C2383 0.961 . S
H2399 C2383 0.960 . S
C2400 C2401 1.391 . S
C2400 C2402 1.394 . S
C2400 H2416 0.931 . S
C2401 C2400 1.391 . S
C2401 C2405 1.376 . S
C2402 C2400 1.394 . S
C2402 C2403 1.369 . S
C2402 C2406 1.531 . S
C2403 C2402 1.369 . S
C2403 C2404 1.410 . S
C2403 C2411 1.503 . S
C2404 C2403 1.410 . S
C2404 C2405 1.392 . S
C2404 C2407 1.511 . S
C2405 C2401 1.376 . S
C2405 C2404 1.392 . S
C2405 H2417 0.929 . S
C2406 C2402 1.531 . S
C2406 H2418 0.960 . S
C2406 H2419 0.962 . S
C2406 H2420 0.960 . S
C2407 C2404 1.511 . S
C2407 H2421 0.961 . S
C2407 H2422 0.961 . S
C2407 H2423 0.961 . S
C2408 C2409 1.370 . S
C2408 C2410 1.363 . S
C2408 H2424 0.931 . S
C2409 C2408 1.370 . S
C2409 C2413 1.408 . S
C2410 C2408 1.363 . S
C2410 C2411 1.370 . S
C2410 C2414 1.524 . S
C2411 C2403 1.503 . S
C2411 C2410 1.370 . S
C2411 C2412 1.403 . S
C2412 C2411 1.403 . S
C2412 C2413 1.404 . S
C2412 C2415 1.539 . S
C2413 C2409 1.408 . S
C2413 C2412 1.404 . S
C2413 H2425 0.930 . S
C2414 C2410 1.524 . S
C2414 H2426 0.956 . S
C2414 H2427 0.961 . S
C2414 H2428 0.961 . S
C2415 C2412 1.539 . S
C2415 H2429 0.958 . S
C2415 H2430 0.961 . S
C2415 H2431 0.960 . S
H2416 C2400 0.931 . S
H2417 C2405 0.929 . S
H2418 C2406 0.960 . S
H2419 C2406 0.962 . S
H2420 C2406 0.960 . S
H2421 C2407 0.961 . S
H2422 C2407 0.961 . S
H2423 C2407 0.961 . S
H2424 C2408 0.931 . S
H2425 C2413 0.930 . S
H2426 C2414 0.956 . S
H2427 C2414 0.961 . S
H2428 C2414 0.961 . S
H2429 C2415 0.958 . S
H2430 C2415 0.961 . S
H2431 C2415 0.960 . S
C2432 C2433 1.391 . S
C2432 C2434 1.394 . S
C2432 H2448 0.931 . S
C2433 C2432 1.391 . S
C2433 C2437 1.376 . S
C2434 C2432 1.394 . S
C2434 C2435 1.369 . S
C2434 C2438 1.531 . S
C2435 C2434 1.369 . S
C2435 C2436 1.410 . S
C2435 C2443 1.503 . S
C2436 C2435 1.410 . S
C2436 C2437 1.392 . S
C2436 C2439 1.511 . S
C2437 C2433 1.376 . S
C2437 C2436 1.392 . S
C2437 H2449 0.929 . S
C2438 C2434 1.531 . S
C2438 H2450 0.960 . S
C2438 H2451 0.962 . S
C2438 H2452 0.960 . S
C2439 C2436 1.511 . S
C2439 H2453 0.961 . S
C2439 H2454 0.961 . S
C2439 H2455 0.961 . S
C2440 C2441 1.370 . S
C2440 C2442 1.363 . S
C2440 H2456 0.931 . S
C2441 C2440 1.370 . S
C2441 C2445 1.408 . S
C2442 C2440 1.363 . S
C2442 C2443 1.370 . S
C2442 C2446 1.524 . S
C2443 C2435 1.503 . S
C2443 C2442 1.370 . S
C2443 C2444 1.403 . S
C2444 C2443 1.403 . S
C2444 C2445 1.404 . S
C2444 C2447 1.539 . S
C2445 C2441 1.408 . S
C2445 C2444 1.404 . S
C2445 H2457 0.930 . S
C2446 C2442 1.524 . S
C2446 H2458 0.956 . S
C2446 H2459 0.961 . S
C2446 H2460 0.961 . S
C2447 C2444 1.539 . S
C2447 H2461 0.958 . S
C2447 H2462 0.961 . S
C2447 H2463 0.960 . S
H2448 C2432 0.931 . S
H2449 C2437 0.929 . S
H2450 C2438 0.960 . S
H2451 C2438 0.962 . S
H2452 C2438 0.960 . S
H2453 C2439 0.961 . S
H2454 C2439 0.961 . S
H2455 C2439 0.961 . S
H2456 C2440 0.931 . S
H2457 C2445 0.930 . S
H2458 C2446 0.956 . S
H2459 C2446 0.961 . S
H2460 C2446 0.961 . S
H2461 C2447 0.958 . S
H2462 C2447 0.961 . S
H2463 C2447 0.960 . S
C2464 C2465 1.391 . S
C2464 C2466 1.394 . S
C2464 H2480 0.931 . S
C2465 C2464 1.391 . S
C2465 C2469 1.376 . S
C2466 C2464 1.394 . S
C2466 C2467 1.369 . S
C2466 C2470 1.531 . S
C2467 C2466 1.369 . S
C2467 C2468 1.410 . S
C2467 C2475 1.503 . S
C2468 C2467 1.410 . S
C2468 C2469 1.392 . S
C2468 C2471 1.511 . S
C2469 C2465 1.376 . S
C2469 C2468 1.392 . S
C2469 H2481 0.929 . S
C2470 C2466 1.531 . S
C2470 H2482 0.960 . S
C2470 H2483 0.962 . S
C2470 H2484 0.960 . S
C2471 C2468 1.511 . S
C2471 H2485 0.961 . S
C2471 H2486 0.961 . S
C2471 H2487 0.961 . S
C2472 C2473 1.370 . S
C2472 C2474 1.363 . S
C2472 H2488 0.931 . S
C2473 C2472 1.370 . S
C2473 C2477 1.408 . S
C2474 C2472 1.363 . S
C2474 C2475 1.370 . S
C2474 C2478 1.524 . S
C2475 C2467 1.503 . S
C2475 C2474 1.370 . S
C2475 C2476 1.403 . S
C2476 C2475 1.403 . S
C2476 C2477 1.404 . S
C2476 C2479 1.539 . S
C2477 C2473 1.408 . S
C2477 C2476 1.404 . S
C2477 H2489 0.930 . S
C2478 C2474 1.524 . S
C2478 H2490 0.956 . S
C2478 H2491 0.961 . S
C2478 H2492 0.961 . S
C2479 C2476 1.539 . S
C2479 H2493 0.958 . S
C2479 H2494 0.961 . S
C2479 H2495 0.960 . S
H2480 C2464 0.931 . S
H2481 C2469 0.929 . S
H2482 C2470 0.960 . S
H2483 C2470 0.962 . S
H2484 C2470 0.960 . S
H2485 C2471 0.961 . S
H2486 C2471 0.961 . S
H2487 C2471 0.961 . S
H2488 C2472 0.931 . S
H2489 C2477 0.930 . S
H2490 C2478 0.956 . S
H2491 C2478 0.961 . S
H2492 C2478 0.961 . S
H2493 C2479 0.958 . S
H2494 C2479 0.961 . S
H2495 C2479 0.960 . S
C2496 C2497 1.391 . S
C2496 C2498 1.394 . S
C2496 H2512 0.931 . S
C2497 C2496 1.391 . S
C2497 C2501 1.376 . S
C2498 C2496 1.394 . S
C2498 C2499 1.369 . S
C2498 C2502 1.531 . S
C2499 C2498 1.369 . S
C2499 C2500 1.410 . S
C2499 C2507 1.503 . S
C2500 C2499 1.410 . S
C2500 C2501 1.392 . S
C2500 C2503 1.511 . S
C2501 C2497 1.376 . S
C2501 C2500 1.392 . S
C2501 H2513 0.929 . S
C2502 C2498 1.531 . S
C2502 H2514 0.960 . S
C2502 H2515 0.962 . S
C2502 H2516 0.960 . S
C2503 C2500 1.511 . S
C2503 H2517 0.961 . S
C2503 H2518 0.961 . S
C2503 H2519 0.961 . S
C2504 C2505 1.370 . S
C2504 C2506 1.363 . S
C2504 H2520 0.931 . S
C2505 C2504 1.370 . S
C2505 C2509 1.408 . S
C2506 C2504 1.363 . S
C2506 C2507 1.370 . S
C2506 C2510 1.524 . S
C2507 C2499 1.503 . S
C2507 C2506 1.370 . S
C2507 C2508 1.403 . S
C2508 C2507 1.403 . S
C2508 C2509 1.404 . S
C2508 C2511 1.539 . S
C2509 C2505 1.408 . S
C2509 C2508 1.404 . S
C2509 H2521 0.930 . S
C2510 C2506 1.524 . S
C2510 H2522 0.956 . S
C2510 H2523 0.961 . S
C2510 H2524 0.961 . S
C2511 C2508 1.539 . S
C2511 H2525 0.958 . S
C2511 H2526 0.961 . S
C2511 H2527 0.960 . S
H2512 C2496 0.931 . S
H2513 C2501 0.929 . S
H2514 C2502 0.960 . S
H2515 C2502 0.962 . S
H2516 C2502 0.960 . S
H2517 C2503 0.961 . S
H2518 C2503 0.961 . S
H2519 C2503 0.961 . S
H2520 C2504 0.931 . S
H2521 C2509 0.930 . S
H2522 C2510 0.956 . S
H2523 C2510 0.961 . S
H2524 C2510 0.961 . S
H2525 C2511 0.958 . S
H2526 C2511 0.961 . S
H2527 C2511 0.960 . S
C2528 C2529 1.391 . S
C2528 C2530 1.394 . S
C2528 H2544 0.931 . S
C2529 C2528 1.391 . S
C2529 C2533 1.376 . S
C2530 C2528 1.394 . S
C2530 C2531 1.369 . S
C2530 C2534 1.531 . S
C2531 C2530 1.369 . S
C2531 C2532 1.410 . S
C2531 C2539 1.503 . S
C2532 C2531 1.410 . S
C2532 C2533 1.392 . S
C2532 C2535 1.511 . S
C2533 C2529 1.376 . S
C2533 C2532 1.392 . S
C2533 H2545 0.929 . S
C2534 C2530 1.531 . S
C2534 H2546 0.960 . S
C2534 H2547 0.962 . S
C2534 H2548 0.960 . S
C2535 C2532 1.511 . S
C2535 H2549 0.961 . S
C2535 H2550 0.961 . S
C2535 H2551 0.961 . S
C2536 C2537 1.370 . S
C2536 C2538 1.363 . S
C2536 H2552 0.931 . S
C2537 C2536 1.370 . S
C2537 C2541 1.408 . S
C2538 C2536 1.363 . S
C2538 C2539 1.370 . S
C2538 C2542 1.524 . S
C2539 C2531 1.503 . S
C2539 C2538 1.370 . S
C2539 C2540 1.403 . S
C2540 C2539 1.403 . S
C2540 C2541 1.404 . S
C2540 C2543 1.539 . S
C2541 C2537 1.408 . S
C2541 C2540 1.404 . S
C2541 H2553 0.930 . S
C2542 C2538 1.524 . S
C2542 H2554 0.956 . S
C2542 H2555 0.961 . S
C2542 H2556 0.961 . S
C2543 C2540 1.539 . S
C2543 H2557 0.958 . S
C2543 H2558 0.961 . S
C2543 H2559 0.960 . S
H2544 C2528 0.931 . S
H2545 C2533 0.929 . S
H2546 C2534 0.960 . S
H2547 C2534 0.962 . S
H2548 C2534 0.960 . S
H2549 C2535 0.961 . S
H2550 C2535 0.961 . S
H2551 C2535 0.961 . S
H2552 C2536 0.931 . S
H2553 C2541 0.930 . S
H2554 C2542 0.956 . S
H2555 C2542 0.961 . S
H2556 C2542 0.961 . S
H2557 C2543 0.958 . S
H2558 C2543 0.961 . S
H2559 C2543 0.960 . S
C2560 C2561 1.391 . S
C2560 C2562 1.394 . S
C2560 H2576 0.931 . S
C2561 C2560 1.391 . S
C2561 C2565 1.376 . S
C2562 C2560 1.394 . S
C2562 C2563 1.369 . S
C2562 C2566 1.531 . S
C2563 C2562 1.369 . S
C2563 C2564 1.410 . S
C2563 C2571 1.503 . S
C2564 C2563 1.410 . S
C2564 C2565 1.392 . S
C2564 C2567 1.511 . S
C2565 C2561 1.376 . S
C2565 C2564 1.392 . S
C2565 H2577 0.929 . S
C2566 C2562 1.531 . S
C2566 H2578 0.960 . S
C2566 H2579 0.962 . S
C2566 H2580 0.960 . S
C2567 C2564 1.511 . S
C2567 H2581 0.961 . S
C2567 H2582 0.961 . S
C2567 H2583 0.961 . S
C2568 C2569 1.370 . S
C2568 C2570 1.363 . S
C2568 H2584 0.931 . S
C2569 C2568 1.370 . S
C2569 C2573 1.408 . S
C2570 C2568 1.363 . S
C2570 C2571 1.370 . S
C2570 C2574 1.524 . S
C2571 C2563 1.503 . S
C2571 C2570 1.370 . S
C2571 C2572 1.403 . S
C2572 C2571 1.403 . S
C2572 C2573 1.404 . S
C2572 C2575 1.539 . S
C2573 C2569 1.408 . S
C2573 C2572 1.404 . S
C2573 H2585 0.930 . S
C2574 C2570 1.524 . S
C2574 H2586 0.956 . S
C2574 H2587 0.961 . S
C2574 H2588 0.961 . S
C2575 C2572 1.539 . S
C2575 H2589 0.958 . S
C2575 H2590 0.961 . S
C2575 H2591 0.960 . S
H2576 C2560 0.931 . S
H2577 C2565 0.929 . S
H2578 C2566 0.960 . S
H2579 C2566 0.962 . S
H2580 C2566 0.960 . S
H2581 C2567 0.961 . S
H2582 C2567 0.961 . S
H2583 C2567 0.961 . S
H2584 C2568 0.931 . S
H2585 C2573 0.930 . S
H2586 C2574 0.956 . S
H2587 C2574 0.961 . S
H2588 C2574 0.961 . S
H2589 C2575 0.958 . S
H2590 C2575 0.961 . S
H2591 C2575 0.960 . S
C2592 C2593 1.391 . S
C2592 C2594 1.394 . S
C2592 H2608 0.931 . S
C2593 C2592 1.391 . S
C2593 C2597 1.376 . S
C2594 C2592 1.394 . S
C2594 C2595 1.369 . S
C2594 C2598 1.531 . S
C2595 C2594 1.369 . S
C2595 C2596 1.410 . S
C2595 C2603 1.503 . S
C2596 C2595 1.410 . S
C2596 C2597 1.392 . S
C2596 C2599 1.511 . S
C2597 C2593 1.376 . S
C2597 C2596 1.392 . S
C2597 H2609 0.929 . S
C2598 C2594 1.531 . S
C2598 H2610 0.960 . S
C2598 H2611 0.962 . S
C2598 H2612 0.960 . S
C2599 C2596 1.511 . S
C2599 H2613 0.961 . S
C2599 H2614 0.961 . S
C2599 H2615 0.961 . S
C2600 C2601 1.370 . S
C2600 C2602 1.363 . S
C2600 H2616 0.931 . S
C2601 C2600 1.370 . S
C2601 C2605 1.408 . S
C2602 C2600 1.363 . S
C2602 C2603 1.370 . S
C2602 C2606 1.524 . S
C2603 C2595 1.503 . S
C2603 C2602 1.370 . S
C2603 C2604 1.403 . S
C2604 C2603 1.403 . S
C2604 C2605 1.404 . S
C2604 C2607 1.539 . S
C2605 C2601 1.408 . S
C2605 C2604 1.404 . S
C2605 H2617 0.930 . S
C2606 C2602 1.524 . S
C2606 H2618 0.956 . S
C2606 H2619 0.961 . S
C2606 H2620 0.961 . S
C2607 C2604 1.539 . S
C2607 H2621 0.958 . S
C2607 H2622 0.961 . S
C2607 H2623 0.960 . S
H2608 C2592 0.931 . S
H2609 C2597 0.929 . S
H2610 C2598 0.960 . S
H2611 C2598 0.962 . S
H2612 C2598 0.960 . S
H2613 C2599 0.961 . S
H2614 C2599 0.961 . S
H2615 C2599 0.961 . S
H2616 C2600 0.931 . S
H2617 C2605 0.930 . S
H2618 C2606 0.956 . S
H2619 C2606 0.961 . S
H2620 C2606 0.961 . S
H2621 C2607 0.958 . S
H2622 C2607 0.961 . S
H2623 C2607 0.960 . S
C2624 C2625 1.391 . S
C2624 C2626 1.394 . S
C2624 H2640 0.931 . S
C2625 C2624 1.391 . S
C2625 C2629 1.376 . S
C2626 C2624 1.394 . S
C2626 C2627 1.369 . S
C2626 C2630 1.531 . S
C2627 C2626 1.369 . S
C2627 C2628 1.410 . S
C2627 C2635 1.503 . S
C2628 C2627 1.410 . S
C2628 C2629 1.392 . S
C2628 C2631 1.511 . S
C2629 C2625 1.376 . S
C2629 C2628 1.392 . S
C2629 H2641 0.929 . S
C2630 C2626 1.531 . S
C2630 H2642 0.960 . S
C2630 H2643 0.962 . S
C2630 H2644 0.960 . S
C2631 C2628 1.511 . S
C2631 H2645 0.961 . S
C2631 H2646 0.961 . S
C2631 H2647 0.961 . S
C2632 C2633 1.370 . S
C2632 C2634 1.363 . S
C2632 H2648 0.931 . S
C2633 C2632 1.370 . S
C2633 C2637 1.408 . S
C2634 C2632 1.363 . S
C2634 C2635 1.370 . S
C2634 C2638 1.524 . S
C2635 C2627 1.503 . S
C2635 C2634 1.370 . S
C2635 C2636 1.403 . S
C2636 C2635 1.403 . S
C2636 C2637 1.404 . S
C2636 C2639 1.539 . S
C2637 C2633 1.408 . S
C2637 C2636 1.404 . S
C2637 H2649 0.930 . S
C2638 C2634 1.524 . S
C2638 H2650 0.956 . S
C2638 H2651 0.961 . S
C2638 H2652 0.961 . S
C2639 C2636 1.539 . S
C2639 H2653 0.958 . S
C2639 H2654 0.961 . S
C2639 H2655 0.960 . S
H2640 C2624 0.931 . S
H2641 C2629 0.929 . S
H2642 C2630 0.960 . S
H2643 C2630 0.962 . S
H2644 C2630 0.960 . S
H2645 C2631 0.961 . S
H2646 C2631 0.961 . S
H2647 C2631 0.961 . S
H2648 C2632 0.931 . S
H2649 C2637 0.930 . S
H2650 C2638 0.956 . S
H2651 C2638 0.961 . S
H2652 C2638 0.961 . S
H2653 C2639 0.958 . S
H2654 C2639 0.961 . S
H2655 C2639 0.960 . S
C2656 C2657 1.391 . S
C2656 C2658 1.394 . S
C2656 H2672 0.931 . S
C2657 C2656 1.391 . S
C2657 C2661 1.376 . S
C2658 C2656 1.394 . S
C2658 C2659 1.369 . S
C2658 C2662 1.531 . S
C2659 C2658 1.369 . S
C2659 C2660 1.410 . S
C2659 C2667 1.503 . S
C2660 C2659 1.410 . S
C2660 C2661 1.392 . S
C2660 C2663 1.511 . S
C2661 C2657 1.376 . S
C2661 C2660 1.392 . S
C2661 H2673 0.929 . S
C2662 C2658 1.531 . S
C2662 H2674 0.960 . S
C2662 H2675 0.962 . S
C2662 H2676 0.960 . S
C2663 C2660 1.511 . S
C2663 H2677 0.961 . S
C2663 H2678 0.961 . S
C2663 H2679 0.961 . S
C2664 C2665 1.370 . S
C2664 C2666 1.363 . S
C2664 H2680 0.931 . S
C2665 C2664 1.370 . S
C2665 C2669 1.408 . S
C2666 C2664 1.363 . S
C2666 C2667 1.370 . S
C2666 C2670 1.524 . S
C2667 C2659 1.503 . S
C2667 C2666 1.370 . S
C2667 C2668 1.403 . S
C2668 C2667 1.403 . S
C2668 C2669 1.404 . S
C2668 C2671 1.539 . S
C2669 C2665 1.408 . S
C2669 C2668 1.404 . S
C2669 H2681 0.930 . S
C2670 C2666 1.524 . S
C2670 H2682 0.956 . S
C2670 H2683 0.961 . S
C2670 H2684 0.961 . S
C2671 C2668 1.539 . S
C2671 H2685 0.958 . S
C2671 H2686 0.961 . S
C2671 H2687 0.960 . S
H2672 C2656 0.931 . S
H2673 C2661 0.929 . S
H2674 C2662 0.960 . S
H2675 C2662 0.962 . S
H2676 C2662 0.960 . S
H2677 C2663 0.961 . S
H2678 C2663 0.961 . S
H2679 C2663 0.961 . S
H2680 C2664 0.931 . S
H2681 C2669 0.930 . S
H2682 C2670 0.956 . S
H2683 C2670 0.961 . S
H2684 C2670 0.961 . S
H2685 C2671 0.958 . S
H2686 C2671 0.961 . S
H2687 C2671 0.960 . S
C2688 C2689 1.391 . S
C2688 C2690 1.394 . S
C2688 H2704 0.931 . S
C2689 C2688 1.391 . S
C2689 C2693 1.376 . S
C2690 C2688 1.394 . S
C2690 C2691 1.369 . S
C2690 C2694 1.531 . S
C2691 C2690 1.369 . S
C2691 C2692 1.410 . S
C2691 C2699 1.503 . S
C2692 C2691 1.410 . S
C2692 C2693 1.392 . S
C2692 C2695 1.511 . S
C2693 C2689 1.376 . S
C2693 C2692 1.392 . S
C2693 H2705 0.929 . S
C2694 C2690 1.531 . S
C2694 H2706 0.960 . S
C2694 H2707 0.962 . S
C2694 H2708 0.960 . S
C2695 C2692 1.511 . S
C2695 H2709 0.961 . S
C2695 H2710 0.961 . S
C2695 H2711 0.961 . S
C2696 C2697 1.370 . S
C2696 C2698 1.363 . S
C2696 H2712 0.931 . S
C2697 C2696 1.370 . S
C2697 C2701 1.408 . S
C2698 C2696 1.363 . S
C2698 C2699 1.370 . S
C2698 C2702 1.524 . S
C2699 C2691 1.503 . S
C2699 C2698 1.370 . S
C2699 C2700 1.403 . S
C2700 C2699 1.403 . S
C2700 C2701 1.404 . S
C2700 C2703 1.539 . S
C2701 C2697 1.408 . S
C2701 C2700 1.404 . S
C2701 H2713 0.930 . S
C2702 C2698 1.524 . S
C2702 H2714 0.956 . S
C2702 H2715 0.961 . S
C2702 H2716 0.961 . S
C2703 C2700 1.539 . S
C2703 H2717 0.958 . S
C2703 H2718 0.961 . S
C2703 H2719 0.960 . S
H2704 C2688 0.931 . S
H2705 C2693 0.929 . S
H2706 C2694 0.960 . S
H2707 C2694 0.962 . S
H2708 C2694 0.960 . S
H2709 C2695 0.961 . S
H2710 C2695 0.961 . S
H2711 C2695 0.961 . S
H2712 C2696 0.931 . S
H2713 C2701 0.930 . S
H2714 C2702 0.956 . S
H2715 C2702 0.961 . S
H2716 C2702 0.961 . S
H2717 C2703 0.958 . S
H2718 C2703 0.961 . S
H2719 C2703 0.960 . S
C2720 C2721 1.391 . S
C2720 C2722 1.394 . S
C2720 H2736 0.931 . S
C2721 C2720 1.391 . S
C2721 C2725 1.376 . S
C2722 C2720 1.394 . S
C2722 C2723 1.369 . S
C2722 C2726 1.531 . S
C2723 C2722 1.369 . S
C2723 C2724 1.410 . S
C2723 C2731 1.503 . S
C2724 C2723 1.410 . S
C2724 C2725 1.392 . S
C2724 C2727 1.511 . S
C2725 C2721 1.376 . S
C2725 C2724 1.392 . S
C2725 H2737 0.929 . S
C2726 C2722 1.531 . S
C2726 H2738 0.960 . S
C2726 H2739 0.962 . S
C2726 H2740 0.960 . S
C2727 C2724 1.511 . S
C2727 H2741 0.961 . S
C2727 H2742 0.961 . S
C2727 H2743 0.961 . S
C2728 C2729 1.370 . S
C2728 C2730 1.363 . S
C2728 H2744 0.931 . S
C2729 C2728 1.370 . S
C2729 C2733 1.408 . S
C2730 C2728 1.363 . S
C2730 C2731 1.370 . S
C2730 C2734 1.524 . S
C2731 C2723 1.503 . S
C2731 C2730 1.370 . S
C2731 C2732 1.403 . S
C2732 C2731 1.403 . S
C2732 C2733 1.404 . S
C2732 C2735 1.539 . S
C2733 C2729 1.408 . S
C2733 C2732 1.404 . S
C2733 H2745 0.930 . S
C2734 C2730 1.524 . S
C2734 H2746 0.956 . S
C2734 H2747 0.961 . S
C2734 H2748 0.961 . S
C2735 C2732 1.539 . S
C2735 H2749 0.958 . S
C2735 H2750 0.961 . S
C2735 H2751 0.960 . S
H2736 C2720 0.931 . S
H2737 C2725 0.929 . S
H2738 C2726 0.960 . S
H2739 C2726 0.962 . S
H2740 C2726 0.960 . S
H2741 C2727 0.961 . S
H2742 C2727 0.961 . S
H2743 C2727 0.961 . S
H2744 C2728 0.931 . S
H2745 C2733 0.930 . S
H2746 C2734 0.956 . S
H2747 C2734 0.961 . S
H2748 C2734 0.961 . S
H2749 C2735 0.958 . S
H2750 C2735 0.961 . S
H2751 C2735 0.960 . S
C2752 C2753 1.391 . S
C2752 C2754 1.394 . S
C2752 H2768 0.931 . S
C2753 C2752 1.391 . S
C2753 C2757 1.376 . S
C2754 C2752 1.394 . S
C2754 C2755 1.369 . S
C2754 C2758 1.531 . S
C2755 C2754 1.369 . S
C2755 C2756 1.410 . S
C2755 C2763 1.503 . S
C2756 C2755 1.410 . S
C2756 C2757 1.392 . S
C2756 C2759 1.511 . S
C2757 C2753 1.376 . S
C2757 C2756 1.392 . S
C2757 H2769 0.929 . S
C2758 C2754 1.531 . S
C2758 H2770 0.960 . S
C2758 H2771 0.962 . S
C2758 H2772 0.960 . S
C2759 C2756 1.511 . S
C2759 H2773 0.961 . S
C2759 H2774 0.961 . S
C2759 H2775 0.961 . S
C2760 C2761 1.370 . S
C2760 C2762 1.363 . S
C2760 H2776 0.931 . S
C2761 C2760 1.370 . S
C2761 C2765 1.408 . S
C2762 C2760 1.363 . S
C2762 C2763 1.370 . S
C2762 C2766 1.524 . S
C2763 C2755 1.503 . S
C2763 C2762 1.370 . S
C2763 C2764 1.403 . S
C2764 C2763 1.403 . S
C2764 C2765 1.404 . S
C2764 C2767 1.539 . S
C2765 C2761 1.408 . S
C2765 C2764 1.404 . S
C2765 H2777 0.930 . S
C2766 C2762 1.524 . S
C2766 H2778 0.956 . S
C2766 H2779 0.961 . S
C2766 H2780 0.961 . S
C2767 C2764 1.539 . S
C2767 H2781 0.958 . S
C2767 H2782 0.961 . S
C2767 H2783 0.960 . S
H2768 C2752 0.931 . S
H2769 C2757 0.929 . S
H2770 C2758 0.960 . S
H2771 C2758 0.962 . S
H2772 C2758 0.960 . S
H2773 C2759 0.961 . S
H2774 C2759 0.961 . S
H2775 C2759 0.961 . S
H2776 C2760 0.931 . S
H2777 C2765 0.930 . S
H2778 C2766 0.956 . S
H2779 C2766 0.961 . S
H2780 C2766 0.961 . S
H2781 C2767 0.958 . S
H2782 C2767 0.961 . S
H2783 C2767 0.960 . S
C2784 C2785 1.391 . S
C2784 C2786 1.394 . S
C2784 H2800 0.931 . S
C2785 C2784 1.391 . S
C2785 C2789 1.376 . S
C2786 C2784 1.394 . S
C2786 C2787 1.369 . S
C2786 C2790 1.531 . S
C2787 C2786 1.369 . S
C2787 C2788 1.410 . S
C2787 C2795 1.503 . S
C2788 C2787 1.410 . S
C2788 C2789 1.392 . S
C2788 C2791 1.511 . S
C2789 C2785 1.376 . S
C2789 C2788 1.392 . S
C2789 H2801 0.929 . S
C2790 C2786 1.531 . S
C2790 H2802 0.960 . S
C2790 H2803 0.962 . S
C2790 H2804 0.960 . S
C2791 C2788 1.511 . S
C2791 H2805 0.961 . S
C2791 H2806 0.961 . S
C2791 H2807 0.961 . S
C2792 C2793 1.370 . S
C2792 C2794 1.363 . S
C2792 H2808 0.931 . S
C2793 C2792 1.370 . S
C2793 C2797 1.408 . S
C2794 C2792 1.363 . S
C2794 C2795 1.370 . S
C2794 C2798 1.524 . S
C2795 C2787 1.503 . S
C2795 C2794 1.370 . S
C2795 C2796 1.403 . S
C2796 C2795 1.403 . S
C2796 C2797 1.404 . S
C2796 C2799 1.539 . S
C2797 C2793 1.408 . S
C2797 C2796 1.404 . S
C2797 H2809 0.930 . S
C2798 C2794 1.524 . S
C2798 H2810 0.956 . S
C2798 H2811 0.961 . S
C2798 H2812 0.961 . S
C2799 C2796 1.539 . S
C2799 H2813 0.958 . S
C2799 H2814 0.961 . S
C2799 H2815 0.960 . S
H2800 C2784 0.931 . S
H2801 C2789 0.929 . S
H2802 C2790 0.960 . S
H2803 C2790 0.962 . S
H2804 C2790 0.960 . S
H2805 C2791 0.961 . S
H2806 C2791 0.961 . S
H2807 C2791 0.961 . S
H2808 C2792 0.931 . S
H2809 C2797 0.930 . S
H2810 C2798 0.956 . S
H2811 C2798 0.961 . S
H2812 C2798 0.961 . S
H2813 C2799 0.958 . S
H2814 C2799 0.961 . S
H2815 C2799 0.960 . S
C2816 C2817 1.391 . S
C2816 C2818 1.394 . S
C2816 H2832 0.931 . S
C2817 C2816 1.391 . S
C2817 C2821 1.376 . S
C2818 C2816 1.394 . S
C2818 C2819 1.369 . S
C2818 C2822 1.531 . S
C2819 C2818 1.369 . S
C2819 C2820 1.410 . S
C2819 C2827 1.503 . S
C2820 C2819 1.410 . S
C2820 C2821 1.392 . S
C2820 C2823 1.511 . S
C2821 C2817 1.376 . S
C2821 C2820 1.392 . S
C2821 H2833 0.929 . S
C2822 C2818 1.531 . S
C2822 H2834 0.960 . S
C2822 H2835 0.962 . S
C2822 H2836 0.960 . S
C2823 C2820 1.511 . S
C2823 H2837 0.961 . S
C2823 H2838 0.961 . S
C2823 H2839 0.961 . S
C2824 C2825 1.370 . S
C2824 C2826 1.363 . S
C2824 H2840 0.931 . S
C2825 C2824 1.370 . S
C2825 C2829 1.408 . S
C2826 C2824 1.363 . S
C2826 C2827 1.370 . S
C2826 C2830 1.524 . S
C2827 C2819 1.503 . S
C2827 C2826 1.370 . S
C2827 C2828 1.403 . S
C2828 C2827 1.403 . S
C2828 C2829 1.404 . S
C2828 C2831 1.539 . S
C2829 C2825 1.408 . S
C2829 C2828 1.404 . S
C2829 H2841 0.930 . S
C2830 C2826 1.524 . S
C2830 H2842 0.956 . S
C2830 H2843 0.961 . S
C2830 H2844 0.961 . S
C2831 C2828 1.539 . S
C2831 H2845 0.958 . S
C2831 H2846 0.961 . S
C2831 H2847 0.960 . S
H2832 C2816 0.931 . S
H2833 C2821 0.929 . S
H2834 C2822 0.960 . S
H2835 C2822 0.962 . S
H2836 C2822 0.960 . S
H2837 C2823 0.961 . S
H2838 C2823 0.961 . S
H2839 C2823 0.961 . S
H2840 C2824 0.931 . S
H2841 C2829 0.930 . S
H2842 C2830 0.956 . S
H2843 C2830 0.961 . S
H2844 C2830 0.961 . S
H2845 C2831 0.958 . S
H2846 C2831 0.961 . S
H2847 C2831 0.960 . S
C2848 C2849 1.391 . S
C2848 C2850 1.394 . S
C2848 H2864 0.931 . S
C2849 C2848 1.391 . S
C2849 C2853 1.376 . S
C2850 C2848 1.394 . S
C2850 C2851 1.369 . S
C2850 C2854 1.531 . S
C2851 C2850 1.369 . S
C2851 C2852 1.410 . S
C2851 C2859 1.503 . S
C2852 C2851 1.410 . S
C2852 C2853 1.392 . S
C2852 C2855 1.511 . S
C2853 C2849 1.376 . S
C2853 C2852 1.392 . S
C2853 H2865 0.929 . S
C2854 C2850 1.531 . S
C2854 H2866 0.960 . S
C2854 H2867 0.962 . S
C2854 H2868 0.960 . S
C2855 C2852 1.511 . S
C2855 H2869 0.961 . S
C2855 H2870 0.961 . S
C2855 H2871 0.961 . S
C2856 C2857 1.370 . S
C2856 C2858 1.363 . S
C2856 H2872 0.931 . S
C2857 C2856 1.370 . S
C2857 C2861 1.408 . S
C2858 C2856 1.363 . S
C2858 C2859 1.370 . S
C2858 C2862 1.524 . S
C2859 C2851 1.503 . S
C2859 C2858 1.370 . S
C2859 C2860 1.403 . S
C2860 C2859 1.403 . S
C2860 C2861 1.404 . S
C2860 C2863 1.539 . S
C2861 C2857 1.408 . S
C2861 C2860 1.404 . S
C2861 H2873 0.930 . S
C2862 C2858 1.524 . S
C2862 H2874 0.956 . S
C2862 H2875 0.961 . S
C2862 H2876 0.961 . S
C2863 C2860 1.539 . S
C2863 H2877 0.958 . S
C2863 H2878 0.961 . S
C2863 H2879 0.960 . S
H2864 C2848 0.931 . S
H2865 C2853 0.929 . S
H2866 C2854 0.960 . S
H2867 C2854 0.962 . S
H2868 C2854 0.960 . S
H2869 C2855 0.961 . S
H2870 C2855 0.961 . S
H2871 C2855 0.961 . S
H2872 C2856 0.931 . S
H2873 C2861 0.930 . S
H2874 C2862 0.956 . S
H2875 C2862 0.961 . S
H2876 C2862 0.961 . S
H2877 C2863 0.958 . S
H2878 C2863 0.961 . S
H2879 C2863 0.960 . S
C2880 C2881 1.391 . S
C2880 C2882 1.394 . S
C2880 H2896 0.931 . S
C2881 C2880 1.391 . S
C2881 C2885 1.376 . S
C2882 C2880 1.394 . S
C2882 C2883 1.369 . S
C2882 C2886 1.531 . S
C2883 C2882 1.369 . S
C2883 C2884 1.410 . S
C2883 C2891 1.503 . S
C2884 C2883 1.410 . S
C2884 C2885 1.392 . S
C2884 C2887 1.511 . S
C2885 C2881 1.376 . S
C2885 C2884 1.392 . S
C2885 H2897 0.929 . S
C2886 C2882 1.531 . S
C2886 H2898 0.960 . S
C2886 H2899 0.962 . S
C2886 H2900 0.960 . S
C2887 C2884 1.511 . S
C2887 H2901 0.961 . S
C2887 H2902 0.961 . S
C2887 H2903 0.961 . S
C2888 C2889 1.370 . S
C2888 C2890 1.363 . S
C2888 H2904 0.931 . S
C2889 C2888 1.370 . S
C2889 C2893 1.408 . S
C2890 C2888 1.363 . S
C2890 C2891 1.370 . S
C2890 C2894 1.524 . S
C2891 C2883 1.503 . S
C2891 C2890 1.370 . S
C2891 C2892 1.403 . S
C2892 C2891 1.403 . S
C2892 C2893 1.404 . S
C2892 C2895 1.539 . S
C2893 C2889 1.408 . S
C2893 C2892 1.404 . S
C2893 H2905 0.930 . S
C2894 C2890 1.524 . S
C2894 H2906 0.956 . S
C2894 H2907 0.961 . S
C2894 H2908 0.961 . S
C2895 C2892 1.539 . S
C2895 H2909 0.958 . S
C2895 H2910 0.961 . S
C2895 H2911 0.960 . S
H2896 C2880 0.931 . S
H2897 C2885 0.929 . S
H2898 C2886 0.960 . S
H2899 C2886 0.962 . S
H2900 C2886 0.960 . S
H2901 C2887 0.961 . S
H2902 C2887 0.961 . S
H2903 C2887 0.961 . S
H2904 C2888 0.931 . S
H2905 C2893 0.930 . S
H2906 C2894 0.956 . S
H2907 C2894 0.961 . S
H2908 C2894 0.961 . S
H2909 C2895 0.958 . S
H2910 C2895 0.961 . S
H2911 C2895 0.960 . S
C2912 C2913 1.391 . S
C2912 C2914 1.394 . S
C2912 H2928 0.931 . S
C2913 C2912 1.391 . S
C2913 C2917 1.376 . S
C2914 C2912 1.394 . S
C2914 C2915 1.369 . S
C2914 C2918 1.531 . S
C2915 C2914 1.369 . S
C2915 C2916 1.410 . S
C2915 C2923 1.503 . S
C2916 C2915 1.410 . S
C2916 C2917 1.392 . S
C2916 C2919 1.511 . S
C2917 C2913 1.376 . S
C2917 C2916 1.392 . S
C2917 H2929 0.929 . S
C2918 C2914 1.531 . S
C2918 H2930 0.960 . S
C2918 H2931 0.962 . S
C2918 H2932 0.960 . S
C2919 C2916 1.511 . S
C2919 H2933 0.961 . S
C2919 H2934 0.961 . S
C2919 H2935 0.961 . S
C2920 C2921 1.370 . S
C2920 C2922 1.363 . S
C2920 H2936 0.931 . S
C2921 C2920 1.370 . S
C2921 C2925 1.408 . S
C2922 C2920 1.363 . S
C2922 C2923 1.370 . S
C2922 C2926 1.524 . S
C2923 C2915 1.503 . S
C2923 C2922 1.370 . S
C2923 C2924 1.403 . S
C2924 C2923 1.403 . S
C2924 C2925 1.404 . S
C2924 C2927 1.539 . S
C2925 C2921 1.408 . S
C2925 C2924 1.404 . S
C2925 H2937 0.930 . S
C2926 C2922 1.524 . S
C2926 H2938 0.956 . S
C2926 H2939 0.961 . S
C2926 H2940 0.961 . S
C2927 C2924 1.539 . S
C2927 H2941 0.958 . S
C2927 H2942 0.961 . S
C2927 H2943 0.960 . S
H2928 C2912 0.931 . S
H2929 C2917 0.929 . S
H2930 C2918 0.960 . S
H2931 C2918 0.962 . S
H2932 C2918 0.960 . S
H2933 C2919 0.961 . S
H2934 C2919 0.961 . S
H2935 C2919 0.961 . S
H2936 C2920 0.931 . S
H2937 C2925 0.930 . S
H2938 C2926 0.956 . S
H2939 C2926 0.961 . S
H2940 C2926 0.961 . S
H2941 C2927 0.958 . S
H2942 C2927 0.961 . S
H2943 C2927 0.960 . S
C2944 C2945 1.391 . S
C2944 C2946 1.394 . S
C2944 H2960 0.931 . S
C2945 C2944 1.391 . S
C2945 C2949 1.376 . S
C2946 C2944 1.394 . S
C2946 C2947 1.369 . S
C2946 C2950 1.531 . S
C2947 C2946 1.369 . S
C2947 C2948 1.410 . S
C2947 C2955 1.503 . S
C2948 C2947 1.410 . S
C2948 C2949 1.392 . S
C2948 C2951 1.511 . S
C2949 C2945 1.376 . S
C2949 C2948 1.392 . S
C2949 H2961 0.929 . S
C2950 C2946 1.531 . S
C2950 H2962 0.960 . S
C2950 H2963 0.962 . S
C2950 H2964 0.960 . S
C2951 C2948 1.511 . S
C2951 H2965 0.961 . S
C2951 H2966 0.961 . S
C2951 H2967 0.961 . S
C2952 C2953 1.370 . S
C2952 C2954 1.363 . S
C2952 H2968 0.931 . S
C2953 C2952 1.370 . S
C2953 C2957 1.408 . S
C2954 C2952 1.363 . S
C2954 C2955 1.370 . S
C2954 C2958 1.524 . S
C2955 C2947 1.503 . S
C2955 C2954 1.370 . S
C2955 C2956 1.403 . S
C2956 C2955 1.403 . S
C2956 C2957 1.404 . S
C2956 C2959 1.539 . S
C2957 C2953 1.408 . S
C2957 C2956 1.404 . S
C2957 H2969 0.930 . S
C2958 C2954 1.524 . S
C2958 H2970 0.956 . S
C2958 H2971 0.961 . S
C2958 H2972 0.961 . S
C2959 C2956 1.539 . S
C2959 H2973 0.958 . S
C2959 H2974 0.961 . S
C2959 H2975 0.960 . S
H2960 C2944 0.931 . S
H2961 C2949 0.929 . S
H2962 C2950 0.960 . S
H2963 C2950 0.962 . S
H2964 C2950 0.960 . S
H2965 C2951 0.961 . S
H2966 C2951 0.961 . S
H2967 C2951 0.961 . S
H2968 C2952 0.931 . S
H2969 C2957 0.930 . S
H2970 C2958 0.956 . S
H2971 C2958 0.961 . S
H2972 C2958 0.961 . S
H2973 C2959 0.958 . S
H2974 C2959 0.961 . S
H2975 C2959 0.960 . S
C2976 C2977 1.391 . S
C2976 C2978 1.394 . S
C2976 H2992 0.931 . S
C2977 C2976 1.391 . S
C2977 C2981 1.376 . S
C2978 C2976 1.394 . S
C2978 C2979 1.369 . S
C2978 C2982 1.531 . S
C2979 C2978 1.369 . S
C2979 C2980 1.410 . S
C2979 C2987 1.503 1_554 S
C2980 C2979 1.410 . S
C2980 C2981 1.392 . S
C2980 C2983 1.511 . S
C2981 C2977 1.376 . S
C2981 C2980 1.392 . S
C2981 H2993 0.929 . S
C2982 C2978 1.531 . S
C2982 H2994 0.960 1_554 S
C2982 H2995 0.962 . S
C2982 H2996 0.960 . S
C2983 C2980 1.511 . S
C2983 H2997 0.961 . S
C2983 H2998 0.963 . S
C2983 H2999 0.961 . S
C2984 C2985 1.370 . S
C2984 C2986 1.363 . S
C2984 H3000 0.931 . S
C2985 C2984 1.370 . S
C2985 C2989 1.408 . S
C2986 C2984 1.363 . S
C2986 C2987 1.370 . S
C2986 C2990 1.524 . S
C2987 C2979 1.503 1_556 S
C2987 C2986 1.370 . S
C2987 C2988 1.403 . S
C2988 C2987 1.403 . S
C2988 C2989 1.404 . S
C2988 C2991 1.539 . S
C2989 C2985 1.408 . S
C2989 C2988 1.404 . S
C2989 H3001 0.930 . S
C2990 C2986 1.524 . S
C2990 H3002 0.954 1_556 S
C2990 H3003 0.961 1_556 S
C2990 H3004 0.961 . S
C2991 C2988 1.539 . S
C2991 H3005 0.958 . S
C2991 H3006 0.961 . S
C2991 H3007 0.960 1_556 S
H2992 C2976 0.931 . S
H2993 C2981 0.929 . S
H2994 C2982 0.960 1_556 S
H2995 C2982 0.962 . S
H2996 C2982 0.960 . S
H2997 C2983 0.961 . S
H2998 C2983 0.963 . S
H2999 C2983 0.961 . S
H3000 C2984 0.931 . S
H3001 C2989 0.930 . S
H3002 C2990 0.954 1_554 S
H3003 C2990 0.961 1_554 S
H3004 C2990 0.961 . S
H3005 C2991 0.958 . S
H3006 C2991 0.961 . S
H3007 C2991 0.960 1_554 S
C3008 C3009 1.391 . S
C3008 C3010 1.394 . S
C3008 H3024 0.931 . S
C3009 C3008 1.391 . S
C3009 C3013 1.376 . S
C3010 C3008 1.394 . S
C3010 C3011 1.369 . S
C3010 C3014 1.531 . S
C3011 C3010 1.369 . S
C3011 C3012 1.410 . S
C3011 C3019 1.503 1_556 S
C3012 C3011 1.410 . S
C3012 C3013 1.392 . S
C3012 C3015 1.511 . S
C3013 C3009 1.376 . S
C3013 C3012 1.392 . S
C3013 H3025 0.929 . S
C3014 C3010 1.531 . S
C3014 H3026 0.937 1_556 S
C3014 H3027 0.962 . S
C3014 H3028 0.960 . S
C3015 C3012 1.511 . S
C3015 H3029 0.961 . S
C3015 H3030 0.981 . S
C3015 H3031 0.961 . S
C3016 C3017 1.370 . S
C3016 C3018 1.363 . S
C3016 H3032 0.931 . S
C3017 C3016 1.370 . S
C3017 C3021 1.408 . S
C3018 C3016 1.363 . S
C3018 C3019 1.370 . S
C3018 C3022 1.524 . S
C3019 C3011 1.503 1_554 S
C3019 C3018 1.370 . S
C3019 C3020 1.403 . S
C3020 C3019 1.403 . S
C3020 C3021 1.404 . S
C3020 C3023 1.539 . S
C3021 C3017 1.408 . S
C3021 C3020 1.404 . S
C3021 H3033 0.930 . S
C3022 C3018 1.524 . S
C3022 H3034 0.932 1_554 S
C3022 H3035 0.961 1_554 S
C3022 H3036 0.961 . S
C3023 C3020 1.539 . S
C3023 H3037 0.958 . S
C3023 H3038 0.961 . S
C3023 H3039 0.960 1_554 S
H3024 C3008 0.931 . S
H3025 C3013 0.929 . S
H3026 C3014 0.937 1_554 S
H3027 C3014 0.962 . S
H3028 C3014 0.960 . S
H3029 C3015 0.961 . S
H3030 C3015 0.981 . S
H3031 C3015 0.961 . S
H3032 C3016 0.931 . S
H3033 C3021 0.930 . S
H3034 C3022 0.932 1_556 S
H3035 C3022 0.961 1_556 S
H3036 C3022 0.961 . S
H3037 C3023 0.958 . S
H3038 C3023 0.961 . S
H3039 C3023 0.960 1_556 S
C3040 C3041 1.391 . S
C3040 C3042 1.394 . S
C3040 H3056 0.931 . S
C3041 C3040 1.391 . S
C3041 C3045 1.376 . S
C3042 C3040 1.394 . S
C3042 C3043 1.369 . S
C3042 C3046 1.531 . S
C3043 C3042 1.369 . S
C3043 C3044 1.410 . S
C3043 C3051 1.503 1_554 S
C3044 C3043 1.410 . S
C3044 C3045 1.392 . S
C3044 C3047 1.511 . S
C3045 C3041 1.376 . S
C3045 C3044 1.392 . S
C3045 H3057 0.929 . S
C3046 C3042 1.531 . S
C3046 H3058 0.944 1_554 S
C3046 H3059 0.962 . S
C3046 H3060 0.960 . S
C3047 C3044 1.511 . S
C3047 H3061 0.961 . S
C3047 H3062 0.905 1_554 S
C3047 H3063 0.961 . S
C3048 C3049 1.370 . S
C3048 C3050 1.363 . S
C3048 H3064 0.931 . S
C3049 C3048 1.370 . S
C3049 C3053 1.408 . S
C3050 C3048 1.363 . S
C3050 C3051 1.370 . S
C3050 C3054 1.524 . S
C3051 C3043 1.503 1_556 S
C3051 C3050 1.370 . S
C3051 C3052 1.403 . S
C3052 C3051 1.403 . S
C3052 C3053 1.404 . S
C3052 C3055 1.539 . S
C3053 C3049 1.408 . S
C3053 C3052 1.404 . S
C3053 H3065 0.930 . S
C3054 C3050 1.524 . S
C3054 H3066 0.970 . S
C3054 H3067 0.961 1_556 S
C3054 H3068 0.961 . S
C3055 C3052 1.539 . S
C3055 H3069 0.958 . S
C3055 H3070 0.961 . S
C3055 H3071 0.960 1_556 S
H3056 C3040 0.931 . S
H3057 C3045 0.929 . S
H3058 C3046 0.944 1_556 S
H3059 C3046 0.962 . S
H3060 C3046 0.960 . S
H3061 C3047 0.961 . S
H3062 C3047 0.905 1_556 S
H3063 C3047 0.961 . S
H3064 C3048 0.931 . S
H3065 C3053 0.930 . S
H3066 C3054 0.970 . S
H3067 C3054 0.961 1_554 S
H3068 C3054 0.961 . S
H3069 C3055 0.958 . S
H3070 C3055 0.961 . S
H3071 C3055 0.960 1_554 S
C3072 C3073 1.391 . S
C3072 C3074 1.394 . S
C3072 H3088 0.931 . S
C3073 C3072 1.391 . S
C3073 C3077 1.376 . S
C3074 C3072 1.394 . S
C3074 C3075 1.369 . S
C3074 C3078 1.531 . S
C3075 C3074 1.369 . S
C3075 C3076 1.410 . S
C3075 C3083 1.503 1_554 S
C3076 C3075 1.410 . S
C3076 C3077 1.392 . S
C3076 C3079 1.511 . S
C3077 C3073 1.376 . S
C3077 C3076 1.392 . S
C3077 H3089 0.929 . S
C3078 C3074 1.531 . S
C3078 H3090 0.960 1_554 S
C3078 H3091 0.962 . S
C3078 H3092 0.960 . S
C3079 C3076 1.511 . S
C3079 H3093 0.961 . S
C3079 H3094 0.961 1_554 S
C3079 H3095 0.961 . S
C3080 C3081 1.370 . S
C3080 C3082 1.363 . S
C3080 H3096 0.931 . S
C3081 C3080 1.370 . S
C3081 C3085 1.408 . S
C3082 C3080 1.363 . S
C3082 C3083 1.370 . S
C3082 C3086 1.524 . S
C3083 C3075 1.503 1_556 S
C3083 C3082 1.370 . S
C3083 C3084 1.403 . S
C3084 C3083 1.403 . S
C3084 C3085 1.404 . S
C3084 C3087 1.539 . S
C3085 C3081 1.408 . S
C3085 C3084 1.404 . S
C3085 H3097 0.930 . S
C3086 C3082 1.524 . S
C3086 H3098 0.956 . S
C3086 H3099 0.960 . S
C3086 H3100 0.961 . S
C3087 C3084 1.539 . S
C3087 H3101 0.958 . S
C3087 H3102 0.961 . S
C3087 H3103 1.011 . S
H3088 C3072 0.931 . S
H3089 C3077 0.929 . S
H3090 C3078 0.960 1_556 S
H3091 C3078 0.962 . S
H3092 C3078 0.960 . S
H3093 C3079 0.961 . S
H3094 C3079 0.961 1_556 S
H3095 C3079 0.961 . S
H3096 C3080 0.931 . S
H3097 C3085 0.930 . S
H3098 C3086 0.956 . S
H3099 C3086 0.960 . S
H3100 C3086 0.961 . S
H3101 C3087 0.958 . S
H3102 C3087 0.961 . S
H3103 C3087 1.011 . S
C3104 C3105 1.391 . S
C3104 C3106 1.394 . S
C3104 H3120 0.931 . S
C3105 C3104 1.391 . S
C3105 C3109 1.376 . S
C3106 C3104 1.394 . S
C3106 C3107 1.369 . S
C3106 C3110 1.531 . S
C3107 C3106 1.369 . S
C3107 C3108 1.410 . S
C3107 C3115 1.503 1_556 S
C3108 C3107 1.410 . S
C3108 C3109 1.392 . S
C3108 C3111 1.511 . S
C3109 C3105 1.376 . S
C3109 C3108 1.392 . S
C3109 H3121 0.929 . S
C3110 C3106 1.531 . S
C3110 H3122 0.960 1_556 S
C3110 H3123 0.962 . S
C3110 H3124 0.960 . S
C3111 C3108 1.511 . S
C3111 H3125 0.961 . S
C3111 H3126 0.961 1_556 S
C3111 H3127 0.961 . S
C3112 C3113 1.370 . S
C3112 C3114 1.363 . S
C3112 H3128 0.931 . S
C3113 C3112 1.370 . S
C3113 C3117 1.408 . S
C3114 C3112 1.363 . S
C3114 C3115 1.370 . S
C3114 C3118 1.524 . S
C3115 C3107 1.503 1_554 S
C3115 C3114 1.370 . S
C3115 C3116 1.403 . S
C3116 C3115 1.403 . S
C3116 C3117 1.404 . S
C3116 C3119 1.539 . S
C3117 C3113 1.408 . S
C3117 C3116 1.404 . S
C3117 H3129 0.930 . S
C3118 C3114 1.524 . S
C3118 H3130 0.956 . S
C3118 H3131 0.961 . S
C3118 H3132 0.961 . S
C3119 C3116 1.539 . S
C3119 H3133 0.958 . S
C3119 H3134 0.961 . S
C3119 H3135 0.960 . S
H3120 C3104 0.931 . S
H3121 C3109 0.929 . S
H3122 C3110 0.960 1_554 S
H3123 C3110 0.962 . S
H3124 C3110 0.960 . S
H3125 C3111 0.961 . S
H3126 C3111 0.961 1_554 S
H3127 C3111 0.961 . S
H3128 C3112 0.931 . S
H3129 C3117 0.930 . S
H3130 C3118 0.956 . S
H3131 C3118 0.961 . S
H3132 C3118 0.961 . S
H3133 C3119 0.958 . S
H3134 C3119 0.961 . S
H3135 C3119 0.960 . S
C3136 C3137 1.391 . S
C3136 C3138 1.394 . S
C3136 H3152 0.931 . S
C3137 C3136 1.391 . S
C3137 C3141 1.376 . S
C3138 C3136 1.394 . S
C3138 C3139 1.369 . S
C3138 C3142 1.531 . S
C3139 C3138 1.369 . S
C3139 C3140 1.410 . S
C3139 C3147 1.503 1_554 S
C3140 C3139 1.410 . S
C3140 C3141 1.392 . S
C3140 C3143 1.511 . S
C3141 C3137 1.376 . S
C3141 C3140 1.392 . S
C3141 H3153 0.929 . S
C3142 C3138 1.531 . S
C3142 H3154 0.936 1_554 S
C3142 H3155 0.962 . S
C3142 H3156 0.960 . S
C3143 C3140 1.511 . S
C3143 H3157 0.961 . S
C3143 H3158 0.922 1_554 S
C3143 H3159 0.961 . S
C3144 C3145 1.370 . S
C3144 C3146 1.363 . S
C3144 H3160 0.931 . S
C3145 C3144 1.370 . S
C3145 C3149 1.408 . S
C3146 C3144 1.363 . S
C3146 C3147 1.370 . S
C3146 C3150 1.524 . S
C3147 C3139 1.503 1_556 S
C3147 C3146 1.370 . S
C3147 C3148 1.403 . S
C3148 C3147 1.403 . S
C3148 C3149 1.404 . S
C3148 C3151 1.539 . S
C3149 C3145 1.408 . S
C3149 C3148 1.404 . S
C3149 H3161 0.930 . S
C3150 C3146 1.524 . S
C3150 H3162 0.968 . S
C3150 H3163 0.961 1_556 S
C3150 H3164 0.961 . S
C3151 C3148 1.539 . S
C3151 H3165 0.958 . S
C3151 H3166 0.961 . S
C3151 H3167 0.960 1_556 S
H3152 C3136 0.931 . S
H3153 C3141 0.929 . S
H3154 C3142 0.936 1_556 S
H3155 C3142 0.962 . S
H3156 C3142 0.960 . S
H3157 C3143 0.961 . S
H3158 C3143 0.922 1_556 S
H3159 C3143 0.961 . S
H3160 C3144 0.931 . S
H3161 C3149 0.930 . S
H3162 C3150 0.968 . S
H3163 C3150 0.961 1_554 S
H3164 C3150 0.961 . S
H3165 C3151 0.958 . S
H3166 C3151 0.961 . S
H3167 C3151 0.960 1_554 S
C3168 C3169 1.391 . S
C3168 C3170 1.394 . S
C3168 H3184 0.931 . S
C3169 C3168 1.391 . S
C3169 C3173 1.376 . S
C3170 C3168 1.394 . S
C3170 C3171 1.369 . S
C3170 C3174 1.531 . S
C3171 C3170 1.369 . S
C3171 C3172 1.410 . S
C3171 C3179 1.503 1_556 S
C3172 C3171 1.410 . S
C3172 C3173 1.392 . S
C3172 C3175 1.511 . S
C3173 C3169 1.376 . S
C3173 C3172 1.392 . S
C3173 H3185 0.929 . S
C3174 C3170 1.531 . S
C3174 H3186 0.960 1_556 S
C3174 H3187 0.962 . S
C3174 H3188 0.960 . S
C3175 C3172 1.511 . S
C3175 H3189 0.961 . S
C3175 H3190 0.961 1_556 S
C3175 H3191 0.961 . S
C3176 C3177 1.370 . S
C3176 C3178 1.363 . S
C3176 H3192 0.931 . S
C3177 C3176 1.370 . S
C3177 C3181 1.408 . S
C3178 C3176 1.363 . S
C3178 C3179 1.370 . S
C3178 C3182 1.524 . S
C3179 C3171 1.503 1_554 S
C3179 C3178 1.370 . S
C3179 C3180 1.403 . S
C3180 C3179 1.403 . S
C3180 C3181 1.404 . S
C3180 C3183 1.539 . S
C3181 C3177 1.408 . S
C3181 C3180 1.404 . S
C3181 H3193 0.930 . S
C3182 C3178 1.524 . S
C3182 H3194 0.956 . S
C3182 H3195 0.961 . S
C3182 H3196 0.961 . S
C3183 C3180 1.539 . S
C3183 H3197 0.958 . S
C3183 H3198 0.961 . S
C3183 H3199 0.960 . S
H3184 C3168 0.931 . S
H3185 C3173 0.929 . S
H3186 C3174 0.960 1_554 S
H3187 C3174 0.962 . S
H3188 C3174 0.960 . S
H3189 C3175 0.961 . S
H3190 C3175 0.961 1_554 S
H3191 C3175 0.961 . S
H3192 C3176 0.931 . S
H3193 C3181 0.930 . S
H3194 C3182 0.956 . S
H3195 C3182 0.961 . S
H3196 C3182 0.961 . S
H3197 C3183 0.958 . S
H3198 C3183 0.961 . S
H3199 C3183 0.960 . S
C3200 C3201 1.391 . S
C3200 C3202 1.394 . S
C3200 H3216 0.931 . S
C3201 C3200 1.391 . S
C3201 C3205 1.376 . S
C3202 C3200 1.394 . S
C3202 C3203 1.369 . S
C3202 C3206 1.531 . S
C3203 C3202 1.369 . S
C3203 C3204 1.410 . S
C3203 C3211 1.503 1_554 S
C3204 C3203 1.410 . S
C3204 C3205 1.392 . S
C3204 C3207 1.511 . S
C3205 C3201 1.376 . S
C3205 C3204 1.392 . S
C3205 H3217 0.929 . S
C3206 C3202 1.531 . S
C3206 H3218 0.960 1_554 S
C3206 H3219 0.962 . S
C3206 H3220 0.960 . S
C3207 C3204 1.511 . S
C3207 H3221 0.961 . S
C3207 H3222 0.961 1_554 S
C3207 H3223 0.961 . S
C3208 C3209 1.370 . S
C3208 C3210 1.363 . S
C3208 H3224 0.931 . S
C3209 C3208 1.370 . S
C3209 C3213 1.408 . S
C3210 C3208 1.363 . S
C3210 C3211 1.370 . S
C3210 C3214 1.524 . S
C3211 C3203 1.503 1_556 S
C3211 C3210 1.370 . S
C3211 C3212 1.403 . S
C3212 C3211 1.403 . S
C3212 C3213 1.404 . S
C3212 C3215 1.539 . S
C3213 C3209 1.408 . S
C3213 C3212 1.404 . S
C3213 H3225 0.930 . S
C3214 C3210 1.524 . S
C3214 H3226 0.938 1_556 S
C3214 H3227 0.961 1_556 S
C3214 H3228 0.961 . S
C3215 C3212 1.539 . S
C3215 H3229 0.958 . S
C3215 H3230 0.961 . S
C3215 H3231 1.016 . S
H3216 C3200 0.931 . S
H3217 C3205 0.929 . S
H3218 C3206 0.960 1_556 S
H3219 C3206 0.962 . S
H3220 C3206 0.960 . S
H3221 C3207 0.961 . S
H3222 C3207 0.961 1_556 S
H3223 C3207 0.961 . S
H3224 C3208 0.931 . S
H3225 C3213 0.930 . S
H3226 C3214 0.938 1_554 S
H3227 C3214 0.961 1_554 S
H3228 C3214 0.961 . S
H3229 C3215 0.958 . S
H3230 C3215 0.961 . S
H3231 C3215 1.016 . S
C3232 C3233 1.391 . S
C3232 C3234 1.394 . S
C3232 H3248 0.931 . S
C3233 C3232 1.391 . S
C3233 C3237 1.376 . S
C3234 C3232 1.394 . S
C3234 C3235 1.369 . S
C3234 C3238 1.531 . S
C3235 C3234 1.369 . S
C3235 C3236 1.410 . S
C3235 C3243 1.503 1_455 S
C3236 C3235 1.410 . S
C3236 C3237 1.392 . S
C3236 C3239 1.511 . S
C3237 C3233 1.376 . S
C3237 C3236 1.392 . S
C3237 H3249 0.929 . S
C3238 C3234 1.531 . S
C3238 H3250 0.960 . S
C3238 H3251 0.962 . S
C3238 H3252 0.960 . S
C3239 C3236 1.511 . S
C3239 H3253 0.961 . S
C3239 H3254 1.007 . S
C3239 H3255 0.961 . S
C3240 C3241 1.370 . S
C3240 C3242 1.363 . S
C3240 H3256 0.931 . S
C3241 C3240 1.370 . S
C3241 C3245 1.408 . S
C3242 C3240 1.363 . S
C3242 C3243 1.370 . S
C3242 C3246 1.524 . S
C3243 C3235 1.503 1_655 S
C3243 C3242 1.370 . S
C3243 C3244 1.403 . S
C3244 C3243 1.403 . S
C3244 C3245 1.404 . S
C3244 C3247 1.539 . S
C3245 C3241 1.408 . S
C3245 C3244 1.404 . S
C3245 H3257 0.930 . S
C3246 C3242 1.524 . S
C3246 H3258 0.956 1_655 S
C3246 H3259 0.961 1_655 S
C3246 H3260 0.961 . S
C3247 C3244 1.539 . S
C3247 H3261 0.958 . S
C3247 H3262 0.961 . S
C3247 H3263 0.960 1_655 S
H3248 C3232 0.931 . S
H3249 C3237 0.929 . S
H3250 C3238 0.960 . S
H3251 C3238 0.962 . S
H3252 C3238 0.960 . S
H3253 C3239 0.961 . S
H3254 C3239 1.007 . S
H3255 C3239 0.961 . S
H3256 C3240 0.931 . S
H3257 C3245 0.930 . S
H3258 C3246 0.956 1_455 S
H3259 C3246 0.961 1_455 S
H3260 C3246 0.961 . S
H3261 C3247 0.958 . S
H3262 C3247 0.961 . S
H3263 C3247 0.960 1_455 S
C3264 C3265 1.391 . S
C3264 C3266 1.394 . S
C3264 H3280 0.931 . S
C3265 C3264 1.391 . S
C3265 C3269 1.376 . S
C3266 C3264 1.394 . S
C3266 C3267 1.369 . S
C3266 C3270 1.531 . S
C3267 C3266 1.369 . S
C3267 C3268 1.410 . S
C3267 C3275 1.503 1_565 S
C3268 C3267 1.410 . S
C3268 C3269 1.392 . S
C3268 C3271 1.511 . S
C3269 C3265 1.376 . S
C3269 C3268 1.392 . S
C3269 H3281 0.929 . S
C3270 C3266 1.531 . S
C3270 H3282 0.912 1_565 S
C3270 H3283 0.962 . S
C3270 H3284 0.960 . S
C3271 C3268 1.511 . S
C3271 H3285 0.961 . S
C3271 H3286 0.961 1_565 S
C3271 H3287 0.961 . S
C3272 C3273 1.370 . S
C3272 C3274 1.363 . S
C3272 H3288 0.931 . S
C3273 C3272 1.370 . S
C3273 C3277 1.408 . S
C3274 C3272 1.363 . S
C3274 C3275 1.370 . S
C3274 C3278 1.524 . S
C3275 C3267 1.503 1_545 S
C3275 C3274 1.370 . S
C3275 C3276 1.403 . S
C3276 C3275 1.403 . S
C3276 C3277 1.404 . S
C3276 C3279 1.539 . S
C3277 C3273 1.408 . S
C3277 C3276 1.404 . S
C3277 H3289 0.930 . S
C3278 C3274 1.524 . S
C3278 H3290 0.963 . S
C3278 H3291 0.937 1_545 S
C3278 H3292 0.961 . S
C3279 C3276 1.539 . S
C3279 H3293 0.958 . S
C3279 H3294 0.961 . S
C3279 H3295 0.960 . S
H3280 C3264 0.931 . S
H3281 C3269 0.929 . S
H3282 C3270 0.912 1_545 S
H3283 C3270 0.962 . S
H3284 C3270 0.960 . S
H3285 C3271 0.961 . S
H3286 C3271 0.961 1_545 S
H3287 C3271 0.961 . S
H3288 C3272 0.931 . S
H3289 C3277 0.930 . S
H3290 C3278 0.963 . S
H3291 C3278 0.937 1_565 S
H3292 C3278 0.961 . S
H3293 C3279 0.958 . S
H3294 C3279 0.961 . S
H3295 C3279 0.960 . S
C3296 C3297 1.391 . S
C3296 C3298 1.394 . S
C3296 H3312 0.931 . S
C3297 C3296 1.391 . S
C3297 C3301 1.376 . S
C3298 C3296 1.394 . S
C3298 C3299 1.369 . S
C3298 C3302 1.531 . S
C3299 C3298 1.369 . S
C3299 C3300 1.410 . S
C3299 C3307 1.503 1_455 S
C3300 C3299 1.410 . S
C3300 C3301 1.392 . S
C3300 C3303 1.511 . S
C3301 C3297 1.376 . S
C3301 C3300 1.392 . S
C3301 H3313 0.929 . S
C3302 C3298 1.531 . S
C3302 H3314 0.965 1_455 S
C3302 H3315 0.962 . S
C3302 H3316 0.960 . S
C3303 C3300 1.511 . S
C3303 H3317 0.961 . S
C3303 H3318 0.961 1_455 S
C3303 H3319 0.961 . S
C3304 C3305 1.370 . S
C3304 C3306 1.363 . S
C3304 H3320 0.931 . S
C3305 C3304 1.370 . S
C3305 C3309 1.408 . S
C3306 C3304 1.363 . S
C3306 C3307 1.370 . S
C3306 C3310 1.524 . S
C3307 C3299 1.503 1_655 S
C3307 C3306 1.370 . S
C3307 C3308 1.403 . S
C3308 C3307 1.403 . S
C3308 C3309 1.404 . S
C3308 C3311 1.539 . S
C3309 C3305 1.408 . S
C3309 C3308 1.404 . S
C3309 H3321 0.930 . S
C3310 C3306 1.524 . S
C3310 H3322 0.959 1_655 S
C3310 H3323 0.961 1_655 S
C3310 H3324 0.961 . S
C3311 C3308 1.539 . S
C3311 H3325 0.958 . S
C3311 H3326 0.961 . S
C3311 H3327 0.958 . S
H3312 C3296 0.931 . S
H3313 C3301 0.929 . S
H3314 C3302 0.965 1_655 S
H3315 C3302 0.962 . S
H3316 C3302 0.960 . S
H3317 C3303 0.961 . S
H3318 C3303 0.961 1_655 S
H3319 C3303 0.961 . S
H3320 C3304 0.931 . S
H3321 C3309 0.930 . S
H3322 C3310 0.959 1_455 S
H3323 C3310 0.961 1_455 S
H3324 C3310 0.961 . S
H3325 C3311 0.958 . S
H3326 C3311 0.961 . S
H3327 C3311 0.958 . S
C3328 C3329 1.391 . S
C3328 C3330 1.394 . S
C3328 H3344 0.931 . S
C3329 C3328 1.391 . S
C3329 C3333 1.376 . S
C3330 C3328 1.394 . S
C3330 C3331 1.369 . S
C3330 C3334 1.531 . S
C3331 C3330 1.369 . S
C3331 C3332 1.410 . S
C3331 C3339 1.503 1_565 S
C3332 C3331 1.410 . S
C3332 C3333 1.392 . S
C3332 C3335 1.511 . S
C3333 C3329 1.376 . S
C3333 C3332 1.392 . S
C3333 H3345 0.929 . S
C3334 C3330 1.531 . S
C3334 H3346 0.960 1_565 S
C3334 H3347 0.962 . S
C3334 H3348 0.960 . S
C3335 C3332 1.511 . S
C3335 H3349 0.961 . S
C3335 H3350 0.961 1_565 S
C3335 H3351 0.961 . S
C3336 C3337 1.370 . S
C3336 C3338 1.363 . S
C3336 H3352 0.931 . S
C3337 C3336 1.370 . S
C3337 C3341 1.408 . S
C3338 C3336 1.363 . S
C3338 C3339 1.370 . S
C3338 C3342 1.524 . S
C3339 C3331 1.503 1_545 S
C3339 C3338 1.370 . S
C3339 C3340 1.403 . S
C3340 C3339 1.403 . S
C3340 C3341 1.404 . S
C3340 C3343 1.539 . S
C3341 C3337 1.408 . S
C3341 C3340 1.404 . S
C3341 H3353 0.930 . S
C3342 C3338 1.524 . S
C3342 H3354 0.956 . S
C3342 H3355 0.961 . S
C3342 H3356 0.961 . S
C3343 C3340 1.539 . S
C3343 H3357 0.958 . S
C3343 H3358 0.961 . S
C3343 H3359 0.960 . S
H3344 C3328 0.931 . S
H3345 C3333 0.929 . S
H3346 C3334 0.960 1_545 S
H3347 C3334 0.962 . S
H3348 C3334 0.960 . S
H3349 C3335 0.961 . S
H3350 C3335 0.961 1_545 S
H3351 C3335 0.961 . S
H3352 C3336 0.931 . S
H3353 C3341 0.930 . S
H3354 C3342 0.956 . S
H3355 C3342 0.961 . S
H3356 C3342 0.961 . S
H3357 C3343 0.958 . S
H3358 C3343 0.961 . S
H3359 C3343 0.960 . S
C3360 C3361 1.391 . S
C3360 C3362 1.394 . S
C3360 H3376 0.931 . S
C3361 C3360 1.391 . S
C3361 C3365 1.376 . S
C3362 C3360 1.394 . S
C3362 C3363 1.369 . S
C3362 C3366 1.531 . S
C3363 C3362 1.369 . S
C3363 C3364 1.410 . S
C3363 C3371 1.503 1_655 S
C3364 C3363 1.410 . S
C3364 C3365 1.392 . S
C3364 C3367 1.511 . S
C3365 C3361 1.376 . S
C3365 C3364 1.392 . S
C3365 H3377 0.929 . S
C3366 C3362 1.531 . S
C3366 H3378 0.960 1_655 S
C3366 H3379 0.962 . S
C3366 H3380 0.960 . S
C3367 C3364 1.511 . S
C3367 H3381 0.961 . S
C3367 H3382 0.961 1_655 S
C3367 H3383 0.961 . S
C3368 C3369 1.370 . S
C3368 C3370 1.363 . S
C3368 H3384 0.931 . S
C3369 C3368 1.370 . S
C3369 C3373 1.408 . S
C3370 C3368 1.363 . S
C3370 C3371 1.370 . S
C3370 C3374 1.524 . S
C3371 C3363 1.503 1_455 S
C3371 C3370 1.370 . S
C3371 C3372 1.403 . S
C3372 C3371 1.403 . S
C3372 C3373 1.404 . S
C3372 C3375 1.539 . S
C3373 C3369 1.408 . S
C3373 C3372 1.404 . S
C3373 H3385 0.930 . S
C3374 C3370 1.524 . S
C3374 H3386 0.956 . S
C3374 H3387 0.961 . S
C3374 H3388 0.961 . S
C3375 C3372 1.539 . S
C3375 H3389 0.958 . S
C3375 H3390 0.961 . S
C3375 H3391 0.960 . S
H3376 C3360 0.931 . S
H3377 C3365 0.929 . S
H3378 C3366 0.960 1_455 S
H3379 C3366 0.962 . S
H3380 C3366 0.960 . S
H3381 C3367 0.961 . S
H3382 C3367 0.961 1_455 S
H3383 C3367 0.961 . S
H3384 C3368 0.931 . S
H3385 C3373 0.930 . S
H3386 C3374 0.956 . S
H3387 C3374 0.961 . S
H3388 C3374 0.961 . S
H3389 C3375 0.958 . S
H3390 C3375 0.961 . S
H3391 C3375 0.960 . S
C3392 C3393 1.391 . S
C3392 C3394 1.394 . S
C3392 H3408 0.931 . S
C3393 C3392 1.391 . S
C3393 C3397 1.376 . S
C3394 C3392 1.394 . S
C3394 C3395 1.369 . S
C3394 C3398 1.531 . S
C3395 C3394 1.369 . S
C3395 C3396 1.410 . S
C3395 C3403 1.503 1_545 S
C3396 C3395 1.410 . S
C3396 C3397 1.392 . S
C3396 C3399 1.511 . S
C3397 C3393 1.376 . S
C3397 C3396 1.392 . S
C3397 H3409 0.929 . S
C3398 C3394 1.531 . S
C3398 H3410 0.960 1_545 S
C3398 H3411 0.962 . S
C3398 H3412 0.960 . S
C3399 C3396 1.511 . S
C3399 H3413 0.961 . S
C3399 H3414 0.961 1_545 S
C3399 H3415 0.961 . S
C3400 C3401 1.370 . S
C3400 C3402 1.363 . S
C3400 H3416 0.931 . S
C3401 C3400 1.370 . S
C3401 C3405 1.408 . S
C3402 C3400 1.363 . S
C3402 C3403 1.370 . S
C3402 C3406 1.524 . S
C3403 C3395 1.503 1_565 S
C3403 C3402 1.370 . S
C3403 C3404 1.403 . S
C3404 C3403 1.403 . S
C3404 C3405 1.404 . S
C3404 C3407 1.539 . S
C3405 C3401 1.408 . S
C3405 C3404 1.404 . S
C3405 H3417 0.930 . S
C3406 C3402 1.524 . S
C3406 H3418 0.956 . S
C3406 H3419 0.961 . S
C3406 H3420 0.961 . S
C3407 C3404 1.539 . S
C3407 H3421 0.958 . S
C3407 H3422 0.961 . S
C3407 H3423 0.960 . S
H3408 C3392 0.931 . S
H3409 C3397 0.929 . S
H3410 C3398 0.960 1_565 S
H3411 C3398 0.962 . S
H3412 C3398 0.960 . S
H3413 C3399 0.961 . S
H3414 C3399 0.961 1_565 S
H3415 C3399 0.961 . S
H3416 C3400 0.931 . S
H3417 C3405 0.930 . S
H3418 C3406 0.956 . S
H3419 C3406 0.961 . S
H3420 C3406 0.961 . S
H3421 C3407 0.958 . S
H3422 C3407 0.961 . S
H3423 C3407 0.960 . S
C3424 C3425 1.391 . S
C3424 C3426 1.394 . S
C3424 H3440 0.931 . S
C3425 C3424 1.391 . S
C3425 C3429 1.376 . S
C3426 C3424 1.394 . S
C3426 C3427 1.369 . S
C3426 C3430 1.531 . S
C3427 C3426 1.369 . S
C3427 C3428 1.410 . S
C3427 C3435 1.503 1_455 S
C3428 C3427 1.410 . S
C3428 C3429 1.392 . S
C3428 C3431 1.511 . S
C3429 C3425 1.376 . S
C3429 C3428 1.392 . S
C3429 H3441 0.929 . S
C3430 C3426 1.531 . S
C3430 H3442 0.960 1_455 S
C3430 H3443 0.962 . S
C3430 H3444 0.960 . S
C3431 C3428 1.511 . S
C3431 H3445 0.961 . S
C3431 H3446 0.961 1_455 S
C3431 H3447 0.961 . S
C3432 C3433 1.370 . S
C3432 C3434 1.363 . S
C3432 H3448 0.931 . S
C3433 C3432 1.370 . S
C3433 C3437 1.408 . S
C3434 C3432 1.363 . S
C3434 C3435 1.370 . S
C3434 C3438 1.524 . S
C3435 C3427 1.503 1_655 S
C3435 C3434 1.370 . S
C3435 C3436 1.403 . S
C3436 C3435 1.403 . S
C3436 C3437 1.404 . S
C3436 C3439 1.539 . S
C3437 C3433 1.408 . S
C3437 C3436 1.404 . S
C3437 H3449 0.930 . S
C3438 C3434 1.524 . S
C3438 H3450 0.956 . S
C3438 H3451 0.961 . S
C3438 H3452 0.961 . S
C3439 C3436 1.539 . S
C3439 H3453 0.958 . S
C3439 H3454 0.961 . S
C3439 H3455 0.960 . S
H3440 C3424 0.931 . S
H3441 C3429 0.929 . S
H3442 C3430 0.960 1_655 S
H3443 C3430 0.962 . S
H3444 C3430 0.960 . S
H3445 C3431 0.961 . S
H3446 C3431 0.961 1_655 S
H3447 C3431 0.961 . S
H3448 C3432 0.931 . S
H3449 C3437 0.930 . S
H3450 C3438 0.956 . S
H3451 C3438 0.961 . S
H3452 C3438 0.961 . S
H3453 C3439 0.958 . S
H3454 C3439 0.961 . S
H3455 C3439 0.960 . S
C3456 C3457 1.391 . S
C3456 C3458 1.394 . S
C3456 H3472 0.931 . S
C3457 C3456 1.391 . S
C3457 C3461 1.376 . S
C3458 C3456 1.394 . S
C3458 C3459 1.369 . S
C3458 C3462 1.531 . S
C3459 C3458 1.369 . S
C3459 C3460 1.410 . S
C3459 C3467 1.503 1_545 S
C3460 C3459 1.410 . S
C3460 C3461 1.392 . S
C3460 C3463 1.511 . S
C3461 C3457 1.376 . S
C3461 C3460 1.392 . S
C3461 H3473 0.929 . S
C3462 C3458 1.531 . S
C3462 H3474 0.960 1_545 S
C3462 H3475 0.962 . S
C3462 H3476 0.960 . S
C3463 C3460 1.511 . S
C3463 H3477 0.961 . S
C3463 H3478 0.961 1_545 S
C3463 H3479 0.961 . S
C3464 C3465 1.370 . S
C3464 C3466 1.363 . S
C3464 H3480 0.931 . S
C3465 C3464 1.370 . S
C3465 C3469 1.408 . S
C3466 C3464 1.363 . S
C3466 C3467 1.370 . S
C3466 C3470 1.524 . S
C3467 C3459 1.503 1_565 S
C3467 C3466 1.370 . S
C3467 C3468 1.403 . S
C3468 C3467 1.403 . S
C3468 C3469 1.404 . S
C3468 C3471 1.539 . S
C3469 C3465 1.408 . S
C3469 C3468 1.404 . S
C3469 H3481 0.930 . S
C3470 C3466 1.524 . S
C3470 H3482 0.956 . S
C3470 H3483 0.936 1_565 S
C3470 H3484 0.961 . S
C3471 C3468 1.539 . S
C3471 H3485 0.958 . S
C3471 H3486 0.961 . S
C3471 H3487 0.960 . S
H3472 C3456 0.931 . S
H3473 C3461 0.929 . S
H3474 C3462 0.960 1_565 S
H3475 C3462 0.962 . S
H3476 C3462 0.960 . S
H3477 C3463 0.961 . S
H3478 C3463 0.961 1_565 S
H3479 C3463 0.961 . S
H3480 C3464 0.931 . S
H3481 C3469 0.930 . S
H3482 C3470 0.956 . S
H3483 C3470 0.936 1_545 S
H3484 C3470 0.961 . S
H3485 C3471 0.958 . S
H3486 C3471 0.961 . S
H3487 C3471 0.960 . S
C3488 C3489 1.391 . S
C3488 C3490 1.394 . S
C3488 H3504 0.931 . S
C3489 C3488 1.391 . S
C3489 C3493 1.376 . S
C3490 C3488 1.394 . S
C3490 C3491 1.369 . S
C3490 C3494 1.531 . S
C3491 C3490 1.369 . S
C3491 C3492 1.410 . S
C3491 C3499 1.503 1_545 S
C3492 C3491 1.410 . S
C3492 C3493 1.392 . S
C3492 C3495 1.511 . S
C3493 C3489 1.376 . S
C3493 C3492 1.392 . S
C3493 H3505 0.929 . S
C3494 C3490 1.531 . S
C3494 H3506 0.960 . S
C3494 H3507 0.962 . S
C3494 H3508 0.960 . S
C3495 C3492 1.511 . S
C3495 H3509 0.961 . S
C3495 H3510 0.961 . S
C3495 H3511 0.961 . S
C3496 C3497 1.370 . S
C3496 C3498 1.363 . S
C3496 H3512 0.931 . S
C3497 C3496 1.370 . S
C3497 C3501 1.408 . S
C3498 C3496 1.363 . S
C3498 C3499 1.370 . S
C3498 C3502 1.524 . S
C3499 C3491 1.503 1_565 S
C3499 C3498 1.370 . S
C3499 C3500 1.403 . S
C3500 C3499 1.403 . S
C3500 C3501 1.404 . S
C3500 C3503 1.539 . S
C3501 C3497 1.408 . S
C3501 C3500 1.404 . S
C3501 H3513 0.930 . S
C3502 C3498 1.524 . S
C3502 H3514 0.956 1_565 S
C3502 H3515 0.961 1_565 S
C3502 H3516 0.961 . S
C3503 C3500 1.539 . S
C3503 H3517 0.958 . S
C3503 H3518 0.961 . S
C3503 H3519 0.960 1_565 S
H3504 C3488 0.931 . S
H3505 C3493 0.929 . S
H3506 C3494 0.960 . S
H3507 C3494 0.962 . S
H3508 C3494 0.960 . S
H3509 C3495 0.961 . S
H3510 C3495 0.961 . S
H3511 C3495 0.961 . S
H3512 C3496 0.931 . S
H3513 C3501 0.930 . S
H3514 C3502 0.956 1_545 S
H3515 C3502 0.961 1_545 S
H3516 C3502 0.961 . S
H3517 C3503 0.958 . S
H3518 C3503 0.961 . S
H3519 C3503 0.960 1_545 S
C3520 C3521 1.391 . S
C3520 C3522 1.394 . S
C3520 H3536 0.931 . S
C3521 C3520 1.391 . S
C3521 C3525 1.376 . S
C3522 C3520 1.394 . S
C3522 C3523 1.369 . S
C3522 C3526 1.531 . S
C3523 C3522 1.369 . S
C3523 C3524 1.410 . S
C3523 C3531 1.503 1_545 S
C3524 C3523 1.410 . S
C3524 C3525 1.392 . S
C3524 C3527 1.511 . S
C3525 C3521 1.376 . S
C3525 C3524 1.392 . S
C3525 H3537 0.929 . S
C3526 C3522 1.531 . S
C3526 H3538 0.960 . S
C3526 H3539 0.962 . S
C3526 H3540 0.960 . S
C3527 C3524 1.511 . S
C3527 H3541 0.961 . S
C3527 H3542 0.961 . S
C3527 H3543 0.961 . S
C3528 C3529 1.370 . S
C3528 C3530 1.363 . S
C3528 H3544 0.931 . S
C3529 C3528 1.370 . S
C3529 C3533 1.408 . S
C3530 C3528 1.363 . S
C3530 C3531 1.370 . S
C3530 C3534 1.524 . S
C3531 C3523 1.503 1_565 S
C3531 C3530 1.370 . S
C3531 C3532 1.403 . S
C3532 C3531 1.403 . S
C3532 C3533 1.404 . S
C3532 C3535 1.539 . S
C3533 C3529 1.408 . S
C3533 C3532 1.404 . S
C3533 H3545 0.930 . S
C3534 C3530 1.524 . S
C3534 H3546 0.956 1_565 S
C3534 H3547 0.961 1_565 S
C3534 H3548 0.961 . S
C3535 C3532 1.539 . S
C3535 H3549 0.958 . S
C3535 H3550 0.961 . S
C3535 H3551 0.960 1_565 S
H3536 C3520 0.931 . S
H3537 C3525 0.929 . S
H3538 C3526 0.960 . S
H3539 C3526 0.962 . S
H3540 C3526 0.960 . S
H3541 C3527 0.961 . S
H3542 C3527 0.961 . S
H3543 C3527 0.961 . S
H3544 C3528 0.931 . S
H3545 C3533 0.930 . S
H3546 C3534 0.956 1_545 S
H3547 C3534 0.961 1_545 S
H3548 C3534 0.961 . S
H3549 C3535 0.958 . S
H3550 C3535 0.961 . S
H3551 C3535 0.960 1_545 S
C3552 C3553 1.391 . S
C3552 C3554 1.394 . S
C3552 H3568 0.931 . S
C3553 C3552 1.391 . S
C3553 C3557 1.376 . S
C3554 C3552 1.394 . S
C3554 C3555 1.369 . S
C3554 C3558 1.531 . S
C3555 C3554 1.369 . S
C3555 C3556 1.410 . S
C3555 C3563 1.503 1_655 S
C3556 C3555 1.410 . S
C3556 C3557 1.392 . S
C3556 C3559 1.511 . S
C3557 C3553 1.376 . S
C3557 C3556 1.392 . S
C3557 H3569 0.929 . S
C3558 C3554 1.531 . S
C3558 H3570 0.960 1_655 S
C3558 H3571 0.962 . S
C3558 H3572 0.960 . S
C3559 C3556 1.511 . S
C3559 H3573 0.961 . S
C3559 H3574 0.961 1_655 S
C3559 H3575 0.961 . S
C3560 C3561 1.370 . S
C3560 C3562 1.363 . S
C3560 H3576 0.931 . S
C3561 C3560 1.370 . S
C3561 C3565 1.408 . S
C3562 C3560 1.363 . S
C3562 C3563 1.370 . S
C3562 C3566 1.524 . S
C3563 C3555 1.503 1_455 S
C3563 C3562 1.370 . S
C3563 C3564 1.403 . S
C3564 C3563 1.403 . S
C3564 C3565 1.404 . S
C3564 C3567 1.539 . S
C3565 C3561 1.408 . S
C3565 C3564 1.404 . S
C3565 H3577 0.930 . S
C3566 C3562 1.524 . S
C3566 H3578 0.956 . S
C3566 H3579 0.961 . S
C3566 H3580 0.961 . S
C3567 C3564 1.539 . S
C3567 H3581 0.958 . S
C3567 H3582 0.961 . S
C3567 H3583 0.960 . S
H3568 C3552 0.931 . S
H3569 C3557 0.929 . S
H3570 C3558 0.960 1_455 S
H3571 C3558 0.962 . S
H3572 C3558 0.960 . S
H3573 C3559 0.961 . S
H3574 C3559 0.961 1_455 S
H3575 C3559 0.961 . S
H3576 C3560 0.931 . S
H3577 C3565 0.930 . S
H3578 C3566 0.956 . S
H3579 C3566 0.961 . S
H3580 C3566 0.961 . S
H3581 C3567 0.958 . S
H3582 C3567 0.961 . S
H3583 C3567 0.960 . S
C3584 C3585 1.391 . S
C3584 C3586 1.394 . S
C3584 H3600 0.931 . S
C3585 C3584 1.391 . S
C3585 C3589 1.376 . S
C3586 C3584 1.394 . S
C3586 C3587 1.369 . S
C3586 C3590 1.531 . S
C3587 C3586 1.369 . S
C3587 C3588 1.410 . S
C3587 C3595 1.503 1_545 S
C3588 C3587 1.410 . S
C3588 C3589 1.392 . S
C3588 C3591 1.511 . S
C3589 C3585 1.376 . S
C3589 C3588 1.392 . S
C3589 H3601 0.929 . S
C3590 C3586 1.531 . S
C3590 H3602 0.960 1_545 S
C3590 H3603 0.962 . S
C3590 H3604 0.960 . S
C3591 C3588 1.511 . S
C3591 H3605 0.961 . S
C3591 H3606 0.961 1_545 S
C3591 H3607 0.961 . S
C3592 C3593 1.370 . S
C3592 C3594 1.363 . S
C3592 H3608 0.931 . S
C3593 C3592 1.370 . S
C3593 C3597 1.408 . S
C3594 C3592 1.363 . S
C3594 C3595 1.370 . S
C3594 C3598 1.524 . S
C3595 C3587 1.503 1_565 S
C3595 C3594 1.370 . S
C3595 C3596 1.403 . S
C3596 C3595 1.403 . S
C3596 C3597 1.404 . S
C3596 C3599 1.539 . S
C3597 C3593 1.408 . S
C3597 C3596 1.404 . S
C3597 H3609 0.930 . S
C3598 C3594 1.524 . S
C3598 H3610 0.956 . S
C3598 H3611 0.961 . S
C3598 H3612 0.961 . S
C3599 C3596 1.539 . S
C3599 H3613 0.958 . S
C3599 H3614 0.961 . S
C3599 H3615 0.960 . S
H3600 C3584 0.931 . S
H3601 C3589 0.929 . S
H3602 C3590 0.960 1_565 S
H3603 C3590 0.962 . S
H3604 C3590 0.960 . S
H3605 C3591 0.961 . S
H3606 C3591 0.961 1_565 S
H3607 C3591 0.961 . S
H3608 C3592 0.931 . S
H3609 C3597 0.930 . S
H3610 C3598 0.956 . S
H3611 C3598 0.961 . S
H3612 C3598 0.961 . S
H3613 C3599 0.958 . S
H3614 C3599 0.961 . S
H3615 C3599 0.960 . S
C3616 C3617 1.391 . S
C3616 C3618 1.394 . S
C3616 H3632 0.931 . S
C3617 C3616 1.391 . S
C3617 C3621 1.376 . S
C3618 C3616 1.394 . S
C3618 C3619 1.369 . S
C3618 C3622 1.531 . S
C3619 C3618 1.369 . S
C3619 C3620 1.410 . S
C3619 C3627 1.503 1_455 S
C3620 C3619 1.410 . S
C3620 C3621 1.392 . S
C3620 C3623 1.511 . S
C3621 C3617 1.376 . S
C3621 C3620 1.392 . S
C3621 H3633 0.929 . S
C3622 C3618 1.531 . S
C3622 H3634 0.960 1_455 S
C3622 H3635 0.962 . S
C3622 H3636 0.960 . S
C3623 C3620 1.511 . S
C3623 H3637 0.961 . S
C3623 H3638 0.961 1_455 S
C3623 H3639 0.961 . S
C3624 C3625 1.370 . S
C3624 C3626 1.363 . S
C3624 H3640 0.931 . S
C3625 C3624 1.370 . S
C3625 C3629 1.408 . S
C3626 C3624 1.363 . S
C3626 C3627 1.370 . S
C3626 C3630 1.524 . S
C3627 C3619 1.503 1_655 S
C3627 C3626 1.370 . S
C3627 C3628 1.403 . S
C3628 C3627 1.403 . S
C3628 C3629 1.404 . S
C3628 C3631 1.539 . S
C3629 C3625 1.408 . S
C3629 C3628 1.404 . S
C3629 H3641 0.930 . S
C3630 C3626 1.524 . S
C3630 H3642 0.956 . S
C3630 H3643 0.961 . S
C3630 H3644 0.961 . S
C3631 C3628 1.539 . S
C3631 H3645 0.958 . S
C3631 H3646 0.961 . S
C3631 H3647 0.960 . S
H3632 C3616 0.931 . S
H3633 C3621 0.929 . S
H3634 C3622 0.960 1_655 S
H3635 C3622 0.962 . S
H3636 C3622 0.960 . S
H3637 C3623 0.961 . S
H3638 C3623 0.961 1_655 S
H3639 C3623 0.961 . S
H3640 C3624 0.931 . S
H3641 C3629 0.930 . S
H3642 C3630 0.956 . S
H3643 C3630 0.961 . S
H3644 C3630 0.961 . S
H3645 C3631 0.958 . S
H3646 C3631 0.961 . S
H3647 C3631 0.960 . S
C3648 C3649 1.391 . S
C3648 C3650 1.394 . S
C3648 H3664 0.931 . S
C3649 C3648 1.391 . S
C3649 C3653 1.376 . S
C3650 C3648 1.394 . S
C3650 C3651 1.369 . S
C3650 C3654 1.531 . S
C3651 C3650 1.369 . S
C3651 C3652 1.410 . S
C3651 C3659 1.503 1_545 S
C3652 C3651 1.410 . S
C3652 C3653 1.392 . S
C3652 C3655 1.511 . S
C3653 C3649 1.376 . S
C3653 C3652 1.392 . S
C3653 H3665 0.929 . S
C3654 C3650 1.531 . S
C3654 H3666 0.960 1_545 S
C3654 H3667 0.962 . S
C3654 H3668 0.960 . S
C3655 C3652 1.511 . S
C3655 H3669 0.961 . S
C3655 H3670 0.961 1_545 S
C3655 H3671 0.961 . S
C3656 C3657 1.370 . S
C3656 C3658 1.363 . S
C3656 H3672 0.931 . S
C3657 C3656 1.370 . S
C3657 C3661 1.408 . S
C3658 C3656 1.363 . S
C3658 C3659 1.370 . S
C3658 C3662 1.524 . S
C3659 C3651 1.503 1_565 S
C3659 C3658 1.370 . S
C3659 C3660 1.403 . S
C3660 C3659 1.403 . S
C3660 C3661 1.404 . S
C3660 C3663 1.539 . S
C3661 C3657 1.408 . S
C3661 C3660 1.404 . S
C3661 H3673 0.930 . S
C3662 C3658 1.524 . S
C3662 H3674 0.956 . S
C3662 H3675 0.961 . S
C3662 H3676 0.961 . S
C3663 C3660 1.539 . S
C3663 H3677 0.958 . S
C3663 H3678 0.961 . S
C3663 H3679 0.960 . S
H3664 C3648 0.931 . S
H3665 C3653 0.929 . S
H3666 C3654 0.960 1_565 S
H3667 C3654 0.962 . S
H3668 C3654 0.960 . S
H3669 C3655 0.961 . S
H3670 C3655 0.961 1_565 S
H3671 C3655 0.961 . S
H3672 C3656 0.931 . S
H3673 C3661 0.930 . S
H3674 C3662 0.956 . S
H3675 C3662 0.961 . S
H3676 C3662 0.961 . S
H3677 C3663 0.958 . S
H3678 C3663 0.961 . S
H3679 C3663 0.960 . S
C3680 C3681 1.391 . S
C3680 C3682 1.394 . S
C3680 H3696 0.931 . S
C3681 C3680 1.391 . S
C3681 C3685 1.376 . S
C3682 C3680 1.394 . S
C3682 C3683 1.369 . S
C3682 C3686 1.531 . S
C3683 C3682 1.369 . S
C3683 C3684 1.410 . S
C3683 C3691 1.503 1_655 S
C3684 C3683 1.410 . S
C3684 C3685 1.392 . S
C3684 C3687 1.511 . S
C3685 C3681 1.376 . S
C3685 C3684 1.392 . S
C3685 H3697 0.929 . S
C3686 C3682 1.531 . S
C3686 H3698 0.960 1_655 S
C3686 H3699 0.962 . S
C3686 H3700 0.960 . S
C3687 C3684 1.511 . S
C3687 H3701 0.961 . S
C3687 H3702 0.961 1_655 S
C3687 H3703 0.961 . S
C3688 C3689 1.370 . S
C3688 C3690 1.363 . S
C3688 H3704 0.931 . S
C3689 C3688 1.370 . S
C3689 C3693 1.408 . S
C3690 C3688 1.363 . S
C3690 C3691 1.370 . S
C3690 C3694 1.524 . S
C3691 C3683 1.503 1_455 S
C3691 C3690 1.370 . S
C3691 C3692 1.403 . S
C3692 C3691 1.403 . S
C3692 C3693 1.404 . S
C3692 C3695 1.539 . S
C3693 C3689 1.408 . S
C3693 C3692 1.404 . S
C3693 H3705 0.930 . S
C3694 C3690 1.524 . S
C3694 H3706 0.983 . S
C3694 H3707 0.961 1_455 S
C3694 H3708 0.961 . S
C3695 C3692 1.539 . S
C3695 H3709 0.958 . S
C3695 H3710 0.961 . S
C3695 H3711 0.964 . S
H3696 C3680 0.931 . S
H3697 C3685 0.929 . S
H3698 C3686 0.960 1_455 S
H3699 C3686 0.962 . S
H3700 C3686 0.960 . S
H3701 C3687 0.961 . S
H3702 C3687 0.961 1_455 S
H3703 C3687 0.961 . S
H3704 C3688 0.931 . S
H3705 C3693 0.930 . S
H3706 C3694 0.983 . S
H3707 C3694 0.961 1_655 S
H3708 C3694 0.961 . S
H3709 C3695 0.958 . S
H3710 C3695 0.961 . S
H3711 C3695 0.964 . S
C3712 C3713 1.391 . S
C3712 C3714 1.394 . S
C3712 H3728 0.931 . S
C3713 C3712 1.391 . S
C3713 C3717 1.376 . S
C3714 C3712 1.394 . S
C3714 C3715 1.369 . S
C3714 C3718 1.531 . S
C3715 C3714 1.369 . S
C3715 C3716 1.410 . S
C3715 C3723 1.503 1_455 S
C3716 C3715 1.410 . S
C3716 C3717 1.392 . S
C3716 C3719 1.511 . S
C3717 C3713 1.376 . S
C3717 C3716 1.392 . S
C3717 H3729 0.929 . S
C3718 C3714 1.531 . S
C3718 H3730 0.960 1_455 S
C3718 H3731 0.962 . S
C3718 H3732 0.960 . S
C3719 C3716 1.511 . S
C3719 H3733 0.961 . S
C3719 H3734 0.961 1_455 S
C3719 H3735 0.961 . S
C3720 C3721 1.370 . S
C3720 C3722 1.363 . S
C3720 H3736 0.931 . S
C3721 C3720 1.370 . S
C3721 C3725 1.408 . S
C3722 C3720 1.363 . S
C3722 C3723 1.370 . S
C3722 C3726 1.524 . S
C3723 C3715 1.503 1_655 S
C3723 C3722 1.370 . S
C3723 C3724 1.403 . S
C3724 C3723 1.403 . S
C3724 C3725 1.404 . S
C3724 C3727 1.539 . S
C3725 C3721 1.408 . S
C3725 C3724 1.404 . S
C3725 H3737 0.930 . S
C3726 C3722 1.524 . S
C3726 H3738 0.956 . S
C3726 H3739 0.954 1_655 S
C3726 H3740 0.961 . S
C3727 C3724 1.539 . S
C3727 H3741 0.958 . S
C3727 H3742 0.961 . S
C3727 H3743 0.963 . S
H3728 C3712 0.931 . S
H3729 C3717 0.929 . S
H3730 C3718 0.960 1_655 S
H3731 C3718 0.962 . S
H3732 C3718 0.960 . S
H3733 C3719 0.961 . S
H3734 C3719 0.961 1_655 S
H3735 C3719 0.961 . S
H3736 C3720 0.931 . S
H3737 C3725 0.930 . S
H3738 C3726 0.956 . S
H3739 C3726 0.954 1_455 S
H3740 C3726 0.961 . S
H3741 C3727 0.958 . S
H3742 C3727 0.961 . S
H3743 C3727 0.963 . S
C673 C554 1.288 . S
C681 C3 1.281 . S
C705 C22 1.307 . S
C713 C507 1.306 . S
C737 C31 1.260 . S
C745 C526 1.276 . S
C769 C540 1.264 . S
C777 C50 1.266 . S
C801 C470 1.191 . S
C809 C59 1.192 . S
C833 C73 1.324 . S
C841 C484 1.321 . S
C865 C87 1.203 . S
C873 C493 1.205 . S
C897 C101 1.338 . S
C905 C451 1.350 . S
C929 C120 1.344 . S
C937 C437 1.351 . S
C961 C400 1.239 . S
C969 C129 1.233 . S
C993 C409 1.297 . S
C1001 C148 1.295 . S
C1025 C157 1.214 . S
C1033 C428 1.229 . S
C1057 C176 1.201 . S
C1065 C358 1.199 . S
C1089 C185 1.234 . S
C1097 C367 1.239 . S
C1121 C386 1.132 . S
C1129 C204 1.137 . S
C1153 C339 1.307 . S
C1161 C213 1.316 . S
C1185 C232 1.350 . S
C1193 C624 1.355 . S
C1217 C661 1.331 . S
C1225 C241 1.332 . S
C1249 C638 1.323 . S
C1257 C260 1.323 . S
C1281 C647 1.252 . S
C1289 C269 1.251 . S
C1313 C568 1.298 . S
C1321 C288 1.299 . S
C1345 C596 1.331 . S
C1353 C302 1.332 . S
C1377 C316 1.223 . S
C1385 C605 1.214 . S
C1409 C577 1.140 . S
C1417 C330 1.154 . S
C1441 C456 1.269 . S
C1449 C283 1.277 . S
C1473 C246 1.311 . S
C1481 C465 1.306 . S
C1505 C479 1.298 . S
C1513 C255 1.298 . S
C1537 C498 1.265 . S
C1545 C274 1.271 . S
C1569 C325 1.185 . S
C1577 C512 1.195 . S
C1601 C521 1.345 . S
C1609 C297 1.340 . S
C1633 C311 1.216 . S
C1641 C535 1.217 . S
C1665 C227 1.355 . S
C1673 C549 1.356 . S
C1697 C563 1.337 . S
C1705 C218 1.356 . S
C1729 C171 1.233 . S
C1737 C666 1.248 . S
C1761 C633 1.310 . S
C1769 C190 1.304 . S
C1793 C199 1.172 . S
C1801 C652 1.165 . S
C1825 C134 1.124 . S
C1833 C582 1.131 . S
C1857 C143 1.240 . S
C1865 C591 1.244 . S
C1889 C162 1.159 . S
C1897 C610 1.157 . S
C1921 C619 1.310 . S
C1929 C115 1.318 . S
C1953 C344 1.351 . S
C1961 C106 1.356 . S
C1985 C395 1.306 . S
C1993 C17 1.314 . S
C2017 C414 1.279 . S
C2025 C36 1.287 . S
C2049 C423 1.244 . S
C2057 C45 1.253 . S
C2081 C442 1.290 . S
C2089 C8 1.293 . S
C2113 C78 1.302 . S
C2121 C372 1.301 . S
C2145 C381 1.188 . S
C2153 C92 1.202 . S
C2177 C353 1.143 . S
C2185 C64 1.161 . S
C2209 C7 1.465 . S
C2217 C371 1.483 . S
C2241 C387 1.417 . S
C2249 C23 1.408 . S
C2273 C35 1.510 . S
C2281 C343 1.501 . S
C2305 C51 1.371 . S
C2313 C359 1.383 . S
C2337 C63 1.414 . S
C2345 C429 1.445 . S
C2369 C441 1.516 . S
C2377 C77 1.507 . S
C2401 C91 1.464 . S
C2409 C401 1.445 . S
C2433 C413 1.527 . S
C2441 C105 1.517 . S
C2465 C121 1.546 . S
C2473 C511 1.532 . S
C2497 C527 1.475 . S
C2505 C133 1.457 . S
C2529 C149 1.492 . S
C2537 C541 1.492 . S
C2561 C161 1.465 . S
C2569 C555 1.473 . S
C2593 C177 1.503 . S
C2601 C455 1.478 . S
C2625 C189 1.419 . S
C2633 C471 1.448 . S
C2657 C485 1.417 . S
C2665 C205 1.427 . S
C2689 C217 1.469 . S
C2697 C497 1.491 . S
C2721 C609 1.454 . S
C2729 C233 1.484 . S
C2753 C245 1.466 . S
C2761 C639 1.492 . S
C2785 C261 1.481 . S
C2793 C651 1.504 . S
C2817 C569 1.441 . S
C2825 C273 1.437 . S
C2849 C665 1.474 . S
C2857 C289 1.504 . S
C2881 C303 1.437 . S
C2889 C581 1.449 . S
C2913 C597 1.450 . S
C2921 C317 1.458 . S
C2945 C331 1.444 . S
C2953 C625 1.456 . S
C2977 C595 1.500 . S
C2985 C287 1.500 . S
C3009 C247 1.420 . S
C3017 C611 1.414 . S
C3041 C623 1.485 . S
C3049 C259 1.497 . S
C3073 C583 1.388 . S
C3081 C275 1.390 . S
C3105 C653 1.438 . S
C3113 C329 1.445 . S
C3137 C301 1.500 . S
C3145 C567 1.506 . S
C3169 C667 1.471 . S
C3177 C315 1.450 . S
C3201 C231 1.512 . S
C3209 C637 1.513 . S
C3233 C469 1.546 . S
C3241 C219 1.526 . S
C3265 C175 1.460 . S
C3273 C483 1.467 . S
C3297 C191 1.465 . S
C3305 C499 1.481 . S
C3329 C457 1.443 . S
C3337 C203 1.428 . S
C3361 C135 1.476 . S
C3369 C553 1.450 . S
C3393 C513 1.463 . S
C3401 C147 1.449 . S
C3425 C163 1.436 . S
C3433 C525 1.451 . S
C3457 C119 1.512 . S
C3465 C539 1.508 . S
C3489 C385 1.451 . S
C3497 C107 1.481 . S
C3521 C21 1.486 . S
C3529 C415 1.472 . S
C3553 C37 1.488 . S
C3561 C427 1.485 . S
C3585 C443 1.452 . S
C3593 C49 1.434 . S
C3617 C9 1.501 . S
C3625 C399 1.487 . S
C3649 C79 1.420 . S
C3657 C357 1.428 . S
C3681 C93 1.475 . S
C3689 C373 1.468 . S
C3713 C65 1.441 . S
C3721 C345 1.454 . S
