# Generated by pormake.
# Topology ukk, (4)-cn, num edge types: 1
# Building blocks:
#     Node 0, Type 0, BuildingBlock: NAWXER_clean_sbu_0, # of connection points: 4
#     Node 1, Type 0, BuildingBlock: NAWXER_clean_sbu_0, # of connection points: 4
#     Node 2, Type 0, BuildingBlock: NAWXER_clean_sbu_0, # of connection points: 4
#     Node 3, Type 0, BuildingBlock: NAWXER_clean_sbu_0, # of connection points: 4
#     Node 4, Type 0, BuildingBlock: NAWXER_clean_sbu_0, # of connection points: 4
#     Node 5, Type 0, BuildingBlock: NAWXER_clean_sbu_0, # of connection points: 4
#     Node 6, Type 0, BuildingBlock: NAWXER_clean_sbu_0, # of connection points: 4
#     Node 7, Type 0, BuildingBlock: NAWXER_clean_sbu_0, # of connection points: 4
#     Node 8, Type 0, BuildingBlock: NAWXER_clean_sbu_0, # of connection points: 4
#     Node 9, Type 0, BuildingBlock: NAWXER_clean_sbu_0, # of connection points: 4
#     Node 10, Type 0, BuildingBlock: NAWXER_clean_sbu_0, # of connection points: 4
#     Node 11, Type 0, BuildingBlock: NAWXER_clean_sbu_0, # of connection points: 4
#     Node 12, Type 0, BuildingBlock: NAWXER_clean_sbu_0, # of connection points: 4
#     Node 13, Type 0, BuildingBlock: NAWXER_clean_sbu_0, # of connection points: 4
#     Node 14, Type 0, BuildingBlock: NAWXER_clean_sbu_0, # of connection points: 4
#     Node 15, Type 0, BuildingBlock: NAWXER_clean_sbu_0, # of connection points: 4
#     Edge 16, Type (0, 0), BuildingBlock: AJUNOK_clean_linker_0, # of connection points: 2
#     Edge 17, Type (0, 0), BuildingBlock: AJUNOK_clean_linker_0, # of connection points: 2
#     Edge 18, Type (0, 0), BuildingBlock: AJUNOK_clean_linker_0, # of connection points: 2
#     Edge 19, Type (0, 0), BuildingBlock: AJUNOK_clean_linker_0, # of connection points: 2
#     Edge 20, Type (0, 0), BuildingBlock: AJUNOK_clean_linker_0, # of connection points: 2
#     Edge 21, Type (0, 0), BuildingBlock: AJUNOK_clean_linker_0, # of connection points: 2
#     Edge 22, Type (0, 0), BuildingBlock: AJUNOK_clean_linker_0, # of connection points: 2
#     Edge 23, Type (0, 0), BuildingBlock: AJUNOK_clean_linker_0, # of connection points: 2
#     Edge 24, Type (0, 0), BuildingBlock: AJUNOK_clean_linker_0, # of connection points: 2
#     Edge 25, Type (0, 0), BuildingBlock: AJUNOK_clean_linker_0, # of connection points: 2
#     Edge 26, Type (0, 0), BuildingBlock: AJUNOK_clean_linker_0, # of connection points: 2
#     Edge 27, Type (0, 0), BuildingBlock: AJUNOK_clean_linker_0, # of connection points: 2
#     Edge 28, Type (0, 0), BuildingBlock: AJUNOK_clean_linker_0, # of connection points: 2
#     Edge 29, Type (0, 0), BuildingBlock: AJUNOK_clean_linker_0, # of connection points: 2
#     Edge 30, Type (0, 0), BuildingBlock: AJUNOK_clean_linker_0, # of connection points: 2
#     Edge 31, Type (0, 0), BuildingBlock: AJUNOK_clean_linker_0, # of connection points: 2
#     Edge 32, Type (0, 0), BuildingBlock: AJUNOK_clean_linker_0, # of connection points: 2
#     Edge 33, Type (0, 0), BuildingBlock: AJUNOK_clean_linker_0, # of connection points: 2
#     Edge 34, Type (0, 0), BuildingBlock: AJUNOK_clean_linker_0, # of connection points: 2
#     Edge 35, Type (0, 0), BuildingBlock: AJUNOK_clean_linker_0, # of connection points: 2
#     Edge 36, Type (0, 0), BuildingBlock: AJUNOK_clean_linker_0, # of connection points: 2
#     Edge 37, Type (0, 0), BuildingBlock: AJUNOK_clean_linker_0, # of connection points: 2
#     Edge 38, Type (0, 0), BuildingBlock: AJUNOK_clean_linker_0, # of connection points: 2
#     Edge 39, Type (0, 0), BuildingBlock: AJUNOK_clean_linker_0, # of connection points: 2
#     Edge 40, Type (0, 0), BuildingBlock: AJUNOK_clean_linker_0, # of connection points: 2
#     Edge 41, Type (0, 0), BuildingBlock: AJUNOK_clean_linker_0, # of connection points: 2
#     Edge 42, Type (0, 0), BuildingBlock: AJUNOK_clean_linker_0, # of connection points: 2
#     Edge 43, Type (0, 0), BuildingBlock: AJUNOK_clean_linker_0, # of connection points: 2
#     Edge 44, Type (0, 0), BuildingBlock: AJUNOK_clean_linker_0, # of connection points: 2
#     Edge 45, Type (0, 0), BuildingBlock: AJUNOK_clean_linker_0, # of connection points: 2
#     Edge 46, Type (0, 0), BuildingBlock: AJUNOK_clean_linker_0, # of connection points: 2
#     Edge 47, Type (0, 0), BuildingBlock: AJUNOK_clean_linker_0, # of connection points: 2
# Relax obj value: 0.021
# Max RMSD: 0.113
# Mean RMSD: 0.113
data_MOF--net-ukk--node1-NAWXER_clean_sbu_0--edge1-AJUNOK_clean_linker_0
_symmetry_space_group_name_H-M    P1
_symmetry_Int_Tables_number       1
_symmetry_cell_setting            triclinic
loop_
_symmetry_equiv_pos_as_xyz
'x, y, z'
_cell_length_a     41.84592
_cell_length_b     41.847644
_cell_length_c     9.0095985
_cell_angle_alpha  89.977982
_cell_angle_beta   89.998464
_cell_angle_gamma 89.995459
loop_
_atom_site_label
_atom_site_type_symbol
_atom_site_fract_x
_atom_site_fract_y
_atom_site_fract_z
_atom_type_partial_charge
C0 C 0.36831 0.19225 0.18406 0.0
C1 C 0.37693 0.07881 0.31709 0.0
O2 O 0.37529 0.17413 0.07414 0.0
Zn3 Zn 0.38389 0.12462 0.03119 0.0
O4 O 0.3649 0.17993 0.31233 0.0
Zn5 Zn 0.37324 0.1358 0.2588 0.0
O6 O 0.42248 0.13776 0.20056 0.0
O7 O 0.42875 0.12471 0.96576 0.0
O8 O 0.37226 0.1017 0.40741 0.0
O9 O 0.38153 0.08477 0.17916 0.0
O10 O 0.34897 0.1148 0.89622 0.0
O11 O 0.33253 0.12498 0.12393 0.0
C12 C 0.44087 0.13352 0.08872 0.0
C13 C 0.3262 0.11735 0.98942 0.0
C14 C 0.13108 0.58159 0.91578 0.0
C15 C 0.11962 0.69521 0.04202 0.0
O16 O 0.12423 0.59241 0.04392 0.0
Zn17 Zn 0.12563 0.63791 0.98916 0.0
O18 O 0.13645 0.60117 0.80958 0.0
Zn19 Zn 0.13742 0.65074 0.76319 0.0
O20 O 0.18214 0.65789 0.71415 0.0
O21 O 0.17521 0.64569 0.94986 0.0
O22 O 0.12735 0.68997 0.90661 0.0
O23 O 0.11617 0.67167 0.13034 0.0
O24 O 0.08616 0.64258 0.84015 0.0
O25 O 0.1034 0.65423 0.61454 0.0
C26 C 0.19386 0.65323 0.84282 0.0
C27 C 0.08038 0.64875 0.70341 0.0
C28 C 0.57891 0.89321 0.08098 0.0
C29 C 0.69277 0.90253 0.9579 0.0
O30 O 0.59778 0.88895 0.19112 0.0
Zn31 Zn 0.64761 0.88737 0.23882 0.0
O32 O 0.59042 0.89789 0.95215 0.0
Zn33 Zn 0.63548 0.89687 0.01161 0.0
O34 O 0.64306 0.84764 0.06081 0.0
O35 O 0.65441 0.84335 0.29853 0.0
O36 O 0.6692 0.90508 0.86929 0.0
O37 O 0.68752 0.8961 0.09493 0.0
O38 O 0.65119 0.92215 0.3822 0.0
O39 O 0.6399 0.93782 0.15359 0.0
C40 C 0.65015 0.83019 0.17285 0.0
C41 C 0.64585 0.94452 0.28975 0.0
C42 C 0.89225 0.44431 0.92949 0.0
C43 C 0.9054 0.32999 0.0374 0.0
O44 O 0.89859 0.43233 0.05601 0.0
Zn45 Zn 0.89862 0.38756 0.9919 0.0
O46 O 0.88816 0.42572 0.81801 0.0
Zn47 Zn 0.88824 0.37614 0.7635 0.0
O48 O 0.84396 0.36867 0.70754 0.0
O49 O 0.84948 0.37922 0.94573 0.0
O50 O 0.89812 0.33597 0.90208 0.0
O51 O 0.90825 0.35305 0.12867 0.0
O52 O 0.9387 0.38558 0.84551 0.0
O53 O 0.92301 0.37381 0.61827 0.0
C54 C 0.83152 0.37218 0.8355 0.0
C55 C 0.94545 0.38027 0.70886 0.0
C56 C 0.44245 0.38685 0.15353 0.0
C57 C 0.32928 0.40438 0.27817 0.0
O58 O 0.42276 0.38341 0.04591 0.0
Zn59 Zn 0.37308 0.38603 0.99759 0.0
O60 O 0.43185 0.39491 0.28067 0.0
Zn61 Zn 0.38651 0.39655 0.22515 0.0
O62 O 0.37637 0.34779 0.18168 0.0
O63 O 0.36381 0.34156 0.94579 0.0
O64 O 0.35295 0.40708 0.36624 0.0
O65 O 0.3343 0.39691 0.14228 0.0
O66 O 0.37133 0.42141 0.85315 0.0
O67 O 0.38497 0.43625 0.07908 0.0
C68 C 0.36797 0.32959 0.07453 0.0
C69 C 0.37918 0.44346 0.94353 0.0
C70 C 0.38966 0.5799 0.81431 0.0
C71 C 0.40527 0.6953 0.73005 0.0
O72 O 0.39528 0.59269 0.68861 0.0
Zn73 Zn 0.39728 0.63706 0.76157 0.0
O74 O 0.38713 0.59774 0.92933 0.0
Zn75 Zn 0.38932 0.64659 0.99498 0.0
O76 O 0.34554 0.6543 0.06046 0.0
O77 O 0.34884 0.64558 0.81981 0.0
O78 O 0.39904 0.68787 0.86479 0.0
O79 O 0.40657 0.6733 0.63248 0.0
O80 O 0.43855 0.63551 0.90035 0.0
O81 O 0.42577 0.64586 0.13264 0.0
C82 C 0.33191 0.65173 0.93462 0.0
C83 C 0.44691 0.63876 0.03632 0.0
C84 C 0.69802 0.61803 0.27346 0.0
C85 C 0.58292 0.62927 0.17211 0.0
O86 O 0.69136 0.6255 0.13914 0.0
Zn87 Zn 0.65067 0.63547 0.00454 0.0
O88 O 0.67544 0.61529 0.36757 0.0
Zn89 Zn 0.63993 0.62465 0.23452 0.0
O90 O 0.64174 0.58491 0.08678 0.0
O91 O 0.65257 0.60073 0.85851 0.0
O92 O 0.59499 0.62366 0.29929 0.0
O93 O 0.60138 0.63414 0.06105 0.0
O94 O 0.65693 0.68022 0.95092 0.0
O95 O 0.64699 0.67383 0.1892 0.0
C96 C 0.64643 0.57825 0.94964 0.0
C97 C 0.65332 0.69224 0.0797 0.0
C98 C 0.63405 0.44255 0.8106 0.0
C99 C 0.62139 0.32838 0.69706 0.0
O100 O 0.62786 0.43077 0.68363 0.0
Zn101 Zn 0.62743 0.38588 0.74655 0.0
O102 O 0.63724 0.42378 0.92206 0.0
Zn103 Zn 0.63597 0.3742 0.97557 0.0
O104 O 0.67951 0.3666 0.04054 0.0
O105 O 0.67636 0.37783 0.80202 0.0
O106 O 0.6274 0.33405 0.83405 0.0
O107 O 0.61937 0.35166 0.60648 0.0
O108 O 0.58598 0.383 0.88465 0.0
O109 O 0.60025 0.37199 0.11505 0.0
C110 C 0.69325 0.37078 0.916 0.0
C111 C 0.57841 0.3775 0.02016 0.0
C112 C 0.87046 0.69341 0.65666 0.0
C113 C 0.88343 0.58011 0.78743 0.0
O114 O 0.87863 0.67546 0.54814 0.0
Zn115 Zn 0.8891 0.62664 0.50393 0.0
O116 O 0.86685 0.68123 0.78525 0.0
Zn117 Zn 0.87656 0.63721 0.73139 0.0
O118 O 0.92607 0.64094 0.67821 0.0
O119 O 0.93412 0.62884 0.44317 0.0
O120 O 0.87579 0.60235 0.87703 0.0
O121 O 0.88865 0.58694 0.6509 0.0
O122 O 0.85509 0.61572 0.36575 0.0
O123 O 0.83712 0.62588 0.59079 0.0
C124 C 0.9452 0.63773 0.5682 0.0
C125 C 0.83169 0.61826 0.45543 0.0
C126 C 0.63561 0.08028 0.41188 0.0
C127 C 0.61999 0.19482 0.51319 0.0
O128 O 0.62776 0.09218 0.53673 0.0
Zn129 Zn 0.62656 0.13704 0.47157 0.0
O130 O 0.63847 0.09872 0.29932 0.0
Zn131 Zn 0.6355 0.1477 0.2405 0.0
O132 O 0.67934 0.15601 0.17819 0.0
O133 O 0.6754 0.14569 0.41737 0.0
O134 O 0.6262 0.18827 0.3774 0.0
O135 O 0.61819 0.1722 0.60762 0.0
O136 O 0.5853 0.13898 0.33325 0.0
O137 O 0.59943 0.14832 0.10109 0.0
C138 C 0.69266 0.15258 0.30441 0.0
C139 C 0.57766 0.14344 0.1971 0.0
C140 C 0.08148 0.38793 0.56813 0.0
C141 C 0.19612 0.40341 0.46706 0.0
O142 O 0.09999 0.38556 0.68095 0.0
Zn143 Zn 0.14922 0.38788 0.73968 0.0
O144 O 0.09354 0.39332 0.44072 0.0
Zn145 Zn 0.13828 0.39524 0.50703 0.0
O146 O 0.14735 0.34707 0.56651 0.0
O147 O 0.15755 0.34434 0.80613 0.0
O148 O 0.1735 0.4043 0.37242 0.0
O149 O 0.18963 0.39746 0.60313 0.0
O150 O 0.14942 0.42468 0.87523 0.0
O151 O 0.13798 0.43671 0.6432 0.0
C152 C 0.15433 0.33044 0.68126 0.0
C153 C 0.14226 0.44556 0.77773 0.0
C154 C 0.38595 0.94357 0.45452 0.0
C155 C 0.40544 0.82973 0.55978 0.0
O156 O 0.39432 0.93218 0.57979 0.0
Zn157 Zn 0.39684 0.88738 0.51577 0.0
O158 O 0.38306 0.92476 0.34322 0.0
Zn159 Zn 0.38702 0.87544 0.28673 0.0
O160 O 0.34309 0.86592 0.22997 0.0
O161 O 0.34808 0.87715 0.46792 0.0
O162 O 0.39816 0.83565 0.42448 0.0
O163 O 0.40771 0.85281 0.65132 0.0
O164 O 0.43682 0.88861 0.37051 0.0
O165 O 0.42239 0.87569 0.14321 0.0
C166 C 0.33045 0.8693 0.35775 0.0
C167 C 0.44409 0.88426 0.23396 0.0
C168 C 0.82586 0.90403 0.76595 0.0
C169 C 0.94067 0.89289 0.66189 0.0
O170 O 0.83229 0.89741 0.63046 0.0
Zn171 Zn 0.87286 0.88819 0.49382 0.0
O172 O 0.8486 0.90641 0.85927 0.0
Zn173 Zn 0.88374 0.89766 0.72374 0.0
O174 O 0.88217 0.9383 0.5798 0.0
O175 O 0.87109 0.92331 0.3506 0.0
O176 O 0.92853 0.89798 0.78932 0.0
O177 O 0.92226 0.88872 0.54997 0.0
O178 O 0.86599 0.84413 0.4342 0.0
O179 O 0.87623 0.84861 0.67305 0.0
C180 C 0.87748 0.94542 0.44302 0.0
C181 C 0.86965 0.83109 0.56069 0.0
C182 C 0.89092 0.08127 0.30981 0.0
C183 C 0.90555 0.19605 0.2119 0.0
O184 O 0.89864 0.09337 0.18517 0.0
Zn185 Zn 0.89851 0.13826 0.2505 0.0
O186 O 0.88643 0.09974 0.42113 0.0
Zn187 Zn 0.88707 0.14875 0.47971 0.0
O188 O 0.84237 0.15632 0.53074 0.0
O189 O 0.84917 0.14648 0.29264 0.0
O190 O 0.89779 0.18938 0.34584 0.0
O191 O 0.90825 0.17357 0.1173 0.0
O192 O 0.93819 0.14057 0.39905 0.0
O193 O 0.92149 0.14997 0.6276 0.0
C194 C 0.83061 0.15317 0.40111 0.0
C195 C 0.94432 0.14521 0.53675 0.0
C196 C 0.19307 0.11752 0.79952 0.0
C197 C 0.07974 0.13532 0.67647 0.0
O198 O 0.18807 0.12515 0.66374 0.0
Zn199 Zn 0.14906 0.13622 0.5198 0.0
O200 O 0.16938 0.11483 0.88742 0.0
Zn201 Zn 0.13584 0.12544 0.74601 0.0
O202 O 0.13783 0.08581 0.59861 0.0
O203 O 0.15103 0.1016 0.37329 0.0
O204 O 0.09051 0.1267 0.80247 0.0
O205 O 0.09926 0.139 0.56825 0.0
O206 O 0.15851 0.18027 0.46731 0.0
O207 O 0.14587 0.17449 0.70338 0.0
C208 C 0.14371 0.07916 0.46247 0.0
C209 C 0.15429 0.19249 0.59534 0.0
C210 C 0.13535 0.94325 0.32198 0.0
C211 C 0.11921 0.82864 0.22489 0.0
O212 O 0.12982 0.93113 0.19483 0.0
Zn213 Zn 0.12747 0.88649 0.26278 0.0
O214 O 0.13752 0.92483 0.4352 0.0
Zn215 Zn 0.13471 0.87578 0.49574 0.0
O216 O 0.17819 0.86723 0.56261 0.0
O217 O 0.17568 0.8772 0.32276 0.0
O218 O 0.12511 0.83535 0.36068 0.0
O219 O 0.1183 0.85109 0.12939 0.0
O220 O 0.08585 0.88752 0.39881 0.0
O221 O 0.09783 0.87605 0.6309 0.0
C222 C 0.19221 0.87023 0.43786 0.0
C223 C 0.07703 0.88364 0.53376 0.0
C224 C 0.3929 1.0015 0.52851 0.0
C225 C 0.38009 0.97832 0.43167 0.0
C226 C 0.39058 0.0344 0.49581 0.0
C227 C 0.37559 0.045 0.36489 0.0
H228 H 0.40585 0.99418 0.62689 0.0
H229 H 0.40184 0.05145 0.56956 0.0
S230 S 0.33348 0.99468 0.08831 0.0
N231 N 0.34822 0.96901 0.20931 0.0
N232 N 0.34451 0.03027 0.14801 0.0
C233 C 0.36108 0.02224 0.27252 0.0
C234 C 0.36315 0.98905 0.30586 0.0
C235 C 0.03612 0.63558 0.52342 0.0
C236 C 0.04659 0.65017 0.65545 0.0
C237 C 1.00322 0.63252 0.49203 0.0
C238 C 0.97988 0.6441 0.59146 0.0
H239 H 0.05332 0.62511 0.44786 0.0
H240 H 0.99608 0.61995 0.39236 0.0
S241 S 0.99575 0.68909 0.93996 0.0
N242 N 0.03149 0.6795 0.8769 0.0
N243 N 0.97022 0.67436 0.81839 0.0
C244 C 0.99043 0.66064 0.71876 0.0
C245 C 0.02364 0.6635 0.75059 0.0
C246 C 0.63251 0.98963 0.4644 0.0
C247 C 0.64713 0.97853 0.33351 0.0
C248 C 0.6297 0.02266 0.49297 0.0
C249 C 0.64157 0.04548 0.39173 0.0
H250 H 0.62189 0.97282 0.5414 0.0
H251 H 0.61713 0.03032 0.59184 0.0
S252 S 0.68676 0.02787 0.04549 0.0
N253 N 0.67675 0.99248 0.11126 0.0
N254 N 0.67214 0.054 0.16459 0.0
C255 C 0.6581 0.03429 0.26551 0.0
C256 C 0.66069 1.00097 0.23649 0.0
C257 C 0.03532 0.38635 0.74101 0.0
C258 C 0.0464 0.38557 0.59358 0.0
C259 C 1.00291 0.38444 0.77469 0.0
C260 C 0.9796 0.38153 0.66302 0.0
H261 H 0.05181 0.38874 0.83305 0.0
H262 H 0.99623 0.38528 0.89078 0.0
S263 S 0.99551 0.37759 0.2579 0.0
N264 N 0.03134 0.38124 0.33336 0.0
N265 N 0.96984 0.37743 0.39732 0.0
C266 C 0.99008 0.38039 0.51436 0.0
C267 C 0.02353 0.38253 0.47955 0.0
C268 C 0.38726 0.50033 0.01214 0.0
C269 C 0.38159 0.47771 0.89959 0.0
C270 C 0.38995 0.5328 0.98118 0.0
C271 C 0.38721 0.5447 0.83573 0.0
H272 H 0.38961 0.49309 0.12708 0.0
H273 H 0.39438 0.54871 0.07379 0.0
S274 S 0.37232 0.49594 0.49842 0.0
N275 N 0.37326 0.46953 0.63488 0.0
N276 N 0.3785 0.5312 0.57608 0.0
C277 C 0.38172 0.52255 0.7206 0.0
C278 C 0.37878 0.48901 0.75265 0.0
C279 C 0.49302 0.6423 0.21825 0.0
C280 C 0.48119 0.63409 0.07657 0.0
C281 C 0.52586 0.63965 0.25223 0.0
C282 C 0.54791 0.62892 0.14524 0.0
H283 H 0.47699 0.65151 0.30235 0.0
H284 H 0.53413 0.64705 0.36082 0.0
S285 S 0.52897 0.60051 0.76466 0.0
N286 N 0.4943 0.61186 0.83376 0.0
N287 N 0.55523 0.60717 0.8974 0.0
C288 C 0.53616 0.61932 0.00598 0.0
C289 C 0.50303 0.62184 0.97167 0.0
C290 C 0.63994 0.48845 0.98305 0.0
C291 C 0.63749 0.47755 0.83581 0.0
C292 C 0.64327 0.52079 0.01609 0.0
C293 C 0.64437 0.54416 0.90391 0.0
H294 H 0.6391 0.47191 0.07547 0.0
H295 H 0.64492 0.52737 0.13211 0.0
S296 S 0.63976 0.52868 0.49875 0.0
N297 N 0.63697 0.49284 0.57496 0.0
N298 N 0.64326 0.55417 0.63787 0.0
C299 C 0.64235 0.53384 0.75534 0.0
C300 C 0.63882 0.50049 0.7212 0.0
C301 C 0.50044 0.38985 0.23234 0.0
C302 C 0.4772 0.38188 0.12511 0.0
C303 C 0.53336 0.3873 0.2009 0.0
C304 C 0.54408 0.37696 0.0608 0.0
H305 H 0.49322 0.39883 0.33997 0.0
H306 H 0.55044 0.39452 0.28475 0.0
S307 S 0.49344 0.34916 0.74818 0.0
N308 N 0.46783 0.36011 0.87761 0.0
N309 N 0.5291 0.35578 0.81964 0.0
C310 C 0.52117 0.36757 0.95552 0.0
C311 C 0.48792 0.3699 0.98733 0.0
C312 C 0.89374 0.49053 0.75749 0.0
C313 C 0.89063 0.47936 0.90394 0.0
C314 C 0.89155 0.52293 0.72349 0.0
C315 C 0.88595 0.54606 0.83392 0.0
H316 H 0.89803 0.47409 0.66676 0.0
H317 H 0.89409 0.5297 0.60803 0.0
S318 S 0.87603 0.52968 0.23651 0.0
N319 N 0.88187 0.49404 0.16214 0.0
N320 N 0.87746 0.55547 0.09769 0.0
C321 C 0.88291 0.53544 0.98182 0.0
C322 C 0.8854 0.50205 0.01695 0.0
C323 C 0.53141 0.12971 0.02845 0.0
C324 C 0.54325 0.14421 0.15822 0.0
C325 C 0.49821 0.127 0.00346 0.0
C326 C 0.47588 0.13889 0.10707 0.0
H327 H 0.54779 0.11924 0.9491 0.0
H328 H 0.49005 0.11465 0.90487 0.0
S329 S 0.49536 0.18363 0.45237 0.0
N330 N 0.53039 0.17365 0.3825 0.0
N331 N 0.46862 0.16912 0.33598 0.0
C332 C 0.48777 0.15515 0.23263 0.0
C333 C 0.52127 0.15765 0.25804 0.0
C334 C 0.13784 0.52401 0.99606 0.0
C335 C 0.13245 0.54677 0.88354 0.0
C336 C 0.14104 0.49125 0.96219 0.0
C337 C 0.13871 0.48011 0.81479 0.0
H338 H 0.14023 0.53159 0.11045 0.0
H339 H 0.14548 0.47462 0.05199 0.0
S340 S 0.12271 0.53008 0.48057 0.0
N341 N 0.12335 0.55558 0.61978 0.0
N342 N 0.12955 0.49489 0.55619 0.0
C343 C 0.13266 0.50276 0.70208 0.0
C344 C 0.12946 0.53581 0.73642 0.0
C345 C 0.48932 0.87758 0.04979 0.0
C346 C 0.47785 0.88923 0.18676 0.0
C347 C 0.52193 0.88003 0.01164 0.0
C348 C 0.54407 0.89397 0.10983 0.0
H349 H 0.47323 0.86567 0.97357 0.0
H350 H 0.53004 0.86985 0.90772 0.0
S351 S 0.52586 0.93229 0.47135 0.0
N352 N 0.49119 0.91846 0.4127 0.0
N353 N 0.55187 0.92246 0.34171 0.0
C354 C 0.53265 0.90706 0.2431 0.0
C355 C 0.49972 0.90485 0.28139 0.0
C356 C 0.87996 1.00276 0.51154 0.0
C357 C 0.8798 0.97957 0.39871 0.0
C358 C 0.88357 0.03513 0.47979 0.0
C359 C 0.88728 0.04623 0.33329 0.0
H360 H 0.87733 0.99599 0.62697 0.0
H361 H 0.88364 0.05155 0.57274 0.0
S362 S 0.88792 0.99554 0.99501 0.0
N363 N 0.88321 0.96988 0.1328 0.0
N364 N 0.89005 0.03128 0.07245 0.0
C365 C 0.88692 0.02345 0.21804 0.0
C366 C 0.88308 0.99007 0.2508 0.0
C367 C 0.98869 0.13203 0.71684 0.0
C368 C 0.97826 0.14614 0.58352 0.0
C369 C 0.02158 0.12935 0.74951 0.0
C370 C 0.045 0.14087 0.65022 0.0
H371 H 0.97148 0.12182 0.79308 0.0
H372 H 0.02867 0.11727 0.85061 0.0
S373 S 0.02929 0.18451 0.29769 0.0
N374 N 0.99354 0.17485 0.36032 0.0
N375 N 0.05474 0.17033 0.42107 0.0
C376 C 0.03449 0.15676 0.52101 0.0
C377 C 1.0013 0.15925 0.48788 0.0
C378 C 0.13815 0.98934 0.49449 0.0
C379 C 0.13809 0.9783 0.34696 0.0
C380 C 0.14022 0.02173 0.52807 0.0
C381 C 0.14245 0.04507 0.41623 0.0
H382 H 0.13629 0.97285 0.58683 0.0
H383 H 0.14005 0.02836 0.64428 0.0
S384 S 0.14427 0.02932 0.01074 0.0
N385 N 0.14105 0.99346 0.08635 0.0
N386 N 0.14516 0.05495 0.15025 0.0
C387 C 0.14288 0.03465 0.26744 0.0
C388 C 0.14056 1.00121 0.23269 0.0
C389 C 0.99746 0.88215 0.74428 0.0
C390 C 0.9757 0.89304 0.6363 0.0
C391 C 0.03039 0.87961 0.71232 0.0
C392 C 0.04262 0.88811 0.57175 0.0
H393 H 0.9889 0.8746 0.85219 0.0
H394 H 0.04619 0.8703 0.79716 0.0
S395 S 0.99568 0.92209 0.25785 0.0
N396 N 0.96905 0.91515 0.38869 0.0
N397 N 0.03017 0.9107 0.32877 0.0
C398 C 0.02105 0.90047 0.46579 0.0
C399 C 0.98783 0.90285 0.49804 0.0
C400 C 0.36716 0.27272 0.98606 0.0
C401 C 0.3647 0.29476 0.10301 0.0
C402 C 0.3676 0.2397 0.01356 0.0
C403 C 0.36538 0.22731 0.15908 0.0
H404 H 0.36983 0.28099 0.8728 0.0
H405 H 0.37029 0.22381 0.9195 0.0
S406 S 0.35524 0.27499 0.50329 0.0
N407 N 0.35759 0.30183 0.3695 0.0
N408 N 0.35845 0.23996 0.42056 0.0
C409 C 0.36155 0.2491 0.27646 0.0
C410 C 0.36121 0.28272 0.24858 0.0
C411 C 0.25026 0.65539 0.74986 0.0
C412 C 0.22887 0.65533 0.86998 0.0
C413 C 0.28338 0.65495 0.77273 0.0
C414 C 0.29666 0.65464 0.91679 0.0
H415 H 0.24142 0.65496 0.6369 0.0
H416 H 0.29867 0.6544 0.67574 0.0
S417 S 0.25105 0.657 0.26989 0.0
N418 N 0.22337 0.65688 0.13933 0.0
N419 N 0.2856 0.65607 0.18162 0.0
C420 C 0.27557 0.65573 0.03814 0.0
C421 C 0.24174 0.65604 0.01492 0.0
C422 C 0.6508 0.78177 0.00896 0.0
C423 C 0.65293 0.795 0.15276 0.0
C424 C 0.65194 0.74865 0.98557 0.0
C425 C 0.65503 0.7273 0.10506 0.0
H426 H 0.64786 0.79707 0.91293 0.0
H427 H 0.64954 0.73974 0.87325 0.0
S428 S 0.66393 0.74947 0.50283 0.0
N429 N 0.66002 0.78395 0.41577 0.0
N430 N 0.66213 0.72184 0.37244 0.0
C431 C 0.65813 0.74018 0.24919 0.0
C432 C 0.6571 0.77394 0.27288 0.0
C433 C 0.74234 0.37014 0.75695 0.0
C434 C 0.72856 0.36868 0.89979 0.0
C435 C 0.77555 0.37034 0.73681 0.0
C436 C 0.79647 0.36931 0.85866 0.0
H437 H 0.72737 0.3716 0.65907 0.0
H438 H 0.78483 0.37215 0.62488 0.0
S439 S 0.77286 0.36294 0.25576 0.0
N440 N 0.73865 0.36444 0.1649 0.0
N441 N 0.801 0.36483 0.12768 0.0
C442 C 0.78308 0.36684 0.00211 0.0
C443 C 0.7492 0.36649 0.0225 0.0
C444 C 0.86908 0.74979 0.74989 0.0
C445 C 0.86704 0.72828 0.63071 0.0
C446 C 0.86925 0.78289 0.72574 0.0
C447 C 0.86719 0.79591 0.58144 0.0
H448 H 0.87158 0.74106 0.86249 0.0
H449 H 0.87157 0.79834 0.82156 0.0
S450 S 0.8582 0.74978 0.2321 0.0
N451 N 0.86055 0.72233 0.36326 0.0
N452 N 0.8609 0.78445 0.31842 0.0
C453 C 0.86381 0.77466 0.46167 0.0
C454 C 0.86374 0.74092 0.48617 0.0
C455 C 0.77404 0.15428 0.4931 0.0
C456 C 0.79562 0.15579 0.3739 0.0
C457 C 0.74093 0.15397 0.46893 0.0
C458 C 0.72788 0.15534 0.32451 0.0
H459 H 0.78272 0.15246 0.60603 0.0
H460 H 0.72549 0.15214 0.56505 0.0
S461 S 0.77404 0.16233 0.97428 0.0
N462 N 0.8015 0.16074 0.10559 0.0
N463 N 0.73936 0.16012 0.06094 0.0
C464 C 0.74916 0.15805 0.20445 0.0
C465 C 0.78294 0.15825 0.22895 0.0
C466 C 0.15714 0.28171 0.52102 0.0
C467 C 0.15734 0.29522 0.6646 0.0
C468 C 0.15729 0.24856 0.49946 0.0
C469 C 0.15745 0.22743 0.6205 0.0
H470 H 0.15627 0.29684 0.42349 0.0
H471 H 0.15628 0.23951 0.38694 0.0
S472 S 0.16091 0.25027 0.01929 0.0
N473 N 0.15982 0.28467 0.92972 0.0
N474 N 0.16013 0.22237 0.88986 0.0
C475 C 0.15891 0.24053 0.76483 0.0
C476 C 0.15888 0.27438 0.78671 0.0
C477 C 0.24129 0.86797 0.27898 0.0
C478 C 0.22746 0.86695 0.42191 0.0
C479 C 0.2745 0.86749 0.25871 0.0
C480 C 0.2954 0.86614 0.38051 0.0
H481 H 0.22638 0.86978 0.18104 0.0
H482 H 0.28382 0.86923 0.14682 0.0
S483 S 0.27166 0.86005 0.77759 0.0
N484 N 0.23747 0.86233 0.68687 0.0
N485 N 0.29983 0.86138 0.64947 0.0
C486 C 0.28195 0.86381 0.52396 0.0
C487 C 0.24805 0.8642 0.54449 0.0
C488 C 0.25186 0.11591 0.74765 0.0
C489 C 0.22666 0.11379 0.85139 0.0
C490 C 0.28394 0.11571 0.7925 0.0
C491 C 0.29228 0.11357 0.94319 0.0
H492 H 0.24688 0.11854 0.63031 0.0
H493 H 0.30227 0.1184 0.70846 0.0
S494 S 0.23573 0.1037 0.2586 0.0
N495 N 0.2125 0.10671 0.11116 0.0
N496 N 0.27271 0.10636 0.19585 0.0
C497 C 0.26742 0.10987 0.04784 0.0
C498 C 0.23468 0.10994 0.00192 0.0
C499 C 0.1178 0.78595 0.03034 0.0
C500 C 0.11564 0.79462 0.18055 0.0
C501 C 0.11811 0.7538 0.98725 0.0
C502 C 0.11614 0.72886 0.0924 0.0
H503 H 0.12033 0.80408 0.94523 0.0
H504 H 0.12063 0.74856 0.87013 0.0
S505 S 0.1065 0.73873 0.49932 0.0
N506 N 0.10882 0.77557 0.43455 0.0
N507 N 0.10946 0.71521 0.35294 0.0
C508 C 0.11241 0.73717 0.24252 0.0
C509 C 0.11217 0.76998 0.2867 0.0
C510 C 0.75163 0.90403 0.00898 0.0
C511 C 0.72635 0.9058 0.90555 0.0
C512 C 0.78368 0.90467 0.96362 0.0
C513 C 0.79189 0.90693 0.81277 0.0
H514 H 0.74673 0.9015 0.12642 0.0
H515 H 0.80211 0.90239 0.04747 0.0
S516 S 0.735 0.91541 0.49774 0.0
N517 N 0.71194 0.91225 0.64565 0.0
N518 N 0.77204 0.91343 0.56013 0.0
C519 C 0.76691 0.91002 0.70833 0.0
C520 C 0.73423 0.90948 0.75473 0.0
C521 C 0.90625 0.23921 0.01931 0.0
C522 C 0.90935 0.23008 0.16859 0.0
C523 C 0.90594 0.27152 0.9783 0.0
C524 C 0.9089 0.29611 0.0847 0.0
H525 H 0.90287 0.22134 0.93374 0.0
H526 H 0.90258 0.27717 0.86201 0.0
S527 S 0.92169 0.28476 0.48904 0.0
N528 N 0.91838 0.24817 0.42232 0.0
N529 N 0.91781 0.30881 0.34489 0.0
C530 C 0.91367 0.28727 0.23362 0.0
C531 C 0.91387 0.25432 0.27558 0.0
C532 C 0.23846 0.40542 0.27067 0.0
C533 C 0.23006 0.40731 0.42133 0.0
C534 C 0.27054 0.4056 0.22603 0.0
C535 C 0.29569 0.4078 0.32998 0.0
H536 H 0.22019 0.40273 0.18635 0.0
H537 H 0.27556 0.40319 0.10865 0.0
S538 S 0.2865 0.417 0.73749 0.0
N539 N 0.24956 0.41419 0.67447 0.0
N540 N 0.30976 0.41448 0.58998 0.0
C541 C 0.28762 0.4113 0.48055 0.0
C542 C 0.25488 0.41103 0.52632 0.0
C543 C 0.40757 0.77134 0.49945 0.0
C544 C 0.40906 0.79582 0.60702 0.0
C545 C 0.40759 0.73897 0.53963 0.0
C546 C 0.40895 0.72958 0.68922 0.0
H547 H 0.4056 0.77712 0.38267 0.0
H548 H 0.40548 0.72123 0.45257 0.0
S549 S 0.41645 0.78406 0.01395 0.0
N550 N 0.41435 0.80824 0.8695 0.0
N551 N 0.41442 0.74752 0.94555 0.0
C552 C 0.4119 0.75376 0.79791 0.0
C553 C 0.41198 0.78679 0.75671 0.0
C554 C 0.74082 0.61641 0.46809 0.0
C555 C 0.73207 0.61439 0.31789 0.0
C556 C 0.77303 0.61657 0.51106 0.0
C557 C 0.79795 0.61451 0.40576 0.0
H558 H 0.72271 0.61901 0.55324 0.0
H559 H 0.77834 0.61911 0.62806 0.0
S560 S 0.78779 0.60483 0.99896 0.0
N561 N 0.75098 0.60743 0.06395 0.0
N562 N 0.8114 0.60768 0.1451 0.0
C563 C 0.78952 0.61082 0.25571 0.0
C564 C 0.75666 0.6108 0.21169 0.0
C565 C 0.62016 0.23748 0.70855 0.0
C566 C 0.61692 0.22884 0.55865 0.0
C567 C 0.62081 0.26965 0.75185 0.0
C568 C 0.6181 0.29463 0.6472 0.0
H569 H 0.62326 0.2193 0.79302 0.0
H570 H 0.62414 0.27488 0.86853 0.0
S571 S 0.60553 0.28477 0.24181 0.0
N572 N 0.60834 0.24793 0.30606 0.0
N573 N 0.60958 0.30827 0.38769 0.0
C574 C 0.6134 0.28631 0.49756 0.0
C575 C 0.61282 0.25351 0.45328 0.0
loop_
_geom_bond_atom_site_label_1
_geom_bond_atom_site_label_2
_geom_bond_distance
_geom_bond_site_symmetry_2
_ccdc_geom_bond_type
C0 O2 1.247 . S
C0 O4 1.258 . S
C1 O8 1.247 . S
C1 O9 1.258 . S
O2 C0 1.247 . S
O2 Zn3 2.028 1_554 S
Zn3 O2 2.028 1_556 S
Zn3 O7 2.035 1_556 S
Zn3 O9 2.035 1_556 S
Zn3 O10 2.028 . S
O4 C0 1.258 . S
O4 Zn5 2.035 . S
Zn5 O4 2.035 . S
Zn5 O6 2.028 . S
Zn5 O8 2.028 . S
Zn5 O11 2.035 . S
O6 Zn5 2.028 . S
O6 C12 1.247 . S
O7 Zn3 2.035 1_554 S
O7 C12 1.258 . S
O8 C1 1.247 . S
O8 Zn5 2.028 . S
O9 C1 1.258 . S
O9 Zn3 2.035 1_554 S
O10 Zn3 2.028 . S
O10 C13 1.247 1_556 S
O11 Zn5 2.035 . S
O11 C13 1.258 . S
C12 O6 1.247 . S
C12 O7 1.258 . S
C13 O10 1.247 1_554 S
C13 O11 1.258 . S
C14 O16 1.247 . S
C14 O18 1.258 . S
C15 O22 1.247 . S
C15 O23 1.258 1_556 S
O16 C14 1.247 . S
O16 Zn17 2.028 1_556 S
Zn17 O16 2.028 1_554 S
Zn17 O21 2.035 1_554 S
Zn17 O23 2.035 . S
Zn17 O24 2.028 1_554 S
O18 C14 1.258 . S
O18 Zn19 2.035 . S
Zn19 O18 2.035 . S
Zn19 O20 2.028 . S
Zn19 O22 2.028 . S
Zn19 O25 2.035 . S
O20 Zn19 2.028 . S
O20 C26 1.247 . S
O21 Zn17 2.035 1_556 S
O21 C26 1.258 . S
O22 C15 1.247 . S
O22 Zn19 2.028 . S
O23 C15 1.258 1_554 S
O23 Zn17 2.035 . S
O24 Zn17 2.028 1_556 S
O24 C27 1.247 . S
O25 Zn19 2.035 . S
O25 C27 1.258 . S
C26 O20 1.247 . S
C26 O21 1.258 . S
C27 O24 1.247 . S
C27 O25 1.258 . S
C28 O30 1.247 . S
C28 O32 1.258 . S
C29 O36 1.247 1_554 S
C29 O37 1.258 . S
O30 C28 1.247 . S
O30 Zn31 2.028 . S
Zn31 O30 2.028 . S
Zn31 O35 2.035 . S
Zn31 O37 2.035 . S
Zn31 O38 2.028 . S
O32 C28 1.258 . S
O32 Zn33 2.035 1_554 S
Zn33 O32 2.035 1_556 S
Zn33 O34 2.028 1_556 S
Zn33 O36 2.028 . S
Zn33 O39 2.035 1_556 S
O34 Zn33 2.028 1_554 S
O34 C40 1.247 . S
O35 Zn31 2.035 . S
O35 C40 1.258 . S
O36 C29 1.247 1_556 S
O36 Zn33 2.028 . S
O37 C29 1.258 . S
O37 Zn31 2.035 . S
O38 Zn31 2.028 . S
O38 C41 1.247 . S
O39 Zn33 2.035 1_554 S
O39 C41 1.258 . S
C40 O34 1.247 . S
C40 O35 1.258 . S
C41 O38 1.247 . S
C41 O39 1.258 . S
C42 O44 1.247 . S
C42 O46 1.258 . S
C43 O50 1.247 . S
C43 O51 1.258 1_556 S
O44 C42 1.247 . S
O44 Zn45 2.028 1_556 S
Zn45 O44 2.028 1_554 S
Zn45 O49 2.035 1_554 S
Zn45 O51 2.035 . S
Zn45 O52 2.028 1_554 S
O46 C42 1.258 . S
O46 Zn47 2.035 . S
Zn47 O46 2.035 . S
Zn47 O48 2.028 . S
Zn47 O50 2.028 . S
Zn47 O53 2.035 . S
O48 Zn47 2.028 . S
O48 C54 1.247 . S
O49 Zn45 2.035 1_556 S
O49 C54 1.258 . S
O50 C43 1.247 . S
O50 Zn47 2.028 . S
O51 C43 1.258 1_554 S
O51 Zn45 2.035 . S
O52 Zn45 2.028 1_556 S
O52 C55 1.247 . S
O53 Zn47 2.035 . S
O53 C55 1.258 . S
C54 O48 1.247 . S
C54 O49 1.258 . S
C55 O52 1.247 . S
C55 O53 1.258 . S
C56 O58 1.247 1_554 S
C56 O60 1.258 . S
C57 O64 1.247 . S
C57 O65 1.258 . S
O58 C56 1.247 1_556 S
O58 Zn59 2.028 . S
Zn59 O58 2.028 . S
Zn59 O63 2.035 1_556 S
Zn59 O65 2.035 1_556 S
Zn59 O66 2.028 . S
O60 C56 1.258 . S
O60 Zn61 2.035 . S
Zn61 O60 2.035 . S
Zn61 O62 2.028 . S
Zn61 O64 2.028 . S
Zn61 O67 2.035 . S
O62 Zn61 2.028 . S
O62 C68 1.247 . S
O63 Zn59 2.035 1_554 S
O63 C68 1.258 . S
O64 C57 1.247 . S
O64 Zn61 2.028 . S
O65 C57 1.258 . S
O65 Zn59 2.035 1_554 S
O66 Zn59 2.028 . S
O66 C69 1.247 1_556 S
O67 Zn61 2.035 . S
O67 C69 1.258 . S
C68 O62 1.247 . S
C68 O63 1.258 . S
C69 O66 1.247 1_554 S
C69 O67 1.258 . S
C70 O72 1.247 . S
C70 O74 1.258 1_556 S
C71 O78 1.247 . S
C71 O79 1.258 . S
O72 C70 1.247 . S
O72 Zn73 2.028 . S
Zn73 O72 2.028 . S
Zn73 O77 2.035 . S
Zn73 O79 2.035 . S
Zn73 O80 2.028 . S
O74 C70 1.258 1_554 S
O74 Zn75 2.035 . S
Zn75 O74 2.035 . S
Zn75 O76 2.028 1_554 S
Zn75 O78 2.028 1_554 S
Zn75 O81 2.035 . S
O76 Zn75 2.028 1_556 S
O76 C82 1.247 . S
O77 Zn73 2.035 . S
O77 C82 1.258 . S
O78 C71 1.247 . S
O78 Zn75 2.028 1_556 S
O79 C71 1.258 . S
O79 Zn73 2.035 . S
O80 Zn73 2.028 . S
O80 C83 1.247 . S
O81 Zn75 2.035 . S
O81 C83 1.258 1_554 S
C82 O76 1.247 . S
C82 O77 1.258 . S
C83 O80 1.247 . S
C83 O81 1.258 1_556 S
C84 O86 1.247 . S
C84 O88 1.258 . S
C85 O92 1.247 . S
C85 O93 1.258 1_554 S
O86 C84 1.247 . S
O86 Zn87 2.028 1_554 S
Zn87 O86 2.028 1_556 S
Zn87 O91 2.035 . S
Zn87 O93 2.035 . S
Zn87 O94 2.028 1_556 S
O88 C84 1.258 . S
O88 Zn89 2.035 . S
Zn89 O88 2.035 . S
Zn89 O90 2.028 . S
Zn89 O92 2.028 . S
Zn89 O95 2.035 . S
O90 Zn89 2.028 . S
O90 C96 1.247 . S
O91 Zn87 2.035 . S
O91 C96 1.258 1_556 S
O92 C85 1.247 . S
O92 Zn89 2.028 . S
O93 C85 1.258 1_556 S
O93 Zn87 2.035 . S
O94 Zn87 2.028 1_554 S
O94 C97 1.247 . S
O95 Zn89 2.035 . S
O95 C97 1.258 . S
C96 O90 1.247 . S
C96 O91 1.258 1_554 S
C97 O94 1.247 . S
C97 O95 1.258 . S
C98 O100 1.247 . S
C98 O102 1.258 1_556 S
C99 O106 1.247 . S
C99 O107 1.258 . S
O100 C98 1.247 . S
O100 Zn101 2.028 . S
Zn101 O100 2.028 . S
Zn101 O105 2.035 . S
Zn101 O107 2.035 . S
Zn101 O108 2.028 . S
O102 C98 1.258 1_554 S
O102 Zn103 2.035 . S
Zn103 O102 2.035 . S
Zn103 O104 2.028 1_554 S
Zn103 O106 2.028 1_554 S
Zn103 O109 2.035 . S
O104 Zn103 2.028 1_556 S
O104 C110 1.247 . S
O105 Zn101 2.035 . S
O105 C110 1.258 . S
O106 C99 1.247 . S
O106 Zn103 2.028 1_556 S
O107 C99 1.258 . S
O107 Zn101 2.035 . S
O108 Zn101 2.028 . S
O108 C111 1.247 . S
O109 Zn103 2.035 . S
O109 C111 1.258 1_554 S
C110 O104 1.247 . S
C110 O105 1.258 . S
C111 O108 1.247 . S
C111 O109 1.258 1_556 S
C112 O114 1.247 . S
C112 O116 1.258 . S
C113 O120 1.247 . S
C113 O121 1.258 . S
O114 C112 1.247 . S
O114 Zn115 2.028 . S
Zn115 O114 2.028 . S
Zn115 O119 2.035 . S
Zn115 O121 2.035 . S
Zn115 O122 2.028 . S
O116 C112 1.258 . S
O116 Zn117 2.035 . S
Zn117 O116 2.035 . S
Zn117 O118 2.028 . S
Zn117 O120 2.028 . S
Zn117 O123 2.035 . S
O118 Zn117 2.028 . S
O118 C124 1.247 . S
O119 Zn115 2.035 . S
O119 C124 1.258 . S
O120 C113 1.247 . S
O120 Zn117 2.028 . S
O121 C113 1.258 . S
O121 Zn115 2.035 . S
O122 Zn115 2.028 . S
O122 C125 1.247 . S
O123 Zn117 2.035 . S
O123 C125 1.258 . S
C124 O118 1.247 . S
C124 O119 1.258 . S
C125 O122 1.247 . S
C125 O123 1.258 . S
C126 O128 1.247 . S
C126 O130 1.258 . S
C127 O134 1.247 . S
C127 O135 1.258 . S
O128 C126 1.247 . S
O128 Zn129 2.028 . S
Zn129 O128 2.028 . S
Zn129 O133 2.035 . S
Zn129 O135 2.035 . S
Zn129 O136 2.028 . S
O130 C126 1.258 . S
O130 Zn131 2.035 . S
Zn131 O130 2.035 . S
Zn131 O132 2.028 . S
Zn131 O134 2.028 . S
Zn131 O137 2.035 . S
O132 Zn131 2.028 . S
O132 C138 1.247 . S
O133 Zn129 2.035 . S
O133 C138 1.258 . S
O134 C127 1.247 . S
O134 Zn131 2.028 . S
O135 C127 1.258 . S
O135 Zn129 2.035 . S
O136 Zn129 2.028 . S
O136 C139 1.247 . S
O137 Zn131 2.035 . S
O137 C139 1.258 . S
C138 O132 1.247 . S
C138 O133 1.258 . S
C139 O136 1.247 . S
C139 O137 1.258 . S
C140 O142 1.247 . S
C140 O144 1.258 . S
C141 O148 1.247 . S
C141 O149 1.258 . S
O142 C140 1.247 . S
O142 Zn143 2.028 . S
Zn143 O142 2.028 . S
Zn143 O147 2.035 . S
Zn143 O149 2.035 . S
Zn143 O150 2.028 . S
O144 C140 1.258 . S
O144 Zn145 2.035 . S
Zn145 O144 2.035 . S
Zn145 O146 2.028 . S
Zn145 O148 2.028 . S
Zn145 O151 2.035 . S
O146 Zn145 2.028 . S
O146 C152 1.247 . S
O147 Zn143 2.035 . S
O147 C152 1.258 . S
O148 C141 1.247 . S
O148 Zn145 2.028 . S
O149 C141 1.258 . S
O149 Zn143 2.035 . S
O150 Zn143 2.028 . S
O150 C153 1.247 . S
O151 Zn145 2.035 . S
O151 C153 1.258 . S
C152 O146 1.247 . S
C152 O147 1.258 . S
C153 O150 1.247 . S
C153 O151 1.258 . S
C154 O156 1.247 . S
C154 O158 1.258 . S
C155 O162 1.247 . S
C155 O163 1.258 . S
O156 C154 1.247 . S
O156 Zn157 2.028 . S
Zn157 O156 2.028 . S
Zn157 O161 2.035 . S
Zn157 O163 2.035 . S
Zn157 O164 2.028 . S
O158 C154 1.258 . S
O158 Zn159 2.035 . S
Zn159 O158 2.035 . S
Zn159 O160 2.028 . S
Zn159 O162 2.028 . S
Zn159 O165 2.035 . S
O160 Zn159 2.028 . S
O160 C166 1.247 . S
O161 Zn157 2.035 . S
O161 C166 1.258 . S
O162 C155 1.247 . S
O162 Zn159 2.028 . S
O163 C155 1.258 . S
O163 Zn157 2.035 . S
O164 Zn157 2.028 . S
O164 C167 1.247 . S
O165 Zn159 2.035 . S
O165 C167 1.258 . S
C166 O160 1.247 . S
C166 O161 1.258 . S
C167 O164 1.247 . S
C167 O165 1.258 . S
C168 O170 1.247 . S
C168 O172 1.258 . S
C169 O176 1.247 . S
C169 O177 1.258 . S
O170 C168 1.247 . S
O170 Zn171 2.028 . S
Zn171 O170 2.028 . S
Zn171 O175 2.035 . S
Zn171 O177 2.035 . S
Zn171 O178 2.028 . S
O172 C168 1.258 . S
O172 Zn173 2.035 . S
Zn173 O172 2.035 . S
Zn173 O174 2.028 . S
Zn173 O176 2.028 . S
Zn173 O179 2.035 . S
O174 Zn173 2.028 . S
O174 C180 1.247 . S
O175 Zn171 2.035 . S
O175 C180 1.258 . S
O176 C169 1.247 . S
O176 Zn173 2.028 . S
O177 C169 1.258 . S
O177 Zn171 2.035 . S
O178 Zn171 2.028 . S
O178 C181 1.247 . S
O179 Zn173 2.035 . S
O179 C181 1.258 . S
C180 O174 1.247 . S
C180 O175 1.258 . S
C181 O178 1.247 . S
C181 O179 1.258 . S
C182 O184 1.247 . S
C182 O186 1.258 . S
C183 O190 1.247 . S
C183 O191 1.258 . S
O184 C182 1.247 . S
O184 Zn185 2.028 . S
Zn185 O184 2.028 . S
Zn185 O189 2.035 . S
Zn185 O191 2.035 . S
Zn185 O192 2.028 . S
O186 C182 1.258 . S
O186 Zn187 2.035 . S
Zn187 O186 2.035 . S
Zn187 O188 2.028 . S
Zn187 O190 2.028 . S
Zn187 O193 2.035 . S
O188 Zn187 2.028 . S
O188 C194 1.247 . S
O189 Zn185 2.035 . S
O189 C194 1.258 . S
O190 C183 1.247 . S
O190 Zn187 2.028 . S
O191 C183 1.258 . S
O191 Zn185 2.035 . S
O192 Zn185 2.028 . S
O192 C195 1.247 . S
O193 Zn187 2.035 . S
O193 C195 1.258 . S
C194 O188 1.247 . S
C194 O189 1.258 . S
C195 O192 1.247 . S
C195 O193 1.258 . S
C196 O198 1.247 . S
C196 O200 1.258 . S
C197 O204 1.247 . S
C197 O205 1.258 . S
O198 C196 1.247 . S
O198 Zn199 2.028 . S
Zn199 O198 2.028 . S
Zn199 O203 2.035 . S
Zn199 O205 2.035 . S
Zn199 O206 2.028 . S
O200 C196 1.258 . S
O200 Zn201 2.035 . S
Zn201 O200 2.035 . S
Zn201 O202 2.028 . S
Zn201 O204 2.028 . S
Zn201 O207 2.035 . S
O202 Zn201 2.028 . S
O202 C208 1.247 . S
O203 Zn199 2.035 . S
O203 C208 1.258 . S
O204 C197 1.247 . S
O204 Zn201 2.028 . S
O205 C197 1.258 . S
O205 Zn199 2.035 . S
O206 Zn199 2.028 . S
O206 C209 1.247 . S
O207 Zn201 2.035 . S
O207 C209 1.258 . S
C208 O202 1.247 . S
C208 O203 1.258 . S
C209 O206 1.247 . S
C209 O207 1.258 . S
C210 O212 1.247 . S
C210 O214 1.258 . S
C211 O218 1.247 . S
C211 O219 1.258 . S
O212 C210 1.247 . S
O212 Zn213 2.028 . S
Zn213 O212 2.028 . S
Zn213 O217 2.035 . S
Zn213 O219 2.035 . S
Zn213 O220 2.028 . S
O214 C210 1.258 . S
O214 Zn215 2.035 . S
Zn215 O214 2.035 . S
Zn215 O216 2.028 . S
Zn215 O218 2.028 . S
Zn215 O221 2.035 . S
O216 Zn215 2.028 . S
O216 C222 1.247 . S
O217 Zn213 2.035 . S
O217 C222 1.258 . S
O218 C211 1.247 . S
O218 Zn215 2.028 . S
O219 C211 1.258 . S
O219 Zn213 2.035 . S
O220 Zn213 2.028 . S
O220 C223 1.247 . S
O221 Zn215 2.035 . S
O221 C223 1.258 . S
C222 O216 1.247 . S
C222 O217 1.258 . S
C223 O220 1.247 . S
C223 O221 1.258 . S
C224 C225 1.369 . S
C224 C226 1.419 1_565 S
C224 H228 0.930 . S
C225 C224 1.369 . S
C225 C234 1.429 . S
C226 C224 1.419 1_545 S
C226 C227 1.363 . S
C226 H229 0.929 . S
C227 C226 1.363 . S
C227 C233 1.428 . S
H228 C224 0.930 . S
H229 C226 0.929 . S
S230 N231 1.613 1_556 S
S230 N232 1.610 1_565 S
N231 S230 1.613 1_554 S
N231 C234 1.350 . S
N232 S230 1.610 1_545 S
N232 C233 1.351 1_556 S
C233 C227 1.428 . S
C233 N232 1.351 1_554 S
C233 C234 1.434 1_545 S
C234 C225 1.429 . S
C234 N231 1.350 . S
C234 C233 1.434 1_565 S
C235 C236 1.369 . S
C235 C237 1.419 1_455 S
C235 H239 0.930 . S
C236 C235 1.369 . S
C236 C245 1.429 . S
C237 C235 1.419 1_655 S
C237 C238 1.363 . S
C237 H240 0.929 . S
C238 C237 1.363 . S
C238 C244 1.428 . S
H239 C235 0.930 . S
H240 C237 0.929 . S
S241 N242 1.613 1_655 S
S241 N243 1.610 . S
N242 S241 1.613 1_455 S
N242 C245 1.350 1_554 S
N243 S241 1.610 . S
N243 C244 1.351 1_554 S
C244 C238 1.428 . S
C244 N243 1.351 1_556 S
C244 C245 1.434 1_655 S
C245 C236 1.429 . S
C245 N242 1.350 1_556 S
C245 C244 1.434 1_455 S
C246 C247 1.369 . S
C246 C248 1.419 1_565 S
C246 H250 0.930 . S
C247 C246 1.369 . S
C247 C256 1.429 . S
C248 C246 1.419 1_545 S
C248 C249 1.363 . S
C248 H251 0.929 . S
C249 C248 1.363 . S
C249 C255 1.428 . S
H250 C246 0.930 . S
H251 C248 0.929 . S
S252 N253 1.613 1_545 S
S252 N254 1.610 . S
N253 S252 1.613 1_565 S
N253 C256 1.350 . S
N254 S252 1.610 . S
N254 C255 1.351 . S
C255 C249 1.428 . S
C255 N254 1.351 . S
C255 C256 1.434 1_545 S
C256 C247 1.429 . S
C256 N253 1.350 . S
C256 C255 1.434 1_565 S
C257 C258 1.369 . S
C257 C259 1.419 1_455 S
C257 H261 0.930 . S
C258 C257 1.369 . S
C258 C267 1.429 . S
C259 C257 1.419 1_655 S
C259 C260 1.363 . S
C259 H262 0.929 . S
C260 C259 1.363 . S
C260 C266 1.428 . S
H261 C257 0.930 . S
H262 C259 0.929 . S
S263 N264 1.613 1_655 S
S263 N265 1.610 . S
N264 S263 1.613 1_455 S
N264 C267 1.350 . S
N265 S263 1.610 . S
N265 C266 1.351 . S
C266 C260 1.428 . S
C266 N265 1.351 . S
C266 C267 1.434 1_655 S
C267 C258 1.429 . S
C267 N264 1.350 . S
C267 C266 1.434 1_455 S
C268 C269 1.369 . S
C268 C270 1.419 . S
C268 H272 0.930 . S
C269 C268 1.369 . S
C269 C278 1.429 1_554 S
C270 C268 1.419 . S
C270 C271 1.363 . S
C270 H273 0.929 . S
C271 C270 1.363 . S
C271 C277 1.428 1_554 S
H272 C268 0.930 . S
H273 C270 0.929 . S
S274 N275 1.613 . S
S274 N276 1.610 . S
N275 S274 1.613 . S
N275 C278 1.350 . S
N276 S274 1.610 . S
N276 C277 1.351 . S
C277 C271 1.428 1_556 S
C277 N276 1.351 . S
C277 C278 1.434 . S
C278 C269 1.429 1_556 S
C278 N275 1.350 . S
C278 C277 1.434 . S
C279 C280 1.369 1_554 S
C279 C281 1.419 . S
C279 H283 0.930 . S
C280 C279 1.369 1_556 S
C280 C289 1.429 . S
C281 C279 1.419 . S
C281 C282 1.363 1_554 S
C281 H284 0.929 . S
C282 C281 1.363 1_556 S
C282 C288 1.428 . S
H283 C279 0.930 . S
H284 C281 0.929 . S
S285 N286 1.613 . S
S285 N287 1.610 . S
N286 S285 1.613 . S
N286 C289 1.350 . S
N287 S285 1.610 . S
N287 C288 1.351 . S
C288 C282 1.428 . S
C288 N287 1.351 . S
C288 C289 1.434 . S
C289 C280 1.429 . S
C289 N286 1.350 . S
C289 C288 1.434 . S
C290 C291 1.369 . S
C290 C292 1.419 . S
C290 H294 0.930 . S
C291 C290 1.369 . S
C291 C300 1.429 1_554 S
C292 C290 1.419 . S
C292 C293 1.363 . S
C292 H295 0.929 . S
C293 C292 1.363 . S
C293 C299 1.428 1_554 S
H294 C290 0.930 . S
H295 C292 0.929 . S
S296 N297 1.613 . S
S296 N298 1.610 . S
N297 S296 1.613 . S
N297 C300 1.350 . S
N298 S296 1.610 . S
N298 C299 1.351 . S
C299 C293 1.428 1_556 S
C299 N298 1.351 . S
C299 C300 1.434 . S
C300 C291 1.429 1_556 S
C300 N297 1.350 . S
C300 C299 1.434 . S
C301 C302 1.369 1_554 S
C301 C303 1.419 . S
C301 H305 0.930 . S
C302 C301 1.369 1_556 S
C302 C311 1.429 . S
C303 C301 1.419 . S
C303 C304 1.363 1_554 S
C303 H306 0.929 . S
C304 C303 1.363 1_556 S
C304 C310 1.428 . S
H305 C301 0.930 . S
H306 C303 0.929 . S
S307 N308 1.613 . S
S307 N309 1.610 . S
N308 S307 1.613 . S
N308 C311 1.350 . S
N309 S307 1.610 . S
N309 C310 1.351 . S
C310 C304 1.428 . S
C310 N309 1.351 . S
C310 C311 1.434 . S
C311 C302 1.429 . S
C311 N308 1.350 . S
C311 C310 1.434 . S
C312 C313 1.369 . S
C312 C314 1.419 . S
C312 H316 0.930 . S
C313 C312 1.369 . S
C313 C322 1.429 . S
C314 C312 1.419 . S
C314 C315 1.363 . S
C314 H317 0.929 . S
C315 C314 1.363 . S
C315 C321 1.428 . S
H316 C312 0.930 . S
H317 C314 0.929 . S
S318 N319 1.613 . S
S318 N320 1.610 . S
N319 S318 1.613 . S
N319 C322 1.350 . S
N320 S318 1.610 . S
N320 C321 1.351 . S
C321 C315 1.428 . S
C321 N320 1.351 . S
C321 C322 1.434 . S
C322 C313 1.429 . S
C322 N319 1.350 . S
C322 C321 1.434 . S
C323 C324 1.369 . S
C323 C325 1.419 . S
C323 H327 0.930 . S
C324 C323 1.369 . S
C324 C333 1.429 . S
C325 C323 1.419 . S
C325 C326 1.363 . S
C325 H328 0.929 . S
C326 C325 1.363 . S
C326 C332 1.428 . S
H327 C323 0.930 . S
H328 C325 0.929 . S
S329 N330 1.613 . S
S329 N331 1.610 . S
N330 S329 1.613 . S
N330 C333 1.350 . S
N331 S329 1.610 . S
N331 C332 1.351 . S
C332 C326 1.428 . S
C332 N331 1.351 . S
C332 C333 1.434 . S
C333 C324 1.429 . S
C333 N330 1.350 . S
C333 C332 1.434 . S
C334 C335 1.369 . S
C334 C336 1.419 . S
C334 H338 0.930 . S
C335 C334 1.369 . S
C335 C344 1.429 . S
C336 C334 1.419 . S
C336 C337 1.363 . S
C336 H339 0.929 . S
C337 C336 1.363 . S
C337 C343 1.428 . S
H338 C334 0.930 . S
H339 C336 0.929 . S
S340 N341 1.613 . S
S340 N342 1.610 . S
N341 S340 1.613 . S
N341 C344 1.350 . S
N342 S340 1.610 . S
N342 C343 1.351 . S
C343 C337 1.428 . S
C343 N342 1.351 . S
C343 C344 1.434 . S
C344 C335 1.429 . S
C344 N341 1.350 . S
C344 C343 1.434 . S
C345 C346 1.369 . S
C345 C347 1.419 . S
C345 H349 0.930 . S
C346 C345 1.369 . S
C346 C355 1.429 . S
C347 C345 1.419 . S
C347 C348 1.363 . S
C347 H350 0.929 . S
C348 C347 1.363 . S
C348 C354 1.428 . S
H349 C345 0.930 . S
H350 C347 0.929 . S
S351 N352 1.613 . S
S351 N353 1.610 . S
N352 S351 1.613 . S
N352 C355 1.350 . S
N353 S351 1.610 . S
N353 C354 1.351 . S
C354 C348 1.428 . S
C354 N353 1.351 . S
C354 C355 1.434 . S
C355 C346 1.429 . S
C355 N352 1.350 . S
C355 C354 1.434 . S
C356 C357 1.369 . S
C356 C358 1.419 1_565 S
C356 H360 0.930 . S
C357 C356 1.369 . S
C357 C366 1.429 . S
C358 C356 1.419 1_545 S
C358 C359 1.363 . S
C358 H361 0.929 . S
C359 C358 1.363 . S
C359 C365 1.428 . S
H360 C356 0.930 . S
H361 C358 0.929 . S
S362 N363 1.613 . S
S362 N364 1.610 1_565 S
N363 S362 1.613 . S
N363 C366 1.350 . S
N364 S362 1.610 1_545 S
N364 C365 1.351 . S
C365 C359 1.428 . S
C365 N364 1.351 . S
C365 C366 1.434 1_545 S
C366 C357 1.429 . S
C366 N363 1.350 . S
C366 C365 1.434 1_565 S
C367 C368 1.369 . S
C367 C369 1.419 1_655 S
C367 H371 0.930 . S
C368 C367 1.369 . S
C368 C377 1.429 . S
C369 C367 1.419 1_455 S
C369 C370 1.363 . S
C369 H372 0.929 . S
C370 C369 1.363 . S
C370 C376 1.428 . S
H371 C367 0.930 . S
H372 C369 0.929 . S
S373 N374 1.613 1_455 S
S373 N375 1.610 . S
N374 S373 1.613 1_655 S
N374 C377 1.350 . S
N375 S373 1.610 . S
N375 C376 1.351 . S
C376 C370 1.428 . S
C376 N375 1.351 . S
C376 C377 1.434 1_455 S
C377 C368 1.429 . S
C377 N374 1.350 . S
C377 C376 1.434 1_655 S
C378 C379 1.369 . S
C378 C380 1.419 1_565 S
C378 H382 0.930 . S
C379 C378 1.369 . S
C379 C388 1.429 . S
C380 C378 1.419 1_545 S
C380 C381 1.363 . S
C380 H383 0.929 . S
C381 C380 1.363 . S
C381 C387 1.428 . S
H382 C378 0.930 . S
H383 C380 0.929 . S
S384 N385 1.613 1_545 S
S384 N386 1.610 . S
N385 S384 1.613 1_565 S
N385 C388 1.350 . S
N386 S384 1.610 . S
N386 C387 1.351 . S
C387 C381 1.428 . S
C387 N386 1.351 . S
C387 C388 1.434 1_545 S
C388 C379 1.429 . S
C388 N385 1.350 . S
C388 C387 1.434 1_565 S
C389 C390 1.369 . S
C389 C391 1.419 1_655 S
C389 H393 0.930 . S
C390 C389 1.369 . S
C390 C399 1.429 . S
C391 C389 1.419 1_455 S
C391 C392 1.363 . S
C391 H394 0.929 . S
C392 C391 1.363 . S
C392 C398 1.428 . S
H393 C389 0.930 . S
H394 C391 0.929 . S
S395 N396 1.613 . S
S395 N397 1.610 1_655 S
N396 S395 1.613 . S
N396 C399 1.350 . S
N397 S395 1.610 1_455 S
N397 C398 1.351 . S
C398 C392 1.428 . S
C398 N397 1.351 . S
C398 C399 1.434 1_455 S
C399 C390 1.429 . S
C399 N396 1.350 . S
C399 C398 1.434 1_655 S
C400 C401 1.369 . S
C400 C402 1.419 . S
C400 H404 0.930 . S
C401 C400 1.369 . S
C401 C410 1.429 . S
C402 C400 1.419 . S
C402 C403 1.363 . S
C402 H405 0.929 . S
C403 C402 1.363 . S
C403 C409 1.428 . S
H404 C400 0.930 . S
H405 C402 0.929 . S
S406 N407 1.613 . S
S406 N408 1.610 . S
N407 S406 1.613 . S
N407 C410 1.350 . S
N408 S406 1.610 . S
N408 C409 1.351 . S
C409 C403 1.428 . S
C409 N408 1.351 . S
C409 C410 1.434 . S
C410 C401 1.429 . S
C410 N407 1.350 . S
C410 C409 1.434 . S
C411 C412 1.369 . S
C411 C413 1.419 . S
C411 H415 0.930 . S
C412 C411 1.369 . S
C412 C421 1.429 . S
C413 C411 1.419 . S
C413 C414 1.363 . S
C413 H416 0.929 . S
C414 C413 1.363 . S
C414 C420 1.428 . S
H415 C411 0.930 . S
H416 C413 0.929 . S
S417 N418 1.613 . S
S417 N419 1.610 . S
N418 S417 1.613 . S
N418 C421 1.350 1_554 S
N419 S417 1.610 . S
N419 C420 1.351 1_554 S
C420 C414 1.428 . S
C420 N419 1.351 1_556 S
C420 C421 1.434 . S
C421 C412 1.429 . S
C421 N418 1.350 1_556 S
C421 C420 1.434 . S
C422 C423 1.369 . S
C422 C424 1.419 . S
C422 H426 0.930 1_554 S
C423 C422 1.369 . S
C423 C432 1.429 . S
C424 C422 1.419 . S
C424 C425 1.363 . S
C424 H427 0.929 1_554 S
C425 C424 1.363 . S
C425 C431 1.428 . S
H426 C422 0.930 1_556 S
H427 C424 0.929 1_556 S
S428 N429 1.613 . S
S428 N430 1.610 . S
N429 S428 1.613 . S
N429 C432 1.350 . S
N430 S428 1.610 . S
N430 C431 1.351 . S
C431 C425 1.428 . S
C431 N430 1.351 . S
C431 C432 1.434 . S
C432 C423 1.429 . S
C432 N429 1.350 . S
C432 C431 1.434 . S
C433 C434 1.369 . S
C433 C435 1.419 . S
C433 H437 0.930 . S
C434 C433 1.369 . S
C434 C443 1.429 . S
C435 C433 1.419 . S
C435 C436 1.363 . S
C435 H438 0.929 . S
C436 C435 1.363 . S
C436 C442 1.428 1_556 S
H437 C433 0.930 . S
H438 C435 0.929 . S
S439 N440 1.613 . S
S439 N441 1.610 . S
N440 S439 1.613 . S
N440 C443 1.350 1_554 S
N441 S439 1.610 . S
N441 C442 1.351 . S
C442 C436 1.428 1_554 S
C442 N441 1.351 . S
C442 C443 1.434 1_554 S
C443 C434 1.429 . S
C443 N440 1.350 1_556 S
C443 C442 1.434 1_556 S
C444 C445 1.369 . S
C444 C446 1.419 . S
C444 H448 0.930 . S
C445 C444 1.369 . S
C445 C454 1.429 . S
C446 C444 1.419 . S
C446 C447 1.363 . S
C446 H449 0.929 . S
C447 C446 1.363 . S
C447 C453 1.428 . S
H448 C444 0.930 . S
H449 C446 0.929 . S
S450 N451 1.613 . S
S450 N452 1.610 . S
N451 S450 1.613 . S
N451 C454 1.350 . S
N452 S450 1.610 . S
N452 C453 1.351 . S
C453 C447 1.428 . S
C453 N452 1.351 . S
C453 C454 1.434 . S
C454 C445 1.429 . S
C454 N451 1.350 . S
C454 C453 1.434 . S
C455 C456 1.369 . S
C455 C457 1.419 . S
C455 H459 0.930 . S
C456 C455 1.369 . S
C456 C465 1.429 . S
C457 C455 1.419 . S
C457 C458 1.363 . S
C457 H460 0.929 . S
C458 C457 1.363 . S
C458 C464 1.428 . S
H459 C455 0.930 . S
H460 C457 0.929 . S
S461 N462 1.613 . S
S461 N463 1.610 . S
N462 S461 1.613 . S
N462 C465 1.350 . S
N463 S461 1.610 . S
N463 C464 1.351 . S
C464 C458 1.428 . S
C464 N463 1.351 . S
C464 C465 1.434 . S
C465 C456 1.429 . S
C465 N462 1.350 . S
C465 C464 1.434 . S
C466 C467 1.369 . S
C466 C468 1.419 . S
C466 H470 0.930 . S
C467 C466 1.369 . S
C467 C476 1.429 . S
C468 C466 1.419 . S
C468 C469 1.363 . S
C468 H471 0.929 . S
C469 C468 1.363 . S
C469 C475 1.428 . S
H470 C466 0.930 . S
H471 C468 0.929 . S
S472 N473 1.613 . S
S472 N474 1.610 . S
N473 S472 1.613 . S
N473 C476 1.350 . S
N474 S472 1.610 . S
N474 C475 1.351 . S
C475 C469 1.428 . S
C475 N474 1.351 . S
C475 C476 1.434 . S
C476 C467 1.429 . S
C476 N473 1.350 . S
C476 C475 1.434 . S
C477 C478 1.369 . S
C477 C479 1.419 . S
C477 H481 0.930 . S
C478 C477 1.369 . S
C478 C487 1.429 . S
C479 C477 1.419 . S
C479 C480 1.363 . S
C479 H482 0.929 . S
C480 C479 1.363 . S
C480 C486 1.428 . S
H481 C477 0.930 . S
H482 C479 0.929 . S
S483 N484 1.613 . S
S483 N485 1.610 . S
N484 S483 1.613 . S
N484 C487 1.350 . S
N485 S483 1.610 . S
N485 C486 1.351 . S
C486 C480 1.428 . S
C486 N485 1.351 . S
C486 C487 1.434 . S
C487 C478 1.429 . S
C487 N484 1.350 . S
C487 C486 1.434 . S
C488 C489 1.369 . S
C488 C490 1.419 . S
C488 H492 0.930 . S
C489 C488 1.369 . S
C489 C498 1.429 . S
C490 C488 1.419 . S
C490 C491 1.363 . S
C490 H493 0.929 . S
C491 C490 1.363 . S
C491 C497 1.428 1_556 S
H492 C488 0.930 . S
H493 C490 0.929 . S
S494 N495 1.613 1_554 S
S494 N496 1.610 . S
N495 S494 1.613 1_556 S
N495 C498 1.350 . S
N496 S494 1.610 . S
N496 C497 1.351 . S
C497 C491 1.428 1_554 S
C497 N496 1.351 . S
C497 C498 1.434 1_554 S
C498 C489 1.429 . S
C498 N495 1.350 . S
C498 C497 1.434 1_556 S
C499 C500 1.369 . S
C499 C501 1.419 1_554 S
C499 H503 0.930 . S
C500 C499 1.369 . S
C500 C509 1.429 . S
C501 C499 1.419 1_556 S
C501 C502 1.363 1_556 S
C501 H504 0.929 . S
C502 C501 1.363 1_554 S
C502 C508 1.428 . S
H503 C499 0.930 . S
H504 C501 0.929 . S
S505 N506 1.613 . S
S505 N507 1.610 . S
N506 S505 1.613 . S
N506 C509 1.350 . S
N507 S505 1.610 . S
N507 C508 1.351 . S
C508 C502 1.428 . S
C508 N507 1.351 . S
C508 C509 1.434 . S
C509 C500 1.429 . S
C509 N506 1.350 . S
C509 C508 1.434 . S
C510 C511 1.369 1_554 S
C510 C512 1.419 1_554 S
C510 H514 0.930 . S
C511 C510 1.369 1_556 S
C511 C520 1.429 . S
C512 C510 1.419 1_556 S
C512 C513 1.363 . S
C512 H515 0.929 . S
C513 C512 1.363 . S
C513 C519 1.428 . S
H514 C510 0.930 . S
H515 C512 0.929 . S
S516 N517 1.613 . S
S516 N518 1.610 . S
N517 S516 1.613 . S
N517 C520 1.350 . S
N518 S516 1.610 . S
N518 C519 1.351 . S
C519 C513 1.428 . S
C519 N518 1.351 . S
C519 C520 1.434 . S
C520 C511 1.429 . S
C520 N517 1.350 . S
C520 C519 1.434 . S
C521 C522 1.369 . S
C521 C523 1.419 1_554 S
C521 H525 0.930 . S
C522 C521 1.369 . S
C522 C531 1.429 . S
C523 C521 1.419 1_556 S
C523 C524 1.363 1_556 S
C523 H526 0.929 . S
C524 C523 1.363 1_554 S
C524 C530 1.428 . S
H525 C521 0.930 . S
H526 C523 0.929 . S
S527 N528 1.613 . S
S527 N529 1.610 . S
N528 S527 1.613 . S
N528 C531 1.350 . S
N529 S527 1.610 . S
N529 C530 1.351 . S
C530 C524 1.428 . S
C530 N529 1.351 . S
C530 C531 1.434 . S
C531 C522 1.429 . S
C531 N528 1.350 . S
C531 C530 1.434 . S
C532 C533 1.369 . S
C532 C534 1.419 . S
C532 H536 0.930 . S
C533 C532 1.369 . S
C533 C542 1.429 . S
C534 C532 1.419 . S
C534 C535 1.363 . S
C534 H537 0.929 . S
C535 C534 1.363 . S
C535 C541 1.428 . S
H536 C532 0.930 . S
H537 C534 0.929 . S
S538 N539 1.613 . S
S538 N540 1.610 . S
N539 S538 1.613 . S
N539 C542 1.350 . S
N540 S538 1.610 . S
N540 C541 1.351 . S
C541 C535 1.428 . S
C541 N540 1.351 . S
C541 C542 1.434 . S
C542 C533 1.429 . S
C542 N539 1.350 . S
C542 C541 1.434 . S
C543 C544 1.369 . S
C543 C545 1.419 . S
C543 H547 0.930 . S
C544 C543 1.369 . S
C544 C553 1.429 . S
C545 C543 1.419 . S
C545 C546 1.363 . S
C545 H548 0.929 . S
C546 C545 1.363 . S
C546 C552 1.428 . S
H547 C543 0.930 . S
H548 C545 0.929 . S
S549 N550 1.613 . S
S549 N551 1.610 . S
N550 S549 1.613 . S
N550 C553 1.350 . S
N551 S549 1.610 . S
N551 C552 1.351 . S
C552 C546 1.428 . S
C552 N551 1.351 . S
C552 C553 1.434 . S
C553 C544 1.429 . S
C553 N550 1.350 . S
C553 C552 1.434 . S
C554 C555 1.369 . S
C554 C556 1.419 . S
C554 H558 0.930 . S
C555 C554 1.369 . S
C555 C564 1.429 . S
C556 C554 1.419 . S
C556 C557 1.363 . S
C556 H559 0.929 . S
C557 C556 1.363 . S
C557 C563 1.428 . S
H558 C554 0.930 . S
H559 C556 0.929 . S
S560 N561 1.613 . S
S560 N562 1.610 . S
N561 S560 1.613 . S
N561 C564 1.350 . S
N562 S560 1.610 . S
N562 C563 1.351 . S
C563 C557 1.428 . S
C563 N562 1.351 . S
C563 C564 1.434 . S
C564 C555 1.429 . S
C564 N561 1.350 . S
C564 C563 1.434 . S
C565 C566 1.369 . S
C565 C567 1.419 . S
C565 H569 0.930 . S
C566 C565 1.369 . S
C566 C575 1.429 . S
C567 C565 1.419 . S
C567 C568 1.363 . S
C567 H570 0.929 . S
C568 C567 1.363 . S
C568 C574 1.428 . S
H569 C565 0.930 . S
H570 C567 0.929 . S
S571 N572 1.613 . S
S571 N573 1.610 . S
N572 S571 1.613 . S
N572 C575 1.350 . S
N573 S571 1.610 . S
N573 C574 1.351 . S
C574 C568 1.428 . S
C574 N573 1.351 . S
C574 C575 1.434 . S
C575 C566 1.429 . S
C575 N572 1.350 . S
C575 C574 1.434 . S
C225 C154 1.537 . S
C227 C1 1.550 . S
C236 C27 1.550 . S
C238 C124 1.539 . S
C247 C41 1.549 . S
C249 C126 1.535 . S
C258 C140 1.537 . S
C260 C55 1.551 . S
C269 C69 1.550 . S
C271 C70 1.534 1_554 S
C280 C83 1.550 . S
C282 C85 1.538 1_556 S
C291 C98 1.534 1_554 S
C293 C96 1.550 . S
C302 C56 1.536 1_556 S
C304 C111 1.550 . S
C313 C42 1.534 . S
C315 C113 1.550 . S
C324 C139 1.550 . S
C326 C12 1.537 . S
C335 C14 1.538 . S
C337 C153 1.550 . S
C346 C167 1.551 . S
C348 C28 1.539 . S
C357 C180 1.551 . S
C359 C182 1.536 . S
C368 C195 1.550 . S
C370 C197 1.537 . S
C379 C210 1.535 . S
C381 C208 1.551 . S
C390 C169 1.537 . S
C392 C223 1.550 . S
C401 C68 1.448 . S
C403 C0 1.446 . S
C412 C26 1.446 . S
C414 C82 1.443 . S
C423 C40 1.444 . S
C425 C97 1.446 . S
C434 C110 1.443 . S
C436 C54 1.445 . S
C445 C112 1.447 . S
C447 C181 1.443 . S
C456 C194 1.447 . S
C458 C138 1.446 . S
C467 C152 1.444 . S
C469 C209 1.446 . S
C478 C222 1.443 . S
C480 C166 1.447 . S
C489 C196 1.672 . S
C491 C13 1.674 1_556 S
C500 C211 1.677 . S
C502 C15 1.673 1_554 S
C511 C29 1.672 1_556 S
C513 C168 1.676 . S
C522 C183 1.677 . S
C524 C43 1.673 1_554 S
C533 C141 1.673 . S
C535 C57 1.670 . S
C544 C155 1.672 . S
C546 C71 1.675 . S
C555 C84 1.675 . S
C557 C125 1.670 . S
C566 C127 1.676 . S
C568 C99 1.672 . S
