# Generated by pormake.
# Topology fnj, (5)-cn, num edge types: 1
# Building blocks:
#     Node 0, Type 0, BuildingBlock: XOMCOT_clean_sbu_1, # of connection points: 5
#     Node 1, Type 0, BuildingBlock: XOMCOT_clean_sbu_1, # of connection points: 5
#     Node 2, Type 0, BuildingBlock: XOMCOT_clean_sbu_1, # of connection points: 5
#     Node 3, Type 0, BuildingBlock: XOMCOT_clean_sbu_1, # of connection points: 5
#     Node 4, Type 0, BuildingBlock: XOMCOT_clean_sbu_1, # of connection points: 5
#     Node 5, Type 0, BuildingBlock: XOMCOT_clean_sbu_1, # of connection points: 5
#     Node 6, Type 0, BuildingBlock: XOMCOT_clean_sbu_1, # of connection points: 5
#     Node 7, Type 0, BuildingBlock: XOMCOT_clean_sbu_1, # of connection points: 5
#     Node 8, Type 0, BuildingBlock: XOMCOT_clean_sbu_1, # of connection points: 5
#     Node 9, Type 0, BuildingBlock: XOMCOT_clean_sbu_1, # of connection points: 5
#     Node 10, Type 0, BuildingBlock: XOMCOT_clean_sbu_1, # of connection points: 5
#     Node 11, Type 0, BuildingBlock: XOMCOT_clean_sbu_1, # of connection points: 5
#     Node 12, Type 0, BuildingBlock: XOMCOT_clean_sbu_1, # of connection points: 5
#     Node 13, Type 0, BuildingBlock: XOMCOT_clean_sbu_1, # of connection points: 5
#     Node 14, Type 0, BuildingBlock: XOMCOT_clean_sbu_1, # of connection points: 5
#     Node 15, Type 0, BuildingBlock: XOMCOT_clean_sbu_1, # of connection points: 5
#     Edge 16, Type (0, 0), BuildingBlock: KIFKEQ_clean_linker_1, # of connection points: 2
#     Edge 17, Type (0, 0), BuildingBlock: KIFKEQ_clean_linker_1, # of connection points: 2
#     Edge 18, Type (0, 0), BuildingBlock: KIFKEQ_clean_linker_1, # of connection points: 2
#     Edge 19, Type (0, 0), BuildingBlock: KIFKEQ_clean_linker_1, # of connection points: 2
#     Edge 20, Type (0, 0), BuildingBlock: KIFKEQ_clean_linker_1, # of connection points: 2
#     Edge 21, Type (0, 0), BuildingBlock: KIFKEQ_clean_linker_1, # of connection points: 2
#     Edge 22, Type (0, 0), BuildingBlock: KIFKEQ_clean_linker_1, # of connection points: 2
#     Edge 23, Type (0, 0), BuildingBlock: KIFKEQ_clean_linker_1, # of connection points: 2
#     Edge 24, Type (0, 0), BuildingBlock: KIFKEQ_clean_linker_1, # of connection points: 2
#     Edge 25, Type (0, 0), BuildingBlock: KIFKEQ_clean_linker_1, # of connection points: 2
#     Edge 26, Type (0, 0), BuildingBlock: KIFKEQ_clean_linker_1, # of connection points: 2
#     Edge 27, Type (0, 0), BuildingBlock: KIFKEQ_clean_linker_1, # of connection points: 2
#     Edge 28, Type (0, 0), BuildingBlock: KIFKEQ_clean_linker_1, # of connection points: 2
#     Edge 29, Type (0, 0), BuildingBlock: KIFKEQ_clean_linker_1, # of connection points: 2
#     Edge 30, Type (0, 0), BuildingBlock: KIFKEQ_clean_linker_1, # of connection points: 2
#     Edge 31, Type (0, 0), BuildingBlock: KIFKEQ_clean_linker_1, # of connection points: 2
#     Edge 32, Type (0, 0), BuildingBlock: KIFKEQ_clean_linker_1, # of connection points: 2
#     Edge 33, Type (0, 0), BuildingBlock: KIFKEQ_clean_linker_1, # of connection points: 2
#     Edge 34, Type (0, 0), BuildingBlock: KIFKEQ_clean_linker_1, # of connection points: 2
#     Edge 35, Type (0, 0), BuildingBlock: KIFKEQ_clean_linker_1, # of connection points: 2
#     Edge 36, Type (0, 0), BuildingBlock: KIFKEQ_clean_linker_1, # of connection points: 2
#     Edge 37, Type (0, 0), BuildingBlock: KIFKEQ_clean_linker_1, # of connection points: 2
#     Edge 38, Type (0, 0), BuildingBlock: KIFKEQ_clean_linker_1, # of connection points: 2
#     Edge 39, Type (0, 0), BuildingBlock: KIFKEQ_clean_linker_1, # of connection points: 2
#     Edge 40, Type (0, 0), BuildingBlock: KIFKEQ_clean_linker_1, # of connection points: 2
#     Edge 41, Type (0, 0), BuildingBlock: KIFKEQ_clean_linker_1, # of connection points: 2
#     Edge 42, Type (0, 0), BuildingBlock: KIFKEQ_clean_linker_1, # of connection points: 2
#     Edge 43, Type (0, 0), BuildingBlock: KIFKEQ_clean_linker_1, # of connection points: 2
#     Edge 44, Type (0, 0), BuildingBlock: KIFKEQ_clean_linker_1, # of connection points: 2
#     Edge 45, Type (0, 0), BuildingBlock: KIFKEQ_clean_linker_1, # of connection points: 2
#     Edge 46, Type (0, 0), BuildingBlock: KIFKEQ_clean_linker_1, # of connection points: 2
#     Edge 47, Type (0, 0), BuildingBlock: KIFKEQ_clean_linker_1, # of connection points: 2
#     Edge 48, Type (0, 0), BuildingBlock: KIFKEQ_clean_linker_1, # of connection points: 2
#     Edge 49, Type (0, 0), BuildingBlock: KIFKEQ_clean_linker_1, # of connection points: 2
#     Edge 50, Type (0, 0), BuildingBlock: KIFKEQ_clean_linker_1, # of connection points: 2
#     Edge 51, Type (0, 0), BuildingBlock: KIFKEQ_clean_linker_1, # of connection points: 2
#     Edge 52, Type (0, 0), BuildingBlock: KIFKEQ_clean_linker_1, # of connection points: 2
#     Edge 53, Type (0, 0), BuildingBlock: KIFKEQ_clean_linker_1, # of connection points: 2
#     Edge 54, Type (0, 0), BuildingBlock: KIFKEQ_clean_linker_1, # of connection points: 2
#     Edge 55, Type (0, 0), BuildingBlock: KIFKEQ_clean_linker_1, # of connection points: 2
# Relax obj value: 0.161
# Max RMSD: 0.164
# Mean RMSD: 0.158
data_MOF--net-fnj--node1-XOMCOT_clean_sbu_1--edge1-KIFKEQ_clean_linker_1
_symmetry_space_group_name_H-M    P1
_symmetry_Int_Tables_number       1
_symmetry_cell_setting            triclinic
loop_
_symmetry_equiv_pos_as_xyz
'x, y, z'
_cell_length_a     75.968212
_cell_length_b     75.983884
_cell_length_c     17.75586
_cell_angle_alpha  94.03863
_cell_angle_beta   93.973008
_cell_angle_gamma 90.639778
loop_
_atom_site_label
_atom_site_type_symbol
_atom_site_fract_x
_atom_site_fract_y
_atom_site_fract_z
_atom_type_partial_charge
C0 C 0.41419 0.03234 0.19885 0.0
C1 C 0.41401 0.02954 0.27452 0.0
N2 N 0.40909 0.04456 0.3116 0.0
N3 N 0.40934 0.04904 0.18764 0.0
C4 C 0.4064 0.05615 0.2577 0.0
H5 H 0.41767 0.02275 0.15469 0.0
Co6 Co 0.40873 0.05906 0.09329 0.0
C7 C 0.40547 0.09755 0.1763 0.0
O8 O 0.41987 0.10743 0.18329 0.0
N9 N 0.40867 0.06876 0.99943 0.0
C10 C 0.4136 0.08643 0.90858 0.0
C11 C 0.41445 0.08496 0.98542 0.0
C12 C 0.40456 0.06054 0.93029 0.0
N13 N 0.4074 0.07105 0.87362 0.0
O14 O 0.43386 0.06116 0.10237 0.0
H15 H 0.41963 0.09488 0.02801 0.0
H16 H 0.39984 0.04701 0.92202 0.0
O17 O 0.40594 0.08211 0.14363 0.0
C18 C 0.4409 0.04797 0.06834 0.0
O19 O 0.43055 0.03537 0.03486 0.0
N20 N 0.38427 0.05615 0.08096 0.0
C21 C 0.34823 0.04937 0.05427 0.0
C22 C 0.3551 0.06638 0.04878 0.0
C23 C 0.37326 0.06946 0.06162 0.0
C24 C 0.37784 0.03946 0.08421 0.0
C25 C 0.35986 0.03583 0.07215 0.0
H26 H 0.37849 0.08249 0.05485 0.0
H27 H 0.38673 0.02875 0.094 0.0
H28 H 0.40295 0.06972 0.26994 0.0
H29 H 0.41718 0.01735 0.30006 0.0
H30 H 0.418 0.09774 0.88073 0.0
H31 H 0.34659 0.0771 0.03353 0.0
H32 H 0.35523 0.02233 0.0735 0.0
C33 C 0.2754 0.19918 0.42849 0.0
C34 C 0.27715 0.19945 0.50607 0.0
N35 N 0.2609 0.19933 0.53227 0.0
N36 N 0.25812 0.19873 0.40533 0.0
C37 C 0.24962 0.19899 0.46972 0.0
H38 H 0.28609 0.1992 0.39135 0.0
Co39 Co 0.2486 0.1978 0.30536 0.0
C40 C 0.21901 0.17098 0.30104 0.0
O41 O 0.22433 0.16484 0.2355 0.0
N42 N 0.23874 0.19738 0.20456 0.0
C43 C 0.21887 0.20126 0.10912 0.0
C44 C 0.22171 0.20115 0.18631 0.0
C45 C 0.24606 0.19573 0.13705 0.0
N46 N 0.23425 0.19788 0.0779 0.0
O47 O 0.23878 0.22126 0.32314 0.0
H48 H 0.21196 0.20396 0.22694 0.0
H49 H 0.25991 0.19381 0.13089 0.0
O50 O 0.22718 0.18447 0.33598 0.0
C51 C 0.25178 0.23185 0.31559 0.0
O52 O 0.26721 0.225 0.30339 0.0
N53 N 0.26125 0.17694 0.28586 0.0
C54 C 0.28939 0.15368 0.2762 0.0
C55 C 0.27416 0.14892 0.3111 0.0
C56 C 0.26028 0.161 0.31696 0.0
C57 C 0.27601 0.18148 0.25189 0.0
C58 C 0.29002 0.17004 0.24537 0.0
H59 H 0.24955 0.15799 0.35098 0.0
H60 H 0.27762 0.19478 0.23534 0.0
H61 H 0.2354 0.19909 0.47046 0.0
H62 H 0.28952 0.19942 0.54008 0.0
H63 H 0.20642 0.2038 0.0788 0.0
H64 H 0.2735 0.13657 0.33778 0.0
H65 H 0.30172 0.17437 0.2198 0.0
C66 C 0.10729 0.02999 0.40943 0.0
C67 C 0.10689 0.02814 0.33172 0.0
N68 N 0.10708 0.04436 0.30519 0.0
N69 N 0.10789 0.04729 0.43216 0.0
C70 C 0.10756 0.05571 0.3676 0.0
H71 H 0.10741 0.0194 0.44706 0.0
Co72 Co 0.10933 0.05687 0.53175 0.0
C73 C 0.13549 0.08678 0.53271 0.0
O74 O 0.14218 0.08125 0.59695 0.0
N75 N 0.1102 0.06686 0.63315 0.0
C76 C 0.10649 0.08674 0.72899 0.0
C77 C 0.10659 0.08392 0.65174 0.0
C78 C 0.11165 0.0595 0.70062 0.0
N79 N 0.10963 0.07131 0.75996 0.0
O80 O 0.08524 0.06571 0.51705 0.0
H81 H 0.10377 0.09369 0.61132 0.0
H82 H 0.11314 0.04561 0.70672 0.0
O83 O 0.12177 0.07869 0.4993 0.0
C84 C 0.07633 0.05272 0.53895 0.0
O85 O 0.08521 0.03891 0.5594 0.0
N86 N 0.13083 0.04497 0.54822 0.0
C87 C 0.15653 0.01924 0.56512 0.0
C88 C 0.15933 0.03344 0.52065 0.0
C89 C 0.14613 0.0462 0.51218 0.0
C90 C 0.12778 0.03057 0.58729 0.0
C91 C 0.14053 0.01794 0.59842 0.0
H92 H 0.14786 0.05638 0.47374 0.0
H93 H 0.11486 0.02816 0.60613 0.0
H94 H 0.10758 0.06991 0.36663 0.0
H95 H 0.10686 0.01574 0.29787 0.0
H96 H 0.10401 0.09919 0.75948 0.0
H97 H 0.17136 0.03446 0.49175 0.0
H98 H 0.13756 1.00672 0.63012 0.0
C99 C 0.28493 0.91651 0.64351 0.0
C100 C 0.28686 0.91701 0.56717 0.0
N101 N 0.27178 0.91089 0.52932 0.0
N102 N 0.26871 0.91014 0.65364 0.0
C103 C 0.26103 0.90678 0.58313 0.0
H104 H 0.29479 0.92031 0.68878 0.0
Co105 Co 0.26008 0.90565 0.74562 0.0
C106 C 0.22215 0.91528 0.73197 0.0
O107 O 0.22248 0.91775 0.80599 0.0
N108 N 0.25164 0.90022 0.84006 0.0
C109 C 0.23819 0.88496 0.92318 0.0
C110 C 0.24014 0.88683 0.84774 0.0
C111 C 0.2566 0.90605 0.91242 0.0
N112 N 0.24863 0.89706 0.96403 0.0
O113 O 0.25965 0.88095 0.71642 0.0
H114 H 0.23372 0.8787 0.80116 0.0
H115 H 0.26605 0.91649 0.92813 0.0
O116 O 0.23574 0.90896 0.70134 0.0
C117 C 0.27446 0.87448 0.73759 0.0
O118 O 0.28704 0.88537 0.76736 0.0
N119 N 0.2623 0.9299 0.77519 0.0
C120 C 0.26839 0.96494 0.82612 0.0
C121 C 0.2555 0.96057 0.76782 0.0
C122 C 0.25293 0.94291 0.7419 0.0
C123 C 0.27629 0.93433 0.82527 0.0
C124 C 0.27921 0.95174 0.8537 0.0
H125 H 0.24394 0.93992 0.69328 0.0
H126 H 0.28512 0.92418 0.84396 0.0
H127 H 0.24802 0.90086 0.57135 0.0
H128 H 0.29845 0.92154 0.54156 0.0
H129 H 0.23017 0.87503 0.94588 0.0
H130 H 0.24773 0.9707 0.74194 0.0
H131 H 0.29001 0.95492 0.89577 0.0
C132 C 0.61007 0.05491 0.91981 0.0
C133 C 0.61056 0.0571 0.8437 0.0
N134 N 0.60783 0.04123 0.80559 0.0
N135 N 0.60711 0.03774 0.92965 0.0
C136 C 0.60568 0.02974 0.85906 0.0
H137 H 0.61165 0.0652 0.96513 0.0
Co138 Co 0.60469 0.02827 0.02202 0.0
C139 C 0.61924 0.99188 0.00605 0.0
O140 O 0.62187 0.99203 0.07995 0.0
N141 N 0.60146 0.01902 0.11682 0.0
C142 C 0.58898 1.00381 0.20249 0.0
C143 C 0.58985 1.00589 0.12663 0.0
C144 C 0.60726 0.02481 0.18826 0.0
N145 N 0.59992 0.01578 0.24145 0.0
O146 O 0.58002 0.02449 0.99551 0.0
H147 H 0.58219 0.99847 0.08125 0.0
H148 H 0.61641 0.03566 0.20186 0.0
O149 O 0.61117 1.00478 0.97678 0.0
C150 C 0.57251 0.03802 0.02466 0.0
O151 O 0.58258 0.0508 0.05871 0.0
N152 N 0.62846 0.03407 0.04917 0.0
C153 C 0.66195 0.04877 0.08342 0.0
C154 C 0.65972 0.0333 0.03643 0.0
C155 C 0.64275 0.02648 0.0179 0.0
C156 C 0.63049 0.04951 0.09295 0.0
C157 C 0.64715 0.057 0.11167 0.0
H158 H 0.64125 0.01594 0.97457 0.0
H159 H 0.61897 0.05631 0.11173 0.0
H160 H 0.60263 0.01586 0.84685 0.0
H161 H 0.61287 0.06941 0.81849 0.0
H162 H 0.58038 0.99464 0.22687 0.0
H163 H 0.67085 0.0272 0.0105 0.0
H164 H 0.64843 0.06934 0.14622 0.0
C165 C 0.74326 0.88933 0.66262 0.0
C166 C 0.74118 0.88905 0.58492 0.0
N167 N 0.75698 0.89258 0.55864 0.0
N168 N 0.76024 0.89318 0.68531 0.0
C169 C 0.76831 0.89491 0.62072 0.0
H170 H 0.73305 0.88689 0.70027 0.0
Co171 Co 0.76961 0.89539 0.78499 0.0
C172 C 0.79821 0.92324 0.78729 0.0
O173 O 0.79245 0.92963 0.85161 0.0
N174 N 0.77933 0.89708 0.88674 0.0
C175 C 0.79887 0.89431 0.9847 0.0
C176 C 0.79643 0.89399 0.90714 0.0
C177 C 0.7716 0.8988 0.95334 0.0
N178 N 0.78318 0.89724 0.01365 0.0
O179 O 0.78038 0.87229 0.77017 0.0
H180 H 0.80643 0.89112 0.86777 0.0
H181 H 0.75769 0.90066 0.95842 0.0
O182 O 0.79059 0.90931 0.75353 0.0
C183 C 0.76968 0.86178 0.7988 0.0
O184 O 0.75591 0.86857 0.83017 0.0
N185 N 0.75601 0.91573 0.80082 0.0
C186 C 0.72815 0.93894 0.81893 0.0
C187 C 0.74267 0.94375 0.77953 0.0
C188 C 0.7565 0.93173 0.76998 0.0
C189 C 0.74143 0.91078 0.83514 0.0
C190 C 0.72765 0.92224 0.84647 0.0
H191 H 0.76702 0.93501 0.73531 0.0
H192 H 0.74013 0.89746 0.8515 0.0
H193 H 0.7822 0.89804 0.61911 0.0
H194 H 0.72903 0.88624 0.55045 0.0
H195 H 0.81107 0.89175 0.017 0.0
H196 H 0.74315 0.95643 0.75537 0.0
H197 H 0.71637 0.91786 0.87481 0.0
C198 C 0.9148 0.06304 0.68311 0.0
C199 C 0.9151 0.06511 0.76083 0.0
N200 N 0.91229 0.04918 0.78725 0.0
N201 N 0.91164 0.04592 0.66056 0.0
C202 C 0.91035 0.03778 0.72523 0.0
H203 H 0.9167 0.07335 0.64535 0.0
Co204 Co 0.90963 0.03652 0.56091 0.0
C205 C 0.88247 1.00733 0.55879 0.0
O206 O 0.87598 0.013 0.49449 0.0
N207 N 0.90817 0.02677 0.45914 0.0
C208 C 0.9115 1.00725 0.3615 0.0
C209 C 0.91163 0.00973 0.43901 0.0
C210 C 0.90643 0.03442 0.3924 0.0
N211 N 0.90831 0.02285 0.33229 0.0
O212 O 0.93311 0.02643 0.57517 0.0
H213 H 0.91466 0.99981 0.47854 0.0
H214 H 0.90435 0.04828 0.38705 0.0
O215 O 0.89629 0.01517 0.59256 0.0
C216 C 0.9431 0.03781 0.54775 0.0
O217 O 0.93563 0.05165 0.5197 0.0
N218 N 0.88881 0.04947 0.54545 0.0
C219 C 0.8643 0.07622 0.52695 0.0
C220 C 0.86043 0.06182 0.56883 0.0
C221 C 0.87307 0.04855 0.57828 0.0
C222 C 0.89293 0.06405 0.50939 0.0
C223 C 0.88079 0.07724 0.49757 0.0
H224 H 0.87047 0.03812 0.61446 0.0
H225 H 0.90612 0.06589 0.49214 0.0
H226 H 0.9078 0.02379 0.72689 0.0
H227 H 0.91743 0.07736 0.79519 0.0
H228 H 0.91435 0.99509 0.32944 0.0
H229 H 0.84798 0.06099 0.59466 0.0
H230 H 0.88453 0.08852 0.46774 0.0
C231 C 0.73805 0.1803 0.4517 0.0
C232 C 0.73652 0.1794 0.52815 0.0
N233 N 0.75158 0.18577 0.56562 0.0
N234 N 0.75404 0.1871 0.44072 0.0
C235 C 0.76192 0.1904 0.51094 0.0
H236 H 0.72804 0.17654 0.40704 0.0
Co237 Co 0.76252 0.19217 0.34866 0.0
C238 C 0.80036 0.18181 0.36022 0.0
O239 O 0.80036 0.18034 0.2861 0.0
N240 N 0.77094 0.1981 0.25458 0.0
C241 C 0.78464 0.21356 0.17272 0.0
C242 C 0.78237 0.21161 0.2479 0.0
C243 C 0.7664 0.1922 0.1818 0.0
N244 N 0.77457 0.20128 0.13122 0.0
O245 O 0.76351 0.21664 0.38148 0.0
H246 H 0.7887 0.21965 0.29499 0.0
H247 H 0.75681 0.18193 0.16467 0.0
O248 O 0.78672 0.18786 0.39122 0.0
C249 C 0.74847 0.22288 0.3621 0.0
O250 O 0.73603 0.21183 0.33238 0.0
N251 N 0.75952 0.16834 0.31507 0.0
C252 C 0.75122 0.13436 0.25464 0.0
C253 C 0.76497 0.13723 0.31077 0.0
C254 C 0.76874 0.1544 0.34135 0.0
C255 C 0.74487 0.16537 0.2672 0.0
C256 C 0.7408 0.14858 0.23421 0.0
H257 H 0.77858 0.15624 0.38767 0.0
H258 H 0.73655 0.17629 0.25307 0.0
H259 H 0.77499 0.19621 0.52152 0.0
H260 H 0.72497 0.17484 0.55388 0.0
H261 H 0.79303 0.22325 0.15043 0.0
H262 H 0.77259 0.12634 0.33112 0.0
H263 H 0.72939 0.14665 0.19423 0.0
C264 C 0.90821 0.53325 0.61501 0.0
C265 C 0.90851 0.53133 0.69165 0.0
N266 N 0.91 0.5475 0.72815 0.0
N267 N 0.90949 0.55054 0.6034 0.0
C268 C 0.91066 0.55888 0.67333 0.0
H269 H 0.90722 0.52273 0.57053 0.0
Co270 Co 0.9105 0.56022 0.51052 0.0
C271 C 0.88948 0.59246 0.52354 0.0
O272 O 0.88504 0.58973 0.45079 0.0
N273 N 0.91242 0.57018 0.41551 0.0
C274 C 0.9224 0.58806 0.33284 0.0
C275 C 0.92128 0.58543 0.40825 0.0
C276 C 0.90841 0.56382 0.343 0.0
N277 N 0.91436 0.57434 0.29166 0.0
O278 O 0.93461 0.56673 0.53706 0.0
H279 H 0.92704 0.59393 0.45518 0.0
H280 H 0.90153 0.55159 0.32689 0.0
O281 O 0.90102 0.58254 0.55455 0.0
C282 C 0.9428 0.55344 0.5094 0.0
O283 O 0.93339 0.54038 0.47379 0.0
N284 N 0.88767 0.55142 0.48384 0.0
C285 C 0.85695 0.53092 0.4533 0.0
C286 C 0.85767 0.5451 0.50873 0.0
C287 C 0.87322 0.55507 0.52367 0.0
C288 C 0.88743 0.53713 0.43333 0.0
C289 C 0.87203 0.52744 0.41367 0.0
H290 H 0.87398 0.56466 0.57156 0.0
H291 H 0.89956 0.53261 0.41076 0.0
H292 H 0.91248 0.57299 0.68405 0.0
H293 H 0.90755 0.51902 0.71836 0.0
H294 H 0.92928 0.59887 0.31049 0.0
H295 H 0.84682 0.54779 0.54401 0.0
H296 H 0.87239 0.51674 0.37034 0.0
C297 C 0.77664 0.69989 0.93032 0.0
C298 C 0.7787 0.69999 0.00794 0.0
N299 N 0.7627 0.69767 0.03437 0.0
N300 N 0.75944 0.69735 0.90777 0.0
C301 C 0.75124 0.69622 0.97245 0.0
H302 H 0.78703 0.70159 0.89271 0.0
Co303 Co 0.74997 0.69594 0.80806 0.0
C304 C 0.7197 0.66974 0.80458 0.0
O305 O 0.72458 0.66357 0.73833 0.0
N306 N 0.74027 0.69509 0.70683 0.0
C307 C 0.72107 0.69926 0.60929 0.0
C308 C 0.72346 0.69936 0.68677 0.0
C309 C 0.74793 0.69291 0.64023 0.0
N310 N 0.73653 0.69528 0.5801 0.0
O311 O 0.74045 0.71978 0.8239 0.0
H312 H 0.71364 0.70283 0.72634 0.0
H313 H 0.76169 0.69009 0.63518 0.0
O314 O 0.72832 0.68299 0.83934 0.0
C315 C 0.7528 0.72923 0.80003 0.0
O316 O 0.76683 0.72104 0.77764 0.0
N317 N 0.76246 0.67482 0.79027 0.0
C318 C 0.78879 0.64996 0.76804 0.0
C319 C 0.77347 0.64544 0.80285 0.0
C320 C 0.76057 0.65834 0.81557 0.0
C321 C 0.77757 0.67922 0.75836 0.0
C322 C 0.79072 0.66707 0.74614 0.0
H323 H 0.74959 0.65517 0.84787 0.0
H324 H 0.77977 0.69256 0.7439 0.0
H325 H 0.73717 0.69419 0.9742 0.0
H326 H 0.79101 0.70188 0.04225 0.0
H327 H 0.70909 0.70263 0.5772 0.0
H328 H 0.77178 0.63236 0.82207 0.0
H329 H 0.80245 0.67111 0.72 0.0
C330 C 0.60183 0.53108 0.91421 0.0
C331 C 0.60173 0.529 0.83655 0.0
N332 N 0.60589 0.54467 0.81071 0.0
N333 N 0.60625 0.54793 0.93739 0.0
C334 C 0.60845 0.55592 0.87298 0.0
H335 H 0.59871 0.52098 0.95135 0.0
Co336 Co 0.60801 0.55742 0.03715 0.0
C337 C 0.63594 0.58632 0.04135 0.0
O338 O 0.64174 0.58144 0.10804 0.0
N339 N 0.60926 0.56717 0.13844 0.0
C340 C 0.60629 0.58649 0.23692 0.0
C341 C 0.60592 0.58418 0.1593 0.0
C342 C 0.61118 0.55933 0.20464 0.0
N343 N 0.60952 0.5708 0.26533 0.0
O344 O 0.58519 0.56858 0.01929 0.0
H345 H 0.60296 0.59422 0.12024 0.0
H346 H 0.61333 0.54542 0.2089 0.0
O347 O 0.62247 0.57812 0.00646 0.0
C348 C 0.57415 0.55844 0.04793 0.0
O349 O 0.58028 0.54486 0.08258 0.0
N350 N 0.62795 0.54343 0.05617 0.0
C351 C 0.65015 0.51507 0.08192 0.0
C352 C 0.65663 0.5303 0.05181 0.0
C353 C 0.64508 0.54428 0.03716 0.0
C354 C 0.62167 0.5285 0.08386 0.0
C355 C 0.63244 0.51432 0.09751 0.0
H356 H 0.64983 0.55529 0.00871 0.0
H357 H 0.60789 0.52742 0.09426 0.0
H358 H 0.61191 0.56973 0.87157 0.0
H359 H 0.59848 0.51698 0.80176 0.0
H360 H 0.60365 0.59861 0.26969 0.0
H361 H 0.67024 0.53113 0.0377 0.0
H362 H 0.62692 0.50277 0.12026 0.0
C363 C 0.75567 0.38816 0.2276 0.0
C364 C 0.75742 0.38774 0.15084 0.0
N365 N 0.74117 0.38638 0.11512 0.0
N366 N 0.7384 0.38706 0.24007 0.0
C367 C 0.7299 0.38595 0.17049 0.0
H368 H 0.7663 0.389 0.27154 0.0
Co369 Co 0.72878 0.38591 0.33338 0.0
C370 C 0.69822 0.40939 0.32458 0.0
O371 O 0.70101 0.41305 0.39789 0.0
N372 N 0.7188 0.38395 0.42822 0.0
C373 C 0.70027 0.37476 0.51018 0.0
C374 C 0.70301 0.37602 0.43493 0.0
C375 C 0.72534 0.38727 0.5009 0.0
N376 N 0.71443 0.3818 0.5518 0.0
O377 O 0.72034 0.36249 0.3035 0.0
H378 H 0.69415 0.37106 0.3877 0.0
H379 H 0.73792 0.3934 0.5175 0.0
O380 O 0.70731 0.39733 0.29202 0.0
C381 C 0.7338 0.35311 0.31879 0.0
O382 O 0.74853 0.36114 0.34615 0.0
N383 N 0.73928 0.40788 0.36364 0.0
C384 C 0.76098 0.43741 0.40474 0.0
C385 C 0.7472 0.43799 0.34783 0.0
C386 C 0.7366 0.42304 0.32771 0.0
C387 C 0.75345 0.40669 0.41386 0.0
C388 C 0.76368 0.42146 0.43897 0.0
H389 H 0.72719 0.42338 0.27955 0.0
H390 H 0.75717 0.394 0.43323 0.0
H391 H 0.71575 0.38429 0.16045 0.0
H392 H 0.76967 0.38844 0.12347 0.0
H393 H 0.68899 0.36855 0.53206 0.0
H394 H 0.74514 0.44946 0.31575 0.0
H395 H 0.77399 0.41994 0.48298 0.0
C396 C 0.11222 0.56061 0.45888 0.0
C397 C 0.11222 0.56222 0.38219 0.0
N398 N 0.10876 0.54622 0.34585 0.0
N399 N 0.10896 0.54363 0.47121 0.0
C400 C 0.10676 0.53523 0.40151 0.0
H401 H 0.11454 0.57112 0.50289 0.0
Co402 Co 0.10739 0.53402 0.56444 0.0
C403 C 0.13014 0.50297 0.5549 0.0
O404 O 0.13443 0.50632 0.62751 0.0
N405 N 0.10501 0.52401 0.65895 0.0
C406 C 0.09721 0.50467 0.74027 0.0
C407 C 0.0982 0.50769 0.66512 0.0
C408 C 0.10746 0.53077 0.73172 0.0
N409 N 0.10311 0.51925 0.78229 0.0
O410 O 0.08373 0.52647 0.53416 0.0
H411 H 0.09415 0.49851 0.61759 0.0
H412 H 0.1116 0.54409 0.7485 0.0
O413 O 0.11815 0.51216 0.52246 0.0
C414 C 0.07509 0.54026 0.55276 0.0
O415 O 0.08392 0.55412 0.58476 0.0
N416 N 0.1297 0.54378 0.59522 0.0
C417 C 0.15949 0.56528 0.63346 0.0
C418 C 0.15981 0.55137 0.57708 0.0
C419 C 0.14472 0.54087 0.55834 0.0
C420 C 0.12891 0.55789 0.64618 0.0
C421 C 0.1438 0.56804 0.6697 0.0
H422 H 0.1448 0.53144 0.51004 0.0
H423 H 0.11634 0.56202 0.66538 0.0
H424 H 0.10348 0.52133 0.39212 0.0
H425 H 0.11482 0.57429 0.35573 0.0
H426 H 0.09251 0.49266 0.76192 0.0
H427 H 0.17114 0.54922 0.54412 0.0
H428 H 0.14257 0.57852 0.71336 0.0
C429 C 0.24052 0.39532 0.13716 0.0
C430 C 0.23859 0.39518 0.05956 0.0
N431 N 0.25472 0.39677 0.03345 0.0
N432 N 0.25779 0.39704 0.16007 0.0
C433 C 0.26612 0.39783 0.09553 0.0
H434 H 0.22998 0.39397 0.17435 0.0
Co435 Co 0.26744 0.39685 0.25948 0.0
C436 C 0.29977 0.42098 0.26714 0.0
O437 O 0.29709 0.42559 0.33806 0.0
N438 N 0.27722 0.39608 0.35979 0.0
C439 C 0.29549 0.38882 0.45579 0.0
C440 C 0.29304 0.38906 0.37845 0.0
C441 C 0.27024 0.39983 0.42709 0.0
N442 N 0.28108 0.39557 0.48654 0.0
O443 O 0.27601 0.3728 0.23728 0.0
H444 H 0.30211 0.38406 0.33804 0.0
H445 H 0.25736 0.40531 0.4329 0.0
O446 O 0.28933 0.40949 0.22976 0.0
C447 C 0.26262 0.36321 0.25033 0.0
O448 O 0.24843 0.37142 0.27084 0.0
N449 N 0.25587 0.41817 0.28307 0.0
C450 C 0.23041 0.44359 0.31135 0.0
C451 C 0.24644 0.44834 0.28254 0.0
C452 C 0.25895 0.43523 0.26684 0.0
C453 C 0.24028 0.41363 0.31066 0.0
C454 C 0.22749 0.42602 0.32539 0.0
H455 H 0.27061 0.43876 0.23961 0.0
H456 H 0.23758 0.40007 0.32063 0.0
H457 H 0.28031 0.39861 0.09377 0.0
H458 H 0.22626 0.39402 0.0251 0.0
H459 H 0.30674 0.38344 0.48651 0.0
H460 H 0.24898 0.46184 0.27011 0.0
H461 H 0.21532 0.42184 0.34772 0.0
C462 C 0.41295 0.56445 0.16758 0.0
C463 C 0.41301 0.56649 0.24521 0.0
N464 N 0.41038 0.55052 0.27139 0.0
N465 N 0.4101 0.5473 0.14475 0.0
C466 C 0.40878 0.53911 0.20931 0.0
H467 H 0.41492 0.57481 0.13016 0.0
Co468 Co 0.40868 0.53778 0.04502 0.0
C469 C 0.3823 0.50747 0.04112 0.0
O470 O 0.37634 0.51176 0.97373 0.0
N471 N 0.40782 0.52801 0.94377 0.0
C472 C 0.41198 0.50881 0.8461 0.0
C473 C 0.41212 0.51121 0.92362 0.0
C474 C 0.40559 0.53566 0.87718 0.0
N475 N 0.40795 0.52425 0.81699 0.0
O476 O 0.43225 0.52776 0.06179 0.0
H477 H 0.41559 0.5014 0.96314 0.0
H478 H 0.40271 0.54939 0.87216 0.0
O479 O 0.39524 0.51647 0.07624 0.0
C480 C 0.44213 0.53964 0.03705 0.0
O481 O 0.43445 0.55371 0.01233 0.0
N482 N 0.38792 0.55069 0.0265 0.0
C483 C 0.36415 0.57803 0.00601 0.0
C484 C 0.35892 0.56269 0.03899 0.0
C485 C 0.37126 0.54919 0.05042 0.0
C486 C 0.39294 0.56574 0.99575 0.0
C487 C 0.38134 0.57937 0.98434 0.0
H488 H 0.36758 0.53808 0.08094 0.0
H489 H 0.40639 0.56752 0.98184 0.0
H490 H 0.40652 0.52507 0.21089 0.0
H491 H 0.41513 0.57875 0.27973 0.0
H492 H 0.41535 0.49683 0.81392 0.0
H493 H 0.34574 0.56143 0.0578 0.0
H494 H 0.3859 0.59109 0.95957 0.0
C495 C 0.26104 0.70991 0.8838 0.0
C496 C 0.25927 0.7103 0.96052 0.0
N497 N 0.27553 0.7109 0.99618 0.0
N498 N 0.27833 0.71026 0.8713 0.0
C499 C 0.28684 0.71091 0.94081 0.0
H500 H 0.25041 0.70956 0.8399 0.0
Co501 Co 0.28792 0.71101 0.77787 0.0
C502 C 0.31775 0.68654 0.78523 0.0
O503 O 0.31478 0.68311 0.71188 0.0
N504 N 0.29786 0.71258 0.68281 0.0
C505 C 0.31659 0.72109 0.60037 0.0
C506 C 0.31385 0.72004 0.6757 0.0
C507 C 0.29119 0.70931 0.61028 0.0
N508 N 0.30224 0.71438 0.55909 0.0
O509 O 0.29718 0.7342 0.80745 0.0
H510 H 0.32287 0.72481 0.72271 0.0
H511 H 0.27844 0.70352 0.59405 0.0
O512 O 0.30906 0.69881 0.81865 0.0
C513 C 0.28412 0.74409 0.79197 0.0
O514 O 0.26909 0.73659 0.76508 0.0
N515 N 0.27667 0.68936 0.74801 0.0
C516 C 0.25429 0.6603 0.70792 0.0
C517 C 0.26809 0.65947 0.76451 0.0
C518 C 0.279 0.67419 0.78422 0.0
C519 C 0.26246 0.69084 0.69822 0.0
C520 C 0.25182 0.67631 0.67386 0.0
H521 H 0.28843 0.67368 0.83221 0.0
H522 H 0.25907 0.7036 0.67855 0.0
H523 H 0.30104 0.7119 0.9508 0.0
H524 H 0.24698 0.71009 0.9879 0.0
H525 H 0.32802 0.72694 0.57817 0.0
H526 H 0.26995 0.64795 0.79647 0.0
H527 H 0.24143 0.67799 0.63032 0.0
H528 H 0.4028 0.09368 0.76262 0.0
H529 H 0.40804 0.03838 0.8 0.0
H530 H 0.40249 0.08678 0.62695 0.0
H531 H 0.40687 0.03134 0.66359 0.0
H532 H 0.42692 0.02834 0.42422 0.0
H533 H 0.42505 0.03415 0.55995 0.0
H534 H 0.38583 0.07372 0.51828 0.0
H535 H 0.38792 0.06802 0.38234 0.0
C536 C 0.4038 0.08002 0.74201 0.0
C537 C 0.40565 0.06663 0.79277 0.0
C538 C 0.40338 0.07602 0.66382 0.0
C539 C 0.40472 0.05849 0.63388 0.0
C540 C 0.40607 0.04502 0.6845 0.0
C541 C 0.40653 0.04904 0.76291 0.0
C542 C 0.41776 0.03815 0.44391 0.0
C543 C 0.40762 0.04775 0.39216 0.0
C544 C 0.41664 0.04146 0.52196 0.0
C545 C 0.40529 0.05442 0.55049 0.0
C546 C 0.39495 0.06385 0.49862 0.0
C547 C 0.39614 0.06059 0.42052 0.0
H548 H 0.26226 0.18341 0.00962 0.0
H549 H 0.21392 0.21158 0.96418 0.0
H550 H 0.26841 0.18388 0.8772 0.0
H551 H 0.21995 0.2115 0.83142 0.0
H552 H 0.22952 0.19005 0.58569 0.0
H553 H 0.22268 0.18956 0.71758 0.0
H554 H 0.27571 0.2074 0.7893 0.0
H555 H 0.28252 0.20844 0.65809 0.0
C556 C 0.25296 0.18979 0.97197 0.0
C557 C 0.23762 0.19758 0.99858 0.0
C558 C 0.25649 0.18998 0.89581 0.0
C559 C 0.24468 0.19777 0.84407 0.0
C560 C 0.22921 0.20525 0.86994 0.0
C561 C 0.22576 0.20525 0.94628 0.0
C562 C 0.2397 0.1941 0.62921 0.0
C563 C 0.25663 0.19924 0.61043 0.0
C564 C 0.23576 0.19375 0.70493 0.0
C565 C 0.24869 0.19834 0.76365 0.0
C566 C 0.26556 0.20352 0.74518 0.0
C567 C 0.26945 0.20407 0.66965 0.0
H568 H 0.11658 0.07568 0.2518 0.0
H569 H 0.0981 0.02272 0.17917 0.0
H570 H 0.11723 0.08249 0.12012 0.0
H571 H 0.09928 0.02952 0.04792 0.0
H572 H 0.12356 0.04302 0.8278 0.0
H573 H 0.12272 0.0367 0.95989 0.0
H574 H 0.09565 0.08547 0.00628 0.0
H575 H 0.09595 0.09167 0.87384 0.0
C576 C 0.11252 0.06549 0.20828 0.0
C577 C 0.10729 0.04858 0.22699 0.0
C578 C 0.11297 0.06943 0.1326 0.0
C579 C 0.10839 0.05652 0.07375 0.0
C580 C 0.10313 0.03966 0.09212 0.0
C581 C 0.1025 0.03577 0.16766 0.0
C582 C 0.11722 0.05235 0.86551 0.0
C583 C 0.1097 0.06783 0.83915 0.0
C584 C 0.1168 0.04872 0.94149 0.0
C585 C 0.10907 0.06056 0.99335 0.0
C586 C 0.10185 0.07617 0.96771 0.0
C587 C 0.10207 0.07972 0.89154 0.0
H588 H 0.24009 0.91323 0.45106 0.0
H589 H 0.29523 0.90348 0.42422 0.0
H590 H 0.23408 0.91003 0.31385 0.0
H591 H 0.28927 0.89988 0.28754 0.0
H592 H 0.27699 0.91267 0.04587 0.0
H593 H 0.2819 0.91642 0.18215 0.0
H594 H 0.23257 0.88921 0.20598 0.0
H595 H 0.22709 0.88638 0.06893 0.0
C596 C 0.25089 0.91022 0.41581 0.0
C597 C 0.26815 0.9087 0.44841 0.0
C598 C 0.24745 0.90834 0.33715 0.0
C599 C 0.26119 0.90477 0.28932 0.0
C600 C 0.27841 0.90302 0.3223 0.0
C601 C 0.28185 0.90504 0.40076 0.0
C602 C 0.26699 0.90771 0.07964 0.0
C603 C 0.25157 0.89925 0.04558 0.0
C604 C 0.26996 0.90963 0.1583 0.0
C605 C 0.25771 0.90301 0.20542 0.0
C606 C 0.24224 0.89462 0.1716 0.0
C607 C 0.23919 0.8928 0.09275 0.0
H608 H 0.59732 0.06302 0.69754 0.0
H609 H 0.61679 0.01075 0.73014 0.0
H610 H 0.59604 0.05662 0.56099 0.0
H611 H 0.61581 1.00437 0.59331 0.0
H612 H 0.59354 0.99298 0.34797 0.0
H613 H 0.59555 0.9991 0.48457 0.0
H614 H 0.61422 0.05204 0.45735 0.0
H615 H 0.61128 0.04626 0.32086 0.0
C616 C 0.60151 0.05022 0.67548 0.0
C617 C 0.60714 0.03739 0.72472 0.0
C618 C 0.60083 0.04655 0.59709 0.0
C619 C 0.60587 0.02999 0.56587 0.0
C620 C 0.61157 0.01717 0.61525 0.0
C621 C 0.61214 0.02082 0.69373 0.0
C622 C 0.59794 1.00598 0.3709 0.0
C623 C 0.60214 0.01912 0.32278 0.0
C624 C 0.59931 0.00943 0.44952 0.0
C625 C 0.605 0.02609 0.48223 0.0
C626 C 0.60953 0.03913 0.43423 0.0
C627 C 0.60808 0.03572 0.35562 0.0
H628 H 0.78802 0.88553 0.49681 0.0
H629 H 0.73479 0.90231 0.44351 0.0
H630 H 0.79441 0.88705 0.36476 0.0
H631 H 0.74119 0.90413 0.31177 0.0
H632 H 0.75275 0.88664 0.06911 0.0
H633 H 0.74653 0.88581 0.20141 0.0
H634 H 0.79871 0.90702 0.26912 0.0
H635 H 0.80497 0.90756 0.13632 0.0
C636 C 0.77773 0.88973 0.45706 0.0
C637 C 0.76087 0.89373 0.48071 0.0
C638 C 0.7814 0.89064 0.38127 0.0
C639 C 0.76832 0.89568 0.3273 0.0
C640 C 0.7515 0.89987 0.3513 0.0
C641 C 0.74781 0.89885 0.42694 0.0
C642 C 0.76282 0.89131 0.11216 0.0
C643 C 0.77935 0.89721 0.09211 0.0
C644 C 0.75926 0.89085 0.1882 0.0
C645 C 0.7721 0.89637 0.24624 0.0
C646 C 0.7886 0.90239 0.22608 0.0
C647 C 0.79219 0.90275 0.14996 0.0
H648 H 0.9183 0.05349 0.27683 0.0
H649 H 0.89872 1.00078 0.20955 0.0
H650 H 0.91905 0.05971 0.14454 0.0
H651 H 0.89921 1.00703 0.07676 0.0
H652 H 0.92043 0.0184 0.84914 0.0
H653 H 0.91918 0.01193 0.98122 0.0
H654 H 0.90042 0.06454 0.03426 0.0
H655 H 0.90193 0.07102 0.90251 0.0
C656 C 0.91391 0.0433 0.23378 0.0
C657 C 0.90839 0.02665 0.25381 0.0
C658 C 0.91434 0.04686 0.15775 0.0
C659 C 0.90916 0.03389 0.0997 0.0
C660 C 0.90355 0.01725 0.11982 0.0
C661 C 0.90322 0.01366 0.19594 0.0
C662 C 0.91592 0.02853 0.8889 0.0
C663 C 0.91135 0.04525 0.86523 0.0
C664 C 0.91517 0.02482 0.9647 0.0
C665 C 0.90973 0.03772 0.01867 0.0
C666 C 0.90499 0.05438 0.9947 0.0
C667 C 0.90584 0.05811 0.91905 0.0
H668 H 0.77668 0.20707 0.64418 0.0
H669 H 0.73557 0.16884 0.67305 0.0
H670 H 0.78323 0.2102 0.78029 0.0
H671 H 0.74148 0.17274 0.80927 0.0
H672 H 0.7671 0.17067 0.04694 0.0
H673 H 0.7623 0.16658 0.90967 0.0
H674 H 0.77158 0.22237 0.89333 0.0
H675 H 0.77671 0.22631 0.03055 0.0
C676 C 0.76902 0.19929 0.67915 0.0
C677 C 0.75554 0.18768 0.64679 0.0
C678 C 0.77265 0.20127 0.75768 0.0
C679 C 0.76287 0.19178 0.80618 0.0
C680 C 0.74946 0.18012 0.77387 0.0
C681 C 0.74589 0.17806 0.69539 0.0
C682 C 0.76805 0.18206 0.014 0.0
C683 C 0.77223 0.19882 0.04975 0.0
C684 C 0.76526 0.17974 0.9352 0.0
C685 C 0.76645 0.19415 0.89006 0.0
C686 C 0.77081 0.2109 0.92594 0.0
C687 C 0.77373 0.21319 1.00474 0.0
H688 H 0.90881 0.54257 0.2116 0.0
H689 H 0.91809 0.59798 0.18518 0.0
H690 H 0.90726 0.53666 0.07584 0.0
H691 H 0.91765 0.59179 0.04863 0.0
H692 H 0.89789 0.57687 0.80173 0.0
H693 H 0.89878 0.58374 0.93831 0.0
H694 H 0.92547 0.53472 0.97346 0.0
H695 H 0.92412 0.52777 0.83722 0.0
C696 C 0.91047 0.55358 0.17722 0.0
C697 C 0.91348 0.57084 0.21025 0.0
C698 C 0.90986 0.55009 0.09882 0.0
C699 C 0.91246 0.5637 0.05088 0.0
C700 C 0.91542 0.58098 0.08361 0.0
C701 C 0.91589 0.58451 0.16223 0.0
C702 C 0.90404 0.56765 0.83878 0.0
C703 C 0.91087 0.55174 0.80876 0.0
C704 C 0.90459 0.57159 0.91712 0.0
C705 C 0.91213 0.55977 0.96727 0.0
C706 C 0.9192 0.54398 0.93688 0.0
C707 C 0.91848 0.53998 0.85869 0.0
H708 H 0.71404 0.68644 0.458 0.0
H709 H 0.7676 0.70359 0.52389 0.0
H710 H 0.72024 0.68646 0.32502 0.0
H711 H 0.77378 0.7039 0.3913 0.0
H712 H 0.78408 0.68626 0.14863 0.0
H713 H 0.77765 0.68504 0.28059 0.0
H714 H 0.72592 0.70613 0.22954 0.0
H715 H 0.73233 0.70706 0.09721 0.0
C716 C 0.72711 0.69032 0.44403 0.0
C717 C 0.74033 0.69496 0.50154 0.0
C718 C 0.73066 0.69038 0.3678 0.0
C719 C 0.74752 0.6952 0.3472 0.0
C720 C 0.76074 0.69981 0.40489 0.0
C721 C 0.75721 0.69964 0.48107 0.0
C722 C 0.77138 0.69073 0.16566 0.0
C723 C 0.75874 0.69681 0.11236 0.0
C724 C 0.76768 0.69006 0.24143 0.0
C725 C 0.75128 0.69555 0.26602 0.0
C726 C 0.7386 0.70154 0.21253 0.0
C727 C 0.74227 0.70211 0.13659 0.0
H728 H 0.61532 0.52236 0.69536 0.0
H729 H 0.59921 0.57579 0.7493 0.0
H730 H 0.61704 0.52869 0.56346 0.0
H731 H 0.60054 0.5821 0.61712 0.0
H732 H 0.62013 0.59256 0.38762 0.0
H733 H 0.62003 0.58629 0.52044 0.0
H734 H 0.59888 0.53403 0.45348 0.0
H735 H 0.59938 0.54026 0.32101 0.0
C736 C 0.61199 0.53542 0.67886 0.0
C737 C 0.6071 0.54855 0.73283 0.0
C738 C 0.61294 0.53906 0.60313 0.0
C739 C 0.60887 0.5559 0.57923 0.0
C740 C 0.60406 0.56907 0.63346 0.0
C741 C 0.60325 0.56545 0.70935 0.0
C742 C 0.61545 0.57976 0.40144 0.0
C743 C 0.60981 0.56691 0.34377 0.0
C744 C 0.61533 0.57616 0.4776 0.0
C745 C 0.60941 0.55964 0.49803 0.0
C746 C 0.60383 0.54678 0.44011 0.0
C747 C 0.60409 0.55034 0.36399 0.0
H748 H 0.6905 0.37916 0.65815 0.0
H749 H 0.74633 0.38559 0.63203 0.0
H750 H 0.69653 0.37945 0.79473 0.0
H751 H 0.75213 0.38708 0.76765 0.0
H752 H 0.76023 0.37096 0.00661 0.0
H753 H 0.75318 0.36926 0.87046 0.0
H754 H 0.70526 0.39803 0.90487 0.0
H755 H 0.71219 0.39917 0.04154 0.0
C756 C 0.70403 0.3807 0.68114 0.0
C757 C 0.71787 0.38239 0.63319 0.0
C758 C 0.70748 0.38108 0.75978 0.0
C759 C 0.72484 0.38326 0.79259 0.0
C760 C 0.73862 0.38509 0.74468 0.0
C761 C 0.73521 0.38453 0.6663 0.0
C762 C 0.74824 0.37696 0.98496 0.0
C763 C 0.73681 0.38526 0.03465 0.0
C764 C 0.74418 0.37605 0.90683 0.0
C765 C 0.7287 0.38363 0.87623 0.0
C766 C 0.71717 0.39182 0.92621 0.0
C767 C 0.72115 0.39254 1.00455 0.0
H768 H 0.12348 0.54378 0.86825 0.0
H769 H 0.08543 0.50164 0.88338 0.0
H770 H 0.12437 0.5499 1.0045 0.0
H771 H 0.08681 0.50756 0.02063 0.0
H772 H 0.10422 0.56881 0.23388 0.0
H773 H 0.10309 0.56162 0.09821 0.0
H774 H 0.10887 0.50644 0.13576 0.0
H775 H 0.11052 0.51356 0.27208 0.0
C776 C 0.11518 0.53587 0.90016 0.0
C777 C 0.10418 0.52233 0.86392 0.0
C778 C 0.11577 0.53937 0.97858 0.0
C779 C 0.10557 0.5293 0.02319 0.0
C780 C 0.0949 0.51547 0.98767 0.0
C781 C 0.09415 0.51208 0.9089 0.0
C782 C 0.10546 0.55515 0.21387 0.0
C783 C 0.10757 0.54183 0.2649 0.0
C784 C 0.10475 0.55103 0.13576 0.0
C785 C 0.10595 0.53348 0.10634 0.0
C786 C 0.10775 0.52008 0.15683 0.0
C787 C 0.10866 0.52421 0.23516 0.0
H788 H 0.28226 0.41343 0.97798 0.0
H789 H 0.23659 0.38016 0.91194 0.0
H790 H 0.28882 0.41398 0.84543 0.0
H791 H 0.24324 0.38037 0.78001 0.0
H792 H 0.249 0.3979 0.54601 0.0
H793 H 0.24299 0.39916 0.67851 0.0
H794 H 0.29879 0.39606 0.74091 0.0
H795 H 0.30493 0.39583 0.60824 0.0
C796 C 0.27373 0.4061 0.9352 0.0
C797 C 0.25886 0.39683 0.95542 0.0
C798 C 0.27749 0.40638 0.8592 0.0
C799 C 0.26651 0.3973 0.80174 0.0
C800 C 0.25177 0.38786 0.82236 0.0
C801 C 0.24796 0.38769 0.89813 0.0
C802 C 0.26007 0.39778 0.58763 0.0
C803 C 0.27749 0.39673 0.5657 0.0
C804 C 0.25657 0.39825 0.66397 0.0
C805 C 0.27038 0.39755 0.72065 0.0
C806 C 0.28782 0.39676 0.69896 0.0
C807 C 0.29133 0.3964 0.62255 0.0
H808 H 0.39902 0.5018 0.6948 0.0
H809 H 0.41632 0.5553 0.76091 0.0
H810 H 0.39898 0.50802 0.56185 0.0
H811 H 0.4166 0.5615 0.62838 0.0
H812 H 0.39917 0.57197 0.38597 0.0
H813 H 0.39788 0.56552 0.51787 0.0
H814 H 0.4185 0.51361 0.46599 0.0
H815 H 0.41946 0.52004 0.33374 0.0
C816 C 0.40292 0.51486 0.68087 0.0
C817 C 0.40762 0.52806 0.73845 0.0
C818 C 0.40295 0.51843 0.60465 0.0
C819 C 0.4078 0.53528 0.58411 0.0
C820 C 0.41247 0.54848 0.64189 0.0
C821 C 0.41232 0.54493 0.71805 0.0
C822 C 0.40351 0.55923 0.40282 0.0
C823 C 0.40947 0.54655 0.34932 0.0
C824 C 0.4028 0.55551 0.47856 0.0
C825 C 0.40815 0.53905 0.50293 0.0
C826 C 0.41401 0.52633 0.44921 0.0
C827 C 0.4146 0.53002 0.3733 0.0
H828 H 0.25703 0.72691 0.10522 0.0
H829 H 0.30392 0.69685 0.06913 0.0
H830 H 0.26406 0.72814 0.24132 0.0
H831 H 0.31081 0.69756 0.20575 0.0
H832 H 0.32623 0.71607 0.45253 0.0
H833 H 0.3202 0.7159 0.31601 0.0
H834 H 0.26442 0.71007 0.34356 0.0
H835 H 0.27025 0.71143 0.47921 0.0
C836 C 0.26876 0.72041 0.1266 0.0
C837 C 0.27988 0.71173 0.07661 0.0
C838 C 0.27279 0.72105 0.20468 0.0
C839 C 0.28795 0.71283 0.2349 0.0
C840 C 0.29916 0.70425 0.18465 0.0
C841 C 0.29521 0.70379 0.10636 0.0
C842 C 0.31266 0.71495 0.42967 0.0
C843 C 0.29879 0.71375 0.47773 0.0
C844 C 0.30922 0.71463 0.35106 0.0
C845 C 0.29181 0.71301 0.31844 0.0
C846 C 0.27798 0.71163 0.36645 0.0
C847 C 0.28139 0.71211 0.4448 0.0
H848 H 0.37614 0.0794 0.21418 0.0
H849 H 0.39647 0.13211 0.19627 0.0
H850 H 0.34787 0.0914 0.24744 0.0
H851 H 0.36822 0.14414 0.22927 0.0
H852 H 0.32118 0.16293 0.34597 0.0
H853 H 0.34928 0.14836 0.33109 0.0
H854 H 0.32242 0.10617 0.19069 0.0
H855 H 0.29412 0.12073 0.20771 0.0
C856 C 0.37459 0.09355 0.217 0.0
C857 C 0.38855 0.10477 0.2014 0.0
C858 C 0.35833 0.10043 0.23613 0.0
C859 C 0.35568 0.11875 0.24099 0.0
C860 C 0.36981 0.12997 0.22721 0.0
C861 C 0.38604 0.12308 0.20798 0.0
C862 C 0.32129 0.15034 0.31327 0.0
C863 C 0.30555 0.14293 0.27789 0.0
C864 C 0.33739 0.14208 0.30402 0.0
C865 C 0.33821 0.12625 0.25848 0.0
C866 C 0.32229 0.11831 0.22641 0.0
C867 C 0.30608 0.12659 0.23614 0.0
H868 H 0.16244 0.10762 0.59983 0.0
H869 H 0.1312 0.09881 0.38788 0.0
H870 H 0.18074 0.12895 0.54503 0.0
H871 H 0.14937 0.12081 0.33282 0.0
H872 H 0.20666 0.17522 0.44517 0.0
H873 H 0.1847 0.15694 0.49977 0.0
H874 H 0.17752 0.12503 0.28852 0.0
H875 H 0.19883 0.14345 0.23404 0.0
C876 C 0.15926 0.11039 0.54148 0.0
C877 C 0.14525 0.10127 0.49848 0.0
C878 C 0.16979 0.12287 0.50998 0.0
C879 C 0.16678 0.12683 0.43396 0.0
C880 C 0.15241 0.11806 0.39124 0.0
C881 C 0.14181 0.1055 0.423 0.0
C882 C 0.20022 0.16444 0.41015 0.0
C883 C 0.20469 0.16092 0.33502 0.0
C884 C 0.18767 0.15378 0.44166 0.0
C885 C 0.17917 0.13924 0.39908 0.0
C886 C 0.18339 0.13611 0.3234 0.0
C887 C 0.19586 0.14671 0.29211 0.0
H888 H 0.22364 0.92542 0.58575 0.0
H889 H 0.19168 0.9295 0.77805 0.0
H890 H 0.2087 0.95092 0.53534 0.0
H891 H 0.17662 0.95452 0.72698 0.0
H892 H 0.17455 0.01211 0.69519 0.0
H893 H 0.18905 0.98462 0.72295 0.0
H894 H 0.18033 0.96558 0.48817 0.0
H895 H 0.16594 0.9935 0.46044 0.0
C896 C 0.21302 0.93131 0.61595 0.0
C897 C 0.20929 0.92578 0.68741 0.0
C898 C 0.20454 0.94601 0.5872 0.0
C899 C 0.19202 0.95518 0.62886 0.0
C900 C 0.18673 0.94817 0.69506 0.0
C901 C 0.19523 0.93366 0.7239 0.0
C902 C 0.17624 1.00227 0.64917 0.0
C903 C 0.16933 1.00495 0.57569 0.0
C904 C 0.18426 0.9864 0.66513 0.0
C905 C 0.1854 0.97271 0.60811 0.0
C906 C 0.17957 0.97584 0.53332 0.0
C907 C 0.1715 0.99184 0.51728 0.0
H908 H 0.32767 0.06001 0.9337 0.0
H909 H 0.32649 0.02851 0.12644 0.0
H910 H 0.30038 0.04571 0.87911 0.0
H911 H 0.30001 0.01352 0.07055 0.0
H912 H 0.25904 0.98086 0.95838 0.0
H913 H 0.27105 0.00875 0.01911 0.0
H914 H 0.29876 0.01701 0.8192 0.0
H915 H 0.28594 0.98974 0.75834 0.0
C916 C 0.32127 0.05045 0.9656 0.0
C917 C 0.32945 0.04494 0.03314 0.0
C918 C 0.30572 0.04212 0.93396 0.0
C919 C 0.29829 0.02803 0.96898 0.0
C920 C 0.30528 0.02423 0.04142 0.0
C921 C 0.32066 0.03267 0.07328 0.0
C922 C 0.26716 0.98912 0.92693 0.0
C923 C 0.2718 0.98332 0.85446 0.0
C924 C 0.27411 1.00499 0.96157 0.0
C925 C 0.28621 0.01498 0.92489 0.0
C926 C 0.2894 0.00985 0.84927 0.0
C927 C 0.2822 0.99414 0.81432 0.0
H928 H 0.72149 0.9574 0.94866 0.0
H929 H 0.70006 0.9448 0.71991 0.0
H930 H 0.69304 0.96899 0.98269 0.0
H931 H 0.67129 0.95633 0.75385 0.0
H932 H 0.62776 0.99501 0.8584 0.0
H933 H 0.65436 0.98359 0.80318 0.0
H934 H 0.66475 0.95257 0.99533 0.0
H935 H 0.63847 0.96398 0.05069 0.0
C936 C 0.7108 0.9577 0.90509 0.0
C937 C 0.71298 0.95051 0.83154 0.0
C938 C 0.69443 0.96403 0.92471 0.0
C939 C 0.67981 0.96318 0.87134 0.0
C940 C 0.6823 0.95711 0.79619 0.0
C941 C 0.69876 0.9507 0.77656 0.0
C942 C 0.63539 0.98533 0.88774 0.0
C943 C 0.63119 0.98081 0.96016 0.0
C944 C 0.65073 0.97889 0.85626 0.0
C945 C 0.662 0.96773 0.89638 0.0
C946 C 0.65667 0.96168 0.96437 0.0
C947 C 0.64145 0.96807 0.99568 0.0
H948 H 0.81108 0.91882 0.64408 0.0
H949 H 0.81799 0.95104 0.85433 0.0
H950 H 0.8331 0.93718 0.59012 0.0
H951 H 0.83944 0.96946 0.80057 0.0
H952 H 0.85538 0.98677 0.49077 0.0
H953 H 0.83689 0.96543 0.54478 0.0
H954 H 0.86798 0.97328 0.75772 0.0
H955 H 0.8864 0.9952 0.70343 0.0
C956 C 0.81733 0.9297 0.67904 0.0
C957 C 0.81257 0.93335 0.75371 0.0
C958 C 0.82992 0.94039 0.64792 0.0
C959 C 0.83822 0.95504 0.69052 0.0
C960 C 0.83371 0.95829 0.76575 0.0
C961 C 0.82117 0.94769 0.79659 0.0
C962 C 0.85845 0.98394 0.54911 0.0
C963 C 0.87248 0.99293 0.59256 0.0
C964 C 0.84781 0.97146 0.58013 0.0
C965 C 0.8507 0.96743 0.65611 0.0
C966 C 0.86505 0.97609 0.6993 0.0
C967 C 0.87579 0.98862 0.668 0.0
H968 H 0.85402 0.10183 0.63031 0.0
H969 H 0.84816 0.08409 0.39388 0.0
H970 H 0.8401 0.12989 0.60147 0.0
H971 H 0.83404 0.11168 0.3649 0.0
H972 H 0.83058 0.16711 0.31301 0.0
H973 H 0.84537 0.14177 0.36265 0.0
H974 H 0.81279 0.14474 0.55279 0.0
H975 H 0.7982 0.17055 0.50402 0.0
C976 C 0.84919 0.10373 0.57267 0.0
C977 C 0.85196 0.09081 0.51428 0.0
C978 C 0.84138 0.11982 0.556 0.0
C979 C 0.83638 0.12322 0.48061 0.0
C980 C 0.8382 0.10974 0.42328 0.0
C981 C 0.84599 0.0938 0.43987 0.0
C982 C 0.82685 0.16272 0.36652 0.0
C983 C 0.81285 0.17062 0.40329 0.0
C984 C 0.83519 0.14801 0.39451 0.0
C985 C 0.82974 0.14077 0.46002 0.0
C986 C 0.81713 0.14983 0.50159 0.0
C987 C 0.80883 0.16472 0.47375 0.0
H988 H 0.74324 0.1056 0.32922 0.0
H989 H 0.74766 0.12347 0.10586 0.0
H990 H 0.72602 0.07991 0.27458 0.0
H991 H 0.73073 0.09763 0.05085 0.0
H992 H 0.69198 0.0361 0.15218 0.0
H993 H 0.72006 0.05236 0.18352 0.0
H994 H 0.69845 0.09701 0.07268 0.0
H995 H 0.67073 0.08092 0.0426 0.0
C996 C 0.74123 0.10355 0.26821 0.0
C997 C 0.74634 0.11656 0.22155 0.0
C998 C 0.73144 0.08883 0.23687 0.0
C999 C 0.72676 0.08706 0.1587 0.0
C1000 C 0.73395 0.0989 0.11142 0.0
C1001 C 0.74359 0.11364 0.14274 0.0
C1002 C 0.69351 0.04929 0.13378 0.0
C1003 C 0.67933 0.05748 0.09608 0.0
C1004 C 0.70947 0.05852 0.15141 0.0
C1005 C 0.71145 0.07584 0.12989 0.0
C1006 C 0.69745 0.08355 0.08871 0.0
C1007 C 0.68152 0.07449 0.07233 0.0
H1008 H 0.78805 0.62253 0.6614 0.0
H1009 H 0.82202 0.65054 0.83534 0.0
H1010 H 0.81381 0.60825 0.60969 0.0
H1011 H 0.84784 0.63617 0.78425 0.0
H1012 H 0.8877 0.59448 0.67908 0.0
H1013 H 0.86317 0.606 0.74995 0.0
H1014 H 0.83816 0.62397 0.54428 0.0
H1015 H 0.86249 0.61287 0.47402 0.0
C1016 C 0.80096 0.62504 0.69034 0.0
C1017 C 0.80308 0.63744 0.75267 0.0
C1018 C 0.81572 0.61709 0.66029 0.0
C1019 C 0.83285 0.62132 0.69236 0.0
C1020 C 0.83482 0.63263 0.75852 0.0
C1021 C 0.82006 0.64075 0.78797 0.0
C1022 C 0.87717 0.60124 0.64934 0.0
C1023 C 0.87705 0.60259 0.57056 0.0
C1024 C 0.86306 0.6077 0.68986 0.0
C1025 C 0.84852 0.61542 0.65214 0.0
C1026 C 0.84893 0.61763 0.57448 0.0
C1027 C 0.86303 0.61142 0.53439 0.0
H1028 H 0.69856 0.64289 0.73798 0.0
H1029 H 0.70853 0.67347 0.95108 0.0
H1030 H 0.67754 0.62444 0.79392 0.0
H1031 H 0.68686 0.65515 0.00731 0.0
H1032 H 0.66425 0.60579 0.10599 0.0
H1033 H 0.6827 0.6269 0.05047 0.0
H1034 H 0.64979 0.6205 0.84182 0.0
H1035 H 0.63145 0.59877 0.89745 0.0
C1036 C 0.69613 0.64589 0.79685 0.0
C1037 C 0.70548 0.65978 0.83978 0.0
C1038 C 0.68383 0.63527 0.82903 0.0
C1039 C 0.68028 0.63805 0.9057 0.0
C1040 C 0.68929 0.65227 0.94841 0.0
C1041 C 0.70168 0.66296 0.91599 0.0
C1042 C 0.66079 0.60887 0.04825 0.0
C1043 C 0.64625 0.60033 0.00641 0.0
C1044 C 0.67141 0.62123 0.01637 0.0
C1045 C 0.66797 0.62564 0.94112 0.0
C1046 C 0.65317 0.61739 0.89954 0.0
C1047 C 0.64249 0.60495 0.93164 0.0
H1048 H 0.67703 0.5137 0.19059 0.0
H1049 H 0.64692 0.48174 0.01594 0.0
H1050 H 0.68899 0.48694 0.24283 0.0
H1051 H 0.65891 0.45495 0.06759 0.0
H1052 H 0.68112 0.43855 0.37734 0.0
H1053 H 0.67228 0.46392 0.30882 0.0
H1054 H 0.68689 0.43716 0.10045 0.0
H1055 H 0.69606 0.41156 0.16943 0.0
C1056 C 0.67353 0.50097 0.16177 0.0
C1057 C 0.66121 0.49974 0.09904 0.0
C1058 C 0.68015 0.48565 0.19213 0.0
C1059 C 0.67466 0.46883 0.15993 0.0
C1060 C 0.66341 0.46769 0.09354 0.0
C1061 C 0.65662 0.483 0.06379 0.0
C1062 C 0.68228 0.43787 0.31676 0.0
C1063 C 0.68944 0.42297 0.27919 0.0
C1064 C 0.6774 0.45256 0.27765 0.0
C1065 C 0.67931 0.45272 0.19962 0.0
C1066 C 0.68543 0.43746 0.16078 0.0
C1067 C 0.69054 0.42275 0.20024 0.0
H1068 H 0.79588 0.43634 0.45814 0.0
H1069 H 0.75552 0.4731 0.38996 0.0
H1070 H 0.81688 0.45996 0.47874 0.0
H1071 H 0.77776 0.49652 0.39933 0.0
H1072 H 0.82175 0.53764 0.47335 0.0
H1073 H 0.79767 0.5161 0.47109 0.0
H1074 H 0.83306 0.47485 0.4008 0.0
H1075 H 0.85719 0.49541 0.41349 0.0
C1076 C 0.79123 0.4494 0.44785 0.0
C1077 C 0.7737 0.4525 0.42174 0.0
C1078 C 0.80363 0.46303 0.45767 0.0
C1079 C 0.79927 0.48007 0.43775 0.0
C1080 C 0.78166 0.48352 0.41467 0.0
C1081 C 0.76895 0.46993 0.40785 0.0
C1082 C 0.82445 0.52391 0.4588 0.0
C1083 C 0.8416 0.51844 0.44382 0.0
C1084 C 0.81054 0.51159 0.45639 0.0
C1085 C 0.81345 0.49363 0.43733 0.0
C1086 C 0.83036 0.48842 0.41852 0.0
C1087 C 0.84426 0.50049 0.42355 0.0
H1088 H 0.15742 0.48333 0.60735 0.0
H1089 H 0.1323 0.50045 0.39971 0.0
H1090 H 0.18184 0.47184 0.53859 0.0
H1091 H 0.15692 0.4886 0.33038 0.0
H1092 H 0.1971 0.444 0.24543 0.0
H1093 H 0.17174 0.45898 0.29716 0.0
H1094 H 0.2065 0.48571 0.47247 0.0
H1095 H 0.23184 0.47072 0.42023 0.0
C1096 C 0.15695 0.48444 0.54676 0.0
C1097 C 0.14288 0.49293 0.5093 0.0
C1098 C 0.1711 0.47803 0.5075 0.0
C1099 C 0.17153 0.47972 0.42944 0.0
C1100 C 0.15701 0.48726 0.39073 0.0
C1101 C 0.14285 0.4939 0.43036 0.0
C1102 C 0.19934 0.45359 0.29335 0.0
C1103 C 0.2164 0.45634 0.32868 0.0
C1104 C 0.18483 0.4621 0.32312 0.0
C1105 C 0.18709 0.47329 0.38956 0.0
C1106 C 0.20434 0.47696 0.42175 0.0
C1107 C 0.21887 0.4686 0.3914 0.0
H1108 H 0.33023 0.43601 0.33398 0.0
H1109 H 0.30042 0.42948 0.11824 0.0
H1110 H 0.35135 0.45509 0.28122 0.0
H1111 H 0.32091 0.4495 0.06559 0.0
H1112 H 0.36505 0.47881 0.96874 0.0
H1113 H 0.34693 0.45671 0.02034 0.0
H1114 H 0.35813 0.48214 0.24449 0.0
H1115 H 0.3772 0.50362 0.19223 0.0
C1116 C 0.3282 0.43864 0.27486 0.0
C1117 C 0.3136 0.43103 0.23045 0.0
C1118 C 0.34028 0.44988 0.24447 0.0
C1119 C 0.33808 0.45435 0.1686 0.0
C1120 C 0.32355 0.4464 0.12376 0.0
C1121 C 0.31163 0.43482 0.15397 0.0
C1122 C 0.36384 0.47954 0.02932 0.0
C1123 C 0.37273 0.49303 0.07617 0.0
C1124 C 0.35316 0.46689 0.05919 0.0
C1125 C 0.35055 0.46741 0.13724 0.0
C1126 C 0.35978 0.48082 0.18437 0.0
C1127 C 0.37081 0.4933 0.15443 0.0
H1128 H 0.31798 0.68237 0.93886 0.0
H1129 H 0.33616 0.65851 0.73067 0.0
H1130 H 0.32638 0.65583 1.00296 0.0
H1131 H 0.3443 0.63224 0.79424 0.0
H1132 H 0.3386 0.58057 0.893 0.0
H1133 H 0.32695 0.60806 0.84688 0.0
H1134 H 0.35344 0.63747 0.03979 0.0
H1135 H 0.36503 0.60989 0.08555 0.0
C1136 C 0.32409 0.67169 0.90713 0.0
C1137 C 0.32626 0.67258 0.8293 0.0
C1138 C 0.32875 0.65642 0.94373 0.0
C1139 C 0.33552 0.64174 0.90306 0.0
C1140 C 0.33861 0.64309 0.82661 0.0
C1141 C 0.33414 0.6583 0.79039 0.0
C1142 C 0.34126 0.59283 0.92706 0.0
C1143 C 0.35246 0.59313 0.99327 0.0
C1144 C 0.33486 0.6086 0.90018 0.0
C1145 C 0.33956 0.62497 0.93905 0.0
C1146 C 0.34956 0.6251 0.00867 0.0
C1147 C 0.35608 0.60932 0.03518 0.0
H1148 H 0.19512 0.55978 0.61927 0.0
H1149 H 0.15804 0.60053 0.67884 0.0
H1150 H 0.21869 0.58192 0.62967 0.0
H1151 H 0.18163 0.62158 0.7003 0.0
H1152 H 0.2193 0.66174 0.65699 0.0
H1153 H 0.19837 0.63809 0.63197 0.0
H1154 H 0.23767 0.60101 0.70539 0.0
H1155 H 0.25974 0.62457 0.7191 0.0
C1156 C 0.19194 0.57331 0.63547 0.0
C1157 C 0.17447 0.57816 0.64782 0.0
C1158 C 0.20556 0.58598 0.64273 0.0
C1159 C 0.20209 0.60369 0.66445 0.0
C1160 C 0.18483 0.60827 0.68066 0.0
C1161 C 0.1712 0.59587 0.67057 0.0
C1162 C 0.22393 0.64857 0.66519 0.0
C1163 C 0.24148 0.64533 0.69032 0.0
C1164 C 0.2116 0.6349 0.65288 0.0
C1165 C 0.21607 0.61763 0.66916 0.0
C1166 C 0.23367 0.61414 0.69238 0.0
C1167 C 0.2463 0.6278 0.70173 0.0
H1168 H 0.4595 0.01837 0.03692 0.0
H1169 H 0.4658 0.07459 0.08744 0.0
H1170 H 0.49104 0.01581 0.0246 0.0
H1171 H 0.49736 0.07226 0.07149 0.0
H1172 H 0.55499 0.06018 0.11804 0.0
H1173 H 0.52355 0.06245 0.12877 0.0
H1174 H 0.51437 0.0213 0.94881 0.0
H1175 H 0.54628 0.01846 0.94079 0.0
C1176 C 0.46766 0.03023 0.04495 0.0
C1177 C 0.4602 0.04669 0.06355 0.0
C1178 C 0.48576 0.02879 0.03712 0.0
C1179 C 0.49687 0.04381 0.04664 0.0
C1180 C 0.48933 0.06031 0.06501 0.0
C1181 C 0.47122 0.06171 0.07402 0.0
C1182 C 0.5463 0.05161 0.08043 0.0
C1183 C 0.55315 0.03916 0.02827 0.0
C1184 C 0.52817 0.05302 0.08628 0.0
C1185 C 0.51627 0.0422 0.03932 0.0
C1186 C 0.52311 0.02973 0.98671 0.0
C1187 C 0.54139 0.02813 0.98164 0.0
H1188 H 0.23337 0.34259 0.22779 0.0
H1189 H 0.2898 0.33901 0.26905 0.0
H1190 H 0.22978 0.31171 0.24697 0.0
H1191 H 0.28633 0.30727 0.28461 0.0
H1192 H 0.27398 0.25609 0.39044 0.0
H1193 H 0.27722 0.28719 0.36837 0.0
H1194 H 0.23174 0.28247 0.20739 0.0
H1195 H 0.22819 0.25144 0.23287 0.0
C1196 C 0.24517 0.33508 0.23948 0.0
C1197 C 0.26192 0.34347 0.24725 0.0
C1198 C 0.24306 0.31713 0.25006 0.0
C1199 C 0.25766 0.30667 0.26822 0.0
C1200 C 0.27463 0.31484 0.27239 0.0
C1201 C 0.27673 0.33303 0.26214 0.0
C1202 C 0.26434 0.26189 0.35205 0.0
C1203 C 0.25055 0.25138 0.31489 0.0
C1204 C 0.26644 0.2797 0.338 0.0
C1205 C 0.25498 0.28761 0.285 0.0
C1206 C 0.2408 0.27714 0.24938 0.0
C1207 C 0.23857 0.2593 0.26439 0.0
H1208 H 0.05811 0.02933 0.61259 0.0
H1209 H 0.04982 0.07391 0.47708 0.0
H1210 H 0.02675 0.02471 0.61417 0.0
H1211 H 0.01773 0.06963 0.48113 0.0
H1212 H 0.96221 0.04607 0.43258 0.0
H1213 H 0.99393 0.05076 0.43289 0.0
H1214 H 1.0001 0.03378 0.66033 0.0
H1215 H 0.96813 0.02859 0.65846 0.0
C1216 C 0.04957 0.03837 0.58345 0.0
C1217 C 0.05671 0.05196 0.54394 0.0
C1218 C 0.03138 0.03575 0.58515 0.0
C1219 C 0.01941 0.04667 0.54775 0.0
C1220 C 0.02645 0.06068 0.50974 0.0
C1221 C 0.04488 0.06331 0.50792 0.0
C1222 C 0.9704 0.04296 0.48217 0.0
C1223 C 0.96263 0.03669 0.54514 0.0
C1224 C 0.98864 0.04597 0.48284 0.0
C1225 C 0.99982 0.043 0.54696 0.0
C1226 C 0.99208 0.03613 0.60936 0.0
C1227 C 0.97372 0.03297 0.60836 0.0
H1228 H 0.25858 0.76628 0.83219 0.0
H1229 H 0.31166 0.7655 0.76016 0.0
H1230 H 0.25709 0.79775 0.81681 0.0
H1231 H 0.31008 0.79722 0.74233 0.0
H1232 H 0.30441 0.85774 0.78377 0.0
H1233 H 0.30807 0.82657 0.80223 0.0
H1234 H 0.25429 0.81622 0.71318 0.0
H1235 H 0.25043 0.84762 0.69699 0.0
C1236 C 0.27005 0.77297 0.81396 0.0
C1237 C 0.28525 0.76351 0.79744 0.0
C1238 C 0.26911 0.79096 0.80406 0.0
C1239 C 0.28327 0.79997 0.77641 0.0
C1240 C 0.29891 0.79069 0.7637 0.0
C1241 C 0.2999 0.77258 0.77437 0.0
C1242 C 0.29337 0.84882 0.76753 0.0
C1243 C 0.27705 0.85521 0.73941 0.0
C1244 C 0.29553 0.83089 0.77786 0.0
C1245 C 0.28144 0.81887 0.76019 0.0
C1246 C 0.26532 0.82517 0.72909 0.0
C1247 C 0.26313 0.84314 0.719 0.0
H1248 H 0.76946 0.74714 0.69983 0.0
H1249 H 0.7364 0.75569 0.88652 0.0
H1250 H 0.77502 0.77843 0.69933 0.0
H1251 H 0.7413 0.78772 0.88393 0.0
H1252 H 0.76845 0.84176 0.91772 0.0
H1253 H 0.76277 0.81009 0.91539 0.0
H1254 H 0.76575 0.80622 0.67253 0.0
H1255 H 0.77216 0.83793 0.67629 0.0
C1256 C 0.76303 0.75579 0.7402 0.0
C1257 C 0.75254 0.74876 0.79368 0.0
C1258 C 0.76617 0.77393 0.73946 0.0
C1259 C 0.75882 0.78592 0.7919 0.0
C1260 C 0.74756 0.77898 0.84344 0.0
C1261 C 0.74445 0.76061 0.84433 0.0
C1262 C 0.76849 0.83398 0.86415 0.0
C1263 C 0.77127 0.84228 0.79745 0.0
C1264 C 0.7648 0.81583 0.86251 0.0
C1265 C 0.76345 0.80535 0.79372 0.0
C1266 C 0.76684 0.81362 0.72703 0.0
C1267 C 0.77075 0.83184 0.72895 0.0
H1268 H 0.71783 0.23887 0.32039 0.0
H1269 H 0.7719 0.25031 0.40268 0.0
H1270 H 0.71307 0.26997 0.30467 0.0
H1271 H 0.76693 0.28169 0.38953 0.0
H1272 H 0.7601 0.3322 0.27574 0.0
H1273 H 0.76293 0.30073 0.28873 0.0
H1274 H 0.71029 0.29878 0.36639 0.0
H1275 H 0.70734 0.33047 0.35071 0.0
C1276 C 0.72867 0.24807 0.33628 0.0
C1277 C 0.74532 0.24208 0.36228 0.0
C1278 C 0.72587 0.26596 0.32755 0.0
C1279 C 0.73963 0.27836 0.3449 0.0
C1280 C 0.75612 0.27245 0.37392 0.0
C1281 C 0.75895 0.25449 0.38231 0.0
C1282 C 0.749 0.32495 0.29413 0.0
C1283 C 0.73349 0.33369 0.31208 0.0
C1284 C 0.75071 0.30696 0.30269 0.0
C1285 C 0.73704 0.29726 0.33049 0.0
C1286 C 0.7211 0.30585 0.3448 0.0
C1287 C 0.71932 0.32394 0.33538 0.0
H1288 H 0.9674 0.57432 0.59684 0.0
H1289 H 0.96215 0.52907 0.43485 0.0
H1290 H 0.99942 0.57042 0.60747 0.0
H1291 H 0.99383 0.5255 0.44371 0.0
H1292 H 0.05012 0.51341 0.53322 0.0
H1293 H 0.01797 0.51665 0.52546 0.0
H1294 H 0.02463 0.57337 0.5357 0.0
H1295 H 0.05637 0.57013 0.54548 0.0
C1296 C 0.97307 0.56367 0.56319 0.0
C1297 C 0.96224 0.55203 0.51523 0.0
C1298 C 0.9914 0.56143 0.56901 0.0
C1299 C 0.99922 0.54757 0.52657 0.0
C1300 C 0.9883 0.53607 0.47833 0.0
C1301 C 0.97009 0.53825 0.47288 0.0
C1302 C 0.04463 0.5265 0.53316 0.0
C1303 C 0.05573 0.54148 0.54037 0.0
C1304 C 0.02625 0.52841 0.52881 0.0
C1305 C 0.01869 0.54532 0.53091 0.0
C1306 C 0.02992 0.56019 0.53596 0.0
C1307 C 0.04816 0.55829 0.54087 0.0
H1308 H 0.46037 0.55155 0.92636 0.0
H1309 H 0.46808 0.52709 0.13772 0.0
H1310 H 0.49164 0.55783 0.92737 0.0
H1311 H 0.50004 0.53266 0.13748 0.0
H1312 H 0.55281 0.56209 0.16301 0.0
H1313 H 0.52121 0.55564 0.15794 0.0
H1314 H 0.52023 0.5489 0.91387 0.0
H1315 H 0.55177 0.55612 0.91989 0.0
C1316 C 0.4689 0.54704 0.97236 0.0
C1317 C 0.46164 0.53878 0.032 0.0
C1318 C 0.48699 0.55063 0.97279 0.0
C1319 C 0.49866 0.54603 0.03287 0.0
C1320 C 0.49153 0.53682 0.09084 0.0
C1321 C 0.47322 0.53326 0.09047 0.0
C1322 C 0.54563 0.55994 0.10815 0.0
C1323 C 0.55468 0.56023 0.04173 0.0
C1324 C 0.52754 0.55576 0.10522 0.0
C1325 C 0.51793 0.55138 0.03562 0.0
C1326 C 0.52693 0.55236 0.96878 0.0
C1327 C 0.54504 0.55675 0.97185 0.0
loop_
_geom_bond_atom_site_label_1
_geom_bond_atom_site_label_2
_geom_bond_distance
_geom_bond_site_symmetry_2
_ccdc_geom_bond_type
C0 C1 1.351 . S
C0 N3 1.368 . S
C0 H5 0.931 . S
C1 C0 1.351 . S
C1 N2 1.373 . S
C1 H29 0.930 . S
N2 C1 1.373 . S
N2 C4 1.340 . S
N3 C0 1.368 . S
N3 C4 1.321 . S
N3 Co6 2.135 . S
C4 N2 1.340 . S
C4 N3 1.321 . S
C4 H28 0.930 . S
H5 C0 0.931 . S
Co6 N3 2.135 . S
Co6 N9 2.121 1_554 S
Co6 O14 2.055 . S
Co6 O17 2.039 . S
Co6 N20 2.140 . S
C7 O8 1.227 . S
C7 O17 1.265 . S
O8 C7 1.227 . S
N9 Co6 2.121 1_556 S
N9 C11 1.375 . S
N9 C12 1.313 . S
C10 C11 1.338 . S
C10 N13 1.377 . S
C10 H30 0.930 . S
C11 N9 1.375 . S
C11 C10 1.338 . S
C11 H15 0.931 . S
C12 N9 1.313 . S
C12 N13 1.344 . S
C12 H16 0.930 . S
N13 C10 1.377 . S
N13 C12 1.344 . S
O14 Co6 2.055 . S
O14 C18 1.253 . S
H15 C11 0.931 . S
H16 C12 0.930 . S
O17 Co6 2.039 . S
O17 C7 1.265 . S
C18 O14 1.253 . S
C18 O19 1.227 . S
O19 C18 1.227 . S
N20 Co6 2.140 . S
N20 C23 1.346 . S
N20 C24 1.345 . S
C21 C22 1.387 1_565 S
C21 C25 1.391 1_564 S
C22 C21 1.387 1_545 S
C22 C23 1.369 . S
C22 H31 0.929 . S
C23 N20 1.346 . S
C23 C22 1.369 . S
C23 H26 0.928 . S
C24 N20 1.345 . S
C24 C25 1.371 1_554 S
C24 H27 0.931 1_554 S
C25 C21 1.391 1_546 S
C25 C24 1.371 1_556 S
C25 H32 0.930 1_545 S
H26 C23 0.928 . S
H27 C24 0.931 1_556 S
H28 C4 0.930 . S
H29 C1 0.930 . S
H30 C10 0.930 . S
H31 C22 0.929 . S
H32 C25 0.930 1_565 S
C33 C34 1.351 . S
C33 N36 1.368 . S
C33 H38 0.931 . S
C34 C33 1.351 . S
C34 N35 1.373 . S
C34 H62 0.930 . S
N35 C34 1.373 . S
N35 C37 1.340 . S
N36 C33 1.368 . S
N36 C37 1.321 . S
N36 Co39 2.135 . S
C37 N35 1.340 . S
C37 N36 1.321 . S
C37 H61 0.930 . S
H38 C33 0.931 . S
Co39 N36 2.135 . S
Co39 N42 2.121 . S
Co39 O47 2.055 . S
Co39 O50 2.039 . S
Co39 N53 2.140 . S
C40 O41 1.227 . S
C40 O50 1.265 . S
O41 C40 1.227 . S
N42 Co39 2.121 . S
N42 C44 1.375 . S
N42 C45 1.313 . S
C43 C44 1.338 . S
C43 N46 1.377 . S
C43 H63 0.930 . S
C44 N42 1.375 . S
C44 C43 1.338 . S
C44 H48 0.931 . S
C45 N42 1.313 . S
C45 N46 1.344 . S
C45 H49 0.930 . S
N46 C43 1.377 . S
N46 C45 1.344 . S
O47 Co39 2.055 . S
O47 C51 1.253 . S
H48 C44 0.931 . S
H49 C45 0.930 . S
O50 Co39 2.039 . S
O50 C40 1.265 . S
C51 O47 1.253 . S
C51 O52 1.227 . S
O52 C51 1.227 . S
N53 Co39 2.140 . S
N53 C56 1.346 . S
N53 C57 1.345 . S
C54 C55 1.387 . S
C54 C58 1.391 . S
C55 C54 1.387 . S
C55 C56 1.369 . S
C55 H64 0.929 . S
C56 N53 1.346 . S
C56 C55 1.369 . S
C56 H59 0.928 . S
C57 N53 1.345 . S
C57 C58 1.371 . S
C57 H60 0.931 . S
C58 C54 1.391 . S
C58 C57 1.371 . S
C58 H65 0.930 . S
H59 C56 0.928 . S
H60 C57 0.931 . S
H61 C37 0.930 . S
H62 C34 0.930 . S
H63 C43 0.930 . S
H64 C55 0.929 . S
H65 C58 0.930 . S
C66 C67 1.351 . S
C66 N69 1.368 . S
C66 H71 0.931 . S
C67 C66 1.351 . S
C67 N68 1.373 . S
C67 H95 0.930 . S
N68 C67 1.373 . S
N68 C70 1.340 . S
N69 C66 1.368 . S
N69 C70 1.321 . S
N69 Co72 2.135 . S
C70 N68 1.340 . S
C70 N69 1.321 . S
C70 H94 0.930 . S
H71 C66 0.931 . S
Co72 N69 2.135 . S
Co72 N75 2.121 . S
Co72 O80 2.055 . S
Co72 O83 2.039 . S
Co72 N86 2.140 . S
C73 O74 1.227 . S
C73 O83 1.265 . S
O74 C73 1.227 . S
N75 Co72 2.121 . S
N75 C77 1.375 . S
N75 C78 1.313 . S
C76 C77 1.338 . S
C76 N79 1.377 . S
C76 H96 0.930 . S
C77 N75 1.375 . S
C77 C76 1.338 . S
C77 H81 0.931 . S
C78 N75 1.313 . S
C78 N79 1.344 . S
C78 H82 0.930 . S
N79 C76 1.377 . S
N79 C78 1.344 . S
O80 Co72 2.055 . S
O80 C84 1.253 . S
H81 C77 0.931 . S
H82 C78 0.930 . S
O83 Co72 2.039 . S
O83 C73 1.265 . S
C84 O80 1.253 . S
C84 O85 1.227 . S
O85 C84 1.227 . S
N86 Co72 2.140 . S
N86 C89 1.346 . S
N86 C90 1.345 . S
C87 C88 1.387 1_565 S
C87 C91 1.396 . S
C88 C87 1.387 1_545 S
C88 C89 1.369 . S
C88 H97 0.929 . S
C89 N86 1.346 . S
C89 C88 1.369 . S
C89 H92 0.928 . S
C90 N86 1.345 . S
C90 C91 1.351 1_545 S
C90 H93 0.931 . S
C91 C87 1.396 . S
C91 C90 1.351 1_565 S
C91 H98 0.946 . S
H92 C89 0.928 . S
H93 C90 0.931 . S
H94 C70 0.930 . S
H95 C67 0.930 . S
H96 C76 0.930 . S
H97 C88 0.929 . S
H98 C91 0.946 . S
C99 C100 1.351 . S
C99 N102 1.368 . S
C99 H104 0.931 . S
C100 C99 1.351 . S
C100 N101 1.373 . S
C100 H128 0.930 . S
N101 C100 1.373 . S
N101 C103 1.340 . S
N102 C99 1.368 . S
N102 C103 1.321 . S
N102 Co105 2.135 . S
C103 N101 1.340 . S
C103 N102 1.321 . S
C103 H127 0.930 . S
H104 C99 0.931 . S
Co105 N102 2.135 . S
Co105 N108 2.121 . S
Co105 O113 2.055 . S
Co105 O116 2.039 . S
Co105 N119 2.140 . S
C106 O107 1.227 . S
C106 O116 1.265 . S
O107 C106 1.227 . S
N108 Co105 2.121 . S
N108 C110 1.375 . S
N108 C111 1.313 . S
C109 C110 1.338 . S
C109 N112 1.377 . S
C109 H129 0.934 . S
C110 N108 1.375 . S
C110 C109 1.338 . S
C110 H114 0.931 . S
C111 N108 1.313 . S
C111 N112 1.344 . S
C111 H115 0.930 . S
N112 C109 1.377 . S
N112 C111 1.344 . S
O113 Co105 2.055 . S
O113 C117 1.253 . S
H114 C110 0.931 . S
H115 C111 0.930 . S
O116 Co105 2.039 . S
O116 C106 1.265 . S
C117 O113 1.253 . S
C117 O118 1.227 . S
O118 C117 1.227 . S
N119 Co105 2.140 . S
N119 C122 1.346 . S
N119 C123 1.345 . S
C120 C121 1.387 . S
C120 C124 1.391 . S
C121 C120 1.387 . S
C121 C122 1.369 . S
C121 H130 0.929 . S
C122 N119 1.346 . S
C122 C121 1.369 . S
C122 H125 0.928 . S
C123 N119 1.345 . S
C123 C124 1.371 . S
C123 H126 0.931 . S
C124 C120 1.391 . S
C124 C123 1.371 . S
C124 H131 0.930 . S
H125 C122 0.928 . S
H126 C123 0.931 . S
H127 C103 0.930 . S
H128 C100 0.930 . S
H129 C109 0.934 . S
H130 C121 0.929 . S
H131 C124 0.930 . S
C132 C133 1.351 . S
C132 N135 1.368 . S
C132 H137 0.931 . S
C133 C132 1.351 . S
C133 N134 1.373 . S
C133 H161 0.930 . S
N134 C133 1.373 . S
N134 C136 1.340 . S
N135 C132 1.368 . S
N135 C136 1.321 . S
N135 Co138 2.135 . S
C136 N134 1.340 . S
C136 N135 1.321 . S
C136 H160 0.930 . S
H137 C132 0.931 . S
Co138 N135 2.135 . S
Co138 N141 2.121 1_556 S
Co138 O146 2.055 . S
Co138 O149 2.039 . S
Co138 N152 2.140 1_556 S
C139 O140 1.227 . S
C139 O149 1.265 . S
O140 C139 1.227 . S
N141 Co138 2.121 1_554 S
N141 C143 1.375 . S
N141 C144 1.313 . S
C142 C143 1.338 . S
C142 N145 1.377 . S
C142 H162 0.930 . S
C143 N141 1.375 . S
C143 C142 1.338 . S
C143 H147 0.931 . S
C144 N141 1.313 . S
C144 N145 1.344 . S
C144 H148 0.930 . S
N145 C142 1.377 . S
N145 C144 1.344 . S
O146 Co138 2.055 . S
O146 C150 1.253 1_556 S
H147 C143 0.931 . S
H148 C144 0.930 . S
O149 Co138 2.039 . S
O149 C139 1.265 . S
C150 O146 1.253 1_554 S
C150 O151 1.227 . S
O151 C150 1.227 . S
N152 Co138 2.140 1_554 S
N152 C155 1.346 1_554 S
N152 C156 1.345 . S
C153 C154 1.387 1_554 S
C153 C157 1.391 . S
C154 C153 1.387 1_556 S
C154 C155 1.369 . S
C154 H163 0.929 . S
C155 N152 1.346 1_556 S
C155 C154 1.369 . S
C155 H158 0.928 . S
C156 N152 1.345 . S
C156 C157 1.371 . S
C156 H159 0.931 . S
C157 C153 1.391 . S
C157 C156 1.371 . S
C157 H164 0.930 . S
H158 C155 0.928 . S
H159 C156 0.931 . S
H160 C136 0.930 . S
H161 C133 0.930 . S
H162 C142 0.930 . S
H163 C154 0.929 . S
H164 C157 0.930 . S
C165 C166 1.351 . S
C165 N168 1.368 . S
C165 H170 0.931 . S
C166 C165 1.351 . S
C166 N167 1.373 . S
C166 H194 0.930 . S
N167 C166 1.373 . S
N167 C169 1.340 . S
N168 C165 1.368 . S
N168 C169 1.321 . S
N168 Co171 2.135 . S
C169 N167 1.340 . S
C169 N168 1.321 . S
C169 H193 0.930 . S
H170 C165 0.931 . S
Co171 N168 2.135 . S
Co171 N174 2.121 . S
Co171 O179 2.055 . S
Co171 O182 2.039 . S
Co171 N185 2.140 . S
C172 O173 1.227 . S
C172 O182 1.265 . S
O173 C172 1.227 . S
N174 Co171 2.121 . S
N174 C176 1.375 . S
N174 C177 1.313 . S
C175 C176 1.338 . S
C175 N178 1.377 . S
C175 H195 0.930 1_556 S
C176 N174 1.375 . S
C176 C175 1.338 . S
C176 H180 0.931 . S
C177 N174 1.313 . S
C177 N178 1.344 . S
C177 H181 0.930 . S
N178 C175 1.377 . S
N178 C177 1.344 . S
O179 Co171 2.055 . S
O179 C183 1.253 . S
H180 C176 0.931 . S
H181 C177 0.930 . S
O182 Co171 2.039 . S
O182 C172 1.265 . S
C183 O179 1.253 . S
C183 O184 1.227 . S
O184 C183 1.227 . S
N185 Co171 2.140 . S
N185 C188 1.346 . S
N185 C189 1.345 . S
C186 C187 1.387 . S
C186 C190 1.391 . S
C187 C186 1.387 . S
C187 C188 1.369 . S
C187 H196 0.929 . S
C188 N185 1.346 . S
C188 C187 1.369 . S
C188 H191 0.928 . S
C189 N185 1.345 . S
C189 C190 1.371 . S
C189 H192 0.931 . S
C190 C186 1.391 . S
C190 C189 1.371 . S
C190 H197 0.930 . S
H191 C188 0.928 . S
H192 C189 0.931 . S
H193 C169 0.930 . S
H194 C166 0.930 . S
H195 C175 0.930 1_554 S
H196 C187 0.929 . S
H197 C190 0.930 . S
C198 C199 1.351 . S
C198 N201 1.368 . S
C198 H203 0.931 . S
C199 C198 1.351 . S
C199 N200 1.373 . S
C199 H227 0.930 . S
N200 C199 1.373 . S
N200 C202 1.340 . S
N201 C198 1.368 . S
N201 C202 1.321 . S
N201 Co204 2.135 . S
C202 N200 1.340 . S
C202 N201 1.321 . S
C202 H226 0.930 . S
H203 C198 0.931 . S
Co204 N201 2.135 . S
Co204 N207 2.121 . S
Co204 O212 2.055 . S
Co204 O215 2.039 . S
Co204 N218 2.140 . S
C205 O206 1.227 . S
C205 O215 1.265 . S
O206 C205 1.227 . S
N207 Co204 2.121 . S
N207 C209 1.375 . S
N207 C210 1.313 . S
C208 C209 1.338 . S
C208 N211 1.377 . S
C208 H228 0.930 . S
C209 N207 1.375 . S
C209 C208 1.338 . S
C209 H213 0.931 . S
C210 N207 1.313 . S
C210 N211 1.344 . S
C210 H214 0.930 . S
N211 C208 1.377 . S
N211 C210 1.344 . S
O212 Co204 2.055 . S
O212 C216 1.253 . S
H213 C209 0.931 . S
H214 C210 0.930 . S
O215 Co204 2.039 . S
O215 C205 1.265 . S
C216 O212 1.253 . S
C216 O217 1.227 . S
O217 C216 1.227 . S
N218 Co204 2.140 . S
N218 C221 1.346 . S
N218 C222 1.345 . S
C219 C220 1.387 . S
C219 C223 1.391 . S
C220 C219 1.387 . S
C220 C221 1.369 . S
C220 H229 0.929 . S
C221 N218 1.346 . S
C221 C220 1.369 . S
C221 H224 0.928 . S
C222 N218 1.345 . S
C222 C223 1.371 . S
C222 H225 0.931 . S
C223 C219 1.391 . S
C223 C222 1.371 . S
C223 H230 0.930 . S
H224 C221 0.928 . S
H225 C222 0.931 . S
H226 C202 0.930 . S
H227 C199 0.930 . S
H228 C208 0.930 . S
H229 C220 0.929 . S
H230 C223 0.930 . S
C231 C232 1.351 . S
C231 N234 1.368 . S
C231 H236 0.931 . S
C232 C231 1.351 . S
C232 N233 1.373 . S
C232 H260 0.930 . S
N233 C232 1.373 . S
N233 C235 1.340 . S
N234 C231 1.368 . S
N234 C235 1.321 . S
N234 Co237 2.135 . S
C235 N233 1.340 . S
C235 N234 1.321 . S
C235 H259 0.930 . S
H236 C231 0.931 . S
Co237 N234 2.135 . S
Co237 N240 2.121 . S
Co237 O245 2.055 . S
Co237 O248 2.039 . S
Co237 N251 2.140 . S
C238 O239 1.227 . S
C238 O248 1.265 . S
O239 C238 1.227 . S
N240 Co237 2.121 . S
N240 C242 1.375 . S
N240 C243 1.313 . S
C241 C242 1.338 . S
C241 N244 1.377 . S
C241 H261 0.930 . S
C242 N240 1.375 . S
C242 C241 1.338 . S
C242 H246 0.931 . S
C243 N240 1.313 . S
C243 N244 1.344 . S
C243 H247 0.930 . S
N244 C241 1.377 . S
N244 C243 1.344 . S
O245 Co237 2.055 . S
O245 C249 1.253 . S
H246 C242 0.931 . S
H247 C243 0.930 . S
O248 Co237 2.039 . S
O248 C238 1.265 . S
C249 O245 1.253 . S
C249 O250 1.227 . S
O250 C249 1.227 . S
N251 Co237 2.140 . S
N251 C254 1.346 . S
N251 C255 1.345 . S
C252 C253 1.387 . S
C252 C256 1.391 . S
C253 C252 1.387 . S
C253 C254 1.369 . S
C253 H262 0.929 . S
C254 N251 1.346 . S
C254 C253 1.369 . S
C254 H257 0.928 . S
C255 N251 1.345 . S
C255 C256 1.371 . S
C255 H258 0.931 . S
C256 C252 1.391 . S
C256 C255 1.371 . S
C256 H263 0.930 . S
H257 C254 0.928 . S
H258 C255 0.931 . S
H259 C235 0.930 . S
H260 C232 0.930 . S
H261 C241 0.930 . S
H262 C253 0.929 . S
H263 C256 0.930 . S
C264 C265 1.351 . S
C264 N267 1.368 . S
C264 H269 0.931 . S
C265 C264 1.351 . S
C265 N266 1.373 . S
C265 H293 0.930 . S
N266 C265 1.373 . S
N266 C268 1.340 . S
N267 C264 1.368 . S
N267 C268 1.321 . S
N267 Co270 2.135 . S
C268 N266 1.340 . S
C268 N267 1.321 . S
C268 H292 0.930 . S
H269 C264 0.931 . S
Co270 N267 2.135 . S
Co270 N273 2.121 . S
Co270 O278 2.055 . S
Co270 O281 2.039 . S
Co270 N284 2.140 . S
C271 O272 1.227 . S
C271 O281 1.265 . S
O272 C271 1.227 . S
N273 Co270 2.121 . S
N273 C275 1.375 . S
N273 C276 1.313 . S
C274 C275 1.338 . S
C274 N277 1.377 . S
C274 H294 0.930 . S
C275 N273 1.375 . S
C275 C274 1.338 . S
C275 H279 0.931 . S
C276 N273 1.313 . S
C276 N277 1.344 . S
C276 H280 0.930 . S
N277 C274 1.377 . S
N277 C276 1.344 . S
O278 Co270 2.055 . S
O278 C282 1.253 . S
H279 C275 0.931 . S
H280 C276 0.930 . S
O281 Co270 2.039 . S
O281 C271 1.265 . S
C282 O278 1.253 . S
C282 O283 1.227 . S
O283 C282 1.227 . S
N284 Co270 2.140 . S
N284 C287 1.346 . S
N284 C288 1.345 . S
C285 C286 1.387 . S
C285 C289 1.391 . S
C286 C285 1.387 . S
C286 C287 1.369 . S
C286 H295 0.929 . S
C287 N284 1.346 . S
C287 C286 1.369 . S
C287 H290 0.928 . S
C288 N284 1.345 . S
C288 C289 1.371 . S
C288 H291 0.931 . S
C289 C285 1.391 . S
C289 C288 1.371 . S
C289 H296 0.930 . S
H290 C287 0.928 . S
H291 C288 0.931 . S
H292 C268 0.930 . S
H293 C265 0.930 . S
H294 C274 0.930 . S
H295 C286 0.929 . S
H296 C289 0.930 . S
C297 C298 1.351 1_556 S
C297 N300 1.368 . S
C297 H302 0.931 . S
C298 C297 1.351 1_554 S
C298 N299 1.373 . S
C298 H326 0.930 . S
N299 C298 1.373 . S
N299 C301 1.340 . S
N300 C297 1.368 . S
N300 C301 1.321 1_556 S
N300 Co303 2.135 . S
C301 N299 1.340 . S
C301 N300 1.321 1_554 S
C301 H325 0.930 1_554 S
H302 C297 0.931 . S
Co303 N300 2.135 . S
Co303 N306 2.121 . S
Co303 O311 2.055 . S
Co303 O314 2.039 . S
Co303 N317 2.140 . S
C304 O305 1.227 . S
C304 O314 1.265 . S
O305 C304 1.227 . S
N306 Co303 2.121 . S
N306 C308 1.375 . S
N306 C309 1.313 . S
C307 C308 1.338 . S
C307 N310 1.377 . S
C307 H327 0.930 . S
C308 N306 1.375 . S
C308 C307 1.338 . S
C308 H312 0.931 . S
C309 N306 1.313 . S
C309 N310 1.344 . S
C309 H313 0.930 . S
N310 C307 1.377 . S
N310 C309 1.344 . S
O311 Co303 2.055 . S
O311 C315 1.253 . S
H312 C308 0.931 . S
H313 C309 0.930 . S
O314 Co303 2.039 . S
O314 C304 1.265 . S
C315 O311 1.253 . S
C315 O316 1.227 . S
O316 C315 1.227 . S
N317 Co303 2.140 . S
N317 C320 1.346 . S
N317 C321 1.345 . S
C318 C319 1.387 . S
C318 C322 1.391 . S
C319 C318 1.387 . S
C319 C320 1.369 . S
C319 H328 0.929 . S
C320 N317 1.346 . S
C320 C319 1.369 . S
C320 H323 0.928 . S
C321 N317 1.345 . S
C321 C322 1.371 . S
C321 H324 0.931 . S
C322 C318 1.391 . S
C322 C321 1.371 . S
C322 H329 0.930 . S
H323 C320 0.928 . S
H324 C321 0.931 . S
H325 C301 0.930 1_556 S
H326 C298 0.930 . S
H327 C307 0.930 . S
H328 C319 0.929 . S
H329 C322 0.930 . S
C330 C331 1.351 . S
C330 N333 1.368 . S
C330 H335 0.931 . S
C331 C330 1.351 . S
C331 N332 1.373 . S
C331 H359 0.930 . S
N332 C331 1.373 . S
N332 C334 1.340 . S
N333 C330 1.368 . S
N333 C334 1.321 . S
N333 Co336 2.135 1_556 S
C334 N332 1.340 . S
C334 N333 1.321 . S
C334 H358 0.930 . S
H335 C330 0.931 . S
Co336 N333 2.135 1_554 S
Co336 N339 2.121 . S
Co336 O344 2.055 . S
Co336 O347 2.039 1_554 S
Co336 N350 2.140 . S
C337 O338 1.227 . S
C337 O347 1.265 . S
O338 C337 1.227 . S
N339 Co336 2.121 . S
N339 C341 1.375 . S
N339 C342 1.313 . S
C340 C341 1.338 . S
C340 N343 1.377 . S
C340 H360 0.930 . S
C341 N339 1.375 . S
C341 C340 1.338 . S
C341 H345 0.931 . S
C342 N339 1.313 . S
C342 N343 1.344 . S
C342 H346 0.930 . S
N343 C340 1.377 . S
N343 C342 1.344 . S
O344 Co336 2.055 . S
O344 C348 1.253 . S
H345 C341 0.931 . S
H346 C342 0.930 . S
O347 Co336 2.039 1_556 S
O347 C337 1.265 . S
C348 O344 1.253 . S
C348 O349 1.227 . S
O349 C348 1.227 . S
N350 Co336 2.140 . S
N350 C353 1.346 1_554 S
N350 C354 1.345 . S
C351 C352 1.387 1_554 S
C351 C355 1.391 . S
C352 C351 1.387 1_556 S
C352 C353 1.369 . S
C352 H361 0.929 . S
C353 N350 1.346 1_556 S
C353 C352 1.369 . S
C353 H356 0.928 . S
C354 N350 1.345 . S
C354 C355 1.371 . S
C354 H357 0.931 . S
C355 C351 1.391 . S
C355 C354 1.371 . S
C355 H362 0.930 . S
H356 C353 0.928 . S
H357 C354 0.931 . S
H358 C334 0.930 . S
H359 C331 0.930 . S
H360 C340 0.930 . S
H361 C352 0.929 . S
H362 C355 0.930 . S
C363 C364 1.351 . S
C363 N366 1.368 . S
C363 H368 0.931 . S
C364 C363 1.351 . S
C364 N365 1.373 . S
C364 H392 0.930 . S
N365 C364 1.373 . S
N365 C367 1.340 . S
N366 C363 1.368 . S
N366 C367 1.321 . S
N366 Co369 2.135 . S
C367 N365 1.340 . S
C367 N366 1.321 . S
C367 H391 0.930 . S
H368 C363 0.931 . S
Co369 N366 2.135 . S
Co369 N372 2.121 . S
Co369 O377 2.055 . S
Co369 O380 2.039 . S
Co369 N383 2.140 . S
C370 O371 1.227 . S
C370 O380 1.265 . S
O371 C370 1.227 . S
N372 Co369 2.121 . S
N372 C374 1.375 . S
N372 C375 1.313 . S
C373 C374 1.338 . S
C373 N376 1.377 . S
C373 H393 0.930 . S
C374 N372 1.375 . S
C374 C373 1.338 . S
C374 H378 0.931 . S
C375 N372 1.313 . S
C375 N376 1.344 . S
C375 H379 0.930 . S
N376 C373 1.377 . S
N376 C375 1.344 . S
O377 Co369 2.055 . S
O377 C381 1.253 . S
H378 C374 0.931 . S
H379 C375 0.930 . S
O380 Co369 2.039 . S
O380 C370 1.265 . S
C381 O377 1.253 . S
C381 O382 1.227 . S
O382 C381 1.227 . S
N383 Co369 2.140 . S
N383 C386 1.346 . S
N383 C387 1.345 . S
C384 C385 1.387 . S
C384 C388 1.391 . S
C385 C384 1.387 . S
C385 C386 1.369 . S
C385 H394 0.929 . S
C386 N383 1.346 . S
C386 C385 1.369 . S
C386 H389 0.928 . S
C387 N383 1.345 . S
C387 C388 1.371 . S
C387 H390 0.931 . S
C388 C384 1.391 . S
C388 C387 1.371 . S
C388 H395 0.930 . S
H389 C386 0.928 . S
H390 C387 0.931 . S
H391 C367 0.930 . S
H392 C364 0.930 . S
H393 C373 0.930 . S
H394 C385 0.929 . S
H395 C388 0.930 . S
C396 C397 1.351 . S
C396 N399 1.368 . S
C396 H401 0.931 . S
C397 C396 1.351 . S
C397 N398 1.373 . S
C397 H425 0.930 . S
N398 C397 1.373 . S
N398 C400 1.340 . S
N399 C396 1.368 . S
N399 C400 1.321 . S
N399 Co402 2.135 . S
C400 N398 1.340 . S
C400 N399 1.321 . S
C400 H424 0.930 . S
H401 C396 0.931 . S
Co402 N399 2.135 . S
Co402 N405 2.121 . S
Co402 O410 2.055 . S
Co402 O413 2.039 . S
Co402 N416 2.140 . S
C403 O404 1.227 . S
C403 O413 1.265 . S
O404 C403 1.227 . S
N405 Co402 2.121 . S
N405 C407 1.375 . S
N405 C408 1.313 . S
C406 C407 1.338 . S
C406 N409 1.377 . S
C406 H426 0.930 . S
C407 N405 1.375 . S
C407 C406 1.338 . S
C407 H411 0.931 . S
C408 N405 1.313 . S
C408 N409 1.344 . S
C408 H412 0.930 . S
N409 C406 1.377 . S
N409 C408 1.344 . S
O410 Co402 2.055 . S
O410 C414 1.253 . S
H411 C407 0.931 . S
H412 C408 0.930 . S
O413 Co402 2.039 . S
O413 C403 1.265 . S
C414 O410 1.253 . S
C414 O415 1.227 . S
O415 C414 1.227 . S
N416 Co402 2.140 . S
N416 C419 1.346 . S
N416 C420 1.345 . S
C417 C418 1.387 . S
C417 C421 1.391 . S
C418 C417 1.387 . S
C418 C419 1.369 . S
C418 H427 0.929 . S
C419 N416 1.346 . S
C419 C418 1.369 . S
C419 H422 0.928 . S
C420 N416 1.345 . S
C420 C421 1.371 . S
C420 H423 0.931 . S
C421 C417 1.391 . S
C421 C420 1.371 . S
C421 H428 0.930 . S
H422 C419 0.928 . S
H423 C420 0.931 . S
H424 C400 0.930 . S
H425 C397 0.930 . S
H426 C406 0.930 . S
H427 C418 0.929 . S
H428 C421 0.930 . S
C429 C430 1.351 . S
C429 N432 1.368 . S
C429 H434 0.931 . S
C430 C429 1.351 . S
C430 N431 1.373 . S
C430 H458 0.930 1_554 S
N431 C430 1.373 . S
N431 C433 1.340 . S
N432 C429 1.368 . S
N432 C433 1.321 . S
N432 Co435 2.135 . S
C433 N431 1.340 . S
C433 N432 1.321 . S
C433 H457 0.930 . S
H434 C429 0.931 . S
Co435 N432 2.135 . S
Co435 N438 2.121 . S
Co435 O443 2.055 . S
Co435 O446 2.039 . S
Co435 N449 2.140 . S
C436 O437 1.227 . S
C436 O446 1.265 . S
O437 C436 1.227 . S
N438 Co435 2.121 . S
N438 C440 1.375 . S
N438 C441 1.313 . S
C439 C440 1.338 . S
C439 N442 1.377 . S
C439 H459 0.930 . S
C440 N438 1.375 . S
C440 C439 1.338 . S
C440 H444 0.931 . S
C441 N438 1.313 . S
C441 N442 1.344 . S
C441 H445 0.930 . S
N442 C439 1.377 . S
N442 C441 1.344 . S
O443 Co435 2.055 . S
O443 C447 1.253 . S
H444 C440 0.931 . S
H445 C441 0.930 . S
O446 Co435 2.039 . S
O446 C436 1.265 . S
C447 O443 1.253 . S
C447 O448 1.227 . S
O448 C447 1.227 . S
N449 Co435 2.140 . S
N449 C452 1.346 . S
N449 C453 1.345 . S
C450 C451 1.387 . S
C450 C454 1.391 . S
C451 C450 1.387 . S
C451 C452 1.369 . S
C451 H460 0.929 . S
C452 N449 1.346 . S
C452 C451 1.369 . S
C452 H455 0.928 . S
C453 N449 1.345 . S
C453 C454 1.371 . S
C453 H456 0.931 . S
C454 C450 1.391 . S
C454 C453 1.371 . S
C454 H461 0.930 . S
H455 C452 0.928 . S
H456 C453 0.931 . S
H457 C433 0.930 . S
H458 C430 0.930 1_556 S
H459 C439 0.930 . S
H460 C451 0.929 . S
H461 C454 0.930 . S
C462 C463 1.351 . S
C462 N465 1.368 . S
C462 H467 0.931 . S
C463 C462 1.351 . S
C463 N464 1.373 . S
C463 H491 0.930 . S
N464 C463 1.373 . S
N464 C466 1.340 . S
N465 C462 1.368 . S
N465 C466 1.321 . S
N465 Co468 2.135 . S
C466 N464 1.340 . S
C466 N465 1.321 . S
C466 H490 0.930 . S
H467 C462 0.931 . S
Co468 N465 2.135 . S
Co468 N471 2.121 1_554 S
Co468 O476 2.055 . S
Co468 O479 2.039 . S
Co468 N482 2.140 . S
C469 O470 1.227 . S
C469 O479 1.265 . S
O470 C469 1.227 . S
N471 Co468 2.121 1_556 S
N471 C473 1.375 . S
N471 C474 1.313 . S
C472 C473 1.338 . S
C472 N475 1.377 . S
C472 H492 0.930 . S
C473 N471 1.375 . S
C473 C472 1.338 . S
C473 H477 0.931 . S
C474 N471 1.313 . S
C474 N475 1.344 . S
C474 H478 0.930 . S
N475 C472 1.377 . S
N475 C474 1.344 . S
O476 Co468 2.055 . S
O476 C480 1.253 . S
H477 C473 0.931 . S
H478 C474 0.930 . S
O479 Co468 2.039 . S
O479 C469 1.265 . S
C480 O476 1.253 . S
C480 O481 1.227 . S
O481 C480 1.227 . S
N482 Co468 2.140 . S
N482 C485 1.346 . S
N482 C486 1.345 . S
C483 C484 1.387 . S
C483 C487 1.391 . S
C484 C483 1.387 . S
C484 C485 1.369 . S
C484 H493 0.929 . S
C485 N482 1.346 . S
C485 C484 1.369 . S
C485 H488 0.928 . S
C486 N482 1.345 . S
C486 C487 1.371 . S
C486 H489 0.931 1_554 S
C487 C483 1.391 . S
C487 C486 1.371 . S
C487 H494 0.930 1_554 S
H488 C485 0.928 . S
H489 C486 0.931 1_556 S
H490 C466 0.930 . S
H491 C463 0.930 . S
H492 C472 0.930 . S
H493 C484 0.929 . S
H494 C487 0.930 1_556 S
C495 C496 1.351 1_556 S
C495 N498 1.368 . S
C495 H500 0.931 . S
C496 C495 1.351 1_554 S
C496 N497 1.373 . S
C496 H524 0.930 . S
N497 C496 1.373 . S
N497 C499 1.340 . S
N498 C495 1.368 . S
N498 C499 1.321 1_556 S
N498 Co501 2.135 . S
C499 N497 1.340 . S
C499 N498 1.321 1_554 S
C499 H523 0.930 . S
H500 C495 0.931 . S
Co501 N498 2.135 . S
Co501 N504 2.121 . S
Co501 O509 2.055 . S
Co501 O512 2.039 . S
Co501 N515 2.140 . S
C502 O503 1.227 . S
C502 O512 1.265 . S
O503 C502 1.227 . S
N504 Co501 2.121 . S
N504 C506 1.375 . S
N504 C507 1.313 . S
C505 C506 1.338 . S
C505 N508 1.377 . S
C505 H525 0.930 . S
C506 N504 1.375 . S
C506 C505 1.338 . S
C506 H510 0.931 . S
C507 N504 1.313 . S
C507 N508 1.344 . S
C507 H511 0.930 . S
N508 C505 1.377 . S
N508 C507 1.344 . S
O509 Co501 2.055 . S
O509 C513 1.253 . S
H510 C506 0.931 . S
H511 C507 0.930 . S
O512 Co501 2.039 . S
O512 C502 1.265 . S
C513 O509 1.253 . S
C513 O514 1.227 . S
O514 C513 1.227 . S
N515 Co501 2.140 . S
N515 C518 1.346 . S
N515 C519 1.345 . S
C516 C517 1.387 . S
C516 C520 1.391 . S
C517 C516 1.387 . S
C517 C518 1.369 . S
C517 H526 0.929 . S
C518 N515 1.346 . S
C518 C517 1.369 . S
C518 H521 0.928 . S
C519 N515 1.345 . S
C519 C520 1.371 . S
C519 H522 0.931 . S
C520 C516 1.391 . S
C520 C519 1.371 . S
C520 H527 0.930 . S
H521 C518 0.928 . S
H522 C519 0.931 . S
H523 C499 0.930 . S
H524 C496 0.930 . S
H525 C505 0.930 . S
H526 C517 0.929 . S
H527 C520 0.930 . S
H528 C536 0.950 . S
H529 C541 0.950 . S
H530 C538 0.950 . S
H531 C540 0.950 . S
H532 C542 0.950 . S
H533 C544 0.950 . S
H534 C546 0.950 . S
H535 C547 0.950 . S
C536 H528 0.950 . S
C536 C537 1.386 . S
C536 C538 1.391 . S
C537 C536 1.386 . S
C537 C541 1.393 . S
C538 H530 0.950 . S
C538 C536 1.391 . S
C538 C539 1.400 . S
C539 C538 1.400 . S
C539 C540 1.398 . S
C539 C545 1.491 . S
C540 H531 0.950 . S
C540 C539 1.398 . S
C540 C541 1.391 . S
C541 H529 0.950 . S
C541 C537 1.393 . S
C541 C540 1.391 . S
C542 H532 0.950 . S
C542 C543 1.386 . S
C542 C544 1.391 . S
C543 C542 1.386 . S
C543 C547 1.393 . S
C544 H533 0.950 . S
C544 C542 1.391 . S
C544 C545 1.400 . S
C545 C539 1.491 . S
C545 C544 1.400 . S
C545 C546 1.398 . S
C546 H534 0.950 . S
C546 C545 1.398 . S
C546 C547 1.391 . S
C547 H535 0.950 . S
C547 C543 1.393 . S
C547 C546 1.391 . S
H548 C556 0.950 1_554 S
H549 C561 0.950 . S
H550 C558 0.950 . S
H551 C560 0.950 . S
H552 C562 0.950 . S
H553 C564 0.950 . S
H554 C566 0.950 . S
H555 C567 0.950 . S
C556 H548 0.950 1_556 S
C556 C557 1.386 1_556 S
C556 C558 1.391 . S
C557 C556 1.386 1_554 S
C557 C561 1.393 1_554 S
C558 H550 0.950 . S
C558 C556 1.391 . S
C558 C559 1.400 . S
C559 C558 1.400 . S
C559 C560 1.398 . S
C559 C565 1.491 . S
C560 H551 0.950 . S
C560 C559 1.398 . S
C560 C561 1.391 . S
C561 H549 0.950 . S
C561 C557 1.393 1_556 S
C561 C560 1.391 . S
C562 H552 0.950 . S
C562 C563 1.386 . S
C562 C564 1.391 . S
C563 C562 1.386 . S
C563 C567 1.393 . S
C564 H553 0.950 . S
C564 C562 1.391 . S
C564 C565 1.400 . S
C565 C559 1.491 . S
C565 C564 1.400 . S
C565 C566 1.398 . S
C566 H554 0.950 . S
C566 C565 1.398 . S
C566 C567 1.391 . S
C567 H555 0.950 . S
C567 C563 1.393 . S
C567 C566 1.391 . S
H568 C576 0.950 . S
H569 C581 0.950 . S
H570 C578 0.950 . S
H571 C580 0.950 . S
H572 C582 0.950 . S
H573 C584 0.950 . S
H574 C586 0.950 . S
H575 C587 0.950 . S
C576 H568 0.950 . S
C576 C577 1.386 . S
C576 C578 1.391 . S
C577 C576 1.386 . S
C577 C581 1.393 . S
C578 H570 0.950 . S
C578 C576 1.391 . S
C578 C579 1.400 . S
C579 C578 1.400 . S
C579 C580 1.398 . S
C579 C585 1.491 1_554 S
C580 H571 0.950 . S
C580 C579 1.398 . S
C580 C581 1.391 . S
C581 H569 0.950 . S
C581 C577 1.393 . S
C581 C580 1.391 . S
C582 H572 0.950 . S
C582 C583 1.386 . S
C582 C584 1.391 . S
C583 C582 1.386 . S
C583 C587 1.393 . S
C584 H573 0.950 . S
C584 C582 1.391 . S
C584 C585 1.400 . S
C585 C579 1.491 1_556 S
C585 C584 1.400 . S
C585 C586 1.398 . S
C586 H574 0.950 . S
C586 C585 1.398 . S
C586 C587 1.391 . S
C587 H575 0.950 . S
C587 C583 1.393 . S
C587 C586 1.391 . S
H588 C596 0.950 . S
H589 C601 0.950 . S
H590 C598 0.950 . S
H591 C600 0.950 . S
H592 C602 0.950 . S
H593 C604 0.950 . S
H594 C606 0.950 . S
H595 C607 0.950 . S
C596 H588 0.950 . S
C596 C597 1.386 . S
C596 C598 1.391 . S
C597 C596 1.386 . S
C597 C601 1.393 . S
C598 H590 0.950 . S
C598 C596 1.391 . S
C598 C599 1.400 . S
C599 C598 1.400 . S
C599 C600 1.398 . S
C599 C605 1.491 . S
C600 H591 0.950 . S
C600 C599 1.398 . S
C600 C601 1.391 . S
C601 H589 0.950 . S
C601 C597 1.393 . S
C601 C600 1.391 . S
C602 H592 0.950 . S
C602 C603 1.386 . S
C602 C604 1.391 . S
C603 C602 1.386 . S
C603 C607 1.393 . S
C604 H593 0.950 . S
C604 C602 1.391 . S
C604 C605 1.400 . S
C605 C599 1.491 . S
C605 C604 1.400 . S
C605 C606 1.398 . S
C606 H594 0.950 . S
C606 C605 1.398 . S
C606 C607 1.391 . S
C607 H595 0.950 . S
C607 C603 1.393 . S
C607 C606 1.391 . S
H608 C616 0.950 . S
H609 C621 0.950 . S
H610 C618 0.950 . S
H611 C620 0.950 . S
H612 C622 0.950 . S
H613 C624 0.950 . S
H614 C626 0.950 . S
H615 C627 0.950 . S
C616 H608 0.950 . S
C616 C617 1.386 . S
C616 C618 1.391 . S
C617 C616 1.386 . S
C617 C621 1.393 . S
C618 H610 0.950 . S
C618 C616 1.391 . S
C618 C619 1.400 . S
C619 C618 1.400 . S
C619 C620 1.398 . S
C619 C625 1.491 . S
C620 H611 0.950 . S
C620 C619 1.398 . S
C620 C621 1.391 . S
C621 H609 0.950 . S
C621 C617 1.393 . S
C621 C620 1.391 . S
C622 H612 0.950 . S
C622 C623 1.386 . S
C622 C624 1.391 . S
C623 C622 1.386 . S
C623 C627 1.393 . S
C624 H613 0.950 . S
C624 C622 1.391 . S
C624 C625 1.400 . S
C625 C619 1.491 . S
C625 C624 1.400 . S
C625 C626 1.398 . S
C626 H614 0.950 . S
C626 C625 1.398 . S
C626 C627 1.391 . S
C627 H615 0.950 . S
C627 C623 1.393 . S
C627 C626 1.391 . S
H628 C636 0.950 . S
H629 C641 0.950 . S
H630 C638 0.950 . S
H631 C640 0.950 . S
H632 C642 0.950 . S
H633 C644 0.950 . S
H634 C646 0.950 . S
H635 C647 0.950 . S
C636 H628 0.950 . S
C636 C637 1.386 . S
C636 C638 1.391 . S
C637 C636 1.386 . S
C637 C641 1.393 . S
C638 H630 0.950 . S
C638 C636 1.391 . S
C638 C639 1.400 . S
C639 C638 1.400 . S
C639 C640 1.398 . S
C639 C645 1.491 . S
C640 H631 0.950 . S
C640 C639 1.398 . S
C640 C641 1.391 . S
C641 H629 0.950 . S
C641 C637 1.393 . S
C641 C640 1.391 . S
C642 H632 0.950 . S
C642 C643 1.386 . S
C642 C644 1.391 . S
C643 C642 1.386 . S
C643 C647 1.393 . S
C644 H633 0.950 . S
C644 C642 1.391 . S
C644 C645 1.400 . S
C645 C639 1.491 . S
C645 C644 1.400 . S
C645 C646 1.398 . S
C646 H634 0.950 . S
C646 C645 1.398 . S
C646 C647 1.391 . S
C647 H635 0.950 . S
C647 C643 1.393 . S
C647 C646 1.391 . S
H648 C656 0.950 . S
H649 C661 0.950 . S
H650 C658 0.950 . S
H651 C660 0.950 . S
H652 C662 0.950 . S
H653 C664 0.950 . S
H654 C666 0.953 . S
H655 C667 0.950 . S
C656 H648 0.950 . S
C656 C657 1.386 . S
C656 C658 1.391 . S
C657 C656 1.386 . S
C657 C661 1.393 . S
C658 H650 0.950 . S
C658 C656 1.391 . S
C658 C659 1.400 . S
C659 C658 1.400 . S
C659 C660 1.398 . S
C659 C665 1.491 . S
C660 H651 0.950 . S
C660 C659 1.398 . S
C660 C661 1.391 . S
C661 H649 0.950 . S
C661 C657 1.393 . S
C661 C660 1.391 . S
C662 H652 0.950 . S
C662 C663 1.386 . S
C662 C664 1.391 1_556 S
C663 C662 1.386 . S
C663 C667 1.393 . S
C664 H653 0.950 . S
C664 C662 1.391 1_554 S
C664 C665 1.400 . S
C665 C659 1.491 . S
C665 C664 1.400 . S
C665 C666 1.403 . S
C666 H654 0.953 . S
C666 C665 1.403 . S
C666 C667 1.383 1_554 S
C667 H655 0.950 . S
C667 C663 1.393 . S
C667 C666 1.383 1_556 S
H668 C676 0.950 . S
H669 C681 0.950 . S
H670 C678 0.950 . S
H671 C680 0.950 . S
H672 C682 0.943 1_554 S
H673 C684 0.950 . S
H674 C686 0.950 . S
H675 C687 0.950 1_554 S
C676 H668 0.950 . S
C676 C677 1.386 . S
C676 C678 1.391 . S
C677 C676 1.386 . S
C677 C681 1.393 . S
C678 H670 0.950 . S
C678 C676 1.391 . S
C678 C679 1.400 . S
C679 C678 1.400 . S
C679 C680 1.398 . S
C679 C685 1.491 . S
C680 H671 0.950 . S
C680 C679 1.398 . S
C680 C681 1.391 . S
C681 H669 0.950 . S
C681 C677 1.393 . S
C681 C680 1.391 . S
C682 H672 0.943 1_556 S
C682 C683 1.381 1_556 S
C682 C684 1.403 . S
C683 C682 1.381 1_554 S
C683 C687 1.393 1_554 S
C684 H673 0.950 . S
C684 C682 1.403 . S
C684 C685 1.400 . S
C685 C679 1.491 . S
C685 C684 1.400 . S
C685 C686 1.398 . S
C686 H674 0.950 . S
C686 C685 1.398 . S
C686 C687 1.391 . S
C687 H675 0.950 1_556 S
C687 C683 1.393 1_556 S
C687 C686 1.391 . S
H688 C696 0.950 . S
H689 C701 0.950 . S
H690 C698 0.950 . S
H691 C700 0.950 . S
H692 C702 0.950 . S
H693 C704 0.952 . S
H694 C706 0.950 . S
H695 C707 0.950 . S
C696 H688 0.950 . S
C696 C697 1.386 . S
C696 C698 1.391 . S
C697 C696 1.386 . S
C697 C701 1.393 . S
C698 H690 0.950 . S
C698 C696 1.391 . S
C698 C699 1.400 . S
C699 C698 1.400 . S
C699 C700 1.398 . S
C699 C705 1.491 . S
C700 H691 0.950 . S
C700 C699 1.398 . S
C700 C701 1.391 . S
C701 H689 0.950 . S
C701 C697 1.393 . S
C701 C700 1.391 . S
C702 H692 0.950 . S
C702 C703 1.386 . S
C702 C704 1.386 1_556 S
C703 C702 1.386 . S
C703 C707 1.393 . S
C704 H693 0.952 . S
C704 C702 1.386 1_554 S
C704 C705 1.403 . S
C705 C699 1.491 . S
C705 C704 1.403 . S
C705 C706 1.398 . S
C706 H694 0.950 . S
C706 C705 1.398 . S
C706 C707 1.391 1_554 S
C707 H695 0.950 . S
C707 C703 1.393 . S
C707 C706 1.391 1_556 S
H708 C716 0.950 . S
H709 C721 0.950 . S
H710 C718 0.950 . S
H711 C720 0.950 . S
H712 C722 0.950 . S
H713 C724 0.950 . S
H714 C726 0.950 . S
H715 C727 0.950 . S
C716 H708 0.950 . S
C716 C717 1.386 . S
C716 C718 1.391 . S
C717 C716 1.386 . S
C717 C721 1.393 . S
C718 H710 0.950 . S
C718 C716 1.391 . S
C718 C719 1.400 . S
C719 C718 1.400 . S
C719 C720 1.398 . S
C719 C725 1.491 . S
C720 H711 0.950 . S
C720 C719 1.398 . S
C720 C721 1.391 . S
C721 H709 0.950 . S
C721 C717 1.393 . S
C721 C720 1.391 . S
C722 H712 0.950 . S
C722 C723 1.386 . S
C722 C724 1.391 . S
C723 C722 1.386 . S
C723 C727 1.393 . S
C724 H713 0.950 . S
C724 C722 1.391 . S
C724 C725 1.400 . S
C725 C719 1.491 . S
C725 C724 1.400 . S
C725 C726 1.398 . S
C726 H714 0.950 . S
C726 C725 1.398 . S
C726 C727 1.391 . S
C727 H715 0.950 . S
C727 C723 1.393 . S
C727 C726 1.391 . S
H728 C736 0.950 . S
H729 C741 0.950 . S
H730 C738 0.950 . S
H731 C740 0.950 . S
H732 C742 0.950 . S
H733 C744 0.950 . S
H734 C746 0.950 . S
H735 C747 0.950 . S
C736 H728 0.950 . S
C736 C737 1.386 . S
C736 C738 1.391 . S
C737 C736 1.386 . S
C737 C741 1.393 . S
C738 H730 0.950 . S
C738 C736 1.391 . S
C738 C739 1.400 . S
C739 C738 1.400 . S
C739 C740 1.398 . S
C739 C745 1.491 . S
C740 H731 0.950 . S
C740 C739 1.398 . S
C740 C741 1.391 . S
C741 H729 0.950 . S
C741 C737 1.393 . S
C741 C740 1.391 . S
C742 H732 0.950 . S
C742 C743 1.386 . S
C742 C744 1.391 . S
C743 C742 1.386 . S
C743 C747 1.393 . S
C744 H733 0.950 . S
C744 C742 1.391 . S
C744 C745 1.400 . S
C745 C739 1.491 . S
C745 C744 1.400 . S
C745 C746 1.398 . S
C746 H734 0.950 . S
C746 C745 1.398 . S
C746 C747 1.391 . S
C747 H735 0.950 . S
C747 C743 1.393 . S
C747 C746 1.391 . S
H748 C756 0.950 . S
H749 C761 0.950 . S
H750 C758 0.950 . S
H751 C760 0.950 . S
H752 C762 0.950 . S
H753 C764 0.950 . S
H754 C766 0.950 . S
H755 C767 0.950 . S
C756 H748 0.950 . S
C756 C757 1.386 . S
C756 C758 1.391 . S
C757 C756 1.386 . S
C757 C761 1.393 . S
C758 H750 0.950 . S
C758 C756 1.391 . S
C758 C759 1.400 . S
C759 C758 1.400 . S
C759 C760 1.398 . S
C759 C765 1.491 . S
C760 H751 0.950 . S
C760 C759 1.398 . S
C760 C761 1.391 . S
C761 H749 0.950 . S
C761 C757 1.393 . S
C761 C760 1.391 . S
C762 H752 0.950 . S
C762 C763 1.386 . S
C762 C764 1.391 . S
C763 C762 1.386 . S
C763 C767 1.393 . S
C764 H753 0.950 . S
C764 C762 1.391 . S
C764 C765 1.400 . S
C765 C759 1.491 . S
C765 C764 1.400 . S
C765 C766 1.398 . S
C766 H754 0.950 . S
C766 C765 1.398 . S
C766 C767 1.391 . S
C767 H755 0.950 . S
C767 C763 1.393 . S
C767 C766 1.391 . S
H768 C776 0.950 . S
H769 C781 0.950 . S
H770 C778 0.950 . S
H771 C780 0.950 . S
H772 C782 0.950 . S
H773 C784 0.950 . S
H774 C786 0.950 . S
H775 C787 0.950 . S
C776 H768 0.950 . S
C776 C777 1.386 . S
C776 C778 1.391 . S
C777 C776 1.386 . S
C777 C781 1.393 . S
C778 H770 0.950 . S
C778 C776 1.391 . S
C778 C779 1.400 . S
C779 C778 1.400 . S
C779 C780 1.398 . S
C779 C785 1.491 1_556 S
C780 H771 0.950 . S
C780 C779 1.398 . S
C780 C781 1.391 . S
C781 H769 0.950 . S
C781 C777 1.393 . S
C781 C780 1.391 . S
C782 H772 0.950 . S
C782 C783 1.386 . S
C782 C784 1.391 . S
C783 C782 1.386 . S
C783 C787 1.393 . S
C784 H773 0.950 . S
C784 C782 1.391 . S
C784 C785 1.400 . S
C785 C779 1.491 1_554 S
C785 C784 1.400 . S
C785 C786 1.398 . S
C786 H774 0.950 . S
C786 C785 1.398 . S
C786 C787 1.391 . S
C787 H775 0.950 . S
C787 C783 1.393 . S
C787 C786 1.391 . S
H788 C796 0.950 . S
H789 C801 0.950 . S
H790 C798 0.950 . S
H791 C800 0.950 . S
H792 C802 0.950 . S
H793 C804 0.950 . S
H794 C806 0.950 . S
H795 C807 0.950 . S
C796 H788 0.950 . S
C796 C797 1.386 . S
C796 C798 1.391 . S
C797 C796 1.386 . S
C797 C801 1.393 . S
C798 H790 0.950 . S
C798 C796 1.391 . S
C798 C799 1.400 . S
C799 C798 1.400 . S
C799 C800 1.398 . S
C799 C805 1.491 . S
C800 H791 0.950 . S
C800 C799 1.398 . S
C800 C801 1.391 . S
C801 H789 0.950 . S
C801 C797 1.393 . S
C801 C800 1.391 . S
C802 H792 0.950 . S
C802 C803 1.386 . S
C802 C804 1.391 . S
C803 C802 1.386 . S
C803 C807 1.393 . S
C804 H793 0.950 . S
C804 C802 1.391 . S
C804 C805 1.400 . S
C805 C799 1.491 . S
C805 C804 1.400 . S
C805 C806 1.398 . S
C806 H794 0.950 . S
C806 C805 1.398 . S
C806 C807 1.391 . S
C807 H795 0.950 . S
C807 C803 1.393 . S
C807 C806 1.391 . S
H808 C816 0.950 . S
H809 C821 0.950 . S
H810 C818 0.950 . S
H811 C820 0.950 . S
H812 C822 0.950 . S
H813 C824 0.950 . S
H814 C826 0.950 . S
H815 C827 0.950 . S
C816 H808 0.950 . S
C816 C817 1.386 . S
C816 C818 1.391 . S
C817 C816 1.386 . S
C817 C821 1.393 . S
C818 H810 0.950 . S
C818 C816 1.391 . S
C818 C819 1.400 . S
C819 C818 1.400 . S
C819 C820 1.398 . S
C819 C825 1.491 . S
C820 H811 0.950 . S
C820 C819 1.398 . S
C820 C821 1.391 . S
C821 H809 0.950 . S
C821 C817 1.393 . S
C821 C820 1.391 . S
C822 H812 0.950 . S
C822 C823 1.386 . S
C822 C824 1.391 . S
C823 C822 1.386 . S
C823 C827 1.393 . S
C824 H813 0.950 . S
C824 C822 1.391 . S
C824 C825 1.400 . S
C825 C819 1.491 . S
C825 C824 1.400 . S
C825 C826 1.398 . S
C826 H814 0.950 . S
C826 C825 1.398 . S
C826 C827 1.391 . S
C827 H815 0.950 . S
C827 C823 1.393 . S
C827 C826 1.391 . S
H828 C836 0.950 . S
H829 C841 0.950 . S
H830 C838 0.950 . S
H831 C840 0.950 . S
H832 C842 0.950 . S
H833 C844 0.950 . S
H834 C846 0.950 . S
H835 C847 0.950 . S
C836 H828 0.950 . S
C836 C837 1.386 . S
C836 C838 1.391 . S
C837 C836 1.386 . S
C837 C841 1.393 . S
C838 H830 0.950 . S
C838 C836 1.391 . S
C838 C839 1.400 . S
C839 C838 1.400 . S
C839 C840 1.398 . S
C839 C845 1.491 . S
C840 H831 0.950 . S
C840 C839 1.398 . S
C840 C841 1.391 . S
C841 H829 0.950 . S
C841 C837 1.393 . S
C841 C840 1.391 . S
C842 H832 0.950 . S
C842 C843 1.386 . S
C842 C844 1.391 . S
C843 C842 1.386 . S
C843 C847 1.393 . S
C844 H833 0.950 . S
C844 C842 1.391 . S
C844 C845 1.400 . S
C845 C839 1.491 . S
C845 C844 1.400 . S
C845 C846 1.398 . S
C846 H834 0.950 . S
C846 C845 1.398 . S
C846 C847 1.391 . S
C847 H835 0.950 . S
C847 C843 1.393 . S
C847 C846 1.391 . S
H848 C856 0.950 . S
H849 C861 0.950 . S
H850 C858 0.950 . S
H851 C860 0.950 . S
H852 C862 0.950 . S
H853 C864 0.950 . S
H854 C866 0.950 . S
H855 C867 0.950 . S
C856 H848 0.950 . S
C856 C857 1.386 . S
C856 C858 1.391 . S
C857 C856 1.386 . S
C857 C861 1.393 . S
C858 H850 0.950 . S
C858 C856 1.391 . S
C858 C859 1.400 . S
C859 C858 1.400 . S
C859 C860 1.398 . S
C859 C865 1.491 . S
C860 H851 0.950 . S
C860 C859 1.398 . S
C860 C861 1.391 . S
C861 H849 0.950 . S
C861 C857 1.393 . S
C861 C860 1.391 . S
C862 H852 0.950 . S
C862 C863 1.386 . S
C862 C864 1.391 . S
C863 C862 1.386 . S
C863 C867 1.393 . S
C864 H853 0.950 . S
C864 C862 1.391 . S
C864 C865 1.400 . S
C865 C859 1.491 . S
C865 C864 1.400 . S
C865 C866 1.398 . S
C866 H854 0.950 . S
C866 C865 1.398 . S
C866 C867 1.391 . S
C867 H855 0.950 . S
C867 C863 1.393 . S
C867 C866 1.391 . S
H868 C876 0.950 . S
H869 C881 0.950 . S
H870 C878 0.950 . S
H871 C880 0.950 . S
H872 C882 0.950 . S
H873 C884 0.950 . S
H874 C886 0.950 . S
H875 C887 0.950 . S
C876 H868 0.950 . S
C876 C877 1.386 . S
C876 C878 1.391 . S
C877 C876 1.386 . S
C877 C881 1.393 . S
C878 H870 0.950 . S
C878 C876 1.391 . S
C878 C879 1.400 . S
C879 C878 1.400 . S
C879 C880 1.398 . S
C879 C885 1.491 . S
C880 H871 0.950 . S
C880 C879 1.398 . S
C880 C881 1.391 . S
C881 H869 0.950 . S
C881 C877 1.393 . S
C881 C880 1.391 . S
C882 H872 0.950 . S
C882 C883 1.386 . S
C882 C884 1.391 . S
C883 C882 1.386 . S
C883 C887 1.393 . S
C884 H873 0.950 . S
C884 C882 1.391 . S
C884 C885 1.400 . S
C885 C879 1.491 . S
C885 C884 1.400 . S
C885 C886 1.398 . S
C886 H874 0.950 . S
C886 C885 1.398 . S
C886 C887 1.391 . S
C887 H875 0.950 . S
C887 C883 1.393 . S
C887 C886 1.391 . S
H888 C896 0.950 . S
H889 C901 0.950 . S
H890 C898 0.950 . S
H891 C900 0.950 . S
H892 C902 0.950 . S
H893 C904 0.950 . S
H894 C906 0.950 . S
H895 C907 0.950 . S
C896 H888 0.950 . S
C896 C897 1.386 . S
C896 C898 1.391 . S
C897 C896 1.386 . S
C897 C901 1.393 . S
C898 H890 0.950 . S
C898 C896 1.391 . S
C898 C899 1.400 . S
C899 C898 1.400 . S
C899 C900 1.398 . S
C899 C905 1.491 . S
C900 H891 0.950 . S
C900 C899 1.398 . S
C900 C901 1.391 . S
C901 H889 0.950 . S
C901 C897 1.393 . S
C901 C900 1.391 . S
C902 H892 0.950 . S
C902 C903 1.386 . S
C902 C904 1.391 . S
C903 C902 1.386 . S
C903 C907 1.393 . S
C904 H893 0.950 . S
C904 C902 1.391 . S
C904 C905 1.400 . S
C905 C899 1.491 . S
C905 C904 1.400 . S
C905 C906 1.398 . S
C906 H894 0.950 . S
C906 C905 1.398 . S
C906 C907 1.391 . S
C907 H895 0.950 . S
C907 C903 1.393 . S
C907 C906 1.391 . S
H908 C916 0.950 . S
H909 C921 0.950 . S
H910 C918 0.950 . S
H911 C920 0.950 . S
H912 C922 0.950 . S
H913 C924 0.950 . S
H914 C926 0.950 . S
H915 C927 0.950 . S
C916 H908 0.950 . S
C916 C917 1.386 1_556 S
C916 C918 1.391 . S
C917 C916 1.386 1_554 S
C917 C921 1.393 . S
C918 H910 0.950 . S
C918 C916 1.391 . S
C918 C919 1.400 . S
C919 C918 1.400 . S
C919 C920 1.398 1_556 S
C919 C925 1.491 . S
C920 H911 0.950 . S
C920 C919 1.398 1_554 S
C920 C921 1.391 . S
C921 H909 0.950 . S
C921 C917 1.393 . S
C921 C920 1.391 . S
C922 H912 0.950 . S
C922 C923 1.386 . S
C922 C924 1.391 . S
C923 C922 1.386 . S
C923 C927 1.393 . S
C924 H913 0.950 . S
C924 C922 1.391 . S
C924 C925 1.400 . S
C925 C919 1.491 . S
C925 C924 1.400 . S
C925 C926 1.398 . S
C926 H914 0.950 . S
C926 C925 1.398 . S
C926 C927 1.391 . S
C927 H915 0.950 . S
C927 C923 1.393 . S
C927 C926 1.391 . S
H928 C936 0.950 . S
H929 C941 0.950 . S
H930 C938 0.950 . S
H931 C940 0.950 . S
H932 C942 0.950 . S
H933 C944 0.950 . S
H934 C946 0.950 . S
H935 C947 0.950 1_545 S
C936 H928 0.950 . S
C936 C937 1.386 . S
C936 C938 1.391 . S
C937 C936 1.386 . S
C937 C941 1.393 . S
C938 H930 0.950 . S
C938 C936 1.391 . S
C938 C939 1.400 . S
C939 C938 1.400 . S
C939 C940 1.398 . S
C939 C945 1.491 . S
C940 H931 0.950 . S
C940 C939 1.398 . S
C940 C941 1.391 . S
C941 H929 0.950 . S
C941 C937 1.393 . S
C941 C940 1.391 . S
C942 H932 0.950 . S
C942 C943 1.386 . S
C942 C944 1.391 . S
C943 C942 1.386 . S
C943 C947 1.393 . S
C944 H933 0.950 . S
C944 C942 1.391 . S
C944 C945 1.400 . S
C945 C939 1.491 . S
C945 C944 1.400 . S
C945 C946 1.398 . S
C946 H934 0.950 . S
C946 C945 1.398 . S
C946 C947 1.391 . S
C947 H935 0.950 1_565 S
C947 C943 1.393 . S
C947 C946 1.391 . S
H948 C956 0.950 . S
H949 C961 0.950 . S
H950 C958 0.950 . S
H951 C960 0.950 . S
H952 C962 0.950 1_545 S
H953 C964 0.950 . S
H954 C966 0.950 . S
H955 C967 0.950 . S
C956 H948 0.950 . S
C956 C957 1.386 . S
C956 C958 1.391 . S
C957 C956 1.386 . S
C957 C961 1.393 . S
C958 H950 0.950 . S
C958 C956 1.391 . S
C958 C959 1.400 . S
C959 C958 1.400 . S
C959 C960 1.398 . S
C959 C965 1.491 . S
C960 H951 0.950 . S
C960 C959 1.398 . S
C960 C961 1.391 . S
C961 H949 0.950 . S
C961 C957 1.393 . S
C961 C960 1.391 . S
C962 H952 0.950 1_565 S
C962 C963 1.386 . S
C962 C964 1.391 . S
C963 C962 1.386 . S
C963 C967 1.393 . S
C964 H953 0.950 . S
C964 C962 1.391 . S
C964 C965 1.400 . S
C965 C959 1.491 . S
C965 C964 1.400 . S
C965 C966 1.398 . S
C966 H954 0.950 . S
C966 C965 1.398 . S
C966 C967 1.391 . S
C967 H955 0.950 . S
C967 C963 1.393 . S
C967 C966 1.391 . S
H968 C976 0.950 . S
H969 C981 0.950 . S
H970 C978 0.950 . S
H971 C980 0.950 . S
H972 C982 0.950 . S
H973 C984 0.950 . S
H974 C986 0.950 . S
H975 C987 0.950 . S
C976 H968 0.950 . S
C976 C977 1.386 . S
C976 C978 1.391 . S
C977 C976 1.386 . S
C977 C981 1.393 . S
C978 H970 0.950 . S
C978 C976 1.391 . S
C978 C979 1.400 . S
C979 C978 1.400 . S
C979 C980 1.398 . S
C979 C985 1.491 . S
C980 H971 0.950 . S
C980 C979 1.398 . S
C980 C981 1.391 . S
C981 H969 0.950 . S
C981 C977 1.393 . S
C981 C980 1.391 . S
C982 H972 0.950 . S
C982 C983 1.386 . S
C982 C984 1.391 . S
C983 C982 1.386 . S
C983 C987 1.393 . S
C984 H973 0.950 . S
C984 C982 1.391 . S
C984 C985 1.400 . S
C985 C979 1.491 . S
C985 C984 1.400 . S
C985 C986 1.398 . S
C986 H974 0.950 . S
C986 C985 1.398 . S
C986 C987 1.391 . S
C987 H975 0.950 . S
C987 C983 1.393 . S
C987 C986 1.391 . S
H988 C996 0.950 . S
H989 C1001 0.950 . S
H990 C998 0.950 . S
H991 C1000 0.950 . S
H992 C1002 0.950 . S
H993 C1004 0.950 . S
H994 C1006 0.950 . S
H995 C1007 0.949 1_556 S
C996 H988 0.950 . S
C996 C997 1.386 . S
C996 C998 1.391 . S
C997 C996 1.386 . S
C997 C1001 1.393 . S
C998 H990 0.950 . S
C998 C996 1.391 . S
C998 C999 1.400 . S
C999 C998 1.400 . S
C999 C1000 1.398 . S
C999 C1005 1.491 . S
C1000 H991 0.950 . S
C1000 C999 1.398 . S
C1000 C1001 1.391 . S
C1001 H989 0.950 . S
C1001 C997 1.393 . S
C1001 C1000 1.391 . S
C1002 H992 0.950 . S
C1002 C1003 1.386 . S
C1002 C1004 1.391 . S
C1003 C1002 1.386 . S
C1003 C1007 1.393 . S
C1004 H993 0.950 . S
C1004 C1002 1.391 . S
C1004 C1005 1.400 . S
C1005 C999 1.491 . S
C1005 C1004 1.400 . S
C1005 C1006 1.398 . S
C1006 H994 0.950 . S
C1006 C1005 1.398 . S
C1006 C1007 1.391 . S
C1007 H995 0.949 1_554 S
C1007 C1003 1.393 . S
C1007 C1006 1.391 . S
H1008 C1016 0.950 . S
H1009 C1021 0.950 . S
H1010 C1018 0.950 . S
H1011 C1020 0.950 . S
H1012 C1022 0.950 . S
H1013 C1024 0.950 . S
H1014 C1026 0.950 . S
H1015 C1027 0.950 . S
C1016 H1008 0.950 . S
C1016 C1017 1.386 . S
C1016 C1018 1.391 . S
C1017 C1016 1.386 . S
C1017 C1021 1.393 . S
C1018 H1010 0.950 . S
C1018 C1016 1.391 . S
C1018 C1019 1.400 . S
C1019 C1018 1.400 . S
C1019 C1020 1.398 . S
C1019 C1025 1.491 . S
C1020 H1011 0.950 . S
C1020 C1019 1.398 . S
C1020 C1021 1.391 . S
C1021 H1009 0.950 . S
C1021 C1017 1.393 . S
C1021 C1020 1.391 . S
C1022 H1012 0.950 . S
C1022 C1023 1.386 . S
C1022 C1024 1.391 . S
C1023 C1022 1.386 . S
C1023 C1027 1.393 . S
C1024 H1013 0.950 . S
C1024 C1022 1.391 . S
C1024 C1025 1.400 . S
C1025 C1019 1.491 . S
C1025 C1024 1.400 . S
C1025 C1026 1.398 . S
C1026 H1014 0.950 . S
C1026 C1025 1.398 . S
C1026 C1027 1.391 . S
C1027 H1015 0.950 . S
C1027 C1023 1.393 . S
C1027 C1026 1.391 . S
H1028 C1036 0.950 . S
H1029 C1041 0.950 . S
H1030 C1038 0.950 . S
H1031 C1040 0.950 1_554 S
H1032 C1042 0.950 . S
H1033 C1044 0.957 . S
H1034 C1046 0.950 . S
H1035 C1047 0.950 . S
C1036 H1028 0.950 . S
C1036 C1037 1.386 . S
C1036 C1038 1.391 . S
C1037 C1036 1.386 . S
C1037 C1041 1.393 . S
C1038 H1030 0.950 . S
C1038 C1036 1.391 . S
C1038 C1039 1.400 . S
C1039 C1038 1.400 . S
C1039 C1040 1.398 . S
C1039 C1045 1.491 . S
C1040 H1031 0.950 1_556 S
C1040 C1039 1.398 . S
C1040 C1041 1.391 . S
C1041 H1029 0.950 . S
C1041 C1037 1.393 . S
C1041 C1040 1.391 . S
C1042 H1032 0.950 . S
C1042 C1043 1.386 1_554 S
C1042 C1044 1.395 . S
C1043 C1042 1.386 1_556 S
C1043 C1047 1.393 . S
C1044 H1033 0.957 . S
C1044 C1042 1.395 . S
C1044 C1045 1.389 1_554 S
C1045 C1039 1.491 . S
C1045 C1044 1.389 1_556 S
C1045 C1046 1.398 . S
C1046 H1034 0.950 . S
C1046 C1045 1.398 . S
C1046 C1047 1.391 . S
C1047 H1035 0.950 . S
C1047 C1043 1.393 . S
C1047 C1046 1.391 . S
H1048 C1056 0.950 1_556 S
H1049 C1061 0.950 . S
H1050 C1058 0.950 . S
H1051 C1060 0.950 . S
H1052 C1062 0.950 . S
H1053 C1064 0.950 . S
H1054 C1066 0.950 . S
H1055 C1067 0.950 . S
C1056 H1048 0.950 1_554 S
C1056 C1057 1.386 . S
C1056 C1058 1.391 . S
C1057 C1056 1.386 . S
C1057 C1061 1.393 . S
C1058 H1050 0.950 . S
C1058 C1056 1.391 . S
C1058 C1059 1.400 . S
C1059 C1058 1.400 . S
C1059 C1060 1.398 . S
C1059 C1065 1.491 . S
C1060 H1051 0.950 . S
C1060 C1059 1.398 . S
C1060 C1061 1.391 . S
C1061 H1049 0.950 . S
C1061 C1057 1.393 . S
C1061 C1060 1.391 . S
C1062 H1052 0.950 . S
C1062 C1063 1.386 . S
C1062 C1064 1.391 . S
C1063 C1062 1.386 . S
C1063 C1067 1.393 . S
C1064 H1053 0.950 . S
C1064 C1062 1.391 . S
C1064 C1065 1.400 . S
C1065 C1059 1.491 . S
C1065 C1064 1.400 . S
C1065 C1066 1.398 . S
C1066 H1054 0.950 . S
C1066 C1065 1.398 . S
C1066 C1067 1.391 . S
C1067 H1055 0.950 . S
C1067 C1063 1.393 . S
C1067 C1066 1.391 . S
H1068 C1076 0.950 . S
H1069 C1081 0.950 . S
H1070 C1078 0.950 . S
H1071 C1080 0.950 . S
H1072 C1082 0.950 . S
H1073 C1084 0.950 . S
H1074 C1086 0.950 . S
H1075 C1087 0.950 . S
C1076 H1068 0.950 . S
C1076 C1077 1.386 . S
C1076 C1078 1.391 . S
C1077 C1076 1.386 . S
C1077 C1081 1.393 . S
C1078 H1070 0.950 . S
C1078 C1076 1.391 . S
C1078 C1079 1.400 . S
C1079 C1078 1.400 . S
C1079 C1080 1.398 . S
C1079 C1085 1.491 . S
C1080 H1071 0.950 . S
C1080 C1079 1.398 . S
C1080 C1081 1.391 . S
C1081 H1069 0.950 . S
C1081 C1077 1.393 . S
C1081 C1080 1.391 . S
C1082 H1072 0.950 . S
C1082 C1083 1.386 . S
C1082 C1084 1.391 . S
C1083 C1082 1.386 . S
C1083 C1087 1.393 . S
C1084 H1073 0.950 . S
C1084 C1082 1.391 . S
C1084 C1085 1.400 . S
C1085 C1079 1.491 . S
C1085 C1084 1.400 . S
C1085 C1086 1.398 . S
C1086 H1074 0.950 . S
C1086 C1085 1.398 . S
C1086 C1087 1.391 . S
C1087 H1075 0.950 . S
C1087 C1083 1.393 . S
C1087 C1086 1.391 . S
H1088 C1096 0.950 . S
H1089 C1101 0.950 . S
H1090 C1098 0.950 . S
H1091 C1100 0.950 . S
H1092 C1102 0.950 . S
H1093 C1104 0.950 . S
H1094 C1106 0.950 . S
H1095 C1107 0.950 . S
C1096 H1088 0.950 . S
C1096 C1097 1.386 . S
C1096 C1098 1.391 . S
C1097 C1096 1.386 . S
C1097 C1101 1.393 . S
C1098 H1090 0.950 . S
C1098 C1096 1.391 . S
C1098 C1099 1.400 . S
C1099 C1098 1.400 . S
C1099 C1100 1.398 . S
C1099 C1105 1.491 . S
C1100 H1091 0.950 . S
C1100 C1099 1.398 . S
C1100 C1101 1.391 . S
C1101 H1089 0.950 . S
C1101 C1097 1.393 . S
C1101 C1100 1.391 . S
C1102 H1092 0.950 . S
C1102 C1103 1.386 . S
C1102 C1104 1.391 . S
C1103 C1102 1.386 . S
C1103 C1107 1.393 . S
C1104 H1093 0.950 . S
C1104 C1102 1.391 . S
C1104 C1105 1.400 . S
C1105 C1099 1.491 . S
C1105 C1104 1.400 . S
C1105 C1106 1.398 . S
C1106 H1094 0.950 . S
C1106 C1105 1.398 . S
C1106 C1107 1.391 . S
C1107 H1095 0.950 . S
C1107 C1103 1.393 . S
C1107 C1106 1.391 . S
H1108 C1116 0.950 . S
H1109 C1121 0.950 . S
H1110 C1118 0.950 . S
H1111 C1120 0.950 . S
H1112 C1122 0.950 . S
H1113 C1124 0.950 . S
H1114 C1126 0.950 . S
H1115 C1127 0.950 . S
C1116 H1108 0.950 . S
C1116 C1117 1.386 . S
C1116 C1118 1.391 . S
C1117 C1116 1.386 . S
C1117 C1121 1.393 . S
C1118 H1110 0.950 . S
C1118 C1116 1.391 . S
C1118 C1119 1.400 . S
C1119 C1118 1.400 . S
C1119 C1120 1.398 . S
C1119 C1125 1.491 . S
C1120 H1111 0.950 . S
C1120 C1119 1.398 . S
C1120 C1121 1.391 . S
C1121 H1109 0.950 . S
C1121 C1117 1.393 . S
C1121 C1120 1.391 . S
C1122 H1112 0.950 . S
C1122 C1123 1.386 . S
C1122 C1124 1.391 . S
C1123 C1122 1.386 . S
C1123 C1127 1.393 . S
C1124 H1113 0.950 . S
C1124 C1122 1.391 . S
C1124 C1125 1.400 . S
C1125 C1119 1.491 . S
C1125 C1124 1.400 . S
C1125 C1126 1.398 . S
C1126 H1114 0.950 . S
C1126 C1125 1.398 . S
C1126 C1127 1.391 . S
C1127 H1115 0.950 . S
C1127 C1123 1.393 . S
C1127 C1126 1.391 . S
H1128 C1136 0.950 . S
H1129 C1141 0.950 . S
H1130 C1138 0.950 1_554 S
H1131 C1140 0.950 . S
H1132 C1142 0.950 . S
H1133 C1144 0.950 . S
H1134 C1146 0.950 . S
H1135 C1147 0.950 . S
C1136 H1128 0.950 . S
C1136 C1137 1.386 . S
C1136 C1138 1.391 . S
C1137 C1136 1.386 . S
C1137 C1141 1.393 . S
C1138 H1130 0.950 1_556 S
C1138 C1136 1.391 . S
C1138 C1139 1.400 . S
C1139 C1138 1.400 . S
C1139 C1140 1.398 . S
C1139 C1145 1.491 . S
C1140 H1131 0.950 . S
C1140 C1139 1.398 . S
C1140 C1141 1.391 . S
C1141 H1129 0.950 . S
C1141 C1137 1.393 . S
C1141 C1140 1.391 . S
C1142 H1132 0.950 . S
C1142 C1143 1.386 1_556 S
C1142 C1144 1.391 . S
C1143 C1142 1.386 1_554 S
C1143 C1147 1.393 . S
C1144 H1133 0.950 . S
C1144 C1142 1.391 . S
C1144 C1145 1.400 . S
C1145 C1139 1.491 . S
C1145 C1144 1.400 . S
C1145 C1146 1.398 1_556 S
C1146 H1134 0.950 . S
C1146 C1145 1.398 1_554 S
C1146 C1147 1.391 . S
C1147 H1135 0.950 . S
C1147 C1143 1.393 . S
C1147 C1146 1.391 . S
H1148 C1156 0.950 . S
H1149 C1161 0.950 . S
H1150 C1158 0.950 . S
H1151 C1160 0.950 . S
H1152 C1162 0.950 . S
H1153 C1164 0.950 . S
H1154 C1166 0.950 . S
H1155 C1167 0.950 . S
C1156 H1148 0.950 . S
C1156 C1157 1.386 . S
C1156 C1158 1.391 . S
C1157 C1156 1.386 . S
C1157 C1161 1.393 . S
C1158 H1150 0.950 . S
C1158 C1156 1.391 . S
C1158 C1159 1.400 . S
C1159 C1158 1.400 . S
C1159 C1160 1.398 . S
C1159 C1165 1.491 . S
C1160 H1151 0.950 . S
C1160 C1159 1.398 . S
C1160 C1161 1.391 . S
C1161 H1149 0.950 . S
C1161 C1157 1.393 . S
C1161 C1160 1.391 . S
C1162 H1152 0.950 . S
C1162 C1163 1.386 . S
C1162 C1164 1.391 . S
C1163 C1162 1.386 . S
C1163 C1167 1.393 . S
C1164 H1153 0.950 . S
C1164 C1162 1.391 . S
C1164 C1165 1.400 . S
C1165 C1159 1.491 . S
C1165 C1164 1.400 . S
C1165 C1166 1.398 . S
C1166 H1154 0.950 . S
C1166 C1165 1.398 . S
C1166 C1167 1.391 . S
C1167 H1155 0.950 . S
C1167 C1163 1.393 . S
C1167 C1166 1.391 . S
H1168 C1176 0.950 . S
H1169 C1181 0.957 . S
H1170 C1178 0.950 . S
H1171 C1180 0.950 . S
H1172 C1182 0.950 . S
H1173 C1184 0.950 . S
H1174 C1186 0.950 . S
H1175 C1187 0.950 . S
C1176 H1168 0.950 . S
C1176 C1177 1.386 . S
C1176 C1178 1.391 . S
C1177 C1176 1.386 . S
C1177 C1181 1.384 1_554 S
C1178 H1170 0.950 . S
C1178 C1176 1.391 . S
C1178 C1179 1.400 . S
C1179 C1178 1.400 . S
C1179 C1180 1.398 1_554 S
C1179 C1185 1.491 . S
C1180 H1171 0.950 . S
C1180 C1179 1.398 1_556 S
C1180 C1181 1.393 . S
C1181 H1169 0.957 . S
C1181 C1177 1.384 1_556 S
C1181 C1180 1.393 . S
C1182 H1172 0.950 . S
C1182 C1183 1.386 1_556 S
C1182 C1184 1.391 . S
C1183 C1182 1.386 1_554 S
C1183 C1187 1.393 . S
C1184 H1173 0.950 . S
C1184 C1182 1.391 . S
C1184 C1185 1.400 1_556 S
C1185 C1179 1.491 . S
C1185 C1184 1.400 1_554 S
C1185 C1186 1.398 . S
C1186 H1174 0.950 . S
C1186 C1185 1.398 . S
C1186 C1187 1.391 . S
C1187 H1175 0.950 . S
C1187 C1183 1.393 . S
C1187 C1186 1.391 . S
H1188 C1196 0.950 . S
H1189 C1201 0.950 . S
H1190 C1198 0.950 . S
H1191 C1200 0.950 . S
H1192 C1202 0.950 . S
H1193 C1204 0.950 . S
H1194 C1206 0.950 . S
H1195 C1207 0.950 . S
C1196 H1188 0.950 . S
C1196 C1197 1.386 . S
C1196 C1198 1.391 . S
C1197 C1196 1.386 . S
C1197 C1201 1.393 . S
C1198 H1190 0.950 . S
C1198 C1196 1.391 . S
C1198 C1199 1.400 . S
C1199 C1198 1.400 . S
C1199 C1200 1.398 . S
C1199 C1205 1.491 . S
C1200 H1191 0.950 . S
C1200 C1199 1.398 . S
C1200 C1201 1.391 . S
C1201 H1189 0.950 . S
C1201 C1197 1.393 . S
C1201 C1200 1.391 . S
C1202 H1192 0.950 . S
C1202 C1203 1.386 . S
C1202 C1204 1.391 . S
C1203 C1202 1.386 . S
C1203 C1207 1.393 . S
C1204 H1193 0.950 . S
C1204 C1202 1.391 . S
C1204 C1205 1.400 . S
C1205 C1199 1.491 . S
C1205 C1204 1.400 . S
C1205 C1206 1.398 . S
C1206 H1194 0.950 . S
C1206 C1205 1.398 . S
C1206 C1207 1.391 . S
C1207 H1195 0.950 . S
C1207 C1203 1.393 . S
C1207 C1206 1.391 . S
H1208 C1216 0.950 . S
H1209 C1221 0.950 . S
H1210 C1218 0.950 . S
H1211 C1220 0.950 . S
H1212 C1222 0.950 . S
H1213 C1224 0.950 . S
H1214 C1226 0.950 . S
H1215 C1227 0.950 . S
C1216 H1208 0.950 . S
C1216 C1217 1.386 . S
C1216 C1218 1.391 . S
C1217 C1216 1.386 . S
C1217 C1221 1.393 . S
C1218 H1210 0.950 . S
C1218 C1216 1.391 . S
C1218 C1219 1.400 . S
C1219 C1218 1.400 . S
C1219 C1220 1.398 . S
C1219 C1225 1.491 1_455 S
C1220 H1211 0.950 . S
C1220 C1219 1.398 . S
C1220 C1221 1.391 . S
C1221 H1209 0.950 . S
C1221 C1217 1.393 . S
C1221 C1220 1.391 . S
C1222 H1212 0.950 . S
C1222 C1223 1.386 . S
C1222 C1224 1.391 . S
C1223 C1222 1.386 . S
C1223 C1227 1.393 . S
C1224 H1213 0.950 . S
C1224 C1222 1.391 . S
C1224 C1225 1.400 . S
C1225 C1219 1.491 1_655 S
C1225 C1224 1.400 . S
C1225 C1226 1.398 . S
C1226 H1214 0.950 . S
C1226 C1225 1.398 . S
C1226 C1227 1.391 . S
C1227 H1215 0.950 . S
C1227 C1223 1.393 . S
C1227 C1226 1.391 . S
H1228 C1236 0.950 . S
H1229 C1241 0.950 . S
H1230 C1238 0.950 . S
H1231 C1240 0.950 . S
H1232 C1242 0.950 . S
H1233 C1244 0.950 . S
H1234 C1246 0.950 . S
H1235 C1247 0.950 . S
C1236 H1228 0.950 . S
C1236 C1237 1.386 . S
C1236 C1238 1.391 . S
C1237 C1236 1.386 . S
C1237 C1241 1.393 . S
C1238 H1230 0.950 . S
C1238 C1236 1.391 . S
C1238 C1239 1.400 . S
C1239 C1238 1.400 . S
C1239 C1240 1.398 . S
C1239 C1245 1.491 . S
C1240 H1231 0.950 . S
C1240 C1239 1.398 . S
C1240 C1241 1.391 . S
C1241 H1229 0.950 . S
C1241 C1237 1.393 . S
C1241 C1240 1.391 . S
C1242 H1232 0.950 . S
C1242 C1243 1.386 . S
C1242 C1244 1.391 . S
C1243 C1242 1.386 . S
C1243 C1247 1.393 . S
C1244 H1233 0.950 . S
C1244 C1242 1.391 . S
C1244 C1245 1.400 . S
C1245 C1239 1.491 . S
C1245 C1244 1.400 . S
C1245 C1246 1.398 . S
C1246 H1234 0.950 . S
C1246 C1245 1.398 . S
C1246 C1247 1.391 . S
C1247 H1235 0.950 . S
C1247 C1243 1.393 . S
C1247 C1246 1.391 . S
H1248 C1256 0.950 . S
H1249 C1261 0.950 . S
H1250 C1258 0.950 . S
H1251 C1260 0.950 . S
H1252 C1262 0.950 . S
H1253 C1264 0.950 . S
H1254 C1266 0.950 . S
H1255 C1267 0.950 . S
C1256 H1248 0.950 . S
C1256 C1257 1.386 . S
C1256 C1258 1.391 . S
C1257 C1256 1.386 . S
C1257 C1261 1.393 . S
C1258 H1250 0.950 . S
C1258 C1256 1.391 . S
C1258 C1259 1.400 . S
C1259 C1258 1.400 . S
C1259 C1260 1.398 . S
C1259 C1265 1.491 . S
C1260 H1251 0.950 . S
C1260 C1259 1.398 . S
C1260 C1261 1.391 . S
C1261 H1249 0.950 . S
C1261 C1257 1.393 . S
C1261 C1260 1.391 . S
C1262 H1252 0.950 . S
C1262 C1263 1.386 . S
C1262 C1264 1.391 . S
C1263 C1262 1.386 . S
C1263 C1267 1.393 . S
C1264 H1253 0.950 . S
C1264 C1262 1.391 . S
C1264 C1265 1.400 . S
C1265 C1259 1.491 . S
C1265 C1264 1.400 . S
C1265 C1266 1.398 . S
C1266 H1254 0.950 . S
C1266 C1265 1.398 . S
C1266 C1267 1.391 . S
C1267 H1255 0.950 . S
C1267 C1263 1.393 . S
C1267 C1266 1.391 . S
H1268 C1276 0.950 . S
H1269 C1281 0.950 . S
H1270 C1278 0.950 . S
H1271 C1280 0.950 . S
H1272 C1282 0.950 . S
H1273 C1284 0.950 . S
H1274 C1286 0.950 . S
H1275 C1287 0.950 . S
C1276 H1268 0.950 . S
C1276 C1277 1.386 . S
C1276 C1278 1.391 . S
C1277 C1276 1.386 . S
C1277 C1281 1.393 . S
C1278 H1270 0.950 . S
C1278 C1276 1.391 . S
C1278 C1279 1.400 . S
C1279 C1278 1.400 . S
C1279 C1280 1.398 . S
C1279 C1285 1.491 . S
C1280 H1271 0.950 . S
C1280 C1279 1.398 . S
C1280 C1281 1.391 . S
C1281 H1269 0.950 . S
C1281 C1277 1.393 . S
C1281 C1280 1.391 . S
C1282 H1272 0.950 . S
C1282 C1283 1.386 . S
C1282 C1284 1.391 . S
C1283 C1282 1.386 . S
C1283 C1287 1.393 . S
C1284 H1273 0.950 . S
C1284 C1282 1.391 . S
C1284 C1285 1.400 . S
C1285 C1279 1.491 . S
C1285 C1284 1.400 . S
C1285 C1286 1.398 . S
C1286 H1274 0.950 . S
C1286 C1285 1.398 . S
C1286 C1287 1.391 . S
C1287 H1275 0.950 . S
C1287 C1283 1.393 . S
C1287 C1286 1.391 . S
H1288 C1296 0.950 . S
H1289 C1301 0.950 . S
H1290 C1298 0.950 . S
H1291 C1300 0.950 . S
H1292 C1302 0.950 . S
H1293 C1304 0.950 . S
H1294 C1306 0.950 . S
H1295 C1307 0.950 . S
C1296 H1288 0.950 . S
C1296 C1297 1.386 . S
C1296 C1298 1.391 . S
C1297 C1296 1.386 . S
C1297 C1301 1.393 . S
C1298 H1290 0.950 . S
C1298 C1296 1.391 . S
C1298 C1299 1.400 . S
C1299 C1298 1.400 . S
C1299 C1300 1.398 . S
C1299 C1305 1.491 1_655 S
C1300 H1291 0.950 . S
C1300 C1299 1.398 . S
C1300 C1301 1.391 . S
C1301 H1289 0.950 . S
C1301 C1297 1.393 . S
C1301 C1300 1.391 . S
C1302 H1292 0.950 . S
C1302 C1303 1.386 . S
C1302 C1304 1.391 . S
C1303 C1302 1.386 . S
C1303 C1307 1.393 . S
C1304 H1293 0.950 . S
C1304 C1302 1.391 . S
C1304 C1305 1.400 . S
C1305 C1299 1.491 1_455 S
C1305 C1304 1.400 . S
C1305 C1306 1.398 . S
C1306 H1294 0.950 . S
C1306 C1305 1.398 . S
C1306 C1307 1.391 . S
C1307 H1295 0.950 . S
C1307 C1303 1.393 . S
C1307 C1306 1.391 . S
H1308 C1316 0.950 . S
H1309 C1321 0.950 . S
H1310 C1318 0.950 . S
H1311 C1320 0.950 . S
H1312 C1322 0.950 . S
H1313 C1324 0.950 . S
H1314 C1326 0.950 1_556 S
H1315 C1327 0.950 . S
C1316 H1308 0.950 . S
C1316 C1317 1.386 . S
C1316 C1318 1.391 . S
C1317 C1316 1.386 . S
C1317 C1321 1.393 . S
C1318 H1310 0.950 . S
C1318 C1316 1.391 . S
C1318 C1319 1.400 . S
C1319 C1318 1.400 . S
C1319 C1320 1.398 . S
C1319 C1325 1.491 . S
C1320 H1311 0.950 . S
C1320 C1319 1.398 . S
C1320 C1321 1.391 . S
C1321 H1309 0.950 . S
C1321 C1317 1.393 . S
C1321 C1320 1.391 . S
C1322 H1312 0.950 . S
C1322 C1323 1.386 . S
C1322 C1324 1.391 . S
C1323 C1322 1.386 . S
C1323 C1327 1.393 1_554 S
C1324 H1313 0.950 . S
C1324 C1322 1.391 . S
C1324 C1325 1.400 . S
C1325 C1319 1.491 . S
C1325 C1324 1.400 . S
C1325 C1326 1.398 . S
C1326 H1314 0.950 1_554 S
C1326 C1325 1.398 . S
C1326 C1327 1.391 1_554 S
C1327 H1315 0.950 . S
C1327 C1323 1.393 1_556 S
C1327 C1326 1.391 1_556 S
C537 N13 1.273 . S
C543 N2 1.272 . S
C557 N46 1.283 . S
C563 N35 1.281 . S
C577 N68 1.304 . S
C583 N79 1.306 . S
C597 N101 1.266 . S
C603 N112 1.268 1_554 S
C617 N134 1.270 . S
C623 N145 1.272 . S
C637 N167 1.279 . S
C643 N178 1.281 1_554 S
C657 N211 1.292 . S
C663 N200 1.290 . S
C677 N233 1.250 . S
C683 N244 1.253 . S
C697 N277 1.255 . S
C703 N266 1.252 . S
C717 N310 1.297 . S
C723 N299 1.296 . S
C737 N332 1.291 . S
C743 N343 1.293 . S
C757 N376 1.270 . S
C763 N365 1.267 1_556 S
C777 N409 1.270 . S
C783 N398 1.269 . S
C797 N431 1.282 1_556 S
C803 N442 1.284 . S
C817 N475 1.282 . S
C823 N464 1.280 . S
C837 N497 1.272 . S
C843 N508 1.274 . S
C857 C7 1.486 . S
C863 C54 1.499 . S
C877 C73 1.883 . S
C883 C40 1.880 . S
C897 C106 1.492 . S
C903 C87 1.504 . S
C917 C21 1.152 . S
C923 C120 1.139 . S
C937 C186 1.513 . S
C943 C139 1.485 1_565 S
C957 C172 1.882 . S
C963 C205 1.881 1_565 S
C977 C219 1.501 . S
C983 C238 1.471 . S
C997 C252 1.137 . S
C1003 C153 1.148 . S
C1017 C318 1.500 . S
C1023 C271 1.472 . S
C1037 C304 1.880 . S
C1043 C337 1.892 . S
C1057 C351 1.499 . S
C1063 C370 1.485 . S
C1077 C384 1.158 . S
C1083 C285 1.156 . S
C1097 C403 1.493 . S
C1103 C450 1.505 . S
C1117 C436 1.895 . S
C1123 C469 1.888 . S
C1137 C502 1.470 . S
C1143 C483 1.503 . S
C1157 C417 1.155 . S
C1163 C516 1.158 . S
C1177 C18 0.950 . S
C1183 C150 0.950 . S
C1197 C447 1.361 . S
C1203 C51 1.361 . S
C1217 C84 1.358 . S
C1223 C216 1.358 . S
C1237 C513 0.953 . S
C1243 C117 0.953 . S
C1257 C315 1.358 . S
C1263 C183 1.358 . S
C1277 C249 0.955 . S
C1283 C381 0.955 . S
C1297 C282 0.953 . S
C1303 C414 0.953 . S
C1317 C480 1.360 . S
C1323 C348 1.360 . S
