# Generated by pormake.
# Topology wji, (4)-cn, num edge types: 1
# Building blocks:
#     Node 0, Type 0, BuildingBlock: CEKHIL_clean_sbu_0, # of connection points: 4
#     Node 1, Type 0, BuildingBlock: CEKHIL_clean_sbu_0, # of connection points: 4
#     Node 2, Type 0, BuildingBlock: CEKHIL_clean_sbu_0, # of connection points: 4
#     Node 3, Type 0, BuildingBlock: CEKHIL_clean_sbu_0, # of connection points: 4
#     Node 4, Type 0, BuildingBlock: CEKHIL_clean_sbu_0, # of connection points: 4
#     Node 5, Type 0, BuildingBlock: CEKHIL_clean_sbu_0, # of connection points: 4
#     Node 6, Type 0, BuildingBlock: CEKHIL_clean_sbu_0, # of connection points: 4
#     Node 7, Type 0, BuildingBlock: CEKHIL_clean_sbu_0, # of connection points: 4
#     Node 8, Type 0, BuildingBlock: CEKHIL_clean_sbu_0, # of connection points: 4
#     Node 9, Type 0, BuildingBlock: CEKHIL_clean_sbu_0, # of connection points: 4
#     Node 10, Type 0, BuildingBlock: CEKHIL_clean_sbu_0, # of connection points: 4
#     Node 11, Type 0, BuildingBlock: CEKHIL_clean_sbu_0, # of connection points: 4
#     Edge 12, Type (0, 0), BuildingBlock: TEMPAE_clean_linker_10, # of connection points: 2
#     Edge 13, Type (0, 0), BuildingBlock: TEMPAE_clean_linker_10, # of connection points: 2
#     Edge 14, Type (0, 0), BuildingBlock: TEMPAE_clean_linker_10, # of connection points: 2
#     Edge 15, Type (0, 0), BuildingBlock: TEMPAE_clean_linker_10, # of connection points: 2
#     Edge 16, Type (0, 0), BuildingBlock: TEMPAE_clean_linker_10, # of connection points: 2
#     Edge 17, Type (0, 0), BuildingBlock: TEMPAE_clean_linker_10, # of connection points: 2
#     Edge 18, Type (0, 0), BuildingBlock: TEMPAE_clean_linker_10, # of connection points: 2
#     Edge 19, Type (0, 0), BuildingBlock: TEMPAE_clean_linker_10, # of connection points: 2
#     Edge 20, Type (0, 0), BuildingBlock: TEMPAE_clean_linker_10, # of connection points: 2
#     Edge 21, Type (0, 0), BuildingBlock: TEMPAE_clean_linker_10, # of connection points: 2
#     Edge 22, Type (0, 0), BuildingBlock: TEMPAE_clean_linker_10, # of connection points: 2
#     Edge 23, Type (0, 0), BuildingBlock: TEMPAE_clean_linker_10, # of connection points: 2
#     Edge 24, Type (0, 0), BuildingBlock: TEMPAE_clean_linker_10, # of connection points: 2
#     Edge 25, Type (0, 0), BuildingBlock: TEMPAE_clean_linker_10, # of connection points: 2
#     Edge 26, Type (0, 0), BuildingBlock: TEMPAE_clean_linker_10, # of connection points: 2
#     Edge 27, Type (0, 0), BuildingBlock: TEMPAE_clean_linker_10, # of connection points: 2
#     Edge 28, Type (0, 0), BuildingBlock: TEMPAE_clean_linker_10, # of connection points: 2
#     Edge 29, Type (0, 0), BuildingBlock: TEMPAE_clean_linker_10, # of connection points: 2
#     Edge 30, Type (0, 0), BuildingBlock: TEMPAE_clean_linker_10, # of connection points: 2
#     Edge 31, Type (0, 0), BuildingBlock: TEMPAE_clean_linker_10, # of connection points: 2
#     Edge 32, Type (0, 0), BuildingBlock: TEMPAE_clean_linker_10, # of connection points: 2
#     Edge 33, Type (0, 0), BuildingBlock: TEMPAE_clean_linker_10, # of connection points: 2
#     Edge 34, Type (0, 0), BuildingBlock: TEMPAE_clean_linker_10, # of connection points: 2
#     Edge 35, Type (0, 0), BuildingBlock: TEMPAE_clean_linker_10, # of connection points: 2
# Relax obj value: 0.218
# Max RMSD: 0.136
# Mean RMSD: 0.136
data_MOF--net-wji--node1-CEKHIL_clean_sbu_0--edge1-TEMPAE_clean_linker_10
_symmetry_space_group_name_H-M    P1
_symmetry_Int_Tables_number       1
_symmetry_cell_setting            triclinic
loop_
_symmetry_equiv_pos_as_xyz
'x, y, z'
_cell_length_a     57.337006
_cell_length_b     57.304138
_cell_length_c     23.116026
_cell_angle_alpha  90.035557
_cell_angle_beta   90.053796
_cell_angle_gamma 120.06098
loop_
_atom_site_label
_atom_site_type_symbol
_atom_site_fract_x
_atom_site_fract_y
_atom_site_fract_z
_atom_type_partial_charge
Co0 Co 0.4296 0.33201 0.44603 0.0
O1 O 0.44065 0.31685 0.50697 0.0
O2 O 0.41031 0.29268 0.44073 0.0
C3 C 0.47211 0.36464 0.42375 0.0
O4 O 0.41357 0.34162 0.37608 0.0
Co5 Co 0.44367 0.39234 0.45794 0.0
O6 O 0.42571 0.38569 0.38217 0.0
C7 C 0.40043 0.34929 0.52842 0.0
C8 C 0.42381 0.29323 0.48665 0.0
C9 C 0.41342 0.36281 0.35714 0.0
O10 O 0.40072 0.33066 0.49788 0.0
O11 O 0.41768 0.37437 0.5225 0.0
O12 O 0.46248 0.34061 0.40196 0.0
O13 O 0.45663 0.3673 0.4599 0.0
Co14 Co 0.09961 0.42153 0.60808 0.0
O15 O 0.12259 0.42851 0.67398 0.0
O16 O 0.12295 0.4061 0.59656 0.0
C17 C 0.10728 0.46437 0.60482 0.0
O18 O 0.07837 0.41134 0.53096 0.0
Co19 Co 0.04962 0.42892 0.6183 0.0
O20 O 0.05108 0.42904 0.53324 0.0
C21 C 0.0468 0.37837 0.65905 0.0
C22 C 0.13283 0.41587 0.64751 0.0
C23 C 0.06174 0.41735 0.50638 0.0
O24 O 0.0713 0.38682 0.64404 0.0
O25 O 0.03518 0.39241 0.6541 0.0
O26 O 0.12383 0.45823 0.58004 0.0
O27 O 0.0877 0.445 0.63272 0.0
Co28 Co 0.67929 0.1018 0.76998 0.0
O29 O 0.69305 0.12578 0.83547 0.0
O30 O 0.71826 0.12581 0.7635 0.0
C31 C 0.64339 0.10789 0.75753 0.0
O32 O 0.67145 0.07968 0.69446 0.0
Co33 Co 0.62183 0.05088 0.77291 0.0
O34 O 0.62677 0.05053 0.68864 0.0
C35 C 0.66817 0.05049 0.83049 0.0
C36 C 0.71681 0.13605 0.81283 0.0
C37 C 0.65026 0.06201 0.66676 0.0
O38 O 0.68493 0.07443 0.81281 0.0
O39 O 0.64273 0.03868 0.82121 0.0
O40 O 0.6666 0.12482 0.73498 0.0
O41 O 0.64308 0.08895 0.78797 0.0
Co42 Co 0.57892 0.67886 0.93387 0.0
O43 O 0.56573 0.6944 0.98932 0.0
O44 O 0.59381 0.71738 0.91881 0.0
C45 C 0.53828 0.64129 0.9183 0.0
O46 O 0.59598 0.66797 0.8681 0.0
Co47 Co 0.57394 0.62359 0.96717 0.0
O48 O 0.58986 0.62678 0.88967 0.0
C49 C 0.61215 0.67355 0.02721 0.0
C50 C 0.5804 0.71743 0.96437 0.0
C51 C 0.59858 0.64725 0.85651 0.0
O52 O 0.61034 0.68777 0.98652 0.0
O53 O 0.59695 0.64796 0.03093 0.0
O54 O 0.54467 0.66339 0.8903 0.0
O55 O 0.55548 0.64355 0.95674 0.0
Co56 Co 0.9076 0.5849 0.10741 0.0
O57 O 0.88761 0.57987 0.17734 0.0
O58 O 0.88655 0.60316 0.10245 0.0
C59 C 0.89581 0.54089 0.10251 0.0
O60 O 0.92615 0.59415 0.0276 0.0
Co61 Co 0.95377 0.57164 0.1029 0.0
O62 O 0.94955 0.57249 0.01839 0.0
C63 C 0.96315 0.62351 0.15376 0.0
C64 C 0.87828 0.59415 0.1546 0.0
C65 C 0.9401 0.58654 0.99731 0.0
O66 O 0.9391 0.61809 0.14117 0.0
O67 O 0.9719 0.60719 0.14433 0.0
O68 O 0.88016 0.54889 0.08043 0.0
O69 O 0.91734 0.55923 0.12741 0.0
Co70 Co 0.32863 0.90149 0.26847 0.0
O71 O 0.31476 0.878 0.33463 0.0
O72 O 0.28929 0.88224 0.26866 0.0
C73 C 0.35942 0.88925 0.24591 0.0
O74 O 0.33624 0.92396 0.19388 0.0
Co75 Co 0.3894 0.94678 0.26356 0.0
O76 O 0.38119 0.95033 0.18225 0.0
C77 C 0.35041 0.95246 0.33873 0.0
C78 C 0.29074 0.87091 0.31634 0.0
C79 C 0.35711 0.94084 0.1644 0.0
O80 O 0.33017 0.93181 0.31554 0.0
O81 O 0.37497 0.9598 0.32686 0.0
O82 O 0.33465 0.87452 0.22842 0.0
O83 O 0.36413 0.90941 0.27815 0.0
Co84 Co 0.68008 0.57895 0.3968 0.0
O85 O 0.69785 0.57054 0.33707 0.0
O86 O 0.71918 0.59879 0.40874 0.0
C87 C 0.64797 0.53526 0.40871 0.0
O88 O 0.66706 0.59157 0.46723 0.0
Co89 Co 0.62032 0.56401 0.37732 0.0
O90 O 0.62202 0.5735 0.46002 0.0
C91 C 0.66491 0.60828 0.31215 0.0
C92 C 0.7205 0.58687 0.36177 0.0
C93 C 0.64408 0.58685 0.48777 0.0
O94 O 0.68247 0.60911 0.3479 0.0
O95 O 0.63995 0.5901 0.31326 0.0
O96 O 0.67069 0.54482 0.43645 0.0
O97 O 0.64604 0.55186 0.37452 0.0
Co98 Co 0.10274 0.67504 0.56173 0.0
O99 O 0.12856 0.69037 0.49989 0.0
O100 O 0.12381 0.71428 0.56889 0.0
C101 C 0.11187 0.64141 0.57845 0.0
O102 O 0.07822 0.66576 0.63332 0.0
Co103 Co 0.05527 0.61539 0.55515 0.0
O104 O 0.04965 0.62084 0.63705 0.0
C105 C 0.05358 0.65902 0.48817 0.0
C106 C 0.13624 0.71388 0.52205 0.0
C107 C 0.05977 0.64434 0.65876 0.0
O108 O 0.07503 0.67764 0.5128 0.0
O109 O 0.04441 0.6338 0.49656 0.0
O110 O 0.12664 0.66485 0.60269 0.0
O111 O 0.0932 0.63959 0.54487 0.0
Co112 Co 0.42534 0.10084 0.72684 0.0
O113 O 0.43424 0.12457 0.66149 0.0
O114 O 0.41008 0.12441 0.73588 0.0
C115 C 0.46774 0.10767 0.73532 0.0
O116 O 0.41247 0.07899 0.80264 0.0
Co117 Co 0.4323 0.05046 0.72231 0.0
O118 O 0.42981 0.05144 0.80727 0.0
C119 C 0.38406 0.0489 0.66974 0.0
C120 C 0.42091 0.1346 0.68591 0.0
C121 C 0.4174 0.06229 0.83017 0.0
O122 O 0.39171 0.07311 0.68621 0.0
O123 O 0.39784 0.03719 0.67808 0.0
O124 O 0.46144 0.12425 0.75959 0.0
O125 O 0.44879 0.08841 0.70588 0.0
Co126 Co 0.32717 0.42147 0.89424 0.0
O127 O 0.31178 0.4281 0.82687 0.0
O128 O 0.28864 0.40781 0.90535 0.0
C129 C 0.36381 0.46352 0.89584 0.0
O130 O 0.33747 0.41167 0.97248 0.0
Co131 Co 0.38333 0.42578 0.88544 0.0
O132 O 0.38219 0.42739 0.9704 0.0
C133 C 0.3341 0.37602 0.84659 0.0
C134 C 0.28876 0.41639 0.85301 0.0
C135 C 0.35986 0.41703 0.99735 0.0
O136 O 0.31901 0.38569 0.86105 0.0
O137 O 0.35984 0.38915 0.85108 0.0
O138 O 0.3414 0.45885 0.91992 0.0
O139 O 0.36283 0.44328 0.86918 0.0
Co140 Co 0.90412 0.33375 0.06013 0.0
O141 O 0.87723 0.31894 6e-05 0.0
O142 O 0.88345 0.29439 0.06498 0.0
C143 C 0.89552 0.36716 0.08427 0.0
O144 O 0.93028 0.34279 0.12917 0.0
Co145 Co 0.9513 0.39365 0.04831 0.0
O146 O 0.96288 0.38663 0.12333 0.0
C147 C 0.94928 0.35039 0.97475 0.0
C148 C 0.8703 0.29518 0.01966 0.0
C149 C 0.952 0.3637 0.14804 0.0
O150 O 0.93084 0.33188 0.00637 0.0
O151 O 0.9575 0.37552 0.98138 0.0
O152 O 0.8808 0.34317 0.10599 0.0
O153 O 0.9131 0.36928 0.04719 0.0
Co154 Co 0.57389 0.9018 0.22777 0.0
O155 O 0.56502 0.87927 0.1603 0.0
O156 O 0.5948 0.88328 0.22572 0.0
C157 C 0.53024 0.88755 0.24849 0.0
O158 O 0.58795 0.92366 0.30354 0.0
Co159 Co 0.55678 0.94531 0.23542 0.0
O160 O 0.56652 0.9471 0.31786 0.0
C161 C 0.6032 0.95423 0.16241 0.0
C162 C 0.58222 0.87242 0.17742 0.0
C163 C 0.58236 0.93897 0.33477 0.0
O164 O 0.60249 0.93299 0.18268 0.0
O165 O 0.5857 0.96109 0.17506 0.0
O166 O 0.54127 0.87387 0.26666 0.0
O167 O 0.5453 0.90832 0.21735 0.0
C168 C 0.38373 0.42203 0.09012 0.0
C169 C 0.36029 0.40758 0.05682 0.0
C170 C 0.3882 0.41086 0.13988 0.0
C171 C 0.36876 0.38442 0.15713 0.0
C172 C 0.34434 0.37021 0.12551 0.0
C173 C 0.34035 0.382 0.07563 0.0
C174 C 0.41434 0.42703 0.17267 0.0
C175 C 0.32304 0.3421 0.14267 0.0
C176 C 0.40072 0.35365 0.25197 0.0
C177 C 0.3967 0.36127 0.30692 0.0
C178 C 0.38976 0.35905 0.20247 0.0
C179 C 0.37446 0.37221 0.20851 0.0
C180 C 0.36846 0.37764 0.26452 0.0
C181 C 0.37976 0.37224 0.31286 0.0
C182 C 0.39643 0.3527 0.14353 0.0
C183 C 0.35214 0.39141 0.27333 0.0
H184 H 0.39923 0.4418 0.07568 0.0
H185 H 0.32242 0.37054 0.04948 0.0
H186 H 0.41016 0.42907 0.21868 0.0
H187 H 0.42602 0.41638 0.17168 0.0
H188 H 0.42705 0.44754 0.15435 0.0
H189 H 0.30408 0.33495 0.11771 0.0
H190 H 0.33066 0.32799 0.13497 0.0
H191 H 0.31846 0.34128 0.18949 0.0
H192 H 0.41395 0.34535 0.24729 0.0
H193 H 0.37657 0.37804 0.35551 0.0
H194 H 0.41152 0.3717 0.12233 0.0
H195 H 0.37823 0.34331 0.11561 0.0
H196 H 0.40484 0.33898 0.14614 0.0
H197 H 0.36447 0.41297 0.26113 0.0
H198 H 0.34571 0.39032 0.31905 0.0
H199 H 0.33399 0.38227 0.24529 0.0
C200 C 0.042 0.42206 0.41445 0.0
C201 C 0.05095 0.4075 0.44742 0.0
C202 C 0.02595 0.41089 0.36511 0.0
C203 C 0.0185 0.38434 0.34776 0.0
C204 C 0.02856 0.36994 0.37909 0.0
C205 C 0.04472 0.38172 0.42864 0.0
C206 C 0.01615 0.42727 0.33273 0.0
C207 C 0.02127 0.3417 0.36182 0.0
C208 C 0.95555 0.35426 0.25306 0.0
C209 C 0.96711 0.36179 0.19805 0.0
C210 C 0.97195 0.35943 0.30249 0.0
C211 C 1.00041 0.37229 0.29637 0.0
C212 C 0.01174 0.37763 0.24028 0.0
C213 C 0.99499 0.37246 0.19201 0.0
C214 C 0.95901 0.3532 0.36147 0.0
C215 C 0.04181 0.39109 0.2313 0.0
H216 H 0.04672 0.44199 0.42874 0.0
H217 H 0.05115 0.37016 0.45444 0.0
H218 H 0.02229 0.42931 0.28668 0.0
H219 H 0.99381 0.41678 0.3338 0.0
H220 H 0.02415 0.44778 0.35128 0.0
H221 H 0.03277 0.33425 0.38687 0.0
H222 H 0.99944 0.32787 0.36924 0.0
H223 H 0.02507 0.34084 0.31504 0.0
H224 H 0.93405 0.34622 0.25789 0.0
H225 H 0.00397 0.37823 0.14935 0.0
H226 H 0.96312 0.37225 0.38277 0.0
H227 H 0.96771 0.34369 0.38928 0.0
H228 H 0.93684 0.33961 0.35891 0.0
H229 H 0.05132 0.41267 0.24363 0.0
H230 H 0.04702 0.38991 0.18551 0.0
H231 H 0.05067 0.38176 0.25915 0.0
C232 C 0.62577 0.96976 0.38425 0.0
C233 C 0.5979 0.95199 0.38789 0.0
C234 C 0.63966 0.98889 0.42818 0.0
C235 C 0.6254 0.98989 0.47733 0.0
C236 C 0.59766 0.97046 0.48308 0.0
C237 C 0.58419 0.9521 0.4379 0.0
C238 C 0.66905 0.00939 0.41965 0.0
C239 C 0.58173 0.97014 0.53535 0.0
C240 C 0.65819 0.02865 0.61588 0.0
C241 C 0.65268 0.04985 0.61243 0.0
C242 C 0.65104 0.0098 0.57059 0.0
C243 C 0.63842 0.01248 0.52031 0.0
C244 C 0.63508 0.0353 0.51471 0.0
C245 C 0.64178 0.05342 0.56128 0.0
C246 C 0.65463 0.98569 0.57912 0.0
C247 C 0.6224 0.03945 0.46136 0.0
H248 H 0.63627 0.97021 0.34491 0.0
H249 H 0.56257 0.93868 0.44036 0.0
H250 H 0.67106 0.02921 0.40912 0.0
H251 H 0.68068 0.01201 0.45987 0.0
H252 H 0.67813 0.00363 0.38394 0.0
H253 H 0.56137 0.95188 0.53655 0.0
H254 H 0.59261 0.97096 0.57572 0.0
H255 H 0.57932 0.98818 0.53473 0.0
H256 H 0.66586 0.02538 0.65615 0.0
H257 H 0.6369 0.0694 0.55911 0.0
H258 H 0.66256 0.98132 0.53933 0.0
H259 H 0.63476 0.9677 0.58849 0.0
H260 H 0.66847 0.98867 0.61566 0.0
H261 H 0.63133 0.03625 0.4217 0.0
H262 H 0.62495 0.05998 0.45989 0.0
H263 H 0.60052 0.0245 0.46084 0.0
C264 C 0.6181 0.58533 0.57559 0.0
C265 C 0.64238 0.59827 0.54451 0.0
C266 C 0.61422 0.59682 0.62563 0.0
C267 C 0.63504 0.62216 0.64546 0.0
C268 C 0.65985 0.63521 0.615 0.0
C269 C 0.66331 0.62304 0.56501 0.0
C270 C 0.58762 0.58179 0.65715 0.0
C271 C 0.68251 0.66225 0.63459 0.0
C272 C 0.60882 0.65557 0.74966 0.0
C273 C 0.61241 0.64615 0.80298 0.0
C274 C 0.61779 0.64952 0.69783 0.0
C275 C 0.63078 0.63394 0.69962 0.0
C276 C 0.63623 0.6263 0.75389 0.0
C277 C 0.62693 0.63239 0.80461 0.0
C278 C 0.6117 0.65822 0.64093 0.0
C279 C 0.65012 0.60987 0.75835 0.0
H280 H 0.60185 0.56612 0.56034 0.0
H281 H 0.68199 0.63334 0.54091 0.0
H282 H 0.59103 0.5776 0.70227 0.0
H283 H 0.57795 0.59437 0.65928 0.0
H284 H 0.57343 0.56235 0.63593 0.0
H285 H 0.70072 0.66954 0.60706 0.0
H286 H 0.67579 0.67734 0.63342 0.0
H287 H 0.68806 0.66102 0.68001 0.0
H288 H 0.59761 0.66617 0.74803 0.0
H289 H 0.63014 0.62537 0.84579 0.0
H290 H 0.59535 0.64039 0.61845 0.0
H291 H 0.62965 0.66686 0.61239 0.0
H292 H 0.60518 0.67334 0.64686 0.0
H293 H 0.63632 0.58908 0.74264 0.0
H294 H 0.65606 0.60866 0.80353 0.0
H295 H 0.66837 0.61858 0.73075 0.0
C296 C 0.0511 0.63951 0.76478 0.0
C297 C 0.04592 0.64656 0.71035 0.0
C298 C 0.03299 0.63373 0.8109 0.0
C299 C 0.00874 0.63421 0.80167 0.0
C300 C 0.00425 0.6428 0.74746 0.0
C301 C 0.02297 0.64896 0.70252 0.0
C302 C 0.03892 0.62526 0.86831 0.0
C303 C 0.97862 0.64325 0.73524 0.0
C304 C 0.95176 0.58283 0.89552 0.0
C305 C 0.95117 0.59892 0.94047 0.0
C306 C 0.96907 0.59433 0.84799 0.0
C307 C 0.98691 0.62259 0.84625 0.0
C308 C 0.98523 0.63909 0.88987 0.0
C309 C 0.96714 0.62704 0.93622 0.0
C310 C 0.96951 0.57599 0.80162 0.0
C311 C 0.00405 0.66919 0.89028 0.0
H312 H 0.06853 0.63706 0.77039 0.0
H313 H 0.01865 0.65374 0.65985 0.0
H314 H 0.03534 0.6359 0.90431 0.0
H315 H 0.02516 0.60332 0.87459 0.0
H316 H 0.06002 0.62943 0.87098 0.0
H317 H 0.97993 0.65408 0.69444 0.0
H318 H 0.96162 0.62224 0.73139 0.0
H319 H 0.97384 0.65294 0.77128 0.0
H320 H 0.9397 0.56107 0.89917 0.0
H321 H 0.96723 0.63949 0.97168 0.0
H322 H 0.98848 0.57533 0.80489 0.0
H323 H 0.96897 0.58382 0.75805 0.0
H324 H 0.95226 0.55508 0.80549 0.0
H325 H 0.02464 0.67354 0.90188 0.0
H326 H 0.99772 0.67951 0.922 0.0
H327 H 0.00523 0.67786 0.84677 0.0
C328 C 0.41942 0.04982 0.93214 0.0
C329 C 0.40405 0.05052 0.8858 0.0
C330 C 0.40721 0.03209 0.97879 0.0
C331 C 0.37902 0.01387 0.97806 0.0
C332 C 0.36323 0.01555 0.93278 0.0
C333 C 0.37594 0.03408 0.88741 0.0
C334 C 0.42481 0.03165 0.02691 0.0
C335 C 0.33326 0.99628 0.92958 0.0
C336 C 0.36237 0.94956 0.05861 0.0
C337 C 0.35409 0.95399 0.11241 0.0
C338 C 0.36829 0.96781 0.01273 0.0
C339 C 0.36687 0.99158 0.02164 0.0
C340 C 0.35695 0.99525 0.07495 0.0
C341 C 0.3505 0.97628 0.11958 0.0
C342 C 0.37806 0.96266 0.95616 0.0
C343 C 0.35552 0.02039 0.0869 0.0
H344 H 0.44119 0.06219 0.93037 0.0
H345 H 0.36411 0.03406 0.85074 0.0
H346 H 0.41598 0.03156 0.06967 0.0
H347 H 0.42602 0.01296 0.02383 0.0
H348 H 0.44559 0.04923 0.02497 0.0
H349 H 0.32336 0.00263 0.89684 0.0
H350 H 0.32956 0.97593 0.91768 0.0
H351 H 0.32365 0.9945 0.9722 0.0
H352 H 0.36575 0.93267 0.05351 0.0
H353 H 0.34486 0.98012 0.16179 0.0
H354 H 0.40005 0.97672 0.95192 0.0
H355 H 0.36801 0.96638 0.91918 0.0
H356 H 0.37429 0.94169 0.95318 0.0
H357 H 0.37624 0.03766 0.09302 0.0
H358 H 0.34365 0.01836 0.12643 0.0
H359 H 0.34647 0.02529 0.04978 0.0
C360 C 0.61267 0.49536 0.35736 0.0
C361 C 0.62666 0.50669 0.40898 0.0
C362 C 0.58989 0.46958 0.35628 0.0
C363 C 0.58049 0.45497 0.40846 0.0
C364 C 0.59557 0.46558 0.46018 0.0
C365 C 0.61877 0.49138 0.45973 0.0
C366 C 0.57474 0.45897 0.30005 0.0
C367 C 0.58611 0.4506 0.5167 0.0
C368 C 0.50466 0.41362 0.42215 0.0
C369 C 0.49954 0.3873 0.41312 0.0
C370 C 0.53089 0.43564 0.42072 0.0
C371 C 0.55274 0.43128 0.4104 0.0
C372 C 0.54773 0.40478 0.39987 0.0
C373 C 0.52105 0.383 0.40105 0.0
C374 C 0.53519 0.4636 0.43087 0.0
C375 C 0.57056 0.39942 0.38879 0.0
H376 H 0.61911 0.50706 0.31778 0.0
H377 H 0.62969 0.50017 0.49956 0.0
H378 H 0.56879 0.43751 0.29372 0.0
H379 H 0.556 0.46013 0.30128 0.0
H380 H 0.58685 0.47072 0.2622 0.0
H381 H 0.60189 0.45948 0.55076 0.0
H382 H 0.56813 0.45132 0.53195 0.0
H383 H 0.58003 0.42907 0.51087 0.0
H384 H 0.48808 0.41704 0.43118 0.0
H385 H 0.51713 0.36259 0.39483 0.0
H386 H 0.54523 0.47656 0.39281 0.0
H387 H 0.5486 0.473 0.46874 0.0
H388 H 0.51599 0.46344 0.43872 0.0
H389 H 0.58312 0.41196 0.35229 0.0
H390 H 0.56323 0.37788 0.37873 0.0
H391 H 0.58378 0.40518 0.42747 0.0
C392 C 0.09166 0.49674 0.62922 0.0
C393 C 0.11117 0.49194 0.60436 0.0
C394 C 0.09481 0.52264 0.62957 0.0
C395 C 0.11811 0.54439 0.60462 0.0
C396 C 0.13831 0.53986 0.58103 0.0
C397 C 0.13454 0.51363 0.58095 0.0
C398 C 0.07266 0.52651 0.65469 0.0
C399 C 0.16346 0.56253 0.5542 0.0
C400 C 0.10587 0.59819 0.54182 0.0
C401 C 0.11604 0.61809 0.585 0.0
C402 C 0.10754 0.57477 0.54678 0.0
C403 C 0.11943 0.57082 0.59663 0.0
C404 C 0.13058 0.5912 0.63977 0.0
C405 C 0.12891 0.61481 0.63325 0.0
C406 C 0.09568 0.5538 0.49936 0.0
C407 C 0.14335 0.58762 0.69358 0.0
H408 H 0.07362 0.48012 0.64777 0.0
H409 H 0.14985 0.51011 0.5623 0.0
H410 H 0.08115 0.54345 0.68606 0.0
H411 H 0.06288 0.53177 0.61962 0.0
H412 H 0.05697 0.50811 0.67683 0.0
H413 H 0.17853 0.55638 0.54368 0.0
H414 H 0.15813 0.56922 0.51379 0.0
H415 H 0.17287 0.58013 0.58384 0.0
H416 H 0.09627 0.6008 0.5039 0.0
H417 H 0.13683 0.63019 0.66661 0.0
H418 H 0.07829 0.53508 0.5165 0.0
H419 H 0.1108 0.54855 0.48396 0.0
H420 H 0.08869 0.56074 0.46177 0.0
H421 H 0.12767 0.57117 0.7203 0.0
H422 H 0.15337 0.60628 0.72018 0.0
H423 H 0.1584 0.58164 0.68198 0.0
C424 C 0.50214 0.09749 0.69666 0.0
C425 C 0.49503 0.11095 0.73755 0.0
C426 C 0.52758 0.09965 0.69747 0.0
C427 C 0.54634 0.11527 0.74095 0.0
C428 C 0.53953 0.12937 0.7818 0.0
C429 C 0.51397 0.12723 0.7793 0.0
C430 C 0.53406 0.08452 0.65269 0.0
C431 C 0.55887 0.14592 0.82928 0.0
C432 C 0.59534 0.09172 0.78114 0.0
C433 C 0.6189 0.11027 0.75209 0.0
C434 C 0.57194 0.09363 0.77898 0.0
C435 C 0.57188 0.11454 0.7466 0.0
C436 C 0.59561 0.13346 0.71723 0.0
C437 C 0.61892 0.13114 0.72043 0.0
C438 C 0.54712 0.073 0.81092 0.0
C439 C 0.59623 0.1559 0.68191 0.0
H440 H 0.48772 0.08515 0.66372 0.0
H441 H 0.50858 0.13772 0.81086 0.0
H442 H 0.55356 0.09827 0.63145 0.0
H443 H 0.53616 0.06832 0.67398 0.0
H444 H 0.51822 0.07523 0.61884 0.0
H445 H 0.55141 0.15725 0.85492 0.0
H446 H 0.56195 0.13247 0.85891 0.0
H447 H 0.57881 0.16043 0.81076 0.0
H448 H 0.59513 0.07558 0.806 0.0
H449 H 0.63709 0.14561 0.69815 0.0
H450 H 0.53067 0.06115 0.77963 0.0
H451 H 0.53989 0.08324 0.84061 0.0
H452 H 0.5509 0.05881 0.83649 0.0
H453 H 0.58151 0.14725 0.64588 0.0
H454 H 0.6165 0.16957 0.66351 0.0
H455 H 0.59017 0.16795 0.70903 0.0
C456 C 0.49296 0.61335 0.87092 0.0
C457 C 0.51251 0.61564 0.91059 0.0
C458 C 0.46804 0.58921 0.86614 0.0
C459 C 0.46261 0.567 0.90207 0.0
C460 C 0.48239 0.56925 0.94188 0.0
C461 C 0.50705 0.59344 0.94549 0.0
C462 C 0.44751 0.58748 0.82286 0.0
C463 C 0.47746 0.54611 0.98103 0.0
C464 C 0.39073 0.51109 0.93229 0.0
C465 C 0.38869 0.49028 0.89688 0.0
C466 C 0.41445 0.53643 0.93343 0.0
C467 C 0.4365 0.54112 0.89782 0.0
C468 C 0.43427 0.52033 0.86105 0.0
C469 C 0.41049 0.49515 0.86132 0.0
C470 C 0.41616 0.55797 0.97374 0.0
C471 C 0.45719 0.52453 0.82212 0.0
H472 H 0.49703 0.63044 0.84394 0.0
H473 H 0.522 0.59502 0.9764 0.0
H474 H 0.44235 0.57069 0.79216 0.0
H475 H 0.42867 0.58302 0.84547 0.0
H476 H 0.45487 0.60644 0.79786 0.0
H477 H 0.4948 0.55125 0.01017 0.0
H478 H 0.45931 0.54014 0.00792 0.0
H479 H 0.47354 0.5283 0.95472 0.0
H480 H 0.37392 0.50746 0.95974 0.0
H481 H 0.40899 0.47924 0.83343 0.0
H482 H 0.42185 0.57673 0.9493 0.0
H483 H 0.43211 0.56289 0.00655 0.0
H484 H 0.39684 0.55161 0.99652 0.0
H485 H 0.46371 0.54272 0.79496 0.0
H486 H 0.4516 0.50697 0.79331 0.0
H487 H 0.47476 0.528 0.84873 0.0
C488 C 0.91314 0.41641 0.08273 0.0
C489 C 0.89211 0.39058 0.09688 0.0
C490 C 0.90997 0.43901 0.08651 0.0
C491 C 0.88504 0.43586 0.10492 0.0
C492 C 0.86384 0.40995 0.12096 0.0
C493 C 0.86765 0.38751 0.11686 0.0
C494 C 0.93331 0.46627 0.06978 0.0
C495 C 0.83704 0.40589 0.14108 0.0
C496 C 0.89503 0.5029 0.15516 0.0
C497 C 0.88876 0.51239 0.10504 0.0
C498 C 0.89134 0.47684 0.15762 0.0
C499 C 0.88198 0.46016 0.10801 0.0
C500 C 0.87423 0.46914 0.05821 0.0
C501 C 0.87739 0.49514 0.05759 0.0
C502 C 0.89926 0.46793 0.21202 0.0
C503 C 0.86454 0.45211 0.00416 0.0
H504 H 0.93216 0.41901 0.0676 0.0
H505 H 0.85125 0.36754 0.12732 0.0
H506 H 0.92722 0.47498 0.03395 0.0
H507 H 0.93919 0.48037 0.10696 0.0
H508 H 0.95127 0.46517 0.0558 0.0
H509 H 0.82328 0.38489 0.15571 0.0
H510 H 0.83999 0.41992 0.1771 0.0
H511 H 0.82717 0.41057 0.10522 0.0
H512 H 0.90339 0.51614 0.1923 0.0
H513 H 0.8725 0.50253 0.01892 0.0
H514 H 0.91862 0.4684 0.20482 0.0
H515 H 0.88392 0.44691 0.2232 0.0
H516 H 0.90178 0.48119 0.24941 0.0
H517 H 0.88168 0.45139 0.98372 0.0
H518 H 0.85602 0.46028 0.97216 0.0
H519 H 0.84902 0.4311 0.01488 0.0
C520 C 0.37668 0.85693 0.2432 0.0
C521 C 0.38098 0.883 0.23471 0.0
C522 C 0.39859 0.8523 0.24551 0.0
C523 C 0.42516 0.87422 0.23818 0.0
C524 C 0.42925 0.90023 0.22608 0.0
C525 C 0.40715 0.90432 0.22516 0.0
C526 C 0.39345 0.82435 0.25885 0.0
C527 C 0.45712 0.92408 0.21641 0.0
C528 C 0.48897 0.87986 0.30065 0.0
C529 C 0.50112 0.87735 0.25052 0.0
C530 C 0.46295 0.87655 0.29836 0.0
C531 C 0.44908 0.87069 0.24465 0.0
C532 C 0.4606 0.86601 0.19506 0.0
C533 C 0.48662 0.86964 0.19855 0.0
C534 C 0.45132 0.8816 0.35227 0.0
C535 C 0.44655 0.85959 0.13711 0.0
H536 H 0.35644 0.84054 0.25162 0.0
H537 H 0.41043 0.92447 0.21859 0.0
H538 H 0.40455 0.81852 0.22823 0.0
H539 H 0.40099 0.82411 0.30295 0.0
H540 H 0.37167 0.80902 0.25685 0.0
H541 H 0.45664 0.94258 0.20428 0.0
H542 H 0.4693 0.9283 0.25643 0.0
H543 H 0.46756 0.91949 0.18166 0.0
H544 H 0.50045 0.88619 0.34058 0.0
H545 H 0.49627 0.8679 0.15974 0.0
H546 H 0.42983 0.8659 0.35736 0.0
H547 H 0.45221 0.90134 0.34854 0.0
H548 H 0.46254 0.88195 0.39177 0.0
H549 H 0.42492 0.84426 0.14166 0.0
H550 H 0.45592 0.85209 0.10563 0.0
H551 H 0.44771 0.87809 0.11912 0.0
C552 C 0.33479 0.33485 0.8183 0.0
C553 C 0.32231 0.35046 0.81438 0.0
C554 C 0.33624 0.32113 0.76956 0.0
C555 C 0.3255 0.32401 0.71673 0.0
C556 C 0.30673 0.33317 0.71773 0.0
C557 C 0.30543 0.34671 0.76717 0.0
C558 C 0.35421 0.30897 0.77156 0.0
C559 C 0.29277 0.33404 0.66324 0.0
C560 C 0.38213 0.36224 0.61134 0.0
C561 C 0.37975 0.34202 0.57373 0.0
C562 C 0.36408 0.35659 0.65652 0.0
C563 C 0.34254 0.3298 0.66447 0.0
C564 C 0.33923 0.30931 0.62534 0.0
C565 C 0.35812 0.31563 0.5806 0.0
C566 C 0.36902 0.37952 0.6967 0.0
C567 C 0.31641 0.28066 0.63089 0.0
H568 H 0.3468 0.3367 0.85616 0.0
H569 H 0.29481 0.35791 0.76488 0.0
H570 H 0.34642 0.29118 0.7426 0.0
H571 H 0.37471 0.32412 0.75659 0.0
H572 H 0.35589 0.3028 0.81622 0.0
H573 H 0.27365 0.33366 0.6734 0.0
H574 H 0.30606 0.35304 0.63966 0.0
H575 H 0.28848 0.31685 0.63436 0.0
H576 H 0.39867 0.38273 0.60651 0.0
H577 H 0.35598 0.29987 0.55135 0.0
H578 H 0.37288 0.37508 0.74118 0.0
H579 H 0.35119 0.38221 0.69761 0.0
H580 H 0.38663 0.39905 0.68352 0.0
H581 H 0.32397 0.26842 0.65242 0.0
H582 H 0.30892 0.27171 0.58744 0.0
H583 H 0.2993 0.27908 0.65641 0.0
C584 C 0.95774 0.3169 0.92103 0.0
C585 C 0.96191 0.34309 0.92772 0.0
C586 C 0.9702 0.31079 0.87561 0.0
C587 C 0.98717 0.33141 0.83658 0.0
C588 C 0.99146 0.35788 0.84379 0.0
C589 C 0.97881 0.36323 0.8889 0.0
C590 C 0.96556 0.28253 0.8707 0.0
C591 C 0.00916 0.38088 0.80354 0.0
C592 C 0.04394 0.34926 0.74078 0.0
C593 C 0.03202 0.35301 0.69142 0.0
C594 C 0.02787 0.3356 0.78874 0.0
C595 C 0.99989 0.32622 0.78606 0.0
C596 C 0.98763 0.32363 0.73154 0.0
C597 C 0.00403 0.33757 0.68441 0.0
C598 C 0.04134 0.33645 0.84527 0.0
C599 C 0.95758 0.31162 0.72583 0.0
H600 H 0.9449 0.30126 0.95127 0.0
H601 H 0.98212 0.3835 0.89329 0.0
H602 H 0.9667 0.27691 0.8253 0.0
H603 H 0.98136 0.28123 0.89588 0.0
H604 H 0.94568 0.26757 0.88896 0.0
H605 H 0.01056 0.40022 0.81645 0.0
H606 H 0.02989 0.38409 0.80296 0.0
H607 H 1.00096 0.37616 0.75895 0.0
H608 H 0.06569 0.36046 0.74553 0.0
H609 H 0.99484 0.33959 0.6451 0.0
H610 H 0.0281 0.31866 0.87228 0.0
H611 H 0.04548 0.35488 0.86947 0.0
H612 H 0.06082 0.33711 0.83801 0.0
H613 H 0.94665 0.29458 0.75631 0.0
H614 H 0.95075 0.30444 0.68098 0.0
H615 H 0.95222 0.32728 0.73615 0.0
C616 C 0.62114 0.98988 0.08724 0.0
C617 C 0.62407 0.97081 0.11937 0.0
C618 C 0.63834 0.00361 0.04133 0.0
C619 C 0.65955 0.99858 0.02758 0.0
C620 C 0.66393 0.98082 0.06239 0.0
C621 C 0.64595 0.96694 0.10785 0.0
C622 C 0.6326 0.02231 0.00558 0.0
C623 C 0.6874 0.97641 0.05176 0.0
C624 C 0.66326 0.00839 0.87047 0.0
C625 C 0.67738 0.03662 0.86992 0.0
C626 C 0.66137 0.99439 0.92134 0.0
C627 C 0.67396 0.00925 0.97207 0.0
C628 C 0.69314 0.03705 0.96768 0.0
C629 C 0.69447 0.0507 0.91625 0.0
C630 C 0.64175 0.96444 0.92319 0.0
C631 C 0.70872 0.05304 0.01985 0.0
H632 H 0.60452 0.99328 0.09613 0.0
H633 H 0.64877 0.95273 0.13359 0.0
H634 H 0.65047 0.04287 0.00512 0.0
H635 H 0.62806 0.01504 0.96023 0.0
H636 H 0.61526 0.02381 0.0224 0.0
H637 H 0.68469 0.95799 0.07378 0.0
H638 H 0.69059 0.97489 0.00492 0.0
H639 H 0.706 0.99399 0.06891 0.0
H640 H 0.65083 0.99746 0.8336 0.0
H641 H 0.70609 0.07255 0.9153 0.0
H642 H 0.62225 0.96087 0.94103 0.0
H643 H 0.64927 0.95404 0.95157 0.0
H644 H 0.63797 0.95528 0.87934 0.0
H645 H 0.69623 0.05925 0.04494 0.0
H646 H 0.72755 0.07155 0.00687 0.0
H647 H 0.71382 0.0407 0.04854 0.0
C648 C 0.62512 0.6829 0.12908 0.0
C649 C 0.63317 0.68629 0.07125 0.0
C650 C 0.64174 0.68204 0.17229 0.0
C651 C 0.66655 0.6841 0.15625 0.0
C652 C 0.67697 0.69334 0.1002 0.0
C653 C 0.65982 0.69391 0.05746 0.0
C654 C 0.63047 0.67388 0.23258 0.0
C655 C 0.70443 0.69829 0.08316 0.0
C656 C 0.68852 0.65644 0.27976 0.0
C657 C 0.67301 0.6289 0.26704 0.0
C658 C 0.68967 0.67572 0.24039 0.0
C659 C 0.67475 0.66689 0.18816 0.0
C660 C 0.66205 0.63922 0.17257 0.0
C661 C 0.66139 0.62064 0.21235 0.0
C662 C 0.705 0.70507 0.25726 0.0
C663 C 0.64636 0.62855 0.11679 0.0
H664 H 0.60459 0.67756 0.1395 0.0
H665 H 0.66616 0.69701 0.01259 0.0
H666 H 0.62363 0.6522 0.2393 0.0
H667 H 0.64617 0.68563 0.26532 0.0
H668 H 0.61305 0.67695 0.23992 0.0
H669 H 0.71301 0.71331 0.04764 0.0
H670 H 0.71846 0.70551 0.12061 0.0
H671 H 0.70275 0.67921 0.0674 0.0
H672 H 0.69794 0.66282 0.32192 0.0
H673 H 0.65005 0.59928 0.20227 0.0
H674 H 0.69328 0.70908 0.28999 0.0
H675 H 0.709 0.71864 0.21975 0.0
H676 H 0.7245 0.71001 0.27765 0.0
H677 H 0.62861 0.63142 0.11699 0.0
H678 H 0.63903 0.60673 0.1104 0.0
H679 H 0.65907 0.63959 0.07919 0.0
C680 C 0.05044 0.69247 0.4223 0.0
C681 C 0.03934 0.66626 0.44465 0.0
C682 C 0.03915 0.69748 0.37299 0.0
C683 C 0.01678 0.67565 0.34539 0.0
C684 C 0.00401 0.6498 0.3716 0.0
C685 C 0.01518 0.64567 0.42133 0.0
C686 C 0.05144 0.72586 0.35002 0.0
C687 C 0.97999 0.62559 0.34453 0.0
C688 C 0.96988 0.65978 0.22375 0.0
C689 C 0.98082 0.64801 0.18758 0.0
C690 C 0.98456 0.67512 0.27188 0.0
C691 C 0.00977 0.67742 0.28438 0.0
C692 C 0.02292 0.67072 0.24117 0.0
C693 C 0.0082 0.65614 0.19278 0.0
C694 C 0.97143 0.68509 0.3139 0.0
C695 C 0.05057 0.67425 0.25081 0.0
H696 H 0.06855 0.70876 0.44154 0.0
H697 H 0.00578 0.62559 0.4397 0.0
H698 H 0.05261 0.72641 0.30212 0.0
H699 H 0.03839 0.73419 0.36263 0.0
H700 H 0.07191 0.7392 0.368 0.0
H701 H 0.97285 0.60696 0.37063 0.0
H702 H 0.96295 0.62938 0.33977 0.0
H703 H 0.98531 0.62168 0.30087 0.0
H704 H 0.94906 0.65466 0.21849 0.0
H705 H 0.01722 0.64833 0.16289 0.0
H706 H 0.98682 0.70326 0.33732 0.0
H707 H 0.95972 0.66919 0.34629 0.0
H708 H 0.9573 0.68994 0.29121 0.0
H709 H 0.06453 0.69445 0.26899 0.0
H710 H 0.05936 0.67175 0.21007 0.0
H711 H 0.04911 0.65894 0.28227 0.0
C712 C 0.31993 0.96384 0.39589 0.0
C713 C 0.34573 0.9679 0.38403 0.0
C714 C 0.31576 0.9772 0.44245 0.0
C715 C 0.33787 0.99466 0.47787 0.0
C716 C 0.36408 0.99956 0.46437 0.0
C717 C 0.36761 0.98633 0.41758 0.0
C718 C 0.28786 0.97272 0.45311 0.0
C719 C 0.38852 0.01787 0.50076 0.0
C720 C 0.35652 0.04813 0.58597 0.0
C721 C 0.36016 0.03461 0.63251 0.0
C722 C 0.34327 0.0338 0.53573 0.0
C723 C 0.33429 0.00589 0.5328 0.0
C724 C 0.33243 0.9917 0.58425 0.0
C725 C 0.34566 0.00638 0.63385 0.0
C726 C 0.3434 0.04917 0.48278 0.0
C727 C 0.32148 0.96166 0.58407 0.0
H728 H 0.30299 0.95004 0.36931 0.0
H729 H 0.38766 0.9898 0.40872 0.0
H730 H 0.28343 0.97211 0.49996 0.0
H731 H 0.28649 0.98976 0.43404 0.0
H732 H 0.27213 0.95377 0.43262 0.0
H733 H 0.40732 0.01922 0.48408 0.0
H734 H 0.39151 0.03853 0.50174 0.0
H735 H 0.38558 0.01034 0.54587 0.0
H736 H 0.36705 0.06999 0.58552 0.0
H737 H 0.34762 0.9959 0.67096 0.0
H738 H 0.32557 0.03664 0.45514 0.0
H739 H 0.36177 0.0547 0.45698 0.0
H740 H 0.34361 0.06805 0.49484 0.0
H741 H 0.3036 0.95123 0.55548 0.0
H742 H 0.31584 0.9531 0.62834 0.0
H743 H 0.3372 0.95747 0.56748 0.0
C744 C 0.40171 0.24261 0.49667 0.0
C745 C 0.42048 0.26861 0.51592 0.0
C746 C 0.39913 0.21956 0.52475 0.0
C747 C 0.41579 0.22262 0.57296 0.0
C748 C 0.43442 0.24883 0.59295 0.0
C749 C 0.43648 0.27138 0.56438 0.0
C750 C 0.37894 0.19196 0.50226 0.0
C751 C 0.45277 0.25315 0.64375 0.0
C752 C 0.40111 0.16516 0.67755 0.0
C753 C 0.41857 0.15654 0.65701 0.0
C754 C 0.3992 0.18601 0.64947 0.0
C755 C 0.41537 0.19872 0.60018 0.0
C756 C 0.43279 0.18986 0.57911 0.0
C757 C 0.43406 0.16888 0.6075 0.0
C758 C 0.38021 0.19472 0.673 0.0
C759 C 0.45071 0.20302 0.52734 0.0
H760 H 0.38917 0.24026 0.45952 0.0
H761 H 0.451 0.29134 0.57987 0.0
H762 H 0.38964 0.18174 0.4854 0.0
H763 H 0.36568 0.17933 0.5379 0.0
H764 H 0.3662 0.19289 0.4671 0.0
H765 H 0.46533 0.27478 0.65553 0.0
H766 H 0.44073 0.24195 0.68205 0.0
H767 H 0.46634 0.24515 0.63328 0.0
H768 H 0.38893 0.15562 0.71548 0.0
H769 H 0.44765 0.16242 0.59119 0.0
H770 H 0.36672 0.19436 0.63812 0.0
H771 H 0.39188 0.21577 0.689 0.0
H772 H 0.36766 0.18163 0.70901 0.0
H773 H 0.43845 0.20251 0.48969 0.0
H774 H 0.46233 0.19306 0.51494 0.0
H775 H 0.46514 0.22453 0.53706 0.0
C776 C 0.26672 0.42274 0.76606 0.0
C777 C 0.26434 0.41311 0.8229 0.0
C778 C 0.24453 0.4209 0.73626 0.0
C779 C 0.21908 0.40901 0.76363 0.0
C780 C 0.21628 0.39854 0.82045 0.0
C781 C 0.23897 0.40076 0.84952 0.0
C782 C 0.24862 0.43261 0.6761 0.0
C783 C 0.18944 0.38556 0.851 0.0
C784 C 0.17203 0.43381 0.71432 0.0
C785 C 0.15504 0.41374 0.67511 0.0
C786 C 0.19271 0.43235 0.74348 0.0
C787 C 0.19622 0.40987 0.73447 0.0
C788 C 0.17893 0.3893 0.69535 0.0
C789 C 0.15872 0.39165 0.66546 0.0
C790 C 0.2111 0.45516 0.78331 0.0
C791 C 0.18172 0.36479 0.68537 0.0
H792 H 0.28616 0.43219 0.74477 0.0
H793 H 0.2369 0.39313 0.89322 0.0
H794 H 0.23405 0.41732 0.64552 0.0
H795 H 0.24483 0.44979 0.67622 0.0
H796 H 0.26933 0.43985 0.65967 0.0
H797 H 0.18998 0.37629 0.8928 0.0
H798 H 0.18347 0.40091 0.85956 0.0
H799 H 0.17362 0.36981 0.82309 0.0
H800 H 0.16936 0.45102 0.72174 0.0
H801 H 0.14542 0.37595 0.63572 0.0
H802 H 0.23222 0.46441 0.76793 0.0
H803 H 0.21044 0.44735 0.82752 0.0
H804 H 0.20556 0.47114 0.78584 0.0
H805 H 0.20179 0.37094 0.66665 0.0
H806 H 0.16595 0.35001 0.65576 0.0
H807 H 0.1804 0.35471 0.7272 0.0
C808 C 0.83594 0.27354 0.94113 0.0
C809 C 0.84893 0.27064 0.98987 0.0
C810 C 0.8157 0.25104 0.9116 0.0
C811 C 0.80807 0.22474 0.93093 0.0
C812 C 0.82134 0.22158 0.97964 0.0
C813 C 0.84159 0.24455 0.00858 0.0
C814 C 0.80208 0.25549 0.86024 0.0
C815 C 0.81387 0.19391 0.00161 0.0
C816 C 0.73664 0.17027 0.89212 0.0
C817 C 0.74061 0.15824 0.84297 0.0
C818 C 0.7584 0.19141 0.92166 0.0
C819 C 0.78504 0.20081 0.90216 0.0
C820 C 0.7893 0.18845 0.85319 0.0
C821 C 0.76704 0.16741 0.82397 0.0
C822 C 0.75277 0.20411 0.97309 0.0
C823 C 0.81738 0.19772 0.83122 0.0
H824 H 0.84146 0.29355 0.926 0.0
H825 H 0.85158 0.24208 0.04593 0.0
H826 H 0.80355 0.2447 0.82181 0.0
H827 H 0.78034 0.24712 0.86951 0.0
H828 H 0.81102 0.27718 0.84927 0.0
H829 H 0.82703 0.19476 0.03782 0.0
H830 H 0.79267 0.18334 0.01681 0.0
H831 H 0.81525 0.18164 0.96607 0.0
H832 H 0.71635 0.1634 0.90731 0.0
H833 H 0.77033 0.15815 0.78634 0.0
H834 H 0.75971 0.22561 0.96381 0.0
H835 H 0.76413 0.20357 0.01144 0.0
H836 H 0.73101 0.19382 0.98416 0.0
H837 H 0.82672 0.21888 0.81607 0.0
H838 H 0.81748 0.18502 0.795 0.0
H839 H 0.83017 0.19728 0.86676 0.0
C840 C 0.57297 0.84366 0.08959 0.0
C841 C 0.58629 0.85277 0.14297 0.0
C842 C 0.57446 0.82366 0.05743 0.0
C843 C 0.5897 0.8123 0.07883 0.0
C844 C 0.60411 0.82212 0.13157 0.0
C845 C 0.60223 0.84224 0.16307 0.0
C846 C 0.55865 0.81384 0.00172 0.0
C847 C 0.62065 0.81061 0.15584 0.0
C848 C 0.56482 0.73957 0.03513 0.0
C849 C 0.5826 0.74222 0.99051 0.0
C850 C 0.56721 0.76213 0.06438 0.0
C851 C 0.58801 0.78827 0.04907 0.0
C852 C 0.60602 0.79121 0.00383 0.0
C853 C 0.60306 0.76814 0.97491 0.0
C854 C 0.54731 0.75792 0.11171 0.0
C855 C 0.62847 0.81872 0.98625 0.0
H856 H 0.56075 0.85176 0.07324 0.0
H857 H 0.61267 0.8492 0.20407 0.0
H858 H 0.57177 0.81403 0.96628 0.0
H859 H 0.54214 0.79269 0.0071 0.0
H860 H 0.54968 0.82628 0.98848 0.0
H861 H 0.63286 0.82222 0.19381 0.0
H862 H 0.60711 0.78942 0.16935 0.0
H863 H 0.63434 0.8104 0.1222 0.0
H864 H 0.54891 0.71967 0.04763 0.0
H865 H 0.61704 0.77037 0.94093 0.0
H866 H 0.53603 0.76835 0.10036 0.0
H867 H 0.55815 0.76683 0.15283 0.0
H868 H 0.53259 0.73625 0.11913 0.0
H869 H 0.61995 0.83129 0.97125 0.0
H870 H 0.64113 0.81764 0.95118 0.0
H871 H 0.6415 0.8291 0.02411 0.0
C872 C 0.77083 0.6145 0.34598 0.0
C873 C 0.74599 0.59116 0.33562 0.0
C874 C 0.79435 0.6188 0.31706 0.0
C875 C 0.79297 0.59908 0.27779 0.0
C876 C 0.76794 0.57537 0.26801 0.0
C877 C 0.74487 0.57183 0.29663 0.0
C878 C 0.82062 0.64444 0.32817 0.0
C879 C 0.76551 0.5535 0.22762 0.0
C880 C 0.84504 0.61079 0.16177 0.0
C881 C 0.85864 0.59879 0.18733 0.0
C882 C 0.82463 0.61259 0.19204 0.0
C883 C 0.81765 0.60207 0.24897 0.0
C884 C 0.83226 0.59115 0.27574 0.0
C885 C 0.85252 0.58971 0.24475 0.0
C886 C 0.80968 0.62458 0.16212 0.0
C887 C 0.82546 0.57948 0.33604 0.0
H888 H 0.77176 0.62962 0.37559 0.0
H889 H 0.72578 0.55364 0.28855 0.0
H890 H 0.83561 0.63961 0.34637 0.0
H891 H 0.82895 0.65526 0.28682 0.0
H892 H 0.81824 0.65812 0.35861 0.0
H893 H 0.7445 0.53639 0.22435 0.0
H894 H 0.77248 0.56187 0.1837 0.0
H895 H 0.77857 0.5456 0.243 0.0
H896 H 0.84973 0.61799 0.11761 0.0
H897 H 0.86306 0.58065 0.26527 0.0
H898 H 0.80803 0.63915 0.19104 0.0
H899 H 0.78889 0.60836 0.15177 0.0
H900 H 0.81968 0.63498 0.12129 0.0
H901 H 0.82445 0.59394 0.36637 0.0
H902 H 0.84039 0.5742 0.35281 0.0
H903 H 0.80532 0.56096 0.33575 0.0
C904 C 0.17463 0.73612 0.45275 0.0
C905 C 0.15804 0.73859 0.49403 0.0
C906 C 0.19518 0.75878 0.42447 0.0
C907 C 0.19918 0.78473 0.43691 0.0
C908 C 0.18233 0.7874 0.47812 0.0
C909 C 0.16208 0.76431 0.50657 0.0
C910 C 0.21287 0.75491 0.38169 0.0
C911 C 0.18572 0.81465 0.49215 0.0
C912 C 0.2698 0.84218 0.40368 0.0
C913 C 0.2666 0.85054 0.34859 0.0
C914 C 0.24783 0.82169 0.43387 0.0
C915 C 0.22186 0.80895 0.40844 0.0
C916 C 0.21829 0.81789 0.35363 0.0
C917 C 0.24069 0.83863 0.32441 0.0
C918 C 0.25266 0.81295 0.49215 0.0
C919 C 0.19097 0.80486 0.32493 0.0
H920 H 0.17175 0.71636 0.44286 0.0
H921 H 0.14921 0.76637 0.53802 0.0
H922 H 0.21198 0.76319 0.33891 0.0
H923 H 0.23416 0.76614 0.39642 0.0
H924 H 0.20688 0.73336 0.37616 0.0
H925 H 0.17043 0.81328 0.52354 0.0
H926 H 0.20607 0.82797 0.51053 0.0
H927 H 0.18414 0.8244 0.45204 0.0
H928 H 0.28968 0.8514 0.42307 0.0
H929 H 0.23801 0.84497 0.28196 0.0
H930 H 0.24894 0.79203 0.48916 0.0
H931 H 0.23843 0.81294 0.52463 0.0
H932 H 0.27357 0.82622 0.50797 0.0
H933 H 0.18466 0.78371 0.31342 0.0
H934 H 0.191 0.81564 0.28497 0.0
H935 H 0.17568 0.80428 0.35519 0.0
loop_
_geom_bond_atom_site_label_1
_geom_bond_atom_site_label_2
_geom_bond_distance
_geom_bond_site_symmetry_2
_ccdc_geom_bond_type
Co0 O1 2.216 . S
Co0 O2 2.091 . S
Co0 O4 2.004 . S
Co0 O10 2.021 . S
Co0 O12 2.137 . S
Co0 O13 2.244 . S
O1 Co0 2.216 . S
O1 C8 1.247 . S
O2 Co0 2.091 . S
O2 C8 1.261 . S
C3 O12 1.247 . S
C3 O13 1.272 . S
O4 Co0 2.004 . S
O4 C9 1.259 . S
Co5 O6 2.061 . S
Co5 O11 2.052 . S
Co5 O13 2.135 . S
O6 Co5 2.061 . S
O6 C9 1.235 . S
C7 O10 1.238 . S
C7 O11 1.241 . S
C8 O1 1.247 . S
C8 O2 1.261 . S
C9 O4 1.259 . S
C9 O6 1.235 . S
O10 Co0 2.021 . S
O10 C7 1.238 . S
O11 Co5 2.052 . S
O11 C7 1.241 . S
O12 Co0 2.137 . S
O12 C3 1.247 . S
O13 Co0 2.244 . S
O13 C3 1.272 . S
O13 Co5 2.135 . S
Co14 O15 2.216 . S
Co14 O16 2.091 . S
Co14 O18 2.004 . S
Co14 O24 2.021 . S
Co14 O26 2.137 . S
Co14 O27 2.244 . S
O15 Co14 2.216 . S
O15 C22 1.247 . S
O16 Co14 2.091 . S
O16 C22 1.261 . S
C17 O26 1.247 . S
C17 O27 1.272 . S
O18 Co14 2.004 . S
O18 C23 1.259 . S
Co19 O20 2.061 . S
Co19 O25 2.052 . S
Co19 O27 2.135 . S
O20 Co19 2.061 . S
O20 C23 1.235 . S
C21 O24 1.238 . S
C21 O25 1.241 . S
C22 O15 1.247 . S
C22 O16 1.261 . S
C23 O18 1.259 . S
C23 O20 1.235 . S
O24 Co14 2.021 . S
O24 C21 1.238 . S
O25 Co19 2.052 . S
O25 C21 1.241 . S
O26 Co14 2.137 . S
O26 C17 1.247 . S
O27 Co14 2.244 . S
O27 C17 1.272 . S
O27 Co19 2.135 . S
Co28 O29 2.216 . S
Co28 O30 2.091 . S
Co28 O32 2.004 . S
Co28 O38 2.021 . S
Co28 O40 2.137 . S
Co28 O41 2.244 . S
O29 Co28 2.216 . S
O29 C36 1.247 . S
O30 Co28 2.091 . S
O30 C36 1.261 . S
C31 O40 1.247 . S
C31 O41 1.272 . S
O32 Co28 2.004 . S
O32 C37 1.259 . S
Co33 O34 2.061 . S
Co33 O39 2.052 . S
Co33 O41 2.135 . S
O34 Co33 2.061 . S
O34 C37 1.235 . S
C35 O38 1.238 . S
C35 O39 1.241 . S
C36 O29 1.247 . S
C36 O30 1.261 . S
C37 O32 1.259 . S
C37 O34 1.235 . S
O38 Co28 2.021 . S
O38 C35 1.238 . S
O39 Co33 2.052 . S
O39 C35 1.241 . S
O40 Co28 2.137 . S
O40 C31 1.247 . S
O41 Co28 2.244 . S
O41 C31 1.272 . S
O41 Co33 2.135 . S
Co42 O43 2.216 . S
Co42 O44 2.091 . S
Co42 O46 2.004 . S
Co42 O52 2.021 . S
Co42 O54 2.137 . S
Co42 O55 2.244 . S
O43 Co42 2.216 . S
O43 C50 1.247 . S
O44 Co42 2.091 . S
O44 C50 1.261 . S
C45 O54 1.247 . S
C45 O55 1.272 . S
O46 Co42 2.004 . S
O46 C51 1.259 . S
Co47 O48 2.061 . S
Co47 O53 2.058 . S
Co47 O55 2.135 . S
O48 Co47 2.061 . S
O48 C51 1.235 . S
C49 O52 1.238 1_554 S
C49 O53 1.240 1_554 S
C50 O43 1.247 . S
C50 O44 1.261 . S
C51 O46 1.259 . S
C51 O48 1.235 . S
O52 Co42 2.021 . S
O52 C49 1.238 1_556 S
O53 Co47 2.058 . S
O53 C49 1.240 1_556 S
O54 Co42 2.137 . S
O54 C45 1.247 . S
O55 Co42 2.244 . S
O55 C45 1.272 . S
O55 Co47 2.135 . S
Co56 O57 2.216 . S
Co56 O58 2.091 . S
Co56 O60 2.004 . S
Co56 O66 2.021 . S
Co56 O68 2.137 . S
Co56 O69 2.244 . S
O57 Co56 2.216 . S
O57 C64 1.247 . S
O58 Co56 2.091 . S
O58 C64 1.261 . S
C59 O68 1.247 . S
C59 O69 1.272 . S
O60 Co56 2.004 . S
O60 C65 1.259 . S
Co61 O62 2.061 . S
Co61 O67 2.052 . S
Co61 O69 2.135 . S
O62 Co61 2.061 . S
O62 C65 1.235 . S
C63 O66 1.238 . S
C63 O67 1.241 . S
C64 O57 1.247 . S
C64 O58 1.261 . S
C65 O60 1.259 . S
C65 O62 1.235 . S
O66 Co56 2.021 . S
O66 C63 1.238 . S
O67 Co61 2.052 . S
O67 C63 1.241 . S
O68 Co56 2.137 . S
O68 C59 1.247 . S
O69 Co56 2.244 . S
O69 C59 1.272 . S
O69 Co61 2.135 . S
Co70 O71 2.216 . S
Co70 O72 2.091 . S
Co70 O74 2.004 . S
Co70 O80 2.021 . S
Co70 O82 2.137 . S
Co70 O83 2.244 . S
O71 Co70 2.216 . S
O71 C78 1.247 . S
O72 Co70 2.091 . S
O72 C78 1.261 . S
C73 O82 1.247 . S
C73 O83 1.272 . S
O74 Co70 2.004 . S
O74 C79 1.259 . S
Co75 O76 2.061 . S
Co75 O81 2.052 . S
Co75 O83 2.135 . S
O76 Co75 2.061 . S
O76 C79 1.235 . S
C77 O80 1.238 . S
C77 O81 1.241 . S
C78 O71 1.247 . S
C78 O72 1.261 . S
C79 O74 1.259 . S
C79 O76 1.235 . S
O80 Co70 2.021 . S
O80 C77 1.238 . S
O81 Co75 2.052 . S
O81 C77 1.241 . S
O82 Co70 2.137 . S
O82 C73 1.247 . S
O83 Co70 2.244 . S
O83 C73 1.272 . S
O83 Co75 2.135 . S
Co84 O85 2.216 . S
Co84 O86 2.091 . S
Co84 O88 2.004 . S
Co84 O94 2.021 . S
Co84 O96 2.137 . S
Co84 O97 2.244 . S
O85 Co84 2.216 . S
O85 C92 1.247 . S
O86 Co84 2.091 . S
O86 C92 1.261 . S
C87 O96 1.247 . S
C87 O97 1.272 . S
O88 Co84 2.004 . S
O88 C93 1.259 . S
Co89 O90 2.061 . S
Co89 O95 2.052 . S
Co89 O97 2.135 . S
O90 Co89 2.061 . S
O90 C93 1.235 . S
C91 O94 1.238 . S
C91 O95 1.241 . S
C92 O85 1.247 . S
C92 O86 1.261 . S
C93 O88 1.259 . S
C93 O90 1.235 . S
O94 Co84 2.021 . S
O94 C91 1.238 . S
O95 Co89 2.052 . S
O95 C91 1.241 . S
O96 Co84 2.137 . S
O96 C87 1.247 . S
O97 Co84 2.244 . S
O97 C87 1.272 . S
O97 Co89 2.135 . S
Co98 O99 2.216 . S
Co98 O100 2.091 . S
Co98 O102 2.004 . S
Co98 O108 2.021 . S
Co98 O110 2.137 . S
Co98 O111 2.244 . S
O99 Co98 2.216 . S
O99 C106 1.247 . S
O100 Co98 2.091 . S
O100 C106 1.261 . S
C101 O110 1.247 . S
C101 O111 1.272 . S
O102 Co98 2.004 . S
O102 C107 1.259 . S
Co103 O104 2.061 . S
Co103 O109 2.052 . S
Co103 O111 2.135 . S
O104 Co103 2.061 . S
O104 C107 1.235 . S
C105 O108 1.238 . S
C105 O109 1.241 . S
C106 O99 1.247 . S
C106 O100 1.261 . S
C107 O102 1.259 . S
C107 O104 1.235 . S
O108 Co98 2.021 . S
O108 C105 1.238 . S
O109 Co103 2.052 . S
O109 C105 1.241 . S
O110 Co98 2.137 . S
O110 C101 1.247 . S
O111 Co98 2.244 . S
O111 C101 1.272 . S
O111 Co103 2.135 . S
Co112 O113 2.216 . S
Co112 O114 2.091 . S
Co112 O116 2.004 . S
Co112 O122 2.021 . S
Co112 O124 2.137 . S
Co112 O125 2.244 . S
O113 Co112 2.216 . S
O113 C120 1.247 . S
O114 Co112 2.091 . S
O114 C120 1.261 . S
C115 O124 1.247 . S
C115 O125 1.272 . S
O116 Co112 2.004 . S
O116 C121 1.259 . S
Co117 O118 2.061 . S
Co117 O123 2.052 . S
Co117 O125 2.135 . S
O118 Co117 2.061 . S
O118 C121 1.235 . S
C119 O122 1.238 . S
C119 O123 1.241 . S
C120 O113 1.247 . S
C120 O114 1.261 . S
C121 O116 1.259 . S
C121 O118 1.235 . S
O122 Co112 2.021 . S
O122 C119 1.238 . S
O123 Co117 2.052 . S
O123 C119 1.241 . S
O124 Co112 2.137 . S
O124 C115 1.247 . S
O125 Co112 2.244 . S
O125 C115 1.272 . S
O125 Co117 2.135 . S
Co126 O127 2.216 . S
Co126 O128 2.091 . S
Co126 O130 2.004 . S
Co126 O136 2.021 . S
Co126 O138 2.137 . S
Co126 O139 2.244 . S
O127 Co126 2.216 . S
O127 C134 1.247 . S
O128 Co126 2.091 . S
O128 C134 1.261 . S
C129 O138 1.247 . S
C129 O139 1.272 . S
O130 Co126 2.004 . S
O130 C135 1.259 . S
Co131 O132 2.061 . S
Co131 O137 2.052 . S
Co131 O139 2.135 . S
O132 Co131 2.061 . S
O132 C135 1.235 . S
C133 O136 1.238 . S
C133 O137 1.241 . S
C134 O127 1.247 . S
C134 O128 1.261 . S
C135 O130 1.259 . S
C135 O132 1.235 . S
O136 Co126 2.021 . S
O136 C133 1.238 . S
O137 Co131 2.052 . S
O137 C133 1.241 . S
O138 Co126 2.137 . S
O138 C129 1.247 . S
O139 Co126 2.244 . S
O139 C129 1.272 . S
O139 Co131 2.135 . S
Co140 O141 2.216 . S
Co140 O142 2.091 . S
Co140 O144 2.004 . S
Co140 O150 2.021 . S
Co140 O152 2.137 . S
Co140 O153 2.244 . S
O141 Co140 2.216 . S
O141 C148 1.247 . S
O142 Co140 2.091 . S
O142 C148 1.261 . S
C143 O152 1.247 . S
C143 O153 1.272 . S
O144 Co140 2.004 . S
O144 C149 1.259 . S
Co145 O146 2.061 . S
Co145 O151 2.058 . S
Co145 O153 2.135 . S
O146 Co145 2.061 . S
O146 C149 1.235 . S
C147 O150 1.238 1_556 S
C147 O151 1.240 1_556 S
C148 O141 1.247 . S
C148 O142 1.261 . S
C149 O144 1.259 . S
C149 O146 1.235 . S
O150 Co140 2.021 . S
O150 C147 1.238 1_554 S
O151 Co145 2.058 . S
O151 C147 1.240 1_554 S
O152 Co140 2.137 . S
O152 C143 1.247 . S
O153 Co140 2.244 . S
O153 C143 1.272 . S
O153 Co145 2.135 . S
Co154 O155 2.216 . S
Co154 O156 2.091 . S
Co154 O158 2.004 . S
Co154 O164 2.021 . S
Co154 O166 2.137 . S
Co154 O167 2.244 . S
O155 Co154 2.216 . S
O155 C162 1.247 . S
O156 Co154 2.091 . S
O156 C162 1.261 . S
C157 O166 1.247 . S
C157 O167 1.272 . S
O158 Co154 2.004 . S
O158 C163 1.259 . S
Co159 O160 2.061 . S
Co159 O165 2.052 . S
Co159 O167 2.135 . S
O160 Co159 2.061 . S
O160 C163 1.235 . S
C161 O164 1.238 . S
C161 O165 1.241 . S
C162 O155 1.247 . S
C162 O156 1.261 . S
C163 O158 1.259 . S
C163 O160 1.235 . S
O164 Co154 2.021 . S
O164 C161 1.238 . S
O165 Co159 2.052 . S
O165 C161 1.241 . S
O166 Co154 2.137 . S
O166 C157 1.247 . S
O167 Co154 2.244 . S
O167 C157 1.272 . S
O167 Co159 2.135 . S
C168 C169 1.391 . S
C168 C170 1.394 . S
C168 H184 0.931 . S
C169 C168 1.391 . S
C169 C173 1.376 . S
C170 C168 1.394 . S
C170 C171 1.369 . S
C170 C174 1.531 . S
C171 C170 1.369 . S
C171 C172 1.410 . S
C171 C179 1.503 . S
C172 C171 1.410 . S
C172 C173 1.392 . S
C172 C175 1.511 . S
C173 C169 1.376 . S
C173 C172 1.392 . S
C173 H185 0.929 . S
C174 C170 1.531 . S
C174 H186 0.960 . S
C174 H187 0.962 . S
C174 H188 0.960 . S
C175 C172 1.511 . S
C175 H189 0.961 . S
C175 H190 0.961 . S
C175 H191 0.961 . S
C176 C177 1.370 . S
C176 C178 1.363 . S
C176 H192 0.931 . S
C177 C176 1.370 . S
C177 C181 1.408 . S
C178 C176 1.363 . S
C178 C179 1.370 . S
C178 C182 1.524 . S
C179 C171 1.503 . S
C179 C178 1.370 . S
C179 C180 1.403 . S
C180 C179 1.403 . S
C180 C181 1.404 . S
C180 C183 1.539 . S
C181 C177 1.408 . S
C181 C180 1.404 . S
C181 H193 0.930 . S
C182 C178 1.524 . S
C182 H194 0.956 . S
C182 H195 0.961 . S
C182 H196 0.961 . S
C183 C180 1.539 . S
C183 H197 0.958 . S
C183 H198 0.961 . S
C183 H199 0.960 . S
H184 C168 0.931 . S
H185 C173 0.929 . S
H186 C174 0.960 . S
H187 C174 0.962 . S
H188 C174 0.960 . S
H189 C175 0.961 . S
H190 C175 0.961 . S
H191 C175 0.961 . S
H192 C176 0.931 . S
H193 C181 0.930 . S
H194 C182 0.956 . S
H195 C182 0.961 . S
H196 C182 0.961 . S
H197 C183 0.958 . S
H198 C183 0.961 . S
H199 C183 0.960 . S
C200 C201 1.391 . S
C200 C202 1.394 . S
C200 H216 0.931 . S
C201 C200 1.391 . S
C201 C205 1.376 . S
C202 C200 1.394 . S
C202 C203 1.369 . S
C202 C206 1.531 1_455 S
C203 C202 1.369 . S
C203 C204 1.410 . S
C203 C211 1.503 1_455 S
C204 C203 1.410 . S
C204 C205 1.392 . S
C204 C207 1.511 . S
C205 C201 1.376 . S
C205 C204 1.392 . S
C205 H217 0.929 . S
C206 C202 1.531 1_655 S
C206 H218 0.960 . S
C206 H219 0.962 . S
C206 H220 0.960 . S
C207 C204 1.511 . S
C207 H221 0.961 . S
C207 H222 0.961 . S
C207 H223 0.961 . S
C208 C209 1.370 . S
C208 C210 1.363 . S
C208 H224 0.931 . S
C209 C208 1.370 . S
C209 C213 1.408 . S
C210 C208 1.363 . S
C210 C211 1.370 . S
C210 C214 1.524 . S
C211 C203 1.503 1_655 S
C211 C210 1.370 . S
C211 C212 1.403 . S
C212 C211 1.403 . S
C212 C213 1.404 . S
C212 C215 1.539 1_655 S
C213 C209 1.408 . S
C213 C212 1.404 . S
C213 H225 0.930 . S
C214 C210 1.524 . S
C214 H226 0.956 . S
C214 H227 0.961 . S
C214 H228 0.961 . S
C215 C212 1.539 1_455 S
C215 H229 0.958 . S
C215 H230 0.961 . S
C215 H231 0.960 . S
H216 C200 0.931 . S
H217 C205 0.929 . S
H218 C206 0.960 . S
H219 C206 0.962 . S
H220 C206 0.960 . S
H221 C207 0.961 . S
H222 C207 0.961 . S
H223 C207 0.961 . S
H224 C208 0.931 . S
H225 C213 0.930 . S
H226 C214 0.956 . S
H227 C214 0.961 . S
H228 C214 0.961 . S
H229 C215 0.958 . S
H230 C215 0.961 . S
H231 C215 0.960 . S
C232 C233 1.391 . S
C232 C234 1.394 . S
C232 H248 0.931 . S
C233 C232 1.391 . S
C233 C237 1.376 . S
C234 C232 1.394 . S
C234 C235 1.369 . S
C234 C238 1.531 1_565 S
C235 C234 1.369 . S
C235 C236 1.410 . S
C235 C243 1.503 1_565 S
C236 C235 1.410 . S
C236 C237 1.392 . S
C236 C239 1.511 . S
C237 C233 1.376 . S
C237 C236 1.392 . S
C237 H249 0.929 . S
C238 C234 1.531 1_545 S
C238 H250 0.960 . S
C238 H251 0.962 . S
C238 H252 0.960 . S
C239 C236 1.511 . S
C239 H253 0.961 . S
C239 H254 0.961 . S
C239 H255 0.961 . S
C240 C241 1.370 . S
C240 C242 1.363 . S
C240 H256 0.931 . S
C241 C240 1.370 . S
C241 C245 1.408 . S
C242 C240 1.363 . S
C242 C243 1.370 . S
C242 C246 1.524 1_545 S
C243 C235 1.503 1_545 S
C243 C242 1.370 . S
C243 C244 1.403 . S
C244 C243 1.403 . S
C244 C245 1.404 . S
C244 C247 1.539 . S
C245 C241 1.408 . S
C245 C244 1.404 . S
C245 H257 0.930 . S
C246 C242 1.524 1_565 S
C246 H258 0.956 . S
C246 H259 0.961 . S
C246 H260 0.961 . S
C247 C244 1.539 . S
C247 H261 0.958 . S
C247 H262 0.961 . S
C247 H263 0.960 . S
H248 C232 0.931 . S
H249 C237 0.929 . S
H250 C238 0.960 . S
H251 C238 0.962 . S
H252 C238 0.960 . S
H253 C239 0.961 . S
H254 C239 0.961 . S
H255 C239 0.961 . S
H256 C240 0.931 . S
H257 C245 0.930 . S
H258 C246 0.956 . S
H259 C246 0.961 . S
H260 C246 0.961 . S
H261 C247 0.958 . S
H262 C247 0.961 . S
H263 C247 0.960 . S
C264 C265 1.391 . S
C264 C266 1.394 . S
C264 H280 0.931 . S
C265 C264 1.391 . S
C265 C269 1.376 . S
C266 C264 1.394 . S
C266 C267 1.369 . S
C266 C270 1.531 . S
C267 C266 1.369 . S
C267 C268 1.410 . S
C267 C275 1.503 . S
C268 C267 1.410 . S
C268 C269 1.392 . S
C268 C271 1.511 . S
C269 C265 1.376 . S
C269 C268 1.392 . S
C269 H281 0.929 . S
C270 C266 1.531 . S
C270 H282 0.960 . S
C270 H283 0.962 . S
C270 H284 0.960 . S
C271 C268 1.511 . S
C271 H285 0.961 . S
C271 H286 0.961 . S
C271 H287 0.961 . S
C272 C273 1.370 . S
C272 C274 1.363 . S
C272 H288 0.931 . S
C273 C272 1.370 . S
C273 C277 1.408 . S
C274 C272 1.363 . S
C274 C275 1.370 . S
C274 C278 1.524 . S
C275 C267 1.503 . S
C275 C274 1.370 . S
C275 C276 1.403 . S
C276 C275 1.403 . S
C276 C277 1.404 . S
C276 C279 1.539 . S
C277 C273 1.408 . S
C277 C276 1.404 . S
C277 H289 0.930 . S
C278 C274 1.524 . S
C278 H290 0.956 . S
C278 H291 0.961 . S
C278 H292 0.961 . S
C279 C276 1.539 . S
C279 H293 0.958 . S
C279 H294 0.961 . S
C279 H295 0.960 . S
H280 C264 0.931 . S
H281 C269 0.929 . S
H282 C270 0.960 . S
H283 C270 0.962 . S
H284 C270 0.960 . S
H285 C271 0.961 . S
H286 C271 0.961 . S
H287 C271 0.961 . S
H288 C272 0.931 . S
H289 C277 0.930 . S
H290 C278 0.956 . S
H291 C278 0.961 . S
H292 C278 0.961 . S
H293 C279 0.958 . S
H294 C279 0.961 . S
H295 C279 0.960 . S
C296 C297 1.391 . S
C296 C298 1.394 . S
C296 H312 0.931 . S
C297 C296 1.391 . S
C297 C301 1.376 . S
C298 C296 1.394 . S
C298 C299 1.369 . S
C298 C302 1.531 . S
C299 C298 1.369 . S
C299 C300 1.410 . S
C299 C307 1.503 1_455 S
C300 C299 1.410 . S
C300 C301 1.392 . S
C300 C303 1.511 1_455 S
C301 C297 1.376 . S
C301 C300 1.392 . S
C301 H313 0.929 . S
C302 C298 1.531 . S
C302 H314 0.960 . S
C302 H315 0.962 . S
C302 H316 0.960 . S
C303 C300 1.511 1_655 S
C303 H317 0.961 . S
C303 H318 0.961 . S
C303 H319 0.961 . S
C304 C305 1.370 . S
C304 C306 1.363 . S
C304 H320 0.931 . S
C305 C304 1.370 . S
C305 C309 1.408 . S
C306 C304 1.363 . S
C306 C307 1.370 . S
C306 C310 1.524 . S
C307 C299 1.503 1_655 S
C307 C306 1.370 . S
C307 C308 1.403 . S
C308 C307 1.403 . S
C308 C309 1.404 . S
C308 C311 1.539 1_655 S
C309 C305 1.408 . S
C309 C308 1.404 . S
C309 H321 0.930 . S
C310 C306 1.524 . S
C310 H322 0.956 . S
C310 H323 0.961 . S
C310 H324 0.961 . S
C311 C308 1.539 1_455 S
C311 H325 0.958 . S
C311 H326 0.961 1_455 S
C311 H327 0.960 . S
H312 C296 0.931 . S
H313 C301 0.929 . S
H314 C302 0.960 . S
H315 C302 0.962 . S
H316 C302 0.960 . S
H317 C303 0.961 . S
H318 C303 0.961 . S
H319 C303 0.961 . S
H320 C304 0.931 . S
H321 C309 0.930 . S
H322 C310 0.956 . S
H323 C310 0.961 . S
H324 C310 0.961 . S
H325 C311 0.958 . S
H326 C311 0.961 1_655 S
H327 C311 0.960 . S
C328 C329 1.391 . S
C328 C330 1.394 . S
C328 H344 0.931 . S
C329 C328 1.391 . S
C329 C333 1.376 . S
C330 C328 1.394 . S
C330 C331 1.369 . S
C330 C334 1.531 1_556 S
C331 C330 1.369 . S
C331 C332 1.410 . S
C331 C339 1.503 1_546 S
C332 C331 1.410 . S
C332 C333 1.392 . S
C332 C335 1.511 1_545 S
C333 C329 1.376 . S
C333 C332 1.392 . S
C333 H345 0.929 . S
C334 C330 1.531 1_554 S
C334 H346 0.960 . S
C334 H347 0.962 . S
C334 H348 0.960 . S
C335 C332 1.511 1_565 S
C335 H349 0.961 . S
C335 H350 0.961 . S
C335 H351 0.970 . S
C336 C337 1.370 . S
C336 C338 1.363 . S
C336 H352 0.931 . S
C337 C336 1.370 . S
C337 C341 1.408 . S
C338 C336 1.363 . S
C338 C339 1.370 . S
C338 C342 1.524 1_554 S
C339 C331 1.503 1_564 S
C339 C338 1.370 . S
C339 C340 1.403 . S
C340 C339 1.403 . S
C340 C341 1.404 . S
C340 C343 1.539 1_565 S
C341 C337 1.408 . S
C341 C340 1.404 . S
C341 H353 0.930 . S
C342 C338 1.524 1_556 S
C342 H354 0.956 . S
C342 H355 0.961 . S
C342 H356 0.961 . S
C343 C340 1.539 1_545 S
C343 H357 0.958 . S
C343 H358 0.961 . S
C343 H359 0.960 . S
H344 C328 0.931 . S
H345 C333 0.929 . S
H346 C334 0.960 . S
H347 C334 0.962 . S
H348 C334 0.960 . S
H349 C335 0.961 . S
H350 C335 0.961 . S
H351 C335 0.970 . S
H352 C336 0.931 . S
H353 C341 0.930 . S
H354 C342 0.956 . S
H355 C342 0.961 . S
H356 C342 0.961 . S
H357 C343 0.958 . S
H358 C343 0.961 . S
H359 C343 0.960 . S
C360 C361 1.391 . S
C360 C362 1.394 . S
C360 H376 0.931 . S
C361 C360 1.391 . S
C361 C365 1.376 . S
C362 C360 1.394 . S
C362 C363 1.369 . S
C362 C366 1.531 . S
C363 C362 1.369 . S
C363 C364 1.410 . S
C363 C371 1.503 . S
C364 C363 1.410 . S
C364 C365 1.392 . S
C364 C367 1.511 . S
C365 C361 1.376 . S
C365 C364 1.392 . S
C365 H377 0.929 . S
C366 C362 1.531 . S
C366 H378 0.960 . S
C366 H379 0.962 . S
C366 H380 0.960 . S
C367 C364 1.511 . S
C367 H381 0.961 . S
C367 H382 0.961 . S
C367 H383 0.961 . S
C368 C369 1.370 . S
C368 C370 1.363 . S
C368 H384 0.931 . S
C369 C368 1.370 . S
C369 C373 1.408 . S
C370 C368 1.363 . S
C370 C371 1.370 . S
C370 C374 1.524 . S
C371 C363 1.503 . S
C371 C370 1.370 . S
C371 C372 1.403 . S
C372 C371 1.403 . S
C372 C373 1.404 . S
C372 C375 1.539 . S
C373 C369 1.408 . S
C373 C372 1.404 . S
C373 H385 0.930 . S
C374 C370 1.524 . S
C374 H386 0.956 . S
C374 H387 0.961 . S
C374 H388 0.961 . S
C375 C372 1.539 . S
C375 H389 0.958 . S
C375 H390 0.961 . S
C375 H391 0.960 . S
H376 C360 0.931 . S
H377 C365 0.929 . S
H378 C366 0.960 . S
H379 C366 0.962 . S
H380 C366 0.960 . S
H381 C367 0.961 . S
H382 C367 0.961 . S
H383 C367 0.961 . S
H384 C368 0.931 . S
H385 C373 0.930 . S
H386 C374 0.956 . S
H387 C374 0.961 . S
H388 C374 0.961 . S
H389 C375 0.958 . S
H390 C375 0.961 . S
H391 C375 0.960 . S
C392 C393 1.391 . S
C392 C394 1.394 . S
C392 H408 0.931 . S
C393 C392 1.391 . S
C393 C397 1.376 . S
C394 C392 1.394 . S
C394 C395 1.369 . S
C394 C398 1.531 . S
C395 C394 1.369 . S
C395 C396 1.410 . S
C395 C403 1.503 . S
C396 C395 1.410 . S
C396 C397 1.392 . S
C396 C399 1.511 . S
C397 C393 1.376 . S
C397 C396 1.392 . S
C397 H409 0.929 . S
C398 C394 1.531 . S
C398 H410 0.960 . S
C398 H411 0.962 . S
C398 H412 0.960 . S
C399 C396 1.511 . S
C399 H413 0.961 . S
C399 H414 0.961 . S
C399 H415 0.961 . S
C400 C401 1.370 . S
C400 C402 1.363 . S
C400 H416 0.931 . S
C401 C400 1.370 . S
C401 C405 1.408 . S
C402 C400 1.363 . S
C402 C403 1.370 . S
C402 C406 1.524 . S
C403 C395 1.503 . S
C403 C402 1.370 . S
C403 C404 1.403 . S
C404 C403 1.403 . S
C404 C405 1.404 . S
C404 C407 1.539 . S
C405 C401 1.408 . S
C405 C404 1.404 . S
C405 H417 0.930 . S
C406 C402 1.524 . S
C406 H418 0.956 . S
C406 H419 0.961 . S
C406 H420 0.961 . S
C407 C404 1.539 . S
C407 H421 0.958 . S
C407 H422 0.961 . S
C407 H423 0.960 . S
H408 C392 0.931 . S
H409 C397 0.929 . S
H410 C398 0.960 . S
H411 C398 0.962 . S
H412 C398 0.960 . S
H413 C399 0.961 . S
H414 C399 0.961 . S
H415 C399 0.961 . S
H416 C400 0.931 . S
H417 C405 0.930 . S
H418 C406 0.956 . S
H419 C406 0.961 . S
H420 C406 0.961 . S
H421 C407 0.958 . S
H422 C407 0.961 . S
H423 C407 0.960 . S
C424 C425 1.391 . S
C424 C426 1.394 . S
C424 H440 0.931 . S
C425 C424 1.391 . S
C425 C429 1.376 . S
C426 C424 1.394 . S
C426 C427 1.369 . S
C426 C430 1.531 . S
C427 C426 1.369 . S
C427 C428 1.410 . S
C427 C435 1.503 . S
C428 C427 1.410 . S
C428 C429 1.392 . S
C428 C431 1.511 . S
C429 C425 1.376 . S
C429 C428 1.392 . S
C429 H441 0.929 . S
C430 C426 1.531 . S
C430 H442 0.960 . S
C430 H443 0.962 . S
C430 H444 0.960 . S
C431 C428 1.511 . S
C431 H445 0.961 . S
C431 H446 0.961 . S
C431 H447 0.961 . S
C432 C433 1.370 . S
C432 C434 1.363 . S
C432 H448 0.931 . S
C433 C432 1.370 . S
C433 C437 1.408 . S
C434 C432 1.363 . S
C434 C435 1.370 . S
C434 C438 1.524 . S
C435 C427 1.503 . S
C435 C434 1.370 . S
C435 C436 1.403 . S
C436 C435 1.403 . S
C436 C437 1.404 . S
C436 C439 1.539 . S
C437 C433 1.408 . S
C437 C436 1.404 . S
C437 H449 0.930 . S
C438 C434 1.524 . S
C438 H450 0.956 . S
C438 H451 0.961 . S
C438 H452 0.961 . S
C439 C436 1.539 . S
C439 H453 0.958 . S
C439 H454 0.961 . S
C439 H455 0.960 . S
H440 C424 0.931 . S
H441 C429 0.929 . S
H442 C430 0.960 . S
H443 C430 0.962 . S
H444 C430 0.960 . S
H445 C431 0.961 . S
H446 C431 0.961 . S
H447 C431 0.961 . S
H448 C432 0.931 . S
H449 C437 0.930 . S
H450 C438 0.956 . S
H451 C438 0.961 . S
H452 C438 0.961 . S
H453 C439 0.958 . S
H454 C439 0.961 . S
H455 C439 0.960 . S
C456 C457 1.391 . S
C456 C458 1.394 . S
C456 H472 0.931 . S
C457 C456 1.391 . S
C457 C461 1.376 . S
C458 C456 1.394 . S
C458 C459 1.369 . S
C458 C462 1.531 . S
C459 C458 1.369 . S
C459 C460 1.410 . S
C459 C467 1.503 . S
C460 C459 1.410 . S
C460 C461 1.392 . S
C460 C463 1.511 . S
C461 C457 1.376 . S
C461 C460 1.392 . S
C461 H473 0.929 . S
C462 C458 1.531 . S
C462 H474 0.960 . S
C462 H475 0.962 . S
C462 H476 0.960 . S
C463 C460 1.511 . S
C463 H477 0.961 . S
C463 H478 0.961 . S
C463 H479 0.961 . S
C464 C465 1.370 . S
C464 C466 1.363 . S
C464 H480 0.923 1_556 S
C465 C464 1.370 . S
C465 C469 1.408 . S
C466 C464 1.363 . S
C466 C467 1.370 . S
C466 C470 1.524 1_556 S
C467 C459 1.503 . S
C467 C466 1.370 . S
C467 C468 1.403 . S
C468 C467 1.403 . S
C468 C469 1.404 . S
C468 C471 1.539 . S
C469 C465 1.408 . S
C469 C468 1.404 . S
C469 H481 0.930 . S
C470 C466 1.524 1_554 S
C470 H482 0.956 1_554 S
C470 H483 0.961 . S
C470 H484 0.961 . S
C471 C468 1.539 . S
C471 H485 0.958 . S
C471 H486 0.961 . S
C471 H487 0.960 . S
H472 C456 0.931 . S
H473 C461 0.929 . S
H474 C462 0.960 . S
H475 C462 0.962 . S
H476 C462 0.960 . S
H477 C463 0.961 . S
H478 C463 0.961 . S
H479 C463 0.961 . S
H480 C464 0.923 1_554 S
H481 C469 0.930 . S
H482 C470 0.956 1_556 S
H483 C470 0.961 . S
H484 C470 0.961 . S
H485 C471 0.958 . S
H486 C471 0.961 . S
H487 C471 0.960 . S
C488 C489 1.391 . S
C488 C490 1.394 . S
C488 H504 0.931 . S
C489 C488 1.391 . S
C489 C493 1.376 . S
C490 C488 1.394 . S
C490 C491 1.369 . S
C490 C494 1.531 . S
C491 C490 1.369 . S
C491 C492 1.410 . S
C491 C499 1.503 . S
C492 C491 1.410 . S
C492 C493 1.392 . S
C492 C495 1.511 . S
C493 C489 1.376 . S
C493 C492 1.392 . S
C493 H505 0.929 . S
C494 C490 1.531 . S
C494 H506 0.960 . S
C494 H507 0.962 . S
C494 H508 0.960 . S
C495 C492 1.511 . S
C495 H509 0.961 . S
C495 H510 0.961 . S
C495 H511 0.961 1_554 S
C496 C497 1.370 . S
C496 C498 1.363 . S
C496 H512 0.931 . S
C497 C496 1.370 . S
C497 C501 1.408 . S
C498 C496 1.363 . S
C498 C499 1.370 . S
C498 C502 1.524 . S
C499 C491 1.503 . S
C499 C498 1.370 . S
C499 C500 1.403 . S
C500 C499 1.403 . S
C500 C501 1.404 . S
C500 C503 1.539 1_554 S
C501 C497 1.408 . S
C501 C500 1.404 . S
C501 H513 0.930 1_554 S
C502 C498 1.524 . S
C502 H514 0.956 . S
C502 H515 0.961 . S
C502 H516 0.961 . S
C503 C500 1.539 1_556 S
C503 H517 0.958 . S
C503 H518 0.961 . S
C503 H519 0.960 . S
H504 C488 0.931 . S
H505 C493 0.929 . S
H506 C494 0.960 . S
H507 C494 0.962 . S
H508 C494 0.960 . S
H509 C495 0.961 . S
H510 C495 0.961 . S
H511 C495 0.961 1_556 S
H512 C496 0.931 . S
H513 C501 0.930 1_556 S
H514 C502 0.956 . S
H515 C502 0.961 . S
H516 C502 0.961 . S
H517 C503 0.958 . S
H518 C503 0.961 . S
H519 C503 0.960 . S
C520 C521 1.391 . S
C520 C522 1.394 . S
C520 H536 0.931 . S
C521 C520 1.391 . S
C521 C525 1.376 . S
C522 C520 1.394 . S
C522 C523 1.369 . S
C522 C526 1.531 . S
C523 C522 1.369 . S
C523 C524 1.410 . S
C523 C531 1.503 . S
C524 C523 1.410 . S
C524 C525 1.392 . S
C524 C527 1.511 . S
C525 C521 1.376 . S
C525 C524 1.392 . S
C525 H537 0.929 . S
C526 C522 1.531 . S
C526 H538 0.960 . S
C526 H539 0.962 . S
C526 H540 0.960 . S
C527 C524 1.511 . S
C527 H541 0.961 . S
C527 H542 0.961 . S
C527 H543 0.961 . S
C528 C529 1.370 . S
C528 C530 1.363 . S
C528 H544 0.931 . S
C529 C528 1.370 . S
C529 C533 1.408 . S
C530 C528 1.363 . S
C530 C531 1.370 . S
C530 C534 1.524 . S
C531 C523 1.503 . S
C531 C530 1.370 . S
C531 C532 1.403 . S
C532 C531 1.403 . S
C532 C533 1.404 . S
C532 C535 1.539 . S
C533 C529 1.408 . S
C533 C532 1.404 . S
C533 H545 0.930 . S
C534 C530 1.524 . S
C534 H546 0.956 . S
C534 H547 0.961 . S
C534 H548 0.961 . S
C535 C532 1.539 . S
C535 H549 0.958 . S
C535 H550 0.961 . S
C535 H551 0.960 . S
H536 C520 0.931 . S
H537 C525 0.929 . S
H538 C526 0.960 . S
H539 C526 0.962 . S
H540 C526 0.960 . S
H541 C527 0.961 . S
H542 C527 0.961 . S
H543 C527 0.961 . S
H544 C528 0.931 . S
H545 C533 0.930 . S
H546 C534 0.956 . S
H547 C534 0.961 . S
H548 C534 0.961 . S
H549 C535 0.958 . S
H550 C535 0.961 . S
H551 C535 0.960 . S
C552 C553 1.391 . S
C552 C554 1.394 . S
C552 H568 0.931 . S
C553 C552 1.391 . S
C553 C557 1.376 . S
C554 C552 1.394 . S
C554 C555 1.369 . S
C554 C558 1.531 . S
C555 C554 1.369 . S
C555 C556 1.410 . S
C555 C563 1.503 . S
C556 C555 1.410 . S
C556 C557 1.392 . S
C556 C559 1.511 . S
C557 C553 1.376 . S
C557 C556 1.392 . S
C557 H569 0.929 . S
C558 C554 1.531 . S
C558 H570 0.960 . S
C558 H571 0.962 . S
C558 H572 0.960 . S
C559 C556 1.511 . S
C559 H573 0.961 . S
C559 H574 0.961 . S
C559 H575 0.961 . S
C560 C561 1.370 . S
C560 C562 1.363 . S
C560 H576 0.931 . S
C561 C560 1.370 . S
C561 C565 1.408 . S
C562 C560 1.363 . S
C562 C563 1.370 . S
C562 C566 1.524 . S
C563 C555 1.503 . S
C563 C562 1.370 . S
C563 C564 1.403 . S
C564 C563 1.403 . S
C564 C565 1.404 . S
C564 C567 1.539 . S
C565 C561 1.408 . S
C565 C564 1.404 . S
C565 H577 0.930 . S
C566 C562 1.524 . S
C566 H578 0.956 . S
C566 H579 0.961 . S
C566 H580 0.961 . S
C567 C564 1.539 . S
C567 H581 0.958 . S
C567 H582 0.961 . S
C567 H583 0.960 . S
H568 C552 0.931 . S
H569 C557 0.929 . S
H570 C558 0.960 . S
H571 C558 0.962 . S
H572 C558 0.960 . S
H573 C559 0.961 . S
H574 C559 0.961 . S
H575 C559 0.961 . S
H576 C560 0.931 . S
H577 C565 0.930 . S
H578 C566 0.956 . S
H579 C566 0.961 . S
H580 C566 0.961 . S
H581 C567 0.958 . S
H582 C567 0.961 . S
H583 C567 0.960 . S
C584 C585 1.391 . S
C584 C586 1.394 . S
C584 H600 0.931 . S
C585 C584 1.391 . S
C585 C589 1.376 . S
C586 C584 1.394 . S
C586 C587 1.369 . S
C586 C590 1.531 . S
C587 C586 1.369 . S
C587 C588 1.410 . S
C587 C595 1.503 1_655 S
C588 C587 1.410 . S
C588 C589 1.392 . S
C588 C591 1.511 . S
C589 C585 1.376 . S
C589 C588 1.392 . S
C589 H601 0.929 . S
C590 C586 1.531 . S
C590 H602 0.960 . S
C590 H603 0.962 . S
C590 H604 0.960 . S
C591 C588 1.511 . S
C591 H605 0.961 . S
C591 H606 0.961 1_655 S
C591 H607 0.961 . S
C592 C593 1.370 . S
C592 C594 1.363 . S
C592 H608 0.931 . S
C593 C592 1.370 . S
C593 C597 1.408 . S
C594 C592 1.363 . S
C594 C595 1.370 . S
C594 C598 1.524 . S
C595 C587 1.503 1_455 S
C595 C594 1.370 . S
C595 C596 1.403 1_455 S
C596 C595 1.403 1_655 S
C596 C597 1.404 1_655 S
C596 C599 1.539 . S
C597 C593 1.408 . S
C597 C596 1.404 1_455 S
C597 H609 0.930 . S
C598 C594 1.524 . S
C598 H610 0.956 . S
C598 H611 0.961 . S
C598 H612 0.961 . S
C599 C596 1.539 . S
C599 H613 0.958 . S
C599 H614 0.961 . S
C599 H615 0.960 . S
H600 C584 0.931 . S
H601 C589 0.929 . S
H602 C590 0.960 . S
H603 C590 0.962 . S
H604 C590 0.960 . S
H605 C591 0.961 . S
H606 C591 0.961 1_455 S
H607 C591 0.961 . S
H608 C592 0.931 . S
H609 C597 0.930 . S
H610 C598 0.956 . S
H611 C598 0.961 . S
H612 C598 0.961 . S
H613 C599 0.958 . S
H614 C599 0.961 . S
H615 C599 0.960 . S
C616 C617 1.391 . S
C616 C618 1.394 . S
C616 H632 0.931 . S
C617 C616 1.391 . S
C617 C621 1.376 . S
C618 C616 1.394 . S
C618 C619 1.369 . S
C618 C622 1.546 . S
C619 C618 1.369 . S
C619 C620 1.410 . S
C619 C627 1.503 1_564 S
C620 C619 1.410 . S
C620 C621 1.392 . S
C620 C623 1.511 . S
C621 C617 1.376 . S
C621 C620 1.392 . S
C621 H633 0.929 . S
C622 C618 1.546 . S
C622 H634 0.946 1_565 S
C622 H635 0.967 . S
C622 H636 0.957 . S
C623 C620 1.511 . S
C623 H637 0.961 . S
C623 H638 0.961 1_554 S
C623 H639 0.961 1_565 S
C624 C625 1.370 . S
C624 C626 1.363 . S
C624 H640 0.931 . S
C625 C624 1.370 . S
C625 C629 1.408 . S
C626 C624 1.363 . S
C626 C627 1.370 . S
C626 C630 1.524 1_545 S
C627 C619 1.503 1_546 S
C627 C626 1.370 . S
C627 C628 1.403 . S
C628 C627 1.403 . S
C628 C629 1.404 . S
C628 C631 1.539 1_556 S
C629 C625 1.408 . S
C629 C628 1.404 . S
C629 H641 0.930 . S
C630 C626 1.524 1_565 S
C630 H642 0.956 . S
C630 H643 0.961 . S
C630 H644 0.961 . S
C631 C628 1.539 1_554 S
C631 H645 0.958 . S
C631 H646 0.961 . S
C631 H647 0.960 . S
H632 C616 0.931 . S
H633 C621 0.929 . S
H634 C622 0.946 1_545 S
H635 C622 0.967 . S
H636 C622 0.957 . S
H637 C623 0.961 . S
H638 C623 0.961 1_556 S
H639 C623 0.961 1_545 S
H640 C624 0.931 . S
H641 C629 0.930 . S
H642 C630 0.956 . S
H643 C630 0.961 . S
H644 C630 0.961 . S
H645 C631 0.958 . S
H646 C631 0.961 . S
H647 C631 0.960 . S
C648 C649 1.391 . S
C648 C650 1.394 . S
C648 H664 0.931 . S
C649 C648 1.391 . S
C649 C653 1.376 . S
C650 C648 1.394 . S
C650 C651 1.369 . S
C650 C654 1.531 . S
C651 C650 1.369 . S
C651 C652 1.410 . S
C651 C659 1.503 . S
C652 C651 1.410 . S
C652 C653 1.392 . S
C652 C655 1.511 . S
C653 C649 1.376 . S
C653 C652 1.392 . S
C653 H665 0.929 . S
C654 C650 1.531 . S
C654 H666 0.960 . S
C654 H667 0.962 . S
C654 H668 0.960 . S
C655 C652 1.511 . S
C655 H669 0.961 . S
C655 H670 0.961 . S
C655 H671 0.961 . S
C656 C657 1.370 . S
C656 C658 1.363 . S
C656 H672 0.931 . S
C657 C656 1.370 . S
C657 C661 1.408 . S
C658 C656 1.363 . S
C658 C659 1.370 . S
C658 C662 1.524 . S
C659 C651 1.503 . S
C659 C658 1.370 . S
C659 C660 1.403 . S
C660 C659 1.403 . S
C660 C661 1.404 . S
C660 C663 1.539 . S
C661 C657 1.408 . S
C661 C660 1.404 . S
C661 H673 0.930 . S
C662 C658 1.524 . S
C662 H674 0.956 . S
C662 H675 0.961 . S
C662 H676 0.961 . S
C663 C660 1.539 . S
C663 H677 0.958 . S
C663 H678 0.961 . S
C663 H679 0.960 . S
H664 C648 0.931 . S
H665 C653 0.929 . S
H666 C654 0.960 . S
H667 C654 0.962 . S
H668 C654 0.960 . S
H669 C655 0.961 . S
H670 C655 0.961 . S
H671 C655 0.961 . S
H672 C656 0.931 . S
H673 C661 0.930 . S
H674 C662 0.956 . S
H675 C662 0.961 . S
H676 C662 0.961 . S
H677 C663 0.958 . S
H678 C663 0.961 . S
H679 C663 0.960 . S
C680 C681 1.391 . S
C680 C682 1.394 . S
C680 H696 0.931 . S
C681 C680 1.391 . S
C681 C685 1.376 . S
C682 C680 1.394 . S
C682 C683 1.369 . S
C682 C686 1.531 . S
C683 C682 1.369 . S
C683 C684 1.410 . S
C683 C691 1.503 1_455 S
C684 C683 1.410 . S
C684 C685 1.392 . S
C684 C687 1.511 . S
C685 C681 1.376 . S
C685 C684 1.392 . S
C685 H697 0.929 . S
C686 C682 1.531 . S
C686 H698 0.960 . S
C686 H699 0.962 . S
C686 H700 0.960 . S
C687 C684 1.511 . S
C687 H701 0.963 1_455 S
C687 H702 0.961 1_455 S
C687 H703 0.961 . S
C688 C689 1.370 . S
C688 C690 1.363 . S
C688 H704 0.931 . S
C689 C688 1.370 . S
C689 C693 1.408 . S
C690 C688 1.363 . S
C690 C691 1.370 . S
C690 C694 1.524 . S
C691 C683 1.503 1_655 S
C691 C690 1.370 . S
C691 C692 1.390 1_655 S
C692 C691 1.390 1_455 S
C692 C693 1.383 1_455 S
C692 C695 1.574 . S
C693 C689 1.408 . S
C693 C692 1.383 1_655 S
C693 H705 0.930 . S
C694 C690 1.524 . S
C694 H706 0.956 . S
C694 H707 0.961 . S
C694 H708 0.961 . S
C695 C692 1.574 . S
C695 H709 0.958 . S
C695 H710 0.961 . S
C695 H711 0.960 . S
H696 C680 0.931 . S
H697 C685 0.929 . S
H698 C686 0.960 . S
H699 C686 0.962 . S
H700 C686 0.960 . S
H701 C687 0.963 1_655 S
H702 C687 0.961 1_655 S
H703 C687 0.961 . S
H704 C688 0.931 . S
H705 C693 0.930 . S
H706 C694 0.956 . S
H707 C694 0.961 . S
H708 C694 0.961 . S
H709 C695 0.958 . S
H710 C695 0.961 . S
H711 C695 0.960 . S
C712 C713 1.391 . S
C712 C714 1.394 . S
C712 H728 0.931 . S
C713 C712 1.391 . S
C713 C717 1.376 . S
C714 C712 1.394 . S
C714 C715 1.369 . S
C714 C718 1.531 . S
C715 C714 1.369 . S
C715 C716 1.410 . S
C715 C723 1.503 1_565 S
C716 C715 1.410 . S
C716 C717 1.392 . S
C716 C719 1.511 . S
C717 C713 1.376 . S
C717 C716 1.392 . S
C717 H729 0.929 . S
C718 C714 1.531 . S
C718 H730 0.960 . S
C718 H731 0.962 1_565 S
C718 H732 0.960 . S
C719 C716 1.511 . S
C719 H733 0.961 . S
C719 H734 0.961 . S
C719 H735 0.961 . S
C720 C721 1.370 . S
C720 C722 1.363 . S
C720 H736 0.931 . S
C721 C720 1.370 . S
C721 C725 1.408 . S
C722 C720 1.363 . S
C722 C723 1.370 . S
C722 C726 1.524 . S
C723 C715 1.503 1_545 S
C723 C722 1.370 . S
C723 C724 1.398 1_545 S
C724 C723 1.398 1_565 S
C724 C725 1.377 1_565 S
C724 C727 1.574 . S
C725 C721 1.408 . S
C725 C724 1.377 1_545 S
C725 H737 0.930 . S
C726 C722 1.524 . S
C726 H738 0.956 . S
C726 H739 0.961 . S
C726 H740 0.961 . S
C727 C724 1.574 . S
C727 H741 0.958 . S
C727 H742 0.961 . S
C727 H743 0.960 . S
H728 C712 0.931 . S
H729 C717 0.929 . S
H730 C718 0.960 . S
H731 C718 0.962 1_545 S
H732 C718 0.960 . S
H733 C719 0.961 . S
H734 C719 0.961 . S
H735 C719 0.961 . S
H736 C720 0.931 . S
H737 C725 0.930 . S
H738 C726 0.956 . S
H739 C726 0.961 . S
H740 C726 0.961 . S
H741 C727 0.958 . S
H742 C727 0.961 . S
H743 C727 0.960 . S
C744 C745 1.391 . S
C744 C746 1.394 . S
C744 H760 0.931 . S
C745 C744 1.391 . S
C745 C749 1.376 . S
C746 C744 1.394 . S
C746 C747 1.369 . S
C746 C750 1.531 . S
C747 C746 1.369 . S
C747 C748 1.410 . S
C747 C755 1.503 . S
C748 C747 1.410 . S
C748 C749 1.392 . S
C748 C751 1.511 . S
C749 C745 1.376 . S
C749 C748 1.392 . S
C749 H761 0.929 . S
C750 C746 1.531 . S
C750 H762 0.960 . S
C750 H763 0.962 . S
C750 H764 0.960 . S
C751 C748 1.511 . S
C751 H765 0.961 . S
C751 H766 0.961 . S
C751 H767 0.961 . S
C752 C753 1.370 . S
C752 C754 1.363 . S
C752 H768 0.931 . S
C753 C752 1.370 . S
C753 C757 1.408 . S
C754 C752 1.363 . S
C754 C755 1.370 . S
C754 C758 1.524 . S
C755 C747 1.503 . S
C755 C754 1.370 . S
C755 C756 1.403 . S
C756 C755 1.403 . S
C756 C757 1.404 . S
C756 C759 1.539 . S
C757 C753 1.408 . S
C757 C756 1.404 . S
C757 H769 0.930 . S
C758 C754 1.524 . S
C758 H770 0.956 . S
C758 H771 0.961 . S
C758 H772 0.961 . S
C759 C756 1.539 . S
C759 H773 0.958 . S
C759 H774 0.961 . S
C759 H775 0.960 . S
H760 C744 0.931 . S
H761 C749 0.929 . S
H762 C750 0.960 . S
H763 C750 0.962 . S
H764 C750 0.960 . S
H765 C751 0.961 . S
H766 C751 0.961 . S
H767 C751 0.961 . S
H768 C752 0.931 . S
H769 C757 0.930 . S
H770 C758 0.956 . S
H771 C758 0.961 . S
H772 C758 0.961 . S
H773 C759 0.958 . S
H774 C759 0.961 . S
H775 C759 0.960 . S
C776 C777 1.391 . S
C776 C778 1.394 . S
C776 H792 0.931 . S
C777 C776 1.391 . S
C777 C781 1.376 . S
C778 C776 1.394 . S
C778 C779 1.369 . S
C778 C782 1.531 . S
C779 C778 1.369 . S
C779 C780 1.410 . S
C779 C787 1.503 . S
C780 C779 1.410 . S
C780 C781 1.392 . S
C780 C783 1.511 . S
C781 C777 1.376 . S
C781 C780 1.392 . S
C781 H793 0.929 . S
C782 C778 1.531 . S
C782 H794 0.960 . S
C782 H795 0.962 . S
C782 H796 0.960 . S
C783 C780 1.511 . S
C783 H797 0.961 . S
C783 H798 0.961 . S
C783 H799 0.961 . S
C784 C785 1.370 . S
C784 C786 1.363 . S
C784 H800 0.931 . S
C785 C784 1.370 . S
C785 C789 1.408 . S
C786 C784 1.363 . S
C786 C787 1.370 . S
C786 C790 1.524 . S
C787 C779 1.503 . S
C787 C786 1.370 . S
C787 C788 1.403 . S
C788 C787 1.403 . S
C788 C789 1.404 . S
C788 C791 1.539 . S
C789 C785 1.408 . S
C789 C788 1.404 . S
C789 H801 0.930 . S
C790 C786 1.524 . S
C790 H802 0.956 . S
C790 H803 0.961 . S
C790 H804 0.961 . S
C791 C788 1.539 . S
C791 H805 0.958 . S
C791 H806 0.961 . S
C791 H807 0.960 . S
H792 C776 0.931 . S
H793 C781 0.929 . S
H794 C782 0.960 . S
H795 C782 0.962 . S
H796 C782 0.960 . S
H797 C783 0.961 . S
H798 C783 0.961 . S
H799 C783 0.961 . S
H800 C784 0.931 . S
H801 C789 0.930 . S
H802 C790 0.956 . S
H803 C790 0.961 . S
H804 C790 0.961 . S
H805 C791 0.958 . S
H806 C791 0.961 . S
H807 C791 0.960 . S
C808 C809 1.391 1_556 S
C808 C810 1.394 . S
C808 H824 0.931 . S
C809 C808 1.391 1_554 S
C809 C813 1.376 . S
C810 C808 1.394 . S
C810 C811 1.369 . S
C810 C814 1.531 . S
C811 C810 1.369 . S
C811 C812 1.410 . S
C811 C819 1.503 . S
C812 C811 1.410 . S
C812 C813 1.392 1_556 S
C812 C815 1.511 1_556 S
C813 C809 1.376 . S
C813 C812 1.392 1_554 S
C813 H825 0.929 . S
C814 C810 1.531 . S
C814 H826 0.960 . S
C814 H827 0.962 . S
C814 H828 0.960 . S
C815 C812 1.511 1_554 S
C815 H829 0.961 . S
C815 H830 0.961 1_554 S
C815 H831 0.961 . S
C816 C817 1.370 . S
C816 C818 1.363 . S
C816 H832 0.931 . S
C817 C816 1.370 . S
C817 C821 1.408 . S
C818 C816 1.363 . S
C818 C819 1.370 . S
C818 C822 1.524 . S
C819 C811 1.503 . S
C819 C818 1.370 . S
C819 C820 1.403 . S
C820 C819 1.403 . S
C820 C821 1.404 . S
C820 C823 1.539 . S
C821 C817 1.408 . S
C821 C820 1.404 . S
C821 H833 0.930 . S
C822 C818 1.524 . S
C822 H834 0.956 . S
C822 H835 0.961 . S
C822 H836 0.961 . S
C823 C820 1.539 . S
C823 H837 0.958 . S
C823 H838 0.961 . S
C823 H839 0.960 . S
H824 C808 0.931 . S
H825 C813 0.929 . S
H826 C814 0.960 . S
H827 C814 0.962 . S
H828 C814 0.960 . S
H829 C815 0.961 . S
H830 C815 0.961 1_556 S
H831 C815 0.961 . S
H832 C816 0.931 . S
H833 C821 0.930 . S
H834 C822 0.956 . S
H835 C822 0.961 . S
H836 C822 0.961 . S
H837 C823 0.958 . S
H838 C823 0.961 . S
H839 C823 0.960 . S
C840 C841 1.391 . S
C840 C842 1.394 . S
C840 H856 0.931 . S
C841 C840 1.391 . S
C841 C845 1.376 . S
C842 C840 1.394 . S
C842 C843 1.369 . S
C842 C846 1.531 . S
C843 C842 1.369 . S
C843 C844 1.410 . S
C843 C851 1.503 . S
C844 C843 1.410 . S
C844 C845 1.392 . S
C844 C847 1.511 . S
C845 C841 1.376 . S
C845 C844 1.392 . S
C845 H857 0.929 . S
C846 C842 1.531 . S
C846 H858 0.960 1_554 S
C846 H859 0.962 . S
C846 H860 0.960 1_554 S
C847 C844 1.511 . S
C847 H861 0.961 . S
C847 H862 0.961 . S
C847 H863 0.961 . S
C848 C849 1.370 1_554 S
C848 C850 1.363 . S
C848 H864 0.931 . S
C849 C848 1.370 1_556 S
C849 C853 1.408 . S
C850 C848 1.363 . S
C850 C851 1.370 . S
C850 C854 1.524 . S
C851 C843 1.503 . S
C851 C850 1.370 . S
C851 C852 1.403 . S
C852 C851 1.403 . S
C852 C853 1.404 1_554 S
C852 C855 1.539 . S
C853 C849 1.408 . S
C853 C852 1.404 1_556 S
C853 H865 0.930 . S
C854 C850 1.524 . S
C854 H866 0.956 . S
C854 H867 0.961 . S
C854 H868 0.961 . S
C855 C852 1.539 . S
C855 H869 0.958 . S
C855 H870 0.961 . S
C855 H871 0.960 . S
H856 C840 0.931 . S
H857 C845 0.929 . S
H858 C846 0.960 1_556 S
H859 C846 0.962 . S
H860 C846 0.960 1_556 S
H861 C847 0.961 . S
H862 C847 0.961 . S
H863 C847 0.961 . S
H864 C848 0.931 . S
H865 C853 0.930 . S
H866 C854 0.956 . S
H867 C854 0.961 . S
H868 C854 0.961 . S
H869 C855 0.958 . S
H870 C855 0.961 . S
H871 C855 0.960 . S
C872 C873 1.391 . S
C872 C874 1.394 . S
C872 H888 0.931 . S
C873 C872 1.391 . S
C873 C877 1.376 . S
C874 C872 1.394 . S
C874 C875 1.369 . S
C874 C878 1.531 . S
C875 C874 1.369 . S
C875 C876 1.410 . S
C875 C883 1.503 . S
C876 C875 1.410 . S
C876 C877 1.392 . S
C876 C879 1.511 . S
C877 C873 1.376 . S
C877 C876 1.392 . S
C877 H889 0.929 . S
C878 C874 1.531 . S
C878 H890 0.960 . S
C878 H891 0.962 . S
C878 H892 0.960 . S
C879 C876 1.511 . S
C879 H893 0.961 . S
C879 H894 0.961 . S
C879 H895 0.961 . S
C880 C881 1.370 . S
C880 C882 1.363 . S
C880 H896 0.931 . S
C881 C880 1.370 . S
C881 C885 1.408 . S
C882 C880 1.363 . S
C882 C883 1.370 . S
C882 C886 1.524 . S
C883 C875 1.503 . S
C883 C882 1.370 . S
C883 C884 1.403 . S
C884 C883 1.403 . S
C884 C885 1.404 . S
C884 C887 1.539 . S
C885 C881 1.408 . S
C885 C884 1.404 . S
C885 H897 0.930 . S
C886 C882 1.524 . S
C886 H898 0.956 . S
C886 H899 0.961 . S
C886 H900 0.961 . S
C887 C884 1.539 . S
C887 H901 0.958 . S
C887 H902 0.961 . S
C887 H903 0.960 . S
H888 C872 0.931 . S
H889 C877 0.929 . S
H890 C878 0.960 . S
H891 C878 0.962 . S
H892 C878 0.960 . S
H893 C879 0.961 . S
H894 C879 0.961 . S
H895 C879 0.961 . S
H896 C880 0.931 . S
H897 C885 0.930 . S
H898 C886 0.956 . S
H899 C886 0.961 . S
H900 C886 0.961 . S
H901 C887 0.958 . S
H902 C887 0.961 . S
H903 C887 0.960 . S
C904 C905 1.391 . S
C904 C906 1.394 . S
C904 H920 0.931 . S
C905 C904 1.391 . S
C905 C909 1.376 . S
C906 C904 1.394 . S
C906 C907 1.369 . S
C906 C910 1.531 . S
C907 C906 1.369 . S
C907 C908 1.410 . S
C907 C915 1.503 . S
C908 C907 1.410 . S
C908 C909 1.392 . S
C908 C911 1.511 . S
C909 C905 1.376 . S
C909 C908 1.392 . S
C909 H921 0.929 . S
C910 C906 1.531 . S
C910 H922 0.960 . S
C910 H923 0.962 . S
C910 H924 0.960 . S
C911 C908 1.511 . S
C911 H925 0.961 . S
C911 H926 0.961 . S
C911 H927 0.961 . S
C912 C913 1.370 . S
C912 C914 1.363 . S
C912 H928 0.931 . S
C913 C912 1.370 . S
C913 C917 1.408 . S
C914 C912 1.363 . S
C914 C915 1.370 . S
C914 C918 1.524 . S
C915 C907 1.503 . S
C915 C914 1.370 . S
C915 C916 1.403 . S
C916 C915 1.403 . S
C916 C917 1.404 . S
C916 C919 1.539 . S
C917 C913 1.408 . S
C917 C916 1.404 . S
C917 H929 0.930 . S
C918 C914 1.524 . S
C918 H930 0.956 . S
C918 H931 0.961 . S
C918 H932 0.961 . S
C919 C916 1.539 . S
C919 H933 0.958 . S
C919 H934 0.961 . S
C919 H935 0.960 . S
H920 C904 0.931 . S
H921 C909 0.929 . S
H922 C910 0.960 . S
H923 C910 0.962 . S
H924 C910 0.960 . S
H925 C911 0.961 . S
H926 C911 0.961 . S
H927 C911 0.961 . S
H928 C912 0.931 . S
H929 C917 0.930 . S
H930 C918 0.956 . S
H931 C918 0.961 . S
H932 C918 0.961 . S
H933 C919 0.958 . S
H934 C919 0.961 . S
H935 C919 0.960 . S
C169 C135 1.553 1_554 S
C177 C9 1.545 . S
C201 C23 1.549 . S
C209 C149 1.544 . S
C233 C163 1.525 . S
C241 C37 1.552 . S
C265 C93 1.570 . S
C273 C51 1.552 . S
C297 C107 1.575 . S
C305 C65 1.561 1_556 S
C329 C121 1.574 . S
C337 C79 1.556 . S
C361 C87 1.534 . S
C369 C3 1.522 . S
C393 C17 1.503 . S
C401 C101 1.526 . S
C425 C115 1.532 . S
C433 C31 1.524 . S
C457 C45 1.523 . S
C465 C129 1.513 . S
C489 C143 1.500 . S
C497 C59 1.525 . S
C521 C73 1.535 . S
C529 C157 1.518 . S
C553 C133 1.343 . S
C561 C7 1.318 . S
C585 C147 1.314 . S
C593 C21 1.296 . S
C617 C161 1.292 . S
C625 C35 1.318 . S
C649 C49 1.269 . S
C657 C91 1.306 . S
C681 C105 1.307 . S
C689 C63 1.294 . S
C713 C77 1.328 . S
C721 C119 1.302 . S
C745 C8 1.194 . S
C753 C120 1.194 . S
C777 C134 1.195 . S
C785 C22 1.190 . S
C809 C148 1.191 . S
C817 C36 1.191 . S
C841 C162 1.186 . S
C849 C50 1.193 . S
C873 C92 1.201 . S
C881 C64 1.188 . S
C905 C106 1.183 . S
C913 C78 1.198 . S
