# Generated by pormake.
# Topology zfw, (5)-cn, num edge types: 1
# Building blocks:
#     Node 0, Type 0, BuildingBlock: BEQFEK_clean_sbu_0, # of connection points: 5
#     Node 1, Type 0, BuildingBlock: BEQFEK_clean_sbu_0, # of connection points: 5
#     Node 2, Type 0, BuildingBlock: BEQFEK_clean_sbu_0, # of connection points: 5
#     Node 3, Type 0, BuildingBlock: BEQFEK_clean_sbu_0, # of connection points: 5
#     Node 4, Type 0, BuildingBlock: BEQFEK_clean_sbu_0, # of connection points: 5
#     Node 5, Type 0, BuildingBlock: BEQFEK_clean_sbu_0, # of connection points: 5
#     Node 6, Type 0, BuildingBlock: BEQFEK_clean_sbu_0, # of connection points: 5
#     Node 7, Type 0, BuildingBlock: BEQFEK_clean_sbu_0, # of connection points: 5
#     Node 8, Type 0, BuildingBlock: BEQFEK_clean_sbu_0, # of connection points: 5
#     Node 9, Type 0, BuildingBlock: BEQFEK_clean_sbu_0, # of connection points: 5
#     Node 10, Type 0, BuildingBlock: BEQFEK_clean_sbu_0, # of connection points: 5
#     Node 11, Type 0, BuildingBlock: BEQFEK_clean_sbu_0, # of connection points: 5
#     Node 12, Type 0, BuildingBlock: BEQFEK_clean_sbu_0, # of connection points: 5
#     Node 13, Type 0, BuildingBlock: BEQFEK_clean_sbu_0, # of connection points: 5
#     Node 14, Type 0, BuildingBlock: BEQFEK_clean_sbu_0, # of connection points: 5
#     Node 15, Type 0, BuildingBlock: BEQFEK_clean_sbu_0, # of connection points: 5
#     Edge 16, Type (0, 0), BuildingBlock: UVAHIK_clean_linker_0, # of connection points: 2
#     Edge 17, Type (0, 0), BuildingBlock: UVAHIK_clean_linker_0, # of connection points: 2
#     Edge 18, Type (0, 0), BuildingBlock: UVAHIK_clean_linker_0, # of connection points: 2
#     Edge 19, Type (0, 0), BuildingBlock: UVAHIK_clean_linker_0, # of connection points: 2
#     Edge 20, Type (0, 0), BuildingBlock: UVAHIK_clean_linker_0, # of connection points: 2
#     Edge 21, Type (0, 0), BuildingBlock: UVAHIK_clean_linker_0, # of connection points: 2
#     Edge 22, Type (0, 0), BuildingBlock: UVAHIK_clean_linker_0, # of connection points: 2
#     Edge 23, Type (0, 0), BuildingBlock: UVAHIK_clean_linker_0, # of connection points: 2
#     Edge 24, Type (0, 0), BuildingBlock: UVAHIK_clean_linker_0, # of connection points: 2
#     Edge 25, Type (0, 0), BuildingBlock: UVAHIK_clean_linker_0, # of connection points: 2
#     Edge 26, Type (0, 0), BuildingBlock: UVAHIK_clean_linker_0, # of connection points: 2
#     Edge 27, Type (0, 0), BuildingBlock: UVAHIK_clean_linker_0, # of connection points: 2
#     Edge 28, Type (0, 0), BuildingBlock: UVAHIK_clean_linker_0, # of connection points: 2
#     Edge 29, Type (0, 0), BuildingBlock: UVAHIK_clean_linker_0, # of connection points: 2
#     Edge 30, Type (0, 0), BuildingBlock: UVAHIK_clean_linker_0, # of connection points: 2
#     Edge 31, Type (0, 0), BuildingBlock: UVAHIK_clean_linker_0, # of connection points: 2
#     Edge 32, Type (0, 0), BuildingBlock: UVAHIK_clean_linker_0, # of connection points: 2
#     Edge 33, Type (0, 0), BuildingBlock: UVAHIK_clean_linker_0, # of connection points: 2
#     Edge 34, Type (0, 0), BuildingBlock: UVAHIK_clean_linker_0, # of connection points: 2
#     Edge 35, Type (0, 0), BuildingBlock: UVAHIK_clean_linker_0, # of connection points: 2
#     Edge 36, Type (0, 0), BuildingBlock: UVAHIK_clean_linker_0, # of connection points: 2
#     Edge 37, Type (0, 0), BuildingBlock: UVAHIK_clean_linker_0, # of connection points: 2
#     Edge 38, Type (0, 0), BuildingBlock: UVAHIK_clean_linker_0, # of connection points: 2
#     Edge 39, Type (0, 0), BuildingBlock: UVAHIK_clean_linker_0, # of connection points: 2
#     Edge 40, Type (0, 0), BuildingBlock: UVAHIK_clean_linker_0, # of connection points: 2
#     Edge 41, Type (0, 0), BuildingBlock: UVAHIK_clean_linker_0, # of connection points: 2
#     Edge 42, Type (0, 0), BuildingBlock: UVAHIK_clean_linker_0, # of connection points: 2
#     Edge 43, Type (0, 0), BuildingBlock: UVAHIK_clean_linker_0, # of connection points: 2
#     Edge 44, Type (0, 0), BuildingBlock: UVAHIK_clean_linker_0, # of connection points: 2
#     Edge 45, Type (0, 0), BuildingBlock: UVAHIK_clean_linker_0, # of connection points: 2
#     Edge 46, Type (0, 0), BuildingBlock: UVAHIK_clean_linker_0, # of connection points: 2
#     Edge 47, Type (0, 0), BuildingBlock: UVAHIK_clean_linker_0, # of connection points: 2
#     Edge 48, Type (0, 0), BuildingBlock: UVAHIK_clean_linker_0, # of connection points: 2
#     Edge 49, Type (0, 0), BuildingBlock: UVAHIK_clean_linker_0, # of connection points: 2
#     Edge 50, Type (0, 0), BuildingBlock: UVAHIK_clean_linker_0, # of connection points: 2
#     Edge 51, Type (0, 0), BuildingBlock: UVAHIK_clean_linker_0, # of connection points: 2
#     Edge 52, Type (0, 0), BuildingBlock: UVAHIK_clean_linker_0, # of connection points: 2
#     Edge 53, Type (0, 0), BuildingBlock: UVAHIK_clean_linker_0, # of connection points: 2
#     Edge 54, Type (0, 0), BuildingBlock: UVAHIK_clean_linker_0, # of connection points: 2
#     Edge 55, Type (0, 0), BuildingBlock: UVAHIK_clean_linker_0, # of connection points: 2
# Relax obj value: 0.355
# Max RMSD: 0.220
# Mean RMSD: 0.220
data_MOF--net-zfw--node1-BEQFEK_clean_sbu_0--edge1-UVAHIK_clean_linker_0
_symmetry_space_group_name_H-M    P1
_symmetry_Int_Tables_number       1
_symmetry_cell_setting            triclinic
loop_
_symmetry_equiv_pos_as_xyz
'x, y, z'
_cell_length_a     89.3348
_cell_length_b     89.317471
_cell_length_c     21.888126
_cell_angle_alpha  89.961802
_cell_angle_beta   89.997044
_cell_angle_gamma 89.978866
loop_
_atom_site_label
_atom_site_type_symbol
_atom_site_fract_x
_atom_site_fract_y
_atom_site_fract_z
_atom_type_partial_charge
Co0 Co 0.01789 0.09571 0.28918 0.0
Co1 Co 0.02291 0.11183 0.16493 0.0
C2 C 0.9961 0.11824 0.24188 0.0
O3 O 0.00034 0.10886 0.28191 0.0
O4 O 0.00376 0.12057 0.19384 0.0
C5 C 0.00161 0.07976 0.38073 0.0
O6 O 0.98982 0.08366 0.34857 0.0
C7 C 0.017 0.11678 0.03678 0.0
C8 C 0.03904 0.12441 0.00326 0.0
C9 C 0.02493 0.11995 0.98392 0.0
N10 N 0.02614 0.11882 0.08463 0.0
N11 N 0.03913 0.1239 0.06464 0.0
C12 C 0.00175 0.10989 0.04186 0.0
H13 H 0.00013 0.1048 0.08763 0.0
H14 H 3e-05 0.1013 0.00599 0.0
H15 H 0.9932 0.11876 0.03524 0.0
C16 C 0.02186 0.06895 0.21305 0.0
N17 N 0.02052 0.08386 0.21934 0.0
N18 N 0.02316 0.09043 0.16661 0.0
C19 C 0.02667 0.07981 0.12511 0.0
C20 C 0.0258 0.06589 0.15322 0.0
C21 C 0.02067 0.05805 0.26478 0.0
H22 H 0.028 0.06172 0.30282 0.0
H23 H 0.00897 0.0579 0.28177 0.0
H24 H 0.02396 0.04657 0.25085 0.0
O25 O 0.03616 0.1078 0.3042 0.0
O26 O 0.03948 0.11926 0.21517 0.0
H27 H 0.03878 0.09257 0.05829 0.0
H28 H 0.03652 0.07316 0.03829 0.0
C29 C 0.03106 0.08288 0.06023 0.0
H30 H 0.02091 0.08546 0.03331 0.0
H31 H 0.0484 0.12589 0.09247 0.0
O32 O 0.0146 0.08323 0.36181 0.0
C33 C 0.04353 0.11666 0.26986 0.0
Co34 Co 0.17375 0.74507 0.55005 0.0
Co35 Co 0.15684 0.74927 0.42697 0.0
C36 C 0.15097 0.72294 0.50676 0.0
O37 O 0.1604 0.7276 0.54578 0.0
O38 O 0.14848 0.73017 0.45773 0.0
C39 C 0.18993 0.72912 0.64165 0.0
O40 O 0.18612 0.71728 0.60961 0.0
C41 C 0.1514 0.74309 0.29919 0.0
C42 C 0.14303 0.7649 0.26609 0.0
C43 C 0.14776 0.7509 0.24648 0.0
N44 N 0.14937 0.75221 0.34711 0.0
N45 N 0.14386 0.76505 0.3274 0.0
C46 C 0.15863 0.72799 0.30391 0.0
H47 H 0.16393 0.72648 0.34936 0.0
H48 H 0.16711 0.72642 0.26746 0.0
H49 H 0.14992 0.71925 0.29795 0.0
C50 C 0.20002 0.74859 0.47101 0.0
N51 N 0.18517 0.74723 0.47882 0.0
N52 N 0.17827 0.74972 0.42664 0.0
C53 C 0.18865 0.75317 0.38397 0.0
C54 C 0.20272 0.75239 0.41073 0.0
C55 C 0.21121 0.7476 0.52176 0.0
H56 H 0.20777 0.75514 0.55951 0.0
H57 H 0.2114 0.73599 0.53975 0.0
H58 H 0.22261 0.75077 0.50646 0.0
O59 O 0.16201 0.76359 0.56425 0.0
O60 O 0.14945 0.76591 0.47721 0.0
H61 H 0.17527 0.76495 0.31813 0.0
H62 H 0.19466 0.76331 0.29697 0.0
C63 C 0.18519 0.75752 0.31936 0.0
H64 H 0.18285 0.74732 0.29242 0.0
H65 H 0.14176 0.77429 0.35528 0.0
O66 O 0.1865 0.74207 0.62212 0.0
C67 C 0.15262 0.7705 0.53067 0.0
Co68 Co 0.52433 0.89973 0.80532 0.0
Co69 Co 0.51969 0.88349 0.6812 0.0
C70 C 0.54687 0.87803 0.75659 0.0
O71 O 0.54211 0.88694 0.79739 0.0
O72 O 0.53942 0.87569 0.70802 0.0
C73 C 0.54054 0.91578 0.89659 0.0
O74 O 0.55234 0.91197 0.86433 0.0
C75 C 0.52532 0.87827 0.55295 0.0
C76 C 0.50328 0.87034 0.52069 0.0
C77 C 0.51732 0.8748 0.50058 0.0
N78 N 0.51628 0.87636 0.60124 0.0
N79 N 0.50329 0.87112 0.58203 0.0
C80 C 0.54052 0.8853 0.55701 0.0
H81 H 0.54212 0.89076 0.60205 0.0
H82 H 0.54217 0.89364 0.52006 0.0
H83 H 0.54914 0.87645 0.55155 0.0
C84 C 0.51932 0.92635 0.72913 0.0
N85 N 0.52114 0.9115 0.73548 0.0
N86 N 0.51869 0.90485 0.68279 0.0
C87 C 0.5149 0.91536 0.64118 0.0
C88 C 0.51531 0.9293 0.66925 0.0
C89 C 0.52024 0.93728 0.78081 0.0
H90 H 0.51315 0.93333 0.81916 0.0
H91 H 0.53197 0.93785 0.79732 0.0
H92 H 0.5165 0.94863 0.76699 0.0
O93 O 0.50651 0.8872 0.82146 0.0
O94 O 0.50358 0.87542 0.73299 0.0
H95 H 0.5032 0.90246 0.57375 0.0
H96 H 0.50561 0.92182 0.55303 0.0
C97 C 0.51091 0.91215 0.57601 0.0
H98 H 0.52122 0.90948 0.55029 0.0
H99 H 0.49409 0.86916 0.61031 0.0
O100 O 0.52756 0.91227 0.87767 0.0
C101 C 0.49948 0.87799 0.78766 0.0
Co102 Co 0.36915 0.24737 0.04328 0.0
Co103 Co 0.38608 0.2444 0.91966 0.0
C104 C 0.39355 0.26839 0.01006 0.0
O105 O 0.3833 0.2642 0.04632 0.0
O106 O 0.39591 0.26154 0.96016 0.0
C107 C 0.35288 0.26289 0.13272 0.0
O108 O 0.35602 0.27428 0.09696 0.0
C109 C 0.39129 0.25552 0.79825 0.0
C110 C 0.39975 0.23566 0.74918 0.0
C111 C 0.39498 0.25031 0.74056 0.0
N112 N 0.39323 0.24434 0.83839 0.0
N113 N 0.39869 0.2326 0.80927 0.0
C114 C 0.38568 0.27076 0.81554 0.0
H115 H 0.39118 0.27451 0.85818 0.0
H116 H 0.37347 0.27025 0.82455 0.0
H117 H 0.38794 0.27906 0.77899 0.0
C118 C 0.3429 0.24721 0.96145 0.0
N119 N 0.35777 0.24755 0.97118 0.0
N120 N 0.36483 0.24577 0.91892 0.0
C121 C 0.3546 0.24384 0.87433 0.0
C122 C 0.34045 0.24497 0.89968 0.0
C123 C 0.33137 0.24857 0.01074 0.0
H124 H 0.3332 0.23967 0.04535 0.0
H125 H 0.33266 0.25954 0.03374 0.0
H126 H 0.31982 0.24775 0.99249 0.0
O127 O 0.38027 0.22811 0.05056 0.0
O128 O 0.39181 0.22576 0.96087 0.0
H129 H 0.34845 0.23242 0.79091 0.0
H130 H 0.3604 0.24835 0.78146 0.0
C131 C 0.35806 0.23856 0.81095 0.0
H132 H 0.36793 0.23106 0.81135 0.0
H133 H 0.40083 0.22226 0.82971 0.0
O134 O 0.35646 0.24976 0.11578 0.0
C135 C 0.38865 0.22081 0.01392 0.0
Co136 Co 0.02454 0.89813 0.69039 0.0
Co137 Co 0.02331 0.8818 0.81652 0.0
C138 C 0.00172 0.8745 0.71765 0.0
O139 O 0.00777 0.88402 0.6825 0.0
O140 O 0.00656 0.87244 0.77153 0.0
C141 C 0.01001 0.91422 0.60043 0.0
O142 O -0.00085 0.91245 0.64025 0.0
C143 C 0.00977 0.87848 0.93544 0.0
C144 C 0.028 0.86881 0.9909 0.0
C145 C 0.01369 0.87479 -0.00513 0.0
N146 N 0.02138 0.87535 0.89872 0.0
N147 N 0.03212 0.86919 0.93174 0.0
C148 C 0.99534 0.88511 0.9133 0.0
H149 H 0.99205 0.87984 0.86949 0.0
H150 H 0.99682 0.89725 0.90457 0.0
H151 H 0.98625 0.88348 0.9472 0.0
C152 C 0.02381 0.92487 0.76925 0.0
N153 N 0.02285 0.90997 0.76082 0.0
N154 N 0.02309 0.90316 0.81418 0.0
C155 C 0.02466 0.91357 0.85829 0.0
C156 C 0.02481 0.92759 0.83135 0.0
C157 C 0.0244 0.93612 0.71861 0.0
H158 H 0.03322 0.93289 0.68544 0.0
H159 H 0.01353 0.93617 0.69426 0.0
H160 H 0.0266 0.94759 0.73574 0.0
O161 O 0.04375 0.88693 0.69319 0.0
O162 O 0.0424 0.87474 0.78196 0.0
H163 H 0.03532 0.91962 0.94344 0.0
H164 H 0.01841 0.90907 0.95071 0.0
C165 C 0.02873 0.91031 0.92334 0.0
H166 H 0.03544 0.89992 0.92632 0.0
H167 H 0.04256 0.86606 0.91454 0.0
O168 O 0.02316 0.91008 0.61497 0.0
C169 C 0.04927 0.87793 0.73257 0.0
Co170 Co 0.3686 0.74917 0.93726 0.0
Co171 Co 0.38539 0.74711 0.0616 0.0
C172 C 0.39045 0.72466 0.96343 0.0
O173 O 0.38143 0.73139 0.92812 0.0
O174 O 0.39294 0.72946 0.01705 0.0
C175 C 0.351 0.73625 0.84689 0.0
O176 O 0.35246 0.72472 0.88377 0.0
C177 C 0.38972 0.7339 0.18084 0.0
C178 C 0.40082 0.75207 0.23195 0.0
C179 C 0.39451 0.73797 0.23874 0.0
N180 N 0.39261 0.74525 0.14241 0.0
N181 N 0.39961 0.75593 0.17274 0.0
C182 C 0.38246 0.71953 0.16167 0.0
H183 H 0.38755 0.71554 0.11848 0.0
H184 H 0.37039 0.72144 0.15268 0.0
H185 H 0.38377 0.71074 0.19711 0.0
C186 C 0.34229 0.75024 0.01911 0.0
N187 N 0.35708 0.74855 0.00924 0.0
N188 N 0.36415 0.74832 0.062 0.0
C189 C 0.35408 0.75025 0.10715 0.0
C190 C 0.33996 0.75122 0.08151 0.0
C191 C 0.33079 0.75117 0.96956 0.0
H192 H 0.33405 0.75995 0.93628 0.0
H193 H 0.33038 0.74033 0.945 0.0
H194 H 0.31948 0.75361 0.98777 0.0
O195 O 0.38131 0.7674 0.93686 0.0
O196 O 0.39342 0.76561 0.02544 0.0
H197 H 0.3686 0.75967 0.17544 0.0
H198 H 0.34901 0.76033 0.19449 0.0
C199 C 0.35788 0.75351 0.17245 0.0
H200 H 0.3588 0.74286 0.198 0.0
H201 H 0.40282 0.76616 0.15377 0.0
O202 O 0.356 0.74891 0.86379 0.0
C203 C 0.39069 0.77247 0.97561 0.0
Co204 Co 0.51855 0.09201 0.18058 0.0
Co205 Co 0.51867 0.11012 0.30229 0.0
C206 C 0.54189 0.11502 0.20635 0.0
O207 O 0.53592 0.10532 0.17183 0.0
O208 O 0.53645 0.11792 0.25864 0.0
C209 C 0.53226 0.07476 0.09015 0.0
O210 O 0.54391 0.07697 0.12569 0.0
C211 C 0.53087 0.11523 0.42261 0.0
C212 C 0.51202 0.12578 0.4715 0.0
C213 C 0.5262 0.11979 0.48012 0.0
N214 N 0.51976 0.11786 0.38274 0.0
N215 N 0.50867 0.12457 0.41175 0.0
C216 C 0.54551 0.10823 0.40523 0.0
H217 H 0.54951 0.11304 0.36152 0.0
H218 H 0.54399 0.09604 0.39808 0.0
H219 H 0.55412 0.11012 0.44093 0.0
C220 C 0.51782 0.06648 0.26619 0.0
N221 N 0.51898 0.08122 0.2542 0.0
N222 N 0.5182 0.08881 0.30564 0.0
C223 C 0.51606 0.07909 0.35197 0.0
C224 C 0.51607 0.0647 0.32861 0.0
C225 C 0.518 0.05451 0.21842 0.0
H226 H 0.50878 0.05651 0.18544 0.0
H227 H 0.52871 0.05508 0.19292 0.0
H228 H 0.51686 0.04317 0.23851 0.0
O229 O 0.49998 0.10406 0.17632 0.0
O230 O 0.50019 0.1173 0.26239 0.0
H231 H 0.50477 0.07445 0.43724 0.0
H232 H 0.52179 0.08489 0.44369 0.0
C233 C 0.51162 0.08337 0.41559 0.0
H234 H 0.50506 0.09387 0.4152 0.0
H235 H 0.49849 0.12747 0.39157 0.0
O236 O 0.51943 0.07892 0.10853 0.0
C237 C 0.49407 0.11369 0.2119 0.0
Co238 Co 0.17205 0.2471 0.44125 0.0
Co239 Co 0.15613 0.2455 0.56724 0.0
C240 C 0.1503 0.27067 0.4823 0.0
O241 O 0.15899 0.26479 0.44322 0.0
O242 O 0.14822 0.26461 0.53418 0.0
C243 C 0.18888 0.26248 0.35144 0.0
O244 O 0.18577 0.27417 0.38555 0.0
C245 C 0.15149 0.2528 0.69475 0.0
C246 C 0.14291 0.23134 0.73064 0.0
C247 C 0.1481 0.24531 0.74849 0.0
N248 N 0.14897 0.24346 0.6479 0.0
N249 N 0.14328 0.23087 0.66933 0.0
C250 C 0.15887 0.26777 0.68799 0.0
H251 H 0.16413 0.26886 0.64227 0.0
H252 H 0.16738 0.26956 0.72415 0.0
H253 H 0.15025 0.27663 0.69289 0.0
C254 C 0.19884 0.24375 0.51785 0.0
N255 N 0.18398 0.24556 0.51163 0.0
N256 N 0.17749 0.24432 0.56538 0.0
C257 C 0.18811 0.24127 0.60757 0.0
C258 C 0.20195 0.24101 0.57872 0.0
C259 C 0.20965 0.24336 0.46561 0.0
H260 H 0.20527 0.23593 0.42918 0.0
H261 H 0.21081 0.2548 0.44639 0.0
H262 H 0.22084 0.23926 0.48 0.0
O263 O 0.15973 0.2288 0.43163 0.0
O264 O 0.14809 0.2284 0.52129 0.0
H265 H 0.175 0.23121 0.67878 0.0
H266 H 0.19457 0.23268 0.69681 0.0
C267 C 0.18509 0.2383 0.6738 0.0
H268 H 0.18327 0.24906 0.69758 0.0
H269 H 0.14083 0.22153 0.64256 0.0
O270 O 0.18454 0.24957 0.36825 0.0
C271 C 0.15055 0.2228 0.46883 0.0
Co272 Co 0.86638 0.24695 0.42642 0.0
Co273 Co 0.88343 0.2486 0.55046 0.0
C274 C 0.88974 0.22447 0.4603 0.0
O275 O 0.87991 0.22958 0.42407 0.0
O276 O 0.89238 0.23079 0.51115 0.0
C277 C 0.84979 0.23179 0.33694 0.0
O278 O 0.85207 0.22046 0.37411 0.0
C279 C 0.89089 0.23795 0.67174 0.0
C280 C 0.89634 0.25889 0.72033 0.0
C281 C 0.894 0.24369 0.7292 0.0
N282 N 0.8908 0.2493 0.63156 0.0
N283 N 0.89452 0.26173 0.66041 0.0
C284 C 0.88767 0.22202 0.65481 0.0
H285 H 0.8954 0.21853 0.61785 0.0
H286 H 0.87611 0.22109 0.63667 0.0
H287 H 0.88919 0.21432 0.69412 0.0
C288 C 0.8402 0.24875 0.50736 0.0
N289 N 0.85502 0.24744 0.49833 0.0
N290 N 0.86204 0.24816 0.55112 0.0
C291 C 0.85178 0.25004 0.59574 0.0
C292 C 0.83764 0.25044 0.56938 0.0
C293 C 0.82895 0.24991 0.45688 0.0
H294 H 0.83331 0.25734 0.42036 0.0
H295 H 0.82714 0.23864 0.43693 0.0
H296 H 0.81809 0.25437 0.47338 0.0
O297 O 0.87814 0.26558 0.41865 0.0
O298 O 0.89017 0.26683 0.50741 0.0
H299 H 0.86332 0.26091 0.66909 0.0
H300 H 0.84541 0.25314 0.69097 0.0
C301 C 0.85546 0.25146 0.66221 0.0
H302 H 0.86092 0.24105 0.67773 0.0
H303 H 0.89491 0.27228 0.63994 0.0
O304 O 0.85384 0.24481 0.35335 0.0
C305 C 0.88713 0.27219 0.4549 0.0
Co306 Co 0.67707 0.74711 0.92189 0.0
Co307 Co 0.65937 0.74883 0.04447 0.0
C308 C 0.65502 0.77152 0.94622 0.0
O309 O 0.66434 0.76488 0.91194 0.0
O310 O 0.65212 0.76662 -0.00058 0.0
C311 C 0.69475 0.76002 0.83135 0.0
O312 O 0.69317 0.77165 0.86752 0.0
C313 C 0.65461 0.76169 0.16412 0.0
C314 C 0.64338 0.74336 0.21384 0.0
C315 C 0.64976 0.75739 0.22174 0.0
N316 N 0.65173 0.75051 0.12489 0.0
N317 N 0.64463 0.73975 0.15439 0.0
C318 C 0.662 0.77608 0.14599 0.0
H319 H 0.65727 0.78009 0.10214 0.0
H320 H 0.67414 0.77419 0.13871 0.0
H321 H 0.66039 0.78484 0.18133 0.0
C322 C 0.7028 0.74594 0.00672 0.0
N323 N 0.68808 0.74758 -0.00482 0.0
N324 N 0.68063 0.74758 0.04709 0.0
C325 C 0.69039 0.74548 0.09328 0.0
C326 C 0.70469 0.7447 0.06931 0.0
C327 C 0.71463 0.74525 0.95845 0.0
H328 H 0.71193 0.73617 0.92569 0.0
H329 H 0.71474 0.75595 0.93284 0.0
H330 H 0.72592 0.74335 0.97806 0.0
O331 O 0.6643 0.72898 0.91946 0.0
O332 O 0.65155 0.7304 0.00669 0.0
H333 H 0.67539 0.73564 0.15888 0.0
H334 H 0.69484 0.73483 0.18008 0.0
C335 C 0.68613 0.74181 0.15775 0.0
H336 H 0.68506 0.75228 0.1843 0.0
H337 H 0.64145 0.72959 0.13476 0.0
O338 O 0.69002 0.74734 0.84935 0.0
C339 C 0.65463 0.72377 0.9567 0.0
Co340 Co 0.67318 0.24394 0.05063 0.0
Co341 Co 0.6555 0.24847 0.92936 0.0
C342 C 0.64975 0.22225 0.01067 0.0
O343 O 0.65938 0.22682 0.04905 0.0
O344 O 0.64722 0.22942 0.96151 0.0
C345 C 0.68906 0.22832 0.14388 0.0
O346 O 0.68457 0.21637 0.11413 0.0
C347 C 0.65023 0.24205 0.80188 0.0
C348 C 0.64089 0.26345 0.7686 0.0
C349 C 0.6463 0.24969 0.7491 0.0
N350 N 0.64769 0.25106 0.84978 0.0
N351 N 0.6416 0.26363 0.82995 0.0
C352 C 0.65825 0.22736 0.80664 0.0
H353 H 0.6631 0.22585 0.85289 0.0
H354 H 0.66721 0.22652 0.77171 0.0
H355 H 0.65016 0.21818 0.79809 0.0
C356 C 0.69895 0.24599 0.96683 0.0
N357 N 0.68414 0.24554 0.97763 0.0
N358 N 0.67683 0.24841 0.92673 0.0
C359 C 0.68686 0.25132 0.88224 0.0
C360 C 0.70112 0.24958 0.90594 0.0
C361 C 0.71066 0.24306 0.01421 0.0
H362 H 0.71042 0.25218 0.0486 0.0
H363 H 0.7081 0.23241 0.03809 0.0
H364 H 0.72201 0.24233 -0.00609 0.0
O365 O 0.66174 0.26265 0.06506 0.0
O366 O 0.64881 0.2655 0.97918 0.0
H367 H 0.69244 0.26513 0.80456 0.0
H368 H 0.6817 0.24878 0.78727 0.0
C369 C 0.68318 0.25788 0.82103 0.0
H370 H 0.67285 0.26469 0.82363 0.0
H371 H 0.63908 0.27277 0.85776 0.0
O372 O 0.68632 0.24121 0.12185 0.0
C373 C 0.65242 0.26991 0.03243 0.0
Co374 Co 0.87203 0.74872 0.53517 0.0
Co375 Co 0.88712 0.7441 0.40868 0.0
C376 C 0.89497 0.7701 0.48738 0.0
O377 O 0.88576 0.76584 0.528 0.0
O378 O 0.89672 0.76275 0.43819 0.0
C379 C 0.85653 0.76554 0.62568 0.0
O380 O 0.86058 0.77708 0.59236 0.0
C381 C 0.89143 0.75034 0.28045 0.0
C382 C 0.89786 0.7281 0.24498 0.0
C383 C 0.89379 0.74243 0.22688 0.0
N384 N 0.89351 0.74097 0.32759 0.0
N385 N 0.89791 0.72785 0.30637 0.0
C386 C 0.88519 0.76583 0.28702 0.0
H387 H 0.88049 0.76751 0.33344 0.0
H388 H 0.87642 0.76801 0.25222 0.0
H389 H 0.89433 0.77404 0.27972 0.0
C390 C 0.84466 0.7457 0.46173 0.0
N391 N 0.85962 0.74688 0.46634 0.0
N392 N 0.86577 0.74452 0.41255 0.0
C393 C 0.8548 0.74139 0.37202 0.0
C394 C 0.84112 0.74218 0.40193 0.0
C395 C 0.83414 0.74647 0.5149 0.0
H396 H 0.8382 0.73899 0.55185 0.0
H397 H 0.83394 0.75808 0.53281 0.0
H398 H 0.82261 0.7431 0.50207 0.0
O399 O 0.88357 0.72989 0.54765 0.0
O400 O 0.89415 0.72697 0.45657 0.0
H401 H 0.86665 0.72912 0.30305 0.0
H402 H 0.84729 0.73244 0.28471 0.0
C403 C 0.85736 0.73728 0.30649 0.0
H404 H 0.86029 0.74746 0.2804 0.0
H405 H 0.89973 0.71842 0.3335 0.0
O406 O 0.85995 0.75239 0.6085 0.0
C407 C 0.89184 0.72252 0.51096 0.0
Co408 Co 0.52139 0.59567 0.80821 0.0
Co409 Co 0.52316 0.61059 0.67951 0.0
C410 C 0.49861 0.61798 0.76651 0.0
O411 O 0.50396 0.60911 0.80617 0.0
O412 O 0.5049 0.61963 0.71492 0.0
C413 C 0.50563 0.57962 0.8963 0.0
O414 O 0.49503 0.58114 0.85518 0.0
C415 C 0.51195 0.61553 0.55748 0.0
C416 C 0.53242 0.62027 0.50446 0.0
C417 C 0.5172 0.61755 0.4985 0.0
N418 N 0.52358 0.61644 0.59611 0.0
N419 N 0.53573 0.61972 0.56447 0.0
C420 C 0.49623 0.61229 0.57738 0.0
H421 H 0.49249 0.62128 0.60858 0.0
H422 H 0.4959 0.60161 0.60331 0.0
H423 H 0.48833 0.61189 0.53838 0.0
C424 C 0.52347 0.56813 0.73453 0.0
N425 N 0.52224 0.58309 0.73967 0.0
N426 N 0.52311 0.58925 0.68513 0.0
C427 C 0.52499 0.5783 0.64339 0.0
C428 C 0.52525 0.56461 0.67339 0.0
C429 C 0.52425 0.55759 0.78762 0.0
H430 H 0.53127 0.56248 0.82427 0.0
H431 H 0.51281 0.55586 0.80602 0.0
H432 H 0.52896 0.54658 0.77408 0.0
O433 O 0.53984 0.6077 0.81328 0.0
O434 O 0.54114 0.61851 0.72175 0.0
H435 H 0.53552 0.58884 0.56672 0.0
H436 H 0.52814 0.57047 0.54991 0.0
C437 C 0.52627 0.5809 0.57604 0.0
H438 H 0.5157 0.58582 0.5595 0.0
H439 H 0.54642 0.62066 0.58336 0.0
O440 O 0.51876 0.5842 0.88392 0.0
C441 C 0.54638 0.6163 0.77522 0.0
Co442 Co 0.01912 0.40061 0.31417 0.0
Co443 Co 0.01988 0.38483 0.18766 0.0
C444 C 0.0431 0.37857 0.28119 0.0
O445 O 0.03676 0.38738 0.31856 0.0
O446 O 0.0379 0.37662 0.22779 0.0
C447 C 0.03329 0.418 0.40265 0.0
O448 O 0.04448 0.41653 0.36414 0.0
C449 C 0.03165 0.37883 0.06686 0.0
C450 C 0.01145 0.37188 0.01623 0.0
C451 C 0.02649 0.3753 0.00895 0.0
N452 N 0.02011 0.37802 0.10592 0.0
N453 N 0.00814 0.37344 0.07584 0.0
C454 C 0.04722 0.38308 0.08541 0.0
H455 H 0.05122 0.37509 0.12055 0.0
H456 H 0.04719 0.39436 0.1066 0.0
H457 H 0.05512 0.38276 0.04635 0.0
C458 C 0.01678 0.42743 0.23646 0.0
N459 N 0.01898 0.41263 0.24363 0.0
N460 N 0.01923 0.40612 0.18974 0.0
C461 C 0.01714 0.41664 0.1463 0.0
C462 C 0.01555 0.43046 0.17461 0.0
C463 C 0.01418 0.4381 0.28809 0.0
H464 H 0.00691 0.43281 0.32301 0.0
H465 H 0.02508 0.44082 0.30973 0.0
H466 H 0.00886 0.44863 0.2722 0.0
O467 O 0.00075 0.38836 0.31725 0.0
O468 O 0.00157 0.37696 0.22696 0.0
H469 H 0.00761 0.40504 0.07003 0.0
H470 H 0.01423 0.42364 0.0517 0.0
C471 C 0.01642 0.41347 0.0792 0.0
H472 H 0.02729 0.40889 0.06417 0.0
H473 H -0.00244 0.3722 0.09534 0.0
O474 O 0.02052 0.41286 0.38814 0.0
C475 C 0.99521 0.37938 0.27812 0.0
Co476 Co 0.5234 0.39752 0.19741 0.0
Co477 Co 0.52425 0.3812 0.32313 0.0
C478 C 0.50123 0.37367 0.23052 0.0
O479 O 0.50646 0.38337 0.19388 0.0
O480 O 0.50709 0.37156 0.28263 0.0
C481 C 0.50803 0.41369 0.10774 0.0
O482 O 0.49689 0.41144 0.14582 0.0
C483 C 0.5131 0.37335 0.44334 0.0
C484 C 0.53396 0.36885 0.49416 0.0
C485 C 0.51861 0.37036 0.50129 0.0
N486 N 0.5247 0.3741 0.40451 0.0
N487 N 0.53711 0.37096 0.43468 0.0
C488 C 0.49713 0.37569 0.42462 0.0
H489 H 0.49413 0.36728 0.38946 0.0
H490 H 0.49582 0.38689 0.40334 0.0
H491 H 0.48932 0.37445 0.46367 0.0
C492 C 0.52361 0.42417 0.27683 0.0
N493 N 0.52283 0.40927 0.26853 0.0
N494 N 0.52301 0.4025 0.32195 0.0
C495 C 0.5239 0.41296 0.3662 0.0
C496 C 0.52433 0.427 0.33899 0.0
C497 C 0.52516 0.43528 0.226 0.0
H498 H 0.53277 0.4308 0.19042 0.0
H499 H 0.51403 0.43715 0.20488 0.0
H500 H 0.52957 0.44615 0.24265 0.0
O501 O 0.54255 0.38637 0.19305 0.0
O502 O 0.54303 0.37499 0.28341 0.0
H503 H 0.53412 0.40235 0.44343 0.0
H504 H 0.52479 0.41976 0.46172 0.0
C505 C 0.52433 0.40955 0.43316 0.0
H506 H 0.51405 0.40345 0.4458 0.0
H507 H 0.54779 0.37111 0.41538 0.0
O508 O 0.52115 0.40972 0.12338 0.0
C509 C 0.54896 0.37786 0.23183 0.0
Co510 Co 0.02236 0.59461 0.69899 0.0
Co511 Co 0.01915 0.61287 0.81959 0.0
C512 C 0.04479 0.61775 0.73406 0.0
O513 O 0.03996 0.60778 0.69775 0.0
O514 O 0.03788 0.62085 0.78326 0.0
C515 C 0.03688 0.57782 0.60574 0.0
O516 O 0.04906 0.58159 0.6356 0.0
C517 C 0.02646 0.61784 0.94664 0.0
C518 C 0.00583 0.62859 0.98079 0.0
C519 C 0.01923 0.62223 -0.00024 0.0
N520 N 0.01751 0.62098 0.89911 0.0
N521 N 0.00544 0.62791 0.91946 0.0
C522 C 0.0406 0.60891 0.94127 0.0
H523 H 0.04185 0.60428 0.89454 0.0
H524 H 0.04081 0.59971 0.97533 0.0
H525 H 0.05027 0.61634 0.95086 0.0
C526 C 0.01993 0.5692 0.78435 0.0
N527 N 0.021 0.58395 0.77274 0.0
N528 N 0.01861 0.59153 0.82335 0.0
C529 C 0.0153 0.58178 0.86843 0.0
C530 C 0.01635 0.56737 0.84546 0.0
C531 C 0.02212 0.55723 0.73739 0.0
H532 H 0.01268 0.55756 0.70447 0.0
H533 H 0.03259 0.55944 0.7117 0.0
H534 H 0.02279 0.54595 0.75838 0.0
O535 O 0.00386 0.60668 0.68642 0.0
O536 O 0.0019 0.61977 0.77229 0.0
H537 H 0.00078 0.57716 0.94496 0.0
H538 H 0.01766 0.58689 0.96357 0.0
C539 C 0.00867 0.58594 0.92898 0.0
H540 H 0.00252 0.59666 0.92561 0.0
H541 H 0.9964 0.63104 0.89206 0.0
O542 O 0.02418 0.58124 0.6279 0.0
C543 C -0.00296 0.61621 0.71966 0.0
C544 C 0.14112 0.2048 0.38994 0.0
C545 C 0.14244 0.20906 0.45143 0.0
C546 C 0.13248 0.19237 0.37387 0.0
C547 C 0.101 0.17012 0.43292 0.0
H548 H 0.11001 0.14444 0.29497 0.0
C549 C 0.06048 0.12383 0.35631 0.0
C550 C 0.05697 0.12429 0.29375 0.0
C551 C 0.07268 0.13189 0.37892 0.0
C552 C 0.10739 0.15152 0.33368 0.0
H553 H 0.13658 0.20313 0.54461 0.0
H554 H 0.12186 0.18132 0.51673 0.0
H555 H 0.12846 0.16287 0.32864 0.0
H556 H 0.06391 0.13299 0.20547 0.0
H557 H 0.08507 0.14707 0.24505 0.0
H558 H 0.07986 0.15899 0.43732 0.0
C559 C 0.12708 0.1878 0.48072 0.0
C560 C 0.11791 0.1621 0.3528 0.0
C561 C 0.13555 0.20029 0.49669 0.0
C562 C 0.06624 0.13249 0.254 0.0
C563 C 0.07846 0.14044 0.27654 0.0
C564 C 0.09056 0.15951 0.41406 0.0
C565 C 0.12515 0.18389 0.41908 0.0
C566 C 0.11471 0.1717 0.40195 0.0
C567 C 0.08165 0.14044 0.33932 0.0
C568 C 0.09352 0.15031 0.36356 0.0
H569 H 0.14632 0.21135 0.35409 0.0
H570 H 0.1311 0.18975 0.3259 0.0
H571 H 0.09805 0.1775 0.47026 0.0
H572 H 0.05361 0.11756 0.38805 0.0
H573 H 0.07498 0.13162 0.4275 0.0
C574 C 0.15058 0.7916 0.60582 0.0
C575 C 0.14522 0.78415 0.55366 0.0
C576 C 0.14344 0.80452 0.62703 0.0
C577 C 0.11535 0.83333 0.58099 0.0
H578 H 0.10864 0.83661 0.75536 0.0
C579 C 0.07332 0.87603 0.67435 0.0
C580 C 0.06366 0.87047 0.71959 0.0
C581 C 0.08637 0.86826 0.65913 0.0
C582 C 0.11038 0.83585 0.7065 0.0
H583 H 0.1282 0.7844 0.48292 0.0
H584 H 0.11549 0.80644 0.52096 0.0
H585 H 0.12537 0.81738 0.71661 0.0
H586 H 0.06033 0.85272 0.78591 0.0
H587 H 0.08258 0.83886 0.75769 0.0
H588 H 0.09945 0.85092 0.57028 0.0
C589 C 0.12546 0.80268 0.54457 0.0
C590 C 0.12017 0.82494 0.6843 0.0
C591 C 0.13267 0.78991 0.52304 0.0
C592 C 0.06756 0.85731 0.75085 0.0
C593 C 0.08045 0.84942 0.735 0.0
C594 C 0.1054 0.84405 0.60307 0.0
C595 C 0.13073 0.81015 0.59682 0.0
C596 C 0.12236 0.82322 0.62111 0.0
C597 C 0.08988 0.85464 0.68815 0.0
C598 C 0.1024 0.84512 0.66597 0.0
H599 H 0.16032 0.78749 0.63007 0.0
H600 H 0.14788 0.81009 0.66704 0.0
H601 H 0.1171 0.83258 0.53212 0.0
H602 H 0.07071 0.88629 0.65011 0.0
H603 H 0.09353 0.87278 0.62373 0.0
C604 C 0.47668 0.86226 0.77236 0.0
C605 C 0.48626 0.87007 0.81206 0.0
C606 C 0.46445 0.85435 0.79523 0.0
C607 C 0.45247 0.83447 0.93065 0.0
H608 H 0.41371 0.83406 0.85079 0.0
C609 C 0.40662 0.79393 0.00882 0.0
C610 C 0.39898 0.78636 0.96203 0.0
C611 C 0.41541 0.80642 -0.00446 0.0
C612 C 0.4245 0.83399 0.87339 0.0
H613 H 0.49032 0.87602 0.90675 0.0
H614 H 0.46899 0.86196 0.94678 0.0
H615 H 0.43276 0.85195 0.8179 0.0
H616 H 0.39412 0.78622 0.86496 0.0
H617 H 0.40984 0.80771 0.84137 0.0
H618 H 0.44463 0.8161 0.98412 0.0
C619 C 0.471 0.86202 0.89797 0.0
C620 C 0.43535 0.84427 0.85472 0.0
C621 C 0.48317 0.87007 0.87503 0.0
C622 C 0.39987 0.79183 0.902 0.0
C623 C 0.40881 0.80423 0.88858 0.0
C624 C 0.44169 0.82411 0.94895 0.0
C625 C 0.46162 0.854 0.85828 0.0
C626 C 0.44952 0.84441 0.88249 0.0
C627 C 0.41689 0.8115 0.93506 0.0
C628 C 0.42767 0.82357 0.9198 0.0
H629 H 0.47869 0.86212 0.72356 0.0
H630 H 0.45749 0.84812 0.76371 0.0
H631 H 0.46338 0.83421 0.95228 0.0
H632 H 0.40598 0.79011 0.05574 0.0
H633 H 0.42123 0.81195 0.03259 0.0
C634 C 0.47432 0.11915 0.13392 0.0
C635 C 0.48009 0.12125 0.19305 0.0
C636 C 0.46187 0.12724 0.11428 0.0
C637 C 0.43004 0.15038 0.16506 0.0
H638 H 0.43681 0.17158 0.01295 0.0
C639 C 0.39754 0.20357 0.09634 0.0
C640 C 0.39545 0.2066 0.03397 0.0
C641 C 0.40558 0.19093 0.11478 0.0
C642 C 0.4345 0.16551 0.05476 0.0
H643 H 0.47681 0.13292 0.27903 0.0
H644 H 0.45506 0.14709 0.24445 0.0
H645 H 0.45489 0.15315 0.04729 0.0
H646 H 0.39908 0.19825 0.94214 0.0
H647 H 0.41261 0.17595 0.97426 0.0
H648 H 0.40969 0.16289 0.1728 0.0
C649 C 0.46018 0.13914 0.21347 0.0
C650 C 0.44492 0.15497 0.0745 0.0
C651 C 0.47271 0.13112 0.23304 0.0
C652 C 0.40075 0.19632 0.99054 0.0
C653 C 0.40856 0.18358 0.00897 0.0
C654 C 0.41949 0.16085 0.14497 0.0
C655 C 0.45486 0.13752 0.15348 0.0
C656 C 0.44293 0.14749 0.13027 0.0
C657 C 0.41149 0.18098 0.07119 0.0
C658 C 0.42175 0.16873 0.09004 0.0
H659 H 0.47968 0.11157 0.10207 0.0
H660 H 0.45788 0.12569 0.06797 0.0
H661 H 0.4282 0.14464 0.20804 0.0
H662 H 0.39359 0.21131 0.13081 0.0
H663 H 0.40774 0.18938 0.16304 0.0
C664 C 0.9006 0.79331 0.54664 0.0
C665 C 0.90456 0.78318 0.50024 0.0
C666 C 0.91045 0.80464 0.56417 0.0
C667 C 0.95006 0.81161 0.57588 0.0
H668 H 0.93882 0.85293 0.60573 0.0
C669 C 0.98566 0.85159 0.7221 0.0
C670 C 0.98932 0.86525 0.69401 0.0
C671 C 0.97481 0.84226 0.69646 0.0
C672 C 0.94208 0.84143 0.59742 0.0
H673 H 0.92169 0.77733 0.43415 0.0
H674 H 0.93905 0.79702 0.46578 0.0
H675 H 0.92068 0.8357 0.55962 0.0
H676 H 0.98408 0.88015 0.61855 0.0
H677 H 0.96489 0.86393 0.57463 0.0
H678 H 0.97131 0.81721 0.61487 0.0
C679 C 0.92828 0.79617 0.48825 0.0
C680 C 0.93174 0.83161 0.57126 0.0
C681 C 0.91832 0.78497 0.47002 0.0
C682 C 0.98155 0.86965 0.64108 0.0
C683 C 0.97053 0.86042 0.61604 0.0
C684 C 0.9603 0.82135 0.6029 0.0
C685 C 0.92453 0.80591 0.53621 0.0
C686 C 0.93565 0.81661 0.56036 0.0
C687 C 0.96727 0.84654 0.64293 0.0
C688 C 0.95638 0.83632 0.6141 0.0
H689 H 0.89004 0.79225 0.57057 0.0
H690 H 0.90734 0.81197 0.60149 0.0
H691 H 0.95327 0.80005 0.56854 0.0
H692 H 0.99147 0.8479 0.76284 0.0
H693 H 0.97237 0.83164 0.71826 0.0
C694 C 0.9126 0.20845 0.46957 0.0
C695 C 0.89891 0.21158 0.44072 0.0
C696 C 0.92203 0.19733 0.44659 0.0
C697 C 0.9236 0.16361 0.35235 0.0
H698 H 0.9646 0.17575 0.32124 0.0
C699 C 0.97265 0.12317 0.30074 0.0
C700 C 0.9827 0.12742 0.25443 0.0
C701 C 0.96107 0.13273 0.31832 0.0
C702 C 0.95316 0.17226 0.32923 0.0
H703 H 0.88399 0.20499 0.36716 0.0
H704 H 0.90041 0.18538 0.32781 0.0
H705 H 0.94706 0.19355 0.36653 0.0
H706 H 0.98809 0.14471 0.18833 0.0
H707 H 0.96793 0.16153 0.21988 0.0
H708 H 0.92983 0.14221 0.31582 0.0
C709 C 0.90386 0.19164 0.3678 0.0
C710 C 0.94319 0.18236 0.35575 0.0
C711 C 0.89452 0.20289 0.39021 0.0
C712 C 0.98053 0.14113 0.22418 0.0
C713 C 0.96907 0.15078 0.2424 0.0
C714 C 0.93365 0.15341 0.32661 0.0
C715 C 0.91784 0.18899 0.39497 0.0
C716 C 0.92834 0.17812 0.36765 0.0
C717 C 0.95944 0.14678 0.29045 0.0
C718 C 0.94851 0.15767 0.31479 0.0
H719 H 0.91629 0.21493 0.50858 0.0
H720 H 0.93271 0.19537 0.46866 0.0
H721 H 0.9122 0.1601 0.36118 0.0
H722 H 0.97398 0.11263 0.32469 0.0
H723 H 0.95383 0.12942 0.35569 0.0
C724 C 0.5636 0.13223 0.22402 0.0
C725 C 0.55497 0.1235 0.18389 0.0
C726 C 0.57544 0.14088 0.20181 0.0
C727 C 0.58685 0.16112 0.06681 0.0
H728 H 0.62613 0.16215 0.14197 0.0
C729 C 0.63222 0.20165 0.98035 0.0
C730 C 0.64084 0.2088 0.02534 0.0
C731 C 0.62312 0.18948 -0.0044 0.0
C732 C 0.61518 0.16211 0.1208 0.0
H733 H 0.55219 0.11674 0.08925 0.0
H734 H 0.57266 0.13213 0.05057 0.0
H735 H 0.60751 0.14421 0.17814 0.0
H736 H 0.6469 0.20865 0.12138 0.0
H737 H 0.63068 0.18792 0.14834 0.0
H738 H 0.59407 0.17944 0.0116 0.0
C739 C 0.57028 0.13219 0.09911 0.0
C740 C 0.60457 0.15179 0.14138 0.0
C741 C 0.55861 0.12336 0.12136 0.0
C742 C 0.64044 0.20334 0.08553 0.0
C743 C 0.6312 0.19135 0.10093 0.0
C744 C 0.59735 0.17159 0.04686 0.0
C745 C 0.57869 0.14112 0.13904 0.0
C746 C 0.59029 0.15132 0.11492 0.0
C747 C 0.62229 0.18435 0.05634 0.0
C748 C 0.6116 0.17235 0.07407 0.0
H749 H 0.56112 0.13251 0.27245 0.0
H750 H 0.58173 0.14777 0.2334 0.0
H751 H 0.57583 0.16106 0.04614 0.0
H752 H 0.63242 0.20551 0.93342 0.0
H753 H 0.61665 0.18419 0.95982 0.0
C754 C 0.56719 0.86958 0.82678 0.0
C755 C 0.56085 0.86964 0.76804 0.0
C756 C 0.57961 0.86069 0.83971 0.0
C757 C 0.59893 0.82686 0.78409 0.0
H758 H 0.62756 0.83774 0.90971 0.0
C759 C 0.64686 0.78773 0.85929 0.0
C760 C 0.64691 0.78469 0.92236 0.0
C761 C 0.63827 0.79945 0.83585 0.0
C762 C 0.61965 0.8346 0.87445 0.0
H763 H 0.56305 0.86101 0.67588 0.0
H764 H 0.58509 0.84578 0.698 0.0
H765 H 0.60944 0.85624 0.87401 0.0
H766 H 0.63854 0.79195 0.01055 0.0
H767 H 0.6237 0.81263 0.96943 0.0
H768 H 0.60925 0.80522 0.78464 0.0
C769 C 0.58017 0.8523 0.73456 0.0
C770 C 0.60923 0.84514 0.85415 0.0
C771 C 0.56759 0.86108 0.72177 0.0
C772 C 0.63866 0.79397 0.96175 0.0
C773 C 0.63026 0.80585 0.93833 0.0
C774 C 0.6095 0.81641 0.80375 0.0
C775 C 0.58615 0.85178 0.79403 0.0
C776 C 0.59848 0.84128 0.80982 0.0
C777 C 0.62979 0.80851 0.8751 0.0
C778 C 0.61972 0.82009 0.85003 0.0
H779 H 0.56225 0.87601 0.8636 0.0
H780 H 0.58369 0.8604 0.88627 0.0
H781 H 0.5907 0.82337 0.75066 0.0
H782 H 0.65311 0.78079 0.82771 0.0
H783 H 0.63813 0.80135 0.78696 0.0
C784 C 0.63898 0.7018 0.98645 0.0
C785 C 0.6464 0.71 0.94086 0.0
C786 C 0.63029 0.68939 0.97112 0.0
C787 C 0.62095 0.66328 0.84379 0.0
H788 H 0.58298 0.66076 0.92912 0.0
C789 C 0.56844 0.63272 0.75238 0.0
C790 C 0.56004 0.62433 0.7946 0.0
C791 C 0.5807 0.64115 0.77183 0.0
C792 C 0.59363 0.66118 0.90548 0.0
H793 H 0.65094 0.7114 0.84369 0.0
H794 H 0.6353 0.6901 0.81656 0.0
H795 H 0.60131 0.67926 0.96065 0.0
H796 H 0.55829 0.61778 0.88994 0.0
H797 H 0.57959 0.63265 0.9237 0.0
H798 H 0.61277 0.64555 0.78681 0.0
C799 C 0.63647 0.69299 0.86436 0.0
C800 C 0.60418 0.67175 0.92366 0.0
C801 C 0.64536 0.70527 0.87984 0.0
C802 C 0.56446 0.62417 0.85625 0.0
C803 C 0.57663 0.6327 0.8757 0.0
C804 C 0.61028 0.6528 0.82514 0.0
C805 C 0.62861 0.68506 0.90973 0.0
C806 C 0.61793 0.67303 0.89276 0.0
C807 C 0.5847 0.64145 0.83385 0.0
C808 C 0.59649 0.65175 0.85559 0.0
H809 H 0.63977 0.70505 0.03403 0.0
H810 H 0.62469 0.68333 0.00739 0.0
H811 H 0.6315 0.66381 0.81959 0.0
H812 H 0.56537 0.63301 0.70451 0.0
H813 H 0.58669 0.6479 0.73874 0.0
C814 C 0.57216 0.36416 0.26213 0.0
C815 C 0.56328 0.3706 0.21609 0.0
C816 C 0.58494 0.35598 0.24711 0.0
C817 C 0.61055 0.34614 0.11881 0.0
H818 H 0.61335 0.30832 0.20532 0.0
C819 C 0.63707 0.29304 0.01822 0.0
C820 C 0.64549 0.28368 0.05681 0.0
C821 C 0.62987 0.30566 0.0415 0.0
C822 C 0.61293 0.31895 0.18149 0.0
H823 H 0.56119 0.37412 0.11843 0.0
H824 H 0.58321 0.35943 0.09199 0.0
H825 H 0.59555 0.32709 0.2394 0.0
H826 H 0.65336 0.28051 0.14974 0.0
H827 H 0.64057 0.30252 0.19053 0.0
H828 H 0.62748 0.33752 0.05899 0.0
C829 C 0.58051 0.36093 0.13981 0.0
C830 C 0.60274 0.32975 0.20107 0.0
C831 C 0.56781 0.36928 0.15491 0.0
C832 C 0.6469 0.28746 0.11888 0.0
C833 C 0.63958 0.30003 0.14227 0.0
C834 C 0.62068 0.33526 0.09893 0.0
C835 C 0.58901 0.3539 0.18569 0.0
C836 C 0.6012 0.34334 0.1692 0.0
C837 C 0.63085 0.30913 0.10391 0.0
C838 C 0.62172 0.32145 0.12936 0.0
H839 H 0.56909 0.36519 0.30982 0.0
H840 H 0.59143 0.35099 0.28363 0.0
H841 H 0.60983 0.3566 0.09393 0.0
H842 H 0.63584 0.29051 0.97008 0.0
H843 H 0.62306 0.31237 0.01103 0.0
C844 C 0.97288 0.36455 0.24581 0.0
C845 C 0.98125 0.37131 0.29259 0.0
C846 C 0.96015 0.35618 0.25965 0.0
C847 C 0.93343 0.34695 0.38497 0.0
H848 H 0.93 0.30944 0.29698 0.0
C849 C 0.90312 0.29457 0.47617 0.0
C850 C 0.89468 0.28603 0.43467 0.0
C851 C 0.91125 0.30696 0.45606 0.0
C852 C 0.93064 0.31999 0.32125 0.0
H853 H 0.98262 0.37497 0.39037 0.0
H854 H 0.96074 0.35991 0.41481 0.0
H855 H 0.94891 0.32749 0.26655 0.0
H856 H 0.88764 0.28419 0.34 0.0
H857 H 0.90203 0.30576 0.30493 0.0
H858 H 0.91556 0.33894 0.4416 0.0
C859 C 0.96376 0.36136 0.36727 0.0
C860 C 0.94146 0.33037 0.30376 0.0
C861 C 0.97639 0.3699 0.35333 0.0
C862 C 0.89409 0.29048 0.37309 0.0
C863 C 0.90234 0.3028 0.35292 0.0
C864 C 0.9227 0.33647 0.40288 0.0
C865 C 0.95562 0.3542 0.32065 0.0
C866 C 0.94315 0.34389 0.33595 0.0
C867 C 0.91119 0.31098 0.39404 0.0
C868 C 0.92136 0.32281 0.37166 0.0
H869 H 0.97623 0.36563 0.19844 0.0
H870 H 0.95396 0.3511 0.22252 0.0
H871 H 0.93426 0.35737 0.41006 0.0
H872 H 0.90372 0.2915 0.52399 0.0
H873 H 0.91809 0.31301 0.4886 0.0
C874 C 0.9012 0.70546 0.59358 0.0
C875 C 0.89915 0.70856 0.53125 0.0
C876 C 0.90934 0.69286 0.61181 0.0
C877 C 0.93867 0.66789 0.55286 0.0
H878 H 0.93093 0.64559 0.70157 0.0
C879 C 0.97888 0.62196 0.63548 0.0
C880 C 0.98335 0.62359 0.69667 0.0
C881 C 0.96653 0.62987 0.61319 0.0
C882 C 0.93319 0.65171 0.65985 0.0
H883 H 0.90309 0.70039 0.43924 0.0
H884 H 0.91693 0.6783 0.47103 0.0
H885 H 0.91273 0.66412 0.66627 0.0
H886 H 0.97793 0.6342 0.78319 0.0
H887 H 0.95655 0.64803 0.74413 0.0
H888 H 0.95924 0.65577 0.54705 0.0
C889 C 0.91268 0.6858 0.50584 0.0
C890 C 0.92282 0.66234 0.63977 0.0
C891 C 0.90472 0.69845 0.48765 0.0
C892 C 0.97486 0.63278 0.73566 0.0
C893 C 0.96251 0.6406 0.71348 0.0
C894 C 0.94898 0.65724 0.57274 0.0
C895 C 0.91543 0.68307 0.56801 0.0
C896 C 0.92559 0.67074 0.58664 0.0
C897 C 0.95839 0.63945 0.65179 0.0
C898 C 0.94649 0.64926 0.62703 0.0
H899 H 0.89702 0.71306 0.62816 0.0
H900 H 0.91138 0.69114 0.66008 0.0
H901 H 0.9413 0.67433 0.51234 0.0
H902 H 0.98513 0.6149 0.60438 0.0
H903 H 0.96351 0.6287 0.56551 0.0
C904 C 0.39934 0.29047 0.07625 0.0
C905 C 0.40336 0.28094 0.02782 0.0
C906 C 0.40913 0.30164 0.096 0.0
C907 C 0.44868 0.30949 0.10691 0.0
H908 H 0.43694 0.35074 0.13535 0.0
C909 C 0.48534 0.3508 0.24153 0.0
C910 C 0.48857 0.36423 0.21078 0.0
C911 C 0.47419 0.34125 0.21979 0.0
C912 C 0.44032 0.33925 0.12754 0.0
H913 H 0.42062 0.27592 0.96107 0.0
H914 H 0.43782 0.2953 -0.00346 0.0
H915 H 0.41875 0.33298 0.09283 0.0
H916 H 0.48221 0.37852 0.13476 0.0
H917 H 0.46251 0.36188 0.09754 0.0
H918 H 0.47015 0.31565 0.14227 0.0
C919 C 0.42707 0.29409 0.01891 0.0
C920 C 0.42995 0.32913 0.10352 0.0
C921 C 0.4172 0.28307 -0.00146 0.0
C922 C 0.48003 0.3682 0.15926 0.0
C923 C 0.46873 0.35874 0.1381 0.0
C924 C 0.45895 0.31953 0.1318 0.0
C925 C 0.42318 0.30334 0.06825 0.0
C926 C 0.43409 0.31419 0.09279 0.0
C927 C 0.46592 0.34507 0.16755 0.0
C928 C 0.45486 0.33449 0.14223 0.0
H929 H 0.38871 0.28915 0.09953 0.0
H930 H 0.40593 0.30861 0.13434 0.0
H931 H 0.45207 0.29799 0.09953 0.0
H932 H 0.49171 0.34744 0.28136 0.0
H933 H 0.47212 0.3308 0.2435 0.0
C934 C 0.40702 0.70245 0.98079 0.0
C935 C 0.39873 0.7115 0.94056 0.0
C936 C 0.4157 0.69067 0.95838 0.0
C937 C 0.4368 0.68021 0.82425 0.0
H938 H 0.4381 0.64067 0.89732 0.0
C939 C 0.47796 0.63559 0.7372 0.0
C940 C 0.48517 0.62688 0.78183 0.0
C941 C 0.4657 0.64452 0.75268 0.0
C942 C 0.43797 0.6517 0.87675 0.0
H943 H 0.39267 0.71499 0.8455 0.0
H944 H 0.40807 0.69456 0.80651 0.0
H945 H 0.41966 0.65888 0.93289 0.0
H946 H 0.48503 0.62056 0.87764 0.0
H947 H 0.4641 0.63653 0.90502 0.0
H948 H 0.45549 0.67345 0.77022 0.0
C949 C 0.4078 0.69661 0.85528 0.0
C950 C 0.42737 0.66207 0.89695 0.0
C951 C 0.39896 0.70826 0.8777 0.0
C952 C 0.47971 0.6271 0.84203 0.0
C953 C 0.46759 0.63618 0.85767 0.0
C954 C 0.44752 0.66993 0.80462 0.0
C955 C 0.41638 0.68785 0.89535 0.0
C956 C 0.4268 0.67645 0.87123 0.0
C957 C 0.46053 0.64512 0.81333 0.0
C958 C 0.44836 0.6556 0.83108 0.0
H959 H 0.40701 0.70462 0.02948 0.0
H960 H 0.42232 0.68412 0.99013 0.0
H961 H 0.4367 0.69131 0.80426 0.0
H962 H 0.48183 0.63563 0.69037 0.0
H963 H 0.46037 0.65105 0.71711 0.0
C964 C 0.14623 0.70007 0.56966 0.0
C965 C 0.14193 0.70959 0.52157 0.0
C966 C 0.1368 0.68857 0.58907 0.0
C967 C 0.09733 0.68025 0.60011 0.0
H968 H 0.10996 0.63981 0.63961 0.0
C969 C 0.06078 0.64063 0.74304 0.0
C970 C 0.05798 0.62667 0.71582 0.0
C971 C 0.07204 0.64993 0.72021 0.0
C972 C 0.10632 0.65107 0.62872 0.0
H973 H 0.12466 0.71408 0.45427 0.0
H974 H 0.10807 0.69406 0.48894 0.0
H975 H 0.12774 0.65722 0.5922 0.0
H976 H 0.06532 0.61113 0.6457 0.0
H977 H 0.08514 0.62731 0.60662 0.0
H978 H 0.076 0.67422 0.63716 0.0
C979 C 0.11876 0.69556 0.51147 0.0
C980 C 0.11646 0.661 0.6018 0.0
C981 C 0.12829 0.70695 0.49148 0.0
C982 C 0.06716 0.62186 0.66746 0.0
C983 C 0.07854 0.63108 0.6452 0.0
C984 C 0.08728 0.67041 0.62775 0.0
C985 C 0.12281 0.68648 0.56124 0.0
C986 C 0.11202 0.67566 0.58718 0.0
C987 C 0.08082 0.64534 0.67039 0.0
C988 C 0.09168 0.65575 0.64238 0.0
H989 H 0.15672 0.70177 0.59355 0.0
H990 H 0.14014 0.68176 0.62772 0.0
H991 H 0.09369 0.69155 0.58995 0.0
H992 H 0.0539 0.64465 0.78034 0.0
H993 H 0.07371 0.66083 0.74078 0.0
C994 C 0.14244 0.28952 0.4044 0.0
C995 C 0.14176 0.2842 0.46484 0.0
C996 C 0.13329 0.30128 0.38549 0.0
C997 C 0.11065 0.33301 0.43576 0.0
H998 H 0.08682 0.32405 0.29228 0.0
C999 C 0.05962 0.36861 0.36398 0.0
C1000 C 0.05626 0.36986 0.30146 0.0
C1001 C 0.07127 0.35937 0.38374 0.0
C1002 C 0.09357 0.32692 0.33163 0.0
H1003 H 0.13151 0.28761 0.55366 0.0
H1004 H 0.11556 0.30836 0.52036 0.0
H1005 H 0.10521 0.30602 0.32794 0.0
H1006 H 0.06298 0.36304 0.21044 0.0
H1007 H 0.08363 0.3474 0.24459 0.0
H1008 H 0.09916 0.35401 0.43911 0.0
C1009 C 0.12317 0.3033 0.48783 0.0
C1010 C 0.10406 0.31652 0.35222 0.0
C1011 C 0.13224 0.29139 0.50673 0.0
C1012 C 0.06517 0.36218 0.25895 0.0
C1013 C 0.07696 0.35312 0.27863 0.0
C1014 C 0.10028 0.34354 0.41466 0.0
C1015 C 0.12338 0.30808 0.42668 0.0
C1016 C 0.11263 0.31943 0.40458 0.0
C1017 C 0.07995 0.35134 0.34135 0.0
C1018 C 0.09154 0.34057 0.3625 0.0
H1019 H 0.14971 0.28432 0.37095 0.0
H1020 H 0.13377 0.30489 0.33827 0.0
H1021 H 0.11722 0.33552 0.47606 0.0
H1022 H 0.05294 0.37436 0.39796 0.0
H1023 H 0.0731 0.35815 0.43238 0.0
C1024 C 0.01658 0.04045 0.12799 0.0
C1025 C 0.02811 0.05106 0.12564 0.0
C1026 C 0.01838 0.02655 0.10005 0.0
C1027 C 0.03732 0.00874 0.97406 0.0
H1028 H 0.02541 0.97188 0.05419 0.0
C1029 C 0.03868 0.95133 0.85169 0.0
C1030 C 0.02643 0.94195 0.86325 0.0
C1031 C 0.04062 0.9644 0.8858 0.0
C1032 C 0.02867 0.98209 0.03101 0.0
H1033 H 0.05079 0.05542 0.09571 0.0
H1034 H 0.05379 0.03116 0.04458 0.0
H1035 H 0.02582 0.9952 0.11204 0.0
H1036 H 0.00665 0.93854 0.91846 0.0
H1037 H 0.00968 0.96157 0.97683 0.0
H1038 H 0.03955 0.99582 0.89234 0.0
C1039 C 0.04337 0.03365 0.06775 0.0
C1040 C 0.02897 0.99538 0.06424 0.0
C1041 C 0.04163 0.04748 0.09655 0.0
C1042 C 0.01613 0.94574 0.90887 0.0
C1043 C 0.01799 0.95881 0.9426 0.0
C1044 C 0.03686 0.99545 0.94057 0.0
C1045 C 0.0317 0.02313 0.06899 0.0
C1046 C 0.03303 0.00885 0.03574 0.0
C1047 C 0.03033 0.96822 0.93188 0.0
C1048 C 0.03222 0.98205 0.96842 0.0
H1049 H 0.00608 0.04302 0.15043 0.0
H1050 H 0.00919 0.01865 0.10115 0.0
H1051 H 0.04037 0.01903 0.95105 0.0
H1052 H 0.0469 0.94836 0.8174 0.0
H1053 H 0.05033 0.97133 0.87695 0.0
C1054 C 0.31656 0.76549 0.10413 0.0
C1055 C 0.32581 0.75308 0.11476 0.0
C1056 C 0.3036 0.76752 0.1389 0.0
C1057 C 0.28607 0.75541 0.28422 0.0
H1058 H 0.24902 0.76729 0.20558 0.0
C1059 C 0.22801 0.74316 0.38321 0.0
C1060 C 0.21738 0.75468 0.38168 0.0
C1061 C 0.2418 0.745 0.35444 0.0
C1062 C 0.25935 0.76419 0.22822 0.0
H1063 H 0.32908 0.7331 0.16897 0.0
H1064 H 0.30627 0.73632 0.22862 0.0
H1065 H 0.27216 0.76657 0.14623 0.0
H1066 H 0.21286 0.77738 0.35218 0.0
H1067 H 0.23693 0.78045 0.2996 0.0
H1068 H 0.27309 0.75242 0.3655 0.0
C1069 C 0.30906 0.74468 0.1946 0.0
C1070 C 0.27259 0.76379 0.19437 0.0
C1071 C 0.32201 0.74273 0.16018 0.0
C1072 C 0.22081 0.76822 0.35238 0.0
C1073 C 0.23454 0.77 0.32277 0.0
C1074 C 0.27283 0.75567 0.3178 0.0
C1075 C 0.29976 0.75715 0.18472 0.0
C1076 C 0.28602 0.75908 0.22173 0.0
C1077 C 0.2451 0.75836 0.32338 0.0
C1078 C 0.25932 0.75977 0.28977 0.0
H1079 H 0.31952 0.77374 0.06992 0.0
H1080 H 0.29674 0.77732 0.13067 0.0
H1081 H 0.29631 0.75209 0.30699 0.0
H1082 H 0.22554 0.73265 0.40582 0.0
H1083 H 0.24972 0.73581 0.35503 0.0
C1084 C 0.50236 0.04098 0.35139 0.0
C1085 C 0.51419 0.05081 0.36376 0.0
C1086 C 0.50021 0.02831 0.38783 0.0
C1087 C 0.51083 0.0124 0.5386 0.0
H1088 H 0.50093 0.97447 0.4626 0.0
C1089 C 0.5238 0.95504 0.64421 0.0
C1090 C 0.51264 0.94405 0.64138 0.0
C1091 C 0.52176 0.96876 0.61505 0.0
C1092 C 0.50347 0.98504 0.48448 0.0
H1093 H 0.53307 0.05539 0.4227 0.0
H1094 H 0.52973 0.03305 0.48513 0.0
H1095 H 0.50179 -0.00286 0.40047 0.0
H1096 H 0.49028 0.93889 0.60959 0.0
H1097 H 0.48688 0.96283 0.55626 0.0
H1098 H 0.51321 9e-05 0.62201 0.0
C1099 C 0.52185 0.03518 0.44857 0.0
C1100 C 0.50394 -0.00197 0.44902 0.0
C1101 C 0.52388 0.04787 0.41255 0.0
C1102 C 0.49917 0.94713 0.61087 0.0
C1103 C 0.49721 0.96077 0.58082 0.0
C1104 C 0.51054 -0.0006 0.57382 0.0
C1105 C 0.50992 0.02531 0.43697 0.0
C1106 C 0.50794 0.0118 0.47547 0.0
C1107 C 0.50856 0.97163 0.58223 0.0
C1108 C 0.50712 0.98559 0.54679 0.0
H1109 H 0.49461 0.04328 0.31448 0.0
H1110 H 0.49083 0.02103 0.37814 0.0
H1111 H 0.51357 0.02289 0.56068 0.0
H1112 H 0.53426 0.95286 0.6677 0.0
H1113 H 0.53071 0.97693 0.61633 0.0
C1114 C 0.31618 0.23176 0.88384 0.0
C1115 C 0.32617 0.24315 0.86739 0.0
C1116 C 0.30308 0.22956 0.85023 0.0
C1117 C 0.28588 0.23871 0.70044 0.0
H1118 H 0.24862 0.23023 0.78456 0.0
C1119 C 0.2277 0.25006 0.59929 0.0
C1120 C 0.21679 0.23893 0.60649 0.0
C1121 C 0.2416 0.24858 0.62749 0.0
C1122 C 0.259 0.23238 0.76048 0.0
H1123 H 0.33061 0.2612 0.80404 0.0
H1124 H 0.3075 0.2578 0.74643 0.0
H1125 H 0.27186 0.23173 0.84276 0.0
H1126 H 0.21196 0.21714 0.6451 0.0
H1127 H 0.23622 0.21476 0.69675 0.0
H1128 H 0.27281 0.24002 0.61859 0.0
C1129 C 0.30983 0.25029 0.78413 0.0
C1130 C 0.27231 0.23322 0.79369 0.0
C1131 C 0.32295 0.25237 0.81735 0.0
C1132 C 0.22011 0.22605 0.64056 0.0
C1133 C 0.23395 0.22465 0.66961 0.0
C1134 C 0.27256 0.23805 0.66743 0.0
C1135 C 0.29978 0.23879 0.79986 0.0
C1136 C 0.28585 0.23666 0.76416 0.0
C1137 C 0.24474 0.23597 0.66366 0.0
C1138 C 0.259 0.23511 0.69735 0.0
H1139 H 0.31868 0.22437 0.92176 0.0
H1140 H 0.29568 0.22049 0.86304 0.0
H1141 H 0.29618 0.24102 0.67608 0.0
H1142 H 0.22534 0.26006 0.57289 0.0
H1143 H 0.24972 0.2575 0.62264 0.0
C1144 C 0.72631 0.26121 0.89207 0.0
C1145 C 0.71526 0.25119 0.87235 0.0
C1146 C 0.73937 0.26312 0.85779 0.0
C1147 C 0.75489 0.25618 0.7029 0.0
H1148 H 0.7932 0.2593 0.78526 0.0
C1149 C 0.81139 0.24267 0.58995 0.0
C1150 C 0.82315 0.25276 0.59995 0.0
C1151 C 0.79784 0.24445 0.62066 0.0
C1152 C 0.78254 0.25864 0.76176 0.0
H1153 H 0.70897 0.23521 0.80274 0.0
H1154 H 0.73191 0.2381 0.74381 0.0
H1155 H 0.77023 0.25848 0.84547 0.0
H1156 H 0.8299 0.27301 0.64685 0.0
H1157 H 0.80626 0.27585 0.7025 0.0
H1158 H 0.76735 0.25566 0.61934 0.0
C1159 C 0.73046 0.24482 0.78455 0.0
C1160 C 0.76939 0.25821 0.79613 0.0
C1161 C 0.7174 0.24304 0.81845 0.0
C1162 C 0.82106 0.2649 0.6397 0.0
C1163 C 0.80758 0.26656 0.67117 0.0
C1164 C 0.76805 0.25641 0.66866 0.0
C1165 C 0.74156 0.25496 0.80352 0.0
C1166 C 0.75544 0.25671 0.7671 0.0
C1167 C 0.79591 0.25628 0.66218 0.0
C1168 C 0.78197 0.25742 0.69788 0.0
H1169 H 0.72471 0.26775 0.93321 0.0
H1170 H 0.74762 0.27115 0.87328 0.0
H1171 H 0.7443 0.2554 0.67903 0.0
H1172 H 0.81281 0.23325 0.55937 0.0
H1173 H 0.78902 0.23632 0.61339 0.0
C1174 C 0.722 0.75271 0.15125 0.0
C1175 C 0.71859 0.74266 0.1042 0.0
C1176 C 0.73468 0.75055 0.18715 0.0
C1177 C 0.77118 0.73141 0.18884 0.0
H1178 H 0.7699 0.74212 0.36057 0.0
C1179 C 0.82256 0.72626 0.3468 0.0
C1180 C 0.82611 0.73974 0.3762 0.0
C1181 C 0.80869 0.72451 0.31836 0.0
C1182 C 0.77038 0.73905 0.31272 0.0
H1183 H 0.72528 0.72232 0.05807 0.0
H1184 H 0.74754 0.71836 0.12144 0.0
H1185 H 0.74696 0.7428 0.30016 0.0
H1186 H 0.81792 0.76159 0.40273 0.0
H1187 H 0.79348 0.75847 0.35386 0.0
H1188 H 0.79465 0.72773 0.20169 0.0
C1189 C 0.74062 0.7281 0.12981 0.0
C1190 C 0.7573 0.73951 0.27804 0.0
C1191 C 0.72795 0.73035 0.09352 0.0
C1192 C 0.81537 0.75113 0.37989 0.0
C1193 C 0.80143 0.74932 0.35222 0.0
C1194 C 0.78423 0.73079 0.22375 0.0
C1195 C 0.74409 0.73817 0.17716 0.0
C1196 C 0.75763 0.73608 0.21534 0.0
C1197 C 0.7981 0.73611 0.32018 0.0
C1198 C 0.78399 0.73494 0.28558 0.0
H1199 H 0.71483 0.76226 0.16012 0.0
H1200 H 0.73718 0.7587 0.22233 0.0
H1201 H 0.77186 0.72884 0.14058 0.0
H1202 H 0.83061 0.71719 0.34496 0.0
H1203 H 0.80628 0.71416 0.29451 0.0
C1204 C 0.53886 0.54667 0.60616 0.0
C1205 C 0.52697 0.54965 0.64614 0.0
C1206 C 0.53952 0.5331 0.57488 0.0
C1207 C 0.5148 0.50212 0.52647 0.0
H1208 H 0.55235 0.48375 0.479 0.0
C1209 C 0.51601 0.45325 0.35676 0.0
C1210 C 0.52604 0.4416 0.36935 0.0
C1211 C 0.51697 0.46672 0.3888 0.0
C1212 C 0.54175 0.48863 0.49235 0.0
H1213 H 0.50713 0.54057 0.68899 0.0
H1214 H 0.50863 0.51646 0.63679 0.0
H1215 H 0.55256 0.50561 0.54493 0.0
H1216 H 0.54549 0.43501 0.42181 0.0
H1217 H 0.54675 0.45816 0.48025 0.0
H1218 H 0.50395 0.48475 0.47649 0.0
C1219 C 0.51709 0.52482 0.62728 0.0
C1220 C 0.54188 0.50131 0.52956 0.0
C1221 C 0.51632 0.53851 0.65775 0.0
C1222 C 0.53743 0.44378 0.41245 0.0
C1223 C 0.53826 0.45712 0.44523 0.0
C1224 C 0.51466 0.48933 0.49009 0.0
C1225 C 0.52847 0.52212 0.58415 0.0
C1226 C 0.5284 0.50825 0.54686 0.0
C1227 C 0.52789 0.46868 0.43447 0.0
C1228 C 0.52813 0.48246 0.4723 0.0
H1229 H 0.54738 0.55505 0.59768 0.0
H1230 H 0.54839 0.53148 0.54185 0.0
H1231 H 0.5042 0.50731 0.53787 0.0
H1232 H 0.50722 0.45181 0.32317 0.0
H1233 H 0.50904 0.47552 0.37819 0.0
C1234 C 0.00369 0.54265 0.85905 0.0
C1235 C 0.01392 0.55341 0.87961 0.0
C1236 C 0.0012 0.52966 0.8932 0.0
C1237 C 0.00697 0.51368 0.04813 0.0
H1238 H 0.00506 0.47559 0.96357 0.0
C1239 C 0.02173 0.45731 0.15883 0.0
C1240 C 0.0125 0.44504 0.14587 0.0
C1241 C 0.01935 0.47097 0.12956 0.0
C1242 C 0.00533 0.48617 0.98771 0.0
H1243 H 0.0296 0.5593 0.95099 0.0
H1244 H 0.02563 0.53651 0.00993 0.0
H1245 H 0.00577 0.49876 0.90465 0.0
H1246 H 0.99306 0.43745 0.09555 0.0
H1247 H 0.98915 0.46133 0.0426 0.0
H1248 H 0.00723 0.50097 0.13111 0.0
C1249 C 0.01922 0.53814 0.96845 0.0
C1250 C 0.00571 0.49944 0.95404 0.0
C1251 C 0.02161 0.55111 0.93457 0.0
C1252 C 0.00053 0.44672 0.10494 0.0
C1253 C -0.00174 0.46033 0.07502 0.0
C1254 C 0.00675 0.50041 0.08171 0.0
C1255 C 0.00897 0.52727 0.94829 0.0
C1256 C 0.00687 0.51332 0.98389 0.0
C1257 C 0.00776 0.47251 0.08665 0.0
C1258 C 0.00622 0.48656 0.05172 0.0
H1259 H -0.00253 0.54439 0.81716 0.0
H1260 H 0.99311 0.52158 0.87681 0.0
H1261 H 0.0075 0.52421 0.0725 0.0
H1262 H 0.03099 0.45622 0.19046 0.0
H1263 H 0.02691 0.48018 0.13888 0.0
C1264 C 0.00732 0.11627 0.89612 0.0
C1265 C 0.02151 0.1143 0.92239 0.0
C1266 C 0.00389 0.1095 0.84027 0.0
C1267 C 0.02221 0.09347 0.70454 0.0
H1268 H 0.9833 0.07578 0.6732 0.0
C1269 C 0.01205 0.06826 0.47466 0.0
C1270 C -1e-05 0.07519 0.4449 0.0
C1271 C 0.01291 0.06842 0.53819 0.0
C1272 C 0.99423 0.08061 0.68163 0.0
H1273 H 0.04319 0.1037 0.91177 0.0
H1274 H 0.03723 0.09184 0.8151 0.0
H1275 H 0.98864 0.08673 0.77356 0.0
H1276 H 0.97842 0.08588 0.45761 0.0
H1277 H 0.9801 0.08651 0.56865 0.0
H1278 H 0.02779 0.08773 0.613 0.0
C1279 C 0.02881 0.0988 0.83658 0.0
C1280 C -0.00275 0.08697 0.73872 0.0
C1281 C 0.03225 0.10564 0.89186 0.0
C1282 C 0.98788 0.08053 0.47955 0.0
C1283 C 0.98884 0.08086 0.54323 0.0
C1284 C 0.01924 0.08707 0.64801 0.0
C1285 C 0.0146 0.10063 0.81012 0.0
C1286 C 0.01125 0.09357 0.75048 0.0
C1287 C 0.00184 0.07573 0.57269 0.0
C1288 C 0.00521 0.08065 0.6357 0.0
H1289 H -0.00111 0.12296 0.91889 0.0
H1290 H 0.99292 0.11131 0.82049 0.0
H1291 H 0.03299 0.09874 0.71159 0.0
H1292 H 0.0214 0.06384 0.44879 0.0
H1293 H 0.02287 0.06401 0.55999 0.0
C1294 C 0.16121 0.75865 0.15276 0.0
C1295 C 0.15318 0.74761 0.18442 0.0
C1296 C 0.16787 0.75541 0.09691 0.0
C1297 C 0.18075 0.72419 -0.00041 0.0
H1298 H 0.17882 0.75459 0.87337 0.0
C1299 C 0.18886 0.71527 0.74027 0.0
C1300 C 0.19403 0.72759 0.70642 0.0
C1301 C 0.18795 0.71615 0.80389 0.0
C1302 C 0.17977 0.7461 0.90852 0.0
H1303 H 0.14541 0.72466 0.18213 0.0
H1304 H 0.1568 0.71902 0.08285 0.0
H1305 H 0.1674 0.75936 0.97167 0.0
H1306 H 0.20454 0.74941 0.71212 0.0
H1307 H 0.20333 0.75078 0.82321 0.0
H1308 H 0.19268 0.71072 0.93453 0.0
C1309 C 0.15824 0.73008 0.10217 0.0
C1310 C 0.17315 0.74881 0.96487 0.0
C1311 C 0.15164 0.73332 0.15858 0.0
C1312 C 0.20025 0.73987 0.73726 0.0
C1313 C 0.19949 0.74068 0.80072 0.0
C1314 C 0.18733 0.72142 0.94267 0.0
C1315 C 0.16651 0.7411 0.07098 0.0
C1316 C 0.17354 0.73792 0.01109 0.0
C1317 C 0.19235 0.7293 0.83412 0.0
C1318 C 0.1869 0.73238 0.89666 0.0
H1319 H 0.16281 0.76969 0.1722 0.0
H1320 H 0.17437 0.76408 0.07465 0.0
H1321 H 0.18137 0.71564 0.03461 0.0
H1322 H 0.18406 0.70563 0.71758 0.0
H1323 H 0.18245 0.70718 0.82851 0.0
C1324 C 0.53002 0.92679 0.99127 0.0
C1325 C 0.54215 0.92011 0.96101 0.0
C1326 C 0.52914 0.92627 0.05476 0.0
C1327 C 0.54783 0.91371 0.19744 0.0
H1328 H 0.5093 0.89492 0.22584 0.0
C1329 C 0.53487 0.87811 0.41233 0.0
C1330 C 0.52066 0.88008 0.43839 0.0
C1331 C 0.53827 0.88468 0.35601 0.0
C1332 C 0.52002 0.90036 0.21919 0.0
H1333 H 0.56381 0.90954 0.97298 0.0
H1334 H 0.5621 0.90833 0.08396 0.0
H1335 H 0.5145 0.90623 0.12767 0.0
H1336 H 0.49885 0.89033 0.4266 0.0
H1337 H 0.50474 0.90183 0.32909 0.0
H1338 H 0.55335 0.90752 0.28937 0.0
C1339 C 0.55332 0.91402 0.05892 0.0
C1340 C 0.52298 0.90693 0.16293 0.0
C1341 C 0.55429 0.9147 -0.00471 0.0
C1342 C 0.50982 0.88843 0.40696 0.0
C1343 C 0.51322 0.89506 0.35117 0.0
C1344 C 0.54482 0.90719 0.25426 0.0
C1345 C 0.54026 0.91889 0.0887 0.0
C1346 C 0.53692 0.91362 0.15127 0.0
C1347 C 0.52749 0.89332 0.32513 0.0
C1348 C 0.53088 0.90038 0.26549 0.0
H1349 H 0.52064 0.93126 0.96572 0.0
H1350 H 0.51913 0.93047 0.07687 0.0
H1351 H 0.55869 0.91873 0.18946 0.0
H1352 H 0.54337 0.87163 0.43572 0.0
H1353 H 0.54928 0.88294 0.33655 0.0
C1354 C 0.34482 0.25337 0.23421 0.0
C1355 C 0.34948 0.26541 0.19764 0.0
C1356 C 0.34626 0.25414 0.2975 0.0
C1357 C 0.36658 0.25316 0.40563 0.0
H1358 H 0.36387 0.28707 0.51557 0.0
C1359 C 0.39926 0.25324 0.62881 0.0
C1360 C 0.39076 0.25669 0.68079 0.0
C1361 C 0.39385 0.25669 0.57067 0.0
C1362 C 0.36466 0.27752 0.48526 0.0
H1363 H 0.35735 0.28838 0.19851 0.0
H1364 H 0.3602 0.2896 0.30887 0.0
H1365 H 0.35159 0.28821 0.41555 0.0
H1366 H 0.36994 0.26668 0.71225 0.0
H1367 H 0.36069 0.27278 0.61157 0.0
H1368 H 0.3795 0.24239 0.47478 0.0
C1369 C 0.35539 0.2796 0.28897 0.0
C1370 C 0.35765 0.27818 0.4282 0.0
C1371 C 0.35378 0.27888 0.22562 0.0
C1372 C 0.37707 0.26427 0.67365 0.0
C1373 C 0.37167 0.26772 0.61564 0.0
C1374 C 0.37358 0.25252 0.46228 0.0
C1375 C 0.35255 0.26689 0.32499 0.0
C1376 C 0.35856 0.26598 0.38785 0.0
C1377 C 0.37976 0.26352 0.56357 0.0
C1378 C 0.37279 0.26471 0.50253 0.0
H1379 H 0.34119 0.24294 0.21372 0.0
H1380 H 0.34356 0.24434 0.32449 0.0
H1381 H 0.3678 0.2437 0.37509 0.0
H1382 H 0.40981 0.24734 0.63303 0.0
H1383 H 0.40042 0.25351 0.53117 0.0
C1384 C 0.99153 0.91583 0.51538 0.0
C1385 C 0.0064 0.91716 0.53579 0.0
C1386 C 0.98842 0.91475 0.45307 0.0
C1387 C 0.00397 0.91861 0.29787 0.0
H1388 H 0.98433 0.88058 0.26714 0.0
C1389 C 0.00021 0.89415 0.05659 0.0
C1390 C 0.00663 0.87981 0.05238 0.0
C1391 C 0.99624 0.90008 0.11321 0.0
C1392 C 0.98966 0.8913 0.27503 0.0
H1393 H 0.02944 0.92006 0.50707 0.0
H1394 H 0.02397 0.91837 0.39817 0.0
H1395 H 0.98492 0.89072 0.37077 0.0
H1396 H 0.01334 0.8602 0.10376 0.0
H1397 H 0.00622 0.87052 0.20309 0.0
H1398 H 0.00928 0.91886 0.20257 0.0
C1399 C 0.01476 0.91802 0.43032 0.0
C1400 C 0.9899 0.89717 0.33407 0.0
C1401 C 0.0179 0.91892 0.49266 0.0
C1402 C 0.00829 0.87123 0.10567 0.0
C1403 C 0.00418 0.87711 0.16235 0.0
C1404 C 0.00357 0.91283 0.23867 0.0
C1405 C 9e-05 0.91522 0.41022 0.0
C1406 C -0.00256 0.91066 0.34628 0.0
C1407 C -0.00144 0.89177 0.1667 0.0
C1408 C 0.9968 0.89891 0.22713 0.0
H1409 H 0.98239 0.91452 0.54748 0.0
H1410 H 0.977 0.91275 0.43854 0.0
H1411 H 0.00985 0.92902 0.30621 0.0
H1412 H -0.00092 0.90127 0.01695 0.0
H1413 H 0.99191 0.9114 0.11543 0.0
C1414 C 0.34987 0.71946 0.75624 0.0
C1415 C 0.34793 0.73379 0.78157 0.0
C1416 C 0.35177 0.71779 0.69333 0.0
C1417 C 0.36808 0.74035 0.57289 0.0
H1418 H 0.35913 0.70649 0.46832 0.0
C1419 C 0.3993 0.73354 0.34915 0.0
C1420 C 0.39002 0.73157 0.29811 0.0
C1421 C 0.39379 0.7309 0.40782 0.0
C1422 C 0.3617 0.716 0.49714 0.0
H1423 H 0.34415 0.75722 0.7608 0.0
H1424 H 0.34702 0.75422 0.65077 0.0
H1425 H 0.34691 0.7086 0.5682 0.0
H1426 H 0.36786 0.72463 0.26857 0.0
H1427 H 0.35835 0.72006 0.37031 0.0
H1428 H 0.38266 0.74793 0.50231 0.0
C1429 C 0.34767 0.74439 0.67962 0.0
C1430 C 0.35472 0.7172 0.55414 0.0
C1431 C 0.34593 0.74609 0.74251 0.0
C1432 C 0.37547 0.72594 0.30654 0.0
C1433 C 0.36995 0.72335 0.36515 0.0
C1434 C 0.37503 0.73914 0.51631 0.0
C1435 C 0.35159 0.73039 0.65497 0.0
C1436 C 0.35783 0.72943 0.59247 0.0
C1437 C 0.37884 0.72643 0.41641 0.0
C1438 C 0.37199 0.72695 0.4779 0.0
H1439 H 0.35135 0.70974 0.78522 0.0
H1440 H 0.35471 0.70685 0.67567 0.0
H1441 H 0.371 0.74973 0.60186 0.0
H1442 H 0.41055 0.73788 0.34388 0.0
H1443 H 0.40099 0.73309 0.4466 0.0
C1444 C 0.52942 0.12437 0.59157 0.0
C1445 C 0.53226 0.11538 0.54031 0.0
C1446 C 0.53218 0.11891 0.65029 0.0
C1447 C 0.54959 0.08791 0.73869 0.0
H1448 H 0.51587 0.0949 0.84646 0.0
C1449 C 0.54846 0.07516 -0.00247 0.0
C1450 C 0.53447 0.07216 0.02429 0.0
C1451 C 0.54958 0.07751 0.93464 0.0
C1452 C 0.52527 0.09262 0.81662 0.0
H1453 H 0.54064 0.0937 0.51087 0.0
H1454 H 0.54544 0.08432 0.61244 0.0
H1455 H 0.51635 0.10666 0.7467 0.0
H1456 H 0.51119 0.06707 0.00573 0.0
H1457 H 0.51324 0.07072 0.89572 0.0
H1458 H 0.55835 0.07363 0.80892 0.0
C1459 C 0.54139 0.09569 0.60744 0.0
C1460 C 0.5257 0.09964 0.7599 0.0
C1461 C 0.53868 0.10115 0.54883 0.0
C1462 C 0.52205 0.06964 0.98639 0.0
C1463 C 0.52321 0.07185 0.92351 0.0
C1464 C 0.54916 0.08085 0.79574 0.0
C1465 C 0.53766 0.10429 0.65879 0.0
C1466 C 0.53786 0.09742 0.72036 0.0
C1467 C 0.53676 0.07673 0.89764 0.0
C1468 C 0.53696 0.08313 0.8352 0.0
H1469 H 0.52445 0.13536 0.58635 0.0
H1470 H 0.52943 0.1259 0.68913 0.0
H1471 H 0.55911 0.08599 0.70909 0.0
H1472 H 0.55827 0.07708 0.02554 0.0
H1473 H 0.56019 0.0812 0.91606 0.0
C1474 C 0.15319 0.26254 0.83646 0.0
C1475 C 0.15461 0.24845 0.80877 0.0
C1476 C 0.16042 0.26546 0.89189 0.0
C1477 C 0.17607 0.24548 0.02404 0.0
H1478 H 0.19473 0.28353 0.06256 0.0
C1479 C 0.20039 0.25245 0.25688 0.0
C1480 C 0.19377 0.26447 0.28792 0.0
C1481 C 0.20064 0.25227 0.19327 0.0
C1482 C 0.18964 0.27283 0.0521 0.0
H1483 H 0.16503 0.22658 0.81541 0.0
H1484 H 0.1777 0.23167 0.91108 0.0
H1485 H 0.18379 0.27955 0.96104 0.0
H1486 H 0.18404 0.28658 0.2779 0.0
H1487 H 0.184 0.28605 0.16667 0.0
H1488 H 0.18145 0.23878 0.11464 0.0
C1489 C 0.17075 0.24036 0.89137 0.0
C1490 C 0.18329 0.2706 -0.00565 0.0
C1491 C 0.16344 0.23741 0.8367 0.0
C1492 C 0.18914 0.27713 0.25487 0.0
C1493 C 0.18916 0.27684 0.19109 0.0
C1494 C 0.18244 0.24767 0.08119 0.0
C1495 C 0.16924 0.25435 0.91992 0.0
C1496 C 0.17635 0.25691 0.98004 0.0
C1497 C 0.19398 0.26396 0.15995 0.0
C1498 C 0.1892 0.26138 0.09612 0.0
H1499 H 0.14648 0.27122 0.81535 0.0
H1500 H 0.15893 0.2763 0.91322 0.0
H1501 H 0.17052 0.23493 0.01504 0.0
H1502 H 0.20428 0.24268 0.2816 0.0
H1503 H 0.20482 0.24238 0.17025 0.0
C1504 C 0.85211 0.21556 0.24511 0.0
C1505 C 0.84732 0.22908 0.27142 0.0
C1506 C 0.85462 0.21467 0.18225 0.0
C1507 C 0.86648 0.24076 0.06429 0.0
H1508 H 0.86496 0.20624 0.95723 0.0
C1509 C 0.89891 0.24116 0.84062 0.0
C1510 C 0.89056 0.23699 0.78916 0.0
C1511 C 0.89382 0.23762 0.89916 0.0
C1512 C 0.86544 0.21597 0.9867 0.0
H1513 H 0.83925 0.25148 0.25241 0.0
H1514 H 0.84307 0.24976 0.14239 0.0
H1515 H 0.85236 0.20534 0.05653 0.0
H1516 H 0.87044 0.22557 0.75871 0.0
H1517 H 0.86164 0.21941 0.8602 0.0
H1518 H 0.87927 0.25153 -0.00523 0.0
C1519 C 0.8455 0.24006 0.17042 0.0
C1520 C 0.85825 0.21544 0.04345 0.0
C1521 C 0.84319 0.24101 0.23326 0.0
C1522 C 0.87742 0.22856 0.79714 0.0
C1523 C 0.8723 0.22507 0.85557 0.0
C1524 C 0.87362 0.24129 0.00788 0.0
C1525 C 0.85217 0.22724 0.14492 0.0
C1526 C 0.85868 0.22787 0.08273 0.0
C1527 C 0.88015 0.23004 0.9072 0.0
C1528 C 0.87324 0.2289 0.9685 0.0
H1529 H 0.85536 0.20616 0.27348 0.0
H1530 H 0.85971 0.20462 0.16398 0.0
H1531 H 0.86735 0.25042 0.094 0.0
H1532 H 0.90903 0.24775 0.83564 0.0
H1533 H 0.90024 0.24139 0.9382 0.0
C1534 C 0.69505 0.77654 0.73965 0.0
C1535 C 0.69733 0.76231 0.76552 0.0
C1536 C 0.69268 0.77803 0.6769 0.0
C1537 C 0.67621 0.75502 0.5577 0.0
H1538 H 0.68465 0.7888 0.45186 0.0
C1539 C 0.645 0.76114 0.33272 0.0
C1540 C 0.65421 0.76351 0.28171 0.0
C1541 C 0.65046 0.76369 0.39155 0.0
C1542 C 0.68222 0.7793 0.48099 0.0
H1543 H 0.70113 0.73886 0.74547 0.0
H1544 H 0.69747 0.74151 0.63568 0.0
H1545 H 0.69694 0.78705 0.55162 0.0
H1546 H 0.67626 0.77095 0.25271 0.0
H1547 H 0.68567 0.77536 0.35456 0.0
H1548 H 0.66175 0.74708 0.48738 0.0
C1549 C 0.69691 0.75142 0.66409 0.0
C1550 C 0.68923 0.77831 0.538 0.0
C1551 C 0.69912 0.74992 0.72684 0.0
C1552 C 0.66867 0.76935 0.29052 0.0
C1553 C 0.67414 0.77184 0.34927 0.0
C1554 C 0.66924 0.756 0.50104 0.0
C1555 C 0.69273 0.76532 0.63913 0.0
C1556 C 0.68632 0.76611 0.57682 0.0
C1557 C 0.6653 0.76847 0.40042 0.0
C1558 C 0.67212 0.76816 0.46208 0.0
H1559 H 0.6937 0.78634 0.76828 0.0
H1560 H 0.68955 0.7889 0.65904 0.0
H1561 H 0.67344 0.74565 0.58704 0.0
H1562 H 0.63382 0.75664 0.32724 0.0
H1563 H 0.64329 0.76125 0.43021 0.0
C1564 C 0.65958 0.25798 0.65568 0.0
C1565 C 0.65197 0.24662 0.68719 0.0
C1566 C 0.66647 0.25501 0.6 0.0
C1567 C 0.68056 0.22422 0.5028 0.0
H1568 H 0.67753 0.25443 0.37618 0.0
C1569 C 0.68834 0.21494 0.24377 0.0
C1570 C 0.69313 0.22727 0.20896 0.0
C1571 C 0.6875 0.21603 0.30734 0.0
C1572 C 0.67879 0.246 0.41143 0.0
H1573 H 0.64518 0.22337 0.68483 0.0
H1574 H 0.65692 0.21818 0.5859 0.0
H1575 H 0.66613 0.25894 0.47475 0.0
H1576 H 0.70302 0.2494 0.21318 0.0
H1577 H 0.70185 0.25117 0.32417 0.0
H1578 H 0.69277 0.21104 0.4376 0.0
C1579 C 0.65789 0.2293 0.60519 0.0
C1580 C 0.67219 0.24857 0.46796 0.0
C1581 C 0.65107 0.23228 0.66142 0.0
C1582 C 0.699 0.23985 0.23894 0.0
C1583 C 0.69828 0.24088 0.30239 0.0
C1584 C 0.68712 0.22159 0.44573 0.0
C1585 C 0.66574 0.24064 0.5741 0.0
C1586 C 0.67294 0.23772 0.51428 0.0
C1587 C 0.69156 0.22941 0.3367 0.0
C1588 C 0.68626 0.23247 0.3995 0.0
H1589 H 0.66068 0.26908 0.67511 0.0
H1590 H 0.67263 0.26393 0.57785 0.0
H1591 H 0.68149 0.21571 0.53789 0.0
H1592 H 0.68384 0.20505 0.22188 0.0
H1593 H 0.68234 0.20698 0.33265 0.0
C1594 C 0.89005 0.76006 0.13923 0.0
C1595 C 0.88743 0.74614 0.16686 0.0
C1596 C 0.88291 0.76373 0.08436 0.0
C1597 C 0.86503 0.74562 0.95268 0.0
H1598 H 0.85074 0.78561 0.9153 0.0
C1599 C 0.84334 0.75619 0.71772 0.0
C1600 C 0.85138 0.76765 0.68874 0.0
C1601 C 0.84251 0.75571 0.78122 0.0
C1602 C 0.85458 0.77437 0.92542 0.0
H1603 H 0.87506 0.72532 0.16059 0.0
H1604 H 0.86254 0.73171 0.06568 0.0
H1605 H 0.86092 0.78016 0.01693 0.0
H1606 H 0.86316 0.78861 0.7021 0.0
H1607 H 0.86221 0.78749 0.81319 0.0
H1608 H 0.85925 0.73983 0.86152 0.0
C1609 C 0.87032 0.73969 0.08512 0.0
C1610 C 0.8605 0.77129 0.98326 0.0
C1611 C 0.87755 0.73599 0.13931 0.0
C1612 C 0.85695 0.7796 0.72356 0.0
C1613 C 0.85636 0.77898 0.78726 0.0
C1614 C 0.8591 0.74866 0.89538 0.0
C1615 C 0.87299 0.75354 0.05676 0.0
C1616 C 0.86596 0.7569 -0.00292 0.0
C1617 C 0.85001 0.76649 0.81653 0.0
C1618 C 0.85398 0.7631 0.88071 0.0
H1619 H 0.89761 0.76806 0.16 0.0
H1620 H 0.88534 0.77441 0.06311 0.0
H1621 H 0.86941 0.73451 0.96132 0.0
H1622 H 0.83872 0.747 0.69153 0.0
H1623 H 0.83716 0.74618 0.80269 0.0
C1624 C 0.50184 0.59954 0.43818 0.0
C1625 C 0.50987 0.61305 0.44106 0.0
C1626 C 0.49682 0.59401 0.38237 0.0
C1627 C 0.50105 0.58018 0.25677 0.0
H1628 H 0.48441 0.60449 0.12664 0.0
C1629 C 0.51306 0.57304 0.00253 0.0
C1630 C 0.50173 0.57642 0.96028 0.0
C1631 C 0.51018 0.57386 0.06503 0.0
C1632 C 0.48875 0.59745 0.16288 0.0
H1633 H 0.51881 0.63147 0.38822 0.0
H1634 H 0.50993 0.62182 0.28991 0.0
H1635 H 0.48625 0.61478 0.22975 0.0
H1636 H 0.47819 0.58186 0.94982 0.0
H1637 H 0.47327 0.58355 0.05934 0.0
H1638 H 0.50434 0.56316 0.18912 0.0
C1639 C 0.50732 0.61566 0.33121 0.0
C1640 C 0.48994 0.6034 0.22157 0.0
C1641 C 0.51245 0.62115 0.3872 0.0
C1642 C 0.48715 0.57924 0.98142 0.0
C1643 C 0.48433 0.58028 0.04399 0.0
C1644 C 0.50002 0.57429 0.19792 0.0
C1645 C 0.49978 0.60186 0.32828 0.0
C1646 C 0.49646 0.59495 0.26858 0.0
C1647 C 0.49599 0.57824 0.08611 0.0
C1648 C 0.49423 0.58303 0.15019 0.0
H1649 H 0.50003 0.59278 0.47849 0.0
H1650 H 0.49106 0.58334 0.38124 0.0
H1651 H 0.50622 0.57347 0.29222 0.0
H1652 H 0.52437 0.57073 0.98735 0.0
H1653 H 0.51939 0.57229 0.09661 0.0
C1654 C 0.03026 0.37024 0.89843 0.0
C1655 C 0.0333 0.37911 0.94971 0.0
C1656 C 0.03358 0.37551 0.83998 0.0
C1657 C 0.05225 0.40576 0.7518 0.0
H1658 H 0.01774 0.4007 0.64646 0.0
C1659 C 0.05028 0.4178 0.4926 0.0
C1660 C 0.03625 0.42128 0.46732 0.0
C1661 C 0.05178 0.41593 0.55563 0.0
C1662 C 0.02738 0.40245 0.67562 0.0
H1663 H 0.0426 0.40029 0.98023 0.0
H1664 H 0.04838 0.40942 0.87867 0.0
H1665 H 0.01805 0.38878 0.74572 0.0
H1666 H 0.01344 0.42783 0.4878 0.0
H1667 H 0.01618 0.4251 0.59803 0.0
H1668 H 0.06144 0.41965 0.68112 0.0
C1669 C 0.04378 0.39826 0.88346 0.0
C1670 C 0.0277 0.39532 0.73202 0.0
C1671 C 0.04052 0.39297 0.94185 0.0
C1672 C 0.02431 0.42487 0.50624 0.0
C1673 C 0.02586 0.42321 0.5692 0.0
C1674 C 0.05194 0.41292 0.69494 0.0
C1675 C 0.03978 0.38985 0.83191 0.0
C1676 C 0.04014 0.39682 0.77063 0.0
C1677 C 0.0393 0.4177 0.59398 0.0
C1678 C 0.03946 0.41135 0.65641 0.0
H1679 H 0.02463 0.35956 0.9034 0.0
H1680 H 0.0306 0.36869 0.80094 0.0
H1681 H 0.06197 0.40712 0.78082 0.0
H1682 H 0.0597 0.41503 0.46357 0.0
H1683 H 0.06229 0.41174 0.57339 0.0
C1684 C 0.51548 0.36492 0.61185 0.0
C1685 C 0.5114 0.37337 0.56054 0.0
C1686 C 0.51178 0.36987 0.67037 0.0
C1687 C 0.49043 0.39833 0.75872 0.0
H1688 H 0.52538 0.39645 0.86341 0.0
C1689 C 0.51672 0.4204 0.00339 0.0
C1690 C 0.505 0.4162 0.04247 0.0
C1691 C 0.51541 0.41823 0.94057 0.0
C1692 C 0.51558 0.39731 0.83444 0.0
H1693 H 0.49979 0.39338 0.53003 0.0
H1694 H 0.4934 0.40201 0.63167 0.0
H1695 H 0.52602 0.38449 0.76434 0.0
H1696 H 0.48209 0.40819 0.04633 0.0
H1697 H 0.47996 0.40405 0.93688 0.0
H1698 H 0.48013 0.41145 0.82924 0.0
C1699 C 0.49913 0.39138 0.62693 0.0
C1700 C 0.51584 0.39014 0.77813 0.0
C1701 C 0.50276 0.38638 0.56847 0.0
C1702 C 0.49134 0.41148 0.01723 0.0
C1703 C 0.4901 0.4091 0.95439 0.0
C1704 C 0.49017 0.40555 0.81543 0.0
C1705 C 0.50416 0.38352 0.6785 0.0
C1706 C 0.50326 0.39049 0.73972 0.0
C1707 C 0.50246 0.41161 0.91603 0.0
C1708 C 0.50278 0.40513 0.85378 0.0
H1709 H 0.52222 0.3549 0.60685 0.0
H1710 H 0.51557 0.36343 0.70936 0.0
H1711 H 0.48058 0.3988 0.72994 0.0
H1712 H 0.52729 0.4243 0.02172 0.0
H1713 H 0.52495 0.42071 0.91175 0.0
C1714 C 0.05042 0.57773 0.50613 0.0
C1715 C 0.03772 0.57381 0.54053 0.0
C1716 C 0.04951 0.5787 0.44254 0.0
C1717 C 0.02045 0.58955 0.33732 0.0
H1718 H 0.05066 0.58459 0.21177 0.0
C1719 C 0.01009 0.60936 0.09279 0.0
C1720 C 0.02194 0.6162 0.06142 0.0
C1721 C 0.01257 0.60225 0.14842 0.0
C1722 C 0.04219 0.58615 0.2466 0.0
H1723 H 0.01494 0.56557 0.53546 0.0
H1724 H 0.01346 0.56695 0.42444 0.0
H1725 H 0.05436 0.57309 0.3124 0.0
H1726 H 0.04562 0.62132 0.06385 0.0
H1727 H 0.04995 0.6092 0.1628 0.0
H1728 H 0.00855 0.60305 0.27343 0.0
C1729 C 0.02393 0.56976 0.44658 0.0
C1730 C 0.04426 0.57947 0.30388 0.0
C1731 C 0.0248 0.56891 0.51006 0.0
C1732 C 0.03632 0.61605 0.08718 0.0
C1733 C 0.0388 0.60901 0.14342 0.0
C1734 C 0.01845 0.59627 0.28061 0.0
C1735 C 0.03593 0.57563 0.41269 0.0
C1736 C 0.03339 0.58114 0.34977 0.0
C1737 C 0.02693 0.60199 0.1745 0.0
C1738 C 0.02928 0.59469 0.23458 0.0
H1739 H 0.06058 0.58147 0.52838 0.0
H1740 H 0.05896 0.5832 0.41757 0.0
H1741 H 0.01208 0.59145 0.3723 0.0
H1742 H -0.00106 0.60904 0.07333 0.0
H1743 H 0.00323 0.59671 0.1705 0.0
loop_
_geom_bond_atom_site_label_1
_geom_bond_atom_site_label_2
_geom_bond_distance
_geom_bond_site_symmetry_2
_ccdc_geom_bond_type
Co0 O3 1.970 . S
Co0 N17 1.989 . S
Co0 O25 1.967 . S
Co0 O32 1.920 . S
Co1 O4 1.966 . S
Co1 N10 2.022 . S
Co1 N18 1.993 . S
Co1 O26 1.941 . S
C2 O3 1.258 . S
C2 O4 1.263 . S
O3 Co0 1.970 . S
O3 C2 1.258 . S
O4 Co1 1.966 . S
O4 C2 1.263 . S
C5 O6 1.235 . S
C5 O32 1.289 . S
O6 C5 1.235 . S
C7 C9 1.400 1_554 S
C7 N10 1.351 . S
C7 C12 1.501 . S
C8 C9 1.387 . S
C8 N11 1.341 1_556 S
C9 C7 1.400 1_556 S
C9 C8 1.387 . S
N10 Co1 2.022 . S
N10 C7 1.351 . S
N10 N11 1.365 . S
N11 C8 1.341 1_554 S
N11 N10 1.365 . S
N11 H31 0.862 . S
C12 C7 1.501 . S
C12 H13 0.961 . S
C12 H14 0.961 1_455 S
C12 H15 0.973 . S
H13 C12 0.961 . S
H14 C12 0.961 1_655 S
H15 C12 0.973 . S
C16 N17 1.342 . S
C16 C20 1.401 . S
C16 C21 1.499 . S
N17 Co0 1.989 . S
N17 C16 1.342 . S
N17 N18 1.388 . S
N18 Co1 1.993 . S
N18 N17 1.388 . S
N18 C19 1.346 . S
C19 N18 1.346 . S
C19 C20 1.396 . S
C19 C29 1.510 . S
C20 C16 1.401 . S
C20 C19 1.396 . S
C21 C16 1.499 . S
C21 H22 0.959 . S
C21 H23 0.960 . S
C21 H24 0.961 . S
H22 C21 0.959 . S
H23 C21 0.960 . S
H24 C21 0.961 . S
O25 Co0 1.967 . S
O25 C33 1.258 . S
O26 Co1 1.941 . S
O26 C33 1.266 . S
H27 C29 0.959 . S
H28 C29 0.961 . S
C29 C19 1.510 . S
C29 H27 0.959 . S
C29 H28 0.961 . S
C29 H30 0.960 . S
H30 C29 0.960 . S
H31 N11 0.862 . S
O32 Co0 1.920 . S
O32 C5 1.289 . S
C33 O25 1.258 . S
C33 O26 1.266 . S
Co34 O37 1.970 . S
Co34 N51 1.989 . S
Co34 O59 1.967 . S
Co34 O66 1.920 . S
Co35 O38 1.966 . S
Co35 N44 2.022 . S
Co35 N52 1.993 . S
Co35 O60 1.941 . S
C36 O37 1.258 . S
C36 O38 1.263 . S
O37 Co34 1.970 . S
O37 C36 1.258 . S
O38 Co35 1.966 . S
O38 C36 1.263 . S
C39 O40 1.235 . S
C39 O66 1.289 . S
O40 C39 1.235 . S
C41 C43 1.400 . S
C41 N44 1.351 . S
C41 C46 1.501 . S
C42 C43 1.387 . S
C42 N45 1.341 . S
C43 C41 1.400 . S
C43 C42 1.387 . S
N44 Co35 2.022 . S
N44 C41 1.351 . S
N44 N45 1.365 . S
N45 C42 1.341 . S
N45 N44 1.365 . S
N45 H65 0.862 . S
C46 C41 1.501 . S
C46 H47 0.961 . S
C46 H48 0.961 . S
C46 H49 0.960 . S
H47 C46 0.961 . S
H48 C46 0.961 . S
H49 C46 0.960 . S
C50 N51 1.342 . S
C50 C54 1.401 . S
C50 C55 1.499 . S
N51 Co34 1.989 . S
N51 C50 1.342 . S
N51 N52 1.388 . S
N52 Co35 1.993 . S
N52 N51 1.388 . S
N52 C53 1.346 . S
C53 N52 1.346 . S
C53 C54 1.396 . S
C53 C63 1.510 . S
C54 C50 1.401 . S
C54 C53 1.396 . S
C55 C50 1.499 . S
C55 H56 0.959 . S
C55 H57 0.960 . S
C55 H58 0.961 . S
H56 C55 0.959 . S
H57 C55 0.960 . S
H58 C55 0.961 . S
O59 Co34 1.967 . S
O59 C67 1.258 . S
O60 Co35 1.941 . S
O60 C67 1.266 . S
H61 C63 0.959 . S
H62 C63 0.961 . S
C63 C53 1.510 . S
C63 H61 0.959 . S
C63 H62 0.961 . S
C63 H64 0.960 . S
H64 C63 0.960 . S
H65 N45 0.862 . S
O66 Co34 1.920 . S
O66 C39 1.289 . S
C67 O59 1.258 . S
C67 O60 1.266 . S
Co68 O71 1.970 . S
Co68 N85 1.989 . S
Co68 O93 1.967 . S
Co68 O100 1.920 . S
Co69 O72 1.966 . S
Co69 N78 2.022 . S
Co69 N86 1.993 . S
Co69 O94 1.941 . S
C70 O71 1.258 . S
C70 O72 1.263 . S
O71 Co68 1.970 . S
O71 C70 1.258 . S
O72 Co69 1.966 . S
O72 C70 1.263 . S
C73 O74 1.235 . S
C73 O100 1.289 . S
O74 C73 1.235 . S
C75 C77 1.400 . S
C75 N78 1.351 . S
C75 C80 1.501 . S
C76 C77 1.387 . S
C76 N79 1.341 . S
C77 C75 1.400 . S
C77 C76 1.387 . S
N78 Co69 2.022 . S
N78 C75 1.351 . S
N78 N79 1.365 . S
N79 C76 1.341 . S
N79 N78 1.365 . S
N79 H99 0.862 . S
C80 C75 1.501 . S
C80 H81 0.961 . S
C80 H82 0.961 . S
C80 H83 0.960 . S
H81 C80 0.961 . S
H82 C80 0.961 . S
H83 C80 0.960 . S
C84 N85 1.342 . S
C84 C88 1.401 . S
C84 C89 1.499 . S
N85 Co68 1.989 . S
N85 C84 1.342 . S
N85 N86 1.388 . S
N86 Co69 1.993 . S
N86 N85 1.388 . S
N86 C87 1.346 . S
C87 N86 1.346 . S
C87 C88 1.396 . S
C87 C97 1.510 . S
C88 C84 1.401 . S
C88 C87 1.396 . S
C89 C84 1.499 . S
C89 H90 0.959 . S
C89 H91 0.960 . S
C89 H92 0.961 . S
H90 C89 0.959 . S
H91 C89 0.960 . S
H92 C89 0.961 . S
O93 Co68 1.967 . S
O93 C101 1.258 . S
O94 Co69 1.941 . S
O94 C101 1.266 . S
H95 C97 0.959 . S
H96 C97 0.961 . S
C97 C87 1.510 . S
C97 H95 0.959 . S
C97 H96 0.961 . S
C97 H98 0.960 . S
H98 C97 0.960 . S
H99 N79 0.862 . S
O100 Co68 1.920 . S
O100 C73 1.289 . S
C101 O93 1.258 . S
C101 O94 1.266 . S
Co102 O105 1.970 . S
Co102 N119 1.978 1_554 S
Co102 O127 1.967 . S
Co102 O134 1.920 . S
Co103 O106 1.966 . S
Co103 N112 2.022 . S
Co103 N120 1.993 . S
Co103 O128 1.941 . S
C104 O105 1.258 . S
C104 O106 1.263 1_554 S
O105 Co102 1.970 . S
O105 C104 1.258 . S
O106 Co103 1.966 . S
O106 C104 1.263 1_556 S
C107 O108 1.235 . S
C107 O134 1.289 . S
O108 C107 1.235 . S
C109 C111 1.400 . S
C109 N112 1.351 . S
C109 C114 1.501 . S
C110 C111 1.387 . S
C110 N113 1.341 . S
C111 C109 1.400 . S
C111 C110 1.387 . S
N112 Co103 2.022 . S
N112 C109 1.351 . S
N112 N113 1.365 . S
N113 C110 1.341 . S
N113 N112 1.365 . S
N113 H133 0.862 . S
C114 C109 1.501 . S
C114 H115 0.961 . S
C114 H116 0.961 . S
C114 H117 0.960 . S
H115 C114 0.961 . S
H116 C114 0.961 . S
H117 C114 0.960 . S
C118 N119 1.341 1_554 S
C118 C122 1.401 1_554 S
C118 C123 1.499 . S
N119 Co102 1.978 1_556 S
N119 C118 1.341 1_556 S
N119 N120 1.405 . S
N120 Co103 1.993 . S
N120 N119 1.405 . S
N120 C121 1.346 . S
C121 N120 1.346 . S
C121 C122 1.396 . S
C121 C131 1.510 . S
C122 C118 1.401 1_556 S
C122 C121 1.396 . S
C123 C118 1.499 . S
C123 H124 0.959 . S
C123 H125 0.960 . S
C123 H126 0.961 . S
H124 C123 0.959 . S
H125 C123 0.960 . S
H126 C123 0.961 . S
O127 Co102 1.967 . S
O127 C135 1.258 . S
O128 Co103 1.941 . S
O128 C135 1.266 1_556 S
H129 C131 0.959 . S
H130 C131 0.961 . S
C131 C121 1.510 . S
C131 H129 0.959 . S
C131 H130 0.961 . S
C131 H132 0.960 . S
H132 C131 0.960 . S
H133 N113 0.862 . S
O134 Co102 1.920 . S
O134 C107 1.289 . S
C135 O127 1.258 . S
C135 O128 1.266 1_554 S
Co136 O139 1.970 . S
Co136 N153 1.989 . S
Co136 O161 1.967 . S
Co136 O168 1.920 . S
Co137 O140 1.966 . S
Co137 N146 2.022 . S
Co137 N154 1.993 . S
Co137 O162 1.941 . S
C138 O139 1.258 . S
C138 O140 1.263 . S
O139 Co136 1.970 . S
O139 C138 1.258 . S
O140 Co137 1.966 . S
O140 C138 1.263 . S
C141 O142 1.235 . S
C141 O168 1.289 . S
O142 C141 1.235 . S
C143 C145 1.400 1_556 S
C143 N146 1.351 . S
C143 C148 1.501 . S
C144 C145 1.387 . S
C144 N147 1.341 1_554 S
C145 C143 1.400 1_554 S
C145 C144 1.387 . S
N146 Co137 2.022 . S
N146 C143 1.351 . S
N146 N147 1.365 . S
N147 C144 1.341 1_556 S
N147 N146 1.365 . S
N147 H167 0.862 . S
C148 C143 1.501 . S
C148 H149 0.961 . S
C148 H150 0.961 1_455 S
C148 H151 0.973 . S
H149 C148 0.961 . S
H150 C148 0.961 1_655 S
H151 C148 0.973 . S
C152 N153 1.342 . S
C152 C156 1.401 . S
C152 C157 1.499 . S
N153 Co136 1.989 . S
N153 C152 1.342 . S
N153 N154 1.388 . S
N154 Co137 1.993 . S
N154 N153 1.388 . S
N154 C155 1.346 . S
C155 N154 1.346 . S
C155 C156 1.396 . S
C155 C165 1.510 . S
C156 C152 1.401 . S
C156 C155 1.396 . S
C157 C152 1.499 . S
C157 H158 0.959 . S
C157 H159 0.960 . S
C157 H160 0.961 . S
H158 C157 0.959 . S
H159 C157 0.960 . S
H160 C157 0.961 . S
O161 Co136 1.967 . S
O161 C169 1.258 . S
O162 Co137 1.941 . S
O162 C169 1.266 . S
H163 C165 0.959 . S
H164 C165 0.961 . S
C165 C155 1.510 . S
C165 H163 0.959 . S
C165 H164 0.961 . S
C165 H166 0.960 . S
H166 C165 0.960 . S
H167 N147 0.862 . S
O168 Co136 1.920 . S
O168 C141 1.289 . S
C169 O161 1.258 . S
C169 O162 1.266 . S
Co170 O173 1.970 . S
Co170 N187 1.978 1_556 S
Co170 O195 1.967 . S
Co170 O202 1.920 . S
Co171 O174 1.966 . S
Co171 N180 2.022 . S
Co171 N188 1.993 . S
Co171 O196 1.941 . S
C172 O173 1.258 . S
C172 O174 1.263 1_556 S
O173 Co170 1.970 . S
O173 C172 1.258 . S
O174 Co171 1.966 . S
O174 C172 1.263 1_554 S
C175 O176 1.235 . S
C175 O202 1.289 . S
O176 C175 1.235 . S
C177 C179 1.400 . S
C177 N180 1.351 . S
C177 C182 1.501 . S
C178 C179 1.387 . S
C178 N181 1.341 . S
C179 C177 1.400 . S
C179 C178 1.387 . S
N180 Co171 2.022 . S
N180 C177 1.351 . S
N180 N181 1.365 . S
N181 C178 1.341 . S
N181 N180 1.365 . S
N181 H201 0.862 . S
C182 C177 1.501 . S
C182 H183 0.961 . S
C182 H184 0.961 . S
C182 H185 0.960 . S
H183 C182 0.961 . S
H184 C182 0.961 . S
H185 C182 0.960 . S
C186 N187 1.341 1_556 S
C186 C190 1.401 1_556 S
C186 C191 1.499 . S
N187 Co170 1.978 1_554 S
N187 C186 1.341 1_554 S
N187 N188 1.405 . S
N188 Co171 1.993 . S
N188 N187 1.405 . S
N188 C189 1.346 . S
C189 N188 1.346 . S
C189 C190 1.396 . S
C189 C199 1.510 . S
C190 C186 1.401 1_554 S
C190 C189 1.396 . S
C191 C186 1.499 . S
C191 H192 0.959 . S
C191 H193 0.960 . S
C191 H194 0.961 . S
H192 C191 0.959 . S
H193 C191 0.960 . S
H194 C191 0.961 . S
O195 Co170 1.967 . S
O195 C203 1.258 . S
O196 Co171 1.941 . S
O196 C203 1.266 1_554 S
H197 C199 0.959 . S
H198 C199 0.961 . S
C199 C189 1.510 . S
C199 H197 0.959 . S
C199 H198 0.961 . S
C199 H200 0.960 . S
H200 C199 0.960 . S
H201 N181 0.862 . S
O202 Co170 1.920 . S
O202 C175 1.289 . S
C203 O195 1.258 . S
C203 O196 1.266 1_556 S
Co204 O207 1.970 . S
Co204 N221 1.989 . S
Co204 O229 1.967 . S
Co204 O236 1.920 . S
Co205 O208 1.966 . S
Co205 N214 2.022 . S
Co205 N222 1.993 . S
Co205 O230 1.941 . S
C206 O207 1.258 . S
C206 O208 1.263 . S
O207 Co204 1.970 . S
O207 C206 1.258 . S
O208 Co205 1.966 . S
O208 C206 1.263 . S
C209 O210 1.235 . S
C209 O236 1.289 . S
O210 C209 1.235 . S
C211 C213 1.400 . S
C211 N214 1.351 . S
C211 C216 1.501 . S
C212 C213 1.387 . S
C212 N215 1.341 . S
C213 C211 1.400 . S
C213 C212 1.387 . S
N214 Co205 2.022 . S
N214 C211 1.351 . S
N214 N215 1.365 . S
N215 C212 1.341 . S
N215 N214 1.365 . S
N215 H235 0.862 . S
C216 C211 1.501 . S
C216 H217 0.961 . S
C216 H218 0.961 . S
C216 H219 0.960 . S
H217 C216 0.961 . S
H218 C216 0.961 . S
H219 C216 0.960 . S
C220 N221 1.342 . S
C220 C224 1.401 . S
C220 C225 1.499 . S
N221 Co204 1.989 . S
N221 C220 1.342 . S
N221 N222 1.388 . S
N222 Co205 1.993 . S
N222 N221 1.388 . S
N222 C223 1.346 . S
C223 N222 1.346 . S
C223 C224 1.396 . S
C223 C233 1.510 . S
C224 C220 1.401 . S
C224 C223 1.396 . S
C225 C220 1.499 . S
C225 H226 0.959 . S
C225 H227 0.960 . S
C225 H228 0.961 . S
H226 C225 0.959 . S
H227 C225 0.960 . S
H228 C225 0.961 . S
O229 Co204 1.967 . S
O229 C237 1.258 . S
O230 Co205 1.941 . S
O230 C237 1.266 . S
H231 C233 0.959 . S
H232 C233 0.961 . S
C233 C223 1.510 . S
C233 H231 0.959 . S
C233 H232 0.961 . S
C233 H234 0.960 . S
H234 C233 0.960 . S
H235 N215 0.862 . S
O236 Co204 1.920 . S
O236 C209 1.289 . S
C237 O229 1.258 . S
C237 O230 1.266 . S
Co238 O241 1.970 . S
Co238 N255 1.989 . S
Co238 O263 1.967 . S
Co238 O270 1.920 . S
Co239 O242 1.966 . S
Co239 N248 2.022 . S
Co239 N256 1.993 . S
Co239 O264 1.941 . S
C240 O241 1.258 . S
C240 O242 1.263 . S
O241 Co238 1.970 . S
O241 C240 1.258 . S
O242 Co239 1.966 . S
O242 C240 1.263 . S
C243 O244 1.235 . S
C243 O270 1.289 . S
O244 C243 1.235 . S
C245 C247 1.400 . S
C245 N248 1.351 . S
C245 C250 1.501 . S
C246 C247 1.387 . S
C246 N249 1.341 . S
C247 C245 1.400 . S
C247 C246 1.387 . S
N248 Co239 2.022 . S
N248 C245 1.351 . S
N248 N249 1.365 . S
N249 C246 1.341 . S
N249 N248 1.365 . S
N249 H269 0.862 . S
C250 C245 1.501 . S
C250 H251 0.961 . S
C250 H252 0.961 . S
C250 H253 0.960 . S
H251 C250 0.961 . S
H252 C250 0.961 . S
H253 C250 0.960 . S
C254 N255 1.342 . S
C254 C258 1.401 . S
C254 C259 1.499 . S
N255 Co238 1.989 . S
N255 C254 1.342 . S
N255 N256 1.388 . S
N256 Co239 1.993 . S
N256 N255 1.388 . S
N256 C257 1.346 . S
C257 N256 1.346 . S
C257 C258 1.396 . S
C257 C267 1.510 . S
C258 C254 1.401 . S
C258 C257 1.396 . S
C259 C254 1.499 . S
C259 H260 0.959 . S
C259 H261 0.960 . S
C259 H262 0.961 . S
H260 C259 0.959 . S
H261 C259 0.960 . S
H262 C259 0.961 . S
O263 Co238 1.967 . S
O263 C271 1.258 . S
O264 Co239 1.941 . S
O264 C271 1.266 . S
H265 C267 0.959 . S
H266 C267 0.961 . S
C267 C257 1.510 . S
C267 H265 0.959 . S
C267 H266 0.961 . S
C267 H268 0.960 . S
H268 C267 0.960 . S
H269 N249 0.862 . S
O270 Co238 1.920 . S
O270 C243 1.289 . S
C271 O263 1.258 . S
C271 O264 1.266 . S
Co272 O275 1.970 . S
Co272 N289 1.989 . S
Co272 O297 1.967 . S
Co272 O304 1.920 . S
Co273 O276 1.966 . S
Co273 N282 2.022 . S
Co273 N290 1.993 . S
Co273 O298 1.941 . S
C274 O275 1.258 . S
C274 O276 1.263 . S
O275 Co272 1.970 . S
O275 C274 1.258 . S
O276 Co273 1.966 . S
O276 C274 1.263 . S
C277 O278 1.235 . S
C277 O304 1.289 . S
O278 C277 1.235 . S
C279 C281 1.400 . S
C279 N282 1.351 . S
C279 C284 1.501 . S
C280 C281 1.387 . S
C280 N283 1.341 . S
C281 C279 1.400 . S
C281 C280 1.387 . S
N282 Co273 2.022 . S
N282 C279 1.351 . S
N282 N283 1.365 . S
N283 C280 1.341 . S
N283 N282 1.365 . S
N283 H303 0.862 . S
C284 C279 1.501 . S
C284 H285 0.961 . S
C284 H286 0.961 . S
C284 H287 0.960 . S
H285 C284 0.961 . S
H286 C284 0.961 . S
H287 C284 0.960 . S
C288 N289 1.342 . S
C288 C292 1.401 . S
C288 C293 1.499 . S
N289 Co272 1.989 . S
N289 C288 1.342 . S
N289 N290 1.388 . S
N290 Co273 1.993 . S
N290 N289 1.388 . S
N290 C291 1.346 . S
C291 N290 1.346 . S
C291 C292 1.396 . S
C291 C301 1.510 . S
C292 C288 1.401 . S
C292 C291 1.396 . S
C293 C288 1.499 . S
C293 H294 0.959 . S
C293 H295 0.960 . S
C293 H296 0.961 . S
H294 C293 0.959 . S
H295 C293 0.960 . S
H296 C293 0.961 . S
O297 Co272 1.967 . S
O297 C305 1.258 . S
O298 Co273 1.941 . S
O298 C305 1.266 . S
H299 C301 0.959 . S
H300 C301 0.961 . S
C301 C291 1.510 . S
C301 H299 0.959 . S
C301 H300 0.961 . S
C301 H302 0.960 . S
H302 C301 0.960 . S
H303 N283 0.862 . S
O304 Co272 1.920 . S
O304 C277 1.289 . S
C305 O297 1.258 . S
C305 O298 1.266 . S
Co306 O309 1.970 . S
Co306 N323 1.976 1_556 S
Co306 O331 1.967 . S
Co306 O338 1.920 . S
Co307 O310 1.966 . S
Co307 N316 2.022 . S
Co307 N324 1.993 . S
Co307 O332 1.941 . S
C308 O309 1.258 . S
C308 O310 1.263 1_556 S
O309 Co306 1.970 . S
O309 C308 1.258 . S
O310 Co307 1.966 . S
O310 C308 1.263 1_554 S
C311 O312 1.235 . S
C311 O338 1.289 . S
O312 C311 1.235 . S
C313 C315 1.400 . S
C313 N316 1.351 . S
C313 C318 1.501 . S
C314 C315 1.387 . S
C314 N317 1.341 . S
C315 C313 1.400 . S
C315 C314 1.387 . S
N316 Co307 2.022 . S
N316 C313 1.351 . S
N316 N317 1.365 . S
N317 C314 1.341 . S
N317 N316 1.365 . S
N317 H337 0.862 . S
C318 C313 1.501 . S
C318 H319 0.961 . S
C318 H320 0.961 . S
C318 H321 0.960 . S
H319 C318 0.961 . S
H320 C318 0.961 . S
H321 C318 0.960 . S
C322 N323 1.340 1_556 S
C322 C326 1.401 1_556 S
C322 C327 1.499 . S
N323 Co306 1.976 1_554 S
N323 C322 1.340 1_554 S
N323 N324 1.407 . S
N324 Co307 1.993 . S
N324 N323 1.407 . S
N324 C325 1.346 . S
C325 N324 1.346 . S
C325 C326 1.396 . S
C325 C335 1.510 . S
C326 C322 1.401 1_554 S
C326 C325 1.396 . S
C327 C322 1.499 . S
C327 H328 0.959 . S
C327 H329 0.960 . S
C327 H330 0.961 . S
H328 C327 0.959 . S
H329 C327 0.960 . S
H330 C327 0.961 . S
O331 Co306 1.967 . S
O331 C339 1.258 . S
O332 Co307 1.941 . S
O332 C339 1.266 1_554 S
H333 C335 0.959 . S
H334 C335 0.961 . S
C335 C325 1.510 . S
C335 H333 0.959 . S
C335 H334 0.961 . S
C335 H336 0.960 . S
H336 C335 0.960 . S
H337 N317 0.862 . S
O338 Co306 1.920 . S
O338 C311 1.289 . S
C339 O331 1.258 . S
C339 O332 1.266 1_556 S
Co340 O343 1.970 . S
Co340 N357 1.976 1_554 S
Co340 O365 1.967 . S
Co340 O372 1.920 . S
Co341 O344 1.966 . S
Co341 N350 2.022 . S
Co341 N358 1.993 . S
Co341 O366 1.941 . S
C342 O343 1.258 . S
C342 O344 1.263 1_554 S
O343 Co340 1.970 . S
O343 C342 1.258 . S
O344 Co341 1.966 . S
O344 C342 1.263 1_556 S
C345 O346 1.235 . S
C345 O372 1.289 . S
O346 C345 1.235 . S
C347 C349 1.400 . S
C347 N350 1.351 . S
C347 C352 1.501 . S
C348 C349 1.387 . S
C348 N351 1.341 . S
C349 C347 1.400 . S
C349 C348 1.387 . S
N350 Co341 2.022 . S
N350 C347 1.351 . S
N350 N351 1.365 . S
N351 C348 1.341 . S
N351 N350 1.365 . S
N351 H371 0.862 . S
C352 C347 1.501 . S
C352 H353 0.961 . S
C352 H354 0.961 . S
C352 H355 0.960 . S
H353 C352 0.961 . S
H354 C352 0.961 . S
H355 C352 0.960 . S
C356 N357 1.340 1_554 S
C356 C360 1.401 1_554 S
C356 C361 1.499 . S
N357 Co340 1.976 1_556 S
N357 C356 1.340 1_556 S
N357 N358 1.407 . S
N358 Co341 1.993 . S
N358 N357 1.407 . S
N358 C359 1.346 . S
C359 N358 1.346 . S
C359 C360 1.396 . S
C359 C369 1.510 . S
C360 C356 1.401 1_556 S
C360 C359 1.396 . S
C361 C356 1.499 . S
C361 H362 0.959 . S
C361 H363 0.960 . S
C361 H364 0.961 . S
H362 C361 0.959 . S
H363 C361 0.960 . S
H364 C361 0.961 . S
O365 Co340 1.967 . S
O365 C373 1.258 . S
O366 Co341 1.941 . S
O366 C373 1.266 1_556 S
H367 C369 0.959 . S
H368 C369 0.961 . S
C369 C359 1.510 . S
C369 H367 0.959 . S
C369 H368 0.961 . S
C369 H370 0.960 . S
H370 C369 0.960 . S
H371 N351 0.862 . S
O372 Co340 1.920 . S
O372 C345 1.289 . S
C373 O365 1.258 . S
C373 O366 1.266 1_554 S
Co374 O377 1.970 . S
Co374 N391 1.989 . S
Co374 O399 1.967 . S
Co374 O406 1.920 . S
Co375 O378 1.966 . S
Co375 N384 2.022 . S
Co375 N392 1.993 . S
Co375 O400 1.941 . S
C376 O377 1.258 . S
C376 O378 1.263 . S
O377 Co374 1.970 . S
O377 C376 1.258 . S
O378 Co375 1.966 . S
O378 C376 1.263 . S
C379 O380 1.235 . S
C379 O406 1.289 . S
O380 C379 1.235 . S
C381 C383 1.400 . S
C381 N384 1.351 . S
C381 C386 1.501 . S
C382 C383 1.387 . S
C382 N385 1.341 . S
C383 C381 1.400 . S
C383 C382 1.387 . S
N384 Co375 2.022 . S
N384 C381 1.351 . S
N384 N385 1.365 . S
N385 C382 1.341 . S
N385 N384 1.365 . S
N385 H405 0.862 . S
C386 C381 1.501 . S
C386 H387 0.961 . S
C386 H388 0.961 . S
C386 H389 0.960 . S
H387 C386 0.961 . S
H388 C386 0.961 . S
H389 C386 0.960 . S
C390 N391 1.342 . S
C390 C394 1.401 . S
C390 C395 1.499 . S
N391 Co374 1.989 . S
N391 C390 1.342 . S
N391 N392 1.388 . S
N392 Co375 1.993 . S
N392 N391 1.388 . S
N392 C393 1.346 . S
C393 N392 1.346 . S
C393 C394 1.396 . S
C393 C403 1.510 . S
C394 C390 1.401 . S
C394 C393 1.396 . S
C395 C390 1.499 . S
C395 H396 0.959 . S
C395 H397 0.960 . S
C395 H398 0.961 . S
H396 C395 0.959 . S
H397 C395 0.960 . S
H398 C395 0.961 . S
O399 Co374 1.967 . S
O399 C407 1.258 . S
O400 Co375 1.941 . S
O400 C407 1.266 . S
H401 C403 0.959 . S
H402 C403 0.961 . S
C403 C393 1.510 . S
C403 H401 0.959 . S
C403 H402 0.961 . S
C403 H404 0.960 . S
H404 C403 0.960 . S
H405 N385 0.862 . S
O406 Co374 1.920 . S
O406 C379 1.289 . S
C407 O399 1.258 . S
C407 O400 1.266 . S
Co408 O411 1.970 . S
Co408 N425 1.989 . S
Co408 O433 1.967 . S
Co408 O440 1.920 . S
Co409 O412 1.966 . S
Co409 N418 2.022 . S
Co409 N426 1.993 . S
Co409 O434 1.941 . S
C410 O411 1.258 . S
C410 O412 1.263 . S
O411 Co408 1.970 . S
O411 C410 1.258 . S
O412 Co409 1.966 . S
O412 C410 1.263 . S
C413 O414 1.235 . S
C413 O440 1.289 . S
O414 C413 1.235 . S
C415 C417 1.400 . S
C415 N418 1.351 . S
C415 C420 1.501 . S
C416 C417 1.387 . S
C416 N419 1.341 . S
C417 C415 1.400 . S
C417 C416 1.387 . S
N418 Co409 2.022 . S
N418 C415 1.351 . S
N418 N419 1.365 . S
N419 C416 1.341 . S
N419 N418 1.365 . S
N419 H439 0.862 . S
C420 C415 1.501 . S
C420 H421 0.961 . S
C420 H422 0.961 . S
C420 H423 0.960 . S
H421 C420 0.961 . S
H422 C420 0.961 . S
H423 C420 0.960 . S
C424 N425 1.342 . S
C424 C428 1.401 . S
C424 C429 1.499 . S
N425 Co408 1.989 . S
N425 C424 1.342 . S
N425 N426 1.388 . S
N426 Co409 1.993 . S
N426 N425 1.388 . S
N426 C427 1.346 . S
C427 N426 1.346 . S
C427 C428 1.396 . S
C427 C437 1.510 . S
C428 C424 1.401 . S
C428 C427 1.396 . S
C429 C424 1.499 . S
C429 H430 0.959 . S
C429 H431 0.960 . S
C429 H432 0.961 . S
H430 C429 0.959 . S
H431 C429 0.960 . S
H432 C429 0.961 . S
O433 Co408 1.967 . S
O433 C441 1.258 . S
O434 Co409 1.941 . S
O434 C441 1.266 . S
H435 C437 0.959 . S
H436 C437 0.961 . S
C437 C427 1.510 . S
C437 H435 0.959 . S
C437 H436 0.961 . S
C437 H438 0.960 . S
H438 C437 0.960 . S
H439 N419 0.862 . S
O440 Co408 1.920 . S
O440 C413 1.289 . S
C441 O433 1.258 . S
C441 O434 1.266 . S
Co442 O445 1.970 . S
Co442 N459 1.989 . S
Co442 O467 1.967 . S
Co442 O474 1.920 . S
Co443 O446 1.966 . S
Co443 N452 2.022 . S
Co443 N460 1.993 . S
Co443 O468 1.937 . S
C444 O445 1.258 . S
C444 O446 1.263 . S
O445 Co442 1.970 . S
O445 C444 1.258 . S
O446 Co443 1.966 . S
O446 C444 1.263 . S
C447 O448 1.235 . S
C447 O474 1.289 . S
O448 C447 1.235 . S
C449 C451 1.400 1_554 S
C449 N452 1.351 . S
C449 C454 1.501 . S
C450 C451 1.387 . S
C450 N453 1.341 1_556 S
C451 C449 1.400 1_556 S
C451 C450 1.387 . S
N452 Co443 2.022 . S
N452 C449 1.351 . S
N452 N453 1.365 . S
N453 C450 1.341 1_554 S
N453 N452 1.365 . S
N453 H473 0.862 1_455 S
C454 C449 1.501 . S
C454 H455 0.961 . S
C454 H456 0.961 . S
C454 H457 0.960 . S
H455 C454 0.961 . S
H456 C454 0.961 . S
H457 C454 0.960 . S
C458 N459 1.342 . S
C458 C462 1.401 . S
C458 C463 1.499 . S
N459 Co442 1.989 . S
N459 C458 1.342 . S
N459 N460 1.388 . S
N460 Co443 1.993 . S
N460 N459 1.388 . S
N460 C461 1.346 . S
C461 N460 1.346 . S
C461 C462 1.396 . S
C461 C471 1.510 . S
C462 C458 1.401 . S
C462 C461 1.396 . S
C463 C458 1.499 . S
C463 H464 0.959 . S
C463 H465 0.960 . S
C463 H466 0.961 . S
H464 C463 0.959 . S
H465 C463 0.960 . S
H466 C463 0.961 . S
O467 Co442 1.967 . S
O467 C475 1.258 1_455 S
O468 Co443 1.937 . S
O468 C475 1.267 1_455 S
H469 C471 0.959 . S
H470 C471 0.961 . S
C471 C461 1.510 . S
C471 H469 0.959 . S
C471 H470 0.961 . S
C471 H472 0.960 . S
H472 C471 0.960 . S
H473 N453 0.862 1_655 S
O474 Co442 1.920 . S
O474 C447 1.289 . S
C475 O467 1.258 1_655 S
C475 O468 1.267 1_655 S
Co476 O479 1.970 . S
Co476 N493 1.989 . S
Co476 O501 1.967 . S
Co476 O508 1.920 . S
Co477 O480 1.966 . S
Co477 N486 2.022 . S
Co477 N494 1.993 . S
Co477 O502 1.941 . S
C478 O479 1.258 . S
C478 O480 1.263 . S
O479 Co476 1.970 . S
O479 C478 1.258 . S
O480 Co477 1.966 . S
O480 C478 1.263 . S
C481 O482 1.235 . S
C481 O508 1.289 . S
O482 C481 1.235 . S
C483 C485 1.400 . S
C483 N486 1.351 . S
C483 C488 1.501 . S
C484 C485 1.387 . S
C484 N487 1.341 . S
C485 C483 1.400 . S
C485 C484 1.387 . S
N486 Co477 2.022 . S
N486 C483 1.351 . S
N486 N487 1.365 . S
N487 C484 1.341 . S
N487 N486 1.365 . S
N487 H507 0.862 . S
C488 C483 1.501 . S
C488 H489 0.961 . S
C488 H490 0.961 . S
C488 H491 0.960 . S
H489 C488 0.961 . S
H490 C488 0.961 . S
H491 C488 0.960 . S
C492 N493 1.342 . S
C492 C496 1.401 . S
C492 C497 1.499 . S
N493 Co476 1.989 . S
N493 C492 1.342 . S
N493 N494 1.388 . S
N494 Co477 1.993 . S
N494 N493 1.388 . S
N494 C495 1.346 . S
C495 N494 1.346 . S
C495 C496 1.396 . S
C495 C505 1.510 . S
C496 C492 1.401 . S
C496 C495 1.396 . S
C497 C492 1.499 . S
C497 H498 0.959 . S
C497 H499 0.960 . S
C497 H500 0.961 . S
H498 C497 0.959 . S
H499 C497 0.960 . S
H500 C497 0.961 . S
O501 Co476 1.967 . S
O501 C509 1.258 . S
O502 Co477 1.941 . S
O502 C509 1.266 . S
H503 C505 0.959 . S
H504 C505 0.961 . S
C505 C495 1.510 . S
C505 H503 0.959 . S
C505 H504 0.961 . S
C505 H506 0.960 . S
H506 C505 0.960 . S
H507 N487 0.862 . S
O508 Co476 1.920 . S
O508 C481 1.289 . S
C509 O501 1.258 . S
C509 O502 1.266 . S
Co510 O513 1.970 . S
Co510 N527 1.989 . S
Co510 O535 1.967 . S
Co510 O542 1.920 . S
Co511 O514 1.966 . S
Co511 N520 2.022 . S
Co511 N528 1.993 . S
Co511 O536 1.937 . S
C512 O513 1.258 . S
C512 O514 1.263 . S
O513 Co510 1.970 . S
O513 C512 1.258 . S
O514 Co511 1.966 . S
O514 C512 1.263 . S
C515 O516 1.235 . S
C515 O542 1.289 . S
O516 C515 1.235 . S
C517 C519 1.400 1_556 S
C517 N520 1.351 . S
C517 C522 1.501 . S
C518 C519 1.387 . S
C518 N521 1.341 1_554 S
C519 C517 1.400 1_554 S
C519 C518 1.387 . S
N520 Co511 2.022 . S
N520 C517 1.351 . S
N520 N521 1.365 . S
N521 C518 1.341 1_556 S
N521 N520 1.365 . S
N521 H541 0.862 1_455 S
C522 C517 1.501 . S
C522 H523 0.961 . S
C522 H524 0.961 . S
C522 H525 0.960 . S
H523 C522 0.961 . S
H524 C522 0.961 . S
H525 C522 0.960 . S
C526 N527 1.342 . S
C526 C530 1.401 . S
C526 C531 1.499 . S
N527 Co510 1.989 . S
N527 C526 1.342 . S
N527 N528 1.388 . S
N528 Co511 1.993 . S
N528 N527 1.388 . S
N528 C529 1.346 . S
C529 N528 1.346 . S
C529 C530 1.396 . S
C529 C539 1.510 . S
C530 C526 1.401 . S
C530 C529 1.396 . S
C531 C526 1.499 . S
C531 H532 0.959 . S
C531 H533 0.960 . S
C531 H534 0.961 . S
H532 C531 0.959 . S
H533 C531 0.960 . S
H534 C531 0.961 . S
O535 Co510 1.967 . S
O535 C543 1.258 1_455 S
O536 Co511 1.937 . S
O536 C543 1.267 1_455 S
H537 C539 0.959 . S
H538 C539 0.961 . S
C539 C529 1.510 . S
C539 H537 0.959 . S
C539 H538 0.961 . S
C539 H540 0.960 . S
H540 C539 0.960 . S
H541 N521 0.862 1_655 S
O542 Co510 1.920 . S
O542 C515 1.289 . S
C543 O535 1.258 1_655 S
C543 O536 1.267 1_655 S
C544 C545 1.349 . S
C544 C546 1.327 . S
C544 H569 0.950 . S
C545 C544 1.349 . S
C545 C561 1.349 . S
C546 C544 1.327 . S
C546 C565 1.429 . S
C546 H570 0.950 . S
C547 C564 1.574 . S
C547 C566 1.368 . S
C547 H571 0.949 . S
H548 C552 0.949 . S
C549 C550 1.349 . S
C549 C551 1.327 . S
C549 H572 0.950 . S
C550 C549 1.349 . S
C550 C562 1.349 . S
C551 C549 1.327 . S
C551 C567 1.429 . S
C551 H573 0.950 . S
C552 H548 0.949 . S
C552 C560 1.574 . S
C552 C568 1.368 . S
H553 C561 0.950 . S
H554 C559 0.950 . S
H555 C560 0.949 . S
H556 C562 0.950 . S
H557 C563 0.950 . S
H558 C564 0.949 . S
C559 H554 0.950 . S
C559 C561 1.327 . S
C559 C565 1.429 . S
C560 C552 1.574 . S
C560 H555 0.949 . S
C560 C566 1.368 . S
C561 C545 1.349 . S
C561 H553 0.950 . S
C561 C559 1.327 . S
C562 C550 1.349 . S
C562 H556 0.950 . S
C562 C563 1.327 . S
C563 H557 0.950 . S
C563 C562 1.327 . S
C563 C567 1.429 . S
C564 C547 1.574 . S
C564 H558 0.949 . S
C564 C568 1.368 . S
C565 C546 1.429 . S
C565 C559 1.429 . S
C565 C566 1.523 . S
C566 C547 1.368 . S
C566 C560 1.368 . S
C566 C565 1.523 . S
C567 C551 1.429 . S
C567 C563 1.429 . S
C567 C568 1.523 . S
C568 C552 1.368 . S
C568 C564 1.368 . S
C568 C567 1.523 . S
H569 C544 0.950 . S
H570 C546 0.950 . S
H571 C547 0.949 . S
H572 C549 0.950 . S
H573 C551 0.950 . S
C574 C575 1.349 . S
C574 C576 1.327 . S
C574 H599 0.950 . S
C575 C574 1.349 . S
C575 C591 1.349 . S
C576 C574 1.327 . S
C576 C595 1.429 . S
C576 H600 0.950 . S
C577 C594 1.574 . S
C577 C596 1.368 . S
C577 H601 0.949 . S
H578 C582 0.949 . S
C579 C580 1.349 . S
C579 C581 1.327 . S
C579 H602 0.950 . S
C580 C579 1.349 . S
C580 C592 1.349 . S
C581 C579 1.327 . S
C581 C597 1.429 . S
C581 H603 0.950 . S
C582 H578 0.949 . S
C582 C590 1.574 . S
C582 C598 1.368 . S
H583 C591 0.950 . S
H584 C589 0.950 . S
H585 C590 0.949 . S
H586 C592 0.950 . S
H587 C593 0.950 . S
H588 C594 0.949 . S
C589 H584 0.950 . S
C589 C591 1.327 . S
C589 C595 1.429 . S
C590 C582 1.574 . S
C590 H585 0.949 . S
C590 C596 1.368 . S
C591 C575 1.349 . S
C591 H583 0.950 . S
C591 C589 1.327 . S
C592 C580 1.349 . S
C592 H586 0.950 . S
C592 C593 1.327 . S
C593 H587 0.950 . S
C593 C592 1.327 . S
C593 C597 1.429 . S
C594 C577 1.574 . S
C594 H588 0.949 . S
C594 C598 1.368 . S
C595 C576 1.429 . S
C595 C589 1.429 . S
C595 C596 1.523 . S
C596 C577 1.368 . S
C596 C590 1.368 . S
C596 C595 1.523 . S
C597 C581 1.429 . S
C597 C593 1.429 . S
C597 C598 1.523 . S
C598 C582 1.368 . S
C598 C594 1.368 . S
C598 C597 1.523 . S
H599 C574 0.950 . S
H600 C576 0.950 . S
H601 C577 0.949 . S
H602 C579 0.950 . S
H603 C581 0.950 . S
C604 C605 1.349 . S
C604 C606 1.327 . S
C604 H629 0.950 . S
C605 C604 1.349 . S
C605 C621 1.349 . S
C606 C604 1.327 . S
C606 C625 1.429 . S
C606 H630 0.950 . S
C607 C624 1.574 . S
C607 C626 1.368 . S
C607 H631 0.949 . S
H608 C612 0.949 . S
C609 C610 1.349 . S
C609 C611 1.327 . S
C609 H632 0.950 1_556 S
C610 C609 1.349 . S
C610 C622 1.349 . S
C611 C609 1.327 . S
C611 C627 1.429 . S
C611 H633 0.950 . S
C612 H608 0.949 . S
C612 C620 1.574 . S
C612 C628 1.368 . S
H613 C621 0.950 . S
H614 C619 0.950 . S
H615 C620 0.949 . S
H616 C622 0.950 . S
H617 C623 0.950 . S
H618 C624 0.949 . S
C619 H614 0.950 . S
C619 C621 1.327 . S
C619 C625 1.429 . S
C620 C612 1.574 . S
C620 H615 0.949 . S
C620 C626 1.368 . S
C621 C605 1.349 . S
C621 H613 0.950 . S
C621 C619 1.327 . S
C622 C610 1.349 . S
C622 H616 0.950 . S
C622 C623 1.327 . S
C623 H617 0.950 . S
C623 C622 1.327 . S
C623 C627 1.429 . S
C624 C607 1.574 . S
C624 H618 0.949 . S
C624 C628 1.368 . S
C625 C606 1.429 . S
C625 C619 1.429 . S
C625 C626 1.523 . S
C626 C607 1.368 . S
C626 C620 1.368 . S
C626 C625 1.523 . S
C627 C611 1.429 . S
C627 C623 1.429 . S
C627 C628 1.523 . S
C628 C612 1.368 . S
C628 C624 1.368 . S
C628 C627 1.523 . S
H629 C604 0.950 . S
H630 C606 0.950 . S
H631 C607 0.949 . S
H632 C609 0.950 1_554 S
H633 C611 0.950 . S
C634 C635 1.349 . S
C634 C636 1.327 . S
C634 H659 0.950 . S
C635 C634 1.349 . S
C635 C651 1.349 . S
C636 C634 1.327 . S
C636 C655 1.429 . S
C636 H660 0.950 . S
C637 C654 1.574 . S
C637 C656 1.368 . S
C637 H661 0.949 . S
H638 C642 0.949 . S
C639 C640 1.349 . S
C639 C641 1.327 . S
C639 H662 0.950 . S
C640 C639 1.349 . S
C640 C652 1.349 . S
C641 C639 1.327 . S
C641 C657 1.429 . S
C641 H663 0.950 . S
C642 H638 0.949 . S
C642 C650 1.574 . S
C642 C658 1.368 . S
H643 C651 0.950 . S
H644 C649 0.950 . S
H645 C650 0.949 . S
H646 C652 0.950 . S
H647 C653 0.950 . S
H648 C654 0.949 . S
C649 H644 0.950 . S
C649 C651 1.327 . S
C649 C655 1.429 . S
C650 C642 1.574 . S
C650 H645 0.949 . S
C650 C656 1.368 . S
C651 C635 1.349 . S
C651 H643 0.950 . S
C651 C649 1.327 . S
C652 C640 1.349 . S
C652 H646 0.950 . S
C652 C653 1.327 . S
C653 H647 0.950 . S
C653 C652 1.327 . S
C653 C657 1.429 . S
C654 C637 1.574 . S
C654 H648 0.949 . S
C654 C658 1.368 . S
C655 C636 1.429 . S
C655 C649 1.429 . S
C655 C656 1.523 . S
C656 C637 1.368 . S
C656 C650 1.368 . S
C656 C655 1.523 . S
C657 C641 1.429 . S
C657 C653 1.429 . S
C657 C658 1.523 . S
C658 C642 1.368 . S
C658 C654 1.368 . S
C658 C657 1.523 . S
H659 C634 0.950 . S
H660 C636 0.950 . S
H661 C637 0.949 . S
H662 C639 0.950 . S
H663 C641 0.950 . S
C664 C665 1.349 . S
C664 C666 1.327 . S
C664 H689 0.950 . S
C665 C664 1.349 . S
C665 C681 1.349 . S
C666 C664 1.327 . S
C666 C685 1.429 . S
C666 H690 0.950 . S
C667 C684 1.574 . S
C667 C686 1.368 . S
C667 H691 0.949 . S
H668 C672 0.949 . S
C669 C670 1.374 . S
C669 C671 1.373 . S
C669 H692 0.881 1_655 S
C670 C669 1.374 . S
C670 C682 1.349 . S
C671 C669 1.373 . S
C671 C687 1.429 . S
C671 H693 0.950 . S
C672 H668 0.949 . S
C672 C680 1.574 . S
C672 C688 1.368 . S
H673 C681 0.950 . S
H674 C679 0.950 . S
H675 C680 0.949 . S
H676 C682 0.950 . S
H677 C683 0.950 . S
H678 C684 0.949 . S
C679 H674 0.950 . S
C679 C681 1.327 . S
C679 C685 1.429 . S
C680 C672 1.574 . S
C680 H675 0.949 . S
C680 C686 1.368 . S
C681 C665 1.349 . S
C681 H673 0.950 . S
C681 C679 1.327 . S
C682 C670 1.349 . S
C682 H676 0.950 . S
C682 C683 1.327 . S
C683 H677 0.950 . S
C683 C682 1.327 . S
C683 C687 1.429 . S
C684 C667 1.574 . S
C684 H678 0.949 . S
C684 C688 1.368 . S
C685 C666 1.429 . S
C685 C679 1.429 . S
C685 C686 1.523 . S
C686 C667 1.368 . S
C686 C680 1.368 . S
C686 C685 1.523 . S
C687 C671 1.429 . S
C687 C683 1.429 . S
C687 C688 1.523 . S
C688 C672 1.368 . S
C688 C684 1.368 . S
C688 C687 1.523 . S
H689 C664 0.950 . S
H690 C666 0.950 . S
H691 C667 0.949 . S
H692 C669 0.881 1_455 S
H693 C671 0.950 . S
C694 C695 1.349 . S
C694 C696 1.327 . S
C694 H719 0.950 . S
C695 C694 1.349 . S
C695 C711 1.349 . S
C696 C694 1.327 . S
C696 C715 1.429 . S
C696 H720 0.950 . S
C697 C714 1.574 . S
C697 C716 1.368 . S
C697 H721 0.949 . S
H698 C702 0.949 . S
C699 C700 1.349 . S
C699 C701 1.327 . S
C699 H722 0.950 . S
C700 C699 1.349 . S
C700 C712 1.349 . S
C701 C699 1.327 . S
C701 C717 1.429 . S
C701 H723 0.950 . S
C702 H698 0.949 . S
C702 C710 1.574 . S
C702 C718 1.368 . S
H703 C711 0.950 . S
H704 C709 0.950 . S
H705 C710 0.949 . S
H706 C712 0.950 1_455 S
H707 C713 0.950 . S
H708 C714 0.949 . S
C709 H704 0.950 . S
C709 C711 1.327 . S
C709 C715 1.429 . S
C710 C702 1.574 . S
C710 H705 0.949 . S
C710 C716 1.368 . S
C711 C695 1.349 . S
C711 H703 0.950 . S
C711 C709 1.327 . S
C712 C700 1.349 . S
C712 H706 0.950 1_655 S
C712 C713 1.327 . S
C713 H707 0.950 . S
C713 C712 1.327 . S
C713 C717 1.429 . S
C714 C697 1.574 . S
C714 H708 0.949 . S
C714 C718 1.368 . S
C715 C696 1.429 . S
C715 C709 1.429 . S
C715 C716 1.523 . S
C716 C697 1.368 . S
C716 C710 1.368 . S
C716 C715 1.523 . S
C717 C701 1.429 . S
C717 C713 1.429 . S
C717 C718 1.523 . S
C718 C702 1.368 . S
C718 C714 1.368 . S
C718 C717 1.523 . S
H719 C694 0.950 . S
H720 C696 0.950 . S
H721 C697 0.949 . S
H722 C699 0.950 . S
H723 C701 0.950 . S
C724 C725 1.349 . S
C724 C726 1.327 . S
C724 H749 0.950 . S
C725 C724 1.349 . S
C725 C741 1.349 . S
C726 C724 1.327 . S
C726 C745 1.429 . S
C726 H750 0.950 . S
C727 C744 1.574 . S
C727 C746 1.368 . S
C727 H751 0.949 . S
H728 C732 0.949 . S
C729 C730 1.349 1_556 S
C729 C731 1.327 1_556 S
C729 H752 0.950 . S
C730 C729 1.349 1_554 S
C730 C742 1.349 . S
C731 C729 1.327 1_554 S
C731 C747 1.429 . S
C731 H753 0.950 1_554 S
C732 H728 0.949 . S
C732 C740 1.574 . S
C732 C748 1.368 . S
H733 C741 0.950 . S
H734 C739 0.950 . S
H735 C740 0.949 . S
H736 C742 0.950 . S
H737 C743 0.950 . S
H738 C744 0.949 . S
C739 H734 0.950 . S
C739 C741 1.327 . S
C739 C745 1.429 . S
C740 C732 1.574 . S
C740 H735 0.949 . S
C740 C746 1.368 . S
C741 C725 1.349 . S
C741 H733 0.950 . S
C741 C739 1.327 . S
C742 C730 1.349 . S
C742 H736 0.950 . S
C742 C743 1.327 . S
C743 H737 0.950 . S
C743 C742 1.327 . S
C743 C747 1.429 . S
C744 C727 1.574 . S
C744 H738 0.949 . S
C744 C748 1.368 . S
C745 C726 1.429 . S
C745 C739 1.429 . S
C745 C746 1.523 . S
C746 C727 1.368 . S
C746 C740 1.368 . S
C746 C745 1.523 . S
C747 C731 1.429 . S
C747 C743 1.429 . S
C747 C748 1.523 . S
C748 C732 1.368 . S
C748 C744 1.368 . S
C748 C747 1.523 . S
H749 C724 0.950 . S
H750 C726 0.950 . S
H751 C727 0.949 . S
H752 C729 0.950 . S
H753 C731 0.950 1_556 S
C754 C755 1.349 . S
C754 C756 1.327 . S
C754 H779 0.950 . S
C755 C754 1.349 . S
C755 C771 1.349 . S
C756 C754 1.327 . S
C756 C775 1.429 . S
C756 H780 0.950 . S
C757 C774 1.574 . S
C757 C776 1.368 . S
C757 H781 0.949 . S
H758 C762 0.949 . S
C759 C760 1.349 . S
C759 C761 1.327 . S
C759 H782 0.950 . S
C760 C759 1.349 . S
C760 C772 1.349 1_556 S
C761 C759 1.327 . S
C761 C777 1.429 . S
C761 H783 0.950 . S
C762 H758 0.949 . S
C762 C770 1.574 . S
C762 C778 1.368 . S
H763 C771 0.950 . S
H764 C769 0.950 . S
H765 C770 0.949 . S
H766 C772 0.950 . S
H767 C773 0.950 1_554 S
H768 C774 0.949 . S
C769 H764 0.950 . S
C769 C771 1.327 . S
C769 C775 1.429 . S
C770 C762 1.574 . S
C770 H765 0.949 . S
C770 C776 1.368 . S
C771 C755 1.349 . S
C771 H763 0.950 . S
C771 C769 1.327 . S
C772 C760 1.349 1_554 S
C772 H766 0.950 . S
C772 C773 1.327 1_554 S
C773 H767 0.950 1_556 S
C773 C772 1.327 1_556 S
C773 C777 1.429 . S
C774 C757 1.574 . S
C774 H768 0.949 . S
C774 C778 1.368 . S
C775 C756 1.429 . S
C775 C769 1.429 . S
C775 C776 1.523 . S
C776 C757 1.368 . S
C776 C770 1.368 . S
C776 C775 1.523 . S
C777 C761 1.429 . S
C777 C773 1.429 . S
C777 C778 1.523 . S
C778 C762 1.368 . S
C778 C774 1.368 . S
C778 C777 1.523 . S
H779 C754 0.950 . S
H780 C756 0.950 . S
H781 C757 0.949 . S
H782 C759 0.950 . S
H783 C761 0.950 . S
C784 C785 1.349 . S
C784 C786 1.327 . S
C784 H809 0.954 . S
C785 C784 1.349 . S
C785 C801 1.349 . S
C786 C784 1.327 . S
C786 C805 1.429 . S
C786 H810 0.950 . S
C787 C804 1.574 . S
C787 C806 1.368 . S
C787 H811 0.949 . S
H788 C792 0.949 . S
C789 C790 1.349 . S
C789 C791 1.327 . S
C789 H812 0.950 . S
C790 C789 1.349 . S
C790 C802 1.349 . S
C791 C789 1.327 . S
C791 C807 1.429 . S
C791 H813 0.950 . S
C792 H788 0.949 . S
C792 C800 1.574 . S
C792 C808 1.368 . S
H793 C801 0.950 . S
H794 C799 0.950 . S
H795 C800 0.949 . S
H796 C802 0.950 . S
H797 C803 0.950 . S
H798 C804 0.949 . S
C799 H794 0.950 . S
C799 C801 1.327 . S
C799 C805 1.429 . S
C800 C792 1.574 . S
C800 H795 0.949 . S
C800 C806 1.368 . S
C801 C785 1.349 . S
C801 H793 0.950 . S
C801 C799 1.327 . S
C802 C790 1.349 . S
C802 H796 0.950 . S
C802 C803 1.327 . S
C803 H797 0.950 . S
C803 C802 1.327 . S
C803 C807 1.429 . S
C804 C787 1.574 . S
C804 H798 0.949 . S
C804 C808 1.368 . S
C805 C786 1.429 . S
C805 C799 1.429 . S
C805 C806 1.523 . S
C806 C787 1.368 . S
C806 C800 1.368 . S
C806 C805 1.523 . S
C807 C791 1.429 . S
C807 C803 1.429 . S
C807 C808 1.523 . S
C808 C792 1.368 . S
C808 C804 1.368 . S
C808 C807 1.523 . S
H809 C784 0.954 . S
H810 C786 0.950 . S
H811 C787 0.949 . S
H812 C789 0.950 . S
H813 C791 0.950 . S
C814 C815 1.349 . S
C814 C816 1.327 . S
C814 H839 0.950 . S
C815 C814 1.349 . S
C815 C831 1.349 . S
C816 C814 1.327 . S
C816 C835 1.429 . S
C816 H840 0.950 . S
C817 C834 1.574 . S
C817 C836 1.368 . S
C817 H841 0.949 . S
H818 C822 0.949 . S
C819 C820 1.349 . S
C819 C821 1.327 . S
C819 H842 0.950 1_554 S
C820 C819 1.349 . S
C820 C832 1.349 . S
C821 C819 1.327 . S
C821 C837 1.429 . S
C821 H843 0.950 . S
C822 H818 0.949 . S
C822 C830 1.574 . S
C822 C838 1.368 . S
H823 C831 0.950 . S
H824 C829 0.950 . S
H825 C830 0.949 . S
H826 C832 0.950 . S
H827 C833 0.950 . S
H828 C834 0.949 . S
C829 H824 0.950 . S
C829 C831 1.327 . S
C829 C835 1.429 . S
C830 C822 1.574 . S
C830 H825 0.949 . S
C830 C836 1.368 . S
C831 C815 1.349 . S
C831 H823 0.950 . S
C831 C829 1.327 . S
C832 C820 1.349 . S
C832 H826 0.950 . S
C832 C833 1.327 . S
C833 H827 0.950 . S
C833 C832 1.327 . S
C833 C837 1.429 . S
C834 C817 1.574 . S
C834 H828 0.949 . S
C834 C838 1.368 . S
C835 C816 1.429 . S
C835 C829 1.429 . S
C835 C836 1.523 . S
C836 C817 1.368 . S
C836 C830 1.368 . S
C836 C835 1.523 . S
C837 C821 1.429 . S
C837 C833 1.429 . S
C837 C838 1.523 . S
C838 C822 1.368 . S
C838 C834 1.368 . S
C838 C837 1.523 . S
H839 C814 0.950 . S
H840 C816 0.950 . S
H841 C817 0.949 . S
H842 C819 0.950 1_556 S
H843 C821 0.950 . S
C844 C845 1.349 . S
C844 C846 1.327 . S
C844 H869 0.950 . S
C845 C844 1.349 . S
C845 C861 1.349 . S
C846 C844 1.327 . S
C846 C865 1.429 . S
C846 H870 0.950 . S
C847 C864 1.574 . S
C847 C866 1.368 . S
C847 H871 0.949 . S
H848 C852 0.949 . S
C849 C850 1.349 . S
C849 C851 1.327 . S
C849 H872 0.950 . S
C850 C849 1.349 . S
C850 C862 1.349 . S
C851 C849 1.327 . S
C851 C867 1.429 . S
C851 H873 0.950 . S
C852 H848 0.949 . S
C852 C860 1.574 . S
C852 C868 1.368 . S
H853 C861 0.950 . S
H854 C859 0.950 . S
H855 C860 0.949 . S
H856 C862 0.950 . S
H857 C863 0.950 . S
H858 C864 0.949 . S
C859 H854 0.950 . S
C859 C861 1.327 . S
C859 C865 1.429 . S
C860 C852 1.574 . S
C860 H855 0.949 . S
C860 C866 1.368 . S
C861 C845 1.349 . S
C861 H853 0.950 . S
C861 C859 1.327 . S
C862 C850 1.349 . S
C862 H856 0.950 . S
C862 C863 1.327 . S
C863 H857 0.950 . S
C863 C862 1.327 . S
C863 C867 1.429 . S
C864 C847 1.574 . S
C864 H858 0.949 . S
C864 C868 1.368 . S
C865 C846 1.429 . S
C865 C859 1.429 . S
C865 C866 1.523 . S
C866 C847 1.368 . S
C866 C860 1.368 . S
C866 C865 1.523 . S
C867 C851 1.429 . S
C867 C863 1.429 . S
C867 C868 1.523 . S
C868 C852 1.368 . S
C868 C864 1.368 . S
C868 C867 1.523 . S
H869 C844 0.950 . S
H870 C846 0.950 . S
H871 C847 0.949 . S
H872 C849 0.950 . S
H873 C851 0.950 . S
C874 C875 1.349 . S
C874 C876 1.327 . S
C874 H899 0.950 . S
C875 C874 1.349 . S
C875 C891 1.349 . S
C876 C874 1.327 . S
C876 C895 1.429 . S
C876 H900 0.950 . S
C877 C894 1.574 . S
C877 C896 1.368 . S
C877 H901 0.949 . S
H878 C882 0.949 . S
C879 C880 1.349 . S
C879 C881 1.327 . S
C879 H902 0.950 1_655 S
C880 C879 1.349 . S
C880 C892 1.349 . S
C881 C879 1.327 . S
C881 C897 1.429 . S
C881 H903 0.950 . S
C882 H878 0.949 . S
C882 C890 1.574 . S
C882 C898 1.368 . S
H883 C891 0.950 . S
H884 C889 0.950 . S
H885 C890 0.949 . S
H886 C892 0.950 . S
H887 C893 0.950 . S
H888 C894 0.949 . S
C889 H884 0.950 . S
C889 C891 1.327 . S
C889 C895 1.429 . S
C890 C882 1.574 . S
C890 H885 0.949 . S
C890 C896 1.368 . S
C891 C875 1.349 . S
C891 H883 0.950 . S
C891 C889 1.327 . S
C892 C880 1.349 . S
C892 H886 0.950 . S
C892 C893 1.327 . S
C893 H887 0.950 . S
C893 C892 1.327 . S
C893 C897 1.429 . S
C894 C877 1.574 . S
C894 H888 0.949 . S
C894 C898 1.368 . S
C895 C876 1.429 . S
C895 C889 1.429 . S
C895 C896 1.523 . S
C896 C877 1.368 . S
C896 C890 1.368 . S
C896 C895 1.523 . S
C897 C881 1.429 . S
C897 C893 1.429 . S
C897 C898 1.523 . S
C898 C882 1.368 . S
C898 C894 1.368 . S
C898 C897 1.523 . S
H899 C874 0.950 . S
H900 C876 0.950 . S
H901 C877 0.949 . S
H902 C879 0.950 1_455 S
H903 C881 0.950 . S
C904 C905 1.349 . S
C904 C906 1.327 . S
C904 H929 0.950 . S
C905 C904 1.349 . S
C905 C921 1.349 . S
C906 C904 1.327 . S
C906 C925 1.429 . S
C906 H930 0.950 . S
C907 C924 1.574 . S
C907 C926 1.368 . S
C907 H931 0.949 . S
H908 C912 0.949 . S
C909 C910 1.349 . S
C909 C911 1.327 . S
C909 H932 0.950 . S
C910 C909 1.349 . S
C910 C922 1.349 . S
C911 C909 1.327 . S
C911 C927 1.429 . S
C911 H933 0.950 . S
C912 H908 0.949 . S
C912 C920 1.574 . S
C912 C928 1.368 . S
H913 C921 0.950 . S
H914 C919 0.950 . S
H915 C920 0.949 . S
H916 C922 0.950 . S
H917 C923 0.950 . S
H918 C924 0.949 . S
C919 H914 0.950 . S
C919 C921 1.327 . S
C919 C925 1.429 . S
C920 C912 1.574 . S
C920 H915 0.949 . S
C920 C926 1.368 . S
C921 C905 1.349 . S
C921 H913 0.950 . S
C921 C919 1.327 . S
C922 C910 1.349 . S
C922 H916 0.950 . S
C922 C923 1.327 . S
C923 H917 0.950 . S
C923 C922 1.327 . S
C923 C927 1.429 . S
C924 C907 1.574 . S
C924 H918 0.949 . S
C924 C928 1.368 . S
C925 C906 1.429 . S
C925 C919 1.429 . S
C925 C926 1.523 . S
C926 C907 1.368 . S
C926 C920 1.368 . S
C926 C925 1.523 . S
C927 C911 1.429 . S
C927 C923 1.429 . S
C927 C928 1.523 . S
C928 C912 1.368 . S
C928 C924 1.368 . S
C928 C927 1.523 . S
H929 C904 0.950 . S
H930 C906 0.950 . S
H931 C907 0.949 . S
H932 C909 0.950 . S
H933 C911 0.950 . S
C934 C935 1.349 1_554 S
C934 C936 1.327 1_554 S
C934 H959 0.950 . S
C935 C934 1.349 1_556 S
C935 C951 1.349 . S
C936 C934 1.327 1_556 S
C936 C955 1.429 . S
C936 H960 0.950 1_556 S
C937 C954 1.574 . S
C937 C956 1.368 . S
C937 H961 0.949 . S
H938 C942 0.949 . S
C939 C940 1.349 . S
C939 C941 1.327 . S
C939 H962 0.950 . S
C940 C939 1.349 . S
C940 C952 1.349 . S
C941 C939 1.327 . S
C941 C957 1.429 . S
C941 H963 0.950 . S
C942 H938 0.949 . S
C942 C950 1.574 . S
C942 C958 1.368 . S
H943 C951 0.950 . S
H944 C949 0.950 . S
H945 C950 0.949 . S
H946 C952 0.950 . S
H947 C953 0.950 . S
H948 C954 0.949 . S
C949 H944 0.950 . S
C949 C951 1.327 . S
C949 C955 1.429 . S
C950 C942 1.574 . S
C950 H945 0.949 . S
C950 C956 1.368 . S
C951 C935 1.349 . S
C951 H943 0.950 . S
C951 C949 1.327 . S
C952 C940 1.349 . S
C952 H946 0.950 . S
C952 C953 1.327 . S
C953 H947 0.950 . S
C953 C952 1.327 . S
C953 C957 1.429 . S
C954 C937 1.574 . S
C954 H948 0.949 . S
C954 C958 1.368 . S
C955 C936 1.429 . S
C955 C949 1.429 . S
C955 C956 1.523 . S
C956 C937 1.368 . S
C956 C950 1.368 . S
C956 C955 1.523 . S
C957 C941 1.429 . S
C957 C953 1.429 . S
C957 C958 1.523 . S
C958 C942 1.368 . S
C958 C954 1.368 . S
C958 C957 1.523 . S
H959 C934 0.950 . S
H960 C936 0.950 1_554 S
H961 C937 0.949 . S
H962 C939 0.950 . S
H963 C941 0.950 . S
C964 C965 1.349 . S
C964 C966 1.327 . S
C964 H989 0.950 . S
C965 C964 1.349 . S
C965 C981 1.349 . S
C966 C964 1.327 . S
C966 C985 1.429 . S
C966 H990 0.950 . S
C967 C984 1.574 . S
C967 C986 1.368 . S
C967 H991 0.949 . S
H968 C972 0.949 . S
C969 C970 1.349 . S
C969 C971 1.327 . S
C969 H992 0.950 . S
C970 C969 1.349 . S
C970 C982 1.349 . S
C971 C969 1.327 . S
C971 C987 1.429 . S
C971 H993 0.950 . S
C972 H968 0.949 . S
C972 C980 1.574 . S
C972 C988 1.368 . S
H973 C981 0.950 . S
H974 C979 0.950 . S
H975 C980 0.949 . S
H976 C982 0.950 . S
H977 C983 0.950 . S
H978 C984 0.949 . S
C979 H974 0.950 . S
C979 C981 1.327 . S
C979 C985 1.429 . S
C980 C972 1.574 . S
C980 H975 0.949 . S
C980 C986 1.368 . S
C981 C965 1.349 . S
C981 H973 0.950 . S
C981 C979 1.327 . S
C982 C970 1.349 . S
C982 H976 0.950 . S
C982 C983 1.327 . S
C983 H977 0.950 . S
C983 C982 1.327 . S
C983 C987 1.429 . S
C984 C967 1.574 . S
C984 H978 0.949 . S
C984 C988 1.368 . S
C985 C966 1.429 . S
C985 C979 1.429 . S
C985 C986 1.523 . S
C986 C967 1.368 . S
C986 C980 1.368 . S
C986 C985 1.523 . S
C987 C971 1.429 . S
C987 C983 1.429 . S
C987 C988 1.523 . S
C988 C972 1.368 . S
C988 C984 1.368 . S
C988 C987 1.523 . S
H989 C964 0.950 . S
H990 C966 0.950 . S
H991 C967 0.949 . S
H992 C969 0.950 . S
H993 C971 0.950 . S
C994 C995 1.349 . S
C994 C996 1.327 . S
C994 H1019 0.950 . S
C995 C994 1.349 . S
C995 C1011 1.349 . S
C996 C994 1.327 . S
C996 C1015 1.429 . S
C996 H1020 0.950 . S
C997 C1014 1.574 . S
C997 C1016 1.368 . S
C997 H1021 0.949 . S
H998 C1002 0.949 . S
C999 C1000 1.349 . S
C999 C1001 1.327 . S
C999 H1022 0.950 . S
C1000 C999 1.349 . S
C1000 C1012 1.349 . S
C1001 C999 1.327 . S
C1001 C1017 1.429 . S
C1001 H1023 0.950 . S
C1002 H998 0.949 . S
C1002 C1010 1.574 . S
C1002 C1018 1.368 . S
H1003 C1011 0.950 . S
H1004 C1009 0.950 . S
H1005 C1010 0.949 . S
H1006 C1012 0.950 . S
H1007 C1013 0.950 . S
H1008 C1014 0.949 . S
C1009 H1004 0.950 . S
C1009 C1011 1.327 . S
C1009 C1015 1.429 . S
C1010 C1002 1.574 . S
C1010 H1005 0.949 . S
C1010 C1016 1.368 . S
C1011 C995 1.349 . S
C1011 H1003 0.950 . S
C1011 C1009 1.327 . S
C1012 C1000 1.349 . S
C1012 H1006 0.950 . S
C1012 C1013 1.327 . S
C1013 H1007 0.950 . S
C1013 C1012 1.327 . S
C1013 C1017 1.429 . S
C1014 C997 1.574 . S
C1014 H1008 0.949 . S
C1014 C1018 1.368 . S
C1015 C996 1.429 . S
C1015 C1009 1.429 . S
C1015 C1016 1.523 . S
C1016 C997 1.368 . S
C1016 C1010 1.368 . S
C1016 C1015 1.523 . S
C1017 C1001 1.429 . S
C1017 C1013 1.429 . S
C1017 C1018 1.523 . S
C1018 C1002 1.368 . S
C1018 C1014 1.368 . S
C1018 C1017 1.523 . S
H1019 C994 0.950 . S
H1020 C996 0.950 . S
H1021 C997 0.949 . S
H1022 C999 0.950 . S
H1023 C1001 0.950 . S
C1024 C1025 1.349 . S
C1024 C1026 1.327 . S
C1024 H1049 0.950 . S
C1025 C1024 1.349 . S
C1025 C1041 1.349 . S
C1026 C1024 1.327 . S
C1026 C1045 1.429 . S
C1026 H1050 0.950 . S
C1027 C1044 1.597 . S
C1027 C1046 1.368 1_556 S
C1027 H1051 0.949 . S
H1028 C1032 0.949 . S
C1029 C1030 1.349 . S
C1029 C1031 1.327 . S
C1029 H1052 0.950 . S
C1030 C1029 1.349 . S
C1030 C1042 1.349 . S
C1031 C1029 1.327 . S
C1031 C1047 1.429 . S
C1031 H1053 0.950 . S
C1032 H1028 0.949 . S
C1032 C1040 1.597 . S
C1032 C1048 1.368 1_554 S
H1033 C1041 0.950 . S
H1034 C1039 0.950 . S
H1035 C1040 0.949 . S
H1036 C1042 0.950 . S
H1037 C1043 0.950 . S
H1038 C1044 0.949 . S
C1039 H1034 0.950 . S
C1039 C1041 1.327 . S
C1039 C1045 1.429 . S
C1040 C1032 1.597 . S
C1040 H1035 0.949 . S
C1040 C1046 1.345 1_565 S
C1041 C1025 1.349 . S
C1041 H1033 0.950 . S
C1041 C1039 1.327 . S
C1042 C1030 1.349 . S
C1042 H1036 0.950 . S
C1042 C1043 1.327 . S
C1043 H1037 0.950 . S
C1043 C1042 1.327 . S
C1043 C1047 1.429 . S
C1044 C1027 1.597 . S
C1044 H1038 0.949 . S
C1044 C1048 1.345 1_545 S
C1045 C1026 1.429 . S
C1045 C1039 1.429 . S
C1045 C1046 1.523 . S
C1046 C1027 1.368 1_554 S
C1046 C1040 1.345 1_545 S
C1046 C1045 1.523 . S
C1047 C1031 1.429 . S
C1047 C1043 1.429 . S
C1047 C1048 1.523 . S
C1048 C1032 1.368 1_556 S
C1048 C1044 1.345 1_565 S
C1048 C1047 1.523 . S
H1049 C1024 0.950 . S
H1050 C1026 0.950 . S
H1051 C1027 0.949 . S
H1052 C1029 0.950 . S
H1053 C1031 0.950 . S
C1054 C1055 1.349 . S
C1054 C1056 1.327 . S
C1054 H1079 0.950 . S
C1055 C1054 1.349 . S
C1055 C1071 1.349 . S
C1056 C1054 1.327 . S
C1056 C1075 1.429 . S
C1056 H1080 0.950 . S
C1057 C1074 1.574 . S
C1057 C1076 1.368 . S
C1057 H1081 0.949 . S
H1058 C1062 0.949 . S
C1059 C1060 1.349 . S
C1059 C1061 1.327 . S
C1059 H1082 0.950 . S
C1060 C1059 1.349 . S
C1060 C1072 1.349 . S
C1061 C1059 1.327 . S
C1061 C1077 1.429 . S
C1061 H1083 0.950 . S
C1062 H1058 0.949 . S
C1062 C1070 1.574 . S
C1062 C1078 1.368 . S
H1063 C1071 0.950 . S
H1064 C1069 0.950 . S
H1065 C1070 0.949 . S
H1066 C1072 0.950 . S
H1067 C1073 0.950 . S
H1068 C1074 0.949 . S
C1069 H1064 0.950 . S
C1069 C1071 1.327 . S
C1069 C1075 1.429 . S
C1070 C1062 1.574 . S
C1070 H1065 0.949 . S
C1070 C1076 1.368 . S
C1071 C1055 1.349 . S
C1071 H1063 0.950 . S
C1071 C1069 1.327 . S
C1072 C1060 1.349 . S
C1072 H1066 0.950 . S
C1072 C1073 1.327 . S
C1073 H1067 0.950 . S
C1073 C1072 1.327 . S
C1073 C1077 1.429 . S
C1074 C1057 1.574 . S
C1074 H1068 0.949 . S
C1074 C1078 1.368 . S
C1075 C1056 1.429 . S
C1075 C1069 1.429 . S
C1075 C1076 1.523 . S
C1076 C1057 1.368 . S
C1076 C1070 1.368 . S
C1076 C1075 1.523 . S
C1077 C1061 1.429 . S
C1077 C1073 1.429 . S
C1077 C1078 1.523 . S
C1078 C1062 1.368 . S
C1078 C1074 1.368 . S
C1078 C1077 1.523 . S
H1079 C1054 0.950 . S
H1080 C1056 0.950 . S
H1081 C1057 0.949 . S
H1082 C1059 0.950 . S
H1083 C1061 0.950 . S
C1084 C1085 1.349 . S
C1084 C1086 1.327 . S
C1084 H1109 0.950 . S
C1085 C1084 1.349 . S
C1085 C1101 1.349 . S
C1086 C1084 1.327 . S
C1086 C1105 1.429 . S
C1086 H1110 0.950 . S
C1087 C1104 1.629 . S
C1087 C1106 1.368 . S
C1087 H1111 0.949 . S
H1088 C1092 0.949 . S
C1089 C1090 1.349 . S
C1089 C1091 1.327 . S
C1089 H1112 0.950 . S
C1090 C1089 1.349 . S
C1090 C1102 1.349 . S
C1091 C1089 1.327 . S
C1091 C1107 1.429 . S
C1091 H1113 0.950 . S
C1092 H1088 0.949 . S
C1092 C1100 1.629 . S
C1092 C1108 1.368 . S
H1093 C1101 0.950 . S
H1094 C1099 0.950 . S
H1095 C1100 0.953 . S
H1096 C1102 0.950 . S
H1097 C1103 0.950 . S
H1098 C1104 0.953 . S
C1099 H1094 0.950 . S
C1099 C1101 1.327 . S
C1099 C1105 1.429 . S
C1100 C1092 1.629 . S
C1100 H1095 0.953 . S
C1100 C1106 1.312 1_565 S
C1101 C1085 1.349 . S
C1101 H1093 0.950 . S
C1101 C1099 1.327 . S
C1102 C1090 1.349 . S
C1102 H1096 0.950 . S
C1102 C1103 1.327 . S
C1103 H1097 0.950 . S
C1103 C1102 1.327 . S
C1103 C1107 1.429 . S
C1104 C1087 1.629 . S
C1104 H1098 0.953 . S
C1104 C1108 1.312 1_545 S
C1105 C1086 1.429 . S
C1105 C1099 1.429 . S
C1105 C1106 1.523 . S
C1106 C1087 1.368 . S
C1106 C1100 1.312 1_545 S
C1106 C1105 1.523 . S
C1107 C1091 1.429 . S
C1107 C1103 1.429 . S
C1107 C1108 1.523 . S
C1108 C1092 1.368 . S
C1108 C1104 1.312 1_565 S
C1108 C1107 1.523 . S
H1109 C1084 0.950 . S
H1110 C1086 0.950 . S
H1111 C1087 0.949 . S
H1112 C1089 0.950 . S
H1113 C1091 0.950 . S
C1114 C1115 1.349 . S
C1114 C1116 1.327 . S
C1114 H1139 0.950 . S
C1115 C1114 1.349 . S
C1115 C1131 1.349 . S
C1116 C1114 1.327 . S
C1116 C1135 1.429 . S
C1116 H1140 0.950 . S
C1117 C1134 1.574 . S
C1117 C1136 1.368 . S
C1117 H1141 0.949 . S
H1118 C1122 0.949 . S
C1119 C1120 1.349 . S
C1119 C1121 1.327 . S
C1119 H1142 0.950 . S
C1120 C1119 1.349 . S
C1120 C1132 1.349 . S
C1121 C1119 1.327 . S
C1121 C1137 1.429 . S
C1121 H1143 0.950 . S
C1122 H1118 0.949 . S
C1122 C1130 1.574 . S
C1122 C1138 1.368 . S
H1123 C1131 0.950 . S
H1124 C1129 0.950 . S
H1125 C1130 0.949 . S
H1126 C1132 0.950 . S
H1127 C1133 0.950 . S
H1128 C1134 0.949 . S
C1129 H1124 0.950 . S
C1129 C1131 1.327 . S
C1129 C1135 1.429 . S
C1130 C1122 1.574 . S
C1130 H1125 0.949 . S
C1130 C1136 1.368 . S
C1131 C1115 1.349 . S
C1131 H1123 0.950 . S
C1131 C1129 1.327 . S
C1132 C1120 1.349 . S
C1132 H1126 0.950 . S
C1132 C1133 1.327 . S
C1133 H1127 0.950 . S
C1133 C1132 1.327 . S
C1133 C1137 1.429 . S
C1134 C1117 1.574 . S
C1134 H1128 0.949 . S
C1134 C1138 1.368 . S
C1135 C1116 1.429 . S
C1135 C1129 1.429 . S
C1135 C1136 1.523 . S
C1136 C1117 1.368 . S
C1136 C1130 1.368 . S
C1136 C1135 1.523 . S
C1137 C1121 1.429 . S
C1137 C1133 1.429 . S
C1137 C1138 1.523 . S
C1138 C1122 1.368 . S
C1138 C1134 1.368 . S
C1138 C1137 1.523 . S
H1139 C1114 0.950 . S
H1140 C1116 0.950 . S
H1141 C1117 0.949 . S
H1142 C1119 0.950 . S
H1143 C1121 0.950 . S
C1144 C1145 1.349 . S
C1144 C1146 1.327 . S
C1144 H1169 0.950 . S
C1145 C1144 1.349 . S
C1145 C1161 1.349 . S
C1146 C1144 1.327 . S
C1146 C1165 1.429 . S
C1146 H1170 0.950 . S
C1147 C1164 1.574 . S
C1147 C1166 1.368 . S
C1147 H1171 0.949 . S
H1148 C1152 0.949 . S
C1149 C1150 1.349 . S
C1149 C1151 1.327 . S
C1149 H1172 0.950 . S
C1150 C1149 1.349 . S
C1150 C1162 1.349 . S
C1151 C1149 1.327 . S
C1151 C1167 1.429 . S
C1151 H1173 0.950 . S
C1152 H1148 0.949 . S
C1152 C1160 1.574 . S
C1152 C1168 1.368 . S
H1153 C1161 0.950 . S
H1154 C1159 0.950 . S
H1155 C1160 0.949 . S
H1156 C1162 0.950 . S
H1157 C1163 0.950 . S
H1158 C1164 0.949 . S
C1159 H1154 0.950 . S
C1159 C1161 1.327 . S
C1159 C1165 1.429 . S
C1160 C1152 1.574 . S
C1160 H1155 0.949 . S
C1160 C1166 1.368 . S
C1161 C1145 1.349 . S
C1161 H1153 0.950 . S
C1161 C1159 1.327 . S
C1162 C1150 1.349 . S
C1162 H1156 0.950 . S
C1162 C1163 1.327 . S
C1163 H1157 0.950 . S
C1163 C1162 1.327 . S
C1163 C1167 1.429 . S
C1164 C1147 1.574 . S
C1164 H1158 0.949 . S
C1164 C1168 1.368 . S
C1165 C1146 1.429 . S
C1165 C1159 1.429 . S
C1165 C1166 1.523 . S
C1166 C1147 1.368 . S
C1166 C1160 1.368 . S
C1166 C1165 1.523 . S
C1167 C1151 1.429 . S
C1167 C1163 1.429 . S
C1167 C1168 1.523 . S
C1168 C1152 1.368 . S
C1168 C1164 1.368 . S
C1168 C1167 1.523 . S
H1169 C1144 0.950 . S
H1170 C1146 0.950 . S
H1171 C1147 0.949 . S
H1172 C1149 0.950 . S
H1173 C1151 0.950 . S
C1174 C1175 1.349 . S
C1174 C1176 1.327 . S
C1174 H1199 0.950 . S
C1175 C1174 1.349 . S
C1175 C1191 1.349 . S
C1176 C1174 1.327 . S
C1176 C1195 1.429 . S
C1176 H1200 0.950 . S
C1177 C1194 1.574 . S
C1177 C1196 1.368 . S
C1177 H1201 0.949 . S
H1178 C1182 0.949 . S
C1179 C1180 1.349 . S
C1179 C1181 1.327 . S
C1179 H1202 0.950 . S
C1180 C1179 1.349 . S
C1180 C1192 1.349 . S
C1181 C1179 1.327 . S
C1181 C1197 1.429 . S
C1181 H1203 0.950 . S
C1182 H1178 0.949 . S
C1182 C1190 1.574 . S
C1182 C1198 1.368 . S
H1183 C1191 0.950 . S
H1184 C1189 0.950 . S
H1185 C1190 0.949 . S
H1186 C1192 0.950 . S
H1187 C1193 0.950 . S
H1188 C1194 0.949 . S
C1189 H1184 0.950 . S
C1189 C1191 1.327 . S
C1189 C1195 1.429 . S
C1190 C1182 1.574 . S
C1190 H1185 0.949 . S
C1190 C1196 1.368 . S
C1191 C1175 1.349 . S
C1191 H1183 0.950 . S
C1191 C1189 1.327 . S
C1192 C1180 1.349 . S
C1192 H1186 0.950 . S
C1192 C1193 1.327 . S
C1193 H1187 0.950 . S
C1193 C1192 1.327 . S
C1193 C1197 1.429 . S
C1194 C1177 1.574 . S
C1194 H1188 0.949 . S
C1194 C1198 1.368 . S
C1195 C1176 1.429 . S
C1195 C1189 1.429 . S
C1195 C1196 1.523 . S
C1196 C1177 1.368 . S
C1196 C1190 1.368 . S
C1196 C1195 1.523 . S
C1197 C1181 1.429 . S
C1197 C1193 1.429 . S
C1197 C1198 1.523 . S
C1198 C1182 1.368 . S
C1198 C1194 1.368 . S
C1198 C1197 1.523 . S
H1199 C1174 0.950 . S
H1200 C1176 0.950 . S
H1201 C1177 0.949 . S
H1202 C1179 0.950 . S
H1203 C1181 0.950 . S
C1204 C1205 1.349 . S
C1204 C1206 1.327 . S
C1204 H1229 0.950 . S
C1205 C1204 1.349 . S
C1205 C1221 1.349 . S
C1206 C1204 1.327 . S
C1206 C1225 1.429 . S
C1206 H1230 0.950 . S
C1207 C1224 1.574 . S
C1207 C1226 1.368 . S
C1207 H1231 0.949 . S
H1208 C1212 0.949 . S
C1209 C1210 1.349 . S
C1209 C1211 1.327 . S
C1209 H1232 0.950 . S
C1210 C1209 1.349 . S
C1210 C1222 1.349 . S
C1211 C1209 1.327 . S
C1211 C1227 1.429 . S
C1211 H1233 0.950 . S
C1212 H1208 0.949 . S
C1212 C1220 1.574 . S
C1212 C1228 1.368 . S
H1213 C1221 0.950 . S
H1214 C1219 0.950 . S
H1215 C1220 0.949 . S
H1216 C1222 0.950 . S
H1217 C1223 0.950 . S
H1218 C1224 0.949 . S
C1219 H1214 0.950 . S
C1219 C1221 1.327 . S
C1219 C1225 1.429 . S
C1220 C1212 1.574 . S
C1220 H1215 0.949 . S
C1220 C1226 1.368 . S
C1221 C1205 1.349 . S
C1221 H1213 0.950 . S
C1221 C1219 1.327 . S
C1222 C1210 1.349 . S
C1222 H1216 0.950 . S
C1222 C1223 1.327 . S
C1223 H1217 0.950 . S
C1223 C1222 1.327 . S
C1223 C1227 1.429 . S
C1224 C1207 1.574 . S
C1224 H1218 0.949 . S
C1224 C1228 1.368 . S
C1225 C1206 1.429 . S
C1225 C1219 1.429 . S
C1225 C1226 1.523 . S
C1226 C1207 1.368 . S
C1226 C1220 1.368 . S
C1226 C1225 1.523 . S
C1227 C1211 1.429 . S
C1227 C1223 1.429 . S
C1227 C1228 1.523 . S
C1228 C1212 1.368 . S
C1228 C1224 1.368 . S
C1228 C1227 1.523 . S
H1229 C1204 0.950 . S
H1230 C1206 0.950 . S
H1231 C1207 0.949 . S
H1232 C1209 0.950 . S
H1233 C1211 0.950 . S
C1234 C1235 1.349 . S
C1234 C1236 1.327 . S
C1234 H1259 0.950 . S
C1235 C1234 1.349 . S
C1235 C1251 1.349 . S
C1236 C1234 1.327 . S
C1236 C1255 1.429 . S
C1236 H1260 0.950 . S
C1237 C1254 1.574 . S
C1237 C1256 1.368 1_554 S
C1237 H1261 0.949 . S
H1238 C1242 0.949 . S
C1239 C1240 1.349 . S
C1239 C1241 1.327 . S
C1239 H1262 0.950 . S
C1240 C1239 1.349 . S
C1240 C1252 1.349 . S
C1241 C1239 1.327 . S
C1241 C1257 1.429 . S
C1241 H1263 0.950 . S
C1242 H1238 0.949 . S
C1242 C1250 1.574 . S
C1242 C1258 1.368 1_556 S
H1243 C1251 0.950 . S
H1244 C1249 0.950 . S
H1245 C1250 0.949 . S
H1246 C1252 0.950 . S
H1247 C1253 0.950 . S
H1248 C1254 0.949 . S
C1249 H1244 0.950 . S
C1249 C1251 1.327 . S
C1249 C1255 1.429 . S
C1250 C1242 1.574 . S
C1250 H1245 0.949 . S
C1250 C1256 1.368 . S
C1251 C1235 1.349 . S
C1251 H1243 0.950 . S
C1251 C1249 1.327 . S
C1252 C1240 1.349 . S
C1252 H1246 0.950 . S
C1252 C1253 1.327 . S
C1253 H1247 0.950 . S
C1253 C1252 1.327 . S
C1253 C1257 1.429 . S
C1254 C1237 1.574 . S
C1254 H1248 0.949 . S
C1254 C1258 1.368 . S
C1255 C1236 1.429 . S
C1255 C1249 1.429 . S
C1255 C1256 1.523 . S
C1256 C1237 1.368 1_556 S
C1256 C1250 1.368 . S
C1256 C1255 1.523 . S
C1257 C1241 1.429 . S
C1257 C1253 1.429 . S
C1257 C1258 1.523 . S
C1258 C1242 1.368 1_554 S
C1258 C1254 1.368 . S
C1258 C1257 1.523 . S
H1259 C1234 0.950 . S
H1260 C1236 0.950 . S
H1261 C1237 0.949 . S
H1262 C1239 0.950 . S
H1263 C1241 0.950 . S
C1264 C1265 1.349 . S
C1264 C1266 1.327 . S
C1264 H1289 0.950 1_455 S
C1265 C1264 1.349 . S
C1265 C1281 1.349 . S
C1266 C1264 1.327 . S
C1266 C1285 1.429 . S
C1266 H1290 0.950 1_455 S
C1267 C1284 1.574 . S
C1267 C1286 1.368 . S
C1267 H1291 0.949 . S
H1268 C1272 0.949 1_655 S
C1269 C1270 1.349 . S
C1269 C1271 1.327 . S
C1269 H1292 0.950 . S
C1270 C1269 1.349 . S
C1270 C1282 1.349 . S
C1271 C1269 1.327 . S
C1271 C1287 1.429 . S
C1271 H1293 0.950 . S
C1272 H1268 0.949 1_455 S
C1272 C1280 1.574 . S
C1272 C1288 1.368 . S
H1273 C1281 0.950 . S
H1274 C1279 0.950 . S
H1275 C1280 0.949 1_655 S
H1276 C1282 0.943 . S
H1277 C1283 0.950 1_655 S
H1278 C1284 0.949 . S
C1279 H1274 0.950 . S
C1279 C1281 1.327 . S
C1279 C1285 1.429 . S
C1280 C1272 1.574 . S
C1280 H1275 0.949 1_455 S
C1280 C1286 1.368 . S
C1281 C1265 1.349 . S
C1281 H1273 0.950 . S
C1281 C1279 1.327 . S
C1282 C1270 1.349 . S
C1282 H1276 0.943 . S
C1282 C1283 1.327 . S
C1283 H1277 0.950 1_455 S
C1283 C1282 1.327 . S
C1283 C1287 1.429 . S
C1284 C1267 1.574 . S
C1284 H1278 0.949 . S
C1284 C1288 1.368 . S
C1285 C1266 1.429 . S
C1285 C1279 1.429 . S
C1285 C1286 1.523 . S
C1286 C1267 1.368 . S
C1286 C1280 1.368 . S
C1286 C1285 1.523 . S
C1287 C1271 1.429 . S
C1287 C1283 1.429 . S
C1287 C1288 1.523 . S
C1288 C1272 1.368 . S
C1288 C1284 1.368 . S
C1288 C1287 1.523 . S
H1289 C1264 0.950 1_655 S
H1290 C1266 0.950 1_655 S
H1291 C1267 0.949 . S
H1292 C1269 0.950 . S
H1293 C1271 0.950 . S
C1294 C1295 1.349 . S
C1294 C1296 1.327 . S
C1294 H1319 0.950 . S
C1295 C1294 1.349 . S
C1295 C1311 1.349 . S
C1296 C1294 1.327 . S
C1296 C1315 1.429 . S
C1296 H1320 0.950 . S
C1297 C1314 1.574 . S
C1297 C1316 1.368 1_556 S
C1297 H1321 0.949 . S
H1298 C1302 0.949 . S
C1299 C1300 1.349 . S
C1299 C1301 1.327 . S
C1299 H1322 0.950 . S
C1300 C1299 1.349 . S
C1300 C1312 1.349 . S
C1301 C1299 1.327 . S
C1301 C1317 1.429 . S
C1301 H1323 0.950 . S
C1302 H1298 0.949 . S
C1302 C1310 1.574 . S
C1302 C1318 1.368 . S
H1303 C1311 0.950 . S
H1304 C1309 0.950 . S
H1305 C1310 0.949 1_554 S
H1306 C1312 0.950 . S
H1307 C1313 0.950 . S
H1308 C1314 0.949 . S
C1309 H1304 0.950 . S
C1309 C1311 1.327 . S
C1309 C1315 1.429 . S
C1310 C1302 1.574 . S
C1310 H1305 0.949 1_556 S
C1310 C1316 1.368 1_556 S
C1311 C1295 1.349 . S
C1311 H1303 0.950 . S
C1311 C1309 1.327 . S
C1312 C1300 1.349 . S
C1312 H1306 0.950 . S
C1312 C1313 1.327 . S
C1313 H1307 0.950 . S
C1313 C1312 1.327 . S
C1313 C1317 1.429 . S
C1314 C1297 1.574 . S
C1314 H1308 0.949 . S
C1314 C1318 1.368 . S
C1315 C1296 1.429 . S
C1315 C1309 1.429 . S
C1315 C1316 1.523 . S
C1316 C1297 1.368 1_554 S
C1316 C1310 1.368 1_554 S
C1316 C1315 1.523 . S
C1317 C1301 1.429 . S
C1317 C1313 1.429 . S
C1317 C1318 1.523 . S
C1318 C1302 1.368 . S
C1318 C1314 1.368 . S
C1318 C1317 1.523 . S
H1319 C1294 0.950 . S
H1320 C1296 0.950 . S
H1321 C1297 0.949 . S
H1322 C1299 0.950 . S
H1323 C1301 0.950 . S
C1324 C1325 1.349 . S
C1324 C1326 1.327 1_556 S
C1324 H1349 0.950 . S
C1325 C1324 1.349 . S
C1325 C1341 1.349 . S
C1326 C1324 1.327 1_554 S
C1326 C1345 1.429 . S
C1326 H1350 0.950 . S
C1327 C1344 1.574 . S
C1327 C1346 1.368 . S
C1327 H1351 0.949 . S
H1328 C1332 0.949 . S
C1329 C1330 1.349 . S
C1329 C1331 1.327 . S
C1329 H1352 0.950 . S
C1330 C1329 1.349 . S
C1330 C1342 1.349 . S
C1331 C1329 1.327 . S
C1331 C1347 1.429 . S
C1331 H1353 0.950 . S
C1332 H1328 0.949 . S
C1332 C1340 1.574 . S
C1332 C1348 1.368 . S
H1333 C1341 0.950 . S
H1334 C1339 0.950 . S
H1335 C1340 0.949 . S
H1336 C1342 0.950 . S
H1337 C1343 0.950 . S
H1338 C1344 0.949 . S
C1339 H1334 0.950 . S
C1339 C1341 1.327 1_554 S
C1339 C1345 1.429 . S
C1340 C1332 1.574 . S
C1340 H1335 0.949 . S
C1340 C1346 1.368 . S
C1341 C1325 1.349 . S
C1341 H1333 0.950 . S
C1341 C1339 1.327 1_556 S
C1342 C1330 1.349 . S
C1342 H1336 0.950 . S
C1342 C1343 1.327 . S
C1343 H1337 0.950 . S
C1343 C1342 1.327 . S
C1343 C1347 1.429 . S
C1344 C1327 1.574 . S
C1344 H1338 0.949 . S
C1344 C1348 1.368 . S
C1345 C1326 1.429 . S
C1345 C1339 1.429 . S
C1345 C1346 1.523 . S
C1346 C1327 1.368 . S
C1346 C1340 1.368 . S
C1346 C1345 1.523 . S
C1347 C1331 1.429 . S
C1347 C1343 1.429 . S
C1347 C1348 1.523 . S
C1348 C1332 1.368 . S
C1348 C1344 1.368 . S
C1348 C1347 1.523 . S
H1349 C1324 0.950 . S
H1350 C1326 0.950 . S
H1351 C1327 0.949 . S
H1352 C1329 0.950 . S
H1353 C1331 0.950 . S
C1354 C1355 1.349 . S
C1354 C1356 1.327 . S
C1354 H1379 0.950 . S
C1355 C1354 1.349 . S
C1355 C1371 1.349 . S
C1356 C1354 1.327 . S
C1356 C1375 1.429 . S
C1356 H1380 0.950 . S
C1357 C1374 1.574 . S
C1357 C1376 1.368 . S
C1357 H1381 0.949 . S
H1358 C1362 0.949 . S
C1359 C1360 1.349 . S
C1359 C1361 1.327 . S
C1359 H1382 0.950 . S
C1360 C1359 1.349 . S
C1360 C1372 1.349 . S
C1361 C1359 1.327 . S
C1361 C1377 1.429 . S
C1361 H1383 0.950 . S
C1362 H1358 0.949 . S
C1362 C1370 1.574 . S
C1362 C1378 1.368 . S
H1363 C1371 0.950 . S
H1364 C1369 0.950 . S
H1365 C1370 0.949 . S
H1366 C1372 0.950 . S
H1367 C1373 0.950 . S
H1368 C1374 0.949 . S
C1369 H1364 0.950 . S
C1369 C1371 1.327 . S
C1369 C1375 1.429 . S
C1370 C1362 1.574 . S
C1370 H1365 0.949 . S
C1370 C1376 1.368 . S
C1371 C1355 1.349 . S
C1371 H1363 0.950 . S
C1371 C1369 1.327 . S
C1372 C1360 1.349 . S
C1372 H1366 0.950 . S
C1372 C1373 1.327 . S
C1373 H1367 0.950 . S
C1373 C1372 1.327 . S
C1373 C1377 1.429 . S
C1374 C1357 1.574 . S
C1374 H1368 0.949 . S
C1374 C1378 1.368 . S
C1375 C1356 1.429 . S
C1375 C1369 1.429 . S
C1375 C1376 1.523 . S
C1376 C1357 1.368 . S
C1376 C1370 1.368 . S
C1376 C1375 1.523 . S
C1377 C1361 1.429 . S
C1377 C1373 1.429 . S
C1377 C1378 1.523 . S
C1378 C1362 1.368 . S
C1378 C1374 1.368 . S
C1378 C1377 1.523 . S
H1379 C1354 0.950 . S
H1380 C1356 0.950 . S
H1381 C1357 0.949 . S
H1382 C1359 0.950 . S
H1383 C1361 0.950 . S
C1384 C1385 1.349 . S
C1384 C1386 1.327 . S
C1384 H1409 0.950 . S
C1385 C1384 1.349 . S
C1385 C1401 1.349 . S
C1386 C1384 1.327 . S
C1386 C1405 1.429 . S
C1386 H1410 0.950 . S
C1387 C1404 1.574 . S
C1387 C1406 1.368 . S
C1387 H1411 0.949 . S
H1388 C1392 0.949 . S
C1389 C1390 1.349 . S
C1389 C1391 1.327 . S
C1389 H1412 0.950 . S
C1390 C1389 1.349 . S
C1390 C1402 1.349 . S
C1391 C1389 1.327 . S
C1391 C1407 1.429 . S
C1391 H1413 0.950 . S
C1392 H1388 0.949 . S
C1392 C1400 1.574 . S
C1392 C1408 1.368 . S
H1393 C1401 0.950 . S
H1394 C1399 0.950 . S
H1395 C1400 0.949 . S
H1396 C1402 0.950 . S
H1397 C1403 0.950 . S
H1398 C1404 0.949 . S
C1399 H1394 0.950 . S
C1399 C1401 1.327 . S
C1399 C1405 1.429 . S
C1400 C1392 1.574 . S
C1400 H1395 0.949 . S
C1400 C1406 1.368 . S
C1401 C1385 1.349 . S
C1401 H1393 0.950 . S
C1401 C1399 1.327 . S
C1402 C1390 1.349 . S
C1402 H1396 0.950 . S
C1402 C1403 1.327 . S
C1403 H1397 0.950 . S
C1403 C1402 1.327 . S
C1403 C1407 1.429 . S
C1404 C1387 1.574 . S
C1404 H1398 0.949 . S
C1404 C1408 1.368 . S
C1405 C1386 1.429 . S
C1405 C1399 1.429 . S
C1405 C1406 1.523 . S
C1406 C1387 1.368 . S
C1406 C1400 1.368 . S
C1406 C1405 1.523 . S
C1407 C1391 1.429 . S
C1407 C1403 1.429 . S
C1407 C1408 1.523 . S
C1408 C1392 1.368 . S
C1408 C1404 1.368 . S
C1408 C1407 1.523 . S
H1409 C1384 0.950 . S
H1410 C1386 0.950 . S
H1411 C1387 0.949 . S
H1412 C1389 0.950 . S
H1413 C1391 0.950 . S
C1414 C1415 1.349 . S
C1414 C1416 1.327 . S
C1414 H1439 0.950 . S
C1415 C1414 1.349 . S
C1415 C1431 1.349 . S
C1416 C1414 1.327 . S
C1416 C1435 1.429 . S
C1416 H1440 0.950 . S
C1417 C1434 1.574 . S
C1417 C1436 1.368 . S
C1417 H1441 0.949 . S
H1418 C1422 0.949 . S
C1419 C1420 1.349 . S
C1419 C1421 1.327 . S
C1419 H1442 0.950 . S
C1420 C1419 1.349 . S
C1420 C1432 1.349 . S
C1421 C1419 1.327 . S
C1421 C1437 1.429 . S
C1421 H1443 0.950 . S
C1422 H1418 0.949 . S
C1422 C1430 1.574 . S
C1422 C1438 1.368 . S
H1423 C1431 0.950 . S
H1424 C1429 0.950 . S
H1425 C1430 0.949 . S
H1426 C1432 0.950 . S
H1427 C1433 0.950 . S
H1428 C1434 0.949 . S
C1429 H1424 0.950 . S
C1429 C1431 1.327 . S
C1429 C1435 1.429 . S
C1430 C1422 1.574 . S
C1430 H1425 0.949 . S
C1430 C1436 1.368 . S
C1431 C1415 1.349 . S
C1431 H1423 0.950 . S
C1431 C1429 1.327 . S
C1432 C1420 1.349 . S
C1432 H1426 0.950 . S
C1432 C1433 1.327 . S
C1433 H1427 0.950 . S
C1433 C1432 1.327 . S
C1433 C1437 1.429 . S
C1434 C1417 1.574 . S
C1434 H1428 0.949 . S
C1434 C1438 1.368 . S
C1435 C1416 1.429 . S
C1435 C1429 1.429 . S
C1435 C1436 1.523 . S
C1436 C1417 1.368 . S
C1436 C1430 1.368 . S
C1436 C1435 1.523 . S
C1437 C1421 1.429 . S
C1437 C1433 1.429 . S
C1437 C1438 1.523 . S
C1438 C1422 1.368 . S
C1438 C1434 1.368 . S
C1438 C1437 1.523 . S
H1439 C1414 0.950 . S
H1440 C1416 0.950 . S
H1441 C1417 0.949 . S
H1442 C1419 0.950 . S
H1443 C1421 0.950 . S
C1444 C1445 1.349 . S
C1444 C1446 1.327 . S
C1444 H1469 0.950 . S
C1445 C1444 1.349 . S
C1445 C1461 1.349 . S
C1446 C1444 1.327 . S
C1446 C1465 1.429 . S
C1446 H1470 0.950 . S
C1447 C1464 1.574 . S
C1447 C1466 1.368 . S
C1447 H1471 0.949 . S
H1448 C1452 0.949 . S
C1449 C1450 1.349 . S
C1449 C1451 1.327 1_554 S
C1449 H1472 0.950 . S
C1450 C1449 1.349 . S
C1450 C1462 1.349 . S
C1451 C1449 1.327 1_556 S
C1451 C1467 1.429 . S
C1451 H1473 0.950 . S
C1452 H1448 0.949 . S
C1452 C1460 1.574 . S
C1452 C1468 1.368 . S
H1453 C1461 0.950 . S
H1454 C1459 0.950 . S
H1455 C1460 0.949 . S
H1456 C1462 0.950 . S
H1457 C1463 0.950 . S
H1458 C1464 0.949 . S
C1459 H1454 0.950 . S
C1459 C1461 1.327 . S
C1459 C1465 1.429 . S
C1460 C1452 1.574 . S
C1460 H1455 0.949 . S
C1460 C1466 1.368 . S
C1461 C1445 1.349 . S
C1461 H1453 0.950 . S
C1461 C1459 1.327 . S
C1462 C1450 1.349 . S
C1462 H1456 0.950 . S
C1462 C1463 1.327 1_554 S
C1463 H1457 0.950 . S
C1463 C1462 1.327 1_556 S
C1463 C1467 1.429 . S
C1464 C1447 1.574 . S
C1464 H1458 0.949 . S
C1464 C1468 1.368 . S
C1465 C1446 1.429 . S
C1465 C1459 1.429 . S
C1465 C1466 1.523 . S
C1466 C1447 1.368 . S
C1466 C1460 1.368 . S
C1466 C1465 1.523 . S
C1467 C1451 1.429 . S
C1467 C1463 1.429 . S
C1467 C1468 1.523 . S
C1468 C1452 1.368 . S
C1468 C1464 1.368 . S
C1468 C1467 1.523 . S
H1469 C1444 0.950 . S
H1470 C1446 0.950 . S
H1471 C1447 0.949 . S
H1472 C1449 0.950 . S
H1473 C1451 0.950 . S
C1474 C1475 1.349 . S
C1474 C1476 1.327 . S
C1474 H1499 0.950 . S
C1475 C1474 1.349 . S
C1475 C1491 1.349 . S
C1476 C1474 1.327 . S
C1476 C1495 1.429 . S
C1476 H1500 0.950 . S
C1477 C1494 1.574 . S
C1477 C1496 1.368 1_554 S
C1477 H1501 0.949 1_554 S
H1478 C1482 0.949 . S
C1479 C1480 1.349 . S
C1479 C1481 1.327 . S
C1479 H1502 0.950 . S
C1480 C1479 1.349 . S
C1480 C1492 1.349 . S
C1481 C1479 1.327 . S
C1481 C1497 1.429 . S
C1481 H1503 0.950 . S
C1482 H1478 0.949 . S
C1482 C1490 1.574 . S
C1482 C1498 1.368 . S
H1483 C1491 0.950 . S
H1484 C1489 0.950 . S
H1485 C1490 0.949 . S
H1486 C1492 0.950 . S
H1487 C1493 0.950 . S
H1488 C1494 0.949 . S
C1489 H1484 0.950 . S
C1489 C1491 1.327 . S
C1489 C1495 1.429 . S
C1490 C1482 1.574 . S
C1490 H1485 0.949 . S
C1490 C1496 1.368 1_554 S
C1491 C1475 1.349 . S
C1491 H1483 0.950 . S
C1491 C1489 1.327 . S
C1492 C1480 1.349 . S
C1492 H1486 0.950 . S
C1492 C1493 1.327 . S
C1493 H1487 0.950 . S
C1493 C1492 1.327 . S
C1493 C1497 1.429 . S
C1494 C1477 1.574 . S
C1494 H1488 0.949 . S
C1494 C1498 1.368 . S
C1495 C1476 1.429 . S
C1495 C1489 1.429 . S
C1495 C1496 1.523 . S
C1496 C1477 1.368 1_556 S
C1496 C1490 1.368 1_556 S
C1496 C1495 1.523 . S
C1497 C1481 1.429 . S
C1497 C1493 1.429 . S
C1497 C1498 1.523 . S
C1498 C1482 1.368 . S
C1498 C1494 1.368 . S
C1498 C1497 1.523 . S
H1499 C1474 0.950 . S
H1500 C1476 0.950 . S
H1501 C1477 0.949 1_556 S
H1502 C1479 0.950 . S
H1503 C1481 0.950 . S
C1504 C1505 1.349 . S
C1504 C1506 1.327 . S
C1504 H1529 0.950 . S
C1505 C1504 1.349 . S
C1505 C1521 1.349 . S
C1506 C1504 1.327 . S
C1506 C1525 1.429 . S
C1506 H1530 0.950 . S
C1507 C1524 1.574 . S
C1507 C1526 1.368 . S
C1507 H1531 0.949 . S
H1508 C1512 0.949 1_556 S
C1509 C1510 1.349 . S
C1509 C1511 1.327 . S
C1509 H1532 0.950 . S
C1510 C1509 1.349 . S
C1510 C1522 1.349 . S
C1511 C1509 1.327 . S
C1511 C1527 1.429 . S
C1511 H1533 0.950 . S
C1512 H1508 0.949 1_554 S
C1512 C1520 1.574 . S
C1512 C1528 1.368 1_554 S
H1513 C1521 0.950 . S
H1514 C1519 0.950 . S
H1515 C1520 0.949 . S
H1516 C1522 0.950 . S
H1517 C1523 0.950 . S
H1518 C1524 0.949 1_556 S
C1519 H1514 0.950 . S
C1519 C1521 1.327 . S
C1519 C1525 1.429 . S
C1520 C1512 1.574 . S
C1520 H1515 0.949 . S
C1520 C1526 1.368 . S
C1521 C1505 1.349 . S
C1521 H1513 0.950 . S
C1521 C1519 1.327 . S
C1522 C1510 1.349 . S
C1522 H1516 0.950 . S
C1522 C1523 1.327 . S
C1523 H1517 0.950 . S
C1523 C1522 1.327 . S
C1523 C1527 1.429 . S
C1524 C1507 1.574 . S
C1524 H1518 0.949 1_554 S
C1524 C1528 1.368 1_554 S
C1525 C1506 1.429 . S
C1525 C1519 1.429 . S
C1525 C1526 1.523 . S
C1526 C1507 1.368 . S
C1526 C1520 1.368 . S
C1526 C1525 1.523 . S
C1527 C1511 1.429 . S
C1527 C1523 1.429 . S
C1527 C1528 1.523 . S
C1528 C1512 1.368 1_556 S
C1528 C1524 1.368 1_556 S
C1528 C1527 1.523 . S
H1529 C1504 0.950 . S
H1530 C1506 0.950 . S
H1531 C1507 0.949 . S
H1532 C1509 0.950 . S
H1533 C1511 0.950 . S
C1534 C1535 1.349 . S
C1534 C1536 1.327 . S
C1534 H1559 0.950 . S
C1535 C1534 1.349 . S
C1535 C1551 1.349 . S
C1536 C1534 1.327 . S
C1536 C1555 1.429 . S
C1536 H1560 0.950 . S
C1537 C1554 1.574 . S
C1537 C1556 1.368 . S
C1537 H1561 0.949 . S
H1538 C1542 0.949 . S
C1539 C1540 1.349 . S
C1539 C1541 1.327 . S
C1539 H1562 0.950 . S
C1540 C1539 1.349 . S
C1540 C1552 1.349 . S
C1541 C1539 1.327 . S
C1541 C1557 1.429 . S
C1541 H1563 0.950 . S
C1542 H1538 0.949 . S
C1542 C1550 1.574 . S
C1542 C1558 1.368 . S
H1543 C1551 0.950 . S
H1544 C1549 0.950 . S
H1545 C1550 0.949 . S
H1546 C1552 0.950 . S
H1547 C1553 0.950 . S
H1548 C1554 0.949 . S
C1549 H1544 0.950 . S
C1549 C1551 1.327 . S
C1549 C1555 1.429 . S
C1550 C1542 1.574 . S
C1550 H1545 0.949 . S
C1550 C1556 1.368 . S
C1551 C1535 1.349 . S
C1551 H1543 0.950 . S
C1551 C1549 1.327 . S
C1552 C1540 1.349 . S
C1552 H1546 0.950 . S
C1552 C1553 1.327 . S
C1553 H1547 0.950 . S
C1553 C1552 1.327 . S
C1553 C1557 1.429 . S
C1554 C1537 1.574 . S
C1554 H1548 0.949 . S
C1554 C1558 1.368 . S
C1555 C1536 1.429 . S
C1555 C1549 1.429 . S
C1555 C1556 1.523 . S
C1556 C1537 1.368 . S
C1556 C1550 1.368 . S
C1556 C1555 1.523 . S
C1557 C1541 1.429 . S
C1557 C1553 1.429 . S
C1557 C1558 1.523 . S
C1558 C1542 1.368 . S
C1558 C1554 1.368 . S
C1558 C1557 1.523 . S
H1559 C1534 0.950 . S
H1560 C1536 0.950 . S
H1561 C1537 0.949 . S
H1562 C1539 0.950 . S
H1563 C1541 0.950 . S
C1564 C1565 1.349 . S
C1564 C1566 1.327 . S
C1564 H1589 0.950 . S
C1565 C1564 1.349 . S
C1565 C1581 1.349 . S
C1566 C1564 1.327 . S
C1566 C1585 1.429 . S
C1566 H1590 0.950 . S
C1567 C1584 1.574 . S
C1567 C1586 1.368 . S
C1567 H1591 0.949 . S
H1568 C1572 0.949 . S
C1569 C1570 1.349 . S
C1569 C1571 1.327 . S
C1569 H1592 0.950 . S
C1570 C1569 1.349 . S
C1570 C1582 1.349 . S
C1571 C1569 1.327 . S
C1571 C1587 1.429 . S
C1571 H1593 0.950 . S
C1572 H1568 0.949 . S
C1572 C1580 1.574 . S
C1572 C1588 1.368 . S
H1573 C1581 0.950 . S
H1574 C1579 0.950 . S
H1575 C1580 0.949 . S
H1576 C1582 0.950 . S
H1577 C1583 0.950 . S
H1578 C1584 0.949 . S
C1579 H1574 0.950 . S
C1579 C1581 1.327 . S
C1579 C1585 1.429 . S
C1580 C1572 1.574 . S
C1580 H1575 0.949 . S
C1580 C1586 1.368 . S
C1581 C1565 1.349 . S
C1581 H1573 0.950 . S
C1581 C1579 1.327 . S
C1582 C1570 1.349 . S
C1582 H1576 0.950 . S
C1582 C1583 1.327 . S
C1583 H1577 0.950 . S
C1583 C1582 1.327 . S
C1583 C1587 1.429 . S
C1584 C1567 1.574 . S
C1584 H1578 0.949 . S
C1584 C1588 1.368 . S
C1585 C1566 1.429 . S
C1585 C1579 1.429 . S
C1585 C1586 1.523 . S
C1586 C1567 1.368 . S
C1586 C1580 1.368 . S
C1586 C1585 1.523 . S
C1587 C1571 1.429 . S
C1587 C1583 1.429 . S
C1587 C1588 1.523 . S
C1588 C1572 1.368 . S
C1588 C1584 1.368 . S
C1588 C1587 1.523 . S
H1589 C1564 0.950 . S
H1590 C1566 0.950 . S
H1591 C1567 0.949 . S
H1592 C1569 0.950 . S
H1593 C1571 0.950 . S
C1594 C1595 1.349 . S
C1594 C1596 1.327 . S
C1594 H1619 0.950 . S
C1595 C1594 1.349 . S
C1595 C1611 1.349 . S
C1596 C1594 1.327 . S
C1596 C1615 1.429 . S
C1596 H1620 0.950 . S
C1597 C1614 1.574 . S
C1597 C1616 1.368 1_556 S
C1597 H1621 0.949 1_556 S
H1598 C1602 0.949 . S
C1599 C1600 1.349 . S
C1599 C1601 1.327 . S
C1599 H1622 0.950 . S
C1600 C1599 1.349 . S
C1600 C1612 1.349 . S
C1601 C1599 1.327 . S
C1601 C1617 1.429 . S
C1601 H1623 0.950 . S
C1602 H1598 0.949 . S
C1602 C1610 1.574 . S
C1602 C1618 1.368 . S
H1603 C1611 0.950 . S
H1604 C1609 0.950 . S
H1605 C1610 0.949 . S
H1606 C1612 0.950 . S
H1607 C1613 0.950 . S
H1608 C1614 0.949 . S
C1609 H1604 0.950 . S
C1609 C1611 1.327 . S
C1609 C1615 1.429 . S
C1610 C1602 1.574 . S
C1610 H1605 0.949 . S
C1610 C1616 1.368 1_556 S
C1611 C1595 1.349 . S
C1611 H1603 0.950 . S
C1611 C1609 1.327 . S
C1612 C1600 1.349 . S
C1612 H1606 0.950 . S
C1612 C1613 1.327 . S
C1613 H1607 0.950 . S
C1613 C1612 1.327 . S
C1613 C1617 1.429 . S
C1614 C1597 1.574 . S
C1614 H1608 0.949 . S
C1614 C1618 1.368 . S
C1615 C1596 1.429 . S
C1615 C1609 1.429 . S
C1615 C1616 1.523 . S
C1616 C1597 1.368 1_554 S
C1616 C1610 1.368 1_554 S
C1616 C1615 1.523 . S
C1617 C1601 1.429 . S
C1617 C1613 1.429 . S
C1617 C1618 1.523 . S
C1618 C1602 1.368 . S
C1618 C1614 1.368 . S
C1618 C1617 1.523 . S
H1619 C1594 0.950 . S
H1620 C1596 0.950 . S
H1621 C1597 0.949 1_554 S
H1622 C1599 0.950 . S
H1623 C1601 0.950 . S
C1624 C1625 1.349 . S
C1624 C1626 1.327 . S
C1624 H1649 0.950 . S
C1625 C1624 1.349 . S
C1625 C1641 1.349 . S
C1626 C1624 1.327 . S
C1626 C1645 1.429 . S
C1626 H1650 0.950 . S
C1627 C1644 1.574 . S
C1627 C1646 1.368 . S
C1627 H1651 0.949 . S
H1628 C1632 0.949 . S
C1629 C1630 1.349 . S
C1629 C1631 1.327 1_556 S
C1629 H1652 0.950 . S
C1630 C1629 1.349 . S
C1630 C1642 1.349 . S
C1631 C1629 1.327 1_554 S
C1631 C1647 1.429 . S
C1631 H1653 0.950 . S
C1632 H1628 0.949 . S
C1632 C1640 1.574 . S
C1632 C1648 1.368 . S
H1633 C1641 0.950 . S
H1634 C1639 0.950 . S
H1635 C1640 0.949 . S
H1636 C1642 0.950 . S
H1637 C1643 0.950 . S
H1638 C1644 0.949 . S
C1639 H1634 0.950 . S
C1639 C1641 1.327 . S
C1639 C1645 1.429 . S
C1640 C1632 1.574 . S
C1640 H1635 0.949 . S
C1640 C1646 1.368 . S
C1641 C1625 1.349 . S
C1641 H1633 0.950 . S
C1641 C1639 1.327 . S
C1642 C1630 1.349 . S
C1642 H1636 0.950 . S
C1642 C1643 1.327 1_556 S
C1643 H1637 0.950 . S
C1643 C1642 1.327 1_554 S
C1643 C1647 1.429 . S
C1644 C1627 1.574 . S
C1644 H1638 0.949 . S
C1644 C1648 1.368 . S
C1645 C1626 1.429 . S
C1645 C1639 1.429 . S
C1645 C1646 1.523 . S
C1646 C1627 1.368 . S
C1646 C1640 1.368 . S
C1646 C1645 1.523 . S
C1647 C1631 1.429 . S
C1647 C1643 1.429 . S
C1647 C1648 1.523 . S
C1648 C1632 1.368 . S
C1648 C1644 1.368 . S
C1648 C1647 1.523 . S
H1649 C1624 0.950 . S
H1650 C1626 0.950 . S
H1651 C1627 0.949 . S
H1652 C1629 0.950 . S
H1653 C1631 0.950 . S
C1654 C1655 1.349 . S
C1654 C1656 1.327 . S
C1654 H1679 0.950 . S
C1655 C1654 1.349 . S
C1655 C1671 1.349 . S
C1656 C1654 1.327 . S
C1656 C1675 1.429 . S
C1656 H1680 0.950 . S
C1657 C1674 1.574 . S
C1657 C1676 1.368 . S
C1657 H1681 0.949 . S
H1658 C1662 0.949 . S
C1659 C1660 1.349 . S
C1659 C1661 1.327 . S
C1659 H1682 0.950 . S
C1660 C1659 1.349 . S
C1660 C1672 1.349 . S
C1661 C1659 1.327 . S
C1661 C1677 1.429 . S
C1661 H1683 0.950 . S
C1662 H1658 0.949 . S
C1662 C1670 1.574 . S
C1662 C1678 1.368 . S
H1663 C1671 0.950 . S
H1664 C1669 0.950 . S
H1665 C1670 0.949 . S
H1666 C1672 0.950 . S
H1667 C1673 0.950 . S
H1668 C1674 0.949 . S
C1669 H1664 0.950 . S
C1669 C1671 1.327 . S
C1669 C1675 1.429 . S
C1670 C1662 1.574 . S
C1670 H1665 0.949 . S
C1670 C1676 1.368 . S
C1671 C1655 1.349 . S
C1671 H1663 0.950 . S
C1671 C1669 1.327 . S
C1672 C1660 1.349 . S
C1672 H1666 0.950 . S
C1672 C1673 1.327 . S
C1673 H1667 0.950 . S
C1673 C1672 1.327 . S
C1673 C1677 1.429 . S
C1674 C1657 1.574 . S
C1674 H1668 0.949 . S
C1674 C1678 1.368 . S
C1675 C1656 1.429 . S
C1675 C1669 1.429 . S
C1675 C1676 1.523 . S
C1676 C1657 1.368 . S
C1676 C1670 1.368 . S
C1676 C1675 1.523 . S
C1677 C1661 1.429 . S
C1677 C1673 1.429 . S
C1677 C1678 1.523 . S
C1678 C1662 1.368 . S
C1678 C1674 1.368 . S
C1678 C1677 1.523 . S
H1679 C1654 0.950 . S
H1680 C1656 0.950 . S
H1681 C1657 0.949 . S
H1682 C1659 0.950 . S
H1683 C1661 0.950 . S
C1684 C1685 1.349 . S
C1684 C1686 1.327 . S
C1684 H1709 0.950 . S
C1685 C1684 1.349 . S
C1685 C1701 1.349 . S
C1686 C1684 1.327 . S
C1686 C1705 1.429 . S
C1686 H1710 0.950 . S
C1687 C1704 1.574 . S
C1687 C1706 1.368 . S
C1687 H1711 0.949 . S
H1688 C1692 0.949 . S
C1689 C1690 1.349 . S
C1689 C1691 1.327 1_554 S
C1689 H1712 0.950 . S
C1690 C1689 1.349 . S
C1690 C1702 1.349 . S
C1691 C1689 1.327 1_556 S
C1691 C1707 1.429 . S
C1691 H1713 0.950 . S
C1692 H1688 0.949 . S
C1692 C1700 1.574 . S
C1692 C1708 1.368 . S
H1693 C1701 0.950 . S
H1694 C1699 0.950 . S
H1695 C1700 0.949 . S
H1696 C1702 0.950 . S
H1697 C1703 0.950 . S
H1698 C1704 0.949 . S
C1699 H1694 0.950 . S
C1699 C1701 1.327 . S
C1699 C1705 1.429 . S
C1700 C1692 1.574 . S
C1700 H1695 0.949 . S
C1700 C1706 1.368 . S
C1701 C1685 1.349 . S
C1701 H1693 0.950 . S
C1701 C1699 1.327 . S
C1702 C1690 1.349 . S
C1702 H1696 0.950 . S
C1702 C1703 1.327 1_554 S
C1703 H1697 0.950 . S
C1703 C1702 1.327 1_556 S
C1703 C1707 1.429 . S
C1704 C1687 1.574 . S
C1704 H1698 0.949 . S
C1704 C1708 1.368 . S
C1705 C1686 1.429 . S
C1705 C1699 1.429 . S
C1705 C1706 1.523 . S
C1706 C1687 1.368 . S
C1706 C1700 1.368 . S
C1706 C1705 1.523 . S
C1707 C1691 1.429 . S
C1707 C1703 1.429 . S
C1707 C1708 1.523 . S
C1708 C1692 1.368 . S
C1708 C1704 1.368 . S
C1708 C1707 1.523 . S
H1709 C1684 0.950 . S
H1710 C1686 0.950 . S
H1711 C1687 0.949 . S
H1712 C1689 0.950 . S
H1713 C1691 0.950 . S
C1714 C1715 1.349 . S
C1714 C1716 1.327 . S
C1714 H1739 0.950 . S
C1715 C1714 1.349 . S
C1715 C1731 1.349 . S
C1716 C1714 1.327 . S
C1716 C1735 1.429 . S
C1716 H1740 0.950 . S
C1717 C1734 1.574 . S
C1717 C1736 1.368 . S
C1717 H1741 0.949 . S
H1718 C1722 0.949 . S
C1719 C1720 1.349 . S
C1719 C1721 1.327 . S
C1719 H1742 0.950 . S
C1720 C1719 1.349 . S
C1720 C1732 1.349 . S
C1721 C1719 1.327 . S
C1721 C1737 1.429 . S
C1721 H1743 0.950 . S
C1722 H1718 0.949 . S
C1722 C1730 1.574 . S
C1722 C1738 1.368 . S
H1723 C1731 0.950 . S
H1724 C1729 0.950 . S
H1725 C1730 0.949 . S
H1726 C1732 0.950 . S
H1727 C1733 0.950 . S
H1728 C1734 0.949 . S
C1729 H1724 0.950 . S
C1729 C1731 1.327 . S
C1729 C1735 1.429 . S
C1730 C1722 1.574 . S
C1730 H1725 0.949 . S
C1730 C1736 1.368 . S
C1731 C1715 1.349 . S
C1731 H1723 0.950 . S
C1731 C1729 1.327 . S
C1732 C1720 1.349 . S
C1732 H1726 0.950 . S
C1732 C1733 1.327 . S
C1733 H1727 0.950 . S
C1733 C1732 1.327 . S
C1733 C1737 1.429 . S
C1734 C1717 1.574 . S
C1734 H1728 0.949 . S
C1734 C1738 1.368 . S
C1735 C1716 1.429 . S
C1735 C1729 1.429 . S
C1735 C1736 1.523 . S
C1736 C1717 1.368 . S
C1736 C1730 1.368 . S
C1736 C1735 1.523 . S
C1737 C1721 1.429 . S
C1737 C1733 1.429 . S
C1737 C1738 1.523 . S
C1738 C1722 1.368 . S
C1738 C1734 1.368 . S
C1738 C1737 1.523 . S
H1739 C1714 0.950 . S
H1740 C1716 0.950 . S
H1741 C1717 0.949 . S
H1742 C1719 0.950 . S
H1743 C1721 0.950 . S
C545 C271 1.127 . S
C550 C33 1.127 . S
C575 C67 1.127 . S
C580 C169 1.127 . S
C605 C101 1.127 . S
C610 C203 1.127 . S
C635 C237 1.127 . S
C640 C135 1.127 . S
C665 C376 1.697 . S
C670 C138 1.697 1_655 S
C695 C274 1.697 . S
C700 C2 1.697 1_655 S
C725 C206 1.697 . S
C730 C342 1.697 . S
C755 C70 1.697 . S
C760 C308 1.697 . S
C785 C339 1.127 . S
C790 C441 1.127 . S
C815 C509 1.127 . S
C820 C373 1.127 . S
C845 C475 1.127 . S
C850 C305 1.127 . S
C875 C407 1.127 . S
C880 C543 1.127 . S
C905 C104 1.697 . S
C910 C478 1.697 . S
C935 C172 1.697 . S
C940 C410 1.697 . S
C965 C36 1.697 . S
C970 C512 1.697 . S
C995 C240 1.697 . S
C1000 C444 1.697 . S
C1025 C20 1.587 . S
C1030 C156 1.587 . S
C1055 C190 1.588 . S
C1060 C54 1.588 . S
C1085 C224 1.587 . S
C1090 C88 1.587 . S
C1115 C122 1.588 . S
C1120 C258 1.588 . S
C1145 C360 1.588 . S
C1150 C292 1.588 . S
C1175 C326 1.588 . S
C1180 C394 1.588 . S
C1205 C428 1.587 . S
C1210 C496 1.587 . S
C1235 C530 1.587 . S
C1240 C462 1.587 . S
C1265 C9 0.631 . S
C1270 C5 0.593 . S
C1295 C43 0.631 . S
C1300 C39 0.593 . S
C1325 C73 0.593 . S
C1330 C77 0.631 . S
C1355 C107 0.593 . S
C1360 C111 0.631 . S
C1385 C141 0.593 . S
C1390 C145 0.631 . S
C1415 C175 0.593 . S
C1420 C179 0.631 . S
C1445 C213 0.631 . S
C1450 C209 0.593 . S
C1475 C247 0.631 . S
C1480 C243 0.593 . S
C1505 C277 0.593 . S
C1510 C281 0.631 . S
C1535 C311 0.593 . S
C1540 C315 0.631 . S
C1565 C349 0.631 . S
C1570 C345 0.593 . S
C1595 C383 0.631 . S
C1600 C379 0.593 . S
C1625 C417 0.631 . S
C1630 C413 0.593 . S
C1655 C451 0.631 . S
C1660 C447 0.593 . S
C1685 C485 0.631 . S
C1690 C481 0.593 . S
C1715 C515 0.593 . S
C1720 C519 0.631 . S
