# Generated by pormake.
# Topology lcv-a, (4)-cn, num edge types: 1
# Building blocks:
#     Node 0, Type 0, BuildingBlock: CEKHIL_clean_sbu_0, # of connection points: 4
#     Node 1, Type 0, BuildingBlock: CEKHIL_clean_sbu_0, # of connection points: 4
#     Node 2, Type 0, BuildingBlock: CEKHIL_clean_sbu_0, # of connection points: 4
#     Node 3, Type 0, BuildingBlock: CEKHIL_clean_sbu_0, # of connection points: 4
#     Node 4, Type 0, BuildingBlock: CEKHIL_clean_sbu_0, # of connection points: 4
#     Node 5, Type 0, BuildingBlock: CEKHIL_clean_sbu_0, # of connection points: 4
#     Node 6, Type 0, BuildingBlock: CEKHIL_clean_sbu_0, # of connection points: 4
#     Node 7, Type 0, BuildingBlock: CEKHIL_clean_sbu_0, # of connection points: 4
#     Node 8, Type 0, BuildingBlock: CEKHIL_clean_sbu_0, # of connection points: 4
#     Node 9, Type 0, BuildingBlock: CEKHIL_clean_sbu_0, # of connection points: 4
#     Node 10, Type 0, BuildingBlock: CEKHIL_clean_sbu_0, # of connection points: 4
#     Node 11, Type 0, BuildingBlock: CEKHIL_clean_sbu_0, # of connection points: 4
#     Node 12, Type 0, BuildingBlock: CEKHIL_clean_sbu_0, # of connection points: 4
#     Node 13, Type 0, BuildingBlock: CEKHIL_clean_sbu_0, # of connection points: 4
#     Node 14, Type 0, BuildingBlock: CEKHIL_clean_sbu_0, # of connection points: 4
#     Node 15, Type 0, BuildingBlock: CEKHIL_clean_sbu_0, # of connection points: 4
#     Node 16, Type 0, BuildingBlock: CEKHIL_clean_sbu_0, # of connection points: 4
#     Node 17, Type 0, BuildingBlock: CEKHIL_clean_sbu_0, # of connection points: 4
#     Node 18, Type 0, BuildingBlock: CEKHIL_clean_sbu_0, # of connection points: 4
#     Node 19, Type 0, BuildingBlock: CEKHIL_clean_sbu_0, # of connection points: 4
#     Node 20, Type 0, BuildingBlock: CEKHIL_clean_sbu_0, # of connection points: 4
#     Node 21, Type 0, BuildingBlock: CEKHIL_clean_sbu_0, # of connection points: 4
#     Node 22, Type 0, BuildingBlock: CEKHIL_clean_sbu_0, # of connection points: 4
#     Node 23, Type 0, BuildingBlock: CEKHIL_clean_sbu_0, # of connection points: 4
#     Node 24, Type 0, BuildingBlock: CEKHIL_clean_sbu_0, # of connection points: 4
#     Node 25, Type 0, BuildingBlock: CEKHIL_clean_sbu_0, # of connection points: 4
#     Node 26, Type 0, BuildingBlock: CEKHIL_clean_sbu_0, # of connection points: 4
#     Node 27, Type 0, BuildingBlock: CEKHIL_clean_sbu_0, # of connection points: 4
#     Node 28, Type 0, BuildingBlock: CEKHIL_clean_sbu_0, # of connection points: 4
#     Node 29, Type 0, BuildingBlock: CEKHIL_clean_sbu_0, # of connection points: 4
#     Node 30, Type 0, BuildingBlock: CEKHIL_clean_sbu_0, # of connection points: 4
#     Node 31, Type 0, BuildingBlock: CEKHIL_clean_sbu_0, # of connection points: 4
#     Node 32, Type 0, BuildingBlock: CEKHIL_clean_sbu_0, # of connection points: 4
#     Node 33, Type 0, BuildingBlock: CEKHIL_clean_sbu_0, # of connection points: 4
#     Node 34, Type 0, BuildingBlock: CEKHIL_clean_sbu_0, # of connection points: 4
#     Node 35, Type 0, BuildingBlock: CEKHIL_clean_sbu_0, # of connection points: 4
#     Node 36, Type 0, BuildingBlock: CEKHIL_clean_sbu_0, # of connection points: 4
#     Node 37, Type 0, BuildingBlock: CEKHIL_clean_sbu_0, # of connection points: 4
#     Node 38, Type 0, BuildingBlock: CEKHIL_clean_sbu_0, # of connection points: 4
#     Node 39, Type 0, BuildingBlock: CEKHIL_clean_sbu_0, # of connection points: 4
#     Node 40, Type 0, BuildingBlock: CEKHIL_clean_sbu_0, # of connection points: 4
#     Node 41, Type 0, BuildingBlock: CEKHIL_clean_sbu_0, # of connection points: 4
#     Node 42, Type 0, BuildingBlock: CEKHIL_clean_sbu_0, # of connection points: 4
#     Node 43, Type 0, BuildingBlock: CEKHIL_clean_sbu_0, # of connection points: 4
#     Node 44, Type 0, BuildingBlock: CEKHIL_clean_sbu_0, # of connection points: 4
#     Node 45, Type 0, BuildingBlock: CEKHIL_clean_sbu_0, # of connection points: 4
#     Node 46, Type 0, BuildingBlock: CEKHIL_clean_sbu_0, # of connection points: 4
#     Node 47, Type 0, BuildingBlock: CEKHIL_clean_sbu_0, # of connection points: 4
#     Edge 48, Type (0, 0), BuildingBlock: XIVTED_clean_linker_0, # of connection points: 2
#     Edge 49, Type (0, 0), BuildingBlock: XIVTED_clean_linker_0, # of connection points: 2
#     Edge 50, Type (0, 0), BuildingBlock: XIVTED_clean_linker_0, # of connection points: 2
#     Edge 51, Type (0, 0), BuildingBlock: XIVTED_clean_linker_0, # of connection points: 2
#     Edge 52, Type (0, 0), BuildingBlock: XIVTED_clean_linker_0, # of connection points: 2
#     Edge 53, Type (0, 0), BuildingBlock: XIVTED_clean_linker_0, # of connection points: 2
#     Edge 54, Type (0, 0), BuildingBlock: XIVTED_clean_linker_0, # of connection points: 2
#     Edge 55, Type (0, 0), BuildingBlock: XIVTED_clean_linker_0, # of connection points: 2
#     Edge 56, Type (0, 0), BuildingBlock: XIVTED_clean_linker_0, # of connection points: 2
#     Edge 57, Type (0, 0), BuildingBlock: XIVTED_clean_linker_0, # of connection points: 2
#     Edge 58, Type (0, 0), BuildingBlock: XIVTED_clean_linker_0, # of connection points: 2
#     Edge 59, Type (0, 0), BuildingBlock: XIVTED_clean_linker_0, # of connection points: 2
#     Edge 60, Type (0, 0), BuildingBlock: XIVTED_clean_linker_0, # of connection points: 2
#     Edge 61, Type (0, 0), BuildingBlock: XIVTED_clean_linker_0, # of connection points: 2
#     Edge 62, Type (0, 0), BuildingBlock: XIVTED_clean_linker_0, # of connection points: 2
#     Edge 63, Type (0, 0), BuildingBlock: XIVTED_clean_linker_0, # of connection points: 2
#     Edge 64, Type (0, 0), BuildingBlock: XIVTED_clean_linker_0, # of connection points: 2
#     Edge 65, Type (0, 0), BuildingBlock: XIVTED_clean_linker_0, # of connection points: 2
#     Edge 66, Type (0, 0), BuildingBlock: XIVTED_clean_linker_0, # of connection points: 2
#     Edge 67, Type (0, 0), BuildingBlock: XIVTED_clean_linker_0, # of connection points: 2
#     Edge 68, Type (0, 0), BuildingBlock: XIVTED_clean_linker_0, # of connection points: 2
#     Edge 69, Type (0, 0), BuildingBlock: XIVTED_clean_linker_0, # of connection points: 2
#     Edge 70, Type (0, 0), BuildingBlock: XIVTED_clean_linker_0, # of connection points: 2
#     Edge 71, Type (0, 0), BuildingBlock: XIVTED_clean_linker_0, # of connection points: 2
#     Edge 72, Type (0, 0), BuildingBlock: XIVTED_clean_linker_0, # of connection points: 2
#     Edge 73, Type (0, 0), BuildingBlock: XIVTED_clean_linker_0, # of connection points: 2
#     Edge 74, Type (0, 0), BuildingBlock: XIVTED_clean_linker_0, # of connection points: 2
#     Edge 75, Type (0, 0), BuildingBlock: XIVTED_clean_linker_0, # of connection points: 2
#     Edge 76, Type (0, 0), BuildingBlock: XIVTED_clean_linker_0, # of connection points: 2
#     Edge 77, Type (0, 0), BuildingBlock: XIVTED_clean_linker_0, # of connection points: 2
#     Edge 78, Type (0, 0), BuildingBlock: XIVTED_clean_linker_0, # of connection points: 2
#     Edge 79, Type (0, 0), BuildingBlock: XIVTED_clean_linker_0, # of connection points: 2
#     Edge 80, Type (0, 0), BuildingBlock: XIVTED_clean_linker_0, # of connection points: 2
#     Edge 81, Type (0, 0), BuildingBlock: XIVTED_clean_linker_0, # of connection points: 2
#     Edge 82, Type (0, 0), BuildingBlock: XIVTED_clean_linker_0, # of connection points: 2
#     Edge 83, Type (0, 0), BuildingBlock: XIVTED_clean_linker_0, # of connection points: 2
#     Edge 84, Type (0, 0), BuildingBlock: XIVTED_clean_linker_0, # of connection points: 2
#     Edge 85, Type (0, 0), BuildingBlock: XIVTED_clean_linker_0, # of connection points: 2
#     Edge 86, Type (0, 0), BuildingBlock: XIVTED_clean_linker_0, # of connection points: 2
#     Edge 87, Type (0, 0), BuildingBlock: XIVTED_clean_linker_0, # of connection points: 2
#     Edge 88, Type (0, 0), BuildingBlock: XIVTED_clean_linker_0, # of connection points: 2
#     Edge 89, Type (0, 0), BuildingBlock: XIVTED_clean_linker_0, # of connection points: 2
#     Edge 90, Type (0, 0), BuildingBlock: XIVTED_clean_linker_0, # of connection points: 2
#     Edge 91, Type (0, 0), BuildingBlock: XIVTED_clean_linker_0, # of connection points: 2
#     Edge 92, Type (0, 0), BuildingBlock: XIVTED_clean_linker_0, # of connection points: 2
#     Edge 93, Type (0, 0), BuildingBlock: XIVTED_clean_linker_0, # of connection points: 2
#     Edge 94, Type (0, 0), BuildingBlock: XIVTED_clean_linker_0, # of connection points: 2
#     Edge 95, Type (0, 0), BuildingBlock: XIVTED_clean_linker_0, # of connection points: 2
#     Edge 96, Type (0, 0), BuildingBlock: XIVTED_clean_linker_0, # of connection points: 2
#     Edge 97, Type (0, 0), BuildingBlock: XIVTED_clean_linker_0, # of connection points: 2
#     Edge 98, Type (0, 0), BuildingBlock: XIVTED_clean_linker_0, # of connection points: 2
#     Edge 99, Type (0, 0), BuildingBlock: XIVTED_clean_linker_0, # of connection points: 2
#     Edge 100, Type (0, 0), BuildingBlock: XIVTED_clean_linker_0, # of connection points: 2
#     Edge 101, Type (0, 0), BuildingBlock: XIVTED_clean_linker_0, # of connection points: 2
#     Edge 102, Type (0, 0), BuildingBlock: XIVTED_clean_linker_0, # of connection points: 2
#     Edge 103, Type (0, 0), BuildingBlock: XIVTED_clean_linker_0, # of connection points: 2
#     Edge 104, Type (0, 0), BuildingBlock: XIVTED_clean_linker_0, # of connection points: 2
#     Edge 105, Type (0, 0), BuildingBlock: XIVTED_clean_linker_0, # of connection points: 2
#     Edge 106, Type (0, 0), BuildingBlock: XIVTED_clean_linker_0, # of connection points: 2
#     Edge 107, Type (0, 0), BuildingBlock: XIVTED_clean_linker_0, # of connection points: 2
#     Edge 108, Type (0, 0), BuildingBlock: XIVTED_clean_linker_0, # of connection points: 2
#     Edge 109, Type (0, 0), BuildingBlock: XIVTED_clean_linker_0, # of connection points: 2
#     Edge 110, Type (0, 0), BuildingBlock: XIVTED_clean_linker_0, # of connection points: 2
#     Edge 111, Type (0, 0), BuildingBlock: XIVTED_clean_linker_0, # of connection points: 2
#     Edge 112, Type (0, 0), BuildingBlock: XIVTED_clean_linker_0, # of connection points: 2
#     Edge 113, Type (0, 0), BuildingBlock: XIVTED_clean_linker_0, # of connection points: 2
#     Edge 114, Type (0, 0), BuildingBlock: XIVTED_clean_linker_0, # of connection points: 2
#     Edge 115, Type (0, 0), BuildingBlock: XIVTED_clean_linker_0, # of connection points: 2
#     Edge 116, Type (0, 0), BuildingBlock: XIVTED_clean_linker_0, # of connection points: 2
#     Edge 117, Type (0, 0), BuildingBlock: XIVTED_clean_linker_0, # of connection points: 2
#     Edge 118, Type (0, 0), BuildingBlock: XIVTED_clean_linker_0, # of connection points: 2
#     Edge 119, Type (0, 0), BuildingBlock: XIVTED_clean_linker_0, # of connection points: 2
#     Edge 120, Type (0, 0), BuildingBlock: XIVTED_clean_linker_0, # of connection points: 2
#     Edge 121, Type (0, 0), BuildingBlock: XIVTED_clean_linker_0, # of connection points: 2
#     Edge 122, Type (0, 0), BuildingBlock: XIVTED_clean_linker_0, # of connection points: 2
#     Edge 123, Type (0, 0), BuildingBlock: XIVTED_clean_linker_0, # of connection points: 2
#     Edge 124, Type (0, 0), BuildingBlock: XIVTED_clean_linker_0, # of connection points: 2
#     Edge 125, Type (0, 0), BuildingBlock: XIVTED_clean_linker_0, # of connection points: 2
#     Edge 126, Type (0, 0), BuildingBlock: XIVTED_clean_linker_0, # of connection points: 2
#     Edge 127, Type (0, 0), BuildingBlock: XIVTED_clean_linker_0, # of connection points: 2
#     Edge 128, Type (0, 0), BuildingBlock: XIVTED_clean_linker_0, # of connection points: 2
#     Edge 129, Type (0, 0), BuildingBlock: XIVTED_clean_linker_0, # of connection points: 2
#     Edge 130, Type (0, 0), BuildingBlock: XIVTED_clean_linker_0, # of connection points: 2
#     Edge 131, Type (0, 0), BuildingBlock: XIVTED_clean_linker_0, # of connection points: 2
#     Edge 132, Type (0, 0), BuildingBlock: XIVTED_clean_linker_0, # of connection points: 2
#     Edge 133, Type (0, 0), BuildingBlock: XIVTED_clean_linker_0, # of connection points: 2
#     Edge 134, Type (0, 0), BuildingBlock: XIVTED_clean_linker_0, # of connection points: 2
#     Edge 135, Type (0, 0), BuildingBlock: XIVTED_clean_linker_0, # of connection points: 2
#     Edge 136, Type (0, 0), BuildingBlock: XIVTED_clean_linker_0, # of connection points: 2
#     Edge 137, Type (0, 0), BuildingBlock: XIVTED_clean_linker_0, # of connection points: 2
#     Edge 138, Type (0, 0), BuildingBlock: XIVTED_clean_linker_0, # of connection points: 2
#     Edge 139, Type (0, 0), BuildingBlock: XIVTED_clean_linker_0, # of connection points: 2
#     Edge 140, Type (0, 0), BuildingBlock: XIVTED_clean_linker_0, # of connection points: 2
#     Edge 141, Type (0, 0), BuildingBlock: XIVTED_clean_linker_0, # of connection points: 2
#     Edge 142, Type (0, 0), BuildingBlock: XIVTED_clean_linker_0, # of connection points: 2
#     Edge 143, Type (0, 0), BuildingBlock: XIVTED_clean_linker_0, # of connection points: 2
# Relax obj value: 0.869
# Max RMSD: 0.535
# Mean RMSD: 0.408
data_MOF--net-lcv-a--node1-CEKHIL_clean_sbu_0--edge1-XIVTED_clean_linker_0
_symmetry_space_group_name_H-M    P1
_symmetry_Int_Tables_number       1
_symmetry_cell_setting            triclinic
loop_
_symmetry_equiv_pos_as_xyz
'x, y, z'
_cell_length_a     85.211716
_cell_length_b     85.207569
_cell_length_c     85.216617
_cell_angle_alpha  90.019075
_cell_angle_beta   89.963098
_cell_angle_gamma 89.998159
loop_
_atom_site_label
_atom_site_type_symbol
_atom_site_fract_x
_atom_site_fract_y
_atom_site_fract_z
_atom_type_partial_charge
Co0 Co 0.01796 0.40426 0.25488 0.0
O1 O 0.00607 0.41752 0.26849 0.0
O2 O 0.01764 0.42552 0.24663 0.0
C3 C 0.03163 0.39238 0.27393 0.0
O4 O 0.03165 0.39322 0.23828 0.0
Co5 Co 0.01263 0.36829 0.25821 0.0
O6 O 0.02962 0.36708 0.24226 0.0
C7 C 0.98878 0.38754 0.24257 0.0
C8 C 0.00898 0.42885 0.25882 0.0
C9 C 0.03537 0.37886 0.23503 0.0
O10 O 0.9984 0.39916 0.24269 0.0
O11 O 0.99158 0.3746 0.24969 0.0
O12 O 0.03625 0.4059 0.26859 0.0
O13 O 0.01827 0.38751 0.26878 0.0
Co14 Co 0.95496 0.8149 0.45174 0.0
O15 O 0.93579 0.81928 0.4625 0.0
O16 O 0.94092 0.82612 0.43788 0.0
C17 C 0.97103 0.82129 0.47158 0.0
O18 O 0.97391 0.81281 0.43703 0.0
Co19 Co 0.97653 0.78833 0.46415 0.0
O20 O 0.99149 0.79665 0.44825 0.0
C21 C 0.94758 0.78007 0.44755 0.0
C22 C 0.93101 0.82554 0.4495 0.0
C23 C 0.98749 0.80612 0.43736 0.0
O24 O 0.94591 0.7946 0.44384 0.0
O25 O 0.95837 0.77521 0.45679 0.0
O26 O 0.96551 0.83227 0.46249 0.0
O27 O 0.96542 0.80745 0.46928 0.0
Co28 Co 0.54809 0.73008 0.76525 0.0
O29 O 0.5505 0.708 0.76969 0.0
O30 O 0.56078 0.7205 0.74928 0.0
C31 C 0.52229 0.73235 0.76931 0.0
O32 O 0.5482 0.75239 0.75665 0.0
Co33 Co 0.53979 0.7535 0.79132 0.0
O34 O 0.5379 0.76923 0.77414 0.0
C35 C 0.57144 0.74081 0.79035 0.0
C36 C 0.55934 0.70759 0.75725 0.0
C37 C 0.5435 0.76621 0.76062 0.0
O38 O 0.56746 0.73425 0.77748 0.0
O39 O 0.56198 0.74895 0.79869 0.0
O40 O 0.52766 0.72675 0.75618 0.0
O41 O 0.53258 0.73448 0.7804 0.0
Co42 Co 0.59558 0.28297 0.95069 0.0
O43 O 0.61483 0.28341 0.96266 0.0
O44 O 0.61014 0.29688 0.94086 0.0
C45 C 0.59097 0.25741 0.95009 0.0
O46 O 0.57797 0.28564 0.9342 0.0
Co47 Co 0.56437 0.27638 0.9641 0.0
O48 O 0.55603 0.27414 0.94273 0.0
C49 C 0.57553 0.30787 0.96125 0.0
C50 C 0.61946 0.29387 0.9525 0.0
C51 C 0.56382 0.28073 0.9319 0.0
O52 O 0.58789 0.30031 0.96435 0.0
O53 O 0.56269 0.30021 0.96095 0.0
O54 O 0.60119 0.26374 0.9406 0.0
O55 O 0.58535 0.26634 0.96125 0.0
Co56 Co 0.98543 0.72005 0.34243 0.0
O57 O 0.97309 0.70651 0.32933 0.0
O58 O 0.98602 0.69893 0.35059 0.0
C59 C 0.99825 0.73203 0.32278 0.0
O60 O -0.00026 0.73079 0.35859 0.0
Co61 Co 0.98163 0.75622 0.34012 0.0
O62 O 0.00138 0.75648 0.35259 0.0
C63 C 0.95778 0.73731 0.35682 0.0
C64 C 0.97716 0.69525 0.3387 0.0
C65 C 0.00581 0.74455 0.36045 0.0
O66 O 0.96648 0.72506 0.35552 0.0
O67 O 0.96111 0.75046 0.3503 0.0
O68 O 0.00305 0.71851 0.32791 0.0
O69 O 0.9852 0.73703 0.32863 0.0
Co70 Co 0.6023 0.73252 0.68029 0.0
O71 O 0.62132 0.72716 0.66994 0.0
O72 O 0.61627 0.75065 0.6799 0.0
C73 C 0.58627 0.72274 0.66186 0.0
O74 O 0.58272 0.74143 0.69118 0.0
Co75 Co 0.5834 0.7039 0.69204 0.0
O76 O 0.56806 0.72032 0.69787 0.0
C77 C 0.60966 0.71498 0.71108 0.0
C78 C 0.62564 0.74156 0.6719 0.0
C79 C 0.57019 0.73511 0.69701 0.0
O80 O 0.61128 0.72618 0.70117 0.0
O81 O 0.59988 0.70376 0.70902 0.0
O82 O 0.5926 0.73644 0.66036 0.0
O83 O 0.59153 0.71432 0.67345 0.0
Co84 Co 0.62233 0.34388 0.83696 0.0
O85 O 0.63672 0.36107 0.83534 0.0
O86 O 0.61196 0.36321 0.84296 0.0
C87 C 0.62716 0.3328 0.81336 0.0
O88 O 0.60422 0.32805 0.83975 0.0
Co89 Co 0.63647 0.31043 0.83859 0.0
O90 O 0.61445 0.3039 0.83595 0.0
C91 C 0.63005 0.32804 0.86777 0.0
C92 C 0.62529 0.37003 0.83985 0.0
C93 C 0.60285 0.31301 0.83813 0.0
O94 O 0.6281 0.34046 0.85952 0.0
O95 O 0.6337 0.31478 0.86172 0.0
O96 O 0.6183 0.34508 0.81471 0.0
O97 O 0.63502 0.32928 0.82596 0.0
Co98 Co 0.98977 0.32145 0.13781 0.0
O99 O 0.97432 0.32162 0.12175 0.0
O100 O 0.97246 0.30768 0.14366 0.0
C101 C 0.01011 0.31933 0.12123 0.0
O102 O 0.00446 0.31839 0.15669 0.0
Co103 Co 0.01368 0.3491 0.13812 0.0
O104 O 0.02349 0.33681 0.15532 0.0
C105 C 0.98142 0.35432 0.14914 0.0
C106 C 0.96635 0.31195 0.1303 0.0
C107 C 0.01725 0.3248 0.16172 0.0
O108 O 0.97898 0.33944 0.14862 0.0
O109 O 0.99398 0.36071 0.14389 0.0
O110 O 0.00253 0.3068 0.12556 0.0
O111 O 0.00432 0.33245 0.12598 0.0
Co112 Co 0.24167 0.01326 0.38224 0.0
O113 O 0.25336 -0.00023 0.39597 0.0
O114 O 0.2282 0.00603 0.39879 0.0
C115 C 0.25934 0.03252 0.3799 0.0
O116 O 0.22571 0.02702 0.37089 0.0
Co117 Co 0.25299 0.02013 0.34851 0.0
O118 O 0.23656 0.0368 0.34894 0.0
C119 C 0.23913 0.98942 0.3556 0.0
C120 C 0.2403 0.99812 0.40368 0.0
C121 C 0.22549 0.03634 0.359 0.0
O122 O 0.23573 0.99459 0.36933 0.0
O123 O 0.2468 0.99748 0.34549 0.0
O124 O 0.25024 0.03197 0.39215 0.0
O125 O 0.25871 0.02052 0.37062 0.0
Co126 Co 0.36359 0.91172 0.59744 0.0
O127 O 0.37129 0.92306 0.61497 0.0
O128 O 0.35005 0.90806 0.6155 0.0
C129 C 0.36458 0.93195 0.58084 0.0
O130 O 0.35224 0.89903 0.58044 0.0
Co131 Co 0.38682 0.90629 0.57056 0.0
O132 O 0.36847 0.89735 0.55955 0.0
C133 C 0.38876 0.88595 0.59813 0.0
C134 C 0.35926 0.91796 0.62267 0.0
C135 C 0.35532 0.89486 0.56618 0.0
O136 O 0.37665 0.8931 0.60342 0.0
O137 O 0.39557 0.89002 0.58536 0.0
O138 O 0.35287 0.93001 0.59027 0.0
O139 O 0.37653 0.92264 0.58285 0.0
Co140 Co 0.32707 0.07581 0.85222 0.0
O141 O 0.31109 0.08902 0.86116 0.0
O142 O 0.33296 0.08153 0.87322 0.0
C143 C 0.31099 0.05753 0.84236 0.0
O144 O 0.34606 0.06195 0.84692 0.0
Co145 Co 0.32898 0.07052 0.81635 0.0
O146 O 0.34375 0.05333 0.82208 0.0
C147 C 0.33983 0.10051 0.82973 0.0
C148 C 0.31983 0.08932 0.87362 0.0
C149 C 0.35046 0.05308 0.83545 0.0
O150 O 0.33789 0.09486 0.84358 0.0
O151 O 0.33606 0.09305 0.81723 0.0
O152 O 0.31497 0.05706 0.85707 0.0
O153 O 0.31551 0.06979 0.83466 0.0
Co154 Co 0.32003 0.1468 0.13448 0.0
O155 O 0.30948 0.1329 0.14845 0.0
O156 O 0.32681 0.15086 0.15585 0.0
C157 C 0.32579 0.12845 0.11655 0.0
O158 O 0.33334 0.16293 0.12264 0.0
Co159 Co 0.30601 0.15194 0.10128 0.0
O160 O 0.32722 0.1607 0.09704 0.0
C161 C 0.29298 0.16955 0.12806 0.0
C162 C 0.31701 0.13976 0.15971 0.0
C163 C 0.3358 0.16609 0.10803 0.0
O164 O 0.30304 0.16289 0.13709 0.0
O165 O 0.29169 0.1663 0.11343 0.0
O166 O 0.33486 0.13028 0.12867 0.0
O167 O 0.31305 0.13666 0.1165 0.0
Co168 Co 0.24805 0.11829 0.2829 0.0
O169 O 0.26377 0.13112 0.2731 0.0
O170 O 0.24983 0.11275 0.26104 0.0
C171 C 0.26227 0.11186 0.30416 0.0
O172 O 0.23112 0.10247 0.28941 0.0
Co173 Co 0.23425 0.12891 0.315 0.0
O174 O 0.22191 0.10921 0.3133 0.0
C175 C 0.2236 0.14426 0.28601 0.0
C176 C 0.26085 0.12331 0.26036 0.0
C177 C 0.22197 0.10027 0.30129 0.0
O178 O 0.23129 0.13414 0.27787 0.0
O179 O 0.22471 0.14526 0.30096 0.0
O180 O 0.26423 0.10444 0.291 0.0
O181 O 0.25315 0.12396 0.30355 0.0
Co182 Co 0.25557 0.94004 0.52844 0.0
O183 O 0.24746 0.95514 0.51405 0.0
O184 O 0.25079 0.92981 0.50874 0.0
C185 C 0.27628 0.95408 0.53625 0.0
O186 O 0.26394 0.92113 0.54074 0.0
Co187 Co 0.25425 0.94732 0.56334 0.0
O188 O 0.26805 0.92891 0.56561 0.0
C189 C 0.22631 0.93445 0.54852 0.0
C190 C 0.24631 0.94367 0.50412 0.0
C191 C 0.26909 0.91871 0.55477 0.0
O192 O 0.23389 0.9355 0.53565 0.0
O193 O 0.23226 0.93831 0.56174 0.0
O194 O 0.27655 0.94597 0.52341 0.0
O195 O 0.26273 0.9551 0.54337 0.0
Co196 Co 0.35095 0.97183 0.75396 0.0
O197 O 0.33973 0.95795 0.74022 0.0
O198 O 0.35698 0.97595 0.73264 0.0
C199 C 0.33039 0.97895 0.76875 0.0
O200 O 0.36463 0.9884 0.76484 0.0
Co201 Co 0.35342 0.96307 0.78919 0.0
O202 O 0.36569 0.98285 0.79067 0.0
C203 C 0.37296 0.94641 0.76627 0.0
C204 C 0.34736 0.96469 0.7289 0.0
C205 C 0.36949 0.99127 0.77889 0.0
O206 O 0.36839 0.95613 0.75573 0.0
O207 O 0.36715 0.94612 0.78013 0.0
O208 O 0.3329 0.98566 0.75529 0.0
O209 O 0.33926 0.96706 0.77192 0.0
Co210 Co 0.33062 0.15123 0.99302 0.0
O211 O 0.33098 0.13881 0.97447 0.0
O212 O 0.31222 0.15596 0.98042 0.0
C213 C 0.33644 0.13138 0.00945 0.0
O214 O 0.32652 0.16566 0.01185 0.0
Co215 Co 0.36162 0.15468 0.01203 0.0
O216 O 0.34719 0.16333 0.02819 0.0
C217 C 0.35706 0.17309 0.98309 0.0
C218 C 0.31774 0.14533 0.97092 0.0
C219 C 0.33343 0.16832 0.02507 0.0
O220 O 0.34277 0.16836 0.9823 0.0
O221 O 0.36689 0.16785 0.99319 0.0
O222 O 0.32213 0.13353 0.00469 0.0
O223 O 0.34686 0.1402 0.00287 0.0
Co224 Co 0.40895 0.27181 0.03243 0.0
O225 O 0.42405 0.28232 0.01926 0.0
O226 O 0.42526 0.25738 0.02661 0.0
C227 C 0.40566 0.29014 0.05101 0.0
O228 O 0.39598 0.25688 0.04596 0.0
Co229 Co 0.3753 0.28483 0.03618 0.0
O230 O 0.37343 0.26864 0.05296 0.0
C231 C 0.3838 0.269 0.0069 0.0
C232 C 0.43092 0.26873 0.01811 0.0
C233 C 0.38314 0.25729 0.05395 0.0
O234 O 0.39702 0.26546 0.01317 0.0
O235 O 0.37356 0.2776 0.01376 0.0
O236 O 0.41775 0.28079 0.05159 0.0
O237 O 0.39754 0.28954 0.03823 0.0
Co238 Co 0.84128 0.34235 0.074 0.0
O239 O 0.85061 0.32602 0.08652 0.0
O240 O 0.86259 0.34789 0.07895 0.0
C241 C 0.83049 0.3269 0.05567 0.0
O242 O 0.83563 0.36156 0.06066 0.0
Co243 Co 0.8052 0.34457 0.07046 0.0
O244 O 0.81039 0.35948 0.05323 0.0
C245 C 0.82 0.35544 0.09973 0.0
C246 C 0.86322 0.33456 0.08637 0.0
C247 C 0.8238 0.36609 0.05237 0.0
O248 O 0.83356 0.3531 0.09353 0.0
O249 O 0.80713 0.35177 0.09287 0.0
O250 O 0.84526 0.33058 0.05483 0.0
O251 O 0.82337 0.33107 0.06841 0.0
Co252 Co 0.94379 0.5581 0.3264 0.0
O253 O 0.9596 0.57366 0.32938 0.0
O254 O 0.93849 0.57709 0.31476 0.0
C255 C 0.96246 0.53964 0.32159 0.0
O256 O 0.92512 0.54454 0.32002 0.0
Co257 Co 0.94048 0.53224 0.34826 0.0
O258 O 0.92316 0.52364 0.33565 0.0
C259 C 0.92548 0.56147 0.357 0.0
C260 C 0.95136 0.58287 0.32063 0.0
C261 C 0.91831 0.53177 0.32418 0.0
O262 O 0.93181 0.56695 0.34456 0.0
O263 O 0.92758 0.54726 0.36127 0.0
O264 O 0.95583 0.54785 0.31069 0.0
O265 O 0.95717 0.54215 0.33576 0.0
Co266 Co 0.7521 0.76331 0.60851 0.0
O267 O 0.73977 0.76508 0.62724 0.0
O268 O 0.73088 0.75647 0.60436 0.0
C269 C 0.76328 0.78748 0.60915 0.0
O270 O 0.76193 0.76024 0.58675 0.0
Co271 Co 0.78824 0.76317 0.61262 0.0
O272 O 0.78779 0.76507 0.58961 0.0
C273 C 0.77082 0.73317 0.61139 0.0
C274 C 0.72806 0.76006 0.61895 0.0
C275 C 0.77587 0.76221 0.58113 0.0
O276 O 0.758 0.74086 0.6134 0.0
O277 O 0.78427 0.73988 0.61104 0.0
O278 O 0.749 0.78544 0.6044 0.0
O279 O 0.76934 0.77527 0.61602 0.0
Co280 Co 0.12293 0.98554 0.31019 0.0
O281 O 0.10897 0.96815 0.30961 0.0
O282 O 0.12598 0.97396 0.29073 0.0
C283 C 0.10502 0.00295 0.31867 0.0
O284 O 0.13878 0.00344 0.30722 0.0
Co285 Co 0.12945 0.00033 0.34297 0.0
O286 O 0.13857 0.0173 0.3298 0.0
C287 C 0.1449 0.97076 0.33427 0.0
C288 C 0.11502 0.96474 0.29612 0.0
C289 C 0.1427 0.01552 0.31551 0.0
O290 O 0.13952 0.97226 0.32029 0.0
O291 O 0.14106 0.97995 0.34554 0.0
O292 O 0.10596 -0.00047 0.30383 0.0
O293 O 0.11366 0.99454 0.32782 0.0
Co294 Co 0.24642 0.82171 0.49179 0.0
O295 O 0.23001 0.80863 0.484 0.0
O296 O 0.23621 0.81099 0.50916 0.0
C297 C 0.26513 0.81459 0.4745 0.0
O298 O 0.2635 0.83417 0.50334 0.0
Co299 Co 0.25619 0.84869 0.46941 0.0
O300 O 0.27026 0.85406 0.48707 0.0
C301 C 0.22836 0.85308 0.48882 0.0
C302 C 0.22737 0.80465 0.49842 0.0
C303 C 0.27158 0.84657 0.49994 0.0
O304 O 0.23134 0.83966 0.49495 0.0
O305 O 0.2362 0.85856 0.47724 0.0
O306 O 0.26166 0.80579 0.48642 0.0
O307 O 0.25539 0.82605 0.47204 0.0
Co308 Co 0.93448 0.551 0.27102 0.0
O309 O 0.95129 0.53959 0.26147 0.0
O310 O 0.93841 0.53159 0.28247 0.0
C311 C 0.94889 0.5735 0.27038 0.0
O312 O 0.91685 0.55977 0.28466 0.0
Co313 Co 0.91793 0.57554 0.25389 0.0
O314 O 0.9045 0.57932 0.27236 0.0
C315 C 0.90798 0.54342 0.24824 0.0
C316 C 0.94942 0.52904 0.27217 0.0
C317 C 0.90615 0.57037 0.28413 0.0
O318 O 0.91897 0.53946 0.25765 0.0
O319 O 0.90563 0.55772 0.2444 0.0
O320 O 0.94876 0.56399 0.2822 0.0
O321 O 0.93962 0.5696 0.25884 0.0
Co322 Co 0.64441 0.59886 0.72466 0.0
O323 O 0.63584 0.61808 0.71675 0.0
O324 O 0.64298 0.61418 0.74142 0.0
C325 C 0.626 0.58253 0.71458 0.0
O326 O 0.6533 0.57999 0.73666 0.0
Co327 Co 0.65712 0.57547 0.6996 0.0
O328 O 0.66381 0.56373 0.71847 0.0
C329 C 0.67716 0.60157 0.70972 0.0
C330 C 0.63637 0.62325 0.73105 0.0
C331 C 0.66089 0.56747 0.73265 0.0
O332 O 0.66657 0.60566 0.71967 0.0
O333 O 0.67504 0.59077 0.69949 0.0
O334 O 0.6234 0.59069 0.72711 0.0
O335 O 0.63871 0.5864 0.70713 0.0
Co336 Co 0.46537 0.82447 0.75513 0.0
O337 O 0.45528 0.84086 0.76679 0.0
O338 O 0.48087 0.8364 0.7668 0.0
C339 C 0.44922 0.80466 0.76232 0.0
O340 O 0.47948 0.80798 0.74461 0.0
Co341 Co 0.44637 0.80997 0.72756 0.0
O342 O 0.46613 0.79836 0.72377 0.0
C343 C 0.46323 0.8395 0.72235 0.0
C344 C 0.46903 0.8444 0.77224 0.0
C345 C 0.47833 0.79909 0.73235 0.0
O346 O 0.46853 0.83863 0.73644 0.0
O347 O 0.45303 0.82992 0.71689 0.0
O348 O 0.46016 0.80975 0.77156 0.0
O349 O 0.44681 0.81336 0.75005 0.0
Co350 Co 0.49983 0.22878 0.89965 0.0
O351 O 0.48363 0.22425 0.91461 0.0
O352 O 0.49306 0.24798 0.90979 0.0
C353 C 0.5163 0.20991 0.90754 0.0
O354 O 0.51726 0.23769 0.88572 0.0
Co355 Co 0.50813 0.20465 0.87393 0.0
O356 O 0.52489 0.21964 0.86792 0.0
C357 C 0.47997 0.2242 0.87008 0.0
C358 C 0.48391 0.23906 0.91817 0.0
C359 C 0.52616 0.23307 0.87436 0.0
O360 O 0.4839 0.23176 0.88252 0.0
O361 O 0.48741 0.21204 0.86529 0.0
O362 O 0.51535 0.22316 0.91491 0.0
O363 O 0.50607 0.2076 0.89649 0.0
Co364 Co 0.10471 0.28412 0.2773 0.0
O365 O 0.11484 0.27243 0.2937 0.0
O366 O 0.09887 0.26237 0.27576 0.0
C367 C 0.09618 0.30381 0.29258 0.0
O368 O 0.09154 0.29259 0.259 0.0
Co369 Co 0.11622 0.31751 0.26851 0.0
O370 O 0.09634 0.31841 0.2563 0.0
C371 C 0.13438 0.28984 0.25839 0.0
C372 C 0.10741 0.26031 0.28825 0.0
C373 C 0.08858 0.30609 0.25281 0.0
O374 O 0.12321 0.28081 0.26303 0.0
O375 O 0.1345 0.30467 0.26091 0.0
O376 O 0.08846 0.2907 0.2919 0.0
O377 O 0.10952 0.30394 0.28537 0.0
Co378 Co 0.09938 0.7967 0.46715 0.0
O379 O 0.11485 0.80166 0.48265 0.0
O380 O 0.11419 0.77951 0.46903 0.0
C381 C 0.07897 0.8049 0.48173 0.0
O382 O 0.08468 0.78737 0.4505 0.0
Co383 Co 0.07824 0.82298 0.45313 0.0
O384 O 0.06577 0.805 0.44494 0.0
C385 C 0.11141 0.82007 0.44323 0.0
C386 C 0.12099 0.78806 0.47973 0.0
C387 C 0.07164 0.79128 0.44386 0.0
O388 O 0.11256 0.80675 0.45027 0.0
O389 O 0.09933 0.82896 0.44438 0.0
O390 O 0.08453 0.79082 0.48371 0.0
O391 O 0.08648 0.81359 0.47195 0.0
Co392 Co 0.51984 0.25967 0.7986 0.0
O393 O 0.51682 0.24412 0.78235 0.0
O394 O 0.51384 0.24009 0.80792 0.0
C395 C 0.54283 0.26922 0.79018 0.0
O396 O 0.52206 0.27217 0.81895 0.0
Co397 Co 0.51928 0.29496 0.79184 0.0
O398 O 0.52638 0.29764 0.81386 0.0
C399 C 0.48938 0.27833 0.79475 0.0
C400 C 0.51338 0.23456 0.79372 0.0
C401 C 0.52515 0.28626 0.82345 0.0
O402 O 0.49733 0.26578 0.79701 0.0
O403 O 0.49576 0.29171 0.79234 0.0
O404 O 0.54217 0.25633 0.79827 0.0
O405 O 0.52943 0.27518 0.78591 0.0
Co406 Co 0.13706 0.32402 0.13769 0.0
O407 O 0.15479 0.31994 0.12469 0.0
O408 O 0.15386 0.33862 0.14282 0.0
C409 C 0.11939 0.32236 0.11827 0.0
O410 O 0.11981 0.33175 0.1528 0.0
Co411 Co 0.11201 0.29772 0.14095 0.0
O412 O 0.09954 0.31492 0.15064 0.0
C413 C 0.14203 0.29467 0.15753 0.0
C414 C 0.16178 0.33129 0.13196 0.0
C415 C 0.10546 0.3277 0.15573 0.0
O416 O 0.14529 0.30894 0.15387 0.0
O417 O 0.12993 0.28746 0.1523 0.0
O418 O 0.1269 0.33545 0.12058 0.0
O419 O 0.12392 0.31066 0.12669 0.0
Co420 Co 0.08236 0.83335 0.32286 0.0
O421 O 0.09421 0.84426 0.30703 0.0
O422 O 0.07982 0.85564 0.32552 0.0
C423 C 0.07099 0.81574 0.30689 0.0
O424 O 0.0681 0.82595 0.34083 0.0
Co425 Co 0.08946 0.79826 0.32976 0.0
O426 O 0.07123 0.79994 0.34424 0.0
C427 C 0.11093 0.82254 0.34154 0.0
C428 C 0.08881 0.85707 0.31325 0.0
C429 C 0.0646 0.81292 0.34771 0.0
O430 O 0.10112 0.83323 0.33729 0.0
O431 O 0.10921 0.80803 0.33804 0.0
O432 O 0.06527 0.82982 0.30811 0.0
O433 O 0.08426 0.81347 0.31382 0.0
Co434 Co 0.51323 0.82199 0.62843 0.0
O435 O 0.50288 0.825 0.60873 0.0
O436 O 0.49206 0.82963 0.63198 0.0
C437 C 0.5232 0.79822 0.62383 0.0
O438 O 0.52079 0.81956 0.65139 0.0
Co439 Co 0.54874 0.82254 0.62854 0.0
O440 O 0.54625 0.81305 0.64939 0.0
C441 C 0.53075 0.84991 0.63705 0.0
C442 C 0.49084 0.82967 0.61674 0.0
C443 C 0.53383 0.81474 0.6575 0.0
O444 O 0.52124 0.84399 0.62718 0.0
O445 O 0.54408 0.84341 0.63914 0.0
O446 O 0.50869 0.79995 0.62821 0.0
O447 O 0.53063 0.81105 0.6199 0.0
Co448 Co 0.73181 0.47482 0.82779 0.0
O449 O 0.74522 0.46474 0.84276 0.0
O450 O 0.74271 0.49047 0.84023 0.0
C451 C 0.73935 0.461 0.8065 0.0
O452 O 0.71917 0.48887 0.81292 0.0
Co453 Co 0.70531 0.45412 0.8137 0.0
O454 O 0.69921 0.47408 0.80354 0.0
C455 C 0.7001 0.46897 0.84425 0.0
C456 C 0.74963 0.47865 0.84703 0.0
C457 C 0.70659 0.48703 0.80463 0.0
O458 O 0.71376 0.47525 0.84309 0.0
O459 O 0.69491 0.45896 0.83432 0.0
O460 O 0.74778 0.47239 0.81193 0.0
O461 O 0.72785 0.45668 0.81556 0.0
Co462 Co 0.80708 0.48206 0.10216 0.0
O463 O 0.80978 0.4959 0.11962 0.0
O464 O 0.78738 0.48422 0.11334 0.0
C465 C 0.81998 0.49713 0.0847 0.0
O466 O 0.79996 0.46746 0.08442 0.0
Co467 Co 0.83658 0.46729 0.08641 0.0
O468 O 0.82122 0.46177 0.06973 0.0
C469 C 0.82512 0.45481 0.11658 0.0
C470 C 0.79504 0.49365 0.12261 0.0
C471 C 0.80643 0.4615 0.07209 0.0
O472 O 0.81278 0.46343 0.11552 0.0
O473 O 0.83666 0.4558 0.10698 0.0
O474 O 0.80537 0.50003 0.08804 0.0
O475 O 0.82655 0.48642 0.09311 0.0
Co476 Co 0.80327 0.57463 0.39102 0.0
O477 O 0.79237 0.58152 0.40944 0.0
O478 O 0.81556 0.56978 0.40945 0.0
C479 C 0.78299 0.56356 0.37839 0.0
O480 O 0.81793 0.56612 0.37395 0.0
Co481 Co 0.7945 0.59003 0.35934 0.0
O482 O 0.80677 0.57219 0.35082 0.0
C483 C 0.82153 0.60095 0.37772 0.0
C484 C 0.80459 0.577 0.41731 0.0
C485 C 0.81742 0.56539 0.35883 0.0
O486 O 0.81459 0.59522 0.38975 0.0
O487 O 0.81496 0.60101 0.36422 0.0
O488 O 0.7903 0.55588 0.38937 0.0
O489 O 0.7866 0.57828 0.37719 0.0
Co490 Co 0.80582 0.62237 0.56949 0.0
O491 O 0.80335 0.60342 0.58124 0.0
O492 O 0.8009 0.62728 0.59125 0.0
C493 C 0.82767 0.61562 0.55648 0.0
O494 O 0.8081 0.64472 0.56017 0.0
Co495 Co 0.80059 0.62171 0.53441 0.0
O496 O 0.814 0.64051 0.53492 0.0
C497 C 0.77629 0.63234 0.55579 0.0
C498 C 0.80015 0.61213 0.59328 0.0
C499 C 0.81282 0.6497 0.54659 0.0
O500 O 0.78285 0.62238 0.5648 0.0
O501 O 0.78112 0.63365 0.54165 0.0
O502 O 0.8283 0.62076 0.57084 0.0
O503 O 0.81364 0.61256 0.55113 0.0
Co504 Co 0.76344 0.54978 0.71578 0.0
O505 O 0.7726 0.5474 0.69538 0.0
O506 O 0.75288 0.56344 0.70102 0.0
C507 C 0.76198 0.52462 0.72261 0.0
O508 O 0.75028 0.55466 0.73562 0.0
Co509 Co 0.78278 0.54342 0.74453 0.0
O510 O 0.7626 0.54279 0.75559 0.0
C511 C 0.7788 0.57465 0.73286 0.0
C512 C 0.76298 0.55829 0.69077 0.0
C513 C 0.75074 0.54989 0.75003 0.0
O514 O 0.77882 0.56688 0.72016 0.0
O515 O 0.78117 0.56729 0.74566 0.0
O516 O 0.75142 0.5308 0.71343 0.0
O517 O 0.7744 0.53315 0.7254 0.0
Co518 Co 0.82183 0.48486 0.95934 0.0
O519 O 0.82239 0.49846 0.94145 0.0
O520 O 0.82803 0.47307 0.94105 0.0
C521 C 0.83352 0.50101 0.97641 0.0
O522 O 0.82264 0.46715 0.97558 0.0
Co523 Co 0.80207 0.49411 0.98834 0.0
O524 O 0.8135 0.47644 0.99856 0.0
C525 C 0.78599 0.48316 0.96001 0.0
C526 C 0.82537 0.48596 0.93325 0.0
C527 C 0.82021 0.46579 0.99046 0.0
O528 O 0.79947 0.47978 0.95425 0.0
O529 O 0.78425 0.48985 0.97335 0.0
O530 O 0.84208 0.49252 0.96698 0.0
O531 O 0.81859 0.50059 0.974 0.0
Co532 Co 0.7861 0.51137 0.25725 0.0
O533 O 0.77082 0.50696 0.24121 0.0
O534 O 0.79082 0.52344 0.2388 0.0
C535 C 0.76965 0.51455 0.27761 0.0
O536 O 0.80425 0.51896 0.27104 0.0
Co537 Co 0.79095 0.48787 0.28443 0.0
O538 O 0.80442 0.50461 0.29318 0.0
C539 C 0.81099 0.48702 0.25626 0.0
C540 C 0.7788 0.51654 0.23242 0.0
C541 C 0.80972 0.51576 0.28476 0.0
O542 O 0.79994 0.49422 0.24908 0.0
O543 O 0.80956 0.48271 0.27058 0.0
O544 O 0.77188 0.52576 0.26752 0.0
O545 O 0.77561 0.50103 0.27384 0.0
Co546 Co 0.85164 0.68368 0.49112 0.0
O547 O 0.85296 0.66518 0.47848 0.0
O548 O 0.83158 0.67257 0.49112 0.0
C549 C 0.87411 0.67737 0.50381 0.0
O550 O 0.84624 0.70142 0.50611 0.0
Co551 Co 0.87531 0.70885 0.48895 0.0
O552 O 0.86494 0.71985 0.50654 0.0
C553 C 0.84913 0.70967 0.46684 0.0
C554 C 0.8387 0.6621 0.48256 0.0
C555 C 0.85205 0.71426 0.51145 0.0
O556 O 0.84466 0.69653 0.47265 0.0
O557 O 0.8617 0.71651 0.47131 0.0
O558 O 0.8604 0.67288 0.50849 0.0
O559 O 0.87429 0.68599 0.49118 0.0
Co560 Co 0.8049 0.78354 0.48409 0.0
O561 O 0.81272 0.80227 0.47474 0.0
O562 O 0.82588 0.77962 0.47703 0.0
C563 C 0.79877 0.79654 0.50896 0.0
O564 O 0.7997 0.76223 0.49361 0.0
Co565 Co 0.7676 0.78358 0.5025 0.0
O566 O 0.77751 0.76295 0.50859 0.0
C567 C 0.77268 0.78364 0.47468 0.0
C568 C 0.82551 0.79422 0.47229 0.0
C569 C 0.78957 0.75585 0.50295 0.0
O570 O 0.78258 0.78998 0.48414 0.0
O571 O 0.75917 0.7817 0.48047 0.0
O572 O 0.81217 0.79168 0.50499 0.0
O573 O 0.78864 0.7939 0.49822 0.0
Co574 Co 0.37035 0.82319 0.54883 0.0
O575 O 0.39177 0.81896 0.54345 0.0
O576 O 0.38355 0.8398 0.55675 0.0
C577 C 0.35917 0.8177 0.52579 0.0
O578 O 0.34918 0.83125 0.55655 0.0
Co579 Co 0.34724 0.79549 0.55047 0.0
O580 O 0.33121 0.81207 0.55382 0.0
C581 C 0.36932 0.79941 0.57602 0.0
C582 C 0.39522 0.83142 0.55153 0.0
C583 C 0.33497 0.82611 0.55736 0.0
O584 O 0.37369 0.81192 0.56901 0.0
O585 O 0.35875 0.79026 0.57059 0.0
O586 O 0.36579 0.83126 0.52814 0.0
O587 O 0.36144 0.80719 0.53661 0.0
Co588 Co 0.46333 0.10659 0.81103 0.0
O589 O 0.47728 0.12387 0.81337 0.0
O590 O 0.46486 0.11804 0.79126 0.0
C591 C 0.47901 0.08915 0.82318 0.0
O592 O 0.44837 0.08869 0.80478 0.0
Co593 Co 0.45015 0.09163 0.84172 0.0
O594 O 0.44393 0.07475 0.82686 0.0
C595 C 0.43737 0.12164 0.83044 0.0
C596 C 0.47469 0.12705 0.79877 0.0
C597 C 0.44287 0.07655 0.81203 0.0
O598 O 0.44503 0.12002 0.81754 0.0
O599 O 0.43912 0.11245 0.84221 0.0
O600 O 0.4812 0.09244 0.80845 0.0
O601 O 0.46864 0.09761 0.83022 0.0
Co602 Co 0.29002 0.27782 0.11759 0.0
O603 O 0.27968 0.29566 0.12832 0.0
O604 O 0.26926 0.28307 0.10875 0.0
C605 C 0.31484 0.2899 0.11456 0.0
O606 O 0.29695 0.26114 0.10254 0.0
Co607 Co 0.31851 0.26246 0.13719 0.0
O608 O 0.31471 0.24828 0.118 0.0
C609 C 0.29246 0.27846 0.15027 0.0
C610 C 0.26815 0.29462 0.11837 0.0
C611 C 0.30647 0.24962 0.10529 0.0
O612 O 0.28725 0.28761 0.13931 0.0
O613 O 0.30738 0.27815 0.15173 0.0
O614 O 0.3029 0.29461 0.10684 0.0
O615 O 0.31099 0.27926 0.12409 0.0
Co616 Co 0.63664 0.5112 0.82058 0.0
O617 O 0.62364 0.49372 0.82504 0.0
O618 O 0.64986 0.49314 0.82308 0.0
C619 C 0.62344 0.51825 0.7962 0.0
O620 O 0.65305 0.52794 0.81567 0.0
Co621 Co 0.61909 0.54837 0.81387 0.0
O622 O 0.64164 0.55067 0.80714 0.0
C623 C 0.61876 0.5335 0.83809 0.0
C624 C 0.63666 0.48574 0.82579 0.0
C625 C 0.65366 0.542 0.8099 0.0
O626 O 0.62009 0.52683 0.82466 0.0
O627 O 0.61504 0.54782 0.83738 0.0
O628 O 0.63339 0.50736 0.79767 0.0
O629 O 0.62048 0.52478 0.80947 0.0
Co630 Co 0.73632 0.36946 0.97457 0.0
O631 O 0.72254 0.35742 0.96168 0.0
O632 O 0.71472 0.37353 0.9806 0.0
C633 C 0.7527 0.3496 0.98042 0.0
O634 O 0.748 0.38365 0.99018 0.0
Co635 Co 0.77061 0.37312 0.96228 0.0
O636 O 0.77331 0.3846 0.98236 0.0
C637 C 0.7454 0.39222 0.94847 0.0
C638 C 0.71113 0.36341 0.96971 0.0
C639 C 0.7623 0.38847 0.99177 0.0
O640 O 0.73586 0.38713 0.95898 0.0
O641 O 0.7593 0.38675 0.9467 0.0
O642 O 0.73972 0.35147 0.98815 0.0
O643 O 0.75441 0.3586 0.96835 0.0
Co644 Co 0.47119 0.96233 0.83416 0.0
O645 O 0.48558 0.94511 0.83546 0.0
O646 O 0.46066 0.94427 0.84285 0.0
C647 C 0.48727 0.98108 0.84303 0.0
O648 O 0.45292 0.97803 0.83464 0.0
Co649 Co 0.47814 0.98938 0.81097 0.0
O650 O 0.46076 0.0001 0.82243 0.0
C651 C 0.4672 0.95927 0.79862 0.0
C652 C 0.4737 0.93676 0.84009 0.0
C653 C 0.45086 0.99251 0.83071 0.0
O654 O 0.46485 0.9549 0.81281 0.0
O655 O 0.4734 0.97249 0.79508 0.0
O656 O 0.47983 0.97219 0.85301 0.0
O657 O 0.48605 0.97713 0.82848 0.0
Co658 Co 0.11122 0.13027 0.32935 0.0
O659 O 0.09683 0.14736 0.32813 0.0
O660 O 0.11966 0.14803 0.34063 0.0
C661 C 0.09357 0.11147 0.33437 0.0
O662 O 0.12888 0.11453 0.33332 0.0
Co663 Co 0.10916 0.10351 0.30484 0.0
O664 O 0.1233 0.0925 0.31985 0.0
C665 C 0.12353 0.13343 0.29569 0.0
C666 C 0.10719 0.15545 0.33581 0.0
C667 C 0.13139 0.09999 0.32997 0.0
O668 O 0.12208 0.13806 0.30995 0.0
O669 O 0.11833 0.12019 0.29082 0.0
O670 O 0.09883 0.12016 0.34579 0.0
O671 O 0.09781 0.11562 0.32043 0.0
H672 H 0.06303 0.39564 0.27975 0.0
H673 H 0.06753 0.30691 0.30646 0.0
H674 H 0.02315 0.36606 0.28971 0.0
H675 H 0.1073 0.33384 0.29036 0.0
H676 H 0.05245 0.3311 0.3088 0.0
H677 H 0.08023 0.37587 0.29152 0.0
C678 C 0.05788 0.38513 0.28471 0.0
C679 C 0.04175 0.38222 0.28344 0.0
C680 C 0.06457 0.33176 0.30503 0.0
C681 C 0.06121 0.35969 0.29682 0.0
C682 C 0.07319 0.31796 0.3037 0.0
C683 C 0.08848 0.31837 0.29769 0.0
C684 C 0.07127 0.34599 0.3001 0.0
C685 C 0.09537 0.33299 0.29464 0.0
C686 C 0.06768 0.37387 0.29142 0.0
C687 C 0.03561 0.36855 0.29016 0.0
N688 N 0.08658 0.34624 0.29553 0.0
N689 N 0.04538 0.35766 0.29636 0.0
H690 H 0.06727 0.83449 0.48173 0.0
H691 H 0.98163 0.80183 0.49437 0.0
H692 H 0.05614 0.78718 0.49595 0.0
H693 H 0.99281 0.84493 0.47028 0.0
H694 H 0.00842 0.80069 0.50433 0.0
H695 H 0.04018 0.84217 0.48676 0.0
C696 C 0.05916 0.82577 0.48619 0.0
C697 C 0.06376 0.81006 0.488 0.0
C698 C 0.00492 0.8106 0.49719 0.0
C699 C 0.03281 0.81878 0.49369 0.0
C700 C 0.98964 0.81128 0.49152 0.0
C701 C 0.98522 0.82325 0.48113 0.0
C702 C 0.01583 0.82188 0.49228 0.0
C703 C 0.99588 0.83536 0.47806 0.0
C704 C 0.04372 0.83019 0.4891 0.0
C705 C 0.05295 0.79934 0.49414 0.0
N706 N 0.01087 0.83418 0.48332 0.0
N707 N 0.03783 0.80383 0.49647 0.0
H708 H 0.50735 0.74614 0.79429 0.0
H709 H 0.44236 0.78828 0.78874 0.0
H710 H 0.49959 0.72997 0.74695 0.0
H711 H 0.44758 0.78207 0.73901 0.0
H712 H 0.45564 0.76339 0.79311 0.0
H713 H 0.48116 0.75749 0.79439 0.0
C714 C 0.49996 0.74467 0.78406 0.0
C715 C 0.50573 0.73732 0.77055 0.0
C716 C 0.4539 0.76736 0.78118 0.0
C717 C 0.47545 0.75004 0.77053 0.0
C718 C 0.4458 0.78135 0.77864 0.0
C719 C 0.44528 0.78788 0.76353 0.0
C720 C 0.46139 0.76008 0.76843 0.0
C721 C 0.44912 0.77809 0.75093 0.0
C722 C 0.48484 0.751 0.78413 0.0
C723 C 0.49567 0.73572 0.75759 0.0
N724 N 0.45783 0.76499 0.75362 0.0
N725 N 0.48116 0.74228 0.7578 0.0
H726 H 0.54247 0.20537 0.88987 0.0
H727 H 0.60234 0.23614 0.92902 0.0
H728 H 0.52137 0.19328 0.93403 0.0
H729 H 0.56554 0.24256 0.96322 0.0
H730 H 0.58876 0.21298 0.91905 0.0
H731 H 0.56726 0.20973 0.90306 0.0
C732 C 0.54332 0.20254 0.90222 0.0
C733 C 0.52973 0.19981 0.91104 0.0
C734 C 0.58374 0.21933 0.92885 0.0
C735 C 0.55793 0.20509 0.92643 0.0
C736 C 0.5915 0.23254 0.9346 0.0
C737 C 0.58475 0.2416 0.94663 0.0
C738 C 0.56904 0.21529 0.93504 0.0
C739 C 0.57097 0.23613 0.9537 0.0
C740 C 0.55754 0.20527 0.9099 0.0
C741 C 0.53157 0.19597 0.92693 0.0
N742 N 0.5634 0.22349 0.94759 0.0
N743 N 0.5452 0.1996 0.93435 0.0
H744 H 0.99045 0.75988 0.30926 0.0
H745 H 0.0793 0.78488 0.30475 0.0
H746 H 0.02917 0.72782 0.31532 0.0
H747 H 0.04043 0.81649 0.29729 0.0
H748 H 0.06141 0.76269 0.30208 0.0
H749 H 0.00851 0.77926 0.29844 0.0
C750 C 0.00273 0.75684 0.30806 0.0
C751 C 0.00843 0.74241 0.31352 0.0
C752 C 0.05683 0.77446 0.30071 0.0
C753 C 0.02917 0.76454 0.30136 0.0
C754 C 0.06704 0.78714 0.30224 0.0
C755 C 0.06122 0.80251 0.30168 0.0
C756 C 0.04071 0.77725 0.29879 0.0
C757 C 0.04533 0.8048 0.29812 0.0
C758 C 0.01304 0.76789 0.30186 0.0
C759 C 0.02437 0.73893 0.31147 0.0
N760 N 0.03555 0.79228 0.29712 0.0
N761 N 0.03427 0.75006 0.30583 0.0
H762 H 0.58615 0.71895 0.63048 0.0
H763 H 0.55273 0.789 0.61415 0.0
H764 H 0.55519 0.72088 0.67027 0.0
H765 H 0.51043 0.77171 0.63603 0.0
H766 H 0.56494 0.76329 0.61854 0.0
H767 H 0.56803 0.7356 0.61582 0.0
C768 C 0.57505 0.72209 0.63586 0.0
C769 C 0.57262 0.71936 0.65195 0.0
C770 C 0.55282 0.76499 0.62194 0.0
C771 C 0.55216 0.73872 0.6355 0.0
C772 C 0.54594 0.77973 0.6196 0.0
C773 C 0.5306 0.78254 0.6248 0.0
C774 C 0.54434 0.7531 0.62972 0.0
C775 C 0.52233 0.77011 0.63187 0.0
C776 C 0.56498 0.73205 0.62763 0.0
C777 C 0.55794 0.72338 0.65815 0.0
N778 N 0.5294 0.75607 0.63441 0.0
N779 N 0.54849 0.73346 0.65015 0.0
H780 H 0.63311 0.30082 0.81191 0.0
H781 H 0.54882 0.29725 0.77533 0.0
H782 H 0.61161 0.33865 0.78619 0.0
H783 H 0.57174 0.25803 0.7977 0.0
H784 H 0.57427 0.3104 0.7732 0.0
H785 H 0.61452 0.28254 0.79986 0.0
C786 C 0.62482 0.30522 0.80336 0.0
C787 C 0.62301 0.32138 0.80098 0.0
C788 C 0.57379 0.29878 0.77831 0.0
C789 C 0.60189 0.30072 0.78711 0.0
C790 C 0.55923 0.29133 0.77959 0.0
C791 C 0.55813 0.2767 0.78699 0.0
C792 C 0.58727 0.29161 0.78464 0.0
C793 C 0.57201 0.26946 0.79216 0.0
C794 C 0.61412 0.29479 0.79652 0.0
C795 C 0.61276 0.32632 0.78906 0.0
N796 N 0.58594 0.27708 0.79112 0.0
N797 N 0.60215 0.31613 0.78299 0.0
H798 H 0.0275 0.29344 0.11349 0.0
H799 H 0.10209 0.34664 0.1063 0.0
H800 H 0.02668 0.34394 0.10962 0.0
H801 H 0.1031 0.29617 0.11033 0.0
H802 H 0.07453 0.34514 0.0986 0.0
H803 H 0.05454 0.29348 0.10389 0.0
C804 C 0.03294 0.3045 0.11036 0.0
C805 C 0.02513 0.31874 0.11284 0.0
C806 C 0.08088 0.33435 0.1008 0.0
C807 C 0.05592 0.31892 0.102 0.0
C808 C 0.09661 0.33522 0.10516 0.0
C809 C 0.10461 0.32155 0.1095 0.0
C810 C 0.07319 0.31974 0.10104 0.0
C811 C 0.09712 0.30704 0.10756 0.0
C812 C 0.04834 0.30453 0.10484 0.0
C813 C 0.03251 0.33272 0.10831 0.0
N814 N 0.08169 0.30652 0.10384 0.0
N815 N 0.04763 0.3325 0.10341 0.0
H816 H 0.2865 0.09164 0.30795 0.0
H817 H 0.25104 0.06243 0.38812 0.0
H818 H 0.25088 0.11654 0.33391 0.0
H819 H 0.28296 0.03618 0.35888 0.0
H820 H 0.25738 0.08616 0.37324 0.0
H821 H 0.29194 0.07576 0.33107 0.0
C822 C 0.28001 0.09393 0.31864 0.0
C823 C 0.26792 0.10506 0.31895 0.0
C824 C 0.26334 0.0753 0.37038 0.0
C825 C 0.2738 0.08673 0.34532 0.0
C826 C 0.25978 0.06178 0.37891 0.0
C827 C 0.26625 0.04733 0.37443 0.0
C828 C 0.2734 0.07424 0.35735 0.0
C829 C 0.2775 0.04708 0.36247 0.0
C830 C 0.28312 0.08488 0.33185 0.0
C831 C 0.2601 0.10785 0.33315 0.0
N832 N 0.28052 0.06029 0.35415 0.0
N833 N 0.2629 0.09843 0.34571 0.0
H834 H 0.36255 0.92854 0.54916 0.0
H835 H 0.29938 0.96525 0.51785 0.0
H836 H 0.36089 0.96277 0.58623 0.0
H837 H 0.28724 0.9583 0.56648 0.0
H838 H 0.32698 0.96758 0.52519 0.0
H839 H 0.34175 0.94278 0.53554 0.0
C840 C 0.35862 0.93966 0.5539 0.0
C841 C 0.36311 0.94429 0.56899 0.0
C842 C 0.31821 0.96611 0.53428 0.0
C843 C 0.3389 0.96013 0.55401 0.0
C844 C 0.30247 0.9648 0.53017 0.0
C845 C 0.29109 0.96121 0.54159 0.0
C846 C 0.32256 0.96395 0.54992 0.0
C847 C 0.29566 0.96095 0.55735 0.0
C848 C 0.3465 0.94766 0.54628 0.0
C849 C 0.35747 0.95873 0.57467 0.0
N850 N 0.31119 0.96196 0.56105 0.0
N851 N 0.34494 0.96565 0.56768 0.0
H852 H 0.30785 0.00087 0.76361 0.0
H853 H 0.31225 0.02698 0.85212 0.0
H854 H 0.32935 0.97357 0.80041 0.0
H855 H 0.29746 0.05627 0.81358 0.0
H856 H 0.30968 0.00393 0.8352 0.0
H857 H 0.29514 0.01712 0.78342 0.0
C858 C 0.30967 0.99813 0.77589 0.0
C859 C 0.32004 0.98623 0.78044 0.0
C860 C 0.30659 0.01535 0.83058 0.0
C861 C 0.30579 0.00489 0.80312 0.0
C862 C 0.308 0.0285 0.84024 0.0
C863 C 0.30546 0.04352 0.83403 0.0
C864 C 0.30264 0.01737 0.81471 0.0
C865 C 0.29988 0.04487 0.81865 0.0
C866 C 0.30239 0.00739 0.7872 0.0
C867 C 0.3217 0.98289 0.79645 0.0
N868 N 0.29893 0.03198 0.80941 0.0
N869 N 0.31495 0.99246 0.80727 0.0
H870 H 0.35572 0.12267 0.10624 0.0
H871 H 0.36287 0.13188 0.02777 0.0
H872 H 0.30703 0.1152 0.09476 0.0
H873 H 0.31733 0.1102 0.02371 0.0
H874 H 0.36435 0.12322 0.05486 0.0
H875 H 0.36294 0.11489 0.07955 0.0
C876 C 0.34661 0.11904 0.09817 0.0
C877 C 0.33075 0.12002 0.10241 0.0
C878 C 0.35425 0.11977 0.048 0.0
C879 C 0.33875 0.11168 0.07188 0.0
C880 C 0.35338 0.12486 0.03247 0.0
C881 C 0.33966 0.12233 0.02377 0.0
C882 C 0.34128 0.11207 0.05474 0.0
C883 C 0.32789 0.11287 0.03024 0.0
C884 C 0.3507 0.11479 0.08285 0.0
C885 C 0.31937 0.11501 0.09172 0.0
N886 N 0.32882 0.10839 0.04546 0.0
N887 N 0.32358 0.11129 0.07686 0.0
H888 H 0.34206 0.27534 0.1235 0.0
H889 H 0.38716 0.31582 0.05364 0.0
H890 H 0.32442 0.31428 0.09644 0.0
H891 H 0.40617 0.27739 0.08045 0.0
H892 H 0.36756 0.32008 0.07404 0.0
H893 H 0.36825 0.27996 0.11253 0.0
C894 C 0.34379 0.28509 0.11554 0.0
C895 C 0.33107 0.29428 0.11062 0.0
C896 C 0.37625 0.31096 0.07572 0.0
C897 C 0.36085 0.29961 0.09803 0.0
C898 C 0.38753 0.30863 0.06413 0.0
C899 C 0.39813 0.29615 0.06533 0.0
C900 C 0.37533 0.30044 0.08838 0.0
C901 C 0.39815 0.28715 0.0791 0.0
C902 C 0.35873 0.28772 0.10927 0.0
C903 C 0.3339 0.30677 0.10032 0.0
N904 N 0.38659 0.28918 0.08993 0.0
N905 N 0.34844 0.30893 0.0942 0.0
H906 H 0.74949 0.32541 0.00073 0.0
H907 H 0.83891 0.33089 0.02497 0.0
H908 H 0.78436 0.35124 0.97465 0.0
H909 H 0.80147 0.31383 0.05448 0.0
H910 H 0.82106 0.33032 0.00248 0.0
H911 H 0.77031 0.31298 0.01585 0.0
C912 C 0.76159 0.32824 0.998 0.0
C913 C 0.76526 0.33966 0.98676 0.0
C914 C 0.81689 0.32631 0.01379 0.0
C915 C 0.78909 0.32572 0.00417 0.0
C916 C 0.82707 0.32655 0.02661 0.0
C917 C 0.82149 0.32269 0.04161 0.0
C918 C 0.80113 0.3221 0.01609 0.0
C919 C 0.80611 0.31716 0.04313 0.0
C920 C 0.77346 0.32114 0.00663 0.0
C921 C 0.78107 0.34267 0.98342 0.0
N922 N 0.79637 0.31725 0.03056 0.0
N923 N 0.79246 0.33601 0.99238 0.0
H924 H 0.96407 0.59785 0.28538 0.0
H925 H 0.98756 0.55494 0.33504 0.0
H926 H 0.9714 0.56361 0.24939 0.0
H927 H 0.97772 0.52 0.3004 0.0
H928 H 4e-05 0.57111 0.31507 0.0
H929 H 0.98639 0.58754 0.29959 0.0
C930 C 0.97093 0.58861 0.27998 0.0
C931 C 0.96464 0.58005 0.26741 0.0
C932 C 0.99544 0.55976 0.31172 0.0
C933 C 0.98988 0.56775 0.28369 0.0
C934 C 0.98867 0.55021 0.32329 0.0
C935 C 0.97941 0.53736 0.31866 0.0
C936 C 0.99342 0.55563 0.29583 0.0
C937 C 0.983 0.53098 0.30392 0.0
C938 C 0.9836 0.58236 0.28837 0.0
C939 C 0.9749 0.56938 0.26015 0.0
N940 N 0.98867 0.54068 0.29256 0.0
N941 N 0.9863 0.5625 0.26899 0.0
H942 H 0.77062 0.80675 0.52051 0.0
H943 H 0.75233 0.81427 0.59563 0.0
H944 H 0.81891 0.79941 0.53368 0.0
H945 H 0.79558 0.78974 0.60432 0.0
H946 H 0.76325 0.82463 0.5714 0.0
H947 H 0.76457 0.81369 0.54751 0.0
C948 C 0.78 0.80687 0.52908 0.0
C949 C 0.79518 0.80221 0.52494 0.0
C950 C 0.77042 0.81694 0.57852 0.0
C951 C 0.78857 0.81066 0.55602 0.0
C952 C 0.76432 0.81129 0.5926 0.0
C953 C 0.77255 0.79985 0.60115 0.0
C954 C 0.78473 0.81092 0.57303 0.0
C955 C 0.78834 0.79743 0.5973 0.0
C956 C 0.77664 0.81113 0.54455 0.0
C957 C 0.80696 0.80273 0.53647 0.0
N958 N 0.79373 0.80224 0.58303 0.0
N959 N 0.80335 0.80658 0.55154 0.0
H960 H 0.0983 0.09198 0.35943 0.0
H961 H 0.08424 0.02096 0.30243 0.0
H962 H 0.07482 0.09509 0.31474 0.0
H963 H 0.10668 0.01675 0.34761 0.0
H964 H 0.07418 0.0466 0.31013 0.0
H965 H 0.09472 0.06349 0.35898 0.0
C966 C 0.09186 0.08671 0.34982 0.0
C967 C 0.08712 0.09573 0.33693 0.0
C968 C 0.08109 0.03999 0.31849 0.0
C969 C 0.08329 0.06333 0.33615 0.0
C970 C 0.08687 0.02536 0.31406 0.0
C971 C 0.09666 0.01698 0.32424 0.0
C972 C 0.08542 0.04638 0.33307 0.0
C973 C 0.09944 0.02303 0.33929 0.0
C974 C 0.08992 0.07044 0.34949 0.0
C975 C 0.0789 0.08842 0.32475 0.0
N976 N 0.09414 0.03756 0.34314 0.0
N977 N 0.07751 0.07259 0.3245 0.0
H978 H 0.34332 0.79098 0.51762 0.0
H979 H 0.28225 0.78855 0.46846 0.0
H980 H 0.35119 0.83884 0.50313 0.0
H981 H 0.2856 0.83889 0.46777 0.0
H982 H 0.30993 0.78694 0.47518 0.0
H983 H 0.3239 0.7882 0.49697 0.0
C984 C 0.34117 0.8008 0.50985 0.0
C985 C 0.34875 0.81517 0.51219 0.0
C986 C 0.3047 0.7984 0.47364 0.0
C987 C 0.32665 0.81211 0.48811 0.0
C988 C 0.28897 0.79932 0.4693 0.0
C989 C 0.2814 0.81393 0.46873 0.0
C990 C 0.31268 0.81224 0.47772 0.0
C991 C 0.29074 0.82742 0.46928 0.0
C992 C 0.33017 0.79919 0.49783 0.0
C993 C 0.34552 0.82755 0.50179 0.0
N994 N 0.3058 0.82632 0.47446 0.0
N995 N 0.33454 0.82581 0.49038 0.0
H996 H 0.5952 0.57614 0.71942 0.0
H997 H 0.60325 0.5424 0.78932 0.0
H998 H 0.6387 0.55312 0.70864 0.0
H999 H 0.63246 0.50711 0.76774 0.0
H1000 H 0.59755 0.55303 0.76334 0.0
H1001 H 0.58891 0.55532 0.73798 0.0
C1002 C 0.60319 0.5663 0.72046 0.0
C1003 C 0.61824 0.5671 0.71377 0.0
C1004 C 0.60478 0.54263 0.76417 0.0
C1005 C 0.61153 0.5438 0.73538 0.0
C1006 C 0.60821 0.53673 0.77908 0.0
C1007 C 0.61845 0.52401 0.78067 0.0
C1008 C 0.61175 0.53578 0.75079 0.0
C1009 C 0.62457 0.51704 0.76702 0.0
C1010 C 0.59981 0.55469 0.73148 0.0
C1011 C 0.62767 0.5537 0.71483 0.0
N1012 N 0.62137 0.5232 0.75269 0.0
N1013 N 0.6246 0.54291 0.72618 0.0
H1014 H 0.71646 0.46108 0.78372 0.0
H1015 H 0.7363 0.50565 0.71959 0.0
H1016 H 0.766 0.45468 0.79075 0.0
H1017 H 0.78071 0.50901 0.74364 0.0
H1018 H 0.72989 0.48243 0.73504 0.0
H1019 H 0.7218 0.47298 0.75834 0.0
C1020 C 0.72843 0.46146 0.77958 0.0
C1021 C 0.74084 0.45762 0.78963 0.0
C1022 C 0.74104 0.48819 0.73698 0.0
C1023 C 0.74725 0.47107 0.7605 0.0
C1024 C 0.74477 0.50143 0.72807 0.0
C1025 C 0.75896 0.50947 0.73055 0.0
C1026 C 0.75154 0.48299 0.74855 0.0
C1027 C 0.76956 0.50332 0.74148 0.0
C1028 C 0.73156 0.46836 0.765 0.0
C1029 C 0.7561 0.45787 0.78345 0.0
N1030 N 0.76556 0.49055 0.75018 0.0
N1031 N 0.75895 0.46508 0.76954 0.0
H1032 H 0.82352 0.52702 0.99142 0.0
H1033 H 0.84817 0.48853 0.07193 0.0
H1034 H 0.85594 0.48844 0.99558 0.0
H1035 H 0.80895 0.51982 0.06499 0.0
H1036 H 0.85776 0.49513 0.04572 0.0
H1037 H 0.82572 0.5317 0.01958 0.0
C1038 C 0.83155 0.5199 0.99823 0.0
C1039 C 0.83937 0.50719 0.99135 0.0
C1040 C 0.84725 0.5008 0.05008 0.0
C1041 C 0.84147 0.51202 0.02352 0.0
C1042 C 0.84172 0.49701 0.06501 0.0
C1043 C 0.82748 0.5033 0.07041 0.0
C1044 C 0.83849 0.51099 0.04057 0.0
C1045 C 0.81979 0.51444 0.06111 0.0
C1046 C 0.83272 0.52249 0.0143 0.0
C1047 C 0.84969 0.49832 0.00055 0.0
N1048 N 0.82527 0.51775 0.04653 0.0
N1049 N 0.85011 0.50062 0.01633 0.0
H1050 H 0.76668 0.57653 0.35419 0.0
H1051 H 0.75047 0.53849 0.28593 0.0
H1052 H 0.78055 0.53184 0.37343 0.0
H1053 H 0.77639 0.49982 0.30565 0.0
H1054 H 0.74724 0.54944 0.31203 0.0
H1055 H 0.75759 0.56341 0.33074 0.0
C1056 C 0.76742 0.56385 0.35361 0.0
C1057 C 0.77454 0.55531 0.3657 0.0
C1058 C 0.75383 0.53868 0.31079 0.0
C1059 C 0.76392 0.53986 0.33872 0.0
C1060 C 0.75542 0.53226 0.29584 0.0
C1061 C 0.76423 0.51855 0.29357 0.0
C1062 C 0.76158 0.53161 0.32352 0.0
C1063 C 0.76994 0.51068 0.30682 0.0
C1064 C 0.76209 0.55623 0.34016 0.0
C1065 C 0.7752 0.5389 0.36433 0.0
N1066 N 0.76888 0.51755 0.32122 0.0
N1067 N 0.77023 0.53174 0.35096 0.0
H1068 H 0.88411 0.65326 0.48527 0.0
H1069 H 0.83021 0.61383 0.52418 0.0
H1070 H 0.8914 0.67346 0.53076 0.0
H1071 H 0.85776 0.61943 0.56626 0.0
H1072 H 0.8526 0.62296 0.50875 0.0
H1073 H 0.87717 0.62833 0.49757 0.0
C1074 C 0.88526 0.65222 0.49789 0.0
C1075 C 0.88642 0.66581 0.50719 0.0
C1076 C 0.85404 0.62156 0.52129 0.0
C1077 C 0.87891 0.63755 0.52129 0.0
C1078 C 0.84113 0.61646 0.53012 0.0
C1079 C 0.84194 0.61642 0.54655 0.0
C1080 C 0.86777 0.62665 0.52902 0.0
C1081 C 0.85645 0.61976 0.55363 0.0
C1082 C 0.88077 0.63806 0.50491 0.0
C1083 C 0.88914 0.66348 0.52323 0.0
N1084 N 0.86862 0.62517 0.54488 0.0
N1085 N 0.88431 0.64985 0.52997 0.0
H1086 H 0.50231 0.07052 0.81163 0.0
H1087 H 0.47644 0.00095 0.86582 0.0
H1088 H 0.47165 0.07613 0.85156 0.0
H1089 H 0.51049 0.99707 0.82859 0.0
H1090 H 0.4798 0.02947 0.86551 0.0
H1091 H 0.51053 0.04511 0.82186 0.0
C1092 C 0.49746 0.06647 0.82267 0.0
C1093 C 0.48597 0.07519 0.83054 0.0
C1094 C 0.48692 0.02236 0.85775 0.0
C1095 C 0.49511 0.04606 0.84224 0.0
C1096 C 0.4851 0.00607 0.85804 0.0
C1097 C 0.493 0.9968 0.847 0.0
C1098 C 0.49661 0.02923 0.84627 0.0
C1099 C 0.50399 0.00394 0.83709 0.0
C1100 C 0.50218 0.05198 0.82856 0.0
C1101 C 0.48029 0.06959 0.84494 0.0
N1102 N 0.50524 0.01978 0.83672 0.0
N1103 N 0.48466 0.05519 0.85017 0.0
H1104 H 0.96622 0.3651 0.23741 0.0
H1105 H 0.95489 0.34514 0.16516 0.0
H1106 H 0.98119 0.41081 0.22159 0.0
H1107 H 0.98346 0.38584 0.15555 0.0
H1108 H 0.94456 0.35822 0.18836 0.0
H1109 H 0.95274 0.36121 0.2128 0.0
C1110 C 0.96625 0.37457 0.22893 0.0
C1111 C 0.97566 0.3879 0.23119 0.0
C1112 C 0.95301 0.36438 0.18116 0.0
C1113 C 0.96029 0.38351 0.20266 0.0
C1114 C 0.95879 0.35696 0.16775 0.0
C1115 C 0.97086 0.364 0.15898 0.0
C1116 C 0.95968 0.3787 0.18595 0.0
C1117 C 0.9748 0.3796 0.16244 0.0
C1118 C 0.95842 0.37238 0.21474 0.0
C1119 C 0.9747 0.4 0.22006 0.0
N1120 N 0.96961 0.38624 0.17594 0.0
N1121 N 0.96766 0.39729 0.20603 0.0
H1122 H 0.95076 0.7143 0.37837 0.0
H1123 H 0.95144 0.74808 0.44679 0.0
H1124 H 0.93568 0.76001 0.36262 0.0
H1125 H 0.92277 0.78518 0.4277 0.0
H1126 H 0.94365 0.73128 0.42533 0.0
H1127 H 0.93754 0.71885 0.40329 0.0
C1128 C 0.94438 0.72517 0.38 0.0
C1129 C 0.94516 0.73721 0.36876 0.0
C1130 C 0.93849 0.74285 0.42598 0.0
C1131 C 0.93068 0.74279 0.39752 0.0
C1132 C 0.94306 0.75255 0.43835 0.0
C1133 C 0.93846 0.76835 0.43855 0.0
C1134 C 0.92944 0.74913 0.41367 0.0
C1135 C 0.92721 0.77328 0.42759 0.0
C1136 C 0.93698 0.72786 0.39438 0.0
C1137 C 0.93609 0.75071 0.37127 0.0
N1138 N 0.92348 0.76387 0.41529 0.0
N1139 N 0.92963 0.75334 0.38557 0.0
H1140 H 0.5872 0.71515 0.80072 0.0
H1141 H 0.62365 0.74145 0.72293 0.0
H1142 H 0.59418 0.76286 0.78608 0.0
H1143 H 0.61249 0.6938 0.73544 0.0
H1144 H 0.62539 0.74812 0.7506 0.0
H1145 H 0.60866 0.70692 0.78375 0.0
C1146 C 0.594 0.72412 0.7948 0.0
C1147 C 0.58824 0.73955 0.79391 0.0
C1148 C 0.62288 0.73608 0.74736 0.0
C1149 C 0.61254 0.73026 0.77424 0.0
C1150 C 0.62192 0.73221 0.73148 0.0
C1151 C 0.61677 0.71722 0.72686 0.0
C1152 C 0.61849 0.72495 0.75869 0.0
C1153 C 0.61531 0.70574 0.73854 0.0
C1154 C 0.60607 0.71933 0.78475 0.0
C1155 C 0.59777 0.75067 0.78645 0.0
N1156 N 0.61559 0.70993 0.75395 0.0
N1157 N 0.60895 0.74574 0.77617 0.0
H1158 H 0.59785 0.33058 0.96393 0.0
H1159 H 0.61956 0.30352 0.88547 0.0
H1160 H 0.56006 0.31545 0.93399 0.0
H1161 H 0.62604 0.35378 0.88702 0.0
H1162 H 0.6032 0.30529 0.90894 0.0
H1163 H 0.61225 0.33966 0.94079 0.0
C1164 C 0.59213 0.33001 0.95259 0.0
C1165 C 0.57806 0.32151 0.95079 0.0
C1166 C 0.60839 0.31588 0.90418 0.0
C1167 C 0.59461 0.3315 0.92448 0.0
C1168 C 0.61798 0.31487 0.89097 0.0
C1169 C 0.6242 0.32853 0.88418 0.0
C1170 C 0.60529 0.33055 0.91092 0.0
C1171 C 0.62146 0.34295 0.89184 0.0
C1172 C 0.60051 0.33499 0.93938 0.0
C1173 C 0.57116 0.32132 0.93587 0.0
N1174 N 0.6122 0.34362 0.90488 0.0
N1175 N 0.57987 0.32546 0.92314 0.0
H1176 H 0.16346 0.95715 0.3118 0.0
H1177 H 0.22873 0.96571 0.37445 0.0
H1178 H 0.15756 0.96035 0.36201 0.0
H1179 H 0.23168 0.97951 0.32584 0.0
H1180 H 0.20698 0.9483 0.36794 0.0
H1181 H 0.1908 0.94971 0.31574 0.0
C1182 C 0.16769 0.95569 0.32369 0.0
C1183 C 0.15847 0.96021 0.33661 0.0
C1184 C 0.21279 0.95467 0.35859 0.0
C1185 C 0.18966 0.95168 0.34109 0.0
C1186 C 0.22519 0.96465 0.36229 0.0
C1187 C 0.23143 0.97467 0.35078 0.0
C1188 C 0.20652 0.95497 0.34338 0.0
C1189 C 0.2268 0.9724 0.33517 0.0
C1190 C 0.18334 0.95142 0.3259 0.0
C1191 C 0.16448 0.95764 0.3517 0.0
N1192 N 0.21421 0.96316 0.33198 0.0
N1193 N 0.17986 0.95396 0.35353 0.0
H1194 H 0.35328 0.80347 0.60322 0.0
H1195 H 0.37609 0.87268 0.62472 0.0
H1196 H 0.39947 0.79386 0.58564 0.0
H1197 H 0.4108 0.86437 0.58895 0.0
H1198 H 0.37599 0.84476 0.63084 0.0
H1199 H 0.36388 0.82413 0.61951 0.0
C1200 C 0.36591 0.80496 0.60359 0.0
C1201 C 0.37535 0.79794 0.59211 0.0
C1202 C 0.38375 0.84899 0.62172 0.0
C1203 C 0.38775 0.82182 0.61046 0.0
C1204 C 0.38394 0.86501 0.61829 0.0
C1205 C 0.39283 0.87071 0.60558 0.0
C1206 C 0.39228 0.83858 0.61217 0.0
C1207 C 0.40321 0.86031 0.59824 0.0
C1208 C 0.37203 0.81714 0.61275 0.0
C1209 C 0.39164 0.79986 0.59365 0.0
N1210 N 0.40232 0.84467 0.60129 0.0
N1211 N 0.39729 0.81239 0.60177 0.0
H1212 H 0.34565 0.12274 0.8523 0.0
H1213 H 0.42083 0.13232 0.85586 0.0
H1214 H 0.3552 0.11178 0.80379 0.0
H1215 H 0.4222 0.13488 0.80534 0.0
H1216 H 0.39327 0.13888 0.85529 0.0
H1217 H 0.36767 0.14095 0.85224 0.0
C1218 C 0.35225 0.12434 0.84155 0.0
C1219 C 0.34915 0.11507 0.82828 0.0
C1220 C 0.39952 0.13864 0.84426 0.0
C1221 C 0.37492 0.13519 0.82839 0.0
C1222 C 0.41542 0.13483 0.84463 0.0
C1223 C 0.42359 0.13217 0.8306 0.0
C1224 C 0.39174 0.13943 0.8297 0.0
C1225 C 0.41617 0.13617 0.81645 0.0
C1226 C 0.36497 0.13465 0.84156 0.0
C1227 C 0.35756 0.1182 0.81449 0.0
N1228 N 0.40049 0.13901 0.81632 0.0
N1229 N 0.37039 0.12763 0.81505 0.0
H1230 H 0.29152 0.17943 0.1586 0.0
H1231 H 0.26774 0.26583 0.13289 0.0
H1232 H 0.2757 0.1916 0.11201 0.0
H1233 H 0.30063 0.25441 0.16961 0.0
H1234 H 0.26165 0.23802 0.13003 0.0
H1235 H 0.28514 0.20591 0.16736 0.0
C1236 C 0.28631 0.18751 0.15028 0.0
C1237 C 0.2846 0.1834 0.1344 0.0
C1238 C 0.27001 0.24169 0.13887 0.0
C1239 C 0.27733 0.21373 0.14442 0.0
C1240 C 0.27365 0.25759 0.14042 0.0
C1241 C 0.28548 0.26246 0.15084 0.0
C1242 C 0.2779 0.23065 0.14817 0.0
C1243 C 0.2919 0.25116 0.16097 0.0
C1244 C 0.28271 0.20264 0.15532 0.0
C1245 C 0.27749 0.19431 0.12429 0.0
N1246 N 0.28824 0.23576 0.15921 0.0
N1247 N 0.27443 0.20912 0.1294 0.0
H1248 H 0.1332 0.16382 0.2997 0.0
H1249 H 0.20977 0.13765 0.25771 0.0
H1250 H 0.13803 0.12432 0.26834 0.0
H1251 H 0.20653 0.16921 0.2972 0.0
H1252 H 0.18224 0.14265 0.25184 0.0
H1253 H 0.15721 0.17498 0.28888 0.0
C1254 C 0.13904 0.1577 0.2902 0.0
C1255 C 0.13402 0.14273 0.28543 0.0
C1256 C 0.18771 0.14893 0.26145 0.0
C1257 C 0.16159 0.15539 0.27318 0.0
C1258 C 0.2035 0.14614 0.26479 0.0
C1259 C 0.21024 0.15241 0.27847 0.0
C1260 C 0.17872 0.15799 0.27188 0.0
C1261 C 0.2016 0.16361 0.28692 0.0
C1262 C 0.15276 0.16412 0.28401 0.0
C1263 C 0.14175 0.13564 0.27273 0.0
N1264 N 0.18613 0.16568 0.28378 0.0
N1265 N 0.15545 0.1418 0.26737 0.0
H1266 H 0.22005 0.90754 0.56445 0.0
H1267 H 0.21744 0.8823 0.48023 0.0
H1268 H 0.2015 0.93787 0.52865 0.0
H1269 H 0.21463 0.84812 0.51752 0.0
H1270 H 0.206 0.90183 0.49779 0.0
H1271 H 0.21136 0.88485 0.54939 0.0
C1272 C 0.21319 0.9095 0.55392 0.0
C1273 C 0.21215 0.92458 0.54741 0.0
C1274 C 0.20745 0.88994 0.50202 0.0
C1275 C 0.20282 0.89871 0.52975 0.0
C1276 C 0.21404 0.87876 0.49195 0.0
C1277 C 0.21744 0.86362 0.49747 0.0
C1278 C 0.20459 0.88607 0.51782 0.0
C1279 C 0.21257 0.85973 0.51278 0.0
C1280 C 0.20852 0.89646 0.54509 0.0
C1281 C 0.20299 0.92636 0.53381 0.0
N1282 N 0.20685 0.87098 0.52255 0.0
N1283 N 0.19942 0.91357 0.52496 0.0
H1284 H 0.38659 0.92337 0.78428 0.0
H1285 H 0.45971 0.96759 0.76835 0.0
H1286 H 0.39332 0.94973 0.74156 0.0
H1287 H 0.45815 0.92856 0.80058 0.0
H1288 H 0.4393 0.95508 0.75276 0.0
H1289 H 0.41458 0.91789 0.78491 0.0
C1290 C 0.39386 0.92761 0.77476 0.0
C1291 C 0.38774 0.93776 0.76335 0.0
C1292 C 0.44375 0.94895 0.76296 0.0
C1293 C 0.41988 0.93199 0.76426 0.0
C1294 C 0.45547 0.95613 0.77187 0.0
C1295 C 0.45999 0.94951 0.78623 0.0
C1296 C 0.43635 0.93535 0.76872 0.0
C1297 C 0.4544 0.93445 0.78996 0.0
C1298 C 0.40992 0.92448 0.7751 0.0
C1299 C 0.39764 0.94242 0.751 0.0
N1300 N 0.44246 0.92812 0.78157 0.0
N1301 N 0.41335 0.94003 0.75211 0.0
H1302 H 0.33777 0.19367 0.96745 0.0
H1303 H 0.35439 0.26385 0.99485 0.0
H1304 H 0.38648 0.18525 0.97844 0.0
H1305 H 0.40336 0.25446 0.98601 0.0
H1306 H 0.34742 0.24216 0.97783 0.0
H1307 H 0.34397 0.22111 0.96227 0.0
C1308 C 0.34986 0.19747 0.96839 0.0
C1309 C 0.3615 0.18735 0.97423 0.0
C1310 C 0.3597 0.24514 0.97897 0.0
C1311 C 0.36852 0.21883 0.96894 0.0
C1312 C 0.36369 0.25762 0.98881 0.0
C1313 C 0.37948 0.26049 0.99241 0.0
C1314 C 0.37164 0.23546 0.97286 0.0
C1315 C 0.391 0.25221 0.98404 0.0
C1316 C 0.35336 0.21324 0.96562 0.0
C1317 C 0.37701 0.19281 0.97466 0.0
N1318 N 0.38687 0.23974 0.97505 0.0
N1319 N 0.37999 0.20829 0.9725 0.0
H1320 H 0.79406 0.36888 0.11339 0.0
H1321 H 0.79994 0.44267 0.13278 0.0
H1322 H 0.84425 0.36486 0.11871 0.0
H1323 H 0.84939 0.43531 0.12469 0.0
H1324 H 0.79744 0.41534 0.14065 0.0
H1325 H 0.79442 0.39225 0.12944 0.0
C1326 C 0.80513 0.37262 0.11839 0.0
C1327 C 0.81926 0.36538 0.11397 0.0
C1328 C 0.80889 0.41965 0.13728 0.0
C1329 C 0.81988 0.39245 0.1324 0.0
C1330 C 0.81038 0.43541 0.133 0.0
C1331 C 0.82473 0.44102 0.12713 0.0
C1332 C 0.82178 0.40951 0.13532 0.0
C1333 C 0.83791 0.43126 0.12835 0.0
C1334 C 0.80537 0.3861 0.12768 0.0
C1335 C 0.83314 0.37049 0.12121 0.0
N1336 N 0.83603 0.41585 0.13184 0.0
N1337 N 0.83317 0.38399 0.12966 0.0
H1338 H 0.91958 0.59258 0.35178 0.0
H1339 H 0.84152 0.61219 0.35503 0.0
H1340 H 0.90383 0.55335 0.37975 0.0
H1341 H 0.84129 0.59183 0.40144 0.0
H1342 H 0.8694 0.60619 0.35292 0.0
H1343 H 0.89627 0.60718 0.35956 0.0
C1344 C 0.91138 0.58709 0.3598 0.0
C1345 C 0.91358 0.57151 0.36487 0.0
C1346 C 0.86341 0.60357 0.36381 0.0
C1347 C 0.88665 0.58824 0.3736 0.0
C1348 C 0.84742 0.60701 0.36502 0.0
C1349 C 0.83891 0.60242 0.37837 0.0
C1350 C 0.87093 0.59531 0.37596 0.0
C1351 C 0.84727 0.59556 0.39087 0.0
C1352 C 0.89799 0.59544 0.36411 0.0
C1353 C 0.90259 0.56523 0.37543 0.0
N1354 N 0.8627 0.5918 0.38917 0.0
N1355 N 0.88949 0.57356 0.37931 0.0
H1356 H 0.76478 0.63401 0.58585 0.0
H1357 H 0.74637 0.7122 0.61544 0.0
H1358 H 0.77011 0.66175 0.54381 0.0
H1359 H 0.79216 0.71656 0.59416 0.0
H1360 H 0.74302 0.68679 0.60191 0.0
H1361 H 0.7606 0.65818 0.60089 0.0
C1362 C 0.76456 0.6451 0.57965 0.0
C1363 C 0.76818 0.6458 0.56352 0.0
C1364 C 0.75379 0.69336 0.60038 0.0
C1365 C 0.76372 0.67342 0.58083 0.0
C1366 C 0.75581 0.70774 0.60818 0.0
C1367 C 0.76965 0.71652 0.60611 0.0
C1368 C 0.76546 0.68804 0.59005 0.0
C1369 C 0.78138 0.71019 0.59635 0.0
C1370 C 0.76223 0.65887 0.5883 0.0
C1371 C 0.76757 0.66057 0.5562 0.0
N1372 N 0.77889 0.69653 0.58847 0.0
N1373 N 0.76594 0.67384 0.565 0.0
H1374 H 0.90728 0.51273 0.25768 0.0
H1375 H 0.81956 0.50009 0.22809 0.0
H1376 H 0.88182 0.54614 0.22931 0.0
H1377 H 0.83915 0.47789 0.26923 0.0
H1378 H 0.84536 0.51085 0.22198 0.0
H1379 H 0.88538 0.4945 0.25543 0.0
C1380 C 0.89727 0.51614 0.25065 0.0
C1381 C 0.89636 0.53117 0.24385 0.0
C1382 C 0.84406 0.5033 0.23212 0.0
C1383 C 0.8712 0.51017 0.24126 0.0
C1384 C 0.82934 0.49699 0.23559 0.0
C1385 C 0.82701 0.48832 0.24946 0.0
C1386 C 0.8566 0.50075 0.24244 0.0
C1387 C 0.84027 0.48466 0.25854 0.0
C1388 C 0.88473 0.50569 0.24944 0.0
C1389 C 0.88303 0.53478 0.23487 0.0
N1390 N 0.85444 0.49113 0.25503 0.0
N1391 N 0.87089 0.52442 0.23398 0.0
H1392 H 0.77717 0.59659 0.70975 0.0
H1393 H 0.70156 0.60185 0.68874 0.0
H1394 H 0.75748 0.58489 0.75487 0.0
H1395 H 0.69013 0.61298 0.7368 0.0
H1396 H 0.72929 0.60332 0.69526 0.0
H1397 H 0.75351 0.61145 0.70355 0.0
C1398 C 0.76811 0.59765 0.71861 0.0
C1399 C 0.7691 0.58906 0.73265 0.0
C1400 C 0.72081 0.60611 0.7043 0.0
C1401 C 0.74161 0.60527 0.72526 0.0
C1402 C 0.70489 0.60517 0.70055 0.0
C1403 C 0.69347 0.60715 0.71224 0.0
C1404 C 0.72539 0.6088 0.71995 0.0
C1405 C 0.69851 0.61136 0.72738 0.0
C1406 C 0.75443 0.60586 0.71491 0.0
C1407 C 0.7571 0.59105 0.74377 0.0
N1408 N 0.71409 0.61158 0.7309 0.0
N1409 N 0.7436 0.59855 0.73964 0.0
H1410 H 0.50498 0.86888 0.6356 0.0
H1411 H 0.45409 0.84826 0.69272 0.0
H1412 H 0.53938 0.85103 0.66814 0.0
H1413 H 0.49179 0.85381 0.72607 0.0
H1414 H 0.47103 0.85875 0.6723 0.0
H1415 H 0.48729 0.87405 0.65753 0.0
C1416 C 0.50902 0.86651 0.64742 0.0
C1417 C 0.52352 0.85907 0.64997 0.0
C1418 C 0.47548 0.8583 0.68417 0.0
C1419 C 0.503 0.8642 0.67505 0.0
C1420 C 0.46577 0.85218 0.69587 0.0
C1421 C 0.47153 0.84994 0.71113 0.0
C1422 C 0.49119 0.86204 0.68768 0.0
C1423 C 0.48681 0.85524 0.71448 0.0
C1424 C 0.49878 0.86918 0.65992 0.0
C1425 C 0.52823 0.85653 0.66555 0.0
N1426 N 0.49624 0.86062 0.70277 0.0
N1427 N 0.51782 0.8587 0.67748 0.0
H1428 H 0.46805 0.21277 0.8423 0.0
H1429 H 0.4735 0.29609 0.81599 0.0
H1430 H 0.46522 0.25266 0.87341 0.0
H1431 H 0.46772 0.2569 0.78472 0.0
H1432 H 0.45822 0.2823 0.83576 0.0
H1433 H 0.45669 0.22863 0.82146 0.0
C1434 C 0.46466 0.22474 0.84491 0.0
C1435 C 0.46833 0.23158 0.85944 0.0
C1436 C 0.45965 0.2769 0.82434 0.0
C1437 C 0.45565 0.25 0.83544 0.0
C1438 C 0.46815 0.28498 0.81286 0.0
C1439 C 0.47272 0.27713 0.79914 0.0
C1440 C 0.45592 0.26098 0.82187 0.0
C1441 C 0.46507 0.26299 0.79556 0.0
C1442 C 0.45811 0.23384 0.83296 0.0
C1443 C 0.46318 0.24702 0.86222 0.0
N1444 N 0.45772 0.25493 0.80718 0.0
N1445 N 0.4576 0.25586 0.85018 0.0
H1446 H 0.13854 0.26507 0.1699 0.0
H1447 H 0.16133 0.30381 0.24753 0.0
H1448 H 0.16637 0.30716 0.17454 0.0
H1449 H 0.13381 0.26152 0.24305 0.0
H1450 H 0.1733 0.29837 0.22217 0.0
H1451 H 0.14676 0.2571 0.19606 0.0
C1452 C 0.14671 0.27247 0.17623 0.0
C1453 C 0.15106 0.28724 0.17037 0.0
C1454 C 0.16498 0.29 0.22691 0.0
C1455 C 0.16027 0.27831 0.20044 0.0
C1456 C 0.15812 0.29312 0.24144 0.0
C1457 C 0.1459 0.28358 0.24699 0.0
C1458 C 0.15926 0.27751 0.2178 0.0
C1459 C 0.14271 0.26958 0.2389 0.0
C1460 C 0.15143 0.26788 0.19121 0.0
C1461 C 0.16213 0.29599 0.17887 0.0
N1462 N 0.14893 0.26725 0.22442 0.0
N1463 N 0.16596 0.29164 0.1937 0.0
H1464 H 0.11741 0.849 0.43063 0.0
H1465 H 0.13382 0.80354 0.35402 0.0
H1466 H 0.13175 0.80053 0.4277 0.0
H1467 H 0.11504 0.8505 0.3571 0.0
H1468 H 0.14491 0.80659 0.38016 0.0
H1469 H 0.12842 0.85355 0.40463 0.0
C1470 C 0.1233 0.83941 0.42471 0.0
C1471 C 0.12302 0.82419 0.43101 0.0
C1472 C 0.13877 0.81641 0.37494 0.0
C1473 C 0.13529 0.82924 0.40112 0.0
C1474 C 0.13242 0.8147 0.35996 0.0
C1475 C 0.12273 0.82648 0.35369 0.0
C1476 C 0.13522 0.8299 0.38373 0.0
C1477 C 0.12187 0.84084 0.36172 0.0
C1478 C 0.12959 0.84202 0.40984 0.0
C1479 C 0.13127 0.81235 0.42307 0.0
N1480 N 0.12757 0.84197 0.37655 0.0
N1481 N 0.13661 0.815 0.40828 0.0
H1482 H 0.70345 0.49662 0.86041 0.0
H1483 H 0.61219 0.50661 0.85361 0.0
H1484 H 0.67048 0.45899 0.85263 0.0
H1485 H 0.64592 0.54412 0.85109 0.0
H1486 H 0.63225 0.48958 0.86504 0.0
H1487 H 0.68192 0.51343 0.86879 0.0
C1488 C 0.69175 0.49166 0.86093 0.0
C1489 C 0.68868 0.47653 0.85506 0.0
C1490 C 0.63513 0.50172 0.86262 0.0
C1491 C 0.66393 0.49591 0.86454 0.0
C1492 C 0.62362 0.5115 0.85626 0.0
C1493 C 0.62748 0.52671 0.85133 0.0
C1494 C 0.65064 0.50718 0.86377 0.0
C1495 C 0.64249 0.53245 0.85479 0.0
C1496 C 0.67942 0.50136 0.86566 0.0
C1497 C 0.6733 0.47078 0.85641 0.0
N1498 N 0.65367 0.52254 0.8604 0.0
N1499 N 0.66142 0.4806 0.86059 0.0
H1500 H 0.72255 0.41342 0.95647 0.0
H1501 H 0.78392 0.47504 0.92907 0.0
H1502 H 0.76003 0.40593 0.9232 0.0
H1503 H 0.75663 0.47674 0.97172 0.0
H1504 H 0.76529 0.45627 0.91818 0.0
H1505 H 0.72487 0.4416 0.95232 0.0
C1506 C 0.73084 0.4176 0.94779 0.0
C1507 C 0.74172 0.40735 0.9408 0.0
C1508 C 0.76307 0.46115 0.92971 0.0
C1509 C 0.74442 0.43956 0.93614 0.0
C1510 C 0.77374 0.47183 0.93598 0.0
C1511 C 0.77219 0.47686 0.95162 0.0
C1512 C 0.75096 0.45534 0.93923 0.0
C1513 C 0.75852 0.47277 0.9598 0.0
C1514 C 0.73217 0.43376 0.94548 0.0
C1515 C 0.75186 0.41348 0.92936 0.0
N1516 N 0.74865 0.46184 0.95368 0.0
N1517 N 0.75331 0.42925 0.92773 0.0
H1518 H 0.76465 0.75294 0.46999 0.0
H1519 H 0.85248 0.73901 0.45375 0.0
H1520 H 0.7954 0.78924 0.45294 0.0
H1521 H 0.81908 0.70125 0.45893 0.0
H1522 H 0.83102 0.75661 0.4469 0.0
H1523 H 0.78245 0.7332 0.45935 0.0
C1524 C 0.77481 0.75678 0.46337 0.0
C1525 C 0.77887 0.77272 0.46275 0.0
C1526 C 0.82841 0.74437 0.44909 0.0
C1527 C 0.79959 0.75022 0.45104 0.0
C1528 C 0.84072 0.73426 0.45297 0.0
C1529 C 0.83759 0.7187 0.45741 0.0
C1530 C 0.81284 0.73894 0.44989 0.0
C1531 C 0.82208 0.71323 0.45596 0.0
C1532 C 0.78511 0.74548 0.45744 0.0
C1533 C 0.79219 0.77701 0.45411 0.0
N1534 N 0.81025 0.72344 0.45277 0.0
N1535 N 0.80235 0.76583 0.449 0.0
H1536 H 0.0662 0.38764 0.22968 0.0
H1537 H 0.07365 0.32607 0.15883 0.0
H1538 H 0.02799 0.36109 0.21002 0.0
H1539 H 0.11361 0.3522 0.17575 0.0
H1540 H 0.05682 0.34069 0.17648 0.0
H1541 H 0.08369 0.37702 0.20909 0.0
C1542 C 0.06144 0.37988 0.22082 0.0
C1543 C 0.04565 0.37522 0.22148 0.0
C1544 C 0.06924 0.34336 0.17637 0.0
C1545 C 0.06547 0.36293 0.19813 0.0
C1546 C 0.07894 0.33495 0.16623 0.0
C1547 C 0.0952 0.33775 0.1658 0.0
C1548 C 0.07568 0.35475 0.18639 0.0
C1549 C 0.10118 0.3496 0.17565 0.0
C1550 C 0.07142 0.37373 0.20916 0.0
C1551 C 0.04009 0.36496 0.20991 0.0
N1552 N 0.09145 0.35757 0.18565 0.0
N1553 N 0.04995 0.35917 0.1988 0.0
H1554 H 0.06294 0.79203 0.37179 0.0
H1555 H 0.98501 0.82599 0.41165 0.0
H1556 H 0.04026 0.83364 0.35396 0.0
H1557 H 0.01606 0.79222 0.4331 0.0
H1558 H 0.00379 0.82875 0.38985 0.0
H1559 H 0.04469 0.79177 0.39366 0.0
C1560 C 0.05401 0.80105 0.37237 0.0
C1561 C 0.05313 0.81284 0.3609 0.0
C1562 C 0.00648 0.82082 0.3994 0.0
C1563 C 0.03179 0.81234 0.38606 0.0
C1564 C 0.99576 0.81921 0.41185 0.0
C1565 C 0.99887 0.80879 0.42429 0.0
C1566 C 0.02033 0.81184 0.39932 0.0
C1567 C 0.01304 0.80036 0.42385 0.0
C1568 C 0.04357 0.80089 0.38494 0.0
C1569 C 0.04137 0.82433 0.36253 0.0
N1570 N 0.02311 0.80201 0.4116 0.0
N1571 N 0.03105 0.82372 0.3748 0.0
H1572 H 0.52534 0.79293 0.75793 0.0
H1573 H 0.51396 0.82293 0.68223 0.0
H1574 H 0.56423 0.76865 0.73652 0.0
H1575 H 0.55792 0.79988 0.67189 0.0
H1576 H 0.51815 0.81728 0.7102 0.0
H1577 H 0.52372 0.81008 0.73489 0.0
C1578 C 0.53374 0.79142 0.74851 0.0
C1579 C 0.54444 0.77886 0.74875 0.0
C1580 C 0.52696 0.81363 0.70184 0.0
C1581 C 0.54279 0.79843 0.72244 0.0
C1582 C 0.52443 0.81669 0.68581 0.0
C1583 C 0.53541 0.81162 0.67458 0.0
C1584 C 0.54042 0.80518 0.70653 0.0
C1585 C 0.54896 0.80391 0.67995 0.0
C1586 C 0.53276 0.80119 0.73528 0.0
C1587 C 0.55535 0.77773 0.73653 0.0
N1588 N 0.55095 0.80085 0.69538 0.0
N1589 N 0.55413 0.78725 0.72386 0.0
H1590 H 0.53469 0.27078 0.92239 0.0
H1591 H 0.54253 0.30947 0.83741 0.0
H1592 H 0.57397 0.29895 0.90726 0.0
H1593 H 0.51226 0.27034 0.84816 0.0
H1594 H 0.54855 0.31209 0.86541 0.0
H1595 H 0.52145 0.2765 0.89763 0.0
C1596 C 0.54051 0.27831 0.91396 0.0
C1597 C 0.55563 0.28424 0.9169 0.0
C1598 C 0.54036 0.30313 0.86166 0.0
C1599 C 0.54025 0.29116 0.88864 0.0
C1600 C 0.53694 0.3016 0.84569 0.0
C1601 C 0.52729 0.28934 0.84042 0.0
C1602 C 0.53401 0.29236 0.87242 0.0
C1603 C 0.52016 0.27964 0.85167 0.0
C1604 C 0.53282 0.2817 0.89989 0.0
C1605 C 0.56241 0.29405 0.90555 0.0
N1606 N 0.52382 0.28124 0.86712 0.0
N1607 N 0.55467 0.2972 0.89196 0.0
H1608 H 0.08365 0.77747 0.41762 0.0
H1609 H 0.00391 0.73559 0.3912 0.0
H1610 H 0.04154 0.78047 0.44545 0.0
H1611 H 0.03364 0.76027 0.35856 0.0
H1612 H 0.02123 0.74398 0.41279 0.0
H1613 H 0.06893 0.76286 0.39748 0.0
C1614 C 0.07142 0.77464 0.41967 0.0
C1615 C 0.06376 0.78009 0.43318 0.0
C1616 C 0.02409 0.74726 0.40085 0.0
C1617 C 0.04699 0.76334 0.4104 0.0
C1618 C 0.01431 0.74241 0.38855 0.0
C1619 C 0.01741 0.74722 0.37311 0.0
C1620 C 0.03729 0.75658 0.39759 0.0
C1621 C 0.03087 0.7563 0.37032 0.0
C1622 C 0.06304 0.76641 0.40817 0.0
C1623 C 0.04783 0.77642 0.43517 0.0
N1624 N 0.04036 0.76062 0.38242 0.0
N1625 N 0.03996 0.76824 0.42391 0.0
H1626 H 0.55103 0.72895 0.72156 0.0
H1627 H 0.4908 0.79805 0.70328 0.0
H1628 H 0.55872 0.76271 0.6847 0.0
H1629 H 0.49526 0.77749 0.74926 0.0
H1630 H 0.51225 0.78135 0.69391 0.0
H1631 H 0.52753 0.74331 0.72961 0.0
C1632 C 0.54789 0.73955 0.71532 0.0
C1633 C 0.55708 0.74491 0.70272 0.0
C1634 C 0.50856 0.7805 0.70604 0.0
C1635 C 0.52982 0.76097 0.71149 0.0
C1636 C 0.49641 0.79004 0.71142 0.0
C1637 C 0.49172 0.78949 0.72719 0.0
C1638 C 0.51592 0.77016 0.71647 0.0
C1639 C 0.49896 0.77864 0.73716 0.0
C1640 C 0.5344 0.74761 0.71983 0.0
C1641 C 0.5522 0.75842 0.69473 0.0
N1642 N 0.51073 0.76934 0.73161 0.0
N1643 N 0.5388 0.76593 0.69917 0.0
H1644 H 0.53381 0.23927 0.84379 0.0
H1645 H 0.59364 0.30777 0.86753 0.0
H1646 H 0.5466 0.25072 0.89134 0.0
H1647 H 0.58171 0.2975 0.81957 0.0
H1648 H 0.57779 0.2856 0.876 0.0
H1649 H 0.55258 0.25897 0.83425 0.0
C1650 C 0.54071 0.24585 0.8522 0.0
C1651 C 0.53835 0.24381 0.86838 0.0
C1652 C 0.57791 0.28862 0.86369 0.0
C1653 C 0.55987 0.26615 0.85761 0.0
C1654 C 0.58685 0.30142 0.85887 0.0
C1655 C 0.58849 0.30483 0.84289 0.0
C1656 C 0.5699 0.27952 0.85254 0.0
C1657 C 0.58023 0.29559 0.83204 0.0
C1658 C 0.5514 0.25707 0.84676 0.0
C1659 C 0.5477 0.25239 0.87879 0.0
N1660 N 0.57115 0.28341 0.83706 0.0
N1661 N 0.55801 0.2632 0.87323 0.0
H1662 H 0.03283 0.29705 0.16757 0.0
H1663 H 0.07199 0.3323 0.24489 0.0
H1664 H 0.01903 0.34073 0.1889 0.0
H1665 H 0.0768 0.28333 0.23294 0.0
H1666 H 0.05282 0.33529 0.22394 0.0
H1667 H 0.04899 0.29117 0.1909 0.0
C1668 C 0.03289 0.30518 0.17735 0.0
C1669 C 0.02455 0.31934 0.17645 0.0
C1670 C 0.05796 0.32384 0.2259 0.0
C1671 C 0.04312 0.31293 0.20286 0.0
C1672 C 0.06898 0.32213 0.23788 0.0
C1673 C 0.07608 0.30754 0.2407 0.0
C1674 C 0.05409 0.31095 0.21637 0.0
C1675 C 0.07157 0.29478 0.23124 0.0
C1676 C 0.04217 0.30189 0.19059 0.0
C1677 C 0.02527 0.32966 0.18922 0.0
N1678 N 0.061 0.29681 0.21937 0.0
N1679 N 0.03443 0.3263 0.20181 0.0
H1680 H 0.16033 0.11191 0.33728 0.0
H1681 H 0.19541 0.03105 0.36885 0.0
H1682 H 0.13309 0.06929 0.33876 0.0
H1683 H 0.22371 0.06454 0.3435 0.0
H1684 H 0.17221 0.04727 0.36377 0.0
H1685 H 0.18349 0.09701 0.34595 0.0
C1686 C 0.15917 0.09949 0.33972 0.0
C1687 C 0.14485 0.09176 0.33718 0.0
C1688 C 0.18353 0.05109 0.35942 0.0
C1689 C 0.17112 0.07477 0.34711 0.0
C1690 C 0.19677 0.04189 0.36235 0.0
C1691 C 0.21152 0.04643 0.35655 0.0
C1692 C 0.18507 0.06513 0.35096 0.0
C1693 C 0.21256 0.06055 0.3481 0.0
C1694 C 0.17237 0.091 0.34454 0.0
C1695 C 0.14398 0.07563 0.34039 0.0
N1696 N 0.19952 0.06946 0.34562 0.0
N1697 N 0.15693 0.06766 0.3452 0.0
H1698 H 0.35829 0.86849 0.54838 0.0
H1699 H 0.27343 0.87646 0.50986 0.0
H1700 H 0.32524 0.9045 0.56142 0.0
H1701 H 0.29681 0.83176 0.5135 0.0
H1702 H 0.29493 0.88871 0.52435 0.0
H1703 H 0.33828 0.85662 0.5313 0.0
C1704 C 0.34678 0.87384 0.54766 0.0
C1705 C 0.34316 0.8872 0.55662 0.0
C1706 C 0.29529 0.87619 0.52216 0.0
C1707 C 0.3206 0.87412 0.53677 0.0
C1708 C 0.28298 0.86918 0.51405 0.0
C1709 C 0.28314 0.85301 0.511 0.0
C1710 C 0.30792 0.867 0.52725 0.0
C1711 C 0.296 0.84416 0.51617 0.0
C1712 C 0.33545 0.86713 0.53788 0.0
C1713 C 0.32828 0.89392 0.55506 0.0
N1714 N 0.30797 0.8513 0.52402 0.0
N1715 N 0.31757 0.88738 0.54522 0.0
H1716 H 0.35585 0.02431 0.82224 0.0
H1717 H 0.44674 0.02329 0.83862 0.0
H1718 H 0.37708 0.05874 0.85263 0.0
H1719 H 0.42111 0.98022 0.8318 0.0
H1720 H 0.4218 0.03726 0.84214 0.0
H1721 H 0.37988 0.00853 0.82379 0.0
C1722 C 0.36555 0.02851 0.8293 0.0
C1723 C 0.36445 0.04285 0.83735 0.0
C1724 C 0.42164 0.02472 0.84011 0.0
C1725 C 0.39216 0.02508 0.83877 0.0
C1726 C 0.43585 0.01675 0.83803 0.0
C1727 C 0.43598 0.00058 0.83488 0.0
C1728 C 0.40741 0.01655 0.83857 0.0
C1729 C 0.42154 0.99267 0.8343 0.0
C1730 C 0.37924 0.01949 0.83019 0.0
C1731 C 0.37739 0.04771 0.84634 0.0
N1732 N 0.40782 0.00077 0.83585 0.0
N1733 N 0.39079 0.03898 0.8466 0.0
H1734 H 0.39424 0.22715 0.05213 0.0
H1735 H 0.34005 0.19466 0.12176 0.0
H1736 H 0.36264 0.25644 0.07882 0.0
H1737 H 0.35644 0.16579 0.08359 0.0
H1738 H 0.3539 0.21718 0.11027 0.0
H1739 H 0.38567 0.20445 0.06754 0.0
C1740 C 0.38564 0.22886 0.06135 0.0
C1741 C 0.37905 0.24372 0.06408 0.0
C1742 C 0.35473 0.20583 0.1046 0.0
C1743 C 0.36932 0.21778 0.08184 0.0
C1744 C 0.34702 0.19295 0.11126 0.0
C1745 C 0.3472 0.17837 0.10362 0.0
C1746 C 0.36281 0.20402 0.09034 0.0
C1747 C 0.3561 0.17685 0.08985 0.0
C1748 C 0.38073 0.21588 0.07009 0.0
C1749 C 0.36791 0.24518 0.07618 0.0
N1750 N 0.36348 0.18954 0.08359 0.0
N1751 N 0.36339 0.23238 0.08459 0.0
H1752 H 0.19222 0.10224 0.31207 0.0
H1753 H 0.16931 0.01231 0.29727 0.0
H1754 H 0.22384 0.0702 0.28891 0.0
H1755 H 0.13964 0.04681 0.31933 0.0
H1756 H 0.18852 0.03317 0.2913 0.0
H1757 H 0.17198 0.08218 0.31181 0.0
C1758 C 0.19496 0.09087 0.30706 0.0
C1759 C 0.20982 0.08782 0.30068 0.0
C1760 C 0.17769 0.03618 0.29722 0.0
C1761 C 0.18666 0.06442 0.30086 0.0
C1762 C 0.16668 0.02432 0.30049 0.0
C1763 C 0.15294 0.02788 0.30887 0.0
C1764 C 0.17478 0.05163 0.3023 0.0
C1765 C 0.15017 0.04356 0.31298 0.0
C1766 C 0.18336 0.07938 0.30693 0.0
C1767 C 0.21254 0.07297 0.29403 0.0
N1768 N 0.16099 0.05477 0.30974 0.0
N1769 N 0.20113 0.0617 0.2945 0.0
H1770 H 0.29022 0.91268 0.57799 0.0
H1771 H 0.30372 0.82466 0.55007 0.0
H1772 H 0.2634 0.88986 0.54161 0.0
H1773 H 0.3374 0.85213 0.57602 0.0
H1774 H 0.28411 0.84521 0.55433 0.0
H1775 H 0.3026 0.88762 0.58425 0.0
C1776 C 0.28684 0.90235 0.57139 0.0
C1777 C 0.27613 0.90342 0.55892 0.0
C1778 C 0.29569 0.84656 0.55939 0.0
C1779 C 0.2901 0.87466 0.56622 0.0
C1780 C 0.3069 0.83486 0.55694 0.0
C1781 C 0.32238 0.83703 0.56215 0.0
C1782 C 0.29999 0.86041 0.56721 0.0
C1783 C 0.32576 0.85029 0.57128 0.0
C1784 C 0.29383 0.88803 0.57507 0.0
C1785 C 0.27198 0.88963 0.55098 0.0
N1786 N 0.31472 0.8616 0.57332 0.0
N1787 N 0.27908 0.87582 0.55468 0.0
H1788 H 0.42194 0.07927 0.7873 0.0
H1789 H 0.39383 0.99042 0.79919 0.0
H1790 H 0.44416 0.04538 0.81752 0.0
H1791 H 0.37232 0.02047 0.76464 0.0
H1792 H 0.41326 0.01057 0.80436 0.0
H1793 H 0.40472 0.05828 0.77711 0.0
C1794 C 0.42342 0.06737 0.79152 0.0
C1795 C 0.43439 0.06405 0.80337 0.0
C1796 C 0.40427 0.01291 0.79572 0.0
C1797 C 0.41473 0.04016 0.79198 0.0
C1798 C 0.39311 0.00137 0.79276 0.0
C1799 C 0.38127 0.00383 0.78161 0.0
C1800 C 0.40353 0.02734 0.78779 0.0
C1801 C 0.3812 0.01815 0.77341 0.0
C1802 C 0.41353 0.05544 0.7858 0.0
C1803 C 0.43573 0.0485 0.80854 0.0
N1804 N 0.39205 0.02949 0.77682 0.0
N1805 N 0.426 0.03723 0.80292 0.0
H1806 H 0.29606 0.24931 0.07457 0.0
H1807 H 0.33611 0.16614 0.05675 0.0
H1808 H 0.32072 0.22104 0.10862 0.0
H1809 H 0.31403 0.19383 0.02061 0.0
H1810 H 0.32724 0.18508 0.07627 0.0
H1811 H 0.29999 0.22848 0.05503 0.0
C1812 C 0.30223 0.23874 0.07798 0.0
C1813 C 0.3082 0.23705 0.09328 0.0
C1814 C 0.32432 0.18704 0.06411 0.0
C1815 C 0.31263 0.21315 0.07098 0.0
C1816 C 0.32928 0.17618 0.05294 0.0
C1817 C 0.32589 0.17848 0.03701 0.0
C1818 C 0.31619 0.20055 0.05938 0.0
C1819 C 0.31686 0.19161 0.03279 0.0
C1820 C 0.30446 0.22686 0.06681 0.0
C1821 C 0.31606 0.22305 0.09698 0.0
N1822 N 0.3125 0.20231 0.0439 0.0
N1823 N 0.31806 0.21173 0.08594 0.0
H1824 H 0.83307 0.46152 0.01953 0.0
H1825 H 0.80795 0.37215 0.02516 0.0
H1826 H 0.81531 0.436 0.97964 0.0
H1827 H 0.84304 0.39173 0.05593 0.0
H1828 H 0.80931 0.39586 0.00901 0.0
H1829 H 0.83587 0.43664 0.03382 0.0
C1830 C 0.82998 0.45063 0.01372 0.0
C1831 C 0.82397 0.45078 0.99839 0.0
C1832 C 0.81676 0.39496 0.01925 0.0
C1833 C 0.8268 0.42237 0.01475 0.0
C1834 C 0.81598 0.38144 0.0285 0.0
C1835 C 0.8254 0.37996 0.04194 0.0
C1836 C 0.82672 0.40733 0.02366 0.0
C1837 C 0.83564 0.39234 0.04563 0.0
C1838 C 0.83159 0.43646 0.02186 0.0
C1839 C 0.82009 0.43638 0.9914 0.0
N1840 N 0.83587 0.4056 0.03668 0.0
N1841 N 0.82134 0.42279 -0.00029 0.0
H1842 H 0.83442 0.52546 0.26651 0.0
H1843 H 0.89241 0.5233 0.34029 0.0
H1844 H 0.81965 0.52033 0.31468 0.0
H1845 H 0.90871 0.53249 0.29333 0.0
H1846 H 0.86566 0.52152 0.33046 0.0
H1847 H 0.86152 0.52918 0.27555 0.0
C1848 C 0.83678 0.52565 0.279 0.0
C1849 C 0.82477 0.52261 0.28989 0.0
C1850 C 0.87505 0.52384 0.32222 0.0
C1851 C 0.85571 0.5262 0.30021 0.0
C1852 C 0.89035 0.52468 0.32782 0.0
C1853 C 0.90273 0.52819 0.31759 0.0
C1854 C 0.87204 0.52645 0.30622 0.0
C1855 C 0.89941 0.5301 0.30159 0.0
C1856 C 0.85229 0.52749 0.28413 0.0
C1857 C 0.82856 0.52259 0.30589 0.0
N1858 N 0.88434 0.52924 0.29635 0.0
N1859 N 0.84369 0.52414 0.31053 0.0
H1860 H 0.84409 0.74527 0.51016 0.0
H1861 H 0.77555 0.73227 0.57242 0.0
H1862 H 0.83827 0.70344 0.53796 0.0
H1863 H 0.7879 0.77834 0.55624 0.0
H1864 H 0.79752 0.7215 0.5578 0.0
H1865 H 0.82345 0.75814 0.52573 0.0
C1866 C 0.83876 0.73899 0.51985 0.0
C1867 C 0.84262 0.72325 0.52274 0.0
C1868 C 0.79508 0.73389 0.55684 0.0
C1869 C 0.81902 0.73765 0.54024 0.0
C1870 C 0.78228 0.74 0.56492 0.0
C1871 C 0.78008 0.75623 0.56565 0.0
C1872 C 0.80497 0.74394 0.54832 0.0
C1873 C 0.78928 0.76577 0.55587 0.0
C1874 C 0.82694 0.74627 0.52862 0.0
C1875 C 0.83538 0.71552 0.53527 0.0
N1876 N 0.80144 0.75952 0.54762 0.0
N1877 N 0.82383 0.72276 0.54348 0.0
H1878 H 0.87501 0.57016 0.27875 0.0
H1879 H 0.84832 0.56548 0.36815 0.0
H1880 H 0.90871 0.56937 0.31638 0.0
H1881 H 0.81839 0.5548 0.32874 0.0
H1882 H 0.87095 0.5661 0.35031 0.0
H1883 H 0.85405 0.56578 0.29771 0.0
C1884 C 0.87796 0.5693 0.29109 0.0
C1885 C 0.8936 0.57003 0.29604 0.0
C1886 C 0.85946 0.56334 0.34567 0.0
C1887 C 0.86969 0.56472 0.31787 0.0
C1888 C 0.84657 0.56272 0.35587 0.0
C1889 C 0.83139 0.56026 0.34989 0.0
C1890 C 0.85705 0.56164 0.32945 0.0
C1891 C 0.82983 0.55695 0.33384 0.0
C1892 C 0.86602 0.56658 0.3019 0.0
C1893 C 0.89681 0.56859 0.31212 0.0
N1894 N 0.84241 0.55806 0.32417 0.0
N1895 N 0.88494 0.56601 0.32253 0.0
H1896 H 0.72248 0.50654 0.78476 0.0
H1897 H 0.64545 0.55314 0.75714 0.0
H1898 H 0.67621 0.49608 0.80236 0.0
H1899 H 0.69046 0.55668 0.73429 0.0
H1900 H 0.65625 0.53253 0.77431 0.0
H1901 H 0.71084 0.52532 0.76635 0.0
C1902 C 0.70993 0.50854 0.78501 0.0
C1903 C 0.7003 0.50007 0.79525 0.0
C1904 C 0.66376 0.53789 0.76557 0.0
C1905 C 0.68689 0.52155 0.77443 0.0
C1906 C 0.65766 0.54979 0.75599 0.0
C1907 C 0.66722 0.55677 0.74459 0.0
C1908 C 0.67957 0.53334 0.76392 0.0
C1909 C 0.68281 0.5517 0.74315 0.0
C1910 C 0.70324 0.5191 0.77441 0.0
C1911 C 0.68402 0.50262 0.79475 0.0
N1912 N 0.68852 0.54038 0.75274 0.0
N1913 N 0.67782 0.51323 0.78461 0.0
H1914 H 0.80973 0.46264 0.04055 0.0
H1915 H 0.74846 0.39378 0.02092 0.0
H1916 H 0.78137 0.4415 0.07669 0.0
H1917 H 0.78554 0.41006 0.99048 0.0
H1918 H 0.75689 0.41323 0.04076 0.0
H1919 H 0.79666 0.44629 0.02104 0.0
C1920 C 0.80067 0.45456 0.04434 0.0
C1921 C 0.79674 0.45329 0.06024 0.0
C1922 C 0.76309 0.4125 0.02968 0.0
C1923 C 0.78208 0.43402 0.038 0.0
C1924 C 0.75828 0.40144 0.01838 0.0
C1925 C 0.76642 0.40012 0.00409 0.0
C1926 C 0.77589 0.42244 0.02645 0.0
C1927 C 0.77902 0.4104 0.00139 0.0
C1928 C 0.79328 0.44515 0.03323 0.0
C1929 C 0.78472 0.44281 0.06451 0.0
N1930 N 0.78331 0.42104 0.0124 0.0
N1931 N 0.77795 0.43337 0.05347 0.0
H1932 H 0.79717 0.67369 0.5614 0.0
H1933 H 0.81086 0.73443 0.49128 0.0
H1934 H 0.82728 0.66409 0.52195 0.0
H1935 H 0.7734 0.73897 0.52515 0.0
H1936 H 0.8163 0.70818 0.50143 0.0
H1937 H 0.78855 0.69789 0.54849 0.0
C1938 C 0.80223 0.67687 0.5502 0.0
C1939 C 0.81247 0.6666 0.5425 0.0
C1940 C 0.80693 0.71494 0.50667 0.0
C1941 C 0.80335 0.69465 0.52793 0.0
C1942 C 0.80379 0.72996 0.50086 0.0
C1943 C 0.79205 0.73925 0.50776 0.0
C1944 C 0.79854 0.7093 0.51972 0.0
C1945 C 0.78288 0.73249 0.51972 0.0
C1946 C 0.79729 0.69068 0.54278 0.0
C1947 C 0.81909 0.67154 0.52819 0.0
N1948 N 0.78651 0.71806 0.52549 0.0
N1949 N 0.81437 0.68514 0.52135 0.0
H1950 H 0.6598 0.56702 0.79053 0.0
H1951 H 0.74884 0.54123 0.78074 0.0
H1952 H 0.683 0.5316 0.81835 0.0
H1953 H 0.723 0.56621 0.74499 0.0
H1954 H 0.72705 0.54461 0.79866 0.0
H1955 H 0.68496 0.57369 0.77851 0.0
C1956 C 0.67022 0.56086 0.7944 0.0
C1957 C 0.66917 0.54826 0.80503 0.0
C1958 C 0.72619 0.54955 0.78698 0.0
C1959 C 0.69801 0.5561 0.79147 0.0
C1960 C 0.73862 0.54754 0.77661 0.0
C1961 C 0.73765 0.55308 0.76108 0.0
C1962 C 0.71251 0.55706 0.78188 0.0
C1963 C 0.72414 0.56143 0.7567 0.0
C1964 C 0.68458 0.56472 0.7875 0.0
C1965 C 0.68313 0.541 0.80981 0.0
N1966 N 0.712 0.56301 0.76701 0.0
N1967 N 0.69694 0.54489 0.80284 0.0
H1968 H 0.01164 0.45559 0.24086 0.0
H1969 H 0.94665 0.50235 0.29018 0.0
H1970 H 0.98992 0.43746 0.2829 0.0
H1971 H 0.97447 0.5233 0.25338 0.0
H1972 H 0.96239 0.47834 0.28778 0.0
H1973 H 0.99807 0.48061 0.24518 0.0
C1974 C 0.00412 0.45691 0.25102 0.0
C1975 C 0.00187 0.44443 0.26148 0.0
C1976 C 0.96507 0.48824 0.28029 0.0
C1977 C 0.98624 0.47286 0.26645 0.0
C1978 C 0.95609 0.50191 0.28167 0.0
C1979 C 0.95917 0.51475 0.27189 0.0
C1980 C 0.9771 0.48744 0.26898 0.0
C1981 C 0.97158 0.51362 0.26107 0.0
C1982 C 0.99637 0.47116 0.2535 0.0
C1983 C 0.99197 0.44675 0.27448 0.0
N1984 N 0.98001 0.50018 0.25984 0.0
N1985 N 0.98446 0.46063 0.27654 0.0
H1986 H 0.91148 0.84193 0.46854 0.0
H1987 H 0.83168 0.82552 0.47023 0.0
H1988 H 0.91245 0.81341 0.42681 0.0
H1989 H 0.85057 0.78016 0.45789 0.0
H1990 H 0.85575 0.83789 0.46046 0.0
H1991 H 0.88317 0.8375 0.47062 0.0
C1992 C 0.90555 0.83534 0.45942 0.0
C1993 C 0.91415 0.82814 0.4474 0.0
C1994 C 0.85449 0.82526 0.45975 0.0
C1995 C 0.88213 0.82241 0.4501 0.0
C1996 C 0.84081 0.81819 0.46528 0.0
C1997 C 0.8393 0.80178 0.46509 0.0
C1998 C 0.86659 0.81585 0.45378 0.0
C1999 C 0.85142 0.79283 0.45848 0.0
C2000 C 0.88945 0.83274 0.46064 0.0
C2001 C 0.90611 0.81931 0.4361 0.0
N2002 N 0.86461 0.8 0.45309 0.0
N2003 N 0.89057 0.81622 0.43803 0.0
H2004 H 0.62478 0.64572 0.71157 0.0
H2005 H 0.57088 0.68562 0.77745 0.0
H2006 H 0.62615 0.6321 0.76032 0.0
H2007 H 0.57039 0.69874 0.72859 0.0
H2008 H 0.59042 0.66535 0.77152 0.0
H2009 H 0.60504 0.66543 0.71788 0.0
C2010 C 0.62111 0.64706 0.72368 0.0
C2011 C 0.62712 0.63724 0.73544 0.0
C2012 C 0.58587 0.6725 0.76206 0.0
C2013 C 0.60414 0.65956 0.7427 0.0
C2014 C 0.57464 0.68397 0.76541 0.0
C2015 C 0.56907 0.69382 0.75347 0.0
C2016 C 0.59141 0.6708 0.74662 0.0
C2017 C 0.57445 0.69139 0.73813 0.0
C2018 C 0.6097 0.65822 0.72724 0.0
C2019 C 0.6219 0.6395 0.75091 0.0
N2020 N 0.58526 0.68008 0.73514 0.0
N2021 N 0.6106 0.65035 0.75408 0.0
H2022 H 0.69726 0.35724 0.94196 0.0
H2023 H 0.63609 0.29801 0.97972 0.0
H2024 H 0.6897 0.35464 0.9919 0.0
H2025 H 0.63382 0.31301 0.9314 0.0
H2026 H 0.65678 0.31749 0.98441 0.0
H2027 H 0.67419 0.34079 0.9378 0.0
C2028 C 0.69043 0.35351 0.95203 0.0
C2029 C 0.69522 0.35733 0.96727 0.0
C2030 C 0.65174 0.31647 0.97279 0.0
C2031 C 0.66927 0.33798 0.96268 0.0
C2032 C 0.64012 0.30521 0.97006 0.0
C2033 C 0.63336 0.30381 0.95512 0.0
C2034 C 0.65669 0.32621 0.96045 0.0
C2035 C 0.63879 0.31363 0.94307 0.0
C2036 C 0.67735 0.34403 0.94967 0.0
C2037 C 0.68618 0.35208 0.97996 0.0
N2038 N 0.65016 0.32437 0.946 0.0
N2039 N 0.67374 0.34239 0.97741 0.0
H2040 H 0.9794 0.59548 0.32829 0.0
H2041 H 0.95455 0.68493 0.31841 0.0
H2042 H 0.93355 0.60815 0.3109 0.0
H2043 H 0.98957 0.66847 0.35107 0.0
H2044 H 0.94843 0.65761 0.31165 0.0
H2045 H 0.98559 0.62308 0.33163 0.0
C2046 C 0.97067 0.60411 0.32496 0.0
C2047 C 0.95585 0.59952 0.31949 0.0
C2048 C 0.9574 0.66003 0.32031 0.0
C2049 C 0.96284 0.63122 0.32354 0.0
C2050 C 0.9609 0.67557 0.32419 0.0
C2051 C 0.97259 0.67892 0.33533 0.0
C2052 C 0.96585 0.64785 0.32743 0.0
C2053 C 0.98044 0.6664 0.34248 0.0
C2054 C 0.9742 0.61987 0.32699 0.0
C2055 C 0.9451 0.61122 0.3152 0.0
N2056 N 0.977 0.65142 0.33832 0.0
N2057 N 0.94876 0.62663 0.31746 0.0
H2058 H 0.70152 0.74759 0.60586 0.0
H2059 H 0.6466 0.7649 0.68043 0.0
H2060 H 0.71858 0.77042 0.64774 0.0
H2061 H 0.63655 0.73072 0.64445 0.0
H2062 H 0.67126 0.77143 0.66661 0.0
H2063 H 0.67558 0.7456 0.61797 0.0
C2064 C 0.69979 0.7522 0.61758 0.0
C2065 C 0.71224 0.75898 0.62588 0.0
C2066 C 0.66353 0.76258 0.66176 0.0
C2067 C 0.68263 0.75688 0.63977 0.0
C2068 C 0.64951 0.75894 0.66959 0.0
C2069 C 0.63975 0.74712 0.66367 0.0
C2070 C 0.66747 0.75452 0.64787 0.0
C2071 C 0.64393 0.73971 0.64956 0.0
C2072 C 0.685 0.75109 0.62449 0.0
C2073 C 0.70933 0.76492 0.641 0.0
N2074 N 0.65745 0.74351 0.64218 0.0
N2075 N 0.69482 0.76369 0.6475 0.0
H2076 H 0.6035 0.3926 0.84729 0.0
H2077 H 0.65974 0.46357 0.82191 0.0
H2078 H 0.65188 0.38658 0.83347 0.0
H2079 H 0.61225 0.46964 0.83845 0.0
H2080 H 0.65766 0.43541 0.82744 0.0
H2081 H 0.60698 0.42108 0.84564 0.0
C2082 C 0.61488 0.39727 0.84404 0.0
C2083 C 0.62737 0.38722 0.84039 0.0
C2084 C 0.64772 0.44292 0.82992 0.0
C2085 C 0.63143 0.41971 0.83835 0.0
C2086 C 0.64892 0.45898 0.82676 0.0
C2087 C 0.63612 0.46889 0.82962 0.0
C2088 C 0.63359 0.4368 0.83589 0.0
C2089 C 0.62236 0.46237 0.83592 0.0
C2090 C 0.61686 0.41351 0.84308 0.0
C2091 C 0.64188 0.39389 0.83628 0.0
N2092 N 0.62143 0.44674 0.83878 0.0
N2093 N 0.64348 0.4097 0.83526 0.0
H2094 H 0.93949 0.30911 0.14803 0.0
H2095 H 0.89292 0.34234 0.07811 0.0
H2096 H 0.95716 0.30649 0.10068 0.0
H2097 H 0.86669 0.31398 0.11085 0.0
H2098 H 0.91727 0.3321 0.0892 0.0
H2099 H 0.91268 0.31187 0.13743 0.0
C2100 C 0.93764 0.30844 0.13547 0.0
C2101 C 0.95046 0.30776 0.12515 0.0
C2102 C 0.90617 0.32808 0.09392 0.0
C2103 C 0.92034 0.31144 0.11314 0.0
C2104 C 0.89232 0.33403 0.08771 0.0
C2105 C 0.87786 0.32896 0.09359 0.0
C2106 C 0.90558 0.31728 0.10633 0.0
C2107 C 0.87769 0.31809 0.10599 0.0
C2108 C 0.92243 0.31017 0.12945 0.0
C2109 C 0.94755 0.30719 0.10898 0.0
N2110 N 0.89142 0.31269 0.11214 0.0
N2111 N 0.93285 0.30944 0.10345 0.0
H2112 H 0.2235 0.96377 0.49529 0.0
H2113 H 0.26144 0.97584 0.4127 0.0
H2114 H 0.25778 0.9315 0.47678 0.0
H2115 H 0.21631 0.99546 0.42478 0.0
H2116 H 0.2597 0.95854 0.43549 0.0
H2117 H 0.2193 0.97414 0.46895 0.0
C2118 C 0.22986 0.95864 0.48555 0.0
C2119 C 0.24109 0.94692 0.48809 0.0
C2120 C 0.25009 0.96649 0.43304 0.0
C2121 C 0.23676 0.959 0.45811 0.0
C2122 C 0.25115 0.97647 0.42014 0.0
C2123 C 0.23912 0.98727 0.41704 0.0
C2124 C 0.23703 0.96751 0.44303 0.0
C2125 C 0.22593 0.98743 0.42687 0.0
C2126 C 0.22749 0.96455 0.47054 0.0
C2127 C 0.24903 0.94057 0.47519 0.0
N2128 N 0.22533 0.97784 0.43958 0.0
N2129 N 0.24699 0.94697 0.46072 0.0
H2130 H 0.37172 0.94445 0.63444 0.0
H2131 H 0.3312 0.93902 0.71827 0.0
H2132 H 0.33855 0.90781 0.64568 0.0
H2133 H 0.36078 0.9771 0.70271 0.0
H2134 H 0.33203 0.92791 0.69175 0.0
H2135 H 0.36643 0.9568 0.6593 0.0
C2136 C 0.36336 0.93889 0.64224 0.0
C2137 C 0.35573 0.92491 0.63808 0.0
C2138 C 0.33817 0.93878 0.69413 0.0
C2139 C 0.34954 0.9392 0.66686 0.0
C2140 C 0.3377 0.94515 0.70922 0.0
C2141 C 0.3461 0.95891 0.71269 0.0
C2142 C 0.34713 0.94626 0.68252 0.0
C2143 C 0.35427 0.96639 0.70059 0.0
C2144 C 0.36025 0.94606 0.65646 0.0
C2145 C 0.34477 0.91851 0.64855 0.0
N2146 N 0.35467 0.9599 0.68609 0.0
N2147 N 0.34208 0.92565 0.66262 0.0
H2148 H 0.30467 0.11697 0.9683 0.0
H2149 H 0.30356 0.11692 0.87502 0.0
H2150 H 0.31309 0.15966 0.94259 0.0
H2151 H 0.32517 0.08147 0.90394 0.0
H2152 H 0.29689 0.13188 0.89891 0.0
H2153 H 0.3003 0.10314 0.94355 0.0
C2154 C 0.30486 0.12356 0.95742 0.0
C2155 C 0.30916 0.1394 0.95734 0.0
C2156 C 0.30289 0.12072 0.89992 0.0
C2157 C 0.30471 0.12367 0.92917 0.0
C2158 C 0.3067 0.11223 0.88641 0.0
C2159 C 0.31503 0.09808 0.88764 0.0
C2160 C 0.30702 0.11466 0.91463 0.0
C2161 C 0.31889 0.09243 0.90255 0.0
C2162 C 0.30255 0.11565 0.94336 0.0
C2163 C 0.30961 0.14744 0.94302 0.0
N2164 N 0.3148 0.10072 0.91549 0.0
N2165 N 0.3077 0.13938 0.92935 0.0
H2166 H 0.28266 0.14623 0.25493 0.0
H2167 H 0.30463 0.11255 0.17026 0.0
H2168 H 0.26091 0.10578 0.23354 0.0
H2169 H 0.31952 0.1583 0.18604 0.0
H2170 H 0.29241 0.10795 0.19564 0.0
H2171 H 0.29916 0.14935 0.2316 0.0
C2172 C 0.28133 0.13803 0.2453 0.0
C2173 C 0.27034 0.12577 0.24611 0.0
C2174 C 0.29848 0.11895 0.19367 0.0
C2175 C 0.28931 0.12914 0.21958 0.0
C2176 C 0.30555 0.12154 0.17921 0.0
C2177 C 0.31294 0.13589 0.17604 0.0
C2178 C 0.29867 0.13083 0.20504 0.0
C2179 C 0.31393 0.14707 0.18806 0.0
C2180 C 0.29078 0.1398 0.23204 0.0
C2181 C 0.26915 0.11546 0.23336 0.0
N2182 N 0.30665 0.14439 0.20204 0.0
N2183 N 0.27853 0.11737 0.22064 0.0
H2184 H 0.44439 0.24067 0.01067 0.0
H2185 H 0.48226 0.26926 0.9297 0.0
H2186 H 0.44264 0.28915 0.99608 0.0
H2187 H 0.46794 0.22168 0.9396 0.0
H2188 H 0.47145 0.27738 0.95523 0.0
H2189 H 0.45805 0.23415 0.98639 0.0
C2190 C 0.44716 0.25002 0.00251 0.0
C2191 C 0.44223 0.26546 0.00536 0.0
C2192 C 0.47065 0.26519 0.95171 0.0
C2193 C 0.45765 0.258 0.97737 0.0
C2194 C 0.47671 0.26057 0.93714 0.0
C2195 C 0.47594 0.24478 0.93248 0.0
C2196 C 0.46403 0.25387 0.96172 0.0
C2197 C 0.46875 0.23399 0.94264 0.0
C2198 C 0.45482 0.24625 0.98856 0.0
C2199 C 0.44617 0.27707 0.99432 0.0
N2200 N 0.46319 0.23871 0.95678 0.0
N2201 N 0.45354 0.27309 0.98071 0.0
H2202 H 0.11321 0.86503 0.2939 0.0
H2203 H 0.08568 0.95433 0.29106 0.0
H2204 H 0.07212 0.88407 0.31657 0.0
H2205 H 0.13422 0.94103 0.28629 0.0
H2206 H 0.07823 0.92668 0.29049 0.0
H2207 H 0.1189 0.89115 0.28299 0.0
C2208 C 0.10534 0.87468 0.29647 0.0
C2209 C 0.0923 0.87251 0.30632 0.0
C2210 C 0.09048 0.9298 0.28908 0.0
C2211 C 0.09846 0.90205 0.29357 0.0
C2212 C 0.0947 0.94556 0.28918 0.0
C2213 C 0.11056 0.94984 0.28881 0.0
C2214 C 0.10224 0.91829 0.28885 0.0
C2215 C 0.12185 0.93811 0.28652 0.0
C2216 C 0.10857 0.8895 0.29021 0.0
C2217 C 0.08242 0.88531 0.30924 0.0
N2218 N 0.11751 0.92274 0.28702 0.0
N2219 N 0.08572 0.89953 0.30289 0.0
H2220 H 0.14248 0.76597 0.4703 0.0
H2221 H 0.20705 0.80681 0.52323 0.0
H2222 H 0.13311 0.79983 0.50675 0.0
H2223 H 0.21645 0.78039 0.48112 0.0
H2224 H 0.18028 0.79619 0.52351 0.0
H2225 H 0.16936 0.76327 0.48021 0.0
C2226 C 0.14596 0.77253 0.48061 0.0
C2227 C 0.13576 0.78346 0.48746 0.0
C2228 C 0.18836 0.79234 0.51448 0.0
C2229 C 0.16635 0.78053 0.49878 0.0
C2230 C 0.20366 0.7983 0.51441 0.0
C2231 C 0.21374 0.79469 0.50195 0.0
C2232 C 0.18328 0.78279 0.50198 0.0
C2233 C 0.20883 0.78367 0.49076 0.0
C2234 C 0.16129 0.77102 0.48626 0.0
C2235 C 0.14078 0.79157 0.50088 0.0
N2236 N 0.19384 0.77834 0.49085 0.0
N2237 N 0.15581 0.79016 0.50594 0.0
H2238 H 0.49607 0.85586 0.78578 0.0
H2239 H 0.44862 0.9167 0.83923 0.0
H2240 H 0.44559 0.85963 0.78765 0.0
H2241 H 0.49891 0.91808 0.83335 0.0
H2242 H 0.448 0.89176 0.82519 0.0
H2243 H 0.49789 0.87543 0.80687 0.0
C2244 C 0.48539 0.86079 0.79062 0.0
C2245 C 0.47067 0.85627 0.7848 0.0
C2246 C 0.45922 0.89735 0.82725 0.0
C2247 C 0.47263 0.87837 0.80905 0.0
C2248 C 0.45961 0.91151 0.83547 0.0
C2249 C 0.47381 0.91965 0.83721 0.0
C2250 C 0.47313 0.89131 0.82071 0.0
C2251 C 0.48766 0.91232 0.83206 0.0
C2252 C 0.48642 0.87187 0.80271 0.0
C2253 C 0.4572 0.8629 0.79161 0.0
N2254 N 0.48695 0.89871 0.82376 0.0
N2255 N 0.45851 0.87363 0.8033 0.0
H2256 H 0.13105 0.17666 0.33996 0.0
H2257 H 0.08694 0.23602 0.28504 0.0
H2258 H 0.08155 0.17333 0.32976 0.0
H2259 H 0.12776 0.25073 0.31116 0.0
H2260 H 0.0859 0.21208 0.30069 0.0
H2261 H 0.13086 0.20375 0.33026 0.0
C2262 C 0.12004 0.18179 0.33621 0.0
C2263 C 0.10634 0.17269 0.3354 0.0
C2264 C 0.09505 0.22058 0.30305 0.0
C2265 C 0.10618 0.20328 0.32391 0.0
C2266 C 0.09576 0.23414 0.29399 0.0
C2267 C 0.10749 0.2453 0.29678 0.0
C2268 C 0.10631 0.21803 0.31482 0.0
C2269 C 0.11854 0.24236 0.30864 0.0
C2270 C 0.11998 0.19718 0.33054 0.0
C2271 C 0.09243 0.17987 0.33035 0.0
N2272 N 0.11777 0.2289 0.31718 0.0
N2273 N 0.09277 0.19464 0.32447 0.0
H2274 H 0.50449 0.13568 0.80389 0.0
H2275 H 0.49811 0.22182 0.76833 0.0
H2276 H 0.46298 0.14945 0.77848 0.0
H2277 H 0.51924 0.2099 0.81273 0.0
H2278 H 0.49014 0.19411 0.7651 0.0
H2279 H 0.51586 0.16145 0.79898 0.0
C2280 C 0.49794 0.14405 0.79691 0.0
C2281 C 0.48272 0.1406 0.79176 0.0
C2282 C 0.49666 0.19764 0.77543 0.0
C2283 C 0.49552 0.17017 0.7864 0.0
C2284 C 0.50123 0.21333 0.77726 0.0
C2285 C 0.50926 0.21805 0.79085 0.0
C2286 C 0.50064 0.18669 0.78706 0.0
C2287 C 0.51297 0.20673 0.80214 0.0
C2288 C 0.50439 0.15875 0.79419 0.0
C2289 C 0.47476 0.15176 0.78265 0.0
N2290 N 0.50869 0.19158 0.79995 0.0
N2291 N 0.48115 0.16628 0.78048 0.0
H2292 H 0.25982 0.31465 0.14204 0.0
H2293 H 0.17602 0.33041 0.10373 0.0
H2294 H 0.24468 0.29757 0.09686 0.0
H2295 H 0.18541 0.33724 0.15295 0.0
H2296 H 0.20392 0.32603 0.09916 0.0
H2297 H 0.23523 0.32945 0.14439 0.0
C2298 C 0.25141 0.31418 0.13253 0.0
C2299 C 0.25414 0.30472 0.11932 0.0
C2300 C 0.19998 0.32883 0.11092 0.0
C2301 C 0.22621 0.32171 0.12185 0.0
C2302 C 0.18409 0.33147 0.11351 0.0
C2303 C 0.17849 0.33404 0.12875 0.0
C2304 C 0.21031 0.32848 0.12372 0.0
C2305 C 0.18935 0.33532 0.14102 0.0
C2306 C 0.23741 0.32263 0.13388 0.0
C2307 C 0.24293 0.30456 0.10732 0.0
N2308 N 0.20479 0.33217 0.1383 0.0
N2309 N 0.22942 0.31285 0.10892 0.0
H2310 H 0.41237 0.80781 0.56322 0.0
H2311 H 0.48817 0.84756 0.59056 0.0
H2312 H 0.41287 0.85803 0.55707 0.0
H2313 H 0.46092 0.82081 0.62374 0.0
H2314 H 0.46475 0.85021 0.57386 0.0
H2315 H 0.43514 0.80991 0.58051 0.0
C2316 C 0.41756 0.81925 0.56518 0.0
C2317 C 0.41079 0.83279 0.55878 0.0
C2318 C 0.4639 0.84406 0.58496 0.0
C2319 C 0.43684 0.83518 0.57831 0.0
C2320 C 0.47715 0.84255 0.59445 0.0
C2321 C 0.47634 0.83399 0.6085 0.0
C2322 C 0.45003 0.83644 0.58933 0.0
C2323 C 0.46192 0.82759 0.61304 0.0
C2324 C 0.43038 0.82043 0.57517 0.0
C2325 C 0.41785 0.84734 0.56179 0.0
N2326 N 0.44936 0.82861 0.60326 0.0
N2327 N 0.43071 0.84818 0.57127 0.0
H2328 H 0.82216 0.46017 0.91436 0.0
H2329 H 0.76291 0.50602 0.85799 0.0
H2330 H 0.81694 0.51055 0.91445 0.0
H2331 H 0.76662 0.45559 0.86108 0.0
H2332 H 0.78539 0.50837 0.87584 0.0
H2333 H 0.80565 0.45881 0.89104 0.0
C2334 C 0.81798 0.471 0.90919 0.0
C2335 C 0.8207 0.48547 0.91656 0.0
C2336 C 0.7813 0.4968 0.87253 0.0
C2337 C 0.80137 0.48397 0.89012 0.0
C2338 C 0.76841 0.49546 0.86244 0.0
C2339 C 0.76277 0.4806 0.85818 0.0
C2340 C 0.78859 0.48317 0.87833 0.0
C2341 C 0.77046 0.4673 0.86416 0.0
C2342 C 0.80835 0.47021 0.89597 0.0
C2343 C 0.81496 0.49911 0.90929 0.0
N2344 N 0.7829 0.46891 0.87394 0.0
N2345 N 0.8053 0.49801 0.89665 0.0
H2346 H 0.75776 0.49977 0.21484 0.0
H2347 H 0.80445 0.52028 0.13715 0.0
H2348 H 0.79333 0.53564 0.21121 0.0
H2349 H 0.7696 0.48368 0.13974 0.0
H2350 H 0.79597 0.52993 0.16265 0.0
H2351 H 0.75738 0.49766 0.18623 0.0
C2352 C 0.76524 0.50746 0.20802 0.0
C2353 C 0.77584 0.51768 0.21541 0.0
C2354 C 0.78998 0.51992 0.15761 0.0
C2355 C 0.77555 0.51522 0.18273 0.0
C2356 C 0.79484 0.5144 0.14304 0.0
C2357 C 0.78789 0.501 0.13652 0.0
C2358 C 0.77829 0.51179 0.1659 0.0
C2359 C 0.77533 0.49398 0.14448 0.0
C2360 C 0.76504 0.50621 0.19168 0.0
C2361 C 0.78516 0.52742 0.206 0.0
N2362 N 0.77111 0.49928 0.15895 0.0
N2363 N 0.78497 0.52578 0.19017 0.0
H2364 H 0.83151 0.57557 0.43484 0.0
H2365 H 0.80742 0.65384 0.47966 0.0
H2366 H 0.78435 0.59401 0.4355 0.0
H2367 H 0.85445 0.63547 0.47594 0.0
H2368 H 0.79734 0.62891 0.46902 0.0
H2369 H 0.83846 0.59358 0.45599 0.0
C2370 C 0.82248 0.58306 0.43975 0.0
C2371 C 0.80744 0.58355 0.43313 0.0
C2372 C 0.80985 0.63029 0.47077 0.0
C2373 C 0.81542 0.60457 0.457 0.0
C2374 C 0.81557 0.6445 0.47681 0.0
C2375 C 0.83178 0.64684 0.47822 0.0
C2376 C 0.82047 0.61842 0.46631 0.0
C2377 C 0.84187 0.63432 0.47459 0.0
C2378 C 0.82648 0.59347 0.45175 0.0
C2379 C 0.7962 0.59346 0.44005 0.0
N2380 N 0.83607 0.62076 0.46867 0.0
N2381 N 0.8005 0.60386 0.45135 0.0
H2382 H 0.80283 0.58152 0.60135 0.0
H2383 H 0.75403 0.58787 0.68147 0.0
H2384 H 0.78475 0.62562 0.61849 0.0
H2385 H 0.77801 0.54629 0.66538 0.0
H2386 H 0.76265 0.60164 0.6576 0.0
H2387 H 0.79196 0.56838 0.62414 0.0
C2388 C 0.79665 0.58849 0.61 0.0
C2389 C 0.79477 0.60472 0.60804 0.0
C2390 C 0.76587 0.58946 0.65925 0.0
C2391 C 0.78204 0.58961 0.6343 0.0
C2392 C 0.76081 0.58155 0.67277 0.0
C2393 C 0.76534 0.56592 0.67538 0.0
C2394 C 0.7754 0.58159 0.64831 0.0
C2395 C 0.7743 0.55834 0.66386 0.0
C2396 C 0.79038 0.58094 0.62304 0.0
C2397 C 0.7866 0.6131 0.61965 0.0
N2398 N 0.77907 0.56626 0.65091 0.0
N2399 N 0.78047 0.60543 0.63231 0.0
loop_
_geom_bond_atom_site_label_1
_geom_bond_atom_site_label_2
_geom_bond_distance
_geom_bond_site_symmetry_2
_ccdc_geom_bond_type
Co0 O1 2.216 1_455 S
Co0 O2 2.091 . S
Co0 O4 2.004 . S
Co0 O10 2.021 1_455 S
Co0 O12 2.137 . S
Co0 O13 2.244 . S
O1 Co0 2.216 1_655 S
O1 C8 1.247 . S
O2 Co0 2.091 . S
O2 C8 1.261 1_455 S
C3 O12 1.247 . S
C3 O13 1.272 . S
O4 Co0 2.004 . S
O4 C9 1.259 . S
Co5 O6 2.061 . S
Co5 O11 2.052 1_455 S
Co5 O13 2.135 . S
O6 Co5 2.061 . S
O6 C9 1.235 . S
C7 O10 1.238 . S
C7 O11 1.241 . S
C8 O1 1.247 . S
C8 O2 1.261 1_655 S
C9 O4 1.259 . S
C9 O6 1.235 . S
O10 Co0 2.021 1_655 S
O10 C7 1.238 . S
O11 Co5 2.052 1_655 S
O11 C7 1.241 . S
O12 Co0 2.137 . S
O12 C3 1.247 . S
O13 Co0 2.244 . S
O13 C3 1.272 . S
O13 Co5 2.135 . S
Co14 O15 2.216 . S
Co14 O16 2.091 . S
Co14 O18 2.004 . S
Co14 O24 2.021 . S
Co14 O26 2.137 . S
Co14 O27 2.244 . S
O15 Co14 2.216 . S
O15 C22 1.247 . S
O16 Co14 2.091 . S
O16 C22 1.261 . S
C17 O26 1.247 . S
C17 O27 1.272 . S
O18 Co14 2.004 . S
O18 C23 1.259 . S
Co19 O20 2.061 . S
Co19 O25 2.052 1_455 S
Co19 O27 2.135 1_455 S
O20 Co19 2.061 . S
O20 C23 1.235 1_455 S
C21 O24 1.238 . S
C21 O25 1.241 . S
C22 O15 1.247 . S
C22 O16 1.261 . S
C23 O18 1.259 . S
C23 O20 1.235 1_655 S
O24 Co14 2.021 . S
O24 C21 1.238 . S
O25 Co19 2.052 1_655 S
O25 C21 1.241 . S
O26 Co14 2.137 . S
O26 C17 1.247 . S
O27 Co14 2.244 . S
O27 C17 1.272 . S
O27 Co19 2.135 1_655 S
Co28 O29 2.216 . S
Co28 O30 2.091 . S
Co28 O32 2.004 . S
Co28 O38 2.021 . S
Co28 O40 2.137 . S
Co28 O41 2.244 . S
O29 Co28 2.216 . S
O29 C36 1.247 . S
O30 Co28 2.091 . S
O30 C36 1.261 . S
C31 O40 1.247 . S
C31 O41 1.272 . S
O32 Co28 2.004 . S
O32 C37 1.259 . S
Co33 O34 2.061 . S
Co33 O39 2.052 . S
Co33 O41 2.135 . S
O34 Co33 2.061 . S
O34 C37 1.235 . S
C35 O38 1.238 . S
C35 O39 1.241 . S
C36 O29 1.247 . S
C36 O30 1.261 . S
C37 O32 1.259 . S
C37 O34 1.235 . S
O38 Co28 2.021 . S
O38 C35 1.238 . S
O39 Co33 2.052 . S
O39 C35 1.241 . S
O40 Co28 2.137 . S
O40 C31 1.247 . S
O41 Co28 2.244 . S
O41 C31 1.272 . S
O41 Co33 2.135 . S
Co42 O43 2.216 . S
Co42 O44 2.091 . S
Co42 O46 2.004 . S
Co42 O52 2.021 . S
Co42 O54 2.137 . S
Co42 O55 2.244 . S
O43 Co42 2.216 . S
O43 C50 1.247 . S
O44 Co42 2.091 . S
O44 C50 1.261 . S
C45 O54 1.247 . S
C45 O55 1.272 . S
O46 Co42 2.004 . S
O46 C51 1.259 . S
Co47 O48 2.061 . S
Co47 O53 2.052 . S
Co47 O55 2.135 . S
O48 Co47 2.061 . S
O48 C51 1.235 . S
C49 O52 1.238 . S
C49 O53 1.241 . S
C50 O43 1.247 . S
C50 O44 1.261 . S
C51 O46 1.259 . S
C51 O48 1.235 . S
O52 Co42 2.021 . S
O52 C49 1.238 . S
O53 Co47 2.052 . S
O53 C49 1.241 . S
O54 Co42 2.137 . S
O54 C45 1.247 . S
O55 Co42 2.244 . S
O55 C45 1.272 . S
O55 Co47 2.135 . S
Co56 O57 2.216 1_455 S
Co56 O58 2.091 1_455 S
Co56 O60 2.004 . S
Co56 O66 2.021 1_455 S
Co56 O68 2.137 . S
Co56 O69 2.244 . S
O57 Co56 2.216 1_655 S
O57 C64 1.247 . S
O58 Co56 2.091 1_655 S
O58 C64 1.261 . S
C59 O68 1.247 . S
C59 O69 1.272 . S
O60 Co56 2.004 . S
O60 C65 1.259 . S
Co61 O62 2.061 . S
Co61 O67 2.052 1_455 S
Co61 O69 2.135 . S
O62 Co61 2.061 . S
O62 C65 1.235 . S
C63 O66 1.238 . S
C63 O67 1.241 . S
C64 O57 1.247 . S
C64 O58 1.261 . S
C65 O60 1.259 . S
C65 O62 1.235 . S
O66 Co56 2.021 1_655 S
O66 C63 1.238 . S
O67 Co61 2.052 1_655 S
O67 C63 1.241 . S
O68 Co56 2.137 . S
O68 C59 1.247 . S
O69 Co56 2.244 . S
O69 C59 1.272 . S
O69 Co61 2.135 . S
Co70 O71 2.216 . S
Co70 O72 2.091 . S
Co70 O74 2.004 . S
Co70 O80 2.021 . S
Co70 O82 2.137 . S
Co70 O83 2.244 . S
O71 Co70 2.216 . S
O71 C78 1.247 . S
O72 Co70 2.091 . S
O72 C78 1.261 . S
C73 O82 1.247 . S
C73 O83 1.272 . S
O74 Co70 2.004 . S
O74 C79 1.259 . S
Co75 O76 2.061 . S
Co75 O81 2.052 . S
Co75 O83 2.135 . S
O76 Co75 2.061 . S
O76 C79 1.235 . S
C77 O80 1.238 . S
C77 O81 1.241 . S
C78 O71 1.247 . S
C78 O72 1.261 . S
C79 O74 1.259 . S
C79 O76 1.235 . S
O80 Co70 2.021 . S
O80 C77 1.238 . S
O81 Co75 2.052 . S
O81 C77 1.241 . S
O82 Co70 2.137 . S
O82 C73 1.247 . S
O83 Co70 2.244 . S
O83 C73 1.272 . S
O83 Co75 2.135 . S
Co84 O85 2.216 . S
Co84 O86 2.091 . S
Co84 O88 2.004 . S
Co84 O94 2.021 . S
Co84 O96 2.137 . S
Co84 O97 2.244 . S
O85 Co84 2.216 . S
O85 C92 1.247 . S
O86 Co84 2.091 . S
O86 C92 1.261 . S
C87 O96 1.247 . S
C87 O97 1.272 . S
O88 Co84 2.004 . S
O88 C93 1.259 . S
Co89 O90 2.061 . S
Co89 O95 2.052 . S
Co89 O97 2.135 . S
O90 Co89 2.061 . S
O90 C93 1.235 . S
C91 O94 1.238 . S
C91 O95 1.241 . S
C92 O85 1.247 . S
C92 O86 1.261 . S
C93 O88 1.259 . S
C93 O90 1.235 . S
O94 Co84 2.021 . S
O94 C91 1.238 . S
O95 Co89 2.052 . S
O95 C91 1.241 . S
O96 Co84 2.137 . S
O96 C87 1.247 . S
O97 Co84 2.244 . S
O97 C87 1.272 . S
O97 Co89 2.135 . S
Co98 O99 2.216 . S
Co98 O100 2.091 . S
Co98 O102 2.004 1_655 S
Co98 O108 2.021 . S
Co98 O110 2.137 1_655 S
Co98 O111 2.244 1_655 S
O99 Co98 2.216 . S
O99 C106 1.247 . S
O100 Co98 2.091 . S
O100 C106 1.261 . S
C101 O110 1.247 . S
C101 O111 1.272 . S
O102 Co98 2.004 1_455 S
O102 C107 1.259 . S
Co103 O104 2.061 . S
Co103 O109 2.052 . S
Co103 O111 2.135 . S
O104 Co103 2.061 . S
O104 C107 1.235 . S
C105 O108 1.238 . S
C105 O109 1.241 1_655 S
C106 O99 1.247 . S
C106 O100 1.261 . S
C107 O102 1.259 . S
C107 O104 1.235 . S
O108 Co98 2.021 . S
O108 C105 1.238 . S
O109 Co103 2.052 . S
O109 C105 1.241 1_455 S
O110 Co98 2.137 1_455 S
O110 C101 1.247 . S
O111 Co98 2.244 1_455 S
O111 C101 1.272 . S
O111 Co103 2.135 . S
Co112 O113 2.216 1_545 S
Co112 O114 2.091 . S
Co112 O116 2.004 . S
Co112 O122 2.021 1_545 S
Co112 O124 2.137 . S
Co112 O125 2.244 . S
O113 Co112 2.216 1_565 S
O113 C120 1.247 . S
O114 Co112 2.091 . S
O114 C120 1.261 1_545 S
C115 O124 1.247 . S
C115 O125 1.272 . S
O116 Co112 2.004 . S
O116 C121 1.259 . S
Co117 O118 2.061 . S
Co117 O123 2.052 1_545 S
Co117 O125 2.135 . S
O118 Co117 2.061 . S
O118 C121 1.235 . S
C119 O122 1.238 . S
C119 O123 1.241 . S
C120 O113 1.247 . S
C120 O114 1.261 1_565 S
C121 O116 1.259 . S
C121 O118 1.235 . S
O122 Co112 2.021 1_565 S
O122 C119 1.238 . S
O123 Co117 2.052 1_565 S
O123 C119 1.241 . S
O124 Co112 2.137 . S
O124 C115 1.247 . S
O125 Co112 2.244 . S
O125 C115 1.272 . S
O125 Co117 2.135 . S
Co126 O127 2.216 . S
Co126 O128 2.091 . S
Co126 O130 2.004 . S
Co126 O136 2.021 . S
Co126 O138 2.137 . S
Co126 O139 2.244 . S
O127 Co126 2.216 . S
O127 C134 1.247 . S
O128 Co126 2.091 . S
O128 C134 1.261 . S
C129 O138 1.247 . S
C129 O139 1.272 . S
O130 Co126 2.004 . S
O130 C135 1.259 . S
Co131 O132 2.061 . S
Co131 O137 2.052 . S
Co131 O139 2.135 . S
O132 Co131 2.061 . S
O132 C135 1.235 . S
C133 O136 1.238 . S
C133 O137 1.241 . S
C134 O127 1.247 . S
C134 O128 1.261 . S
C135 O130 1.259 . S
C135 O132 1.235 . S
O136 Co126 2.021 . S
O136 C133 1.238 . S
O137 Co131 2.052 . S
O137 C133 1.241 . S
O138 Co126 2.137 . S
O138 C129 1.247 . S
O139 Co126 2.244 . S
O139 C129 1.272 . S
O139 Co131 2.135 . S
Co140 O141 2.216 . S
Co140 O142 2.091 . S
Co140 O144 2.004 . S
Co140 O150 2.021 . S
Co140 O152 2.137 . S
Co140 O153 2.244 . S
O141 Co140 2.216 . S
O141 C148 1.247 . S
O142 Co140 2.091 . S
O142 C148 1.261 . S
C143 O152 1.247 . S
C143 O153 1.272 . S
O144 Co140 2.004 . S
O144 C149 1.259 . S
Co145 O146 2.061 . S
Co145 O151 2.052 . S
Co145 O153 2.135 . S
O146 Co145 2.061 . S
O146 C149 1.235 . S
C147 O150 1.238 . S
C147 O151 1.241 . S
C148 O141 1.247 . S
C148 O142 1.261 . S
C149 O144 1.259 . S
C149 O146 1.235 . S
O150 Co140 2.021 . S
O150 C147 1.238 . S
O151 Co145 2.052 . S
O151 C147 1.241 . S
O152 Co140 2.137 . S
O152 C143 1.247 . S
O153 Co140 2.244 . S
O153 C143 1.272 . S
O153 Co145 2.135 . S
Co154 O155 2.216 . S
Co154 O156 2.091 . S
Co154 O158 2.004 . S
Co154 O164 2.021 . S
Co154 O166 2.137 . S
Co154 O167 2.244 . S
O155 Co154 2.216 . S
O155 C162 1.247 . S
O156 Co154 2.091 . S
O156 C162 1.261 . S
C157 O166 1.247 . S
C157 O167 1.272 . S
O158 Co154 2.004 . S
O158 C163 1.259 . S
Co159 O160 2.061 . S
Co159 O165 2.052 . S
Co159 O167 2.135 . S
O160 Co159 2.061 . S
O160 C163 1.235 . S
C161 O164 1.238 . S
C161 O165 1.241 . S
C162 O155 1.247 . S
C162 O156 1.261 . S
C163 O158 1.259 . S
C163 O160 1.235 . S
O164 Co154 2.021 . S
O164 C161 1.238 . S
O165 Co159 2.052 . S
O165 C161 1.241 . S
O166 Co154 2.137 . S
O166 C157 1.247 . S
O167 Co154 2.244 . S
O167 C157 1.272 . S
O167 Co159 2.135 . S
Co168 O169 2.216 . S
Co168 O170 2.091 . S
Co168 O172 2.004 . S
Co168 O178 2.021 . S
Co168 O180 2.137 . S
Co168 O181 2.244 . S
O169 Co168 2.216 . S
O169 C176 1.247 . S
O170 Co168 2.091 . S
O170 C176 1.261 . S
C171 O180 1.247 . S
C171 O181 1.272 . S
O172 Co168 2.004 . S
O172 C177 1.259 . S
Co173 O174 2.061 . S
Co173 O179 2.052 . S
Co173 O181 2.135 . S
O174 Co173 2.061 . S
O174 C177 1.235 . S
C175 O178 1.238 . S
C175 O179 1.241 . S
C176 O169 1.247 . S
C176 O170 1.261 . S
C177 O172 1.259 . S
C177 O174 1.235 . S
O178 Co168 2.021 . S
O178 C175 1.238 . S
O179 Co173 2.052 . S
O179 C175 1.241 . S
O180 Co168 2.137 . S
O180 C171 1.247 . S
O181 Co168 2.244 . S
O181 C171 1.272 . S
O181 Co173 2.135 . S
Co182 O183 2.216 . S
Co182 O184 2.091 . S
Co182 O186 2.004 . S
Co182 O192 2.021 . S
Co182 O194 2.137 . S
Co182 O195 2.244 . S
O183 Co182 2.216 . S
O183 C190 1.247 . S
O184 Co182 2.091 . S
O184 C190 1.261 . S
C185 O194 1.247 . S
C185 O195 1.272 . S
O186 Co182 2.004 . S
O186 C191 1.259 . S
Co187 O188 2.061 . S
Co187 O193 2.052 . S
Co187 O195 2.135 . S
O188 Co187 2.061 . S
O188 C191 1.235 . S
C189 O192 1.238 . S
C189 O193 1.241 . S
C190 O183 1.247 . S
C190 O184 1.261 . S
C191 O186 1.259 . S
C191 O188 1.235 . S
O192 Co182 2.021 . S
O192 C189 1.238 . S
O193 Co187 2.052 . S
O193 C189 1.241 . S
O194 Co182 2.137 . S
O194 C185 1.247 . S
O195 Co182 2.244 . S
O195 C185 1.272 . S
O195 Co187 2.135 . S
Co196 O197 2.216 1_545 S
Co196 O198 2.091 1_545 S
Co196 O200 2.004 . S
Co196 O206 2.021 1_545 S
Co196 O208 2.137 . S
Co196 O209 2.244 . S
O197 Co196 2.216 1_565 S
O197 C204 1.247 . S
O198 Co196 2.091 1_565 S
O198 C204 1.261 . S
C199 O208 1.247 . S
C199 O209 1.272 . S
O200 Co196 2.004 . S
O200 C205 1.259 . S
Co201 O202 2.061 . S
Co201 O207 2.052 1_545 S
Co201 O209 2.135 . S
O202 Co201 2.061 . S
O202 C205 1.235 . S
C203 O206 1.238 . S
C203 O207 1.241 . S
C204 O197 1.247 . S
C204 O198 1.261 . S
C205 O200 1.259 . S
C205 O202 1.235 . S
O206 Co196 2.021 1_565 S
O206 C203 1.238 . S
O207 Co201 2.052 1_565 S
O207 C203 1.241 . S
O208 Co196 2.137 . S
O208 C199 1.247 . S
O209 Co196 2.244 . S
O209 C199 1.272 . S
O209 Co201 2.135 . S
Co210 O211 2.216 . S
Co210 O212 2.091 . S
Co210 O214 2.004 1_556 S
Co210 O220 2.021 . S
Co210 O222 2.137 1_556 S
Co210 O223 2.244 1_556 S
O211 Co210 2.216 . S
O211 C218 1.247 . S
O212 Co210 2.091 . S
O212 C218 1.261 . S
C213 O222 1.247 . S
C213 O223 1.272 . S
O214 Co210 2.004 1_554 S
O214 C219 1.259 . S
Co215 O216 2.061 . S
Co215 O221 2.052 . S
Co215 O223 2.135 . S
O216 Co215 2.061 . S
O216 C219 1.235 . S
C217 O220 1.238 . S
C217 O221 1.241 1_556 S
C218 O211 1.247 . S
C218 O212 1.261 . S
C219 O214 1.259 . S
C219 O216 1.235 . S
O220 Co210 2.021 . S
O220 C217 1.238 . S
O221 Co215 2.052 . S
O221 C217 1.241 1_554 S
O222 Co210 2.137 1_554 S
O222 C213 1.247 . S
O223 Co210 2.244 1_554 S
O223 C213 1.272 . S
O223 Co215 2.135 . S
Co224 O225 2.216 1_554 S
Co224 O226 2.091 . S
Co224 O228 2.004 . S
Co224 O234 2.021 1_554 S
Co224 O236 2.137 . S
Co224 O237 2.244 . S
O225 Co224 2.216 1_556 S
O225 C232 1.247 . S
O226 Co224 2.091 . S
O226 C232 1.261 1_554 S
C227 O236 1.247 . S
C227 O237 1.272 . S
O228 Co224 2.004 . S
O228 C233 1.259 . S
Co229 O230 2.061 . S
Co229 O235 2.052 1_554 S
Co229 O237 2.135 . S
O230 Co229 2.061 . S
O230 C233 1.235 . S
C231 O234 1.238 . S
C231 O235 1.241 . S
C232 O225 1.247 . S
C232 O226 1.261 1_556 S
C233 O228 1.259 . S
C233 O230 1.235 . S
O234 Co224 2.021 1_556 S
O234 C231 1.238 . S
O235 Co229 2.052 1_556 S
O235 C231 1.241 . S
O236 Co224 2.137 . S
O236 C227 1.247 . S
O237 Co224 2.244 . S
O237 C227 1.272 . S
O237 Co229 2.135 . S
Co238 O239 2.216 . S
Co238 O240 2.091 . S
Co238 O242 2.004 . S
Co238 O248 2.021 . S
Co238 O250 2.137 . S
Co238 O251 2.244 . S
O239 Co238 2.216 . S
O239 C246 1.247 . S
O240 Co238 2.091 . S
O240 C246 1.261 . S
C241 O250 1.247 . S
C241 O251 1.272 . S
O242 Co238 2.004 . S
O242 C247 1.259 . S
Co243 O244 2.061 . S
Co243 O249 2.052 . S
Co243 O251 2.135 . S
O244 Co243 2.061 . S
O244 C247 1.235 . S
C245 O248 1.238 . S
C245 O249 1.241 . S
C246 O239 1.247 . S
C246 O240 1.261 . S
C247 O242 1.259 . S
C247 O244 1.235 . S
O248 Co238 2.021 . S
O248 C245 1.238 . S
O249 Co243 2.052 . S
O249 C245 1.241 . S
O250 Co238 2.137 . S
O250 C241 1.247 . S
O251 Co238 2.244 . S
O251 C241 1.272 . S
O251 Co243 2.135 . S
Co252 O253 2.216 . S
Co252 O254 2.091 . S
Co252 O256 2.004 . S
Co252 O262 2.021 . S
Co252 O264 2.137 . S
Co252 O265 2.244 . S
O253 Co252 2.216 . S
O253 C260 1.247 . S
O254 Co252 2.091 . S
O254 C260 1.261 . S
C255 O264 1.247 . S
C255 O265 1.272 . S
O256 Co252 2.004 . S
O256 C261 1.259 . S
Co257 O258 2.061 . S
Co257 O263 2.052 . S
Co257 O265 2.135 . S
O258 Co257 2.061 . S
O258 C261 1.235 . S
C259 O262 1.238 . S
C259 O263 1.241 . S
C260 O253 1.247 . S
C260 O254 1.261 . S
C261 O256 1.259 . S
C261 O258 1.235 . S
O262 Co252 2.021 . S
O262 C259 1.238 . S
O263 Co257 2.052 . S
O263 C259 1.241 . S
O264 Co252 2.137 . S
O264 C255 1.247 . S
O265 Co252 2.244 . S
O265 C255 1.272 . S
O265 Co257 2.135 . S
Co266 O267 2.216 . S
Co266 O268 2.091 . S
Co266 O270 2.004 . S
Co266 O276 2.021 . S
Co266 O278 2.137 . S
Co266 O279 2.244 . S
O267 Co266 2.216 . S
O267 C274 1.247 . S
O268 Co266 2.091 . S
O268 C274 1.261 . S
C269 O278 1.247 . S
C269 O279 1.272 . S
O270 Co266 2.004 . S
O270 C275 1.259 . S
Co271 O272 2.061 . S
Co271 O277 2.052 . S
Co271 O279 2.135 . S
O272 Co271 2.061 . S
O272 C275 1.235 . S
C273 O276 1.238 . S
C273 O277 1.241 . S
C274 O267 1.247 . S
C274 O268 1.261 . S
C275 O270 1.259 . S
C275 O272 1.235 . S
O276 Co266 2.021 . S
O276 C273 1.238 . S
O277 Co271 2.052 . S
O277 C273 1.241 . S
O278 Co266 2.137 . S
O278 C269 1.247 . S
O279 Co266 2.244 . S
O279 C269 1.272 . S
O279 Co271 2.135 . S
Co280 O281 2.216 . S
Co280 O282 2.091 . S
Co280 O284 2.004 1_565 S
Co280 O290 2.021 . S
Co280 O292 2.137 1_565 S
Co280 O293 2.244 1_565 S
O281 Co280 2.216 . S
O281 C288 1.247 . S
O282 Co280 2.091 . S
O282 C288 1.261 . S
C283 O292 1.247 . S
C283 O293 1.272 . S
O284 Co280 2.004 1_545 S
O284 C289 1.259 . S
Co285 O286 2.061 . S
Co285 O291 2.052 . S
Co285 O293 2.135 . S
O286 Co285 2.061 . S
O286 C289 1.235 . S
C287 O290 1.238 . S
C287 O291 1.241 1_565 S
C288 O281 1.247 . S
C288 O282 1.261 . S
C289 O284 1.259 . S
C289 O286 1.235 . S
O290 Co280 2.021 . S
O290 C287 1.238 . S
O291 Co285 2.052 . S
O291 C287 1.241 1_545 S
O292 Co280 2.137 1_545 S
O292 C283 1.247 . S
O293 Co280 2.244 1_545 S
O293 C283 1.272 . S
O293 Co285 2.135 . S
Co294 O295 2.216 . S
Co294 O296 2.091 . S
Co294 O298 2.004 . S
Co294 O304 2.021 . S
Co294 O306 2.137 . S
Co294 O307 2.244 . S
O295 Co294 2.216 . S
O295 C302 1.247 . S
O296 Co294 2.091 . S
O296 C302 1.261 . S
C297 O306 1.247 . S
C297 O307 1.272 . S
O298 Co294 2.004 . S
O298 C303 1.259 . S
Co299 O300 2.061 . S
Co299 O305 2.052 . S
Co299 O307 2.135 . S
O300 Co299 2.061 . S
O300 C303 1.235 . S
C301 O304 1.238 . S
C301 O305 1.241 . S
C302 O295 1.247 . S
C302 O296 1.261 . S
C303 O298 1.259 . S
C303 O300 1.235 . S
O304 Co294 2.021 . S
O304 C301 1.238 . S
O305 Co299 2.052 . S
O305 C301 1.241 . S
O306 Co294 2.137 . S
O306 C297 1.247 . S
O307 Co294 2.244 . S
O307 C297 1.272 . S
O307 Co299 2.135 . S
Co308 O309 2.216 . S
Co308 O310 2.091 . S
Co308 O312 2.004 . S
Co308 O318 2.021 . S
Co308 O320 2.137 . S
Co308 O321 2.244 . S
O309 Co308 2.216 . S
O309 C316 1.247 . S
O310 Co308 2.091 . S
O310 C316 1.261 . S
C311 O320 1.247 . S
C311 O321 1.272 . S
O312 Co308 2.004 . S
O312 C317 1.259 . S
Co313 O314 2.061 . S
Co313 O319 2.052 . S
Co313 O321 2.135 . S
O314 Co313 2.061 . S
O314 C317 1.235 . S
C315 O318 1.238 . S
C315 O319 1.241 . S
C316 O309 1.247 . S
C316 O310 1.261 . S
C317 O312 1.259 . S
C317 O314 1.235 . S
O318 Co308 2.021 . S
O318 C315 1.238 . S
O319 Co313 2.052 . S
O319 C315 1.241 . S
O320 Co308 2.137 . S
O320 C311 1.247 . S
O321 Co308 2.244 . S
O321 C311 1.272 . S
O321 Co313 2.135 . S
Co322 O323 2.216 . S
Co322 O324 2.091 . S
Co322 O326 2.004 . S
Co322 O332 2.021 . S
Co322 O334 2.137 . S
Co322 O335 2.244 . S
O323 Co322 2.216 . S
O323 C330 1.247 . S
O324 Co322 2.091 . S
O324 C330 1.261 . S
C325 O334 1.247 . S
C325 O335 1.272 . S
O326 Co322 2.004 . S
O326 C331 1.259 . S
Co327 O328 2.061 . S
Co327 O333 2.052 . S
Co327 O335 2.135 . S
O328 Co327 2.061 . S
O328 C331 1.235 . S
C329 O332 1.238 . S
C329 O333 1.241 . S
C330 O323 1.247 . S
C330 O324 1.261 . S
C331 O326 1.259 . S
C331 O328 1.235 . S
O332 Co322 2.021 . S
O332 C329 1.238 . S
O333 Co327 2.052 . S
O333 C329 1.241 . S
O334 Co322 2.137 . S
O334 C325 1.247 . S
O335 Co322 2.244 . S
O335 C325 1.272 . S
O335 Co327 2.135 . S
Co336 O337 2.216 . S
Co336 O338 2.091 . S
Co336 O340 2.004 . S
Co336 O346 2.021 . S
Co336 O348 2.137 . S
Co336 O349 2.244 . S
O337 Co336 2.216 . S
O337 C344 1.247 . S
O338 Co336 2.091 . S
O338 C344 1.261 . S
C339 O348 1.247 . S
C339 O349 1.272 . S
O340 Co336 2.004 . S
O340 C345 1.259 . S
Co341 O342 2.061 . S
Co341 O347 2.052 . S
Co341 O349 2.135 . S
O342 Co341 2.061 . S
O342 C345 1.235 . S
C343 O346 1.238 . S
C343 O347 1.241 . S
C344 O337 1.247 . S
C344 O338 1.261 . S
C345 O340 1.259 . S
C345 O342 1.235 . S
O346 Co336 2.021 . S
O346 C343 1.238 . S
O347 Co341 2.052 . S
O347 C343 1.241 . S
O348 Co336 2.137 . S
O348 C339 1.247 . S
O349 Co336 2.244 . S
O349 C339 1.272 . S
O349 Co341 2.135 . S
Co350 O351 2.216 . S
Co350 O352 2.091 . S
Co350 O354 2.004 . S
Co350 O360 2.021 . S
Co350 O362 2.137 . S
Co350 O363 2.244 . S
O351 Co350 2.216 . S
O351 C358 1.247 . S
O352 Co350 2.091 . S
O352 C358 1.261 . S
C353 O362 1.247 . S
C353 O363 1.272 . S
O354 Co350 2.004 . S
O354 C359 1.259 . S
Co355 O356 2.061 . S
Co355 O361 2.052 . S
Co355 O363 2.135 . S
O356 Co355 2.061 . S
O356 C359 1.235 . S
C357 O360 1.238 . S
C357 O361 1.241 . S
C358 O351 1.247 . S
C358 O352 1.261 . S
C359 O354 1.259 . S
C359 O356 1.235 . S
O360 Co350 2.021 . S
O360 C357 1.238 . S
O361 Co355 2.052 . S
O361 C357 1.241 . S
O362 Co350 2.137 . S
O362 C353 1.247 . S
O363 Co350 2.244 . S
O363 C353 1.272 . S
O363 Co355 2.135 . S
Co364 O365 2.216 . S
Co364 O366 2.091 . S
Co364 O368 2.004 . S
Co364 O374 2.021 . S
Co364 O376 2.137 . S
Co364 O377 2.244 . S
O365 Co364 2.216 . S
O365 C372 1.247 . S
O366 Co364 2.091 . S
O366 C372 1.261 . S
C367 O376 1.247 . S
C367 O377 1.272 . S
O368 Co364 2.004 . S
O368 C373 1.259 . S
Co369 O370 2.061 . S
Co369 O375 2.052 . S
Co369 O377 2.135 . S
O370 Co369 2.061 . S
O370 C373 1.235 . S
C371 O374 1.238 . S
C371 O375 1.241 . S
C372 O365 1.247 . S
C372 O366 1.261 . S
C373 O368 1.259 . S
C373 O370 1.235 . S
O374 Co364 2.021 . S
O374 C371 1.238 . S
O375 Co369 2.052 . S
O375 C371 1.241 . S
O376 Co364 2.137 . S
O376 C367 1.247 . S
O377 Co364 2.244 . S
O377 C367 1.272 . S
O377 Co369 2.135 . S
Co378 O379 2.216 . S
Co378 O380 2.091 . S
Co378 O382 2.004 . S
Co378 O388 2.021 . S
Co378 O390 2.137 . S
Co378 O391 2.244 . S
O379 Co378 2.216 . S
O379 C386 1.247 . S
O380 Co378 2.091 . S
O380 C386 1.261 . S
C381 O390 1.247 . S
C381 O391 1.272 . S
O382 Co378 2.004 . S
O382 C387 1.259 . S
Co383 O384 2.061 . S
Co383 O389 2.052 . S
Co383 O391 2.135 . S
O384 Co383 2.061 . S
O384 C387 1.235 . S
C385 O388 1.238 . S
C385 O389 1.241 . S
C386 O379 1.247 . S
C386 O380 1.261 . S
C387 O382 1.259 . S
C387 O384 1.235 . S
O388 Co378 2.021 . S
O388 C385 1.238 . S
O389 Co383 2.052 . S
O389 C385 1.241 . S
O390 Co378 2.137 . S
O390 C381 1.247 . S
O391 Co378 2.244 . S
O391 C381 1.272 . S
O391 Co383 2.135 . S
Co392 O393 2.216 . S
Co392 O394 2.091 . S
Co392 O396 2.004 . S
Co392 O402 2.021 . S
Co392 O404 2.137 . S
Co392 O405 2.244 . S
O393 Co392 2.216 . S
O393 C400 1.247 . S
O394 Co392 2.091 . S
O394 C400 1.261 . S
C395 O404 1.247 . S
C395 O405 1.272 . S
O396 Co392 2.004 . S
O396 C401 1.259 . S
Co397 O398 2.061 . S
Co397 O403 2.052 . S
Co397 O405 2.135 . S
O398 Co397 2.061 . S
O398 C401 1.235 . S
C399 O402 1.238 . S
C399 O403 1.241 . S
C400 O393 1.247 . S
C400 O394 1.261 . S
C401 O396 1.259 . S
C401 O398 1.235 . S
O402 Co392 2.021 . S
O402 C399 1.238 . S
O403 Co397 2.052 . S
O403 C399 1.241 . S
O404 Co392 2.137 . S
O404 C395 1.247 . S
O405 Co392 2.244 . S
O405 C395 1.272 . S
O405 Co397 2.135 . S
Co406 O407 2.216 . S
Co406 O408 2.091 . S
Co406 O410 2.004 . S
Co406 O416 2.021 . S
Co406 O418 2.137 . S
Co406 O419 2.244 . S
O407 Co406 2.216 . S
O407 C414 1.247 . S
O408 Co406 2.091 . S
O408 C414 1.261 . S
C409 O418 1.247 . S
C409 O419 1.272 . S
O410 Co406 2.004 . S
O410 C415 1.259 . S
Co411 O412 2.061 . S
Co411 O417 2.052 . S
Co411 O419 2.135 . S
O412 Co411 2.061 . S
O412 C415 1.235 . S
C413 O416 1.238 . S
C413 O417 1.241 . S
C414 O407 1.247 . S
C414 O408 1.261 . S
C415 O410 1.259 . S
C415 O412 1.235 . S
O416 Co406 2.021 . S
O416 C413 1.238 . S
O417 Co411 2.052 . S
O417 C413 1.241 . S
O418 Co406 2.137 . S
O418 C409 1.247 . S
O419 Co406 2.244 . S
O419 C409 1.272 . S
O419 Co411 2.135 . S
Co420 O421 2.216 . S
Co420 O422 2.091 . S
Co420 O424 2.004 . S
Co420 O430 2.021 . S
Co420 O432 2.137 . S
Co420 O433 2.244 . S
O421 Co420 2.216 . S
O421 C428 1.247 . S
O422 Co420 2.091 . S
O422 C428 1.261 . S
C423 O432 1.247 . S
C423 O433 1.272 . S
O424 Co420 2.004 . S
O424 C429 1.259 . S
Co425 O426 2.061 . S
Co425 O431 2.052 . S
Co425 O433 2.135 . S
O426 Co425 2.061 . S
O426 C429 1.235 . S
C427 O430 1.238 . S
C427 O431 1.241 . S
C428 O421 1.247 . S
C428 O422 1.261 . S
C429 O424 1.259 . S
C429 O426 1.235 . S
O430 Co420 2.021 . S
O430 C427 1.238 . S
O431 Co425 2.052 . S
O431 C427 1.241 . S
O432 Co420 2.137 . S
O432 C423 1.247 . S
O433 Co420 2.244 . S
O433 C423 1.272 . S
O433 Co425 2.135 . S
Co434 O435 2.216 . S
Co434 O436 2.091 . S
Co434 O438 2.004 . S
Co434 O444 2.021 . S
Co434 O446 2.137 . S
Co434 O447 2.244 . S
O435 Co434 2.216 . S
O435 C442 1.247 . S
O436 Co434 2.091 . S
O436 C442 1.261 . S
C437 O446 1.247 . S
C437 O447 1.272 . S
O438 Co434 2.004 . S
O438 C443 1.259 . S
Co439 O440 2.061 . S
Co439 O445 2.052 . S
Co439 O447 2.135 . S
O440 Co439 2.061 . S
O440 C443 1.235 . S
C441 O444 1.238 . S
C441 O445 1.241 . S
C442 O435 1.247 . S
C442 O436 1.261 . S
C443 O438 1.259 . S
C443 O440 1.235 . S
O444 Co434 2.021 . S
O444 C441 1.238 . S
O445 Co439 2.052 . S
O445 C441 1.241 . S
O446 Co434 2.137 . S
O446 C437 1.247 . S
O447 Co434 2.244 . S
O447 C437 1.272 . S
O447 Co439 2.135 . S
Co448 O449 2.216 . S
Co448 O450 2.091 . S
Co448 O452 2.004 . S
Co448 O458 2.021 . S
Co448 O460 2.137 . S
Co448 O461 2.244 . S
O449 Co448 2.216 . S
O449 C456 1.247 . S
O450 Co448 2.091 . S
O450 C456 1.261 . S
C451 O460 1.247 . S
C451 O461 1.272 . S
O452 Co448 2.004 . S
O452 C457 1.259 . S
Co453 O454 2.061 . S
Co453 O459 2.052 . S
Co453 O461 2.135 . S
O454 Co453 2.061 . S
O454 C457 1.235 . S
C455 O458 1.238 . S
C455 O459 1.241 . S
C456 O449 1.247 . S
C456 O450 1.261 . S
C457 O452 1.259 . S
C457 O454 1.235 . S
O458 Co448 2.021 . S
O458 C455 1.238 . S
O459 Co453 2.052 . S
O459 C455 1.241 . S
O460 Co448 2.137 . S
O460 C451 1.247 . S
O461 Co448 2.244 . S
O461 C451 1.272 . S
O461 Co453 2.135 . S
Co462 O463 2.216 . S
Co462 O464 2.091 . S
Co462 O466 2.004 . S
Co462 O472 2.021 . S
Co462 O474 2.137 . S
Co462 O475 2.244 . S
O463 Co462 2.216 . S
O463 C470 1.247 . S
O464 Co462 2.091 . S
O464 C470 1.261 . S
C465 O474 1.247 . S
C465 O475 1.272 . S
O466 Co462 2.004 . S
O466 C471 1.259 . S
Co467 O468 2.061 . S
Co467 O473 2.052 . S
Co467 O475 2.135 . S
O468 Co467 2.061 . S
O468 C471 1.235 . S
C469 O472 1.238 . S
C469 O473 1.241 . S
C470 O463 1.247 . S
C470 O464 1.261 . S
C471 O466 1.259 . S
C471 O468 1.235 . S
O472 Co462 2.021 . S
O472 C469 1.238 . S
O473 Co467 2.052 . S
O473 C469 1.241 . S
O474 Co462 2.137 . S
O474 C465 1.247 . S
O475 Co462 2.244 . S
O475 C465 1.272 . S
O475 Co467 2.135 . S
Co476 O477 2.216 . S
Co476 O478 2.091 . S
Co476 O480 2.004 . S
Co476 O486 2.021 . S
Co476 O488 2.137 . S
Co476 O489 2.244 . S
O477 Co476 2.216 . S
O477 C484 1.247 . S
O478 Co476 2.091 . S
O478 C484 1.261 . S
C479 O488 1.247 . S
C479 O489 1.272 . S
O480 Co476 2.004 . S
O480 C485 1.259 . S
Co481 O482 2.061 . S
Co481 O487 2.052 . S
Co481 O489 2.135 . S
O482 Co481 2.061 . S
O482 C485 1.235 . S
C483 O486 1.238 . S
C483 O487 1.241 . S
C484 O477 1.247 . S
C484 O478 1.261 . S
C485 O480 1.259 . S
C485 O482 1.235 . S
O486 Co476 2.021 . S
O486 C483 1.238 . S
O487 Co481 2.052 . S
O487 C483 1.241 . S
O488 Co476 2.137 . S
O488 C479 1.247 . S
O489 Co476 2.244 . S
O489 C479 1.272 . S
O489 Co481 2.135 . S
Co490 O491 2.216 . S
Co490 O492 2.091 . S
Co490 O494 2.004 . S
Co490 O500 2.021 . S
Co490 O502 2.137 . S
Co490 O503 2.244 . S
O491 Co490 2.216 . S
O491 C498 1.247 . S
O492 Co490 2.091 . S
O492 C498 1.261 . S
C493 O502 1.247 . S
C493 O503 1.272 . S
O494 Co490 2.004 . S
O494 C499 1.259 . S
Co495 O496 2.061 . S
Co495 O501 2.052 . S
Co495 O503 2.135 . S
O496 Co495 2.061 . S
O496 C499 1.235 . S
C497 O500 1.238 . S
C497 O501 1.241 . S
C498 O491 1.247 . S
C498 O492 1.261 . S
C499 O494 1.259 . S
C499 O496 1.235 . S
O500 Co490 2.021 . S
O500 C497 1.238 . S
O501 Co495 2.052 . S
O501 C497 1.241 . S
O502 Co490 2.137 . S
O502 C493 1.247 . S
O503 Co490 2.244 . S
O503 C493 1.272 . S
O503 Co495 2.135 . S
Co504 O505 2.216 . S
Co504 O506 2.091 . S
Co504 O508 2.004 . S
Co504 O514 2.021 . S
Co504 O516 2.137 . S
Co504 O517 2.244 . S
O505 Co504 2.216 . S
O505 C512 1.247 . S
O506 Co504 2.091 . S
O506 C512 1.261 . S
C507 O516 1.247 . S
C507 O517 1.272 . S
O508 Co504 2.004 . S
O508 C513 1.259 . S
Co509 O510 2.061 . S
Co509 O515 2.052 . S
Co509 O517 2.135 . S
O510 Co509 2.061 . S
O510 C513 1.235 . S
C511 O514 1.238 . S
C511 O515 1.241 . S
C512 O505 1.247 . S
C512 O506 1.261 . S
C513 O508 1.259 . S
C513 O510 1.235 . S
O514 Co504 2.021 . S
O514 C511 1.238 . S
O515 Co509 2.052 . S
O515 C511 1.241 . S
O516 Co504 2.137 . S
O516 C507 1.247 . S
O517 Co504 2.244 . S
O517 C507 1.272 . S
O517 Co509 2.135 . S
Co518 O519 2.216 . S
Co518 O520 2.091 . S
Co518 O522 2.004 . S
Co518 O528 2.021 . S
Co518 O530 2.137 . S
Co518 O531 2.244 . S
O519 Co518 2.216 . S
O519 C526 1.247 . S
O520 Co518 2.091 . S
O520 C526 1.261 . S
C521 O530 1.247 . S
C521 O531 1.272 . S
O522 Co518 2.004 . S
O522 C527 1.259 . S
Co523 O524 2.061 . S
Co523 O529 2.052 1_554 S
Co523 O531 2.135 1_554 S
O524 Co523 2.061 . S
O524 C527 1.235 1_554 S
C525 O528 1.238 . S
C525 O529 1.241 . S
C526 O519 1.247 . S
C526 O520 1.261 . S
C527 O522 1.259 . S
C527 O524 1.235 1_556 S
O528 Co518 2.021 . S
O528 C525 1.238 . S
O529 Co523 2.052 1_556 S
O529 C525 1.241 . S
O530 Co518 2.137 . S
O530 C521 1.247 . S
O531 Co518 2.244 . S
O531 C521 1.272 . S
O531 Co523 2.135 1_556 S
Co532 O533 2.216 . S
Co532 O534 2.091 . S
Co532 O536 2.004 . S
Co532 O542 2.021 . S
Co532 O544 2.137 . S
Co532 O545 2.244 . S
O533 Co532 2.216 . S
O533 C540 1.247 . S
O534 Co532 2.091 . S
O534 C540 1.261 . S
C535 O544 1.247 . S
C535 O545 1.272 . S
O536 Co532 2.004 . S
O536 C541 1.259 . S
Co537 O538 2.061 . S
Co537 O543 2.052 . S
Co537 O545 2.135 . S
O538 Co537 2.061 . S
O538 C541 1.235 . S
C539 O542 1.238 . S
C539 O543 1.241 . S
C540 O533 1.247 . S
C540 O534 1.261 . S
C541 O536 1.259 . S
C541 O538 1.235 . S
O542 Co532 2.021 . S
O542 C539 1.238 . S
O543 Co537 2.052 . S
O543 C539 1.241 . S
O544 Co532 2.137 . S
O544 C535 1.247 . S
O545 Co532 2.244 . S
O545 C535 1.272 . S
O545 Co537 2.135 . S
Co546 O547 2.216 . S
Co546 O548 2.091 . S
Co546 O550 2.004 . S
Co546 O556 2.021 . S
Co546 O558 2.137 . S
Co546 O559 2.244 . S
O547 Co546 2.216 . S
O547 C554 1.247 . S
O548 Co546 2.091 . S
O548 C554 1.261 . S
C549 O558 1.247 . S
C549 O559 1.272 . S
O550 Co546 2.004 . S
O550 C555 1.259 . S
Co551 O552 2.061 . S
Co551 O557 2.052 . S
Co551 O559 2.135 . S
O552 Co551 2.061 . S
O552 C555 1.235 . S
C553 O556 1.238 . S
C553 O557 1.241 . S
C554 O547 1.247 . S
C554 O548 1.261 . S
C555 O550 1.259 . S
C555 O552 1.235 . S
O556 Co546 2.021 . S
O556 C553 1.238 . S
O557 Co551 2.052 . S
O557 C553 1.241 . S
O558 Co546 2.137 . S
O558 C549 1.247 . S
O559 Co546 2.244 . S
O559 C549 1.272 . S
O559 Co551 2.135 . S
Co560 O561 2.216 . S
Co560 O562 2.091 . S
Co560 O564 2.004 . S
Co560 O570 2.021 . S
Co560 O572 2.137 . S
Co560 O573 2.244 . S
O561 Co560 2.216 . S
O561 C568 1.247 . S
O562 Co560 2.091 . S
O562 C568 1.261 . S
C563 O572 1.247 . S
C563 O573 1.272 . S
O564 Co560 2.004 . S
O564 C569 1.259 . S
Co565 O566 2.061 . S
Co565 O571 2.052 . S
Co565 O573 2.135 . S
O566 Co565 2.061 . S
O566 C569 1.235 . S
C567 O570 1.238 . S
C567 O571 1.241 . S
C568 O561 1.247 . S
C568 O562 1.261 . S
C569 O564 1.259 . S
C569 O566 1.235 . S
O570 Co560 2.021 . S
O570 C567 1.238 . S
O571 Co565 2.052 . S
O571 C567 1.241 . S
O572 Co560 2.137 . S
O572 C563 1.247 . S
O573 Co560 2.244 . S
O573 C563 1.272 . S
O573 Co565 2.135 . S
Co574 O575 2.216 . S
Co574 O576 2.091 . S
Co574 O578 2.004 . S
Co574 O584 2.021 . S
Co574 O586 2.137 . S
Co574 O587 2.244 . S
O575 Co574 2.216 . S
O575 C582 1.247 . S
O576 Co574 2.091 . S
O576 C582 1.261 . S
C577 O586 1.247 . S
C577 O587 1.272 . S
O578 Co574 2.004 . S
O578 C583 1.259 . S
Co579 O580 2.061 . S
Co579 O585 2.052 . S
Co579 O587 2.135 . S
O580 Co579 2.061 . S
O580 C583 1.235 . S
C581 O584 1.238 . S
C581 O585 1.241 . S
C582 O575 1.247 . S
C582 O576 1.261 . S
C583 O578 1.259 . S
C583 O580 1.235 . S
O584 Co574 2.021 . S
O584 C581 1.238 . S
O585 Co579 2.052 . S
O585 C581 1.241 . S
O586 Co574 2.137 . S
O586 C577 1.247 . S
O587 Co574 2.244 . S
O587 C577 1.272 . S
O587 Co579 2.135 . S
Co588 O589 2.216 . S
Co588 O590 2.091 . S
Co588 O592 2.004 . S
Co588 O598 2.021 . S
Co588 O600 2.137 . S
Co588 O601 2.244 . S
O589 Co588 2.216 . S
O589 C596 1.247 . S
O590 Co588 2.091 . S
O590 C596 1.261 . S
C591 O600 1.247 . S
C591 O601 1.272 . S
O592 Co588 2.004 . S
O592 C597 1.259 . S
Co593 O594 2.061 . S
Co593 O599 2.052 . S
Co593 O601 2.135 . S
O594 Co593 2.061 . S
O594 C597 1.235 . S
C595 O598 1.238 . S
C595 O599 1.241 . S
C596 O589 1.247 . S
C596 O590 1.261 . S
C597 O592 1.259 . S
C597 O594 1.235 . S
O598 Co588 2.021 . S
O598 C595 1.238 . S
O599 Co593 2.052 . S
O599 C595 1.241 . S
O600 Co588 2.137 . S
O600 C591 1.247 . S
O601 Co588 2.244 . S
O601 C591 1.272 . S
O601 Co593 2.135 . S
Co602 O603 2.216 . S
Co602 O604 2.091 . S
Co602 O606 2.004 . S
Co602 O612 2.021 . S
Co602 O614 2.137 . S
Co602 O615 2.244 . S
O603 Co602 2.216 . S
O603 C610 1.247 . S
O604 Co602 2.091 . S
O604 C610 1.261 . S
C605 O614 1.247 . S
C605 O615 1.272 . S
O606 Co602 2.004 . S
O606 C611 1.259 . S
Co607 O608 2.061 . S
Co607 O613 2.052 . S
Co607 O615 2.135 . S
O608 Co607 2.061 . S
O608 C611 1.235 . S
C609 O612 1.238 . S
C609 O613 1.241 . S
C610 O603 1.247 . S
C610 O604 1.261 . S
C611 O606 1.259 . S
C611 O608 1.235 . S
O612 Co602 2.021 . S
O612 C609 1.238 . S
O613 Co607 2.052 . S
O613 C609 1.241 . S
O614 Co602 2.137 . S
O614 C605 1.247 . S
O615 Co602 2.244 . S
O615 C605 1.272 . S
O615 Co607 2.135 . S
Co616 O617 2.216 . S
Co616 O618 2.091 . S
Co616 O620 2.004 . S
Co616 O626 2.021 . S
Co616 O628 2.137 . S
Co616 O629 2.244 . S
O617 Co616 2.216 . S
O617 C624 1.247 . S
O618 Co616 2.091 . S
O618 C624 1.261 . S
C619 O628 1.247 . S
C619 O629 1.272 . S
O620 Co616 2.004 . S
O620 C625 1.259 . S
Co621 O622 2.061 . S
Co621 O627 2.052 . S
Co621 O629 2.135 . S
O622 Co621 2.061 . S
O622 C625 1.235 . S
C623 O626 1.238 . S
C623 O627 1.241 . S
C624 O617 1.247 . S
C624 O618 1.261 . S
C625 O620 1.259 . S
C625 O622 1.235 . S
O626 Co616 2.021 . S
O626 C623 1.238 . S
O627 Co621 2.052 . S
O627 C623 1.241 . S
O628 Co616 2.137 . S
O628 C619 1.247 . S
O629 Co616 2.244 . S
O629 C619 1.272 . S
O629 Co621 2.135 . S
Co630 O631 2.216 1_554 S
Co630 O632 2.091 1_554 S
Co630 O634 2.004 . S
Co630 O640 2.021 1_554 S
Co630 O642 2.137 . S
Co630 O643 2.244 . S
O631 Co630 2.216 1_556 S
O631 C638 1.247 . S
O632 Co630 2.091 1_556 S
O632 C638 1.261 . S
C633 O642 1.247 . S
C633 O643 1.272 . S
O634 Co630 2.004 . S
O634 C639 1.259 . S
Co635 O636 2.061 . S
Co635 O641 2.052 1_554 S
Co635 O643 2.135 . S
O636 Co635 2.061 . S
O636 C639 1.235 . S
C637 O640 1.238 . S
C637 O641 1.241 . S
C638 O631 1.247 . S
C638 O632 1.261 . S
C639 O634 1.259 . S
C639 O636 1.235 . S
O640 Co630 2.021 1_556 S
O640 C637 1.238 . S
O641 Co635 2.052 1_556 S
O641 C637 1.241 . S
O642 Co630 2.137 . S
O642 C633 1.247 . S
O643 Co630 2.244 . S
O643 C633 1.272 . S
O643 Co635 2.135 . S
Co644 O645 2.216 . S
Co644 O646 2.091 . S
Co644 O648 2.004 . S
Co644 O654 2.021 . S
Co644 O656 2.137 . S
Co644 O657 2.244 . S
O645 Co644 2.216 . S
O645 C652 1.247 . S
O646 Co644 2.091 . S
O646 C652 1.261 . S
C647 O656 1.247 . S
C647 O657 1.272 . S
O648 Co644 2.004 . S
O648 C653 1.259 . S
Co649 O650 2.061 . S
Co649 O655 2.052 1_545 S
Co649 O657 2.135 1_545 S
O650 Co649 2.061 . S
O650 C653 1.235 1_545 S
C651 O654 1.238 . S
C651 O655 1.241 . S
C652 O645 1.247 . S
C652 O646 1.261 . S
C653 O648 1.259 . S
C653 O650 1.235 1_565 S
O654 Co644 2.021 . S
O654 C651 1.238 . S
O655 Co649 2.052 1_565 S
O655 C651 1.241 . S
O656 Co644 2.137 . S
O656 C647 1.247 . S
O657 Co644 2.244 . S
O657 C647 1.272 . S
O657 Co649 2.135 1_565 S
Co658 O659 2.216 . S
Co658 O660 2.091 . S
Co658 O662 2.004 . S
Co658 O668 2.021 . S
Co658 O670 2.137 . S
Co658 O671 2.244 . S
O659 Co658 2.216 . S
O659 C666 1.247 . S
O660 Co658 2.091 . S
O660 C666 1.261 . S
C661 O670 1.247 . S
C661 O671 1.272 . S
O662 Co658 2.004 . S
O662 C667 1.259 . S
Co663 O664 2.061 . S
Co663 O669 2.052 . S
Co663 O671 2.135 . S
O664 Co663 2.061 . S
O664 C667 1.235 . S
C665 O668 1.238 . S
C665 O669 1.241 . S
C666 O659 1.247 . S
C666 O660 1.261 . S
C667 O662 1.259 . S
C667 O664 1.235 . S
O668 Co658 2.021 . S
O668 C665 1.238 . S
O669 Co663 2.052 . S
O669 C665 1.241 . S
O670 Co658 2.137 . S
O670 C661 1.247 . S
O671 Co658 2.244 . S
O671 C661 1.272 . S
O671 Co663 2.135 . S
H672 C678 0.930 . S
H673 C682 0.930 . S
H674 C687 0.929 . S
H675 C685 0.929 . S
H676 C680 0.929 . S
H677 C686 0.929 . S
C678 H672 0.930 . S
C678 C679 1.367 . S
C678 C686 1.378 . S
C679 C678 1.367 . S
C679 C687 1.433 . S
C680 H676 0.929 . S
C680 C682 1.378 . S
C680 C684 1.350 . S
C681 C684 1.463 . S
C681 C686 1.350 . S
C681 N689 1.427 . S
C682 H673 0.930 . S
C682 C680 1.378 . S
C682 C683 1.367 . S
C683 C682 1.367 . S
C683 C685 1.433 . S
C684 C680 1.350 . S
C684 C681 1.463 . S
C684 N688 1.427 . S
C685 H675 0.929 . S
C685 C683 1.433 . S
C685 N688 1.384 . S
C686 H677 0.929 . S
C686 C678 1.378 . S
C686 C681 1.350 . S
C687 H674 0.929 . S
C687 C679 1.433 . S
C687 N689 1.384 . S
N688 C684 1.427 . S
N688 C685 1.384 . S
N689 C681 1.427 . S
N689 C687 1.384 . S
H690 C696 0.930 . S
H691 C700 0.930 1_655 S
H692 C705 0.929 . S
H693 C703 0.929 . S
H694 C698 0.929 . S
H695 C704 0.929 . S
C696 H690 0.930 . S
C696 C697 1.367 . S
C696 C704 1.378 . S
C697 C696 1.367 . S
C697 C705 1.433 . S
C698 H694 0.929 . S
C698 C700 1.378 . S
C698 C702 1.350 . S
C699 C702 1.463 . S
C699 C704 1.350 . S
C699 N707 1.427 . S
C700 H691 0.930 1_455 S
C700 C698 1.378 . S
C700 C701 1.367 1_455 S
C701 C700 1.367 1_655 S
C701 C703 1.433 1_655 S
C702 C698 1.350 . S
C702 C699 1.463 . S
C702 N706 1.427 . S
C703 H693 0.929 . S
C703 C701 1.433 1_455 S
C703 N706 1.384 . S
C704 H695 0.929 . S
C704 C696 1.378 . S
C704 C699 1.350 . S
C705 H692 0.929 . S
C705 C697 1.433 . S
C705 N707 1.384 . S
N706 C702 1.427 . S
N706 C703 1.384 . S
N707 C699 1.427 . S
N707 C705 1.384 . S
H708 C714 0.930 . S
H709 C718 0.930 . S
H710 C723 0.929 . S
H711 C721 0.929 . S
H712 C716 0.929 . S
H713 C722 0.929 . S
C714 H708 0.930 . S
C714 C715 1.367 . S
C714 C722 1.378 . S
C715 C714 1.367 . S
C715 C723 1.433 . S
C716 H712 0.929 . S
C716 C718 1.378 . S
C716 C720 1.350 . S
C717 C720 1.463 . S
C717 C722 1.350 . S
C717 N725 1.427 . S
C718 H709 0.930 . S
C718 C716 1.378 . S
C718 C719 1.367 . S
C719 C718 1.367 . S
C719 C721 1.433 . S
C720 C716 1.350 . S
C720 C717 1.463 . S
C720 N724 1.427 . S
C721 H711 0.929 . S
C721 C719 1.433 . S
C721 N724 1.384 . S
C722 H713 0.929 . S
C722 C714 1.378 . S
C722 C717 1.350 . S
C723 H710 0.929 . S
C723 C715 1.433 . S
C723 N725 1.384 . S
N724 C720 1.427 . S
N724 C721 1.384 . S
N725 C717 1.427 . S
N725 C723 1.384 . S
H726 C732 0.930 . S
H727 C736 0.920 1_554 S
H728 C741 0.929 . S
H729 C739 0.929 . S
H730 C734 0.915 1_554 S
H731 C740 0.929 . S
C732 H726 0.930 . S
C732 C733 1.367 . S
C732 C740 1.378 . S
C733 C732 1.367 . S
C733 C741 1.433 . S
C734 H730 0.915 1_556 S
C734 C736 1.381 . S
C734 C738 1.350 . S
C735 C738 1.463 . S
C735 C740 1.350 . S
C735 N743 1.427 . S
C736 H727 0.920 1_556 S
C736 C734 1.381 . S
C736 C737 1.375 . S
C737 C736 1.375 . S
C737 C739 1.433 . S
C738 C734 1.350 . S
C738 C735 1.463 . S
C738 N742 1.427 . S
C739 H729 0.929 . S
C739 C737 1.433 . S
C739 N742 1.384 . S
C740 H731 0.929 . S
C740 C732 1.378 . S
C740 C735 1.350 . S
C741 H728 0.929 . S
C741 C733 1.433 . S
C741 N743 1.384 . S
N742 C738 1.427 . S
N742 C739 1.384 . S
N743 C735 1.427 . S
N743 C741 1.384 . S
H744 C750 0.930 . S
H745 C754 0.930 . S
H746 C759 0.929 . S
H747 C757 0.929 . S
H748 C752 0.929 . S
H749 C758 0.929 . S
C750 H744 0.930 . S
C750 C751 1.367 . S
C750 C758 1.378 . S
C751 C750 1.367 . S
C751 C759 1.433 . S
C752 H748 0.929 . S
C752 C754 1.378 . S
C752 C756 1.350 . S
C753 C756 1.463 . S
C753 C758 1.350 . S
C753 N761 1.427 . S
C754 H745 0.930 . S
C754 C752 1.378 . S
C754 C755 1.367 . S
C755 C754 1.367 . S
C755 C757 1.433 . S
C756 C752 1.350 . S
C756 C753 1.463 . S
C756 N760 1.427 . S
C757 H747 0.929 . S
C757 C755 1.433 . S
C757 N760 1.384 . S
C758 H749 0.929 . S
C758 C750 1.378 . S
C758 C753 1.350 . S
C759 H746 0.929 . S
C759 C751 1.433 . S
C759 N761 1.384 . S
N760 C756 1.427 . S
N760 C757 1.384 . S
N761 C753 1.427 . S
N761 C759 1.384 . S
H762 C768 0.930 . S
H763 C772 0.930 . S
H764 C777 0.929 . S
H765 C775 0.929 . S
H766 C770 0.929 . S
H767 C776 0.929 . S
C768 H762 0.930 . S
C768 C769 1.367 . S
C768 C776 1.378 . S
C769 C768 1.367 . S
C769 C777 1.433 . S
C770 H766 0.929 . S
C770 C772 1.378 . S
C770 C774 1.350 . S
C771 C774 1.463 . S
C771 C776 1.350 . S
C771 N779 1.427 . S
C772 H763 0.930 . S
C772 C770 1.378 . S
C772 C773 1.367 . S
C773 C772 1.367 . S
C773 C775 1.433 . S
C774 C770 1.350 . S
C774 C771 1.463 . S
C774 N778 1.427 . S
C775 H765 0.929 . S
C775 C773 1.433 . S
C775 N778 1.384 . S
C776 H767 0.929 . S
C776 C768 1.378 . S
C776 C771 1.350 . S
C777 H764 0.929 . S
C777 C769 1.433 . S
C777 N779 1.384 . S
N778 C774 1.427 . S
N778 C775 1.384 . S
N779 C771 1.427 . S
N779 C777 1.384 . S
H780 C786 0.930 . S
H781 C790 0.930 . S
H782 C795 0.929 . S
H783 C793 0.929 . S
H784 C788 0.929 . S
H785 C794 0.929 . S
C786 H780 0.930 . S
C786 C787 1.367 . S
C786 C794 1.378 . S
C787 C786 1.367 . S
C787 C795 1.433 . S
C788 H784 0.929 . S
C788 C790 1.378 . S
C788 C792 1.350 . S
C789 C792 1.463 . S
C789 C794 1.350 . S
C789 N797 1.427 . S
C790 H781 0.930 . S
C790 C788 1.378 . S
C790 C791 1.367 . S
C791 C790 1.367 . S
C791 C793 1.433 . S
C792 C788 1.350 . S
C792 C789 1.463 . S
C792 N796 1.427 . S
C793 H783 0.929 . S
C793 C791 1.433 . S
C793 N796 1.384 . S
C794 H785 0.929 . S
C794 C786 1.378 . S
C794 C789 1.350 . S
C795 H782 0.929 . S
C795 C787 1.433 . S
C795 N797 1.384 . S
N796 C792 1.427 . S
N796 C793 1.384 . S
N797 C789 1.427 . S
N797 C795 1.384 . S
H798 C804 0.930 . S
H799 C808 0.930 . S
H800 C813 0.929 . S
H801 C811 0.929 . S
H802 C806 0.929 . S
H803 C812 0.929 . S
C804 H798 0.930 . S
C804 C805 1.367 . S
C804 C812 1.378 . S
C805 C804 1.367 . S
C805 C813 1.433 . S
C806 H802 0.929 . S
C806 C808 1.378 . S
C806 C810 1.350 . S
C807 C810 1.463 . S
C807 C812 1.350 . S
C807 N815 1.427 . S
C808 H799 0.930 . S
C808 C806 1.378 . S
C808 C809 1.367 . S
C809 C808 1.367 . S
C809 C811 1.433 . S
C810 C806 1.350 . S
C810 C807 1.463 . S
C810 N814 1.427 . S
C811 H801 0.929 . S
C811 C809 1.433 . S
C811 N814 1.384 . S
C812 H803 0.929 . S
C812 C804 1.378 . S
C812 C807 1.350 . S
C813 H800 0.929 . S
C813 C805 1.433 . S
C813 N815 1.384 . S
N814 C810 1.427 . S
N814 C811 1.384 . S
N815 C807 1.427 . S
N815 C813 1.384 . S
H816 C822 0.930 . S
H817 C826 0.930 . S
H818 C831 0.929 . S
H819 C829 0.929 . S
H820 C824 0.929 . S
H821 C830 0.929 . S
C822 H816 0.930 . S
C822 C823 1.367 . S
C822 C830 1.378 . S
C823 C822 1.367 . S
C823 C831 1.433 . S
C824 H820 0.929 . S
C824 C826 1.378 . S
C824 C828 1.350 . S
C825 C828 1.463 . S
C825 C830 1.350 . S
C825 N833 1.427 . S
C826 H817 0.930 . S
C826 C824 1.378 . S
C826 C827 1.367 . S
C827 C826 1.367 . S
C827 C829 1.433 . S
C828 C824 1.350 . S
C828 C825 1.463 . S
C828 N832 1.427 . S
C829 H819 0.929 . S
C829 C827 1.433 . S
C829 N832 1.384 . S
C830 H821 0.929 . S
C830 C822 1.378 . S
C830 C825 1.350 . S
C831 H818 0.929 . S
C831 C823 1.433 . S
C831 N833 1.384 . S
N832 C828 1.427 . S
N832 C829 1.384 . S
N833 C825 1.427 . S
N833 C831 1.384 . S
H834 C840 0.930 . S
H835 C844 0.930 . S
H836 C849 0.942 . S
H837 C847 0.929 . S
H838 C842 0.927 1_545 S
H839 C848 0.929 . S
C840 H834 0.930 . S
C840 C841 1.367 . S
C840 C848 1.378 . S
C841 C840 1.367 . S
C841 C849 1.424 1_565 S
C842 H838 0.927 1_565 S
C842 C844 1.378 . S
C842 C846 1.350 . S
C843 C846 1.463 . S
C843 C848 1.350 . S
C843 N851 1.427 . S
C844 H835 0.930 . S
C844 C842 1.378 . S
C844 C845 1.367 . S
C845 C844 1.367 . S
C845 C847 1.433 . S
C846 C842 1.350 . S
C846 C843 1.463 . S
C846 N850 1.427 . S
C847 H837 0.929 . S
C847 C845 1.433 . S
C847 N850 1.384 . S
C848 H839 0.929 . S
C848 C840 1.378 . S
C848 C843 1.350 . S
C849 H836 0.942 . S
C849 C841 1.424 1_545 S
C849 N851 1.381 1_545 S
N850 C846 1.427 . S
N850 C847 1.384 . S
N851 C843 1.427 . S
N851 C849 1.381 1_565 S
H852 C858 0.930 . S
H853 C862 0.930 . S
H854 C867 0.929 . S
H855 C865 0.929 . S
H856 C860 0.929 . S
H857 C866 0.929 . S
C858 H852 0.930 . S
C858 C859 1.367 . S
C858 C866 1.378 . S
C859 C858 1.367 . S
C859 C867 1.433 . S
C860 H856 0.929 . S
C860 C862 1.378 . S
C860 C864 1.350 . S
C861 C864 1.463 . S
C861 C866 1.350 . S
C861 N869 1.427 . S
C862 H853 0.930 . S
C862 C860 1.378 . S
C862 C863 1.367 . S
C863 C862 1.367 . S
C863 C865 1.433 . S
C864 C860 1.350 . S
C864 C861 1.463 . S
C864 N868 1.427 . S
C865 H855 0.929 . S
C865 C863 1.433 . S
C865 N868 1.384 . S
C866 H857 0.929 . S
C866 C858 1.378 . S
C866 C861 1.350 . S
C867 H854 0.929 . S
C867 C859 1.433 . S
C867 N869 1.384 . S
N868 C864 1.427 . S
N868 C865 1.384 . S
N869 C861 1.427 . S
N869 C867 1.384 . S
H870 C876 0.930 . S
H871 C880 0.930 . S
H872 C885 0.929 . S
H873 C883 0.929 . S
H874 C878 0.929 . S
H875 C884 0.929 . S
C876 H870 0.930 . S
C876 C877 1.367 . S
C876 C884 1.378 . S
C877 C876 1.367 . S
C877 C885 1.433 . S
C878 H874 0.929 . S
C878 C880 1.378 . S
C878 C882 1.350 . S
C879 C882 1.463 . S
C879 C884 1.350 . S
C879 N887 1.427 . S
C880 H871 0.930 . S
C880 C878 1.378 . S
C880 C881 1.367 . S
C881 C880 1.367 . S
C881 C883 1.433 . S
C882 C878 1.350 . S
C882 C879 1.463 . S
C882 N886 1.427 . S
C883 H873 0.929 . S
C883 C881 1.433 . S
C883 N886 1.384 . S
C884 H875 0.929 . S
C884 C876 1.378 . S
C884 C879 1.350 . S
C885 H872 0.929 . S
C885 C877 1.433 . S
C885 N887 1.384 . S
N886 C882 1.427 . S
N886 C883 1.384 . S
N887 C879 1.427 . S
N887 C885 1.384 . S
H888 C894 0.930 . S
H889 C898 0.930 . S
H890 C903 0.929 . S
H891 C901 0.929 . S
H892 C896 0.929 . S
H893 C902 0.929 . S
C894 H888 0.930 . S
C894 C895 1.367 . S
C894 C902 1.378 . S
C895 C894 1.367 . S
C895 C903 1.433 . S
C896 H892 0.929 . S
C896 C898 1.378 . S
C896 C900 1.350 . S
C897 C900 1.463 . S
C897 C902 1.350 . S
C897 N905 1.427 . S
C898 H889 0.930 . S
C898 C896 1.378 . S
C898 C899 1.367 . S
C899 C898 1.367 . S
C899 C901 1.433 . S
C900 C896 1.350 . S
C900 C897 1.463 . S
C900 N904 1.427 . S
C901 H891 0.929 . S
C901 C899 1.433 . S
C901 N904 1.384 . S
C902 H893 0.929 . S
C902 C894 1.378 . S
C902 C897 1.350 . S
C903 H890 0.929 . S
C903 C895 1.433 . S
C903 N905 1.384 . S
N904 C900 1.427 . S
N904 C901 1.384 . S
N905 C897 1.427 . S
N905 C903 1.384 . S
H906 C912 0.930 . S
H907 C916 0.930 . S
H908 C921 0.929 . S
H909 C919 0.929 . S
H910 C914 0.929 . S
H911 C920 0.929 . S
C912 H906 0.930 . S
C912 C913 1.367 . S
C912 C920 1.378 . S
C913 C912 1.367 . S
C913 C921 1.433 . S
C914 H910 0.929 . S
C914 C916 1.378 . S
C914 C918 1.350 . S
C915 C918 1.463 . S
C915 C920 1.350 . S
C915 N923 1.427 . S
C916 H907 0.930 . S
C916 C914 1.378 . S
C916 C917 1.367 . S
C917 C916 1.367 . S
C917 C919 1.433 . S
C918 C914 1.350 . S
C918 C915 1.463 . S
C918 N922 1.427 . S
C919 H909 0.929 . S
C919 C917 1.433 . S
C919 N922 1.384 . S
C920 H911 0.929 . S
C920 C912 1.378 . S
C920 C915 1.350 . S
C921 H908 0.929 . S
C921 C913 1.433 . S
C921 N923 1.384 . S
N922 C918 1.427 . S
N922 C919 1.384 . S
N923 C915 1.427 . S
N923 C921 1.384 . S
H924 C930 0.930 . S
H925 C934 0.930 . S
H926 C939 0.929 1_455 S
H927 C937 0.929 . S
H928 C932 0.929 . S
H929 C938 0.929 . S
C930 H924 0.930 . S
C930 C931 1.367 . S
C930 C938 1.378 . S
C931 C930 1.367 . S
C931 C939 1.433 . S
C932 H928 0.929 . S
C932 C934 1.378 . S
C932 C936 1.350 1_455 S
C933 C936 1.463 . S
C933 C938 1.350 . S
C933 N941 1.421 1_655 S
C934 H925 0.930 . S
C934 C932 1.378 . S
C934 C935 1.367 1_455 S
C935 C934 1.367 1_655 S
C935 C937 1.433 . S
C936 C932 1.350 1_655 S
C936 C933 1.463 . S
C936 N940 1.427 . S
C937 H927 0.929 . S
C937 C935 1.433 . S
C937 N940 1.384 . S
C938 H929 0.929 . S
C938 C930 1.378 . S
C938 C933 1.350 . S
C939 H926 0.929 1_655 S
C939 C931 1.433 . S
C939 N941 1.383 1_655 S
N940 C936 1.427 . S
N940 C937 1.384 . S
N941 C933 1.421 1_455 S
N941 C939 1.383 1_455 S
H942 C948 0.930 . S
H943 C952 0.930 . S
H944 C957 0.929 . S
H945 C955 0.929 . S
H946 C950 0.929 . S
H947 C956 0.929 . S
C948 H942 0.930 . S
C948 C949 1.367 . S
C948 C956 1.378 . S
C949 C948 1.367 . S
C949 C957 1.433 . S
C950 H946 0.929 . S
C950 C952 1.378 . S
C950 C954 1.350 . S
C951 C954 1.463 . S
C951 C956 1.350 . S
C951 N959 1.427 . S
C952 H943 0.930 . S
C952 C950 1.378 . S
C952 C953 1.367 . S
C953 C952 1.367 . S
C953 C955 1.433 . S
C954 C950 1.350 . S
C954 C951 1.463 . S
C954 N958 1.427 . S
C955 H945 0.929 . S
C955 C953 1.433 . S
C955 N958 1.384 . S
C956 H947 0.929 . S
C956 C948 1.378 . S
C956 C951 1.350 . S
C957 H944 0.929 . S
C957 C949 1.433 . S
C957 N959 1.384 . S
N958 C954 1.427 . S
N958 C955 1.384 . S
N959 C951 1.427 . S
N959 C957 1.384 . S
H960 C966 0.930 . S
H961 C970 0.930 . S
H962 C975 0.929 . S
H963 C973 0.929 . S
H964 C968 0.929 . S
H965 C974 0.929 . S
C966 H960 0.930 . S
C966 C967 1.367 . S
C966 C974 1.378 . S
C967 C966 1.367 . S
C967 C975 1.433 . S
C968 H964 0.929 . S
C968 C970 1.378 . S
C968 C972 1.350 . S
C969 C972 1.463 . S
C969 C974 1.350 . S
C969 N977 1.427 . S
C970 H961 0.930 . S
C970 C968 1.378 . S
C970 C971 1.367 . S
C971 C970 1.367 . S
C971 C973 1.433 . S
C972 C968 1.350 . S
C972 C969 1.463 . S
C972 N976 1.427 . S
C973 H963 0.929 . S
C973 C971 1.433 . S
C973 N976 1.384 . S
C974 H965 0.929 . S
C974 C966 1.378 . S
C974 C969 1.350 . S
C975 H962 0.929 . S
C975 C967 1.433 . S
C975 N977 1.384 . S
N976 C972 1.427 . S
N976 C973 1.384 . S
N977 C969 1.427 . S
N977 C975 1.384 . S
H978 C984 0.930 . S
H979 C988 0.930 . S
H980 C993 0.929 . S
H981 C991 0.929 . S
H982 C986 0.929 . S
H983 C992 0.929 . S
C984 H978 0.930 . S
C984 C985 1.367 . S
C984 C992 1.378 . S
C985 C984 1.367 . S
C985 C993 1.433 . S
C986 H982 0.929 . S
C986 C988 1.378 . S
C986 C990 1.350 . S
C987 C990 1.463 . S
C987 C992 1.350 . S
C987 N995 1.427 . S
C988 H979 0.930 . S
C988 C986 1.378 . S
C988 C989 1.367 . S
C989 C988 1.367 . S
C989 C991 1.433 . S
C990 C986 1.350 . S
C990 C987 1.463 . S
C990 N994 1.427 . S
C991 H981 0.929 . S
C991 C989 1.433 . S
C991 N994 1.384 . S
C992 H983 0.929 . S
C992 C984 1.378 . S
C992 C987 1.350 . S
C993 H980 0.929 . S
C993 C985 1.433 . S
C993 N995 1.384 . S
N994 C990 1.427 . S
N994 C991 1.384 . S
N995 C987 1.427 . S
N995 C993 1.384 . S
H996 C1002 0.930 . S
H997 C1006 0.930 . S
H998 C1011 0.929 . S
H999 C1009 0.929 . S
H1000 C1004 0.929 . S
H1001 C1010 0.929 . S
C1002 H996 0.930 . S
C1002 C1003 1.367 . S
C1002 C1010 1.378 . S
C1003 C1002 1.367 . S
C1003 C1011 1.433 . S
C1004 H1000 0.929 . S
C1004 C1006 1.378 . S
C1004 C1008 1.350 . S
C1005 C1008 1.463 . S
C1005 C1010 1.350 . S
C1005 N1013 1.427 . S
C1006 H997 0.930 . S
C1006 C1004 1.378 . S
C1006 C1007 1.367 . S
C1007 C1006 1.367 . S
C1007 C1009 1.433 . S
C1008 C1004 1.350 . S
C1008 C1005 1.463 . S
C1008 N1012 1.427 . S
C1009 H999 0.929 . S
C1009 C1007 1.433 . S
C1009 N1012 1.384 . S
C1010 H1001 0.929 . S
C1010 C1002 1.378 . S
C1010 C1005 1.350 . S
C1011 H998 0.929 . S
C1011 C1003 1.433 . S
C1011 N1013 1.384 . S
N1012 C1008 1.427 . S
N1012 C1009 1.384 . S
N1013 C1005 1.427 . S
N1013 C1011 1.384 . S
H1014 C1020 0.930 . S
H1015 C1024 0.930 . S
H1016 C1029 0.929 . S
H1017 C1027 0.929 . S
H1018 C1022 0.929 . S
H1019 C1028 0.929 . S
C1020 H1014 0.930 . S
C1020 C1021 1.367 . S
C1020 C1028 1.378 . S
C1021 C1020 1.367 . S
C1021 C1029 1.433 . S
C1022 H1018 0.929 . S
C1022 C1024 1.378 . S
C1022 C1026 1.350 . S
C1023 C1026 1.463 . S
C1023 C1028 1.350 . S
C1023 N1031 1.427 . S
C1024 H1015 0.930 . S
C1024 C1022 1.378 . S
C1024 C1025 1.367 . S
C1025 C1024 1.367 . S
C1025 C1027 1.433 . S
C1026 C1022 1.350 . S
C1026 C1023 1.463 . S
C1026 N1030 1.427 . S
C1027 H1017 0.929 . S
C1027 C1025 1.433 . S
C1027 N1030 1.384 . S
C1028 H1019 0.929 . S
C1028 C1020 1.378 . S
C1028 C1023 1.350 . S
C1029 H1016 0.929 . S
C1029 C1021 1.433 . S
C1029 N1031 1.384 . S
N1030 C1026 1.427 . S
N1030 C1027 1.384 . S
N1031 C1023 1.427 . S
N1031 C1029 1.384 . S
H1032 C1038 0.930 1_556 S
H1033 C1042 0.930 . S
H1034 C1047 0.904 1_556 S
H1035 C1045 0.929 . S
H1036 C1040 0.929 . S
H1037 C1046 0.929 . S
C1038 H1032 0.930 1_554 S
C1038 C1039 1.367 1_554 S
C1038 C1046 1.378 . S
C1039 C1038 1.367 1_556 S
C1039 C1047 1.433 1_556 S
C1040 H1036 0.929 . S
C1040 C1042 1.378 . S
C1040 C1044 1.350 . S
C1041 C1044 1.463 . S
C1041 C1046 1.350 . S
C1041 N1049 1.427 . S
C1042 H1033 0.930 . S
C1042 C1040 1.378 . S
C1042 C1043 1.367 . S
C1043 C1042 1.367 . S
C1043 C1045 1.433 . S
C1044 C1040 1.350 . S
C1044 C1041 1.463 . S
C1044 N1048 1.427 . S
C1045 H1035 0.929 . S
C1045 C1043 1.433 . S
C1045 N1048 1.384 . S
C1046 H1037 0.929 . S
C1046 C1038 1.378 . S
C1046 C1041 1.350 . S
C1047 H1034 0.904 1_554 S
C1047 C1039 1.433 1_554 S
C1047 N1049 1.384 . S
N1048 C1044 1.427 . S
N1048 C1045 1.384 . S
N1049 C1041 1.427 . S
N1049 C1047 1.384 . S
H1050 C1056 0.930 . S
H1051 C1060 0.930 . S
H1052 C1065 0.929 . S
H1053 C1063 0.929 . S
H1054 C1058 0.929 . S
H1055 C1064 0.929 . S
C1056 H1050 0.930 . S
C1056 C1057 1.367 . S
C1056 C1064 1.378 . S
C1057 C1056 1.367 . S
C1057 C1065 1.433 . S
C1058 H1054 0.929 . S
C1058 C1060 1.378 . S
C1058 C1062 1.350 . S
C1059 C1062 1.463 . S
C1059 C1064 1.350 . S
C1059 N1067 1.427 . S
C1060 H1051 0.930 . S
C1060 C1058 1.378 . S
C1060 C1061 1.367 . S
C1061 C1060 1.367 . S
C1061 C1063 1.433 . S
C1062 C1058 1.350 . S
C1062 C1059 1.463 . S
C1062 N1066 1.427 . S
C1063 H1053 0.929 . S
C1063 C1061 1.433 . S
C1063 N1066 1.384 . S
C1064 H1055 0.929 . S
C1064 C1056 1.378 . S
C1064 C1059 1.350 . S
C1065 H1052 0.929 . S
C1065 C1057 1.433 . S
C1065 N1067 1.384 . S
N1066 C1062 1.427 . S
N1066 C1063 1.384 . S
N1067 C1059 1.427 . S
N1067 C1065 1.384 . S
H1068 C1074 0.930 . S
H1069 C1078 0.930 . S
H1070 C1083 0.929 . S
H1071 C1081 0.929 . S
H1072 C1076 0.929 . S
H1073 C1082 0.929 . S
C1074 H1068 0.930 . S
C1074 C1075 1.367 . S
C1074 C1082 1.378 . S
C1075 C1074 1.367 . S
C1075 C1083 1.433 . S
C1076 H1072 0.929 . S
C1076 C1078 1.378 . S
C1076 C1080 1.350 . S
C1077 C1080 1.463 . S
C1077 C1082 1.350 . S
C1077 N1085 1.427 . S
C1078 H1069 0.930 . S
C1078 C1076 1.378 . S
C1078 C1079 1.367 . S
C1079 C1078 1.367 . S
C1079 C1081 1.433 . S
C1080 C1076 1.350 . S
C1080 C1077 1.463 . S
C1080 N1084 1.427 . S
C1081 H1071 0.929 . S
C1081 C1079 1.433 . S
C1081 N1084 1.384 . S
C1082 H1073 0.929 . S
C1082 C1074 1.378 . S
C1082 C1077 1.350 . S
C1083 H1070 0.929 . S
C1083 C1075 1.433 . S
C1083 N1085 1.384 . S
N1084 C1080 1.427 . S
N1084 C1081 1.384 . S
N1085 C1077 1.427 . S
N1085 C1083 1.384 . S
H1086 C1092 0.930 . S
H1087 C1096 0.930 . S
H1088 C1101 0.929 . S
H1089 C1099 0.929 1_565 S
H1090 C1094 0.929 . S
H1091 C1100 0.929 . S
C1092 H1086 0.930 . S
C1092 C1093 1.367 . S
C1092 C1100 1.378 . S
C1093 C1092 1.367 . S
C1093 C1101 1.433 . S
C1094 H1090 0.929 . S
C1094 C1096 1.378 . S
C1094 C1098 1.350 . S
C1095 C1098 1.463 . S
C1095 C1100 1.350 . S
C1095 N1103 1.427 . S
C1096 H1087 0.930 . S
C1096 C1094 1.378 . S
C1096 C1097 1.367 1_545 S
C1097 C1096 1.367 1_565 S
C1097 C1099 1.433 1_565 S
C1098 C1094 1.350 . S
C1098 C1095 1.463 . S
C1098 N1102 1.427 . S
C1099 H1089 0.929 1_545 S
C1099 C1097 1.433 1_545 S
C1099 N1102 1.384 . S
C1100 H1091 0.929 . S
C1100 C1092 1.378 . S
C1100 C1095 1.350 . S
C1101 H1088 0.929 . S
C1101 C1093 1.433 . S
C1101 N1103 1.384 . S
N1102 C1098 1.427 . S
N1102 C1099 1.384 . S
N1103 C1095 1.427 . S
N1103 C1101 1.384 . S
H1104 C1110 0.882 1_455 S
H1105 C1114 0.930 . S
H1106 C1119 0.929 . S
H1107 C1117 0.929 . S
H1108 C1112 0.929 . S
H1109 C1118 0.946 . S
C1110 H1104 0.882 1_655 S
C1110 C1111 1.421 . S
C1110 C1118 1.374 1_655 S
C1111 C1110 1.421 . S
C1111 C1119 1.433 . S
C1112 H1108 0.929 . S
C1112 C1114 1.378 . S
C1112 C1116 1.350 . S
C1113 C1116 1.463 . S
C1113 C1118 1.334 1_655 S
C1113 N1121 1.427 . S
C1114 H1105 0.930 . S
C1114 C1112 1.378 . S
C1114 C1115 1.367 . S
C1115 C1114 1.367 . S
C1115 C1117 1.433 1_655 S
C1116 C1112 1.350 . S
C1116 C1113 1.463 . S
C1116 N1120 1.427 1_655 S
C1117 H1107 0.929 . S
C1117 C1115 1.433 1_455 S
C1117 N1120 1.384 . S
C1118 H1109 0.946 . S
C1118 C1110 1.374 1_455 S
C1118 C1113 1.334 1_455 S
C1119 H1106 0.929 . S
C1119 C1111 1.433 . S
C1119 N1121 1.384 . S
N1120 C1116 1.427 1_455 S
N1120 C1117 1.384 . S
N1121 C1113 1.427 . S
N1121 C1119 1.384 . S
H1122 C1128 0.930 . S
H1123 C1132 0.930 . S
H1124 C1137 0.929 . S
H1125 C1135 0.929 . S
H1126 C1130 0.929 . S
H1127 C1136 0.929 . S
C1128 H1122 0.930 . S
C1128 C1129 1.367 . S
C1128 C1136 1.378 . S
C1129 C1128 1.367 . S
C1129 C1137 1.433 . S
C1130 H1126 0.929 . S
C1130 C1132 1.378 . S
C1130 C1134 1.350 . S
C1131 C1134 1.463 . S
C1131 C1136 1.350 . S
C1131 N1139 1.427 . S
C1132 H1123 0.930 . S
C1132 C1130 1.378 . S
C1132 C1133 1.367 . S
C1133 C1132 1.367 . S
C1133 C1135 1.433 . S
C1134 C1130 1.350 . S
C1134 C1131 1.463 . S
C1134 N1138 1.427 . S
C1135 H1125 0.929 . S
C1135 C1133 1.433 . S
C1135 N1138 1.384 . S
C1136 H1127 0.929 . S
C1136 C1128 1.378 . S
C1136 C1131 1.350 . S
C1137 H1124 0.929 . S
C1137 C1129 1.433 . S
C1137 N1139 1.384 . S
N1138 C1134 1.427 . S
N1138 C1135 1.384 . S
N1139 C1131 1.427 . S
N1139 C1137 1.384 . S
H1140 C1146 0.930 . S
H1141 C1150 0.930 . S
H1142 C1155 0.929 . S
H1143 C1153 0.929 . S
H1144 C1148 0.929 . S
H1145 C1154 0.929 . S
C1146 H1140 0.930 . S
C1146 C1147 1.367 . S
C1146 C1154 1.378 . S
C1147 C1146 1.367 . S
C1147 C1155 1.433 . S
C1148 H1144 0.929 . S
C1148 C1150 1.378 . S
C1148 C1152 1.350 . S
C1149 C1152 1.463 . S
C1149 C1154 1.350 . S
C1149 N1157 1.427 . S
C1150 H1141 0.930 . S
C1150 C1148 1.378 . S
C1150 C1151 1.367 . S
C1151 C1150 1.367 . S
C1151 C1153 1.433 . S
C1152 C1148 1.350 . S
C1152 C1149 1.463 . S
C1152 N1156 1.427 . S
C1153 H1143 0.929 . S
C1153 C1151 1.433 . S
C1153 N1156 1.384 . S
C1154 H1145 0.929 . S
C1154 C1146 1.378 . S
C1154 C1149 1.350 . S
C1155 H1142 0.929 . S
C1155 C1147 1.433 . S
C1155 N1157 1.384 . S
N1156 C1152 1.427 . S
N1156 C1153 1.384 . S
N1157 C1149 1.427 . S
N1157 C1155 1.384 . S
H1158 C1164 0.930 . S
H1159 C1168 0.930 . S
H1160 C1173 0.929 . S
H1161 C1171 0.929 . S
H1162 C1166 0.929 . S
H1163 C1172 0.929 . S
C1164 H1158 0.930 . S
C1164 C1165 1.367 . S
C1164 C1172 1.378 . S
C1165 C1164 1.367 . S
C1165 C1173 1.433 . S
C1166 H1162 0.929 . S
C1166 C1168 1.378 . S
C1166 C1170 1.350 . S
C1167 C1170 1.463 . S
C1167 C1172 1.350 . S
C1167 N1175 1.427 . S
C1168 H1159 0.930 . S
C1168 C1166 1.378 . S
C1168 C1169 1.367 . S
C1169 C1168 1.367 . S
C1169 C1171 1.433 . S
C1170 C1166 1.350 . S
C1170 C1167 1.463 . S
C1170 N1174 1.427 . S
C1171 H1161 0.929 . S
C1171 C1169 1.433 . S
C1171 N1174 1.384 . S
C1172 H1163 0.929 . S
C1172 C1164 1.378 . S
C1172 C1167 1.350 . S
C1173 H1160 0.929 . S
C1173 C1165 1.433 . S
C1173 N1175 1.384 . S
N1174 C1170 1.427 . S
N1174 C1171 1.384 . S
N1175 C1167 1.427 . S
N1175 C1173 1.384 . S
H1176 C1182 0.946 . S
H1177 C1186 0.930 . S
H1178 C1191 0.929 . S
H1179 C1189 0.929 . S
H1180 C1184 0.929 . S
H1181 C1190 0.929 . S
C1182 H1176 0.946 . S
C1182 C1183 1.367 . S
C1182 C1190 1.378 . S
C1183 C1182 1.367 . S
C1183 C1191 1.433 . S
C1184 H1180 0.929 . S
C1184 C1186 1.378 . S
C1184 C1188 1.350 . S
C1185 C1188 1.463 . S
C1185 C1190 1.350 . S
C1185 N1193 1.427 . S
C1186 H1177 0.930 . S
C1186 C1184 1.378 . S
C1186 C1187 1.367 . S
C1187 C1186 1.367 . S
C1187 C1189 1.433 . S
C1188 C1184 1.350 . S
C1188 C1185 1.463 . S
C1188 N1192 1.427 . S
C1189 H1179 0.929 . S
C1189 C1187 1.433 . S
C1189 N1192 1.384 . S
C1190 H1181 0.929 . S
C1190 C1182 1.378 . S
C1190 C1185 1.350 . S
C1191 H1178 0.929 . S
C1191 C1183 1.433 . S
C1191 N1193 1.384 . S
N1192 C1188 1.427 . S
N1192 C1189 1.384 . S
N1193 C1185 1.427 . S
N1193 C1191 1.384 . S
H1194 C1200 0.930 . S
H1195 C1204 0.930 . S
H1196 C1209 0.929 . S
H1197 C1207 0.929 . S
H1198 C1202 0.929 . S
H1199 C1208 0.929 . S
C1200 H1194 0.930 . S
C1200 C1201 1.367 . S
C1200 C1208 1.378 . S
C1201 C1200 1.367 . S
C1201 C1209 1.433 . S
C1202 H1198 0.929 . S
C1202 C1204 1.378 . S
C1202 C1206 1.350 . S
C1203 C1206 1.463 . S
C1203 C1208 1.350 . S
C1203 N1211 1.427 . S
C1204 H1195 0.930 . S
C1204 C1202 1.378 . S
C1204 C1205 1.367 . S
C1205 C1204 1.367 . S
C1205 C1207 1.433 . S
C1206 C1202 1.350 . S
C1206 C1203 1.463 . S
C1206 N1210 1.427 . S
C1207 H1197 0.929 . S
C1207 C1205 1.433 . S
C1207 N1210 1.384 . S
C1208 H1199 0.929 . S
C1208 C1200 1.378 . S
C1208 C1203 1.350 . S
C1209 H1196 0.929 . S
C1209 C1201 1.433 . S
C1209 N1211 1.384 . S
N1210 C1206 1.427 . S
N1210 C1207 1.384 . S
N1211 C1203 1.427 . S
N1211 C1209 1.384 . S
H1212 C1218 0.930 . S
H1213 C1222 0.930 . S
H1214 C1227 0.929 . S
H1215 C1225 0.929 . S
H1216 C1220 0.929 . S
H1217 C1226 0.929 . S
C1218 H1212 0.930 . S
C1218 C1219 1.367 . S
C1218 C1226 1.378 . S
C1219 C1218 1.367 . S
C1219 C1227 1.433 . S
C1220 H1216 0.929 . S
C1220 C1222 1.378 . S
C1220 C1224 1.350 . S
C1221 C1224 1.463 . S
C1221 C1226 1.350 . S
C1221 N1229 1.427 . S
C1222 H1213 0.930 . S
C1222 C1220 1.378 . S
C1222 C1223 1.367 . S
C1223 C1222 1.367 . S
C1223 C1225 1.433 . S
C1224 C1220 1.350 . S
C1224 C1221 1.463 . S
C1224 N1228 1.427 . S
C1225 H1215 0.929 . S
C1225 C1223 1.433 . S
C1225 N1228 1.384 . S
C1226 H1217 0.929 . S
C1226 C1218 1.378 . S
C1226 C1221 1.350 . S
C1227 H1214 0.929 . S
C1227 C1219 1.433 . S
C1227 N1229 1.384 . S
N1228 C1224 1.427 . S
N1228 C1225 1.384 . S
N1229 C1221 1.427 . S
N1229 C1227 1.384 . S
H1230 C1236 0.930 . S
H1231 C1240 0.930 . S
H1232 C1245 0.929 . S
H1233 C1243 0.929 . S
H1234 C1238 0.929 . S
H1235 C1244 0.929 . S
C1236 H1230 0.930 . S
C1236 C1237 1.367 . S
C1236 C1244 1.378 . S
C1237 C1236 1.367 . S
C1237 C1245 1.433 . S
C1238 H1234 0.929 . S
C1238 C1240 1.378 . S
C1238 C1242 1.350 . S
C1239 C1242 1.463 . S
C1239 C1244 1.350 . S
C1239 N1247 1.427 . S
C1240 H1231 0.930 . S
C1240 C1238 1.378 . S
C1240 C1241 1.367 . S
C1241 C1240 1.367 . S
C1241 C1243 1.433 . S
C1242 C1238 1.350 . S
C1242 C1239 1.463 . S
C1242 N1246 1.427 . S
C1243 H1233 0.929 . S
C1243 C1241 1.433 . S
C1243 N1246 1.384 . S
C1244 H1235 0.929 . S
C1244 C1236 1.378 . S
C1244 C1239 1.350 . S
C1245 H1232 0.929 . S
C1245 C1237 1.433 . S
C1245 N1247 1.384 . S
N1246 C1242 1.427 . S
N1246 C1243 1.384 . S
N1247 C1239 1.427 . S
N1247 C1245 1.384 . S
H1248 C1254 0.930 . S
H1249 C1258 0.930 . S
H1250 C1263 0.929 . S
H1251 C1261 0.929 . S
H1252 C1256 0.929 . S
H1253 C1262 0.929 . S
C1254 H1248 0.930 . S
C1254 C1255 1.367 . S
C1254 C1262 1.378 . S
C1255 C1254 1.367 . S
C1255 C1263 1.433 . S
C1256 H1252 0.929 . S
C1256 C1258 1.378 . S
C1256 C1260 1.350 . S
C1257 C1260 1.463 . S
C1257 C1262 1.350 . S
C1257 N1265 1.427 . S
C1258 H1249 0.930 . S
C1258 C1256 1.378 . S
C1258 C1259 1.367 . S
C1259 C1258 1.367 . S
C1259 C1261 1.433 . S
C1260 C1256 1.350 . S
C1260 C1257 1.463 . S
C1260 N1264 1.427 . S
C1261 H1251 0.929 . S
C1261 C1259 1.433 . S
C1261 N1264 1.384 . S
C1262 H1253 0.929 . S
C1262 C1254 1.378 . S
C1262 C1257 1.350 . S
C1263 H1250 0.929 . S
C1263 C1255 1.433 . S
C1263 N1265 1.384 . S
N1264 C1260 1.427 . S
N1264 C1261 1.384 . S
N1265 C1257 1.427 . S
N1265 C1263 1.384 . S
H1266 C1272 0.930 . S
H1267 C1276 0.930 . S
H1268 C1281 0.929 . S
H1269 C1279 0.929 . S
H1270 C1274 0.929 . S
H1271 C1280 0.929 . S
C1272 H1266 0.930 . S
C1272 C1273 1.367 . S
C1272 C1280 1.378 . S
C1273 C1272 1.367 . S
C1273 C1281 1.433 . S
C1274 H1270 0.929 . S
C1274 C1276 1.378 . S
C1274 C1278 1.350 . S
C1275 C1278 1.463 . S
C1275 C1280 1.350 . S
C1275 N1283 1.427 . S
C1276 H1267 0.930 . S
C1276 C1274 1.378 . S
C1276 C1277 1.367 . S
C1277 C1276 1.367 . S
C1277 C1279 1.433 . S
C1278 C1274 1.350 . S
C1278 C1275 1.463 . S
C1278 N1282 1.427 . S
C1279 H1269 0.929 . S
C1279 C1277 1.433 . S
C1279 N1282 1.384 . S
C1280 H1271 0.929 . S
C1280 C1272 1.378 . S
C1280 C1275 1.350 . S
C1281 H1268 0.929 . S
C1281 C1273 1.433 . S
C1281 N1283 1.384 . S
N1282 C1278 1.427 . S
N1282 C1279 1.384 . S
N1283 C1275 1.427 . S
N1283 C1281 1.384 . S
H1284 C1290 0.930 . S
H1285 C1294 0.930 . S
H1286 C1299 0.929 . S
H1287 C1297 0.929 . S
H1288 C1292 0.929 . S
H1289 C1298 0.929 . S
C1290 H1284 0.930 . S
C1290 C1291 1.367 . S
C1290 C1298 1.378 . S
C1291 C1290 1.367 . S
C1291 C1299 1.433 . S
C1292 H1288 0.929 . S
C1292 C1294 1.378 . S
C1292 C1296 1.350 . S
C1293 C1296 1.463 . S
C1293 C1298 1.350 . S
C1293 N1301 1.427 . S
C1294 H1285 0.930 . S
C1294 C1292 1.378 . S
C1294 C1295 1.367 . S
C1295 C1294 1.367 . S
C1295 C1297 1.433 . S
C1296 C1292 1.350 . S
C1296 C1293 1.463 . S
C1296 N1300 1.427 . S
C1297 H1287 0.929 . S
C1297 C1295 1.433 . S
C1297 N1300 1.384 . S
C1298 H1289 0.929 . S
C1298 C1290 1.378 . S
C1298 C1293 1.350 . S
C1299 H1286 0.929 . S
C1299 C1291 1.433 . S
C1299 N1301 1.384 . S
N1300 C1296 1.427 . S
N1300 C1297 1.384 . S
N1301 C1293 1.427 . S
N1301 C1299 1.384 . S
H1302 C1308 0.930 . S
H1303 C1312 0.901 1_554 S
H1304 C1317 0.929 . S
H1305 C1315 0.929 . S
H1306 C1310 0.969 . S
H1307 C1316 0.929 . S
C1308 H1302 0.930 . S
C1308 C1309 1.367 . S
C1308 C1316 1.378 . S
C1309 C1308 1.367 . S
C1309 C1317 1.433 1_556 S
C1310 H1306 0.969 . S
C1310 C1312 1.374 1_554 S
C1310 C1314 1.313 1_554 S
C1311 C1314 1.463 . S
C1311 C1316 1.350 . S
C1311 N1319 1.427 1_556 S
C1312 H1303 0.901 1_556 S
C1312 C1310 1.374 1_556 S
C1312 C1313 1.399 . S
C1313 C1312 1.399 . S
C1313 C1315 1.433 . S
C1314 C1310 1.313 1_556 S
C1314 C1311 1.463 . S
C1314 N1318 1.427 . S
C1315 H1305 0.929 . S
C1315 C1313 1.433 . S
C1315 N1318 1.384 . S
C1316 H1307 0.929 . S
C1316 C1308 1.378 . S
C1316 C1311 1.350 . S
C1317 H1304 0.929 . S
C1317 C1309 1.433 1_554 S
C1317 N1319 1.384 . S
N1318 C1314 1.427 . S
N1318 C1315 1.384 . S
N1319 C1311 1.427 1_554 S
N1319 C1317 1.384 . S
H1320 C1326 0.930 . S
H1321 C1330 0.930 . S
H1322 C1335 0.929 . S
H1323 C1333 0.929 . S
H1324 C1328 0.929 . S
H1325 C1334 0.929 . S
C1326 H1320 0.930 . S
C1326 C1327 1.367 . S
C1326 C1334 1.378 . S
C1327 C1326 1.367 . S
C1327 C1335 1.433 . S
C1328 H1324 0.929 . S
C1328 C1330 1.378 . S
C1328 C1332 1.350 . S
C1329 C1332 1.463 . S
C1329 C1334 1.350 . S
C1329 N1337 1.427 . S
C1330 H1321 0.930 . S
C1330 C1328 1.378 . S
C1330 C1331 1.367 . S
C1331 C1330 1.367 . S
C1331 C1333 1.433 . S
C1332 C1328 1.350 . S
C1332 C1329 1.463 . S
C1332 N1336 1.427 . S
C1333 H1323 0.929 . S
C1333 C1331 1.433 . S
C1333 N1336 1.384 . S
C1334 H1325 0.929 . S
C1334 C1326 1.378 . S
C1334 C1329 1.350 . S
C1335 H1322 0.929 . S
C1335 C1327 1.433 . S
C1335 N1337 1.384 . S
N1336 C1332 1.427 . S
N1336 C1333 1.384 . S
N1337 C1329 1.427 . S
N1337 C1335 1.384 . S
H1338 C1344 0.930 . S
H1339 C1348 0.930 . S
H1340 C1353 0.929 . S
H1341 C1351 0.929 . S
H1342 C1346 0.929 . S
H1343 C1352 0.929 . S
C1344 H1338 0.930 . S
C1344 C1345 1.367 . S
C1344 C1352 1.378 . S
C1345 C1344 1.367 . S
C1345 C1353 1.433 . S
C1346 H1342 0.929 . S
C1346 C1348 1.378 . S
C1346 C1350 1.350 . S
C1347 C1350 1.463 . S
C1347 C1352 1.350 . S
C1347 N1355 1.427 . S
C1348 H1339 0.930 . S
C1348 C1346 1.378 . S
C1348 C1349 1.367 . S
C1349 C1348 1.367 . S
C1349 C1351 1.433 . S
C1350 C1346 1.350 . S
C1350 C1347 1.463 . S
C1350 N1354 1.427 . S
C1351 H1341 0.929 . S
C1351 C1349 1.433 . S
C1351 N1354 1.384 . S
C1352 H1343 0.929 . S
C1352 C1344 1.378 . S
C1352 C1347 1.350 . S
C1353 H1340 0.929 . S
C1353 C1345 1.433 . S
C1353 N1355 1.384 . S
N1354 C1350 1.427 . S
N1354 C1351 1.384 . S
N1355 C1347 1.427 . S
N1355 C1353 1.384 . S
H1356 C1362 0.930 . S
H1357 C1366 0.930 . S
H1358 C1371 0.929 . S
H1359 C1369 0.929 . S
H1360 C1364 0.929 . S
H1361 C1370 0.929 . S
C1362 H1356 0.930 . S
C1362 C1363 1.367 . S
C1362 C1370 1.378 . S
C1363 C1362 1.367 . S
C1363 C1371 1.433 . S
C1364 H1360 0.929 . S
C1364 C1366 1.378 . S
C1364 C1368 1.350 . S
C1365 C1368 1.463 . S
C1365 C1370 1.350 . S
C1365 N1373 1.427 . S
C1366 H1357 0.930 . S
C1366 C1364 1.378 . S
C1366 C1367 1.367 . S
C1367 C1366 1.367 . S
C1367 C1369 1.433 . S
C1368 C1364 1.350 . S
C1368 C1365 1.463 . S
C1368 N1372 1.427 . S
C1369 H1359 0.929 . S
C1369 C1367 1.433 . S
C1369 N1372 1.384 . S
C1370 H1361 0.929 . S
C1370 C1362 1.378 . S
C1370 C1365 1.350 . S
C1371 H1358 0.929 . S
C1371 C1363 1.433 . S
C1371 N1373 1.384 . S
N1372 C1368 1.427 . S
N1372 C1369 1.384 . S
N1373 C1365 1.427 . S
N1373 C1371 1.384 . S
H1374 C1380 0.930 . S
H1375 C1384 0.930 . S
H1376 C1389 0.929 . S
H1377 C1387 0.929 . S
H1378 C1382 0.929 . S
H1379 C1388 0.929 . S
C1380 H1374 0.930 . S
C1380 C1381 1.367 . S
C1380 C1388 1.378 . S
C1381 C1380 1.367 . S
C1381 C1389 1.433 . S
C1382 H1378 0.929 . S
C1382 C1384 1.378 . S
C1382 C1386 1.350 . S
C1383 C1386 1.463 . S
C1383 C1388 1.350 . S
C1383 N1391 1.427 . S
C1384 H1375 0.930 . S
C1384 C1382 1.378 . S
C1384 C1385 1.367 . S
C1385 C1384 1.367 . S
C1385 C1387 1.433 . S
C1386 C1382 1.350 . S
C1386 C1383 1.463 . S
C1386 N1390 1.427 . S
C1387 H1377 0.929 . S
C1387 C1385 1.433 . S
C1387 N1390 1.384 . S
C1388 H1379 0.929 . S
C1388 C1380 1.378 . S
C1388 C1383 1.350 . S
C1389 H1376 0.929 . S
C1389 C1381 1.433 . S
C1389 N1391 1.384 . S
N1390 C1386 1.427 . S
N1390 C1387 1.384 . S
N1391 C1383 1.427 . S
N1391 C1389 1.384 . S
H1392 C1398 0.930 . S
H1393 C1402 0.930 . S
H1394 C1407 0.929 . S
H1395 C1405 0.929 . S
H1396 C1400 0.929 . S
H1397 C1406 0.929 . S
C1398 H1392 0.930 . S
C1398 C1399 1.367 . S
C1398 C1406 1.378 . S
C1399 C1398 1.367 . S
C1399 C1407 1.433 . S
C1400 H1396 0.929 . S
C1400 C1402 1.378 . S
C1400 C1404 1.350 . S
C1401 C1404 1.463 . S
C1401 C1406 1.350 . S
C1401 N1409 1.427 . S
C1402 H1393 0.930 . S
C1402 C1400 1.378 . S
C1402 C1403 1.367 . S
C1403 C1402 1.367 . S
C1403 C1405 1.433 . S
C1404 C1400 1.350 . S
C1404 C1401 1.463 . S
C1404 N1408 1.427 . S
C1405 H1395 0.929 . S
C1405 C1403 1.433 . S
C1405 N1408 1.384 . S
C1406 H1397 0.929 . S
C1406 C1398 1.378 . S
C1406 C1401 1.350 . S
C1407 H1394 0.929 . S
C1407 C1399 1.433 . S
C1407 N1409 1.384 . S
N1408 C1404 1.427 . S
N1408 C1405 1.384 . S
N1409 C1401 1.427 . S
N1409 C1407 1.384 . S
H1410 C1416 0.930 . S
H1411 C1420 0.930 . S
H1412 C1425 0.929 . S
H1413 C1423 0.929 . S
H1414 C1418 0.929 . S
H1415 C1424 0.929 . S
C1416 H1410 0.930 . S
C1416 C1417 1.367 . S
C1416 C1424 1.378 . S
C1417 C1416 1.367 . S
C1417 C1425 1.433 . S
C1418 H1414 0.929 . S
C1418 C1420 1.378 . S
C1418 C1422 1.350 . S
C1419 C1422 1.463 . S
C1419 C1424 1.350 . S
C1419 N1427 1.427 . S
C1420 H1411 0.930 . S
C1420 C1418 1.378 . S
C1420 C1421 1.367 . S
C1421 C1420 1.367 . S
C1421 C1423 1.433 . S
C1422 C1418 1.350 . S
C1422 C1419 1.463 . S
C1422 N1426 1.427 . S
C1423 H1413 0.929 . S
C1423 C1421 1.433 . S
C1423 N1426 1.384 . S
C1424 H1415 0.929 . S
C1424 C1416 1.378 . S
C1424 C1419 1.350 . S
C1425 H1412 0.929 . S
C1425 C1417 1.433 . S
C1425 N1427 1.384 . S
N1426 C1422 1.427 . S
N1426 C1423 1.384 . S
N1427 C1419 1.427 . S
N1427 C1425 1.384 . S
H1428 C1434 0.930 . S
H1429 C1438 0.930 . S
H1430 C1443 0.929 . S
H1431 C1441 0.929 . S
H1432 C1436 0.929 . S
H1433 C1442 0.929 . S
C1434 H1428 0.930 . S
C1434 C1435 1.367 . S
C1434 C1442 1.378 . S
C1435 C1434 1.367 . S
C1435 C1443 1.433 . S
C1436 H1432 0.929 . S
C1436 C1438 1.378 . S
C1436 C1440 1.350 . S
C1437 C1440 1.463 . S
C1437 C1442 1.350 . S
C1437 N1445 1.427 . S
C1438 H1429 0.930 . S
C1438 C1436 1.378 . S
C1438 C1439 1.367 . S
C1439 C1438 1.367 . S
C1439 C1441 1.433 . S
C1440 C1436 1.350 . S
C1440 C1437 1.463 . S
C1440 N1444 1.427 . S
C1441 H1431 0.929 . S
C1441 C1439 1.433 . S
C1441 N1444 1.384 . S
C1442 H1433 0.929 . S
C1442 C1434 1.378 . S
C1442 C1437 1.350 . S
C1443 H1430 0.929 . S
C1443 C1435 1.433 . S
C1443 N1445 1.384 . S
N1444 C1440 1.427 . S
N1444 C1441 1.384 . S
N1445 C1437 1.427 . S
N1445 C1443 1.384 . S
H1446 C1452 0.930 . S
H1447 C1456 0.930 . S
H1448 C1461 0.929 . S
H1449 C1459 0.929 . S
H1450 C1454 0.929 . S
H1451 C1460 0.929 . S
C1452 H1446 0.930 . S
C1452 C1453 1.367 . S
C1452 C1460 1.378 . S
C1453 C1452 1.367 . S
C1453 C1461 1.433 . S
C1454 H1450 0.929 . S
C1454 C1456 1.378 . S
C1454 C1458 1.350 . S
C1455 C1458 1.463 . S
C1455 C1460 1.350 . S
C1455 N1463 1.427 . S
C1456 H1447 0.930 . S
C1456 C1454 1.378 . S
C1456 C1457 1.367 . S
C1457 C1456 1.367 . S
C1457 C1459 1.433 . S
C1458 C1454 1.350 . S
C1458 C1455 1.463 . S
C1458 N1462 1.427 . S
C1459 H1449 0.929 . S
C1459 C1457 1.433 . S
C1459 N1462 1.384 . S
C1460 H1451 0.929 . S
C1460 C1452 1.378 . S
C1460 C1455 1.350 . S
C1461 H1448 0.929 . S
C1461 C1453 1.433 . S
C1461 N1463 1.384 . S
N1462 C1458 1.427 . S
N1462 C1459 1.384 . S
N1463 C1455 1.427 . S
N1463 C1461 1.384 . S
H1464 C1470 0.930 . S
H1465 C1474 0.930 . S
H1466 C1479 0.929 . S
H1467 C1477 0.929 . S
H1468 C1472 0.929 . S
H1469 C1478 0.929 . S
C1470 H1464 0.930 . S
C1470 C1471 1.367 . S
C1470 C1478 1.378 . S
C1471 C1470 1.367 . S
C1471 C1479 1.433 . S
C1472 H1468 0.929 . S
C1472 C1474 1.378 . S
C1472 C1476 1.350 . S
C1473 C1476 1.463 . S
C1473 C1478 1.350 . S
C1473 N1481 1.427 . S
C1474 H1465 0.930 . S
C1474 C1472 1.378 . S
C1474 C1475 1.367 . S
C1475 C1474 1.367 . S
C1475 C1477 1.433 . S
C1476 C1472 1.350 . S
C1476 C1473 1.463 . S
C1476 N1480 1.427 . S
C1477 H1467 0.929 . S
C1477 C1475 1.433 . S
C1477 N1480 1.384 . S
C1478 H1469 0.929 . S
C1478 C1470 1.378 . S
C1478 C1473 1.350 . S
C1479 H1466 0.929 . S
C1479 C1471 1.433 . S
C1479 N1481 1.384 . S
N1480 C1476 1.427 . S
N1480 C1477 1.384 . S
N1481 C1473 1.427 . S
N1481 C1479 1.384 . S
H1482 C1488 0.930 . S
H1483 C1492 0.930 . S
H1484 C1497 0.929 . S
H1485 C1495 0.929 . S
H1486 C1490 0.929 . S
H1487 C1496 0.929 . S
C1488 H1482 0.930 . S
C1488 C1489 1.367 . S
C1488 C1496 1.378 . S
C1489 C1488 1.367 . S
C1489 C1497 1.433 . S
C1490 H1486 0.929 . S
C1490 C1492 1.378 . S
C1490 C1494 1.350 . S
C1491 C1494 1.463 . S
C1491 C1496 1.350 . S
C1491 N1499 1.427 . S
C1492 H1483 0.930 . S
C1492 C1490 1.378 . S
C1492 C1493 1.367 . S
C1493 C1492 1.367 . S
C1493 C1495 1.433 . S
C1494 C1490 1.350 . S
C1494 C1491 1.463 . S
C1494 N1498 1.427 . S
C1495 H1485 0.929 . S
C1495 C1493 1.433 . S
C1495 N1498 1.384 . S
C1496 H1487 0.929 . S
C1496 C1488 1.378 . S
C1496 C1491 1.350 . S
C1497 H1484 0.929 . S
C1497 C1489 1.433 . S
C1497 N1499 1.384 . S
N1498 C1494 1.427 . S
N1498 C1495 1.384 . S
N1499 C1491 1.427 . S
N1499 C1497 1.384 . S
H1500 C1506 0.930 . S
H1501 C1510 0.930 . S
H1502 C1515 0.929 . S
H1503 C1513 0.929 . S
H1504 C1508 0.929 . S
H1505 C1514 0.929 . S
C1506 H1500 0.930 . S
C1506 C1507 1.367 . S
C1506 C1514 1.378 . S
C1507 C1506 1.367 . S
C1507 C1515 1.433 . S
C1508 H1504 0.929 . S
C1508 C1510 1.378 . S
C1508 C1512 1.350 . S
C1509 C1512 1.463 . S
C1509 C1514 1.350 . S
C1509 N1517 1.427 . S
C1510 H1501 0.930 . S
C1510 C1508 1.378 . S
C1510 C1511 1.367 . S
C1511 C1510 1.367 . S
C1511 C1513 1.433 . S
C1512 C1508 1.350 . S
C1512 C1509 1.463 . S
C1512 N1516 1.427 . S
C1513 H1503 0.929 . S
C1513 C1511 1.433 . S
C1513 N1516 1.384 . S
C1514 H1505 0.929 . S
C1514 C1506 1.378 . S
C1514 C1509 1.350 . S
C1515 H1502 0.929 . S
C1515 C1507 1.433 . S
C1515 N1517 1.384 . S
N1516 C1512 1.427 . S
N1516 C1513 1.384 . S
N1517 C1509 1.427 . S
N1517 C1515 1.384 . S
H1518 C1524 0.930 . S
H1519 C1528 0.930 . S
H1520 C1533 0.929 . S
H1521 C1531 0.929 . S
H1522 C1526 0.929 . S
H1523 C1532 0.929 . S
C1524 H1518 0.930 . S
C1524 C1525 1.367 . S
C1524 C1532 1.378 . S
C1525 C1524 1.367 . S
C1525 C1533 1.433 . S
C1526 H1522 0.929 . S
C1526 C1528 1.378 . S
C1526 C1530 1.350 . S
C1527 C1530 1.463 . S
C1527 C1532 1.350 . S
C1527 N1535 1.427 . S
C1528 H1519 0.930 . S
C1528 C1526 1.378 . S
C1528 C1529 1.367 . S
C1529 C1528 1.367 . S
C1529 C1531 1.433 . S
C1530 C1526 1.350 . S
C1530 C1527 1.463 . S
C1530 N1534 1.427 . S
C1531 H1521 0.929 . S
C1531 C1529 1.433 . S
C1531 N1534 1.384 . S
C1532 H1523 0.929 . S
C1532 C1524 1.378 . S
C1532 C1527 1.350 . S
C1533 H1520 0.929 . S
C1533 C1525 1.433 . S
C1533 N1535 1.384 . S
N1534 C1530 1.427 . S
N1534 C1531 1.384 . S
N1535 C1527 1.427 . S
N1535 C1533 1.384 . S
H1536 C1542 0.930 . S
H1537 C1546 0.930 . S
H1538 C1551 0.929 . S
H1539 C1549 0.929 . S
H1540 C1544 0.929 . S
H1541 C1550 0.929 . S
C1542 H1536 0.930 . S
C1542 C1543 1.367 . S
C1542 C1550 1.378 . S
C1543 C1542 1.367 . S
C1543 C1551 1.433 . S
C1544 H1540 0.929 . S
C1544 C1546 1.378 . S
C1544 C1548 1.350 . S
C1545 C1548 1.463 . S
C1545 C1550 1.350 . S
C1545 N1553 1.427 . S
C1546 H1537 0.930 . S
C1546 C1544 1.378 . S
C1546 C1547 1.367 . S
C1547 C1546 1.367 . S
C1547 C1549 1.433 . S
C1548 C1544 1.350 . S
C1548 C1545 1.463 . S
C1548 N1552 1.427 . S
C1549 H1539 0.929 . S
C1549 C1547 1.433 . S
C1549 N1552 1.384 . S
C1550 H1541 0.929 . S
C1550 C1542 1.378 . S
C1550 C1545 1.350 . S
C1551 H1538 0.929 . S
C1551 C1543 1.433 . S
C1551 N1553 1.384 . S
N1552 C1548 1.427 . S
N1552 C1549 1.384 . S
N1553 C1545 1.427 . S
N1553 C1551 1.384 . S
H1554 C1560 0.930 . S
H1555 C1564 0.942 . S
H1556 C1569 0.929 . S
H1557 C1567 0.929 . S
H1558 C1562 0.929 . S
H1559 C1568 0.929 . S
C1560 H1554 0.930 . S
C1560 C1561 1.367 . S
C1560 C1568 1.378 . S
C1561 C1560 1.367 . S
C1561 C1569 1.433 . S
C1562 H1558 0.929 . S
C1562 C1564 1.365 1_455 S
C1562 C1566 1.350 . S
C1563 C1566 1.463 . S
C1563 C1568 1.350 . S
C1563 N1571 1.427 . S
C1564 H1555 0.942 . S
C1564 C1562 1.365 1_655 S
C1564 C1565 1.368 . S
C1565 C1564 1.368 . S
C1565 C1567 1.433 1_655 S
C1566 C1562 1.350 . S
C1566 C1563 1.463 . S
C1566 N1570 1.427 . S
C1567 H1557 0.929 . S
C1567 C1565 1.433 1_455 S
C1567 N1570 1.384 . S
C1568 H1559 0.929 . S
C1568 C1560 1.378 . S
C1568 C1563 1.350 . S
C1569 H1556 0.929 . S
C1569 C1561 1.433 . S
C1569 N1571 1.384 . S
N1570 C1566 1.427 . S
N1570 C1567 1.384 . S
N1571 C1563 1.427 . S
N1571 C1569 1.384 . S
H1572 C1578 0.930 . S
H1573 C1582 0.930 . S
H1574 C1587 0.929 . S
H1575 C1585 0.929 . S
H1576 C1580 0.929 . S
H1577 C1586 0.929 . S
C1578 H1572 0.930 . S
C1578 C1579 1.367 . S
C1578 C1586 1.378 . S
C1579 C1578 1.367 . S
C1579 C1587 1.433 . S
C1580 H1576 0.929 . S
C1580 C1582 1.378 . S
C1580 C1584 1.350 . S
C1581 C1584 1.463 . S
C1581 C1586 1.350 . S
C1581 N1589 1.427 . S
C1582 H1573 0.930 . S
C1582 C1580 1.378 . S
C1582 C1583 1.367 . S
C1583 C1582 1.367 . S
C1583 C1585 1.433 . S
C1584 C1580 1.350 . S
C1584 C1581 1.463 . S
C1584 N1588 1.427 . S
C1585 H1575 0.929 . S
C1585 C1583 1.433 . S
C1585 N1588 1.384 . S
C1586 H1577 0.929 . S
C1586 C1578 1.378 . S
C1586 C1581 1.350 . S
C1587 H1574 0.929 . S
C1587 C1579 1.433 . S
C1587 N1589 1.384 . S
N1588 C1584 1.427 . S
N1588 C1585 1.384 . S
N1589 C1581 1.427 . S
N1589 C1587 1.384 . S
H1590 C1596 0.930 . S
H1591 C1600 0.930 . S
H1592 C1605 0.929 . S
H1593 C1603 0.929 . S
H1594 C1598 0.929 . S
H1595 C1604 0.929 . S
C1596 H1590 0.930 . S
C1596 C1597 1.367 . S
C1596 C1604 1.378 . S
C1597 C1596 1.367 . S
C1597 C1605 1.433 . S
C1598 H1594 0.929 . S
C1598 C1600 1.378 . S
C1598 C1602 1.350 . S
C1599 C1602 1.463 . S
C1599 C1604 1.350 . S
C1599 N1607 1.427 . S
C1600 H1591 0.930 . S
C1600 C1598 1.378 . S
C1600 C1601 1.367 . S
C1601 C1600 1.367 . S
C1601 C1603 1.433 . S
C1602 C1598 1.350 . S
C1602 C1599 1.463 . S
C1602 N1606 1.427 . S
C1603 H1593 0.929 . S
C1603 C1601 1.433 . S
C1603 N1606 1.384 . S
C1604 H1595 0.929 . S
C1604 C1596 1.378 . S
C1604 C1599 1.350 . S
C1605 H1592 0.929 . S
C1605 C1597 1.433 . S
C1605 N1607 1.384 . S
N1606 C1602 1.427 . S
N1606 C1603 1.384 . S
N1607 C1599 1.427 . S
N1607 C1605 1.384 . S
H1608 C1614 0.930 . S
H1609 C1618 0.930 . S
H1610 C1623 0.929 . S
H1611 C1621 0.929 . S
H1612 C1616 0.929 . S
H1613 C1622 0.929 . S
C1614 H1608 0.930 . S
C1614 C1615 1.367 . S
C1614 C1622 1.378 . S
C1615 C1614 1.367 . S
C1615 C1623 1.433 . S
C1616 H1612 0.929 . S
C1616 C1618 1.378 . S
C1616 C1620 1.350 . S
C1617 C1620 1.463 . S
C1617 C1622 1.350 . S
C1617 N1625 1.427 . S
C1618 H1609 0.930 . S
C1618 C1616 1.378 . S
C1618 C1619 1.367 . S
C1619 C1618 1.367 . S
C1619 C1621 1.433 . S
C1620 C1616 1.350 . S
C1620 C1617 1.463 . S
C1620 N1624 1.427 . S
C1621 H1611 0.929 . S
C1621 C1619 1.433 . S
C1621 N1624 1.384 . S
C1622 H1613 0.929 . S
C1622 C1614 1.378 . S
C1622 C1617 1.350 . S
C1623 H1610 0.929 . S
C1623 C1615 1.433 . S
C1623 N1625 1.384 . S
N1624 C1620 1.427 . S
N1624 C1621 1.384 . S
N1625 C1617 1.427 . S
N1625 C1623 1.384 . S
H1626 C1632 0.930 . S
H1627 C1636 0.930 . S
H1628 C1641 0.929 . S
H1629 C1639 0.929 . S
H1630 C1634 0.929 . S
H1631 C1640 0.929 . S
C1632 H1626 0.930 . S
C1632 C1633 1.367 . S
C1632 C1640 1.378 . S
C1633 C1632 1.367 . S
C1633 C1641 1.433 . S
C1634 H1630 0.929 . S
C1634 C1636 1.378 . S
C1634 C1638 1.350 . S
C1635 C1638 1.463 . S
C1635 C1640 1.350 . S
C1635 N1643 1.427 . S
C1636 H1627 0.930 . S
C1636 C1634 1.378 . S
C1636 C1637 1.367 . S
C1637 C1636 1.367 . S
C1637 C1639 1.433 . S
C1638 C1634 1.350 . S
C1638 C1635 1.463 . S
C1638 N1642 1.427 . S
C1639 H1629 0.929 . S
C1639 C1637 1.433 . S
C1639 N1642 1.384 . S
C1640 H1631 0.929 . S
C1640 C1632 1.378 . S
C1640 C1635 1.350 . S
C1641 H1628 0.929 . S
C1641 C1633 1.433 . S
C1641 N1643 1.384 . S
N1642 C1638 1.427 . S
N1642 C1639 1.384 . S
N1643 C1635 1.427 . S
N1643 C1641 1.384 . S
H1644 C1650 0.930 . S
H1645 C1654 0.930 . S
H1646 C1659 0.929 . S
H1647 C1657 0.929 . S
H1648 C1652 0.929 . S
H1649 C1658 0.929 . S
C1650 H1644 0.930 . S
C1650 C1651 1.367 . S
C1650 C1658 1.378 . S
C1651 C1650 1.367 . S
C1651 C1659 1.433 . S
C1652 H1648 0.929 . S
C1652 C1654 1.378 . S
C1652 C1656 1.350 . S
C1653 C1656 1.463 . S
C1653 C1658 1.350 . S
C1653 N1661 1.427 . S
C1654 H1645 0.930 . S
C1654 C1652 1.378 . S
C1654 C1655 1.367 . S
C1655 C1654 1.367 . S
C1655 C1657 1.433 . S
C1656 C1652 1.350 . S
C1656 C1653 1.463 . S
C1656 N1660 1.427 . S
C1657 H1647 0.929 . S
C1657 C1655 1.433 . S
C1657 N1660 1.384 . S
C1658 H1649 0.929 . S
C1658 C1650 1.378 . S
C1658 C1653 1.350 . S
C1659 H1646 0.929 . S
C1659 C1651 1.433 . S
C1659 N1661 1.384 . S
N1660 C1656 1.427 . S
N1660 C1657 1.384 . S
N1661 C1653 1.427 . S
N1661 C1659 1.384 . S
H1662 C1668 0.930 . S
H1663 C1672 0.930 . S
H1664 C1677 0.929 . S
H1665 C1675 0.929 . S
H1666 C1670 0.929 . S
H1667 C1676 0.929 . S
C1668 H1662 0.930 . S
C1668 C1669 1.367 . S
C1668 C1676 1.378 . S
C1669 C1668 1.367 . S
C1669 C1677 1.433 . S
C1670 H1666 0.929 . S
C1670 C1672 1.378 . S
C1670 C1674 1.350 . S
C1671 C1674 1.463 . S
C1671 C1676 1.350 . S
C1671 N1679 1.427 . S
C1672 H1663 0.930 . S
C1672 C1670 1.378 . S
C1672 C1673 1.367 . S
C1673 C1672 1.367 . S
C1673 C1675 1.433 . S
C1674 C1670 1.350 . S
C1674 C1671 1.463 . S
C1674 N1678 1.427 . S
C1675 H1665 0.929 . S
C1675 C1673 1.433 . S
C1675 N1678 1.384 . S
C1676 H1667 0.929 . S
C1676 C1668 1.378 . S
C1676 C1671 1.350 . S
C1677 H1664 0.929 . S
C1677 C1669 1.433 . S
C1677 N1679 1.384 . S
N1678 C1674 1.427 . S
N1678 C1675 1.384 . S
N1679 C1671 1.427 . S
N1679 C1677 1.384 . S
H1680 C1686 0.930 . S
H1681 C1690 0.930 . S
H1682 C1695 0.929 . S
H1683 C1693 0.929 . S
H1684 C1688 0.929 . S
H1685 C1694 0.929 . S
C1686 H1680 0.930 . S
C1686 C1687 1.367 . S
C1686 C1694 1.378 . S
C1687 C1686 1.367 . S
C1687 C1695 1.433 . S
C1688 H1684 0.929 . S
C1688 C1690 1.378 . S
C1688 C1692 1.350 . S
C1689 C1692 1.463 . S
C1689 C1694 1.350 . S
C1689 N1697 1.427 . S
C1690 H1681 0.930 . S
C1690 C1688 1.378 . S
C1690 C1691 1.367 . S
C1691 C1690 1.367 . S
C1691 C1693 1.433 . S
C1692 C1688 1.350 . S
C1692 C1689 1.463 . S
C1692 N1696 1.427 . S
C1693 H1683 0.929 . S
C1693 C1691 1.433 . S
C1693 N1696 1.384 . S
C1694 H1685 0.929 . S
C1694 C1686 1.378 . S
C1694 C1689 1.350 . S
C1695 H1682 0.929 . S
C1695 C1687 1.433 . S
C1695 N1697 1.384 . S
N1696 C1692 1.427 . S
N1696 C1693 1.384 . S
N1697 C1689 1.427 . S
N1697 C1695 1.384 . S
H1698 C1704 0.930 . S
H1699 C1708 0.930 . S
H1700 C1713 0.929 . S
H1701 C1711 0.929 . S
H1702 C1706 0.929 . S
H1703 C1712 0.929 . S
C1704 H1698 0.930 . S
C1704 C1705 1.367 . S
C1704 C1712 1.378 . S
C1705 C1704 1.367 . S
C1705 C1713 1.433 . S
C1706 H1702 0.929 . S
C1706 C1708 1.378 . S
C1706 C1710 1.350 . S
C1707 C1710 1.463 . S
C1707 C1712 1.350 . S
C1707 N1715 1.427 . S
C1708 H1699 0.930 . S
C1708 C1706 1.378 . S
C1708 C1709 1.367 . S
C1709 C1708 1.367 . S
C1709 C1711 1.433 . S
C1710 C1706 1.350 . S
C1710 C1707 1.463 . S
C1710 N1714 1.427 . S
C1711 H1701 0.929 . S
C1711 C1709 1.433 . S
C1711 N1714 1.384 . S
C1712 H1703 0.929 . S
C1712 C1704 1.378 . S
C1712 C1707 1.350 . S
C1713 H1700 0.929 . S
C1713 C1705 1.433 . S
C1713 N1715 1.384 . S
N1714 C1710 1.427 . S
N1714 C1711 1.384 . S
N1715 C1707 1.427 . S
N1715 C1713 1.384 . S
H1716 C1722 0.930 . S
H1717 C1726 0.931 . S
H1718 C1731 0.929 . S
H1719 C1729 0.937 . S
H1720 C1724 0.929 . S
H1721 C1730 0.929 . S
C1722 H1716 0.930 . S
C1722 C1723 1.367 . S
C1722 C1730 1.378 . S
C1723 C1722 1.367 . S
C1723 C1731 1.433 . S
C1724 H1720 0.929 . S
C1724 C1726 1.378 . S
C1724 C1728 1.350 . S
C1725 C1728 1.463 . S
C1725 C1730 1.350 . S
C1725 N1733 1.427 . S
C1726 H1717 0.931 . S
C1726 C1724 1.378 . S
C1726 C1727 1.367 1_545 S
C1727 C1726 1.367 1_565 S
C1727 C1729 1.433 1_565 S
C1728 C1724 1.350 . S
C1728 C1725 1.463 . S
C1728 N1732 1.427 . S
C1729 H1719 0.937 . S
C1729 C1727 1.433 1_545 S
C1729 N1732 1.384 . S
C1730 H1721 0.929 . S
C1730 C1722 1.378 . S
C1730 C1725 1.350 . S
C1731 H1718 0.929 . S
C1731 C1723 1.433 . S
C1731 N1733 1.384 . S
N1732 C1728 1.427 . S
N1732 C1729 1.384 . S
N1733 C1725 1.427 . S
N1733 C1731 1.384 . S
H1734 C1740 0.930 . S
H1735 C1744 0.930 . S
H1736 C1749 0.929 . S
H1737 C1747 0.929 . S
H1738 C1742 0.929 . S
H1739 C1748 0.929 . S
C1740 H1734 0.930 . S
C1740 C1741 1.367 . S
C1740 C1748 1.378 . S
C1741 C1740 1.367 . S
C1741 C1749 1.433 . S
C1742 H1738 0.929 . S
C1742 C1744 1.378 . S
C1742 C1746 1.350 . S
C1743 C1746 1.463 . S
C1743 C1748 1.350 . S
C1743 N1751 1.427 . S
C1744 H1735 0.930 . S
C1744 C1742 1.378 . S
C1744 C1745 1.367 . S
C1745 C1744 1.367 . S
C1745 C1747 1.433 . S
C1746 C1742 1.350 . S
C1746 C1743 1.463 . S
C1746 N1750 1.427 . S
C1747 H1737 0.929 . S
C1747 C1745 1.433 . S
C1747 N1750 1.384 . S
C1748 H1739 0.929 . S
C1748 C1740 1.378 . S
C1748 C1743 1.350 . S
C1749 H1736 0.929 . S
C1749 C1741 1.433 . S
C1749 N1751 1.384 . S
N1750 C1746 1.427 . S
N1750 C1747 1.384 . S
N1751 C1743 1.427 . S
N1751 C1749 1.384 . S
H1752 C1758 0.930 . S
H1753 C1762 0.930 . S
H1754 C1767 0.929 . S
H1755 C1765 0.929 . S
H1756 C1760 0.929 . S
H1757 C1766 0.929 . S
C1758 H1752 0.930 . S
C1758 C1759 1.367 . S
C1758 C1766 1.378 . S
C1759 C1758 1.367 . S
C1759 C1767 1.433 . S
C1760 H1756 0.929 . S
C1760 C1762 1.378 . S
C1760 C1764 1.350 . S
C1761 C1764 1.463 . S
C1761 C1766 1.350 . S
C1761 N1769 1.427 . S
C1762 H1753 0.930 . S
C1762 C1760 1.378 . S
C1762 C1763 1.367 . S
C1763 C1762 1.367 . S
C1763 C1765 1.433 . S
C1764 C1760 1.350 . S
C1764 C1761 1.463 . S
C1764 N1768 1.427 . S
C1765 H1755 0.929 . S
C1765 C1763 1.433 . S
C1765 N1768 1.384 . S
C1766 H1757 0.929 . S
C1766 C1758 1.378 . S
C1766 C1761 1.350 . S
C1767 H1754 0.929 . S
C1767 C1759 1.433 . S
C1767 N1769 1.384 . S
N1768 C1764 1.427 . S
N1768 C1765 1.384 . S
N1769 C1761 1.427 . S
N1769 C1767 1.384 . S
H1770 C1776 0.930 . S
H1771 C1780 0.930 . S
H1772 C1785 0.929 . S
H1773 C1783 0.929 . S
H1774 C1778 0.929 . S
H1775 C1784 0.929 . S
C1776 H1770 0.930 . S
C1776 C1777 1.367 . S
C1776 C1784 1.378 . S
C1777 C1776 1.367 . S
C1777 C1785 1.433 . S
C1778 H1774 0.929 . S
C1778 C1780 1.378 . S
C1778 C1782 1.350 . S
C1779 C1782 1.463 . S
C1779 C1784 1.350 . S
C1779 N1787 1.427 . S
C1780 H1771 0.930 . S
C1780 C1778 1.378 . S
C1780 C1781 1.367 . S
C1781 C1780 1.367 . S
C1781 C1783 1.433 . S
C1782 C1778 1.350 . S
C1782 C1779 1.463 . S
C1782 N1786 1.427 . S
C1783 H1773 0.929 . S
C1783 C1781 1.433 . S
C1783 N1786 1.384 . S
C1784 H1775 0.929 . S
C1784 C1776 1.378 . S
C1784 C1779 1.350 . S
C1785 H1772 0.929 . S
C1785 C1777 1.433 . S
C1785 N1787 1.384 . S
N1786 C1782 1.427 . S
N1786 C1783 1.384 . S
N1787 C1779 1.427 . S
N1787 C1785 1.384 . S
H1788 C1794 0.930 . S
H1789 C1798 0.930 . S
H1790 C1803 0.929 . S
H1791 C1801 0.929 . S
H1792 C1796 0.929 . S
H1793 C1802 0.929 . S
C1794 H1788 0.930 . S
C1794 C1795 1.367 . S
C1794 C1802 1.378 . S
C1795 C1794 1.367 . S
C1795 C1803 1.433 . S
C1796 H1792 0.929 . S
C1796 C1798 1.378 . S
C1796 C1800 1.350 . S
C1797 C1800 1.463 . S
C1797 C1802 1.350 . S
C1797 N1805 1.427 . S
C1798 H1789 0.930 . S
C1798 C1796 1.378 . S
C1798 C1799 1.367 . S
C1799 C1798 1.367 . S
C1799 C1801 1.433 . S
C1800 C1796 1.350 . S
C1800 C1797 1.463 . S
C1800 N1804 1.427 . S
C1801 H1791 0.929 . S
C1801 C1799 1.433 . S
C1801 N1804 1.384 . S
C1802 H1793 0.929 . S
C1802 C1794 1.378 . S
C1802 C1797 1.350 . S
C1803 H1790 0.929 . S
C1803 C1795 1.433 . S
C1803 N1805 1.384 . S
N1804 C1800 1.427 . S
N1804 C1801 1.384 . S
N1805 C1797 1.427 . S
N1805 C1803 1.384 . S
H1806 C1812 0.930 . S
H1807 C1816 0.930 . S
H1808 C1821 0.929 . S
H1809 C1819 0.929 . S
H1810 C1814 0.929 . S
H1811 C1820 0.929 . S
C1812 H1806 0.930 . S
C1812 C1813 1.367 . S
C1812 C1820 1.378 . S
C1813 C1812 1.367 . S
C1813 C1821 1.433 . S
C1814 H1810 0.929 . S
C1814 C1816 1.378 . S
C1814 C1818 1.350 . S
C1815 C1818 1.463 . S
C1815 C1820 1.350 . S
C1815 N1823 1.427 . S
C1816 H1807 0.930 . S
C1816 C1814 1.378 . S
C1816 C1817 1.367 . S
C1817 C1816 1.367 . S
C1817 C1819 1.433 . S
C1818 C1814 1.350 . S
C1818 C1815 1.463 . S
C1818 N1822 1.427 . S
C1819 H1809 0.929 . S
C1819 C1817 1.433 . S
C1819 N1822 1.384 . S
C1820 H1811 0.929 . S
C1820 C1812 1.378 . S
C1820 C1815 1.350 . S
C1821 H1808 0.929 . S
C1821 C1813 1.433 . S
C1821 N1823 1.384 . S
N1822 C1818 1.427 . S
N1822 C1819 1.384 . S
N1823 C1815 1.427 . S
N1823 C1821 1.384 . S
H1824 C1830 0.930 . S
H1825 C1834 0.930 . S
H1826 C1839 0.929 . S
H1827 C1837 0.929 . S
H1828 C1832 0.929 . S
H1829 C1838 0.929 . S
C1830 H1824 0.930 . S
C1830 C1831 1.367 1_554 S
C1830 C1838 1.378 . S
C1831 C1830 1.367 1_556 S
C1831 C1839 1.433 . S
C1832 H1828 0.929 . S
C1832 C1834 1.378 . S
C1832 C1836 1.350 . S
C1833 C1836 1.463 . S
C1833 C1838 1.350 . S
C1833 N1841 1.427 . S
C1834 H1825 0.930 . S
C1834 C1832 1.378 . S
C1834 C1835 1.367 . S
C1835 C1834 1.367 . S
C1835 C1837 1.433 . S
C1836 C1832 1.350 . S
C1836 C1833 1.463 . S
C1836 N1840 1.427 . S
C1837 H1827 0.929 . S
C1837 C1835 1.433 . S
C1837 N1840 1.384 . S
C1838 H1829 0.929 . S
C1838 C1830 1.378 . S
C1838 C1833 1.350 . S
C1839 H1826 0.929 . S
C1839 C1831 1.433 . S
C1839 N1841 1.384 1_556 S
N1840 C1836 1.427 . S
N1840 C1837 1.384 . S
N1841 C1833 1.427 . S
N1841 C1839 1.384 1_554 S
H1842 C1848 0.930 . S
H1843 C1852 0.930 . S
H1844 C1857 0.929 . S
H1845 C1855 0.929 . S
H1846 C1850 0.929 . S
H1847 C1856 0.929 . S
C1848 H1842 0.930 . S
C1848 C1849 1.367 . S
C1848 C1856 1.378 . S
C1849 C1848 1.367 . S
C1849 C1857 1.433 . S
C1850 H1846 0.929 . S
C1850 C1852 1.378 . S
C1850 C1854 1.350 . S
C1851 C1854 1.463 . S
C1851 C1856 1.350 . S
C1851 N1859 1.427 . S
C1852 H1843 0.930 . S
C1852 C1850 1.378 . S
C1852 C1853 1.367 . S
C1853 C1852 1.367 . S
C1853 C1855 1.433 . S
C1854 C1850 1.350 . S
C1854 C1851 1.463 . S
C1854 N1858 1.427 . S
C1855 H1845 0.929 . S
C1855 C1853 1.433 . S
C1855 N1858 1.384 . S
C1856 H1847 0.929 . S
C1856 C1848 1.378 . S
C1856 C1851 1.350 . S
C1857 H1844 0.929 . S
C1857 C1849 1.433 . S
C1857 N1859 1.384 . S
N1858 C1854 1.427 . S
N1858 C1855 1.384 . S
N1859 C1851 1.427 . S
N1859 C1857 1.384 . S
H1860 C1866 0.930 . S
H1861 C1870 0.930 . S
H1862 C1875 0.929 . S
H1863 C1873 0.929 . S
H1864 C1868 0.929 . S
H1865 C1874 0.929 . S
C1866 H1860 0.930 . S
C1866 C1867 1.367 . S
C1866 C1874 1.378 . S
C1867 C1866 1.367 . S
C1867 C1875 1.433 . S
C1868 H1864 0.929 . S
C1868 C1870 1.378 . S
C1868 C1872 1.350 . S
C1869 C1872 1.463 . S
C1869 C1874 1.350 . S
C1869 N1877 1.427 . S
C1870 H1861 0.930 . S
C1870 C1868 1.378 . S
C1870 C1871 1.367 . S
C1871 C1870 1.367 . S
C1871 C1873 1.433 . S
C1872 C1868 1.350 . S
C1872 C1869 1.463 . S
C1872 N1876 1.427 . S
C1873 H1863 0.929 . S
C1873 C1871 1.433 . S
C1873 N1876 1.384 . S
C1874 H1865 0.929 . S
C1874 C1866 1.378 . S
C1874 C1869 1.350 . S
C1875 H1862 0.929 . S
C1875 C1867 1.433 . S
C1875 N1877 1.384 . S
N1876 C1872 1.427 . S
N1876 C1873 1.384 . S
N1877 C1869 1.427 . S
N1877 C1875 1.384 . S
H1878 C1884 0.930 . S
H1879 C1888 0.930 . S
H1880 C1893 0.929 . S
H1881 C1891 0.929 . S
H1882 C1886 0.929 . S
H1883 C1892 0.929 . S
C1884 H1878 0.930 . S
C1884 C1885 1.367 . S
C1884 C1892 1.378 . S
C1885 C1884 1.367 . S
C1885 C1893 1.433 . S
C1886 H1882 0.929 . S
C1886 C1888 1.378 . S
C1886 C1890 1.350 . S
C1887 C1890 1.463 . S
C1887 C1892 1.350 . S
C1887 N1895 1.427 . S
C1888 H1879 0.930 . S
C1888 C1886 1.378 . S
C1888 C1889 1.367 . S
C1889 C1888 1.367 . S
C1889 C1891 1.433 . S
C1890 C1886 1.350 . S
C1890 C1887 1.463 . S
C1890 N1894 1.427 . S
C1891 H1881 0.929 . S
C1891 C1889 1.433 . S
C1891 N1894 1.384 . S
C1892 H1883 0.929 . S
C1892 C1884 1.378 . S
C1892 C1887 1.350 . S
C1893 H1880 0.929 . S
C1893 C1885 1.433 . S
C1893 N1895 1.384 . S
N1894 C1890 1.427 . S
N1894 C1891 1.384 . S
N1895 C1887 1.427 . S
N1895 C1893 1.384 . S
H1896 C1902 0.930 . S
H1897 C1906 0.930 . S
H1898 C1911 0.929 . S
H1899 C1909 0.929 . S
H1900 C1904 0.929 . S
H1901 C1910 0.929 . S
C1902 H1896 0.930 . S
C1902 C1903 1.367 . S
C1902 C1910 1.378 . S
C1903 C1902 1.367 . S
C1903 C1911 1.433 . S
C1904 H1900 0.929 . S
C1904 C1906 1.378 . S
C1904 C1908 1.350 . S
C1905 C1908 1.463 . S
C1905 C1910 1.350 . S
C1905 N1913 1.427 . S
C1906 H1897 0.930 . S
C1906 C1904 1.378 . S
C1906 C1907 1.367 . S
C1907 C1906 1.367 . S
C1907 C1909 1.433 . S
C1908 C1904 1.350 . S
C1908 C1905 1.463 . S
C1908 N1912 1.427 . S
C1909 H1899 0.929 . S
C1909 C1907 1.433 . S
C1909 N1912 1.384 . S
C1910 H1901 0.929 . S
C1910 C1902 1.378 . S
C1910 C1905 1.350 . S
C1911 H1898 0.929 . S
C1911 C1903 1.433 . S
C1911 N1913 1.384 . S
N1912 C1908 1.427 . S
N1912 C1909 1.384 . S
N1913 C1905 1.427 . S
N1913 C1911 1.384 . S
H1914 C1920 0.930 . S
H1915 C1924 0.930 . S
H1916 C1929 0.929 . S
H1917 C1927 0.929 . S
H1918 C1922 0.929 . S
H1919 C1928 0.929 . S
C1920 H1914 0.930 . S
C1920 C1921 1.367 . S
C1920 C1928 1.378 . S
C1921 C1920 1.367 . S
C1921 C1929 1.433 . S
C1922 H1918 0.929 . S
C1922 C1924 1.378 . S
C1922 C1926 1.350 . S
C1923 C1926 1.463 . S
C1923 C1928 1.350 . S
C1923 N1931 1.427 . S
C1924 H1915 0.930 . S
C1924 C1922 1.378 . S
C1924 C1925 1.367 . S
C1925 C1924 1.367 . S
C1925 C1927 1.433 . S
C1926 C1922 1.350 . S
C1926 C1923 1.463 . S
C1926 N1930 1.427 . S
C1927 H1917 0.929 . S
C1927 C1925 1.433 . S
C1927 N1930 1.384 . S
C1928 H1919 0.929 . S
C1928 C1920 1.378 . S
C1928 C1923 1.350 . S
C1929 H1916 0.929 . S
C1929 C1921 1.433 . S
C1929 N1931 1.384 . S
N1930 C1926 1.427 . S
N1930 C1927 1.384 . S
N1931 C1923 1.427 . S
N1931 C1929 1.384 . S
H1932 C1938 0.930 . S
H1933 C1942 0.930 . S
H1934 C1947 0.929 . S
H1935 C1945 0.929 . S
H1936 C1940 0.929 . S
H1937 C1946 0.929 . S
C1938 H1932 0.930 . S
C1938 C1939 1.367 . S
C1938 C1946 1.378 . S
C1939 C1938 1.367 . S
C1939 C1947 1.433 . S
C1940 H1936 0.929 . S
C1940 C1942 1.378 . S
C1940 C1944 1.350 . S
C1941 C1944 1.463 . S
C1941 C1946 1.350 . S
C1941 N1949 1.427 . S
C1942 H1933 0.930 . S
C1942 C1940 1.378 . S
C1942 C1943 1.367 . S
C1943 C1942 1.367 . S
C1943 C1945 1.433 . S
C1944 C1940 1.350 . S
C1944 C1941 1.463 . S
C1944 N1948 1.427 . S
C1945 H1935 0.929 . S
C1945 C1943 1.433 . S
C1945 N1948 1.384 . S
C1946 H1937 0.929 . S
C1946 C1938 1.378 . S
C1946 C1941 1.350 . S
C1947 H1934 0.929 . S
C1947 C1939 1.433 . S
C1947 N1949 1.384 . S
N1948 C1944 1.427 . S
N1948 C1945 1.384 . S
N1949 C1941 1.427 . S
N1949 C1947 1.384 . S
H1950 C1956 0.930 . S
H1951 C1960 0.930 . S
H1952 C1965 0.929 . S
H1953 C1963 0.929 . S
H1954 C1958 0.929 . S
H1955 C1964 0.929 . S
C1956 H1950 0.930 . S
C1956 C1957 1.367 . S
C1956 C1964 1.378 . S
C1957 C1956 1.367 . S
C1957 C1965 1.433 . S
C1958 H1954 0.929 . S
C1958 C1960 1.378 . S
C1958 C1962 1.350 . S
C1959 C1962 1.463 . S
C1959 C1964 1.350 . S
C1959 N1967 1.427 . S
C1960 H1951 0.930 . S
C1960 C1958 1.378 . S
C1960 C1961 1.367 . S
C1961 C1960 1.367 . S
C1961 C1963 1.433 . S
C1962 C1958 1.350 . S
C1962 C1959 1.463 . S
C1962 N1966 1.427 . S
C1963 H1953 0.929 . S
C1963 C1961 1.433 . S
C1963 N1966 1.384 . S
C1964 H1955 0.929 . S
C1964 C1956 1.378 . S
C1964 C1959 1.350 . S
C1965 H1952 0.929 . S
C1965 C1957 1.433 . S
C1965 N1967 1.384 . S
N1966 C1962 1.427 . S
N1966 C1963 1.384 . S
N1967 C1959 1.427 . S
N1967 C1965 1.384 . S
H1968 C1974 0.930 . S
H1969 C1978 0.930 . S
H1970 C1983 0.929 1_455 S
H1971 C1981 0.929 . S
H1972 C1976 0.929 . S
H1973 C1982 0.929 . S
C1974 H1968 0.930 . S
C1974 C1975 1.367 . S
C1974 C1982 1.378 . S
C1975 C1974 1.367 . S
C1975 C1983 1.433 . S
C1976 H1972 0.929 . S
C1976 C1978 1.378 . S
C1976 C1980 1.350 . S
C1977 C1980 1.463 . S
C1977 C1982 1.350 . S
C1977 N1985 1.427 . S
C1978 H1969 0.930 . S
C1978 C1976 1.378 . S
C1978 C1979 1.367 . S
C1979 C1978 1.367 . S
C1979 C1981 1.433 . S
C1980 C1976 1.350 . S
C1980 C1977 1.463 . S
C1980 N1984 1.427 . S
C1981 H1971 0.929 . S
C1981 C1979 1.433 . S
C1981 N1984 1.384 . S
C1982 H1973 0.929 . S
C1982 C1974 1.378 . S
C1982 C1977 1.350 . S
C1983 H1970 0.929 1_655 S
C1983 C1975 1.433 . S
C1983 N1985 1.384 . S
N1984 C1980 1.427 . S
N1984 C1981 1.384 . S
N1985 C1977 1.427 . S
N1985 C1983 1.384 . S
H1986 C1992 0.930 . S
H1987 C1996 0.930 . S
H1988 C2001 0.929 . S
H1989 C1999 0.929 . S
H1990 C1994 0.929 . S
H1991 C2000 0.929 . S
C1992 H1986 0.930 . S
C1992 C1993 1.367 . S
C1992 C2000 1.378 . S
C1993 C1992 1.367 . S
C1993 C2001 1.433 . S
C1994 H1990 0.929 . S
C1994 C1996 1.378 . S
C1994 C1998 1.350 . S
C1995 C1998 1.463 . S
C1995 C2000 1.350 . S
C1995 N2003 1.427 . S
C1996 H1987 0.930 . S
C1996 C1994 1.378 . S
C1996 C1997 1.367 . S
C1997 C1996 1.367 . S
C1997 C1999 1.433 . S
C1998 C1994 1.350 . S
C1998 C1995 1.463 . S
C1998 N2002 1.427 . S
C1999 H1989 0.929 . S
C1999 C1997 1.433 . S
C1999 N2002 1.384 . S
C2000 H1991 0.929 . S
C2000 C1992 1.378 . S
C2000 C1995 1.350 . S
C2001 H1988 0.929 . S
C2001 C1993 1.433 . S
C2001 N2003 1.384 . S
N2002 C1998 1.427 . S
N2002 C1999 1.384 . S
N2003 C1995 1.427 . S
N2003 C2001 1.384 . S
H2004 C2010 0.930 . S
H2005 C2014 0.930 . S
H2006 C2019 0.929 . S
H2007 C2017 0.929 . S
H2008 C2012 0.929 . S
H2009 C2018 0.929 . S
C2010 H2004 0.930 . S
C2010 C2011 1.367 . S
C2010 C2018 1.378 . S
C2011 C2010 1.367 . S
C2011 C2019 1.433 . S
C2012 H2008 0.929 . S
C2012 C2014 1.378 . S
C2012 C2016 1.350 . S
C2013 C2016 1.463 . S
C2013 C2018 1.350 . S
C2013 N2021 1.427 . S
C2014 H2005 0.930 . S
C2014 C2012 1.378 . S
C2014 C2015 1.367 . S
C2015 C2014 1.367 . S
C2015 C2017 1.433 . S
C2016 C2012 1.350 . S
C2016 C2013 1.463 . S
C2016 N2020 1.427 . S
C2017 H2007 0.929 . S
C2017 C2015 1.433 . S
C2017 N2020 1.384 . S
C2018 H2009 0.929 . S
C2018 C2010 1.378 . S
C2018 C2013 1.350 . S
C2019 H2006 0.929 . S
C2019 C2011 1.433 . S
C2019 N2021 1.384 . S
N2020 C2016 1.427 . S
N2020 C2017 1.384 . S
N2021 C2013 1.427 . S
N2021 C2019 1.384 . S
H2022 C2028 0.930 . S
H2023 C2032 0.930 1_554 S
H2024 C2037 0.865 1_554 S
H2025 C2035 0.929 . S
H2026 C2030 0.929 1_554 S
H2027 C2036 0.929 . S
C2028 H2022 0.930 . S
C2028 C2029 1.367 . S
C2028 C2036 1.378 . S
C2029 C2028 1.367 . S
C2029 C2037 1.501 . S
C2030 H2026 0.929 1_556 S
C2030 C2032 1.378 . S
C2030 C2034 1.350 . S
C2031 C2034 1.463 . S
C2031 C2036 1.350 . S
C2031 N2039 1.427 . S
C2032 H2023 0.930 1_556 S
C2032 C2030 1.378 . S
C2032 C2033 1.367 . S
C2033 C2032 1.367 . S
C2033 C2035 1.433 . S
C2034 C2030 1.350 . S
C2034 C2031 1.463 . S
C2034 N2038 1.427 . S
C2035 H2025 0.929 . S
C2035 C2033 1.433 . S
C2035 N2038 1.384 . S
C2036 H2027 0.929 . S
C2036 C2028 1.378 . S
C2036 C2031 1.350 . S
C2037 H2024 0.865 1_556 S
C2037 C2029 1.501 . S
C2037 N2039 1.386 . S
N2038 C2034 1.427 . S
N2038 C2035 1.384 . S
N2039 C2031 1.427 . S
N2039 C2037 1.386 . S
H2040 C2046 0.930 . S
H2041 C2050 0.930 . S
H2042 C2055 0.929 . S
H2043 C2053 0.929 . S
H2044 C2048 0.929 . S
H2045 C2054 0.929 . S
C2046 H2040 0.930 . S
C2046 C2047 1.367 . S
C2046 C2054 1.378 . S
C2047 C2046 1.367 . S
C2047 C2055 1.433 . S
C2048 H2044 0.929 . S
C2048 C2050 1.378 . S
C2048 C2052 1.350 . S
C2049 C2052 1.463 . S
C2049 C2054 1.350 . S
C2049 N2057 1.427 . S
C2050 H2041 0.930 . S
C2050 C2048 1.378 . S
C2050 C2051 1.367 . S
C2051 C2050 1.367 . S
C2051 C2053 1.433 . S
C2052 C2048 1.350 . S
C2052 C2049 1.463 . S
C2052 N2056 1.427 . S
C2053 H2043 0.929 . S
C2053 C2051 1.433 . S
C2053 N2056 1.384 . S
C2054 H2045 0.929 . S
C2054 C2046 1.378 . S
C2054 C2049 1.350 . S
C2055 H2042 0.929 . S
C2055 C2047 1.433 . S
C2055 N2057 1.384 . S
N2056 C2052 1.427 . S
N2056 C2053 1.384 . S
N2057 C2049 1.427 . S
N2057 C2055 1.384 . S
H2058 C2064 0.930 . S
H2059 C2068 0.930 . S
H2060 C2073 0.929 . S
H2061 C2071 0.929 . S
H2062 C2066 0.929 . S
H2063 C2072 0.929 . S
C2064 H2058 0.930 . S
C2064 C2065 1.367 . S
C2064 C2072 1.378 . S
C2065 C2064 1.367 . S
C2065 C2073 1.433 . S
C2066 H2062 0.929 . S
C2066 C2068 1.378 . S
C2066 C2070 1.350 . S
C2067 C2070 1.463 . S
C2067 C2072 1.350 . S
C2067 N2075 1.427 . S
C2068 H2059 0.930 . S
C2068 C2066 1.378 . S
C2068 C2069 1.367 . S
C2069 C2068 1.367 . S
C2069 C2071 1.433 . S
C2070 C2066 1.350 . S
C2070 C2067 1.463 . S
C2070 N2074 1.427 . S
C2071 H2061 0.929 . S
C2071 C2069 1.433 . S
C2071 N2074 1.384 . S
C2072 H2063 0.929 . S
C2072 C2064 1.378 . S
C2072 C2067 1.350 . S
C2073 H2060 0.929 . S
C2073 C2065 1.433 . S
C2073 N2075 1.384 . S
N2074 C2070 1.427 . S
N2074 C2071 1.384 . S
N2075 C2067 1.427 . S
N2075 C2073 1.384 . S
H2076 C2082 0.930 . S
H2077 C2086 0.930 . S
H2078 C2091 0.929 . S
H2079 C2089 0.929 . S
H2080 C2084 0.929 . S
H2081 C2090 0.929 . S
C2082 H2076 0.930 . S
C2082 C2083 1.367 . S
C2082 C2090 1.378 . S
C2083 C2082 1.367 . S
C2083 C2091 1.433 . S
C2084 H2080 0.929 . S
C2084 C2086 1.378 . S
C2084 C2088 1.350 . S
C2085 C2088 1.463 . S
C2085 C2090 1.350 . S
C2085 N2093 1.427 . S
C2086 H2077 0.930 . S
C2086 C2084 1.378 . S
C2086 C2087 1.367 . S
C2087 C2086 1.367 . S
C2087 C2089 1.433 . S
C2088 C2084 1.350 . S
C2088 C2085 1.463 . S
C2088 N2092 1.427 . S
C2089 H2079 0.929 . S
C2089 C2087 1.433 . S
C2089 N2092 1.384 . S
C2090 H2081 0.929 . S
C2090 C2082 1.378 . S
C2090 C2085 1.350 . S
C2091 H2078 0.929 . S
C2091 C2083 1.433 . S
C2091 N2093 1.384 . S
N2092 C2088 1.427 . S
N2092 C2089 1.384 . S
N2093 C2085 1.427 . S
N2093 C2091 1.384 . S
H2094 C2100 0.930 . S
H2095 C2104 0.930 . S
H2096 C2109 0.929 . S
H2097 C2107 0.929 . S
H2098 C2102 0.929 . S
H2099 C2108 0.929 . S
C2100 H2094 0.930 . S
C2100 C2101 1.367 . S
C2100 C2108 1.378 . S
C2101 C2100 1.367 . S
C2101 C2109 1.433 . S
C2102 H2098 0.929 . S
C2102 C2104 1.378 . S
C2102 C2106 1.350 . S
C2103 C2106 1.463 . S
C2103 C2108 1.350 . S
C2103 N2111 1.427 . S
C2104 H2095 0.930 . S
C2104 C2102 1.378 . S
C2104 C2105 1.367 . S
C2105 C2104 1.367 . S
C2105 C2107 1.433 . S
C2106 C2102 1.350 . S
C2106 C2103 1.463 . S
C2106 N2110 1.427 . S
C2107 H2097 0.929 . S
C2107 C2105 1.433 . S
C2107 N2110 1.384 . S
C2108 H2099 0.929 . S
C2108 C2100 1.378 . S
C2108 C2103 1.350 . S
C2109 H2096 0.929 . S
C2109 C2101 1.433 . S
C2109 N2111 1.384 . S
N2110 C2106 1.427 . S
N2110 C2107 1.384 . S
N2111 C2103 1.427 . S
N2111 C2109 1.384 . S
H2112 C2118 0.893 1_545 S
H2113 C2122 0.930 . S
H2114 C2127 0.929 . S
H2115 C2125 0.929 . S
H2116 C2120 0.929 . S
H2117 C2126 0.929 1_545 S
C2118 H2112 0.893 1_565 S
C2118 C2119 1.367 . S
C2118 C2126 1.378 . S
C2119 C2118 1.367 . S
C2119 C2127 1.433 . S
C2120 H2116 0.929 . S
C2120 C2122 1.378 . S
C2120 C2124 1.350 . S
C2121 C2124 1.463 . S
C2121 C2126 1.350 . S
C2121 N2129 1.427 . S
C2122 H2113 0.930 . S
C2122 C2120 1.378 . S
C2122 C2123 1.367 . S
C2123 C2122 1.367 . S
C2123 C2125 1.433 1_565 S
C2124 C2120 1.350 . S
C2124 C2121 1.463 . S
C2124 N2128 1.429 1_565 S
C2125 H2115 0.929 . S
C2125 C2123 1.433 1_545 S
C2125 N2128 1.383 . S
C2126 H2117 0.929 1_565 S
C2126 C2118 1.378 . S
C2126 C2121 1.350 . S
C2127 H2114 0.929 . S
C2127 C2119 1.433 . S
C2127 N2129 1.384 . S
N2128 C2124 1.429 1_545 S
N2128 C2125 1.383 . S
N2129 C2121 1.427 . S
N2129 C2127 1.384 . S
H2130 C2136 0.930 1_545 S
H2131 C2140 0.930 . S
H2132 C2145 0.929 . S
H2133 C2143 0.929 1_545 S
H2134 C2138 0.929 . S
H2135 C2144 0.929 1_545 S
C2136 H2130 0.930 1_565 S
C2136 C2137 1.367 . S
C2136 C2144 1.378 . S
C2137 C2136 1.367 . S
C2137 C2145 1.433 . S
C2138 H2134 0.929 . S
C2138 C2140 1.378 . S
C2138 C2142 1.350 . S
C2139 C2142 1.463 . S
C2139 C2144 1.350 . S
C2139 N2147 1.427 . S
C2140 H2131 0.930 . S
C2140 C2138 1.378 . S
C2140 C2141 1.367 . S
C2141 C2140 1.367 . S
C2141 C2143 1.433 . S
C2142 C2138 1.350 . S
C2142 C2139 1.463 . S
C2142 N2146 1.427 . S
C2143 H2133 0.929 1_565 S
C2143 C2141 1.433 . S
C2143 N2146 1.384 . S
C2144 H2135 0.929 1_565 S
C2144 C2136 1.378 . S
C2144 C2139 1.350 . S
C2145 H2132 0.929 . S
C2145 C2137 1.433 . S
C2145 N2147 1.384 . S
N2146 C2142 1.427 . S
N2146 C2143 1.384 . S
N2147 C2139 1.427 . S
N2147 C2145 1.384 . S
H2148 C2154 0.930 . S
H2149 C2158 0.930 . S
H2150 C2163 0.929 . S
H2151 C2161 0.929 . S
H2152 C2156 0.929 . S
H2153 C2162 0.929 . S
C2154 H2148 0.930 . S
C2154 C2155 1.367 . S
C2154 C2162 1.378 . S
C2155 C2154 1.367 . S
C2155 C2163 1.433 . S
C2156 H2152 0.929 . S
C2156 C2158 1.378 . S
C2156 C2160 1.350 . S
C2157 C2160 1.463 . S
C2157 C2162 1.350 . S
C2157 N2165 1.427 . S
C2158 H2149 0.930 . S
C2158 C2156 1.378 . S
C2158 C2159 1.367 . S
C2159 C2158 1.367 . S
C2159 C2161 1.433 . S
C2160 C2156 1.350 . S
C2160 C2157 1.463 . S
C2160 N2164 1.427 . S
C2161 H2151 0.929 . S
C2161 C2159 1.433 . S
C2161 N2164 1.384 . S
C2162 H2153 0.929 . S
C2162 C2154 1.378 . S
C2162 C2157 1.350 . S
C2163 H2150 0.929 . S
C2163 C2155 1.433 . S
C2163 N2165 1.384 . S
N2164 C2160 1.427 . S
N2164 C2161 1.384 . S
N2165 C2157 1.427 . S
N2165 C2163 1.384 . S
H2166 C2172 0.930 . S
H2167 C2176 0.930 . S
H2168 C2181 0.929 . S
H2169 C2179 0.929 . S
H2170 C2174 0.929 . S
H2171 C2180 0.929 . S
C2172 H2166 0.930 . S
C2172 C2173 1.367 . S
C2172 C2180 1.378 . S
C2173 C2172 1.367 . S
C2173 C2181 1.433 . S
C2174 H2170 0.929 . S
C2174 C2176 1.378 . S
C2174 C2178 1.350 . S
C2175 C2178 1.463 . S
C2175 C2180 1.350 . S
C2175 N2183 1.427 . S
C2176 H2167 0.930 . S
C2176 C2174 1.378 . S
C2176 C2177 1.367 . S
C2177 C2176 1.367 . S
C2177 C2179 1.433 . S
C2178 C2174 1.350 . S
C2178 C2175 1.463 . S
C2178 N2182 1.427 . S
C2179 H2169 0.929 . S
C2179 C2177 1.433 . S
C2179 N2182 1.384 . S
C2180 H2171 0.929 . S
C2180 C2172 1.378 . S
C2180 C2175 1.350 . S
C2181 H2168 0.929 . S
C2181 C2173 1.433 . S
C2181 N2183 1.384 . S
N2182 C2178 1.427 . S
N2182 C2179 1.384 . S
N2183 C2175 1.427 . S
N2183 C2181 1.384 . S
H2184 C2190 0.930 1_554 S
H2185 C2194 0.930 . S
H2186 C2199 0.929 . S
H2187 C2197 0.929 . S
H2188 C2192 0.929 . S
H2189 C2198 0.929 . S
C2190 H2184 0.930 1_556 S
C2190 C2191 1.367 . S
C2190 C2198 1.378 . S
C2191 C2190 1.367 . S
C2191 C2199 1.433 . S
C2192 H2188 0.929 . S
C2192 C2194 1.378 . S
C2192 C2196 1.350 . S
C2193 C2196 1.463 . S
C2193 C2198 1.350 . S
C2193 N2201 1.427 . S
C2194 H2185 0.930 . S
C2194 C2192 1.378 . S
C2194 C2195 1.367 . S
C2195 C2194 1.367 . S
C2195 C2197 1.433 . S
C2196 C2192 1.350 . S
C2196 C2193 1.463 . S
C2196 N2200 1.427 . S
C2197 H2187 0.929 . S
C2197 C2195 1.433 . S
C2197 N2200 1.384 . S
C2198 H2189 0.929 . S
C2198 C2190 1.378 . S
C2198 C2193 1.350 . S
C2199 H2186 0.929 . S
C2199 C2191 1.433 . S
C2199 N2201 1.384 . S
N2200 C2196 1.427 . S
N2200 C2197 1.384 . S
N2201 C2193 1.427 . S
N2201 C2199 1.384 . S
H2202 C2208 0.930 . S
H2203 C2212 0.930 . S
H2204 C2217 0.929 . S
H2205 C2215 0.929 . S
H2206 C2210 0.929 . S
H2207 C2216 0.929 . S
C2208 H2202 0.930 . S
C2208 C2209 1.367 . S
C2208 C2216 1.378 . S
C2209 C2208 1.367 . S
C2209 C2217 1.433 . S
C2210 H2206 0.929 . S
C2210 C2212 1.378 . S
C2210 C2214 1.350 . S
C2211 C2214 1.463 . S
C2211 C2216 1.350 . S
C2211 N2219 1.427 . S
C2212 H2203 0.930 . S
C2212 C2210 1.378 . S
C2212 C2213 1.367 . S
C2213 C2212 1.367 . S
C2213 C2215 1.433 . S
C2214 C2210 1.350 . S
C2214 C2211 1.463 . S
C2214 N2218 1.427 . S
C2215 H2205 0.929 . S
C2215 C2213 1.433 . S
C2215 N2218 1.384 . S
C2216 H2207 0.929 . S
C2216 C2208 1.378 . S
C2216 C2211 1.350 . S
C2217 H2204 0.929 . S
C2217 C2209 1.433 . S
C2217 N2219 1.384 . S
N2218 C2214 1.427 . S
N2218 C2215 1.384 . S
N2219 C2211 1.427 . S
N2219 C2217 1.384 . S
H2220 C2226 0.930 . S
H2221 C2230 0.930 . S
H2222 C2235 0.929 . S
H2223 C2233 0.929 . S
H2224 C2228 0.929 . S
H2225 C2234 0.929 . S
C2226 H2220 0.930 . S
C2226 C2227 1.367 . S
C2226 C2234 1.378 . S
C2227 C2226 1.367 . S
C2227 C2235 1.433 . S
C2228 H2224 0.929 . S
C2228 C2230 1.378 . S
C2228 C2232 1.350 . S
C2229 C2232 1.463 . S
C2229 C2234 1.350 . S
C2229 N2237 1.427 . S
C2230 H2221 0.930 . S
C2230 C2228 1.378 . S
C2230 C2231 1.367 . S
C2231 C2230 1.367 . S
C2231 C2233 1.433 . S
C2232 C2228 1.350 . S
C2232 C2229 1.463 . S
C2232 N2236 1.427 . S
C2233 H2223 0.929 . S
C2233 C2231 1.433 . S
C2233 N2236 1.384 . S
C2234 H2225 0.929 . S
C2234 C2226 1.378 . S
C2234 C2229 1.350 . S
C2235 H2222 0.929 . S
C2235 C2227 1.433 . S
C2235 N2237 1.384 . S
N2236 C2232 1.427 . S
N2236 C2233 1.384 . S
N2237 C2229 1.427 . S
N2237 C2235 1.384 . S
H2238 C2244 0.930 . S
H2239 C2248 0.930 . S
H2240 C2253 0.929 . S
H2241 C2251 0.929 . S
H2242 C2246 0.929 . S
H2243 C2252 0.929 . S
C2244 H2238 0.930 . S
C2244 C2245 1.367 . S
C2244 C2252 1.378 . S
C2245 C2244 1.367 . S
C2245 C2253 1.433 . S
C2246 H2242 0.929 . S
C2246 C2248 1.378 . S
C2246 C2250 1.350 . S
C2247 C2250 1.463 . S
C2247 C2252 1.350 . S
C2247 N2255 1.427 . S
C2248 H2239 0.930 . S
C2248 C2246 1.378 . S
C2248 C2249 1.367 . S
C2249 C2248 1.367 . S
C2249 C2251 1.433 . S
C2250 C2246 1.350 . S
C2250 C2247 1.463 . S
C2250 N2254 1.427 . S
C2251 H2241 0.929 . S
C2251 C2249 1.433 . S
C2251 N2254 1.384 . S
C2252 H2243 0.929 . S
C2252 C2244 1.378 . S
C2252 C2247 1.350 . S
C2253 H2240 0.929 . S
C2253 C2245 1.433 . S
C2253 N2255 1.384 . S
N2254 C2250 1.427 . S
N2254 C2251 1.384 . S
N2255 C2247 1.427 . S
N2255 C2253 1.384 . S
H2256 C2262 0.930 . S
H2257 C2266 0.930 . S
H2258 C2271 0.929 . S
H2259 C2269 0.929 . S
H2260 C2264 0.929 . S
H2261 C2270 0.929 . S
C2262 H2256 0.930 . S
C2262 C2263 1.367 . S
C2262 C2270 1.378 . S
C2263 C2262 1.367 . S
C2263 C2271 1.433 . S
C2264 H2260 0.929 . S
C2264 C2266 1.378 . S
C2264 C2268 1.350 . S
C2265 C2268 1.463 . S
C2265 C2270 1.350 . S
C2265 N2273 1.427 . S
C2266 H2257 0.930 . S
C2266 C2264 1.378 . S
C2266 C2267 1.367 . S
C2267 C2266 1.367 . S
C2267 C2269 1.433 . S
C2268 C2264 1.350 . S
C2268 C2265 1.463 . S
C2268 N2272 1.427 . S
C2269 H2259 0.929 . S
C2269 C2267 1.433 . S
C2269 N2272 1.384 . S
C2270 H2261 0.929 . S
C2270 C2262 1.378 . S
C2270 C2265 1.350 . S
C2271 H2258 0.929 . S
C2271 C2263 1.433 . S
C2271 N2273 1.384 . S
N2272 C2268 1.427 . S
N2272 C2269 1.384 . S
N2273 C2265 1.427 . S
N2273 C2271 1.384 . S
H2274 C2280 0.930 . S
H2275 C2284 0.930 . S
H2276 C2289 0.929 . S
H2277 C2287 0.929 . S
H2278 C2282 0.929 . S
H2279 C2288 0.929 . S
C2280 H2274 0.930 . S
C2280 C2281 1.367 . S
C2280 C2288 1.378 . S
C2281 C2280 1.367 . S
C2281 C2289 1.433 . S
C2282 H2278 0.929 . S
C2282 C2284 1.378 . S
C2282 C2286 1.350 . S
C2283 C2286 1.463 . S
C2283 C2288 1.350 . S
C2283 N2291 1.427 . S
C2284 H2275 0.930 . S
C2284 C2282 1.378 . S
C2284 C2285 1.367 . S
C2285 C2284 1.367 . S
C2285 C2287 1.433 . S
C2286 C2282 1.350 . S
C2286 C2283 1.463 . S
C2286 N2290 1.427 . S
C2287 H2277 0.929 . S
C2287 C2285 1.433 . S
C2287 N2290 1.384 . S
C2288 H2279 0.929 . S
C2288 C2280 1.378 . S
C2288 C2283 1.350 . S
C2289 H2276 0.929 . S
C2289 C2281 1.433 . S
C2289 N2291 1.384 . S
N2290 C2286 1.427 . S
N2290 C2287 1.384 . S
N2291 C2283 1.427 . S
N2291 C2289 1.384 . S
H2292 C2298 0.930 . S
H2293 C2302 0.930 . S
H2294 C2307 0.929 . S
H2295 C2305 0.929 . S
H2296 C2300 0.929 . S
H2297 C2306 0.929 . S
C2298 H2292 0.930 . S
C2298 C2299 1.367 . S
C2298 C2306 1.378 . S
C2299 C2298 1.367 . S
C2299 C2307 1.433 . S
C2300 H2296 0.929 . S
C2300 C2302 1.378 . S
C2300 C2304 1.350 . S
C2301 C2304 1.463 . S
C2301 C2306 1.350 . S
C2301 N2309 1.427 . S
C2302 H2293 0.930 . S
C2302 C2300 1.378 . S
C2302 C2303 1.367 . S
C2303 C2302 1.367 . S
C2303 C2305 1.433 . S
C2304 C2300 1.350 . S
C2304 C2301 1.463 . S
C2304 N2308 1.427 . S
C2305 H2295 0.929 . S
C2305 C2303 1.433 . S
C2305 N2308 1.384 . S
C2306 H2297 0.929 . S
C2306 C2298 1.378 . S
C2306 C2301 1.350 . S
C2307 H2294 0.929 . S
C2307 C2299 1.433 . S
C2307 N2309 1.384 . S
N2308 C2304 1.427 . S
N2308 C2305 1.384 . S
N2309 C2301 1.427 . S
N2309 C2307 1.384 . S
H2310 C2316 0.930 . S
H2311 C2320 0.930 . S
H2312 C2325 0.929 . S
H2313 C2323 0.929 . S
H2314 C2318 0.929 . S
H2315 C2324 0.929 . S
C2316 H2310 0.930 . S
C2316 C2317 1.367 . S
C2316 C2324 1.378 . S
C2317 C2316 1.367 . S
C2317 C2325 1.433 . S
C2318 H2314 0.929 . S
C2318 C2320 1.378 . S
C2318 C2322 1.350 . S
C2319 C2322 1.463 . S
C2319 C2324 1.350 . S
C2319 N2327 1.427 . S
C2320 H2311 0.930 . S
C2320 C2318 1.378 . S
C2320 C2321 1.367 . S
C2321 C2320 1.367 . S
C2321 C2323 1.433 . S
C2322 C2318 1.350 . S
C2322 C2319 1.463 . S
C2322 N2326 1.427 . S
C2323 H2313 0.929 . S
C2323 C2321 1.433 . S
C2323 N2326 1.384 . S
C2324 H2315 0.929 . S
C2324 C2316 1.378 . S
C2324 C2319 1.350 . S
C2325 H2312 0.929 . S
C2325 C2317 1.433 . S
C2325 N2327 1.384 . S
N2326 C2322 1.427 . S
N2326 C2323 1.384 . S
N2327 C2319 1.427 . S
N2327 C2325 1.384 . S
H2328 C2334 0.930 . S
H2329 C2338 0.930 . S
H2330 C2343 0.929 . S
H2331 C2341 0.929 . S
H2332 C2336 0.929 . S
H2333 C2342 0.929 . S
C2334 H2328 0.930 . S
C2334 C2335 1.367 . S
C2334 C2342 1.378 . S
C2335 C2334 1.367 . S
C2335 C2343 1.433 . S
C2336 H2332 0.929 . S
C2336 C2338 1.378 . S
C2336 C2340 1.350 . S
C2337 C2340 1.463 . S
C2337 C2342 1.350 . S
C2337 N2345 1.427 . S
C2338 H2329 0.930 . S
C2338 C2336 1.378 . S
C2338 C2339 1.367 . S
C2339 C2338 1.367 . S
C2339 C2341 1.433 . S
C2340 C2336 1.350 . S
C2340 C2337 1.463 . S
C2340 N2344 1.427 . S
C2341 H2331 0.929 . S
C2341 C2339 1.433 . S
C2341 N2344 1.384 . S
C2342 H2333 0.929 . S
C2342 C2334 1.378 . S
C2342 C2337 1.350 . S
C2343 H2330 0.929 . S
C2343 C2335 1.433 . S
C2343 N2345 1.384 . S
N2344 C2340 1.427 . S
N2344 C2341 1.384 . S
N2345 C2337 1.427 . S
N2345 C2343 1.384 . S
H2346 C2352 0.930 . S
H2347 C2356 0.930 . S
H2348 C2361 0.929 . S
H2349 C2359 0.929 . S
H2350 C2354 0.929 . S
H2351 C2360 0.929 . S
C2352 H2346 0.930 . S
C2352 C2353 1.367 . S
C2352 C2360 1.378 . S
C2353 C2352 1.367 . S
C2353 C2361 1.433 . S
C2354 H2350 0.929 . S
C2354 C2356 1.378 . S
C2354 C2358 1.350 . S
C2355 C2358 1.463 . S
C2355 C2360 1.350 . S
C2355 N2363 1.427 . S
C2356 H2347 0.930 . S
C2356 C2354 1.378 . S
C2356 C2357 1.367 . S
C2357 C2356 1.367 . S
C2357 C2359 1.433 . S
C2358 C2354 1.350 . S
C2358 C2355 1.463 . S
C2358 N2362 1.427 . S
C2359 H2349 0.929 . S
C2359 C2357 1.433 . S
C2359 N2362 1.384 . S
C2360 H2351 0.929 . S
C2360 C2352 1.378 . S
C2360 C2355 1.350 . S
C2361 H2348 0.929 . S
C2361 C2353 1.433 . S
C2361 N2363 1.384 . S
N2362 C2358 1.427 . S
N2362 C2359 1.384 . S
N2363 C2355 1.427 . S
N2363 C2361 1.384 . S
H2364 C2370 0.930 . S
H2365 C2374 0.930 . S
H2366 C2379 0.929 . S
H2367 C2377 0.929 . S
H2368 C2372 0.929 . S
H2369 C2378 0.929 . S
C2370 H2364 0.930 . S
C2370 C2371 1.367 . S
C2370 C2378 1.378 . S
C2371 C2370 1.367 . S
C2371 C2379 1.433 . S
C2372 H2368 0.929 . S
C2372 C2374 1.378 . S
C2372 C2376 1.350 . S
C2373 C2376 1.463 . S
C2373 C2378 1.350 . S
C2373 N2381 1.427 . S
C2374 H2365 0.930 . S
C2374 C2372 1.378 . S
C2374 C2375 1.367 . S
C2375 C2374 1.367 . S
C2375 C2377 1.433 . S
C2376 C2372 1.350 . S
C2376 C2373 1.463 . S
C2376 N2380 1.427 . S
C2377 H2367 0.929 . S
C2377 C2375 1.433 . S
C2377 N2380 1.384 . S
C2378 H2369 0.929 . S
C2378 C2370 1.378 . S
C2378 C2373 1.350 . S
C2379 H2366 0.929 . S
C2379 C2371 1.433 . S
C2379 N2381 1.384 . S
N2380 C2376 1.427 . S
N2380 C2377 1.384 . S
N2381 C2373 1.427 . S
N2381 C2379 1.384 . S
H2382 C2388 0.930 . S
H2383 C2392 0.930 . S
H2384 C2397 0.929 . S
H2385 C2395 0.929 . S
H2386 C2390 0.929 . S
H2387 C2396 0.929 . S
C2388 H2382 0.930 . S
C2388 C2389 1.367 . S
C2388 C2396 1.378 . S
C2389 C2388 1.367 . S
C2389 C2397 1.433 . S
C2390 H2386 0.929 . S
C2390 C2392 1.378 . S
C2390 C2394 1.350 . S
C2391 C2394 1.463 . S
C2391 C2396 1.350 . S
C2391 N2399 1.427 . S
C2392 H2383 0.930 . S
C2392 C2390 1.378 . S
C2392 C2393 1.367 . S
C2393 C2392 1.367 . S
C2393 C2395 1.433 . S
C2394 C2390 1.350 . S
C2394 C2391 1.463 . S
C2394 N2398 1.427 . S
C2395 H2385 0.929 . S
C2395 C2393 1.433 . S
C2395 N2398 1.384 . S
C2396 H2387 0.929 . S
C2396 C2388 1.378 . S
C2396 C2391 1.350 . S
C2397 H2384 0.929 . S
C2397 C2389 1.433 . S
C2397 N2399 1.384 . S
N2398 C2394 1.427 . S
N2398 C2395 1.384 . S
N2399 C2391 1.427 . S
N2399 C2397 1.384 . S
C679 C3 0.591 . S
C683 C367 0.555 . S
C697 C381 0.648 . S
C701 C17 0.685 . S
C715 C31 1.249 . S
C719 C339 1.298 . S
C733 C353 1.395 . S
C737 C45 1.403 . S
C751 C59 0.645 . S
C755 C423 0.518 . S
C769 C73 1.242 . S
C773 C437 1.231 . S
C787 C87 1.488 . S
C791 C395 1.525 . S
C805 C101 0.589 . S
C809 C409 0.570 . S
C823 C171 0.547 . S
C827 C115 0.596 . S
C841 C129 1.394 . S
C845 C185 1.403 . S
C859 C199 0.589 . S
C863 C143 0.556 . S
C877 C157 0.549 . S
C881 C213 0.624 . S
C895 C605 0.568 . S
C899 C227 0.615 . S
C913 C633 0.602 . S
C917 C241 0.530 . S
C931 C311 1.409 . S
C935 C255 1.423 . S
C949 C563 1.266 . S
C953 C269 1.260 . S
C967 C661 0.563 . S
C971 C283 0.596 . S
C985 C577 1.482 . S
C989 C297 1.524 . S
C1003 C325 1.226 . S
C1007 C619 1.233 . S
C1021 C451 1.288 . S
C1025 C507 1.270 . S
C1039 C521 0.647 . S
C1043 C465 0.688 . S
C1057 C479 1.490 . S
C1061 C535 1.524 . S
C1075 C549 1.263 . S
C1079 C493 1.237 . S
C1093 C591 0.679 . S
C1097 C647 0.645 . S
C1111 C7 0.701 . S
C1115 C105 0.473 . S
C1129 C63 0.735 . S
C1133 C21 0.429 . S
C1147 C35 1.223 . S
C1151 C77 1.214 . S
C1165 C49 1.321 . S
C1169 C91 1.310 . S
C1183 C287 0.432 . S
C1187 C119 0.750 . S
C1201 C581 1.308 . S
C1205 C133 1.317 . S
C1219 C147 0.779 . S
C1223 C595 0.452 . S
C1237 C161 0.459 . S
C1241 C609 0.819 . S
C1255 C665 0.455 . S
C1259 C175 0.822 . S
C1273 C189 1.347 . S
C1277 C301 1.375 . S
C1291 C203 0.691 . S
C1295 C651 0.476 . S
C1309 C217 0.479 . S
C1313 C231 0.709 . S
C1327 C245 0.778 . S
C1331 C469 0.452 . S
C1345 C259 1.318 . S
C1349 C483 1.309 . S
C1363 C497 1.224 . S
C1367 C273 1.210 . S
C1381 C315 1.347 . S
C1385 C539 1.349 . S
C1399 C511 1.235 . S
C1403 C329 1.214 . S
C1417 C441 1.215 . S
C1421 C343 1.173 . S
C1435 C357 1.365 . S
C1439 C399 1.356 . S
C1453 C413 0.452 . S
C1457 C371 0.829 . S
C1471 C385 0.450 . S
C1475 C427 0.783 . S
C1489 C455 1.180 . S
C1493 C623 1.185 . S
C1507 C637 0.729 . S
C1511 C525 0.433 . S
C1525 C567 1.196 . S
C1529 C553 1.202 . S
C1543 C9 1.254 . S
C1547 C415 1.019 . S
C1561 C429 1.260 . S
C1565 C23 1.069 . S
C1579 C37 1.035 . S
C1583 C443 1.059 . S
C1597 C51 0.948 . S
C1601 C401 0.947 . S
C1615 C387 1.027 . S
C1619 C65 1.198 . S
C1633 C79 1.022 . S
C1637 C345 1.043 . S
C1651 C359 0.974 . S
C1655 C93 0.967 . S
C1669 C107 1.084 . S
C1673 C373 1.302 . S
C1687 C667 1.019 . S
C1691 C121 1.251 . S
C1705 C135 0.934 . S
C1709 C303 0.954 . S
C1723 C149 1.260 . S
C1727 C653 1.071 . S
C1741 C233 1.249 . S
C1745 C163 1.034 . S
C1759 C177 1.295 . S
C1763 C289 1.089 . S
C1777 C191 0.980 . S
C1781 C583 0.972 . S
C1795 C597 1.039 . S
C1799 C205 1.196 . S
C1813 C611 1.299 . S
C1817 C219 1.066 . S
C1831 C527 1.049 . S
C1835 C247 1.265 . S
C1849 C541 0.955 . S
C1853 C261 0.934 . S
C1867 C555 1.057 . S
C1871 C275 1.034 . S
C1885 C317 0.977 . S
C1889 C485 0.962 . S
C1903 C457 1.028 . S
C1907 C331 1.042 . S
C1921 C471 1.028 . S
C1925 C639 1.203 . S
C1939 C499 1.041 . S
C1943 C569 1.027 . S
C1957 C625 1.043 . S
C1961 C513 1.054 . S
C1975 C8 1.611 . S
C1979 C316 1.659 . S
C1993 C22 1.761 . S
C1997 C568 1.805 . S
C2011 C330 1.774 . S
C2015 C36 1.771 . S
C2029 C638 1.648 . S
C2033 C50 1.705 . S
C2047 C260 1.701 . S
C2051 C64 1.651 . S
C2065 C274 1.770 . S
C2069 C78 1.767 . S
C2083 C92 1.769 . S
C2087 C624 1.783 . S
C2101 C106 1.640 . S
C2105 C246 1.640 . S
C2119 C190 1.662 . S
C2123 C120 1.614 . S
C2137 C134 1.703 . S
C2141 C204 1.652 . S
C2155 C218 1.643 . S
C2159 C148 1.653 . S
C2173 C176 1.601 . S
C2177 C162 1.616 . S
C2191 C232 1.605 . S
C2195 C358 1.655 . S
C2209 C428 1.658 . S
C2213 C288 1.641 . S
C2227 C386 1.681 . S
C2231 C302 1.721 . S
C2245 C344 1.799 . S
C2249 C652 1.753 . S
C2263 C666 1.611 . S
C2267 C372 1.593 . S
C2281 C596 1.688 . S
C2285 C400 1.729 . S
C2299 C610 1.603 . S
C2303 C414 1.609 . S
C2317 C582 1.778 . S
C2321 C442 1.791 . S
C2335 C526 1.748 . S
C2339 C456 1.801 . S
C2353 C540 1.730 . S
C2357 C470 1.688 . S
C2371 C484 1.769 . S
C2375 C554 1.781 . S
C2389 C498 1.771 . S
C2393 C512 1.767 . S
