# Generated by pormake.
# Topology rkf, (6)-cn, num edge types: 1
# Building blocks:
#     Node 0, Type 0, BuildingBlock: INOVEN_clean_sbu_0, # of connection points: 6
#     Node 1, Type 0, BuildingBlock: INOVEN_clean_sbu_0, # of connection points: 6
#     Node 2, Type 0, BuildingBlock: INOVEN_clean_sbu_0, # of connection points: 6
#     Node 3, Type 0, BuildingBlock: INOVEN_clean_sbu_0, # of connection points: 6
#     Node 4, Type 0, BuildingBlock: INOVEN_clean_sbu_0, # of connection points: 6
#     Node 5, Type 0, BuildingBlock: INOVEN_clean_sbu_0, # of connection points: 6
#     Edge 6, Type (0, 0), BuildingBlock: XUDNAN_clean_linker_2, # of connection points: 2
#     Edge 7, Type (0, 0), BuildingBlock: XUDNAN_clean_linker_2, # of connection points: 2
#     Edge 8, Type (0, 0), BuildingBlock: XUDNAN_clean_linker_2, # of connection points: 2
#     Edge 9, Type (0, 0), BuildingBlock: XUDNAN_clean_linker_2, # of connection points: 2
#     Edge 10, Type (0, 0), BuildingBlock: XUDNAN_clean_linker_2, # of connection points: 2
#     Edge 11, Type (0, 0), BuildingBlock: XUDNAN_clean_linker_2, # of connection points: 2
#     Edge 12, Type (0, 0), BuildingBlock: XUDNAN_clean_linker_2, # of connection points: 2
#     Edge 13, Type (0, 0), BuildingBlock: XUDNAN_clean_linker_2, # of connection points: 2
#     Edge 14, Type (0, 0), BuildingBlock: XUDNAN_clean_linker_2, # of connection points: 2
#     Edge 15, Type (0, 0), BuildingBlock: XUDNAN_clean_linker_2, # of connection points: 2
#     Edge 16, Type (0, 0), BuildingBlock: XUDNAN_clean_linker_2, # of connection points: 2
#     Edge 17, Type (0, 0), BuildingBlock: XUDNAN_clean_linker_2, # of connection points: 2
#     Edge 18, Type (0, 0), BuildingBlock: XUDNAN_clean_linker_2, # of connection points: 2
#     Edge 19, Type (0, 0), BuildingBlock: XUDNAN_clean_linker_2, # of connection points: 2
#     Edge 20, Type (0, 0), BuildingBlock: XUDNAN_clean_linker_2, # of connection points: 2
#     Edge 21, Type (0, 0), BuildingBlock: XUDNAN_clean_linker_2, # of connection points: 2
#     Edge 22, Type (0, 0), BuildingBlock: XUDNAN_clean_linker_2, # of connection points: 2
#     Edge 23, Type (0, 0), BuildingBlock: XUDNAN_clean_linker_2, # of connection points: 2
# Relax obj value: 0.683
# Max RMSD: 0.253
# Mean RMSD: 0.253
data_MOF--net-rkf--node1-INOVEN_clean_sbu_0--edge1-XUDNAN_clean_linker_2
_symmetry_space_group_name_H-M    P1
_symmetry_Int_Tables_number       1
_symmetry_cell_setting            triclinic
loop_
_symmetry_equiv_pos_as_xyz
'x, y, z'
_cell_length_a     25.427205
_cell_length_b     25.158048
_cell_length_c     43.767707
_cell_angle_alpha  89.704978
_cell_angle_beta   89.841442
_cell_angle_gamma 119.92952
loop_
_atom_site_label
_atom_site_type_symbol
_atom_site_fract_x
_atom_site_fract_y
_atom_site_fract_z
_atom_type_partial_charge
Gd0 Gd 0.27586 0.02957 0.17717 0.0
Gd1 Gd 0.35932 0.15646 1.15089 0.0
C2 C 0.32554 0.14773 0.2223 0.0
C3 C 0.23273 0.92464 0.20438 0.0
C4 C 0.24704 0.90289 0.23248 0.0
C5 C 0.28588 0.94497 0.25403 0.0
C6 C 0.22272 0.83994 0.23769 0.0
C7 C 0.27027 0.86102 0.28772 0.0
C8 C 0.23436 0.81906 0.26511 0.0
C9 C 0.29721 0.9243 0.28145 0.0
C10 C 0.22178 0.08739 1.15257 0.0
C11 C 0.28504 0.04009 1.10342 0.0
C12 C 0.41362 0.26222 1.12378 0.0
C13 C 0.40735 0.31721 1.12068 0.0
C14 C 0.35924 0.31501 1.10402 0.0
C15 C 0.45183 0.37355 1.13283 0.0
C16 C 0.40026 0.42425 1.11146 0.0
C17 C 0.44842 0.42687 1.12817 0.0
C18 C 0.35622 0.3681 1.09922 0.0
C19 C 0.41567 0.09728 0.17304 0.0
O20 O 0.31188 0.0894 0.22043 0.0
O21 O 0.33441 0.18012 0.19677 0.0
O22 O 0.20945 0.96054 0.20773 0.0
O23 O 0.275 0.94403 0.18335 0.0
O24 O 0.19811 0.02817 1.1519 0.0
O25 O 0.26806 0.11118 0.16883 0.0
O26 O 0.31741 0.10073 1.10682 0.0
O27 O 0.2691 0.00294 1.1275 0.0
O28 O 0.37234 0.21194 1.11073 0.0
O29 O 0.42973 0.25223 1.15056 0.0
O30 O 0.43839 0.15596 0.17338 0.0
O31 O 0.36762 0.07387 1.15798 0.0
H32 H 0.30591 -0.00619 0.25009 0.0
H33 H 0.19358 0.80695 0.22089 0.0
H34 H 0.21333 0.77012 0.26913 0.0
H35 H 0.32409 0.95813 0.29843 0.0
H36 H 0.32475 0.27274 1.09389 0.0
H37 H 0.4899 0.37656 1.14536 0.0
H38 H 0.48379 0.47016 1.13701 0.0
H39 H 0.32035 0.36571 1.08495 0.0
Gd40 Gd 0.34615 0.27812 0.50814 0.0
Gd41 Gd 0.32338 0.37978 0.49193 0.0
C42 C 0.28896 0.32885 0.5607 0.0
C43 C 0.39891 0.21935 0.5278 0.0
C44 C 0.43567 0.22172 0.55401 0.0
C45 C 0.44578 0.26207 0.57808 0.0
C46 C 0.46303 0.18523 0.55442 0.0
C47 C 0.50766 0.22672 0.60391 0.0
C48 C 0.49875 0.18763 0.5792 0.0
C49 C 0.48128 0.26444 0.60285 0.0
C50 C 0.23342 0.24032 0.48776 0.0
C51 C 0.33615 0.29781 0.43618 0.0
C52 C 0.28498 0.45056 0.47125 0.0
C53 C 0.22418 0.4376 0.46218 0.0
C54 C 0.20552 0.48055 0.46762 0.0
C55 C 0.18371 0.38128 0.44881 0.0
C56 C 0.10753 0.41252 0.44442 0.0
C57 C 0.12632 0.3691 0.43976 0.0
C58 C 0.14756 0.46807 0.45891 0.0
C59 C 0.43924 0.41758 0.50995 0.0
O60 O 0.32545 0.30552 0.55599 0.0
O61 O 0.27369 0.35125 0.5371 0.0
O62 O 0.34166 0.20125 0.5332 0.0
O63 O 0.42489 0.267 0.50955 0.0
O64 O 0.26079 0.20881 0.48395 0.0
O65 O 0.26374 0.28475 0.50501 0.0
O66 O 0.31863 0.33724 0.44494 0.0
O67 O 0.35363 0.27095 0.45668 0.0
O68 O 0.30996 0.42694 0.45393 0.0
O69 O 0.29178 0.44421 0.50033 0.0
O70 O 0.40936 0.44493 0.51695 0.0
O71 O 0.40675 0.37341 0.49286 0.0
H72 H 0.42549 0.29108 0.5779 0.0
H73 H 0.45632 0.1545 0.53569 0.0
H74 H 0.51848 0.15815 0.57928 0.0
H75 H 0.48588 0.29405 0.62175 0.0
H76 H 0.23588 0.52382 0.47844 0.0
H77 H 0.19681 0.34695 0.44486 0.0
H78 H 0.09767 0.32635 0.42814 0.0
H79 H 0.1344 0.50217 0.46327 0.0
Gd80 Gd 0.13628 0.34319 0.83999 0.0
Gd81 Gd 0.00669 0.30396 0.82014 0.0
C82 C 0.02674 0.29127 0.89228 0.0
C83 C 0.24313 0.40585 0.86296 0.0
C84 C 0.26824 0.44635 0.88943 0.0
C85 C 0.31747 0.44918 0.90501 0.0
C86 C 0.24249 0.48115 0.8998 0.0
C87 C 0.31313 0.51867 0.94227 0.0
C88 C 0.26506 0.51738 0.92584 0.0
C89 C 0.33958 0.48473 0.93124 0.0
C90 C 0.07121 0.2287 0.81918 0.0
C91 C 0.11225 0.32993 0.76724 0.0
C92 C 0.89674 0.25819 0.80075 0.0
C93 C 0.85081 0.21887 0.7787 0.0
C94 C 0.79015 0.20105 0.78501 0.0
C95 C 0.86533 0.19575 0.75296 0.0
C96 C 0.7579 0.13549 0.74054 0.0
C97 C 0.81902 0.1545 0.73382 0.0
C98 C 0.74397 0.1595 0.76615 0.0
C99 C 0.07081 0.4188 0.84231 0.0
O100 O 0.08628 0.32249 0.88662 0.0
O101 O -0.01293 0.27463 0.86975 0.0
O102 O 0.20737 0.34737 0.86899 0.0
O103 O 0.22295 0.42635 0.84102 0.0
O104 O 0.13002 0.26073 0.8165 0.0
O105 O 0.05218 0.25596 0.8357 0.0
O106 O 0.05346 0.30616 0.77435 0.0
O107 O 0.15442 0.35258 0.78876 0.0
O108 O 0.94124 0.31121 0.79125 0.0
O109 O 0.91369 0.23047 0.82042 0.0
O110 O 0.01326 0.38306 0.84652 0.0
O111 O 0.09092 0.3935 0.82483 0.0
H112 H 0.33771 0.42247 0.89738 0.0
H113 H 0.20413 0.47933 0.88815 0.0
H114 H 0.24378 0.54302 0.93357 0.0
H115 H 0.37552 0.48306 0.94364 0.0
H116 H 0.77834 0.21833 0.80496 0.0
H117 H 0.91201 0.20859 0.74807 0.0
H118 H 0.83073 0.1359 0.71437 0.0
H119 H 0.69731 0.14569 0.77172 0.0
Gd120 Gd 0.83751 0.12173 0.17428 0.0
Gd121 Gd 0.84771 0.01266 1.14818 0.0
C122 C 0.84219 0.02111 0.22218 0.0
C123 C 0.79458 0.18259 0.20178 0.0
C124 C 0.79913 0.20347 0.23335 0.0
C125 C 0.83142 0.18946 0.25469 0.0
C126 C 0.77411 0.23973 0.24204 0.0
C127 C 0.81746 0.2513 0.29282 0.0
C128 C 0.78334 0.26369 0.27162 0.0
C129 C 0.84034 0.2129 0.28414 0.0
C130 C 0.95201 0.14607 0.16691 0.0
C131 C 0.86952 0.12708 1.10257 0.0
C132 C 0.86995 0.93414 1.12167 0.0
C133 C 0.83403 0.86928 1.11351 0.0
C134 C 0.7713 0.83604 1.1192 0.0
C135 C 0.86173 0.84191 1.09741 0.0
C136 C 0.76326 0.75041 1.08991 0.0
C137 C 0.82673 0.78299 1.08571 0.0
C138 C 0.73611 0.77697 1.10747 0.0
C139 C 0.7351 -0.0042 1.15402 0.0
O140 O 0.82914 0.06574 0.21796 0.0
O141 O 0.85667 -0.00228 0.19863 0.0
O142 O 0.84559 0.2088 0.18626 0.0
O143 O 0.7635 0.12304 0.19813 0.0
O144 O 0.93726 0.18856 0.16823 0.0
O145 O 0.9071 0.09503 0.17427 0.0
O146 O 0.88176 0.0827 1.1087 0.0
O147 O 0.84168 0.14344 1.12322 0.0
O148 O 0.87859 0.94639 1.15079 0.0
O149 O 0.85628 0.97077 1.10686 0.0
O150 O 0.74666 0.95178 1.15847 0.0
O151 O 0.78183 0.04317 1.14539 0.0
H152 H 0.85173 0.1622 0.24829 0.0
H153 H 0.74895 0.25083 0.22576 0.0
H154 H 0.76514 0.29307 0.27767 0.0
H155 H 0.86806 0.20353 0.29953 0.0
H156 H 0.74925 0.85665 1.13164 0.0
H157 H 0.91006 0.86716 1.0927 0.0
H158 H 0.84913 0.76466 1.07176 0.0
H159 H 0.68747 0.753 1.11117 0.0
Gd160 Gd 0.76098 0.84633 0.5068 0.0
Gd161 Gd 0.89418 0.89992 0.50659 0.0
C162 C 0.83701 0.86302 0.57128 0.0
C163 C 0.64534 0.78277 0.51659 0.0
C164 C 0.6084 0.78681 0.54165 0.0
C165 C 0.61757 0.77532 0.57209 0.0
C166 C 0.57226 0.81355 0.53584 0.0
C167 C 0.5665 0.82891 0.59015 0.0
C168 C 0.55219 0.83529 0.55993 0.0
C169 C 0.5962 0.79567 0.59614 0.0
C170 C 0.82184 0.96936 0.51258 0.0
C171 C 0.82835 0.8978 0.44216 0.0
C172 C 0.01115 0.95646 0.50246 0.0
C173 C 0.05406 0.94234 0.48719 0.0
C174 C 0.10315 0.94639 0.50371 0.0
C175 C 0.04205 0.91702 0.45787 0.0
C176 C 0.12587 0.89676 0.46239 0.0
C177 C 0.07794 0.89499 0.44549 0.0
C178 C 0.13885 0.92376 0.49142 0.0
C179 C 0.82889 0.77578 0.49902 0.0
O180 O 0.78592 0.8282 0.55582 0.0
O181 O 0.88306 0.90801 0.55672 0.0
O182 O 0.67048 0.83064 0.49854 0.0
O183 O 0.68266 0.76301 0.5236 0.0
O184 O 0.77183 0.9396 0.49766 0.0
O185 O 0.83467 0.93227 0.52513 0.0
O186 O 0.8789 0.92528 0.45845 0.0
O187 O 0.77669 0.85569 0.4551 0.0
O188 O -0.01946 0.91855 0.52458 0.0
O189 O -0.0225 0.9702 0.48522 0.0
O190 O 0.87603 0.80291 0.5162 0.0
O191 O 0.81912 0.81481 0.48662 0.0
H192 H 0.64566 0.75553 0.5775 0.0
H193 H 0.56428 0.82272 0.5126 0.0
H194 H 0.52964 0.86118 0.55487 0.0
H195 H 0.60849 0.79103 0.61929 0.0
H196 H 0.11251 0.9651 0.52658 0.0
H197 H 0.00401 0.91276 0.44481 0.0
H198 H 0.06789 0.87632 0.42263 0.0
H199 H 0.17549 0.92595 0.50493 0.0
Gd200 Gd 0.00459 0.80092 0.84628 0.0
Gd201 Gd 0.11511 0.92128 0.82189 0.0
C202 C 0.1112 0.89497 0.89401 0.0
C203 C 0.93564 0.69283 0.86946 0.0
C204 C 0.87246 0.65251 0.87879 0.0
C205 C 0.85529 0.59418 0.89056 0.0
C206 C 0.83272 0.67566 0.8813 0.0
C207 C 0.76549 0.58866 0.91357 0.0
C208 C 0.77949 0.6439 0.89853 0.0
C209 C 0.80183 0.56214 0.90767 0.0
C210 C -0.01817 0.89447 0.83975 0.0
C211 C 0.00096 0.83432 0.77505 0.0
C212 C 0.19572 0.02584 0.7993 0.0
C213 C 0.2623 0.0594 0.79835 0.0
C214 C 0.29493 0.02934 0.80506 0.0
C215 C 0.2933 0.12015 0.78789 0.0
C216 C 0.38765 0.1173 0.78623 0.0
C217 C 0.3556 0.14904 0.78196 0.0
C218 C 0.35715 0.05803 0.79899 0.0
C219 C 0.13583 0.82761 0.83103 0.0
O220 O 0.06946 0.8377 0.8871 0.0
O221 O 0.13117 0.93892 0.87294 0.0
O222 O 0.94742 0.70241 0.8402 0.0
O223 O -0.03477 0.74259 0.88571 0.0
O224 O 0.93941 0.83736 0.84139 0.0
O225 O 0.03142 0.89798 0.84684 0.0
O226 O 0.05192 0.88666 0.78011 0.0
O227 O -0.02274 0.79056 0.7963 0.0
O228 O 0.17047 0.02035 0.82608 0.0
O229 O 0.16981 0.97503 0.7836 0.0
O230 O 0.17776 0.88441 0.83306 0.0
O231 O 0.08771 0.82353 0.82102 0.0
H232 H 0.88555 0.57563 0.88867 0.0
H233 H 0.84543 0.72072 0.87229 0.0
H234 H 0.75307 0.66614 0.90267 0.0
H235 H 0.79187 0.51934 0.91859 0.0
H236 H 0.27181 -0.0175 0.81333 0.0
H237 H 0.26881 0.14403 0.78265 0.0
H238 H 0.3775 0.19437 0.77166 0.0
H239 H 0.38066 0.03253 0.80246 0.0
H240 H 0.06512 0.24436 0.16351 0.0
H241 H 0.95494 0.06067 1.13043 0.0
H242 H 0.02972 0.07729 1.09179 0.0
H243 H 0.1981 0.30751 1.09491 0.0
H244 H 0.24942 0.33878 1.12676 0.0
H245 H 0.17892 0.33876 1.12725 0.0
H246 H 0.16476 0.28707 0.18066 0.0
H247 H 0.23111 0.28064 0.17616 0.0
H248 H 0.1586 0.21256 0.18321 0.0
H249 H 0.11978 0.09481 1.06844 0.0
H250 H 0.17035 0.04966 1.09686 0.0
H251 H 0.24751 0.2043 1.15767 0.0
C252 C 0.05718 0.20894 1.1472 0.0
C253 C 0.0021 0.15338 1.1476 0.0
C254 C -0.00571 0.1056 1.12838 0.0
C255 C 0.03726 0.11528 1.10618 0.0
C256 C 0.09315 0.16973 1.10665 0.0
C257 C 0.10426 0.21426 1.12842 0.0
C258 C 0.17075 0.2493 1.13625 0.0
C259 C 0.20105 0.31218 1.1202 0.0
C260 C 0.18179 0.2576 0.17113 0.0
C261 C 0.19054 0.20708 1.12178 0.0
C262 C 0.1495 0.17137 1.09924 0.0
C263 C 0.15014 0.12062 1.08681 0.0
C264 C 0.17792 0.09439 1.1034 0.0
C265 C 0.20895 0.12259 1.13029 0.0
C266 C 0.22185 0.18241 1.13734 0.0
H267 H 0.90634 0.05029 0.55004 0.0
H268 H 0.84403 0.02421 0.45658 0.0
H269 H 0.9434 0.10958 0.43988 0.0
H270 H 0.01785 0.22884 0.54177 0.0
H271 H 0.06759 0.22067 0.56821 0.0
H272 H -0.01333 0.17348 0.57253 0.0
H273 H 0.00107 0.07812 0.57198 0.0
H274 H 0.08106 0.12542 0.56581 0.0
H275 H 0.03633 0.06538 0.53916 0.0
H276 H 0.05534 0.16845 0.43215 0.0
H277 H 0.16721 0.21368 0.4354 0.0
H278 H 0.15486 0.20856 0.53408 0.0
C279 C 0.91281 0.06537 0.52641 0.0
C280 C 0.86866 0.03148 0.50454 0.0
C281 C 0.87777 0.05057 0.47362 0.0
C282 C 0.93407 0.09885 0.46395 0.0
C283 C -0.02088 0.12841 0.48581 0.0
C284 C -0.03187 0.11415 0.51666 0.0
C285 C 0.02552 0.14654 0.53513 0.0
C286 C 0.02432 0.19534 0.55559 0.0
C287 C 0.03656 0.10111 0.55407 0.0
C288 C 0.07129 0.17558 0.50961 0.0
C289 C 0.0439 0.16561 0.4813 0.0
C290 C 0.0774 0.17896 0.45417 0.0
C291 C 0.1404 0.20351 0.45613 0.0
C292 C 0.1683 0.21436 0.48497 0.0
C293 C 0.13378 0.20148 0.51186 0.0
H294 H 0.88827 0.91832 0.83509 0.0
H295 H 0.06814 -0.02246 0.80176 0.0
H296 H 0.05562 0.0331 0.76041 0.0
H297 H 0.83868 -0.00598 0.76218 0.0
H298 H 0.81319 0.02908 0.78984 0.0
H299 H 0.7984 0.95176 0.79585 0.0
H300 H 0.84744 -0.01859 0.8483 0.0
H301 H 0.86346 0.05859 0.84295 0.0
H302 H 0.9243 0.04375 0.85204 0.0
H303 H 0.0467 0.11045 0.73541 0.0
H304 H 0.10226 0.20615 0.76338 0.0
H305 H 0.95266 0.14621 0.82669 0.0
C306 C 0.92363 0.94215 0.81815 0.0
C307 C -0.02339 0.93782 0.81912 0.0
C308 C 0.02458 0.97394 0.79913 0.0
C309 C 0.01732 0.00629 0.77542 0.0
C310 C -0.03365 0.01355 0.77545 0.0
C311 C 0.92151 -0.01538 0.79785 0.0
C312 C 0.89232 0.02303 0.8045 0.0
C313 C 0.83215 -0.00201 0.78703 0.0
C314 C 0.88148 0.02703 0.83901 0.0
C315 C 0.94007 0.08329 0.79015 0.0
C316 C -0.02869 0.07188 0.76726 0.0
C317 C 0.02441 0.11932 0.7542 0.0
C318 C 0.05655 0.17312 0.77061 0.0
C319 C 0.03212 0.18064 0.79794 0.0
C320 C -0.02867 0.13913 0.80589 0.0
H321 H 0.48262 0.51756 1.07708 0.0
H322 H 0.31116 0.45104 1.12365 0.0
H323 H 0.28603 0.51317 1.08985 0.0
H324 H 0.48791 0.6768 1.04487 0.0
H325 H 0.5262 0.66904 1.01194 0.0
H326 H 0.54216 0.65153 1.04972 0.0
H327 H 0.51763 0.54452 1.02802 0.0
H328 H 0.4979 0.56235 0.99191 0.0
H329 H 0.4431 0.49494 1.01261 0.0
H330 H 0.2595 0.53584 1.04111 0.0
H331 H 0.2377 0.52037 0.98655 0.0
H332 H 0.42624 0.57877 0.96774 0.0
C333 C 0.44214 0.52036 1.08139 0.0
C334 C 0.39874 0.48003 1.10262 0.0
C335 C 0.34495 0.48213 1.10747 0.0
C336 C 0.33054 0.51763 1.08834 0.0
C337 C 0.37074 0.55121 1.06473 0.0
C338 C 0.42698 0.55507 1.06192 0.0
C339 C 0.45551 0.58164 1.03105 0.0
C340 C 0.50594 0.64874 1.03456 0.0
C341 C 0.47974 0.54346 1.01499 0.0
C342 C 0.40148 0.57848 1.01484 0.0
C343 C 0.35473 0.56554 1.03523 0.0
C344 C 0.29644 0.54843 1.0251 0.0
C345 C 0.28434 0.53964 0.99381 0.0
C346 C 0.33029 0.54767 0.97287 0.0
C347 C 0.39034 0.57192 0.98339 0.0
H348 H 0.00043 0.30312 0.44038 0.0
H349 H 0.08271 0.4967 0.41786 0.0
H350 H -0.00555 0.47504 0.38658 0.0
H351 H -0.03425 0.25608 0.37 0.0
H352 H 0.89489 0.1866 0.37711 0.0
H353 H 0.95072 0.21771 0.40659 0.0
H354 H 0.87259 0.22129 0.44322 0.0
H355 H 0.81585 0.18944 0.41376 0.0
H356 H 0.83281 0.26059 0.43168 0.0
H357 H 0.91538 0.43213 0.34752 0.0
H358 H 0.85674 0.37234 0.30329 0.0
H359 H 0.82539 0.20499 0.34828 0.0
C360 C -0.00091 0.34124 0.4296 0.0
C361 C 0.0488 0.4016 0.43164 0.0
C362 C 0.04498 0.45016 0.41728 0.0
C363 C -0.00522 0.43824 0.39934 0.0
C364 C 0.94853 0.37762 0.39602 0.0
C365 C 0.94996 0.32982 0.41103 0.0
C366 C 0.90185 0.26824 0.39899 0.0
C367 C 0.93005 0.23003 0.38748 0.0
C368 C 0.85285 0.23282 0.42337 0.0
C369 C 0.87696 0.28901 0.37303 0.0
C370 C 0.90265 0.35215 0.37251 0.0
C371 C 0.89344 0.38259 0.3482 0.0
C372 C 0.8598 0.34814 0.32313 0.0
C373 C 0.83647 0.28398 0.32238 0.0
C374 C 0.8425 0.25397 0.34837 0.0
H375 H 0.74747 0.13279 0.67844 0.0
H376 H 0.65852 0.03092 0.76085 0.0
H377 H 0.58263 0.94566 0.72967 0.0
H378 H 0.60428 0.07284 0.63053 0.0
H379 H 0.64477 0.07138 0.59702 0.0
H380 H 0.68357 0.12861 0.6259 0.0
H381 H 0.76403 0.09409 0.63036 0.0
H382 H 0.72519 0.03707 0.60172 0.0
H383 H 0.73935 0.01473 0.63861 0.0
H384 H 0.53283 0.86416 0.69052 0.0
H385 H 0.51074 0.79529 0.64628 0.0
H386 H 0.62574 0.9519 0.589 0.0
C387 C 0.71098 0.0931 0.6898 0.0
C388 C 0.70856 0.08816 0.72191 0.0
C389 C 0.66061 0.03563 0.7362 0.0
C390 C 0.61728 -0.01287 0.71869 0.0
C391 C 0.62181 -0.00743 0.68696 0.0
C392 C 0.66688 0.04476 0.67264 0.0
C393 C 0.66589 0.03674 0.63841 0.0
C394 C 0.64857 0.07995 0.62201 0.0
C395 C 0.72721 0.04616 0.62662 0.0
C396 C 0.61598 0.97055 0.63588 0.0
C397 C 0.59038 0.94601 0.66407 0.0
C398 C 0.55059 0.88324 0.66814 0.0
C399 C 0.5382 0.84444 0.64298 0.0
C400 C 0.56504 0.86886 0.61423 0.0
C401 C 0.60251 0.93274 0.61048 0.0
H402 H 0.78546 0.65643 1.07964 0.0
H403 H 0.65978 0.7198 1.05816 0.0
H404 H 0.61856 0.64609 1.01624 0.0
H405 H 0.83447 0.66562 1.01269 0.0
H406 H 0.8444 0.59945 1.01197 0.0
H407 H 0.84411 0.63317 1.04765 0.0
H408 H 0.75662 0.52863 1.06697 0.0
H409 H 0.75655 0.49445 1.03082 0.0
H410 H 0.68756 0.48895 1.0453 0.0
H411 H 0.61404 0.59537 0.96879 0.0
H412 H 0.65522 0.5838 0.91993 0.0
H413 H 0.78667 0.55506 0.96899 0.0
C414 C 0.74703 0.65225 1.06703 0.0
C415 C 0.72583 0.69365 1.07219 0.0
C416 C 0.67601 0.68771 1.05515 0.0
C417 C 0.65195 0.64554 1.03126 0.0
C418 C 0.67733 0.6088 1.02492 0.0
C419 C 0.72346 0.61111 1.0427 0.0
C420 C 0.75361 0.57963 1.02702 0.0
C421 C 0.82314 0.62205 1.02466 0.0
C422 C 0.73759 0.51932 1.04351 0.0
C423 C 0.72319 0.56714 0.9961 0.0
C424 C 0.67664 0.58062 0.99596 0.0
C425 C 0.64919 0.58306 0.9688 0.0
C426 C 0.67303 0.57667 0.94104 0.0
C427 C 0.72453 0.56907 0.94067 0.0
C428 C 0.74646 0.55942 0.96856 0.0
H429 H 0.0859 0.7931 0.42887 0.0
H430 H 0.24953 0.94681 0.46445 0.0
H431 H 0.31111 0.92076 0.43113 0.0
H432 H 0.16046 0.69424 0.40224 0.0
H433 H 0.11368 0.67277 0.36863 0.0
H434 H 0.08433 0.68175 0.40462 0.0
H435 H 0.05852 0.75919 0.37933 0.0
H436 H 0.08701 0.74993 0.34372 0.0
H437 H 0.11766 0.82557 0.35975 0.0
H438 H 0.35179 0.90411 0.38436 0.0
H439 H 0.3647 0.90778 0.32862 0.0
H440 H 0.17525 0.77054 0.31898 0.0
C441 C 0.13486 0.81973 0.43034 0.0
C442 C 0.16293 0.87224 0.44889 0.0
C443 C 0.22693 0.90595 0.45062 0.0
C444 C 0.26235 0.89117 0.43177 0.0
C445 C 0.23317 0.84247 0.41143 0.0
C446 C 0.17047 0.80656 0.41092 0.0
C447 C 0.14911 0.76812 0.38229 0.0
C448 C 0.12554 0.7002 0.38991 0.0
C449 C 0.10039 0.77639 0.36529 0.0
C450 C 0.20839 0.79513 0.3647 0.0
C451 C 0.25695 0.83441 0.38275 0.0
C452 C 0.31444 0.87247 0.37025 0.0
C453 C 0.32132 0.87466 0.33846 0.0
C454 C 0.27054 0.84031 0.31951 0.0
C455 C 0.21498 0.79654 0.33294 0.0
H456 H 0.42024 0.05457 0.74845 0.0
H457 H 0.4863 0.23365 0.78795 0.0
H458 H 0.56397 0.27934 0.74759 0.0
H459 H 0.57943 0.09822 0.70377 0.0
H460 H 0.53282 0.049 0.67357 0.0
H461 H 0.51058 0.02802 0.71288 0.0
H462 H 0.4063 0.0174 0.6999 0.0
H463 H 0.42975 0.04049 0.66144 0.0
H464 H 0.40377 0.08263 0.6842 0.0
H465 H 0.59941 0.30969 0.69602 0.0
H466 H 0.58466 0.32051 0.64143 0.0
H467 H 0.49306 0.12335 0.63167 0.0
C468 C 0.45407 0.10269 0.74968 0.0
C469 C 0.44748 0.14066 0.77111 0.0
C470 C 0.49079 0.20381 0.7717 0.0
C471 C 0.5354 0.23001 0.74886 0.0
C472 C 0.53622 0.19245 0.72565 0.0
C473 C 0.49762 0.12939 0.72639 0.0
C474 C 0.49567 0.10122 0.69554 0.0
C475 C 0.53183 0.06719 0.69651 0.0
C476 C 0.43002 0.05814 0.68467 0.0
C477 C 0.5285 0.15887 0.67616 0.0
C478 C 0.55598 0.21076 0.69426 0.0
C479 C 0.57956 0.26946 0.6817 0.0
C480 C 0.57037 0.27523 0.65063 0.0
C481 C 0.53669 0.22255 0.63255 0.0
C482 C 0.51978 0.16426 0.64495 0.0
H483 H 0.53083 0.14795 1.15376 0.0
H484 H 0.38593 -0.01581 0.1963 0.0
H485 H 0.45094 0.9363 0.1957 0.0
H486 H 0.57865 0.07115 1.10305 0.0
H487 H 0.65776 0.12863 1.10544 0.0
H488 H 0.60041 0.14975 1.1109 0.0
H489 H 0.64493 0.19552 0.16417 0.0
H490 H 0.70324 0.17614 1.15796 0.0
H491 H 0.65627 0.14884 0.19181 0.0
H492 H 0.53533 0.90841 0.19026 0.0
H493 H 0.62935 0.90363 0.18011 0.0
H494 H 0.71144 0.08452 1.13841 0.0
C495 C 0.51308 0.10232 0.16334 0.0
C496 C 0.45388 0.06943 0.17511 0.0
C497 C 0.43131 0.00947 0.18691 0.0
C498 C 0.46792 -0.01777 0.18677 0.0
C499 C 0.52622 0.01573 0.1744 0.0
C500 C 0.54829 0.07444 0.16284 0.0
C501 C 0.61111 0.10059 1.14974 0.0
C502 C 0.61198 0.11323 1.11524 0.0
C503 C 0.65655 0.15866 0.16698 0.0
C504 C 0.62158 0.0478 1.15598 0.0
C505 C 0.57266 -0.00085 0.17032 0.0
C506 C 0.5738 0.94617 0.17891 0.0
C507 C 0.62696 0.94367 0.17302 0.0
C508 C 0.6772 -0.00621 1.15864 0.0
C509 C 0.67367 0.04555 1.14955 0.0
H510 H 0.51937 0.49625 0.5517 0.0
H511 H 0.50856 0.4191 0.46212 0.0
H512 H 0.61654 0.49429 0.45286 0.0
H513 H 0.60276 0.64273 0.53526 0.0
H514 H 0.65245 0.66771 0.56797 0.0
H515 H 0.579 0.60033 0.57072 0.0
H516 H 0.62766 0.53647 0.58782 0.0
H517 H 0.70157 0.60443 0.58578 0.0
H518 H 0.68686 0.53681 0.56493 0.0
H519 H 0.71428 0.59217 0.44826 0.0
H520 H 0.80045 0.69838 0.45144 0.0
H521 H 0.75495 0.70742 0.54588 0.0
C522 C 0.54069 0.49381 0.53071 0.0
C523 C 0.506 0.45215 0.50763 0.0
C524 C 0.53463 0.45037 0.4802 0.0
C525 C 0.59597 0.49292 0.47475 0.0
C526 C 0.6285 0.53538 0.49741 0.0
C527 C 0.60253 0.53474 0.52533 0.0
C528 C 0.64629 0.58806 0.54491 0.0
C529 C 0.61841 0.62704 0.55525 0.0
C530 C 0.66682 0.56505 0.57249 0.0
C531 C 0.6982 0.62235 0.52244 0.0
C532 C 0.68751 0.59044 0.49537 0.0
C533 C 0.72454 0.61644 0.46971 0.0
C534 C 0.77321 0.6767 0.47164 0.0
C535 C 0.78491 0.70977 0.49911 0.0
C536 C 0.74794 0.68186 0.52501 0.0
H537 H 0.01829 0.48 0.86571 0.0
H538 H 0.18788 0.50698 0.82817 0.0
H539 H 0.23007 0.61936 0.82943 0.0
H540 H 0.01113 0.58185 0.81842 0.0
H541 H -0.02417 0.60914 0.84494 0.0
H542 H -0.03524 0.53334 0.84937 0.0
H543 H 0.00541 0.55766 0.90472 0.0
H544 H 0.01572 0.63363 0.90074 0.0
H545 H 0.07861 0.62385 0.91188 0.0
H546 H 0.24828 0.72769 0.82846 0.0
H547 H 0.23818 0.82025 0.82183 0.0
H548 H 0.05303 0.71849 0.85476 0.0
C549 C 0.06506 0.50958 0.85876 0.0
C550 C 0.10029 0.48518 0.84728 0.0
C551 C 0.16064 0.52507 0.83754 0.0
C552 C 0.18491 0.58886 0.83823 0.0
C553 C 0.14787 0.61147 0.8485 0.0
C554 C 0.0891 0.57281 0.85856 0.0
C555 C 0.0548 0.60676 0.86338 0.0
C556 C -0.00163 0.58127 0.84279 0.0
C557 C 0.03766 0.6054 0.8972 0.0
C558 C 0.10267 0.67024 0.85346 0.0
C559 C 0.15666 0.67271 0.84582 0.0
C560 C 0.20643 0.72638 0.8347 0.0
C561 C 0.20033 0.77848 0.83093 0.0
C562 C 0.14439 0.77539 0.83743 0.0
C563 C 0.09566 0.72119 0.84927 0.0
H564 H 0.3306 0.10964 0.28283 0.0
H565 H 0.32253 0.25337 0.23134 0.0
H566 H 0.3237 0.30439 0.27924 0.0
H567 H 0.23615 0.10515 0.3471 0.0
H568 H 0.28056 0.09413 0.37582 0.0
H569 H 0.2779 0.06687 0.33753 0.0
H570 H 0.39491 0.1295 0.33415 0.0
H571 H 0.39798 0.157 0.37242 0.0
H572 H 0.43353 0.2108 0.34137 0.0
H573 H 0.32366 0.34066 0.33266 0.0
H574 H 0.32727 0.36188 0.3877 0.0
H575 H 0.34019 0.19953 0.40747 0.0
C576 C 0.32896 0.15178 0.28164 0.0
C577 C 0.32642 0.17701 0.25271 0.0
C578 C 0.32472 0.23261 0.25268 0.0
C579 C 0.32521 0.26217 0.27999 0.0
C580 C 0.32793 0.23655 0.30787 0.0
C581 C 0.33018 0.1828 0.30905 0.0
C582 C 0.33432 0.16644 0.34243 0.0
C583 C 0.27893 0.10446 0.35124 0.0
C584 C 0.39373 0.16591 0.34791 0.0
C585 C 0.33394 0.21924 0.35961 0.0
C586 C 0.32972 0.25872 0.33901 0.0
C587 C 0.32729 0.31013 0.34893 0.0
C588 C 0.32931 0.32183 0.38049 0.0
C589 C 0.33442 0.28301 0.40248 0.0
C590 C 0.33686 0.23079 0.39156 0.0
H591 H 0.32593 0.33931 0.62346 0.0
H592 H 0.17352 0.30445 0.56587 0.0
H593 H 0.11404 0.29928 0.61115 0.0
H594 H 0.23493 0.24202 0.6891 0.0
H595 H 0.28358 0.29476 0.71772 0.0
H596 H 0.31453 0.29179 0.68107 0.0
H597 H 0.35605 0.40805 0.6736 0.0
H598 H 0.32494 0.41125 0.71015 0.0
H599 H 0.3048 0.43788 0.67625 0.0
H600 H 0.06867 0.29806 0.66223 0.0
H601 H 0.04276 0.3053 0.71576 0.0
H602 H 0.22303 0.34663 0.74337 0.0
C603 C 0.2797 0.32948 0.62046 0.0
C604 C 0.25465 0.32141 0.59048 0.0
C605 C 0.19425 0.3103 0.5881 0.0
C606 C 0.1597 0.30726 0.61388 0.0
C607 C 0.18543 0.31605 0.64277 0.0
C608 C 0.24413 0.32723 0.64643 0.0
C609 C 0.26076 0.33788 0.68043 0.0
C610 C 0.27427 0.28869 0.69281 0.0
C611 C 0.31487 0.40262 0.6854 0.0
C612 C 0.20258 0.33116 0.69493 0.0
C613 C 0.1597 0.31794 0.67259 0.0
C614 C 0.10213 0.30869 0.67988 0.0
C615 C 0.08772 0.31299 0.7106 0.0
C616 C 0.1305 0.32723 0.73434 0.0
C617 C 0.18905 0.33643 0.72605 0.0
H618 H 0.05589 0.23683 0.94106 0.0
H619 H 0.93827 0.30876 0.91647 0.0
H620 H 0.88915 0.27915 0.96729 0.0
H621 H 0.94031 0.10421 0.9812 0.0
H622 H -0.01029 0.1039 1.01058 0.0
H623 H 0.02009 0.13555 0.97339 0.0
H624 H 0.09789 0.23797 0.99825 0.0
H625 H 0.06766 0.20642 1.0355 0.0
H626 H 0.07146 0.27671 1.02315 0.0
H627 H 0.8513 0.2412 1.02155 0.0
H628 H 0.82351 0.19159 1.07258 0.0
H629 H 0.95832 0.13535 1.06197 0.0
C630 C 0.02058 0.24735 0.94664 0.0
C631 C 0.00187 0.27641 0.92459 0.0
C632 C 0.95405 0.28731 0.93275 0.0
C633 C 0.92575 0.27058 0.96173 0.0
C634 C 0.9445 0.24154 0.98275 0.0
C635 C -0.00946 0.22945 0.97555 0.0
C636 C -0.00108 0.19395 1.00182 0.0
C637 C -0.01349 0.13064 0.9911 0.0
C638 C 0.06278 0.23097 1.01548 0.0
C639 C 0.95046 0.18789 1.02465 0.0
C640 C 0.92029 0.21659 1.01334 0.0
C641 C 0.87458 0.21837 1.03046 0.0
C642 C 0.85904 0.19001 1.05962 0.0
C643 C 0.888 0.15881 1.07165 0.0
C644 C 0.93456 0.15812 1.05362 0.0
H645 H 0.79697 0.03759 0.27854 0.0
H646 H 0.89297 0.95198 0.23897 0.0
H647 H 0.8989 0.91286 0.28963 0.0
H648 H 0.8788 0.08049 0.35109 0.0
H649 H 0.813 0.06301 0.37396 0.0
H650 H 0.81703 0.08646 0.33464 0.0
H651 H 0.71542 -0.01229 0.32383 0.0
H652 H 0.71116 0.9639 0.3631 0.0
H653 H 0.70758 0.91404 0.33276 0.0
H654 H 0.89796 0.88419 0.34498 0.0
H655 H 0.88495 0.86383 0.40064 0.0
H656 H 0.78429 0.96061 0.40665 0.0
C657 C 0.81933 0.0107 0.28052 0.0
C658 C 0.84454 -0.00171 0.25411 0.0
C659 C 0.873 0.96246 0.25825 0.0
C660 C 0.87681 0.9399 0.28719 0.0
C661 C 0.85151 0.95255 0.31251 0.0
C662 C 0.82292 -0.01321 0.30958 0.0
C663 C 0.79843 -0.00792 0.3408 0.0
C664 C 0.8286 0.0595 0.3507 0.0
C665 C 0.72901 0.96268 0.34007 0.0
C666 C 0.81763 0.95544 0.3615 0.0
C667 C 0.8488 0.93372 0.34455 0.0
C668 C 0.87302 0.90046 0.35834 0.0
C669 C 0.86532 0.88892 0.39007 0.0
C670 C 0.83267 0.90932 0.40814 0.0
C671 C 0.80846 0.94319 0.39348 0.0
H672 H 0.93152 0.93537 0.61038 0.0
H673 H 0.76637 0.75874 0.60635 0.0
H674 H 0.78962 0.73218 0.65733 0.0
H675 H 0.02467 0.88567 0.64566 0.0
H676 H 0.06487 0.95195 0.66963 0.0
H677 H 0.03363 0.95853 0.63387 0.0
H678 H -0.02679 0.00154 0.66196 0.0
H679 H 0.00488 -0.00429 0.69777 0.0
H680 H 0.92378 0.95868 0.69333 0.0
H681 H 0.83538 0.72298 0.70888 0.0
H682 H 0.8941 0.73418 0.75572 0.0
H683 H 0.02937 0.91756 0.72665 0.0
C684 C 0.89956 0.89131 0.62032 0.0
C685 C 0.84655 0.84931 0.60395 0.0
C686 C 0.80673 0.79217 0.61815 0.0
C687 C 0.8199 0.77655 0.6472 0.0
C688 C 0.87303 0.81856 0.66233 0.0
C689 C 0.91178 0.87525 0.64945 0.0
C690 C -0.03385 0.9122 0.67023 0.0
C691 C 0.02586 0.92801 0.65387 0.0
C692 C -0.03295 0.97048 0.68148 0.0
C693 C 0.95296 0.86716 0.69653 0.0
C694 C 0.89888 0.81345 0.69163 0.0
C695 C 0.87758 0.76508 0.71277 0.0
C696 C 0.91164 0.77183 0.73946 0.0
C697 C -0.03284 0.82655 0.74532 0.0
C698 C -0.01235 0.87472 0.72318 0.0
H699 H 0.17584 0.00809 0.92502 0.0
H700 H 0.10471 0.81245 0.93678 0.0
H701 H 0.14397 0.82992 0.98926 0.0
H702 H 0.31339 0.05967 0.97017 0.0
H703 H 0.31037 0.12291 0.98755 0.0
H704 H 0.27816 0.09659 0.95027 0.0
H705 H 0.17512 0.08094 0.96959 0.0
H706 H 0.20708 0.1073 1.00691 0.0
H707 H 0.13983 0.0334 1.00279 0.0
H708 H 0.19031 0.8667 1.04081 0.0
H709 H 0.23658 0.91942 1.0887 0.0
H710 H 0.27812 0.09341 1.04726 0.0
C711 C 0.16879 0.96894 0.93859 0.0
C712 C 0.13688 0.90849 0.92616 0.0
C713 C 0.12849 0.859 0.94522 0.0
C714 C 0.15093 0.86853 0.97528 0.0
C715 C 0.18176 0.92806 0.98678 0.0
C716 C 0.19047 -0.02238 0.96921 0.0
C717 C 0.22381 0.0366 0.988 0.0
C718 C 0.28508 0.08162 0.9731 0.0
C719 C 0.1841 0.06632 0.99205 0.0
C720 C 0.23285 0.01237 1.01861 0.0
C721 C 0.20811 0.9495 1.0171 0.0
C722 C 0.20975 0.91592 1.04216 0.0
C723 C 0.23645 0.94667 1.0695 0.0
C724 C 0.26182 0.01112 1.07235 0.0
C725 C 0.26013 0.04436 1.04613 0.0
loop_
_geom_bond_atom_site_label_1
_geom_bond_atom_site_label_2
_geom_bond_distance
_geom_bond_site_symmetry_2
_ccdc_geom_bond_type
Gd0 C3 2.818 . S
Gd0 O20 2.377 . S
Gd0 O22 2.448 . S
Gd0 O23 2.506 . S
Gd0 O24 2.435 . S
Gd0 O25 2.717 . S
Gd0 O27 2.395 1_554 S
Gd0 O31 2.327 . S
Gd1 C12 2.818 . S
Gd1 O21 2.395 1_556 S
Gd1 O25 2.327 1_556 S
Gd1 O26 2.377 . S
Gd1 O28 2.448 . S
Gd1 O29 2.506 . S
Gd1 O30 2.435 . S
Gd1 O31 2.717 1_556 S
C2 O20 1.240 . S
C2 O21 1.240 . S
C3 Gd0 2.818 . S
C3 C4 1.510 . S
C3 O22 1.249 . S
C3 O23 1.252 . S
C4 C3 1.510 . S
C4 C5 1.404 . S
C4 C6 1.352 . S
C5 C4 1.404 . S
C5 C9 1.389 . S
C5 H32 0.930 . S
C6 C4 1.352 . S
C6 C8 1.374 . S
C6 H33 0.931 . S
C7 C8 1.359 . S
C7 C9 1.364 . S
C8 C6 1.374 . S
C8 C7 1.359 . S
C8 H34 0.931 . S
C9 C5 1.389 . S
C9 C7 1.364 . S
C9 H35 0.931 1_545 S
C10 O24 1.256 . S
C10 O25 1.257 . S
C11 O26 1.240 . S
C11 O27 1.240 . S
C12 Gd1 2.818 . S
C12 C13 1.510 . S
C12 O28 1.249 . S
C12 O29 1.252 . S
C13 C12 1.510 . S
C13 C14 1.404 . S
C13 C15 1.352 . S
C14 C13 1.404 . S
C14 C18 1.389 . S
C14 H36 0.930 . S
C15 C13 1.352 . S
C15 C17 1.374 . S
C15 H37 0.931 . S
C16 C17 1.359 . S
C16 C18 1.364 . S
C17 C15 1.374 . S
C17 C16 1.359 . S
C17 H38 0.931 . S
C18 C14 1.389 . S
C18 C16 1.364 . S
C18 H39 0.931 . S
C19 O30 1.256 1_554 S
C19 O31 1.257 . S
O20 Gd0 2.377 . S
O20 C2 1.240 . S
O21 Gd1 2.395 1_554 S
O21 C2 1.240 . S
O22 Gd0 2.448 . S
O22 C3 1.249 . S
O23 Gd0 2.506 . S
O23 C3 1.252 . S
O24 Gd0 2.435 . S
O24 C10 1.256 . S
O25 Gd0 2.717 . S
O25 Gd1 2.327 1_554 S
O25 C10 1.257 . S
O26 Gd1 2.377 . S
O26 C11 1.240 . S
O27 Gd0 2.395 1_556 S
O27 C11 1.240 . S
O28 Gd1 2.448 . S
O28 C12 1.249 . S
O29 Gd1 2.506 . S
O29 C12 1.252 . S
O30 Gd1 2.435 . S
O30 C19 1.256 1_556 S
O31 Gd0 2.327 . S
O31 Gd1 2.717 1_554 S
O31 C19 1.257 . S
H32 C5 0.930 . S
H33 C6 0.931 . S
H34 C8 0.931 . S
H35 C9 0.931 1_565 S
H36 C14 0.930 . S
H37 C15 0.931 . S
H38 C17 0.931 . S
H39 C18 0.931 . S
Gd40 C43 2.818 . S
Gd40 O60 2.377 . S
Gd40 O62 2.448 . S
Gd40 O63 2.506 . S
Gd40 O64 2.435 . S
Gd40 O65 2.717 . S
Gd40 O67 2.395 . S
Gd40 O71 2.327 . S
Gd41 C52 2.818 . S
Gd41 O61 2.395 . S
Gd41 O65 2.327 . S
Gd41 O66 2.377 . S
Gd41 O68 2.448 . S
Gd41 O69 2.506 . S
Gd41 O70 2.435 . S
Gd41 O71 2.717 . S
C42 O60 1.240 . S
C42 O61 1.240 . S
C43 Gd40 2.818 . S
C43 C44 1.510 . S
C43 O62 1.249 . S
C43 O63 1.252 . S
C44 C43 1.510 . S
C44 C45 1.404 . S
C44 C46 1.352 . S
C45 C44 1.404 . S
C45 C49 1.389 . S
C45 H72 0.930 . S
C46 C44 1.352 . S
C46 C48 1.374 . S
C46 H73 0.931 . S
C47 C48 1.359 . S
C47 C49 1.364 . S
C48 C46 1.374 . S
C48 C47 1.359 . S
C48 H74 0.931 . S
C49 C45 1.389 . S
C49 C47 1.364 . S
C49 H75 0.931 . S
C50 O64 1.256 . S
C50 O65 1.257 . S
C51 O66 1.240 . S
C51 O67 1.240 . S
C52 Gd41 2.818 . S
C52 C53 1.510 . S
C52 O68 1.249 . S
C52 O69 1.252 . S
C53 C52 1.510 . S
C53 C54 1.404 . S
C53 C55 1.352 . S
C54 C53 1.404 . S
C54 C58 1.389 . S
C54 H76 0.930 . S
C55 C53 1.352 . S
C55 C57 1.374 . S
C55 H77 0.931 . S
C56 C57 1.359 . S
C56 C58 1.364 . S
C57 C55 1.374 . S
C57 C56 1.359 . S
C57 H78 0.931 . S
C58 C54 1.389 . S
C58 C56 1.364 . S
C58 H79 0.931 . S
C59 O70 1.256 . S
C59 O71 1.257 . S
O60 Gd40 2.377 . S
O60 C42 1.240 . S
O61 Gd41 2.395 . S
O61 C42 1.240 . S
O62 Gd40 2.448 . S
O62 C43 1.249 . S
O63 Gd40 2.506 . S
O63 C43 1.252 . S
O64 Gd40 2.435 . S
O64 C50 1.256 . S
O65 Gd40 2.717 . S
O65 Gd41 2.327 . S
O65 C50 1.257 . S
O66 Gd41 2.377 . S
O66 C51 1.240 . S
O67 Gd40 2.395 . S
O67 C51 1.240 . S
O68 Gd41 2.448 . S
O68 C52 1.249 . S
O69 Gd41 2.506 . S
O69 C52 1.252 . S
O70 Gd41 2.435 . S
O70 C59 1.256 . S
O71 Gd40 2.327 . S
O71 Gd41 2.717 . S
O71 C59 1.257 . S
H72 C45 0.930 . S
H73 C46 0.931 . S
H74 C48 0.931 . S
H75 C49 0.931 . S
H76 C54 0.930 . S
H77 C55 0.931 . S
H78 C57 0.931 . S
H79 C58 0.931 . S
Gd80 C83 2.818 . S
Gd80 O100 2.377 1_455 S
Gd80 O102 2.448 . S
Gd80 O103 2.506 . S
Gd80 O104 2.435 . S
Gd80 O105 2.717 1_455 S
Gd80 O107 2.395 . S
Gd80 O111 2.327 . S
Gd81 C92 2.818 . S
Gd81 O101 2.395 . S
Gd81 O105 2.327 . S
Gd81 O106 2.377 1_655 S
Gd81 O108 2.448 . S
Gd81 O109 2.506 . S
Gd81 O110 2.435 . S
Gd81 O111 2.717 1_655 S
C82 O100 1.240 . S
C82 O101 1.240 . S
C83 Gd80 2.818 . S
C83 C84 1.510 . S
C83 O102 1.249 . S
C83 O103 1.252 . S
C84 C83 1.510 . S
C84 C85 1.404 . S
C84 C86 1.352 . S
C85 C84 1.404 . S
C85 C89 1.389 . S
C85 H112 0.930 . S
C86 C84 1.352 . S
C86 C88 1.374 . S
C86 H113 0.931 . S
C87 C88 1.359 . S
C87 C89 1.364 . S
C88 C86 1.374 . S
C88 C87 1.359 . S
C88 H114 0.931 . S
C89 C85 1.389 . S
C89 C87 1.364 . S
C89 H115 0.931 . S
C90 O104 1.256 . S
C90 O105 1.257 1_455 S
C91 O106 1.240 . S
C91 O107 1.240 . S
C92 Gd81 2.818 . S
C92 C93 1.510 . S
C92 O108 1.249 . S
C92 O109 1.252 . S
C93 C92 1.510 . S
C93 C94 1.404 . S
C93 C95 1.352 . S
C94 C93 1.404 . S
C94 C98 1.389 . S
C94 H116 0.930 . S
C95 C93 1.352 . S
C95 C97 1.374 . S
C95 H117 0.931 . S
C96 C97 1.359 . S
C96 C98 1.364 . S
C97 C95 1.374 . S
C97 C96 1.359 . S
C97 H118 0.931 . S
C98 C94 1.389 . S
C98 C96 1.364 . S
C98 H119 0.931 . S
C99 O110 1.256 . S
C99 O111 1.257 1_655 S
O100 Gd80 2.377 1_655 S
O100 C82 1.240 . S
O101 Gd81 2.395 . S
O101 C82 1.240 . S
O102 Gd80 2.448 . S
O102 C83 1.249 . S
O103 Gd80 2.506 . S
O103 C83 1.252 . S
O104 Gd80 2.435 . S
O104 C90 1.256 . S
O105 Gd80 2.717 1_655 S
O105 Gd81 2.327 . S
O105 C90 1.257 1_655 S
O106 Gd81 2.377 1_455 S
O106 C91 1.240 . S
O107 Gd80 2.395 . S
O107 C91 1.240 . S
O108 Gd81 2.448 . S
O108 C92 1.249 . S
O109 Gd81 2.506 . S
O109 C92 1.252 . S
O110 Gd81 2.435 . S
O110 C99 1.256 . S
O111 Gd80 2.327 . S
O111 Gd81 2.717 1_455 S
O111 C99 1.257 1_455 S
H112 C85 0.930 . S
H113 C86 0.931 . S
H114 C88 0.931 . S
H115 C89 0.931 . S
H116 C94 0.930 . S
H117 C95 0.931 . S
H118 C97 0.931 . S
H119 C98 0.931 . S
Gd120 C123 2.818 . S
Gd120 O140 2.377 . S
Gd120 O142 2.448 . S
Gd120 O143 2.506 . S
Gd120 O144 2.435 . S
Gd120 O145 2.725 . S
Gd120 O147 2.395 1_554 S
Gd120 O151 2.327 . S
Gd121 C132 2.818 . S
Gd121 O141 2.395 1_556 S
Gd121 O145 2.325 1_566 S
Gd121 O146 2.377 1_565 S
Gd121 O148 2.448 . S
Gd121 O149 2.506 . S
Gd121 O150 2.435 . S
Gd121 O151 2.717 1_566 S
C122 O140 1.240 1_565 S
C122 O141 1.240 . S
C123 Gd120 2.818 . S
C123 C124 1.510 . S
C123 O142 1.249 . S
C123 O143 1.252 . S
C124 C123 1.510 . S
C124 C125 1.404 . S
C124 C126 1.352 . S
C125 C124 1.404 . S
C125 C129 1.389 . S
C125 H152 0.930 . S
C126 C124 1.352 . S
C126 C128 1.374 . S
C126 H153 0.931 . S
C127 C128 1.359 . S
C127 C129 1.364 . S
C128 C126 1.374 . S
C128 C127 1.359 . S
C128 H154 0.931 . S
C129 C125 1.389 . S
C129 C127 1.364 . S
C129 H155 0.931 . S
C130 O144 1.256 . S
C130 O145 1.258 . S
C131 O146 1.240 . S
C131 O147 1.240 . S
C132 Gd121 2.818 . S
C132 C133 1.510 . S
C132 O148 1.249 . S
C132 O149 1.252 . S
C133 C132 1.510 . S
C133 C134 1.404 . S
C133 C135 1.352 . S
C134 C133 1.404 . S
C134 C138 1.389 . S
C134 H156 0.930 . S
C135 C133 1.352 . S
C135 C137 1.374 . S
C135 H157 0.931 . S
C136 C137 1.359 . S
C136 C138 1.364 . S
C137 C135 1.374 . S
C137 C136 1.359 . S
C137 H158 0.931 . S
C138 C134 1.389 . S
C138 C136 1.364 . S
C138 H159 0.931 . S
C139 O150 1.256 1_554 S
C139 O151 1.257 1_565 S
O140 Gd120 2.377 . S
O140 C122 1.240 1_545 S
O141 Gd121 2.395 1_554 S
O141 C122 1.240 . S
O142 Gd120 2.448 . S
O142 C123 1.249 . S
O143 Gd120 2.506 . S
O143 C123 1.252 . S
O144 Gd120 2.435 . S
O144 C130 1.256 . S
O145 Gd120 2.725 . S
O145 Gd121 2.325 1_544 S
O145 C130 1.258 . S
O146 Gd121 2.377 1_545 S
O146 C131 1.240 . S
O147 Gd120 2.395 1_556 S
O147 C131 1.240 . S
O148 Gd121 2.448 . S
O148 C132 1.249 . S
O149 Gd121 2.506 . S
O149 C132 1.252 . S
O150 Gd121 2.435 . S
O150 C139 1.256 1_556 S
O151 Gd120 2.327 . S
O151 Gd121 2.717 1_544 S
O151 C139 1.257 1_545 S
H152 C125 0.930 . S
H153 C126 0.931 . S
H154 C128 0.931 . S
H155 C129 0.931 . S
H156 C134 0.930 . S
H157 C135 0.931 . S
H158 C137 0.931 . S
H159 C138 0.931 . S
Gd160 C163 2.818 . S
Gd160 O180 2.377 . S
Gd160 O182 2.448 . S
Gd160 O183 2.506 . S
Gd160 O184 2.435 . S
Gd160 O185 2.717 . S
Gd160 O187 2.395 . S
Gd160 O191 2.327 . S
Gd161 C172 2.818 1_655 S
Gd161 O181 2.395 . S
Gd161 O185 2.327 . S
Gd161 O186 2.377 . S
Gd161 O188 2.448 . S
Gd161 O189 2.506 1_655 S
Gd161 O190 2.435 . S
Gd161 O191 2.717 . S
C162 O180 1.240 . S
C162 O181 1.240 . S
C163 Gd160 2.818 . S
C163 C164 1.510 . S
C163 O182 1.249 . S
C163 O183 1.252 . S
C164 C163 1.510 . S
C164 C165 1.404 . S
C164 C166 1.352 . S
C165 C164 1.404 . S
C165 C169 1.389 . S
C165 H192 0.930 . S
C166 C164 1.352 . S
C166 C168 1.374 . S
C166 H193 0.931 . S
C167 C168 1.359 . S
C167 C169 1.364 . S
C168 C166 1.374 . S
C168 C167 1.359 . S
C168 H194 0.931 . S
C169 C165 1.389 . S
C169 C167 1.364 . S
C169 H195 0.931 . S
C170 O184 1.256 1_455 S
C170 O185 1.257 1_455 S
C171 O186 1.240 . S
C171 O187 1.240 . S
C172 Gd161 2.818 1_455 S
C172 C173 1.510 . S
C172 O188 1.249 1_455 S
C172 O189 1.252 . S
C173 C172 1.510 . S
C173 C174 1.404 . S
C173 C175 1.352 . S
C174 C173 1.404 . S
C174 C178 1.389 . S
C174 H196 0.930 1_455 S
C175 C173 1.352 . S
C175 C177 1.374 . S
C175 H197 0.931 . S
C176 C177 1.359 . S
C176 C178 1.364 . S
C177 C175 1.374 . S
C177 C176 1.359 . S
C177 H198 0.931 . S
C178 C174 1.389 . S
C178 C176 1.364 . S
C178 H199 0.931 . S
C179 O190 1.256 . S
C179 O191 1.257 . S
O180 Gd160 2.377 . S
O180 C162 1.240 . S
O181 Gd161 2.395 . S
O181 C162 1.240 . S
O182 Gd160 2.448 . S
O182 C163 1.249 . S
O183 Gd160 2.506 . S
O183 C163 1.252 . S
O184 Gd160 2.435 . S
O184 C170 1.256 1_655 S
O185 Gd160 2.717 . S
O185 Gd161 2.327 . S
O185 C170 1.257 1_655 S
O186 Gd161 2.377 . S
O186 C171 1.240 . S
O187 Gd160 2.395 . S
O187 C171 1.240 . S
O188 Gd161 2.448 . S
O188 C172 1.249 1_655 S
O189 Gd161 2.506 1_455 S
O189 C172 1.252 . S
O190 Gd161 2.435 . S
O190 C179 1.256 . S
O191 Gd160 2.327 . S
O191 Gd161 2.717 . S
O191 C179 1.257 . S
H192 C165 0.930 . S
H193 C166 0.931 . S
H194 C168 0.931 . S
H195 C169 0.931 . S
H196 C174 0.930 1_655 S
H197 C175 0.931 . S
H198 C177 0.931 . S
H199 C178 0.931 . S
Gd200 C203 2.818 . S
Gd200 O220 2.377 . S
Gd200 O222 2.448 . S
Gd200 O223 2.506 . S
Gd200 O224 2.435 . S
Gd200 O225 2.717 . S
Gd200 O227 2.395 . S
Gd200 O231 2.327 . S
Gd201 C212 2.818 1_565 S
Gd201 O221 2.395 . S
Gd201 O225 2.327 . S
Gd201 O226 2.377 . S
Gd201 O228 2.448 . S
Gd201 O229 2.506 1_565 S
Gd201 O230 2.435 . S
Gd201 O231 2.717 . S
C202 O220 1.240 . S
C202 O221 1.240 . S
C203 Gd200 2.818 . S
C203 C204 1.510 . S
C203 O222 1.249 . S
C203 O223 1.252 . S
C204 C203 1.510 . S
C204 C205 1.404 . S
C204 C206 1.352 . S
C205 C204 1.404 . S
C205 C209 1.389 . S
C205 H232 0.930 . S
C206 C204 1.352 . S
C206 C208 1.374 . S
C206 H233 0.931 . S
C207 C208 1.359 . S
C207 C209 1.364 . S
C208 C206 1.374 . S
C208 C207 1.359 . S
C208 H234 0.931 . S
C209 C205 1.389 . S
C209 C207 1.364 . S
C209 H235 0.931 1_455 S
C210 O224 1.256 1_545 S
C210 O225 1.257 1_545 S
C211 O226 1.240 . S
C211 O227 1.240 . S
C212 Gd201 2.818 1_545 S
C212 C213 1.510 . S
C212 O228 1.249 1_545 S
C212 O229 1.252 . S
C213 C212 1.510 . S
C213 C214 1.404 . S
C213 C215 1.352 . S
C214 C213 1.404 . S
C214 C218 1.389 . S
C214 H236 0.930 1_545 S
C215 C213 1.352 . S
C215 C217 1.374 . S
C215 H237 0.931 . S
C216 C217 1.359 . S
C216 C218 1.364 . S
C217 C215 1.374 . S
C217 C216 1.359 . S
C217 H238 0.931 . S
C218 C214 1.389 . S
C218 C216 1.364 . S
C218 H239 0.931 . S
C219 O230 1.256 . S
C219 O231 1.257 . S
O220 Gd200 2.377 . S
O220 C202 1.240 . S
O221 Gd201 2.395 . S
O221 C202 1.240 . S
O222 Gd200 2.448 . S
O222 C203 1.249 . S
O223 Gd200 2.506 . S
O223 C203 1.252 . S
O224 Gd200 2.435 . S
O224 C210 1.256 1_565 S
O225 Gd200 2.717 . S
O225 Gd201 2.327 . S
O225 C210 1.257 1_565 S
O226 Gd201 2.377 . S
O226 C211 1.240 . S
O227 Gd200 2.395 . S
O227 C211 1.240 . S
O228 Gd201 2.448 . S
O228 C212 1.249 1_565 S
O229 Gd201 2.506 1_545 S
O229 C212 1.252 . S
O230 Gd201 2.435 . S
O230 C219 1.256 . S
O231 Gd200 2.327 . S
O231 Gd201 2.717 . S
O231 C219 1.257 . S
H232 C205 0.930 . S
H233 C206 0.931 . S
H234 C208 0.931 . S
H235 C209 0.931 1_655 S
H236 C214 0.930 1_565 S
H237 C215 0.931 . S
H238 C217 0.931 . S
H239 C218 0.931 . S
H240 C252 0.930 . S
H241 C254 0.925 1_565 S
H242 C255 0.930 . S
H243 C259 0.959 . S
H244 C259 0.959 . S
H245 C259 0.961 . S
H246 C260 0.960 . S
H247 C260 0.961 . S
H248 C260 0.959 . S
H249 C263 0.929 . S
H250 C264 0.931 . S
H251 C266 0.930 . S
C252 H240 0.930 . S
C252 C253 1.399 . S
C252 C257 1.399 1_655 S
C253 C252 1.399 . S
C253 C254 1.382 1_554 S
C254 H241 0.925 1_545 S
C254 C253 1.382 1_556 S
C254 C255 1.389 1_655 S
C255 H242 0.930 . S
C255 C254 1.389 1_455 S
C255 C256 1.390 . S
C256 C255 1.390 . S
C256 C257 1.394 1_556 S
C256 C262 1.465 . S
C257 C252 1.399 1_455 S
C257 C256 1.394 1_554 S
C257 C258 1.516 . S
C258 C257 1.516 . S
C258 C259 1.502 . S
C258 C260 1.561 . S
C258 C261 1.526 . S
C259 H243 0.959 . S
C259 H244 0.959 . S
C259 H245 0.961 . S
C259 C258 1.502 . S
C260 H246 0.960 . S
C260 H247 0.961 . S
C260 H248 0.959 . S
C260 C258 1.561 . S
C261 C258 1.526 . S
C261 C262 1.396 1_554 S
C261 C266 1.390 . S
C262 C256 1.465 . S
C262 C261 1.396 1_556 S
C262 C263 1.399 . S
C263 H249 0.929 . S
C263 C262 1.399 . S
C263 C264 1.385 . S
C264 H250 0.931 . S
C264 C263 1.385 . S
C264 C265 1.389 1_556 S
C265 C264 1.389 1_554 S
C265 C266 1.387 . S
C266 H251 0.930 . S
C266 C261 1.390 . S
C266 C265 1.387 . S
H267 C279 0.930 . S
H268 C281 0.930 . S
H269 C282 0.930 . S
H270 C286 0.959 . S
H271 C286 0.959 . S
H272 C286 0.961 . S
H273 C287 0.960 . S
H274 C287 0.961 . S
H275 C287 0.959 . S
H276 C290 0.929 . S
H277 C291 0.931 . S
H278 C293 0.930 . S
C279 H267 0.930 . S
C279 C280 1.399 . S
C279 C284 1.399 1_565 S
C280 C279 1.399 . S
C280 C281 1.376 . S
C281 H268 0.930 . S
C281 C280 1.376 . S
C281 C282 1.388 1_565 S
C282 H269 0.930 . S
C282 C281 1.388 1_545 S
C282 C283 1.390 . S
C283 C282 1.390 . S
C283 C284 1.394 . S
C283 C289 1.465 . S
C284 C279 1.399 1_545 S
C284 C283 1.394 . S
C284 C285 1.516 . S
C285 C284 1.516 . S
C285 C286 1.502 . S
C285 C287 1.561 . S
C285 C288 1.526 . S
C286 H270 0.959 . S
C286 H271 0.959 . S
C286 H272 0.961 . S
C286 C285 1.502 . S
C287 H273 0.960 . S
C287 H274 0.961 . S
C287 H275 0.959 . S
C287 C285 1.561 . S
C288 C285 1.526 . S
C288 C289 1.396 . S
C288 C293 1.390 . S
C289 C283 1.465 . S
C289 C288 1.396 . S
C289 C290 1.399 . S
C290 H276 0.929 . S
C290 C289 1.399 . S
C290 C291 1.385 . S
C291 H277 0.931 . S
C291 C290 1.385 . S
C291 C292 1.389 . S
C292 C291 1.389 . S
C292 C293 1.387 . S
C293 H278 0.930 . S
C293 C288 1.390 . S
C293 C292 1.387 . S
H294 C306 0.930 . S
H295 C308 0.930 . S
H296 C309 0.930 . S
H297 C313 0.959 . S
H298 C313 0.959 . S
H299 C313 0.961 . S
H300 C314 0.960 . S
H301 C314 0.961 . S
H302 C314 0.959 . S
H303 C317 0.929 . S
H304 C318 0.931 . S
H305 C320 0.930 . S
C306 H294 0.930 . S
C306 C307 1.399 . S
C306 C311 1.399 . S
C307 C306 1.399 . S
C307 C308 1.376 . S
C308 H295 0.930 . S
C308 C307 1.376 . S
C308 C309 1.388 . S
C309 H296 0.930 . S
C309 C308 1.388 . S
C309 C310 1.390 . S
C310 C309 1.390 . S
C310 C311 1.394 . S
C310 C316 1.465 . S
C311 C306 1.399 . S
C311 C310 1.394 . S
C311 C312 1.516 . S
C312 C311 1.516 . S
C312 C313 1.502 . S
C312 C314 1.561 . S
C312 C315 1.526 . S
C313 H297 0.959 . S
C313 H298 0.959 . S
C313 H299 0.961 . S
C313 C312 1.502 . S
C314 H300 0.960 . S
C314 H301 0.961 . S
C314 H302 0.959 . S
C314 C312 1.561 . S
C315 C312 1.526 . S
C315 C316 1.396 . S
C315 C320 1.390 . S
C316 C310 1.465 . S
C316 C315 1.396 . S
C316 C317 1.399 . S
C317 H303 0.929 . S
C317 C316 1.399 . S
C317 C318 1.385 . S
C318 H304 0.931 . S
C318 C317 1.385 . S
C318 C319 1.389 . S
C319 C318 1.389 . S
C319 C320 1.387 . S
C320 H305 0.930 . S
C320 C315 1.390 . S
C320 C319 1.387 . S
H321 C333 0.930 . S
H322 C335 0.930 . S
H323 C336 0.930 . S
H324 C340 0.959 . S
H325 C340 0.959 . S
H326 C340 0.961 . S
H327 C341 0.960 . S
H328 C341 0.961 . S
H329 C341 0.959 . S
H330 C344 0.929 . S
H331 C345 0.931 . S
H332 C347 0.930 . S
C333 H321 0.930 . S
C333 C334 1.399 . S
C333 C338 1.399 . S
C334 C333 1.399 . S
C334 C335 1.376 . S
C335 H322 0.930 . S
C335 C334 1.376 . S
C335 C336 1.388 . S
C336 H323 0.930 . S
C336 C335 1.388 . S
C336 C337 1.390 . S
C337 C336 1.390 . S
C337 C338 1.394 . S
C337 C343 1.465 . S
C338 C333 1.399 . S
C338 C337 1.394 . S
C338 C339 1.516 . S
C339 C338 1.516 . S
C339 C340 1.502 . S
C339 C341 1.561 . S
C339 C342 1.526 . S
C340 H324 0.959 . S
C340 H325 0.959 . S
C340 H326 0.961 . S
C340 C339 1.502 . S
C341 H327 0.960 . S
C341 H328 0.961 . S
C341 H329 0.959 . S
C341 C339 1.561 . S
C342 C339 1.526 . S
C342 C343 1.396 . S
C342 C347 1.390 . S
C343 C337 1.465 . S
C343 C342 1.396 . S
C343 C344 1.399 . S
C344 H330 0.929 . S
C344 C343 1.399 . S
C344 C345 1.385 . S
C345 H331 0.931 . S
C345 C344 1.385 . S
C345 C346 1.389 . S
C346 C345 1.389 . S
C346 C347 1.387 . S
C347 H332 0.930 . S
C347 C342 1.390 . S
C347 C346 1.387 . S
H348 C360 0.930 . S
H349 C362 0.930 . S
H350 C363 0.930 . S
H351 C367 0.959 . S
H352 C367 0.959 . S
H353 C367 0.961 . S
H354 C368 0.960 . S
H355 C368 0.961 . S
H356 C368 0.959 . S
H357 C371 0.929 . S
H358 C372 0.931 . S
H359 C374 0.930 . S
C360 H348 0.930 . S
C360 C361 1.399 . S
C360 C365 1.399 . S
C361 C360 1.399 . S
C361 C362 1.376 . S
C362 H349 0.930 . S
C362 C361 1.376 . S
C362 C363 1.388 . S
C363 H350 0.930 . S
C363 C362 1.388 . S
C363 C364 1.390 . S
C364 C363 1.390 . S
C364 C365 1.394 . S
C364 C370 1.465 1_455 S
C365 C360 1.399 . S
C365 C364 1.394 . S
C365 C366 1.516 . S
C366 C365 1.516 . S
C366 C367 1.502 . S
C366 C368 1.561 1_455 S
C366 C369 1.526 1_455 S
C367 H351 0.959 . S
C367 H352 0.959 . S
C367 H353 0.961 . S
C367 C366 1.502 . S
C368 H354 0.960 . S
C368 H355 0.961 . S
C368 H356 0.959 . S
C368 C366 1.561 1_655 S
C369 C366 1.526 1_655 S
C369 C370 1.396 . S
C369 C374 1.390 . S
C370 C364 1.465 1_655 S
C370 C369 1.396 . S
C370 C371 1.399 . S
C371 H357 0.929 . S
C371 C370 1.399 . S
C371 C372 1.385 . S
C372 H358 0.931 . S
C372 C371 1.385 . S
C372 C373 1.389 . S
C373 C372 1.389 . S
C373 C374 1.387 . S
C374 H359 0.930 . S
C374 C369 1.390 . S
C374 C373 1.387 . S
H375 C387 0.930 . S
H376 C389 0.930 . S
H377 C390 0.930 . S
H378 C394 0.959 1_565 S
H379 C394 0.959 . S
H380 C394 0.961 . S
H381 C395 0.960 . S
H382 C395 0.961 . S
H383 C395 0.959 . S
H384 C398 0.929 . S
H385 C399 0.931 . S
H386 C401 0.930 . S
C387 H375 0.930 . S
C387 C388 1.399 . S
C387 C392 1.399 . S
C388 C387 1.399 . S
C388 C389 1.376 . S
C389 H376 0.930 . S
C389 C388 1.376 . S
C389 C390 1.388 . S
C390 H377 0.930 . S
C390 C389 1.388 . S
C390 C391 1.390 . S
C391 C390 1.390 . S
C391 C392 1.394 . S
C391 C397 1.465 1_545 S
C392 C387 1.399 . S
C392 C391 1.394 . S
C392 C393 1.516 . S
C393 C392 1.516 . S
C393 C394 1.502 . S
C393 C395 1.561 . S
C393 C396 1.526 1_545 S
C394 H378 0.959 1_545 S
C394 H379 0.959 . S
C394 H380 0.961 . S
C394 C393 1.502 . S
C395 H381 0.960 . S
C395 H382 0.961 . S
C395 H383 0.959 . S
C395 C393 1.561 . S
C396 C393 1.526 1_565 S
C396 C397 1.396 . S
C396 C401 1.390 . S
C397 C391 1.465 1_565 S
C397 C396 1.396 . S
C397 C398 1.399 . S
C398 H384 0.929 . S
C398 C397 1.399 . S
C398 C399 1.385 . S
C399 H385 0.931 . S
C399 C398 1.385 . S
C399 C400 1.389 . S
C400 C399 1.389 . S
C400 C401 1.387 . S
C401 H386 0.930 . S
C401 C396 1.390 . S
C401 C400 1.387 . S
H402 C414 0.930 . S
H403 C416 0.930 . S
H404 C417 0.930 . S
H405 C421 0.959 . S
H406 C421 0.959 . S
H407 C421 0.961 . S
H408 C422 0.960 . S
H409 C422 0.961 . S
H410 C422 0.959 . S
H411 C425 0.929 . S
H412 C426 0.931 . S
H413 C428 0.930 . S
C414 H402 0.930 . S
C414 C415 1.399 . S
C414 C419 1.399 . S
C415 C414 1.399 . S
C415 C416 1.376 . S
C416 H403 0.930 . S
C416 C415 1.376 . S
C416 C417 1.388 . S
C417 H404 0.930 . S
C417 C416 1.388 . S
C417 C418 1.390 . S
C418 C417 1.390 . S
C418 C419 1.394 . S
C418 C424 1.465 . S
C419 C414 1.399 . S
C419 C418 1.394 . S
C419 C420 1.516 . S
C420 C419 1.516 . S
C420 C421 1.502 . S
C420 C422 1.561 . S
C420 C423 1.526 . S
C421 H405 0.959 . S
C421 H406 0.959 . S
C421 H407 0.961 . S
C421 C420 1.502 . S
C422 H408 0.960 . S
C422 H409 0.961 . S
C422 H410 0.959 . S
C422 C420 1.561 . S
C423 C420 1.526 . S
C423 C424 1.396 . S
C423 C428 1.390 . S
C424 C418 1.465 . S
C424 C423 1.396 . S
C424 C425 1.399 . S
C425 H411 0.929 . S
C425 C424 1.399 . S
C425 C426 1.385 1_655 S
C426 H412 0.931 . S
C426 C425 1.385 1_455 S
C426 C427 1.389 . S
C427 C426 1.389 . S
C427 C428 1.387 1_455 S
C428 H413 0.930 . S
C428 C423 1.390 . S
C428 C427 1.387 1_655 S
H429 C441 0.930 . S
H430 C443 0.930 . S
H431 C444 0.930 . S
H432 C448 0.959 . S
H433 C448 0.959 . S
H434 C448 0.961 . S
H435 C449 0.960 . S
H436 C449 0.961 . S
H437 C449 0.959 . S
H438 C452 0.929 1_545 S
H439 C453 0.931 . S
H440 C455 0.930 . S
C441 H429 0.930 . S
C441 C442 1.399 . S
C441 C446 1.399 . S
C442 C441 1.399 . S
C442 C443 1.376 . S
C443 H430 0.930 . S
C443 C442 1.376 . S
C443 C444 1.388 . S
C444 H431 0.930 . S
C444 C443 1.388 . S
C444 C445 1.390 . S
C445 C444 1.390 . S
C445 C446 1.394 . S
C445 C451 1.465 . S
C446 C441 1.399 . S
C446 C445 1.394 . S
C446 C447 1.516 . S
C447 C446 1.516 . S
C447 C448 1.502 . S
C447 C449 1.561 . S
C447 C450 1.526 . S
C448 H432 0.959 . S
C448 H433 0.959 . S
C448 H434 0.961 . S
C448 C447 1.502 . S
C449 H435 0.960 . S
C449 H436 0.961 . S
C449 H437 0.959 . S
C449 C447 1.561 . S
C450 C447 1.526 . S
C450 C451 1.396 . S
C450 C455 1.390 . S
C451 C445 1.465 . S
C451 C450 1.396 . S
C451 C452 1.399 . S
C452 H438 0.929 1_565 S
C452 C451 1.399 . S
C452 C453 1.385 1_565 S
C453 H439 0.931 . S
C453 C452 1.385 1_545 S
C453 C454 1.389 . S
C454 C453 1.389 . S
C454 C455 1.387 1_545 S
C455 H440 0.930 . S
C455 C450 1.390 . S
C455 C454 1.387 1_565 S
H456 C468 0.930 . S
H457 C470 0.930 . S
H458 C471 0.930 . S
H459 C475 0.959 . S
H460 C475 0.959 . S
H461 C475 0.961 . S
H462 C476 0.960 . S
H463 C476 0.961 . S
H464 C476 0.959 . S
H465 C479 0.929 . S
H466 C480 0.931 . S
H467 C482 0.930 . S
C468 H456 0.930 . S
C468 C469 1.399 . S
C468 C473 1.399 . S
C469 C468 1.399 . S
C469 C470 1.376 . S
C470 H457 0.930 . S
C470 C469 1.376 . S
C470 C471 1.388 . S
C471 H458 0.930 . S
C471 C470 1.388 . S
C471 C472 1.390 . S
C472 C471 1.390 . S
C472 C473 1.394 . S
C472 C478 1.465 . S
C473 C468 1.399 . S
C473 C472 1.394 . S
C473 C474 1.516 . S
C474 C473 1.516 . S
C474 C475 1.502 . S
C474 C476 1.561 . S
C474 C477 1.526 . S
C475 H459 0.959 . S
C475 H460 0.959 . S
C475 H461 0.961 . S
C475 C474 1.502 . S
C476 H462 0.960 . S
C476 H463 0.961 . S
C476 H464 0.959 . S
C476 C474 1.561 . S
C477 C474 1.526 . S
C477 C478 1.396 . S
C477 C482 1.390 . S
C478 C472 1.465 . S
C478 C477 1.396 . S
C478 C479 1.399 . S
C479 H465 0.929 . S
C479 C478 1.399 . S
C479 C480 1.385 . S
C480 H466 0.931 . S
C480 C479 1.385 . S
C480 C481 1.389 . S
C481 C480 1.389 . S
C481 C482 1.387 . S
C482 H467 0.930 . S
C482 C477 1.390 . S
C482 C481 1.387 . S
H483 C495 0.930 . S
H484 C497 0.930 . S
H485 C498 0.930 . S
H486 C502 0.959 . S
H487 C502 0.959 . S
H488 C502 0.961 . S
H489 C503 0.960 . S
H490 C503 0.961 . S
H491 C503 0.959 . S
H492 C506 0.930 . S
H493 C507 0.931 . S
H494 C509 0.930 . S
C495 H483 0.930 . S
C495 C496 1.399 . S
C495 C500 1.399 . S
C496 C495 1.399 . S
C496 C497 1.376 . S
C497 H484 0.930 . S
C497 C496 1.376 . S
C497 C498 1.388 . S
C498 H485 0.930 . S
C498 C497 1.388 . S
C498 C499 1.390 . S
C499 C498 1.390 . S
C499 C500 1.394 . S
C499 C505 1.465 . S
C500 C495 1.399 . S
C500 C499 1.394 . S
C500 C501 1.516 . S
C501 C500 1.516 . S
C501 C502 1.502 1_554 S
C501 C503 1.561 . S
C501 C504 1.526 . S
C502 H486 0.959 . S
C502 H487 0.959 . S
C502 H488 0.961 . S
C502 C501 1.502 1_556 S
C503 H489 0.960 . S
C503 H490 0.961 . S
C503 H491 0.959 . S
C503 C501 1.561 . S
C504 C501 1.526 . S
C504 C505 1.396 . S
C504 C509 1.390 . S
C505 C499 1.465 . S
C505 C504 1.396 . S
C505 C506 1.393 1_545 S
C506 H492 0.930 . S
C506 C505 1.393 1_565 S
C506 C507 1.391 . S
C507 H493 0.931 . S
C507 C506 1.391 . S
C507 C508 1.389 1_565 S
C508 C507 1.389 1_545 S
C508 C509 1.387 . S
C509 H494 0.930 . S
C509 C504 1.390 . S
C509 C508 1.387 . S
H510 C522 0.930 . S
H511 C524 0.930 . S
H512 C525 0.930 . S
H513 C529 0.959 . S
H514 C529 0.959 . S
H515 C529 0.961 . S
H516 C530 0.960 . S
H517 C530 0.961 . S
H518 C530 0.959 . S
H519 C533 0.929 . S
H520 C534 0.931 . S
H521 C536 0.930 . S
C522 H510 0.930 . S
C522 C523 1.399 . S
C522 C527 1.399 . S
C523 C522 1.399 . S
C523 C524 1.376 . S
C524 H511 0.930 . S
C524 C523 1.376 . S
C524 C525 1.388 . S
C525 H512 0.930 . S
C525 C524 1.388 . S
C525 C526 1.390 . S
C526 C525 1.390 . S
C526 C527 1.394 . S
C526 C532 1.465 . S
C527 C522 1.399 . S
C527 C526 1.394 . S
C527 C528 1.516 . S
C528 C527 1.516 . S
C528 C529 1.502 . S
C528 C530 1.561 . S
C528 C531 1.526 . S
C529 H513 0.959 . S
C529 H514 0.959 . S
C529 H515 0.961 . S
C529 C528 1.502 . S
C530 H516 0.960 . S
C530 H517 0.961 . S
C530 H518 0.959 . S
C530 C528 1.561 . S
C531 C528 1.526 . S
C531 C532 1.396 . S
C531 C536 1.390 . S
C532 C526 1.465 . S
C532 C531 1.396 . S
C532 C533 1.399 . S
C533 H519 0.929 . S
C533 C532 1.399 . S
C533 C534 1.385 . S
C534 H520 0.931 . S
C534 C533 1.385 . S
C534 C535 1.389 . S
C535 C534 1.389 . S
C535 C536 1.387 . S
C536 H521 0.930 . S
C536 C531 1.390 . S
C536 C535 1.387 . S
H537 C549 0.930 . S
H538 C551 0.930 1_655 S
H539 C552 0.930 . S
H540 C556 0.959 . S
H541 C556 0.959 . S
H542 C556 0.961 . S
H543 C557 0.960 . S
H544 C557 0.961 . S
H545 C557 0.959 . S
H546 C560 0.929 . S
H547 C561 0.931 . S
H548 C563 0.930 . S
C549 H537 0.930 . S
C549 C550 1.399 . S
C549 C554 1.399 . S
C550 C549 1.399 . S
C550 C551 1.376 . S
C551 H538 0.930 1_455 S
C551 C550 1.376 . S
C551 C552 1.388 . S
C552 H539 0.930 . S
C552 C551 1.388 . S
C552 C553 1.390 . S
C553 C552 1.390 . S
C553 C554 1.394 . S
C553 C559 1.465 . S
C554 C549 1.399 . S
C554 C553 1.394 . S
C554 C555 1.516 . S
C555 C554 1.516 . S
C555 C556 1.502 . S
C555 C557 1.561 . S
C555 C558 1.526 . S
C556 H540 0.959 . S
C556 H541 0.959 . S
C556 H542 0.961 . S
C556 C555 1.502 . S
C557 H543 0.960 . S
C557 H544 0.961 . S
C557 H545 0.959 . S
C557 C555 1.561 . S
C558 C555 1.526 . S
C558 C559 1.396 . S
C558 C563 1.390 . S
C559 C553 1.465 . S
C559 C558 1.396 . S
C559 C560 1.399 . S
C560 H546 0.929 . S
C560 C559 1.399 . S
C560 C561 1.385 . S
C561 H547 0.931 . S
C561 C560 1.385 . S
C561 C562 1.389 . S
C562 C561 1.389 . S
C562 C563 1.387 . S
C563 H548 0.930 . S
C563 C558 1.390 . S
C563 C562 1.387 . S
H564 C576 0.930 . S
H565 C578 0.930 . S
H566 C579 0.930 . S
H567 C583 0.959 . S
H568 C583 0.959 . S
H569 C583 0.961 . S
H570 C584 0.960 . S
H571 C584 0.961 . S
H572 C584 0.959 . S
H573 C587 0.929 . S
H574 C588 0.931 . S
H575 C590 0.930 . S
C576 H564 0.930 . S
C576 C577 1.399 . S
C576 C581 1.399 . S
C577 C576 1.399 . S
C577 C578 1.376 . S
C578 H565 0.930 . S
C578 C577 1.376 . S
C578 C579 1.388 . S
C579 H566 0.930 . S
C579 C578 1.388 . S
C579 C580 1.390 . S
C580 C579 1.390 . S
C580 C581 1.394 . S
C580 C586 1.465 . S
C581 C576 1.399 . S
C581 C580 1.394 . S
C581 C582 1.516 . S
C582 C581 1.516 . S
C582 C583 1.502 . S
C582 C584 1.561 . S
C582 C585 1.526 . S
C583 H567 0.959 . S
C583 H568 0.959 . S
C583 H569 0.961 . S
C583 C582 1.502 . S
C584 H570 0.960 . S
C584 H571 0.961 . S
C584 H572 0.959 . S
C584 C582 1.561 . S
C585 C582 1.526 . S
C585 C586 1.396 . S
C585 C590 1.390 . S
C586 C580 1.465 . S
C586 C585 1.396 . S
C586 C587 1.399 . S
C587 H573 0.929 . S
C587 C586 1.399 . S
C587 C588 1.385 . S
C588 H574 0.931 . S
C588 C587 1.385 . S
C588 C589 1.389 . S
C589 C588 1.389 . S
C589 C590 1.387 . S
C590 H575 0.930 . S
C590 C585 1.390 . S
C590 C589 1.387 . S
H591 C603 0.930 . S
H592 C605 0.930 . S
H593 C606 0.930 . S
H594 C610 0.959 . S
H595 C610 0.959 . S
H596 C610 0.961 . S
H597 C611 0.960 . S
H598 C611 0.961 . S
H599 C611 0.959 . S
H600 C614 0.929 . S
H601 C615 0.931 . S
H602 C617 0.930 . S
C603 H591 0.930 . S
C603 C604 1.399 . S
C603 C608 1.399 . S
C604 C603 1.399 . S
C604 C605 1.376 . S
C605 H592 0.930 . S
C605 C604 1.376 . S
C605 C606 1.388 . S
C606 H593 0.930 . S
C606 C605 1.388 . S
C606 C607 1.390 . S
C607 C606 1.390 . S
C607 C608 1.394 . S
C607 C613 1.465 . S
C608 C603 1.399 . S
C608 C607 1.394 . S
C608 C609 1.516 . S
C609 C608 1.516 . S
C609 C610 1.502 . S
C609 C611 1.561 . S
C609 C612 1.526 . S
C610 H594 0.959 . S
C610 H595 0.959 . S
C610 H596 0.961 . S
C610 C609 1.502 . S
C611 H597 0.960 . S
C611 H598 0.961 . S
C611 H599 0.959 . S
C611 C609 1.561 . S
C612 C609 1.526 . S
C612 C613 1.396 . S
C612 C617 1.390 . S
C613 C607 1.465 . S
C613 C612 1.396 . S
C613 C614 1.399 . S
C614 H600 0.929 . S
C614 C613 1.399 . S
C614 C615 1.385 . S
C615 H601 0.931 . S
C615 C614 1.385 . S
C615 C616 1.389 . S
C616 C615 1.389 . S
C616 C617 1.387 . S
C617 H602 0.930 . S
C617 C612 1.390 . S
C617 C616 1.387 . S
H618 C630 0.930 . S
H619 C632 0.930 . S
H620 C633 0.930 . S
H621 C637 0.959 . S
H622 C637 0.959 . S
H623 C637 0.961 . S
H624 C638 0.960 . S
H625 C638 0.961 . S
H626 C638 0.959 . S
H627 C641 0.929 . S
H628 C642 0.931 . S
H629 C644 0.930 . S
C630 H618 0.930 . S
C630 C631 1.399 . S
C630 C635 1.399 . S
C631 C630 1.399 . S
C631 C632 1.376 . S
C632 H619 0.930 . S
C632 C631 1.376 . S
C632 C633 1.388 . S
C633 H620 0.930 . S
C633 C632 1.388 . S
C633 C634 1.390 . S
C634 C633 1.390 . S
C634 C635 1.394 . S
C634 C640 1.465 . S
C635 C630 1.399 . S
C635 C634 1.394 . S
C635 C636 1.516 . S
C636 C635 1.516 . S
C636 C637 1.502 . S
C636 C638 1.561 1_655 S
C636 C639 1.526 . S
C637 H621 0.959 . S
C637 H622 0.959 . S
C637 H623 0.961 . S
C637 C636 1.502 . S
C638 H624 0.960 . S
C638 H625 0.961 . S
C638 H626 0.959 . S
C638 C636 1.561 1_455 S
C639 C636 1.526 . S
C639 C640 1.396 . S
C639 C644 1.390 . S
C640 C634 1.465 . S
C640 C639 1.396 . S
C640 C641 1.399 . S
C641 H627 0.929 . S
C641 C640 1.399 . S
C641 C642 1.385 . S
C642 H628 0.931 . S
C642 C641 1.385 . S
C642 C643 1.389 . S
C643 C642 1.389 . S
C643 C644 1.387 . S
C644 H629 0.930 . S
C644 C639 1.390 . S
C644 C643 1.387 . S
H645 C657 0.930 . S
H646 C659 0.930 . S
H647 C660 0.930 . S
H648 C664 0.959 . S
H649 C664 0.959 . S
H650 C664 0.961 . S
H651 C665 0.960 . S
H652 C665 0.961 . S
H653 C665 0.959 . S
H654 C668 0.929 . S
H655 C669 0.931 . S
H656 C671 0.930 . S
C657 H645 0.930 . S
C657 C658 1.399 . S
C657 C662 1.399 . S
C658 C657 1.399 . S
C658 C659 1.376 . S
C659 H646 0.930 . S
C659 C658 1.376 . S
C659 C660 1.388 . S
C660 H647 0.930 . S
C660 C659 1.388 . S
C660 C661 1.390 . S
C661 C660 1.390 . S
C661 C662 1.394 . S
C661 C667 1.465 . S
C662 C657 1.399 . S
C662 C661 1.394 . S
C662 C663 1.516 . S
C663 C662 1.516 . S
C663 C664 1.502 . S
C663 C665 1.561 1_565 S
C663 C666 1.526 . S
C664 H648 0.959 . S
C664 H649 0.959 . S
C664 H650 0.961 . S
C664 C663 1.502 . S
C665 H651 0.960 . S
C665 H652 0.961 . S
C665 H653 0.959 . S
C665 C663 1.561 1_545 S
C666 C663 1.526 . S
C666 C667 1.396 . S
C666 C671 1.390 . S
C667 C661 1.465 . S
C667 C666 1.396 . S
C667 C668 1.399 . S
C668 H654 0.929 . S
C668 C667 1.399 . S
C668 C669 1.385 . S
C669 H655 0.931 . S
C669 C668 1.385 . S
C669 C670 1.389 . S
C670 C669 1.389 . S
C670 C671 1.387 . S
C671 H656 0.930 . S
C671 C666 1.390 . S
C671 C670 1.387 . S
H672 C684 0.930 . S
H673 C686 0.930 . S
H674 C687 0.930 . S
H675 C691 0.959 . S
H676 C691 0.959 . S
H677 C691 0.961 . S
H678 C692 0.960 . S
H679 C692 0.961 1_545 S
H680 C692 0.959 . S
H681 C695 0.929 1_655 S
H682 C696 0.931 . S
H683 C698 0.930 . S
C684 H672 0.930 . S
C684 C685 1.399 . S
C684 C689 1.399 . S
C685 C684 1.399 . S
C685 C686 1.376 1_455 S
C686 H673 0.930 . S
C686 C685 1.376 1_655 S
C686 C687 1.388 . S
C687 H674 0.930 . S
C687 C686 1.388 . S
C687 C688 1.390 1_655 S
C688 C687 1.390 1_455 S
C688 C689 1.394 . S
C688 C694 1.465 . S
C689 C684 1.399 . S
C689 C688 1.394 . S
C689 C690 1.516 . S
C690 C689 1.516 . S
C690 C691 1.502 . S
C690 C692 1.561 . S
C690 C693 1.526 . S
C691 H675 0.959 . S
C691 H676 0.959 . S
C691 H677 0.961 . S
C691 C690 1.502 . S
C692 H678 0.960 . S
C692 H679 0.961 1_565 S
C692 H680 0.959 . S
C692 C690 1.561 . S
C693 C690 1.526 . S
C693 C694 1.396 . S
C693 C698 1.390 . S
C694 C688 1.465 . S
C694 C693 1.396 . S
C694 C695 1.399 . S
C695 H681 0.929 1_455 S
C695 C694 1.399 . S
C695 C696 1.385 . S
C696 H682 0.931 . S
C696 C695 1.385 . S
C696 C697 1.389 . S
C697 C696 1.389 . S
C697 C698 1.387 . S
C698 H683 0.930 . S
C698 C693 1.390 . S
C698 C697 1.387 . S
H699 C711 0.930 . S
H700 C713 0.930 . S
H701 C714 0.930 . S
H702 C718 0.959 . S
H703 C718 0.959 . S
H704 C718 0.961 . S
H705 C719 0.960 . S
H706 C719 0.961 . S
H707 C719 0.959 . S
H708 C722 0.929 1_565 S
H709 C723 0.931 . S
H710 C725 0.930 . S
C711 H699 0.930 . S
C711 C712 1.399 . S
C711 C716 1.399 . S
C712 C711 1.399 . S
C712 C713 1.376 1_545 S
C713 H700 0.930 . S
C713 C712 1.376 1_565 S
C713 C714 1.388 . S
C714 H701 0.930 . S
C714 C713 1.388 . S
C714 C715 1.390 1_565 S
C715 C714 1.390 1_545 S
C715 C716 1.394 . S
C715 C721 1.465 . S
C716 C711 1.399 . S
C716 C715 1.394 . S
C716 C717 1.516 . S
C717 C716 1.516 . S
C717 C718 1.502 . S
C717 C719 1.561 . S
C717 C720 1.526 . S
C718 H702 0.959 . S
C718 H703 0.959 . S
C718 H704 0.961 . S
C718 C717 1.502 . S
C719 H705 0.960 . S
C719 H706 0.961 . S
C719 H707 0.959 . S
C719 C717 1.561 . S
C720 C717 1.526 . S
C720 C721 1.396 . S
C720 C725 1.390 . S
C721 C715 1.465 . S
C721 C720 1.396 . S
C721 C722 1.399 . S
C722 H708 0.929 1_545 S
C722 C721 1.399 . S
C722 C723 1.385 . S
C723 H709 0.931 . S
C723 C722 1.385 . S
C723 C724 1.389 . S
C724 C723 1.389 . S
C724 C725 1.387 . S
C725 H710 0.930 . S
C725 C720 1.390 . S
C725 C724 1.387 . S
C253 C130 0.775 . S
C265 C10 0.643 . S
C280 C170 0.772 . S
C292 C50 0.650 . S
C307 C210 0.772 . S
C319 C90 0.650 . S
C334 C16 0.782 . S
C346 C87 0.704 . S
C361 C56 0.865 . S
C373 C127 0.720 . S
C388 C96 0.626 . S
C400 C167 0.851 . S
C415 C136 0.812 . S
C427 C207 0.681 . S
C442 C176 0.640 . S
C454 C7 0.831 . S
C469 C216 0.625 . S
C481 C47 0.859 . S
C496 C19 1.343 . S
C508 C139 1.383 1_545 S
C523 C59 1.312 . S
C535 C179 1.336 . S
C550 C99 1.386 1_455 S
C562 C219 1.365 . S
C577 C2 4.058 . S
C589 C51 4.096 . S
C604 C42 4.039 . S
C616 C91 4.098 . S
C631 C82 4.056 . S
C643 C131 4.099 . S
C658 C122 4.056 . S
C670 C171 4.099 . S
C685 C162 4.052 1_455 S
C697 C211 4.101 . S
C712 C202 4.039 1_545 S
C724 C11 4.104 . S
