# Generated by pormake.
# Topology wio, (6)-cn, num edge types: 1
# Building blocks:
#     Node 0, Type 0, BuildingBlock: VOLQOD_clean_sbu_1, # of connection points: 6
#     Node 1, Type 0, BuildingBlock: VOLQOD_clean_sbu_1, # of connection points: 6
#     Node 2, Type 0, BuildingBlock: VOLQOD_clean_sbu_1, # of connection points: 6
#     Node 3, Type 0, BuildingBlock: VOLQOD_clean_sbu_1, # of connection points: 6
#     Node 4, Type 0, BuildingBlock: VOLQOD_clean_sbu_1, # of connection points: 6
#     Node 5, Type 0, BuildingBlock: VOLQOD_clean_sbu_1, # of connection points: 6
#     Node 6, Type 0, BuildingBlock: VOLQOD_clean_sbu_1, # of connection points: 6
#     Node 7, Type 0, BuildingBlock: VOLQOD_clean_sbu_1, # of connection points: 6
#     Node 8, Type 0, BuildingBlock: VOLQOD_clean_sbu_1, # of connection points: 6
#     Node 9, Type 0, BuildingBlock: VOLQOD_clean_sbu_1, # of connection points: 6
#     Node 10, Type 0, BuildingBlock: VOLQOD_clean_sbu_1, # of connection points: 6
#     Node 11, Type 0, BuildingBlock: VOLQOD_clean_sbu_1, # of connection points: 6
#     Node 12, Type 0, BuildingBlock: VOLQOD_clean_sbu_1, # of connection points: 6
#     Node 13, Type 0, BuildingBlock: VOLQOD_clean_sbu_1, # of connection points: 6
#     Node 14, Type 0, BuildingBlock: VOLQOD_clean_sbu_1, # of connection points: 6
#     Node 15, Type 0, BuildingBlock: VOLQOD_clean_sbu_1, # of connection points: 6
#     Node 16, Type 0, BuildingBlock: VOLQOD_clean_sbu_1, # of connection points: 6
#     Node 17, Type 0, BuildingBlock: VOLQOD_clean_sbu_1, # of connection points: 6
#     Node 18, Type 0, BuildingBlock: VOLQOD_clean_sbu_1, # of connection points: 6
#     Node 19, Type 0, BuildingBlock: VOLQOD_clean_sbu_1, # of connection points: 6
#     Node 20, Type 0, BuildingBlock: VOLQOD_clean_sbu_1, # of connection points: 6
#     Node 21, Type 0, BuildingBlock: VOLQOD_clean_sbu_1, # of connection points: 6
#     Node 22, Type 0, BuildingBlock: VOLQOD_clean_sbu_1, # of connection points: 6
#     Node 23, Type 0, BuildingBlock: VOLQOD_clean_sbu_1, # of connection points: 6
#     Node 24, Type 0, BuildingBlock: VOLQOD_clean_sbu_1, # of connection points: 6
#     Node 25, Type 0, BuildingBlock: VOLQOD_clean_sbu_1, # of connection points: 6
#     Node 26, Type 0, BuildingBlock: VOLQOD_clean_sbu_1, # of connection points: 6
#     Node 27, Type 0, BuildingBlock: VOLQOD_clean_sbu_1, # of connection points: 6
#     Node 28, Type 0, BuildingBlock: VOLQOD_clean_sbu_1, # of connection points: 6
#     Node 29, Type 0, BuildingBlock: VOLQOD_clean_sbu_1, # of connection points: 6
#     Node 30, Type 0, BuildingBlock: VOLQOD_clean_sbu_1, # of connection points: 6
#     Node 31, Type 0, BuildingBlock: VOLQOD_clean_sbu_1, # of connection points: 6
#     Edge 32, Type (0, 0), BuildingBlock: OJICUG_clean_linker_0, # of connection points: 2
#     Edge 33, Type (0, 0), BuildingBlock: OJICUG_clean_linker_0, # of connection points: 2
#     Edge 34, Type (0, 0), BuildingBlock: OJICUG_clean_linker_0, # of connection points: 2
#     Edge 35, Type (0, 0), BuildingBlock: OJICUG_clean_linker_0, # of connection points: 2
#     Edge 36, Type (0, 0), BuildingBlock: OJICUG_clean_linker_0, # of connection points: 2
#     Edge 37, Type (0, 0), BuildingBlock: OJICUG_clean_linker_0, # of connection points: 2
#     Edge 38, Type (0, 0), BuildingBlock: OJICUG_clean_linker_0, # of connection points: 2
#     Edge 39, Type (0, 0), BuildingBlock: OJICUG_clean_linker_0, # of connection points: 2
#     Edge 40, Type (0, 0), BuildingBlock: OJICUG_clean_linker_0, # of connection points: 2
#     Edge 41, Type (0, 0), BuildingBlock: OJICUG_clean_linker_0, # of connection points: 2
#     Edge 42, Type (0, 0), BuildingBlock: OJICUG_clean_linker_0, # of connection points: 2
#     Edge 43, Type (0, 0), BuildingBlock: OJICUG_clean_linker_0, # of connection points: 2
#     Edge 44, Type (0, 0), BuildingBlock: OJICUG_clean_linker_0, # of connection points: 2
#     Edge 45, Type (0, 0), BuildingBlock: OJICUG_clean_linker_0, # of connection points: 2
#     Edge 46, Type (0, 0), BuildingBlock: OJICUG_clean_linker_0, # of connection points: 2
#     Edge 47, Type (0, 0), BuildingBlock: OJICUG_clean_linker_0, # of connection points: 2
#     Edge 48, Type (0, 0), BuildingBlock: OJICUG_clean_linker_0, # of connection points: 2
#     Edge 49, Type (0, 0), BuildingBlock: OJICUG_clean_linker_0, # of connection points: 2
#     Edge 50, Type (0, 0), BuildingBlock: OJICUG_clean_linker_0, # of connection points: 2
#     Edge 51, Type (0, 0), BuildingBlock: OJICUG_clean_linker_0, # of connection points: 2
#     Edge 52, Type (0, 0), BuildingBlock: OJICUG_clean_linker_0, # of connection points: 2
#     Edge 53, Type (0, 0), BuildingBlock: OJICUG_clean_linker_0, # of connection points: 2
#     Edge 54, Type (0, 0), BuildingBlock: OJICUG_clean_linker_0, # of connection points: 2
#     Edge 55, Type (0, 0), BuildingBlock: OJICUG_clean_linker_0, # of connection points: 2
#     Edge 56, Type (0, 0), BuildingBlock: OJICUG_clean_linker_0, # of connection points: 2
#     Edge 57, Type (0, 0), BuildingBlock: OJICUG_clean_linker_0, # of connection points: 2
#     Edge 58, Type (0, 0), BuildingBlock: OJICUG_clean_linker_0, # of connection points: 2
#     Edge 59, Type (0, 0), BuildingBlock: OJICUG_clean_linker_0, # of connection points: 2
#     Edge 60, Type (0, 0), BuildingBlock: OJICUG_clean_linker_0, # of connection points: 2
#     Edge 61, Type (0, 0), BuildingBlock: OJICUG_clean_linker_0, # of connection points: 2
#     Edge 62, Type (0, 0), BuildingBlock: OJICUG_clean_linker_0, # of connection points: 2
#     Edge 63, Type (0, 0), BuildingBlock: OJICUG_clean_linker_0, # of connection points: 2
#     Edge 64, Type (0, 0), BuildingBlock: OJICUG_clean_linker_0, # of connection points: 2
#     Edge 65, Type (0, 0), BuildingBlock: OJICUG_clean_linker_0, # of connection points: 2
#     Edge 66, Type (0, 0), BuildingBlock: OJICUG_clean_linker_0, # of connection points: 2
#     Edge 67, Type (0, 0), BuildingBlock: OJICUG_clean_linker_0, # of connection points: 2
#     Edge 68, Type (0, 0), BuildingBlock: OJICUG_clean_linker_0, # of connection points: 2
#     Edge 69, Type (0, 0), BuildingBlock: OJICUG_clean_linker_0, # of connection points: 2
#     Edge 70, Type (0, 0), BuildingBlock: OJICUG_clean_linker_0, # of connection points: 2
#     Edge 71, Type (0, 0), BuildingBlock: OJICUG_clean_linker_0, # of connection points: 2
#     Edge 72, Type (0, 0), BuildingBlock: OJICUG_clean_linker_0, # of connection points: 2
#     Edge 73, Type (0, 0), BuildingBlock: OJICUG_clean_linker_0, # of connection points: 2
#     Edge 74, Type (0, 0), BuildingBlock: OJICUG_clean_linker_0, # of connection points: 2
#     Edge 75, Type (0, 0), BuildingBlock: OJICUG_clean_linker_0, # of connection points: 2
#     Edge 76, Type (0, 0), BuildingBlock: OJICUG_clean_linker_0, # of connection points: 2
#     Edge 77, Type (0, 0), BuildingBlock: OJICUG_clean_linker_0, # of connection points: 2
#     Edge 78, Type (0, 0), BuildingBlock: OJICUG_clean_linker_0, # of connection points: 2
#     Edge 79, Type (0, 0), BuildingBlock: OJICUG_clean_linker_0, # of connection points: 2
#     Edge 80, Type (0, 0), BuildingBlock: OJICUG_clean_linker_0, # of connection points: 2
#     Edge 81, Type (0, 0), BuildingBlock: OJICUG_clean_linker_0, # of connection points: 2
#     Edge 82, Type (0, 0), BuildingBlock: OJICUG_clean_linker_0, # of connection points: 2
#     Edge 83, Type (0, 0), BuildingBlock: OJICUG_clean_linker_0, # of connection points: 2
#     Edge 84, Type (0, 0), BuildingBlock: OJICUG_clean_linker_0, # of connection points: 2
#     Edge 85, Type (0, 0), BuildingBlock: OJICUG_clean_linker_0, # of connection points: 2
#     Edge 86, Type (0, 0), BuildingBlock: OJICUG_clean_linker_0, # of connection points: 2
#     Edge 87, Type (0, 0), BuildingBlock: OJICUG_clean_linker_0, # of connection points: 2
#     Edge 88, Type (0, 0), BuildingBlock: OJICUG_clean_linker_0, # of connection points: 2
#     Edge 89, Type (0, 0), BuildingBlock: OJICUG_clean_linker_0, # of connection points: 2
#     Edge 90, Type (0, 0), BuildingBlock: OJICUG_clean_linker_0, # of connection points: 2
#     Edge 91, Type (0, 0), BuildingBlock: OJICUG_clean_linker_0, # of connection points: 2
#     Edge 92, Type (0, 0), BuildingBlock: OJICUG_clean_linker_0, # of connection points: 2
#     Edge 93, Type (0, 0), BuildingBlock: OJICUG_clean_linker_0, # of connection points: 2
#     Edge 94, Type (0, 0), BuildingBlock: OJICUG_clean_linker_0, # of connection points: 2
#     Edge 95, Type (0, 0), BuildingBlock: OJICUG_clean_linker_0, # of connection points: 2
#     Edge 96, Type (0, 0), BuildingBlock: OJICUG_clean_linker_0, # of connection points: 2
#     Edge 97, Type (0, 0), BuildingBlock: OJICUG_clean_linker_0, # of connection points: 2
#     Edge 98, Type (0, 0), BuildingBlock: OJICUG_clean_linker_0, # of connection points: 2
#     Edge 99, Type (0, 0), BuildingBlock: OJICUG_clean_linker_0, # of connection points: 2
#     Edge 100, Type (0, 0), BuildingBlock: OJICUG_clean_linker_0, # of connection points: 2
#     Edge 101, Type (0, 0), BuildingBlock: OJICUG_clean_linker_0, # of connection points: 2
#     Edge 102, Type (0, 0), BuildingBlock: OJICUG_clean_linker_0, # of connection points: 2
#     Edge 103, Type (0, 0), BuildingBlock: OJICUG_clean_linker_0, # of connection points: 2
#     Edge 104, Type (0, 0), BuildingBlock: OJICUG_clean_linker_0, # of connection points: 2
#     Edge 105, Type (0, 0), BuildingBlock: OJICUG_clean_linker_0, # of connection points: 2
#     Edge 106, Type (0, 0), BuildingBlock: OJICUG_clean_linker_0, # of connection points: 2
#     Edge 107, Type (0, 0), BuildingBlock: OJICUG_clean_linker_0, # of connection points: 2
#     Edge 108, Type (0, 0), BuildingBlock: OJICUG_clean_linker_0, # of connection points: 2
#     Edge 109, Type (0, 0), BuildingBlock: OJICUG_clean_linker_0, # of connection points: 2
#     Edge 110, Type (0, 0), BuildingBlock: OJICUG_clean_linker_0, # of connection points: 2
#     Edge 111, Type (0, 0), BuildingBlock: OJICUG_clean_linker_0, # of connection points: 2
#     Edge 112, Type (0, 0), BuildingBlock: OJICUG_clean_linker_0, # of connection points: 2
#     Edge 113, Type (0, 0), BuildingBlock: OJICUG_clean_linker_0, # of connection points: 2
#     Edge 114, Type (0, 0), BuildingBlock: OJICUG_clean_linker_0, # of connection points: 2
#     Edge 115, Type (0, 0), BuildingBlock: OJICUG_clean_linker_0, # of connection points: 2
#     Edge 116, Type (0, 0), BuildingBlock: OJICUG_clean_linker_0, # of connection points: 2
#     Edge 117, Type (0, 0), BuildingBlock: OJICUG_clean_linker_0, # of connection points: 2
#     Edge 118, Type (0, 0), BuildingBlock: OJICUG_clean_linker_0, # of connection points: 2
#     Edge 119, Type (0, 0), BuildingBlock: OJICUG_clean_linker_0, # of connection points: 2
#     Edge 120, Type (0, 0), BuildingBlock: OJICUG_clean_linker_0, # of connection points: 2
#     Edge 121, Type (0, 0), BuildingBlock: OJICUG_clean_linker_0, # of connection points: 2
#     Edge 122, Type (0, 0), BuildingBlock: OJICUG_clean_linker_0, # of connection points: 2
#     Edge 123, Type (0, 0), BuildingBlock: OJICUG_clean_linker_0, # of connection points: 2
#     Edge 124, Type (0, 0), BuildingBlock: OJICUG_clean_linker_0, # of connection points: 2
#     Edge 125, Type (0, 0), BuildingBlock: OJICUG_clean_linker_0, # of connection points: 2
#     Edge 126, Type (0, 0), BuildingBlock: OJICUG_clean_linker_0, # of connection points: 2
#     Edge 127, Type (0, 0), BuildingBlock: OJICUG_clean_linker_0, # of connection points: 2
# Relax obj value: 0.385
# Max RMSD: 0.209
# Mean RMSD: 0.204
data_MOF--net-wio--node1-VOLQOD_clean_sbu_1--edge1-OJICUG_clean_linker_0
_symmetry_space_group_name_H-M    P1
_symmetry_Int_Tables_number       1
_symmetry_cell_setting            triclinic
loop_
_symmetry_equiv_pos_as_xyz
'x, y, z'
_cell_length_a     45.289202
_cell_length_b     45.220014
_cell_length_c     28.451963
_cell_angle_alpha  89.955603
_cell_angle_beta   89.864803
_cell_angle_gamma 89.987569
loop_
_atom_site_label
_atom_site_type_symbol
_atom_site_fract_x
_atom_site_fract_y
_atom_site_fract_z
_atom_type_partial_charge
O0 O 0.1738 0.05056 0.34174 0.0
Zn1 Zn 0.17784 0.08623 0.38169 0.0
O2 O 0.14862 0.11385 0.3579 0.0
Zn3 Zn 0.16821 0.14111 0.31633 0.0
Zn4 Zn 0.12073 0.09117 0.32197 0.0
Zn5 Zn 0.12627 0.13081 0.40945 0.0
O6 O 0.15655 0.18161 0.33941 0.0
O7 O 0.13566 0.17495 0.41032 0.0
O8 O 0.21995 0.09865 0.36954 0.0
O9 O 0.21308 0.13485 0.31784 0.0
O10 O 0.15601 0.1343 0.24754 0.0
O11 O 0.12769 0.09439 0.2525 0.0
O12 O 0.07893 0.10192 0.33278 0.0
O13 O 0.1686 0.07467 0.44856 0.0
O14 O 0.08191 0.12779 0.39854 0.0
O15 O 0.13262 0.10579 0.46909 0.0
C16 C 0.14972 0.03791 0.33118 0.0
C17 C 0.14517 0.19181 0.3773 0.0
C18 C 0.14106 0.11375 0.22793 0.0
C19 C 0.23021 0.11732 0.34014 0.0
C20 C 0.06667 0.11596 0.36603 0.0
C21 C 0.14953 0.08384 0.47823 0.0
O22 O 0.12538 0.04983 0.34211 0.0
O23 O 0.19505 0.9258 0.5939 0.0
Zn24 Zn 0.15943 0.9301 0.6338 0.0
O25 O 0.13207 0.90049 0.61044 0.0
Zn26 Zn 0.10477 0.91976 0.56883 0.0
Zn27 Zn 0.15489 0.87264 0.57447 0.0
Zn28 Zn 0.11555 0.87794 0.66218 0.0
O29 O 0.06453 0.90762 0.59209 0.0
O30 O 0.07123 0.88659 0.66285 0.0
O31 O 0.14699 0.97218 0.62066 0.0
O32 O 0.11073 0.96477 0.56952 0.0
O33 O 0.11159 0.90724 0.5002 0.0
O34 O 0.152 0.87969 0.505 0.0
O35 O 0.14426 0.83073 0.58476 0.0
O36 O 0.17112 0.92134 0.70069 0.0
O37 O 0.11913 0.83347 0.65133 0.0
O38 O 0.14074 0.8848 0.72158 0.0
C39 C 0.20773 0.90162 0.58375 0.0
C40 C 0.05438 0.89591 0.62977 0.0
C41 C 0.13238 0.89263 0.48052 0.0
C42 C 0.1283 0.98217 0.5912 0.0
C43 C 0.1307 0.81831 0.61836 0.0
C44 C 0.1624 0.90211 0.73046 0.0
O45 O 0.19592 0.87735 0.59541 0.0
O46 O 0.3706 0.94917 0.85084 0.0
Zn47 Zn 0.37418 0.90856 0.82662 0.0
O48 O 0.34636 0.88528 0.86202 0.0
Zn49 Zn 0.36907 0.86794 0.91274 0.0
Zn50 Zn 0.31685 0.91238 0.88687 0.0
Zn51 Zn 0.32727 0.85838 0.81958 0.0
O52 O 0.3602 0.82371 0.91224 0.0
O53 O 0.33913 0.81763 0.84151 0.0
O54 O 0.41594 0.897 0.83508 0.0
O55 O 0.41348 0.87171 0.90151 0.0
O56 O 0.36213 0.89187 0.97329 0.0
O57 O 0.3249 0.92195 0.95486 0.0
O58 O 0.2748 0.90071 0.87142 0.0
O59 O 0.36651 0.90731 0.75704 0.0
O60 O 0.2823 0.86431 0.82032 0.0
O61 O 0.33997 0.86622 0.75131 0.0
C62 C 0.34657 0.96202 0.84117 0.0
C63 C 0.3507 0.80712 0.87898 0.0
C64 C 0.34438 0.9129 0.98383 0.0
C65 C 0.42849 0.88329 0.86833 0.0
C66 C 0.26489 0.88202 0.84182 0.0
C67 C 0.35396 0.88763 0.73209 0.0
O68 O 0.32221 0.94941 0.85052 0.0
O69 O 0.30323 0.12353 0.08253 0.0
Zn70 Zn 0.34597 0.12586 0.07157 0.0
O71 O 0.36496 0.09686 0.11087 0.0
Zn72 Zn 0.38098 0.11937 0.16332 0.0
Zn73 Zn 0.33527 0.0691 0.13236 0.0
Zn74 Zn 0.39278 0.07489 0.07281 0.0
O75 O 0.42515 0.11043 0.16538 0.0
O76 O 0.4327 0.08711 0.09669 0.0
O77 O 0.35704 0.16733 0.08334 0.0
O78 O 0.37782 0.16411 0.15329 0.0
O79 O 0.35543 0.1125 0.22223 0.0
O80 O 0.32311 0.07836 0.19886 0.0
O81 O 0.34564 0.02621 0.12102 0.0
O82 O 0.35338 0.11897 1.00353 0.0
O83 O 0.38582 0.03019 0.07671 0.0
O84 O 0.38833 0.08458 1.0027 0.0
C85 C 0.28969 0.09933 0.07652 0.0
C86 C 0.44237 0.09994 0.13364 0.0
C87 C 0.33271 0.09634 0.22978 0.0
C88 C 0.36848 0.17953 0.1189 0.0
C89 C 0.36578 0.01437 0.09596 0.0
C90 C 0.37109 0.10232 0.98122 0.0
O91 O 0.30063 0.07513 0.09089 0.0
O92 O 0.1728 0.94834 0.16139 0.0
Zn93 Zn 0.17742 0.91225 0.12274 0.0
O94 O 0.14799 0.88482 0.14661 0.0
Zn95 Zn 0.16769 0.85775 0.18834 0.0
Zn96 Zn 0.11968 0.90729 0.1825 0.0
Zn97 Zn 0.12597 0.86754 0.09499 0.0
O98 O 0.15648 0.8173 0.16547 0.0
O99 O 0.1359 0.82343 0.09437 0.0
O100 O 0.21959 0.90018 0.13575 0.0
O101 O 0.21253 0.86387 0.18711 0.0
O102 O 0.15528 0.86436 0.25702 0.0
O103 O 0.12621 0.9037 0.25205 0.0
O104 O 0.07788 0.89622 0.17124 0.0
O105 O 0.16896 0.92319 0.05551 0.0
O106 O 0.08141 0.87 0.10588 0.0
O107 O 0.13263 0.89254 0.03518 0.0
C108 C 0.14883 0.96116 0.17238 0.0
C109 C 0.14544 0.80682 0.12764 0.0
C110 C 0.13986 0.88458 0.27662 0.0
C111 C 0.22977 0.88145 0.16505 0.0
C112 C 0.06588 0.88181 0.13822 0.0
C113 C 0.14994 0.91415 0.02583 0.0
O114 O 0.12427 0.94896 0.16368 0.0
O115 O 0.29516 0.92347 0.4115 0.0
Zn116 Zn 0.33113 0.92984 0.37354 0.0
O117 O 0.36011 0.90194 0.39768 0.0
Zn118 Zn 0.38677 0.92332 0.43817 0.0
Zn119 Zn 0.33922 0.87307 0.43501 0.0
Zn120 Zn 0.37789 0.87969 0.34643 0.0
O121 O 0.42781 0.91231 0.4158 0.0
O122 O 0.42192 0.88975 0.34616 0.0
O123 O 0.34027 0.97275 0.38668 0.0
O124 O 0.37869 0.96806 0.43457 0.0
O125 O 0.38059 0.91197 0.50779 0.0
O126 O 0.34294 0.88073 0.504 0.0
O127 O 0.35174 0.83155 0.42508 0.0
O128 O 0.32119 0.92083 0.30626 0.0
O129 O 0.37575 0.83507 0.35759 0.0
O130 O 0.35334 0.88566 0.28617 0.0
C131 C 0.28362 0.89914 0.42401 0.0
C132 C 0.43844 0.90024 0.37873 0.0
C133 C 0.36125 0.89572 0.52802 0.0
C134 C 0.35942 0.98414 0.41388 0.0
C135 C 0.36526 0.81954 0.39109 0.0
C136 C 0.33121 0.90222 0.27661 0.0
O137 O 0.29723 0.87503 0.41743 0.0
O138 O 0.33395 0.17268 0.60315 0.0
Zn139 Zn 0.32292 0.12776 0.60418 0.0
O140 O 0.34996 0.11112 0.65104 0.0
Zn141 Zn 0.37636 0.08203 0.62585 0.0
Zn142 Zn 0.37467 0.13719 0.68704 0.0
Zn143 Zn 0.3271 0.08782 0.69303 0.0
O144 O 0.37544 0.04624 0.66618 0.0
O145 O 0.32744 0.04746 0.66751 0.0
O146 O 0.32966 0.10404 0.54009 0.0
O147 O 0.3651 0.07267 0.56203 0.0
O148 O 0.41768 0.09454 0.62405 0.0
O149 O 0.41893 0.13143 0.67483 0.0
O150 O 0.3687 0.13113 0.75709 0.0
O151 O 0.27858 0.12313 0.62737 0.0
O152 O 0.34373 0.08878 0.75902 0.0
O153 O 0.28527 0.09899 0.69458 0.0
C154 C 0.34949 0.18864 0.63132 0.0
C155 C 0.35115 0.03427 0.67743 0.0
C156 C 0.43206 0.11359 0.64715 0.0
C157 C 0.34756 0.08258 0.53116 0.0
C158 C 0.35831 0.10906 0.7797 0.0
C159 C 0.26835 0.11155 0.66529 0.0
O160 O 0.36408 0.17735 0.66522 0.0
O161 O 0.19826 0.07351 0.91041 0.0
Zn162 Zn 0.16262 0.06856 0.87082 0.0
O163 O 0.13485 0.09788 0.89369 0.0
Zn164 Zn 0.10743 0.07847 0.93525 0.0
Zn165 Zn 0.1569 0.126 0.93017 0.0
Zn166 Zn 0.11836 0.1202 0.84147 0.0
O167 O 0.06738 0.09056 0.91195 0.0
O168 O 0.07408 0.11106 0.84074 0.0
O169 O 0.15043 0.02634 0.88449 0.0
O170 O 0.11318 0.0335 0.93415 0.0
O171 O 0.11371 0.0907 0.00417 0.0
O172 O 0.15359 0.11897 0.99956 0.0
O173 O 0.14527 0.16766 0.92003 0.0
O174 O 0.17395 0.07707 0.80346 0.0
O175 O 0.12091 0.16469 0.85291 0.0
O176 O 0.14371 0.11345 0.78153 0.0
C177 C 0.21063 0.09777 0.92103 0.0
C178 C 0.05724 0.10195 0.87411 0.0
C179 C 0.13413 0.10566 0.02397 0.0
C180 C 0.13117 0.01621 0.91306 0.0
C181 C 0.13165 0.17993 0.88644 0.0
C182 C 0.16535 0.09596 0.77303 0.0
O183 O 0.19837 0.12208 0.91075 0.0
O184 O 0.82111 0.94765 0.66332 0.0
Zn185 Zn 0.81683 0.91201 0.62309 0.0
O186 O 0.84574 0.88391 0.64639 0.0
Zn187 Zn 0.82566 0.85641 0.68705 0.0
Zn188 Zn 0.8735 0.90623 0.68309 0.0
Zn189 Zn 0.86862 0.8672 0.59516 0.0
O190 O 0.83783 0.81601 0.66428 0.0
O191 O 0.86017 0.82279 0.59457 0.0
O192 O 0.77457 0.90011 0.63525 0.0
O193 O 0.78081 0.86301 0.68551 0.0
O194 O 0.83744 0.86262 0.75588 0.0
O195 O 0.86594 0.90244 0.75205 0.0
O196 O 0.91536 0.8954 0.67343 0.0
O197 O 0.82629 0.92349 0.55626 0.0
O198 O 0.91296 0.87074 0.6065 0.0
O199 O 0.86212 0.8922 0.5355 0.0
C200 C 0.84524 0.96008 0.67425 0.0
C201 C 0.85028 0.80586 0.62723 0.0
C202 C 0.85237 0.88294 0.77601 0.0
C203 C 0.76398 0.88124 0.66401 0.0
C204 C 0.92794 0.88202 0.63982 0.0
C205 C 0.84528 0.91423 0.5265 0.0
O206 O 0.86953 0.94784 0.66398 0.0
O207 O 0.79926 0.07202 0.41273 0.0
Zn208 Zn 0.83532 0.06864 0.37327 0.0
O209 O 0.86235 0.09825 0.39763 0.0
Zn210 Zn 0.88977 0.07882 0.43889 0.0
Zn211 Zn 0.839 0.12568 0.43367 0.0
Zn212 Zn 0.87928 0.12122 0.34676 0.0
O213 O 0.93019 0.09094 0.41609 0.0
O214 O 0.92341 0.11248 0.34581 0.0
O215 O 0.8481 0.02655 0.38546 0.0
O216 O 0.88384 0.03382 0.43758 0.0
O217 O 0.88282 0.09106 0.50745 0.0
O218 O 0.84233 0.11856 0.50302 0.0
O219 O 0.84908 0.16779 0.42357 0.0
O220 O 0.82425 0.07808 0.30629 0.0
O221 O 0.8756 0.16555 0.35831 0.0
O222 O 0.85486 0.11478 0.28694 0.0
C223 C 0.78614 0.09586 0.42354 0.0
C224 C 0.9403 0.10284 0.37853 0.0
C225 C 0.86204 0.1056 0.52728 0.0
C226 C 0.86659 0.01648 0.41519 0.0
C227 C 0.86324 0.18046 0.39082 0.0
C228 C 0.83334 0.09755 0.27715 0.0
O229 O 0.7978 0.12049 0.41335 0.0
O230 O 0.67631 0.05169 0.16345 0.0
Zn231 Zn 0.67964 0.08808 0.12463 0.0
O232 O 0.65026 0.11521 0.14949 0.0
Zn233 Zn 0.66965 0.14265 0.19086 0.0
Zn234 Zn 0.62307 0.09184 0.18582 0.0
Zn235 Zn 0.62725 0.13221 0.09884 0.0
O236 O 0.65731 0.18321 0.16856 0.0
O237 O 0.63573 0.17657 0.09839 0.0
O238 O 0.7216 0.10087 0.13646 0.0
O239 O 0.71454 0.13676 0.18865 0.0
O240 O 0.65782 0.13548 0.25977 0.0
O241 O 0.63037 0.09497 0.25506 0.0
O242 O 0.58107 0.10208 0.17651 0.0
O243 O 0.67019 0.07707 0.05758 0.0
O244 O 0.58309 0.12832 0.11096 0.0
O245 O 0.63351 0.10771 0.03865 0.0
C246 C 0.6525 0.03845 0.17399 0.0
C247 C 0.64531 0.19344 0.13124 0.0
C248 C 0.64337 0.11457 0.27949 0.0
C249 C 0.73176 0.11944 0.16599 0.0
C250 C 0.56832 0.1161 0.1438 0.0
C251 C 0.65071 0.08614 0.02862 0.0
O252 O 0.62787 0.05051 0.16542 0.0
O253 O 0.69587 0.92895 0.91351 0.0
Zn254 Zn 0.66023 0.93264 0.87324 0.0
O255 O 0.63275 0.90307 0.89684 0.0
Zn256 Zn 0.60526 0.92247 0.93821 0.0
Zn257 Zn 0.65572 0.87524 0.93261 0.0
Zn258 Zn 0.61595 0.88042 0.84562 0.0
O259 O 0.56489 0.91031 0.91551 0.0
O260 O 0.57169 0.88896 0.84508 0.0
O261 O 0.64758 0.97478 0.8857 0.0
O262 O 0.6114 0.96746 0.93732 0.0
O263 O 0.61194 0.91 0.00671 0.0
O264 O 0.65209 0.88202 1.0019 0.0
O265 O 0.64559 0.83318 0.92198 0.0
O266 O 0.67181 0.92327 0.80627 0.0
O267 O 0.61957 0.83597 0.85647 0.0
O268 O 0.64074 0.88721 0.78596 0.0
C269 C 0.70864 0.9049 0.9241 0.0
C270 C 0.55478 0.8984 0.87806 0.0
C271 C 0.63251 0.89512 0.02634 0.0
C272 C 0.62895 0.98482 0.91537 0.0
C273 C 0.63165 0.82077 0.88888 0.0
C274 C 0.66263 0.90416 0.7767 0.0
O275 O 0.69703 0.88049 0.91272 0.0
O276 O 0.82276 0.04956 0.84497 0.0
Zn277 Zn 0.81945 0.08529 0.88513 0.0
O278 O 0.84875 0.11271 0.86096 0.0
Zn279 Zn 0.82914 0.14027 0.82013 0.0
Zn280 Zn 0.87605 0.08969 0.82424 0.0
Zn281 Zn 0.87165 0.1295 0.91187 0.0
O282 O 0.84115 0.18062 0.84305 0.0
O283 O 0.86248 0.17384 0.9134 0.0
O284 O 0.7774 0.09811 0.87418 0.0
O285 O 0.78433 0.13432 0.82248 0.0
O286 O 0.84083 0.1337 0.75113 0.0
O287 O 0.86862 0.09339 0.75517 0.0
O288 O 0.91801 0.10011 0.83369 0.0
O289 O 0.82907 0.07354 0.95163 0.0
O290 O 0.91587 0.12649 0.89905 0.0
O291 O 0.86572 0.10401 0.97138 0.0
C292 C 0.84653 0.03649 0.83375 0.0
C293 C 0.85285 0.19078 0.88061 0.0
C294 C 0.85539 0.11303 0.73108 0.0
C295 C 0.76717 0.11689 0.84502 0.0
C296 C 0.9307 0.11442 0.86612 0.0
C297 C 0.84856 0.08228 0.98079 0.0
O298 O 0.87118 0.04815 0.84344 0.0
O299 O 0.69967 0.07182 0.59733 0.0
Zn300 Zn 0.66364 0.06793 0.63678 0.0
O301 O 0.6366 0.0978 0.61294 0.0
Zn302 Zn 0.60908 0.0787 0.57178 0.0
Zn303 Zn 0.65973 0.12541 0.57687 0.0
Zn304 Zn 0.61991 0.12076 0.66407 0.0
O305 O 0.56901 0.08985 0.59667 0.0
O306 O 0.57586 0.1123 0.66601 0.0
O307 O 0.65089 0.02582 0.62357 0.0
O308 O 0.61499 0.03383 0.57203 0.0
O309 O 0.61539 0.09168 0.50314 0.0
O310 O 0.65647 0.11828 0.50759 0.0
O311 O 0.64917 0.1675 0.58657 0.0
O312 O 0.67456 0.07684 0.70405 0.0
O313 O 0.6231 0.16498 0.65223 0.0
O314 O 0.64453 0.11402 0.72351 0.0
C315 C 0.71255 0.09581 0.58655 0.0
C316 C 0.55887 0.10189 0.63409 0.0
C317 C 0.63642 0.1059 0.4833 0.0
C318 C 0.63219 0.01615 0.59386 0.0
C319 C 0.63495 0.18002 0.61938 0.0
C320 C 0.66574 0.09637 0.73327 0.0
O321 O 0.70086 0.1203 0.59746 0.0
O322 O 0.67493 0.9481 0.34325 0.0
Zn323 Zn 0.67787 0.91214 0.38305 0.0
O324 O 0.64748 0.88563 0.35946 0.0
Zn325 Zn 0.66637 0.85826 0.31736 0.0
Zn326 Zn 0.62012 0.90948 0.32415 0.0
Zn327 Zn 0.62462 0.86881 0.41075 0.0
O328 O 0.65405 0.81798 0.33959 0.0
O329 O 0.63285 0.82421 0.41034 0.0
O330 O 0.71966 0.89855 0.37039 0.0
O331 O 0.71136 0.86315 0.31803 0.0
O332 O 0.65404 0.86566 0.24916 0.0
O333 O 0.62662 0.90618 0.25462 0.0
O334 O 0.5779 0.90028 0.33542 0.0
O335 O 0.66919 0.92339 0.45017 0.0
O336 O 0.58008 0.87351 0.40042 0.0
O337 O 0.63241 0.89317 0.47076 0.0
C338 C 0.65125 0.96151 0.33274 0.0
C339 C 0.6423 0.80755 0.377 0.0
C340 C 0.63947 0.88658 0.22987 0.0
C341 C 0.72919 0.87989 0.3404 0.0
C342 C 0.56517 0.88633 0.36835 0.0
C343 C 0.65008 0.9145 0.48002 0.0
O344 O 0.62658 0.95056 0.34434 0.0
O345 O 0.79877 0.92684 0.09402 0.0
Zn346 Zn 0.83505 0.92816 0.1333 0.0
O347 O 0.86073 0.89737 0.10853 0.0
Zn348 Zn 0.88852 0.91591 0.06682 0.0
Zn349 Zn 0.83553 0.87089 0.07379 0.0
Zn350 Zn 0.87753 0.87379 0.15853 0.0
O351 O 0.92887 0.90326 0.08898 0.0
O352 O 0.92198 0.88214 0.15955 0.0
O353 O 0.84957 0.96978 0.12181 0.0
O354 O 0.88381 0.96107 0.06755 0.0
O355 O 0.88083 0.90341 0.99895 0.0
O356 O 0.8394 0.8773 0.00416 0.0
O357 O 0.84277 0.82823 0.08493 0.0
O358 O 0.82365 0.91859 0.20016 0.0
O359 O 0.87331 0.82959 0.14532 0.0
O360 O 0.85265 0.88035 0.21841 0.0
C361 C 0.78431 0.90366 0.08417 0.0
C362 C 0.93897 0.8915 0.12656 0.0
C363 C 0.85956 0.88946 0.97957 0.0
C364 C 0.86777 0.97911 0.09091 0.0
C365 C 0.85838 0.81501 0.11526 0.0
C366 C 0.8318 0.89839 0.22871 0.0
O367 O 0.79476 0.87855 0.09454 0.0
O368 O 0.67309 0.55258 0.8411 0.0
Zn369 Zn 0.67724 0.58819 0.8812 0.0
O370 O 0.64833 0.61612 0.85749 0.0
Zn371 Zn 0.66827 0.64344 0.81632 0.0
Zn372 Zn 0.62052 0.59374 0.82103 0.0
Zn373 Zn 0.62575 0.63289 0.90897 0.0
O374 O 0.65629 0.68393 0.8393 0.0
O375 O 0.63483 0.67714 0.90977 0.0
O376 O 0.71942 0.60039 0.86957 0.0
O377 O 0.71314 0.63708 0.81855 0.0
O378 O 0.65665 0.63669 0.74719 0.0
O379 O 0.62797 0.59705 0.75179 0.0
O380 O 0.57872 0.6046 0.83121 0.0
O381 O 0.6678 0.57653 0.94796 0.0
O382 O 0.58143 0.6296 0.89782 0.0
O383 O 0.63202 0.60782 0.96868 0.0
C384 C 0.64895 0.54007 0.83046 0.0
C385 C 0.64451 0.69406 0.87694 0.0
C386 C 0.64169 0.61624 0.72739 0.0
C387 C 0.73 0.61921 0.84071 0.0
C388 C 0.56631 0.61814 0.86482 0.0
C389 C 0.6488 0.58575 0.9777 0.0
O390 O 0.62464 0.55229 0.84073 0.0
O391 O 0.69476 0.4281 0.09343 0.0
Zn392 Zn 0.65947 0.43237 0.13411 0.0
O393 O 0.63213 0.40242 0.11148 0.0
Zn394 Zn 0.60472 0.42136 0.0698 0.0
Zn395 Zn 0.65505 0.3745 0.07581 0.0
Zn396 Zn 0.61602 0.3799 0.1636 0.0
O397 O 0.56464 0.40909 0.09356 0.0
O398 O 0.57163 0.38827 0.16442 0.0
O399 O 0.64671 0.47433 0.12074 0.0
O400 O 0.61049 0.46645 0.06973 0.0
O401 O 0.61148 0.40837 1.00139 0.0
O402 O 0.65224 0.38133 0.00625 0.0
O403 O 0.64468 0.33254 0.08638 0.0
O404 O 0.67156 0.4239 0.20088 0.0
O405 O 0.61985 0.33533 0.15322 0.0
O406 O 0.6414 0.38735 0.22266 0.0
C407 C 0.70728 0.40376 0.08374 0.0
C408 C 0.55465 0.3974 0.13138 0.0
C409 C 0.63239 0.39391 0.98174 0.0
C410 C 0.62797 0.48407 0.09114 0.0
C411 C 0.63135 0.32012 0.12022 0.0
C412 C 0.66305 0.4048 0.23103 0.0
O413 O 0.69581 0.37978 0.09753 0.0
O414 O 0.87533 0.44778 0.34878 0.0
Zn415 Zn 0.87594 0.40666 0.32607 0.0
O416 O 0.84722 0.38532 0.36259 0.0
Zn417 Zn 0.86943 0.36787 0.41387 0.0
Zn418 Zn 0.81894 0.4139 0.38645 0.0
Zn419 Zn 0.82719 0.35844 0.32102 0.0
O420 O 0.86006 0.32377 0.41373 0.0
O421 O 0.83855 0.31765 0.34335 0.0
O422 O 0.91706 0.39295 0.33392 0.0
O423 O 0.91392 0.37092 0.40313 0.0
O424 O 0.86253 0.39192 0.4743 0.0
O425 O 0.82612 0.42274 0.45493 0.0
O426 O 0.77661 0.40408 0.36946 0.0
O427 O 0.86764 0.40531 0.25678 0.0
O428 O 0.78237 0.36531 0.32235 0.0
O429 O 0.83936 0.36538 0.25221 0.0
C430 C 0.85192 0.46239 0.34182 0.0
C431 C 0.85022 0.30716 0.38076 0.0
C432 C 0.84503 0.41322 0.48446 0.0
C433 C 0.92923 0.38047 0.36869 0.0
C434 C 0.76581 0.38463 0.34196 0.0
C435 C 0.85404 0.3861 0.23237 0.0
O436 O 0.82697 0.45102 0.35143 0.0
O437 O 0.80123 0.62217 0.58679 0.0
Zn438 Zn 0.84366 0.62516 0.57292 0.0
O439 O 0.86388 0.59675 0.61173 0.0
Zn440 Zn 0.88017 0.61971 0.66334 0.0
Zn441 Zn 0.83486 0.56858 0.63442 0.0
Zn442 Zn 0.89162 0.57518 0.57315 0.0
O443 O 0.92437 0.6109 0.66506 0.0
O444 O 0.93168 0.58763 0.59628 0.0
O445 O 0.85443 0.66691 0.58352 0.0
O446 O 0.87681 0.6643 0.65229 0.0
O447 O 0.85492 0.61329 0.72262 0.0
O448 O 0.82299 0.57834 0.70091 0.0
O449 O 0.84583 0.52579 0.62346 0.0
O450 O 0.85002 0.61783 0.50455 0.0
O451 O 0.88509 0.53045 0.57723 0.0
O452 O 0.88634 0.58485 0.50324 0.0
C453 C 0.78821 0.59778 0.57995 0.0
C454 C 0.94149 0.60047 0.63313 0.0
C455 C 0.83247 0.59692 0.73104 0.0
C456 C 0.86659 0.67942 0.6182 0.0
C457 C 0.8657 0.5143 0.59744 0.0
C458 C 0.86817 0.60175 0.482 0.0
O459 O 0.79982 0.57369 0.59344 0.0
O460 O 0.6715 0.44843 0.66319 0.0
Zn461 Zn 0.67601 0.41245 0.62419 0.0
O462 O 0.64657 0.38499 0.64781 0.0
Zn463 Zn 0.66625 0.35778 0.68937 0.0
Zn464 Zn 0.61833 0.40737 0.6839 0.0
Zn465 Zn 0.62451 0.3679 0.59606 0.0
O466 O 0.65463 0.31743 0.66658 0.0
O467 O 0.63423 0.32372 0.59538 0.0
O468 O 0.71813 0.40013 0.63674 0.0
O469 O 0.71112 0.36348 0.68752 0.0
O470 O 0.65427 0.36452 0.75825 0.0
O471 O 0.62497 0.40368 0.75335 0.0
O472 O 0.5765 0.3964 0.67266 0.0
O473 O 0.66756 0.42362 0.55709 0.0
O474 O 0.57997 0.37052 0.60695 0.0
O475 O 0.63129 0.39301 0.53631 0.0
C476 C 0.64754 0.46125 0.67422 0.0
C477 C 0.64357 0.30704 0.62871 0.0
C478 C 0.63883 0.38471 0.77789 0.0
C479 C 0.72834 0.3811 0.66552 0.0
C480 C 0.56447 0.3822 0.63945 0.0
C481 C 0.64863 0.41465 0.52721 0.0
O482 O 0.62295 0.4491 0.66553 0.0
O483 O 0.79347 0.42242 0.90965 0.0
Zn484 Zn 0.82999 0.42844 0.873 0.0
O485 O 0.85837 0.40014 0.89774 0.0
Zn486 Zn 0.88528 0.42117 0.93825 0.0
Zn487 Zn 0.83704 0.37159 0.93517 0.0
Zn488 Zn 0.87619 0.37772 0.84667 0.0
O489 O 0.92621 0.41001 0.91593 0.0
O490 O 0.92027 0.38747 0.84633 0.0
O491 O 0.83945 0.47121 0.88679 0.0
O492 O 0.87764 0.46593 0.93499 0.0
O493 O 0.8792 0.40972 0.0077 0.0
O494 O 0.84105 0.37908 0.0043 0.0
O495 O 0.84911 0.32993 0.92508 0.0
O496 O 0.82052 0.41977 0.80547 0.0
O497 O 0.87378 0.33321 0.85814 0.0
O498 O 0.85188 0.38374 0.78625 0.0
C499 C 0.78146 0.39841 0.92259 0.0
C500 C 0.93682 0.39789 0.87891 0.0
C501 C 0.85972 0.39375 0.02813 0.0
C502 C 0.85862 0.48228 0.91429 0.0
C503 C 0.86288 0.3178 0.89143 0.0
C504 C 0.83023 0.40079 0.77617 0.0
O505 O 0.79497 0.37405 0.91793 0.0
O506 O 0.83521 0.67142 0.10285 0.0
Zn507 Zn 0.82392 0.62664 0.10427 0.0
O508 O 0.85093 0.61013 0.15112 0.0
Zn509 Zn 0.87835 0.5822 0.12525 0.0
Zn510 Zn 0.87505 0.6361 0.18808 0.0
Zn511 Zn 0.82853 0.58545 0.19168 0.0
O512 O 0.87976 0.54696 0.16697 0.0
O513 O 0.83189 0.54563 0.16492 0.0
O514 O 0.83043 0.6025 0.04055 0.0
O515 O 0.86642 0.57166 0.06218 0.0
O516 O 0.9189 0.5967 0.1214 0.0
O517 O 0.91956 0.63067 0.17713 0.0
O518 O 0.86786 0.62995 0.25779 0.0
O519 O 0.77963 0.62227 0.12764 0.0
O520 O 0.84385 0.587 0.25858 0.0
O521 O 0.78625 0.59469 0.19142 0.0
C522 C 0.85051 0.6874 0.13131 0.0
C523 C 0.85587 0.53414 0.17798 0.0
C524 C 0.93297 0.61473 0.14694 0.0
C525 C 0.8484 0.5811 0.03162 0.0
C526 C 0.85748 0.60768 0.27993 0.0
C527 C 0.76934 0.60864 0.16373 0.0
O528 O 0.86464 0.6762 0.16576 0.0
O529 O 0.69932 0.5728 0.41038 0.0
Zn530 Zn 0.6636 0.56838 0.37078 0.0
O531 O 0.63642 0.59835 0.39343 0.0
Zn532 Zn 0.60878 0.5796 0.43532 0.0
Zn533 Zn 0.6591 0.62631 0.42936 0.0
Zn534 Zn 0.62009 0.62062 0.34103 0.0
O535 O 0.56885 0.59201 0.412 0.0
O536 O 0.57573 0.61197 0.34047 0.0
O537 O 0.65066 0.52643 0.3849 0.0
O538 O 0.61386 0.53455 0.43503 0.0
O539 O 0.61531 0.59233 0.50383 0.0
O540 O 0.65576 0.61978 0.49896 0.0
O541 O 0.64809 0.66812 0.41858 0.0
O542 O 0.67488 0.57643 0.30331 0.0
O543 O 0.62307 0.66512 0.35208 0.0
O544 O 0.64521 0.6132 0.28107 0.0
C545 C 0.71206 0.5969 0.4208 0.0
C546 C 0.5588 0.60327 0.374 0.0
C547 C 0.63598 0.60703 0.52349 0.0
C548 C 0.6314 0.51681 0.41391 0.0
C549 C 0.63426 0.68039 0.38519 0.0
C550 C 0.66651 0.5953 0.27268 0.0
O551 O 0.70039 0.62132 0.40943 0.0
O552 O 0.32157 0.4478 0.16373 0.0
Zn553 Zn 0.31723 0.41193 0.12402 0.0
O554 O 0.34608 0.38385 0.14745 0.0
Zn555 Zn 0.32594 0.35617 0.1878 0.0
Zn556 Zn 0.37367 0.40606 0.18452 0.0
Zn557 Zn 0.36924 0.36735 0.09636 0.0
O558 O 0.3387 0.31587 0.16538 0.0
O559 O 0.36125 0.32286 0.09589 0.0
O560 O 0.27497 0.39994 0.13612 0.0
O561 O 0.28106 0.36226 0.18533 0.0
O562 O 0.33698 0.36261 0.25694 0.0
O563 O 0.36561 0.40234 0.25332 0.0
O564 O 0.41561 0.39521 0.17554 0.0
O565 O 0.32668 0.42333 0.05713 0.0
O566 O 0.41349 0.37127 0.10796 0.0
O567 O 0.36277 0.39229 0.0366 0.0
C568 C 0.34572 0.4603 0.1744 0.0
C569 C 0.35144 0.30584 0.12849 0.0
C570 C 0.35177 0.38298 0.27718 0.0
C571 C 0.26428 0.38066 0.16411 0.0
C572 C 0.42834 0.38226 0.14166 0.0
C573 C 0.34581 0.41422 0.02749 0.0
O574 O 0.37004 0.44771 0.16546 0.0
O575 O 0.29927 0.57164 0.91149 0.0
Zn576 Zn 0.33547 0.5682 0.87246 0.0
O577 O 0.36226 0.5981 0.89654 0.0
Zn578 Zn 0.38987 0.57901 0.93792 0.0
Zn579 Zn 0.33884 0.62559 0.93239 0.0
Zn580 Zn 0.37901 0.62097 0.84533 0.0
O581 O 0.43016 0.59123 0.91471 0.0
O582 O 0.42318 0.6125 0.84428 0.0
O583 O 0.34838 0.52623 0.88551 0.0
O584 O 0.38408 0.53395 0.93751 0.0
O585 O 0.38316 0.59179 0.00628 0.0
O586 O 0.34247 0.61898 1.00187 0.0
O587 O 0.34876 0.66771 0.92173 0.0
O588 O 0.32441 0.57714 0.80529 0.0
O589 O 0.3753 0.66533 0.85651 0.0
O590 O 0.35452 0.61418 0.78567 0.0
C591 C 0.28595 0.59538 0.9222 0.0
C592 C 0.44016 0.60309 0.87705 0.0
C593 C 0.36241 0.60636 0.02612 0.0
C594 C 0.36687 0.5164 0.91545 0.0
C595 C 0.36292 0.68032 0.88892 0.0
C596 C 0.33321 0.59665 0.77601 0.0
O597 O 0.29756 0.62012 0.91253 0.0
O598 O 0.17478 0.55031 0.66431 0.0
Zn599 Zn 0.17878 0.58623 0.62466 0.0
O600 O 0.14965 0.61385 0.6489 0.0
Zn601 Zn 0.16926 0.64126 0.68993 0.0
Zn602 Zn 0.12211 0.5911 0.68553 0.0
Zn603 Zn 0.12679 0.63058 0.59789 0.0
O604 O 0.15687 0.68169 0.6673 0.0
O605 O 0.13546 0.67484 0.59702 0.0
O606 O 0.22087 0.59867 0.63647 0.0
O607 O 0.21415 0.63531 0.68741 0.0
O608 O 0.15768 0.63423 0.75902 0.0
O609 O 0.1298 0.59399 0.75474 0.0
O610 O 0.08021 0.60195 0.67648 0.0
O611 O 0.16942 0.5749 0.55777 0.0
O612 O 0.08256 0.62703 0.60982 0.0
O613 O 0.1331 0.60578 0.53803 0.0
C614 C 0.15064 0.53767 0.6748 0.0
C615 C 0.14495 0.69179 0.62983 0.0
C616 C 0.14315 0.61346 0.77898 0.0
C617 C 0.23121 0.61758 0.66528 0.0
C618 C 0.06763 0.61554 0.64314 0.0
C619 C 0.15015 0.58401 0.52848 0.0
O620 O 0.12636 0.54989 0.66454 0.0
O621 O 0.19673 0.42725 0.4114 0.0
Zn622 Zn 0.16043 0.43059 0.37278 0.0
O623 O 0.13354 0.40078 0.39712 0.0
Zn624 Zn 0.10578 0.42003 0.43834 0.0
Zn625 Zn 0.15673 0.37327 0.43328 0.0
Zn626 Zn 0.11674 0.37793 0.34603 0.0
O627 O 0.06553 0.40762 0.41571 0.0
O628 O 0.07243 0.38598 0.34559 0.0
O629 O 0.14758 0.47259 0.38575 0.0
O630 O 0.11153 0.46504 0.43748 0.0
O631 O 0.11222 0.40769 0.50686 0.0
O632 O 0.15249 0.37987 0.50267 0.0
O633 O 0.14702 0.33108 0.42239 0.0
O634 O 0.17147 0.42159 0.3055 0.0
O635 O 0.12074 0.33363 0.35712 0.0
O636 O 0.14113 0.38477 0.28601 0.0
C637 C 0.21009 0.40362 0.42262 0.0
C638 C 0.05547 0.39544 0.37846 0.0
C639 C 0.1327 0.39288 0.52682 0.0
C640 C 0.12894 0.48251 0.41547 0.0
C641 C 0.13306 0.31856 0.38942 0.0
C642 C 0.16255 0.40218 0.27623 0.0
O643 O 0.19832 0.37873 0.41463 0.0
O644 O 0.32464 0.55144 0.34304 0.0
Zn645 Zn 0.32118 0.58689 0.38369 0.0
O646 O 0.35038 0.61451 0.35989 0.0
Zn647 Zn 0.33064 0.64214 0.31917 0.0
Zn648 Zn 0.37783 0.59181 0.32291 0.0
Zn649 Zn 0.37317 0.63109 0.41116 0.0
O650 O 0.34272 0.68246 0.34234 0.0
O651 O 0.36416 0.67551 0.41259 0.0
O652 O 0.27912 0.59954 0.37274 0.0
O653 O 0.28581 0.63599 0.32141 0.0
O654 O 0.34222 0.63573 0.24999 0.0
O655 O 0.37044 0.59572 0.25394 0.0
O656 O 0.41973 0.6023 0.33263 0.0
O657 O 0.33061 0.57487 0.45012 0.0
O658 O 0.41743 0.62801 0.39864 0.0
O659 O 0.36699 0.60545 0.47064 0.0
C660 C 0.34842 0.53857 0.33136 0.0
C661 C 0.35455 0.69253 0.37987 0.0
C662 C 0.35697 0.6152 0.22989 0.0
C663 C 0.26876 0.61833 0.34373 0.0
C664 C 0.43234 0.61628 0.36549 0.0
C665 C 0.34986 0.58361 0.47965 0.0
O666 O 0.37307 0.55015 0.34126 0.0
O667 O 0.19998 0.57087 0.09652 0.0
Zn668 Zn 0.16418 0.56753 0.13665 0.0
O669 O 0.13731 0.59757 0.11273 0.0
Zn670 Zn 0.1096 0.57864 0.07185 0.0
Zn671 Zn 0.16062 0.62487 0.07637 0.0
Zn672 Zn 0.12092 0.6208 0.16377 0.0
O673 O 0.06973 0.59054 0.09664 0.0
O674 O 0.07677 0.61276 0.16611 0.0
O675 O 0.15086 0.52547 0.12417 0.0
O676 O 0.11494 0.53369 0.07273 0.0
O677 O 0.11604 0.59122 1.00306 0.0
O678 O 0.15732 0.61752 0.00706 0.0
O679 O 0.15051 0.66711 0.08581 0.0
O680 O 0.17564 0.57688 0.20361 0.0
O681 O 0.12445 0.66492 0.15151 0.0
O682 O 0.14578 0.61422 0.22297 0.0
C683 C 0.21294 0.59482 0.08574 0.0
C684 C 0.05969 0.6027 0.13403 0.0
C685 C 0.13714 0.60518 0.98297 0.0
C686 C 0.13195 0.5159 0.09469 0.0
C687 C 0.13643 0.67981 0.1186 0.0
C688 C 0.16705 0.59663 0.23265 0.0
O689 O 0.20158 0.6193 0.09746 0.0
O690 O 0.17189 0.44815 0.84517 0.0
Zn691 Zn 0.17581 0.41197 0.88401 0.0
O692 O 0.14589 0.38499 0.86047 0.0
Zn693 Zn 0.16525 0.35757 0.81884 0.0
Zn694 Zn 0.11824 0.40805 0.82439 0.0
Zn695 Zn 0.12312 0.36823 0.912 0.0
O696 O 0.15304 0.31732 0.84137 0.0
O697 O 0.13138 0.32365 0.91174 0.0
O698 O 0.21777 0.39935 0.87047 0.0
O699 O 0.2102 0.36297 0.81954 0.0
O700 O 0.15316 0.36438 0.75037 0.0
O701 O 0.12512 0.4045 0.75494 0.0
O702 O 0.07617 0.398 0.83525 0.0
O703 O 0.16754 0.42282 0.95136 0.0
O704 O 0.07859 0.37261 0.9016 0.0
O705 O 0.13079 0.39263 0.97207 0.0
C706 C 0.14809 0.46123 0.83421 0.0
C707 C 0.14103 0.30695 0.87861 0.0
C708 C 0.13838 0.38498 0.7306 0.0
C709 C 0.22767 0.38047 0.84114 0.0
C710 C 0.06358 0.38455 0.86882 0.0
C711 C 0.14851 0.41391 0.98132 0.0
O712 O 0.12343 0.44948 0.84378 0.0
O713 O 0.29829 0.42912 0.59362 0.0
Zn714 Zn 0.33416 0.43013 0.63396 0.0
O715 O 0.3596 0.39888 0.60947 0.0
Zn716 Zn 0.3874 0.41694 0.56753 0.0
Zn717 Zn 0.33399 0.3725 0.57527 0.0
Zn718 Zn 0.3761 0.37521 0.65949 0.0
O719 O 0.42762 0.40403 0.58978 0.0
O720 O 0.42058 0.38334 0.66065 0.0
O721 O 0.34924 0.47163 0.62228 0.0
O722 O 0.3831 0.46214 0.56772 0.0
O723 O 0.37934 0.40407 0.5 0.0
O724 O 0.33731 0.37893 0.50546 0.0
O725 O 0.34085 0.32973 0.58631 0.0
O726 O 0.32226 0.42047 0.70067 0.0
O727 O 0.37169 0.33099 0.64631 0.0
O728 O 0.35101 0.38204 0.71905 0.0
C729 C 0.28406 0.40571 0.58434 0.0
C730 C 0.43763 0.39239 0.62754 0.0
C731 C 0.35773 0.39056 0.48076 0.0
C732 C 0.36742 0.48054 0.59101 0.0
C733 C 0.35655 0.31644 0.61646 0.0
C734 C 0.33018 0.40014 0.72918 0.0
O735 O 0.29394 0.38109 0.59825 0.0
C736 C 0.27605 0.13731 0.30115 0.0
C737 C 0.26126 0.11392 0.32368 0.0
H738 H 0.31155 0.15009 0.25533 0.0
C739 C 0.2741 0.08553 0.32236 0.0
H740 H 0.2667 0.15936 0.3013 0.0
C741 C 0.29925 0.08007 0.29491 0.0
C742 C 0.3128 0.10308 0.26974 0.0
H743 H 0.26319 0.06691 0.33893 0.0
H744 H 0.30699 0.05753 0.29095 0.0
C745 C 0.30186 0.13201 0.27504 0.0
C746 C 0.16558 0.05083 0.54412 0.0
C747 C 0.14268 0.06412 0.51848 0.0
H748 H 0.17861 0.01524 0.58915 0.0
C749 C 0.11379 0.05316 0.52397 0.0
H750 H 0.18808 0.05858 0.5401 0.0
C751 C 0.10844 0.02761 0.55076 0.0
C752 C 0.13172 0.01307 0.57382 0.0
H753 H 0.09578 0.06264 0.50397 0.0
H754 H 0.08643 0.01824 0.55109 0.0
C755 C 0.16006 0.02595 0.57222 0.0
C756 C 0.22086 0.91351 0.82306 0.0
C757 C 0.23398 0.88525 0.8246 0.0
H758 H 0.18777 0.94117 0.79156 0.0
C759 C 0.21951 0.86173 0.80197 0.0
H760 H 0.23149 0.93223 0.83969 0.0
C761 C 0.19375 0.86677 0.77574 0.0
C762 C 0.18246 0.89558 0.77035 0.0
H763 H 0.22905 0.83976 0.80228 0.0
H764 H 0.18433 0.84857 0.75608 0.0
C765 C 0.19574 0.91871 0.79551 0.0
C766 C 0.37985 0.94206 0.03235 0.0
C767 C 0.35077 0.93218 0.0248 0.0
H768 H 0.40759 0.97615 0.06073 0.0
C769 C 0.32763 0.94635 0.04881 0.0
H770 H 0.39812 0.93186 0.0138 0.0
C771 C 0.33316 0.97127 0.07672 0.0
C772 C 0.36183 0.98324 0.07989 0.0
H773 H 0.305 0.93939 0.0434 0.0
H774 H 0.31448 0.98274 0.09208 0.0
C775 C 0.38528 0.96758 0.05906 0.0
C776 C 0.30086 0.86644 0.23097 0.0
C777 C 0.31206 0.89529 0.23591 0.0
H778 H 0.26562 0.83929 0.20482 0.0
C779 C 0.29902 0.91822 0.20994 0.0
H780 H 0.31014 0.84842 0.25127 0.0
C781 C 0.274 0.91285 0.1823 0.0
C782 C 0.2608 0.88463 0.18151 0.0
H783 H 0.30695 0.94071 0.21358 0.0
H784 H 0.26344 0.93146 0.16522 0.0
C785 C 0.27522 0.86123 0.20461 0.0
C786 C 0.38037 0.03202 0.44255 0.0
C787 C 0.35571 0.01537 0.4293 0.0
H788 H 0.39661 0.06838 0.48278 0.0
C789 C 0.32731 0.0266 0.43961 0.0
H790 H 0.40246 0.0241 0.43497 0.0
C791 C 0.32387 0.05188 0.46802 0.0
C792 C 0.34881 0.06655 0.48567 0.0
H793 H 0.30781 0.01414 0.43001 0.0
H794 H 0.302 0.05786 0.48027 0.0
C795 C 0.37692 0.05757 0.46967 0.0
C796 C 0.19957 0.07646 0.71143 0.0
C797 C 0.18481 0.10072 0.73137 0.0
H798 H 0.23716 0.06131 0.6726 0.0
C799 C 0.19424 0.12943 0.71895 0.0
H800 H 0.19301 0.05411 0.72039 0.0
C801 C 0.21997 0.1336 0.69166 0.0
C802 C 0.23629 0.10912 0.67576 0.0
H803 H 0.18362 0.14859 0.73435 0.0
H804 H 0.22859 0.15576 0.68704 0.0
C805 C 0.22485 0.08063 0.68381 0.0
C806 C 0.16709 0.94686 0.96016 0.0
C807 C 0.14374 0.9338 0.98523 0.0
H808 H 0.18109 0.98246 0.91576 0.0
C809 C 0.11504 0.94508 0.97908 0.0
H810 H 0.18945 0.93885 0.96466 0.0
C811 C 0.11032 0.97077 0.95235 0.0
C812 C 0.13407 0.98515 0.93005 0.0
H813 H 0.09669 0.93579 0.9986 0.0
H814 H 0.08842 0.98039 0.95157 0.0
C815 C 0.16221 0.97192 0.93215 0.0
C816 C 0.718 0.86216 0.70386 0.0
C817 C 0.73313 0.88527 0.68115 0.0
H818 H 0.68264 0.85002 0.75037 0.0
C819 C 0.72094 0.91395 0.68304 0.0
H820 H 0.72683 0.8399 0.70329 0.0
C821 C 0.69617 0.9199 0.71115 0.0
C822 C 0.68233 0.89713 0.7365 0.0
H823 H 0.73209 0.93237 0.66635 0.0
H824 H 0.68896 0.94259 0.71538 0.0
C825 C 0.69257 0.86797 0.73065 0.0
C826 C 0.83491 0.97247 0.43308 0.0
C827 C 0.86321 0.98544 0.43196 0.0
H828 H 0.80687 0.93959 0.46447 0.0
C829 C 0.88646 0.97083 0.455 0.0
H830 H 0.8164 0.98323 0.41615 0.0
C831 C 0.88109 0.94511 0.48134 0.0
C832 C 0.85221 0.93404 0.48641 0.0
H833 H 0.90844 0.98029 0.45503 0.0
H834 H 0.89905 0.93559 0.5014 0.0
C835 C 0.82937 0.9474 0.46075 0.0
C836 C 0.77554 0.08753 0.18345 0.0
C837 C 0.76274 0.11594 0.18245 0.0
H838 H 0.8081 0.05923 0.21484 0.0
C839 C 0.77738 0.13915 0.20553 0.0
H840 H 0.76474 0.06905 0.16643 0.0
C841 C 0.80293 0.1336 0.23194 0.0
C842 C 0.81376 0.1046 0.23701 0.0
H843 H 0.76805 0.16121 0.20562 0.0
H844 H 0.81247 0.15154 0.25207 0.0
C845 C 0.80043 0.08181 0.21118 0.0
C846 C 0.60931 0.03025 0.95619 0.0
C847 C 0.6325 0.01571 0.93274 0.0
H848 H 0.59685 0.06513 1.00336 0.0
C849 C 0.66088 0.0285 0.93407 0.0
H850 H 0.58727 0.02094 0.95609 0.0
C851 C 0.66653 0.05328 0.96227 0.0
C852 C 0.64373 0.06654 0.98831 0.0
H853 H 0.67936 0.0178 0.91682 0.0
H854 H 0.68907 0.06094 0.96602 0.0
C855 C 0.6148 0.05568 0.98308 0.0
C856 C 0.72342 0.08518 0.82685 0.0
C857 C 0.73617 0.11359 0.8287 0.0
H858 H 0.69093 0.05727 0.79453 0.0
C859 C 0.7215 0.13708 0.80634 0.0
H860 H 0.73424 0.0665 0.84332 0.0
C861 C 0.696 0.13186 0.77969 0.0
C862 C 0.68527 0.10291 0.77365 0.0
H863 H 0.7308 0.15915 0.80693 0.0
H864 H 0.68646 0.15005 0.7601 0.0
C865 C 0.69857 0.07981 0.79888 0.0
C866 C 0.663 0.97187 0.57392 0.0
C867 C 0.63491 0.98518 0.57662 0.0
H868 H 0.68998 0.93885 0.54064 0.0
C869 C 0.61103 0.97103 0.55454 0.0
H870 H 0.68196 0.98229 0.59011 0.0
C871 C 0.61555 0.94545 0.52752 0.0
C872 C 0.64417 0.93407 0.5208 0.0
H873 H 0.58919 0.98077 0.55575 0.0
H874 H 0.59707 0.93633 0.50822 0.0
C875 C 0.66767 0.94693 0.54559 0.0
C876 C 0.79982 0.86334 0.27357 0.0
C877 C 0.81182 0.8919 0.26882 0.0
H878 H 0.76387 0.83702 0.29976 0.0
C879 C 0.79931 0.91508 0.29496 0.0
H880 H 0.80868 0.84514 0.2532 0.0
C881 C 0.77414 0.91024 0.32272 0.0
C882 C 0.76025 0.88236 0.3235 0.0
H883 H 0.80787 0.93735 0.29155 0.0
H884 H 0.76405 0.92905 0.34001 0.0
C885 C 0.77403 0.8587 0.30004 0.0
C886 C 0.83254 0.04971 0.04733 0.0
C887 C 0.85543 0.06217 0.0205 0.0
H888 H 0.81894 0.01437 0.09256 0.0
C889 C 0.8839 0.0499 0.02397 0.0
H890 H 0.81032 0.05845 0.04481 0.0
C891 C 0.8887 0.02394 0.04998 0.0
C892 C 0.86531 0.01027 0.07427 0.0
H893 H 0.90185 0.05871 1.00295 0.0
H894 H 0.91026 0.01359 0.04875 0.0
C895 C 0.83756 0.02439 0.07467 0.0
C896 C 0.77378 0.5871 0.82375 0.0
C897 C 0.76108 0.61556 0.82453 0.0
H898 H 0.80653 0.55869 0.79292 0.0
C899 C 0.77606 0.63873 0.80168 0.0
H900 H 0.76276 0.56864 0.8406 0.0
C901 C 0.80185 0.63309 0.77573 0.0
C902 C 0.81262 0.60405 0.77091 0.0
H903 H 0.76684 0.66083 0.80144 0.0
H904 H 0.81167 0.65098 0.75573 0.0
C905 C 0.79893 0.5813 0.79647 0.0
C906 C 0.66482 0.55299 0.04392 0.0
C907 C 0.64193 0.566 0.01792 0.0
H908 H 0.67797 0.51765 0.08937 0.0
C909 C 0.61314 0.55472 0.02303 0.0
H910 H 0.68727 0.56096 0.04018 0.0
C911 C 0.6079 0.52917 0.04989 0.0
C912 C 0.6312 0.51494 0.07341 0.0
H913 H 0.59515 0.56397 1.00272 0.0
H914 H 0.58598 0.51958 0.04998 0.0
C915 C 0.65941 0.5281 0.07209 0.0
C916 C 0.69382 0.36971 0.27793 0.0
C917 C 0.68326 0.39866 0.27091 0.0
H918 H 0.72855 0.34244 0.30561 0.0
C919 C 0.69733 0.42203 0.29441 0.0
H920 H 0.68376 0.3513 0.25962 0.0
C921 C 0.72253 0.41685 0.32177 0.0
C922 C 0.73491 0.38831 0.32486 0.0
H923 H 0.68991 0.44458 0.28924 0.0
H924 H 0.73376 0.43567 0.33704 0.0
C925 C 0.71963 0.36464 0.30403 0.0
C926 C 0.83334 0.47109 0.57793 0.0
C927 C 0.86195 0.48317 0.58133 0.0
H928 H 0.80539 0.43924 0.5441 0.0
C929 C 0.88552 0.46769 0.56047 0.0
H930 H 0.81459 0.48245 0.59326 0.0
C931 C 0.88025 0.44224 0.53353 0.0
C932 C 0.85123 0.43227 0.52574 0.0
H933 H 0.90777 0.47639 0.56229 0.0
H934 H 0.8986 0.4322 0.51495 0.0
C935 C 0.82798 0.44625 0.54975 0.0
C936 C 0.77377 0.36036 0.70441 0.0
C937 C 0.7595 0.38393 0.68152 0.0
H938 H 0.8087 0.34717 0.75076 0.0
C939 C 0.77302 0.412 0.68215 0.0
H940 H 0.76395 0.33853 0.70469 0.0
C941 C 0.79819 0.4171 0.70955 0.0
C942 C 0.81105 0.39403 0.73545 0.0
H943 H 0.76259 0.43073 0.66519 0.0
H944 H 0.80635 0.4395 0.71314 0.0
C945 C 0.79956 0.36529 0.73054 0.0
C946 C 0.87716 0.55539 0.9701 0.0
C947 C 0.84923 0.56468 0.98645 0.0
H948 H 0.90215 0.52172 0.93494 0.0
C949 C 0.82404 0.55028 0.96918 0.0
H950 H 0.89704 0.56603 0.98287 0.0
C951 C 0.82705 0.52498 0.94067 0.0
C952 C 0.85528 0.51349 0.9299 0.0
H953 H 0.8023 0.55651 0.98169 0.0
H954 H 0.80738 0.51272 0.93132 0.0
C955 C 0.88019 0.52986 0.94287 0.0
C956 C 0.72118 0.63144 0.18969 0.0
C957 C 0.73732 0.6066 0.17474 0.0
H958 H 0.68505 0.6473 0.23204 0.0
C959 C 0.72563 0.57832 0.18374 0.0
H960 H 0.72995 0.65346 0.18419 0.0
C961 C 0.70035 0.57474 0.21151 0.0
C962 C 0.68586 0.59939 0.23074 0.0
H963 H 0.73772 0.55875 0.17305 0.0
H964 H 0.6936 0.55257 0.22119 0.0
C965 C 0.69548 0.62785 0.21727 0.0
C966 C 0.66616 0.44691 0.46126 0.0
C967 C 0.64265 0.43435 0.4866 0.0
H968 H 0.68069 0.48213 0.4165 0.0
C969 C 0.61417 0.4462 0.48071 0.0
H970 H 0.68838 0.43848 0.4656 0.0
C971 C 0.60985 0.47192 0.45388 0.0
C972 C 0.63378 0.48578 0.43123 0.0
H973 H 0.59572 0.43731 0.50048 0.0
H974 H 0.58814 0.48198 0.45326 0.0
C975 C 0.66167 0.472 0.43315 0.0
C976 C 0.19276 0.3664 0.22983 0.0
C977 C 0.18221 0.39544 0.23585 0.0
H978 H 0.22738 0.33878 0.20254 0.0
C979 C 0.19584 0.41841 0.21067 0.0
H980 H 0.18299 0.3483 0.2494 0.0
C981 C 0.22075 0.41281 0.18271 0.0
C982 C 0.23328 0.38429 0.18079 0.0
H983 H 0.18838 0.44102 0.21501 0.0
H984 H 0.23175 0.43141 0.16623 0.0
C985 C 0.21831 0.36094 0.20317 0.0
C986 C 0.38154 0.44534 0.9825 0.0
C987 C 0.35272 0.43409 0.98743 0.0
H988 H 0.40877 0.48059 0.95609 0.0
C989 C 0.32987 0.4473 0.96161 0.0
H990 H 0.39951 0.43595 1.00269 0.0
C991 C 0.33534 0.47234 0.93381 0.0
C992 C 0.36357 0.48545 0.93271 0.0
H993 H 0.3074 0.43937 0.96523 0.0
H994 H 0.3168 0.48295 0.91669 0.0
C995 C 0.38684 0.47103 0.95602 0.0
C996 C 0.277 0.63761 0.70395 0.0
C997 C 0.26225 0.6142 0.68156 0.0
H998 H 0.31226 0.65043 0.74984 0.0
C999 C 0.27506 0.5858 0.68307 0.0
H1000 H 0.26768 0.65968 0.70361 0.0
C1001 C 0.30007 0.58034 0.71067 0.0
C1002 C 0.31349 0.60335 0.73587 0.0
H1003 H 0.2642 0.56717 0.66658 0.0
H1004 H 0.30776 0.5578 0.71476 0.0
C1005 C 0.30265 0.63231 0.73022 0.0
C1006 C 0.16616 0.55115 0.46229 0.0
C1007 C 0.14328 0.56434 0.48825 0.0
H1008 H 0.17919 0.51569 0.41698 0.0
C1009 C 0.1144 0.55334 0.48304 0.0
H1010 H 0.18866 0.55893 0.46607 0.0
C1011 C 0.10905 0.52785 0.45621 0.0
C1012 C 0.13233 0.5134 0.43283 0.0
H1013 H 0.09641 0.56273 0.50328 0.0
H1014 H 0.08706 0.51843 0.45611 0.0
C1015 C 0.16064 0.52633 0.43416 0.0
C1016 C 0.2004 0.58054 0.29792 0.0
C1017 C 0.18685 0.60345 0.2726 0.0
H1018 H 0.23623 0.56767 0.34231 0.0
C1019 C 0.19743 0.6325 0.27824 0.0
H1020 H 0.19289 0.55794 0.29387 0.0
C1021 C 0.22295 0.63801 0.30469 0.0
C1022 C 0.23781 0.61472 0.32727 0.0
H1023 H 0.1877 0.65054 0.25855 0.0
H1024 H 0.23208 0.66015 0.30505 0.0
C1025 C 0.22527 0.58621 0.32571 0.0
C1026 C 0.16646 0.446 0.04703 0.0
C1027 C 0.1428 0.43345 0.02221 0.0
H1028 H 0.18122 0.48124 0.0914 0.0
C1029 C 0.11434 0.44525 0.02884 0.0
H1030 H 0.18866 0.43761 0.04214 0.0
C1031 C 0.11017 0.47094 0.05574 0.0
C1032 C 0.13424 0.4848 0.07778 0.0
H1033 H 0.09577 0.43637 0.00951 0.0
H1034 H 0.08847 0.48099 0.05684 0.0
C1035 C 0.16212 0.47106 0.07525 0.0
C1036 C 0.29701 0.41676 0.79467 0.0
C1037 C 0.31005 0.39362 0.76911 0.0
H1038 H 0.26144 0.43039 0.83935 0.0
C1039 C 0.29863 0.36486 0.7745 0.0
H1040 H 0.30512 0.43917 0.79082 0.0
C1041 C 0.27292 0.35991 0.80104 0.0
C1042 C 0.25864 0.38347 0.82396 0.0
H1043 H 0.30791 0.34664 0.75462 0.0
H1044 H 0.26324 0.338 0.8013 0.0
C1045 C 0.27192 0.41164 0.82249 0.0
C1046 C 0.33787 0.52619 0.57406 0.0
C1047 C 0.36542 0.51166 0.57395 0.0
H1048 H 0.31119 0.56052 0.54374 0.0
C1049 C 0.38902 0.52488 0.54954 0.0
H1050 H 0.31909 0.51652 0.59202 0.0
C1051 C 0.38465 0.5508 0.52322 0.0
C1052 C 0.35638 0.56351 0.51955 0.0
H1053 H 0.41043 0.5142 0.54849 0.0
H1054 H 0.40275 0.55925 0.50216 0.0
C1055 C 0.33327 0.55147 0.54643 0.0
C1056 C 0.13725 0.26892 0.42786 0.0
C1057 C 0.1336 0.28596 0.38686 0.0
H1058 H 0.14342 0.2256 0.45712 0.0
C1059 C 0.13307 0.27172 0.3431 0.0
H1060 H 0.13777 0.27939 0.46208 0.0
C1061 C 0.13713 0.24116 0.34023 0.0
C1062 C 0.1411 0.22413 0.38114 0.0
H1063 H 0.13057 0.2843 0.31093 0.0
H1064 H 0.13703 0.23084 0.30589 0.0
C1065 C 0.14056 0.23821 0.42507 0.0
C1066 C 0.00785 0.88949 0.6768 0.0
C1067 C 0.02216 0.8911 0.63309 0.0
H1068 H 0.96655 0.88542 0.71316 0.0
C1069 C 0.00548 0.8875 0.59181 0.0
H1070 H 0.02017 0.892 0.70913 0.0
C1071 C 0.97503 0.88292 0.5941 0.0
C1072 C 0.96051 0.8825 0.63768 0.0
H1073 H 0.01599 0.88818 0.55758 0.0
H1074 H 0.96271 0.88086 0.56167 0.0
C1075 C 0.97722 0.88562 0.67905 0.0
C1076 C 0.35566 0.76039 0.92585 0.0
C1077 C 0.3549 0.77478 0.88215 0.0
H1078 H 0.35865 0.71897 0.96218 0.0
C1079 C 0.35875 0.75805 0.84091 0.0
H1080 H 0.35291 0.77277 0.95815 0.0
C1081 C 0.36286 0.72748 0.84324 0.0
C1082 C 0.36252 0.71293 0.88679 0.0
H1083 H 0.35867 0.76863 0.80673 0.0
H1084 H 0.36523 0.71511 0.81085 0.0
C1085 C 0.35903 0.72968 0.9281 0.0
C1086 C 0.48852 0.10725 0.18083 0.0
C1087 C 0.47445 0.10517 0.13709 0.0
H1088 H 0.52962 0.11225 0.21723 0.0
C1089 C 0.49119 0.10898 0.09581 0.0
H1090 H 0.47608 0.10463 0.21314 0.0
C1091 C 0.52151 0.11423 0.09812 0.0
C1092 C 0.53581 0.1151 0.14173 0.0
H1093 H 0.48081 0.10797 0.06157 0.0
H1094 H 0.53391 0.11643 0.0657 0.0
C1095 C 0.51905 0.11174 0.18311 0.0
C1096 C 0.1378 0.75776 0.16557 0.0
C1097 C 0.14192 0.77445 0.12433 0.0
H1098 H 0.13201 0.71483 0.19592 0.0
C1099 C 0.1424 0.75993 0.08078 0.0
H1100 H 0.13694 0.76843 0.19963 0.0
C1101 C 0.13998 0.7291 0.07876 0.0
C1102 C 0.13624 0.71242 0.12016 0.0
H1103 H 0.14541 0.77229 0.04849 0.0
H1104 H 0.14127 0.71828 0.04486 0.0
C1105 C 0.13466 0.72711 0.16347 0.0
C1106 C 0.51812 0.88824 0.41449 0.0
C1107 C 0.53257 0.88743 0.37084 0.0
H1108 H 0.47714 0.89375 0.45108 0.0
C1109 C 0.51578 0.89049 0.32954 0.0
H1110 H 0.53052 0.88628 0.44687 0.0
C1111 C 0.48514 0.89437 0.33187 0.0
C1112 C 0.47083 0.89614 0.37558 0.0
H1113 H 0.52639 0.89004 0.29539 0.0
H1114 H 0.47276 0.8966 0.29953 0.0
C1115 C 0.48762 0.89291 0.41685 0.0
C1116 C 0.33767 0.26735 0.58727 0.0
C1117 C 0.35577 0.28363 0.61821 0.0
H1118 H 0.32131 0.22464 0.56694 0.0
C1119 C 0.37208 0.26831 0.65218 0.0
H1120 H 0.32474 0.27847 0.56061 0.0
C1121 C 0.37004 0.23763 0.65577 0.0
C1122 C 0.35159 0.22126 0.6255 0.0
H1123 H 0.38622 0.28002 0.67653 0.0
H1124 H 0.38291 0.22681 0.68282 0.0
C1125 C 0.33561 0.23648 0.59088 0.0
C1126 C 0.00857 0.11116 0.91245 0.0
C1127 C 0.02502 0.10662 0.87105 0.0
H1128 H 0.96594 0.11809 0.94319 0.0
C1129 C 0.01044 0.10692 0.82762 0.0
H1130 H 0.01931 0.11149 0.94644 0.0
C1131 C 0.97975 0.11035 0.82588 0.0
C1132 C 0.96327 0.11434 0.86743 0.0
H1133 H 0.02261 0.10366 0.79521 0.0
H1134 H 0.96885 0.10951 0.79205 0.0
C1135 C 0.97806 0.1153 0.91062 0.0
C1136 C 0.85784 0.75681 0.6659 0.0
C1137 C 0.85552 0.77362 0.62438 0.0
H1138 H 0.86415 0.71398 0.69652 0.0
C1139 C 0.85916 0.75945 0.58089 0.0
H1140 H 0.85562 0.76719 0.70003 0.0
C1141 C 0.86379 0.72888 0.57895 0.0
C1142 C 0.86563 0.71204 0.62049 0.0
H1143 H 0.85772 0.77185 0.54838 0.0
H1144 H 0.86555 0.71832 0.54489 0.0
C1145 C 0.86315 0.7264 0.66399 0.0
C1146 C 0.01997 0.11537 0.41272 0.0
C1147 C 0.03413 0.11565 0.36884 0.0
H1148 H 0.97924 0.11037 0.45007 0.0
C1149 C 0.01711 0.11251 0.32783 0.0
H1150 H 0.03256 0.11743 0.44489 0.0
C1151 C 0.9865 0.10881 0.33072 0.0
C1152 C 0.97251 0.10737 0.37472 0.0
H1153 H 0.02753 0.11258 0.29352 0.0
H1154 H 0.97391 0.10632 0.29863 0.0
C1155 C 0.98951 0.11094 0.41566 0.0
C1156 C 0.63285 0.27319 0.16656 0.0
C1157 C 0.63197 0.28749 0.12283 0.0
H1158 H 0.63848 0.23232 0.20337 0.0
C1159 C 0.63471 0.27053 0.08159 0.0
H1160 H 0.6311 0.28572 0.19889 0.0
C1161 C 0.6386 0.23987 0.08407 0.0
C1162 C 0.64062 0.22573 0.12787 0.0
H1163 H 0.63417 0.28103 0.04736 0.0
H1164 H 0.64077 0.22736 0.05179 0.0
C1165 C 0.63746 0.24267 0.16907 0.0
C1166 C 0.47545 0.88473 0.91402 0.0
C1167 C 0.46106 0.88395 0.87045 0.0
H1168 H 0.51626 0.89066 0.95045 0.0
C1169 C 0.47784 0.88713 0.82905 0.0
H1170 H 0.46305 0.88266 0.94648 0.0
C1171 C 0.5084 0.8914 0.83124 0.0
C1172 C 0.52259 0.89337 0.87492 0.0
H1173 H 0.46725 0.8867 0.79495 0.0
H1174 H 0.52079 0.89392 0.79886 0.0
C1175 C 0.50585 0.88972 0.91625 0.0
C1176 C 0.86381 0.27076 0.84556 0.0
C1177 C 0.86343 0.28515 0.8892 0.0
H1178 H 0.86011 0.22972 0.80879 0.0
C1179 C 0.86065 0.26814 0.93045 0.0
H1180 H 0.86566 0.28327 0.8132 0.0
C1181 C 0.85784 0.23735 0.92802 0.0
C1182 C 0.85696 0.22313 0.88422 0.0
H1183 H 0.86028 0.2787 0.96461 0.0
H1184 H 0.8555 0.22479 0.96025 0.0
C1185 C 0.86027 0.24012 0.84308 0.0
C1186 C 0.48292 0.12576 0.67741 0.0
C1187 C 0.46461 0.11286 0.64328 0.0
H1188 H 0.52728 0.13206 0.70191 0.0
C1189 C 0.47761 0.09665 0.60654 0.0
H1190 H 0.47351 0.13818 0.70632 0.0
C1191 C 0.50803 0.09289 0.60424 0.0
C1192 C 0.52647 0.10528 0.63859 0.0
H1193 H 0.46422 0.08645 0.57951 0.0
H1194 H 0.51701 0.08014 0.57537 0.0
C1195 C 0.51364 0.12195 0.67513 0.0
C1196 C 0.635 0.75856 0.33855 0.0
C1197 C 0.63838 0.77517 0.38 0.0
H1198 H 0.63023 0.71562 0.30778 0.0
C1199 C 0.63823 0.76051 0.42346 0.0
H1200 H 0.63464 0.76933 0.30452 0.0
C1201 C 0.63611 0.72965 0.42521 0.0
C1202 C 0.63334 0.71302 0.38362 0.0
H1203 H 0.64068 0.77277 0.45591 0.0
H1204 H 0.63701 0.71875 0.45911 0.0
C1205 C 0.63218 0.72784 0.34036 0.0
C1206 C 0.98838 0.8837 0.08937 0.0
C1207 C 0.97129 0.88737 0.13033 0.0
H1208 H 0.0316 0.87817 0.05985 0.0
C1209 C 0.98539 0.88703 0.17419 0.0
H1210 H 0.97806 0.88348 0.05505 0.0
C1211 C 0.01615 0.88442 0.17684 0.0
C1212 C 0.03327 0.88126 0.13576 0.0
H1213 H 0.97277 0.88969 0.2063 0.0
H1214 H 0.0266 0.8852 0.21103 0.0
C1215 C 0.019 0.88033 0.09208 0.0
C1216 C 0.63898 0.74042 0.92459 0.0
C1217 C 0.64014 0.72637 0.88067 0.0
H1218 H 0.63551 0.78156 0.96158 0.0
C1219 C 0.63649 0.7434 0.83968 0.0
H1220 H 0.64156 0.72782 0.95671 0.0
C1221 C 0.63218 0.77394 0.84247 0.0
C1222 C 0.63213 0.78816 0.88626 0.0
H1223 H 0.63686 0.7331 0.80532 0.0
H1224 H 0.62999 0.78654 0.81026 0.0
C1225 C 0.63541 0.77111 0.92733 0.0
C1226 C 0.50579 0.38861 0.09356 0.0
C1227 C 0.52248 0.39232 0.13481 0.0
H1228 H 0.46308 0.38159 0.06348 0.0
C1229 C 0.50822 0.39049 0.17855 0.0
H1230 H 0.51625 0.38944 0.05931 0.0
C1231 C 0.47763 0.38629 0.18086 0.0
C1232 C 0.46092 0.38307 0.13951 0.0
H1233 H 0.52055 0.39306 0.21086 0.0
H1234 H 0.46699 0.38592 0.21499 0.0
C1235 C 0.47539 0.38372 0.0959 0.0
C1236 C 0.85824 0.2581 0.34273 0.0
C1237 C 0.85445 0.27484 0.38397 0.0
H1238 H 0.86496 0.21519 0.31269 0.0
C1239 C 0.85553 0.2605 0.42769 0.0
H1240 H 0.85795 0.26864 0.30852 0.0
C1241 C 0.85918 0.22981 0.42999 0.0
C1242 C 0.86265 0.21307 0.38867 0.0
H1243 H 0.85285 0.27289 0.46 0.0
H1244 H 0.85903 0.21913 0.46408 0.0
C1245 C 0.86265 0.22757 0.34508 0.0
C1246 C 0.98769 0.6079 0.68018 0.0
C1247 C 0.97362 0.60553 0.63647 0.0
H1248 H 0.0288 0.61283 0.71655 0.0
C1249 C 0.99043 0.60876 0.59514 0.0
H1250 H 0.97521 0.60571 0.71253 0.0
C1251 C 0.02081 0.61372 0.59739 0.0
C1252 C 0.0351 0.61486 0.64101 0.0
H1253 H 0.98008 0.60752 0.5609 0.0
H1254 H 0.03326 0.61546 0.56495 0.0
C1255 C 0.01826 0.6121 0.68242 0.0
C1256 C 0.64052 0.2602 0.58173 0.0
C1257 C 0.63993 0.27468 0.62531 0.0
H1258 H 0.63964 0.21857 0.54574 0.0
C1259 C 0.63573 0.25796 0.66649 0.0
H1260 H 0.6436 0.27258 0.54949 0.0
C1261 C 0.6327 0.22729 0.66432 0.0
C1262 C 0.63448 0.21264 0.621 0.0
H1263 H 0.63477 0.2686 0.70057 0.0
H1264 H 0.63004 0.21498 0.69674 0.0
C1265 C 0.63822 0.22936 0.57966 0.0
C1266 C 0.9835 0.39156 0.83214 0.0
C1267 C 0.96919 0.39375 0.87581 0.0
H1268 H 0.02476 0.38707 0.79575 0.0
C1269 C 0.98601 0.39102 0.91715 0.0
H1270 H 0.9711 0.39339 0.79975 0.0
C1271 C 0.01652 0.38652 0.91489 0.0
C1272 C 0.03097 0.38535 0.87126 0.0
H1273 H 0.97554 0.39218 0.95136 0.0
H1274 H 0.02893 0.385 0.94731 0.0
C1275 C 0.01415 0.38782 0.82989 0.0
C1276 C 0.87363 0.76696 0.15146 0.0
C1277 C 0.85757 0.78223 0.11713 0.0
H1278 H 0.88402 0.72553 0.18272 0.0
C1279 C 0.83956 0.76593 0.0861 0.0
H1280 H 0.88771 0.77869 0.17589 0.0
C1281 C 0.83727 0.7351 0.09002 0.0
C1282 C 0.85294 0.71995 0.12508 0.0
H1283 H 0.82683 0.77701 0.05915 0.0
H1284 H 0.82301 0.72324 0.06603 0.0
C1285 C 0.87136 0.73631 0.15538 0.0
C1286 C 0.51011 0.61265 0.41221 0.0
C1287 C 0.52663 0.60817 0.37086 0.0
H1288 H 0.46744 0.61962 0.4428 0.0
C1289 C 0.51213 0.60871 0.32735 0.0
H1290 H 0.52077 0.61281 0.44626 0.0
C1291 C 0.48147 0.61228 0.32548 0.0
C1292 C 0.46492 0.61615 0.36699 0.0
H1293 H 0.52435 0.60551 0.29497 0.0
H1294 H 0.47063 0.61161 0.29159 0.0
C1295 C 0.47962 0.61692 0.41026 0.0
C1296 C 0.36401 0.22627 0.16514 0.0
C1297 C 0.36754 0.21213 0.12165 0.0
H1298 H 0.35542 0.26685 0.20121 0.0
C1299 C 0.36659 0.22917 0.08024 0.0
H1300 H 0.3643 0.21368 0.19755 0.0
C1301 C 0.36172 0.25969 0.08226 0.0
C1302 C 0.35698 0.27363 0.12567 0.0
H1303 H 0.36918 0.2188 0.04616 0.0
H1304 H 0.36094 0.27222 0.04981 0.0
C1305 C 0.35849 0.25665 0.16711 0.0
C1306 C 0.51963 0.61661 0.91146 0.0
C1307 C 0.53378 0.61744 0.86759 0.0
H1308 H 0.479 0.61067 0.94871 0.0
C1309 C 0.51681 0.61432 0.82652 0.0
H1310 H 0.53218 0.61864 0.94367 0.0
C1311 C 0.48627 0.61006 0.82933 0.0
C1312 C 0.47231 0.60806 0.8733 0.0
H1313 H 0.52723 0.61479 0.79221 0.0
H1314 H 0.47373 0.60759 0.7972 0.0
C1315 C 0.48925 0.61164 0.9143 0.0
C1316 C 0.13193 0.77145 0.66475 0.0
C1317 C 0.13129 0.78571 0.62097 0.0
H1318 H 0.13749 0.73065 0.70173 0.0
C1319 C 0.13435 0.76874 0.5798 0.0
H1320 H 0.12994 0.78399 0.69703 0.0
C1321 C 0.13834 0.73811 0.58241 0.0
C1322 C 0.14015 0.72403 0.62628 0.0
H1323 H 0.13399 0.77922 0.54555 0.0
H1324 H 0.14077 0.72557 0.5502 0.0
C1325 C 0.13665 0.74097 0.66739 0.0
C1326 C 0.97875 0.38256 0.32964 0.0
C1327 C 0.9618 0.38072 0.37107 0.0
H1328 H 0.02179 0.38846 0.29938 0.0
C1329 C 0.97603 0.38273 0.41467 0.0
H1330 H 0.9683 0.38115 0.2955 0.0
C1331 C 0.00642 0.38773 0.41681 0.0
C1332 C 0.02332 0.39021 0.37541 0.0
H1333 H 0.96352 0.3817 0.44714 0.0
H1334 H 0.01669 0.38968 0.45102 0.0
C1335 C 0.0093 0.3869 0.3318 0.0
C1336 C 0.36331 0.76979 0.42988 0.0
C1337 C 0.36581 0.78688 0.38866 0.0
H1338 H 0.35815 0.72642 0.45959 0.0
C1339 C 0.36569 0.77256 0.34495 0.0
H1340 H 0.3633 0.78028 0.4641 0.0
C1341 C 0.36194 0.74194 0.3424 0.0
C1342 C 0.35887 0.72488 0.38353 0.0
H1343 H 0.3673 0.78513 0.31261 0.0
H1344 H 0.36139 0.73161 0.30807 0.0
C1345 C 0.36027 0.73901 0.42736 0.0
C1346 C 0.00902 0.59693 0.10161 0.0
C1347 C 0.02733 0.60667 0.13824 0.0
H1348 H 0.96535 0.59266 0.07516 0.0
C1349 C 0.01441 0.62114 0.177 0.0
H1350 H 0.01806 0.58606 0.0709 0.0
C1351 C 0.9837 0.6251 0.1794 0.0
C1352 C 0.96552 0.6146 0.14307 0.0
H1353 H 0.02795 0.62921 0.2056 0.0
H1354 H 0.97418 0.63555 0.21012 0.0
C1355 C 0.97864 0.6009 0.10396 0.0
C1356 C 0.13373 0.25805 0.8399 0.0
C1357 C 0.13679 0.27461 0.88148 0.0
H1358 H 0.12885 0.21518 0.80896 0.0
C1359 C 0.13578 0.25996 0.92492 0.0
H1360 H 0.13399 0.26881 0.80587 0.0
C1361 C 0.1332 0.22914 0.92659 0.0
C1362 C 0.13081 0.21255 0.8849 0.0
H1363 H 0.13791 0.27219 0.95746 0.0
H1364 H 0.13349 0.21823 0.9605 0.0
C1365 C 0.13045 0.22737 0.84161 0.0
C1366 C 0.51762 0.38082 0.59325 0.0
C1367 C 0.53186 0.38175 0.63695 0.0
H1368 H 0.47673 0.38407 0.55613 0.0
C1369 C 0.51473 0.38501 0.67799 0.0
H1370 H 0.53023 0.37857 0.56104 0.0
C1371 C 0.48399 0.38776 0.67528 0.0
C1372 C 0.46992 0.38809 0.63139 0.0
H1373 H 0.52516 0.3858 0.71219 0.0
H1374 H 0.47136 0.39051 0.70736 0.0
C1375 C 0.48702 0.3843 0.59047 0.0
C1376 C 0.17648 0.00775 0.27183 0.0
C1377 C 0.14974 0.01683 0.29226 0.0
H1378 H 0.19727 0.98392 0.21622 0.0
C1379 C 0.12293 0.00931 0.27072 0.0
H1380 H 0.19751 0.01364 0.2873 0.0
C1381 C 0.12281 0.9931 0.22947 0.0
C1382 C 0.14947 0.98351 0.20945 0.0
H1383 H 0.10193 0.01639 0.28517 0.0
H1384 H 0.1017 0.98731 0.21416 0.0
C1385 C 0.17635 0.99128 0.23062 0.0
C1386 C 0.23562 0.92769 0.521 0.0
C1387 C 0.22833 0.90127 0.54418 0.0
H1388 H 0.25772 0.9477 0.46297 0.0
C1389 C 0.23715 0.87409 0.5249 0.0
H1390 H 0.22864 0.94895 0.5346 0.0
C1391 C 0.25309 0.87333 0.48333 0.0
C1392 C 0.26104 0.89975 0.46073 0.0
H1393 H 0.23143 0.8533 0.54155 0.0
H1394 H 0.2601 0.85203 0.46992 0.0
C1395 C 0.25172 0.92693 0.47944 0.0
C1396 C 0.37443 0.99438 0.78663 0.0
C1397 C 0.3472 0.98352 0.80284 0.0
H1398 H 0.39734 0.01783 0.73279 0.0
C1399 C 0.32152 0.98876 0.77664 0.0
H1400 H 0.39462 0.99051 0.80605 0.0
C1401 C 0.32319 0.00375 0.73421 0.0
C1402 C 0.35047 0.0142 0.71764 0.0
H1403 H 0.30024 0.98036 0.78791 0.0
H1404 H 0.30301 0.0075 0.7147 0.0
C1405 C 0.37609 0.00944 0.7442 0.0
C1406 C 0.2411 0.07121 0.98005 0.0
C1407 C 0.23229 0.09788 0.95903 0.0
H1408 H 0.26531 0.0507 0.0354 0.0
C1409 C 0.2407 0.12487 0.97927 0.0
H1410 H 0.23453 0.05005 0.96562 0.0
C1411 C 0.25754 0.12524 0.01981 0.0
C1412 C 0.26681 0.09863 0.04043 0.0
H1413 H 0.23388 0.14583 0.96432 0.0
H1414 H 0.26402 0.14646 0.03414 0.0
C1415 C 0.25816 0.07158 0.02057 0.0
C1416 C 0.87239 0.00574 0.77478 0.0
C1417 C 0.84579 0.01482 0.79561 0.0
H1418 H 0.89308 0.9828 0.71854 0.0
C1419 C 0.81883 0.00692 0.77482 0.0
H1420 H 0.89356 0.01173 0.78966 0.0
C1421 C 0.81855 0.99045 0.73355 0.0
C1422 C 0.84523 0.98158 0.71264 0.0
H1423 H 0.79796 0.01394 0.78981 0.0
H1424 H 0.79747 0.98425 0.7186 0.0
C1425 C 0.87212 0.98959 0.73347 0.0
C1426 C 0.74219 0.06868 0.52684 0.0
C1427 C 0.7332 0.09557 0.54694 0.0
H1428 H 0.7651 0.04755 0.47051 0.0
C1429 C 0.74019 0.12228 0.52434 0.0
H1430 H 0.73674 0.04772 0.54318 0.0
C1431 C 0.75555 0.12214 0.48222 0.0
C1432 C 0.76489 0.09533 0.46233 0.0
H1433 H 0.73321 0.14339 0.53853 0.0
H1434 H 0.76081 0.14318 0.46599 0.0
C1435 C 0.75788 0.06855 0.48476 0.0
C1436 C 0.67946 0.00942 0.23447 0.0
C1437 C 0.6531 0.0157 0.21051 0.0
H1438 H 0.69941 0.98813 0.29347 0.0
C1439 C 0.62633 0.00424 0.22736 0.0
H1440 H 0.70042 0.0182 0.22248 0.0
C1441 C 0.62565 0.98793 0.26853 0.0
C1442 C 0.65185 0.98215 0.29316 0.0
H1443 H 0.60564 0.00873 0.20967 0.0
H1444 H 0.60456 0.97948 0.28052 0.0
C1445 C 0.67883 0.99275 0.27558 0.0
C1446 C 0.74006 0.9316 0.98189 0.0
C1447 C 0.72938 0.90489 0.96344 0.0
H1448 H 0.76518 0.95238 0.03604 0.0
C1449 C 0.73509 0.87828 0.98716 0.0
H1450 H 0.73556 0.95249 0.96466 0.0
C1451 C 0.75107 0.87832 0.02855 0.0
C1452 C 0.76237 0.90487 0.04655 0.0
H1453 H 0.72672 0.85733 0.9744 0.0
H1454 H 0.75532 0.85731 0.04559 0.0
C1455 C 0.75647 0.9316 0.0232 0.0
C1456 C 0.62198 0.5098 0.77236 0.0
C1457 C 0.64892 0.5183 0.79252 0.0
H1458 H 0.60044 0.48653 0.71743 0.0
C1459 C 0.67556 0.50949 0.77147 0.0
H1460 H 0.60104 0.51657 0.7874 0.0
C1461 C 0.67521 0.49244 0.73085 0.0
C1462 C 0.64821 0.48383 0.71092 0.0
H1463 H 0.69667 0.51612 0.78587 0.0
H1464 H 0.69607 0.4854 0.71585 0.0
C1465 C 0.62163 0.49302 0.7317 0.0
C1466 C 0.74989 0.42738 0.97687 0.0
C1467 C 0.75818 0.39986 0.95814 0.0
H1468 H 0.72842 0.45024 0.03283 0.0
C1469 C 0.74903 0.37376 0.98048 0.0
H1470 H 0.7567 0.44791 0.96046 0.0
C1471 C 0.73357 0.37512 0.02247 0.0
C1472 C 0.72641 0.40261 0.04237 0.0
H1473 H 0.75506 0.35222 0.96684 0.0
H1474 H 0.72718 0.35455 0.03919 0.0
C1475 C 0.73426 0.42874 0.01884 0.0
C1476 C 0.82791 0.5096 0.24186 0.0
C1477 C 0.85519 0.51617 0.22068 0.0
H1478 H 0.80547 0.48901 0.29885 0.0
C1479 C 0.88146 0.50862 0.24371 0.0
H1480 H 0.80722 0.51582 0.22556 0.0
C1481 C 0.88043 0.49357 0.28625 0.0
C1482 C 0.8531 0.48558 0.30606 0.0
H1483 H 0.9028 0.5141 0.22876 0.0
H1484 H 0.90105 0.48687 0.3023 0.0
C1485 C 0.82688 0.49476 0.28443 0.0
C1486 C 0.74235 0.5701 0.47984 0.0
C1487 C 0.73277 0.5969 0.46014 0.0
H1488 H 0.76655 0.54921 0.53485 0.0
C1489 C 0.73948 0.62366 0.48268 0.0
H1490 H 0.73706 0.5491 0.4636 0.0
C1491 C 0.75554 0.62367 0.52403 0.0
C1492 C 0.76576 0.59698 0.54317 0.0
H1493 H 0.73194 0.64468 0.46892 0.0
H1494 H 0.76077 0.64474 0.54012 0.0
C1495 C 0.75866 0.57013 0.52116 0.0
C1496 C 0.32037 0.50703 0.27556 0.0
C1497 C 0.34754 0.51721 0.29283 0.0
H1498 H 0.29829 0.48179 0.22297 0.0
C1499 C 0.37368 0.51039 0.26856 0.0
H1500 H 0.29983 0.51237 0.2932 0.0
C1501 C 0.37273 0.49371 0.22781 0.0
C1502 C 0.34569 0.48297 0.211 0.0
H1503 H 0.39495 0.51837 0.28044 0.0
H1504 H 0.39335 0.4885 0.21029 0.0
C1505 C 0.31944 0.49006 0.23484 0.0
C1506 C 0.25446 0.62133 0.97996 0.0
C1507 C 0.26434 0.59461 0.96045 0.0
H1508 H 0.23198 0.64245 0.03623 0.0
C1509 C 0.2577 0.5678 0.98309 0.0
H1510 H 0.25933 0.64238 0.96347 0.0
C1511 C 0.24215 0.56784 0.0253 0.0
C1512 C 0.23294 0.59468 0.0453 0.0
H1513 H 0.26529 0.54686 0.96907 0.0
H1514 H 0.23715 0.54688 0.04198 0.0
C1515 C 0.23925 0.62139 0.02221 0.0
C1516 C 0.12261 0.49077 0.77344 0.0
C1517 C 0.14896 0.48294 0.79614 0.0
H1518 H 0.10261 0.51268 0.71563 0.0
C1519 C 0.17612 0.49204 0.77715 0.0
H1520 H 0.10131 0.48379 0.78683 0.0
C1521 C 0.17688 0.50845 0.73583 0.0
C1522 C 0.15048 0.51611 0.7131 0.0
H1523 H 0.19681 0.486 0.79362 0.0
H1524 H 0.19809 0.51562 0.72233 0.0
C1525 C 0.12338 0.50688 0.73208 0.0
C1526 C 0.24299 0.37842 0.47891 0.0
C1527 C 0.23265 0.40491 0.45928 0.0
H1528 H 0.26587 0.35782 0.53506 0.0
C1529 C 0.23961 0.43196 0.48088 0.0
H1530 H 0.23803 0.35721 0.4631 0.0
C1531 C 0.25557 0.43233 0.52262 0.0
C1532 C 0.26473 0.40567 0.54322 0.0
H1533 H 0.23177 0.45275 0.46663 0.0
H1534 H 0.26061 0.45341 0.5388 0.0
C1535 C 0.25851 0.37876 0.52073 0.0
C1536 C 0.15517 0.12784 0.0978 0.0
C1537 C 0.13555 0.10787 0.07619 0.0
H1538 H 0.17219 0.14558 0.16215 0.0
C1539 C 0.11766 0.09004 0.10502 0.0
H1540 H 0.16932 0.14197 0.0768 0.0
C1541 C 0.11951 0.09198 0.1541 0.0
C1542 C 0.13908 0.11202 0.17571 0.0
H1543 H 0.10238 0.07436 0.08972 0.0
H1544 H 0.10549 0.07774 0.17511 0.0
C1545 C 0.15681 0.12999 0.14686 0.0
C1546 C 0.11557 0.90763 0.39952 0.0
C1547 C 0.134 0.89042 0.42832 0.0
H1548 H 0.10304 0.91944 0.32947 0.0
C1549 C 0.15429 0.87107 0.40668 0.0
H1550 H 0.09977 0.92282 0.41484 0.0
C1551 C 0.15603 0.86891 0.35762 0.0
C1552 C 0.13773 0.88627 0.32882 0.0
H1553 H 0.16888 0.85745 0.42766 0.0
H1554 H 0.17193 0.85383 0.34229 0.0
C1555 C 0.11751 0.90569 0.35045 0.0
C1556 C 0.37422 0.911 0.65817 0.0
C1557 C 0.35591 0.88975 0.67987 0.0
H1558 H 0.39052 0.92948 0.59361 0.0
C1559 C 0.33951 0.87062 0.65109 0.0
H1560 H 0.38718 0.92616 0.67916 0.0
C1561 C 0.34129 0.8727 0.60206 0.0
C1562 C 0.35972 0.8938 0.5803 0.0
H1563 H 0.32513 0.85407 0.66639 0.0
H1564 H 0.32822 0.85758 0.58119 0.0
C1565 C 0.37621 0.9129 0.60903 0.0
C1566 C 0.36584 0.07945 0.85346 0.0
C1567 C 0.36317 0.10708 0.83102 0.0
H1568 H 0.37155 0.05629 0.91887 0.0
C1569 C 0.365 0.13294 0.85813 0.0
H1570 H 0.3647 0.05916 0.83331 0.0
C1571 C 0.36825 0.13123 0.90688 0.0
C1572 C 0.37073 0.10369 0.92938 0.0
H1573 H 0.363 0.1545 0.84181 0.0
H1574 H 0.3686 0.15151 0.92714 0.0
C1575 C 0.37003 0.07779 0.90222 0.0
C1576 C 0.83589 0.86664 0.85658 0.0
C1577 C 0.85429 0.88417 0.82813 0.0
H1578 H 0.82294 0.85468 0.9265 0.0
C1579 C 0.87458 0.9033 0.84999 0.0
H1580 H 0.81995 0.85175 0.84098 0.0
C1581 C 0.8765 0.90481 0.89899 0.0
C1582 C 0.85796 0.88746 0.92748 0.0
H1583 H 0.88915 0.91715 0.82924 0.0
H1584 H 0.89235 0.91982 0.91451 0.0
C1585 C 0.83758 0.86838 0.90567 0.0
C1586 C 0.87696 0.09174 0.65695 0.0
C1587 C 0.85719 0.11148 0.6789 0.0
H1588 H 0.8942 0.07453 0.59232 0.0
C1589 C 0.83913 0.1293 0.65046 0.0
H1590 H 0.89124 0.07764 0.67768 0.0
C1591 C 0.84068 0.12729 0.60138 0.0
C1592 C 0.86056 0.10765 0.57945 0.0
H1593 H 0.82359 0.14463 0.66608 0.0
H1594 H 0.82631 0.14128 0.58062 0.0
C1595 C 0.87873 0.08997 0.6079 0.0
C1596 C 0.658 0.12783 0.40949 0.0
C1597 C 0.63785 0.10831 0.43113 0.0
H1598 H 0.67542 0.14535 0.34507 0.0
C1599 C 0.61947 0.09109 0.40237 0.0
H1600 H 0.67255 0.14148 0.43046 0.0
C1601 C 0.62134 0.09315 0.35331 0.0
C1602 C 0.64142 0.11273 0.33167 0.0
H1603 H 0.60378 0.07577 0.41771 0.0
H1604 H 0.60691 0.07938 0.33233 0.0
C1605 C 0.65964 0.13014 0.36043 0.0
C1606 C 0.61608 0.91064 0.10728 0.0
C1607 C 0.63393 0.89281 0.07844 0.0
H1608 H 0.60395 0.92284 0.1774 0.0
C1609 C 0.65353 0.87275 0.09992 0.0
H1610 H 0.60083 0.9264 0.09202 0.0
C1611 C 0.65515 0.8705 0.14892 0.0
C1612 C 0.63745 0.88846 0.17777 0.0
H1613 H 0.66765 0.85864 0.07887 0.0
H1614 H 0.67051 0.85484 0.16415 0.0
C1615 C 0.61793 0.90861 0.15631 0.0
C1616 C 0.65856 0.63158 0.64638 0.0
C1617 C 0.64007 0.61434 0.67516 0.0
H1618 H 0.67197 0.64265 0.57632 0.0
C1619 C 0.62011 0.59472 0.65351 0.0
H1620 H 0.67427 0.6468 0.66174 0.0
C1621 C 0.6186 0.59248 0.60446 0.0
C1622 C 0.63721 0.60957 0.57567 0.0
H1623 H 0.6055 0.58105 0.67446 0.0
H1624 H 0.60297 0.57715 0.58916 0.0
C1625 C 0.65726 0.62911 0.59731 0.0
C1626 C 0.65575 0.36978 0.85888 0.0
C1627 C 0.63697 0.3866 0.8301 0.0
H1628 H 0.66927 0.35905 0.92892 0.0
C1629 C 0.61655 0.40582 0.85173 0.0
H1630 H 0.67183 0.35488 0.84354 0.0
C1631 C 0.61489 0.40807 0.90078 0.0
C1632 C 0.63381 0.3914 0.92957 0.0
H1633 H 0.60171 0.41917 0.83075 0.0
H1634 H 0.59891 0.42309 0.91608 0.0
C1635 C 0.6543 0.37226 0.90794 0.0
C1636 C 0.83953 0.37147 0.10267 0.0
C1637 C 0.85851 0.39187 0.08044 0.0
H1638 H 0.82331 0.35349 0.1675 0.0
C1639 C 0.87597 0.41035 0.10874 0.0
H1640 H 0.82571 0.35684 0.08214 0.0
C1641 C 0.87441 0.40853 0.1579 0.0
C1642 C 0.85553 0.388 0.1801 0.0
H1643 H 0.89075 0.42637 0.09296 0.0
H1644 H 0.88815 0.4232 0.17849 0.0
C1645 C 0.83815 0.36948 0.15177 0.0
C1646 C 0.86506 0.5785 0.35409 0.0
C1647 C 0.86127 0.60594 0.33149 0.0
H1648 H 0.87129 0.55573 0.41972 0.0
C1649 C 0.86111 0.63185 0.35862 0.0
H1650 H 0.86542 0.55819 0.33391 0.0
C1651 C 0.86373 0.63036 0.40749 0.0
C1652 C 0.86757 0.60301 0.43013 0.0
H1653 H 0.85818 0.65326 0.34215 0.0
H1654 H 0.86273 0.65064 0.42769 0.0
C1655 C 0.86866 0.5771 0.40299 0.0
C1656 C 0.3739 0.40317 0.35126 0.0
C1657 C 0.35325 0.38447 0.32932 0.0
H1658 H 0.39166 0.41961 0.41579 0.0
C1659 C 0.33409 0.3677 0.3577 0.0
H1660 H 0.38904 0.41642 0.33058 0.0
C1661 C 0.33543 0.36977 0.40681 0.0
C1662 C 0.35622 0.38838 0.42868 0.0
H1663 H 0.31785 0.35319 0.34201 0.0
H1664 H 0.32023 0.35666 0.4276 0.0
C1665 C 0.37546 0.40498 0.40025 0.0
C1666 C 0.34014 0.6309 0.14923 0.0
C1667 C 0.35857 0.61348 0.17769 0.0
H1668 H 0.3267 0.64216 0.07936 0.0
C1669 C 0.37842 0.59381 0.15578 0.0
H1670 H 0.32452 0.64616 0.16483 0.0
C1671 C 0.37986 0.59165 0.10674 0.0
C1672 C 0.36127 0.60887 0.07826 0.0
H1673 H 0.39299 0.58001 0.17651 0.0
H1674 H 0.39538 0.57625 0.09121 0.0
C1675 C 0.34137 0.6285 0.10015 0.0
C1676 C 0.12142 0.59224 0.8532 0.0
C1677 C 0.14152 0.61165 0.83121 0.0
H1678 H 0.10404 0.57513 0.91789 0.0
C1679 C 0.16006 0.62892 0.85967 0.0
H1680 H 0.10676 0.57857 0.83246 0.0
C1681 C 0.15867 0.6267 0.90876 0.0
C1682 C 0.13845 0.60741 0.93075 0.0
H1683 H 0.17587 0.64399 0.84405 0.0
H1684 H 0.17343 0.64026 0.9295 0.0
C1685 C 0.11978 0.59028 0.90229 0.0
C1686 C 0.11695 0.40636 0.65648 0.0
C1687 C 0.13664 0.38659 0.67844 0.0
H1688 H 0.10006 0.42373 0.59177 0.0
C1689 C 0.1548 0.36881 0.65001 0.0
H1690 H 0.1026 0.42042 0.6772 0.0
C1691 C 0.1535 0.37091 0.60095 0.0
C1692 C 0.13378 0.39063 0.57898 0.0
H1693 H 0.17029 0.35344 0.66563 0.0
H1694 H 0.16797 0.35697 0.58024 0.0
C1695 C 0.11544 0.40824 0.6074 0.0
loop_
_geom_bond_atom_site_label_1
_geom_bond_atom_site_label_2
_geom_bond_distance
_geom_bond_site_symmetry_2
_ccdc_geom_bond_type
O0 Zn1 1.953 . S
O0 C16 1.225 . S
Zn1 O0 1.953 . S
Zn1 O2 1.949 . S
Zn1 O8 1.919 . S
Zn1 O13 1.924 . S
O2 Zn1 1.949 . S
O2 Zn3 1.923 . S
O2 Zn4 1.950 . S
O2 Zn5 1.945 . S
Zn3 O2 1.923 . S
Zn3 O6 1.933 . S
Zn3 O9 1.941 . S
Zn3 O10 1.965 . S
Zn4 O2 1.950 . S
Zn4 O11 1.938 . S
Zn4 O12 1.906 . S
Zn4 O22 1.953 . S
Zn5 O2 1.945 . S
Zn5 O7 1.932 . S
Zn5 O14 1.977 . S
Zn5 O15 1.910 . S
O6 Zn3 1.933 . S
O6 C17 1.226 . S
O7 Zn5 1.932 . S
O7 C17 1.307 . S
O8 Zn1 1.919 . S
O8 C19 1.253 . S
O9 Zn3 1.941 . S
O9 C19 1.283 . S
O10 Zn3 1.965 . S
O10 C18 1.303 . S
O11 Zn4 1.938 . S
O11 C18 1.247 . S
O12 Zn4 1.906 . S
O12 C20 1.304 . S
O13 Zn1 1.924 . S
O13 C21 1.311 . S
O14 Zn5 1.977 . S
O14 C20 1.272 . S
O15 Zn5 1.910 . S
O15 C21 1.231 . S
C16 O0 1.225 . S
C16 O22 1.298 . S
C17 O6 1.226 . S
C17 O7 1.307 . S
C18 O10 1.303 . S
C18 O11 1.247 . S
C19 O8 1.253 . S
C19 O9 1.283 . S
C20 O12 1.304 . S
C20 O14 1.272 . S
C21 O13 1.311 . S
C21 O15 1.231 . S
O22 Zn4 1.953 . S
O22 C16 1.298 . S
O23 Zn24 1.953 . S
O23 C39 1.225 . S
Zn24 O23 1.953 . S
Zn24 O25 1.949 . S
Zn24 O31 1.919 . S
Zn24 O36 1.924 . S
O25 Zn24 1.949 . S
O25 Zn26 1.923 . S
O25 Zn27 1.950 . S
O25 Zn28 1.945 . S
Zn26 O25 1.923 . S
Zn26 O29 1.933 . S
Zn26 O32 1.941 . S
Zn26 O33 1.965 . S
Zn27 O25 1.950 . S
Zn27 O34 1.938 . S
Zn27 O35 1.906 . S
Zn27 O45 1.953 . S
Zn28 O25 1.945 . S
Zn28 O30 1.932 . S
Zn28 O37 1.977 . S
Zn28 O38 1.910 . S
O29 Zn26 1.933 . S
O29 C40 1.226 . S
O30 Zn28 1.932 . S
O30 C40 1.307 . S
O31 Zn24 1.919 . S
O31 C42 1.253 . S
O32 Zn26 1.941 . S
O32 C42 1.283 . S
O33 Zn26 1.965 . S
O33 C41 1.303 . S
O34 Zn27 1.938 . S
O34 C41 1.247 . S
O35 Zn27 1.906 . S
O35 C43 1.304 . S
O36 Zn24 1.924 . S
O36 C44 1.311 . S
O37 Zn28 1.977 . S
O37 C43 1.272 . S
O38 Zn28 1.910 . S
O38 C44 1.231 . S
C39 O23 1.225 . S
C39 O45 1.298 . S
C40 O29 1.226 . S
C40 O30 1.307 . S
C41 O33 1.303 . S
C41 O34 1.247 . S
C42 O31 1.253 . S
C42 O32 1.283 . S
C43 O35 1.304 . S
C43 O37 1.272 . S
C44 O36 1.311 . S
C44 O38 1.231 . S
O45 Zn27 1.953 . S
O45 C39 1.298 . S
O46 Zn47 1.953 . S
O46 C62 1.225 . S
Zn47 O46 1.953 . S
Zn47 O48 1.949 . S
Zn47 O54 1.919 . S
Zn47 O59 1.924 . S
O48 Zn47 1.949 . S
O48 Zn49 1.923 . S
O48 Zn50 1.950 . S
O48 Zn51 1.945 . S
Zn49 O48 1.923 . S
Zn49 O52 1.933 . S
Zn49 O55 1.941 . S
Zn49 O56 1.965 . S
Zn50 O48 1.950 . S
Zn50 O57 1.938 . S
Zn50 O58 1.906 . S
Zn50 O68 1.953 . S
Zn51 O48 1.945 . S
Zn51 O53 1.932 . S
Zn51 O60 1.977 . S
Zn51 O61 1.910 . S
O52 Zn49 1.933 . S
O52 C63 1.226 . S
O53 Zn51 1.932 . S
O53 C63 1.307 . S
O54 Zn47 1.919 . S
O54 C65 1.253 . S
O55 Zn49 1.941 . S
O55 C65 1.283 . S
O56 Zn49 1.965 . S
O56 C64 1.303 . S
O57 Zn50 1.938 . S
O57 C64 1.247 . S
O58 Zn50 1.906 . S
O58 C66 1.304 . S
O59 Zn47 1.924 . S
O59 C67 1.311 . S
O60 Zn51 1.977 . S
O60 C66 1.272 . S
O61 Zn51 1.910 . S
O61 C67 1.231 . S
C62 O46 1.225 . S
C62 O68 1.298 . S
C63 O52 1.226 . S
C63 O53 1.307 . S
C64 O56 1.303 . S
C64 O57 1.247 . S
C65 O54 1.253 . S
C65 O55 1.283 . S
C66 O58 1.304 . S
C66 O60 1.272 . S
C67 O59 1.311 . S
C67 O61 1.231 . S
O68 Zn50 1.953 . S
O68 C62 1.298 . S
O69 Zn70 1.953 . S
O69 C85 1.225 . S
Zn70 O69 1.953 . S
Zn70 O71 1.949 . S
Zn70 O77 1.919 . S
Zn70 O82 1.924 1_554 S
O71 Zn70 1.949 . S
O71 Zn72 1.923 . S
O71 Zn73 1.950 . S
O71 Zn74 1.945 . S
Zn72 O71 1.923 . S
Zn72 O75 1.933 . S
Zn72 O78 1.941 . S
Zn72 O79 1.965 . S
Zn73 O71 1.950 . S
Zn73 O80 1.938 . S
Zn73 O81 1.906 . S
Zn73 O91 1.953 . S
Zn74 O71 1.945 . S
Zn74 O76 1.932 . S
Zn74 O83 1.977 . S
Zn74 O84 1.910 1_554 S
O75 Zn72 1.933 . S
O75 C86 1.226 . S
O76 Zn74 1.932 . S
O76 C86 1.307 . S
O77 Zn70 1.919 . S
O77 C88 1.253 . S
O78 Zn72 1.941 . S
O78 C88 1.283 . S
O79 Zn72 1.965 . S
O79 C87 1.303 . S
O80 Zn73 1.938 . S
O80 C87 1.247 . S
O81 Zn73 1.906 . S
O81 C89 1.304 . S
O82 Zn70 1.924 1_556 S
O82 C90 1.311 . S
O83 Zn74 1.977 . S
O83 C89 1.272 . S
O84 Zn74 1.910 1_556 S
O84 C90 1.231 . S
C85 O69 1.225 . S
C85 O91 1.298 . S
C86 O75 1.226 . S
C86 O76 1.307 . S
C87 O79 1.303 . S
C87 O80 1.247 . S
C88 O77 1.253 . S
C88 O78 1.283 . S
C89 O81 1.304 . S
C89 O83 1.272 . S
C90 O82 1.311 . S
C90 O84 1.231 . S
O91 Zn73 1.953 . S
O91 C85 1.298 . S
O92 Zn93 1.953 . S
O92 C108 1.225 . S
Zn93 O92 1.953 . S
Zn93 O94 1.949 . S
Zn93 O100 1.919 . S
Zn93 O105 1.924 . S
O94 Zn93 1.949 . S
O94 Zn95 1.923 . S
O94 Zn96 1.950 . S
O94 Zn97 1.945 . S
Zn95 O94 1.923 . S
Zn95 O98 1.933 . S
Zn95 O101 1.941 . S
Zn95 O102 1.965 . S
Zn96 O94 1.950 . S
Zn96 O103 1.938 . S
Zn96 O104 1.906 . S
Zn96 O114 1.953 . S
Zn97 O94 1.945 . S
Zn97 O99 1.932 . S
Zn97 O106 1.977 . S
Zn97 O107 1.910 . S
O98 Zn95 1.933 . S
O98 C109 1.226 . S
O99 Zn97 1.932 . S
O99 C109 1.307 . S
O100 Zn93 1.919 . S
O100 C111 1.253 . S
O101 Zn95 1.941 . S
O101 C111 1.283 . S
O102 Zn95 1.965 . S
O102 C110 1.303 . S
O103 Zn96 1.938 . S
O103 C110 1.247 . S
O104 Zn96 1.906 . S
O104 C112 1.304 . S
O105 Zn93 1.924 . S
O105 C113 1.311 . S
O106 Zn97 1.977 . S
O106 C112 1.272 . S
O107 Zn97 1.910 . S
O107 C113 1.231 . S
C108 O92 1.225 . S
C108 O114 1.298 . S
C109 O98 1.226 . S
C109 O99 1.307 . S
C110 O102 1.303 . S
C110 O103 1.247 . S
C111 O100 1.253 . S
C111 O101 1.283 . S
C112 O104 1.304 . S
C112 O106 1.272 . S
C113 O105 1.311 . S
C113 O107 1.231 . S
O114 Zn96 1.953 . S
O114 C108 1.298 . S
O115 Zn116 1.953 . S
O115 C131 1.225 . S
Zn116 O115 1.953 . S
Zn116 O117 1.949 . S
Zn116 O123 1.919 . S
Zn116 O128 1.924 . S
O117 Zn116 1.949 . S
O117 Zn118 1.923 . S
O117 Zn119 1.950 . S
O117 Zn120 1.945 . S
Zn118 O117 1.923 . S
Zn118 O121 1.933 . S
Zn118 O124 1.941 . S
Zn118 O125 1.965 . S
Zn119 O117 1.950 . S
Zn119 O126 1.938 . S
Zn119 O127 1.906 . S
Zn119 O137 1.953 . S
Zn120 O117 1.945 . S
Zn120 O122 1.932 . S
Zn120 O129 1.977 . S
Zn120 O130 1.910 . S
O121 Zn118 1.933 . S
O121 C132 1.226 . S
O122 Zn120 1.932 . S
O122 C132 1.307 . S
O123 Zn116 1.919 . S
O123 C134 1.253 . S
O124 Zn118 1.941 . S
O124 C134 1.283 . S
O125 Zn118 1.965 . S
O125 C133 1.303 . S
O126 Zn119 1.938 . S
O126 C133 1.247 . S
O127 Zn119 1.906 . S
O127 C135 1.304 . S
O128 Zn116 1.924 . S
O128 C136 1.311 . S
O129 Zn120 1.977 . S
O129 C135 1.272 . S
O130 Zn120 1.910 . S
O130 C136 1.231 . S
C131 O115 1.225 . S
C131 O137 1.298 . S
C132 O121 1.226 . S
C132 O122 1.307 . S
C133 O125 1.303 . S
C133 O126 1.247 . S
C134 O123 1.253 . S
C134 O124 1.283 . S
C135 O127 1.304 . S
C135 O129 1.272 . S
C136 O128 1.311 . S
C136 O130 1.231 . S
O137 Zn119 1.953 . S
O137 C131 1.298 . S
O138 Zn139 1.953 . S
O138 C154 1.225 . S
Zn139 O138 1.953 . S
Zn139 O140 1.949 . S
Zn139 O146 1.919 . S
Zn139 O151 1.924 . S
O140 Zn139 1.949 . S
O140 Zn141 1.923 . S
O140 Zn142 1.950 . S
O140 Zn143 1.945 . S
Zn141 O140 1.923 . S
Zn141 O144 1.933 . S
Zn141 O147 1.941 . S
Zn141 O148 1.965 . S
Zn142 O140 1.950 . S
Zn142 O149 1.938 . S
Zn142 O150 1.906 . S
Zn142 O160 1.953 . S
Zn143 O140 1.945 . S
Zn143 O145 1.932 . S
Zn143 O152 1.977 . S
Zn143 O153 1.910 . S
O144 Zn141 1.933 . S
O144 C155 1.226 . S
O145 Zn143 1.932 . S
O145 C155 1.307 . S
O146 Zn139 1.919 . S
O146 C157 1.253 . S
O147 Zn141 1.941 . S
O147 C157 1.283 . S
O148 Zn141 1.965 . S
O148 C156 1.303 . S
O149 Zn142 1.938 . S
O149 C156 1.247 . S
O150 Zn142 1.906 . S
O150 C158 1.304 . S
O151 Zn139 1.924 . S
O151 C159 1.311 . S
O152 Zn143 1.977 . S
O152 C158 1.272 . S
O153 Zn143 1.910 . S
O153 C159 1.231 . S
C154 O138 1.225 . S
C154 O160 1.298 . S
C155 O144 1.226 . S
C155 O145 1.307 . S
C156 O148 1.303 . S
C156 O149 1.247 . S
C157 O146 1.253 . S
C157 O147 1.283 . S
C158 O150 1.304 . S
C158 O152 1.272 . S
C159 O151 1.311 . S
C159 O153 1.231 . S
O160 Zn142 1.953 . S
O160 C154 1.298 . S
O161 Zn162 1.953 . S
O161 C177 1.225 . S
Zn162 O161 1.953 . S
Zn162 O163 1.949 . S
Zn162 O169 1.919 . S
Zn162 O174 1.924 . S
O163 Zn162 1.949 . S
O163 Zn164 1.923 . S
O163 Zn165 1.950 . S
O163 Zn166 1.945 . S
Zn164 O163 1.923 . S
Zn164 O167 1.933 . S
Zn164 O170 1.941 . S
Zn164 O171 1.965 1_556 S
Zn165 O163 1.950 . S
Zn165 O172 1.938 1_556 S
Zn165 O173 1.906 . S
Zn165 O183 1.953 . S
Zn166 O163 1.945 . S
Zn166 O168 1.932 . S
Zn166 O175 1.977 . S
Zn166 O176 1.910 . S
O167 Zn164 1.933 . S
O167 C178 1.226 . S
O168 Zn166 1.932 . S
O168 C178 1.307 . S
O169 Zn162 1.919 . S
O169 C180 1.253 . S
O170 Zn164 1.941 . S
O170 C180 1.283 . S
O171 Zn164 1.965 1_554 S
O171 C179 1.303 . S
O172 Zn165 1.938 1_554 S
O172 C179 1.247 . S
O173 Zn165 1.906 . S
O173 C181 1.304 . S
O174 Zn162 1.924 . S
O174 C182 1.311 . S
O175 Zn166 1.977 . S
O175 C181 1.272 . S
O176 Zn166 1.910 . S
O176 C182 1.231 . S
C177 O161 1.225 . S
C177 O183 1.298 . S
C178 O167 1.226 . S
C178 O168 1.307 . S
C179 O171 1.303 . S
C179 O172 1.247 . S
C180 O169 1.253 . S
C180 O170 1.283 . S
C181 O173 1.304 . S
C181 O175 1.272 . S
C182 O174 1.311 . S
C182 O176 1.231 . S
O183 Zn165 1.953 . S
O183 C177 1.298 . S
O184 Zn185 1.953 . S
O184 C200 1.225 . S
Zn185 O184 1.953 . S
Zn185 O186 1.949 . S
Zn185 O192 1.919 . S
Zn185 O197 1.924 . S
O186 Zn185 1.949 . S
O186 Zn187 1.923 . S
O186 Zn188 1.950 . S
O186 Zn189 1.945 . S
Zn187 O186 1.923 . S
Zn187 O190 1.933 . S
Zn187 O193 1.941 . S
Zn187 O194 1.965 . S
Zn188 O186 1.950 . S
Zn188 O195 1.938 . S
Zn188 O196 1.906 . S
Zn188 O206 1.953 . S
Zn189 O186 1.945 . S
Zn189 O191 1.932 . S
Zn189 O198 1.977 . S
Zn189 O199 1.910 . S
O190 Zn187 1.933 . S
O190 C201 1.226 . S
O191 Zn189 1.932 . S
O191 C201 1.307 . S
O192 Zn185 1.919 . S
O192 C203 1.253 . S
O193 Zn187 1.941 . S
O193 C203 1.283 . S
O194 Zn187 1.965 . S
O194 C202 1.303 . S
O195 Zn188 1.938 . S
O195 C202 1.247 . S
O196 Zn188 1.906 . S
O196 C204 1.304 . S
O197 Zn185 1.924 . S
O197 C205 1.311 . S
O198 Zn189 1.977 . S
O198 C204 1.272 . S
O199 Zn189 1.910 . S
O199 C205 1.231 . S
C200 O184 1.225 . S
C200 O206 1.298 . S
C201 O190 1.226 . S
C201 O191 1.307 . S
C202 O194 1.303 . S
C202 O195 1.247 . S
C203 O192 1.253 . S
C203 O193 1.283 . S
C204 O196 1.304 . S
C204 O198 1.272 . S
C205 O197 1.311 . S
C205 O199 1.231 . S
O206 Zn188 1.953 . S
O206 C200 1.298 . S
O207 Zn208 1.953 . S
O207 C223 1.225 . S
Zn208 O207 1.953 . S
Zn208 O209 1.949 . S
Zn208 O215 1.919 . S
Zn208 O220 1.924 . S
O209 Zn208 1.949 . S
O209 Zn210 1.923 . S
O209 Zn211 1.950 . S
O209 Zn212 1.945 . S
Zn210 O209 1.923 . S
Zn210 O213 1.933 . S
Zn210 O216 1.941 . S
Zn210 O217 1.965 . S
Zn211 O209 1.950 . S
Zn211 O218 1.938 . S
Zn211 O219 1.906 . S
Zn211 O229 1.953 . S
Zn212 O209 1.945 . S
Zn212 O214 1.932 . S
Zn212 O221 1.977 . S
Zn212 O222 1.910 . S
O213 Zn210 1.933 . S
O213 C224 1.226 . S
O214 Zn212 1.932 . S
O214 C224 1.307 . S
O215 Zn208 1.919 . S
O215 C226 1.253 . S
O216 Zn210 1.941 . S
O216 C226 1.283 . S
O217 Zn210 1.965 . S
O217 C225 1.303 . S
O218 Zn211 1.938 . S
O218 C225 1.247 . S
O219 Zn211 1.906 . S
O219 C227 1.304 . S
O220 Zn208 1.924 . S
O220 C228 1.311 . S
O221 Zn212 1.977 . S
O221 C227 1.272 . S
O222 Zn212 1.910 . S
O222 C228 1.231 . S
C223 O207 1.225 . S
C223 O229 1.298 . S
C224 O213 1.226 . S
C224 O214 1.307 . S
C225 O217 1.303 . S
C225 O218 1.247 . S
C226 O215 1.253 . S
C226 O216 1.283 . S
C227 O219 1.304 . S
C227 O221 1.272 . S
C228 O220 1.311 . S
C228 O222 1.231 . S
O229 Zn211 1.953 . S
O229 C223 1.298 . S
O230 Zn231 1.953 . S
O230 C246 1.225 . S
Zn231 O230 1.953 . S
Zn231 O232 1.949 . S
Zn231 O238 1.919 . S
Zn231 O243 1.924 . S
O232 Zn231 1.949 . S
O232 Zn233 1.923 . S
O232 Zn234 1.950 . S
O232 Zn235 1.945 . S
Zn233 O232 1.923 . S
Zn233 O236 1.933 . S
Zn233 O239 1.941 . S
Zn233 O240 1.965 . S
Zn234 O232 1.950 . S
Zn234 O241 1.938 . S
Zn234 O242 1.906 . S
Zn234 O252 1.953 . S
Zn235 O232 1.945 . S
Zn235 O237 1.932 . S
Zn235 O244 1.977 . S
Zn235 O245 1.910 . S
O236 Zn233 1.933 . S
O236 C247 1.226 . S
O237 Zn235 1.932 . S
O237 C247 1.307 . S
O238 Zn231 1.919 . S
O238 C249 1.253 . S
O239 Zn233 1.941 . S
O239 C249 1.283 . S
O240 Zn233 1.965 . S
O240 C248 1.303 . S
O241 Zn234 1.938 . S
O241 C248 1.247 . S
O242 Zn234 1.906 . S
O242 C250 1.304 . S
O243 Zn231 1.924 . S
O243 C251 1.311 . S
O244 Zn235 1.977 . S
O244 C250 1.272 . S
O245 Zn235 1.910 . S
O245 C251 1.231 . S
C246 O230 1.225 . S
C246 O252 1.298 . S
C247 O236 1.226 . S
C247 O237 1.307 . S
C248 O240 1.303 . S
C248 O241 1.247 . S
C249 O238 1.253 . S
C249 O239 1.283 . S
C250 O242 1.304 . S
C250 O244 1.272 . S
C251 O243 1.311 . S
C251 O245 1.231 . S
O252 Zn234 1.953 . S
O252 C246 1.298 . S
O253 Zn254 1.953 . S
O253 C269 1.225 . S
Zn254 O253 1.953 . S
Zn254 O255 1.949 . S
Zn254 O261 1.919 . S
Zn254 O266 1.924 . S
O255 Zn254 1.949 . S
O255 Zn256 1.923 . S
O255 Zn257 1.950 . S
O255 Zn258 1.945 . S
Zn256 O255 1.923 . S
Zn256 O259 1.933 . S
Zn256 O262 1.941 . S
Zn256 O263 1.965 1_556 S
Zn257 O255 1.950 . S
Zn257 O264 1.938 1_556 S
Zn257 O265 1.906 . S
Zn257 O275 1.953 . S
Zn258 O255 1.945 . S
Zn258 O260 1.932 . S
Zn258 O267 1.977 . S
Zn258 O268 1.910 . S
O259 Zn256 1.933 . S
O259 C270 1.226 . S
O260 Zn258 1.932 . S
O260 C270 1.307 . S
O261 Zn254 1.919 . S
O261 C272 1.253 . S
O262 Zn256 1.941 . S
O262 C272 1.283 . S
O263 Zn256 1.965 1_554 S
O263 C271 1.303 . S
O264 Zn257 1.938 1_554 S
O264 C271 1.247 . S
O265 Zn257 1.906 . S
O265 C273 1.304 . S
O266 Zn254 1.924 . S
O266 C274 1.311 . S
O267 Zn258 1.977 . S
O267 C273 1.272 . S
O268 Zn258 1.910 . S
O268 C274 1.231 . S
C269 O253 1.225 . S
C269 O275 1.298 . S
C270 O259 1.226 . S
C270 O260 1.307 . S
C271 O263 1.303 . S
C271 O264 1.247 . S
C272 O261 1.253 . S
C272 O262 1.283 . S
C273 O265 1.304 . S
C273 O267 1.272 . S
C274 O266 1.311 . S
C274 O268 1.231 . S
O275 Zn257 1.953 . S
O275 C269 1.298 . S
O276 Zn277 1.953 . S
O276 C292 1.225 . S
Zn277 O276 1.953 . S
Zn277 O278 1.949 . S
Zn277 O284 1.919 . S
Zn277 O289 1.924 . S
O278 Zn277 1.949 . S
O278 Zn279 1.923 . S
O278 Zn280 1.950 . S
O278 Zn281 1.945 . S
Zn279 O278 1.923 . S
Zn279 O282 1.933 . S
Zn279 O285 1.941 . S
Zn279 O286 1.965 . S
Zn280 O278 1.950 . S
Zn280 O287 1.938 . S
Zn280 O288 1.906 . S
Zn280 O298 1.953 . S
Zn281 O278 1.945 . S
Zn281 O283 1.932 . S
Zn281 O290 1.977 . S
Zn281 O291 1.910 . S
O282 Zn279 1.933 . S
O282 C293 1.226 . S
O283 Zn281 1.932 . S
O283 C293 1.307 . S
O284 Zn277 1.919 . S
O284 C295 1.253 . S
O285 Zn279 1.941 . S
O285 C295 1.283 . S
O286 Zn279 1.965 . S
O286 C294 1.303 . S
O287 Zn280 1.938 . S
O287 C294 1.247 . S
O288 Zn280 1.906 . S
O288 C296 1.304 . S
O289 Zn277 1.924 . S
O289 C297 1.311 . S
O290 Zn281 1.977 . S
O290 C296 1.272 . S
O291 Zn281 1.910 . S
O291 C297 1.231 . S
C292 O276 1.225 . S
C292 O298 1.298 . S
C293 O282 1.226 . S
C293 O283 1.307 . S
C294 O286 1.303 . S
C294 O287 1.247 . S
C295 O284 1.253 . S
C295 O285 1.283 . S
C296 O288 1.304 . S
C296 O290 1.272 . S
C297 O289 1.311 . S
C297 O291 1.231 . S
O298 Zn280 1.953 . S
O298 C292 1.298 . S
O299 Zn300 1.953 . S
O299 C315 1.225 . S
Zn300 O299 1.953 . S
Zn300 O301 1.949 . S
Zn300 O307 1.919 . S
Zn300 O312 1.924 . S
O301 Zn300 1.949 . S
O301 Zn302 1.923 . S
O301 Zn303 1.950 . S
O301 Zn304 1.945 . S
Zn302 O301 1.923 . S
Zn302 O305 1.933 . S
Zn302 O308 1.941 . S
Zn302 O309 1.965 . S
Zn303 O301 1.950 . S
Zn303 O310 1.938 . S
Zn303 O311 1.906 . S
Zn303 O321 1.953 . S
Zn304 O301 1.945 . S
Zn304 O306 1.932 . S
Zn304 O313 1.977 . S
Zn304 O314 1.910 . S
O305 Zn302 1.933 . S
O305 C316 1.226 . S
O306 Zn304 1.932 . S
O306 C316 1.307 . S
O307 Zn300 1.919 . S
O307 C318 1.253 . S
O308 Zn302 1.941 . S
O308 C318 1.283 . S
O309 Zn302 1.965 . S
O309 C317 1.303 . S
O310 Zn303 1.938 . S
O310 C317 1.247 . S
O311 Zn303 1.906 . S
O311 C319 1.304 . S
O312 Zn300 1.924 . S
O312 C320 1.311 . S
O313 Zn304 1.977 . S
O313 C319 1.272 . S
O314 Zn304 1.910 . S
O314 C320 1.231 . S
C315 O299 1.225 . S
C315 O321 1.298 . S
C316 O305 1.226 . S
C316 O306 1.307 . S
C317 O309 1.303 . S
C317 O310 1.247 . S
C318 O307 1.253 . S
C318 O308 1.283 . S
C319 O311 1.304 . S
C319 O313 1.272 . S
C320 O312 1.311 . S
C320 O314 1.231 . S
O321 Zn303 1.953 . S
O321 C315 1.298 . S
O322 Zn323 1.953 . S
O322 C338 1.225 . S
Zn323 O322 1.953 . S
Zn323 O324 1.949 . S
Zn323 O330 1.919 . S
Zn323 O335 1.924 . S
O324 Zn323 1.949 . S
O324 Zn325 1.923 . S
O324 Zn326 1.950 . S
O324 Zn327 1.945 . S
Zn325 O324 1.923 . S
Zn325 O328 1.933 . S
Zn325 O331 1.941 . S
Zn325 O332 1.965 . S
Zn326 O324 1.950 . S
Zn326 O333 1.938 . S
Zn326 O334 1.906 . S
Zn326 O344 1.953 . S
Zn327 O324 1.945 . S
Zn327 O329 1.932 . S
Zn327 O336 1.977 . S
Zn327 O337 1.910 . S
O328 Zn325 1.933 . S
O328 C339 1.226 . S
O329 Zn327 1.932 . S
O329 C339 1.307 . S
O330 Zn323 1.919 . S
O330 C341 1.253 . S
O331 Zn325 1.941 . S
O331 C341 1.283 . S
O332 Zn325 1.965 . S
O332 C340 1.303 . S
O333 Zn326 1.938 . S
O333 C340 1.247 . S
O334 Zn326 1.906 . S
O334 C342 1.304 . S
O335 Zn323 1.924 . S
O335 C343 1.311 . S
O336 Zn327 1.977 . S
O336 C342 1.272 . S
O337 Zn327 1.910 . S
O337 C343 1.231 . S
C338 O322 1.225 . S
C338 O344 1.298 . S
C339 O328 1.226 . S
C339 O329 1.307 . S
C340 O332 1.303 . S
C340 O333 1.247 . S
C341 O330 1.253 . S
C341 O331 1.283 . S
C342 O334 1.304 . S
C342 O336 1.272 . S
C343 O335 1.311 . S
C343 O337 1.231 . S
O344 Zn326 1.953 . S
O344 C338 1.298 . S
O345 Zn346 1.953 . S
O345 C361 1.225 . S
Zn346 O345 1.953 . S
Zn346 O347 1.949 . S
Zn346 O353 1.919 . S
Zn346 O358 1.924 . S
O347 Zn346 1.949 . S
O347 Zn348 1.923 . S
O347 Zn349 1.950 . S
O347 Zn350 1.945 . S
Zn348 O347 1.923 . S
Zn348 O351 1.933 . S
Zn348 O354 1.941 . S
Zn348 O355 1.965 1_554 S
Zn349 O347 1.950 . S
Zn349 O356 1.938 1_554 S
Zn349 O357 1.906 . S
Zn349 O367 1.953 . S
Zn350 O347 1.945 . S
Zn350 O352 1.932 . S
Zn350 O359 1.977 . S
Zn350 O360 1.910 . S
O351 Zn348 1.933 . S
O351 C362 1.226 . S
O352 Zn350 1.932 . S
O352 C362 1.307 . S
O353 Zn346 1.919 . S
O353 C364 1.253 . S
O354 Zn348 1.941 . S
O354 C364 1.283 . S
O355 Zn348 1.965 1_556 S
O355 C363 1.303 . S
O356 Zn349 1.938 1_556 S
O356 C363 1.247 . S
O357 Zn349 1.906 . S
O357 C365 1.304 . S
O358 Zn346 1.924 . S
O358 C366 1.311 . S
O359 Zn350 1.977 . S
O359 C365 1.272 . S
O360 Zn350 1.910 . S
O360 C366 1.231 . S
C361 O345 1.225 . S
C361 O367 1.298 . S
C362 O351 1.226 . S
C362 O352 1.307 . S
C363 O355 1.303 . S
C363 O356 1.247 . S
C364 O353 1.253 . S
C364 O354 1.283 . S
C365 O357 1.304 . S
C365 O359 1.272 . S
C366 O358 1.311 . S
C366 O360 1.231 . S
O367 Zn349 1.953 . S
O367 C361 1.298 . S
O368 Zn369 1.953 . S
O368 C384 1.225 . S
Zn369 O368 1.953 . S
Zn369 O370 1.949 . S
Zn369 O376 1.919 . S
Zn369 O381 1.924 . S
O370 Zn369 1.949 . S
O370 Zn371 1.923 . S
O370 Zn372 1.950 . S
O370 Zn373 1.945 . S
Zn371 O370 1.923 . S
Zn371 O374 1.933 . S
Zn371 O377 1.941 . S
Zn371 O378 1.965 . S
Zn372 O370 1.950 . S
Zn372 O379 1.938 . S
Zn372 O380 1.906 . S
Zn372 O390 1.953 . S
Zn373 O370 1.945 . S
Zn373 O375 1.932 . S
Zn373 O382 1.977 . S
Zn373 O383 1.910 . S
O374 Zn371 1.933 . S
O374 C385 1.226 . S
O375 Zn373 1.932 . S
O375 C385 1.307 . S
O376 Zn369 1.919 . S
O376 C387 1.253 . S
O377 Zn371 1.941 . S
O377 C387 1.283 . S
O378 Zn371 1.965 . S
O378 C386 1.303 . S
O379 Zn372 1.938 . S
O379 C386 1.247 . S
O380 Zn372 1.906 . S
O380 C388 1.304 . S
O381 Zn369 1.924 . S
O381 C389 1.311 . S
O382 Zn373 1.977 . S
O382 C388 1.272 . S
O383 Zn373 1.910 . S
O383 C389 1.231 . S
C384 O368 1.225 . S
C384 O390 1.298 . S
C385 O374 1.226 . S
C385 O375 1.307 . S
C386 O378 1.303 . S
C386 O379 1.247 . S
C387 O376 1.253 . S
C387 O377 1.283 . S
C388 O380 1.304 . S
C388 O382 1.272 . S
C389 O381 1.311 . S
C389 O383 1.231 . S
O390 Zn372 1.953 . S
O390 C384 1.298 . S
O391 Zn392 1.953 . S
O391 C407 1.225 . S
Zn392 O391 1.953 . S
Zn392 O393 1.949 . S
Zn392 O399 1.919 . S
Zn392 O404 1.924 . S
O393 Zn392 1.949 . S
O393 Zn394 1.923 . S
O393 Zn395 1.950 . S
O393 Zn396 1.945 . S
Zn394 O393 1.923 . S
Zn394 O397 1.933 . S
Zn394 O400 1.941 . S
Zn394 O401 1.965 1_554 S
Zn395 O393 1.950 . S
Zn395 O402 1.938 1_554 S
Zn395 O403 1.906 . S
Zn395 O413 1.953 . S
Zn396 O393 1.945 . S
Zn396 O398 1.932 . S
Zn396 O405 1.977 . S
Zn396 O406 1.910 . S
O397 Zn394 1.933 . S
O397 C408 1.226 . S
O398 Zn396 1.932 . S
O398 C408 1.307 . S
O399 Zn392 1.919 . S
O399 C410 1.253 . S
O400 Zn394 1.941 . S
O400 C410 1.283 . S
O401 Zn394 1.965 1_556 S
O401 C409 1.303 . S
O402 Zn395 1.938 1_556 S
O402 C409 1.247 . S
O403 Zn395 1.906 . S
O403 C411 1.304 . S
O404 Zn392 1.924 . S
O404 C412 1.311 . S
O405 Zn396 1.977 . S
O405 C411 1.272 . S
O406 Zn396 1.910 . S
O406 C412 1.231 . S
C407 O391 1.225 . S
C407 O413 1.298 . S
C408 O397 1.226 . S
C408 O398 1.307 . S
C409 O401 1.303 . S
C409 O402 1.247 . S
C410 O399 1.253 . S
C410 O400 1.283 . S
C411 O403 1.304 . S
C411 O405 1.272 . S
C412 O404 1.311 . S
C412 O406 1.231 . S
O413 Zn395 1.953 . S
O413 C407 1.298 . S
O414 Zn415 1.953 . S
O414 C430 1.225 . S
Zn415 O414 1.953 . S
Zn415 O416 1.949 . S
Zn415 O422 1.919 . S
Zn415 O427 1.924 . S
O416 Zn415 1.949 . S
O416 Zn417 1.923 . S
O416 Zn418 1.950 . S
O416 Zn419 1.945 . S
Zn417 O416 1.923 . S
Zn417 O420 1.933 . S
Zn417 O423 1.941 . S
Zn417 O424 1.965 . S
Zn418 O416 1.950 . S
Zn418 O425 1.938 . S
Zn418 O426 1.906 . S
Zn418 O436 1.953 . S
Zn419 O416 1.945 . S
Zn419 O421 1.932 . S
Zn419 O428 1.977 . S
Zn419 O429 1.910 . S
O420 Zn417 1.933 . S
O420 C431 1.226 . S
O421 Zn419 1.932 . S
O421 C431 1.307 . S
O422 Zn415 1.919 . S
O422 C433 1.253 . S
O423 Zn417 1.941 . S
O423 C433 1.283 . S
O424 Zn417 1.965 . S
O424 C432 1.303 . S
O425 Zn418 1.938 . S
O425 C432 1.247 . S
O426 Zn418 1.906 . S
O426 C434 1.304 . S
O427 Zn415 1.924 . S
O427 C435 1.311 . S
O428 Zn419 1.977 . S
O428 C434 1.272 . S
O429 Zn419 1.910 . S
O429 C435 1.231 . S
C430 O414 1.225 . S
C430 O436 1.298 . S
C431 O420 1.226 . S
C431 O421 1.307 . S
C432 O424 1.303 . S
C432 O425 1.247 . S
C433 O422 1.253 . S
C433 O423 1.283 . S
C434 O426 1.304 . S
C434 O428 1.272 . S
C435 O427 1.311 . S
C435 O429 1.231 . S
O436 Zn418 1.953 . S
O436 C430 1.298 . S
O437 Zn438 1.953 . S
O437 C453 1.225 . S
Zn438 O437 1.953 . S
Zn438 O439 1.949 . S
Zn438 O445 1.919 . S
Zn438 O450 1.924 . S
O439 Zn438 1.949 . S
O439 Zn440 1.923 . S
O439 Zn441 1.950 . S
O439 Zn442 1.945 . S
Zn440 O439 1.923 . S
Zn440 O443 1.933 . S
Zn440 O446 1.941 . S
Zn440 O447 1.965 . S
Zn441 O439 1.950 . S
Zn441 O448 1.938 . S
Zn441 O449 1.906 . S
Zn441 O459 1.953 . S
Zn442 O439 1.945 . S
Zn442 O444 1.932 . S
Zn442 O451 1.977 . S
Zn442 O452 1.910 . S
O443 Zn440 1.933 . S
O443 C454 1.226 . S
O444 Zn442 1.932 . S
O444 C454 1.307 . S
O445 Zn438 1.919 . S
O445 C456 1.253 . S
O446 Zn440 1.941 . S
O446 C456 1.283 . S
O447 Zn440 1.965 . S
O447 C455 1.303 . S
O448 Zn441 1.938 . S
O448 C455 1.247 . S
O449 Zn441 1.906 . S
O449 C457 1.304 . S
O450 Zn438 1.924 . S
O450 C458 1.311 . S
O451 Zn442 1.977 . S
O451 C457 1.272 . S
O452 Zn442 1.910 . S
O452 C458 1.231 . S
C453 O437 1.225 . S
C453 O459 1.298 . S
C454 O443 1.226 . S
C454 O444 1.307 . S
C455 O447 1.303 . S
C455 O448 1.247 . S
C456 O445 1.253 . S
C456 O446 1.283 . S
C457 O449 1.304 . S
C457 O451 1.272 . S
C458 O450 1.311 . S
C458 O452 1.231 . S
O459 Zn441 1.953 . S
O459 C453 1.298 . S
O460 Zn461 1.953 . S
O460 C476 1.225 . S
Zn461 O460 1.953 . S
Zn461 O462 1.949 . S
Zn461 O468 1.919 . S
Zn461 O473 1.924 . S
O462 Zn461 1.949 . S
O462 Zn463 1.923 . S
O462 Zn464 1.950 . S
O462 Zn465 1.945 . S
Zn463 O462 1.923 . S
Zn463 O466 1.933 . S
Zn463 O469 1.941 . S
Zn463 O470 1.965 . S
Zn464 O462 1.950 . S
Zn464 O471 1.938 . S
Zn464 O472 1.906 . S
Zn464 O482 1.953 . S
Zn465 O462 1.945 . S
Zn465 O467 1.932 . S
Zn465 O474 1.977 . S
Zn465 O475 1.910 . S
O466 Zn463 1.933 . S
O466 C477 1.226 . S
O467 Zn465 1.932 . S
O467 C477 1.307 . S
O468 Zn461 1.919 . S
O468 C479 1.253 . S
O469 Zn463 1.941 . S
O469 C479 1.283 . S
O470 Zn463 1.965 . S
O470 C478 1.303 . S
O471 Zn464 1.938 . S
O471 C478 1.247 . S
O472 Zn464 1.906 . S
O472 C480 1.304 . S
O473 Zn461 1.924 . S
O473 C481 1.311 . S
O474 Zn465 1.977 . S
O474 C480 1.272 . S
O475 Zn465 1.910 . S
O475 C481 1.231 . S
C476 O460 1.225 . S
C476 O482 1.298 . S
C477 O466 1.226 . S
C477 O467 1.307 . S
C478 O470 1.303 . S
C478 O471 1.247 . S
C479 O468 1.253 . S
C479 O469 1.283 . S
C480 O472 1.304 . S
C480 O474 1.272 . S
C481 O473 1.311 . S
C481 O475 1.231 . S
O482 Zn464 1.953 . S
O482 C476 1.298 . S
O483 Zn484 1.953 . S
O483 C499 1.225 . S
Zn484 O483 1.953 . S
Zn484 O485 1.949 . S
Zn484 O491 1.919 . S
Zn484 O496 1.924 . S
O485 Zn484 1.949 . S
O485 Zn486 1.923 . S
O485 Zn487 1.950 . S
O485 Zn488 1.945 . S
Zn486 O485 1.923 . S
Zn486 O489 1.933 . S
Zn486 O492 1.941 . S
Zn486 O493 1.965 1_556 S
Zn487 O485 1.950 . S
Zn487 O494 1.938 1_556 S
Zn487 O495 1.906 . S
Zn487 O505 1.953 . S
Zn488 O485 1.945 . S
Zn488 O490 1.932 . S
Zn488 O497 1.977 . S
Zn488 O498 1.910 . S
O489 Zn486 1.933 . S
O489 C500 1.226 . S
O490 Zn488 1.932 . S
O490 C500 1.307 . S
O491 Zn484 1.919 . S
O491 C502 1.253 . S
O492 Zn486 1.941 . S
O492 C502 1.283 . S
O493 Zn486 1.965 1_554 S
O493 C501 1.303 . S
O494 Zn487 1.938 1_554 S
O494 C501 1.247 . S
O495 Zn487 1.906 . S
O495 C503 1.304 . S
O496 Zn484 1.924 . S
O496 C504 1.311 . S
O497 Zn488 1.977 . S
O497 C503 1.272 . S
O498 Zn488 1.910 . S
O498 C504 1.231 . S
C499 O483 1.225 . S
C499 O505 1.298 . S
C500 O489 1.226 . S
C500 O490 1.307 . S
C501 O493 1.303 . S
C501 O494 1.247 . S
C502 O491 1.253 . S
C502 O492 1.283 . S
C503 O495 1.304 . S
C503 O497 1.272 . S
C504 O496 1.311 . S
C504 O498 1.231 . S
O505 Zn487 1.953 . S
O505 C499 1.298 . S
O506 Zn507 1.953 . S
O506 C522 1.225 . S
Zn507 O506 1.953 . S
Zn507 O508 1.949 . S
Zn507 O514 1.919 . S
Zn507 O519 1.924 . S
O508 Zn507 1.949 . S
O508 Zn509 1.923 . S
O508 Zn510 1.950 . S
O508 Zn511 1.945 . S
Zn509 O508 1.923 . S
Zn509 O512 1.933 . S
Zn509 O515 1.941 . S
Zn509 O516 1.965 . S
Zn510 O508 1.950 . S
Zn510 O517 1.938 . S
Zn510 O518 1.906 . S
Zn510 O528 1.953 . S
Zn511 O508 1.945 . S
Zn511 O513 1.932 . S
Zn511 O520 1.977 . S
Zn511 O521 1.910 . S
O512 Zn509 1.933 . S
O512 C523 1.226 . S
O513 Zn511 1.932 . S
O513 C523 1.307 . S
O514 Zn507 1.919 . S
O514 C525 1.253 . S
O515 Zn509 1.941 . S
O515 C525 1.283 . S
O516 Zn509 1.965 . S
O516 C524 1.303 . S
O517 Zn510 1.938 . S
O517 C524 1.247 . S
O518 Zn510 1.906 . S
O518 C526 1.304 . S
O519 Zn507 1.924 . S
O519 C527 1.311 . S
O520 Zn511 1.977 . S
O520 C526 1.272 . S
O521 Zn511 1.910 . S
O521 C527 1.231 . S
C522 O506 1.225 . S
C522 O528 1.298 . S
C523 O512 1.226 . S
C523 O513 1.307 . S
C524 O516 1.303 . S
C524 O517 1.247 . S
C525 O514 1.253 . S
C525 O515 1.283 . S
C526 O518 1.304 . S
C526 O520 1.272 . S
C527 O519 1.311 . S
C527 O521 1.231 . S
O528 Zn510 1.953 . S
O528 C522 1.298 . S
O529 Zn530 1.953 . S
O529 C545 1.225 . S
Zn530 O529 1.953 . S
Zn530 O531 1.949 . S
Zn530 O537 1.919 . S
Zn530 O542 1.924 . S
O531 Zn530 1.949 . S
O531 Zn532 1.923 . S
O531 Zn533 1.950 . S
O531 Zn534 1.945 . S
Zn532 O531 1.923 . S
Zn532 O535 1.933 . S
Zn532 O538 1.941 . S
Zn532 O539 1.965 . S
Zn533 O531 1.950 . S
Zn533 O540 1.938 . S
Zn533 O541 1.906 . S
Zn533 O551 1.953 . S
Zn534 O531 1.945 . S
Zn534 O536 1.932 . S
Zn534 O543 1.977 . S
Zn534 O544 1.910 . S
O535 Zn532 1.933 . S
O535 C546 1.226 . S
O536 Zn534 1.932 . S
O536 C546 1.307 . S
O537 Zn530 1.919 . S
O537 C548 1.253 . S
O538 Zn532 1.941 . S
O538 C548 1.283 . S
O539 Zn532 1.965 . S
O539 C547 1.303 . S
O540 Zn533 1.938 . S
O540 C547 1.247 . S
O541 Zn533 1.906 . S
O541 C549 1.304 . S
O542 Zn530 1.924 . S
O542 C550 1.311 . S
O543 Zn534 1.977 . S
O543 C549 1.272 . S
O544 Zn534 1.910 . S
O544 C550 1.231 . S
C545 O529 1.225 . S
C545 O551 1.298 . S
C546 O535 1.226 . S
C546 O536 1.307 . S
C547 O539 1.303 . S
C547 O540 1.247 . S
C548 O537 1.253 . S
C548 O538 1.283 . S
C549 O541 1.304 . S
C549 O543 1.272 . S
C550 O542 1.311 . S
C550 O544 1.231 . S
O551 Zn533 1.953 . S
O551 C545 1.298 . S
O552 Zn553 1.953 . S
O552 C568 1.225 . S
Zn553 O552 1.953 . S
Zn553 O554 1.949 . S
Zn553 O560 1.919 . S
Zn553 O565 1.924 . S
O554 Zn553 1.949 . S
O554 Zn555 1.923 . S
O554 Zn556 1.950 . S
O554 Zn557 1.945 . S
Zn555 O554 1.923 . S
Zn555 O558 1.933 . S
Zn555 O561 1.941 . S
Zn555 O562 1.965 . S
Zn556 O554 1.950 . S
Zn556 O563 1.938 . S
Zn556 O564 1.906 . S
Zn556 O574 1.953 . S
Zn557 O554 1.945 . S
Zn557 O559 1.932 . S
Zn557 O566 1.977 . S
Zn557 O567 1.910 . S
O558 Zn555 1.933 . S
O558 C569 1.226 . S
O559 Zn557 1.932 . S
O559 C569 1.307 . S
O560 Zn553 1.919 . S
O560 C571 1.253 . S
O561 Zn555 1.941 . S
O561 C571 1.283 . S
O562 Zn555 1.965 . S
O562 C570 1.303 . S
O563 Zn556 1.938 . S
O563 C570 1.247 . S
O564 Zn556 1.906 . S
O564 C572 1.304 . S
O565 Zn553 1.924 . S
O565 C573 1.311 . S
O566 Zn557 1.977 . S
O566 C572 1.272 . S
O567 Zn557 1.910 . S
O567 C573 1.231 . S
C568 O552 1.225 . S
C568 O574 1.298 . S
C569 O558 1.226 . S
C569 O559 1.307 . S
C570 O562 1.303 . S
C570 O563 1.247 . S
C571 O560 1.253 . S
C571 O561 1.283 . S
C572 O564 1.304 . S
C572 O566 1.272 . S
C573 O565 1.311 . S
C573 O567 1.231 . S
O574 Zn556 1.953 . S
O574 C568 1.298 . S
O575 Zn576 1.953 . S
O575 C591 1.225 . S
Zn576 O575 1.953 . S
Zn576 O577 1.949 . S
Zn576 O583 1.919 . S
Zn576 O588 1.924 . S
O577 Zn576 1.949 . S
O577 Zn578 1.923 . S
O577 Zn579 1.950 . S
O577 Zn580 1.945 . S
Zn578 O577 1.923 . S
Zn578 O581 1.933 . S
Zn578 O584 1.941 . S
Zn578 O585 1.965 1_556 S
Zn579 O577 1.950 . S
Zn579 O586 1.938 1_556 S
Zn579 O587 1.906 . S
Zn579 O597 1.953 . S
Zn580 O577 1.945 . S
Zn580 O582 1.932 . S
Zn580 O589 1.977 . S
Zn580 O590 1.910 . S
O581 Zn578 1.933 . S
O581 C592 1.226 . S
O582 Zn580 1.932 . S
O582 C592 1.307 . S
O583 Zn576 1.919 . S
O583 C594 1.253 . S
O584 Zn578 1.941 . S
O584 C594 1.283 . S
O585 Zn578 1.965 1_554 S
O585 C593 1.303 . S
O586 Zn579 1.938 1_554 S
O586 C593 1.247 . S
O587 Zn579 1.906 . S
O587 C595 1.304 . S
O588 Zn576 1.924 . S
O588 C596 1.311 . S
O589 Zn580 1.977 . S
O589 C595 1.272 . S
O590 Zn580 1.910 . S
O590 C596 1.231 . S
C591 O575 1.225 . S
C591 O597 1.298 . S
C592 O581 1.226 . S
C592 O582 1.307 . S
C593 O585 1.303 . S
C593 O586 1.247 . S
C594 O583 1.253 . S
C594 O584 1.283 . S
C595 O587 1.304 . S
C595 O589 1.272 . S
C596 O588 1.311 . S
C596 O590 1.231 . S
O597 Zn579 1.953 . S
O597 C591 1.298 . S
O598 Zn599 1.953 . S
O598 C614 1.225 . S
Zn599 O598 1.953 . S
Zn599 O600 1.949 . S
Zn599 O606 1.919 . S
Zn599 O611 1.924 . S
O600 Zn599 1.949 . S
O600 Zn601 1.923 . S
O600 Zn602 1.950 . S
O600 Zn603 1.945 . S
Zn601 O600 1.923 . S
Zn601 O604 1.933 . S
Zn601 O607 1.941 . S
Zn601 O608 1.965 . S
Zn602 O600 1.950 . S
Zn602 O609 1.938 . S
Zn602 O610 1.906 . S
Zn602 O620 1.953 . S
Zn603 O600 1.945 . S
Zn603 O605 1.932 . S
Zn603 O612 1.977 . S
Zn603 O613 1.910 . S
O604 Zn601 1.933 . S
O604 C615 1.226 . S
O605 Zn603 1.932 . S
O605 C615 1.307 . S
O606 Zn599 1.919 . S
O606 C617 1.253 . S
O607 Zn601 1.941 . S
O607 C617 1.283 . S
O608 Zn601 1.965 . S
O608 C616 1.303 . S
O609 Zn602 1.938 . S
O609 C616 1.247 . S
O610 Zn602 1.906 . S
O610 C618 1.304 . S
O611 Zn599 1.924 . S
O611 C619 1.311 . S
O612 Zn603 1.977 . S
O612 C618 1.272 . S
O613 Zn603 1.910 . S
O613 C619 1.231 . S
C614 O598 1.225 . S
C614 O620 1.298 . S
C615 O604 1.226 . S
C615 O605 1.307 . S
C616 O608 1.303 . S
C616 O609 1.247 . S
C617 O606 1.253 . S
C617 O607 1.283 . S
C618 O610 1.304 . S
C618 O612 1.272 . S
C619 O611 1.311 . S
C619 O613 1.231 . S
O620 Zn602 1.953 . S
O620 C614 1.298 . S
O621 Zn622 1.953 . S
O621 C637 1.225 . S
Zn622 O621 1.953 . S
Zn622 O623 1.949 . S
Zn622 O629 1.919 . S
Zn622 O634 1.924 . S
O623 Zn622 1.949 . S
O623 Zn624 1.923 . S
O623 Zn625 1.950 . S
O623 Zn626 1.945 . S
Zn624 O623 1.923 . S
Zn624 O627 1.933 . S
Zn624 O630 1.941 . S
Zn624 O631 1.965 . S
Zn625 O623 1.950 . S
Zn625 O632 1.938 . S
Zn625 O633 1.906 . S
Zn625 O643 1.953 . S
Zn626 O623 1.945 . S
Zn626 O628 1.932 . S
Zn626 O635 1.977 . S
Zn626 O636 1.910 . S
O627 Zn624 1.933 . S
O627 C638 1.226 . S
O628 Zn626 1.932 . S
O628 C638 1.307 . S
O629 Zn622 1.919 . S
O629 C640 1.253 . S
O630 Zn624 1.941 . S
O630 C640 1.283 . S
O631 Zn624 1.965 . S
O631 C639 1.303 . S
O632 Zn625 1.938 . S
O632 C639 1.247 . S
O633 Zn625 1.906 . S
O633 C641 1.304 . S
O634 Zn622 1.924 . S
O634 C642 1.311 . S
O635 Zn626 1.977 . S
O635 C641 1.272 . S
O636 Zn626 1.910 . S
O636 C642 1.231 . S
C637 O621 1.225 . S
C637 O643 1.298 . S
C638 O627 1.226 . S
C638 O628 1.307 . S
C639 O631 1.303 . S
C639 O632 1.247 . S
C640 O629 1.253 . S
C640 O630 1.283 . S
C641 O633 1.304 . S
C641 O635 1.272 . S
C642 O634 1.311 . S
C642 O636 1.231 . S
O643 Zn625 1.953 . S
O643 C637 1.298 . S
O644 Zn645 1.953 . S
O644 C660 1.225 . S
Zn645 O644 1.953 . S
Zn645 O646 1.949 . S
Zn645 O652 1.919 . S
Zn645 O657 1.924 . S
O646 Zn645 1.949 . S
O646 Zn647 1.923 . S
O646 Zn648 1.950 . S
O646 Zn649 1.945 . S
Zn647 O646 1.923 . S
Zn647 O650 1.933 . S
Zn647 O653 1.941 . S
Zn647 O654 1.965 . S
Zn648 O646 1.950 . S
Zn648 O655 1.938 . S
Zn648 O656 1.906 . S
Zn648 O666 1.953 . S
Zn649 O646 1.945 . S
Zn649 O651 1.932 . S
Zn649 O658 1.977 . S
Zn649 O659 1.910 . S
O650 Zn647 1.933 . S
O650 C661 1.226 . S
O651 Zn649 1.932 . S
O651 C661 1.307 . S
O652 Zn645 1.919 . S
O652 C663 1.253 . S
O653 Zn647 1.941 . S
O653 C663 1.283 . S
O654 Zn647 1.965 . S
O654 C662 1.303 . S
O655 Zn648 1.938 . S
O655 C662 1.247 . S
O656 Zn648 1.906 . S
O656 C664 1.304 . S
O657 Zn645 1.924 . S
O657 C665 1.311 . S
O658 Zn649 1.977 . S
O658 C664 1.272 . S
O659 Zn649 1.910 . S
O659 C665 1.231 . S
C660 O644 1.225 . S
C660 O666 1.298 . S
C661 O650 1.226 . S
C661 O651 1.307 . S
C662 O654 1.303 . S
C662 O655 1.247 . S
C663 O652 1.253 . S
C663 O653 1.283 . S
C664 O656 1.304 . S
C664 O658 1.272 . S
C665 O657 1.311 . S
C665 O659 1.231 . S
O666 Zn648 1.953 . S
O666 C660 1.298 . S
O667 Zn668 1.953 . S
O667 C683 1.225 . S
Zn668 O667 1.953 . S
Zn668 O669 1.949 . S
Zn668 O675 1.919 . S
Zn668 O680 1.924 . S
O669 Zn668 1.949 . S
O669 Zn670 1.923 . S
O669 Zn671 1.950 . S
O669 Zn672 1.945 . S
Zn670 O669 1.923 . S
Zn670 O673 1.933 . S
Zn670 O676 1.941 . S
Zn670 O677 1.965 1_554 S
Zn671 O669 1.950 . S
Zn671 O678 1.938 1_554 S
Zn671 O679 1.906 . S
Zn671 O689 1.953 . S
Zn672 O669 1.945 . S
Zn672 O674 1.932 . S
Zn672 O681 1.977 . S
Zn672 O682 1.910 . S
O673 Zn670 1.933 . S
O673 C684 1.226 . S
O674 Zn672 1.932 . S
O674 C684 1.307 . S
O675 Zn668 1.919 . S
O675 C686 1.253 . S
O676 Zn670 1.941 . S
O676 C686 1.283 . S
O677 Zn670 1.965 1_556 S
O677 C685 1.303 . S
O678 Zn671 1.938 1_556 S
O678 C685 1.247 . S
O679 Zn671 1.906 . S
O679 C687 1.304 . S
O680 Zn668 1.924 . S
O680 C688 1.311 . S
O681 Zn672 1.977 . S
O681 C687 1.272 . S
O682 Zn672 1.910 . S
O682 C688 1.231 . S
C683 O667 1.225 . S
C683 O689 1.298 . S
C684 O673 1.226 . S
C684 O674 1.307 . S
C685 O677 1.303 . S
C685 O678 1.247 . S
C686 O675 1.253 . S
C686 O676 1.283 . S
C687 O679 1.304 . S
C687 O681 1.272 . S
C688 O680 1.311 . S
C688 O682 1.231 . S
O689 Zn671 1.953 . S
O689 C683 1.298 . S
O690 Zn691 1.953 . S
O690 C706 1.225 . S
Zn691 O690 1.953 . S
Zn691 O692 1.949 . S
Zn691 O698 1.919 . S
Zn691 O703 1.924 . S
O692 Zn691 1.949 . S
O692 Zn693 1.923 . S
O692 Zn694 1.950 . S
O692 Zn695 1.945 . S
Zn693 O692 1.923 . S
Zn693 O696 1.933 . S
Zn693 O699 1.941 . S
Zn693 O700 1.965 . S
Zn694 O692 1.950 . S
Zn694 O701 1.938 . S
Zn694 O702 1.906 . S
Zn694 O712 1.953 . S
Zn695 O692 1.945 . S
Zn695 O697 1.932 . S
Zn695 O704 1.977 . S
Zn695 O705 1.910 . S
O696 Zn693 1.933 . S
O696 C707 1.226 . S
O697 Zn695 1.932 . S
O697 C707 1.307 . S
O698 Zn691 1.919 . S
O698 C709 1.253 . S
O699 Zn693 1.941 . S
O699 C709 1.283 . S
O700 Zn693 1.965 . S
O700 C708 1.303 . S
O701 Zn694 1.938 . S
O701 C708 1.247 . S
O702 Zn694 1.906 . S
O702 C710 1.304 . S
O703 Zn691 1.924 . S
O703 C711 1.311 . S
O704 Zn695 1.977 . S
O704 C710 1.272 . S
O705 Zn695 1.910 . S
O705 C711 1.231 . S
C706 O690 1.225 . S
C706 O712 1.298 . S
C707 O696 1.226 . S
C707 O697 1.307 . S
C708 O700 1.303 . S
C708 O701 1.247 . S
C709 O698 1.253 . S
C709 O699 1.283 . S
C710 O702 1.304 . S
C710 O704 1.272 . S
C711 O703 1.311 . S
C711 O705 1.231 . S
O712 Zn694 1.953 . S
O712 C706 1.298 . S
O713 Zn714 1.953 . S
O713 C729 1.225 . S
Zn714 O713 1.953 . S
Zn714 O715 1.949 . S
Zn714 O721 1.919 . S
Zn714 O726 1.924 . S
O715 Zn714 1.949 . S
O715 Zn716 1.923 . S
O715 Zn717 1.950 . S
O715 Zn718 1.945 . S
Zn716 O715 1.923 . S
Zn716 O719 1.933 . S
Zn716 O722 1.941 . S
Zn716 O723 1.965 . S
Zn717 O715 1.950 . S
Zn717 O724 1.938 . S
Zn717 O725 1.906 . S
Zn717 O735 1.953 . S
Zn718 O715 1.945 . S
Zn718 O720 1.932 . S
Zn718 O727 1.977 . S
Zn718 O728 1.910 . S
O719 Zn716 1.933 . S
O719 C730 1.226 . S
O720 Zn718 1.932 . S
O720 C730 1.307 . S
O721 Zn714 1.919 . S
O721 C732 1.253 . S
O722 Zn716 1.941 . S
O722 C732 1.283 . S
O723 Zn716 1.965 . S
O723 C731 1.303 . S
O724 Zn717 1.938 . S
O724 C731 1.247 . S
O725 Zn717 1.906 . S
O725 C733 1.304 . S
O726 Zn714 1.924 . S
O726 C734 1.311 . S
O727 Zn718 1.977 . S
O727 C733 1.272 . S
O728 Zn718 1.910 . S
O728 C734 1.231 . S
C729 O713 1.225 . S
C729 O735 1.298 . S
C730 O719 1.226 . S
C730 O720 1.307 . S
C731 O723 1.303 . S
C731 O724 1.247 . S
C732 O721 1.253 . S
C732 O722 1.283 . S
C733 O725 1.304 . S
C733 O727 1.272 . S
C734 O726 1.311 . S
C734 O728 1.231 . S
O735 Zn717 1.953 . S
O735 C729 1.298 . S
C736 C737 1.387 . S
C736 H740 0.950 . S
C736 C745 1.390 . S
C737 C736 1.387 . S
C737 C739 1.387 . S
H738 C745 0.950 . S
C739 C737 1.387 . S
C739 C741 1.390 . S
C739 H743 0.950 . S
H740 C736 0.950 . S
C741 C739 1.390 . S
C741 C742 1.387 . S
C741 H744 0.950 . S
C742 C741 1.387 . S
C742 C745 1.387 . S
H743 C739 0.950 . S
H744 C741 0.950 . S
C745 C736 1.390 . S
C745 H738 0.950 . S
C745 C742 1.387 . S
C746 C747 1.387 . S
C746 H750 0.950 . S
C746 C755 1.390 . S
C747 C746 1.387 . S
C747 C749 1.387 . S
H748 C755 0.950 1_565 S
C749 C747 1.387 . S
C749 C751 1.390 . S
C749 H753 0.950 . S
H750 C746 0.950 . S
C751 C749 1.390 . S
C751 C752 1.387 1_545 S
C751 H754 0.950 1_545 S
C752 C751 1.387 1_565 S
C752 C755 1.387 1_565 S
H753 C749 0.950 . S
H754 C751 0.950 1_565 S
C755 C746 1.390 . S
C755 H748 0.950 1_545 S
C755 C752 1.387 1_545 S
C756 C757 1.387 . S
C756 H760 0.950 . S
C756 C765 1.390 . S
C757 C756 1.387 . S
C757 C759 1.387 . S
H758 C765 0.950 . S
C759 C757 1.387 . S
C759 C761 1.390 . S
C759 H763 0.950 . S
H760 C756 0.950 . S
C761 C759 1.390 . S
C761 C762 1.387 . S
C761 H764 0.950 . S
C762 C761 1.387 . S
C762 C765 1.387 . S
H763 C759 0.950 . S
H764 C761 0.950 . S
C765 C756 1.390 . S
C765 H758 0.950 . S
C765 C762 1.387 . S
C766 C767 1.387 . S
C766 H770 0.950 . S
C766 C775 1.390 1_565 S
C767 C766 1.387 . S
C767 C769 1.387 1_556 S
H768 C775 0.950 . S
C769 C767 1.387 1_554 S
C769 C771 1.390 . S
C769 H773 0.950 . S
H770 C766 0.950 . S
C771 C769 1.390 . S
C771 C772 1.387 1_565 S
C771 H774 0.950 . S
C772 C771 1.387 1_545 S
C772 C775 1.387 1_554 S
H773 C769 0.950 . S
H774 C771 0.950 . S
C775 C766 1.390 1_545 S
C775 H768 0.950 . S
C775 C772 1.387 1_556 S
C776 C777 1.387 . S
C776 H780 0.950 . S
C776 C785 1.390 . S
C777 C776 1.387 . S
C777 C779 1.387 . S
H778 C785 0.950 . S
C779 C777 1.387 . S
C779 C781 1.390 . S
C779 H783 0.950 . S
H780 C776 0.950 . S
C781 C779 1.390 . S
C781 C782 1.387 . S
C781 H784 0.950 . S
C782 C781 1.387 . S
C782 C785 1.387 . S
H783 C779 0.950 . S
H784 C781 0.950 . S
C785 C776 1.390 . S
C785 H778 0.950 . S
C785 C782 1.387 . S
C786 C787 1.387 1_545 S
C786 H790 0.950 . S
C786 C795 1.390 . S
C787 C786 1.387 1_565 S
C787 C789 1.387 . S
H788 C795 0.950 . S
C789 C787 1.387 . S
C789 C791 1.390 1_565 S
C789 H793 0.950 . S
H790 C786 0.950 . S
C791 C789 1.390 1_545 S
C791 C792 1.387 . S
C791 H794 0.950 . S
C792 C791 1.387 . S
C792 C795 1.387 . S
H793 C789 0.950 . S
H794 C791 0.950 . S
C795 C786 1.390 . S
C795 H788 0.950 . S
C795 C792 1.387 . S
C796 C797 1.387 . S
C796 H800 0.950 . S
C796 C805 1.390 . S
C797 C796 1.387 . S
C797 C799 1.387 . S
H798 C805 0.950 . S
C799 C797 1.387 . S
C799 C801 1.390 . S
C799 H803 0.950 . S
H800 C796 0.950 . S
C801 C799 1.390 . S
C801 C802 1.387 . S
C801 H804 0.950 . S
C802 C801 1.387 . S
C802 C805 1.387 . S
H803 C799 0.950 . S
H804 C801 0.950 . S
C805 C796 1.390 . S
C805 H798 0.950 . S
C805 C802 1.387 . S
C806 C807 1.387 . S
C806 H810 0.950 . S
C806 C815 1.390 1_564 S
C807 C806 1.387 . S
C807 C809 1.384 1_554 S
H808 C815 0.950 . S
C809 C807 1.384 1_556 S
C809 C811 1.394 . S
C809 H813 0.949 1_556 S
H810 C806 0.950 . S
C811 C809 1.394 . S
C811 C812 1.387 1_565 S
C811 H814 0.950 . S
C812 C811 1.387 1_545 S
C812 C815 1.387 . S
H813 C809 0.949 1_554 S
H814 C811 0.950 . S
C815 C806 1.390 1_546 S
C815 H808 0.950 . S
C815 C812 1.387 . S
C816 C817 1.387 . S
C816 H820 0.950 . S
C816 C825 1.390 . S
C817 C816 1.387 . S
C817 C819 1.387 . S
H818 C825 0.950 . S
C819 C817 1.387 . S
C819 C821 1.390 . S
C819 H823 0.950 . S
H820 C816 0.950 . S
C821 C819 1.390 . S
C821 C822 1.387 . S
C821 H824 0.950 . S
C822 C821 1.387 . S
C822 C825 1.387 . S
H823 C819 0.950 . S
H824 C821 0.950 . S
C825 C816 1.390 . S
C825 H818 0.950 . S
C825 C822 1.387 . S
C826 C827 1.387 1_565 S
C826 H830 0.950 . S
C826 C835 1.390 . S
C827 C826 1.387 1_545 S
C827 C829 1.387 . S
H828 C835 0.950 . S
C829 C827 1.387 . S
C829 C831 1.390 1_545 S
C829 H833 0.950 . S
H830 C826 0.950 . S
C831 C829 1.390 1_565 S
C831 C832 1.387 . S
C831 H834 0.950 . S
C832 C831 1.387 . S
C832 C835 1.387 . S
H833 C829 0.950 . S
H834 C831 0.950 . S
C835 C826 1.390 . S
C835 H828 0.950 . S
C835 C832 1.387 . S
C836 C837 1.387 . S
C836 H840 0.950 . S
C836 C845 1.390 . S
C837 C836 1.387 . S
C837 C839 1.387 . S
H838 C845 0.950 . S
C839 C837 1.387 . S
C839 C841 1.390 . S
C839 H843 0.950 . S
H840 C836 0.950 . S
C841 C839 1.390 . S
C841 C842 1.387 . S
C841 H844 0.950 . S
C842 C841 1.387 . S
C842 C845 1.387 . S
H843 C839 0.950 . S
H844 C841 0.950 . S
C845 C836 1.390 . S
C845 H838 0.950 . S
C845 C842 1.387 . S
C846 C847 1.387 1_545 S
C846 H850 0.950 . S
C846 C855 1.390 1_556 S
C847 C846 1.387 1_565 S
C847 C849 1.387 . S
H848 C855 0.950 . S
C849 C847 1.387 . S
C849 C851 1.390 1_566 S
C849 H853 0.950 . S
H850 C846 0.950 . S
C851 C849 1.390 1_544 S
C851 C852 1.387 . S
C851 H854 0.950 . S
C852 C851 1.387 . S
C852 C855 1.387 . S
H853 C849 0.950 . S
H854 C851 0.950 . S
C855 C846 1.390 1_554 S
C855 H848 0.950 . S
C855 C852 1.387 . S
C856 C857 1.387 . S
C856 H860 0.950 . S
C856 C865 1.390 . S
C857 C856 1.387 . S
C857 C859 1.387 . S
H858 C865 0.950 . S
C859 C857 1.387 . S
C859 C861 1.390 . S
C859 H863 0.950 . S
H860 C856 0.950 . S
C861 C859 1.390 . S
C861 C862 1.387 . S
C861 H864 0.950 . S
C862 C861 1.387 . S
C862 C865 1.387 . S
H863 C859 0.950 . S
H864 C861 0.950 . S
C865 C856 1.390 . S
C865 H858 0.950 . S
C865 C862 1.387 . S
C866 C867 1.387 1_565 S
C866 H870 0.950 . S
C866 C875 1.390 . S
C867 C866 1.387 1_545 S
C867 C869 1.387 . S
H868 C875 0.950 . S
C869 C867 1.387 . S
C869 C871 1.390 1_545 S
C869 H873 0.950 . S
H870 C866 0.950 . S
C871 C869 1.390 1_565 S
C871 C872 1.387 . S
C871 H874 0.950 . S
C872 C871 1.387 . S
C872 C875 1.387 . S
H873 C869 0.950 . S
H874 C871 0.950 . S
C875 C866 1.390 . S
C875 H868 0.950 . S
C875 C872 1.387 . S
C876 C877 1.387 . S
C876 H880 0.950 . S
C876 C885 1.390 . S
C877 C876 1.387 . S
C877 C879 1.387 . S
H878 C885 0.950 . S
C879 C877 1.387 . S
C879 C881 1.390 . S
C879 H883 0.950 . S
H880 C876 0.950 . S
C881 C879 1.390 . S
C881 C882 1.387 . S
C881 H884 0.950 . S
C882 C881 1.387 . S
C882 C885 1.387 . S
H883 C879 0.950 . S
H884 C881 0.950 . S
C885 C876 1.390 . S
C885 H878 0.950 . S
C885 C882 1.387 . S
C886 C887 1.387 . S
C886 H890 0.950 . S
C886 C895 1.390 1_545 S
C887 C886 1.387 . S
C887 C889 1.387 1_556 S
H888 C895 0.950 . S
C889 C887 1.387 1_554 S
C889 C891 1.390 . S
C889 H893 0.950 . S
H890 C886 0.950 . S
C891 C889 1.390 . S
C891 C892 1.387 1_545 S
C891 H894 0.950 . S
C892 C891 1.387 1_565 S
C892 C895 1.387 1_554 S
H893 C889 0.950 . S
H894 C891 0.950 . S
C895 C886 1.390 1_565 S
C895 H888 0.950 . S
C895 C892 1.387 1_556 S
C896 C897 1.387 . S
C896 H900 0.950 . S
C896 C905 1.390 . S
C897 C896 1.387 . S
C897 C899 1.387 . S
H898 C905 0.950 . S
C899 C897 1.387 . S
C899 C901 1.390 . S
C899 H903 0.950 . S
H900 C896 0.950 . S
C901 C899 1.390 . S
C901 C902 1.387 . S
C901 H904 0.950 . S
C902 C901 1.387 . S
C902 C905 1.387 . S
H903 C899 0.950 . S
H904 C901 0.950 . S
C905 C896 1.390 . S
C905 H898 0.950 . S
C905 C902 1.387 . S
C906 C907 1.400 . S
C906 H910 0.952 . S
C906 C915 1.376 1_556 S
C907 C906 1.400 . S
C907 C909 1.387 . S
H908 C915 0.950 . S
C909 C907 1.387 . S
C909 C911 1.390 1_556 S
C909 H913 0.950 . S
H910 C906 0.952 . S
C911 C909 1.390 1_554 S
C911 C912 1.387 . S
C911 H914 0.950 . S
C912 C911 1.387 . S
C912 C915 1.387 . S
H913 C909 0.950 . S
H914 C911 0.950 . S
C915 C906 1.376 1_554 S
C915 H908 0.950 . S
C915 C912 1.387 . S
C916 C917 1.387 . S
C916 H920 0.950 . S
C916 C925 1.390 . S
C917 C916 1.387 . S
C917 C919 1.387 . S
H918 C925 0.950 . S
C919 C917 1.387 . S
C919 C921 1.390 . S
C919 H923 0.950 . S
H920 C916 0.950 . S
C921 C919 1.390 . S
C921 C922 1.387 . S
C921 H924 0.950 . S
C922 C921 1.387 . S
C922 C925 1.387 . S
H923 C919 0.950 . S
H924 C921 0.950 . S
C925 C916 1.390 . S
C925 H918 0.950 . S
C925 C922 1.387 . S
C926 C927 1.387 . S
C926 H930 0.950 . S
C926 C935 1.390 . S
C927 C926 1.387 . S
C927 C929 1.387 . S
H928 C935 0.950 . S
C929 C927 1.387 . S
C929 C931 1.390 . S
C929 H933 0.950 . S
H930 C926 0.950 . S
C931 C929 1.390 . S
C931 C932 1.387 . S
C931 H934 0.950 . S
C932 C931 1.387 . S
C932 C935 1.387 . S
H933 C929 0.950 . S
H934 C931 0.950 . S
C935 C926 1.390 . S
C935 H928 0.950 . S
C935 C932 1.387 . S
C936 C937 1.387 . S
C936 H940 0.950 . S
C936 C945 1.390 . S
C937 C936 1.387 . S
C937 C939 1.387 . S
H938 C945 0.950 . S
C939 C937 1.387 . S
C939 C941 1.390 . S
C939 H943 0.950 . S
H940 C936 0.950 . S
C941 C939 1.390 . S
C941 C942 1.387 . S
C941 H944 0.950 . S
C942 C941 1.387 . S
C942 C945 1.387 . S
H943 C939 0.950 . S
H944 C941 0.950 . S
C945 C936 1.390 . S
C945 H938 0.950 . S
C945 C942 1.387 . S
C946 C947 1.387 . S
C946 H950 0.950 . S
C946 C955 1.390 1_554 S
C947 C946 1.387 . S
C947 C949 1.387 . S
H948 C955 0.950 . S
C949 C947 1.387 . S
C949 C951 1.390 1_554 S
C949 H953 0.950 . S
H950 C946 0.950 . S
C951 C949 1.390 1_556 S
C951 C952 1.387 . S
C951 H954 0.950 . S
C952 C951 1.387 . S
C952 C955 1.387 . S
H953 C949 0.950 . S
H954 C951 0.950 . S
C955 C946 1.390 1_556 S
C955 H948 0.950 . S
C955 C952 1.387 . S
C956 C957 1.387 . S
C956 H960 0.950 . S
C956 C965 1.390 . S
C957 C956 1.387 . S
C957 C959 1.387 . S
H958 C965 0.950 . S
C959 C957 1.387 . S
C959 C961 1.390 . S
C959 H963 0.950 . S
H960 C956 0.950 . S
C961 C959 1.390 . S
C961 C962 1.387 . S
C961 H964 0.950 . S
C962 C961 1.387 . S
C962 C965 1.387 . S
H963 C959 0.950 . S
H964 C961 0.950 . S
C965 C956 1.390 . S
C965 H958 0.950 . S
C965 C962 1.387 . S
C966 C967 1.387 . S
C966 H970 0.950 . S
C966 C975 1.390 . S
C967 C966 1.387 . S
C967 C969 1.387 . S
H968 C975 0.950 . S
C969 C967 1.387 . S
C969 C971 1.390 . S
C969 H973 0.950 . S
H970 C966 0.950 . S
C971 C969 1.390 . S
C971 C972 1.387 . S
C971 H974 0.950 . S
C972 C971 1.387 . S
C972 C975 1.387 . S
H973 C969 0.950 . S
H974 C971 0.950 . S
C975 C966 1.390 . S
C975 H968 0.950 . S
C975 C972 1.387 . S
C976 C977 1.387 . S
C976 H980 0.950 . S
C976 C985 1.390 . S
C977 C976 1.387 . S
C977 C979 1.387 . S
H978 C985 0.950 . S
C979 C977 1.387 . S
C979 C981 1.390 . S
C979 H983 0.950 . S
H980 C976 0.950 . S
C981 C979 1.390 . S
C981 C982 1.387 . S
C981 H984 0.950 . S
C982 C981 1.387 . S
C982 C985 1.387 . S
H983 C979 0.950 . S
H984 C981 0.950 . S
C985 C976 1.390 . S
C985 H978 0.950 . S
C985 C982 1.387 . S
C986 C987 1.387 . S
C986 H990 0.950 . S
C986 C995 1.390 1_554 S
C987 C986 1.387 . S
C987 C989 1.387 . S
H988 C995 0.950 . S
C989 C987 1.387 . S
C989 C991 1.390 1_554 S
C989 H993 0.950 . S
H990 C986 0.950 . S
C991 C989 1.390 1_556 S
C991 C992 1.387 . S
C991 H994 0.950 . S
C992 C991 1.387 . S
C992 C995 1.387 . S
H993 C989 0.950 . S
H994 C991 0.950 . S
C995 C986 1.390 1_556 S
C995 H988 0.950 . S
C995 C992 1.387 . S
C996 C997 1.387 . S
C996 H1000 0.950 . S
C996 C1005 1.390 . S
C997 C996 1.387 . S
C997 C999 1.387 . S
H998 C1005 0.950 . S
C999 C997 1.387 . S
C999 C1001 1.390 . S
C999 H1003 0.950 . S
H1000 C996 0.950 . S
C1001 C999 1.390 . S
C1001 C1002 1.387 . S
C1001 H1004 0.950 . S
C1002 C1001 1.387 . S
C1002 C1005 1.387 . S
H1003 C999 0.950 . S
H1004 C1001 0.950 . S
C1005 C996 1.390 . S
C1005 H998 0.950 . S
C1005 C1002 1.387 . S
C1006 C1007 1.387 . S
C1006 H1010 0.950 . S
C1006 C1015 1.390 . S
C1007 C1006 1.387 . S
C1007 C1009 1.387 . S
H1008 C1015 0.950 . S
C1009 C1007 1.387 . S
C1009 C1011 1.390 . S
C1009 H1013 0.950 . S
H1010 C1006 0.950 . S
C1011 C1009 1.390 . S
C1011 C1012 1.387 . S
C1011 H1014 0.950 . S
C1012 C1011 1.387 . S
C1012 C1015 1.387 . S
H1013 C1009 0.950 . S
H1014 C1011 0.950 . S
C1015 C1006 1.390 . S
C1015 H1008 0.950 . S
C1015 C1012 1.387 . S
C1016 C1017 1.387 . S
C1016 H1020 0.950 . S
C1016 C1025 1.390 . S
C1017 C1016 1.387 . S
C1017 C1019 1.387 . S
H1018 C1025 0.950 . S
C1019 C1017 1.387 . S
C1019 C1021 1.390 . S
C1019 H1023 0.950 . S
H1020 C1016 0.950 . S
C1021 C1019 1.390 . S
C1021 C1022 1.387 . S
C1021 H1024 0.950 . S
C1022 C1021 1.387 . S
C1022 C1025 1.387 . S
H1023 C1019 0.950 . S
H1024 C1021 0.950 . S
C1025 C1016 1.390 . S
C1025 H1018 0.950 . S
C1025 C1022 1.387 . S
C1026 C1027 1.387 1_554 S
C1026 H1030 0.950 . S
C1026 C1035 1.390 . S
C1027 C1026 1.387 1_556 S
C1027 C1029 1.387 . S
H1028 C1035 0.950 . S
C1029 C1027 1.387 . S
C1029 C1031 1.390 . S
C1029 H1033 0.950 . S
H1030 C1026 0.950 . S
C1031 C1029 1.390 . S
C1031 C1032 1.387 1_556 S
C1031 H1034 0.950 . S
C1032 C1031 1.387 1_554 S
C1032 C1035 1.387 . S
H1033 C1029 0.950 . S
H1034 C1031 0.950 . S
C1035 C1026 1.390 . S
C1035 H1028 0.950 . S
C1035 C1032 1.387 . S
C1036 C1037 1.387 . S
C1036 H1040 0.950 . S
C1036 C1045 1.390 . S
C1037 C1036 1.387 . S
C1037 C1039 1.387 . S
H1038 C1045 0.950 . S
C1039 C1037 1.387 . S
C1039 C1041 1.390 . S
C1039 H1043 0.950 . S
H1040 C1036 0.950 . S
C1041 C1039 1.390 . S
C1041 C1042 1.387 . S
C1041 H1044 0.950 . S
C1042 C1041 1.387 . S
C1042 C1045 1.387 . S
H1043 C1039 0.950 . S
H1044 C1041 0.950 . S
C1045 C1036 1.390 . S
C1045 H1038 0.950 . S
C1045 C1042 1.387 . S
C1046 C1047 1.387 . S
C1046 H1050 0.950 . S
C1046 C1055 1.390 . S
C1047 C1046 1.387 . S
C1047 C1049 1.387 . S
H1048 C1055 0.950 . S
C1049 C1047 1.387 . S
C1049 C1051 1.390 . S
C1049 H1053 0.950 . S
H1050 C1046 0.950 . S
C1051 C1049 1.390 . S
C1051 C1052 1.387 . S
C1051 H1054 0.950 . S
C1052 C1051 1.387 . S
C1052 C1055 1.387 . S
H1053 C1049 0.950 . S
H1054 C1051 0.950 . S
C1055 C1046 1.390 . S
C1055 H1048 0.950 . S
C1055 C1052 1.387 . S
C1056 C1057 1.387 . S
C1056 H1060 0.950 . S
C1056 C1065 1.390 . S
C1057 C1056 1.387 . S
C1057 C1059 1.387 . S
H1058 C1065 0.950 . S
C1059 C1057 1.387 . S
C1059 C1061 1.390 . S
C1059 H1063 0.950 . S
H1060 C1056 0.950 . S
C1061 C1059 1.390 . S
C1061 C1062 1.387 . S
C1061 H1064 0.950 . S
C1062 C1061 1.387 . S
C1062 C1065 1.387 . S
H1063 C1059 0.950 . S
H1064 C1061 0.950 . S
C1065 C1056 1.390 . S
C1065 H1058 0.950 . S
C1065 C1062 1.387 . S
C1066 C1067 1.387 . S
C1066 H1070 0.950 . S
C1066 C1075 1.390 1_455 S
C1067 C1066 1.387 . S
C1067 C1069 1.387 . S
H1068 C1075 0.950 . S
C1069 C1067 1.387 . S
C1069 C1071 1.390 1_455 S
C1069 H1073 0.950 . S
H1070 C1066 0.950 . S
C1071 C1069 1.390 1_655 S
C1071 C1072 1.387 . S
C1071 H1074 0.950 . S
C1072 C1071 1.387 . S
C1072 C1075 1.387 . S
H1073 C1069 0.950 . S
H1074 C1071 0.950 . S
C1075 C1066 1.390 1_655 S
C1075 H1068 0.950 . S
C1075 C1072 1.387 . S
C1076 C1077 1.387 . S
C1076 H1080 0.950 . S
C1076 C1085 1.390 . S
C1077 C1076 1.387 . S
C1077 C1079 1.387 . S
H1078 C1085 0.950 . S
C1079 C1077 1.387 . S
C1079 C1081 1.390 . S
C1079 H1083 0.950 . S
H1080 C1076 0.950 . S
C1081 C1079 1.390 . S
C1081 C1082 1.387 . S
C1081 H1084 0.950 . S
C1082 C1081 1.387 . S
C1082 C1085 1.387 . S
H1083 C1079 0.950 . S
H1084 C1081 0.950 . S
C1085 C1076 1.390 . S
C1085 H1078 0.950 . S
C1085 C1082 1.387 . S
C1086 C1087 1.387 . S
C1086 H1090 0.950 . S
C1086 C1095 1.390 . S
C1087 C1086 1.387 . S
C1087 C1089 1.387 . S
H1088 C1095 0.950 . S
C1089 C1087 1.387 . S
C1089 C1091 1.390 . S
C1089 H1093 0.950 . S
H1090 C1086 0.950 . S
C1091 C1089 1.390 . S
C1091 C1092 1.387 . S
C1091 H1094 0.950 . S
C1092 C1091 1.387 . S
C1092 C1095 1.387 . S
H1093 C1089 0.950 . S
H1094 C1091 0.950 . S
C1095 C1086 1.390 . S
C1095 H1088 0.950 . S
C1095 C1092 1.387 . S
C1096 C1097 1.387 . S
C1096 H1100 0.950 . S
C1096 C1105 1.390 . S
C1097 C1096 1.387 . S
C1097 C1099 1.387 . S
H1098 C1105 0.950 . S
C1099 C1097 1.387 . S
C1099 C1101 1.390 . S
C1099 H1103 0.950 . S
H1100 C1096 0.950 . S
C1101 C1099 1.390 . S
C1101 C1102 1.387 . S
C1101 H1104 0.950 . S
C1102 C1101 1.387 . S
C1102 C1105 1.387 . S
H1103 C1099 0.950 . S
H1104 C1101 0.950 . S
C1105 C1096 1.390 . S
C1105 H1098 0.950 . S
C1105 C1102 1.387 . S
C1106 C1107 1.387 . S
C1106 H1110 0.950 . S
C1106 C1115 1.390 . S
C1107 C1106 1.387 . S
C1107 C1109 1.387 . S
H1108 C1115 0.950 . S
C1109 C1107 1.387 . S
C1109 C1111 1.390 . S
C1109 H1113 0.950 . S
H1110 C1106 0.950 . S
C1111 C1109 1.390 . S
C1111 C1112 1.387 . S
C1111 H1114 0.950 . S
C1112 C1111 1.387 . S
C1112 C1115 1.387 . S
H1113 C1109 0.950 . S
H1114 C1111 0.950 . S
C1115 C1106 1.390 . S
C1115 H1108 0.950 . S
C1115 C1112 1.387 . S
C1116 C1117 1.387 . S
C1116 H1120 0.950 . S
C1116 C1125 1.390 . S
C1117 C1116 1.387 . S
C1117 C1119 1.387 . S
H1118 C1125 0.950 . S
C1119 C1117 1.387 . S
C1119 C1121 1.390 . S
C1119 H1123 0.950 . S
H1120 C1116 0.950 . S
C1121 C1119 1.390 . S
C1121 C1122 1.387 . S
C1121 H1124 0.950 . S
C1122 C1121 1.387 . S
C1122 C1125 1.387 . S
H1123 C1119 0.950 . S
H1124 C1121 0.950 . S
C1125 C1116 1.390 . S
C1125 H1118 0.950 . S
C1125 C1122 1.387 . S
C1126 C1127 1.387 . S
C1126 H1130 0.950 . S
C1126 C1135 1.390 1_455 S
C1127 C1126 1.387 . S
C1127 C1129 1.387 . S
H1128 C1135 0.950 . S
C1129 C1127 1.387 . S
C1129 C1131 1.390 1_455 S
C1129 H1133 0.950 . S
H1130 C1126 0.950 . S
C1131 C1129 1.390 1_655 S
C1131 C1132 1.387 . S
C1131 H1134 0.950 . S
C1132 C1131 1.387 . S
C1132 C1135 1.387 . S
H1133 C1129 0.950 . S
H1134 C1131 0.950 . S
C1135 C1126 1.390 1_655 S
C1135 H1128 0.950 . S
C1135 C1132 1.387 . S
C1136 C1137 1.387 . S
C1136 H1140 0.950 . S
C1136 C1145 1.390 . S
C1137 C1136 1.387 . S
C1137 C1139 1.387 . S
H1138 C1145 0.950 . S
C1139 C1137 1.387 . S
C1139 C1141 1.390 . S
C1139 H1143 0.950 . S
H1140 C1136 0.950 . S
C1141 C1139 1.390 . S
C1141 C1142 1.387 . S
C1141 H1144 0.950 . S
C1142 C1141 1.387 . S
C1142 C1145 1.387 . S
H1143 C1139 0.950 . S
H1144 C1141 0.950 . S
C1145 C1136 1.390 . S
C1145 H1138 0.950 . S
C1145 C1142 1.387 . S
C1146 C1147 1.387 . S
C1146 H1150 0.950 . S
C1146 C1155 1.390 1_455 S
C1147 C1146 1.387 . S
C1147 C1149 1.387 . S
H1148 C1155 0.950 . S
C1149 C1147 1.387 . S
C1149 C1151 1.390 1_455 S
C1149 H1153 0.950 . S
H1150 C1146 0.950 . S
C1151 C1149 1.390 1_655 S
C1151 C1152 1.387 . S
C1151 H1154 0.950 . S
C1152 C1151 1.387 . S
C1152 C1155 1.387 . S
H1153 C1149 0.950 . S
H1154 C1151 0.950 . S
C1155 C1146 1.390 1_655 S
C1155 H1148 0.950 . S
C1155 C1152 1.387 . S
C1156 C1157 1.387 . S
C1156 H1160 0.950 . S
C1156 C1165 1.390 . S
C1157 C1156 1.387 . S
C1157 C1159 1.387 . S
H1158 C1165 0.950 . S
C1159 C1157 1.387 . S
C1159 C1161 1.390 . S
C1159 H1163 0.950 . S
H1160 C1156 0.950 . S
C1161 C1159 1.390 . S
C1161 C1162 1.387 . S
C1161 H1164 0.950 . S
C1162 C1161 1.387 . S
C1162 C1165 1.387 . S
H1163 C1159 0.950 . S
H1164 C1161 0.950 . S
C1165 C1156 1.390 . S
C1165 H1158 0.950 . S
C1165 C1162 1.387 . S
C1166 C1167 1.387 . S
C1166 H1170 0.950 . S
C1166 C1175 1.390 . S
C1167 C1166 1.387 . S
C1167 C1169 1.387 . S
H1168 C1175 0.950 . S
C1169 C1167 1.387 . S
C1169 C1171 1.390 . S
C1169 H1173 0.950 . S
H1170 C1166 0.950 . S
C1171 C1169 1.390 . S
C1171 C1172 1.387 . S
C1171 H1174 0.950 . S
C1172 C1171 1.387 . S
C1172 C1175 1.387 . S
H1173 C1169 0.950 . S
H1174 C1171 0.950 . S
C1175 C1166 1.390 . S
C1175 H1168 0.950 . S
C1175 C1172 1.387 . S
C1176 C1177 1.387 . S
C1176 H1180 0.950 . S
C1176 C1185 1.390 . S
C1177 C1176 1.387 . S
C1177 C1179 1.387 . S
H1178 C1185 0.950 . S
C1179 C1177 1.387 . S
C1179 C1181 1.390 . S
C1179 H1183 0.950 . S
H1180 C1176 0.950 . S
C1181 C1179 1.390 . S
C1181 C1182 1.387 . S
C1181 H1184 0.950 . S
C1182 C1181 1.387 . S
C1182 C1185 1.387 . S
H1183 C1179 0.950 . S
H1184 C1181 0.950 . S
C1185 C1176 1.390 . S
C1185 H1178 0.950 . S
C1185 C1182 1.387 . S
C1186 C1187 1.387 . S
C1186 H1190 0.950 . S
C1186 C1195 1.390 . S
C1187 C1186 1.387 . S
C1187 C1189 1.387 . S
H1188 C1195 0.950 . S
C1189 C1187 1.387 . S
C1189 C1191 1.390 . S
C1189 H1193 0.950 . S
H1190 C1186 0.950 . S
C1191 C1189 1.390 . S
C1191 C1192 1.387 . S
C1191 H1194 0.950 . S
C1192 C1191 1.387 . S
C1192 C1195 1.387 . S
H1193 C1189 0.950 . S
H1194 C1191 0.950 . S
C1195 C1186 1.390 . S
C1195 H1188 0.950 . S
C1195 C1192 1.387 . S
C1196 C1197 1.387 . S
C1196 H1200 0.950 . S
C1196 C1205 1.390 . S
C1197 C1196 1.387 . S
C1197 C1199 1.387 . S
H1198 C1205 0.950 . S
C1199 C1197 1.387 . S
C1199 C1201 1.390 . S
C1199 H1203 0.950 . S
H1200 C1196 0.950 . S
C1201 C1199 1.390 . S
C1201 C1202 1.387 . S
C1201 H1204 0.950 . S
C1202 C1201 1.387 . S
C1202 C1205 1.387 . S
H1203 C1199 0.950 . S
H1204 C1201 0.950 . S
C1205 C1196 1.390 . S
C1205 H1198 0.950 . S
C1205 C1202 1.387 . S
C1206 C1207 1.387 . S
C1206 H1210 0.950 . S
C1206 C1215 1.390 1_655 S
C1207 C1206 1.387 . S
C1207 C1209 1.387 . S
H1208 C1215 0.950 . S
C1209 C1207 1.387 . S
C1209 C1211 1.390 1_655 S
C1209 H1213 0.950 . S
H1210 C1206 0.950 . S
C1211 C1209 1.390 1_455 S
C1211 C1212 1.387 . S
C1211 H1214 0.950 . S
C1212 C1211 1.387 . S
C1212 C1215 1.387 . S
H1213 C1209 0.950 . S
H1214 C1211 0.950 . S
C1215 C1206 1.390 1_455 S
C1215 H1208 0.950 . S
C1215 C1212 1.387 . S
C1216 C1217 1.387 . S
C1216 H1220 0.950 . S
C1216 C1225 1.390 . S
C1217 C1216 1.387 . S
C1217 C1219 1.387 . S
H1218 C1225 0.950 . S
C1219 C1217 1.387 . S
C1219 C1221 1.390 . S
C1219 H1223 0.950 . S
H1220 C1216 0.950 . S
C1221 C1219 1.390 . S
C1221 C1222 1.387 . S
C1221 H1224 0.950 . S
C1222 C1221 1.387 . S
C1222 C1225 1.387 . S
H1223 C1219 0.950 . S
H1224 C1221 0.950 . S
C1225 C1216 1.390 . S
C1225 H1218 0.950 . S
C1225 C1222 1.387 . S
C1226 C1227 1.387 . S
C1226 H1230 0.950 . S
C1226 C1235 1.390 . S
C1227 C1226 1.387 . S
C1227 C1229 1.387 . S
H1228 C1235 0.950 . S
C1229 C1227 1.387 . S
C1229 C1231 1.390 . S
C1229 H1233 0.950 . S
H1230 C1226 0.950 . S
C1231 C1229 1.390 . S
C1231 C1232 1.387 . S
C1231 H1234 0.950 . S
C1232 C1231 1.387 . S
C1232 C1235 1.387 . S
H1233 C1229 0.950 . S
H1234 C1231 0.950 . S
C1235 C1226 1.390 . S
C1235 H1228 0.950 . S
C1235 C1232 1.387 . S
C1236 C1237 1.387 . S
C1236 H1240 0.950 . S
C1236 C1245 1.390 . S
C1237 C1236 1.387 . S
C1237 C1239 1.387 . S
H1238 C1245 0.950 . S
C1239 C1237 1.387 . S
C1239 C1241 1.390 . S
C1239 H1243 0.950 . S
H1240 C1236 0.950 . S
C1241 C1239 1.390 . S
C1241 C1242 1.387 . S
C1241 H1244 0.950 . S
C1242 C1241 1.387 . S
C1242 C1245 1.387 . S
H1243 C1239 0.950 . S
H1244 C1241 0.950 . S
C1245 C1236 1.390 . S
C1245 H1238 0.950 . S
C1245 C1242 1.387 . S
C1246 C1247 1.387 . S
C1246 H1250 0.950 . S
C1246 C1255 1.390 1_655 S
C1247 C1246 1.387 . S
C1247 C1249 1.387 . S
H1248 C1255 0.950 . S
C1249 C1247 1.387 . S
C1249 C1251 1.390 1_655 S
C1249 H1253 0.950 . S
H1250 C1246 0.950 . S
C1251 C1249 1.390 1_455 S
C1251 C1252 1.387 . S
C1251 H1254 0.950 . S
C1252 C1251 1.387 . S
C1252 C1255 1.387 . S
H1253 C1249 0.950 . S
H1254 C1251 0.950 . S
C1255 C1246 1.390 1_455 S
C1255 H1248 0.950 . S
C1255 C1252 1.387 . S
C1256 C1257 1.387 . S
C1256 H1260 0.950 . S
C1256 C1265 1.390 . S
C1257 C1256 1.387 . S
C1257 C1259 1.387 . S
H1258 C1265 0.950 . S
C1259 C1257 1.387 . S
C1259 C1261 1.390 . S
C1259 H1263 0.950 . S
H1260 C1256 0.950 . S
C1261 C1259 1.390 . S
C1261 C1262 1.387 . S
C1261 H1264 0.950 . S
C1262 C1261 1.387 . S
C1262 C1265 1.387 . S
H1263 C1259 0.950 . S
H1264 C1261 0.950 . S
C1265 C1256 1.390 . S
C1265 H1258 0.950 . S
C1265 C1262 1.387 . S
C1266 C1267 1.387 . S
C1266 H1270 0.950 . S
C1266 C1275 1.390 1_655 S
C1267 C1266 1.387 . S
C1267 C1269 1.387 . S
H1268 C1275 0.950 . S
C1269 C1267 1.387 . S
C1269 C1271 1.390 1_655 S
C1269 H1273 0.950 . S
H1270 C1266 0.950 . S
C1271 C1269 1.390 1_455 S
C1271 C1272 1.387 . S
C1271 H1274 0.950 . S
C1272 C1271 1.387 . S
C1272 C1275 1.387 . S
H1273 C1269 0.950 . S
H1274 C1271 0.950 . S
C1275 C1266 1.390 1_455 S
C1275 H1268 0.950 . S
C1275 C1272 1.387 . S
C1276 C1277 1.387 . S
C1276 H1280 0.950 . S
C1276 C1285 1.390 . S
C1277 C1276 1.387 . S
C1277 C1279 1.387 . S
H1278 C1285 0.950 . S
C1279 C1277 1.387 . S
C1279 C1281 1.390 . S
C1279 H1283 0.950 . S
H1280 C1276 0.950 . S
C1281 C1279 1.390 . S
C1281 C1282 1.387 . S
C1281 H1284 0.950 . S
C1282 C1281 1.387 . S
C1282 C1285 1.387 . S
H1283 C1279 0.950 . S
H1284 C1281 0.950 . S
C1285 C1276 1.390 . S
C1285 H1278 0.950 . S
C1285 C1282 1.387 . S
C1286 C1287 1.387 . S
C1286 H1290 0.950 . S
C1286 C1295 1.390 . S
C1287 C1286 1.387 . S
C1287 C1289 1.387 . S
H1288 C1295 0.950 . S
C1289 C1287 1.387 . S
C1289 C1291 1.390 . S
C1289 H1293 0.950 . S
H1290 C1286 0.950 . S
C1291 C1289 1.390 . S
C1291 C1292 1.387 . S
C1291 H1294 0.950 . S
C1292 C1291 1.387 . S
C1292 C1295 1.387 . S
H1293 C1289 0.950 . S
H1294 C1291 0.950 . S
C1295 C1286 1.390 . S
C1295 H1288 0.950 . S
C1295 C1292 1.387 . S
C1296 C1297 1.387 . S
C1296 H1300 0.950 . S
C1296 C1305 1.390 . S
C1297 C1296 1.387 . S
C1297 C1299 1.387 . S
H1298 C1305 0.950 . S
C1299 C1297 1.387 . S
C1299 C1301 1.390 . S
C1299 H1303 0.950 . S
H1300 C1296 0.950 . S
C1301 C1299 1.390 . S
C1301 C1302 1.387 . S
C1301 H1304 0.950 . S
C1302 C1301 1.387 . S
C1302 C1305 1.387 . S
H1303 C1299 0.950 . S
H1304 C1301 0.950 . S
C1305 C1296 1.390 . S
C1305 H1298 0.950 . S
C1305 C1302 1.387 . S
C1306 C1307 1.387 . S
C1306 H1310 0.950 . S
C1306 C1315 1.390 . S
C1307 C1306 1.387 . S
C1307 C1309 1.387 . S
H1308 C1315 0.950 . S
C1309 C1307 1.387 . S
C1309 C1311 1.390 . S
C1309 H1313 0.950 . S
H1310 C1306 0.950 . S
C1311 C1309 1.390 . S
C1311 C1312 1.387 . S
C1311 H1314 0.950 . S
C1312 C1311 1.387 . S
C1312 C1315 1.387 . S
H1313 C1309 0.950 . S
H1314 C1311 0.950 . S
C1315 C1306 1.390 . S
C1315 H1308 0.950 . S
C1315 C1312 1.387 . S
C1316 C1317 1.387 . S
C1316 H1320 0.950 . S
C1316 C1325 1.390 . S
C1317 C1316 1.387 . S
C1317 C1319 1.387 . S
H1318 C1325 0.950 . S
C1319 C1317 1.387 . S
C1319 C1321 1.390 . S
C1319 H1323 0.950 . S
H1320 C1316 0.950 . S
C1321 C1319 1.390 . S
C1321 C1322 1.387 . S
C1321 H1324 0.950 . S
C1322 C1321 1.387 . S
C1322 C1325 1.387 . S
H1323 C1319 0.950 . S
H1324 C1321 0.950 . S
C1325 C1316 1.390 . S
C1325 H1318 0.950 . S
C1325 C1322 1.387 . S
C1326 C1327 1.387 . S
C1326 H1330 0.950 . S
C1326 C1335 1.390 1_655 S
C1327 C1326 1.387 . S
C1327 C1329 1.387 . S
H1328 C1335 0.950 . S
C1329 C1327 1.387 . S
C1329 C1331 1.390 1_655 S
C1329 H1333 0.950 . S
H1330 C1326 0.950 . S
C1331 C1329 1.390 1_455 S
C1331 C1332 1.387 . S
C1331 H1334 0.950 . S
C1332 C1331 1.387 . S
C1332 C1335 1.387 . S
H1333 C1329 0.950 . S
H1334 C1331 0.950 . S
C1335 C1326 1.390 1_455 S
C1335 H1328 0.950 . S
C1335 C1332 1.387 . S
C1336 C1337 1.387 . S
C1336 H1340 0.950 . S
C1336 C1345 1.390 . S
C1337 C1336 1.387 . S
C1337 C1339 1.387 . S
H1338 C1345 0.950 . S
C1339 C1337 1.387 . S
C1339 C1341 1.390 . S
C1339 H1343 0.950 . S
H1340 C1336 0.950 . S
C1341 C1339 1.390 . S
C1341 C1342 1.387 . S
C1341 H1344 0.950 . S
C1342 C1341 1.387 . S
C1342 C1345 1.387 . S
H1343 C1339 0.950 . S
H1344 C1341 0.950 . S
C1345 C1336 1.390 . S
C1345 H1338 0.950 . S
C1345 C1342 1.387 . S
C1346 C1347 1.387 . S
C1346 H1350 0.950 . S
C1346 C1355 1.390 1_455 S
C1347 C1346 1.387 . S
C1347 C1349 1.387 . S
H1348 C1355 0.950 . S
C1349 C1347 1.387 . S
C1349 C1351 1.390 1_455 S
C1349 H1353 0.950 . S
H1350 C1346 0.950 . S
C1351 C1349 1.390 1_655 S
C1351 C1352 1.387 . S
C1351 H1354 0.950 . S
C1352 C1351 1.387 . S
C1352 C1355 1.387 . S
H1353 C1349 0.950 . S
H1354 C1351 0.950 . S
C1355 C1346 1.390 1_655 S
C1355 H1348 0.950 . S
C1355 C1352 1.387 . S
C1356 C1357 1.387 . S
C1356 H1360 0.950 . S
C1356 C1365 1.390 . S
C1357 C1356 1.387 . S
C1357 C1359 1.387 . S
H1358 C1365 0.950 . S
C1359 C1357 1.387 . S
C1359 C1361 1.390 . S
C1359 H1363 0.950 . S
H1360 C1356 0.950 . S
C1361 C1359 1.390 . S
C1361 C1362 1.387 . S
C1361 H1364 0.950 . S
C1362 C1361 1.387 . S
C1362 C1365 1.387 . S
H1363 C1359 0.950 . S
H1364 C1361 0.950 . S
C1365 C1356 1.390 . S
C1365 H1358 0.950 . S
C1365 C1362 1.387 . S
C1366 C1367 1.387 . S
C1366 H1370 0.950 . S
C1366 C1375 1.390 . S
C1367 C1366 1.387 . S
C1367 C1369 1.387 . S
H1368 C1375 0.950 . S
C1369 C1367 1.387 . S
C1369 C1371 1.390 . S
C1369 H1373 0.950 . S
H1370 C1366 0.950 . S
C1371 C1369 1.390 . S
C1371 C1372 1.387 . S
C1371 H1374 0.950 . S
C1372 C1371 1.387 . S
C1372 C1375 1.387 . S
H1373 C1369 0.950 . S
H1374 C1371 0.950 . S
C1375 C1366 1.390 . S
C1375 H1368 0.950 . S
C1375 C1372 1.387 . S
C1376 C1377 1.387 . S
C1376 H1380 0.950 . S
C1376 C1385 1.390 1_545 S
C1377 C1376 1.387 . S
C1377 C1379 1.387 . S
H1378 C1385 0.950 . S
C1379 C1377 1.387 . S
C1379 C1381 1.390 1_545 S
C1379 H1383 0.950 . S
H1380 C1376 0.950 . S
C1381 C1379 1.390 1_565 S
C1381 C1382 1.387 . S
C1381 H1384 0.950 . S
C1382 C1381 1.387 . S
C1382 C1385 1.387 . S
H1383 C1379 0.950 . S
H1384 C1381 0.950 . S
C1385 C1376 1.390 1_565 S
C1385 H1378 0.950 . S
C1385 C1382 1.387 . S
C1386 C1387 1.387 . S
C1386 H1390 0.950 . S
C1386 C1395 1.390 . S
C1387 C1386 1.387 . S
C1387 C1389 1.387 . S
H1388 C1395 0.950 . S
C1389 C1387 1.387 . S
C1389 C1391 1.390 . S
C1389 H1393 0.950 . S
H1390 C1386 0.950 . S
C1391 C1389 1.390 . S
C1391 C1392 1.387 . S
C1391 H1394 0.950 . S
C1392 C1391 1.387 . S
C1392 C1395 1.387 . S
H1393 C1389 0.950 . S
H1394 C1391 0.950 . S
C1395 C1386 1.390 . S
C1395 H1388 0.950 . S
C1395 C1392 1.387 . S
C1396 C1397 1.387 . S
C1396 H1400 0.950 . S
C1396 C1405 1.390 1_565 S
C1397 C1396 1.387 . S
C1397 C1399 1.387 . S
H1398 C1405 0.950 . S
C1399 C1397 1.387 . S
C1399 C1401 1.390 1_565 S
C1399 H1403 0.950 . S
H1400 C1396 0.950 . S
C1401 C1399 1.390 1_545 S
C1401 C1402 1.387 . S
C1401 H1404 0.950 . S
C1402 C1401 1.387 . S
C1402 C1405 1.387 . S
H1403 C1399 0.950 . S
H1404 C1401 0.950 . S
C1405 C1396 1.390 1_545 S
C1405 H1398 0.950 . S
C1405 C1402 1.387 . S
C1406 C1407 1.387 . S
C1406 H1410 0.950 . S
C1406 C1415 1.390 1_556 S
C1407 C1406 1.387 . S
C1407 C1409 1.387 . S
H1408 C1415 0.950 . S
C1409 C1407 1.387 . S
C1409 C1411 1.390 1_556 S
C1409 H1413 0.950 . S
H1410 C1406 0.950 . S
C1411 C1409 1.390 1_554 S
C1411 C1412 1.387 . S
C1411 H1414 0.950 . S
C1412 C1411 1.387 . S
C1412 C1415 1.387 . S
H1413 C1409 0.950 . S
H1414 C1411 0.950 . S
C1415 C1406 1.390 1_554 S
C1415 H1408 0.950 . S
C1415 C1412 1.387 . S
C1416 C1417 1.387 . S
C1416 H1420 0.950 . S
C1416 C1425 1.390 1_545 S
C1417 C1416 1.387 . S
C1417 C1419 1.387 . S
H1418 C1425 0.950 . S
C1419 C1417 1.387 . S
C1419 C1421 1.390 1_545 S
C1419 H1423 0.950 . S
H1420 C1416 0.950 . S
C1421 C1419 1.390 1_565 S
C1421 C1422 1.387 . S
C1421 H1424 0.950 . S
C1422 C1421 1.387 . S
C1422 C1425 1.387 . S
H1423 C1419 0.950 . S
H1424 C1421 0.950 . S
C1425 C1416 1.390 1_565 S
C1425 H1418 0.950 . S
C1425 C1422 1.387 . S
C1426 C1427 1.387 . S
C1426 H1430 0.950 . S
C1426 C1435 1.390 . S
C1427 C1426 1.387 . S
C1427 C1429 1.387 . S
H1428 C1435 0.950 . S
C1429 C1427 1.387 . S
C1429 C1431 1.390 . S
C1429 H1433 0.950 . S
H1430 C1426 0.950 . S
C1431 C1429 1.390 . S
C1431 C1432 1.387 . S
C1431 H1434 0.950 . S
C1432 C1431 1.387 . S
C1432 C1435 1.387 . S
H1433 C1429 0.950 . S
H1434 C1431 0.950 . S
C1435 C1426 1.390 . S
C1435 H1428 0.950 . S
C1435 C1432 1.387 . S
C1436 C1437 1.387 . S
C1436 H1440 0.950 . S
C1436 C1445 1.390 1_545 S
C1437 C1436 1.387 . S
C1437 C1439 1.387 . S
H1438 C1445 0.950 . S
C1439 C1437 1.387 . S
C1439 C1441 1.390 1_545 S
C1439 H1443 0.950 . S
H1440 C1436 0.950 . S
C1441 C1439 1.390 1_565 S
C1441 C1442 1.387 . S
C1441 H1444 0.950 . S
C1442 C1441 1.387 . S
C1442 C1445 1.387 . S
H1443 C1439 0.950 . S
H1444 C1441 0.950 . S
C1445 C1436 1.390 1_565 S
C1445 H1438 0.950 . S
C1445 C1442 1.387 . S
C1446 C1447 1.387 . S
C1446 H1450 0.950 . S
C1446 C1455 1.390 1_556 S
C1447 C1446 1.387 . S
C1447 C1449 1.387 . S
H1448 C1455 0.950 . S
C1449 C1447 1.387 . S
C1449 C1451 1.390 1_556 S
C1449 H1453 0.950 . S
H1450 C1446 0.950 . S
C1451 C1449 1.390 1_554 S
C1451 C1452 1.387 . S
C1451 H1454 0.950 . S
C1452 C1451 1.387 . S
C1452 C1455 1.387 . S
H1453 C1449 0.950 . S
H1454 C1451 0.950 . S
C1455 C1446 1.390 1_554 S
C1455 H1448 0.950 . S
C1455 C1452 1.387 . S
C1456 C1457 1.387 . S
C1456 H1460 0.950 . S
C1456 C1465 1.390 . S
C1457 C1456 1.387 . S
C1457 C1459 1.387 . S
H1458 C1465 0.950 . S
C1459 C1457 1.387 . S
C1459 C1461 1.390 . S
C1459 H1463 0.950 . S
H1460 C1456 0.950 . S
C1461 C1459 1.390 . S
C1461 C1462 1.387 . S
C1461 H1464 0.950 . S
C1462 C1461 1.387 . S
C1462 C1465 1.387 . S
H1463 C1459 0.950 . S
H1464 C1461 0.950 . S
C1465 C1456 1.390 . S
C1465 H1458 0.950 . S
C1465 C1462 1.387 . S
C1466 C1467 1.387 . S
C1466 H1470 0.950 . S
C1466 C1475 1.390 1_556 S
C1467 C1466 1.387 . S
C1467 C1469 1.387 . S
H1468 C1475 0.950 . S
C1469 C1467 1.387 . S
C1469 C1471 1.390 1_556 S
C1469 H1473 0.950 . S
H1470 C1466 0.950 . S
C1471 C1469 1.390 1_554 S
C1471 C1472 1.387 . S
C1471 H1474 0.950 . S
C1472 C1471 1.387 . S
C1472 C1475 1.387 . S
H1473 C1469 0.950 . S
H1474 C1471 0.950 . S
C1475 C1466 1.390 1_554 S
C1475 H1468 0.950 . S
C1475 C1472 1.387 . S
C1476 C1477 1.387 . S
C1476 H1480 0.950 . S
C1476 C1485 1.390 . S
C1477 C1476 1.387 . S
C1477 C1479 1.387 . S
H1478 C1485 0.950 . S
C1479 C1477 1.387 . S
C1479 C1481 1.390 . S
C1479 H1483 0.950 . S
H1480 C1476 0.950 . S
C1481 C1479 1.390 . S
C1481 C1482 1.387 . S
C1481 H1484 0.950 . S
C1482 C1481 1.387 . S
C1482 C1485 1.387 . S
H1483 C1479 0.950 . S
H1484 C1481 0.950 . S
C1485 C1476 1.390 . S
C1485 H1478 0.950 . S
C1485 C1482 1.387 . S
C1486 C1487 1.387 . S
C1486 H1490 0.950 . S
C1486 C1495 1.390 . S
C1487 C1486 1.387 . S
C1487 C1489 1.387 . S
H1488 C1495 0.950 . S
C1489 C1487 1.387 . S
C1489 C1491 1.390 . S
C1489 H1493 0.950 . S
H1490 C1486 0.950 . S
C1491 C1489 1.390 . S
C1491 C1492 1.387 . S
C1491 H1494 0.950 . S
C1492 C1491 1.387 . S
C1492 C1495 1.387 . S
H1493 C1489 0.950 . S
H1494 C1491 0.950 . S
C1495 C1486 1.390 . S
C1495 H1488 0.950 . S
C1495 C1492 1.387 . S
C1496 C1497 1.387 . S
C1496 H1500 0.950 . S
C1496 C1505 1.390 . S
C1497 C1496 1.387 . S
C1497 C1499 1.387 . S
H1498 C1505 0.950 . S
C1499 C1497 1.387 . S
C1499 C1501 1.390 . S
C1499 H1503 0.950 . S
H1500 C1496 0.950 . S
C1501 C1499 1.390 . S
C1501 C1502 1.387 . S
C1501 H1504 0.950 . S
C1502 C1501 1.387 . S
C1502 C1505 1.387 . S
H1503 C1499 0.950 . S
H1504 C1501 0.950 . S
C1505 C1496 1.390 . S
C1505 H1498 0.950 . S
C1505 C1502 1.387 . S
C1506 C1507 1.387 . S
C1506 H1510 0.950 . S
C1506 C1515 1.390 1_556 S
C1507 C1506 1.387 . S
C1507 C1509 1.387 . S
H1508 C1515 0.950 . S
C1509 C1507 1.387 . S
C1509 C1511 1.390 1_556 S
C1509 H1513 0.950 . S
H1510 C1506 0.950 . S
C1511 C1509 1.390 1_554 S
C1511 C1512 1.387 . S
C1511 H1514 0.950 . S
C1512 C1511 1.387 . S
C1512 C1515 1.387 . S
H1513 C1509 0.950 . S
H1514 C1511 0.950 . S
C1515 C1506 1.390 1_554 S
C1515 H1508 0.950 . S
C1515 C1512 1.387 . S
C1516 C1517 1.387 . S
C1516 H1520 0.950 . S
C1516 C1525 1.390 . S
C1517 C1516 1.387 . S
C1517 C1519 1.387 . S
H1518 C1525 0.950 . S
C1519 C1517 1.387 . S
C1519 C1521 1.390 . S
C1519 H1523 0.950 . S
H1520 C1516 0.950 . S
C1521 C1519 1.390 . S
C1521 C1522 1.387 . S
C1521 H1524 0.950 . S
C1522 C1521 1.387 . S
C1522 C1525 1.387 . S
H1523 C1519 0.950 . S
H1524 C1521 0.950 . S
C1525 C1516 1.390 . S
C1525 H1518 0.950 . S
C1525 C1522 1.387 . S
C1526 C1527 1.387 . S
C1526 H1530 0.950 . S
C1526 C1535 1.390 . S
C1527 C1526 1.387 . S
C1527 C1529 1.387 . S
H1528 C1535 0.950 . S
C1529 C1527 1.387 . S
C1529 C1531 1.390 . S
C1529 H1533 0.950 . S
H1530 C1526 0.950 . S
C1531 C1529 1.390 . S
C1531 C1532 1.387 . S
C1531 H1534 0.950 . S
C1532 C1531 1.387 . S
C1532 C1535 1.387 . S
H1533 C1529 0.950 . S
H1534 C1531 0.950 . S
C1535 C1526 1.390 . S
C1535 H1528 0.950 . S
C1535 C1532 1.387 . S
C1536 C1537 1.387 . S
C1536 H1540 0.950 . S
C1536 C1545 1.390 . S
C1537 C1536 1.387 . S
C1537 C1539 1.387 . S
H1538 C1545 0.950 . S
C1539 C1537 1.387 . S
C1539 C1541 1.390 . S
C1539 H1543 0.950 . S
H1540 C1536 0.950 . S
C1541 C1539 1.390 . S
C1541 C1542 1.387 . S
C1541 H1544 0.950 . S
C1542 C1541 1.387 . S
C1542 C1545 1.387 . S
H1543 C1539 0.950 . S
H1544 C1541 0.950 . S
C1545 C1536 1.390 . S
C1545 H1538 0.950 . S
C1545 C1542 1.387 . S
C1546 C1547 1.387 . S
C1546 H1550 0.950 . S
C1546 C1555 1.390 . S
C1547 C1546 1.387 . S
C1547 C1549 1.387 . S
H1548 C1555 0.950 . S
C1549 C1547 1.387 . S
C1549 C1551 1.390 . S
C1549 H1553 0.950 . S
H1550 C1546 0.950 . S
C1551 C1549 1.390 . S
C1551 C1552 1.387 . S
C1551 H1554 0.950 . S
C1552 C1551 1.387 . S
C1552 C1555 1.387 . S
H1553 C1549 0.950 . S
H1554 C1551 0.950 . S
C1555 C1546 1.390 . S
C1555 H1548 0.950 . S
C1555 C1552 1.387 . S
C1556 C1557 1.387 . S
C1556 H1560 0.950 . S
C1556 C1565 1.390 . S
C1557 C1556 1.387 . S
C1557 C1559 1.387 . S
H1558 C1565 0.950 . S
C1559 C1557 1.387 . S
C1559 C1561 1.390 . S
C1559 H1563 0.950 . S
H1560 C1556 0.950 . S
C1561 C1559 1.390 . S
C1561 C1562 1.387 . S
C1561 H1564 0.950 . S
C1562 C1561 1.387 . S
C1562 C1565 1.387 . S
H1563 C1559 0.950 . S
H1564 C1561 0.950 . S
C1565 C1556 1.390 . S
C1565 H1558 0.950 . S
C1565 C1562 1.387 . S
C1566 C1567 1.387 . S
C1566 H1570 0.950 . S
C1566 C1575 1.390 . S
C1567 C1566 1.387 . S
C1567 C1569 1.387 . S
H1568 C1575 0.950 . S
C1569 C1567 1.387 . S
C1569 C1571 1.390 . S
C1569 H1573 0.950 . S
H1570 C1566 0.950 . S
C1571 C1569 1.390 . S
C1571 C1572 1.387 . S
C1571 H1574 0.950 . S
C1572 C1571 1.387 . S
C1572 C1575 1.387 . S
H1573 C1569 0.950 . S
H1574 C1571 0.950 . S
C1575 C1566 1.390 . S
C1575 H1568 0.950 . S
C1575 C1572 1.387 . S
C1576 C1577 1.387 . S
C1576 H1580 0.950 . S
C1576 C1585 1.390 . S
C1577 C1576 1.387 . S
C1577 C1579 1.387 . S
H1578 C1585 0.950 . S
C1579 C1577 1.387 . S
C1579 C1581 1.390 . S
C1579 H1583 0.950 . S
H1580 C1576 0.950 . S
C1581 C1579 1.390 . S
C1581 C1582 1.387 . S
C1581 H1584 0.950 . S
C1582 C1581 1.387 . S
C1582 C1585 1.387 . S
H1583 C1579 0.950 . S
H1584 C1581 0.950 . S
C1585 C1576 1.390 . S
C1585 H1578 0.950 . S
C1585 C1582 1.387 . S
C1586 C1587 1.387 . S
C1586 H1590 0.950 . S
C1586 C1595 1.390 . S
C1587 C1586 1.387 . S
C1587 C1589 1.387 . S
H1588 C1595 0.950 . S
C1589 C1587 1.387 . S
C1589 C1591 1.390 . S
C1589 H1593 0.950 . S
H1590 C1586 0.950 . S
C1591 C1589 1.390 . S
C1591 C1592 1.387 . S
C1591 H1594 0.950 . S
C1592 C1591 1.387 . S
C1592 C1595 1.387 . S
H1593 C1589 0.950 . S
H1594 C1591 0.950 . S
C1595 C1586 1.390 . S
C1595 H1588 0.950 . S
C1595 C1592 1.387 . S
C1596 C1597 1.387 . S
C1596 H1600 0.950 . S
C1596 C1605 1.390 . S
C1597 C1596 1.387 . S
C1597 C1599 1.387 . S
H1598 C1605 0.950 . S
C1599 C1597 1.387 . S
C1599 C1601 1.390 . S
C1599 H1603 0.950 . S
H1600 C1596 0.950 . S
C1601 C1599 1.390 . S
C1601 C1602 1.387 . S
C1601 H1604 0.950 . S
C1602 C1601 1.387 . S
C1602 C1605 1.387 . S
H1603 C1599 0.950 . S
H1604 C1601 0.950 . S
C1605 C1596 1.390 . S
C1605 H1598 0.950 . S
C1605 C1602 1.387 . S
C1606 C1607 1.387 . S
C1606 H1610 0.950 . S
C1606 C1615 1.390 . S
C1607 C1606 1.387 . S
C1607 C1609 1.387 . S
H1608 C1615 0.950 . S
C1609 C1607 1.387 . S
C1609 C1611 1.390 . S
C1609 H1613 0.950 . S
H1610 C1606 0.950 . S
C1611 C1609 1.390 . S
C1611 C1612 1.387 . S
C1611 H1614 0.950 . S
C1612 C1611 1.387 . S
C1612 C1615 1.387 . S
H1613 C1609 0.950 . S
H1614 C1611 0.950 . S
C1615 C1606 1.390 . S
C1615 H1608 0.950 . S
C1615 C1612 1.387 . S
C1616 C1617 1.387 . S
C1616 H1620 0.950 . S
C1616 C1625 1.390 . S
C1617 C1616 1.387 . S
C1617 C1619 1.387 . S
H1618 C1625 0.950 . S
C1619 C1617 1.387 . S
C1619 C1621 1.390 . S
C1619 H1623 0.950 . S
H1620 C1616 0.950 . S
C1621 C1619 1.390 . S
C1621 C1622 1.387 . S
C1621 H1624 0.950 . S
C1622 C1621 1.387 . S
C1622 C1625 1.387 . S
H1623 C1619 0.950 . S
H1624 C1621 0.950 . S
C1625 C1616 1.390 . S
C1625 H1618 0.950 . S
C1625 C1622 1.387 . S
C1626 C1627 1.387 . S
C1626 H1630 0.950 . S
C1626 C1635 1.390 . S
C1627 C1626 1.387 . S
C1627 C1629 1.387 . S
H1628 C1635 0.950 . S
C1629 C1627 1.387 . S
C1629 C1631 1.390 . S
C1629 H1633 0.950 . S
H1630 C1626 0.950 . S
C1631 C1629 1.390 . S
C1631 C1632 1.387 . S
C1631 H1634 0.950 . S
C1632 C1631 1.387 . S
C1632 C1635 1.387 . S
H1633 C1629 0.950 . S
H1634 C1631 0.950 . S
C1635 C1626 1.390 . S
C1635 H1628 0.950 . S
C1635 C1632 1.387 . S
C1636 C1637 1.387 . S
C1636 H1640 0.950 . S
C1636 C1645 1.390 . S
C1637 C1636 1.387 . S
C1637 C1639 1.387 . S
H1638 C1645 0.950 . S
C1639 C1637 1.387 . S
C1639 C1641 1.390 . S
C1639 H1643 0.950 . S
H1640 C1636 0.950 . S
C1641 C1639 1.390 . S
C1641 C1642 1.387 . S
C1641 H1644 0.950 . S
C1642 C1641 1.387 . S
C1642 C1645 1.387 . S
H1643 C1639 0.950 . S
H1644 C1641 0.950 . S
C1645 C1636 1.390 . S
C1645 H1638 0.950 . S
C1645 C1642 1.387 . S
C1646 C1647 1.387 . S
C1646 H1650 0.950 . S
C1646 C1655 1.390 . S
C1647 C1646 1.387 . S
C1647 C1649 1.387 . S
H1648 C1655 0.950 . S
C1649 C1647 1.387 . S
C1649 C1651 1.390 . S
C1649 H1653 0.950 . S
H1650 C1646 0.950 . S
C1651 C1649 1.390 . S
C1651 C1652 1.387 . S
C1651 H1654 0.950 . S
C1652 C1651 1.387 . S
C1652 C1655 1.387 . S
H1653 C1649 0.950 . S
H1654 C1651 0.950 . S
C1655 C1646 1.390 . S
C1655 H1648 0.950 . S
C1655 C1652 1.387 . S
C1656 C1657 1.387 . S
C1656 H1660 0.950 . S
C1656 C1665 1.390 . S
C1657 C1656 1.387 . S
C1657 C1659 1.387 . S
H1658 C1665 0.950 . S
C1659 C1657 1.387 . S
C1659 C1661 1.390 . S
C1659 H1663 0.950 . S
H1660 C1656 0.950 . S
C1661 C1659 1.390 . S
C1661 C1662 1.387 . S
C1661 H1664 0.950 . S
C1662 C1661 1.387 . S
C1662 C1665 1.387 . S
H1663 C1659 0.950 . S
H1664 C1661 0.950 . S
C1665 C1656 1.390 . S
C1665 H1658 0.950 . S
C1665 C1662 1.387 . S
C1666 C1667 1.387 . S
C1666 H1670 0.950 . S
C1666 C1675 1.390 . S
C1667 C1666 1.387 . S
C1667 C1669 1.387 . S
H1668 C1675 0.950 . S
C1669 C1667 1.387 . S
C1669 C1671 1.390 . S
C1669 H1673 0.950 . S
H1670 C1666 0.950 . S
C1671 C1669 1.390 . S
C1671 C1672 1.387 . S
C1671 H1674 0.950 . S
C1672 C1671 1.387 . S
C1672 C1675 1.387 . S
H1673 C1669 0.950 . S
H1674 C1671 0.950 . S
C1675 C1666 1.390 . S
C1675 H1668 0.950 . S
C1675 C1672 1.387 . S
C1676 C1677 1.387 . S
C1676 H1680 0.950 . S
C1676 C1685 1.390 . S
C1677 C1676 1.387 . S
C1677 C1679 1.387 . S
H1678 C1685 0.950 . S
C1679 C1677 1.387 . S
C1679 C1681 1.390 . S
C1679 H1683 0.950 . S
H1680 C1676 0.950 . S
C1681 C1679 1.390 . S
C1681 C1682 1.387 . S
C1681 H1684 0.950 . S
C1682 C1681 1.387 . S
C1682 C1685 1.387 . S
H1683 C1679 0.950 . S
H1684 C1681 0.950 . S
C1685 C1676 1.390 . S
C1685 H1678 0.950 . S
C1685 C1682 1.387 . S
C1686 C1687 1.387 . S
C1686 H1690 0.950 . S
C1686 C1695 1.390 . S
C1687 C1686 1.387 . S
C1687 C1689 1.387 . S
H1688 C1695 0.950 . S
C1689 C1687 1.387 . S
C1689 C1691 1.390 . S
C1689 H1693 0.950 . S
H1690 C1686 0.950 . S
C1691 C1689 1.390 . S
C1691 C1692 1.387 . S
C1691 H1694 0.950 . S
C1692 C1691 1.387 . S
C1692 C1695 1.387 . S
H1693 C1689 0.950 . S
H1694 C1691 0.950 . S
C1695 C1686 1.390 . S
C1695 H1688 0.950 . S
C1695 C1692 1.387 . S
C737 C19 1.691 . S
C742 C87 1.863 . S
C747 C21 1.852 . S
C752 C42 1.686 . S
C757 C66 1.673 . S
C762 C44 1.832 . S
C767 C64 1.857 . S
C772 C89 1.691 . S
C777 C136 1.855 . S
C782 C111 1.687 . S
C787 C134 1.707 . S
C792 C157 1.839 . S
C797 C182 1.847 . S
C802 C159 1.730 . S
C807 C113 1.842 . S
C812 C180 1.679 . S
C817 C203 1.688 . S
C822 C274 1.855 . S
C827 C226 1.686 . S
C832 C205 1.858 . S
C837 C249 1.674 . S
C842 C228 1.845 . S
C847 C272 1.680 . S
C852 C251 1.843 . S
C857 C295 1.681 . S
C862 C320 1.849 . S
C867 C318 1.676 . S
C872 C343 1.842 . S
C877 C366 1.843 . S
C882 C341 1.681 . S
C887 C297 1.845 . S
C892 C364 1.679 . S
C897 C387 1.694 . S
C902 C455 1.862 . S
C907 C389 1.852 . S
C912 C410 1.686 . S
C917 C412 1.833 . S
C922 C434 1.670 . S
C927 C457 1.695 . S
C932 C432 1.856 . S
C937 C479 1.686 . S
C942 C504 1.855 . S
C947 C525 1.839 . S
C952 C502 1.706 . S
C957 C527 1.727 . S
C962 C550 1.847 . S
C967 C481 1.842 . S
C972 C548 1.680 . S
C977 C642 1.855 . S
C982 C571 1.689 . S
C987 C573 1.858 . S
C992 C594 1.689 . S
C997 C617 1.676 . S
C1002 C596 1.844 . S
C1007 C619 1.844 . S
C1012 C640 1.677 . S
C1017 C688 1.850 . S
C1022 C663 1.683 . S
C1027 C711 1.843 . S
C1032 C686 1.674 . S
C1037 C734 1.843 . S
C1042 C709 1.677 . S
C1047 C732 1.677 . S
C1052 C665 1.845 . S
C1057 C641 1.426 . S
C1062 C17 1.435 . S
C1067 C40 1.440 . S
C1072 C204 1.431 . S
C1077 C63 1.436 . S
C1082 C595 1.406 . S
C1087 C86 1.428 . S
C1092 C250 1.400 . S
C1097 C109 1.446 . S
C1102 C687 1.439 . S
C1107 C342 1.421 . S
C1112 C132 1.427 . S
C1117 C733 1.443 . S
C1122 C154 1.469 . S
C1127 C178 1.440 . S
C1132 C296 1.435 . S
C1137 C201 1.472 . S
C1142 C456 1.445 . S
C1147 C20 1.418 . S
C1152 C224 1.425 . S
C1157 C411 1.427 . S
C1162 C247 1.434 . S
C1167 C65 1.465 . S
C1172 C270 1.492 . S
C1177 C503 1.434 . S
C1182 C293 1.443 . S
C1187 C156 1.412 . S
C1192 C316 1.473 . S
C1197 C339 1.435 . S
C1202 C549 1.428 . S
C1207 C362 1.437 . S
C1212 C112 1.431 . S
C1217 C385 1.435 . S
C1222 C273 1.426 . S
C1227 C408 1.440 . S
C1232 C572 1.433 . S
C1237 C431 1.436 . S
C1242 C227 1.409 . S
C1247 C454 1.428 . S
C1252 C618 1.401 . S
C1257 C477 1.444 . S
C1262 C319 1.436 . S
C1267 C500 1.425 . S
C1272 C710 1.418 . S
C1277 C365 1.446 . S
C1282 C522 1.469 . S
C1287 C546 1.440 . S
C1292 C664 1.435 . S
C1297 C88 1.445 . S
C1302 C569 1.471 . S
C1307 C388 1.417 . S
C1312 C592 1.425 . S
C1317 C43 1.427 . S
C1322 C615 1.434 . S
C1327 C433 1.468 . S
C1332 C638 1.494 . S
C1337 C135 1.437 . S
C1342 C661 1.444 . S
C1347 C684 1.470 . S
C1352 C524 1.409 . S
C1357 C707 1.435 . S
C1362 C181 1.429 . S
C1367 C480 1.431 . S
C1372 C730 1.437 . S
C1377 C16 0.471 . S
C1382 C108 0.471 . S
C1387 C39 0.478 . S
C1392 C131 0.479 . S
C1397 C62 0.475 . S
C1402 C155 0.476 . S
C1407 C177 0.475 . S
C1412 C85 0.478 . S
C1417 C292 0.471 . S
C1422 C200 0.469 . S
C1427 C315 0.479 . S
C1432 C223 0.477 . S
C1437 C246 0.484 . S
C1442 C338 0.484 . S
C1447 C269 0.483 . S
C1452 C361 0.485 . S
C1457 C384 0.476 . S
C1462 C476 0.475 . S
C1467 C499 0.479 . S
C1472 C407 0.478 . S
C1477 C523 0.470 . S
C1482 C430 0.469 . S
C1487 C545 0.475 . S
C1492 C453 0.478 . S
C1497 C660 0.475 . S
C1502 C568 0.474 . S
C1507 C591 0.472 . S
C1512 C683 0.474 . S
C1517 C706 0.480 . S
C1522 C614 0.482 . S
C1527 C637 0.478 . S
C1532 C729 0.480 . S
C1537 C179 1.211 . S
C1542 C18 1.211 . S
C1547 C41 1.216 . S
C1552 C110 1.217 . S
C1557 C67 1.198 . S
C1562 C133 1.205 . S
C1567 C158 1.126 . S
C1572 C90 1.160 . S
C1577 C202 1.211 . S
C1582 C363 1.210 . S
C1587 C294 1.220 . S
C1592 C225 1.220 . S
C1597 C317 1.217 . S
C1602 C248 1.217 . S
C1607 C271 1.206 . S
C1612 C340 1.205 . S
C1617 C386 1.211 . S
C1622 C547 1.211 . S
C1627 C478 1.217 . S
C1632 C409 1.217 . S
C1637 C501 1.206 . S
C1642 C435 1.200 . S
C1647 C526 1.126 . S
C1652 C458 1.159 . S
C1657 C570 1.211 . S
C1662 C731 1.211 . S
C1667 C662 1.220 . S
C1672 C593 1.220 . S
C1677 C616 1.216 . S
C1682 C685 1.217 . S
C1687 C708 1.205 . S
C1692 C639 1.205 . S
