# Generated by pormake.
# Topology vbr, (6)-cn, num edge types: 1
# Building blocks:
#     Node 0, Type 0, BuildingBlock: OJICUG_clean_sbu_0, # of connection points: 6
#     Node 1, Type 0, BuildingBlock: OJICUG_clean_sbu_0, # of connection points: 6
#     Node 2, Type 0, BuildingBlock: OJICUG_clean_sbu_0, # of connection points: 6
#     Node 3, Type 0, BuildingBlock: OJICUG_clean_sbu_0, # of connection points: 6
#     Node 4, Type 0, BuildingBlock: OJICUG_clean_sbu_0, # of connection points: 6
#     Node 5, Type 0, BuildingBlock: OJICUG_clean_sbu_0, # of connection points: 6
#     Node 6, Type 0, BuildingBlock: OJICUG_clean_sbu_0, # of connection points: 6
#     Node 7, Type 0, BuildingBlock: OJICUG_clean_sbu_0, # of connection points: 6
#     Node 8, Type 0, BuildingBlock: OJICUG_clean_sbu_0, # of connection points: 6
#     Node 9, Type 0, BuildingBlock: OJICUG_clean_sbu_0, # of connection points: 6
#     Node 10, Type 0, BuildingBlock: OJICUG_clean_sbu_0, # of connection points: 6
#     Node 11, Type 0, BuildingBlock: OJICUG_clean_sbu_0, # of connection points: 6
#     Node 12, Type 0, BuildingBlock: OJICUG_clean_sbu_0, # of connection points: 6
#     Node 13, Type 0, BuildingBlock: OJICUG_clean_sbu_0, # of connection points: 6
#     Node 14, Type 0, BuildingBlock: OJICUG_clean_sbu_0, # of connection points: 6
#     Node 15, Type 0, BuildingBlock: OJICUG_clean_sbu_0, # of connection points: 6
#     Edge 16, Type (0, 0), BuildingBlock: KIFKEQ_clean_linker_1, # of connection points: 2
#     Edge 17, Type (0, 0), BuildingBlock: KIFKEQ_clean_linker_1, # of connection points: 2
#     Edge 18, Type (0, 0), BuildingBlock: KIFKEQ_clean_linker_1, # of connection points: 2
#     Edge 19, Type (0, 0), BuildingBlock: KIFKEQ_clean_linker_1, # of connection points: 2
#     Edge 20, Type (0, 0), BuildingBlock: KIFKEQ_clean_linker_1, # of connection points: 2
#     Edge 21, Type (0, 0), BuildingBlock: KIFKEQ_clean_linker_1, # of connection points: 2
#     Edge 22, Type (0, 0), BuildingBlock: KIFKEQ_clean_linker_1, # of connection points: 2
#     Edge 23, Type (0, 0), BuildingBlock: KIFKEQ_clean_linker_1, # of connection points: 2
#     Edge 24, Type (0, 0), BuildingBlock: KIFKEQ_clean_linker_1, # of connection points: 2
#     Edge 25, Type (0, 0), BuildingBlock: KIFKEQ_clean_linker_1, # of connection points: 2
#     Edge 26, Type (0, 0), BuildingBlock: KIFKEQ_clean_linker_1, # of connection points: 2
#     Edge 27, Type (0, 0), BuildingBlock: KIFKEQ_clean_linker_1, # of connection points: 2
#     Edge 28, Type (0, 0), BuildingBlock: KIFKEQ_clean_linker_1, # of connection points: 2
#     Edge 29, Type (0, 0), BuildingBlock: KIFKEQ_clean_linker_1, # of connection points: 2
#     Edge 30, Type (0, 0), BuildingBlock: KIFKEQ_clean_linker_1, # of connection points: 2
#     Edge 31, Type (0, 0), BuildingBlock: KIFKEQ_clean_linker_1, # of connection points: 2
#     Edge 32, Type (0, 0), BuildingBlock: KIFKEQ_clean_linker_1, # of connection points: 2
#     Edge 33, Type (0, 0), BuildingBlock: KIFKEQ_clean_linker_1, # of connection points: 2
#     Edge 34, Type (0, 0), BuildingBlock: KIFKEQ_clean_linker_1, # of connection points: 2
#     Edge 35, Type (0, 0), BuildingBlock: KIFKEQ_clean_linker_1, # of connection points: 2
#     Edge 36, Type (0, 0), BuildingBlock: KIFKEQ_clean_linker_1, # of connection points: 2
#     Edge 37, Type (0, 0), BuildingBlock: KIFKEQ_clean_linker_1, # of connection points: 2
#     Edge 38, Type (0, 0), BuildingBlock: KIFKEQ_clean_linker_1, # of connection points: 2
#     Edge 39, Type (0, 0), BuildingBlock: KIFKEQ_clean_linker_1, # of connection points: 2
#     Edge 40, Type (0, 0), BuildingBlock: KIFKEQ_clean_linker_1, # of connection points: 2
#     Edge 41, Type (0, 0), BuildingBlock: KIFKEQ_clean_linker_1, # of connection points: 2
#     Edge 42, Type (0, 0), BuildingBlock: KIFKEQ_clean_linker_1, # of connection points: 2
#     Edge 43, Type (0, 0), BuildingBlock: KIFKEQ_clean_linker_1, # of connection points: 2
#     Edge 44, Type (0, 0), BuildingBlock: KIFKEQ_clean_linker_1, # of connection points: 2
#     Edge 45, Type (0, 0), BuildingBlock: KIFKEQ_clean_linker_1, # of connection points: 2
#     Edge 46, Type (0, 0), BuildingBlock: KIFKEQ_clean_linker_1, # of connection points: 2
#     Edge 47, Type (0, 0), BuildingBlock: KIFKEQ_clean_linker_1, # of connection points: 2
#     Edge 48, Type (0, 0), BuildingBlock: KIFKEQ_clean_linker_1, # of connection points: 2
#     Edge 49, Type (0, 0), BuildingBlock: KIFKEQ_clean_linker_1, # of connection points: 2
#     Edge 50, Type (0, 0), BuildingBlock: KIFKEQ_clean_linker_1, # of connection points: 2
#     Edge 51, Type (0, 0), BuildingBlock: KIFKEQ_clean_linker_1, # of connection points: 2
#     Edge 52, Type (0, 0), BuildingBlock: KIFKEQ_clean_linker_1, # of connection points: 2
#     Edge 53, Type (0, 0), BuildingBlock: KIFKEQ_clean_linker_1, # of connection points: 2
#     Edge 54, Type (0, 0), BuildingBlock: KIFKEQ_clean_linker_1, # of connection points: 2
#     Edge 55, Type (0, 0), BuildingBlock: KIFKEQ_clean_linker_1, # of connection points: 2
#     Edge 56, Type (0, 0), BuildingBlock: KIFKEQ_clean_linker_1, # of connection points: 2
#     Edge 57, Type (0, 0), BuildingBlock: KIFKEQ_clean_linker_1, # of connection points: 2
#     Edge 58, Type (0, 0), BuildingBlock: KIFKEQ_clean_linker_1, # of connection points: 2
#     Edge 59, Type (0, 0), BuildingBlock: KIFKEQ_clean_linker_1, # of connection points: 2
#     Edge 60, Type (0, 0), BuildingBlock: KIFKEQ_clean_linker_1, # of connection points: 2
#     Edge 61, Type (0, 0), BuildingBlock: KIFKEQ_clean_linker_1, # of connection points: 2
#     Edge 62, Type (0, 0), BuildingBlock: KIFKEQ_clean_linker_1, # of connection points: 2
#     Edge 63, Type (0, 0), BuildingBlock: KIFKEQ_clean_linker_1, # of connection points: 2
# Relax obj value: 0.306
# Max RMSD: 0.281
# Mean RMSD: 0.281
data_MOF--net-vbr--node1-OJICUG_clean_sbu_0--edge1-KIFKEQ_clean_linker_1
_symmetry_space_group_name_H-M    P1
_symmetry_Int_Tables_number       1
_symmetry_cell_setting            triclinic
loop_
_symmetry_equiv_pos_as_xyz
'x, y, z'
_cell_length_a     44.695289
_cell_length_b     29.829776
_cell_length_c     57.645676
_cell_angle_alpha  90.014815
_cell_angle_beta   89.98067
_cell_angle_gamma 89.936239
loop_
_atom_site_label
_atom_site_type_symbol
_atom_site_fract_x
_atom_site_fract_y
_atom_site_fract_z
_atom_type_partial_charge
Sc0 Sc 0.3433 0.16564 0.10388 0.0
Sc1 Sc 0.2723 0.14081 0.12532 0.0
Sc2 Sc 0.33048 0.06206 0.13088 0.0
O3 O 0.31543 0.12276 0.12024 0.0
C4 C 0.35809 0.07253 0.07961 0.0
C5 C 0.28225 0.17893 0.07571 0.0
C6 C 0.26491 0.03588 0.11603 0.0
C7 C 0.30717 0.23441 0.1326 0.0
C8 C 0.38739 0.12171 0.14113 0.0
C9 C 0.28952 0.09698 0.17328 0.0
O10 O 0.35506 0.11489 0.07923 0.0
O11 O 0.26566 0.15568 0.08903 0.0
O12 O 0.2927 0.02775 0.11703 0.0
O13 O 0.33285 0.22054 0.12648 0.0
O14 O 0.37071 0.0887 0.14616 0.0
O15 O 0.27653 0.12761 0.16168 0.0
O16 O 0.38068 0.15001 0.12557 0.0
O17 O 0.28389 0.20997 0.13151 0.0
O18 O 0.3081 0.06905 0.1645 0.0
O19 O 0.30943 0.18751 0.08026 0.0
O20 O 0.35258 0.049 0.09765 0.0
O21 O 0.25397 0.07442 0.12005 0.0
Sc22 Sc 0.14446 0.83104 0.60543 0.0
Sc23 Sc 0.21563 0.85627 0.62607 0.0
Sc24 Sc 0.15867 0.93688 0.62975 0.0
O25 O 0.17277 0.8748 0.6206 0.0
C26 C 0.12967 0.92268 0.57933 0.0
C27 C 0.20535 0.81704 0.57693 0.0
C28 C 0.22448 0.96067 0.61581 0.0
C29 C 0.18104 0.76278 0.634 0.0
C30 C 0.10176 0.87874 0.64242 0.0
C31 C 0.19857 0.90292 0.67297 0.0
O32 O 0.13202 0.88022 0.57997 0.0
O33 O 0.22207 0.84091 0.58989 0.0
O34 O 0.19672 0.96897 0.61482 0.0
O35 O 0.15519 0.77695 0.62858 0.0
O36 O 0.11826 0.91275 0.64568 0.0
O37 O 0.21046 0.87019 0.66219 0.0
O38 O 0.1079 0.84809 0.62789 0.0
O39 O 0.20426 0.7871 0.63227 0.0
O40 O 0.18134 0.93181 0.66339 0.0
O41 O 0.1782 0.80837 0.58174 0.0
O42 O 0.13627 0.9477 0.59656 0.0
O43 O 0.23463 0.92234 0.62125 0.0
Sc44 Sc 0.34627 0.82503 0.89889 0.0
Sc45 Sc 0.27668 0.85008 0.87542 0.0
Sc46 Sc 0.33404 0.9296 0.87309 0.0
O47 O 0.31912 0.86832 0.88232 0.0
C48 C 0.36008 0.91649 0.92464 0.0
C49 C 0.28343 0.81062 0.9246 0.0
C50 C 0.26823 0.9549 0.88532 0.0
C51 C 0.31209 0.75658 0.86922 0.0
C52 C 0.39116 0.87073 0.8628 0.0
C53 C 0.29542 0.89623 0.82909 0.0
O54 O 0.3561 0.87434 0.92475 0.0
O55 O 0.26788 0.83577 0.91142 0.0
O56 O 0.29597 0.96227 0.88774 0.0
O57 O 0.33762 0.77149 0.87498 0.0
O58 O 0.37405 0.9031 0.85737 0.0
O59 O 0.28397 0.86266 0.8394 0.0
O60 O 0.38471 0.84273 0.87862 0.0
O61 O 0.28854 0.78051 0.87033 0.0
O62 O 0.31174 0.92545 0.83928 0.0
O63 O 0.31077 0.80148 0.92069 0.0
O64 O 0.35615 0.94047 0.90652 0.0
O65 O 0.25806 0.91697 0.87911 0.0
Sc66 Sc 0.15279 0.0678 0.37296 0.0
Sc67 Sc 0.20936 0.1486 0.37887 0.0
Sc68 Sc 0.13767 0.17053 0.40044 0.0
O69 O 0.16653 0.12903 0.38389 0.0
C70 C 0.09566 0.12704 0.36167 0.0
C71 C 0.19361 0.10442 0.33081 0.0
C72 C 0.17366 0.24176 0.37265 0.0
C73 C 0.21854 0.04378 0.3878 0.0
C74 C 0.12359 0.07603 0.42373 0.0
C75 C 0.19798 0.18235 0.42961 0.0
O76 O 0.11254 0.09376 0.35741 0.0
O77 O 0.20558 0.13593 0.34243 0.0
O78 O 0.14833 0.22764 0.37936 0.0
O79 O 0.19088 0.03475 0.38711 0.0
O80 O 0.1252 0.11851 0.42407 0.0
O81 O 0.21532 0.16289 0.41523 0.0
O82 O 0.13053 0.05292 0.40587 0.0
O83 O 0.22878 0.08268 0.3837 0.0
O84 O 0.17054 0.19008 0.42546 0.0
O85 O 0.17562 0.07571 0.33958 0.0
O86 O 0.10156 0.1558 0.37725 0.0
O87 O 0.19703 0.21743 0.37293 0.0
Sc88 Sc 0.65993 0.93678 0.86804 0.0
Sc89 Sc 0.71713 0.85861 0.8793 0.0
Sc90 Sc 0.64348 0.83362 0.89484 0.0
O91 O 0.67346 0.87639 0.8805 0.0
C92 C 0.62715 0.92843 0.9174 0.0
C93 C 0.72419 0.96353 0.88694 0.0
C94 C 0.70023 0.82271 0.92831 0.0
C95 C 0.70517 0.89924 0.8292 0.0
C96 C 0.60386 0.87687 0.85467 0.0
C97 C 0.68394 0.76435 0.86962 0.0
O98 O 0.63669 0.95209 0.90045 0.0
O99 O 0.73502 0.92429 0.88631 0.0
O100 O 0.67357 0.81413 0.92209 0.0
O101 O 0.68388 0.92553 0.83534 0.0
O102 O 0.60961 0.84647 0.86937 0.0
O103 O 0.70671 0.78954 0.87185 0.0
O104 O 0.61992 0.9115 0.85219 0.0
O105 O 0.71816 0.87246 0.84313 0.0
O106 O 0.65763 0.77734 0.87447 0.0
O107 O 0.69724 0.97204 0.88189 0.0
O108 O 0.62766 0.88579 0.91729 0.0
O109 O 0.71861 0.84404 0.91564 0.0
Sc110 Sc 0.84261 0.15683 0.39416 0.0
Sc111 Sc 0.77068 0.13022 0.3757 0.0
Sc112 Sc 0.82852 0.05175 0.36905 0.0
O113 O 0.81407 0.11282 0.37946 0.0
C114 C 0.88407 0.11209 0.35545 0.0
C115 C 0.80358 0.225 0.36799 0.0
C116 C 0.78639 0.0873 0.32741 0.0
C117 C 0.78327 0.16676 0.42524 0.0
C118 C 0.85957 0.06467 0.4188 0.0
C119 C 0.76372 0.02491 0.38412 0.0
O120 O 0.87815 0.14226 0.37029 0.0
O121 O 0.78073 0.20011 0.37041 0.0
O122 O 0.80458 0.05853 0.33602 0.0
O123 O 0.80989 0.17702 0.41946 0.0
O124 O 0.8521 0.03991 0.40167 0.0
O125 O 0.75276 0.06327 0.3798 0.0
O126 O 0.85721 0.1071 0.41842 0.0
O127 O 0.76614 0.14315 0.41242 0.0
O128 O 0.7916 0.01759 0.38429 0.0
O129 O 0.82988 0.21115 0.37201 0.0
O130 O 0.868 0.07754 0.35255 0.0
O131 O 0.77424 0.11861 0.33915 0.0
Sc132 Sc 0.65828 0.05995 0.12371 0.0
Sc133 Sc 0.71368 0.14233 0.12146 0.0
Sc134 Sc 0.6423 0.16635 0.10099 0.0
O135 O 0.67121 0.12284 0.11556 0.0
C136 C 0.62832 0.07599 0.07383 0.0
C137 C 0.72393 0.03876 0.10994 0.0
C138 C 0.70313 0.18231 0.07244 0.0
C139 C 0.69756 0.09319 0.16752 0.0
C140 C 0.60091 0.11551 0.13782 0.0
C141 C 0.67778 0.23439 0.13001 0.0
O142 O 0.63505 0.05033 0.09077 0.0
O143 O 0.73348 0.07652 0.11688 0.0
O144 O 0.67595 0.19095 0.07745 0.0
O145 O 0.6817 0.06355 0.15716 0.0
O146 O 0.60609 0.14681 0.12341 0.0
O147 O 0.70146 0.21119 0.12768 0.0
O148 O 0.61814 0.08213 0.14066 0.0
O149 O 0.70807 0.1278 0.1575 0.0
O150 O 0.65213 0.21918 0.12498 0.0
O151 O 0.69635 0.03075 0.1073 0.0
O152 O 0.63055 0.11837 0.07491 0.0
O153 O 0.71997 0.15822 0.08527 0.0
Sc154 Sc 0.83142 0.9251 0.62531 0.0
Sc155 Sc 0.77376 0.84642 0.61957 0.0
Sc156 Sc 0.84469 0.82124 0.59873 0.0
O157 O 0.81676 0.8644 0.61474 0.0
C158 C 0.85971 0.91386 0.57432 0.0
C159 C 0.76595 0.9517 0.61156 0.0
C160 C 0.7837 0.81011 0.57009 0.0
C161 C 0.79054 0.8889 0.66753 0.0
C162 C 0.8883 0.8656 0.63616 0.0
C163 C 0.8082 0.75225 0.62633 0.0
O164 O 0.85402 0.93777 0.59221 0.0
O165 O 0.75536 0.91317 0.61597 0.0
O166 O 0.81055 0.79959 0.57503 0.0
O167 O 0.80851 0.91777 0.65878 0.0
O168 O 0.88204 0.8371 0.62055 0.0
O169 O 0.78487 0.77648 0.62442 0.0
O170 O 0.87131 0.89842 0.64098 0.0
O171 O 0.77847 0.85762 0.6558 0.0
O172 O 0.83412 0.76693 0.62162 0.0
O173 O 0.79379 0.95945 0.61104 0.0
O174 O 0.85664 0.87153 0.57408 0.0
O175 O 0.7675 0.83439 0.5832 0.0
Sc176 Sc 0.84121 0.66442 0.10192 0.0
Sc177 Sc 0.76879 0.63968 0.12136 0.0
Sc178 Sc 0.82633 0.56037 0.12818 0.0
O179 O 0.81217 0.62151 0.11733 0.0
C180 C 0.85822 0.57085 0.07855 0.0
C181 C 0.78179 0.67514 0.07128 0.0
C182 C 0.76109 0.53494 0.11189 0.0
C183 C 0.80251 0.73395 0.12912 0.0
C184 C 0.88231 0.62103 0.1412 0.0
C185 C 0.78288 0.59401 0.16942 0.0
O186 O 0.857 0.61337 0.0788 0.0
O187 O 0.76425 0.65565 0.0854 0.0
O188 O 0.78868 0.52621 0.11398 0.0
O189 O 0.82815 0.72073 0.12264 0.0
O190 O 0.86646 0.58613 0.14384 0.0
O191 O 0.77046 0.62454 0.1574 0.0
O192 O 0.8761 0.65155 0.12662 0.0
O193 O 0.77961 0.70871 0.12858 0.0
O194 O 0.80308 0.56777 0.16139 0.0
O195 O 0.80926 0.6826 0.0756 0.0
O196 O 0.84899 0.54684 0.09542 0.0
O197 O 0.75039 0.57389 0.115 0.0
Sc198 Sc 0.64622 0.32253 0.60223 0.0
Sc199 Sc 0.71833 0.34412 0.62272 0.0
Sc200 Sc 0.66311 0.42749 0.62659 0.0
O201 O 0.67575 0.36471 0.61734 0.0
C202 C 0.63224 0.41497 0.57677 0.0
C203 C 0.70631 0.30689 0.5728 0.0
C204 C 0.72905 0.44779 0.61154 0.0
C205 C 0.68187 0.25239 0.63078 0.0
C206 C 0.60533 0.37182 0.64 0.0
C207 C 0.70319 0.3925 0.66961 0.0
O208 O 0.63359 0.37249 0.57745 0.0
O209 O 0.72396 0.32737 0.58658 0.0
O210 O 0.70147 0.45741 0.61108 0.0
O211 O 0.6565 0.26723 0.62462 0.0
O212 O 0.62251 0.40522 0.64287 0.0
O213 O 0.71427 0.35908 0.65889 0.0
O214 O 0.61067 0.34052 0.62561 0.0
O215 O 0.70553 0.27586 0.62955 0.0
O216 O 0.68626 0.42176 0.66002 0.0
O217 O 0.67881 0.30003 0.57732 0.0
O218 O 0.64021 0.43972 0.59374 0.0
O219 O 0.73867 0.40922 0.61716 0.0
Sc220 Sc 0.84916 0.33436 0.90026 0.0
Sc221 Sc 0.77816 0.35706 0.87712 0.0
Sc222 Sc 0.83641 0.43529 0.87032 0.0
O223 O 0.82126 0.37556 0.88245 0.0
C224 C 0.86515 0.43 0.92135 0.0
C225 C 0.78785 0.32628 0.92883 0.0
C226 C 0.77049 0.46271 0.88405 0.0
C227 C 0.81248 0.26252 0.87295 0.0
C228 C 0.89283 0.37263 0.86121 0.0
C229 C 0.79615 0.39738 0.82831 0.0
O230 O 0.86346 0.3876 0.92242 0.0
O231 O 0.77097 0.34369 0.91346 0.0
O232 O 0.7982 0.47096 0.88244 0.0
O233 O 0.83745 0.27593 0.8807 0.0
O234 O 0.87705 0.40689 0.8565 0.0
O235 O 0.78257 0.36834 0.84056 0.0
O236 O 0.88567 0.34466 0.87683 0.0
O237 O 0.78961 0.28776 0.87175 0.0
O238 O 0.8151 0.42521 0.83657 0.0
O239 O 0.81561 0.31914 0.92569 0.0
O240 O 0.85733 0.45216 0.90341 0.0
O241 O 0.75967 0.42368 0.88142 0.0
Sc242 Sc 0.65209 0.55129 0.37018 0.0
Sc243 Sc 0.71088 0.62879 0.37757 0.0
Sc244 Sc 0.63834 0.65562 0.39671 0.0
O245 O 0.66712 0.61198 0.3813 0.0
C246 C 0.59648 0.61357 0.35775 0.0
C247 C 0.69613 0.58157 0.32934 0.0
C248 C 0.67798 0.72305 0.36802 0.0
C249 C 0.7174 0.52474 0.38776 0.0
C250 C 0.6219 0.56178 0.42026 0.0
C251 C 0.69716 0.66751 0.42745 0.0
O252 O 0.61116 0.57734 0.35594 0.0
O253 O 0.71088 0.60826 0.34216 0.0
O254 O 0.65292 0.71204 0.37667 0.0
O255 O 0.69047 0.51619 0.38254 0.0
O256 O 0.62185 0.60435 0.41945 0.0
O257 O 0.715 0.6501 0.41285 0.0
O258 O 0.63139 0.53743 0.4036 0.0
O259 O 0.72828 0.56397 0.38714 0.0
O260 O 0.66937 0.67246 0.4237 0.0
O261 O 0.67333 0.55955 0.33635 0.0
O262 O 0.60387 0.64493 0.37145 0.0
O263 O 0.70026 0.69648 0.36734 0.0
Sc264 Sc 0.16222 0.43304 0.87232 0.0
Sc265 Sc 0.21845 0.35147 0.87801 0.0
Sc266 Sc 0.14573 0.3283 0.89727 0.0
O267 O 0.17539 0.37092 0.88239 0.0
C268 C 0.13002 0.42167 0.92173 0.0
C269 C 0.22796 0.45597 0.88782 0.0
C270 C 0.20475 0.31637 0.92825 0.0
C271 C 0.20344 0.39747 0.83016 0.0
C272 C 0.10553 0.37441 0.85838 0.0
C273 C 0.18393 0.258 0.87017 0.0
O274 O 0.13997 0.4461 0.90528 0.0
O275 O 0.238 0.41691 0.88386 0.0
O276 O 0.17733 0.30937 0.92355 0.0
O277 O 0.18508 0.4258 0.83891 0.0
O278 O 0.11137 0.3427 0.87236 0.0
O279 O 0.20698 0.28279 0.87101 0.0
O280 O 0.12163 0.40926 0.85653 0.0
O281 O 0.21563 0.366 0.84172 0.0
O282 O 0.1583 0.27162 0.87645 0.0
O283 O 0.20037 0.46537 0.88681 0.0
O284 O 0.13021 0.37913 0.92077 0.0
O285 O 0.22284 0.33544 0.91428 0.0
Sc286 Sc 0.34231 0.67025 0.39893 0.0
Sc287 Sc 0.2697 0.64691 0.37964 0.0
Sc288 Sc 0.32777 0.56944 0.36933 0.0
O289 O 0.31328 0.62886 0.38244 0.0
C290 C 0.38416 0.63126 0.35891 0.0
C291 C 0.30346 0.7417 0.37339 0.0
C292 C 0.28441 0.60856 0.32951 0.0
C293 C 0.28359 0.67821 0.43039 0.0
C294 C 0.3582 0.57413 0.41983 0.0
C295 C 0.26264 0.5412 0.38564 0.0
O296 O 0.37761 0.65966 0.37447 0.0
O297 O 0.28057 0.71638 0.37373 0.0
O298 O 0.30507 0.58173 0.33623 0.0
O299 O 0.31078 0.68638 0.42564 0.0
O300 O 0.34981 0.55183 0.40204 0.0
O301 O 0.25168 0.58043 0.38489 0.0
O302 O 0.3572 0.61665 0.42064 0.0
O303 O 0.26568 0.65976 0.41616 0.0
O304 O 0.29 0.53313 0.38175 0.0
O305 O 0.32922 0.72835 0.37954 0.0
O306 O 0.3681 0.59714 0.35477 0.0
O307 O 0.27088 0.6354 0.34311 0.0
Sc308 Sc 0.1514 0.56265 0.12961 0.0
Sc309 Sc 0.21022 0.63804 0.11828 0.0
Sc310 Sc 0.13788 0.66144 0.0978 0.0
O311 O 0.1665 0.62075 0.11539 0.0
C312 C 0.12143 0.56384 0.07894 0.0
C313 C 0.21671 0.53211 0.11422 0.0
C314 C 0.19704 0.66668 0.06671 0.0
C315 C 0.19432 0.60311 0.16906 0.0
C316 C 0.09525 0.62664 0.1382 0.0
C317 C 0.17719 0.73365 0.12302 0.0
O318 O 0.13077 0.54274 0.09683 0.0
O319 O 0.22778 0.57122 0.1133 0.0
O320 O 0.16952 0.674 0.07067 0.0
O321 O 0.1728 0.57743 0.1629 0.0
O322 O 0.10264 0.6545 0.12262 0.0
O323 O 0.19967 0.70756 0.12405 0.0
O324 O 0.11055 0.59181 0.14261 0.0
O325 O 0.20893 0.62735 0.15488 0.0
O326 O 0.15181 0.7211 0.11559 0.0
O327 O 0.18952 0.52485 0.11907 0.0
O328 O 0.12178 0.60634 0.07749 0.0
O329 O 0.21477 0.65035 0.08175 0.0
Sc330 Sc 0.33336 0.43422 0.62719 0.0
Sc331 Sc 0.27485 0.35606 0.62519 0.0
Sc332 Sc 0.34397 0.32897 0.60149 0.0
O333 O 0.31751 0.37325 0.61814 0.0
C334 C 0.35786 0.41996 0.5752 0.0
C335 C 0.26719 0.4612 0.61587 0.0
C336 C 0.28102 0.31632 0.57588 0.0
C337 C 0.29534 0.40126 0.67163 0.0
C338 C 0.39046 0.37424 0.63642 0.0
C339 C 0.3094 0.26198 0.63177 0.0
O340 O 0.35409 0.44459 0.59313 0.0
O341 O 0.25671 0.42308 0.62137 0.0
O342 O 0.30815 0.30616 0.57988 0.0
O343 O 0.31245 0.4296 0.66153 0.0
O344 O 0.38293 0.34563 0.62122 0.0
O345 O 0.28606 0.28636 0.63059 0.0
O346 O 0.37402 0.4074 0.6418 0.0
O347 O 0.2824 0.36906 0.66119 0.0
O348 O 0.33499 0.27607 0.62566 0.0
O349 O 0.29501 0.46838 0.61385 0.0
O350 O 0.35402 0.37777 0.57546 0.0
O351 O 0.26574 0.34166 0.58918 0.0
H352 H 0.30534 0.24852 0.05146 0.0
H353 H 0.23097 0.15589 0.05216 0.0
H354 H 0.28607 0.28297 0.01659 0.0
H355 H 0.21197 0.18997 0.01643 0.0
H356 H 0.17198 0.29245 0.96615 0.0
H357 H 0.19 0.25909 0.00203 0.0
H358 H 0.28073 0.26608 0.97627 0.0
H359 H 0.26281 0.30062 0.94063 0.0
C360 C 0.28498 0.23511 0.04401 0.0
C361 C 0.26979 0.19912 0.05446 0.0
C362 C 0.27402 0.25486 0.02392 0.0
C363 C 0.24771 0.23893 0.01361 0.0
C364 C 0.23222 0.2032 0.02413 0.0
C365 C 0.24312 0.18355 0.04448 0.0
C366 C 0.19581 0.28709 0.9682 0.0
C367 C 0.21602 0.29921 0.95057 0.0
C368 C 0.20607 0.26764 0.98868 0.0
C369 C 0.23673 0.25971 0.99192 0.0
C370 C 0.25697 0.2723 0.9744 0.0
C371 C 0.24674 0.29209 0.95398 0.0
H372 H 0.22545 0.69241 0.44286 0.0
H373 H 0.31615 0.70024 0.46867 0.0
H374 H 0.20732 0.72632 0.47859 0.0
H375 H 0.29789 0.73306 0.50466 0.0
H376 H 0.25669 0.83897 0.55328 0.0
H377 H 0.27595 0.80313 0.51812 0.0
H378 H 0.20175 0.71031 0.51908 0.0
H379 H 0.18218 0.74651 0.55342 0.0
C380 C 0.24144 0.70063 0.45632 0.0
C381 C 0.27219 0.69384 0.45294 0.0
C382 C 0.23108 0.72006 0.47679 0.0
C383 C 0.25125 0.7326 0.49435 0.0
C384 C 0.28191 0.72456 0.49124 0.0
C385 C 0.2923 0.70544 0.47071 0.0
C386 C 0.24456 0.81097 0.5459 0.0
C387 C 0.21778 0.79596 0.55593 0.0
C388 C 0.25563 0.7903 0.52589 0.0
C389 C 0.2402 0.75409 0.5158 0.0
C390 C 0.21377 0.73871 0.52615 0.0
C391 C 0.20263 0.75949 0.54589 0.0
H392 H 0.25571 0.67749 0.05492 0.0
H393 H 0.16582 0.69106 0.02798 0.0
H394 H 0.27537 0.71176 0.01989 0.0
H395 H 0.18568 0.72439 0.99263 0.0
H396 H 0.30355 0.73623 0.94648 0.0
H397 H 0.28159 0.69775 0.97921 0.0
H398 H 0.2096 0.7946 0.98087 0.0
H399 H 0.23133 0.83287 0.94727 0.0
C400 C 0.24019 0.68697 0.04135 0.0
C401 C 0.20922 0.68174 0.04428 0.0
C402 C 0.25145 0.70661 0.02125 0.0
C403 C 0.23201 0.72102 0.00359 0.0
C404 C 0.20112 0.71437 0.00615 0.0
C405 C 0.18982 0.69494 0.02631 0.0
C406 C 0.28309 0.74962 0.95382 0.0
C407 C 0.26935 0.78804 0.94451 0.0
C408 C 0.27054 0.72748 0.97262 0.0
C409 C 0.24409 0.7434 0.98275 0.0
C410 C 0.22993 0.78138 0.97325 0.0
C411 C 0.24242 0.80345 0.95417 0.0
H412 H 0.30077 0.2432 0.55264 0.0
H413 H 0.23016 0.34249 0.55263 0.0
H414 H 0.28015 0.20952 0.51802 0.0
H415 H 0.20971 0.30891 0.51723 0.0
H416 H 0.16627 0.2082 0.46769 0.0
H417 H 0.18541 0.24041 0.50345 0.0
H418 H 0.27569 0.22757 0.47736 0.0
H419 H 0.25661 0.19439 0.44168 0.0
C420 C 0.28091 0.25814 0.54512 0.0
C421 C 0.26724 0.2959 0.55522 0.0
C422 C 0.26918 0.23883 0.52519 0.0
C423 C 0.24358 0.25689 0.51475 0.0
C424 C 0.22943 0.29414 0.52503 0.0
C425 C 0.24113 0.31344 0.5452 0.0
C426 C 0.19025 0.21207 0.46959 0.0
C427 C 0.20998 0.1988 0.45183 0.0
C428 C 0.20114 0.23084 0.49002 0.0
C429 C 0.23198 0.23679 0.49313 0.0
C430 C 0.25177 0.22293 0.47553 0.0
C431 C 0.24089 0.20393 0.45511 0.0
H432 H 0.75113 0.84398 0.95223 0.0
H433 H 0.67359 0.75737 0.95389 0.0
H434 H 0.77034 0.80747 0.98701 0.0
H435 H 0.69326 0.71998 0.98795 0.0
H436 H 0.72324 0.69265 0.06191 0.0
H437 H 0.70299 0.73061 0.0281 0.0
H438 H 0.79151 0.73646 0.99795 0.0
H439 H 0.81198 0.6999 0.03222 0.0
C440 C 0.73819 0.81725 0.96003 0.0
C441 C 0.71088 0.80357 0.95034 0.0
C442 C 0.74929 0.79609 0.97981 0.0
C443 C 0.73342 0.7606 0.99008 0.0
C444 C 0.70584 0.74758 0.98062 0.0
C445 C 0.6946 0.76901 0.96105 0.0
C446 C 0.73834 0.70158 0.04795 0.0
C447 C 0.7692 0.6934 0.0497 0.0
C448 C 0.72673 0.72334 0.02858 0.0
C449 C 0.7457 0.73682 0.01044 0.0
C450 C 0.77644 0.72738 0.01188 0.0
C451 C 0.78811 0.70607 0.03139 0.0
H452 H 0.67453 0.28298 0.53446 0.0
H453 H 0.76449 0.28771 0.56184 0.0
H454 H 0.69307 0.24776 0.49923 0.0
H455 H 0.78297 0.25109 0.52684 0.0
H456 H 0.80927 0.23156 0.45153 0.0
H457 H 0.79074 0.26546 0.48679 0.0
H458 H 0.71347 0.1785 0.48494 0.0
H459 H 0.73167 0.1452 0.44882 0.0
C460 C 0.69829 0.27637 0.53297 0.0
C461 C 0.71809 0.28819 0.55091 0.0
C462 C 0.70886 0.2558 0.51285 0.0
C463 C 0.73945 0.24627 0.51027 0.0
C464 C 0.7593 0.25846 0.52815 0.0
C465 C 0.74875 0.27945 0.54821 0.0
C466 C 0.78838 0.21929 0.45862 0.0
C467 C 0.77195 0.1855 0.44732 0.0
C468 C 0.77784 0.23871 0.47899 0.0
C469 C 0.7507 0.22464 0.48878 0.0
C470 C 0.73431 0.19051 0.47766 0.0
C471 C 0.74478 0.17124 0.45706 0.0
H472 H 0.67739 0.24774 0.04625 0.0
H473 H 0.75689 0.16541 0.05095 0.0
H474 H 0.6977 0.28512 0.01248 0.0
H475 H 0.7769 0.20219 0.01643 0.0
H476 H 0.7291 0.30768 0.9379 0.0
H477 H 0.7087 0.2722 0.97252 0.0
H478 H 0.79645 0.27352 0.00405 0.0
H479 H 0.81696 0.30774 0.96922 0.0
C480 C 0.69911 0.23718 0.03993 0.0
C481 C 0.71551 0.20342 0.05131 0.0
C482 C 0.71069 0.25861 0.02046 0.0
C483 C 0.73887 0.24664 0.01172 0.0
C484 C 0.75527 0.21265 0.02296 0.0
C485 C 0.74374 0.19135 0.04263 0.0
C486 C 0.74393 0.30093 0.95234 0.0
C487 C 0.77463 0.31031 0.95079 0.0
C488 C 0.73227 0.28056 0.97219 0.0
C489 C 0.75104 0.26961 0.99096 0.0
C490 C 0.78153 0.28054 0.98969 0.0
C491 C 0.79322 0.30053 0.96981 0.0
H492 H 0.75541 0.68714 0.43645 0.0
H493 H 0.66698 0.69062 0.46692 0.0
H494 H 0.77564 0.72352 0.47064 0.0
H495 H 0.68752 0.72588 0.5016 0.0
H496 H 0.73079 0.83191 0.54868 0.0
H497 H 0.70939 0.79671 0.51417 0.0
H498 H 0.78532 0.70708 0.51044 0.0
H499 H 0.80701 0.74277 0.54408 0.0
C500 C 0.74037 0.69499 0.45062 0.0
C501 C 0.70963 0.68593 0.44904 0.0
C502 C 0.75196 0.71584 0.47022 0.0
C503 C 0.73314 0.72754 0.48878 0.0
C504 C 0.70246 0.71788 0.48739 0.0
C505 C 0.69077 0.69737 0.46764 0.0
C506 C 0.74291 0.80487 0.54036 0.0
C507 C 0.77067 0.7904 0.54898 0.0
C508 C 0.73059 0.78453 0.52074 0.0
C509 C 0.74576 0.74925 0.5096 0.0
C510 C 0.77338 0.73475 0.51836 0.0
C511 C 0.78577 0.75522 0.53772 0.0
H512 H 0.3817 0.00164 0.93289 0.0
H513 H 0.35275 0.88121 0.96786 0.0
H514 H 0.38789 0.03856 0.97037 0.0
H515 H 0.35709 0.91843 0.00491 0.0
H516 H 0.37745 0.98577 0.07213 0.0
H517 H 0.38455 0.94822 0.03489 0.0
H518 H 0.35968 0.07039 0.99934 0.0
H519 H 0.35446 0.10806 0.03617 0.0
C520 C 0.37674 0.983 0.94855 0.0
C521 C 0.36669 0.93847 0.94726 0.0
C522 C 0.38003 0.00427 0.97012 0.0
C523 C 0.37274 0.98186 0.99095 0.0
C524 C 0.36352 0.93686 0.98954 0.0
C525 C 0.3608 0.91545 0.96809 0.0
C526 C 0.37402 0.00469 0.05632 0.0
C527 C 0.36536 0.04994 0.05726 0.0
C528 C 0.37783 0.98308 0.03488 0.0
C529 C 0.37246 0.00592 0.01382 0.0
C530 C 0.36464 0.05156 0.01492 0.0
C531 C 0.36141 0.07326 0.03624 0.0
H532 H 0.10534 0.00596 0.5709 0.0
H533 H 0.13724 0.8868 0.5363 0.0
H534 H 0.09689 0.04142 0.53335 0.0
H535 H 0.13091 0.9228 0.49903 0.0
H536 H 0.10795 0.98765 0.43155 0.0
H537 H 0.10285 0.95002 0.46896 0.0
H538 H 0.12231 0.07501 0.50392 0.0
H539 H 0.12533 0.11251 0.467 0.0
C540 C 0.11052 0.98734 0.55527 0.0
C541 C 0.12196 0.94358 0.55667 0.0
C542 C 0.10596 0.00778 0.53363 0.0
C543 C 0.1135 0.98544 0.51281 0.0
C544 C 0.12421 0.94115 0.51437 0.0
C545 C 0.12808 0.92044 0.53592 0.0
C546 C 0.11052 0.00711 0.44729 0.0
C547 C 0.11701 0.05314 0.44613 0.0
C548 C 0.10793 0.98547 0.46884 0.0
C549 C 0.11243 0.00909 0.48981 0.0
C550 C 0.11803 0.05542 0.48848 0.0
C551 C 0.11999 0.07709 0.46706 0.0
H552 H 0.61171 0.01683 0.92536 0.0
H553 H 0.62502 0.89017 0.96018 0.0
H554 H 0.60464 0.0533 0.96289 0.0
H555 H 0.62022 0.92645 0.99728 0.0
H556 H 0.60273 0.99405 0.06442 0.0
H557 H 0.59457 0.96021 0.0264 0.0
H558 H 0.63167 0.07841 0.99374 0.0
H559 H 0.63757 0.11287 0.03139 0.0
C560 C 0.61295 -0.00327 0.94098 0.0
C561 C 0.61896 0.95059 0.93965 0.0
C562 C 0.60923 0.01768 0.96261 0.0
C563 C 0.6122 0.9932 0.98347 0.0
C564 C 0.61713 0.94672 0.98191 0.0
C565 C 0.62013 0.92574 0.96039 0.0
C566 C 0.60862 0.01291 0.04903 0.0
C567 C 0.62079 0.05609 0.05096 0.0
C568 C 0.60422 0.99342 0.02714 0.0
C569 C 0.61275 0.0161 0.00666 0.0
C570 C 0.62418 0.05986 0.00878 0.0
C571 C 0.62782 0.07967 0.03055 0.0
H572 H 0.85483 0.87776 0.5312 0.0
H573 H 0.88078 -0.00045 0.56635 0.0
H574 H 0.86047 0.91419 0.49419 0.0
H575 H 0.88847 0.03582 0.52883 0.0
H576 H 0.8562 0.10241 0.46167 0.0
H577 H 0.8617 0.06647 0.49892 0.0
H578 H 0.88832 0.94357 0.46472 0.0
H579 H 0.88069 0.97927 0.42709 0.0
C580 C 0.86256 0.91217 0.53104 0.0
C581 C 0.86719 0.93577 0.55188 0.0
C582 C 0.86607 0.93314 0.50959 0.0
C583 C 0.87491 0.97828 0.50817 0.0
C584 C 0.88097 0.00135 0.52906 0.0
C585 C 0.87681 0.9805 0.55066 0.0
C586 C 0.86365 0.06784 0.46201 0.0
C587 C 0.86777 0.04363 0.44129 0.0
C588 C 0.86703 0.04714 0.48357 0.0
C589 C 0.87523 0.00172 0.48516 0.0
C590 C 0.88115 0.97823 0.46437 0.0
C591 C 0.87707 -0.00125 0.4427 0.0
H592 H 0.88355 0.61065 0.04054 0.0
H593 H 0.85365 0.48207 0.06613 0.0
H594 H 0.89147 0.57826 0.0023 0.0
H595 H 0.86125 0.44987 0.0277 0.0
H596 H 0.89259 0.39524 0.95967 0.0
H597 H 0.89699 0.42921 0.99787 0.0
H598 H 0.85913 0.5521 0.9712 0.0
H599 H 0.85507 0.51826 0.93278 0.0
C600 C 0.87902 0.57529 0.03814 0.0
C601 C 0.86773 0.54907 0.0565 0.0
C602 C 0.88339 0.55683 0.0161 0.0
C603 C 0.87669 0.51161 0.01179 0.0
C604 C 0.8669 0.48477 0.03042 0.0
C605 C 0.86249 0.50325 0.05251 0.0
C606 C 0.88568 0.42982 0.9618 0.0
C607 C 0.87322 0.45388 0.94312 0.0
C608 C 0.88802 0.44916 0.9838 0.0
C609 C 0.87799 0.49313 0.98776 0.0
C610 C 0.86725 0.51821 0.96878 0.0
C611 C 0.86493 0.49883 0.94669 0.0
H612 H 0.60549 0.47447 0.42942 0.0
H613 H 0.62363 0.6012 0.46277 0.0
H614 H 0.60092 0.43898 0.46739 0.0
H615 H 0.62134 0.56573 0.5003 0.0
H616 H 0.60813 0.49858 0.56855 0.0
H617 H 0.59794 0.53306 0.53095 0.0
H618 H 0.6304 0.41337 0.49666 0.0
H619 H 0.63835 0.37847 0.53392 0.0
C620 C 0.6083 0.49478 0.44484 0.0
C621 C 0.61491 0.54063 0.44297 0.0
C622 C 0.60605 0.47439 0.46671 0.0
C623 C 0.61122 0.49907 0.48724 0.0
C624 C 0.61667 0.54535 0.48521 0.0
C625 C 0.61816 0.56584 0.46346 0.0
C626 C 0.6126 0.47959 0.55291 0.0
C627 C 0.62398 0.43581 0.55427 0.0
C628 C 0.60701 0.49941 0.53125 0.0
C629 C 0.61348 0.47638 0.51042 0.0
C630 C 0.62436 0.4322 0.51201 0.0
C631 C 0.62921 0.41212 0.53356 0.0
H632 H 0.13407 0.47606 0.06789 0.0
H633 H 0.09201 0.59553 0.04075 0.0
H634 H 0.13081 0.44133 0.02961 0.0
H635 H 0.0885 0.56069 0.0027 0.0
H636 H 0.13271 0.51064 0.93427 0.0
H637 H 0.1249 0.54245 0.97277 0.0
H638 H 0.09912 0.41226 0.99863 0.0
H639 H 0.1072 0.38027 0.96031 0.0
C640 C 0.12336 0.49447 0.05398 0.0
C641 C 0.11357 0.53878 0.05744 0.0
C642 C 0.12153 0.47458 0.03196 0.0
C643 C 0.10982 0.4985 0.01292 0.0
C644 C 0.09826 0.54166 0.0168 0.0
C645 C 0.10008 0.56149 0.03873 0.0
C646 C 0.12486 0.4889 0.94802 0.0
C647 C 0.12079 0.44278 0.94407 0.0
C648 C 0.1203 0.50717 0.97016 0.0
C649 C 0.11159 0.47984 0.98891 0.0
C650 C 0.10628 0.43415 0.98472 0.0
C651 C 0.11074 0.41591 0.96262 0.0
H652 H 0.34465 0.38643 0.53259 0.0
H653 H 0.38483 0.50113 0.56592 0.0
H654 H 0.34983 0.42213 0.4952 0.0
H655 H 0.39205 0.53616 0.52805 0.0
H656 H 0.3619 0.6105 0.46306 0.0
H657 H 0.36618 0.57264 0.49974 0.0
H658 H 0.37722 0.44609 0.46403 0.0
H659 H 0.37081 0.4843 0.42689 0.0
C660 C 0.35532 0.41899 0.53187 0.0
C661 C 0.3642 0.441 0.55234 0.0
C662 C 0.35855 0.43948 0.51023 0.0
C663 C 0.37133 0.48238 0.50824 0.0
C664 C 0.38141 0.50362 0.52872 0.0
C665 C 0.37752 0.48345 0.55052 0.0
C666 C 0.36564 0.57461 0.46285 0.0
C667 C 0.36581 0.55049 0.44183 0.0
C668 C 0.36835 0.55273 0.48414 0.0
C669 C 0.37191 0.50595 0.48523 0.0
C670 C 0.37375 0.482 0.46411 0.0
C671 C 0.3704 0.50393 0.44269 0.0
H672 H 0.26279 0.02541 0.19377 0.0
H673 H 0.29388 0.15966 0.20696 0.0
H674 H 0.23722 0.02473 0.23127 0.0
H675 H 0.27046 0.15837 0.24507 0.0
H676 H 0.19982 0.17017 0.29881 0.0
H677 H 0.22382 0.16507 0.26107 0.0
H678 H 0.23742 0.02282 0.27153 0.0
H679 H 0.21134 0.02797 0.30871 0.0
C680 C 0.26502 0.05412 0.20516 0.0
C681 C 0.28038 0.09247 0.19769 0.0
C682 C 0.25031 0.0539 0.22665 0.0
C683 C 0.2511 0.09187 0.24122 0.0
C684 C 0.26827 0.12906 0.23413 0.0
C685 C 0.28225 0.12963 0.21247 0.0
C686 C 0.20738 0.13769 0.29273 0.0
C687 C 0.20359 0.09945 0.30654 0.0
C688 C 0.22167 0.13476 0.27125 0.0
C689 C 0.23346 0.09369 0.2633 0.0
C690 C 0.2286 0.05502 0.27685 0.0
C691 C 0.21356 0.05784 0.29817 0.0
H692 H 0.27484 0.97305 0.80897 0.0
H693 H 0.29406 0.83391 0.79511 0.0
H694 H 0.24865 0.97888 0.77178 0.0
H695 H 0.26965 0.83995 0.75756 0.0
H696 H 0.19602 0.84062 0.70679 0.0
H697 H 0.22045 0.84323 0.74445 0.0
H698 H 0.24937 0.97896 0.73053 0.0
H699 H 0.22311 0.97676 0.69324 0.0
C700 C 0.27434 0.94421 0.79755 0.0
C701 C 0.28637 0.90302 0.80479 0.0
C702 C 0.25923 0.9474 0.7763 0.0
C703 C 0.25626 0.90955 0.76186 0.0
C704 C 0.2704 0.86937 0.76854 0.0
C705 C 0.28487 0.866 0.78988 0.0
C706 C 0.20691 0.87137 0.71214 0.0
C707 C 0.20758 0.90855 0.69732 0.0
C708 C 0.22141 0.87272 0.73353 0.0
C709 C 0.23777 0.91086 0.74032 0.0
C710 C 0.23703 0.94904 0.72594 0.0
C711 C 0.22189 0.94795 0.70464 0.0
H712 H 0.76854 0.82235 0.69442 0.0
H713 H 0.79017 0.96354 0.69578 0.0
H714 H 0.74686 0.8281 0.73274 0.0
H715 H 0.76872 0.96904 0.735 0.0
H716 H 0.69471 0.96107 0.79425 0.0
H717 H 0.71726 0.96163 0.75529 0.0
H718 H 0.76565 0.84041 0.77182 0.0
H719 H 0.74304 0.83891 0.80974 0.0
C720 C 0.769 0.85463 0.70304 0.0
C721 C 0.78119 0.89248 0.69207 0.0
C722 C 0.75657 0.85788 0.72507 0.0
C723 C 0.75608 0.89902 0.73688 0.0
C724 C 0.7686 0.937 0.72616 0.0
C725 C 0.78124 0.9337 0.70393 0.0
C726 C 0.70994 0.9344 0.78939 0.0
C727 C 0.71685 0.89986 0.80512 0.0
C728 C 0.7231 0.93503 0.76725 0.0
C729 C 0.74315 0.90098 0.76054 0.0
C730 C 0.75002 0.8668 0.77634 0.0
C731 C 0.73701 0.86611 0.7982 0.0
H732 H 0.69303 0.15338 0.20232 0.0
H733 H 0.72289 0.0191 0.18714 0.0
H734 H 0.71471 0.14837 0.2409 0.0
H735 H 0.74664 0.01467 0.22534 0.0
H736 H 0.76782 0.01259 0.30408 0.0
H737 H 0.74376 0.01037 0.26594 0.0
H738 H 0.76136 0.15208 0.25754 0.0
H739 H 0.78335 0.15435 0.29605 0.0
C740 C 0.7041 0.12259 0.20744 0.0
C741 C 0.7062 0.08657 0.19193 0.0
C742 C 0.71702 0.11987 0.22941 0.0
C743 C 0.73331 0.08156 0.23618 0.0
C744 C 0.73426 0.04466 0.2209 0.0
C745 C 0.72061 0.04705 0.19902 0.0
C746 C 0.76686 0.04295 0.29379 0.0
C747 C 0.77731 0.08366 0.30291 0.0
C748 C 0.75302 0.0418 0.27195 0.0
C749 C 0.74987 0.08127 0.25871 0.0
C750 C 0.76221 0.1213 0.26746 0.0
C751 C 0.77529 0.12259 0.2894 0.0
H752 H 0.75412 0.58556 0.3164 0.0
H753 H 0.66559 0.56039 0.28929 0.0
H754 H 0.77491 0.58068 0.27757 0.0
H755 H 0.68669 0.55553 0.24998 0.0
H756 H 0.73163 0.62892 0.18735 0.0
H757 H 0.70992 0.61647 0.22525 0.0
H758 H 0.78359 0.52946 0.24321 0.0
H759 H 0.80573 0.54175 0.20477 0.0
C760 C 0.73909 0.57867 0.30209 0.0
C761 C 0.70811 0.57422 0.30577 0.0
C762 C 0.75113 0.57531 0.27989 0.0
C763 C 0.73244 0.56788 0.26078 0.0
C764 C 0.70155 0.56157 0.26448 0.0
C765 C 0.68949 0.56427 0.28689 0.0
C766 C 0.74343 0.60711 0.19927 0.0
C767 C 0.77074 0.58674 0.19305 0.0
C768 C 0.73063 0.5995 0.22092 0.0
C769 C 0.74487 0.57167 0.23706 0.0
C770 C 0.77213 0.55105 0.23099 0.0
C771 C 0.78485 0.55822 0.20907 0.0
H772 H 0.79158 0.32926 0.79753 0.0
H773 H 0.77895 0.47189 0.8044 0.0
H774 H 0.7689 0.33124 0.75922 0.0
H775 H 0.75407 0.47396 0.76666 0.0
H776 H 0.7296 0.46573 0.68898 0.0
H777 H 0.75487 0.46927 0.72654 0.0
H778 H 0.72281 0.33583 0.74237 0.0
H779 H 0.69974 0.33165 0.70424 0.0
C780 C 0.78408 0.36116 0.79064 0.0
C781 C 0.78718 0.40044 0.80375 0.0
C782 C 0.77053 0.36231 0.76883 0.0
C783 C 0.75873 0.40259 0.75987 0.0
C784 C 0.76293 0.4423 0.77275 0.0
C785 C 0.77727 0.44126 0.79438 0.0
C786 C 0.72762 0.43764 0.70079 0.0
C787 C 0.71269 0.3985 0.69388 0.0
C788 C 0.74216 0.43951 0.72233 0.0
C789 C 0.74158 0.40248 0.73754 0.0
C790 C 0.72489 0.36446 0.73096 0.0
C791 C 0.71111 0.36223 0.70926 0.0
H792 H 0.22041 0.47399 0.80775 0.0
H793 H 0.20976 0.3315 0.7984 0.0
H794 H 0.24599 0.47891 0.77028 0.0
H795 H 0.23336 0.33633 0.76052 0.0
H796 H 0.30261 0.34121 0.70622 0.0
H797 H 0.28042 0.34393 0.74476 0.0
H798 H 0.24444 0.4755 0.72968 0.0
H799 H 0.26867 0.47348 0.69164 0.0
C800 C 0.22275 0.444 0.79729 0.0
C801 C 0.21318 0.40237 0.80586 0.0
C802 C 0.23749 0.4467 0.77585 0.0
C803 C 0.24248 0.40785 0.76245 0.0
C804 C 0.23108 0.36676 0.77061 0.0
C805 C 0.21705 0.36398 0.79217 0.0
C806 C 0.2907 0.37118 0.71153 0.0
C807 C 0.28755 0.40729 0.69621 0.0
C808 C 0.27744 0.37253 0.73344 0.0
C809 C 0.25977 0.40943 0.74025 0.0
C810 C 0.25791 0.44658 0.72521 0.0
C811 C 0.27187 0.4456 0.70343 0.0
H812 H 0.18917 0.53738 0.20248 0.0
H813 H 0.22398 0.67048 0.19053 0.0
H814 H 0.21235 0.53723 0.24116 0.0
H815 H 0.24724 0.66994 0.22848 0.0
H816 H 0.25533 0.67499 0.30665 0.0
H817 H 0.23173 0.67193 0.26887 0.0
H818 H 0.26463 0.53705 0.25913 0.0
H819 H 0.28813 0.53975 0.29765 0.0
C820 C 0.20136 0.56673 0.20821 0.0
C821 C 0.20465 0.60397 0.19348 0.0
C822 C 0.21498 0.56639 0.23016 0.0
C823 C 0.23175 0.6035 0.23781 0.0
C824 C 0.23432 0.64097 0.22323 0.0
C825 C 0.22098 0.6412 0.20141 0.0
C826 C 0.25781 0.64467 0.29647 0.0
C827 C 0.27371 0.60761 0.30518 0.0
C828 C 0.24427 0.64299 0.27474 0.0
C829 C 0.24621 0.60422 0.26102 0.0
C830 C 0.26249 0.56722 0.26946 0.0
C831 C 0.27629 0.56899 0.29132 0.0
H832 H 0.41615 0.06106 0.16943 0.0
H833 H 0.42647 0.19105 0.13726 0.0
H834 H 0.4691 0.06144 0.17979 0.0
H835 H 0.47892 0.19049 0.14637 0.0
H836 H 0.57288 0.18763 0.15676 0.0
H837 H 0.52092 0.19152 0.16949 0.0
H838 H 0.51177 0.04904 0.15714 0.0
H839 H 0.56417 0.04506 0.14621 0.0
C840 C 0.42954 0.09004 0.16494 0.0
C841 C 0.41729 0.12544 0.15194 0.0
C842 C 0.45994 0.09015 0.17075 0.0
C843 C 0.4786 0.12549 0.16351 0.0
C844 C 0.46551 0.16271 0.15248 0.0
C845 C 0.43526 0.16278 0.1469 0.0
C846 C 0.55985 0.15705 0.15752 0.0
C847 C 0.57213 0.11623 0.1501 0.0
C848 C 0.53007 0.15921 0.16467 0.0
C849 C 0.51175 0.12089 0.16363 0.0
C850 C 0.52502 0.0793 0.1583 0.0
C851 C 0.55507 0.07697 0.15181 0.0
H852 H 0.07374 0.80485 0.65924 0.0
H853 H 0.06371 0.94782 0.65095 0.0
H854 H 0.02083 0.79851 0.66895 0.0
H855 H 0.01054 0.9415 0.65908 0.0
H856 H 0.91402 0.92435 0.66706 0.0
H857 H 0.96615 0.92515 0.67963 0.0
H858 H 0.98145 0.80109 0.64256 0.0
H859 H 0.92972 0.79936 0.63101 0.0
C860 C 0.06024 0.83501 0.65998 0.0
C861 C 0.07247 0.87666 0.65394 0.0
C862 C 0.02993 0.83143 0.6654 0.0
C863 C 0.01115 0.86923 0.66405 0.0
C864 C 0.02419 0.9116 0.66036 0.0
C865 C 0.0547 0.9153 0.65555 0.0
C866 C 0.92841 0.89669 0.66213 0.0
C867 C 0.91788 0.86236 0.64754 0.0
C868 C 0.95832 0.89726 0.66926 0.0
C869 C 0.97824 0.86362 0.66184 0.0
C870 C 0.96691 0.82744 0.6489 0.0
C871 C 0.93713 0.82672 0.64195 0.0
H872 H 0.57498 0.80247 0.83897 0.0
H873 H 0.56729 0.94641 0.84376 0.0
H874 H 0.52195 0.7973 0.82947 0.0
H875 H 0.51411 0.94136 0.8359 0.0
H876 H 0.41701 0.927 0.83068 0.0
H877 H 0.46872 0.92505 0.81702 0.0
H878 H 0.48354 0.80364 0.85646 0.0
H879 H 0.43227 0.80455 0.86906 0.0
C880 C 0.56202 0.83305 0.83745 0.0
C881 C 0.57492 0.87471 0.8426 0.0
C882 C 0.53163 0.83016 0.83217 0.0
C883 C 0.51346 0.86872 0.8328 0.0
C884 C 0.52724 0.91086 0.83527 0.0
C885 C 0.55781 0.91382 0.83993 0.0
C886 C 0.43122 0.89939 0.83596 0.0
C887 C 0.42071 0.86656 0.85144 0.0
C888 C 0.46087 0.89832 0.82817 0.0
C889 C 0.48055 0.86455 0.83583 0.0
C890 C 0.46919 0.82995 0.84985 0.0
C891 C 0.43968 0.83084 0.85745 0.0
H892 H 0.92216 0.04395 0.34542 0.0
H893 H 0.91088 0.18699 0.33845 0.0
H894 H 0.97494 0.0513 0.33645 0.0
H895 H 0.96343 0.1944 0.32777 0.0
H896 H 0.05442 0.19373 0.36594 0.0
H897 H 0.00308 0.19229 0.35357 0.0
H898 H 0.01919 0.06845 0.31648 0.0
H899 H 0.07091 0.06889 0.32998 0.0
C900 C 0.93078 0.07675 0.3409 0.0
C901 C 0.91284 0.11507 0.34323 0.0
C902 C 0.9611 0.08105 0.33558 0.0
C903 C 0.97376 0.12372 0.33207 0.0
C904 C 0.95467 0.16124 0.33123 0.0
C905 C 0.92456 0.15706 0.33721 0.0
C906 C 0.04729 0.16648 0.35483 0.0
C907 C 0.06657 0.13067 0.3496 0.0
C908 C 0.01771 0.16594 0.34738 0.0
C909 C 0.00666 0.12979 0.33427 0.0
C910 C 0.02676 0.09625 0.32702 0.0
C911 C 0.05645 0.09658 0.3347 0.0
H912 H 0.91937 0.55237 0.15271 0.0
H913 H 0.91055 0.69627 0.15655 0.0
H914 H 0.9721 0.55835 0.162 0.0
H915 H 0.96307 0.70243 0.16748 0.0
H916 H 0.05579 0.69526 0.132 0.0
H917 H 0.00389 0.69689 0.14298 0.0
H918 H 0.01583 0.57493 0.18255 0.0
H919 H 0.06808 0.57215 0.17043 0.0
C920 C 0.92849 0.58518 0.15655 0.0
C921 C 0.91121 0.62395 0.15332 0.0
C922 C 0.9588 0.5887 0.16206 0.0
C923 C 0.9722 0.63107 0.16486 0.0
C924 C 0.95378 0.66939 0.1646 0.0
C925 C 0.92367 0.66592 0.15849 0.0
C926 C 0.04763 0.66912 0.1434 0.0
C927 C 0.06592 0.6328 0.1497 0.0
C928 C 0.0177 0.67035 0.15001 0.0
C929 C 0.0053 0.63554 0.16337 0.0
C930 C 0.02441 0.60167 0.17174 0.0
C931 C 0.05442 0.60019 0.16488 0.0
H932 H 0.56988 0.44373 0.64881 0.0
H933 H 0.57456 0.30004 0.65665 0.0
H934 H 0.51665 0.44189 0.65712 0.0
H935 H 0.52157 0.29818 0.66665 0.0
H936 H 0.4299 0.30573 0.63048 0.0
H937 H 0.48192 0.30396 0.64098 0.0
H938 H 0.47186 0.42974 0.67758 0.0
H939 H 0.41934 0.43253 0.66595 0.0
C940 C 0.5597 0.41196 0.65333 0.0
C941 C 0.576 0.37189 0.65155 0.0
C942 C 0.52913 0.41085 0.65826 0.0
C943 C 0.51452 0.36967 0.66191 0.0
C944 C 0.53186 0.3303 0.66307 0.0
C945 C 0.56223 0.33129 0.65751 0.0
C946 C 0.43852 0.33284 0.64104 0.0
C947 C 0.42057 0.36987 0.64684 0.0
C948 C 0.4685 0.33151 0.64741 0.0
C949 C 0.48138 0.36694 0.66001 0.0
C950 C 0.46283 0.40229 0.66749 0.0
C951 C 0.43269 0.40381 0.66091 0.0
H952 H 0.07679 0.30084 0.8415 0.0
H953 H 0.06923 0.44457 0.84788 0.0
H954 H 0.02427 0.29648 0.83033 0.0
H955 H 0.0165 0.44027 0.83833 0.0
H956 H 0.92034 0.42862 0.82984 0.0
H957 H 0.97252 0.42564 0.8175 0.0
H958 H 0.98379 0.3015 0.85533 0.0
H959 H 0.93198 0.30342 0.86655 0.0
C960 C 0.06396 0.33156 0.84006 0.0
C961 C 0.07674 0.3729 0.84604 0.0
C962 C 0.03386 0.32912 0.83379 0.0
C963 C 0.01579 0.3678 0.83421 0.0
C964 C 0.02954 0.40969 0.83776 0.0
C965 C 0.05984 0.41222 0.84342 0.0
C966 C 0.93384 0.40012 0.83496 0.0
C967 C 0.92221 0.36692 0.84974 0.0
C968 C 0.96379 0.3985 0.82796 0.0
C969 C 0.98268 0.36385 0.83577 0.0
C970 C 0.97013 0.32863 0.84874 0.0
C971 C 0.94028 0.33003 0.85551 0.0
H972 H 0.41021 0.57405 0.32734 0.0
H973 H 0.42476 0.69859 0.36402 0.0
H974 H 0.46259 0.57346 0.31553 0.0
H975 H 0.47678 0.69692 0.35336 0.0
H976 H 0.57038 0.68961 0.34111 0.0
H977 H 0.5183 0.69841 0.32941 0.0
H978 H 0.50529 0.55543 0.33708 0.0
H979 H 0.5576 0.5467 0.34717 0.0
C980 C 0.42439 0.60171 0.33254 0.0
C981 C 0.4135 0.63565 0.34723 0.0
C982 C 0.45448 0.60125 0.32586 0.0
C983 C 0.47424 0.63448 0.33393 0.0
C984 C 0.46247 0.67074 0.34662 0.0
C985 C 0.43247 0.67144 0.35305 0.0
C986 C 0.55649 0.66002 0.33954 0.0
C987 C 0.5677 0.61764 0.34554 0.0
C988 C 0.52663 0.66501 0.33295 0.0
C989 C 0.50722 0.62787 0.33302 0.0
C990 C 0.51939 0.58489 0.33673 0.0
C991 C 0.54944 0.57982 0.34272 0.0
H992 H 0.20686 0.02663 0.131 0.0
H993 H 0.27818 0.95659 0.09548 0.0
H994 H 0.17952 0.9556 0.13506 0.0
H995 H 0.25111 0.88645 0.09978 0.0
H996 H 0.22464 0.7717 0.14505 0.0
H997 H 0.24039 0.84952 0.14232 0.0
H998 H 0.15823 0.88336 0.10721 0.0
H999 H 0.14218 0.80496 0.10971 0.0
C1000 C 0.21625 -0.00353 0.12346 0.0
C1001 C 0.24487 -0.00304 0.11325 0.0
C1002 C 0.2007 0.95596 0.12593 0.0
C1003 C 0.21372 0.91579 0.11825 0.0
C1004 C 0.24101 0.91703 0.10627 0.0
C1005 C 0.2564 0.95719 0.10374 0.0
C1006 C 0.20952 0.79575 0.13723 0.0
C1007 C 0.18246 0.78192 0.12715 0.0
C1008 C 0.2186 0.84024 0.13564 0.0
C1009 C 0.20074 0.87184 0.12409 0.0
C1010 C 0.17236 0.85931 0.11606 0.0
C1011 C 0.16323 0.81451 0.11758 0.0
H1012 H 0.28102 0.96846 0.63403 0.0
H1013 H 0.21373 0.04108 0.59536 0.0
H1014 H 0.30798 0.03891 0.6409 0.0
H1015 H 0.24044 0.11074 0.60248 0.0
H1016 H 0.3466 0.19266 0.61932 0.0
H1017 H 0.33165 0.1141 0.61475 0.0
H1018 H 0.24703 0.14345 0.64737 0.0
H1019 H 0.26171 0.22144 0.65216 0.0
C1020 C 0.2725 -0.00093 0.62638 0.0
C1021 C 0.24499 -0.00062 0.61445 0.0
C1022 C 0.28784 0.03927 0.63046 0.0
C1023 C 0.27574 0.07997 0.62269 0.0
C1024 C 0.24979 0.07967 0.60902 0.0
C1025 C 0.23462 0.03979 0.60486 0.0
C1026 C 0.32527 0.182 0.62632 0.0
C1027 C 0.30505 0.21345 0.6357 0.0
C1028 C 0.31675 0.13713 0.62359 0.0
C1029 C 0.28801 0.12343 0.63022 0.0
C1030 C 0.26914 0.15369 0.64177 0.0
C1031 C 0.27762 0.19824 0.64458 0.0
H1032 H 0.14676 0.18797 0.88147 0.0
H1033 H 0.23234 0.21826 0.85016 0.0
H1034 H 0.1618 0.10928 0.88535 0.0
H1035 H 0.2471 0.14014 0.85428 0.0
H1036 H 0.27912 0.03527 0.9058 0.0
H1037 H 0.25298 0.1054 0.89857 0.0
H1038 H 0.1859 0.03516 0.859 0.0
H1039 H 0.21234 0.96417 0.86593 0.0
C1040 C 0.16829 0.17768 0.87467 0.0
C1041 C 0.18863 0.20957 0.86593 0.0
C1042 C 0.17686 0.1327 0.87699 0.0
C1043 C 0.20578 0.11929 0.8706 0.0
C1044 C 0.22484 0.1501 0.85969 0.0
C1045 C 0.21631 0.19476 0.85727 0.0
C1046 C 0.25848 0.0344 0.89595 0.0
C1047 C 0.24808 0.99423 0.88613 0.0
C1048 C 0.24364 0.07459 0.89174 0.0
C1049 C 0.21795 0.07549 0.87779 0.0
C1050 C 0.20585 0.03507 0.86965 0.0
C1051 C 0.22089 0.99457 0.87376 0.0
H1052 H 0.25444 0.78179 0.3545 0.0
H1053 H 0.34071 0.81153 0.38481 0.0
H1054 H 0.23983 0.85984 0.35917 0.0
H1055 H 0.32578 0.89014 0.38927 0.0
H1056 H 0.27507 0.03523 0.36973 0.0
H1057 H 0.30183 0.96421 0.36353 0.0
H1058 H 0.2344 0.89467 0.40313 0.0
H1059 H 0.2079 0.96488 0.40951 0.0
C1060 C 0.27061 0.80514 0.36156 0.0
C1061 C 0.29848 0.79021 0.36975 0.0
C1062 C 0.26217 0.84975 0.36429 0.0
C1063 C 0.2815 0.88036 0.37508 0.0
C1064 C 0.31052 0.86684 0.38105 0.0
C1065 C 0.31901 0.82193 0.3784 0.0
C1066 C 0.26661 0.00501 0.37781 0.0
C1067 C 0.23917 0.00537 0.38982 0.0
C1068 C 0.2818 0.96449 0.37411 0.0
C1069 C 0.26959 0.92423 0.38236 0.0
C1070 C 0.2438 0.92536 0.3962 0.0
C1071 C 0.22877 0.96553 0.39995 0.0
H1072 H 0.76669 0.22199 0.85002 0.0
H1073 H 0.84738 0.19324 0.88871 0.0
H1074 H 0.75065 0.14469 0.85503 0.0
H1075 H 0.83102 0.11554 0.89362 0.0
H1076 H 0.78373 0.96966 0.87603 0.0
H1077 H 0.81152 0.03972 0.87006 0.0
H1078 H 0.73683 0.11463 0.89753 0.0
H1079 H 0.70924 0.04538 0.90357 0.0
C1080 C 0.78142 0.19892 0.859 0.0
C1081 C 0.80794 0.21399 0.86944 0.0
C1082 C 0.77216 0.15479 0.86196 0.0
C1083 C 0.78929 0.12492 0.87528 0.0
C1084 C 0.8174 0.1383 0.88347 0.0
C1085 C 0.82673 0.18269 0.88055 0.0
C1086 C 0.77374 0.00101 0.88155 0.0
C1087 C 0.74417 0.0023 0.88992 0.0
C1088 C 0.78953 0.04094 0.87795 0.0
C1089 C 0.77579 0.08224 0.88268 0.0
C1090 C 0.74749 0.08307 0.89319 0.0
C1091 C 0.73183 0.04347 0.89681 0.0
H1092 H 0.70674 0.01629 0.36684 0.0
H1093 H 0.77672 0.94327 0.40231 0.0
H1094 H 0.68081 0.9454 0.35891 0.0
H1095 H 0.75107 0.87323 0.39416 0.0
H1096 H 0.72754 0.76037 0.3482 0.0
H1097 H 0.74343 0.83792 0.35229 0.0
H1098 H 0.65763 0.8727 0.3815 0.0
H1099 H 0.64141 0.79486 0.37754 0.0
C1100 C 0.71612 0.9854 0.37353 0.0
C1101 C 0.74399 0.98525 0.38492 0.0
C1102 C 0.70142 0.94494 0.36879 0.0
C1103 C 0.71454 0.90408 0.3753 0.0
C1104 C 0.74099 0.90435 0.38839 0.0
C1105 C 0.75551 0.94448 0.39323 0.0
C1106 C 0.71165 0.78462 0.35486 0.0
C1107 C 0.6835 0.77107 0.36312 0.0
C1108 C 0.72085 0.82896 0.35732 0.0
C1109 C 0.702 0.86067 0.36785 0.0
C1110 C 0.67261 0.8486 0.37355 0.0
C1111 C 0.66338 0.80402 0.37119 0.0
H1112 H 0.77742 0.02805 0.13263 0.0
H1113 H 0.71577 0.96079 0.08652 0.0
H1114 H 0.80216 0.95616 0.14059 0.0
H1115 H 0.74023 0.88962 0.09473 0.0
H1116 H 0.84206 0.80298 0.12154 0.0
H1117 H 0.82879 0.88199 0.11633 0.0
H1118 H 0.73881 0.85375 0.13897 0.0
H1119 H 0.75173 0.77524 0.14443 0.0
C1120 C 0.76983 -0.00166 0.12358 0.0
C1121 C 0.74436 -0.00012 0.10921 0.0
C1122 C 0.78385 0.9573 0.1283 0.0
C1123 C 0.77244 0.91762 0.11872 0.0
C1124 C 0.74893 0.91986 0.10267 0.0
C1125 C 0.73509 0.9606 0.09788 0.0
C1126 C 0.81971 0.81383 0.12618 0.0
C1127 C 0.79773 0.78252 0.1329 0.0
C1128 C 0.81219 0.85902 0.1231 0.0
C1129 C 0.78268 0.87326 0.12669 0.0
C1130 C 0.76161 0.84307 0.13568 0.0
C1131 C 0.76909 0.79819 0.13889 0.0
H1132 H 0.64459 0.18418 0.61732 0.0
H1133 H 0.72819 0.21068 0.65245 0.0
H1134 H 0.65945 0.10571 0.61223 0.0
H1135 H 0.74279 0.1327 0.6472 0.0
H1136 H 0.77808 0.03408 0.59388 0.0
H1137 H 0.75143 0.10329 0.60229 0.0
H1138 H 0.68177 0.02867 0.63674 0.0
H1139 H 0.70868 0.95858 0.62857 0.0
C1140 C 0.66554 0.17297 0.62477 0.0
C1141 C 0.68555 0.20381 0.63486 0.0
C1142 C 0.67402 0.12814 0.62174 0.0
C1143 C 0.70248 0.11389 0.62882 0.0
C1144 C 0.72092 0.14339 0.64124 0.0
C1145 C 0.71249 0.18792 0.64432 0.0
C1146 C 0.75678 0.03212 0.60281 0.0
C1147 C 0.74576 0.99092 0.6109 0.0
C1148 C 0.74165 0.07175 0.60772 0.0
C1149 C 0.71509 0.07104 0.62067 0.0
C1150 C 0.70242 0.02979 0.62692 0.0
C1151 C 0.71773 0.98983 0.62209 0.0
H1152 H 0.72467 0.27647 0.1505 0.0
H1153 H 0.63996 0.3022 0.1168 0.0
H1154 H 0.73892 0.35439 0.14466 0.0
H1155 H 0.65448 0.38065 0.11108 0.0
H1156 H 0.70335 0.52798 0.12755 0.0
H1157 H 0.67654 0.45758 0.13488 0.0
H1158 H 0.74682 0.38433 0.10022 0.0
H1159 H 0.77344 0.45396 0.09277 0.0
C1160 C 0.70869 0.29908 0.14254 0.0
C1161 C 0.68148 0.28302 0.13371 0.0
C1162 C 0.71693 0.34354 0.13909 0.0
C1163 C 0.69804 0.37279 0.12688 0.0
C1164 C 0.66941 0.35838 0.12038 0.0
C1165 C 0.66111 0.31361 0.12381 0.0
C1166 C 0.71247 0.497 0.12074 0.0
C1167 C 0.74071 0.49629 0.1099 0.0
C1168 C 0.69724 0.45685 0.12511 0.0
C1169 C 0.71019 0.41585 0.11866 0.0
C1170 C 0.73683 0.41566 0.1058 0.0
C1171 C 0.75193 0.45549 0.10141 0.0
H1172 H 0.72118 0.52353 0.58636 0.0
H1173 H 0.78341 0.45845 0.63283 0.0
H1174 H 0.74664 0.59466 0.59252 0.0
H1175 H 0.80909 0.5303 0.63884 0.0
H1176 H 0.84788 0.68402 0.61705 0.0
H1177 H 0.83514 0.6046 0.6122 0.0
H1178 H 0.746 0.6313 0.63732 0.0
H1179 H 0.75842 0.71005 0.64241 0.0
C1180 C 0.7409 0.52414 0.59729 0.0
C1181 C 0.75006 0.48564 0.60936 0.0
C1182 C 0.75534 0.56483 0.60089 0.0
C1183 C 0.77927 0.56777 0.61653 0.0
C1184 C 0.79054 0.5286 0.62679 0.0
C1185 C 0.77598 0.48758 0.6232 0.0
C1186 C 0.82588 0.67268 0.62229 0.0
C1187 C 0.80394 0.70352 0.62971 0.0
C1188 C 0.81865 0.62732 0.61941 0.0
C1189 C 0.78947 0.61251 0.6239 0.0
C1190 C 0.76852 0.64237 0.63337 0.0
C1191 C 0.7757 0.68739 0.63635 0.0
H1192 H 0.64741 0.6934 0.88031 0.0
H1193 H 0.73337 0.72628 0.85038 0.0
H1194 H 0.66335 0.61519 0.88444 0.0
H1195 H 0.749 0.64856 0.8546 0.0
H1196 H 0.71326 0.4711 0.86731 0.0
H1197 H 0.68659 0.54205 0.86066 0.0
H1198 H 0.75651 0.61323 0.89676 0.0
H1199 H 0.78292 0.54314 0.90352 0.0
C1200 C 0.66925 0.68372 0.87386 0.0
C1201 C 0.68941 0.71617 0.86546 0.0
C1202 C 0.67833 0.63904 0.87634 0.0
C1203 C 0.7076 0.6265 0.87042 0.0
C1204 C 0.72651 0.65786 0.85976 0.0
C1205 C 0.7175 0.70226 0.85725 0.0
C1206 C 0.72235 0.50176 0.87448 0.0
C1207 C 0.75037 0.50179 0.88564 0.0
C1208 C 0.70723 0.54223 0.87051 0.0
C1209 C 0.72007 0.58288 0.87763 0.0
C1210 C 0.74661 0.58228 0.8906 0.0
C1211 C 0.76159 0.54217 0.8946 0.0
H1212 H 0.70323 0.44386 0.40593 0.0
H1213 H 0.77607 0.51751 0.37474 0.0
H1214 H 0.72978 0.37388 0.39892 0.0
H1215 H 0.80273 0.44684 0.36765 0.0
H1216 H 0.7544 0.26551 0.34992 0.0
H1217 H 0.73877 0.34245 0.35695 0.0
H1218 H 0.82432 0.37156 0.38815 0.0
H1219 H 0.84025 0.29413 0.38112 0.0
C1220 C 0.72533 0.44514 0.39821 0.0
C1221 C 0.73742 0.48594 0.39058 0.0
C1222 C 0.74037 0.40514 0.394 0.0
C1223 C 0.76775 0.40518 0.38209 0.0
C1224 C 0.78146 0.44615 0.37665 0.0
C1225 C 0.76633 0.48647 0.3809 0.0
C1226 C 0.77024 0.28854 0.35768 0.0
C1227 C 0.79831 0.27356 0.36535 0.0
C1228 C 0.7612 0.33243 0.36187 0.0
C1229 C 0.78007 0.36221 0.37375 0.0
C1230 C 0.80933 0.3489 0.37919 0.0
C1231 C 0.81845 0.30471 0.375 0.0
H1232 H 0.34975 0.68861 0.88279 0.0
H1233 H 0.26473 0.71407 0.84949 0.0
H1234 H 0.33531 0.61014 0.88865 0.0
H1235 H 0.25055 0.6362 0.85556 0.0
H1236 H 0.21737 0.53625 0.90835 0.0
H1237 H 0.2442 0.60576 0.90103 0.0
H1238 H 0.31203 0.53307 0.8633 0.0
H1239 H 0.28495 0.46277 0.87043 0.0
C1240 C 0.32851 0.6772 0.87595 0.0
C1241 C 0.30811 0.70775 0.86604 0.0
C1242 C 0.32027 0.63239 0.87944 0.0
C1243 C 0.29163 0.61784 0.87304 0.0
C1244 C 0.27259 0.64711 0.861 0.0
C1245 C 0.28078 0.69158 0.85744 0.0
C1246 C 0.23842 0.53475 0.89905 0.0
C1247 C 0.24881 0.49417 0.88967 0.0
C1248 C 0.25365 0.57454 0.89476 0.0
C1249 C 0.27965 0.57456 0.88114 0.0
C1250 C 0.29185 0.53366 0.87371 0.0
C1251 C 0.27647 0.49354 0.87795 0.0
H1252 H 0.20308 0.53508 0.37425 0.0
H1253 H 0.27757 0.45836 0.401 0.0
H1254 H 0.17498 0.46523 0.36819 0.0
H1255 H 0.24974 0.38945 0.39479 0.0
H1256 H 0.13921 0.31135 0.38868 0.0
H1257 H 0.1557 0.38931 0.39267 0.0
H1258 H 0.2346 0.35917 0.35245 0.0
H1259 H 0.21839 0.2817 0.34838 0.0
C1260 C 0.21307 0.50357 0.37948 0.0
C1261 C 0.24269 0.50204 0.38777 0.0
C1262 C 0.19709 0.46375 0.37584 0.0
C1263 C 0.21067 0.42224 0.38041 0.0
C1264 C 0.23915 0.42113 0.39059 0.0
C1265 C 0.25497 0.46058 0.39428 0.0
C1266 C 0.15948 0.32179 0.37991 0.0
C1267 C 0.17785 0.29023 0.36859 0.0
C1268 C 0.16891 0.36632 0.38232 0.0
C1269 C 0.19671 0.37956 0.37338 0.0
C1270 C 0.21333 0.3493 0.35989 0.0
C1271 C 0.20398 0.30506 0.35748 0.0
H1272 H 0.27652 0.52673 0.12482 0.0
H1273 H 0.20112 0.44781 0.10175 0.0
H1274 H 0.30459 0.45746 0.13263 0.0
H1275 H 0.22894 0.37946 0.10961 0.0
H1276 H 0.26174 0.27425 0.15619 0.0
H1277 H 0.24474 0.35116 0.15103 0.0
H1278 H 0.32407 0.3812 0.11133 0.0
H1279 H 0.34137 0.30394 0.11652 0.0
C1280 C 0.2663 0.49476 0.12077 0.0
C1281 C 0.23648 0.49256 0.113 0.0
C1282 C 0.28226 0.45528 0.12543 0.0
C1283 C 0.26846 0.41343 0.12241 0.0
C1284 C 0.2397 0.41145 0.11273 0.0
C1285 C 0.22389 0.45056 0.10804 0.0
C1286 C 0.27607 0.29757 0.14702 0.0
C1287 C 0.30257 0.28286 0.13638 0.0
C1288 C 0.26625 0.34146 0.14394 0.0
C1289 C 0.28274 0.37143 0.13021 0.0
C1290 C 0.31091 0.35845 0.12183 0.0
C1291 C 0.32083 0.31432 0.12493 0.0
H1292 H 0.14455 0.69297 0.62119 0.0
H1293 H 0.22882 0.72282 0.65458 0.0
H1294 H 0.16029 0.61472 0.61644 0.0
H1295 H 0.24431 0.64517 0.64961 0.0
H1296 H 0.21031 0.46913 0.63373 0.0
H1297 H 0.18345 0.53949 0.64134 0.0
H1298 H 0.25261 0.61284 0.6056 0.0
H1299 H 0.27921 0.54337 0.59772 0.0
C1300 C 0.16589 0.68257 0.6283 0.0
C1301 C 0.18571 0.71426 0.63789 0.0
C1302 C 0.17489 0.63787 0.62544 0.0
C1303 C 0.20372 0.62456 0.63216 0.0
C1304 C 0.22215 0.65505 0.64392 0.0
C1305 C 0.21321 0.69942 0.64685 0.0
C1306 C 0.2193 0.50013 0.62689 0.0
C1307 C 0.24715 0.50074 0.61541 0.0
C1308 C 0.204 0.54028 0.63138 0.0
C1309 C 0.21647 0.58134 0.62454 0.0
C1310 C 0.24294 0.58152 0.61147 0.0
C1311 C 0.25806 0.5417 0.60687 0.0
loop_
_geom_bond_atom_site_label_1
_geom_bond_atom_site_label_2
_geom_bond_distance
_geom_bond_site_symmetry_2
_ccdc_geom_bond_type
Sc0 O3 2.025 . S
Sc0 O10 2.105 . S
Sc0 O13 2.105 . S
Sc0 O16 2.105 . S
Sc0 O19 2.105 . S
Sc1 O3 2.025 . S
Sc1 O11 2.105 . S
Sc1 O15 2.105 . S
Sc1 O17 2.105 . S
Sc1 O21 2.105 . S
Sc2 O3 2.025 . S
Sc2 O12 2.105 . S
Sc2 O14 2.105 . S
Sc2 O18 2.105 . S
Sc2 O20 2.105 . S
O3 Sc0 2.025 . S
O3 Sc1 2.025 . S
O3 Sc2 2.025 . S
C4 O10 1.268 . S
C4 O20 1.268 . S
C5 O11 1.268 . S
C5 O19 1.268 . S
C6 O12 1.268 . S
C6 O21 1.268 . S
C7 O13 1.268 . S
C7 O17 1.268 . S
C8 O14 1.268 . S
C8 O16 1.268 . S
C9 O15 1.268 . S
C9 O18 1.268 . S
O10 Sc0 2.105 . S
O10 C4 1.268 . S
O11 Sc1 2.105 . S
O11 C5 1.268 . S
O12 Sc2 2.105 . S
O12 C6 1.268 . S
O13 Sc0 2.105 . S
O13 C7 1.268 . S
O14 Sc2 2.105 . S
O14 C8 1.268 . S
O15 Sc1 2.105 . S
O15 C9 1.268 . S
O16 Sc0 2.105 . S
O16 C8 1.268 . S
O17 Sc1 2.105 . S
O17 C7 1.268 . S
O18 Sc2 2.105 . S
O18 C9 1.268 . S
O19 Sc0 2.105 . S
O19 C5 1.268 . S
O20 Sc2 2.105 . S
O20 C4 1.268 . S
O21 Sc1 2.105 . S
O21 C6 1.268 . S
Sc22 O25 2.025 . S
Sc22 O32 2.105 . S
Sc22 O35 2.105 . S
Sc22 O38 2.105 . S
Sc22 O41 2.105 . S
Sc23 O25 2.025 . S
Sc23 O33 2.105 . S
Sc23 O37 2.105 . S
Sc23 O39 2.105 . S
Sc23 O43 2.105 . S
Sc24 O25 2.025 . S
Sc24 O34 2.105 . S
Sc24 O36 2.105 . S
Sc24 O40 2.105 . S
Sc24 O42 2.105 . S
O25 Sc22 2.025 . S
O25 Sc23 2.025 . S
O25 Sc24 2.025 . S
C26 O32 1.268 . S
C26 O42 1.268 . S
C27 O33 1.268 . S
C27 O41 1.268 . S
C28 O34 1.268 . S
C28 O43 1.268 . S
C29 O35 1.268 . S
C29 O39 1.268 . S
C30 O36 1.268 . S
C30 O38 1.268 . S
C31 O37 1.268 . S
C31 O40 1.268 . S
O32 Sc22 2.105 . S
O32 C26 1.268 . S
O33 Sc23 2.105 . S
O33 C27 1.268 . S
O34 Sc24 2.105 . S
O34 C28 1.268 . S
O35 Sc22 2.105 . S
O35 C29 1.268 . S
O36 Sc24 2.105 . S
O36 C30 1.268 . S
O37 Sc23 2.105 . S
O37 C31 1.268 . S
O38 Sc22 2.105 . S
O38 C30 1.268 . S
O39 Sc23 2.105 . S
O39 C29 1.268 . S
O40 Sc24 2.105 . S
O40 C31 1.268 . S
O41 Sc22 2.105 . S
O41 C27 1.268 . S
O42 Sc24 2.105 . S
O42 C26 1.268 . S
O43 Sc23 2.105 . S
O43 C28 1.268 . S
Sc44 O47 2.025 . S
Sc44 O54 2.105 . S
Sc44 O57 2.105 . S
Sc44 O60 2.105 . S
Sc44 O63 2.105 . S
Sc45 O47 2.025 . S
Sc45 O55 2.105 . S
Sc45 O59 2.105 . S
Sc45 O61 2.105 . S
Sc45 O65 2.105 . S
Sc46 O47 2.025 . S
Sc46 O56 2.105 . S
Sc46 O58 2.105 . S
Sc46 O62 2.105 . S
Sc46 O64 2.105 . S
O47 Sc44 2.025 . S
O47 Sc45 2.025 . S
O47 Sc46 2.025 . S
C48 O54 1.268 . S
C48 O64 1.268 . S
C49 O55 1.268 . S
C49 O63 1.268 . S
C50 O56 1.268 . S
C50 O65 1.268 . S
C51 O57 1.268 . S
C51 O61 1.268 . S
C52 O58 1.268 . S
C52 O60 1.268 . S
C53 O59 1.268 . S
C53 O62 1.268 . S
O54 Sc44 2.105 . S
O54 C48 1.268 . S
O55 Sc45 2.105 . S
O55 C49 1.268 . S
O56 Sc46 2.105 . S
O56 C50 1.268 . S
O57 Sc44 2.105 . S
O57 C51 1.268 . S
O58 Sc46 2.105 . S
O58 C52 1.268 . S
O59 Sc45 2.105 . S
O59 C53 1.268 . S
O60 Sc44 2.105 . S
O60 C52 1.268 . S
O61 Sc45 2.105 . S
O61 C51 1.268 . S
O62 Sc46 2.105 . S
O62 C53 1.268 . S
O63 Sc44 2.105 . S
O63 C49 1.268 . S
O64 Sc46 2.105 . S
O64 C48 1.268 . S
O65 Sc45 2.105 . S
O65 C50 1.268 . S
Sc66 O69 2.025 . S
Sc66 O76 2.105 . S
Sc66 O79 2.105 . S
Sc66 O82 2.105 . S
Sc66 O85 2.105 . S
Sc67 O69 2.025 . S
Sc67 O77 2.105 . S
Sc67 O81 2.105 . S
Sc67 O83 2.105 . S
Sc67 O87 2.105 . S
Sc68 O69 2.025 . S
Sc68 O78 2.105 . S
Sc68 O80 2.105 . S
Sc68 O84 2.105 . S
Sc68 O86 2.105 . S
O69 Sc66 2.025 . S
O69 Sc67 2.025 . S
O69 Sc68 2.025 . S
C70 O76 1.268 . S
C70 O86 1.268 . S
C71 O77 1.268 . S
C71 O85 1.268 . S
C72 O78 1.268 . S
C72 O87 1.268 . S
C73 O79 1.268 . S
C73 O83 1.268 . S
C74 O80 1.268 . S
C74 O82 1.268 . S
C75 O81 1.268 . S
C75 O84 1.268 . S
O76 Sc66 2.105 . S
O76 C70 1.268 . S
O77 Sc67 2.105 . S
O77 C71 1.268 . S
O78 Sc68 2.105 . S
O78 C72 1.268 . S
O79 Sc66 2.105 . S
O79 C73 1.268 . S
O80 Sc68 2.105 . S
O80 C74 1.268 . S
O81 Sc67 2.105 . S
O81 C75 1.268 . S
O82 Sc66 2.105 . S
O82 C74 1.268 . S
O83 Sc67 2.105 . S
O83 C73 1.268 . S
O84 Sc68 2.105 . S
O84 C75 1.268 . S
O85 Sc66 2.105 . S
O85 C71 1.268 . S
O86 Sc68 2.105 . S
O86 C70 1.268 . S
O87 Sc67 2.105 . S
O87 C72 1.268 . S
Sc88 O91 2.025 . S
Sc88 O98 2.105 . S
Sc88 O101 2.105 . S
Sc88 O104 2.105 . S
Sc88 O107 2.105 . S
Sc89 O91 2.025 . S
Sc89 O99 2.105 . S
Sc89 O103 2.105 . S
Sc89 O105 2.105 . S
Sc89 O109 2.105 . S
Sc90 O91 2.025 . S
Sc90 O100 2.105 . S
Sc90 O102 2.105 . S
Sc90 O106 2.105 . S
Sc90 O108 2.105 . S
O91 Sc88 2.025 . S
O91 Sc89 2.025 . S
O91 Sc90 2.025 . S
C92 O98 1.268 . S
C92 O108 1.268 . S
C93 O99 1.268 . S
C93 O107 1.268 . S
C94 O100 1.268 . S
C94 O109 1.268 . S
C95 O101 1.268 . S
C95 O105 1.268 . S
C96 O102 1.268 . S
C96 O104 1.268 . S
C97 O103 1.268 . S
C97 O106 1.268 . S
O98 Sc88 2.105 . S
O98 C92 1.268 . S
O99 Sc89 2.105 . S
O99 C93 1.268 . S
O100 Sc90 2.105 . S
O100 C94 1.268 . S
O101 Sc88 2.105 . S
O101 C95 1.268 . S
O102 Sc90 2.105 . S
O102 C96 1.268 . S
O103 Sc89 2.105 . S
O103 C97 1.268 . S
O104 Sc88 2.105 . S
O104 C96 1.268 . S
O105 Sc89 2.105 . S
O105 C95 1.268 . S
O106 Sc90 2.105 . S
O106 C97 1.268 . S
O107 Sc88 2.105 . S
O107 C93 1.268 . S
O108 Sc90 2.105 . S
O108 C92 1.268 . S
O109 Sc89 2.105 . S
O109 C94 1.268 . S
Sc110 O113 2.025 . S
Sc110 O120 2.105 . S
Sc110 O123 2.105 . S
Sc110 O126 2.105 . S
Sc110 O129 2.105 . S
Sc111 O113 2.025 . S
Sc111 O121 2.105 . S
Sc111 O125 2.105 . S
Sc111 O127 2.105 . S
Sc111 O131 2.105 . S
Sc112 O113 2.025 . S
Sc112 O122 2.105 . S
Sc112 O124 2.105 . S
Sc112 O128 2.105 . S
Sc112 O130 2.105 . S
O113 Sc110 2.025 . S
O113 Sc111 2.025 . S
O113 Sc112 2.025 . S
C114 O120 1.268 . S
C114 O130 1.268 . S
C115 O121 1.268 . S
C115 O129 1.268 . S
C116 O122 1.268 . S
C116 O131 1.268 . S
C117 O123 1.268 . S
C117 O127 1.268 . S
C118 O124 1.268 . S
C118 O126 1.268 . S
C119 O125 1.268 . S
C119 O128 1.268 . S
O120 Sc110 2.105 . S
O120 C114 1.268 . S
O121 Sc111 2.105 . S
O121 C115 1.268 . S
O122 Sc112 2.105 . S
O122 C116 1.268 . S
O123 Sc110 2.105 . S
O123 C117 1.268 . S
O124 Sc112 2.105 . S
O124 C118 1.268 . S
O125 Sc111 2.105 . S
O125 C119 1.268 . S
O126 Sc110 2.105 . S
O126 C118 1.268 . S
O127 Sc111 2.105 . S
O127 C117 1.268 . S
O128 Sc112 2.105 . S
O128 C119 1.268 . S
O129 Sc110 2.105 . S
O129 C115 1.268 . S
O130 Sc112 2.105 . S
O130 C114 1.268 . S
O131 Sc111 2.105 . S
O131 C116 1.268 . S
Sc132 O135 2.025 . S
Sc132 O142 2.105 . S
Sc132 O145 2.105 . S
Sc132 O148 2.105 . S
Sc132 O151 2.105 . S
Sc133 O135 2.025 . S
Sc133 O143 2.105 . S
Sc133 O147 2.105 . S
Sc133 O149 2.105 . S
Sc133 O153 2.105 . S
Sc134 O135 2.025 . S
Sc134 O144 2.105 . S
Sc134 O146 2.105 . S
Sc134 O150 2.105 . S
Sc134 O152 2.105 . S
O135 Sc132 2.025 . S
O135 Sc133 2.025 . S
O135 Sc134 2.025 . S
C136 O142 1.268 . S
C136 O152 1.268 . S
C137 O143 1.268 . S
C137 O151 1.268 . S
C138 O144 1.268 . S
C138 O153 1.268 . S
C139 O145 1.268 . S
C139 O149 1.268 . S
C140 O146 1.268 . S
C140 O148 1.268 . S
C141 O147 1.268 . S
C141 O150 1.268 . S
O142 Sc132 2.105 . S
O142 C136 1.268 . S
O143 Sc133 2.105 . S
O143 C137 1.268 . S
O144 Sc134 2.105 . S
O144 C138 1.268 . S
O145 Sc132 2.105 . S
O145 C139 1.268 . S
O146 Sc134 2.105 . S
O146 C140 1.268 . S
O147 Sc133 2.105 . S
O147 C141 1.268 . S
O148 Sc132 2.105 . S
O148 C140 1.268 . S
O149 Sc133 2.105 . S
O149 C139 1.268 . S
O150 Sc134 2.105 . S
O150 C141 1.268 . S
O151 Sc132 2.105 . S
O151 C137 1.268 . S
O152 Sc134 2.105 . S
O152 C136 1.268 . S
O153 Sc133 2.105 . S
O153 C138 1.268 . S
Sc154 O157 2.025 . S
Sc154 O164 2.105 . S
Sc154 O167 2.105 . S
Sc154 O170 2.105 . S
Sc154 O173 2.105 . S
Sc155 O157 2.025 . S
Sc155 O165 2.105 . S
Sc155 O169 2.105 . S
Sc155 O171 2.105 . S
Sc155 O175 2.105 . S
Sc156 O157 2.025 . S
Sc156 O166 2.105 . S
Sc156 O168 2.105 . S
Sc156 O172 2.105 . S
Sc156 O174 2.105 . S
O157 Sc154 2.025 . S
O157 Sc155 2.025 . S
O157 Sc156 2.025 . S
C158 O164 1.268 . S
C158 O174 1.268 . S
C159 O165 1.268 . S
C159 O173 1.268 . S
C160 O166 1.268 . S
C160 O175 1.268 . S
C161 O167 1.268 . S
C161 O171 1.268 . S
C162 O168 1.268 . S
C162 O170 1.268 . S
C163 O169 1.268 . S
C163 O172 1.268 . S
O164 Sc154 2.105 . S
O164 C158 1.268 . S
O165 Sc155 2.105 . S
O165 C159 1.268 . S
O166 Sc156 2.105 . S
O166 C160 1.268 . S
O167 Sc154 2.105 . S
O167 C161 1.268 . S
O168 Sc156 2.105 . S
O168 C162 1.268 . S
O169 Sc155 2.105 . S
O169 C163 1.268 . S
O170 Sc154 2.105 . S
O170 C162 1.268 . S
O171 Sc155 2.105 . S
O171 C161 1.268 . S
O172 Sc156 2.105 . S
O172 C163 1.268 . S
O173 Sc154 2.105 . S
O173 C159 1.268 . S
O174 Sc156 2.105 . S
O174 C158 1.268 . S
O175 Sc155 2.105 . S
O175 C160 1.268 . S
Sc176 O179 2.025 . S
Sc176 O186 2.105 . S
Sc176 O189 2.105 . S
Sc176 O192 2.105 . S
Sc176 O195 2.105 . S
Sc177 O179 2.025 . S
Sc177 O187 2.105 . S
Sc177 O191 2.105 . S
Sc177 O193 2.105 . S
Sc177 O197 2.105 . S
Sc178 O179 2.025 . S
Sc178 O188 2.105 . S
Sc178 O190 2.105 . S
Sc178 O194 2.105 . S
Sc178 O196 2.105 . S
O179 Sc176 2.025 . S
O179 Sc177 2.025 . S
O179 Sc178 2.025 . S
C180 O186 1.268 . S
C180 O196 1.268 . S
C181 O187 1.268 . S
C181 O195 1.268 . S
C182 O188 1.268 . S
C182 O197 1.268 . S
C183 O189 1.268 . S
C183 O193 1.268 . S
C184 O190 1.268 . S
C184 O192 1.268 . S
C185 O191 1.268 . S
C185 O194 1.268 . S
O186 Sc176 2.105 . S
O186 C180 1.268 . S
O187 Sc177 2.105 . S
O187 C181 1.268 . S
O188 Sc178 2.105 . S
O188 C182 1.268 . S
O189 Sc176 2.105 . S
O189 C183 1.268 . S
O190 Sc178 2.105 . S
O190 C184 1.268 . S
O191 Sc177 2.105 . S
O191 C185 1.268 . S
O192 Sc176 2.105 . S
O192 C184 1.268 . S
O193 Sc177 2.105 . S
O193 C183 1.268 . S
O194 Sc178 2.105 . S
O194 C185 1.268 . S
O195 Sc176 2.105 . S
O195 C181 1.268 . S
O196 Sc178 2.105 . S
O196 C180 1.268 . S
O197 Sc177 2.105 . S
O197 C182 1.268 . S
Sc198 O201 2.025 . S
Sc198 O208 2.105 . S
Sc198 O211 2.105 . S
Sc198 O214 2.105 . S
Sc198 O217 2.105 . S
Sc199 O201 2.025 . S
Sc199 O209 2.105 . S
Sc199 O213 2.105 . S
Sc199 O215 2.105 . S
Sc199 O219 2.105 . S
Sc200 O201 2.025 . S
Sc200 O210 2.105 . S
Sc200 O212 2.105 . S
Sc200 O216 2.105 . S
Sc200 O218 2.105 . S
O201 Sc198 2.025 . S
O201 Sc199 2.025 . S
O201 Sc200 2.025 . S
C202 O208 1.268 . S
C202 O218 1.268 . S
C203 O209 1.268 . S
C203 O217 1.268 . S
C204 O210 1.268 . S
C204 O219 1.268 . S
C205 O211 1.268 . S
C205 O215 1.268 . S
C206 O212 1.268 . S
C206 O214 1.268 . S
C207 O213 1.268 . S
C207 O216 1.268 . S
O208 Sc198 2.105 . S
O208 C202 1.268 . S
O209 Sc199 2.105 . S
O209 C203 1.268 . S
O210 Sc200 2.105 . S
O210 C204 1.268 . S
O211 Sc198 2.105 . S
O211 C205 1.268 . S
O212 Sc200 2.105 . S
O212 C206 1.268 . S
O213 Sc199 2.105 . S
O213 C207 1.268 . S
O214 Sc198 2.105 . S
O214 C206 1.268 . S
O215 Sc199 2.105 . S
O215 C205 1.268 . S
O216 Sc200 2.105 . S
O216 C207 1.268 . S
O217 Sc198 2.105 . S
O217 C203 1.268 . S
O218 Sc200 2.105 . S
O218 C202 1.268 . S
O219 Sc199 2.105 . S
O219 C204 1.268 . S
Sc220 O223 2.025 . S
Sc220 O230 2.105 . S
Sc220 O233 2.105 . S
Sc220 O236 2.105 . S
Sc220 O239 2.105 . S
Sc221 O223 2.025 . S
Sc221 O231 2.105 . S
Sc221 O235 2.105 . S
Sc221 O237 2.105 . S
Sc221 O241 2.105 . S
Sc222 O223 2.025 . S
Sc222 O232 2.105 . S
Sc222 O234 2.105 . S
Sc222 O238 2.105 . S
Sc222 O240 2.105 . S
O223 Sc220 2.025 . S
O223 Sc221 2.025 . S
O223 Sc222 2.025 . S
C224 O230 1.268 . S
C224 O240 1.268 . S
C225 O231 1.268 . S
C225 O239 1.268 . S
C226 O232 1.268 . S
C226 O241 1.268 . S
C227 O233 1.268 . S
C227 O237 1.268 . S
C228 O234 1.268 . S
C228 O236 1.268 . S
C229 O235 1.268 . S
C229 O238 1.268 . S
O230 Sc220 2.105 . S
O230 C224 1.268 . S
O231 Sc221 2.105 . S
O231 C225 1.268 . S
O232 Sc222 2.105 . S
O232 C226 1.268 . S
O233 Sc220 2.105 . S
O233 C227 1.268 . S
O234 Sc222 2.105 . S
O234 C228 1.268 . S
O235 Sc221 2.105 . S
O235 C229 1.268 . S
O236 Sc220 2.105 . S
O236 C228 1.268 . S
O237 Sc221 2.105 . S
O237 C227 1.268 . S
O238 Sc222 2.105 . S
O238 C229 1.268 . S
O239 Sc220 2.105 . S
O239 C225 1.268 . S
O240 Sc222 2.105 . S
O240 C224 1.268 . S
O241 Sc221 2.105 . S
O241 C226 1.268 . S
Sc242 O245 2.025 . S
Sc242 O252 2.105 . S
Sc242 O255 2.105 . S
Sc242 O258 2.105 . S
Sc242 O261 2.105 . S
Sc243 O245 2.025 . S
Sc243 O253 2.105 . S
Sc243 O257 2.105 . S
Sc243 O259 2.105 . S
Sc243 O263 2.105 . S
Sc244 O245 2.025 . S
Sc244 O254 2.105 . S
Sc244 O256 2.105 . S
Sc244 O260 2.105 . S
Sc244 O262 2.105 . S
O245 Sc242 2.025 . S
O245 Sc243 2.025 . S
O245 Sc244 2.025 . S
C246 O252 1.268 . S
C246 O262 1.268 . S
C247 O253 1.268 . S
C247 O261 1.268 . S
C248 O254 1.268 . S
C248 O263 1.268 . S
C249 O255 1.268 . S
C249 O259 1.268 . S
C250 O256 1.268 . S
C250 O258 1.268 . S
C251 O257 1.268 . S
C251 O260 1.268 . S
O252 Sc242 2.105 . S
O252 C246 1.268 . S
O253 Sc243 2.105 . S
O253 C247 1.268 . S
O254 Sc244 2.105 . S
O254 C248 1.268 . S
O255 Sc242 2.105 . S
O255 C249 1.268 . S
O256 Sc244 2.105 . S
O256 C250 1.268 . S
O257 Sc243 2.105 . S
O257 C251 1.268 . S
O258 Sc242 2.105 . S
O258 C250 1.268 . S
O259 Sc243 2.105 . S
O259 C249 1.268 . S
O260 Sc244 2.105 . S
O260 C251 1.268 . S
O261 Sc242 2.105 . S
O261 C247 1.268 . S
O262 Sc244 2.105 . S
O262 C246 1.268 . S
O263 Sc243 2.105 . S
O263 C248 1.268 . S
Sc264 O267 2.025 . S
Sc264 O274 2.105 . S
Sc264 O277 2.105 . S
Sc264 O280 2.105 . S
Sc264 O283 2.105 . S
Sc265 O267 2.025 . S
Sc265 O275 2.105 . S
Sc265 O279 2.105 . S
Sc265 O281 2.105 . S
Sc265 O285 2.105 . S
Sc266 O267 2.025 . S
Sc266 O276 2.105 . S
Sc266 O278 2.105 . S
Sc266 O282 2.105 . S
Sc266 O284 2.105 . S
O267 Sc264 2.025 . S
O267 Sc265 2.025 . S
O267 Sc266 2.025 . S
C268 O274 1.268 . S
C268 O284 1.268 . S
C269 O275 1.268 . S
C269 O283 1.268 . S
C270 O276 1.268 . S
C270 O285 1.268 . S
C271 O277 1.268 . S
C271 O281 1.268 . S
C272 O278 1.268 . S
C272 O280 1.268 . S
C273 O279 1.268 . S
C273 O282 1.268 . S
O274 Sc264 2.105 . S
O274 C268 1.268 . S
O275 Sc265 2.105 . S
O275 C269 1.268 . S
O276 Sc266 2.105 . S
O276 C270 1.268 . S
O277 Sc264 2.105 . S
O277 C271 1.268 . S
O278 Sc266 2.105 . S
O278 C272 1.268 . S
O279 Sc265 2.105 . S
O279 C273 1.268 . S
O280 Sc264 2.105 . S
O280 C272 1.268 . S
O281 Sc265 2.105 . S
O281 C271 1.268 . S
O282 Sc266 2.105 . S
O282 C273 1.268 . S
O283 Sc264 2.105 . S
O283 C269 1.268 . S
O284 Sc266 2.105 . S
O284 C268 1.268 . S
O285 Sc265 2.105 . S
O285 C270 1.268 . S
Sc286 O289 2.025 . S
Sc286 O296 2.105 . S
Sc286 O299 2.105 . S
Sc286 O302 2.105 . S
Sc286 O305 2.105 . S
Sc287 O289 2.025 . S
Sc287 O297 2.105 . S
Sc287 O301 2.105 . S
Sc287 O303 2.105 . S
Sc287 O307 2.105 . S
Sc288 O289 2.025 . S
Sc288 O298 2.105 . S
Sc288 O300 2.105 . S
Sc288 O304 2.105 . S
Sc288 O306 2.105 . S
O289 Sc286 2.025 . S
O289 Sc287 2.025 . S
O289 Sc288 2.025 . S
C290 O296 1.268 . S
C290 O306 1.268 . S
C291 O297 1.268 . S
C291 O305 1.268 . S
C292 O298 1.268 . S
C292 O307 1.268 . S
C293 O299 1.268 . S
C293 O303 1.268 . S
C294 O300 1.268 . S
C294 O302 1.268 . S
C295 O301 1.268 . S
C295 O304 1.268 . S
O296 Sc286 2.105 . S
O296 C290 1.268 . S
O297 Sc287 2.105 . S
O297 C291 1.268 . S
O298 Sc288 2.105 . S
O298 C292 1.268 . S
O299 Sc286 2.105 . S
O299 C293 1.268 . S
O300 Sc288 2.105 . S
O300 C294 1.268 . S
O301 Sc287 2.105 . S
O301 C295 1.268 . S
O302 Sc286 2.105 . S
O302 C294 1.268 . S
O303 Sc287 2.105 . S
O303 C293 1.268 . S
O304 Sc288 2.105 . S
O304 C295 1.268 . S
O305 Sc286 2.105 . S
O305 C291 1.268 . S
O306 Sc288 2.105 . S
O306 C290 1.268 . S
O307 Sc287 2.105 . S
O307 C292 1.268 . S
Sc308 O311 2.025 . S
Sc308 O318 2.105 . S
Sc308 O321 2.105 . S
Sc308 O324 2.105 . S
Sc308 O327 2.105 . S
Sc309 O311 2.025 . S
Sc309 O319 2.105 . S
Sc309 O323 2.105 . S
Sc309 O325 2.105 . S
Sc309 O329 2.105 . S
Sc310 O311 2.025 . S
Sc310 O320 2.105 . S
Sc310 O322 2.105 . S
Sc310 O326 2.105 . S
Sc310 O328 2.105 . S
O311 Sc308 2.025 . S
O311 Sc309 2.025 . S
O311 Sc310 2.025 . S
C312 O318 1.268 . S
C312 O328 1.268 . S
C313 O319 1.268 . S
C313 O327 1.268 . S
C314 O320 1.268 . S
C314 O329 1.268 . S
C315 O321 1.268 . S
C315 O325 1.268 . S
C316 O322 1.268 . S
C316 O324 1.268 . S
C317 O323 1.268 . S
C317 O326 1.268 . S
O318 Sc308 2.105 . S
O318 C312 1.268 . S
O319 Sc309 2.105 . S
O319 C313 1.268 . S
O320 Sc310 2.105 . S
O320 C314 1.268 . S
O321 Sc308 2.105 . S
O321 C315 1.268 . S
O322 Sc310 2.105 . S
O322 C316 1.268 . S
O323 Sc309 2.105 . S
O323 C317 1.268 . S
O324 Sc308 2.105 . S
O324 C316 1.268 . S
O325 Sc309 2.105 . S
O325 C315 1.268 . S
O326 Sc310 2.105 . S
O326 C317 1.268 . S
O327 Sc308 2.105 . S
O327 C313 1.268 . S
O328 Sc310 2.105 . S
O328 C312 1.268 . S
O329 Sc309 2.105 . S
O329 C314 1.268 . S
Sc330 O333 2.025 . S
Sc330 O340 2.105 . S
Sc330 O343 2.105 . S
Sc330 O346 2.105 . S
Sc330 O349 2.105 . S
Sc331 O333 2.025 . S
Sc331 O341 2.105 . S
Sc331 O345 2.105 . S
Sc331 O347 2.105 . S
Sc331 O351 2.105 . S
Sc332 O333 2.025 . S
Sc332 O342 2.105 . S
Sc332 O344 2.105 . S
Sc332 O348 2.105 . S
Sc332 O350 2.105 . S
O333 Sc330 2.025 . S
O333 Sc331 2.025 . S
O333 Sc332 2.025 . S
C334 O340 1.268 . S
C334 O350 1.268 . S
C335 O341 1.268 . S
C335 O349 1.268 . S
C336 O342 1.268 . S
C336 O351 1.268 . S
C337 O343 1.268 . S
C337 O347 1.268 . S
C338 O344 1.268 . S
C338 O346 1.268 . S
C339 O345 1.268 . S
C339 O348 1.268 . S
O340 Sc330 2.105 . S
O340 C334 1.268 . S
O341 Sc331 2.105 . S
O341 C335 1.268 . S
O342 Sc332 2.105 . S
O342 C336 1.268 . S
O343 Sc330 2.105 . S
O343 C337 1.268 . S
O344 Sc332 2.105 . S
O344 C338 1.268 . S
O345 Sc331 2.105 . S
O345 C339 1.268 . S
O346 Sc330 2.105 . S
O346 C338 1.268 . S
O347 Sc331 2.105 . S
O347 C337 1.268 . S
O348 Sc332 2.105 . S
O348 C339 1.268 . S
O349 Sc330 2.105 . S
O349 C335 1.268 . S
O350 Sc332 2.105 . S
O350 C334 1.268 . S
O351 Sc331 2.105 . S
O351 C336 1.268 . S
H352 C360 0.950 . S
H353 C365 0.950 . S
H354 C362 0.950 . S
H355 C364 0.950 . S
H356 C366 0.950 . S
H357 C368 0.950 . S
H358 C370 0.950 . S
H359 C371 0.950 . S
C360 H352 0.950 . S
C360 C361 1.386 . S
C360 C362 1.391 . S
C361 C360 1.386 . S
C361 C365 1.393 . S
C362 H354 0.950 . S
C362 C360 1.391 . S
C362 C363 1.400 . S
C363 C362 1.400 . S
C363 C364 1.398 . S
C363 C369 1.491 1_554 S
C364 H355 0.950 . S
C364 C363 1.398 . S
C364 C365 1.391 . S
C365 H353 0.950 . S
C365 C361 1.393 . S
C365 C364 1.391 . S
C366 H356 0.950 . S
C366 C367 1.386 . S
C366 C368 1.391 . S
C367 C366 1.386 . S
C367 C371 1.393 . S
C368 H357 0.950 . S
C368 C366 1.391 . S
C368 C369 1.400 . S
C369 C363 1.491 1_556 S
C369 C368 1.400 . S
C369 C370 1.398 . S
C370 H358 0.950 . S
C370 C369 1.398 . S
C370 C371 1.391 . S
C371 H359 0.950 . S
C371 C367 1.393 . S
C371 C370 1.391 . S
H372 C380 0.950 . S
H373 C385 0.950 . S
H374 C382 0.950 . S
H375 C384 0.950 . S
H376 C386 0.950 . S
H377 C388 0.950 . S
H378 C390 0.950 . S
H379 C391 0.950 . S
C380 H372 0.950 . S
C380 C381 1.386 . S
C380 C382 1.391 . S
C381 C380 1.386 . S
C381 C385 1.393 . S
C382 H374 0.950 . S
C382 C380 1.391 . S
C382 C383 1.400 . S
C383 C382 1.400 . S
C383 C384 1.398 . S
C383 C389 1.491 . S
C384 H375 0.950 . S
C384 C383 1.398 . S
C384 C385 1.391 . S
C385 H373 0.950 . S
C385 C381 1.393 . S
C385 C384 1.391 . S
C386 H376 0.950 . S
C386 C387 1.386 . S
C386 C388 1.391 . S
C387 C386 1.386 . S
C387 C391 1.393 . S
C388 H377 0.950 . S
C388 C386 1.391 . S
C388 C389 1.400 . S
C389 C383 1.491 . S
C389 C388 1.400 . S
C389 C390 1.398 . S
C390 H378 0.950 . S
C390 C389 1.398 . S
C390 C391 1.391 . S
C391 H379 0.950 . S
C391 C387 1.393 . S
C391 C390 1.391 . S
H392 C400 0.950 . S
H393 C405 0.950 . S
H394 C402 0.950 . S
H395 C404 0.950 . S
H396 C406 0.950 . S
H397 C408 0.950 . S
H398 C410 0.950 . S
H399 C411 0.950 . S
C400 H392 0.950 . S
C400 C401 1.386 . S
C400 C402 1.391 . S
C401 C400 1.386 . S
C401 C405 1.393 . S
C402 H394 0.950 . S
C402 C400 1.391 . S
C402 C403 1.400 . S
C403 C402 1.400 . S
C403 C404 1.398 . S
C403 C409 1.491 1_554 S
C404 H395 0.950 . S
C404 C403 1.398 . S
C404 C405 1.391 . S
C405 H393 0.950 . S
C405 C401 1.393 . S
C405 C404 1.391 . S
C406 H396 0.950 . S
C406 C407 1.386 . S
C406 C408 1.391 . S
C407 C406 1.386 . S
C407 C411 1.393 . S
C408 H397 0.950 . S
C408 C406 1.391 . S
C408 C409 1.400 . S
C409 C403 1.491 1_556 S
C409 C408 1.400 . S
C409 C410 1.398 . S
C410 H398 0.950 . S
C410 C409 1.398 . S
C410 C411 1.391 . S
C411 H399 0.950 . S
C411 C407 1.393 . S
C411 C410 1.391 . S
H412 C420 0.950 . S
H413 C425 0.950 . S
H414 C422 0.950 . S
H415 C424 0.950 . S
H416 C426 0.950 . S
H417 C428 0.950 . S
H418 C430 0.950 . S
H419 C431 0.950 . S
C420 H412 0.950 . S
C420 C421 1.386 . S
C420 C422 1.391 . S
C421 C420 1.386 . S
C421 C425 1.393 . S
C422 H414 0.950 . S
C422 C420 1.391 . S
C422 C423 1.400 . S
C423 C422 1.400 . S
C423 C424 1.398 . S
C423 C429 1.491 . S
C424 H415 0.950 . S
C424 C423 1.398 . S
C424 C425 1.391 . S
C425 H413 0.950 . S
C425 C421 1.393 . S
C425 C424 1.391 . S
C426 H416 0.950 . S
C426 C427 1.386 . S
C426 C428 1.391 . S
C427 C426 1.386 . S
C427 C431 1.393 . S
C428 H417 0.950 . S
C428 C426 1.391 . S
C428 C429 1.400 . S
C429 C423 1.491 . S
C429 C428 1.400 . S
C429 C430 1.398 . S
C430 H418 0.950 . S
C430 C429 1.398 . S
C430 C431 1.391 . S
C431 H419 0.950 . S
C431 C427 1.393 . S
C431 C430 1.391 . S
H432 C440 0.950 . S
H433 C445 0.950 . S
H434 C442 0.950 . S
H435 C444 0.950 . S
H436 C446 0.950 . S
H437 C448 0.950 . S
H438 C450 0.950 . S
H439 C451 0.950 . S
C440 H432 0.950 . S
C440 C441 1.386 . S
C440 C442 1.391 . S
C441 C440 1.386 . S
C441 C445 1.393 . S
C442 H434 0.950 . S
C442 C440 1.391 . S
C442 C443 1.400 . S
C443 C442 1.400 . S
C443 C444 1.398 . S
C443 C449 1.491 1_556 S
C444 H435 0.950 . S
C444 C443 1.398 . S
C444 C445 1.391 . S
C445 H433 0.950 . S
C445 C441 1.393 . S
C445 C444 1.391 . S
C446 H436 0.950 . S
C446 C447 1.386 . S
C446 C448 1.391 . S
C447 C446 1.386 . S
C447 C451 1.393 . S
C448 H437 0.950 . S
C448 C446 1.391 . S
C448 C449 1.400 . S
C449 C443 1.491 1_554 S
C449 C448 1.400 . S
C449 C450 1.398 . S
C450 H438 0.950 . S
C450 C449 1.398 . S
C450 C451 1.391 . S
C451 H439 0.950 . S
C451 C447 1.393 . S
C451 C450 1.391 . S
H452 C460 0.950 . S
H453 C465 0.950 . S
H454 C462 0.950 . S
H455 C464 0.950 . S
H456 C466 0.950 . S
H457 C468 0.950 . S
H458 C470 0.950 . S
H459 C471 0.950 . S
C460 H452 0.950 . S
C460 C461 1.386 . S
C460 C462 1.391 . S
C461 C460 1.386 . S
C461 C465 1.393 . S
C462 H454 0.950 . S
C462 C460 1.391 . S
C462 C463 1.400 . S
C463 C462 1.400 . S
C463 C464 1.398 . S
C463 C469 1.491 . S
C464 H455 0.950 . S
C464 C463 1.398 . S
C464 C465 1.391 . S
C465 H453 0.950 . S
C465 C461 1.393 . S
C465 C464 1.391 . S
C466 H456 0.950 . S
C466 C467 1.386 . S
C466 C468 1.391 . S
C467 C466 1.386 . S
C467 C471 1.393 . S
C468 H457 0.950 . S
C468 C466 1.391 . S
C468 C469 1.400 . S
C469 C463 1.491 . S
C469 C468 1.400 . S
C469 C470 1.398 . S
C470 H458 0.950 . S
C470 C469 1.398 . S
C470 C471 1.391 . S
C471 H459 0.950 . S
C471 C467 1.393 . S
C471 C470 1.391 . S
H472 C480 0.950 . S
H473 C485 0.950 . S
H474 C482 0.950 . S
H475 C484 0.950 . S
H476 C486 0.950 . S
H477 C488 0.950 . S
H478 C490 0.950 . S
H479 C491 0.950 . S
C480 H472 0.950 . S
C480 C481 1.386 . S
C480 C482 1.391 . S
C481 C480 1.386 . S
C481 C485 1.393 . S
C482 H474 0.950 . S
C482 C480 1.391 . S
C482 C483 1.400 . S
C483 C482 1.400 . S
C483 C484 1.398 . S
C483 C489 1.491 1_554 S
C484 H475 0.950 . S
C484 C483 1.398 . S
C484 C485 1.391 . S
C485 H473 0.950 . S
C485 C481 1.393 . S
C485 C484 1.391 . S
C486 H476 0.950 . S
C486 C487 1.386 . S
C486 C488 1.391 . S
C487 C486 1.386 . S
C487 C491 1.393 . S
C488 H477 0.950 . S
C488 C486 1.391 . S
C488 C489 1.400 . S
C489 C483 1.491 1_556 S
C489 C488 1.400 . S
C489 C490 1.398 . S
C490 H478 0.950 . S
C490 C489 1.398 . S
C490 C491 1.391 . S
C491 H479 0.950 . S
C491 C487 1.393 . S
C491 C490 1.391 . S
H492 C500 0.950 . S
H493 C505 0.950 . S
H494 C502 0.950 . S
H495 C504 0.950 . S
H496 C506 0.950 . S
H497 C508 0.950 . S
H498 C510 0.950 . S
H499 C511 0.950 . S
C500 H492 0.950 . S
C500 C501 1.386 . S
C500 C502 1.391 . S
C501 C500 1.386 . S
C501 C505 1.393 . S
C502 H494 0.950 . S
C502 C500 1.391 . S
C502 C503 1.400 . S
C503 C502 1.400 . S
C503 C504 1.398 . S
C503 C509 1.491 . S
C504 H495 0.950 . S
C504 C503 1.398 . S
C504 C505 1.391 . S
C505 H493 0.950 . S
C505 C501 1.393 . S
C505 C504 1.391 . S
C506 H496 0.950 . S
C506 C507 1.386 . S
C506 C508 1.391 . S
C507 C506 1.386 . S
C507 C511 1.393 . S
C508 H497 0.950 . S
C508 C506 1.391 . S
C508 C509 1.400 . S
C509 C503 1.491 . S
C509 C508 1.400 . S
C509 C510 1.398 . S
C510 H498 0.950 . S
C510 C509 1.398 . S
C510 C511 1.391 . S
C511 H499 0.950 . S
C511 C507 1.393 . S
C511 C510 1.391 . S
H512 C520 0.950 . S
H513 C525 0.950 . S
H514 C522 0.950 . S
H515 C524 0.950 . S
H516 C526 0.950 . S
H517 C528 0.950 . S
H518 C530 0.950 . S
H519 C531 0.950 . S
C520 H512 0.950 . S
C520 C521 1.386 . S
C520 C522 1.391 . S
C521 C520 1.386 . S
C521 C525 1.393 . S
C522 H514 0.950 . S
C522 C520 1.391 . S
C522 C523 1.400 . S
C523 C522 1.400 . S
C523 C524 1.398 . S
C523 C529 1.491 1_566 S
C524 H515 0.950 . S
C524 C523 1.398 . S
C524 C525 1.391 . S
C525 H513 0.950 . S
C525 C521 1.393 . S
C525 C524 1.391 . S
C526 H516 0.950 . S
C526 C527 1.386 . S
C526 C528 1.391 . S
C527 C526 1.386 . S
C527 C531 1.393 . S
C528 H517 0.950 . S
C528 C526 1.391 . S
C528 C529 1.400 . S
C529 C523 1.491 1_544 S
C529 C528 1.400 . S
C529 C530 1.398 . S
C530 H518 0.950 . S
C530 C529 1.398 . S
C530 C531 1.391 . S
C531 H519 0.950 . S
C531 C527 1.393 . S
C531 C530 1.391 . S
H532 C540 0.950 . S
H533 C545 0.950 . S
H534 C542 0.950 1_545 S
H535 C544 0.950 . S
H536 C546 0.950 . S
H537 C548 0.950 1_565 S
H538 C550 0.950 . S
H539 C551 0.950 . S
C540 H532 0.950 . S
C540 C541 1.386 . S
C540 C542 1.391 . S
C541 C540 1.386 . S
C541 C545 1.393 . S
C542 H534 0.950 1_565 S
C542 C540 1.391 . S
C542 C543 1.400 . S
C543 C542 1.400 . S
C543 C544 1.398 . S
C543 C549 1.491 1_565 S
C544 H535 0.950 . S
C544 C543 1.398 . S
C544 C545 1.391 . S
C545 H533 0.950 . S
C545 C541 1.393 . S
C545 C544 1.391 . S
C546 H536 0.950 . S
C546 C547 1.386 . S
C546 C548 1.391 . S
C547 C546 1.386 . S
C547 C551 1.393 . S
C548 H537 0.950 1_545 S
C548 C546 1.391 . S
C548 C549 1.400 . S
C549 C543 1.491 1_545 S
C549 C548 1.400 . S
C549 C550 1.398 . S
C550 H538 0.950 . S
C550 C549 1.398 . S
C550 C551 1.391 . S
C551 H539 0.950 . S
C551 C547 1.393 . S
C551 C550 1.391 . S
H552 C560 0.950 . S
H553 C565 0.950 . S
H554 C562 0.950 . S
H555 C564 0.950 . S
H556 C566 0.950 . S
H557 C568 0.950 . S
H558 C570 0.950 . S
H559 C571 0.950 . S
C560 H552 0.950 . S
C560 C561 1.386 . S
C560 C562 1.391 . S
C561 C560 1.386 . S
C561 C565 1.393 . S
C562 H554 0.950 . S
C562 C560 1.391 . S
C562 C563 1.400 . S
C563 C562 1.400 . S
C563 C564 1.398 . S
C563 C569 1.491 1_566 S
C564 H555 0.950 . S
C564 C563 1.398 . S
C564 C565 1.391 . S
C565 H553 0.950 . S
C565 C561 1.393 . S
C565 C564 1.391 . S
C566 H556 0.950 . S
C566 C567 1.386 . S
C566 C568 1.391 . S
C567 C566 1.386 . S
C567 C571 1.393 . S
C568 H557 0.950 . S
C568 C566 1.391 . S
C568 C569 1.400 . S
C569 C563 1.491 1_544 S
C569 C568 1.400 . S
C569 C570 1.398 . S
C570 H558 0.950 . S
C570 C569 1.398 . S
C570 C571 1.391 . S
C571 H559 0.950 . S
C571 C567 1.393 . S
C571 C570 1.391 . S
H572 C580 0.950 . S
H573 C585 0.950 . S
H574 C582 0.950 . S
H575 C584 0.950 1_545 S
H576 C586 0.950 . S
H577 C588 0.950 . S
H578 C590 0.950 1_565 S
H579 C591 0.950 . S
C580 H572 0.950 . S
C580 C581 1.386 . S
C580 C582 1.391 . S
C581 C580 1.386 . S
C581 C585 1.393 . S
C582 H574 0.950 . S
C582 C580 1.391 . S
C582 C583 1.400 . S
C583 C582 1.400 . S
C583 C584 1.398 . S
C583 C589 1.491 1_565 S
C584 H575 0.950 1_565 S
C584 C583 1.398 . S
C584 C585 1.391 . S
C585 H573 0.950 . S
C585 C581 1.393 . S
C585 C584 1.391 . S
C586 H576 0.950 . S
C586 C587 1.386 . S
C586 C588 1.391 . S
C587 C586 1.386 . S
C587 C591 1.393 . S
C588 H577 0.950 . S
C588 C586 1.391 . S
C588 C589 1.400 . S
C589 C583 1.491 1_545 S
C589 C588 1.400 . S
C589 C590 1.398 . S
C590 H578 0.950 1_545 S
C590 C589 1.398 . S
C590 C591 1.391 . S
C591 H579 0.950 . S
C591 C587 1.393 . S
C591 C590 1.391 . S
H592 C600 0.950 . S
H593 C605 0.950 . S
H594 C602 0.950 1_556 S
H595 C604 0.950 . S
H596 C606 0.950 . S
H597 C608 0.950 1_554 S
H598 C610 0.950 . S
H599 C611 0.950 . S
C600 H592 0.950 . S
C600 C601 1.386 . S
C600 C602 1.391 . S
C601 C600 1.386 . S
C601 C605 1.393 . S
C602 H594 0.950 1_554 S
C602 C600 1.391 . S
C602 C603 1.400 . S
C603 C602 1.400 . S
C603 C604 1.398 . S
C603 C609 1.491 1_554 S
C604 H595 0.950 . S
C604 C603 1.398 . S
C604 C605 1.391 . S
C605 H593 0.950 . S
C605 C601 1.393 . S
C605 C604 1.391 . S
C606 H596 0.950 . S
C606 C607 1.386 . S
C606 C608 1.391 . S
C607 C606 1.386 . S
C607 C611 1.393 . S
C608 H597 0.950 1_556 S
C608 C606 1.391 . S
C608 C609 1.400 . S
C609 C603 1.491 1_556 S
C609 C608 1.400 . S
C609 C610 1.398 . S
C610 H598 0.950 . S
C610 C609 1.398 . S
C610 C611 1.391 . S
C611 H599 0.950 . S
C611 C607 1.393 . S
C611 C610 1.391 . S
H612 C620 0.950 . S
H613 C625 0.950 . S
H614 C622 0.950 . S
H615 C624 0.950 . S
H616 C626 0.950 . S
H617 C628 0.950 . S
H618 C630 0.950 . S
H619 C631 0.950 . S
C620 H612 0.950 . S
C620 C621 1.386 . S
C620 C622 1.391 . S
C621 C620 1.386 . S
C621 C625 1.393 . S
C622 H614 0.950 . S
C622 C620 1.391 . S
C622 C623 1.400 . S
C623 C622 1.400 . S
C623 C624 1.398 . S
C623 C629 1.491 . S
C624 H615 0.950 . S
C624 C623 1.398 . S
C624 C625 1.391 . S
C625 H613 0.950 . S
C625 C621 1.393 . S
C625 C624 1.391 . S
C626 H616 0.950 . S
C626 C627 1.386 . S
C626 C628 1.391 . S
C627 C626 1.386 . S
C627 C631 1.393 . S
C628 H617 0.950 . S
C628 C626 1.391 . S
C628 C629 1.400 . S
C629 C623 1.491 . S
C629 C628 1.400 . S
C629 C630 1.398 . S
C630 H618 0.950 . S
C630 C629 1.398 . S
C630 C631 1.391 . S
C631 H619 0.950 . S
C631 C627 1.393 . S
C631 C630 1.391 . S
H632 C640 0.950 . S
H633 C645 0.950 . S
H634 C642 0.950 . S
H635 C644 0.950 1_556 S
H636 C646 0.950 . S
H637 C648 0.950 . S
H638 C650 0.950 1_554 S
H639 C651 0.950 . S
C640 H632 0.950 . S
C640 C641 1.386 . S
C640 C642 1.391 . S
C641 C640 1.386 . S
C641 C645 1.393 . S
C642 H634 0.950 . S
C642 C640 1.391 . S
C642 C643 1.400 . S
C643 C642 1.400 . S
C643 C644 1.398 . S
C643 C649 1.491 1_554 S
C644 H635 0.950 1_554 S
C644 C643 1.398 . S
C644 C645 1.391 . S
C645 H633 0.950 . S
C645 C641 1.393 . S
C645 C644 1.391 . S
C646 H636 0.950 . S
C646 C647 1.386 . S
C646 C648 1.391 . S
C647 C646 1.386 . S
C647 C651 1.393 . S
C648 H637 0.950 . S
C648 C646 1.391 . S
C648 C649 1.400 . S
C649 C643 1.491 1_556 S
C649 C648 1.400 . S
C649 C650 1.398 . S
C650 H638 0.950 1_556 S
C650 C649 1.398 . S
C650 C651 1.391 . S
C651 H639 0.950 . S
C651 C647 1.393 . S
C651 C650 1.391 . S
H652 C660 0.950 . S
H653 C665 0.950 . S
H654 C662 0.950 . S
H655 C664 0.950 . S
H656 C666 0.950 . S
H657 C668 0.950 . S
H658 C670 0.950 . S
H659 C671 0.950 . S
C660 H652 0.950 . S
C660 C661 1.386 . S
C660 C662 1.391 . S
C661 C660 1.386 . S
C661 C665 1.393 . S
C662 H654 0.950 . S
C662 C660 1.391 . S
C662 C663 1.400 . S
C663 C662 1.400 . S
C663 C664 1.398 . S
C663 C669 1.491 . S
C664 H655 0.950 . S
C664 C663 1.398 . S
C664 C665 1.391 . S
C665 H653 0.950 . S
C665 C661 1.393 . S
C665 C664 1.391 . S
C666 H656 0.950 . S
C666 C667 1.386 . S
C666 C668 1.391 . S
C667 C666 1.386 . S
C667 C671 1.393 . S
C668 H657 0.950 . S
C668 C666 1.391 . S
C668 C669 1.400 . S
C669 C663 1.491 . S
C669 C668 1.400 . S
C669 C670 1.398 . S
C670 H658 0.950 . S
C670 C669 1.398 . S
C670 C671 1.391 . S
C671 H659 0.950 . S
C671 C667 1.393 . S
C671 C670 1.391 . S
H672 C680 0.950 . S
H673 C685 0.950 . S
H674 C682 0.950 . S
H675 C684 0.950 . S
H676 C686 0.950 . S
H677 C688 0.950 . S
H678 C690 0.950 . S
H679 C691 0.950 . S
C680 H672 0.950 . S
C680 C681 1.386 . S
C680 C682 1.391 . S
C681 C680 1.386 . S
C681 C685 1.393 . S
C682 H674 0.950 . S
C682 C680 1.391 . S
C682 C683 1.400 . S
C683 C682 1.400 . S
C683 C684 1.398 . S
C683 C689 1.491 . S
C684 H675 0.950 . S
C684 C683 1.398 . S
C684 C685 1.391 . S
C685 H673 0.950 . S
C685 C681 1.393 . S
C685 C684 1.391 . S
C686 H676 0.950 . S
C686 C687 1.386 . S
C686 C688 1.391 . S
C687 C686 1.386 . S
C687 C691 1.393 . S
C688 H677 0.950 . S
C688 C686 1.391 . S
C688 C689 1.400 . S
C689 C683 1.491 . S
C689 C688 1.400 . S
C689 C690 1.398 . S
C690 H678 0.950 . S
C690 C689 1.398 . S
C690 C691 1.391 . S
C691 H679 0.950 . S
C691 C687 1.393 . S
C691 C690 1.391 . S
H692 C700 0.950 . S
H693 C705 0.950 . S
H694 C702 0.950 . S
H695 C704 0.950 . S
H696 C706 0.950 . S
H697 C708 0.950 . S
H698 C710 0.950 . S
H699 C711 0.950 . S
C700 H692 0.950 . S
C700 C701 1.386 . S
C700 C702 1.391 . S
C701 C700 1.386 . S
C701 C705 1.393 . S
C702 H694 0.950 . S
C702 C700 1.391 . S
C702 C703 1.400 . S
C703 C702 1.400 . S
C703 C704 1.398 . S
C703 C709 1.491 . S
C704 H695 0.950 . S
C704 C703 1.398 . S
C704 C705 1.391 . S
C705 H693 0.950 . S
C705 C701 1.393 . S
C705 C704 1.391 . S
C706 H696 0.950 . S
C706 C707 1.386 . S
C706 C708 1.391 . S
C707 C706 1.386 . S
C707 C711 1.393 . S
C708 H697 0.950 . S
C708 C706 1.391 . S
C708 C709 1.400 . S
C709 C703 1.491 . S
C709 C708 1.400 . S
C709 C710 1.398 . S
C710 H698 0.950 . S
C710 C709 1.398 . S
C710 C711 1.391 . S
C711 H699 0.950 . S
C711 C707 1.393 . S
C711 C710 1.391 . S
H712 C720 0.950 . S
H713 C725 0.950 . S
H714 C722 0.950 . S
H715 C724 0.950 . S
H716 C726 0.950 . S
H717 C728 0.950 . S
H718 C730 0.950 . S
H719 C731 0.950 . S
C720 H712 0.950 . S
C720 C721 1.386 . S
C720 C722 1.391 . S
C721 C720 1.386 . S
C721 C725 1.393 . S
C722 H714 0.950 . S
C722 C720 1.391 . S
C722 C723 1.400 . S
C723 C722 1.400 . S
C723 C724 1.398 . S
C723 C729 1.491 . S
C724 H715 0.950 . S
C724 C723 1.398 . S
C724 C725 1.391 . S
C725 H713 0.950 . S
C725 C721 1.393 . S
C725 C724 1.391 . S
C726 H716 0.950 . S
C726 C727 1.386 . S
C726 C728 1.391 . S
C727 C726 1.386 . S
C727 C731 1.393 . S
C728 H717 0.950 . S
C728 C726 1.391 . S
C728 C729 1.400 . S
C729 C723 1.491 . S
C729 C728 1.400 . S
C729 C730 1.398 . S
C730 H718 0.950 . S
C730 C729 1.398 . S
C730 C731 1.391 . S
C731 H719 0.950 . S
C731 C727 1.393 . S
C731 C730 1.391 . S
H732 C740 0.950 . S
H733 C745 0.950 . S
H734 C742 0.950 . S
H735 C744 0.950 . S
H736 C746 0.950 . S
H737 C748 0.950 . S
H738 C750 0.950 . S
H739 C751 0.950 . S
C740 H732 0.950 . S
C740 C741 1.386 . S
C740 C742 1.391 . S
C741 C740 1.386 . S
C741 C745 1.393 . S
C742 H734 0.950 . S
C742 C740 1.391 . S
C742 C743 1.400 . S
C743 C742 1.400 . S
C743 C744 1.398 . S
C743 C749 1.491 . S
C744 H735 0.950 . S
C744 C743 1.398 . S
C744 C745 1.391 . S
C745 H733 0.950 . S
C745 C741 1.393 . S
C745 C744 1.391 . S
C746 H736 0.950 . S
C746 C747 1.386 . S
C746 C748 1.391 . S
C747 C746 1.386 . S
C747 C751 1.393 . S
C748 H737 0.950 . S
C748 C746 1.391 . S
C748 C749 1.400 . S
C749 C743 1.491 . S
C749 C748 1.400 . S
C749 C750 1.398 . S
C750 H738 0.950 . S
C750 C749 1.398 . S
C750 C751 1.391 . S
C751 H739 0.950 . S
C751 C747 1.393 . S
C751 C750 1.391 . S
H752 C760 0.950 . S
H753 C765 0.950 . S
H754 C762 0.950 . S
H755 C764 0.950 . S
H756 C766 0.950 . S
H757 C768 0.950 . S
H758 C770 0.950 . S
H759 C771 0.950 . S
C760 H752 0.950 . S
C760 C761 1.386 . S
C760 C762 1.391 . S
C761 C760 1.386 . S
C761 C765 1.393 . S
C762 H754 0.950 . S
C762 C760 1.391 . S
C762 C763 1.400 . S
C763 C762 1.400 . S
C763 C764 1.398 . S
C763 C769 1.491 . S
C764 H755 0.950 . S
C764 C763 1.398 . S
C764 C765 1.391 . S
C765 H753 0.950 . S
C765 C761 1.393 . S
C765 C764 1.391 . S
C766 H756 0.950 . S
C766 C767 1.386 . S
C766 C768 1.391 . S
C767 C766 1.386 . S
C767 C771 1.393 . S
C768 H757 0.950 . S
C768 C766 1.391 . S
C768 C769 1.400 . S
C769 C763 1.491 . S
C769 C768 1.400 . S
C769 C770 1.398 . S
C770 H758 0.950 . S
C770 C769 1.398 . S
C770 C771 1.391 . S
C771 H759 0.950 . S
C771 C767 1.393 . S
C771 C770 1.391 . S
H772 C780 0.950 . S
H773 C785 0.950 . S
H774 C782 0.950 . S
H775 C784 0.950 . S
H776 C786 0.950 . S
H777 C788 0.950 . S
H778 C790 0.950 . S
H779 C791 0.950 . S
C780 H772 0.950 . S
C780 C781 1.386 . S
C780 C782 1.391 . S
C781 C780 1.386 . S
C781 C785 1.393 . S
C782 H774 0.950 . S
C782 C780 1.391 . S
C782 C783 1.400 . S
C783 C782 1.400 . S
C783 C784 1.398 . S
C783 C789 1.491 . S
C784 H775 0.950 . S
C784 C783 1.398 . S
C784 C785 1.391 . S
C785 H773 0.950 . S
C785 C781 1.393 . S
C785 C784 1.391 . S
C786 H776 0.950 . S
C786 C787 1.386 . S
C786 C788 1.391 . S
C787 C786 1.386 . S
C787 C791 1.393 . S
C788 H777 0.950 . S
C788 C786 1.391 . S
C788 C789 1.400 . S
C789 C783 1.491 . S
C789 C788 1.400 . S
C789 C790 1.398 . S
C790 H778 0.950 . S
C790 C789 1.398 . S
C790 C791 1.391 . S
C791 H779 0.950 . S
C791 C787 1.393 . S
C791 C790 1.391 . S
H792 C800 0.950 . S
H793 C805 0.950 . S
H794 C802 0.950 . S
H795 C804 0.950 . S
H796 C806 0.950 . S
H797 C808 0.950 . S
H798 C810 0.950 . S
H799 C811 0.950 . S
C800 H792 0.950 . S
C800 C801 1.386 . S
C800 C802 1.391 . S
C801 C800 1.386 . S
C801 C805 1.393 . S
C802 H794 0.950 . S
C802 C800 1.391 . S
C802 C803 1.400 . S
C803 C802 1.400 . S
C803 C804 1.398 . S
C803 C809 1.491 . S
C804 H795 0.950 . S
C804 C803 1.398 . S
C804 C805 1.391 . S
C805 H793 0.950 . S
C805 C801 1.393 . S
C805 C804 1.391 . S
C806 H796 0.950 . S
C806 C807 1.386 . S
C806 C808 1.391 . S
C807 C806 1.386 . S
C807 C811 1.393 . S
C808 H797 0.950 . S
C808 C806 1.391 . S
C808 C809 1.400 . S
C809 C803 1.491 . S
C809 C808 1.400 . S
C809 C810 1.398 . S
C810 H798 0.950 . S
C810 C809 1.398 . S
C810 C811 1.391 . S
C811 H799 0.950 . S
C811 C807 1.393 . S
C811 C810 1.391 . S
H812 C820 0.950 . S
H813 C825 0.950 . S
H814 C822 0.950 . S
H815 C824 0.950 . S
H816 C826 0.950 . S
H817 C828 0.950 . S
H818 C830 0.950 . S
H819 C831 0.950 . S
C820 H812 0.950 . S
C820 C821 1.386 . S
C820 C822 1.391 . S
C821 C820 1.386 . S
C821 C825 1.393 . S
C822 H814 0.950 . S
C822 C820 1.391 . S
C822 C823 1.400 . S
C823 C822 1.400 . S
C823 C824 1.398 . S
C823 C829 1.491 . S
C824 H815 0.950 . S
C824 C823 1.398 . S
C824 C825 1.391 . S
C825 H813 0.950 . S
C825 C821 1.393 . S
C825 C824 1.391 . S
C826 H816 0.950 . S
C826 C827 1.386 . S
C826 C828 1.391 . S
C827 C826 1.386 . S
C827 C831 1.393 . S
C828 H817 0.950 . S
C828 C826 1.391 . S
C828 C829 1.400 . S
C829 C823 1.491 . S
C829 C828 1.400 . S
C829 C830 1.398 . S
C830 H818 0.950 . S
C830 C829 1.398 . S
C830 C831 1.391 . S
C831 H819 0.950 . S
C831 C827 1.393 . S
C831 C830 1.391 . S
H832 C840 0.950 . S
H833 C845 0.950 . S
H834 C842 0.950 . S
H835 C844 0.950 . S
H836 C846 0.950 . S
H837 C848 0.950 . S
H838 C850 0.950 . S
H839 C851 0.950 . S
C840 H832 0.950 . S
C840 C841 1.386 . S
C840 C842 1.391 . S
C841 C840 1.386 . S
C841 C845 1.393 . S
C842 H834 0.950 . S
C842 C840 1.391 . S
C842 C843 1.400 . S
C843 C842 1.400 . S
C843 C844 1.398 . S
C843 C849 1.491 . S
C844 H835 0.950 . S
C844 C843 1.398 . S
C844 C845 1.391 . S
C845 H833 0.950 . S
C845 C841 1.393 . S
C845 C844 1.391 . S
C846 H836 0.950 . S
C846 C847 1.386 . S
C846 C848 1.391 . S
C847 C846 1.386 . S
C847 C851 1.393 . S
C848 H837 0.950 . S
C848 C846 1.391 . S
C848 C849 1.400 . S
C849 C843 1.491 . S
C849 C848 1.400 . S
C849 C850 1.398 . S
C850 H838 0.950 . S
C850 C849 1.398 . S
C850 C851 1.391 . S
C851 H839 0.950 . S
C851 C847 1.393 . S
C851 C850 1.391 . S
H852 C860 0.950 . S
H853 C865 0.950 . S
H854 C862 0.950 . S
H855 C864 0.950 . S
H856 C866 0.950 . S
H857 C868 0.950 . S
H858 C870 0.950 . S
H859 C871 0.950 . S
C860 H852 0.950 . S
C860 C861 1.386 . S
C860 C862 1.391 . S
C861 C860 1.386 . S
C861 C865 1.393 . S
C862 H854 0.950 . S
C862 C860 1.391 . S
C862 C863 1.400 . S
C863 C862 1.400 . S
C863 C864 1.398 . S
C863 C869 1.491 1_455 S
C864 H855 0.950 . S
C864 C863 1.398 . S
C864 C865 1.391 . S
C865 H853 0.950 . S
C865 C861 1.393 . S
C865 C864 1.391 . S
C866 H856 0.950 . S
C866 C867 1.386 . S
C866 C868 1.391 . S
C867 C866 1.386 . S
C867 C871 1.393 . S
C868 H857 0.950 . S
C868 C866 1.391 . S
C868 C869 1.400 . S
C869 C863 1.491 1_655 S
C869 C868 1.400 . S
C869 C870 1.398 . S
C870 H858 0.950 . S
C870 C869 1.398 . S
C870 C871 1.391 . S
C871 H859 0.950 . S
C871 C867 1.393 . S
C871 C870 1.391 . S
H872 C880 0.950 . S
H873 C885 0.950 . S
H874 C882 0.950 . S
H875 C884 0.950 . S
H876 C886 0.950 . S
H877 C888 0.950 . S
H878 C890 0.950 . S
H879 C891 0.950 . S
C880 H872 0.950 . S
C880 C881 1.386 . S
C880 C882 1.391 . S
C881 C880 1.386 . S
C881 C885 1.393 . S
C882 H874 0.950 . S
C882 C880 1.391 . S
C882 C883 1.400 . S
C883 C882 1.400 . S
C883 C884 1.398 . S
C883 C889 1.491 . S
C884 H875 0.950 . S
C884 C883 1.398 . S
C884 C885 1.391 . S
C885 H873 0.950 . S
C885 C881 1.393 . S
C885 C884 1.391 . S
C886 H876 0.950 . S
C886 C887 1.386 . S
C886 C888 1.391 . S
C887 C886 1.386 . S
C887 C891 1.393 . S
C888 H877 0.950 . S
C888 C886 1.391 . S
C888 C889 1.400 . S
C889 C883 1.491 . S
C889 C888 1.400 . S
C889 C890 1.398 . S
C890 H878 0.950 . S
C890 C889 1.398 . S
C890 C891 1.391 . S
C891 H879 0.950 . S
C891 C887 1.393 . S
C891 C890 1.391 . S
H892 C900 0.950 . S
H893 C905 0.950 . S
H894 C902 0.950 . S
H895 C904 0.950 . S
H896 C906 0.950 . S
H897 C908 0.950 . S
H898 C910 0.950 . S
H899 C911 0.950 . S
C900 H892 0.950 . S
C900 C901 1.386 . S
C900 C902 1.391 . S
C901 C900 1.386 . S
C901 C905 1.393 . S
C902 H894 0.950 . S
C902 C900 1.391 . S
C902 C903 1.400 . S
C903 C902 1.400 . S
C903 C904 1.398 . S
C903 C909 1.491 1_655 S
C904 H895 0.950 . S
C904 C903 1.398 . S
C904 C905 1.391 . S
C905 H893 0.950 . S
C905 C901 1.393 . S
C905 C904 1.391 . S
C906 H896 0.950 . S
C906 C907 1.386 . S
C906 C908 1.391 . S
C907 C906 1.386 . S
C907 C911 1.393 . S
C908 H897 0.950 . S
C908 C906 1.391 . S
C908 C909 1.400 . S
C909 C903 1.491 1_455 S
C909 C908 1.400 . S
C909 C910 1.398 . S
C910 H898 0.950 . S
C910 C909 1.398 . S
C910 C911 1.391 . S
C911 H899 0.950 . S
C911 C907 1.393 . S
C911 C910 1.391 . S
H912 C920 0.950 . S
H913 C925 0.950 . S
H914 C922 0.950 . S
H915 C924 0.950 . S
H916 C926 0.950 . S
H917 C928 0.950 . S
H918 C930 0.950 . S
H919 C931 0.950 . S
C920 H912 0.950 . S
C920 C921 1.386 . S
C920 C922 1.391 . S
C921 C920 1.386 . S
C921 C925 1.393 . S
C922 H914 0.950 . S
C922 C920 1.391 . S
C922 C923 1.400 . S
C923 C922 1.400 . S
C923 C924 1.398 . S
C923 C929 1.491 1_655 S
C924 H915 0.950 . S
C924 C923 1.398 . S
C924 C925 1.391 . S
C925 H913 0.950 . S
C925 C921 1.393 . S
C925 C924 1.391 . S
C926 H916 0.950 . S
C926 C927 1.386 . S
C926 C928 1.391 . S
C927 C926 1.386 . S
C927 C931 1.393 . S
C928 H917 0.950 . S
C928 C926 1.391 . S
C928 C929 1.400 . S
C929 C923 1.491 1_455 S
C929 C928 1.400 . S
C929 C930 1.398 . S
C930 H918 0.950 . S
C930 C929 1.398 . S
C930 C931 1.391 . S
C931 H919 0.950 . S
C931 C927 1.393 . S
C931 C930 1.391 . S
H932 C940 0.950 . S
H933 C945 0.950 . S
H934 C942 0.950 . S
H935 C944 0.950 . S
H936 C946 0.950 . S
H937 C948 0.950 . S
H938 C950 0.950 . S
H939 C951 0.950 . S
C940 H932 0.950 . S
C940 C941 1.386 . S
C940 C942 1.391 . S
C941 C940 1.386 . S
C941 C945 1.393 . S
C942 H934 0.950 . S
C942 C940 1.391 . S
C942 C943 1.400 . S
C943 C942 1.400 . S
C943 C944 1.398 . S
C943 C949 1.491 . S
C944 H935 0.950 . S
C944 C943 1.398 . S
C944 C945 1.391 . S
C945 H933 0.950 . S
C945 C941 1.393 . S
C945 C944 1.391 . S
C946 H936 0.950 . S
C946 C947 1.386 . S
C946 C948 1.391 . S
C947 C946 1.386 . S
C947 C951 1.393 . S
C948 H937 0.950 . S
C948 C946 1.391 . S
C948 C949 1.400 . S
C949 C943 1.491 . S
C949 C948 1.400 . S
C949 C950 1.398 . S
C950 H938 0.950 . S
C950 C949 1.398 . S
C950 C951 1.391 . S
C951 H939 0.950 . S
C951 C947 1.393 . S
C951 C950 1.391 . S
H952 C960 0.950 . S
H953 C965 0.950 . S
H954 C962 0.950 . S
H955 C964 0.950 . S
H956 C966 0.950 . S
H957 C968 0.950 . S
H958 C970 0.950 . S
H959 C971 0.950 . S
C960 H952 0.950 . S
C960 C961 1.386 . S
C960 C962 1.391 . S
C961 C960 1.386 . S
C961 C965 1.393 . S
C962 H954 0.950 . S
C962 C960 1.391 . S
C962 C963 1.400 . S
C963 C962 1.400 . S
C963 C964 1.398 . S
C963 C969 1.491 1_455 S
C964 H955 0.950 . S
C964 C963 1.398 . S
C964 C965 1.391 . S
C965 H953 0.950 . S
C965 C961 1.393 . S
C965 C964 1.391 . S
C966 H956 0.950 . S
C966 C967 1.386 . S
C966 C968 1.391 . S
C967 C966 1.386 . S
C967 C971 1.393 . S
C968 H957 0.950 . S
C968 C966 1.391 . S
C968 C969 1.400 . S
C969 C963 1.491 1_655 S
C969 C968 1.400 . S
C969 C970 1.398 . S
C970 H958 0.950 . S
C970 C969 1.398 . S
C970 C971 1.391 . S
C971 H959 0.950 . S
C971 C967 1.393 . S
C971 C970 1.391 . S
H972 C980 0.950 . S
H973 C985 0.950 . S
H974 C982 0.950 . S
H975 C984 0.950 . S
H976 C986 0.950 . S
H977 C988 0.950 . S
H978 C990 0.950 . S
H979 C991 0.950 . S
C980 H972 0.950 . S
C980 C981 1.386 . S
C980 C982 1.391 . S
C981 C980 1.386 . S
C981 C985 1.393 . S
C982 H974 0.950 . S
C982 C980 1.391 . S
C982 C983 1.400 . S
C983 C982 1.400 . S
C983 C984 1.398 . S
C983 C989 1.491 . S
C984 H975 0.950 . S
C984 C983 1.398 . S
C984 C985 1.391 . S
C985 H973 0.950 . S
C985 C981 1.393 . S
C985 C984 1.391 . S
C986 H976 0.950 . S
C986 C987 1.386 . S
C986 C988 1.391 . S
C987 C986 1.386 . S
C987 C991 1.393 . S
C988 H977 0.950 . S
C988 C986 1.391 . S
C988 C989 1.400 . S
C989 C983 1.491 . S
C989 C988 1.400 . S
C989 C990 1.398 . S
C990 H978 0.950 . S
C990 C989 1.398 . S
C990 C991 1.391 . S
C991 H979 0.950 . S
C991 C987 1.393 . S
C991 C990 1.391 . S
H992 C1000 0.950 . S
H993 C1005 0.950 . S
H994 C1002 0.950 1_565 S
H995 C1004 0.950 . S
H996 C1006 0.950 . S
H997 C1008 0.950 . S
H998 C1010 0.950 . S
H999 C1011 0.950 . S
C1000 H992 0.950 . S
C1000 C1001 1.386 . S
C1000 C1002 1.391 . S
C1001 C1000 1.386 . S
C1001 C1005 1.393 . S
C1002 H994 0.950 1_545 S
C1002 C1000 1.391 . S
C1002 C1003 1.400 1_545 S
C1003 C1002 1.400 1_565 S
C1003 C1004 1.398 . S
C1003 C1009 1.491 . S
C1004 H995 0.950 . S
C1004 C1003 1.398 . S
C1004 C1005 1.391 1_565 S
C1005 H993 0.950 . S
C1005 C1001 1.393 . S
C1005 C1004 1.391 1_545 S
C1006 H996 0.950 . S
C1006 C1007 1.386 . S
C1006 C1008 1.391 . S
C1007 C1006 1.386 . S
C1007 C1011 1.393 . S
C1008 H997 0.950 . S
C1008 C1006 1.391 . S
C1008 C1009 1.400 . S
C1009 C1003 1.491 . S
C1009 C1008 1.400 . S
C1009 C1010 1.398 . S
C1010 H998 0.950 . S
C1010 C1009 1.398 . S
C1010 C1011 1.391 . S
C1011 H999 0.950 . S
C1011 C1007 1.393 . S
C1011 C1010 1.391 . S
H1012 C1020 0.950 . S
H1013 C1025 0.950 . S
H1014 C1022 0.950 . S
H1015 C1024 0.950 . S
H1016 C1026 0.950 . S
H1017 C1028 0.950 . S
H1018 C1030 0.950 . S
H1019 C1031 0.950 . S
C1020 H1012 0.950 . S
C1020 C1021 1.386 . S
C1020 C1022 1.391 1_565 S
C1021 C1020 1.386 . S
C1021 C1025 1.393 . S
C1022 H1014 0.950 . S
C1022 C1020 1.391 1_545 S
C1022 C1023 1.400 . S
C1023 C1022 1.400 . S
C1023 C1024 1.398 . S
C1023 C1029 1.491 . S
C1024 H1015 0.950 . S
C1024 C1023 1.398 . S
C1024 C1025 1.391 1_545 S
C1025 H1013 0.950 . S
C1025 C1021 1.393 . S
C1025 C1024 1.391 1_565 S
C1026 H1016 0.950 . S
C1026 C1027 1.386 . S
C1026 C1028 1.391 . S
C1027 C1026 1.386 . S
C1027 C1031 1.393 . S
C1028 H1017 0.950 . S
C1028 C1026 1.391 . S
C1028 C1029 1.400 . S
C1029 C1023 1.491 . S
C1029 C1028 1.400 . S
C1029 C1030 1.398 . S
C1030 H1018 0.950 . S
C1030 C1029 1.398 . S
C1030 C1031 1.391 . S
C1031 H1019 0.950 . S
C1031 C1027 1.393 . S
C1031 C1030 1.391 . S
H1032 C1040 0.950 . S
H1033 C1045 0.950 . S
H1034 C1042 0.950 . S
H1035 C1044 0.950 . S
H1036 C1046 0.950 . S
H1037 C1048 0.950 . S
H1038 C1050 0.950 1_545 S
H1039 C1051 0.950 . S
C1040 H1032 0.950 . S
C1040 C1041 1.386 . S
C1040 C1042 1.391 . S
C1041 C1040 1.386 . S
C1041 C1045 1.393 . S
C1042 H1034 0.950 . S
C1042 C1040 1.391 . S
C1042 C1043 1.400 . S
C1043 C1042 1.400 . S
C1043 C1044 1.398 . S
C1043 C1049 1.491 . S
C1044 H1035 0.950 . S
C1044 C1043 1.398 . S
C1044 C1045 1.391 . S
C1045 H1033 0.950 . S
C1045 C1041 1.393 . S
C1045 C1044 1.391 . S
C1046 H1036 0.950 . S
C1046 C1047 1.386 . S
C1046 C1048 1.391 1_565 S
C1047 C1046 1.386 . S
C1047 C1051 1.393 . S
C1048 H1037 0.950 . S
C1048 C1046 1.391 1_545 S
C1048 C1049 1.400 . S
C1049 C1043 1.491 . S
C1049 C1048 1.400 . S
C1049 C1050 1.398 1_545 S
C1050 H1038 0.950 1_565 S
C1050 C1049 1.398 1_565 S
C1050 C1051 1.391 . S
C1051 H1039 0.950 . S
C1051 C1047 1.393 . S
C1051 C1050 1.391 . S
H1052 C1060 0.950 . S
H1053 C1065 0.950 . S
H1054 C1062 0.950 . S
H1055 C1064 0.950 . S
H1056 C1066 0.950 . S
H1057 C1068 0.950 1_565 S
H1058 C1070 0.950 . S
H1059 C1071 0.950 . S
C1060 H1052 0.950 . S
C1060 C1061 1.386 . S
C1060 C1062 1.391 . S
C1061 C1060 1.386 . S
C1061 C1065 1.393 . S
C1062 H1054 0.950 . S
C1062 C1060 1.391 . S
C1062 C1063 1.400 . S
C1063 C1062 1.400 . S
C1063 C1064 1.398 . S
C1063 C1069 1.491 . S
C1064 H1055 0.950 . S
C1064 C1063 1.398 . S
C1064 C1065 1.391 . S
C1065 H1053 0.950 . S
C1065 C1061 1.393 . S
C1065 C1064 1.391 . S
C1066 H1056 0.950 . S
C1066 C1067 1.386 . S
C1066 C1068 1.391 . S
C1067 C1066 1.386 . S
C1067 C1071 1.393 . S
C1068 H1057 0.950 1_545 S
C1068 C1066 1.391 . S
C1068 C1069 1.400 1_545 S
C1069 C1063 1.491 . S
C1069 C1068 1.400 1_565 S
C1069 C1070 1.398 . S
C1070 H1058 0.950 . S
C1070 C1069 1.398 . S
C1070 C1071 1.391 1_565 S
C1071 H1059 0.950 . S
C1071 C1067 1.393 . S
C1071 C1070 1.391 1_545 S
H1072 C1080 0.950 . S
H1073 C1085 0.950 . S
H1074 C1082 0.950 . S
H1075 C1084 0.950 . S
H1076 C1086 0.950 . S
H1077 C1088 0.950 1_545 S
H1078 C1090 0.950 . S
H1079 C1091 0.950 . S
C1080 H1072 0.950 . S
C1080 C1081 1.386 . S
C1080 C1082 1.391 . S
C1081 C1080 1.386 . S
C1081 C1085 1.393 . S
C1082 H1074 0.950 . S
C1082 C1080 1.391 . S
C1082 C1083 1.400 . S
C1083 C1082 1.400 . S
C1083 C1084 1.398 . S
C1083 C1089 1.491 . S
C1084 H1075 0.950 . S
C1084 C1083 1.398 . S
C1084 C1085 1.391 . S
C1085 H1073 0.950 . S
C1085 C1081 1.393 . S
C1085 C1084 1.391 . S
C1086 H1076 0.950 . S
C1086 C1087 1.386 . S
C1086 C1088 1.391 . S
C1087 C1086 1.386 . S
C1087 C1091 1.393 . S
C1088 H1077 0.950 1_565 S
C1088 C1086 1.391 . S
C1088 C1089 1.400 1_565 S
C1089 C1083 1.491 . S
C1089 C1088 1.400 1_545 S
C1089 C1090 1.398 . S
C1090 H1078 0.950 . S
C1090 C1089 1.398 . S
C1090 C1091 1.391 1_545 S
C1091 H1079 0.950 . S
C1091 C1087 1.393 . S
C1091 C1090 1.391 1_565 S
H1092 C1100 0.950 . S
H1093 C1105 0.950 . S
H1094 C1102 0.950 1_565 S
H1095 C1104 0.950 . S
H1096 C1106 0.950 . S
H1097 C1108 0.950 . S
H1098 C1110 0.950 . S
H1099 C1111 0.950 . S
C1100 H1092 0.950 . S
C1100 C1101 1.386 . S
C1100 C1102 1.391 . S
C1101 C1100 1.386 . S
C1101 C1105 1.393 . S
C1102 H1094 0.950 1_545 S
C1102 C1100 1.391 . S
C1102 C1103 1.400 1_545 S
C1103 C1102 1.400 1_565 S
C1103 C1104 1.398 . S
C1103 C1109 1.491 . S
C1104 H1095 0.950 . S
C1104 C1103 1.398 . S
C1104 C1105 1.391 1_565 S
C1105 H1093 0.950 . S
C1105 C1101 1.393 . S
C1105 C1104 1.391 1_545 S
C1106 H1096 0.950 . S
C1106 C1107 1.386 . S
C1106 C1108 1.391 . S
C1107 C1106 1.386 . S
C1107 C1111 1.393 . S
C1108 H1097 0.950 . S
C1108 C1106 1.391 . S
C1108 C1109 1.400 . S
C1109 C1103 1.491 . S
C1109 C1108 1.400 . S
C1109 C1110 1.398 . S
C1110 H1098 0.950 . S
C1110 C1109 1.398 . S
C1110 C1111 1.391 . S
C1111 H1099 0.950 . S
C1111 C1107 1.393 . S
C1111 C1110 1.391 . S
H1112 C1120 0.950 . S
H1113 C1125 0.950 . S
H1114 C1122 0.950 . S
H1115 C1124 0.950 . S
H1116 C1126 0.950 . S
H1117 C1128 0.950 . S
H1118 C1130 0.950 . S
H1119 C1131 0.950 . S
C1120 H1112 0.950 . S
C1120 C1121 1.386 . S
C1120 C1122 1.391 1_545 S
C1121 C1120 1.386 . S
C1121 C1125 1.393 . S
C1122 H1114 0.950 . S
C1122 C1120 1.391 1_565 S
C1122 C1123 1.400 . S
C1123 C1122 1.400 . S
C1123 C1124 1.398 . S
C1123 C1129 1.491 . S
C1124 H1115 0.950 . S
C1124 C1123 1.398 . S
C1124 C1125 1.391 1_565 S
C1125 H1113 0.950 . S
C1125 C1121 1.393 . S
C1125 C1124 1.391 1_545 S
C1126 H1116 0.950 . S
C1126 C1127 1.386 . S
C1126 C1128 1.391 . S
C1127 C1126 1.386 . S
C1127 C1131 1.393 . S
C1128 H1117 0.950 . S
C1128 C1126 1.391 . S
C1128 C1129 1.400 . S
C1129 C1123 1.491 . S
C1129 C1128 1.400 . S
C1129 C1130 1.398 . S
C1130 H1118 0.950 . S
C1130 C1129 1.398 . S
C1130 C1131 1.391 . S
C1131 H1119 0.950 . S
C1131 C1127 1.393 . S
C1131 C1130 1.391 . S
H1132 C1140 0.950 . S
H1133 C1145 0.950 . S
H1134 C1142 0.950 . S
H1135 C1144 0.950 . S
H1136 C1146 0.950 . S
H1137 C1148 0.950 . S
H1138 C1150 0.950 1_545 S
H1139 C1151 0.950 . S
C1140 H1132 0.950 . S
C1140 C1141 1.386 . S
C1140 C1142 1.391 . S
C1141 C1140 1.386 . S
C1141 C1145 1.393 . S
C1142 H1134 0.950 . S
C1142 C1140 1.391 . S
C1142 C1143 1.400 . S
C1143 C1142 1.400 . S
C1143 C1144 1.398 . S
C1143 C1149 1.491 . S
C1144 H1135 0.950 . S
C1144 C1143 1.398 . S
C1144 C1145 1.391 . S
C1145 H1133 0.950 . S
C1145 C1141 1.393 . S
C1145 C1144 1.391 . S
C1146 H1136 0.950 . S
C1146 C1147 1.386 . S
C1146 C1148 1.391 1_565 S
C1147 C1146 1.386 . S
C1147 C1151 1.393 . S
C1148 H1137 0.950 . S
C1148 C1146 1.391 1_545 S
C1148 C1149 1.400 . S
C1149 C1143 1.491 . S
C1149 C1148 1.400 . S
C1149 C1150 1.398 1_545 S
C1150 H1138 0.950 1_565 S
C1150 C1149 1.398 1_565 S
C1150 C1151 1.391 . S
C1151 H1139 0.950 . S
C1151 C1147 1.393 . S
C1151 C1150 1.391 . S
H1152 C1160 0.950 . S
H1153 C1165 0.950 . S
H1154 C1162 0.950 . S
H1155 C1164 0.950 . S
H1156 C1166 0.950 . S
H1157 C1168 0.950 . S
H1158 C1170 0.950 . S
H1159 C1171 0.950 . S
C1160 H1152 0.950 . S
C1160 C1161 1.386 . S
C1160 C1162 1.391 . S
C1161 C1160 1.386 . S
C1161 C1165 1.393 . S
C1162 H1154 0.950 . S
C1162 C1160 1.391 . S
C1162 C1163 1.400 . S
C1163 C1162 1.400 . S
C1163 C1164 1.398 . S
C1163 C1169 1.491 . S
C1164 H1155 0.950 . S
C1164 C1163 1.398 . S
C1164 C1165 1.391 . S
C1165 H1153 0.950 . S
C1165 C1161 1.393 . S
C1165 C1164 1.391 . S
C1166 H1156 0.950 . S
C1166 C1167 1.386 . S
C1166 C1168 1.391 . S
C1167 C1166 1.386 . S
C1167 C1171 1.393 . S
C1168 H1157 0.950 . S
C1168 C1166 1.391 . S
C1168 C1169 1.400 . S
C1169 C1163 1.491 . S
C1169 C1168 1.400 . S
C1169 C1170 1.398 . S
C1170 H1158 0.950 . S
C1170 C1169 1.398 . S
C1170 C1171 1.391 . S
C1171 H1159 0.950 . S
C1171 C1167 1.393 . S
C1171 C1170 1.391 . S
H1172 C1180 0.950 . S
H1173 C1185 0.950 . S
H1174 C1182 0.950 . S
H1175 C1184 0.950 . S
H1176 C1186 0.950 . S
H1177 C1188 0.950 . S
H1178 C1190 0.950 . S
H1179 C1191 0.950 . S
C1180 H1172 0.950 . S
C1180 C1181 1.386 . S
C1180 C1182 1.391 . S
C1181 C1180 1.386 . S
C1181 C1185 1.393 . S
C1182 H1174 0.950 . S
C1182 C1180 1.391 . S
C1182 C1183 1.400 . S
C1183 C1182 1.400 . S
C1183 C1184 1.398 . S
C1183 C1189 1.491 . S
C1184 H1175 0.950 . S
C1184 C1183 1.398 . S
C1184 C1185 1.391 . S
C1185 H1173 0.950 . S
C1185 C1181 1.393 . S
C1185 C1184 1.391 . S
C1186 H1176 0.950 . S
C1186 C1187 1.386 . S
C1186 C1188 1.391 . S
C1187 C1186 1.386 . S
C1187 C1191 1.393 . S
C1188 H1177 0.950 . S
C1188 C1186 1.391 . S
C1188 C1189 1.400 . S
C1189 C1183 1.491 . S
C1189 C1188 1.400 . S
C1189 C1190 1.398 . S
C1190 H1178 0.950 . S
C1190 C1189 1.398 . S
C1190 C1191 1.391 . S
C1191 H1179 0.950 . S
C1191 C1187 1.393 . S
C1191 C1190 1.391 . S
H1192 C1200 0.950 . S
H1193 C1205 0.950 . S
H1194 C1202 0.950 . S
H1195 C1204 0.950 . S
H1196 C1206 0.950 . S
H1197 C1208 0.950 . S
H1198 C1210 0.950 . S
H1199 C1211 0.950 . S
C1200 H1192 0.950 . S
C1200 C1201 1.386 . S
C1200 C1202 1.391 . S
C1201 C1200 1.386 . S
C1201 C1205 1.393 . S
C1202 H1194 0.950 . S
C1202 C1200 1.391 . S
C1202 C1203 1.400 . S
C1203 C1202 1.400 . S
C1203 C1204 1.398 . S
C1203 C1209 1.491 . S
C1204 H1195 0.950 . S
C1204 C1203 1.398 . S
C1204 C1205 1.391 . S
C1205 H1193 0.950 . S
C1205 C1201 1.393 . S
C1205 C1204 1.391 . S
C1206 H1196 0.950 . S
C1206 C1207 1.386 . S
C1206 C1208 1.391 . S
C1207 C1206 1.386 . S
C1207 C1211 1.393 . S
C1208 H1197 0.950 . S
C1208 C1206 1.391 . S
C1208 C1209 1.400 . S
C1209 C1203 1.491 . S
C1209 C1208 1.400 . S
C1209 C1210 1.398 . S
C1210 H1198 0.950 . S
C1210 C1209 1.398 . S
C1210 C1211 1.391 . S
C1211 H1199 0.950 . S
C1211 C1207 1.393 . S
C1211 C1210 1.391 . S
H1212 C1220 0.950 . S
H1213 C1225 0.950 . S
H1214 C1222 0.950 . S
H1215 C1224 0.950 . S
H1216 C1226 0.950 . S
H1217 C1228 0.950 . S
H1218 C1230 0.950 . S
H1219 C1231 0.950 . S
C1220 H1212 0.950 . S
C1220 C1221 1.386 . S
C1220 C1222 1.391 . S
C1221 C1220 1.386 . S
C1221 C1225 1.393 . S
C1222 H1214 0.950 . S
C1222 C1220 1.391 . S
C1222 C1223 1.400 . S
C1223 C1222 1.400 . S
C1223 C1224 1.398 . S
C1223 C1229 1.491 . S
C1224 H1215 0.950 . S
C1224 C1223 1.398 . S
C1224 C1225 1.391 . S
C1225 H1213 0.950 . S
C1225 C1221 1.393 . S
C1225 C1224 1.391 . S
C1226 H1216 0.950 . S
C1226 C1227 1.386 . S
C1226 C1228 1.391 . S
C1227 C1226 1.386 . S
C1227 C1231 1.393 . S
C1228 H1217 0.950 . S
C1228 C1226 1.391 . S
C1228 C1229 1.400 . S
C1229 C1223 1.491 . S
C1229 C1228 1.400 . S
C1229 C1230 1.398 . S
C1230 H1218 0.950 . S
C1230 C1229 1.398 . S
C1230 C1231 1.391 . S
C1231 H1219 0.950 . S
C1231 C1227 1.393 . S
C1231 C1230 1.391 . S
H1232 C1240 0.950 . S
H1233 C1245 0.950 . S
H1234 C1242 0.950 . S
H1235 C1244 0.950 . S
H1236 C1246 0.950 . S
H1237 C1248 0.950 . S
H1238 C1250 0.950 . S
H1239 C1251 0.950 . S
C1240 H1232 0.950 . S
C1240 C1241 1.386 . S
C1240 C1242 1.391 . S
C1241 C1240 1.386 . S
C1241 C1245 1.393 . S
C1242 H1234 0.950 . S
C1242 C1240 1.391 . S
C1242 C1243 1.400 . S
C1243 C1242 1.400 . S
C1243 C1244 1.398 . S
C1243 C1249 1.491 . S
C1244 H1235 0.950 . S
C1244 C1243 1.398 . S
C1244 C1245 1.391 . S
C1245 H1233 0.950 . S
C1245 C1241 1.393 . S
C1245 C1244 1.391 . S
C1246 H1236 0.950 . S
C1246 C1247 1.386 . S
C1246 C1248 1.391 . S
C1247 C1246 1.386 . S
C1247 C1251 1.393 . S
C1248 H1237 0.950 . S
C1248 C1246 1.391 . S
C1248 C1249 1.400 . S
C1249 C1243 1.491 . S
C1249 C1248 1.400 . S
C1249 C1250 1.398 . S
C1250 H1238 0.950 . S
C1250 C1249 1.398 . S
C1250 C1251 1.391 . S
C1251 H1239 0.950 . S
C1251 C1247 1.393 . S
C1251 C1250 1.391 . S
H1252 C1260 0.950 . S
H1253 C1265 0.950 . S
H1254 C1262 0.950 . S
H1255 C1264 0.950 . S
H1256 C1266 0.950 . S
H1257 C1268 0.950 . S
H1258 C1270 0.950 . S
H1259 C1271 0.950 . S
C1260 H1252 0.950 . S
C1260 C1261 1.386 . S
C1260 C1262 1.391 . S
C1261 C1260 1.386 . S
C1261 C1265 1.393 . S
C1262 H1254 0.950 . S
C1262 C1260 1.391 . S
C1262 C1263 1.400 . S
C1263 C1262 1.400 . S
C1263 C1264 1.398 . S
C1263 C1269 1.491 . S
C1264 H1255 0.950 . S
C1264 C1263 1.398 . S
C1264 C1265 1.391 . S
C1265 H1253 0.950 . S
C1265 C1261 1.393 . S
C1265 C1264 1.391 . S
C1266 H1256 0.950 . S
C1266 C1267 1.386 . S
C1266 C1268 1.391 . S
C1267 C1266 1.386 . S
C1267 C1271 1.393 . S
C1268 H1257 0.950 . S
C1268 C1266 1.391 . S
C1268 C1269 1.400 . S
C1269 C1263 1.491 . S
C1269 C1268 1.400 . S
C1269 C1270 1.398 . S
C1270 H1258 0.950 . S
C1270 C1269 1.398 . S
C1270 C1271 1.391 . S
C1271 H1259 0.950 . S
C1271 C1267 1.393 . S
C1271 C1270 1.391 . S
H1272 C1280 0.950 . S
H1273 C1285 0.950 . S
H1274 C1282 0.950 . S
H1275 C1284 0.950 . S
H1276 C1286 0.950 . S
H1277 C1288 0.950 . S
H1278 C1290 0.950 . S
H1279 C1291 0.950 . S
C1280 H1272 0.950 . S
C1280 C1281 1.386 . S
C1280 C1282 1.391 . S
C1281 C1280 1.386 . S
C1281 C1285 1.393 . S
C1282 H1274 0.950 . S
C1282 C1280 1.391 . S
C1282 C1283 1.400 . S
C1283 C1282 1.400 . S
C1283 C1284 1.398 . S
C1283 C1289 1.491 . S
C1284 H1275 0.950 . S
C1284 C1283 1.398 . S
C1284 C1285 1.391 . S
C1285 H1273 0.950 . S
C1285 C1281 1.393 . S
C1285 C1284 1.391 . S
C1286 H1276 0.950 . S
C1286 C1287 1.386 . S
C1286 C1288 1.391 . S
C1287 C1286 1.386 . S
C1287 C1291 1.393 . S
C1288 H1277 0.950 . S
C1288 C1286 1.391 . S
C1288 C1289 1.400 . S
C1289 C1283 1.491 . S
C1289 C1288 1.400 . S
C1289 C1290 1.398 . S
C1290 H1278 0.950 . S
C1290 C1289 1.398 . S
C1290 C1291 1.391 . S
C1291 H1279 0.950 . S
C1291 C1287 1.393 . S
C1291 C1290 1.391 . S
H1292 C1300 0.950 . S
H1293 C1305 0.950 . S
H1294 C1302 0.950 . S
H1295 C1304 0.950 . S
H1296 C1306 0.950 . S
H1297 C1308 0.950 . S
H1298 C1310 0.950 . S
H1299 C1311 0.950 . S
C1300 H1292 0.950 . S
C1300 C1301 1.386 . S
C1300 C1302 1.391 . S
C1301 C1300 1.386 . S
C1301 C1305 1.393 . S
C1302 H1294 0.950 . S
C1302 C1300 1.391 . S
C1302 C1303 1.400 . S
C1303 C1302 1.400 . S
C1303 C1304 1.398 . S
C1303 C1309 1.491 . S
C1304 H1295 0.950 . S
C1304 C1303 1.398 . S
C1304 C1305 1.391 . S
C1305 H1293 0.950 . S
C1305 C1301 1.393 . S
C1305 C1304 1.391 . S
C1306 H1296 0.950 . S
C1306 C1307 1.386 . S
C1306 C1308 1.391 . S
C1307 C1306 1.386 . S
C1307 C1311 1.393 . S
C1308 H1297 0.950 . S
C1308 C1306 1.391 . S
C1308 C1309 1.400 . S
C1309 C1303 1.491 . S
C1309 C1308 1.400 . S
C1309 C1310 1.398 . S
C1310 H1298 0.950 . S
C1310 C1309 1.398 . S
C1310 C1311 1.391 . S
C1311 H1299 0.950 . S
C1311 C1307 1.393 . S
C1311 C1310 1.391 . S
C361 C5 0.789 . S
C367 C270 0.789 . S
C381 C293 0.754 . S
C387 C27 0.754 . S
C401 C314 0.810 . S
C407 C49 0.810 . S
C421 C336 0.810 . S
C427 C75 0.810 . S
C441 C94 0.797 . S
C447 C181 0.797 . S
C461 C203 0.764 . S
C467 C117 0.764 . S
C481 C138 0.800 . S
C487 C225 0.800 . S
C501 C251 0.755 . S
C507 C160 0.755 . S
C521 C48 1.849 . S
C527 C4 1.850 . S
C541 C26 1.848 . S
C547 C74 1.852 . S
C561 C92 1.850 . S
C567 C136 1.849 . S
C581 C158 1.848 . S
C587 C118 1.852 . S
C601 C180 1.852 . S
C607 C224 1.848 . S
C621 C250 1.848 . S
C627 C202 1.851 . S
C641 C312 1.852 . S
C647 C268 1.848 . S
C661 C334 1.850 . S
C667 C294 1.851 . S
C681 C9 1.786 . S
C687 C71 1.788 . S
C701 C53 1.781 . S
C707 C31 1.770 . S
C721 C161 1.788 . S
C727 C95 1.784 . S
C741 C139 1.773 . S
C747 C116 1.783 . S
C761 C247 1.772 . S
C767 C185 1.782 . S
C781 C229 1.761 . S
C787 C207 1.767 . S
C801 C271 1.764 . S
C807 C337 1.774 . S
C821 C315 1.781 . S
C827 C292 1.771 . S
C841 C8 1.433 . S
C847 C140 1.463 . S
C861 C30 1.462 . S
C867 C162 1.433 . S
C881 C96 1.439 . S
C887 C52 1.456 . S
C901 C114 1.461 . S
C907 C70 1.434 . S
C921 C184 1.433 . S
C927 C316 1.463 . S
C941 C206 1.440 . S
C947 C338 1.455 . S
C961 C272 1.440 . S
C967 C228 1.456 . S
C981 C290 1.463 . S
C987 C246 1.433 . S
C1001 C6 1.284 . S
C1007 C317 1.245 . S
C1021 C28 1.281 . S
C1027 C339 1.214 . S
C1041 C273 1.233 . S
C1047 C50 1.288 . S
C1061 C291 1.223 . S
C1067 C73 1.266 . S
C1081 C227 1.248 . S
C1087 C93 1.281 . S
C1101 C119 1.269 . S
C1107 C248 1.216 . S
C1121 C137 1.266 . S
C1127 C183 1.236 . S
C1141 C205 1.220 . S
C1147 C159 1.267 . S
C1161 C141 1.215 . S
C1167 C182 1.270 . S
C1181 C204 1.269 . S
C1187 C163 1.216 . S
C1201 C97 1.231 . S
C1207 C226 1.265 . S
C1221 C249 1.268 . S
C1227 C115 1.241 . S
C1241 C51 1.213 . S
C1247 C269 1.274 . S
C1261 C295 1.275 . S
C1267 C72 1.249 . S
C1281 C313 1.270 . S
C1287 C7 1.216 . S
C1301 C29 1.219 . S
C1307 C335 1.285 . S
