# Generated by pormake.
# Topology lhb, (8)-cn, num edge types: 1
# Building blocks:
#     Node 0, Type 0, BuildingBlock: EBIMEJ_clean_sbu_0, # of connection points: 8
#     Node 1, Type 0, BuildingBlock: EBIMEJ_clean_sbu_0, # of connection points: 8
#     Node 2, Type 0, BuildingBlock: EBIMEJ_clean_sbu_0, # of connection points: 8
#     Node 3, Type 0, BuildingBlock: EBIMEJ_clean_sbu_0, # of connection points: 8
#     Node 4, Type 0, BuildingBlock: EBIMEJ_clean_sbu_0, # of connection points: 8
#     Node 5, Type 0, BuildingBlock: EBIMEJ_clean_sbu_0, # of connection points: 8
#     Node 6, Type 0, BuildingBlock: EBIMEJ_clean_sbu_0, # of connection points: 8
#     Node 7, Type 0, BuildingBlock: EBIMEJ_clean_sbu_0, # of connection points: 8
#     Edge 8, Type (0, 0), BuildingBlock: MIFKUJ_clean_linker_0, # of connection points: 2
#     Edge 9, Type (0, 0), BuildingBlock: MIFKUJ_clean_linker_0, # of connection points: 2
#     Edge 10, Type (0, 0), BuildingBlock: MIFKUJ_clean_linker_0, # of connection points: 2
#     Edge 11, Type (0, 0), BuildingBlock: MIFKUJ_clean_linker_0, # of connection points: 2
#     Edge 12, Type (0, 0), BuildingBlock: MIFKUJ_clean_linker_0, # of connection points: 2
#     Edge 13, Type (0, 0), BuildingBlock: MIFKUJ_clean_linker_0, # of connection points: 2
#     Edge 14, Type (0, 0), BuildingBlock: MIFKUJ_clean_linker_0, # of connection points: 2
#     Edge 15, Type (0, 0), BuildingBlock: MIFKUJ_clean_linker_0, # of connection points: 2
#     Edge 16, Type (0, 0), BuildingBlock: MIFKUJ_clean_linker_0, # of connection points: 2
#     Edge 17, Type (0, 0), BuildingBlock: MIFKUJ_clean_linker_0, # of connection points: 2
#     Edge 18, Type (0, 0), BuildingBlock: MIFKUJ_clean_linker_0, # of connection points: 2
#     Edge 19, Type (0, 0), BuildingBlock: MIFKUJ_clean_linker_0, # of connection points: 2
#     Edge 20, Type (0, 0), BuildingBlock: MIFKUJ_clean_linker_0, # of connection points: 2
#     Edge 21, Type (0, 0), BuildingBlock: MIFKUJ_clean_linker_0, # of connection points: 2
#     Edge 22, Type (0, 0), BuildingBlock: MIFKUJ_clean_linker_0, # of connection points: 2
#     Edge 23, Type (0, 0), BuildingBlock: MIFKUJ_clean_linker_0, # of connection points: 2
#     Edge 24, Type (0, 0), BuildingBlock: MIFKUJ_clean_linker_0, # of connection points: 2
#     Edge 25, Type (0, 0), BuildingBlock: MIFKUJ_clean_linker_0, # of connection points: 2
#     Edge 26, Type (0, 0), BuildingBlock: MIFKUJ_clean_linker_0, # of connection points: 2
#     Edge 27, Type (0, 0), BuildingBlock: MIFKUJ_clean_linker_0, # of connection points: 2
#     Edge 28, Type (0, 0), BuildingBlock: MIFKUJ_clean_linker_0, # of connection points: 2
#     Edge 29, Type (0, 0), BuildingBlock: MIFKUJ_clean_linker_0, # of connection points: 2
#     Edge 30, Type (0, 0), BuildingBlock: MIFKUJ_clean_linker_0, # of connection points: 2
#     Edge 31, Type (0, 0), BuildingBlock: MIFKUJ_clean_linker_0, # of connection points: 2
#     Edge 32, Type (0, 0), BuildingBlock: MIFKUJ_clean_linker_0, # of connection points: 2
#     Edge 33, Type (0, 0), BuildingBlock: MIFKUJ_clean_linker_0, # of connection points: 2
#     Edge 34, Type (0, 0), BuildingBlock: MIFKUJ_clean_linker_0, # of connection points: 2
#     Edge 35, Type (0, 0), BuildingBlock: MIFKUJ_clean_linker_0, # of connection points: 2
#     Edge 36, Type (0, 0), BuildingBlock: MIFKUJ_clean_linker_0, # of connection points: 2
#     Edge 37, Type (0, 0), BuildingBlock: MIFKUJ_clean_linker_0, # of connection points: 2
#     Edge 38, Type (0, 0), BuildingBlock: MIFKUJ_clean_linker_0, # of connection points: 2
#     Edge 39, Type (0, 0), BuildingBlock: MIFKUJ_clean_linker_0, # of connection points: 2
# Relax obj value: 0.076
# Max RMSD: 0.177
# Mean RMSD: 0.177
data_MOF--net-lhb--node1-EBIMEJ_clean_sbu_0--edge1-MIFKUJ_clean_linker_0
_symmetry_space_group_name_H-M    P1
_symmetry_Int_Tables_number       1
_symmetry_cell_setting            triclinic
loop_
_symmetry_equiv_pos_as_xyz
'x, y, z'
_cell_length_a     39.1435
_cell_length_b     19.867817
_cell_length_c     83.149571
_cell_angle_alpha  81.482162
_cell_angle_beta   89.964013
_cell_angle_gamma 90.025275
loop_
_atom_site_label
_atom_site_type_symbol
_atom_site_fract_x
_atom_site_fract_y
_atom_site_fract_z
_atom_type_partial_charge
Co0 Co 1.00005 0.93816 0.99541 0.0
Co1 Co 0.06483 -0.0091 1.0161 0.0
Co2 Co 0.99867 0.94745 0.03325 0.0
H3 H 1.00503 0.95881 1.01439 0.0
O4 O 0.01555 -0.00395 1.01101 0.0
H5 H 0.05624 -0.00922 0.03502 0.0
O6 O 0.04744 0.95213 0.03895 0.0
Co7 Co 0.05578 0.02352 0.05294 0.0
O8 O 0.10377 0.0496 0.04448 0.0
O9 O 0.11372 -0.00359 0.02286 0.0
O10 O 0.01825 -0.01693 0.06905 0.0
O11 O 0.98615 0.91357 0.05611 0.0
O12 O 0.95909 0.93033 0.98012 0.0
O13 O 0.99469 0.0071 0.97429 0.0
O14 O 0.02711 0.08918 0.03785 0.0
O15 O 0.06031 0.09069 1.01615 0.0
C16 C 0.93719 0.90781 1.01592 0.0
C17 C 0.07162 0.96376 0.98229 0.0
C18 C 0.07898 0.05899 0.07879 0.0
C19 C 0.02186 0.82439 1.01917 0.0
C20 C 0.12383 0.03226 0.0336 0.0
C21 C 0.99467 0.93818 0.06888 0.0
C22 C 0.96779 -0.0195 0.96996 0.0
C23 C 0.03799 0.11849 0.02418 0.0
O24 O 0.95482 0.89769 1.0036 0.0
O25 O 0.94941 0.93861 0.02713 0.0
O26 O 0.07927 0.00562 0.99224 0.0
O27 O 0.04469 0.92707 0.984 0.0
O28 O 0.05257 0.02381 0.07795 0.0
O29 O 0.09222 0.07404 0.06497 0.0
O30 O 0.02701 0.85688 1.00506 0.0
O31 O 0.00687 0.85094 0.0303 0.0
Co32 Co 0.22609 0.2724 0.30224 0.0
Co33 Co 0.28703 0.20615 0.2823 0.0
Co34 Co 0.21948 0.23972 0.26531 0.0
H35 H 0.22771 0.24038 0.2842 0.0
O36 O 0.23808 0.20348 0.28814 0.0
H37 H 0.27992 0.21354 0.26352 0.0
O38 O 0.26851 0.24951 0.25993 0.0
Co39 Co 0.28503 0.18934 0.24494 0.0
O40 O 0.33051 0.15172 0.25369 0.0
O41 O 0.33622 0.20285 0.27576 0.0
O42 O 0.2441 0.19481 0.2301 0.0
O43 O 0.20461 0.25571 0.24155 0.0
O44 O 0.19672 0.33806 0.31401 0.0
O45 O 0.22406 0.26064 0.32745 0.0
O46 O 0.25847 0.10921 0.25608 0.0
O47 O 0.2821 0.10773 0.28045 0.0
C48 C 0.15831 0.26951 0.28338 0.0
C49 C 0.28813 0.19079 0.31844 0.0
C50 C 0.31619 0.22477 0.21886 0.0
C51 C 0.24089 0.37113 0.27375 0.0
C52 C 0.34849 0.16809 0.26531 0.0
C53 C 0.21597 0.2274 0.22959 0.0
C54 C 0.20427 0.30982 0.3281 0.0
C55 C 0.26527 0.07912 0.27026 0.0
O56 O 0.17694 0.28894 0.2945 0.0
O57 O 0.17054 0.23852 0.27216 0.0
O58 O 0.30126 0.1777 0.30517 0.0
O59 O 0.26048 0.22511 0.31897 0.0
O60 O 0.29169 0.18357 0.22056 0.0
O61 O 0.32327 0.24552 0.23201 0.0
O62 O 0.25245 0.34359 0.28743 0.0
O63 O 0.22041 0.33978 0.26557 0.0
Co64 Co 0.72721 0.77137 0.30247 0.0
Co65 Co 0.78517 0.69481 0.28234 0.0
Co66 Co 0.71885 0.73842 0.26555 0.0
H67 H 0.72761 0.73939 0.28441 0.0
O68 O 0.73663 0.70107 0.28838 0.0
H69 H 0.77791 0.70378 0.26356 0.0
O70 O 0.76787 0.74146 0.26005 0.0
Co71 Co 0.7812 0.67918 0.24494 0.0
O72 O 0.82677 0.63852 0.25275 0.0
O73 O 0.83386 0.68301 0.27573 0.0
O74 O 0.73595 0.66873 0.2339 0.0
O75 O 0.70401 0.75205 0.24181 0.0
O76 O 0.73491 0.82329 0.32216 0.0
O77 O 0.69111 0.76636 0.32103 0.0
O78 O 0.75025 0.60654 0.25602 0.0
O79 O 0.77471 0.59757 0.28036 0.0
C80 C 0.6602 0.78213 0.28293 0.0
C81 C 0.78694 0.68106 0.31834 0.0
C82 C 0.81151 0.71533 0.21861 0.0
C83 C 0.74204 0.87133 0.27378 0.0
C84 C 0.8452 0.65025 0.26469 0.0
C85 C 0.71024 0.70866 0.23206 0.0
C86 C 0.70734 0.80428 0.32915 0.0
C87 C 0.75535 0.57421 0.27014 0.0
O88 O 0.68009 0.80176 0.29355 0.0
O89 O 0.67025 0.74463 0.27254 0.0
O90 O 0.79889 0.66457 0.30517 0.0
O91 O 0.76093 0.71983 0.31895 0.0
O92 O 0.81201 0.65601 0.22631 0.0
O93 O 0.79419 0.75432 0.22596 0.0
O94 O 0.75249 0.84457 0.28775 0.0
O95 O 0.72321 0.83874 0.26508 0.0
Co96 Co 1.00258 0.44067 0.49398 0.0
Co97 Co 0.06716 0.49003 0.51505 0.0
Co98 Co 1.00006 0.45066 0.53183 0.0
H99 H 0.00721 0.46131 0.51297 0.0
O100 O 0.01816 0.49825 0.50974 0.0
H101 H 0.05915 0.4867 0.53407 0.0
O102 O 0.04903 0.44909 0.53765 0.0
Co103 Co 0.0609 0.51498 0.55256 0.0
O104 O 0.11037 0.53317 0.54507 0.0
O105 O 0.11595 0.48945 0.52171 0.0
O106 O 0.02771 0.46208 0.56899 0.0
O107 O 0.98612 0.41916 0.55469 0.0
O108 O 0.96301 0.42604 0.47845 0.0
O109 O 0.99467 0.51007 0.4732 0.0
O110 O 0.03186 0.58346 0.5385 0.0
O111 O 0.06458 0.58925 0.51656 0.0
C112 C 0.93979 0.40991 0.51454 0.0
C113 C 0.07216 0.48106 0.47941 0.0
C114 C 0.08023 0.5553 0.57846 0.0
C115 C 0.02132 0.32502 0.51826 0.0
C116 C 0.12851 0.51729 0.53334 0.0
C117 C 0.99982 0.4289 0.56812 0.0
C118 C 0.96949 0.47872 0.46861 0.0
C119 C 0.04281 0.61562 0.52516 0.0
O120 O 0.95851 0.39716 0.5028 0.0
O121 O 0.95079 0.44518 0.52519 0.0
O122 O 0.08207 0.51059 0.49141 0.0
O123 O 0.04442 0.4472 0.47956 0.0
O124 O 0.05073 0.56343 0.57257 0.0
O125 O 0.0988 0.52428 0.56964 0.0
O126 O 0.02714 0.35661 0.5041 0.0
O127 O 0.00661 0.35333 0.52919 0.0
Co128 Co 0.22114 0.76315 0.80382 0.0
Co129 Co 0.28441 0.70099 0.7833 0.0
Co130 Co 0.21709 0.73619 0.7659 0.0
H131 H 0.22459 0.73632 0.78508 0.0
O132 O 0.23518 0.69928 0.78877 0.0
H133 H 0.27869 0.71594 0.76438 0.0
O134 O 0.26643 0.75137 0.76134 0.0
Co135 Co 0.28674 0.70175 0.74506 0.0
O136 O 0.33069 0.65824 0.75342 0.0
O137 O 0.33458 0.69548 0.77738 0.0
O138 O 0.24494 0.69271 0.73143 0.0
O139 O 0.20284 0.74964 0.74193 0.0
O140 O 0.22388 0.83124 0.82051 0.0
O141 O 0.19605 0.74234 0.82602 0.0
O142 O 0.27561 0.60535 0.75288 0.0
O143 O 0.27744 0.60422 0.77983 0.0
C144 C 0.15437 0.7578 0.78392 0.0
C145 C 0.28494 0.68192 0.8192 0.0
C146 C 0.31587 0.75116 0.71944 0.0
C147 C 0.21583 0.87682 0.77622 0.0
C148 C 0.3473 0.66473 0.76623 0.0
C149 C 0.21526 0.71944 0.73049 0.0
C150 C 0.20492 0.79683 0.83084 0.0
C151 C 0.27403 0.57454 0.76733 0.0
O152 O 0.17218 0.77394 0.79567 0.0
O153 O 0.16759 0.73063 0.77226 0.0
O154 O 0.29724 0.66617 0.80602 0.0
O155 O 0.258 0.71832 0.81962 0.0
O156 O 0.29148 0.71001 0.72034 0.0
O157 O 0.32364 0.76568 0.73319 0.0
O158 O 0.21993 0.85677 0.7913 0.0
O159 O 0.21456 0.83678 0.7656 0.0
Co160 Co 0.72768 0.2644 0.80272 0.0
Co161 Co 0.7876 0.19942 0.78186 0.0
Co162 Co 0.71904 0.23476 0.76558 0.0
H163 H 0.72828 0.23423 0.78442 0.0
O164 O 0.73879 0.19719 0.78814 0.0
H165 H 0.77982 0.20915 0.76317 0.0
O166 O 0.76805 0.24491 0.75982 0.0
Co167 Co 0.78457 0.18777 0.74428 0.0
O168 O 0.82884 0.14423 0.75286 0.0
O169 O 0.83678 0.19449 0.77486 0.0
O170 O 0.74191 0.18682 0.73082 0.0
O171 O 0.70313 0.25052 0.74185 0.0
O172 O 0.70585 0.3354 0.81571 0.0
O173 O 0.71812 0.23968 0.82752 0.0
O174 O 0.75754 0.10777 0.75492 0.0
O175 O 0.78152 0.10187 0.77936 0.0
C176 C 0.65969 0.27101 0.78383 0.0
C177 C 0.78968 0.18067 0.81805 0.0
C178 C 0.81695 0.22939 0.71881 0.0
C179 C 0.7414 0.36521 0.77425 0.0
C180 C 0.84767 0.15777 0.76448 0.0
C181 C 0.7137 0.21936 0.73017 0.0
C182 C 0.70572 0.29664 0.8291 0.0
C183 C 0.76465 0.07527 0.76881 0.0
O184 O 0.67967 0.28903 0.79461 0.0
O185 O 0.67017 0.23585 0.77299 0.0
O186 O 0.80268 0.16934 0.8046 0.0
O187 O 0.76195 0.21419 0.81903 0.0
O188 O 0.82725 0.18369 0.72976 0.0
O189 O 0.78841 0.25184 0.72233 0.0
O190 O 0.7531 0.33708 0.78787 0.0
O191 O 0.72093 0.33447 0.76594 0.0
Co192 Co 0.4977 0.9417 0.49513 0.0
Co193 Co 0.56451 -0.00764 0.51497 0.0
Co194 Co 0.49821 0.95317 0.53275 0.0
H195 H 0.50398 0.96339 0.5139 0.0
O196 O 0.51499 -0.00019 0.51027 0.0
H197 H 0.55646 -0.00576 0.53388 0.0
O198 O 0.5473 0.95622 0.53802 0.0
Co199 Co 0.55681 0.02783 0.5517 0.0
O200 O 0.60504 0.04831 0.54333 0.0
O201 O 0.61376 -0.00413 0.52147 0.0
O202 O 0.52251 -0.01754 0.56857 0.0
O203 O 0.48586 0.92143 0.55574 0.0
O204 O 0.45553 0.9375 0.48039 0.0
O205 O 0.49327 0.00943 0.47381 0.0
O206 O 0.52994 0.09647 0.53646 0.0
O207 O 0.56191 0.09281 0.51452 0.0
C208 C 0.43572 0.91324 0.51619 0.0
C209 C 0.56838 0.96481 0.48077 0.0
C210 C 0.57684 0.0643 0.57801 0.0
C211 C 0.52006 0.82892 0.519 0.0
C212 C 0.62466 0.02993 0.53244 0.0
C213 C 0.49723 0.94146 0.56863 0.0
C214 C 0.46528 -0.0143 0.46991 0.0
C215 C 0.54082 0.1234 0.52258 0.0
O216 O 0.45238 0.90244 0.50365 0.0
O217 O 0.4487 0.94475 0.5271 0.0
O218 O 0.57826 0.00427 0.49094 0.0
O219 O 0.54127 0.92894 0.48309 0.0
O220 O 0.54614 0.05948 0.57395 0.0
O221 O 0.59622 0.04865 0.56711 0.0
O222 O 0.52489 0.86067 0.5048 0.0
O223 O 0.5054 0.8561 0.53011 0.0
Co224 Co 0.50396 0.44293 0.99417 0.0
Co225 Co 0.57035 0.48187 1.01601 0.0
Co226 Co 0.50299 0.4435 0.03253 0.0
H227 H 0.50964 0.45833 1.01362 0.0
O228 O 0.52134 0.49464 1.01077 0.0
H229 H 0.56184 0.47918 0.03493 0.0
O230 O 0.55177 0.44149 0.0385 0.0
Co231 Co 0.56289 0.50845 0.05324 0.0
O232 O 0.61236 0.52431 0.04587 0.0
O233 O 0.61916 0.47787 0.02298 0.0
O234 O 0.52632 0.46445 0.06916 0.0
O235 O 0.4894 0.4078 0.05527 0.0
O236 O 0.46381 0.43272 0.97868 0.0
O237 O 0.49645 0.51537 0.97385 0.0
O238 O 0.53681 0.5811 0.0389 0.0
O239 O 0.57026 0.58088 1.0174 0.0
C240 C 0.44217 0.4061 1.01499 0.0
C241 C 0.57513 0.47314 0.98036 0.0
C242 C 0.58489 0.54267 0.07935 0.0
C243 C 0.52454 0.32423 1.01679 0.0
C244 C 0.63123 0.50658 0.03462 0.0
C245 C 0.50034 0.42551 0.06855 0.0
C246 C 0.47081 0.48583 0.96911 0.0
C247 C 0.5492 0.61074 0.0256 0.0
O248 O 0.4602 0.39659 1.00275 0.0
O249 O 0.45358 0.43937 0.02594 0.0
O250 O 0.58564 0.50162 0.99242 0.0
O251 O 0.54636 0.44302 0.98024 0.0
O252 O 0.57814 0.58349 0.06672 0.0
O253 O 0.57913 0.48248 0.07715 0.0
O254 O 0.5299 0.35959 1.00305 0.0
O255 O 0.50981 0.34777 0.02846 0.0
H256 H 0.05242 0.03177 0.10962 0.0
H257 H 0.07496 0.0664 0.13467 0.0
H258 H 0.15872 0.1689 0.10778 0.0
H259 H 0.1368 0.13317 0.08271 0.0
H260 H 0.18133 0.10269 0.13572 0.0
H261 H 0.09046 0.25476 0.1201 0.0
H262 H 0.03231 0.2941 0.11229 0.0
H263 H 0.99409 0.19964 0.15859 0.0
H264 H 0.05188 0.15821 0.16655 0.0
H265 H 0.2393 0.27384 0.19936 0.0
H266 H 0.21541 0.25232 0.17346 0.0
H267 H 0.12784 0.15599 0.19871 0.0
H268 H 0.15127 0.18053 0.22467 0.0
H269 H 0.1077 0.22175 0.17104 0.0
H270 H 0.20347 0.06975 0.18566 0.0
H271 H 0.26379 0.03992 0.19203 0.0
H272 H 0.29493 0.14778 0.14584 0.0
H273 H 0.23515 0.17989 0.13933 0.0
C274 C 0.07562 0.06179 0.10901 0.0
C275 C 0.09266 0.08003 0.09409 0.0
C276 C 0.08834 0.08202 0.12337 0.0
C277 C 0.11819 0.12157 0.12321 0.0
C278 C 0.13555 0.13883 0.10833 0.0
C279 C 0.1229 0.11852 0.09395 0.0
C280 C 0.13136 0.14429 0.13855 0.0
C281 C 0.16529 0.12946 0.14333 0.0
C282 C 0.11051 0.17872 0.1487 0.0
C283 C 0.0755 0.20229 0.14382 0.0
C284 C 0.0696 0.24139 0.12853 0.0
C285 C 0.03668 0.26424 0.12409 0.0
C286 C 0.00948 0.24903 0.1349 0.0
C287 C 0.01516 0.21117 0.1502 0.0
C288 C 0.048 0.18796 0.15468 0.0
C289 C 0.21436 0.25013 0.19932 0.0
C290 C 0.19685 0.23012 0.21405 0.0
C291 C 0.20099 0.23655 0.1845 0.0
C292 C 0.17019 0.20041 0.184 0.0
C293 C 0.15175 0.18349 0.19864 0.0
C294 C 0.16492 0.1982 0.21351 0.0
C295 C 0.15756 0.1794 0.16836 0.0
C296 C 0.12369 0.19464 0.16349 0.0
C297 C 0.17872 0.14644 0.15797 0.0
C298 C 0.21477 0.12762 0.16206 0.0
C299 C 0.2232 0.08753 0.17692 0.0
C300 C 0.25727 0.0701 0.18054 0.0
C301 C 0.28306 0.0916 0.16933 0.0
C302 C 0.27491 0.13096 0.1545 0.0
C303 C 0.24096 0.14893 0.15085 0.0
H304 H 0.30937 0.07812 0.17219 0.0
H305 H 0.98402 0.26687 0.13145 0.0
H306 H 0.96718 0.01598 0.0899 0.0
H307 H 0.93359 -0.02182 0.11434 0.0
H308 H 0.94825 0.76897 0.10728 0.0
H309 H 0.97877 0.80777 0.08189 0.0
H310 H 0.89039 0.77299 0.11787 0.0
H311 H 0.99431 0.86388 0.13777 0.0
H312 H 0.03846 0.95079 0.13996 0.0
H313 H 0.96216 0.08561 0.1542 0.0
H314 H 0.91756 -0.00021 0.15197 0.0
H315 H 0.85103 0.63746 0.20143 0.0
H316 H 0.88074 0.67301 0.17565 0.0
H317 H 0.84094 0.87614 0.17409 0.0
H318 H 0.81166 0.84117 0.20006 0.0
H319 H 0.91072 0.87274 0.16827 0.0
H320 H 0.80957 0.79003 0.13538 0.0
H321 H 0.76601 0.70153 0.1333 0.0
H322 H 0.84146 0.54571 0.14582 0.0
H323 H 0.88542 0.63355 0.14767 0.0
C324 C 0.96321 0.96195 0.09364 0.0
C325 C 0.97584 0.91473 0.08413 0.0
C326 C 0.94427 0.94011 0.10775 0.0
C327 C 0.93911 0.87022 0.1132 0.0
C328 C 0.95178 0.82311 0.10356 0.0
C329 C 0.96946 0.84519 0.08907 0.0
C330 C 0.92018 0.84612 0.12872 0.0
C331 C 0.89549 0.79441 0.12889 0.0
C332 C 0.92578 0.87413 0.14326 0.0
C333 C 0.95262 0.92559 0.14462 0.0
C334 C 0.98697 0.91218 0.1413 0.0
C335 C 0.01205 0.96122 0.14255 0.0
C336 C 1.00307 0.0236 0.14722 0.0
C337 C 0.96905 0.03722 0.15061 0.0
C338 C 0.94388 -0.01162 0.14938 0.0
C339 C 0.84839 0.68958 0.19553 0.0
C340 C 0.82897 0.73649 0.20279 0.0
C341 C 0.86507 0.70966 0.18066 0.0
C342 C 0.86243 0.77689 0.17265 0.0
C343 C 0.84311 0.82383 0.17993 0.0
C344 C 0.82644 0.80382 0.1948 0.0
C345 C 0.88171 0.79964 0.15732 0.0
C346 C 0.90617 0.8513 0.1572 0.0
C347 C 0.87654 0.77073 0.14297 0.0
C348 C 0.85039 0.71797 0.14203 0.0
C349 C 0.81668 0.73681 0.13779 0.0
C350 C 0.79202 0.68687 0.13656 0.0
C351 C 0.80089 0.61802 0.13957 0.0
C352 C 0.83456 0.59902 0.14359 0.0
C353 C 0.85935 0.64883 0.14467 0.0
H354 H 0.78173 0.57943 0.13871 0.0
H355 H 0.02246 0.06129 0.14829 0.0
H356 H 0.13136 0.41262 0.4759 0.0
H357 H 0.15567 0.38689 0.45035 0.0
H358 H 0.08274 0.52236 0.42343 0.0
H359 H 0.0573 0.54443 0.44904 0.0
H360 H 0.08316 0.41687 0.41049 0.0
H361 H 0.17661 0.55143 0.42602 0.0
H362 H 0.22148 0.58395 0.44423 0.0
H363 H 0.26826 0.38755 0.44596 0.0
H364 H 0.22343 0.35356 0.42792 0.0
H365 H 0.15803 0.41046 0.33202 0.0
H366 H 0.13768 0.44465 0.35755 0.0
H367 H 0.20152 0.29134 0.38471 0.0
H368 H 0.22207 0.25762 0.35926 0.0
H369 H 0.20634 0.40564 0.39735 0.0
H370 H 0.11319 0.27254 0.38152 0.0
H371 H 0.06817 0.23982 0.36343 0.0
H372 H 0.0207 0.43535 0.36214 0.0
H373 H 0.06572 0.4696 0.38005 0.0
C374 C 0.12147 0.43889 0.4645 0.0
C375 C 0.0932 0.48245 0.46449 0.0
C376 C 0.13528 0.42392 0.44981 0.0
C377 C 0.12158 0.45322 0.43467 0.0
C378 C 0.09406 0.49885 0.43476 0.0
C379 C 0.07984 0.51258 0.44944 0.0
C380 C 0.13419 0.43332 0.41886 0.0
C381 C 0.11014 0.41585 0.40756 0.0
C382 C 0.16941 0.42927 0.41499 0.0
C383 C 0.19651 0.4498 0.42573 0.0
C384 C 0.19637 0.51507 0.43036 0.0
C385 C 0.2218 0.53377 0.44064 0.0
C386 C 0.24766 0.4878 0.44627 0.0
C387 C 0.2482 0.42309 0.4416 0.0
C388 C 0.22281 0.40411 0.43133 0.0
C389 C 0.1677 0.38403 0.34343 0.0
C390 C 0.19165 0.33114 0.34355 0.0
C391 C 0.15591 0.4034 0.35808 0.0
C392 C 0.1677 0.37028 0.37322 0.0
C393 C 0.19189 0.31788 0.37329 0.0
C394 C 0.20358 0.29842 0.35868 0.0
C395 C 0.1553 0.39052 0.38896 0.0
C396 C 0.17937 0.40746 0.40027 0.0
C397 C 0.12011 0.3944 0.3928 0.0
C398 C 0.09308 0.37393 0.38198 0.0
C399 C 0.09334 0.3088 0.37726 0.0
C400 C 0.06778 0.28993 0.36706 0.0
C401 C 0.04167 0.33556 0.36159 0.0
C402 C 0.04099 0.40011 0.36635 0.0
C403 C 0.06651 0.41926 0.37654 0.0
H404 H 0.0219 0.32083 0.35371 0.0
H405 H 0.26732 0.50237 0.45424 0.0
H406 H 0.85144 0.7145 0.32563 0.0
H407 H 0.88249 0.68087 0.35104 0.0
H408 H 0.79647 0.55772 0.37014 0.0
H409 H 0.76443 0.59682 0.34515 0.0
H410 H 0.81772 0.61111 0.39276 0.0
H411 H 0.87962 0.4953 0.35528 0.0
H412 H 0.91224 0.48244 0.33052 0.0
H413 H 0.98955 0.61756 0.34368 0.0
H414 H 0.95717 0.63203 0.36841 0.0
H415 H 0.91104 0.42296 0.45843 0.0
H416 H 0.88003 0.45671 0.43292 0.0
H417 H 0.95369 0.61601 0.41872 0.0
H418 H 0.98487 0.58228 0.44422 0.0
H419 H 0.93955 0.54248 0.39396 0.0
H420 H 0.8745 0.65357 0.43216 0.0
H421 H 0.84103 0.65781 0.45714 0.0
H422 H 0.76859 0.5164 0.44245 0.0
H423 H 0.80184 0.51076 0.41746 0.0
C424 C 0.83931 0.68021 0.33531 0.0
C425 C 0.80571 0.65792 0.33351 0.0
C426 C 0.8572 0.66025 0.34979 0.0
C427 C 0.84241 0.61501 0.36254 0.0
C428 C 0.8087 0.5925 0.36059 0.0
C429 C 0.79037 0.6145 0.34631 0.0
C430 C 0.86139 0.59343 0.3781 0.0
C431 C 0.84418 0.59491 0.39291 0.0
C432 C 0.89631 0.5736 0.37855 0.0
C433 C 0.91577 0.56523 0.36363 0.0
C434 C 0.90344 0.52267 0.35284 0.0
C435 C 0.92191 0.51504 0.33882 0.0
C436 C 0.95289 0.54925 0.33552 0.0
C437 C 0.96552 0.59114 0.34625 0.0
C438 C 0.94713 0.59904 0.36027 0.0
C439 C 0.92056 0.46531 0.44989 0.0
C440 C 0.95034 0.5001 0.45333 0.0
C441 C 0.90275 0.48472 0.43534 0.0
C442 C 0.91434 0.5393 0.42394 0.0
C443 C 0.94421 0.57383 0.42733 0.0
C444 C 0.96194 0.55469 0.44193 0.0
C445 C 0.89565 0.55971 0.40837 0.0
C446 C 0.91299 0.55826 0.39364 0.0
C447 C 0.8607 0.578 0.40797 0.0
C448 C 0.84083 0.58129 0.42302 0.0
C449 C 0.85159 0.62297 0.43432 0.0
C450 C 0.83262 0.62572 0.44847 0.0
C451 C 0.80275 0.58727 0.4514 0.0
C452 C 0.79175 0.5461 0.44017 0.0
C453 C 0.81062 0.54317 0.42601 0.0
H454 H 0.7881 0.58949 0.46235 0.0
H455 H 0.96713 0.54313 0.32469 0.0
H456 H 0.0418 0.61609 0.5999 0.0
H457 H 0.05927 0.64729 0.62607 0.0
H458 H 0.16119 0.57492 0.61874 0.0
H459 H 0.14351 0.54252 0.59271 0.0
H460 H 0.14557 0.5331 0.64805 0.0
H461 H 0.13856 0.75661 0.61647 0.0
H462 H 0.11157 0.85174 0.59852 0.0
H463 H 0.02971 0.85548 0.63277 0.0
H464 H 0.05659 0.76111 0.65108 0.0
H465 H 0.24162 0.68745 0.70228 0.0
H466 H 0.21288 0.66146 0.67842 0.0
H467 H 0.11577 0.70614 0.69881 0.0
H468 H 0.14506 0.73304 0.72349 0.0
H469 H 0.12207 0.75765 0.66503 0.0
H470 H 0.13508 0.53557 0.69753 0.0
H471 H 0.16542 0.44186 0.71446 0.0
H472 H 0.24098 0.43965 0.67715 0.0
H473 H 0.2106 0.53212 0.65978 0.0
C474 C 0.068 0.60718 0.60383 0.0
C475 C 0.09123 0.57678 0.59415 0.0
C476 C 0.0781 0.6255 0.61882 0.0
C477 C 0.1118 0.6143 0.62456 0.0
C478 C 0.13503 0.58419 0.61479 0.0
C479 C 0.12492 0.56578 0.59982 0.0
C480 C 0.12269 0.63154 0.64088 0.0
C481 C 0.1406 0.58257 0.6516 0.0
C482 C 0.11564 0.69522 0.64601 0.0
C483 C 0.09935 0.75149 0.63504 0.0
C484 C 0.11471 0.77755 0.62012 0.0
C485 C 0.09948 0.83138 0.6099 0.0
C486 C 0.06877 0.85917 0.61441 0.0
C487 C 0.05343 0.83372 0.62925 0.0
C488 C 0.06874 0.78034 0.6396 0.0
C489 C 0.21415 0.69242 0.70196 0.0
C490 C 0.1959 0.7122 0.71517 0.0
C491 C 0.19761 0.6768 0.68813 0.0
C492 C 0.16199 0.67987 0.68682 0.0
C493 C 0.14333 0.70247 0.69956 0.0
C494 C 0.16011 0.71824 0.71366 0.0
C495 C 0.14534 0.65962 0.67196 0.0
C496 C 0.12651 0.70795 0.66151 0.0
C497 C 0.15201 0.59568 0.66691 0.0
C498 C 0.17071 0.54107 0.67743 0.0
C499 C 0.15829 0.51539 0.69299 0.0
C500 C 0.17545 0.46242 0.70265 0.0
C501 C 0.20532 0.43538 0.69699 0.0
C502 C 0.2179 0.46076 0.68155 0.0
C503 C 0.20059 0.51311 0.67174 0.0
H504 H 0.21859 0.39451 0.70453 0.0
H505 H 0.05695 0.90064 0.60644 0.0
H506 H 0.79285 0.30674 0.69117 0.0
H507 H 0.82353 0.34104 0.66551 0.0
H508 H 0.91392 0.23853 0.68619 0.0
H509 H 0.88328 0.20347 0.71178 0.0
H510 H 0.92719 0.36855 0.6692 0.0
H511 H 0.86365 0.16677 0.66179 0.0
H512 H 0.81158 0.0979 0.6606 0.0
H513 H 0.77245 0.24481 0.62194 0.0
H514 H 0.82373 0.31579 0.62326 0.0
H515 H 0.02691 0.38039 0.59792 0.0
H516 H 0.99617 0.34422 0.62334 0.0
H517 H 0.90032 0.39224 0.59855 0.0
H518 H 0.93097 0.42248 0.57293 0.0
H519 H 0.88891 0.29139 0.61815 0.0
H520 H 0.94685 0.49805 0.62564 0.0
H521 H 0.99598 0.57512 0.6268 0.0
H522 H 0.04191 0.43141 0.66419 0.0
H523 H 0.99332 0.35311 0.6631 0.0
C524 C 0.8193 0.29174 0.69025 0.0
C525 C 0.83566 0.25226 0.70346 0.0
C526 C 0.83676 0.31119 0.67557 0.0
C527 C 0.87099 0.292 0.67388 0.0
C528 C 0.88754 0.25385 0.6872 0.0
C529 C 0.86998 0.23367 0.70179 0.0
C530 C 0.88958 0.31085 0.65822 0.0
C531 C 0.91902 0.35132 0.65802 0.0
C532 C 0.8783 0.29007 0.64355 0.0
C533 C 0.84738 0.24723 0.64281 0.0
C534 C 0.84374 0.18496 0.6532 0.0
C535 C 0.81434 0.1455 0.6525 0.0
C536 C 0.7886 0.1672 0.64129 0.0
C537 C 0.79228 0.22827 0.6307 0.0
C538 C 0.82148 0.26824 0.63145 0.0
C539 C 0.99926 0.38258 0.59792 0.0
C540 C 0.98136 0.40431 0.58345 0.0
C541 C 0.98162 0.36275 0.61253 0.0
C542 C 0.94573 0.36739 0.61317 0.0
C543 C 0.92791 0.3882 0.59858 0.0
C544 C 0.94548 0.40562 0.58388 0.0
C545 C 0.92664 0.35005 0.62889 0.0
C546 C 0.89708 0.30952 0.62918 0.0
C547 C 0.93731 0.37231 0.64356 0.0
C548 C 0.96655 0.41948 0.6442 0.0
C549 C 0.96753 0.48272 0.63403 0.0
C550 C 0.99528 0.52663 0.63469 0.0
C551 C 0.02205 0.5081 0.64556 0.0
C552 C 0.02116 0.44565 0.65578 0.0
C553 C 0.99352 0.40153 0.65516 0.0
H554 H 0.04344 0.54214 0.64613 0.0
H555 H 0.76587 0.13657 0.64075 0.0
H556 H 0.22175 0.91355 0.84305 0.0
H557 H 0.20301 0.94899 0.86867 0.0
H558 H 0.14543 0.76291 0.88008 0.0
H559 H 0.16373 0.72787 0.85438 0.0
H560 H 0.10813 0.86482 0.8868 0.0
H561 H 0.22292 0.79152 0.89911 0.0
H562 H 0.28539 0.7883 0.8954 0.0
H563 H 0.29216 -6e-05 0.90041 0.0
H564 H 0.22964 0.00464 0.90393 0.0
H565 H 0.07829 0.84719 0.96959 0.0
H566 H 0.1041 0.82936 0.94407 0.0
H567 H 0.14083 0.03614 0.93662 0.0
H568 H 0.1142 0.05509 0.9626 0.0
H569 H 0.18877 0.93596 0.92714 0.0
H570 H 0.0727 0.0053 0.91606 0.0
H571 H 0.0104 0.0041 0.92031 0.0
H572 H 0.00646 0.79385 0.91383 0.0
H573 H 0.06886 0.79372 0.90956 0.0
C574 C 0.20521 0.88003 0.85106 0.0
C575 C 0.19434 0.81772 0.84665 0.0
C576 C 0.19459 0.90026 0.86578 0.0
C577 C 0.17297 0.85852 0.87654 0.0
C578 C 0.16206 0.79629 0.87209 0.0
C579 C 0.17267 0.77609 0.85738 0.0
C580 C 0.16112 0.88 0.89224 0.0
C581 C 0.12591 0.87976 0.89563 0.0
C582 C 0.18399 0.9013 0.90376 0.0
C583 C 0.22156 0.89863 0.9016 0.0
C584 C 0.23769 0.83752 0.89928 0.0
C585 C 0.27312 0.83539 0.89724 0.0
C586 C 0.29272 0.89391 0.89763 0.0
C587 C 0.27694 0.95466 0.90009 0.0
C588 C 0.24152 0.95708 0.90212 0.0
C589 C 0.09208 0.8892 0.96269 0.0
C590 C 0.09365 0.95309 0.96815 0.0
C591 C 0.10683 0.87872 0.94799 0.0
C592 C 0.12379 0.93164 0.93814 0.0
C593 C 0.12755 -0.00544 0.94393 0.0
C594 C 0.11251 0.00533 0.95883 0.0
C595 C 0.13596 0.92028 0.92163 0.0
C596 C 0.1711 0.92194 0.91815 0.0
C597 C 0.11309 0.8997 0.91005 0.0
C598 C 0.07552 0.89942 0.9126 0.0
C599 C 0.0586 0.95867 0.91565 0.0
C600 C 0.02324 0.95825 0.91805 0.0
C601 C 1.00446 0.89888 0.91743 0.0
C602 C 0.02103 0.83982 0.91433 0.0
C603 C 0.05639 0.84002 0.91187 0.0
H604 H 0.97709 0.89872 0.9193 0.0
H605 H 0.32014 0.89215 0.89607 0.0
H606 H 0.85681 0.20021 0.82413 0.0
H607 H 0.88733 0.17014 0.84978 0.0
H608 H 0.79608 0.07361 0.87159 0.0
H609 H 0.76479 0.11042 0.84633 0.0
H610 H 0.82101 0.12937 0.89259 0.0
H611 H 0.87747 -0.0153 0.85882 0.0
H612 H 0.9093 0.95653 0.83511 0.0
H613 H 0.98998 0.09221 0.84426 0.0
H614 H 0.95878 0.12071 0.86816 0.0
H615 H 0.90645 0.93476 0.96023 0.0
H616 H 0.87634 0.97105 0.93458 0.0
H617 H 0.9568 0.11472 0.91931 0.0
H618 H 0.98696 0.07882 0.945 0.0
H619 H 0.93885 0.03696 0.89549 0.0
H620 H 0.88052 0.17264 0.93091 0.0
H621 H 0.84811 0.19072 0.95537 0.0
H622 H 0.76899 0.05734 0.94316 0.0
H623 H 0.80102 0.03825 0.91867 0.0
C624 C 0.84343 0.17219 0.83442 0.0
C625 C 0.80856 0.15708 0.83325 0.0
C626 C 0.86101 0.15419 0.84909 0.0
C627 C 0.84458 0.11754 0.86274 0.0
C628 C 0.80966 0.10175 0.8614 0.0
C629 C 0.79174 0.12233 0.84691 0.0
C630 C 0.8631 0.09829 0.87858 0.0
C631 C 0.84653 0.10791 0.89311 0.0
C632 C 0.89695 0.07205 0.87957 0.0
C633 C 0.91562 0.05535 0.86516 0.0
C634 C 0.9019 0.00882 0.85571 0.0
C635 C 0.91985 -0.00725 0.84225 0.0
C636 C 0.9515 0.02298 0.83808 0.0
C637 C 0.96542 0.06897 0.84746 0.0
C638 C 0.94769 0.08488 0.86101 0.0
C639 C 0.91763 0.97437 0.95144 0.0
C640 C 0.94907 0.004 0.95464 0.0
C641 C 0.90033 -0.00475 0.93681 0.0
C642 C 0.91414 0.04604 0.92504 0.0
C643 C 0.94556 0.07565 0.92821 0.0
C644 C 0.96273 0.05522 0.94292 0.0
C645 C 0.89634 0.06676 0.90923 0.0
C646 C 0.91319 0.05788 0.8948 0.0
C647 C 0.86251 0.09206 0.90834 0.0
C648 C 0.84331 0.10353 0.92306 0.0
C649 C 0.85633 0.14681 0.93351 0.0
C650 C 0.83799 0.15736 0.94736 0.0
C651 C 0.80657 0.12501 0.95085 0.0
C652 C 0.79336 0.08224 0.94047 0.0
C653 C 0.81155 0.0717 0.92658 0.0
H654 H 0.79241 0.13325 0.96157 0.0
H655 H 0.96531 0.01054 0.82762 0.0
H656 H 0.74093 0.21668 0.70044 0.0
H657 H 0.71327 0.1943 0.67584 0.0
H658 H 0.61485 0.19783 0.69902 0.0
H659 H 0.6432 0.21786 0.7245 0.0
H660 H 0.61937 0.09098 0.68162 0.0
H661 H 0.64221 0.33071 0.66888 0.0
H662 H 0.67845 0.43297 0.66757 0.0
H663 H 0.74848 0.35009 0.63592 0.0
H664 H 0.71283 0.24687 0.63718 0.0
H665 H 0.53781 0.08338 0.60439 0.0
H666 H 0.55685 0.11363 0.63047 0.0
H667 H 0.66127 0.11817 0.6138 0.0
H668 H 0.64228 0.08777 0.58768 0.0
H669 H 0.64883 0.22625 0.62838 0.0
H670 H 0.63057 -0.01284 0.64173 0.0
H671 H 0.59873 0.87919 0.64365 0.0
H672 H 0.52398 0.95472 0.6743 0.0
H673 H 0.55514 0.06369 0.67236 0.0
C674 C 0.7133 0.21379 0.70041 0.0
C675 C 0.69439 0.21963 0.71459 0.0
C676 C 0.6974 0.20109 0.68615 0.0
C677 C 0.66177 0.19517 0.68528 0.0
C678 C 0.6424 0.20247 0.69927 0.0
C679 C 0.65855 0.21492 0.71379 0.0
C680 C 0.64571 0.17985 0.66976 0.0
C681 C 0.6251 0.12161 0.67003 0.0
C682 C 0.65406 0.21799 0.65443 0.0
C683 C 0.67488 0.28103 0.65316 0.0
C684 C 0.66535 0.33427 0.66165 0.0
C685 C 0.6858 0.39234 0.66093 0.0
C686 C 0.71576 0.39794 0.65168 0.0
C687 C 0.72525 0.34561 0.64307 0.0
C688 C 0.70489 0.28742 0.64374 0.0
C689 C 0.56485 0.09071 0.60627 0.0
C690 C 0.58849 0.08312 0.59389 0.0
C691 C 0.57576 0.10773 0.62127 0.0
C692 C 0.61063 0.11787 0.6243 0.0
C693 C 0.63424 0.11073 0.61187 0.0
C694 C 0.62336 0.09318 0.59692 0.0
C695 C 0.62246 0.13741 0.64021 0.0
C696 C 0.6425 0.19626 0.63999 0.0
C697 C 0.6138 0.09942 0.65552 0.0
C698 C 0.59496 0.034 0.65672 0.0
C699 C 0.60716 -0.01894 0.64875 0.0
C700 C 0.58927 0.91962 0.64986 0.0
C701 C 0.55927 0.91021 0.65903 0.0
C702 C 0.54717 0.96217 0.66716 0.0
C703 C 0.56495 0.02379 0.66606 0.0
H704 H 0.5455 0.86256 0.65989 0.0
H705 H 0.73161 0.44285 0.65117 0.0
H706 H 0.43814 0.86669 0.57391 0.0
H707 H 0.40771 0.8354 0.5996 0.0
H708 H 0.4852 0.93484 0.62452 0.0
H709 H 0.51619 0.96485 0.59905 0.0
H710 H 0.46828 0.81757 0.64187 0.0
H711 H 0.40645 0.00986 0.61427 0.0
H712 H 0.37433 0.07582 0.59175 0.0
H713 H 0.29817 0.91875 0.59512 0.0
H714 H 0.33007 0.85141 0.61753 0.0
H715 H 0.3745 0.82752 0.71518 0.0
H716 H 0.406 0.86093 0.6897 0.0
H717 H 0.33035 0.76075 0.66384 0.0
H718 H 0.29877 0.72815 0.6891 0.0
H719 H 0.34656 0.8803 0.64707 0.0
H720 H 0.40841 0.68724 0.67427 0.0
H721 H 0.44081 0.61975 0.69647 0.0
H722 H 0.51687 0.77695 0.69361 0.0
H723 H 0.48454 0.84588 0.6716 0.0
C724 C 0.44888 0.88156 0.58486 0.0
C725 C 0.47956 0.91882 0.58433 0.0
C726 C 0.43127 0.86405 0.59954 0.0
C727 C 0.44383 0.88383 0.61396 0.0
C728 C 0.47488 0.91937 0.61355 0.0
C729 C 0.49253 0.93673 0.59891 0.0
C730 C 0.42476 0.8674 0.62952 0.0
C731 C 0.44178 0.83213 0.64307 0.0
C732 C 0.38996 0.88502 0.63101 0.0
C733 C 0.37085 0.92528 0.61747 0.0
C734 C 0.38301 -0.01089 0.61012 0.0
C735 C 0.36481 0.0268 0.59739 0.0
C736 C 0.33428 0.0014 0.59198 0.0
C737 C 0.32185 0.93831 0.5993 0.0
C738 C 0.33997 0.90039 0.61203 0.0
C739 C 0.36454 0.81314 0.70402 0.0
C740 C 0.33422 0.77519 0.70412 0.0
C741 C 0.38264 0.8318 0.6895 0.0
C742 C 0.37076 0.81261 0.67487 0.0
C743 C 0.34007 0.77604 0.67495 0.0
C744 C 0.32206 0.75735 0.68942 0.0
C745 C 0.39007 0.83042 0.65942 0.0
C746 C 0.37308 0.86591 0.64589 0.0
C747 C 0.42487 0.81287 0.65794 0.0
C748 C 0.44389 0.77202 0.67141 0.0
C749 C 0.43184 0.70773 0.6785 0.0
C750 C 0.45022 0.66915 0.69103 0.0
C751 C 0.48083 0.69411 0.69648 0.0
C752 C 0.49312 0.75771 0.68941 0.0
C753 C 0.47479 0.79654 0.67691 0.0
H754 H 0.49506 0.66408 0.70615 0.0
H755 H 0.32021 0.03069 0.58213 0.0
H756 H 0.57685 0.55729 0.95122 0.0
H757 H 0.60167 0.53124 0.92572 0.0
H758 H 0.64346 0.34482 0.95144 0.0
H759 H 0.62004 0.37293 0.97693 0.0
H760 H 0.68555 0.3854 0.92947 0.0
H761 H 0.56522 0.35691 0.92847 0.0
H762 H 0.50439 0.38765 0.93006 0.0
H763 H 0.51668 0.54376 0.88888 0.0
H764 H 0.57778 0.51485 0.88722 0.0
H765 H 0.70587 0.21932 0.85932 0.0
H766 H 0.68562 0.25085 0.88508 0.0
H767 H 0.65691 0.44895 0.86033 0.0
H768 H 0.67653 0.41698 0.83447 0.0
H769 H 0.60836 0.4006 0.88181 0.0
H770 H 0.73278 0.41743 0.88432 0.0
H771 H 0.79103 0.37053 0.88354 0.0
H772 H 0.76637 0.21441 0.92328 0.0
H773 H 0.70789 0.25988 0.92419 0.0
C774 C 0.59258 0.51228 0.95148 0.0
C775 C 0.59743 0.46824 0.96615 0.0
C776 C 0.60619 0.49648 0.93682 0.0
C777 C 0.62394 0.43496 0.93639 0.0
C778 C 0.63 0.39256 0.95125 0.0
C779 C 0.61685 0.40893 0.9659 0.0
C780 C 0.63507 0.41338 0.92054 0.0
C781 C 0.66842 0.3883 0.91914 0.0
C782 C 0.613 0.41644 0.90687 0.0
C783 C 0.57624 0.4342 0.90784 0.0
C784 C 0.55505 0.39821 0.91984 0.0
C785 C 0.52051 0.41526 0.92074 0.0
C786 C 0.50671 0.4677 0.90959 0.0
C787 C 0.52743 0.50322 0.89752 0.0
C788 C 0.56203 0.48654 0.8966 0.0
C789 C 0.69521 0.2696 0.85935 0.0
C790 C 0.69305 0.31573 0.84479 0.0
C791 C 0.68377 0.28782 0.87415 0.0
C792 C 0.67015 0.35295 0.87486 0.0
C793 C 0.6674 0.39856 0.86025 0.0
C794 C 0.67877 0.3803 0.84543 0.0
C795 C 0.65888 0.37376 0.89073 0.0
C796 C 0.62544 0.3983 0.89214 0.0
C797 C 0.68047 0.36811 0.90458 0.0
C798 C 0.71589 0.3418 0.90424 0.0
C799 C 0.73976 0.37295 0.89285 0.0
C800 C 0.77282 0.3466 0.89239 0.0
C801 C 0.78238 0.28938 0.90333 0.0
C802 C 0.75894 0.25863 0.91481 0.0
C803 C 0.72586 0.28474 0.91532 0.0
H804 H 0.80795 0.26892 0.90294 0.0
H805 H 0.47993 0.4806 0.91027 0.0
H806 H 0.48568 0.59285 0.9453 0.0
H807 H 0.45463 0.62789 0.91981 0.0
H808 H 0.38182 0.46612 0.9332 0.0
H809 H 0.41308 0.43028 0.95843 0.0
H810 H 0.39894 0.46862 0.90303 0.0
H811 H 0.36393 0.63851 0.93544 0.0
H812 H 0.37181 0.73097 0.95189 0.0
H813 H 0.42208 0.85247 0.91176 0.0
H814 H 0.41488 0.76037 0.89514 0.0
H815 H 0.26605 0.69873 0.8502 0.0
H816 H 0.29772 0.66562 0.87544 0.0
H817 H 0.37837 0.58474 0.84866 0.0
H818 H 0.34668 0.61589 0.82341 0.0
H819 H 0.35728 0.70371 0.88556 0.0
H820 H 0.4173 0.44631 0.87459 0.0
H821 H 0.40578 0.3533 0.85877 0.0
H822 H 0.29881 0.40129 0.85788 0.0
H823 H 0.30957 0.49395 0.87392 0.0
C824 C 0.46293 0.56509 0.94282 0.0
C825 C 0.45172 0.50898 0.95389 0.0
C826 C 0.4451 0.58532 0.92827 0.0
C827 C 0.41558 0.55016 0.92459 0.0
C828 C 0.40449 0.49412 0.9357 0.0
C829 C 0.42233 0.47377 0.95016 0.0
C830 C 0.39652 0.57015 0.90907 0.0
C831 C 0.38991 0.5201 0.89919 0.0
C832 C 0.38448 0.63722 0.90406 0.0
C833 C 0.38922 0.69223 0.91412 0.0
C834 C 0.37696 0.68468 0.93018 0.0
C835 C 0.38124 0.73709 0.93952 0.0
C836 C 0.39753 0.79747 0.9329 0.0
C837 C 0.40953 0.80562 0.91689 0.0
C838 C 0.40534 0.75336 0.90751 0.0
C839 C 0.29039 0.67327 0.84965 0.0
C840 C 0.30355 0.65949 0.8347 0.0
C841 C 0.30859 0.65466 0.86412 0.0
C842 C 0.34036 0.6218 0.86403 0.0
C843 C 0.35368 0.60861 0.84913 0.0
C844 C 0.33545 0.62672 0.83466 0.0
C845 C 0.3596 0.60206 0.87951 0.0
C846 C 0.36642 0.65224 0.88934 0.0
C847 C 0.37147 0.53479 0.88457 0.0
C848 C 0.3644 0.47822 0.87518 0.0
C849 C 0.39128 0.43696 0.87107 0.0
C850 C 0.38489 0.38422 0.86206 0.0
C851 C 0.35161 0.37165 0.85723 0.0
C852 C 0.32462 0.41144 0.86152 0.0
C853 C 0.33088 0.46423 0.87054 0.0
H854 H 0.34672 0.3309 0.85022 0.0
H855 H 0.40079 0.838 0.94014 0.0
H856 H 0.6 0.45984 0.10782 0.0
H857 H 0.61884 0.49277 0.13363 0.0
H858 H 0.61604 0.70416 0.11227 0.0
H859 H 0.59795 0.67116 0.08628 0.0
H860 H 0.67074 0.68194 0.13157 0.0
H861 H 0.5515 0.62537 0.13709 0.0
H862 H 0.50168 0.5507 0.1358 0.0
H863 H 0.54549 0.40226 0.17281 0.0
H864 H 0.59631 0.47494 0.17386 0.0
H865 H 0.68432 0.80591 0.20781 0.0
H866 H 0.65879 0.78404 0.18195 0.0
H867 H 0.66194 0.56815 0.19884 0.0
H868 H 0.68695 0.58981 0.22442 0.0
H869 H 0.605 0.59859 0.18161 0.0
H870 H 0.72493 0.6472 0.17493 0.0
H871 H 0.77576 0.71872 0.17695 0.0
H872 H 0.73137 0.87843 0.14295 0.0
H873 H 0.67991 0.80827 0.14096 0.0
C874 C 0.60354 0.51335 0.10859 0.0
C875 C 0.59721 0.56284 0.09497 0.0
C876 C 0.61421 0.53225 0.12342 0.0
C877 C 0.61841 0.60127 0.12514 0.0
C878 C 0.61294 0.65065 0.1114 0.0
C879 C 0.60241 0.63171 0.09653 0.0
C880 C 0.62754 0.62191 0.14131 0.0
C881 C 0.65596 0.66447 0.14243 0.0
C882 C 0.60889 0.59835 0.15571 0.0
C883 C 0.57787 0.55545 0.15545 0.0
C884 C 0.55062 0.57665 0.14489 0.0
C885 C 0.52218 0.53463 0.1442 0.0
C886 C 0.52031 0.47185 0.15426 0.0
C887 C 0.54695 0.45092 0.16503 0.0
C888 C 0.57564 0.49244 0.16564 0.0
C889 C 0.67843 0.75409 0.20617 0.0
C890 C 0.68738 0.69968 0.21822 0.0
C891 C 0.66426 0.74143 0.1913 0.0
C892 C 0.65877 0.67417 0.18825 0.0
C893 C 0.66579 0.62039 0.20075 0.0
C894 C 0.68006 0.63293 0.21544 0.0
C895 C 0.64803 0.65863 0.17184 0.0
C896 C 0.61948 0.61664 0.17069 0.0
C897 C 0.66671 0.68215 0.15748 0.0
C898 C 0.69835 0.72292 0.15798 0.0
C899 C 0.7259 0.69777 0.16797 0.0
C900 C 0.75475 0.73818 0.16918 0.0
C901 C 0.75657 0.80346 0.16026 0.0
C902 C 0.72976 0.82807 0.14996 0.0
C903 C 0.70075 0.78801 0.14878 0.0
H904 H 0.77893 0.83469 0.16117 0.0
H905 H 0.49826 0.43939 0.15372 0.0
H906 H 0.29883 0.19636 0.18886 0.0
H907 H 0.32873 0.23075 0.16305 0.0
H908 H 0.40371 0.33729 0.18775 0.0
H909 H 0.37364 0.30348 0.21357 0.0
H910 H 0.38433 0.41177 0.15925 0.0
H911 H 0.42098 0.17941 0.17664 0.0
H912 H 0.41108 0.05698 0.18561 0.0
H913 H 0.35691 0.04279 0.14134 0.0
H914 H 0.36618 0.16535 0.13219 0.0
H915 H 0.51296 0.45843 0.09893 0.0
H916 H 0.48062 0.42472 0.12388 0.0
H917 H 0.41265 0.3064 0.09841 0.0
H918 H 0.4448 0.33971 0.07329 0.0
H919 H 0.42592 0.2382 0.12675 0.0
H920 H 0.39092 0.46452 0.10804 0.0
H921 H 0.39617 0.5876 0.09856 0.0
H922 H 0.44067 0.61616 0.14425 0.0
H923 H 0.43639 0.493 0.15389 0.0
C924 C 0.32181 0.22672 0.18878 0.0
C925 C 0.33415 0.24646 0.20325 0.0
C926 C 0.33889 0.24635 0.17403 0.0
C927 C 0.36883 0.28571 0.17346 0.0
C928 C 0.38077 0.30669 0.18787 0.0
C929 C 0.36363 0.28718 0.20263 0.0
C930 C 0.38782 0.30474 0.15789 0.0
C931 C 0.39392 0.37385 0.15226 0.0
C932 C 0.39916 0.25543 0.14841 0.0
C933 C 0.3941 0.18156 0.15378 0.0
C934 C 0.40685 0.1502 0.16885 0.0
C935 C 0.40137 0.08079 0.17397 0.0
C936 C 0.38338 0.04213 0.16406 0.0
C937 C 0.37091 0.07276 0.14899 0.0
C938 C 0.3763 0.14217 0.14383 0.0
C939 C 0.49114 0.42512 0.09856 0.0
C940 C 0.48148 0.40218 0.08396 0.0
C941 C 0.4725 0.40621 0.11288 0.0
C942 C 0.4436 0.36414 0.11301 0.0
C943 C 0.43449 0.33959 0.0986 0.0
C944 C 0.45302 0.35867 0.08422 0.0
C945 C 0.42307 0.34549 0.12817 0.0
C946 C 0.41651 0.27639 0.13371 0.0
C947 C 0.41086 0.39502 0.13743 0.0
C948 C 0.41383 0.46918 0.1316 0.0
C949 C 0.40225 0.49685 0.116 0.0
C950 C 0.40498 0.56671 0.11061 0.0
C951 C 0.41888 0.60964 0.12077 0.0
C952 C 0.42994 0.58284 0.13638 0.0
C953 C 0.42743 0.51296 0.1418 0.0
H954 H 0.42096 0.66372 0.11658 0.0
H955 H 0.37909 -0.01156 0.16805 0.0
H956 H 0.54532 0.90341 0.45578 0.0
H957 H 0.57494 0.87839 0.43197 0.0
H958 H 0.66456 -0.0182 0.44585 0.0
H959 H 0.63462 0.00716 0.47051 0.0
H960 H 0.6483 0.01189 0.41202 0.0
H961 H 0.66398 0.81065 0.45082 0.0
H962 H 0.64659 0.71504 0.4716 0.0
H963 H 0.57989 0.64076 0.43721 0.0
H964 H 0.59642 0.73655 0.41628 0.0
H965 H 0.74116 0.88128 0.34891 0.0
H966 H 0.72247 0.91161 0.37505 0.0
H967 H 0.6294 0.79807 0.37201 0.0
H968 H 0.64799 0.76787 0.34582 0.0
H969 H 0.65424 0.77206 0.40205 0.0
H970 H 0.62872 0.97433 0.36552 0.0
H971 H 0.63849 0.07319 0.34444 0.0
H972 H 0.71732 0.14509 0.37346 0.0
H973 H 0.70781 0.04666 0.39488 0.0
C974 C 0.57143 0.92112 0.45405 0.0
C975 C 0.58757 0.95678 0.46547 0.0
C976 C 0.58843 0.90629 0.44026 0.0
C977 C 0.62233 0.92648 0.43718 0.0
C978 C 0.63848 0.96473 0.44805 0.0
C979 C 0.62132 -0.02054 0.46214 0.0
C980 C 0.63982 0.90753 0.42239 0.0
C981 C 0.6505 0.95931 0.41005 0.0
C982 C 0.6414 0.83897 0.4194 0.0
C983 C 0.63132 0.78121 0.43199 0.0
C984 C 0.64539 0.7743 0.44771 0.0
C985 C 0.63571 0.71998 0.45952 0.0
C986 C 0.6121 0.67194 0.45573 0.0
C987 C 0.59816 0.67806 0.44012 0.0
C988 C 0.60771 0.73232 0.42828 0.0
C989 C 0.71668 0.86283 0.35379 0.0
C990 C 0.69602 0.82243 0.34516 0.0
C991 C 0.7059 0.88052 0.36875 0.0
C992 C 0.67427 0.85785 0.3756 0.0
C993 C 0.65387 0.81649 0.3671 0.0
C994 C 0.66451 0.7993 0.35206 0.0
C995 C 0.66261 0.8765 0.39163 0.0
C996 C 0.65277 0.82458 0.40415 0.0
C997 C 0.66125 0.94485 0.3947 0.0
C998 C 0.66787 0.00277 0.38169 0.0
C999 C 0.64839 0.01084 0.36734 0.0
C1000 C 0.65377 0.06695 0.35536 0.0
C1001 C 0.67861 0.11526 0.35755 0.0
C1002 C 0.6981 0.10759 0.37177 0.0
C1003 C 0.69266 0.05177 0.38386 0.0
H1004 H 0.68273 0.15863 0.34822 0.0
H1005 H 0.60466 0.62992 0.46488 0.0
H1006 H 0.48727 0.07594 0.44393 0.0
H1007 H 0.45744 0.11161 0.41822 0.0
H1008 H 0.37113 -0.01339 0.43581 0.0
H1009 H 0.40142 0.94911 0.4613 0.0
H1010 H 0.3828 0.9693 0.40635 0.0
H1011 H 0.37164 0.16739 0.43256 0.0
H1012 H 0.39081 0.26222 0.44641 0.0
H1013 H 0.45143 0.3413 0.40482 0.0
H1014 H 0.43293 0.24646 0.39078 0.0
H1015 H 0.26232 0.17302 0.34948 0.0
H1016 H 0.29324 0.13803 0.37497 0.0
H1017 H 0.38623 0.12156 0.34809 0.0
H1018 H 0.35551 0.15526 0.32251 0.0
H1019 H 0.37049 0.2112 0.38169 0.0
H1020 H 0.38636 -0.00523 0.3583 0.0
H1021 H 0.36245 0.9017 0.34513 0.0
H1022 H 0.28701 0.86219 0.38289 0.0
H1023 H 0.31027 0.95578 0.39612 0.0
C1024 C 0.46186 0.05638 0.44233 0.0
C1025 C 0.44665 0.00981 0.45464 0.0
C1026 C 0.44471 0.07709 0.42765 0.0
C1027 C 0.41173 0.05259 0.42507 0.0
C1028 C 0.3965 0.00632 0.43744 0.0
C1029 C 0.41379 -0.01495 0.45204 0.0
C1030 C 0.39351 0.07336 0.40934 0.0
C1031 C 0.38007 0.02234 0.4011 0.0
C1032 C 0.38987 0.14251 0.40224 0.0
C1033 C 0.40118 0.19939 0.41069 0.0
C1034 C 0.38929 0.20467 0.42642 0.0
C1035 C 0.39999 0.2585 0.4343 0.0
C1036 C 0.42242 0.30762 0.42653 0.0
C1037 C 0.43411 0.30313 0.41084 0.0
C1038 C 0.4235 0.2494 0.40291 0.0
C1039 C 0.28932 0.16186 0.34896 0.0
C1040 C 0.30639 0.16703 0.33392 0.0
C1041 C 0.30691 0.14172 0.36354 0.0
C1042 C 0.34192 0.12693 0.36337 0.0
C1043 C 0.35912 0.13218 0.34844 0.0
C1044 C 0.34148 0.15134 0.33384 0.0
C1045 C 0.36057 0.10718 0.37886 0.0
C1046 C 0.3737 0.15836 0.38704 0.0
C1047 C 0.36372 0.03849 0.38599 0.0
C1048 C 0.34969 -0.0173 0.37803 0.0
C1049 C 0.36442 0.96673 0.36366 0.0
C1050 C 0.35106 0.91379 0.35622 0.0
C1051 C 0.32314 0.87622 0.36313 0.0
C1052 C 0.30857 0.89145 0.37752 0.0
C1053 C 0.32182 0.94441 0.38499 0.0
H1054 H 0.31286 0.83518 0.35737 0.0
H1055 H 0.43066 0.34926 0.43264 0.0
H1056 H 0.98712 0.72889 0.03949 0.0
H1057 H 0.98736 0.60677 0.03891 0.0
H1058 H 0.06889 0.63166 1.00349 0.0
H1059 H 0.06781 0.75466 1.00353 0.0
H1060 H 0.019 0.56087 0.99346 0.0
H1061 H 0.08135 0.55361 0.04337 0.0
H1062 H 0.09285 0.57742 0.07114 0.0
H1063 H 1.00034 0.47428 0.08814 0.0
H1064 H 0.98803 0.45067 0.06042 0.0
H1065 H 0.0703 0.21236 1.00209 0.0
H1066 H 0.0606 0.33497 0.99813 0.0
H1067 H 0.97262 0.30612 0.02971 0.0
H1068 H 0.98242 0.18356 0.03396 0.0
H1069 H 0.02286 0.37913 0.04119 0.0
H1070 H 0.96355 0.37916 0.99088 0.0
H1071 H 0.95438 0.35364 0.96308 0.0
H1072 H 0.04417 0.46789 0.94669 0.0
H1073 H 0.05422 0.49326 0.97444 0.0
C1074 C 0.00575 0.70812 0.03192 0.0
C1075 C 0.02745 0.75085 1.02153 0.0
C1076 C 0.00582 0.63839 0.03158 0.0
C1077 C 0.02819 0.61042 1.02117 0.0
C1078 C 0.05131 0.6526 1.01152 0.0
C1079 C 0.05085 0.72252 1.01163 0.0
C1080 C 0.02565 0.53799 1.01946 0.0
C1081 C 0.02034 0.52088 1.00385 0.0
C1082 C 0.02633 0.48647 0.03311 0.0
C1083 C 0.03362 0.50093 0.04978 0.0
C1084 C 0.06331 0.53651 0.053 0.0
C1085 C 0.07 0.54988 0.06874 0.0
C1086 C 0.0473 0.52753 0.08138 0.0
C1087 C 0.01788 0.49165 0.07833 0.0
C1088 C 0.01105 0.47821 0.06261 0.0
C1089 C 0.04827 0.23196 1.00778 0.0
C1090 C 0.02763 0.18899 1.01868 0.0
C1091 C 0.04263 0.30192 1.00541 0.0
C1092 C 0.01608 0.32916 1.01375 0.0
C1093 C 0.99335 0.28565 0.02328 0.0
C1094 C 0.99911 0.21589 0.02576 0.0
C1095 C 0.01628 0.40188 1.0152 0.0
C1096 C 0.02127 0.41908 0.03079 0.0
C1097 C 0.01569 0.45316 1.00152 0.0
C1098 C 0.0098 0.43761 0.98481 0.0
C1099 C 0.98155 0.39829 0.98139 0.0
C1100 C 0.97615 0.38397 0.96563 0.0
C1101 C 0.99872 0.40898 0.95314 0.0
C1102 C 0.02672 0.44848 0.95638 0.0
C1103 C 0.03226 0.46291 0.97212 0.0
H1104 H 0.99447 0.39789 0.94094 0.0
H1105 H 0.05254 0.53788 0.09356 0.0
H1106 H 0.2985 0.44123 0.27852 0.0
H1107 H 0.30428 0.56505 0.27542 0.0
H1108 H 0.20247 0.58757 0.25542 0.0
H1109 H 0.19722 0.46388 0.25777 0.0
H1110 H 0.24315 0.69306 0.24295 0.0
H1111 H 0.21279 0.57372 0.29597 0.0
H1112 H 0.2218 0.48303 0.31926 0.0
H1113 H 0.31993 0.56726 0.32803 0.0
H1114 H 0.31162 0.658 0.30466 0.0
H1115 H 0.20817 0.0127 0.26292 0.0
H1116 H 0.20118 0.88929 0.2648 0.0
H1117 H 0.30119 0.85943 0.28656 0.0
H1118 H 0.3073 -0.01761 0.28563 0.0
H1119 H 0.26055 0.75719 0.29792 0.0
H1120 H 0.28848 0.87953 0.24393 0.0
H1121 H 0.27537 0.97128 0.22137 0.0
H1122 H 0.17771 0.88051 0.21486 0.0
H1123 H 0.19006 0.78879 0.23752 0.0
C1124 C 0.27782 0.47283 0.27303 0.0
C1125 C 0.24719 0.44368 0.26868 0.0
C1126 C 0.28112 0.54325 0.27125 0.0
C1127 C 0.25337 0.5849 0.26567 0.0
C1128 C 0.22403 0.556 0.25986 0.0
C1129 C 0.22103 0.48551 0.26126 0.0
C1130 C 0.25286 0.65659 0.26823 0.0
C1131 C 0.2468 0.70718 0.25495 0.0
C1132 C 0.25742 0.67457 0.28395 0.0
C1133 C 0.26164 0.62244 0.29855 0.0
C1134 C 0.23625 0.57293 0.3029 0.0
C1135 C 0.24125 0.52146 0.31608 0.0
C1136 C 0.27143 0.51936 0.32511 0.0
C1137 C 0.29655 0.569 0.32104 0.0
C1138 C 0.29169 0.62054 0.30784 0.0
C1139 C 0.22817 -0.02059 0.26848 0.0
C1140 C 0.2584 0.00627 0.27393 0.0
C1141 C 0.22427 0.90926 0.2695 0.0
C1142 C 0.25126 0.86572 0.27524 0.0
C1143 C 0.2803 0.89238 0.2819 0.0
C1144 C 0.28376 0.96242 0.28135 0.0
C1145 C 0.25114 0.79397 0.27261 0.0
C1146 C 0.25705 0.74322 0.2859 0.0
C1147 C 0.24613 0.77583 0.25692 0.0
C1148 C 0.24013 0.82753 0.24242 0.0
C1149 C 0.26432 0.87896 0.2376 0.0
C1150 C 0.25697 0.93106 0.22484 0.0
C1151 C 0.22569 0.9317 0.21672 0.0
C1152 C 0.20191 0.87985 0.22118 0.0
C1153 C 0.20909 0.82777 0.23394 0.0
H1154 H 0.21973 0.97237 0.20701 0.0
H1155 H 0.27533 0.47929 0.33527 0.0
H1156 H 0.78649 0.9539 0.28678 0.0
H1157 H 0.78388 0.07767 0.28382 0.0
H1158 H 0.70552 0.07958 0.24732 0.0
H1159 H 0.70805 0.95547 0.25007 0.0
H1160 H 0.75132 0.19626 0.24295 0.0
H1161 H 0.68115 0.06421 0.28258 0.0
H1162 H 0.67138 0.97081 0.30505 0.0
H1163 H 0.73458 0.0712 0.33636 0.0
H1164 H 0.74667 0.16321 0.31376 0.0
H1165 H 0.70234 0.51963 0.25537 0.0
H1166 H 0.68998 0.39871 0.2563 0.0
H1167 H 0.76699 0.34972 0.29328 0.0
H1168 H 0.77915 0.47076 0.29264 0.0
H1169 H 0.71201 0.25604 0.29593 0.0
H1170 H 0.79204 0.36798 0.25507 0.0
H1171 H 0.80575 0.4604 0.23276 0.0
H1172 H 0.7224 0.39896 0.20467 0.0
H1173 H 0.70795 0.30667 0.22694 0.0
C1174 C 0.76939 -0.01935 0.27778 0.0
C1175 C 0.74684 0.94501 0.26896 0.0
C1176 C 0.76805 0.05129 0.27607 0.0
C1177 C 0.74394 0.08701 0.26565 0.0
C1178 C 0.72412 0.05244 0.25548 0.0
C1179 C 0.72554 -0.01842 0.25713 0.0
C1180 C 0.73578 0.15776 0.26743 0.0
C1181 C 0.74216 0.20935 0.25441 0.0
C1182 C 0.72371 0.17419 0.28245 0.0
C1183 C 0.71517 0.12049 0.29634 0.0
C1184 C 0.6935 0.06598 0.29415 0.0
C1185 C 0.68767 0.01304 0.3069 0.0
C1186 C 0.70217 0.01537 0.32214 0.0
C1187 C 0.7232 0.06978 0.32456 0.0
C1188 C 0.72975 0.12213 0.31174 0.0
C1189 C 0.71596 0.48318 0.26404 0.0
C1190 C 0.74235 0.50418 0.27363 0.0
C1191 C 0.70873 0.41428 0.2646 0.0
C1192 C 0.72816 0.36569 0.27458 0.0
C1193 C 0.75187 0.38677 0.28545 0.0
C1194 C 0.7589 0.45584 0.28502 0.0
C1195 C 0.72848 0.29448 0.2716 0.0
C1196 C 0.72052 0.24274 0.28439 0.0
C1197 C 0.73906 0.27776 0.25638 0.0
C1198 C 0.74882 0.33079 0.24267 0.0
C1199 C 0.77667 0.37421 0.24412 0.0
C1200 C 0.78454 0.42661 0.23151 0.0
C1201 C 0.76493 0.4356 0.21731 0.0
C1202 C 0.73755 0.39192 0.21567 0.0
C1203 C 0.72954 0.33952 0.22827 0.0
H1204 H 0.77096 0.47636 0.20758 0.0
H1205 H 0.69687 0.97533 0.33209 0.0
H1206 H 0.08221 0.71819 0.50989 0.0
H1207 H 0.07082 0.84017 0.5085 0.0
H1208 H 0.97139 0.79606 0.52973 0.0
H1209 H 0.98261 0.67384 0.53141 0.0
H1210 H 0.98682 0.92422 0.50065 0.0
H1211 H 0.0062 0.81461 0.55571 0.0
H1212 H 0.03546 0.73299 0.57638 0.0
H1213 H 0.1302 0.83891 0.56554 0.0
H1214 H 0.10184 0.91912 0.54418 0.0
H1215 H 1.0017 0.23533 0.54484 0.0
H1216 H 1.00073 0.11128 0.5471 0.0
H1217 H 0.05161 0.12352 0.50073 0.0
H1218 H 0.05271 0.24719 0.49827 0.0
H1219 H 0.05009 0.00818 0.54558 0.0
H1220 H 0.00605 0.0291 0.47838 0.0
H1221 H 0.97396 0.10977 0.45851 0.0
H1222 H 0.91963 0.18216 0.49742 0.0
H1223 H 0.95114 0.10176 0.51748 0.0
C1224 C 0.05758 0.73457 0.51384 0.0
C1225 C 0.03343 0.68722 0.521 0.0
C1226 C 0.05126 0.80386 0.51312 0.0
C1227 C 0.02073 0.826 0.51937 0.0
C1228 C 0.99519 0.77916 0.525 0.0
C1229 C 1.0017 0.7098 0.52601 0.0
C1230 C 0.01777 0.89689 0.522 0.0
C1231 C 1.00037 0.94277 0.5105 0.0
C1232 C 0.03478 0.91984 0.53518 0.0
C1233 C 0.052 0.87198 0.54807 0.0
C1234 C 0.03342 0.81963 0.55746 0.0
C1235 C 0.04984 0.77362 0.56932 0.0
C1236 C 0.08475 0.78028 0.57214 0.0
C1237 C 0.10321 0.83342 0.56323 0.0
C1238 C 0.08702 0.87896 0.55118 0.0
C1239 C 0.01336 0.2116 0.53528 0.0
C1240 C 0.02675 0.25101 0.52122 0.0
C1241 C 0.01276 0.14086 0.53662 0.0
C1242 C 0.02545 0.10905 0.52392 0.0
C1243 C 0.04119 0.14778 0.5105 0.0
C1244 C 0.04183 0.21832 0.50914 0.0
C1245 C 0.02002 0.03598 0.52393 0.0
C1246 C 0.03601 -0.01035 0.53589 0.0
C1247 C 1.00082 0.0124 0.51147 0.0
C1248 C 0.98114 0.05969 0.49942 0.0
C1249 C 0.98712 0.06199 0.48268 0.0
C1250 C 0.96908 0.10782 0.47139 0.0
C1251 C 0.94486 0.15128 0.4767 0.0
C1252 C 0.93852 0.14882 0.49332 0.0
C1253 C 0.95649 0.1032 0.50465 0.0
H1254 H 0.93095 0.18677 0.46795 0.0
H1255 H 0.09743 0.74464 0.58133 0.0
H1256 H 0.23813 0.95264 0.74816 0.0
H1257 H 0.24096 0.07738 0.74283 0.0
H1258 H 0.18577 0.08846 0.7873 0.0
H1259 H 0.18308 0.96449 0.79274 0.0
H1260 H 0.17382 0.20171 0.7603 0.0
H1261 H 0.26297 0.07199 0.79295 0.0
H1262 H 0.30575 -0.02007 0.79687 0.0
H1263 H 0.35771 0.0692 0.75338 0.0
H1264 H 0.31475 0.16116 0.74906 0.0
H1265 H 0.23621 0.49384 0.79009 0.0
H1266 H 0.22298 0.37284 0.78997 0.0
H1267 H 0.28986 0.37077 0.74873 0.0
H1268 H 0.303 0.49063 0.74879 0.0
H1269 H 0.29476 0.25499 0.77151 0.0
H1270 H 0.21055 0.40028 0.74253 0.0
H1271 H 0.16806 0.49267 0.74005 0.0
H1272 H 0.10529 0.37501 0.77615 0.0
H1273 H 0.14824 0.2832 0.7795 0.0
C1274 C 0.22575 -0.01803 0.75649 0.0
C1275 C 0.21139 0.94978 0.77108 0.0
C1276 C 0.22717 0.05282 0.75341 0.0
C1277 C 0.21387 0.09129 0.76481 0.0
C1278 C 0.19615 0.05919 0.77843 0.0
C1279 C 0.19507 -0.01135 0.7816 0.0
C1280 C 0.22467 0.1619 0.76461 0.0
C1281 C 0.20015 0.21375 0.76274 0.0
C1282 C 0.25911 0.17673 0.76775 0.0
C1283 C 0.28552 0.12287 0.77059 0.0
C1284 C 0.28341 0.0717 0.78418 0.0
C1285 C 0.30767 0.01958 0.78647 0.0
C1286 C 0.33439 0.01861 0.77536 0.0
C1287 C 0.33697 0.06995 0.76196 0.0
C1288 C 0.31267 0.12206 0.75958 0.0
C1289 C 0.2485 0.46681 0.78127 0.0
C1290 C 0.27004 0.50093 0.76929 0.0
C1291 C 0.24089 0.39831 0.78116 0.0
C1292 C 0.2551 0.36398 0.76915 0.0
C1293 C 0.27857 0.39692 0.75798 0.0
C1294 C 0.28584 0.46516 0.75798 0.0
C1295 C 0.24387 0.2952 0.76736 0.0
C1296 C 0.26841 0.2435 0.76889 0.0
C1297 C 0.20943 0.28093 0.7639 0.0
C1298 C 0.18293 0.3351 0.76145 0.0
C1299 C 0.18791 0.39432 0.75011 0.0
C1300 C 0.16375 0.44667 0.74855 0.0
C1301 C 0.13399 0.43966 0.75791 0.0
C1302 C 0.12839 0.38038 0.76891 0.0
C1303 C 0.15273 0.32828 0.77071 0.0
H1304 H 0.11525 0.48015 0.75663 0.0
H1305 H 0.35314 -0.02182 0.77714 0.0
H1306 H 0.6994 0.45787 0.7571 0.0
H1307 H 0.70594 0.58126 0.75348 0.0
H1308 H 0.80569 0.55821 0.77582 0.0
H1309 H 0.79853 0.43465 0.78012 0.0
H1310 H 0.76577 0.63115 0.79138 0.0
H1311 H 0.79301 0.62927 0.73496 0.0
H1312 H 0.78421 0.60174 0.7073 0.0
H1313 H 0.68941 0.71155 0.7037 0.0
H1314 H 0.69737 0.73895 0.73142 0.0
H1315 H 0.80777 -0.02067 0.78344 0.0
H1316 H 0.80404 0.85719 0.78296 0.0
H1317 H 0.70569 0.88406 0.75944 0.0
H1318 H 0.71032 0.00732 0.75897 0.0
H1319 H 0.74467 0.80952 0.74412 0.0
H1320 H 0.71667 0.81104 0.80022 0.0
H1321 H 0.72429 0.83803 0.828 0.0
H1322 H 0.81858 0.72652 0.83253 0.0
H1323 H 0.81187 0.69985 0.80469 0.0
C1324 C 0.72308 0.47921 0.76083 0.0
C1325 C 0.7483 0.43742 0.76911 0.0
C1326 C 0.72688 0.54961 0.75867 0.0
C1327 C 0.7563 0.57863 0.76439 0.0
C1328 C 0.78273 0.53651 0.77141 0.0
C1329 C 0.77863 0.46625 0.77389 0.0
C1330 C 0.75717 0.65177 0.7655 0.0
C1331 C 0.76186 0.67034 0.78098 0.0
C1332 C 0.75045 0.70221 0.75204 0.0
C1333 C 0.74567 0.68568 0.73534 0.0
C1334 C 0.77014 0.64707 0.72833 0.0
C1335 C 0.76533 0.63159 0.71262 0.0
C1336 C 0.73623 0.65474 0.70376 0.0
C1337 C 0.71192 0.69358 0.71058 0.0
C1338 C 0.7166 0.70917 0.72628 0.0
C1339 C 0.78497 0.95887 0.77856 0.0
C1340 C 0.75913 0.00197 0.77135 0.0
C1341 C 0.78288 0.88924 0.77831 0.0
C1342 C 0.75441 0.86168 0.7714 0.0
C1343 C 0.72785 0.90455 0.76484 0.0
C1344 C 0.73036 0.97452 0.76467 0.0
C1345 C 0.75362 0.78879 0.76998 0.0
C1346 C 0.74876 0.77029 0.75448 0.0
C1347 C 0.75997 0.73817 0.78345 0.0
C1348 C 0.76391 0.75401 0.80027 0.0
C1349 C 0.73918 0.79274 0.80708 0.0
C1350 C 0.74332 0.80792 0.82286 0.0
C1351 C 0.77194 0.78415 0.83201 0.0
C1352 C 0.79641 0.74489 0.82544 0.0
C1353 C 0.79242 0.72967 0.80966 0.0
H1354 H 0.77511 0.79602 0.84421 0.0
H1355 H 0.73256 0.6427 0.6916 0.0
H1356 H 0.48023 0.7349 0.53673 0.0
H1357 H 0.48035 0.61362 0.53588 0.0
H1358 H 0.57098 0.63541 0.50582 0.0
H1359 H 0.56972 0.75838 0.50596 0.0
H1360 H 0.52878 0.5669 0.49255 0.0
H1361 H 0.56582 0.55173 0.54867 0.0
H1362 H 0.56194 0.57447 0.577 0.0
H1363 H 0.46301 0.48005 0.58184 0.0
H1364 H 0.4662 0.45723 0.55352 0.0
H1365 H 0.57918 0.21879 0.50384 0.0
H1366 H 0.56921 0.34144 0.4997 0.0
H1367 H 0.47139 0.30938 0.52366 0.0
H1368 H 0.48185 0.18689 0.52835 0.0
H1369 H 0.51164 0.38308 0.53904 0.0
H1370 H 0.47925 0.38534 0.48353 0.0
H1371 H 0.48418 0.36295 0.45523 0.0
H1372 H 0.5766 0.48052 0.44917 0.0
H1373 H 0.57263 0.50257 0.4775 0.0
C1374 C 0.5007 0.71349 0.53031 0.0
C1375 C 0.52505 0.75541 0.52144 0.0
C1376 C 0.50068 0.64399 0.52976 0.0
C1377 C 0.52561 0.61507 0.52075 0.0
C1378 C 0.55128 0.65667 0.51273 0.0
C1379 C 0.55078 0.72658 0.51292 0.0
C1380 C 0.52344 0.54273 0.51861 0.0
C1381 C 0.52564 0.52648 0.50275 0.0
C1382 C 0.51779 0.49041 0.53183 0.0
C1383 C 0.51616 0.50325 0.54894 0.0
C1384 C 0.5432 0.53607 0.55576 0.0
C1385 C 0.54113 0.54892 0.57182 0.0
C1386 C 0.51223 0.52883 0.5812 0.0
C1387 C 0.48538 0.4956 0.57456 0.0
C1388 C 0.48734 0.48257 0.55853 0.0
C1389 C 0.55512 0.2379 0.50776 0.0
C1390 C 0.53155 0.19409 0.51671 0.0
C1391 C 0.54933 0.30788 0.50529 0.0
C1392 C 0.51963 0.33429 0.51146 0.0
C1393 C 0.49455 0.28978 0.51892 0.0
C1394 C 0.5006 0.22008 0.52165 0.0
C1395 C 0.51785 0.40702 0.51304 0.0
C1396 C 0.51473 0.42343 0.52882 0.0
C1397 C 0.52312 0.45913 0.49976 0.0
C1398 C 0.52578 0.44508 0.48274 0.0
C1399 C 0.50084 0.40579 0.47624 0.0
C1400 C 0.50343 0.39327 0.46017 0.0
C1401 C 0.53073 0.42011 0.45043 0.0
C1402 C 0.55549 0.45961 0.45673 0.0
C1403 C 0.55307 0.47217 0.4728 0.0
H1404 H 0.53266 0.41044 0.43799 0.0
H1405 H 0.51065 0.53892 0.59362 0.0
H1406 H 0.49366 0.68062 0.03342 0.0
H1407 H 0.48599 0.80386 0.02869 0.0
H1408 H 0.58206 0.82652 1.00284 0.0
H1409 H 0.58899 0.70309 1.00687 0.0
H1410 H 0.52535 0.88515 0.04148 0.0
H1411 H 0.58521 0.9772 0.97811 0.0
H1412 H 0.58889 0.94122 0.95101 0.0
H1413 H 0.49555 0.82828 0.96007 0.0
H1414 H 0.49111 0.86422 0.98714 0.0
H1415 H 0.56601 0.23614 0.03596 0.0
H1416 H 0.57028 0.1128 0.03548 0.0
H1417 H 0.49097 0.12768 0.99896 0.0
H1418 H 0.48814 0.25032 0.99888 0.0
H1419 H 0.5391 0.05068 0.99107 0.0
H1420 H 0.47513 0.06972 0.03989 0.0
H1421 H 0.46529 0.10647 0.06658 0.0
H1422 H 0.55432 -0.00361 0.08573 0.0
H1423 H 0.5649 0.95969 0.05908 0.0
C1424 C 0.51273 0.71196 0.02644 0.0
C1425 C 0.54214 0.68301 1.02071 0.0
C1426 C 0.50835 0.78208 0.02375 0.0
C1427 C 0.53357 0.82401 1.01552 0.0
C1428 C 0.56211 0.79489 1.00904 0.0
C1429 C 0.56615 0.72457 1.01144 0.0
C1430 C 0.53188 0.89789 1.01542 0.0
C1431 C 0.52808 0.92137 0.03043 0.0
C1432 C 0.53565 0.94476 1.00101 0.0
C1433 C 0.53804 0.92289 0.98473 0.0
C1434 C 0.56543 0.94483 0.97431 0.0
C1435 C 0.56766 0.92441 0.95895 0.0
C1436 C 0.54253 0.8823 0.95385 0.0
C1437 C 0.51508 0.86064 0.96407 0.0
C1438 C 0.51273 0.88091 0.97943 0.0
C1439 C 0.54969 0.21238 0.0279 0.0
C1440 C 0.52687 0.25124 1.01744 0.0
C1441 C 0.55202 0.14252 0.02762 0.0
C1442 C 0.53078 0.11146 1.01722 0.0
C1443 C 0.50776 0.15086 1.00693 0.0
C1444 C 0.50601 0.22045 1.00696 0.0
C1445 C 0.53188 0.0377 1.01707 0.0
C1446 C 0.5361 0.01428 1.00207 0.0
C1447 C 0.52743 -0.0092 0.03141 0.0
C1448 C 0.52098 0.01252 0.04746 0.0
C1449 C 0.49271 0.05373 0.04977 0.0
C1450 C 0.48699 0.07449 0.06489 0.0
C1451 C 0.50921 0.05392 0.07783 0.0
C1452 C 0.53715 0.01237 0.07569 0.0
C1453 C 0.54301 -0.00847 0.06059 0.0
H1454 H 0.50475 0.07005 0.08953 0.0
H1455 H 0.5443 0.86659 0.94195 0.0
H1456 H 0.38523 0.43713 0.03226 0.0
H1457 H 0.3311 0.37383 0.03559 0.0
H1458 H 0.3713 0.22763 1.00692 0.0
H1459 H 0.42394 0.29228 1.00281 0.0
H1460 H 0.31056 0.249 0.9983 0.0
H1461 H 0.36384 0.20458 0.05186 0.0
H1462 H 0.38764 0.23557 0.07725 0.0
H1463 H 0.29303 0.33188 0.08672 0.0
H1464 H 0.26883 0.30213 0.06131 0.0
H1465 H 0.1816 -0.00523 1.01773 0.0
H1466 H 0.23712 0.05336 1.01531 0.0
H1467 H 0.19839 0.20212 0.04361 0.0
H1468 H 0.14436 0.1428 0.04673 0.0
H1469 H 0.25882 0.17754 0.05255 0.0
H1470 H 0.20575 0.22715 0.99945 0.0
H1471 H 0.17974 0.19596 0.97454 0.0
H1472 H 0.27197 0.09326 0.9643 0.0
H1473 H 0.29837 0.1232 0.98924 0.0
C1474 C 0.3823 0.3917 0.02662 0.0
C1475 C 0.40883 0.37012 1.01719 0.0
C1476 C 0.35146 0.35509 0.02863 0.0
C1477 C 0.34706 0.29493 1.02172 0.0
C1478 C 0.37369 0.27378 1.01233 0.0
C1479 C 0.40394 0.31101 1.01 0.0
C1480 C 0.31498 0.25357 0.02399 0.0
C1481 C 0.29956 0.23282 1.01023 0.0
C1482 C 0.29983 0.23335 0.03943 0.0
C1483 C 0.31464 0.25158 0.05462 0.0
C1484 C 0.34822 0.23276 0.05931 0.0
C1485 C 0.36176 0.25007 0.07371 0.0
C1486 C 0.34185 0.28573 0.08359 0.0
C1487 C 0.30841 0.30427 0.07906 0.0
C1488 C 0.29478 0.28717 0.06467 0.0
C1489 C 0.18516 0.03954 0.02355 0.0
C1490 C 0.15846 0.06361 0.03248 0.0
C1491 C 0.21683 0.07342 0.02207 0.0
C1492 C 0.22199 0.13313 0.02907 0.0
C1493 C 0.19541 0.15623 0.03815 0.0
C1494 C 0.16429 0.12189 0.03991 0.0
C1495 C 0.25449 0.17306 0.02689 0.0
C1496 C 0.26995 0.19358 0.04064 0.0
C1497 C 0.26951 0.19355 1.01144 0.0
C1498 C 0.2539 0.17689 0.99627 0.0
C1499 C 0.22042 0.19772 0.9919 0.0
C1500 C 0.20561 0.18026 0.97779 0.0
C1501 C 0.22416 0.14251 0.96787 0.0
C1502 C 0.25762 0.12243 0.972 0.0
C1503 C 0.27253 0.13968 0.98611 0.0
H1504 H 0.21263 0.12891 0.95696 0.0
H1505 H 0.35219 0.29883 0.09478 0.0
H1506 H 0.89521 0.89163 0.04286 0.0
H1507 H 0.84278 0.82361 0.04675 0.0
H1508 H 0.8499 0.7818 0.99741 0.0
H1509 H 0.90124 0.85091 0.99326 0.0
H1510 H 0.78581 0.80075 1.00467 0.0
H1511 H 0.87988 0.66812 0.03109 0.0
H1512 H 0.92768 0.64854 0.05055 0.0
H1513 H 0.85894 0.66395 0.09011 0.0
H1514 H 0.81079 0.68431 0.07085 0.0
H1515 H 0.6759 0.51902 1.00875 0.0
H1516 H 0.72933 0.5839 1.00618 0.0
H1517 H 0.72006 0.61883 0.05597 0.0
H1518 H 0.66747 0.55276 0.0588 0.0
H1519 H 0.78481 0.6045 0.04917 0.0
H1520 H 0.69204 0.74021 0.02412 0.0
H1521 H 0.64341 0.76846 1.00553 0.0
H1522 H 0.70809 0.75252 0.96454 0.0
H1523 H 0.75721 0.72444 0.98292 0.0
C1524 C 0.88521 0.86908 0.03275 0.0
C1525 C 0.90272 0.87627 1.0178 0.0
C1526 C 0.85542 0.8296 0.03504 0.0
C1527 C 0.84282 0.79612 0.02249 0.0
C1528 C 0.85919 0.80656 1.00732 0.0
C1529 C 0.88871 0.84614 1.00499 0.0
C1530 C 0.81349 0.74802 0.02513 0.0
C1531 C 0.78582 0.75741 1.0143 0.0
C1532 C 0.813 0.69227 0.03792 0.0
C1533 C 0.8418 0.67826 0.04952 0.0
C1534 C 0.87499 0.66753 0.04393 0.0
C1535 C 0.90214 0.6563 0.05492 0.0
C1536 C 0.89636 0.65515 0.07155 0.0
C1537 C 0.86338 0.66489 0.07723 0.0
C1538 C 0.83615 0.67618 0.06628 0.0
C1539 C 0.68574 0.5388 1.01929 0.0
C1540 C 0.66711 0.53123 0.03392 0.0
C1541 C 0.71611 0.57663 1.01775 0.0
C1542 C 0.72826 0.60791 0.03075 0.0
C1543 C 0.71113 0.59583 0.04572 0.0
C1544 C 0.68094 0.55795 0.04729 0.0
C1545 C 0.75736 0.65676 0.02857 0.0
C1546 C 0.7849 0.64766 0.03951 0.0
C1547 C 0.75764 0.71321 1.01597 0.0
C1548 C 0.72817 0.72954 1.00489 0.0
C1549 C 0.69582 0.74227 1.01115 0.0
C1550 C 0.66818 0.75834 1.00065 0.0
C1551 C 0.67256 0.76183 0.98387 0.0
C1552 C 0.70469 0.74963 0.97754 0.0
C1553 C 0.73247 0.73385 0.98799 0.0
H1554 H 0.65111 0.77425 0.97576 0.0
H1555 H 0.91743 0.64662 0.08003 0.0
H1556 H 0.12052 0.31215 0.30754 0.0
H1557 H 0.06627 0.37291 0.30485 0.0
H1558 H 0.06083 0.34606 0.25438 0.0
H1559 H 0.11513 0.28425 0.25702 0.0
H1560 H 0.05433 0.49104 0.28652 0.0
H1561 H 0.97742 0.35033 0.24216 0.0
H1562 H 0.97009 0.23387 0.23573 0.0
H1563 H 0.99979 0.15106 0.28435 0.0
H1564 H 0.00684 0.26694 0.29113 0.0
H1565 H 0.88213 0.59804 0.24154 0.0
H1566 H 0.93513 0.53309 0.24514 0.0
H1567 H 0.93896 0.56321 0.29543 0.0
H1568 H 0.8861 0.62949 0.29185 0.0
H1569 H 0.94604 0.41587 0.26389 0.0
H1570 H 0.02303 0.55511 0.30842 0.0
H1571 H 0.02992 0.67092 0.31529 0.0
H1572 H 1.0005 0.75621 0.26679 0.0
H1573 H 0.99364 0.64094 0.25961 0.0
C1574 C 0.10749 0.31781 0.29592 0.0
C1575 C 0.12229 0.29333 0.28247 0.0
C1576 C 0.07651 0.35303 0.2944 0.0
C1577 C 0.05946 0.36452 0.27941 0.0
C1578 C 0.07329 0.33732 0.26613 0.0
C1579 C 0.10432 0.3017 0.26766 0.0
C1580 C 0.02845 0.40847 0.2775 0.0
C1581 C 0.03048 0.4742 0.28179 0.0
C1582 C 0.99755 0.38729 0.27098 0.0
C1583 C 0.99301 0.31735 0.26709 0.0
C1584 C 0.98227 0.30726 0.25149 0.0
C1585 C 0.97818 0.24135 0.24778 0.0
C1586 C 0.98459 0.18511 0.2596 0.0
C1587 C 0.99497 0.19466 0.27518 0.0
C1588 C 0.99907 0.26044 0.27896 0.0
C1589 C 0.89446 0.5918 0.25333 0.0
C1590 C 0.87976 0.61906 0.26641 0.0
C1591 C 0.92474 0.55429 0.25538 0.0
C1592 C 0.94113 0.54304 0.27055 0.0
C1593 C 0.92709 0.57182 0.28355 0.0
C1594 C 0.89683 0.60983 0.28147 0.0
C1595 C 0.97194 0.49858 0.27285 0.0
C1596 C 0.96987 0.43272 0.26863 0.0
C1597 C 1.00278 0.51962 0.27947 0.0
C1598 C 0.00731 0.5893 0.28356 0.0
C1599 C 0.01805 0.59858 0.29922 0.0
C1600 C 0.02195 0.66414 0.30317 0.0
C1601 C 0.01552 0.7209 0.29151 0.0
C1602 C 0.00529 0.7122 0.27585 0.0
C1603 C 1.0013 0.64674 0.27184 0.0
H1604 H 0.01855 0.77161 0.29458 0.0
H1605 H 0.98143 0.13413 0.2567 0.0
H1606 H 0.40978 0.84743 0.54467 0.0
H1607 H 0.35884 0.77437 0.54809 0.0
H1608 H 0.33504 0.83011 0.49724 0.0
H1609 H 0.38651 0.90125 0.49365 0.0
H1610 H 0.27782 0.83169 0.51946 0.0
H1611 H 0.36753 0.69061 0.50534 0.0
H1612 H 0.42162 0.6269 0.50595 0.0
H1613 H 0.39752 0.52313 0.55362 0.0
H1614 H 0.34351 0.58728 0.55346 0.0
H1615 H 0.16293 0.56661 0.50565 0.0
H1616 H 0.21634 0.63172 0.50357 0.0
H1617 H 0.22771 0.59237 0.55567 0.0
H1618 H 0.17348 0.52947 0.55792 0.0
H1619 H 0.29123 0.58146 0.53339 0.0
H1620 H 0.1972 0.72249 0.54522 0.0
H1621 H 0.14038 0.77416 0.54063 0.0
H1622 H 0.17278 0.87802 0.49418 0.0
H1623 H 0.22927 0.82299 0.49797 0.0
C1624 C 0.39326 0.84517 0.53432 0.0
C1625 C 0.40189 0.88039 0.51892 0.0
C1626 C 0.36444 0.80286 0.53624 0.0
C1627 C 0.34342 0.79631 0.52288 0.0
C1628 C 0.35103 0.83422 0.50768 0.0
C1629 C 0.3803 0.87505 0.50566 0.0
C1630 C 0.31369 0.74934 0.52466 0.0
C1631 C 0.28077 0.77696 0.52241 0.0
C1632 C 0.3176 0.67792 0.52862 0.0
C1633 C 0.35162 0.64454 0.52948 0.0
C1634 C 0.37408 0.65546 0.51612 0.0
C1635 C 0.40463 0.61886 0.51634 0.0
C1636 C 0.41285 0.57071 0.52977 0.0
C1637 C 0.39101 0.56029 0.5432 0.0
C1638 C 0.36047 0.59686 0.54307 0.0
C1639 C 0.17723 0.57029 0.51663 0.0
C1640 C 0.16409 0.54276 0.53195 0.0
C1641 C 0.2076 0.6079 0.51543 0.0
C1642 C 0.22574 0.61724 0.52947 0.0
C1643 C 0.214 0.58574 0.5447 0.0
C1644 C 0.1831 0.54978 0.54596 0.0
C1645 C 0.25551 0.66392 0.52833 0.0
C1646 C 0.28837 0.63627 0.53065 0.0
C1647 C 0.25159 0.73523 0.52419 0.0
C1648 C 0.21741 0.76758 0.52178 0.0
C1649 C 0.19207 0.75505 0.53386 0.0
C1650 C 0.15991 0.78524 0.53143 0.0
C1651 C 0.15305 0.82988 0.5172 0.0
C1652 C 0.17815 0.84344 0.50522 0.0
C1653 C 0.21018 0.81234 0.50744 0.0
H1654 H 0.12838 0.85428 0.51551 0.0
H1655 H 0.43601 0.54105 0.52972 0.0
H1656 H 0.88668 0.4287 0.53554 0.0
H1657 H 0.83286 0.36437 0.53906 0.0
H1658 H 0.86432 0.24626 0.50205 0.0
H1659 H 0.91638 0.31181 0.49787 0.0
H1660 H 0.80204 0.2707 0.49783 0.0
H1661 H 0.86992 0.19292 0.54613 0.0
H1662 H 0.90104 0.20839 0.57112 0.0
H1663 H 0.80977 0.28362 0.59092 0.0
H1664 H 0.77823 0.26963 0.56594 0.0
H1665 H 0.67915 0.00482 0.51271 0.0
H1666 H 0.73476 0.06303 0.51057 0.0
H1667 H 0.70409 0.18009 0.54791 0.0
H1668 H 0.6504 0.1205 0.55079 0.0
H1669 H 0.76624 0.15538 0.55219 0.0
H1670 H 0.69903 0.23895 0.50414 0.0
H1671 H 0.66679 0.22531 0.47933 0.0
H1672 H 0.75571 0.14164 0.45938 0.0
H1673 H 0.78835 0.1542 0.48415 0.0
C1674 C 0.88184 0.38951 0.52806 0.0
C1675 C 0.90597 0.37561 0.51644 0.0
C1676 C 0.85121 0.35225 0.53017 0.0
C1677 C 0.84467 0.29927 0.52102 0.0
C1678 C 0.86854 0.28663 0.50927 0.0
C1679 C 0.89853 0.32442 0.50693 0.0
C1680 C 0.81342 0.25592 0.5235 0.0
C1681 C 0.79449 0.24501 0.50974 0.0
C1682 C 0.80289 0.2232 0.53901 0.0
C1683 C 0.82182 0.23083 0.5541 0.0
C1684 C 0.85655 0.21312 0.55577 0.0
C1685 C 0.87425 0.22163 0.56993 0.0
C1686 C 0.8574 0.24711 0.58257 0.0
C1687 C 0.82279 0.264 0.58111 0.0
C1688 C 0.80499 0.25578 0.56695 0.0
C1689 C 0.68459 0.0421 0.52063 0.0
C1690 C 0.66001 0.05789 0.53183 0.0
C1691 C 0.71628 0.0759 0.51931 0.0
C1692 C 0.72348 0.12736 0.52884 0.0
C1693 C 0.69944 0.14086 0.54041 0.0
C1694 C 0.6684 0.10645 0.54197 0.0
C1695 C 0.75503 0.16995 0.52651 0.0
C1696 C 0.77392 0.1809 0.54029 0.0
C1697 C 0.76544 0.20311 0.51103 0.0
C1698 C 0.74601 0.19697 0.49603 0.0
C1699 C 0.71165 0.21748 0.49447 0.0
C1700 C 0.69331 0.20993 0.48042 0.0
C1701 C 0.70917 0.18247 0.4678 0.0
C1702 C 0.74344 0.16282 0.46917 0.0
C1703 C 0.76188 0.17021 0.48319 0.0
H1704 H 0.69491 0.17651 0.45695 0.0
H1705 H 0.87116 0.25358 0.59351 0.0
H1706 H 0.8723 0.06226 0.74722 0.0
H1707 H 0.92384 -0.00539 0.75195 0.0
H1708 H 0.95221 0.10428 0.79089 0.0
H1709 H 0.8994 0.17225 0.78658 0.0
H1710 H 0.00702 0.07629 0.76486 0.0
H1711 H 0.92687 0.97316 0.80408 0.0
H1712 H 0.87092 0.92724 0.81395 0.0
H1713 H 0.87778 0.77335 0.78294 0.0
H1714 H 0.93328 0.8198 0.7724 0.0
H1715 H 0.1193 0.81535 0.80677 0.0
H1716 H 0.06734 0.88265 0.803 0.0
H1717 H 0.05522 0.8291 0.755 0.0
H1718 H 0.10866 0.76325 0.75829 0.0
H1719 H 0.99306 0.83132 0.78668 0.0
H1720 H 0.06924 0.95008 0.74435 0.0
H1721 H 0.12361 0.00221 0.73398 0.0
H1722 H 0.12329 0.12893 0.77157 0.0
H1723 H 0.06939 0.07595 0.78245 0.0
C1724 C 0.88943 0.07303 0.75674 0.0
C1725 C 0.88145 0.12303 0.76655 0.0
C1726 C 0.91897 0.03389 0.75942 0.0
C1727 C 0.94169 0.04412 0.77179 0.0
C1728 C 0.93487 0.09572 0.78125 0.0
C1729 C 0.90474 0.13446 0.77877 0.0
C1730 C 0.97168 -0.00164 0.77495 0.0
C1731 C 1.00405 0.02295 0.76982 0.0
C1732 C 0.96762 0.92846 0.78113 0.0
C1733 C 0.93416 0.90044 0.78734 0.0
C1734 C 0.91629 0.93011 0.79919 0.0
C1735 C 0.88472 0.9039 0.80494 0.0
C1736 C 0.87099 0.84727 0.79915 0.0
C1737 C 0.88857 0.81712 0.78745 0.0
C1738 C 0.92006 0.84348 0.78155 0.0
C1739 C 0.10558 0.81676 0.79541 0.0
C1740 C 0.11862 0.78407 0.78274 0.0
C1741 C 0.07582 0.8557 0.7933 0.0
C1742 C 0.05792 0.86214 0.77861 0.0
C1743 C 0.06913 0.82567 0.76634 0.0
C1744 C 0.09946 0.78739 0.76832 0.0
C1745 C 0.02821 0.90894 0.77621 0.0
C1746 C 0.99595 0.88461 0.78166 0.0
C1747 C 0.03233 -0.02094 0.77032 0.0
C1748 C 0.06569 0.008 0.76441 0.0
C1749 C 0.0812 -0.01221 0.75065 0.0
C1750 C 0.11183 0.01779 0.74462 0.0
C1751 C 0.12691 0.06877 0.75211 0.0
C1752 C 0.11163 0.08931 0.76578 0.0
C1753 C 0.08111 0.05915 0.77192 0.0
H1754 H 0.15028 0.0927 0.74724 0.0
H1755 H 0.84676 0.82678 0.80377 0.0
H1756 H 0.60481 0.24871 0.76399 0.0
H1757 H 0.55011 0.31025 0.76156 0.0
H1758 H 0.58285 0.42818 0.79839 0.0
H1759 H 0.63548 0.36503 0.80161 0.0
H1760 H 0.52168 0.40704 0.80328 0.0
H1761 H 0.58532 0.48464 0.75417 0.0
H1762 H 0.61585 0.47043 0.72892 0.0
H1763 H 0.52521 0.38761 0.71032 0.0
H1764 H 0.49427 0.40067 0.73555 0.0
H1765 H 0.40173 0.68331 0.78668 0.0
H1766 H 0.45504 0.61689 0.78999 0.0
H1767 H 0.41901 0.49239 0.75514 0.0
H1768 H 0.36746 0.5596 0.75122 0.0
H1769 H 0.48145 0.51609 0.74918 0.0
H1770 H 0.41823 0.44794 0.80026 0.0
H1771 H 0.39189 0.46965 0.82602 0.0
H1772 H 0.48741 0.54619 0.84111 0.0
H1773 H 0.51413 0.52602 0.8154 0.0
C1774 C 0.59999 0.28695 0.77173 0.0
C1775 C 0.6248 0.30161 0.78296 0.0
C1776 C 0.56884 0.3228 0.77022 0.0
C1777 C 0.56236 0.37527 0.77956 0.0
C1778 C 0.58681 0.38818 0.79103 0.0
C1779 C 0.61726 0.35169 0.79281 0.0
C1780 C 0.53082 0.41836 0.77745 0.0
C1781 C 0.51312 0.43121 0.79141 0.0
C1782 C 0.51917 0.45 0.76204 0.0
C1783 C 0.53761 0.44299 0.7468 0.0
C1784 C 0.57197 0.46312 0.74472 0.0
C1785 C 0.58934 0.45529 0.73042 0.0
C1786 C 0.57251 0.42795 0.71805 0.0
C1787 C 0.53823 0.40867 0.71993 0.0
C1788 C 0.52076 0.41632 0.73422 0.0
C1789 C 0.40544 0.64209 0.77967 0.0
C1790 C 0.38037 0.62747 0.76858 0.0
C1791 C 0.4358 0.60366 0.78165 0.0
C1792 C 0.4411 0.54864 0.77295 0.0
C1793 C 0.41596 0.53451 0.76194 0.0
C1794 C 0.38628 0.57338 0.75972 0.0
C1795 C 0.47242 0.50493 0.77504 0.0
C1796 C 0.49 0.49181 0.76104 0.0
C1797 C 0.48445 0.47425 0.79045 0.0
C1798 C 0.46807 0.48602 0.80586 0.0
C1799 C 0.43352 0.46977 0.80904 0.0
C1800 C 0.41855 0.48179 0.82363 0.0
C1801 C 0.43802 0.50938 0.83514 0.0
C1802 C 0.47241 0.52494 0.83215 0.0
C1803 C 0.48745 0.51325 0.81759 0.0
H1804 H 0.42662 0.5187 0.84642 0.0
H1805 H 0.58601 0.42183 0.70699 0.0
H1806 H 0.65031 0.91146 0.26927 0.0
H1807 H 0.59726 0.97688 0.26753 0.0
H1808 H 0.54303 0.79939 0.29082 0.0
H1809 H 0.59636 0.73307 0.29192 0.0
H1810 H 0.50447 0.86072 0.26861 0.0
H1811 H 0.56661 0.94067 0.31175 0.0
H1812 H 0.61264 -0.00872 0.32634 0.0
H1813 H 0.61104 0.17093 0.29059 0.0
H1814 H 0.56511 0.12137 0.27577 0.0
H1815 H 0.38688 0.14607 0.29322 0.0
H1816 H 0.43953 0.07902 0.29755 0.0
H1817 H 0.44103 0.05611 0.24677 0.0
H1818 H 0.38836 0.12181 0.24242 0.0
H1819 H 0.50285 0.08868 0.28622 0.0
H1820 H 0.46649 0.89797 0.24237 0.0
H1821 H 0.4141 0.85071 0.23188 0.0
H1822 H 0.35928 0.88622 0.27456 0.0
H1823 H 0.41138 0.9326 0.28542 0.0
C1824 C 0.62687 0.8863 0.27377 0.0
C1825 C 0.62711 0.81727 0.28053 0.0
C1826 C 0.59664 0.92392 0.27301 0.0
C1827 C 0.56609 0.89378 0.27939 0.0
C1828 C 0.56622 0.82405 0.28586 0.0
C1829 C 0.59655 0.78604 0.28644 0.0
C1830 C 0.53412 0.93499 0.27903 0.0
C1831 C 0.50423 0.91043 0.27252 0.0
C1832 C 0.53322 -0.00042 0.28439 0.0
C1833 C 0.56251 0.02719 0.29263 0.0
C1834 C 0.57631 -0.00933 0.30692 0.0
C1835 C 0.60218 0.01944 0.3153 0.0
C1836 C 0.61442 0.08464 0.30948 0.0
C1837 C 0.60127 0.12074 0.29515 0.0
C1838 C 0.57533 0.09238 0.28677 0.0
C1839 C 0.39879 0.12781 0.28293 0.0
C1840 C 0.38328 0.13878 0.26751 0.0
C1841 C 0.42879 0.08919 0.28543 0.0
C1842 C 0.44377 0.06105 0.27257 0.0
C1843 C 0.42946 0.07569 0.25697 0.0
C1844 C 0.39945 0.11371 0.25449 0.0
C1845 C 0.47388 0.01517 0.27542 0.0
C1846 C 0.50327 0.03883 0.28237 0.0
C1847 C 0.47404 0.94923 0.27085 0.0
C1848 C 0.44282 0.91927 0.26464 0.0
C1849 C 0.44332 0.89522 0.24957 0.0
C1850 C 0.41364 0.86867 0.24355 0.0
C1851 C 0.38334 0.86562 0.25253 0.0
C1852 C 0.3827 0.88876 0.2676 0.0
C1853 C 0.4123 0.9152 0.27368 0.0
H1854 H 0.36036 0.84525 0.24784 0.0
H1855 H 0.63437 0.10711 0.31594 0.0
loop_
_geom_bond_atom_site_label_1
_geom_bond_atom_site_label_2
_geom_bond_distance
_geom_bond_site_symmetry_2
_ccdc_geom_bond_type
Co0 H3 2.400 1_565 S
Co0 O4 2.009 1_565 S
Co0 O12 2.115 . S
Co0 O13 2.315 1_565 S
Co0 O24 2.053 . S
Co0 O27 2.094 1_655 S
Co0 O30 2.122 1_655 S
Co1 O4 2.126 1_455 S
Co1 H5 2.388 1_546 S
Co1 O6 2.053 1_546 S
Co1 O9 2.047 . S
Co1 O15 2.113 . S
Co1 O26 2.063 . S
Co2 H3 2.388 1_564 S
Co2 O4 2.053 1_564 S
Co2 O6 2.126 1_655 S
Co2 O11 2.063 . S
Co2 O25 2.047 . S
Co2 O31 2.113 . S
H3 Co0 2.400 1_545 S
H3 Co2 2.388 1_546 S
H3 O4 0.760 . S
O4 Co0 2.009 1_545 S
O4 Co1 2.126 1_655 S
O4 Co2 2.053 1_546 S
O4 H3 0.760 . S
H5 Co1 2.388 1_564 S
H5 O6 0.760 . S
H5 Co7 2.400 1_565 S
O6 Co1 2.053 1_564 S
O6 Co2 2.126 1_455 S
O6 H5 0.760 . S
O6 Co7 2.009 1_565 S
Co7 H5 2.400 1_545 S
Co7 O6 2.009 1_545 S
Co7 O8 2.053 . S
Co7 O10 2.094 . S
Co7 O14 2.122 . S
Co7 O28 2.115 . S
Co7 O29 2.315 1_545 S
O8 Co7 2.053 . S
O8 C20 1.259 . S
O9 Co1 2.047 . S
O9 C20 1.257 1_556 S
O10 Co7 2.094 . S
O10 C21 1.253 1_445 S
O11 Co2 2.063 . S
O11 C21 1.268 . S
O12 Co0 2.115 . S
O12 C22 1.281 . S
O13 Co0 2.315 1_545 S
O13 C22 1.252 1_545 S
O14 Co7 2.122 . S
O14 C23 1.272 . S
O15 Co1 2.113 . S
O15 C23 1.245 1_556 S
C16 O24 1.259 . S
C16 O25 1.257 1_556 S
C17 O26 1.268 . S
C17 O27 1.253 1_545 S
C18 O28 1.281 . S
C18 O29 1.252 1_545 S
C19 O30 1.273 1_554 S
C19 O31 1.244 1_455 S
C20 O8 1.259 . S
C20 O9 1.257 1_554 S
C21 O10 1.253 1_665 S
C21 O11 1.268 . S
C22 O12 1.281 . S
C22 O13 1.252 1_565 S
C23 O14 1.272 . S
C23 O15 1.245 1_554 S
O24 Co0 2.053 . S
O24 C16 1.259 . S
O25 Co2 2.047 . S
O25 C16 1.257 1_554 S
O26 Co1 2.063 . S
O26 C17 1.268 . S
O27 Co0 2.094 1_455 S
O27 C17 1.253 1_565 S
O28 Co7 2.115 . S
O28 C18 1.281 . S
O29 Co7 2.315 1_565 S
O29 C18 1.252 1_565 S
O30 Co0 2.122 1_455 S
O30 C19 1.273 1_556 S
O31 Co2 2.113 . S
O31 C19 1.244 1_655 S
Co32 H35 2.400 . S
Co32 O36 2.009 . S
Co32 O44 2.115 . S
Co32 O45 2.315 . S
Co32 O56 2.053 . S
Co32 O59 2.094 . S
Co32 O62 2.122 . S
Co33 O36 2.126 . S
Co33 H37 2.388 . S
Co33 O38 2.053 . S
Co33 O41 2.047 . S
Co33 O47 2.113 . S
Co33 O58 2.063 . S
Co34 H35 2.388 . S
Co34 O36 2.053 . S
Co34 O38 2.126 . S
Co34 O43 2.063 . S
Co34 O57 2.047 . S
Co34 O63 2.113 . S
H35 Co32 2.400 . S
H35 Co34 2.388 . S
H35 O36 0.760 . S
O36 Co32 2.009 . S
O36 Co33 2.126 . S
O36 Co34 2.053 . S
O36 H35 0.760 . S
H37 Co33 2.388 . S
H37 O38 0.760 . S
H37 Co39 2.400 . S
O38 Co33 2.053 . S
O38 Co34 2.126 . S
O38 H37 0.760 . S
O38 Co39 2.009 . S
Co39 H37 2.400 . S
Co39 O38 2.009 . S
Co39 O40 2.053 . S
Co39 O42 2.094 . S
Co39 O46 2.122 . S
Co39 O60 2.115 . S
Co39 O61 2.315 . S
O40 Co39 2.053 . S
O40 C52 1.259 . S
O41 Co33 2.047 . S
O41 C52 1.257 . S
O42 Co39 2.094 . S
O42 C53 1.253 . S
O43 Co34 2.063 . S
O43 C53 1.268 . S
O44 Co32 2.115 . S
O44 C54 1.281 . S
O45 Co32 2.315 . S
O45 C54 1.252 . S
O46 Co39 2.122 . S
O46 C55 1.272 . S
O47 Co33 2.113 . S
O47 C55 1.245 . S
C48 O56 1.259 . S
C48 O57 1.257 . S
C49 O58 1.268 . S
C49 O59 1.253 . S
C50 O60 1.281 . S
C50 O61 1.252 . S
C51 O62 1.272 . S
C51 O63 1.245 . S
C52 O40 1.259 . S
C52 O41 1.257 . S
C53 O42 1.253 . S
C53 O43 1.268 . S
C54 O44 1.281 . S
C54 O45 1.252 . S
C55 O46 1.272 . S
C55 O47 1.245 . S
O56 Co32 2.053 . S
O56 C48 1.259 . S
O57 Co34 2.047 . S
O57 C48 1.257 . S
O58 Co33 2.063 . S
O58 C49 1.268 . S
O59 Co32 2.094 . S
O59 C49 1.253 . S
O60 Co39 2.115 . S
O60 C50 1.281 . S
O61 Co39 2.315 . S
O61 C50 1.252 . S
O62 Co32 2.122 . S
O62 C51 1.272 . S
O63 Co34 2.113 . S
O63 C51 1.245 . S
Co64 H67 2.400 . S
Co64 O68 2.009 . S
Co64 O76 2.115 . S
Co64 O77 2.315 . S
Co64 O88 2.053 . S
Co64 O91 2.094 . S
Co64 O94 2.122 . S
Co65 O68 2.126 . S
Co65 H69 2.388 . S
Co65 O70 2.053 . S
Co65 O73 2.047 . S
Co65 O79 2.113 . S
Co65 O90 2.063 . S
Co66 H67 2.388 . S
Co66 O68 2.053 . S
Co66 O70 2.126 . S
Co66 O75 2.063 . S
Co66 O89 2.047 . S
Co66 O95 2.113 . S
H67 Co64 2.400 . S
H67 Co66 2.388 . S
H67 O68 0.760 . S
O68 Co64 2.009 . S
O68 Co65 2.126 . S
O68 Co66 2.053 . S
O68 H67 0.760 . S
H69 Co65 2.388 . S
H69 O70 0.760 . S
H69 Co71 2.400 . S
O70 Co65 2.053 . S
O70 Co66 2.126 . S
O70 H69 0.760 . S
O70 Co71 2.009 . S
Co71 H69 2.400 . S
Co71 O70 2.009 . S
Co71 O72 2.053 . S
Co71 O74 2.094 . S
Co71 O78 2.122 . S
Co71 O92 2.115 . S
Co71 O93 2.315 . S
O72 Co71 2.053 . S
O72 C84 1.259 . S
O73 Co65 2.047 . S
O73 C84 1.257 . S
O74 Co71 2.094 . S
O74 C85 1.253 . S
O75 Co66 2.063 . S
O75 C85 1.268 . S
O76 Co64 2.115 . S
O76 C86 1.281 . S
O77 Co64 2.315 . S
O77 C86 1.252 . S
O78 Co71 2.122 . S
O78 C87 1.272 . S
O79 Co65 2.113 . S
O79 C87 1.245 . S
C80 O88 1.259 . S
C80 O89 1.257 . S
C81 O90 1.268 . S
C81 O91 1.253 . S
C82 O92 1.281 . S
C82 O93 1.252 . S
C83 O94 1.272 . S
C83 O95 1.245 . S
C84 O72 1.259 . S
C84 O73 1.257 . S
C85 O74 1.253 . S
C85 O75 1.268 . S
C86 O76 1.281 . S
C86 O77 1.252 . S
C87 O78 1.272 . S
C87 O79 1.245 . S
O88 Co64 2.053 . S
O88 C80 1.259 . S
O89 Co66 2.047 . S
O89 C80 1.257 . S
O90 Co65 2.063 . S
O90 C81 1.268 . S
O91 Co64 2.094 . S
O91 C81 1.253 . S
O92 Co71 2.115 . S
O92 C82 1.281 . S
O93 Co71 2.315 . S
O93 C82 1.252 . S
O94 Co64 2.122 . S
O94 C83 1.272 . S
O95 Co66 2.113 . S
O95 C83 1.245 . S
Co96 H99 2.400 . S
Co96 O100 2.009 . S
Co96 O108 2.115 . S
Co96 O109 2.315 . S
Co96 O120 2.053 . S
Co96 O123 2.094 1_655 S
Co96 O126 2.122 1_655 S
Co97 O100 2.126 1_455 S
Co97 H101 2.388 . S
Co97 O102 2.053 . S
Co97 O105 2.047 . S
Co97 O111 2.113 . S
Co97 O122 2.063 . S
Co98 H99 2.388 . S
Co98 O100 2.053 . S
Co98 O102 2.126 1_655 S
Co98 O107 2.063 . S
Co98 O121 2.047 . S
Co98 O127 2.113 . S
H99 Co96 2.400 . S
H99 Co98 2.388 . S
H99 O100 0.760 . S
O100 Co96 2.009 . S
O100 Co97 2.126 1_655 S
O100 Co98 2.053 . S
O100 H99 0.760 . S
H101 Co97 2.388 . S
H101 O102 0.760 . S
H101 Co103 2.400 . S
O102 Co97 2.053 . S
O102 Co98 2.126 1_455 S
O102 H101 0.760 . S
O102 Co103 2.009 . S
Co103 H101 2.400 . S
Co103 O102 2.009 . S
Co103 O104 2.053 . S
Co103 O106 2.094 . S
Co103 O110 2.122 . S
Co103 O124 2.115 . S
Co103 O125 2.315 . S
O104 Co103 2.053 . S
O104 C116 1.259 . S
O105 Co97 2.047 . S
O105 C116 1.257 . S
O106 Co103 2.094 . S
O106 C117 1.253 1_455 S
O107 Co98 2.063 . S
O107 C117 1.268 . S
O108 Co96 2.115 . S
O108 C118 1.281 . S
O109 Co96 2.315 . S
O109 C118 1.252 . S
O110 Co103 2.122 . S
O110 C119 1.272 . S
O111 Co97 2.113 . S
O111 C119 1.245 . S
C112 O120 1.259 . S
C112 O121 1.257 . S
C113 O122 1.268 . S
C113 O123 1.253 . S
C114 O124 1.281 . S
C114 O125 1.252 . S
C115 O126 1.272 . S
C115 O127 1.245 1_455 S
C116 O104 1.259 . S
C116 O105 1.257 . S
C117 O106 1.253 1_655 S
C117 O107 1.268 . S
C118 O108 1.281 . S
C118 O109 1.252 . S
C119 O110 1.272 . S
C119 O111 1.245 . S
O120 Co96 2.053 . S
O120 C112 1.259 . S
O121 Co98 2.047 . S
O121 C112 1.257 . S
O122 Co97 2.063 . S
O122 C113 1.268 . S
O123 Co96 2.094 1_455 S
O123 C113 1.253 . S
O124 Co103 2.115 . S
O124 C114 1.281 . S
O125 Co103 2.315 . S
O125 C114 1.252 . S
O126 Co96 2.122 1_455 S
O126 C115 1.272 . S
O127 Co98 2.113 . S
O127 C115 1.245 1_655 S
Co128 H131 2.400 . S
Co128 O132 2.009 . S
Co128 O140 2.115 . S
Co128 O141 2.315 . S
Co128 O152 2.053 . S
Co128 O155 2.094 . S
Co128 O158 2.122 . S
Co129 O132 2.126 . S
Co129 H133 2.388 . S
Co129 O134 2.053 . S
Co129 O137 2.047 . S
Co129 O143 2.113 . S
Co129 O154 2.063 . S
Co130 H131 2.388 . S
Co130 O132 2.053 . S
Co130 O134 2.126 . S
Co130 O139 2.063 . S
Co130 O153 2.047 . S
Co130 O159 2.113 . S
H131 Co128 2.400 . S
H131 Co130 2.388 . S
H131 O132 0.760 . S
O132 Co128 2.009 . S
O132 Co129 2.126 . S
O132 Co130 2.053 . S
O132 H131 0.760 . S
H133 Co129 2.388 . S
H133 O134 0.760 . S
H133 Co135 2.400 . S
O134 Co129 2.053 . S
O134 Co130 2.126 . S
O134 H133 0.760 . S
O134 Co135 2.009 . S
Co135 H133 2.400 . S
Co135 O134 2.009 . S
Co135 O136 2.053 . S
Co135 O138 2.094 . S
Co135 O142 2.122 . S
Co135 O156 2.115 . S
Co135 O157 2.315 . S
O136 Co135 2.053 . S
O136 C148 1.259 . S
O137 Co129 2.047 . S
O137 C148 1.257 . S
O138 Co135 2.094 . S
O138 C149 1.253 . S
O139 Co130 2.063 . S
O139 C149 1.268 . S
O140 Co128 2.115 . S
O140 C150 1.281 . S
O141 Co128 2.315 . S
O141 C150 1.252 . S
O142 Co135 2.122 . S
O142 C151 1.272 . S
O143 Co129 2.113 . S
O143 C151 1.245 . S
C144 O152 1.259 . S
C144 O153 1.257 . S
C145 O154 1.268 . S
C145 O155 1.253 . S
C146 O156 1.281 . S
C146 O157 1.252 . S
C147 O158 1.272 . S
C147 O159 1.245 . S
C148 O136 1.259 . S
C148 O137 1.257 . S
C149 O138 1.253 . S
C149 O139 1.268 . S
C150 O140 1.281 . S
C150 O141 1.252 . S
C151 O142 1.272 . S
C151 O143 1.245 . S
O152 Co128 2.053 . S
O152 C144 1.259 . S
O153 Co130 2.047 . S
O153 C144 1.257 . S
O154 Co129 2.063 . S
O154 C145 1.268 . S
O155 Co128 2.094 . S
O155 C145 1.253 . S
O156 Co135 2.115 . S
O156 C146 1.281 . S
O157 Co135 2.315 . S
O157 C146 1.252 . S
O158 Co128 2.122 . S
O158 C147 1.272 . S
O159 Co130 2.113 . S
O159 C147 1.245 . S
Co160 H163 2.400 . S
Co160 O164 2.009 . S
Co160 O172 2.115 . S
Co160 O173 2.315 . S
Co160 O184 2.053 . S
Co160 O187 2.094 . S
Co160 O190 2.122 . S
Co161 O164 2.126 . S
Co161 H165 2.388 . S
Co161 O166 2.053 . S
Co161 O169 2.047 . S
Co161 O175 2.113 . S
Co161 O186 2.063 . S
Co162 H163 2.388 . S
Co162 O164 2.053 . S
Co162 O166 2.126 . S
Co162 O171 2.063 . S
Co162 O185 2.047 . S
Co162 O191 2.113 . S
H163 Co160 2.400 . S
H163 Co162 2.388 . S
H163 O164 0.760 . S
O164 Co160 2.009 . S
O164 Co161 2.126 . S
O164 Co162 2.053 . S
O164 H163 0.760 . S
H165 Co161 2.388 . S
H165 O166 0.760 . S
H165 Co167 2.400 . S
O166 Co161 2.053 . S
O166 Co162 2.126 . S
O166 H165 0.760 . S
O166 Co167 2.009 . S
Co167 H165 2.400 . S
Co167 O166 2.009 . S
Co167 O168 2.053 . S
Co167 O170 2.094 . S
Co167 O174 2.122 . S
Co167 O188 2.115 . S
Co167 O189 2.315 . S
O168 Co167 2.053 . S
O168 C180 1.259 . S
O169 Co161 2.047 . S
O169 C180 1.257 . S
O170 Co167 2.094 . S
O170 C181 1.253 . S
O171 Co162 2.063 . S
O171 C181 1.268 . S
O172 Co160 2.115 . S
O172 C182 1.281 . S
O173 Co160 2.315 . S
O173 C182 1.252 . S
O174 Co167 2.122 . S
O174 C183 1.272 . S
O175 Co161 2.113 . S
O175 C183 1.245 . S
C176 O184 1.259 . S
C176 O185 1.257 . S
C177 O186 1.268 . S
C177 O187 1.253 . S
C178 O188 1.281 . S
C178 O189 1.252 . S
C179 O190 1.272 . S
C179 O191 1.245 . S
C180 O168 1.259 . S
C180 O169 1.257 . S
C181 O170 1.253 . S
C181 O171 1.268 . S
C182 O172 1.281 . S
C182 O173 1.252 . S
C183 O174 1.272 . S
C183 O175 1.245 . S
O184 Co160 2.053 . S
O184 C176 1.259 . S
O185 Co162 2.047 . S
O185 C176 1.257 . S
O186 Co161 2.063 . S
O186 C177 1.268 . S
O187 Co160 2.094 . S
O187 C177 1.253 . S
O188 Co167 2.115 . S
O188 C178 1.281 . S
O189 Co167 2.315 . S
O189 C178 1.252 . S
O190 Co160 2.122 . S
O190 C179 1.272 . S
O191 Co162 2.113 . S
O191 C179 1.245 . S
Co192 H195 2.400 1_565 S
Co192 O196 2.009 1_565 S
Co192 O204 2.115 . S
Co192 O205 2.315 1_565 S
Co192 O216 2.053 . S
Co192 O219 2.094 . S
Co192 O222 2.122 . S
Co193 O196 2.126 . S
Co193 H197 2.388 1_545 S
Co193 O198 2.053 1_545 S
Co193 O201 2.047 . S
Co193 O207 2.113 . S
Co193 O218 2.063 . S
Co194 H195 2.388 1_565 S
Co194 O196 2.053 1_565 S
Co194 O198 2.126 . S
Co194 O203 2.063 . S
Co194 O217 2.047 . S
Co194 O223 2.113 . S
H195 Co192 2.400 1_545 S
H195 Co194 2.388 1_545 S
H195 O196 0.760 . S
O196 Co192 2.009 1_545 S
O196 Co193 2.126 . S
O196 Co194 2.053 1_545 S
O196 H195 0.760 . S
H197 Co193 2.388 1_565 S
H197 O198 0.760 . S
H197 Co199 2.400 1_565 S
O198 Co193 2.053 1_565 S
O198 Co194 2.126 . S
O198 H197 0.760 . S
O198 Co199 2.009 1_565 S
Co199 H197 2.400 1_545 S
Co199 O198 2.009 1_545 S
Co199 O200 2.053 . S
Co199 O202 2.094 . S
Co199 O206 2.122 . S
Co199 O220 2.115 . S
Co199 O221 2.315 1_545 S
O200 Co199 2.053 . S
O200 C212 1.259 . S
O201 Co193 2.047 . S
O201 C212 1.257 . S
O202 Co199 2.094 . S
O202 C213 1.253 1_545 S
O203 Co194 2.063 . S
O203 C213 1.268 . S
O204 Co192 2.115 . S
O204 C214 1.281 . S
O205 Co192 2.315 1_545 S
O205 C214 1.252 1_545 S
O206 Co199 2.122 . S
O206 C215 1.272 . S
O207 Co193 2.113 . S
O207 C215 1.245 . S
C208 O216 1.259 . S
C208 O217 1.257 . S
C209 O218 1.268 . S
C209 O219 1.253 1_545 S
C210 O220 1.281 . S
C210 O221 1.252 1_545 S
C211 O222 1.272 . S
C211 O223 1.245 . S
C212 O200 1.259 . S
C212 O201 1.257 . S
C213 O202 1.253 1_565 S
C213 O203 1.268 . S
C214 O204 1.281 . S
C214 O205 1.252 1_565 S
C215 O206 1.272 . S
C215 O207 1.245 . S
O216 Co192 2.053 . S
O216 C208 1.259 . S
O217 Co194 2.047 . S
O217 C208 1.257 . S
O218 Co193 2.063 . S
O218 C209 1.268 . S
O219 Co192 2.094 . S
O219 C209 1.253 1_565 S
O220 Co199 2.115 . S
O220 C210 1.281 . S
O221 Co199 2.315 1_565 S
O221 C210 1.252 1_565 S
O222 Co192 2.122 . S
O222 C211 1.272 . S
O223 Co194 2.113 . S
O223 C211 1.245 . S
Co224 H227 2.400 . S
Co224 O228 2.009 . S
Co224 O236 2.115 . S
Co224 O237 2.315 . S
Co224 O248 2.053 . S
Co224 O251 2.094 . S
Co224 O254 2.122 . S
Co225 O228 2.126 . S
Co225 H229 2.388 1_556 S
Co225 O230 2.053 1_556 S
Co225 O233 2.047 . S
Co225 O239 2.113 . S
Co225 O250 2.063 . S
Co226 H227 2.388 1_554 S
Co226 O228 2.053 1_554 S
Co226 O230 2.126 . S
Co226 O235 2.063 . S
Co226 O249 2.047 . S
Co226 O255 2.113 . S
H227 Co224 2.400 . S
H227 Co226 2.388 1_556 S
H227 O228 0.760 . S
O228 Co224 2.009 . S
O228 Co225 2.126 . S
O228 Co226 2.053 1_556 S
O228 H227 0.760 . S
H229 Co225 2.388 1_554 S
H229 O230 0.760 . S
H229 Co231 2.400 . S
O230 Co225 2.053 1_554 S
O230 Co226 2.126 . S
O230 H229 0.760 . S
O230 Co231 2.009 . S
Co231 H229 2.400 . S
Co231 O230 2.009 . S
Co231 O232 2.053 . S
Co231 O234 2.094 . S
Co231 O238 2.122 . S
Co231 O252 2.115 . S
Co231 O253 2.315 . S
O232 Co231 2.053 . S
O232 C244 1.259 . S
O233 Co225 2.047 . S
O233 C244 1.257 1_556 S
O234 Co231 2.094 . S
O234 C245 1.253 . S
O235 Co226 2.063 . S
O235 C245 1.268 . S
O236 Co224 2.115 . S
O236 C246 1.281 . S
O237 Co224 2.315 . S
O237 C246 1.252 . S
O238 Co231 2.122 . S
O238 C247 1.272 . S
O239 Co225 2.113 . S
O239 C247 1.245 1_556 S
C240 O248 1.259 . S
C240 O249 1.257 1_556 S
C241 O250 1.268 . S
C241 O251 1.253 . S
C242 O252 1.281 . S
C242 O253 1.252 . S
C243 O254 1.273 1_554 S
C243 O255 1.244 . S
C244 O232 1.259 . S
C244 O233 1.257 1_554 S
C245 O234 1.253 . S
C245 O235 1.268 . S
C246 O236 1.281 . S
C246 O237 1.252 . S
C247 O238 1.272 . S
C247 O239 1.245 1_554 S
O248 Co224 2.053 . S
O248 C240 1.259 . S
O249 Co226 2.047 . S
O249 C240 1.257 1_554 S
O250 Co225 2.063 . S
O250 C241 1.268 . S
O251 Co224 2.094 . S
O251 C241 1.253 . S
O252 Co231 2.115 . S
O252 C242 1.281 . S
O253 Co231 2.315 . S
O253 C242 1.252 . S
O254 Co224 2.122 . S
O254 C243 1.273 1_556 S
O255 Co226 2.113 . S
O255 C243 1.244 . S
H256 C274 0.951 . S
H257 C276 0.951 . S
H258 C278 0.950 . S
H259 C279 0.950 . S
H260 C281 0.950 . S
H261 C284 0.950 . S
H262 C285 0.950 . S
H263 C287 0.950 . S
H264 C288 0.950 . S
H265 C289 0.951 . S
H266 C291 0.951 . S
H267 C293 0.950 . S
H268 C294 0.950 . S
H269 C296 0.950 . S
H270 C299 0.950 . S
H271 C300 0.950 1_565 S
H272 C302 0.950 . S
H273 C303 0.950 . S
C274 H256 0.951 . S
C274 C275 1.366 . S
C274 C276 1.388 . S
C275 C274 1.366 . S
C275 C279 1.385 . S
C276 H257 0.951 . S
C276 C274 1.388 . S
C276 C277 1.366 . S
C277 C276 1.366 . S
C277 C278 1.414 . S
C277 C280 1.499 . S
C278 H258 0.950 . S
C278 C277 1.414 . S
C278 C279 1.374 . S
C279 H259 0.950 . S
C279 C275 1.385 . S
C279 C278 1.374 . S
C280 C277 1.499 . S
C280 C281 1.373 . S
C280 C282 1.389 . S
C281 H260 0.950 . S
C281 C280 1.373 . S
C281 C297 1.377 . S
C282 C280 1.389 . S
C282 C283 1.524 . S
C282 C296 1.377 . S
C283 C282 1.524 . S
C283 C284 1.397 . S
C283 C288 1.363 . S
C284 H261 0.950 . S
C284 C283 1.397 . S
C284 C285 1.334 . S
C285 H262 0.950 . S
C285 C284 1.334 . S
C285 C286 1.287 . S
C286 C285 1.287 . S
C286 C287 1.524 . S
C286 H305 0.913 . S
C287 H263 0.950 . S
C287 C286 1.524 . S
C287 C288 1.415 . S
C288 H264 0.950 . S
C288 C283 1.363 . S
C288 C287 1.415 . S
C289 H265 0.951 . S
C289 C290 1.366 . S
C289 C291 1.388 . S
C290 C289 1.366 . S
C290 C294 1.385 . S
C291 H266 0.951 . S
C291 C289 1.388 . S
C291 C292 1.366 . S
C292 C291 1.366 . S
C292 C293 1.414 . S
C292 C295 1.499 . S
C293 H267 0.950 . S
C293 C292 1.414 . S
C293 C294 1.374 . S
C294 H268 0.950 . S
C294 C290 1.385 . S
C294 C293 1.374 . S
C295 C292 1.499 . S
C295 C296 1.373 . S
C295 C297 1.389 . S
C296 H269 0.950 . S
C296 C282 1.377 . S
C296 C295 1.373 . S
C297 C281 1.377 . S
C297 C295 1.389 . S
C297 C298 1.524 . S
C298 C297 1.524 . S
C298 C299 1.397 . S
C298 C303 1.363 . S
C299 H270 0.950 . S
C299 C298 1.397 . S
C299 C300 1.334 . S
C300 H271 0.950 1_545 S
C300 C299 1.334 . S
C300 C301 1.287 . S
C301 C300 1.287 . S
C301 C302 1.524 . S
C301 H304 0.999 1_545 S
C302 H272 0.950 . S
C302 C301 1.524 . S
C302 C303 1.415 . S
C303 H273 0.950 . S
C303 C298 1.363 . S
C303 C302 1.415 . S
H304 C301 0.999 1_565 S
H305 C286 0.913 . S
H306 C324 0.951 1_545 S
H307 C326 0.951 . S
H308 C328 0.950 . S
H309 C329 0.950 . S
H310 C331 0.950 . S
H311 C334 0.950 . S
H312 C335 0.950 1_455 S
H313 C337 0.950 . S
H314 C338 0.950 . S
H315 C339 0.951 . S
H316 C341 0.951 . S
H317 C343 0.950 . S
H318 C344 0.950 . S
H319 C346 0.950 . S
H320 C349 0.950 . S
H321 C350 0.950 . S
H322 C352 0.950 . S
H323 C353 0.950 . S
C324 H306 0.951 1_565 S
C324 C325 1.366 . S
C324 C326 1.388 . S
C325 C324 1.366 . S
C325 C329 1.385 . S
C326 H307 0.951 . S
C326 C324 1.388 . S
C326 C327 1.366 . S
C327 C326 1.366 . S
C327 C328 1.414 . S
C327 C330 1.499 . S
C328 H308 0.950 . S
C328 C327 1.414 . S
C328 C329 1.374 . S
C329 H309 0.950 . S
C329 C325 1.385 . S
C329 C328 1.374 . S
C330 C327 1.499 . S
C330 C331 1.373 . S
C330 C332 1.389 . S
C331 H310 0.950 . S
C331 C330 1.373 . S
C331 C347 1.377 . S
C332 C330 1.389 . S
C332 C333 1.524 . S
C332 C346 1.377 . S
C333 C332 1.524 . S
C333 C334 1.397 . S
C333 C338 1.363 1_565 S
C334 H311 0.950 . S
C334 C333 1.397 . S
C334 C335 1.334 . S
C335 H312 0.950 1_655 S
C335 C334 1.334 . S
C335 C336 1.287 1_565 S
C336 C335 1.287 1_545 S
C336 C337 1.524 . S
C336 H355 0.913 1_655 S
C337 H313 0.950 . S
C337 C336 1.524 . S
C337 C338 1.415 . S
C338 H314 0.950 . S
C338 C333 1.363 1_545 S
C338 C337 1.415 . S
C339 H315 0.951 . S
C339 C340 1.366 . S
C339 C341 1.388 . S
C340 C339 1.366 . S
C340 C344 1.385 . S
C341 H316 0.951 . S
C341 C339 1.388 . S
C341 C342 1.366 . S
C342 C341 1.366 . S
C342 C343 1.414 . S
C342 C345 1.499 . S
C343 H317 0.950 . S
C343 C342 1.414 . S
C343 C344 1.374 . S
C344 H318 0.950 . S
C344 C340 1.385 . S
C344 C343 1.374 . S
C345 C342 1.499 . S
C345 C346 1.373 . S
C345 C347 1.389 . S
C346 H319 0.950 . S
C346 C332 1.377 . S
C346 C345 1.373 . S
C347 C331 1.377 . S
C347 C345 1.389 . S
C347 C348 1.524 . S
C348 C347 1.524 . S
C348 C349 1.397 . S
C348 C353 1.363 . S
C349 H320 0.950 . S
C349 C348 1.397 . S
C349 C350 1.334 . S
C350 H321 0.950 . S
C350 C349 1.334 . S
C350 C351 1.287 . S
C351 C350 1.287 . S
C351 C352 1.524 . S
C351 H354 0.999 . S
C352 H322 0.950 . S
C352 C351 1.524 . S
C352 C353 1.415 . S
C353 H323 0.950 . S
C353 C348 1.363 . S
C353 C352 1.415 . S
H354 C351 0.999 . S
H355 C336 0.913 1_455 S
H356 C374 0.951 . S
H357 C376 0.951 . S
H358 C378 0.950 . S
H359 C379 0.950 . S
H360 C381 0.950 . S
H361 C384 0.950 . S
H362 C385 0.950 . S
H363 C387 0.950 . S
H364 C388 0.950 . S
H365 C389 0.951 . S
H366 C391 0.951 . S
H367 C393 0.950 . S
H368 C394 0.950 . S
H369 C396 0.950 . S
H370 C399 0.950 . S
H371 C400 0.950 . S
H372 C402 0.950 . S
H373 C403 0.950 . S
C374 H356 0.951 . S
C374 C375 1.366 . S
C374 C376 1.388 . S
C375 C374 1.366 . S
C375 C379 1.385 . S
C376 H357 0.951 . S
C376 C374 1.388 . S
C376 C377 1.366 . S
C377 C376 1.366 . S
C377 C378 1.414 . S
C377 C380 1.499 . S
C378 H358 0.950 . S
C378 C377 1.414 . S
C378 C379 1.374 . S
C379 H359 0.950 . S
C379 C375 1.385 . S
C379 C378 1.374 . S
C380 C377 1.499 . S
C380 C381 1.373 . S
C380 C382 1.389 . S
C381 H360 0.950 . S
C381 C380 1.373 . S
C381 C397 1.377 . S
C382 C380 1.389 . S
C382 C383 1.524 . S
C382 C396 1.377 . S
C383 C382 1.524 . S
C383 C384 1.397 . S
C383 C388 1.363 . S
C384 H361 0.950 . S
C384 C383 1.397 . S
C384 C385 1.334 . S
C385 H362 0.950 . S
C385 C384 1.334 . S
C385 C386 1.287 . S
C386 C385 1.287 . S
C386 C387 1.524 . S
C386 H405 0.913 . S
C387 H363 0.950 . S
C387 C386 1.524 . S
C387 C388 1.415 . S
C388 H364 0.950 . S
C388 C383 1.363 . S
C388 C387 1.415 . S
C389 H365 0.951 . S
C389 C390 1.366 . S
C389 C391 1.388 . S
C390 C389 1.366 . S
C390 C394 1.385 . S
C391 H366 0.951 . S
C391 C389 1.388 . S
C391 C392 1.366 . S
C392 C391 1.366 . S
C392 C393 1.414 . S
C392 C395 1.499 . S
C393 H367 0.950 . S
C393 C392 1.414 . S
C393 C394 1.374 . S
C394 H368 0.950 . S
C394 C390 1.385 . S
C394 C393 1.374 . S
C395 C392 1.499 . S
C395 C396 1.373 . S
C395 C397 1.389 . S
C396 H369 0.950 . S
C396 C382 1.377 . S
C396 C395 1.373 . S
C397 C381 1.377 . S
C397 C395 1.389 . S
C397 C398 1.524 . S
C398 C397 1.524 . S
C398 C399 1.397 . S
C398 C403 1.363 . S
C399 H370 0.950 . S
C399 C398 1.397 . S
C399 C400 1.334 . S
C400 H371 0.950 . S
C400 C399 1.334 . S
C400 C401 1.287 . S
C401 C400 1.287 . S
C401 C402 1.524 . S
C401 H404 0.999 . S
C402 H372 0.950 . S
C402 C401 1.524 . S
C402 C403 1.415 . S
C403 H373 0.950 . S
C403 C398 1.363 . S
C403 C402 1.415 . S
H404 C401 0.999 . S
H405 C386 0.913 . S
H406 C424 0.951 . S
H407 C426 0.951 . S
H408 C428 0.950 . S
H409 C429 0.950 . S
H410 C431 0.950 . S
H411 C434 0.950 . S
H412 C435 0.950 . S
H413 C437 0.950 . S
H414 C438 0.950 . S
H415 C439 0.951 . S
H416 C441 0.951 . S
H417 C443 0.950 . S
H418 C444 0.950 . S
H419 C446 0.950 . S
H420 C449 0.950 . S
H421 C450 0.950 . S
H422 C452 0.950 . S
H423 C453 0.950 . S
C424 H406 0.951 . S
C424 C425 1.366 . S
C424 C426 1.388 . S
C425 C424 1.366 . S
C425 C429 1.385 . S
C426 H407 0.951 . S
C426 C424 1.388 . S
C426 C427 1.366 . S
C427 C426 1.366 . S
C427 C428 1.414 . S
C427 C430 1.499 . S
C428 H408 0.950 . S
C428 C427 1.414 . S
C428 C429 1.374 . S
C429 H409 0.950 . S
C429 C425 1.385 . S
C429 C428 1.374 . S
C430 C427 1.499 . S
C430 C431 1.373 . S
C430 C432 1.389 . S
C431 H410 0.950 . S
C431 C430 1.373 . S
C431 C447 1.377 . S
C432 C430 1.389 . S
C432 C433 1.524 . S
C432 C446 1.377 . S
C433 C432 1.524 . S
C433 C434 1.397 . S
C433 C438 1.363 . S
C434 H411 0.950 . S
C434 C433 1.397 . S
C434 C435 1.334 . S
C435 H412 0.950 . S
C435 C434 1.334 . S
C435 C436 1.287 . S
C436 C435 1.287 . S
C436 C437 1.524 . S
C436 H455 0.913 . S
C437 H413 0.950 . S
C437 C436 1.524 . S
C437 C438 1.415 . S
C438 H414 0.950 . S
C438 C433 1.363 . S
C438 C437 1.415 . S
C439 H415 0.951 . S
C439 C440 1.366 . S
C439 C441 1.388 . S
C440 C439 1.366 . S
C440 C444 1.385 . S
C441 H416 0.951 . S
C441 C439 1.388 . S
C441 C442 1.366 . S
C442 C441 1.366 . S
C442 C443 1.414 . S
C442 C445 1.499 . S
C443 H417 0.950 . S
C443 C442 1.414 . S
C443 C444 1.374 . S
C444 H418 0.950 . S
C444 C440 1.385 . S
C444 C443 1.374 . S
C445 C442 1.499 . S
C445 C446 1.373 . S
C445 C447 1.389 . S
C446 H419 0.950 . S
C446 C432 1.377 . S
C446 C445 1.373 . S
C447 C431 1.377 . S
C447 C445 1.389 . S
C447 C448 1.524 . S
C448 C447 1.524 . S
C448 C449 1.397 . S
C448 C453 1.363 . S
C449 H420 0.950 . S
C449 C448 1.397 . S
C449 C450 1.334 . S
C450 H421 0.950 . S
C450 C449 1.334 . S
C450 C451 1.287 . S
C451 C450 1.287 . S
C451 C452 1.524 . S
C451 H454 0.999 . S
C452 H422 0.950 . S
C452 C451 1.524 . S
C452 C453 1.415 . S
C453 H423 0.950 . S
C453 C448 1.363 . S
C453 C452 1.415 . S
H454 C451 0.999 . S
H455 C436 0.913 . S
H456 C474 0.951 . S
H457 C476 0.951 . S
H458 C478 0.950 . S
H459 C479 0.950 . S
H460 C481 0.950 . S
H461 C484 0.950 . S
H462 C485 0.950 . S
H463 C487 0.950 . S
H464 C488 0.950 . S
H465 C489 0.951 . S
H466 C491 0.951 . S
H467 C493 0.950 . S
H468 C494 0.950 . S
H469 C496 0.950 . S
H470 C499 0.950 . S
H471 C500 0.950 . S
H472 C502 0.950 . S
H473 C503 0.950 . S
C474 H456 0.951 . S
C474 C475 1.366 . S
C474 C476 1.388 . S
C475 C474 1.366 . S
C475 C479 1.385 . S
C476 H457 0.951 . S
C476 C474 1.388 . S
C476 C477 1.366 . S
C477 C476 1.366 . S
C477 C478 1.414 . S
C477 C480 1.499 . S
C478 H458 0.950 . S
C478 C477 1.414 . S
C478 C479 1.374 . S
C479 H459 0.950 . S
C479 C475 1.385 . S
C479 C478 1.374 . S
C480 C477 1.499 . S
C480 C481 1.373 . S
C480 C482 1.389 . S
C481 H460 0.950 . S
C481 C480 1.373 . S
C481 C497 1.377 . S
C482 C480 1.389 . S
C482 C483 1.524 . S
C482 C496 1.377 . S
C483 C482 1.524 . S
C483 C484 1.397 . S
C483 C488 1.363 . S
C484 H461 0.950 . S
C484 C483 1.397 . S
C484 C485 1.334 . S
C485 H462 0.950 . S
C485 C484 1.334 . S
C485 C486 1.287 . S
C486 C485 1.287 . S
C486 C487 1.524 . S
C486 H505 0.913 . S
C487 H463 0.950 . S
C487 C486 1.524 . S
C487 C488 1.415 . S
C488 H464 0.950 . S
C488 C483 1.363 . S
C488 C487 1.415 . S
C489 H465 0.951 . S
C489 C490 1.366 . S
C489 C491 1.388 . S
C490 C489 1.366 . S
C490 C494 1.385 . S
C491 H466 0.951 . S
C491 C489 1.388 . S
C491 C492 1.366 . S
C492 C491 1.366 . S
C492 C493 1.414 . S
C492 C495 1.499 . S
C493 H467 0.950 . S
C493 C492 1.414 . S
C493 C494 1.374 . S
C494 H468 0.950 . S
C494 C490 1.385 . S
C494 C493 1.374 . S
C495 C492 1.499 . S
C495 C496 1.373 . S
C495 C497 1.389 . S
C496 H469 0.950 . S
C496 C482 1.377 . S
C496 C495 1.373 . S
C497 C481 1.377 . S
C497 C495 1.389 . S
C497 C498 1.524 . S
C498 C497 1.524 . S
C498 C499 1.397 . S
C498 C503 1.363 . S
C499 H470 0.950 . S
C499 C498 1.397 . S
C499 C500 1.334 . S
C500 H471 0.950 . S
C500 C499 1.334 . S
C500 C501 1.287 . S
C501 C500 1.287 . S
C501 C502 1.524 . S
C501 H504 0.999 . S
C502 H472 0.950 . S
C502 C501 1.524 . S
C502 C503 1.415 . S
C503 H473 0.950 . S
C503 C498 1.363 . S
C503 C502 1.415 . S
H504 C501 0.999 . S
H505 C486 0.913 . S
H506 C524 0.951 . S
H507 C526 0.951 . S
H508 C528 0.950 . S
H509 C529 0.950 . S
H510 C531 0.950 . S
H511 C534 0.950 . S
H512 C535 0.950 . S
H513 C537 0.950 . S
H514 C538 0.950 . S
H515 C539 0.951 . S
H516 C541 0.951 . S
H517 C543 0.950 . S
H518 C544 0.950 . S
H519 C546 0.950 . S
H520 C549 0.950 . S
H521 C550 0.946 1_455 S
H522 C552 0.950 . S
H523 C553 0.950 . S
C524 H506 0.951 . S
C524 C525 1.366 . S
C524 C526 1.388 . S
C525 C524 1.366 . S
C525 C529 1.385 . S
C526 H507 0.951 . S
C526 C524 1.388 . S
C526 C527 1.366 . S
C527 C526 1.366 . S
C527 C528 1.414 . S
C527 C530 1.499 . S
C528 H508 0.950 . S
C528 C527 1.414 . S
C528 C529 1.374 . S
C529 H509 0.950 . S
C529 C525 1.385 . S
C529 C528 1.374 . S
C530 C527 1.499 . S
C530 C531 1.373 . S
C530 C532 1.389 . S
C531 H510 0.950 . S
C531 C530 1.373 . S
C531 C547 1.377 . S
C532 C530 1.389 . S
C532 C533 1.524 . S
C532 C546 1.377 . S
C533 C532 1.524 . S
C533 C534 1.397 . S
C533 C538 1.363 . S
C534 H511 0.950 . S
C534 C533 1.397 . S
C534 C535 1.334 . S
C535 H512 0.950 . S
C535 C534 1.334 . S
C535 C536 1.287 . S
C536 C535 1.287 . S
C536 C537 1.524 . S
C536 H555 0.913 . S
C537 H513 0.950 . S
C537 C536 1.524 . S
C537 C538 1.415 . S
C538 H514 0.950 . S
C538 C533 1.363 . S
C538 C537 1.415 . S
C539 H515 0.951 . S
C539 C540 1.366 . S
C539 C541 1.388 . S
C540 C539 1.366 . S
C540 C544 1.385 . S
C541 H516 0.951 . S
C541 C539 1.388 . S
C541 C542 1.366 . S
C542 C541 1.366 . S
C542 C543 1.414 . S
C542 C545 1.499 . S
C543 H517 0.950 . S
C543 C542 1.414 . S
C543 C544 1.374 . S
C544 H518 0.950 . S
C544 C540 1.385 . S
C544 C543 1.374 . S
C545 C542 1.499 . S
C545 C546 1.373 . S
C545 C547 1.389 . S
C546 H519 0.950 . S
C546 C532 1.377 . S
C546 C545 1.373 . S
C547 C531 1.377 . S
C547 C545 1.389 . S
C547 C548 1.524 . S
C548 C547 1.524 . S
C548 C549 1.397 . S
C548 C553 1.363 . S
C549 H520 0.950 . S
C549 C548 1.397 . S
C549 C550 1.356 . S
C550 H521 0.946 1_655 S
C550 C549 1.356 . S
C550 C551 1.270 1_655 S
C551 C550 1.270 1_455 S
C551 C552 1.524 . S
C551 H554 0.999 . S
C552 H522 0.950 . S
C552 C551 1.524 . S
C552 C553 1.415 1_455 S
C553 H523 0.950 . S
C553 C548 1.363 . S
C553 C552 1.415 1_655 S
H554 C551 0.999 . S
H555 C536 0.913 . S
H556 C574 0.951 . S
H557 C576 0.951 . S
H558 C578 0.950 . S
H559 C579 0.950 . S
H560 C581 0.950 . S
H561 C584 0.950 . S
H562 C585 0.950 . S
H563 C587 0.950 . S
H564 C588 0.950 . S
H565 C589 0.951 . S
H566 C591 0.951 . S
H567 C593 0.950 . S
H568 C594 0.950 . S
H569 C596 0.950 . S
H570 C599 0.950 . S
H571 C600 0.956 . S
H572 C602 0.950 . S
H573 C603 0.950 . S
C574 H556 0.951 . S
C574 C575 1.366 . S
C574 C576 1.388 . S
C575 C574 1.366 . S
C575 C579 1.385 . S
C576 H557 0.951 . S
C576 C574 1.388 . S
C576 C577 1.366 . S
C577 C576 1.366 . S
C577 C578 1.414 . S
C577 C580 1.499 . S
C578 H558 0.950 . S
C578 C577 1.414 . S
C578 C579 1.374 . S
C579 H559 0.950 . S
C579 C575 1.385 . S
C579 C578 1.374 . S
C580 C577 1.499 . S
C580 C581 1.373 . S
C580 C582 1.389 . S
C581 H560 0.950 . S
C581 C580 1.373 . S
C581 C597 1.377 . S
C582 C580 1.389 . S
C582 C583 1.524 . S
C582 C596 1.377 . S
C583 C582 1.524 . S
C583 C584 1.397 . S
C583 C588 1.363 1_565 S
C584 H561 0.950 . S
C584 C583 1.397 . S
C584 C585 1.334 . S
C585 H562 0.950 . S
C585 C584 1.334 . S
C585 C586 1.287 . S
C586 C585 1.287 . S
C586 C587 1.524 1_565 S
C586 H605 0.913 . S
C587 H563 0.950 . S
C587 C586 1.524 1_545 S
C587 C588 1.415 . S
C588 H564 0.950 . S
C588 C583 1.363 1_545 S
C588 C587 1.415 . S
C589 H565 0.951 . S
C589 C590 1.366 1_565 S
C589 C591 1.388 . S
C590 C589 1.366 1_545 S
C590 C594 1.385 . S
C591 H566 0.951 . S
C591 C589 1.388 . S
C591 C592 1.366 . S
C592 C591 1.366 . S
C592 C593 1.414 1_565 S
C592 C595 1.499 . S
C593 H567 0.950 . S
C593 C592 1.414 1_545 S
C593 C594 1.374 . S
C594 H568 0.950 . S
C594 C590 1.385 . S
C594 C593 1.374 . S
C595 C592 1.499 . S
C595 C596 1.373 . S
C595 C597 1.389 . S
C596 H569 0.950 . S
C596 C582 1.377 . S
C596 C595 1.373 . S
C597 C581 1.377 . S
C597 C595 1.389 . S
C597 C598 1.524 . S
C598 C597 1.524 . S
C598 C599 1.397 . S
C598 C603 1.363 . S
C599 H570 0.950 . S
C599 C598 1.397 . S
C599 C600 1.325 1_455 S
C600 H571 0.956 . S
C600 C599 1.325 1_655 S
C600 C601 1.290 . S
C601 C600 1.290 . S
C601 C602 1.524 1_655 S
C601 H604 0.999 . S
C602 H572 0.950 . S
C602 C601 1.524 1_455 S
C602 C603 1.415 . S
C603 H573 0.950 . S
C603 C598 1.363 . S
C603 C602 1.415 . S
H604 C601 0.999 . S
H605 C586 0.913 . S
H606 C624 0.951 . S
H607 C626 0.951 . S
H608 C628 0.950 . S
H609 C629 0.950 . S
H610 C631 0.950 . S
H611 C634 0.950 . S
H612 C635 0.950 . S
H613 C637 0.950 . S
H614 C638 0.950 . S
H615 C639 0.951 . S
H616 C641 0.951 . S
H617 C643 0.950 . S
H618 C644 0.950 . S
H619 C646 0.950 . S
H620 C649 0.950 . S
H621 C650 0.950 . S
H622 C652 0.950 . S
H623 C653 0.950 . S
C624 H606 0.951 . S
C624 C625 1.366 . S
C624 C626 1.388 . S
C625 C624 1.366 . S
C625 C629 1.385 . S
C626 H607 0.951 . S
C626 C624 1.388 . S
C626 C627 1.366 . S
C627 C626 1.366 . S
C627 C628 1.414 . S
C627 C630 1.499 . S
C628 H608 0.950 . S
C628 C627 1.414 . S
C628 C629 1.374 . S
C629 H609 0.950 . S
C629 C625 1.385 . S
C629 C628 1.374 . S
C630 C627 1.499 . S
C630 C631 1.373 . S
C630 C632 1.389 . S
C631 H610 0.950 . S
C631 C630 1.373 . S
C631 C647 1.377 . S
C632 C630 1.389 . S
C632 C633 1.524 . S
C632 C646 1.377 . S
C633 C632 1.524 . S
C633 C634 1.397 . S
C633 C638 1.363 . S
C634 H611 0.950 . S
C634 C633 1.397 . S
C634 C635 1.334 . S
C635 H612 0.950 . S
C635 C634 1.334 . S
C635 C636 1.287 . S
C636 C635 1.287 . S
C636 C637 1.524 . S
C636 H655 0.913 . S
C637 H613 0.950 . S
C637 C636 1.524 . S
C637 C638 1.415 . S
C638 H614 0.950 . S
C638 C633 1.363 . S
C638 C637 1.415 . S
C639 H615 0.951 . S
C639 C640 1.366 . S
C639 C641 1.388 . S
C640 C639 1.366 . S
C640 C644 1.385 1_565 S
C641 H616 0.951 . S
C641 C639 1.388 . S
C641 C642 1.366 1_565 S
C642 C641 1.366 1_545 S
C642 C643 1.414 . S
C642 C645 1.499 . S
C643 H617 0.950 . S
C643 C642 1.414 . S
C643 C644 1.374 . S
C644 H618 0.950 . S
C644 C640 1.385 1_545 S
C644 C643 1.374 . S
C645 C642 1.499 . S
C645 C646 1.373 . S
C645 C647 1.389 . S
C646 H619 0.950 . S
C646 C632 1.377 . S
C646 C645 1.373 . S
C647 C631 1.377 . S
C647 C645 1.389 . S
C647 C648 1.524 . S
C648 C647 1.524 . S
C648 C649 1.397 . S
C648 C653 1.363 . S
C649 H620 0.950 . S
C649 C648 1.397 . S
C649 C650 1.334 . S
C650 H621 0.950 . S
C650 C649 1.334 . S
C650 C651 1.287 . S
C651 C650 1.287 . S
C651 C652 1.524 . S
C651 H654 0.999 . S
C652 H622 0.950 . S
C652 C651 1.524 . S
C652 C653 1.415 . S
C653 H623 0.950 . S
C653 C648 1.363 . S
C653 C652 1.415 . S
H654 C651 0.999 . S
H655 C636 0.913 . S
H656 C674 0.951 . S
H657 C676 0.951 . S
H658 C678 0.950 . S
H659 C679 0.950 . S
H660 C681 0.950 . S
H661 C684 0.950 . S
H662 C685 0.950 . S
H663 C687 0.950 . S
H664 C688 0.950 . S
H665 C689 0.951 . S
H666 C691 0.951 . S
H667 C693 0.950 . S
H668 C694 0.950 . S
H669 C696 0.950 . S
H670 C699 0.950 . S
H671 C700 0.950 . S
H672 C702 0.950 . S
H673 C703 0.950 . S
C674 H656 0.951 . S
C674 C675 1.366 . S
C674 C676 1.388 . S
C675 C674 1.366 . S
C675 C679 1.385 . S
C676 H657 0.951 . S
C676 C674 1.388 . S
C676 C677 1.366 . S
C677 C676 1.366 . S
C677 C678 1.414 . S
C677 C680 1.499 . S
C678 H658 0.950 . S
C678 C677 1.414 . S
C678 C679 1.374 . S
C679 H659 0.950 . S
C679 C675 1.385 . S
C679 C678 1.374 . S
C680 C677 1.499 . S
C680 C681 1.373 . S
C680 C682 1.389 . S
C681 H660 0.950 . S
C681 C680 1.373 . S
C681 C697 1.377 . S
C682 C680 1.389 . S
C682 C683 1.524 . S
C682 C696 1.377 . S
C683 C682 1.524 . S
C683 C684 1.397 . S
C683 C688 1.363 . S
C684 H661 0.950 . S
C684 C683 1.397 . S
C684 C685 1.334 . S
C685 H662 0.950 . S
C685 C684 1.334 . S
C685 C686 1.287 . S
C686 C685 1.287 . S
C686 C687 1.524 . S
C686 H705 0.913 . S
C687 H663 0.950 . S
C687 C686 1.524 . S
C687 C688 1.415 . S
C688 H664 0.950 . S
C688 C683 1.363 . S
C688 C687 1.415 . S
C689 H665 0.951 . S
C689 C690 1.366 . S
C689 C691 1.388 . S
C690 C689 1.366 . S
C690 C694 1.385 . S
C691 H666 0.951 . S
C691 C689 1.388 . S
C691 C692 1.366 . S
C692 C691 1.366 . S
C692 C693 1.414 . S
C692 C695 1.499 . S
C693 H667 0.950 . S
C693 C692 1.414 . S
C693 C694 1.374 . S
C694 H668 0.950 . S
C694 C690 1.385 . S
C694 C693 1.374 . S
C695 C692 1.499 . S
C695 C696 1.373 . S
C695 C697 1.389 . S
C696 H669 0.950 . S
C696 C682 1.377 . S
C696 C695 1.373 . S
C697 C681 1.377 . S
C697 C695 1.389 . S
C697 C698 1.524 . S
C698 C697 1.524 . S
C698 C699 1.397 1_545 S
C698 C703 1.363 . S
C699 H670 0.950 . S
C699 C698 1.397 1_565 S
C699 C700 1.334 . S
C700 H671 0.950 . S
C700 C699 1.334 . S
C700 C701 1.287 . S
C701 C700 1.287 . S
C701 C702 1.524 . S
C701 H704 0.999 . S
C702 H672 0.950 . S
C702 C701 1.524 . S
C702 C703 1.415 1_565 S
C703 H673 0.950 . S
C703 C698 1.363 . S
C703 C702 1.415 1_545 S
H704 C701 0.999 . S
H705 C686 0.913 . S
H706 C724 0.951 . S
H707 C726 0.951 . S
H708 C728 0.950 . S
H709 C729 0.950 . S
H710 C731 0.950 . S
H711 C734 0.950 . S
H712 C735 0.950 . S
H713 C737 0.950 . S
H714 C738 0.950 . S
H715 C739 0.951 . S
H716 C741 0.951 . S
H717 C743 0.950 . S
H718 C744 0.950 . S
H719 C746 0.950 . S
H720 C749 0.950 . S
H721 C750 0.950 . S
H722 C752 0.950 . S
H723 C753 0.950 . S
C724 H706 0.951 . S
C724 C725 1.366 . S
C724 C726 1.388 . S
C725 C724 1.366 . S
C725 C729 1.385 . S
C726 H707 0.951 . S
C726 C724 1.388 . S
C726 C727 1.366 . S
C727 C726 1.366 . S
C727 C728 1.414 . S
C727 C730 1.499 . S
C728 H708 0.950 . S
C728 C727 1.414 . S
C728 C729 1.374 . S
C729 H709 0.950 . S
C729 C725 1.385 . S
C729 C728 1.374 . S
C730 C727 1.499 . S
C730 C731 1.373 . S
C730 C732 1.389 . S
C731 H710 0.950 . S
C731 C730 1.373 . S
C731 C747 1.377 . S
C732 C730 1.389 . S
C732 C733 1.524 . S
C732 C746 1.377 . S
C733 C732 1.524 . S
C733 C734 1.397 1_565 S
C733 C738 1.363 . S
C734 H711 0.950 . S
C734 C733 1.397 1_545 S
C734 C735 1.334 . S
C735 H712 0.950 . S
C735 C734 1.334 . S
C735 C736 1.287 . S
C736 C735 1.287 . S
C736 C737 1.524 1_545 S
C736 H755 0.913 . S
C737 H713 0.950 . S
C737 C736 1.524 1_565 S
C737 C738 1.415 . S
C738 H714 0.950 . S
C738 C733 1.363 . S
C738 C737 1.415 . S
C739 H715 0.951 . S
C739 C740 1.366 . S
C739 C741 1.388 . S
C740 C739 1.366 . S
C740 C744 1.385 . S
C741 H716 0.951 . S
C741 C739 1.388 . S
C741 C742 1.366 . S
C742 C741 1.366 . S
C742 C743 1.414 . S
C742 C745 1.499 . S
C743 H717 0.950 . S
C743 C742 1.414 . S
C743 C744 1.374 . S
C744 H718 0.950 . S
C744 C740 1.385 . S
C744 C743 1.374 . S
C745 C742 1.499 . S
C745 C746 1.373 . S
C745 C747 1.389 . S
C746 H719 0.950 . S
C746 C732 1.377 . S
C746 C745 1.373 . S
C747 C731 1.377 . S
C747 C745 1.389 . S
C747 C748 1.524 . S
C748 C747 1.524 . S
C748 C749 1.397 . S
C748 C753 1.363 . S
C749 H720 0.950 . S
C749 C748 1.397 . S
C749 C750 1.334 . S
C750 H721 0.950 . S
C750 C749 1.334 . S
C750 C751 1.287 . S
C751 C750 1.287 . S
C751 C752 1.524 . S
C751 H754 0.999 . S
C752 H722 0.950 . S
C752 C751 1.524 . S
C752 C753 1.415 . S
C753 H723 0.950 . S
C753 C748 1.363 . S
C753 C752 1.415 . S
H754 C751 0.999 . S
H755 C736 0.913 . S
H756 C774 0.951 . S
H757 C776 0.951 . S
H758 C778 0.950 . S
H759 C779 0.950 . S
H760 C781 0.950 . S
H761 C784 0.950 . S
H762 C785 0.950 . S
H763 C787 0.950 . S
H764 C788 0.950 . S
H765 C789 0.951 . S
H766 C791 0.951 . S
H767 C793 0.950 . S
H768 C794 0.950 . S
H769 C796 0.950 . S
H770 C799 0.950 . S
H771 C800 0.950 . S
H772 C802 0.950 . S
H773 C803 0.950 . S
C774 H756 0.951 . S
C774 C775 1.366 . S
C774 C776 1.388 . S
C775 C774 1.366 . S
C775 C779 1.385 . S
C776 H757 0.951 . S
C776 C774 1.388 . S
C776 C777 1.366 . S
C777 C776 1.366 . S
C777 C778 1.414 . S
C777 C780 1.499 . S
C778 H758 0.950 . S
C778 C777 1.414 . S
C778 C779 1.374 . S
C779 H759 0.950 . S
C779 C775 1.385 . S
C779 C778 1.374 . S
C780 C777 1.499 . S
C780 C781 1.373 . S
C780 C782 1.389 . S
C781 H760 0.950 . S
C781 C780 1.373 . S
C781 C797 1.377 . S
C782 C780 1.389 . S
C782 C783 1.524 . S
C782 C796 1.377 . S
C783 C782 1.524 . S
C783 C784 1.397 . S
C783 C788 1.363 . S
C784 H761 0.950 . S
C784 C783 1.397 . S
C784 C785 1.334 . S
C785 H762 0.950 . S
C785 C784 1.334 . S
C785 C786 1.287 . S
C786 C785 1.287 . S
C786 C787 1.524 . S
C786 H805 0.913 . S
C787 H763 0.950 . S
C787 C786 1.524 . S
C787 C788 1.415 . S
C788 H764 0.950 . S
C788 C783 1.363 . S
C788 C787 1.415 . S
C789 H765 0.951 . S
C789 C790 1.366 . S
C789 C791 1.388 . S
C790 C789 1.366 . S
C790 C794 1.385 . S
C791 H766 0.951 . S
C791 C789 1.388 . S
C791 C792 1.366 . S
C792 C791 1.366 . S
C792 C793 1.414 . S
C792 C795 1.499 . S
C793 H767 0.950 . S
C793 C792 1.414 . S
C793 C794 1.374 . S
C794 H768 0.950 . S
C794 C790 1.385 . S
C794 C793 1.374 . S
C795 C792 1.499 . S
C795 C796 1.373 . S
C795 C797 1.389 . S
C796 H769 0.950 . S
C796 C782 1.377 . S
C796 C795 1.373 . S
C797 C781 1.377 . S
C797 C795 1.389 . S
C797 C798 1.524 . S
C798 C797 1.524 . S
C798 C799 1.397 . S
C798 C803 1.363 . S
C799 H770 0.950 . S
C799 C798 1.397 . S
C799 C800 1.334 . S
C800 H771 0.950 . S
C800 C799 1.334 . S
C800 C801 1.287 . S
C801 C800 1.287 . S
C801 C802 1.524 . S
C801 H804 0.999 . S
C802 H772 0.950 . S
C802 C801 1.524 . S
C802 C803 1.415 . S
C803 H773 0.950 . S
C803 C798 1.363 . S
C803 C802 1.415 . S
H804 C801 0.999 . S
H805 C786 0.913 . S
H806 C824 0.951 . S
H807 C826 0.951 . S
H808 C828 0.950 . S
H809 C829 0.950 . S
H810 C831 0.950 . S
H811 C834 0.950 . S
H812 C835 0.950 . S
H813 C837 0.950 . S
H814 C838 0.950 . S
H815 C839 0.951 . S
H816 C841 0.951 . S
H817 C843 0.950 . S
H818 C844 0.950 . S
H819 C846 0.950 . S
H820 C849 0.950 . S
H821 C850 0.950 . S
H822 C852 0.950 . S
H823 C853 0.950 . S
C824 H806 0.951 . S
C824 C825 1.366 . S
C824 C826 1.388 . S
C825 C824 1.366 . S
C825 C829 1.385 . S
C826 H807 0.951 . S
C826 C824 1.388 . S
C826 C827 1.366 . S
C827 C826 1.366 . S
C827 C828 1.414 . S
C827 C830 1.499 . S
C828 H808 0.950 . S
C828 C827 1.414 . S
C828 C829 1.374 . S
C829 H809 0.950 . S
C829 C825 1.385 . S
C829 C828 1.374 . S
C830 C827 1.499 . S
C830 C831 1.373 . S
C830 C832 1.389 . S
C831 H810 0.950 . S
C831 C830 1.373 . S
C831 C847 1.377 . S
C832 C830 1.389 . S
C832 C833 1.524 . S
C832 C846 1.377 . S
C833 C832 1.524 . S
C833 C834 1.397 . S
C833 C838 1.363 . S
C834 H811 0.950 . S
C834 C833 1.397 . S
C834 C835 1.334 . S
C835 H812 0.950 . S
C835 C834 1.334 . S
C835 C836 1.287 . S
C836 C835 1.287 . S
C836 C837 1.524 . S
C836 H855 0.913 . S
C837 H813 0.950 . S
C837 C836 1.524 . S
C837 C838 1.415 . S
C838 H814 0.950 . S
C838 C833 1.363 . S
C838 C837 1.415 . S
C839 H815 0.951 . S
C839 C840 1.366 . S
C839 C841 1.388 . S
C840 C839 1.366 . S
C840 C844 1.385 . S
C841 H816 0.951 . S
C841 C839 1.388 . S
C841 C842 1.366 . S
C842 C841 1.366 . S
C842 C843 1.414 . S
C842 C845 1.499 . S
C843 H817 0.950 . S
C843 C842 1.414 . S
C843 C844 1.374 . S
C844 H818 0.950 . S
C844 C840 1.385 . S
C844 C843 1.374 . S
C845 C842 1.499 . S
C845 C846 1.373 . S
C845 C847 1.389 . S
C846 H819 0.950 . S
C846 C832 1.377 . S
C846 C845 1.373 . S
C847 C831 1.377 . S
C847 C845 1.389 . S
C847 C848 1.524 . S
C848 C847 1.524 . S
C848 C849 1.397 . S
C848 C853 1.363 . S
C849 H820 0.950 . S
C849 C848 1.397 . S
C849 C850 1.334 . S
C850 H821 0.950 . S
C850 C849 1.334 . S
C850 C851 1.287 . S
C851 C850 1.287 . S
C851 C852 1.524 . S
C851 H854 0.999 . S
C852 H822 0.950 . S
C852 C851 1.524 . S
C852 C853 1.415 . S
C853 H823 0.950 . S
C853 C848 1.363 . S
C853 C852 1.415 . S
H854 C851 0.999 . S
H855 C836 0.913 . S
H856 C874 0.951 . S
H857 C876 0.951 . S
H858 C878 0.950 . S
H859 C879 0.950 . S
H860 C881 0.950 . S
H861 C884 0.950 . S
H862 C885 0.950 . S
H863 C887 0.950 . S
H864 C888 0.950 . S
H865 C889 0.951 . S
H866 C891 0.951 . S
H867 C893 0.950 . S
H868 C894 0.950 . S
H869 C896 0.950 . S
H870 C899 0.950 . S
H871 C900 0.950 . S
H872 C902 0.950 . S
H873 C903 0.950 . S
C874 H856 0.951 . S
C874 C875 1.366 . S
C874 C876 1.388 . S
C875 C874 1.366 . S
C875 C879 1.385 . S
C876 H857 0.951 . S
C876 C874 1.388 . S
C876 C877 1.366 . S
C877 C876 1.366 . S
C877 C878 1.414 . S
C877 C880 1.499 . S
C878 H858 0.950 . S
C878 C877 1.414 . S
C878 C879 1.374 . S
C879 H859 0.950 . S
C879 C875 1.385 . S
C879 C878 1.374 . S
C880 C877 1.499 . S
C880 C881 1.373 . S
C880 C882 1.389 . S
C881 H860 0.950 . S
C881 C880 1.373 . S
C881 C897 1.377 . S
C882 C880 1.389 . S
C882 C883 1.524 . S
C882 C896 1.377 . S
C883 C882 1.524 . S
C883 C884 1.397 . S
C883 C888 1.363 . S
C884 H861 0.950 . S
C884 C883 1.397 . S
C884 C885 1.334 . S
C885 H862 0.950 . S
C885 C884 1.334 . S
C885 C886 1.287 . S
C886 C885 1.287 . S
C886 C887 1.524 . S
C886 H905 0.913 . S
C887 H863 0.950 . S
C887 C886 1.524 . S
C887 C888 1.415 . S
C888 H864 0.950 . S
C888 C883 1.363 . S
C888 C887 1.415 . S
C889 H865 0.951 . S
C889 C890 1.366 . S
C889 C891 1.388 . S
C890 C889 1.366 . S
C890 C894 1.385 . S
C891 H866 0.951 . S
C891 C889 1.388 . S
C891 C892 1.366 . S
C892 C891 1.366 . S
C892 C893 1.414 . S
C892 C895 1.499 . S
C893 H867 0.950 . S
C893 C892 1.414 . S
C893 C894 1.374 . S
C894 H868 0.950 . S
C894 C890 1.385 . S
C894 C893 1.374 . S
C895 C892 1.499 . S
C895 C896 1.373 . S
C895 C897 1.389 . S
C896 H869 0.950 . S
C896 C882 1.377 . S
C896 C895 1.373 . S
C897 C881 1.377 . S
C897 C895 1.389 . S
C897 C898 1.524 . S
C898 C897 1.524 . S
C898 C899 1.397 . S
C898 C903 1.363 . S
C899 H870 0.950 . S
C899 C898 1.397 . S
C899 C900 1.334 . S
C900 H871 0.950 . S
C900 C899 1.334 . S
C900 C901 1.287 . S
C901 C900 1.287 . S
C901 C902 1.524 . S
C901 H904 0.999 . S
C902 H872 0.950 . S
C902 C901 1.524 . S
C902 C903 1.415 . S
C903 H873 0.950 . S
C903 C898 1.363 . S
C903 C902 1.415 . S
H904 C901 0.999 . S
H905 C886 0.913 . S
H906 C924 0.951 . S
H907 C926 0.951 . S
H908 C928 0.950 . S
H909 C929 0.950 . S
H910 C931 0.950 . S
H911 C934 0.950 . S
H912 C935 0.950 . S
H913 C937 0.950 . S
H914 C938 0.950 . S
H915 C939 0.951 . S
H916 C941 0.951 . S
H917 C943 0.950 . S
H918 C944 0.950 . S
H919 C946 0.950 . S
H920 C949 0.950 . S
H921 C950 0.950 . S
H922 C952 0.950 . S
H923 C953 0.950 . S
C924 H906 0.951 . S
C924 C925 1.366 . S
C924 C926 1.388 . S
C925 C924 1.366 . S
C925 C929 1.385 . S
C926 H907 0.951 . S
C926 C924 1.388 . S
C926 C927 1.366 . S
C927 C926 1.366 . S
C927 C928 1.414 . S
C927 C930 1.499 . S
C928 H908 0.950 . S
C928 C927 1.414 . S
C928 C929 1.374 . S
C929 H909 0.950 . S
C929 C925 1.385 . S
C929 C928 1.374 . S
C930 C927 1.499 . S
C930 C931 1.373 . S
C930 C932 1.389 . S
C931 H910 0.950 . S
C931 C930 1.373 . S
C931 C947 1.377 . S
C932 C930 1.389 . S
C932 C933 1.524 . S
C932 C946 1.377 . S
C933 C932 1.524 . S
C933 C934 1.397 . S
C933 C938 1.363 . S
C934 H911 0.950 . S
C934 C933 1.397 . S
C934 C935 1.334 . S
C935 H912 0.950 . S
C935 C934 1.334 . S
C935 C936 1.287 . S
C936 C935 1.287 . S
C936 C937 1.524 . S
C936 H955 0.913 . S
C937 H913 0.950 . S
C937 C936 1.524 . S
C937 C938 1.415 . S
C938 H914 0.950 . S
C938 C933 1.363 . S
C938 C937 1.415 . S
C939 H915 0.951 . S
C939 C940 1.366 . S
C939 C941 1.388 . S
C940 C939 1.366 . S
C940 C944 1.385 . S
C941 H916 0.951 . S
C941 C939 1.388 . S
C941 C942 1.366 . S
C942 C941 1.366 . S
C942 C943 1.414 . S
C942 C945 1.499 . S
C943 H917 0.950 . S
C943 C942 1.414 . S
C943 C944 1.374 . S
C944 H918 0.950 . S
C944 C940 1.385 . S
C944 C943 1.374 . S
C945 C942 1.499 . S
C945 C946 1.373 . S
C945 C947 1.389 . S
C946 H919 0.950 . S
C946 C932 1.377 . S
C946 C945 1.373 . S
C947 C931 1.377 . S
C947 C945 1.389 . S
C947 C948 1.524 . S
C948 C947 1.524 . S
C948 C949 1.397 . S
C948 C953 1.363 . S
C949 H920 0.950 . S
C949 C948 1.397 . S
C949 C950 1.334 . S
C950 H921 0.950 . S
C950 C949 1.334 . S
C950 C951 1.287 . S
C951 C950 1.287 . S
C951 C952 1.524 . S
C951 H954 0.999 . S
C952 H922 0.950 . S
C952 C951 1.524 . S
C952 C953 1.415 . S
C953 H923 0.950 . S
C953 C948 1.363 . S
C953 C952 1.415 . S
H954 C951 0.999 . S
H955 C936 0.913 . S
H956 C974 0.951 . S
H957 C976 0.951 . S
H958 C978 0.950 . S
H959 C979 0.950 . S
H960 C981 0.950 1_545 S
H961 C984 0.950 . S
H962 C985 0.950 . S
H963 C987 0.950 . S
H964 C988 0.950 . S
H965 C989 0.951 . S
H966 C991 0.951 . S
H967 C993 0.950 . S
H968 C994 0.950 . S
H969 C996 0.950 . S
H970 C999 0.950 . S
H971 C1000 0.950 . S
H972 C1002 0.950 . S
H973 C1003 0.950 . S
C974 H956 0.951 . S
C974 C975 1.366 1_565 S
C974 C976 1.388 . S
C975 C974 1.366 1_545 S
C975 C979 1.385 . S
C976 H957 0.951 . S
C976 C974 1.388 . S
C976 C977 1.366 . S
C977 C976 1.366 . S
C977 C978 1.414 1_565 S
C977 C980 1.499 . S
C978 H958 0.950 . S
C978 C977 1.414 1_545 S
C978 C979 1.374 . S
C979 H959 0.950 . S
C979 C975 1.385 . S
C979 C978 1.374 . S
C980 C977 1.499 . S
C980 C981 1.373 . S
C980 C982 1.389 . S
C981 H960 0.950 1_565 S
C981 C980 1.373 . S
C981 C997 1.377 . S
C982 C980 1.389 . S
C982 C983 1.524 . S
C982 C996 1.377 . S
C983 C982 1.524 . S
C983 C984 1.397 . S
C983 C988 1.363 . S
C984 H961 0.950 . S
C984 C983 1.397 . S
C984 C985 1.334 . S
C985 H962 0.950 . S
C985 C984 1.334 . S
C985 C986 1.287 . S
C986 C985 1.287 . S
C986 C987 1.524 . S
C986 H1005 0.913 . S
C987 H963 0.950 . S
C987 C986 1.524 . S
C987 C988 1.415 . S
C988 H964 0.950 . S
C988 C983 1.363 . S
C988 C987 1.415 . S
C989 H965 0.951 . S
C989 C990 1.366 . S
C989 C991 1.388 . S
C990 C989 1.366 . S
C990 C994 1.385 . S
C991 H966 0.951 . S
C991 C989 1.388 . S
C991 C992 1.366 . S
C992 C991 1.366 . S
C992 C993 1.414 . S
C992 C995 1.499 . S
C993 H967 0.950 . S
C993 C992 1.414 . S
C993 C994 1.374 . S
C994 H968 0.950 . S
C994 C990 1.385 . S
C994 C993 1.374 . S
C995 C992 1.499 . S
C995 C996 1.373 . S
C995 C997 1.389 . S
C996 H969 0.950 . S
C996 C982 1.377 . S
C996 C995 1.373 . S
C997 C981 1.377 . S
C997 C995 1.389 . S
C997 C998 1.524 1_565 S
C998 C997 1.524 1_545 S
C998 C999 1.397 1_545 S
C998 C1003 1.363 . S
C999 H970 0.950 . S
C999 C998 1.397 1_565 S
C999 C1000 1.334 1_565 S
C1000 H971 0.950 . S
C1000 C999 1.334 1_545 S
C1000 C1001 1.287 . S
C1001 C1000 1.287 . S
C1001 C1002 1.524 . S
C1001 H1004 0.999 . S
C1002 H972 0.950 . S
C1002 C1001 1.524 . S
C1002 C1003 1.415 . S
C1003 H973 0.950 . S
C1003 C998 1.363 . S
C1003 C1002 1.415 . S
H1004 C1001 0.999 . S
H1005 C986 0.913 . S
H1006 C1024 0.951 . S
H1007 C1026 0.951 . S
H1008 C1028 0.950 . S
H1009 C1029 0.950 . S
H1010 C1031 0.950 1_565 S
H1011 C1034 0.950 . S
H1012 C1035 0.950 . S
H1013 C1037 0.950 . S
H1014 C1038 0.950 . S
H1015 C1039 0.951 . S
H1016 C1041 0.951 . S
H1017 C1043 0.950 . S
H1018 C1044 0.950 . S
H1019 C1046 0.950 . S
H1020 C1049 0.950 1_545 S
H1021 C1050 0.950 . S
H1022 C1052 0.950 . S
H1023 C1053 0.950 . S
C1024 H1006 0.951 . S
C1024 C1025 1.366 1_545 S
C1024 C1026 1.388 . S
C1025 C1024 1.366 1_565 S
C1025 C1029 1.385 . S
C1026 H1007 0.951 . S
C1026 C1024 1.388 . S
C1026 C1027 1.366 . S
C1027 C1026 1.366 . S
C1027 C1028 1.414 1_545 S
C1027 C1030 1.499 . S
C1028 H1008 0.950 . S
C1028 C1027 1.414 1_565 S
C1028 C1029 1.374 . S
C1029 H1009 0.950 . S
C1029 C1025 1.385 . S
C1029 C1028 1.374 . S
C1030 C1027 1.499 . S
C1030 C1031 1.373 . S
C1030 C1032 1.389 . S
C1031 H1010 0.950 1_545 S
C1031 C1030 1.373 . S
C1031 C1047 1.377 . S
C1032 C1030 1.389 . S
C1032 C1033 1.524 . S
C1032 C1046 1.377 . S
C1033 C1032 1.524 . S
C1033 C1034 1.397 . S
C1033 C1038 1.363 . S
C1034 H1011 0.950 . S
C1034 C1033 1.397 . S
C1034 C1035 1.334 . S
C1035 H1012 0.950 . S
C1035 C1034 1.334 . S
C1035 C1036 1.287 . S
C1036 C1035 1.287 . S
C1036 C1037 1.524 . S
C1036 H1055 0.913 . S
C1037 H1013 0.950 . S
C1037 C1036 1.524 . S
C1037 C1038 1.415 . S
C1038 H1014 0.950 . S
C1038 C1033 1.363 . S
C1038 C1037 1.415 . S
C1039 H1015 0.951 . S
C1039 C1040 1.366 . S
C1039 C1041 1.388 . S
C1040 C1039 1.366 . S
C1040 C1044 1.385 . S
C1041 H1016 0.951 . S
C1041 C1039 1.388 . S
C1041 C1042 1.366 . S
C1042 C1041 1.366 . S
C1042 C1043 1.414 . S
C1042 C1045 1.499 . S
C1043 H1017 0.950 . S
C1043 C1042 1.414 . S
C1043 C1044 1.374 . S
C1044 H1018 0.950 . S
C1044 C1040 1.385 . S
C1044 C1043 1.374 . S
C1045 C1042 1.499 . S
C1045 C1046 1.373 . S
C1045 C1047 1.389 . S
C1046 H1019 0.950 . S
C1046 C1032 1.377 . S
C1046 C1045 1.373 . S
C1047 C1031 1.377 . S
C1047 C1045 1.389 . S
C1047 C1048 1.524 1_545 S
C1048 C1047 1.524 1_565 S
C1048 C1049 1.397 . S
C1048 C1053 1.363 . S
C1049 H1020 0.950 1_565 S
C1049 C1048 1.397 . S
C1049 C1050 1.334 . S
C1050 H1021 0.950 . S
C1050 C1049 1.334 . S
C1050 C1051 1.287 . S
C1051 C1050 1.287 . S
C1051 C1052 1.524 . S
C1051 H1054 0.999 . S
C1052 H1022 0.950 . S
C1052 C1051 1.524 . S
C1052 C1053 1.415 . S
C1053 H1023 0.950 . S
C1053 C1048 1.363 . S
C1053 C1052 1.415 . S
H1054 C1051 0.999 . S
H1055 C1036 0.913 . S
H1056 C1074 0.951 . S
H1057 C1076 0.951 . S
H1058 C1078 0.950 . S
H1059 C1079 0.950 . S
H1060 C1081 0.950 . S
H1061 C1084 0.950 . S
H1062 C1085 0.950 . S
H1063 C1087 0.950 . S
H1064 C1088 0.950 . S
H1065 C1089 0.951 . S
H1066 C1091 0.951 . S
H1067 C1093 0.950 . S
H1068 C1094 0.950 . S
H1069 C1096 0.950 . S
H1070 C1099 0.950 . S
H1071 C1100 0.950 . S
H1072 C1102 0.950 . S
H1073 C1103 0.950 . S
C1074 H1056 0.951 . S
C1074 C1075 1.366 1_655 S
C1074 C1076 1.388 . S
C1075 C1074 1.366 1_455 S
C1075 C1079 1.385 1_554 S
C1076 H1057 0.951 . S
C1076 C1074 1.388 . S
C1076 C1077 1.366 1_655 S
C1077 C1076 1.366 1_455 S
C1077 C1078 1.414 1_554 S
C1077 C1080 1.499 . S
C1078 H1058 0.950 . S
C1078 C1077 1.414 1_556 S
C1078 C1079 1.374 . S
C1079 H1059 0.950 . S
C1079 C1075 1.385 1_556 S
C1079 C1078 1.374 . S
C1080 C1077 1.499 . S
C1080 C1081 1.373 1_554 S
C1080 C1082 1.389 . S
C1081 H1060 0.950 . S
C1081 C1080 1.373 1_556 S
C1081 C1097 1.377 . S
C1082 C1080 1.389 . S
C1082 C1083 1.524 . S
C1082 C1096 1.377 . S
C1083 C1082 1.524 . S
C1083 C1084 1.397 . S
C1083 C1088 1.363 1_455 S
C1084 H1061 0.950 . S
C1084 C1083 1.397 . S
C1084 C1085 1.334 . S
C1085 H1062 0.950 . S
C1085 C1084 1.334 . S
C1085 C1086 1.287 . S
C1086 C1085 1.287 . S
C1086 C1087 1.524 1_455 S
C1086 H1105 0.913 . S
C1087 H1063 0.950 . S
C1087 C1086 1.524 1_655 S
C1087 C1088 1.415 . S
C1088 H1064 0.950 . S
C1088 C1083 1.363 1_655 S
C1088 C1087 1.415 . S
C1089 H1065 0.951 . S
C1089 C1090 1.366 1_556 S
C1089 C1091 1.388 . S
C1090 C1089 1.366 1_554 S
C1090 C1094 1.384 1_455 S
C1091 H1066 0.951 . S
C1091 C1089 1.388 . S
C1091 C1092 1.360 1_556 S
C1092 C1091 1.360 1_554 S
C1092 C1093 1.418 1_455 S
C1092 C1095 1.489 . S
C1093 H1067 0.950 . S
C1093 C1092 1.418 1_655 S
C1093 C1094 1.374 . S
C1094 H1068 0.950 . S
C1094 C1090 1.384 1_655 S
C1094 C1093 1.374 . S
C1095 C1092 1.489 . S
C1095 C1096 1.436 . S
C1095 C1097 1.343 1_554 S
C1096 H1069 0.950 . S
C1096 C1082 1.377 . S
C1096 C1095 1.436 . S
C1097 C1081 1.377 . S
C1097 C1095 1.343 1_556 S
C1097 C1098 1.524 . S
C1098 C1097 1.524 . S
C1098 C1099 1.397 1_455 S
C1098 C1103 1.363 . S
C1099 H1070 0.950 . S
C1099 C1098 1.397 1_655 S
C1099 C1100 1.334 . S
C1100 H1071 0.950 . S
C1100 C1099 1.334 . S
C1100 C1101 1.287 1_655 S
C1101 C1100 1.287 1_455 S
C1101 C1102 1.524 . S
C1101 H1104 0.999 . S
C1102 H1072 0.950 . S
C1102 C1101 1.524 . S
C1102 C1103 1.415 . S
C1103 H1073 0.950 . S
C1103 C1098 1.363 . S
C1103 C1102 1.415 . S
H1104 C1101 0.999 . S
H1105 C1086 0.913 . S
H1106 C1124 0.951 . S
H1107 C1126 0.951 . S
H1108 C1128 0.950 . S
H1109 C1129 0.950 . S
H1110 C1131 0.950 . S
H1111 C1134 0.950 . S
H1112 C1135 0.950 . S
H1113 C1137 0.950 . S
H1114 C1138 0.950 . S
H1115 C1139 0.951 . S
H1116 C1141 0.951 . S
H1117 C1143 0.950 . S
H1118 C1144 0.950 . S
H1119 C1146 0.950 . S
H1120 C1149 0.950 . S
H1121 C1150 0.950 . S
H1122 C1152 0.950 . S
H1123 C1153 0.950 . S
C1124 H1106 0.951 . S
C1124 C1125 1.366 . S
C1124 C1126 1.388 . S
C1125 C1124 1.366 . S
C1125 C1129 1.385 . S
C1126 H1107 0.951 . S
C1126 C1124 1.388 . S
C1126 C1127 1.366 . S
C1127 C1126 1.366 . S
C1127 C1128 1.414 . S
C1127 C1130 1.499 . S
C1128 H1108 0.950 . S
C1128 C1127 1.414 . S
C1128 C1129 1.374 . S
C1129 H1109 0.950 . S
C1129 C1125 1.385 . S
C1129 C1128 1.374 . S
C1130 C1127 1.499 . S
C1130 C1131 1.373 . S
C1130 C1132 1.389 . S
C1131 H1110 0.950 . S
C1131 C1130 1.373 . S
C1131 C1147 1.377 . S
C1132 C1130 1.389 . S
C1132 C1133 1.524 . S
C1132 C1146 1.377 . S
C1133 C1132 1.524 . S
C1133 C1134 1.397 . S
C1133 C1138 1.363 . S
C1134 H1111 0.950 . S
C1134 C1133 1.397 . S
C1134 C1135 1.334 . S
C1135 H1112 0.950 . S
C1135 C1134 1.334 . S
C1135 C1136 1.287 . S
C1136 C1135 1.287 . S
C1136 C1137 1.524 . S
C1136 H1155 0.913 . S
C1137 H1113 0.950 . S
C1137 C1136 1.524 . S
C1137 C1138 1.415 . S
C1138 H1114 0.950 . S
C1138 C1133 1.363 . S
C1138 C1137 1.415 . S
C1139 H1115 0.951 . S
C1139 C1140 1.366 . S
C1139 C1141 1.388 1_545 S
C1140 C1139 1.366 . S
C1140 C1144 1.385 . S
C1141 H1116 0.951 . S
C1141 C1139 1.388 1_565 S
C1141 C1142 1.366 . S
C1142 C1141 1.366 . S
C1142 C1143 1.414 . S
C1142 C1145 1.499 . S
C1143 H1117 0.950 . S
C1143 C1142 1.414 . S
C1143 C1144 1.374 1_565 S
C1144 H1118 0.950 . S
C1144 C1140 1.385 . S
C1144 C1143 1.374 1_545 S
C1145 C1142 1.499 . S
C1145 C1146 1.373 . S
C1145 C1147 1.389 . S
C1146 H1119 0.950 . S
C1146 C1132 1.377 . S
C1146 C1145 1.373 . S
C1147 C1131 1.377 . S
C1147 C1145 1.389 . S
C1147 C1148 1.524 . S
C1148 C1147 1.524 . S
C1148 C1149 1.397 . S
C1148 C1153 1.363 . S
C1149 H1120 0.950 . S
C1149 C1148 1.397 . S
C1149 C1150 1.334 . S
C1150 H1121 0.950 . S
C1150 C1149 1.334 . S
C1150 C1151 1.287 . S
C1151 C1150 1.287 . S
C1151 C1152 1.524 . S
C1151 H1154 0.999 . S
C1152 H1122 0.950 . S
C1152 C1151 1.524 . S
C1152 C1153 1.415 . S
C1153 H1123 0.950 . S
C1153 C1148 1.363 . S
C1153 C1152 1.415 . S
H1154 C1151 0.999 . S
H1155 C1136 0.913 . S
H1156 C1174 0.951 . S
H1157 C1176 0.951 . S
H1158 C1178 0.950 . S
H1159 C1179 0.950 1_565 S
H1160 C1181 0.950 . S
H1161 C1184 0.950 . S
H1162 C1185 0.950 . S
H1163 C1187 0.950 . S
H1164 C1188 0.950 . S
H1165 C1189 0.951 . S
H1166 C1191 0.951 . S
H1167 C1193 0.950 . S
H1168 C1194 0.950 . S
H1169 C1196 0.950 . S
H1170 C1199 0.950 . S
H1171 C1200 0.950 . S
H1172 C1202 0.950 . S
H1173 C1203 0.950 . S
C1174 H1156 0.951 . S
C1174 C1175 1.366 . S
C1174 C1176 1.388 1_565 S
C1175 C1174 1.366 . S
C1175 C1179 1.385 1_565 S
C1176 H1157 0.951 . S
C1176 C1174 1.388 1_545 S
C1176 C1177 1.366 . S
C1177 C1176 1.366 . S
C1177 C1178 1.414 . S
C1177 C1180 1.499 . S
C1178 H1158 0.950 . S
C1178 C1177 1.414 . S
C1178 C1179 1.374 . S
C1179 H1159 0.950 1_545 S
C1179 C1175 1.385 1_545 S
C1179 C1178 1.374 . S
C1180 C1177 1.499 . S
C1180 C1181 1.373 . S
C1180 C1182 1.389 . S
C1181 H1160 0.950 . S
C1181 C1180 1.373 . S
C1181 C1197 1.377 . S
C1182 C1180 1.389 . S
C1182 C1183 1.524 . S
C1182 C1196 1.377 . S
C1183 C1182 1.524 . S
C1183 C1184 1.397 . S
C1183 C1188 1.363 . S
C1184 H1161 0.950 . S
C1184 C1183 1.397 . S
C1184 C1185 1.334 . S
C1185 H1162 0.950 . S
C1185 C1184 1.334 . S
C1185 C1186 1.287 . S
C1186 C1185 1.287 . S
C1186 C1187 1.524 . S
C1186 H1205 0.913 . S
C1187 H1163 0.950 . S
C1187 C1186 1.524 . S
C1187 C1188 1.415 . S
C1188 H1164 0.950 . S
C1188 C1183 1.363 . S
C1188 C1187 1.415 . S
C1189 H1165 0.951 . S
C1189 C1190 1.366 . S
C1189 C1191 1.388 . S
C1190 C1189 1.366 . S
C1190 C1194 1.385 . S
C1191 H1166 0.951 . S
C1191 C1189 1.388 . S
C1191 C1192 1.366 . S
C1192 C1191 1.366 . S
C1192 C1193 1.414 . S
C1192 C1195 1.499 . S
C1193 H1167 0.950 . S
C1193 C1192 1.414 . S
C1193 C1194 1.374 . S
C1194 H1168 0.950 . S
C1194 C1190 1.385 . S
C1194 C1193 1.374 . S
C1195 C1192 1.499 . S
C1195 C1196 1.373 . S
C1195 C1197 1.389 . S
C1196 H1169 0.950 . S
C1196 C1182 1.377 . S
C1196 C1195 1.373 . S
C1197 C1181 1.377 . S
C1197 C1195 1.389 . S
C1197 C1198 1.524 . S
C1198 C1197 1.524 . S
C1198 C1199 1.397 . S
C1198 C1203 1.363 . S
C1199 H1170 0.950 . S
C1199 C1198 1.397 . S
C1199 C1200 1.334 . S
C1200 H1171 0.950 . S
C1200 C1199 1.334 . S
C1200 C1201 1.287 . S
C1201 C1200 1.287 . S
C1201 C1202 1.524 . S
C1201 H1204 0.999 . S
C1202 H1172 0.950 . S
C1202 C1201 1.524 . S
C1202 C1203 1.415 . S
C1203 H1173 0.950 . S
C1203 C1198 1.363 . S
C1203 C1202 1.415 . S
H1204 C1201 0.999 . S
H1205 C1186 0.913 . S
H1206 C1224 0.951 . S
H1207 C1226 0.951 . S
H1208 C1228 0.950 . S
H1209 C1229 0.950 . S
H1210 C1231 0.950 . S
H1211 C1234 0.950 . S
H1212 C1235 0.950 . S
H1213 C1237 0.950 . S
H1214 C1238 0.950 . S
H1215 C1239 0.951 . S
H1216 C1241 0.951 . S
H1217 C1243 0.950 . S
H1218 C1244 0.950 . S
H1219 C1246 0.950 . S
H1220 C1249 0.950 1_455 S
H1221 C1250 0.950 . S
H1222 C1252 0.950 . S
H1223 C1253 0.950 . S
C1224 H1206 0.951 . S
C1224 C1225 1.366 . S
C1224 C1226 1.388 . S
C1225 C1224 1.366 . S
C1225 C1229 1.385 1_455 S
C1226 H1207 0.951 . S
C1226 C1224 1.388 . S
C1226 C1227 1.366 . S
C1227 C1226 1.366 . S
C1227 C1228 1.414 1_455 S
C1227 C1230 1.499 . S
C1228 H1208 0.950 . S
C1228 C1227 1.414 1_655 S
C1228 C1229 1.374 . S
C1229 H1209 0.950 . S
C1229 C1225 1.385 1_655 S
C1229 C1228 1.374 . S
C1230 C1227 1.499 . S
C1230 C1231 1.373 1_455 S
C1230 C1232 1.389 . S
C1231 H1210 0.950 . S
C1231 C1230 1.373 1_655 S
C1231 C1247 1.377 1_565 S
C1232 C1230 1.389 . S
C1232 C1233 1.524 . S
C1232 C1246 1.377 1_565 S
C1233 C1232 1.524 . S
C1233 C1234 1.397 . S
C1233 C1238 1.363 . S
C1234 H1211 0.950 . S
C1234 C1233 1.397 . S
C1234 C1235 1.334 . S
C1235 H1212 0.950 . S
C1235 C1234 1.334 . S
C1235 C1236 1.287 . S
C1236 C1235 1.287 . S
C1236 C1237 1.524 . S
C1236 H1255 0.913 . S
C1237 H1213 0.950 . S
C1237 C1236 1.524 . S
C1237 C1238 1.415 . S
C1238 H1214 0.950 . S
C1238 C1233 1.363 . S
C1238 C1237 1.415 . S
C1239 H1215 0.951 . S
C1239 C1240 1.366 1_655 S
C1239 C1241 1.388 . S
C1240 C1239 1.366 1_455 S
C1240 C1244 1.385 . S
C1241 H1216 0.951 . S
C1241 C1239 1.388 . S
C1241 C1242 1.366 1_655 S
C1242 C1241 1.366 1_455 S
C1242 C1243 1.414 . S
C1242 C1245 1.499 . S
C1243 H1217 0.950 . S
C1243 C1242 1.414 . S
C1243 C1244 1.374 . S
C1244 H1218 0.950 . S
C1244 C1240 1.385 . S
C1244 C1243 1.374 . S
C1245 C1242 1.499 . S
C1245 C1246 1.373 . S
C1245 C1247 1.389 1_455 S
C1246 H1219 0.950 . S
C1246 C1232 1.377 1_545 S
C1246 C1245 1.373 . S
C1247 C1231 1.377 1_545 S
C1247 C1245 1.389 1_655 S
C1247 C1248 1.524 . S
C1248 C1247 1.524 . S
C1248 C1249 1.397 . S
C1248 C1253 1.363 . S
C1249 H1220 0.950 1_655 S
C1249 C1248 1.397 . S
C1249 C1250 1.334 . S
C1250 H1221 0.950 . S
C1250 C1249 1.334 . S
C1250 C1251 1.287 . S
C1251 C1250 1.287 . S
C1251 C1252 1.524 . S
C1251 H1254 0.999 . S
C1252 H1222 0.950 . S
C1252 C1251 1.524 . S
C1252 C1253 1.415 . S
C1253 H1223 0.950 . S
C1253 C1248 1.363 . S
C1253 C1252 1.415 . S
H1254 C1251 0.999 . S
H1255 C1236 0.913 . S
H1256 C1274 0.951 1_565 S
H1257 C1276 0.951 . S
H1258 C1278 0.950 . S
H1259 C1279 0.950 . S
H1260 C1281 0.950 . S
H1261 C1284 0.950 . S
H1262 C1285 0.950 . S
H1263 C1287 0.950 . S
H1264 C1288 0.950 . S
H1265 C1289 0.951 . S
H1266 C1291 0.951 . S
H1267 C1293 0.950 . S
H1268 C1294 0.950 . S
H1269 C1296 0.950 . S
H1270 C1299 0.950 . S
H1271 C1300 0.950 . S
H1272 C1302 0.950 . S
H1273 C1303 0.950 . S
C1274 H1256 0.951 1_545 S
C1274 C1275 1.366 1_545 S
C1274 C1276 1.388 . S
C1275 C1274 1.366 1_565 S
C1275 C1279 1.385 . S
C1276 H1257 0.951 . S
C1276 C1274 1.388 . S
C1276 C1277 1.366 . S
C1277 C1276 1.366 . S
C1277 C1278 1.414 . S
C1277 C1280 1.499 . S
C1278 H1258 0.950 . S
C1278 C1277 1.414 . S
C1278 C1279 1.374 1_545 S
C1279 H1259 0.950 . S
C1279 C1275 1.385 . S
C1279 C1278 1.374 1_565 S
C1280 C1277 1.499 . S
C1280 C1281 1.373 . S
C1280 C1282 1.389 . S
C1281 H1260 0.950 . S
C1281 C1280 1.373 . S
C1281 C1297 1.377 . S
C1282 C1280 1.389 . S
C1282 C1283 1.524 . S
C1282 C1296 1.377 . S
C1283 C1282 1.524 . S
C1283 C1284 1.397 . S
C1283 C1288 1.363 . S
C1284 H1261 0.950 . S
C1284 C1283 1.397 . S
C1284 C1285 1.334 . S
C1285 H1262 0.950 . S
C1285 C1284 1.334 . S
C1285 C1286 1.287 . S
C1286 C1285 1.287 . S
C1286 C1287 1.524 . S
C1286 H1305 0.913 . S
C1287 H1263 0.950 . S
C1287 C1286 1.524 . S
C1287 C1288 1.415 . S
C1288 H1264 0.950 . S
C1288 C1283 1.363 . S
C1288 C1287 1.415 . S
C1289 H1265 0.951 . S
C1289 C1290 1.366 . S
C1289 C1291 1.388 . S
C1290 C1289 1.366 . S
C1290 C1294 1.385 . S
C1291 H1266 0.951 . S
C1291 C1289 1.388 . S
C1291 C1292 1.366 . S
C1292 C1291 1.366 . S
C1292 C1293 1.414 . S
C1292 C1295 1.499 . S
C1293 H1267 0.950 . S
C1293 C1292 1.414 . S
C1293 C1294 1.374 . S
C1294 H1268 0.950 . S
C1294 C1290 1.385 . S
C1294 C1293 1.374 . S
C1295 C1292 1.499 . S
C1295 C1296 1.373 . S
C1295 C1297 1.389 . S
C1296 H1269 0.950 . S
C1296 C1282 1.377 . S
C1296 C1295 1.373 . S
C1297 C1281 1.377 . S
C1297 C1295 1.389 . S
C1297 C1298 1.524 . S
C1298 C1297 1.524 . S
C1298 C1299 1.397 . S
C1298 C1303 1.363 . S
C1299 H1270 0.950 . S
C1299 C1298 1.397 . S
C1299 C1300 1.334 . S
C1300 H1271 0.950 . S
C1300 C1299 1.334 . S
C1300 C1301 1.287 . S
C1301 C1300 1.287 . S
C1301 C1302 1.524 . S
C1301 H1304 0.999 . S
C1302 H1272 0.950 . S
C1302 C1301 1.524 . S
C1302 C1303 1.415 . S
C1303 H1273 0.950 . S
C1303 C1298 1.363 . S
C1303 C1302 1.415 . S
H1304 C1301 0.999 . S
H1305 C1286 0.913 . S
H1306 C1324 0.951 . S
H1307 C1326 0.951 . S
H1308 C1328 0.950 . S
H1309 C1329 0.950 . S
H1310 C1331 0.950 . S
H1311 C1334 0.950 . S
H1312 C1335 0.950 . S
H1313 C1337 0.950 . S
H1314 C1338 0.950 . S
H1315 C1339 0.951 . S
H1316 C1341 0.951 . S
H1317 C1343 0.950 . S
H1318 C1344 0.950 . S
H1319 C1346 0.950 . S
H1320 C1349 0.950 . S
H1321 C1350 0.950 . S
H1322 C1352 0.950 . S
H1323 C1353 0.950 . S
C1324 H1306 0.951 . S
C1324 C1325 1.366 . S
C1324 C1326 1.388 . S
C1325 C1324 1.366 . S
C1325 C1329 1.385 . S
C1326 H1307 0.951 . S
C1326 C1324 1.388 . S
C1326 C1327 1.366 . S
C1327 C1326 1.366 . S
C1327 C1328 1.414 . S
C1327 C1330 1.499 . S
C1328 H1308 0.950 . S
C1328 C1327 1.414 . S
C1328 C1329 1.374 . S
C1329 H1309 0.950 . S
C1329 C1325 1.385 . S
C1329 C1328 1.374 . S
C1330 C1327 1.499 . S
C1330 C1331 1.373 . S
C1330 C1332 1.389 . S
C1331 H1310 0.950 . S
C1331 C1330 1.373 . S
C1331 C1347 1.377 . S
C1332 C1330 1.389 . S
C1332 C1333 1.524 . S
C1332 C1346 1.377 . S
C1333 C1332 1.524 . S
C1333 C1334 1.397 . S
C1333 C1338 1.363 . S
C1334 H1311 0.950 . S
C1334 C1333 1.397 . S
C1334 C1335 1.334 . S
C1335 H1312 0.950 . S
C1335 C1334 1.334 . S
C1335 C1336 1.287 . S
C1336 C1335 1.287 . S
C1336 C1337 1.524 . S
C1336 H1355 0.913 . S
C1337 H1313 0.950 . S
C1337 C1336 1.524 . S
C1337 C1338 1.415 . S
C1338 H1314 0.950 . S
C1338 C1333 1.363 . S
C1338 C1337 1.415 . S
C1339 H1315 0.951 . S
C1339 C1340 1.366 . S
C1339 C1341 1.388 1_545 S
C1340 C1339 1.366 . S
C1340 C1344 1.385 . S
C1341 H1316 0.951 . S
C1341 C1339 1.388 1_565 S
C1341 C1342 1.366 . S
C1342 C1341 1.366 . S
C1342 C1343 1.414 . S
C1342 C1345 1.499 . S
C1343 H1317 0.950 . S
C1343 C1342 1.414 . S
C1343 C1344 1.374 1_565 S
C1344 H1318 0.950 . S
C1344 C1340 1.385 . S
C1344 C1343 1.374 1_545 S
C1345 C1342 1.499 . S
C1345 C1346 1.373 . S
C1345 C1347 1.389 . S
C1346 H1319 0.950 . S
C1346 C1332 1.377 . S
C1346 C1345 1.373 . S
C1347 C1331 1.377 . S
C1347 C1345 1.389 . S
C1347 C1348 1.524 . S
C1348 C1347 1.524 . S
C1348 C1349 1.397 . S
C1348 C1353 1.363 . S
C1349 H1320 0.950 . S
C1349 C1348 1.397 . S
C1349 C1350 1.334 . S
C1350 H1321 0.950 . S
C1350 C1349 1.334 . S
C1350 C1351 1.287 . S
C1351 C1350 1.287 . S
C1351 C1352 1.524 . S
C1351 H1354 0.999 . S
C1352 H1322 0.950 . S
C1352 C1351 1.524 . S
C1352 C1353 1.415 . S
C1353 H1323 0.950 . S
C1353 C1348 1.363 . S
C1353 C1352 1.415 . S
H1354 C1351 0.999 . S
H1355 C1336 0.913 . S
H1356 C1374 0.951 . S
H1357 C1376 0.951 . S
H1358 C1378 0.950 . S
H1359 C1379 0.950 . S
H1360 C1381 0.950 . S
H1361 C1384 0.950 . S
H1362 C1385 0.950 . S
H1363 C1387 0.950 . S
H1364 C1388 0.950 . S
H1365 C1389 0.951 . S
H1366 C1391 0.951 . S
H1367 C1393 0.950 . S
H1368 C1394 0.950 . S
H1369 C1396 0.950 . S
H1370 C1399 0.950 . S
H1371 C1400 0.950 . S
H1372 C1402 0.950 . S
H1373 C1403 0.950 . S
C1374 H1356 0.951 . S
C1374 C1375 1.366 . S
C1374 C1376 1.388 . S
C1375 C1374 1.366 . S
C1375 C1379 1.385 . S
C1376 H1357 0.951 . S
C1376 C1374 1.388 . S
C1376 C1377 1.366 . S
C1377 C1376 1.366 . S
C1377 C1378 1.414 . S
C1377 C1380 1.499 . S
C1378 H1358 0.950 . S
C1378 C1377 1.414 . S
C1378 C1379 1.374 . S
C1379 H1359 0.950 . S
C1379 C1375 1.385 . S
C1379 C1378 1.374 . S
C1380 C1377 1.499 . S
C1380 C1381 1.373 . S
C1380 C1382 1.389 . S
C1381 H1360 0.950 . S
C1381 C1380 1.373 . S
C1381 C1397 1.377 . S
C1382 C1380 1.389 . S
C1382 C1383 1.524 . S
C1382 C1396 1.377 . S
C1383 C1382 1.524 . S
C1383 C1384 1.397 . S
C1383 C1388 1.363 . S
C1384 H1361 0.950 . S
C1384 C1383 1.397 . S
C1384 C1385 1.334 . S
C1385 H1362 0.950 . S
C1385 C1384 1.334 . S
C1385 C1386 1.287 . S
C1386 C1385 1.287 . S
C1386 C1387 1.524 . S
C1386 H1405 0.913 . S
C1387 H1363 0.950 . S
C1387 C1386 1.524 . S
C1387 C1388 1.415 . S
C1388 H1364 0.950 . S
C1388 C1383 1.363 . S
C1388 C1387 1.415 . S
C1389 H1365 0.951 . S
C1389 C1390 1.366 . S
C1389 C1391 1.388 . S
C1390 C1389 1.366 . S
C1390 C1394 1.385 . S
C1391 H1366 0.951 . S
C1391 C1389 1.388 . S
C1391 C1392 1.366 . S
C1392 C1391 1.366 . S
C1392 C1393 1.414 . S
C1392 C1395 1.499 . S
C1393 H1367 0.950 . S
C1393 C1392 1.414 . S
C1393 C1394 1.374 . S
C1394 H1368 0.950 . S
C1394 C1390 1.385 . S
C1394 C1393 1.374 . S
C1395 C1392 1.499 . S
C1395 C1396 1.373 . S
C1395 C1397 1.389 . S
C1396 H1369 0.950 . S
C1396 C1382 1.377 . S
C1396 C1395 1.373 . S
C1397 C1381 1.377 . S
C1397 C1395 1.389 . S
C1397 C1398 1.524 . S
C1398 C1397 1.524 . S
C1398 C1399 1.397 . S
C1398 C1403 1.363 . S
C1399 H1370 0.950 . S
C1399 C1398 1.397 . S
C1399 C1400 1.334 . S
C1400 H1371 0.950 . S
C1400 C1399 1.334 . S
C1400 C1401 1.287 . S
C1401 C1400 1.287 . S
C1401 C1402 1.524 . S
C1401 H1404 0.999 . S
C1402 H1372 0.950 . S
C1402 C1401 1.524 . S
C1402 C1403 1.415 . S
C1403 H1373 0.950 . S
C1403 C1398 1.363 . S
C1403 C1402 1.415 . S
H1404 C1401 0.999 . S
H1405 C1386 0.913 . S
H1406 C1424 0.951 . S
H1407 C1426 0.951 . S
H1408 C1428 0.950 . S
H1409 C1429 0.950 . S
H1410 C1431 0.950 . S
H1411 C1434 0.950 . S
H1412 C1435 0.950 . S
H1413 C1437 0.950 . S
H1414 C1438 0.950 1_545 S
H1415 C1439 0.951 . S
H1416 C1441 0.951 . S
H1417 C1443 0.950 . S
H1418 C1444 0.950 . S
H1419 C1446 0.950 . S
H1420 C1449 0.950 . S
H1421 C1450 0.950 . S
H1422 C1452 0.950 . S
H1423 C1453 0.950 1_565 S
C1424 H1406 0.951 . S
C1424 C1425 1.366 1_556 S
C1424 C1426 1.388 . S
C1425 C1424 1.366 1_554 S
C1425 C1429 1.384 . S
C1426 H1407 0.951 . S
C1426 C1424 1.388 . S
C1426 C1427 1.362 1_556 S
C1427 C1426 1.362 1_554 S
C1427 C1428 1.417 . S
C1427 C1430 1.489 . S
C1428 H1408 0.950 . S
C1428 C1427 1.417 . S
C1428 C1429 1.374 . S
C1429 H1409 0.950 . S
C1429 C1425 1.384 . S
C1429 C1428 1.374 . S
C1430 C1427 1.489 . S
C1430 C1431 1.431 . S
C1430 C1432 1.347 1_554 S
C1431 H1410 0.950 . S
C1431 C1430 1.431 . S
C1431 C1447 1.377 1_565 S
C1432 C1430 1.347 1_556 S
C1432 C1433 1.524 . S
C1432 C1446 1.377 1_565 S
C1433 C1432 1.524 . S
C1433 C1434 1.397 . S
C1433 C1438 1.363 . S
C1434 H1411 0.950 . S
C1434 C1433 1.397 . S
C1434 C1435 1.334 . S
C1435 H1412 0.950 . S
C1435 C1434 1.334 . S
C1435 C1436 1.287 . S
C1436 C1435 1.287 . S
C1436 C1437 1.524 . S
C1436 H1455 0.913 . S
C1437 H1413 0.950 . S
C1437 C1436 1.524 . S
C1437 C1438 1.415 . S
C1438 H1414 0.950 1_565 S
C1438 C1433 1.363 . S
C1438 C1437 1.415 . S
C1439 H1415 0.951 . S
C1439 C1440 1.366 . S
C1439 C1441 1.388 . S
C1440 C1439 1.366 . S
C1440 C1444 1.385 1_554 S
C1441 H1416 0.951 . S
C1441 C1439 1.388 . S
C1441 C1442 1.366 . S
C1442 C1441 1.366 . S
C1442 C1443 1.414 1_554 S
C1442 C1445 1.499 . S
C1443 H1417 0.950 . S
C1443 C1442 1.414 1_556 S
C1443 C1444 1.374 . S
C1444 H1418 0.950 . S
C1444 C1440 1.385 1_556 S
C1444 C1443 1.374 . S
C1445 C1442 1.499 . S
C1445 C1446 1.373 1_554 S
C1445 C1447 1.389 . S
C1446 H1419 0.950 . S
C1446 C1432 1.377 1_545 S
C1446 C1445 1.373 1_556 S
C1447 C1431 1.377 1_545 S
C1447 C1445 1.389 . S
C1447 C1448 1.524 . S
C1448 C1447 1.524 . S
C1448 C1449 1.397 . S
C1448 C1453 1.363 . S
C1449 H1420 0.950 . S
C1449 C1448 1.397 . S
C1449 C1450 1.334 . S
C1450 H1421 0.950 . S
C1450 C1449 1.334 . S
C1450 C1451 1.287 . S
C1451 C1450 1.287 . S
C1451 C1452 1.524 . S
C1451 H1454 0.999 . S
C1452 H1422 0.950 . S
C1452 C1451 1.524 . S
C1452 C1453 1.415 . S
C1453 H1423 0.950 1_545 S
C1453 C1448 1.363 . S
C1453 C1452 1.415 . S
H1454 C1451 0.999 . S
H1455 C1436 0.913 . S
H1456 C1474 0.951 . S
H1457 C1476 0.950 . S
H1458 C1478 0.954 1_554 S
H1459 C1479 0.950 . S
H1460 C1481 0.950 . S
H1461 C1484 0.950 . S
H1462 C1485 0.950 . S
H1463 C1487 0.950 . S
H1464 C1488 0.950 . S
H1465 C1489 0.951 . S
H1466 C1491 0.951 . S
H1467 C1493 0.950 . S
H1468 C1494 0.950 . S
H1469 C1496 0.950 . S
H1470 C1499 0.950 . S
H1471 C1500 0.950 . S
H1472 C1502 0.950 . S
H1473 C1503 0.950 . S
C1474 H1456 0.951 . S
C1474 C1475 1.366 . S
C1474 C1476 1.390 . S
C1475 C1474 1.366 . S
C1475 C1479 1.385 . S
C1476 H1457 0.950 . S
C1476 C1474 1.390 . S
C1476 C1477 1.377 1_556 S
C1477 C1476 1.377 1_554 S
C1477 C1478 1.411 1_554 S
C1477 C1480 1.499 . S
C1478 H1458 0.954 1_556 S
C1478 C1477 1.411 1_556 S
C1478 C1479 1.374 . S
C1479 H1459 0.950 . S
C1479 C1475 1.385 . S
C1479 C1478 1.374 . S
C1480 C1477 1.499 . S
C1480 C1481 1.373 1_554 S
C1480 C1482 1.389 . S
C1481 H1460 0.950 . S
C1481 C1480 1.373 1_556 S
C1481 C1497 1.377 . S
C1482 C1480 1.389 . S
C1482 C1483 1.524 . S
C1482 C1496 1.377 . S
C1483 C1482 1.524 . S
C1483 C1484 1.397 . S
C1483 C1488 1.363 . S
C1484 H1461 0.950 . S
C1484 C1483 1.397 . S
C1484 C1485 1.334 . S
C1485 H1462 0.950 . S
C1485 C1484 1.334 . S
C1485 C1486 1.287 . S
C1486 C1485 1.287 . S
C1486 C1487 1.524 . S
C1486 H1505 0.913 . S
C1487 H1463 0.950 . S
C1487 C1486 1.524 . S
C1487 C1488 1.415 . S
C1488 H1464 0.950 . S
C1488 C1483 1.363 . S
C1488 C1487 1.415 . S
C1489 H1465 0.951 . S
C1489 C1490 1.366 . S
C1489 C1491 1.388 . S
C1490 C1489 1.366 . S
C1490 C1494 1.385 . S
C1491 H1466 0.951 . S
C1491 C1489 1.388 . S
C1491 C1492 1.366 . S
C1492 C1491 1.366 . S
C1492 C1493 1.414 . S
C1492 C1495 1.499 . S
C1493 H1467 0.950 . S
C1493 C1492 1.414 . S
C1493 C1494 1.374 . S
C1494 H1468 0.950 . S
C1494 C1490 1.385 . S
C1494 C1493 1.374 . S
C1495 C1492 1.499 . S
C1495 C1496 1.373 . S
C1495 C1497 1.389 1_554 S
C1496 H1469 0.950 . S
C1496 C1482 1.377 . S
C1496 C1495 1.373 . S
C1497 C1481 1.377 . S
C1497 C1495 1.389 1_556 S
C1497 C1498 1.524 . S
C1498 C1497 1.524 . S
C1498 C1499 1.397 . S
C1498 C1503 1.363 . S
C1499 H1470 0.950 . S
C1499 C1498 1.397 . S
C1499 C1500 1.334 . S
C1500 H1471 0.950 . S
C1500 C1499 1.334 . S
C1500 C1501 1.287 . S
C1501 C1500 1.287 . S
C1501 C1502 1.524 . S
C1501 H1504 0.999 . S
C1502 H1472 0.950 . S
C1502 C1501 1.524 . S
C1502 C1503 1.415 . S
C1503 H1473 0.950 . S
C1503 C1498 1.363 . S
C1503 C1502 1.415 . S
H1504 C1501 0.999 . S
H1505 C1486 0.913 . S
H1506 C1524 0.951 . S
H1507 C1526 0.951 . S
H1508 C1528 0.950 . S
H1509 C1529 0.950 . S
H1510 C1531 0.950 . S
H1511 C1534 0.950 . S
H1512 C1535 0.950 . S
H1513 C1537 0.950 . S
H1514 C1538 0.950 . S
H1515 C1539 0.951 . S
H1516 C1541 0.951 . S
H1517 C1543 0.950 . S
H1518 C1544 0.950 . S
H1519 C1546 0.950 . S
H1520 C1549 0.950 . S
H1521 C1550 0.950 . S
H1522 C1552 0.950 . S
H1523 C1553 0.950 . S
C1524 H1506 0.951 . S
C1524 C1525 1.366 1_554 S
C1524 C1526 1.388 . S
C1525 C1524 1.366 1_556 S
C1525 C1529 1.385 . S
C1526 H1507 0.951 . S
C1526 C1524 1.388 . S
C1526 C1527 1.371 . S
C1527 C1526 1.371 . S
C1527 C1528 1.408 1_554 S
C1527 C1530 1.502 . S
C1528 H1508 0.950 . S
C1528 C1527 1.408 1_556 S
C1528 C1529 1.374 . S
C1529 H1509 0.950 . S
C1529 C1525 1.385 . S
C1529 C1528 1.374 . S
C1530 C1527 1.502 . S
C1530 C1531 1.311 1_554 S
C1530 C1532 1.450 . S
C1531 H1510 0.950 . S
C1531 C1530 1.311 1_556 S
C1531 C1547 1.377 . S
C1532 C1530 1.450 . S
C1532 C1533 1.524 . S
C1532 C1546 1.377 . S
C1533 C1532 1.524 . S
C1533 C1534 1.397 . S
C1533 C1538 1.363 . S
C1534 H1511 0.950 . S
C1534 C1533 1.397 . S
C1534 C1535 1.334 . S
C1535 H1512 0.950 . S
C1535 C1534 1.334 . S
C1535 C1536 1.287 . S
C1536 C1535 1.287 . S
C1536 C1537 1.524 . S
C1536 H1555 0.913 . S
C1537 H1513 0.950 . S
C1537 C1536 1.524 . S
C1537 C1538 1.415 . S
C1538 H1514 0.950 . S
C1538 C1533 1.363 . S
C1538 C1537 1.415 . S
C1539 H1515 0.951 . S
C1539 C1540 1.366 1_556 S
C1539 C1541 1.388 . S
C1540 C1539 1.366 1_554 S
C1540 C1544 1.385 . S
C1541 H1516 0.951 . S
C1541 C1539 1.388 . S
C1541 C1542 1.366 1_556 S
C1542 C1541 1.366 1_554 S
C1542 C1543 1.414 . S
C1542 C1545 1.499 . S
C1543 H1517 0.950 . S
C1543 C1542 1.414 . S
C1543 C1544 1.374 . S
C1544 H1518 0.950 . S
C1544 C1540 1.385 . S
C1544 C1543 1.374 . S
C1545 C1542 1.499 . S
C1545 C1546 1.373 . S
C1545 C1547 1.389 1_554 S
C1546 H1519 0.950 . S
C1546 C1532 1.377 . S
C1546 C1545 1.373 . S
C1547 C1531 1.377 . S
C1547 C1545 1.389 1_556 S
C1547 C1548 1.524 . S
C1548 C1547 1.524 . S
C1548 C1549 1.397 . S
C1548 C1553 1.363 . S
C1549 H1520 0.950 . S
C1549 C1548 1.397 . S
C1549 C1550 1.334 . S
C1550 H1521 0.950 . S
C1550 C1549 1.334 . S
C1550 C1551 1.287 . S
C1551 C1550 1.287 . S
C1551 C1552 1.524 . S
C1551 H1554 0.999 . S
C1552 H1522 0.950 . S
C1552 C1551 1.524 . S
C1552 C1553 1.415 . S
C1553 H1523 0.950 . S
C1553 C1548 1.363 . S
C1553 C1552 1.415 . S
H1554 C1551 0.999 . S
H1555 C1536 0.913 . S
H1556 C1574 0.951 . S
H1557 C1576 0.951 . S
H1558 C1578 0.950 . S
H1559 C1579 0.950 . S
H1560 C1581 0.950 . S
H1561 C1584 0.950 . S
H1562 C1585 0.950 . S
H1563 C1587 0.950 . S
H1564 C1588 0.950 . S
H1565 C1589 0.951 . S
H1566 C1591 0.951 . S
H1567 C1593 0.950 . S
H1568 C1594 0.950 . S
H1569 C1596 0.950 . S
H1570 C1599 0.950 . S
H1571 C1600 0.950 . S
H1572 C1602 0.950 . S
H1573 C1603 0.950 . S
C1574 H1556 0.951 . S
C1574 C1575 1.366 . S
C1574 C1576 1.388 . S
C1575 C1574 1.366 . S
C1575 C1579 1.385 . S
C1576 H1557 0.951 . S
C1576 C1574 1.388 . S
C1576 C1577 1.366 . S
C1577 C1576 1.366 . S
C1577 C1578 1.414 . S
C1577 C1580 1.499 . S
C1578 H1558 0.950 . S
C1578 C1577 1.414 . S
C1578 C1579 1.374 . S
C1579 H1559 0.950 . S
C1579 C1575 1.385 . S
C1579 C1578 1.374 . S
C1580 C1577 1.499 . S
C1580 C1581 1.373 . S
C1580 C1582 1.389 . S
C1581 H1560 0.950 . S
C1581 C1580 1.373 . S
C1581 C1597 1.377 . S
C1582 C1580 1.389 . S
C1582 C1583 1.524 . S
C1582 C1596 1.377 1_455 S
C1583 C1582 1.524 . S
C1583 C1584 1.397 . S
C1583 C1588 1.363 1_455 S
C1584 H1561 0.950 . S
C1584 C1583 1.397 . S
C1584 C1585 1.334 . S
C1585 H1562 0.950 . S
C1585 C1584 1.334 . S
C1585 C1586 1.287 . S
C1586 C1585 1.287 . S
C1586 C1587 1.524 1_455 S
C1586 H1605 0.913 . S
C1587 H1563 0.950 . S
C1587 C1586 1.524 1_655 S
C1587 C1588 1.415 . S
C1588 H1564 0.950 . S
C1588 C1583 1.363 1_655 S
C1588 C1587 1.415 . S
C1589 H1565 0.951 . S
C1589 C1590 1.366 . S
C1589 C1591 1.388 . S
C1590 C1589 1.366 . S
C1590 C1594 1.385 . S
C1591 H1566 0.951 . S
C1591 C1589 1.388 . S
C1591 C1592 1.366 . S
C1592 C1591 1.366 . S
C1592 C1593 1.414 . S
C1592 C1595 1.499 . S
C1593 H1567 0.950 . S
C1593 C1592 1.414 . S
C1593 C1594 1.374 . S
C1594 H1568 0.950 . S
C1594 C1590 1.385 . S
C1594 C1593 1.374 . S
C1595 C1592 1.499 . S
C1595 C1596 1.373 . S
C1595 C1597 1.389 1_655 S
C1596 H1569 0.950 . S
C1596 C1582 1.377 1_655 S
C1596 C1595 1.373 . S
C1597 C1581 1.377 . S
C1597 C1595 1.389 1_455 S
C1597 C1598 1.524 . S
C1598 C1597 1.524 . S
C1598 C1599 1.397 1_455 S
C1598 C1603 1.363 . S
C1599 H1570 0.950 . S
C1599 C1598 1.397 1_655 S
C1599 C1600 1.334 . S
C1600 H1571 0.950 . S
C1600 C1599 1.334 . S
C1600 C1601 1.287 1_655 S
C1601 C1600 1.287 1_455 S
C1601 C1602 1.524 . S
C1601 H1604 0.999 . S
C1602 H1572 0.950 . S
C1602 C1601 1.524 . S
C1602 C1603 1.415 . S
C1603 H1573 0.950 . S
C1603 C1598 1.363 . S
C1603 C1602 1.415 . S
H1604 C1601 0.999 . S
H1605 C1586 0.913 . S
H1606 C1624 0.951 . S
H1607 C1626 0.951 . S
H1608 C1628 0.950 . S
H1609 C1629 0.950 . S
H1610 C1631 0.950 . S
H1611 C1634 0.950 . S
H1612 C1635 0.950 . S
H1613 C1637 0.950 . S
H1614 C1638 0.950 . S
H1615 C1639 0.951 . S
H1616 C1641 0.951 . S
H1617 C1643 0.950 . S
H1618 C1644 0.950 . S
H1619 C1646 0.950 . S
H1620 C1649 0.950 . S
H1621 C1650 0.950 . S
H1622 C1652 0.950 . S
H1623 C1653 0.950 . S
C1624 H1606 0.951 . S
C1624 C1625 1.366 . S
C1624 C1626 1.388 . S
C1625 C1624 1.366 . S
C1625 C1629 1.385 . S
C1626 H1607 0.951 . S
C1626 C1624 1.388 . S
C1626 C1627 1.366 . S
C1627 C1626 1.366 . S
C1627 C1628 1.414 . S
C1627 C1630 1.499 . S
C1628 H1608 0.950 . S
C1628 C1627 1.414 . S
C1628 C1629 1.374 . S
C1629 H1609 0.950 . S
C1629 C1625 1.385 . S
C1629 C1628 1.374 . S
C1630 C1627 1.499 . S
C1630 C1631 1.373 . S
C1630 C1632 1.389 . S
C1631 H1610 0.950 . S
C1631 C1630 1.373 . S
C1631 C1647 1.377 . S
C1632 C1630 1.389 . S
C1632 C1633 1.524 . S
C1632 C1646 1.377 . S
C1633 C1632 1.524 . S
C1633 C1634 1.397 . S
C1633 C1638 1.363 . S
C1634 H1611 0.950 . S
C1634 C1633 1.397 . S
C1634 C1635 1.334 . S
C1635 H1612 0.950 . S
C1635 C1634 1.334 . S
C1635 C1636 1.287 . S
C1636 C1635 1.287 . S
C1636 C1637 1.524 . S
C1636 H1655 0.913 . S
C1637 H1613 0.950 . S
C1637 C1636 1.524 . S
C1637 C1638 1.415 . S
C1638 H1614 0.950 . S
C1638 C1633 1.363 . S
C1638 C1637 1.415 . S
C1639 H1615 0.951 . S
C1639 C1640 1.366 . S
C1639 C1641 1.388 . S
C1640 C1639 1.366 . S
C1640 C1644 1.385 . S
C1641 H1616 0.951 . S
C1641 C1639 1.388 . S
C1641 C1642 1.366 . S
C1642 C1641 1.366 . S
C1642 C1643 1.414 . S
C1642 C1645 1.499 . S
C1643 H1617 0.950 . S
C1643 C1642 1.414 . S
C1643 C1644 1.374 . S
C1644 H1618 0.950 . S
C1644 C1640 1.385 . S
C1644 C1643 1.374 . S
C1645 C1642 1.499 . S
C1645 C1646 1.373 . S
C1645 C1647 1.389 . S
C1646 H1619 0.950 . S
C1646 C1632 1.377 . S
C1646 C1645 1.373 . S
C1647 C1631 1.377 . S
C1647 C1645 1.389 . S
C1647 C1648 1.524 . S
C1648 C1647 1.524 . S
C1648 C1649 1.397 . S
C1648 C1653 1.363 . S
C1649 H1620 0.950 . S
C1649 C1648 1.397 . S
C1649 C1650 1.334 . S
C1650 H1621 0.950 . S
C1650 C1649 1.334 . S
C1650 C1651 1.287 . S
C1651 C1650 1.287 . S
C1651 C1652 1.524 . S
C1651 H1654 0.999 . S
C1652 H1622 0.950 . S
C1652 C1651 1.524 . S
C1652 C1653 1.415 . S
C1653 H1623 0.950 . S
C1653 C1648 1.363 . S
C1653 C1652 1.415 . S
H1654 C1651 0.999 . S
H1655 C1636 0.913 . S
H1656 C1674 0.951 . S
H1657 C1676 0.951 . S
H1658 C1678 0.950 . S
H1659 C1679 0.950 . S
H1660 C1681 0.950 . S
H1661 C1684 0.950 . S
H1662 C1685 0.950 . S
H1663 C1687 0.950 . S
H1664 C1688 0.950 . S
H1665 C1689 0.951 . S
H1666 C1691 0.951 . S
H1667 C1693 0.950 . S
H1668 C1694 0.950 . S
H1669 C1696 0.950 . S
H1670 C1699 0.950 . S
H1671 C1700 0.950 . S
H1672 C1702 0.950 . S
H1673 C1703 0.950 . S
C1674 H1656 0.951 . S
C1674 C1675 1.366 . S
C1674 C1676 1.388 . S
C1675 C1674 1.366 . S
C1675 C1679 1.385 . S
C1676 H1657 0.951 . S
C1676 C1674 1.388 . S
C1676 C1677 1.366 . S
C1677 C1676 1.366 . S
C1677 C1678 1.414 . S
C1677 C1680 1.499 . S
C1678 H1658 0.950 . S
C1678 C1677 1.414 . S
C1678 C1679 1.374 . S
C1679 H1659 0.950 . S
C1679 C1675 1.385 . S
C1679 C1678 1.374 . S
C1680 C1677 1.499 . S
C1680 C1681 1.373 . S
C1680 C1682 1.389 . S
C1681 H1660 0.950 . S
C1681 C1680 1.373 . S
C1681 C1697 1.377 . S
C1682 C1680 1.389 . S
C1682 C1683 1.524 . S
C1682 C1696 1.377 . S
C1683 C1682 1.524 . S
C1683 C1684 1.397 . S
C1683 C1688 1.363 . S
C1684 H1661 0.950 . S
C1684 C1683 1.397 . S
C1684 C1685 1.334 . S
C1685 H1662 0.950 . S
C1685 C1684 1.334 . S
C1685 C1686 1.287 . S
C1686 C1685 1.287 . S
C1686 C1687 1.524 . S
C1686 H1705 0.913 . S
C1687 H1663 0.950 . S
C1687 C1686 1.524 . S
C1687 C1688 1.415 . S
C1688 H1664 0.950 . S
C1688 C1683 1.363 . S
C1688 C1687 1.415 . S
C1689 H1665 0.951 . S
C1689 C1690 1.366 . S
C1689 C1691 1.388 . S
C1690 C1689 1.366 . S
C1690 C1694 1.385 . S
C1691 H1666 0.951 . S
C1691 C1689 1.388 . S
C1691 C1692 1.366 . S
C1692 C1691 1.366 . S
C1692 C1693 1.414 . S
C1692 C1695 1.499 . S
C1693 H1667 0.950 . S
C1693 C1692 1.414 . S
C1693 C1694 1.374 . S
C1694 H1668 0.950 . S
C1694 C1690 1.385 . S
C1694 C1693 1.374 . S
C1695 C1692 1.499 . S
C1695 C1696 1.373 . S
C1695 C1697 1.389 . S
C1696 H1669 0.950 . S
C1696 C1682 1.377 . S
C1696 C1695 1.373 . S
C1697 C1681 1.377 . S
C1697 C1695 1.389 . S
C1697 C1698 1.524 . S
C1698 C1697 1.524 . S
C1698 C1699 1.397 . S
C1698 C1703 1.363 . S
C1699 H1670 0.950 . S
C1699 C1698 1.397 . S
C1699 C1700 1.334 . S
C1700 H1671 0.950 . S
C1700 C1699 1.334 . S
C1700 C1701 1.287 . S
C1701 C1700 1.287 . S
C1701 C1702 1.524 . S
C1701 H1704 0.999 . S
C1702 H1672 0.950 . S
C1702 C1701 1.524 . S
C1702 C1703 1.415 . S
C1703 H1673 0.950 . S
C1703 C1698 1.363 . S
C1703 C1702 1.415 . S
H1704 C1701 0.999 . S
H1705 C1686 0.913 . S
H1706 C1724 0.951 . S
H1707 C1726 0.951 1_565 S
H1708 C1728 0.950 . S
H1709 C1729 0.950 . S
H1710 C1731 0.945 1_655 S
H1711 C1734 0.964 . S
H1712 C1735 0.950 1_545 S
H1713 C1737 0.950 . S
H1714 C1738 0.950 . S
H1715 C1739 0.951 . S
H1716 C1741 0.951 1_545 S
H1717 C1743 0.950 . S
H1718 C1744 0.950 . S
H1719 C1746 0.950 . S
H1720 C1749 0.952 . S
H1721 C1750 0.950 1_565 S
H1722 C1752 0.950 . S
H1723 C1753 0.950 . S
C1724 H1706 0.951 . S
C1724 C1725 1.366 . S
C1724 C1726 1.388 . S
C1725 C1724 1.366 . S
C1725 C1729 1.385 . S
C1726 H1707 0.951 1_545 S
C1726 C1724 1.388 . S
C1726 C1727 1.366 . S
C1727 C1726 1.366 . S
C1727 C1728 1.414 . S
C1727 C1730 1.499 . S
C1728 H1708 0.950 . S
C1728 C1727 1.414 . S
C1728 C1729 1.374 . S
C1729 H1709 0.950 . S
C1729 C1725 1.385 . S
C1729 C1728 1.374 . S
C1730 C1727 1.499 . S
C1730 C1731 1.351 1_655 S
C1730 C1732 1.389 1_545 S
C1731 H1710 0.945 1_455 S
C1731 C1730 1.351 1_455 S
C1731 C1747 1.405 . S
C1732 C1730 1.389 1_565 S
C1732 C1733 1.524 . S
C1732 C1746 1.377 1_655 S
C1733 C1732 1.524 . S
C1733 C1734 1.384 1_565 S
C1733 C1738 1.363 . S
C1734 H1711 0.964 . S
C1734 C1733 1.384 1_545 S
C1734 C1735 1.332 1_545 S
C1735 H1712 0.950 1_565 S
C1735 C1734 1.332 1_565 S
C1735 C1736 1.287 . S
C1736 C1735 1.287 . S
C1736 C1737 1.524 . S
C1736 H1755 0.913 . S
C1737 H1713 0.950 . S
C1737 C1736 1.524 . S
C1737 C1738 1.415 . S
C1738 H1714 0.950 . S
C1738 C1733 1.363 . S
C1738 C1737 1.415 . S
C1739 H1715 0.951 . S
C1739 C1740 1.366 . S
C1739 C1741 1.388 . S
C1740 C1739 1.366 . S
C1740 C1744 1.385 . S
C1741 H1716 0.951 1_565 S
C1741 C1739 1.388 . S
C1741 C1742 1.366 . S
C1742 C1741 1.366 . S
C1742 C1743 1.414 . S
C1742 C1745 1.499 . S
C1743 H1717 0.950 . S
C1743 C1742 1.414 . S
C1743 C1744 1.374 . S
C1744 H1718 0.950 . S
C1744 C1740 1.385 . S
C1744 C1743 1.374 . S
C1745 C1742 1.499 . S
C1745 C1746 1.373 . S
C1745 C1747 1.389 1_565 S
C1746 H1719 0.950 . S
C1746 C1732 1.377 1_455 S
C1746 C1745 1.373 . S
C1747 C1731 1.405 . S
C1747 C1745 1.389 1_545 S
C1747 C1748 1.524 . S
C1748 C1747 1.524 . S
C1748 C1749 1.395 1_545 S
C1748 C1753 1.363 . S
C1749 H1720 0.952 . S
C1749 C1748 1.395 1_565 S
C1749 C1750 1.334 1_565 S
C1750 H1721 0.950 1_545 S
C1750 C1749 1.334 1_545 S
C1750 C1751 1.287 . S
C1751 C1750 1.287 . S
C1751 C1752 1.524 . S
C1751 H1754 0.999 . S
C1752 H1722 0.950 . S
C1752 C1751 1.524 . S
C1752 C1753 1.415 . S
C1753 H1723 0.950 . S
C1753 C1748 1.363 . S
C1753 C1752 1.415 . S
H1754 C1751 0.999 . S
H1755 C1736 0.913 . S
H1756 C1774 0.951 . S
H1757 C1776 0.951 . S
H1758 C1778 0.950 . S
H1759 C1779 0.950 . S
H1760 C1781 0.950 . S
H1761 C1784 0.950 . S
H1762 C1785 0.950 . S
H1763 C1787 0.950 . S
H1764 C1788 0.950 . S
H1765 C1789 0.951 . S
H1766 C1791 0.951 . S
H1767 C1793 0.950 . S
H1768 C1794 0.950 . S
H1769 C1796 0.950 . S
H1770 C1799 0.950 . S
H1771 C1800 0.950 . S
H1772 C1802 0.950 . S
H1773 C1803 0.950 . S
C1774 H1756 0.951 . S
C1774 C1775 1.366 . S
C1774 C1776 1.388 . S
C1775 C1774 1.366 . S
C1775 C1779 1.385 . S
C1776 H1757 0.951 . S
C1776 C1774 1.388 . S
C1776 C1777 1.366 . S
C1777 C1776 1.366 . S
C1777 C1778 1.414 . S
C1777 C1780 1.499 . S
C1778 H1758 0.950 . S
C1778 C1777 1.414 . S
C1778 C1779 1.374 . S
C1779 H1759 0.950 . S
C1779 C1775 1.385 . S
C1779 C1778 1.374 . S
C1780 C1777 1.499 . S
C1780 C1781 1.373 . S
C1780 C1782 1.389 . S
C1781 H1760 0.950 . S
C1781 C1780 1.373 . S
C1781 C1797 1.377 . S
C1782 C1780 1.389 . S
C1782 C1783 1.524 . S
C1782 C1796 1.377 . S
C1783 C1782 1.524 . S
C1783 C1784 1.397 . S
C1783 C1788 1.363 . S
C1784 H1761 0.950 . S
C1784 C1783 1.397 . S
C1784 C1785 1.334 . S
C1785 H1762 0.950 . S
C1785 C1784 1.334 . S
C1785 C1786 1.287 . S
C1786 C1785 1.287 . S
C1786 C1787 1.524 . S
C1786 H1805 0.913 . S
C1787 H1763 0.950 . S
C1787 C1786 1.524 . S
C1787 C1788 1.415 . S
C1788 H1764 0.950 . S
C1788 C1783 1.363 . S
C1788 C1787 1.415 . S
C1789 H1765 0.951 . S
C1789 C1790 1.366 . S
C1789 C1791 1.388 . S
C1790 C1789 1.366 . S
C1790 C1794 1.385 . S
C1791 H1766 0.951 . S
C1791 C1789 1.388 . S
C1791 C1792 1.366 . S
C1792 C1791 1.366 . S
C1792 C1793 1.414 . S
C1792 C1795 1.499 . S
C1793 H1767 0.950 . S
C1793 C1792 1.414 . S
C1793 C1794 1.374 . S
C1794 H1768 0.950 . S
C1794 C1790 1.385 . S
C1794 C1793 1.374 . S
C1795 C1792 1.499 . S
C1795 C1796 1.373 . S
C1795 C1797 1.389 . S
C1796 H1769 0.950 . S
C1796 C1782 1.377 . S
C1796 C1795 1.373 . S
C1797 C1781 1.377 . S
C1797 C1795 1.389 . S
C1797 C1798 1.524 . S
C1798 C1797 1.524 . S
C1798 C1799 1.397 . S
C1798 C1803 1.363 . S
C1799 H1770 0.950 . S
C1799 C1798 1.397 . S
C1799 C1800 1.334 . S
C1800 H1771 0.950 . S
C1800 C1799 1.334 . S
C1800 C1801 1.287 . S
C1801 C1800 1.287 . S
C1801 C1802 1.524 . S
C1801 H1804 0.999 . S
C1802 H1772 0.950 . S
C1802 C1801 1.524 . S
C1802 C1803 1.415 . S
C1803 H1773 0.950 . S
C1803 C1798 1.363 . S
C1803 C1802 1.415 . S
H1804 C1801 0.999 . S
H1805 C1786 0.913 . S
H1806 C1824 0.951 . S
H1807 C1826 0.951 1_545 S
H1808 C1828 0.950 . S
H1809 C1829 0.950 . S
H1810 C1831 0.950 . S
H1811 C1834 0.950 1_565 S
H1812 C1835 0.950 . S
H1813 C1837 0.950 . S
H1814 C1838 0.950 . S
H1815 C1839 0.951 . S
H1816 C1841 0.951 1_565 S
H1817 C1843 0.950 . S
H1818 C1844 0.950 . S
H1819 C1846 0.950 . S
H1820 C1849 0.950 1_545 S
H1821 C1850 0.950 . S
H1822 C1852 0.950 . S
H1823 C1853 0.950 . S
C1824 H1806 0.951 . S
C1824 C1825 1.366 . S
C1824 C1826 1.388 . S
C1825 C1824 1.366 . S
C1825 C1829 1.385 . S
C1826 H1807 0.951 1_565 S
C1826 C1824 1.388 . S
C1826 C1827 1.366 . S
C1827 C1826 1.366 . S
C1827 C1828 1.414 . S
C1827 C1830 1.499 . S
C1828 H1808 0.950 . S
C1828 C1827 1.414 . S
C1828 C1829 1.374 . S
C1829 H1809 0.950 . S
C1829 C1825 1.385 . S
C1829 C1828 1.374 . S
C1830 C1827 1.499 . S
C1830 C1831 1.373 . S
C1830 C1832 1.389 1_565 S
C1831 H1810 0.950 . S
C1831 C1830 1.373 . S
C1831 C1847 1.377 . S
C1832 C1830 1.389 1_545 S
C1832 C1833 1.524 . S
C1832 C1846 1.377 . S
C1833 C1832 1.524 . S
C1833 C1834 1.397 . S
C1833 C1838 1.363 . S
C1834 H1811 0.950 1_545 S
C1834 C1833 1.397 . S
C1834 C1835 1.334 . S
C1835 H1812 0.950 . S
C1835 C1834 1.334 . S
C1835 C1836 1.287 . S
C1836 C1835 1.287 . S
C1836 C1837 1.524 . S
C1836 H1855 0.913 . S
C1837 H1813 0.950 . S
C1837 C1836 1.524 . S
C1837 C1838 1.415 . S
C1838 H1814 0.950 . S
C1838 C1833 1.363 . S
C1838 C1837 1.415 . S
C1839 H1815 0.951 . S
C1839 C1840 1.366 . S
C1839 C1841 1.388 . S
C1840 C1839 1.366 . S
C1840 C1844 1.385 . S
C1841 H1816 0.951 1_545 S
C1841 C1839 1.388 . S
C1841 C1842 1.366 . S
C1842 C1841 1.366 . S
C1842 C1843 1.414 . S
C1842 C1845 1.499 . S
C1843 H1817 0.950 . S
C1843 C1842 1.414 . S
C1843 C1844 1.374 . S
C1844 H1818 0.950 . S
C1844 C1840 1.385 . S
C1844 C1843 1.374 . S
C1845 C1842 1.499 . S
C1845 C1846 1.373 . S
C1845 C1847 1.389 1_545 S
C1846 H1819 0.950 . S
C1846 C1832 1.377 . S
C1846 C1845 1.373 . S
C1847 C1831 1.377 . S
C1847 C1845 1.389 1_565 S
C1847 C1848 1.524 . S
C1848 C1847 1.524 . S
C1848 C1849 1.397 . S
C1848 C1853 1.363 . S
C1849 H1820 0.950 1_565 S
C1849 C1848 1.397 . S
C1849 C1850 1.334 . S
C1850 H1821 0.950 . S
C1850 C1849 1.334 . S
C1850 C1851 1.287 . S
C1851 C1850 1.287 . S
C1851 C1852 1.524 . S
C1851 H1854 0.999 . S
C1852 H1822 0.950 . S
C1852 C1851 1.524 . S
C1852 C1853 1.415 . S
C1853 H1823 0.950 . S
C1853 C1848 1.363 . S
C1853 C1852 1.415 . S
H1854 C1851 0.999 . S
H1855 C1836 0.913 . S
C275 C18 2.304 . S
C290 C53 2.277 . S
C325 C21 1.830 . S
C340 C82 1.798 . S
C375 C113 2.277 . S
C390 C54 2.303 . S
C425 C81 1.831 . S
C440 C118 1.798 . S
C475 C114 2.304 . S
C490 C149 2.278 . S
C525 C178 1.797 . S
C540 C117 1.830 . S
C575 C150 2.304 . S
C590 C17 2.277 . S
C625 C177 1.830 . S
C640 C22 1.798 . S
C675 C181 2.277 . S
C690 C210 2.304 . S
C725 C213 1.830 . S
C740 C146 1.798 . S
C775 C241 2.277 . S
C790 C182 2.304 . S
C825 C246 1.798 . S
C840 C145 1.830 . S
C875 C242 2.303 . S
C890 C85 2.277 . S
C925 C50 1.798 . S
C940 C245 1.831 . S
C975 C209 2.277 . S
C990 C86 2.304 . S
C1025 C214 1.799 . S
C1040 C49 1.831 . S
C1075 C19 0.791 . S
C1090 C23 0.791 . S
C1125 C51 0.793 . S
C1140 C55 0.793 . S
C1175 C83 0.793 . S
C1190 C87 0.793 . S
C1225 C119 0.793 . S
C1240 C115 0.793 . S
C1275 C147 0.793 . S
C1290 C151 0.793 . S
C1325 C179 0.792 . S
C1340 C183 0.792 . S
C1375 C211 0.792 . S
C1390 C215 0.792 . S
C1425 C247 0.792 . S
C1440 C243 0.791 . S
C1475 C240 1.310 . S
C1490 C20 1.310 . S
C1525 C16 1.310 . S
C1540 C244 1.310 . S
C1575 C48 1.310 . S
C1590 C84 1.310 . S
C1625 C208 1.310 . S
C1640 C116 1.310 . S
C1675 C112 1.310 . S
C1690 C212 1.310 . S
C1725 C180 1.310 . S
C1740 C144 1.310 . S
C1775 C176 1.310 . S
C1790 C148 1.310 . S
C1825 C80 1.310 . S
C1840 C52 1.310 . S
