# Generated by pormake.
# Topology wjh, (4)-cn, num edge types: 1
# Building blocks:
#     Node 0, Type 0, BuildingBlock: UXUYUI_clean_sbu_0, # of connection points: 4
#     Node 1, Type 0, BuildingBlock: UXUYUI_clean_sbu_0, # of connection points: 4
#     Node 2, Type 0, BuildingBlock: UXUYUI_clean_sbu_0, # of connection points: 4
#     Node 3, Type 0, BuildingBlock: UXUYUI_clean_sbu_0, # of connection points: 4
#     Node 4, Type 0, BuildingBlock: UXUYUI_clean_sbu_0, # of connection points: 4
#     Node 5, Type 0, BuildingBlock: UXUYUI_clean_sbu_0, # of connection points: 4
#     Node 6, Type 0, BuildingBlock: UXUYUI_clean_sbu_0, # of connection points: 4
#     Node 7, Type 0, BuildingBlock: UXUYUI_clean_sbu_0, # of connection points: 4
#     Node 8, Type 0, BuildingBlock: UXUYUI_clean_sbu_0, # of connection points: 4
#     Node 9, Type 0, BuildingBlock: UXUYUI_clean_sbu_0, # of connection points: 4
#     Node 10, Type 0, BuildingBlock: UXUYUI_clean_sbu_0, # of connection points: 4
#     Node 11, Type 0, BuildingBlock: UXUYUI_clean_sbu_0, # of connection points: 4
#     Edge 12, Type (0, 0), BuildingBlock: UVAHIK_clean_linker_0, # of connection points: 2
#     Edge 13, Type (0, 0), BuildingBlock: UVAHIK_clean_linker_0, # of connection points: 2
#     Edge 14, Type (0, 0), BuildingBlock: UVAHIK_clean_linker_0, # of connection points: 2
#     Edge 15, Type (0, 0), BuildingBlock: UVAHIK_clean_linker_0, # of connection points: 2
#     Edge 16, Type (0, 0), BuildingBlock: UVAHIK_clean_linker_0, # of connection points: 2
#     Edge 17, Type (0, 0), BuildingBlock: UVAHIK_clean_linker_0, # of connection points: 2
#     Edge 18, Type (0, 0), BuildingBlock: UVAHIK_clean_linker_0, # of connection points: 2
#     Edge 19, Type (0, 0), BuildingBlock: UVAHIK_clean_linker_0, # of connection points: 2
#     Edge 20, Type (0, 0), BuildingBlock: UVAHIK_clean_linker_0, # of connection points: 2
#     Edge 21, Type (0, 0), BuildingBlock: UVAHIK_clean_linker_0, # of connection points: 2
#     Edge 22, Type (0, 0), BuildingBlock: UVAHIK_clean_linker_0, # of connection points: 2
#     Edge 23, Type (0, 0), BuildingBlock: UVAHIK_clean_linker_0, # of connection points: 2
#     Edge 24, Type (0, 0), BuildingBlock: UVAHIK_clean_linker_0, # of connection points: 2
#     Edge 25, Type (0, 0), BuildingBlock: UVAHIK_clean_linker_0, # of connection points: 2
#     Edge 26, Type (0, 0), BuildingBlock: UVAHIK_clean_linker_0, # of connection points: 2
#     Edge 27, Type (0, 0), BuildingBlock: UVAHIK_clean_linker_0, # of connection points: 2
#     Edge 28, Type (0, 0), BuildingBlock: UVAHIK_clean_linker_0, # of connection points: 2
#     Edge 29, Type (0, 0), BuildingBlock: UVAHIK_clean_linker_0, # of connection points: 2
#     Edge 30, Type (0, 0), BuildingBlock: UVAHIK_clean_linker_0, # of connection points: 2
#     Edge 31, Type (0, 0), BuildingBlock: UVAHIK_clean_linker_0, # of connection points: 2
#     Edge 32, Type (0, 0), BuildingBlock: UVAHIK_clean_linker_0, # of connection points: 2
#     Edge 33, Type (0, 0), BuildingBlock: UVAHIK_clean_linker_0, # of connection points: 2
#     Edge 34, Type (0, 0), BuildingBlock: UVAHIK_clean_linker_0, # of connection points: 2
#     Edge 35, Type (0, 0), BuildingBlock: UVAHIK_clean_linker_0, # of connection points: 2
# Relax obj value: 0.245
# Max RMSD: 0.173
# Mean RMSD: 0.173
data_MOF--net-wjh--node1-UXUYUI_clean_sbu_0--edge1-UVAHIK_clean_linker_0
_symmetry_space_group_name_H-M    P1
_symmetry_Int_Tables_number       1
_symmetry_cell_setting            triclinic
loop_
_symmetry_equiv_pos_as_xyz
'x, y, z'
_cell_length_a     108.03402
_cell_length_b     108.02614
_cell_length_c     42.895005
_cell_angle_alpha  90.003519
_cell_angle_beta   90.009722
_cell_angle_gamma 120.0071
loop_
_atom_site_label
_atom_site_type_symbol
_atom_site_fract_x
_atom_site_fract_y
_atom_site_fract_z
_atom_type_partial_charge
Li0 Li 0.4742 0.11398 0.06535 0.0
Li1 Li 0.49602 0.12833 0.09576 0.0
Li2 Li 0.48331 0.13913 0.06709 0.0
Li3 Li 0.49706 0.13061 0.03826 0.0
C4 C 0.46514 0.11702 0.12076 0.0
N5 N 0.44156 0.09861 0.15577 0.0
C6 C 0.46677 0.11038 0.14715 0.0
C7 C 0.45154 0.11444 0.11239 0.0
C8 C 0.45471 0.10108 0.1645 0.0
C9 C 0.43975 0.10505 0.13031 0.0
C10 C 0.50055 0.10723 0.06424 0.0
C11 C 0.52354 0.10885 0.05882 0.0
N12 N 0.51734 0.09457 0.06425 0.0
C13 C 0.49438 0.09254 0.06947 0.0
C14 C 0.51523 0.11543 0.05865 0.0
C15 C 0.50306 0.08635 0.06951 0.0
C16 C 0.44712 0.09255 0.04284 0.0
N17 N 0.45751 0.09579 0.06444 0.0
C18 C 0.44378 0.07302 0.08866 0.0
C19 C 0.45616 0.08631 0.08684 0.0
C20 C 0.4328 0.06938 0.06686 0.0
C21 C 0.43459 0.07925 0.04353 0.0
H22 H 0.44854 0.10029 0.02519 0.0
H23 H 0.46469 0.08918 0.10351 0.0
C24 C 0.513 0.14125 0.14888 0.0
N25 N 0.5062 0.1289 0.13226 0.0
C26 C 0.5207 0.14202 0.17568 0.0
C27 C 0.51402 0.11727 0.16797 0.0
C28 C 0.50638 0.11696 0.1415 0.0
C29 C 0.52136 0.12994 0.18533 0.0
H30 H 0.51252 0.15053 0.14115 0.0
H31 H 0.5005 0.10714 0.12852 0.0
C32 C 0.4718 0.13276 0.01022 0.0
N33 N 0.46074 0.14544 0.97198 0.0
C34 C 0.47953 0.14067 0.98427 0.0
C35 C 0.45838 0.13116 0.01654 0.0
C36 C 0.47376 0.14703 0.96525 0.0
C37 C 0.453 0.1377 0.99699 0.0
C38 C 0.51788 0.1571 0.0686 0.0
C39 C 0.52075 0.17047 0.05763 0.0
C40 C 0.52917 0.15526 0.07867 0.0
C41 C 0.53489 0.18168 0.0563 0.0
C42 C 0.54315 0.16674 0.077 0.0
N43 N 0.5457 0.17959 0.0659 0.0
C44 C 0.47064 0.15364 0.09422 0.0
C45 C 0.48261 0.16376 0.04665 0.0
C46 C 0.46711 0.16433 0.09751 0.0
N47 N 0.47831 0.15359 0.06919 0.0
C48 C 0.4793 0.17465 0.04895 0.0
C49 C 0.47159 0.17511 0.07485 0.0
H50 H 0.46754 0.14556 0.11205 0.0
H51 H 0.48879 0.16352 0.02709 0.0
C52 C 0.50528 0.12063 0.98706 0.0
N53 N 0.50847 0.1328 0.00274 0.0
C54 C 0.51353 0.12109 0.96161 0.0
C55 C 0.528 0.14667 0.96839 0.0
C56 C 0.51942 0.14572 0.99364 0.0
C57 C 0.52519 0.13423 0.95218 0.0
H58 H 0.49639 0.11053 0.99462 0.0
H59 H 0.5216 0.15528 0.006 0.0
O60 O 0.47679 0.12596 0.10316 0.0
O61 O 0.49217 0.11342 0.06419 0.0
O62 O 0.4773 0.12652 0.02917 0.0
O63 O 0.50407 0.14603 0.07018 0.0
H64 H 0.47722 0.11229 0.15402 0.0
H65 H 0.45011 0.11952 0.09207 0.0
H66 H 0.4558 0.0958 0.18487 0.0
H67 H 0.42915 0.10286 0.12396 0.0
H68 H 0.53492 0.11509 0.0545 0.0
H69 H 0.48302 0.08599 0.07354 0.0
H70 H 0.52013 0.12671 0.05376 0.0
H71 H 0.49843 0.07501 0.07368 0.0
H72 H 0.4429 0.06557 0.10663 0.0
H73 H 0.42635 0.07677 0.02627 0.0
H74 H 0.52625 0.152 0.18842 0.0
H75 H 0.51403 0.10765 0.17502 0.0
H76 H 0.4899 0.14197 0.97897 0.0
H77 H 0.45226 0.12505 0.0365 0.0
H78 H 0.47965 0.15324 0.94518 0.0
H79 H 0.44268 0.13664 0.00173 0.0
H80 H 0.51219 0.17216 0.05005 0.0
H81 H 0.52719 0.14515 0.08804 0.0
H82 H 0.53725 0.19204 0.04766 0.0
H83 H 0.55198 0.16543 0.08467 0.0
H84 H 0.46139 0.16445 0.11815 0.0
H85 H 0.48288 0.18271 0.03087 0.0
H86 H 0.51078 0.11126 0.94944 0.0
H87 H 0.53691 0.15701 0.96208 0.0
Li88 Li 0.36347 0.49761 0.26846 0.0
Li89 Li 0.3576 0.47521 0.24178 0.0
Li90 Li 0.36241 0.49692 0.2107 0.0
Li91 Li 0.34038 0.48287 0.23964 0.0
C92 C 0.3899 0.50181 0.23794 0.0
N93 N 0.41942 0.51756 0.23596 0.0
C94 C 0.39802 0.49555 0.24647 0.0
C95 C 0.39682 0.51604 0.22797 0.0
C96 C 0.41293 0.5037 0.24547 0.0
C97 C 0.41174 0.52383 0.22723 0.0
C98 C 0.34485 0.46739 0.29815 0.0
C99 C 0.3327 0.44238 0.3118 0.0
N100 N 0.33994 0.44572 0.3393 0.0
C101 C 0.35209 0.47059 0.32665 0.0
C102 C 0.33499 0.45319 0.29074 0.0
C103 C 0.34948 0.45948 0.3471 0.0
C104 C 0.36706 0.51593 0.31928 0.0
N105 N 0.3728 0.50897 0.30392 0.0
C106 C 0.39249 0.51814 0.33926 0.0
C107 C 0.38514 0.50974 0.31364 0.0
C108 C 0.38696 0.52561 0.35535 0.0
C109 C 0.37401 0.52435 0.3453 0.0
H110 H 0.35713 0.51497 0.31122 0.0
H111 H 0.38921 0.50373 0.30172 0.0
C112 C 0.35611 0.44929 0.22243 0.0
N113 N 0.36073 0.45954 0.24482 0.0
C114 C 0.35849 0.43777 0.22561 0.0
C115 C 0.36999 0.4475 0.2751 0.0
C116 C 0.36768 0.45894 0.27061 0.0
C117 C 0.36554 0.43676 0.25228 0.0
H118 H 0.3507 0.45013 0.20201 0.0
H119 H 0.37139 0.46736 0.28782 0.0
C120 C 0.35622 0.51789 0.23873 0.0
N121 N 0.36247 0.546 0.23594 0.0
C122 C 0.34564 0.52111 0.23031 0.0
C123 C 0.36992 0.52897 0.24616 0.0
C124 C 0.34903 0.53538 0.2289 0.0
C125 C 0.37289 0.54311 0.24452 0.0
C126 C 0.33597 0.46957 0.18548 0.0
C127 C 0.33452 0.47638 0.15918 0.0
C128 C 0.32523 0.4557 0.19287 0.0
C129 C 0.32221 0.46924 0.1409 0.0
C130 C 0.31307 0.44894 0.17403 0.0
N131 N 0.31182 0.4558 0.14867 0.0
C132 C 0.37997 0.50452 0.15808 0.0
C133 C 0.36812 0.51784 0.16399 0.0
C134 C 0.38697 0.51229 0.13145 0.0
N135 N 0.37091 0.50754 0.17392 0.0
C136 C 0.375 0.52599 0.13771 0.0
C137 C 0.38462 0.5233 0.12124 0.0
H138 H 0.38189 0.49618 0.16644 0.0
H139 H 0.36057 0.51978 0.17638 0.0
C140 C 0.31198 0.46806 0.26184 0.0
N141 N 0.3207 0.47693 0.23922 0.0
C142 C 0.29762 0.46432 0.26272 0.0
C143 C 0.30146 0.4787 0.21662 0.0
C144 C 0.31573 0.48214 0.21664 0.0
C145 C 0.29228 0.46988 0.24021 0.0
H146 H 0.31625 0.46423 0.27974 0.0
H147 H 0.32295 0.48922 0.19901 0.0
O148 O 0.37528 0.49392 0.23879 0.0
O149 O 0.3474 0.47812 0.27769 0.0
O150 O 0.35304 0.50394 0.24017 0.0
O151 O 0.34785 0.47646 0.20388 0.0
H152 H 0.39289 0.48452 0.25393 0.0
H153 H 0.39079 0.52098 0.22041 0.0
H154 H 0.41933 0.49901 0.25219 0.0
H155 H 0.41722 0.53485 0.21956 0.0
H156 H 0.32519 0.43134 0.30626 0.0
H157 H 0.35969 0.48153 0.33283 0.0
H158 H 0.3293 0.45053 0.26881 0.0
H159 H 0.35506 0.46179 0.36916 0.0
H160 H 0.40229 0.51859 0.34672 0.0
H161 H 0.36942 0.52997 0.35715 0.0
H162 H 0.35509 0.42992 0.20711 0.0
H163 H 0.37519 0.44712 0.29636 0.0
H164 H 0.33494 0.51269 0.22483 0.0
H165 H 0.37813 0.52671 0.25357 0.0
H166 H 0.34096 0.53802 0.22225 0.0
H167 H 0.38345 0.55178 0.2502 0.0
H168 H 0.34276 0.4871 0.1531 0.0
H169 H 0.32623 0.45026 0.21303 0.0
H170 H 0.3209 0.47441 0.12058 0.0
H171 H 0.30463 0.43824 0.17958 0.0
H172 H 0.39437 0.50995 0.11939 0.0
H173 H 0.37275 0.53424 0.1302 0.0
H174 H 0.29095 0.45769 0.28162 0.0
H175 H 0.29773 0.48314 0.19874 0.0
Li176 Li 0.88218 0.36053 0.40102 0.0
Li177 Li 0.86453 0.36515 0.4259 0.0
Li178 Li 0.85756 0.343 0.39763 0.0
Li179 Li 0.86609 0.36538 0.36985 0.0
C180 C 0.87751 0.34832 0.45683 0.0
N181 N 0.89577 0.34588 0.49827 0.0
C182 C 0.88148 0.35622 0.48449 0.0
C183 C 0.88277 0.33911 0.45035 0.0
C184 C 0.89073 0.35484 0.50513 0.0
C185 C 0.89202 0.33805 0.47155 0.0
C186 C 0.888 0.39092 0.38504 0.0
C187 C 0.88881 0.41213 0.36469 0.0
N188 N 0.90197 0.41639 0.35255 0.0
C189 C 0.90155 0.39553 0.37247 0.0
C190 C 0.88159 0.39931 0.38126 0.0
C191 C 0.90843 0.40843 0.35611 0.0
C192 C 0.90684 0.35838 0.38641 0.0
N193 N 0.90108 0.36414 0.4057 0.0
C194 C 0.92229 0.37535 0.4364 0.0
C195 C 0.90855 0.37266 0.42998 0.0
C196 C 0.92866 0.36962 0.41696 0.0
C197 C 0.92075 0.36107 0.39155 0.0
H198 H 0.90066 0.35176 0.36705 0.0
H199 H 0.90369 0.37719 0.44469 0.0
C200 C 0.85182 0.36537 0.48379 0.0
N201 N 0.86124 0.37362 0.46136 0.0
C202 C 0.85012 0.37165 0.51069 0.0
C203 C 0.86792 0.39476 0.49091 0.0
C204 C 0.86921 0.38804 0.4644 0.0
C205 C 0.85838 0.38653 0.51461 0.0
H206 H 0.84588 0.35388 0.4811 0.0
H207 H 0.87681 0.39433 0.44654 0.0
C208 C 0.86631 0.33879 0.3448 0.0
N209 N 0.85415 0.31404 0.30972 0.0
C210 C 0.85717 0.33712 0.32008 0.0
C211 C 0.86934 0.32793 0.35158 0.0
C212 C 0.85112 0.32451 0.30263 0.0
C213 C 0.86306 0.31548 0.33361 0.0
C214 C 0.83801 0.35599 0.41025 0.0
C215 C 0.8277 0.34421 0.42694 0.0
C216 C 0.83754 0.36868 0.40992 0.0
C217 C 0.8171 0.34536 0.44312 0.0
C218 C 0.82678 0.36941 0.42645 0.0
N219 N 0.81687 0.35783 0.44257 0.0
C220 C 0.84534 0.31433 0.41699 0.0
C221 C 0.83214 0.31871 0.37873 0.0
C222 C 0.83435 0.30023 0.42019 0.0
N223 N 0.84391 0.32328 0.397 0.0
C224 C 0.82082 0.30471 0.38136 0.0
C225 C 0.82172 0.29542 0.40294 0.0
H226 H 0.8547 0.31831 0.43158 0.0
H227 H 0.83127 0.32615 0.36327 0.0
C228 C 0.87555 0.38096 0.31353 0.0
N229 N 0.86422 0.37407 0.33309 0.0
C230 C 0.87468 0.38837 0.28777 0.0
C231 C 0.85014 0.38051 0.3015 0.0
C232 C 0.85158 0.37348 0.3273 0.0
C233 C 0.86187 0.38834 0.28159 0.0
H234 H 0.88538 0.38099 0.31837 0.0
H235 H 0.84263 0.36761 0.34281 0.0
O236 O 0.86861 0.34967 0.43613 0.0
O237 O 0.88102 0.37825 0.40088 0.0
O238 O 0.87205 0.3509 0.36261 0.0
O239 O 0.84862 0.35516 0.39464 0.0
H240 H 0.87759 0.36345 0.48989 0.0
H241 H 0.88 0.33306 0.42886 0.0
H242 H 0.89393 0.36094 0.52655 0.0
H243 H 0.89627 0.33107 0.46668 0.0
H244 H 0.88393 0.41867 0.3614 0.0
H245 H 0.90667 0.38917 0.37508 0.0
H246 H 0.87108 0.39588 0.39071 0.0
H247 H 0.9189 0.4121 0.34615 0.0
H248 H 0.92777 0.38175 0.45662 0.0
H249 H 0.92526 0.35664 0.37555 0.0
H250 H 0.84279 0.36493 0.52864 0.0
H251 H 0.8744 0.40627 0.49293 0.0
H252 H 0.85466 0.3454 0.31462 0.0
H253 H 0.87633 0.32904 0.37076 0.0
H254 H 0.84397 0.32303 0.28352 0.0
H255 H 0.86523 0.30694 0.33871 0.0
H256 H 0.82798 0.33435 0.42776 0.0
H257 H 0.84548 0.37792 0.39728 0.0
H258 H 0.80909 0.33635 0.45623 0.0
H259 H 0.82634 0.3792 0.42653 0.0
H260 H 0.83536 0.29346 0.43744 0.0
H261 H 0.81125 0.30136 0.36762 0.0
H262 H 0.88406 0.39432 0.27338 0.0
H263 H 0.83992 0.3798 0.29726 0.0
Li264 Li 0.52072 0.88286 0.56416 0.0
Li265 Li 0.49859 0.86888 0.59386 0.0
Li266 Li 0.51099 0.85766 0.56646 0.0
Li267 Li 0.49779 0.86635 0.53644 0.0
C268 C 0.52894 0.8796 0.62092 0.0
N269 N 0.55186 0.89743 0.65827 0.0
C270 C 0.52679 0.8856 0.64781 0.0
C271 C 0.54273 0.88254 0.61323 0.0
C272 C 0.53853 0.89461 0.66635 0.0
C273 C 0.55418 0.89162 0.63234 0.0
C274 C 0.49572 0.89119 0.56154 0.0
C275 C 0.47432 0.89245 0.55255 0.0
N276 N 0.48145 0.90647 0.56088 0.0
C277 C 0.50287 0.90567 0.56961 0.0
C278 C 0.48136 0.88456 0.55262 0.0
C279 C 0.49546 0.91319 0.5693 0.0
C280 C 0.5475 0.90405 0.54006 0.0
N281 N 0.53769 0.90087 0.56303 0.0
C282 C 0.55238 0.92345 0.58737 0.0
C283 C 0.53982 0.91028 0.58624 0.0
C284 C 0.56274 0.92705 0.56406 0.0
C285 C 0.56018 0.91722 0.54003 0.0
H286 H 0.54547 0.89637 0.52179 0.0
H287 H 0.53176 0.90751 0.60402 0.0
C288 C 0.48143 0.85614 0.64658 0.0
N289 N 0.48819 0.86848 0.62989 0.0
C290 C 0.47349 0.85529 0.673 0.0
C291 C 0.47982 0.87991 0.66478 0.0
C292 C 0.4877 0.88031 0.63868 0.0
C293 C 0.47253 0.86726 0.68221 0.0
H294 H 0.48213 0.84694 0.63919 0.0
H295 H 0.49351 0.89011 0.62564 0.0
C296 C 0.52294 0.86323 0.51105 0.0
N297 N 0.5337 0.84909 0.47671 0.0
C298 C 0.51505 0.85438 0.48629 0.0
C299 C 0.53636 0.86501 0.51816 0.0
C300 C 0.52067 0.8473 0.46924 0.0
C301 C 0.5416 0.85773 0.50059 0.0
C302 C 0.47593 0.84123 0.56846 0.0
C303 C 0.47122 0.82688 0.56176 0.0
C304 C 0.46594 0.84541 0.57575 0.0
C305 C 0.45657 0.81702 0.5618 0.0
C306 C 0.45139 0.83523 0.5756 0.0
N307 N 0.44704 0.82136 0.56864 0.0
C308 C 0.52454 0.84326 0.59079 0.0
C309 C 0.50872 0.83155 0.54865 0.0
C310 C 0.52727 0.832 0.59384 0.0
N311 N 0.51531 0.84276 0.56866 0.0
C312 C 0.51105 0.82001 0.55099 0.0
C313 C 0.52028 0.82008 0.57413 0.0
H314 H 0.52949 0.85221 0.60662 0.0
H315 H 0.50146 0.83149 0.53122 0.0
C316 C 0.49015 0.87584 0.48334 0.0
N317 N 0.48675 0.86392 0.50024 0.0
C318 C 0.48223 0.87497 0.45691 0.0
C319 C 0.46761 0.84951 0.46545 0.0
C320 C 0.47588 0.85086 0.4916 0.0
C321 C 0.47072 0.86168 0.44785 0.0
H322 H 0.49893 0.88606 0.49069 0.0
H323 H 0.47363 0.84149 0.50486 0.0
O324 O 0.5176 0.87088 0.60231 0.0
O325 O 0.50288 0.8837 0.56169 0.0
O326 O 0.51752 0.87007 0.5283 0.0
O327 O 0.49026 0.851 0.56852 0.0
H328 H 0.5162 0.88339 0.6542 0.0
H329 H 0.54459 0.87801 0.59249 0.0
H330 H 0.53703 0.89938 0.68713 0.0
H331 H 0.56492 0.89409 0.62651 0.0
H332 H 0.4632 0.88743 0.54573 0.0
H333 H 0.51402 0.91106 0.57618 0.0
H334 H 0.47573 0.87352 0.54534 0.0
H335 H 0.50085 0.92437 0.5757 0.0
H336 H 0.55384 0.93086 0.60594 0.0
H337 H 0.56793 0.91967 0.52162 0.0
H338 H 0.46798 0.84532 0.68578 0.0
H339 H 0.47957 0.88945 0.67149 0.0
H340 H 0.50465 0.8529 0.48046 0.0
H341 H 0.54261 0.87184 0.53722 0.0
H342 H 0.51465 0.84035 0.45012 0.0
H343 H 0.55192 0.85893 0.50597 0.0
H344 H 0.47876 0.82337 0.55648 0.0
H345 H 0.46935 0.85633 0.58195 0.0
H346 H 0.45278 0.8059 0.55647 0.0
H347 H 0.44357 0.83834 0.58118 0.0
H348 H 0.53428 0.83233 0.61229 0.0
H349 H 0.50552 0.81103 0.53528 0.0
H350 H 0.48491 0.88462 0.44405 0.0
H351 H 0.45897 0.83904 0.45889 0.0
Li352 Li 0.63531 0.52041 0.73686 0.0
Li353 Li 0.62955 0.49833 0.7642 0.0
Li354 Li 0.65238 0.5126 0.73739 0.0
Li355 Li 0.63024 0.49879 0.70827 0.0
C356 C 0.64647 0.52853 0.79309 0.0
N357 N 0.64858 0.55018 0.83102 0.0
C358 C 0.6373 0.52532 0.81858 0.0
C359 C 0.65678 0.54274 0.78703 0.0
C360 C 0.63854 0.53642 0.83747 0.0
C361 C 0.65765 0.55353 0.80642 0.0
C362 C 0.60499 0.49627 0.71922 0.0
C363 C 0.58405 0.47596 0.69771 0.0
N364 N 0.58058 0.48497 0.68302 0.0
C365 C 0.6012 0.50534 0.70402 0.0
C366 C 0.59632 0.48146 0.7162 0.0
C367 C 0.58882 0.49941 0.6858 0.0
C368 C 0.64039 0.54766 0.71795 0.0
N369 N 0.63293 0.53658 0.73788 0.0
C370 C 0.62256 0.549 0.76262 0.0
C371 C 0.62396 0.53692 0.75961 0.0
C372 C 0.63025 0.56068 0.74264 0.0
C373 C 0.63915 0.55989 0.71986 0.0
H374 H 0.64732 0.54701 0.7007 0.0
H375 H 0.61803 0.52784 0.77481 0.0
C376 C 0.62829 0.48612 0.82346 0.0
N377 N 0.62039 0.4871 0.79994 0.0
C378 C 0.62158 0.47806 0.85001 0.0
C379 C 0.59878 0.47246 0.82784 0.0
C380 C 0.60592 0.48055 0.80171 0.0
C381 C 0.6066 0.47111 0.85247 0.0
H382 H 0.63982 0.49166 0.82161 0.0
H383 H 0.59993 0.48178 0.78302 0.0
C384 C 0.65734 0.52493 0.68223 0.0
N385 N 0.68175 0.53702 0.646 0.0
C386 C 0.65822 0.51766 0.65612 0.0
C387 C 0.66883 0.53839 0.68978 0.0
C388 C 0.67066 0.52395 0.63812 0.0
C389 C 0.6811 0.5443 0.67123 0.0
C390 C 0.63879 0.48048 0.7528 0.0
C391 C 0.6506 0.48218 0.76973 0.0
C392 C 0.62596 0.46745 0.75389 0.0
C393 C 0.64933 0.47081 0.78768 0.0
C394 C 0.62511 0.45635 0.77217 0.0
N395 N 0.63672 0.45825 0.78855 0.0
C396 C 0.68023 0.52736 0.76183 0.0
C397 C 0.6775 0.51334 0.71707 0.0
C398 C 0.69461 0.53133 0.76416 0.0
N399 N 0.67203 0.5185 0.73863 0.0
C400 C 0.69187 0.51713 0.71832 0.0
C401 C 0.70058 0.52608 0.74239 0.0
H402 H 0.67552 0.53105 0.77905 0.0
H403 H 0.67064 0.50612 0.69916 0.0
C404 C 0.61657 0.49271 0.64953 0.0
N405 N 0.62208 0.48785 0.67167 0.0
C406 C 0.60996 0.48447 0.62316 0.0
C407 C 0.61554 0.46674 0.64206 0.0
C408 C 0.62186 0.47524 0.66827 0.0
C409 C 0.60931 0.47123 0.61919 0.0
H410 H 0.61713 0.50291 0.65262 0.0
H411 H 0.62661 0.47178 0.68592 0.0
O412 O 0.64527 0.51783 0.774 0.0
O413 O 0.61715 0.50187 0.73687 0.0
O414 O 0.64532 0.51888 0.70035 0.0
O415 O 0.63975 0.49155 0.73546 0.0
H416 H 0.62922 0.5144 0.82357 0.0
H417 H 0.6639 0.54542 0.76726 0.0
H418 H 0.63147 0.5341 0.85719 0.0
H419 H 0.6655 0.56458 0.80184 0.0
H420 H 0.57731 0.46452 0.69497 0.0
H421 H 0.60779 0.51682 0.70604 0.0
H422 H 0.59916 0.4743 0.72766 0.0
H423 H 0.58578 0.50629 0.67379 0.0
H424 H 0.61537 0.54912 0.78008 0.0
H425 H 0.64521 0.56869 0.704 0.0
H426 H 0.62803 0.47725 0.86832 0.0
H427 H 0.58726 0.46758 0.829 0.0
H428 H 0.64944 0.50723 0.64995 0.0
H429 H 0.66837 0.54412 0.71002 0.0
H430 H 0.67152 0.51843 0.61793 0.0
H431 H 0.69012 0.55465 0.67694 0.0
H432 H 0.6606 0.4922 0.76925 0.0
H433 H 0.6167 0.46599 0.74105 0.0
H434 H 0.65836 0.47199 0.80101 0.0
H435 H 0.61522 0.44624 0.77341 0.0
H436 H 0.70082 0.53798 0.78351 0.0
H437 H 0.69604 0.51292 0.70092 0.0
H438 H 0.60519 0.48834 0.60641 0.0
H439 H 0.61563 0.45681 0.63971 0.0
Li440 Li 0.13047 0.63037 0.87733 0.0
Li441 Li 0.13579 0.65054 0.91125 0.0
Li442 Li 0.12431 0.62586 0.93329 0.0
Li443 Li 0.1112 0.63412 0.90071 0.0
C444 C 0.15362 0.63321 0.91517 0.0
N445 N 0.17393 0.62483 0.91803 0.0
C446 C 0.16815 0.6434 0.91346 0.0
C447 C 0.14944 0.61878 0.91877 0.0
C448 C 0.17826 0.63894 0.91481 0.0
C449 C 0.15986 0.61475 0.92007 0.0
C450 C 0.13316 0.65898 0.85549 0.0
C451 C 0.13733 0.68291 0.84829 0.0
N452 N 0.14794 0.68555 0.82768 0.0
C453 C 0.14404 0.66189 0.83408 0.0
C454 C 0.12969 0.66952 0.86252 0.0
C455 C 0.1514 0.67541 0.8203 0.0
C456 C 0.12515 0.61568 0.82114 0.0
N457 N 0.1358 0.62394 0.84135 0.0
C458 C 0.15298 0.62209 0.8096 0.0
C459 C 0.14957 0.62741 0.83589 0.0
C460 C 0.14214 0.61333 0.78857 0.0
C461 C 0.12809 0.61023 0.79444 0.0
H462 H 0.11432 0.6132 0.826 0.0
H463 H 0.15792 0.63432 0.85178 0.0
C464 C 0.14631 0.67723 0.94074 0.0
N465 N 0.14931 0.66993 0.91909 0.0
C466 C 0.15609 0.69154 0.94686 0.0
C467 C 0.17192 0.69052 0.90836 0.0
C468 C 0.1618 0.67624 0.90294 0.0
C469 C 0.16914 0.69834 0.93071 0.0
H470 H 0.13638 0.67192 0.95346 0.0
H471 H 0.16391 0.67013 0.88595 0.0
C472 C 0.1047 0.60165 0.89514 0.0
N473 N 0.08988 0.57214 0.89149 0.0
C474 C 0.09006 0.59398 0.90161 0.0
C475 C 0.11174 0.59431 0.88624 0.0
C476 C 0.08278 0.57907 0.89982 0.0
C477 C 0.10408 0.5794 0.88468 0.0
C478 C 0.11029 0.64287 0.95915 0.0
C479 C 0.10347 0.63375 0.98434 0.0
C480 C 0.10682 0.65334 0.95136 0.0
C481 C 0.09316 0.63516 0.0011 0.0
C482 C 0.09643 0.65438 0.96867 0.0
N483 N 0.08986 0.64535 0.99296 0.0
C484 C 0.13505 0.62025 0.98743 0.0
C485 C 0.1115 0.60207 0.97499 0.0
C486 C 0.13517 0.6127 0.0137 0.0
N487 N 0.1234 0.61478 0.96854 0.0
C488 C 0.11115 0.59415 0.00103 0.0
C489 C 0.12312 0.59942 0.02073 0.0
H490 H 0.14427 0.63051 0.98205 0.0
H491 H 0.10224 0.59811 0.96012 0.0
C492 C 0.09108 0.63884 0.86873 0.0
N493 N 0.09305 0.63233 0.89384 0.0
C494 C 0.07799 0.63824 0.86424 0.0
C495 C 0.06932 0.62435 0.91162 0.0
C496 C 0.08243 0.62494 0.91479 0.0
C497 C 0.06704 0.6311 0.88615 0.0
H498 H 0.09969 0.64453 0.85229 0.0
H499 H 0.08421 0.61967 0.93425 0.0
O500 O 0.14361 0.63743 0.91379 0.0
O501 O 0.12602 0.6459 0.86964 0.0
O502 O 0.11195 0.61628 0.89658 0.0
O503 O 0.12035 0.64157 0.94235 0.0
H504 H 0.17161 0.65463 0.911 0.0
H505 H 0.13829 0.6108 0.92097 0.0
H506 H 0.18954 0.64671 0.91334 0.0
H507 H 0.15675 0.60361 0.92282 0.0
H508 H 0.13483 0.6912 0.85368 0.0
H509 H 0.14685 0.65385 0.82838 0.0
H510 H 0.12129 0.66742 0.87899 0.0
H511 H 0.1599 0.67785 0.80383 0.0
H512 H 0.16398 0.6249 0.80561 0.0
H513 H 0.11942 0.60343 0.77889 0.0
H514 H 0.15348 0.69719 0.96411 0.0
H515 H 0.18194 0.69527 0.89576 0.0
H516 H 0.08439 0.59945 0.90815 0.0
H517 H 0.12294 0.60003 0.88021 0.0
H518 H 0.07147 0.573 0.905 0.0
H519 H 0.10941 0.5736 0.8779 0.0
H520 H 0.10607 0.62565 0.99082 0.0
H521 H 0.11194 0.66044 0.93187 0.0
H522 H 0.08775 0.62814 0.02057 0.0
H523 H 0.09355 0.66235 0.96272 0.0
H524 H 0.14452 0.61731 0.02857 0.0
H525 H 0.10165 0.58395 0.00547 0.0
H526 H 0.07648 0.64344 0.84419 0.0
H527 H 0.06098 0.61852 0.92862 0.0
Li528 Li 0.85073 0.50491 0.89309 0.0
Li529 Li 0.86063 0.49435 0.92812 0.0
Li530 Li 0.87642 0.51457 0.89622 0.0
Li531 Li 0.86067 0.49071 0.87391 0.0
C532 C 0.85642 0.51572 0.95421 0.0
N533 N 0.8418 0.51867 0.00386 0.0
C534 C 0.84282 0.50456 0.96216 0.0
C535 C 0.86258 0.52836 0.97155 0.0
C536 C 0.83561 0.50627 0.98733 0.0
C537 C 0.85502 0.52966 0.99655 0.0
C538 C 0.83455 0.47113 0.88927 0.0
C539 C 0.82848 0.44669 0.88006 0.0
N540 N 0.81663 0.44442 0.86416 0.0
C541 C 0.82219 0.46848 0.87325 0.0
C542 C 0.83761 0.46008 0.8931 0.0
C543 C 0.81331 0.45493 0.86059 0.0
C544 C 0.83121 0.50508 0.85373 0.0
N545 N 0.83683 0.50995 0.88243 0.0
C546 C 0.8239 0.52248 0.88693 0.0
C547 C 0.83352 0.51863 0.89907 0.0
C548 C 0.81784 0.51745 0.85736 0.0
C549 C 0.82167 0.50869 0.8407 0.0
H550 H 0.83443 0.49861 0.84063 0.0
H551 H 0.8385 0.52281 0.92137 0.0
C552 C 0.86945 0.49166 0.98883 0.0
N553 N 0.85865 0.48563 0.9677 0.0
C554 C 0.86878 0.48443 0.0163 0.0
C555 C 0.84527 0.46561 0.00113 0.0
C556 C 0.84654 0.47306 0.97368 0.0
C557 C 0.85667 0.47105 0.0225 0.0
H558 H 0.8788 0.50186 0.98383 0.0
H559 H 0.83793 0.4687 0.95692 0.0
C560 C 0.86616 0.52129 0.84284 0.0
N561 N 0.86971 0.54514 0.81131 0.0
C562 C 0.86585 0.52136 0.81029 0.0
C563 C 0.86823 0.53333 0.85939 0.0
C564 C 0.86769 0.53353 0.79476 0.0
C565 C 0.87002 0.54529 0.84301 0.0
C566 C 0.88479 0.49317 0.92168 0.0
C567 C 0.89739 0.50388 0.93524 0.0
C568 C 0.8802 0.47883 0.9282 0.0
C569 C 0.90503 0.50007 0.9556 0.0
C570 C 0.88812 0.47546 0.94873 0.0
N571 N 0.90026 0.48606 0.96192 0.0
C572 C 0.90049 0.54015 0.91694 0.0
C573 C 0.90043 0.53473 0.86338 0.0
C574 C 0.91375 0.55258 0.91371 0.0
N575 N 0.89424 0.53149 0.892 0.0
C576 C 0.91347 0.5472 0.8589 0.0
C577 C 0.92047 0.55624 0.88435 0.0
H578 H 0.89529 0.53724 0.93945 0.0
H579 H 0.89519 0.52761 0.84396 0.0
C580 C 0.84973 0.47608 0.81772 0.0
N581 N 0.8591 0.47832 0.84113 0.0
C582 C 0.84846 0.46732 0.79261 0.0
C583 C 0.86658 0.46342 0.81618 0.0
C584 C 0.86744 0.4722 0.84091 0.0
C585 C 0.85706 0.46096 0.79152 0.0
H586 H 0.84335 0.48124 0.81846 0.0
H587 H 0.87487 0.47427 0.85976 0.0
O588 O 0.86383 0.51433 0.92988 0.0
O589 O 0.84353 0.48441 0.90137 0.0
O590 O 0.86417 0.50935 0.85831 0.0
O591 O 0.87711 0.49672 0.90185 0.0
H592 H 0.83783 0.4947 0.94904 0.0
H593 H 0.8731 0.53709 0.96572 0.0
H594 H 0.82508 0.49773 0.99371 0.0
H595 H 0.85966 0.53939 0.01015 0.0
H596 H 0.83082 0.43811 0.88258 0.0
H597 H 0.81941 0.47673 0.87076 0.0
H598 H 0.84699 0.46187 0.90577 0.0
H599 H 0.80376 0.45277 0.84798 0.0
H600 H 0.82123 0.52927 0.90052 0.0
H601 H 0.81758 0.50489 0.8175 0.0
H602 H 0.8779 0.48907 0.03185 0.0
H603 H 0.83552 0.4556 0.00528 0.0
H604 H 0.86418 0.51208 0.79718 0.0
H605 H 0.86839 0.53344 0.88461 0.0
H606 H 0.86748 0.53374 0.76956 0.0
H607 H 0.87162 0.55468 0.8555 0.0
H608 H 0.90121 0.51501 0.93029 0.0
H609 H 0.87059 0.47038 0.91771 0.0
H610 H 0.91475 0.50826 0.9664 0.0
H611 H 0.88461 0.46441 0.95418 0.0
H612 H 0.91878 0.559 0.93419 0.0
H613 H 0.91801 0.54966 0.83569 0.0
H614 H 0.84114 0.46586 0.77387 0.0
H615 H 0.87332 0.45864 0.8163 0.0
Li616 Li 0.34237 0.85146 0.06413 0.0
Li617 Li 0.36329 0.86147 0.09475 0.0
Li618 Li 0.35702 0.87784 0.06946 0.0
Li619 Li 0.3661 0.86397 0.04019 0.0
C620 C 0.34294 0.85936 0.13218 0.0
N621 N 0.33783 0.85161 0.19426 0.0
C622 C 0.33343 0.84518 0.14044 0.0
C623 C 0.34981 0.86961 0.15548 0.0
C624 C 0.33098 0.84148 0.17196 0.0
C625 C 0.34711 0.86547 0.18674 0.0
C626 C 0.35886 0.83575 0.07827 0.0
C627 C 0.3742 0.82718 0.0975 0.0
N628 N 0.36254 0.81524 0.10855 0.0
C629 C 0.34702 0.82336 0.08966 0.0
C630 C 0.37256 0.83765 0.08203 0.0
C631 C 0.34911 0.81313 0.10494 0.0
C632 C 0.32165 0.82678 0.03512 0.0
N633 N 0.32349 0.83684 0.05646 0.0
C634 C 0.2984 0.82812 0.05842 0.0
C635 C 0.31226 0.8376 0.06855 0.0
C636 C 0.29625 0.81803 0.03534 0.0
C637 C 0.30803 0.81723 0.02406 0.0
H638 H 0.33086 0.82663 0.02567 0.0
H639 H 0.31416 0.84596 0.085 0.0
C640 C 0.38505 0.87138 0.13921 0.0
N641 N 0.37221 0.85982 0.13197 0.0
C642 C 0.39267 0.87114 0.16518 0.0
C643 C 0.37358 0.84722 0.17647 0.0
C644 C 0.36628 0.84796 0.15031 0.0
C645 C 0.38705 0.85887 0.18399 0.0
H646 H 0.38942 0.88083 0.12479 0.0
H647 H 0.35596 0.83898 0.14455 0.0
C648 C 0.33916 0.86092 0.00879 0.0
N649 N 0.31706 0.84814 0.96626 0.0
C650 C 0.34013 0.8532 0.98367 0.0
C651 C 0.32697 0.8622 0.01218 0.0
C652 C 0.32884 0.84682 0.96242 0.0
C653 C 0.3159 0.85563 0.99047 0.0
C654 C 0.38881 0.88772 0.05845 0.0
C655 C 0.39168 0.90052 0.0442 0.0
C656 C 0.39913 0.88353 0.05796 0.0
C657 C 0.40481 0.90886 0.02935 0.0
C658 C 0.41212 0.89214 0.04281 0.0
N659 N 0.41466 0.90452 0.02893 0.0
C660 C 0.36295 0.90387 0.0963 0.0
C661 C 0.35149 0.89909 0.04705 0.0
C662 C 0.36367 0.91711 0.09768 0.0
N663 N 0.35694 0.89522 0.07124 0.0
C664 C 0.35196 0.91223 0.04745 0.0
C665 C 0.35822 0.92149 0.07291 0.0
H666 H 0.3675 0.90063 0.11483 0.0
H667 H 0.34702 0.8921 0.02715 0.0
C668 C 0.37976 0.85379 0.00027 0.0
N669 N 0.37691 0.86456 0.0048 0.0
C670 C 0.38759 0.8539 0.97434 0.0
C671 C 0.38931 0.87613 0.95807 0.0
C672 C 0.38134 0.87553 0.98422 0.0
C673 C 0.39254 0.8652 0.95284 0.0
H674 H 0.37582 0.84503 0.01662 0.0
H675 H 0.3787 0.88383 0.98818 0.0
O676 O 0.3456 0.86316 0.10145 0.0
O677 O 0.35702 0.84583 0.06304 0.0
O678 O 0.34989 0.86684 0.03042 0.0
O679 O 0.37594 0.87929 0.07268 0.0
H680 H 0.32815 0.83707 0.12274 0.0
H681 H 0.35726 0.88061 0.14952 0.0
H682 H 0.3237 0.83053 0.17869 0.0
H683 H 0.35241 0.87328 0.20501 0.0
H684 H 0.38475 0.82856 0.10078 0.0
H685 H 0.33635 0.82172 0.08696 0.0
H686 H 0.38184 0.84718 0.07338 0.0
H687 H 0.34005 0.80353 0.11402 0.0
H688 H 0.28954 0.82907 0.06745 0.0
H689 H 0.30673 0.80948 0.00646 0.0
H690 H 0.40284 0.88052 0.17052 0.0
H691 H 0.36885 0.83752 0.19024 0.0
H692 H 0.34941 0.85198 0.98083 0.0
H693 H 0.32595 0.86795 0.03174 0.0
H694 H 0.32942 0.84075 0.94297 0.0
H695 H 0.30635 0.85641 0.99298 0.0
H696 H 0.38381 0.90392 0.04435 0.0
H697 H 0.39707 0.87366 0.06894 0.0
H698 H 0.40716 0.91875 0.01807 0.0
H699 H 0.42016 0.88898 0.04206 0.0
H700 H 0.36889 0.92405 0.11741 0.0
H701 H 0.3476 0.91516 0.02792 0.0
H702 H 0.38954 0.84508 0.97093 0.0
H703 H 0.39299 0.88512 0.94229 0.0
Li704 Li 0.49046 0.34568 0.23171 0.0
Li705 Li 0.50159 0.36638 0.26672 0.0
Li706 Li 0.47915 0.35953 0.2412 0.0
Li707 Li 0.50062 0.36934 0.21182 0.0
C708 C 0.48424 0.34037 0.29569 0.0
N709 N 0.48699 0.32462 0.34315 0.0
C710 C 0.49558 0.33762 0.29553 0.0
C711 C 0.4743 0.33511 0.31999 0.0
C712 C 0.49679 0.32964 0.31973 0.0
C713 C 0.47587 0.32716 0.34377 0.0
C714 C 0.5244 0.36904 0.22361 0.0
C715 C 0.54659 0.39149 0.22246 0.0
N716 N 0.55171 0.38607 0.20062 0.0
C717 C 0.52989 0.36367 0.20126 0.0
C718 C 0.53281 0.38305 0.23438 0.0
C719 C 0.54372 0.37246 0.18989 0.0
C720 C 0.49267 0.32723 0.19204 0.0
N721 N 0.48711 0.32739 0.2203 0.0
C722 C 0.47548 0.30195 0.22364 0.0
C723 C 0.47855 0.31512 0.23616 0.0
C724 C 0.48111 0.30147 0.19439 0.0
C725 C 0.48982 0.31436 0.17861 0.0
H726 H 0.4989 0.33713 0.17945 0.0
H727 H 0.47378 0.31549 0.25802 0.0
C728 C 0.50992 0.38389 0.31904 0.0
N729 N 0.51233 0.37436 0.30342 0.0
C730 C 0.51813 0.391 0.34509 0.0
C731 C 0.5308 0.37795 0.33914 0.0
C732 C 0.52247 0.37124 0.31288 0.0
C733 C 0.52877 0.38811 0.35525 0.0
H734 H 0.50174 0.3861 0.31095 0.0
H735 H 0.52428 0.36375 0.2997 0.0
C736 C 0.46953 0.34157 0.18989 0.0
N737 N 0.44432 0.3188 0.16812 0.0
C738 C 0.46651 0.34008 0.15799 0.0
C739 C 0.45973 0.33146 0.21073 0.0
C740 C 0.4537 0.3285 0.14744 0.0
C741 C 0.44705 0.32004 0.19926 0.0
C742 C 0.49274 0.38877 0.23286 0.0
C743 C 0.48624 0.38643 0.20359 0.0
C744 C 0.49582 0.40108 0.24962 0.0
C745 C 0.48289 0.39642 0.19164 0.0
C746 C 0.4923 0.41082 0.23687 0.0
N747 N 0.48596 0.40831 0.20839 0.0
C748 C 0.45724 0.35889 0.27662 0.0
C749 C 0.45372 0.3591 0.22209 0.0
C750 C 0.44482 0.35942 0.28252 0.0
N751 N 0.46149 0.35891 0.24683 0.0
C752 C 0.44121 0.35959 0.2269 0.0
C753 C 0.43675 0.35999 0.25745 0.0
H754 H 0.4637 0.35879 0.29579 0.0
H755 H 0.45742 0.35926 0.19861 0.0
C756 C 0.51011 0.37325 0.15052 0.0
N757 N 0.51098 0.38054 0.17698 0.0
C758 C 0.51794 0.38053 0.12421 0.0
C759 C 0.52734 0.40272 0.15288 0.0
C760 C 0.51937 0.39498 0.17872 0.0
C761 C 0.52671 0.39548 0.12514 0.0
H762 H 0.5035 0.36173 0.15009 0.0
H763 H 0.51999 0.40047 0.20026 0.0
O764 O 0.48283 0.34827 0.27247 0.0
O765 O 0.51073 0.36077 0.23433 0.0
O766 O 0.48213 0.35279 0.20033 0.0
O767 O 0.49609 0.37914 0.24529 0.0
H768 H 0.50334 0.34151 0.27688 0.0
H769 H 0.46546 0.33715 0.32046 0.0
H770 H 0.5055 0.32742 0.31988 0.0
H771 H 0.46825 0.32302 0.36272 0.0
H772 H 0.55318 0.40239 0.23042 0.0
H773 H 0.52354 0.35286 0.19268 0.0
H774 H 0.52866 0.38747 0.25131 0.0
H775 H 0.54809 0.36846 0.17251 0.0
H776 H 0.46872 0.29227 0.23658 0.0
H777 H 0.49406 0.31449 0.15566 0.0
H778 H 0.5162 0.39868 0.35714 0.0
H779 H 0.539 0.37555 0.34621 0.0
H780 H 0.474 0.3478 0.14156 0.0
H781 H 0.46186 0.33239 0.23549 0.0
H782 H 0.45123 0.32722 0.12281 0.0
H783 H 0.43939 0.31214 0.21512 0.0
H784 H 0.48382 0.37703 0.19013 0.0
H785 H 0.50088 0.4031 0.27227 0.0
H786 H 0.47785 0.39472 0.16904 0.0
H787 H 0.49461 0.42039 0.24962 0.0
H788 H 0.4417 0.35965 0.30642 0.0
H789 H 0.43544 0.36027 0.20693 0.0
H790 H 0.51733 0.37448 0.10358 0.0
H791 H 0.53385 0.41423 0.15457 0.0
Li792 Li 0.13788 0.505 0.43854 0.0
Li793 Li 0.14468 0.49169 0.40555 0.0
Li794 Li 0.13166 0.50241 0.38435 0.0
Li795 Li 0.11957 0.48055 0.41832 0.0
C796 C 0.162 0.52453 0.41399 0.0
N797 N 0.1841 0.54949 0.43856 0.0
C798 C 0.17473 0.52516 0.42309 0.0
C799 C 0.16054 0.53662 0.41725 0.0
C800 C 0.18577 0.53788 0.43546 0.0
C801 C 0.17182 0.54912 0.42979 0.0
C802 C 0.14229 0.47972 0.46271 0.0
C803 C 0.14163 0.45893 0.48519 0.0
N804 N 0.15556 0.46711 0.49371 0.0
C805 C 0.15659 0.48793 0.47178 0.0
C806 C 0.13472 0.46511 0.4695 0.0
C807 C 0.16312 0.48135 0.48738 0.0
C808 C 0.13186 0.52052 0.48193 0.0
N809 N 0.14202 0.51722 0.47385 0.0
C810 C 0.15717 0.53174 0.51524 0.0
C811 C 0.15443 0.52244 0.4902 0.0
C812 C 0.14693 0.53552 0.52377 0.0
C813 C 0.13408 0.52966 0.50688 0.0
H814 H 0.12195 0.51601 0.46906 0.0
H815 H 0.16231 0.51958 0.48362 0.0
C816 C 0.16787 0.49614 0.37053 0.0
N817 N 0.15892 0.48725 0.39283 0.0
C818 C 0.17736 0.49299 0.35542 0.0
C819 C 0.16857 0.47172 0.38704 0.0
C820 C 0.15905 0.47517 0.4012 0.0
C821 C 0.17776 0.48059 0.36345 0.0
H822 H 0.16715 0.50537 0.36345 0.0
H823 H 0.1514 0.46786 0.41779 0.0
C824 C 0.10951 0.50261 0.40795 0.0
N825 N 0.09147 0.51068 0.38064 0.0
C826 C 0.09592 0.49223 0.3979 0.0
C827 C 0.11389 0.51709 0.40436 0.0
C828 C 0.08696 0.49653 0.38411 0.0
C829 C 0.10463 0.52095 0.3904 0.0
C830 C 0.13121 0.47531 0.35645 0.0
C831 C 0.13793 0.48152 0.32825 0.0
C832 C 0.12839 0.46156 0.36404 0.0
C833 C 0.14187 0.47389 0.3082 0.0
C834 C 0.1325 0.45428 0.34335 0.0
N835 N 0.13912 0.46056 0.31612 0.0
C836 C 0.14007 0.52451 0.34067 0.0
C837 C 0.11746 0.50419 0.33028 0.0
C838 C 0.13908 0.53129 0.31394 0.0
N839 N 0.12933 0.51125 0.34835 0.0
C840 C 0.11598 0.51062 0.30334 0.0
C841 C 0.12694 0.52432 0.2948 0.0
H842 H 0.1495 0.52977 0.3551 0.0
H843 H 0.1092 0.49353 0.33666 0.0
C844 C 0.09759 0.46059 0.4564 0.0
N845 N 0.10248 0.46351 0.42663 0.0
C846 C 0.08445 0.44848 0.46289 0.0
C847 C 0.08186 0.44253 0.40799 0.0
C848 C 0.09503 0.45476 0.40258 0.0
C849 C 0.07632 0.43939 0.43841 0.0
H850 H 0.10379 0.46782 0.47498 0.0
H851 H 0.09913 0.45751 0.37908 0.0
O852 O 0.15104 0.51217 0.40189 0.0
O853 O 0.13566 0.48595 0.44763 0.0
O854 O 0.11855 0.49862 0.42093 0.0
O855 O 0.12763 0.48276 0.37676 0.0
H856 H 0.17604 0.51592 0.42091 0.0
H857 H 0.15073 0.5363 0.41053 0.0
H858 H 0.19566 0.5385 0.4427 0.0
H859 H 0.1708 0.55852 0.43263 0.0
H860 H 0.13591 0.44763 0.49054 0.0
H861 H 0.16263 0.4992 0.46644 0.0
H862 H 0.12366 0.45859 0.46259 0.0
H863 H 0.1742 0.48756 0.49438 0.0
H864 H 0.16726 0.53606 0.52746 0.0
H865 H 0.12572 0.53196 0.51307 0.0
H866 H 0.18391 0.49996 0.33682 0.0
H867 H 0.16852 0.46209 0.39416 0.0
H868 H 0.09236 0.48098 0.4005 0.0
H869 H 0.12439 0.52525 0.41196 0.0
H870 H 0.07643 0.48862 0.37609 0.0
H871 H 0.10791 0.53212 0.38727 0.0
H872 H 0.14021 0.49218 0.32212 0.0
H873 H 0.12331 0.45667 0.38592 0.0
H874 H 0.14717 0.47859 0.28639 0.0
H875 H 0.13051 0.44368 0.34903 0.0
H876 H 0.14772 0.54191 0.30836 0.0
H877 H 0.10653 0.50481 0.289 0.0
H878 H 0.08057 0.44639 0.48667 0.0
H879 H 0.07581 0.43596 0.3884 0.0
Li880 Li 0.63122 0.13445 0.59734 0.0
Li881 Li 0.65145 0.1446 0.56454 0.0
Li882 Li 0.62721 0.1318 0.54308 0.0
Li883 Li 0.63715 0.11819 0.5703 0.0
C884 C 0.6349 0.16 0.58158 0.0
N885 N 0.63146 0.18037 0.61319 0.0
C886 C 0.64685 0.17255 0.59201 0.0
C887 C 0.6212 0.15787 0.58696 0.0
C888 C 0.64489 0.18271 0.60799 0.0
C889 C 0.61969 0.16827 0.60309 0.0
C890 C 0.65245 0.13679 0.63213 0.0
C891 C 0.64954 0.13064 0.68672 0.0
N892 N 0.6588 0.14454 0.69397 0.0
C893 C 0.66195 0.15102 0.6401 0.0
C894 C 0.64622 0.1265 0.65558 0.0
C895 C 0.66503 0.15472 0.67151 0.0
C896 C 0.61073 0.12436 0.64473 0.0
N897 N 0.62316 0.13607 0.63593 0.0
C898 C 0.62288 0.14871 0.68146 0.0
C899 C 0.62941 0.14806 0.65392 0.0
C900 C 0.60993 0.13683 0.69079 0.0
C901 C 0.60391 0.1245 0.67218 0.0
H902 H 0.60607 0.11487 0.63038 0.0
H903 H 0.63945 0.15713 0.64697 0.0
C904 C 0.67133 0.16937 0.53432 0.0
N905 N 0.67007 0.1594 0.5553 0.0
C906 C 0.6847 0.1792 0.5225 0.0
C907 C 0.69529 0.16872 0.55528 0.0
C908 C 0.68166 0.15895 0.56619 0.0
C909 C 0.69684 0.17878 0.53265 0.0
H910 H 0.66186 0.16928 0.52584 0.0
H911 H 0.68023 0.15066 0.58239 0.0
C912 C 0.60506 0.10797 0.56301 0.0
N913 N 0.57862 0.09093 0.53603 0.0
C914 C 0.60201 0.09521 0.54832 0.0
C915 C 0.59463 0.11201 0.56427 0.0
C916 C 0.58857 0.08675 0.53477 0.0
C917 C 0.58134 0.10327 0.55039 0.0
C918 C 0.65362 0.13511 0.50846 0.0
C919 C 0.65204 0.14267 0.48382 0.0
C920 C 0.66597 0.13403 0.51043 0.0
C921 C 0.6629 0.1491 0.46159 0.0
C922 C 0.67659 0.14064 0.48778 0.0
N923 N 0.67485 0.14797 0.46404 0.0
C924 C 0.61267 0.14169 0.50497 0.0
C925 C 0.61105 0.12001 0.48835 0.0
C926 C 0.60459 0.14156 0.47946 0.0
N927 N 0.61566 0.13099 0.50895 0.0
C928 C 0.60284 0.11937 0.46263 0.0
C929 C 0.59956 0.13029 0.45782 0.0
H930 H 0.61675 0.15047 0.52131 0.0
H931 H 0.61383 0.11178 0.49183 0.0
C932 C 0.632 0.09222 0.59618 0.0
N933 N 0.63744 0.1009 0.57098 0.0
C934 C 0.63143 0.07903 0.59672 0.0
C935 C 0.64211 0.08404 0.54538 0.0
C936 C 0.64246 0.09712 0.54583 0.0
C937 C 0.63643 0.07475 0.57096 0.0
H938 H 0.62778 0.09538 0.61549 0.0
H939 H 0.64647 0.10413 0.52587 0.0
O940 O 0.63662 0.14999 0.56571 0.0
O941 O 0.64917 0.133 0.60153 0.0
O942 O 0.61821 0.11653 0.57598 0.0
O943 O 0.64333 0.12914 0.53103 0.0
H944 H 0.65753 0.17437 0.58805 0.0
H945 H 0.61184 0.14822 0.57903 0.0
H946 H 0.65404 0.19243 0.61634 0.0
H947 H 0.60915 0.16671 0.60761 0.0
H948 H 0.64473 0.1228 0.70512 0.0
H949 H 0.66674 0.15916 0.6223 0.0
H950 H 0.63878 0.11547 0.64984 0.0
H951 H 0.67231 0.1657 0.67803 0.0
H952 H 0.62796 0.15836 0.69542 0.0
H953 H 0.59388 0.11514 0.67847 0.0
H954 H 0.68554 0.18692 0.50529 0.0
H955 H 0.70443 0.16806 0.56345 0.0
H956 H 0.60996 0.09193 0.54713 0.0
H957 H 0.59683 0.12185 0.57564 0.0
H958 H 0.58608 0.07687 0.52316 0.0
H959 H 0.5732 0.10631 0.55099 0.0
H960 H 0.64263 0.14374 0.48207 0.0
H961 H 0.66746 0.12839 0.52961 0.0
H962 H 0.66185 0.15505 0.44249 0.0
H963 H 0.68626 0.14 0.48918 0.0
H964 H 0.60259 0.15036 0.47639 0.0
H965 H 0.59909 0.11041 0.44677 0.0
H966 H 0.62665 0.07206 0.61661 0.0
H967 H 0.64611 0.08118 0.5251 0.0
Li968 Li 0.50393 0.65126 0.73807 0.0
Li969 Li 0.4926 0.63026 0.76903 0.0
Li970 Li 0.51617 0.63782 0.74213 0.0
Li971 Li 0.49283 0.62812 0.71332 0.0
C972 C 0.51843 0.65974 0.79279 0.0
N973 N 0.53207 0.68495 0.82618 0.0
C974 C 0.51052 0.66539 0.80612 0.0
C975 C 0.53326 0.66684 0.79659 0.0
C976 C 0.51762 0.67818 0.82285 0.0
C977 C 0.53997 0.67959 0.81354 0.0
C978 C 0.47116 0.63365 0.7522 0.0
C979 C 0.44733 0.61663 0.76935 0.0
N980 N 0.44618 0.62744 0.78268 0.0
C981 C 0.46973 0.6446 0.76597 0.0
C982 C 0.45985 0.61956 0.75375 0.0
C983 C 0.45702 0.64124 0.78129 0.0
C984 C 0.49689 0.67046 0.71329 0.0
N985 N 0.50724 0.67004 0.73041 0.0
C986 C 0.52237 0.69531 0.72548 0.0
C987 C 0.51982 0.68213 0.73677 0.0
C988 C 0.51203 0.696 0.70686 0.0
C989 C 0.49906 0.68334 0.70119 0.0
H990 H 0.48723 0.66063 0.70752 0.0
H991 H 0.52819 0.6815 0.74909 0.0
C992 C 0.47936 0.60757 0.81122 0.0
N993 N 0.48203 0.62107 0.80568 0.0
C994 C 0.47123 0.59995 0.83693 0.0
C995 C 0.46889 0.62033 0.85112 0.0
C996 C 0.47723 0.62763 0.82531 0.0
C997 C 0.46571 0.60625 0.85713 0.0
H998 H 0.48355 0.6027 0.79567 0.0
H999 H 0.47965 0.63843 0.82073 0.0
C1000 C 0.51653 0.65557 0.68271 0.0
N1001 N 0.52561 0.6782 0.64173 0.0
C1002 C 0.50741 0.65522 0.65917 0.0
C1003 C 0.5303 0.66737 0.68526 0.0
C1004 C 0.5122 0.66679 0.63871 0.0
C1005 C 0.53468 0.67872 0.66435 0.0
C1006 C 0.49485 0.60564 0.73101 0.0
C1007 C 0.50532 0.60328 0.71781 0.0
C1008 C 0.48049 0.59494 0.72952 0.0
C1009 C 0.5012 0.59026 0.703 0.0
C1010 C 0.47681 0.58208 0.71445 0.0
N1011 N 0.48716 0.58003 0.70161 0.0
C1012 C 0.53674 0.63335 0.77097 0.0
C1013 C 0.54283 0.64289 0.71986 0.0
C1014 C 0.54928 0.6327 0.7731 0.0
N1015 N 0.53374 0.63826 0.74454 0.0
C1016 C 0.55556 0.64256 0.72107 0.0
C1017 C 0.55883 0.6372 0.74778 0.0
H1018 H 0.52919 0.62964 0.79009 0.0
H1019 H 0.54005 0.64657 0.699 0.0
C1020 C 0.46957 0.61662 0.67216 0.0
N1021 N 0.48242 0.61762 0.67771 0.0
C1022 C 0.46162 0.6094 0.64591 0.0
C1023 C 0.48032 0.60442 0.63139 0.0
C1024 C 0.488 0.6119 0.65778 0.0
C1025 C 0.46697 0.60316 0.6252 0.0
H1026 H 0.46555 0.62158 0.68791 0.0
H1027 H 0.49844 0.61324 0.66224 0.0
O1028 O 0.51171 0.6472 0.77649 0.0
O1029 O 0.48356 0.63671 0.73723 0.0
O1030 O 0.51188 0.64453 0.70351 0.0
O1031 O 0.49864 0.61836 0.74535 0.0
H1032 H 0.49906 0.6601 0.80314 0.0
H1033 H 0.53953 0.66258 0.78646 0.0
H1034 H 0.51165 0.68274 0.83311 0.0
H1035 H 0.55144 0.68524 0.8166 0.0
H1036 H 0.43852 0.60577 0.77088 0.0
H1037 H 0.47839 0.65556 0.76517 0.0
H1038 H 0.46078 0.61097 0.74322 0.0
H1039 H 0.45579 0.64959 0.79219 0.0
H1040 H 0.5325 0.70479 0.73057 0.0
H1041 H 0.49091 0.68323 0.6863 0.0
H1042 H 0.4694 0.58927 0.84101 0.0
H1043 H 0.46479 0.62561 0.86585 0.0
H1044 H 0.49669 0.64621 0.65697 0.0
H1045 H 0.53743 0.66789 0.70361 0.0
H1046 H 0.50522 0.66671 0.62052 0.0
H1047 H 0.54526 0.68799 0.66625 0.0
H1048 H 0.51648 0.61143 0.71876 0.0
H1049 H 0.47226 0.59658 0.73969 0.0
H1050 H 0.50918 0.58831 0.69255 0.0
H1051 H 0.46573 0.57375 0.71295 0.0
H1052 H 0.55118 0.62822 0.79391 0.0
H1053 H 0.56265 0.64626 0.70113 0.0
H1054 H 0.45136 0.60864 0.64196 0.0
H1055 H 0.48489 0.59993 0.61567 0.0
C1056 C 0.52854 0.13679 0.24108 0.0
C1057 C 0.52962 0.13047 0.21337 0.0
C1058 C 0.53603 0.13687 0.26773 0.0
C1059 C 0.55401 0.11859 0.30259 0.0
H1060 H 0.571 0.15154 0.35747 0.0
C1061 C 0.59334 0.12545 0.401 0.0
C1062 C 0.59121 0.13011 0.43008 0.0
C1063 C 0.58564 0.12544 0.37485 0.0
C1064 C 0.5662 0.14222 0.34249 0.0
H1065 H 0.53973 0.1197 0.19148 0.0
H1066 H 0.55301 0.12008 0.23771 0.0
H1067 H 0.55815 0.15187 0.31098 0.0
H1068 H 0.57912 0.13822 0.45444 0.0
H1069 H 0.56587 0.13842 0.40858 0.0
H1070 H 0.56227 0.10906 0.33391 0.0
C1071 C 0.54608 0.12463 0.23921 0.0
C1072 C 0.55881 0.14238 0.31589 0.0
C1073 C 0.53852 0.12445 0.21267 0.0
C1074 C 0.5812 0.13478 0.43233 0.0
C1075 C 0.57358 0.13487 0.40609 0.0
C1076 C 0.56148 0.11848 0.32904 0.0
C1077 C 0.54485 0.13074 0.26715 0.0
C1078 C 0.55264 0.13058 0.29558 0.0
C1079 C 0.57572 0.13019 0.3771 0.0
C1080 C 0.56766 0.13029 0.34923 0.0
H1081 H 0.52164 0.14138 0.24235 0.0
H1082 H 0.53467 0.14149 0.28895 0.0
H1083 H 0.54916 0.1092 0.28783 0.0
H1084 H 0.60115 0.12204 0.39826 0.0
H1085 H 0.58765 0.12195 0.35269 0.0
C1086 C 0.38742 0.53343 0.41055 0.0
C1087 C 0.39469 0.53453 0.38264 0.0
C1088 C 0.39491 0.54127 0.43681 0.0
C1089 C 0.42825 0.57294 0.46154 0.0
H1090 H 0.42155 0.55291 0.54031 0.0
C1091 C 0.4525 0.60163 0.57827 0.0
C1092 C 0.45871 0.59555 0.59709 0.0
C1093 C 0.44455 0.5944 0.55196 0.0
C1094 C 0.42355 0.55862 0.51843 0.0
H1095 H 0.41538 0.545 0.35989 0.0
H1096 H 0.42846 0.55876 0.4057 0.0
H1097 H 0.40766 0.54007 0.49434 0.0
H1098 H 0.46144 0.57715 0.60335 0.0
H1099 H 0.44745 0.56444 0.55732 0.0
H1100 H 0.4442 0.59147 0.48559 0.0
C1101 C 0.41699 0.55182 0.40732 0.0
C1102 C 0.41552 0.55132 0.49225 0.0
C1103 C 0.40953 0.54387 0.38121 0.0
C1104 C 0.45683 0.5821 0.58911 0.0
C1105 C 0.44874 0.5748 0.56298 0.0
C1106 C 0.43617 0.58028 0.4878 0.0
C1107 C 0.40978 0.55047 0.43546 0.0
C1108 C 0.41786 0.55838 0.46351 0.0
C1109 C 0.44253 0.58088 0.54416 0.0
C1110 C 0.43397 0.57316 0.51644 0.0
H1111 H 0.37599 0.52625 0.41231 0.0
H1112 H 0.38909 0.54013 0.45817 0.0
H1113 H 0.43022 0.57865 0.4397 0.0
H1114 H 0.45388 0.61203 0.58376 0.0
H1115 H 0.43981 0.59929 0.53795 0.0
C1116 C 0.84339 0.44242 0.75067 0.0
C1117 C 0.85653 0.45234 0.76415 0.0
C1118 C 0.843 0.43475 0.72409 0.0
C1119 C 0.86498 0.43677 0.65701 0.0
H1120 H 0.83869 0.39603 0.64935 0.0
C1121 C 0.87011 0.40397 0.55808 0.0
C1122 C 0.85753 0.39346 0.54371 0.0
C1123 C 0.86946 0.41077 0.58514 0.0
C1124 C 0.84596 0.40744 0.65098 0.0
H1125 H 0.87955 0.46199 0.76042 0.0
H1126 H 0.87886 0.44852 0.71422 0.0
H1127 H 0.83847 0.4086 0.69657 0.0
H1128 H 0.83441 0.38171 0.54652 0.0
H1129 H 0.83324 0.39373 0.59382 0.0
H1130 H 0.87242 0.43573 0.6115 0.0
C1131 C 0.86887 0.44673 0.7241 0.0
C1132 C 0.84585 0.41462 0.67802 0.0
C1133 C 0.86925 0.45432 0.75074 0.0
C1134 C 0.84427 0.38972 0.55724 0.0
C1135 C 0.84361 0.39658 0.58432 0.0
C1136 C 0.86504 0.42964 0.62998 0.0
C1137 C 0.85575 0.43695 0.71035 0.0
C1138 C 0.85547 0.42933 0.68141 0.0
C1139 C 0.85621 0.40726 0.59843 0.0
C1140 C 0.85565 0.41486 0.62677 0.0
H1141 H 0.83341 0.4406 0.76068 0.0
H1142 H 0.83274 0.42733 0.71389 0.0
H1143 H 0.87232 0.44817 0.65872 0.0
H1144 H 0.8805 0.40687 0.54855 0.0
H1145 H 0.87938 0.41871 0.59581 0.0
C1146 C 0.46499 0.86033 0.73774 0.0
C1147 C 0.46402 0.86661 0.70987 0.0
C1148 C 0.4572 0.86005 0.76399 0.0
C1149 C 0.4384 0.87769 0.79782 0.0
H1150 H 0.42146 0.84455 0.85213 0.0
C1151 C 0.3987 0.8702 0.89602 0.0
C1152 C 0.40086 0.86548 0.925 0.0
C1153 C 0.40644 0.87034 0.86981 0.0
C1154 C 0.42624 0.85393 0.8373 0.0
H1155 H 0.45383 0.87715 0.68731 0.0
H1156 H 0.44004 0.87645 0.73289 0.0
H1157 H 0.4347 0.84458 0.80604 0.0
H1158 H 0.41306 0.85743 0.94914 0.0
H1159 H 0.42638 0.85747 0.90323 0.0
H1160 H 0.42976 0.88693 0.82894 0.0
C1161 C 0.44709 0.87206 0.73479 0.0
C1162 C 0.43385 0.85396 0.81094 0.0
C1163 C 0.45496 0.87244 0.70864 0.0
C1164 C 0.41094 0.8609 0.9271 0.0
C1165 C 0.4186 0.86094 0.90083 0.0
C1166 C 0.43071 0.8776 0.82405 0.0
C1167 C 0.44818 0.86595 0.76286 0.0
C1168 C 0.44004 0.86585 0.79088 0.0
C1169 C 0.41643 0.86567 0.87193 0.0
C1170 C 0.42457 0.86573 0.84407 0.0
H1171 H 0.47202 0.8559 0.73944 0.0
H1172 H 0.45846 0.85544 0.78535 0.0
H1173 H 0.44325 0.88713 0.78322 0.0
H1174 H 0.39085 0.87357 0.89342 0.0
H1175 H 0.40442 0.87387 0.84773 0.0
C1176 C 0.54919 0.41498 0.10066 0.0
C1177 C 0.5352 0.4034 0.09738 0.0
C1178 C 0.55719 0.4223 0.07446 0.0
C1179 C 0.55329 0.42857 0.99105 0.0
H1180 H 0.59375 0.44113 0.98742 0.0
C1181 C 0.58593 0.45006 0.8782 0.0
C1182 C 0.59914 0.46279 0.88077 0.0
C1183 C 0.57847 0.44267 0.90482 0.0
C1184 C 0.58248 0.43777 0.98823 0.0
H1185 H 0.51861 0.39058 0.06389 0.0
H1186 H 0.5327 0.40302 0.01826 0.0
H1187 H 0.57997 0.42858 0.03361 0.0
H1188 H 0.61496 0.4776 0.91347 0.0
H1189 H 0.602 0.46453 0.95997 0.0
H1190 H 0.55578 0.43762 0.94552 0.0
C1191 C 0.53743 0.4066 0.0411 0.0
C1192 C 0.57459 0.43063 0.0147 0.0
C1193 C 0.52941 0.39934 0.06728 0.0
C1194 C 0.6049 0.46774 0.91062 0.0
C1195 C 0.59747 0.46028 0.93727 0.0
C1196 C 0.56115 0.43562 0.96454 0.0
C1197 C 0.55141 0.41819 0.04435 0.0
C1198 C 0.55989 0.42592 0.0164 0.0
C1199 C 0.58409 0.44778 0.93463 0.0
C1200 C 0.57582 0.44027 0.96283 0.0
H1201 H 0.55404 0.41829 0.12348 0.0
H1202 H 0.56787 0.43128 0.07784 0.0
H1203 H 0.54205 0.42536 0.99179 0.0
H1204 H 0.58132 0.44579 0.85557 0.0
H1205 H 0.56829 0.43292 0.90209 0.0
C1206 C 0.11312 0.53086 0.25771 0.0
C1207 C 0.12593 0.53129 0.26588 0.0
C1208 C 0.11241 0.53788 0.23096 0.0
C1209 C 0.13555 0.56685 0.17665 0.0
H1210 H 0.10234 0.54966 0.12256 0.0
C1211 C 0.13531 0.59054 0.05666 0.0
C1212 C 0.12304 0.59119 0.04853 0.0
C1213 C 0.13535 0.583 0.08305 0.0
C1214 C 0.11162 0.55465 0.13763 0.0
H1215 H 0.14786 0.53894 0.25179 0.0
H1216 H 0.14661 0.55109 0.20514 0.0
H1217 H 0.10291 0.53679 0.16886 0.0
H1218 H 0.10121 0.58446 0.0619 0.0
H1219 H 0.10127 0.57123 0.10794 0.0
H1220 H 0.14429 0.58466 0.14542 0.0
C1221 C 0.1372 0.54562 0.21973 0.0
C1222 C 0.11195 0.54729 0.16414 0.0
C1223 C 0.13792 0.53865 0.24645 0.0
C1224 C 0.11077 0.58401 0.06727 0.0
C1225 C 0.1108 0.57643 0.09365 0.0
C1226 C 0.13524 0.57418 0.15015 0.0
C1227 C 0.12449 0.54544 0.21181 0.0
C1228 C 0.12395 0.55328 0.18388 0.0
C1229 C 0.12312 0.57591 0.10191 0.0
C1230 C 0.1233 0.56814 0.13027 0.0
H1231 H 0.10375 0.52538 0.2724 0.0
H1232 H 0.1025 0.53766 0.22568 0.0
H1233 H 0.14484 0.57189 0.19169 0.0
H1234 H 0.14485 0.59573 0.04242 0.0
H1235 H 0.14493 0.58259 0.08852 0.0
C1236 C 0.46384 0.27573 0.18173 0.0
C1237 C 0.47769 0.28768 0.17981 0.0
C1238 C 0.46058 0.26294 0.16683 0.0
C1239 C 0.47282 0.24869 0.10356 0.0
H1240 H 0.45491 0.21334 0.15071 0.0
C1241 C 0.48032 0.20133 0.07384 0.0
C1242 C 0.4692 0.18734 0.07961 0.0
C1243 C 0.47877 0.21301 0.08163 0.0
C1244 C 0.45962 0.22304 0.13693 0.0
H1245 H 0.49905 0.29542 0.16152 0.0
H1246 H 0.49331 0.27321 0.13533 0.0
H1247 H 0.45705 0.23497 0.17373 0.0
H1248 H 0.44744 0.17459 0.09638 0.0
H1249 H 0.44474 0.19508 0.11006 0.0
H1250 H 0.47571 0.23689 0.06705 0.0
C1251 C 0.48493 0.27381 0.1479 0.0
C1252 C 0.46088 0.23542 0.15018 0.0
C1253 C 0.48821 0.28652 0.16295 0.0
C1254 C 0.45627 0.18527 0.09211 0.0
C1255 C 0.45472 0.19698 0.09992 0.0
C1256 C 0.47149 0.2363 0.09026 0.0
C1257 C 0.47108 0.26193 0.14956 0.0
C1258 C 0.46789 0.24844 0.13397 0.0
C1259 C 0.46607 0.21097 0.09534 0.0
C1260 C 0.46529 0.22345 0.10719 0.0
H1261 H 0.45544 0.27633 0.19418 0.0
H1262 H 0.44982 0.25392 0.16839 0.0
H1263 H 0.47803 0.25855 0.09036 0.0
H1264 H 0.49049 0.2033 0.06469 0.0
H1265 H 0.48782 0.22365 0.07829 0.0
C1266 C 0.27542 0.47933 0.24006 0.0
C1267 C 0.27766 0.46766 0.24324 0.0
C1268 C 0.26213 0.47784 0.24667 0.0
C1269 C 0.23052 0.45605 0.2948 0.0
H1270 H 0.21775 0.4802 0.25623 0.0
C1271 C 0.18306 0.4624 0.33975 0.0
C1272 C 0.18738 0.47677 0.34652 0.0
C1273 C 0.19205 0.45894 0.32312 0.0
C1274 C 0.22113 0.47331 0.267 0.0
H1275 H 0.26752 0.44507 0.25408 0.0
H1276 H 0.2441 0.44239 0.2653 0.0
H1277 H 0.23674 0.47766 0.23171 0.0
H1278 H 0.20472 0.49868 0.34157 0.0
H1279 H 0.22006 0.49261 0.31164 0.0
H1280 H 0.21495 0.45191 0.33031 0.0
C1281 C 0.25274 0.45276 0.25825 0.0
C1282 C 0.23203 0.47189 0.25311 0.0
C1283 C 0.26612 0.45428 0.2518 0.0
C1284 C 0.20087 0.48754 0.33623 0.0
C1285 C 0.20969 0.48409 0.31915 0.0
C1286 C 0.21946 0.45731 0.30844 0.0
C1287 C 0.25069 0.46462 0.25645 0.0
C1288 C 0.23726 0.46373 0.26753 0.0
C1289 C 0.20535 0.46979 0.31244 0.0
C1290 C 0.21508 0.46637 0.29523 0.0
H1291 H 0.28416 0.48983 0.23403 0.0
H1292 H 0.26107 0.48728 0.24564 0.0
H1293 H 0.23435 0.44978 0.30671 0.0
H1294 H 0.17265 0.45383 0.3468 0.0
H1295 H 0.18852 0.44783 0.31816 0.0
C1296 C 0.72283 0.19668 0.53825 0.0
C1297 C 0.71095 0.18862 0.519 0.0
C1298 C 0.73587 0.20681 0.52526 0.0
C1299 C 0.75667 0.21862 0.45247 0.0
H1300 H 0.77203 0.25662 0.48749 0.0
C1301 C 0.81011 0.26928 0.41564 0.0
C1302 C 0.80899 0.28155 0.41067 0.0
C1303 C 0.79847 0.25679 0.42733 0.0
C1304 C 0.76786 0.24605 0.47753 0.0
H1305 H 0.70349 0.18409 0.4712 0.0
H1306 H 0.72631 0.2018 0.44848 0.0
H1307 H 0.7516 0.23644 0.51234 0.0
H1308 H 0.79479 0.29029 0.41321 0.0
H1309 H 0.77454 0.26852 0.43361 0.0
H1310 H 0.77293 0.22841 0.41738 0.0
C1311 C 0.72554 0.20034 0.47353 0.0
C1312 C 0.75629 0.2345 0.49191 0.0
C1313 C 0.71248 0.19035 0.48652 0.0
C1314 C 0.79591 0.28095 0.41645 0.0
C1315 C 0.78438 0.26857 0.42844 0.0
C1316 C 0.76841 0.23019 0.43828 0.0
C1317 C 0.73726 0.20888 0.49282 0.0
C1318 C 0.75045 0.22072 0.47925 0.0
C1319 C 0.78567 0.2565 0.43463 0.0
C1320 C 0.77389 0.24403 0.4504 0.0
H1321 H 0.7219 0.19552 0.56336 0.0
H1322 H 0.7448 0.21322 0.54059 0.0
H1323 H 0.75237 0.20807 0.44236 0.0
H1324 H 0.82008 0.26948 0.41127 0.0
H1325 H 0.79968 0.24759 0.43194 0.0
C1326 C 0.53493 0.80853 0.58585 0.0
C1327 C 0.52158 0.80728 0.57969 0.0
C1328 C 0.53583 0.79653 0.59446 0.0
C1329 C 0.51433 0.75673 0.59965 0.0
H1330 H 0.53927 0.76205 0.66966 0.0
C1331 C 0.50387 0.71262 0.68728 0.0
C1332 C 0.51497 0.70957 0.69174 0.0
C1333 C 0.50628 0.72469 0.67063 0.0
C1334 C 0.5324 0.76047 0.64986 0.0
H1335 H 0.49876 0.79254 0.57719 0.0
H1336 H 0.50024 0.77176 0.59283 0.0
H1337 H 0.5407 0.7829 0.64395 0.0
H1338 H 0.53742 0.71708 0.6826 0.0
H1339 H 0.5417 0.73861 0.65472 0.0
H1340 H 0.50547 0.73425 0.60702 0.0
C1341 C 0.51009 0.78184 0.59021 0.0
C1342 C 0.53325 0.77238 0.63497 0.0
C1343 C 0.50922 0.79378 0.58132 0.0
C1344 C 0.52868 0.7192 0.68008 0.0
C1345 C 0.53113 0.73144 0.66389 0.0
C1346 C 0.51333 0.74486 0.61487 0.0
C1347 C 0.52338 0.78309 0.59739 0.0
C1348 C 0.52397 0.77062 0.61018 0.0
C1349 C 0.51987 0.73411 0.6586 0.0
C1350 C 0.52213 0.74665 0.64048 0.0
H1351 H 0.54463 0.81883 0.58446 0.0
H1352 H 0.54625 0.79783 0.59932 0.0
H1353 H 0.50727 0.75499 0.58016 0.0
H1354 H 0.49327 0.70563 0.69649 0.0
H1355 H 0.4975 0.72672 0.66723 0.0
C1356 C 0.71857 0.51797 0.74164 0.0
C1357 C 0.71543 0.52897 0.74642 0.0
C1358 C 0.73207 0.52007 0.74863 0.0
C1359 C 0.76173 0.54037 0.80144 0.0
H1360 H 0.77892 0.52219 0.75433 0.0
C1361 C 0.80988 0.53526 0.84598 0.0
C1362 C 0.80766 0.5213 0.84347 0.0
C1363 C 0.80057 0.5389 0.83131 0.0
C1364 C 0.77427 0.52737 0.76765 0.0
H1365 H 0.72427 0.55108 0.76071 0.0
H1366 H 0.74791 0.55467 0.77344 0.0
H1367 H 0.75933 0.52424 0.73153 0.0
H1368 H 0.79362 0.50012 0.82475 0.0
H1369 H 0.77756 0.5065 0.79904 0.0
H1370 H 0.77636 0.54301 0.83803 0.0
C1371 C 0.73982 0.5444 0.76444 0.0
C1372 C 0.76309 0.52855 0.75462 0.0
C1373 C 0.72629 0.54232 0.75725 0.0
C1374 C 0.79582 0.51104 0.82653 0.0
C1375 C 0.78664 0.5147 0.81175 0.0
C1376 C 0.77297 0.53922 0.81447 0.0
C1377 C 0.74275 0.5332 0.76069 0.0
C1378 C 0.75635 0.53457 0.77184 0.0
C1379 C 0.78898 0.52867 0.81373 0.0
C1380 C 0.77895 0.53222 0.79812 0.0
H1381 H 0.7104 0.50748 0.73389 0.0
H1382 H 0.73391 0.51115 0.74603 0.0
H1383 H 0.75668 0.54498 0.81534 0.0
H1384 H 0.81898 0.54343 0.85863 0.0
H1385 H 0.80257 0.54975 0.83321 0.0
C1386 C 0.18858 0.72275 0.91469 0.0
C1387 C 0.18013 0.71325 0.9383 0.0
C1388 C 0.19982 0.73633 0.92225 0.0
C1389 C 0.21552 0.76297 0.98582 0.0
H1390 H 0.25156 0.77134 0.94849 0.0
C1391 C 0.27012 0.80081 0.04175 0.0
C1392 C 0.28191 0.80865 0.02216 0.0
C1393 C 0.25681 0.79115 0.0291 0.0
C1394 C 0.24158 0.76939 0.95869 0.0
H1395 H 0.17656 0.71073 0.98827 0.0
H1396 H 0.1961 0.7344 0.00137 0.0
H1397 H 0.22952 0.75099 0.93008 0.0
H1398 H 0.28894 0.8134 0.97414 0.0
H1399 H 0.26565 0.79675 0.95194 0.0
H1400 H 0.22767 0.78122 0.01496 0.0
C1401 C 0.19394 0.73143 0.97702 0.0
C1402 C 0.22893 0.7577 0.94811 0.0
C1403 C 0.18275 0.71784 0.96949 0.0
C1404 C 0.28005 0.80722 0.98972 0.0
C1405 C 0.26673 0.7977 0.97706 0.0
C1406 C 0.22819 0.77474 0.99631 0.0
C1407 C 0.20278 0.74068 0.95354 0.0
C1408 C 0.21581 0.75419 0.96202 0.0
C1409 C 0.25503 0.7893 0.9966 0.0
C1410 C 0.24139 0.77789 0.98331 0.0
H1411 H 0.18665 0.71962 0.8904 0.0
H1412 H 0.20637 0.74333 0.90366 0.0
H1413 H 0.20551 0.76058 0.9967 0.0
H1414 H 0.27133 0.80173 0.06686 0.0
H1415 H 0.24808 0.78473 0.04483 0.0
C1416 C 0.59663 0.12566 0.74011 0.0
C1417 C 0.60254 0.1373 0.71945 0.0
C1418 C 0.58897 0.12574 0.76623 0.0
C1419 C 0.582 0.14951 0.81661 0.0
H1420 H 0.54745 0.11414 0.83722 0.0
C1421 C 0.53986 0.14629 0.90453 0.0
C1422 C 0.53444 0.13488 0.92589 0.0
C1423 C 0.54859 0.14687 0.87988 0.0
C1424 C 0.55714 0.12406 0.83193 0.0
H1425 H 0.60521 0.15821 0.71001 0.0
H1426 H 0.59164 0.15828 0.75541 0.0
H1427 H 0.56208 0.11473 0.79345 0.0
H1428 H 0.53427 0.11533 0.93842 0.0
H1429 H 0.5493 0.11625 0.89512 0.0
H1430 H 0.57684 0.15885 0.85492 0.0
C1431 C 0.59313 0.14919 0.75178 0.0
C1432 C 0.56556 0.1244 0.8069 0.0
C1433 C 0.60089 0.14915 0.72575 0.0
C1434 C 0.53801 0.12411 0.92205 0.0
C1435 C 0.54665 0.12465 0.89732 0.0
C1436 C 0.57351 0.14919 0.84154 0.0
C1437 C 0.58695 0.13742 0.77215 0.0
C1438 C 0.57811 0.13711 0.79898 0.0
C1439 C 0.55202 0.13602 0.87596 0.0
C1440 C 0.56102 0.13645 0.84948 0.0
H1441 H 0.59794 0.11648 0.73606 0.0
H1442 H 0.58462 0.11663 0.7818 0.0
H1443 H 0.59169 0.15943 0.8114 0.0
H1444 H 0.53717 0.15466 0.90654 0.0
H1445 H 0.55244 0.15568 0.86354 0.0
C1446 C 0.44702 0.58338 0.88172 0.0
C1447 C 0.4567 0.59813 0.88418 0.0
C1448 C 0.4388 0.57564 0.90727 0.0
C1449 C 0.43733 0.57732 0.99338 0.0
H1450 H 0.39873 0.54579 0.98139 0.0
C1451 C 0.39908 0.54705 0.09532 0.0
C1452 C 0.39233 0.53207 0.09382 0.0
C1453 C 0.40662 0.55538 0.0697 0.0
C1454 C 0.40952 0.55453 0.98501 0.0
H1455 H 0.46518 0.61632 0.91559 0.0
H1456 H 0.45041 0.60295 0.95973 0.0
H1457 H 0.41229 0.56012 0.93671 0.0
H1458 H 0.38793 0.51403 0.06434 0.0
H1459 H 0.40102 0.52863 0.0193 0.0
H1460 H 0.43438 0.5718 0.04184 0.0
C1461 C 0.44942 0.59728 0.93821 0.0
C1462 C 0.41732 0.56271 0.95944 0.0
C1463 C 0.45775 0.605 0.91272 0.0
C1464 C 0.39312 0.52556 0.06613 0.0
C1465 C 0.4005 0.53389 0.04035 0.0
C1466 C 0.42946 0.56924 0.01899 0.0
C1467 C 0.43991 0.58248 0.93588 0.0
C1468 C 0.43138 0.57413 0.96326 0.0
C1469 C 0.40739 0.54888 0.04199 0.0
C1470 C 0.41553 0.5577 0.01498 0.0
H1471 H 0.44573 0.57777 0.85998 0.0
H1472 H 0.43175 0.56424 0.90468 0.0
H1473 H 0.4482 0.58586 0.99716 0.0
H1474 H 0.39871 0.55232 0.1165 0.0
H1475 H 0.41178 0.56691 0.07146 0.0
C1476 C 0.8494 0.44751 0.04838 0.0
C1477 C 0.8562 0.46251 0.05021 0.0
C1478 C 0.8494 0.43946 0.0738 0.0
C1479 C 0.85666 0.4416 0.15914 0.0
H1480 H 0.85912 0.40766 0.14202 0.0
C1481 C 0.85254 0.40329 0.25737 0.0
C1482 C 0.86082 0.3966 0.25494 0.0
C1483 C 0.85164 0.41114 0.23252 0.0
C1484 C 0.85862 0.4172 0.14732 0.0
H1485 H 0.86808 0.48071 0.08086 0.0
H1486 H 0.86881 0.46676 0.12448 0.0
H1487 H 0.85866 0.42198 0.09907 0.0
H1488 H 0.87456 0.39292 0.224 0.0
H1489 H 0.87368 0.40726 0.18151 0.0
H1490 H 0.85744 0.43725 0.20745 0.0
C1491 C 0.86314 0.46116 0.1036 0.0
C1492 C 0.85809 0.42531 0.12258 0.0
C1493 C 0.86292 0.46921 0.07832 0.0
C1494 C 0.86824 0.39806 0.22699 0.0
C1495 C 0.86753 0.40611 0.20233 0.0
C1496 C 0.85744 0.43362 0.18392 0.0
C1497 C 0.85645 0.44618 0.10162 0.0
C1498 C 0.85704 0.43758 0.12812 0.0
C1499 C 0.85919 0.41274 0.20471 0.0
C1500 C 0.85839 0.42128 0.17835 0.0
H1501 H 0.8443 0.44192 0.02706 0.0
H1502 H 0.84388 0.42794 0.07151 0.0
H1503 H 0.85567 0.45086 0.1644 0.0
H1504 H 0.84685 0.40263 0.27865 0.0
H1505 H 0.84493 0.41589 0.23513 0.0
C1506 C 0.44695 0.85254 0.42192 0.0
C1507 C 0.46193 0.86058 0.42038 0.0
C1508 C 0.43864 0.85187 0.39632 0.0
C1509 C 0.44055 0.87112 0.32354 0.0
H1510 H 0.40589 0.83595 0.30239 0.0
C1511 C 0.41022 0.86435 0.20896 0.0
C1512 C 0.39531 0.85828 0.21105 0.0
C1513 C 0.41812 0.86422 0.23455 0.0
C1514 C 0.41548 0.84587 0.30821 0.0
H1515 H 0.48 0.87384 0.39063 0.0
H1516 H 0.46554 0.87249 0.34573 0.0
H1517 H 0.42026 0.8364 0.34678 0.0
H1518 H 0.37699 0.84716 0.2417 0.0
H1519 H 0.39083 0.84675 0.28634 0.0
H1520 H 0.43584 0.88052 0.28474 0.0
C1521 C 0.46017 0.86699 0.36693 0.0
C1522 C 0.4237 0.84614 0.33365 0.0
C1523 C 0.46846 0.86774 0.3926 0.0
C1524 C 0.38844 0.8518 0.23919 0.0
C1525 C 0.39635 0.85158 0.26477 0.0
C1526 C 0.43239 0.87081 0.29803 0.0
C1527 C 0.44515 0.85915 0.36856 0.0
C1528 C 0.43635 0.85878 0.34157 0.0
C1529 C 0.41128 0.85791 0.26275 0.0
C1530 C 0.41979 0.85818 0.29007 0.0
H1531 H 0.44163 0.84704 0.44318 0.0
H1532 H 0.42711 0.8459 0.39853 0.0
H1533 H 0.45006 0.8811 0.32936 0.0
H1534 H 0.41582 0.86915 0.18744 0.0
H1535 H 0.42959 0.86896 0.23218 0.0
C1536 C 0.60276 0.46827 0.56233 0.0
C1537 C 0.60205 0.4621 0.5916 0.0
C1538 C 0.59556 0.45972 0.53668 0.0
C1539 C 0.56611 0.42342 0.51642 0.0
H1540 H 0.58191 0.43458 0.43324 0.0
C1541 C 0.54015 0.38871 0.40656 0.0
C1542 C 0.53798 0.39601 0.38199 0.0
C1543 C 0.54858 0.39625 0.43214 0.0
C1544 C 0.57739 0.43137 0.45637 0.0
H1545 H 0.5932 0.44197 0.61665 0.0
H1546 H 0.58127 0.42707 0.57168 0.0
H1547 H 0.59573 0.4486 0.47801 0.0
H1548 H 0.54317 0.41685 0.36433 0.0
H1549 H 0.55808 0.43006 0.40884 0.0
H1550 H 0.54784 0.40605 0.49453 0.0
C1551 C 0.58711 0.43856 0.56867 0.0
C1552 C 0.58525 0.43943 0.48202 0.0
C1553 C 0.59416 0.44712 0.59441 0.0
C1554 C 0.54459 0.41098 0.38312 0.0
C1555 C 0.55319 0.41852 0.40841 0.0
C1556 C 0.55834 0.41526 0.49078 0.0
C1557 C 0.58761 0.44475 0.53952 0.0
C1558 C 0.57962 0.43569 0.51236 0.0
C1559 C 0.55517 0.41123 0.43324 0.0
C1560 C 0.56383 0.41927 0.46052 0.0
H1561 H 0.6089 0.47974 0.55911 0.0
H1562 H 0.59605 0.46491 0.51475 0.0
H1563 H 0.56131 0.42033 0.53932 0.0
H1564 H 0.53511 0.37716 0.40622 0.0
H1565 H 0.55 0.3904 0.45099 0.0
C1566 C 0.14478 0.55538 0.54865 0.0
C1567 C 0.14947 0.54538 0.55027 0.0
C1568 C 0.14632 0.56405 0.57415 0.0
C1569 C 0.15058 0.56544 0.6596 0.0
H1570 H 0.15727 0.60396 0.64885 0.0
C1571 C 0.15397 0.60093 0.76371 0.0
C1572 C 0.14539 0.60726 0.76089 0.0
C1573 C 0.15638 0.5945 0.73794 0.0
C1574 C 0.15537 0.59321 0.65216 0.0
H1575 H 0.15982 0.53695 0.57984 0.0
H1576 H 0.16292 0.55241 0.62405 0.0
H1577 H 0.15847 0.59082 0.60378 0.0
H1578 H 0.13304 0.61229 0.72878 0.0
H1579 H 0.13727 0.60107 0.68374 0.0
H1580 H 0.14743 0.56785 0.708 0.0
C1581 C 0.15778 0.55334 0.6032 0.0
C1582 C 0.15602 0.58566 0.62637 0.0
C1583 C 0.15616 0.54459 0.57771 0.0
C1584 C 0.13959 0.60738 0.73166 0.0
C1585 C 0.14212 0.60108 0.70585 0.0
C1586 C 0.15006 0.57304 0.68542 0.0
C1587 C 0.15269 0.56304 0.60188 0.0
C1588 C 0.15336 0.57158 0.62967 0.0
C1589 C 0.1504 0.59444 0.70881 0.0
C1590 C 0.15221 0.5869 0.68187 0.0
H1591 H 0.13981 0.55646 0.52769 0.0
H1592 H 0.14212 0.57127 0.57237 0.0
H1593 H 0.14827 0.55455 0.66297 0.0
H1594 H 0.1585 0.60061 0.78602 0.0
H1595 H 0.16288 0.58953 0.74082 0.0
C1596 C 0.41501 0.04662 0.04095 0.0
C1597 C 0.41987 0.05507 0.06794 0.0
C1598 C 0.40409 0.03238 0.04281 0.0
C1599 C 0.38951 0.00324 0.09971 0.0
H1600 H 0.36352 0.98221 0.03226 0.0
C1601 C 0.35836 0.94209 0.10033 0.0
C1602 C 0.36001 0.93602 0.07276 0.0
C1603 C 0.36177 0.95637 0.10096 0.0
C1604 C 0.37068 0.98796 0.05135 0.0
H1605 H 0.4164 0.05573 0.11751 0.0
H1606 H 0.39711 0.03092 0.12073 0.0
H1607 H 0.37657 0.00834 0.03131 0.0
H1608 H 0.36594 0.94003 0.02393 0.0
H1609 H 0.37188 0.9649 0.02506 0.0
H1610 H 0.38406 0.98296 0.11922 0.0
C1611 C 0.40198 0.03514 0.09827 0.0
C1612 C 0.37817 0.0029 0.05078 0.0
C1613 C 0.41299 0.04933 0.09645 0.0
C1614 C 0.36439 0.94432 0.04546 0.0
C1615 C 0.36778 0.95859 0.04608 0.0
C1616 C 0.382 0.98835 0.10034 0.0
C1617 C 0.39773 0.02636 0.07167 0.0
C1618 C 0.38799 0.0107 0.07451 0.0
C1619 C 0.36688 0.96487 0.07403 0.0
C1620 C 0.37282 0.98054 0.07573 0.0
H1621 H 0.4202 0.05077 0.01872 0.0
H1622 H 0.40121 0.02589 0.02192 0.0
H1623 H 0.39715 0.00886 0.11814 0.0
H1624 H 0.35474 0.93588 0.1216 0.0
H1625 H 0.36079 0.96089 0.12274 0.0
C1626 C 0.41207 0.35532 0.24488 0.0
C1627 C 0.42457 0.36237 0.26294 0.0
C1628 C 0.40139 0.35898 0.24755 0.0
C1629 C 0.39013 0.38063 0.29529 0.0
H1630 H 0.37782 0.38766 0.21556 0.0
C1631 C 0.38132 0.42742 0.27098 0.0
C1632 C 0.36867 0.4249 0.25605 0.0
C1633 C 0.3844 0.41644 0.2747 0.0
C1634 C 0.3809 0.38546 0.23803 0.0
H1635 H 0.43551 0.37847 0.29857 0.0
H1636 H 0.41716 0.38501 0.3029 0.0
H1637 H 0.38998 0.37379 0.21754 0.0
H1638 H 0.34931 0.40866 0.23341 0.0
H1639 H 0.3552 0.38961 0.23856 0.0
H1640 H 0.38204 0.39335 0.31528 0.0
C1641 C 0.41532 0.3764 0.2872 0.0
C1642 C 0.38783 0.37749 0.23924 0.0
C1643 C 0.42591 0.37268 0.28467 0.0
C1644 C 0.35924 0.41107 0.24465 0.0
C1645 C 0.3625 0.40012 0.24783 0.0
C1646 C 0.38339 0.38876 0.29398 0.0
C1647 C 0.40308 0.36983 0.26819 0.0
C1648 C 0.39305 0.37548 0.26776 0.0
C1649 C 0.37507 0.40274 0.26305 0.0
C1650 C 0.3792 0.39166 0.26522 0.0
H1651 H 0.41068 0.34719 0.2282 0.0
H1652 H 0.392 0.35357 0.23289 0.0
H1653 H 0.39368 0.37897 0.31771 0.0
H1654 H 0.38908 0.43797 0.27926 0.0
H1655 H 0.39433 0.41878 0.2859 0.0
C1656 C 0.05634 0.41434 0.42863 0.0
C1657 C 0.06157 0.42754 0.44394 0.0
C1658 C 0.0419 0.40391 0.4308 0.0
C1659 C 0.00803 0.39495 0.47255 0.0
H1660 H 0.99052 0.37974 0.39218 0.0
C1661 C 0.95368 0.3862 0.43537 0.0
C1662 C 0.94355 0.37284 0.42301 0.0
C1663 C 0.96757 0.38927 0.44164 0.0
C1664 C 0.99528 0.38364 0.4149 0.0
H1665 H 0.05588 0.43997 0.47427 0.0
H1666 H 0.03082 0.42204 0.47768 0.0
H1667 H 0.01645 0.39161 0.39749 0.0
H1668 H 0.9403 0.35226 0.40749 0.0
H1669 H 0.965 0.35809 0.41696 0.0
H1670 H 0.98683 0.388 0.48911 0.0
C1671 C 0.03783 0.41949 0.4646 0.0
C1672 C 0.01012 0.39041 0.41804 0.0
C1673 C 0.05224 0.42984 0.46258 0.0
C1674 C 0.94782 0.36272 0.41661 0.0
C1675 C 0.96188 0.36596 0.42229 0.0
C1676 C 0.99323 0.3884 0.46926 0.0
C1677 C 0.0324 0.40653 0.44817 0.0
C1678 C 0.0167 0.39666 0.44661 0.0
C1679 C 0.97179 0.37922 0.43509 0.0
C1680 C 0.98682 0.38317 0.44015 0.0
H1681 H 0.06336 0.41222 0.41441 0.0
H1682 H 0.0381 0.39397 0.41823 0.0
H1683 H 0.01272 0.39932 0.49507 0.0
H1684 H 0.95099 0.39444 0.43976 0.0
H1685 H 0.97516 0.3997 0.45087 0.0
C1686 C 0.57995 0.94981 0.53735 0.0
C1687 C 0.57577 0.94131 0.56429 0.0
C1688 C 0.59089 0.96406 0.53875 0.0
C1689 C 0.60658 0.99305 0.59587 0.0
H1690 H 0.63088 0.0144 0.52642 0.0
C1691 C 0.63705 0.05422 0.59686 0.0
C1692 C 0.63476 0.06026 0.57001 0.0
C1693 C 0.63381 0.03998 0.59688 0.0
C1694 C 0.6242 0.00856 0.54605 0.0
H1695 H 0.58047 0.94055 0.61312 0.0
H1696 H 0.59978 0.96537 0.61551 0.0
H1697 H 0.61807 0.98827 0.52519 0.0
H1698 H 0.62781 0.05625 0.52175 0.0
H1699 H 0.62216 0.03147 0.52182 0.0
H1700 H 0.61224 0.01323 0.61623 0.0
C1701 C 0.59437 0.96118 0.59349 0.0
C1702 C 0.61685 0.99362 0.54534 0.0
C1703 C 0.58335 0.94698 0.59214 0.0
C1704 C 0.62987 0.05199 0.54272 0.0
C1705 C 0.62664 0.03777 0.54274 0.0
C1706 C 0.61395 0.00794 0.59662 0.0
C1707 C 0.59793 0.97003 0.56709 0.0
C1708 C 0.60763 0.9857 0.56984 0.0
C1709 C 0.62822 0.0315 0.57004 0.0
C1710 C 0.62251 0.01586 0.57133 0.0
H1711 H 0.57421 0.94571 0.51563 0.0
H1712 H 0.59323 0.97059 0.51805 0.0
H1713 H 0.5994 0.98733 0.61493 0.0
H1714 H 0.64106 0.06042 0.61808 0.0
H1715 H 0.63532 0.03549 0.61815 0.0
C1716 C 0.6289 0.57945 0.77413 0.0
C1717 C 0.62853 0.57339 0.74496 0.0
C1718 C 0.62587 0.59056 0.77665 0.0
C1719 C 0.61962 0.61614 0.72996 0.0
H1720 H 0.59281 0.61013 0.79632 0.0
C1721 C 0.57536 0.63044 0.72167 0.0
C1722 C 0.5715 0.63526 0.74842 0.0
C1723 C 0.58611 0.62689 0.72308 0.0
C1724 C 0.60054 0.61219 0.77806 0.0
H1725 H 0.62523 0.57443 0.69545 0.0
H1726 H 0.61954 0.5935 0.6998 0.0
H1727 H 0.60489 0.5963 0.79563 0.0
H1728 H 0.57665 0.64108 0.79708 0.0
H1729 H 0.59522 0.6345 0.79965 0.0
H1730 H 0.61446 0.63144 0.71145 0.0
C1731 C 0.6225 0.58999 0.72072 0.0
C1732 C 0.6075 0.60427 0.77766 0.0
C1733 C 0.62568 0.579 0.71819 0.0
C1734 C 0.57915 0.63712 0.77622 0.0
C1735 C 0.58983 0.63344 0.77768 0.0
C1736 C 0.61254 0.62398 0.73023 0.0
C1737 C 0.62225 0.59569 0.75007 0.0
C1738 C 0.6168 0.60583 0.7531 0.0
C1739 C 0.59316 0.62797 0.7513 0.0
C1740 C 0.60263 0.62177 0.75381 0.0
H1741 H 0.6313 0.57544 0.79507 0.0
H1742 H 0.62605 0.59488 0.79952 0.0
H1743 H 0.62695 0.61782 0.71107 0.0
H1744 H 0.56958 0.62867 0.69998 0.0
H1745 H 0.58829 0.6225 0.70248 0.0
C1746 C 0.04497 0.62374 0.85514 0.0
C1747 C 0.05301 0.63005 0.88207 0.0
C1748 C 0.0308 0.62065 0.85329 0.0
C1749 C 0.00103 0.61312 0.90644 0.0
H1750 H 0.98073 0.60688 0.82823 0.0
C1751 C 0.9395 0.58128 0.899 0.0
C1752 C 0.935 0.56895 0.8806 0.0
C1753 C 0.95359 0.59259 0.89737 0.0
C1754 C 0.9863 0.60878 0.85027 0.0
H1755 H 0.05321 0.63917 0.92709 0.0
H1756 H 0.02865 0.63441 0.92343 0.0
H1757 H 0.00682 0.62092 0.82885 0.0
H1758 H 0.94191 0.55919 0.84541 0.0
H1759 H 0.96615 0.5791 0.84182 0.0
H1760 H 0.98046 0.60077 0.92764 0.0
C1761 C 0.033 0.63132 0.90416 0.0
C1762 C 0.00122 0.61669 0.85065 0.0
C1763 C 0.04707 0.63413 0.90624 0.0
C1764 C 0.94478 0.56855 0.8595 0.0
C1765 C 0.95873 0.57997 0.85743 0.0
C1766 C 0.98612 0.60546 0.90611 0.0
C1767 C 0.02449 0.62403 0.87818 0.0
C1768 C 0.00879 0.61842 0.87854 0.0
C1769 C 0.96334 0.59193 0.8768 0.0
C1770 C 0.97868 0.60274 0.87786 0.0
H1771 H 0.04935 0.62044 0.83631 0.0
H1772 H 0.02461 0.61484 0.8331 0.0
H1773 H 0.00639 0.61401 0.92834 0.0
H1774 H 0.93223 0.58213 0.91504 0.0
H1775 H 0.95696 0.60175 0.91253 0.0
loop_
_geom_bond_atom_site_label_1
_geom_bond_atom_site_label_2
_geom_bond_distance
_geom_bond_site_symmetry_2
_ccdc_geom_bond_type
Li0 N17 1.990 . S
Li0 O60 1.956 . S
Li0 O61 1.970 . S
Li0 O62 1.961 . S
Li1 N25 1.990 . S
Li1 O60 1.970 . S
Li1 O61 1.956 . S
Li1 O63 1.961 . S
Li2 N47 1.990 . S
Li2 O60 1.961 . S
Li2 O62 1.956 . S
Li2 O63 1.970 . S
Li3 N53 1.990 . S
Li3 O61 1.961 . S
Li3 O62 1.970 . S
Li3 O63 1.956 . S
C4 C6 1.348 . S
C4 C7 1.356 . S
C4 O60 1.325 . S
N5 C8 1.314 . S
N5 C9 1.279 . S
C6 C4 1.348 . S
C6 C8 1.353 . S
C6 H64 0.929 . S
C7 C4 1.356 . S
C7 C9 1.358 . S
C7 H65 0.930 . S
C8 N5 1.314 . S
C8 C6 1.353 . S
C8 H66 0.930 . S
C9 N5 1.279 . S
C9 C7 1.358 . S
C9 H67 0.930 . S
C10 C13 1.348 . S
C10 C14 1.356 . S
C10 O61 1.325 . S
C11 N12 1.279 . S
C11 C14 1.358 . S
C11 H68 0.930 . S
N12 C11 1.279 . S
N12 C15 1.314 . S
C13 C10 1.348 . S
C13 C15 1.353 . S
C13 H69 0.929 . S
C14 C10 1.356 . S
C14 C11 1.358 . S
C14 H70 0.930 . S
C15 N12 1.314 . S
C15 C13 1.353 . S
C15 H71 0.930 . S
C16 N17 1.314 . S
C16 C21 1.353 . S
C16 H22 0.930 . S
N17 Li0 1.990 . S
N17 C16 1.314 . S
N17 C19 1.279 . S
C18 C19 1.358 . S
C18 C20 1.356 . S
C18 H72 0.930 . S
C19 N17 1.279 . S
C19 C18 1.358 . S
C19 H23 0.930 . S
C20 C18 1.356 . S
C20 C21 1.348 . S
C21 C16 1.353 . S
C21 C20 1.348 . S
C21 H73 0.929 . S
H22 C16 0.930 . S
H23 C19 0.930 . S
C24 N25 1.314 . S
C24 C26 1.353 . S
C24 H30 0.930 . S
N25 Li1 1.990 . S
N25 C24 1.314 . S
N25 C28 1.279 . S
C26 C24 1.353 . S
C26 C29 1.348 . S
C26 H74 0.929 . S
C27 C28 1.358 . S
C27 C29 1.356 . S
C27 H75 0.930 . S
C28 N25 1.279 . S
C28 C27 1.358 . S
C28 H31 0.930 . S
C29 C26 1.348 . S
C29 C27 1.356 . S
H30 C24 0.930 . S
H31 C28 0.930 . S
C32 C34 1.348 1_554 S
C32 C35 1.356 . S
C32 O62 1.325 . S
N33 C36 1.314 . S
N33 C37 1.279 . S
C34 C32 1.348 1_556 S
C34 C36 1.353 . S
C34 H76 0.929 . S
C35 C32 1.356 . S
C35 C37 1.358 1_554 S
C35 H77 0.930 . S
C36 N33 1.314 . S
C36 C34 1.353 . S
C36 H78 0.930 . S
C37 N33 1.279 . S
C37 C35 1.358 1_556 S
C37 H79 0.930 1_556 S
C38 C39 1.348 . S
C38 C40 1.356 . S
C38 O63 1.325 . S
C39 C38 1.348 . S
C39 C41 1.353 . S
C39 H80 0.929 . S
C40 C38 1.356 . S
C40 C42 1.358 . S
C40 H81 0.930 . S
C41 C39 1.353 . S
C41 N43 1.314 . S
C41 H82 0.930 . S
C42 C40 1.358 . S
C42 N43 1.279 . S
C42 H83 0.930 . S
N43 C41 1.314 . S
N43 C42 1.279 . S
C44 C46 1.353 . S
C44 N47 1.314 . S
C44 H50 0.930 . S
C45 N47 1.279 . S
C45 C48 1.358 . S
C45 H51 0.930 . S
C46 C44 1.353 . S
C46 C49 1.348 . S
C46 H84 0.929 . S
N47 Li2 1.990 . S
N47 C44 1.314 . S
N47 C45 1.279 . S
C48 C45 1.358 . S
C48 C49 1.356 . S
C48 H85 0.930 . S
C49 C46 1.348 . S
C49 C48 1.356 . S
H50 C44 0.930 . S
H51 C45 0.930 . S
C52 N53 1.314 1_556 S
C52 C54 1.353 . S
C52 H58 0.930 . S
N53 Li3 1.990 . S
N53 C52 1.314 1_554 S
N53 C56 1.279 1_554 S
C54 C52 1.353 . S
C54 C57 1.348 . S
C54 H86 0.929 . S
C55 C56 1.358 . S
C55 C57 1.356 . S
C55 H87 0.930 . S
C56 N53 1.279 1_556 S
C56 C55 1.358 . S
C56 H59 0.930 1_556 S
C57 C54 1.348 . S
C57 C55 1.356 . S
H58 C52 0.930 . S
H59 C56 0.930 1_554 S
O60 Li0 1.956 . S
O60 Li1 1.970 . S
O60 Li2 1.961 . S
O60 C4 1.325 . S
O61 Li0 1.970 . S
O61 Li1 1.956 . S
O61 Li3 1.961 . S
O61 C10 1.325 . S
O62 Li0 1.961 . S
O62 Li2 1.956 . S
O62 Li3 1.970 . S
O62 C32 1.325 . S
O63 Li1 1.961 . S
O63 Li2 1.970 . S
O63 Li3 1.956 . S
O63 C38 1.325 . S
H64 C6 0.929 . S
H65 C7 0.930 . S
H66 C8 0.930 . S
H67 C9 0.930 . S
H68 C11 0.930 . S
H69 C13 0.929 . S
H70 C14 0.930 . S
H71 C15 0.930 . S
H72 C18 0.930 . S
H73 C21 0.929 . S
H74 C26 0.929 . S
H75 C27 0.930 . S
H76 C34 0.929 . S
H77 C35 0.930 . S
H78 C36 0.930 . S
H79 C37 0.930 1_554 S
H80 C39 0.929 . S
H81 C40 0.930 . S
H82 C41 0.930 . S
H83 C42 0.930 . S
H84 C46 0.929 . S
H85 C48 0.930 . S
H86 C54 0.929 . S
H87 C55 0.930 . S
Li88 N105 1.990 . S
Li88 O148 1.956 . S
Li88 O149 1.970 . S
Li88 O150 1.961 . S
Li89 N113 1.990 . S
Li89 O148 1.970 . S
Li89 O149 1.956 . S
Li89 O151 1.961 . S
Li90 N135 1.990 . S
Li90 O148 1.961 . S
Li90 O150 1.956 . S
Li90 O151 1.970 . S
Li91 N141 1.990 . S
Li91 O149 1.961 . S
Li91 O150 1.970 . S
Li91 O151 1.956 . S
C92 C94 1.348 . S
C92 C95 1.356 . S
C92 O148 1.325 . S
N93 C96 1.314 . S
N93 C97 1.279 . S
C94 C92 1.348 . S
C94 C96 1.353 . S
C94 H152 0.929 . S
C95 C92 1.356 . S
C95 C97 1.358 . S
C95 H153 0.930 . S
C96 N93 1.314 . S
C96 C94 1.353 . S
C96 H154 0.930 . S
C97 N93 1.279 . S
C97 C95 1.358 . S
C97 H155 0.930 . S
C98 C101 1.348 . S
C98 C102 1.356 . S
C98 O149 1.325 . S
C99 N100 1.279 . S
C99 C102 1.358 . S
C99 H156 0.930 . S
N100 C99 1.279 . S
N100 C103 1.314 . S
C101 C98 1.348 . S
C101 C103 1.353 . S
C101 H157 0.929 . S
C102 C98 1.356 . S
C102 C99 1.358 . S
C102 H158 0.930 . S
C103 N100 1.314 . S
C103 C101 1.353 . S
C103 H159 0.930 . S
C104 N105 1.314 . S
C104 C109 1.353 . S
C104 H110 0.930 . S
N105 Li88 1.990 . S
N105 C104 1.314 . S
N105 C107 1.279 . S
C106 C107 1.358 . S
C106 C108 1.356 . S
C106 H160 0.930 . S
C107 N105 1.279 . S
C107 C106 1.358 . S
C107 H111 0.930 . S
C108 C106 1.356 . S
C108 C109 1.348 . S
C109 C104 1.353 . S
C109 C108 1.348 . S
C109 H161 0.929 . S
H110 C104 0.930 . S
H111 C107 0.930 . S
C112 N113 1.314 . S
C112 C114 1.353 . S
C112 H118 0.930 . S
N113 Li89 1.990 . S
N113 C112 1.314 . S
N113 C116 1.279 . S
C114 C112 1.353 . S
C114 C117 1.348 . S
C114 H162 0.929 . S
C115 C116 1.358 . S
C115 C117 1.356 . S
C115 H163 0.930 . S
C116 N113 1.279 . S
C116 C115 1.358 . S
C116 H119 0.930 . S
C117 C114 1.348 . S
C117 C115 1.356 . S
H118 C112 0.930 . S
H119 C116 0.930 . S
C120 C122 1.348 . S
C120 C123 1.356 . S
C120 O150 1.325 . S
N121 C124 1.314 . S
N121 C125 1.279 . S
C122 C120 1.348 . S
C122 C124 1.353 . S
C122 H164 0.929 . S
C123 C120 1.356 . S
C123 C125 1.358 . S
C123 H165 0.930 . S
C124 N121 1.314 . S
C124 C122 1.353 . S
C124 H166 0.930 . S
C125 N121 1.279 . S
C125 C123 1.358 . S
C125 H167 0.930 . S
C126 C127 1.348 . S
C126 C128 1.356 . S
C126 O151 1.325 . S
C127 C126 1.348 . S
C127 C129 1.353 . S
C127 H168 0.929 . S
C128 C126 1.356 . S
C128 C130 1.358 . S
C128 H169 0.930 . S
C129 C127 1.353 . S
C129 N131 1.314 . S
C129 H170 0.930 . S
C130 C128 1.358 . S
C130 N131 1.279 . S
C130 H171 0.930 . S
N131 C129 1.314 . S
N131 C130 1.279 . S
C132 C134 1.353 . S
C132 N135 1.314 . S
C132 H138 0.930 . S
C133 N135 1.279 . S
C133 C136 1.358 . S
C133 H139 0.930 . S
C134 C132 1.353 . S
C134 C137 1.348 . S
C134 H172 0.929 . S
N135 Li90 1.990 . S
N135 C132 1.314 . S
N135 C133 1.279 . S
C136 C133 1.358 . S
C136 C137 1.356 . S
C136 H173 0.930 . S
C137 C134 1.348 . S
C137 C136 1.356 . S
H138 C132 0.930 . S
H139 C133 0.930 . S
C140 N141 1.314 . S
C140 C142 1.353 . S
C140 H146 0.930 . S
N141 Li91 1.990 . S
N141 C140 1.314 . S
N141 C144 1.279 . S
C142 C140 1.353 . S
C142 C145 1.348 . S
C142 H174 0.929 . S
C143 C144 1.358 . S
C143 C145 1.356 . S
C143 H175 0.930 . S
C144 N141 1.279 . S
C144 C143 1.358 . S
C144 H147 0.930 . S
C145 C142 1.348 . S
C145 C143 1.356 . S
H146 C140 0.930 . S
H147 C144 0.930 . S
O148 Li88 1.956 . S
O148 Li89 1.970 . S
O148 Li90 1.961 . S
O148 C92 1.325 . S
O149 Li88 1.970 . S
O149 Li89 1.956 . S
O149 Li91 1.961 . S
O149 C98 1.325 . S
O150 Li88 1.961 . S
O150 Li90 1.956 . S
O150 Li91 1.970 . S
O150 C120 1.325 . S
O151 Li89 1.961 . S
O151 Li90 1.970 . S
O151 Li91 1.956 . S
O151 C126 1.325 . S
H152 C94 0.929 . S
H153 C95 0.930 . S
H154 C96 0.930 . S
H155 C97 0.930 . S
H156 C99 0.930 . S
H157 C101 0.929 . S
H158 C102 0.930 . S
H159 C103 0.930 . S
H160 C106 0.930 . S
H161 C109 0.929 . S
H162 C114 0.929 . S
H163 C115 0.930 . S
H164 C122 0.929 . S
H165 C123 0.930 . S
H166 C124 0.930 . S
H167 C125 0.930 . S
H168 C127 0.929 . S
H169 C128 0.930 . S
H170 C129 0.930 . S
H171 C130 0.930 . S
H172 C134 0.929 . S
H173 C136 0.930 . S
H174 C142 0.929 . S
H175 C143 0.930 . S
Li176 N193 1.990 . S
Li176 O236 1.956 . S
Li176 O237 1.970 . S
Li176 O238 1.961 . S
Li177 N201 1.990 . S
Li177 O236 1.970 . S
Li177 O237 1.956 . S
Li177 O239 1.961 . S
Li178 N223 1.990 . S
Li178 O236 1.961 . S
Li178 O238 1.956 . S
Li178 O239 1.970 . S
Li179 N229 1.990 . S
Li179 O237 1.961 . S
Li179 O238 1.970 . S
Li179 O239 1.956 . S
C180 C182 1.348 . S
C180 C183 1.356 . S
C180 O236 1.325 . S
N181 C184 1.314 . S
N181 C185 1.279 . S
C182 C180 1.348 . S
C182 C184 1.353 . S
C182 H240 0.929 . S
C183 C180 1.356 . S
C183 C185 1.358 . S
C183 H241 0.930 . S
C184 N181 1.314 . S
C184 C182 1.353 . S
C184 H242 0.930 . S
C185 N181 1.279 . S
C185 C183 1.358 . S
C185 H243 0.930 . S
C186 C189 1.348 . S
C186 C190 1.356 . S
C186 O237 1.325 . S
C187 N188 1.279 . S
C187 C190 1.358 . S
C187 H244 0.930 . S
N188 C187 1.279 . S
N188 C191 1.314 . S
C189 C186 1.348 . S
C189 C191 1.353 . S
C189 H245 0.929 . S
C190 C186 1.356 . S
C190 C187 1.358 . S
C190 H246 0.930 . S
C191 N188 1.314 . S
C191 C189 1.353 . S
C191 H247 0.930 . S
C192 N193 1.314 . S
C192 C197 1.353 . S
C192 H198 0.930 . S
N193 Li176 1.990 . S
N193 C192 1.314 . S
N193 C195 1.279 . S
C194 C195 1.358 . S
C194 C196 1.356 . S
C194 H248 0.930 . S
C195 N193 1.279 . S
C195 C194 1.358 . S
C195 H199 0.930 . S
C196 C194 1.356 . S
C196 C197 1.348 . S
C197 C192 1.353 . S
C197 C196 1.348 . S
C197 H249 0.929 . S
H198 C192 0.930 . S
H199 C195 0.930 . S
C200 N201 1.314 . S
C200 C202 1.353 . S
C200 H206 0.930 . S
N201 Li177 1.990 . S
N201 C200 1.314 . S
N201 C204 1.279 . S
C202 C200 1.353 . S
C202 C205 1.348 . S
C202 H250 0.929 . S
C203 C204 1.358 . S
C203 C205 1.356 . S
C203 H251 0.930 . S
C204 N201 1.279 . S
C204 C203 1.358 . S
C204 H207 0.930 . S
C205 C202 1.348 . S
C205 C203 1.356 . S
H206 C200 0.930 . S
H207 C204 0.930 . S
C208 C210 1.348 . S
C208 C211 1.356 . S
C208 O238 1.325 . S
N209 C212 1.314 . S
N209 C213 1.279 . S
C210 C208 1.348 . S
C210 C212 1.353 . S
C210 H252 0.929 . S
C211 C208 1.356 . S
C211 C213 1.358 . S
C211 H253 0.930 . S
C212 N209 1.314 . S
C212 C210 1.353 . S
C212 H254 0.930 . S
C213 N209 1.279 . S
C213 C211 1.358 . S
C213 H255 0.930 . S
C214 C215 1.348 . S
C214 C216 1.356 . S
C214 O239 1.325 . S
C215 C214 1.348 . S
C215 C217 1.353 . S
C215 H256 0.929 . S
C216 C214 1.356 . S
C216 C218 1.358 . S
C216 H257 0.930 . S
C217 C215 1.353 . S
C217 N219 1.314 . S
C217 H258 0.930 . S
C218 C216 1.358 . S
C218 N219 1.279 . S
C218 H259 0.930 . S
N219 C217 1.314 . S
N219 C218 1.279 . S
C220 C222 1.353 . S
C220 N223 1.314 . S
C220 H226 0.930 . S
C221 N223 1.279 . S
C221 C224 1.358 . S
C221 H227 0.930 . S
C222 C220 1.353 . S
C222 C225 1.348 . S
C222 H260 0.929 . S
N223 Li178 1.990 . S
N223 C220 1.314 . S
N223 C221 1.279 . S
C224 C221 1.358 . S
C224 C225 1.356 . S
C224 H261 0.930 . S
C225 C222 1.348 . S
C225 C224 1.356 . S
H226 C220 0.930 . S
H227 C221 0.930 . S
C228 N229 1.314 . S
C228 C230 1.353 . S
C228 H234 0.930 . S
N229 Li179 1.990 . S
N229 C228 1.314 . S
N229 C232 1.279 . S
C230 C228 1.353 . S
C230 C233 1.348 . S
C230 H262 0.929 . S
C231 C232 1.358 . S
C231 C233 1.356 . S
C231 H263 0.930 . S
C232 N229 1.279 . S
C232 C231 1.358 . S
C232 H235 0.930 . S
C233 C230 1.348 . S
C233 C231 1.356 . S
H234 C228 0.930 . S
H235 C232 0.930 . S
O236 Li176 1.956 . S
O236 Li177 1.970 . S
O236 Li178 1.961 . S
O236 C180 1.325 . S
O237 Li176 1.970 . S
O237 Li177 1.956 . S
O237 Li179 1.961 . S
O237 C186 1.325 . S
O238 Li176 1.961 . S
O238 Li178 1.956 . S
O238 Li179 1.970 . S
O238 C208 1.325 . S
O239 Li177 1.961 . S
O239 Li178 1.970 . S
O239 Li179 1.956 . S
O239 C214 1.325 . S
H240 C182 0.929 . S
H241 C183 0.930 . S
H242 C184 0.930 . S
H243 C185 0.930 . S
H244 C187 0.930 . S
H245 C189 0.929 . S
H246 C190 0.930 . S
H247 C191 0.930 . S
H248 C194 0.930 . S
H249 C197 0.929 . S
H250 C202 0.929 . S
H251 C203 0.930 . S
H252 C210 0.929 . S
H253 C211 0.930 . S
H254 C212 0.930 . S
H255 C213 0.930 . S
H256 C215 0.929 . S
H257 C216 0.930 . S
H258 C217 0.930 . S
H259 C218 0.930 . S
H260 C222 0.929 . S
H261 C224 0.930 . S
H262 C230 0.929 . S
H263 C231 0.930 . S
Li264 N281 1.990 . S
Li264 O324 1.956 . S
Li264 O325 1.970 . S
Li264 O326 1.961 . S
Li265 N289 1.990 . S
Li265 O324 1.970 . S
Li265 O325 1.956 . S
Li265 O327 1.961 . S
Li266 N311 1.990 . S
Li266 O324 1.961 . S
Li266 O326 1.956 . S
Li266 O327 1.970 . S
Li267 N317 1.990 . S
Li267 O325 1.961 . S
Li267 O326 1.970 . S
Li267 O327 1.956 . S
C268 C270 1.348 . S
C268 C271 1.356 . S
C268 O324 1.325 . S
N269 C272 1.314 . S
N269 C273 1.279 . S
C270 C268 1.348 . S
C270 C272 1.353 . S
C270 H328 0.929 . S
C271 C268 1.356 . S
C271 C273 1.358 . S
C271 H329 0.930 . S
C272 N269 1.314 . S
C272 C270 1.353 . S
C272 H330 0.930 . S
C273 N269 1.279 . S
C273 C271 1.358 . S
C273 H331 0.930 . S
C274 C277 1.348 . S
C274 C278 1.356 . S
C274 O325 1.325 . S
C275 N276 1.279 . S
C275 C278 1.358 . S
C275 H332 0.930 . S
N276 C275 1.279 . S
N276 C279 1.314 . S
C277 C274 1.348 . S
C277 C279 1.353 . S
C277 H333 0.929 . S
C278 C274 1.356 . S
C278 C275 1.358 . S
C278 H334 0.930 . S
C279 N276 1.314 . S
C279 C277 1.353 . S
C279 H335 0.930 . S
C280 N281 1.314 . S
C280 C285 1.353 . S
C280 H286 0.930 . S
N281 Li264 1.990 . S
N281 C280 1.314 . S
N281 C283 1.279 . S
C282 C283 1.358 . S
C282 C284 1.356 . S
C282 H336 0.930 . S
C283 N281 1.279 . S
C283 C282 1.358 . S
C283 H287 0.930 . S
C284 C282 1.356 . S
C284 C285 1.348 . S
C285 C280 1.353 . S
C285 C284 1.348 . S
C285 H337 0.929 . S
H286 C280 0.930 . S
H287 C283 0.930 . S
C288 N289 1.314 . S
C288 C290 1.353 . S
C288 H294 0.930 . S
N289 Li265 1.990 . S
N289 C288 1.314 . S
N289 C292 1.279 . S
C290 C288 1.353 . S
C290 C293 1.348 . S
C290 H338 0.929 . S
C291 C292 1.358 . S
C291 C293 1.356 . S
C291 H339 0.930 . S
C292 N289 1.279 . S
C292 C291 1.358 . S
C292 H295 0.930 . S
C293 C290 1.348 . S
C293 C291 1.356 . S
H294 C288 0.930 . S
H295 C292 0.930 . S
C296 C298 1.348 . S
C296 C299 1.356 . S
C296 O326 1.325 . S
N297 C300 1.314 . S
N297 C301 1.279 . S
C298 C296 1.348 . S
C298 C300 1.353 . S
C298 H340 0.929 . S
C299 C296 1.356 . S
C299 C301 1.358 . S
C299 H341 0.930 . S
C300 N297 1.314 . S
C300 C298 1.353 . S
C300 H342 0.930 . S
C301 N297 1.279 . S
C301 C299 1.358 . S
C301 H343 0.930 . S
C302 C303 1.348 . S
C302 C304 1.356 . S
C302 O327 1.325 . S
C303 C302 1.348 . S
C303 C305 1.353 . S
C303 H344 0.929 . S
C304 C302 1.356 . S
C304 C306 1.358 . S
C304 H345 0.930 . S
C305 C303 1.353 . S
C305 N307 1.314 . S
C305 H346 0.930 . S
C306 C304 1.358 . S
C306 N307 1.279 . S
C306 H347 0.930 . S
N307 C305 1.314 . S
N307 C306 1.279 . S
C308 C310 1.353 . S
C308 N311 1.314 . S
C308 H314 0.930 . S
C309 N311 1.279 . S
C309 C312 1.358 . S
C309 H315 0.930 . S
C310 C308 1.353 . S
C310 C313 1.348 . S
C310 H348 0.929 . S
N311 Li266 1.990 . S
N311 C308 1.314 . S
N311 C309 1.279 . S
C312 C309 1.358 . S
C312 C313 1.356 . S
C312 H349 0.930 . S
C313 C310 1.348 . S
C313 C312 1.356 . S
H314 C308 0.930 . S
H315 C309 0.930 . S
C316 N317 1.314 . S
C316 C318 1.353 . S
C316 H322 0.930 . S
N317 Li267 1.990 . S
N317 C316 1.314 . S
N317 C320 1.279 . S
C318 C316 1.353 . S
C318 C321 1.348 . S
C318 H350 0.929 . S
C319 C320 1.358 . S
C319 C321 1.356 . S
C319 H351 0.930 . S
C320 N317 1.279 . S
C320 C319 1.358 . S
C320 H323 0.930 . S
C321 C318 1.348 . S
C321 C319 1.356 . S
H322 C316 0.930 . S
H323 C320 0.930 . S
O324 Li264 1.956 . S
O324 Li265 1.970 . S
O324 Li266 1.961 . S
O324 C268 1.325 . S
O325 Li264 1.970 . S
O325 Li265 1.956 . S
O325 Li267 1.961 . S
O325 C274 1.325 . S
O326 Li264 1.961 . S
O326 Li266 1.956 . S
O326 Li267 1.970 . S
O326 C296 1.325 . S
O327 Li265 1.961 . S
O327 Li266 1.970 . S
O327 Li267 1.956 . S
O327 C302 1.325 . S
H328 C270 0.929 . S
H329 C271 0.930 . S
H330 C272 0.930 . S
H331 C273 0.930 . S
H332 C275 0.930 . S
H333 C277 0.929 . S
H334 C278 0.930 . S
H335 C279 0.930 . S
H336 C282 0.930 . S
H337 C285 0.929 . S
H338 C290 0.929 . S
H339 C291 0.930 . S
H340 C298 0.929 . S
H341 C299 0.930 . S
H342 C300 0.930 . S
H343 C301 0.930 . S
H344 C303 0.929 . S
H345 C304 0.930 . S
H346 C305 0.930 . S
H347 C306 0.930 . S
H348 C310 0.929 . S
H349 C312 0.930 . S
H350 C318 0.929 . S
H351 C319 0.930 . S
Li352 N369 1.990 . S
Li352 O412 1.956 . S
Li352 O413 1.970 . S
Li352 O414 1.961 . S
Li353 N377 1.990 . S
Li353 O412 1.970 . S
Li353 O413 1.956 . S
Li353 O415 1.961 . S
Li354 N399 1.990 . S
Li354 O412 1.961 . S
Li354 O414 1.956 . S
Li354 O415 1.970 . S
Li355 N405 1.990 . S
Li355 O413 1.961 . S
Li355 O414 1.970 . S
Li355 O415 1.956 . S
C356 C358 1.348 . S
C356 C359 1.356 . S
C356 O412 1.325 . S
N357 C360 1.314 . S
N357 C361 1.279 . S
C358 C356 1.348 . S
C358 C360 1.353 . S
C358 H416 0.929 . S
C359 C356 1.356 . S
C359 C361 1.358 . S
C359 H417 0.930 . S
C360 N357 1.314 . S
C360 C358 1.353 . S
C360 H418 0.930 . S
C361 N357 1.279 . S
C361 C359 1.358 . S
C361 H419 0.930 . S
C362 C365 1.348 . S
C362 C366 1.356 . S
C362 O413 1.325 . S
C363 N364 1.279 . S
C363 C366 1.358 . S
C363 H420 0.930 . S
N364 C363 1.279 . S
N364 C367 1.314 . S
C365 C362 1.348 . S
C365 C367 1.353 . S
C365 H421 0.929 . S
C366 C362 1.356 . S
C366 C363 1.358 . S
C366 H422 0.930 . S
C367 N364 1.314 . S
C367 C365 1.353 . S
C367 H423 0.930 . S
C368 N369 1.314 . S
C368 C373 1.353 . S
C368 H374 0.930 . S
N369 Li352 1.990 . S
N369 C368 1.314 . S
N369 C371 1.279 . S
C370 C371 1.358 . S
C370 C372 1.356 . S
C370 H424 0.930 . S
C371 N369 1.279 . S
C371 C370 1.358 . S
C371 H375 0.930 . S
C372 C370 1.356 . S
C372 C373 1.348 . S
C373 C368 1.353 . S
C373 C372 1.348 . S
C373 H425 0.929 . S
H374 C368 0.930 . S
H375 C371 0.930 . S
C376 N377 1.314 . S
C376 C378 1.353 . S
C376 H382 0.930 . S
N377 Li353 1.990 . S
N377 C376 1.314 . S
N377 C380 1.279 . S
C378 C376 1.353 . S
C378 C381 1.348 . S
C378 H426 0.929 . S
C379 C380 1.358 . S
C379 C381 1.356 . S
C379 H427 0.930 . S
C380 N377 1.279 . S
C380 C379 1.358 . S
C380 H383 0.930 . S
C381 C378 1.348 . S
C381 C379 1.356 . S
H382 C376 0.930 . S
H383 C380 0.930 . S
C384 C386 1.348 . S
C384 C387 1.356 . S
C384 O414 1.325 . S
N385 C388 1.314 . S
N385 C389 1.279 . S
C386 C384 1.348 . S
C386 C388 1.353 . S
C386 H428 0.929 . S
C387 C384 1.356 . S
C387 C389 1.358 . S
C387 H429 0.930 . S
C388 N385 1.314 . S
C388 C386 1.353 . S
C388 H430 0.930 . S
C389 N385 1.279 . S
C389 C387 1.358 . S
C389 H431 0.930 . S
C390 C391 1.348 . S
C390 C392 1.356 . S
C390 O415 1.325 . S
C391 C390 1.348 . S
C391 C393 1.353 . S
C391 H432 0.929 . S
C392 C390 1.356 . S
C392 C394 1.358 . S
C392 H433 0.930 . S
C393 C391 1.353 . S
C393 N395 1.314 . S
C393 H434 0.930 . S
C394 C392 1.358 . S
C394 N395 1.279 . S
C394 H435 0.930 . S
N395 C393 1.314 . S
N395 C394 1.279 . S
C396 C398 1.353 . S
C396 N399 1.314 . S
C396 H402 0.930 . S
C397 N399 1.279 . S
C397 C400 1.358 . S
C397 H403 0.930 . S
C398 C396 1.353 . S
C398 C401 1.348 . S
C398 H436 0.929 . S
N399 Li354 1.990 . S
N399 C396 1.314 . S
N399 C397 1.279 . S
C400 C397 1.358 . S
C400 C401 1.356 . S
C400 H437 0.930 . S
C401 C398 1.348 . S
C401 C400 1.356 . S
H402 C396 0.930 . S
H403 C397 0.930 . S
C404 N405 1.314 . S
C404 C406 1.353 . S
C404 H410 0.930 . S
N405 Li355 1.990 . S
N405 C404 1.314 . S
N405 C408 1.279 . S
C406 C404 1.353 . S
C406 C409 1.348 . S
C406 H438 0.929 . S
C407 C408 1.358 . S
C407 C409 1.356 . S
C407 H439 0.930 . S
C408 N405 1.279 . S
C408 C407 1.358 . S
C408 H411 0.930 . S
C409 C406 1.348 . S
C409 C407 1.356 . S
H410 C404 0.930 . S
H411 C408 0.930 . S
O412 Li352 1.956 . S
O412 Li353 1.970 . S
O412 Li354 1.961 . S
O412 C356 1.325 . S
O413 Li352 1.970 . S
O413 Li353 1.956 . S
O413 Li355 1.961 . S
O413 C362 1.325 . S
O414 Li352 1.961 . S
O414 Li354 1.956 . S
O414 Li355 1.970 . S
O414 C384 1.325 . S
O415 Li353 1.961 . S
O415 Li354 1.970 . S
O415 Li355 1.956 . S
O415 C390 1.325 . S
H416 C358 0.929 . S
H417 C359 0.930 . S
H418 C360 0.930 . S
H419 C361 0.930 . S
H420 C363 0.930 . S
H421 C365 0.929 . S
H422 C366 0.930 . S
H423 C367 0.930 . S
H424 C370 0.930 . S
H425 C373 0.929 . S
H426 C378 0.929 . S
H427 C379 0.930 . S
H428 C386 0.929 . S
H429 C387 0.930 . S
H430 C388 0.930 . S
H431 C389 0.930 . S
H432 C391 0.929 . S
H433 C392 0.930 . S
H434 C393 0.930 . S
H435 C394 0.930 . S
H436 C398 0.929 . S
H437 C400 0.930 . S
H438 C406 0.929 . S
H439 C407 0.930 . S
Li440 N457 1.990 . S
Li440 O500 1.956 . S
Li440 O501 1.970 . S
Li440 O502 1.961 . S
Li441 N465 1.990 . S
Li441 O500 1.970 . S
Li441 O501 1.956 . S
Li441 O503 1.961 . S
Li442 N487 1.990 . S
Li442 O500 1.961 . S
Li442 O502 1.956 . S
Li442 O503 1.970 . S
Li443 N493 1.990 . S
Li443 O501 1.961 . S
Li443 O502 1.970 . S
Li443 O503 1.956 . S
C444 C446 1.348 . S
C444 C447 1.356 . S
C444 O500 1.325 . S
N445 C448 1.314 . S
N445 C449 1.279 . S
C446 C444 1.348 . S
C446 C448 1.353 . S
C446 H504 0.929 . S
C447 C444 1.356 . S
C447 C449 1.358 . S
C447 H505 0.930 . S
C448 N445 1.314 . S
C448 C446 1.353 . S
C448 H506 0.930 . S
C449 N445 1.279 . S
C449 C447 1.358 . S
C449 H507 0.930 . S
C450 C453 1.348 . S
C450 C454 1.356 . S
C450 O501 1.325 . S
C451 N452 1.279 . S
C451 C454 1.358 . S
C451 H508 0.930 . S
N452 C451 1.279 . S
N452 C455 1.314 . S
C453 C450 1.348 . S
C453 C455 1.353 . S
C453 H509 0.929 . S
C454 C450 1.356 . S
C454 C451 1.358 . S
C454 H510 0.930 . S
C455 N452 1.314 . S
C455 C453 1.353 . S
C455 H511 0.930 . S
C456 N457 1.314 . S
C456 C461 1.353 . S
C456 H462 0.930 . S
N457 Li440 1.990 . S
N457 C456 1.314 . S
N457 C459 1.279 . S
C458 C459 1.358 . S
C458 C460 1.356 . S
C458 H512 0.930 . S
C459 N457 1.279 . S
C459 C458 1.358 . S
C459 H463 0.930 . S
C460 C458 1.356 . S
C460 C461 1.348 . S
C461 C456 1.353 . S
C461 C460 1.348 . S
C461 H513 0.929 . S
H462 C456 0.930 . S
H463 C459 0.930 . S
C464 N465 1.314 . S
C464 C466 1.353 . S
C464 H470 0.930 . S
N465 Li441 1.990 . S
N465 C464 1.314 . S
N465 C468 1.279 . S
C466 C464 1.353 . S
C466 C469 1.348 . S
C466 H514 0.929 . S
C467 C468 1.358 . S
C467 C469 1.356 . S
C467 H515 0.930 . S
C468 N465 1.279 . S
C468 C467 1.358 . S
C468 H471 0.930 . S
C469 C466 1.348 . S
C469 C467 1.356 . S
H470 C464 0.930 . S
H471 C468 0.930 . S
C472 C474 1.348 . S
C472 C475 1.356 . S
C472 O502 1.325 . S
N473 C476 1.314 . S
N473 C477 1.279 . S
C474 C472 1.348 . S
C474 C476 1.353 . S
C474 H516 0.929 . S
C475 C472 1.356 . S
C475 C477 1.358 . S
C475 H517 0.930 . S
C476 N473 1.314 . S
C476 C474 1.353 . S
C476 H518 0.930 . S
C477 N473 1.279 . S
C477 C475 1.358 . S
C477 H519 0.930 . S
C478 C479 1.348 . S
C478 C480 1.356 . S
C478 O503 1.325 . S
C479 C478 1.348 . S
C479 C481 1.353 1_556 S
C479 H520 0.932 . S
C480 C478 1.356 . S
C480 C482 1.358 . S
C480 H521 0.930 . S
C481 C479 1.353 1_554 S
C481 N483 1.314 . S
C481 H522 0.930 . S
C482 C480 1.358 . S
C482 N483 1.279 1_556 S
C482 H523 0.930 . S
N483 C481 1.314 . S
N483 C482 1.279 1_554 S
C484 C486 1.353 1_556 S
C484 N487 1.314 . S
C484 H490 0.930 . S
C485 N487 1.279 . S
C485 C488 1.358 1_556 S
C485 H491 0.930 . S
C486 C484 1.353 1_554 S
C486 C489 1.348 . S
C486 H524 0.929 . S
N487 Li442 1.990 . S
N487 C484 1.314 . S
N487 C485 1.279 . S
C488 C485 1.358 1_554 S
C488 C489 1.356 . S
C488 H525 0.930 . S
C489 C486 1.348 . S
C489 C488 1.356 . S
H490 C484 0.930 . S
H491 C485 0.930 . S
C492 N493 1.314 . S
C492 C494 1.353 . S
C492 H498 0.930 . S
N493 Li443 1.990 . S
N493 C492 1.314 . S
N493 C496 1.279 . S
C494 C492 1.353 . S
C494 C497 1.348 . S
C494 H526 0.929 . S
C495 C496 1.358 . S
C495 C497 1.356 . S
C495 H527 0.930 . S
C496 N493 1.279 . S
C496 C495 1.358 . S
C496 H499 0.930 . S
C497 C494 1.348 . S
C497 C495 1.356 . S
H498 C492 0.930 . S
H499 C496 0.930 . S
O500 Li440 1.956 . S
O500 Li441 1.970 . S
O500 Li442 1.961 . S
O500 C444 1.325 . S
O501 Li440 1.970 . S
O501 Li441 1.956 . S
O501 Li443 1.961 . S
O501 C450 1.325 . S
O502 Li440 1.961 . S
O502 Li442 1.956 . S
O502 Li443 1.970 . S
O502 C472 1.325 . S
O503 Li441 1.961 . S
O503 Li442 1.970 . S
O503 Li443 1.956 . S
O503 C478 1.325 . S
H504 C446 0.929 . S
H505 C447 0.930 . S
H506 C448 0.930 . S
H507 C449 0.930 . S
H508 C451 0.930 . S
H509 C453 0.929 . S
H510 C454 0.930 . S
H511 C455 0.930 . S
H512 C458 0.930 . S
H513 C461 0.929 . S
H514 C466 0.929 . S
H515 C467 0.930 . S
H516 C474 0.929 . S
H517 C475 0.930 . S
H518 C476 0.930 . S
H519 C477 0.930 . S
H520 C479 0.932 . S
H521 C480 0.930 . S
H522 C481 0.930 . S
H523 C482 0.930 . S
H524 C486 0.929 . S
H525 C488 0.930 . S
H526 C494 0.929 . S
H527 C495 0.930 . S
Li528 N545 1.990 . S
Li528 O588 1.956 . S
Li528 O589 1.970 . S
Li528 O590 1.961 . S
Li529 N553 1.990 . S
Li529 O588 1.970 . S
Li529 O589 1.956 . S
Li529 O591 1.961 . S
Li530 N575 1.990 . S
Li530 O588 1.961 . S
Li530 O590 1.956 . S
Li530 O591 1.970 . S
Li531 N581 1.990 . S
Li531 O589 1.961 . S
Li531 O590 1.970 . S
Li531 O591 1.956 . S
C532 C534 1.348 . S
C532 C535 1.356 . S
C532 O588 1.325 . S
N533 C536 1.316 . S
N533 C537 1.252 1_554 S
C534 C532 1.348 . S
C534 C536 1.353 1_556 S
C534 H592 0.929 . S
C535 C532 1.356 . S
C535 C537 1.358 . S
C535 H593 0.930 . S
C536 N533 1.316 . S
C536 C534 1.353 1_554 S
C536 H594 0.930 . S
C537 N533 1.252 1_556 S
C537 C535 1.358 . S
C537 H595 0.930 . S
C538 C541 1.348 . S
C538 C542 1.356 . S
C538 O589 1.325 . S
C539 N540 1.279 . S
C539 C542 1.358 . S
C539 H596 0.930 . S
N540 C539 1.279 . S
N540 C543 1.314 . S
C541 C538 1.348 . S
C541 C543 1.353 . S
C541 H597 0.929 . S
C542 C538 1.356 . S
C542 C539 1.358 . S
C542 H598 0.930 . S
C543 N540 1.314 . S
C543 C541 1.353 . S
C543 H599 0.930 . S
C544 N545 1.314 . S
C544 C549 1.353 . S
C544 H550 0.930 . S
N545 Li528 1.990 . S
N545 C544 1.314 . S
N545 C547 1.279 . S
C546 C547 1.358 . S
C546 C548 1.356 . S
C546 H600 0.930 . S
C547 N545 1.279 . S
C547 C546 1.358 . S
C547 H551 0.930 . S
C548 C546 1.356 . S
C548 C549 1.348 . S
C549 C544 1.353 . S
C549 C548 1.348 . S
C549 H601 0.929 . S
H550 C544 0.930 . S
H551 C547 0.930 . S
C552 N553 1.314 . S
C552 C554 1.353 1_556 S
C552 H558 0.930 . S
N553 Li529 1.990 . S
N553 C552 1.314 . S
N553 C556 1.279 . S
C554 C552 1.353 1_554 S
C554 C557 1.348 . S
C554 H602 0.929 . S
C555 C556 1.358 1_554 S
C555 C557 1.356 . S
C555 H603 0.930 . S
C556 N553 1.279 . S
C556 C555 1.358 1_556 S
C556 H559 0.930 . S
C557 C554 1.348 . S
C557 C555 1.356 . S
H558 C552 0.930 . S
H559 C556 0.930 . S
C560 C562 1.348 . S
C560 C563 1.356 . S
C560 O590 1.325 . S
N561 C564 1.314 . S
N561 C565 1.279 . S
C562 C560 1.348 . S
C562 C564 1.353 . S
C562 H604 0.929 . S
C563 C560 1.356 . S
C563 C565 1.358 . S
C563 H605 0.930 . S
C564 N561 1.314 . S
C564 C562 1.353 . S
C564 H606 0.930 . S
C565 N561 1.279 . S
C565 C563 1.358 . S
C565 H607 0.930 . S
C566 C567 1.348 . S
C566 C568 1.356 . S
C566 O591 1.325 . S
C567 C566 1.348 . S
C567 C569 1.353 . S
C567 H608 0.929 . S
C568 C566 1.356 . S
C568 C570 1.358 . S
C568 H609 0.930 . S
C569 C567 1.353 . S
C569 N571 1.314 . S
C569 H610 0.930 . S
C570 C568 1.358 . S
C570 N571 1.279 . S
C570 H611 0.930 . S
N571 C569 1.314 . S
N571 C570 1.279 . S
C572 C574 1.353 . S
C572 N575 1.314 . S
C572 H578 0.930 . S
C573 N575 1.279 . S
C573 C576 1.358 . S
C573 H579 0.930 . S
C574 C572 1.353 . S
C574 C577 1.348 . S
C574 H612 0.929 . S
N575 Li530 1.990 . S
N575 C572 1.314 . S
N575 C573 1.279 . S
C576 C573 1.358 . S
C576 C577 1.356 . S
C576 H613 0.930 . S
C577 C574 1.348 . S
C577 C576 1.356 . S
H578 C572 0.930 . S
H579 C573 0.930 . S
C580 N581 1.314 . S
C580 C582 1.353 . S
C580 H586 0.930 . S
N581 Li531 1.990 . S
N581 C580 1.314 . S
N581 C584 1.279 . S
C582 C580 1.353 . S
C582 C585 1.348 . S
C582 H614 0.929 . S
C583 C584 1.358 . S
C583 C585 1.356 . S
C583 H615 0.930 . S
C584 N581 1.279 . S
C584 C583 1.358 . S
C584 H587 0.930 . S
C585 C582 1.348 . S
C585 C583 1.356 . S
H586 C580 0.930 . S
H587 C584 0.930 . S
O588 Li528 1.956 . S
O588 Li529 1.970 . S
O588 Li530 1.961 . S
O588 C532 1.325 . S
O589 Li528 1.970 . S
O589 Li529 1.956 . S
O589 Li531 1.961 . S
O589 C538 1.325 . S
O590 Li528 1.961 . S
O590 Li530 1.956 . S
O590 Li531 1.970 . S
O590 C560 1.325 . S
O591 Li529 1.961 . S
O591 Li530 1.970 . S
O591 Li531 1.956 . S
O591 C566 1.325 . S
H592 C534 0.929 . S
H593 C535 0.930 . S
H594 C536 0.930 . S
H595 C537 0.930 . S
H596 C539 0.930 . S
H597 C541 0.929 . S
H598 C542 0.930 . S
H599 C543 0.930 . S
H600 C546 0.930 . S
H601 C549 0.929 . S
H602 C554 0.929 . S
H603 C555 0.930 . S
H604 C562 0.929 . S
H605 C563 0.930 . S
H606 C564 0.930 . S
H607 C565 0.930 . S
H608 C567 0.929 . S
H609 C568 0.930 . S
H610 C569 0.930 . S
H611 C570 0.930 . S
H612 C574 0.929 . S
H613 C576 0.930 . S
H614 C582 0.929 . S
H615 C583 0.930 . S
Li616 N633 1.990 . S
Li616 O676 1.956 . S
Li616 O677 1.970 . S
Li616 O678 1.961 . S
Li617 N641 1.990 . S
Li617 O676 1.970 . S
Li617 O677 1.956 . S
Li617 O679 1.961 . S
Li618 N663 1.990 . S
Li618 O676 1.961 . S
Li618 O678 1.956 . S
Li618 O679 1.970 . S
Li619 N669 1.990 1_554 S
Li619 O677 1.961 . S
Li619 O678 1.970 . S
Li619 O679 1.956 . S
C620 C622 1.348 . S
C620 C623 1.356 . S
C620 O676 1.325 . S
N621 C624 1.314 . S
N621 C625 1.279 . S
C622 C620 1.348 . S
C622 C624 1.353 . S
C622 H680 0.929 . S
C623 C620 1.356 . S
C623 C625 1.358 . S
C623 H681 0.930 . S
C624 N621 1.314 . S
C624 C622 1.353 . S
C624 H682 0.930 . S
C625 N621 1.279 . S
C625 C623 1.358 . S
C625 H683 0.930 . S
C626 C629 1.348 . S
C626 C630 1.356 . S
C626 O677 1.325 . S
C627 N628 1.279 . S
C627 C630 1.358 . S
C627 H684 0.930 . S
N628 C627 1.279 . S
N628 C631 1.314 . S
C629 C626 1.348 . S
C629 C631 1.353 . S
C629 H685 0.929 . S
C630 C626 1.356 . S
C630 C627 1.358 . S
C630 H686 0.930 . S
C631 N628 1.314 . S
C631 C629 1.353 . S
C631 H687 0.930 . S
C632 N633 1.314 . S
C632 C637 1.353 . S
C632 H638 0.930 . S
N633 Li616 1.990 . S
N633 C632 1.314 . S
N633 C635 1.279 . S
C634 C635 1.358 . S
C634 C636 1.356 . S
C634 H688 0.930 . S
C635 N633 1.279 . S
C635 C634 1.358 . S
C635 H639 0.930 . S
C636 C634 1.356 . S
C636 C637 1.348 . S
C637 C632 1.353 . S
C637 C636 1.348 . S
C637 H689 0.929 . S
H638 C632 0.930 . S
H639 C635 0.930 . S
C640 N641 1.314 . S
C640 C642 1.353 . S
C640 H646 0.930 . S
N641 Li617 1.990 . S
N641 C640 1.314 . S
N641 C644 1.279 . S
C642 C640 1.353 . S
C642 C645 1.348 . S
C642 H690 0.929 . S
C643 C644 1.358 . S
C643 C645 1.356 . S
C643 H691 0.930 . S
C644 N641 1.279 . S
C644 C643 1.358 . S
C644 H647 0.930 . S
C645 C642 1.348 . S
C645 C643 1.356 . S
H646 C640 0.930 . S
H647 C644 0.930 . S
C648 C650 1.316 1_554 S
C648 C651 1.356 . S
C648 O678 1.355 . S
N649 C652 1.314 . S
N649 C653 1.279 . S
C650 C648 1.316 1_556 S
C650 C652 1.353 . S
C650 H692 0.929 . S
C651 C648 1.356 . S
C651 C653 1.344 1_554 S
C651 H693 0.944 . S
C652 N649 1.314 . S
C652 C650 1.353 . S
C652 H694 0.930 . S
C653 N649 1.279 . S
C653 C651 1.344 1_556 S
C653 H695 0.930 . S
C654 C655 1.348 . S
C654 C656 1.356 . S
C654 O679 1.325 . S
C655 C654 1.348 . S
C655 C657 1.353 . S
C655 H696 0.929 . S
C656 C654 1.356 . S
C656 C658 1.358 . S
C656 H697 0.930 . S
C657 C655 1.353 . S
C657 N659 1.314 . S
C657 H698 0.930 . S
C658 C656 1.358 . S
C658 N659 1.279 . S
C658 H699 0.930 . S
N659 C657 1.314 . S
N659 C658 1.279 . S
C660 C662 1.353 . S
C660 N663 1.314 . S
C660 H666 0.930 . S
C661 N663 1.279 . S
C661 C664 1.358 . S
C661 H667 0.930 . S
C662 C660 1.353 . S
C662 C665 1.348 . S
C662 H700 0.929 . S
N663 Li618 1.990 . S
N663 C660 1.314 . S
N663 C661 1.279 . S
C664 C661 1.358 . S
C664 C665 1.356 . S
C664 H701 0.930 . S
C665 C662 1.348 . S
C665 C664 1.356 . S
H666 C660 0.930 . S
H667 C661 0.930 . S
C668 N669 1.314 . S
C668 C670 1.353 . S
C668 H674 0.930 . S
N669 Li619 1.990 1_556 S
N669 C668 1.314 . S
N669 C672 1.279 . S
C670 C668 1.353 . S
C670 C673 1.348 . S
C670 H702 0.929 . S
C671 C672 1.358 . S
C671 C673 1.356 . S
C671 H703 0.930 . S
C672 N669 1.279 . S
C672 C671 1.358 . S
C672 H675 0.930 1_556 S
C673 C670 1.348 . S
C673 C671 1.356 . S
H674 C668 0.930 . S
H675 C672 0.930 1_554 S
O676 Li616 1.956 . S
O676 Li617 1.970 . S
O676 Li618 1.961 . S
O676 C620 1.325 . S
O677 Li616 1.970 . S
O677 Li617 1.956 . S
O677 Li619 1.961 . S
O677 C626 1.325 . S
O678 Li616 1.961 . S
O678 Li618 1.956 . S
O678 Li619 1.970 . S
O678 C648 1.355 . S
O679 Li617 1.961 . S
O679 Li618 1.970 . S
O679 Li619 1.956 . S
O679 C654 1.325 . S
H680 C622 0.929 . S
H681 C623 0.930 . S
H682 C624 0.930 . S
H683 C625 0.930 . S
H684 C627 0.930 . S
H685 C629 0.929 . S
H686 C630 0.930 . S
H687 C631 0.930 . S
H688 C634 0.930 . S
H689 C637 0.929 . S
H690 C642 0.929 . S
H691 C643 0.930 . S
H692 C650 0.929 . S
H693 C651 0.944 . S
H694 C652 0.930 . S
H695 C653 0.930 . S
H696 C655 0.929 . S
H697 C656 0.930 . S
H698 C657 0.930 . S
H699 C658 0.930 . S
H700 C662 0.929 . S
H701 C664 0.930 . S
H702 C670 0.929 . S
H703 C671 0.930 . S
Li704 N721 1.990 . S
Li704 O764 1.956 . S
Li704 O765 1.970 . S
Li704 O766 1.961 . S
Li705 N729 1.990 . S
Li705 O764 1.970 . S
Li705 O765 1.956 . S
Li705 O767 1.961 . S
Li706 N751 1.990 . S
Li706 O764 1.961 . S
Li706 O766 1.956 . S
Li706 O767 1.970 . S
Li707 N757 1.990 . S
Li707 O765 1.961 . S
Li707 O766 1.970 . S
Li707 O767 1.956 . S
C708 C710 1.348 . S
C708 C711 1.356 . S
C708 O764 1.325 . S
N709 C712 1.314 . S
N709 C713 1.279 . S
C710 C708 1.348 . S
C710 C712 1.353 . S
C710 H768 0.929 . S
C711 C708 1.356 . S
C711 C713 1.358 . S
C711 H769 0.930 . S
C712 N709 1.314 . S
C712 C710 1.353 . S
C712 H770 0.930 . S
C713 N709 1.279 . S
C713 C711 1.358 . S
C713 H771 0.930 . S
C714 C717 1.348 . S
C714 C718 1.356 . S
C714 O765 1.325 . S
C715 N716 1.279 . S
C715 C718 1.358 . S
C715 H772 0.930 . S
N716 C715 1.279 . S
N716 C719 1.314 . S
C717 C714 1.348 . S
C717 C719 1.353 . S
C717 H773 0.929 . S
C718 C714 1.356 . S
C718 C715 1.358 . S
C718 H774 0.930 . S
C719 N716 1.314 . S
C719 C717 1.353 . S
C719 H775 0.930 . S
C720 N721 1.314 . S
C720 C725 1.353 . S
C720 H726 0.930 . S
N721 Li704 1.990 . S
N721 C720 1.314 . S
N721 C723 1.279 . S
C722 C723 1.358 . S
C722 C724 1.356 . S
C722 H776 0.930 . S
C723 N721 1.279 . S
C723 C722 1.358 . S
C723 H727 0.930 . S
C724 C722 1.356 . S
C724 C725 1.348 . S
C725 C720 1.353 . S
C725 C724 1.348 . S
C725 H777 0.929 . S
H726 C720 0.930 . S
H727 C723 0.930 . S
C728 N729 1.314 . S
C728 C730 1.353 . S
C728 H734 0.930 . S
N729 Li705 1.990 . S
N729 C728 1.314 . S
N729 C732 1.279 . S
C730 C728 1.353 . S
C730 C733 1.348 . S
C730 H778 0.929 . S
C731 C732 1.358 . S
C731 C733 1.356 . S
C731 H779 0.930 . S
C732 N729 1.279 . S
C732 C731 1.358 . S
C732 H735 0.930 . S
C733 C730 1.348 . S
C733 C731 1.356 . S
H734 C728 0.930 . S
H735 C732 0.930 . S
C736 C738 1.348 . S
C736 C739 1.356 . S
C736 O766 1.325 . S
N737 C740 1.314 . S
N737 C741 1.279 . S
C738 C736 1.348 . S
C738 C740 1.353 . S
C738 H780 0.929 . S
C739 C736 1.356 . S
C739 C741 1.358 . S
C739 H781 0.930 . S
C740 N737 1.314 . S
C740 C738 1.353 . S
C740 H782 0.930 . S
C741 N737 1.279 . S
C741 C739 1.358 . S
C741 H783 0.930 . S
C742 C743 1.348 . S
C742 C744 1.356 . S
C742 O767 1.325 . S
C743 C742 1.348 . S
C743 C745 1.353 . S
C743 H784 0.929 . S
C744 C742 1.356 . S
C744 C746 1.358 . S
C744 H785 0.930 . S
C745 C743 1.353 . S
C745 N747 1.314 . S
C745 H786 0.930 . S
C746 C744 1.358 . S
C746 N747 1.279 . S
C746 H787 0.930 . S
N747 C745 1.314 . S
N747 C746 1.279 . S
C748 C750 1.353 . S
C748 N751 1.314 . S
C748 H754 0.930 . S
C749 N751 1.279 . S
C749 C752 1.358 . S
C749 H755 0.930 . S
C750 C748 1.353 . S
C750 C753 1.348 . S
C750 H788 0.929 . S
N751 Li706 1.990 . S
N751 C748 1.314 . S
N751 C749 1.279 . S
C752 C749 1.358 . S
C752 C753 1.356 . S
C752 H789 0.930 . S
C753 C750 1.348 . S
C753 C752 1.356 . S
H754 C748 0.930 . S
H755 C749 0.930 . S
C756 N757 1.314 . S
C756 C758 1.353 . S
C756 H762 0.930 . S
N757 Li707 1.990 . S
N757 C756 1.314 . S
N757 C760 1.279 . S
C758 C756 1.353 . S
C758 C761 1.348 . S
C758 H790 0.929 . S
C759 C760 1.358 . S
C759 C761 1.356 . S
C759 H791 0.930 . S
C760 N757 1.279 . S
C760 C759 1.358 . S
C760 H763 0.930 . S
C761 C758 1.348 . S
C761 C759 1.356 . S
H762 C756 0.930 . S
H763 C760 0.930 . S
O764 Li704 1.956 . S
O764 Li705 1.970 . S
O764 Li706 1.961 . S
O764 C708 1.325 . S
O765 Li704 1.970 . S
O765 Li705 1.956 . S
O765 Li707 1.961 . S
O765 C714 1.325 . S
O766 Li704 1.961 . S
O766 Li706 1.956 . S
O766 Li707 1.970 . S
O766 C736 1.325 . S
O767 Li705 1.961 . S
O767 Li706 1.970 . S
O767 Li707 1.956 . S
O767 C742 1.325 . S
H768 C710 0.929 . S
H769 C711 0.930 . S
H770 C712 0.930 . S
H771 C713 0.930 . S
H772 C715 0.930 . S
H773 C717 0.929 . S
H774 C718 0.930 . S
H775 C719 0.930 . S
H776 C722 0.930 . S
H777 C725 0.929 . S
H778 C730 0.929 . S
H779 C731 0.930 . S
H780 C738 0.929 . S
H781 C739 0.930 . S
H782 C740 0.930 . S
H783 C741 0.930 . S
H784 C743 0.929 . S
H785 C744 0.930 . S
H786 C745 0.930 . S
H787 C746 0.930 . S
H788 C750 0.929 . S
H789 C752 0.930 . S
H790 C758 0.929 . S
H791 C759 0.930 . S
Li792 N809 1.990 . S
Li792 O852 1.956 . S
Li792 O853 1.970 . S
Li792 O854 1.961 . S
Li793 N817 1.990 . S
Li793 O852 1.970 . S
Li793 O853 1.956 . S
Li793 O855 1.961 . S
Li794 N839 1.990 . S
Li794 O852 1.961 . S
Li794 O854 1.956 . S
Li794 O855 1.970 . S
Li795 N845 1.990 . S
Li795 O853 1.961 . S
Li795 O854 1.970 . S
Li795 O855 1.956 . S
C796 C798 1.348 . S
C796 C799 1.356 . S
C796 O852 1.325 . S
N797 C800 1.314 . S
N797 C801 1.279 . S
C798 C796 1.348 . S
C798 C800 1.353 . S
C798 H856 0.929 . S
C799 C796 1.356 . S
C799 C801 1.358 . S
C799 H857 0.930 . S
C800 N797 1.314 . S
C800 C798 1.353 . S
C800 H858 0.930 . S
C801 N797 1.279 . S
C801 C799 1.358 . S
C801 H859 0.930 . S
C802 C805 1.348 . S
C802 C806 1.356 . S
C802 O853 1.325 . S
C803 N804 1.279 . S
C803 C806 1.358 . S
C803 H860 0.930 . S
N804 C803 1.279 . S
N804 C807 1.314 . S
C805 C802 1.348 . S
C805 C807 1.353 . S
C805 H861 0.929 . S
C806 C802 1.356 . S
C806 C803 1.358 . S
C806 H862 0.930 . S
C807 N804 1.314 . S
C807 C805 1.353 . S
C807 H863 0.930 . S
C808 N809 1.314 . S
C808 C813 1.353 . S
C808 H814 0.930 . S
N809 Li792 1.990 . S
N809 C808 1.314 . S
N809 C811 1.279 . S
C810 C811 1.358 . S
C810 C812 1.356 . S
C810 H864 0.930 . S
C811 N809 1.279 . S
C811 C810 1.358 . S
C811 H815 0.930 . S
C812 C810 1.356 . S
C812 C813 1.348 . S
C813 C808 1.353 . S
C813 C812 1.348 . S
C813 H865 0.929 . S
H814 C808 0.930 . S
H815 C811 0.930 . S
C816 N817 1.314 . S
C816 C818 1.353 . S
C816 H822 0.930 . S
N817 Li793 1.990 . S
N817 C816 1.314 . S
N817 C820 1.279 . S
C818 C816 1.353 . S
C818 C821 1.348 . S
C818 H866 0.929 . S
C819 C820 1.358 . S
C819 C821 1.356 . S
C819 H867 0.930 . S
C820 N817 1.279 . S
C820 C819 1.358 . S
C820 H823 0.930 . S
C821 C818 1.348 . S
C821 C819 1.356 . S
H822 C816 0.930 . S
H823 C820 0.930 . S
C824 C826 1.348 . S
C824 C827 1.356 . S
C824 O854 1.325 . S
N825 C828 1.314 . S
N825 C829 1.279 . S
C826 C824 1.348 . S
C826 C828 1.353 . S
C826 H868 0.929 . S
C827 C824 1.356 . S
C827 C829 1.358 . S
C827 H869 0.930 . S
C828 N825 1.314 . S
C828 C826 1.353 . S
C828 H870 0.930 . S
C829 N825 1.279 . S
C829 C827 1.358 . S
C829 H871 0.930 . S
C830 C831 1.348 . S
C830 C832 1.356 . S
C830 O855 1.325 . S
C831 C830 1.348 . S
C831 C833 1.353 . S
C831 H872 0.929 . S
C832 C830 1.356 . S
C832 C834 1.358 . S
C832 H873 0.930 . S
C833 C831 1.353 . S
C833 N835 1.314 . S
C833 H874 0.930 . S
C834 C832 1.358 . S
C834 N835 1.279 . S
C834 H875 0.930 . S
N835 C833 1.314 . S
N835 C834 1.279 . S
C836 C838 1.353 . S
C836 N839 1.314 . S
C836 H842 0.930 . S
C837 N839 1.279 . S
C837 C840 1.358 . S
C837 H843 0.930 . S
C838 C836 1.353 . S
C838 C841 1.348 . S
C838 H876 0.929 . S
N839 Li794 1.990 . S
N839 C836 1.314 . S
N839 C837 1.279 . S
C840 C837 1.358 . S
C840 C841 1.356 . S
C840 H877 0.930 . S
C841 C838 1.348 . S
C841 C840 1.356 . S
H842 C836 0.930 . S
H843 C837 0.930 . S
C844 N845 1.314 . S
C844 C846 1.353 . S
C844 H850 0.930 . S
N845 Li795 1.990 . S
N845 C844 1.314 . S
N845 C848 1.279 . S
C846 C844 1.353 . S
C846 C849 1.348 . S
C846 H878 0.929 . S
C847 C848 1.358 . S
C847 C849 1.356 . S
C847 H879 0.930 . S
C848 N845 1.279 . S
C848 C847 1.358 . S
C848 H851 0.930 . S
C849 C846 1.348 . S
C849 C847 1.356 . S
H850 C844 0.930 . S
H851 C848 0.930 . S
O852 Li792 1.956 . S
O852 Li793 1.970 . S
O852 Li794 1.961 . S
O852 C796 1.325 . S
O853 Li792 1.970 . S
O853 Li793 1.956 . S
O853 Li795 1.961 . S
O853 C802 1.325 . S
O854 Li792 1.961 . S
O854 Li794 1.956 . S
O854 Li795 1.970 . S
O854 C824 1.325 . S
O855 Li793 1.961 . S
O855 Li794 1.970 . S
O855 Li795 1.956 . S
O855 C830 1.325 . S
H856 C798 0.929 . S
H857 C799 0.930 . S
H858 C800 0.930 . S
H859 C801 0.930 . S
H860 C803 0.930 . S
H861 C805 0.929 . S
H862 C806 0.930 . S
H863 C807 0.930 . S
H864 C810 0.930 . S
H865 C813 0.929 . S
H866 C818 0.929 . S
H867 C819 0.930 . S
H868 C826 0.929 . S
H869 C827 0.930 . S
H870 C828 0.930 . S
H871 C829 0.930 . S
H872 C831 0.929 . S
H873 C832 0.930 . S
H874 C833 0.930 . S
H875 C834 0.930 . S
H876 C838 0.929 . S
H877 C840 0.930 . S
H878 C846 0.929 . S
H879 C847 0.930 . S
Li880 N897 1.990 . S
Li880 O940 1.956 . S
Li880 O941 1.970 . S
Li880 O942 1.961 . S
Li881 N905 1.990 . S
Li881 O940 1.970 . S
Li881 O941 1.956 . S
Li881 O943 1.961 . S
Li882 N927 1.990 . S
Li882 O940 1.961 . S
Li882 O942 1.956 . S
Li882 O943 1.970 . S
Li883 N933 1.990 . S
Li883 O941 1.961 . S
Li883 O942 1.970 . S
Li883 O943 1.956 . S
C884 C886 1.348 . S
C884 C887 1.356 . S
C884 O940 1.325 . S
N885 C888 1.314 . S
N885 C889 1.279 . S
C886 C884 1.348 . S
C886 C888 1.353 . S
C886 H944 0.929 . S
C887 C884 1.356 . S
C887 C889 1.358 . S
C887 H945 0.930 . S
C888 N885 1.314 . S
C888 C886 1.353 . S
C888 H946 0.930 . S
C889 N885 1.279 . S
C889 C887 1.358 . S
C889 H947 0.930 . S
C890 C893 1.348 . S
C890 C894 1.356 . S
C890 O941 1.325 . S
C891 N892 1.279 . S
C891 C894 1.358 . S
C891 H948 0.930 . S
N892 C891 1.279 . S
N892 C895 1.314 . S
C893 C890 1.348 . S
C893 C895 1.353 . S
C893 H949 0.929 . S
C894 C890 1.356 . S
C894 C891 1.358 . S
C894 H950 0.930 . S
C895 N892 1.314 . S
C895 C893 1.353 . S
C895 H951 0.930 . S
C896 N897 1.314 . S
C896 C901 1.353 . S
C896 H902 0.930 . S
N897 Li880 1.990 . S
N897 C896 1.314 . S
N897 C899 1.279 . S
C898 C899 1.358 . S
C898 C900 1.356 . S
C898 H952 0.930 . S
C899 N897 1.279 . S
C899 C898 1.358 . S
C899 H903 0.930 . S
C900 C898 1.356 . S
C900 C901 1.348 . S
C901 C896 1.353 . S
C901 C900 1.348 . S
C901 H953 0.929 . S
H902 C896 0.930 . S
H903 C899 0.930 . S
C904 N905 1.314 . S
C904 C906 1.353 . S
C904 H910 0.930 . S
N905 Li881 1.990 . S
N905 C904 1.314 . S
N905 C908 1.279 . S
C906 C904 1.353 . S
C906 C909 1.348 . S
C906 H954 0.929 . S
C907 C908 1.358 . S
C907 C909 1.356 . S
C907 H955 0.930 . S
C908 N905 1.279 . S
C908 C907 1.358 . S
C908 H911 0.930 . S
C909 C906 1.348 . S
C909 C907 1.356 . S
H910 C904 0.930 . S
H911 C908 0.930 . S
C912 C914 1.348 . S
C912 C915 1.356 . S
C912 O942 1.325 . S
N913 C916 1.314 . S
N913 C917 1.279 . S
C914 C912 1.348 . S
C914 C916 1.353 . S
C914 H956 0.929 . S
C915 C912 1.356 . S
C915 C917 1.358 . S
C915 H957 0.930 . S
C916 N913 1.314 . S
C916 C914 1.353 . S
C916 H958 0.930 . S
C917 N913 1.279 . S
C917 C915 1.358 . S
C917 H959 0.930 . S
C918 C919 1.348 . S
C918 C920 1.356 . S
C918 O943 1.325 . S
C919 C918 1.348 . S
C919 C921 1.353 . S
C919 H960 0.929 . S
C920 C918 1.356 . S
C920 C922 1.358 . S
C920 H961 0.930 . S
C921 C919 1.353 . S
C921 N923 1.314 . S
C921 H962 0.930 . S
C922 C920 1.358 . S
C922 N923 1.279 . S
C922 H963 0.930 . S
N923 C921 1.314 . S
N923 C922 1.279 . S
C924 C926 1.353 . S
C924 N927 1.314 . S
C924 H930 0.930 . S
C925 N927 1.279 . S
C925 C928 1.358 . S
C925 H931 0.930 . S
C926 C924 1.353 . S
C926 C929 1.348 . S
C926 H964 0.929 . S
N927 Li882 1.990 . S
N927 C924 1.314 . S
N927 C925 1.279 . S
C928 C925 1.358 . S
C928 C929 1.356 . S
C928 H965 0.930 . S
C929 C926 1.348 . S
C929 C928 1.356 . S
H930 C924 0.930 . S
H931 C925 0.930 . S
C932 N933 1.314 . S
C932 C934 1.353 . S
C932 H938 0.930 . S
N933 Li883 1.990 . S
N933 C932 1.314 . S
N933 C936 1.279 . S
C934 C932 1.353 . S
C934 C937 1.348 . S
C934 H966 0.929 . S
C935 C936 1.358 . S
C935 C937 1.356 . S
C935 H967 0.930 . S
C936 N933 1.279 . S
C936 C935 1.358 . S
C936 H939 0.930 . S
C937 C934 1.348 . S
C937 C935 1.356 . S
H938 C932 0.930 . S
H939 C936 0.930 . S
O940 Li880 1.956 . S
O940 Li881 1.970 . S
O940 Li882 1.961 . S
O940 C884 1.325 . S
O941 Li880 1.970 . S
O941 Li881 1.956 . S
O941 Li883 1.961 . S
O941 C890 1.325 . S
O942 Li880 1.961 . S
O942 Li882 1.956 . S
O942 Li883 1.970 . S
O942 C912 1.325 . S
O943 Li881 1.961 . S
O943 Li882 1.970 . S
O943 Li883 1.956 . S
O943 C918 1.325 . S
H944 C886 0.929 . S
H945 C887 0.930 . S
H946 C888 0.930 . S
H947 C889 0.930 . S
H948 C891 0.930 . S
H949 C893 0.929 . S
H950 C894 0.930 . S
H951 C895 0.930 . S
H952 C898 0.930 . S
H953 C901 0.929 . S
H954 C906 0.929 . S
H955 C907 0.930 . S
H956 C914 0.929 . S
H957 C915 0.930 . S
H958 C916 0.930 . S
H959 C917 0.930 . S
H960 C919 0.929 . S
H961 C920 0.930 . S
H962 C921 0.930 . S
H963 C922 0.930 . S
H964 C926 0.929 . S
H965 C928 0.930 . S
H966 C934 0.929 . S
H967 C935 0.930 . S
Li968 N985 1.990 . S
Li968 O1028 1.956 . S
Li968 O1029 1.970 . S
Li968 O1030 1.961 . S
Li969 N993 1.990 . S
Li969 O1028 1.970 . S
Li969 O1029 1.956 . S
Li969 O1031 1.961 . S
Li970 N1015 1.990 . S
Li970 O1028 1.961 . S
Li970 O1030 1.956 . S
Li970 O1031 1.970 . S
Li971 N1021 1.990 . S
Li971 O1029 1.961 . S
Li971 O1030 1.970 . S
Li971 O1031 1.956 . S
C972 C974 1.348 . S
C972 C975 1.356 . S
C972 O1028 1.325 . S
N973 C976 1.314 . S
N973 C977 1.279 . S
C974 C972 1.348 . S
C974 C976 1.353 . S
C974 H1032 0.929 . S
C975 C972 1.356 . S
C975 C977 1.358 . S
C975 H1033 0.930 . S
C976 N973 1.314 . S
C976 C974 1.353 . S
C976 H1034 0.930 . S
C977 N973 1.279 . S
C977 C975 1.358 . S
C977 H1035 0.930 . S
C978 C981 1.348 . S
C978 C982 1.356 . S
C978 O1029 1.325 . S
C979 N980 1.279 . S
C979 C982 1.358 . S
C979 H1036 0.930 . S
N980 C979 1.279 . S
N980 C983 1.314 . S
C981 C978 1.348 . S
C981 C983 1.353 . S
C981 H1037 0.929 . S
C982 C978 1.356 . S
C982 C979 1.358 . S
C982 H1038 0.930 . S
C983 N980 1.314 . S
C983 C981 1.353 . S
C983 H1039 0.930 . S
C984 N985 1.314 . S
C984 C989 1.353 . S
C984 H990 0.930 . S
N985 Li968 1.990 . S
N985 C984 1.314 . S
N985 C987 1.279 . S
C986 C987 1.358 . S
C986 C988 1.356 . S
C986 H1040 0.930 . S
C987 N985 1.279 . S
C987 C986 1.358 . S
C987 H991 0.930 . S
C988 C986 1.356 . S
C988 C989 1.348 . S
C989 C984 1.353 . S
C989 C988 1.348 . S
C989 H1041 0.929 . S
H990 C984 0.930 . S
H991 C987 0.930 . S
C992 N993 1.314 . S
C992 C994 1.353 . S
C992 H998 0.930 . S
N993 Li969 1.990 . S
N993 C992 1.314 . S
N993 C996 1.279 . S
C994 C992 1.353 . S
C994 C997 1.348 . S
C994 H1042 0.929 . S
C995 C996 1.358 . S
C995 C997 1.356 . S
C995 H1043 0.930 . S
C996 N993 1.279 . S
C996 C995 1.358 . S
C996 H999 0.930 . S
C997 C994 1.348 . S
C997 C995 1.356 . S
H998 C992 0.930 . S
H999 C996 0.930 . S
C1000 C1002 1.348 . S
C1000 C1003 1.356 . S
C1000 O1030 1.325 . S
N1001 C1004 1.314 . S
N1001 C1005 1.279 . S
C1002 C1000 1.348 . S
C1002 C1004 1.353 . S
C1002 H1044 0.929 . S
C1003 C1000 1.356 . S
C1003 C1005 1.358 . S
C1003 H1045 0.930 . S
C1004 N1001 1.314 . S
C1004 C1002 1.353 . S
C1004 H1046 0.930 . S
C1005 N1001 1.279 . S
C1005 C1003 1.358 . S
C1005 H1047 0.930 . S
C1006 C1007 1.348 . S
C1006 C1008 1.356 . S
C1006 O1031 1.325 . S
C1007 C1006 1.348 . S
C1007 C1009 1.353 . S
C1007 H1048 0.929 . S
C1008 C1006 1.356 . S
C1008 C1010 1.358 . S
C1008 H1049 0.930 . S
C1009 C1007 1.353 . S
C1009 N1011 1.314 . S
C1009 H1050 0.930 . S
C1010 C1008 1.358 . S
C1010 N1011 1.279 . S
C1010 H1051 0.930 . S
N1011 C1009 1.314 . S
N1011 C1010 1.279 . S
C1012 C1014 1.353 . S
C1012 N1015 1.314 . S
C1012 H1018 0.930 . S
C1013 N1015 1.279 . S
C1013 C1016 1.358 . S
C1013 H1019 0.930 . S
C1014 C1012 1.353 . S
C1014 C1017 1.348 . S
C1014 H1052 0.929 . S
N1015 Li970 1.990 . S
N1015 C1012 1.314 . S
N1015 C1013 1.279 . S
C1016 C1013 1.358 . S
C1016 C1017 1.356 . S
C1016 H1053 0.930 . S
C1017 C1014 1.348 . S
C1017 C1016 1.356 . S
H1018 C1012 0.930 . S
H1019 C1013 0.930 . S
C1020 N1021 1.314 . S
C1020 C1022 1.353 . S
C1020 H1026 0.930 . S
N1021 Li971 1.990 . S
N1021 C1020 1.314 . S
N1021 C1024 1.279 . S
C1022 C1020 1.353 . S
C1022 C1025 1.348 . S
C1022 H1054 0.929 . S
C1023 C1024 1.358 . S
C1023 C1025 1.356 . S
C1023 H1055 0.930 . S
C1024 N1021 1.279 . S
C1024 C1023 1.358 . S
C1024 H1027 0.930 . S
C1025 C1022 1.348 . S
C1025 C1023 1.356 . S
H1026 C1020 0.930 . S
H1027 C1024 0.930 . S
O1028 Li968 1.956 . S
O1028 Li969 1.970 . S
O1028 Li970 1.961 . S
O1028 C972 1.325 . S
O1029 Li968 1.970 . S
O1029 Li969 1.956 . S
O1029 Li971 1.961 . S
O1029 C978 1.325 . S
O1030 Li968 1.961 . S
O1030 Li970 1.956 . S
O1030 Li971 1.970 . S
O1030 C1000 1.325 . S
O1031 Li969 1.961 . S
O1031 Li970 1.970 . S
O1031 Li971 1.956 . S
O1031 C1006 1.325 . S
H1032 C974 0.929 . S
H1033 C975 0.930 . S
H1034 C976 0.930 . S
H1035 C977 0.930 . S
H1036 C979 0.930 . S
H1037 C981 0.929 . S
H1038 C982 0.930 . S
H1039 C983 0.930 . S
H1040 C986 0.930 . S
H1041 C989 0.929 . S
H1042 C994 0.929 . S
H1043 C995 0.930 . S
H1044 C1002 0.929 . S
H1045 C1003 0.930 . S
H1046 C1004 0.930 . S
H1047 C1005 0.930 . S
H1048 C1007 0.929 . S
H1049 C1008 0.930 . S
H1050 C1009 0.930 . S
H1051 C1010 0.930 . S
H1052 C1014 0.929 . S
H1053 C1016 0.930 . S
H1054 C1022 0.929 . S
H1055 C1023 0.930 . S
C1056 C1057 1.349 . S
C1056 C1058 1.327 . S
C1056 H1081 0.950 . S
C1057 C1056 1.349 . S
C1057 C1073 1.349 . S
C1058 C1056 1.327 . S
C1058 C1077 1.429 . S
C1058 H1082 0.950 . S
C1059 C1076 1.574 . S
C1059 C1078 1.368 . S
C1059 H1083 0.949 . S
H1060 C1064 0.949 . S
C1061 C1062 1.349 . S
C1061 C1063 1.327 . S
C1061 H1084 0.950 . S
C1062 C1061 1.349 . S
C1062 C1074 1.349 . S
C1063 C1061 1.327 . S
C1063 C1079 1.429 . S
C1063 H1085 0.950 . S
C1064 H1060 0.949 . S
C1064 C1072 1.574 . S
C1064 C1080 1.368 . S
H1065 C1073 0.950 . S
H1066 C1071 0.950 . S
H1067 C1072 0.949 . S
H1068 C1074 0.950 . S
H1069 C1075 0.950 . S
H1070 C1076 0.949 . S
C1071 H1066 0.950 . S
C1071 C1073 1.327 . S
C1071 C1077 1.429 . S
C1072 C1064 1.574 . S
C1072 H1067 0.949 . S
C1072 C1078 1.368 . S
C1073 C1057 1.349 . S
C1073 H1065 0.950 . S
C1073 C1071 1.327 . S
C1074 C1062 1.349 . S
C1074 H1068 0.950 . S
C1074 C1075 1.327 . S
C1075 H1069 0.950 . S
C1075 C1074 1.327 . S
C1075 C1079 1.429 . S
C1076 C1059 1.574 . S
C1076 H1070 0.949 . S
C1076 C1080 1.368 . S
C1077 C1058 1.429 . S
C1077 C1071 1.429 . S
C1077 C1078 1.523 . S
C1078 C1059 1.368 . S
C1078 C1072 1.368 . S
C1078 C1077 1.523 . S
C1079 C1063 1.429 . S
C1079 C1075 1.429 . S
C1079 C1080 1.523 . S
C1080 C1064 1.368 . S
C1080 C1076 1.368 . S
C1080 C1079 1.523 . S
H1081 C1056 0.950 . S
H1082 C1058 0.950 . S
H1083 C1059 0.949 . S
H1084 C1061 0.950 . S
H1085 C1063 0.950 . S
C1086 C1087 1.349 . S
C1086 C1088 1.327 . S
C1086 H1111 0.950 . S
C1087 C1086 1.349 . S
C1087 C1103 1.349 . S
C1088 C1086 1.327 . S
C1088 C1107 1.429 . S
C1088 H1112 0.950 . S
C1089 C1106 1.574 . S
C1089 C1108 1.368 . S
C1089 H1113 0.949 . S
H1090 C1094 0.949 . S
C1091 C1092 1.349 . S
C1091 C1093 1.327 . S
C1091 H1114 0.950 . S
C1092 C1091 1.349 . S
C1092 C1104 1.349 . S
C1093 C1091 1.327 . S
C1093 C1109 1.429 . S
C1093 H1115 0.950 . S
C1094 H1090 0.949 . S
C1094 C1102 1.574 . S
C1094 C1110 1.368 . S
H1095 C1103 0.950 . S
H1096 C1101 0.950 . S
H1097 C1102 0.949 . S
H1098 C1104 0.950 . S
H1099 C1105 0.950 . S
H1100 C1106 0.949 . S
C1101 H1096 0.950 . S
C1101 C1103 1.327 . S
C1101 C1107 1.429 . S
C1102 C1094 1.574 . S
C1102 H1097 0.949 . S
C1102 C1108 1.368 . S
C1103 C1087 1.349 . S
C1103 H1095 0.950 . S
C1103 C1101 1.327 . S
C1104 C1092 1.349 . S
C1104 H1098 0.950 . S
C1104 C1105 1.327 . S
C1105 H1099 0.950 . S
C1105 C1104 1.327 . S
C1105 C1109 1.429 . S
C1106 C1089 1.574 . S
C1106 H1100 0.949 . S
C1106 C1110 1.368 . S
C1107 C1088 1.429 . S
C1107 C1101 1.429 . S
C1107 C1108 1.523 . S
C1108 C1089 1.368 . S
C1108 C1102 1.368 . S
C1108 C1107 1.523 . S
C1109 C1093 1.429 . S
C1109 C1105 1.429 . S
C1109 C1110 1.523 . S
C1110 C1094 1.368 . S
C1110 C1106 1.368 . S
C1110 C1109 1.523 . S
H1111 C1086 0.950 . S
H1112 C1088 0.950 . S
H1113 C1089 0.949 . S
H1114 C1091 0.950 . S
H1115 C1093 0.950 . S
C1116 C1117 1.349 . S
C1116 C1118 1.327 . S
C1116 H1141 0.950 . S
C1117 C1116 1.349 . S
C1117 C1133 1.349 . S
C1118 C1116 1.327 . S
C1118 C1137 1.429 . S
C1118 H1142 0.950 . S
C1119 C1136 1.574 . S
C1119 C1138 1.368 . S
C1119 H1143 0.949 . S
H1120 C1124 0.949 . S
C1121 C1122 1.349 . S
C1121 C1123 1.327 . S
C1121 H1144 0.950 . S
C1122 C1121 1.349 . S
C1122 C1134 1.349 . S
C1123 C1121 1.327 . S
C1123 C1139 1.429 . S
C1123 H1145 0.950 . S
C1124 H1120 0.949 . S
C1124 C1132 1.574 . S
C1124 C1140 1.368 . S
H1125 C1133 0.950 . S
H1126 C1131 0.950 . S
H1127 C1132 0.949 . S
H1128 C1134 0.950 . S
H1129 C1135 0.950 . S
H1130 C1136 0.949 . S
C1131 H1126 0.950 . S
C1131 C1133 1.327 . S
C1131 C1137 1.429 . S
C1132 C1124 1.574 . S
C1132 H1127 0.949 . S
C1132 C1138 1.368 . S
C1133 C1117 1.349 . S
C1133 H1125 0.950 . S
C1133 C1131 1.327 . S
C1134 C1122 1.349 . S
C1134 H1128 0.950 . S
C1134 C1135 1.327 . S
C1135 H1129 0.950 . S
C1135 C1134 1.327 . S
C1135 C1139 1.429 . S
C1136 C1119 1.574 . S
C1136 H1130 0.949 . S
C1136 C1140 1.368 . S
C1137 C1118 1.429 . S
C1137 C1131 1.429 . S
C1137 C1138 1.523 . S
C1138 C1119 1.368 . S
C1138 C1132 1.368 . S
C1138 C1137 1.523 . S
C1139 C1123 1.429 . S
C1139 C1135 1.429 . S
C1139 C1140 1.523 . S
C1140 C1124 1.368 . S
C1140 C1136 1.368 . S
C1140 C1139 1.523 . S
H1141 C1116 0.950 . S
H1142 C1118 0.950 . S
H1143 C1119 0.949 . S
H1144 C1121 0.950 . S
H1145 C1123 0.950 . S
C1146 C1147 1.349 . S
C1146 C1148 1.327 . S
C1146 H1171 0.950 . S
C1147 C1146 1.349 . S
C1147 C1163 1.349 . S
C1148 C1146 1.327 . S
C1148 C1167 1.429 . S
C1148 H1172 0.950 . S
C1149 C1166 1.574 . S
C1149 C1168 1.368 . S
C1149 H1173 0.949 . S
H1150 C1154 0.949 . S
C1151 C1152 1.349 . S
C1151 C1153 1.327 . S
C1151 H1174 0.950 . S
C1152 C1151 1.349 . S
C1152 C1164 1.349 . S
C1153 C1151 1.327 . S
C1153 C1169 1.429 . S
C1153 H1175 0.950 . S
C1154 H1150 0.949 . S
C1154 C1162 1.574 . S
C1154 C1170 1.368 . S
H1155 C1163 0.950 . S
H1156 C1161 0.950 . S
H1157 C1162 0.949 . S
H1158 C1164 0.950 . S
H1159 C1165 0.950 . S
H1160 C1166 0.949 . S
C1161 H1156 0.950 . S
C1161 C1163 1.327 . S
C1161 C1167 1.429 . S
C1162 C1154 1.574 . S
C1162 H1157 0.949 . S
C1162 C1168 1.368 . S
C1163 C1147 1.349 . S
C1163 H1155 0.950 . S
C1163 C1161 1.327 . S
C1164 C1152 1.349 . S
C1164 H1158 0.950 . S
C1164 C1165 1.327 . S
C1165 H1159 0.950 . S
C1165 C1164 1.327 . S
C1165 C1169 1.429 . S
C1166 C1149 1.574 . S
C1166 H1160 0.949 . S
C1166 C1170 1.368 . S
C1167 C1148 1.429 . S
C1167 C1161 1.429 . S
C1167 C1168 1.523 . S
C1168 C1149 1.368 . S
C1168 C1162 1.368 . S
C1168 C1167 1.523 . S
C1169 C1153 1.429 . S
C1169 C1165 1.429 . S
C1169 C1170 1.523 . S
C1170 C1154 1.368 . S
C1170 C1166 1.368 . S
C1170 C1169 1.523 . S
H1171 C1146 0.950 . S
H1172 C1148 0.950 . S
H1173 C1149 0.949 . S
H1174 C1151 0.950 . S
H1175 C1153 0.950 . S
C1176 C1177 1.349 . S
C1176 C1178 1.327 . S
C1176 H1201 0.950 . S
C1177 C1176 1.349 . S
C1177 C1193 1.349 . S
C1178 C1176 1.327 . S
C1178 C1197 1.429 . S
C1178 H1202 0.950 . S
C1179 C1196 1.574 . S
C1179 C1198 1.368 1_556 S
C1179 H1203 0.949 . S
H1180 C1184 0.949 . S
C1181 C1182 1.349 . S
C1181 C1183 1.327 . S
C1181 H1204 0.950 . S
C1182 C1181 1.349 . S
C1182 C1194 1.349 . S
C1183 C1181 1.327 . S
C1183 C1199 1.429 . S
C1183 H1205 0.950 . S
C1184 H1180 0.949 . S
C1184 C1192 1.574 1_556 S
C1184 C1200 1.368 . S
H1185 C1193 0.950 . S
H1186 C1191 0.950 . S
H1187 C1192 0.949 . S
H1188 C1194 0.950 . S
H1189 C1195 0.950 . S
H1190 C1196 0.949 . S
C1191 H1186 0.950 . S
C1191 C1193 1.327 . S
C1191 C1197 1.429 . S
C1192 C1184 1.574 1_554 S
C1192 H1187 0.949 . S
C1192 C1198 1.368 . S
C1193 C1177 1.349 . S
C1193 H1185 0.950 . S
C1193 C1191 1.327 . S
C1194 C1182 1.349 . S
C1194 H1188 0.950 . S
C1194 C1195 1.327 . S
C1195 H1189 0.950 . S
C1195 C1194 1.327 . S
C1195 C1199 1.429 . S
C1196 C1179 1.574 . S
C1196 H1190 0.949 . S
C1196 C1200 1.368 . S
C1197 C1178 1.429 . S
C1197 C1191 1.429 . S
C1197 C1198 1.523 . S
C1198 C1179 1.368 1_554 S
C1198 C1192 1.368 . S
C1198 C1197 1.523 . S
C1199 C1183 1.429 . S
C1199 C1195 1.429 . S
C1199 C1200 1.523 . S
C1200 C1184 1.368 . S
C1200 C1196 1.368 . S
C1200 C1199 1.523 . S
H1201 C1176 0.950 . S
H1202 C1178 0.950 . S
H1203 C1179 0.949 . S
H1204 C1181 0.950 . S
H1205 C1183 0.950 . S
C1206 C1207 1.349 . S
C1206 C1208 1.327 . S
C1206 H1231 0.950 . S
C1207 C1206 1.349 . S
C1207 C1223 1.349 . S
C1208 C1206 1.327 . S
C1208 C1227 1.429 . S
C1208 H1232 0.950 . S
C1209 C1226 1.574 . S
C1209 C1228 1.368 . S
C1209 H1233 0.949 . S
H1210 C1214 0.949 . S
C1211 C1212 1.349 . S
C1211 C1213 1.327 . S
C1211 H1234 0.950 . S
C1212 C1211 1.349 . S
C1212 C1224 1.349 . S
C1213 C1211 1.327 . S
C1213 C1229 1.429 . S
C1213 H1235 0.950 . S
C1214 H1210 0.949 . S
C1214 C1222 1.574 . S
C1214 C1230 1.368 . S
H1215 C1223 0.950 . S
H1216 C1221 0.950 . S
H1217 C1222 0.949 . S
H1218 C1224 0.950 . S
H1219 C1225 0.950 . S
H1220 C1226 0.949 . S
C1221 H1216 0.950 . S
C1221 C1223 1.327 . S
C1221 C1227 1.429 . S
C1222 C1214 1.574 . S
C1222 H1217 0.949 . S
C1222 C1228 1.368 . S
C1223 C1207 1.349 . S
C1223 H1215 0.950 . S
C1223 C1221 1.327 . S
C1224 C1212 1.349 . S
C1224 H1218 0.950 . S
C1224 C1225 1.327 . S
C1225 H1219 0.950 . S
C1225 C1224 1.327 . S
C1225 C1229 1.429 . S
C1226 C1209 1.574 . S
C1226 H1220 0.949 . S
C1226 C1230 1.368 . S
C1227 C1208 1.429 . S
C1227 C1221 1.429 . S
C1227 C1228 1.523 . S
C1228 C1209 1.368 . S
C1228 C1222 1.368 . S
C1228 C1227 1.523 . S
C1229 C1213 1.429 . S
C1229 C1225 1.429 . S
C1229 C1230 1.523 . S
C1230 C1214 1.368 . S
C1230 C1226 1.368 . S
C1230 C1229 1.523 . S
H1231 C1206 0.950 . S
H1232 C1208 0.950 . S
H1233 C1209 0.949 . S
H1234 C1211 0.950 . S
H1235 C1213 0.950 . S
C1236 C1237 1.349 . S
C1236 C1238 1.327 . S
C1236 H1261 0.950 . S
C1237 C1236 1.349 . S
C1237 C1253 1.349 . S
C1238 C1236 1.327 . S
C1238 C1257 1.429 . S
C1238 H1262 0.950 . S
C1239 C1256 1.574 . S
C1239 C1258 1.368 . S
C1239 H1263 0.949 . S
H1240 C1244 0.949 . S
C1241 C1242 1.349 . S
C1241 C1243 1.327 . S
C1241 H1264 0.950 . S
C1242 C1241 1.349 . S
C1242 C1254 1.349 . S
C1243 C1241 1.327 . S
C1243 C1259 1.429 . S
C1243 H1265 0.950 . S
C1244 H1240 0.949 . S
C1244 C1252 1.574 . S
C1244 C1260 1.368 . S
H1245 C1253 0.950 . S
H1246 C1251 0.950 . S
H1247 C1252 0.949 . S
H1248 C1254 0.950 . S
H1249 C1255 0.950 . S
H1250 C1256 0.949 . S
C1251 H1246 0.950 . S
C1251 C1253 1.327 . S
C1251 C1257 1.429 . S
C1252 C1244 1.574 . S
C1252 H1247 0.949 . S
C1252 C1258 1.368 . S
C1253 C1237 1.349 . S
C1253 H1245 0.950 . S
C1253 C1251 1.327 . S
C1254 C1242 1.349 . S
C1254 H1248 0.950 . S
C1254 C1255 1.327 . S
C1255 H1249 0.950 . S
C1255 C1254 1.327 . S
C1255 C1259 1.429 . S
C1256 C1239 1.574 . S
C1256 H1250 0.949 . S
C1256 C1260 1.368 . S
C1257 C1238 1.429 . S
C1257 C1251 1.429 . S
C1257 C1258 1.523 . S
C1258 C1239 1.368 . S
C1258 C1252 1.368 . S
C1258 C1257 1.523 . S
C1259 C1243 1.429 . S
C1259 C1255 1.429 . S
C1259 C1260 1.523 . S
C1260 C1244 1.368 . S
C1260 C1256 1.368 . S
C1260 C1259 1.523 . S
H1261 C1236 0.950 . S
H1262 C1238 0.950 . S
H1263 C1239 0.949 . S
H1264 C1241 0.950 . S
H1265 C1243 0.950 . S
C1266 C1267 1.349 . S
C1266 C1268 1.327 . S
C1266 H1291 0.950 . S
C1267 C1266 1.349 . S
C1267 C1283 1.349 . S
C1268 C1266 1.327 . S
C1268 C1287 1.429 . S
C1268 H1292 0.950 . S
C1269 C1286 1.574 . S
C1269 C1288 1.368 . S
C1269 H1293 0.949 . S
H1270 C1274 0.949 . S
C1271 C1272 1.349 . S
C1271 C1273 1.327 . S
C1271 H1294 0.950 . S
C1272 C1271 1.349 . S
C1272 C1284 1.349 . S
C1273 C1271 1.327 . S
C1273 C1289 1.429 . S
C1273 H1295 0.950 . S
C1274 H1270 0.949 . S
C1274 C1282 1.574 . S
C1274 C1290 1.368 . S
H1275 C1283 0.950 . S
H1276 C1281 0.950 . S
H1277 C1282 0.949 . S
H1278 C1284 0.950 . S
H1279 C1285 0.950 . S
H1280 C1286 0.949 . S
C1281 H1276 0.950 . S
C1281 C1283 1.327 . S
C1281 C1287 1.429 . S
C1282 C1274 1.574 . S
C1282 H1277 0.949 . S
C1282 C1288 1.368 . S
C1283 C1267 1.349 . S
C1283 H1275 0.950 . S
C1283 C1281 1.327 . S
C1284 C1272 1.349 . S
C1284 H1278 0.950 . S
C1284 C1285 1.327 . S
C1285 H1279 0.950 . S
C1285 C1284 1.327 . S
C1285 C1289 1.429 . S
C1286 C1269 1.574 . S
C1286 H1280 0.949 . S
C1286 C1290 1.368 . S
C1287 C1268 1.429 . S
C1287 C1281 1.429 . S
C1287 C1288 1.523 . S
C1288 C1269 1.368 . S
C1288 C1282 1.368 . S
C1288 C1287 1.523 . S
C1289 C1273 1.429 . S
C1289 C1285 1.429 . S
C1289 C1290 1.523 . S
C1290 C1274 1.368 . S
C1290 C1286 1.368 . S
C1290 C1289 1.523 . S
H1291 C1266 0.950 . S
H1292 C1268 0.950 . S
H1293 C1269 0.949 . S
H1294 C1271 0.950 . S
H1295 C1273 0.950 . S
C1296 C1297 1.349 . S
C1296 C1298 1.327 . S
C1296 H1321 0.950 . S
C1297 C1296 1.349 . S
C1297 C1313 1.349 . S
C1298 C1296 1.327 . S
C1298 C1317 1.429 . S
C1298 H1322 0.950 . S
C1299 C1316 1.574 . S
C1299 C1318 1.368 . S
C1299 H1323 0.949 . S
H1300 C1304 0.949 . S
C1301 C1302 1.349 . S
C1301 C1303 1.327 . S
C1301 H1324 0.950 . S
C1302 C1301 1.349 . S
C1302 C1314 1.349 . S
C1303 C1301 1.327 . S
C1303 C1319 1.429 . S
C1303 H1325 0.950 . S
C1304 H1300 0.949 . S
C1304 C1312 1.574 . S
C1304 C1320 1.368 . S
H1305 C1313 0.950 . S
H1306 C1311 0.950 . S
H1307 C1312 0.949 . S
H1308 C1314 0.950 . S
H1309 C1315 0.950 . S
H1310 C1316 0.949 . S
C1311 H1306 0.950 . S
C1311 C1313 1.327 . S
C1311 C1317 1.429 . S
C1312 C1304 1.574 . S
C1312 H1307 0.949 . S
C1312 C1318 1.368 . S
C1313 C1297 1.349 . S
C1313 H1305 0.950 . S
C1313 C1311 1.327 . S
C1314 C1302 1.349 . S
C1314 H1308 0.950 . S
C1314 C1315 1.327 . S
C1315 H1309 0.950 . S
C1315 C1314 1.327 . S
C1315 C1319 1.429 . S
C1316 C1299 1.574 . S
C1316 H1310 0.949 . S
C1316 C1320 1.368 . S
C1317 C1298 1.429 . S
C1317 C1311 1.429 . S
C1317 C1318 1.523 . S
C1318 C1299 1.368 . S
C1318 C1312 1.368 . S
C1318 C1317 1.523 . S
C1319 C1303 1.429 . S
C1319 C1315 1.429 . S
C1319 C1320 1.523 . S
C1320 C1304 1.368 . S
C1320 C1316 1.368 . S
C1320 C1319 1.523 . S
H1321 C1296 0.950 . S
H1322 C1298 0.950 . S
H1323 C1299 0.949 . S
H1324 C1301 0.950 . S
H1325 C1303 0.950 . S
C1326 C1327 1.349 . S
C1326 C1328 1.327 . S
C1326 H1351 0.950 . S
C1327 C1326 1.349 . S
C1327 C1343 1.349 . S
C1328 C1326 1.327 . S
C1328 C1347 1.429 . S
C1328 H1352 0.950 . S
C1329 C1346 1.574 . S
C1329 C1348 1.368 . S
C1329 H1353 0.949 . S
H1330 C1334 0.949 . S
C1331 C1332 1.349 . S
C1331 C1333 1.327 . S
C1331 H1354 0.950 . S
C1332 C1331 1.349 . S
C1332 C1344 1.349 . S
C1333 C1331 1.327 . S
C1333 C1349 1.429 . S
C1333 H1355 0.950 . S
C1334 H1330 0.949 . S
C1334 C1342 1.574 . S
C1334 C1350 1.368 . S
H1335 C1343 0.950 . S
H1336 C1341 0.950 . S
H1337 C1342 0.949 . S
H1338 C1344 0.950 . S
H1339 C1345 0.950 . S
H1340 C1346 0.949 . S
C1341 H1336 0.950 . S
C1341 C1343 1.327 . S
C1341 C1347 1.429 . S
C1342 C1334 1.574 . S
C1342 H1337 0.949 . S
C1342 C1348 1.368 . S
C1343 C1327 1.349 . S
C1343 H1335 0.950 . S
C1343 C1341 1.327 . S
C1344 C1332 1.349 . S
C1344 H1338 0.950 . S
C1344 C1345 1.327 . S
C1345 H1339 0.950 . S
C1345 C1344 1.327 . S
C1345 C1349 1.429 . S
C1346 C1329 1.574 . S
C1346 H1340 0.949 . S
C1346 C1350 1.368 . S
C1347 C1328 1.429 . S
C1347 C1341 1.429 . S
C1347 C1348 1.523 . S
C1348 C1329 1.368 . S
C1348 C1342 1.368 . S
C1348 C1347 1.523 . S
C1349 C1333 1.429 . S
C1349 C1345 1.429 . S
C1349 C1350 1.523 . S
C1350 C1334 1.368 . S
C1350 C1346 1.368 . S
C1350 C1349 1.523 . S
H1351 C1326 0.950 . S
H1352 C1328 0.950 . S
H1353 C1329 0.949 . S
H1354 C1331 0.950 . S
H1355 C1333 0.950 . S
C1356 C1357 1.349 . S
C1356 C1358 1.327 . S
C1356 H1381 0.950 . S
C1357 C1356 1.349 . S
C1357 C1373 1.349 . S
C1358 C1356 1.327 . S
C1358 C1377 1.429 . S
C1358 H1382 0.950 . S
C1359 C1376 1.574 . S
C1359 C1378 1.368 . S
C1359 H1383 0.949 . S
H1360 C1364 0.949 . S
C1361 C1362 1.349 . S
C1361 C1363 1.327 . S
C1361 H1384 0.950 . S
C1362 C1361 1.349 . S
C1362 C1374 1.349 . S
C1363 C1361 1.327 . S
C1363 C1379 1.429 . S
C1363 H1385 0.950 . S
C1364 H1360 0.949 . S
C1364 C1372 1.574 . S
C1364 C1380 1.368 . S
H1365 C1373 0.950 . S
H1366 C1371 0.950 . S
H1367 C1372 0.949 . S
H1368 C1374 0.950 . S
H1369 C1375 0.950 . S
H1370 C1376 0.949 . S
C1371 H1366 0.950 . S
C1371 C1373 1.327 . S
C1371 C1377 1.429 . S
C1372 C1364 1.574 . S
C1372 H1367 0.949 . S
C1372 C1378 1.368 . S
C1373 C1357 1.349 . S
C1373 H1365 0.950 . S
C1373 C1371 1.327 . S
C1374 C1362 1.349 . S
C1374 H1368 0.950 . S
C1374 C1375 1.327 . S
C1375 H1369 0.950 . S
C1375 C1374 1.327 . S
C1375 C1379 1.429 . S
C1376 C1359 1.574 . S
C1376 H1370 0.949 . S
C1376 C1380 1.368 . S
C1377 C1358 1.429 . S
C1377 C1371 1.429 . S
C1377 C1378 1.523 . S
C1378 C1359 1.368 . S
C1378 C1372 1.368 . S
C1378 C1377 1.523 . S
C1379 C1363 1.429 . S
C1379 C1375 1.429 . S
C1379 C1380 1.523 . S
C1380 C1364 1.368 . S
C1380 C1376 1.368 . S
C1380 C1379 1.523 . S
H1381 C1356 0.950 . S
H1382 C1358 0.950 . S
H1383 C1359 0.949 . S
H1384 C1361 0.950 . S
H1385 C1363 0.950 . S
C1386 C1387 1.349 . S
C1386 C1388 1.327 . S
C1386 H1411 0.950 . S
C1387 C1386 1.349 . S
C1387 C1403 1.349 . S
C1388 C1386 1.327 . S
C1388 C1407 1.429 . S
C1388 H1412 0.950 . S
C1389 C1406 1.574 . S
C1389 C1408 1.368 1_554 S
C1389 H1413 0.949 . S
H1390 C1394 0.949 . S
C1391 C1392 1.349 . S
C1391 C1393 1.327 . S
C1391 H1414 0.950 . S
C1392 C1391 1.349 . S
C1392 C1404 1.349 . S
C1393 C1391 1.327 . S
C1393 C1409 1.429 . S
C1393 H1415 0.950 . S
C1394 H1390 0.949 . S
C1394 C1402 1.574 . S
C1394 C1410 1.388 . S
H1395 C1403 0.950 . S
H1396 C1401 0.950 . S
H1397 C1402 0.949 . S
H1398 C1404 0.950 . S
H1399 C1405 0.971 . S
H1400 C1406 0.949 . S
C1401 H1396 0.950 . S
C1401 C1403 1.327 . S
C1401 C1407 1.429 . S
C1402 C1394 1.574 . S
C1402 H1397 0.949 . S
C1402 C1408 1.368 . S
C1403 C1387 1.349 . S
C1403 H1395 0.950 . S
C1403 C1401 1.327 . S
C1404 C1392 1.349 . S
C1404 H1398 0.950 . S
C1404 C1405 1.317 1_554 S
C1405 H1399 0.971 . S
C1405 C1404 1.317 1_556 S
C1405 C1409 1.418 1_556 S
C1406 C1389 1.574 . S
C1406 H1400 0.949 . S
C1406 C1410 1.356 1_554 S
C1407 C1388 1.429 . S
C1407 C1401 1.429 . S
C1407 C1408 1.523 . S
C1408 C1389 1.368 1_556 S
C1408 C1402 1.368 . S
C1408 C1407 1.523 . S
C1409 C1393 1.429 . S
C1409 C1405 1.418 1_554 S
C1409 C1410 1.514 1_554 S
C1410 C1394 1.388 . S
C1410 C1406 1.356 1_556 S
C1410 C1409 1.514 1_556 S
H1411 C1386 0.950 . S
H1412 C1388 0.950 . S
H1413 C1389 0.949 . S
H1414 C1391 0.950 . S
H1415 C1393 0.950 . S
C1416 C1417 1.349 . S
C1416 C1418 1.327 . S
C1416 H1441 0.950 . S
C1417 C1416 1.349 . S
C1417 C1433 1.349 . S
C1418 C1416 1.327 . S
C1418 C1437 1.429 . S
C1418 H1442 0.950 . S
C1419 C1436 1.574 . S
C1419 C1438 1.368 . S
C1419 H1443 0.949 . S
H1420 C1424 0.949 . S
C1421 C1422 1.349 . S
C1421 C1423 1.327 . S
C1421 H1444 0.950 . S
C1422 C1421 1.349 . S
C1422 C1434 1.349 . S
C1423 C1421 1.327 . S
C1423 C1439 1.429 . S
C1423 H1445 0.950 . S
C1424 H1420 0.949 . S
C1424 C1432 1.574 . S
C1424 C1440 1.368 . S
H1425 C1433 0.950 . S
H1426 C1431 0.950 . S
H1427 C1432 0.949 . S
H1428 C1434 0.950 . S
H1429 C1435 0.950 . S
H1430 C1436 0.949 . S
C1431 H1426 0.950 . S
C1431 C1433 1.327 . S
C1431 C1437 1.429 . S
C1432 C1424 1.574 . S
C1432 H1427 0.949 . S
C1432 C1438 1.368 . S
C1433 C1417 1.349 . S
C1433 H1425 0.950 . S
C1433 C1431 1.327 . S
C1434 C1422 1.349 . S
C1434 H1428 0.950 . S
C1434 C1435 1.327 . S
C1435 H1429 0.950 . S
C1435 C1434 1.327 . S
C1435 C1439 1.429 . S
C1436 C1419 1.574 . S
C1436 H1430 0.949 . S
C1436 C1440 1.368 . S
C1437 C1418 1.429 . S
C1437 C1431 1.429 . S
C1437 C1438 1.523 . S
C1438 C1419 1.368 . S
C1438 C1432 1.368 . S
C1438 C1437 1.523 . S
C1439 C1423 1.429 . S
C1439 C1435 1.429 . S
C1439 C1440 1.523 . S
C1440 C1424 1.368 . S
C1440 C1436 1.368 . S
C1440 C1439 1.523 . S
H1441 C1416 0.950 . S
H1442 C1418 0.950 . S
H1443 C1419 0.949 . S
H1444 C1421 0.950 . S
H1445 C1423 0.950 . S
C1446 C1447 1.349 . S
C1446 C1448 1.327 . S
C1446 H1471 0.950 . S
C1447 C1446 1.349 . S
C1447 C1463 1.349 . S
C1448 C1446 1.327 . S
C1448 C1467 1.429 . S
C1448 H1472 0.950 . S
C1449 C1466 1.574 1_556 S
C1449 C1468 1.368 . S
C1449 H1473 0.949 . S
H1450 C1454 0.949 . S
C1451 C1452 1.349 . S
C1451 C1453 1.327 . S
C1451 H1474 0.950 . S
C1452 C1451 1.349 . S
C1452 C1464 1.349 . S
C1453 C1451 1.327 . S
C1453 C1469 1.429 . S
C1453 H1475 0.950 . S
C1454 H1450 0.949 . S
C1454 C1462 1.574 . S
C1454 C1470 1.368 1_556 S
H1455 C1463 0.950 . S
H1456 C1461 0.950 . S
H1457 C1462 0.949 . S
H1458 C1464 0.950 . S
H1459 C1465 0.950 . S
H1460 C1466 0.949 . S
C1461 H1456 0.950 . S
C1461 C1463 1.327 . S
C1461 C1467 1.429 . S
C1462 C1454 1.574 . S
C1462 H1457 0.949 . S
C1462 C1468 1.368 . S
C1463 C1447 1.349 . S
C1463 H1455 0.950 . S
C1463 C1461 1.327 . S
C1464 C1452 1.349 . S
C1464 H1458 0.950 . S
C1464 C1465 1.327 . S
C1465 H1459 0.950 . S
C1465 C1464 1.327 . S
C1465 C1469 1.429 . S
C1466 C1449 1.574 1_554 S
C1466 H1460 0.949 . S
C1466 C1470 1.368 . S
C1467 C1448 1.429 . S
C1467 C1461 1.429 . S
C1467 C1468 1.523 . S
C1468 C1449 1.368 . S
C1468 C1462 1.368 . S
C1468 C1467 1.523 . S
C1469 C1453 1.429 . S
C1469 C1465 1.429 . S
C1469 C1470 1.523 . S
C1470 C1454 1.368 1_554 S
C1470 C1466 1.368 . S
C1470 C1469 1.523 . S
H1471 C1446 0.950 . S
H1472 C1448 0.950 . S
H1473 C1449 0.949 . S
H1474 C1451 0.950 . S
H1475 C1453 0.950 . S
C1476 C1477 1.349 . S
C1476 C1478 1.327 . S
C1476 H1501 0.950 . S
C1477 C1476 1.349 . S
C1477 C1493 1.349 . S
C1478 C1476 1.327 . S
C1478 C1497 1.429 . S
C1478 H1502 0.950 . S
C1479 C1496 1.574 . S
C1479 C1498 1.368 . S
C1479 H1503 0.949 . S
H1480 C1484 0.949 . S
C1481 C1482 1.349 . S
C1481 C1483 1.327 . S
C1481 H1504 0.950 . S
C1482 C1481 1.349 . S
C1482 C1494 1.349 . S
C1483 C1481 1.327 . S
C1483 C1499 1.429 . S
C1483 H1505 0.950 . S
C1484 H1480 0.949 . S
C1484 C1492 1.574 . S
C1484 C1500 1.368 . S
H1485 C1493 0.950 . S
H1486 C1491 0.950 . S
H1487 C1492 0.949 . S
H1488 C1494 0.950 . S
H1489 C1495 0.950 . S
H1490 C1496 0.949 . S
C1491 H1486 0.950 . S
C1491 C1493 1.327 . S
C1491 C1497 1.429 . S
C1492 C1484 1.574 . S
C1492 H1487 0.949 . S
C1492 C1498 1.368 . S
C1493 C1477 1.349 . S
C1493 H1485 0.950 . S
C1493 C1491 1.327 . S
C1494 C1482 1.349 . S
C1494 H1488 0.950 . S
C1494 C1495 1.327 . S
C1495 H1489 0.950 . S
C1495 C1494 1.327 . S
C1495 C1499 1.429 . S
C1496 C1479 1.574 . S
C1496 H1490 0.949 . S
C1496 C1500 1.368 . S
C1497 C1478 1.429 . S
C1497 C1491 1.429 . S
C1497 C1498 1.523 . S
C1498 C1479 1.368 . S
C1498 C1492 1.368 . S
C1498 C1497 1.523 . S
C1499 C1483 1.429 . S
C1499 C1495 1.429 . S
C1499 C1500 1.523 . S
C1500 C1484 1.368 . S
C1500 C1496 1.368 . S
C1500 C1499 1.523 . S
H1501 C1476 0.950 . S
H1502 C1478 0.950 . S
H1503 C1479 0.949 . S
H1504 C1481 0.950 . S
H1505 C1483 0.950 . S
C1506 C1507 1.349 . S
C1506 C1508 1.327 . S
C1506 H1531 0.950 . S
C1507 C1506 1.349 . S
C1507 C1523 1.349 . S
C1508 C1506 1.327 . S
C1508 C1527 1.429 . S
C1508 H1532 0.950 . S
C1509 C1526 1.574 . S
C1509 C1528 1.368 . S
C1509 H1533 0.949 . S
H1510 C1514 0.949 . S
C1511 C1512 1.349 . S
C1511 C1513 1.327 . S
C1511 H1534 0.950 . S
C1512 C1511 1.349 . S
C1512 C1524 1.349 . S
C1513 C1511 1.327 . S
C1513 C1529 1.429 . S
C1513 H1535 0.950 . S
C1514 H1510 0.949 . S
C1514 C1522 1.574 . S
C1514 C1530 1.368 . S
H1515 C1523 0.950 . S
H1516 C1521 0.950 . S
H1517 C1522 0.949 . S
H1518 C1524 0.950 . S
H1519 C1525 0.950 . S
H1520 C1526 0.949 . S
C1521 H1516 0.950 . S
C1521 C1523 1.327 . S
C1521 C1527 1.429 . S
C1522 C1514 1.574 . S
C1522 H1517 0.949 . S
C1522 C1528 1.368 . S
C1523 C1507 1.349 . S
C1523 H1515 0.950 . S
C1523 C1521 1.327 . S
C1524 C1512 1.349 . S
C1524 H1518 0.950 . S
C1524 C1525 1.327 . S
C1525 H1519 0.950 . S
C1525 C1524 1.327 . S
C1525 C1529 1.429 . S
C1526 C1509 1.574 . S
C1526 H1520 0.949 . S
C1526 C1530 1.368 . S
C1527 C1508 1.429 . S
C1527 C1521 1.429 . S
C1527 C1528 1.523 . S
C1528 C1509 1.368 . S
C1528 C1522 1.368 . S
C1528 C1527 1.523 . S
C1529 C1513 1.429 . S
C1529 C1525 1.429 . S
C1529 C1530 1.523 . S
C1530 C1514 1.368 . S
C1530 C1526 1.368 . S
C1530 C1529 1.523 . S
H1531 C1506 0.950 . S
H1532 C1508 0.950 . S
H1533 C1509 0.949 . S
H1534 C1511 0.950 . S
H1535 C1513 0.950 . S
C1536 C1537 1.349 . S
C1536 C1538 1.327 . S
C1536 H1561 0.950 . S
C1537 C1536 1.349 . S
C1537 C1553 1.349 . S
C1538 C1536 1.327 . S
C1538 C1557 1.429 . S
C1538 H1562 0.950 . S
C1539 C1556 1.574 . S
C1539 C1558 1.368 . S
C1539 H1563 0.949 . S
H1540 C1544 0.949 . S
C1541 C1542 1.349 . S
C1541 C1543 1.327 . S
C1541 H1564 0.950 . S
C1542 C1541 1.349 . S
C1542 C1554 1.349 . S
C1543 C1541 1.327 . S
C1543 C1559 1.429 . S
C1543 H1565 0.950 . S
C1544 H1540 0.949 . S
C1544 C1552 1.574 . S
C1544 C1560 1.368 . S
H1545 C1553 0.950 . S
H1546 C1551 0.950 . S
H1547 C1552 0.949 . S
H1548 C1554 0.950 . S
H1549 C1555 0.950 . S
H1550 C1556 0.949 . S
C1551 H1546 0.950 . S
C1551 C1553 1.327 . S
C1551 C1557 1.429 . S
C1552 C1544 1.574 . S
C1552 H1547 0.949 . S
C1552 C1558 1.368 . S
C1553 C1537 1.349 . S
C1553 H1545 0.950 . S
C1553 C1551 1.327 . S
C1554 C1542 1.349 . S
C1554 H1548 0.950 . S
C1554 C1555 1.327 . S
C1555 H1549 0.950 . S
C1555 C1554 1.327 . S
C1555 C1559 1.429 . S
C1556 C1539 1.574 . S
C1556 H1550 0.949 . S
C1556 C1560 1.368 . S
C1557 C1538 1.429 . S
C1557 C1551 1.429 . S
C1557 C1558 1.523 . S
C1558 C1539 1.368 . S
C1558 C1552 1.368 . S
C1558 C1557 1.523 . S
C1559 C1543 1.429 . S
C1559 C1555 1.429 . S
C1559 C1560 1.523 . S
C1560 C1544 1.368 . S
C1560 C1556 1.368 . S
C1560 C1559 1.523 . S
H1561 C1536 0.950 . S
H1562 C1538 0.950 . S
H1563 C1539 0.949 . S
H1564 C1541 0.950 . S
H1565 C1543 0.950 . S
C1566 C1567 1.349 . S
C1566 C1568 1.327 . S
C1566 H1591 0.950 . S
C1567 C1566 1.349 . S
C1567 C1583 1.349 . S
C1568 C1566 1.327 . S
C1568 C1587 1.429 . S
C1568 H1592 0.950 . S
C1569 C1586 1.574 . S
C1569 C1588 1.368 . S
C1569 H1593 0.949 . S
H1570 C1574 0.949 . S
C1571 C1572 1.349 . S
C1571 C1573 1.327 . S
C1571 H1594 0.950 . S
C1572 C1571 1.349 . S
C1572 C1584 1.349 . S
C1573 C1571 1.327 . S
C1573 C1589 1.429 . S
C1573 H1595 0.950 . S
C1574 H1570 0.949 . S
C1574 C1582 1.574 . S
C1574 C1590 1.368 . S
H1575 C1583 0.950 . S
H1576 C1581 0.950 . S
H1577 C1582 0.949 . S
H1578 C1584 0.950 . S
H1579 C1585 0.950 . S
H1580 C1586 0.949 . S
C1581 H1576 0.950 . S
C1581 C1583 1.327 . S
C1581 C1587 1.429 . S
C1582 C1574 1.574 . S
C1582 H1577 0.949 . S
C1582 C1588 1.368 . S
C1583 C1567 1.349 . S
C1583 H1575 0.950 . S
C1583 C1581 1.327 . S
C1584 C1572 1.349 . S
C1584 H1578 0.950 . S
C1584 C1585 1.327 . S
C1585 H1579 0.950 . S
C1585 C1584 1.327 . S
C1585 C1589 1.429 . S
C1586 C1569 1.574 . S
C1586 H1580 0.949 . S
C1586 C1590 1.368 . S
C1587 C1568 1.429 . S
C1587 C1581 1.429 . S
C1587 C1588 1.523 . S
C1588 C1569 1.368 . S
C1588 C1582 1.368 . S
C1588 C1587 1.523 . S
C1589 C1573 1.429 . S
C1589 C1585 1.429 . S
C1589 C1590 1.523 . S
C1590 C1574 1.368 . S
C1590 C1586 1.368 . S
C1590 C1589 1.523 . S
H1591 C1566 0.950 . S
H1592 C1568 0.950 . S
H1593 C1569 0.949 . S
H1594 C1571 0.950 . S
H1595 C1573 0.950 . S
C1596 C1597 1.349 . S
C1596 C1598 1.327 . S
C1596 H1621 0.950 . S
C1597 C1596 1.349 . S
C1597 C1613 1.349 . S
C1598 C1596 1.327 . S
C1598 C1617 1.429 . S
C1598 H1622 0.950 . S
C1599 C1616 1.574 1_545 S
C1599 C1618 1.368 . S
C1599 H1623 0.949 . S
H1600 C1604 0.949 . S
C1601 C1602 1.349 . S
C1601 C1603 1.327 . S
C1601 H1624 0.950 . S
C1602 C1601 1.349 . S
C1602 C1614 1.349 . S
C1603 C1601 1.327 . S
C1603 C1619 1.429 . S
C1603 H1625 0.950 . S
C1604 H1600 0.949 . S
C1604 C1612 1.574 1_565 S
C1604 C1620 1.368 . S
H1605 C1613 0.950 . S
H1606 C1611 0.950 . S
H1607 C1612 0.949 . S
H1608 C1614 0.950 . S
H1609 C1615 0.950 . S
H1610 C1616 0.949 . S
C1611 H1606 0.950 . S
C1611 C1613 1.327 . S
C1611 C1617 1.429 . S
C1612 C1604 1.574 1_545 S
C1612 H1607 0.949 . S
C1612 C1618 1.368 . S
C1613 C1597 1.349 . S
C1613 H1605 0.950 . S
C1613 C1611 1.327 . S
C1614 C1602 1.349 . S
C1614 H1608 0.950 . S
C1614 C1615 1.327 . S
C1615 H1609 0.950 . S
C1615 C1614 1.327 . S
C1615 C1619 1.429 . S
C1616 C1599 1.574 1_565 S
C1616 H1610 0.949 . S
C1616 C1620 1.368 . S
C1617 C1598 1.429 . S
C1617 C1611 1.429 . S
C1617 C1618 1.523 . S
C1618 C1599 1.368 . S
C1618 C1612 1.368 . S
C1618 C1617 1.523 . S
C1619 C1603 1.429 . S
C1619 C1615 1.429 . S
C1619 C1620 1.523 . S
C1620 C1604 1.368 . S
C1620 C1616 1.368 . S
C1620 C1619 1.523 . S
H1621 C1596 0.950 . S
H1622 C1598 0.950 . S
H1623 C1599 0.949 . S
H1624 C1601 0.950 . S
H1625 C1603 0.950 . S
C1626 C1627 1.349 . S
C1626 C1628 1.327 . S
C1626 H1651 0.950 . S
C1627 C1626 1.349 . S
C1627 C1643 1.349 . S
C1628 C1626 1.327 . S
C1628 C1647 1.429 . S
C1628 H1652 0.950 . S
C1629 C1646 1.574 . S
C1629 C1648 1.368 . S
C1629 H1653 0.949 . S
H1630 C1634 0.949 . S
C1631 C1632 1.349 . S
C1631 C1633 1.327 . S
C1631 H1654 0.950 . S
C1632 C1631 1.349 . S
C1632 C1644 1.349 . S
C1633 C1631 1.327 . S
C1633 C1649 1.429 . S
C1633 H1655 0.950 . S
C1634 H1630 0.949 . S
C1634 C1642 1.574 . S
C1634 C1650 1.368 . S
H1635 C1643 0.950 . S
H1636 C1641 0.950 . S
H1637 C1642 0.949 . S
H1638 C1644 0.950 . S
H1639 C1645 0.950 . S
H1640 C1646 0.949 . S
C1641 H1636 0.950 . S
C1641 C1643 1.327 . S
C1641 C1647 1.429 . S
C1642 C1634 1.574 . S
C1642 H1637 0.949 . S
C1642 C1648 1.368 . S
C1643 C1627 1.349 . S
C1643 H1635 0.950 . S
C1643 C1641 1.327 . S
C1644 C1632 1.349 . S
C1644 H1638 0.950 . S
C1644 C1645 1.327 . S
C1645 H1639 0.950 . S
C1645 C1644 1.327 . S
C1645 C1649 1.429 . S
C1646 C1629 1.574 . S
C1646 H1640 0.949 . S
C1646 C1650 1.368 . S
C1647 C1628 1.429 . S
C1647 C1641 1.429 . S
C1647 C1648 1.523 . S
C1648 C1629 1.368 . S
C1648 C1642 1.368 . S
C1648 C1647 1.523 . S
C1649 C1633 1.429 . S
C1649 C1645 1.429 . S
C1649 C1650 1.523 . S
C1650 C1634 1.368 . S
C1650 C1646 1.368 . S
C1650 C1649 1.523 . S
H1651 C1626 0.950 . S
H1652 C1628 0.950 . S
H1653 C1629 0.949 . S
H1654 C1631 0.950 . S
H1655 C1633 0.950 . S
C1656 C1657 1.349 . S
C1656 C1658 1.327 . S
C1656 H1681 0.950 . S
C1657 C1656 1.349 . S
C1657 C1673 1.349 . S
C1658 C1656 1.327 . S
C1658 C1677 1.429 . S
C1658 H1682 0.950 . S
C1659 C1676 1.574 1_455 S
C1659 C1678 1.368 . S
C1659 H1683 0.949 . S
H1660 C1664 0.949 . S
C1661 C1662 1.349 . S
C1661 C1663 1.327 . S
C1661 H1684 0.950 . S
C1662 C1661 1.349 . S
C1662 C1674 1.349 . S
C1663 C1661 1.327 . S
C1663 C1679 1.429 . S
C1663 H1685 0.950 . S
C1664 H1660 0.949 . S
C1664 C1672 1.574 1_655 S
C1664 C1680 1.368 . S
H1665 C1673 0.950 . S
H1666 C1671 0.950 . S
H1667 C1672 0.949 . S
H1668 C1674 0.950 . S
H1669 C1675 0.950 . S
H1670 C1676 0.949 . S
C1671 H1666 0.950 . S
C1671 C1673 1.327 . S
C1671 C1677 1.429 . S
C1672 C1664 1.574 1_455 S
C1672 H1667 0.949 . S
C1672 C1678 1.368 . S
C1673 C1657 1.349 . S
C1673 H1665 0.950 . S
C1673 C1671 1.327 . S
C1674 C1662 1.349 . S
C1674 H1668 0.950 . S
C1674 C1675 1.327 . S
C1675 H1669 0.950 . S
C1675 C1674 1.327 . S
C1675 C1679 1.429 . S
C1676 C1659 1.574 1_655 S
C1676 H1670 0.949 . S
C1676 C1680 1.368 . S
C1677 C1658 1.429 . S
C1677 C1671 1.429 . S
C1677 C1678 1.523 . S
C1678 C1659 1.368 . S
C1678 C1672 1.368 . S
C1678 C1677 1.523 . S
C1679 C1663 1.429 . S
C1679 C1675 1.429 . S
C1679 C1680 1.523 . S
C1680 C1664 1.368 . S
C1680 C1676 1.368 . S
C1680 C1679 1.523 . S
H1681 C1656 0.950 . S
H1682 C1658 0.950 . S
H1683 C1659 0.949 . S
H1684 C1661 0.950 . S
H1685 C1663 0.950 . S
C1686 C1687 1.349 . S
C1686 C1688 1.327 . S
C1686 H1711 0.950 . S
C1687 C1686 1.349 . S
C1687 C1703 1.349 . S
C1688 C1686 1.327 . S
C1688 C1707 1.429 . S
C1688 H1712 0.950 . S
C1689 C1706 1.574 1_565 S
C1689 C1708 1.368 . S
C1689 H1713 0.949 . S
H1690 C1694 0.949 . S
C1691 C1692 1.349 . S
C1691 C1693 1.327 . S
C1691 H1714 0.950 . S
C1692 C1691 1.349 . S
C1692 C1704 1.349 . S
C1693 C1691 1.327 . S
C1693 C1709 1.429 . S
C1693 H1715 0.950 . S
C1694 H1690 0.949 . S
C1694 C1702 1.574 1_545 S
C1694 C1710 1.368 . S
H1695 C1703 0.950 . S
H1696 C1701 0.950 . S
H1697 C1702 0.949 . S
H1698 C1704 0.950 . S
H1699 C1705 0.950 . S
H1700 C1706 0.949 . S
C1701 H1696 0.950 . S
C1701 C1703 1.327 . S
C1701 C1707 1.429 . S
C1702 C1694 1.574 1_565 S
C1702 H1697 0.949 . S
C1702 C1708 1.368 . S
C1703 C1687 1.349 . S
C1703 H1695 0.950 . S
C1703 C1701 1.327 . S
C1704 C1692 1.349 . S
C1704 H1698 0.950 . S
C1704 C1705 1.327 . S
C1705 H1699 0.950 . S
C1705 C1704 1.327 . S
C1705 C1709 1.429 . S
C1706 C1689 1.574 1_545 S
C1706 H1700 0.949 . S
C1706 C1710 1.368 . S
C1707 C1688 1.429 . S
C1707 C1701 1.429 . S
C1707 C1708 1.523 . S
C1708 C1689 1.368 . S
C1708 C1702 1.368 . S
C1708 C1707 1.523 . S
C1709 C1693 1.429 . S
C1709 C1705 1.429 . S
C1709 C1710 1.523 . S
C1710 C1694 1.368 . S
C1710 C1706 1.368 . S
C1710 C1709 1.523 . S
H1711 C1686 0.950 . S
H1712 C1688 0.950 . S
H1713 C1689 0.949 . S
H1714 C1691 0.950 . S
H1715 C1693 0.950 . S
C1716 C1717 1.349 . S
C1716 C1718 1.327 . S
C1716 H1741 0.950 . S
C1717 C1716 1.349 . S
C1717 C1733 1.349 . S
C1718 C1716 1.327 . S
C1718 C1737 1.429 . S
C1718 H1742 0.950 . S
C1719 C1736 1.574 . S
C1719 C1738 1.368 . S
C1719 H1743 0.949 . S
H1720 C1724 0.949 . S
C1721 C1722 1.349 . S
C1721 C1723 1.327 . S
C1721 H1744 0.950 . S
C1722 C1721 1.349 . S
C1722 C1734 1.349 . S
C1723 C1721 1.327 . S
C1723 C1739 1.429 . S
C1723 H1745 0.950 . S
C1724 H1720 0.949 . S
C1724 C1732 1.574 . S
C1724 C1740 1.368 . S
H1725 C1733 0.950 . S
H1726 C1731 0.950 . S
H1727 C1732 0.949 . S
H1728 C1734 0.950 . S
H1729 C1735 0.950 . S
H1730 C1736 0.949 . S
C1731 H1726 0.950 . S
C1731 C1733 1.327 . S
C1731 C1737 1.429 . S
C1732 C1724 1.574 . S
C1732 H1727 0.949 . S
C1732 C1738 1.368 . S
C1733 C1717 1.349 . S
C1733 H1725 0.950 . S
C1733 C1731 1.327 . S
C1734 C1722 1.349 . S
C1734 H1728 0.950 . S
C1734 C1735 1.327 . S
C1735 H1729 0.950 . S
C1735 C1734 1.327 . S
C1735 C1739 1.429 . S
C1736 C1719 1.574 . S
C1736 H1730 0.949 . S
C1736 C1740 1.368 . S
C1737 C1718 1.429 . S
C1737 C1731 1.429 . S
C1737 C1738 1.523 . S
C1738 C1719 1.368 . S
C1738 C1732 1.368 . S
C1738 C1737 1.523 . S
C1739 C1723 1.429 . S
C1739 C1735 1.429 . S
C1739 C1740 1.523 . S
C1740 C1724 1.368 . S
C1740 C1736 1.368 . S
C1740 C1739 1.523 . S
H1741 C1716 0.950 . S
H1742 C1718 0.950 . S
H1743 C1719 0.949 . S
H1744 C1721 0.950 . S
H1745 C1723 0.950 . S
C1746 C1747 1.349 . S
C1746 C1748 1.327 . S
C1746 H1771 0.950 . S
C1747 C1746 1.349 . S
C1747 C1763 1.349 . S
C1748 C1746 1.327 . S
C1748 C1767 1.429 . S
C1748 H1772 0.950 . S
C1749 C1766 1.574 1_455 S
C1749 C1768 1.368 . S
C1749 H1773 0.949 . S
H1750 C1754 0.949 . S
C1751 C1752 1.349 . S
C1751 C1753 1.327 . S
C1751 H1774 0.950 . S
C1752 C1751 1.349 . S
C1752 C1764 1.349 . S
C1753 C1751 1.327 . S
C1753 C1769 1.429 . S
C1753 H1775 0.950 . S
C1754 H1750 0.949 . S
C1754 C1762 1.574 1_655 S
C1754 C1770 1.368 . S
H1755 C1763 0.950 . S
H1756 C1761 0.950 . S
H1757 C1762 0.949 . S
H1758 C1764 0.950 . S
H1759 C1765 0.950 . S
H1760 C1766 0.949 . S
C1761 H1756 0.950 . S
C1761 C1763 1.327 . S
C1761 C1767 1.429 . S
C1762 C1754 1.574 1_455 S
C1762 H1757 0.949 . S
C1762 C1768 1.368 . S
C1763 C1747 1.349 . S
C1763 H1755 0.950 . S
C1763 C1761 1.327 . S
C1764 C1752 1.349 . S
C1764 H1758 0.950 . S
C1764 C1765 1.327 . S
C1765 H1759 0.950 . S
C1765 C1764 1.327 . S
C1765 C1769 1.429 . S
C1766 C1749 1.574 1_655 S
C1766 H1760 0.949 . S
C1766 C1770 1.368 . S
C1767 C1748 1.429 . S
C1767 C1761 1.429 . S
C1767 C1768 1.523 . S
C1768 C1749 1.368 . S
C1768 C1762 1.368 . S
C1768 C1767 1.523 . S
C1769 C1753 1.429 . S
C1769 C1765 1.429 . S
C1769 C1770 1.523 . S
C1770 C1754 1.368 . S
C1770 C1766 1.368 . S
C1770 C1769 1.523 . S
H1771 C1746 0.950 . S
H1772 C1748 0.950 . S
H1773 C1749 0.949 . S
H1774 C1751 0.950 . S
H1775 C1753 0.950 . S
C1057 C29 1.145 . S
C1062 C929 1.145 . S
C1087 C108 1.144 . S
C1092 C1025 1.144 . S
C1117 C585 1.145 . S
C1122 C205 1.145 . S
C1147 C293 1.145 . S
C1152 C673 1.145 . S
C1177 C761 1.144 . S
C1182 C381 1.144 . S
C1207 C841 1.144 . S
C1212 C489 1.144 . S
C1237 C724 0.950 . S
C1242 C49 0.950 . S
C1267 C145 0.948 . S
C1272 C821 0.948 . S
C1297 C909 0.949 . S
C1302 C225 0.949 . S
C1327 C313 0.949 . S
C1332 C988 0.949 . S
C1357 C401 0.946 . S
C1362 C548 0.946 . S
C1387 C469 0.949 . S
C1392 C636 0.949 . S
C1417 C900 1.787 . S
C1422 C57 1.787 . S
C1447 C997 1.787 . S
C1452 C137 1.787 . S
C1477 C557 1.787 . S
C1482 C233 1.787 . S
C1507 C321 1.787 . S
C1512 C645 1.787 . S
C1537 C409 1.787 . S
C1542 C733 1.787 . S
C1567 C812 1.787 . S
C1572 C460 1.787 . S
C1597 C20 0.981 . S
C1602 C665 0.981 . S
C1627 C753 0.979 . S
C1632 C117 0.979 . S
C1657 C849 0.979 . S
C1662 C196 0.979 . S
C1687 C284 0.981 . S
C1692 C937 0.981 . S
C1717 C372 0.980 . S
C1722 C1017 0.980 . S
C1747 C497 0.980 . S
C1752 C577 0.980 . S
