# Generated by pormake.
# Topology sml, (6)-cn, num edge types: 1
# Building blocks:
#     Node 0, Type 0, BuildingBlock: BETFEN_clean_sbu_0, # of connection points: 6
#     Node 1, Type 0, BuildingBlock: BETFEN_clean_sbu_0, # of connection points: 6
#     Node 2, Type 0, BuildingBlock: BETFEN_clean_sbu_0, # of connection points: 6
#     Node 3, Type 0, BuildingBlock: BETFEN_clean_sbu_0, # of connection points: 6
#     Node 4, Type 0, BuildingBlock: BETFEN_clean_sbu_0, # of connection points: 6
#     Node 5, Type 0, BuildingBlock: BETFEN_clean_sbu_0, # of connection points: 6
#     Edge 6, Type (0, 0), BuildingBlock: AJUNOK_clean_linker_0, # of connection points: 2
#     Edge 7, Type (0, 0), BuildingBlock: AJUNOK_clean_linker_0, # of connection points: 2
#     Edge 8, Type (0, 0), BuildingBlock: AJUNOK_clean_linker_0, # of connection points: 2
#     Edge 9, Type (0, 0), BuildingBlock: AJUNOK_clean_linker_0, # of connection points: 2
#     Edge 10, Type (0, 0), BuildingBlock: AJUNOK_clean_linker_0, # of connection points: 2
#     Edge 11, Type (0, 0), BuildingBlock: AJUNOK_clean_linker_0, # of connection points: 2
#     Edge 12, Type (0, 0), BuildingBlock: AJUNOK_clean_linker_0, # of connection points: 2
#     Edge 13, Type (0, 0), BuildingBlock: AJUNOK_clean_linker_0, # of connection points: 2
#     Edge 14, Type (0, 0), BuildingBlock: AJUNOK_clean_linker_0, # of connection points: 2
#     Edge 15, Type (0, 0), BuildingBlock: AJUNOK_clean_linker_0, # of connection points: 2
#     Edge 16, Type (0, 0), BuildingBlock: AJUNOK_clean_linker_0, # of connection points: 2
#     Edge 17, Type (0, 0), BuildingBlock: AJUNOK_clean_linker_0, # of connection points: 2
#     Edge 18, Type (0, 0), BuildingBlock: AJUNOK_clean_linker_0, # of connection points: 2
#     Edge 19, Type (0, 0), BuildingBlock: AJUNOK_clean_linker_0, # of connection points: 2
#     Edge 20, Type (0, 0), BuildingBlock: AJUNOK_clean_linker_0, # of connection points: 2
#     Edge 21, Type (0, 0), BuildingBlock: AJUNOK_clean_linker_0, # of connection points: 2
#     Edge 22, Type (0, 0), BuildingBlock: AJUNOK_clean_linker_0, # of connection points: 2
#     Edge 23, Type (0, 0), BuildingBlock: AJUNOK_clean_linker_0, # of connection points: 2
# Relax obj value: 0.263
# Max RMSD: 0.269
# Mean RMSD: 0.269
data_MOF--net-sml--node1-BETFEN_clean_sbu_0--edge1-AJUNOK_clean_linker_0
_symmetry_space_group_name_H-M    P1
_symmetry_Int_Tables_number       1
_symmetry_cell_setting            triclinic
loop_
_symmetry_equiv_pos_as_xyz
'x, y, z'
_cell_length_a     22.135468
_cell_length_b     22.028375
_cell_length_c     20.610285
_cell_angle_alpha  90.0547
_cell_angle_beta   89.90165
_cell_angle_gamma 120.36951
loop_
_atom_site_label
_atom_site_type_symbol
_atom_site_fract_x
_atom_site_fract_y
_atom_site_fract_z
_atom_type_partial_charge
Pr0 Pr 0.27336 0.43458 0.26998 0.0
Pr1 Pr 0.16178 0.39965 0.16126 0.0
C2 C 0.33921 0.46507 0.38531 0.0
C3 C 0.31811 0.45932 0.45448 0.0
C4 C 0.28786 0.39437 0.48712 0.0
C5 C 0.26536 0.38866 0.55141 0.0
C6 C 0.27181 0.44749 0.58431 0.0
C7 C 0.3034 0.51278 0.55235 0.0
C8 C 0.32668 0.51872 0.48822 0.0
C9 C 0.28411 0.35932 0.16787 0.0
C10 C 0.10622 0.30029 0.28643 0.0
C11 C 0.09428 0.3798 0.04781 0.0
C12 C 0.11563 0.3896 0.97844 0.0
C13 C 0.14211 0.45557 0.94822 0.0
C14 C 0.16595 0.46574 0.88403 0.0
C15 C 0.16335 0.41004 0.84839 0.0
C16 C 0.13579 0.34384 0.87811 0.0
C17 C 0.11187 0.33362 0.94227 0.0
C18 C 0.15476 0.47341 0.26845 0.0
C19 C 0.32781 0.52446 0.13516 0.0
O20 O 0.31997 0.40625 0.35396 0.0
O21 O 0.33421 0.51191 0.35016 0.0
O22 O 0.2265 0.34924 0.1903 0.0
O23 O 0.33706 0.4032 0.20303 0.0
O24 O 0.09628 0.30044 0.22346 0.0
O25 O 0.16435 0.34942 0.31462 0.0
O26 O 0.09566 0.32875 0.07914 0.0
O27 O 0.11688 0.4369 0.08281 0.0
O28 O 0.21024 0.48499 0.24066 0.0
O29 O 0.09992 0.42846 0.23604 0.0
O30 O 0.34323 0.52647 0.19746 0.0
O31 O 0.26723 0.47664 0.11098 0.0
H32 H 0.28043 0.34754 0.46275 0.0
H33 H 0.2413 0.33774 0.57497 0.0
H34 H 0.31018 0.55928 0.57701 0.0
H35 H 0.35048 0.56967 0.46473 0.0
H36 H 0.14549 0.49983 0.97441 0.0
H37 H 0.18782 0.51762 0.86275 0.0
H38 H 0.13272 0.29985 0.85165 0.0
H39 H 0.09134 0.28202 0.96379 0.0
Pr40 Pr 0.69488 0.11926 0.47268 0.0
Pr41 Pr 0.80424 0.19201 0.5842 0.0
C42 C 0.62965 0.08267 0.35735 0.0
C43 C 0.6534 0.09186 0.28935 0.0
C44 C 0.70771 0.08002 0.27057 0.0
C45 C 0.73272 0.09305 0.20686 0.0
C46 C 0.70422 0.11856 0.16096 0.0
C47 C 0.64977 0.13013 0.17966 0.0
C48 C 0.6244 0.11665 0.24333 0.0
C49 C 0.68311 0.02958 0.57297 0.0
C50 C 0.8641 0.16376 0.45271 0.0
C51 C 0.87249 0.23046 0.6982 0.0
C52 C 0.84997 0.21551 0.76614 0.0
C53 C 0.89465 0.25728 0.81606 0.0
C54 C 0.87284 0.24241 0.88079 0.0
C55 C 0.80644 0.18515 0.89609 0.0
C56 C 0.76159 0.14405 0.84586 0.0
C57 C 0.78307 0.15936 0.78135 0.0
C58 C 0.80737 0.28055 0.48611 0.0
C59 C 0.63974 0.15788 0.60404 0.0
O60 O 0.64283 0.1402 0.38802 0.0
O61 O 0.64039 0.03971 0.39286 0.0
O62 O 0.74029 0.0779 0.54978 0.0
O63 O 0.63027 0.02216 0.53915 0.0
O64 O 0.87319 0.16937 0.51593 0.0
O65 O 0.8049 0.15237 0.42595 0.0
O66 O 0.86446 0.17655 0.66435 0.0
O67 O 0.85345 0.26967 0.66683 0.0
O68 O 0.75334 0.23131 0.51195 0.0
O69 O 0.86405 0.2888 0.51327 0.0
O70 O 0.62669 0.14527 0.54139 0.0
O71 O 0.69785 0.16726 0.6312 0.0
H72 H 0.73172 0.06184 0.30534 0.0
H73 H 0.77545 0.08476 0.19382 0.0
H74 H 0.62685 0.14956 0.14497 0.0
H75 H 0.58283 0.12655 0.2569 0.0
H76 H 0.9463 0.30111 0.805 0.0
H77 H 0.90808 0.27486 0.91891 0.0
H78 H 0.70971 0.10048 0.85656 0.0
H79 H 0.74753 0.12734 0.74327 0.0
Pr80 Pr 0.54248 0.83978 0.93202 0.0
Pr81 Pr 0.5891 0.77274 0.82086 0.0
C82 C 0.503 0.86544 0.04753 0.0
C83 C 0.51477 0.85289 0.11538 0.0
C84 C 0.57825 0.85807 0.13375 0.0
C85 C 0.5884 0.84329 0.1973 0.0
C86 C 0.53471 0.82157 0.24364 0.0
C87 C 0.47129 0.81698 0.22535 0.0
C88 C 0.46139 0.8324 0.16165 0.0
C89 C 0.63172 0.93533 0.84018 0.0
C90 C 0.66859 0.79793 0.95559 0.0
C91 C 0.62329 0.73714 0.70741 0.0
C92 C 0.60776 0.74231 0.63867 0.0
C93 C 0.54124 0.72924 0.61977 0.0
C94 C 0.52836 0.73907 0.55535 0.0
C95 C 0.58156 0.76155 0.50846 0.0
C96 C 0.64783 0.77361 0.52723 0.0
C97 C 0.66081 0.76417 0.59183 0.0
C98 C 0.49655 0.68105 0.91481 0.0
C99 C 0.46626 0.81564 0.79041 0.0
O100 O 0.46306 0.8092 1.01313 0.0
O101 O 0.55787 0.91278 1.01553 0.0
O102 O 0.63625 0.88412 0.86218 0.0
O103 O 0.58544 0.94302 0.87251 0.0
O104 O 0.67841 0.79881 0.89254 0.0
O105 O 0.61765 0.80547 0.98083 0.0
O106 O 0.66418 0.79687 0.73683 0.0
O107 O 0.57071 0.69245 0.74346 0.0
O108 O 0.49378 0.73072 0.88768 0.0
O109 O 0.54733 0.67431 0.89091 0.0
O110 O 0.45804 0.82289 0.85325 0.0
O111 O 0.51581 0.80425 0.76888 0.0
H112 H 0.61992 0.87298 0.09882 0.0
H113 H 0.6384 0.84889 0.21015 0.0
H114 H 0.42891 0.80018 0.25997 0.0
H115 H 0.41175 0.82743 0.14832 0.0
H116 H 0.49938 0.71234 0.65497 0.0
H117 H 0.47678 0.72915 0.54217 0.0
H118 H 0.69008 0.79195 0.49227 0.0
H119 H 0.7126 0.77502 0.60544 0.0
Pr120 Pr 0.83176 0.55231 0.15612 0.0
Pr121 Pr 0.74941 0.58409 0.26483 0.0
C122 C 0.87458 0.52667 0.04224 0.0
C123 C 0.86567 0.53561 0.9722 0.0
C124 C 0.89065 0.60266 0.94489 0.0
C125 C 0.87978 0.60991 0.87919 0.0
C126 C 0.84323 0.55036 0.8393 0.0
C127 C 0.81887 0.48336 0.86647 0.0
C128 C 0.83026 0.47612 0.93212 0.0
C129 C 0.91228 0.63928 0.25674 0.0
C130 C 0.77438 0.66765 0.13081 0.0
C131 C 0.71495 0.61212 0.3813 0.0
C132 C 0.72984 0.60041 0.44866 0.0
C133 C 0.71102 0.53282 0.47128 0.0
C134 C 0.73016 0.52367 0.53363 0.0
C135 C 0.76932 0.58196 0.57434 0.0
C136 C 0.78748 0.64936 0.55172 0.0
C137 C 0.76777 0.65841 0.48971 0.0
C138 C 0.66958 0.49371 0.16555 0.0
C139 C 0.79528 0.46027 0.28821 0.0
O140 O 0.81892 0.47909 0.07324 0.0
O141 O 0.9128 0.58367 0.07663 0.0
O142 O 0.86255 0.64151 0.22949 0.0
O143 O 0.92472 0.5938 0.22878 0.0
O144 O 0.76304 0.67089 0.19321 0.0
O145 O 0.79361 0.62385 0.10753 0.0
O146 O 0.76917 0.65875 0.34805 0.0
O147 O 0.67195 0.55661 0.34711 0.0
O148 O 0.72023 0.49464 0.19387 0.0
O149 O 0.65384 0.53782 0.19205 0.0
O150 O 0.81358 0.46218 0.22686 0.0
O151 O 0.77629 0.50377 0.31242 0.0
H152 H 0.91759 0.6496 0.97438 0.0
H153 H 0.89934 0.66224 0.85969 0.0
H154 H 0.78931 0.43637 0.83746 0.0
H155 H 0.81022 0.4238 0.9519 0.0
H156 H 0.68201 0.48698 0.44073 0.0
H157 H 0.71376 0.47088 0.55011 0.0
H158 H 0.81782 0.69539 0.58173 0.0
H159 H 0.78327 0.71105 0.47333 0.0
Pr160 Pr 0.12913 0.72812 0.59906 0.0
Pr161 Pr 0.21023 0.832 0.48238 0.0
C162 C 0.09534 0.65574 0.7111 0.0
C163 C 0.1027 0.67676 0.78044 0.0
C164 C 0.1398 0.65781 0.82313 0.0
C165 C 0.15279 0.68283 0.88711 0.0
C166 C 0.12902 0.72741 0.90982 0.0
C167 C 0.08952 0.74407 0.86785 0.0
C168 C 0.07682 0.7194 0.8038 0.0
C169 C 0.04458 0.73468 0.50197 0.0
C170 C 0.16722 0.89386 0.60927 0.0
C171 C 0.24466 0.90851 0.37244 0.0
C172 C 0.22544 0.88823 0.30391 0.0
C173 C 0.26663 0.93258 0.25338 0.0
C174 C 0.25086 0.91058 0.18854 0.0
C175 C 0.19379 0.84358 0.17316 0.0
C176 C 0.15124 0.8007 0.22405 0.0
C177 C 0.16715 0.82249 0.28865 0.0
C178 C 0.29443 0.82836 0.58205 0.0
C179 C 0.16532 0.66539 0.46547 0.0
O180 O 0.15371 0.67392 0.67971 0.0
O181 O 0.05005 0.6636 0.67655 0.0
O182 O 0.10157 0.73627 0.49422 0.0
O183 O 0.02454 0.72059 0.56223 0.0
O184 O 0.17866 0.8996 0.54605 0.0
O185 O 0.15375 0.83657 0.64151 0.0
O186 O 0.19369 0.90006 0.4108 0.0
O187 O 0.28486 0.88755 0.39876 0.0
O188 O 0.2372 0.82639 0.58874 0.0
O189 O 0.31354 0.83776 0.5214 0.0
O190 O 0.15275 0.65567 0.5289 0.0
O191 O 0.17948 0.72453 0.43671 0.0
H192 H 0.16011 0.62487 0.80655 0.0
H193 H 0.18198 0.66781 0.91873 0.0
H194 H 0.07037 0.77813 0.88395 0.0
H195 H 0.04818 0.73524 0.77221 0.0
H196 H 0.31148 0.98379 0.26406 0.0
H197 H 0.28347 0.94598 0.15054 0.0
H198 H 0.10655 0.74938 0.21393 0.0
H199 H 0.13449 0.78744 0.32687 0.0
Pr200 Pr 0.43432 0.29429 0.81185 0.0
Pr201 Pr 0.3941 0.1728 0.91579 0.0
C202 C 0.46124 0.35847 0.69562 0.0
C203 C 0.4518 0.33355 0.62701 0.0
C204 C 0.39116 0.31861 0.59223 0.0
C205 C 0.38055 0.29195 0.52888 0.0
C206 C 0.43036 0.27972 0.49841 0.0
C207 C 0.49181 0.29627 0.53256 0.0
C208 C 0.50238 0.32273 0.59601 0.0
C209 C 0.35999 0.29905 0.91911 0.0
C210 C 0.30342 0.12681 0.78451 0.0
C211 C 0.36039 0.10593 0.03138 0.0
C212 C 0.36965 0.12542 0.1014 0.0
C213 C 0.43044 0.13927 0.13543 0.0
C214 C 0.43939 0.16041 0.20067 0.0
C215 C 0.38765 0.16781 0.23354 0.0
C216 C 0.32656 0.15294 0.19966 0.0
C217 C 0.31743 0.13147 0.13479 0.0
C218 C 0.46813 0.16873 0.80891 0.0
C219 C 0.53764 0.33645 0.9351 0.0
O220 O 0.50893 0.35429 0.72982 0.0
O221 O 0.4044 0.34169 0.72908 0.0
O222 O 0.34986 0.24378 0.89084 0.0
O223 O 0.40504 0.35522 0.88771 0.0
O224 O 0.30199 0.10777 0.84537 0.0
O225 O 0.34992 0.18985 0.76294 0.0
O226 O 0.31833 0.11999 0.9985 0.0
O227 O 0.41567 0.11748 0.99795 0.0
O228 O 0.47863 0.22356 0.83831 0.0
O229 O 0.42174 0.11164 0.8388 0.0
O230 O 0.52898 0.36062 0.87951 0.0
O231 O 0.49573 0.27119 0.95512 0.0
H232 H 0.35142 0.32686 0.6142 0.0
H233 H 0.33328 0.28104 0.50364 0.0
H234 H 0.53121 0.28739 0.51067 0.0
H235 H 0.54994 0.33388 0.62097 0.0
H236 H 0.47155 0.13467 0.11151 0.0
H237 H 0.48695 0.17117 0.22539 0.0
H238 H 0.28643 0.15982 0.2227 0.0
H239 H 0.26986 0.12111 0.11036 0.0
C240 C 0.27347 0.3085 0.99058 0.0
C241 C 0.33283 0.30131 0.98413 0.0
C242 C 0.2538 0.32202 0.05154 0.0
C243 C 0.2937 0.32977 0.10729 0.0
H244 H 0.24393 0.3066 0.948 0.0
H245 H 0.21021 0.331 0.05421 0.0
S246 S 0.45172 0.3134 0.11679 0.0
N247 N 0.42849 0.29991 0.03983 0.0
N248 N 0.39265 0.32618 0.15291 0.0
C249 C 0.35109 0.31986 0.10171 0.0
C250 C 0.37049 0.30556 0.04036 0.0
C251 C 0.97762 0.22007 0.30212 0.0
C252 C 0.04589 0.25183 0.32765 0.0
C253 C 0.91876 0.18682 0.34251 0.0
C254 C 0.92563 0.18362 0.41013 0.0
H255 H 0.96922 0.22467 0.25104 0.0
H256 H 0.86771 0.16717 0.32069 0.0
S257 S 0.09271 0.24633 0.49949 0.0
N258 N 0.11686 0.26906 0.42341 0.0
N259 N 0.00641 0.20611 0.49947 0.0
C260 C -0.00652 0.20937 0.43549 0.0
C261 C 0.05352 0.24366 0.39426 0.0
C262 C 0.61345 -0.00557 0.67389 0.0
C263 C 0.67358 0.00523 0.64082 0.0
C264 C 0.60251 0.97462 0.73887 0.0
C265 C 0.64953 0.96133 0.77295 0.0
H266 H 0.57465 0.00238 0.64973 0.0
H267 H 0.55552 0.96794 0.76195 0.0
S268 S 0.81505 0.98139 0.70877 0.0
N269 N 0.78204 0.00298 0.64703 0.0
N270 N 0.75896 0.96081 0.76939 0.0
C271 C 0.70969 0.97102 0.74061 0.0
C272 C 0.72228 -0.00596 0.67445 0.0
C273 C 0.71607 0.79087 0.06392 0.0
C274 C 0.70531 0.77273 0.99783 0.0
C275 C 0.74149 0.75905 0.10632 0.0
C276 C 0.75643 0.70745 0.08419 0.0
H277 H 0.70323 0.82867 0.08334 0.0
H278 H 0.74749 0.7736 0.15712 0.0
S279 S 0.73233 0.63801 0.91607 0.0
N280 N 0.70944 0.69842 0.91261 0.0
N281 N 0.75674 0.63878 0.99162 0.0
C282 C 0.74684 0.6898 1.01781 0.0
C283 C 0.72138 0.72236 0.97482 0.0
C284 C 0.95974 0.63954 0.43226 0.0
C285 C -0.00476 0.71135 0.44786 0.0
C286 C 0.93129 0.61656 0.37053 0.0
C287 C 0.93562 0.66438 0.32311 0.0
H288 H 0.95909 0.60157 0.46611 0.0
H289 H 0.90877 0.5614 0.35909 0.0
S290 S 0.01975 0.85742 0.34146 0.0
N291 N 0.03185 0.83002 0.41229 0.0
N292 N 0.9745 0.78605 0.29672 0.0
C293 C 0.96699 0.73577 0.33943 0.0
C294 C -0.00216 0.75949 0.40187 0.0
C295 C 0.19908 0.0111 0.75395 0.0
C296 C 0.26068 0.07292 0.73577 0.0
C297 C 0.16482 0.95479 0.71042 0.0
C298 C 0.191 0.95865 0.64735 0.0
H299 H 0.17891 0.005 0.80291 0.0
H300 H 0.11975 0.90654 0.72736 0.0
S301 S 0.35301 0.10747 0.57747 0.0
N302 N 0.34707 0.13409 0.65064 0.0
N303 N 0.28289 0.02891 0.56941 0.0
C304 C 0.25099 0.02133 0.62779 0.0
C305 C 0.28588 0.07834 0.67195 0.0
C306 C 0.23735 0.39802 0.76284 0.0
C307 C 0.19084 0.42108 0.78087 0.0
C308 C 0.26372 0.40727 0.69941 0.0
C309 C 0.24476 0.44013 0.65162 0.0
H310 H 0.25395 0.37307 0.7982 0.0
H311 H 0.29958 0.38895 0.68776 0.0
S312 S 0.12068 0.50519 0.67246 0.0
N313 N 0.12438 0.47515 0.74486 0.0
N314 N 0.1742 0.4928 0.62576 0.0
C315 C 0.19803 0.46307 0.66883 0.0
C316 C 0.17104 0.45351 0.73338 0.0
C317 C 0.75591 0.20232 0.06806 0.0
C318 C 0.73235 0.13494 0.09401 0.0
C319 C 0.78123 0.21881 1.00431 0.0
C320 C 0.78333 0.1682 0.96433 0.0
H321 H 0.75522 0.24266 0.09753 0.0
H322 H 0.79808 0.27103 0.98579 0.0
S323 S 0.73245 0.98588 1.01039 0.0
N324 N 0.71593 0.01849 0.07582 0.0
N325 N 0.76339 0.04947 0.95582 0.0
C326 C 0.76138 0.10118 0.99005 0.0
C327 C 0.73611 0.08458 0.05505 0.0
C328 C 0.53909 0.81708 0.4282 0.0
C329 C 0.5684 0.77449 0.44057 0.0
C330 C 0.52772 0.83153 0.36452 0.0
C331 C 0.54503 0.80375 0.3108 0.0
H332 H 0.52604 0.84051 0.46808 0.0
H333 H 0.50645 0.8658 0.35728 0.0
S334 S 0.61639 0.68341 0.3172 0.0
N335 N 0.61038 0.70115 0.39402 0.0
N336 N 0.58822 0.7275 0.27444 0.0
C337 C 0.57272 0.75964 0.32261 0.0
C338 C 0.58461 0.74524 0.38741 0.0
C339 C 0.7995 0.60216 0.75653 0.0
C340 C 0.82678 0.55824 0.77079 0.0
C341 C 0.78091 0.60904 0.69324 0.0
C342 C 0.78956 0.57293 0.64104 0.0
H343 H 0.79144 0.63092 0.79473 0.0
H344 H 0.75872 0.64242 0.68533 0.0
S345 S 0.86584 0.45688 0.65088 0.0
N346 N 0.86569 0.4813 0.72666 0.0
N347 N 0.83189 0.49511 0.60718 0.0
C348 C 0.81835 0.52997 0.65416 0.0
C349 C 0.83679 0.52253 0.719 0.0
C350 C 0.09418 0.75352 1.01802 0.0
C351 C 0.14683 0.75811 0.97644 0.0
C352 C 0.10984 0.78189 0.081 0.0
C353 C 0.17903 0.81692 0.10483 0.0
H354 H 0.04025 0.72699 1.00202 0.0
H355 H 0.06731 0.77651 0.11123 0.0
S356 S 0.33643 0.84588 1.01397 0.0
N357 N 0.27124 0.80249 0.96267 0.0
N358 N 0.30077 0.85501 0.08093 0.0
C359 C 0.23231 0.82273 0.06327 0.0
C360 C 0.2162 0.79345 0.9993 0.0
C361 C 0.4723 0.27944 0.38463 0.0
C362 C 0.4184 0.24964 0.43135 0.0
C363 C 0.46233 0.25222 0.32128 0.0
C364 C 0.39823 0.19359 0.30207 0.0
H365 H 0.52231 0.3251 0.39674 0.0
H366 H 0.5048 0.27825 0.2867 0.0
S367 S 0.24257 0.09171 0.40743 0.0
N368 N 0.29943 0.15602 0.45435 0.0
N369 N 0.28186 0.1034 0.33659 0.0
C370 C 0.34456 0.16214 0.34877 0.0
C371 C 0.35431 0.1905 0.41292 0.0
C372 C 0.18432 0.52151 0.38214 0.0
C373 C 0.15247 0.51676 0.32171 0.0
C374 C 0.18457 0.56608 0.43158 0.0
C375 C 0.15362 0.60747 0.42115 0.0
H376 H 0.20946 0.49107 0.39097 0.0
H377 H 0.21176 0.57064 0.47658 0.0
S378 S 0.06253 0.6113 0.27162 0.0
N379 N 0.08806 0.55458 0.25508 0.0
N380 N 0.08799 0.63797 0.34658 0.0
C381 C 0.11965 0.60064 0.3615 0.0
C382 C 0.11922 0.55539 0.31206 0.0
C383 C 0.52421 0.10665 0.66065 0.0
C384 C 0.59044 0.16485 0.64689 0.0
C385 C 0.48395 0.10867 0.71256 0.0
C386 C 0.50829 0.16939 0.75125 0.0
H387 H 0.50503 0.05826 0.63345 0.0
H388 H 0.43418 0.06198 0.72325 0.0
S389 S 0.6752 0.3381 0.72925 0.0
N390 N 0.67642 0.28604 0.67222 0.0
N391 N 0.60044 0.29086 0.76835 0.0
C392 C 0.57257 0.22925 0.735 0.0
C393 C 0.61378 0.22667 0.68312 0.0
C394 C 0.44189 0.5795 0.07465 0.0
C395 C 0.37764 0.57554 0.08783 0.0
C396 C 0.48064 0.6139 1.0185 0.0
C397 C 0.45623 0.64538 0.97414 0.0
H398 H 0.46039 0.55278 0.10589 0.0
H399 H 0.5294 0.615 1.00936 0.0
S400 S 0.29193 0.65072 0.98838 0.0
N401 N 0.29257 0.60747 0.05346 0.0
N402 N 0.3645 0.67131 0.94843 0.0
C403 C 0.39308 0.64329 0.98814 0.0
C404 C 0.35405 0.60859 0.04488 0.0
C405 C 0.74828 0.33592 0.42998 0.0
C406 C 0.80508 0.32442 0.43339 0.0
C407 C 0.74497 0.37863 0.3816 0.0
C408 C 0.79725 0.40967 0.33372 0.0
H409 H 0.70689 0.31322 0.46598 0.0
H410 H 0.70126 0.3878 0.38194 0.0
S411 S 0.95432 0.39158 0.31882 0.0
N412 N 0.9135 0.34504 0.38389 0.0
N413 N 0.90623 0.42392 0.29127 0.0
C414 C 0.85314 0.39659 0.33518 0.0
C415 C 0.85739 0.35438 0.38558 0.0
C416 C 0.39651 0.8219 0.62353 0.0
C417 C 0.33746 0.82748 0.63676 0.0
C418 C 0.43755 0.81927 0.67369 0.0
C419 C 0.42136 0.82154 0.73976 0.0
H420 H 0.41113 0.81901 0.5739 0.0
H421 H 0.48271 0.81556 0.65989 0.0
S422 S 0.27616 0.84442 0.80012 0.0
N423 N 0.26743 0.84109 0.72045 0.0
N424 N 0.34442 0.83525 0.81504 0.0
C425 C 0.36348 0.82937 0.75373 0.0
C426 C 0.32154 0.83235 0.70224 0.0
C427 C 0.6142 0.48331 0.05703 0.0
C428 C 0.64223 0.45736 0.10317 0.0
C429 C 0.58723 0.44792 0.99799 0.0
C430 C 0.58671 0.38509 0.98396 0.0
H431 H 0.61193 0.53042 0.06706 0.0
H432 H 0.56209 0.46699 0.96546 0.0
S433 S 0.6574 0.29797 0.08723 0.0
N434 N 0.67121 0.36754 0.1294 0.0
N435 N 0.62012 0.301 1.019 0.0
C436 C 0.6178 0.36089 1.02836 0.0
C437 C 0.64547 0.39692 0.08797 0.0
loop_
_geom_bond_atom_site_label_1
_geom_bond_atom_site_label_2
_geom_bond_distance
_geom_bond_site_symmetry_2
_ccdc_geom_bond_type
Pr0 C2 2.880 . S
Pr0 O20 2.562 . S
Pr0 O21 2.490 . S
Pr0 O22 2.695 . S
Pr0 O23 2.512 . S
Pr0 O25 2.437 . S
Pr0 O28 2.436 . S
Pr0 O30 2.438 . S
Pr1 C11 2.880 1_554 S
Pr1 O22 2.436 . S
Pr1 O24 2.438 . S
Pr1 O26 2.562 1_554 S
Pr1 O27 2.490 1_554 S
Pr1 O28 2.695 . S
Pr1 O29 2.512 . S
Pr1 O31 2.437 . S
C2 Pr0 2.880 . S
C2 C3 1.491 . S
C2 O20 1.254 . S
C2 O21 1.225 . S
C3 C2 1.491 . S
C3 C4 1.392 . S
C3 C8 1.356 . S
C4 C3 1.392 . S
C4 C5 1.368 . S
C4 H32 0.929 . S
C5 C4 1.368 . S
C5 C6 1.386 . S
C5 H33 0.929 . S
C6 C5 1.386 . S
C6 C7 1.373 . S
C7 C6 1.373 . S
C7 C8 1.409 . S
C7 H34 0.931 . S
C8 C3 1.356 . S
C8 C7 1.409 . S
C8 H35 0.930 . S
C9 O22 1.270 . S
C9 O23 1.248 . S
C10 O24 1.267 . S
C10 O25 1.278 . S
C11 Pr1 2.880 1_556 S
C11 C12 1.491 . S
C11 O26 1.254 . S
C11 O27 1.225 . S
C12 C11 1.491 . S
C12 C13 1.392 . S
C12 C17 1.356 . S
C13 C12 1.392 . S
C13 C14 1.368 . S
C13 H36 0.929 . S
C14 C13 1.368 . S
C14 C15 1.386 . S
C14 H37 0.929 . S
C15 C14 1.386 . S
C15 C16 1.373 . S
C16 C15 1.373 . S
C16 C17 1.409 . S
C16 H38 0.931 . S
C17 C12 1.356 . S
C17 C16 1.409 . S
C17 H39 0.930 . S
C18 O28 1.270 . S
C18 O29 1.248 . S
C19 O30 1.267 . S
C19 O31 1.278 . S
O20 Pr0 2.562 . S
O20 C2 1.254 . S
O21 Pr0 2.490 . S
O21 C2 1.225 . S
O22 Pr0 2.695 . S
O22 Pr1 2.436 . S
O22 C9 1.270 . S
O23 Pr0 2.512 . S
O23 C9 1.248 . S
O24 Pr1 2.438 . S
O24 C10 1.267 . S
O25 Pr0 2.437 . S
O25 C10 1.278 . S
O26 Pr1 2.562 1_556 S
O26 C11 1.254 . S
O27 Pr1 2.490 1_556 S
O27 C11 1.225 . S
O28 Pr0 2.436 . S
O28 Pr1 2.695 . S
O28 C18 1.270 . S
O29 Pr1 2.512 . S
O29 C18 1.248 . S
O30 Pr0 2.438 . S
O30 C19 1.267 . S
O31 Pr1 2.437 . S
O31 C19 1.278 . S
H32 C4 0.929 . S
H33 C5 0.929 . S
H34 C7 0.931 . S
H35 C8 0.930 . S
H36 C13 0.929 . S
H37 C14 0.929 . S
H38 C16 0.931 . S
H39 C17 0.930 . S
Pr40 C42 2.880 . S
Pr40 O60 2.562 . S
Pr40 O61 2.490 . S
Pr40 O62 2.695 . S
Pr40 O63 2.512 . S
Pr40 O65 2.437 . S
Pr40 O68 2.436 . S
Pr40 O70 2.438 . S
Pr41 C51 2.880 . S
Pr41 O62 2.436 . S
Pr41 O64 2.438 . S
Pr41 O66 2.562 . S
Pr41 O67 2.490 . S
Pr41 O68 2.695 . S
Pr41 O69 2.512 . S
Pr41 O71 2.437 . S
C42 Pr40 2.880 . S
C42 C43 1.491 . S
C42 O60 1.254 . S
C42 O61 1.225 . S
C43 C42 1.491 . S
C43 C44 1.392 . S
C43 C48 1.356 . S
C44 C43 1.392 . S
C44 C45 1.368 . S
C44 H72 0.929 . S
C45 C44 1.368 . S
C45 C46 1.386 . S
C45 H73 0.929 . S
C46 C45 1.386 . S
C46 C47 1.373 . S
C47 C46 1.373 . S
C47 C48 1.409 . S
C47 H74 0.931 . S
C48 C43 1.356 . S
C48 C47 1.409 . S
C48 H75 0.930 . S
C49 O62 1.270 . S
C49 O63 1.248 . S
C50 O64 1.267 . S
C50 O65 1.278 . S
C51 Pr41 2.880 . S
C51 C52 1.491 . S
C51 O66 1.254 . S
C51 O67 1.225 . S
C52 C51 1.491 . S
C52 C53 1.392 . S
C52 C57 1.356 . S
C53 C52 1.392 . S
C53 C54 1.368 . S
C53 H76 0.929 . S
C54 C53 1.368 . S
C54 C55 1.386 . S
C54 H77 0.929 . S
C55 C54 1.386 . S
C55 C56 1.373 . S
C56 C55 1.373 . S
C56 C57 1.409 . S
C56 H78 0.931 . S
C57 C52 1.356 . S
C57 C56 1.409 . S
C57 H79 0.930 . S
C58 O68 1.270 . S
C58 O69 1.248 . S
C59 O70 1.267 . S
C59 O71 1.278 . S
O60 Pr40 2.562 . S
O60 C42 1.254 . S
O61 Pr40 2.490 . S
O61 C42 1.225 . S
O62 Pr40 2.695 . S
O62 Pr41 2.436 . S
O62 C49 1.270 . S
O63 Pr40 2.512 . S
O63 C49 1.248 . S
O64 Pr41 2.438 . S
O64 C50 1.267 . S
O65 Pr40 2.437 . S
O65 C50 1.278 . S
O66 Pr41 2.562 . S
O66 C51 1.254 . S
O67 Pr41 2.490 . S
O67 C51 1.225 . S
O68 Pr40 2.436 . S
O68 Pr41 2.695 . S
O68 C58 1.270 . S
O69 Pr41 2.512 . S
O69 C58 1.248 . S
O70 Pr40 2.438 . S
O70 C59 1.267 . S
O71 Pr41 2.437 . S
O71 C59 1.278 . S
H72 C44 0.929 . S
H73 C45 0.929 . S
H74 C47 0.931 . S
H75 C48 0.930 . S
H76 C53 0.929 . S
H77 C54 0.929 . S
H78 C56 0.931 . S
H79 C57 0.930 . S
Pr80 C82 2.880 . S
Pr80 O100 2.562 . S
Pr80 O101 2.490 . S
Pr80 O102 2.695 . S
Pr80 O103 2.512 . S
Pr80 O105 2.437 . S
Pr80 O108 2.436 . S
Pr80 O110 2.438 . S
Pr81 C91 2.880 . S
Pr81 O102 2.436 . S
Pr81 O104 2.438 . S
Pr81 O106 2.562 . S
Pr81 O107 2.490 . S
Pr81 O108 2.695 . S
Pr81 O109 2.512 . S
Pr81 O111 2.437 . S
C82 Pr80 2.880 . S
C82 C83 1.491 1_556 S
C82 O100 1.254 . S
C82 O101 1.225 . S
C83 C82 1.491 1_554 S
C83 C84 1.392 . S
C83 C88 1.356 . S
C84 C83 1.392 . S
C84 C85 1.368 . S
C84 H112 0.929 . S
C85 C84 1.368 . S
C85 C86 1.386 . S
C85 H113 0.929 . S
C86 C85 1.386 . S
C86 C87 1.373 . S
C87 C86 1.373 . S
C87 C88 1.409 . S
C87 H114 0.931 . S
C88 C83 1.356 . S
C88 C87 1.409 . S
C88 H115 0.930 . S
C89 O102 1.270 . S
C89 O103 1.248 . S
C90 O104 1.267 . S
C90 O105 1.278 . S
C91 Pr81 2.880 . S
C91 C92 1.491 . S
C91 O106 1.254 . S
C91 O107 1.225 . S
C92 C91 1.491 . S
C92 C93 1.392 . S
C92 C97 1.356 . S
C93 C92 1.392 . S
C93 C94 1.368 . S
C93 H116 0.929 . S
C94 C93 1.368 . S
C94 C95 1.386 . S
C94 H117 0.929 . S
C95 C94 1.386 . S
C95 C96 1.373 . S
C96 C95 1.373 . S
C96 C97 1.409 . S
C96 H118 0.931 . S
C97 C92 1.356 . S
C97 C96 1.409 . S
C97 H119 0.930 . S
C98 O108 1.270 . S
C98 O109 1.248 . S
C99 O110 1.267 . S
C99 O111 1.278 . S
O100 Pr80 2.562 . S
O100 C82 1.254 . S
O101 Pr80 2.490 . S
O101 C82 1.225 . S
O102 Pr80 2.695 . S
O102 Pr81 2.436 . S
O102 C89 1.270 . S
O103 Pr80 2.512 . S
O103 C89 1.248 . S
O104 Pr81 2.438 . S
O104 C90 1.267 . S
O105 Pr80 2.437 . S
O105 C90 1.278 . S
O106 Pr81 2.562 . S
O106 C91 1.254 . S
O107 Pr81 2.490 . S
O107 C91 1.225 . S
O108 Pr80 2.436 . S
O108 Pr81 2.695 . S
O108 C98 1.270 . S
O109 Pr81 2.512 . S
O109 C98 1.248 . S
O110 Pr80 2.438 . S
O110 C99 1.267 . S
O111 Pr81 2.437 . S
O111 C99 1.278 . S
H112 C84 0.929 . S
H113 C85 0.929 . S
H114 C87 0.931 . S
H115 C88 0.930 . S
H116 C93 0.929 . S
H117 C94 0.929 . S
H118 C96 0.931 . S
H119 C97 0.930 . S
Pr120 C122 2.880 . S
Pr120 O140 2.562 . S
Pr120 O141 2.490 . S
Pr120 O142 2.695 . S
Pr120 O143 2.512 . S
Pr120 O145 2.437 . S
Pr120 O148 2.436 . S
Pr120 O150 2.438 . S
Pr121 C131 2.880 . S
Pr121 O142 2.436 . S
Pr121 O144 2.438 . S
Pr121 O146 2.562 . S
Pr121 O147 2.490 . S
Pr121 O148 2.695 . S
Pr121 O149 2.512 . S
Pr121 O151 2.437 . S
C122 Pr120 2.880 . S
C122 C123 1.491 1_554 S
C122 O140 1.254 . S
C122 O141 1.225 . S
C123 C122 1.491 1_556 S
C123 C124 1.392 . S
C123 C128 1.356 . S
C124 C123 1.392 . S
C124 C125 1.368 . S
C124 H152 0.929 . S
C125 C124 1.368 . S
C125 C126 1.386 . S
C125 H153 0.929 . S
C126 C125 1.386 . S
C126 C127 1.373 . S
C127 C126 1.373 . S
C127 C128 1.409 . S
C127 H154 0.931 . S
C128 C123 1.356 . S
C128 C127 1.409 . S
C128 H155 0.930 . S
C129 O142 1.270 . S
C129 O143 1.248 . S
C130 O144 1.267 . S
C130 O145 1.278 . S
C131 Pr121 2.880 . S
C131 C132 1.491 . S
C131 O146 1.254 . S
C131 O147 1.225 . S
C132 C131 1.491 . S
C132 C133 1.392 . S
C132 C137 1.356 . S
C133 C132 1.392 . S
C133 C134 1.368 . S
C133 H156 0.929 . S
C134 C133 1.368 . S
C134 C135 1.386 . S
C134 H157 0.929 . S
C135 C134 1.386 . S
C135 C136 1.373 . S
C136 C135 1.373 . S
C136 C137 1.409 . S
C136 H158 0.931 . S
C137 C132 1.356 . S
C137 C136 1.409 . S
C137 H159 0.930 . S
C138 O148 1.270 . S
C138 O149 1.248 . S
C139 O150 1.267 . S
C139 O151 1.278 . S
O140 Pr120 2.562 . S
O140 C122 1.254 . S
O141 Pr120 2.490 . S
O141 C122 1.225 . S
O142 Pr120 2.695 . S
O142 Pr121 2.436 . S
O142 C129 1.270 . S
O143 Pr120 2.512 . S
O143 C129 1.248 . S
O144 Pr121 2.438 . S
O144 C130 1.267 . S
O145 Pr120 2.437 . S
O145 C130 1.278 . S
O146 Pr121 2.562 . S
O146 C131 1.254 . S
O147 Pr121 2.490 . S
O147 C131 1.225 . S
O148 Pr120 2.436 . S
O148 Pr121 2.695 . S
O148 C138 1.270 . S
O149 Pr121 2.512 . S
O149 C138 1.248 . S
O150 Pr120 2.438 . S
O150 C139 1.267 . S
O151 Pr121 2.437 . S
O151 C139 1.278 . S
H152 C124 0.929 . S
H153 C125 0.929 . S
H154 C127 0.931 . S
H155 C128 0.930 . S
H156 C133 0.929 . S
H157 C134 0.929 . S
H158 C136 0.931 . S
H159 C137 0.930 . S
Pr160 C162 2.880 . S
Pr160 O180 2.562 . S
Pr160 O181 2.490 . S
Pr160 O182 2.695 . S
Pr160 O183 2.512 . S
Pr160 O185 2.437 . S
Pr160 O188 2.436 . S
Pr160 O190 2.438 . S
Pr161 C171 2.880 . S
Pr161 O182 2.436 . S
Pr161 O184 2.438 . S
Pr161 O186 2.562 . S
Pr161 O187 2.490 . S
Pr161 O188 2.695 . S
Pr161 O189 2.512 . S
Pr161 O191 2.437 . S
C162 Pr160 2.880 . S
C162 C163 1.491 . S
C162 O180 1.254 . S
C162 O181 1.225 . S
C163 C162 1.491 . S
C163 C164 1.392 . S
C163 C168 1.356 . S
C164 C163 1.392 . S
C164 C165 1.368 . S
C164 H192 0.929 . S
C165 C164 1.368 . S
C165 C166 1.386 . S
C165 H193 0.929 . S
C166 C165 1.386 . S
C166 C167 1.373 . S
C167 C166 1.373 . S
C167 C168 1.409 . S
C167 H194 0.931 . S
C168 C163 1.356 . S
C168 C167 1.409 . S
C168 H195 0.930 . S
C169 O182 1.270 . S
C169 O183 1.248 . S
C170 O184 1.267 . S
C170 O185 1.278 . S
C171 Pr161 2.880 . S
C171 C172 1.491 . S
C171 O186 1.254 . S
C171 O187 1.225 . S
C172 C171 1.491 . S
C172 C173 1.392 . S
C172 C177 1.356 . S
C173 C172 1.392 . S
C173 C174 1.368 . S
C173 H196 0.929 . S
C174 C173 1.368 . S
C174 C175 1.386 . S
C174 H197 0.929 . S
C175 C174 1.386 . S
C175 C176 1.373 . S
C176 C175 1.373 . S
C176 C177 1.409 . S
C176 H198 0.931 . S
C177 C172 1.356 . S
C177 C176 1.409 . S
C177 H199 0.930 . S
C178 O188 1.270 . S
C178 O189 1.248 . S
C179 O190 1.267 . S
C179 O191 1.278 . S
O180 Pr160 2.562 . S
O180 C162 1.254 . S
O181 Pr160 2.490 . S
O181 C162 1.225 . S
O182 Pr160 2.695 . S
O182 Pr161 2.436 . S
O182 C169 1.270 . S
O183 Pr160 2.512 . S
O183 C169 1.248 . S
O184 Pr161 2.438 . S
O184 C170 1.267 . S
O185 Pr160 2.437 . S
O185 C170 1.278 . S
O186 Pr161 2.562 . S
O186 C171 1.254 . S
O187 Pr161 2.490 . S
O187 C171 1.225 . S
O188 Pr160 2.436 . S
O188 Pr161 2.695 . S
O188 C178 1.270 . S
O189 Pr161 2.512 . S
O189 C178 1.248 . S
O190 Pr160 2.438 . S
O190 C179 1.267 . S
O191 Pr161 2.437 . S
O191 C179 1.278 . S
H192 C164 0.929 . S
H193 C165 0.929 . S
H194 C167 0.931 . S
H195 C168 0.930 . S
H196 C173 0.929 . S
H197 C174 0.929 . S
H198 C176 0.931 . S
H199 C177 0.930 . S
Pr200 C202 2.880 . S
Pr200 O220 2.562 . S
Pr200 O221 2.490 . S
Pr200 O222 2.695 . S
Pr200 O223 2.512 . S
Pr200 O225 2.437 . S
Pr200 O228 2.436 . S
Pr200 O230 2.438 . S
Pr201 C211 2.880 1_556 S
Pr201 O222 2.436 . S
Pr201 O224 2.438 . S
Pr201 O226 2.562 1_556 S
Pr201 O227 2.490 1_556 S
Pr201 O228 2.695 . S
Pr201 O229 2.512 . S
Pr201 O231 2.437 1_556 S
C202 Pr200 2.880 . S
C202 C203 1.491 . S
C202 O220 1.254 . S
C202 O221 1.225 . S
C203 C202 1.491 . S
C203 C204 1.392 . S
C203 C208 1.356 . S
C204 C203 1.392 . S
C204 C205 1.368 . S
C204 H232 0.929 . S
C205 C204 1.368 . S
C205 C206 1.386 . S
C205 H233 0.929 . S
C206 C205 1.386 . S
C206 C207 1.373 . S
C207 C206 1.373 . S
C207 C208 1.409 . S
C207 H234 0.931 . S
C208 C203 1.356 . S
C208 C207 1.409 . S
C208 H235 0.930 . S
C209 O222 1.270 . S
C209 O223 1.248 . S
C210 O224 1.267 . S
C210 O225 1.278 . S
C211 Pr201 2.880 1_554 S
C211 C212 1.491 . S
C211 O226 1.254 . S
C211 O227 1.225 . S
C212 C211 1.491 . S
C212 C213 1.392 . S
C212 C217 1.356 . S
C213 C212 1.392 . S
C213 C214 1.368 . S
C213 H236 0.929 . S
C214 C213 1.368 . S
C214 C215 1.386 . S
C214 H237 0.929 . S
C215 C214 1.386 . S
C215 C216 1.373 . S
C216 C215 1.373 . S
C216 C217 1.409 . S
C216 H238 0.931 . S
C217 C212 1.356 . S
C217 C216 1.409 . S
C217 H239 0.930 . S
C218 O228 1.270 . S
C218 O229 1.248 . S
C219 O230 1.267 . S
C219 O231 1.278 1_556 S
O220 Pr200 2.562 . S
O220 C202 1.254 . S
O221 Pr200 2.490 . S
O221 C202 1.225 . S
O222 Pr200 2.695 . S
O222 Pr201 2.436 . S
O222 C209 1.270 . S
O223 Pr200 2.512 . S
O223 C209 1.248 . S
O224 Pr201 2.438 . S
O224 C210 1.267 . S
O225 Pr200 2.437 . S
O225 C210 1.278 . S
O226 Pr201 2.562 1_554 S
O226 C211 1.254 . S
O227 Pr201 2.490 1_554 S
O227 C211 1.225 . S
O228 Pr200 2.436 . S
O228 Pr201 2.695 . S
O228 C218 1.270 . S
O229 Pr201 2.512 . S
O229 C218 1.248 . S
O230 Pr200 2.438 . S
O230 C219 1.267 . S
O231 Pr201 2.437 1_554 S
O231 C219 1.278 1_554 S
H232 C204 0.929 . S
H233 C205 0.929 . S
H234 C207 0.931 . S
H235 C208 0.930 . S
H236 C213 0.929 . S
H237 C214 0.929 . S
H238 C216 0.931 . S
H239 C217 0.930 . S
C240 C241 1.369 . S
C240 C242 1.419 . S
C240 H244 0.930 . S
C241 C240 1.369 . S
C241 C250 1.429 1_556 S
C242 C240 1.419 . S
C242 C243 1.363 1_556 S
C242 H245 0.929 . S
C243 C242 1.363 1_554 S
C243 C249 1.428 . S
H244 C240 0.930 . S
H245 C242 0.929 . S
S246 N247 1.613 . S
S246 N248 1.610 . S
N247 S246 1.613 . S
N247 C250 1.350 . S
N248 S246 1.610 . S
N248 C249 1.351 . S
C249 C243 1.428 . S
C249 N248 1.351 . S
C249 C250 1.434 . S
C250 C241 1.429 1_554 S
C250 N247 1.350 . S
C250 C249 1.434 . S
C251 C252 1.369 1_655 S
C251 C253 1.419 . S
C251 H255 0.930 . S
C252 C251 1.369 1_455 S
C252 C261 1.429 . S
C253 C251 1.419 . S
C253 C254 1.363 . S
C253 H256 0.929 . S
C254 C253 1.363 . S
C254 C260 1.428 1_655 S
H255 C251 0.930 . S
H256 C253 0.929 . S
S257 N258 1.613 . S
S257 N259 1.610 . S
N258 S257 1.613 . S
N258 C261 1.350 . S
N259 S257 1.610 . S
N259 C260 1.351 . S
C260 C254 1.428 1_455 S
C260 N259 1.351 . S
C260 C261 1.434 . S
C261 C252 1.429 . S
C261 N258 1.350 . S
C261 C260 1.434 . S
C262 C263 1.369 . S
C262 C264 1.419 1_545 S
C262 H266 0.930 1_545 S
C263 C262 1.369 . S
C263 C272 1.429 . S
C264 C262 1.419 1_565 S
C264 C265 1.363 . S
C264 H267 0.929 . S
C265 C264 1.363 . S
C265 C271 1.423 1_565 S
H266 C262 0.930 1_565 S
H267 C264 0.929 . S
S268 N269 1.613 . S
S268 N270 1.610 . S
N269 S268 1.613 . S
N269 C272 1.350 . S
N270 S268 1.610 . S
N270 C271 1.351 . S
C271 C265 1.423 1_545 S
C271 N270 1.351 . S
C271 C272 1.440 . S
C272 C263 1.429 . S
C272 N269 1.350 . S
C272 C271 1.440 . S
C273 C274 1.369 . S
C273 C275 1.419 1_556 S
C273 H277 0.930 . S
C274 C273 1.369 . S
C274 C283 1.429 . S
C275 C273 1.419 1_554 S
C275 C276 1.363 . S
C275 H278 0.929 . S
C276 C275 1.363 . S
C276 C282 1.428 . S
H277 C273 0.930 . S
H278 C275 0.929 . S
S279 N280 1.613 1_554 S
S279 N281 1.610 . S
N280 S279 1.613 1_556 S
N280 C283 1.350 . S
N281 S279 1.610 . S
N281 C282 1.351 . S
C282 C276 1.428 . S
C282 N281 1.351 . S
C282 C283 1.434 1_554 S
C283 C274 1.429 . S
C283 N280 1.350 . S
C283 C282 1.434 1_556 S
C284 C285 1.369 . S
C284 C286 1.419 1_455 S
C284 H288 0.930 . S
C285 C284 1.369 . S
C285 C294 1.429 . S
C286 C284 1.419 1_655 S
C286 C287 1.363 . S
C286 H289 0.929 . S
C287 C286 1.363 . S
C287 C293 1.428 . S
H288 C284 0.930 . S
H289 C286 0.929 . S
S290 N291 1.613 . S
S290 N292 1.610 1_455 S
N291 S290 1.613 . S
N291 C294 1.350 . S
N292 S290 1.610 1_655 S
N292 C293 1.351 . S
C293 C287 1.428 . S
C293 N292 1.351 . S
C293 C294 1.434 1_655 S
C294 C285 1.429 . S
C294 N291 1.350 . S
C294 C293 1.434 1_455 S
C295 C296 1.369 1_565 S
C295 C297 1.419 . S
C295 H299 0.930 . S
C296 C295 1.369 1_545 S
C296 C305 1.429 . S
C297 C295 1.419 . S
C297 C298 1.363 . S
C297 H300 0.929 . S
C298 C297 1.363 . S
C298 C304 1.428 1_565 S
H299 C295 0.930 . S
H300 C297 0.929 . S
S301 N302 1.613 . S
S301 N303 1.610 . S
N302 S301 1.613 . S
N302 C305 1.350 . S
N303 S301 1.610 . S
N303 C304 1.351 . S
C304 C298 1.428 1_545 S
C304 N303 1.351 . S
C304 C305 1.434 . S
C305 C296 1.429 . S
C305 N302 1.350 . S
C305 C304 1.434 . S
C306 C307 1.369 . S
C306 C308 1.419 . S
C306 H310 0.930 . S
C307 C306 1.369 . S
C307 C316 1.429 . S
C308 C306 1.419 . S
C308 C309 1.363 . S
C308 H311 0.929 . S
C309 C308 1.363 . S
C309 C315 1.428 . S
H310 C306 0.930 . S
H311 C308 0.929 . S
S312 N313 1.613 . S
S312 N314 1.610 . S
N313 S312 1.613 . S
N313 C316 1.350 . S
N314 S312 1.610 . S
N314 C315 1.351 . S
C315 C309 1.428 . S
C315 N314 1.351 . S
C315 C316 1.434 . S
C316 C307 1.429 . S
C316 N313 1.350 . S
C316 C315 1.434 . S
C317 C318 1.369 . S
C317 C319 1.419 . S
C317 H321 0.930 . S
C318 C317 1.369 . S
C318 C327 1.429 . S
C319 C317 1.419 . S
C319 C320 1.363 . S
C319 H322 0.929 . S
C320 C319 1.363 . S
C320 C326 1.428 . S
H321 C317 0.930 . S
H322 C319 0.929 . S
S323 N324 1.613 1_556 S
S323 N325 1.610 . S
N324 S323 1.613 1_554 S
N324 C327 1.350 . S
N325 S323 1.610 . S
N325 C326 1.351 1_556 S
C326 C320 1.428 . S
C326 N325 1.351 1_554 S
C326 C327 1.434 . S
C327 C318 1.429 . S
C327 N324 1.350 . S
C327 C326 1.434 . S
C328 C329 1.369 . S
C328 C330 1.419 . S
C328 H332 0.930 . S
C329 C328 1.369 . S
C329 C338 1.429 . S
C330 C328 1.419 . S
C330 C331 1.363 . S
C330 H333 0.929 . S
C331 C330 1.363 . S
C331 C337 1.428 . S
H332 C328 0.930 . S
H333 C330 0.929 . S
S334 N335 1.613 . S
S334 N336 1.610 . S
N335 S334 1.613 . S
N335 C338 1.350 . S
N336 S334 1.610 . S
N336 C337 1.351 . S
C337 C331 1.428 . S
C337 N336 1.351 . S
C337 C338 1.434 . S
C338 C329 1.429 . S
C338 N335 1.350 . S
C338 C337 1.434 . S
C339 C340 1.369 . S
C339 C341 1.419 . S
C339 H343 0.930 . S
C340 C339 1.369 . S
C340 C349 1.429 . S
C341 C339 1.419 . S
C341 C342 1.363 . S
C341 H344 0.929 . S
C342 C341 1.363 . S
C342 C348 1.428 . S
H343 C339 0.930 . S
H344 C341 0.929 . S
S345 N346 1.613 . S
S345 N347 1.610 . S
N346 S345 1.613 . S
N346 C349 1.350 . S
N347 S345 1.610 . S
N347 C348 1.351 . S
C348 C342 1.428 . S
C348 N347 1.351 . S
C348 C349 1.434 . S
C349 C340 1.429 . S
C349 N346 1.350 . S
C349 C348 1.434 . S
C350 C351 1.369 . S
C350 C352 1.419 . S
C350 H354 0.930 . S
C351 C350 1.369 . S
C351 C360 1.429 . S
C352 C350 1.419 . S
C352 C353 1.363 . S
C352 H355 0.929 1_556 S
C353 C352 1.363 . S
C353 C359 1.428 . S
H354 C350 0.930 . S
H355 C352 0.929 1_554 S
S356 N357 1.613 . S
S356 N358 1.610 . S
N357 S356 1.613 . S
N357 C360 1.350 . S
N358 S356 1.610 . S
N358 C359 1.351 . S
C359 C353 1.428 . S
C359 N358 1.351 . S
C359 C360 1.434 . S
C360 C351 1.429 . S
C360 N357 1.350 . S
C360 C359 1.434 . S
C361 C362 1.369 . S
C361 C363 1.419 . S
C361 H365 0.930 . S
C362 C361 1.369 . S
C362 C371 1.429 . S
C363 C361 1.419 . S
C363 C364 1.363 . S
C363 H366 0.929 . S
C364 C363 1.363 . S
C364 C370 1.428 . S
H365 C361 0.930 . S
H366 C363 0.929 . S
S367 N368 1.613 1_565 S
S367 N369 1.610 . S
N368 S367 1.613 1_545 S
N368 C371 1.350 . S
N369 S367 1.610 . S
N369 C370 1.351 1_565 S
C370 C364 1.428 . S
C370 N369 1.351 1_545 S
C370 C371 1.434 . S
C371 C362 1.429 . S
C371 N368 1.350 . S
C371 C370 1.434 . S
C372 C373 1.369 . S
C372 C374 1.419 . S
C372 H376 0.930 . S
C373 C372 1.369 . S
C373 C382 1.429 . S
C374 C372 1.419 . S
C374 C375 1.363 . S
C374 H377 0.929 . S
C375 C374 1.363 . S
C375 C381 1.428 . S
H376 C372 0.930 . S
H377 C374 0.929 . S
S378 N379 1.613 . S
S378 N380 1.610 . S
N379 S378 1.613 . S
N379 C382 1.350 . S
N380 S378 1.610 . S
N380 C381 1.351 . S
C381 C375 1.428 . S
C381 N380 1.351 . S
C381 C382 1.434 . S
C382 C373 1.429 . S
C382 N379 1.350 . S
C382 C381 1.434 . S
C383 C384 1.369 . S
C383 C385 1.419 . S
C383 H387 0.930 . S
C384 C383 1.369 . S
C384 C393 1.429 . S
C385 C383 1.419 . S
C385 C386 1.363 . S
C385 H388 0.929 . S
C386 C385 1.363 . S
C386 C392 1.428 . S
H387 C383 0.930 . S
H388 C385 0.929 . S
S389 N390 1.613 . S
S389 N391 1.610 . S
N390 S389 1.613 . S
N390 C393 1.350 . S
N391 S389 1.610 . S
N391 C392 1.351 . S
C392 C386 1.428 . S
C392 N391 1.351 . S
C392 C393 1.434 . S
C393 C384 1.429 . S
C393 N390 1.350 . S
C393 C392 1.434 . S
C394 C395 1.369 . S
C394 C396 1.419 . S
C394 H398 0.930 1_556 S
C395 C394 1.369 . S
C395 C404 1.429 . S
C396 C394 1.419 . S
C396 C397 1.363 . S
C396 H399 0.929 . S
C397 C396 1.363 . S
C397 C403 1.428 . S
H398 C394 0.930 1_554 S
H399 C396 0.929 . S
S400 N401 1.613 . S
S400 N402 1.610 . S
N401 S400 1.613 . S
N401 C404 1.350 . S
N402 S400 1.610 . S
N402 C403 1.351 . S
C403 C397 1.428 . S
C403 N402 1.351 . S
C403 C404 1.434 . S
C404 C395 1.429 . S
C404 N401 1.350 . S
C404 C403 1.434 . S
C405 C406 1.369 . S
C405 C407 1.419 . S
C405 H409 0.930 . S
C406 C405 1.369 . S
C406 C415 1.429 . S
C407 C405 1.419 . S
C407 C408 1.363 . S
C407 H410 0.929 . S
C408 C407 1.363 . S
C408 C414 1.428 . S
H409 C405 0.930 . S
H410 C407 0.929 . S
S411 N412 1.613 . S
S411 N413 1.610 . S
N412 S411 1.613 . S
N412 C415 1.350 . S
N413 S411 1.610 . S
N413 C414 1.351 . S
C414 C408 1.428 . S
C414 N413 1.351 . S
C414 C415 1.434 . S
C415 C406 1.429 . S
C415 N412 1.350 . S
C415 C414 1.434 . S
C416 C417 1.369 . S
C416 C418 1.419 . S
C416 H420 0.930 . S
C417 C416 1.369 . S
C417 C426 1.429 . S
C418 C416 1.419 . S
C418 C419 1.363 . S
C418 H421 0.929 . S
C419 C418 1.363 . S
C419 C425 1.428 . S
H420 C416 0.930 . S
H421 C418 0.929 . S
S422 N423 1.613 . S
S422 N424 1.610 . S
N423 S422 1.613 . S
N423 C426 1.350 . S
N424 S422 1.610 . S
N424 C425 1.351 . S
C425 C419 1.428 . S
C425 N424 1.351 . S
C425 C426 1.434 . S
C426 C417 1.429 . S
C426 N423 1.350 . S
C426 C425 1.434 . S
C427 C428 1.369 . S
C427 C429 1.419 . S
C427 H431 0.930 . S
C428 C427 1.369 . S
C428 C437 1.429 . S
C429 C427 1.419 . S
C429 C430 1.363 . S
C429 H432 0.929 . S
C430 C429 1.363 . S
C430 C436 1.428 . S
H431 C427 0.930 . S
H432 C429 0.929 . S
S433 N434 1.613 . S
S433 N435 1.610 . S
N434 S433 1.613 . S
N434 C437 1.350 . S
N435 S433 1.610 . S
N435 C436 1.351 . S
C436 C430 1.428 . S
C436 N435 1.351 . S
C436 C437 1.434 . S
C437 C428 1.429 . S
C437 N434 1.350 . S
C437 C436 1.434 . S
C241 C209 1.444 . S
C243 C9 1.440 . S
C252 C10 1.998 . S
C254 C50 2.001 . S
C263 C49 1.446 . S
C265 C89 1.441 . S
C274 C90 2.000 . S
C276 C130 1.999 . S
C285 C169 1.447 . S
C287 C129 1.446 . S
C296 C210 1.997 . S
C298 C170 2.002 . S
C307 C15 1.896 . S
C309 C6 1.888 . S
C318 C46 1.897 . S
C320 C55 1.887 1_554 S
C329 C95 1.889 . S
C331 C86 1.893 . S
C340 C126 1.895 . S
C342 C135 1.889 . S
C351 C166 1.889 . S
C353 C175 1.894 1_556 S
C362 C206 1.888 . S
C364 C215 1.895 . S
C373 C18 1.952 . S
C375 C179 1.961 . S
C384 C59 1.961 . S
C386 C218 1.949 . S
C395 C19 1.961 1_556 S
C397 C98 1.951 . S
C406 C58 1.950 . S
C408 C139 1.961 . S
C417 C178 1.950 . S
C419 C99 1.961 . S
C428 C138 1.949 . S
C430 C219 1.961 1_554 S
