# Generated by pormake.
# Topology vcc, (6)-cn, num edge types: 1
# Building blocks:
#     Node 0, Type 0, BuildingBlock: CUKXOW_clean_sbu_0, # of connection points: 6
#     Node 1, Type 0, BuildingBlock: CUKXOW_clean_sbu_0, # of connection points: 6
#     Node 2, Type 0, BuildingBlock: CUKXOW_clean_sbu_0, # of connection points: 6
#     Node 3, Type 0, BuildingBlock: CUKXOW_clean_sbu_0, # of connection points: 6
#     Node 4, Type 0, BuildingBlock: CUKXOW_clean_sbu_0, # of connection points: 6
#     Node 5, Type 0, BuildingBlock: CUKXOW_clean_sbu_0, # of connection points: 6
#     Node 6, Type 0, BuildingBlock: CUKXOW_clean_sbu_0, # of connection points: 6
#     Node 7, Type 0, BuildingBlock: CUKXOW_clean_sbu_0, # of connection points: 6
#     Node 8, Type 0, BuildingBlock: CUKXOW_clean_sbu_0, # of connection points: 6
#     Node 9, Type 0, BuildingBlock: CUKXOW_clean_sbu_0, # of connection points: 6
#     Node 10, Type 0, BuildingBlock: CUKXOW_clean_sbu_0, # of connection points: 6
#     Node 11, Type 0, BuildingBlock: CUKXOW_clean_sbu_0, # of connection points: 6
#     Node 12, Type 0, BuildingBlock: CUKXOW_clean_sbu_0, # of connection points: 6
#     Node 13, Type 0, BuildingBlock: CUKXOW_clean_sbu_0, # of connection points: 6
#     Node 14, Type 0, BuildingBlock: CUKXOW_clean_sbu_0, # of connection points: 6
#     Node 15, Type 0, BuildingBlock: CUKXOW_clean_sbu_0, # of connection points: 6
#     Node 16, Type 0, BuildingBlock: CUKXOW_clean_sbu_0, # of connection points: 6
#     Node 17, Type 0, BuildingBlock: CUKXOW_clean_sbu_0, # of connection points: 6
#     Node 18, Type 0, BuildingBlock: CUKXOW_clean_sbu_0, # of connection points: 6
#     Node 19, Type 0, BuildingBlock: CUKXOW_clean_sbu_0, # of connection points: 6
#     Node 20, Type 0, BuildingBlock: CUKXOW_clean_sbu_0, # of connection points: 6
#     Node 21, Type 0, BuildingBlock: CUKXOW_clean_sbu_0, # of connection points: 6
#     Node 22, Type 0, BuildingBlock: CUKXOW_clean_sbu_0, # of connection points: 6
#     Node 23, Type 0, BuildingBlock: CUKXOW_clean_sbu_0, # of connection points: 6
#     Node 24, Type 0, BuildingBlock: CUKXOW_clean_sbu_0, # of connection points: 6
#     Node 25, Type 0, BuildingBlock: CUKXOW_clean_sbu_0, # of connection points: 6
#     Node 26, Type 0, BuildingBlock: CUKXOW_clean_sbu_0, # of connection points: 6
#     Node 27, Type 0, BuildingBlock: CUKXOW_clean_sbu_0, # of connection points: 6
#     Node 28, Type 0, BuildingBlock: CUKXOW_clean_sbu_0, # of connection points: 6
#     Node 29, Type 0, BuildingBlock: CUKXOW_clean_sbu_0, # of connection points: 6
#     Node 30, Type 0, BuildingBlock: CUKXOW_clean_sbu_0, # of connection points: 6
#     Node 31, Type 0, BuildingBlock: CUKXOW_clean_sbu_0, # of connection points: 6
#     Edge 32, Type (0, 0), BuildingBlock: UVAHIK_clean_linker_0, # of connection points: 2
#     Edge 33, Type (0, 0), BuildingBlock: UVAHIK_clean_linker_0, # of connection points: 2
#     Edge 34, Type (0, 0), BuildingBlock: UVAHIK_clean_linker_0, # of connection points: 2
#     Edge 35, Type (0, 0), BuildingBlock: UVAHIK_clean_linker_0, # of connection points: 2
#     Edge 36, Type (0, 0), BuildingBlock: UVAHIK_clean_linker_0, # of connection points: 2
#     Edge 37, Type (0, 0), BuildingBlock: UVAHIK_clean_linker_0, # of connection points: 2
#     Edge 38, Type (0, 0), BuildingBlock: UVAHIK_clean_linker_0, # of connection points: 2
#     Edge 39, Type (0, 0), BuildingBlock: UVAHIK_clean_linker_0, # of connection points: 2
#     Edge 40, Type (0, 0), BuildingBlock: UVAHIK_clean_linker_0, # of connection points: 2
#     Edge 41, Type (0, 0), BuildingBlock: UVAHIK_clean_linker_0, # of connection points: 2
#     Edge 42, Type (0, 0), BuildingBlock: UVAHIK_clean_linker_0, # of connection points: 2
#     Edge 43, Type (0, 0), BuildingBlock: UVAHIK_clean_linker_0, # of connection points: 2
#     Edge 44, Type (0, 0), BuildingBlock: UVAHIK_clean_linker_0, # of connection points: 2
#     Edge 45, Type (0, 0), BuildingBlock: UVAHIK_clean_linker_0, # of connection points: 2
#     Edge 46, Type (0, 0), BuildingBlock: UVAHIK_clean_linker_0, # of connection points: 2
#     Edge 47, Type (0, 0), BuildingBlock: UVAHIK_clean_linker_0, # of connection points: 2
#     Edge 48, Type (0, 0), BuildingBlock: UVAHIK_clean_linker_0, # of connection points: 2
#     Edge 49, Type (0, 0), BuildingBlock: UVAHIK_clean_linker_0, # of connection points: 2
#     Edge 50, Type (0, 0), BuildingBlock: UVAHIK_clean_linker_0, # of connection points: 2
#     Edge 51, Type (0, 0), BuildingBlock: UVAHIK_clean_linker_0, # of connection points: 2
#     Edge 52, Type (0, 0), BuildingBlock: UVAHIK_clean_linker_0, # of connection points: 2
#     Edge 53, Type (0, 0), BuildingBlock: UVAHIK_clean_linker_0, # of connection points: 2
#     Edge 54, Type (0, 0), BuildingBlock: UVAHIK_clean_linker_0, # of connection points: 2
#     Edge 55, Type (0, 0), BuildingBlock: UVAHIK_clean_linker_0, # of connection points: 2
#     Edge 56, Type (0, 0), BuildingBlock: UVAHIK_clean_linker_0, # of connection points: 2
#     Edge 57, Type (0, 0), BuildingBlock: UVAHIK_clean_linker_0, # of connection points: 2
#     Edge 58, Type (0, 0), BuildingBlock: UVAHIK_clean_linker_0, # of connection points: 2
#     Edge 59, Type (0, 0), BuildingBlock: UVAHIK_clean_linker_0, # of connection points: 2
#     Edge 60, Type (0, 0), BuildingBlock: UVAHIK_clean_linker_0, # of connection points: 2
#     Edge 61, Type (0, 0), BuildingBlock: UVAHIK_clean_linker_0, # of connection points: 2
#     Edge 62, Type (0, 0), BuildingBlock: UVAHIK_clean_linker_0, # of connection points: 2
#     Edge 63, Type (0, 0), BuildingBlock: UVAHIK_clean_linker_0, # of connection points: 2
#     Edge 64, Type (0, 0), BuildingBlock: UVAHIK_clean_linker_0, # of connection points: 2
#     Edge 65, Type (0, 0), BuildingBlock: UVAHIK_clean_linker_0, # of connection points: 2
#     Edge 66, Type (0, 0), BuildingBlock: UVAHIK_clean_linker_0, # of connection points: 2
#     Edge 67, Type (0, 0), BuildingBlock: UVAHIK_clean_linker_0, # of connection points: 2
#     Edge 68, Type (0, 0), BuildingBlock: UVAHIK_clean_linker_0, # of connection points: 2
#     Edge 69, Type (0, 0), BuildingBlock: UVAHIK_clean_linker_0, # of connection points: 2
#     Edge 70, Type (0, 0), BuildingBlock: UVAHIK_clean_linker_0, # of connection points: 2
#     Edge 71, Type (0, 0), BuildingBlock: UVAHIK_clean_linker_0, # of connection points: 2
#     Edge 72, Type (0, 0), BuildingBlock: UVAHIK_clean_linker_0, # of connection points: 2
#     Edge 73, Type (0, 0), BuildingBlock: UVAHIK_clean_linker_0, # of connection points: 2
#     Edge 74, Type (0, 0), BuildingBlock: UVAHIK_clean_linker_0, # of connection points: 2
#     Edge 75, Type (0, 0), BuildingBlock: UVAHIK_clean_linker_0, # of connection points: 2
#     Edge 76, Type (0, 0), BuildingBlock: UVAHIK_clean_linker_0, # of connection points: 2
#     Edge 77, Type (0, 0), BuildingBlock: UVAHIK_clean_linker_0, # of connection points: 2
#     Edge 78, Type (0, 0), BuildingBlock: UVAHIK_clean_linker_0, # of connection points: 2
#     Edge 79, Type (0, 0), BuildingBlock: UVAHIK_clean_linker_0, # of connection points: 2
#     Edge 80, Type (0, 0), BuildingBlock: UVAHIK_clean_linker_0, # of connection points: 2
#     Edge 81, Type (0, 0), BuildingBlock: UVAHIK_clean_linker_0, # of connection points: 2
#     Edge 82, Type (0, 0), BuildingBlock: UVAHIK_clean_linker_0, # of connection points: 2
#     Edge 83, Type (0, 0), BuildingBlock: UVAHIK_clean_linker_0, # of connection points: 2
#     Edge 84, Type (0, 0), BuildingBlock: UVAHIK_clean_linker_0, # of connection points: 2
#     Edge 85, Type (0, 0), BuildingBlock: UVAHIK_clean_linker_0, # of connection points: 2
#     Edge 86, Type (0, 0), BuildingBlock: UVAHIK_clean_linker_0, # of connection points: 2
#     Edge 87, Type (0, 0), BuildingBlock: UVAHIK_clean_linker_0, # of connection points: 2
#     Edge 88, Type (0, 0), BuildingBlock: UVAHIK_clean_linker_0, # of connection points: 2
#     Edge 89, Type (0, 0), BuildingBlock: UVAHIK_clean_linker_0, # of connection points: 2
#     Edge 90, Type (0, 0), BuildingBlock: UVAHIK_clean_linker_0, # of connection points: 2
#     Edge 91, Type (0, 0), BuildingBlock: UVAHIK_clean_linker_0, # of connection points: 2
#     Edge 92, Type (0, 0), BuildingBlock: UVAHIK_clean_linker_0, # of connection points: 2
#     Edge 93, Type (0, 0), BuildingBlock: UVAHIK_clean_linker_0, # of connection points: 2
#     Edge 94, Type (0, 0), BuildingBlock: UVAHIK_clean_linker_0, # of connection points: 2
#     Edge 95, Type (0, 0), BuildingBlock: UVAHIK_clean_linker_0, # of connection points: 2
#     Edge 96, Type (0, 0), BuildingBlock: UVAHIK_clean_linker_0, # of connection points: 2
#     Edge 97, Type (0, 0), BuildingBlock: UVAHIK_clean_linker_0, # of connection points: 2
#     Edge 98, Type (0, 0), BuildingBlock: UVAHIK_clean_linker_0, # of connection points: 2
#     Edge 99, Type (0, 0), BuildingBlock: UVAHIK_clean_linker_0, # of connection points: 2
#     Edge 100, Type (0, 0), BuildingBlock: UVAHIK_clean_linker_0, # of connection points: 2
#     Edge 101, Type (0, 0), BuildingBlock: UVAHIK_clean_linker_0, # of connection points: 2
#     Edge 102, Type (0, 0), BuildingBlock: UVAHIK_clean_linker_0, # of connection points: 2
#     Edge 103, Type (0, 0), BuildingBlock: UVAHIK_clean_linker_0, # of connection points: 2
#     Edge 104, Type (0, 0), BuildingBlock: UVAHIK_clean_linker_0, # of connection points: 2
#     Edge 105, Type (0, 0), BuildingBlock: UVAHIK_clean_linker_0, # of connection points: 2
#     Edge 106, Type (0, 0), BuildingBlock: UVAHIK_clean_linker_0, # of connection points: 2
#     Edge 107, Type (0, 0), BuildingBlock: UVAHIK_clean_linker_0, # of connection points: 2
#     Edge 108, Type (0, 0), BuildingBlock: UVAHIK_clean_linker_0, # of connection points: 2
#     Edge 109, Type (0, 0), BuildingBlock: UVAHIK_clean_linker_0, # of connection points: 2
#     Edge 110, Type (0, 0), BuildingBlock: UVAHIK_clean_linker_0, # of connection points: 2
#     Edge 111, Type (0, 0), BuildingBlock: UVAHIK_clean_linker_0, # of connection points: 2
#     Edge 112, Type (0, 0), BuildingBlock: UVAHIK_clean_linker_0, # of connection points: 2
#     Edge 113, Type (0, 0), BuildingBlock: UVAHIK_clean_linker_0, # of connection points: 2
#     Edge 114, Type (0, 0), BuildingBlock: UVAHIK_clean_linker_0, # of connection points: 2
#     Edge 115, Type (0, 0), BuildingBlock: UVAHIK_clean_linker_0, # of connection points: 2
#     Edge 116, Type (0, 0), BuildingBlock: UVAHIK_clean_linker_0, # of connection points: 2
#     Edge 117, Type (0, 0), BuildingBlock: UVAHIK_clean_linker_0, # of connection points: 2
#     Edge 118, Type (0, 0), BuildingBlock: UVAHIK_clean_linker_0, # of connection points: 2
#     Edge 119, Type (0, 0), BuildingBlock: UVAHIK_clean_linker_0, # of connection points: 2
#     Edge 120, Type (0, 0), BuildingBlock: UVAHIK_clean_linker_0, # of connection points: 2
#     Edge 121, Type (0, 0), BuildingBlock: UVAHIK_clean_linker_0, # of connection points: 2
#     Edge 122, Type (0, 0), BuildingBlock: UVAHIK_clean_linker_0, # of connection points: 2
#     Edge 123, Type (0, 0), BuildingBlock: UVAHIK_clean_linker_0, # of connection points: 2
#     Edge 124, Type (0, 0), BuildingBlock: UVAHIK_clean_linker_0, # of connection points: 2
#     Edge 125, Type (0, 0), BuildingBlock: UVAHIK_clean_linker_0, # of connection points: 2
#     Edge 126, Type (0, 0), BuildingBlock: UVAHIK_clean_linker_0, # of connection points: 2
#     Edge 127, Type (0, 0), BuildingBlock: UVAHIK_clean_linker_0, # of connection points: 2
# Relax obj value: 0.151
# Max RMSD: 0.153
# Mean RMSD: 0.152
data_MOF--net-vcc--node1-CUKXOW_clean_sbu_0--edge1-UVAHIK_clean_linker_0
_symmetry_space_group_name_H-M    P1
_symmetry_Int_Tables_number       1
_symmetry_cell_setting            triclinic
loop_
_symmetry_equiv_pos_as_xyz
'x, y, z'
_cell_length_a     68.29282
_cell_length_b     75.665851
_cell_length_c     47.023695
_cell_angle_alpha  89.873251
_cell_angle_beta   90.016129
_cell_angle_gamma 89.724113
loop_
_atom_site_label
_atom_site_type_symbol
_atom_site_fract_x
_atom_site_fract_y
_atom_site_fract_z
_atom_type_partial_charge
Tb0 Tb 0.2309 0.99901 0.13623 0.0
C1 C 0.2373 0.04013 0.14888 0.0
Tb2 Tb 0.26662 0.0093 0.15219 0.0
O3 O 0.22555 0.98469 0.17543 0.0
O4 O 0.23988 0.00886 0.17726 0.0
O5 O 0.22521 0.02812 0.13807 0.0
C6 C 0.30205 0.01616 0.17282 0.0
O7 O 0.25481 0.03546 0.15767 0.0
C8 C 0.2632 0.0117 0.09564 0.0
C9 C 0.26104 0.96878 0.14652 0.0
O10 O 0.28581 0.0181 0.18661 0.0
O11 O 0.29841 0.00988 0.14793 0.0
O12 O 0.27057 0.02356 0.11214 0.0
O13 O 0.25717 0.99913 0.11133 0.0
O14 O 0.27065 0.98108 0.16049 0.0
O15 O 0.24544 0.97326 0.13148 0.0
C16 C 0.19746 0.99129 0.11 0.0
O17 O 0.20145 0.98809 0.1363 0.0
O18 O 0.21211 0.99936 0.0984 0.0
C19 C 0.23279 0.99639 0.19237 0.0
Tb20 Tb 0.8752 0.26169 0.13566 0.0
C21 C 0.87308 0.22011 0.14657 0.0
Tb22 Tb 0.84079 0.24838 0.15204 0.0
O23 O 0.88057 0.27504 0.17568 0.0
O24 O 0.86779 0.2502 0.17641 0.0
O25 O 0.88385 0.2332 0.136 0.0
C26 C 0.80666 0.23756 0.17277 0.0
O27 O 0.85536 0.22322 0.1562 0.0
C28 C 0.84392 0.24734 0.09534 0.0
C29 C 0.84224 0.28919 0.14734 0.0
O30 O 0.8229 0.23802 0.18688 0.0
O31 O 0.80946 0.24382 0.1476 0.0
O32 O 0.83784 0.23462 0.1114 0.0
O33 O 0.84875 0.26004 0.1115 0.0
O34 O 0.83393 0.27609 0.16127 0.0
O35 O 0.85782 0.28593 0.13161 0.0
C36 C 0.90606 0.27364 0.10719 0.0
O37 O 0.90144 0.27777 0.13291 0.0
O38 O 0.89387 0.26196 0.09782 0.0
C39 C 0.87421 0.26263 0.19211 0.0
Tb40 Tb 0.23192 0.25866 0.26948 0.0
C41 C 0.24009 0.21939 0.2476 0.0
Tb42 Tb 0.2662 0.25179 0.24859 0.0
O43 O 0.22003 0.27265 0.23298 0.0
O44 O 0.23839 0.25101 0.2259 0.0
O45 O 0.22938 0.2291 0.26544 0.0
C46 C 0.30142 0.24912 0.22501 0.0
O47 O 0.25453 0.22709 0.23404 0.0
C48 C 0.26714 0.24874 0.30577 0.0
C49 C 0.25899 0.2912 0.25914 0.0
O50 O 0.29416 0.23824 0.24323 0.0
O51 O 0.28872 0.26135 0.21938 0.0
O52 O 0.27467 0.23778 0.28792 0.0
O53 O 0.2591 0.26086 0.29128 0.0
O54 O 0.26802 0.28019 0.24208 0.0
O55 O 0.24543 0.28487 0.27641 0.0
C56 C 0.20209 0.26131 0.30548 0.0
O57 O 0.20482 0.27121 0.28344 0.0
O58 O 0.21572 0.24941 0.30662 0.0
C59 C 0.22817 0.26297 0.21363 0.0
Tb60 Tb 0.8656 1.00176 0.26142 0.0
C61 C 0.86245 0.04124 0.23911 0.0
Tb62 Tb 0.83136 0.01268 0.24486 0.0
O63 O 0.87429 0.98706 0.22417 0.0
O64 O 0.85765 0.01008 0.2186 0.0
O65 O 0.87212 0.03073 0.25696 0.0
C66 C 0.79623 0.02362 0.22746 0.0
O67 O 0.84668 0.03494 0.22693 0.0
C68 C 0.83426 0.01486 0.30199 0.0
C69 C 0.83406 0.97239 0.25226 0.0
O70 O 0.80949 0.03334 0.2388 0.0
O71 O 0.80276 0.00758 0.22515 0.0
O72 O 0.82752 0.02693 0.28535 0.0
O73 O 0.83961 1.00222 0.28631 0.0
O74 O 0.82476 0.98487 0.23803 0.0
O75 O 0.84988 0.97659 0.267 0.0
C76 C 0.89647 0.99659 0.29485 0.0
O77 O 0.89202 0.98704 0.27306 0.0
O78 O 0.88391 0.00931 0.29733 0.0
C79 C 0.86614 0.99736 0.2056 0.0
Tb80 Tb 0.58893 0.99757 0.99382 0.0
C81 C 0.59721 0.03589 1.00241 0.0
Tb82 Tb 0.62298 1.00312 1.0223 0.0
O83 O 0.57167 0.00717 1.03039 0.0
O84 O 0.5965 0.99226 1.03776 0.0
O85 O 0.59048 0.02519 0.98283 0.0
C86 C 0.64739 0.01483 1.06186 0.0
O87 O 0.60801 0.02927 1.02332 0.0
C88 C 0.63154 0.99863 0.96806 0.0
C89 C 0.61454 0.96386 1.00699 0.0
O90 O 0.6458 0.02122 1.03644 0.0
O91 O 0.63593 1.00139 1.0646 0.0
O92 O 0.64231 0.99365 0.98934 0.0
O93 O 0.61665 0.0072 0.97751 0.0
O94 O 0.62644 0.97416 1.02173 0.0
O95 O 0.59912 0.97046 0.99394 0.0
C96 C 0.56031 0.9859 0.96044 0.0
O97 O 0.57865 0.98207 0.95759 0.0
O98 O 0.55814 0.99674 0.98142 0.0
C99 C 0.58286 1.00067 1.05 0.0
Tb100 Tb 0.02574 0.76145 0.9914 0.0
C101 C 0.02027 0.72137 0.99937 0.0
Tb102 Tb -0.00861 0.7527 1.0109 0.0
O103 O 0.03204 0.77558 1.03117 0.0
O104 O 0.01845 0.75162 1.03349 0.0
O105 O 0.03021 0.73327 0.98498 0.0
C106 C -0.03744 0.74983 1.04827 0.0
O107 O 0.00494 0.72636 1.0146 0.0
C108 C -0.01079 0.74785 0.95532 0.0
C109 C -0.00342 0.79193 0.98856 0.0
O110 O -0.03741 0.74278 1.02322 0.0
O111 O -0.0217 0.75891 1.05179 0.0
O112 O -0.01886 0.73796 0.97452 0.0
O113 O -0.0016 0.76038 0.96764 0.0
O114 O -0.01349 0.7819 1.00648 0.0
O115 O 0.01147 0.78479 0.97514 0.0
C116 C 0.06077 0.76993 0.97115 0.0
O117 O 0.04901 0.78039 0.98433 0.0
O118 O 0.05274 0.75453 0.96855 0.0
C119 C 0.02528 0.76397 1.0485 0.0
Tb120 Tb 0.57797 0.75384 0.91751 0.0
C121 C 0.58627 0.71468 0.9081 0.0
Tb122 Tb 0.61307 0.74648 0.89037 0.0
O123 O 0.5613 0.74285 0.88155 0.0
O124 O 0.58653 0.75703 0.87365 0.0
O125 O 0.57864 0.72573 0.92667 0.0
C126 C 0.63962 0.74268 0.84992 0.0
O127 O 0.59836 0.72063 0.88832 0.0
C128 C 0.61741 0.74107 0.94587 0.0
C129 C 0.60589 0.78615 0.90747 0.0
O130 O 0.62176 0.73725 0.84848 0.0
O131 O 0.64276 0.75 0.87438 0.0
O132 O 0.62528 0.73151 0.92598 0.0
O133 O 0.60747 0.75331 0.934 0.0
O134 O 0.61778 0.77522 0.8937 0.0
O135 O 0.58957 0.78041 0.91916 0.0
C136 C 0.54946 0.76731 0.94912 0.0
O137 O 0.55327 0.77175 0.92318 0.0
O138 O 0.56116 0.75467 0.95702 0.0
C139 C 0.57292 0.74842 0.86175 0.0
Tb140 Tb 0.0141 1.00203 0.9075 0.0
C141 C 0.00848 0.04116 0.90097 0.0
Tb142 Tb -0.01948 0.0106 0.87956 0.0
O143 O 0.03223 0.0119 0.87225 0.0
O144 O 0.00645 0.99884 0.86302 0.0
O145 O 0.01494 0.02955 0.91956 0.0
C146 C -0.04491 0.02684 0.84545 0.0
O147 O -0.00299 0.03578 0.88005 0.0
C148 C -0.02801 0.0042 0.93331 0.0
C149 C -0.01322 0.97038 0.89004 0.0
O150 O -0.04282 0.02981 0.87229 0.0
O151 O -0.03327 0.01412 0.83784 0.0
O152 O -0.03871 1.00003 0.91164 0.0
O153 O -0.01293 0.01264 0.92456 0.0
O154 O -0.02444 0.98193 0.87629 0.0
O155 O 0.00246 0.97553 0.90393 0.0
C156 C 0.04071 0.98744 0.94168 0.0
O157 O 0.02198 0.98643 0.94502 0.0
O158 O 0.0445 0.99709 0.91966 0.0
C159 C 0.02083 0.00682 0.85189 0.0
Tb160 Tb 0.23677 0.49662 0.63652 0.0
C161 C 0.23715 0.53719 0.65344 0.0
Tb162 Tb 0.26973 0.50954 0.66204 0.0
O163 O 0.2256 0.48328 0.67424 0.0
O164 O 0.24045 0.50692 0.6791 0.0
O165 O 0.22957 0.52547 0.63558 0.0
C166 C 0.29942 0.52131 0.6931 0.0
O167 O 0.25153 0.53241 0.67038 0.0
C168 C 0.27202 0.51112 0.60496 0.0
C169 C 0.26981 0.46901 0.6513 0.0
O170 O 0.2942 0.52735 0.66858 0.0
O171 O 0.28835 0.50811 0.69998 0.0
O172 O 0.27828 0.52302 0.62229 0.0
O173 O 0.26547 0.49859 0.61993 0.0
O174 O 0.27695 0.4815 0.66785 0.0
O175 O 0.2554 0.47286 0.63342 0.0
C176 C 0.21019 0.48867 0.59754 0.0
O177 O 0.21322 0.47988 0.62075 0.0
O178 O 0.22154 0.50229 0.59678 0.0
C179 C 0.23209 0.49449 0.69268 0.0
Tb180 Tb 0.87209 0.75748 0.63348 0.0
C181 C 0.86394 0.71871 0.65758 0.0
Tb182 Tb 0.83816 0.75159 0.65751 0.0
O183 O 0.88557 0.77157 0.6684 0.0
O184 O 0.86679 0.75053 0.67762 0.0
O185 O 0.87412 0.72797 0.63861 0.0
C186 C 0.80336 0.74938 0.68245 0.0
O187 O 0.85016 0.72685 0.67206 0.0
C188 C 0.83556 0.74844 0.60061 0.0
C189 C 0.84659 0.79088 0.64635 0.0
O190 O 0.81032 0.7384 0.66415 0.0
O191 O 0.8162 0.76148 0.68755 0.0
O192 O 0.82856 0.73754 0.61896 0.0
O193 O 0.84407 0.76046 0.61446 0.0
O194 O 0.8374 0.78005 0.66356 0.0
O195 O 0.85968 0.78436 0.62842 0.0
C196 C 0.89914 0.75771 0.59304 0.0
O197 O 0.90026 0.76626 0.61681 0.0
O198 O 0.88325 0.74853 0.59263 0.0
C199 C 0.87754 0.76247 0.68863 0.0
Tb200 Tb 0.24097 0.75671 0.761 0.0
C201 C 0.24364 0.71719 0.73963 0.0
Tb202 Tb 0.2746 0.74544 0.74557 0.0
O203 O 0.23232 0.77131 0.72353 0.0
O204 O 0.24876 0.74813 0.71829 0.0
O205 O 0.23428 0.72775 0.75763 0.0
C206 C 0.3101 0.73386 0.73129 0.0
O207 O 0.25932 0.72339 0.72711 0.0
C208 C 0.27139 0.744 0.80273 0.0
C209 C 0.27251 0.78573 0.7513 0.0
O210 O 0.29642 0.72452 0.74246 0.0
O211 O 0.30372 0.74981 0.72707 0.0
O212 O 0.27687 0.73125 0.78656 0.0
O213 O 0.26672 0.75662 0.78652 0.0
O214 O 0.28172 0.77306 0.73753 0.0
O215 O 0.25675 0.78172 0.76621 0.0
C216 C 0.21018 0.76271 0.79415 0.0
O217 O 0.21493 0.772 0.77215 0.0
O218 O 0.22232 0.74967 0.79683 0.0
C219 C 0.24031 0.76086 0.70513 0.0
Tb220 Tb 0.8727 0.49755 0.76682 0.0
C221 C 0.86834 0.53897 0.75471 0.0
Tb222 Tb 0.83772 0.50955 0.74986 0.0
O223 O 0.87912 0.48407 0.72725 0.0
O224 O 0.86489 0.5084 0.72574 0.0
O225 O 0.87985 0.52637 0.76549 0.0
C226 C 0.80311 0.51885 0.72845 0.0
O227 O 0.85082 0.53512 0.74523 0.0
C228 C 0.84065 0.51099 0.80653 0.0
C229 C 0.84138 0.46884 0.75509 0.0
O230 O 0.81941 0.51865 0.71446 0.0
O231 O 0.80617 0.51323 0.75397 0.0
O232 O 0.83433 0.52358 0.7903 0.0
O233 O 0.84598 0.49832 0.79057 0.0
O234 O 0.83238 0.48161 0.7411 0.0
O235 O 0.85679 0.47261 0.77083 0.0
C236 C 0.90434 0.48789 0.79608 0.0
O237 O 0.89994 0.48268 0.7708 0.0
O238 O 0.89132 0.49917 0.80466 0.0
C239 C 0.87207 0.49604 0.71045 0.0
Tb240 Tb 0.58339 0.49469 0.49828 0.0
C241 C 0.58752 0.53499 0.50563 0.0
Tb242 Tb 0.61775 0.50458 0.51876 0.0
O243 O 0.57639 0.48113 0.5385 0.0
O244 O 0.59028 0.50494 0.54019 0.0
O245 O 0.57813 0.52275 0.49122 0.0
C246 C 0.64599 0.50945 0.55669 0.0
O247 O 0.60295 0.53052 0.5212 0.0
C248 C 0.61998 0.50891 0.46295 0.0
C249 C 0.61357 0.46489 0.49809 0.0
O250 O 0.6463 0.51524 0.53077 0.0
O251 O 0.63027 0.5004 0.56077 0.0
O252 O 0.62755 0.51926 0.48189 0.0
O253 O 0.61122 0.49626 0.47572 0.0
O254 O 0.6233 0.47537 0.51574 0.0
O255 O 0.59876 0.47154 0.48384 0.0
C256 C 0.54946 0.48468 0.47587 0.0
O257 O 0.56153 0.4747 0.48949 0.0
O258 O 0.55646 0.50055 0.47433 0.0
C259 C 0.58347 0.49271 0.55555 0.0
Tb260 Tb 0.01755 0.25963 0.50251 0.0
C261 C 0.01369 0.21936 0.50915 0.0
Tb262 Tb -0.01734 0.24946 0.51498 0.0
O263 O 0.02056 0.27344 0.54315 0.0
O264 O 0.00738 0.24915 0.54319 0.0
O265 O 0.02375 0.23167 0.49603 0.0
C266 C -0.05153 0.24124 0.53882 0.0
O267 O -0.0027 0.22384 0.52224 0.0
C268 C -0.01416 0.24603 0.4589 0.0
C269 C -0.01189 0.2896 0.49743 0.0
O270 O -0.04584 0.23668 0.51378 0.0
O271 O -0.03827 0.25111 0.55024 0.0
O272 O -0.02162 0.23457 0.47608 0.0
O273 O -0.00746 0.25875 0.47375 0.0
O274 O -0.0229 0.27875 0.51288 0.0
O275 O 0.00411 0.28319 0.48587 0.0
C276 C 0.05411 0.2673 0.48749 0.0
O277 O 0.04205 0.27793 0.49981 0.0
O278 O 0.04551 0.25241 0.48272 0.0
C279 C 0.01292 0.26159 0.55926 0.0
Tb280 Tb 0.58977 0.25377 0.40476 0.0
C281 C 0.59627 0.21343 0.39567 0.0
Tb282 Tb 0.62475 0.24514 0.38501 0.0
O283 O 0.5825 0.26731 0.36473 0.0
O284 O 0.59748 0.24368 0.36315 0.0
O285 O 0.58576 0.22537 0.4091 0.0
C286 C 0.65328 0.24214 0.34705 0.0
O287 O 0.61217 0.21837 0.38174 0.0
C288 C 0.6269 0.242 0.44103 0.0
C289 C 0.61739 0.28529 0.40374 0.0
O290 O 0.65362 0.2353 0.37233 0.0
O291 O 0.6374 0.25123 0.3438 0.0
O292 O 0.63515 0.23154 0.42274 0.0
O293 O 0.61754 0.25405 0.42749 0.0
O294 O 0.62867 0.27448 0.38848 0.0
O295 O 0.6017 0.27902 0.41628 0.0
C296 C 0.55445 0.25696 0.42784 0.0
O297 O 0.56103 0.26623 0.40693 0.0
O298 O 0.56801 0.24625 0.43658 0.0
C299 C 0.59009 0.25579 0.34781 0.0
Tb300 Tb 0.01983 0.49919 0.40726 0.0
C301 C 0.017 0.5396 0.39968 0.0
Tb302 Tb -0.01424 0.51032 0.38845 0.0
O303 O 0.02604 0.48576 0.3668 0.0
O304 O 0.01272 0.51001 0.36552 0.0
O305 O 0.02597 0.5271 0.41428 0.0
C306 C -0.04404 0.51622 0.35334 0.0
O307 O 0.00156 0.53548 0.3841 0.0
C308 C -0.01588 0.51346 0.44462 0.0
C309 C -0.01082 0.47006 0.40706 0.0
O310 O -0.04026 0.52533 0.37588 0.0
O311 O -0.03149 0.50347 0.35113 0.0
O312 O -0.02359 0.52424 0.42635 0.0
O313 O -0.0075 0.50093 0.43103 0.0
O314 O -0.02063 0.48133 0.39063 0.0
O315 O 0.00467 0.47571 0.42072 0.0
C316 C 0.05419 0.48921 0.42874 0.0
O317 O 0.04256 0.47943 0.41421 0.0
O318 O 0.04647 0.50476 0.43178 0.0
C319 C 0.01913 0.49766 0.34998 0.0
Tb320 Tb 0.73943 1.00149 0.63758 0.0
C321 C 0.7462 0.04126 0.64993 0.0
Tb322 Tb 0.77383 0.00852 0.66117 0.0
O323 O 0.72197 0.01193 0.67184 0.0
O324 O 0.74786 0.99821 0.68197 0.0
O325 O 0.73443 0.0303 0.63625 0.0
C326 C 0.80311 0.02282 0.69053 0.0
O327 O 0.76232 0.03525 0.66186 0.0
C328 C 0.77773 0.00495 0.60472 0.0
C329 C 0.76773 0.96982 0.6542 0.0
O330 O 0.78473 0.02585 0.69469 0.0
O331 O 0.80505 0.01116 0.67067 0.0
O332 O 0.78981 0.99898 0.62358 0.0
O333 O 0.76418 0.01313 0.61769 0.0
O334 O 0.77488 0.98091 0.67289 0.0
O335 O 0.75548 0.97596 0.63469 0.0
C336 C 0.71152 0.98699 0.60609 0.0
O337 O 0.71529 0.98307 0.63224 0.0
O338 O 0.72302 0.99953 0.59777 0.0
C339 C 0.73326 0.00679 0.69236 0.0
Tb340 Tb 0.3722 0.25528 0.63491 0.0
C341 C 0.36176 0.21746 0.6586 0.0
Tb342 Tb 0.33747 0.25257 0.66187 0.0
O343 O 0.38757 0.26966 0.66812 0.0
O344 O 0.36672 0.25081 0.67964 0.0
O345 O 0.37401 0.22636 0.642 0.0
C346 C 0.30446 0.24473 0.68849 0.0
O347 O 0.34662 0.22556 0.67024 0.0
C348 C 0.33291 0.25686 0.60549 0.0
C349 C 0.35006 0.29026 0.65251 0.0
O350 O 0.31123 0.2367 0.66639 0.0
O351 O 0.31639 0.25715 0.696 0.0
O352 O 0.32306 0.26507 0.6248 0.0
O353 O 0.34495 0.24683 0.61822 0.0
O354 O 0.34183 0.28016 0.67174 0.0
O355 O 0.36072 0.28278 0.63228 0.0
C356 C 0.39606 0.25579 0.59067 0.0
O357 O 0.3792 0.26348 0.59199 0.0
O358 O 0.40005 0.24821 0.61482 0.0
C359 C 0.37877 0.26213 0.68942 0.0
Tb360 Tb 0.73862 0.25875 0.76512 0.0
C361 C 0.74295 0.21824 0.75157 0.0
Tb362 Tb 0.77377 0.24836 0.74065 0.0
O363 O 0.72999 0.27382 0.72741 0.0
O364 O 0.74483 0.25005 0.7225 0.0
O365 O 0.7306 0.2306 0.76084 0.0
C366 C 0.80079 0.23338 0.70811 0.0
O367 O 0.76088 0.22228 0.74353 0.0
C368 C 0.77852 0.2555 0.79574 0.0
C369 C 0.76849 0.28842 0.74866 0.0
O370 O 0.79778 0.22963 0.73459 0.0
O371 O 0.7892 0.24608 0.70026 0.0
O372 O 0.79102 0.25917 0.7759 0.0
O373 O 0.76422 0.24747 0.7843 0.0
O374 O 0.77636 0.2765 0.73167 0.0
O375 O 0.7549 0.28368 0.76713 0.0
C376 C 0.71098 0.26765 0.80209 0.0
O377 O 0.70853 0.26647 0.77488 0.0
O378 O 0.72868 0.26316 0.8086 0.0
C379 C 0.73672 0.26267 0.7089 0.0
Tb380 Tb 0.37369 0.99772 0.76932 0.0
C381 C 0.36759 0.0376 0.75626 0.0
Tb382 Tb 0.33922 0.00616 0.74317 0.0
O383 O 0.3922 0.00847 0.73644 0.0
O384 O 0.36609 0.99597 0.72468 0.0
O385 O 0.37774 0.02654 0.77256 0.0
C386 C 0.31165 0.02022 0.71015 0.0
O387 O 0.353 0.03188 0.7406 0.0
C388 C 0.33357 1.00056 0.79873 0.0
C389 C 0.34431 0.96658 0.7521 0.0
O390 O 0.31441 0.02405 0.7366 0.0
O391 O 0.32396 0.0081 0.70248 0.0
O392 O 0.32175 0.99583 0.77862 0.0
O393 O 0.34776 0.00879 0.78736 0.0
O394 O 0.33469 0.97828 0.73674 0.0
O395 O 0.35902 0.97163 0.76855 0.0
C396 C 0.40094 0.98278 0.80202 0.0
O397 O 0.39856 0.97997 0.7752 0.0
O398 O 0.38837 0.99452 0.81051 0.0
C399 C 0.38103 0.00435 0.71524 0.0
Tb400 Tb 0.08595 0.99901 0.49716 0.0
C401 C 0.09007 0.03916 0.50596 0.0
Tb402 Tb 0.12085 0.00883 0.51316 0.0
O403 O 0.08077 0.98509 0.53737 0.0
O404 O 0.09486 0.00895 0.53869 0.0
O405 O 0.08037 0.02716 0.49158 0.0
C406 C 0.15409 0.01597 0.54032 0.0
O407 O 0.10595 0.03435 0.52016 0.0
C408 C 0.11955 0.01282 0.45697 0.0
C409 C 0.11568 0.96894 0.49409 0.0
O410 O 0.14915 0.02185 0.5156 0.0
O411 O 0.14057 0.00553 0.54963 0.0
O412 O 0.12695 0.02388 0.47482 0.0
O413 O 0.11222 1.00008 0.47114 0.0
O414 O 0.12617 0.97952 0.5107 0.0
O415 O 0.10019 0.97561 0.48144 0.0
C416 C 0.05059 0.99142 0.47706 0.0
O417 O 0.06174 0.98075 0.49106 0.0
O418 O 0.05935 0.00641 0.47384 0.0
C419 C 0.08845 0.99653 0.55415 0.0
Tb420 Tb 0.51466 0.75494 0.50328 0.0
C421 C 0.50953 0.71476 0.5086 0.0
Tb422 Tb 0.4795 0.74482 0.52154 0.0
O423 O 0.51956 0.7692 0.54328 0.0
O424 O 0.5063 0.74481 0.54463 0.0
O425 O 0.5181 0.72702 0.49321 0.0
C426 C 0.45 0.73877 0.55695 0.0
O427 O 0.49492 0.71933 0.52551 0.0
C428 C 0.47863 0.74216 0.46548 0.0
C429 C 0.4854 0.7858 0.50651 0.0
O430 O 0.45341 0.73015 0.53375 0.0
O431 O 0.4626 0.75139 0.55937 0.0
O432 O 0.47039 0.7314 0.48322 0.0
O433 O 0.48717 0.75431 0.47965 0.0
O434 O 0.47331 0.7738 0.51746 0.0
O435 O 0.50294 0.78112 0.49786 0.0
C436 C 0.55018 0.76166 0.48301 0.0
O437 O 0.53393 0.76551 0.47022 0.0
O438 O 0.54643 0.7535 0.50645 0.0
C439 C 0.51244 0.75734 0.56007 0.0
Tb440 Tb 0.09064 0.75863 0.40356 0.0
C441 C 0.09571 0.71849 0.39781 0.0
Tb442 Tb 0.12553 0.74836 0.3852 0.0
O443 O 0.08621 0.7737 0.36418 0.0
O444 O 0.0988 0.74894 0.36185 0.0
O445 O 0.08748 0.73069 0.41377 0.0
C446 C 0.15555 0.74228 0.35059 0.0
O447 O 0.11004 0.72311 0.38052 0.0
C448 C 0.12651 0.74509 0.44122 0.0
C449 C 0.11974 0.78926 0.40099 0.0
O450 O 0.15184 0.73358 0.37363 0.0
O451 O 0.14287 0.75491 0.34774 0.0
O452 O 0.13451 0.73436 0.4232 0.0
O453 O 0.11802 0.75751 0.42738 0.0
O454 O 0.13164 0.77729 0.38939 0.0
O455 O 0.10234 0.7846 0.41011 0.0
C456 C 0.05444 0.76472 0.42192 0.0
O457 O 0.07021 0.76927 0.43524 0.0
O458 O 0.05907 0.75625 0.39916 0.0
C459 C 0.09282 0.76186 0.34693 0.0
Tb460 Tb 0.5229 0.99357 0.40902 0.0
C461 C 0.51873 0.03398 0.39763 0.0
Tb462 Tb 0.48824 1.00356 0.38526 0.0
O463 O 0.53153 0.97999 0.36951 0.0
O464 O 0.5166 1.00357 0.36688 0.0
O465 O 0.52863 0.02182 0.41185 0.0
C466 C 0.46115 0.00805 0.34544 0.0
O467 O 0.50286 0.02954 0.38302 0.0
C468 C 0.48504 0.00743 0.44094 0.0
C469 C 0.49287 0.96337 0.40521 0.0
O470 O 0.46009 0.01426 0.37105 0.0
O471 O 0.47701 0.99885 0.34267 0.0
O472 O 0.47753 0.0179 0.42191 0.0
O473 O 0.49399 0.99483 0.42823 0.0
O474 O 0.48273 0.97439 0.38861 0.0
O475 O 0.50815 0.96931 0.41908 0.0
C476 C 0.55454 0.98475 0.43876 0.0
O477 O 0.54963 0.97827 0.41448 0.0
O478 O 0.54195 0.99676 0.44617 0.0
C479 C 0.52408 0.99136 0.35205 0.0
Tb480 Tb 0.7338 0.49925 0.14267 0.0
C481 C 0.73898 0.53919 0.16094 0.0
Tb482 Tb 0.76835 0.50924 0.15773 0.0
O483 O 0.72794 0.48411 0.1809 0.0
O484 O 0.74242 0.50813 0.18473 0.0
O485 O 0.72867 0.52861 0.14416 0.0
C486 C 0.804 0.51822 0.17516 0.0
O487 O 0.75421 0.53248 0.17409 0.0
C488 C 0.76523 0.51124 0.10071 0.0
C489 C 0.76434 0.46887 0.15095 0.0
O490 O 0.79203 0.52824 0.16139 0.0
O491 O 0.7959 0.50305 0.17973 0.0
O492 O 0.77197 0.52331 0.11716 0.0
O493 O 0.75959 0.49874 0.11661 0.0
O494 O 0.77442 0.48119 0.16407 0.0
O495 O 0.74813 0.47336 0.13731 0.0
C496 C 0.70035 0.49224 0.11582 0.0
O497 O 0.70422 0.48854 0.14198 0.0
O498 O 0.7151 0.50042 0.1048 0.0
C499 C 0.735 0.49534 0.19878 0.0
Tb500 Tb 0.36863 0.75955 0.14428 0.0
C501 C 0.36589 0.71902 0.16047 0.0
Tb502 Tb 0.33442 0.74732 0.15703 0.0
O503 O 0.37283 0.7738 0.18376 0.0
O504 O 0.35959 0.74915 0.18533 0.0
O505 O 0.37604 0.73066 0.14532 0.0
C506 C 0.29879 0.73646 0.1717 0.0
O507 O 0.34956 0.72423 0.17254 0.0
C508 C 0.33931 0.74625 0.10031 0.0
C509 C 0.336 0.78801 0.15121 0.0
O510 O 0.31168 0.72725 0.15831 0.0
O511 O 0.30599 0.75182 0.17762 0.0
O512 O 0.33288 0.73365 0.11602 0.0
O513 O 0.34356 0.75888 0.11677 0.0
O514 O 0.32648 0.77506 0.16379 0.0
O515 O 0.35259 0.78442 0.13803 0.0
C516 C 0.40181 0.76927 0.11912 0.0
O517 O 0.39616 0.77401 0.14411 0.0
O518 O 0.38913 0.75846 0.10854 0.0
C519 C 0.36597 0.76182 0.20055 0.0
Tb520 Tb 0.73144 0.76036 0.2686 0.0
C521 C 0.73913 0.71985 0.25175 0.0
Tb522 Tb 0.76637 0.75194 0.24593 0.0
O523 O 0.71925 0.77349 0.2316 0.0
O524 O 0.7377 0.7516 0.22583 0.0
O525 O 0.72697 0.73123 0.26429 0.0
C526 C 0.80082 0.74706 0.22104 0.0
O527 O 0.75584 0.72535 0.2412 0.0
C528 C 0.76697 0.74884 0.30252 0.0
C529 C 0.75869 0.79205 0.25339 0.0
O530 O 0.78407 0.74397 0.20928 0.0
O531 O 0.79814 0.75337 0.24617 0.0
O532 O 0.77388 0.73735 0.28485 0.0
O533 O 0.75952 0.76134 0.28805 0.0
O534 O 0.76777 0.78027 0.23751 0.0
O535 O 0.74457 0.78686 0.27073 0.0
C536 C 0.7049 0.7628 0.30946 0.0
O537 O 0.70372 0.77072 0.28503 0.0
O538 O 0.72043 0.75302 0.31024 0.0
C539 C 0.72758 0.76338 0.21285 0.0
Tb540 Tb 0.36815 0.50092 0.27508 0.0
C541 C 0.36166 0.5405 0.2583 0.0
Tb542 Tb 0.33442 0.50781 0.24557 0.0
O543 O 0.38805 0.50914 0.24198 0.0
O544 O 0.36181 0.49671 0.23042 0.0
O545 O 0.37298 0.52976 0.2735 0.0
C546 C 0.30856 0.5212 0.20907 0.0
O547 O 0.34591 0.53445 0.24556 0.0
C548 C 0.32791 0.50522 0.30153 0.0
C549 C 0.34023 0.46904 0.25707 0.0
O550 O 0.32726 0.52053 0.20519 0.0
O551 O 0.30425 0.51372 0.23302 0.0
O552 O 0.31642 0.49921 0.28193 0.0
O553 O 0.342 0.51303 0.28937 0.0
O554 O 0.33338 0.47978 0.2374 0.0
O555 O 0.35211 0.47533 0.27694 0.0
C556 C 0.39205 0.48886 0.3152 0.0
O557 O 0.39052 0.48235 0.2899 0.0
O558 O 0.38077 0.50255 0.31757 0.0
C559 C 0.37708 0.50452 0.2208 0.0
Tb560 Tb 0.08539 0.49963 0.99484 0.0
C561 C 0.09078 0.53965 1.0013 0.0
Tb562 Tb 0.12115 0.50974 1.01518 0.0
O563 O 0.06981 0.51103 1.03116 0.0
O564 O 0.09675 0.49886 1.03791 0.0
O565 O 0.08225 0.52765 0.98536 0.0
C566 C 0.15301 0.5187 1.04401 0.0
O567 O 0.1052 0.53495 1.01851 0.0
C568 C 0.12045 0.51355 0.95893 0.0
C569 C 0.11558 0.46898 1.00474 0.0
O570 O 0.15283 0.5124 1.01849 0.0
O571 O 0.13534 0.51928 1.05385 0.0
O572 O 0.12726 0.52496 0.97678 0.0
O573 O 0.11325 0.50087 0.97327 0.0
O574 O 0.1281 0.48119 1.01355 0.0
O575 O 0.09773 0.47329 0.99666 0.0
C576 C 0.05625 0.48514 0.9659 0.0
O577 O 0.06069 0.4815 0.99201 0.0
O578 O 0.06775 0.49736 0.95638 0.0
C579 C 0.08283 0.50711 1.05019 0.0
Tb580 Tb 0.52723 0.25364 0.9899 0.0
C581 C 0.51873 0.21464 0.99671 0.0
Tb582 Tb 0.4917 0.24671 1.01347 0.0
O583 O 0.54197 0.24137 1.0267 0.0
O584 O 0.51735 0.25674 1.03331 0.0
O585 O 0.5269 0.22585 0.97896 0.0
C586 C 0.46394 0.24194 1.05191 0.0
O587 O 0.50619 0.2206 1.01591 0.0
C588 C 0.4887 0.24154 0.95775 0.0
C589 C 0.49911 0.28626 0.99651 0.0
O590 O 0.48163 0.23599 1.05372 0.0
O591 O 0.46165 0.25049 1.02821 0.0
O592 O 0.4804 0.23205 0.97728 0.0
O593 O 0.49856 0.25361 0.97003 0.0
O594 O 0.48698 0.27552 1.0101 0.0
O595 O 0.51561 0.2802 0.98571 0.0
C596 C 0.5587 0.2671 0.96508 0.0
O597 O 0.55232 0.27121 0.99002 0.0
O598 O 0.5476 0.25505 0.95405 0.0
C599 C 0.53029 0.24755 1.04591 0.0
Tb600 Tb 0.07761 0.25911 0.91673 0.0
C601 C 0.08526 0.21998 0.90924 0.0
Tb602 Tb 0.11264 0.25151 0.89115 0.0
O603 O 0.06179 0.24749 0.8805 0.0
O604 O 0.08666 0.26223 0.87299 0.0
O605 O 0.07748 0.23123 0.92734 0.0
C606 C 0.13878 0.24555 0.85087 0.0
O607 O 0.09755 0.22578 0.8896 0.0
C608 C 0.11658 0.24577 0.94665 0.0
C609 C 0.10652 0.29105 0.90911 0.0
O610 O 0.12083 0.24032 0.85039 0.0
O611 O 0.14224 0.25413 0.87418 0.0
O612 O 0.12453 0.23636 0.92668 0.0
O613 O 0.10675 0.25816 0.9349 0.0
O614 O 0.11806 0.28022 0.89449 0.0
O615 O 0.09026 0.28516 0.92075 0.0
C616 C 0.04779 0.27445 0.94326 0.0
O617 O 0.05342 0.27784 0.91767 0.0
O618 O 0.05847 0.2618 0.95383 0.0
C619 C 0.07331 0.25341 0.86089 0.0
Tb620 Tb 0.51661 0.49679 0.91237 0.0
C621 C 0.50991 0.53571 0.90634 0.0
Tb622 Tb 0.48209 0.50446 0.88793 0.0
O623 O 0.53323 0.50696 0.87587 0.0
O624 O 0.50749 0.49337 0.86841 0.0
O625 O 0.51721 0.52428 0.92455 0.0
C626 C 0.45412 0.51996 0.85738 0.0
O627 O 0.49788 0.52998 0.88636 0.0
C628 C 0.47587 0.49803 0.94248 0.0
C629 C 0.48976 0.46442 0.89723 0.0
O630 O 0.45782 0.52305 0.88379 0.0
O631 O 0.46571 0.50764 0.84819 0.0
O632 O 0.46473 0.49317 0.92171 0.0
O633 O 0.49026 0.50687 0.93235 0.0
O634 O 0.47767 0.47574 0.88465 0.0
O635 O 0.50579 0.46998 0.90976 0.0
C636 C 0.54479 0.48263 0.94431 0.0
O637 O 0.52624 0.48059 0.9483 0.0
O638 O 0.54754 0.49309 0.9229 0.0
C639 C 0.52132 0.50165 0.85631 0.0
C640 C 0.30781 0.80962 0.15556 0.0
C641 C 0.3279 0.8064 0.15113 0.0
C642 C 0.30021 0.82694 0.15494 0.0
C643 C 0.31326 0.87328 0.16699 0.0
H644 H 0.26924 0.88509 0.11846 0.0
C645 C 0.28784 0.94623 0.15394 0.0
C646 C 0.26821 0.95007 0.1472 0.0
C647 C 0.29482 0.92874 0.15429 0.0
C648 C 0.28129 0.88212 0.13265 0.0
H649 H 0.35576 0.81903 0.14301 0.0
H650 H 0.34263 0.84923 0.14295 0.0
H651 H 0.28151 0.85479 0.1201 0.0
H652 H 0.24044 0.93833 0.13598 0.0
H653 H 0.25216 0.90786 0.13804 0.0
H654 H 0.31273 0.90018 0.18066 0.0
C655 C 0.33271 0.83831 0.14651 0.0
C656 C 0.28841 0.86464 0.13338 0.0
C657 C 0.34022 0.82099 0.14643 0.0
C658 C 0.25568 0.93588 0.14107 0.0
C659 C 0.26255 0.91832 0.14205 0.0
C660 C 0.30588 0.89065 0.16679 0.0
C661 C 0.31259 0.84153 0.15059 0.0
C662 C 0.30461 0.86003 0.15036 0.0
C663 C 0.2823 0.91437 0.14857 0.0
C664 C 0.28986 0.89551 0.14938 0.0
H665 H 0.29787 0.79873 0.15915 0.0
H666 H 0.28467 0.82895 0.15829 0.0
H667 H 0.32561 0.87014 0.18059 0.0
H668 H 0.29799 0.95681 0.15846 0.0
H669 H 0.3102 0.92663 0.15866 0.0
C670 C 0.79173 0.44659 0.1553 0.0
C671 C 0.77175 0.45025 0.1506 0.0
C672 C 0.79891 0.42917 0.15462 0.0
C673 C 0.78555 0.38297 0.16615 0.0
H674 H 0.82977 0.37173 0.11779 0.0
C675 C 0.81413 0.31047 0.15539 0.0
C676 C 0.83391 0.30748 0.14851 0.0
C677 C 0.80623 0.32768 0.15542 0.0
C678 C 0.81768 0.37453 0.13196 0.0
H679 H 0.74363 0.43827 0.14196 0.0
H680 H 0.75609 0.40775 0.1418 0.0
H681 H 0.81694 0.40177 0.11894 0.0
H682 H 0.861 0.32042 0.13712 0.0
H683 H 0.84776 0.35026 0.13874 0.0
H684 H 0.78668 0.35611 0.18033 0.0
C685 C 0.76621 0.41846 0.14561 0.0
C686 C 0.81021 0.39186 0.13236 0.0
C687 C 0.75909 0.43596 0.14558 0.0
C688 C 0.84565 0.32219 0.14223 0.0
C689 C 0.8379 0.33941 0.14291 0.0
C690 C 0.7933 0.36571 0.16629 0.0
C691 C 0.78625 0.41486 0.14992 0.0
C692 C 0.79402 0.39631 0.14939 0.0
C693 C 0.81796 0.34254 0.1492 0.0
C694 C 0.80954 0.3611 0.14915 0.0
H695 H 0.80193 0.45724 0.15915 0.0
H696 H 0.81438 0.42686 0.15816 0.0
H697 H 0.77318 0.386 0.17972 0.0
H698 H 0.8046 0.29945 0.16011 0.0
H699 H 0.79077 0.32919 0.15986 0.0
C700 C 0.32618 0.44211 0.23333 0.0
C701 C 0.33307 0.45038 0.25811 0.0
C702 C 0.31819 0.42505 0.23428 0.0
C703 C 0.31156 0.38513 0.28243 0.0
H704 H 0.27346 0.37257 0.22488 0.0
C705 C 0.26422 0.32023 0.28495 0.0
C706 C 0.26538 0.31008 0.25994 0.0
C707 C 0.27196 0.33747 0.28584 0.0
C708 C 0.28409 0.37586 0.24111 0.0
H709 H 0.3368 0.44705 0.3035 0.0
H710 H 0.32209 0.41776 0.30558 0.0
H711 H 0.28773 0.40194 0.22462 0.0
H712 H 0.27517 0.31037 0.21612 0.0
H713 H 0.28783 0.34052 0.21736 0.0
H714 H 0.30705 0.35901 0.29938 0.0
C715 C 0.32341 0.42407 0.28502 0.0
C716 C 0.29254 0.39275 0.24086 0.0
C717 C 0.33185 0.44102 0.28392 0.0
C718 C 0.27398 0.31779 0.23573 0.0
C719 C 0.28123 0.33511 0.23641 0.0
C720 C 0.30273 0.36834 0.28302 0.0
C721 C 0.31626 0.41576 0.26022 0.0
C722 C 0.3067 0.3977 0.26125 0.0
C723 C 0.28057 0.34514 0.26154 0.0
C724 C 0.28906 0.3634 0.26216 0.0
H725 H 0.32701 0.44885 0.21302 0.0
H726 H 0.31358 0.4192 0.21442 0.0
H727 H 0.32252 0.38802 0.29834 0.0
H728 H 0.25785 0.31467 0.30405 0.0
H729 H 0.27115 0.34486 0.30551 0.0
C730 C 0.78489 0.8148 0.24494 0.0
C731 C 0.76556 0.81083 0.25315 0.0
C732 C 0.79188 0.83223 0.2456 0.0
C733 C 0.77769 0.87849 0.23926 0.0
H734 H 0.82469 0.88891 0.28209 0.0
C735 C 0.80616 0.95082 0.24775 0.0
C736 C 0.82614 0.95397 0.25279 0.0
C737 C 0.79854 0.93359 0.24854 0.0
C738 C 0.81178 0.88638 0.26944 0.0
H739 H 0.73836 0.82234 0.26809 0.0
H740 H 0.75036 0.85296 0.26804 0.0
H741 H 0.81204 0.8589 0.28125 0.0
H742 H 0.85384 0.94124 0.26207 0.0
H743 H 0.84104 0.91127 0.26174 0.0
H744 H 0.77778 0.90551 0.22599 0.0
C745 C 0.76017 0.84243 0.26154 0.0
C746 C 0.80441 0.86905 0.26926 0.0
C747 C 0.75331 0.82488 0.26163 0.0
C748 C 0.83835 0.93935 0.25832 0.0
C749 C 0.83084 0.92204 0.25837 0.0
C750 C 0.78532 0.89574 0.2388 0.0
C751 C 0.77962 0.8463 0.25379 0.0
C752 C 0.78723 0.86487 0.25427 0.0
C753 C 0.81072 0.91876 0.25364 0.0
C754 C 0.80252 0.90012 0.25398 0.0
H755 H 0.79482 0.80435 0.23847 0.0
H756 H 0.80688 0.83474 0.23939 0.0
H757 H 0.76455 0.87569 0.22723 0.0
H758 H 0.79625 0.96176 0.24371 0.0
H759 H 0.78294 0.93207 0.24549 0.0
C760 C 0.58514 0.06296 0.97663 0.0
C761 C 0.59101 0.0548 1.00218 0.0
C762 C 0.57796 0.08036 0.97644 0.0
C763 C 0.55191 0.11269 1.01987 0.0
H764 H 0.57245 0.14764 0.96763 0.0
C765 C 0.52458 0.18573 1.02209 0.0
C766 C 0.52537 0.19585 0.99701 0.0
C767 C 0.53255 0.16858 1.02304 0.0
C768 C 0.56615 0.13805 0.98202 0.0
H769 H 0.59387 0.05861 1.04764 0.0
H770 H 0.58077 0.0889 1.0474 0.0
H771 H 0.58651 0.11802 0.96856 0.0
H772 H 0.53452 0.19558 0.95296 0.0
H773 H 0.54729 0.16552 0.95396 0.0
H774 H 0.53098 0.13224 1.03257 0.0
C775 C 0.58199 0.08183 1.02747 0.0
C776 C 0.57442 0.12104 0.98269 0.0
C777 C 0.58963 0.06454 1.02757 0.0
C778 C 0.53378 0.18819 0.97269 0.0
C779 C 0.54135 0.17092 0.97343 0.0
C780 C 0.54333 0.12959 1.01881 0.0
C781 C 0.57602 0.08993 1.00189 0.0
C782 C 0.56745 0.10816 1.00166 0.0
C783 C 0.54122 0.16087 0.99875 0.0
C784 C 0.5503 0.14264 0.99987 0.0
H785 H 0.58598 0.05584 0.9567 0.0
H786 H 0.57342 0.08619 0.95642 0.0
H787 H 0.54605 0.10298 1.0345 0.0
H788 H 0.51843 0.1913 1.04133 0.0
H789 H 0.53234 0.16162 1.04316 0.0
C790 C 0.04685 0.69853 0.99416 0.0
C791 C 0.0271 0.70261 0.99956 0.0
C792 C 0.05357 0.68098 0.99466 0.0
C793 C 0.03863 0.63471 1.01622 0.0
H794 H 0.0842 0.62197 0.97143 0.0
C795 C 0.0641 0.56217 0.99304 0.0
C796 C 0.08357 0.55828 1.00077 0.0
C797 C 0.05707 0.57963 0.99327 0.0
C798 C 0.0715 0.62535 0.98413 0.0
H799 H -0.00117 0.69133 1.00928 0.0
H800 H 0.01013 0.66071 1.00853 0.0
H801 H 0.07185 0.65218 0.97003 0.0
H802 H 0.11098 0.56982 1.01437 0.0
H803 H 0.09889 0.60044 1.01359 0.0
H804 H 0.03794 0.60741 1.02898 0.0
C805 C 0.02078 0.67102 1.00501 0.0
C806 C 0.06442 0.6428 0.9836 0.0
C807 C 0.01417 0.68865 1.00522 0.0
C808 C 0.09591 0.57234 1.00835 0.0
C809 C 0.08902 0.58987 1.00784 0.0
C810 C 0.04545 0.61716 1.01615 0.0
C811 C 0.04066 0.66682 0.99983 0.0
C812 C 0.04794 0.64791 0.99986 0.0
C813 C 0.06947 0.5937 1.0005 0.0
C814 C 0.06206 0.61231 1.0003 0.0
H815 H 0.05728 0.70897 0.99007 0.0
H816 H 0.06904 0.67867 0.99136 0.0
H817 H 0.02621 0.63789 1.02957 0.0
H818 H 0.05416 0.55165 0.98726 0.0
H819 H 0.04197 0.58218 0.98743 0.0
C820 C 0.57982 0.68593 0.88285 0.0
C821 C 0.57988 0.69587 0.90811 0.0
C822 C 0.57231 0.66868 0.88246 0.0
C823 C 0.56328 0.62967 0.92653 0.0
H824 H 0.5223 0.61823 0.87273 0.0
C825 C 0.52408 0.56189 0.93184 0.0
C826 C 0.51662 0.55442 0.90677 0.0
C827 C 0.53135 0.57921 0.93203 0.0
C828 C 0.53399 0.62093 0.8876 0.0
H829 H 0.57252 0.69523 0.95292 0.0
H830 H 0.56016 0.66488 0.95245 0.0
H831 H 0.53674 0.64762 0.8724 0.0
H832 H 0.51113 0.55931 0.8621 0.0
H833 H 0.52463 0.58903 0.86191 0.0
H834 H 0.56138 0.60298 0.94108 0.0
C835 C 0.56566 0.67056 0.93287 0.0
C836 C 0.54218 0.63793 0.88747 0.0
C837 C 0.57271 0.68795 0.93311 0.0
C838 C 0.51656 0.56473 0.88188 0.0
C839 C 0.52427 0.58192 0.88188 0.0
C840 C 0.55544 0.61255 0.92626 0.0
C841 C 0.56513 0.66078 0.90747 0.0
C842 C 0.55683 0.64254 0.90706 0.0
C843 C 0.53188 0.5895 0.90696 0.0
C844 C 0.5405 0.60786 0.90695 0.0
H845 H 0.58508 0.69167 0.86317 0.0
H846 H 0.57218 0.66146 0.8626 0.0
H847 H 0.57469 0.63276 0.94172 0.0
H848 H 0.52422 0.55436 0.95146 0.0
H849 H 0.53647 0.58448 0.95205 0.0
C850 C 0.0707 0.19342 0.93366 0.0
C851 C 0.07862 0.20123 0.90907 0.0
C852 C 0.06353 0.17605 0.93308 0.0
C853 C 0.04123 0.14348 0.88623 0.0
H854 H 0.05883 0.1083 0.94059 0.0
C855 C 0.0161 0.07033 0.8776 0.0
C856 C 0.01537 0.05981 0.90225 0.0
C857 C 0.02378 0.08751 0.87848 0.0
C858 C 0.05333 0.11794 0.92553 0.0
H859 H 0.08504 0.19688 0.86448 0.0
H860 H 0.07197 0.16678 0.86329 0.0
H861 H 0.07204 0.13812 0.94248 0.0
H862 H 0.02158 0.05938 0.94738 0.0
H863 H 0.0338 0.0895 0.94943 0.0
H864 H 0.02189 0.12383 0.86994 0.0
C865 C 0.07158 0.17403 0.88312 0.0
C866 C 0.06111 0.13508 0.92653 0.0
C867 C 0.07919 0.19124 0.88387 0.0
C868 C 0.02207 0.06707 0.92793 0.0
C869 C 0.02931 0.08439 0.92898 0.0
C870 C 0.03309 0.12647 0.8856 0.0
C871 C 0.06365 0.16623 0.90771 0.0
C872 C 0.05526 0.14802 0.90679 0.0
C873 C 0.03057 0.0949 0.9042 0.0
C874 C 0.03905 0.1133 0.90515 0.0
H875 H 0.07002 0.20074 0.95341 0.0
H876 H 0.05745 0.17043 0.95234 0.0
H877 H 0.03625 0.15323 0.87091 0.0
H878 H 0.01127 0.06508 0.85738 0.0
H879 H 0.02475 0.09478 0.85871 0.0
C880 C 0.34294 0.31882 0.62637 0.0
C881 C 0.34513 0.30952 0.65209 0.0
C882 C 0.33567 0.33628 0.62606 0.0
C883 C 0.30955 0.36942 0.67354 0.0
H884 H 0.32061 0.40154 0.61137 0.0
C885 C 0.28929 0.44461 0.67509 0.0
C886 C 0.27884 0.45094 0.65131 0.0
C887 C 0.29764 0.42758 0.67514 0.0
C888 C 0.31733 0.3927 0.62886 0.0
H889 H 0.34223 0.31163 0.69776 0.0
H890 H 0.331 0.34214 0.6976 0.0
H891 H 0.33552 0.37218 0.61184 0.0
H892 H 0.26939 0.44426 0.60868 0.0
H893 H 0.28453 0.41481 0.60845 0.0
H894 H 0.29197 0.3904 0.69096 0.0
C895 C 0.33386 0.33591 0.67733 0.0
C896 C 0.3258 0.37569 0.6291 0.0
C897 C 0.34063 0.31836 0.67753 0.0
C898 C 0.27724 0.43983 0.62742 0.0
C899 C 0.28601 0.42297 0.62721 0.0
C900 C 0.30149 0.38655 0.6736 0.0
C901 C 0.33075 0.34515 0.65156 0.0
C902 C 0.32202 0.36363 0.65141 0.0
C903 C 0.29622 0.41656 0.65114 0.0
C904 C 0.30516 0.39839 0.6512 0.0
H905 H 0.34599 0.31233 0.60633 0.0
H906 H 0.33334 0.34253 0.60563 0.0
H907 H 0.30561 0.36067 0.69081 0.0
H908 H 0.29081 0.45276 0.69387 0.0
H909 H 0.30546 0.4231 0.69388 0.0
C910 C 0.78327 0.94314 0.67739 0.0
C911 C 0.77511 0.95121 0.65316 0.0
C912 C 0.79122 0.926 0.67608 0.0
C913 C 0.7949 0.88568 0.62841 0.0
H914 H 0.83598 0.87278 0.68155 0.0
C915 C 0.84129 0.82019 0.62129 0.0
C916 C 0.84091 0.80996 0.64631 0.0
C917 C 0.83395 0.83764 0.62117 0.0
C918 C 0.82452 0.87619 0.66654 0.0
H919 H 0.76913 0.94752 0.60836 0.0
H920 H 0.78374 0.91817 0.60557 0.0
H921 H 0.82197 0.9024 0.68291 0.0
H922 H 0.83309 0.81028 0.69096 0.0
H923 H 0.82118 0.84081 0.691 0.0
H924 H 0.79824 0.85944 0.61149 0.0
C925 C 0.78344 0.92464 0.62605 0.0
C926 C 0.81623 0.89321 0.66747 0.0
C927 C 0.77507 0.94164 0.62756 0.0
C928 C 0.83363 0.81778 0.67133 0.0
C929 C 0.82682 0.83529 0.67138 0.0
C930 C 0.80354 0.86878 0.62709 0.0
C931 C 0.79176 0.91646 0.65028 0.0
C932 C 0.80105 0.89827 0.64867 0.0
C933 C 0.8266 0.84539 0.64625 0.0
C934 C 0.8183 0.86375 0.64635 0.0
H935 H 0.78345 0.95007 0.69751 0.0
H936 H 0.79685 0.92026 0.69553 0.0
H937 H 0.78308 0.88864 0.61381 0.0
H938 H 0.84662 0.81453 0.60161 0.0
H939 H 0.83405 0.84509 0.60148 0.0
C940 C 0.31817 0.94365 0.7453 0.0
C941 C 0.33769 0.9478 0.75215 0.0
C942 C 0.31161 0.92611 0.74586 0.0
C943 C 0.32673 0.88035 0.73681 0.0
H944 H 0.28146 0.86835 0.78243 0.0
C945 C 0.3001 0.80751 0.74569 0.0
C946 C 0.28024 0.80415 0.75122 0.0
C947 C 0.30746 0.82482 0.74635 0.0
C948 C 0.29387 0.87137 0.76902 0.0
H949 H 0.36566 0.93659 0.76461 0.0
H950 H 0.35433 0.90579 0.76447 0.0
H951 H 0.29339 0.89861 0.78185 0.0
H952 H 0.25242 0.8165 0.76109 0.0
H953 H 0.26477 0.84659 0.76059 0.0
H954 H 0.32681 0.85352 0.72267 0.0
C955 C 0.34408 0.91624 0.75909 0.0
C956 C 0.30082 0.8888 0.76898 0.0
C957 C 0.35054 0.93388 0.75925 0.0
C958 C 0.26785 0.81858 0.75699 0.0
C959 C 0.27507 0.83593 0.75696 0.0
C960 C 0.3195 0.86299 0.73627 0.0
C961 C 0.32448 0.91217 0.75262 0.0
C962 C 0.31736 0.89351 0.75294 0.0
C963 C 0.29508 0.83943 0.75189 0.0
C964 C 0.30292 0.8581 0.75242 0.0
H965 H 0.30783 0.95403 0.7399 0.0
H966 H 0.29646 0.92341 0.74067 0.0
H967 H 0.33939 0.88361 0.724 0.0
H968 H 0.31011 0.79668 0.74142 0.0
H969 H 0.32298 0.8266 0.74293 0.0
C970 C 0.7636 0.32104 0.75734 0.0
C971 C 0.77564 0.30702 0.74811 0.0
C972 C 0.77049 0.33851 0.75729 0.0
C973 C 0.81414 0.36502 0.76527 0.0
H974 H 0.78744 0.40167 0.7224 0.0
C975 C 0.84645 0.43589 0.75845 0.0
C976 C 0.83388 0.45037 0.75383 0.0
C977 C 0.83942 0.41849 0.75715 0.0
C978 C 0.79497 0.39182 0.73507 0.0
H979 H 0.8045 0.30045 0.73203 0.0
H980 H 0.81673 0.33088 0.73303 0.0
H981 H 0.7748 0.37162 0.72214 0.0
H982 H 0.80389 0.45786 0.74481 0.0
H983 H 0.79135 0.42784 0.74426 0.0
H984 H 0.83373 0.38504 0.77958 0.0
C985 C 0.80185 0.32833 0.73978 0.0
C986 C 0.78773 0.37447 0.73464 0.0
C987 C 0.79479 0.31092 0.73908 0.0
C988 C 0.81404 0.447 0.74819 0.0
C989 C 0.80687 0.42963 0.74764 0.0
C990 C 0.82112 0.38245 0.76635 0.0
C991 C 0.78976 0.34234 0.74879 0.0
C992 C 0.7973 0.36085 0.74956 0.0
C993 C 0.81943 0.41496 0.75195 0.0
C994 C 0.81177 0.39622 0.7511 0.0
H995 H 0.74878 0.31851 0.76441 0.0
H996 H 0.76087 0.34902 0.76443 0.0
H997 H 0.82173 0.35483 0.77722 0.0
H998 H 0.86187 0.43799 0.76259 0.0
H999 H 0.84987 0.40783 0.7599 0.0
C1000 C 0.5599 0.55689 0.50016 0.0
C1001 C 0.5798 0.55352 0.50576 0.0
C1002 C 0.5523 0.57416 0.50088 0.0
C1003 C 0.565 0.62096 0.52312 0.0
H1004 H 0.51847 0.63223 0.47931 0.0
C1005 C 0.53677 0.69277 0.50045 0.0
C1006 C 0.51718 0.69622 0.50813 0.0
C1007 C 0.54431 0.67547 0.50069 0.0
C1008 C 0.53142 0.62926 0.49178 0.0
H1009 H 0.6074 0.56588 0.51601 0.0
H1010 H 0.59461 0.59602 0.51557 0.0
H1011 H 0.53215 0.60249 0.47754 0.0
H1012 H 0.49013 0.68398 0.52168 0.0
H1013 H 0.50312 0.65362 0.52091 0.0
H1014 H 0.56461 0.64823 0.53596 0.0
C1015 C 0.58448 0.58534 0.51176 0.0
C1016 C 0.53929 0.61206 0.49102 0.0
C1017 C 0.59197 0.56797 0.51176 0.0
C1018 C 0.50527 0.68182 0.51568 0.0
C1019 C 0.51269 0.66443 0.51517 0.0
C1020 C 0.55739 0.63827 0.52326 0.0
C1021 C 0.56443 0.58882 0.50647 0.0
C1022 C 0.55618 0.60747 0.50685 0.0
C1023 C 0.53236 0.66106 0.5079 0.0
C1024 C 0.54043 0.64261 0.50775 0.0
H1025 H 0.55 0.54608 0.49581 0.0
H1026 H 0.53674 0.57585 0.49745 0.0
H1027 H 0.57768 0.61821 0.53621 0.0
H1028 H 0.54641 0.70352 0.49467 0.0
H1029 H 0.55948 0.67332 0.49488 0.0
C1030 C 0.06257 0.06125 0.50157 0.0
C1031 C 0.08242 0.05769 0.5072 0.0
C1032 C 0.05512 0.07856 0.5027 0.0
C1033 C 0.06783 0.12492 0.52656 0.0
H1034 H 0.02269 0.13712 0.48037 0.0
C1035 C 0.04131 0.1973 0.5054 0.0
C1036 C 0.02128 0.2008 0.50993 0.0
C1037 C 0.04865 0.17994 0.50604 0.0
C1038 C 0.03523 0.1339 0.49354 0.0
H1039 H 0.11008 0.06973 0.51813 0.0
H1040 H 0.0975 0.09996 0.51864 0.0
H1041 H 0.03604 0.10727 0.47862 0.0
H1042 H -0.00675 0.1886 0.51842 0.0
H1043 H 0.00598 0.15817 0.51853 0.0
H1044 H 0.06738 0.15202 0.54025 0.0
C1045 C 0.08733 0.08938 0.51436 0.0
C1046 C 0.0429 0.11664 0.49275 0.0
C1047 C 0.09468 0.07197 0.51386 0.0
C1048 C 0.00875 0.18641 0.51492 0.0
C1049 C 0.01603 0.16897 0.51488 0.0
C1050 C 0.0604 0.14229 0.52681 0.0
C1051 C 0.06735 0.09304 0.50884 0.0
C1052 C 0.05931 0.11173 0.50939 0.0
C1053 C 0.0361 0.16552 0.51056 0.0
C1054 C 0.04394 0.14698 0.51044 0.0
H1055 H 0.05261 0.05058 0.49669 0.0
H1056 H 0.0396 0.08043 0.49907 0.0
H1057 H 0.08014 0.12188 0.54022 0.0
H1058 H 0.05142 0.20804 0.50158 0.0
H1059 H 0.06414 0.17775 0.50248 0.0
C1060 C 0.6014 0.18033 0.38955 0.0
C1061 C 0.58894 0.19481 0.39475 0.0
C1062 C 0.59407 0.16292 0.38956 0.0
C1063 C 0.54886 0.13661 0.41012 0.0
H1064 H 0.57436 0.0997 0.36656 0.0
C1065 C 0.51433 0.06697 0.39006 0.0
C1066 C 0.5265 0.05245 0.39656 0.0
C1067 C 0.52187 0.08427 0.38954 0.0
C1068 C 0.56708 0.10987 0.37889 0.0
H1069 H 0.55878 0.20225 0.40292 0.0
H1070 H 0.54594 0.17253 0.40134 0.0
H1071 H 0.58754 0.12961 0.36571 0.0
H1072 H 0.55633 0.04486 0.40695 0.0
H1073 H 0.56948 0.07484 0.40511 0.0
H1074 H 0.52799 0.11681 0.4223 0.0
C1075 C 0.56155 0.17419 0.39863 0.0
C1076 C 0.57475 0.12711 0.37863 0.0
C1077 C 0.56894 0.19144 0.39927 0.0
C1078 C 0.54646 0.05569 0.40202 0.0
C1079 C 0.55406 0.07289 0.40081 0.0
C1080 C 0.54098 0.11949 0.40981 0.0
C1081 C 0.57395 0.15949 0.39413 0.0
C1082 C 0.56583 0.14086 0.39432 0.0
C1083 C 0.54187 0.08745 0.39476 0.0
C1084 C 0.55001 0.10585 0.39432 0.0
H1085 H 0.6169 0.18241 0.38608 0.0
H1086 H 0.60435 0.15218 0.38643 0.0
H1087 H 0.54167 0.14641 0.42322 0.0
H1088 H 0.49891 0.065 0.38577 0.0
H1089 H 0.51208 0.09518 0.38471 0.0
C1090 C 0.09977 0.68557 0.39018 0.0
C1091 C 0.08802 0.70002 0.3982 0.0
C1092 C 0.09233 0.66824 0.39068 0.0
C1093 C 0.04858 0.64158 0.41639 0.0
H1094 H 0.07112 0.60571 0.36747 0.0
C1095 C 0.01289 0.57263 0.39344 0.0
C1096 C 0.02498 0.55797 0.39949 0.0
C1097 C 0.0205 0.58989 0.39354 0.0
C1098 C 0.06469 0.61559 0.3813 0.0
H1099 H 0.05899 0.70754 0.41227 0.0
H1100 H 0.04569 0.67788 0.41151 0.0
H1101 H 0.08416 0.63562 0.36645 0.0
H1102 H 0.0547 0.55007 0.40982 0.0
H1103 H 0.06806 0.58008 0.40884 0.0
H1104 H 0.02848 0.62146 0.43001 0.0
C1105 C 0.06096 0.6795 0.4061 0.0
C1106 C 0.0723 0.63284 0.38099 0.0
C1107 C 0.06857 0.69671 0.40632 0.0
C1108 C 0.04493 0.56103 0.40521 0.0
C1109 C 0.05263 0.57822 0.40453 0.0
C1110 C 0.04067 0.62446 0.4161 0.0
C1111 C 0.0727 0.66482 0.39849 0.0
C1112 C 0.06448 0.64623 0.39864 0.0
C1113 C 0.0405 0.59289 0.39888 0.0
C1114 C 0.04869 0.61122 0.39869 0.0
H1115 H 0.11486 0.68761 0.38396 0.0
H1116 H 0.10219 0.65755 0.38523 0.0
H1117 H 0.04226 0.65105 0.43097 0.0
H1118 H -0.00252 0.57078 0.389 0.0
H1119 H 0.01079 0.6009 0.38904 0.0
C1120 C 0.21524 0.98375 0.23492 0.0
C1121 C 0.22383 0.99851 0.22155 0.0
C1122 C 0.20424 0.98545 0.2601 0.0
C1123 C 0.19249 0.01613 0.32106 0.0
H1124 H 0.14726 0.98582 0.32964 0.0
C1125 C 0.13768 0.02599 0.41526 0.0
C1126 C 0.12868 0.01117 0.42783 0.0
C1127 C 0.14867 0.02455 0.39 0.0
C1128 C 0.15993 0.99429 0.328 0.0
H1129 H 0.22763 0.02679 0.22517 0.0
H1130 H 0.20853 0.02984 0.26921 0.0
H1131 H 0.16769 0.98342 0.28739 0.0
H1132 H 0.12419 0.98307 0.42277 0.0
H1133 H 0.14334 0.98044 0.37883 0.0
H1134 H 0.18478 0.02695 0.36172 0.0
C1135 C 0.21043 0.01678 0.26024 0.0
C1136 C 0.1718 0.99291 0.30349 0.0
C1137 C 0.22151 0.01506 0.23488 0.0
C1138 C 0.13063 0.99485 0.41369 0.0
C1139 C 0.14173 0.99337 0.38834 0.0
C1140 C 0.18064 0.01749 0.34561 0.0
C1141 C 0.20125 1.00203 0.2731 0.0
C1142 C 0.18838 0.00376 0.29947 0.0
C1143 C 0.15127 0.00817 0.37617 0.0
C1144 C 0.16406 0.00661 0.34966 0.0
H1145 H 0.21666 0.97076 0.22547 0.0
H1146 H 0.198 0.97363 0.26931 0.0
H1147 H 0.20515 0.02461 0.31934 0.0
H1148 H 0.13656 0.03881 0.42536 0.0
H1149 H 0.15518 0.03642 0.38138 0.0
C1150 C -0.03097 0.23292 0.41603 0.0
C1151 C -0.02283 0.24785 0.42942 0.0
C1152 C -0.04169 0.23437 0.39049 0.0
C1153 C -0.05377 0.26525 0.32926 0.0
H1154 H 0.90273 0.23324 0.31826 0.0
C1155 C 0.89136 0.27516 0.23511 0.0
C1156 C 0.88342 0.26034 0.22117 0.0
C1157 C 0.90231 0.27345 0.26038 0.0
C1158 C 0.91493 0.24221 0.32061 0.0
H1159 H -0.01964 0.27618 0.42548 0.0
H1160 H -0.0383 0.27882 0.38105 0.0
H1161 H 0.92273 0.23098 0.36104 0.0
H1162 H 0.88079 0.23189 0.22388 0.0
H1163 H 0.89982 0.22882 0.26803 0.0
H1164 H -0.06163 0.27651 0.28887 0.0
C1165 C -0.03621 0.2658 0.39014 0.0
C1166 C 0.92657 0.2409 0.34542 0.0
C1167 C -0.02538 0.26432 0.41579 0.0
C1168 C 0.88641 0.24367 0.234 0.0
C1169 C 0.89743 0.24194 0.25946 0.0
C1170 C -0.06543 0.26657 0.30448 0.0
C1171 C -0.04491 0.25087 0.37716 0.0
C1172 C -0.05748 0.25238 0.35035 0.0
C1173 C 0.90591 0.2568 0.27295 0.0
C1174 C 0.91861 0.25511 0.29959 0.0
H1175 H -0.0294 0.21999 0.42571 0.0
H1176 H -0.04753 0.22241 0.38128 0.0
H1177 H -0.04158 0.27421 0.33156 0.0
H1178 H 0.88943 0.28824 0.22609 0.0
H1179 H 0.90799 0.28534 0.27004 0.0
C1180 C 0.12435 0.26202 0.99307 0.0
C1181 C 0.12632 0.24704 0.9755 0.0
C1182 C 0.13521 0.26359 1.01862 0.0
C1183 C 0.17976 0.24458 1.05675 0.0
H1184 H 0.15885 0.26985 0.12153 0.0
C1185 C 0.22051 0.24604 0.16769 0.0
C1186 C 0.21858 0.26126 0.18473 0.0
C1187 C 0.20969 0.24421 0.1421 0.0
C1188 C 0.16518 0.26291 0.10363 0.0
H1189 H 0.14115 0.22178 0.97203 0.0
H1190 H 0.15953 0.22427 1.01624 0.0
H1191 H 0.13923 0.26701 0.07855 0.0
H1192 H 0.20393 0.28665 0.18723 0.0
H1193 H 0.18563 0.28369 0.14309 0.0
H1194 H 0.2057 0.24046 0.0819 0.0
C1195 C 0.14998 0.23511 1.01022 0.0
C1196 C 0.15378 0.26127 0.07868 0.0
C1197 C 0.13918 0.23356 0.98476 0.0
C1198 C 0.20584 0.27468 0.17493 0.0
C1199 C 0.19509 0.27288 0.14951 0.0
C1200 C 0.19116 0.24622 0.08173 0.0
C1201 C 0.14848 0.25025 1.02762 0.0
C1202 C 0.16078 0.25207 1.05461 0.0
C1203 C 0.19651 0.25751 0.13265 0.0
C1204 C 0.18417 0.25547 0.10574 0.0
H1205 H 0.11478 0.27278 0.9867 0.0
H1206 H 0.13356 0.27558 1.03091 0.0
H1207 H 0.1861 0.23766 1.03885 0.0
H1208 H 0.22998 0.23531 0.17448 0.0
H1209 H 0.21128 0.23207 0.13017 0.0
C1210 C 0.88585 0.98416 0.16555 0.0
C1211 C 0.87514 0.99864 0.17631 0.0
C1212 C 0.89647 0.98534 0.13999 0.0
C1213 C 0.91808 0.01772 0.08728 0.0
H1214 H 0.92388 0.97542 1.04181 0.0
C1215 C -0.03011 0.01414 0.98579 0.0
C1216 C -0.03676 0.00382 0.96282 0.0
C1217 C -0.04017 0.01406 1.01228 0.0
C1218 C 0.9224 0.9875 1.0539 0.0
H1219 H 0.8673 0.02589 0.16773 0.0
H1220 H 0.88544 0.0279 0.12264 0.0
H1221 H 0.90409 0.97467 0.08446 0.0
H1222 H -0.0592 0.98519 0.95041 0.0
H1223 H 0.92357 0.98521 0.99526 0.0
H1224 H -0.06393 0.03061 1.05585 0.0
C1225 C 0.88585 0.01556 0.13433 0.0
C1226 C 0.91113 0.987 0.07895 0.0
C1227 C 0.87516 0.01436 0.16013 0.0
C1228 C -0.05347 0.99332 0.9674 0.0
C1229 C -0.0634 0.99323 0.99353 0.0
C1230 C -0.0706 0.01824 1.06201 0.0
C1231 C 0.89685 1.00106 0.12378 0.0
C1232 C 0.90869 1.00205 0.09631 0.0
C1233 C -0.05707 1.00356 1.01664 0.0
C1234 C -0.0683 1.00313 1.04467 0.0
H1235 H 0.88644 0.97186 0.17736 0.0
H1236 H 0.90487 0.9739 0.13341 0.0
H1237 H 0.91691 0.02962 0.0999 0.0
H1238 H -0.0174 0.02248 0.98317 0.0
H1239 H -0.0346 0.02215 1.02939 0.0
C1240 C 0.6341 0.0109 0.91698 0.0
C1241 C 0.64017 0.99908 0.93847 0.0
C1242 C 0.64414 0.01173 0.89055 0.0
C1243 C 0.6924 0.99824 0.8559 0.0
H1244 H 0.66555 0.00976 0.78579 0.0
C1245 C 0.73119 0.99406 0.74329 0.0
C1246 C 0.72528 0.00632 0.72234 0.0
C1247 C 0.72135 0.99313 0.76989 0.0
C1248 C 0.67349 0.00671 0.80513 0.0
H1249 H 0.66125 0.97841 0.94804 0.0
H1250 H 0.67812 0.97952 0.9027 0.0
H1251 H 0.64723 0.00858 0.83019 0.0
H1252 H 0.70479 0.02767 0.71396 0.0
H1253 H 0.68824 0.0263 0.75951 0.0
H1254 H 0.71865 0.99631 0.83075 0.0
C1255 C 0.66607 0.98861 0.90611 0.0
C1256 C 0.66284 0.00604 0.83088 0.0
C1257 C 0.65616 0.98785 0.9323 0.0
C1258 C 0.70974 0.0179 0.72926 0.0
C1259 C 0.70001 0.01699 0.75556 0.0
C1260 C 0.70305 0.99887 0.83013 0.0
C1261 C 0.66056 1.00074 0.88472 0.0
C1262 C 0.67203 1.00178 0.85689 0.0
C1263 C 0.70529 0.00441 0.77634 0.0
C1264 C 0.69385 1.00319 0.80415 0.0
H1265 H 0.62196 0.01984 0.92084 0.0
H1266 H 0.63931 0.02136 0.87498 0.0
H1267 H 0.70037 0.99523 0.87522 0.0
H1268 H 0.74297 0.98484 0.73883 0.0
H1269 H 0.726 0.98319 0.78507 0.0
C1270 C -0.01881 0.7644 0.90909 0.0
C1271 C -0.02008 0.74914 0.92621 0.0
C1272 C -0.0296 0.7659 0.88343 0.0
C1273 C 0.92667 0.74631 0.84547 0.0
H1274 H -0.05297 0.77115 0.77991 0.0
C1275 C 0.88553 0.74638 0.73525 0.0
C1276 C 0.88733 0.76127 0.71739 0.0
C1277 C 0.89648 0.74495 0.76076 0.0
C1278 C -0.05916 0.76435 0.79804 0.0
H1279 H -0.03347 0.72328 0.9288 0.0
H1280 H -0.05178 0.72572 0.88454 0.0
H1281 H -0.03325 0.76884 0.82296 0.0
H1282 H 0.90182 0.78653 0.71329 0.0
H1283 H 0.92027 0.78433 0.75745 0.0
H1284 H 0.90073 0.74189 0.82068 0.0
C1285 C -0.04283 0.73679 0.89095 0.0
C1286 C -0.04769 0.763 0.82297 0.0
C1287 C -0.03208 0.7353 0.91641 0.0
C1288 C 0.90003 0.77481 0.72628 0.0
C1289 C 0.91087 0.77343 0.75169 0.0
C1290 C 0.91518 0.7477 0.82057 0.0
C1291 C -0.0421 0.7522 0.87407 0.0
C1292 C -0.05449 0.75391 0.84723 0.0
C1293 C 0.90959 0.75838 0.76937 0.0
C1294 C 0.92199 0.75676 0.79626 0.0
H1295 H -0.00992 0.77543 0.91591 0.0
H1296 H -0.02858 0.77807 0.8714 0.0
H1297 H 0.92054 0.73946 0.86361 0.0
H1298 H 0.87607 0.73559 0.72913 0.0
H1299 H 0.89501 0.73303 0.77331 0.0
C1300 C 0.62468 0.75768 0.99201 0.0
C1301 C 0.62717 0.74268 0.97464 0.0
C1302 C 0.63543 0.75967 1.01756 0.0
C1303 C 0.6804 0.74203 1.05626 0.0
H1304 H 0.65849 0.76738 0.12028 0.0
C1305 C 0.72049 0.74562 0.16756 0.0
C1306 C 0.71818 0.76107 0.18395 0.0
C1307 C 0.70984 0.74321 0.14196 0.0
C1308 C 0.66509 0.76042 0.10259 0.0
H1309 H 0.64281 0.7178 0.97149 0.0
H1310 H 0.66101 0.72099 1.01578 0.0
H1311 H 0.63911 0.76361 0.07729 0.0
H1312 H 0.70305 0.78628 0.18525 0.0
H1313 H 0.68501 0.7823 0.1411 0.0
H1314 H 0.70636 0.7388 0.0817 0.0
C1315 C 0.65113 0.73154 1.00958 0.0
C1316 C 0.65383 0.75825 0.07763 0.0
C1317 C 0.64044 0.72959 0.98409 0.0
C1318 C 0.70525 0.77414 0.17347 0.0
C1319 C 0.69466 0.77176 0.14806 0.0
C1320 C 0.69165 0.74418 0.08127 0.0
C1321 C 0.64908 0.74672 1.02678 0.0
C1322 C 0.66121 0.74902 1.05383 0.0
C1323 C 0.69646 0.75615 0.13186 0.0
C1324 C 0.68429 0.75349 0.10498 0.0
H1325 H 0.61476 0.76815 0.9855 0.0
H1326 H 0.63336 0.77168 1.02967 0.0
H1327 H 0.68701 0.7351 1.03857 0.0
H1328 H 0.73013 0.73515 0.17489 0.0
H1329 H 0.71173 0.73093 0.13051 0.0
C1330 C 0.1298 0.49569 0.91467 0.0
C1331 C 0.12976 0.51172 0.92989 0.0
C1332 C 0.14056 0.49384 0.88907 0.0
C1333 C 0.18208 0.51485 0.8477 0.0
H1334 H 0.16384 0.48528 0.78621 0.0
C1335 C 0.22265 0.51225 0.73703 0.0
C1336 C 0.22216 0.49643 0.72126 0.0
C1337 C 0.21169 0.51415 0.76244 0.0
C1338 C 0.16946 0.49343 0.8032 0.0
H1339 H 0.1408 0.53851 0.92913 0.0
H1340 H 0.15906 0.53545 0.8849 0.0
H1341 H 0.14423 0.48823 0.82921 0.0
H1342 H 0.21002 0.47005 0.72092 0.0
H1343 H 0.19156 0.47312 0.76491 0.0
H1344 H 0.20735 0.52 0.8218 0.0
C1345 C 0.15117 0.52408 0.8928 0.0
C1346 C 0.15804 0.49515 0.82813 0.0
C1347 C 0.14043 0.52591 0.91823 0.0
C1348 C 0.21077 0.48249 0.7322 0.0
C1349 C 0.19991 0.48435 0.75753 0.0
C1350 C 0.19353 0.5131 0.82281 0.0
C1351 C 0.15173 0.50795 0.8778 0.0
C1352 C 0.16407 0.50593 0.85094 0.0
C1353 C 0.19987 0.50029 0.7731 0.0
C1354 C 0.1875 0.50233 0.79995 0.0
H1355 H 0.12196 0.48438 0.92295 0.0
H1356 H 0.14057 0.48113 0.87857 0.0
H1357 H 0.18764 0.52304 0.8647 0.0
H1358 H 0.23117 0.52332 0.72941 0.0
H1359 H 0.21213 0.52673 0.77331 0.0
C1360 C 0.13667 0.76315 0.48485 0.0
C1361 C 0.13566 0.74692 0.47029 0.0
C1362 C 0.1478 0.76481 0.51016 0.0
C1363 C 0.18871 0.7421 0.55102 0.0
H1364 H 0.17338 0.77359 0.61189 0.0
C1365 C 0.23031 0.74339 0.66088 0.0
C1366 C 0.23114 0.75943 0.676 0.0
C1367 C 0.21917 0.74194 0.63557 0.0
C1368 C 0.17817 0.76487 0.59504 0.0
H1369 H 0.14522 0.71961 0.47194 0.0
H1370 H 0.16398 0.72232 0.5157 0.0
H1371 H 0.1529 0.77123 0.56963 0.0
H1372 H 0.22122 0.78665 0.67533 0.0
H1373 H 0.2025 0.78433 0.63145 0.0
H1374 H 0.21398 0.73576 0.57635 0.0
C1375 C 0.15666 0.73398 0.50749 0.0
C1376 C 0.16626 0.7635 0.57056 0.0
C1377 C 0.14561 0.73236 0.48236 0.0
C1378 C 0.22098 0.77405 0.66446 0.0
C1379 C 0.20995 0.77264 0.63925 0.0
C1380 C 0.20062 0.74349 0.57547 0.0
C1381 C 0.15834 0.7503 0.52172 0.0
C1382 C 0.17123 0.75204 0.54803 0.0
C1383 C 0.20847 0.75649 0.62446 0.0
C1384 C 0.19564 0.75491 0.59806 0.0
H1385 H 0.12945 0.77474 0.47617 0.0
H1386 H 0.14866 0.77767 0.5201 0.0
H1387 H 0.19347 0.73336 0.53418 0.0
H1388 H 0.23768 0.73176 0.66913 0.0
H1389 H 0.21847 0.72919 0.62526 0.0
C1390 C -0.02632 0.49551 0.48835 0.0
C1391 C -0.02513 0.51174 0.4737 0.0
C1392 C -0.0373 0.49395 0.51381 0.0
C1393 C 0.92307 0.51755 0.55644 0.0
H1394 H -0.0625 0.48404 0.61518 0.0
C1395 C 0.88298 0.5149 0.66786 0.0
C1396 C 0.88112 0.49833 0.68134 0.0
C1397 C 0.89392 0.51675 0.64238 0.0
C1398 C -0.06702 0.49337 0.59895 0.0
H1399 H -0.03426 0.53915 0.47535 0.0
H1400 H -0.05264 0.53666 0.51951 0.0
H1401 H -0.04242 0.48658 0.57261 0.0
H1402 H 0.889 0.47067 0.67755 0.0
H1403 H 0.90747 0.47376 0.6336 0.0
H1404 H 0.89852 0.52439 0.58295 0.0
C1405 C -0.04564 0.52489 0.51122 0.0
C1406 C -0.05536 0.49483 0.57424 0.0
C1407 C -0.0348 0.5264 0.48584 0.0
C1408 C 0.89006 0.48368 0.66803 0.0
C1409 C 0.90094 0.48551 0.64276 0.0
C1410 C 0.91144 0.51613 0.58121 0.0
C1411 C -0.04746 0.50858 0.52561 0.0
C1412 C -0.06003 0.50695 0.55235 0.0
C1413 C 0.90343 0.5021 0.62956 0.0
C1414 C 0.91609 0.50395 0.603 0.0
H1415 H -0.01933 0.48384 0.47964 0.0
H1416 H -0.03828 0.48107 0.52373 0.0
H1417 H 0.91848 0.52684 0.54019 0.0
H1418 H 0.87656 0.52655 0.67749 0.0
H1419 H 0.89542 0.52981 0.63325 0.0
C1420 C 0.7242 0.51302 0.24269 0.0
C1421 C 0.72565 0.49688 0.22786 0.0
C1422 C 0.71301 0.51441 0.26802 0.0
C1423 C 0.67264 0.49106 0.30878 0.0
H1424 H 0.68732 0.52244 0.36996 0.0
C1425 C 0.63054 0.49169 0.41848 0.0
C1426 C 0.6296 0.50759 0.43403 0.0
C1427 C 0.64181 0.49041 0.39322 0.0
C1428 C 0.68268 0.51374 0.35304 0.0
H1429 H 0.71668 0.46948 0.2291 0.0
H1430 H 0.69776 0.47176 0.27282 0.0
H1431 H 0.70776 0.52049 0.32762 0.0
H1432 H 0.63953 0.53471 0.43415 0.0
H1433 H 0.65844 0.5327 0.39041 0.0
H1434 H 0.64753 0.48436 0.33408 0.0
C1435 C 0.70484 0.48354 0.26483 0.0
C1436 C 0.69458 0.5126 0.32849 0.0
C1437 C 0.71598 0.48216 0.2397 0.0
C1438 C 0.63984 0.52221 0.42298 0.0
C1439 C 0.65099 0.52097 0.39782 0.0
C1440 C 0.66071 0.49223 0.33329 0.0
C1441 C 0.70279 0.49974 0.27938 0.0
C1442 C 0.68988 0.5012 0.3058 0.0
C1443 C 0.65254 0.50498 0.38253 0.0
C1444 C 0.66543 0.50361 0.35603 0.0
H1445 H 0.73118 0.52473 0.23424 0.0
H1446 H 0.71187 0.5272 0.27816 0.0
H1447 H 0.66806 0.48233 0.29186 0.0
H1448 H 0.6231 0.48005 0.42632 0.0
H1449 H 0.64255 0.47776 0.38259 0.0
C1450 C 0.64751 0.23038 0.48172 0.0
C1451 C 0.636 0.24416 0.47018 0.0
C1452 C 0.65803 0.23249 0.50729 0.0
C1453 C 0.66337 0.26156 0.57231 0.0
H1454 H 0.71339 0.23751 0.57919 0.0
C1455 C 0.7155 0.27478 0.66901 0.0
C1456 C 0.72705 0.26087 0.68007 0.0
C1457 C 0.70478 0.27289 0.64353 0.0
C1458 C 0.69937 0.2442 0.57803 0.0
H1459 H 0.62654 0.2711 0.47747 0.0
H1460 H 0.64485 0.27488 0.52201 0.0
H1461 H 0.69404 0.23419 0.53607 0.0
H1462 H 0.73632 0.23395 0.67209 0.0
H1463 H 0.7177 0.23056 0.62785 0.0
H1464 H 0.66873 0.27157 0.61429 0.0
C1465 C 0.64563 0.26223 0.51136 0.0
C1466 C 0.68811 0.24227 0.553 0.0
C1467 C 0.63503 0.26009 0.48565 0.0
C1468 C 0.72779 0.24505 0.6643 0.0
C1469 C 0.71703 0.24314 0.63872 0.0
C1470 C 0.67464 0.26348 0.59736 0.0
C1471 C 0.65762 0.24853 0.52254 0.0
C1472 C 0.66981 0.25086 0.54954 0.0
C1473 C 0.70508 0.25696 0.62791 0.0
C1474 C 0.69291 0.25484 0.60084 0.0
H1475 H 0.64867 0.21787 0.47066 0.0
H1476 H 0.66653 0.22138 0.51507 0.0
H1477 H 0.64936 0.26825 0.5711 0.0
H1478 H 0.71449 0.2872 0.68034 0.0
H1479 H 0.69626 0.28407 0.63607 0.0
C1480 C 0.46544 0.2308 0.91956 0.0
C1481 C 0.47926 0.24336 0.92871 0.0
C1482 C 0.45498 0.23292 0.89389 0.0
C1483 C 0.44091 0.26705 0.83813 0.0
H1484 H 0.42314 0.22591 0.79674 0.0
C1485 C 0.40341 0.27284 0.72589 0.0
C1486 C 0.38869 0.26075 0.71817 0.0
C1487 C 0.41405 0.27099 0.75149 0.0
C1488 C 0.42769 0.23763 0.80808 0.0
H1489 H 0.49292 0.26807 0.91699 0.0
H1490 H 0.47511 0.27165 0.87199 0.0
H1491 H 0.44283 0.22216 0.83951 0.0
H1492 H 0.37367 0.23718 0.73223 0.0
H1493 H 0.39203 0.23394 0.77682 0.0
H1494 H 0.42589 0.28251 0.80641 0.0
C1495 C 0.47202 0.26017 0.88497 0.0
C1496 C 0.43913 0.23547 0.83293 0.0
C1497 C 0.4825 0.25804 0.91081 0.0
C1498 C 0.38479 0.24683 0.7373 0.0
C1499 C 0.39555 0.24489 0.7629 0.0
C1500 C 0.42954 0.26921 0.81318 0.0
C1501 C 0.45786 0.24771 0.87601 0.0
C1502 C 0.44597 0.25012 0.84867 0.0
C1503 C 0.41054 0.25686 0.77048 0.0
C1504 C 0.42262 0.25455 0.7976 0.0
H1505 H 0.46234 0.21935 0.93265 0.0
H1506 H 0.44416 0.22307 0.88857 0.0
H1507 H 0.44539 0.27879 0.84947 0.0
H1508 H 0.407 0.2837 0.71181 0.0
H1509 H 0.42548 0.28045 0.75596 0.0
C1510 C 0.40565 0.01523 0.67982 0.0
C1511 C 0.38932 0.00445 0.68541 0.0
C1512 C 0.41532 0.01494 0.65347 0.0
C1513 C 0.42272 0.98834 0.58652 0.0
H1514 H 0.44657 0.03184 0.56063 0.0
C1515 C 0.47624 0.99104 0.4872 0.0
C1516 C 0.47569 0.00636 0.47006 0.0
C1517 C 0.46566 0.99017 0.51317 0.0
C1518 C 0.43994 0.01951 0.56711 0.0
H1519 H 0.37034 0.98486 0.66662 0.0
H1520 H 0.38708 0.98449 0.62006 0.0
H1521 H 0.42721 0.03176 0.60372 0.0
H1522 H 0.46346 0.03277 0.46747 0.0
H1523 H 0.44524 0.03129 0.51163 0.0
H1524 H 0.43523 0.97626 0.54919 0.0
C1525 C 0.39256 0.99313 0.63653 0.0
C1526 C 0.42891 0.01941 0.59242 0.0
C1527 C 0.38275 0.99345 0.66322 0.0
C1528 C 0.46447 0.02076 0.47997 0.0
C1529 C 0.45398 0.01992 0.50569 0.0
C1530 C 0.43381 0.98845 0.56101 0.0
C1531 C 0.40913 0.00389 0.63115 0.0
C1532 C 0.42013 0.00383 0.60289 0.0
C1533 C 0.45424 0.00463 0.52294 0.0
C1534 C 0.44267 0.00408 0.55072 0.0
H1535 H 0.41131 0.02386 0.69621 0.0
H1536 H 0.4281 0.02321 0.65096 0.0
H1537 H 0.41646 0.97599 0.59364 0.0
H1538 H 0.48454 0.97959 0.48032 0.0
H1539 H 0.46655 0.97816 0.52566 0.0
C1540 C 0.3838 0.7743 0.24305 0.0
C1541 C 0.37504 0.75965 0.2297 0.0
C1542 C 0.3948 0.77244 0.26825 0.0
C1543 C 0.40598 0.74141 0.32926 0.0
H1544 H 0.45165 0.77109 0.33841 0.0
C1545 C 0.46039 0.72987 0.42336 0.0
C1546 C 0.46968 0.74438 0.43629 0.0
C1547 C 0.44951 0.73176 0.39807 0.0
C1548 C 0.43885 0.76279 0.3366 0.0
H1549 H 0.37097 0.73139 0.23338 0.0
H1550 H 0.39001 0.72807 0.27739 0.0
H1551 H 0.43132 0.77404 0.29606 0.0
H1552 H 0.47481 0.77244 0.43186 0.0
H1553 H 0.45582 0.77588 0.38781 0.0
H1554 H 0.41342 0.73022 0.36982 0.0
C1555 C 0.38826 0.74117 0.26842 0.0
C1556 C 0.42704 0.7645 0.31203 0.0
C1557 C 0.37722 0.74306 0.24305 0.0
C1558 C 0.46814 0.76088 0.42248 0.0
C1559 C 0.45712 0.76282 0.39708 0.0
C1560 C 0.41776 0.73974 0.35384 0.0
C1561 C 0.39758 0.75581 0.28131 0.0
C1562 C 0.41033 0.75385 0.30779 0.0
C1563 C 0.44727 0.74833 0.38458 0.0
C1564 C 0.43451 0.75035 0.35808 0.0
H1565 H 0.38253 0.78732 0.23358 0.0
H1566 H 0.40119 0.78418 0.27746 0.0
H1567 H 0.39319 0.7331 0.3274 0.0
H1568 H 0.4612 0.71692 0.4332 0.0
H1569 H 0.44278 0.7201 0.38918 0.0
C1570 C 0.37842 0.49307 0.16914 0.0
C1571 C 0.38536 0.50413 0.19097 0.0
C1572 C 0.388 0.49238 0.14232 0.0
C1573 C 0.42473 0.51711 0.09629 0.0
H1574 H 0.42984 0.47249 1.0569 0.0
C1575 C 0.47437 0.50972 0.99399 0.0
C1576 C 0.46785 0.49822 0.97248 0.0
C1577 C 0.46483 0.51036 1.02083 0.0
C1578 C 0.42845 0.4852 1.06724 0.0
H1579 H 0.4077 0.52341 0.20089 0.0
H1580 H 0.42406 0.52222 0.15518 0.0
H1581 H 0.41134 0.474 0.10114 0.0
H1582 H 0.44629 0.47812 0.96316 0.0
H1583 H 0.4299 0.4793 1.0088 0.0
H1584 H 0.44177 0.52833 1.06237 0.0
C1585 C 0.41122 0.5141 0.15823 0.0
C1586 C 0.41769 0.48605 0.0929 0.0
C1587 C 0.40181 0.51469 0.18481 0.0
C1588 C 0.45187 0.48717 0.979 0.0
C1589 C 0.44244 0.48777 1.00558 0.0
C1590 C 0.43546 0.51627 1.0706 0.0
C1591 C 0.4047 0.50285 0.13637 0.0
C1592 C 0.41561 0.50201 0.10807 0.0
C1593 C 0.44852 0.49944 1.02712 0.0
C1594 C 0.43756 0.5003 1.05542 0.0
H1595 H 0.36587 0.4847 0.17293 0.0
H1596 H 0.38224 0.48363 0.1262 0.0
H1597 H 0.42338 0.52979 0.10672 0.0
H1598 H 0.48654 0.51849 0.9899 0.0
H1599 H 0.47029 0.51943 1.03668 0.0
C1600 C 0.28208 0.02287 1.05284 0.0
C1601 C 0.26942 0.01017 1.06474 0.0
C1602 C 0.28896 0.02153 1.02463 0.0
C1603 C 0.29255 0.98992 0.96147 0.0
H1604 H 0.30891 0.03237 0.92199 0.0
C1605 C 0.31181 0.99063 0.8394 0.0
C1606 C 0.32749 1.00112 0.82972 0.0
C1607 C 0.30521 0.99136 0.86785 0.0
C1608 C 0.30463 0.02029 0.93265 0.0
H1609 H 0.25393 0.98605 1.05518 0.0
H1610 H 0.26519 0.98396 1.00576 0.0
H1611 H 0.29584 0.03443 0.96996 0.0
H1612 H 0.3485 0.02069 0.84326 0.0
H1613 H 0.33685 0.02224 0.89271 0.0
H1614 H 0.30085 0.97594 0.92346 0.0
C1615 C 0.27037 0.99487 1.01848 0.0
C1616 C 0.29709 0.02143 0.96062 0.0
C1617 C 0.26366 0.99611 1.04702 0.0
C1618 C 0.33642 0.01237 0.84972 0.0
C1619 C 0.3296 0.01333 0.87818 0.0
C1620 C 0.29984 0.98883 0.93332 0.0
C1621 C 0.28329 0.00754 1.00657 0.0
C1622 C 0.29096 0.00626 0.97591 0.0
C1623 C 0.31381 1.00284 0.88786 0.0
C1624 C 0.30613 0.00398 0.91831 0.0
H1625 H 0.28708 0.03387 1.06559 0.0
H1626 H 0.29914 0.03146 1.01733 0.0
H1627 H 0.28847 0.97776 0.972 0.0
H1628 H 0.30447 0.98179 0.82481 0.0
H1629 H 0.29296 0.98316 0.87398 0.0
C1630 C 0.84352 0.26295 1.04665 0.0
C1631 C 0.83783 0.24883 1.06438 0.0
C1632 C 0.83722 0.264 1.01789 0.0
C1633 C 0.81171 0.23676 0.95972 0.0
H1634 H 0.80877 0.28185 0.92089 0.0
C1635 C 0.77427 0.24483 0.84723 0.0
C1636 C 0.78388 0.25552 0.82702 0.0
C1637 C 0.78052 0.24425 0.87599 0.0
C1638 C 0.80955 0.26908 0.93125 0.0
H1639 H 0.82062 0.22487 1.06506 0.0
H1640 H 0.80914 0.22697 1.01647 0.0
H1641 H 0.8202 0.28053 0.96997 0.0
H1642 H 0.80744 0.27431 0.82206 0.0
H1643 H 0.81793 0.27365 0.8718 0.0
H1644 H 0.80054 0.22546 0.92104 0.0
C1645 C 0.81904 0.23708 1.02388 0.0
C1646 C 0.8163 0.26827 0.95972 0.0
C1647 C 0.82556 0.23591 1.0523 0.0
C1648 C 0.79961 0.2659 0.83681 0.0
C1649 C 0.80562 0.26557 0.86556 0.0
C1650 C 0.80466 0.23763 0.93146 0.0
C1651 C 0.82474 0.25108 1.00575 0.0
C1652 C 0.8176 0.25207 0.97477 0.0
C1653 C 0.79637 0.2546 0.88577 0.0
C1654 C 0.80347 0.25379 0.91653 0.0
H1655 H 0.85297 0.27317 1.05495 0.0
H1656 H 0.84242 0.27493 1.00517 0.0
H1657 H 0.81279 0.22385 0.96949 0.0
H1658 H 0.76213 0.23662 0.8407 0.0
H1659 H 0.77279 0.23573 0.89068 0.0
C1660 C 0.2667 0.26327 0.35509 0.0
C1661 C 0.27338 0.24983 0.33671 0.0
C1662 C 0.27307 0.26413 0.38381 0.0
C1663 C 0.29945 0.23715 0.44139 0.0
H1664 H 0.30243 0.28225 0.47979 0.0
C1665 C 0.33555 0.24419 0.555 0.0
C1666 C 0.3271 0.25623 0.57435 0.0
C1667 C 0.32932 0.24348 0.52622 0.0
C1668 C 0.30158 0.26944 0.46968 0.0
H1669 H 0.29224 0.22678 0.33485 0.0
H1670 H 0.30356 0.22846 0.38382 0.0
H1671 H 0.29095 0.28096 0.43078 0.0
H1672 H 0.30552 0.27718 0.57776 0.0
H1673 H 0.29482 0.27601 0.52826 0.0
H1674 H 0.31031 0.22569 0.48028 0.0
C1675 C 0.29305 0.23823 0.37667 0.0
C1676 C 0.29485 0.26868 0.4412 0.0
C1677 C 0.2866 0.23732 0.34815 0.0
C1678 C 0.31246 0.26768 0.56372 0.0
C1679 C 0.30634 0.26708 0.53501 0.0
C1680 C 0.30631 0.23793 0.46978 0.0
C1681 C 0.28645 0.25163 0.39533 0.0
C1682 C 0.29359 0.2525 0.42628 0.0
C1683 C 0.31452 0.2549 0.51556 0.0
C1684 C 0.3075 0.25409 0.48466 0.0
H1685 H 0.2565 0.27314 0.34732 0.0
H1686 H 0.26721 0.27458 0.39703 0.0
H1687 H 0.29848 0.22429 0.43152 0.0
H1688 H 0.3469 0.23519 0.56213 0.0
H1689 H 0.33631 0.23402 0.51223 0.0
C1690 C 0.81672 0.02651 0.34574 0.0
C1691 C 0.82894 0.01364 0.3332 0.0
C1692 C 0.81103 0.02542 0.37456 0.0
C1693 C 0.81022 0.99416 0.43843 0.0
H1694 H 0.79636 0.03694 0.47902 0.0
C1695 C 0.79749 0.99509 0.56196 0.0
C1696 C 0.78242 0.00578 0.57329 0.0
C1697 C 0.80261 0.99585 0.53291 0.0
C1698 C 0.79996 0.02478 0.46807 0.0
H1699 H 0.84497 0.98954 0.34205 0.0
H1700 H 0.83579 0.98787 0.39233 0.0
H1701 H 0.80694 0.0387 0.42968 0.0
H1702 H 0.76092 0.02571 0.56213 0.0
H1703 H 0.77001 0.02728 0.51155 0.0
H1704 H 0.80372 0.98037 0.47734 0.0
C1705 C 0.82999 0.99869 0.37978 0.0
C1706 C 0.80605 0.02575 0.43935 0.0
C1707 C 0.83549 0.99969 0.35074 0.0
C1708 C 0.77259 0.01727 0.55437 0.0
C1709 C 0.77793 0.01822 0.52526 0.0
C1710 C 0.80438 0.99323 0.46726 0.0
C1711 C 0.81754 0.01151 0.39242 0.0
C1712 C 0.81127 0.01045 0.4237 0.0
C1713 C 0.79307 0.0075 0.51391 0.0
C1714 C 0.79907 0.00851 0.48271 0.0
H1715 H 0.8112 0.03743 0.33309 0.0
H1716 H 0.80116 0.03546 0.38254 0.0
H1717 H 0.81362 0.98191 0.42764 0.0
H1718 H 0.80544 0.98606 0.57569 0.0
H1719 H 0.81444 0.98747 0.52546 0.0
C1720 C 0.56186 0.01016 0.09187 0.0
C1721 C 0.57751 0.9999 0.08123 0.0
C1722 C 0.55636 0.00947 0.12082 0.0
C1723 C 0.56007 0.98131 0.18677 0.0
H1724 H 0.54299 0.02381 0.22545 0.0
C1725 C 0.54308 0.98044 0.30907 0.0
C1726 C 0.52961 0.99254 0.32091 0.0
C1727 C 0.54881 0.98147 0.28026 0.0
C1728 C 0.54738 0.01166 0.21514 0.0
H1729 H 0.59968 0.98084 0.0935 0.0
H1730 H 0.59006 0.97944 0.1438 0.0
H1731 H 0.55314 0.02528 0.17583 0.0
H1732 H 0.51143 0.01517 0.3108 0.0
H1733 H 0.5208 0.01672 0.26057 0.0
H1734 H 0.55395 0.96755 0.22563 0.0
C1735 C 0.58189 0.98806 0.12968 0.0
C1736 C 0.55334 0.01254 0.18635 0.0
C1737 C 0.58753 0.98892 0.1007 0.0
C1738 C 0.5219 0.00565 0.30268 0.0
C1739 C 0.52748 0.00659 0.27367 0.0
C1740 C 0.55392 0.98038 0.21545 0.0
C1741 C 0.56616 0.99833 0.14039 0.0
C1742 C 0.55988 0.9974 0.17152 0.0
C1743 C 0.54116 0.99454 0.26173 0.0
C1744 C 0.54748 0.99554 0.23047 0.0
H1745 H 0.55373 0.0188 0.07771 0.0
H1746 H 0.54409 0.01748 0.12773 0.0
H1747 H 0.56462 0.96923 0.17634 0.0
H1748 H 0.54948 0.97018 0.32226 0.0
H1749 H 0.55961 0.97207 0.27278 0.0
C1750 C 0.026 0.74891 0.09752 0.0
C1751 C 0.03162 0.76282 0.07931 0.0
C1752 C 0.03255 0.74816 0.12616 0.0
C1753 C 0.05636 0.77657 0.18334 0.0
H1754 H 0.06386 0.73197 0.22245 0.0
C1755 C 0.07549 0.7751 0.30429 0.0
C1756 C 0.08677 0.76123 0.31597 0.0
C1757 C 0.06891 0.77471 0.27589 0.0
C1758 C 0.06209 0.74462 0.21195 0.0
H1759 H 0.04884 0.78675 0.07752 0.0
H1760 H 0.06051 0.78528 0.1262 0.0
H1761 H 0.05242 0.73228 0.17324 0.0
H1762 H 0.10001 0.73596 0.30602 0.0
H1763 H 0.08904 0.7354 0.25625 0.0
H1764 H 0.06663 0.78894 0.22137 0.0
C1765 C 0.05063 0.77507 0.11907 0.0
C1766 C 0.05517 0.74481 0.18352 0.0
C1767 C 0.044 0.77586 0.09071 0.0
C1768 C 0.09137 0.74692 0.29796 0.0
C1769 C 0.08487 0.74657 0.26929 0.0
C1770 C 0.06336 0.77638 0.21157 0.0
C1771 C 0.04503 0.76127 0.13763 0.0
C1772 C 0.05216 0.76082 0.16849 0.0
C1773 C 0.07346 0.76049 0.25757 0.0
C1774 C 0.06633 0.76043 0.2267 0.0
H1775 H 0.01647 0.73861 0.08967 0.0
H1776 H 0.02755 0.73737 0.13939 0.0
H1777 H 0.05406 0.7893 0.17332 0.0
H1778 H 0.07144 0.78633 0.31731 0.0
H1779 H 0.05987 0.78558 0.26856 0.0
C1780 C 0.55209 0.73837 0.82007 0.0
C1781 C 0.56761 0.74877 0.83045 0.0
C1782 C 0.54643 0.73891 0.79116 0.0
C1783 C 0.54884 0.76711 0.72529 0.0
H1784 H 0.5328 0.72449 0.68643 0.0
C1785 C 0.53078 0.76849 0.60337 0.0
C1786 C 0.51793 0.75606 0.59127 0.0
C1787 C 0.53669 0.76737 0.6321 0.0
C1788 C 0.53687 0.73668 0.69678 0.0
H1789 H 0.5894 0.76789 0.8177 0.0
H1790 H 0.57943 0.76905 0.76751 0.0
H1791 H 0.54334 0.72302 0.73591 0.0
H1792 H 0.50104 0.73271 0.60089 0.0
H1793 H 0.51065 0.73101 0.65107 0.0
H1794 H 0.54193 0.78094 0.68674 0.0
C1795 C 0.57152 0.76042 0.78181 0.0
C1796 C 0.54308 0.73579 0.7255 0.0
C1797 C 0.57737 0.75969 0.81072 0.0
C1798 C 0.511 0.74252 0.60922 0.0
C1799 C 0.51674 0.7415 0.6382 0.0
C1800 C 0.5424 0.76806 0.69672 0.0
C1801 C 0.55588 0.75006 0.77139 0.0
C1802 C 0.5493 0.75098 0.74037 0.0
C1803 C 0.52981 0.75389 0.65038 0.0
C1804 C 0.53635 0.75285 0.6816 0.0
H1805 H 0.54417 0.72977 0.83443 0.0
H1806 H 0.53426 0.73081 0.78446 0.0
H1807 H 0.5531 0.77923 0.73577 0.0
H1808 H 0.53662 0.77908 0.59043 0.0
H1809 H 0.54704 0.77706 0.63968 0.0
C1810 C 0.04291 0.01647 0.81141 0.0
C1811 C 0.02696 0.00628 0.82099 0.0
C1812 C 0.04931 0.01583 0.78287 0.0
C1813 C 0.04851 0.98751 0.7175 0.0
H1814 H 0.06527 0.03003 0.67868 0.0
C1815 C 0.06931 0.98562 0.59681 0.0
C1816 C 0.08241 0.998 0.58506 0.0
C1817 C 0.06277 0.98688 0.62518 0.0
C1818 C 0.06101 0.01788 0.68906 0.0
H1819 H 0.00525 0.98739 0.80727 0.0
H1820 H 0.01655 0.986 0.75769 0.0
H1821 H 0.05348 0.03169 0.72755 0.0
H1822 H 0.09904 0.02144 0.59493 0.0
H1823 H 0.08834 0.02338 0.64462 0.0
H1824 H 0.05651 0.97352 0.67969 0.0
C1825 C 0.02417 0.99457 0.77234 0.0
C1826 C 0.05408 0.01888 0.71739 0.0
C1827 C 0.01757 0.99543 0.80087 0.0
C1828 C 0.08894 0.01165 0.60301 0.0
C1829 C 0.08257 0.01281 0.63168 0.0
C1830 C 0.05569 0.98646 0.68936 0.0
C1831 C 0.04021 0.00476 0.76274 0.0
C1832 C 0.04758 0.00373 0.73218 0.0
C1833 C 0.06924 1.00046 0.64347 0.0
C1834 C 0.062 1.00163 0.67428 0.0
H1835 H 0.05056 0.025 0.82612 0.0
H1836 H 0.06176 0.02378 0.77675 0.0
H1837 H 0.04406 0.97544 0.72801 0.0
H1838 H 0.06375 0.97495 0.58384 0.0
H1839 H 0.05225 0.97724 0.63244 0.0
C1840 C 0.29034 0.52274 0.56183 0.0
C1841 C 0.27756 0.51019 0.5738 0.0
C1842 C 0.29592 0.52201 0.53293 0.0
C1843 C 0.29491 0.49222 0.46737 0.0
H1844 H 0.31064 0.53521 0.4289 0.0
C1845 C 0.3074 0.49539 0.34368 0.0
C1846 C 0.32294 0.50564 0.33291 0.0
C1847 C 0.3023 0.49572 0.37279 0.0
C1848 C 0.3065 0.52298 0.43923 0.0
H1849 H 0.26042 0.48706 0.56387 0.0
H1850 H 0.26943 0.48604 0.51351 0.0
H1851 H 0.30048 0.53631 0.47846 0.0
H1852 H 0.34531 0.5243 0.34512 0.0
H1853 H 0.33629 0.52513 0.39571 0.0
H1854 H 0.30047 0.47907 0.42762 0.0
C1855 C 0.27576 0.4963 0.52653 0.0
C1856 C 0.30066 0.52357 0.46808 0.0
C1857 C 0.27038 0.49692 0.55564 0.0
C1858 C 0.33324 0.51625 0.35242 0.0
C1859 C 0.32795 0.51677 0.38156 0.0
C1860 C 0.30051 0.49169 0.4384 0.0
C1861 C 0.28873 0.50882 0.51442 0.0
C1862 C 0.29478 0.50819 0.483 0.0
C1863 C 0.31236 0.50649 0.39239 0.0
C1864 C 0.30649 0.50705 0.42369 0.0
H1865 H 0.29632 0.53314 0.57498 0.0
H1866 H 0.3062 0.53177 0.52536 0.0
H1867 H 0.29098 0.47991 0.47753 0.0
H1868 H 0.29909 0.48702 0.3295 0.0
H1869 H 0.29013 0.48771 0.37984 0.0
C1870 C 0.83488 0.76277 0.55106 0.0
C1871 C 0.82896 0.74928 0.56987 0.0
C1872 C 0.82816 0.76331 0.5225 0.0
C1873 C 0.80375 0.73474 0.46626 0.0
H1874 H 0.796 0.77913 0.42658 0.0
C1875 C 0.7849 0.73596 0.34501 0.0
C1876 C 0.77314 0.74955 0.33346 0.0
C1877 C 0.79146 0.73641 0.37344 0.0
C1878 C 0.79787 0.76654 0.43724 0.0
H1879 H 0.81111 0.72579 0.57273 0.0
H1880 H 0.79928 0.72679 0.52398 0.0
H1881 H 0.80768 0.77908 0.47572 0.0
H1882 H 0.75898 0.77436 0.34373 0.0
H1883 H 0.77006 0.7751 0.39346 0.0
H1884 H 0.7935 0.72217 0.42831 0.0
C1885 C 0.80942 0.7369 0.53073 0.0
C1886 C 0.8049 0.76651 0.46562 0.0
C1887 C 0.81615 0.73636 0.55909 0.0
C1888 C 0.76802 0.76365 0.35164 0.0
C1889 C 0.77457 0.76409 0.3803 0.0
C1890 C 0.79672 0.73478 0.43801 0.0
C1891 C 0.81527 0.75033 0.51164 0.0
C1892 C 0.80798 0.75058 0.48085 0.0
C1893 C 0.78647 0.75046 0.39187 0.0
C1894 C 0.79365 0.75066 0.42271 0.0
H1895 H 0.84476 0.77297 0.55841 0.0
H1896 H 0.83335 0.77381 0.50884 0.0
H1897 H 0.80606 0.72209 0.47651 0.0
H1898 H 0.78932 0.72489 0.33185 0.0
H1899 H 0.80082 0.72576 0.38074 0.0
C1900 C 0.28298 0.73013 0.84892 0.0
C1901 C 0.27724 0.74537 0.83369 0.0
C1902 C 0.28937 0.7311 0.87741 0.0
C1903 C 0.30972 0.76203 0.93253 0.0
H1904 H 0.29519 0.72471 0.98474 0.0
C1905 C 0.33175 0.76363 1.05451 0.0
C1906 C 0.33406 0.74745 1.06909 0.0
C1907 C 0.32496 0.76414 1.02596 0.0
C1908 C 0.29983 0.73517 0.97058 0.0
H1909 H 0.27388 0.77374 0.83722 0.0
H1910 H 0.28516 0.7755 0.88683 0.0
H1911 H 0.28328 0.72417 0.93611 0.0
H1912 H 0.3316 0.71912 1.06418 0.0
H1913 H 0.32073 0.71988 1.01502 0.0
H1914 H 0.32655 0.7729 0.96695 0.0
C1915 C 0.28474 0.76269 0.87664 0.0
C1916 C 0.29281 0.73488 0.94236 0.0
C1917 C 0.27809 0.76168 0.84812 0.0
C1918 C 0.32991 0.73187 1.05391 0.0
C1919 C 0.32337 0.73235 1.0255 0.0
C1920 C 0.31694 0.76225 0.96081 0.0
C1921 C 0.29051 0.74739 0.89191 0.0
C1922 C 0.29768 0.74821 0.92261 0.0
C1923 C 0.32036 0.74848 1.01088 0.0
C1924 C 0.31229 0.74872 0.98049 0.0
H1925 H 0.28265 0.71733 0.83868 0.0
H1926 H 0.29383 0.71899 0.88792 0.0
H1927 H 0.31404 0.77253 0.9182 0.0
H1928 H 0.33463 0.77594 1.0654 0.0
H1929 H 0.32284 0.77692 1.01604 0.0
C1930 C 0.82924 0.52505 0.85249 0.0
C1931 C 0.83458 0.50965 0.83746 0.0
C1932 C 0.82225 0.52428 0.8807 0.0
C1933 C 0.79899 0.49424 0.93479 0.0
H1934 H 0.81413 0.53087 0.98763 0.0
C1935 C 0.77301 0.49372 1.05522 0.0
C1936 C 0.77148 0.50992 1.06985 0.0
C1937 C 0.78064 0.49291 1.02713 0.0
C1938 C 0.80928 0.52063 0.97329 0.0
H1939 H 0.83653 0.48118 0.84112 0.0
H1940 H 0.82417 0.47976 0.89029 0.0
H1941 H 0.82736 0.53085 0.93975 0.0
H1942 H 0.77631 0.53802 1.06542 0.0
H1943 H 0.78859 0.53684 1.017 0.0
H1944 H 0.78059 0.48419 0.9682 0.0
C1945 C 0.82544 0.49256 0.88013 0.0
C1946 C 0.81709 0.52058 0.94548 0.0
C1947 C 0.83273 0.49337 0.85188 0.0
C1948 C 0.77732 0.52525 1.05513 0.0
C1949 C 0.78469 0.5245 1.02713 0.0
C1950 C 0.79096 0.49438 0.96263 0.0
C1951 C 0.82003 0.50803 0.89516 0.0
C1952 C 0.81206 0.50748 0.9255 0.0
C1953 C 0.78689 0.5083 1.01249 0.0
C1954 C 0.79579 0.50768 0.98254 0.0
H1955 H 0.8303 0.53785 0.84226 0.0
H1956 H 0.81812 0.53653 0.89099 0.0
H1957 H 0.79449 0.48395 0.92026 0.0
H1958 H 0.76884 0.48156 1.06575 0.0
H1959 H 0.78206 0.48007 1.01725 0.0
C1960 C 0.54231 0.5114 0.81468 0.0
C1961 C 0.52666 0.50111 0.82505 0.0
C1962 C 0.54805 0.51082 0.78583 0.0
C1963 C 0.54549 0.48281 0.71994 0.0
H1964 H 0.56239 0.52541 0.68148 0.0
C1965 C 0.56424 0.48186 0.59827 0.0
C1966 C 0.57754 0.49407 0.58654 0.0
C1967 C 0.55811 0.48293 0.62688 0.0
C1968 C 0.55807 0.51322 0.69173 0.0
H1969 H 0.50478 0.48212 0.81235 0.0
H1970 H 0.51487 0.48089 0.76218 0.0
H1971 H 0.55156 0.5268 0.73081 0.0
H1972 H 0.59499 0.51697 0.59669 0.0
H1973 H 0.58494 0.5186 0.64668 0.0
H1974 H 0.55241 0.46908 0.68139 0.0
C1975 C 0.5228 0.48947 0.77647 0.0
C1976 C 0.55169 0.51406 0.72035 0.0
C1977 C 0.51688 0.49024 0.80536 0.0
C1978 C 0.58466 0.50736 0.60472 0.0
C1979 C 0.57869 0.50833 0.63359 0.0
C1980 C 0.55207 0.48192 0.69145 0.0
C1981 C 0.53854 0.49976 0.76607 0.0
C1982 C 0.5452 0.49888 0.7351 0.0
C1983 C 0.56519 0.49614 0.6454 0.0
C1984 C 0.55845 0.49712 0.6765 0.0
H1985 H 0.55026 0.51995 0.829 0.0
H1986 H 0.56031 0.51884 0.77917 0.0
H1987 H 0.541 0.4707 0.73032 0.0
H1988 H 0.55827 0.47146 0.58513 0.0
H1989 H 0.54745 0.47343 0.6342 0.0
C1990 C 0.05324 0.24252 0.81905 0.0
C1991 C 0.06814 0.25359 0.82956 0.0
C1992 C 0.04758 0.24289 0.79014 0.0
C1993 C 0.04819 0.27152 0.72481 0.0
H1994 H 0.03487 0.22842 0.68509 0.0
C1995 C 0.03027 0.27303 0.60309 0.0
C1996 C 0.01823 0.26013 0.59052 0.0
C1997 C 0.03617 0.2719 0.63178 0.0
C1998 C 0.03817 0.24072 0.6957 0.0
H1999 H 0.08883 0.27372 0.81705 0.0
H2000 H 0.07883 0.27461 0.76683 0.0
H2001 H 0.04557 0.22712 0.73456 0.0
H2002 H 0.00281 0.23583 0.59932 0.0
H2003 H 0.01239 0.23408 0.64958 0.0
H2004 H 0.0403 0.28527 0.6866 0.0
C2005 C 0.07143 0.26557 0.78104 0.0
C2006 C 0.04448 0.23994 0.72439 0.0
C2007 C 0.0773 0.265 0.80996 0.0
C2008 C 0.01209 0.24605 0.60802 0.0
C2009 C 0.01782 0.24501 0.63703 0.0
C2010 C 0.04165 0.27234 0.6963 0.0
C2011 C 0.0564 0.25454 0.77051 0.0
C2012 C 0.04973 0.25532 0.73954 0.0
C2013 C 0.03007 0.25792 0.64964 0.0
C2014 C 0.0366 0.25696 0.68086 0.0
H2015 H 0.04579 0.23353 0.83331 0.0
H2016 H 0.03588 0.23426 0.78333 0.0
H2017 H 0.05166 0.28376 0.73553 0.0
H2018 H 0.03551 0.28405 0.59053 0.0
H2019 H 0.04591 0.282 0.63966 0.0
C2020 C 0.55039 0.23697 0.08812 0.0
C2021 C 0.53526 0.24784 0.07733 0.0
C2022 C 0.55591 0.23745 0.11706 0.0
C2023 C 0.55361 0.2659 0.18267 0.0
H2024 H 0.56969 0.22309 0.22171 0.0
C2025 C 0.57121 0.26669 0.30469 0.0
C2026 C 0.58449 0.25443 0.31667 0.0
C2027 C 0.56532 0.26565 0.27598 0.0
C2028 C 0.56558 0.23532 0.21129 0.0
H2029 H 0.514 0.26773 0.08943 0.0
H2030 H 0.52365 0.26873 0.13977 0.0
H2031 H 0.55908 0.22175 0.17225 0.0
H2032 H 0.60214 0.23145 0.30683 0.0
H2033 H 0.59242 0.22982 0.25666 0.0
H2034 H 0.56045 0.27959 0.22126 0.0
C2035 C 0.5314 0.2598 0.12573 0.0
C2036 C 0.55935 0.23452 0.18259 0.0
C2037 C 0.52572 0.25916 0.09673 0.0
C2038 C 0.59183 0.24111 0.29862 0.0
C2039 C 0.58605 0.24014 0.26965 0.0
C2040 C 0.56001 0.26674 0.21126 0.0
C2041 C 0.54668 0.24897 0.13654 0.0
C2042 C 0.55317 0.24979 0.16762 0.0
C2043 C 0.5726 0.25239 0.2576 0.0
C2044 C 0.56608 0.25146 0.2264 0.0
H2045 H 0.55815 0.22806 1.07403 0.0
H2046 H 0.56783 0.229 0.12401 0.0
H2047 H 0.54938 0.27808 0.17215 0.0
H2048 H 0.56507 0.27713 0.31771 0.0
H2049 H 0.55468 0.27521 0.26844 0.0
C2050 C 0.06246 0.51739 0.09202 0.0
C2051 C 0.07802 0.50691 0.08162 0.0
C2052 C 0.05673 0.51682 0.12085 0.0
C2053 C 0.05857 0.48836 0.18627 0.0
H2054 H 0.04215 0.53102 0.22513 0.0
C2055 C 0.0384 0.48666 0.3074 0.0
C2056 C 0.02533 0.49916 0.31912 0.0
C2057 C 0.04486 0.48786 0.27897 0.0
C2058 C 0.04632 0.51882 0.21476 0.0
H2059 H 0.09979 0.48757 0.09427 0.0
H2060 H 0.0897 0.48635 0.14449 0.0
H2061 H 0.05346 0.53259 0.17605 0.0
H2062 H 0.00867 0.52274 0.30914 0.0
H2063 H 0.01926 0.52458 0.2594 0.0
H2064 H 0.05096 0.47445 0.2244 0.0
C2065 C 0.08186 0.49511 0.13019 0.0
C2066 C 0.05298 0.51977 0.18629 0.0
C2067 C 0.0878 0.49589 0.1013 0.0
C2068 C 0.01878 0.51288 0.3011 0.0
C2069 C 0.02508 0.51398 0.27239 0.0
C2070 C 0.05167 0.48737 0.2146 0.0
C2071 C 0.06614 0.50555 0.14056 0.0
C2072 C 0.05931 0.50456 0.17143 0.0
C2073 C 0.03835 0.50149 0.2606 0.0
C2074 C 0.04544 0.50259 0.22968 0.0
H2075 H 0.05449 0.52604 0.07768 0.0
H2076 H 0.04449 0.52496 0.1275 0.0
H2077 H 0.06291 0.47625 0.17575 0.0
H2078 H 0.04395 0.47593 0.32042 0.0
H2079 H 0.05533 0.47811 0.27168 0.0
C2080 C 0.21803 0.192 0.24632 0.0
C2081 C 0.23582 0.20054 0.24004 0.0
C2082 C 0.21435 0.17472 0.23608 0.0
C2083 C 0.23073 0.14451 0.17809 0.0
H2084 H 0.21074 0.10584 0.22357 0.0
C2085 C 0.24582 0.07209 0.14871 0.0
C2086 C 0.23163 0.059 0.15324 0.0
C2087 C 0.24272 0.08953 0.15754 0.0
C2088 C 0.21603 0.11655 0.21038 0.0
H2089 H 0.26398 0.19696 0.21924 0.0
H2090 H 0.25764 0.16757 0.2019 0.0
H2091 H 0.21195 0.13581 0.24364 0.0
H2092 H 0.20286 0.05408 0.17071 0.0
H2093 H 0.19732 0.08482 0.18636 0.0
H2094 H 0.23526 0.12546 0.14513 0.0
C2095 C 0.24628 0.17414 0.21405 0.0
C2096 C 0.21674 0.13376 0.22194 0.0
C2097 C 0.24994 0.19111 0.22424 0.0
C2098 C 0.2139 0.06394 0.16634 0.0
C2099 C 0.21088 0.0815 0.17568 0.0
C2100 C 0.23002 0.12745 0.16663 0.0
C2101 C 0.22833 0.16574 0.2192 0.0
C2102 C 0.22468 0.14788 0.20621 0.0
C2103 C 0.22538 0.09452 0.17165 0.0
C2104 C 0.22322 0.11307 0.18281 0.0
H2105 H 0.20681 0.19879 0.25841 0.0
H2106 H 0.20038 0.16863 0.24061 0.0
H2107 H 0.23649 0.15508 0.16501 0.0
H2108 H 0.25975 0.06869 0.13907 0.0
H2109 H 0.25438 0.09898 0.15434 0.0
C2110 C 0.88324 0.06912 0.24474 0.0
C2111 C 0.86952 0.05901 0.22955 0.0
C2112 C 0.88827 0.08632 0.23544 0.0
C2113 C 0.8857 0.11569 0.17088 0.0
H2114 H 0.88727 0.15463 0.22415 0.0
C2115 C 0.87056 0.18789 0.13701 0.0
C2116 C 0.8806 0.2018 0.15019 0.0
C2117 C 0.87349 0.17033 0.14569 0.0
C2118 C 0.88721 0.1439 0.20895 0.0
H2119 H 0.85079 0.05915 0.19217 0.0
H2120 H 0.85936 0.08843 0.17644 0.0
H2121 H 0.88467 0.12426 0.2419 0.0
H2122 H 0.90148 0.20821 0.18313 0.0
H2123 H 0.90677 0.17741 0.19835 0.0
H2124 H 0.88761 0.13523 0.13794 0.0
C2125 C 0.86646 0.0833 0.19534 0.0
C2126 C 0.88573 0.12642 0.21918 0.0
C2127 C 0.86138 0.0664 0.20465 0.0
C2128 C 0.89404 0.1977 0.17192 0.0
C2129 C 0.89678 0.18008 0.18096 0.0
C2130 C 0.88709 0.13308 0.1607 0.0
C2131 C 0.87991 0.09365 0.21051 0.0
C2132 C 0.88439 0.11207 0.20024 0.0
C2133 C 0.88624 0.16615 0.16832 0.0
C2134 C 0.88738 0.14751 0.1795 0.0
H2135 H 0.88976 0.06392 0.26403 0.0
H2136 H 0.89874 0.09384 0.24769 0.0
H2137 H 0.88523 0.10504 0.15555 0.0
H2138 H 0.85965 0.1907 0.12087 0.0
H2139 H 0.86486 0.16012 0.13566 0.0
C2140 C 0.63022 0.81093 0.91518 0.0
C2141 C 0.61081 0.80507 0.91214 0.0
C2142 C 0.63411 0.82836 0.92405 0.0
C2143 C 0.6104 0.87272 0.93035 0.0
H2144 H 0.64643 0.88102 0.99266 0.0
C2145 C 0.60177 0.93363 0.99919 0.0
C2146 C 0.61808 0.94462 1.00307 0.0
C2147 C 0.60392 0.91653 0.9886 0.0
C2148 C 0.63651 0.87893 0.97501 0.0
H2149 H 0.58036 0.8131 0.91506 0.0
H2150 H 0.58702 0.84309 0.92994 0.0
H2151 H 0.64481 0.8516 0.97058 0.0
H2152 H 0.6497 0.9458 1.00042 0.0
H2153 H 0.65357 0.91542 0.98207 0.0
H2154 H 0.60158 0.89969 0.93523 0.0
C2155 C 0.59934 0.83446 0.92554 0.0
C2156 C 0.63561 0.86211 0.96229 0.0
C2157 C 0.5955 0.81715 0.91707 0.0
C2158 C 0.63687 0.93758 0.99797 0.0
C2159 C 0.63906 0.92026 0.98729 0.0
C2160 C 0.61122 0.88936 0.94307 0.0
C2161 C 0.61865 0.84031 0.92955 0.0
C2162 C 0.6221 0.85866 0.94033 0.0
C2163 C 0.62248 0.90983 0.98145 0.0
C2164 C 0.62384 0.89258 0.9661 0.0
H2165 H 0.64234 0.80187 0.91188 0.0
H2166 H 0.64916 0.83245 0.9268 0.0
H2167 H 0.60017 0.87073 0.91306 0.0
H2168 H 0.58709 0.93858 1.00307 0.0
H2169 H 0.59089 0.90873 0.985 0.0
C2170 C 0.00629 0.82124 0.96937 0.0
C2171 C -0.0084 0.81068 0.98156 0.0
C2172 C 0.00243 0.83851 0.96058 0.0
C2173 C -0.03594 0.86942 0.93677 0.0
H2174 H 0.00516 0.90356 0.95041 0.0
C2175 C -0.03594 0.94524 0.90233 0.0
C2176 C -0.0178 0.95124 0.892 0.0
C2177 C -0.03789 0.92778 0.91259 0.0
C2178 C -0.00645 0.89421 0.94624 0.0
H2179 H -0.0389 0.81026 0.99409 0.0
H2180 H -0.04579 0.84091 0.97848 0.0
H2181 H 0.0072 0.87449 0.9722 0.0
H2182 H 0.01199 0.94338 0.88249 0.0
H2183 H 0.00852 0.91318 0.89952 0.0
H2184 H -0.04944 0.88946 0.91047 0.0
C2185 C -0.03119 0.83554 0.97581 0.0
C2186 C -0.0053 0.87749 0.95883 0.0
C2187 C -0.02722 0.81806 0.98498 0.0
C2188 C -0.0022 0.93914 0.89018 0.0
C2189 C -0.00413 0.92186 0.90028 0.0
C2190 C -0.03716 0.88635 0.92419 0.0
C2191 C -0.0163 0.846 0.96357 0.0
C2192 C -0.01966 0.86462 0.95361 0.0
C2193 C -0.02169 0.91614 0.9128 0.0
C2194 C -0.02207 0.89875 0.92809 0.0
H2195 H 0.02099 0.81612 0.96636 0.0
H2196 H 0.01421 0.84593 0.95088 0.0
H2197 H -0.04725 0.85985 0.93226 0.0
H2198 H -0.0481 0.95438 0.90457 0.0
H2199 H -0.05163 0.92379 0.92206 0.0
C2200 C 0.22557 0.68828 0.74842 0.0
C2201 C 0.23633 0.69951 0.73047 0.0
C2202 C 0.22118 0.67085 0.73987 0.0
C2203 C 0.21899 0.64147 0.67571 0.0
H2204 H 0.23016 0.60355 0.72878 0.0
C2205 C 0.23303 0.56895 0.63915 0.0
C2206 C 0.2287 0.55506 0.65792 0.0
C2207 C 0.23015 0.58665 0.64742 0.0
C2208 C 0.22657 0.61389 0.71369 0.0
H2209 H 0.25013 0.70137 0.68901 0.0
H2210 H 0.24234 0.67159 0.67424 0.0
H2211 H 0.23143 0.63411 0.74484 0.0
H2212 H 0.21743 0.54876 0.69965 0.0
H2213 H 0.21154 0.57936 0.71365 0.0
H2214 H 0.21435 0.62134 0.64444 0.0
C2215 C 0.23725 0.676 0.69487 0.0
C2216 C 0.22733 0.63152 0.72301 0.0
C2217 C 0.24184 0.69315 0.7035 0.0
C2218 C 0.22058 0.5592 0.68455 0.0
C2219 C 0.21754 0.57681 0.69274 0.0
C2220 C 0.21813 0.62385 0.66641 0.0
C2221 C 0.22713 0.66443 0.713 0.0
C2222 C 0.22392 0.6456 0.70404 0.0
C2223 C 0.22291 0.59089 0.67474 0.0
C2224 C 0.22223 0.60974 0.68511 0.0
H2225 H 0.2212 0.69271 0.76937 0.0
H2226 H 0.21326 0.66235 0.75437 0.0
H2227 H 0.21598 0.65191 0.66052 0.0
H2228 H 0.23988 0.56618 0.61886 0.0
H2229 H 0.23471 0.59699 0.63295 0.0
C2230 C 0.85438 0.69072 0.68195 0.0
C2231 C 0.86795 0.69973 0.66473 0.0
C2232 C 0.85746 0.6732 0.6902 0.0
C2233 C 0.89454 0.63813 0.70119 0.0
H2234 H 0.84824 0.6087 0.70286 0.0
C2235 C 0.89113 0.56223 0.73486 0.0
C2236 C 0.87455 0.55765 0.751 0.0
C2237 C 0.89332 0.57961 0.72425 0.0
C2238 C 0.86134 0.61672 0.70276 0.0
H2239 H 0.89571 0.69702 0.64285 0.0
H2240 H 0.90116 0.66596 0.6574 0.0
H2241 H 0.84636 0.63812 0.68238 0.0
H2242 H 0.848 0.56788 0.77006 0.0
H2243 H 0.852 0.5979 0.75247 0.0
H2244 H 0.90941 0.61637 0.72184 0.0
C2245 C 0.88806 0.67276 0.66448 0.0
C2246 C 0.86027 0.63366 0.69093 0.0
C2247 C 0.88488 0.69051 0.65597 0.0
C2248 C 0.86101 0.571 0.75787 0.0
C2249 C 0.86318 0.58819 0.74743 0.0
C2250 C 0.89564 0.62097 0.71302 0.0
C2251 C 0.87423 0.66384 0.68158 0.0
C2252 C 0.87665 0.64488 0.69067 0.0
C2253 C 0.87889 0.59261 0.72947 0.0
C2254 C 0.87886 0.61024 0.71469 0.0
H2255 H 0.84115 0.69721 0.6893 0.0
H2256 H 0.84664 0.66704 0.70377 0.0
H2257 H 0.90747 0.64636 0.70139 0.0
H2258 H 0.90158 0.55214 0.72865 0.0
H2259 H 0.90561 0.58254 0.7105 0.0
C2260 C 0.64104 0.31048 0.41372 0.0
C2261 C 0.62196 0.30431 0.40852 0.0
C2262 C 0.64414 0.32816 0.42226 0.0
C2263 C 0.62014 0.37241 0.42135 0.0
H2264 H 0.64946 0.38309 0.4898 0.0
C2265 C 0.60337 0.43484 0.48342 0.0
C2266 C 0.6186 0.44599 0.49234 0.0
C2267 C 0.60716 0.41785 0.47335 0.0
C2268 C 0.64149 0.38038 0.47039 0.0
H2269 H 0.59136 0.31195 0.40748 0.0
H2270 H 0.59672 0.34241 0.42138 0.0
H2271 H 0.65028 0.35297 0.46998 0.0
H2272 H 0.64992 0.44744 0.49901 0.0
H2273 H 0.65668 0.41721 0.48133 0.0
H2274 H 0.61087 0.39944 0.42193 0.0
C2275 C 0.60935 0.33381 0.41909 0.0
C2276 C 0.64197 0.36312 0.45901 0.0
C2277 C 0.60626 0.31627 0.41114 0.0
C2278 C 0.63784 0.4392 0.49238 0.0
C2279 C 0.64169 0.42192 0.48215 0.0
C2280 C 0.61968 0.3895 0.43262 0.0
C2281 C 0.62826 0.34004 0.42512 0.0
C2282 C 0.63075 0.3588 0.43482 0.0
C2283 C 0.62637 0.41126 0.47167 0.0
C2284 C 0.62977 0.39364 0.45783 0.0
H2285 H 0.65341 0.30152 0.4123 0.0
H2286 H 0.65891 0.33252 0.42668 0.0
H2287 H 0.61165 0.36972 0.40239 0.0
H2288 H 0.58831 0.43944 0.4835 0.0
H2289 H 0.59491 0.40993 0.46629 0.0
C2290 C -0.03595 0.31547 0.49086 0.0
C2291 C -0.01678 0.3085 0.49096 0.0
C2292 C -0.03958 0.33286 0.48079 0.0
C2293 C -0.01715 0.36557 0.43194 0.0
H2294 H -0.04631 0.4023 0.47091 0.0
C2295 C -0.00104 0.43867 0.41344 0.0
C2296 C -0.01626 0.45116 0.41113 0.0
C2297 C -0.00483 0.4211 0.4207 0.0
C2298 C -0.03842 0.39211 0.45948 0.0
H2299 H 0.01362 0.31491 0.48235 0.0
H2300 H 0.00736 0.3445 0.46524 0.0
H2301 H -0.04635 0.37187 0.48971 0.0
H2302 H -0.04759 0.4549 0.41482 0.0
H2303 H -0.05434 0.42383 0.42805 0.0
H2304 H -0.00864 0.38562 0.40232 0.0
C2305 C -0.00499 0.33665 0.47215 0.0
C2306 C -0.03843 0.37467 0.47028 0.0
C2307 C -0.00141 0.31957 0.48214 0.0
C2308 C -0.03559 0.44552 0.41599 0.0
C2309 C -0.0394 0.4278 0.42387 0.0
C2310 C -0.01713 0.38285 0.42125 0.0
C2311 C -0.02411 0.34346 0.47053 0.0
C2312 C -0.02721 0.3613 0.45714 0.0
C2313 C -0.02399 0.41537 0.42637 0.0
C2314 C -0.02719 0.39653 0.43532 0.0
H2315 H -0.04813 0.30734 0.49748 0.0
H2316 H -0.05449 0.33775 0.48001 0.0
H2317 H -0.00869 0.35559 0.42086 0.0
H2318 H 0.01403 0.44257 0.41005 0.0
H2319 H 0.00745 0.41208 0.42274 0.0
C2320 C 0.7221 0.06697 0.65476 0.0
C2321 C 0.74141 0.06031 0.65494 0.0
C2322 C 0.71801 0.08413 0.66513 0.0
C2323 C 0.73693 0.11467 0.71817 0.0
H2324 H 0.71288 0.15394 0.67802 0.0
C2325 C 0.75132 0.18622 0.75098 0.0
C2326 C 0.73706 0.19949 0.74747 0.0
C2327 C 0.74798 0.16894 0.74182 0.0
C2328 C 0.71926 0.14304 0.68982 0.0
H2329 H 0.7716 0.06707 0.66439 0.0
H2330 H 0.76445 0.09636 0.68244 0.0
H2331 H 0.71395 0.12452 0.65587 0.0
H2332 H 0.70778 0.20483 0.73194 0.0
H2333 H 0.70173 0.17432 0.71603 0.0
H2334 H 0.74249 0.13285 0.75193 0.0
C2335 C 0.75244 0.08841 0.67464 0.0
C2336 C 0.7199 0.12619 0.67704 0.0
C2337 C 0.75651 0.07156 0.66415 0.0
C2338 C 0.71893 0.19483 0.73544 0.0
C2339 C 0.71561 0.17741 0.72593 0.0
C2340 C 0.73612 0.13133 0.73099 0.0
C2341 C 0.73314 0.09477 0.67608 0.0
C2342 C 0.72932 0.11196 0.69076 0.0
C2343 C 0.73025 0.16426 0.72862 0.0
C2344 C 0.72792 0.14596 0.71666 0.0
H2345 H 0.7101 0.05866 0.64803 0.0
H2346 H 0.70298 0.08872 0.6659 0.0
H2347 H 0.74404 0.10392 0.72948 0.0
H2348 H 0.76552 0.18937 0.75986 0.0
H2349 H 0.7598 0.15943 0.74393 0.0
C2350 C 0.35041 0.1893 0.68115 0.0
C2351 C 0.36528 0.19857 0.66681 0.0
C2352 C 0.35366 0.17231 0.69195 0.0
C2353 C 0.38537 0.1324 0.68816 0.0
H2354 H 0.36171 0.1229 0.76155 0.0
C2355 C 0.39006 0.06293 0.74398 0.0
C2356 C 0.37197 0.05677 0.75414 0.0
C2357 C 0.3922 0.08072 0.73544 0.0
C2358 C 0.36839 0.12524 0.74101 0.0
H2359 H 0.3952 0.19668 0.65183 0.0
H2360 H 0.40092 0.16672 0.67075 0.0
H2361 H 0.3598 0.15246 0.74133 0.0
H2362 H 0.34215 0.06439 0.76379 0.0
H2363 H 0.34592 0.09518 0.74997 0.0
H2364 H 0.39367 0.10493 0.68785 0.0
C2365 C 0.38667 0.17278 0.67358 0.0
C2366 C 0.36725 0.14226 0.72931 0.0
C2367 C 0.38339 0.18997 0.66268 0.0
C2368 C 0.35639 0.06885 0.75664 0.0
C2369 C 0.35857 0.08654 0.7486 0.0
C2370 C 0.38654 0.11527 0.69995 0.0
C2371 C 0.37192 0.16387 0.68893 0.0
C2372 C 0.37523 0.14603 0.70236 0.0
C2373 C 0.37634 0.09272 0.73726 0.0
C2374 C 0.37762 0.11135 0.72625 0.0
H2375 H 0.33615 0.19528 0.68453 0.0
H2376 H 0.34173 0.16579 0.70287 0.0
H2377 H 0.39169 0.13475 0.66738 0.0
H2378 H 0.40217 0.05381 0.74107 0.0
H2379 H 0.40612 0.08499 0.72691 0.0
C2380 C 0.14362 0.81304 0.4166 0.0
C2381 C 0.12536 0.80808 0.40532 0.0
C2382 C 0.14697 0.83065 0.42525 0.0
C2383 C 0.12752 0.87653 0.416 0.0
H2384 H 0.14745 0.88602 0.49166 0.0
C2385 C 0.10664 0.9398 0.47343 0.0
C2386 C 0.12092 0.95018 0.48706 0.0
C2387 C 0.11088 0.92283 0.46368 0.0
C2388 C 0.14218 0.88364 0.4703 0.0
H2389 H 0.09661 0.81781 0.39359 0.0
H2390 H 0.1025 0.84818 0.40769 0.0
H2391 H 0.1485 0.85573 0.47264 0.0
H2392 H 0.15087 0.95011 0.50222 0.0
H2393 H 0.15832 0.91984 0.48522 0.0
H2394 H 0.12058 0.90411 0.41379 0.0
C2395 C 0.11432 0.83868 0.41003 0.0
C2396 C 0.14278 0.86627 0.45936 0.0
C2397 C 0.1109 0.8212 0.40193 0.0
C2398 C 0.13953 0.94257 0.49177 0.0
C2399 C 0.14378 0.92525 0.482 0.0
C2400 C 0.12691 0.89374 0.42684 0.0
C2401 C 0.13226 0.8437 0.42224 0.0
C2402 C 0.13484 0.86239 0.43238 0.0
C2403 C 0.12956 0.91535 0.46718 0.0
C2404 C 0.1336 0.89749 0.45449 0.0
H2405 H 0.15493 0.80317 0.41999 0.0
H2406 H 0.16098 0.83403 0.43451 0.0
H2407 H 0.12167 0.87421 0.39492 0.0
H2408 H 0.092 0.94489 0.46977 0.0
H2409 H 0.09938 0.91552 0.45311 0.0
C2410 C 0.49421 0.81765 0.50535 0.0
C2411 C 0.47977 0.80465 0.50183 0.0
C2412 C 0.49111 0.83503 0.49621 0.0
C2413 C 0.46315 0.86202 0.4443 0.0
H2414 H 0.48734 0.90029 0.48597 0.0
C2415 C 0.46792 0.93821 0.40925 0.0
C2416 C 0.48722 0.94462 0.4112 0.0
C2417 C 0.46324 0.92113 0.4196 0.0
C2418 C 0.4804 0.8898 0.47407 0.0
H2419 H 0.45052 0.79991 0.48598 0.0
H2420 H 0.44494 0.83061 0.46993 0.0
H2421 H 0.48539 0.87107 0.50745 0.0
H2422 H 0.51684 0.93743 0.42376 0.0
H2423 H 0.5087 0.9084 0.44164 0.0
H2424 H 0.45856 0.88105 0.41064 0.0
C2425 C 0.45873 0.82722 0.47997 0.0
C2426 C 0.47935 0.87296 0.48635 0.0
C2427 C 0.46179 0.80968 0.48954 0.0
C2428 C 0.50173 0.93321 0.42227 0.0
C2429 C 0.49708 0.91647 0.43266 0.0
C2430 C 0.46409 0.87905 0.43199 0.0
C2431 C 0.47349 0.84011 0.48291 0.0
C2432 C 0.47136 0.85861 0.47134 0.0
C2433 C 0.47776 0.91031 0.43223 0.0
C2434 C 0.47333 0.893 0.44642 0.0
H2435 H 0.50832 0.81419 0.5144 0.0
H2436 H 0.503 0.84433 0.49852 0.0
H2437 H 0.45693 0.85135 0.43199 0.0
H2438 H 0.45637 0.94661 0.40094 0.0
H2439 H 0.4482 0.91671 0.41884 0.0
C2440 C 0.7153 0.56536 0.16667 0.0
C2441 C 0.73438 0.5582 0.16662 0.0
C2442 C 0.71191 0.5828 0.17655 0.0
C2443 C 0.73488 0.61527 0.22506 0.0
H2444 H 0.70521 0.65207 0.18682 0.0
C2445 C 0.74967 0.68846 0.24612 0.0
C2446 C 0.73426 0.70082 0.24746 0.0
C2447 C 0.74631 0.6709 0.23848 0.0
C2448 C 0.71327 0.64187 0.19805 0.0
H2449 H 0.76487 0.56429 0.17496 0.0
H2450 H 0.75904 0.59403 0.19163 0.0
H2451 H 0.70522 0.62177 0.16778 0.0
H2452 H 0.703 0.70421 0.24183 0.0
H2453 H 0.69702 0.6732 0.22817 0.0
H2454 H 0.74338 0.63514 0.25486 0.0
C2455 C 0.74658 0.58628 0.18489 0.0
C2456 C 0.71328 0.62449 0.1871 0.0
C2457 C 0.74991 0.56914 0.17514 0.0
C2458 C 0.71516 0.69497 0.2414 0.0
C2459 C 0.71179 0.67727 0.23325 0.0
C2460 C 0.73486 0.63248 0.23593 0.0
C2461 C 0.72754 0.59326 0.1866 0.0
C2462 C 0.72464 0.6111 0.19999 0.0
C2463 C 0.7274 0.665 0.23157 0.0
C2464 C 0.72459 0.6462 0.22215 0.0
H2465 H 0.70299 0.55731 0.16032 0.0
H2466 H 0.69704 0.58781 0.1774 0.0
H2467 H 0.74343 0.60525 0.23599 0.0
H2468 H 0.76458 0.69248 0.25048 0.0
H2469 H 0.75876 0.66202 0.2371 0.0
C2470 C 0.35138 0.57073 0.24279 0.0
C2471 C 0.36634 0.55957 0.25318 0.0
C2472 C 0.35546 0.58768 0.2327 0.0
C2473 C 0.38824 0.62552 0.23291 0.0
H2474 H 0.36542 0.63397 0.15855 0.0
C2475 C 0.38989 0.69508 0.176 0.0
C2476 C 0.37166 0.70022 0.16466 0.0
C2477 C 0.39304 0.67749 0.18523 0.0
C2478 C 0.37188 0.63194 0.17935 0.0
H2479 H 0.39738 0.55818 0.26248 0.0
H2480 H 0.40451 0.58837 0.24523 0.0
H2481 H 0.36367 0.60467 0.17976 0.0
H2482 H 0.34273 0.69096 0.15359 0.0
H2483 H 0.34818 0.66072 0.16884 0.0
H2484 H 0.39566 0.65315 0.23289 0.0
C2485 C 0.38957 0.58365 0.24478 0.0
C2486 C 0.37092 0.61507 0.19149 0.0
C2487 C 0.38548 0.5664 0.25479 0.0
C2488 C 0.35704 0.68736 0.1618 0.0
C2489 C 0.36021 0.66993 0.17059 0.0
C2490 C 0.38908 0.64258 0.22077 0.0
C2491 C 0.37463 0.59425 0.23276 0.0
C2492 C 0.37856 0.6117 0.21876 0.0
C2493 C 0.37811 0.6647 0.1829 0.0
C2494 C 0.38034 0.64615 0.19414 0.0
H2495 H 0.3364 0.56615 0.24146 0.0
H2496 H 0.34354 0.59557 0.22417 0.0
H2497 H 0.39427 0.62337 0.25395 0.0
H2498 H 0.40128 0.7048 0.17907 0.0
H2499 H 0.40703 0.67397 0.19454 0.0
C2500 C 0.10681 0.43716 1.00664 0.0
C2501 C 0.12114 0.45005 1.00164 0.0
C2502 C 0.10978 0.41961 0.99848 0.0
C2503 C 0.13646 0.3922 0.94633 0.0
H2504 H 0.1132 0.35429 0.99018 0.0
C2505 C 0.13094 0.31647 0.91223 0.0
C2506 C 0.11184 0.30979 0.91548 0.0
C2507 C 0.1357 0.3335 0.92236 0.0
C2508 C 0.11986 0.36469 0.97767 0.0
H2509 H 0.15012 0.45449 0.98452 0.0
H2510 H 0.15546 0.42352 0.97019 0.0
H2511 H 0.11581 0.38364 1.01086 0.0
H2512 H 0.08259 0.31642 0.93047 0.0
H2513 H 0.09091 0.34543 0.94803 0.0
H2514 H 0.14011 0.373 0.91291 0.0
C2515 C 0.14186 0.4271 0.98057 0.0
C2516 C 0.1213 0.38158 0.98951 0.0
C2517 C 0.13895 0.44479 0.98914 0.0
C2518 C 0.09755 0.32085 0.92786 0.0
C2519 C 0.1023 0.33757 0.93811 0.0
C2520 C 0.13513 0.37515 0.9345 0.0
C2521 C 0.12714 0.41432 0.98475 0.0
C2522 C 0.12897 0.39577 0.97371 0.0
C2523 C 0.12148 0.34401 0.93617 0.0
C2524 C 0.12618 0.36135 0.94973 0.0
H2525 H 0.09285 0.44081 1.01592 0.0
H2526 H 0.09794 0.41035 1.00173 0.0
H2527 H 0.14239 0.40278 0.93345 0.0
H2528 H 0.14232 0.30835 0.90286 0.0
H2529 H 0.15061 0.33816 0.92043 0.0
C2530 C 0.50964 0.31683 0.98422 0.0
C2531 C 0.49431 0.30521 0.99097 0.0
C2532 C 0.50584 0.33412 0.97538 0.0
C2533 C 0.46837 0.36284 0.94194 0.0
H2534 H 0.50512 0.39928 0.96377 0.0
C2535 C 0.46713 0.43882 0.90779 0.0
C2536 C 0.48567 0.44521 0.89982 0.0
C2537 C 0.46508 0.42139 0.91812 0.0
C2538 C 0.49472 0.38927 0.9574 0.0
H2539 H 0.46279 0.30291 0.99404 0.0
H2540 H 0.45603 0.33351 0.97864 0.0
H2541 H 0.50697 0.37035 0.9862 0.0
H2542 H 0.51615 0.43796 0.8943 0.0
H2543 H 0.51256 0.40789 0.91178 0.0
H2544 H 0.45623 0.38212 0.91294 0.0
C2545 C 0.47108 0.32903 0.98015 0.0
C2546 C 0.49579 0.37262 0.97024 0.0
C2547 C 0.47494 0.31157 0.98929 0.0
C2548 C 0.50168 0.43347 0.90033 0.0
C2549 C 0.49966 0.41626 0.91059 0.0
C2550 C 0.46718 0.37969 0.92916 0.0
C2551 C 0.48654 0.34051 0.97292 0.0
C2552 C 0.48309 0.35895 0.9621 0.0
C2553 C 0.48155 0.4102 0.92073 0.0
C2554 C 0.48077 0.39291 0.93616 0.0
H2555 H 0.52475 0.31245 0.98516 0.0
H2556 H 0.51816 0.34234 0.96959 0.0
H2557 H 0.45836 0.35265 0.93507 0.0
H2558 H 0.45459 0.44763 0.90807 0.0
H2559 H 0.45092 0.41707 0.92572 0.0
C2560 C 0.16624 0.97474 0.1102 0.0
C2561 C 0.18051 0.98415 0.09503 0.0
C2562 C 0.15064 0.96696 0.09591 0.0
C2563 C 0.13358 0.95386 1.02453 0.0
H2564 H 0.0829 0.97016 1.0511 0.0
C2565 C 0.07515 0.97954 0.95195 0.0
C2566 C 0.05533 0.97845 0.95924 0.0
C2567 C 0.08929 0.97194 0.96943 0.0
C2568 C 0.09678 0.96491 1.04375 0.0
H2569 H 0.19009 0.99268 1.05333 0.0
H2570 H 0.16255 0.97942 1.02828 0.0
H2571 H 0.11123 0.97275 0.08191 0.0
H2572 H 0.03438 0.9677 0.98919 0.0
H2573 H 0.05931 0.95455 1.02029 0.0
H2574 H 0.11929 0.94719 0.98556 0.0
C2575 C 0.16359 0.97775 1.05111 0.0
C2576 C 0.11304 0.96646 1.06139 0.0
C2577 C 0.17914 0.98558 1.06542 0.0
C2578 C 0.04968 0.96887 0.98344 0.0
C2579 C 0.06387 0.96129 1.00107 0.0
C2580 C 0.11729 0.95225 1.00691 0.0
C2581 C 0.14919 0.96841 1.06625 0.0
C2582 C 0.13172 0.96198 1.05121 0.0
C2583 C 0.08382 0.96314 0.99455 0.0
C2584 C 0.09903 0.95885 1.01573 0.0
H2585 H 0.16716 0.97334 0.1331 0.0
H2586 H 0.13968 0.95988 0.10801 0.0
H2587 H 0.14782 0.94993 1.01653 0.0
H2588 H 0.07979 0.98673 0.9332 0.0
H2589 H 0.10456 0.97389 0.9641 0.0
C2590 C 0.03078 0.28235 0.98797 0.0
C2591 C 0.0339 0.28541 0.95902 0.0
C2592 C 0.0179 0.29307 1.00306 0.0
C2593 C -0.02709 0.31568 0.99119 0.0
H2594 H -0.02226 0.31801 1.07317 0.0
C2595 C 0.92755 0.2996 0.10028 0.0
C2596 C 0.91932 0.28402 0.08951 0.0
C2597 C -0.06096 0.3103 0.08291 0.0
C2598 C -0.02404 0.31814 1.05029 0.0
H2599 H 0.02697 0.30241 0.92314 0.0
H2600 H 0.00396 0.32101 0.94955 0.0
H2601 H 0.00688 0.31941 1.04394 0.0
H2602 H 0.91594 0.26755 1.05228 0.0
H2603 H -0.06314 0.28558 1.02229 0.0
H2604 H -0.05792 0.31323 0.99764 0.0
C2605 C 0.01154 0.31042 0.96057 0.0
C2606 C -0.00727 0.31883 1.03355 0.0
C2607 C 0.02449 0.29967 0.94547 0.0
C2608 C 0.92237 0.27941 1.06108 0.0
C2609 C -0.06601 0.28999 1.04379 0.0
C2610 C -0.04391 0.31528 1.00791 0.0
C2611 C 0.00792 0.30705 0.98942 0.0
C2612 C -0.0086 0.3156 1.00424 0.0
C2613 C -0.0574 0.30548 1.05458 0.0
C2614 C -0.04223 0.31453 1.03766 0.0
H2615 H 0.03807 0.27153 0.99886 0.0
H2616 H 0.01504 0.28982 1.02511 0.0
H2617 H -0.0286 0.31356 0.96852 0.0
H2618 H 0.92502 0.30359 0.12209 0.0
H2619 H -0.05454 0.32213 0.0918 0.0
C2620 C 0.18651 0.25402 0.3515 0.0
C2621 C 0.18969 0.26613 0.3295 0.0
C2622 C 0.17664 0.25929 0.37596 0.0
C2623 C 0.14172 0.2928 0.40038 0.0
H2624 H 0.14946 0.26731 0.47118 0.0
C2625 C 0.0807 0.28911 0.48105 0.0
C2626 C 0.07439 0.27149 0.4807 0.0
C2627 C 0.09957 0.29328 0.47207 0.0
C2628 C 0.14747 0.27491 0.45183 0.0
H2629 H 0.18577 0.29327 0.31567 0.0
H2630 H 0.16896 0.30266 0.35873 0.0
H2631 H 0.1747 0.2661 0.43445 0.0
H2632 H 0.08287 0.24428 0.47329 0.0
H2633 H 0.11592 0.25153 0.45762 0.0
H2634 H 0.11417 0.30097 0.4173 0.0
C2635 C 0.17356 0.289 0.35693 0.0
C2636 C 0.16171 0.27404 0.43067 0.0
C2637 C 0.18305 0.28361 0.33222 0.0
C2638 C 0.08746 0.25797 0.47332 0.0
C2639 C 0.1064 0.2621 0.46485 0.0
C2640 C 0.1277 0.29394 0.42172 0.0
C2641 C 0.17017 0.27688 0.37905 0.0
C2642 C 0.1583 0.28196 0.40402 0.0
C2643 C 0.11234 0.27982 0.46324 0.0
C2644 C 0.12992 0.28404 0.44675 0.0
H2645 H 0.19171 0.24051 0.34982 0.0
H2646 H 0.17378 0.24945 0.39217 0.0
H2647 H 0.13856 0.29907 0.38017 0.0
H2648 H 0.0708 0.29971 0.48697 0.0
H2649 H 0.10387 0.30703 0.47068 0.0
C2650 C 0.91463 1.00347 0.3388 0.0
C2651 C 0.91061 0.99165 0.31675 0.0
C2652 C 0.92644 0.99825 0.36138 0.0
C2653 C -0.03498 0.96686 0.37987 0.0
H2654 H -0.04278 0.98837 0.45388 0.0
C2655 C 0.02559 0.96924 0.4641 0.0
C2656 C 0.03116 0.98701 0.46651 0.0
C2657 C 0.00754 0.96495 0.45223 0.0
C2658 C -0.04069 0.98192 0.43354 0.0
H2659 H 0.91541 0.96516 0.30066 0.0
H2660 H -0.06397 0.95587 0.34051 0.0
H2661 H -0.06917 0.98927 0.41885 0.0
H2662 H 0.02224 0.01424 0.46029 0.0
H2663 H -0.00957 0.00675 0.43991 0.0
H2664 H -0.00621 0.96014 0.39434 0.0
C2665 C -0.06973 0.96923 0.3402 0.0
C2666 C -0.05562 0.98258 0.41343 0.0
C2667 C 0.9186 0.97456 0.31737 0.0
C2668 C 0.0182 1.00046 0.45836 0.0
C2669 C 0.0 0.99619 0.4471 0.0
C2670 C -0.02018 0.96593 0.40018 0.0
C2671 C -0.06579 0.98101 0.36249 0.0
C2672 C -0.05241 0.97605 0.38584 0.0
C2673 C -0.00523 0.97842 0.44341 0.0
C2674 C -0.0226 0.97435 0.42647 0.0
H2675 H 0.90854 0.01672 0.33868 0.0
H2676 H -0.0703 0.00783 0.37776 0.0
H2677 H -0.03204 0.96172 0.35882 0.0
H2678 H 0.03546 0.95868 0.47039 0.0
H2679 H 0.00376 0.95119 0.4492 0.0
C2680 C 0.77298 0.04818 0.21822 0.0
C2681 C 0.77665 0.02993 0.2201 0.0
C2682 C 0.75451 0.05437 0.21034 0.0
C2683 C 0.7032 0.04203 0.20059 0.0
H2684 H 0.70933 0.0595 0.12359 0.0
C2685 C 0.66009 0.01419 0.11104 0.0
C2686 C 0.65768 0.02328 0.08536 0.0
C2687 C 0.66952 0.02224 0.13374 0.0
C2688 C 0.70697 0.05529 0.14533 0.0
H2689 H 0.764 0.00383 0.21709 0.0
H2690 H 0.73154 0.01463 0.2034 0.0
H2691 H 0.73662 0.06095 0.15624 0.0
H2692 H 0.66185 0.04819 1.06341 0.0
H2693 H 0.67815 0.06251 0.10339 0.0
H2694 H 0.67383 0.03551 0.18927 0.0
C2695 C 0.74291 0.02414 0.20811 0.0
C2696 C 0.72271 0.05611 0.16406 0.0
C2697 C 0.76147 0.01795 0.21544 0.0
C2698 C 0.66403 0.04081 0.08294 0.0
C2699 C 0.67319 0.04902 0.10586 0.0
C2700 C 0.68729 0.04156 0.18206 0.0
C2701 C 0.73943 0.04236 0.20494 0.0
C2702 C 0.72134 0.04819 0.19093 0.0
C2703 C 0.67644 0.03968 0.13132 0.0
C2704 C 0.68963 0.04672 0.1535 0.0
H2705 H 0.78455 0.05765 0.22197 0.0
H2706 H 0.75214 0.06844 0.20758 0.0
H2707 H 0.70185 0.03608 0.22148 0.0
H2708 H 0.65509 1.00069 0.11339 0.0
H2709 H 0.67217 0.01442 0.15268 0.0
C2710 C -0.06843 0.7365 1.06508 0.0
C2711 C -0.05118 0.74571 1.07096 0.0
C2712 C 0.91886 0.73216 0.08711 0.0
C2713 C 0.9049 0.74819 0.15684 0.0
H2714 H 0.87129 0.70701 0.15546 0.0
C2715 C 0.8368 0.74544 0.22562 0.0
C2716 C 0.81993 0.74252 0.20932 0.0
C2717 C 0.85513 0.74132 0.21462 0.0
C2718 C 0.88076 0.71845 0.15626 0.0
H2719 H -0.03296 0.75692 0.10406 0.0
H2720 H -0.05505 0.74912 0.14266 0.0
H2721 H 0.90006 0.70807 0.12456 0.0
H2722 H 0.80854 0.73238 0.16962 0.0
H2723 H 0.84078 0.72561 0.14987 0.0
H2724 H 0.88523 0.75895 0.18744 0.0
C2725 C -0.05899 0.74557 0.12111 0.0
C2726 C 0.8971 0.71909 0.1386 0.0
C2727 C -0.04644 0.7501 0.09906 0.0
C2728 C 0.82146 0.73487 0.18235 0.0
C2729 C 0.83983 0.73077 0.1713 0.0
C2730 C 0.88868 0.7475 0.17456 0.0
C2731 C 0.9234 0.73681 0.11529 0.0
C2732 C 0.90879 0.7343 0.1379 0.0
C2733 C 0.8568 0.73428 0.18717 0.0
C2734 C 0.87605 0.73296 0.17351 0.0
H2735 H 0.9278 0.73289 1.04349 0.0
H2736 H 0.90519 0.72571 0.08195 0.0
H2737 H 0.9135 0.76018 0.15655 0.0
H2738 H 0.83586 0.75112 0.24671 0.0
H2739 H 0.86804 0.74407 0.22723 0.0
C2740 C 0.77677 0.76192 0.71208 0.0
C2741 C 0.7831 0.74953 0.69203 0.0
C2742 C 0.75722 0.7623 0.72038 0.0
C2743 C 0.71564 0.73301 0.7268 0.0
H2744 H 0.69057 0.77626 0.75229 0.0
C2745 C 0.64829 0.73422 0.80064 0.0
C2746 C 0.65296 0.7432 0.82581 0.0
C2747 C 0.6603 0.73584 0.77686 0.0
C2748 C 0.69726 0.76413 0.74475 0.0
H2749 H 0.77428 0.72826 0.66399 0.0
H2750 H 0.74 0.72903 0.67833 0.0
H2751 H 0.71949 0.77791 0.72187 0.0
H2752 H 0.67342 0.76092 0.84627 0.0
H2753 H 0.69447 0.76375 0.80464 0.0
H2754 H 0.69391 0.71928 0.75081 0.0
C2755 C 0.75011 0.73826 0.68793 0.0
C2756 C 0.71378 0.76505 0.72758 0.0
C2757 C 0.76968 0.73777 0.67986 0.0
C2758 C 0.66967 0.7538 0.82706 0.0
C2759 C 0.68148 0.75562 0.80322 0.0
C2760 C 0.69899 0.7321 0.74373 0.0
C2761 C 0.74375 0.7504 0.70848 0.0
C2762 C 0.72372 0.7495 0.71985 0.0
C2763 C 0.67683 0.7467 0.778 0.0
C2764 C 0.6904 0.74766 0.75402 0.0
H2765 H 0.78693 0.77115 0.72154 0.0
H2766 H 0.75282 0.77154 0.73676 0.0
H2767 H 0.72304 0.72081 0.72125 0.0
H2768 H 0.63534 0.72605 0.79932 0.0
H2769 H 0.65667 0.72873 0.75761 0.0
C2770 C 0.83846 0.02928 0.69545 0.0
C2771 C 0.81905 0.03316 0.70275 0.0
C2772 C 0.85366 0.03926 0.70669 0.0
C2773 C 0.86455 0.06221 0.77127 0.0
H2774 H 0.91527 0.06497 0.73451 0.0
C2775 C -0.0677 0.05195 0.8371 0.0
C2776 C -0.05736 0.03731 0.82647 0.0
C2777 C 0.91957 0.0614 0.81953 0.0
C2778 C 0.90116 0.06465 0.74503 0.0
H2779 H 0.79996 0.05096 0.72602 0.0
H2780 H 0.82668 0.06837 0.74609 0.0
H2781 H 0.88563 0.06367 0.70556 0.0
H2782 H -0.05088 0.02177 0.78902 0.0
H2783 H 0.92633 0.03777 0.75848 0.0
H2784 H 0.87996 0.06159 0.81057 0.0
C2785 C 0.83015 0.05759 0.73179 0.0
C2786 C 0.88423 0.0639 0.72851 0.0
C2787 C 0.81492 0.04755 0.72057 0.0
C2788 C -0.05895 0.03288 0.7977 0.0
C2789 C -0.07174 0.04227 0.78014 0.0
C2790 C 0.88143 0.063 0.78775 0.0
C2791 C 0.84969 0.05333 0.72536 0.0
C2792 C 0.86597 0.06121 0.74154 0.0
C2793 C 0.91693 0.05626 0.79113 0.0
C2794 C 0.89993 0.06277 0.77469 0.0
H2795 H 0.84193 0.01835 0.68146 0.0
H2796 H 0.86856 0.03535 0.70183 0.0
H2797 H 0.85069 0.06024 0.78197 0.0
H2798 H -0.06635 0.0558 0.85919 0.0
H2799 H 0.91112 0.07218 0.82847 0.0
C2800 C 0.19114 0.46535 0.57311 0.0
C2801 C 0.19816 0.48272 0.57383 0.0
C2802 C 0.18024 0.45955 0.5499 0.0
C2803 C 0.16323 0.47346 0.47761 0.0
H2804 H 0.11457 0.45223 0.50244 0.0
C2805 C 0.08761 0.49613 0.44582 0.0
C2806 C 0.07357 0.4836 0.43822 0.0
C2807 C 0.10619 0.49061 0.45428 0.0
C2808 C 0.12827 0.45768 0.49491 0.0
H2809 H 0.20001 0.50755 0.55107 0.0
H2810 H 0.18006 0.49792 0.5114 0.0
H2811 H 0.14265 0.45184 0.53398 0.0
H2812 H 0.06762 0.45566 0.43283 0.0
H2813 H 0.10003 0.44597 0.44913 0.0
H2814 H 0.14781 0.48108 0.43983 0.0
C2815 C 0.18345 0.48846 0.52801 0.0
C2816 C 0.14443 0.45744 0.51293 0.0
C2817 C 0.19456 0.49413 0.55097 0.0
C2818 C 0.07831 0.46552 0.43878 0.0
C2819 C 0.09677 0.45998 0.4478 0.0
C2820 C 0.14693 0.47401 0.45985 0.0
C2821 C 0.17598 0.47116 0.52733 0.0
C2822 C 0.16165 0.46634 0.50517 0.0
C2823 C 0.11077 0.47251 0.45565 0.0
C2824 C 0.12911 0.467 0.46918 0.0
H2825 H 0.19413 0.45624 0.5904 0.0
H2826 H 0.17484 0.44611 0.54987 0.0
H2827 H 0.17654 0.47991 0.47072 0.0
H2828 H 0.08422 0.51013 0.44526 0.0
H2829 H 0.11674 0.50044 0.46087 0.0
C2830 C 0.03072 0.77917 0.45445 0.0
C2831 C 0.03445 0.76957 0.42964 0.0
C2832 C 0.01151 0.78304 0.4622 0.0
C2833 C -0.03491 0.76197 0.45757 0.0
H2834 H -0.05075 0.80194 0.50375 0.0
C2835 C 0.90516 0.75504 0.54133 0.0
C2836 C 0.91112 0.76126 0.56804 0.0
C2837 C 0.9154 0.75987 0.51696 0.0
C2838 C -0.04663 0.79077 0.49063 0.0
H2839 H 0.02154 0.75752 0.39228 0.0
H2840 H -0.01215 0.76412 0.40606 0.0
H2841 H -0.02288 0.80481 0.47152 0.0
H2842 H -0.06789 0.77736 0.59061 0.0
H2843 H -0.04936 0.78517 0.54821 0.0
H2844 H -0.05743 0.74744 0.47824 0.0
C2845 C -0.0003 0.76859 0.41953 0.0
C2846 C -0.0308 0.79244 0.47218 0.0
C2847 C 0.0189 0.76471 0.41183 0.0
C2848 C 0.9274 0.77232 0.57018 0.0
C2849 C -0.06227 0.77705 0.54587 0.0
C2850 C -0.05064 0.76028 0.47608 0.0
C2851 C -0.00417 0.77735 0.44517 0.0
C2852 C -0.02413 0.77772 0.45686 0.0
C2853 C -0.06819 0.77088 0.51903 0.0
C2854 C -0.05582 0.77433 0.49401 0.0
H2855 H 0.04258 0.78321 0.46827 0.0
H2856 H 0.00891 0.78955 0.48236 0.0
H2857 H -0.03002 0.75037 0.44607 0.0
H2858 H 0.89238 0.74671 0.53921 0.0
H2859 H 0.91054 0.75495 0.49654 0.0
C2860 C 0.19306 0.75745 0.83949 0.0
C2861 C 0.19732 0.76879 0.81684 0.0
C2862 C 0.18307 0.7638 0.8631 0.0
C2863 C 0.14855 0.79802 0.88345 0.0
H2864 H 0.15524 0.77421 0.95599 0.0
C2865 C 0.0858 0.79273 0.96207 0.0
C2866 C 0.08047 0.77483 0.9624 0.0
C2867 C 0.10438 0.79765 0.95294 0.0
C2868 C 0.15352 0.78138 0.93617 0.0
H2869 H 0.19492 0.79559 0.80075 0.0
H2870 H 0.17745 0.80682 0.84232 0.0
H2871 H 0.18155 0.77316 0.9209 0.0
H2872 H 0.09029 0.74795 0.95537 0.0
H2873 H 0.12292 0.75654 0.93933 0.0
H2874 H 0.12012 0.80539 0.89817 0.0
C2875 C 0.18163 0.793 0.84174 0.0
C2876 C 0.16841 0.78065 0.91601 0.0
C2877 C 0.19142 0.78656 0.8179 0.0
C2878 C 0.09412 0.76182 0.95492 0.0
C2879 C 0.1128 0.76673 0.94626 0.0
C2880 C 0.13382 0.79901 0.9038 0.0
C2881 C 0.17743 0.78168 0.86462 0.0
C2882 C 0.16534 0.78774 0.8887 0.0
C2883 C 0.11787 0.78468 0.94465 0.0
C2884 C 0.1357 0.78958 0.92935 0.0
H2885 H 0.19761 0.74372 0.83908 0.0
H2886 H 0.17947 0.75458 0.87992 0.0
H2887 H 0.14576 0.80369 0.86267 0.0
H2888 H 0.07543 0.80295 0.96803 0.0
H2889 H 0.108 0.81155 0.95144 0.0
C2890 C 0.03045 0.46223 0.96098 0.0
C2891 C 0.04177 0.47573 0.9489 0.0
C2892 C 0.01633 0.45364 0.94468 0.0
C2893 C -0.00258 0.44983 0.87064 0.0
H2894 H -0.05313 0.45638 0.90665 0.0
C2895 C 0.9226 0.48573 0.84153 0.0
C2896 C 0.9193 0.47958 0.81393 0.0
C2897 C -0.0639 0.47715 0.859 0.0
C2898 C -0.03913 0.45425 0.89634 0.0
H2899 H 0.04819 0.4903 0.91035 0.0
H2900 H 0.02332 0.47579 0.88212 0.0
H2901 H -0.02381 0.45495 0.93582 0.0
H2902 H 0.92678 0.45945 0.78295 0.0
H2903 H -0.0496 0.44437 0.81359 0.0
H2904 H -0.01762 0.45124 0.831 0.0
C2905 C 0.02545 0.47147 0.90389 0.0
C2906 C -0.02235 0.45317 0.91307 0.0
C2907 C 0.03947 0.48003 0.92015 0.0
C2908 C -0.07063 0.46458 0.80411 0.0
C2909 C -0.05724 0.45589 0.82166 0.0
C2910 C -0.01933 0.45115 0.85389 0.0
C2911 C 0.01346 0.45844 0.9161 0.0
C2912 C -0.00383 0.45235 0.90016 0.0
C2913 C -0.05362 0.46217 0.84922 0.0
C2914 C -0.03755 0.45472 0.86657 0.0
H2915 H 0.03224 0.45857 0.98312 0.0
H2916 H 0.00728 0.44365 0.95458 0.0
H2917 H 0.01153 0.4487 0.86027 0.0
H2918 H 0.91486 0.49721 0.84955 0.0
H2919 H -0.06107 0.48264 0.87984 0.0
C2920 C 0.67631 0.52419 0.57308 0.0
C2921 C 0.65893 0.51531 0.57943 0.0
C2922 C 0.6881 0.53044 0.595 0.0
C2923 C 0.69918 0.52067 0.66905 0.0
H2924 H 0.73405 0.56055 0.65942 0.0
C2925 C 0.76782 0.52507 0.73554 0.0
C2926 C 0.78431 0.52525 0.71778 0.0
C2927 C 0.7496 0.53013 0.72493 0.0
C2928 C 0.72417 0.54956 0.66262 0.0
H2929 H 0.63951 0.50665 0.61313 0.0
H2930 H 0.65992 0.51783 0.65147 0.0
H2931 H 0.70586 0.55735 0.62785 0.0
H2932 H 0.7953 0.53193 0.67593 0.0
H2933 H 0.76334 0.54034 0.65704 0.0
H2934 H 0.71793 0.51234 0.70272 0.0
C2935 C 0.66473 0.51964 0.62971 0.0
C2936 C 0.70817 0.54766 0.64452 0.0
C2937 C 0.65313 0.51315 0.60782 0.0
C2938 C 0.78267 0.53151 0.68984 0.0
C2939 C 0.76446 0.53658 0.67923 0.0
C2940 C 0.71504 0.52265 0.68723 0.0
C2941 C 0.68248 0.52811 0.62355 0.0
C2942 C 0.69618 0.53267 0.64663 0.0
C2943 C 0.7477 0.53542 0.69645 0.0
C2944 C 0.72824 0.53657 0.68317 0.0
H2945 H 0.6809 0.52611 0.55123 0.0
H2946 H 0.7019 0.53658 0.58956 0.0
H2947 H 0.69032 0.50891 0.67116 0.0
H2948 H 0.76888 0.52053 0.75736 0.0
H2949 H 0.73687 0.52919 0.7386 0.0
C2950 C -0.07114 0.23688 0.58254 0.0
C2951 C -0.06745 0.23261 0.55413 0.0
C2952 C 0.91523 0.22724 0.59805 0.0
C2953 C 0.89155 0.20131 0.63084 0.0
H2954 H 0.8404 0.19881 0.5955 0.0
C2955 C 0.82451 0.20896 0.69913 0.0
C2956 C 0.81374 0.22353 0.68911 0.0
C2957 C 0.83732 0.20002 0.681 0.0
C2958 C 0.85465 0.19904 0.6056 0.0
H2959 H 0.92523 0.21497 0.51943 0.0
H2960 H 0.90128 0.19808 0.54662 0.0
H2961 H 0.86915 0.20324 0.56602 0.0
H2962 H 0.80669 0.23957 0.65228 0.0
H2963 H 0.82945 0.2246 0.62097 0.0
H2964 H 0.87687 0.1994 0.67063 0.0
C2965 C 0.90884 0.20888 0.55688 0.0
C2966 C 0.87117 0.20147 0.58869 0.0
C2967 C 0.9224 0.21863 0.54131 0.0
C2968 C 0.81508 0.22849 0.66052 0.0
C2969 C 0.82785 0.21965 0.64247 0.0
C2970 C 0.87502 0.19918 0.64776 0.0
C2971 C 0.90519 0.21305 0.58545 0.0
C2972 C 0.88951 0.2041 0.60147 0.0
C2973 C 0.83952 0.20562 0.65267 0.0
C2974 C 0.85631 0.19963 0.63536 0.0
H2975 H -0.06337 0.24755 0.59286 0.0
H2976 H 0.91229 0.23115 0.61978 0.0
H2977 H 0.90569 0.20261 0.64107 0.0
H2978 H 0.82336 0.20473 0.72109 0.0
H2979 H 0.84607 0.18923 0.68939 0.0
C2980 C 0.65935 0.23919 0.29555 0.0
C2981 C 0.66585 0.23671 0.32357 0.0
C2982 C 0.67035 0.23279 0.27291 0.0
C2983 C 0.71354 0.20468 0.25524 0.0
H2984 H 0.72165 0.24058 0.19758 0.0
C2985 C 0.78687 0.2232 0.21035 0.0
C2986 C 0.78825 0.23013 0.18282 0.0
C2987 C 0.76895 0.21718 0.22045 0.0
C2988 C 0.7192 0.23009 0.21287 0.0
H2989 H 0.6885 0.22545 0.35033 0.0
H2990 H 0.70854 0.21521 0.31065 0.0
H2991 H 0.69456 0.24355 0.23014 0.0
H2992 H 0.77275 0.23498 0.14327 0.0
H2993 H 0.74122 0.22468 0.16116 0.0
H2994 H 0.73945 0.19214 0.23922 0.0
C2995 C 0.69461 0.2215 0.30609 0.0
C2996 C 0.70363 0.23181 0.23165 0.0
C2997 C 0.68339 0.22765 0.32878 0.0
C2998 C 0.77187 0.22995 0.16482 0.0
C2999 C 0.75393 0.22394 0.17491 0.0
C3000 C 0.72927 0.20304 0.23654 0.0
C3001 C 0.68823 0.2241 0.27791 0.0
C3002 C 0.70131 0.21965 0.25399 0.0
C3003 C 0.7522 0.21806 0.2031 0.0
C3004 C 0.73279 0.21629 0.21627 0.0
H3005 H 0.64557 0.24581 0.2911 0.0
H3006 H 0.66495 0.23479 0.25148 0.0
H3007 H 0.71173 0.19484 0.2718 0.0
H3008 H 0.79945 0.22302 0.22441 0.0
H3009 H 0.76796 0.21297 0.24244 0.0
C3010 C 0.82843 0.54153 0.18468 0.0
C3011 C 0.82355 0.52353 0.18403 0.0
C3012 C 0.84663 0.5468 0.19489 0.0
C3013 C 0.89598 0.53203 0.21255 0.0
H3014 H 0.8872 0.55279 0.28682 0.0
C3015 C -0.06071 0.51025 0.30785 0.0
C3016 C -0.05726 0.52171 0.33058 0.0
C3017 C -0.0717 0.51592 0.28467 0.0
C3018 C 0.89022 0.54756 0.26585 0.0
H3019 H 0.83387 0.49683 0.19157 0.0
H3020 H 0.86593 0.50602 0.20913 0.0
H3021 H 0.86123 0.55355 0.25159 0.0
H3022 H -0.06204 0.54808 0.34715 0.0
H3023 H 0.91877 0.55817 0.30628 0.0
H3024 H 0.92467 0.52531 0.22715 0.0
C3025 C 0.8557 0.51602 0.20178 0.0
C3026 C 0.87531 0.54801 0.24569 0.0
C3027 C 0.83736 0.51078 0.19217 0.0
C3028 C -0.06485 0.53895 0.32992 0.0
C3029 C 0.92433 0.54474 0.30651 0.0
C3030 C 0.91104 0.53187 0.2325 0.0
C3031 C 0.86024 0.53406 0.20381 0.0
C3032 C 0.87772 0.53922 0.21972 0.0
C3033 C 0.92081 0.53327 0.28363 0.0
C3034 C 0.90775 0.53848 0.26003 0.0
H3035 H 0.81791 0.55156 0.17833 0.0
H3036 H 0.84986 0.56076 0.19669 0.0
H3037 H 0.89808 0.52531 0.19244 0.0
H3038 H -0.05489 0.4969 0.30795 0.0
H3039 H 0.92534 0.50655 0.26786 0.0
C3040 C 0.69463 0.98297 0.56001 0.0
C3041 C 0.69728 0.97785 0.58835 0.0
C3042 C 0.68041 0.97481 0.54351 0.0
C3043 C 0.63289 0.95587 0.55329 0.0
H3044 H 0.63578 0.95438 0.471 0.0
C3045 C 0.58086 0.96278 0.44724 0.0
C3046 C 0.57021 0.97759 0.45653 0.0
C3047 C 0.5954 0.95543 0.46437 0.0
C3048 C 0.63467 0.95422 0.49397 0.0
H3049 H 0.68834 0.95959 0.62145 0.0
H3050 H 0.66323 0.94535 0.59252 0.0
H3051 H 0.66576 0.95305 0.49883 0.0
H3052 H 0.56584 0.99618 0.4909 0.0
H3053 H 0.59178 0.98378 0.52057 0.0
H3054 H 0.60185 0.95788 0.54839 0.0
C3055 C 0.67204 0.9557 0.58314 0.0
C3056 C 0.65185 0.95359 0.50987 0.0
C3057 C 0.68627 0.96389 0.59966 0.0
C3058 C 0.57401 0.98482 0.4833 0.0
C3059 C 0.58861 0.97753 0.5004 0.0
C3060 C 0.6157 0.95637 0.53741 0.0
C3061 C 0.66867 0.96139 0.55513 0.0
C3062 C 0.65113 0.95566 0.5395 0.0
C3063 C 0.59953 0.96284 0.491 0.0
C3064 C 0.61658 0.95677 0.5076 0.0
H3065 H 0.70313 0.99361 0.55084 0.0
H3066 H 0.67791 0.97974 0.52217 0.0
H3067 H 0.63187 0.95741 0.57613 0.0
H3068 H 0.57795 0.95685 0.42673 0.0
H3069 H 0.60356 0.9441 0.45668 0.0
C3070 C 0.40036 0.26216 0.53949 0.0
C3071 C 0.40705 0.25373 0.56432 0.0
C3072 C 0.41029 0.25985 0.51394 0.0
C3073 C 0.44828 0.23302 0.47865 0.0
H3074 H 0.46865 0.27829 0.45406 0.0
C3075 C 0.52771 0.2434 0.45563 0.0
C3076 C 0.53379 0.25573 0.43531 0.0
C3077 C 0.50787 0.24104 0.46083 0.0
C3078 C 0.46274 0.26551 0.45978 0.0
H3079 H 0.42861 0.2358 0.58213 0.0
H3080 H 0.44636 0.23202 0.53751 0.0
H3081 H 0.43939 0.27736 0.48314 0.0
H3082 H 0.5243 0.27506 0.404 0.0
H3083 H 0.48942 0.27105 0.41338 0.0
H3084 H 0.47254 0.22127 0.45695 0.0
C3085 C 0.43327 0.24017 0.53766 0.0
C3086 C 0.44596 0.26499 0.47646 0.0
C3087 C 0.4234 0.24257 0.56324 0.0
C3088 C 0.51986 0.26563 0.4201 0.0
C3089 C 0.49997 0.26323 0.42523 0.0
C3090 C 0.46501 0.23353 0.46179 0.0
C3091 C 0.42692 0.24896 0.51292 0.0
C3092 C 0.43951 0.24883 0.48765 0.0
C3093 C 0.49382 0.25093 0.44567 0.0
C3094 C 0.47313 0.24987 0.45409 0.0
H3095 H 0.38755 0.27067 0.53985 0.0
H3096 H 0.40525 0.26682 0.49515 0.0
H3097 H 0.44324 0.2204 0.48666 0.0
H3098 H 0.53826 0.23553 0.46739 0.0
H3099 H 0.50356 0.23182 0.47731 0.0
C3100 C 0.68712 0.29151 0.81166 0.0
C3101 C 0.69778 0.27685 0.82138 0.0
C3102 C 0.67509 0.30086 0.83026 0.0
C3103 C 0.65768 0.30124 0.90618 0.0
H3104 H 0.60743 0.30688 0.86888 0.0
C3105 C 0.57889 0.27236 0.92228 0.0
C3106 C 0.57473 0.27615 0.95071 0.0
C3107 C 0.59386 0.28126 0.90841 0.0
C3108 C 0.62141 0.30568 0.87965 0.0
H3109 H 0.70538 0.26083 0.85787 0.0
H3110 H 0.6829 0.27584 0.88986 0.0
H3111 H 0.63686 0.30668 0.84064 0.0
H3112 H 0.5824 0.2923 0.98709 0.0
H3113 H 0.60903 0.30774 0.96278 0.0
H3114 H 0.64164 0.2979 0.94481 0.0
C3115 C 0.68434 0.28087 0.8684 0.0
C3116 C 0.63843 0.30575 0.86349 0.0
C3117 C 0.6969 0.27195 0.85 0.0
C3118 C 0.58553 0.28911 0.9651 0.0
C3119 C 0.60062 0.298 0.95124 0.0
C3120 C 0.64055 0.30077 0.92229 0.0
C3121 C 0.67293 0.29524 0.85861 0.0
C3122 C 0.65661 0.30203 0.87632 0.0
C3123 C 0.60492 0.2941 0.92278 0.0
C3124 C 0.62228 0.30154 0.90867 0.0
H3125 H 0.68824 0.29585 0.78974 0.0
H3126 H 0.667 0.31213 0.82213 0.0
H3127 H 0.67155 0.2992 0.91688 0.0
H3128 H 0.57067 0.26245 0.9108 0.0
H3129 H 0.59721 0.27761 0.88668 0.0
C3130 C 0.41706 0.97773 0.8487 0.0
C3131 C 0.41523 0.97352 0.81986 0.0
C3132 C 0.43163 0.96971 0.86504 0.0
C3133 C 0.48069 0.95391 0.85478 0.0
H3134 H 0.47786 0.9482 0.93661 0.0
C3135 C 0.54814 0.96449 0.9245 0.0
C3136 C 0.54427 0.97732 0.94529 0.0
C3137 C 0.53271 0.95603 0.91074 0.0
C3138 C 0.47888 0.94946 0.91371 0.0
H3139 H 0.42596 0.95685 0.78574 0.0
H3140 H 0.45159 0.94289 0.81434 0.0
H3141 H 0.4479 0.94699 0.90834 0.0
H3142 H 0.52159 0.99106 0.9688 0.0
H3143 H 0.49467 0.97668 0.94441 0.0
H3144 H 0.51136 0.95783 0.86025 0.0
C3145 C 0.44191 0.95243 0.82425 0.0
C3146 C 0.46178 0.94877 0.89758 0.0
C3147 C 0.42735 0.96048 0.80792 0.0
C3148 C 0.5249 0.9813 0.95266 0.0
C3149 C 0.50951 0.97283 0.93903 0.0
C3150 C 0.49776 0.95463 0.87089 0.0
C3151 C 0.44454 0.95735 0.85274 0.0
C3152 C 0.46244 0.95213 0.86824 0.0
C3153 C 0.51325 0.96024 0.91776 0.0
C3154 C 0.49679 0.95357 0.90064 0.0
H3155 H 0.40771 0.98764 0.85836 0.0
H3156 H 0.4335 0.97399 0.88684 0.0
H3157 H 0.48166 0.95659 0.83218 0.0
H3158 H 0.56306 0.96108 0.91879 0.0
H3159 H 0.53595 0.9464 0.89436 0.0
C3160 C 0.1815 0.03694 0.54631 0.0
C3161 C 0.17043 0.02282 0.55696 0.0
C3162 C 0.19616 0.04447 0.56284 0.0
C3163 C 0.23487 0.04741 0.59359 0.0
H3164 H 0.23099 0.04645 0.67582 0.0
C3165 C 0.29572 0.02326 0.66319 0.0
C3166 C 0.29736 0.02875 0.69146 0.0
C3167 C 0.28133 0.03049 0.64575 0.0
C3168 C 0.2323 0.04738 0.65291 0.0
H3169 H 0.1657 0.00544 0.5929 0.0
H3170 H 0.19191 0.01803 0.62147 0.0
H3171 H 0.20148 0.0442 0.6473 0.0
H3172 H 0.28646 0.04689 0.72345 0.0
H3173 H 0.26106 0.05961 0.69281 0.0
H3174 H 0.26577 0.05004 0.59924 0.0
C3175 C 0.18893 0.0237 0.60073 0.0
C3176 C 0.2154 0.0458 0.63658 0.0
C3177 C 0.17416 0.01627 0.58428 0.0
C3178 C 0.28519 0.04229 0.70173 0.0
C3179 C 0.27077 0.0496 0.68422 0.0
C3180 C 0.25175 0.0492 0.60993 0.0
C3181 C 0.20004 0.0379 0.5902 0.0
C3182 C 0.21673 0.0446 0.60686 0.0
C3183 C 0.26837 0.04341 0.6563 0.0
C3184 C 0.25072 0.04794 0.63969 0.0
H3185 H 0.17866 0.04233 0.52534 0.0
H3186 H 0.20444 0.05542 0.55423 0.0
H3187 H 0.23636 0.04668 0.5707 0.0
H3188 H 0.30512 0.01293 0.6548 0.0
H3189 H 0.27966 0.02516 0.62454 0.0
C3190 C 0.34502 0.73911 0.71992 0.0
C3191 C 0.3299 0.72733 0.7261 0.0
C3192 C 0.36365 0.73267 0.71373 0.0
C3193 C 0.38214 0.69844 0.67315 0.0
H3194 H 0.4305 0.72359 0.68689 0.0
C3195 C 0.43372 0.71381 0.58144 0.0
C3196 C 0.43896 0.73172 0.58095 0.0
C3197 C 0.42612 0.70632 0.60616 0.0
C3198 C 0.41721 0.71623 0.68295 0.0
H3199 H 0.32229 0.6998 0.73263 0.0
H3200 H 0.35481 0.68847 0.72029 0.0
H3201 H 0.40545 0.72268 0.72383 0.0
H3202 H 0.44042 0.75592 0.60528 0.0
H3203 H 0.4259 0.74328 0.64778 0.0
H3204 H 0.39248 0.69401 0.63111 0.0
C3205 C 0.35235 0.70263 0.72089 0.0
C3206 C 0.40304 0.71554 0.7042 0.0
C3207 C 0.33379 0.7091 0.72754 0.0
C3208 C 0.43628 0.74211 0.60519 0.0
C3209 C 0.42842 0.73472 0.62972 0.0
C3210 C 0.39613 0.69941 0.65173 0.0
C3211 C 0.36727 0.71436 0.71326 0.0
C3212 C 0.3848 0.70794 0.69842 0.0
C3213 C 0.4234 0.7167 0.63058 0.0
C3214 C 0.41299 0.70967 0.65568 0.0
H3215 H 0.34233 0.75323 0.71913 0.0
H3216 H 0.37483 0.74197 0.7073 0.0
H3217 H 0.36818 0.69241 0.66828 0.0
H3218 H 0.4361 0.70546 0.56307 0.0
H3219 H 0.4224 0.69242 0.60616 0.0
C3220 C 0.27509 0.71212 0.17835 0.0
C3221 C 0.27918 0.73029 0.17863 0.0
C3222 C 0.25684 0.70606 0.18723 0.0
C3223 C 0.20682 0.7195 0.20575 0.0
H3224 H 0.21832 0.70007 0.2803 0.0
C3225 C 0.17044 0.74606 0.30314 0.0
C3226 C 0.16767 0.73563 0.32738 0.0
C3227 C 0.17958 0.73897 0.27933 0.0
C3228 C 0.21448 0.70489 0.25932 0.0
H3229 H 0.26739 0.75649 0.18594 0.0
H3230 H 0.23536 0.74595 0.20122 0.0
H3231 H 0.24267 0.6981 0.24301 0.0
H3232 H 0.1719 0.70966 0.34605 0.0
H3233 H 0.18788 0.69715 0.30418 0.0
H3234 H 0.17906 0.72728 0.22257 0.0
C3235 C 0.24618 0.73639 0.19417 0.0
C3236 C 0.22847 0.70371 0.2379 0.0
C3237 C 0.26453 0.74242 0.18593 0.0
C3238 C 0.17424 0.71803 0.32765 0.0
C3239 C 0.18318 0.71084 0.30364 0.0
C3240 C 0.19268 0.72041 0.22701 0.0
C3241 C 0.24243 0.71817 0.19571 0.0
C3242 C 0.22529 0.7123 0.21185 0.0
C3243 C 0.18587 0.72123 0.27918 0.0
C3244 C 0.19711 0.71448 0.25465 0.0
H3245 H 0.28626 0.70258 0.17255 0.0
H3246 H 0.25427 0.69197 0.18871 0.0
H3247 H 0.20409 0.72603 0.18559 0.0
H3248 H 0.16535 0.75964 0.30248 0.0
H3249 H 0.18202 0.74755 0.26121 0.0
C3250 C 0.45379 0.009 0.29394 0.0
C3251 C 0.44829 0.01301 0.32193 0.0
C3252 C 0.44204 0.01432 0.27128 0.0
C3253 C 0.39942 0.04269 0.25251 0.0
H3254 H 0.38722 0.00415 0.20138 0.0
C3255 C 0.32362 0.02869 0.20997 0.0
C3256 C 0.32144 0.02114 0.18301 0.0
C3257 C 0.34222 0.03271 0.22011 0.0
C3258 C 0.3908 0.01527 0.21486 0.0
H3259 H 0.42671 0.02594 0.34854 0.0
H3260 H 0.40561 0.03459 0.30903 0.0
H3261 H 0.41513 1.00157 0.23288 0.0
H3262 H 0.33647 0.01278 0.14468 0.0
H3263 H 0.36914 0.0196 0.16265 0.0
H3264 H 0.37405 0.05577 0.23574 0.0
C3265 C 0.41923 0.0278 0.30442 0.0
C3266 C 0.40682 0.01379 0.23296 0.0
C3267 C 0.4311 0.02262 0.32706 0.0
C3268 C 0.33791 0.01839 0.16574 0.0
C3269 C 0.35652 0.02238 0.1759 0.0
C3270 C 0.38331 0.04413 0.23447 0.0
C3271 C 0.42452 0.02358 0.27633 0.0
C3272 C 0.41069 0.02711 0.2529 0.0
C3273 C 0.35884 0.02919 0.20341 0.0
C3274 C 0.37837 0.03005 0.21651 0.0
H3275 H 0.46723 1.00185 0.28953 0.0
H3276 H 0.44654 0.01102 0.24984 0.0
H3277 H 0.40241 0.05333 0.26725 0.0
H3278 H 0.31104 0.03105 0.22349 0.0
H3279 H 0.34363 0.03767 0.2416 0.0
C3280 C 0.57986 0.47687 0.95385 0.0
C3281 C 0.56022 0.47409 0.96095 0.0
C3282 C 0.59464 0.4699 0.97091 0.0
C3283 C 0.62431 0.45172 1.00782 0.0
H3284 H 0.61549 0.46968 0.08395 0.0
C3285 C 0.6699 0.47458 0.11415 0.0
C3286 C 0.68379 0.48502 0.10005 0.0
C3287 C 0.65502 0.46639 0.09886 0.0
C3288 C 0.61813 0.46411 1.06309 0.0
H3289 H 0.54034 0.46089 0.98988 0.0
H3290 H 0.56633 0.44883 1.02016 0.0
H3291 H 0.58787 0.46568 1.05225 0.0
H3292 H 0.69334 0.49514 1.05925 0.0
H3293 H 0.66701 0.48123 1.03249 0.0
H3294 H 0.65482 0.45148 1.01816 0.0
C3295 C 0.57028 0.45642 1.00148 0.0
C3296 C 0.60228 0.46175 1.04492 0.0
C3297 C 0.55547 0.46339 0.98432 0.0
C3298 C 0.68267 0.48722 1.07053 0.0
C3299 C 0.66783 0.47902 1.05523 0.0
C3300 C 0.64018 0.45412 1.026 0.0
C3301 C 0.58997 0.46007 0.99537 0.0
C3302 C 0.60539 0.45659 1.0166 0.0
C3303 C 0.65391 0.46851 1.06926 0.0
C3304 C 0.63726 0.46133 1.05316 0.0
H3305 H 0.58382 0.48495 0.93571 0.0
H3306 H 0.60967 0.4732 0.96591 0.0
H3307 H 0.627 0.4474 0.98622 0.0
H3308 H 0.67065 0.47258 0.13695 0.0
H3309 H 0.64442 0.4584 0.11013 0.0
C3310 C 0.52698 0.79256 0.95807 0.0
C3311 C 0.53633 0.77714 0.96787 0.0
C3312 C 0.51473 0.80214 0.97611 0.0
C3313 C 0.49752 0.80446 1.05126 0.0
H3314 H 0.44628 0.80667 1.016 0.0
C3315 C 0.4208 0.77331 1.07483 0.0
C3316 C 0.41753 0.7778 0.10327 0.0
C3317 C 0.43478 0.78233 1.05907 0.0
C3318 C 0.46052 0.80648 1.02615 0.0
H3319 H 0.54113 0.75998 1.00412 0.0
H3320 H 0.51914 0.77616 1.03531 0.0
H3321 H 0.47529 0.80645 0.98629 0.0
H3322 H 0.42576 0.79533 0.13765 0.0
H3323 H 0.45059 0.81102 0.11002 0.0
H3324 H 0.48261 0.80223 0.09093 0.0
C3325 C 0.52158 0.78124 1.01405 0.0
C3326 C 0.47719 0.80655 1.00915 0.0
C3327 C 0.53386 0.77173 0.99608 0.0
C3328 C 0.42828 0.79153 0.11575 0.0
C3329 C 0.4423 0.80059 0.09995 0.0
C3330 C 0.48083 0.80416 1.06825 0.0
C3331 C 0.51163 0.79638 1.00413 0.0
C3332 C 0.49571 0.80396 1.02152 0.0
C3333 C 0.44569 0.79604 1.07147 0.0
C3334 C 0.46224 0.80362 1.05555 0.0
H3335 H 0.52901 0.79713 0.93643 0.0
H3336 H 0.50728 0.81376 0.96793 0.0
H3337 H 0.51173 0.80304 1.06131 0.0
H3338 H 0.41255 0.76285 1.06476 0.0
H3339 H 0.43747 0.77815 1.03739 0.0
C3340 C 0.5721 0.77696 0.44908 0.0
C3341 C 0.56964 0.76733 0.47424 0.0
C3342 C 0.59077 0.78203 0.44058 0.0
C3343 C 0.63938 0.7647 0.44444 0.0
H3344 H 0.65052 0.80567 0.39758 0.0
C3345 C 0.69959 0.76164 0.36138 0.0
C3346 C 0.6931 0.76701 0.3344 0.0
C3347 C 0.68906 0.76632 0.38554 0.0
C3348 C 0.64771 0.79424 0.41085 0.0
H3349 H 0.5842 0.7563 0.5113 0.0
H3350 H 0.61698 0.76501 0.49621 0.0
H3351 H 0.6225 0.80626 0.42987 0.0
H3352 H 0.6711 0.7818 0.31113 0.0
H3353 H 0.65196 0.78923 0.35326 0.0
H3354 H 0.66342 0.75208 0.42398 0.0
C3355 C 0.60454 0.76859 0.48306 0.0
C3356 C 0.63178 0.79462 0.42934 0.0
C3357 C 0.58587 0.7635 0.49152 0.0
C3358 C 0.67618 0.77739 0.3318 0.0
C3359 C 0.66549 0.78189 0.35594 0.0
C3360 C 0.65521 0.7643 0.42591 0.0
C3361 C 0.60718 0.77753 0.45719 0.0
C3362 C 0.62688 0.77946 0.445 0.0
C3363 C 0.67173 0.77624 0.38301 0.0
C3364 C 0.6588 0.77869 0.40778 0.0
H3365 H 0.5597 0.78021 0.43565 0.0
H3366 H 0.59243 0.78862 0.42026 0.0
H3367 H 0.63588 0.75279 0.45616 0.0
H3368 H 0.71289 0.75392 0.36387 0.0
H3369 H 0.69428 0.76193 0.40614 0.0
C3370 C 0.41081 0.46382 0.33611 0.0
C3371 C 0.40327 0.48102 0.33846 0.0
C3372 C 0.42184 0.45656 0.35822 0.0
C3373 C 0.4401 0.46633 0.43171 0.0
H3374 H 0.48906 0.44914 0.40024 0.0
C3375 C 0.51541 0.49108 0.46043 0.0
C3376 C 0.53031 0.47882 0.46605 0.0
C3377 C 0.49696 0.48519 0.45226 0.0
C3378 C 0.47533 0.45345 0.40955 0.0
H3379 H 0.40022 0.50384 0.36579 0.0
H3380 H 0.4204 0.49179 0.40356 0.0
H3381 H 0.45985 0.449 0.37103 0.0
H3382 H 0.53799 0.45097 0.46797 0.0
H3383 H 0.5058 0.44074 0.45215 0.0
H3384 H 0.45652 0.47276 0.46908 0.0
C3385 C 0.41739 0.48351 0.38535 0.0
C3386 C 0.45851 0.45331 0.39289 0.0
C3387 C 0.40611 0.4906 0.3635 0.0
C3388 C 0.52662 0.46064 0.46358 0.0
C3389 C 0.50829 0.45477 0.45484 0.0
C3390 C 0.45706 0.46684 0.44813 0.0
C3391 C 0.42577 0.46655 0.38273 0.0
C3392 C 0.44104 0.46089 0.40315 0.0
C3393 C 0.49338 0.46703 0.44921 0.0
C3394 C 0.47492 0.46133 0.43644 0.0
H3395 H 0.40836 0.45607 0.31711 0.0
H3396 H 0.42784 0.44338 0.35572 0.0
H3397 H 0.42668 0.47169 0.44052 0.0
H3398 H 0.51799 0.50514 0.46248 0.0
H3399 H 0.48567 0.49484 0.44737 0.0
C3400 C 0.27494 0.53156 0.19798 0.0
C3401 C 0.29475 0.53046 0.19051 0.0
C3402 C 0.26165 0.53976 0.17975 0.0
C3403 C 0.25478 0.54321 0.1052 0.0
H3404 H 0.20626 0.56574 0.12836 0.0
C3405 C 0.18594 0.53203 1.04062 0.0
C3406 C 0.16992 0.52698 1.05735 0.0
C3407 C 0.20185 0.54049 1.05298 0.0
C3408 C 0.21978 0.55956 0.12148 0.0
H3409 H 0.31666 0.538 0.15946 0.0
H3410 H 0.29323 0.55205 0.1271 0.0
H3411 H 0.23485 0.56707 0.15949 0.0
H3412 H 0.15736 0.52721 0.09959 0.0
H3413 H 0.18572 0.54086 0.12176 0.0
H3414 H 0.23953 0.53414 1.06872 0.0
C3415 C 0.28802 0.54663 0.14704 0.0
C3416 C 0.23613 0.56045 0.13917 0.0
C3417 C 0.30133 0.53847 0.16536 0.0
C3418 C 0.16973 0.53085 0.08643 0.0
C3419 C 0.18582 0.53897 0.09894 0.0
C3420 C 0.23843 0.54215 0.08771 0.0
C3421 C 0.268 0.54691 0.15375 0.0
C3422 C 0.25336 0.55136 0.13188 0.0
C3423 C 0.20219 0.54366 0.08241 0.0
C3424 C 0.22044 0.54938 0.09651 0.0
H3425 H 0.26963 0.52565 0.2175 0.0
H3426 H 0.24625 0.5395 0.18521 0.0
H3427 H 0.26787 0.536 0.09911 0.0
H3428 H 0.18612 0.52953 1.01794 0.0
H3429 H 0.21407 0.54419 1.03959 0.0
C3430 C 0.33463 0.23592 0.22559 0.0
C3431 C 0.32156 0.24866 0.21491 0.0
C3432 C 0.35396 0.23559 0.21629 0.0
C3433 C 0.39055 0.2616 0.17634 0.0
H3434 H 0.40686 0.21584 0.14745 0.0
C3435 C 0.43359 0.25268 1.07477 0.0
C3436 C 0.44995 0.24148 1.07522 0.0
C3437 C 0.42144 0.25367 0.0984 0.0
C3438 C 0.40273 0.22861 0.15601 0.0
H3439 H 0.31813 0.27124 0.18695 0.0
H3440 H 0.35175 0.27034 0.16984 0.0
H3441 H 0.37872 0.2178 0.17911 0.0
H3442 H 0.46643 0.22222 0.09986 0.0
H3443 H 0.44457 0.22354 0.1411 0.0
H3444 H 0.4137 0.27248 0.1513 0.0
C3445 C 0.3473 0.26089 0.18589 0.0
C3446 C 0.38671 0.22976 0.17417 0.0
C3447 C 0.32802 0.26126 0.1953 0.0
C3448 C 0.45379 0.23092 0.09918 0.0
C3449 C 0.44145 0.23172 0.1227 0.0
C3450 C 0.40644 0.26047 0.15798 0.0
C3451 C 0.36039 0.24796 0.19613 0.0
C3452 C 0.37994 0.24636 0.18332 0.0
C3453 C 0.42541 0.24331 0.12254 0.0
C3454 C 0.412 0.24406 0.14675 0.0
H3455 H 0.32991 0.2262 0.24105 0.0
H3456 H 0.36381 0.22555 0.22456 0.0
H3457 H 0.38584 0.2745 0.18368 0.0
H3458 H 0.43048 0.26098 1.0565 0.0
H3459 H 0.40883 0.26242 0.09776 0.0
C3460 C 0.27284 0.22889 0.68844 0.0
C3461 C 0.28479 0.24223 0.69962 0.0
C3462 C 0.25326 0.2278 0.69653 0.0
C3463 C 0.21393 0.25484 0.72652 0.0
H3464 H 0.19576 0.21175 0.76249 0.0
C3465 C 0.16923 0.2538 0.82607 0.0
C3466 C 0.15229 0.24352 0.8272 0.0
C3467 C 0.18142 0.25277 0.80251 0.0
C3468 C 0.20039 0.22369 0.75172 0.0
H3469 H 0.28622 0.26456 0.72828 0.0
H3470 H 0.25206 0.26255 0.74276 0.0
H3471 H 0.22598 0.21126 0.73462 0.0
H3472 H 0.13468 0.22396 0.80541 0.0
H3473 H 0.1567 0.22167 0.76433 0.0
H3474 H 0.18927 0.26758 0.74567 0.0
C3475 C 0.25767 0.25318 0.72736 0.0
C3476 C 0.21761 0.22343 0.73587 0.0
C3477 C 0.27721 0.25418 0.71945 0.0
C3478 C 0.14777 0.23198 0.80481 0.0
C3479 C 0.16018 0.23072 0.7814 0.0
C3480 C 0.19682 0.25512 0.74242 0.0
C3481 C 0.24551 0.24017 0.71561 0.0
C3482 C 0.22503 0.23924 0.72471 0.0
C3483 C 0.17691 0.24129 0.78005 0.0
C3484 C 0.19065 0.23977 0.75641 0.0
H3485 H 0.27849 0.21955 0.67303 0.0
H3486 H 0.24413 0.21758 0.68751 0.0
H3487 H 0.21929 0.2671 0.71751 0.0
H3488 H 0.17288 0.26281 0.84312 0.0
H3489 H 0.19455 0.26075 0.80198 0.0
C3490 C 0.42899 0.54356 0.85268 0.0
C3491 C 0.43987 0.52979 0.84034 0.0
C3492 C 0.41471 0.5524 0.83689 0.0
C3493 C 0.37529 0.55326 0.80788 0.0
H3494 H 0.37731 0.5561 0.72563 0.0
C3495 C 0.31817 0.52271 0.73823 0.0
C3496 C 0.31397 0.52969 0.71134 0.0
C3497 C 0.33199 0.53086 0.7555 0.0
C3498 C 0.37641 0.55592 0.74862 0.0
H3499 H 0.44545 0.51505 0.80175 0.0
H3500 H 0.42011 0.53003 0.77433 0.0
H3501 H 0.40753 0.55731 0.75285 0.0
H3502 H 0.32001 0.55095 0.68162 0.0
H3503 H 0.34433 0.56517 0.71184 0.0
H3504 H 0.34427 0.55091 0.80354 0.0
C3505 C 0.42277 0.53433 0.79594 0.0
C3506 C 0.39375 0.55647 0.76417 0.0
C3507 C 0.43705 0.52553 0.81171 0.0
C3508 C 0.32327 0.54521 0.70222 0.0
C3509 C 0.33705 0.5534 0.71951 0.0
C3510 C 0.35796 0.55284 0.79234 0.0
C3511 C 0.41113 0.54754 0.80859 0.0
C3512 C 0.39339 0.55378 0.7937 0.0
C3513 C 0.34175 0.54615 0.74613 0.0
C3514 C 0.35855 0.55283 0.76252 0.0
H3515 H 0.43119 0.54722 0.8747 0.0
H3516 H 0.40599 0.56257 0.84708 0.0
H3517 H 0.37453 0.55127 0.83067 0.0
H3518 H 0.31103 0.51082 0.74572 0.0
H3519 H 0.33563 0.52472 0.77567 0.0
loop_
_geom_bond_atom_site_label_1
_geom_bond_atom_site_label_2
_geom_bond_distance
_geom_bond_site_symmetry_2
_ccdc_geom_bond_type
Tb0 O3 2.453 . S
Tb0 O4 2.595 . S
Tb0 O5 2.374 1_565 S
Tb0 O13 2.342 1_565 S
Tb0 O15 2.353 . S
Tb0 O17 2.427 . S
Tb0 O18 2.513 1_565 S
C1 O5 1.251 . S
C1 O7 1.263 . S
Tb2 O4 2.343 1_545 S
Tb2 O7 2.353 . S
Tb2 O10 2.427 . S
Tb2 O11 2.513 1_545 S
Tb2 O12 2.453 . S
Tb2 O13 2.597 . S
Tb2 O14 2.374 1_545 S
O3 Tb0 2.453 . S
O3 C19 1.265 . S
O4 Tb0 2.595 . S
O4 Tb2 2.343 1_565 S
O4 C19 1.258 . S
O5 Tb0 2.374 1_545 S
O5 C1 1.251 . S
C6 O10 1.275 . S
C6 O11 1.246 1_545 S
O7 C1 1.263 . S
O7 Tb2 2.353 . S
C8 O12 1.245 . S
C8 O13 1.260 . S
C9 O14 1.250 . S
C9 O15 1.263 . S
O10 Tb2 2.427 . S
O10 C6 1.275 . S
O11 Tb2 2.513 1_565 S
O11 C6 1.246 1_565 S
O12 Tb2 2.453 . S
O12 C8 1.245 . S
O13 Tb0 2.342 1_545 S
O13 Tb2 2.597 . S
O13 C8 1.260 . S
O14 Tb2 2.374 1_565 S
O14 C9 1.250 . S
O15 Tb0 2.353 . S
O15 C9 1.263 . S
C16 O17 1.275 . S
C16 O18 1.246 1_565 S
O17 Tb0 2.427 . S
O17 C16 1.275 . S
O18 Tb0 2.513 1_545 S
O18 C16 1.246 1_545 S
C19 O3 1.265 . S
C19 O4 1.258 . S
Tb20 O23 2.453 . S
Tb20 O24 2.596 . S
Tb20 O25 2.374 . S
Tb20 O33 2.343 . S
Tb20 O35 2.353 . S
Tb20 O37 2.427 . S
Tb20 O38 2.513 . S
C21 O25 1.251 . S
C21 O27 1.263 . S
Tb22 O24 2.343 . S
Tb22 O27 2.353 . S
Tb22 O30 2.427 . S
Tb22 O31 2.513 . S
Tb22 O32 2.453 . S
Tb22 O33 2.596 . S
Tb22 O34 2.374 . S
O23 Tb20 2.453 . S
O23 C39 1.245 . S
O24 Tb20 2.596 . S
O24 Tb22 2.343 . S
O24 C39 1.259 . S
O25 Tb20 2.374 . S
O25 C21 1.251 . S
C26 O30 1.275 . S
C26 O31 1.246 . S
O27 C21 1.263 . S
O27 Tb22 2.353 . S
C28 O32 1.245 . S
C28 O33 1.259 . S
C29 O34 1.250 . S
C29 O35 1.263 . S
O30 Tb22 2.427 . S
O30 C26 1.275 . S
O31 Tb22 2.513 . S
O31 C26 1.246 . S
O32 Tb22 2.453 . S
O32 C28 1.245 . S
O33 Tb20 2.343 . S
O33 Tb22 2.596 . S
O33 C28 1.259 . S
O34 Tb22 2.374 . S
O34 C29 1.250 . S
O35 Tb20 2.353 . S
O35 C29 1.263 . S
C36 O37 1.275 . S
C36 O38 1.246 . S
O37 Tb20 2.427 . S
O37 C36 1.275 . S
O38 Tb20 2.513 . S
O38 C36 1.246 . S
C39 O23 1.245 . S
C39 O24 1.259 . S
Tb40 O43 2.453 . S
Tb40 O44 2.596 . S
Tb40 O45 2.374 . S
Tb40 O53 2.343 . S
Tb40 O55 2.353 . S
Tb40 O57 2.427 . S
Tb40 O58 2.513 . S
C41 O45 1.251 . S
C41 O47 1.263 . S
Tb42 O44 2.343 . S
Tb42 O47 2.353 . S
Tb42 O50 2.427 . S
Tb42 O51 2.513 . S
Tb42 O52 2.453 . S
Tb42 O53 2.596 . S
Tb42 O54 2.374 . S
O43 Tb40 2.453 . S
O43 C59 1.245 . S
O44 Tb40 2.596 . S
O44 Tb42 2.343 . S
O44 C59 1.259 . S
O45 Tb40 2.374 . S
O45 C41 1.251 . S
C46 O50 1.275 . S
C46 O51 1.246 . S
O47 C41 1.263 . S
O47 Tb42 2.353 . S
C48 O52 1.245 . S
C48 O53 1.259 . S
C49 O54 1.250 . S
C49 O55 1.263 . S
O50 Tb42 2.427 . S
O50 C46 1.275 . S
O51 Tb42 2.513 . S
O51 C46 1.246 . S
O52 Tb42 2.453 . S
O52 C48 1.245 . S
O53 Tb40 2.343 . S
O53 Tb42 2.596 . S
O53 C48 1.259 . S
O54 Tb42 2.374 . S
O54 C49 1.250 . S
O55 Tb40 2.353 . S
O55 C49 1.263 . S
C56 O57 1.275 . S
C56 O58 1.246 . S
O57 Tb40 2.427 . S
O57 C56 1.275 . S
O58 Tb40 2.513 . S
O58 C56 1.246 . S
C59 O43 1.245 . S
C59 O44 1.259 . S
Tb60 O63 2.453 . S
Tb60 O64 2.595 . S
Tb60 O65 2.374 1_565 S
Tb60 O73 2.342 1_565 S
Tb60 O75 2.353 . S
Tb60 O77 2.427 . S
Tb60 O78 2.513 1_565 S
C61 O65 1.251 . S
C61 O67 1.263 . S
Tb62 O64 2.343 1_545 S
Tb62 O67 2.353 . S
Tb62 O70 2.427 . S
Tb62 O71 2.513 1_545 S
Tb62 O72 2.453 . S
Tb62 O73 2.597 . S
Tb62 O74 2.374 1_545 S
O63 Tb60 2.453 . S
O63 C79 1.265 . S
O64 Tb60 2.595 . S
O64 Tb62 2.343 1_565 S
O64 C79 1.258 . S
O65 Tb60 2.374 1_545 S
O65 C61 1.251 . S
C66 O70 1.275 . S
C66 O71 1.246 1_545 S
O67 C61 1.263 . S
O67 Tb62 2.353 . S
C68 O72 1.245 . S
C68 O73 1.260 . S
C69 O74 1.250 . S
C69 O75 1.263 . S
O70 Tb62 2.427 . S
O70 C66 1.275 . S
O71 Tb62 2.513 1_565 S
O71 C66 1.246 1_565 S
O72 Tb62 2.453 . S
O72 C68 1.245 . S
O73 Tb60 2.342 1_545 S
O73 Tb62 2.597 . S
O73 C68 1.260 . S
O74 Tb62 2.374 1_565 S
O74 C69 1.250 . S
O75 Tb60 2.353 . S
O75 C69 1.263 . S
C76 O77 1.275 . S
C76 O78 1.246 1_565 S
O77 Tb60 2.427 . S
O77 C76 1.275 . S
O78 Tb60 2.513 1_545 S
O78 C76 1.246 1_545 S
C79 O63 1.265 . S
C79 O64 1.258 . S
Tb80 O83 2.453 . S
Tb80 O84 2.597 . S
Tb80 O85 2.374 1_565 S
Tb80 O93 2.343 1_565 S
Tb80 O95 2.353 . S
Tb80 O97 2.427 . S
Tb80 O98 2.513 1_565 S
C81 O85 1.251 . S
C81 O87 1.263 . S
Tb82 O84 2.342 1_545 S
Tb82 O87 2.353 . S
Tb82 O90 2.427 . S
Tb82 O91 2.513 1_545 S
Tb82 O92 2.453 . S
Tb82 O93 2.595 . S
Tb82 O94 2.374 1_545 S
O83 Tb80 2.453 . S
O83 C99 1.245 . S
O84 Tb80 2.597 . S
O84 Tb82 2.342 1_565 S
O84 C99 1.260 . S
O85 Tb80 2.374 1_545 S
O85 C81 1.251 . S
C86 O90 1.275 . S
C86 O91 1.246 1_545 S
O87 C81 1.263 . S
O87 Tb82 2.353 . S
C88 O92 1.265 . S
C88 O93 1.258 . S
C89 O94 1.250 . S
C89 O95 1.263 . S
O90 Tb82 2.427 . S
O90 C86 1.275 . S
O91 Tb82 2.513 1_565 S
O91 C86 1.246 1_565 S
O92 Tb82 2.453 . S
O92 C88 1.265 . S
O93 Tb80 2.343 1_545 S
O93 Tb82 2.595 . S
O93 C88 1.258 . S
O94 Tb82 2.374 1_565 S
O94 C89 1.250 . S
O95 Tb80 2.353 . S
O95 C89 1.263 . S
C96 O97 1.275 . S
C96 O98 1.246 1_565 S
O97 Tb80 2.427 . S
O97 C96 1.275 . S
O98 Tb80 2.513 1_545 S
O98 C96 1.246 1_545 S
C99 O83 1.245 . S
C99 O84 1.260 . S
Tb100 O103 2.453 . S
Tb100 O104 2.596 . S
Tb100 O105 2.374 . S
Tb100 O113 2.343 . S
Tb100 O115 2.353 . S
Tb100 O117 2.427 . S
Tb100 O118 2.513 . S
C101 O105 1.251 . S
C101 O107 1.263 . S
Tb102 O104 2.343 . S
Tb102 O107 2.353 . S
Tb102 O110 2.427 . S
Tb102 O111 2.513 . S
Tb102 O112 2.453 . S
Tb102 O113 2.596 . S
Tb102 O114 2.374 . S
O103 Tb100 2.453 . S
O103 C119 1.245 . S
O104 Tb100 2.596 . S
O104 Tb102 2.343 . S
O104 C119 1.259 . S
O105 Tb100 2.374 . S
O105 C101 1.251 . S
C106 O110 1.275 . S
C106 O111 1.246 . S
O107 C101 1.263 . S
O107 Tb102 2.353 . S
C108 O112 1.245 . S
C108 O113 1.259 . S
C109 O114 1.250 . S
C109 O115 1.263 . S
O110 Tb102 2.427 . S
O110 C106 1.275 . S
O111 Tb102 2.513 . S
O111 C106 1.246 . S
O112 Tb102 2.453 . S
O112 C108 1.245 . S
O113 Tb100 2.343 . S
O113 Tb102 2.596 . S
O113 C108 1.259 . S
O114 Tb102 2.374 . S
O114 C109 1.250 . S
O115 Tb100 2.353 . S
O115 C109 1.263 . S
C116 O117 1.275 . S
C116 O118 1.246 . S
O117 Tb100 2.427 . S
O117 C116 1.275 . S
O118 Tb100 2.513 . S
O118 C116 1.246 . S
C119 O103 1.245 . S
C119 O104 1.259 . S
Tb120 O123 2.453 . S
Tb120 O124 2.596 . S
Tb120 O125 2.374 . S
Tb120 O133 2.343 . S
Tb120 O135 2.353 . S
Tb120 O137 2.427 . S
Tb120 O138 2.513 . S
C121 O125 1.251 . S
C121 O127 1.263 . S
Tb122 O124 2.343 . S
Tb122 O127 2.353 . S
Tb122 O130 2.427 . S
Tb122 O131 2.513 . S
Tb122 O132 2.453 . S
Tb122 O133 2.596 . S
Tb122 O134 2.374 . S
O123 Tb120 2.453 . S
O123 C139 1.245 . S
O124 Tb120 2.596 . S
O124 Tb122 2.343 . S
O124 C139 1.259 . S
O125 Tb120 2.374 . S
O125 C121 1.251 . S
C126 O130 1.275 . S
C126 O131 1.246 . S
O127 C121 1.263 . S
O127 Tb122 2.353 . S
C128 O132 1.245 . S
C128 O133 1.259 . S
C129 O134 1.250 . S
C129 O135 1.263 . S
O130 Tb122 2.427 . S
O130 C126 1.275 . S
O131 Tb122 2.513 . S
O131 C126 1.246 . S
O132 Tb122 2.453 . S
O132 C128 1.245 . S
O133 Tb120 2.343 . S
O133 Tb122 2.596 . S
O133 C128 1.259 . S
O134 Tb122 2.374 . S
O134 C129 1.250 . S
O135 Tb120 2.353 . S
O135 C129 1.263 . S
C136 O137 1.275 . S
C136 O138 1.246 . S
O137 Tb120 2.427 . S
O137 C136 1.275 . S
O138 Tb120 2.513 . S
O138 C136 1.246 . S
C139 O123 1.245 . S
C139 O124 1.259 . S
Tb140 O143 2.453 . S
Tb140 O144 2.597 . S
Tb140 O145 2.374 1_565 S
Tb140 O153 2.343 1_565 S
Tb140 O155 2.353 . S
Tb140 O157 2.427 . S
Tb140 O158 2.513 1_565 S
C141 O145 1.251 . S
C141 O147 1.263 . S
Tb142 O144 2.342 1_545 S
Tb142 O147 2.353 . S
Tb142 O150 2.427 . S
Tb142 O151 2.513 1_545 S
Tb142 O152 2.453 . S
Tb142 O153 2.595 . S
Tb142 O154 2.374 1_545 S
O143 Tb140 2.453 . S
O143 C159 1.245 . S
O144 Tb140 2.597 . S
O144 Tb142 2.342 1_565 S
O144 C159 1.260 . S
O145 Tb140 2.374 1_545 S
O145 C141 1.251 . S
C146 O150 1.275 . S
C146 O151 1.246 1_545 S
O147 C141 1.263 . S
O147 Tb142 2.353 . S
C148 O152 1.265 . S
C148 O153 1.258 . S
C149 O154 1.250 . S
C149 O155 1.263 . S
O150 Tb142 2.427 . S
O150 C146 1.275 . S
O151 Tb142 2.513 1_565 S
O151 C146 1.246 1_565 S
O152 Tb142 2.453 . S
O152 C148 1.265 . S
O153 Tb140 2.343 1_545 S
O153 Tb142 2.595 . S
O153 C148 1.258 . S
O154 Tb142 2.374 1_565 S
O154 C149 1.250 . S
O155 Tb140 2.353 . S
O155 C149 1.263 . S
C156 O157 1.275 . S
C156 O158 1.246 1_565 S
O157 Tb140 2.427 . S
O157 C156 1.275 . S
O158 Tb140 2.513 1_545 S
O158 C156 1.246 1_545 S
C159 O143 1.245 . S
C159 O144 1.260 . S
Tb160 O163 2.453 . S
Tb160 O164 2.596 . S
Tb160 O165 2.374 . S
Tb160 O173 2.343 . S
Tb160 O175 2.353 . S
Tb160 O177 2.427 . S
Tb160 O178 2.513 . S
C161 O165 1.251 . S
C161 O167 1.263 . S
Tb162 O164 2.343 . S
Tb162 O167 2.353 . S
Tb162 O170 2.427 . S
Tb162 O171 2.513 . S
Tb162 O172 2.453 . S
Tb162 O173 2.596 . S
Tb162 O174 2.374 . S
O163 Tb160 2.453 . S
O163 C179 1.245 . S
O164 Tb160 2.596 . S
O164 Tb162 2.343 . S
O164 C179 1.259 . S
O165 Tb160 2.374 . S
O165 C161 1.251 . S
C166 O170 1.275 . S
C166 O171 1.246 . S
O167 C161 1.263 . S
O167 Tb162 2.353 . S
C168 O172 1.245 . S
C168 O173 1.259 . S
C169 O174 1.250 . S
C169 O175 1.263 . S
O170 Tb162 2.427 . S
O170 C166 1.275 . S
O171 Tb162 2.513 . S
O171 C166 1.246 . S
O172 Tb162 2.453 . S
O172 C168 1.245 . S
O173 Tb160 2.343 . S
O173 Tb162 2.596 . S
O173 C168 1.259 . S
O174 Tb162 2.374 . S
O174 C169 1.250 . S
O175 Tb160 2.353 . S
O175 C169 1.263 . S
C176 O177 1.275 . S
C176 O178 1.246 . S
O177 Tb160 2.427 . S
O177 C176 1.275 . S
O178 Tb160 2.513 . S
O178 C176 1.246 . S
C179 O163 1.245 . S
C179 O164 1.259 . S
Tb180 O183 2.453 . S
Tb180 O184 2.596 . S
Tb180 O185 2.374 . S
Tb180 O193 2.343 . S
Tb180 O195 2.353 . S
Tb180 O197 2.427 . S
Tb180 O198 2.513 . S
C181 O185 1.251 . S
C181 O187 1.263 . S
Tb182 O184 2.343 . S
Tb182 O187 2.353 . S
Tb182 O190 2.427 . S
Tb182 O191 2.513 . S
Tb182 O192 2.453 . S
Tb182 O193 2.596 . S
Tb182 O194 2.374 . S
O183 Tb180 2.453 . S
O183 C199 1.245 . S
O184 Tb180 2.596 . S
O184 Tb182 2.343 . S
O184 C199 1.259 . S
O185 Tb180 2.374 . S
O185 C181 1.251 . S
C186 O190 1.275 . S
C186 O191 1.246 . S
O187 C181 1.263 . S
O187 Tb182 2.353 . S
C188 O192 1.245 . S
C188 O193 1.259 . S
C189 O194 1.250 . S
C189 O195 1.263 . S
O190 Tb182 2.427 . S
O190 C186 1.275 . S
O191 Tb182 2.513 . S
O191 C186 1.246 . S
O192 Tb182 2.453 . S
O192 C188 1.245 . S
O193 Tb180 2.343 . S
O193 Tb182 2.596 . S
O193 C188 1.259 . S
O194 Tb182 2.374 . S
O194 C189 1.250 . S
O195 Tb180 2.353 . S
O195 C189 1.263 . S
C196 O197 1.275 . S
C196 O198 1.246 . S
O197 Tb180 2.427 . S
O197 C196 1.275 . S
O198 Tb180 2.513 . S
O198 C196 1.246 . S
C199 O183 1.245 . S
C199 O184 1.259 . S
Tb200 O203 2.453 . S
Tb200 O204 2.596 . S
Tb200 O205 2.374 . S
Tb200 O213 2.343 . S
Tb200 O215 2.353 . S
Tb200 O217 2.427 . S
Tb200 O218 2.513 . S
C201 O205 1.251 . S
C201 O207 1.263 . S
Tb202 O204 2.343 . S
Tb202 O207 2.353 . S
Tb202 O210 2.427 . S
Tb202 O211 2.513 . S
Tb202 O212 2.453 . S
Tb202 O213 2.596 . S
Tb202 O214 2.374 . S
O203 Tb200 2.453 . S
O203 C219 1.245 . S
O204 Tb200 2.596 . S
O204 Tb202 2.343 . S
O204 C219 1.259 . S
O205 Tb200 2.374 . S
O205 C201 1.251 . S
C206 O210 1.275 . S
C206 O211 1.246 . S
O207 C201 1.263 . S
O207 Tb202 2.353 . S
C208 O212 1.245 . S
C208 O213 1.259 . S
C209 O214 1.250 . S
C209 O215 1.263 . S
O210 Tb202 2.427 . S
O210 C206 1.275 . S
O211 Tb202 2.513 . S
O211 C206 1.246 . S
O212 Tb202 2.453 . S
O212 C208 1.245 . S
O213 Tb200 2.343 . S
O213 Tb202 2.596 . S
O213 C208 1.259 . S
O214 Tb202 2.374 . S
O214 C209 1.250 . S
O215 Tb200 2.353 . S
O215 C209 1.263 . S
C216 O217 1.275 . S
C216 O218 1.246 . S
O217 Tb200 2.427 . S
O217 C216 1.275 . S
O218 Tb200 2.513 . S
O218 C216 1.246 . S
C219 O203 1.245 . S
C219 O204 1.259 . S
Tb220 O223 2.453 . S
Tb220 O224 2.596 . S
Tb220 O225 2.374 . S
Tb220 O233 2.343 . S
Tb220 O235 2.353 . S
Tb220 O237 2.427 . S
Tb220 O238 2.513 . S
C221 O225 1.251 . S
C221 O227 1.263 . S
Tb222 O224 2.343 . S
Tb222 O227 2.353 . S
Tb222 O230 2.427 . S
Tb222 O231 2.513 . S
Tb222 O232 2.453 . S
Tb222 O233 2.596 . S
Tb222 O234 2.374 . S
O223 Tb220 2.453 . S
O223 C239 1.245 . S
O224 Tb220 2.596 . S
O224 Tb222 2.343 . S
O224 C239 1.259 . S
O225 Tb220 2.374 . S
O225 C221 1.251 . S
C226 O230 1.275 . S
C226 O231 1.246 . S
O227 C221 1.263 . S
O227 Tb222 2.353 . S
C228 O232 1.245 . S
C228 O233 1.259 . S
C229 O234 1.250 . S
C229 O235 1.263 . S
O230 Tb222 2.427 . S
O230 C226 1.275 . S
O231 Tb222 2.513 . S
O231 C226 1.246 . S
O232 Tb222 2.453 . S
O232 C228 1.245 . S
O233 Tb220 2.343 . S
O233 Tb222 2.596 . S
O233 C228 1.259 . S
O234 Tb222 2.374 . S
O234 C229 1.250 . S
O235 Tb220 2.353 . S
O235 C229 1.263 . S
C236 O237 1.275 . S
C236 O238 1.246 . S
O237 Tb220 2.427 . S
O237 C236 1.275 . S
O238 Tb220 2.513 . S
O238 C236 1.246 . S
C239 O223 1.245 . S
C239 O224 1.259 . S
Tb240 O243 2.453 . S
Tb240 O244 2.596 . S
Tb240 O245 2.374 . S
Tb240 O253 2.343 . S
Tb240 O255 2.353 . S
Tb240 O257 2.427 . S
Tb240 O258 2.513 . S
C241 O245 1.251 . S
C241 O247 1.263 . S
Tb242 O244 2.343 . S
Tb242 O247 2.353 . S
Tb242 O250 2.427 . S
Tb242 O251 2.513 . S
Tb242 O252 2.453 . S
Tb242 O253 2.596 . S
Tb242 O254 2.374 . S
O243 Tb240 2.453 . S
O243 C259 1.245 . S
O244 Tb240 2.596 . S
O244 Tb242 2.343 . S
O244 C259 1.259 . S
O245 Tb240 2.374 . S
O245 C241 1.251 . S
C246 O250 1.275 . S
C246 O251 1.246 . S
O247 C241 1.263 . S
O247 Tb242 2.353 . S
C248 O252 1.245 . S
C248 O253 1.259 . S
C249 O254 1.250 . S
C249 O255 1.263 . S
O250 Tb242 2.427 . S
O250 C246 1.275 . S
O251 Tb242 2.513 . S
O251 C246 1.246 . S
O252 Tb242 2.453 . S
O252 C248 1.245 . S
O253 Tb240 2.343 . S
O253 Tb242 2.596 . S
O253 C248 1.259 . S
O254 Tb242 2.374 . S
O254 C249 1.250 . S
O255 Tb240 2.353 . S
O255 C249 1.263 . S
C256 O257 1.275 . S
C256 O258 1.246 . S
O257 Tb240 2.427 . S
O257 C256 1.275 . S
O258 Tb240 2.513 . S
O258 C256 1.246 . S
C259 O243 1.245 . S
C259 O244 1.259 . S
Tb260 O263 2.453 . S
Tb260 O264 2.596 . S
Tb260 O265 2.374 . S
Tb260 O273 2.343 . S
Tb260 O275 2.353 . S
Tb260 O277 2.427 . S
Tb260 O278 2.513 . S
C261 O265 1.251 . S
C261 O267 1.263 . S
Tb262 O264 2.343 . S
Tb262 O267 2.353 . S
Tb262 O270 2.427 . S
Tb262 O271 2.513 . S
Tb262 O272 2.453 . S
Tb262 O273 2.596 . S
Tb262 O274 2.374 . S
O263 Tb260 2.453 . S
O263 C279 1.245 . S
O264 Tb260 2.596 . S
O264 Tb262 2.343 . S
O264 C279 1.259 . S
O265 Tb260 2.374 . S
O265 C261 1.251 . S
C266 O270 1.275 . S
C266 O271 1.246 . S
O267 C261 1.263 . S
O267 Tb262 2.353 . S
C268 O272 1.245 . S
C268 O273 1.259 . S
C269 O274 1.250 . S
C269 O275 1.263 . S
O270 Tb262 2.427 . S
O270 C266 1.275 . S
O271 Tb262 2.513 . S
O271 C266 1.246 . S
O272 Tb262 2.453 . S
O272 C268 1.245 . S
O273 Tb260 2.343 . S
O273 Tb262 2.596 . S
O273 C268 1.259 . S
O274 Tb262 2.374 . S
O274 C269 1.250 . S
O275 Tb260 2.353 . S
O275 C269 1.263 . S
C276 O277 1.275 . S
C276 O278 1.246 . S
O277 Tb260 2.427 . S
O277 C276 1.275 . S
O278 Tb260 2.513 . S
O278 C276 1.246 . S
C279 O263 1.245 . S
C279 O264 1.259 . S
Tb280 O283 2.453 . S
Tb280 O284 2.596 . S
Tb280 O285 2.374 . S
Tb280 O293 2.343 . S
Tb280 O295 2.353 . S
Tb280 O297 2.427 . S
Tb280 O298 2.513 . S
C281 O285 1.251 . S
C281 O287 1.263 . S
Tb282 O284 2.343 . S
Tb282 O287 2.353 . S
Tb282 O290 2.427 . S
Tb282 O291 2.513 . S
Tb282 O292 2.453 . S
Tb282 O293 2.596 . S
Tb282 O294 2.374 . S
O283 Tb280 2.453 . S
O283 C299 1.245 . S
O284 Tb280 2.596 . S
O284 Tb282 2.343 . S
O284 C299 1.259 . S
O285 Tb280 2.374 . S
O285 C281 1.251 . S
C286 O290 1.275 . S
C286 O291 1.246 . S
O287 C281 1.263 . S
O287 Tb282 2.353 . S
C288 O292 1.245 . S
C288 O293 1.259 . S
C289 O294 1.250 . S
C289 O295 1.263 . S
O290 Tb282 2.427 . S
O290 C286 1.275 . S
O291 Tb282 2.513 . S
O291 C286 1.246 . S
O292 Tb282 2.453 . S
O292 C288 1.245 . S
O293 Tb280 2.343 . S
O293 Tb282 2.596 . S
O293 C288 1.259 . S
O294 Tb282 2.374 . S
O294 C289 1.250 . S
O295 Tb280 2.353 . S
O295 C289 1.263 . S
C296 O297 1.275 . S
C296 O298 1.246 . S
O297 Tb280 2.427 . S
O297 C296 1.275 . S
O298 Tb280 2.513 . S
O298 C296 1.246 . S
C299 O283 1.245 . S
C299 O284 1.259 . S
Tb300 O303 2.453 . S
Tb300 O304 2.596 . S
Tb300 O305 2.374 . S
Tb300 O313 2.343 . S
Tb300 O315 2.353 . S
Tb300 O317 2.427 . S
Tb300 O318 2.513 . S
C301 O305 1.251 . S
C301 O307 1.263 . S
Tb302 O304 2.343 . S
Tb302 O307 2.353 . S
Tb302 O310 2.427 . S
Tb302 O311 2.513 . S
Tb302 O312 2.453 . S
Tb302 O313 2.596 . S
Tb302 O314 2.374 . S
O303 Tb300 2.453 . S
O303 C319 1.245 . S
O304 Tb300 2.596 . S
O304 Tb302 2.343 . S
O304 C319 1.259 . S
O305 Tb300 2.374 . S
O305 C301 1.251 . S
C306 O310 1.275 . S
C306 O311 1.246 . S
O307 C301 1.263 . S
O307 Tb302 2.353 . S
C308 O312 1.245 . S
C308 O313 1.259 . S
C309 O314 1.250 . S
C309 O315 1.263 . S
O310 Tb302 2.427 . S
O310 C306 1.275 . S
O311 Tb302 2.513 . S
O311 C306 1.246 . S
O312 Tb302 2.453 . S
O312 C308 1.245 . S
O313 Tb300 2.343 . S
O313 Tb302 2.596 . S
O313 C308 1.259 . S
O314 Tb302 2.374 . S
O314 C309 1.250 . S
O315 Tb300 2.353 . S
O315 C309 1.263 . S
C316 O317 1.275 . S
C316 O318 1.246 . S
O317 Tb300 2.427 . S
O317 C316 1.275 . S
O318 Tb300 2.513 . S
O318 C316 1.246 . S
C319 O303 1.245 . S
C319 O304 1.259 . S
Tb320 O323 2.453 . S
Tb320 O324 2.595 . S
Tb320 O325 2.374 1_565 S
Tb320 O333 2.342 1_565 S
Tb320 O335 2.353 . S
Tb320 O337 2.427 . S
Tb320 O338 2.513 1_565 S
C321 O325 1.251 . S
C321 O327 1.263 . S
Tb322 O324 2.343 1_545 S
Tb322 O327 2.353 . S
Tb322 O330 2.427 . S
Tb322 O331 2.513 1_545 S
Tb322 O332 2.453 . S
Tb322 O333 2.597 . S
Tb322 O334 2.374 1_545 S
O323 Tb320 2.453 . S
O323 C339 1.265 . S
O324 Tb320 2.595 . S
O324 Tb322 2.343 1_565 S
O324 C339 1.258 . S
O325 Tb320 2.374 1_545 S
O325 C321 1.251 . S
C326 O330 1.275 . S
C326 O331 1.246 1_545 S
O327 C321 1.263 . S
O327 Tb322 2.353 . S
C328 O332 1.245 . S
C328 O333 1.260 . S
C329 O334 1.250 . S
C329 O335 1.263 . S
O330 Tb322 2.427 . S
O330 C326 1.275 . S
O331 Tb322 2.513 1_565 S
O331 C326 1.246 1_565 S
O332 Tb322 2.453 . S
O332 C328 1.245 . S
O333 Tb320 2.342 1_545 S
O333 Tb322 2.597 . S
O333 C328 1.260 . S
O334 Tb322 2.374 1_565 S
O334 C329 1.250 . S
O335 Tb320 2.353 . S
O335 C329 1.263 . S
C336 O337 1.275 . S
C336 O338 1.246 1_565 S
O337 Tb320 2.427 . S
O337 C336 1.275 . S
O338 Tb320 2.513 1_545 S
O338 C336 1.246 1_545 S
C339 O323 1.265 . S
C339 O324 1.258 . S
Tb340 O343 2.453 . S
Tb340 O344 2.596 . S
Tb340 O345 2.374 . S
Tb340 O353 2.343 . S
Tb340 O355 2.353 . S
Tb340 O357 2.427 . S
Tb340 O358 2.513 . S
C341 O345 1.251 . S
C341 O347 1.263 . S
Tb342 O344 2.343 . S
Tb342 O347 2.353 . S
Tb342 O350 2.427 . S
Tb342 O351 2.513 . S
Tb342 O352 2.453 . S
Tb342 O353 2.596 . S
Tb342 O354 2.374 . S
O343 Tb340 2.453 . S
O343 C359 1.245 . S
O344 Tb340 2.596 . S
O344 Tb342 2.343 . S
O344 C359 1.259 . S
O345 Tb340 2.374 . S
O345 C341 1.251 . S
C346 O350 1.275 . S
C346 O351 1.246 . S
O347 C341 1.263 . S
O347 Tb342 2.353 . S
C348 O352 1.245 . S
C348 O353 1.259 . S
C349 O354 1.250 . S
C349 O355 1.263 . S
O350 Tb342 2.427 . S
O350 C346 1.275 . S
O351 Tb342 2.513 . S
O351 C346 1.246 . S
O352 Tb342 2.453 . S
O352 C348 1.245 . S
O353 Tb340 2.343 . S
O353 Tb342 2.596 . S
O353 C348 1.259 . S
O354 Tb342 2.374 . S
O354 C349 1.250 . S
O355 Tb340 2.353 . S
O355 C349 1.263 . S
C356 O357 1.275 . S
C356 O358 1.246 . S
O357 Tb340 2.427 . S
O357 C356 1.275 . S
O358 Tb340 2.513 . S
O358 C356 1.246 . S
C359 O343 1.245 . S
C359 O344 1.259 . S
Tb360 O363 2.453 . S
Tb360 O364 2.596 . S
Tb360 O365 2.374 . S
Tb360 O373 2.343 . S
Tb360 O375 2.353 . S
Tb360 O377 2.427 . S
Tb360 O378 2.513 . S
C361 O365 1.251 . S
C361 O367 1.263 . S
Tb362 O364 2.343 . S
Tb362 O367 2.353 . S
Tb362 O370 2.427 . S
Tb362 O371 2.513 . S
Tb362 O372 2.453 . S
Tb362 O373 2.596 . S
Tb362 O374 2.374 . S
O363 Tb360 2.453 . S
O363 C379 1.245 . S
O364 Tb360 2.596 . S
O364 Tb362 2.343 . S
O364 C379 1.259 . S
O365 Tb360 2.374 . S
O365 C361 1.251 . S
C366 O370 1.275 . S
C366 O371 1.246 . S
O367 C361 1.263 . S
O367 Tb362 2.353 . S
C368 O372 1.245 . S
C368 O373 1.259 . S
C369 O374 1.250 . S
C369 O375 1.263 . S
O370 Tb362 2.427 . S
O370 C366 1.275 . S
O371 Tb362 2.513 . S
O371 C366 1.246 . S
O372 Tb362 2.453 . S
O372 C368 1.245 . S
O373 Tb360 2.343 . S
O373 Tb362 2.596 . S
O373 C368 1.259 . S
O374 Tb362 2.374 . S
O374 C369 1.250 . S
O375 Tb360 2.353 . S
O375 C369 1.263 . S
C376 O377 1.275 . S
C376 O378 1.246 . S
O377 Tb360 2.427 . S
O377 C376 1.275 . S
O378 Tb360 2.513 . S
O378 C376 1.246 . S
C379 O363 1.245 . S
C379 O364 1.259 . S
Tb380 O383 2.453 . S
Tb380 O384 2.595 . S
Tb380 O385 2.374 1_565 S
Tb380 O393 2.342 1_565 S
Tb380 O395 2.353 . S
Tb380 O397 2.427 . S
Tb380 O398 2.513 1_565 S
C381 O385 1.251 . S
C381 O387 1.263 . S
Tb382 O384 2.343 1_545 S
Tb382 O387 2.353 . S
Tb382 O390 2.427 . S
Tb382 O391 2.513 1_545 S
Tb382 O392 2.453 . S
Tb382 O393 2.597 . S
Tb382 O394 2.374 1_545 S
O383 Tb380 2.453 . S
O383 C399 1.265 . S
O384 Tb380 2.595 . S
O384 Tb382 2.343 1_565 S
O384 C399 1.258 . S
O385 Tb380 2.374 1_545 S
O385 C381 1.251 . S
C386 O390 1.275 . S
C386 O391 1.246 1_545 S
O387 C381 1.263 . S
O387 Tb382 2.353 . S
C388 O392 1.245 . S
C388 O393 1.260 . S
C389 O394 1.250 . S
C389 O395 1.263 . S
O390 Tb382 2.427 . S
O390 C386 1.275 . S
O391 Tb382 2.513 1_565 S
O391 C386 1.246 1_565 S
O392 Tb382 2.453 . S
O392 C388 1.245 . S
O393 Tb380 2.342 1_545 S
O393 Tb382 2.597 . S
O393 C388 1.260 . S
O394 Tb382 2.374 1_565 S
O394 C389 1.250 . S
O395 Tb380 2.353 . S
O395 C389 1.263 . S
C396 O397 1.275 . S
C396 O398 1.246 1_565 S
O397 Tb380 2.427 . S
O397 C396 1.275 . S
O398 Tb380 2.513 1_545 S
O398 C396 1.246 1_545 S
C399 O383 1.265 . S
C399 O384 1.258 . S
Tb400 O403 2.453 . S
Tb400 O404 2.597 . S
Tb400 O405 2.374 1_565 S
Tb400 O413 2.343 1_565 S
Tb400 O415 2.353 . S
Tb400 O417 2.427 . S
Tb400 O418 2.513 1_565 S
C401 O405 1.251 . S
C401 O407 1.263 . S
Tb402 O404 2.342 1_545 S
Tb402 O407 2.353 . S
Tb402 O410 2.427 . S
Tb402 O411 2.513 1_545 S
Tb402 O412 2.453 . S
Tb402 O413 2.595 . S
Tb402 O414 2.374 1_545 S
O403 Tb400 2.453 . S
O403 C419 1.245 . S
O404 Tb400 2.597 . S
O404 Tb402 2.342 1_565 S
O404 C419 1.260 . S
O405 Tb400 2.374 1_545 S
O405 C401 1.251 . S
C406 O410 1.275 . S
C406 O411 1.246 1_545 S
O407 C401 1.263 . S
O407 Tb402 2.353 . S
C408 O412 1.265 . S
C408 O413 1.258 . S
C409 O414 1.250 . S
C409 O415 1.263 . S
O410 Tb402 2.427 . S
O410 C406 1.275 . S
O411 Tb402 2.513 1_565 S
O411 C406 1.246 1_565 S
O412 Tb402 2.453 . S
O412 C408 1.265 . S
O413 Tb400 2.343 1_545 S
O413 Tb402 2.595 . S
O413 C408 1.258 . S
O414 Tb402 2.374 1_565 S
O414 C409 1.250 . S
O415 Tb400 2.353 . S
O415 C409 1.263 . S
C416 O417 1.275 . S
C416 O418 1.246 1_565 S
O417 Tb400 2.427 . S
O417 C416 1.275 . S
O418 Tb400 2.513 1_545 S
O418 C416 1.246 1_545 S
C419 O403 1.245 . S
C419 O404 1.260 . S
Tb420 O423 2.453 . S
Tb420 O424 2.596 . S
Tb420 O425 2.374 . S
Tb420 O433 2.343 . S
Tb420 O435 2.353 . S
Tb420 O437 2.427 . S
Tb420 O438 2.513 . S
C421 O425 1.251 . S
C421 O427 1.263 . S
Tb422 O424 2.343 . S
Tb422 O427 2.353 . S
Tb422 O430 2.427 . S
Tb422 O431 2.513 . S
Tb422 O432 2.453 . S
Tb422 O433 2.596 . S
Tb422 O434 2.374 . S
O423 Tb420 2.453 . S
O423 C439 1.245 . S
O424 Tb420 2.596 . S
O424 Tb422 2.343 . S
O424 C439 1.259 . S
O425 Tb420 2.374 . S
O425 C421 1.251 . S
C426 O430 1.275 . S
C426 O431 1.246 . S
O427 C421 1.263 . S
O427 Tb422 2.353 . S
C428 O432 1.245 . S
C428 O433 1.259 . S
C429 O434 1.250 . S
C429 O435 1.263 . S
O430 Tb422 2.427 . S
O430 C426 1.275 . S
O431 Tb422 2.513 . S
O431 C426 1.246 . S
O432 Tb422 2.453 . S
O432 C428 1.245 . S
O433 Tb420 2.343 . S
O433 Tb422 2.596 . S
O433 C428 1.259 . S
O434 Tb422 2.374 . S
O434 C429 1.250 . S
O435 Tb420 2.353 . S
O435 C429 1.263 . S
C436 O437 1.275 . S
C436 O438 1.246 . S
O437 Tb420 2.427 . S
O437 C436 1.275 . S
O438 Tb420 2.513 . S
O438 C436 1.246 . S
C439 O423 1.245 . S
C439 O424 1.259 . S
Tb440 O443 2.453 . S
Tb440 O444 2.596 . S
Tb440 O445 2.374 . S
Tb440 O453 2.343 . S
Tb440 O455 2.353 . S
Tb440 O457 2.427 . S
Tb440 O458 2.513 . S
C441 O445 1.251 . S
C441 O447 1.263 . S
Tb442 O444 2.343 . S
Tb442 O447 2.353 . S
Tb442 O450 2.427 . S
Tb442 O451 2.513 . S
Tb442 O452 2.453 . S
Tb442 O453 2.596 . S
Tb442 O454 2.374 . S
O443 Tb440 2.453 . S
O443 C459 1.245 . S
O444 Tb440 2.596 . S
O444 Tb442 2.343 . S
O444 C459 1.259 . S
O445 Tb440 2.374 . S
O445 C441 1.251 . S
C446 O450 1.275 . S
C446 O451 1.246 . S
O447 C441 1.263 . S
O447 Tb442 2.353 . S
C448 O452 1.245 . S
C448 O453 1.259 . S
C449 O454 1.250 . S
C449 O455 1.263 . S
O450 Tb442 2.427 . S
O450 C446 1.275 . S
O451 Tb442 2.513 . S
O451 C446 1.246 . S
O452 Tb442 2.453 . S
O452 C448 1.245 . S
O453 Tb440 2.343 . S
O453 Tb442 2.596 . S
O453 C448 1.259 . S
O454 Tb442 2.374 . S
O454 C449 1.250 . S
O455 Tb440 2.353 . S
O455 C449 1.263 . S
C456 O457 1.275 . S
C456 O458 1.246 . S
O457 Tb440 2.427 . S
O457 C456 1.275 . S
O458 Tb440 2.513 . S
O458 C456 1.246 . S
C459 O443 1.245 . S
C459 O444 1.259 . S
Tb460 O463 2.453 . S
Tb460 O464 2.597 . S
Tb460 O465 2.374 1_565 S
Tb460 O473 2.343 1_565 S
Tb460 O475 2.353 . S
Tb460 O477 2.427 . S
Tb460 O478 2.513 1_565 S
C461 O465 1.251 . S
C461 O467 1.263 . S
Tb462 O464 2.342 1_545 S
Tb462 O467 2.353 . S
Tb462 O470 2.427 . S
Tb462 O471 2.513 1_545 S
Tb462 O472 2.453 . S
Tb462 O473 2.595 . S
Tb462 O474 2.374 1_545 S
O463 Tb460 2.453 . S
O463 C479 1.245 . S
O464 Tb460 2.597 . S
O464 Tb462 2.342 1_565 S
O464 C479 1.260 . S
O465 Tb460 2.374 1_545 S
O465 C461 1.251 . S
C466 O470 1.275 . S
C466 O471 1.246 1_545 S
O467 C461 1.263 . S
O467 Tb462 2.353 . S
C468 O472 1.265 . S
C468 O473 1.258 . S
C469 O474 1.250 . S
C469 O475 1.263 . S
O470 Tb462 2.427 . S
O470 C466 1.275 . S
O471 Tb462 2.513 1_565 S
O471 C466 1.246 1_565 S
O472 Tb462 2.453 . S
O472 C468 1.265 . S
O473 Tb460 2.343 1_545 S
O473 Tb462 2.595 . S
O473 C468 1.258 . S
O474 Tb462 2.374 1_565 S
O474 C469 1.250 . S
O475 Tb460 2.353 . S
O475 C469 1.263 . S
C476 O477 1.275 . S
C476 O478 1.246 1_565 S
O477 Tb460 2.427 . S
O477 C476 1.275 . S
O478 Tb460 2.513 1_545 S
O478 C476 1.246 1_545 S
C479 O463 1.245 . S
C479 O464 1.260 . S
Tb480 O483 2.453 . S
Tb480 O484 2.596 . S
Tb480 O485 2.374 . S
Tb480 O493 2.343 . S
Tb480 O495 2.353 . S
Tb480 O497 2.427 . S
Tb480 O498 2.513 . S
C481 O485 1.251 . S
C481 O487 1.263 . S
Tb482 O484 2.343 . S
Tb482 O487 2.353 . S
Tb482 O490 2.427 . S
Tb482 O491 2.513 . S
Tb482 O492 2.453 . S
Tb482 O493 2.596 . S
Tb482 O494 2.374 . S
O483 Tb480 2.453 . S
O483 C499 1.245 . S
O484 Tb480 2.596 . S
O484 Tb482 2.343 . S
O484 C499 1.259 . S
O485 Tb480 2.374 . S
O485 C481 1.251 . S
C486 O490 1.275 . S
C486 O491 1.246 . S
O487 C481 1.263 . S
O487 Tb482 2.353 . S
C488 O492 1.245 . S
C488 O493 1.259 . S
C489 O494 1.250 . S
C489 O495 1.263 . S
O490 Tb482 2.427 . S
O490 C486 1.275 . S
O491 Tb482 2.513 . S
O491 C486 1.246 . S
O492 Tb482 2.453 . S
O492 C488 1.245 . S
O493 Tb480 2.343 . S
O493 Tb482 2.596 . S
O493 C488 1.259 . S
O494 Tb482 2.374 . S
O494 C489 1.250 . S
O495 Tb480 2.353 . S
O495 C489 1.263 . S
C496 O497 1.275 . S
C496 O498 1.246 . S
O497 Tb480 2.427 . S
O497 C496 1.275 . S
O498 Tb480 2.513 . S
O498 C496 1.246 . S
C499 O483 1.245 . S
C499 O484 1.259 . S
Tb500 O503 2.453 . S
Tb500 O504 2.596 . S
Tb500 O505 2.374 . S
Tb500 O513 2.343 . S
Tb500 O515 2.353 . S
Tb500 O517 2.427 . S
Tb500 O518 2.513 . S
C501 O505 1.251 . S
C501 O507 1.263 . S
Tb502 O504 2.343 . S
Tb502 O507 2.353 . S
Tb502 O510 2.427 . S
Tb502 O511 2.513 . S
Tb502 O512 2.453 . S
Tb502 O513 2.596 . S
Tb502 O514 2.374 . S
O503 Tb500 2.453 . S
O503 C519 1.245 . S
O504 Tb500 2.596 . S
O504 Tb502 2.343 . S
O504 C519 1.259 . S
O505 Tb500 2.374 . S
O505 C501 1.251 . S
C506 O510 1.275 . S
C506 O511 1.246 . S
O507 C501 1.263 . S
O507 Tb502 2.353 . S
C508 O512 1.245 . S
C508 O513 1.259 . S
C509 O514 1.250 . S
C509 O515 1.263 . S
O510 Tb502 2.427 . S
O510 C506 1.275 . S
O511 Tb502 2.513 . S
O511 C506 1.246 . S
O512 Tb502 2.453 . S
O512 C508 1.245 . S
O513 Tb500 2.343 . S
O513 Tb502 2.596 . S
O513 C508 1.259 . S
O514 Tb502 2.374 . S
O514 C509 1.250 . S
O515 Tb500 2.353 . S
O515 C509 1.263 . S
C516 O517 1.275 . S
C516 O518 1.246 . S
O517 Tb500 2.427 . S
O517 C516 1.275 . S
O518 Tb500 2.513 . S
O518 C516 1.246 . S
C519 O503 1.245 . S
C519 O504 1.259 . S
Tb520 O523 2.453 . S
Tb520 O524 2.596 . S
Tb520 O525 2.374 . S
Tb520 O533 2.343 . S
Tb520 O535 2.353 . S
Tb520 O537 2.427 . S
Tb520 O538 2.513 . S
C521 O525 1.251 . S
C521 O527 1.263 . S
Tb522 O524 2.343 . S
Tb522 O527 2.353 . S
Tb522 O530 2.427 . S
Tb522 O531 2.513 . S
Tb522 O532 2.453 . S
Tb522 O533 2.596 . S
Tb522 O534 2.374 . S
O523 Tb520 2.453 . S
O523 C539 1.245 . S
O524 Tb520 2.596 . S
O524 Tb522 2.343 . S
O524 C539 1.259 . S
O525 Tb520 2.374 . S
O525 C521 1.251 . S
C526 O530 1.275 . S
C526 O531 1.246 . S
O527 C521 1.263 . S
O527 Tb522 2.353 . S
C528 O532 1.245 . S
C528 O533 1.259 . S
C529 O534 1.250 . S
C529 O535 1.263 . S
O530 Tb522 2.427 . S
O530 C526 1.275 . S
O531 Tb522 2.513 . S
O531 C526 1.246 . S
O532 Tb522 2.453 . S
O532 C528 1.245 . S
O533 Tb520 2.343 . S
O533 Tb522 2.596 . S
O533 C528 1.259 . S
O534 Tb522 2.374 . S
O534 C529 1.250 . S
O535 Tb520 2.353 . S
O535 C529 1.263 . S
C536 O537 1.275 . S
C536 O538 1.246 . S
O537 Tb520 2.427 . S
O537 C536 1.275 . S
O538 Tb520 2.513 . S
O538 C536 1.246 . S
C539 O523 1.245 . S
C539 O524 1.259 . S
Tb540 O543 2.453 . S
Tb540 O544 2.596 . S
Tb540 O545 2.374 . S
Tb540 O553 2.343 . S
Tb540 O555 2.353 . S
Tb540 O557 2.427 . S
Tb540 O558 2.513 . S
C541 O545 1.251 . S
C541 O547 1.263 . S
Tb542 O544 2.343 . S
Tb542 O547 2.353 . S
Tb542 O550 2.427 . S
Tb542 O551 2.513 . S
Tb542 O552 2.453 . S
Tb542 O553 2.596 . S
Tb542 O554 2.374 . S
O543 Tb540 2.453 . S
O543 C559 1.245 . S
O544 Tb540 2.596 . S
O544 Tb542 2.343 . S
O544 C559 1.259 . S
O545 Tb540 2.374 . S
O545 C541 1.251 . S
C546 O550 1.275 . S
C546 O551 1.246 . S
O547 C541 1.263 . S
O547 Tb542 2.353 . S
C548 O552 1.245 . S
C548 O553 1.259 . S
C549 O554 1.250 . S
C549 O555 1.263 . S
O550 Tb542 2.427 . S
O550 C546 1.275 . S
O551 Tb542 2.513 . S
O551 C546 1.246 . S
O552 Tb542 2.453 . S
O552 C548 1.245 . S
O553 Tb540 2.343 . S
O553 Tb542 2.596 . S
O553 C548 1.259 . S
O554 Tb542 2.374 . S
O554 C549 1.250 . S
O555 Tb540 2.353 . S
O555 C549 1.263 . S
C556 O557 1.275 . S
C556 O558 1.246 . S
O557 Tb540 2.427 . S
O557 C556 1.275 . S
O558 Tb540 2.513 . S
O558 C556 1.246 . S
C559 O543 1.245 . S
C559 O544 1.259 . S
Tb560 O563 2.453 . S
Tb560 O564 2.596 . S
Tb560 O565 2.374 . S
Tb560 O573 2.343 . S
Tb560 O575 2.353 . S
Tb560 O577 2.427 . S
Tb560 O578 2.513 . S
C561 O565 1.251 . S
C561 O567 1.263 . S
Tb562 O564 2.343 . S
Tb562 O567 2.353 . S
Tb562 O570 2.427 . S
Tb562 O571 2.513 . S
Tb562 O572 2.453 . S
Tb562 O573 2.596 . S
Tb562 O574 2.374 . S
O563 Tb560 2.453 . S
O563 C579 1.245 . S
O564 Tb560 2.596 . S
O564 Tb562 2.343 . S
O564 C579 1.259 . S
O565 Tb560 2.374 . S
O565 C561 1.251 . S
C566 O570 1.275 . S
C566 O571 1.246 . S
O567 C561 1.263 . S
O567 Tb562 2.353 . S
C568 O572 1.245 . S
C568 O573 1.259 . S
C569 O574 1.250 . S
C569 O575 1.263 . S
O570 Tb562 2.427 . S
O570 C566 1.275 . S
O571 Tb562 2.513 . S
O571 C566 1.246 . S
O572 Tb562 2.453 . S
O572 C568 1.245 . S
O573 Tb560 2.343 . S
O573 Tb562 2.596 . S
O573 C568 1.259 . S
O574 Tb562 2.374 . S
O574 C569 1.250 . S
O575 Tb560 2.353 . S
O575 C569 1.263 . S
C576 O577 1.275 . S
C576 O578 1.246 . S
O577 Tb560 2.427 . S
O577 C576 1.275 . S
O578 Tb560 2.513 . S
O578 C576 1.246 . S
C579 O563 1.245 . S
C579 O564 1.259 . S
Tb580 O583 2.453 . S
Tb580 O584 2.596 . S
Tb580 O585 2.374 . S
Tb580 O593 2.343 . S
Tb580 O595 2.353 . S
Tb580 O597 2.427 . S
Tb580 O598 2.513 . S
C581 O585 1.251 . S
C581 O587 1.263 . S
Tb582 O584 2.343 . S
Tb582 O587 2.353 . S
Tb582 O590 2.427 . S
Tb582 O591 2.513 . S
Tb582 O592 2.453 . S
Tb582 O593 2.596 . S
Tb582 O594 2.374 . S
O583 Tb580 2.453 . S
O583 C599 1.245 . S
O584 Tb580 2.596 . S
O584 Tb582 2.343 . S
O584 C599 1.259 . S
O585 Tb580 2.374 . S
O585 C581 1.251 . S
C586 O590 1.275 . S
C586 O591 1.246 . S
O587 C581 1.263 . S
O587 Tb582 2.353 . S
C588 O592 1.245 . S
C588 O593 1.259 . S
C589 O594 1.250 . S
C589 O595 1.263 . S
O590 Tb582 2.427 . S
O590 C586 1.275 . S
O591 Tb582 2.513 . S
O591 C586 1.246 . S
O592 Tb582 2.453 . S
O592 C588 1.245 . S
O593 Tb580 2.343 . S
O593 Tb582 2.596 . S
O593 C588 1.259 . S
O594 Tb582 2.374 . S
O594 C589 1.250 . S
O595 Tb580 2.353 . S
O595 C589 1.263 . S
C596 O597 1.275 . S
C596 O598 1.246 . S
O597 Tb580 2.427 . S
O597 C596 1.275 . S
O598 Tb580 2.513 . S
O598 C596 1.246 . S
C599 O583 1.245 . S
C599 O584 1.259 . S
Tb600 O603 2.453 . S
Tb600 O604 2.596 . S
Tb600 O605 2.374 . S
Tb600 O613 2.343 . S
Tb600 O615 2.353 . S
Tb600 O617 2.427 . S
Tb600 O618 2.513 . S
C601 O605 1.251 . S
C601 O607 1.263 . S
Tb602 O604 2.343 . S
Tb602 O607 2.353 . S
Tb602 O610 2.427 . S
Tb602 O611 2.513 . S
Tb602 O612 2.453 . S
Tb602 O613 2.596 . S
Tb602 O614 2.374 . S
O603 Tb600 2.453 . S
O603 C619 1.245 . S
O604 Tb600 2.596 . S
O604 Tb602 2.343 . S
O604 C619 1.259 . S
O605 Tb600 2.374 . S
O605 C601 1.251 . S
C606 O610 1.275 . S
C606 O611 1.246 . S
O607 C601 1.263 . S
O607 Tb602 2.353 . S
C608 O612 1.245 . S
C608 O613 1.259 . S
C609 O614 1.250 . S
C609 O615 1.263 . S
O610 Tb602 2.427 . S
O610 C606 1.275 . S
O611 Tb602 2.513 . S
O611 C606 1.246 . S
O612 Tb602 2.453 . S
O612 C608 1.245 . S
O613 Tb600 2.343 . S
O613 Tb602 2.596 . S
O613 C608 1.259 . S
O614 Tb602 2.374 . S
O614 C609 1.250 . S
O615 Tb600 2.353 . S
O615 C609 1.263 . S
C616 O617 1.275 . S
C616 O618 1.246 . S
O617 Tb600 2.427 . S
O617 C616 1.275 . S
O618 Tb600 2.513 . S
O618 C616 1.246 . S
C619 O603 1.245 . S
C619 O604 1.259 . S
Tb620 O623 2.453 . S
Tb620 O624 2.596 . S
Tb620 O625 2.374 . S
Tb620 O633 2.343 . S
Tb620 O635 2.353 . S
Tb620 O637 2.427 . S
Tb620 O638 2.513 . S
C621 O625 1.251 . S
C621 O627 1.263 . S
Tb622 O624 2.343 . S
Tb622 O627 2.353 . S
Tb622 O630 2.427 . S
Tb622 O631 2.513 . S
Tb622 O632 2.453 . S
Tb622 O633 2.596 . S
Tb622 O634 2.374 . S
O623 Tb620 2.453 . S
O623 C639 1.245 . S
O624 Tb620 2.596 . S
O624 Tb622 2.343 . S
O624 C639 1.259 . S
O625 Tb620 2.374 . S
O625 C621 1.251 . S
C626 O630 1.275 . S
C626 O631 1.246 . S
O627 C621 1.263 . S
O627 Tb622 2.353 . S
C628 O632 1.245 . S
C628 O633 1.259 . S
C629 O634 1.250 . S
C629 O635 1.263 . S
O630 Tb622 2.427 . S
O630 C626 1.275 . S
O631 Tb622 2.513 . S
O631 C626 1.246 . S
O632 Tb622 2.453 . S
O632 C628 1.245 . S
O633 Tb620 2.343 . S
O633 Tb622 2.596 . S
O633 C628 1.259 . S
O634 Tb622 2.374 . S
O634 C629 1.250 . S
O635 Tb620 2.353 . S
O635 C629 1.263 . S
C636 O637 1.275 . S
C636 O638 1.246 . S
O637 Tb620 2.427 . S
O637 C636 1.275 . S
O638 Tb620 2.513 . S
O638 C636 1.246 . S
C639 O623 1.245 . S
C639 O624 1.259 . S
C640 C641 1.349 . S
C640 C642 1.327 . S
C640 H665 0.950 . S
C641 C640 1.349 . S
C641 C657 1.349 . S
C642 C640 1.327 . S
C642 C661 1.429 . S
C642 H666 0.950 . S
C643 C660 1.574 . S
C643 C662 1.368 . S
C643 H667 0.949 . S
H644 C648 0.949 . S
C645 C646 1.349 . S
C645 C647 1.327 . S
C645 H668 0.950 . S
C646 C645 1.349 . S
C646 C658 1.349 . S
C647 C645 1.327 . S
C647 C663 1.429 . S
C647 H669 0.950 . S
C648 H644 0.949 . S
C648 C656 1.574 . S
C648 C664 1.368 . S
H649 C657 0.950 . S
H650 C655 0.950 . S
H651 C656 0.949 . S
H652 C658 0.950 . S
H653 C659 0.950 . S
H654 C660 0.949 . S
C655 H650 0.950 . S
C655 C657 1.327 . S
C655 C661 1.429 . S
C656 C648 1.574 . S
C656 H651 0.949 . S
C656 C662 1.368 . S
C657 C641 1.349 . S
C657 H649 0.950 . S
C657 C655 1.327 . S
C658 C646 1.349 . S
C658 H652 0.950 . S
C658 C659 1.327 . S
C659 H653 0.950 . S
C659 C658 1.327 . S
C659 C663 1.429 . S
C660 C643 1.574 . S
C660 H654 0.949 . S
C660 C664 1.368 . S
C661 C642 1.429 . S
C661 C655 1.429 . S
C661 C662 1.523 . S
C662 C643 1.368 . S
C662 C656 1.368 . S
C662 C661 1.523 . S
C663 C647 1.429 . S
C663 C659 1.429 . S
C663 C664 1.523 . S
C664 C648 1.368 . S
C664 C660 1.368 . S
C664 C663 1.523 . S
H665 C640 0.950 . S
H666 C642 0.950 . S
H667 C643 0.949 . S
H668 C645 0.950 . S
H669 C647 0.950 . S
C670 C671 1.349 . S
C670 C672 1.327 . S
C670 H695 0.950 . S
C671 C670 1.349 . S
C671 C687 1.349 . S
C672 C670 1.327 . S
C672 C691 1.429 . S
C672 H696 0.950 . S
C673 C690 1.574 . S
C673 C692 1.368 . S
C673 H697 0.949 . S
H674 C678 0.949 . S
C675 C676 1.349 . S
C675 C677 1.327 . S
C675 H698 0.950 . S
C676 C675 1.349 . S
C676 C688 1.349 . S
C677 C675 1.327 . S
C677 C693 1.429 . S
C677 H699 0.950 . S
C678 H674 0.949 . S
C678 C686 1.574 . S
C678 C694 1.368 . S
H679 C687 0.950 . S
H680 C685 0.950 . S
H681 C686 0.949 . S
H682 C688 0.950 . S
H683 C689 0.950 . S
H684 C690 0.949 . S
C685 H680 0.950 . S
C685 C687 1.327 . S
C685 C691 1.429 . S
C686 C678 1.574 . S
C686 H681 0.949 . S
C686 C692 1.368 . S
C687 C671 1.349 . S
C687 H679 0.950 . S
C687 C685 1.327 . S
C688 C676 1.349 . S
C688 H682 0.950 . S
C688 C689 1.327 . S
C689 H683 0.950 . S
C689 C688 1.327 . S
C689 C693 1.429 . S
C690 C673 1.574 . S
C690 H684 0.949 . S
C690 C694 1.368 . S
C691 C672 1.429 . S
C691 C685 1.429 . S
C691 C692 1.523 . S
C692 C673 1.368 . S
C692 C686 1.368 . S
C692 C691 1.523 . S
C693 C677 1.429 . S
C693 C689 1.429 . S
C693 C694 1.523 . S
C694 C678 1.368 . S
C694 C690 1.368 . S
C694 C693 1.523 . S
H695 C670 0.950 . S
H696 C672 0.950 . S
H697 C673 0.949 . S
H698 C675 0.950 . S
H699 C677 0.950 . S
C700 C701 1.349 . S
C700 C702 1.327 . S
C700 H725 0.950 . S
C701 C700 1.349 . S
C701 C717 1.349 . S
C702 C700 1.327 . S
C702 C721 1.429 . S
C702 H726 0.950 . S
C703 C720 1.574 . S
C703 C722 1.368 . S
C703 H727 0.949 . S
H704 C708 0.949 . S
C705 C706 1.349 . S
C705 C707 1.327 . S
C705 H728 0.950 . S
C706 C705 1.349 . S
C706 C718 1.349 . S
C707 C705 1.327 . S
C707 C723 1.429 . S
C707 H729 0.950 . S
C708 H704 0.949 . S
C708 C716 1.574 . S
C708 C724 1.368 . S
H709 C717 0.950 . S
H710 C715 0.950 . S
H711 C716 0.949 . S
H712 C718 0.950 . S
H713 C719 0.950 . S
H714 C720 0.949 . S
C715 H710 0.950 . S
C715 C717 1.327 . S
C715 C721 1.429 . S
C716 C708 1.574 . S
C716 H711 0.949 . S
C716 C722 1.368 . S
C717 C701 1.349 . S
C717 H709 0.950 . S
C717 C715 1.327 . S
C718 C706 1.349 . S
C718 H712 0.950 . S
C718 C719 1.327 . S
C719 H713 0.950 . S
C719 C718 1.327 . S
C719 C723 1.429 . S
C720 C703 1.574 . S
C720 H714 0.949 . S
C720 C724 1.368 . S
C721 C702 1.429 . S
C721 C715 1.429 . S
C721 C722 1.523 . S
C722 C703 1.368 . S
C722 C716 1.368 . S
C722 C721 1.523 . S
C723 C707 1.429 . S
C723 C719 1.429 . S
C723 C724 1.523 . S
C724 C708 1.368 . S
C724 C720 1.368 . S
C724 C723 1.523 . S
H725 C700 0.950 . S
H726 C702 0.950 . S
H727 C703 0.949 . S
H728 C705 0.950 . S
H729 C707 0.950 . S
C730 C731 1.349 . S
C730 C732 1.327 . S
C730 H755 0.950 . S
C731 C730 1.349 . S
C731 C747 1.349 . S
C732 C730 1.327 . S
C732 C751 1.429 . S
C732 H756 0.950 . S
C733 C750 1.574 . S
C733 C752 1.368 . S
C733 H757 0.949 . S
H734 C738 0.949 . S
C735 C736 1.349 . S
C735 C737 1.327 . S
C735 H758 0.950 . S
C736 C735 1.349 . S
C736 C748 1.349 . S
C737 C735 1.327 . S
C737 C753 1.429 . S
C737 H759 0.950 . S
C738 H734 0.949 . S
C738 C746 1.574 . S
C738 C754 1.368 . S
H739 C747 0.950 . S
H740 C745 0.950 . S
H741 C746 0.949 . S
H742 C748 0.950 . S
H743 C749 0.950 . S
H744 C750 0.949 . S
C745 H740 0.950 . S
C745 C747 1.327 . S
C745 C751 1.429 . S
C746 C738 1.574 . S
C746 H741 0.949 . S
C746 C752 1.368 . S
C747 C731 1.349 . S
C747 H739 0.950 . S
C747 C745 1.327 . S
C748 C736 1.349 . S
C748 H742 0.950 . S
C748 C749 1.327 . S
C749 H743 0.950 . S
C749 C748 1.327 . S
C749 C753 1.429 . S
C750 C733 1.574 . S
C750 H744 0.949 . S
C750 C754 1.368 . S
C751 C732 1.429 . S
C751 C745 1.429 . S
C751 C752 1.523 . S
C752 C733 1.368 . S
C752 C746 1.368 . S
C752 C751 1.523 . S
C753 C737 1.429 . S
C753 C749 1.429 . S
C753 C754 1.523 . S
C754 C738 1.368 . S
C754 C750 1.368 . S
C754 C753 1.523 . S
H755 C730 0.950 . S
H756 C732 0.950 . S
H757 C733 0.949 . S
H758 C735 0.950 . S
H759 C737 0.950 . S
C760 C761 1.349 . S
C760 C762 1.327 . S
C760 H785 0.950 . S
C761 C760 1.349 . S
C761 C777 1.349 . S
C762 C760 1.327 . S
C762 C781 1.429 . S
C762 H786 0.950 . S
C763 C780 1.574 . S
C763 C782 1.368 . S
C763 H787 0.949 . S
H764 C768 0.949 . S
C765 C766 1.349 . S
C765 C767 1.327 . S
C765 H788 0.950 . S
C766 C765 1.349 . S
C766 C778 1.349 . S
C767 C765 1.327 . S
C767 C783 1.429 . S
C767 H789 0.950 . S
C768 H764 0.949 . S
C768 C776 1.574 . S
C768 C784 1.368 . S
H769 C777 0.950 . S
H770 C775 0.950 . S
H771 C776 0.949 . S
H772 C778 0.950 . S
H773 C779 0.950 . S
H774 C780 0.949 . S
C775 H770 0.950 . S
C775 C777 1.327 . S
C775 C781 1.429 . S
C776 C768 1.574 . S
C776 H771 0.949 . S
C776 C782 1.368 . S
C777 C761 1.349 . S
C777 H769 0.950 . S
C777 C775 1.327 . S
C778 C766 1.349 . S
C778 H772 0.950 . S
C778 C779 1.327 . S
C779 H773 0.950 . S
C779 C778 1.327 . S
C779 C783 1.429 . S
C780 C763 1.574 . S
C780 H774 0.949 . S
C780 C784 1.368 . S
C781 C762 1.429 . S
C781 C775 1.429 . S
C781 C782 1.523 . S
C782 C763 1.368 . S
C782 C776 1.368 . S
C782 C781 1.523 . S
C783 C767 1.429 . S
C783 C779 1.429 . S
C783 C784 1.523 . S
C784 C768 1.368 . S
C784 C780 1.368 . S
C784 C783 1.523 . S
H785 C760 0.950 . S
H786 C762 0.950 . S
H787 C763 0.949 . S
H788 C765 0.950 . S
H789 C767 0.950 . S
C790 C791 1.349 . S
C790 C792 1.327 . S
C790 H815 0.950 . S
C791 C790 1.349 . S
C791 C807 1.349 . S
C792 C790 1.327 . S
C792 C811 1.429 . S
C792 H816 0.950 . S
C793 C810 1.574 . S
C793 C812 1.368 . S
C793 H817 0.949 . S
H794 C798 0.949 . S
C795 C796 1.349 . S
C795 C797 1.327 . S
C795 H818 0.950 . S
C796 C795 1.349 . S
C796 C808 1.349 . S
C797 C795 1.327 . S
C797 C813 1.429 . S
C797 H819 0.950 . S
C798 H794 0.949 . S
C798 C806 1.574 . S
C798 C814 1.368 . S
H799 C807 0.950 . S
H800 C805 0.950 . S
H801 C806 0.949 . S
H802 C808 0.950 . S
H803 C809 0.950 . S
H804 C810 0.949 . S
C805 H800 0.950 . S
C805 C807 1.327 . S
C805 C811 1.429 . S
C806 C798 1.574 . S
C806 H801 0.949 . S
C806 C812 1.368 . S
C807 C791 1.349 . S
C807 H799 0.950 . S
C807 C805 1.327 . S
C808 C796 1.349 . S
C808 H802 0.950 . S
C808 C809 1.327 . S
C809 H803 0.950 . S
C809 C808 1.327 . S
C809 C813 1.429 . S
C810 C793 1.574 . S
C810 H804 0.949 . S
C810 C814 1.368 . S
C811 C792 1.429 . S
C811 C805 1.429 . S
C811 C812 1.523 . S
C812 C793 1.368 . S
C812 C806 1.368 . S
C812 C811 1.523 . S
C813 C797 1.429 . S
C813 C809 1.429 . S
C813 C814 1.523 . S
C814 C798 1.368 . S
C814 C810 1.368 . S
C814 C813 1.523 . S
H815 C790 0.950 . S
H816 C792 0.950 . S
H817 C793 0.949 . S
H818 C795 0.950 . S
H819 C797 0.950 . S
C820 C821 1.349 . S
C820 C822 1.327 . S
C820 H845 0.950 . S
C821 C820 1.349 . S
C821 C837 1.349 . S
C822 C820 1.327 . S
C822 C841 1.429 . S
C822 H846 0.950 . S
C823 C840 1.574 . S
C823 C842 1.368 . S
C823 H847 0.949 . S
H824 C828 0.949 . S
C825 C826 1.349 . S
C825 C827 1.327 . S
C825 H848 0.950 . S
C826 C825 1.349 . S
C826 C838 1.349 . S
C827 C825 1.327 . S
C827 C843 1.429 . S
C827 H849 0.950 . S
C828 H824 0.949 . S
C828 C836 1.574 . S
C828 C844 1.368 . S
H829 C837 0.950 . S
H830 C835 0.950 . S
H831 C836 0.949 . S
H832 C838 0.950 . S
H833 C839 0.950 . S
H834 C840 0.949 . S
C835 H830 0.950 . S
C835 C837 1.327 . S
C835 C841 1.429 . S
C836 C828 1.574 . S
C836 H831 0.949 . S
C836 C842 1.368 . S
C837 C821 1.349 . S
C837 H829 0.950 . S
C837 C835 1.327 . S
C838 C826 1.349 . S
C838 H832 0.950 . S
C838 C839 1.327 . S
C839 H833 0.950 . S
C839 C838 1.327 . S
C839 C843 1.429 . S
C840 C823 1.574 . S
C840 H834 0.949 . S
C840 C844 1.368 . S
C841 C822 1.429 . S
C841 C835 1.429 . S
C841 C842 1.523 . S
C842 C823 1.368 . S
C842 C836 1.368 . S
C842 C841 1.523 . S
C843 C827 1.429 . S
C843 C839 1.429 . S
C843 C844 1.523 . S
C844 C828 1.368 . S
C844 C840 1.368 . S
C844 C843 1.523 . S
H845 C820 0.950 . S
H846 C822 0.950 . S
H847 C823 0.949 . S
H848 C825 0.950 . S
H849 C827 0.950 . S
C850 C851 1.349 . S
C850 C852 1.327 . S
C850 H875 0.950 . S
C851 C850 1.349 . S
C851 C867 1.349 . S
C852 C850 1.327 . S
C852 C871 1.429 . S
C852 H876 0.950 . S
C853 C870 1.574 . S
C853 C872 1.368 . S
C853 H877 0.949 . S
H854 C858 0.949 . S
C855 C856 1.349 . S
C855 C857 1.327 . S
C855 H878 0.950 . S
C856 C855 1.349 . S
C856 C868 1.349 . S
C857 C855 1.327 . S
C857 C873 1.429 . S
C857 H879 0.950 . S
C858 H854 0.949 . S
C858 C866 1.574 . S
C858 C874 1.368 . S
H859 C867 0.950 . S
H860 C865 0.950 . S
H861 C866 0.949 . S
H862 C868 0.950 . S
H863 C869 0.950 . S
H864 C870 0.949 . S
C865 H860 0.950 . S
C865 C867 1.327 . S
C865 C871 1.429 . S
C866 C858 1.574 . S
C866 H861 0.949 . S
C866 C872 1.368 . S
C867 C851 1.349 . S
C867 H859 0.950 . S
C867 C865 1.327 . S
C868 C856 1.349 . S
C868 H862 0.950 . S
C868 C869 1.327 . S
C869 H863 0.950 . S
C869 C868 1.327 . S
C869 C873 1.429 . S
C870 C853 1.574 . S
C870 H864 0.949 . S
C870 C874 1.368 . S
C871 C852 1.429 . S
C871 C865 1.429 . S
C871 C872 1.523 . S
C872 C853 1.368 . S
C872 C866 1.368 . S
C872 C871 1.523 . S
C873 C857 1.429 . S
C873 C869 1.429 . S
C873 C874 1.523 . S
C874 C858 1.368 . S
C874 C870 1.368 . S
C874 C873 1.523 . S
H875 C850 0.950 . S
H876 C852 0.950 . S
H877 C853 0.949 . S
H878 C855 0.950 . S
H879 C857 0.950 . S
C880 C881 1.349 . S
C880 C882 1.327 . S
C880 H905 0.950 . S
C881 C880 1.349 . S
C881 C897 1.349 . S
C882 C880 1.327 . S
C882 C901 1.429 . S
C882 H906 0.950 . S
C883 C900 1.574 . S
C883 C902 1.368 . S
C883 H907 0.949 . S
H884 C888 0.949 . S
C885 C886 1.349 . S
C885 C887 1.327 . S
C885 H908 0.950 . S
C886 C885 1.349 . S
C886 C898 1.349 . S
C887 C885 1.327 . S
C887 C903 1.429 . S
C887 H909 0.950 . S
C888 H884 0.949 . S
C888 C896 1.574 . S
C888 C904 1.368 . S
H889 C897 0.950 . S
H890 C895 0.950 . S
H891 C896 0.949 . S
H892 C898 0.950 . S
H893 C899 0.950 . S
H894 C900 0.949 . S
C895 H890 0.950 . S
C895 C897 1.327 . S
C895 C901 1.429 . S
C896 C888 1.574 . S
C896 H891 0.949 . S
C896 C902 1.368 . S
C897 C881 1.349 . S
C897 H889 0.950 . S
C897 C895 1.327 . S
C898 C886 1.349 . S
C898 H892 0.950 . S
C898 C899 1.327 . S
C899 H893 0.950 . S
C899 C898 1.327 . S
C899 C903 1.429 . S
C900 C883 1.574 . S
C900 H894 0.949 . S
C900 C904 1.368 . S
C901 C882 1.429 . S
C901 C895 1.429 . S
C901 C902 1.523 . S
C902 C883 1.368 . S
C902 C896 1.368 . S
C902 C901 1.523 . S
C903 C887 1.429 . S
C903 C899 1.429 . S
C903 C904 1.523 . S
C904 C888 1.368 . S
C904 C900 1.368 . S
C904 C903 1.523 . S
H905 C880 0.950 . S
H906 C882 0.950 . S
H907 C883 0.949 . S
H908 C885 0.950 . S
H909 C887 0.950 . S
C910 C911 1.349 . S
C910 C912 1.327 . S
C910 H935 0.950 . S
C911 C910 1.349 . S
C911 C927 1.349 . S
C912 C910 1.327 . S
C912 C931 1.429 . S
C912 H936 0.950 . S
C913 C930 1.574 . S
C913 C932 1.368 . S
C913 H937 0.949 . S
H914 C918 0.949 . S
C915 C916 1.349 . S
C915 C917 1.327 . S
C915 H938 0.950 . S
C916 C915 1.349 . S
C916 C928 1.349 . S
C917 C915 1.327 . S
C917 C933 1.429 . S
C917 H939 0.950 . S
C918 H914 0.949 . S
C918 C926 1.574 . S
C918 C934 1.368 . S
H919 C927 0.950 . S
H920 C925 0.950 . S
H921 C926 0.949 . S
H922 C928 0.950 . S
H923 C929 0.950 . S
H924 C930 0.949 . S
C925 H920 0.950 . S
C925 C927 1.327 . S
C925 C931 1.429 . S
C926 C918 1.574 . S
C926 H921 0.949 . S
C926 C932 1.368 . S
C927 C911 1.349 . S
C927 H919 0.950 . S
C927 C925 1.327 . S
C928 C916 1.349 . S
C928 H922 0.950 . S
C928 C929 1.327 . S
C929 H923 0.950 . S
C929 C928 1.327 . S
C929 C933 1.429 . S
C930 C913 1.574 . S
C930 H924 0.949 . S
C930 C934 1.368 . S
C931 C912 1.429 . S
C931 C925 1.429 . S
C931 C932 1.523 . S
C932 C913 1.368 . S
C932 C926 1.368 . S
C932 C931 1.523 . S
C933 C917 1.429 . S
C933 C929 1.429 . S
C933 C934 1.523 . S
C934 C918 1.368 . S
C934 C930 1.368 . S
C934 C933 1.523 . S
H935 C910 0.950 . S
H936 C912 0.950 . S
H937 C913 0.949 . S
H938 C915 0.950 . S
H939 C917 0.950 . S
C940 C941 1.349 . S
C940 C942 1.327 . S
C940 H965 0.950 . S
C941 C940 1.349 . S
C941 C957 1.349 . S
C942 C940 1.327 . S
C942 C961 1.429 . S
C942 H966 0.950 . S
C943 C960 1.574 . S
C943 C962 1.368 . S
C943 H967 0.949 . S
H944 C948 0.949 . S
C945 C946 1.349 . S
C945 C947 1.327 . S
C945 H968 0.950 . S
C946 C945 1.349 . S
C946 C958 1.349 . S
C947 C945 1.327 . S
C947 C963 1.429 . S
C947 H969 0.950 . S
C948 H944 0.949 . S
C948 C956 1.574 . S
C948 C964 1.368 . S
H949 C957 0.950 . S
H950 C955 0.950 . S
H951 C956 0.949 . S
H952 C958 0.950 . S
H953 C959 0.950 . S
H954 C960 0.949 . S
C955 H950 0.950 . S
C955 C957 1.327 . S
C955 C961 1.429 . S
C956 C948 1.574 . S
C956 H951 0.949 . S
C956 C962 1.368 . S
C957 C941 1.349 . S
C957 H949 0.950 . S
C957 C955 1.327 . S
C958 C946 1.349 . S
C958 H952 0.950 . S
C958 C959 1.327 . S
C959 H953 0.950 . S
C959 C958 1.327 . S
C959 C963 1.429 . S
C960 C943 1.574 . S
C960 H954 0.949 . S
C960 C964 1.368 . S
C961 C942 1.429 . S
C961 C955 1.429 . S
C961 C962 1.523 . S
C962 C943 1.368 . S
C962 C956 1.368 . S
C962 C961 1.523 . S
C963 C947 1.429 . S
C963 C959 1.429 . S
C963 C964 1.523 . S
C964 C948 1.368 . S
C964 C960 1.368 . S
C964 C963 1.523 . S
H965 C940 0.950 . S
H966 C942 0.950 . S
H967 C943 0.949 . S
H968 C945 0.950 . S
H969 C947 0.950 . S
C970 C971 1.349 . S
C970 C972 1.327 . S
C970 H995 0.950 . S
C971 C970 1.349 . S
C971 C987 1.349 . S
C972 C970 1.327 . S
C972 C991 1.429 . S
C972 H996 0.950 . S
C973 C990 1.574 . S
C973 C992 1.368 . S
C973 H997 0.949 . S
H974 C978 0.949 . S
C975 C976 1.349 . S
C975 C977 1.327 . S
C975 H998 0.950 . S
C976 C975 1.349 . S
C976 C988 1.349 . S
C977 C975 1.327 . S
C977 C993 1.429 . S
C977 H999 0.950 . S
C978 H974 0.949 . S
C978 C986 1.574 . S
C978 C994 1.368 . S
H979 C987 0.950 . S
H980 C985 0.950 . S
H981 C986 0.949 . S
H982 C988 0.950 . S
H983 C989 0.950 . S
H984 C990 0.949 . S
C985 H980 0.950 . S
C985 C987 1.327 . S
C985 C991 1.429 . S
C986 C978 1.574 . S
C986 H981 0.949 . S
C986 C992 1.368 . S
C987 C971 1.349 . S
C987 H979 0.950 . S
C987 C985 1.327 . S
C988 C976 1.349 . S
C988 H982 0.950 . S
C988 C989 1.327 . S
C989 H983 0.950 . S
C989 C988 1.327 . S
C989 C993 1.429 . S
C990 C973 1.574 . S
C990 H984 0.949 . S
C990 C994 1.368 . S
C991 C972 1.429 . S
C991 C985 1.429 . S
C991 C992 1.523 . S
C992 C973 1.368 . S
C992 C986 1.368 . S
C992 C991 1.523 . S
C993 C977 1.429 . S
C993 C989 1.429 . S
C993 C994 1.523 . S
C994 C978 1.368 . S
C994 C990 1.368 . S
C994 C993 1.523 . S
H995 C970 0.950 . S
H996 C972 0.950 . S
H997 C973 0.949 . S
H998 C975 0.950 . S
H999 C977 0.950 . S
C1000 C1001 1.349 . S
C1000 C1002 1.327 . S
C1000 H1025 0.950 . S
C1001 C1000 1.349 . S
C1001 C1017 1.349 . S
C1002 C1000 1.327 . S
C1002 C1021 1.429 . S
C1002 H1026 0.950 . S
C1003 C1020 1.574 . S
C1003 C1022 1.368 . S
C1003 H1027 0.949 . S
H1004 C1008 0.949 . S
C1005 C1006 1.349 . S
C1005 C1007 1.327 . S
C1005 H1028 0.950 . S
C1006 C1005 1.349 . S
C1006 C1018 1.349 . S
C1007 C1005 1.327 . S
C1007 C1023 1.429 . S
C1007 H1029 0.950 . S
C1008 H1004 0.949 . S
C1008 C1016 1.574 . S
C1008 C1024 1.368 . S
H1009 C1017 0.950 . S
H1010 C1015 0.950 . S
H1011 C1016 0.949 . S
H1012 C1018 0.950 . S
H1013 C1019 0.950 . S
H1014 C1020 0.949 . S
C1015 H1010 0.950 . S
C1015 C1017 1.327 . S
C1015 C1021 1.429 . S
C1016 C1008 1.574 . S
C1016 H1011 0.949 . S
C1016 C1022 1.368 . S
C1017 C1001 1.349 . S
C1017 H1009 0.950 . S
C1017 C1015 1.327 . S
C1018 C1006 1.349 . S
C1018 H1012 0.950 . S
C1018 C1019 1.327 . S
C1019 H1013 0.950 . S
C1019 C1018 1.327 . S
C1019 C1023 1.429 . S
C1020 C1003 1.574 . S
C1020 H1014 0.949 . S
C1020 C1024 1.368 . S
C1021 C1002 1.429 . S
C1021 C1015 1.429 . S
C1021 C1022 1.523 . S
C1022 C1003 1.368 . S
C1022 C1016 1.368 . S
C1022 C1021 1.523 . S
C1023 C1007 1.429 . S
C1023 C1019 1.429 . S
C1023 C1024 1.523 . S
C1024 C1008 1.368 . S
C1024 C1020 1.368 . S
C1024 C1023 1.523 . S
H1025 C1000 0.950 . S
H1026 C1002 0.950 . S
H1027 C1003 0.949 . S
H1028 C1005 0.950 . S
H1029 C1007 0.950 . S
C1030 C1031 1.349 . S
C1030 C1032 1.327 . S
C1030 H1055 0.950 . S
C1031 C1030 1.349 . S
C1031 C1047 1.349 . S
C1032 C1030 1.327 . S
C1032 C1051 1.429 . S
C1032 H1056 0.950 . S
C1033 C1050 1.574 . S
C1033 C1052 1.368 . S
C1033 H1057 0.949 . S
H1034 C1038 0.949 . S
C1035 C1036 1.349 . S
C1035 C1037 1.327 . S
C1035 H1058 0.950 . S
C1036 C1035 1.349 . S
C1036 C1048 1.349 . S
C1037 C1035 1.327 . S
C1037 C1053 1.429 . S
C1037 H1059 0.950 . S
C1038 H1034 0.949 . S
C1038 C1046 1.574 . S
C1038 C1054 1.368 . S
H1039 C1047 0.950 . S
H1040 C1045 0.950 . S
H1041 C1046 0.949 . S
H1042 C1048 0.950 . S
H1043 C1049 0.950 . S
H1044 C1050 0.949 . S
C1045 H1040 0.950 . S
C1045 C1047 1.327 . S
C1045 C1051 1.429 . S
C1046 C1038 1.574 . S
C1046 H1041 0.949 . S
C1046 C1052 1.368 . S
C1047 C1031 1.349 . S
C1047 H1039 0.950 . S
C1047 C1045 1.327 . S
C1048 C1036 1.349 . S
C1048 H1042 0.950 . S
C1048 C1049 1.327 . S
C1049 H1043 0.950 . S
C1049 C1048 1.327 . S
C1049 C1053 1.429 . S
C1050 C1033 1.574 . S
C1050 H1044 0.949 . S
C1050 C1054 1.368 . S
C1051 C1032 1.429 . S
C1051 C1045 1.429 . S
C1051 C1052 1.523 . S
C1052 C1033 1.368 . S
C1052 C1046 1.368 . S
C1052 C1051 1.523 . S
C1053 C1037 1.429 . S
C1053 C1049 1.429 . S
C1053 C1054 1.523 . S
C1054 C1038 1.368 . S
C1054 C1050 1.368 . S
C1054 C1053 1.523 . S
H1055 C1030 0.950 . S
H1056 C1032 0.950 . S
H1057 C1033 0.949 . S
H1058 C1035 0.950 . S
H1059 C1037 0.950 . S
C1060 C1061 1.349 . S
C1060 C1062 1.327 . S
C1060 H1085 0.950 . S
C1061 C1060 1.349 . S
C1061 C1077 1.349 . S
C1062 C1060 1.327 . S
C1062 C1081 1.429 . S
C1062 H1086 0.950 . S
C1063 C1080 1.574 . S
C1063 C1082 1.368 . S
C1063 H1087 0.949 . S
H1064 C1068 0.949 . S
C1065 C1066 1.349 . S
C1065 C1067 1.327 . S
C1065 H1088 0.950 . S
C1066 C1065 1.349 . S
C1066 C1078 1.349 . S
C1067 C1065 1.327 . S
C1067 C1083 1.429 . S
C1067 H1089 0.950 . S
C1068 H1064 0.949 . S
C1068 C1076 1.574 . S
C1068 C1084 1.368 . S
H1069 C1077 0.950 . S
H1070 C1075 0.950 . S
H1071 C1076 0.949 . S
H1072 C1078 0.950 . S
H1073 C1079 0.950 . S
H1074 C1080 0.949 . S
C1075 H1070 0.950 . S
C1075 C1077 1.327 . S
C1075 C1081 1.429 . S
C1076 C1068 1.574 . S
C1076 H1071 0.949 . S
C1076 C1082 1.368 . S
C1077 C1061 1.349 . S
C1077 H1069 0.950 . S
C1077 C1075 1.327 . S
C1078 C1066 1.349 . S
C1078 H1072 0.950 . S
C1078 C1079 1.327 . S
C1079 H1073 0.950 . S
C1079 C1078 1.327 . S
C1079 C1083 1.429 . S
C1080 C1063 1.574 . S
C1080 H1074 0.949 . S
C1080 C1084 1.368 . S
C1081 C1062 1.429 . S
C1081 C1075 1.429 . S
C1081 C1082 1.523 . S
C1082 C1063 1.368 . S
C1082 C1076 1.368 . S
C1082 C1081 1.523 . S
C1083 C1067 1.429 . S
C1083 C1079 1.429 . S
C1083 C1084 1.523 . S
C1084 C1068 1.368 . S
C1084 C1080 1.368 . S
C1084 C1083 1.523 . S
H1085 C1060 0.950 . S
H1086 C1062 0.950 . S
H1087 C1063 0.949 . S
H1088 C1065 0.950 . S
H1089 C1067 0.950 . S
C1090 C1091 1.349 . S
C1090 C1092 1.327 . S
C1090 H1115 0.950 . S
C1091 C1090 1.349 . S
C1091 C1107 1.349 . S
C1092 C1090 1.327 . S
C1092 C1111 1.429 . S
C1092 H1116 0.950 . S
C1093 C1110 1.574 . S
C1093 C1112 1.368 . S
C1093 H1117 0.949 . S
H1094 C1098 0.949 . S
C1095 C1096 1.349 . S
C1095 C1097 1.327 . S
C1095 H1118 0.950 . S
C1096 C1095 1.349 . S
C1096 C1108 1.349 . S
C1097 C1095 1.327 . S
C1097 C1113 1.429 . S
C1097 H1119 0.950 . S
C1098 H1094 0.949 . S
C1098 C1106 1.574 . S
C1098 C1114 1.368 . S
H1099 C1107 0.950 . S
H1100 C1105 0.950 . S
H1101 C1106 0.949 . S
H1102 C1108 0.950 . S
H1103 C1109 0.950 . S
H1104 C1110 0.949 . S
C1105 H1100 0.950 . S
C1105 C1107 1.327 . S
C1105 C1111 1.429 . S
C1106 C1098 1.574 . S
C1106 H1101 0.949 . S
C1106 C1112 1.368 . S
C1107 C1091 1.349 . S
C1107 H1099 0.950 . S
C1107 C1105 1.327 . S
C1108 C1096 1.349 . S
C1108 H1102 0.950 . S
C1108 C1109 1.327 . S
C1109 H1103 0.950 . S
C1109 C1108 1.327 . S
C1109 C1113 1.429 . S
C1110 C1093 1.574 . S
C1110 H1104 0.949 . S
C1110 C1114 1.368 . S
C1111 C1092 1.429 . S
C1111 C1105 1.429 . S
C1111 C1112 1.523 . S
C1112 C1093 1.368 . S
C1112 C1106 1.368 . S
C1112 C1111 1.523 . S
C1113 C1097 1.429 . S
C1113 C1109 1.429 . S
C1113 C1114 1.523 . S
C1114 C1098 1.368 . S
C1114 C1110 1.368 . S
C1114 C1113 1.523 . S
H1115 C1090 0.950 . S
H1116 C1092 0.950 . S
H1117 C1093 0.949 . S
H1118 C1095 0.950 . S
H1119 C1097 0.950 . S
C1120 C1121 1.349 1_565 S
C1120 C1122 1.327 . S
C1120 H1145 0.950 . S
C1121 C1120 1.349 1_545 S
C1121 C1137 1.349 . S
C1122 C1120 1.327 . S
C1122 C1141 1.400 1_565 S
C1122 H1146 0.950 . S
C1123 C1140 1.574 . S
C1123 C1142 1.383 . S
C1123 H1147 0.949 . S
H1124 C1128 0.949 . S
C1125 C1126 1.349 1_545 S
C1125 C1127 1.327 . S
C1125 H1148 0.950 . S
C1126 C1125 1.349 1_565 S
C1126 C1138 1.349 . S
C1127 C1125 1.327 . S
C1127 C1143 1.410 1_545 S
C1127 H1149 0.950 . S
C1128 H1124 0.949 . S
C1128 C1136 1.574 . S
C1128 C1144 1.372 . S
H1129 C1137 0.950 . S
H1130 C1135 0.950 . S
H1131 C1136 0.949 . S
H1132 C1138 0.950 . S
H1133 C1139 0.950 . S
H1134 C1140 0.949 . S
C1135 H1130 0.950 . S
C1135 C1137 1.327 . S
C1135 C1141 1.458 . S
C1136 C1128 1.574 . S
C1136 H1131 0.949 . S
C1136 C1142 1.353 1_565 S
C1137 C1121 1.349 . S
C1137 H1129 0.950 . S
C1137 C1135 1.327 . S
C1138 C1126 1.349 . S
C1138 H1132 0.950 . S
C1138 C1139 1.327 . S
C1139 H1133 0.950 . S
C1139 C1138 1.327 . S
C1139 C1143 1.448 . S
C1140 C1123 1.574 . S
C1140 H1134 0.949 . S
C1140 C1144 1.365 1_545 S
C1141 C1122 1.400 1_545 S
C1141 C1135 1.458 . S
C1141 C1142 1.523 . S
C1142 C1123 1.383 . S
C1142 C1136 1.353 1_545 S
C1142 C1141 1.523 . S
C1143 C1127 1.410 1_565 S
C1143 C1139 1.448 . S
C1143 C1144 1.523 . S
C1144 C1128 1.372 . S
C1144 C1140 1.365 1_565 S
C1144 C1143 1.523 . S
H1145 C1120 0.950 . S
H1146 C1122 0.950 . S
H1147 C1123 0.949 . S
H1148 C1125 0.950 . S
H1149 C1127 0.950 . S
C1150 C1151 1.349 . S
C1150 C1152 1.327 . S
C1150 H1175 0.950 . S
C1151 C1150 1.349 . S
C1151 C1167 1.349 . S
C1152 C1150 1.327 . S
C1152 C1171 1.429 . S
C1152 H1176 0.950 . S
C1153 C1170 1.574 . S
C1153 C1172 1.368 . S
C1153 H1177 0.949 . S
H1154 C1158 0.949 . S
C1155 C1156 1.349 . S
C1155 C1157 1.327 . S
C1155 H1178 0.950 . S
C1156 C1155 1.349 . S
C1156 C1168 1.349 . S
C1157 C1155 1.327 . S
C1157 C1173 1.429 . S
C1157 H1179 0.950 . S
C1158 H1154 0.949 . S
C1158 C1166 1.574 . S
C1158 C1174 1.368 . S
H1159 C1167 0.950 . S
H1160 C1165 0.950 . S
H1161 C1166 0.949 . S
H1162 C1168 0.950 . S
H1163 C1169 0.950 . S
H1164 C1170 0.949 . S
C1165 H1160 0.950 . S
C1165 C1167 1.327 . S
C1165 C1171 1.429 . S
C1166 C1158 1.574 . S
C1166 H1161 0.949 . S
C1166 C1172 1.368 1_655 S
C1167 C1151 1.349 . S
C1167 H1159 0.950 . S
C1167 C1165 1.327 . S
C1168 C1156 1.349 . S
C1168 H1162 0.950 . S
C1168 C1169 1.327 . S
C1169 H1163 0.950 . S
C1169 C1168 1.327 . S
C1169 C1173 1.429 . S
C1170 C1153 1.574 . S
C1170 H1164 0.949 . S
C1170 C1174 1.368 1_455 S
C1171 C1152 1.429 . S
C1171 C1165 1.429 . S
C1171 C1172 1.523 . S
C1172 C1153 1.368 . S
C1172 C1166 1.368 1_455 S
C1172 C1171 1.523 . S
C1173 C1157 1.429 . S
C1173 C1169 1.429 . S
C1173 C1174 1.523 . S
C1174 C1158 1.368 . S
C1174 C1170 1.368 1_655 S
C1174 C1173 1.523 . S
H1175 C1150 0.950 . S
H1176 C1152 0.950 . S
H1177 C1153 0.949 . S
H1178 C1155 0.950 . S
H1179 C1157 0.950 . S
C1180 C1181 1.349 . S
C1180 C1182 1.327 . S
C1180 H1205 0.950 . S
C1181 C1180 1.349 . S
C1181 C1197 1.349 . S
C1182 C1180 1.327 . S
C1182 C1201 1.429 . S
C1182 H1206 0.950 . S
C1183 C1200 1.574 1_556 S
C1183 C1202 1.368 . S
C1183 H1207 0.949 . S
H1184 C1188 0.949 . S
C1185 C1186 1.349 . S
C1185 C1187 1.327 . S
C1185 H1208 0.950 . S
C1186 C1185 1.349 . S
C1186 C1198 1.349 . S
C1187 C1185 1.327 . S
C1187 C1203 1.429 . S
C1187 H1209 0.950 . S
C1188 H1184 0.949 . S
C1188 C1196 1.574 1_554 S
C1188 C1204 1.368 . S
H1189 C1197 0.950 . S
H1190 C1195 0.950 . S
H1191 C1196 0.949 . S
H1192 C1198 0.950 . S
H1193 C1199 0.950 . S
H1194 C1200 0.949 . S
C1195 H1190 0.950 . S
C1195 C1197 1.327 . S
C1195 C1201 1.429 . S
C1196 C1188 1.574 1_556 S
C1196 H1191 0.949 . S
C1196 C1202 1.368 . S
C1197 C1181 1.349 . S
C1197 H1189 0.950 . S
C1197 C1195 1.327 . S
C1198 C1186 1.349 . S
C1198 H1192 0.950 . S
C1198 C1199 1.327 . S
C1199 H1193 0.950 . S
C1199 C1198 1.327 . S
C1199 C1203 1.429 . S
C1200 C1183 1.574 1_554 S
C1200 H1194 0.949 . S
C1200 C1204 1.368 . S
C1201 C1182 1.429 . S
C1201 C1195 1.429 . S
C1201 C1202 1.523 . S
C1202 C1183 1.368 . S
C1202 C1196 1.368 . S
C1202 C1201 1.523 . S
C1203 C1187 1.429 . S
C1203 C1199 1.429 . S
C1203 C1204 1.523 . S
C1204 C1188 1.368 . S
C1204 C1200 1.368 . S
C1204 C1203 1.523 . S
H1205 C1180 0.950 . S
H1206 C1182 0.950 . S
H1207 C1183 0.949 . S
H1208 C1185 0.950 . S
H1209 C1187 0.950 . S
C1210 C1211 1.349 1_565 S
C1210 C1212 1.327 . S
C1210 H1235 0.950 . S
C1211 C1210 1.349 1_545 S
C1211 C1227 1.349 . S
C1212 C1210 1.327 . S
C1212 C1231 1.400 1_565 S
C1212 H1236 0.950 . S
C1213 C1230 1.574 1_554 S
C1213 C1232 1.383 1_455 S
C1213 H1237 0.949 . S
H1214 C1218 0.949 . S
C1215 C1216 1.349 1_545 S
C1215 C1217 1.327 . S
C1215 H1238 0.950 . S
C1216 C1215 1.349 1_565 S
C1216 C1228 1.349 . S
C1217 C1215 1.327 . S
C1217 C1233 1.410 1_545 S
C1217 H1239 0.950 . S
C1218 H1214 0.949 . S
C1218 C1226 1.574 1_556 S
C1218 C1234 1.372 1_655 S
H1219 C1227 0.950 . S
H1220 C1225 0.950 . S
H1221 C1226 0.949 . S
H1222 C1228 0.950 . S
H1223 C1229 0.950 . S
H1224 C1230 0.949 . S
C1225 H1220 0.950 . S
C1225 C1227 1.327 . S
C1225 C1231 1.459 . S
C1226 C1218 1.574 1_554 S
C1226 H1221 0.949 . S
C1226 C1232 1.353 1_565 S
C1227 C1211 1.349 . S
C1227 H1219 0.950 . S
C1227 C1225 1.327 . S
C1228 C1216 1.349 . S
C1228 H1222 0.950 . S
C1228 C1229 1.327 . S
C1229 H1223 0.950 . S
C1229 C1228 1.327 . S
C1229 C1233 1.448 . S
C1230 C1213 1.574 1_556 S
C1230 H1224 0.949 . S
C1230 C1234 1.365 1_545 S
C1231 C1212 1.400 1_545 S
C1231 C1225 1.459 . S
C1231 C1232 1.523 . S
C1232 C1213 1.383 1_655 S
C1232 C1226 1.353 1_545 S
C1232 C1231 1.523 . S
C1233 C1217 1.410 1_565 S
C1233 C1229 1.448 . S
C1233 C1234 1.523 . S
C1234 C1218 1.372 1_455 S
C1234 C1230 1.365 1_565 S
C1234 C1233 1.523 . S
H1235 C1210 0.950 . S
H1236 C1212 0.950 . S
H1237 C1213 0.949 . S
H1238 C1215 0.950 . S
H1239 C1217 0.950 . S
C1240 C1241 1.349 1_545 S
C1240 C1242 1.327 . S
C1240 H1265 0.950 . S
C1241 C1240 1.349 1_565 S
C1241 C1257 1.349 . S
C1242 C1240 1.327 . S
C1242 C1261 1.422 1_545 S
C1242 H1266 0.950 . S
C1243 C1260 1.574 . S
C1243 C1262 1.372 . S
C1243 H1267 0.949 . S
H1244 C1248 0.949 . S
C1245 C1246 1.349 1_565 S
C1245 C1247 1.327 . S
C1245 H1268 0.950 . S
C1246 C1245 1.349 1_545 S
C1246 C1258 1.349 . S
C1247 C1245 1.327 . S
C1247 C1263 1.424 1_565 S
C1247 H1269 0.950 . S
C1248 H1244 0.949 . S
C1248 C1256 1.574 . S
C1248 C1264 1.369 . S
H1249 C1257 0.950 . S
H1250 C1255 0.950 . S
H1251 C1256 0.949 . S
H1252 C1258 0.950 . S
H1253 C1259 0.950 . S
H1254 C1260 0.949 . S
C1255 H1250 0.950 . S
C1255 C1257 1.327 . S
C1255 C1261 1.437 . S
C1256 C1248 1.574 . S
C1256 H1251 0.949 . S
C1256 C1262 1.364 1_545 S
C1257 C1241 1.349 . S
C1257 H1249 0.950 . S
C1257 C1255 1.327 . S
C1258 C1246 1.349 . S
C1258 H1252 0.950 . S
C1258 C1259 1.327 . S
C1259 H1253 0.950 . S
C1259 C1258 1.327 . S
C1259 C1263 1.434 . S
C1260 C1243 1.574 . S
C1260 H1254 0.949 . S
C1260 C1264 1.367 1_565 S
C1261 C1242 1.422 1_565 S
C1261 C1255 1.437 . S
C1261 C1262 1.523 . S
C1262 C1243 1.372 . S
C1262 C1256 1.364 1_565 S
C1262 C1261 1.523 . S
C1263 C1247 1.424 1_545 S
C1263 C1259 1.434 . S
C1263 C1264 1.523 . S
C1264 C1248 1.369 . S
C1264 C1260 1.367 1_545 S
C1264 C1263 1.523 . S
H1265 C1240 0.950 . S
H1266 C1242 0.950 . S
H1267 C1243 0.949 . S
H1268 C1245 0.950 . S
H1269 C1247 0.950 . S
C1270 C1271 1.349 . S
C1270 C1272 1.327 . S
C1270 H1295 0.950 . S
C1271 C1270 1.349 . S
C1271 C1287 1.349 . S
C1272 C1270 1.327 . S
C1272 C1291 1.429 . S
C1272 H1296 0.950 . S
C1273 C1290 1.574 . S
C1273 C1292 1.368 1_655 S
C1273 H1297 0.949 . S
H1274 C1278 0.949 . S
C1275 C1276 1.349 . S
C1275 C1277 1.327 . S
C1275 H1298 0.950 . S
C1276 C1275 1.349 . S
C1276 C1288 1.349 . S
C1277 C1275 1.327 . S
C1277 C1293 1.429 . S
C1277 H1299 0.950 . S
C1278 H1274 0.949 . S
C1278 C1286 1.574 . S
C1278 C1294 1.368 1_455 S
H1279 C1287 0.950 . S
H1280 C1285 0.950 . S
H1281 C1286 0.949 . S
H1282 C1288 0.950 . S
H1283 C1289 0.950 . S
H1284 C1290 0.949 . S
C1285 H1280 0.950 . S
C1285 C1287 1.327 . S
C1285 C1291 1.429 . S
C1286 C1278 1.574 . S
C1286 H1281 0.949 . S
C1286 C1292 1.368 . S
C1287 C1271 1.349 . S
C1287 H1279 0.950 . S
C1287 C1285 1.327 . S
C1288 C1276 1.349 . S
C1288 H1282 0.950 . S
C1288 C1289 1.327 . S
C1289 H1283 0.950 . S
C1289 C1288 1.327 . S
C1289 C1293 1.429 . S
C1290 C1273 1.574 . S
C1290 H1284 0.949 . S
C1290 C1294 1.368 . S
C1291 C1272 1.429 . S
C1291 C1285 1.429 . S
C1291 C1292 1.523 . S
C1292 C1273 1.368 1_455 S
C1292 C1286 1.368 . S
C1292 C1291 1.523 . S
C1293 C1277 1.429 . S
C1293 C1289 1.429 . S
C1293 C1294 1.523 . S
C1294 C1278 1.368 1_655 S
C1294 C1290 1.368 . S
C1294 C1293 1.523 . S
H1295 C1270 0.950 . S
H1296 C1272 0.950 . S
H1297 C1273 0.949 . S
H1298 C1275 0.950 . S
H1299 C1277 0.950 . S
C1300 C1301 1.349 . S
C1300 C1302 1.327 . S
C1300 H1325 0.950 . S
C1301 C1300 1.349 . S
C1301 C1317 1.349 . S
C1302 C1300 1.327 . S
C1302 C1321 1.429 . S
C1302 H1326 0.950 . S
C1303 C1320 1.574 1_556 S
C1303 C1322 1.368 . S
C1303 H1327 0.949 . S
H1304 C1308 0.949 . S
C1305 C1306 1.349 . S
C1305 C1307 1.327 . S
C1305 H1328 0.950 . S
C1306 C1305 1.349 . S
C1306 C1318 1.349 . S
C1307 C1305 1.327 . S
C1307 C1323 1.429 . S
C1307 H1329 0.950 . S
C1308 H1304 0.949 . S
C1308 C1316 1.574 1_554 S
C1308 C1324 1.368 . S
H1309 C1317 0.950 . S
H1310 C1315 0.950 . S
H1311 C1316 0.949 . S
H1312 C1318 0.950 . S
H1313 C1319 0.950 . S
H1314 C1320 0.949 . S
C1315 H1310 0.950 . S
C1315 C1317 1.327 . S
C1315 C1321 1.429 . S
C1316 C1308 1.574 1_556 S
C1316 H1311 0.949 . S
C1316 C1322 1.368 . S
C1317 C1301 1.349 . S
C1317 H1309 0.950 . S
C1317 C1315 1.327 . S
C1318 C1306 1.349 . S
C1318 H1312 0.950 . S
C1318 C1319 1.327 . S
C1319 H1313 0.950 . S
C1319 C1318 1.327 . S
C1319 C1323 1.429 . S
C1320 C1303 1.574 1_554 S
C1320 H1314 0.949 . S
C1320 C1324 1.368 . S
C1321 C1302 1.429 . S
C1321 C1315 1.429 . S
C1321 C1322 1.523 . S
C1322 C1303 1.368 . S
C1322 C1316 1.368 . S
C1322 C1321 1.523 . S
C1323 C1307 1.429 . S
C1323 C1319 1.429 . S
C1323 C1324 1.523 . S
C1324 C1308 1.368 . S
C1324 C1320 1.368 . S
C1324 C1323 1.523 . S
H1325 C1300 0.950 . S
H1326 C1302 0.950 . S
H1327 C1303 0.949 . S
H1328 C1305 0.950 . S
H1329 C1307 0.950 . S
C1330 C1331 1.349 . S
C1330 C1332 1.327 . S
C1330 H1355 0.950 . S
C1331 C1330 1.349 . S
C1331 C1347 1.349 . S
C1332 C1330 1.327 . S
C1332 C1351 1.429 . S
C1332 H1356 0.950 . S
C1333 C1350 1.574 . S
C1333 C1352 1.368 . S
C1333 H1357 0.949 . S
H1334 C1338 0.949 . S
C1335 C1336 1.349 . S
C1335 C1337 1.327 . S
C1335 H1358 0.950 . S
C1336 C1335 1.349 . S
C1336 C1348 1.349 . S
C1337 C1335 1.327 . S
C1337 C1353 1.429 . S
C1337 H1359 0.950 . S
C1338 H1334 0.949 . S
C1338 C1346 1.574 . S
C1338 C1354 1.368 . S
H1339 C1347 0.950 . S
H1340 C1345 0.950 . S
H1341 C1346 0.949 . S
H1342 C1348 0.950 . S
H1343 C1349 0.950 . S
H1344 C1350 0.949 . S
C1345 H1340 0.950 . S
C1345 C1347 1.327 . S
C1345 C1351 1.429 . S
C1346 C1338 1.574 . S
C1346 H1341 0.949 . S
C1346 C1352 1.368 . S
C1347 C1331 1.349 . S
C1347 H1339 0.950 . S
C1347 C1345 1.327 . S
C1348 C1336 1.349 . S
C1348 H1342 0.950 . S
C1348 C1349 1.327 . S
C1349 H1343 0.950 . S
C1349 C1348 1.327 . S
C1349 C1353 1.429 . S
C1350 C1333 1.574 . S
C1350 H1344 0.949 . S
C1350 C1354 1.368 . S
C1351 C1332 1.429 . S
C1351 C1345 1.429 . S
C1351 C1352 1.523 . S
C1352 C1333 1.368 . S
C1352 C1346 1.368 . S
C1352 C1351 1.523 . S
C1353 C1337 1.429 . S
C1353 C1349 1.429 . S
C1353 C1354 1.523 . S
C1354 C1338 1.368 . S
C1354 C1350 1.368 . S
C1354 C1353 1.523 . S
H1355 C1330 0.950 . S
H1356 C1332 0.950 . S
H1357 C1333 0.949 . S
H1358 C1335 0.950 . S
H1359 C1337 0.950 . S
C1360 C1361 1.349 . S
C1360 C1362 1.327 . S
C1360 H1385 0.950 . S
C1361 C1360 1.349 . S
C1361 C1377 1.349 . S
C1362 C1360 1.327 . S
C1362 C1381 1.429 . S
C1362 H1386 0.950 . S
C1363 C1380 1.574 . S
C1363 C1382 1.368 . S
C1363 H1387 0.949 . S
H1364 C1368 0.949 . S
C1365 C1366 1.349 . S
C1365 C1367 1.327 . S
C1365 H1388 0.950 . S
C1366 C1365 1.349 . S
C1366 C1378 1.349 . S
C1367 C1365 1.327 . S
C1367 C1383 1.429 . S
C1367 H1389 0.950 . S
C1368 H1364 0.949 . S
C1368 C1376 1.574 . S
C1368 C1384 1.368 . S
H1369 C1377 0.950 . S
H1370 C1375 0.950 . S
H1371 C1376 0.949 . S
H1372 C1378 0.950 . S
H1373 C1379 0.950 . S
H1374 C1380 0.949 . S
C1375 H1370 0.950 . S
C1375 C1377 1.327 . S
C1375 C1381 1.429 . S
C1376 C1368 1.574 . S
C1376 H1371 0.949 . S
C1376 C1382 1.368 . S
C1377 C1361 1.349 . S
C1377 H1369 0.950 . S
C1377 C1375 1.327 . S
C1378 C1366 1.349 . S
C1378 H1372 0.950 . S
C1378 C1379 1.327 . S
C1379 H1373 0.950 . S
C1379 C1378 1.327 . S
C1379 C1383 1.429 . S
C1380 C1363 1.574 . S
C1380 H1374 0.949 . S
C1380 C1384 1.368 . S
C1381 C1362 1.429 . S
C1381 C1375 1.429 . S
C1381 C1382 1.523 . S
C1382 C1363 1.368 . S
C1382 C1376 1.368 . S
C1382 C1381 1.523 . S
C1383 C1367 1.429 . S
C1383 C1379 1.429 . S
C1383 C1384 1.523 . S
C1384 C1368 1.368 . S
C1384 C1380 1.368 . S
C1384 C1383 1.523 . S
H1385 C1360 0.950 . S
H1386 C1362 0.950 . S
H1387 C1363 0.949 . S
H1388 C1365 0.950 . S
H1389 C1367 0.950 . S
C1390 C1391 1.349 . S
C1390 C1392 1.327 . S
C1390 H1415 0.950 . S
C1391 C1390 1.349 . S
C1391 C1407 1.349 . S
C1392 C1390 1.327 . S
C1392 C1411 1.429 . S
C1392 H1416 0.950 . S
C1393 C1410 1.574 . S
C1393 C1412 1.368 1_655 S
C1393 H1417 0.949 . S
H1394 C1398 0.949 . S
C1395 C1396 1.349 . S
C1395 C1397 1.327 . S
C1395 H1418 0.950 . S
C1396 C1395 1.349 . S
C1396 C1408 1.349 . S
C1397 C1395 1.327 . S
C1397 C1413 1.429 . S
C1397 H1419 0.950 . S
C1398 H1394 0.949 . S
C1398 C1406 1.574 . S
C1398 C1414 1.368 1_455 S
H1399 C1407 0.950 . S
H1400 C1405 0.950 . S
H1401 C1406 0.949 . S
H1402 C1408 0.950 . S
H1403 C1409 0.950 . S
H1404 C1410 0.949 . S
C1405 H1400 0.950 . S
C1405 C1407 1.327 . S
C1405 C1411 1.429 . S
C1406 C1398 1.574 . S
C1406 H1401 0.949 . S
C1406 C1412 1.368 . S
C1407 C1391 1.349 . S
C1407 H1399 0.950 . S
C1407 C1405 1.327 . S
C1408 C1396 1.349 . S
C1408 H1402 0.950 . S
C1408 C1409 1.327 . S
C1409 H1403 0.950 . S
C1409 C1408 1.327 . S
C1409 C1413 1.429 . S
C1410 C1393 1.574 . S
C1410 H1404 0.949 . S
C1410 C1414 1.368 . S
C1411 C1392 1.429 . S
C1411 C1405 1.429 . S
C1411 C1412 1.523 . S
C1412 C1393 1.368 1_455 S
C1412 C1406 1.368 . S
C1412 C1411 1.523 . S
C1413 C1397 1.429 . S
C1413 C1409 1.429 . S
C1413 C1414 1.523 . S
C1414 C1398 1.368 1_655 S
C1414 C1410 1.368 . S
C1414 C1413 1.523 . S
H1415 C1390 0.950 . S
H1416 C1392 0.950 . S
H1417 C1393 0.949 . S
H1418 C1395 0.950 . S
H1419 C1397 0.950 . S
C1420 C1421 1.349 . S
C1420 C1422 1.327 . S
C1420 H1445 0.950 . S
C1421 C1420 1.349 . S
C1421 C1437 1.349 . S
C1422 C1420 1.327 . S
C1422 C1441 1.429 . S
C1422 H1446 0.950 . S
C1423 C1440 1.574 . S
C1423 C1442 1.368 . S
C1423 H1447 0.949 . S
H1424 C1428 0.949 . S
C1425 C1426 1.349 . S
C1425 C1427 1.327 . S
C1425 H1448 0.950 . S
C1426 C1425 1.349 . S
C1426 C1438 1.349 . S
C1427 C1425 1.327 . S
C1427 C1443 1.429 . S
C1427 H1449 0.950 . S
C1428 H1424 0.949 . S
C1428 C1436 1.574 . S
C1428 C1444 1.368 . S
H1429 C1437 0.950 . S
H1430 C1435 0.950 . S
H1431 C1436 0.949 . S
H1432 C1438 0.950 . S
H1433 C1439 0.950 . S
H1434 C1440 0.949 . S
C1435 H1430 0.950 . S
C1435 C1437 1.327 . S
C1435 C1441 1.429 . S
C1436 C1428 1.574 . S
C1436 H1431 0.949 . S
C1436 C1442 1.368 . S
C1437 C1421 1.349 . S
C1437 H1429 0.950 . S
C1437 C1435 1.327 . S
C1438 C1426 1.349 . S
C1438 H1432 0.950 . S
C1438 C1439 1.327 . S
C1439 H1433 0.950 . S
C1439 C1438 1.327 . S
C1439 C1443 1.429 . S
C1440 C1423 1.574 . S
C1440 H1434 0.949 . S
C1440 C1444 1.368 . S
C1441 C1422 1.429 . S
C1441 C1435 1.429 . S
C1441 C1442 1.523 . S
C1442 C1423 1.368 . S
C1442 C1436 1.368 . S
C1442 C1441 1.523 . S
C1443 C1427 1.429 . S
C1443 C1439 1.429 . S
C1443 C1444 1.523 . S
C1444 C1428 1.368 . S
C1444 C1440 1.368 . S
C1444 C1443 1.523 . S
H1445 C1420 0.950 . S
H1446 C1422 0.950 . S
H1447 C1423 0.949 . S
H1448 C1425 0.950 . S
H1449 C1427 0.950 . S
C1450 C1451 1.349 . S
C1450 C1452 1.327 . S
C1450 H1475 0.950 . S
C1451 C1450 1.349 . S
C1451 C1467 1.349 . S
C1452 C1450 1.327 . S
C1452 C1471 1.429 . S
C1452 H1476 0.950 . S
C1453 C1470 1.574 . S
C1453 C1472 1.368 . S
C1453 H1477 0.949 . S
H1454 C1458 0.949 . S
C1455 C1456 1.349 . S
C1455 C1457 1.327 . S
C1455 H1478 0.950 . S
C1456 C1455 1.349 . S
C1456 C1468 1.349 . S
C1457 C1455 1.327 . S
C1457 C1473 1.429 . S
C1457 H1479 0.950 . S
C1458 H1454 0.949 . S
C1458 C1466 1.574 . S
C1458 C1474 1.368 . S
H1459 C1467 0.950 . S
H1460 C1465 0.950 . S
H1461 C1466 0.949 . S
H1462 C1468 0.950 . S
H1463 C1469 0.950 . S
H1464 C1470 0.949 . S
C1465 H1460 0.950 . S
C1465 C1467 1.327 . S
C1465 C1471 1.429 . S
C1466 C1458 1.574 . S
C1466 H1461 0.949 . S
C1466 C1472 1.368 . S
C1467 C1451 1.349 . S
C1467 H1459 0.950 . S
C1467 C1465 1.327 . S
C1468 C1456 1.349 . S
C1468 H1462 0.950 . S
C1468 C1469 1.327 . S
C1469 H1463 0.950 . S
C1469 C1468 1.327 . S
C1469 C1473 1.429 . S
C1470 C1453 1.574 . S
C1470 H1464 0.949 . S
C1470 C1474 1.368 . S
C1471 C1452 1.429 . S
C1471 C1465 1.429 . S
C1471 C1472 1.523 . S
C1472 C1453 1.368 . S
C1472 C1466 1.368 . S
C1472 C1471 1.523 . S
C1473 C1457 1.429 . S
C1473 C1469 1.429 . S
C1473 C1474 1.523 . S
C1474 C1458 1.368 . S
C1474 C1470 1.368 . S
C1474 C1473 1.523 . S
H1475 C1450 0.950 . S
H1476 C1452 0.950 . S
H1477 C1453 0.949 . S
H1478 C1455 0.950 . S
H1479 C1457 0.950 . S
C1480 C1481 1.349 . S
C1480 C1482 1.327 . S
C1480 H1505 0.950 . S
C1481 C1480 1.349 . S
C1481 C1497 1.349 . S
C1482 C1480 1.327 . S
C1482 C1501 1.429 . S
C1482 H1506 0.950 . S
C1483 C1500 1.574 . S
C1483 C1502 1.368 . S
C1483 H1507 0.949 . S
H1484 C1488 0.949 . S
C1485 C1486 1.349 . S
C1485 C1487 1.327 . S
C1485 H1508 0.950 . S
C1486 C1485 1.349 . S
C1486 C1498 1.349 . S
C1487 C1485 1.327 . S
C1487 C1503 1.429 . S
C1487 H1509 0.950 . S
C1488 H1484 0.949 . S
C1488 C1496 1.574 . S
C1488 C1504 1.368 . S
H1489 C1497 0.950 . S
H1490 C1495 0.950 . S
H1491 C1496 0.949 . S
H1492 C1498 0.950 . S
H1493 C1499 0.950 . S
H1494 C1500 0.949 . S
C1495 H1490 0.950 . S
C1495 C1497 1.327 . S
C1495 C1501 1.429 . S
C1496 C1488 1.574 . S
C1496 H1491 0.949 . S
C1496 C1502 1.368 . S
C1497 C1481 1.349 . S
C1497 H1489 0.950 . S
C1497 C1495 1.327 . S
C1498 C1486 1.349 . S
C1498 H1492 0.950 . S
C1498 C1499 1.327 . S
C1499 H1493 0.950 . S
C1499 C1498 1.327 . S
C1499 C1503 1.429 . S
C1500 C1483 1.574 . S
C1500 H1494 0.949 . S
C1500 C1504 1.368 . S
C1501 C1482 1.429 . S
C1501 C1495 1.429 . S
C1501 C1502 1.523 . S
C1502 C1483 1.368 . S
C1502 C1496 1.368 . S
C1502 C1501 1.523 . S
C1503 C1487 1.429 . S
C1503 C1499 1.429 . S
C1503 C1504 1.523 . S
C1504 C1488 1.368 . S
C1504 C1500 1.368 . S
C1504 C1503 1.523 . S
H1505 C1480 0.950 . S
H1506 C1482 0.950 . S
H1507 C1483 0.949 . S
H1508 C1485 0.950 . S
H1509 C1487 0.950 . S
C1510 C1511 1.349 . S
C1510 C1512 1.327 . S
C1510 H1535 0.950 . S
C1511 C1510 1.349 . S
C1511 C1527 1.349 1_545 S
C1512 C1510 1.327 . S
C1512 C1531 1.459 . S
C1512 H1536 0.950 . S
C1513 C1530 1.574 . S
C1513 C1532 1.353 1_565 S
C1513 H1537 0.949 . S
H1514 C1518 0.949 . S
C1515 C1516 1.349 . S
C1515 C1517 1.327 . S
C1515 H1538 0.950 . S
C1516 C1515 1.349 . S
C1516 C1528 1.349 1_565 S
C1517 C1515 1.327 . S
C1517 C1533 1.448 . S
C1517 H1539 0.950 . S
C1518 H1514 0.949 . S
C1518 C1526 1.574 . S
C1518 C1534 1.365 1_545 S
H1519 C1527 0.950 . S
H1520 C1525 0.950 . S
H1521 C1526 0.949 . S
H1522 C1528 0.950 . S
H1523 C1529 0.950 . S
H1524 C1530 0.949 . S
C1525 H1520 0.950 . S
C1525 C1527 1.327 . S
C1525 C1531 1.400 1_565 S
C1526 C1518 1.574 . S
C1526 H1521 0.949 . S
C1526 C1532 1.383 . S
C1527 C1511 1.349 1_565 S
C1527 H1519 0.950 . S
C1527 C1525 1.327 . S
C1528 C1516 1.349 1_545 S
C1528 H1522 0.950 . S
C1528 C1529 1.327 . S
C1529 H1523 0.950 . S
C1529 C1528 1.327 . S
C1529 C1533 1.410 1_545 S
C1530 C1513 1.574 . S
C1530 H1524 0.949 . S
C1530 C1534 1.372 . S
C1531 C1512 1.459 . S
C1531 C1525 1.400 1_545 S
C1531 C1532 1.523 . S
C1532 C1513 1.353 1_545 S
C1532 C1526 1.383 . S
C1532 C1531 1.523 . S
C1533 C1517 1.448 . S
C1533 C1529 1.410 1_565 S
C1533 C1534 1.523 . S
C1534 C1518 1.365 1_565 S
C1534 C1530 1.372 . S
C1534 C1533 1.523 . S
H1535 C1510 0.950 . S
H1536 C1512 0.950 . S
H1537 C1513 0.949 . S
H1538 C1515 0.950 . S
H1539 C1517 0.950 . S
C1540 C1541 1.349 . S
C1540 C1542 1.327 . S
C1540 H1565 0.950 . S
C1541 C1540 1.349 . S
C1541 C1557 1.349 . S
C1542 C1540 1.327 . S
C1542 C1561 1.429 . S
C1542 H1566 0.950 . S
C1543 C1560 1.574 . S
C1543 C1562 1.368 . S
C1543 H1567 0.949 . S
H1544 C1548 0.949 . S
C1545 C1546 1.349 . S
C1545 C1547 1.327 . S
C1545 H1568 0.950 . S
C1546 C1545 1.349 . S
C1546 C1558 1.349 . S
C1547 C1545 1.327 . S
C1547 C1563 1.429 . S
C1547 H1569 0.950 . S
C1548 H1544 0.949 . S
C1548 C1556 1.574 . S
C1548 C1564 1.368 . S
H1549 C1557 0.950 . S
H1550 C1555 0.950 . S
H1551 C1556 0.949 . S
H1552 C1558 0.950 . S
H1553 C1559 0.950 . S
H1554 C1560 0.949 . S
C1555 H1550 0.950 . S
C1555 C1557 1.327 . S
C1555 C1561 1.429 . S
C1556 C1548 1.574 . S
C1556 H1551 0.949 . S
C1556 C1562 1.368 . S
C1557 C1541 1.349 . S
C1557 H1549 0.950 . S
C1557 C1555 1.327 . S
C1558 C1546 1.349 . S
C1558 H1552 0.950 . S
C1558 C1559 1.327 . S
C1559 H1553 0.950 . S
C1559 C1558 1.327 . S
C1559 C1563 1.429 . S
C1560 C1543 1.574 . S
C1560 H1554 0.949 . S
C1560 C1564 1.368 . S
C1561 C1542 1.429 . S
C1561 C1555 1.429 . S
C1561 C1562 1.523 . S
C1562 C1543 1.368 . S
C1562 C1556 1.368 . S
C1562 C1561 1.523 . S
C1563 C1547 1.429 . S
C1563 C1559 1.429 . S
C1563 C1564 1.523 . S
C1564 C1548 1.368 . S
C1564 C1560 1.368 . S
C1564 C1563 1.523 . S
H1565 C1540 0.950 . S
H1566 C1542 0.950 . S
H1567 C1543 0.949 . S
H1568 C1545 0.950 . S
H1569 C1547 0.950 . S
C1570 C1571 1.349 . S
C1570 C1572 1.327 . S
C1570 H1595 0.950 . S
C1571 C1570 1.349 . S
C1571 C1587 1.349 . S
C1572 C1570 1.327 . S
C1572 C1591 1.429 . S
C1572 H1596 0.950 . S
C1573 C1590 1.574 1_554 S
C1573 C1592 1.368 . S
C1573 H1597 0.949 . S
H1574 C1578 0.949 . S
C1575 C1576 1.349 . S
C1575 C1577 1.327 . S
C1575 H1598 0.950 . S
C1576 C1575 1.349 . S
C1576 C1588 1.349 . S
C1577 C1575 1.327 . S
C1577 C1593 1.429 . S
C1577 H1599 0.950 . S
C1578 H1574 0.949 . S
C1578 C1586 1.574 1_556 S
C1578 C1594 1.368 . S
H1579 C1587 0.950 . S
H1580 C1585 0.950 . S
H1581 C1586 0.949 . S
H1582 C1588 0.950 . S
H1583 C1589 0.950 . S
H1584 C1590 0.949 . S
C1585 H1580 0.950 . S
C1585 C1587 1.327 . S
C1585 C1591 1.429 . S
C1586 C1578 1.574 1_554 S
C1586 H1581 0.949 . S
C1586 C1592 1.368 . S
C1587 C1571 1.349 . S
C1587 H1579 0.950 . S
C1587 C1585 1.327 . S
C1588 C1576 1.349 . S
C1588 H1582 0.950 . S
C1588 C1589 1.327 . S
C1589 H1583 0.950 . S
C1589 C1588 1.327 . S
C1589 C1593 1.429 . S
C1590 C1573 1.574 1_556 S
C1590 H1584 0.949 . S
C1590 C1594 1.368 . S
C1591 C1572 1.429 . S
C1591 C1585 1.429 . S
C1591 C1592 1.523 . S
C1592 C1573 1.368 . S
C1592 C1586 1.368 . S
C1592 C1591 1.523 . S
C1593 C1577 1.429 . S
C1593 C1589 1.429 . S
C1593 C1594 1.523 . S
C1594 C1578 1.368 . S
C1594 C1590 1.368 . S
C1594 C1593 1.523 . S
H1595 C1570 0.950 . S
H1596 C1572 0.950 . S
H1597 C1573 0.949 . S
H1598 C1575 0.950 . S
H1599 C1577 0.950 . S
C1600 C1601 1.349 1_545 S
C1600 C1602 1.327 . S
C1600 H1625 0.950 . S
C1601 C1600 1.349 1_565 S
C1601 C1617 1.349 . S
C1602 C1600 1.327 . S
C1602 C1621 1.429 1_545 S
C1602 H1626 0.950 . S
C1603 C1620 1.574 . S
C1603 C1622 1.368 . S
C1603 H1627 0.949 . S
H1604 C1608 0.949 . S
C1605 C1606 1.349 . S
C1605 C1607 1.327 . S
C1605 H1628 0.950 . S
C1606 C1605 1.349 . S
C1606 C1618 1.349 1_565 S
C1607 C1605 1.327 . S
C1607 C1623 1.429 . S
C1607 H1629 0.950 . S
C1608 H1604 0.949 . S
C1608 C1616 1.574 . S
C1608 C1624 1.368 1_545 S
H1609 C1617 0.950 . S
H1610 C1615 0.950 . S
H1611 C1616 0.949 . S
H1612 C1618 0.950 . S
H1613 C1619 0.950 . S
H1614 C1620 0.949 . S
C1615 H1610 0.950 . S
C1615 C1617 1.327 . S
C1615 C1621 1.429 . S
C1616 C1608 1.574 . S
C1616 H1611 0.949 . S
C1616 C1622 1.368 1_545 S
C1617 C1601 1.349 . S
C1617 H1609 0.950 . S
C1617 C1615 1.327 . S
C1618 C1606 1.349 1_545 S
C1618 H1612 0.950 . S
C1618 C1619 1.327 . S
C1619 H1613 0.950 . S
C1619 C1618 1.327 . S
C1619 C1623 1.429 1_545 S
C1620 C1603 1.574 . S
C1620 H1614 0.949 . S
C1620 C1624 1.368 . S
C1621 C1602 1.429 1_565 S
C1621 C1615 1.429 . S
C1621 C1622 1.523 . S
C1622 C1603 1.368 . S
C1622 C1616 1.368 1_565 S
C1622 C1621 1.523 . S
C1623 C1607 1.429 . S
C1623 C1619 1.429 1_565 S
C1623 C1624 1.523 . S
C1624 C1608 1.368 1_565 S
C1624 C1620 1.368 . S
C1624 C1623 1.523 . S
H1625 C1600 0.950 . S
H1626 C1602 0.950 . S
H1627 C1603 0.949 . S
H1628 C1605 0.950 . S
H1629 C1607 0.950 . S
C1630 C1631 1.349 . S
C1630 C1632 1.327 . S
C1630 H1655 0.950 . S
C1631 C1630 1.349 . S
C1631 C1647 1.349 . S
C1632 C1630 1.327 . S
C1632 C1651 1.429 . S
C1632 H1656 0.950 . S
C1633 C1650 1.574 . S
C1633 C1652 1.368 . S
C1633 H1657 0.949 . S
H1634 C1638 0.949 . S
C1635 C1636 1.349 . S
C1635 C1637 1.327 . S
C1635 H1658 0.950 . S
C1636 C1635 1.349 . S
C1636 C1648 1.349 . S
C1637 C1635 1.327 . S
C1637 C1653 1.429 . S
C1637 H1659 0.950 . S
C1638 H1634 0.949 . S
C1638 C1646 1.574 . S
C1638 C1654 1.368 . S
H1639 C1647 0.950 . S
H1640 C1645 0.950 . S
H1641 C1646 0.949 . S
H1642 C1648 0.950 . S
H1643 C1649 0.950 . S
H1644 C1650 0.949 . S
C1645 H1640 0.950 . S
C1645 C1647 1.327 . S
C1645 C1651 1.429 . S
C1646 C1638 1.574 . S
C1646 H1641 0.949 . S
C1646 C1652 1.368 . S
C1647 C1631 1.349 . S
C1647 H1639 0.950 . S
C1647 C1645 1.327 . S
C1648 C1636 1.349 . S
C1648 H1642 0.950 . S
C1648 C1649 1.327 . S
C1649 H1643 0.950 . S
C1649 C1648 1.327 . S
C1649 C1653 1.429 . S
C1650 C1633 1.574 . S
C1650 H1644 0.949 . S
C1650 C1654 1.368 . S
C1651 C1632 1.429 . S
C1651 C1645 1.429 . S
C1651 C1652 1.523 . S
C1652 C1633 1.368 . S
C1652 C1646 1.368 . S
C1652 C1651 1.523 . S
C1653 C1637 1.429 . S
C1653 C1649 1.429 . S
C1653 C1654 1.523 . S
C1654 C1638 1.368 . S
C1654 C1650 1.368 . S
C1654 C1653 1.523 . S
H1655 C1630 0.950 . S
H1656 C1632 0.950 . S
H1657 C1633 0.949 . S
H1658 C1635 0.950 . S
H1659 C1637 0.950 . S
C1660 C1661 1.349 . S
C1660 C1662 1.327 . S
C1660 H1685 0.950 . S
C1661 C1660 1.349 . S
C1661 C1677 1.349 . S
C1662 C1660 1.327 . S
C1662 C1681 1.429 . S
C1662 H1686 0.950 . S
C1663 C1680 1.574 . S
C1663 C1682 1.368 . S
C1663 H1687 0.949 . S
H1664 C1668 0.949 . S
C1665 C1666 1.349 . S
C1665 C1667 1.327 . S
C1665 H1688 0.950 . S
C1666 C1665 1.349 . S
C1666 C1678 1.349 . S
C1667 C1665 1.327 . S
C1667 C1683 1.429 . S
C1667 H1689 0.950 . S
C1668 H1664 0.949 . S
C1668 C1676 1.574 . S
C1668 C1684 1.368 . S
H1669 C1677 0.950 . S
H1670 C1675 0.950 . S
H1671 C1676 0.949 . S
H1672 C1678 0.950 . S
H1673 C1679 0.950 . S
H1674 C1680 0.949 . S
C1675 H1670 0.950 . S
C1675 C1677 1.327 . S
C1675 C1681 1.429 . S
C1676 C1668 1.574 . S
C1676 H1671 0.949 . S
C1676 C1682 1.368 . S
C1677 C1661 1.349 . S
C1677 H1669 0.950 . S
C1677 C1675 1.327 . S
C1678 C1666 1.349 . S
C1678 H1672 0.950 . S
C1678 C1679 1.327 . S
C1679 H1673 0.950 . S
C1679 C1678 1.327 . S
C1679 C1683 1.429 . S
C1680 C1663 1.574 . S
C1680 H1674 0.949 . S
C1680 C1684 1.368 . S
C1681 C1662 1.429 . S
C1681 C1675 1.429 . S
C1681 C1682 1.523 . S
C1682 C1663 1.368 . S
C1682 C1676 1.368 . S
C1682 C1681 1.523 . S
C1683 C1667 1.429 . S
C1683 C1679 1.429 . S
C1683 C1684 1.523 . S
C1684 C1668 1.368 . S
C1684 C1680 1.368 . S
C1684 C1683 1.523 . S
H1685 C1660 0.950 . S
H1686 C1662 0.950 . S
H1687 C1663 0.949 . S
H1688 C1665 0.950 . S
H1689 C1667 0.950 . S
C1690 C1691 1.349 1_545 S
C1690 C1692 1.327 . S
C1690 H1715 0.950 . S
C1691 C1690 1.349 1_565 S
C1691 C1707 1.349 . S
C1692 C1690 1.327 . S
C1692 C1711 1.429 1_545 S
C1692 H1716 0.950 . S
C1693 C1710 1.574 . S
C1693 C1712 1.368 . S
C1693 H1717 0.949 . S
H1694 C1698 0.949 . S
C1695 C1696 1.349 . S
C1695 C1697 1.327 . S
C1695 H1718 0.950 . S
C1696 C1695 1.349 . S
C1696 C1708 1.349 1_565 S
C1697 C1695 1.327 . S
C1697 C1713 1.429 . S
C1697 H1719 0.950 . S
C1698 H1694 0.949 . S
C1698 C1706 1.574 . S
C1698 C1714 1.368 1_545 S
H1699 C1707 0.950 . S
H1700 C1705 0.950 . S
H1701 C1706 0.949 . S
H1702 C1708 0.950 . S
H1703 C1709 0.950 . S
H1704 C1710 0.949 . S
C1705 H1700 0.950 . S
C1705 C1707 1.327 . S
C1705 C1711 1.429 . S
C1706 C1698 1.574 . S
C1706 H1701 0.949 . S
C1706 C1712 1.368 1_545 S
C1707 C1691 1.349 . S
C1707 H1699 0.950 . S
C1707 C1705 1.327 . S
C1708 C1696 1.349 1_545 S
C1708 H1702 0.950 . S
C1708 C1709 1.327 . S
C1709 H1703 0.950 . S
C1709 C1708 1.327 . S
C1709 C1713 1.429 1_545 S
C1710 C1693 1.574 . S
C1710 H1704 0.949 . S
C1710 C1714 1.368 . S
C1711 C1692 1.429 1_565 S
C1711 C1705 1.429 . S
C1711 C1712 1.523 . S
C1712 C1693 1.368 . S
C1712 C1706 1.368 1_565 S
C1712 C1711 1.523 . S
C1713 C1697 1.429 . S
C1713 C1709 1.429 1_565 S
C1713 C1714 1.523 . S
C1714 C1698 1.368 1_565 S
C1714 C1710 1.368 . S
C1714 C1713 1.523 . S
H1715 C1690 0.950 . S
H1716 C1692 0.950 . S
H1717 C1693 0.949 . S
H1718 C1695 0.950 . S
H1719 C1697 0.950 . S
C1720 C1721 1.349 . S
C1720 C1722 1.327 . S
C1720 H1745 0.950 . S
C1721 C1720 1.349 . S
C1721 C1737 1.349 1_545 S
C1722 C1720 1.327 . S
C1722 C1741 1.429 . S
C1722 H1746 0.950 . S
C1723 C1740 1.574 . S
C1723 C1742 1.368 1_565 S
C1723 H1747 0.949 . S
H1724 C1728 0.949 . S
C1725 C1726 1.349 1_565 S
C1725 C1727 1.327 . S
C1725 H1748 0.950 . S
C1726 C1725 1.349 1_545 S
C1726 C1738 1.349 . S
C1727 C1725 1.327 . S
C1727 C1743 1.429 1_565 S
C1727 H1749 0.950 . S
C1728 H1724 0.949 . S
C1728 C1736 1.574 . S
C1728 C1744 1.368 . S
H1729 C1737 0.950 . S
H1730 C1735 0.950 . S
H1731 C1736 0.949 . S
H1732 C1738 0.950 . S
H1733 C1739 0.950 . S
H1734 C1740 0.949 . S
C1735 H1730 0.950 . S
C1735 C1737 1.327 . S
C1735 C1741 1.429 1_565 S
C1736 C1728 1.574 . S
C1736 H1731 0.949 . S
C1736 C1742 1.368 . S
C1737 C1721 1.349 1_565 S
C1737 H1729 0.950 . S
C1737 C1735 1.327 . S
C1738 C1726 1.349 . S
C1738 H1732 0.950 . S
C1738 C1739 1.327 . S
C1739 H1733 0.950 . S
C1739 C1738 1.327 . S
C1739 C1743 1.429 . S
C1740 C1723 1.574 . S
C1740 H1734 0.949 . S
C1740 C1744 1.368 1_565 S
C1741 C1722 1.429 . S
C1741 C1735 1.429 1_545 S
C1741 C1742 1.523 . S
C1742 C1723 1.368 1_545 S
C1742 C1736 1.368 . S
C1742 C1741 1.523 . S
C1743 C1727 1.429 1_545 S
C1743 C1739 1.429 . S
C1743 C1744 1.523 . S
C1744 C1728 1.368 . S
C1744 C1740 1.368 1_545 S
C1744 C1743 1.523 . S
H1745 C1720 0.950 . S
H1746 C1722 0.950 . S
H1747 C1723 0.949 . S
H1748 C1725 0.950 . S
H1749 C1727 0.950 . S
C1750 C1751 1.349 . S
C1750 C1752 1.327 . S
C1750 H1775 0.950 . S
C1751 C1750 1.349 . S
C1751 C1767 1.349 . S
C1752 C1750 1.327 . S
C1752 C1771 1.429 . S
C1752 H1776 0.950 . S
C1753 C1770 1.574 . S
C1753 C1772 1.368 . S
C1753 H1777 0.949 . S
H1754 C1758 0.949 . S
C1755 C1756 1.349 . S
C1755 C1757 1.327 . S
C1755 H1778 0.950 . S
C1756 C1755 1.349 . S
C1756 C1768 1.349 . S
C1757 C1755 1.327 . S
C1757 C1773 1.429 . S
C1757 H1779 0.950 . S
C1758 H1754 0.949 . S
C1758 C1766 1.574 . S
C1758 C1774 1.368 . S
H1759 C1767 0.950 . S
H1760 C1765 0.950 . S
H1761 C1766 0.949 . S
H1762 C1768 0.950 . S
H1763 C1769 0.950 . S
H1764 C1770 0.949 . S
C1765 H1760 0.950 . S
C1765 C1767 1.327 . S
C1765 C1771 1.429 . S
C1766 C1758 1.574 . S
C1766 H1761 0.949 . S
C1766 C1772 1.368 . S
C1767 C1751 1.349 . S
C1767 H1759 0.950 . S
C1767 C1765 1.327 . S
C1768 C1756 1.349 . S
C1768 H1762 0.950 . S
C1768 C1769 1.327 . S
C1769 H1763 0.950 . S
C1769 C1768 1.327 . S
C1769 C1773 1.429 . S
C1770 C1753 1.574 . S
C1770 H1764 0.949 . S
C1770 C1774 1.368 . S
C1771 C1752 1.429 . S
C1771 C1765 1.429 . S
C1771 C1772 1.523 . S
C1772 C1753 1.368 . S
C1772 C1766 1.368 . S
C1772 C1771 1.523 . S
C1773 C1757 1.429 . S
C1773 C1769 1.429 . S
C1773 C1774 1.523 . S
C1774 C1758 1.368 . S
C1774 C1770 1.368 . S
C1774 C1773 1.523 . S
H1775 C1750 0.950 . S
H1776 C1752 0.950 . S
H1777 C1753 0.949 . S
H1778 C1755 0.950 . S
H1779 C1757 0.950 . S
C1780 C1781 1.349 . S
C1780 C1782 1.327 . S
C1780 H1805 0.950 . S
C1781 C1780 1.349 . S
C1781 C1797 1.349 . S
C1782 C1780 1.327 . S
C1782 C1801 1.429 . S
C1782 H1806 0.950 . S
C1783 C1800 1.574 . S
C1783 C1802 1.368 . S
C1783 H1807 0.949 . S
H1784 C1788 0.949 . S
C1785 C1786 1.349 . S
C1785 C1787 1.327 . S
C1785 H1808 0.950 . S
C1786 C1785 1.349 . S
C1786 C1798 1.349 . S
C1787 C1785 1.327 . S
C1787 C1803 1.429 . S
C1787 H1809 0.950 . S
C1788 H1784 0.949 . S
C1788 C1796 1.574 . S
C1788 C1804 1.368 . S
H1789 C1797 0.950 . S
H1790 C1795 0.950 . S
H1791 C1796 0.949 . S
H1792 C1798 0.950 . S
H1793 C1799 0.950 . S
H1794 C1800 0.949 . S
C1795 H1790 0.950 . S
C1795 C1797 1.327 . S
C1795 C1801 1.429 . S
C1796 C1788 1.574 . S
C1796 H1791 0.949 . S
C1796 C1802 1.368 . S
C1797 C1781 1.349 . S
C1797 H1789 0.950 . S
C1797 C1795 1.327 . S
C1798 C1786 1.349 . S
C1798 H1792 0.950 . S
C1798 C1799 1.327 . S
C1799 H1793 0.950 . S
C1799 C1798 1.327 . S
C1799 C1803 1.429 . S
C1800 C1783 1.574 . S
C1800 H1794 0.949 . S
C1800 C1804 1.368 . S
C1801 C1782 1.429 . S
C1801 C1795 1.429 . S
C1801 C1802 1.523 . S
C1802 C1783 1.368 . S
C1802 C1796 1.368 . S
C1802 C1801 1.523 . S
C1803 C1787 1.429 . S
C1803 C1799 1.429 . S
C1803 C1804 1.523 . S
C1804 C1788 1.368 . S
C1804 C1800 1.368 . S
C1804 C1803 1.523 . S
H1805 C1780 0.950 . S
H1806 C1782 0.950 . S
H1807 C1783 0.949 . S
H1808 C1785 0.950 . S
H1809 C1787 0.950 . S
C1810 C1811 1.349 . S
C1810 C1812 1.327 . S
C1810 H1835 0.950 . S
C1811 C1810 1.349 . S
C1811 C1827 1.349 1_545 S
C1812 C1810 1.327 . S
C1812 C1831 1.429 . S
C1812 H1836 0.950 . S
C1813 C1830 1.574 . S
C1813 C1832 1.368 1_565 S
C1813 H1837 0.949 . S
H1814 C1818 0.949 . S
C1815 C1816 1.349 1_565 S
C1815 C1817 1.327 . S
C1815 H1838 0.950 . S
C1816 C1815 1.349 1_545 S
C1816 C1828 1.349 . S
C1817 C1815 1.327 . S
C1817 C1833 1.429 1_565 S
C1817 H1839 0.950 . S
C1818 H1814 0.949 . S
C1818 C1826 1.574 . S
C1818 C1834 1.368 . S
H1819 C1827 0.950 . S
H1820 C1825 0.950 . S
H1821 C1826 0.949 . S
H1822 C1828 0.950 . S
H1823 C1829 0.950 . S
H1824 C1830 0.949 . S
C1825 H1820 0.950 . S
C1825 C1827 1.327 . S
C1825 C1831 1.429 1_565 S
C1826 C1818 1.574 . S
C1826 H1821 0.949 . S
C1826 C1832 1.368 . S
C1827 C1811 1.349 1_565 S
C1827 H1819 0.950 . S
C1827 C1825 1.327 . S
C1828 C1816 1.349 . S
C1828 H1822 0.950 . S
C1828 C1829 1.327 . S
C1829 H1823 0.950 . S
C1829 C1828 1.327 . S
C1829 C1833 1.429 . S
C1830 C1813 1.574 . S
C1830 H1824 0.949 . S
C1830 C1834 1.368 1_565 S
C1831 C1812 1.429 . S
C1831 C1825 1.429 1_545 S
C1831 C1832 1.523 . S
C1832 C1813 1.368 1_545 S
C1832 C1826 1.368 . S
C1832 C1831 1.523 . S
C1833 C1817 1.429 1_545 S
C1833 C1829 1.429 . S
C1833 C1834 1.523 . S
C1834 C1818 1.368 . S
C1834 C1830 1.368 1_545 S
C1834 C1833 1.523 . S
H1835 C1810 0.950 . S
H1836 C1812 0.950 . S
H1837 C1813 0.949 . S
H1838 C1815 0.950 . S
H1839 C1817 0.950 . S
C1840 C1841 1.349 . S
C1840 C1842 1.327 . S
C1840 H1865 0.950 . S
C1841 C1840 1.349 . S
C1841 C1857 1.349 . S
C1842 C1840 1.327 . S
C1842 C1861 1.429 . S
C1842 H1866 0.950 . S
C1843 C1860 1.574 . S
C1843 C1862 1.368 . S
C1843 H1867 0.949 . S
H1844 C1848 0.949 . S
C1845 C1846 1.349 . S
C1845 C1847 1.327 . S
C1845 H1868 0.950 . S
C1846 C1845 1.349 . S
C1846 C1858 1.349 . S
C1847 C1845 1.327 . S
C1847 C1863 1.429 . S
C1847 H1869 0.950 . S
C1848 H1844 0.949 . S
C1848 C1856 1.574 . S
C1848 C1864 1.368 . S
H1849 C1857 0.950 . S
H1850 C1855 0.950 . S
H1851 C1856 0.949 . S
H1852 C1858 0.950 . S
H1853 C1859 0.950 . S
H1854 C1860 0.949 . S
C1855 H1850 0.950 . S
C1855 C1857 1.327 . S
C1855 C1861 1.429 . S
C1856 C1848 1.574 . S
C1856 H1851 0.949 . S
C1856 C1862 1.368 . S
C1857 C1841 1.349 . S
C1857 H1849 0.950 . S
C1857 C1855 1.327 . S
C1858 C1846 1.349 . S
C1858 H1852 0.950 . S
C1858 C1859 1.327 . S
C1859 H1853 0.950 . S
C1859 C1858 1.327 . S
C1859 C1863 1.429 . S
C1860 C1843 1.574 . S
C1860 H1854 0.949 . S
C1860 C1864 1.368 . S
C1861 C1842 1.429 . S
C1861 C1855 1.429 . S
C1861 C1862 1.523 . S
C1862 C1843 1.368 . S
C1862 C1856 1.368 . S
C1862 C1861 1.523 . S
C1863 C1847 1.429 . S
C1863 C1859 1.429 . S
C1863 C1864 1.523 . S
C1864 C1848 1.368 . S
C1864 C1860 1.368 . S
C1864 C1863 1.523 . S
H1865 C1840 0.950 . S
H1866 C1842 0.950 . S
H1867 C1843 0.949 . S
H1868 C1845 0.950 . S
H1869 C1847 0.950 . S
C1870 C1871 1.349 . S
C1870 C1872 1.327 . S
C1870 H1895 0.950 . S
C1871 C1870 1.349 . S
C1871 C1887 1.349 . S
C1872 C1870 1.327 . S
C1872 C1891 1.429 . S
C1872 H1896 0.950 . S
C1873 C1890 1.574 . S
C1873 C1892 1.368 . S
C1873 H1897 0.949 . S
H1874 C1878 0.949 . S
C1875 C1876 1.349 . S
C1875 C1877 1.327 . S
C1875 H1898 0.950 . S
C1876 C1875 1.349 . S
C1876 C1888 1.349 . S
C1877 C1875 1.327 . S
C1877 C1893 1.429 . S
C1877 H1899 0.950 . S
C1878 H1874 0.949 . S
C1878 C1886 1.574 . S
C1878 C1894 1.368 . S
H1879 C1887 0.950 . S
H1880 C1885 0.950 . S
H1881 C1886 0.949 . S
H1882 C1888 0.950 . S
H1883 C1889 0.950 . S
H1884 C1890 0.949 . S
C1885 H1880 0.950 . S
C1885 C1887 1.327 . S
C1885 C1891 1.429 . S
C1886 C1878 1.574 . S
C1886 H1881 0.949 . S
C1886 C1892 1.368 . S
C1887 C1871 1.349 . S
C1887 H1879 0.950 . S
C1887 C1885 1.327 . S
C1888 C1876 1.349 . S
C1888 H1882 0.950 . S
C1888 C1889 1.327 . S
C1889 H1883 0.950 . S
C1889 C1888 1.327 . S
C1889 C1893 1.429 . S
C1890 C1873 1.574 . S
C1890 H1884 0.949 . S
C1890 C1894 1.368 . S
C1891 C1872 1.429 . S
C1891 C1885 1.429 . S
C1891 C1892 1.523 . S
C1892 C1873 1.368 . S
C1892 C1886 1.368 . S
C1892 C1891 1.523 . S
C1893 C1877 1.429 . S
C1893 C1889 1.429 . S
C1893 C1894 1.523 . S
C1894 C1878 1.368 . S
C1894 C1890 1.368 . S
C1894 C1893 1.523 . S
H1895 C1870 0.950 . S
H1896 C1872 0.950 . S
H1897 C1873 0.949 . S
H1898 C1875 0.950 . S
H1899 C1877 0.950 . S
C1900 C1901 1.349 . S
C1900 C1902 1.327 . S
C1900 H1925 0.950 . S
C1901 C1900 1.349 . S
C1901 C1917 1.349 . S
C1902 C1900 1.327 . S
C1902 C1921 1.429 . S
C1902 H1926 0.950 . S
C1903 C1920 1.574 . S
C1903 C1922 1.368 . S
C1903 H1927 0.949 . S
H1904 C1908 0.949 . S
C1905 C1906 1.349 . S
C1905 C1907 1.327 . S
C1905 H1928 0.950 . S
C1906 C1905 1.349 . S
C1906 C1918 1.349 . S
C1907 C1905 1.327 . S
C1907 C1923 1.429 . S
C1907 H1929 0.950 . S
C1908 H1904 0.949 . S
C1908 C1916 1.574 . S
C1908 C1924 1.368 . S
H1909 C1917 0.950 . S
H1910 C1915 0.950 . S
H1911 C1916 0.949 . S
H1912 C1918 0.950 . S
H1913 C1919 0.950 . S
H1914 C1920 0.949 . S
C1915 H1910 0.950 . S
C1915 C1917 1.327 . S
C1915 C1921 1.429 . S
C1916 C1908 1.574 . S
C1916 H1911 0.949 . S
C1916 C1922 1.368 . S
C1917 C1901 1.349 . S
C1917 H1909 0.950 . S
C1917 C1915 1.327 . S
C1918 C1906 1.349 . S
C1918 H1912 0.950 . S
C1918 C1919 1.327 . S
C1919 H1913 0.950 . S
C1919 C1918 1.327 . S
C1919 C1923 1.429 . S
C1920 C1903 1.574 . S
C1920 H1914 0.949 . S
C1920 C1924 1.368 . S
C1921 C1902 1.429 . S
C1921 C1915 1.429 . S
C1921 C1922 1.523 . S
C1922 C1903 1.368 . S
C1922 C1916 1.368 . S
C1922 C1921 1.523 . S
C1923 C1907 1.429 . S
C1923 C1919 1.429 . S
C1923 C1924 1.523 . S
C1924 C1908 1.368 . S
C1924 C1920 1.368 . S
C1924 C1923 1.523 . S
H1925 C1900 0.950 . S
H1926 C1902 0.950 . S
H1927 C1903 0.949 . S
H1928 C1905 0.950 . S
H1929 C1907 0.950 . S
C1930 C1931 1.349 . S
C1930 C1932 1.327 . S
C1930 H1955 0.950 . S
C1931 C1930 1.349 . S
C1931 C1947 1.349 . S
C1932 C1930 1.327 . S
C1932 C1951 1.429 . S
C1932 H1956 0.950 . S
C1933 C1950 1.574 . S
C1933 C1952 1.368 . S
C1933 H1957 0.949 . S
H1934 C1938 0.949 . S
C1935 C1936 1.349 . S
C1935 C1937 1.327 . S
C1935 H1958 0.950 . S
C1936 C1935 1.349 . S
C1936 C1948 1.349 . S
C1937 C1935 1.327 . S
C1937 C1953 1.429 . S
C1937 H1959 0.950 . S
C1938 H1934 0.949 . S
C1938 C1946 1.574 . S
C1938 C1954 1.368 . S
H1939 C1947 0.950 . S
H1940 C1945 0.950 . S
H1941 C1946 0.949 . S
H1942 C1948 0.950 . S
H1943 C1949 0.950 . S
H1944 C1950 0.949 . S
C1945 H1940 0.950 . S
C1945 C1947 1.327 . S
C1945 C1951 1.429 . S
C1946 C1938 1.574 . S
C1946 H1941 0.949 . S
C1946 C1952 1.368 . S
C1947 C1931 1.349 . S
C1947 H1939 0.950 . S
C1947 C1945 1.327 . S
C1948 C1936 1.349 . S
C1948 H1942 0.950 . S
C1948 C1949 1.327 . S
C1949 H1943 0.950 . S
C1949 C1948 1.327 . S
C1949 C1953 1.429 . S
C1950 C1933 1.574 . S
C1950 H1944 0.949 . S
C1950 C1954 1.368 . S
C1951 C1932 1.429 . S
C1951 C1945 1.429 . S
C1951 C1952 1.523 . S
C1952 C1933 1.368 . S
C1952 C1946 1.368 . S
C1952 C1951 1.523 . S
C1953 C1937 1.429 . S
C1953 C1949 1.429 . S
C1953 C1954 1.523 . S
C1954 C1938 1.368 . S
C1954 C1950 1.368 . S
C1954 C1953 1.523 . S
H1955 C1930 0.950 . S
H1956 C1932 0.950 . S
H1957 C1933 0.949 . S
H1958 C1935 0.950 . S
H1959 C1937 0.950 . S
C1960 C1961 1.349 . S
C1960 C1962 1.327 . S
C1960 H1985 0.950 . S
C1961 C1960 1.349 . S
C1961 C1977 1.349 . S
C1962 C1960 1.327 . S
C1962 C1981 1.429 . S
C1962 H1986 0.950 . S
C1963 C1980 1.574 . S
C1963 C1982 1.368 . S
C1963 H1987 0.949 . S
H1964 C1968 0.949 . S
C1965 C1966 1.349 . S
C1965 C1967 1.327 . S
C1965 H1988 0.950 . S
C1966 C1965 1.349 . S
C1966 C1978 1.349 . S
C1967 C1965 1.327 . S
C1967 C1983 1.429 . S
C1967 H1989 0.950 . S
C1968 H1964 0.949 . S
C1968 C1976 1.574 . S
C1968 C1984 1.368 . S
H1969 C1977 0.950 . S
H1970 C1975 0.950 . S
H1971 C1976 0.949 . S
H1972 C1978 0.950 . S
H1973 C1979 0.950 . S
H1974 C1980 0.949 . S
C1975 H1970 0.950 . S
C1975 C1977 1.327 . S
C1975 C1981 1.429 . S
C1976 C1968 1.574 . S
C1976 H1971 0.949 . S
C1976 C1982 1.368 . S
C1977 C1961 1.349 . S
C1977 H1969 0.950 . S
C1977 C1975 1.327 . S
C1978 C1966 1.349 . S
C1978 H1972 0.950 . S
C1978 C1979 1.327 . S
C1979 H1973 0.950 . S
C1979 C1978 1.327 . S
C1979 C1983 1.429 . S
C1980 C1963 1.574 . S
C1980 H1974 0.949 . S
C1980 C1984 1.368 . S
C1981 C1962 1.429 . S
C1981 C1975 1.429 . S
C1981 C1982 1.523 . S
C1982 C1963 1.368 . S
C1982 C1976 1.368 . S
C1982 C1981 1.523 . S
C1983 C1967 1.429 . S
C1983 C1979 1.429 . S
C1983 C1984 1.523 . S
C1984 C1968 1.368 . S
C1984 C1980 1.368 . S
C1984 C1983 1.523 . S
H1985 C1960 0.950 . S
H1986 C1962 0.950 . S
H1987 C1963 0.949 . S
H1988 C1965 0.950 . S
H1989 C1967 0.950 . S
C1990 C1991 1.349 . S
C1990 C1992 1.327 . S
C1990 H2015 0.950 . S
C1991 C1990 1.349 . S
C1991 C2007 1.349 . S
C1992 C1990 1.327 . S
C1992 C2011 1.429 . S
C1992 H2016 0.950 . S
C1993 C2010 1.574 . S
C1993 C2012 1.368 . S
C1993 H2017 0.949 . S
H1994 C1998 0.949 . S
C1995 C1996 1.349 . S
C1995 C1997 1.327 . S
C1995 H2018 0.950 . S
C1996 C1995 1.349 . S
C1996 C2008 1.349 . S
C1997 C1995 1.327 . S
C1997 C2013 1.429 . S
C1997 H2019 0.950 . S
C1998 H1994 0.949 . S
C1998 C2006 1.574 . S
C1998 C2014 1.368 . S
H1999 C2007 0.950 . S
H2000 C2005 0.950 . S
H2001 C2006 0.949 . S
H2002 C2008 0.950 . S
H2003 C2009 0.950 . S
H2004 C2010 0.949 . S
C2005 H2000 0.950 . S
C2005 C2007 1.327 . S
C2005 C2011 1.429 . S
C2006 C1998 1.574 . S
C2006 H2001 0.949 . S
C2006 C2012 1.368 . S
C2007 C1991 1.349 . S
C2007 H1999 0.950 . S
C2007 C2005 1.327 . S
C2008 C1996 1.349 . S
C2008 H2002 0.950 . S
C2008 C2009 1.327 . S
C2009 H2003 0.950 . S
C2009 C2008 1.327 . S
C2009 C2013 1.429 . S
C2010 C1993 1.574 . S
C2010 H2004 0.949 . S
C2010 C2014 1.368 . S
C2011 C1992 1.429 . S
C2011 C2005 1.429 . S
C2011 C2012 1.523 . S
C2012 C1993 1.368 . S
C2012 C2006 1.368 . S
C2012 C2011 1.523 . S
C2013 C1997 1.429 . S
C2013 C2009 1.429 . S
C2013 C2014 1.523 . S
C2014 C1998 1.368 . S
C2014 C2010 1.368 . S
C2014 C2013 1.523 . S
H2015 C1990 0.950 . S
H2016 C1992 0.950 . S
H2017 C1993 0.949 . S
H2018 C1995 0.950 . S
H2019 C1997 0.950 . S
C2020 C2021 1.349 . S
C2020 C2022 1.327 . S
C2020 H2045 0.950 . S
C2021 C2020 1.349 . S
C2021 C2037 1.349 . S
C2022 C2020 1.327 . S
C2022 C2041 1.429 . S
C2022 H2046 0.950 . S
C2023 C2040 1.574 . S
C2023 C2042 1.368 . S
C2023 H2047 0.949 . S
H2024 C2028 0.949 . S
C2025 C2026 1.349 . S
C2025 C2027 1.327 . S
C2025 H2048 0.950 . S
C2026 C2025 1.349 . S
C2026 C2038 1.349 . S
C2027 C2025 1.327 . S
C2027 C2043 1.429 . S
C2027 H2049 0.950 . S
C2028 H2024 0.949 . S
C2028 C2036 1.574 . S
C2028 C2044 1.368 . S
H2029 C2037 0.950 . S
H2030 C2035 0.950 . S
H2031 C2036 0.949 . S
H2032 C2038 0.950 . S
H2033 C2039 0.950 . S
H2034 C2040 0.949 . S
C2035 H2030 0.950 . S
C2035 C2037 1.327 . S
C2035 C2041 1.429 . S
C2036 C2028 1.574 . S
C2036 H2031 0.949 . S
C2036 C2042 1.368 . S
C2037 C2021 1.349 . S
C2037 H2029 0.950 . S
C2037 C2035 1.327 . S
C2038 C2026 1.349 . S
C2038 H2032 0.950 . S
C2038 C2039 1.327 . S
C2039 H2033 0.950 . S
C2039 C2038 1.327 . S
C2039 C2043 1.429 . S
C2040 C2023 1.574 . S
C2040 H2034 0.949 . S
C2040 C2044 1.368 . S
C2041 C2022 1.429 . S
C2041 C2035 1.429 . S
C2041 C2042 1.523 . S
C2042 C2023 1.368 . S
C2042 C2036 1.368 . S
C2042 C2041 1.523 . S
C2043 C2027 1.429 . S
C2043 C2039 1.429 . S
C2043 C2044 1.523 . S
C2044 C2028 1.368 . S
C2044 C2040 1.368 . S
C2044 C2043 1.523 . S
H2045 C2020 0.950 . S
H2046 C2022 0.950 . S
H2047 C2023 0.949 . S
H2048 C2025 0.950 . S
H2049 C2027 0.950 . S
C2050 C2051 1.349 . S
C2050 C2052 1.327 . S
C2050 H2075 0.950 . S
C2051 C2050 1.349 . S
C2051 C2067 1.349 . S
C2052 C2050 1.327 . S
C2052 C2071 1.429 . S
C2052 H2076 0.950 . S
C2053 C2070 1.574 . S
C2053 C2072 1.368 . S
C2053 H2077 0.949 . S
H2054 C2058 0.949 . S
C2055 C2056 1.349 . S
C2055 C2057 1.327 . S
C2055 H2078 0.950 . S
C2056 C2055 1.349 . S
C2056 C2068 1.349 . S
C2057 C2055 1.327 . S
C2057 C2073 1.429 . S
C2057 H2079 0.950 . S
C2058 H2054 0.949 . S
C2058 C2066 1.574 . S
C2058 C2074 1.368 . S
H2059 C2067 0.950 . S
H2060 C2065 0.950 . S
H2061 C2066 0.949 . S
H2062 C2068 0.950 . S
H2063 C2069 0.950 . S
H2064 C2070 0.949 . S
C2065 H2060 0.950 . S
C2065 C2067 1.327 . S
C2065 C2071 1.429 . S
C2066 C2058 1.574 . S
C2066 H2061 0.949 . S
C2066 C2072 1.368 . S
C2067 C2051 1.349 . S
C2067 H2059 0.950 . S
C2067 C2065 1.327 . S
C2068 C2056 1.349 . S
C2068 H2062 0.950 . S
C2068 C2069 1.327 . S
C2069 H2063 0.950 . S
C2069 C2068 1.327 . S
C2069 C2073 1.429 . S
C2070 C2053 1.574 . S
C2070 H2064 0.949 . S
C2070 C2074 1.368 . S
C2071 C2052 1.429 . S
C2071 C2065 1.429 . S
C2071 C2072 1.523 . S
C2072 C2053 1.368 . S
C2072 C2066 1.368 . S
C2072 C2071 1.523 . S
C2073 C2057 1.429 . S
C2073 C2069 1.429 . S
C2073 C2074 1.523 . S
C2074 C2058 1.368 . S
C2074 C2070 1.368 . S
C2074 C2073 1.523 . S
H2075 C2050 0.950 . S
H2076 C2052 0.950 . S
H2077 C2053 0.949 . S
H2078 C2055 0.950 . S
H2079 C2057 0.950 . S
C2080 C2081 1.349 . S
C2080 C2082 1.327 . S
C2080 H2105 0.950 . S
C2081 C2080 1.349 . S
C2081 C2097 1.349 . S
C2082 C2080 1.327 . S
C2082 C2101 1.429 . S
C2082 H2106 0.950 . S
C2083 C2100 1.574 . S
C2083 C2102 1.368 . S
C2083 H2107 0.949 . S
H2084 C2088 0.949 . S
C2085 C2086 1.349 . S
C2085 C2087 1.327 . S
C2085 H2108 0.950 . S
C2086 C2085 1.349 . S
C2086 C2098 1.349 . S
C2087 C2085 1.327 . S
C2087 C2103 1.429 . S
C2087 H2109 0.950 . S
C2088 H2084 0.949 . S
C2088 C2096 1.574 . S
C2088 C2104 1.368 . S
H2089 C2097 0.950 . S
H2090 C2095 0.950 . S
H2091 C2096 0.949 . S
H2092 C2098 0.950 . S
H2093 C2099 0.950 . S
H2094 C2100 0.949 . S
C2095 H2090 0.950 . S
C2095 C2097 1.327 . S
C2095 C2101 1.429 . S
C2096 C2088 1.574 . S
C2096 H2091 0.949 . S
C2096 C2102 1.368 . S
C2097 C2081 1.349 . S
C2097 H2089 0.950 . S
C2097 C2095 1.327 . S
C2098 C2086 1.349 . S
C2098 H2092 0.950 . S
C2098 C2099 1.327 . S
C2099 H2093 0.950 . S
C2099 C2098 1.327 . S
C2099 C2103 1.429 . S
C2100 C2083 1.574 . S
C2100 H2094 0.949 . S
C2100 C2104 1.368 . S
C2101 C2082 1.429 . S
C2101 C2095 1.429 . S
C2101 C2102 1.523 . S
C2102 C2083 1.368 . S
C2102 C2096 1.368 . S
C2102 C2101 1.523 . S
C2103 C2087 1.429 . S
C2103 C2099 1.429 . S
C2103 C2104 1.523 . S
C2104 C2088 1.368 . S
C2104 C2100 1.368 . S
C2104 C2103 1.523 . S
H2105 C2080 0.950 . S
H2106 C2082 0.950 . S
H2107 C2083 0.949 . S
H2108 C2085 0.950 . S
H2109 C2087 0.950 . S
C2110 C2111 1.349 . S
C2110 C2112 1.327 . S
C2110 H2135 0.950 . S
C2111 C2110 1.349 . S
C2111 C2127 1.349 . S
C2112 C2110 1.327 . S
C2112 C2131 1.429 . S
C2112 H2136 0.950 . S
C2113 C2130 1.574 . S
C2113 C2132 1.368 . S
C2113 H2137 0.949 . S
H2114 C2118 0.949 . S
C2115 C2116 1.349 . S
C2115 C2117 1.327 . S
C2115 H2138 0.950 . S
C2116 C2115 1.349 . S
C2116 C2128 1.349 . S
C2117 C2115 1.327 . S
C2117 C2133 1.429 . S
C2117 H2139 0.950 . S
C2118 H2114 0.949 . S
C2118 C2126 1.574 . S
C2118 C2134 1.368 . S
H2119 C2127 0.950 . S
H2120 C2125 0.950 . S
H2121 C2126 0.949 . S
H2122 C2128 0.950 . S
H2123 C2129 0.950 . S
H2124 C2130 0.949 . S
C2125 H2120 0.950 . S
C2125 C2127 1.327 . S
C2125 C2131 1.429 . S
C2126 C2118 1.574 . S
C2126 H2121 0.949 . S
C2126 C2132 1.368 . S
C2127 C2111 1.349 . S
C2127 H2119 0.950 . S
C2127 C2125 1.327 . S
C2128 C2116 1.349 . S
C2128 H2122 0.950 . S
C2128 C2129 1.327 . S
C2129 H2123 0.950 . S
C2129 C2128 1.327 . S
C2129 C2133 1.429 . S
C2130 C2113 1.574 . S
C2130 H2124 0.949 . S
C2130 C2134 1.368 . S
C2131 C2112 1.429 . S
C2131 C2125 1.429 . S
C2131 C2132 1.523 . S
C2132 C2113 1.368 . S
C2132 C2126 1.368 . S
C2132 C2131 1.523 . S
C2133 C2117 1.429 . S
C2133 C2129 1.429 . S
C2133 C2134 1.523 . S
C2134 C2118 1.368 . S
C2134 C2130 1.368 . S
C2134 C2133 1.523 . S
H2135 C2110 0.950 . S
H2136 C2112 0.950 . S
H2137 C2113 0.949 . S
H2138 C2115 0.950 . S
H2139 C2117 0.950 . S
C2140 C2141 1.349 . S
C2140 C2142 1.327 . S
C2140 H2165 0.950 . S
C2141 C2140 1.349 . S
C2141 C2157 1.349 . S
C2142 C2140 1.327 . S
C2142 C2161 1.429 . S
C2142 H2166 0.950 . S
C2143 C2160 1.574 . S
C2143 C2162 1.368 . S
C2143 H2167 0.949 . S
H2144 C2148 0.949 . S
C2145 C2146 1.349 . S
C2145 C2147 1.327 . S
C2145 H2168 0.950 . S
C2146 C2145 1.349 . S
C2146 C2158 1.349 . S
C2147 C2145 1.327 . S
C2147 C2163 1.429 . S
C2147 H2169 0.950 . S
C2148 H2144 0.949 . S
C2148 C2156 1.574 . S
C2148 C2164 1.368 . S
H2149 C2157 0.950 . S
H2150 C2155 0.950 . S
H2151 C2156 0.949 . S
H2152 C2158 0.950 . S
H2153 C2159 0.950 . S
H2154 C2160 0.949 . S
C2155 H2150 0.950 . S
C2155 C2157 1.327 . S
C2155 C2161 1.429 . S
C2156 C2148 1.574 . S
C2156 H2151 0.949 . S
C2156 C2162 1.368 . S
C2157 C2141 1.349 . S
C2157 H2149 0.950 . S
C2157 C2155 1.327 . S
C2158 C2146 1.349 . S
C2158 H2152 0.950 . S
C2158 C2159 1.327 . S
C2159 H2153 0.950 . S
C2159 C2158 1.327 . S
C2159 C2163 1.429 . S
C2160 C2143 1.574 . S
C2160 H2154 0.949 . S
C2160 C2164 1.368 . S
C2161 C2142 1.429 . S
C2161 C2155 1.429 . S
C2161 C2162 1.523 . S
C2162 C2143 1.368 . S
C2162 C2156 1.368 . S
C2162 C2161 1.523 . S
C2163 C2147 1.429 . S
C2163 C2159 1.429 . S
C2163 C2164 1.523 . S
C2164 C2148 1.368 . S
C2164 C2160 1.368 . S
C2164 C2163 1.523 . S
H2165 C2140 0.950 . S
H2166 C2142 0.950 . S
H2167 C2143 0.949 . S
H2168 C2145 0.950 . S
H2169 C2147 0.950 . S
C2170 C2171 1.349 . S
C2170 C2172 1.327 . S
C2170 H2195 0.950 . S
C2171 C2170 1.349 . S
C2171 C2187 1.349 . S
C2172 C2170 1.327 . S
C2172 C2191 1.429 . S
C2172 H2196 0.950 . S
C2173 C2190 1.574 . S
C2173 C2192 1.368 . S
C2173 H2197 0.949 . S
H2174 C2178 0.949 . S
C2175 C2176 1.349 . S
C2175 C2177 1.327 . S
C2175 H2198 0.950 . S
C2176 C2175 1.349 . S
C2176 C2188 1.349 . S
C2177 C2175 1.327 . S
C2177 C2193 1.429 . S
C2177 H2199 0.950 . S
C2178 H2174 0.949 . S
C2178 C2186 1.574 . S
C2178 C2194 1.368 . S
H2179 C2187 0.950 . S
H2180 C2185 0.950 . S
H2181 C2186 0.949 . S
H2182 C2188 0.950 . S
H2183 C2189 0.950 . S
H2184 C2190 0.949 . S
C2185 H2180 0.950 . S
C2185 C2187 1.327 . S
C2185 C2191 1.429 . S
C2186 C2178 1.574 . S
C2186 H2181 0.949 . S
C2186 C2192 1.368 . S
C2187 C2171 1.349 . S
C2187 H2179 0.950 . S
C2187 C2185 1.327 . S
C2188 C2176 1.349 . S
C2188 H2182 0.950 . S
C2188 C2189 1.327 . S
C2189 H2183 0.950 . S
C2189 C2188 1.327 . S
C2189 C2193 1.429 . S
C2190 C2173 1.574 . S
C2190 H2184 0.949 . S
C2190 C2194 1.368 . S
C2191 C2172 1.429 . S
C2191 C2185 1.429 . S
C2191 C2192 1.523 . S
C2192 C2173 1.368 . S
C2192 C2186 1.368 . S
C2192 C2191 1.523 . S
C2193 C2177 1.429 . S
C2193 C2189 1.429 . S
C2193 C2194 1.523 . S
C2194 C2178 1.368 . S
C2194 C2190 1.368 . S
C2194 C2193 1.523 . S
H2195 C2170 0.950 . S
H2196 C2172 0.950 . S
H2197 C2173 0.949 . S
H2198 C2175 0.950 . S
H2199 C2177 0.950 . S
C2200 C2201 1.349 . S
C2200 C2202 1.327 . S
C2200 H2225 0.950 . S
C2201 C2200 1.349 . S
C2201 C2217 1.349 . S
C2202 C2200 1.327 . S
C2202 C2221 1.429 . S
C2202 H2226 0.950 . S
C2203 C2220 1.574 . S
C2203 C2222 1.368 . S
C2203 H2227 0.949 . S
H2204 C2208 0.949 . S
C2205 C2206 1.349 . S
C2205 C2207 1.327 . S
C2205 H2228 0.950 . S
C2206 C2205 1.349 . S
C2206 C2218 1.349 . S
C2207 C2205 1.327 . S
C2207 C2223 1.429 . S
C2207 H2229 0.950 . S
C2208 H2204 0.949 . S
C2208 C2216 1.574 . S
C2208 C2224 1.368 . S
H2209 C2217 0.950 . S
H2210 C2215 0.950 . S
H2211 C2216 0.949 . S
H2212 C2218 0.950 . S
H2213 C2219 0.950 . S
H2214 C2220 0.949 . S
C2215 H2210 0.950 . S
C2215 C2217 1.327 . S
C2215 C2221 1.429 . S
C2216 C2208 1.574 . S
C2216 H2211 0.949 . S
C2216 C2222 1.368 . S
C2217 C2201 1.349 . S
C2217 H2209 0.950 . S
C2217 C2215 1.327 . S
C2218 C2206 1.349 . S
C2218 H2212 0.950 . S
C2218 C2219 1.327 . S
C2219 H2213 0.950 . S
C2219 C2218 1.327 . S
C2219 C2223 1.429 . S
C2220 C2203 1.574 . S
C2220 H2214 0.949 . S
C2220 C2224 1.368 . S
C2221 C2202 1.429 . S
C2221 C2215 1.429 . S
C2221 C2222 1.523 . S
C2222 C2203 1.368 . S
C2222 C2216 1.368 . S
C2222 C2221 1.523 . S
C2223 C2207 1.429 . S
C2223 C2219 1.429 . S
C2223 C2224 1.523 . S
C2224 C2208 1.368 . S
C2224 C2220 1.368 . S
C2224 C2223 1.523 . S
H2225 C2200 0.950 . S
H2226 C2202 0.950 . S
H2227 C2203 0.949 . S
H2228 C2205 0.950 . S
H2229 C2207 0.950 . S
C2230 C2231 1.349 . S
C2230 C2232 1.327 . S
C2230 H2255 0.950 . S
C2231 C2230 1.349 . S
C2231 C2247 1.349 . S
C2232 C2230 1.327 . S
C2232 C2251 1.429 . S
C2232 H2256 0.950 . S
C2233 C2250 1.574 . S
C2233 C2252 1.368 . S
C2233 H2257 0.949 . S
H2234 C2238 0.949 . S
C2235 C2236 1.349 . S
C2235 C2237 1.327 . S
C2235 H2258 0.950 . S
C2236 C2235 1.349 . S
C2236 C2248 1.349 . S
C2237 C2235 1.327 . S
C2237 C2253 1.429 . S
C2237 H2259 0.950 . S
C2238 H2234 0.949 . S
C2238 C2246 1.574 . S
C2238 C2254 1.368 . S
H2239 C2247 0.950 . S
H2240 C2245 0.950 . S
H2241 C2246 0.949 . S
H2242 C2248 0.950 . S
H2243 C2249 0.950 . S
H2244 C2250 0.949 . S
C2245 H2240 0.950 . S
C2245 C2247 1.327 . S
C2245 C2251 1.429 . S
C2246 C2238 1.574 . S
C2246 H2241 0.949 . S
C2246 C2252 1.368 . S
C2247 C2231 1.349 . S
C2247 H2239 0.950 . S
C2247 C2245 1.327 . S
C2248 C2236 1.349 . S
C2248 H2242 0.950 . S
C2248 C2249 1.327 . S
C2249 H2243 0.950 . S
C2249 C2248 1.327 . S
C2249 C2253 1.429 . S
C2250 C2233 1.574 . S
C2250 H2244 0.949 . S
C2250 C2254 1.368 . S
C2251 C2232 1.429 . S
C2251 C2245 1.429 . S
C2251 C2252 1.523 . S
C2252 C2233 1.368 . S
C2252 C2246 1.368 . S
C2252 C2251 1.523 . S
C2253 C2237 1.429 . S
C2253 C2249 1.429 . S
C2253 C2254 1.523 . S
C2254 C2238 1.368 . S
C2254 C2250 1.368 . S
C2254 C2253 1.523 . S
H2255 C2230 0.950 . S
H2256 C2232 0.950 . S
H2257 C2233 0.949 . S
H2258 C2235 0.950 . S
H2259 C2237 0.950 . S
C2260 C2261 1.349 . S
C2260 C2262 1.327 . S
C2260 H2285 0.950 . S
C2261 C2260 1.349 . S
C2261 C2277 1.349 . S
C2262 C2260 1.327 . S
C2262 C2281 1.429 . S
C2262 H2286 0.950 . S
C2263 C2280 1.574 . S
C2263 C2282 1.368 . S
C2263 H2287 0.949 . S
H2264 C2268 0.949 . S
C2265 C2266 1.349 . S
C2265 C2267 1.327 . S
C2265 H2288 0.950 . S
C2266 C2265 1.349 . S
C2266 C2278 1.349 . S
C2267 C2265 1.327 . S
C2267 C2283 1.429 . S
C2267 H2289 0.950 . S
C2268 H2264 0.949 . S
C2268 C2276 1.574 . S
C2268 C2284 1.368 . S
H2269 C2277 0.950 . S
H2270 C2275 0.950 . S
H2271 C2276 0.949 . S
H2272 C2278 0.950 . S
H2273 C2279 0.950 . S
H2274 C2280 0.949 . S
C2275 H2270 0.950 . S
C2275 C2277 1.327 . S
C2275 C2281 1.429 . S
C2276 C2268 1.574 . S
C2276 H2271 0.949 . S
C2276 C2282 1.368 . S
C2277 C2261 1.349 . S
C2277 H2269 0.950 . S
C2277 C2275 1.327 . S
C2278 C2266 1.349 . S
C2278 H2272 0.950 . S
C2278 C2279 1.327 . S
C2279 H2273 0.950 . S
C2279 C2278 1.327 . S
C2279 C2283 1.429 . S
C2280 C2263 1.574 . S
C2280 H2274 0.949 . S
C2280 C2284 1.368 . S
C2281 C2262 1.429 . S
C2281 C2275 1.429 . S
C2281 C2282 1.523 . S
C2282 C2263 1.368 . S
C2282 C2276 1.368 . S
C2282 C2281 1.523 . S
C2283 C2267 1.429 . S
C2283 C2279 1.429 . S
C2283 C2284 1.523 . S
C2284 C2268 1.368 . S
C2284 C2280 1.368 . S
C2284 C2283 1.523 . S
H2285 C2260 0.950 . S
H2286 C2262 0.950 . S
H2287 C2263 0.949 . S
H2288 C2265 0.950 . S
H2289 C2267 0.950 . S
C2290 C2291 1.349 . S
C2290 C2292 1.327 . S
C2290 H2315 0.950 . S
C2291 C2290 1.349 . S
C2291 C2307 1.349 . S
C2292 C2290 1.327 . S
C2292 C2311 1.429 . S
C2292 H2316 0.950 . S
C2293 C2310 1.574 . S
C2293 C2312 1.368 . S
C2293 H2317 0.949 . S
H2294 C2298 0.949 . S
C2295 C2296 1.349 . S
C2295 C2297 1.327 . S
C2295 H2318 0.950 . S
C2296 C2295 1.349 . S
C2296 C2308 1.349 . S
C2297 C2295 1.327 . S
C2297 C2313 1.429 . S
C2297 H2319 0.950 . S
C2298 H2294 0.949 . S
C2298 C2306 1.574 . S
C2298 C2314 1.368 . S
H2299 C2307 0.950 . S
H2300 C2305 0.950 . S
H2301 C2306 0.949 . S
H2302 C2308 0.950 . S
H2303 C2309 0.950 . S
H2304 C2310 0.949 . S
C2305 H2300 0.950 . S
C2305 C2307 1.327 . S
C2305 C2311 1.429 . S
C2306 C2298 1.574 . S
C2306 H2301 0.949 . S
C2306 C2312 1.368 . S
C2307 C2291 1.349 . S
C2307 H2299 0.950 . S
C2307 C2305 1.327 . S
C2308 C2296 1.349 . S
C2308 H2302 0.950 . S
C2308 C2309 1.327 . S
C2309 H2303 0.950 . S
C2309 C2308 1.327 . S
C2309 C2313 1.429 . S
C2310 C2293 1.574 . S
C2310 H2304 0.949 . S
C2310 C2314 1.368 . S
C2311 C2292 1.429 . S
C2311 C2305 1.429 . S
C2311 C2312 1.523 . S
C2312 C2293 1.368 . S
C2312 C2306 1.368 . S
C2312 C2311 1.523 . S
C2313 C2297 1.429 . S
C2313 C2309 1.429 . S
C2313 C2314 1.523 . S
C2314 C2298 1.368 . S
C2314 C2310 1.368 . S
C2314 C2313 1.523 . S
H2315 C2290 0.950 . S
H2316 C2292 0.950 . S
H2317 C2293 0.949 . S
H2318 C2295 0.950 . S
H2319 C2297 0.950 . S
C2320 C2321 1.349 . S
C2320 C2322 1.327 . S
C2320 H2345 0.950 . S
C2321 C2320 1.349 . S
C2321 C2337 1.349 . S
C2322 C2320 1.327 . S
C2322 C2341 1.429 . S
C2322 H2346 0.950 . S
C2323 C2340 1.574 . S
C2323 C2342 1.368 . S
C2323 H2347 0.949 . S
H2324 C2328 0.949 . S
C2325 C2326 1.349 . S
C2325 C2327 1.327 . S
C2325 H2348 0.950 . S
C2326 C2325 1.349 . S
C2326 C2338 1.349 . S
C2327 C2325 1.327 . S
C2327 C2343 1.429 . S
C2327 H2349 0.950 . S
C2328 H2324 0.949 . S
C2328 C2336 1.574 . S
C2328 C2344 1.368 . S
H2329 C2337 0.950 . S
H2330 C2335 0.950 . S
H2331 C2336 0.949 . S
H2332 C2338 0.950 . S
H2333 C2339 0.950 . S
H2334 C2340 0.949 . S
C2335 H2330 0.950 . S
C2335 C2337 1.327 . S
C2335 C2341 1.429 . S
C2336 C2328 1.574 . S
C2336 H2331 0.949 . S
C2336 C2342 1.368 . S
C2337 C2321 1.349 . S
C2337 H2329 0.950 . S
C2337 C2335 1.327 . S
C2338 C2326 1.349 . S
C2338 H2332 0.950 . S
C2338 C2339 1.327 . S
C2339 H2333 0.950 . S
C2339 C2338 1.327 . S
C2339 C2343 1.429 . S
C2340 C2323 1.574 . S
C2340 H2334 0.949 . S
C2340 C2344 1.368 . S
C2341 C2322 1.429 . S
C2341 C2335 1.429 . S
C2341 C2342 1.523 . S
C2342 C2323 1.368 . S
C2342 C2336 1.368 . S
C2342 C2341 1.523 . S
C2343 C2327 1.429 . S
C2343 C2339 1.429 . S
C2343 C2344 1.523 . S
C2344 C2328 1.368 . S
C2344 C2340 1.368 . S
C2344 C2343 1.523 . S
H2345 C2320 0.950 . S
H2346 C2322 0.950 . S
H2347 C2323 0.949 . S
H2348 C2325 0.950 . S
H2349 C2327 0.950 . S
C2350 C2351 1.349 . S
C2350 C2352 1.327 . S
C2350 H2375 0.950 . S
C2351 C2350 1.349 . S
C2351 C2367 1.349 . S
C2352 C2350 1.327 . S
C2352 C2371 1.429 . S
C2352 H2376 0.950 . S
C2353 C2370 1.574 . S
C2353 C2372 1.368 . S
C2353 H2377 0.949 . S
H2354 C2358 0.949 . S
C2355 C2356 1.349 . S
C2355 C2357 1.327 . S
C2355 H2378 0.950 . S
C2356 C2355 1.349 . S
C2356 C2368 1.349 . S
C2357 C2355 1.327 . S
C2357 C2373 1.429 . S
C2357 H2379 0.950 . S
C2358 H2354 0.949 . S
C2358 C2366 1.574 . S
C2358 C2374 1.368 . S
H2359 C2367 0.950 . S
H2360 C2365 0.950 . S
H2361 C2366 0.949 . S
H2362 C2368 0.950 . S
H2363 C2369 0.950 . S
H2364 C2370 0.949 . S
C2365 H2360 0.950 . S
C2365 C2367 1.327 . S
C2365 C2371 1.429 . S
C2366 C2358 1.574 . S
C2366 H2361 0.949 . S
C2366 C2372 1.368 . S
C2367 C2351 1.349 . S
C2367 H2359 0.950 . S
C2367 C2365 1.327 . S
C2368 C2356 1.349 . S
C2368 H2362 0.950 . S
C2368 C2369 1.327 . S
C2369 H2363 0.950 . S
C2369 C2368 1.327 . S
C2369 C2373 1.429 . S
C2370 C2353 1.574 . S
C2370 H2364 0.949 . S
C2370 C2374 1.368 . S
C2371 C2352 1.429 . S
C2371 C2365 1.429 . S
C2371 C2372 1.523 . S
C2372 C2353 1.368 . S
C2372 C2366 1.368 . S
C2372 C2371 1.523 . S
C2373 C2357 1.429 . S
C2373 C2369 1.429 . S
C2373 C2374 1.523 . S
C2374 C2358 1.368 . S
C2374 C2370 1.368 . S
C2374 C2373 1.523 . S
H2375 C2350 0.950 . S
H2376 C2352 0.950 . S
H2377 C2353 0.949 . S
H2378 C2355 0.950 . S
H2379 C2357 0.950 . S
C2380 C2381 1.349 . S
C2380 C2382 1.327 . S
C2380 H2405 0.950 . S
C2381 C2380 1.349 . S
C2381 C2397 1.349 . S
C2382 C2380 1.327 . S
C2382 C2401 1.429 . S
C2382 H2406 0.950 . S
C2383 C2400 1.574 . S
C2383 C2402 1.368 . S
C2383 H2407 0.949 . S
H2384 C2388 0.949 . S
C2385 C2386 1.349 . S
C2385 C2387 1.327 . S
C2385 H2408 0.950 . S
C2386 C2385 1.349 . S
C2386 C2398 1.349 . S
C2387 C2385 1.327 . S
C2387 C2403 1.429 . S
C2387 H2409 0.950 . S
C2388 H2384 0.949 . S
C2388 C2396 1.574 . S
C2388 C2404 1.368 . S
H2389 C2397 0.950 . S
H2390 C2395 0.950 . S
H2391 C2396 0.949 . S
H2392 C2398 0.950 . S
H2393 C2399 0.950 . S
H2394 C2400 0.949 . S
C2395 H2390 0.950 . S
C2395 C2397 1.327 . S
C2395 C2401 1.429 . S
C2396 C2388 1.574 . S
C2396 H2391 0.949 . S
C2396 C2402 1.368 . S
C2397 C2381 1.349 . S
C2397 H2389 0.950 . S
C2397 C2395 1.327 . S
C2398 C2386 1.349 . S
C2398 H2392 0.950 . S
C2398 C2399 1.327 . S
C2399 H2393 0.950 . S
C2399 C2398 1.327 . S
C2399 C2403 1.429 . S
C2400 C2383 1.574 . S
C2400 H2394 0.949 . S
C2400 C2404 1.368 . S
C2401 C2382 1.429 . S
C2401 C2395 1.429 . S
C2401 C2402 1.523 . S
C2402 C2383 1.368 . S
C2402 C2396 1.368 . S
C2402 C2401 1.523 . S
C2403 C2387 1.429 . S
C2403 C2399 1.429 . S
C2403 C2404 1.523 . S
C2404 C2388 1.368 . S
C2404 C2400 1.368 . S
C2404 C2403 1.523 . S
H2405 C2380 0.950 . S
H2406 C2382 0.950 . S
H2407 C2383 0.949 . S
H2408 C2385 0.950 . S
H2409 C2387 0.950 . S
C2410 C2411 1.349 . S
C2410 C2412 1.327 . S
C2410 H2435 0.950 . S
C2411 C2410 1.349 . S
C2411 C2427 1.349 . S
C2412 C2410 1.327 . S
C2412 C2431 1.429 . S
C2412 H2436 0.950 . S
C2413 C2430 1.574 . S
C2413 C2432 1.368 . S
C2413 H2437 0.949 . S
H2414 C2418 0.949 . S
C2415 C2416 1.349 . S
C2415 C2417 1.327 . S
C2415 H2438 0.950 . S
C2416 C2415 1.349 . S
C2416 C2428 1.349 . S
C2417 C2415 1.327 . S
C2417 C2433 1.429 . S
C2417 H2439 0.950 . S
C2418 H2414 0.949 . S
C2418 C2426 1.574 . S
C2418 C2434 1.368 . S
H2419 C2427 0.950 . S
H2420 C2425 0.950 . S
H2421 C2426 0.949 . S
H2422 C2428 0.950 . S
H2423 C2429 0.950 . S
H2424 C2430 0.949 . S
C2425 H2420 0.950 . S
C2425 C2427 1.327 . S
C2425 C2431 1.429 . S
C2426 C2418 1.574 . S
C2426 H2421 0.949 . S
C2426 C2432 1.368 . S
C2427 C2411 1.349 . S
C2427 H2419 0.950 . S
C2427 C2425 1.327 . S
C2428 C2416 1.349 . S
C2428 H2422 0.950 . S
C2428 C2429 1.327 . S
C2429 H2423 0.950 . S
C2429 C2428 1.327 . S
C2429 C2433 1.429 . S
C2430 C2413 1.574 . S
C2430 H2424 0.949 . S
C2430 C2434 1.368 . S
C2431 C2412 1.429 . S
C2431 C2425 1.429 . S
C2431 C2432 1.523 . S
C2432 C2413 1.368 . S
C2432 C2426 1.368 . S
C2432 C2431 1.523 . S
C2433 C2417 1.429 . S
C2433 C2429 1.429 . S
C2433 C2434 1.523 . S
C2434 C2418 1.368 . S
C2434 C2430 1.368 . S
C2434 C2433 1.523 . S
H2435 C2410 0.950 . S
H2436 C2412 0.950 . S
H2437 C2413 0.949 . S
H2438 C2415 0.950 . S
H2439 C2417 0.950 . S
C2440 C2441 1.349 . S
C2440 C2442 1.327 . S
C2440 H2465 0.950 . S
C2441 C2440 1.349 . S
C2441 C2457 1.349 . S
C2442 C2440 1.327 . S
C2442 C2461 1.429 . S
C2442 H2466 0.950 . S
C2443 C2460 1.574 . S
C2443 C2462 1.368 . S
C2443 H2467 0.949 . S
H2444 C2448 0.949 . S
C2445 C2446 1.349 . S
C2445 C2447 1.327 . S
C2445 H2468 0.950 . S
C2446 C2445 1.349 . S
C2446 C2458 1.349 . S
C2447 C2445 1.327 . S
C2447 C2463 1.429 . S
C2447 H2469 0.950 . S
C2448 H2444 0.949 . S
C2448 C2456 1.574 . S
C2448 C2464 1.368 . S
H2449 C2457 0.950 . S
H2450 C2455 0.950 . S
H2451 C2456 0.949 . S
H2452 C2458 0.950 . S
H2453 C2459 0.950 . S
H2454 C2460 0.949 . S
C2455 H2450 0.950 . S
C2455 C2457 1.327 . S
C2455 C2461 1.429 . S
C2456 C2448 1.574 . S
C2456 H2451 0.949 . S
C2456 C2462 1.368 . S
C2457 C2441 1.349 . S
C2457 H2449 0.950 . S
C2457 C2455 1.327 . S
C2458 C2446 1.349 . S
C2458 H2452 0.950 . S
C2458 C2459 1.327 . S
C2459 H2453 0.950 . S
C2459 C2458 1.327 . S
C2459 C2463 1.429 . S
C2460 C2443 1.574 . S
C2460 H2454 0.949 . S
C2460 C2464 1.368 . S
C2461 C2442 1.429 . S
C2461 C2455 1.429 . S
C2461 C2462 1.523 . S
C2462 C2443 1.368 . S
C2462 C2456 1.368 . S
C2462 C2461 1.523 . S
C2463 C2447 1.429 . S
C2463 C2459 1.429 . S
C2463 C2464 1.523 . S
C2464 C2448 1.368 . S
C2464 C2460 1.368 . S
C2464 C2463 1.523 . S
H2465 C2440 0.950 . S
H2466 C2442 0.950 . S
H2467 C2443 0.949 . S
H2468 C2445 0.950 . S
H2469 C2447 0.950 . S
C2470 C2471 1.349 . S
C2470 C2472 1.327 . S
C2470 H2495 0.950 . S
C2471 C2470 1.349 . S
C2471 C2487 1.349 . S
C2472 C2470 1.327 . S
C2472 C2491 1.429 . S
C2472 H2496 0.950 . S
C2473 C2490 1.574 . S
C2473 C2492 1.368 . S
C2473 H2497 0.949 . S
H2474 C2478 0.949 . S
C2475 C2476 1.349 . S
C2475 C2477 1.327 . S
C2475 H2498 0.950 . S
C2476 C2475 1.349 . S
C2476 C2488 1.349 . S
C2477 C2475 1.327 . S
C2477 C2493 1.429 . S
C2477 H2499 0.950 . S
C2478 H2474 0.949 . S
C2478 C2486 1.574 . S
C2478 C2494 1.368 . S
H2479 C2487 0.950 . S
H2480 C2485 0.950 . S
H2481 C2486 0.949 . S
H2482 C2488 0.950 . S
H2483 C2489 0.950 . S
H2484 C2490 0.949 . S
C2485 H2480 0.950 . S
C2485 C2487 1.327 . S
C2485 C2491 1.429 . S
C2486 C2478 1.574 . S
C2486 H2481 0.949 . S
C2486 C2492 1.368 . S
C2487 C2471 1.349 . S
C2487 H2479 0.950 . S
C2487 C2485 1.327 . S
C2488 C2476 1.349 . S
C2488 H2482 0.950 . S
C2488 C2489 1.327 . S
C2489 H2483 0.950 . S
C2489 C2488 1.327 . S
C2489 C2493 1.429 . S
C2490 C2473 1.574 . S
C2490 H2484 0.949 . S
C2490 C2494 1.368 . S
C2491 C2472 1.429 . S
C2491 C2485 1.429 . S
C2491 C2492 1.523 . S
C2492 C2473 1.368 . S
C2492 C2486 1.368 . S
C2492 C2491 1.523 . S
C2493 C2477 1.429 . S
C2493 C2489 1.429 . S
C2493 C2494 1.523 . S
C2494 C2478 1.368 . S
C2494 C2490 1.368 . S
C2494 C2493 1.523 . S
H2495 C2470 0.950 . S
H2496 C2472 0.950 . S
H2497 C2473 0.949 . S
H2498 C2475 0.950 . S
H2499 C2477 0.950 . S
C2500 C2501 1.349 . S
C2500 C2502 1.327 . S
C2500 H2525 0.950 . S
C2501 C2500 1.349 . S
C2501 C2517 1.349 . S
C2502 C2500 1.327 . S
C2502 C2521 1.429 . S
C2502 H2526 0.950 . S
C2503 C2520 1.574 . S
C2503 C2522 1.368 . S
C2503 H2527 0.949 . S
H2504 C2508 0.949 . S
C2505 C2506 1.349 . S
C2505 C2507 1.327 . S
C2505 H2528 0.950 . S
C2506 C2505 1.349 . S
C2506 C2518 1.349 . S
C2507 C2505 1.327 . S
C2507 C2523 1.429 . S
C2507 H2529 0.950 . S
C2508 H2504 0.949 . S
C2508 C2516 1.574 . S
C2508 C2524 1.368 . S
H2509 C2517 0.950 . S
H2510 C2515 0.950 . S
H2511 C2516 0.949 . S
H2512 C2518 0.950 . S
H2513 C2519 0.950 . S
H2514 C2520 0.949 . S
C2515 H2510 0.950 . S
C2515 C2517 1.327 . S
C2515 C2521 1.429 . S
C2516 C2508 1.574 . S
C2516 H2511 0.949 . S
C2516 C2522 1.368 . S
C2517 C2501 1.349 . S
C2517 H2509 0.950 . S
C2517 C2515 1.327 . S
C2518 C2506 1.349 . S
C2518 H2512 0.950 . S
C2518 C2519 1.327 . S
C2519 H2513 0.950 . S
C2519 C2518 1.327 . S
C2519 C2523 1.429 . S
C2520 C2503 1.574 . S
C2520 H2514 0.949 . S
C2520 C2524 1.368 . S
C2521 C2502 1.429 . S
C2521 C2515 1.429 . S
C2521 C2522 1.523 . S
C2522 C2503 1.368 . S
C2522 C2516 1.368 . S
C2522 C2521 1.523 . S
C2523 C2507 1.429 . S
C2523 C2519 1.429 . S
C2523 C2524 1.523 . S
C2524 C2508 1.368 . S
C2524 C2520 1.368 . S
C2524 C2523 1.523 . S
H2525 C2500 0.950 . S
H2526 C2502 0.950 . S
H2527 C2503 0.949 . S
H2528 C2505 0.950 . S
H2529 C2507 0.950 . S
C2530 C2531 1.349 . S
C2530 C2532 1.327 . S
C2530 H2555 0.950 . S
C2531 C2530 1.349 . S
C2531 C2547 1.349 . S
C2532 C2530 1.327 . S
C2532 C2551 1.429 . S
C2532 H2556 0.950 . S
C2533 C2550 1.574 . S
C2533 C2552 1.368 . S
C2533 H2557 0.949 . S
H2534 C2538 0.949 . S
C2535 C2536 1.349 . S
C2535 C2537 1.327 . S
C2535 H2558 0.950 . S
C2536 C2535 1.349 . S
C2536 C2548 1.349 . S
C2537 C2535 1.327 . S
C2537 C2553 1.429 . S
C2537 H2559 0.950 . S
C2538 H2534 0.949 . S
C2538 C2546 1.574 . S
C2538 C2554 1.368 . S
H2539 C2547 0.950 . S
H2540 C2545 0.950 . S
H2541 C2546 0.949 . S
H2542 C2548 0.950 . S
H2543 C2549 0.950 . S
H2544 C2550 0.949 . S
C2545 H2540 0.950 . S
C2545 C2547 1.327 . S
C2545 C2551 1.429 . S
C2546 C2538 1.574 . S
C2546 H2541 0.949 . S
C2546 C2552 1.368 . S
C2547 C2531 1.349 . S
C2547 H2539 0.950 . S
C2547 C2545 1.327 . S
C2548 C2536 1.349 . S
C2548 H2542 0.950 . S
C2548 C2549 1.327 . S
C2549 H2543 0.950 . S
C2549 C2548 1.327 . S
C2549 C2553 1.429 . S
C2550 C2533 1.574 . S
C2550 H2544 0.949 . S
C2550 C2554 1.368 . S
C2551 C2532 1.429 . S
C2551 C2545 1.429 . S
C2551 C2552 1.523 . S
C2552 C2533 1.368 . S
C2552 C2546 1.368 . S
C2552 C2551 1.523 . S
C2553 C2537 1.429 . S
C2553 C2549 1.429 . S
C2553 C2554 1.523 . S
C2554 C2538 1.368 . S
C2554 C2550 1.368 . S
C2554 C2553 1.523 . S
H2555 C2530 0.950 . S
H2556 C2532 0.950 . S
H2557 C2533 0.949 . S
H2558 C2535 0.950 . S
H2559 C2537 0.950 . S
C2560 C2561 1.349 . S
C2560 C2562 1.327 1_554 S
C2560 H2585 0.950 . S
C2561 C2560 1.349 . S
C2561 C2577 1.349 1_564 S
C2562 C2560 1.327 1_556 S
C2562 C2581 1.429 . S
C2562 H2586 0.950 . S
C2563 C2580 1.574 . S
C2563 C2582 1.368 1_545 S
C2563 H2587 0.949 . S
H2564 C2568 0.949 . S
C2565 C2566 1.349 1_545 S
C2565 C2567 1.327 . S
C2565 H2588 0.950 . S
C2566 C2565 1.349 1_565 S
C2566 C2578 1.349 . S
C2567 C2565 1.327 . S
C2567 C2583 1.429 1_545 S
C2567 H2589 0.950 . S
C2568 H2564 0.949 . S
C2568 C2576 1.574 . S
C2568 C2584 1.368 . S
H2569 C2577 0.950 . S
H2570 C2575 0.950 . S
H2571 C2576 0.949 . S
H2572 C2578 0.950 . S
H2573 C2579 0.950 . S
H2574 C2580 0.949 . S
C2575 H2570 0.950 . S
C2575 C2577 1.327 . S
C2575 C2581 1.429 1_545 S
C2576 C2568 1.574 . S
C2576 H2571 0.949 . S
C2576 C2582 1.368 . S
C2577 C2561 1.349 1_546 S
C2577 H2569 0.950 . S
C2577 C2575 1.327 . S
C2578 C2566 1.349 . S
C2578 H2572 0.950 . S
C2578 C2579 1.327 . S
C2579 H2573 0.950 . S
C2579 C2578 1.327 . S
C2579 C2583 1.429 . S
C2580 C2563 1.574 . S
C2580 H2574 0.949 . S
C2580 C2584 1.368 1_545 S
C2581 C2562 1.429 . S
C2581 C2575 1.429 1_565 S
C2581 C2582 1.523 . S
C2582 C2563 1.368 1_565 S
C2582 C2576 1.368 . S
C2582 C2581 1.523 . S
C2583 C2567 1.429 1_565 S
C2583 C2579 1.429 . S
C2583 C2584 1.523 . S
C2584 C2568 1.368 . S
C2584 C2580 1.368 1_565 S
C2584 C2583 1.523 . S
H2585 C2560 0.950 . S
H2586 C2562 0.950 . S
H2587 C2563 0.949 . S
H2588 C2565 0.950 . S
H2589 C2567 0.950 . S
C2590 C2591 1.349 . S
C2590 C2592 1.327 . S
C2590 H2615 0.950 . S
C2591 C2590 1.349 . S
C2591 C2607 1.349 . S
C2592 C2590 1.327 . S
C2592 C2611 1.429 . S
C2592 H2616 0.950 . S
C2593 C2610 1.574 . S
C2593 C2612 1.368 . S
C2593 H2617 0.949 . S
H2594 C2598 0.949 . S
C2595 C2596 1.349 1_556 S
C2595 C2597 1.327 . S
C2595 H2618 0.950 . S
C2596 C2595 1.349 1_554 S
C2596 C2608 1.349 . S
C2597 C2595 1.327 . S
C2597 C2613 1.429 1_655 S
C2597 H2619 0.950 . S
C2598 H2594 0.949 . S
C2598 C2606 1.574 . S
C2598 C2614 1.368 . S
H2599 C2607 0.950 . S
H2600 C2605 0.950 . S
H2601 C2606 0.949 . S
H2602 C2608 0.950 . S
H2603 C2609 0.950 . S
H2604 C2610 0.949 . S
C2605 H2600 0.950 . S
C2605 C2607 1.327 . S
C2605 C2611 1.429 . S
C2606 C2598 1.574 . S
C2606 H2601 0.949 . S
C2606 C2612 1.368 . S
C2607 C2591 1.349 . S
C2607 H2599 0.950 . S
C2607 C2605 1.327 . S
C2608 C2596 1.349 . S
C2608 H2602 0.950 . S
C2608 C2609 1.327 1_654 S
C2609 H2603 0.950 . S
C2609 C2608 1.327 1_456 S
C2609 C2613 1.429 . S
C2610 C2593 1.574 . S
C2610 H2604 0.949 . S
C2610 C2614 1.368 . S
C2611 C2592 1.429 . S
C2611 C2605 1.429 . S
C2611 C2612 1.523 . S
C2612 C2593 1.368 . S
C2612 C2606 1.368 . S
C2612 C2611 1.523 . S
C2613 C2597 1.429 1_455 S
C2613 C2609 1.429 . S
C2613 C2614 1.523 . S
C2614 C2598 1.368 . S
C2614 C2610 1.368 . S
C2614 C2613 1.523 . S
H2615 C2590 0.950 . S
H2616 C2592 0.950 . S
H2617 C2593 0.949 . S
H2618 C2595 0.950 . S
H2619 C2597 0.950 . S
C2620 C2621 1.349 . S
C2620 C2622 1.327 . S
C2620 H2645 0.950 . S
C2621 C2620 1.349 . S
C2621 C2637 1.349 . S
C2622 C2620 1.327 . S
C2622 C2641 1.429 . S
C2622 H2646 0.950 . S
C2623 C2640 1.574 . S
C2623 C2642 1.368 . S
C2623 H2647 0.949 . S
H2624 C2628 0.949 . S
C2625 C2626 1.349 . S
C2625 C2627 1.327 . S
C2625 H2648 0.950 . S
C2626 C2625 1.349 . S
C2626 C2638 1.349 . S
C2627 C2625 1.327 . S
C2627 C2643 1.429 . S
C2627 H2649 0.950 . S
C2628 H2624 0.949 . S
C2628 C2636 1.574 . S
C2628 C2644 1.368 . S
H2629 C2637 0.950 . S
H2630 C2635 0.950 . S
H2631 C2636 0.949 . S
H2632 C2638 0.950 . S
H2633 C2639 0.950 . S
H2634 C2640 0.949 . S
C2635 H2630 0.950 . S
C2635 C2637 1.327 . S
C2635 C2641 1.429 . S
C2636 C2628 1.574 . S
C2636 H2631 0.949 . S
C2636 C2642 1.368 . S
C2637 C2621 1.349 . S
C2637 H2629 0.950 . S
C2637 C2635 1.327 . S
C2638 C2626 1.349 . S
C2638 H2632 0.950 . S
C2638 C2639 1.327 . S
C2639 H2633 0.950 . S
C2639 C2638 1.327 . S
C2639 C2643 1.429 . S
C2640 C2623 1.574 . S
C2640 H2634 0.949 . S
C2640 C2644 1.368 . S
C2641 C2622 1.429 . S
C2641 C2635 1.429 . S
C2641 C2642 1.523 . S
C2642 C2623 1.368 . S
C2642 C2636 1.368 . S
C2642 C2641 1.523 . S
C2643 C2627 1.429 . S
C2643 C2639 1.429 . S
C2643 C2644 1.523 . S
C2644 C2628 1.368 . S
C2644 C2640 1.368 . S
C2644 C2643 1.523 . S
H2645 C2620 0.950 . S
H2646 C2622 0.950 . S
H2647 C2623 0.949 . S
H2648 C2625 0.950 . S
H2649 C2627 0.950 . S
C2650 C2651 1.349 1_545 S
C2650 C2652 1.327 . S
C2650 H2675 0.950 . S
C2651 C2650 1.349 1_565 S
C2651 C2667 1.349 . S
C2652 C2650 1.327 . S
C2652 C2671 1.429 1_645 S
C2652 H2676 0.950 . S
C2653 C2670 1.574 . S
C2653 C2672 1.368 . S
C2653 H2677 0.949 . S
H2654 C2658 0.949 . S
C2655 C2656 1.349 . S
C2655 C2657 1.327 . S
C2655 H2678 0.950 . S
C2656 C2655 1.349 . S
C2656 C2668 1.349 1_565 S
C2657 C2655 1.327 . S
C2657 C2673 1.429 . S
C2657 H2679 0.950 . S
C2658 H2654 0.949 . S
C2658 C2666 1.574 . S
C2658 C2674 1.368 1_545 S
H2659 C2667 0.950 . S
H2660 C2665 0.950 . S
H2661 C2666 0.949 . S
H2662 C2668 0.950 . S
H2663 C2669 0.950 . S
H2664 C2670 0.949 . S
C2665 H2660 0.950 . S
C2665 C2667 1.327 1_455 S
C2665 C2671 1.429 . S
C2666 C2658 1.574 . S
C2666 H2661 0.949 . S
C2666 C2672 1.368 1_545 S
C2667 C2651 1.349 . S
C2667 H2659 0.950 . S
C2667 C2665 1.327 1_655 S
C2668 C2656 1.349 1_545 S
C2668 H2662 0.950 . S
C2668 C2669 1.327 . S
C2669 H2663 0.950 . S
C2669 C2668 1.327 . S
C2669 C2673 1.429 1_545 S
C2670 C2653 1.574 . S
C2670 H2664 0.949 . S
C2670 C2674 1.368 . S
C2671 C2652 1.429 1_465 S
C2671 C2665 1.429 . S
C2671 C2672 1.523 . S
C2672 C2653 1.368 . S
C2672 C2666 1.368 1_565 S
C2672 C2671 1.523 . S
C2673 C2657 1.429 . S
C2673 C2669 1.429 1_565 S
C2673 C2674 1.523 . S
C2674 C2658 1.368 1_565 S
C2674 C2670 1.368 . S
C2674 C2673 1.523 . S
H2675 C2650 0.950 . S
H2676 C2652 0.950 . S
H2677 C2653 0.949 . S
H2678 C2655 0.950 . S
H2679 C2657 0.950 . S
C2680 C2681 1.349 . S
C2680 C2682 1.327 . S
C2680 H2705 0.950 . S
C2681 C2680 1.349 . S
C2681 C2697 1.349 1_545 S
C2682 C2680 1.327 . S
C2682 C2701 1.429 . S
C2682 H2706 0.950 . S
C2683 C2700 1.574 . S
C2683 C2702 1.368 1_565 S
C2683 H2707 0.949 . S
H2684 C2688 0.949 . S
C2685 C2686 1.349 1_564 S
C2685 C2687 1.327 . S
C2685 H2708 0.950 . S
C2686 C2685 1.349 1_546 S
C2686 C2698 1.349 . S
C2687 C2685 1.327 . S
C2687 C2703 1.429 1_565 S
C2687 H2709 0.950 . S
C2688 H2684 0.949 . S
C2688 C2696 1.574 . S
C2688 C2704 1.368 . S
H2689 C2697 0.950 . S
H2690 C2695 0.950 . S
H2691 C2696 0.949 . S
H2692 C2698 0.950 . S
H2693 C2699 0.950 . S
H2694 C2700 0.949 . S
C2695 H2690 0.950 . S
C2695 C2697 1.327 . S
C2695 C2701 1.429 1_565 S
C2696 C2688 1.574 . S
C2696 H2691 0.949 . S
C2696 C2702 1.368 . S
C2697 C2681 1.349 1_565 S
C2697 H2689 0.950 . S
C2697 C2695 1.327 . S
C2698 C2686 1.349 . S
C2698 H2692 0.950 . S
C2698 C2699 1.327 1_556 S
C2699 H2693 0.950 . S
C2699 C2698 1.327 1_554 S
C2699 C2703 1.429 . S
C2700 C2683 1.574 . S
C2700 H2694 0.949 . S
C2700 C2704 1.368 1_565 S
C2701 C2682 1.429 . S
C2701 C2695 1.429 1_545 S
C2701 C2702 1.523 . S
C2702 C2683 1.368 1_545 S
C2702 C2696 1.368 . S
C2702 C2701 1.523 . S
C2703 C2687 1.429 1_545 S
C2703 C2699 1.429 . S
C2703 C2704 1.523 . S
C2704 C2688 1.368 . S
C2704 C2700 1.368 1_545 S
C2704 C2703 1.523 . S
H2705 C2680 0.950 . S
H2706 C2682 0.950 . S
H2707 C2683 0.949 . S
H2708 C2685 0.950 . S
H2709 C2687 0.950 . S
C2710 C2711 1.349 1_554 S
C2710 C2712 1.327 . S
C2710 H2735 0.950 . S
C2711 C2710 1.349 1_556 S
C2711 C2727 1.349 . S
C2712 C2710 1.327 . S
C2712 C2731 1.429 1_455 S
C2712 H2736 0.950 . S
C2713 C2730 1.574 . S
C2713 C2732 1.368 . S
C2713 H2737 0.949 . S
H2714 C2718 0.949 . S
C2715 C2716 1.349 . S
C2715 C2717 1.327 . S
C2715 H2738 0.950 . S
C2716 C2715 1.349 . S
C2716 C2728 1.349 . S
C2717 C2715 1.327 . S
C2717 C2733 1.429 . S
C2717 H2739 0.950 . S
C2718 H2714 0.949 . S
C2718 C2726 1.574 . S
C2718 C2734 1.368 . S
H2719 C2727 0.950 . S
H2720 C2725 0.950 . S
H2721 C2726 0.949 . S
H2722 C2728 0.950 . S
H2723 C2729 0.950 . S
H2724 C2730 0.949 . S
C2725 H2720 0.950 . S
C2725 C2727 1.327 1_654 S
C2725 C2731 1.429 . S
C2726 C2718 1.574 . S
C2726 H2721 0.949 . S
C2726 C2732 1.368 . S
C2727 C2711 1.349 . S
C2727 H2719 0.950 . S
C2727 C2725 1.327 1_456 S
C2728 C2716 1.349 . S
C2728 H2722 0.950 . S
C2728 C2729 1.327 . S
C2729 H2723 0.950 . S
C2729 C2728 1.327 . S
C2729 C2733 1.429 . S
C2730 C2713 1.574 . S
C2730 H2724 0.949 . S
C2730 C2734 1.368 . S
C2731 C2712 1.429 1_655 S
C2731 C2725 1.429 . S
C2731 C2732 1.523 . S
C2732 C2713 1.368 . S
C2732 C2726 1.368 . S
C2732 C2731 1.523 . S
C2733 C2717 1.429 . S
C2733 C2729 1.429 . S
C2733 C2734 1.523 . S
C2734 C2718 1.368 . S
C2734 C2730 1.368 . S
C2734 C2733 1.523 . S
H2735 C2710 0.950 . S
H2736 C2712 0.950 . S
H2737 C2713 0.949 . S
H2738 C2715 0.950 . S
H2739 C2717 0.950 . S
C2740 C2741 1.349 . S
C2740 C2742 1.327 . S
C2740 H2765 0.950 . S
C2741 C2740 1.349 . S
C2741 C2757 1.349 . S
C2742 C2740 1.327 . S
C2742 C2761 1.429 . S
C2742 H2766 0.950 . S
C2743 C2760 1.574 . S
C2743 C2762 1.368 . S
C2743 H2767 0.949 . S
H2744 C2748 0.949 . S
C2745 C2746 1.349 . S
C2745 C2747 1.327 . S
C2745 H2768 0.950 . S
C2746 C2745 1.349 . S
C2746 C2758 1.349 . S
C2747 C2745 1.327 . S
C2747 C2763 1.429 . S
C2747 H2769 0.950 . S
C2748 H2744 0.949 . S
C2748 C2756 1.574 . S
C2748 C2764 1.368 . S
H2749 C2757 0.950 . S
H2750 C2755 0.950 . S
H2751 C2756 0.949 . S
H2752 C2758 0.950 . S
H2753 C2759 0.950 . S
H2754 C2760 0.949 . S
C2755 H2750 0.950 . S
C2755 C2757 1.327 . S
C2755 C2761 1.429 . S
C2756 C2748 1.574 . S
C2756 H2751 0.949 . S
C2756 C2762 1.368 . S
C2757 C2741 1.349 . S
C2757 H2749 0.950 . S
C2757 C2755 1.327 . S
C2758 C2746 1.349 . S
C2758 H2752 0.950 . S
C2758 C2759 1.327 . S
C2759 H2753 0.950 . S
C2759 C2758 1.327 . S
C2759 C2763 1.429 . S
C2760 C2743 1.574 . S
C2760 H2754 0.949 . S
C2760 C2764 1.368 . S
C2761 C2742 1.429 . S
C2761 C2755 1.429 . S
C2761 C2762 1.523 . S
C2762 C2743 1.368 . S
C2762 C2756 1.368 . S
C2762 C2761 1.523 . S
C2763 C2747 1.429 . S
C2763 C2759 1.429 . S
C2763 C2764 1.523 . S
C2764 C2748 1.368 . S
C2764 C2760 1.368 . S
C2764 C2763 1.523 . S
H2765 C2740 0.950 . S
H2766 C2742 0.950 . S
H2767 C2743 0.949 . S
H2768 C2745 0.950 . S
H2769 C2747 0.950 . S
C2770 C2771 1.349 1_565 S
C2770 C2772 1.327 . S
C2770 H2795 0.950 . S
C2771 C2770 1.349 1_545 S
C2771 C2787 1.349 . S
C2772 C2770 1.327 . S
C2772 C2791 1.429 1_565 S
C2772 H2796 0.950 . S
C2773 C2790 1.574 . S
C2773 C2792 1.368 . S
C2773 H2797 0.949 . S
H2774 C2778 0.949 . S
C2775 C2776 1.349 . S
C2775 C2777 1.327 1_455 S
C2775 H2798 0.950 . S
C2776 C2775 1.349 . S
C2776 C2788 1.349 1_545 S
C2777 C2775 1.327 1_655 S
C2777 C2793 1.429 . S
C2777 H2799 0.950 . S
C2778 H2774 0.949 . S
C2778 C2786 1.574 . S
C2778 C2794 1.368 1_565 S
H2779 C2787 0.950 . S
H2780 C2785 0.950 . S
H2781 C2786 0.949 . S
H2782 C2788 0.950 . S
H2783 C2789 0.950 . S
H2784 C2790 0.949 . S
C2785 H2780 0.950 . S
C2785 C2787 1.327 . S
C2785 C2791 1.429 . S
C2786 C2778 1.574 . S
C2786 H2781 0.949 . S
C2786 C2792 1.368 1_565 S
C2787 C2771 1.349 . S
C2787 H2779 0.950 . S
C2787 C2785 1.327 . S
C2788 C2776 1.349 1_565 S
C2788 H2782 0.950 . S
C2788 C2789 1.327 . S
C2789 H2783 0.950 . S
C2789 C2788 1.327 . S
C2789 C2793 1.429 1_465 S
C2790 C2773 1.574 . S
C2790 H2784 0.949 . S
C2790 C2794 1.368 . S
C2791 C2772 1.429 1_545 S
C2791 C2785 1.429 . S
C2791 C2792 1.523 . S
C2792 C2773 1.368 . S
C2792 C2786 1.368 1_545 S
C2792 C2791 1.523 . S
C2793 C2777 1.429 . S
C2793 C2789 1.429 1_645 S
C2793 C2794 1.523 . S
C2794 C2778 1.368 1_545 S
C2794 C2790 1.368 . S
C2794 C2793 1.523 . S
H2795 C2770 0.950 . S
H2796 C2772 0.950 . S
H2797 C2773 0.949 . S
H2798 C2775 0.950 . S
H2799 C2777 0.950 . S
C2800 C2801 1.349 . S
C2800 C2802 1.327 . S
C2800 H2825 0.950 . S
C2801 C2800 1.349 . S
C2801 C2817 1.349 . S
C2802 C2800 1.327 . S
C2802 C2821 1.429 . S
C2802 H2826 0.950 . S
C2803 C2820 1.574 . S
C2803 C2822 1.368 . S
C2803 H2827 0.949 . S
H2804 C2808 0.949 . S
C2805 C2806 1.349 . S
C2805 C2807 1.327 . S
C2805 H2828 0.950 . S
C2806 C2805 1.349 . S
C2806 C2818 1.349 . S
C2807 C2805 1.327 . S
C2807 C2823 1.429 . S
C2807 H2829 0.950 . S
C2808 H2804 0.949 . S
C2808 C2816 1.574 . S
C2808 C2824 1.368 . S
H2809 C2817 0.950 . S
H2810 C2815 0.950 . S
H2811 C2816 0.949 . S
H2812 C2818 0.950 . S
H2813 C2819 0.950 . S
H2814 C2820 0.949 . S
C2815 H2810 0.950 . S
C2815 C2817 1.327 . S
C2815 C2821 1.429 . S
C2816 C2808 1.574 . S
C2816 H2811 0.949 . S
C2816 C2822 1.368 . S
C2817 C2801 1.349 . S
C2817 H2809 0.950 . S
C2817 C2815 1.327 . S
C2818 C2806 1.349 . S
C2818 H2812 0.950 . S
C2818 C2819 1.327 . S
C2819 H2813 0.950 . S
C2819 C2818 1.327 . S
C2819 C2823 1.429 . S
C2820 C2803 1.574 . S
C2820 H2814 0.949 . S
C2820 C2824 1.368 . S
C2821 C2802 1.429 . S
C2821 C2815 1.429 . S
C2821 C2822 1.523 . S
C2822 C2803 1.368 . S
C2822 C2816 1.368 . S
C2822 C2821 1.523 . S
C2823 C2807 1.429 . S
C2823 C2819 1.429 . S
C2823 C2824 1.523 . S
C2824 C2808 1.368 . S
C2824 C2820 1.368 . S
C2824 C2823 1.523 . S
H2825 C2800 0.950 . S
H2826 C2802 0.950 . S
H2827 C2803 0.949 . S
H2828 C2805 0.950 . S
H2829 C2807 0.950 . S
C2830 C2831 1.349 . S
C2830 C2832 1.327 . S
C2830 H2855 0.950 . S
C2831 C2830 1.349 . S
C2831 C2847 1.349 . S
C2832 C2830 1.327 . S
C2832 C2851 1.429 . S
C2832 H2856 0.950 . S
C2833 C2850 1.574 . S
C2833 C2852 1.368 . S
C2833 H2857 0.949 . S
H2834 C2838 0.949 . S
C2835 C2836 1.349 . S
C2835 C2837 1.327 1_655 S
C2835 H2858 0.950 . S
C2836 C2835 1.349 . S
C2836 C2848 1.349 . S
C2837 C2835 1.327 1_455 S
C2837 C2853 1.429 . S
C2837 H2859 0.950 . S
C2838 H2834 0.949 . S
C2838 C2846 1.574 . S
C2838 C2854 1.368 . S
H2839 C2847 0.950 . S
H2840 C2845 0.950 . S
H2841 C2846 0.949 . S
H2842 C2848 0.950 . S
H2843 C2849 0.950 . S
H2844 C2850 0.949 . S
C2845 H2840 0.950 . S
C2845 C2847 1.327 . S
C2845 C2851 1.429 . S
C2846 C2838 1.574 . S
C2846 H2841 0.949 . S
C2846 C2852 1.368 . S
C2847 C2831 1.349 . S
C2847 H2839 0.950 . S
C2847 C2845 1.327 . S
C2848 C2836 1.349 . S
C2848 H2842 0.950 . S
C2848 C2849 1.327 . S
C2849 H2843 0.950 . S
C2849 C2848 1.327 . S
C2849 C2853 1.429 1_655 S
C2850 C2833 1.574 . S
C2850 H2844 0.949 . S
C2850 C2854 1.368 . S
C2851 C2832 1.429 . S
C2851 C2845 1.429 . S
C2851 C2852 1.523 . S
C2852 C2833 1.368 . S
C2852 C2846 1.368 . S
C2852 C2851 1.523 . S
C2853 C2837 1.429 . S
C2853 C2849 1.429 1_455 S
C2853 C2854 1.523 . S
C2854 C2838 1.368 . S
C2854 C2850 1.368 . S
C2854 C2853 1.523 . S
H2855 C2830 0.950 . S
H2856 C2832 0.950 . S
H2857 C2833 0.949 . S
H2858 C2835 0.950 . S
H2859 C2837 0.950 . S
C2860 C2861 1.349 . S
C2860 C2862 1.327 . S
C2860 H2885 0.950 . S
C2861 C2860 1.349 . S
C2861 C2877 1.349 . S
C2862 C2860 1.327 . S
C2862 C2881 1.429 . S
C2862 H2886 0.950 . S
C2863 C2880 1.574 . S
C2863 C2882 1.368 . S
C2863 H2887 0.949 . S
H2864 C2868 0.949 . S
C2865 C2866 1.349 . S
C2865 C2867 1.327 . S
C2865 H2888 0.950 . S
C2866 C2865 1.349 . S
C2866 C2878 1.349 . S
C2867 C2865 1.327 . S
C2867 C2883 1.429 . S
C2867 H2889 0.950 . S
C2868 H2864 0.949 . S
C2868 C2876 1.574 . S
C2868 C2884 1.368 . S
H2869 C2877 0.950 . S
H2870 C2875 0.950 . S
H2871 C2876 0.949 . S
H2872 C2878 0.950 . S
H2873 C2879 0.950 . S
H2874 C2880 0.949 . S
C2875 H2870 0.950 . S
C2875 C2877 1.327 . S
C2875 C2881 1.429 . S
C2876 C2868 1.574 . S
C2876 H2871 0.949 . S
C2876 C2882 1.368 . S
C2877 C2861 1.349 . S
C2877 H2869 0.950 . S
C2877 C2875 1.327 . S
C2878 C2866 1.349 . S
C2878 H2872 0.950 . S
C2878 C2879 1.327 . S
C2879 H2873 0.950 . S
C2879 C2878 1.327 . S
C2879 C2883 1.429 . S
C2880 C2863 1.574 . S
C2880 H2874 0.949 . S
C2880 C2884 1.368 . S
C2881 C2862 1.429 . S
C2881 C2875 1.429 . S
C2881 C2882 1.523 . S
C2882 C2863 1.368 . S
C2882 C2876 1.368 . S
C2882 C2881 1.523 . S
C2883 C2867 1.429 . S
C2883 C2879 1.429 . S
C2883 C2884 1.523 . S
C2884 C2868 1.368 . S
C2884 C2880 1.368 . S
C2884 C2883 1.523 . S
H2885 C2860 0.950 . S
H2886 C2862 0.950 . S
H2887 C2863 0.949 . S
H2888 C2865 0.950 . S
H2889 C2867 0.950 . S
C2890 C2891 1.349 . S
C2890 C2892 1.327 . S
C2890 H2915 0.950 . S
C2891 C2890 1.349 . S
C2891 C2907 1.349 . S
C2892 C2890 1.327 . S
C2892 C2911 1.429 . S
C2892 H2916 0.950 . S
C2893 C2910 1.574 . S
C2893 C2912 1.368 . S
C2893 H2917 0.949 . S
H2894 C2898 0.949 . S
C2895 C2896 1.349 . S
C2895 C2897 1.327 1_655 S
C2895 H2918 0.950 . S
C2896 C2895 1.349 . S
C2896 C2908 1.349 . S
C2897 C2895 1.327 1_455 S
C2897 C2913 1.429 . S
C2897 H2919 0.950 . S
C2898 H2894 0.949 . S
C2898 C2906 1.574 . S
C2898 C2914 1.368 . S
H2899 C2907 0.950 . S
H2900 C2905 0.950 . S
H2901 C2906 0.949 . S
H2902 C2908 0.950 . S
H2903 C2909 0.950 . S
H2904 C2910 0.949 . S
C2905 H2900 0.950 . S
C2905 C2907 1.327 . S
C2905 C2911 1.429 . S
C2906 C2898 1.574 . S
C2906 H2901 0.949 . S
C2906 C2912 1.368 . S
C2907 C2891 1.349 . S
C2907 H2899 0.950 . S
C2907 C2905 1.327 . S
C2908 C2896 1.349 . S
C2908 H2902 0.950 . S
C2908 C2909 1.327 . S
C2909 H2903 0.950 . S
C2909 C2908 1.327 . S
C2909 C2913 1.429 1_655 S
C2910 C2893 1.574 . S
C2910 H2904 0.949 . S
C2910 C2914 1.368 . S
C2911 C2892 1.429 . S
C2911 C2905 1.429 . S
C2911 C2912 1.523 . S
C2912 C2893 1.368 . S
C2912 C2906 1.368 . S
C2912 C2911 1.523 . S
C2913 C2897 1.429 . S
C2913 C2909 1.429 1_455 S
C2913 C2914 1.523 . S
C2914 C2898 1.368 . S
C2914 C2910 1.368 . S
C2914 C2913 1.523 . S
H2915 C2890 0.950 . S
H2916 C2892 0.950 . S
H2917 C2893 0.949 . S
H2918 C2895 0.950 . S
H2919 C2897 0.950 . S
C2920 C2921 1.349 . S
C2920 C2922 1.327 . S
C2920 H2945 0.950 . S
C2921 C2920 1.349 . S
C2921 C2937 1.349 . S
C2922 C2920 1.327 . S
C2922 C2941 1.429 . S
C2922 H2946 0.950 . S
C2923 C2940 1.574 . S
C2923 C2942 1.368 . S
C2923 H2947 0.949 . S
H2924 C2928 0.949 . S
C2925 C2926 1.349 . S
C2925 C2927 1.327 . S
C2925 H2948 0.950 . S
C2926 C2925 1.349 . S
C2926 C2938 1.349 . S
C2927 C2925 1.327 . S
C2927 C2943 1.429 . S
C2927 H2949 0.950 . S
C2928 H2924 0.949 . S
C2928 C2936 1.574 . S
C2928 C2944 1.368 . S
H2929 C2937 0.950 . S
H2930 C2935 0.950 . S
H2931 C2936 0.949 . S
H2932 C2938 0.950 . S
H2933 C2939 0.950 . S
H2934 C2940 0.949 . S
C2935 H2930 0.950 . S
C2935 C2937 1.327 . S
C2935 C2941 1.429 . S
C2936 C2928 1.574 . S
C2936 H2931 0.949 . S
C2936 C2942 1.368 . S
C2937 C2921 1.349 . S
C2937 H2929 0.950 . S
C2937 C2935 1.327 . S
C2938 C2926 1.349 . S
C2938 H2932 0.950 . S
C2938 C2939 1.327 . S
C2939 H2933 0.950 . S
C2939 C2938 1.327 . S
C2939 C2943 1.429 . S
C2940 C2923 1.574 . S
C2940 H2934 0.949 . S
C2940 C2944 1.368 . S
C2941 C2922 1.429 . S
C2941 C2935 1.429 . S
C2941 C2942 1.523 . S
C2942 C2923 1.368 . S
C2942 C2936 1.368 . S
C2942 C2941 1.523 . S
C2943 C2927 1.429 . S
C2943 C2939 1.429 . S
C2943 C2944 1.523 . S
C2944 C2928 1.368 . S
C2944 C2940 1.368 . S
C2944 C2943 1.523 . S
H2945 C2920 0.950 . S
H2946 C2922 0.950 . S
H2947 C2923 0.949 . S
H2948 C2925 0.950 . S
H2949 C2927 0.950 . S
C2950 C2951 1.349 . S
C2950 C2952 1.327 1_455 S
C2950 H2975 0.950 . S
C2951 C2950 1.349 . S
C2951 C2967 1.349 . S
C2952 C2950 1.327 1_655 S
C2952 C2971 1.429 . S
C2952 H2976 0.950 . S
C2953 C2970 1.574 . S
C2953 C2972 1.368 . S
C2953 H2977 0.949 . S
H2954 C2958 0.949 . S
C2955 C2956 1.349 . S
C2955 C2957 1.327 . S
C2955 H2978 0.950 . S
C2956 C2955 1.349 . S
C2956 C2968 1.349 . S
C2957 C2955 1.327 . S
C2957 C2973 1.429 . S
C2957 H2979 0.950 . S
C2958 H2954 0.949 . S
C2958 C2966 1.574 . S
C2958 C2974 1.368 . S
H2959 C2967 0.950 . S
H2960 C2965 0.950 . S
H2961 C2966 0.949 . S
H2962 C2968 0.950 . S
H2963 C2969 0.950 . S
H2964 C2970 0.949 . S
C2965 H2960 0.950 . S
C2965 C2967 1.327 . S
C2965 C2971 1.429 1_455 S
C2966 C2958 1.574 . S
C2966 H2961 0.949 . S
C2966 C2972 1.368 . S
C2967 C2951 1.349 . S
C2967 H2959 0.950 . S
C2967 C2965 1.327 . S
C2968 C2956 1.349 . S
C2968 H2962 0.950 . S
C2968 C2969 1.327 . S
C2969 H2963 0.950 . S
C2969 C2968 1.327 . S
C2969 C2973 1.429 . S
C2970 C2953 1.574 . S
C2970 H2964 0.949 . S
C2970 C2974 1.368 . S
C2971 C2952 1.429 . S
C2971 C2965 1.429 1_655 S
C2971 C2972 1.523 . S
C2972 C2953 1.368 . S
C2972 C2966 1.368 . S
C2972 C2971 1.523 . S
C2973 C2957 1.429 . S
C2973 C2969 1.429 . S
C2973 C2974 1.523 . S
C2974 C2958 1.368 . S
C2974 C2970 1.368 . S
C2974 C2973 1.523 . S
H2975 C2950 0.950 . S
H2976 C2952 0.950 . S
H2977 C2953 0.949 . S
H2978 C2955 0.950 . S
H2979 C2957 0.950 . S
C2980 C2981 1.349 . S
C2980 C2982 1.327 . S
C2980 H3005 0.950 . S
C2981 C2980 1.349 . S
C2981 C2997 1.349 . S
C2982 C2980 1.327 . S
C2982 C3001 1.429 . S
C2982 H3006 0.950 . S
C2983 C3000 1.574 . S
C2983 C3002 1.368 . S
C2983 H3007 0.949 . S
H2984 C2988 0.949 . S
C2985 C2986 1.349 . S
C2985 C2987 1.327 . S
C2985 H3008 0.950 . S
C2986 C2985 1.349 . S
C2986 C2998 1.349 . S
C2987 C2985 1.327 . S
C2987 C3003 1.429 . S
C2987 H3009 0.950 . S
C2988 H2984 0.949 . S
C2988 C2996 1.574 . S
C2988 C3004 1.368 . S
H2989 C2997 0.950 . S
H2990 C2995 0.950 . S
H2991 C2996 0.949 . S
H2992 C2998 0.950 . S
H2993 C2999 0.950 . S
H2994 C3000 0.949 . S
C2995 H2990 0.950 . S
C2995 C2997 1.327 . S
C2995 C3001 1.429 . S
C2996 C2988 1.574 . S
C2996 H2991 0.949 . S
C2996 C3002 1.368 . S
C2997 C2981 1.349 . S
C2997 H2989 0.950 . S
C2997 C2995 1.327 . S
C2998 C2986 1.349 . S
C2998 H2992 0.950 . S
C2998 C2999 1.327 . S
C2999 H2993 0.950 . S
C2999 C2998 1.327 . S
C2999 C3003 1.429 . S
C3000 C2983 1.574 . S
C3000 H2994 0.949 . S
C3000 C3004 1.368 . S
C3001 C2982 1.429 . S
C3001 C2995 1.429 . S
C3001 C3002 1.523 . S
C3002 C2983 1.368 . S
C3002 C2996 1.368 . S
C3002 C3001 1.523 . S
C3003 C2987 1.429 . S
C3003 C2999 1.429 . S
C3003 C3004 1.523 . S
C3004 C2988 1.368 . S
C3004 C3000 1.368 . S
C3004 C3003 1.523 . S
H3005 C2980 0.950 . S
H3006 C2982 0.950 . S
H3007 C2983 0.949 . S
H3008 C2985 0.950 . S
H3009 C2987 0.950 . S
C3010 C3011 1.349 . S
C3010 C3012 1.327 . S
C3010 H3035 0.950 . S
C3011 C3010 1.349 . S
C3011 C3027 1.349 . S
C3012 C3010 1.327 . S
C3012 C3031 1.429 . S
C3012 H3036 0.950 . S
C3013 C3030 1.574 . S
C3013 C3032 1.368 . S
C3013 H3037 0.949 . S
H3014 C3018 0.949 . S
C3015 C3016 1.349 . S
C3015 C3017 1.327 . S
C3015 H3038 0.950 . S
C3016 C3015 1.349 . S
C3016 C3028 1.349 . S
C3017 C3015 1.327 . S
C3017 C3033 1.429 1_455 S
C3017 H3039 0.950 . S
C3018 H3014 0.949 . S
C3018 C3026 1.574 . S
C3018 C3034 1.368 . S
H3019 C3027 0.950 . S
H3020 C3025 0.950 . S
H3021 C3026 0.949 . S
H3022 C3028 0.950 . S
H3023 C3029 0.950 . S
H3024 C3030 0.949 . S
C3025 H3020 0.950 . S
C3025 C3027 1.327 . S
C3025 C3031 1.429 . S
C3026 C3018 1.574 . S
C3026 H3021 0.949 . S
C3026 C3032 1.368 . S
C3027 C3011 1.349 . S
C3027 H3019 0.950 . S
C3027 C3025 1.327 . S
C3028 C3016 1.349 . S
C3028 H3022 0.950 . S
C3028 C3029 1.327 1_455 S
C3029 H3023 0.950 . S
C3029 C3028 1.327 1_655 S
C3029 C3033 1.429 . S
C3030 C3013 1.574 . S
C3030 H3024 0.949 . S
C3030 C3034 1.368 . S
C3031 C3012 1.429 . S
C3031 C3025 1.429 . S
C3031 C3032 1.523 . S
C3032 C3013 1.368 . S
C3032 C3026 1.368 . S
C3032 C3031 1.523 . S
C3033 C3017 1.429 1_655 S
C3033 C3029 1.429 . S
C3033 C3034 1.523 . S
C3034 C3018 1.368 . S
C3034 C3030 1.368 . S
C3034 C3033 1.523 . S
H3035 C3010 0.950 . S
H3036 C3012 0.950 . S
H3037 C3013 0.949 . S
H3038 C3015 0.950 . S
H3039 C3017 0.950 . S
C3040 C3041 1.349 1_545 S
C3040 C3042 1.327 . S
C3040 H3065 0.950 . S
C3041 C3040 1.349 1_565 S
C3041 C3057 1.349 . S
C3042 C3040 1.327 . S
C3042 C3061 1.429 1_545 S
C3042 H3066 0.950 . S
C3043 C3060 1.574 . S
C3043 C3062 1.368 . S
C3043 H3067 0.949 . S
H3044 C3048 0.949 . S
C3045 C3046 1.349 . S
C3045 C3047 1.327 . S
C3045 H3068 0.950 . S
C3046 C3045 1.349 . S
C3046 C3058 1.349 1_565 S
C3047 C3045 1.327 . S
C3047 C3063 1.429 . S
C3047 H3069 0.950 . S
C3048 H3044 0.949 . S
C3048 C3056 1.574 . S
C3048 C3064 1.368 1_545 S
H3049 C3057 0.950 . S
H3050 C3055 0.950 . S
H3051 C3056 0.949 . S
H3052 C3058 0.950 . S
H3053 C3059 0.950 . S
H3054 C3060 0.949 . S
C3055 H3050 0.950 . S
C3055 C3057 1.327 . S
C3055 C3061 1.429 . S
C3056 C3048 1.574 . S
C3056 H3051 0.949 . S
C3056 C3062 1.368 1_545 S
C3057 C3041 1.349 . S
C3057 H3049 0.950 . S
C3057 C3055 1.327 . S
C3058 C3046 1.349 1_545 S
C3058 H3052 0.950 . S
C3058 C3059 1.327 . S
C3059 H3053 0.950 . S
C3059 C3058 1.327 . S
C3059 C3063 1.429 1_545 S
C3060 C3043 1.574 . S
C3060 H3054 0.949 . S
C3060 C3064 1.368 . S
C3061 C3042 1.429 1_565 S
C3061 C3055 1.429 . S
C3061 C3062 1.523 . S
C3062 C3043 1.368 . S
C3062 C3056 1.368 1_565 S
C3062 C3061 1.523 . S
C3063 C3047 1.429 . S
C3063 C3059 1.429 1_565 S
C3063 C3064 1.523 . S
C3064 C3048 1.368 1_565 S
C3064 C3060 1.368 . S
C3064 C3063 1.523 . S
H3065 C3040 0.950 . S
H3066 C3042 0.950 . S
H3067 C3043 0.949 . S
H3068 C3045 0.950 . S
H3069 C3047 0.950 . S
C3070 C3071 1.349 . S
C3070 C3072 1.327 . S
C3070 H3095 0.950 . S
C3071 C3070 1.349 . S
C3071 C3087 1.349 . S
C3072 C3070 1.327 . S
C3072 C3091 1.429 . S
C3072 H3096 0.950 . S
C3073 C3090 1.574 . S
C3073 C3092 1.368 . S
C3073 H3097 0.949 . S
H3074 C3078 0.949 . S
C3075 C3076 1.349 . S
C3075 C3077 1.327 . S
C3075 H3098 0.950 . S
C3076 C3075 1.349 . S
C3076 C3088 1.349 . S
C3077 C3075 1.327 . S
C3077 C3093 1.429 . S
C3077 H3099 0.950 . S
C3078 H3074 0.949 . S
C3078 C3086 1.574 . S
C3078 C3094 1.368 . S
H3079 C3087 0.950 . S
H3080 C3085 0.950 . S
H3081 C3086 0.949 . S
H3082 C3088 0.950 . S
H3083 C3089 0.950 . S
H3084 C3090 0.949 . S
C3085 H3080 0.950 . S
C3085 C3087 1.327 . S
C3085 C3091 1.429 . S
C3086 C3078 1.574 . S
C3086 H3081 0.949 . S
C3086 C3092 1.368 . S
C3087 C3071 1.349 . S
C3087 H3079 0.950 . S
C3087 C3085 1.327 . S
C3088 C3076 1.349 . S
C3088 H3082 0.950 . S
C3088 C3089 1.327 . S
C3089 H3083 0.950 . S
C3089 C3088 1.327 . S
C3089 C3093 1.429 . S
C3090 C3073 1.574 . S
C3090 H3084 0.949 . S
C3090 C3094 1.368 . S
C3091 C3072 1.429 . S
C3091 C3085 1.429 . S
C3091 C3092 1.523 . S
C3092 C3073 1.368 . S
C3092 C3086 1.368 . S
C3092 C3091 1.523 . S
C3093 C3077 1.429 . S
C3093 C3089 1.429 . S
C3093 C3094 1.523 . S
C3094 C3078 1.368 . S
C3094 C3090 1.368 . S
C3094 C3093 1.523 . S
H3095 C3070 0.950 . S
H3096 C3072 0.950 . S
H3097 C3073 0.949 . S
H3098 C3075 0.950 . S
H3099 C3077 0.950 . S
C3100 C3101 1.349 . S
C3100 C3102 1.327 . S
C3100 H3125 0.950 . S
C3101 C3100 1.349 . S
C3101 C3117 1.349 . S
C3102 C3100 1.327 . S
C3102 C3121 1.429 . S
C3102 H3126 0.950 . S
C3103 C3120 1.574 . S
C3103 C3122 1.368 . S
C3103 H3127 0.949 . S
H3104 C3108 0.949 . S
C3105 C3106 1.349 . S
C3105 C3107 1.327 . S
C3105 H3128 0.950 . S
C3106 C3105 1.349 . S
C3106 C3118 1.349 . S
C3107 C3105 1.327 . S
C3107 C3123 1.429 . S
C3107 H3129 0.950 . S
C3108 H3104 0.949 . S
C3108 C3116 1.574 . S
C3108 C3124 1.368 . S
H3109 C3117 0.950 . S
H3110 C3115 0.950 . S
H3111 C3116 0.949 . S
H3112 C3118 0.950 . S
H3113 C3119 0.950 . S
H3114 C3120 0.949 . S
C3115 H3110 0.950 . S
C3115 C3117 1.327 . S
C3115 C3121 1.429 . S
C3116 C3108 1.574 . S
C3116 H3111 0.949 . S
C3116 C3122 1.368 . S
C3117 C3101 1.349 . S
C3117 H3109 0.950 . S
C3117 C3115 1.327 . S
C3118 C3106 1.349 . S
C3118 H3112 0.950 . S
C3118 C3119 1.327 . S
C3119 H3113 0.950 . S
C3119 C3118 1.327 . S
C3119 C3123 1.429 . S
C3120 C3103 1.574 . S
C3120 H3114 0.949 . S
C3120 C3124 1.368 . S
C3121 C3102 1.429 . S
C3121 C3115 1.429 . S
C3121 C3122 1.523 . S
C3122 C3103 1.368 . S
C3122 C3116 1.368 . S
C3122 C3121 1.523 . S
C3123 C3107 1.429 . S
C3123 C3119 1.429 . S
C3123 C3124 1.523 . S
C3124 C3108 1.368 . S
C3124 C3120 1.368 . S
C3124 C3123 1.523 . S
H3125 C3100 0.950 . S
H3126 C3102 0.950 . S
H3127 C3103 0.949 . S
H3128 C3105 0.950 . S
H3129 C3107 0.950 . S
C3130 C3131 1.349 1_545 S
C3130 C3132 1.327 . S
C3130 H3155 0.950 . S
C3131 C3130 1.349 1_565 S
C3131 C3147 1.349 . S
C3132 C3130 1.327 . S
C3132 C3151 1.429 1_545 S
C3132 H3156 0.950 . S
C3133 C3150 1.574 . S
C3133 C3152 1.368 . S
C3133 H3157 0.949 . S
H3134 C3138 0.949 . S
C3135 C3136 1.349 . S
C3135 C3137 1.327 . S
C3135 H3158 0.950 . S
C3136 C3135 1.349 . S
C3136 C3148 1.349 1_565 S
C3137 C3135 1.327 . S
C3137 C3153 1.429 . S
C3137 H3159 0.950 . S
C3138 H3134 0.949 . S
C3138 C3146 1.574 . S
C3138 C3154 1.368 1_545 S
H3139 C3147 0.950 . S
H3140 C3145 0.950 . S
H3141 C3146 0.949 . S
H3142 C3148 0.950 . S
H3143 C3149 0.950 . S
H3144 C3150 0.949 . S
C3145 H3140 0.950 . S
C3145 C3147 1.327 . S
C3145 C3151 1.429 . S
C3146 C3138 1.574 . S
C3146 H3141 0.949 . S
C3146 C3152 1.368 1_545 S
C3147 C3131 1.349 . S
C3147 H3139 0.950 . S
C3147 C3145 1.327 . S
C3148 C3136 1.349 1_545 S
C3148 H3142 0.950 . S
C3148 C3149 1.327 . S
C3149 H3143 0.950 . S
C3149 C3148 1.327 . S
C3149 C3153 1.429 1_545 S
C3150 C3133 1.574 . S
C3150 H3144 0.949 . S
C3150 C3154 1.368 . S
C3151 C3132 1.429 1_565 S
C3151 C3145 1.429 . S
C3151 C3152 1.523 . S
C3152 C3133 1.368 . S
C3152 C3146 1.368 1_565 S
C3152 C3151 1.523 . S
C3153 C3137 1.429 . S
C3153 C3149 1.429 1_565 S
C3153 C3154 1.523 . S
C3154 C3138 1.368 1_565 S
C3154 C3150 1.368 . S
C3154 C3153 1.523 . S
H3155 C3130 0.950 . S
H3156 C3132 0.950 . S
H3157 C3133 0.949 . S
H3158 C3135 0.950 . S
H3159 C3137 0.950 . S
C3160 C3161 1.349 . S
C3160 C3162 1.327 . S
C3160 H3185 0.950 . S
C3161 C3160 1.349 . S
C3161 C3177 1.349 1_545 S
C3162 C3160 1.327 . S
C3162 C3181 1.429 . S
C3162 H3186 0.950 . S
C3163 C3180 1.574 . S
C3163 C3182 1.368 1_565 S
C3163 H3187 0.949 . S
H3164 C3168 0.949 . S
C3165 C3166 1.349 1_565 S
C3165 C3167 1.327 . S
C3165 H3188 0.950 . S
C3166 C3165 1.349 1_545 S
C3166 C3178 1.349 . S
C3167 C3165 1.327 . S
C3167 C3183 1.429 1_565 S
C3167 H3189 0.950 . S
C3168 H3164 0.949 . S
C3168 C3176 1.574 . S
C3168 C3184 1.368 . S
H3169 C3177 0.950 . S
H3170 C3175 0.950 . S
H3171 C3176 0.949 . S
H3172 C3178 0.950 . S
H3173 C3179 0.950 . S
H3174 C3180 0.949 . S
C3175 H3170 0.950 . S
C3175 C3177 1.327 . S
C3175 C3181 1.429 1_565 S
C3176 C3168 1.574 . S
C3176 H3171 0.949 . S
C3176 C3182 1.368 . S
C3177 C3161 1.349 1_565 S
C3177 H3169 0.950 . S
C3177 C3175 1.327 . S
C3178 C3166 1.349 . S
C3178 H3172 0.950 . S
C3178 C3179 1.327 . S
C3179 H3173 0.950 . S
C3179 C3178 1.327 . S
C3179 C3183 1.429 . S
C3180 C3163 1.574 . S
C3180 H3174 0.949 . S
C3180 C3184 1.368 1_565 S
C3181 C3162 1.429 . S
C3181 C3175 1.429 1_545 S
C3181 C3182 1.523 . S
C3182 C3163 1.368 1_545 S
C3182 C3176 1.368 . S
C3182 C3181 1.523 . S
C3183 C3167 1.429 1_545 S
C3183 C3179 1.429 . S
C3183 C3184 1.523 . S
C3184 C3168 1.368 . S
C3184 C3180 1.368 1_545 S
C3184 C3183 1.523 . S
H3185 C3160 0.950 . S
H3186 C3162 0.950 . S
H3187 C3163 0.949 . S
H3188 C3165 0.950 . S
H3189 C3167 0.950 . S
C3190 C3191 1.349 . S
C3190 C3192 1.327 . S
C3190 H3215 0.950 . S
C3191 C3190 1.349 . S
C3191 C3207 1.349 . S
C3192 C3190 1.327 . S
C3192 C3211 1.429 . S
C3192 H3216 0.950 . S
C3193 C3210 1.574 . S
C3193 C3212 1.368 . S
C3193 H3217 0.949 . S
H3194 C3198 0.949 . S
C3195 C3196 1.349 . S
C3195 C3197 1.327 . S
C3195 H3218 0.950 . S
C3196 C3195 1.349 . S
C3196 C3208 1.349 . S
C3197 C3195 1.327 . S
C3197 C3213 1.429 . S
C3197 H3219 0.950 . S
C3198 H3194 0.949 . S
C3198 C3206 1.574 . S
C3198 C3214 1.368 . S
H3199 C3207 0.950 . S
H3200 C3205 0.950 . S
H3201 C3206 0.949 . S
H3202 C3208 0.950 . S
H3203 C3209 0.950 . S
H3204 C3210 0.949 . S
C3205 H3200 0.950 . S
C3205 C3207 1.327 . S
C3205 C3211 1.429 . S
C3206 C3198 1.574 . S
C3206 H3201 0.949 . S
C3206 C3212 1.368 . S
C3207 C3191 1.349 . S
C3207 H3199 0.950 . S
C3207 C3205 1.327 . S
C3208 C3196 1.349 . S
C3208 H3202 0.950 . S
C3208 C3209 1.327 . S
C3209 H3203 0.950 . S
C3209 C3208 1.327 . S
C3209 C3213 1.429 . S
C3210 C3193 1.574 . S
C3210 H3204 0.949 . S
C3210 C3214 1.368 . S
C3211 C3192 1.429 . S
C3211 C3205 1.429 . S
C3211 C3212 1.523 . S
C3212 C3193 1.368 . S
C3212 C3206 1.368 . S
C3212 C3211 1.523 . S
C3213 C3197 1.429 . S
C3213 C3209 1.429 . S
C3213 C3214 1.523 . S
C3214 C3198 1.368 . S
C3214 C3210 1.368 . S
C3214 C3213 1.523 . S
H3215 C3190 0.950 . S
H3216 C3192 0.950 . S
H3217 C3193 0.949 . S
H3218 C3195 0.950 . S
H3219 C3197 0.950 . S
C3220 C3221 1.349 . S
C3220 C3222 1.327 . S
C3220 H3245 0.950 . S
C3221 C3220 1.349 . S
C3221 C3237 1.349 . S
C3222 C3220 1.327 . S
C3222 C3241 1.429 . S
C3222 H3246 0.950 . S
C3223 C3240 1.574 . S
C3223 C3242 1.368 . S
C3223 H3247 0.949 . S
H3224 C3228 0.949 . S
C3225 C3226 1.349 . S
C3225 C3227 1.327 . S
C3225 H3248 0.950 . S
C3226 C3225 1.349 . S
C3226 C3238 1.349 . S
C3227 C3225 1.327 . S
C3227 C3243 1.429 . S
C3227 H3249 0.950 . S
C3228 H3224 0.949 . S
C3228 C3236 1.574 . S
C3228 C3244 1.368 . S
H3229 C3237 0.950 . S
H3230 C3235 0.950 . S
H3231 C3236 0.949 . S
H3232 C3238 0.950 . S
H3233 C3239 0.950 . S
H3234 C3240 0.949 . S
C3235 H3230 0.950 . S
C3235 C3237 1.327 . S
C3235 C3241 1.429 . S
C3236 C3228 1.574 . S
C3236 H3231 0.949 . S
C3236 C3242 1.368 . S
C3237 C3221 1.349 . S
C3237 H3229 0.950 . S
C3237 C3235 1.327 . S
C3238 C3226 1.349 . S
C3238 H3232 0.950 . S
C3238 C3239 1.327 . S
C3239 H3233 0.950 . S
C3239 C3238 1.327 . S
C3239 C3243 1.429 . S
C3240 C3223 1.574 . S
C3240 H3234 0.949 . S
C3240 C3244 1.368 . S
C3241 C3222 1.429 . S
C3241 C3235 1.429 . S
C3241 C3242 1.523 . S
C3242 C3223 1.368 . S
C3242 C3236 1.368 . S
C3242 C3241 1.523 . S
C3243 C3227 1.429 . S
C3243 C3239 1.429 . S
C3243 C3244 1.523 . S
C3244 C3228 1.368 . S
C3244 C3240 1.368 . S
C3244 C3243 1.523 . S
H3245 C3220 0.950 . S
H3246 C3222 0.950 . S
H3247 C3223 0.949 . S
H3248 C3225 0.950 . S
H3249 C3227 0.950 . S
C3250 C3251 1.349 1_565 S
C3250 C3252 1.327 . S
C3250 H3275 0.950 . S
C3251 C3250 1.349 1_545 S
C3251 C3267 1.349 . S
C3252 C3250 1.327 . S
C3252 C3271 1.429 1_565 S
C3252 H3276 0.950 . S
C3253 C3270 1.574 . S
C3253 C3272 1.368 . S
C3253 H3277 0.949 . S
H3254 C3258 0.949 . S
C3255 C3256 1.349 . S
C3255 C3257 1.327 . S
C3255 H3278 0.950 . S
C3256 C3255 1.349 . S
C3256 C3268 1.349 1_545 S
C3257 C3255 1.327 . S
C3257 C3273 1.429 . S
C3257 H3279 0.950 . S
C3258 H3254 0.949 . S
C3258 C3266 1.574 . S
C3258 C3274 1.368 1_565 S
H3259 C3267 0.950 . S
H3260 C3265 0.950 . S
H3261 C3266 0.949 . S
H3262 C3268 0.950 . S
H3263 C3269 0.950 . S
H3264 C3270 0.949 . S
C3265 H3260 0.950 . S
C3265 C3267 1.327 . S
C3265 C3271 1.429 . S
C3266 C3258 1.574 . S
C3266 H3261 0.949 . S
C3266 C3272 1.368 1_565 S
C3267 C3251 1.349 . S
C3267 H3259 0.950 . S
C3267 C3265 1.327 . S
C3268 C3256 1.349 1_565 S
C3268 H3262 0.950 . S
C3268 C3269 1.327 . S
C3269 H3263 0.950 . S
C3269 C3268 1.327 . S
C3269 C3273 1.429 1_565 S
C3270 C3253 1.574 . S
C3270 H3264 0.949 . S
C3270 C3274 1.368 . S
C3271 C3252 1.429 1_545 S
C3271 C3265 1.429 . S
C3271 C3272 1.523 . S
C3272 C3253 1.368 . S
C3272 C3266 1.368 1_545 S
C3272 C3271 1.523 . S
C3273 C3257 1.429 . S
C3273 C3269 1.429 1_545 S
C3273 C3274 1.523 . S
C3274 C3258 1.368 1_545 S
C3274 C3270 1.368 . S
C3274 C3273 1.523 . S
H3275 C3250 0.950 . S
H3276 C3252 0.950 . S
H3277 C3253 0.949 . S
H3278 C3255 0.950 . S
H3279 C3257 0.950 . S
C3280 C3281 1.349 . S
C3280 C3282 1.327 . S
C3280 H3305 0.950 . S
C3281 C3280 1.349 . S
C3281 C3297 1.349 . S
C3282 C3280 1.327 . S
C3282 C3301 1.429 . S
C3282 H3306 0.950 . S
C3283 C3300 1.574 . S
C3283 C3302 1.368 . S
C3283 H3307 0.949 . S
H3284 C3288 0.949 . S
C3285 C3286 1.349 1_556 S
C3285 C3287 1.327 . S
C3285 H3308 0.950 . S
C3286 C3285 1.349 1_554 S
C3286 C3298 1.349 . S
C3287 C3285 1.327 . S
C3287 C3303 1.429 . S
C3287 H3309 0.950 . S
C3288 H3284 0.949 . S
C3288 C3296 1.574 . S
C3288 C3304 1.368 . S
H3289 C3297 0.950 . S
H3290 C3295 0.950 . S
H3291 C3296 0.949 . S
H3292 C3298 0.950 . S
H3293 C3299 0.950 . S
H3294 C3300 0.949 . S
C3295 H3290 0.950 . S
C3295 C3297 1.327 . S
C3295 C3301 1.429 . S
C3296 C3288 1.574 . S
C3296 H3291 0.949 . S
C3296 C3302 1.368 . S
C3297 C3281 1.349 . S
C3297 H3289 0.950 . S
C3297 C3295 1.327 . S
C3298 C3286 1.349 . S
C3298 H3292 0.950 . S
C3298 C3299 1.327 1_554 S
C3299 H3293 0.950 . S
C3299 C3298 1.327 1_556 S
C3299 C3303 1.429 . S
C3300 C3283 1.574 . S
C3300 H3294 0.949 . S
C3300 C3304 1.368 . S
C3301 C3282 1.429 . S
C3301 C3295 1.429 . S
C3301 C3302 1.523 . S
C3302 C3283 1.368 . S
C3302 C3296 1.368 . S
C3302 C3301 1.523 . S
C3303 C3287 1.429 . S
C3303 C3299 1.429 . S
C3303 C3304 1.523 . S
C3304 C3288 1.368 . S
C3304 C3300 1.368 . S
C3304 C3303 1.523 . S
H3305 C3280 0.950 . S
H3306 C3282 0.950 . S
H3307 C3283 0.949 . S
H3308 C3285 0.950 . S
H3309 C3287 0.950 . S
C3310 C3311 1.349 . S
C3310 C3312 1.327 . S
C3310 H3335 0.950 . S
C3311 C3310 1.349 . S
C3311 C3327 1.349 . S
C3312 C3310 1.327 . S
C3312 C3331 1.429 . S
C3312 H3336 0.950 . S
C3313 C3330 1.574 . S
C3313 C3332 1.368 . S
C3313 H3337 0.949 . S
H3314 C3318 0.949 . S
C3315 C3316 1.349 . S
C3315 C3317 1.327 1_554 S
C3315 H3338 0.950 . S
C3316 C3315 1.349 . S
C3316 C3328 1.349 1_554 S
C3317 C3315 1.327 1_556 S
C3317 C3333 1.429 . S
C3317 H3339 0.950 . S
C3318 H3314 0.949 . S
C3318 C3326 1.574 . S
C3318 C3334 1.368 . S
H3319 C3327 0.950 . S
H3320 C3325 0.950 . S
H3321 C3326 0.949 . S
H3322 C3328 0.950 . S
H3323 C3329 0.950 . S
H3324 C3330 0.949 . S
C3325 H3320 0.950 . S
C3325 C3327 1.327 . S
C3325 C3331 1.429 . S
C3326 C3318 1.574 . S
C3326 H3321 0.949 . S
C3326 C3332 1.368 . S
C3327 C3311 1.349 . S
C3327 H3319 0.950 . S
C3327 C3325 1.327 . S
C3328 C3316 1.349 1_556 S
C3328 H3322 0.950 . S
C3328 C3329 1.327 . S
C3329 H3323 0.950 . S
C3329 C3328 1.327 . S
C3329 C3333 1.429 . S
C3330 C3313 1.574 . S
C3330 H3324 0.949 . S
C3330 C3334 1.368 . S
C3331 C3312 1.429 . S
C3331 C3325 1.429 . S
C3331 C3332 1.523 . S
C3332 C3313 1.368 . S
C3332 C3326 1.368 . S
C3332 C3331 1.523 . S
C3333 C3317 1.429 . S
C3333 C3329 1.429 . S
C3333 C3334 1.523 . S
C3334 C3318 1.368 . S
C3334 C3330 1.368 . S
C3334 C3333 1.523 . S
H3335 C3310 0.950 . S
H3336 C3312 0.950 . S
H3337 C3313 0.949 . S
H3338 C3315 0.950 . S
H3339 C3317 0.950 . S
C3340 C3341 1.349 . S
C3340 C3342 1.327 . S
C3340 H3365 0.950 . S
C3341 C3340 1.349 . S
C3341 C3357 1.349 . S
C3342 C3340 1.327 . S
C3342 C3361 1.429 . S
C3342 H3366 0.950 . S
C3343 C3360 1.574 . S
C3343 C3362 1.368 . S
C3343 H3367 0.949 . S
H3344 C3348 0.949 . S
C3345 C3346 1.349 . S
C3345 C3347 1.327 . S
C3345 H3368 0.950 . S
C3346 C3345 1.349 . S
C3346 C3358 1.349 . S
C3347 C3345 1.327 . S
C3347 C3363 1.429 . S
C3347 H3369 0.950 . S
C3348 H3344 0.949 . S
C3348 C3356 1.574 . S
C3348 C3364 1.368 . S
H3349 C3357 0.950 . S
H3350 C3355 0.950 . S
H3351 C3356 0.949 . S
H3352 C3358 0.950 . S
H3353 C3359 0.950 . S
H3354 C3360 0.949 . S
C3355 H3350 0.950 . S
C3355 C3357 1.327 . S
C3355 C3361 1.429 . S
C3356 C3348 1.574 . S
C3356 H3351 0.949 . S
C3356 C3362 1.368 . S
C3357 C3341 1.349 . S
C3357 H3349 0.950 . S
C3357 C3355 1.327 . S
C3358 C3346 1.349 . S
C3358 H3352 0.950 . S
C3358 C3359 1.327 . S
C3359 H3353 0.950 . S
C3359 C3358 1.327 . S
C3359 C3363 1.429 . S
C3360 C3343 1.574 . S
C3360 H3354 0.949 . S
C3360 C3364 1.368 . S
C3361 C3342 1.429 . S
C3361 C3355 1.429 . S
C3361 C3362 1.523 . S
C3362 C3343 1.368 . S
C3362 C3356 1.368 . S
C3362 C3361 1.523 . S
C3363 C3347 1.429 . S
C3363 C3359 1.429 . S
C3363 C3364 1.523 . S
C3364 C3348 1.368 . S
C3364 C3360 1.368 . S
C3364 C3363 1.523 . S
H3365 C3340 0.950 . S
H3366 C3342 0.950 . S
H3367 C3343 0.949 . S
H3368 C3345 0.950 . S
H3369 C3347 0.950 . S
C3370 C3371 1.349 . S
C3370 C3372 1.327 . S
C3370 H3395 0.950 . S
C3371 C3370 1.349 . S
C3371 C3387 1.349 . S
C3372 C3370 1.327 . S
C3372 C3391 1.429 . S
C3372 H3396 0.950 . S
C3373 C3390 1.574 . S
C3373 C3392 1.368 . S
C3373 H3397 0.949 . S
H3374 C3378 0.949 . S
C3375 C3376 1.349 . S
C3375 C3377 1.327 . S
C3375 H3398 0.950 . S
C3376 C3375 1.349 . S
C3376 C3388 1.349 . S
C3377 C3375 1.327 . S
C3377 C3393 1.429 . S
C3377 H3399 0.950 . S
C3378 H3374 0.949 . S
C3378 C3386 1.574 . S
C3378 C3394 1.368 . S
H3379 C3387 0.950 . S
H3380 C3385 0.950 . S
H3381 C3386 0.949 . S
H3382 C3388 0.950 . S
H3383 C3389 0.950 . S
H3384 C3390 0.949 . S
C3385 H3380 0.950 . S
C3385 C3387 1.327 . S
C3385 C3391 1.429 . S
C3386 C3378 1.574 . S
C3386 H3381 0.949 . S
C3386 C3392 1.368 . S
C3387 C3371 1.349 . S
C3387 H3379 0.950 . S
C3387 C3385 1.327 . S
C3388 C3376 1.349 . S
C3388 H3382 0.950 . S
C3388 C3389 1.327 . S
C3389 H3383 0.950 . S
C3389 C3388 1.327 . S
C3389 C3393 1.429 . S
C3390 C3373 1.574 . S
C3390 H3384 0.949 . S
C3390 C3394 1.368 . S
C3391 C3372 1.429 . S
C3391 C3385 1.429 . S
C3391 C3392 1.523 . S
C3392 C3373 1.368 . S
C3392 C3386 1.368 . S
C3392 C3391 1.523 . S
C3393 C3377 1.429 . S
C3393 C3389 1.429 . S
C3393 C3394 1.523 . S
C3394 C3378 1.368 . S
C3394 C3390 1.368 . S
C3394 C3393 1.523 . S
H3395 C3370 0.950 . S
H3396 C3372 0.950 . S
H3397 C3373 0.949 . S
H3398 C3375 0.950 . S
H3399 C3377 0.950 . S
C3400 C3401 1.349 . S
C3400 C3402 1.327 . S
C3400 H3425 0.950 . S
C3401 C3400 1.349 . S
C3401 C3417 1.349 . S
C3402 C3400 1.327 . S
C3402 C3421 1.429 . S
C3402 H3426 0.950 . S
C3403 C3420 1.574 . S
C3403 C3422 1.368 . S
C3403 H3427 0.949 . S
H3404 C3408 0.949 . S
C3405 C3406 1.349 . S
C3405 C3407 1.327 1_556 S
C3405 H3428 0.950 . S
C3406 C3405 1.349 . S
C3406 C3418 1.349 1_556 S
C3407 C3405 1.327 1_554 S
C3407 C3423 1.429 . S
C3407 H3429 0.950 . S
C3408 H3404 0.949 . S
C3408 C3416 1.574 . S
C3408 C3424 1.368 . S
H3409 C3417 0.950 . S
H3410 C3415 0.950 . S
H3411 C3416 0.949 . S
H3412 C3418 0.950 . S
H3413 C3419 0.950 . S
H3414 C3420 0.949 . S
C3415 H3410 0.950 . S
C3415 C3417 1.327 . S
C3415 C3421 1.429 . S
C3416 C3408 1.574 . S
C3416 H3411 0.949 . S
C3416 C3422 1.368 . S
C3417 C3401 1.349 . S
C3417 H3409 0.950 . S
C3417 C3415 1.327 . S
C3418 C3406 1.349 1_554 S
C3418 H3412 0.950 . S
C3418 C3419 1.327 . S
C3419 H3413 0.950 . S
C3419 C3418 1.327 . S
C3419 C3423 1.429 . S
C3420 C3403 1.574 . S
C3420 H3414 0.949 . S
C3420 C3424 1.368 . S
C3421 C3402 1.429 . S
C3421 C3415 1.429 . S
C3421 C3422 1.523 . S
C3422 C3403 1.368 . S
C3422 C3416 1.368 . S
C3422 C3421 1.523 . S
C3423 C3407 1.429 . S
C3423 C3419 1.429 . S
C3423 C3424 1.523 . S
C3424 C3408 1.368 . S
C3424 C3420 1.368 . S
C3424 C3423 1.523 . S
H3425 C3400 0.950 . S
H3426 C3402 0.950 . S
H3427 C3403 0.949 . S
H3428 C3405 0.950 . S
H3429 C3407 0.950 . S
C3430 C3431 1.349 . S
C3430 C3432 1.327 . S
C3430 H3455 0.950 . S
C3431 C3430 1.349 . S
C3431 C3447 1.349 . S
C3432 C3430 1.327 . S
C3432 C3451 1.429 . S
C3432 H3456 0.950 . S
C3433 C3450 1.574 . S
C3433 C3452 1.368 . S
C3433 H3457 0.949 . S
H3434 C3438 0.949 . S
C3435 C3436 1.349 1_554 S
C3435 C3437 1.327 . S
C3435 H3458 0.950 . S
C3436 C3435 1.349 1_556 S
C3436 C3448 1.349 . S
C3437 C3435 1.327 . S
C3437 C3453 1.429 . S
C3437 H3459 0.950 . S
C3438 H3434 0.949 . S
C3438 C3446 1.574 . S
C3438 C3454 1.368 . S
H3439 C3447 0.950 . S
H3440 C3445 0.950 . S
H3441 C3446 0.949 . S
H3442 C3448 0.950 . S
H3443 C3449 0.950 . S
H3444 C3450 0.949 . S
C3445 H3440 0.950 . S
C3445 C3447 1.327 . S
C3445 C3451 1.429 . S
C3446 C3438 1.574 . S
C3446 H3441 0.949 . S
C3446 C3452 1.368 . S
C3447 C3431 1.349 . S
C3447 H3439 0.950 . S
C3447 C3445 1.327 . S
C3448 C3436 1.349 . S
C3448 H3442 0.950 . S
C3448 C3449 1.327 1_556 S
C3449 H3443 0.950 . S
C3449 C3448 1.327 1_554 S
C3449 C3453 1.429 . S
C3450 C3433 1.574 . S
C3450 H3444 0.949 . S
C3450 C3454 1.368 . S
C3451 C3432 1.429 . S
C3451 C3445 1.429 . S
C3451 C3452 1.523 . S
C3452 C3433 1.368 . S
C3452 C3446 1.368 . S
C3452 C3451 1.523 . S
C3453 C3437 1.429 . S
C3453 C3449 1.429 . S
C3453 C3454 1.523 . S
C3454 C3438 1.368 . S
C3454 C3450 1.368 . S
C3454 C3453 1.523 . S
H3455 C3430 0.950 . S
H3456 C3432 0.950 . S
H3457 C3433 0.949 . S
H3458 C3435 0.950 . S
H3459 C3437 0.950 . S
C3460 C3461 1.349 . S
C3460 C3462 1.327 . S
C3460 H3485 0.950 . S
C3461 C3460 1.349 . S
C3461 C3477 1.349 . S
C3462 C3460 1.327 . S
C3462 C3481 1.429 . S
C3462 H3486 0.950 . S
C3463 C3480 1.574 . S
C3463 C3482 1.368 . S
C3463 H3487 0.949 . S
H3464 C3468 0.949 . S
C3465 C3466 1.349 . S
C3465 C3467 1.327 . S
C3465 H3488 0.950 . S
C3466 C3465 1.349 . S
C3466 C3478 1.349 . S
C3467 C3465 1.327 . S
C3467 C3483 1.429 . S
C3467 H3489 0.950 . S
C3468 H3464 0.949 . S
C3468 C3476 1.574 . S
C3468 C3484 1.368 . S
H3469 C3477 0.950 . S
H3470 C3475 0.950 . S
H3471 C3476 0.949 . S
H3472 C3478 0.950 . S
H3473 C3479 0.950 . S
H3474 C3480 0.949 . S
C3475 H3470 0.950 . S
C3475 C3477 1.327 . S
C3475 C3481 1.429 . S
C3476 C3468 1.574 . S
C3476 H3471 0.949 . S
C3476 C3482 1.368 . S
C3477 C3461 1.349 . S
C3477 H3469 0.950 . S
C3477 C3475 1.327 . S
C3478 C3466 1.349 . S
C3478 H3472 0.950 . S
C3478 C3479 1.327 . S
C3479 H3473 0.950 . S
C3479 C3478 1.327 . S
C3479 C3483 1.429 . S
C3480 C3463 1.574 . S
C3480 H3474 0.949 . S
C3480 C3484 1.368 . S
C3481 C3462 1.429 . S
C3481 C3475 1.429 . S
C3481 C3482 1.523 . S
C3482 C3463 1.368 . S
C3482 C3476 1.368 . S
C3482 C3481 1.523 . S
C3483 C3467 1.429 . S
C3483 C3479 1.429 . S
C3483 C3484 1.523 . S
C3484 C3468 1.368 . S
C3484 C3480 1.368 . S
C3484 C3483 1.523 . S
H3485 C3460 0.950 . S
H3486 C3462 0.950 . S
H3487 C3463 0.949 . S
H3488 C3465 0.950 . S
H3489 C3467 0.950 . S
C3490 C3491 1.349 . S
C3490 C3492 1.327 . S
C3490 H3515 0.950 . S
C3491 C3490 1.349 . S
C3491 C3507 1.349 . S
C3492 C3490 1.327 . S
C3492 C3511 1.429 . S
C3492 H3516 0.950 . S
C3493 C3510 1.574 . S
C3493 C3512 1.368 . S
C3493 H3517 0.949 . S
H3494 C3498 0.949 . S
C3495 C3496 1.349 . S
C3495 C3497 1.327 . S
C3495 H3518 0.950 . S
C3496 C3495 1.349 . S
C3496 C3508 1.349 . S
C3497 C3495 1.327 . S
C3497 C3513 1.429 . S
C3497 H3519 0.950 . S
C3498 H3494 0.949 . S
C3498 C3506 1.574 . S
C3498 C3514 1.368 . S
H3499 C3507 0.950 . S
H3500 C3505 0.950 . S
H3501 C3506 0.949 . S
H3502 C3508 0.950 . S
H3503 C3509 0.950 . S
H3504 C3510 0.949 . S
C3505 H3500 0.950 . S
C3505 C3507 1.327 . S
C3505 C3511 1.429 . S
C3506 C3498 1.574 . S
C3506 H3501 0.949 . S
C3506 C3512 1.368 . S
C3507 C3491 1.349 . S
C3507 H3499 0.950 . S
C3507 C3505 1.327 . S
C3508 C3496 1.349 . S
C3508 H3502 0.950 . S
C3508 C3509 1.327 . S
C3509 H3503 0.950 . S
C3509 C3508 1.327 . S
C3509 C3513 1.429 . S
C3510 C3493 1.574 . S
C3510 H3504 0.949 . S
C3510 C3514 1.368 . S
C3511 C3492 1.429 . S
C3511 C3505 1.429 . S
C3511 C3512 1.523 . S
C3512 C3493 1.368 . S
C3512 C3506 1.368 . S
C3512 C3511 1.523 . S
C3513 C3497 1.429 . S
C3513 C3509 1.429 . S
C3513 C3514 1.523 . S
C3514 C3498 1.368 . S
C3514 C3510 1.368 . S
C3514 C3513 1.523 . S
H3515 C3490 0.950 . S
H3516 C3492 0.950 . S
H3517 C3493 0.949 . S
H3518 C3495 0.950 . S
H3519 C3497 0.950 . S
C641 C509 1.645 . S
C646 C9 1.652 . S
C671 C489 1.634 . S
C676 C29 1.634 . S
C701 C549 1.634 . S
C706 C49 1.634 . S
C731 C529 1.645 . S
C736 C69 1.652 . S
C761 C81 1.645 . S
C766 C581 1.652 . S
C791 C101 1.634 . S
C796 C561 1.634 . S
C821 C121 1.634 . S
C826 C621 1.634 . S
C851 C601 1.645 . S
C856 C141 1.652 . S
C881 C349 1.634 . S
C886 C169 1.634 . S
C911 C329 1.645 . S
C916 C189 1.652 . S
C941 C389 1.645 . S
C946 C209 1.652 . S
C971 C369 1.634 . S
C976 C229 1.634 . S
C1001 C241 1.634 . S
C1006 C421 1.634 . S
C1031 C401 1.645 . S
C1036 C261 1.652 . S
C1061 C281 1.645 . S
C1066 C461 1.652 . S
C1091 C441 1.634 . S
C1096 C301 1.634 . S
C1121 C19 2.720 1_545 S
C1126 C408 2.720 1_565 S
C1151 C268 2.722 . S
C1156 C39 2.722 . S
C1181 C608 2.722 . S
C1186 C59 2.722 . S
C1211 C79 2.720 1_545 S
C1216 C148 2.720 1_565 S
C1241 C88 2.720 1_565 S
C1246 C339 2.720 1_545 S
C1271 C108 2.722 . S
C1276 C199 2.722 . S
C1301 C128 2.722 . S
C1306 C539 2.722 . S
C1331 C568 2.722 . S
C1336 C179 2.722 . S
C1361 C448 2.722 . S
C1366 C219 2.722 . S
C1391 C308 2.721 . S
C1396 C239 2.721 . S
C1421 C499 2.722 . S
C1426 C248 2.722 . S
C1451 C288 2.722 . S
C1456 C379 2.722 . S
C1481 C588 2.722 . S
C1486 C359 2.722 . S
C1511 C399 2.720 1_545 S
C1516 C468 2.720 1_565 S
C1541 C519 2.722 . S
C1546 C428 2.722 . S
C1571 C559 2.721 . S
C1576 C628 2.721 . S
C1601 C8 2.727 1_566 S
C1606 C388 2.727 1_565 S
C1631 C28 2.727 1_556 S
C1636 C368 2.727 . S
C1661 C48 2.727 . S
C1666 C348 2.727 . S
C1691 C68 2.727 1_565 S
C1696 C328 2.727 1_565 S
C1721 C99 2.727 1_544 S
C1726 C479 2.727 1_545 S
C1751 C119 2.727 1_554 S
C1756 C459 2.727 . S
C1781 C139 2.727 . S
C1786 C439 2.727 . S
C1811 C159 2.727 1_545 S
C1816 C419 2.727 1_545 S
C1841 C168 2.728 . S
C1846 C548 2.728 . S
C1871 C188 2.727 . S
C1876 C528 2.727 . S
C1901 C208 2.727 . S
C1906 C508 2.727 1_556 S
C1931 C228 2.728 . S
C1936 C488 2.728 1_556 S
C1961 C639 2.728 . S
C1966 C259 2.728 . S
C1991 C619 2.727 . S
C1996 C279 2.727 . S
C2021 C599 2.727 1_554 S
C2026 C299 2.727 . S
C2051 C579 2.728 1_554 S
C2056 C319 2.728 . S
C2081 C41 1.755 . S
C2086 C1 1.748 . S
C2111 C61 1.755 . S
C2116 C21 1.748 . S
C2141 C129 1.755 . S
C2146 C89 1.748 . S
C2171 C109 1.755 . S
C2176 C149 1.748 . S
C2201 C201 1.766 . S
C2206 C161 1.766 . S
C2231 C181 1.766 . S
C2236 C221 1.766 . S
C2261 C289 1.766 . S
C2266 C249 1.766 . S
C2291 C269 1.766 . S
C2296 C309 1.766 . S
C2321 C321 1.755 . S
C2326 C361 1.748 . S
C2351 C341 1.755 . S
C2356 C381 1.748 . S
C2381 C449 1.755 . S
C2386 C409 1.748 . S
C2411 C429 1.755 . S
C2416 C469 1.748 . S
C2441 C481 1.766 . S
C2446 C521 1.766 . S
C2471 C541 1.766 . S
C2476 C501 1.766 . S
C2501 C569 1.766 . S
C2506 C609 1.766 . S
C2531 C589 1.766 . S
C2536 C629 1.766 . S
C2561 C16 0.437 . S
C2566 C156 0.436 . S
C2591 C616 0.436 . S
C2596 C36 0.437 . S
C2621 C56 0.437 . S
C2626 C276 0.436 . S
C2651 C76 0.437 . S
C2656 C416 0.436 . S
C2681 C66 0.437 . S
C2686 C86 0.438 . S
C2711 C106 0.437 . S
C2716 C526 0.436 . S
C2741 C186 0.436 . S
C2746 C126 0.437 . S
C2771 C326 0.437 . S
C2776 C146 0.438 . S
C2801 C176 0.437 . S
C2806 C316 0.436 . S
C2831 C456 0.437 . S
C2836 C196 0.437 . S
C2861 C216 0.437 . S
C2866 C116 0.437 . S
C2891 C576 0.436 . S
C2896 C236 0.437 . S
C2921 C246 0.437 . S
C2926 C226 0.436 . S
C2951 C266 0.437 . S
C2956 C366 0.437 . S
C2981 C286 0.437 . S
C2986 C26 0.437 . S
C3011 C486 0.436 . S
C3016 C306 0.437 . S
C3041 C336 0.437 . S
C3046 C476 0.436 . S
C3071 C356 0.437 . S
C3076 C296 0.436 . S
C3101 C376 0.437 . S
C3106 C596 0.436 . S
C3131 C396 0.437 . S
C3136 C96 0.436 . S
C3161 C406 0.437 . S
C3166 C386 0.436 . S
C3191 C206 0.436 . S
C3196 C426 0.437 . S
C3221 C506 0.436 . S
C3226 C446 0.437 . S
C3251 C466 0.437 . S
C3256 C6 0.436 . S
C3281 C636 0.436 . S
C3286 C496 0.437 . S
C3311 C136 0.437 . S
C3316 C516 0.437 . S
C3341 C436 0.437 . S
C3346 C536 0.437 . S
C3371 C556 0.437 . S
C3376 C256 0.436 . S
C3401 C546 0.436 . S
C3406 C566 0.437 . S
C3431 C46 0.437 . S
C3436 C586 0.437 . S
C3461 C346 0.437 . S
C3466 C606 0.437 . S
C3491 C626 0.437 . S
C3496 C166 0.436 . S
