# Generated by pormake.
# Topology wjd, (6)-cn, num edge types: 1
# Building blocks:
#     Node 0, Type 0, BuildingBlock: PAMTOO_clean_sbu_0, # of connection points: 6
#     Node 1, Type 0, BuildingBlock: PAMTOO_clean_sbu_0, # of connection points: 6
#     Node 2, Type 0, BuildingBlock: PAMTOO_clean_sbu_0, # of connection points: 6
#     Node 3, Type 0, BuildingBlock: PAMTOO_clean_sbu_0, # of connection points: 6
#     Node 4, Type 0, BuildingBlock: PAMTOO_clean_sbu_0, # of connection points: 6
#     Node 5, Type 0, BuildingBlock: PAMTOO_clean_sbu_0, # of connection points: 6
#     Node 6, Type 0, BuildingBlock: PAMTOO_clean_sbu_0, # of connection points: 6
#     Node 7, Type 0, BuildingBlock: PAMTOO_clean_sbu_0, # of connection points: 6
#     Node 8, Type 0, BuildingBlock: PAMTOO_clean_sbu_0, # of connection points: 6
#     Node 9, Type 0, BuildingBlock: PAMTOO_clean_sbu_0, # of connection points: 6
#     Node 10, Type 0, BuildingBlock: PAMTOO_clean_sbu_0, # of connection points: 6
#     Node 11, Type 0, BuildingBlock: PAMTOO_clean_sbu_0, # of connection points: 6
#     Edge 12, Type (0, 0), BuildingBlock: KIFKEQ_clean_linker_1, # of connection points: 2
#     Edge 13, Type (0, 0), BuildingBlock: KIFKEQ_clean_linker_1, # of connection points: 2
#     Edge 14, Type (0, 0), BuildingBlock: KIFKEQ_clean_linker_1, # of connection points: 2
#     Edge 15, Type (0, 0), BuildingBlock: KIFKEQ_clean_linker_1, # of connection points: 2
#     Edge 16, Type (0, 0), BuildingBlock: KIFKEQ_clean_linker_1, # of connection points: 2
#     Edge 17, Type (0, 0), BuildingBlock: KIFKEQ_clean_linker_1, # of connection points: 2
#     Edge 18, Type (0, 0), BuildingBlock: KIFKEQ_clean_linker_1, # of connection points: 2
#     Edge 19, Type (0, 0), BuildingBlock: KIFKEQ_clean_linker_1, # of connection points: 2
#     Edge 20, Type (0, 0), BuildingBlock: KIFKEQ_clean_linker_1, # of connection points: 2
#     Edge 21, Type (0, 0), BuildingBlock: KIFKEQ_clean_linker_1, # of connection points: 2
#     Edge 22, Type (0, 0), BuildingBlock: KIFKEQ_clean_linker_1, # of connection points: 2
#     Edge 23, Type (0, 0), BuildingBlock: KIFKEQ_clean_linker_1, # of connection points: 2
#     Edge 24, Type (0, 0), BuildingBlock: KIFKEQ_clean_linker_1, # of connection points: 2
#     Edge 25, Type (0, 0), BuildingBlock: KIFKEQ_clean_linker_1, # of connection points: 2
#     Edge 26, Type (0, 0), BuildingBlock: KIFKEQ_clean_linker_1, # of connection points: 2
#     Edge 27, Type (0, 0), BuildingBlock: KIFKEQ_clean_linker_1, # of connection points: 2
#     Edge 28, Type (0, 0), BuildingBlock: KIFKEQ_clean_linker_1, # of connection points: 2
#     Edge 29, Type (0, 0), BuildingBlock: KIFKEQ_clean_linker_1, # of connection points: 2
#     Edge 30, Type (0, 0), BuildingBlock: KIFKEQ_clean_linker_1, # of connection points: 2
#     Edge 31, Type (0, 0), BuildingBlock: KIFKEQ_clean_linker_1, # of connection points: 2
#     Edge 32, Type (0, 0), BuildingBlock: KIFKEQ_clean_linker_1, # of connection points: 2
#     Edge 33, Type (0, 0), BuildingBlock: KIFKEQ_clean_linker_1, # of connection points: 2
#     Edge 34, Type (0, 0), BuildingBlock: KIFKEQ_clean_linker_1, # of connection points: 2
#     Edge 35, Type (0, 0), BuildingBlock: KIFKEQ_clean_linker_1, # of connection points: 2
#     Edge 36, Type (0, 0), BuildingBlock: KIFKEQ_clean_linker_1, # of connection points: 2
#     Edge 37, Type (0, 0), BuildingBlock: KIFKEQ_clean_linker_1, # of connection points: 2
#     Edge 38, Type (0, 0), BuildingBlock: KIFKEQ_clean_linker_1, # of connection points: 2
#     Edge 39, Type (0, 0), BuildingBlock: KIFKEQ_clean_linker_1, # of connection points: 2
#     Edge 40, Type (0, 0), BuildingBlock: KIFKEQ_clean_linker_1, # of connection points: 2
#     Edge 41, Type (0, 0), BuildingBlock: KIFKEQ_clean_linker_1, # of connection points: 2
#     Edge 42, Type (0, 0), BuildingBlock: KIFKEQ_clean_linker_1, # of connection points: 2
#     Edge 43, Type (0, 0), BuildingBlock: KIFKEQ_clean_linker_1, # of connection points: 2
#     Edge 44, Type (0, 0), BuildingBlock: KIFKEQ_clean_linker_1, # of connection points: 2
#     Edge 45, Type (0, 0), BuildingBlock: KIFKEQ_clean_linker_1, # of connection points: 2
#     Edge 46, Type (0, 0), BuildingBlock: KIFKEQ_clean_linker_1, # of connection points: 2
#     Edge 47, Type (0, 0), BuildingBlock: KIFKEQ_clean_linker_1, # of connection points: 2
# Relax obj value: 0.088
# Max RMSD: 0.210
# Mean RMSD: 0.210
data_MOF--net-wjd--node1-PAMTOO_clean_sbu_0--edge1-KIFKEQ_clean_linker_1
_symmetry_space_group_name_H-M    P1
_symmetry_Int_Tables_number       1
_symmetry_cell_setting            triclinic
loop_
_symmetry_equiv_pos_as_xyz
'x, y, z'
_cell_length_a     40.18518
_cell_length_b     40.259704
_cell_length_c     54.66061
_cell_angle_alpha  90.155046
_cell_angle_beta   90.037376
_cell_angle_gamma 119.70545
loop_
_atom_site_label
_atom_site_type_symbol
_atom_site_fract_x
_atom_site_fract_y
_atom_site_fract_z
_atom_type_partial_charge
Dy0 Dy 0.33572 0.11203 0.1488 0.0
Dy1 Dy 0.39167 0.19159 0.11826 0.0
C2 C 0.33633 0.11225 0.08978 0.0
O3 O 0.39666 0.12364 0.1517 0.0
O4 O 0.41307 0.15055 0.11392 0.0
O5 O 0.31501 0.05218 0.15623 0.0
O6 O 0.29204 0.08277 0.17614 0.0
O7 O 0.41212 0.20305 0.15739 0.0
O8 O 0.35659 0.15884 0.17618 0.0
O9 O 0.34305 0.19683 0.13358 0.0
O10 O 0.29848 0.13332 0.13279 0.0
O11 O 0.40194 0.24234 0.09812 0.0
O12 O 0.44846 0.23118 0.10549 0.0
C13 C 0.41944 0.13407 0.13254 0.0
O14 O 0.33206 0.09363 0.11024 0.0
O15 O 0.35354 0.15005 0.08903 0.0
C16 C 0.24896 0.01898 0.1656 0.0
C17 C 0.17213 0.96251 0.15613 0.0
C18 C 0.19408 0.98946 0.13811 0.0
C19 C 0.23209 1.01745 0.14282 0.0
C20 C 0.22736 0.99221 0.18359 0.0
C21 C 0.18934 0.96423 0.17893 0.0
C22 C 0.28833 0.04947 0.17104 0.0
C23 C 0.39032 0.18966 0.17687 0.0
C24 C 0.30718 0.16936 0.1334 0.0
C25 C 0.46436 0.29653 0.10418 0.0
C26 C 0.51767 0.37501 0.11302 0.0
C27 C 0.51962 0.34606 0.12628 0.0
C28 C 0.49329 0.30737 0.12197 0.0
C29 C 0.46153 0.32529 0.09149 0.0
C30 C 0.48768 0.364 0.09592 0.0
C31 C 0.43891 0.25576 0.09738 0.0
H32 H 0.18203 0.98876 0.12027 0.0
H33 H 0.24828 0.03806 0.12872 0.0
H34 H 0.23978 0.99321 0.20137 0.0
H35 H 0.17321 0.94437 0.19337 0.0
H36 H 0.5424 0.3531 0.13938 0.0
H37 H 0.49631 0.28596 0.13214 0.0
H38 H 0.43953 0.3178 0.0777 0.0
H39 H 0.48461 0.38529 0.08565 0.0
Dy40 Dy 0.84466 0.65576 0.40187 0.0
Dy41 Dy 0.80377 0.70086 0.37643 0.0
C42 C 0.82722 0.65137 0.34392 0.0
O43 O 0.88686 0.71788 0.40449 0.0
O44 O 0.86731 0.73566 0.3702 0.0
O45 O 0.89496 0.64948 0.40525 0.0
O46 O 0.8438 0.61285 0.42599 0.0
O47 O 0.82194 0.72452 0.41372 0.0
O48 O 0.81689 0.6717 0.43241 0.0
O49 O 0.75555 0.6442 0.38963 0.0
O50 O 0.78755 0.61019 0.38942 0.0
O51 O 0.76319 0.72115 0.37851 0.0
O52 O 0.80092 0.73562 0.34725 0.0
C53 C 0.89401 0.74169 0.38635 0.0
O54 O 0.85238 0.65567 0.36091 0.0
O55 O 0.79995 0.65948 0.34822 0.0
C56 C 0.88251 0.58642 0.41289 0.0
C57 C 0.89285 0.52311 0.40236 0.0
C58 C 0.85649 0.52004 0.40013 0.0
C59 C 0.85138 0.55137 0.40526 0.0
C60 C 0.91888 0.58974 0.41471 0.0
C61 C 0.92405 0.55852 0.40945 0.0
C62 C 0.87783 0.61964 0.41938 0.0
C63 C 0.81505 0.70351 0.43327 0.0
C64 C 0.75555 0.61141 0.39019 0.0
C65 C 0.78848 0.78325 0.36233 0.0
C66 C 0.81166 0.86164 0.3683 0.0
C67 C 0.82233 0.84259 0.38549 0.0
C68 C 0.81109 0.80393 0.38243 0.0
C69 C 0.77779 0.80195 0.3451 0.0
C70 C 0.78932 0.84078 0.348 0.0
C71 C 0.77682 0.74253 0.3591 0.0
H72 H 0.83191 0.49335 0.39444 0.0
H73 H 0.82304 0.54806 0.40344 0.0
H74 H 0.94332 0.61646 0.42055 0.0
H75 H 0.95233 0.56184 0.41163 0.0
H76 H 0.83899 0.85735 0.40152 0.0
H77 H 0.82003 0.79015 0.39582 0.0
H78 H 0.7607 0.78658 0.32932 0.0
H79 H 0.78109 0.85451 0.33414 0.0
Dy80 Dy 0.94986 0.2554 0.14113 0.0
Dy81 Dy 0.86532 0.21914 0.11463 0.0
C82 C 0.94281 0.24744 0.0843 0.0
O83 O 0.94339 0.30546 0.12883 0.0
O84 O 0.87776 0.27592 0.12884 0.0
O85 O 1.01072 0.29481 0.14007 0.0
O86 O 0.98619 0.25572 0.1705 0.0
O87 O 0.85521 0.20893 0.15513 0.0
O88 O 0.91192 0.25842 0.16951 0.0
O89 O 0.88298 0.17485 0.11163 0.0
O90 O 0.91988 0.1917 0.14613 0.0
O91 O 0.80942 0.17027 0.1083 0.0
O92 O 0.8248 0.22423 0.0909 0.0
C93 C 0.9114 0.30711 0.12864 0.0
O94 O 0.95576 0.23816 0.10351 0.0
O95 O 0.91055 0.24841 0.08551 0.0
C96 C 0.04673 0.26822 0.15642 0.0
C97 C 0.10211 0.24474 0.15144 0.0
C98 C 0.07618 0.23878 0.13234 0.0
C99 C 0.04869 0.25025 0.13484 0.0
C100 C 0.07233 0.27411 0.17555 0.0
C101 C 0.09972 0.26247 0.17312 0.0
C102 C 1.01756 0.28 0.15932 0.0
C103 C 0.87603 0.23217 0.17289 0.0
C104 C 0.89859 0.16597 0.12969 0.0
C105 C 0.75947 0.18407 0.10132 0.0
C106 C 0.68508 0.17115 0.11207 0.0
C107 C 0.71154 0.17801 0.131 0.0
C108 C 0.74847 0.18454 0.12567 0.0
C109 C 0.73322 0.17724 0.08246 0.0
C110 C 0.69647 0.17087 0.08774 0.0
C111 C 0.79756 0.18938 0.09518 0.0
H112 H 0.0774 0.22571 0.11528 0.0
H113 H 1.02902 0.24516 0.11988 0.0
H114 H 0.07101 0.28757 0.19243 0.0
H115 H 0.11871 0.26696 0.18838 0.0
H116 H 0.70387 0.17878 0.1499 0.0
H117 H 0.76836 0.1898 0.14053 0.0
H118 H 0.74105 0.1765 0.06358 0.0
H119 H 0.67673 0.16511 0.07272 0.0
Dy120 Dy 0.38703 0.17505 0.41116 0.0
Dy121 Dy 0.33684 0.09136 0.3828 0.0
C122 C 0.38023 0.16984 0.35311 0.0
O123 O 0.33245 0.1709 0.39874 0.0
O124 O 0.29423 0.10591 0.39883 0.0
O125 O 0.39487 0.23092 0.41925 0.0
O126 O 0.43213 0.21309 0.43604 0.0
O127 O 0.35339 0.08195 0.41969 0.0
O128 O 0.3524 0.13092 0.43978 0.0
O129 O 0.39787 0.10643 0.37584 0.0
O130 O 0.42768 0.15328 0.4055 0.0
O131 O 0.30781 0.02979 0.38501 0.0
O132 O 0.30539 0.05668 0.35153 0.0
C133 C 0.29842 0.14041 0.39902 0.0
O134 O 0.40376 0.18657 0.37157 0.0
O135 O 0.34864 0.13685 0.35554 0.0
C136 C 0.45856 0.27883 0.42661 0.0
C137 C 0.51974 0.35264 0.41562 0.0
C138 C 0.50114 0.3254 0.39692 0.0
C139 C 0.47092 0.28885 0.40237 0.0
C140 C 0.47711 0.30564 0.44533 0.0
C141 C 0.50742 0.34215 0.43992 0.0
C142 C 0.42542 0.24124 0.43248 0.0
C143 C 0.34749 0.09607 0.43969 0.0
C144 C 0.4282 0.12969 0.389 0.0
C145 C 0.25001 0.9996 0.36316 0.0
C146 C 0.1702 0.9488 0.36535 0.0
C147 C 0.18687 0.984 0.37791 0.0
C148 C 0.22636 1.00906 0.37687 0.0
C149 C 0.23356 0.96506 0.35011 0.0
C150 C 0.19398 0.93986 0.35117 0.0
C151 C 0.29189 0.02472 0.36357 0.0
H152 H 0.50949 0.33249 0.37798 0.0
H153 H 0.45686 0.26857 0.38762 0.0
H154 H 0.46797 0.29842 0.46415 0.0
H155 H 0.52143 0.36202 0.45485 0.0
H156 H 0.16942 0.9921 0.38872 0.0
H157 H 0.23856 0.0355 0.38717 0.0
H158 H 0.25141 0.95718 0.33954 0.0
H159 H 0.18222 0.91285 0.3415 0.0
Dy160 Dy 0.80997 0.7243 0.1404 0.0
Dy161 Dy 0.83751 0.67193 0.10883 0.0
C162 C 0.8111 0.72611 0.0816 0.0
O163 O 0.76239 0.66282 0.14285 0.0
O164 O 0.77458 0.64748 0.1051 0.0
O165 O 0.77037 0.74525 0.14682 0.0
O166 O 0.82052 0.7645 0.16965 0.0
O167 O 0.8299 0.65061 0.14761 0.0
O168 O 0.83775 0.70453 0.16726 0.0
O169 O 0.88982 0.72051 0.12531 0.0
O170 O 0.86863 0.76366 0.12558 0.0
O171 O 0.87968 0.6641 0.08871 0.0
O172 O 0.82245 0.61658 0.09396 0.0
C173 C 0.75155 0.63959 0.12381 0.0
O174 O 0.79454 0.72751 0.10191 0.0
O175 O 0.83405 0.71137 0.0808 0.0
C176 C 0.80257 0.80994 0.1592 0.0
C177 C 0.82447 0.8877 0.15221 0.0
C178 C 0.84042 0.87009 0.13778 0.0
C179 C 0.82953 0.83161 0.14123 0.0
C180 C 0.78636 0.82713 0.17354 0.0
C181 C 0.79716 0.86565 0.17008 0.0
C182 C 0.79224 0.76982 0.16335 0.0
C183 C 0.83731 0.67179 0.16741 0.0
C184 C 0.89683 0.75597 0.12615 0.0
C185 C 0.87227 0.602 0.09249 0.0
C186 C 0.89384 0.54688 0.10442 0.0
C187 C 0.88856 0.56832 0.12291 0.0
C188 C 0.87784 0.59559 0.11699 0.0
C189 C 0.8786 0.58163 0.07399 0.0
C190 C 0.88932 0.55439 0.07986 0.0
C191 C 0.8569 0.62737 0.08606 0.0
H192 H 0.86187 0.88619 0.1241 0.0
H193 H 0.84247 0.81884 0.13001 0.0
H194 H 0.76547 0.81082 0.18748 0.0
H195 H 0.78386 0.87805 0.18127 0.0
H196 H 0.89225 0.56371 0.14199 0.0
H197 H 0.87302 0.61101 0.13156 0.0
H198 H 0.87415 0.58597 0.05497 0.0
H199 H 0.89257 0.53817 0.06514 0.0
Dy200 Dy 0.86575 0.20319 0.40722 0.0
Dy201 Dy 0.94468 0.22606 0.37622 0.0
C202 C 0.8669 0.20345 0.34877 0.0
O203 O 0.8602 0.14928 0.39182 0.0
O204 O 0.92382 0.16771 0.39178 0.0
O205 O 0.81499 0.16287 0.42714 0.0
O206 O 0.8259 0.22031 0.42025 0.0
O207 O 0.9637 0.23864 0.4148 0.0
O208 O 0.9072 0.20675 0.43647 0.0
O209 O 0.93333 0.27567 0.37385 0.0
O210 O 0.90667 0.26523 0.41169 0.0
O211 O 1.00458 0.26452 0.36855 0.0
O212 O 0.97329 0.2118 0.3481 0.0
C213 C 0.88772 0.14069 0.39145 0.0
O214 O 0.85476 0.21336 0.36829 0.0
O215 O 0.89698 0.19898 0.3495 0.0
C216 C 0.76149 0.17137 0.41992 0.0
C217 C 0.68594 0.14968 0.40516 0.0
C218 C 0.71561 0.16207 0.38783 0.0
C219 C 0.753 0.17271 0.39514 0.0
C220 C 0.73183 0.15788 0.43714 0.0
C221 C 0.69438 0.14702 0.42984 0.0
C222 C 0.80138 0.18629 0.42813 0.0
C223 C 0.94505 0.22526 0.43537 0.0
C224 C 0.92245 0.28789 0.39298 0.0
C225 C 0.03614 0.22978 0.35956 0.0
C226 C 0.08923 0.20521 0.37039 0.0
C227 C 0.06314 0.20338 0.38822 0.0
C228 C 0.03675 0.21537 0.38281 0.0
C229 C 0.0621 0.23182 0.34172 0.0
C230 C 0.08843 0.21961 0.34707 0.0
C231 C 1.0069 0.24039 0.35362 0.0
H232 H 0.71002 0.16405 0.36866 0.0
H233 H 0.77547 0.18291 0.38151 0.0
H234 H 0.73784 0.15675 0.45635 0.0
H235 H 0.67235 0.13803 0.4437 0.0
H236 H 0.06264 0.19199 0.40623 0.0
H237 H 1.01646 0.21295 0.3967 0.0
H238 H 0.06181 0.24256 0.32362 0.0
H239 H 0.10839 0.22175 0.33303 0.0
Dy240 Dy 0.19385 0.35786 0.61587 0.0
Dy241 Dy 0.10547 0.31219 0.63806 0.0
C242 C 0.1779 0.34629 0.67325 0.0
O243 O 0.18359 0.30032 0.6256 0.0
O244 O 0.11773 0.26584 0.62583 0.0
O245 O 0.25163 0.36776 0.6153 0.0
O246 O 0.23436 0.39693 0.58929 0.0
O247 O 0.10654 0.33485 0.60105 0.0
O248 O 0.15237 0.3242 0.58556 0.0
O249 O 0.12431 0.37412 0.64536 0.0
O250 O 0.1761 0.4019 0.61909 0.0
O251 O 0.04555 0.28172 0.62861 0.0
O252 O 0.06269 0.28861 0.66671 0.0
C253 C 0.15139 0.26774 0.62531 0.0
O254 O 0.19885 0.37088 0.65622 0.0
O255 O 0.14457 0.31637 0.66811 0.0
C256 C 0.29945 0.42868 0.60209 0.0
C257 C 0.37266 0.49323 0.60977 0.0
C258 C 0.34589 0.47829 0.62899 0.0
C259 C 0.30961 0.44636 0.62517 0.0
C260 C 0.32572 0.44377 0.58282 0.0
C261 C 0.36191 0.47573 0.58657 0.0
C262 C 0.26264 0.39335 0.59806 0.0
C263 C 0.12024 0.32482 0.58266 0.0
C264 C 0.15121 0.40407 0.63366 0.0
C265 C 1.00717 0.23079 0.65446 0.0
C266 C 0.95527 0.15111 0.65475 0.0
C267 C 0.94359 0.17705 0.64685 0.0
C268 C 0.9692 0.21636 0.64681 0.0
C269 C 1.01907 0.20531 0.6627 0.0
C270 C 0.99329 0.16585 0.663 0.0
C271 C 0.03448 0.27181 0.65109 0.0
H272 H 0.35322 0.49075 0.64713 0.0
H273 H 0.28975 0.43509 0.64034 0.0
H274 H 0.31839 0.43054 0.56487 0.0
H275 H 0.3814 0.48684 0.57123 0.0
H276 H 0.91497 0.16702 0.63982 0.0
H277 H 0.95964 0.2355 0.63999 0.0
H278 H 0.04846 0.21579 0.66838 0.0
H279 H 1.0033 0.14694 0.66949 0.0
Dy280 Dy 0.25145 0.9453 0.87891 0.0
Dy281 Dy 0.2268 0.86531 0.90908 0.0
C282 C 0.25371 0.94484 0.93766 0.0
O283 O 0.29989 0.93264 0.87416 0.0
O284 O 0.28986 0.90327 0.91119 0.0
O285 O 0.28929 1.00566 0.87247 0.0
O286 O 0.23717 0.97465 0.85141 0.0
O287 O 0.23366 0.8529 0.86982 0.0
O288 O 0.22369 0.89852 0.85153 0.0
O289 O 0.17357 0.86156 0.89395 0.0
O290 O 0.19382 0.92532 0.89568 0.0
O291 O 0.18513 0.81399 0.92791 0.0
O292 O 0.24335 0.82568 0.92324 0.0
C293 C 0.31158 0.91892 0.89202 0.0
O294 O 0.2693 0.96297 0.91729 0.0
O295 O 0.23105 0.90732 0.93823 0.0
C296 C 0.25362 0.03651 0.86406 0.0
C297 C 0.22653 0.08741 0.8756 0.0
C298 C 0.22572 0.06153 0.89317 0.0
C299 C 0.239 0.03625 0.88742 0.0
C300 C 0.25466 0.06228 0.84649 0.0
C301 C 0.24124 0.08753 0.85219 0.0
C302 C 0.26521 1.00816 0.8576 0.0
C303 C 0.22507 0.86671 0.85057 0.0
C304 C 0.16598 0.88967 0.89451 0.0
C305 C 0.19501 0.76116 0.92161 0.0
C306 C 0.1756 0.68636 0.90662 0.0
C307 C 0.18808 0.71619 0.88946 0.0
C308 C 0.19761 0.7532 0.89688 0.0
C309 C 0.18147 0.73135 0.93865 0.0
C310 C 0.17176 0.69428 0.93125 0.0
C311 C 0.20876 0.80074 0.93 0.0
H312 H 0.21416 0.06031 0.91125 0.0
H313 H 0.2374 1.01612 0.90114 0.0
H314 H 0.26552 0.06264 0.8283 0.0
H315 H 0.24271 0.10738 0.83833 0.0
H316 H 0.19094 0.71102 0.87033 0.0
H317 H 0.20791 0.7758 0.88339 0.0
H318 H 0.17941 0.73696 0.95783 0.0
H319 H 0.16268 0.67217 0.945 0.0
Dy320 Dy 0.67577 0.8219 0.60914 0.0
Dy321 Dy 0.72061 0.78316 0.63795 0.0
C322 C 0.66912 0.80831 0.66749 0.0
O323 O 0.73788 0.86496 0.60822 0.0
O324 O 0.75523 0.84668 0.64332 0.0
O325 O 0.67056 0.87179 0.60195 0.0
O326 O 0.63192 0.81807 0.58426 0.0
O327 O 0.74535 0.79887 0.60072 0.0
O328 O 0.69293 0.79266 0.58048 0.0
O329 O 0.66409 0.7339 0.62535 0.0
O330 O 0.62997 0.76567 0.62246 0.0
O331 O 0.74281 0.74401 0.63751 0.0
O332 O 0.75269 0.78068 0.66892 0.0
C333 C 0.76094 0.87288 0.627 0.0
O334 O 0.67316 0.83183 0.64955 0.0
O335 O 0.67852 0.78159 0.66488 0.0
C336 C 0.60741 0.85907 0.59445 0.0
C337 C 0.5458 0.87197 0.60532 0.0
C338 C 0.56543 0.86487 0.62415 0.0
C339 C 0.59584 0.85839 0.61876 0.0
C340 C 0.58801 0.86609 0.57563 0.0
C341 C 0.55752 0.87242 0.58097 0.0
C342 C 0.63994 0.85318 0.58847 0.0
C343 C 0.72486 0.79099 0.58074 0.0
C344 C 0.63127 0.73378 0.62359 0.0
C345 C 0.80316 0.77075 0.65652 0.0
C346 C 0.88211 0.79525 0.65265 0.0
C347 C 0.86731 0.81799 0.64356 0.0
C348 C 0.82821 0.80581 0.64542 0.0
C349 C 0.81769 0.74807 0.66578 0.0
C350 C 0.85682 0.76017 0.66386 0.0
C351 C 0.76188 0.7576 0.65786 0.0
H352 H 0.5576 0.86471 0.64312 0.0
H353 H 0.61047 0.85306 0.6336 0.0
H354 H 0.59643 0.86663 0.55675 0.0
H355 H 0.54275 0.87708 0.56595 0.0
H356 H 0.88581 0.84486 0.63452 0.0
H357 H 0.81744 0.82361 0.63799 0.0
H358 H 0.79875 0.72092 0.67439 0.0
H359 H 0.86731 0.74216 0.67129 0.0
Dy360 Dy 0.11562 0.33799 0.88633 0.0
Dy361 Dy 0.20323 0.38777 0.9101 0.0
C362 C 0.12784 0.35598 0.94174 0.0
O363 O 0.13274 0.39898 0.87745 0.0
O364 O 0.18438 0.43052 0.90378 0.0
O365 O 0.05543 0.3059 0.8945 0.0
O366 O 0.07432 0.31221 0.85685 0.0
O367 O 0.20899 0.3973 0.86941 0.0
O368 O 0.15664 0.34031 0.85819 0.0
O369 O 0.19452 0.33006 0.90163 0.0
O370 O 0.12889 0.2942 0.90191 0.0
O371 O 0.25971 0.3946 0.91439 0.0
O372 O 0.24537 0.43338 0.93297 0.0
C373 C 0.1588 0.43029 0.88864 0.0
O374 O 0.11456 0.36347 0.92202 0.0
O375 O 0.16134 0.3576 0.94091 0.0
C376 C 1.01876 0.25443 0.86842 0.0
C377 C 0.96522 0.1754 0.86946 0.0
C378 C 1.00478 0.18841 0.87088 0.0
C379 C 0.03133 0.22766 0.87046 0.0
C380 C 0.97954 0.24154 0.86598 0.0
C381 C 0.95301 0.20243 0.86644 0.0
C382 C 0.0454 0.29555 0.87187 0.0
C383 C 0.18976 0.37038 0.8531 0.0
C384 C 0.16291 0.29695 0.90262 0.0
C385 C 0.31062 0.45738 0.92084 0.0
C386 C 0.38518 0.51704 0.90905 0.0
C387 C 0.35296 0.52172 0.90561 0.0
C388 C 0.31602 0.49216 0.91141 0.0
C389 C 0.34257 0.45248 0.92392 0.0
C390 C 0.37933 0.48182 0.91805 0.0
C391 C 0.27238 0.42554 0.92754 0.0
H392 H 1.01514 0.1684 0.87336 0.0
H393 H 0.06153 0.23719 0.87259 0.0
H394 H 0.9693 0.26181 0.86454 0.0
H395 H 0.92282 0.19336 0.86488 0.0
H396 H 0.35633 0.54851 0.89894 0.0
H397 H 0.29181 0.49661 0.9087 0.0
H398 H 0.33909 0.4258 0.93096 0.0
H399 H 0.4032 0.47678 0.92052 0.0
Dy400 Dy 0.21484 0.84031 0.61593 0.0
Dy401 Dy 0.25115 0.9248 0.64171 0.0
C402 C 0.23064 0.85261 0.67386 0.0
O403 O 0.17084 0.85825 0.61254 0.0
O404 O 0.18741 0.89406 0.64737 0.0
O405 O 0.16588 0.78413 0.61083 0.0
O406 O 0.21881 0.79973 0.59172 0.0
O407 O 0.23395 0.93024 0.60402 0.0
O408 O 0.24356 0.88449 0.58627 0.0
O409 O 0.30182 0.91902 0.62941 0.0
O410 O 0.27243 0.85342 0.62892 0.0
O411 O 0.28768 0.9861 0.63999 0.0
O412 O 0.25198 0.96018 0.67176 0.0
C413 C 0.16174 0.87337 0.63076 0.0
O414 O 0.20618 0.83134 0.65672 0.0
O415 O 0.25675 0.8882 0.66975 0.0
C416 C 0.18006 0.73484 0.60285 0.0
C417 C 0.17054 0.66197 0.61341 0.0
C418 C 0.18014 0.68939 0.6321 0.0
C419 C 0.18499 0.72559 0.62684 0.0
C420 C 0.17023 0.70754 0.58426 0.0
C421 C 0.16553 0.67149 0.58945 0.0
C422 C 0.18433 0.7724 0.59688 0.0
C423 C 0.24276 0.91674 0.58485 0.0
C424 C 0.30358 0.8871 0.62873 0.0
C425 C 0.25722 1.01746 0.65743 0.0
C426 C 0.22633 0.06662 0.65214 0.0
C427 C 0.21164 0.03261 0.6384 0.0
C428 C 0.22691 1.00825 0.64106 0.0
C429 C 0.27162 0.05092 0.67145 0.0
C430 C 0.25631 0.0753 0.66886 0.0
C431 C 0.27335 0.99185 0.65993 0.0
H432 H 0.18462 0.68312 0.65067 0.0
H433 H 0.19264 0.74637 0.64146 0.0
H434 H 0.1661 0.71409 0.56567 0.0
H435 H 0.15767 0.65093 0.57468 0.0
H436 H 0.18897 0.02522 0.62515 0.0
H437 H 0.21528 0.98235 0.63016 0.0
H438 H 0.29476 0.05827 0.68434 0.0
H439 H 0.26794 0.10093 0.68 0.0
Dy440 Dy 0.72936 0.81107 0.87128 0.0
Dy441 Dy 0.67544 0.83787 0.90135 0.0
C442 C 0.73068 0.81388 0.93025 0.0
O443 O 0.66805 0.76288 0.86921 0.0
O444 O 0.6525 0.77566 0.90673 0.0
O445 O 0.74782 0.76991 0.86385 0.0
O446 O 0.77249 0.82309 0.84379 0.0
O447 O 0.65398 0.82662 0.86242 0.0
O448 O 0.70994 0.83844 0.84399 0.0
O449 O 0.72454 0.88983 0.88519 0.0
O450 O 0.76819 0.86939 0.88672 0.0
O451 O 0.66633 0.88119 0.91901 0.0
O452 O 0.61988 0.82289 0.91575 0.0
C453 C 0.64552 0.75191 0.88852 0.0
O454 O 0.7341 0.79828 0.91001 0.0
O455 O 0.71369 0.83488 0.93075 0.0
C456 C 0.81399 0.80038 0.85488 0.0
C457 C 0.89048 0.82011 0.86524 0.0
C458 C 0.86554 0.81724 0.8842 0.0
C459 C 0.82772 0.80769 0.87905 0.0
C460 C 0.83858 0.80277 0.83595 0.0
C461 C 0.87651 0.8126 0.84106 0.0
C462 C 0.77506 0.79293 0.84914 0.0
C463 C 0.67598 0.83528 0.84299 0.0
C464 C 0.76022 0.89728 0.88557 0.0
C465 C 0.60343 0.87158 0.91304 0.0
C466 C 0.54764 0.89175 0.89972 0.0
C467 C 0.55507 0.86791 0.88453 0.0
C468 C 0.58279 0.85807 0.89105 0.0
C469 C 0.5971 0.89648 0.92779 0.0
C470 C 0.5696 0.90662 0.92116 0.0
C471 C 0.62962 0.85799 0.92151 0.0
H472 H 0.87552 0.82331 0.90296 0.0
H473 H 0.80938 0.80661 0.8939 0.0
H474 H 0.82858 0.79754 0.81717 0.0
H475 H 0.8949 0.81421 0.8261 0.0
H476 H 0.53898 0.85633 0.86777 0.0
H477 H 0.58734 0.83907 0.87921 0.0
H478 H 0.61267 0.90723 0.94482 0.0
H479 H 0.56438 0.92477 0.93337 0.0
H480 H 0.09483 0.1802 0.12905 0.0
H481 H 0.17659 0.28224 0.16757 0.0
H482 H 0.14376 0.16188 0.12358 0.0
H483 H 0.22479 0.26289 0.16329 0.0
H484 H 0.31439 0.24024 0.12954 0.0
H485 H 0.26467 0.25759 0.13326 0.0
H486 H 0.18042 0.13899 0.14507 0.0
H487 H 0.23019 0.12144 0.14061 0.0
C488 C 0.12321 0.19876 0.13637 0.0
C489 C 0.13168 0.23282 0.14869 0.0
C490 C 0.15119 0.18797 0.1335 0.0
C491 C 0.18836 0.21089 0.14293 0.0
C492 C 0.19669 0.24476 0.15544 0.0
C493 C 0.16881 0.25562 0.15821 0.0
C494 C 0.28525 0.21778 0.13284 0.0
C495 C 0.27635 0.17943 0.13483 0.0
C496 C 0.25671 0.2278 0.13516 0.0
C497 C 0.21846 0.19979 0.13969 0.0
C498 C 0.20945 0.16131 0.14134 0.0
C499 C 0.23804 0.15125 0.13888 0.0
H500 H 0.1194 0.90303 0.32994 0.0
H501 H 0.12662 0.93105 0.40682 0.0
H502 H 0.05203 0.85484 0.33503 0.0
H503 H 0.05915 0.88404 0.41168 0.0
H504 H 0.95497 0.76359 0.41714 0.0
H505 H 1.02046 0.81496 0.41165 0.0
H506 H 0.98822 0.84621 0.34378 0.0
H507 H 0.92243 0.79415 0.34908 0.0
C508 C 0.10661 0.89905 0.34789 0.0
C509 C 0.12854 0.92088 0.36797 0.0
C510 C 0.06786 0.87173 0.35075 0.0
C511 C 0.05017 0.86546 0.37379 0.0
C512 C 0.07195 0.88778 0.39374 0.0
C513 C 0.11058 0.9151 0.39088 0.0
C514 C 0.96166 0.78148 0.40109 0.0
C515 C 0.93335 0.77462 0.38353 0.0
C516 C 0.99927 0.81115 0.39801 0.0
C517 C 1.00966 0.83478 0.37727 0.0
C518 C 0.98127 0.82828 0.35983 0.0
C519 C 0.94351 0.79859 0.36295 0.0
H520 H 0.85236 0.10462 0.10071 0.0
H521 H 0.92555 0.1361 0.16447 0.0
H522 H 0.83537 0.03813 0.10614 0.0
H523 H 0.90919 0.06951 0.16957 0.0
H524 H 0.837 0.94164 0.18731 0.0
H525 H 0.85587 1.00868 0.18148 0.0
H526 H 0.85987 0.99474 0.10333 0.0
H527 H 0.83929 0.92732 0.10908 0.0
C528 C 0.86519 0.09747 0.11576 0.0
C529 C 0.89031 0.12582 0.13218 0.0
C530 C 0.85556 0.05925 0.1188 0.0
C531 C 0.87082 0.04829 0.13833 0.0
C532 C 0.89642 0.07676 0.15454 0.0
C533 C 0.90604 0.11504 0.15151 0.0
C534 C 0.84148 0.95273 0.16886 0.0
C535 C 0.83646 0.9289 0.14868 0.0
C536 C 0.85285 0.99139 0.16553 0.0
C537 C 0.85951 1.00728 0.14193 0.0
C538 C 0.85462 0.98347 0.12176 0.0
C539 C 0.84323 0.94483 0.12509 0.0
H540 H 0.29576 0.20454 0.41111 0.0
H541 H 0.22493 0.08933 0.38415 0.0
H542 H 0.24302 0.21711 0.40558 0.0
H543 H 0.17165 0.10195 0.37875 0.0
H544 H 0.1099 0.16222 0.34191 0.0
H545 H 0.15766 0.14316 0.35098 0.0
H546 H 0.17891 0.1992 0.42133 0.0
H547 H 0.13189 0.21897 0.41207 0.0
C548 C 0.26874 0.18169 0.40425 0.0
C549 C 0.26461 0.14592 0.39802 0.0
C550 C 0.2384 0.18887 0.40121 0.0
C551 C 0.20314 0.16057 0.39168 0.0
C552 C 0.1986 0.12443 0.38595 0.0
C553 C 0.22898 0.11709 0.38924 0.0
C554 C 0.12486 0.17054 0.35928 0.0
C555 C 0.11726 0.19234 0.3762 0.0
C556 C 0.15185 0.15921 0.3646 0.0
C557 C 0.17209 0.16968 0.38687 0.0
C558 C 0.16402 0.19092 0.40393 0.0
C559 C 0.13687 0.20202 0.39869 0.0
H560 H 0.11695 0.9702 0.13109 0.0
H561 H 0.13506 0.88725 0.17006 0.0
H562 H 0.05092 0.92117 0.12261 0.0
H563 H 0.06874 0.83883 0.16257 0.0
H564 H 0.96185 0.75062 0.12366 0.0
H565 H 1.02771 0.80077 0.13002 0.0
H566 H 0.98935 0.88257 0.14197 0.0
H567 H 0.92317 0.83231 0.13498 0.0
C568 C 0.10692 0.94152 0.13783 0.0
C569 C 0.13151 0.93274 0.15121 0.0
C570 C 0.06885 0.91349 0.13322 0.0
C571 C 0.05438 0.87593 0.14184 0.0
C572 C 0.07895 0.86726 0.15532 0.0
C573 C 0.11695 0.89523 0.15991 0.0
C574 C 0.96735 0.77931 0.12754 0.0
C575 C 0.93709 0.78733 0.12888 0.0
C576 C 1.00522 0.80809 0.13137 0.0
C577 C 1.01398 0.84575 0.13677 0.0
C578 C 0.98377 0.85399 0.13765 0.0
C579 C 0.94577 0.82513 0.13373 0.0
H580 H 0.87974 0.91938 0.38665 0.0
H581 H 0.77074 0.89788 0.35762 0.0
H582 H 0.89809 0.986 0.39357 0.0
H583 H 0.79012 0.96498 0.36299 0.0
H584 H 0.81764 0.07741 0.39824 0.0
H585 H 0.80006 1.01065 0.39328 0.0
H586 H 0.91697 0.04491 0.37387 0.0
H587 H 0.9348 0.11177 0.37978 0.0
C588 C 0.85963 0.92877 0.38171 0.0
C589 C 0.82359 0.90294 0.37167 0.0
C590 C 0.87043 0.96726 0.38536 0.0
C591 C 0.84564 0.98112 0.3789 0.0
C592 C 0.80981 0.95538 0.36859 0.0
C593 C 0.79888 0.91685 0.36513 0.0
C594 C 0.83966 0.07072 0.39302 0.0
C595 C 0.87763 0.09999 0.38938 0.0
C596 C 0.82951 0.03234 0.38998 0.0
C597 C 0.85695 0.02213 0.38294 0.0
C598 C 0.89508 0.05149 0.37959 0.0
C599 C 0.90533 0.08992 0.38288 0.0
H600 H 0.15182 0.05019 0.64477 0.0
H601 H 0.26768 0.14458 0.65045 0.0
H602 H 0.129 0.09518 0.63603 0.0
H603 H 0.24482 0.1892 0.64278 0.0
H604 H 0.20547 0.2582 0.60248 0.0
H605 H 0.21998 0.20692 0.60803 0.0
H606 H 0.1208 0.14749 0.65454 0.0
H607 H 0.10564 0.19905 0.64835 0.0
C608 C 0.1724 0.08048 0.64422 0.0
C609 C 0.21166 0.09373 0.64823 0.0
C610 C 0.15924 0.10624 0.63944 0.0
C611 C 0.18511 0.14574 0.63841 0.0
C612 C 0.22416 0.1589 0.64295 0.0
C613 C 0.23725 0.1333 0.64772 0.0
C614 C 0.18634 0.23388 0.61357 0.0
C615 C 0.15468 0.23278 0.62522 0.0
C616 C 0.19484 0.20462 0.61692 0.0
C617 C 0.17219 0.17361 0.63228 0.0
C618 C 0.13891 0.17109 0.64266 0.0
C619 C 0.13014 0.20048 0.63909 0.0
H620 H 0.10142 0.81982 0.898 0.0
H621 H 0.13908 0.93935 0.88601 0.0
H622 H 0.03519 0.80423 0.89193 0.0
H623 H 0.0725 0.92362 0.88006 0.0
H624 H 0.95473 0.87104 0.84037 0.0
H625 H 1.02125 0.88898 0.8489 0.0
H626 H 0.98454 0.81337 0.9112 0.0
H627 H 0.91796 0.79489 0.9024 0.0
C628 C 0.09557 0.84285 0.89425 0.0
C629 C 0.12561 0.88085 0.89244 0.0
C630 C 0.05754 0.83389 0.8909 0.0
C631 C 0.04858 0.86266 0.88547 0.0
C632 C 0.07854 0.90077 0.88399 0.0
C633 C 0.11664 0.9098 0.88756 0.0
C634 C 0.96086 0.8581 0.85581 0.0
C635 C 0.93104 0.83141 0.87064 0.0
C636 C 0.999 0.86871 0.86086 0.0
C637 C 1.00818 0.85263 0.88074 0.0
C638 C 0.97838 0.82606 0.89564 0.0
C639 C 0.94027 0.81569 0.89071 0.0
H640 H 0.8253 0.89891 0.65566 0.0
H641 H 0.76629 0.93734 0.60723 0.0
H642 H 0.87397 0.96571 0.66373 0.0
H643 H 0.81435 1.0036 0.61564 0.0
H644 H 0.87758 0.11256 0.66281 0.0
H645 H 0.83248 0.04501 0.65597 0.0
H646 H 0.92584 0.02562 0.63764 0.0
H647 H 0.97123 0.09371 0.64326 0.0
C648 C 0.8228 0.92154 0.64668 0.0
C649 C 0.79195 0.91284 0.63081 0.0
C650 C 0.85066 0.95967 0.65126 0.0
C651 C 0.84766 0.98971 0.64045 0.0
C652 C 0.81711 0.98097 0.62439 0.0
C653 C 0.78976 0.94299 0.61945 0.0
C654 C 0.88869 0.09416 0.65711 0.0
C655 C 0.92821 0.109 0.65327 0.0
C656 C 0.86277 0.05537 0.65334 0.0
C657 C 0.87569 0.03023 0.64609 0.0
C658 C 0.91519 0.04443 0.64333 0.0
C659 C 0.94117 0.08345 0.64669 0.0
H660 H 0.11042 0.22355 0.88828 0.0
H661 H 0.22501 0.2921 0.91698 0.0
H662 H 0.1217 0.16929 0.88372 0.0
H663 H 0.23624 0.2385 0.91233 0.0
H664 H 0.23824 0.12836 0.9179 0.0
H665 H 0.2175 0.17447 0.92747 0.0
H666 H 0.16305 0.15457 0.85666 0.0
H667 H 0.18291 0.10756 0.84732 0.0
C668 C 0.13771 0.22688 0.89397 0.0
C669 C 0.16687 0.26222 0.90285 0.0
C670 C 0.14429 0.19593 0.89118 0.0
C671 C 0.17994 0.19962 0.89757 0.0
C672 C 0.20835 0.23448 0.90745 0.0
C673 C 0.20195 0.26535 0.90997 0.0
C674 C 0.22134 0.13334 0.90451 0.0
C675 C 0.21248 0.11442 0.88176 0.0
C676 C 0.20967 0.15999 0.90993 0.0
C677 C 0.18874 0.16833 0.8928 0.0
C678 C 0.17884 0.14858 0.87035 0.0
C679 C 0.19069 0.12202 0.86486 0.0
H680 H 0.10081 0.82785 0.60137 0.0
H681 H 0.1312 0.89901 0.66607 0.0
H682 H 0.034 0.81034 0.60674 0.0
H683 H 0.06397 0.88093 0.67162 0.0
H684 H 0.94388 0.86714 0.65918 0.0
H685 H 1.01165 0.88773 0.65338 0.0
H686 H 0.98193 0.7719 0.63482 0.0
H687 H 0.91426 0.75159 0.63987 0.0
C688 C 0.09331 0.8399 0.61672 0.0
C689 C 0.12145 0.86475 0.63335 0.0
C690 C 0.05488 0.82959 0.6199 0.0
C691 C 0.04351 0.84391 0.63974 0.0
C692 C 0.07176 0.86954 0.65605 0.0
C693 C 0.11029 0.87979 0.65292 0.0
C694 C 0.95181 0.84612 0.65371 0.0
C695 C 0.92357 0.8077 0.64995 0.0
C696 C 0.99069 0.85786 0.65062 0.0
C697 C 1.00226 0.83151 0.64355 0.0
C698 C 0.97402 0.79306 0.63996 0.0
C699 C 0.93521 0.7813 0.64315 0.0
H700 H 0.89976 0.14426 0.89658 0.0
H701 H 0.96611 0.11306 0.8494 0.0
H702 H 0.85193 0.0772 0.90114 0.0
H703 H 0.91778 0.04553 0.85377 0.0
H704 H 0.83817 0.92534 0.88577 0.0
H705 H 0.88888 0.99214 0.88245 0.0
H706 H 0.80323 0.02688 0.87704 0.0
H707 H 0.75296 0.9608 0.88092 0.0
C708 C 0.90394 0.12306 0.88695 0.0
C709 C 0.93655 0.13411 0.87236 0.0
C710 C 0.87648 0.08453 0.88958 0.0
C711 C 0.88072 0.05587 0.87763 0.0
C712 C 0.91373 0.0668 0.86341 0.0
C713 C 0.94138 0.1055 0.86084 0.0
C714 C 0.83023 0.9473 0.88398 0.0
C715 C 0.79145 0.93765 0.88375 0.0
C716 C 0.8593 0.98557 0.88191 0.0
C717 C 0.8502 1.01499 0.8796 0.0
C718 C 0.81139 1.00515 0.87926 0.0
C719 C 0.78247 0.96708 0.88135 0.0
H720 H 0.45061 0.21606 0.33201 0.0
H721 H 0.32892 0.1623 0.31855 0.0
H722 H 0.46287 0.23597 0.28889 0.0
H723 H 0.34085 0.18172 0.27613 0.0
H724 H 0.3606 0.22507 0.2034 0.0
H725 H 0.36617 0.23462 0.24765 0.0
H726 H 0.45178 0.19949 0.24953 0.0
H727 H 0.44699 0.19139 0.20498 0.0
C728 C 0.42661 0.20929 0.32 0.0
C729 C 0.38882 0.18741 0.32854 0.0
C730 C 0.43358 0.22047 0.29535 0.0
C731 C 0.40287 0.21057 0.27905 0.0
C732 C 0.36526 0.19047 0.28814 0.0
C733 C 0.35836 0.17896 0.31248 0.0
C734 C 0.38191 0.22122 0.2132 0.0
C735 C 0.40353 0.20775 0.20095 0.0
C736 C 0.38485 0.22627 0.23854 0.0
C737 C 0.40878 0.21696 0.2522 0.0
C738 C 0.43321 0.20709 0.23958 0.0
C739 C 0.43058 0.20252 0.21408 0.0
H740 H 0.89277 0.66431 0.32037 0.0
H741 H 0.77087 0.61587 0.31005 0.0
H742 H 0.90046 0.65945 0.27624 0.0
H743 H 0.77846 0.61088 0.26626 0.0
H744 H 0.79785 0.60028 0.1875 0.0
H745 H 0.79881 0.58446 0.23081 0.0
H746 H 0.89165 0.6991 0.24404 0.0
H747 H 0.89026 0.71474 0.20122 0.0
C748 C 0.86753 0.65157 0.3088 0.0
C749 C 0.83131 0.64099 0.31856 0.0
C750 C 0.87193 0.64889 0.28356 0.0
C751 C 0.84009 0.635 0.26776 0.0
C752 C 0.80352 0.62139 0.2779 0.0
C753 C 0.79921 0.62459 0.303 0.0
C754 C 0.81924 0.62152 0.19958 0.0
C755 C 0.84378 0.65876 0.1912 0.0
C756 C 0.81968 0.6126 0.22433 0.0
C757 C 0.84517 0.64061 0.24086 0.0
C758 C 0.87193 0.67676 0.23181 0.0
C759 C 0.87099 0.68581 0.20731 0.0
H760 H 0.81703 0.16761 0.19311 0.0
H761 H 0.89987 0.28529 0.20929 0.0
H762 H 0.7998 0.15671 0.2365 0.0
H763 H 0.88261 0.27448 0.25236 0.0
H764 H 0.84346 0.25084 0.32908 0.0
H765 H 0.83228 0.25604 0.28543 0.0
H766 H 0.84208 0.15586 0.2704 0.0
H767 H 0.85361 0.1511 0.31363 0.0
C768 C 0.8308 0.19137 0.20579 0.0
C769 C 0.86024 0.22713 0.1979 0.0
C770 C 0.82098 0.18511 0.23061 0.0
C771 C 0.83996 0.21469 0.24784 0.0
C772 C 0.86717 0.25121 0.23955 0.0
C773 C 0.87736 0.25729 0.21488 0.0
C774 C 0.84175 0.2292 0.3165 0.0
C775 C 0.84962 0.20073 0.32456 0.0
C776 C 0.83562 0.23229 0.29155 0.0
C777 C 0.83659 0.20652 0.27448 0.0
C778 C 0.84082 0.17595 0.28306 0.0
C779 C 0.84761 0.17331 0.3078 0.0
H780 H 0.23497 0.41153 0.69548 0.0
H781 H 0.14844 0.29462 0.70996 0.0
H782 H 0.24954 0.42159 0.73944 0.0
H783 H 0.16197 0.30476 0.75313 0.0
H784 H 0.1976 0.31682 0.82828 0.0
H785 H 0.20631 0.31438 0.78435 0.0
H786 H 0.21893 0.42693 0.77684 0.0
H787 H 0.21234 0.42995 0.82128 0.0
C788 C 0.21945 0.38791 0.70794 0.0
C789 C 0.19042 0.35234 0.6992 0.0
C790 C 0.2276 0.39373 0.73311 0.0
C791 C 0.2071 0.36397 0.74991 0.0
C792 C 0.17901 0.3282 0.74087 0.0
C793 C 0.1709 0.32247 0.71596 0.0
C794 C 0.20351 0.3415 0.81727 0.0
C795 C 0.20413 0.37346 0.82798 0.0
C796 C 0.20814 0.34003 0.79209 0.0
C797 C 0.21223 0.37001 0.7769 0.0
C798 C 0.21592 0.40336 0.78793 0.0
C799 C 0.21211 0.40514 0.81336 0.0
H800 H 0.26276 0.83252 0.83001 0.0
H801 H 0.17299 0.85953 0.81668 0.0
H802 H 0.26055 0.81476 0.78673 0.0
H803 H 0.17031 0.84141 0.77391 0.0
H804 H 0.28785 0.87259 0.70691 0.0
H805 H 0.28136 0.86124 0.75083 0.0
H806 H 0.15892 0.79038 0.74228 0.0
H807 H 0.16554 0.80154 0.69799 0.0
C808 C 0.24173 0.8334 0.81803 0.0
C809 C 0.21832 0.84773 0.82651 0.0
C810 C 0.24054 0.8234 0.7933 0.0
C811 C 0.21533 0.82681 0.77692 0.0
C812 C 0.18975 0.83806 0.78606 0.0
C813 C 0.19148 0.84873 0.81052 0.0
C814 C 0.25965 0.85368 0.71431 0.0
C815 C 0.22713 0.83832 0.69913 0.0
C816 C 0.25597 0.84692 0.73946 0.0
C817 C 0.2196 0.82513 0.75003 0.0
C818 C 0.18729 0.80742 0.7346 0.0
C819 C 0.19108 0.81368 0.70929 0.0
H820 H 0.63732 0.75502 0.70338 0.0
H821 H 0.67246 0.87276 0.687 0.0
H822 H 0.62725 0.76548 0.74591 0.0
H823 H 0.66231 0.88329 0.72988 0.0
H824 H 0.71558 0.88908 0.80915 0.0
H825 H 0.70213 0.8848 0.76551 0.0
H826 H 0.59317 0.78283 0.77755 0.0
H827 H 0.6068 0.78751 0.82163 0.0
C828 C 0.64213 0.78298 0.70878 0.0
C829 C 0.65635 0.81326 0.69195 0.0
C830 C 0.63591 0.78886 0.73314 0.0
C831 C 0.64416 0.82528 0.74131 0.0
C832 C 0.65589 0.85496 0.72411 0.0
C833 C 0.66165 0.84892 0.69958 0.0
C834 C 0.6881 0.86661 0.80256 0.0
C835 C 0.66227 0.83853 0.81862 0.0
C836 C 0.68029 0.86422 0.77755 0.0
C837 C 0.64674 0.83325 0.76802 0.0
C838 C 0.61937 0.80688 0.78439 0.0
C839 C 0.62697 0.80969 0.80959 0.0
H840 H 0.22171 0.92437 0.98381 0.0
H841 H 0.3076 0.01997 0.94267 0.0
H842 H 0.23809 0.96541 0.02007 0.0
H843 H 0.32468 0.0601 0.97865 0.0
H844 H 0.33064 0.13441 0.0427 0.0
H845 H 0.30691 0.09369 1.00624 0.0
H846 H 0.28693 0.99579 0.04946 0.0
H847 H 0.30896 0.03561 0.08554 0.0
C848 C 0.24416 0.95395 0.9825 0.0
C849 C 0.26328 0.96863 0.96027 0.0
C850 C 0.2537 0.97756 1.00331 0.0
C851 C 0.28279 1.01634 1.00241 0.0
C852 C 0.30166 0.03081 0.98009 0.0
C853 C 0.292 1.00743 0.95939 0.0
C854 C 0.321 0.10419 0.04437 0.0
C855 C 0.32189 0.08855 0.06713 0.0
C856 C 0.3075 0.08076 0.02345 0.0
C857 C 0.29487 0.0412 0.02478 0.0
C858 C 0.29557 0.02577 0.04763 0.0
C859 C 0.30869 0.04896 0.06842 0.0
H860 H 0.80285 0.67338 0.48006 0.0
H861 H 0.79826 0.76102 0.43714 0.0
H862 H 0.77975 0.69324 0.51578 0.0
H863 H 0.77547 0.78043 0.47235 0.0
H864 H 0.69648 0.77872 0.5336 0.0
H865 H 0.71741 0.75571 0.49852 0.0
H866 H 0.80261 0.75017 0.54374 0.0
H867 H 0.78198 0.77304 0.5786 0.0
C868 C 0.79714 0.69687 0.47822 0.0
C869 C 0.80269 0.71562 0.45568 0.0
C870 C 0.78392 0.70828 0.49866 0.0
C871 C 0.77547 0.73828 0.49685 0.0
C872 C 0.78109 0.75689 0.47433 0.0
C873 C 0.79462 0.74588 0.45413 0.0
C874 C 0.71973 0.77271 0.53602 0.0
C875 C 0.73765 0.77809 0.55891 0.0
C876 C 0.73176 0.75953 0.51593 0.0
C877 C 0.76165 0.75097 0.51835 0.0
C878 C 0.77925 0.75602 0.54129 0.0
C879 C 0.76758 0.76956 0.56124 0.0
H880 H 0.14333 0.34062 0.9885 0.0
H881 H 0.05331 0.33818 0.94395 0.0
H882 H 0.09854 0.3147 0.02286 0.0
H883 H 1.00871 0.31083 0.97727 0.0
H884 H 0.94295 0.29371 0.04757 0.0
H885 H 0.98921 0.3221 0.01452 0.0
H886 H 0.04522 0.25956 0.03816 0.0
H887 H 1.00003 0.23278 0.07182 0.0
C888 C 0.11412 0.3346 0.98601 0.0
C889 C 0.10219 0.34182 0.96346 0.0
C890 C 0.08822 0.31936 1.00563 0.0
C891 C 0.04969 0.31056 1.00303 0.0
C892 C 0.0381 0.3179 0.9804 0.0
C893 C 0.06391 0.33349 0.96107 0.0
C894 C 0.96485 0.28569 0.04549 0.0
C895 C 0.96761 0.26083 0.06227 0.0
C896 C 0.99154 0.30198 0.0265 0.0
C897 C 1.02136 0.29336 0.0235 0.0
C898 C 1.02339 0.26769 0.04003 0.0
C899 C 0.99706 0.25187 0.05921 0.0
H900 H 0.32314 0.01993 0.44129 0.0
H901 H 0.33819 0.11393 0.4872 0.0
H902 H 0.29671 0.97651 0.47536 0.0
H903 H 0.31288 0.07023 0.52203 0.0
H904 H 0.23074 0.97582 0.57316 0.0
H905 H 0.25623 0.01929 0.53865 0.0
H906 H 0.31128 0.95724 0.51216 0.0
H907 H 0.28439 0.91282 0.54628 0.0
C908 C 0.32134 0.03157 0.45881 0.0
C909 C 0.33304 0.07067 0.46145 0.0
C910 C 0.30627 1.00647 0.4785 0.0
C911 C 0.3027 0.0196 0.50165 0.0
C912 C 0.31465 0.05884 0.50442 0.0
C913 C 0.32948 0.08405 0.48451 0.0
C914 C 0.24794 0.97116 0.55981 0.0
C915 C 0.25532 0.94062 0.56242 0.0
C916 C 0.26299 0.99647 0.54012 0.0
C917 C 0.2862 0.99222 0.52257 0.0
C918 C 0.29312 0.96127 0.52504 0.0
C919 C 0.27769 0.93568 0.54463 0.0
H920 H 0.75321 0.742 0.07562 0.0
H921 H 0.84847 0.74498 0.03707 0.0
H922 H 0.73724 0.76678 0.03998 0.0
H923 H 0.83321 0.7714 1.00127 0.0
H924 H 0.76596 0.7712 0.93385 0.0
H925 H 0.78757 0.75315 0.9699 0.0
H926 H 0.75364 0.82003 0.01458 0.0
H927 H 0.73027 0.8372 0.97801 0.0
C928 C 0.77111 0.74831 0.05956 0.0
C929 C 0.80215 0.74127 0.05925 0.0
C930 C 0.76207 0.76298 0.03909 0.0
C931 C 0.78392 0.77144 0.01762 0.0
C932 C 0.81531 0.76479 0.01734 0.0
C933 C 0.82419 0.74968 0.03787 0.0
C934 C 0.76304 0.78236 0.95127 0.0
C935 C 0.74589 0.80554 0.9529 0.0
C936 C 0.77596 0.77218 0.97208 0.0
C937 C 0.77252 0.785 0.99533 0.0
C938 C 0.75628 0.80906 0.99702 0.0
C939 C 0.74304 0.81915 0.97605 0.0
H940 H 0.05809 0.33134 0.57057 0.0
H941 H 0.12707 0.28367 0.54452 0.0
H942 H 1.01471 0.30291 0.53621 0.0
H943 H 0.08286 0.2543 0.51009 0.0
H944 H 1.02115 0.24868 0.43771 0.0
H945 H 0.06306 0.27072 0.47299 0.0
H946 H 0.96598 0.24284 0.51964 0.0
H947 H 0.92365 0.22155 0.4838 0.0
C948 C 0.06407 0.31476 0.55746 0.0
C949 C 0.09624 0.30993 0.56028 0.0
C950 C 0.0388 0.29802 0.53785 0.0
C951 C 0.04484 0.27583 0.52046 0.0
C952 C 0.07738 0.27139 0.52305 0.0
C953 C 0.10284 0.28832 0.54273 0.0
C954 C 1.00845 0.24691 0.45547 0.0
C955 C 0.9689 0.2337 0.45781 0.0
C956 C 0.03265 0.25934 0.47582 0.0
C957 C 1.01813 0.25892 0.49922 0.0
C958 C 0.97829 0.24419 0.5018 0.0
C959 C 0.95391 0.23163 0.48131 0.0
H960 H 0.64559 0.19961 0.08744 0.0
H961 H 0.6356 0.12797 0.14883 0.0
H962 H 0.58038 0.1863 0.09411 0.0
H963 H 0.56973 0.11449 0.15555 0.0
H964 H 0.46521 0.13605 0.17081 0.0
H965 H 0.52958 0.14342 0.16755 0.0
H966 H 0.51676 0.13225 0.08901 0.0
H967 H 0.45358 0.12578 0.09225 0.0
C968 C 0.62937 0.18076 0.10229 0.0
C969 C 0.64578 0.16448 0.11737 0.0
C970 C 0.59185 0.17305 0.10611 0.0
C971 C 0.56945 0.14873 0.12512 0.0
C972 C 0.58617 0.13337 0.14077 0.0
C973 C 0.62393 0.14114 0.13693 0.0
C974 C 0.47596 0.13434 0.15296 0.0
C975 C 0.45454 0.13073 0.13178 0.0
C976 C 0.51284 0.13869 0.15106 0.0
C977 C 0.52875 0.13937 0.12795 0.0
C978 C 0.50599 0.13306 0.10703 0.0
C979 C 0.46956 0.129 0.10891 0.0
H980 H 0.74685 0.53991 0.38945 0.0
H981 H 0.68167 0.59867 0.39505 0.0
H982 H 0.68885 0.47911 0.3942 0.0
H983 H 0.62275 0.53688 0.3993 0.0
H984 H 0.53591 0.42152 0.43617 0.0
H985 H 0.59109 0.48448 0.42851 0.0
H986 H 0.63107 0.43531 0.37353 0.0
H987 H 0.57711 0.37226 0.382 0.0
C988 C 0.72005 0.53994 0.39146 0.0
C989 C 0.71908 0.57441 0.39187 0.0
C990 C 0.68658 0.50481 0.39401 0.0
C991 C 0.65096 0.50291 0.39699 0.0
C992 C 0.64976 0.53731 0.39722 0.0
C993 C 0.68348 0.57271 0.39464 0.0
C994 C 0.55661 0.42408 0.42256 0.0
C995 C 0.55213 0.39159 0.4099 0.0
C996 C 0.588 0.46033 0.41792 0.0
C997 C 0.61573 0.46504 0.4005 0.0
C998 C 0.61062 0.43273 0.38735 0.0
C999 C 0.57935 0.39653 0.39202 0.0
H1000 H 0.97334 0.37896 0.12076 0.0
H1001 H 0.85139 0.32006 0.13418 0.0
H1002 H 0.9729 0.43945 0.1171 0.0
H1003 H 0.85092 0.37974 0.13018 0.0
H1004 H 0.86317 0.49515 0.1418 0.0
H1005 H 0.8715 0.44037 0.15012 0.0
H1006 H 0.94888 0.47049 0.08887 0.0
H1007 H 0.94172 0.52634 0.08108 0.0
C1008 C 0.94655 0.3789 0.12309 0.0
C1009 C 0.91243 0.34455 0.12774 0.0
C1010 C 0.94624 0.41351 0.12084 0.0
C1011 C 0.91188 0.41455 0.12341 0.0
C1012 C 0.87802 0.38025 0.12848 0.0
C1013 C 0.87829 0.34583 0.13059 0.0
C1014 C 0.88262 0.49068 0.13039 0.0
C1015 C 0.9016 0.51521 0.11067 0.0
C1016 C 0.88706 0.45891 0.135 0.0
C1017 C 0.91055 0.45069 0.12002 0.0
C1018 C 0.93071 0.476 0.10087 0.0
C1019 C 0.92624 0.50781 0.09623 0.0
H1020 H 0.4991 0.191 0.39335 0.0
H1021 H 0.4406 0.06987 0.3779 0.0
H1022 H 0.56031 0.1925 0.39322 0.0
H1023 H 0.50258 0.07129 0.37796 0.0
H1024 H 0.61589 0.09122 0.41993 0.0
H1025 H 0.55265 0.08368 0.41148 0.0
H1026 H 0.60489 0.18372 0.3655 0.0
H1027 H 0.66795 0.19164 0.37419 0.0
C1028 C 0.49941 0.1647 0.38963 0.0
C1029 C 0.46505 0.13028 0.38572 0.0
C1030 C 0.53456 0.16562 0.38941 0.0
C1031 C 0.53632 0.13202 0.38559 0.0
C1032 C 0.50204 0.09761 0.38105 0.0
C1033 C 0.46668 0.09682 0.38083 0.0
C1034 C 0.6138 0.11139 0.40785 0.0
C1035 C 0.64704 0.14219 0.39788 0.0
C1036 C 0.57755 0.10683 0.40281 0.0
C1037 C 0.57381 0.1332 0.3879 0.0
C1038 C 0.60687 0.16307 0.37718 0.0
C1039 C 0.643 0.16744 0.38203 0.0
H1040 H 0.54853 0.43024 0.07752 0.0
H1041 H 0.55644 0.41351 0.15492 0.0
H1042 H 0.60049 0.49555 0.08121 0.0
H1043 H 0.61041 0.47854 0.15827 0.0
H1044 H 0.69383 0.60905 0.15863 0.0
H1045 H 0.63434 0.54704 0.15693 0.0
H1046 H 0.66724 0.52518 0.08607 0.0
H1047 H 0.72501 0.58652 0.08739 0.0
C1048 C 0.56099 0.44047 0.09544 0.0
C1049 C 0.54808 0.41613 0.11588 0.0
C1050 C 0.59138 0.478 0.09749 0.0
C1051 C 0.6103 0.49241 0.11998 0.0
C1052 C 0.59659 0.46863 0.14065 0.0
C1053 C 0.56589 0.43103 0.13864 0.0
C1054 C 0.68801 0.59109 0.14262 0.0
C1055 C 0.71425 0.60309 0.12312 0.0
C1056 C 0.65404 0.55541 0.14169 0.0
C1057 C 0.64562 0.531 0.12125 0.0
C1058 C 0.67198 0.54331 0.10186 0.0
C1059 C 0.70552 0.57869 0.10273 0.0
H1060 H 0.846 0.44979 0.41771 0.0
H1061 H 0.95134 0.5194 0.37852 0.0
H1062 H 0.85565 0.39488 0.41376 0.0
H1063 H 0.96134 0.46423 0.37493 0.0
H1064 H 0.9391 0.33941 0.35514 0.0
H1065 H 0.93302 0.39728 0.35569 0.0
H1066 H 0.90221 0.37853 0.43206 0.0
H1067 H 0.90826 0.32157 0.43164 0.0
C1068 C 0.87103 0.45332 0.408 0.0
C1069 C 0.89792 0.48912 0.3985 0.0
C1070 C 0.87678 0.42189 0.40595 0.0
C1071 C 0.90948 0.42524 0.39424 0.0
C1072 C 0.93584 0.46068 0.38402 0.0
C1073 C 0.93025 0.49233 0.38626 0.0
C1074 C 0.93159 0.34803 0.3721 0.0
C1075 C 0.92388 0.32556 0.39326 0.0
C1076 C 0.92804 0.38111 0.3724 0.0
C1077 C 0.91644 0.39211 0.39382 0.0
C1078 C 0.91032 0.37043 0.41512 0.0
C1079 C 0.91405 0.33778 0.41486 0.0
H1080 H 0.19778 0.6239 0.58608 0.0
H1081 H 0.135 0.61398 0.65232 0.0
H1082 H 0.19171 0.56173 0.59375 0.0
H1083 H 0.12976 0.55162 0.66039 0.0
H1084 H 0.0948 0.42127 0.64627 0.0
H1085 H 0.09879 0.48409 0.64345 0.0
H1086 H 0.21789 0.53504 0.62306 0.0
H1087 H 0.21388 0.47307 0.62553 0.0
C1088 C 0.18254 0.60837 0.60227 0.0
C1089 C 0.16683 0.62395 0.61855 0.0
C1090 C 0.17941 0.57285 0.60682 0.0
C1091 C 0.16051 0.55181 0.62781 0.0
C1092 C 0.14438 0.56707 0.64404 0.0
C1093 C 0.14771 0.60291 0.63953 0.0
C1094 C 0.1219 0.44606 0.64156 0.0
C1095 C 0.15381 0.44204 0.63571 0.0
C1096 C 0.12421 0.482 0.63995 0.0
C1097 C 0.15847 0.51441 0.63252 0.0
C1098 C 0.1908 0.51054 0.62817 0.0
C1099 C 0.18849 0.47492 0.62968 0.0
H1100 H 0.37653 0.96364 0.86434 0.0
H1101 H 0.32867 0.87086 0.91633 0.0
H1102 H 0.43588 0.95963 0.86318 0.0
H1103 H 0.38671 0.86662 0.91476 0.0
H1104 H 0.47533 0.83931 0.88526 0.0
H1105 H 0.41998 0.84829 0.88025 0.0
H1106 H 0.49016 0.96821 0.89724 0.0
H1107 H 0.546 0.95929 0.90234 0.0
C1108 C 0.37858 0.94245 0.8754 0.0
C1109 C 0.34792 0.91775 0.89051 0.0
C1110 C 0.41248 0.94024 0.8748 0.0
C1111 C 0.41573 0.91263 0.88878 0.0
C1112 C 0.38494 0.88792 0.90362 0.0
C1113 C 0.35171 0.89061 0.90461 0.0
C1114 C 0.47926 0.86778 0.88745 0.0
C1115 C 0.51511 0.89855 0.89428 0.0
C1116 C 0.44749 0.87287 0.88469 0.0
C1117 C 0.45077 0.90894 0.88839 0.0
C1118 C 0.4869 0.94017 0.89411 0.0
C1119 C 0.51871 0.93497 0.89724 0.0
H1120 H 0.61873 0.65988 0.62528 0.0
H1121 H 0.55957 0.72475 0.62065 0.0
H1122 H 0.55696 0.60044 0.62386 0.0
H1123 H 0.49872 0.66604 0.61871 0.0
H1124 H 0.39218 0.55713 0.63761 0.0
H1125 H 0.45524 0.61301 0.64316 0.0
H1126 H 0.50431 0.56268 0.59571 0.0
H1127 H 0.44145 0.50586 0.5911 0.0
C1128 C 0.59269 0.66153 0.62398 0.0
C1129 C 0.59427 0.69719 0.62312 0.0
C1130 C 0.55729 0.62747 0.62304 0.0
C1131 C 0.52277 0.62839 0.62131 0.0
C1132 C 0.52455 0.6641 0.62053 0.0
C1133 C 0.55969 0.69793 0.62146 0.0
C1134 C 0.41646 0.55762 0.62867 0.0
C1135 C 0.41154 0.52697 0.61377 0.0
C1136 C 0.45264 0.58992 0.63163 0.0
C1137 C 0.48491 0.59258 0.6197 0.0
C1138 C 0.4802 0.56155 0.6053 0.0
C1139 C 0.44399 0.52917 0.60238 0.0
H1140 H 0.11778 0.61574 0.921 0.0
H1141 H 0.21897 0.66972 0.87577 0.0
H1142 H 0.11143 0.55323 0.91221 0.0
H1143 H 0.21212 0.60733 0.86662 0.0
H1144 H 0.22041 0.50147 0.89192 0.0
H1145 H 0.22144 0.56232 0.89247 0.0
H1146 H 0.09943 0.50395 0.8793 0.0
H1147 H 0.09841 0.44238 0.87871 0.0
C1148 C 0.13842 0.61425 0.90898 0.0
C1149 C 0.16905 0.64784 0.89925 0.0
C1150 C 0.13452 0.57838 0.90373 0.0
C1151 C 0.16137 0.5753 0.88879 0.0
C1152 C 0.19113 0.60874 0.87835 0.0
C1153 C 0.19487 0.64451 0.88345 0.0
C1154 C 0.19382 0.50155 0.88878 0.0
C1155 C 0.15929 0.46708 0.88535 0.0
C1156 C 0.19446 0.53653 0.88896 0.0
C1157 C 0.16052 0.53805 0.88598 0.0
C1158 C 0.12603 0.50367 0.8818 0.0
C1159 C 0.12548 0.46849 0.88125 0.0
H1160 H 0.37615 0.94937 0.62285 0.0
H1161 H 0.31597 0.8266 0.63172 0.0
H1162 H 0.4367 0.94877 0.61916 0.0
H1163 H 0.37555 0.82599 0.62755 0.0
H1164 H 0.48983 0.83577 0.63993 0.0
H1165 H 0.43446 0.84333 0.64801 0.0
H1166 H 0.46987 0.92788 0.5908 0.0
H1167 H 0.52646 0.9217 0.58349 0.0
C1168 C 0.37579 0.92235 0.62414 0.0
C1169 C 0.34108 0.88809 0.62759 0.0
C1170 C 0.41044 0.92196 0.62186 0.0
C1171 C 0.41113 0.88732 0.62314 0.0
C1172 C 0.37641 0.85329 0.6269 0.0
C1173 C 0.34201 0.85366 0.62911 0.0
C1174 C 0.48632 0.85653 0.62934 0.0
C1175 C 0.51269 0.87792 0.61093 0.0
C1176 C 0.45422 0.86055 0.63379 0.0
C1177 C 0.44736 0.88595 0.61989 0.0
C1178 C 0.47427 0.90821 0.60196 0.0
C1179 C 0.5065 0.90424 0.59754 0.0
H1180 H 0.60659 0.71595 0.92948 0.0
H1181 H 0.60447 0.70207 0.85102 0.0
H1182 H 0.54525 0.65793 0.93273 0.0
H1183 H 0.54246 0.64277 0.85435 0.0
H1184 H 0.41038 0.56943 0.8714 0.0
H1185 H 0.47497 0.62326 0.86495 0.0
H1186 H 0.51465 0.58967 0.92864 0.0
H1187 H 0.45023 0.53725 0.9357 0.0
C1188 C 0.59323 0.70016 0.91288 0.0
C1189 C 0.6105 0.71374 0.88997 0.0
C1190 C 0.55801 0.66662 0.91478 0.0
C1191 C 0.53879 0.64551 0.89382 0.0
C1192 C 0.55637 0.65851 0.87085 0.0
C1193 C 0.59204 0.69222 0.86895 0.0
C1194 C 0.43286 0.57366 0.88409 0.0
C1195 C 0.42487 0.54896 0.90416 0.0
C1196 C 0.47003 0.60422 0.88018 0.0
C1197 C 0.50007 0.61094 0.89631 0.0
C1198 C 0.49219 0.58569 0.91599 0.0
C1199 C 0.45519 0.55528 0.9199 0.0
loop_
_geom_bond_atom_site_label_1
_geom_bond_atom_site_label_2
_geom_bond_distance
_geom_bond_site_symmetry_2
_ccdc_geom_bond_type
Dy0 O3 2.307 . S
Dy0 O5 2.395 . S
Dy0 O6 2.379 . S
Dy0 O8 2.339 . S
Dy0 O10 2.298 . S
Dy0 O14 2.275 . S
Dy0 C22 2.738 . S
Dy1 O4 2.298 . S
Dy1 O7 2.275 . S
Dy1 O9 2.307 . S
Dy1 O11 2.395 . S
Dy1 O12 2.379 . S
Dy1 O15 2.339 . S
Dy1 C31 2.738 . S
C2 O14 1.254 . S
C2 O15 1.257 . S
O3 Dy0 2.307 . S
O3 C13 1.266 . S
O4 Dy1 2.298 . S
O4 C13 1.236 . S
O5 Dy0 2.395 . S
O5 C22 1.255 . S
O6 Dy0 2.379 . S
O6 C22 1.249 . S
O7 Dy1 2.275 . S
O7 C23 1.254 . S
O8 Dy0 2.339 . S
O8 C23 1.257 . S
O9 Dy1 2.307 . S
O9 C24 1.266 . S
O10 Dy0 2.298 . S
O10 C24 1.236 . S
O11 Dy1 2.395 . S
O11 C31 1.255 . S
O12 Dy1 2.379 . S
O12 C31 1.249 . S
C13 O3 1.266 . S
C13 O4 1.236 . S
O14 Dy0 2.275 . S
O14 C2 1.254 . S
O15 Dy1 2.339 . S
O15 C2 1.257 . S
C16 C19 1.344 . S
C16 C20 1.328 . S
C16 C22 1.516 1_565 S
C17 C18 1.304 . S
C17 C21 1.323 . S
C18 C17 1.304 . S
C18 C19 1.371 . S
C18 H32 0.930 . S
C19 C16 1.344 . S
C19 C18 1.371 . S
C19 H33 0.931 . S
C20 C16 1.328 . S
C20 C21 1.433 . S
C20 H34 0.931 . S
C21 C17 1.323 . S
C21 C20 1.433 . S
C21 H35 0.933 . S
C22 Dy0 2.738 . S
C22 O5 1.255 . S
C22 O6 1.249 . S
C22 C16 1.516 1_545 S
C23 O7 1.254 . S
C23 O8 1.257 . S
C24 O9 1.266 . S
C24 O10 1.236 . S
C25 C28 1.344 . S
C25 C29 1.328 . S
C25 C31 1.516 . S
C26 C27 1.304 . S
C26 C30 1.323 . S
C27 C26 1.304 . S
C27 C28 1.371 . S
C27 H36 0.930 . S
C28 C25 1.344 . S
C28 C27 1.371 . S
C28 H37 0.931 . S
C29 C25 1.328 . S
C29 C30 1.433 . S
C29 H38 0.931 . S
C30 C26 1.323 . S
C30 C29 1.433 . S
C30 H39 0.933 . S
C31 Dy1 2.738 . S
C31 O11 1.255 . S
C31 O12 1.249 . S
C31 C25 1.516 . S
H32 C18 0.930 . S
H33 C19 0.931 . S
H34 C20 0.931 . S
H35 C21 0.933 . S
H36 C27 0.930 . S
H37 C28 0.931 . S
H38 C29 0.931 . S
H39 C30 0.933 . S
Dy40 O43 2.307 . S
Dy40 O45 2.395 . S
Dy40 O46 2.379 . S
Dy40 O48 2.339 . S
Dy40 O50 2.298 . S
Dy40 O54 2.275 . S
Dy40 C62 2.738 . S
Dy41 O44 2.298 . S
Dy41 O47 2.275 . S
Dy41 O49 2.307 . S
Dy41 O51 2.395 . S
Dy41 O52 2.379 . S
Dy41 O55 2.339 . S
Dy41 C71 2.738 . S
C42 O54 1.254 . S
C42 O55 1.257 . S
O43 Dy40 2.307 . S
O43 C53 1.266 . S
O44 Dy41 2.298 . S
O44 C53 1.236 . S
O45 Dy40 2.395 . S
O45 C62 1.255 . S
O46 Dy40 2.379 . S
O46 C62 1.249 . S
O47 Dy41 2.275 . S
O47 C63 1.254 . S
O48 Dy40 2.339 . S
O48 C63 1.257 . S
O49 Dy41 2.307 . S
O49 C64 1.266 . S
O50 Dy40 2.298 . S
O50 C64 1.236 . S
O51 Dy41 2.395 . S
O51 C71 1.255 . S
O52 Dy41 2.379 . S
O52 C71 1.249 . S
C53 O43 1.266 . S
C53 O44 1.236 . S
O54 Dy40 2.275 . S
O54 C42 1.254 . S
O55 Dy41 2.339 . S
O55 C42 1.257 . S
C56 C59 1.344 . S
C56 C60 1.328 . S
C56 C62 1.516 . S
C57 C58 1.304 . S
C57 C61 1.323 . S
C58 C57 1.304 . S
C58 C59 1.371 . S
C58 H72 0.930 . S
C59 C56 1.344 . S
C59 C58 1.371 . S
C59 H73 0.931 . S
C60 C56 1.328 . S
C60 C61 1.433 . S
C60 H74 0.931 . S
C61 C57 1.323 . S
C61 C60 1.433 . S
C61 H75 0.933 . S
C62 Dy40 2.738 . S
C62 O45 1.255 . S
C62 O46 1.249 . S
C62 C56 1.516 . S
C63 O47 1.254 . S
C63 O48 1.257 . S
C64 O49 1.266 . S
C64 O50 1.236 . S
C65 C68 1.344 . S
C65 C69 1.328 . S
C65 C71 1.516 . S
C66 C67 1.304 . S
C66 C70 1.323 . S
C67 C66 1.304 . S
C67 C68 1.371 . S
C67 H76 0.930 . S
C68 C65 1.344 . S
C68 C67 1.371 . S
C68 H77 0.931 . S
C69 C65 1.328 . S
C69 C70 1.433 . S
C69 H78 0.931 . S
C70 C66 1.323 . S
C70 C69 1.433 . S
C70 H79 0.933 . S
C71 Dy41 2.738 . S
C71 O51 1.255 . S
C71 O52 1.249 . S
C71 C65 1.516 . S
H72 C58 0.930 . S
H73 C59 0.931 . S
H74 C60 0.931 . S
H75 C61 0.933 . S
H76 C67 0.930 . S
H77 C68 0.931 . S
H78 C69 0.931 . S
H79 C70 0.933 . S
Dy80 O83 2.307 . S
Dy80 O85 2.395 . S
Dy80 O86 2.379 . S
Dy80 O88 2.339 . S
Dy80 O90 2.298 . S
Dy80 O94 2.275 . S
Dy80 C102 2.738 . S
Dy81 O84 2.298 . S
Dy81 O87 2.275 . S
Dy81 O89 2.307 . S
Dy81 O91 2.395 . S
Dy81 O92 2.379 . S
Dy81 O95 2.339 . S
Dy81 C111 2.738 . S
C82 O94 1.254 . S
C82 O95 1.257 . S
O83 Dy80 2.307 . S
O83 C93 1.266 . S
O84 Dy81 2.298 . S
O84 C93 1.236 . S
O85 Dy80 2.395 . S
O85 C102 1.255 . S
O86 Dy80 2.379 . S
O86 C102 1.249 . S
O87 Dy81 2.275 . S
O87 C103 1.254 . S
O88 Dy80 2.339 . S
O88 C103 1.257 . S
O89 Dy81 2.307 . S
O89 C104 1.266 . S
O90 Dy80 2.298 . S
O90 C104 1.236 . S
O91 Dy81 2.395 . S
O91 C111 1.255 . S
O92 Dy81 2.379 . S
O92 C111 1.249 . S
C93 O83 1.266 . S
C93 O84 1.236 . S
O94 Dy80 2.275 . S
O94 C82 1.254 . S
O95 Dy81 2.339 . S
O95 C82 1.257 . S
C96 C99 1.344 . S
C96 C100 1.328 . S
C96 C102 1.516 1_455 S
C97 C98 1.304 . S
C97 C101 1.323 . S
C98 C97 1.304 . S
C98 C99 1.371 . S
C98 H112 0.930 . S
C99 C96 1.344 . S
C99 C98 1.371 . S
C99 H113 0.931 . S
C100 C96 1.328 . S
C100 C101 1.433 . S
C100 H114 0.931 . S
C101 C97 1.323 . S
C101 C100 1.433 . S
C101 H115 0.933 . S
C102 Dy80 2.738 . S
C102 O85 1.255 . S
C102 O86 1.249 . S
C102 C96 1.516 1_655 S
C103 O87 1.254 . S
C103 O88 1.257 . S
C104 O89 1.266 . S
C104 O90 1.236 . S
C105 C108 1.344 . S
C105 C109 1.328 . S
C105 C111 1.516 . S
C106 C107 1.304 . S
C106 C110 1.323 . S
C107 C106 1.304 . S
C107 C108 1.371 . S
C107 H116 0.930 . S
C108 C105 1.344 . S
C108 C107 1.371 . S
C108 H117 0.931 . S
C109 C105 1.328 . S
C109 C110 1.433 . S
C109 H118 0.931 . S
C110 C106 1.323 . S
C110 C109 1.433 . S
C110 H119 0.933 . S
C111 Dy81 2.738 . S
C111 O91 1.255 . S
C111 O92 1.249 . S
C111 C105 1.516 . S
H112 C98 0.930 . S
H113 C99 0.931 . S
H114 C100 0.931 . S
H115 C101 0.933 . S
H116 C107 0.930 . S
H117 C108 0.931 . S
H118 C109 0.931 . S
H119 C110 0.933 . S
Dy120 O123 2.307 . S
Dy120 O125 2.395 . S
Dy120 O126 2.379 . S
Dy120 O128 2.339 . S
Dy120 O130 2.298 . S
Dy120 O134 2.275 . S
Dy120 C142 2.738 . S
Dy121 O124 2.298 . S
Dy121 O127 2.275 . S
Dy121 O129 2.307 . S
Dy121 O131 2.395 . S
Dy121 O132 2.379 . S
Dy121 O135 2.339 . S
Dy121 C151 2.738 . S
C122 O134 1.254 . S
C122 O135 1.257 . S
O123 Dy120 2.307 . S
O123 C133 1.266 . S
O124 Dy121 2.298 . S
O124 C133 1.236 . S
O125 Dy120 2.395 . S
O125 C142 1.255 . S
O126 Dy120 2.379 . S
O126 C142 1.249 . S
O127 Dy121 2.275 . S
O127 C143 1.254 . S
O128 Dy120 2.339 . S
O128 C143 1.257 . S
O129 Dy121 2.307 . S
O129 C144 1.266 . S
O130 Dy120 2.298 . S
O130 C144 1.236 . S
O131 Dy121 2.395 . S
O131 C151 1.255 . S
O132 Dy121 2.379 . S
O132 C151 1.249 . S
C133 O123 1.266 . S
C133 O124 1.236 . S
O134 Dy120 2.275 . S
O134 C122 1.254 . S
O135 Dy121 2.339 . S
O135 C122 1.257 . S
C136 C139 1.344 . S
C136 C140 1.328 . S
C136 C142 1.516 . S
C137 C138 1.304 . S
C137 C141 1.323 . S
C138 C137 1.304 . S
C138 C139 1.371 . S
C138 H152 0.930 . S
C139 C136 1.344 . S
C139 C138 1.371 . S
C139 H153 0.931 . S
C140 C136 1.328 . S
C140 C141 1.433 . S
C140 H154 0.931 . S
C141 C137 1.323 . S
C141 C140 1.433 . S
C141 H155 0.933 . S
C142 Dy120 2.738 . S
C142 O125 1.255 . S
C142 O126 1.249 . S
C142 C136 1.516 . S
C143 O127 1.254 . S
C143 O128 1.257 . S
C144 O129 1.266 . S
C144 O130 1.236 . S
C145 C148 1.344 . S
C145 C149 1.328 . S
C145 C151 1.516 1_565 S
C146 C147 1.304 . S
C146 C150 1.323 . S
C147 C146 1.304 . S
C147 C148 1.371 . S
C147 H156 0.930 . S
C148 C145 1.344 . S
C148 C147 1.371 . S
C148 H157 0.931 . S
C149 C145 1.328 . S
C149 C150 1.433 . S
C149 H158 0.931 . S
C150 C146 1.323 . S
C150 C149 1.433 . S
C150 H159 0.933 . S
C151 Dy121 2.738 . S
C151 O131 1.255 . S
C151 O132 1.249 . S
C151 C145 1.516 1_545 S
H152 C138 0.930 . S
H153 C139 0.931 . S
H154 C140 0.931 . S
H155 C141 0.933 . S
H156 C147 0.930 . S
H157 C148 0.931 . S
H158 C149 0.931 . S
H159 C150 0.933 . S
Dy160 O163 2.307 . S
Dy160 O165 2.395 . S
Dy160 O166 2.379 . S
Dy160 O168 2.339 . S
Dy160 O170 2.298 . S
Dy160 O174 2.275 . S
Dy160 C182 2.738 . S
Dy161 O164 2.298 . S
Dy161 O167 2.275 . S
Dy161 O169 2.307 . S
Dy161 O171 2.395 . S
Dy161 O172 2.379 . S
Dy161 O175 2.339 . S
Dy161 C191 2.738 . S
C162 O174 1.254 . S
C162 O175 1.257 . S
O163 Dy160 2.307 . S
O163 C173 1.266 . S
O164 Dy161 2.298 . S
O164 C173 1.236 . S
O165 Dy160 2.395 . S
O165 C182 1.255 . S
O166 Dy160 2.379 . S
O166 C182 1.249 . S
O167 Dy161 2.275 . S
O167 C183 1.254 . S
O168 Dy160 2.339 . S
O168 C183 1.257 . S
O169 Dy161 2.307 . S
O169 C184 1.266 . S
O170 Dy160 2.298 . S
O170 C184 1.236 . S
O171 Dy161 2.395 . S
O171 C191 1.255 . S
O172 Dy161 2.379 . S
O172 C191 1.249 . S
C173 O163 1.266 . S
C173 O164 1.236 . S
O174 Dy160 2.275 . S
O174 C162 1.254 . S
O175 Dy161 2.339 . S
O175 C162 1.257 . S
C176 C179 1.344 . S
C176 C180 1.328 . S
C176 C182 1.516 . S
C177 C178 1.304 . S
C177 C181 1.323 . S
C178 C177 1.304 . S
C178 C179 1.371 . S
C178 H192 0.930 . S
C179 C176 1.344 . S
C179 C178 1.371 . S
C179 H193 0.931 . S
C180 C176 1.328 . S
C180 C181 1.433 . S
C180 H194 0.931 . S
C181 C177 1.323 . S
C181 C180 1.433 . S
C181 H195 0.933 . S
C182 Dy160 2.738 . S
C182 O165 1.255 . S
C182 O166 1.249 . S
C182 C176 1.516 . S
C183 O167 1.254 . S
C183 O168 1.257 . S
C184 O169 1.266 . S
C184 O170 1.236 . S
C185 C188 1.344 . S
C185 C189 1.328 . S
C185 C191 1.516 . S
C186 C187 1.304 . S
C186 C190 1.323 . S
C187 C186 1.304 . S
C187 C188 1.371 . S
C187 H196 0.930 . S
C188 C185 1.344 . S
C188 C187 1.371 . S
C188 H197 0.931 . S
C189 C185 1.328 . S
C189 C190 1.433 . S
C189 H198 0.931 . S
C190 C186 1.323 . S
C190 C189 1.433 . S
C190 H199 0.933 . S
C191 Dy161 2.738 . S
C191 O171 1.255 . S
C191 O172 1.249 . S
C191 C185 1.516 . S
H192 C178 0.930 . S
H193 C179 0.931 . S
H194 C180 0.931 . S
H195 C181 0.933 . S
H196 C187 0.930 . S
H197 C188 0.931 . S
H198 C189 0.931 . S
H199 C190 0.933 . S
Dy200 O203 2.307 . S
Dy200 O205 2.395 . S
Dy200 O206 2.379 . S
Dy200 O208 2.339 . S
Dy200 O210 2.298 . S
Dy200 O214 2.275 . S
Dy200 C222 2.738 . S
Dy201 O204 2.298 . S
Dy201 O207 2.275 . S
Dy201 O209 2.307 . S
Dy201 O211 2.395 . S
Dy201 O212 2.379 . S
Dy201 O215 2.339 . S
Dy201 C231 2.738 . S
C202 O214 1.254 . S
C202 O215 1.257 . S
O203 Dy200 2.307 . S
O203 C213 1.266 . S
O204 Dy201 2.298 . S
O204 C213 1.236 . S
O205 Dy200 2.395 . S
O205 C222 1.255 . S
O206 Dy200 2.379 . S
O206 C222 1.249 . S
O207 Dy201 2.275 . S
O207 C223 1.254 . S
O208 Dy200 2.339 . S
O208 C223 1.257 . S
O209 Dy201 2.307 . S
O209 C224 1.266 . S
O210 Dy200 2.298 . S
O210 C224 1.236 . S
O211 Dy201 2.395 . S
O211 C231 1.255 . S
O212 Dy201 2.379 . S
O212 C231 1.249 . S
C213 O203 1.266 . S
C213 O204 1.236 . S
O214 Dy200 2.275 . S
O214 C202 1.254 . S
O215 Dy201 2.339 . S
O215 C202 1.257 . S
C216 C219 1.344 . S
C216 C220 1.328 . S
C216 C222 1.516 . S
C217 C218 1.304 . S
C217 C221 1.323 . S
C218 C217 1.304 . S
C218 C219 1.371 . S
C218 H232 0.930 . S
C219 C216 1.344 . S
C219 C218 1.371 . S
C219 H233 0.931 . S
C220 C216 1.328 . S
C220 C221 1.433 . S
C220 H234 0.931 . S
C221 C217 1.323 . S
C221 C220 1.433 . S
C221 H235 0.933 . S
C222 Dy200 2.738 . S
C222 O205 1.255 . S
C222 O206 1.249 . S
C222 C216 1.516 . S
C223 O207 1.254 . S
C223 O208 1.257 . S
C224 O209 1.266 . S
C224 O210 1.236 . S
C225 C228 1.344 . S
C225 C229 1.328 . S
C225 C231 1.516 1_455 S
C226 C227 1.304 . S
C226 C230 1.323 . S
C227 C226 1.304 . S
C227 C228 1.371 . S
C227 H236 0.930 . S
C228 C225 1.344 . S
C228 C227 1.371 . S
C228 H237 0.931 . S
C229 C225 1.328 . S
C229 C230 1.433 . S
C229 H238 0.931 . S
C230 C226 1.323 . S
C230 C229 1.433 . S
C230 H239 0.933 . S
C231 Dy201 2.738 . S
C231 O211 1.255 . S
C231 O212 1.249 . S
C231 C225 1.516 1_655 S
H232 C218 0.930 . S
H233 C219 0.931 . S
H234 C220 0.931 . S
H235 C221 0.933 . S
H236 C227 0.930 . S
H237 C228 0.931 . S
H238 C229 0.931 . S
H239 C230 0.933 . S
Dy240 O243 2.307 . S
Dy240 O245 2.395 . S
Dy240 O246 2.379 . S
Dy240 O248 2.339 . S
Dy240 O250 2.298 . S
Dy240 O254 2.275 . S
Dy240 C262 2.738 . S
Dy241 O244 2.298 . S
Dy241 O247 2.275 . S
Dy241 O249 2.307 . S
Dy241 O251 2.395 . S
Dy241 O252 2.379 . S
Dy241 O255 2.339 . S
Dy241 C271 2.738 . S
C242 O254 1.254 . S
C242 O255 1.257 . S
O243 Dy240 2.307 . S
O243 C253 1.266 . S
O244 Dy241 2.298 . S
O244 C253 1.236 . S
O245 Dy240 2.395 . S
O245 C262 1.255 . S
O246 Dy240 2.379 . S
O246 C262 1.249 . S
O247 Dy241 2.275 . S
O247 C263 1.254 . S
O248 Dy240 2.339 . S
O248 C263 1.257 . S
O249 Dy241 2.307 . S
O249 C264 1.266 . S
O250 Dy240 2.298 . S
O250 C264 1.236 . S
O251 Dy241 2.395 . S
O251 C271 1.255 . S
O252 Dy241 2.379 . S
O252 C271 1.249 . S
C253 O243 1.266 . S
C253 O244 1.236 . S
O254 Dy240 2.275 . S
O254 C242 1.254 . S
O255 Dy241 2.339 . S
O255 C242 1.257 . S
C256 C259 1.344 . S
C256 C260 1.328 . S
C256 C262 1.516 . S
C257 C258 1.304 . S
C257 C261 1.323 . S
C258 C257 1.304 . S
C258 C259 1.371 . S
C258 H272 0.930 . S
C259 C256 1.344 . S
C259 C258 1.371 . S
C259 H273 0.931 . S
C260 C256 1.328 . S
C260 C261 1.433 . S
C260 H274 0.931 . S
C261 C257 1.323 . S
C261 C260 1.433 . S
C261 H275 0.933 . S
C262 Dy240 2.738 . S
C262 O245 1.255 . S
C262 O246 1.249 . S
C262 C256 1.516 . S
C263 O247 1.254 . S
C263 O248 1.257 . S
C264 O249 1.266 . S
C264 O250 1.236 . S
C265 C268 1.344 . S
C265 C269 1.328 . S
C265 C271 1.516 1_655 S
C266 C267 1.304 . S
C266 C270 1.323 . S
C267 C266 1.304 . S
C267 C268 1.371 . S
C267 H276 0.930 . S
C268 C265 1.344 . S
C268 C267 1.371 . S
C268 H277 0.931 . S
C269 C265 1.328 . S
C269 C270 1.433 . S
C269 H278 0.931 . S
C270 C266 1.323 . S
C270 C269 1.433 . S
C270 H279 0.933 . S
C271 Dy241 2.738 . S
C271 O251 1.255 . S
C271 O252 1.249 . S
C271 C265 1.516 1_455 S
H272 C258 0.930 . S
H273 C259 0.931 . S
H274 C260 0.931 . S
H275 C261 0.933 . S
H276 C267 0.930 . S
H277 C268 0.931 . S
H278 C269 0.931 . S
H279 C270 0.933 . S
Dy280 O283 2.307 . S
Dy280 O285 2.395 . S
Dy280 O286 2.379 . S
Dy280 O288 2.339 . S
Dy280 O290 2.298 . S
Dy280 O294 2.275 . S
Dy280 C302 2.738 . S
Dy281 O284 2.298 . S
Dy281 O287 2.275 . S
Dy281 O289 2.307 . S
Dy281 O291 2.395 . S
Dy281 O292 2.379 . S
Dy281 O295 2.339 . S
Dy281 C311 2.738 . S
C282 O294 1.254 . S
C282 O295 1.257 . S
O283 Dy280 2.307 . S
O283 C293 1.266 . S
O284 Dy281 2.298 . S
O284 C293 1.236 . S
O285 Dy280 2.395 . S
O285 C302 1.255 . S
O286 Dy280 2.379 . S
O286 C302 1.249 . S
O287 Dy281 2.275 . S
O287 C303 1.254 . S
O288 Dy280 2.339 . S
O288 C303 1.257 . S
O289 Dy281 2.307 . S
O289 C304 1.266 . S
O290 Dy280 2.298 . S
O290 C304 1.236 . S
O291 Dy281 2.395 . S
O291 C311 1.255 . S
O292 Dy281 2.379 . S
O292 C311 1.249 . S
C293 O283 1.266 . S
C293 O284 1.236 . S
O294 Dy280 2.275 . S
O294 C282 1.254 . S
O295 Dy281 2.339 . S
O295 C282 1.257 . S
C296 C299 1.344 . S
C296 C300 1.328 . S
C296 C302 1.516 1_545 S
C297 C298 1.304 . S
C297 C301 1.323 . S
C298 C297 1.304 . S
C298 C299 1.371 . S
C298 H312 0.930 . S
C299 C296 1.344 . S
C299 C298 1.371 . S
C299 H313 0.931 . S
C300 C296 1.328 . S
C300 C301 1.433 . S
C300 H314 0.931 . S
C301 C297 1.323 . S
C301 C300 1.433 . S
C301 H315 0.933 . S
C302 Dy280 2.738 . S
C302 O285 1.255 . S
C302 O286 1.249 . S
C302 C296 1.516 1_565 S
C303 O287 1.254 . S
C303 O288 1.257 . S
C304 O289 1.266 . S
C304 O290 1.236 . S
C305 C308 1.344 . S
C305 C309 1.328 . S
C305 C311 1.516 . S
C306 C307 1.304 . S
C306 C310 1.323 . S
C307 C306 1.304 . S
C307 C308 1.371 . S
C307 H316 0.930 . S
C308 C305 1.344 . S
C308 C307 1.371 . S
C308 H317 0.931 . S
C309 C305 1.328 . S
C309 C310 1.433 . S
C309 H318 0.931 . S
C310 C306 1.323 . S
C310 C309 1.433 . S
C310 H319 0.933 . S
C311 Dy281 2.738 . S
C311 O291 1.255 . S
C311 O292 1.249 . S
C311 C305 1.516 . S
H312 C298 0.930 . S
H313 C299 0.931 . S
H314 C300 0.931 . S
H315 C301 0.933 . S
H316 C307 0.930 . S
H317 C308 0.931 . S
H318 C309 0.931 . S
H319 C310 0.933 . S
Dy320 O323 2.307 . S
Dy320 O325 2.395 . S
Dy320 O326 2.379 . S
Dy320 O328 2.339 . S
Dy320 O330 2.298 . S
Dy320 O334 2.275 . S
Dy320 C342 2.738 . S
Dy321 O324 2.298 . S
Dy321 O327 2.275 . S
Dy321 O329 2.307 . S
Dy321 O331 2.395 . S
Dy321 O332 2.379 . S
Dy321 O335 2.339 . S
Dy321 C351 2.738 . S
C322 O334 1.254 . S
C322 O335 1.257 . S
O323 Dy320 2.307 . S
O323 C333 1.266 . S
O324 Dy321 2.298 . S
O324 C333 1.236 . S
O325 Dy320 2.395 . S
O325 C342 1.255 . S
O326 Dy320 2.379 . S
O326 C342 1.249 . S
O327 Dy321 2.275 . S
O327 C343 1.254 . S
O328 Dy320 2.339 . S
O328 C343 1.257 . S
O329 Dy321 2.307 . S
O329 C344 1.266 . S
O330 Dy320 2.298 . S
O330 C344 1.236 . S
O331 Dy321 2.395 . S
O331 C351 1.255 . S
O332 Dy321 2.379 . S
O332 C351 1.249 . S
C333 O323 1.266 . S
C333 O324 1.236 . S
O334 Dy320 2.275 . S
O334 C322 1.254 . S
O335 Dy321 2.339 . S
O335 C322 1.257 . S
C336 C339 1.344 . S
C336 C340 1.328 . S
C336 C342 1.516 . S
C337 C338 1.304 . S
C337 C341 1.323 . S
C338 C337 1.304 . S
C338 C339 1.371 . S
C338 H352 0.930 . S
C339 C336 1.344 . S
C339 C338 1.371 . S
C339 H353 0.931 . S
C340 C336 1.328 . S
C340 C341 1.433 . S
C340 H354 0.931 . S
C341 C337 1.323 . S
C341 C340 1.433 . S
C341 H355 0.933 . S
C342 Dy320 2.738 . S
C342 O325 1.255 . S
C342 O326 1.249 . S
C342 C336 1.516 . S
C343 O327 1.254 . S
C343 O328 1.257 . S
C344 O329 1.266 . S
C344 O330 1.236 . S
C345 C348 1.344 . S
C345 C349 1.328 . S
C345 C351 1.516 . S
C346 C347 1.304 . S
C346 C350 1.323 . S
C347 C346 1.304 . S
C347 C348 1.371 . S
C347 H356 0.930 . S
C348 C345 1.344 . S
C348 C347 1.371 . S
C348 H357 0.931 . S
C349 C345 1.328 . S
C349 C350 1.433 . S
C349 H358 0.931 . S
C350 C346 1.323 . S
C350 C349 1.433 . S
C350 H359 0.933 . S
C351 Dy321 2.738 . S
C351 O331 1.255 . S
C351 O332 1.249 . S
C351 C345 1.516 . S
H352 C338 0.930 . S
H353 C339 0.931 . S
H354 C340 0.931 . S
H355 C341 0.933 . S
H356 C347 0.930 . S
H357 C348 0.931 . S
H358 C349 0.931 . S
H359 C350 0.933 . S
Dy360 O363 2.307 . S
Dy360 O365 2.395 . S
Dy360 O366 2.379 . S
Dy360 O368 2.339 . S
Dy360 O370 2.298 . S
Dy360 O374 2.275 . S
Dy360 C382 2.738 . S
Dy361 O364 2.298 . S
Dy361 O367 2.275 . S
Dy361 O369 2.307 . S
Dy361 O371 2.395 . S
Dy361 O372 2.379 . S
Dy361 O375 2.339 . S
Dy361 C391 2.738 . S
C362 O374 1.254 . S
C362 O375 1.257 . S
O363 Dy360 2.307 . S
O363 C373 1.266 . S
O364 Dy361 2.298 . S
O364 C373 1.236 . S
O365 Dy360 2.395 . S
O365 C382 1.255 . S
O366 Dy360 2.379 . S
O366 C382 1.249 . S
O367 Dy361 2.275 . S
O367 C383 1.254 . S
O368 Dy360 2.339 . S
O368 C383 1.257 . S
O369 Dy361 2.307 . S
O369 C384 1.266 . S
O370 Dy360 2.298 . S
O370 C384 1.236 . S
O371 Dy361 2.395 . S
O371 C391 1.255 . S
O372 Dy361 2.379 . S
O372 C391 1.249 . S
C373 O363 1.266 . S
C373 O364 1.236 . S
O374 Dy360 2.275 . S
O374 C362 1.254 . S
O375 Dy361 2.339 . S
O375 C362 1.257 . S
C376 C379 1.344 . S
C376 C380 1.328 . S
C376 C382 1.516 1_655 S
C377 C378 1.304 . S
C377 C381 1.323 . S
C378 C377 1.304 . S
C378 C379 1.371 . S
C378 H392 0.930 . S
C379 C376 1.344 . S
C379 C378 1.371 . S
C379 H393 0.931 . S
C380 C376 1.328 . S
C380 C381 1.433 . S
C380 H394 0.931 . S
C381 C377 1.323 . S
C381 C380 1.433 . S
C381 H395 0.933 . S
C382 Dy360 2.738 . S
C382 O365 1.255 . S
C382 O366 1.249 . S
C382 C376 1.516 1_455 S
C383 O367 1.254 . S
C383 O368 1.257 . S
C384 O369 1.266 . S
C384 O370 1.236 . S
C385 C388 1.344 . S
C385 C389 1.328 . S
C385 C391 1.516 . S
C386 C387 1.304 . S
C386 C390 1.323 . S
C387 C386 1.304 . S
C387 C388 1.371 . S
C387 H396 0.930 . S
C388 C385 1.344 . S
C388 C387 1.371 . S
C388 H397 0.931 . S
C389 C385 1.328 . S
C389 C390 1.433 . S
C389 H398 0.931 . S
C390 C386 1.323 . S
C390 C389 1.433 . S
C390 H399 0.933 . S
C391 Dy361 2.738 . S
C391 O371 1.255 . S
C391 O372 1.249 . S
C391 C385 1.516 . S
H392 C378 0.930 . S
H393 C379 0.931 . S
H394 C380 0.931 . S
H395 C381 0.933 . S
H396 C387 0.930 . S
H397 C388 0.931 . S
H398 C389 0.931 . S
H399 C390 0.933 . S
Dy400 O403 2.307 . S
Dy400 O405 2.395 . S
Dy400 O406 2.379 . S
Dy400 O408 2.339 . S
Dy400 O410 2.298 . S
Dy400 O414 2.275 . S
Dy400 C422 2.738 . S
Dy401 O404 2.298 . S
Dy401 O407 2.275 . S
Dy401 O409 2.307 . S
Dy401 O411 2.395 . S
Dy401 O412 2.379 . S
Dy401 O415 2.339 . S
Dy401 C431 2.738 . S
C402 O414 1.254 . S
C402 O415 1.257 . S
O403 Dy400 2.307 . S
O403 C413 1.266 . S
O404 Dy401 2.298 . S
O404 C413 1.236 . S
O405 Dy400 2.395 . S
O405 C422 1.255 . S
O406 Dy400 2.379 . S
O406 C422 1.249 . S
O407 Dy401 2.275 . S
O407 C423 1.254 . S
O408 Dy400 2.339 . S
O408 C423 1.257 . S
O409 Dy401 2.307 . S
O409 C424 1.266 . S
O410 Dy400 2.298 . S
O410 C424 1.236 . S
O411 Dy401 2.395 . S
O411 C431 1.255 . S
O412 Dy401 2.379 . S
O412 C431 1.249 . S
C413 O403 1.266 . S
C413 O404 1.236 . S
O414 Dy400 2.275 . S
O414 C402 1.254 . S
O415 Dy401 2.339 . S
O415 C402 1.257 . S
C416 C419 1.344 . S
C416 C420 1.328 . S
C416 C422 1.516 . S
C417 C418 1.304 . S
C417 C421 1.323 . S
C418 C417 1.304 . S
C418 C419 1.371 . S
C418 H432 0.930 . S
C419 C416 1.344 . S
C419 C418 1.371 . S
C419 H433 0.931 . S
C420 C416 1.328 . S
C420 C421 1.433 . S
C420 H434 0.931 . S
C421 C417 1.323 . S
C421 C420 1.433 . S
C421 H435 0.933 . S
C422 Dy400 2.738 . S
C422 O405 1.255 . S
C422 O406 1.249 . S
C422 C416 1.516 . S
C423 O407 1.254 . S
C423 O408 1.257 . S
C424 O409 1.266 . S
C424 O410 1.236 . S
C425 C428 1.344 . S
C425 C429 1.328 . S
C425 C431 1.516 1_545 S
C426 C427 1.304 . S
C426 C430 1.323 . S
C427 C426 1.304 . S
C427 C428 1.371 . S
C427 H436 0.930 . S
C428 C425 1.344 . S
C428 C427 1.371 . S
C428 H437 0.931 . S
C429 C425 1.328 . S
C429 C430 1.433 . S
C429 H438 0.931 . S
C430 C426 1.323 . S
C430 C429 1.433 . S
C430 H439 0.933 . S
C431 Dy401 2.738 . S
C431 O411 1.255 . S
C431 O412 1.249 . S
C431 C425 1.516 1_565 S
H432 C418 0.930 . S
H433 C419 0.931 . S
H434 C420 0.931 . S
H435 C421 0.933 . S
H436 C427 0.930 . S
H437 C428 0.931 . S
H438 C429 0.931 . S
H439 C430 0.933 . S
Dy440 O443 2.307 . S
Dy440 O445 2.395 . S
Dy440 O446 2.379 . S
Dy440 O448 2.339 . S
Dy440 O450 2.298 . S
Dy440 O454 2.275 . S
Dy440 C462 2.738 . S
Dy441 O444 2.298 . S
Dy441 O447 2.275 . S
Dy441 O449 2.307 . S
Dy441 O451 2.395 . S
Dy441 O452 2.379 . S
Dy441 O455 2.339 . S
Dy441 C471 2.738 . S
C442 O454 1.254 . S
C442 O455 1.257 . S
O443 Dy440 2.307 . S
O443 C453 1.266 . S
O444 Dy441 2.298 . S
O444 C453 1.236 . S
O445 Dy440 2.395 . S
O445 C462 1.255 . S
O446 Dy440 2.379 . S
O446 C462 1.249 . S
O447 Dy441 2.275 . S
O447 C463 1.254 . S
O448 Dy440 2.339 . S
O448 C463 1.257 . S
O449 Dy441 2.307 . S
O449 C464 1.266 . S
O450 Dy440 2.298 . S
O450 C464 1.236 . S
O451 Dy441 2.395 . S
O451 C471 1.255 . S
O452 Dy441 2.379 . S
O452 C471 1.249 . S
C453 O443 1.266 . S
C453 O444 1.236 . S
O454 Dy440 2.275 . S
O454 C442 1.254 . S
O455 Dy441 2.339 . S
O455 C442 1.257 . S
C456 C459 1.344 . S
C456 C460 1.328 . S
C456 C462 1.516 . S
C457 C458 1.304 . S
C457 C461 1.323 . S
C458 C457 1.304 . S
C458 C459 1.371 . S
C458 H472 0.930 . S
C459 C456 1.344 . S
C459 C458 1.371 . S
C459 H473 0.931 . S
C460 C456 1.328 . S
C460 C461 1.433 . S
C460 H474 0.931 . S
C461 C457 1.323 . S
C461 C460 1.433 . S
C461 H475 0.933 . S
C462 Dy440 2.738 . S
C462 O445 1.255 . S
C462 O446 1.249 . S
C462 C456 1.516 . S
C463 O447 1.254 . S
C463 O448 1.257 . S
C464 O449 1.266 . S
C464 O450 1.236 . S
C465 C468 1.344 . S
C465 C469 1.328 . S
C465 C471 1.516 . S
C466 C467 1.304 . S
C466 C470 1.323 . S
C467 C466 1.304 . S
C467 C468 1.371 . S
C467 H476 0.930 . S
C468 C465 1.344 . S
C468 C467 1.371 . S
C468 H477 0.931 . S
C469 C465 1.328 . S
C469 C470 1.433 . S
C469 H478 0.931 . S
C470 C466 1.323 . S
C470 C469 1.433 . S
C470 H479 0.933 . S
C471 Dy441 2.738 . S
C471 O451 1.255 . S
C471 O452 1.249 . S
C471 C465 1.516 . S
H472 C458 0.930 . S
H473 C459 0.931 . S
H474 C460 0.931 . S
H475 C461 0.933 . S
H476 C467 0.930 . S
H477 C468 0.931 . S
H478 C469 0.931 . S
H479 C470 0.933 . S
H480 C488 0.950 . S
H481 C493 0.950 . S
H482 C490 0.950 . S
H483 C492 0.950 . S
H484 C494 0.950 . S
H485 C496 0.950 . S
H486 C498 0.950 . S
H487 C499 0.950 . S
C488 H480 0.950 . S
C488 C489 1.386 . S
C488 C490 1.391 . S
C489 C488 1.386 . S
C489 C493 1.393 . S
C490 H482 0.950 . S
C490 C488 1.391 . S
C490 C491 1.400 . S
C491 C490 1.400 . S
C491 C492 1.398 . S
C491 C497 1.491 . S
C492 H483 0.950 . S
C492 C491 1.398 . S
C492 C493 1.391 . S
C493 H481 0.950 . S
C493 C489 1.393 . S
C493 C492 1.391 . S
C494 H484 0.950 . S
C494 C495 1.386 . S
C494 C496 1.391 . S
C495 C494 1.386 . S
C495 C499 1.393 . S
C496 H485 0.950 . S
C496 C494 1.391 . S
C496 C497 1.400 . S
C497 C491 1.491 . S
C497 C496 1.400 . S
C497 C498 1.398 . S
C498 H486 0.950 . S
C498 C497 1.398 . S
C498 C499 1.391 . S
C499 H487 0.950 . S
C499 C495 1.393 . S
C499 C498 1.391 . S
H500 C508 0.950 . S
H501 C513 0.950 . S
H502 C510 0.950 . S
H503 C512 0.950 . S
H504 C514 0.950 . S
H505 C516 0.950 . S
H506 C518 0.950 . S
H507 C519 0.950 . S
C508 H500 0.950 . S
C508 C509 1.386 . S
C508 C510 1.391 . S
C509 C508 1.386 . S
C509 C513 1.393 . S
C510 H502 0.950 . S
C510 C508 1.391 . S
C510 C511 1.400 . S
C511 C510 1.400 . S
C511 C512 1.398 . S
C511 C517 1.491 1_455 S
C512 H503 0.950 . S
C512 C511 1.398 . S
C512 C513 1.391 . S
C513 H501 0.950 . S
C513 C509 1.393 . S
C513 C512 1.391 . S
C514 H504 0.950 . S
C514 C515 1.386 . S
C514 C516 1.391 . S
C515 C514 1.386 . S
C515 C519 1.393 . S
C516 H505 0.950 . S
C516 C514 1.391 . S
C516 C517 1.400 . S
C517 C511 1.491 1_655 S
C517 C516 1.400 . S
C517 C518 1.398 . S
C518 H506 0.950 . S
C518 C517 1.398 . S
C518 C519 1.391 . S
C519 H507 0.950 . S
C519 C515 1.393 . S
C519 C518 1.391 . S
H520 C528 0.950 . S
H521 C533 0.950 . S
H522 C530 0.950 . S
H523 C532 0.950 . S
H524 C534 0.950 . S
H525 C536 0.950 . S
H526 C538 0.950 . S
H527 C539 0.950 . S
C528 H520 0.950 . S
C528 C529 1.386 . S
C528 C530 1.391 . S
C529 C528 1.386 . S
C529 C533 1.393 . S
C530 H522 0.950 . S
C530 C528 1.391 . S
C530 C531 1.400 . S
C531 C530 1.400 . S
C531 C532 1.398 . S
C531 C537 1.491 1_545 S
C532 H523 0.950 . S
C532 C531 1.398 . S
C532 C533 1.391 . S
C533 H521 0.950 . S
C533 C529 1.393 . S
C533 C532 1.391 . S
C534 H524 0.950 . S
C534 C535 1.386 . S
C534 C536 1.391 . S
C535 C534 1.386 . S
C535 C539 1.393 . S
C536 H525 0.950 . S
C536 C534 1.391 . S
C536 C537 1.400 . S
C537 C531 1.491 1_565 S
C537 C536 1.400 . S
C537 C538 1.398 . S
C538 H526 0.950 . S
C538 C537 1.398 . S
C538 C539 1.391 . S
C539 H527 0.950 . S
C539 C535 1.393 . S
C539 C538 1.391 . S
H540 C548 0.950 . S
H541 C553 0.950 . S
H542 C550 0.950 . S
H543 C552 0.950 . S
H544 C554 0.950 . S
H545 C556 0.950 . S
H546 C558 0.950 . S
H547 C559 0.950 . S
C548 H540 0.950 . S
C548 C549 1.386 . S
C548 C550 1.391 . S
C549 C548 1.386 . S
C549 C553 1.393 . S
C550 H542 0.950 . S
C550 C548 1.391 . S
C550 C551 1.400 . S
C551 C550 1.400 . S
C551 C552 1.398 . S
C551 C557 1.491 . S
C552 H543 0.950 . S
C552 C551 1.398 . S
C552 C553 1.391 . S
C553 H541 0.950 . S
C553 C549 1.393 . S
C553 C552 1.391 . S
C554 H544 0.950 . S
C554 C555 1.386 . S
C554 C556 1.391 . S
C555 C554 1.386 . S
C555 C559 1.393 . S
C556 H545 0.950 . S
C556 C554 1.391 . S
C556 C557 1.400 . S
C557 C551 1.491 . S
C557 C556 1.400 . S
C557 C558 1.398 . S
C558 H546 0.950 . S
C558 C557 1.398 . S
C558 C559 1.391 . S
C559 H547 0.950 . S
C559 C555 1.393 . S
C559 C558 1.391 . S
H560 C568 0.950 . S
H561 C573 0.950 . S
H562 C570 0.950 . S
H563 C572 0.950 . S
H564 C574 0.950 . S
H565 C576 0.950 . S
H566 C578 0.950 . S
H567 C579 0.950 . S
C568 H560 0.950 . S
C568 C569 1.386 . S
C568 C570 1.391 . S
C569 C568 1.386 . S
C569 C573 1.393 . S
C570 H562 0.950 . S
C570 C568 1.391 . S
C570 C571 1.400 . S
C571 C570 1.400 . S
C571 C572 1.398 . S
C571 C577 1.491 1_455 S
C572 H563 0.950 . S
C572 C571 1.398 . S
C572 C573 1.391 . S
C573 H561 0.950 . S
C573 C569 1.393 . S
C573 C572 1.391 . S
C574 H564 0.950 . S
C574 C575 1.386 . S
C574 C576 1.391 . S
C575 C574 1.386 . S
C575 C579 1.393 . S
C576 H565 0.950 . S
C576 C574 1.391 . S
C576 C577 1.400 . S
C577 C571 1.491 1_655 S
C577 C576 1.400 . S
C577 C578 1.398 . S
C578 H566 0.950 . S
C578 C577 1.398 . S
C578 C579 1.391 . S
C579 H567 0.950 . S
C579 C575 1.393 . S
C579 C578 1.391 . S
H580 C588 0.950 . S
H581 C593 0.950 . S
H582 C590 0.950 . S
H583 C592 0.950 . S
H584 C594 0.950 . S
H585 C596 0.950 . S
H586 C598 0.950 . S
H587 C599 0.950 . S
C588 H580 0.950 . S
C588 C589 1.386 . S
C588 C590 1.391 . S
C589 C588 1.386 . S
C589 C593 1.393 . S
C590 H582 0.950 . S
C590 C588 1.391 . S
C590 C591 1.400 . S
C591 C590 1.400 . S
C591 C592 1.398 . S
C591 C597 1.491 1_565 S
C592 H583 0.950 . S
C592 C591 1.398 . S
C592 C593 1.391 . S
C593 H581 0.950 . S
C593 C589 1.393 . S
C593 C592 1.391 . S
C594 H584 0.950 . S
C594 C595 1.386 . S
C594 C596 1.391 . S
C595 C594 1.386 . S
C595 C599 1.393 . S
C596 H585 0.950 . S
C596 C594 1.391 . S
C596 C597 1.400 . S
C597 C591 1.491 1_545 S
C597 C596 1.400 . S
C597 C598 1.398 . S
C598 H586 0.950 . S
C598 C597 1.398 . S
C598 C599 1.391 . S
C599 H587 0.950 . S
C599 C595 1.393 . S
C599 C598 1.391 . S
H600 C608 0.950 . S
H601 C613 0.950 . S
H602 C610 0.950 . S
H603 C612 0.950 . S
H604 C614 0.950 . S
H605 C616 0.950 . S
H606 C618 0.950 . S
H607 C619 0.950 . S
C608 H600 0.950 . S
C608 C609 1.386 . S
C608 C610 1.391 . S
C609 C608 1.386 . S
C609 C613 1.393 . S
C610 H602 0.950 . S
C610 C608 1.391 . S
C610 C611 1.400 . S
C611 C610 1.400 . S
C611 C612 1.398 . S
C611 C617 1.491 . S
C612 H603 0.950 . S
C612 C611 1.398 . S
C612 C613 1.391 . S
C613 H601 0.950 . S
C613 C609 1.393 . S
C613 C612 1.391 . S
C614 H604 0.950 . S
C614 C615 1.386 . S
C614 C616 1.391 . S
C615 C614 1.386 . S
C615 C619 1.393 . S
C616 H605 0.950 . S
C616 C614 1.391 . S
C616 C617 1.400 . S
C617 C611 1.491 . S
C617 C616 1.400 . S
C617 C618 1.398 . S
C618 H606 0.950 . S
C618 C617 1.398 . S
C618 C619 1.391 . S
C619 H607 0.950 . S
C619 C615 1.393 . S
C619 C618 1.391 . S
H620 C628 0.950 . S
H621 C633 0.950 . S
H622 C630 0.950 . S
H623 C632 0.950 . S
H624 C634 0.950 . S
H625 C636 0.950 . S
H626 C638 0.950 . S
H627 C639 0.950 . S
C628 H620 0.950 . S
C628 C629 1.386 . S
C628 C630 1.391 . S
C629 C628 1.386 . S
C629 C633 1.393 . S
C630 H622 0.950 . S
C630 C628 1.391 . S
C630 C631 1.400 . S
C631 C630 1.400 . S
C631 C632 1.398 . S
C631 C637 1.491 1_455 S
C632 H623 0.950 . S
C632 C631 1.398 . S
C632 C633 1.391 . S
C633 H621 0.950 . S
C633 C629 1.393 . S
C633 C632 1.391 . S
C634 H624 0.950 . S
C634 C635 1.386 . S
C634 C636 1.391 . S
C635 C634 1.386 . S
C635 C639 1.393 . S
C636 H625 0.950 . S
C636 C634 1.391 . S
C636 C637 1.400 . S
C637 C631 1.491 1_655 S
C637 C636 1.400 . S
C637 C638 1.398 . S
C638 H626 0.950 . S
C638 C637 1.398 . S
C638 C639 1.391 . S
C639 H627 0.950 . S
C639 C635 1.393 . S
C639 C638 1.391 . S
H640 C648 0.950 . S
H641 C653 0.950 . S
H642 C650 0.950 . S
H643 C652 0.950 . S
H644 C654 0.950 . S
H645 C656 0.950 . S
H646 C658 0.950 . S
H647 C659 0.950 . S
C648 H640 0.950 . S
C648 C649 1.386 . S
C648 C650 1.391 . S
C649 C648 1.386 . S
C649 C653 1.393 . S
C650 H642 0.950 . S
C650 C648 1.391 . S
C650 C651 1.400 . S
C651 C650 1.400 . S
C651 C652 1.398 . S
C651 C657 1.491 1_565 S
C652 H643 0.950 . S
C652 C651 1.398 . S
C652 C653 1.391 . S
C653 H641 0.950 . S
C653 C649 1.393 . S
C653 C652 1.391 . S
C654 H644 0.950 . S
C654 C655 1.386 . S
C654 C656 1.391 . S
C655 C654 1.386 . S
C655 C659 1.393 . S
C656 H645 0.950 . S
C656 C654 1.391 . S
C656 C657 1.400 . S
C657 C651 1.491 1_545 S
C657 C656 1.400 . S
C657 C658 1.398 . S
C658 H646 0.950 . S
C658 C657 1.398 . S
C658 C659 1.391 . S
C659 H647 0.950 . S
C659 C655 1.393 . S
C659 C658 1.391 . S
H660 C668 0.950 . S
H661 C673 0.950 . S
H662 C670 0.950 . S
H663 C672 0.950 . S
H664 C674 0.950 . S
H665 C676 0.950 . S
H666 C678 0.950 . S
H667 C679 0.950 . S
C668 H660 0.950 . S
C668 C669 1.386 . S
C668 C670 1.391 . S
C669 C668 1.386 . S
C669 C673 1.393 . S
C670 H662 0.950 . S
C670 C668 1.391 . S
C670 C671 1.400 . S
C671 C670 1.400 . S
C671 C672 1.398 . S
C671 C677 1.491 . S
C672 H663 0.950 . S
C672 C671 1.398 . S
C672 C673 1.391 . S
C673 H661 0.950 . S
C673 C669 1.393 . S
C673 C672 1.391 . S
C674 H664 0.950 . S
C674 C675 1.386 . S
C674 C676 1.391 . S
C675 C674 1.386 . S
C675 C679 1.393 . S
C676 H665 0.950 . S
C676 C674 1.391 . S
C676 C677 1.400 . S
C677 C671 1.491 . S
C677 C676 1.400 . S
C677 C678 1.398 . S
C678 H666 0.950 . S
C678 C677 1.398 . S
C678 C679 1.391 . S
C679 H667 0.950 . S
C679 C675 1.393 . S
C679 C678 1.391 . S
H680 C688 0.950 . S
H681 C693 0.950 . S
H682 C690 0.950 . S
H683 C692 0.950 . S
H684 C694 0.950 . S
H685 C696 0.950 . S
H686 C698 0.950 . S
H687 C699 0.950 . S
C688 H680 0.950 . S
C688 C689 1.386 . S
C688 C690 1.391 . S
C689 C688 1.386 . S
C689 C693 1.393 . S
C690 H682 0.950 . S
C690 C688 1.391 . S
C690 C691 1.400 . S
C691 C690 1.400 . S
C691 C692 1.398 . S
C691 C697 1.491 1_455 S
C692 H683 0.950 . S
C692 C691 1.398 . S
C692 C693 1.391 . S
C693 H681 0.950 . S
C693 C689 1.393 . S
C693 C692 1.391 . S
C694 H684 0.950 . S
C694 C695 1.386 . S
C694 C696 1.391 . S
C695 C694 1.386 . S
C695 C699 1.393 . S
C696 H685 0.950 . S
C696 C694 1.391 . S
C696 C697 1.400 . S
C697 C691 1.491 1_655 S
C697 C696 1.400 . S
C697 C698 1.398 . S
C698 H686 0.950 . S
C698 C697 1.398 . S
C698 C699 1.391 . S
C699 H687 0.950 . S
C699 C695 1.393 . S
C699 C698 1.391 . S
H700 C708 0.950 . S
H701 C713 0.950 . S
H702 C710 0.950 . S
H703 C712 0.950 . S
H704 C714 0.950 . S
H705 C716 0.950 . S
H706 C718 0.950 . S
H707 C719 0.950 . S
C708 H700 0.950 . S
C708 C709 1.386 . S
C708 C710 1.391 . S
C709 C708 1.386 . S
C709 C713 1.393 . S
C710 H702 0.950 . S
C710 C708 1.391 . S
C710 C711 1.400 . S
C711 C710 1.400 . S
C711 C712 1.398 . S
C711 C717 1.491 1_545 S
C712 H703 0.950 . S
C712 C711 1.398 . S
C712 C713 1.391 . S
C713 H701 0.950 . S
C713 C709 1.393 . S
C713 C712 1.391 . S
C714 H704 0.950 . S
C714 C715 1.386 . S
C714 C716 1.391 . S
C715 C714 1.386 . S
C715 C719 1.393 . S
C716 H705 0.950 . S
C716 C714 1.391 . S
C716 C717 1.400 . S
C717 C711 1.491 1_565 S
C717 C716 1.400 . S
C717 C718 1.398 . S
C718 H706 0.950 . S
C718 C717 1.398 . S
C718 C719 1.391 . S
C719 H707 0.950 . S
C719 C715 1.393 . S
C719 C718 1.391 . S
H720 C728 0.950 . S
H721 C733 0.950 . S
H722 C730 0.950 . S
H723 C732 0.950 . S
H724 C734 0.950 . S
H725 C736 0.950 . S
H726 C738 0.950 . S
H727 C739 0.950 . S
C728 H720 0.950 . S
C728 C729 1.386 . S
C728 C730 1.391 . S
C729 C728 1.386 . S
C729 C733 1.393 . S
C730 H722 0.950 . S
C730 C728 1.391 . S
C730 C731 1.400 . S
C731 C730 1.400 . S
C731 C732 1.398 . S
C731 C737 1.491 . S
C732 H723 0.950 . S
C732 C731 1.398 . S
C732 C733 1.391 . S
C733 H721 0.950 . S
C733 C729 1.393 . S
C733 C732 1.391 . S
C734 H724 0.950 . S
C734 C735 1.386 . S
C734 C736 1.391 . S
C735 C734 1.386 . S
C735 C739 1.393 . S
C736 H725 0.950 . S
C736 C734 1.391 . S
C736 C737 1.400 . S
C737 C731 1.491 . S
C737 C736 1.400 . S
C737 C738 1.398 . S
C738 H726 0.950 . S
C738 C737 1.398 . S
C738 C739 1.391 . S
C739 H727 0.950 . S
C739 C735 1.393 . S
C739 C738 1.391 . S
H740 C748 0.950 . S
H741 C753 0.950 . S
H742 C750 0.950 . S
H743 C752 0.950 . S
H744 C754 0.950 . S
H745 C756 0.950 . S
H746 C758 0.950 . S
H747 C759 0.950 . S
C748 H740 0.950 . S
C748 C749 1.386 . S
C748 C750 1.391 . S
C749 C748 1.386 . S
C749 C753 1.393 . S
C750 H742 0.950 . S
C750 C748 1.391 . S
C750 C751 1.400 . S
C751 C750 1.400 . S
C751 C752 1.398 . S
C751 C757 1.491 . S
C752 H743 0.950 . S
C752 C751 1.398 . S
C752 C753 1.391 . S
C753 H741 0.950 . S
C753 C749 1.393 . S
C753 C752 1.391 . S
C754 H744 0.950 . S
C754 C755 1.386 . S
C754 C756 1.391 . S
C755 C754 1.386 . S
C755 C759 1.393 . S
C756 H745 0.950 . S
C756 C754 1.391 . S
C756 C757 1.400 . S
C757 C751 1.491 . S
C757 C756 1.400 . S
C757 C758 1.398 . S
C758 H746 0.950 . S
C758 C757 1.398 . S
C758 C759 1.391 . S
C759 H747 0.950 . S
C759 C755 1.393 . S
C759 C758 1.391 . S
H760 C768 0.950 . S
H761 C773 0.950 . S
H762 C770 0.950 . S
H763 C772 0.950 . S
H764 C774 0.950 . S
H765 C776 0.950 . S
H766 C778 0.950 . S
H767 C779 0.950 . S
C768 H760 0.950 . S
C768 C769 1.386 . S
C768 C770 1.391 . S
C769 C768 1.386 . S
C769 C773 1.393 . S
C770 H762 0.950 . S
C770 C768 1.391 . S
C770 C771 1.400 . S
C771 C770 1.400 . S
C771 C772 1.398 . S
C771 C777 1.491 . S
C772 H763 0.950 . S
C772 C771 1.398 . S
C772 C773 1.391 . S
C773 H761 0.950 . S
C773 C769 1.393 . S
C773 C772 1.391 . S
C774 H764 0.950 . S
C774 C775 1.386 . S
C774 C776 1.391 . S
C775 C774 1.386 . S
C775 C779 1.393 . S
C776 H765 0.950 . S
C776 C774 1.391 . S
C776 C777 1.400 . S
C777 C771 1.491 . S
C777 C776 1.400 . S
C777 C778 1.398 . S
C778 H766 0.950 . S
C778 C777 1.398 . S
C778 C779 1.391 . S
C779 H767 0.950 . S
C779 C775 1.393 . S
C779 C778 1.391 . S
H780 C788 0.950 . S
H781 C793 0.950 . S
H782 C790 0.950 . S
H783 C792 0.950 . S
H784 C794 0.950 . S
H785 C796 0.950 . S
H786 C798 0.950 . S
H787 C799 0.950 . S
C788 H780 0.950 . S
C788 C789 1.386 . S
C788 C790 1.391 . S
C789 C788 1.386 . S
C789 C793 1.393 . S
C790 H782 0.950 . S
C790 C788 1.391 . S
C790 C791 1.400 . S
C791 C790 1.400 . S
C791 C792 1.398 . S
C791 C797 1.491 . S
C792 H783 0.950 . S
C792 C791 1.398 . S
C792 C793 1.391 . S
C793 H781 0.950 . S
C793 C789 1.393 . S
C793 C792 1.391 . S
C794 H784 0.950 . S
C794 C795 1.386 . S
C794 C796 1.391 . S
C795 C794 1.386 . S
C795 C799 1.393 . S
C796 H785 0.950 . S
C796 C794 1.391 . S
C796 C797 1.400 . S
C797 C791 1.491 . S
C797 C796 1.400 . S
C797 C798 1.398 . S
C798 H786 0.950 . S
C798 C797 1.398 . S
C798 C799 1.391 . S
C799 H787 0.950 . S
C799 C795 1.393 . S
C799 C798 1.391 . S
H800 C808 0.950 . S
H801 C813 0.950 . S
H802 C810 0.950 . S
H803 C812 0.950 . S
H804 C814 0.950 . S
H805 C816 0.950 . S
H806 C818 0.950 . S
H807 C819 0.950 . S
C808 H800 0.950 . S
C808 C809 1.386 . S
C808 C810 1.391 . S
C809 C808 1.386 . S
C809 C813 1.393 . S
C810 H802 0.950 . S
C810 C808 1.391 . S
C810 C811 1.400 . S
C811 C810 1.400 . S
C811 C812 1.398 . S
C811 C817 1.491 . S
C812 H803 0.950 . S
C812 C811 1.398 . S
C812 C813 1.391 . S
C813 H801 0.950 . S
C813 C809 1.393 . S
C813 C812 1.391 . S
C814 H804 0.950 . S
C814 C815 1.386 . S
C814 C816 1.391 . S
C815 C814 1.386 . S
C815 C819 1.393 . S
C816 H805 0.950 . S
C816 C814 1.391 . S
C816 C817 1.400 . S
C817 C811 1.491 . S
C817 C816 1.400 . S
C817 C818 1.398 . S
C818 H806 0.950 . S
C818 C817 1.398 . S
C818 C819 1.391 . S
C819 H807 0.950 . S
C819 C815 1.393 . S
C819 C818 1.391 . S
H820 C828 0.950 . S
H821 C833 0.950 . S
H822 C830 0.950 . S
H823 C832 0.950 . S
H824 C834 0.950 . S
H825 C836 0.950 . S
H826 C838 0.950 . S
H827 C839 0.950 . S
C828 H820 0.950 . S
C828 C829 1.386 . S
C828 C830 1.391 . S
C829 C828 1.386 . S
C829 C833 1.393 . S
C830 H822 0.950 . S
C830 C828 1.391 . S
C830 C831 1.400 . S
C831 C830 1.400 . S
C831 C832 1.398 . S
C831 C837 1.491 . S
C832 H823 0.950 . S
C832 C831 1.398 . S
C832 C833 1.391 . S
C833 H821 0.950 . S
C833 C829 1.393 . S
C833 C832 1.391 . S
C834 H824 0.950 . S
C834 C835 1.386 . S
C834 C836 1.391 . S
C835 C834 1.386 . S
C835 C839 1.393 . S
C836 H825 0.950 . S
C836 C834 1.391 . S
C836 C837 1.400 . S
C837 C831 1.491 . S
C837 C836 1.400 . S
C837 C838 1.398 . S
C838 H826 0.950 . S
C838 C837 1.398 . S
C838 C839 1.391 . S
C839 H827 0.950 . S
C839 C835 1.393 . S
C839 C838 1.391 . S
H840 C848 0.950 . S
H841 C853 0.950 . S
H842 C850 0.950 1_554 S
H843 C852 0.965 . S
H844 C854 0.950 . S
H845 C856 0.950 1_556 S
H846 C858 0.965 . S
H847 C859 0.950 . S
C848 H840 0.950 . S
C848 C849 1.386 . S
C848 C850 1.391 . S
C849 C848 1.386 . S
C849 C853 1.393 . S
C850 H842 0.950 1_556 S
C850 C848 1.391 . S
C850 C851 1.400 . S
C851 C850 1.400 . S
C851 C852 1.398 . S
C851 C857 1.491 1_566 S
C852 H843 0.965 . S
C852 C851 1.398 . S
C852 C853 1.391 . S
C853 H841 0.950 . S
C853 C849 1.393 . S
C853 C852 1.391 . S
C854 H844 0.950 . S
C854 C855 1.386 . S
C854 C856 1.391 . S
C855 C854 1.386 . S
C855 C859 1.393 . S
C856 H845 0.950 1_554 S
C856 C854 1.391 . S
C856 C857 1.400 . S
C857 C851 1.491 1_544 S
C857 C856 1.400 . S
C857 C858 1.398 . S
C858 H846 0.965 . S
C858 C857 1.398 . S
C858 C859 1.391 . S
C859 H847 0.950 . S
C859 C855 1.393 . S
C859 C858 1.391 . S
H860 C868 0.950 . S
H861 C873 0.950 . S
H862 C870 0.950 . S
H863 C872 0.950 . S
H864 C874 0.950 . S
H865 C876 0.950 . S
H866 C878 0.950 . S
H867 C879 0.950 . S
C868 H860 0.950 . S
C868 C869 1.386 . S
C868 C870 1.391 . S
C869 C868 1.386 . S
C869 C873 1.393 . S
C870 H862 0.950 . S
C870 C868 1.391 . S
C870 C871 1.400 . S
C871 C870 1.400 . S
C871 C872 1.398 . S
C871 C877 1.491 . S
C872 H863 0.950 . S
C872 C871 1.398 . S
C872 C873 1.391 . S
C873 H861 0.950 . S
C873 C869 1.393 . S
C873 C872 1.391 . S
C874 H864 0.950 . S
C874 C875 1.386 . S
C874 C876 1.391 . S
C875 C874 1.386 . S
C875 C879 1.393 . S
C876 H865 0.950 . S
C876 C874 1.391 . S
C876 C877 1.400 . S
C877 C871 1.491 . S
C877 C876 1.400 . S
C877 C878 1.398 . S
C878 H866 0.950 . S
C878 C877 1.398 . S
C878 C879 1.391 . S
C879 H867 0.950 . S
C879 C875 1.393 . S
C879 C878 1.391 . S
H880 C888 0.950 . S
H881 C893 0.950 . S
H882 C890 0.983 . S
H883 C892 0.950 1_655 S
H884 C894 0.950 . S
H885 C896 0.983 . S
H886 C898 0.950 1_455 S
H887 C899 0.950 . S
C888 H880 0.950 . S
C888 C889 1.386 . S
C888 C890 1.371 1_556 S
C889 C888 1.386 . S
C889 C893 1.393 . S
C890 H882 0.983 . S
C890 C888 1.371 1_554 S
C890 C891 1.388 1_554 S
C891 C890 1.388 1_556 S
C891 C892 1.398 . S
C891 C897 1.491 1_456 S
C892 H883 0.950 1_455 S
C892 C891 1.398 . S
C892 C893 1.391 . S
C893 H881 0.950 . S
C893 C889 1.393 . S
C893 C892 1.391 . S
C894 H884 0.950 . S
C894 C895 1.386 . S
C894 C896 1.371 1_554 S
C895 C894 1.386 . S
C895 C899 1.393 . S
C896 H885 0.983 . S
C896 C894 1.371 1_556 S
C896 C897 1.388 1_556 S
C897 C891 1.491 1_654 S
C897 C896 1.388 1_554 S
C897 C898 1.398 . S
C898 H886 0.950 1_655 S
C898 C897 1.398 . S
C898 C899 1.391 . S
C899 H887 0.950 . S
C899 C895 1.393 . S
C899 C898 1.391 . S
H900 C908 0.950 . S
H901 C913 0.950 . S
H902 C910 0.950 . S
H903 C912 0.950 1_565 S
H904 C914 0.950 . S
H905 C916 0.950 . S
H906 C918 0.950 1_545 S
H907 C919 0.950 . S
C908 H900 0.950 . S
C908 C909 1.386 . S
C908 C910 1.391 . S
C909 C908 1.386 . S
C909 C913 1.393 . S
C910 H902 0.950 . S
C910 C908 1.391 . S
C910 C911 1.400 . S
C911 C910 1.400 . S
C911 C912 1.398 . S
C911 C917 1.491 1_545 S
C912 H903 0.950 1_545 S
C912 C911 1.398 . S
C912 C913 1.391 . S
C913 H901 0.950 . S
C913 C909 1.393 . S
C913 C912 1.391 . S
C914 H904 0.950 . S
C914 C915 1.386 . S
C914 C916 1.391 . S
C915 C914 1.386 . S
C915 C919 1.393 . S
C916 H905 0.950 . S
C916 C914 1.391 . S
C916 C917 1.400 . S
C917 C911 1.491 1_565 S
C917 C916 1.400 . S
C917 C918 1.398 . S
C918 H906 0.950 1_565 S
C918 C917 1.398 . S
C918 C919 1.391 . S
C919 H907 0.950 . S
C919 C915 1.393 . S
C919 C918 1.391 . S
H920 C928 0.950 . S
H921 C933 0.950 . S
H922 C930 0.950 . S
H923 C932 0.950 . S
H924 C934 0.950 . S
H925 C936 0.950 . S
H926 C938 0.950 . S
H927 C939 0.950 . S
C928 H920 0.950 . S
C928 C929 1.386 . S
C928 C930 1.391 . S
C929 C928 1.386 . S
C929 C933 1.393 . S
C930 H922 0.950 . S
C930 C928 1.391 . S
C930 C931 1.400 . S
C931 C930 1.400 . S
C931 C932 1.398 . S
C931 C937 1.491 1_554 S
C932 H923 0.950 . S
C932 C931 1.398 . S
C932 C933 1.391 . S
C933 H921 0.950 . S
C933 C929 1.393 . S
C933 C932 1.391 . S
C934 H924 0.950 . S
C934 C935 1.386 . S
C934 C936 1.391 . S
C935 C934 1.386 . S
C935 C939 1.393 . S
C936 H925 0.950 . S
C936 C934 1.391 . S
C936 C937 1.400 . S
C937 C931 1.491 1_556 S
C937 C936 1.400 . S
C937 C938 1.398 . S
C938 H926 0.950 . S
C938 C937 1.398 . S
C938 C939 1.391 . S
C939 H927 0.950 . S
C939 C935 1.393 . S
C939 C938 1.391 . S
H940 C948 0.950 . S
H941 C953 0.950 . S
H942 C950 0.950 . S
H943 C952 0.950 . S
H944 C954 0.950 . S
H945 C956 0.950 . S
H946 C958 0.950 . S
H947 C959 0.950 . S
C948 H940 0.950 . S
C948 C949 1.386 . S
C948 C950 1.391 . S
C949 C948 1.386 . S
C949 C953 1.393 . S
C950 H942 0.950 . S
C950 C948 1.391 . S
C950 C951 1.400 . S
C951 C950 1.400 . S
C951 C952 1.398 . S
C951 C957 1.491 1_455 S
C952 H943 0.950 . S
C952 C951 1.398 . S
C952 C953 1.391 . S
C953 H941 0.950 . S
C953 C949 1.393 . S
C953 C952 1.391 . S
C954 H944 0.950 . S
C954 C955 1.386 . S
C954 C956 1.391 . S
C955 C954 1.386 . S
C955 C959 1.393 . S
C956 H945 0.950 . S
C956 C954 1.391 . S
C956 C957 1.400 . S
C957 C951 1.491 1_655 S
C957 C956 1.400 . S
C957 C958 1.398 . S
C958 H946 0.950 . S
C958 C957 1.398 . S
C958 C959 1.391 . S
C959 H947 0.950 . S
C959 C955 1.393 . S
C959 C958 1.391 . S
H960 C968 0.950 . S
H961 C973 0.950 . S
H962 C970 0.950 . S
H963 C972 0.950 . S
H964 C974 0.950 . S
H965 C976 0.950 . S
H966 C978 0.950 . S
H967 C979 0.950 . S
C968 H960 0.950 . S
C968 C969 1.386 . S
C968 C970 1.391 . S
C969 C968 1.386 . S
C969 C973 1.393 . S
C970 H962 0.950 . S
C970 C968 1.391 . S
C970 C971 1.400 . S
C971 C970 1.400 . S
C971 C972 1.398 . S
C971 C977 1.491 . S
C972 H963 0.950 . S
C972 C971 1.398 . S
C972 C973 1.391 . S
C973 H961 0.950 . S
C973 C969 1.393 . S
C973 C972 1.391 . S
C974 H964 0.950 . S
C974 C975 1.386 . S
C974 C976 1.391 . S
C975 C974 1.386 . S
C975 C979 1.393 . S
C976 H965 0.950 . S
C976 C974 1.391 . S
C976 C977 1.400 . S
C977 C971 1.491 . S
C977 C976 1.400 . S
C977 C978 1.398 . S
C978 H966 0.950 . S
C978 C977 1.398 . S
C978 C979 1.391 . S
C979 H967 0.950 . S
C979 C975 1.393 . S
C979 C978 1.391 . S
H980 C988 0.950 . S
H981 C993 0.950 . S
H982 C990 0.950 . S
H983 C992 0.950 . S
H984 C994 0.950 . S
H985 C996 0.950 . S
H986 C998 0.950 . S
H987 C999 0.950 . S
C988 H980 0.950 . S
C988 C989 1.386 . S
C988 C990 1.391 . S
C989 C988 1.386 . S
C989 C993 1.393 . S
C990 H982 0.950 . S
C990 C988 1.391 . S
C990 C991 1.400 . S
C991 C990 1.400 . S
C991 C992 1.398 . S
C991 C997 1.491 . S
C992 H983 0.950 . S
C992 C991 1.398 . S
C992 C993 1.391 . S
C993 H981 0.950 . S
C993 C989 1.393 . S
C993 C992 1.391 . S
C994 H984 0.950 . S
C994 C995 1.386 . S
C994 C996 1.391 . S
C995 C994 1.386 . S
C995 C999 1.393 . S
C996 H985 0.950 . S
C996 C994 1.391 . S
C996 C997 1.400 . S
C997 C991 1.491 . S
C997 C996 1.400 . S
C997 C998 1.398 . S
C998 H986 0.950 . S
C998 C997 1.398 . S
C998 C999 1.391 . S
C999 H987 0.950 . S
C999 C995 1.393 . S
C999 C998 1.391 . S
H1000 C1008 0.950 . S
H1001 C1013 0.950 . S
H1002 C1010 0.950 . S
H1003 C1012 0.950 . S
H1004 C1014 0.950 . S
H1005 C1016 0.950 . S
H1006 C1018 0.950 . S
H1007 C1019 0.950 . S
C1008 H1000 0.950 . S
C1008 C1009 1.386 . S
C1008 C1010 1.391 . S
C1009 C1008 1.386 . S
C1009 C1013 1.393 . S
C1010 H1002 0.950 . S
C1010 C1008 1.391 . S
C1010 C1011 1.400 . S
C1011 C1010 1.400 . S
C1011 C1012 1.398 . S
C1011 C1017 1.491 . S
C1012 H1003 0.950 . S
C1012 C1011 1.398 . S
C1012 C1013 1.391 . S
C1013 H1001 0.950 . S
C1013 C1009 1.393 . S
C1013 C1012 1.391 . S
C1014 H1004 0.950 . S
C1014 C1015 1.386 . S
C1014 C1016 1.391 . S
C1015 C1014 1.386 . S
C1015 C1019 1.393 . S
C1016 H1005 0.950 . S
C1016 C1014 1.391 . S
C1016 C1017 1.400 . S
C1017 C1011 1.491 . S
C1017 C1016 1.400 . S
C1017 C1018 1.398 . S
C1018 H1006 0.950 . S
C1018 C1017 1.398 . S
C1018 C1019 1.391 . S
C1019 H1007 0.950 . S
C1019 C1015 1.393 . S
C1019 C1018 1.391 . S
H1020 C1028 0.950 . S
H1021 C1033 0.950 . S
H1022 C1030 0.950 . S
H1023 C1032 0.950 . S
H1024 C1034 0.950 . S
H1025 C1036 0.950 . S
H1026 C1038 0.950 . S
H1027 C1039 0.950 . S
C1028 H1020 0.950 . S
C1028 C1029 1.386 . S
C1028 C1030 1.391 . S
C1029 C1028 1.386 . S
C1029 C1033 1.393 . S
C1030 H1022 0.950 . S
C1030 C1028 1.391 . S
C1030 C1031 1.400 . S
C1031 C1030 1.400 . S
C1031 C1032 1.398 . S
C1031 C1037 1.491 . S
C1032 H1023 0.950 . S
C1032 C1031 1.398 . S
C1032 C1033 1.391 . S
C1033 H1021 0.950 . S
C1033 C1029 1.393 . S
C1033 C1032 1.391 . S
C1034 H1024 0.950 . S
C1034 C1035 1.386 . S
C1034 C1036 1.391 . S
C1035 C1034 1.386 . S
C1035 C1039 1.393 . S
C1036 H1025 0.950 . S
C1036 C1034 1.391 . S
C1036 C1037 1.400 . S
C1037 C1031 1.491 . S
C1037 C1036 1.400 . S
C1037 C1038 1.398 . S
C1038 H1026 0.950 . S
C1038 C1037 1.398 . S
C1038 C1039 1.391 . S
C1039 H1027 0.950 . S
C1039 C1035 1.393 . S
C1039 C1038 1.391 . S
H1040 C1048 0.950 . S
H1041 C1053 0.950 . S
H1042 C1050 0.950 . S
H1043 C1052 0.950 . S
H1044 C1054 0.950 . S
H1045 C1056 0.950 . S
H1046 C1058 0.950 . S
H1047 C1059 0.950 . S
C1048 H1040 0.950 . S
C1048 C1049 1.386 . S
C1048 C1050 1.391 . S
C1049 C1048 1.386 . S
C1049 C1053 1.393 . S
C1050 H1042 0.950 . S
C1050 C1048 1.391 . S
C1050 C1051 1.400 . S
C1051 C1050 1.400 . S
C1051 C1052 1.398 . S
C1051 C1057 1.491 . S
C1052 H1043 0.950 . S
C1052 C1051 1.398 . S
C1052 C1053 1.391 . S
C1053 H1041 0.950 . S
C1053 C1049 1.393 . S
C1053 C1052 1.391 . S
C1054 H1044 0.950 . S
C1054 C1055 1.386 . S
C1054 C1056 1.391 . S
C1055 C1054 1.386 . S
C1055 C1059 1.393 . S
C1056 H1045 0.950 . S
C1056 C1054 1.391 . S
C1056 C1057 1.400 . S
C1057 C1051 1.491 . S
C1057 C1056 1.400 . S
C1057 C1058 1.398 . S
C1058 H1046 0.950 . S
C1058 C1057 1.398 . S
C1058 C1059 1.391 . S
C1059 H1047 0.950 . S
C1059 C1055 1.393 . S
C1059 C1058 1.391 . S
H1060 C1068 0.950 . S
H1061 C1073 0.950 . S
H1062 C1070 0.950 . S
H1063 C1072 0.950 . S
H1064 C1074 0.950 . S
H1065 C1076 0.950 . S
H1066 C1078 0.950 . S
H1067 C1079 0.950 . S
C1068 H1060 0.950 . S
C1068 C1069 1.386 . S
C1068 C1070 1.391 . S
C1069 C1068 1.386 . S
C1069 C1073 1.393 . S
C1070 H1062 0.950 . S
C1070 C1068 1.391 . S
C1070 C1071 1.400 . S
C1071 C1070 1.400 . S
C1071 C1072 1.398 . S
C1071 C1077 1.491 . S
C1072 H1063 0.950 . S
C1072 C1071 1.398 . S
C1072 C1073 1.391 . S
C1073 H1061 0.950 . S
C1073 C1069 1.393 . S
C1073 C1072 1.391 . S
C1074 H1064 0.950 . S
C1074 C1075 1.386 . S
C1074 C1076 1.391 . S
C1075 C1074 1.386 . S
C1075 C1079 1.393 . S
C1076 H1065 0.950 . S
C1076 C1074 1.391 . S
C1076 C1077 1.400 . S
C1077 C1071 1.491 . S
C1077 C1076 1.400 . S
C1077 C1078 1.398 . S
C1078 H1066 0.950 . S
C1078 C1077 1.398 . S
C1078 C1079 1.391 . S
C1079 H1067 0.950 . S
C1079 C1075 1.393 . S
C1079 C1078 1.391 . S
H1080 C1088 0.950 . S
H1081 C1093 0.950 . S
H1082 C1090 0.950 . S
H1083 C1092 0.950 . S
H1084 C1094 0.950 . S
H1085 C1096 0.950 . S
H1086 C1098 0.950 . S
H1087 C1099 0.950 . S
C1088 H1080 0.950 . S
C1088 C1089 1.386 . S
C1088 C1090 1.391 . S
C1089 C1088 1.386 . S
C1089 C1093 1.393 . S
C1090 H1082 0.950 . S
C1090 C1088 1.391 . S
C1090 C1091 1.400 . S
C1091 C1090 1.400 . S
C1091 C1092 1.398 . S
C1091 C1097 1.491 . S
C1092 H1083 0.950 . S
C1092 C1091 1.398 . S
C1092 C1093 1.391 . S
C1093 H1081 0.950 . S
C1093 C1089 1.393 . S
C1093 C1092 1.391 . S
C1094 H1084 0.950 . S
C1094 C1095 1.386 . S
C1094 C1096 1.391 . S
C1095 C1094 1.386 . S
C1095 C1099 1.393 . S
C1096 H1085 0.950 . S
C1096 C1094 1.391 . S
C1096 C1097 1.400 . S
C1097 C1091 1.491 . S
C1097 C1096 1.400 . S
C1097 C1098 1.398 . S
C1098 H1086 0.950 . S
C1098 C1097 1.398 . S
C1098 C1099 1.391 . S
C1099 H1087 0.950 . S
C1099 C1095 1.393 . S
C1099 C1098 1.391 . S
H1100 C1108 0.950 . S
H1101 C1113 0.950 . S
H1102 C1110 0.950 . S
H1103 C1112 0.950 . S
H1104 C1114 0.950 . S
H1105 C1116 0.950 . S
H1106 C1118 0.950 . S
H1107 C1119 0.950 . S
C1108 H1100 0.950 . S
C1108 C1109 1.386 . S
C1108 C1110 1.391 . S
C1109 C1108 1.386 . S
C1109 C1113 1.393 . S
C1110 H1102 0.950 . S
C1110 C1108 1.391 . S
C1110 C1111 1.400 . S
C1111 C1110 1.400 . S
C1111 C1112 1.398 . S
C1111 C1117 1.491 . S
C1112 H1103 0.950 . S
C1112 C1111 1.398 . S
C1112 C1113 1.391 . S
C1113 H1101 0.950 . S
C1113 C1109 1.393 . S
C1113 C1112 1.391 . S
C1114 H1104 0.950 . S
C1114 C1115 1.386 . S
C1114 C1116 1.391 . S
C1115 C1114 1.386 . S
C1115 C1119 1.393 . S
C1116 H1105 0.950 . S
C1116 C1114 1.391 . S
C1116 C1117 1.400 . S
C1117 C1111 1.491 . S
C1117 C1116 1.400 . S
C1117 C1118 1.398 . S
C1118 H1106 0.950 . S
C1118 C1117 1.398 . S
C1118 C1119 1.391 . S
C1119 H1107 0.950 . S
C1119 C1115 1.393 . S
C1119 C1118 1.391 . S
H1120 C1128 0.950 . S
H1121 C1133 0.950 . S
H1122 C1130 0.950 . S
H1123 C1132 0.950 . S
H1124 C1134 0.950 . S
H1125 C1136 0.950 . S
H1126 C1138 0.950 . S
H1127 C1139 0.950 . S
C1128 H1120 0.950 . S
C1128 C1129 1.386 . S
C1128 C1130 1.391 . S
C1129 C1128 1.386 . S
C1129 C1133 1.393 . S
C1130 H1122 0.950 . S
C1130 C1128 1.391 . S
C1130 C1131 1.400 . S
C1131 C1130 1.400 . S
C1131 C1132 1.398 . S
C1131 C1137 1.491 . S
C1132 H1123 0.950 . S
C1132 C1131 1.398 . S
C1132 C1133 1.391 . S
C1133 H1121 0.950 . S
C1133 C1129 1.393 . S
C1133 C1132 1.391 . S
C1134 H1124 0.950 . S
C1134 C1135 1.386 . S
C1134 C1136 1.391 . S
C1135 C1134 1.386 . S
C1135 C1139 1.393 . S
C1136 H1125 0.950 . S
C1136 C1134 1.391 . S
C1136 C1137 1.400 . S
C1137 C1131 1.491 . S
C1137 C1136 1.400 . S
C1137 C1138 1.398 . S
C1138 H1126 0.950 . S
C1138 C1137 1.398 . S
C1138 C1139 1.391 . S
C1139 H1127 0.950 . S
C1139 C1135 1.393 . S
C1139 C1138 1.391 . S
H1140 C1148 0.950 . S
H1141 C1153 0.950 . S
H1142 C1150 0.950 . S
H1143 C1152 0.950 . S
H1144 C1154 0.950 . S
H1145 C1156 0.950 . S
H1146 C1158 0.950 . S
H1147 C1159 0.950 . S
C1148 H1140 0.950 . S
C1148 C1149 1.386 . S
C1148 C1150 1.391 . S
C1149 C1148 1.386 . S
C1149 C1153 1.393 . S
C1150 H1142 0.950 . S
C1150 C1148 1.391 . S
C1150 C1151 1.400 . S
C1151 C1150 1.400 . S
C1151 C1152 1.398 . S
C1151 C1157 1.491 . S
C1152 H1143 0.950 . S
C1152 C1151 1.398 . S
C1152 C1153 1.391 . S
C1153 H1141 0.950 . S
C1153 C1149 1.393 . S
C1153 C1152 1.391 . S
C1154 H1144 0.950 . S
C1154 C1155 1.386 . S
C1154 C1156 1.391 . S
C1155 C1154 1.386 . S
C1155 C1159 1.393 . S
C1156 H1145 0.950 . S
C1156 C1154 1.391 . S
C1156 C1157 1.400 . S
C1157 C1151 1.491 . S
C1157 C1156 1.400 . S
C1157 C1158 1.398 . S
C1158 H1146 0.950 . S
C1158 C1157 1.398 . S
C1158 C1159 1.391 . S
C1159 H1147 0.950 . S
C1159 C1155 1.393 . S
C1159 C1158 1.391 . S
H1160 C1168 0.950 . S
H1161 C1173 0.950 . S
H1162 C1170 0.950 . S
H1163 C1172 0.950 . S
H1164 C1174 0.950 . S
H1165 C1176 0.950 . S
H1166 C1178 0.950 . S
H1167 C1179 0.950 . S
C1168 H1160 0.950 . S
C1168 C1169 1.386 . S
C1168 C1170 1.391 . S
C1169 C1168 1.386 . S
C1169 C1173 1.393 . S
C1170 H1162 0.950 . S
C1170 C1168 1.391 . S
C1170 C1171 1.400 . S
C1171 C1170 1.400 . S
C1171 C1172 1.398 . S
C1171 C1177 1.491 . S
C1172 H1163 0.950 . S
C1172 C1171 1.398 . S
C1172 C1173 1.391 . S
C1173 H1161 0.950 . S
C1173 C1169 1.393 . S
C1173 C1172 1.391 . S
C1174 H1164 0.950 . S
C1174 C1175 1.386 . S
C1174 C1176 1.391 . S
C1175 C1174 1.386 . S
C1175 C1179 1.393 . S
C1176 H1165 0.950 . S
C1176 C1174 1.391 . S
C1176 C1177 1.400 . S
C1177 C1171 1.491 . S
C1177 C1176 1.400 . S
C1177 C1178 1.398 . S
C1178 H1166 0.950 . S
C1178 C1177 1.398 . S
C1178 C1179 1.391 . S
C1179 H1167 0.950 . S
C1179 C1175 1.393 . S
C1179 C1178 1.391 . S
H1180 C1188 0.950 . S
H1181 C1193 0.950 . S
H1182 C1190 0.950 . S
H1183 C1192 0.950 . S
H1184 C1194 0.950 . S
H1185 C1196 0.950 . S
H1186 C1198 0.950 . S
H1187 C1199 0.950 . S
C1188 H1180 0.950 . S
C1188 C1189 1.386 . S
C1188 C1190 1.391 . S
C1189 C1188 1.386 . S
C1189 C1193 1.393 . S
C1190 H1182 0.950 . S
C1190 C1188 1.391 . S
C1190 C1191 1.400 . S
C1191 C1190 1.400 . S
C1191 C1192 1.398 . S
C1191 C1197 1.491 . S
C1192 H1183 0.950 . S
C1192 C1191 1.398 . S
C1192 C1193 1.391 . S
C1193 H1181 0.950 . S
C1193 C1189 1.393 . S
C1193 C1192 1.391 . S
C1194 H1184 0.950 . S
C1194 C1195 1.386 . S
C1194 C1196 1.391 . S
C1195 C1194 1.386 . S
C1195 C1199 1.393 . S
C1196 H1185 0.950 . S
C1196 C1194 1.391 . S
C1196 C1197 1.400 . S
C1197 C1191 1.491 . S
C1197 C1196 1.400 . S
C1197 C1198 1.398 . S
C1198 H1186 0.950 . S
C1198 C1197 1.398 . S
C1198 C1199 1.391 . S
C1199 H1187 0.950 . S
C1199 C1195 1.393 . S
C1199 C1198 1.391 . S
C489 C97 1.204 . S
C495 C24 1.202 . S
C509 C146 1.217 . S
C515 C53 1.216 . S
C529 C104 1.216 . S
C535 C177 1.217 . S
C549 C133 1.191 . S
C555 C226 1.193 . S
C569 C17 1.203 . S
C575 C184 1.201 . S
C589 C66 1.215 . S
C595 C213 1.213 . S
C609 C426 1.214 . S
C615 C253 1.213 . S
C629 C304 1.215 . S
C635 C457 1.217 . S
C649 C333 1.212 . S
C655 C266 1.213 . S
C669 C384 1.191 . S
C675 C297 1.193 . S
C689 C413 1.197 . S
C695 C346 1.199 . S
C709 C377 1.201 . S
C715 C464 1.200 . S
C729 C122 1.737 . S
C735 C23 1.752 . S
C749 C42 1.757 . S
C755 C183 1.733 . S
C769 C103 1.732 . S
C775 C202 1.758 . S
C789 C242 1.732 . S
C795 C383 1.758 . S
C809 C303 1.745 . S
C815 C402 1.745 . S
C829 C322 1.737 . S
C835 C463 1.752 . S
C849 C282 2.314 . S
C855 C2 2.317 . S
C869 C63 2.324 . S
C875 C343 2.319 . S
C889 C362 2.315 . S
C895 C82 2.320 . S
C909 C143 2.324 . S
C915 C423 2.319 . S
C929 C162 2.316 . S
C935 C442 2.315 . S
C949 C263 2.324 . S
C955 C223 2.324 . S
C969 C106 1.541 . S
C975 C13 1.538 . S
C989 C64 1.535 . S
C995 C137 1.537 . S
C1009 C93 1.535 . S
C1015 C186 1.538 . S
C1029 C144 1.535 . S
C1035 C217 1.537 . S
C1049 C26 1.550 . S
C1055 C173 1.548 . S
C1069 C57 1.537 . S
C1075 C224 1.535 . S
C1089 C417 1.543 . S
C1095 C264 1.540 . S
C1109 C293 1.535 . S
C1115 C466 1.538 . S
C1129 C344 1.551 . S
C1135 C257 1.553 . S
C1149 C306 1.537 . S
C1155 C373 1.535 . S
C1169 C424 1.550 . S
C1175 C337 1.552 . S
C1189 C453 1.549 . S
C1195 C386 1.551 . S
