# Generated by pormake.
# Topology ulj, (4)-cn, num edge types: 1
# Building blocks:
#     Node 0, Type 0, BuildingBlock: MUDLON_clean_sbu_0, # of connection points: 4
#     Node 1, Type 0, BuildingBlock: MUDLON_clean_sbu_0, # of connection points: 4
#     Node 2, Type 0, BuildingBlock: MUDLON_clean_sbu_0, # of connection points: 4
#     Node 3, Type 0, BuildingBlock: MUDLON_clean_sbu_0, # of connection points: 4
#     Node 4, Type 0, BuildingBlock: MUDLON_clean_sbu_0, # of connection points: 4
#     Node 5, Type 0, BuildingBlock: MUDLON_clean_sbu_0, # of connection points: 4
#     Node 6, Type 0, BuildingBlock: MUDLON_clean_sbu_0, # of connection points: 4
#     Node 7, Type 0, BuildingBlock: MUDLON_clean_sbu_0, # of connection points: 4
#     Node 8, Type 0, BuildingBlock: MUDLON_clean_sbu_0, # of connection points: 4
#     Node 9, Type 0, BuildingBlock: MUDLON_clean_sbu_0, # of connection points: 4
#     Node 10, Type 0, BuildingBlock: MUDLON_clean_sbu_0, # of connection points: 4
#     Node 11, Type 0, BuildingBlock: MUDLON_clean_sbu_0, # of connection points: 4
#     Node 12, Type 0, BuildingBlock: MUDLON_clean_sbu_0, # of connection points: 4
#     Node 13, Type 0, BuildingBlock: MUDLON_clean_sbu_0, # of connection points: 4
#     Node 14, Type 0, BuildingBlock: MUDLON_clean_sbu_0, # of connection points: 4
#     Node 15, Type 0, BuildingBlock: MUDLON_clean_sbu_0, # of connection points: 4
#     Node 16, Type 0, BuildingBlock: MUDLON_clean_sbu_0, # of connection points: 4
#     Node 17, Type 0, BuildingBlock: MUDLON_clean_sbu_0, # of connection points: 4
#     Node 18, Type 0, BuildingBlock: MUDLON_clean_sbu_0, # of connection points: 4
#     Node 19, Type 0, BuildingBlock: MUDLON_clean_sbu_0, # of connection points: 4
#     Node 20, Type 0, BuildingBlock: MUDLON_clean_sbu_0, # of connection points: 4
#     Node 21, Type 0, BuildingBlock: MUDLON_clean_sbu_0, # of connection points: 4
#     Node 22, Type 0, BuildingBlock: MUDLON_clean_sbu_0, # of connection points: 4
#     Node 23, Type 0, BuildingBlock: MUDLON_clean_sbu_0, # of connection points: 4
#     Node 24, Type 0, BuildingBlock: MUDLON_clean_sbu_0, # of connection points: 4
#     Node 25, Type 0, BuildingBlock: MUDLON_clean_sbu_0, # of connection points: 4
#     Node 26, Type 0, BuildingBlock: MUDLON_clean_sbu_0, # of connection points: 4
#     Node 27, Type 0, BuildingBlock: MUDLON_clean_sbu_0, # of connection points: 4
#     Node 28, Type 0, BuildingBlock: MUDLON_clean_sbu_0, # of connection points: 4
#     Node 29, Type 0, BuildingBlock: MUDLON_clean_sbu_0, # of connection points: 4
#     Node 30, Type 0, BuildingBlock: MUDLON_clean_sbu_0, # of connection points: 4
#     Node 31, Type 0, BuildingBlock: MUDLON_clean_sbu_0, # of connection points: 4
#     Node 32, Type 0, BuildingBlock: MUDLON_clean_sbu_0, # of connection points: 4
#     Node 33, Type 0, BuildingBlock: MUDLON_clean_sbu_0, # of connection points: 4
#     Node 34, Type 0, BuildingBlock: MUDLON_clean_sbu_0, # of connection points: 4
#     Node 35, Type 0, BuildingBlock: MUDLON_clean_sbu_0, # of connection points: 4
#     Node 36, Type 0, BuildingBlock: MUDLON_clean_sbu_0, # of connection points: 4
#     Node 37, Type 0, BuildingBlock: MUDLON_clean_sbu_0, # of connection points: 4
#     Node 38, Type 0, BuildingBlock: MUDLON_clean_sbu_0, # of connection points: 4
#     Node 39, Type 0, BuildingBlock: MUDLON_clean_sbu_0, # of connection points: 4
#     Node 40, Type 0, BuildingBlock: MUDLON_clean_sbu_0, # of connection points: 4
#     Node 41, Type 0, BuildingBlock: MUDLON_clean_sbu_0, # of connection points: 4
#     Node 42, Type 0, BuildingBlock: MUDLON_clean_sbu_0, # of connection points: 4
#     Node 43, Type 0, BuildingBlock: MUDLON_clean_sbu_0, # of connection points: 4
#     Node 44, Type 0, BuildingBlock: MUDLON_clean_sbu_0, # of connection points: 4
#     Node 45, Type 0, BuildingBlock: MUDLON_clean_sbu_0, # of connection points: 4
#     Node 46, Type 0, BuildingBlock: MUDLON_clean_sbu_0, # of connection points: 4
#     Node 47, Type 0, BuildingBlock: MUDLON_clean_sbu_0, # of connection points: 4
#     Edge 48, Type (0, 0), None
#     Edge 49, Type (0, 0), None
#     Edge 50, Type (0, 0), None
#     Edge 51, Type (0, 0), None
#     Edge 52, Type (0, 0), None
#     Edge 53, Type (0, 0), None
#     Edge 54, Type (0, 0), None
#     Edge 55, Type (0, 0), None
#     Edge 56, Type (0, 0), None
#     Edge 57, Type (0, 0), None
#     Edge 58, Type (0, 0), None
#     Edge 59, Type (0, 0), None
#     Edge 60, Type (0, 0), None
#     Edge 61, Type (0, 0), None
#     Edge 62, Type (0, 0), None
#     Edge 63, Type (0, 0), None
#     Edge 64, Type (0, 0), None
#     Edge 65, Type (0, 0), None
#     Edge 66, Type (0, 0), None
#     Edge 67, Type (0, 0), None
#     Edge 68, Type (0, 0), None
#     Edge 69, Type (0, 0), None
#     Edge 70, Type (0, 0), None
#     Edge 71, Type (0, 0), None
#     Edge 72, Type (0, 0), None
#     Edge 73, Type (0, 0), None
#     Edge 74, Type (0, 0), None
#     Edge 75, Type (0, 0), None
#     Edge 76, Type (0, 0), None
#     Edge 77, Type (0, 0), None
#     Edge 78, Type (0, 0), None
#     Edge 79, Type (0, 0), None
#     Edge 80, Type (0, 0), None
#     Edge 81, Type (0, 0), None
#     Edge 82, Type (0, 0), None
#     Edge 83, Type (0, 0), None
#     Edge 84, Type (0, 0), None
#     Edge 85, Type (0, 0), None
#     Edge 86, Type (0, 0), None
#     Edge 87, Type (0, 0), None
#     Edge 88, Type (0, 0), None
#     Edge 89, Type (0, 0), None
#     Edge 90, Type (0, 0), None
#     Edge 91, Type (0, 0), None
#     Edge 92, Type (0, 0), None
#     Edge 93, Type (0, 0), None
#     Edge 94, Type (0, 0), None
#     Edge 95, Type (0, 0), None
#     Edge 96, Type (0, 0), None
#     Edge 97, Type (0, 0), None
#     Edge 98, Type (0, 0), None
#     Edge 99, Type (0, 0), None
#     Edge 100, Type (0, 0), None
#     Edge 101, Type (0, 0), None
#     Edge 102, Type (0, 0), None
#     Edge 103, Type (0, 0), None
#     Edge 104, Type (0, 0), None
#     Edge 105, Type (0, 0), None
#     Edge 106, Type (0, 0), None
#     Edge 107, Type (0, 0), None
#     Edge 108, Type (0, 0), None
#     Edge 109, Type (0, 0), None
#     Edge 110, Type (0, 0), None
#     Edge 111, Type (0, 0), None
#     Edge 112, Type (0, 0), None
#     Edge 113, Type (0, 0), None
#     Edge 114, Type (0, 0), None
#     Edge 115, Type (0, 0), None
#     Edge 116, Type (0, 0), None
#     Edge 117, Type (0, 0), None
#     Edge 118, Type (0, 0), None
#     Edge 119, Type (0, 0), None
#     Edge 120, Type (0, 0), None
#     Edge 121, Type (0, 0), None
#     Edge 122, Type (0, 0), None
#     Edge 123, Type (0, 0), None
#     Edge 124, Type (0, 0), None
#     Edge 125, Type (0, 0), None
#     Edge 126, Type (0, 0), None
#     Edge 127, Type (0, 0), None
#     Edge 128, Type (0, 0), None
#     Edge 129, Type (0, 0), None
#     Edge 130, Type (0, 0), None
#     Edge 131, Type (0, 0), None
#     Edge 132, Type (0, 0), None
#     Edge 133, Type (0, 0), None
#     Edge 134, Type (0, 0), None
#     Edge 135, Type (0, 0), None
#     Edge 136, Type (0, 0), None
#     Edge 137, Type (0, 0), None
#     Edge 138, Type (0, 0), None
#     Edge 139, Type (0, 0), None
#     Edge 140, Type (0, 0), None
#     Edge 141, Type (0, 0), None
#     Edge 142, Type (0, 0), None
#     Edge 143, Type (0, 0), None
# Relax obj value: 0.200
# Max RMSD: 0.250
# Mean RMSD: 0.237
data_MOF--net-ulj--node1-MUDLON_clean_sbu_0--edge1-none
_symmetry_space_group_name_H-M    P1
_symmetry_Int_Tables_number       1
_symmetry_cell_setting            triclinic
loop_
_symmetry_equiv_pos_as_xyz
'x, y, z'
_cell_length_a     30.704318
_cell_length_b     29.903634
_cell_length_c     29.618362
_cell_angle_alpha  90.089999
_cell_angle_beta   89.897151
_cell_angle_gamma 89.859704
loop_
_atom_site_label
_atom_site_type_symbol
_atom_site_fract_x
_atom_site_fract_y
_atom_site_fract_z
_atom_type_partial_charge
Mg0 Mg 0.12735 0.22652 0.33228 0.0
C1 C 0.05218 0.16992 0.36615 0.0
O2 O 0.0846 0.1445 0.37957 0.0
C3 C 0.17545 0.29262 0.27837 0.0
O4 O 0.19749 0.29018 0.31624 0.0
C5 C 0.12185 0.25909 0.43017 0.0
O6 O 0.10856 0.21813 0.43779 0.0
O7 O 0.13705 0.26909 0.39149 0.0
O8 O 0.06019 0.2037 0.34131 0.0
O9 O 0.17315 0.17229 0.31754 0.0
C10 C 0.21025 0.16961 0.33619 0.0
O11 O 0.21896 0.19577 0.37065 0.0
O12 O 0.14006 0.27067 0.2749 0.0
Mg13 Mg 0.46042 0.63866 0.96627 0.0
C14 C 0.42228 0.73264 0.96093 0.0
O15 O 0.4529 0.74081 0.9907 0.0
C16 C 0.49409 0.63408 0.05995 0.0
O17 O 0.45461 0.61803 0.06489 0.0
C18 C 0.50661 0.6617 0.87827 0.0
O19 O 0.47449 0.69058 0.87523 0.0
O20 O 0.50631 0.63292 0.90996 0.0
O21 O 0.41555 0.69254 0.94855 0.0
O22 O 0.42883 0.57637 0.98745 0.0
C23 C 0.39103 0.56094 0.97964 0.0
O24 O 0.36502 0.58141 0.95121 0.0
O25 O 0.50461 0.65158 1.02246 0.0
Mg26 Mg 0.89127 0.30924 0.33649 0.0
C27 C 0.96748 0.36596 0.36578 0.0
O28 O 0.93545 0.39231 0.37857 0.0
C29 C 0.83781 0.24633 0.28531 0.0
O30 O 0.81513 0.25465 0.32202 0.0
C31 C 0.89881 0.27853 0.4342 0.0
O32 O 0.91435 0.31889 0.44051 0.0
O33 O 0.88146 0.26868 0.39654 0.0
O34 O 0.95883 0.33105 0.3428 0.0
O35 O 0.84662 0.36398 0.32241 0.0
C36 C 0.81251 0.37209 0.34524 0.0
O37 O 0.80644 0.3513 0.38376 0.0
O38 O 0.87556 0.26358 0.28131 0.0
Mg39 Mg 0.55179 0.89515 0.97423 0.0
C40 C 0.59053 0.80282 0.957 0.0
O41 O 0.5636 0.79191 0.98965 0.0
C42 C 0.48895 0.89528 0.05547 0.0
O43 O 0.49278 0.93889 0.05279 0.0
C44 C 0.50013 0.88094 0.88794 0.0
O45 O 0.5324 0.85328 0.87955 0.0
O46 O 0.50227 0.90663 0.92227 0.0
O47 O 0.59492 0.84378 0.94654 0.0
O48 O 0.58725 0.95391 0.99787 0.0
C49 C 0.60665 0.98167 0.97238 0.0
O50 O 0.60567 0.976 0.92842 0.0
O51 O 0.51123 0.8702 0.02925 0.0
Mg52 Mg 0.12511 0.8161 0.21872 0.0
C53 C 0.05151 0.87964 0.19304 0.0
O54 O 0.0845 0.90502 0.18136 0.0
C55 C 0.17388 0.74813 0.27027 0.0
O56 O 0.19417 0.74954 0.23123 0.0
C57 C 0.11131 0.78458 0.12157 0.0
O58 O 0.09582 0.82525 0.11691 0.0
O59 O 0.13019 0.77388 0.15826 0.0
O60 O 0.05891 0.84314 0.2139 0.0
O61 O 0.1731 0.86853 0.23106 0.0
C62 C 0.21047 0.86813 0.21269 0.0
O63 O 0.21828 0.83973 0.17978 0.0
O64 O 0.1393 0.77131 0.27542 0.0
Mg65 Mg 0.06061 0.65492 0.07514 0.0
C66 C 0.0961 0.7492 0.0907 0.0
O67 O 0.06737 0.75912 0.05946 0.0
C68 C 0.99269 0.64453 1.00464 0.0
O69 O 0.97559 0.62245 0.03857 0.0
C70 C 0.00471 0.67133 0.15931 0.0
O71 O 0.03599 0.69966 0.16879 0.0
O72 O 0.00833 0.64609 0.12479 0.0
O73 O 0.10247 0.7084 0.10084 0.0
O74 O 0.09607 0.5944 0.05596 0.0
C75 C 0.12051 0.56835 0.07839 0.0
O76 O 0.12763 0.5761 0.12139 0.0
O77 O 0.02746 0.66688 1.0111 0.0
Mg78 Mg 0.88887 0.73747 0.2116 0.0
C79 C 0.96178 0.677 0.18079 0.0
O80 O 0.92838 0.6545 0.16506 0.0
C81 C 0.84044 0.80344 0.26599 0.0
O82 O 0.82189 0.80592 0.22616 0.0
C83 C 0.9019 0.77557 0.11689 0.0
O84 O 0.91546 0.7349 0.10777 0.0
O85 O 0.88457 0.78378 0.15505 0.0
O86 O 0.9549 0.71084 0.20599 0.0
O87 O 0.8403 0.68496 0.21756 0.0
C88 C 0.80356 0.68851 0.19837 0.0
O89 O 0.79758 0.72036 0.16853 0.0
O90 O 0.87369 0.77828 0.27082 0.0
Mg91 Mg 0.9588 0.90607 0.08452 0.0
C92 C 0.91809 0.81309 0.08969 0.0
O93 O 0.94428 0.80518 0.05549 0.0
C94 C 0.02465 0.91056 1.00533 0.0
O95 O 0.01565 0.95349 1.00498 0.0
C96 C 0.00918 0.88583 0.17041 0.0
O97 O 0.98033 0.85359 0.17271 0.0
O98 O 0.00507 0.91584 0.14012 0.0
O99 O 0.91549 0.85246 0.10572 0.0
O100 O 0.9222 0.96478 0.06219 0.0
C101 C 0.88787 0.96039 0.03846 0.0
O102 O 0.87354 0.92012 0.02901 0.0
O103 O 1.00386 0.88456 0.03172 0.0
Mg104 Mg 0.29856 0.12718 0.22706 0.0
C105 C 0.33851 0.05741 0.16516 0.0
O106 O 0.35325 0.09367 0.14545 0.0
C107 C 0.2463 0.14669 0.31259 0.0
O108 O 0.28565 0.14943 0.32956 0.0
C109 C 0.38666 0.12175 0.27359 0.0
O110 O 0.39112 0.08578 0.24855 0.0
O111 O 0.35333 0.14642 0.26868 0.0
O112 O 0.31236 0.06123 0.19843 0.0
O113 O 0.28738 0.17739 0.17618 0.0
C114 C 0.31294 0.21038 0.17166 0.0
O115 O 0.35001 0.21083 0.19368 0.0
O116 O 0.24156 0.13361 0.27185 0.0
Mg117 Mg 0.39398 0.44038 0.06841 0.0
C118 C 0.29901 0.43266 0.09923 0.0
O119 O 0.29281 0.46266 0.06755 0.0
C120 C 0.37766 0.51907 1.0018 0.0
O121 O 0.35004 0.49207 0.98189 0.0
C122 C 0.37523 0.35993 1.01093 0.0
O123 O 0.35546 0.34697 0.048 0.0
O124 O 0.39692 0.39597 1.01112 0.0
O125 O 0.33758 0.42041 0.10859 0.0
O126 O 0.45268 0.43636 0.10793 0.0
C127 C 0.45426 0.45691 0.14544 0.0
O128 O 0.41836 0.47422 0.16226 0.0
O129 O 0.39613 0.50723 0.0384 0.0
Mg130 Mg 0.71755 0.4005 0.23948 0.0
C131 C 0.66857 0.47182 0.18508 0.0
O132 O 0.65994 0.43778 0.15851 0.0
C133 C 0.77537 0.3937 0.32269 0.0
O134 O 0.73767 0.3954 0.34357 0.0
C135 C 0.62952 0.39035 0.2842 0.0
O136 O 0.61621 0.41057 0.24742 0.0
O137 O 0.66862 0.37676 0.2865 0.0
O138 O 0.69462 0.46645 0.21807 0.0
O139 O 0.73087 0.35261 0.18599 0.0
C140 C 0.70552 0.32003 0.1782 0.0
O141 O 0.66747 0.31867 0.19846 0.0
O142 O 0.77691 0.40001 0.28015 0.0
Mg143 Mg 0.62299 0.09258 0.06799 0.0
C144 C 0.71662 0.1003 0.10205 0.0
O145 O 0.72328 0.06974 0.0709 0.0
C146 C 0.62286 0.02382 0.99163 0.0
O147 O 0.62457 0.0596 0.9661 0.0
C148 C 0.63899 0.17606 1.01307 0.0
O149 O 0.66333 0.18623 0.048 0.0
O150 O 0.61571 0.14105 1.01428 0.0
O151 O 0.67797 0.11347 0.10997 0.0
O152 O 0.56353 0.08454 0.10615 0.0
C153 C 0.5585 0.0452 0.12146 0.0
O154 O 0.5907 1.01639 0.11828 0.0
O155 O 0.6271 0.02764 0.03421 0.0
Mg156 Mg 0.29975 0.91338 0.31937 0.0
C157 C 0.337 0.98386 0.38183 0.0
O158 O 0.35202 0.9479 0.40195 0.0
C159 C 0.2473 0.89032 0.23532 0.0
O160 O 0.28666 0.88445 0.219 0.0
C161 C 0.38841 0.92047 0.27348 0.0
O162 O 0.39236 0.95612 0.29905 0.0
O163 O 0.35512 0.89576 0.27759 0.0
O164 O 0.31162 0.97952 0.34812 0.0
O165 O 0.28996 0.86263 0.37001 0.0
C166 C 0.31547 0.82929 0.37288 0.0
O167 O 0.35171 0.82882 0.3493 0.0
O168 O 0.24271 0.90622 0.27508 0.0
Mg169 Mg 0.12544 0.45339 0.9847 0.0
C170 C 0.21883 0.43922 0.95258 0.0
O171 O 0.22686 0.46643 0.98638 0.0
C172 C 0.13461 0.52604 0.05738 0.0
O173 O 0.14626 0.49227 0.08297 0.0
C174 C 0.13777 0.36912 0.03819 0.0
O175 O 0.15437 0.35531 0.99971 0.0
O176 O 0.12067 0.40769 0.04055 0.0
O177 O 0.17956 0.43073 0.94233 0.0
O178 O 0.06512 0.45396 0.94794 0.0
C179 C 0.06029 0.48492 0.91912 0.0
O180 O 0.0934 0.511 0.90958 0.0
O181 O 0.12847 0.51989 1.01526 0.0
Mg182 Mg 0.71063 0.63652 0.29739 0.0
C183 C 0.67405 0.5639 0.35712 0.0
O184 O 0.66345 0.59898 0.38155 0.0
C185 C 0.76549 0.66585 0.21793 0.0
O186 O 0.72665 0.67557 0.20229 0.0
C187 C 0.61763 0.63904 0.26453 0.0
O188 O 0.60975 0.62388 0.30527 0.0
O189 O 0.65588 0.65136 0.25428 0.0
O190 O 0.69768 0.56912 0.32215 0.0
O191 O 0.71771 0.68507 0.35086 0.0
C192 C 0.69452 0.72025 0.35155 0.0
O193 O 0.66208 0.7243 0.32302 0.0
O194 O 0.76885 0.64553 0.2556 0.0
Mg195 Mg 0.88161 0.09694 0.97938 0.0
C196 C 0.78846 0.09947 0.94646 0.0
O197 O 0.78235 0.0781 0.98464 0.0
C198 C 0.86903 0.99945 1.01537 0.0
O199 O 0.8418 0.99372 0.98173 0.0
C200 C 0.89536 0.15406 0.06237 0.0
O201 O 0.92432 0.12301 0.07157 0.0
O202 O 0.87592 0.15329 0.02464 0.0
O203 O 0.82716 0.10691 0.93327 0.0
O204 O 0.94339 0.0925 0.94463 0.0
C205 C 0.95057 0.05339 0.92944 0.0
O206 O 0.91913 0.02378 0.93031 0.0
O207 O 0.88536 0.03777 1.02248 0.0
Mg208 Mg 0.22066 0.31635 0.14084 0.0
C209 C 0.1504 0.34719 0.08021 0.0
O210 O 0.13713 0.36402 0.11887 0.0
C211 C 0.29558 0.25202 0.15294 0.0
O212 O 0.31753 0.28933 0.15786 0.0
C213 C 0.26194 0.40607 0.11564 0.0
O214 O 0.22305 0.41373 0.09905 0.0
O215 O 0.26879 0.37043 0.13809 0.0
O216 O 0.1833 0.32153 0.0797 0.0
O217 O 0.17855 0.31119 0.20008 0.0
C218 C 0.19683 0.31213 0.23848 0.0
O219 O 0.23827 0.32266 0.24082 0.0
O220 O 0.25557 0.25365 0.14224 0.0
Mg221 Mg 0.22407 0.72358 0.40615 0.0
C222 C 0.15536 0.69349 0.46943 0.0
O223 O 0.14044 0.67719 0.43128 0.0
C224 C 0.29861 0.78752 0.39164 0.0
O225 O 0.32024 0.7501 0.38529 0.0
C226 C 0.26424 0.6326 0.42871 0.0
O227 O 0.22459 0.62472 0.44316 0.0
O228 O 0.27215 0.66903 0.40802 0.0
O229 O 0.18859 0.71854 0.46867 0.0
O230 O 0.18004 0.72956 0.34845 0.0
C231 C 0.19664 0.72822 0.30917 0.0
O232 O 0.23775 0.71673 0.3048 0.0
O233 O 0.259 0.78606 0.40397 0.0
Mg234 Mg 0.94694 0.56582 0.88987 0.0
C235 C 0.97884 0.63318 0.95849 0.0
O236 O 1.0032 0.64506 0.92407 0.0
C237 C 0.86654 0.51048 0.86212 0.0
O238 O 0.85921 0.54464 0.83539 0.0
C239 C 0.01632 0.49837 0.90597 0.0
O240 O 0.98261 0.47728 0.92296 0.0
O241 O 0.0107 0.53575 0.88659 0.0
O242 O 0.94961 0.6035 0.95286 0.0
O243 O 0.93687 0.60633 0.83086 0.0
C244 C 0.90934 0.63793 0.83235 0.0
O245 O 0.89245 0.64937 0.87149 0.0
O246 O 0.89881 0.51151 0.88914 0.0
Mg247 Mg 0.78579 0.81882 0.40113 0.0
C248 C 0.85487 0.84305 0.46562 0.0
O249 O 0.87113 0.85844 0.42766 0.0
C250 C 0.71133 0.75999 0.3745 0.0
O251 O 0.6936 0.79912 0.36628 0.0
C252 C 0.74791 0.90991 0.42685 0.0
O253 O 0.78709 0.91573 0.44345 0.0
O254 O 0.73977 0.87481 0.40401 0.0
O255 O 0.8201 0.82027 0.46445 0.0
O256 O 0.83154 0.81535 0.34494 0.0
C257 C 0.81695 0.82141 0.30538 0.0
O258 O 0.77679 0.83576 0.30036 0.0
O259 O 0.74861 0.75813 0.39296 0.0
Mg260 Mg 0.56817 0.46812 0.38841 0.0
C261 C 0.53285 0.40234 0.4557 0.0
O262 O 0.50676 0.39416 0.42161 0.0
C263 C 0.65018 0.52177 0.3634 0.0
O264 O 0.65669 0.48851 0.3352 0.0
C265 C 0.50094 0.53914 0.40519 0.0
O266 O 0.5355 0.55999 0.42047 0.0
O267 O 0.50522 0.50087 0.38696 0.0
O268 O 0.56473 0.42894 0.45013 0.0
O269 O 0.57817 0.42971 0.3274 0.0
C270 C 0.60629 0.39856 0.32667 0.0
O271 O 0.62383 0.3854 0.36484 0.0
O272 O 0.61781 0.52064 0.39034 0.0
Mg273 Mg 0.29492 0.71747 0.64658 0.0
C274 C 0.36491 0.69674 0.58038 0.0
O275 O 0.38212 0.68025 0.61738 0.0
C276 C 0.2177 0.77162 0.67521 0.0
O277 O 0.20351 0.73146 0.68526 0.0
C278 C 0.25963 0.62666 0.61642 0.0
O279 O 0.2986 0.62301 0.59854 0.0
O280 O 0.25097 0.65994 0.64181 0.0
O281 O 0.32965 0.71882 0.58317 0.0
O282 O 0.33953 0.72319 0.7037 0.0
C283 C 0.32487 0.71594 0.74311 0.0
O284 O 0.28578 0.69874 0.74758 0.0
O285 O 0.25406 0.77586 0.65511 0.0
Mg286 Mg 0.95028 0.47436 0.65599 0.0
C287 C 0.98254 0.40754 0.58708 0.0
O288 O 0.00658 0.3953 0.62156 0.0
C289 C 0.86934 0.52977 0.68211 0.0
O290 O 0.86144 0.4955 0.70849 0.0
C291 C 0.02041 0.54169 0.64273 0.0
O292 O 0.98704 0.56407 0.62665 0.0
O293 O 0.01425 0.5036 0.66045 0.0
O294 O 0.95329 0.43732 0.59276 0.0
O295 O 0.9384 0.43342 0.71434 0.0
C296 C 0.91018 0.4027 0.71171 0.0
O297 O 0.89401 0.39241 0.672 0.0
O298 O 0.90233 0.5289 0.65594 0.0
Mg299 Mg 0.06305 0.06191 0.65663 0.0
C300 C 0.03354 0.13142 0.59039 0.0
O301 O 0.00668 0.1402 0.62382 0.0
C302 C 0.14614 1.00861 0.67655 0.0
O303 O 0.15655 0.04466 0.6994 0.0
C304 C 0.99317 0.99427 0.63938 0.0
O305 O 0.02697 0.97097 0.62556 0.0
O306 O 0.99889 0.03274 0.6565 0.0
O307 O 0.06381 0.10288 0.59624 0.0
O308 O 0.07273 0.09717 0.71916 0.0
C309 C 0.09947 0.12931 0.72058 0.0
O310 O 0.11557 0.14487 0.68262 0.0
O311 O 0.11077 1.00776 0.65421 0.0
Mg312 Mg 0.6167 0.73714 0.82778 0.0
C313 C 0.54768 0.67095 0.85442 0.0
O314 O 0.58268 0.64793 0.865 0.0
C315 C 0.66311 0.80548 0.77509 0.0
O316 O 0.68254 0.80639 0.81454 0.0
C317 C 0.60548 0.76812 0.92524 0.0
O318 O 0.59212 0.72682 0.93067 0.0
O319 O 0.62175 0.77976 0.88752 0.0
O320 O 0.55195 0.7079 0.83355 0.0
O321 O 0.66558 0.68549 0.81758 0.0
C322 C 0.69765 0.678 0.84341 0.0
O323 O 0.70018 0.69905 0.88226 0.0
O324 O 0.62978 0.78063 0.77011 0.0
Mg325 Mg 0.95309 0.14877 0.47277 0.0
C326 C 0.91387 0.242 0.46341 0.0
O327 O 0.94035 0.25081 0.49702 0.0
C328 C 0.02112 0.14348 0.54411 0.0
O329 O 0.04143 0.12418 0.51022 0.0
C330 C 0.0097 0.1666 0.38916 0.0
O331 O 0.97973 0.19703 0.38148 0.0
O332 O 0.00536 0.14027 0.42269 0.0
O333 O 0.91051 0.20201 0.44927 0.0
O334 O 0.9176 0.0883 0.49104 0.0
C335 C 0.89537 0.0616 0.46704 0.0
O336 O 0.89143 0.06862 0.42349 0.0
O337 O 0.98451 0.16226 0.53709 0.0
Mg338 Mg 0.38878 0.80575 0.83794 0.0
C339 C 0.45761 0.8726 0.86662 0.0
O340 O 0.423 0.89378 0.88174 0.0
C341 C 0.34637 0.7354 0.78296 0.0
O342 O 0.32763 0.73098 0.82258 0.0
C343 C 0.40561 0.7695 0.9329 0.0
O344 O 0.42034 0.81009 0.93978 0.0
O345 O 0.38653 0.76044 0.89588 0.0
O346 O 0.45269 0.83731 0.843 0.0
O347 O 0.3371 0.85507 0.83032 0.0
C348 C 0.29979 0.8483 0.84742 0.0
O349 O 0.29473 0.81523 0.87606 0.0
O350 O 0.3774 0.76336 0.77873 0.0
Mg351 Mg 0.06609 0.38821 0.4714 0.0
C352 C 0.10686 0.29527 0.46021 0.0
O353 O 0.08145 0.28571 0.49457 0.0
C354 C 0.99693 0.3967 0.54096 0.0
O355 O 0.97992 0.41895 0.5071 0.0
C356 C 0.01007 0.36963 0.38823 0.0
O357 O 0.03935 0.33817 0.38187 0.0
O358 O 0.01483 0.39721 0.4207 0.0
O359 O 0.10921 0.33546 0.44657 0.0
O360 O 0.10059 0.4486 0.4918 0.0
C361 C 0.12721 0.47359 0.47091 0.0
O362 O 0.13739 0.46497 0.42871 0.0
O363 O 0.03215 0.37491 0.53466 0.0
Mg364 Mg 0.61583 0.30426 0.71245 0.0
C365 C 0.54418 0.36537 0.67986 0.0
O366 O 0.57814 0.38822 0.66601 0.0
C367 C 0.66111 0.23486 0.76527 0.0
O368 O 0.68035 0.23316 0.72568 0.0
C369 C 0.60887 0.27174 0.61464 0.0
O370 O 0.59741 0.31331 0.60685 0.0
O371 O 0.6229 0.26095 0.65352 0.0
O372 O 0.55007 0.33113 0.7047 0.0
O373 O 0.66382 0.35655 0.72318 0.0
C374 C 0.69695 0.36244 0.69827 0.0
O375 O 0.70045 0.33994 0.66032 0.0
O376 O 0.62845 0.2608 0.77041 0.0
Mg377 Mg 0.55004 0.1452 0.57261 0.0
C378 C 0.59333 0.2363 0.58428 0.0
O379 O 0.56843 0.24685 0.54989 0.0
C380 C 0.48554 0.14572 0.49268 0.0
O381 O 0.48992 0.10209 0.49436 0.0
C382 C 0.50111 0.16116 0.66052 0.0
O383 O 0.53179 0.19124 0.66548 0.0
O384 O 0.50307 0.13408 0.62725 0.0
O385 O 0.59463 0.19598 0.59773 0.0
O386 O 0.58465 0.08607 0.54841 0.0
C387 C 0.60327 0.05774 0.5739 0.0
O388 O 0.60185 0.06316 0.61788 0.0
O389 O 0.50782 0.17042 0.51907 0.0
Mg390 Mg 0.38774 0.22991 0.71491 0.0
C391 C 0.45961 0.16729 0.68476 0.0
O392 O 0.42581 0.14306 0.67313 0.0
C393 C 0.34034 0.29832 0.76704 0.0
O394 O 0.31951 0.29658 0.7284 0.0
C395 C 0.39618 0.26035 0.61675 0.0
O396 O 0.4108 0.21948 0.61087 0.0
O397 O 0.3797 0.27131 0.65465 0.0
O398 O 0.45356 0.20305 0.70743 0.0
O399 O 0.34092 0.17729 0.72895 0.0
C400 C 0.30765 0.16867 0.70524 0.0
O401 O 0.30273 0.18855 0.66606 0.0
O402 O 0.37489 0.27505 0.77172 0.0
Mg403 Mg 0.44822 0.38887 0.57181 0.0
C404 C 0.41066 0.29574 0.58571 0.0
O405 O 0.43851 0.28586 0.55348 0.0
C406 C 0.51842 0.39179 0.50183 0.0
O407 O 0.53834 0.41083 0.53598 0.0
C408 C 0.50208 0.37145 0.65693 0.0
O409 O 0.47011 0.34368 0.66558 0.0
O410 O 0.49982 0.39667 0.62234 0.0
O411 O 0.40528 0.33643 0.59694 0.0
O412 O 0.41399 0.4501 0.55253 0.0
C413 C 0.39983 0.48131 0.5777 0.0
O414 O 0.4036 0.47791 0.62171 0.0
O415 O 0.48111 0.37429 0.50814 0.0
Mg416 Mg 0.79841 0.64162 0.74558 0.0
C417 C 0.84505 0.57179 0.68868 0.0
O418 O 0.85665 0.60771 0.66624 0.0
C419 C 0.73635 0.65567 0.8246 0.0
O420 O 0.77288 0.65645 0.84752 0.0
C421 C 0.88592 0.64871 0.79086 0.0
O422 O 0.89932 0.63135 0.75254 0.0
O423 O 0.84668 0.66142 0.79458 0.0
O424 O 0.81831 0.5755 0.72142 0.0
O425 O 0.79022 0.6902 0.69225 0.0
C426 C 0.81123 0.72668 0.69266 0.0
O427 O 0.84255 0.73233 0.72223 0.0
O428 O 0.73707 0.64539 0.78281 0.0
Mg429 Mg 0.88453 0.94796 0.5614 0.0
C430 C 0.79048 0.93865 0.59276 0.0
O431 O 0.78373 0.96568 0.55857 0.0
C432 C 0.88032 0.01947 0.48735 0.0
O433 O 0.87095 0.98528 0.46131 0.0
C434 C 0.86736 0.8641 0.5082 0.0
O435 O 0.84751 0.85262 0.54572 0.0
O436 O 0.8882 0.90064 0.50658 0.0
O437 O 0.82933 0.9287 0.60357 0.0
O438 O 0.94446 0.94825 0.59892 0.0
C439 C 0.94934 0.98108 0.62562 0.0
O440 O 0.91657 1.0086 0.6325 0.0
O441 O 0.88339 1.01397 0.5299 0.0
Mg442 Mg 0.20716 0.89777 0.74686 0.0
C443 C 0.16947 0.96652 0.68498 0.0
O444 O 0.15582 0.92961 0.66558 0.0
C445 C 0.26113 0.86888 0.82674 0.0
O446 O 0.22244 0.85588 0.84019 0.0
C447 C 0.11736 0.90588 0.78972 0.0
O448 O 0.11134 0.93566 0.75787 0.0
O449 O 0.15198 0.88258 0.78988 0.0
O450 O 0.19523 0.96376 0.71848 0.0
O451 O 0.21757 0.84788 0.69521 0.0
C452 C 0.19808 0.81059 0.69734 0.0
O453 O 0.1673 0.80481 0.72759 0.0
O454 O 0.26462 0.89093 0.79008 0.0
Mg455 Mg 0.13037 0.58764 0.56573 0.0
C456 C 0.22397 0.59922 0.59821 0.0
O457 O 0.23182 0.57147 0.56475 0.0
C458 C 0.14109 0.51549 0.49262 0.0
O459 O 0.15452 0.54905 0.46774 0.0
C460 C 0.1438 0.6717 0.51189 0.0
O461 O 0.16209 0.68485 0.54968 0.0
O462 O 0.12552 0.63377 0.51016 0.0
O463 O 0.18477 0.60902 0.60796 0.0
O464 O 0.06998 0.58692 0.60269 0.0
C465 C 0.06462 0.55489 0.63018 0.0
O466 O 0.09733 0.52778 0.63858 0.0
O467 O 0.13329 0.52155 0.53447 0.0
Mg468 Mg 0.79702 0.39881 0.79664 0.0
C469 C 0.84267 0.46836 0.85504 0.0
O470 O 0.85432 0.43236 0.87736 0.0
C471 C 0.73551 0.38446 0.71747 0.0
O472 O 0.77236 0.38299 0.69501 0.0
C473 C 0.8854 0.39198 0.75242 0.0
O474 O 0.89831 0.40799 0.79145 0.0
O475 O 0.84601 0.38045 0.74756 0.0
O476 O 0.81632 0.46473 0.82205 0.0
O477 O 0.78946 0.3487 0.8487 0.0
C478 C 0.80959 0.31167 0.84585 0.0
O479 O 0.83968 0.30642 0.81472 0.0
O480 O 0.73577 0.39516 0.75917 0.0
Mg481 Mg 0.6185 0.94725 0.47789 0.0
C482 C 0.71173 0.93744 0.44412 0.0
O483 O 0.71899 0.96641 0.47659 0.0
C484 C 0.61899 1.0154 0.55451 0.0
O485 O 0.6199 0.97941 0.57979 0.0
C486 C 0.63546 0.86278 0.53057 0.0
O487 O 0.658 0.85269 0.49422 0.0
O488 O 0.61246 0.89812 0.53106 0.0
O489 O 0.67277 0.92649 0.43502 0.0
O490 O 0.55885 0.95603 0.44059 0.0
C491 C 0.55437 0.99544 0.42525 0.0
O492 O 0.58701 0.02357 0.42809 0.0
O493 O 0.62344 1.0118 0.51194 0.0
Mg494 Mg 0.21095 0.13572 0.80856 0.0
C495 C 0.16911 0.06896 0.87258 0.0
O496 O 0.15661 0.10605 0.89262 0.0
C497 C 0.27025 0.14659 0.72678 0.0
O498 O 0.23297 0.14517 0.70524 0.0
C499 C 0.12298 0.13685 0.76277 0.0
O500 O 0.1112 0.11509 0.79925 0.0
O501 O 0.16106 0.15284 0.76026 0.0
O502 O 0.1941 0.07114 0.83825 0.0
O503 O 0.21885 0.1874 0.85867 0.0
C504 C 0.19651 0.22312 0.8573 0.0
O505 O 0.16413 0.22641 0.8286 0.0
O506 O 0.27116 0.13877 0.7691 0.0
Mg507 Mg 0.39316 0.59382 0.48162 0.0
C508 C 0.3004 0.60498 0.44587 0.0
O509 O 0.29241 0.57379 0.47591 0.0
C510 C 0.38734 0.52427 0.55706 0.0
O511 O 0.38455 0.56011 0.58253 0.0
C512 C 0.37689 0.67728 0.53672 0.0
O513 O 0.35518 0.68895 0.50043 0.0
O514 O 0.3989 0.64129 0.53648 0.0
O515 O 0.33951 0.61702 0.43901 0.0
O516 O 0.45365 0.5881 0.4447 0.0
C517 C 0.45747 0.55478 0.41831 0.0
O518 O 0.42352 0.52917 0.41089 0.0
O519 O 0.38706 0.5283 0.51418 0.0
Mg520 Mg 0.7171 0.82172 0.63995 0.0
C521 C 0.64746 0.84265 0.57381 0.0
O522 O 0.6297 0.85811 0.61109 0.0
C523 C 0.79294 0.76561 0.66936 0.0
O524 O 0.80882 0.80548 0.67778 0.0
C525 C 0.75418 0.91177 0.61046 0.0
O526 O 0.71552 0.91592 0.59211 0.0
O527 O 0.76209 0.87833 0.63576 0.0
O528 O 0.68304 0.82109 0.57623 0.0
O529 O 0.67127 0.81851 0.69623 0.0
C530 C 0.68599 0.82433 0.73581 0.0
O531 O 0.72609 0.83871 0.74074 0.0
O532 O 0.75621 0.76218 0.6499 0.0
Mg533 Mg 0.71605 0.21642 0.89938 0.0
C534 C 0.64883 0.19579 0.96901 0.0
O535 O 0.6294 0.18003 0.93287 0.0
C536 C 0.79146 0.27226 0.86839 0.0
O537 O 0.80658 0.23243 0.85805 0.0
C538 C 0.75222 0.12547 0.92717 0.0
O539 O 0.71344 0.1219 0.94547 0.0
O540 O 0.76046 0.15885 0.90191 0.0
O541 O 0.68413 0.21732 0.96448 0.0
O542 O 0.66931 0.22129 0.84414 0.0
C543 C 0.68366 0.21521 0.80438 0.0
O544 O 0.72333 0.19954 0.79903 0.0
O545 O 0.75544 0.27564 0.88937 0.0
Mg546 Mg 0.44079 0.08123 0.40066 0.0
C547 C 0.45003 0.16605 0.46642 0.0
O548 O 0.43724 0.20674 0.47679 0.0
C549 C 0.35821 0.02721 0.38988 0.0
O550 O 0.34799 0.06135 0.36417 0.0
C551 C 0.51151 1.01218 0.4122 0.0
O552 O 0.47874 0.98453 0.40699 0.0
O553 O 0.50503 0.05415 0.41111 0.0
O554 O 0.43009 0.14532 0.435 0.0
O555 O 0.43272 0.09187 0.32905 0.0
C556 C 0.41146 0.12569 0.3155 0.0
O557 O 0.40106 0.15722 0.3445 0.0
O558 O 0.39282 0.02878 0.41349 0.0
Mg559 Mg 0.29042 0.32123 0.90318 0.0
C560 C 0.36165 0.3416 0.96742 0.0
O561 O 0.37787 0.35845 0.93009 0.0
C562 C 0.21431 0.26351 0.87816 0.0
O563 O 0.19732 0.30265 0.86841 0.0
C564 C 0.25421 0.41113 0.93432 0.0
O565 O 0.29317 0.41417 0.95213 0.0
O566 O 0.24544 0.37815 0.90865 0.0
O567 O 0.32624 0.31994 0.96563 0.0
O568 O 0.33459 0.31609 0.84543 0.0
C569 C 0.31809 0.31849 0.80623 0.0
O570 O 0.2772 0.33084 0.8022 0.0
O571 O 0.25164 0.26155 0.89648 0.0
Mg572 Mg 0.06798 0.97102 0.90836 0.0
C573 C 0.06473 0.89378 0.98389 0.0
O574 O 0.08252 0.85702 0.99971 0.0
C575 C 0.14713 0.02661 0.88333 0.0
O576 O 0.15579 0.99087 0.8591 0.0
C577 C 0.99475 0.03858 0.91861 0.0
O578 O 0.02653 0.06763 0.91477 0.0
O579 O 1.00293 0.99688 0.91761 0.0
O580 O 0.08416 0.91434 0.95204 0.0
O581 O 0.07366 0.94693 0.83979 0.0
C582 C 0.09325 0.91026 0.83205 0.0
O583 O 0.10337 0.88407 0.86598 0.0
O584 O 0.11447 0.02644 0.90997 0.0
Mg585 Mg 0.79726 0.21316 0.14839 0.0
C586 C 0.8763 0.1805 0.09914 0.0
O587 O 0.88852 0.1726 0.14084 0.0
C588 C 0.7234 0.27914 0.15773 0.0
O589 O 0.70114 0.24184 0.16077 0.0
C590 C 0.75383 0.12585 0.11987 0.0
O591 O 0.79295 0.11778 0.10385 0.0
O592 O 0.74733 0.1609 0.14347 0.0
O593 O 0.84088 0.20148 0.09208 0.0
O594 O 0.83586 0.21874 0.20981 0.0
C595 C 0.81565 0.22573 0.24654 0.0
O596 O 0.77302 0.22223 0.24715 0.0
O597 O 0.76372 0.27737 0.14778 0.0
Mg598 Mg 0.44403 0.96098 0.14716 0.0
C599 C 0.45365 0.87531 0.08229 0.0
O600 O 0.44099 0.8345 0.07255 0.0
C601 C 0.36063 1.01438 0.15721 0.0
O602 O 0.35033 0.97987 0.18234 0.0
C603 C 0.51542 0.02932 0.13487 0.0
O604 O 0.48295 0.05755 0.13987 0.0
O605 O 0.50847 0.98747 0.1364 0.0
O606 O 0.43363 0.89653 0.11346 0.0
O607 O 0.43531 0.95066 0.21881 0.0
C608 C 0.41408 0.91675 0.23202 0.0
O609 O 0.40453 0.88518 0.20285 0.0
O610 O 0.39576 1.01336 0.13421 0.0
Mg611 Mg 0.54961 0.55357 0.17476 0.0
C612 C 0.52746 0.62193 0.09331 0.0
O613 O 0.56766 0.63636 0.08974 0.0
C614 C 0.6396 0.51117 0.18495 0.0
O615 O 0.64138 0.5393 0.21894 0.0
C616 C 0.49653 0.47364 0.16065 0.0
O617 O 0.53104 0.4648 0.13593 0.0
O618 O 0.49747 0.50692 0.18734 0.0
O619 O 0.51765 0.59205 0.12199 0.0
O620 O 0.5636 0.59355 0.23339 0.0
C621 C 0.5886 0.62674 0.2276 0.0
O622 O 0.59881 0.63862 0.18626 0.0
O623 O 0.60699 0.51244 0.15839 0.0
loop_
_geom_bond_atom_site_label_1
_geom_bond_atom_site_label_2
_geom_bond_distance
_geom_bond_site_symmetry_2
_ccdc_geom_bond_type
Mg0 O7 2.141 . S
Mg0 O8 2.048 . S
Mg0 O9 2.048 . S
Mg0 O12 2.141 . S
C1 O2 1.313 . S
C1 O8 1.195 . S
O2 C1 1.313 . S
C3 O4 1.245 . S
C3 O12 1.289 . S
O4 C3 1.245 . S
C5 O6 1.245 . S
C5 O7 1.289 . S
O6 C5 1.245 . S
O7 Mg0 2.141 . S
O7 C5 1.289 . S
O8 Mg0 2.048 . S
O8 C1 1.195 . S
O9 Mg0 2.048 . S
O9 C10 1.195 . S
C10 O9 1.195 . S
C10 O11 1.313 . S
O11 C10 1.313 . S
O12 Mg0 2.141 . S
O12 C3 1.289 . S
Mg13 O20 2.141 . S
Mg13 O21 2.048 . S
Mg13 O22 2.048 . S
Mg13 O25 2.141 . S
C14 O15 1.313 . S
C14 O21 1.195 . S
O15 C14 1.313 . S
C16 O17 1.245 . S
C16 O25 1.289 . S
O17 C16 1.245 . S
C18 O19 1.245 . S
C18 O20 1.289 . S
O19 C18 1.245 . S
O20 Mg13 2.141 . S
O20 C18 1.289 . S
O21 Mg13 2.048 . S
O21 C14 1.195 . S
O22 Mg13 2.048 . S
O22 C23 1.195 . S
C23 O22 1.195 . S
C23 O24 1.313 . S
O24 C23 1.313 . S
O25 Mg13 2.141 . S
O25 C16 1.289 . S
Mg26 O33 2.141 . S
Mg26 O34 2.048 . S
Mg26 O35 2.048 . S
Mg26 O38 2.141 . S
C27 O28 1.313 . S
C27 O34 1.195 . S
O28 C27 1.313 . S
C29 O30 1.245 . S
C29 O38 1.289 . S
O30 C29 1.245 . S
C31 O32 1.245 . S
C31 O33 1.289 . S
O32 C31 1.245 . S
O33 Mg26 2.141 . S
O33 C31 1.289 . S
O34 Mg26 2.048 . S
O34 C27 1.195 . S
O35 Mg26 2.048 . S
O35 C36 1.195 . S
C36 O35 1.195 . S
C36 O37 1.313 . S
O37 C36 1.313 . S
O38 Mg26 2.141 . S
O38 C29 1.289 . S
Mg39 O46 2.141 . S
Mg39 O47 2.048 . S
Mg39 O48 2.048 . S
Mg39 O51 2.141 . S
C40 O41 1.313 . S
C40 O47 1.195 . S
O41 C40 1.313 . S
C42 O43 1.245 . S
C42 O51 1.289 . S
O43 C42 1.245 . S
C44 O45 1.245 . S
C44 O46 1.289 . S
O45 C44 1.245 . S
O46 Mg39 2.141 . S
O46 C44 1.289 . S
O47 Mg39 2.048 . S
O47 C40 1.195 . S
O48 Mg39 2.048 . S
O48 C49 1.195 . S
C49 O48 1.195 . S
C49 O50 1.313 . S
O50 C49 1.313 . S
O51 Mg39 2.141 . S
O51 C42 1.289 . S
Mg52 O59 2.141 . S
Mg52 O60 2.048 . S
Mg52 O61 2.048 . S
Mg52 O64 2.141 . S
C53 O54 1.313 . S
C53 O60 1.195 . S
O54 C53 1.313 . S
C55 O56 1.245 . S
C55 O64 1.289 . S
O56 C55 1.245 . S
C57 O58 1.245 . S
C57 O59 1.289 . S
O58 C57 1.245 . S
O59 Mg52 2.141 . S
O59 C57 1.289 . S
O60 Mg52 2.048 . S
O60 C53 1.195 . S
O61 Mg52 2.048 . S
O61 C62 1.195 . S
C62 O61 1.195 . S
C62 O63 1.313 . S
O63 C62 1.313 . S
O64 Mg52 2.141 . S
O64 C55 1.289 . S
Mg65 O72 2.141 . S
Mg65 O73 2.048 1_655 S
Mg65 O74 2.048 1_655 S
Mg65 O77 2.141 . S
C66 O67 1.313 . S
C66 O73 1.195 . S
O67 C66 1.313 . S
C68 O69 1.245 . S
C68 O77 1.289 . S
O69 C68 1.245 . S
C70 O71 1.245 . S
C70 O72 1.289 . S
O71 C70 1.245 . S
O72 Mg65 2.141 . S
O72 C70 1.289 . S
O73 Mg65 2.048 1_455 S
O73 C66 1.195 . S
O74 Mg65 2.048 1_455 S
O74 C75 1.195 . S
C75 O74 1.195 . S
C75 O76 1.313 . S
O76 C75 1.313 . S
O77 Mg65 2.141 . S
O77 C68 1.289 . S
Mg78 O85 2.141 . S
Mg78 O86 2.048 . S
Mg78 O87 2.048 . S
Mg78 O90 2.141 . S
C79 O80 1.313 . S
C79 O86 1.195 . S
O80 C79 1.313 . S
C81 O82 1.245 . S
C81 O90 1.289 . S
O82 C81 1.245 . S
C83 O84 1.245 . S
C83 O85 1.289 . S
O84 C83 1.245 . S
O85 Mg78 2.141 . S
O85 C83 1.289 . S
O86 Mg78 2.048 . S
O86 C79 1.195 . S
O87 Mg78 2.048 . S
O87 C88 1.195 . S
C88 O87 1.195 . S
C88 O89 1.313 . S
O89 C88 1.313 . S
O90 Mg78 2.141 . S
O90 C81 1.289 . S
Mg91 O98 2.141 . S
Mg91 O99 2.048 1_455 S
Mg91 O100 2.048 1_455 S
Mg91 O103 2.141 . S
C92 O93 1.313 . S
C92 O99 1.195 . S
O93 C92 1.313 . S
C94 O95 1.245 . S
C94 O103 1.289 . S
O95 C94 1.245 . S
C96 O97 1.245 . S
C96 O98 1.289 . S
O97 C96 1.245 . S
O98 Mg91 2.141 . S
O98 C96 1.289 . S
O99 Mg91 2.048 1_655 S
O99 C92 1.195 . S
O100 Mg91 2.048 1_655 S
O100 C101 1.195 . S
C101 O100 1.195 . S
C101 O102 1.313 . S
O102 C101 1.313 . S
O103 Mg91 2.141 . S
O103 C94 1.289 . S
Mg104 O111 2.141 . S
Mg104 O112 2.048 . S
Mg104 O113 2.048 . S
Mg104 O116 2.141 . S
C105 O106 1.313 . S
C105 O112 1.195 . S
O106 C105 1.313 . S
C107 O108 1.245 . S
C107 O116 1.289 . S
O108 C107 1.245 . S
C109 O110 1.245 . S
C109 O111 1.289 . S
O110 C109 1.245 . S
O111 Mg104 2.141 . S
O111 C109 1.289 . S
O112 Mg104 2.048 . S
O112 C105 1.195 . S
O113 Mg104 2.048 . S
O113 C114 1.195 . S
C114 O113 1.195 . S
C114 O115 1.313 . S
O115 C114 1.313 . S
O116 Mg104 2.141 . S
O116 C107 1.289 . S
Mg117 O124 2.141 . S
Mg117 O125 2.048 1_556 S
Mg117 O126 2.048 1_556 S
Mg117 O129 2.141 . S
C118 O119 1.313 . S
C118 O125 1.195 . S
O119 C118 1.313 . S
C120 O121 1.245 . S
C120 O129 1.289 . S
O121 C120 1.245 . S
C122 O123 1.245 . S
C122 O124 1.289 . S
O123 C122 1.245 . S
O124 Mg117 2.141 . S
O124 C122 1.289 . S
O125 Mg117 2.048 1_554 S
O125 C118 1.195 . S
O126 Mg117 2.048 1_554 S
O126 C127 1.195 . S
C127 O126 1.195 . S
C127 O128 1.313 . S
O128 C127 1.313 . S
O129 Mg117 2.141 . S
O129 C120 1.289 . S
Mg130 O137 2.141 . S
Mg130 O138 2.048 . S
Mg130 O139 2.048 . S
Mg130 O142 2.141 . S
C131 O132 1.313 . S
C131 O138 1.195 . S
O132 C131 1.313 . S
C133 O134 1.245 . S
C133 O142 1.289 . S
O134 C133 1.245 . S
C135 O136 1.245 . S
C135 O137 1.289 . S
O136 C135 1.245 . S
O137 Mg130 2.141 . S
O137 C135 1.289 . S
O138 Mg130 2.048 . S
O138 C131 1.195 . S
O139 Mg130 2.048 . S
O139 C140 1.195 . S
C140 O139 1.195 . S
C140 O141 1.313 . S
O141 C140 1.313 . S
O142 Mg130 2.141 . S
O142 C133 1.289 . S
Mg143 O150 2.141 . S
Mg143 O151 2.048 1_556 S
Mg143 O152 2.048 1_556 S
Mg143 O155 2.141 . S
C144 O145 1.313 . S
C144 O151 1.195 . S
O145 C144 1.313 . S
C146 O147 1.245 . S
C146 O155 1.289 . S
O147 C146 1.245 . S
C148 O149 1.245 . S
C148 O150 1.289 . S
O149 C148 1.245 . S
O150 Mg143 2.141 . S
O150 C148 1.289 . S
O151 Mg143 2.048 1_554 S
O151 C144 1.195 . S
O152 Mg143 2.048 1_554 S
O152 C153 1.195 . S
C153 O152 1.195 . S
C153 O154 1.313 . S
O154 C153 1.313 . S
O155 Mg143 2.141 . S
O155 C146 1.289 . S
Mg156 O163 2.141 . S
Mg156 O164 2.048 . S
Mg156 O165 2.048 . S
Mg156 O168 2.141 . S
C157 O158 1.313 . S
C157 O164 1.195 . S
O158 C157 1.313 . S
C159 O160 1.245 . S
C159 O168 1.289 . S
O160 C159 1.245 . S
C161 O162 1.245 . S
C161 O163 1.289 . S
O162 C161 1.245 . S
O163 Mg156 2.141 . S
O163 C161 1.289 . S
O164 Mg156 2.048 . S
O164 C157 1.195 . S
O165 Mg156 2.048 . S
O165 C166 1.195 . S
C166 O165 1.195 . S
C166 O167 1.313 . S
O167 C166 1.313 . S
O168 Mg156 2.141 . S
O168 C159 1.289 . S
Mg169 O176 2.141 . S
Mg169 O177 2.048 1_554 S
Mg169 O178 2.048 1_554 S
Mg169 O181 2.141 . S
C170 O171 1.313 . S
C170 O177 1.195 . S
O171 C170 1.313 . S
C172 O173 1.245 . S
C172 O181 1.289 . S
O173 C172 1.245 . S
C174 O175 1.245 . S
C174 O176 1.289 . S
O175 C174 1.245 . S
O176 Mg169 2.141 . S
O176 C174 1.289 . S
O177 Mg169 2.048 1_556 S
O177 C170 1.195 . S
O178 Mg169 2.048 1_556 S
O178 C179 1.195 . S
C179 O178 1.195 . S
C179 O180 1.313 . S
O180 C179 1.313 . S
O181 Mg169 2.141 . S
O181 C172 1.289 . S
Mg182 O189 2.141 . S
Mg182 O190 2.048 . S
Mg182 O191 2.048 . S
Mg182 O194 2.141 . S
C183 O184 1.313 . S
C183 O190 1.195 . S
O184 C183 1.313 . S
C185 O186 1.245 . S
C185 O194 1.289 . S
O186 C185 1.245 . S
C187 O188 1.245 . S
C187 O189 1.289 . S
O188 C187 1.245 . S
O189 Mg182 2.141 . S
O189 C187 1.289 . S
O190 Mg182 2.048 . S
O190 C183 1.195 . S
O191 Mg182 2.048 . S
O191 C192 1.195 . S
C192 O191 1.195 . S
C192 O193 1.313 . S
O193 C192 1.313 . S
O194 Mg182 2.141 . S
O194 C185 1.289 . S
Mg195 O202 2.141 . S
Mg195 O203 2.048 1_554 S
Mg195 O204 2.048 1_554 S
Mg195 O207 2.141 . S
C196 O197 1.313 . S
C196 O203 1.195 . S
O197 C196 1.313 . S
C198 O199 1.245 . S
C198 O207 1.289 . S
O199 C198 1.245 . S
C200 O201 1.245 . S
C200 O202 1.289 . S
O201 C200 1.245 . S
O202 Mg195 2.141 . S
O202 C200 1.289 . S
O203 Mg195 2.048 1_556 S
O203 C196 1.195 . S
O204 Mg195 2.048 1_556 S
O204 C205 1.195 . S
C205 O204 1.195 . S
C205 O206 1.313 . S
O206 C205 1.313 . S
O207 Mg195 2.141 . S
O207 C198 1.289 . S
Mg208 O215 2.141 . S
Mg208 O216 2.048 . S
Mg208 O217 2.048 . S
Mg208 O220 2.141 . S
C209 O210 1.313 . S
C209 O216 1.195 . S
O210 C209 1.313 . S
C211 O212 1.245 . S
C211 O220 1.289 . S
O212 C211 1.245 . S
C213 O214 1.245 . S
C213 O215 1.289 . S
O214 C213 1.245 . S
O215 Mg208 2.141 . S
O215 C213 1.289 . S
O216 Mg208 2.048 . S
O216 C209 1.195 . S
O217 Mg208 2.048 . S
O217 C218 1.195 . S
C218 O217 1.195 . S
C218 O219 1.313 . S
O219 C218 1.313 . S
O220 Mg208 2.141 . S
O220 C211 1.289 . S
Mg221 O228 2.141 . S
Mg221 O229 2.048 . S
Mg221 O230 2.048 . S
Mg221 O233 2.141 . S
C222 O223 1.313 . S
C222 O229 1.195 . S
O223 C222 1.313 . S
C224 O225 1.245 . S
C224 O233 1.289 . S
O225 C224 1.245 . S
C226 O227 1.245 . S
C226 O228 1.289 . S
O227 C226 1.245 . S
O228 Mg221 2.141 . S
O228 C226 1.289 . S
O229 Mg221 2.048 . S
O229 C222 1.195 . S
O230 Mg221 2.048 . S
O230 C231 1.195 . S
C231 O230 1.195 . S
C231 O232 1.313 . S
O232 C231 1.313 . S
O233 Mg221 2.141 . S
O233 C224 1.289 . S
Mg234 O241 2.141 . S
Mg234 O242 2.048 . S
Mg234 O243 2.048 . S
Mg234 O246 2.141 . S
C235 O236 1.313 . S
C235 O242 1.195 . S
O236 C235 1.313 . S
C237 O238 1.245 . S
C237 O246 1.289 . S
O238 C237 1.245 . S
C239 O240 1.245 . S
C239 O241 1.289 . S
O240 C239 1.245 . S
O241 Mg234 2.141 . S
O241 C239 1.289 . S
O242 Mg234 2.048 . S
O242 C235 1.195 . S
O243 Mg234 2.048 . S
O243 C244 1.195 . S
C244 O243 1.195 . S
C244 O245 1.313 . S
O245 C244 1.313 . S
O246 Mg234 2.141 . S
O246 C237 1.289 . S
Mg247 O254 2.141 . S
Mg247 O255 2.048 . S
Mg247 O256 2.048 . S
Mg247 O259 2.141 . S
C248 O249 1.313 . S
C248 O255 1.195 . S
O249 C248 1.313 . S
C250 O251 1.245 . S
C250 O259 1.289 . S
O251 C250 1.245 . S
C252 O253 1.245 . S
C252 O254 1.289 . S
O253 C252 1.245 . S
O254 Mg247 2.141 . S
O254 C252 1.289 . S
O255 Mg247 2.048 . S
O255 C248 1.195 . S
O256 Mg247 2.048 . S
O256 C257 1.195 . S
C257 O256 1.195 . S
C257 O258 1.313 . S
O258 C257 1.313 . S
O259 Mg247 2.141 . S
O259 C250 1.289 . S
Mg260 O267 2.141 . S
Mg260 O268 2.048 . S
Mg260 O269 2.048 . S
Mg260 O272 2.141 . S
C261 O262 1.313 . S
C261 O268 1.195 . S
O262 C261 1.313 . S
C263 O264 1.245 . S
C263 O272 1.289 . S
O264 C263 1.245 . S
C265 O266 1.245 . S
C265 O267 1.289 . S
O266 C265 1.245 . S
O267 Mg260 2.141 . S
O267 C265 1.289 . S
O268 Mg260 2.048 . S
O268 C261 1.195 . S
O269 Mg260 2.048 . S
O269 C270 1.195 . S
C270 O269 1.195 . S
C270 O271 1.313 . S
O271 C270 1.313 . S
O272 Mg260 2.141 . S
O272 C263 1.289 . S
Mg273 O280 2.141 . S
Mg273 O281 2.048 . S
Mg273 O282 2.048 . S
Mg273 O285 2.141 . S
C274 O275 1.313 . S
C274 O281 1.195 . S
O275 C274 1.313 . S
C276 O277 1.245 . S
C276 O285 1.289 . S
O277 C276 1.245 . S
C278 O279 1.245 . S
C278 O280 1.289 . S
O279 C278 1.245 . S
O280 Mg273 2.141 . S
O280 C278 1.289 . S
O281 Mg273 2.048 . S
O281 C274 1.195 . S
O282 Mg273 2.048 . S
O282 C283 1.195 . S
C283 O282 1.195 . S
C283 O284 1.313 . S
O284 C283 1.313 . S
O285 Mg273 2.141 . S
O285 C276 1.289 . S
Mg286 O293 2.141 . S
Mg286 O294 2.048 . S
Mg286 O295 2.048 . S
Mg286 O298 2.141 . S
C287 O288 1.313 . S
C287 O294 1.195 . S
O288 C287 1.313 . S
C289 O290 1.245 . S
C289 O298 1.289 . S
O290 C289 1.245 . S
C291 O292 1.245 . S
C291 O293 1.289 . S
O292 C291 1.245 . S
O293 Mg286 2.141 . S
O293 C291 1.289 . S
O294 Mg286 2.048 . S
O294 C287 1.195 . S
O295 Mg286 2.048 . S
O295 C296 1.195 . S
C296 O295 1.195 . S
C296 O297 1.313 . S
O297 C296 1.313 . S
O298 Mg286 2.141 . S
O298 C289 1.289 . S
Mg299 O306 2.141 1_545 S
Mg299 O307 2.048 . S
Mg299 O308 2.048 . S
Mg299 O311 2.141 1_545 S
C300 O301 1.313 . S
C300 O307 1.195 . S
O301 C300 1.313 . S
C302 O303 1.245 . S
C302 O311 1.289 . S
O303 C302 1.245 . S
C304 O305 1.245 . S
C304 O306 1.289 . S
O305 C304 1.245 . S
O306 Mg299 2.141 1_565 S
O306 C304 1.289 . S
O307 Mg299 2.048 . S
O307 C300 1.195 . S
O308 Mg299 2.048 . S
O308 C309 1.195 . S
C309 O308 1.195 . S
C309 O310 1.313 . S
O310 C309 1.313 . S
O311 Mg299 2.141 1_565 S
O311 C302 1.289 . S
Mg312 O319 2.141 . S
Mg312 O320 2.048 . S
Mg312 O321 2.048 . S
Mg312 O324 2.141 . S
C313 O314 1.313 . S
C313 O320 1.195 . S
O314 C313 1.313 . S
C315 O316 1.245 . S
C315 O324 1.289 . S
O316 C315 1.245 . S
C317 O318 1.245 . S
C317 O319 1.289 . S
O318 C317 1.245 . S
O319 Mg312 2.141 . S
O319 C317 1.289 . S
O320 Mg312 2.048 . S
O320 C313 1.195 . S
O321 Mg312 2.048 . S
O321 C322 1.195 . S
C322 O321 1.195 . S
C322 O323 1.313 . S
O323 C322 1.313 . S
O324 Mg312 2.141 . S
O324 C315 1.289 . S
Mg325 O332 2.141 . S
Mg325 O333 2.048 1_455 S
Mg325 O334 2.048 1_455 S
Mg325 O337 2.141 . S
C326 O327 1.313 . S
C326 O333 1.195 . S
O327 C326 1.313 . S
C328 O329 1.245 . S
C328 O337 1.289 . S
O329 C328 1.245 . S
C330 O331 1.245 . S
C330 O332 1.289 . S
O331 C330 1.245 . S
O332 Mg325 2.141 . S
O332 C330 1.289 . S
O333 Mg325 2.048 1_655 S
O333 C326 1.195 . S
O334 Mg325 2.048 1_655 S
O334 C335 1.195 . S
C335 O334 1.195 . S
C335 O336 1.313 . S
O336 C335 1.313 . S
O337 Mg325 2.141 . S
O337 C328 1.289 . S
Mg338 O345 2.141 . S
Mg338 O346 2.048 . S
Mg338 O347 2.048 . S
Mg338 O350 2.141 . S
C339 O340 1.313 . S
C339 O346 1.195 . S
O340 C339 1.313 . S
C341 O342 1.245 . S
C341 O350 1.289 . S
O342 C341 1.245 . S
C343 O344 1.245 . S
C343 O345 1.289 . S
O344 C343 1.245 . S
O345 Mg338 2.141 . S
O345 C343 1.289 . S
O346 Mg338 2.048 . S
O346 C339 1.195 . S
O347 Mg338 2.048 . S
O347 C348 1.195 . S
C348 O347 1.195 . S
C348 O349 1.313 . S
O349 C348 1.313 . S
O350 Mg338 2.141 . S
O350 C341 1.289 . S
Mg351 O358 2.141 . S
Mg351 O359 2.048 1_655 S
Mg351 O360 2.048 1_655 S
Mg351 O363 2.141 . S
C352 O353 1.313 . S
C352 O359 1.195 . S
O353 C352 1.313 . S
C354 O355 1.245 . S
C354 O363 1.289 . S
O355 C354 1.245 . S
C356 O357 1.245 . S
C356 O358 1.289 . S
O357 C356 1.245 . S
O358 Mg351 2.141 . S
O358 C356 1.289 . S
O359 Mg351 2.048 1_455 S
O359 C352 1.195 . S
O360 Mg351 2.048 1_455 S
O360 C361 1.195 . S
C361 O360 1.195 . S
C361 O362 1.313 . S
O362 C361 1.313 . S
O363 Mg351 2.141 . S
O363 C354 1.289 . S
Mg364 O371 2.141 . S
Mg364 O372 2.048 . S
Mg364 O373 2.048 . S
Mg364 O376 2.141 . S
C365 O366 1.313 . S
C365 O372 1.195 . S
O366 C365 1.313 . S
C367 O368 1.245 . S
C367 O376 1.289 . S
O368 C367 1.245 . S
C369 O370 1.245 . S
C369 O371 1.289 . S
O370 C369 1.245 . S
O371 Mg364 2.141 . S
O371 C369 1.289 . S
O372 Mg364 2.048 . S
O372 C365 1.195 . S
O373 Mg364 2.048 . S
O373 C374 1.195 . S
C374 O373 1.195 . S
C374 O375 1.313 . S
O375 C374 1.313 . S
O376 Mg364 2.141 . S
O376 C367 1.289 . S
Mg377 O384 2.141 . S
Mg377 O385 2.048 . S
Mg377 O386 2.048 . S
Mg377 O389 2.141 . S
C378 O379 1.313 . S
C378 O385 1.195 . S
O379 C378 1.313 . S
C380 O381 1.245 . S
C380 O389 1.289 . S
O381 C380 1.245 . S
C382 O383 1.245 . S
C382 O384 1.289 . S
O383 C382 1.245 . S
O384 Mg377 2.141 . S
O384 C382 1.289 . S
O385 Mg377 2.048 . S
O385 C378 1.195 . S
O386 Mg377 2.048 . S
O386 C387 1.195 . S
C387 O386 1.195 . S
C387 O388 1.313 . S
O388 C387 1.313 . S
O389 Mg377 2.141 . S
O389 C380 1.289 . S
Mg390 O397 2.141 . S
Mg390 O398 2.048 . S
Mg390 O399 2.048 . S
Mg390 O402 2.141 . S
C391 O392 1.313 . S
C391 O398 1.195 . S
O392 C391 1.313 . S
C393 O394 1.245 . S
C393 O402 1.289 . S
O394 C393 1.245 . S
C395 O396 1.245 . S
C395 O397 1.289 . S
O396 C395 1.245 . S
O397 Mg390 2.141 . S
O397 C395 1.289 . S
O398 Mg390 2.048 . S
O398 C391 1.195 . S
O399 Mg390 2.048 . S
O399 C400 1.195 . S
C400 O399 1.195 . S
C400 O401 1.313 . S
O401 C400 1.313 . S
O402 Mg390 2.141 . S
O402 C393 1.289 . S
Mg403 O410 2.141 . S
Mg403 O411 2.048 . S
Mg403 O412 2.048 . S
Mg403 O415 2.141 . S
C404 O405 1.313 . S
C404 O411 1.195 . S
O405 C404 1.313 . S
C406 O407 1.245 . S
C406 O415 1.289 . S
O407 C406 1.245 . S
C408 O409 1.245 . S
C408 O410 1.289 . S
O409 C408 1.245 . S
O410 Mg403 2.141 . S
O410 C408 1.289 . S
O411 Mg403 2.048 . S
O411 C404 1.195 . S
O412 Mg403 2.048 . S
O412 C413 1.195 . S
C413 O412 1.195 . S
C413 O414 1.313 . S
O414 C413 1.313 . S
O415 Mg403 2.141 . S
O415 C406 1.289 . S
Mg416 O423 2.141 . S
Mg416 O424 2.048 . S
Mg416 O425 2.048 . S
Mg416 O428 2.141 . S
C417 O418 1.313 . S
C417 O424 1.195 . S
O418 C417 1.313 . S
C419 O420 1.245 . S
C419 O428 1.289 . S
O420 C419 1.245 . S
C421 O422 1.245 . S
C421 O423 1.289 . S
O422 C421 1.245 . S
O423 Mg416 2.141 . S
O423 C421 1.289 . S
O424 Mg416 2.048 . S
O424 C417 1.195 . S
O425 Mg416 2.048 . S
O425 C426 1.195 . S
C426 O425 1.195 . S
C426 O427 1.313 . S
O427 C426 1.313 . S
O428 Mg416 2.141 . S
O428 C419 1.289 . S
Mg429 O436 2.141 . S
Mg429 O437 2.048 . S
Mg429 O438 2.048 . S
Mg429 O441 2.141 . S
C430 O431 1.313 . S
C430 O437 1.195 . S
O431 C430 1.313 . S
C432 O433 1.245 . S
C432 O441 1.289 . S
O433 C432 1.245 . S
C434 O435 1.245 . S
C434 O436 1.289 . S
O435 C434 1.245 . S
O436 Mg429 2.141 . S
O436 C434 1.289 . S
O437 Mg429 2.048 . S
O437 C430 1.195 . S
O438 Mg429 2.048 . S
O438 C439 1.195 . S
C439 O438 1.195 . S
C439 O440 1.313 . S
O440 C439 1.313 . S
O441 Mg429 2.141 . S
O441 C432 1.289 . S
Mg442 O449 2.141 . S
Mg442 O450 2.048 . S
Mg442 O451 2.048 . S
Mg442 O454 2.141 . S
C443 O444 1.313 . S
C443 O450 1.195 . S
O444 C443 1.313 . S
C445 O446 1.245 . S
C445 O454 1.289 . S
O446 C445 1.245 . S
C447 O448 1.245 . S
C447 O449 1.289 . S
O448 C447 1.245 . S
O449 Mg442 2.141 . S
O449 C447 1.289 . S
O450 Mg442 2.048 . S
O450 C443 1.195 . S
O451 Mg442 2.048 . S
O451 C452 1.195 . S
C452 O451 1.195 . S
C452 O453 1.313 . S
O453 C452 1.313 . S
O454 Mg442 2.141 . S
O454 C445 1.289 . S
Mg455 O462 2.141 . S
Mg455 O463 2.048 . S
Mg455 O464 2.048 . S
Mg455 O467 2.141 . S
C456 O457 1.313 . S
C456 O463 1.195 . S
O457 C456 1.313 . S
C458 O459 1.245 . S
C458 O467 1.289 . S
O459 C458 1.245 . S
C460 O461 1.245 . S
C460 O462 1.289 . S
O461 C460 1.245 . S
O462 Mg455 2.141 . S
O462 C460 1.289 . S
O463 Mg455 2.048 . S
O463 C456 1.195 . S
O464 Mg455 2.048 . S
O464 C465 1.195 . S
C465 O464 1.195 . S
C465 O466 1.313 . S
O466 C465 1.313 . S
O467 Mg455 2.141 . S
O467 C458 1.289 . S
Mg468 O475 2.141 . S
Mg468 O476 2.048 . S
Mg468 O477 2.048 . S
Mg468 O480 2.141 . S
C469 O470 1.313 . S
C469 O476 1.195 . S
O470 C469 1.313 . S
C471 O472 1.245 . S
C471 O480 1.289 . S
O472 C471 1.245 . S
C473 O474 1.245 . S
C473 O475 1.289 . S
O474 C473 1.245 . S
O475 Mg468 2.141 . S
O475 C473 1.289 . S
O476 Mg468 2.048 . S
O476 C469 1.195 . S
O477 Mg468 2.048 . S
O477 C478 1.195 . S
C478 O477 1.195 . S
C478 O479 1.313 . S
O479 C478 1.313 . S
O480 Mg468 2.141 . S
O480 C471 1.289 . S
Mg481 O488 2.141 . S
Mg481 O489 2.048 . S
Mg481 O490 2.048 . S
Mg481 O493 2.141 . S
C482 O483 1.313 . S
C482 O489 1.195 . S
O483 C482 1.313 . S
C484 O485 1.245 . S
C484 O493 1.289 . S
O485 C484 1.245 . S
C486 O487 1.245 . S
C486 O488 1.289 . S
O487 C486 1.245 . S
O488 Mg481 2.141 . S
O488 C486 1.289 . S
O489 Mg481 2.048 . S
O489 C482 1.195 . S
O490 Mg481 2.048 . S
O490 C491 1.195 . S
C491 O490 1.195 . S
C491 O492 1.313 . S
O492 C491 1.313 . S
O493 Mg481 2.141 . S
O493 C484 1.289 . S
Mg494 O501 2.141 . S
Mg494 O502 2.048 . S
Mg494 O503 2.048 . S
Mg494 O506 2.141 . S
C495 O496 1.313 . S
C495 O502 1.195 . S
O496 C495 1.313 . S
C497 O498 1.245 . S
C497 O506 1.289 . S
O498 C497 1.245 . S
C499 O500 1.245 . S
C499 O501 1.289 . S
O500 C499 1.245 . S
O501 Mg494 2.141 . S
O501 C499 1.289 . S
O502 Mg494 2.048 . S
O502 C495 1.195 . S
O503 Mg494 2.048 . S
O503 C504 1.195 . S
C504 O503 1.195 . S
C504 O505 1.313 . S
O505 C504 1.313 . S
O506 Mg494 2.141 . S
O506 C497 1.289 . S
Mg507 O514 2.141 . S
Mg507 O515 2.048 . S
Mg507 O516 2.048 . S
Mg507 O519 2.141 . S
C508 O509 1.313 . S
C508 O515 1.195 . S
O509 C508 1.313 . S
C510 O511 1.245 . S
C510 O519 1.289 . S
O511 C510 1.245 . S
C512 O513 1.245 . S
C512 O514 1.289 . S
O513 C512 1.245 . S
O514 Mg507 2.141 . S
O514 C512 1.289 . S
O515 Mg507 2.048 . S
O515 C508 1.195 . S
O516 Mg507 2.048 . S
O516 C517 1.195 . S
C517 O516 1.195 . S
C517 O518 1.313 . S
O518 C517 1.313 . S
O519 Mg507 2.141 . S
O519 C510 1.289 . S
Mg520 O527 2.141 . S
Mg520 O528 2.048 . S
Mg520 O529 2.048 . S
Mg520 O532 2.141 . S
C521 O522 1.313 . S
C521 O528 1.195 . S
O522 C521 1.313 . S
C523 O524 1.245 . S
C523 O532 1.289 . S
O524 C523 1.245 . S
C525 O526 1.245 . S
C525 O527 1.289 . S
O526 C525 1.245 . S
O527 Mg520 2.141 . S
O527 C525 1.289 . S
O528 Mg520 2.048 . S
O528 C521 1.195 . S
O529 Mg520 2.048 . S
O529 C530 1.195 . S
C530 O529 1.195 . S
C530 O531 1.313 . S
O531 C530 1.313 . S
O532 Mg520 2.141 . S
O532 C523 1.289 . S
Mg533 O540 2.141 . S
Mg533 O541 2.048 . S
Mg533 O542 2.048 . S
Mg533 O545 2.141 . S
C534 O535 1.313 . S
C534 O541 1.195 . S
O535 C534 1.313 . S
C536 O537 1.245 . S
C536 O545 1.289 . S
O537 C536 1.245 . S
C538 O539 1.245 . S
C538 O540 1.289 . S
O539 C538 1.245 . S
O540 Mg533 2.141 . S
O540 C538 1.289 . S
O541 Mg533 2.048 . S
O541 C534 1.195 . S
O542 Mg533 2.048 . S
O542 C543 1.195 . S
C543 O542 1.195 . S
C543 O544 1.313 . S
O544 C543 1.313 . S
O545 Mg533 2.141 . S
O545 C536 1.289 . S
Mg546 O553 2.141 1_545 S
Mg546 O554 2.048 . S
Mg546 O555 2.048 . S
Mg546 O558 2.141 1_545 S
C547 O548 1.313 . S
C547 O554 1.195 . S
O548 C547 1.313 . S
C549 O550 1.245 . S
C549 O558 1.289 . S
O550 C549 1.245 . S
C551 O552 1.245 . S
C551 O553 1.289 . S
O552 C551 1.245 . S
O553 Mg546 2.141 1_565 S
O553 C551 1.289 . S
O554 Mg546 2.048 . S
O554 C547 1.195 . S
O555 Mg546 2.048 . S
O555 C556 1.195 . S
C556 O555 1.195 . S
C556 O557 1.313 . S
O557 C556 1.313 . S
O558 Mg546 2.141 1_565 S
O558 C549 1.289 . S
Mg559 O566 2.141 . S
Mg559 O567 2.048 . S
Mg559 O568 2.048 . S
Mg559 O571 2.141 . S
C560 O561 1.313 . S
C560 O567 1.195 . S
O561 C560 1.313 . S
C562 O563 1.245 . S
C562 O571 1.289 . S
O563 C562 1.245 . S
C564 O565 1.245 . S
C564 O566 1.289 . S
O565 C564 1.245 . S
O566 Mg559 2.141 . S
O566 C564 1.289 . S
O567 Mg559 2.048 . S
O567 C560 1.195 . S
O568 Mg559 2.048 . S
O568 C569 1.195 . S
C569 O568 1.195 . S
C569 O570 1.313 . S
O570 C569 1.313 . S
O571 Mg559 2.141 . S
O571 C562 1.289 . S
Mg572 O579 2.141 1_565 S
Mg572 O580 2.048 . S
Mg572 O581 2.048 . S
Mg572 O584 2.141 1_565 S
C573 O574 1.313 . S
C573 O580 1.195 . S
O574 C573 1.313 . S
C575 O576 1.245 . S
C575 O584 1.289 . S
O576 C575 1.245 . S
C577 O578 1.245 . S
C577 O579 1.289 . S
O578 C577 1.245 . S
O579 Mg572 2.141 1_545 S
O579 C577 1.289 . S
O580 Mg572 2.048 . S
O580 C573 1.195 . S
O581 Mg572 2.048 . S
O581 C582 1.195 . S
C582 O581 1.195 . S
C582 O583 1.313 . S
O583 C582 1.313 . S
O584 Mg572 2.141 1_545 S
O584 C575 1.289 . S
Mg585 O592 2.141 . S
Mg585 O593 2.048 . S
Mg585 O594 2.048 . S
Mg585 O597 2.141 . S
C586 O587 1.313 . S
C586 O593 1.195 . S
O587 C586 1.313 . S
C588 O589 1.245 . S
C588 O597 1.289 . S
O589 C588 1.245 . S
C590 O591 1.245 . S
C590 O592 1.289 . S
O591 C590 1.245 . S
O592 Mg585 2.141 . S
O592 C590 1.289 . S
O593 Mg585 2.048 . S
O593 C586 1.195 . S
O594 Mg585 2.048 . S
O594 C595 1.195 . S
C595 O594 1.195 . S
C595 O596 1.313 . S
O596 C595 1.313 . S
O597 Mg585 2.141 . S
O597 C588 1.289 . S
Mg598 O605 2.141 1_565 S
Mg598 O606 2.048 . S
Mg598 O607 2.048 . S
Mg598 O610 2.141 1_565 S
C599 O600 1.313 . S
C599 O606 1.195 . S
O600 C599 1.313 . S
C601 O602 1.245 . S
C601 O610 1.289 . S
O602 C601 1.245 . S
C603 O604 1.245 . S
C603 O605 1.289 . S
O604 C603 1.245 . S
O605 Mg598 2.141 1_545 S
O605 C603 1.289 . S
O606 Mg598 2.048 . S
O606 C599 1.195 . S
O607 Mg598 2.048 . S
O607 C608 1.195 . S
C608 O607 1.195 . S
C608 O609 1.313 . S
O609 C608 1.313 . S
O610 Mg598 2.141 1_545 S
O610 C601 1.289 . S
Mg611 O618 2.141 . S
Mg611 O619 2.048 . S
Mg611 O620 2.048 . S
Mg611 O623 2.141 . S
C612 O613 1.313 . S
C612 O619 1.195 . S
O613 C612 1.313 . S
C614 O615 1.245 . S
C614 O623 1.289 . S
O615 C614 1.245 . S
C616 O617 1.245 . S
C616 O618 1.289 . S
O617 C616 1.245 . S
O618 Mg611 2.141 . S
O618 C616 1.289 . S
O619 Mg611 2.048 . S
O619 C612 1.195 . S
O620 Mg611 2.048 . S
O620 C621 1.195 . S
C621 O620 1.195 . S
C621 O622 1.313 . S
O622 C621 1.313 . S
O623 Mg611 2.141 . S
O623 C614 1.289 . S
C218 C3 2.265 . S
C612 C16 1.940 1_554 S
C29 C595 2.278 . S
C42 C599 2.002 1_556 S
C231 C55 2.221 . S
C68 C235 1.928 1_554 S
C81 C257 2.244 . S
C573 C94 1.972 1_556 S
C107 C10 2.265 . S
C23 C120 1.988 . S
C36 C133 2.284 . S
C49 C146 2.027 1_565 S
C62 C159 2.278 . S
C172 C75 2.037 . S
C88 C185 2.292 . S
C198 C101 2.090 1_545 S
C211 C114 2.265 . S
C166 C224 2.284 . S
C239 C179 2.479 1_655 S
C250 C192 2.219 . S
C517 C265 2.342 . S
C276 C452 2.292 . S
C465 C291 2.379 1_455 S
C439 C304 2.327 1_655 S
C530 C315 2.237 . S
C328 C300 1.934 . S
C341 C283 2.219 . S
C354 C287 1.902 . S
C367 C543 2.292 . S
C547 C380 1.961 . S
C393 C569 2.284 . S
C261 C406 1.912 . S
C322 C419 2.237 . S
C432 C335 2.149 1_565 S
C445 C348 2.244 . S
C458 C361 2.097 . S
C471 C374 2.219 . S
C484 C387 2.065 1_565 S
C400 C497 2.221 . S
C413 C510 2.028 . S
C426 C523 2.237 . S
C478 C536 2.244 . S
C491 C551 2.286 . S
C562 C504 2.278 . S
C577 C205 2.405 1_455 S
C588 C140 2.221 . S
C153 C603 2.348 . S
C616 C127 2.426 . S
C5 C352 1.779 . S
C313 C18 2.266 . S
C31 C326 1.715 . S
C44 C339 2.241 . S
C57 C66 1.852 . S
C79 C70 2.458 . S
C83 C92 1.795 . S
C96 C53 2.441 . S
C109 C556 2.009 . S
C122 C560 2.366 . S
C135 C270 2.367 . S
C148 C534 2.458 . S
C161 C608 1.951 . S
C209 C174 2.349 . S
C187 C621 2.315 . S
C586 C200 2.441 . S
C118 C213 1.779 . S
C226 C508 2.143 . S
C237 C469 2.386 . S
C482 C252 2.197 . S
C263 C183 2.357 . S
C456 C278 2.085 . S
C417 C289 2.425 . S
C443 C302 2.567 . S
C317 C40 2.145 . S
C330 C1 2.349 . S
C14 C343 2.197 . S
C356 C27 2.366 . S
C369 C378 2.085 . S
C391 C382 2.159 . S
C404 C395 2.143 . S
C408 C365 2.188 . S
C244 C421 2.369 . S
C434 C248 2.241 . S
C447 C582 2.026 . S
C460 C222 2.159 . S
C473 C296 2.413 . S
C486 C521 2.266 . S
C309 C499 2.076 . S
C512 C274 2.188 . S
C430 C525 2.145 . S
C196 C538 1.795 . S
C157 C549 2.477 . S
C564 C170 1.715 . S
C575 C495 2.534 . S
C144 C590 1.852 . S
C601 C105 2.446 . S
C131 C614 2.316 . S
