# Generated by pormake.
# Topology fns, (5)-cn, num edge types: 1
# Building blocks:
#     Node 0, Type 0, BuildingBlock: BEQFEK_clean_sbu_0, # of connection points: 5
#     Node 1, Type 0, BuildingBlock: BEQFEK_clean_sbu_0, # of connection points: 5
#     Node 2, Type 0, BuildingBlock: BEQFEK_clean_sbu_0, # of connection points: 5
#     Node 3, Type 0, BuildingBlock: BEQFEK_clean_sbu_0, # of connection points: 5
#     Node 4, Type 0, BuildingBlock: BEQFEK_clean_sbu_0, # of connection points: 5
#     Node 5, Type 0, BuildingBlock: BEQFEK_clean_sbu_0, # of connection points: 5
#     Edge 6, Type (0, 0), BuildingBlock: FUNLAD_clean_linker_1, # of connection points: 2
#     Edge 7, Type (0, 0), BuildingBlock: FUNLAD_clean_linker_1, # of connection points: 2
#     Edge 8, Type (0, 0), BuildingBlock: FUNLAD_clean_linker_1, # of connection points: 2
#     Edge 9, Type (0, 0), BuildingBlock: FUNLAD_clean_linker_1, # of connection points: 2
#     Edge 10, Type (0, 0), BuildingBlock: FUNLAD_clean_linker_1, # of connection points: 2
#     Edge 11, Type (0, 0), BuildingBlock: FUNLAD_clean_linker_1, # of connection points: 2
#     Edge 12, Type (0, 0), BuildingBlock: FUNLAD_clean_linker_1, # of connection points: 2
#     Edge 13, Type (0, 0), BuildingBlock: FUNLAD_clean_linker_1, # of connection points: 2
#     Edge 14, Type (0, 0), BuildingBlock: FUNLAD_clean_linker_1, # of connection points: 2
#     Edge 15, Type (0, 0), BuildingBlock: FUNLAD_clean_linker_1, # of connection points: 2
#     Edge 16, Type (0, 0), BuildingBlock: FUNLAD_clean_linker_1, # of connection points: 2
#     Edge 17, Type (0, 0), BuildingBlock: FUNLAD_clean_linker_1, # of connection points: 2
#     Edge 18, Type (0, 0), BuildingBlock: FUNLAD_clean_linker_1, # of connection points: 2
#     Edge 19, Type (0, 0), BuildingBlock: FUNLAD_clean_linker_1, # of connection points: 2
#     Edge 20, Type (0, 0), BuildingBlock: FUNLAD_clean_linker_1, # of connection points: 2
# Relax obj value: 0.267
# Max RMSD: 0.256
# Mean RMSD: 0.256
data_MOF--net-fns--node1-BEQFEK_clean_sbu_0--edge1-FUNLAD_clean_linker_1
_symmetry_space_group_name_H-M    P1
_symmetry_Int_Tables_number       1
_symmetry_cell_setting            triclinic
loop_
_symmetry_equiv_pos_as_xyz
'x, y, z'
_cell_length_a     56.93035
_cell_length_b     56.803317
_cell_length_c     19.150747
_cell_angle_alpha  89.940333
_cell_angle_beta   90.111215
_cell_angle_gamma 120.02689
loop_
_atom_site_label
_atom_site_type_symbol
_atom_site_fract_x
_atom_site_fract_y
_atom_site_fract_z
_atom_type_partial_charge
Co0 Co 0.17672 0.60759 0.06962 0.0
Co1 Co 0.17218 0.58441 0.22088 0.0
C2 C 0.20813 0.64414 0.18437 0.0
O3 O 0.20069 0.64172 0.12085 0.0
O4 O 0.19896 0.62367 0.22485 0.0
C5 C 0.1695 0.63327 0.94352 0.0
O6 O 0.16649 0.65023 0.98391 0.0
C7 C 0.16046 0.58512 0.36864 0.0
C8 C 0.16297 0.55021 0.41046 0.0
C9 C 0.15917 0.57152 0.43049 0.0
N10 N 0.16493 0.57239 0.31553 0.0
N11 N 0.16622 0.55143 0.34072 0.0
C12 C 0.1579 0.60985 0.35842 0.0
H13 H 0.15879 0.61492 0.30223 0.0
H14 H 0.13809 0.60603 0.37904 0.0
H15 H 0.1745 0.62736 0.38661 0.0
C16 C 0.11674 0.5757 0.08247 0.0
N17 N 0.14183 0.58706 0.11045 0.0
N18 N 0.14011 0.5776 0.17415 0.0
C19 C 0.11394 0.56015 0.18908 0.0
C20 C 0.09824 0.55842 0.13182 0.0
C21 C 0.11141 0.57747 0.00657 0.0
H22 H 0.12625 0.57504 0.97455 0.0
H23 H 0.11388 0.59776 0.99554 0.0
H24 H 0.09078 0.56155 0.99079 0.0
O25 O 0.19405 0.58501 0.06756 0.0
O26 O 0.18849 0.56535 0.1714 0.0
H27 H 0.11523 0.53215 0.26173 0.0
H28 H 0.08228 0.52956 0.25508 0.0
C29 C 0.10449 0.54378 0.25493 0.0
H30 H 0.10964 0.55774 0.3 0.0
H31 H 0.17003 0.53841 0.31058 0.0
O32 O 0.17387 0.61534 0.97032 0.0
C33 C 0.19694 0.56899 0.10864 0.0
Co34 Co 0.56548 0.18497 0.40858 0.0
Co35 Co 0.58714 0.18414 0.55867 0.0
C36 C 0.55776 0.21503 0.52175 0.0
O37 O 0.55362 0.2078 0.45801 0.0
O38 O 0.57042 0.20749 0.56263 0.0
C39 C 0.53815 0.18597 0.27916 0.0
O40 O 0.52624 0.19677 0.31486 0.0
C41 C 0.57695 0.1738 0.7068 0.0
C42 C 0.61518 0.17793 0.74727 0.0
C43 C 0.58993 0.17342 0.76786 0.0
N44 N 0.59392 0.1788 0.65305 0.0
N45 N 0.61674 0.18119 0.6774 0.0
C46 C 0.54834 0.16776 0.69801 0.0
H47 H 0.54135 0.16142 0.64354 0.0
H48 H 0.53468 0.15151 0.73467 0.0
H49 H 0.54734 0.18635 0.70944 0.0
C50 C 0.53969 0.12534 0.42864 0.0
N51 N 0.55379 0.15099 0.45303 0.0
N52 N 0.56348 0.15072 0.51526 0.0
C53 C 0.55605 0.12497 0.53244 0.0
C54 C 0.54058 0.10797 0.47853 0.0
C55 C 0.52946 0.11859 0.35517 0.0
H56 H 0.54656 0.13012 0.31859 0.0
H57 H 0.51427 0.12505 0.34594 0.0
H58 H 0.52035 0.09667 0.34363 0.0
O59 O 0.60541 0.20539 0.40338 0.0
O60 O 0.622 0.20283 0.50656 0.0
H61 H 0.5873 0.12964 0.60309 0.0
H62 H 0.55888 0.09524 0.59817 0.0
C63 C 0.56495 0.11708 0.59772 0.0
H64 H 0.55563 0.12119 0.64343 0.0
H65 H 0.63345 0.18534 0.64648 0.0
O66 O 0.55388 0.17947 0.30984 0.0
C67 C 0.62532 0.21045 0.443 0.0
Co68 Co 0.38822 0.57022 0.76262 0.0
Co69 Co 0.41216 0.59654 0.90593 0.0
C70 C 0.35219 0.57023 0.86802 0.0
O71 O 0.35352 0.56037 0.80961 0.0
O72 O 0.37322 0.58485 0.90426 0.0
C73 C 0.36598 0.56006 0.62815 0.0
O74 O 0.35203 0.57062 0.6546 0.0
C75 C 0.40525 0.58588 0.05137 0.0
C76 C 0.43686 0.62339 0.10157 0.0
C77 C 0.41436 0.59814 0.11531 0.0
N78 N 0.42114 0.60299 0.00158 0.0
N79 N 0.44027 0.62536 0.03164 0.0
C80 C 0.38076 0.55872 0.03742 0.0
H81 H 0.38148 0.55152 0.9841 0.0
H82 H 0.3794 0.5436 0.07635 0.0
H83 H 0.3623 0.56051 0.04251 0.0
C84 C 0.41516 0.5387 0.79818 0.0
N85 N 0.40792 0.55736 0.81281 0.0
N86 N 0.41871 0.56903 0.87274 0.0
C87 C 0.43336 0.55831 0.89823 0.0
C88 C 0.43177 0.53887 0.8517 0.0
C89 C 0.40549 0.52061 0.73541 0.0
H90 H 0.41881 0.53149 0.69043 0.0
H91 H 0.3845 0.51551 0.72196 0.0
H92 H 0.40593 0.50157 0.74486 0.0
O93 O 0.41074 0.61041 0.75015 0.0
O94 O 0.43125 0.62982 0.84996 0.0
H95 H 0.45971 0.59025 0.96802 0.0
H96 H 0.46581 0.5619 0.96484 0.0
C97 C 0.44997 0.56783 0.96365 0.0
H98 H 0.43644 0.55862 0.00933 0.0
H99 H 0.45488 0.64232 0.00447 0.0
O100 O 0.38173 0.55619 0.66718 0.0
C101 C 0.42702 0.63138 0.78535 0.0
Co102 Co 0.81616 0.37552 0.07906 0.0
Co103 Co 0.81962 0.40108 0.22643 0.0
C104 C 0.79502 0.34025 0.20106 0.0
O105 O 0.80202 0.34217 0.13732 0.0
O106 O 0.79986 0.36114 0.23646 0.0
C107 C 0.82863 0.35828 0.94157 0.0
O108 O 0.84686 0.35353 0.96998 0.0
C109 C 0.83354 0.40386 0.37314 0.0
C110 C 0.83277 0.44011 0.41141 0.0
C111 C 0.83681 0.41907 0.43255 0.0
N112 N 0.82743 0.41507 0.31942 0.0
N113 N 0.82695 0.43675 0.34255 0.0
C114 C 0.83825 0.38034 0.36591 0.0
H115 H 0.84547 0.3798 0.31246 0.0
H116 H 0.85331 0.38163 0.40485 0.0
H117 H 0.81885 0.36123 0.37468 0.0
C118 C 0.87494 0.41936 0.07934 0.0
N119 N 0.85066 0.40399 0.11065 0.0
N120 N 0.8518 0.41362 0.17395 0.0
C121 C 0.87673 0.43496 0.18525 0.0
C122 C 0.8922 0.43922 0.12607 0.0
C123 C 0.88022 0.41809 0.00332 0.0
H124 H 0.86166 0.41251 0.97258 0.0
H125 H 0.88637 0.40263 0.99509 0.0
H126 H 0.89676 0.43794 0.98415 0.0
O127 O 0.79009 0.389 0.08133 0.0
O128 O 0.7961 0.41253 0.17906 0.0
H129 H 0.87243 0.46138 0.2569 0.0
H130 H 0.90678 0.4678 0.2496 0.0
C131 C 0.8851 0.45175 0.25048 0.0
H132 H 0.88168 0.43841 0.29612 0.0
H133 H 0.82265 0.44922 0.31142 0.0
O134 O 0.81575 0.36658 0.97863 0.0
C135 C 0.7849 0.40408 0.11973 0.0
Co136 Co 0.4348 0.8249 0.40636 0.0
Co137 Co 0.41502 0.82228 0.55788 0.0
C138 C 0.44653 0.7949 0.51087 0.0
O139 O 0.45054 0.80417 0.44907 0.0
O140 O 0.43297 0.80025 0.55415 0.0
C141 C 0.45665 0.82121 0.27414 0.0
O142 O 0.46097 0.80277 0.30327 0.0
C143 C 0.43089 0.83186 0.70009 0.0
C144 C 0.39304 0.81987 0.75771 0.0
C145 C 0.42027 0.82795 0.76631 0.0
N146 N 0.41101 0.82603 0.654 0.0
N147 N 0.38839 0.81918 0.68844 0.0
C148 C 0.45922 0.83928 0.68053 0.0
H149 H 0.46345 0.84599 0.62529 0.0
H150 H 0.47402 0.85576 0.715 0.0
H151 H 0.46179 0.82131 0.68781 0.0
C152 C 0.45576 0.88359 0.42869 0.0
N153 N 0.44465 0.85791 0.45258 0.0
N154 N 0.43584 0.85677 0.51644 0.0
C155 C 0.44101 0.88169 0.53571 0.0
C156 C 0.45394 0.89965 0.481 0.0
C157 C 0.46339 0.89095 0.3538 0.0
H158 H 0.48032 0.8874 0.34037 0.0
H159 H 0.46931 0.91222 0.34219 0.0
H160 H 0.44584 0.87757 0.32013 0.0
O161 O 0.39463 0.80176 0.40414 0.0
O162 O 0.37946 0.80161 0.51122 0.0
H163 H 0.41024 0.87322 0.61172 0.0
H164 H 0.43612 0.90881 0.60666 0.0
C165 C 0.43219 0.88765 0.60385 0.0
H166 H 0.44338 0.8845 0.6469 0.0
H167 H 0.36963 0.81284 0.6648 0.0
O168 O 0.44637 0.83269 0.3092 0.0
C169 C 0.37518 0.79449 0.44735 0.0
Co170 Co 0.61477 0.43689 0.7631 0.0
Co171 Co 0.59309 0.41908 0.91471 0.0
C172 C 0.65286 0.44632 0.87698 0.0
O173 O 0.64972 0.45108 0.8138 0.0
O174 O 0.63268 0.43362 0.91756 0.0
C175 C 0.63587 0.46961 0.6352 0.0
O176 O 0.648 0.49169 0.67354 0.0
C177 C 0.59602 0.42685 0.06494 0.0
C178 C 0.55433 0.39858 0.10066 0.0
C179 C 0.58007 0.41747 0.1237 0.0
N180 N 0.58073 0.4141 0.00894 0.0
N181 N 0.55574 0.39722 0.03052 0.0
C182 C 0.62519 0.44863 0.06208 0.0
H183 H 0.62888 0.46165 0.01551 0.0
H184 H 0.63132 0.46151 0.10966 0.0
H185 H 0.63775 0.43884 0.05827 0.0
C186 C 0.5811 0.46356 0.77507 0.0
N187 N 0.59234 0.44949 0.80176 0.0
N188 N 0.58436 0.44302 0.86694 0.0
C189 C 0.56857 0.45354 0.88447 0.0
C190 C 0.56572 0.46656 0.82642 0.0
C191 C 0.58249 0.47145 0.69995 0.0
H192 H 0.58177 0.45534 0.66593 0.0
H193 H 0.60174 0.49068 0.69068 0.0
H194 H 0.56544 0.47474 0.68573 0.0
O195 O 0.59495 0.39668 0.76331 0.0
O196 O 0.57617 0.3832 0.86799 0.0
H197 H 0.53978 0.43159 0.96478 0.0
H198 H 0.55128 0.46757 0.96365 0.0
C199 C 0.55754 0.45214 0.95621 0.0
H200 H 0.57323 0.45577 0.99573 0.0
H201 H 0.53969 0.38471 0.99747 0.0
O202 O 0.62203 0.44652 0.664 0.0
C203 C 0.58003 0.37789 0.80596 0.0
H204 H 0.20838 0.53697 0.11036 0.0
C205 C 0.21086 0.55476 0.0826 0.0
H206 H 0.22926 0.58197 -0.00104 0.0
H207 H 0.31111 0.53121 0.01324 0.0
H208 H 0.31671 0.54087 0.13797 0.0
H209 H 0.28929 0.55725 0.19811 0.0
H210 H 0.25575 0.56311 0.1353 0.0
C211 C 0.22719 0.56429 0.02656 0.0
C212 C 0.24184 0.55126 0.99584 0.0
C213 C 0.26214 0.54915 0.03405 0.0
C214 C 0.27938 0.54172 -0.00129 0.0
C215 C 0.29851 0.53814 0.03769 0.0
C216 C 0.30178 0.54344 0.10906 0.0
C217 C 0.28626 0.55254 0.14292 0.0
C218 C 0.26676 0.55554 0.10611 0.0
H219 H 0.32743 0.58054 0.9335 0.0
C220 C 0.32633 0.56545 0.89659 0.0
H221 H 0.30066 0.52712 0.85019 0.0
H222 H 0.20148 0.54759 0.91048 0.0
H223 H 0.19689 0.53823 0.78592 0.0
H224 H 0.22954 0.52927 0.72368 0.0
H225 H 0.2668 0.52926 0.78594 0.0
C226 C 0.30243 0.5427 0.88614 0.0
C227 C 0.27823 0.53925 0.92492 0.0
C228 C 0.25646 0.53871 0.88806 0.0
C229 C 0.23801 0.54441 0.92377 0.0
C230 C 0.21643 0.54395 0.88562 0.0
C231 C 0.21349 0.53848 0.81422 0.0
C232 C 0.23187 0.53342 0.77919 0.0
C233 C 0.25319 0.53356 0.81541 0.0
H234 H 0.65458 0.23919 0.36856 0.0
C235 C 0.65256 0.22631 0.41288 0.0
H236 H 0.67247 0.21143 0.47712 0.0
H237 H 0.7343 0.27897 0.17965 0.0
H238 H 0.6982 0.24073 0.11929 0.0
H239 H 0.66391 0.20074 0.18433 0.0
H240 H 0.66519 0.19966 0.31135 0.0
C241 C 0.67408 0.22429 0.43327 0.0
C242 C 0.70051 0.24064 0.39629 0.0
C243 C 0.70143 0.23968 0.32239 0.0
C244 C 0.72252 0.26174 0.28497 0.0
C245 C 0.72028 0.26207 0.21128 0.0
C246 C 0.69933 0.24024 0.17567 0.0
C247 C 0.67995 0.21779 0.21225 0.0
C248 C 0.68082 0.21747 0.28485 0.0
H249 H 0.77961 0.29593 0.21084 0.0
C250 C 0.77927 0.31322 0.23391 0.0
H251 H 0.76308 0.32737 0.31107 0.0
H252 H 0.70813 0.24469 0.53786 0.0
H253 H 0.74772 0.27925 0.59965 0.0
H254 H 0.78668 0.31515 0.53508 0.0
H255 H 0.78613 0.31682 0.40825 0.0
C256 C 0.76292 0.30975 0.28836 0.0
C257 C 0.74432 0.28321 0.32233 0.0
C258 C 0.74563 0.28138 0.3961 0.0
C259 C 0.72348 0.26032 0.43329 0.0
C260 C 0.72453 0.26013 0.50711 0.0
C261 C 0.74716 0.27979 0.54318 0.0
C262 C 0.7691 0.30002 0.50684 0.0
C263 C 0.76845 0.30089 0.43418 0.0
H264 H 0.46212 0.7669 0.48959 0.0
C265 C 0.45454 0.77474 0.53013 0.0
H266 H 0.44055 0.77039 0.63411 0.0
H267 H 0.3909 0.64371 0.63047 0.0
H268 H 0.35292 0.64552 0.57977 0.0
H269 H 0.35781 0.68898 0.53923 0.0
H270 H 0.40071 0.73098 0.55047 0.0
C271 C 0.44882 0.7632 0.59373 0.0
C272 C 0.44765 0.73695 0.60711 0.0
C273 C 0.42262 0.71247 0.59837 0.0
C274 C 0.41994 0.6874 0.62076 0.0
C275 C 0.39435 0.66337 0.6137 0.0
C276 C 0.37226 0.66409 0.58478 0.0
C277 C 0.375 0.68855 0.56207 0.0
C278 C 0.39979 0.71252 0.5688 0.0
H279 H 0.4467 0.67612 0.78576 0.0
C280 C 0.43908 0.65835 0.75217 0.0
H281 H 0.43035 0.64334 0.64907 0.0
H282 H 0.49869 0.78006 0.62635 0.0
H283 H 0.53751 0.7783 0.67342 0.0
H284 H 0.53337 0.73458 0.70876 0.0
H285 H 0.49035 0.69238 0.698 0.0
C286 C 0.43819 0.66112 0.68266 0.0
C287 C 0.44236 0.68694 0.65174 0.0
C288 C 0.46785 0.71122 0.65646 0.0
C289 C 0.4704 0.73634 0.63472 0.0
C290 C 0.49579 0.76044 0.64181 0.0
C291 C 0.51819 0.75969 0.66856 0.0
C292 C 0.51585 0.73507 0.68856 0.0
C293 C 0.49103 0.71104 0.68255 0.0
H294 H 0.69789 0.46942 0.87453 0.0
C295 C 0.68026 0.45447 0.90335 0.0
H296 H 0.66564 0.42719 0.98818 0.0
H297 H 0.78584 0.4383 0.96826 0.0
H298 H 0.77725 0.42669 0.84513 0.0
H299 H 0.73678 0.42293 0.78728 0.0
H300 H 0.70533 0.43164 0.8509 0.0
C301 C 0.68338 0.44216 0.95978 0.0
C302 C 0.71006 0.44805 0.98856 0.0
C303 C 0.72738 0.44147 0.95045 0.0
C304 C 0.74959 0.44161 0.98487 0.0
C305 C 0.76782 0.43692 0.9452 0.0
C306 C 0.76326 0.43047 0.87453 0.0
C307 C 0.74054 0.42847 0.84192 0.0
C308 C 0.72268 0.43376 0.87918 0.0
H309 H 0.74983 0.39773 0.05808 0.0
C310 C 0.76601 0.41219 0.09186 0.0
H311 H 0.78686 0.45256 0.12955 0.0
H312 H 0.68537 0.46837 0.0713 0.0
H313 H 0.6938 0.47933 0.19481 0.0
H314 H 0.72935 0.47484 0.25716 0.0
H315 H 0.75684 0.45973 0.19626 0.0
C316 C 0.77035 0.43763 0.09748 0.0
C317 C 0.75279 0.44563 0.05823 0.0
C318 C 0.73708 0.45453 0.09475 0.0
C319 C 0.71603 0.45625 0.0594 0.0
C320 C 0.70084 0.46564 0.09659 0.0
C321 C 0.70567 0.47225 0.16718 0.0
C322 C 0.72573 0.46978 0.20223 0.0
C323 C 0.74134 0.46104 0.1667 0.0
H324 H 0.33095 0.76842 0.46255 0.0
C325 C 0.34717 0.77572 0.42422 0.0
H326 H 0.35786 0.77194 0.32083 0.0
H327 H 0.26423 0.64944 0.30086 0.0
H328 H 0.30166 0.64293 0.33434 0.0
H329 H 0.34551 0.68179 0.37127 0.0
H330 H 0.35219 0.7274 0.37463 0.0
C331 C 0.34172 0.76567 0.35903 0.0
C332 C 0.31477 0.74243 0.3404 0.0
C333 C 0.31117 0.71589 0.33911 0.0
C334 C 0.28582 0.69351 0.31866 0.0
C335 C 0.28292 0.66722 0.31691 0.0
C336 C 0.30429 0.66317 0.33582 0.0
C337 C 0.32898 0.68503 0.35653 0.0
C338 C 0.33253 0.71113 0.35814 0.0
H339 H 0.2407 0.68696 0.17259 0.0
C340 C 0.22978 0.67069 0.21011 0.0
H341 H 0.22752 0.65768 0.31451 0.0
H342 H 0.31526 0.7908 0.33737 0.0
H343 H 0.27737 0.79732 0.30787 0.0
H344 H 0.23284 0.75827 0.27592 0.0
H345 H 0.22597 0.71251 0.27259 0.0
C346 C 0.23796 0.67411 0.27714 0.0
C347 C 0.26413 0.69777 0.29951 0.0
C348 C 0.26756 0.72426 0.30234 0.0
C349 C 0.29305 0.74669 0.3223 0.0
C350 C 0.2962 0.77303 0.3234 0.0
C351 C 0.27464 0.77704 0.30656 0.0
C352 C 0.24958 0.75506 0.28845 0.0
C353 C 0.24594 0.72892 0.28639 0.0
H354 H 0.55394 0.25158 0.51175 0.0
C355 C 0.55108 0.23541 0.5472 0.0
H356 H 0.54242 0.21985 0.64913 0.0
H357 H 0.60456 0.33363 0.79586 0.0
H358 H 0.62752 0.31051 0.8393 0.0
H359 H 0.61558 0.26506 0.79559 0.0
H360 H 0.58062 0.24249 0.70865 0.0
C361 C 0.54565 0.23646 0.61501 0.0
C362 C 0.54983 0.26206 0.64763 0.0
C363 C 0.57002 0.27467 0.70022 0.0
C364 C 0.57684 0.30083 0.72579 0.0
C365 C 0.59797 0.31351 0.77577 0.0
C366 C 0.61153 0.30054 0.80091 0.0
C367 C 0.60481 0.27496 0.77632 0.0
C368 C 0.5845 0.26217 0.72635 0.0
H369 H 0.55702 0.33334 0.82235 0.0
C370 C 0.56814 0.34927 0.78413 0.0
H371 H 0.58282 0.35831 0.6805 0.0
H372 H 0.50665 0.24136 0.55751 0.0
H373 H 0.48344 0.26454 0.51436 0.0
H374 H 0.49668 0.31078 0.55489 0.0
H375 H 0.53285 0.3339 0.63979 0.0
C376 C 0.57234 0.34267 0.7198 0.0
C377 C 0.56327 0.31418 0.69928 0.0
C378 C 0.5424 0.30114 0.64888 0.0
C379 C 0.53532 0.27483 0.62395 0.0
C380 C 0.51358 0.26179 0.57598 0.0
C381 C 0.49992 0.27477 0.55131 0.0
C382 C 0.50734 0.30078 0.57424 0.0
C383 C 0.52821 0.31385 0.62276 0.0
H384 H 0.1607 0.64803 0.84509 0.0
C385 C 0.16595 0.63363 0.86719 0.0
H386 H 0.17269 0.6009 0.84767 0.0
H387 H 0.1078 0.55748 0.57124 0.0
H388 H 0.07557 0.52477 0.65353 0.0
H389 H 0.08261 0.53245 0.78053 0.0
H390 H 0.12184 0.57293 0.82597 0.0
C391 C 0.16835 0.61593 0.82542 0.0
C392 C 0.16238 0.61366 0.74938 0.0
C393 C 0.13941 0.58987 0.72369 0.0
C394 C 0.1355 0.58527 0.65058 0.0
C395 C 0.1121 0.56159 0.62634 0.0
C396 C 0.09334 0.54276 0.67299 0.0
C397 C 0.0973 0.54709 0.74449 0.0
C398 C 0.11998 0.57035 0.76986 0.0
H399 H 0.16006 0.56552 0.54343 0.0
C400 C 0.15721 0.57789 0.50467 0.0
H401 H 0.15053 0.61122 0.49204 0.0
H402 H 0.20796 0.66211 0.78108 0.0
H403 H 0.23903 0.69559 0.6987 0.0
H404 H 0.23189 0.68787 0.57178 0.0
H405 H 0.1937 0.64656 0.52653 0.0
C406 C 0.15314 0.59796 0.52746 0.0
C407 C 0.15482 0.60432 0.60334 0.0
C408 C 0.1768 0.62899 0.62885 0.0
C409 C 0.18074 0.63359 0.70208 0.0
C410 C 0.20364 0.65778 0.72612 0.0
C411 C 0.22173 0.67714 0.67935 0.0
C412 C 0.21772 0.67279 0.60789 0.0
C413 C 0.19566 0.64898 0.58263 0.0
H414 H 0.59024 0.16315 0.87869 0.0
C415 C 0.5806 0.16999 0.84107 0.0
H416 H 0.55503 0.18679 0.82905 0.0
H417 H 0.52171 0.12515 0.1402 0.0
H418 H 0.50243 0.08289 0.07487 0.0
H419 H 0.50735 0.08323 0.94681 0.0
H420 H 0.53172 0.12582 0.88337 0.0
C421 C 0.56295 0.17742 0.86396 0.0
C422 C 0.55707 0.17697 0.93969 0.0
C423 C 0.54241 0.15192 0.97571 0.0
C424 C 0.5393 0.15174 0.04936 0.0
C425 C 0.52478 0.12644 0.08426 0.0
C426 C 0.51353 0.10205 0.04738 0.0
C427 C 0.51632 0.10223 0.97529 0.0
C428 C 0.5305 0.12681 0.93956 0.0
H429 H 0.52309 0.19085 0.17647 0.0
C430 C 0.53567 0.18407 0.20238 0.0
H431 H 0.56245 0.16875 0.18969 0.0
H432 H 0.58388 0.22845 0.8852 0.0
H433 H 0.6025 0.2707 0.94986 0.0
H434 H 0.59824 0.27051 0.07804 0.0
H435 H 0.57514 0.22815 0.14208 0.0
C436 C 0.55025 0.17609 0.16422 0.0
C437 C 0.55054 0.17659 0.08665 0.0
C438 C 0.56424 0.2017 0.05019 0.0
C439 C 0.56717 0.20184 0.97642 0.0
C440 C 0.58109 0.22714 0.94119 0.0
C441 C 0.59194 0.25157 0.97768 0.0
C442 C 0.58951 0.25146 0.04981 0.0
C443 C 0.576 0.22691 0.08594 0.0
H444 H 0.38593 0.55698 0.53425 0.0
C445 C 0.36892 0.55898 0.55244 0.0
H446 H 0.33739 0.56635 0.52463 0.0
H447 H 0.40251 0.63943 0.26719 0.0
H448 H 0.38746 0.66697 0.32767 0.0
H449 H 0.36165 0.6511 0.43729 0.0
H450 H 0.35084 0.60775 0.48764 0.0
C451 C 0.35409 0.5639 0.50639 0.0
C452 C 0.3635 0.57067 0.43276 0.0
C453 C 0.37011 0.59648 0.40527 0.0
C454 C 0.38531 0.60582 0.34245 0.0
C455 C 0.39135 0.63147 0.31529 0.0
C456 C 0.38282 0.64751 0.3494 0.0
C457 C 0.36833 0.63859 0.41127 0.0
C458 C 0.36221 0.61354 0.4395 0.0
H459 H 0.38055 0.56915 0.18129 0.0
C460 C 0.40034 0.58753 0.18219 0.0
H461 H 0.42978 0.61881 0.24541 0.0
H462 H 0.34608 0.51709 0.45835 0.0
H463 H 0.36031 0.48882 0.39711 0.0
H464 H 0.39191 0.50713 0.29751 0.0
H465 H 0.40859 0.55324 0.25709 0.0
C466 C 0.41052 0.59986 0.2433 0.0
C467 C 0.39414 0.58954 0.30803 0.0
C468 C 0.38619 0.56311 0.33349 0.0
C469 C 0.3697 0.55323 0.39396 0.0
C470 C 0.35996 0.52599 0.41498 0.0
C471 C 0.36778 0.50954 0.38001 0.0
C472 C 0.38545 0.5198 0.32374 0.0
C473 C 0.39468 0.54627 0.30065 0.0
H474 H 0.80619 0.3557 0.84609 0.0
C475 C 0.82537 0.35841 0.86542 0.0
H476 H 0.86597 0.37066 0.83946 0.0
H477 H 0.84276 0.35299 0.51264 0.0
H478 H 0.85494 0.31874 0.53855 0.0
H479 H 0.86181 0.30905 0.66012 0.0
H480 H 0.85683 0.33389 0.75658 0.0
C481 C 0.84636 0.36705 0.82116 0.0
C482 C 0.84367 0.37391 0.74737 0.0
C483 C 0.84645 0.35914 0.69162 0.0
C484 C 0.84199 0.36442 0.62155 0.0
C485 C 0.84548 0.34965 0.56689 0.0
C486 C 0.85252 0.32991 0.58102 0.0
C487 C 0.8564 0.32446 0.64946 0.0
C488 C 0.85346 0.33886 0.70432 0.0
H489 H 0.85642 0.43164 0.53587 0.0
C490 C 0.84262 0.41418 0.50454 0.0
H491 H 0.81498 0.37203 0.50267 0.0
H492 H 0.84305 0.41062 0.83947 0.0
H493 H 0.82737 0.44238 0.81563 0.0
H494 H 0.81184 0.44583 0.69768 0.0
H495 H 0.81338 0.41867 0.60238 0.0
C496 C 0.82939 0.38929 0.53365 0.0
C497 C 0.83418 0.38412 0.60739 0.0
C498 C 0.83079 0.39846 0.66362 0.0
C499 C 0.83709 0.39448 0.73297 0.0
C500 C 0.83658 0.41134 0.78678 0.0
C501 C 0.82785 0.42985 0.77371 0.0
C502 C 0.81932 0.43195 0.70723 0.0
C503 C 0.82067 0.41646 0.6527 0.0
H504 H 0.4534 0.84023 0.17866 0.0
C505 C 0.45936 0.82605 0.19886 0.0
H506 H 0.47002 0.79647 0.17303 0.0
H507 H 0.39341 0.77073 0.90798 0.0
H508 H 0.37499 0.72664 0.96381 0.0
H509 H 0.39489 0.72135 0.07313 0.0
H510 H 0.43354 0.76003 0.12666 0.0
C511 C 0.46516 0.81157 0.1541 0.0
C512 C 0.45931 0.8126 0.07898 0.0
C513 C 0.43703 0.78965 0.04803 0.0
C514 C 0.42532 0.7928 0.98575 0.0
C515 C 0.40288 0.7696 0.95592 0.0
C516 C 0.39213 0.74414 0.98733 0.0
C517 C 0.40334 0.74116 0.04885 0.0
C518 C 0.42549 0.76358 0.07918 0.0
H519 H 0.45519 0.83242 0.82713 0.0
C520 C 0.43441 0.82828 0.83092 0.0
H521 H 0.40102 0.81674 0.89781 0.0
H522 H 0.5064 0.8582 0.11481 0.0
H523 H 0.52566 0.90261 0.05904 0.0
H524 H 0.50316 0.90942 0.95697 0.0
H525 H 0.46189 0.87202 0.90925 0.0
C526 C 0.42217 0.82218 0.89315 0.0
C527 C 0.43593 0.81889 0.95505 0.0
C528 C 0.4596 0.84142 0.98311 0.0
C529 C 0.4718 0.83794 0.04388 0.0
C530 C 0.49595 0.86026 0.06996 0.0
C531 C 0.50722 0.88571 0.03832 0.0
C532 C 0.49461 0.88951 0.98072 0.0
C533 C 0.471 0.86775 0.95342 0.0
H534 H 0.61024 0.429 0.20725 0.0
C535 C 0.58971 0.42461 0.19589 0.0
H536 H 0.55468 0.42361 0.23531 0.0
H537 H 0.58005 0.40892 0.54941 0.0
H538 H 0.536 0.36916 0.53062 0.0
H539 H 0.51458 0.35901 0.41417 0.0
H540 H 0.53696 0.38887 0.31611 0.0
C541 C 0.57514 0.42772 0.24607 0.0
C542 C 0.58655 0.43566 0.3178 0.0
C543 C 0.57322 0.41785 0.37434 0.0
C544 C 0.58599 0.42325 0.44084 0.0
C545 C 0.57184 0.40546 0.49704 0.0
C546 C 0.54638 0.38258 0.48717 0.0
C547 C 0.53431 0.3769 0.42166 0.0
C548 C 0.54743 0.39425 0.36576 0.0
H549 H 0.63243 0.48917 0.53914 0.0
C550 C 0.63268 0.47144 0.55958 0.0
H551 H 0.62642 0.43229 0.54063 0.0
H552 H 0.61424 0.47778 0.22611 0.0
H553 H 0.65958 0.51633 0.24215 0.0
H554 H 0.68462 0.52219 0.35208 0.0
H555 H 0.66412 0.49012 0.44723 0.0
C556 C 0.62608 0.44979 0.5187 0.0
C557 C 0.61247 0.44599 0.45 0.0
C558 C 0.62552 0.46418 0.39383 0.0
C559 C 0.61196 0.45967 0.32865 0.0
C560 C 0.62439 0.47933 0.27515 0.0
C561 C 0.65028 0.50168 0.28392 0.0
C562 C 0.66431 0.50505 0.34592 0.0
C563 C 0.65219 0.48659 0.40041 0.0
H564 H 0.9256 0.4814 0.13803 0.0
C565 C 0.91999 0.46181 0.11489 0.0
H566 H 0.93437 0.4384 0.06446 0.0
H567 H 0.0433 0.54124 0.96024 0.0
H568 H 0.02032 0.52268 0.8501 0.0
H569 H 0.97302 0.48472 0.84759 0.0
H570 H 0.94858 0.46489 0.95524 0.0
C571 C 0.93932 0.45795 0.08664 0.0
C572 C 0.96812 0.48009 0.0881 0.0
C573 C 0.98198 0.49157 0.02475 0.0
C574 C 0.00916 0.5136 0.02621 0.0
C575 C 0.02268 0.52448 0.96217 0.0
C576 C 0.00968 0.51407 0.89857 0.0
C577 C 0.98305 0.4927 0.89715 0.0
C578 C 0.96925 0.48151 0.95932 0.0
H579 H 0.06166 0.51839 0.14547 0.0
C580 C 0.06927 0.53841 0.12246 0.0
H581 H 0.05866 0.56462 0.07038 0.0
H582 H 0.94928 0.45985 0.21954 0.0
H583 H 0.97119 0.48016 0.32932 0.0
H584 H 0.016 0.52199 0.33159 0.0
H585 H 0.03943 0.54315 0.22389 0.0
C586 C 0.05171 0.54464 0.09287 0.0
C587 C 0.02231 0.52407 0.09104 0.0
C588 C 0.00803 0.51327 0.15443 0.0
C589 C 0.98141 0.49046 0.15304 0.0
C590 C 0.96878 0.4783 0.21728 0.0
C591 C 0.98127 0.48958 0.28083 0.0
C592 C 0.00654 0.51302 0.28211 0.0
C593 C 0.01987 0.52481 0.21986 0.0
H594 H 0.54545 0.0721 0.49043 0.0
C595 C 0.53163 0.07882 0.4725 0.0
H596 H 0.4921 0.06638 0.43571 0.0
H597 H 0.47877 0.95538 0.31818 0.0
H598 H 0.47794 0.97779 0.21125 0.0
H599 H 0.48619 0.02476 0.21338 0.0
H600 H 0.49516 0.0494 0.32252 0.0
C601 C 0.50649 0.06024 0.45248 0.0
C602 C 0.4981 0.03087 0.4524 0.0
C603 C 0.49252 0.01662 0.3883 0.0
C604 C 0.48777 0.98956 0.38711 0.0
C605 C 0.48251 0.97591 0.3222 0.0
C606 C 0.482 0.98857 0.26036 0.0
C607 C 0.48666 0.01501 0.26155 0.0
C608 C 0.49188 0.02897 0.32459 0.0
H609 H 0.4458 0.93307 0.50245 0.0
C610 C 0.45979 0.92806 0.47709 0.0
H611 H 0.49739 0.94392 0.42486 0.0
H612 H 0.50297 0.05058 0.58551 0.0
H613 H 0.50452 0.02848 0.69241 0.0
H614 H 0.49983 0.9829 0.68959 0.0
H615 H 0.49306 0.95898 0.58011 0.0
C616 C 0.48261 0.94813 0.44887 0.0
C617 C 0.48826 0.97669 0.45015 0.0
C618 C 0.49341 0.99082 0.51451 0.0
C619 C 0.49756 0.01765 0.5158 0.0
C620 C 0.50101 0.03068 0.58115 0.0
C621 C 0.5017 0.01814 0.64302 0.0
C622 C 0.49895 0.99244 0.64145 0.0
C623 C 0.49487 0.97885 0.57817 0.0
H624 H 0.44927 0.5176 0.90908 0.0
C625 C 0.44639 0.52366 0.85737 0.0
H626 H 0.45737 0.52714 0.75083 0.0
H627 H 0.55048 0.5118 0.92509 0.0
H628 H 0.56436 0.55633 0.97317 0.0
H629 H 0.53913 0.57999 0.94496 0.0
H630 H 0.4996 0.55899 0.86973 0.0
C631 C 0.45913 0.52037 0.80261 0.0
C632 C 0.47656 0.508 0.81163 0.0
C633 C 0.50048 0.52127 0.85283 0.0
C634 C 0.51584 0.50829 0.86608 0.0
C635 C 0.53866 0.52119 0.91098 0.0
C636 C 0.54678 0.54672 0.9393 0.0
C637 C 0.53252 0.55998 0.92365 0.0
C638 C 0.50968 0.54756 0.88085 0.0
H639 H 0.55718 0.49785 0.78537 0.0
C640 C 0.54934 0.47991 0.81837 0.0
H641 H 0.51537 0.45027 0.87405 0.0
H642 H 0.43279 0.47797 0.72673 0.0
H643 H 0.42044 0.43463 0.67293 0.0
H644 H 0.44816 0.41293 0.69208 0.0
H645 H 0.4883 0.43436 0.76552 0.0
C646 C 0.52456 0.46956 0.84643 0.0
C647 C 0.50807 0.48279 0.83491 0.0
C648 C 0.48475 0.47 0.79169 0.0
C649 C 0.46895 0.48263 0.78004 0.0
C650 C 0.44561 0.46934 0.73706 0.0
C651 C 0.43829 0.44445 0.70583 0.0
C652 C 0.45389 0.43223 0.71664 0.0
C653 C 0.47686 0.44474 0.75901 0.0
loop_
_geom_bond_atom_site_label_1
_geom_bond_atom_site_label_2
_geom_bond_distance
_geom_bond_site_symmetry_2
_ccdc_geom_bond_type
Co0 O3 1.970 . S
Co0 N17 1.989 . S
Co0 O25 1.967 . S
Co0 O32 1.920 1_554 S
Co1 O4 1.966 . S
Co1 N10 2.022 . S
Co1 N18 1.993 . S
Co1 O26 1.941 . S
C2 O3 1.258 . S
C2 O4 1.263 . S
O3 Co0 1.970 . S
O3 C2 1.258 . S
O4 Co1 1.966 . S
O4 C2 1.263 . S
C5 O6 1.235 . S
C5 O32 1.289 . S
O6 C5 1.235 . S
C7 C9 1.400 . S
C7 N10 1.351 . S
C7 C12 1.501 . S
C8 C9 1.387 . S
C8 N11 1.341 . S
C9 C7 1.400 . S
C9 C8 1.387 . S
N10 Co1 2.022 . S
N10 C7 1.351 . S
N10 N11 1.365 . S
N11 C8 1.341 . S
N11 N10 1.365 . S
N11 H31 0.862 . S
C12 C7 1.501 . S
C12 H13 0.961 . S
C12 H14 0.961 . S
C12 H15 0.960 . S
H13 C12 0.961 . S
H14 C12 0.961 . S
H15 C12 0.960 . S
C16 N17 1.342 . S
C16 C20 1.401 . S
C16 C21 1.499 . S
N17 Co0 1.989 . S
N17 C16 1.342 . S
N17 N18 1.388 . S
N18 Co1 1.993 . S
N18 N17 1.388 . S
N18 C19 1.346 . S
C19 N18 1.346 . S
C19 C20 1.396 . S
C19 C29 1.510 . S
C20 C16 1.401 . S
C20 C19 1.396 . S
C21 C16 1.499 . S
C21 H22 0.959 1_554 S
C21 H23 0.960 . S
C21 H24 0.963 . S
H22 C21 0.959 1_556 S
H23 C21 0.960 . S
H24 C21 0.963 . S
O25 Co0 1.967 . S
O25 C33 1.258 . S
O26 Co1 1.941 . S
O26 C33 1.266 . S
H27 C29 0.959 . S
H28 C29 0.961 . S
C29 C19 1.510 . S
C29 H27 0.959 . S
C29 H28 0.961 . S
C29 H30 0.960 . S
H30 C29 0.960 . S
H31 N11 0.862 . S
O32 Co0 1.920 1_556 S
O32 C5 1.289 . S
C33 O25 1.258 . S
C33 O26 1.266 . S
Co34 O37 1.970 . S
Co34 N51 1.989 . S
Co34 O59 1.967 . S
Co34 O66 1.920 . S
Co35 O38 1.966 . S
Co35 N44 2.022 . S
Co35 N52 1.993 . S
Co35 O60 1.941 . S
C36 O37 1.258 . S
C36 O38 1.263 . S
O37 Co34 1.970 . S
O37 C36 1.258 . S
O38 Co35 1.966 . S
O38 C36 1.263 . S
C39 O40 1.235 . S
C39 O66 1.289 . S
O40 C39 1.235 . S
C41 C43 1.400 . S
C41 N44 1.351 . S
C41 C46 1.501 . S
C42 C43 1.387 . S
C42 N45 1.341 . S
C43 C41 1.400 . S
C43 C42 1.387 . S
N44 Co35 2.022 . S
N44 C41 1.351 . S
N44 N45 1.365 . S
N45 C42 1.341 . S
N45 N44 1.365 . S
N45 H65 0.862 . S
C46 C41 1.501 . S
C46 H47 0.961 . S
C46 H48 0.961 . S
C46 H49 0.960 . S
H47 C46 0.961 . S
H48 C46 0.961 . S
H49 C46 0.960 . S
C50 N51 1.342 . S
C50 C54 1.401 . S
C50 C55 1.499 . S
N51 Co34 1.989 . S
N51 C50 1.342 . S
N51 N52 1.388 . S
N52 Co35 1.993 . S
N52 N51 1.388 . S
N52 C53 1.346 . S
C53 N52 1.346 . S
C53 C54 1.396 . S
C53 C63 1.510 . S
C54 C50 1.401 . S
C54 C53 1.396 . S
C55 C50 1.499 . S
C55 H56 0.959 . S
C55 H57 0.960 . S
C55 H58 0.961 . S
H56 C55 0.959 . S
H57 C55 0.960 . S
H58 C55 0.961 . S
O59 Co34 1.967 . S
O59 C67 1.258 . S
O60 Co35 1.941 . S
O60 C67 1.266 . S
H61 C63 0.959 . S
H62 C63 0.961 . S
C63 C53 1.510 . S
C63 H61 0.959 . S
C63 H62 0.961 . S
C63 H64 0.960 . S
H64 C63 0.960 . S
H65 N45 0.862 . S
O66 Co34 1.920 . S
O66 C39 1.289 . S
C67 O59 1.258 . S
C67 O60 1.266 . S
Co68 O71 1.970 . S
Co68 N85 1.989 . S
Co68 O93 1.967 . S
Co68 O100 1.920 . S
Co69 O72 1.966 . S
Co69 N78 2.027 . S
Co69 N86 1.993 . S
Co69 O94 1.941 . S
C70 O71 1.258 . S
C70 O72 1.263 . S
O71 Co68 1.970 . S
O71 C70 1.258 . S
O72 Co69 1.966 . S
O72 C70 1.263 . S
C73 O74 1.235 . S
C73 O100 1.289 . S
O74 C73 1.235 . S
C75 C77 1.400 . S
C75 N78 1.347 1_554 S
C75 C80 1.501 . S
C76 C77 1.387 . S
C76 N79 1.341 . S
C77 C75 1.400 . S
C77 C76 1.387 . S
N78 Co69 2.027 . S
N78 C75 1.347 1_556 S
N78 N79 1.364 1_556 S
N79 C76 1.341 . S
N79 N78 1.364 1_554 S
N79 H99 0.862 1_554 S
C80 C75 1.501 . S
C80 H81 0.961 . S
C80 H82 0.961 . S
C80 H83 0.960 . S
H81 C80 0.961 . S
H82 C80 0.961 . S
H83 C80 0.960 . S
C84 N85 1.342 . S
C84 C88 1.401 . S
C84 C89 1.499 . S
N85 Co68 1.989 . S
N85 C84 1.342 . S
N85 N86 1.388 . S
N86 Co69 1.993 . S
N86 N85 1.388 . S
N86 C87 1.346 . S
C87 N86 1.346 . S
C87 C88 1.396 . S
C87 C97 1.510 . S
C88 C84 1.401 . S
C88 C87 1.396 . S
C89 C84 1.499 . S
C89 H90 0.959 . S
C89 H91 0.960 . S
C89 H92 0.961 . S
H90 C89 0.959 . S
H91 C89 0.960 . S
H92 C89 0.961 . S
O93 Co68 1.967 . S
O93 C101 1.258 . S
O94 Co69 1.941 . S
O94 C101 1.266 . S
H95 C97 0.959 . S
H96 C97 0.961 . S
C97 C87 1.510 . S
C97 H95 0.959 . S
C97 H96 0.961 . S
C97 H98 0.960 . S
H98 C97 0.960 . S
H99 N79 0.862 1_556 S
O100 Co68 1.920 . S
O100 C73 1.289 . S
C101 O93 1.258 . S
C101 O94 1.266 . S
Co102 O105 1.970 . S
Co102 N119 1.989 . S
Co102 O127 1.967 . S
Co102 O134 1.920 1_554 S
Co103 O106 1.966 . S
Co103 N112 2.022 . S
Co103 N120 1.993 . S
Co103 O128 1.941 . S
C104 O105 1.258 . S
C104 O106 1.263 . S
O105 Co102 1.970 . S
O105 C104 1.258 . S
O106 Co103 1.966 . S
O106 C104 1.263 . S
C107 O108 1.235 . S
C107 O134 1.289 . S
O108 C107 1.235 . S
C109 C111 1.400 . S
C109 N112 1.351 . S
C109 C114 1.501 . S
C110 C111 1.387 . S
C110 N113 1.341 . S
C111 C109 1.400 . S
C111 C110 1.387 . S
N112 Co103 2.022 . S
N112 C109 1.351 . S
N112 N113 1.365 . S
N113 C110 1.341 . S
N113 N112 1.365 . S
N113 H133 0.862 . S
C114 C109 1.501 . S
C114 H115 0.961 . S
C114 H116 0.961 . S
C114 H117 0.960 . S
H115 C114 0.961 . S
H116 C114 0.961 . S
H117 C114 0.960 . S
C118 N119 1.342 . S
C118 C122 1.401 . S
C118 C123 1.499 . S
N119 Co102 1.989 . S
N119 C118 1.342 . S
N119 N120 1.388 . S
N120 Co103 1.993 . S
N120 N119 1.388 . S
N120 C121 1.346 . S
C121 N120 1.346 . S
C121 C122 1.396 . S
C121 C131 1.510 . S
C122 C118 1.401 . S
C122 C121 1.396 . S
C123 C118 1.499 . S
C123 H124 0.959 1_554 S
C123 H125 0.960 . S
C123 H126 0.963 . S
H124 C123 0.959 1_556 S
H125 C123 0.960 . S
H126 C123 0.963 . S
O127 Co102 1.967 . S
O127 C135 1.258 . S
O128 Co103 1.941 . S
O128 C135 1.266 . S
H129 C131 0.959 . S
H130 C131 0.961 . S
C131 C121 1.510 . S
C131 H129 0.959 . S
C131 H130 0.961 . S
C131 H132 0.960 . S
H132 C131 0.960 . S
H133 N113 0.862 . S
O134 Co102 1.920 1_556 S
O134 C107 1.289 . S
C135 O127 1.258 . S
C135 O128 1.266 . S
Co136 O139 1.970 . S
Co136 N153 1.989 . S
Co136 O161 1.967 . S
Co136 O168 1.920 . S
Co137 O140 1.966 . S
Co137 N146 2.022 . S
Co137 N154 1.993 . S
Co137 O162 1.941 . S
C138 O139 1.258 . S
C138 O140 1.263 . S
O139 Co136 1.970 . S
O139 C138 1.258 . S
O140 Co137 1.966 . S
O140 C138 1.263 . S
C141 O142 1.235 . S
C141 O168 1.289 . S
O142 C141 1.235 . S
C143 C145 1.400 . S
C143 N146 1.351 . S
C143 C148 1.501 . S
C144 C145 1.387 . S
C144 N147 1.341 . S
C145 C143 1.400 . S
C145 C144 1.387 . S
N146 Co137 2.022 . S
N146 C143 1.351 . S
N146 N147 1.365 . S
N147 C144 1.341 . S
N147 N146 1.365 . S
N147 H167 0.862 . S
C148 C143 1.501 . S
C148 H149 0.961 . S
C148 H150 0.961 . S
C148 H151 0.960 . S
H149 C148 0.961 . S
H150 C148 0.961 . S
H151 C148 0.960 . S
C152 N153 1.342 . S
C152 C156 1.401 . S
C152 C157 1.499 . S
N153 Co136 1.989 . S
N153 C152 1.342 . S
N153 N154 1.388 . S
N154 Co137 1.993 . S
N154 N153 1.388 . S
N154 C155 1.346 . S
C155 N154 1.346 . S
C155 C156 1.396 . S
C155 C165 1.510 . S
C156 C152 1.401 . S
C156 C155 1.396 . S
C157 C152 1.499 . S
C157 H158 0.959 . S
C157 H159 0.960 . S
C157 H160 0.961 . S
H158 C157 0.959 . S
H159 C157 0.960 . S
H160 C157 0.961 . S
O161 Co136 1.967 . S
O161 C169 1.258 . S
O162 Co137 1.941 . S
O162 C169 1.266 . S
H163 C165 0.959 . S
H164 C165 0.961 . S
C165 C155 1.510 . S
C165 H163 0.959 . S
C165 H164 0.961 . S
C165 H166 0.960 . S
H166 C165 0.960 . S
H167 N147 0.862 . S
O168 Co136 1.920 . S
O168 C141 1.289 . S
C169 O161 1.258 . S
C169 O162 1.266 . S
Co170 O173 1.970 . S
Co170 N187 1.989 . S
Co170 O195 1.967 . S
Co170 O202 1.920 . S
Co171 O174 1.966 . S
Co171 N180 2.027 . S
Co171 N188 1.993 . S
Co171 O196 1.941 . S
C172 O173 1.258 . S
C172 O174 1.263 . S
O173 Co170 1.970 . S
O173 C172 1.258 . S
O174 Co171 1.966 . S
O174 C172 1.263 . S
C175 O176 1.235 . S
C175 O202 1.289 . S
O176 C175 1.235 . S
C177 C179 1.400 . S
C177 N180 1.347 1_554 S
C177 C182 1.501 . S
C178 C179 1.387 . S
C178 N181 1.341 . S
C179 C177 1.400 . S
C179 C178 1.387 . S
N180 Co171 2.027 . S
N180 C177 1.347 1_556 S
N180 N181 1.364 1_556 S
N181 C178 1.341 . S
N181 N180 1.364 1_554 S
N181 H201 0.862 1_554 S
C182 C177 1.501 . S
C182 H183 0.961 . S
C182 H184 0.961 . S
C182 H185 0.960 . S
H183 C182 0.961 . S
H184 C182 0.961 . S
H185 C182 0.960 . S
C186 N187 1.342 . S
C186 C190 1.401 . S
C186 C191 1.499 . S
N187 Co170 1.989 . S
N187 C186 1.342 . S
N187 N188 1.388 . S
N188 Co171 1.993 . S
N188 N187 1.388 . S
N188 C189 1.346 . S
C189 N188 1.346 . S
C189 C190 1.396 . S
C189 C199 1.510 . S
C190 C186 1.401 . S
C190 C189 1.396 . S
C191 C186 1.499 . S
C191 H192 0.959 . S
C191 H193 0.960 . S
C191 H194 0.961 . S
H192 C191 0.959 . S
H193 C191 0.960 . S
H194 C191 0.961 . S
O195 Co170 1.967 . S
O195 C203 1.258 . S
O196 Co171 1.941 . S
O196 C203 1.266 . S
H197 C199 0.959 . S
H198 C199 0.961 . S
C199 C189 1.510 . S
C199 H197 0.959 . S
C199 H198 0.961 . S
C199 H200 0.960 . S
H200 C199 0.960 . S
H201 N181 0.862 1_556 S
O202 Co170 1.920 . S
O202 C175 1.289 . S
C203 O195 1.258 . S
C203 O196 1.266 . S
H204 C205 0.951 . S
C205 H204 0.951 . S
C205 C211 1.265 . S
H206 C211 0.950 . S
H207 C215 0.949 1_556 S
H208 C216 0.950 . S
H209 C217 0.951 . S
H210 C218 0.951 . S
C211 C205 1.265 . S
C211 H206 0.950 . S
C211 C212 1.478 . S
C212 C211 1.478 . S
C212 C213 1.397 . S
C212 C229 1.394 1_554 S
C213 C212 1.397 . S
C213 C214 1.438 1_554 S
C213 C218 1.429 . S
C214 C213 1.438 1_556 S
C214 C215 1.428 1_556 S
C214 C227 1.394 . S
C215 H207 0.949 1_554 S
C215 C214 1.428 1_554 S
C215 C216 1.345 . S
C216 H208 0.950 . S
C216 C215 1.345 . S
C216 C217 1.424 . S
C217 H209 0.951 . S
C217 C216 1.424 . S
C217 C218 1.347 . S
C218 H210 0.951 . S
C218 C213 1.429 . S
C218 C217 1.347 . S
H219 C220 0.951 . S
C220 H219 0.951 . S
C220 C226 1.265 . S
H221 C226 0.950 . S
H222 C230 0.949 . S
H223 C231 0.950 . S
H224 C232 0.951 . S
H225 C233 0.951 . S
C226 C220 1.265 . S
C226 H221 0.950 . S
C226 C227 1.478 . S
C227 C214 1.394 . S
C227 C226 1.478 . S
C227 C228 1.397 . S
C228 C227 1.397 . S
C228 C229 1.438 . S
C228 C233 1.429 . S
C229 C212 1.394 1_556 S
C229 C228 1.438 . S
C229 C230 1.428 . S
C230 H222 0.949 . S
C230 C229 1.428 . S
C230 C231 1.345 . S
C231 H223 0.950 . S
C231 C230 1.345 . S
C231 C232 1.424 . S
C232 H224 0.951 . S
C232 C231 1.424 . S
C232 C233 1.347 . S
C233 H225 0.951 . S
C233 C228 1.429 . S
C233 C232 1.347 . S
H234 C235 0.951 . S
C235 H234 0.951 . S
C235 C241 1.265 . S
H236 C241 0.950 . S
H237 C245 0.949 . S
H238 C246 0.950 . S
H239 C247 0.951 . S
H240 C248 0.951 . S
C241 C235 1.265 . S
C241 H236 0.950 . S
C241 C242 1.478 . S
C242 C241 1.478 . S
C242 C243 1.397 . S
C242 C259 1.394 . S
C243 C242 1.397 . S
C243 C244 1.438 . S
C243 C248 1.429 . S
C244 C243 1.438 . S
C244 C245 1.428 . S
C244 C257 1.394 . S
C245 H237 0.949 . S
C245 C244 1.428 . S
C245 C246 1.345 . S
C246 H238 0.950 . S
C246 C245 1.345 . S
C246 C247 1.424 . S
C247 H239 0.951 . S
C247 C246 1.424 . S
C247 C248 1.347 . S
C248 H240 0.951 . S
C248 C243 1.429 . S
C248 C247 1.347 . S
H249 C250 0.951 . S
C250 H249 0.951 . S
C250 C256 1.265 . S
H251 C256 0.950 . S
H252 C260 0.949 . S
H253 C261 0.950 . S
H254 C262 0.951 . S
H255 C263 0.951 . S
C256 C250 1.265 . S
C256 H251 0.950 . S
C256 C257 1.478 . S
C257 C244 1.394 . S
C257 C256 1.478 . S
C257 C258 1.397 . S
C258 C257 1.397 . S
C258 C259 1.438 . S
C258 C263 1.429 . S
C259 C242 1.394 . S
C259 C258 1.438 . S
C259 C260 1.428 . S
C260 H252 0.949 . S
C260 C259 1.428 . S
C260 C261 1.345 . S
C261 H253 0.950 . S
C261 C260 1.345 . S
C261 C262 1.424 . S
C262 H254 0.951 . S
C262 C261 1.424 . S
C262 C263 1.347 . S
C263 H255 0.951 . S
C263 C258 1.429 . S
C263 C262 1.347 . S
H264 C265 0.951 . S
C265 H264 0.951 . S
C265 C271 1.265 . S
H266 C271 0.950 . S
H267 C275 0.949 . S
H268 C276 0.950 . S
H269 C277 0.951 . S
H270 C278 0.951 . S
C271 C265 1.265 . S
C271 H266 0.950 . S
C271 C272 1.478 . S
C272 C271 1.478 . S
C272 C273 1.397 . S
C272 C289 1.394 . S
C273 C272 1.397 . S
C273 C274 1.438 . S
C273 C278 1.429 . S
C274 C273 1.438 . S
C274 C275 1.428 . S
C274 C287 1.394 . S
C275 H267 0.949 . S
C275 C274 1.428 . S
C275 C276 1.345 . S
C276 H268 0.950 . S
C276 C275 1.345 . S
C276 C277 1.424 . S
C277 H269 0.951 . S
C277 C276 1.424 . S
C277 C278 1.347 . S
C278 H270 0.951 . S
C278 C273 1.429 . S
C278 C277 1.347 . S
H279 C280 0.951 . S
C280 H279 0.951 . S
C280 C286 1.265 . S
H281 C286 0.950 . S
H282 C290 0.949 . S
H283 C291 0.950 . S
H284 C292 0.951 . S
H285 C293 0.951 . S
C286 C280 1.265 . S
C286 H281 0.950 . S
C286 C287 1.478 . S
C287 C274 1.394 . S
C287 C286 1.478 . S
C287 C288 1.397 . S
C288 C287 1.397 . S
C288 C289 1.438 . S
C288 C293 1.429 . S
C289 C272 1.394 . S
C289 C288 1.438 . S
C289 C290 1.428 . S
C290 H282 0.949 . S
C290 C289 1.428 . S
C290 C291 1.345 . S
C291 H283 0.950 . S
C291 C290 1.345 . S
C291 C292 1.424 . S
C292 H284 0.951 . S
C292 C291 1.424 . S
C292 C293 1.347 . S
C293 H285 0.951 . S
C293 C288 1.429 . S
C293 C292 1.347 . S
H294 C295 0.951 . S
C295 H294 0.951 . S
C295 C301 1.265 . S
H296 C301 0.950 . S
H297 C305 0.949 . S
H298 C306 0.950 . S
H299 C307 0.951 . S
H300 C308 0.951 . S
C301 C295 1.265 . S
C301 H296 0.950 . S
C301 C302 1.478 . S
C302 C301 1.478 . S
C302 C303 1.397 . S
C302 C319 1.394 . S
C303 C302 1.397 . S
C303 C304 1.438 . S
C303 C308 1.429 . S
C304 C303 1.438 . S
C304 C305 1.428 . S
C304 C317 1.394 1_556 S
C305 H297 0.949 . S
C305 C304 1.428 . S
C305 C306 1.345 . S
C306 H298 0.950 . S
C306 C305 1.345 . S
C306 C307 1.424 . S
C307 H299 0.951 . S
C307 C306 1.424 . S
C307 C308 1.347 . S
C308 H300 0.951 . S
C308 C303 1.429 . S
C308 C307 1.347 . S
H309 C310 0.951 . S
C310 H309 0.951 . S
C310 C316 1.265 . S
H311 C316 0.950 . S
H312 C320 0.946 1_556 S
H313 C321 0.950 . S
H314 C322 0.951 . S
H315 C323 0.951 . S
C316 C310 1.265 . S
C316 H311 0.950 . S
C316 C317 1.478 . S
C317 C304 1.394 1_554 S
C317 C316 1.478 . S
C317 C318 1.397 . S
C318 C317 1.397 . S
C318 C319 1.438 1_554 S
C318 C323 1.429 . S
C319 C302 1.394 . S
C319 C318 1.438 1_556 S
C319 C320 1.427 1_556 S
C320 H312 0.946 1_554 S
C320 C319 1.427 1_554 S
C320 C321 1.348 . S
C321 H313 0.950 . S
C321 C320 1.348 . S
C321 C322 1.424 . S
C322 H314 0.951 . S
C322 C321 1.424 . S
C322 C323 1.347 . S
C323 H315 0.951 . S
C323 C318 1.429 . S
C323 C322 1.347 . S
H324 C325 0.951 . S
C325 H324 0.951 . S
C325 C331 1.265 . S
H326 C331 0.950 . S
H327 C335 0.949 . S
H328 C336 0.950 . S
H329 C337 0.951 . S
H330 C338 0.951 . S
C331 C325 1.265 . S
C331 H326 0.950 . S
C331 C332 1.478 . S
C332 C331 1.478 . S
C332 C333 1.397 . S
C332 C349 1.394 . S
C333 C332 1.397 . S
C333 C334 1.438 . S
C333 C338 1.429 . S
C334 C333 1.438 . S
C334 C335 1.428 . S
C334 C347 1.394 . S
C335 H327 0.949 . S
C335 C334 1.428 . S
C335 C336 1.345 . S
C336 H328 0.950 . S
C336 C335 1.345 . S
C336 C337 1.424 . S
C337 H329 0.951 . S
C337 C336 1.424 . S
C337 C338 1.347 . S
C338 H330 0.951 . S
C338 C333 1.429 . S
C338 C337 1.347 . S
H339 C340 0.951 . S
C340 H339 0.951 . S
C340 C346 1.265 . S
H341 C346 0.950 . S
H342 C350 0.949 . S
H343 C351 0.950 . S
H344 C352 0.951 . S
H345 C353 0.951 . S
C346 C340 1.265 . S
C346 H341 0.950 . S
C346 C347 1.478 . S
C347 C334 1.394 . S
C347 C346 1.478 . S
C347 C348 1.397 . S
C348 C347 1.397 . S
C348 C349 1.438 . S
C348 C353 1.429 . S
C349 C332 1.394 . S
C349 C348 1.438 . S
C349 C350 1.428 . S
C350 H342 0.949 . S
C350 C349 1.428 . S
C350 C351 1.345 . S
C351 H343 0.950 . S
C351 C350 1.345 . S
C351 C352 1.424 . S
C352 H344 0.951 . S
C352 C351 1.424 . S
C352 C353 1.347 . S
C353 H345 0.951 . S
C353 C348 1.429 . S
C353 C352 1.347 . S
H354 C355 0.951 . S
C355 H354 0.951 . S
C355 C361 1.265 . S
H356 C361 0.950 . S
H357 C365 0.949 . S
H358 C366 0.950 . S
H359 C367 0.951 . S
H360 C368 0.951 . S
C361 C355 1.265 . S
C361 H356 0.950 . S
C361 C362 1.478 . S
C362 C361 1.478 . S
C362 C363 1.397 . S
C362 C379 1.394 . S
C363 C362 1.397 . S
C363 C364 1.438 . S
C363 C368 1.429 . S
C364 C363 1.438 . S
C364 C365 1.428 . S
C364 C377 1.394 . S
C365 H357 0.949 . S
C365 C364 1.428 . S
C365 C366 1.345 . S
C366 H358 0.950 . S
C366 C365 1.345 . S
C366 C367 1.424 . S
C367 H359 0.951 . S
C367 C366 1.424 . S
C367 C368 1.347 . S
C368 H360 0.951 . S
C368 C363 1.429 . S
C368 C367 1.347 . S
H369 C370 0.951 . S
C370 H369 0.951 . S
C370 C376 1.265 . S
H371 C376 0.950 . S
H372 C380 0.949 . S
H373 C381 0.950 . S
H374 C382 0.951 . S
H375 C383 0.951 . S
C376 C370 1.265 . S
C376 H371 0.950 . S
C376 C377 1.478 . S
C377 C364 1.394 . S
C377 C376 1.478 . S
C377 C378 1.397 . S
C378 C377 1.397 . S
C378 C379 1.438 . S
C378 C383 1.429 . S
C379 C362 1.394 . S
C379 C378 1.438 . S
C379 C380 1.428 . S
C380 H372 0.949 . S
C380 C379 1.428 . S
C380 C381 1.345 . S
C381 H373 0.950 . S
C381 C380 1.345 . S
C381 C382 1.424 . S
C382 H374 0.951 . S
C382 C381 1.424 . S
C382 C383 1.347 . S
C383 H375 0.951 . S
C383 C378 1.429 . S
C383 C382 1.347 . S
H384 C385 0.951 . S
C385 H384 0.951 . S
C385 C391 1.265 . S
H386 C391 0.950 . S
H387 C395 0.949 . S
H388 C396 0.950 . S
H389 C397 0.951 . S
H390 C398 0.951 . S
C391 C385 1.265 . S
C391 H386 0.950 . S
C391 C392 1.478 . S
C392 C391 1.478 . S
C392 C393 1.397 . S
C392 C409 1.394 . S
C393 C392 1.397 . S
C393 C394 1.438 . S
C393 C398 1.429 . S
C394 C393 1.438 . S
C394 C395 1.428 . S
C394 C407 1.394 . S
C395 H387 0.949 . S
C395 C394 1.428 . S
C395 C396 1.345 . S
C396 H388 0.950 . S
C396 C395 1.345 . S
C396 C397 1.424 . S
C397 H389 0.951 . S
C397 C396 1.424 . S
C397 C398 1.347 . S
C398 H390 0.951 . S
C398 C393 1.429 . S
C398 C397 1.347 . S
H399 C400 0.951 . S
C400 H399 0.951 . S
C400 C406 1.265 . S
H401 C406 0.950 . S
H402 C410 0.949 . S
H403 C411 0.950 . S
H404 C412 0.951 . S
H405 C413 0.951 . S
C406 C400 1.265 . S
C406 H401 0.950 . S
C406 C407 1.478 . S
C407 C394 1.394 . S
C407 C406 1.478 . S
C407 C408 1.397 . S
C408 C407 1.397 . S
C408 C409 1.438 . S
C408 C413 1.429 . S
C409 C392 1.394 . S
C409 C408 1.438 . S
C409 C410 1.428 . S
C410 H402 0.949 . S
C410 C409 1.428 . S
C410 C411 1.345 . S
C411 H403 0.950 . S
C411 C410 1.345 . S
C411 C412 1.424 . S
C412 H404 0.951 . S
C412 C411 1.424 . S
C412 C413 1.347 . S
C413 H405 0.951 . S
C413 C408 1.429 . S
C413 C412 1.347 . S
H414 C415 0.951 . S
C415 H414 0.951 . S
C415 C421 1.265 . S
H416 C421 0.950 . S
H417 C425 0.949 . S
H418 C426 0.950 . S
H419 C427 0.951 1_556 S
H420 C428 0.951 . S
C421 C415 1.265 . S
C421 H416 0.950 . S
C421 C422 1.478 . S
C422 C421 1.478 . S
C422 C423 1.397 . S
C422 C439 1.394 . S
C423 C422 1.397 . S
C423 C424 1.438 1_556 S
C423 C428 1.429 . S
C424 C423 1.438 1_554 S
C424 C425 1.428 . S
C424 C437 1.394 . S
C425 H417 0.949 . S
C425 C424 1.428 . S
C425 C426 1.345 . S
C426 H418 0.950 . S
C426 C425 1.345 . S
C426 C427 1.424 . S
C427 H419 0.951 1_554 S
C427 C426 1.424 . S
C427 C428 1.347 1_554 S
C428 H420 0.951 . S
C428 C423 1.429 . S
C428 C427 1.347 1_556 S
H429 C430 0.951 . S
C430 H429 0.951 . S
C430 C436 1.265 . S
H431 C436 0.950 . S
H432 C440 0.949 . S
H433 C441 0.950 . S
H434 C442 0.951 . S
H435 C443 0.951 . S
C436 C430 1.265 . S
C436 H431 0.950 . S
C436 C437 1.478 . S
C437 C424 1.394 . S
C437 C436 1.478 . S
C437 C438 1.397 . S
C438 C437 1.397 . S
C438 C439 1.438 1_554 S
C438 C443 1.429 . S
C439 C422 1.394 . S
C439 C438 1.438 1_556 S
C439 C440 1.428 . S
C440 H432 0.949 . S
C440 C439 1.428 . S
C440 C441 1.345 . S
C441 H433 0.950 . S
C441 C440 1.345 . S
C441 C442 1.424 1_556 S
C442 H434 0.951 . S
C442 C441 1.424 1_554 S
C442 C443 1.347 . S
C443 H435 0.951 . S
C443 C438 1.429 . S
C443 C442 1.347 . S
H444 C445 0.951 . S
C445 H444 0.951 . S
C445 C451 1.265 . S
H446 C451 0.950 . S
H447 C455 0.949 . S
H448 C456 0.950 . S
H449 C457 0.951 . S
H450 C458 0.951 . S
C451 C445 1.265 . S
C451 H446 0.950 . S
C451 C452 1.478 . S
C452 C451 1.478 . S
C452 C453 1.397 . S
C452 C469 1.394 . S
C453 C452 1.397 . S
C453 C454 1.438 . S
C453 C458 1.429 . S
C454 C453 1.438 . S
C454 C455 1.428 . S
C454 C467 1.394 . S
C455 H447 0.949 . S
C455 C454 1.428 . S
C455 C456 1.345 . S
C456 H448 0.950 . S
C456 C455 1.345 . S
C456 C457 1.424 . S
C457 H449 0.951 . S
C457 C456 1.424 . S
C457 C458 1.347 . S
C458 H450 0.951 . S
C458 C453 1.429 . S
C458 C457 1.347 . S
H459 C460 0.951 . S
C460 H459 0.951 . S
C460 C466 1.265 . S
H461 C466 0.950 . S
H462 C470 0.949 . S
H463 C471 0.950 . S
H464 C472 0.951 . S
H465 C473 0.951 . S
C466 C460 1.265 . S
C466 H461 0.950 . S
C466 C467 1.478 . S
C467 C454 1.394 . S
C467 C466 1.478 . S
C467 C468 1.397 . S
C468 C467 1.397 . S
C468 C469 1.438 . S
C468 C473 1.429 . S
C469 C452 1.394 . S
C469 C468 1.438 . S
C469 C470 1.428 . S
C470 H462 0.949 . S
C470 C469 1.428 . S
C470 C471 1.345 . S
C471 H463 0.950 . S
C471 C470 1.345 . S
C471 C472 1.424 . S
C472 H464 0.951 . S
C472 C471 1.424 . S
C472 C473 1.347 . S
C473 H465 0.951 . S
C473 C468 1.429 . S
C473 C472 1.347 . S
H474 C475 0.951 . S
C475 H474 0.951 . S
C475 C481 1.265 . S
H476 C481 0.950 . S
H477 C485 0.949 . S
H478 C486 0.950 . S
H479 C487 0.951 . S
H480 C488 0.951 . S
C481 C475 1.265 . S
C481 H476 0.950 . S
C481 C482 1.478 . S
C482 C481 1.478 . S
C482 C483 1.397 . S
C482 C499 1.394 . S
C483 C482 1.397 . S
C483 C484 1.438 . S
C483 C488 1.429 . S
C484 C483 1.438 . S
C484 C485 1.428 . S
C484 C497 1.394 . S
C485 H477 0.949 . S
C485 C484 1.428 . S
C485 C486 1.345 . S
C486 H478 0.950 . S
C486 C485 1.345 . S
C486 C487 1.424 . S
C487 H479 0.951 . S
C487 C486 1.424 . S
C487 C488 1.347 . S
C488 H480 0.951 . S
C488 C483 1.429 . S
C488 C487 1.347 . S
H489 C490 0.951 . S
C490 H489 0.951 . S
C490 C496 1.265 . S
H491 C496 0.950 . S
H492 C500 0.949 . S
H493 C501 0.950 . S
H494 C502 0.951 . S
H495 C503 0.951 . S
C496 C490 1.265 . S
C496 H491 0.950 . S
C496 C497 1.478 . S
C497 C484 1.394 . S
C497 C496 1.478 . S
C497 C498 1.397 . S
C498 C497 1.397 . S
C498 C499 1.438 . S
C498 C503 1.429 . S
C499 C482 1.394 . S
C499 C498 1.438 . S
C499 C500 1.428 . S
C500 H492 0.949 . S
C500 C499 1.428 . S
C500 C501 1.345 . S
C501 H493 0.950 . S
C501 C500 1.345 . S
C501 C502 1.424 . S
C502 H494 0.951 . S
C502 C501 1.424 . S
C502 C503 1.347 . S
C503 H495 0.951 . S
C503 C498 1.429 . S
C503 C502 1.347 . S
H504 C505 0.951 . S
C505 H504 0.951 . S
C505 C511 1.265 . S
H506 C511 0.950 . S
H507 C515 0.949 . S
H508 C516 0.950 . S
H509 C517 0.951 . S
H510 C518 0.951 . S
C511 C505 1.265 . S
C511 H506 0.950 . S
C511 C512 1.478 . S
C512 C511 1.478 . S
C512 C513 1.397 . S
C512 C529 1.394 . S
C513 C512 1.397 . S
C513 C514 1.438 1_554 S
C513 C518 1.429 . S
C514 C513 1.438 1_556 S
C514 C515 1.428 . S
C514 C527 1.394 . S
C515 H507 0.949 . S
C515 C514 1.428 . S
C515 C516 1.345 . S
C516 H508 0.950 . S
C516 C515 1.345 . S
C516 C517 1.424 1_556 S
C517 H509 0.951 . S
C517 C516 1.424 1_554 S
C517 C518 1.347 . S
C518 H510 0.951 . S
C518 C513 1.429 . S
C518 C517 1.347 . S
H519 C520 0.951 . S
C520 H519 0.951 . S
C520 C526 1.265 . S
H521 C526 0.950 . S
H522 C530 0.949 . S
H523 C531 0.950 . S
H524 C532 0.951 1_556 S
H525 C533 0.951 . S
C526 C520 1.265 . S
C526 H521 0.950 . S
C526 C527 1.478 . S
C527 C514 1.394 . S
C527 C526 1.478 . S
C527 C528 1.397 . S
C528 C527 1.397 . S
C528 C529 1.438 1_556 S
C528 C533 1.429 . S
C529 C512 1.394 . S
C529 C528 1.438 1_554 S
C529 C530 1.428 . S
C530 H522 0.949 . S
C530 C529 1.428 . S
C530 C531 1.345 . S
C531 H523 0.950 . S
C531 C530 1.345 . S
C531 C532 1.424 . S
C532 H524 0.951 1_554 S
C532 C531 1.424 . S
C532 C533 1.347 1_554 S
C533 H525 0.951 . S
C533 C528 1.429 . S
C533 C532 1.347 1_556 S
H534 C535 0.951 . S
C535 H534 0.951 . S
C535 C541 1.265 . S
H536 C541 0.950 . S
H537 C545 0.949 . S
H538 C546 0.950 . S
H539 C547 0.951 . S
H540 C548 0.951 . S
C541 C535 1.265 . S
C541 H536 0.950 . S
C541 C542 1.478 . S
C542 C541 1.478 . S
C542 C543 1.397 . S
C542 C559 1.394 . S
C543 C542 1.397 . S
C543 C544 1.438 . S
C543 C548 1.429 . S
C544 C543 1.438 . S
C544 C545 1.428 . S
C544 C557 1.394 . S
C545 H537 0.949 . S
C545 C544 1.428 . S
C545 C546 1.345 . S
C546 H538 0.950 . S
C546 C545 1.345 . S
C546 C547 1.424 . S
C547 H539 0.951 . S
C547 C546 1.424 . S
C547 C548 1.347 . S
C548 H540 0.951 . S
C548 C543 1.429 . S
C548 C547 1.347 . S
H549 C550 0.951 . S
C550 H549 0.951 . S
C550 C556 1.265 . S
H551 C556 0.950 . S
H552 C560 0.949 . S
H553 C561 0.950 . S
H554 C562 0.951 . S
H555 C563 0.951 . S
C556 C550 1.265 . S
C556 H551 0.950 . S
C556 C557 1.478 . S
C557 C544 1.394 . S
C557 C556 1.478 . S
C557 C558 1.397 . S
C558 C557 1.397 . S
C558 C559 1.438 . S
C558 C563 1.429 . S
C559 C542 1.394 . S
C559 C558 1.438 . S
C559 C560 1.428 . S
C560 H552 0.949 . S
C560 C559 1.428 . S
C560 C561 1.345 . S
C561 H553 0.950 . S
C561 C560 1.345 . S
C561 C562 1.424 . S
C562 H554 0.951 . S
C562 C561 1.424 . S
C562 C563 1.347 . S
C563 H555 0.951 . S
C563 C558 1.429 . S
C563 C562 1.347 . S
H564 C565 0.951 . S
C565 H564 0.951 . S
C565 C571 1.265 . S
H566 C571 0.950 . S
H567 C575 0.949 . S
H568 C576 0.950 . S
H569 C577 0.954 1_655 S
H570 C578 0.951 . S
C571 C565 1.265 . S
C571 H566 0.950 . S
C571 C572 1.478 . S
C572 C571 1.478 . S
C572 C573 1.397 . S
C572 C589 1.394 . S
C573 C572 1.397 . S
C573 C574 1.438 1_655 S
C573 C578 1.429 . S
C574 C573 1.438 1_455 S
C574 C575 1.428 . S
C574 C587 1.394 . S
C575 H567 0.949 . S
C575 C574 1.428 . S
C575 C576 1.345 1_554 S
C576 H568 0.950 . S
C576 C575 1.345 1_556 S
C576 C577 1.424 . S
C577 H569 0.954 1_455 S
C577 C576 1.424 . S
C577 C578 1.347 1_456 S
C578 H570 0.951 . S
C578 C573 1.429 . S
C578 C577 1.347 1_654 S
H579 C580 0.951 . S
C580 H579 0.951 . S
C580 C586 1.265 . S
H581 C586 0.950 . S
H582 C590 0.949 . S
H583 C591 0.950 . S
H584 C592 0.954 1_455 S
H585 C593 0.951 . S
C586 C580 1.265 . S
C586 H581 0.950 . S
C586 C587 1.478 . S
C587 C574 1.394 . S
C587 C586 1.478 . S
C587 C588 1.397 . S
C588 C587 1.397 . S
C588 C589 1.438 1_455 S
C588 C593 1.429 . S
C589 C572 1.394 . S
C589 C588 1.438 1_655 S
C589 C590 1.428 . S
C590 H582 0.949 . S
C590 C589 1.428 . S
C590 C591 1.345 . S
C591 H583 0.950 . S
C591 C590 1.345 . S
C591 C592 1.424 . S
C592 H584 0.954 1_655 S
C592 C591 1.424 . S
C592 C593 1.347 1_655 S
C593 H585 0.951 . S
C593 C588 1.429 . S
C593 C592 1.347 1_455 S
H594 C595 0.951 . S
C595 H594 0.951 . S
C595 C601 1.265 . S
H596 C601 0.950 . S
H597 C605 0.949 . S
H598 C606 0.950 . S
H599 C607 0.954 . S
H600 C608 0.951 . S
C601 C595 1.265 . S
C601 H596 0.950 . S
C601 C602 1.478 . S
C602 C601 1.478 . S
C602 C603 1.397 . S
C602 C619 1.394 . S
C603 C602 1.397 . S
C603 C604 1.438 1_545 S
C603 C608 1.429 . S
C604 C603 1.438 1_565 S
C604 C605 1.428 . S
C604 C617 1.394 . S
C605 H597 0.949 . S
C605 C604 1.428 . S
C605 C606 1.345 . S
C606 H598 0.950 . S
C606 C605 1.345 . S
C606 C607 1.424 . S
C607 H599 0.954 . S
C607 C606 1.424 . S
C607 C608 1.347 1_565 S
C608 H600 0.951 . S
C608 C603 1.429 . S
C608 C607 1.347 1_545 S
H609 C610 0.951 . S
C610 H609 0.951 . S
C610 C616 1.265 . S
H611 C616 0.950 . S
H612 C620 0.949 . S
H613 C621 0.950 . S
H614 C622 0.954 . S
H615 C623 0.951 . S
C616 C610 1.265 . S
C616 H611 0.950 . S
C616 C617 1.478 . S
C617 C604 1.394 . S
C617 C616 1.478 . S
C617 C618 1.397 . S
C618 C617 1.397 . S
C618 C619 1.438 1_565 S
C618 C623 1.429 . S
C619 C602 1.394 . S
C619 C618 1.438 1_545 S
C619 C620 1.428 . S
C620 H612 0.949 . S
C620 C619 1.428 . S
C620 C621 1.345 . S
C621 H613 0.950 . S
C621 C620 1.345 . S
C621 C622 1.424 . S
C622 H614 0.954 . S
C622 C621 1.424 . S
C622 C623 1.347 1_545 S
C623 H615 0.951 . S
C623 C618 1.429 . S
C623 C622 1.347 1_565 S
H624 C625 0.951 . S
C625 H624 0.951 . S
C625 C631 1.265 . S
H626 C631 0.950 . S
H627 C635 0.949 . S
H628 C636 0.950 . S
H629 C637 0.951 . S
H630 C638 0.951 . S
C631 C625 1.265 . S
C631 H626 0.950 . S
C631 C632 1.478 . S
C632 C631 1.478 . S
C632 C633 1.397 . S
C632 C649 1.394 . S
C633 C632 1.397 . S
C633 C634 1.438 . S
C633 C638 1.429 . S
C634 C633 1.438 . S
C634 C635 1.428 . S
C634 C647 1.394 . S
C635 H627 0.949 . S
C635 C634 1.428 . S
C635 C636 1.345 . S
C636 H628 0.950 . S
C636 C635 1.345 . S
C636 C637 1.424 . S
C637 H629 0.951 . S
C637 C636 1.424 . S
C637 C638 1.347 . S
C638 H630 0.951 . S
C638 C633 1.429 . S
C638 C637 1.347 . S
H639 C640 0.951 . S
C640 H639 0.951 . S
C640 C646 1.265 . S
H641 C646 0.950 . S
H642 C650 0.949 . S
H643 C651 0.950 . S
H644 C652 0.951 . S
H645 C653 0.951 . S
C646 C640 1.265 . S
C646 H641 0.950 . S
C646 C647 1.478 . S
C647 C634 1.394 . S
C647 C646 1.478 . S
C647 C648 1.397 . S
C648 C647 1.397 . S
C648 C649 1.438 . S
C648 C653 1.429 . S
C649 C632 1.394 . S
C649 C648 1.438 . S
C649 C650 1.428 . S
C650 H642 0.949 . S
C650 C649 1.428 . S
C650 C651 1.345 . S
C651 H643 0.950 . S
C651 C650 1.345 . S
C651 C652 1.424 . S
C652 H644 0.951 . S
C652 C651 1.424 . S
C652 C653 1.347 . S
C653 H645 0.951 . S
C653 C648 1.429 . S
C653 C652 1.347 . S
C205 C33 1.451 . S
C220 C70 1.369 . S
C235 C67 1.441 . S
C250 C104 1.447 . S
C265 C138 1.464 . S
C280 C101 1.454 . S
C295 C172 1.409 . S
C310 C135 1.435 . S
C325 C169 1.487 . S
C340 C2 1.411 . S
C355 C36 1.447 . S
C370 C203 1.484 . S
C385 C5 1.198 . S
C400 C9 1.159 . S
C415 C43 1.165 . S
C430 C39 1.217 . S
C445 C73 1.153 . S
C460 C77 1.184 . S
C475 C107 1.172 . S
C490 C111 1.218 . S
C505 C141 1.147 . S
C520 C145 1.193 . S
C535 C179 1.177 . S
C550 C175 1.159 . S
C565 C122 1.502 . S
C580 C20 1.502 . S
C595 C54 1.502 . S
C610 C156 1.502 . S
C625 C88 1.531 . S
C640 C190 1.532 . S
