# Generated by pormake.
# Topology lcy-e, (6)-cn, num edge types: 1
# Building blocks:
#     Node 0, Type 0, BuildingBlock: INOVEN_clean_sbu_0, # of connection points: 6
#     Node 1, Type 0, BuildingBlock: INOVEN_clean_sbu_0, # of connection points: 6
#     Node 2, Type 0, BuildingBlock: INOVEN_clean_sbu_0, # of connection points: 6
#     Node 3, Type 0, BuildingBlock: INOVEN_clean_sbu_0, # of connection points: 6
#     Node 4, Type 0, BuildingBlock: INOVEN_clean_sbu_0, # of connection points: 6
#     Node 5, Type 0, BuildingBlock: INOVEN_clean_sbu_0, # of connection points: 6
#     Node 6, Type 0, BuildingBlock: INOVEN_clean_sbu_0, # of connection points: 6
#     Node 7, Type 0, BuildingBlock: INOVEN_clean_sbu_0, # of connection points: 6
#     Node 8, Type 0, BuildingBlock: INOVEN_clean_sbu_0, # of connection points: 6
#     Node 9, Type 0, BuildingBlock: INOVEN_clean_sbu_0, # of connection points: 6
#     Node 10, Type 0, BuildingBlock: INOVEN_clean_sbu_0, # of connection points: 6
#     Node 11, Type 0, BuildingBlock: INOVEN_clean_sbu_0, # of connection points: 6
#     Edge 12, Type (0, 0), BuildingBlock: UVAHIK_clean_linker_0, # of connection points: 2
#     Edge 13, Type (0, 0), BuildingBlock: UVAHIK_clean_linker_0, # of connection points: 2
#     Edge 14, Type (0, 0), BuildingBlock: UVAHIK_clean_linker_0, # of connection points: 2
#     Edge 15, Type (0, 0), BuildingBlock: UVAHIK_clean_linker_0, # of connection points: 2
#     Edge 16, Type (0, 0), BuildingBlock: UVAHIK_clean_linker_0, # of connection points: 2
#     Edge 17, Type (0, 0), BuildingBlock: UVAHIK_clean_linker_0, # of connection points: 2
#     Edge 18, Type (0, 0), BuildingBlock: UVAHIK_clean_linker_0, # of connection points: 2
#     Edge 19, Type (0, 0), BuildingBlock: UVAHIK_clean_linker_0, # of connection points: 2
#     Edge 20, Type (0, 0), BuildingBlock: UVAHIK_clean_linker_0, # of connection points: 2
#     Edge 21, Type (0, 0), BuildingBlock: UVAHIK_clean_linker_0, # of connection points: 2
#     Edge 22, Type (0, 0), BuildingBlock: UVAHIK_clean_linker_0, # of connection points: 2
#     Edge 23, Type (0, 0), BuildingBlock: UVAHIK_clean_linker_0, # of connection points: 2
#     Edge 24, Type (0, 0), BuildingBlock: UVAHIK_clean_linker_0, # of connection points: 2
#     Edge 25, Type (0, 0), BuildingBlock: UVAHIK_clean_linker_0, # of connection points: 2
#     Edge 26, Type (0, 0), BuildingBlock: UVAHIK_clean_linker_0, # of connection points: 2
#     Edge 27, Type (0, 0), BuildingBlock: UVAHIK_clean_linker_0, # of connection points: 2
#     Edge 28, Type (0, 0), BuildingBlock: UVAHIK_clean_linker_0, # of connection points: 2
#     Edge 29, Type (0, 0), BuildingBlock: UVAHIK_clean_linker_0, # of connection points: 2
#     Edge 30, Type (0, 0), BuildingBlock: UVAHIK_clean_linker_0, # of connection points: 2
#     Edge 31, Type (0, 0), BuildingBlock: UVAHIK_clean_linker_0, # of connection points: 2
#     Edge 32, Type (0, 0), BuildingBlock: UVAHIK_clean_linker_0, # of connection points: 2
#     Edge 33, Type (0, 0), BuildingBlock: UVAHIK_clean_linker_0, # of connection points: 2
#     Edge 34, Type (0, 0), BuildingBlock: UVAHIK_clean_linker_0, # of connection points: 2
#     Edge 35, Type (0, 0), BuildingBlock: UVAHIK_clean_linker_0, # of connection points: 2
#     Edge 36, Type (0, 0), BuildingBlock: UVAHIK_clean_linker_0, # of connection points: 2
#     Edge 37, Type (0, 0), BuildingBlock: UVAHIK_clean_linker_0, # of connection points: 2
#     Edge 38, Type (0, 0), BuildingBlock: UVAHIK_clean_linker_0, # of connection points: 2
#     Edge 39, Type (0, 0), BuildingBlock: UVAHIK_clean_linker_0, # of connection points: 2
#     Edge 40, Type (0, 0), BuildingBlock: UVAHIK_clean_linker_0, # of connection points: 2
#     Edge 41, Type (0, 0), BuildingBlock: UVAHIK_clean_linker_0, # of connection points: 2
#     Edge 42, Type (0, 0), BuildingBlock: UVAHIK_clean_linker_0, # of connection points: 2
#     Edge 43, Type (0, 0), BuildingBlock: UVAHIK_clean_linker_0, # of connection points: 2
#     Edge 44, Type (0, 0), BuildingBlock: UVAHIK_clean_linker_0, # of connection points: 2
#     Edge 45, Type (0, 0), BuildingBlock: UVAHIK_clean_linker_0, # of connection points: 2
#     Edge 46, Type (0, 0), BuildingBlock: UVAHIK_clean_linker_0, # of connection points: 2
#     Edge 47, Type (0, 0), BuildingBlock: UVAHIK_clean_linker_0, # of connection points: 2
# Relax obj value: 0.187
# Max RMSD: 0.299
# Mean RMSD: 0.283
data_MOF--net-lcy-e--node1-INOVEN_clean_sbu_0--edge1-UVAHIK_clean_linker_0
_symmetry_space_group_name_H-M    P1
_symmetry_Int_Tables_number       1
_symmetry_cell_setting            triclinic
loop_
_symmetry_equiv_pos_as_xyz
'x, y, z'
_cell_length_a     56.244884
_cell_length_b     53.266025
_cell_length_c     54.815291
_cell_angle_alpha  89.56549
_cell_angle_beta   90.505687
_cell_angle_gamma 88.015279
loop_
_atom_site_label
_atom_site_type_symbol
_atom_site_fract_x
_atom_site_fract_y
_atom_site_fract_z
_atom_type_partial_charge
Gd0 Gd 0.14075 0.22626 0.50617 0.0
Gd1 Gd 0.12614 0.25678 0.45746 0.0
C2 C 0.09858 0.20659 0.46998 0.0
C3 C 0.13817 0.20912 0.55011 0.0
C4 C 0.13222 0.18494 0.56147 0.0
C5 C 0.14465 0.16239 0.55587 0.0
C6 C 0.11258 0.18424 0.57705 0.0
C7 C 0.11712 0.13878 0.58041 0.0
C8 C 0.10502 0.1614 0.58632 0.0
C9 C 0.13724 0.13951 0.56541 0.0
C10 C 0.16692 0.20914 0.46767 0.0
C11 C 0.16908 0.27607 0.49174 0.0
C12 C 0.12241 0.27807 0.41504 0.0
C13 C 0.13581 0.28897 0.39495 0.0
C14 C 0.12393 0.29379 0.37278 0.0
C15 C 0.15999 0.29423 0.39721 0.0
C16 C 0.16008 0.30952 0.35509 0.0
C17 C 0.17205 0.30454 0.37741 0.0
C18 C 0.1359 0.30395 0.35306 0.0
C19 C 0.10116 0.26685 0.49874 0.0
O20 O 0.10869 0.20587 0.49195 0.0
O21 O 0.10462 0.22267 0.45285 0.0
O22 O 0.15838 0.21025 0.53834 0.0
O23 O 0.12038 0.22089 0.53881 0.0
O24 O 0.1689 0.20005 0.48971 0.0
O25 O 0.15037 0.22567 0.46767 0.0
O26 O 0.16008 0.2749 0.46929 0.0
O27 O 0.16254 0.26088 0.50966 0.0
O28 O 0.12117 0.29061 0.43553 0.0
O29 O 0.12503 0.25372 0.41821 0.0
O30 O 0.09146 0.26791 0.47712 0.0
O31 O 0.12296 0.26208 0.49675 0.0
H32 H 0.15976 0.16231 0.54376 0.0
H33 H 0.10272 0.20137 0.58164 0.0
H34 H 0.08965 0.16142 0.5981 0.0
H35 H 0.14682 0.12233 0.56048 0.0
H36 H 0.10525 0.28979 0.37074 0.0
H37 H 0.16947 0.29041 0.4142 0.0
H38 H 0.19071 0.30849 0.37952 0.0
H39 H 0.12601 0.30797 0.33635 0.0
Gd40 Gd 1.00133 0.87331 0.7166 0.0
Gd41 Gd 0.04134 0.88757 0.75193 0.0
C42 C 0.03686 0.91852 0.70216 0.0
C43 C 0.96448 0.873 0.68797 0.0
C44 C 0.95677 0.88154 0.66325 0.0
C45 C 0.94998 0.86366 0.6461 0.0
C46 C 0.95467 0.90718 0.65691 0.0
C47 C 0.93773 0.89681 0.61724 0.0
C48 C 0.94526 0.91472 0.63414 0.0
C49 C 0.9407 0.87117 0.62335 0.0
C50 C 0.04067 0.8434 0.71461 0.0
C51 C 1.00669 0.84334 0.76663 0.0
C52 C 0.07861 0.88903 0.78001 0.0
C53 C 0.09691 0.87316 0.79294 0.0
C54 C 0.1016 0.87766 0.81767 0.0
C55 C 0.1115 0.85559 0.78049 0.0
C56 C 0.13616 0.84874 0.81694 0.0
C57 C 0.13095 0.84356 0.79236 0.0
C58 C 0.12093 0.86553 0.82957 0.0
C59 C 0.9995 0.91446 0.75586 0.0
O60 O 0.01688 0.90691 0.69759 0.0
O61 O 0.05044 0.91296 0.72128 0.0
O62 O 0.98043 0.85453 0.68922 0.0
O63 O 0.96764 0.89019 0.70455 0.0
O64 O 0.01931 0.8357 0.71099 0.0
O65 O 0.0405 0.86697 0.71719 0.0
O66 O 0.02903 0.85045 0.76663 0.0
O67 O 0.99093 0.85289 0.75069 0.0
O68 O 0.05688 0.88956 0.78842 0.0
O69 O 0.07939 0.88957 0.75617 0.0
O70 O 0.0201 0.92407 0.75978 0.0
O71 O 1.00242 0.89147 0.75199 0.0
H72 H 0.95142 0.84379 0.65048 0.0
H73 H 0.95974 0.92147 0.66972 0.0
H74 H 0.94306 0.93461 0.63017 0.0
H75 H 0.93552 0.85683 0.61066 0.0
H76 H 0.09078 0.89128 0.8276 0.0
H77 H 0.10835 0.85168 0.7614 0.0
H78 H 0.14212 0.83047 0.7822 0.0
H79 H 0.12454 0.87017 0.84842 0.0
Gd80 Gd 0.37645 0.78886 0.99936 0.0
Gd81 Gd 0.38878 0.75836 0.9539 0.0
C82 C 0.41701 0.80934 0.96265 0.0
C83 C 0.37394 0.81591 0.03822 0.0
C84 C 0.3873 0.83533 0.05079 0.0
C85 C 0.37459 0.85358 0.0641 0.0
C86 C 0.41208 0.8369 0.04864 0.0
C87 C 0.41105 0.87527 0.07264 0.0
C88 C 0.42391 0.85665 0.05968 0.0
C89 C 0.38631 0.87338 0.07488 0.0
C90 C 0.34204 0.78925 0.96469 0.0
C91 C 0.35465 0.7344 0.99268 0.0
C92 C 0.39275 0.74264 0.90945 0.0
C93 C 0.38327 0.72421 0.89221 0.0
C94 C 0.39906 0.71107 0.87688 0.0
C95 C 0.35866 0.72122 0.88921 0.0
C96 C 0.36588 0.69312 0.85494 0.0
C97 C 0.35007 0.70587 0.87071 0.0
C98 C 0.3905 0.69565 0.85848 0.0
C99 C 0.41272 0.74422 0.99519 0.0
O100 O 0.40406 0.81353 0.98238 0.0
O101 O 0.41453 0.78913 0.94919 0.0
O102 O 0.36432 0.82282 0.0173 0.0
O103 O 0.3832 0.79294 0.03813 0.0
O104 O 0.33806 0.78852 0.98787 0.0
O105 O 0.36408 0.79061 0.96083 0.0
O106 O 0.35854 0.73707 0.96904 0.0
O107 O 0.36324 0.75027 0.00888 0.0
O108 O 0.40662 0.73427 0.92723 0.0
O109 O 0.37815 0.76092 0.91609 0.0
O110 O 0.40581 0.7284 0.97882 0.0
O111 O 0.40762 0.76635 0.98826 0.0
H112 H 0.35545 0.85272 0.06587 0.0
H113 H 0.42218 0.82315 0.03815 0.0
H114 H 0.44298 0.85774 0.05757 0.0
H115 H 0.37599 0.88726 0.08501 0.0
H116 H 0.41808 0.71328 0.87869 0.0
H117 H 0.34604 0.73115 0.90079 0.0
H118 H 0.33103 0.70407 0.86869 0.0
H119 H 0.40317 0.68633 0.84652 0.0
Gd120 Gd 0.50914 0.13732 0.22635 0.0
Gd121 Gd 0.46993 0.1179 0.25946 0.0
C122 C 0.47981 0.08789 0.21067 0.0
C123 C 0.54365 0.14561 0.19662 0.0
C124 C 0.55638 0.13331 0.17632 0.0
C125 C 0.56808 0.14831 0.15947 0.0
C126 C 0.55656 0.10718 0.17305 0.0
C127 C 0.58051 0.11127 0.13632 0.0
C128 C 0.56855 0.09624 0.15322 0.0
C129 C 0.57997 0.13746 0.13969 0.0
C130 C 0.46862 0.16571 0.22674 0.0
C131 C 0.50287 0.16255 0.27831 0.0
C132 C 0.43157 0.11249 0.2847 0.0
C133 C 0.41272 0.12554 0.29897 0.0
C134 C 0.40177 0.11225 0.31767 0.0
C135 C 0.40409 0.14996 0.2931 0.0
C136 C 0.37327 0.14715 0.32419 0.0
C137 C 0.38456 0.16066 0.3056 0.0
C138 C 0.38231 0.12284 0.33009 0.0
C139 C 0.51222 0.09146 0.26236 0.0
O140 O 0.49921 0.10102 0.20812 0.0
O141 O 0.4641 0.09285 0.22782 0.0
O142 O 0.52152 0.15264 0.19222 0.0
O143 O 0.5469 0.13596 0.21848 0.0
O144 O 0.48969 0.17466 0.22573 0.0
O145 O 0.4697 0.14196 0.22648 0.0
O146 O 0.48141 0.15308 0.27833 0.0
O147 O 0.51864 0.15659 0.26129 0.0
O148 O 0.45298 0.11028 0.29423 0.0
O149 O 0.43162 0.11664 0.26114 0.0
O150 O 0.49181 0.08174 0.26678 0.0
O151 O 0.5092 0.11479 0.25976 0.0
H152 H 0.56791 0.16853 0.16152 0.0
H153 H 0.54747 0.09527 0.18579 0.0
H154 H 0.56871 0.07602 0.15132 0.0
H155 H 0.58849 0.14971 0.12684 0.0
H156 H 0.40791 0.09328 0.3223 0.0
H157 H 0.4122 0.16058 0.27863 0.0
H158 H 0.37832 0.1795 0.3007 0.0
H159 H 0.37394 0.11159 0.34389 0.0
Gd160 Gd 0.62411 0.25624 0.54894 0.0
Gd161 Gd 0.63595 0.30159 0.51682 0.0
C162 C 0.66595 0.29401 0.56587 0.0
C163 C 0.62506 0.21575 0.57541 0.0
C164 C 0.63332 0.20777 0.60003 0.0
C165 C 0.61863 0.19307 0.6144 0.0
C166 C 0.65548 0.21461 0.60947 0.0
C167 C 0.64809 0.19192 0.64734 0.0
C168 C 0.66282 0.20671 0.63288 0.0
C169 C 0.62589 0.18523 0.63778 0.0
C170 C 0.59402 0.29599 0.55333 0.0
C171 C 0.59605 0.26393 0.49865 0.0
C172 C 0.63783 0.34323 0.49223 0.0
C173 C 0.62501 0.36276 0.47766 0.0
C174 C 0.63809 0.38238 0.46809 0.0
C175 C 0.60024 0.36309 0.47422 0.0
C176 C 0.60187 0.40306 0.45215 0.0
C177 C 0.58875 0.38307 0.46142 0.0
C178 C 0.62669 0.40231 0.4555 0.0
C179 C 0.66341 0.25911 0.51078 0.0
O180 O 0.65542 0.27241 0.56919 0.0
O181 O 0.65989 0.30958 0.54794 0.0
O182 O 0.60684 0.2317 0.57455 0.0
O183 O 0.64137 0.22073 0.55933 0.0
O184 O 0.58779 0.27286 0.5551 0.0
O185 O 0.61633 0.29729 0.55122 0.0
O186 O 0.60218 0.2877 0.49974 0.0
O187 O 0.6054 0.24673 0.5139 0.0
O188 O 0.64167 0.32111 0.48247 0.0
O189 O 0.63291 0.34214 0.51549 0.0
O190 O 0.67172 0.28149 0.50907 0.0
O191 O 0.64145 0.26074 0.514 0.0
H192 H 0.6015 0.18752 0.60747 0.0
H193 H 0.66714 0.22602 0.59877 0.0
H194 H 0.67992 0.21236 0.63974 0.0
H195 H 0.61426 0.17353 0.64821 0.0
H196 H 0.65723 0.38246 0.47062 0.0
H197 H 0.58984 0.34815 0.48166 0.0
H198 H 0.5696 0.38313 0.4592 0.0
H199 H 0.6374 0.41709 0.44824 0.0
Gd200 Gd 0.97886 0.3882 0.73935 0.0
Gd201 Gd 0.01142 0.36662 0.77852 0.0
C202 C 0.9623 0.34025 0.77223 0.0
C203 C 0.95086 0.39535 0.70214 0.0
C204 C 0.92813 0.38533 0.69382 0.0
C205 C 0.91058 0.40183 0.68399 0.0
C206 C 0.92352 0.35964 0.69592 0.0
C207 C 0.88423 0.36706 0.67766 0.0
C208 C 0.90179 0.35059 0.68785 0.0
C209 C 0.88883 0.39283 0.67606 0.0
C210 C 0.97768 0.41479 0.78083 0.0
C211 C 0.02786 0.41416 0.74747 0.0
C212 C 0.03951 0.35864 0.81567 0.0
C213 C 0.0518 0.37289 0.83466 0.0
C214 C 0.07422 0.36419 0.843 0.0
C215 C 0.04088 0.39398 0.84573 0.0
C216 C 0.07393 0.3961 0.87466 0.0
C217 C 0.05183 0.40545 0.86558 0.0
C218 C 0.08523 0.3757 0.86272 0.0
C219 C 0.01478 0.34388 0.73419 0.0
O220 O 0.95911 0.35392 0.75212 0.0
O221 O 0.98052 0.34337 0.78696 0.0
O222 O 0.94985 0.40933 0.72163 0.0
O223 O 0.96944 0.37985 0.70201 0.0
O224 O 0.97591 0.42455 0.75913 0.0
O225 O 0.97868 0.39098 0.77992 0.0
O226 O 0.02721 0.40392 0.76949 0.0
O227 O 0.01237 0.40805 0.73039 0.0
O228 O 0.04722 0.36063 0.79333 0.0
O229 O 0.01631 0.35855 0.8169 0.0
O230 O 0.01691 0.33171 0.75473 0.0
O231 O 0.01249 0.36685 0.73846 0.0
H232 H 0.9137 0.42174 0.68247 0.0
H233 H 0.93675 0.34654 0.70363 0.0
H234 H 0.89897 0.33062 0.68916 0.0
H235 H 0.87556 0.40614 0.66877 0.0
H236 H 0.083 0.34805 0.83462 0.0
H237 H 0.02358 0.40113 0.83951 0.0
H238 H 0.04256 0.42102 0.87437 0.0
H239 H 0.10247 0.36835 0.86885 0.0
Gd240 Gd 0.88189 0.7531 0.03921 0.0
Gd241 Gd 0.87301 0.70794 0.00697 0.0
C242 C 0.8425 0.71605 0.05723 0.0
C243 C 0.88652 0.79625 0.05995 0.0
C244 C 0.8773 0.80788 0.08238 0.0
C245 C 0.86447 0.79385 0.09923 0.0
C246 C 0.88122 0.83322 0.08702 0.0
C247 C 0.85989 0.83045 0.12547 0.0
C248 C 0.87261 0.84442 0.10835 0.0
C249 C 0.85584 0.80503 0.12058 0.0
C250 C 0.90787 0.71086 0.05059 0.0
C251 C 0.90958 0.74608 0.98753 0.0
C252 C 0.86975 0.66305 0.9896 0.0
C253 C 0.88298 0.64343 0.97562 0.0
C254 C 0.87443 0.63653 0.95258 0.0
C255 C 0.90271 0.62994 0.9857 0.0
C256 C 0.90433 0.60235 0.95032 0.0
C257 C 0.91327 0.60965 0.97318 0.0
C258 C 0.88501 0.61635 0.94004 0.0
C259 C 0.84731 0.75021 0.99504 0.0
O260 O 0.85068 0.73886 0.05951 0.0
O261 O 0.84991 0.70073 0.03975 0.0
O262 O 0.90168 0.77731 0.06298 0.0
O263 O 0.87074 0.79224 0.04292 0.0
O264 O 0.89885 0.72613 0.06664 0.0
O265 O 0.90335 0.71905 0.02939 0.0
O266 O 0.90515 0.72194 0.98859 0.0
O267 O 0.90022 0.76215 1.00347 0.0
O268 O 0.86228 0.68331 0.97776 0.0
O269 O 0.87707 0.66767 0.01183 0.0
O270 O 0.85507 0.73406 0.97912 0.0
O271 O 0.85199 0.7422 0.01626 0.0
H272 H 0.86127 0.77423 0.09594 0.0
H273 H 0.89095 0.84436 0.07412 0.0
H274 H 0.87575 0.86411 0.11132 0.0
H275 H 0.84637 0.79363 0.13344 0.0
H276 H 0.85917 0.64645 0.94442 0.0
H277 H 0.90968 0.63462 1.00352 0.0
H278 H 0.92798 0.59923 0.98178 0.0
H279 H 0.87792 0.61165 0.92229 0.0
Gd280 Gd 0.53431 0.62596 0.2421 0.0
Gd281 Gd 0.5009 0.64616 0.28027 0.0
C282 C 0.54922 0.67443 0.2748 0.0
C283 C 0.56217 0.61919 0.20531 0.0
C284 C 0.5853 0.62789 0.1968 0.0
C285 C 0.60271 0.61006 0.18961 0.0
C286 C 0.59023 0.65355 0.19542 0.0
C287 C 0.6294 0.64333 0.17874 0.0
C288 C 0.61205 0.66119 0.18639 0.0
C289 C 0.62455 0.61766 0.1808 0.0
C290 C 0.53554 0.59883 0.28359 0.0
C291 C 0.48588 0.59858 0.24904 0.0
C292 C 0.47256 0.65339 0.31669 0.0
C293 C 0.45972 0.63922 0.33529 0.0
C294 C 0.43711 0.64807 0.34241 0.0
C295 C 0.47027 0.61819 0.34729 0.0
C296 C 0.4365 0.61649 0.37477 0.0
C297 C 0.45877 0.60695 0.36689 0.0
C298 C 0.42557 0.63679 0.36188 0.0
C299 C 0.49687 0.66903 0.23563 0.0
O300 O 0.55348 0.66039 0.25537 0.0
O301 O 0.53066 0.67102 0.28872 0.0
O302 O 0.56276 0.60458 0.2246 0.0
O303 O 0.54428 0.63561 0.20527 0.0
O304 O 0.5377 0.58937 0.26199 0.0
O305 O 0.53416 0.62265 0.28268 0.0
O306 O 0.48598 0.60858 0.27103 0.0
O307 O 0.50123 0.60555 0.23235 0.0
O308 O 0.46502 0.65203 0.29412 0.0
O309 O 0.49576 0.65299 0.31863 0.0
O310 O 0.49438 0.68097 0.25604 0.0
O311 O 0.49999 0.64609 0.24014 0.0
H312 H 0.59934 0.59017 0.1907 0.0
H313 H 0.57716 0.66772 0.20101 0.0
H314 H 0.61506 0.68111 0.18487 0.0
H315 H 0.63764 0.60336 0.17558 0.0
H316 H 0.42862 0.66418 0.3333 0.0
H317 H 0.48771 0.61093 0.34203 0.0
H318 H 0.46776 0.59144 0.37645 0.0
H319 H 0.40821 0.64427 0.36708 0.0
Gd320 Gd 0.22234 0.51152 0.12897 0.0
Gd321 Gd 0.25149 0.46497 0.1135 0.0
C322 C 0.20218 0.47518 0.08602 0.0
C323 C 0.19795 0.5536 0.13115 0.0
C324 C 0.17414 0.56309 0.12352 0.0
C325 C 0.15948 0.5487 0.10869 0.0
C326 C 0.16575 0.58663 0.13158 0.0
C327 C 0.12811 0.58136 0.11015 0.0
C328 C 0.14293 0.59569 0.125 0.0
C329 C 0.1367 0.55779 0.10198 0.0
C330 C 0.21886 0.47193 0.15909 0.0
C331 C 0.27202 0.50054 0.15528 0.0
C332 C 0.27486 0.42244 0.10935 0.0
C333 C 0.28743 0.40223 0.12316 0.0
C334 C 0.29473 0.38052 0.11067 0.0
C335 C 0.29119 0.40356 0.14846 0.0
C336 C 0.30909 0.36113 0.1486 0.0
C337 C 0.30208 0.38316 0.16109 0.0
C338 C 0.30543 0.36017 0.12323 0.0
C339 C 0.25756 0.50739 0.08659 0.0
O340 O 0.20059 0.49704 0.09729 0.0
O341 O 0.21941 0.45848 0.09079 0.0
O342 O 0.19852 0.53678 0.14865 0.0
O343 O 0.21291 0.54818 0.11363 0.0
O344 O 0.21828 0.4951 0.16616 0.0
O345 O 0.21939 0.47058 0.13605 0.0
O346 O 0.26983 0.47701 0.14819 0.0
O347 O 0.25749 0.51878 0.14685 0.0
O348 O 0.2849 0.4442 0.10786 0.0
O349 O 0.25185 0.42443 0.11239 0.0
O350 O 0.25812 0.48507 0.07723 0.0
O351 O 0.25536 0.50562 0.1092 0.0
H352 H 0.16555 0.53038 0.10246 0.0
H353 H 0.17682 0.59798 0.14306 0.0
H354 H 0.13698 0.61404 0.13135 0.0
H355 H 0.12565 0.54617 0.09075 0.0
H356 H 0.29192 0.37918 0.09115 0.0
H357 H 0.28545 0.42016 0.15841 0.0
H358 H 0.30458 0.38441 0.18065 0.0
H359 H 0.31098 0.34369 0.113 0.0
Gd360 Gd 0.72636 0.99572 0.87724 0.0
Gd361 Gd 0.7562 0.03997 0.89016 0.0
C362 C 0.71065 0.03271 0.92268 0.0
C363 C 0.70172 0.95555 0.87832 0.0
C364 C 0.67793 0.94819 0.88678 0.0
C365 C 0.66105 0.94033 0.86968 0.0
C366 C 0.67189 0.9484 0.91165 0.0
C367 C 0.63261 0.93287 0.90203 0.0
C368 C 0.6495 0.94073 0.91918 0.0
C369 C 0.63863 0.93289 0.87718 0.0
C370 C 0.71784 0.03589 0.84813 0.0
C371 C 0.77344 1.0034 0.84695 0.0
C372 C 0.78062 0.0804 0.89082 0.0
C373 C 0.79415 0.09758 0.87513 0.0
C374 C 0.81906 0.09764 0.8771 0.0
C375 C 0.78245 0.11586 0.86023 0.0
C376 C 0.82021 0.13497 0.85113 0.0
C377 C 0.79534 0.1343 0.84833 0.0
C378 C 0.83194 0.11601 0.86518 0.0
C379 C 0.76574 0.99684 0.91592 0.0
O380 O 0.70748 0.0116 0.91063 0.0
O381 O 0.72755 0.04812 0.9169 0.0
O382 O 0.7021 0.97072 0.85945 0.0
O383 O 0.71759 0.9608 0.89499 0.0
O384 O 0.71699 0.01275 0.84115 0.0
O385 O 0.7215 0.03704 0.87098 0.0
O386 O 0.77119 0.02703 0.85405 0.0
O387 O 0.75981 0.98603 0.85636 0.0
O388 O 0.78994 0.05797 0.89534 0.0
O389 O 0.75748 0.08047 0.88804 0.0
O390 O 0.76635 0.01898 0.92562 0.0
O391 O 0.76138 0.99908 0.8936 0.0
H392 H 0.66527 0.9398 0.85044 0.0
H393 H 0.68443 0.95441 0.92534 0.0
H394 H 0.64534 0.94114 0.93843 0.0
H395 H 0.62616 0.92663 0.86353 0.0
H396 H 0.8286 0.08393 0.88854 0.0
H397 H 0.76325 0.11654 0.85843 0.0
H398 H 0.78568 0.1487 0.83785 0.0
H399 H 0.8511 0.11566 0.86741 0.0
Gd400 Gd 0.74921 0.97885 0.38657 0.0
Gd401 Gd 0.79022 0.01231 0.37345 0.0
C402 C 0.78403 0.96405 0.34063 0.0
C403 C 0.71109 0.9529 0.3855 0.0
C404 C 0.70268 0.92901 0.37546 0.0
C405 C 0.69068 0.91257 0.39075 0.0
C406 C 0.70537 0.92289 0.35069 0.0
C407 C 0.6829 0.88492 0.35649 0.0
C408 C 0.69557 0.90109 0.34132 0.0
C409 C 0.68098 0.89075 0.38144 0.0
C410 C 0.78817 0.97016 0.4144 0.0
C411 C 0.75717 0.02723 0.41881 0.0
C412 C 0.82801 0.03891 0.37146 0.0
C413 C 0.84633 0.05207 0.38569 0.0
C414 C 0.84925 0.07783 0.38158 0.0
C415 C 0.86286 0.03889 0.40088 0.0
C416 C 0.88579 0.07662 0.40599 0.0
C417 C 0.88228 0.05106 0.41101 0.0
C418 C 0.8687 0.08996 0.39161 0.0
C419 C 0.74827 0.02176 0.34919 0.0
O420 O 0.76408 0.96015 0.35252 0.0
O421 O 0.79822 0.98222 0.34657 0.0
O422 O 0.72671 0.95128 0.40332 0.0
O423 O 0.71535 0.97087 0.36989 0.0
O424 O 0.76654 0.96755 0.42175 0.0
O425 O 0.78858 0.97506 0.39171 0.0
O426 O 0.77928 0.02574 0.41078 0.0
O427 O 0.74057 0.01299 0.40941 0.0
O428 O 0.80638 0.0488 0.3704 0.0
O429 O 0.8285 0.01434 0.37223 0.0
O430 O 0.76887 0.0237 0.33895 0.0
O431 O 0.7513 0.01639 0.37125 0.0
H432 H 0.68846 0.91681 0.40992 0.0
H433 H 0.7146 0.93519 0.33843 0.0
H434 H 0.69727 0.89736 0.32201 0.0
H435 H 0.6718 0.87853 0.3938 0.0
H436 H 0.83694 0.08842 0.3698 0.0
H437 H 0.86137 0.01896 0.4042 0.0
H438 H 0.89517 0.04014 0.42181 0.0
H439 H 0.87063 0.10974 0.38765 0.0
Gd440 Gd 0.29094 0.49586 0.62697 0.0
Gd441 Gd 0.26057 0.54674 0.61494 0.0
C442 C 0.30858 0.53568 0.58557 0.0
C443 C 0.30996 0.45158 0.62244 0.0
C444 C 0.33434 0.44178 0.61761 0.0
C445 C 0.35363 0.44734 0.63291 0.0
C446 C 0.33864 0.4281 0.59626 0.0
C447 C 0.38122 0.42627 0.60503 0.0
C448 C 0.36178 0.42058 0.58995 0.0
C449 C 0.37682 0.43955 0.62673 0.0
C450 C 0.30654 0.53482 0.65399 0.0
C451 C 0.24393 0.50922 0.65796 0.0
C452 C 0.23799 0.58977 0.61543 0.0
C453 C 0.22637 0.60811 0.63206 0.0
C454 C 0.20163 0.61233 0.63063 0.0
C455 C 0.23975 0.62315 0.64768 0.0
C456 C 0.20389 0.64698 0.6592 0.0
C457 C 0.22861 0.64238 0.66111 0.0
C458 C 0.1905 0.63147 0.64409 0.0
C459 C 0.25239 0.50576 0.58734 0.0
O460 O 0.30931 0.51236 0.59426 0.0
O461 O 0.29309 0.55313 0.59304 0.0
O462 O 0.30587 0.46185 0.64381 0.0
O463 O 0.29978 0.46408 0.60422 0.0
O464 O 0.31576 0.51215 0.65536 0.0
O465 O 0.29054 0.53498 0.6379 0.0
O466 O 0.24494 0.5328 0.65012 0.0
O467 O 0.25818 0.4909 0.64956 0.0
O468 O 0.22739 0.56854 0.61181 0.0
O469 O 0.26126 0.58719 0.61651 0.0
O470 O 0.25063 0.52856 0.57869 0.0
O471 O 0.2568 0.50639 0.60973 0.0
H472 H 0.3509 0.458 0.64946 0.0
H473 H 0.3241 0.42376 0.58407 0.0
H474 H 0.36442 0.41081 0.57288 0.0
H475 H 0.39127 0.44395 0.63897 0.0
H476 H 0.19092 0.6013 0.6185 0.0
H477 H 0.25889 0.62052 0.64912 0.0
H478 H 0.23939 0.65383 0.67277 0.0
H479 H 0.17148 0.63473 0.64191 0.0
C480 C 0.18823 0.31647 0.48044 0.0
C481 C 0.18436 0.29744 0.49778 0.0
C482 C 0.19937 0.33852 0.48716 0.0
C483 C 0.23572 0.36719 0.5359 0.0
H484 H 0.20365 0.42941 0.51494 0.0
C485 C 0.24696 0.45959 0.58718 0.0
C486 C 0.24762 0.48232 0.57408 0.0
C487 C 0.24211 0.4372 0.57538 0.0
C488 C 0.21312 0.41227 0.52063 0.0
H489 H 0.19041 0.28628 0.53555 0.0
H490 H 0.20983 0.32458 0.54717 0.0
H491 H 0.1908 0.38952 0.49871 0.0
H492 H 0.24367 0.49948 0.53829 0.0
H493 H 0.2351 0.46009 0.51742 0.0
H494 H 0.25774 0.38986 0.55816 0.0
C495 C 0.2043 0.32247 0.52835 0.0
C496 C 0.20574 0.38936 0.51132 0.0
C497 C 0.19306 0.30048 0.52168 0.0
C498 C 0.24329 0.48221 0.54882 0.0
C499 C 0.23832 0.45968 0.53693 0.0
C500 C 0.24313 0.39007 0.54515 0.0
C501 C 0.20709 0.34203 0.51132 0.0
C502 C 0.21663 0.36649 0.51923 0.0
C503 C 0.23768 0.43688 0.55011 0.0
C504 C 0.23158 0.41288 0.53806 0.0
H505 H 0.18185 0.31483 0.46184 0.0
H506 H 0.20156 0.35304 0.4735 0.0
H507 H 0.24478 0.34999 0.54204 0.0
H508 H 0.24995 0.45908 0.60673 0.0
H509 H 0.24128 0.42019 0.58624 0.0
C510 C 0.81164 0.01339 0.82633 0.0
C511 C 0.7942 0.9959 0.83176 0.0
C512 C 0.83308 1.0057 0.81549 0.0
C513 C 0.87155 0.94836 0.80815 0.0
H514 H 0.90703 0.99059 0.76461 0.0
C515 C 0.95578 0.9113 0.76062 0.0
C516 C 0.97594 0.92615 0.76152 0.0
C517 C 0.93355 0.921 0.76756 0.0
C518 C 0.89739 0.97871 0.77692 0.0
H519 H 0.78513 0.95684 0.82862 0.0
H520 H 0.82214 0.94355 0.80896 0.0
H521 H 0.86751 1.00473 0.77824 0.0
H522 H 0.98844 0.96318 0.76967 0.0
H523 H 0.94915 0.98042 0.78178 0.0
H524 H 0.90125 0.92226 0.80661 0.0
C525 C 0.81958 0.96312 0.81378 0.0
C526 C 0.87473 0.98678 0.78475 0.0
C527 C 0.7982 0.97078 0.82484 0.0
C528 C 0.97321 0.95131 0.76882 0.0
C529 C 0.95075 0.96116 0.77567 0.0
C530 C 0.89402 0.94025 0.80017 0.0
C531 C 0.83761 0.98034 0.80959 0.0
C532 C 0.86146 0.97166 0.80046 0.0
C533 C 0.93078 0.9459 0.77552 0.0
C534 C 0.90719 0.95526 0.78441 0.0
H535 H 0.80926 0.03291 0.83145 0.0
H536 H 0.84651 0.01951 0.81278 0.0
H537 H 0.86228 0.93647 0.82074 0.0
H538 H 0.9572 0.89186 0.755 0.0
H539 H 0.91848 0.90889 0.76685 0.0
C540 C 0.33612 0.70863 0.02571 0.0
C541 C 0.34151 0.71224 1.00097 0.0
C542 C 0.32473 0.68699 0.03338 0.0
C543 C 0.31571 0.62141 0.01593 0.0
H544 H 0.26482 0.62484 0.0631 0.0
C545 C 0.26872 0.53206 0.0492 0.0
C546 C 0.26404 0.53097 0.07429 0.0
C547 C 0.27603 0.5545 0.03845 0.0
C548 C 0.27916 0.62348 0.05007 0.0
H549 H 0.33883 0.69596 0.96486 0.0
H550 H 0.31917 0.65837 0.9783 0.0
H551 H 0.28209 0.66347 0.04852 0.0
H552 H 0.26316 0.55251 0.10773 0.0
H553 H 0.27618 0.59104 0.08932 0.0
H554 H 0.31332 0.58142 0.01795 0.0
C555 C 0.32384 0.67218 0.99177 0.0
C556 C 0.28903 0.64566 0.04172 0.0
C557 C 0.335 0.69386 0.98408 0.0
C558 C 0.26647 0.55273 0.0883 0.0
C559 C 0.2738 0.57498 0.07766 0.0
C560 C 0.30598 0.59918 0.02444 0.0
C561 C 0.3187 0.6684 0.01652 0.0
C562 C 0.30758 0.64488 0.02474 0.0
C563 C 0.27882 0.57622 0.05263 0.0
C564 C 0.28778 0.59989 0.04188 0.0
H565 H 0.34091 0.72236 0.03921 0.0
H566 H 0.32118 0.68451 0.05262 0.0
H567 H 0.33014 0.62016 1.00298 0.0
H568 H 0.26695 0.51557 0.03798 0.0
H569 H 0.27951 0.55483 0.01905 0.0
C570 C 0.53921 0.06633 0.29058 0.0
C571 C 0.53563 0.07948 0.2685 0.0
C572 C 0.56219 0.05829 0.29796 0.0
C573 C 0.62373 0.04518 0.27664 0.0
H574 H 0.64128 0.06276 0.34268 0.0
C575 C 0.72149 0.03455 0.31353 0.0
C576 C 0.72448 0.02753 0.33815 0.0
C577 C 0.69862 0.04027 0.30393 0.0
C578 C 0.6367 0.05727 0.3243 0.0
H579 H 0.55276 0.09274 0.23599 0.0
H580 H 0.59291 0.07871 0.24868 0.0
H581 H 0.60096 0.0718 0.3281 0.0
H582 H 0.70583 0.02097 0.37193 0.0
H583 H 0.66646 0.02969 0.35525 0.0
H584 H 0.65942 0.03028 0.27296 0.0
C585 C 0.57811 0.07488 0.2605 0.0
C586 C 0.61349 0.06253 0.31594 0.0
C587 C 0.55518 0.0832 0.25333 0.0
C588 C 0.70422 0.02619 0.35285 0.0
C589 C 0.68152 0.03155 0.34329 0.0
C590 C 0.64696 0.0396 0.28512 0.0
C591 C 0.58199 0.06289 0.2832 0.0
C592 C 0.60665 0.05652 0.29204 0.0
C593 C 0.67829 0.03896 0.31877 0.0
C594 C 0.65378 0.04547 0.30916 0.0
H595 H 0.5244 0.06326 0.30263 0.0
H596 H 0.56454 0.04883 0.31541 0.0
H597 H 0.619 0.04026 0.25813 0.0
H598 H 0.73679 0.03584 0.30178 0.0
H599 H 0.69695 0.04613 0.28503 0.0
C600 C 0.66347 0.21292 0.50475 0.0
C601 C 0.67632 0.23503 0.50594 0.0
C602 C 0.67483 0.18998 0.49943 0.0
C603 C 0.72831 0.16262 0.47001 0.0
H604 H 0.70566 0.10098 0.49833 0.0
C605 C 0.7674 0.06551 0.44249 0.0
C606 C 0.75044 0.04802 0.43555 0.0
C607 C 0.76053 0.0874 0.45485 0.0
C608 C 0.71215 0.11802 0.49024 0.0
H609 H 0.71128 0.25043 0.50283 0.0
H610 H 0.73145 0.20999 0.49372 0.0
H611 H 0.69048 0.14143 0.51322 0.0
H612 H 0.71313 0.03927 0.43746 0.0
H613 H 0.70119 0.07741 0.45928 0.0
H614 H 0.74987 0.1391 0.44691 0.0
C615 C 0.71243 0.21054 0.49666 0.0
C616 C 0.70343 0.14123 0.49872 0.0
C617 C 0.70095 0.23367 0.50197 0.0
C618 C 0.72666 0.05229 0.44252 0.0
C619 C 0.71982 0.07414 0.45507 0.0
C620 C 0.73719 0.13938 0.46168 0.0
C621 C 0.69944 0.1884 0.49523 0.0
C622 C 0.71096 0.16385 0.48831 0.0
C623 C 0.73659 0.09226 0.46078 0.0
C624 C 0.72884 0.11682 0.47136 0.0
H625 H 0.64442 0.21334 0.50753 0.0
H626 H 0.66409 0.17356 0.49796 0.0
H627 H 0.73433 0.17956 0.46134 0.0
H628 H 0.78591 0.06284 0.43755 0.0
H629 H 0.77391 0.10082 0.45931 0.0
C630 C 0.05204 0.43769 0.71719 0.0
C631 C 0.04796 0.43026 0.74141 0.0
C632 C 0.0729 0.44977 0.71108 0.0
C633 C 0.13466 0.45455 0.73245 0.0
H634 H 0.13731 0.50678 0.68302 0.0
C635 C 0.20674 0.52115 0.68062 0.0
C636 C 0.2239 0.50266 0.67396 0.0
C637 C 0.18578 0.51446 0.69213 0.0
C638 C 0.13688 0.49242 0.69709 0.0
H639 H 0.062 0.43103 0.77843 0.0
H640 H 0.09816 0.45223 0.76776 0.0
H641 H 0.09878 0.4925 0.6965 0.0
H642 H 0.23302 0.46275 0.67556 0.0
H643 H 0.1965 0.45114 0.69564 0.0
H644 H 0.17276 0.45431 0.73288 0.0
C645 C 0.08546 0.44832 0.75343 0.0
C646 C 0.1148 0.48406 0.70461 0.0
C647 C 0.06463 0.43629 0.75954 0.0
C648 C 0.22022 0.4775 0.68039 0.0
C649 C 0.19927 0.47083 0.69198 0.0
C650 C 0.15674 0.46284 0.72485 0.0
C651 C 0.09012 0.45465 0.72905 0.0
C652 C 0.11344 0.46484 0.72219 0.0
C653 C 0.18153 0.48916 0.69737 0.0
C654 C 0.15812 0.48168 0.7069 0.0
H655 H 0.0396 0.43328 0.70278 0.0
H656 H 0.07601 0.45425 0.69209 0.0
H657 H 0.13427 0.43952 0.74584 0.0
H658 H 0.20899 0.54075 0.6761 0.0
H659 H 0.17264 0.52907 0.69643 0.0
C660 C 0.77796 0.95176 0.91231 0.0
C661 C 0.77364 0.97265 0.92735 0.0
C662 C 0.78616 0.92884 0.92214 0.0
C663 C 0.78763 0.88887 0.97586 0.0
H664 H 0.84226 0.85697 0.9446 0.0
C665 C 0.82827 0.79154 0.00723 0.0
C666 C 0.83747 0.77566 0.989 0.0
C667 C 0.82065 0.81627 1.00161 0.0
C668 C 0.82679 0.86537 0.95337 0.0
H669 H 0.77393 0.9857 0.96467 0.0
H670 H 0.78795 0.94493 0.98215 0.0
H671 H 0.82876 0.89899 0.93194 0.0
H672 H 0.8448 0.77273 0.9504 0.0
H673 H 0.83075 0.8153 0.94035 0.0
H674 H 0.78505 0.85484 0.99667 0.0
C675 C 0.78514 0.94665 0.96263 0.0
C676 C 0.8192 0.88958 0.94623 0.0
C677 C 0.77722 0.96993 0.95266 0.0
C678 C 0.83801 0.78461 0.96489 0.0
C679 C 0.83019 0.80918 0.95921 0.0
C680 C 0.79506 0.86441 0.98286 0.0
C681 C 0.79 0.926 0.94735 0.0
C682 C 0.79933 0.90145 0.95709 0.0
C683 C 0.82179 0.82555 0.97753 0.0
C684 C 0.81452 0.85215 0.97137 0.0
H685 H 0.77531 0.95314 0.89275 0.0
H686 H 0.78945 0.91319 0.90996 0.0
H687 H 0.77215 0.89753 0.98442 0.0
H688 H 0.82725 0.78495 0.02592 0.0
H689 H 0.81437 0.82824 0.01625 0.0
C690 C 0.45021 0.57434 0.26023 0.0
C691 C 0.46651 0.58171 0.24247 0.0
C692 C 0.42994 0.56152 0.25359 0.0
C693 C 0.40173 0.5264 0.20354 0.0
H694 H 0.34304 0.55352 0.23107 0.0
C695 C 0.29632 0.53194 0.17723 0.0
C696 C 0.29279 0.50693 0.17052 0.0
C697 C 0.31729 0.53849 0.18905 0.0
C698 C 0.35927 0.54573 0.22324 0.0
H699 H 0.47492 0.5802 0.20395 0.0
H700 H 0.43946 0.55791 0.19234 0.0
H701 H 0.38104 0.56878 0.24531 0.0
H702 H 0.30814 0.46896 0.17195 0.0
H703 H 0.34469 0.48045 0.19268 0.0
H704 H 0.37985 0.50401 0.18083 0.0
C705 C 0.44243 0.56193 0.21145 0.0
C706 C 0.38107 0.55426 0.23158 0.0
C707 C 0.46274 0.57478 0.21809 0.0
C708 C 0.3103 0.48844 0.17677 0.0
C709 C 0.33133 0.49502 0.18851 0.0
C710 C 0.37991 0.51779 0.19526 0.0
C711 C 0.4255 0.55574 0.22904 0.0
C712 C 0.40254 0.54497 0.22158 0.0
C713 C 0.33524 0.52019 0.19437 0.0
C714 C 0.35842 0.52765 0.20475 0.0
H715 H 0.45268 0.57917 0.27923 0.0
H716 H 0.41745 0.55661 0.26764 0.0
H717 H 0.41796 0.51873 0.19562 0.0
H718 H 0.28321 0.54666 0.1727 0.0
H719 H 0.31984 0.55808 0.19313 0.0
C720 C 0.49317 0.18447 0.3174 0.0
C721 C 0.50982 0.17828 0.29921 0.0
C722 C 0.50021 0.19652 0.33867 0.0
C723 C 0.54827 0.23268 0.36659 0.0
H724 H 0.5254 0.2044 0.42709 0.0
C725 C 0.57661 0.23051 0.4743 0.0
C726 C 0.58116 0.25601 0.47784 0.0
C727 C 0.56533 0.22269 0.45297 0.0
C728 C 0.53195 0.21249 0.41036 0.0
H729 H 0.54675 0.18096 0.28871 0.0
H730 H 0.55903 0.20198 0.32592 0.0
H731 H 0.51131 0.18838 0.38819 0.0
H732 H 0.57631 0.29346 0.46222 0.0
H733 H 0.55653 0.27977 0.42515 0.0
H734 H 0.56942 0.2563 0.3888 0.0
C735 C 0.5405 0.19758 0.32364 0.0
C736 C 0.5237 0.2035 0.38806 0.0
C737 C 0.53346 0.18547 0.30232 0.0
C738 C 0.57322 0.27363 0.46006 0.0
C739 C 0.56203 0.26579 0.43871 0.0
C740 C 0.55644 0.24175 0.38891 0.0
C741 C 0.52404 0.20274 0.34228 0.0
C742 C 0.53192 0.21333 0.36591 0.0
C743 C 0.5584 0.24018 0.43469 0.0
C744 C 0.54854 0.23159 0.41105 0.0
H745 H 0.47476 0.17942 0.31556 0.0
H746 H 0.48702 0.20065 0.35249 0.0
H747 H 0.5548 0.24077 0.34986 0.0
H748 H 0.58249 0.21643 0.48759 0.0
H749 H 0.56294 0.20279 0.45037 0.0
C750 C 0.10422 0.27767 0.5427 0.0
C751 C 0.08972 0.27308 0.52231 0.0
C752 C 0.09426 0.28397 0.56515 0.0
C753 C 0.06862 0.31446 0.60392 0.0
H754 H 0.01895 0.27699 0.63465 0.0
C755 C 0.02191 0.35079 0.68988 0.0
C756 C 0.02015 0.3339 0.70957 0.0
C757 C 0.02843 0.34232 0.66677 0.0
C758 C 0.03286 0.28756 0.62628 0.0
H759 H 0.0533 0.27107 0.5096 0.0
H760 H 0.03565 0.282 0.54932 0.0
H761 H 0.03387 0.26427 0.59436 0.0
H762 H 0.02306 0.29468 0.72019 0.0
H763 H 0.03444 0.27969 0.67939 0.0
H764 H 0.0678 0.33773 0.63554 0.0
C765 C 0.05483 0.28068 0.54771 0.0
C766 C 0.04123 0.28044 0.60316 0.0
C767 C 0.06489 0.27459 0.52499 0.0
C768 C 0.02434 0.30812 0.70539 0.0
C769 C 0.03073 0.29956 0.68204 0.0
C770 C 0.06009 0.32174 0.62674 0.0
C771 C 0.06947 0.28573 0.56796 0.0
C772 C 0.05936 0.29372 0.59184 0.0
C773 C 0.03328 0.31668 0.66259 0.0
C774 C 0.04217 0.30839 0.63828 0.0
H775 H 0.12343 0.27664 0.5413 0.0
H776 H 0.10603 0.28746 0.58041 0.0
H777 H 0.08249 0.32518 0.59564 0.0
H778 H 0.01874 0.37077 0.69241 0.0
H779 H 0.0299 0.35596 0.65215 0.0
C780 C 0.01442 0.82014 0.80601 0.0
C781 C 0.99847 0.82791 0.7873 0.0
C782 C 1.00608 0.80931 0.82747 0.0
C783 C 0.95188 0.80858 0.8645 0.0
H784 H 0.98574 0.75521 0.90029 0.0
C785 C 0.92509 0.78122 0.96211 0.0
C786 C 0.9237 0.75535 0.96685 0.0
C787 C 0.93597 0.78975 0.94088 0.0
C788 C 0.97603 0.77007 0.89047 0.0
H789 H 0.9614 0.82894 0.7759 0.0
H790 H 0.94696 0.80968 0.81314 0.0
H791 H 1.00035 0.76861 0.86061 0.0
H792 H 0.93356 0.71819 0.9535 0.0
H793 H 0.95231 0.73304 0.91657 0.0
H794 H 0.92731 0.80977 0.89406 0.0
C795 C 0.96585 0.81248 0.81143 0.0
C796 C 0.9845 0.77787 0.86782 0.0
C797 C 0.97418 0.82331 0.78997 0.0
C798 C 0.93427 0.73826 0.95042 0.0
C799 C 0.94516 0.74677 0.92926 0.0
C800 C 0.94344 0.80082 0.88713 0.0
C801 C 0.98162 0.80599 0.8307 0.0
C802 C 0.97247 0.79716 0.85453 0.0
C803 C 0.94573 0.77259 0.92399 0.0
C804 C 0.95538 0.78145 0.90038 0.0
H805 H 0.03326 0.82338 0.80457 0.0
H806 H 0.01871 0.80464 0.84197 0.0
H807 H 0.94238 0.82377 0.85495 0.0
H808 H 0.91714 0.7949 0.97437 0.0
H809 H 0.93645 0.80979 0.93754 0.0
C810 C 0.48465 0.70446 0.20677 0.0
C811 C 0.49003 0.67883 0.21107 0.0
C812 C 0.47696 0.71288 0.18353 0.0
C813 C 0.44726 0.69033 0.12814 0.0
H814 H 0.47374 0.74752 0.09533 0.0
C815 C 0.42511 0.71215 0.02698 0.0
C816 C 0.42275 0.73738 0.01954 0.0
C817 C 0.4337 0.70582 0.05038 0.0
C818 C 0.46585 0.73172 0.10432 0.0
H819 H 0.49203 0.64207 0.19427 0.0
H820 H 0.47849 0.65664 0.15419 0.0
H821 H 0.48759 0.7358 0.13639 0.0
H822 H 0.42816 0.77574 0.03049 0.0
H823 H 0.44224 0.76491 0.07155 0.0
H824 H 0.42519 0.68635 0.09658 0.0
C825 C 0.48005 0.67025 0.16866 0.0
C826 C 0.47387 0.725 0.12788 0.0
C827 C 0.48795 0.66194 0.19164 0.0
C828 C 0.42953 0.75613 0.03582 0.0
C829 C 0.43788 0.74986 0.05932 0.0
C830 C 0.43905 0.69718 0.10478 0.0
C831 C 0.47421 0.69575 0.16433 0.0
C832 C 0.46487 0.70402 0.13992 0.0
C833 C 0.43998 0.72459 0.06704 0.0
C834 C 0.44841 0.7178 0.09234 0.0
H835 H 0.48613 0.7179 0.22138 0.0
H836 H 0.47257 0.73266 0.18076 0.0
H837 H 0.43968 0.6743 0.13709 0.0
H838 H 0.42016 0.69727 0.01477 0.0
H839 H 0.43553 0.68613 0.05533 0.0
C840 C 0.18691 0.34195 0.3381 0.0
C841 C 0.17217 0.32157 0.33423 0.0
C842 C 0.19576 0.35535 0.31832 0.0
C843 C 0.2048 0.35478 0.25117 0.0
H844 H 0.1969 0.42693 0.25809 0.0
C845 C 0.20968 0.42744 0.1707 0.0
C846 C 0.21907 0.45074 0.17653 0.0
C847 C 0.20691 0.40921 0.18905 0.0
C848 C 0.19963 0.40684 0.2559 0.0
H849 H 0.15659 0.2982 0.30652 0.0
H850 H 0.17172 0.32185 0.27203 0.0
H851 H 0.18748 0.39969 0.29199 0.0
H852 H 0.235 0.47248 0.20524 0.0
H853 H 0.23098 0.44073 0.23675 0.0
H854 H 0.21675 0.36221 0.21478 0.0
C855 C 0.17646 0.32746 0.29034 0.0
C856 C 0.19423 0.3912 0.27542 0.0
C857 C 0.16758 0.31408 0.31012 0.0
C858 C 0.22722 0.45485 0.20037 0.0
C859 C 0.22479 0.43669 0.21847 0.0
C860 C 0.21033 0.37054 0.23154 0.0
C861 C 0.19011 0.34868 0.29421 0.0
C862 C 0.1968 0.36499 0.27339 0.0
C863 C 0.21374 0.41406 0.21333 0.0
C864 C 0.20792 0.3968 0.23376 0.0
H865 H 0.19074 0.34829 0.3564 0.0
H866 H 0.20656 0.37138 0.32193 0.0
H867 H 0.20701 0.33464 0.24906 0.0
H868 H 0.20337 0.42385 0.15237 0.0
H869 H 0.19838 0.39193 0.18447 0.0
C870 C 0.93285 0.92546 0.58032 0.0
C871 C 0.92545 0.90471 0.59403 0.0
C872 C 0.92044 0.93325 0.5591 0.0
C873 C 0.86091 0.92991 0.53089 0.0
H874 H 0.89129 0.94832 0.47037 0.0
C875 C 0.80579 0.9397 0.44415 0.0
C876 C 0.80858 0.96101 0.42942 0.0
C877 C 0.8225 0.93315 0.46219 0.0
C878 C 0.88259 0.94347 0.48722 0.0
H879 H 0.89909 0.87597 0.59599 0.0
H880 H 0.87791 0.88917 0.55907 0.0
H881 H 0.91579 0.93668 0.50633 0.0
H882 H 0.83139 0.99171 0.42122 0.0
H883 H 0.86094 0.9804 0.45331 0.0
H884 H 0.82786 0.93659 0.51218 0.0
C885 C 0.89318 0.89959 0.56475 0.0
C886 C 0.89659 0.93682 0.5078 0.0
C887 C 0.90555 0.89181 0.58581 0.0
C888 C 0.82913 0.97499 0.43217 0.0
C889 C 0.8459 0.96856 0.45058 0.0
C890 C 0.84704 0.93653 0.5105 0.0
C891 C 0.90024 0.92059 0.55128 0.0
C892 C 0.88586 0.92946 0.52972 0.0
C893 C 0.84226 0.94803 0.46635 0.0
C894 C 0.85763 0.94285 0.48823 0.0
H895 H 0.94823 0.9357 0.586 0.0
H896 H 0.92628 0.94955 0.54918 0.0
H897 H 0.85203 0.92504 0.54764 0.0
H898 H 0.79015 0.92852 0.44228 0.0
H899 H 0.81947 0.91682 0.4735 0.0
C900 C 0.29638 0.57595 0.67459 0.0
C901 C 0.31156 0.55468 0.67177 0.0
C902 C 0.30014 0.59272 0.69381 0.0
C903 C 0.3274 0.59301 0.75512 0.0
H904 H 0.32726 0.66552 0.74863 0.0
C905 C 0.36818 0.65453 0.82888 0.0
C906 C 0.35688 0.67768 0.83451 0.0
C907 C 0.36038 0.64041 0.80918 0.0
C908 C 0.32701 0.64531 0.75082 0.0
H909 H 0.34306 0.53483 0.68597 0.0
H910 H 0.34966 0.56388 0.7191 0.0
H911 H 0.31772 0.63986 0.71315 0.0
H912 H 0.32847 0.70414 0.82371 0.0
H913 H 0.3146 0.67922 0.78944 0.0
H914 H 0.33677 0.59818 0.79257 0.0
C915 C 0.33466 0.56754 0.70689 0.0
C916 C 0.32156 0.63065 0.73049 0.0
C917 C 0.33097 0.55098 0.68779 0.0
C918 C 0.33741 0.68625 0.82003 0.0
C919 C 0.32963 0.67212 0.80022 0.0
C920 C 0.33274 0.60758 0.77536 0.0
C921 C 0.31901 0.58826 0.71053 0.0
C922 C 0.32228 0.6043 0.73232 0.0
C923 C 0.34104 0.64902 0.79454 0.0
C924 C 0.33316 0.63388 0.77338 0.0
H925 H 0.28116 0.57907 0.66258 0.0
H926 H 0.28779 0.60856 0.69616 0.0
H927 H 0.32755 0.57277 0.75727 0.0
H928 H 0.38308 0.64726 0.83975 0.0
H929 H 0.3698 0.62287 0.80517 0.0
C930 C 0.58448 0.07982 0.10209 0.0
C931 C 0.59365 0.09995 0.11529 0.0
C932 C 0.59655 0.07005 0.08178 0.0
C933 C 0.65594 0.06888 0.05192 0.0
H934 H 0.62053 0.05164 0.99374 0.0
C935 C 0.70078 0.05971 0.95868 0.0
C936 C 0.69552 0.03898 0.94407 0.0
C937 C 0.6877 0.06508 0.97965 0.0
C938 C 0.63064 0.0561 0.00995 0.0
H939 H 0.6232 0.12497 0.11772 0.0
H940 H 0.6437 0.10859 0.08218 0.0
H941 H 0.59915 0.06452 0.03052 0.0
H942 H 0.67184 0.00795 0.93996 0.0
H943 H 0.64872 0.01763 0.97664 0.0
H944 H 0.68738 0.06112 0.0312 0.0
C945 C 0.62734 0.10005 0.08759 0.0
C946 C 0.61841 0.06344 0.03107 0.0
C947 C 0.61536 0.10974 0.10785 0.0
C948 C 0.6764 0.02406 0.95076 0.0
C949 C 0.66311 0.02963 0.97173 0.0
C950 C 0.66811 0.06176 0.03082 0.0
C951 C 0.61812 0.08011 0.07419 0.0
C952 C 0.63092 0.07035 0.05223 0.0
C953 C 0.66886 0.05002 0.98659 0.0
C954 C 0.65564 0.05568 0.00945 0.0
H955 H 0.56772 0.07192 0.10715 0.0
H956 H 0.589 0.05453 0.07208 0.0
H957 H 0.66623 0.0734 0.06799 0.0
H958 H 0.71531 0.07169 0.95418 0.0
H959 H 0.69235 0.08117 0.99046 0.0
C960 C 0.63959 0.18223 0.69134 0.0
C961 C 0.65589 0.18289 0.67205 0.0
C962 C 0.64623 0.17163 0.71391 0.0
C963 C 0.69787 0.14853 0.75197 0.0
H964 H 0.65274 0.10122 0.77635 0.0
C965 C 0.71369 0.08226 0.83765 0.0
C966 C 0.71022 0.05699 0.83181 0.0
C967 C 0.70681 0.10149 0.82102 0.0
C968 C 0.66543 0.11457 0.76994 0.0
H969 H 0.69228 0.17369 0.66178 0.0
H970 H 0.70383 0.15506 0.70112 0.0
H971 H 0.64175 0.12834 0.74187 0.0
H972 H 0.69671 0.0321 0.80414 0.0
H973 H 0.68438 0.06527 0.77583 0.0
H974 H 0.72188 0.13372 0.7797 0.0
C975 C 0.68597 0.16303 0.69888 0.0
C976 C 0.65909 0.13025 0.75026 0.0
C977 C 0.67932 0.17367 0.67627 0.0
C978 C 0.6996 0.05136 0.8093 0.0
C979 C 0.69241 0.07038 0.79306 0.0
C980 C 0.70416 0.13289 0.77189 0.0
C981 C 0.66934 0.16136 0.7178 0.0
C982 C 0.6754 0.14702 0.74061 0.0
C983 C 0.6959 0.09564 0.79864 0.0
C984 C 0.68819 0.11528 0.7806 0.0
H985 H 0.62155 0.18966 0.6889 0.0
H986 H 0.63309 0.17107 0.72821 0.0
H987 H 0.71076 0.16143 0.74514 0.0
H988 H 0.7219 0.08711 0.85483 0.0
H989 H 0.70974 0.12085 0.82572 0.0
C990 C 0.17064 0.48828 0.05515 0.0
C991 C 0.18458 0.46924 0.06682 0.0
C992 C 0.15557 0.48253 0.03561 0.0
C993 C 0.12513 0.42987 0.00662 0.0
H994 H 0.13015 0.46828 0.94662 0.0
C995 C 0.09566 0.3904 0.91461 0.0
C996 C 0.08461 0.40657 0.89721 0.0
C997 C 0.10545 0.39986 0.93598 0.0
C998 C 0.12819 0.4576 0.96333 0.0
H999 H 0.19299 0.42916 0.06765 0.0
H1000 H 0.1667 0.41922 0.03393 0.0
H1001 H 0.15076 0.48185 0.98342 0.0
H1002 H 0.07532 0.44556 0.88878 0.0
H1003 H 0.0921 0.4621 0.92645 0.0
H1004 H 0.10282 0.40548 0.98667 0.0
C1005 C 0.16736 0.43856 0.03979 0.0
C1006 C 0.14001 0.46539 0.98442 0.0
C1007 C 0.18257 0.44431 0.05905 0.0
C1008 C 0.08355 0.43254 0.90185 0.0
C1009 C 0.09337 0.44204 0.92334 0.0
C1010 C 0.11324 0.42217 0.98564 0.0
C1011 C 0.1539 0.4576 0.02764 0.0
C1012 C 0.13904 0.45127 1.00613 0.0
C1013 C 0.10438 0.42578 0.94071 0.0
C1014 C 0.11508 0.43557 0.96356 0.0
H1015 H 0.17187 0.50768 0.06063 0.0
H1016 H 0.1453 0.49757 0.02666 0.0
H1017 H 0.12371 0.41884 0.0232 0.0
H1018 H 0.0965 0.37027 0.91189 0.0
H1019 H 0.11412 0.38679 0.94872 0.0
C1020 C 0.81315 0.95024 0.30872 0.0
C1021 C 0.79092 0.94767 0.31985 0.0
C1022 C 0.81975 0.93544 0.28883 0.0
C1023 C 0.79539 0.89855 0.23856 0.0
H1024 H 0.86055 0.87286 0.23396 0.0
C1025 C 0.82868 0.83697 0.1578 0.0
C1026 C 0.8512 0.84228 0.14844 0.0
C1027 C 0.82063 0.84814 0.17941 0.0
C1028 C 0.84234 0.88008 0.23483 0.0
H1029 H 0.7582 0.92728 0.3187 0.0
H1030 H 0.76981 0.90132 0.2838 0.0
H1031 H 0.84767 0.89492 0.27054 0.0
H1032 H 0.88299 0.8633 0.15478 0.0
H1033 H 0.86881 0.88311 0.19201 0.0
H1034 H 0.79019 0.884 0.20262 0.0
C1035 C 0.78205 0.91498 0.29052 0.0
C1036 C 0.83494 0.89269 0.25584 0.0
C1037 C 0.77546 0.92976 0.3106 0.0
C1038 C 0.86545 0.85898 0.16126 0.0
C1039 C 0.85743 0.8701 0.18283 0.0
C1040 C 0.80282 0.88593 0.21746 0.0
C1041 C 0.80431 0.91766 0.27942 0.0
C1042 C 0.81148 0.90244 0.25783 0.0
C1043 C 0.83493 0.86482 0.19222 0.0
C1044 C 0.8265 0.87688 0.21519 0.0
H1045 H 0.82554 0.96383 0.31526 0.0
H1046 H 0.83685 0.9383 0.28051 0.0
H1047 H 0.77726 0.90602 0.2394 0.0
H1048 H 0.81714 0.82438 0.14829 0.0
H1049 H 0.80329 0.8435 0.18619 0.0
C1050 C 0.32693 0.5676 0.55846 0.0
C1051 C 0.32517 0.54241 0.56587 0.0
C1052 C 0.34145 0.57398 0.539 0.0
C1053 C 0.36796 0.5483 0.48323 0.0
H1054 H 0.40518 0.60817 0.48573 0.0
C1055 C 0.426 0.58039 0.40231 0.0
C1056 C 0.42523 0.60631 0.39708 0.0
C1057 C 0.41563 0.57116 0.42357 0.0
C1058 C 0.39473 0.5915 0.48464 0.0
H1059 H 0.33768 0.50417 0.55877 0.0
H1060 H 0.36305 0.5154 0.52466 0.0
H1061 H 0.38416 0.59464 0.52194 0.0
H1062 H 0.41329 0.64283 0.41045 0.0
H1063 H 0.39473 0.62675 0.44692 0.0
H1064 H 0.37809 0.54551 0.44574 0.0
C1065 C 0.35304 0.53016 0.53392 0.0
C1066 C 0.38273 0.58373 0.50542 0.0
C1067 C 0.33862 0.52377 0.55356 0.0
C1068 C 0.41391 0.62273 0.41365 0.0
C1069 C 0.40357 0.61352 0.43481 0.0
C1070 C 0.3799 0.55615 0.46237 0.0
C1071 C 0.3545 0.55534 0.52635 0.0
C1072 C 0.3689 0.56227 0.50486 0.0
C1073 C 0.40434 0.58764 0.44011 0.0
C1074 C 0.39311 0.5781 0.46271 0.0
H1075 H 0.31687 0.58247 0.5675 0.0
H1076 H 0.34195 0.59351 0.53344 0.0
H1077 H 0.35726 0.53182 0.48215 0.0
H1078 H 0.43444 0.56721 0.38988 0.0
H1079 H 0.41669 0.55113 0.42717 0.0
C1080 C 0.18618 0.21872 0.42707 0.0
C1081 C 0.1851 0.20432 0.44864 0.0
C1082 C 0.20552 0.21534 0.41108 0.0
C1083 C 0.26846 0.1961 0.4128 0.0
H1084 H 0.26388 0.17909 0.34436 0.0
C1085 C 0.34876 0.15286 0.36219 0.0
C1086 C 0.35194 0.15788 0.33721 0.0
C1087 C 0.32825 0.16144 0.37422 0.0
C1088 C 0.26556 0.18429 0.36334 0.0
H1089 H 0.20289 0.17456 0.46983 0.0
H1090 H 0.23634 0.16905 0.44243 0.0
H1091 H 0.22762 0.18905 0.3674 0.0
H1092 H 0.33579 0.17641 0.30549 0.0
H1093 H 0.30031 0.1921 0.32671 0.0
H1094 H 0.30614 0.19162 0.40911 0.0
C1095 C 0.22247 0.18295 0.4378 0.0
C1096 C 0.24473 0.18994 0.37651 0.0
C1097 C 0.2032 0.18606 0.45345 0.0
C1098 C 0.33414 0.17232 0.32477 0.0
C1099 C 0.31358 0.18105 0.33689 0.0
C1100 C 0.2892 0.19079 0.39966 0.0
C1101 C 0.22415 0.1978 0.41669 0.0
C1102 C 0.24597 0.19524 0.40155 0.0
C1103 C 0.31026 0.17561 0.3618 0.0
C1104 C 0.2881 0.18407 0.3749 0.0
H1105 H 0.17257 0.23304 0.42296 0.0
H1106 H 0.20638 0.22704 0.39489 0.0
H1107 H 0.27 0.20049 0.43201 0.0
H1108 H 0.36213 0.14215 0.37256 0.0
H1109 H 0.32634 0.15643 0.39326 0.0
C1110 C 0.08411 0.10941 0.58809 0.0
C1111 C 0.10842 0.11452 0.58959 0.0
C1112 C 0.0757 0.08686 0.59724 0.0
C1113 C 0.09572 0.02275 0.61822 0.0
H1114 H 0.03564 0.02502 0.65248 0.0
C1115 C 0.06803 0.9465 0.68629 0.0
C1116 C 0.04441 0.93871 0.68553 0.0
C1117 C 0.07513 0.96644 0.67173 0.0
C1118 C 0.05227 0.02402 0.64266 0.0
H1119 H 0.143 0.10006 0.60177 0.0
H1120 H 0.12833 0.06096 0.61839 0.0
H1121 H 0.04958 0.06294 0.63291 0.0
H1122 H 0.00978 0.94548 0.66855 0.0
H1123 H 0.0222 0.98076 0.64327 0.0
H1124 H 0.09872 0.98398 0.62889 0.0
C1125 C 0.11577 0.07405 0.6096 0.0
C1126 C 0.06029 0.04574 0.63138 0.0
C1127 C 0.1242 0.09651 0.60019 0.0
C1128 C 0.02811 0.95103 0.66952 0.0
C1129 C 0.03517 0.97128 0.65516 0.0
C1130 C 0.0878 1.00111 0.62971 0.0
C1131 C 0.09137 0.06898 0.60836 0.0
C1132 C 0.08225 0.04548 0.61923 0.0
C1133 C 0.05873 0.97926 0.65626 0.0
C1134 C 0.06612 1.00159 0.64227 0.0
H1135 H 0.07159 0.12281 0.57965 0.0
H1136 H 0.0569 0.08344 0.5955 0.0
H1137 H 0.11245 0.02166 0.60861 0.0
H1138 H 0.08108 0.93734 0.69833 0.0
H1139 H 0.09333 0.97233 0.67315 0.0
C1140 C 0.17993 0.83707 0.81681 0.0
C1141 C 0.15803 0.83782 0.82906 0.0
C1142 C 0.20085 0.82867 0.82881 0.0
C1143 C 0.22336 0.7923 0.88266 0.0
H1144 H 0.27875 0.83326 0.87695 0.0
C1145 C 0.29924 0.78745 0.95344 0.0
C1146 C 0.32277 0.7909 0.94612 0.0
C1147 C 0.2804 0.7903 0.93681 0.0
C1148 C 0.26364 0.8213 0.87843 0.0
H1149 H 0.14091 0.82946 0.8633 0.0
H1150 H 0.17735 0.8149 0.88424 0.0
H1151 H 0.24335 0.84335 0.85225 0.0
H1152 H 0.3451 0.79968 0.91546 0.0
H1153 H 0.31205 0.80431 0.88604 0.0
H1154 H 0.24347 0.7704 0.90899 0.0
C1155 C 0.17836 0.82075 0.86532 0.0
C1156 C 0.24329 0.82713 0.86429 0.0
C1157 C 0.15749 0.82932 0.85339 0.0
C1158 C 0.32714 0.79677 0.92158 0.0
C1159 C 0.30819 0.79964 0.90481 0.0
C1160 C 0.24372 0.78639 0.89669 0.0
C1161 C 0.20036 0.82062 0.85328 0.0
C1162 C 0.22273 0.81302 0.86661 0.0
C1163 C 0.28452 0.79663 0.91229 0.0
C1164 C 0.26396 0.80115 0.89519 0.0
H1165 H 0.18104 0.8437 0.79814 0.0
H1166 H 0.21745 0.82861 0.81895 0.0
H1167 H 0.20801 0.78075 0.88456 0.0
H1168 H 0.29527 0.78292 0.97223 0.0
H1169 H 0.26247 0.78826 0.94342 0.0
C1170 C 0.45913 0.0483 0.20103 0.0
C1171 C 0.47605 0.066 0.19471 0.0
C1172 C 0.45586 0.02718 0.18664 0.0
C1173 C 0.46157 1.00355 0.12475 0.0
H1174 H 0.45524 0.93849 0.15591 0.0
C1175 C 0.41337 0.92136 0.0805 0.0
C1176 C 0.42308 0.89688 0.08366 0.0
C1177 C 0.42352 0.94165 0.09219 0.0
C1178 C 0.45725 0.95644 0.14688 0.0
H1179 H 0.50274 0.07539 0.16811 0.0
H1180 H 0.49658 0.03854 0.14257 0.0
H1181 H 0.46615 0.97456 0.18035 0.0
H1182 H 0.45139 0.8745 0.10108 0.0
H1183 H 0.46907 0.91006 0.12184 0.0
H1184 H 0.45198 0.98554 0.09139 0.0
C1185 C 0.48599 0.04109 0.15884 0.0
C1186 C 0.46329 0.97713 0.1609 0.0
C1187 C 0.48953 0.06214 0.17348 0.0
C1188 C 0.44358 0.89318 0.09827 0.0
C1189 C 0.45359 0.91348 0.11024 0.0
C1190 C 0.45525 0.9829 0.11076 0.0
C1191 C 0.46922 0.02332 0.16539 0.0
C1192 C 0.46513 1.00098 0.15006 0.0
C1193 C 0.4435 0.93789 0.10752 0.0
C1194 C 0.45266 0.9592 0.12175 0.0
H1195 H 0.44851 0.05057 0.2173 0.0
H1196 H 0.4426 0.01398 0.19198 0.0
H1197 H 0.46277 0.02172 0.11593 0.0
H1198 H 0.3977 0.9248 0.06916 0.0
H1199 H 0.41519 0.96017 0.08991 0.0
C1200 C 0.85135 0.36747 0.64646 0.0
C1201 C 0.86147 0.35742 0.66809 0.0
C1202 C 0.83012 0.3585 0.6372 0.0
C1203 C 0.77688 0.32344 0.65384 0.0
H1204 H 0.77008 0.3194 0.58353 0.0
C1205 C 0.69481 0.28457 0.60054 0.0
C1206 C 0.68646 0.30051 0.58149 0.0
C1207 C 0.71582 0.28979 0.61323 0.0
C1208 C 0.77173 0.32045 0.60321 0.0
H1209 H 0.85694 0.33007 0.69709 0.0
H1210 H 0.8201 0.31386 0.68047 0.0
H1211 H 0.80793 0.33094 0.60123 0.0
H1212 H 0.69314 0.33508 0.56172 0.0
H1213 H 0.72952 0.34383 0.58358 0.0
H1214 H 0.74042 0.31271 0.65552 0.0
C1215 C 0.82851 0.32897 0.67087 0.0
C1216 C 0.79337 0.32719 0.61336 0.0
C1217 C 0.84977 0.33807 0.68024 0.0
C1218 C 0.69903 0.32222 0.57611 0.0
C1219 C 0.71999 0.32724 0.58855 0.0
C1220 C 0.75519 0.31642 0.64362 0.0
C1221 C 0.8185 0.33901 0.64916 0.0
C1222 C 0.79606 0.32942 0.63877 0.0
C1223 C 0.72888 0.31084 0.60685 0.0
C1224 C 0.7523 0.3155 0.61817 0.0
H1225 H 0.85997 0.38214 0.63642 0.0
H1226 H 0.82274 0.36701 0.62068 0.0
H1227 H 0.77832 0.32507 0.67348 0.0
H1228 H 0.68551 0.26778 0.60523 0.0
H1229 H 0.72233 0.27691 0.62735 0.0
C1230 C 0.97731 0.45641 0.80073 0.0
C1231 C 0.97544 0.43028 0.80304 0.0
C1232 C 0.97328 0.47211 0.82058 0.0
C1233 C 0.94054 0.47584 0.87792 0.0
H1234 H 0.97476 0.53744 0.88452 0.0
C1235 C 0.8998 0.56373 0.92467 0.0
C1236 C 0.91465 0.57993 0.93744 0.0
C1237 C 0.90936 0.54313 0.91196 0.0
C1238 C 0.96518 0.5202 0.88331 0.0
H1239 H 0.96877 0.39992 0.82827 0.0
H1240 H 0.96151 0.42762 0.86341 0.0
H1241 H 0.98919 0.50518 0.85664 0.0
H1242 H 0.95135 0.58663 0.94714 0.0
H1243 H 0.96798 0.55037 0.92544 0.0
H1244 H 0.91646 0.49095 0.90455 0.0
C1245 C 0.96598 0.43588 0.846 0.0
C1246 C 0.97334 0.50176 0.86708 0.0
C1247 C 0.97023 0.42002 0.82598 0.0
C1248 C 0.93933 0.57455 0.93763 0.0
C1249 C 0.9489 0.55386 0.92495 0.0
C1250 C 0.93239 0.49429 0.89424 0.0
C1251 C 0.9672 0.46218 0.84341 0.0
C1252 C 0.96075 0.47967 0.86363 0.0
C1253 C 0.93406 0.53799 0.91173 0.0
C1254 C 0.94424 0.51702 0.89666 0.0
H1255 H 0.98143 0.46489 0.78331 0.0
H1256 H 0.97404 0.4922 0.81771 0.0
H1257 H 0.93035 0.45912 0.87568 0.0
H1258 H 0.88069 0.56695 0.92444 0.0
H1259 H 0.89735 0.5316 0.90177 0.0
C1260 C 0.81367 0.7239 0.0914 0.0
C1261 C 0.82277 0.70814 0.07295 0.0
C1262 C 0.79358 0.71724 0.10457 0.0
C1263 C 0.74042 0.68019 0.09773 0.0
H1264 H 0.73504 0.68497 0.16802 0.0
C1265 C 0.66204 0.6382 0.14806 0.0
C1266 C 0.65214 0.65133 0.16789 0.0
C1267 C 0.68316 0.64571 0.13753 0.0
C1268 C 0.73614 0.68386 0.14835 0.0
H1269 H 0.81841 0.67255 0.05464 0.0
H1270 H 0.78351 0.66113 0.07749 0.0
H1271 H 0.77179 0.69703 0.14816 0.0
H1272 H 0.65702 0.68262 0.19235 0.0
H1273 H 0.69354 0.69625 0.1734 0.0
H1274 H 0.70486 0.66746 0.09763 0.0
C1275 C 0.79173 0.67872 0.08158 0.0
C1276 C 0.7572 0.6907 0.13701 0.0
C1277 C 0.81184 0.68524 0.06858 0.0
C1278 C 0.66398 0.67222 0.17693 0.0
C1279 C 0.6851 0.67985 0.16626 0.0
C1280 C 0.71937 0.67358 0.10898 0.0
C1281 C 0.78213 0.69483 0.09939 0.0
C1282 C 0.75964 0.68859 0.11162 0.0
C1283 C 0.69488 0.66675 0.14633 0.0
C1284 C 0.71704 0.67498 0.13446 0.0
H1285 H 0.8217 0.74164 0.09529 0.0
H1286 H 0.78651 0.73003 0.11819 0.0
H1287 H 0.74161 0.67888 0.07806 0.0
H1288 H 0.6533 0.62226 0.14034 0.0
H1289 H 0.69035 0.63489 0.12248 0.0
C1290 C 0.59728 0.44932 0.44279 0.0
C1291 C 0.59008 0.42462 0.43875 0.0
C1292 C 0.58787 0.46939 0.42871 0.0
C1293 C 0.56139 0.482 0.36823 0.0
H1294 H 0.54683 0.54857 0.39346 0.0
C1295 C 0.52566 0.55902 0.3038 0.0
C1296 C 0.53546 0.58279 0.30565 0.0
C1297 C 0.52896 0.54124 0.32242 0.0
C1298 C 0.551 0.53015 0.38611 0.0
H1299 H 0.56665 0.40188 0.41727 0.0
H1300 H 0.55008 0.43693 0.3928 0.0
H1301 H 0.5587 0.51432 0.42158 0.0
H1302 H 0.55521 0.60732 0.32896 0.0
H1303 H 0.56173 0.57581 0.36159 0.0
H1304 H 0.55448 0.49762 0.33284 0.0
C1305 C 0.56322 0.44071 0.40673 0.0
C1306 C 0.55775 0.5105 0.40222 0.0
C1307 C 0.57255 0.42065 0.4209 0.0
C1308 C 0.54743 0.5891 0.32719 0.0
C1309 C 0.55114 0.57103 0.34582 0.0
C1310 C 0.55481 0.50155 0.35219 0.0
C1311 C 0.57109 0.46527 0.41016 0.0
C1312 C 0.56299 0.48616 0.39345 0.0
C1313 C 0.54265 0.54654 0.34321 0.0
C1314 C 0.5494 0.5259 0.36085 0.0
H1315 H 0.61051 0.4531 0.45663 0.0
H1316 H 0.59443 0.48799 0.43178 0.0
H1317 H 0.56586 0.46369 0.36074 0.0
H1318 H 0.51603 0.55383 0.28749 0.0
H1319 H 0.52142 0.52297 0.32008 0.0
C1320 C 0.33852 0.34226 0.17896 0.0
C1321 C 0.32032 0.33912 0.16166 0.0
C1322 C 0.35041 0.32134 0.18962 0.0
C1323 C 0.36388 0.25397 0.17794 0.0
H1324 H 0.38952 0.25512 0.24378 0.0
C1325 C 0.42528 0.17314 0.21619 0.0
C1326 C 0.44681 0.18188 0.22544 0.0
C1327 C 0.40595 0.19002 0.21185 0.0
C1328 C 0.38238 0.25448 0.22538 0.0
H1329 H 0.2994 0.31158 0.14302 0.0
H1330 H 0.31986 0.27517 0.16179 0.0
H1331 H 0.36294 0.28944 0.22947 0.0
H1332 H 0.46458 0.21448 0.239 0.0
H1333 H 0.43101 0.24365 0.23185 0.0
H1334 H 0.38375 0.21925 0.17374 0.0
C1335 C 0.32543 0.29374 0.1667 0.0
C1336 C 0.36726 0.27422 0.21712 0.0
C1337 C 0.31366 0.31462 0.15597 0.0
C1338 C 0.44822 0.20729 0.23169 0.0
C1339 C 0.42891 0.22398 0.22775 0.0
C1340 C 0.37889 0.23417 0.18626 0.0
C1341 C 0.34426 0.29678 0.18335 0.0
C1342 C 0.35827 0.27454 0.19309 0.0
C1343 C 0.40776 0.21573 0.21718 0.0
C1344 C 0.38879 0.23451 0.20986 0.0
H1345 H 0.3442 0.36087 0.18358 0.0
H1346 H 0.36503 0.32448 0.20209 0.0
H1347 H 0.35759 0.25366 0.15922 0.0
H1348 H 0.42377 0.1536 0.21126 0.0
H1349 H 0.38979 0.18311 0.20384 0.0
C1350 C 0.94753 0.30795 0.80124 0.0
C1351 C 0.94523 0.32061 0.77869 0.0
C1352 C 0.93206 0.2891 0.80758 0.0
C1353 C 0.89157 0.24304 0.78214 0.0
H1354 H 0.87007 0.2395 0.84907 0.0
C1355 C 0.82811 0.16661 0.81776 0.0
C1356 C 0.83367 0.15625 0.84091 0.0
C1357 C 0.84026 0.1873 0.80886 0.0
C1358 C 0.87606 0.24005 0.83035 0.0
H1359 H 0.92463 0.32321 0.74506 0.0
H1360 H 0.89744 0.29006 0.75623 0.0
H1361 H 0.89325 0.27477 0.83587 0.0
H1362 H 0.85637 0.1598 0.87283 0.0
H1363 H 0.87774 0.19526 0.85719 0.0
H1364 H 0.87457 0.20801 0.77681 0.0
C1365 C 0.91142 0.29481 0.76893 0.0
C1366 C 0.88933 0.26033 0.82277 0.0
C1367 C 0.92691 0.31389 0.7626 0.0
C1368 C 0.85179 0.16699 0.8548 0.0
C1369 C 0.86384 0.18762 0.84596 0.0
C1370 C 0.87825 0.22265 0.78977 0.0
C1371 C 0.91379 0.28226 0.79157 0.0
C1372 C 0.89767 0.26186 0.79871 0.0
C1373 C 0.85812 0.19821 0.82298 0.0
C1374 C 0.87074 0.22068 0.81412 0.0
H1375 H 0.96141 0.31249 0.81414 0.0
H1376 H 0.9347 0.27958 0.82497 0.0
H1377 H 0.89784 0.24356 0.76353 0.0
H1378 H 0.81439 0.15871 0.80649 0.0
H1379 H 0.83534 0.19503 0.79112 0.0
C1380 C 0.09497 0.58842 0.07945 0.0
C1381 C 0.10376 0.59095 0.10338 0.0
C1382 C 0.07228 0.59803 0.073 0.0
C1383 C 0.01452 0.61928 0.09906 0.0
H1384 H 1.00761 0.65805 0.03913 0.0
C1385 C 0.93518 0.68846 0.08032 0.0
C1386 C 0.92692 0.69187 0.05625 0.0
C1387 C 0.95507 0.67276 0.08539 0.0
C1388 C 0.00905 0.6469 0.05571 0.0
H1389 H 0.0953 0.60493 0.13943 0.0
H1390 H 0.05589 0.62192 0.12814 0.0
H1391 H 0.04569 0.63718 0.04917 0.0
H1392 H 0.93206 0.68047 0.01874 0.0
H1393 H 0.9666 0.65268 0.02761 0.0
H1394 H 0.97797 0.62926 0.10576 0.0
C1395 C 0.06647 0.6124 0.11437 0.0
C1396 C 0.03094 0.63496 0.06149 0.0
C1397 C 0.08918 0.60293 0.12078 0.0
C1398 C 0.9382 0.67835 0.03746 0.0
C1399 C 0.95807 0.66257 0.04253 0.0
C1400 C 0.9926 0.63115 0.09325 0.0
C1401 C 0.0578 0.61021 0.09037 0.0
C1402 C 0.03404 0.62134 0.08341 0.0
C1403 C 0.96708 0.66002 0.0665 0.0
C1404 C 0.98968 0.64544 0.07167 0.0
H1405 H 0.10581 0.57944 0.06557 0.0
H1406 H 0.06606 0.59586 0.05441 0.0
H1407 H 0.0162 0.60857 0.1159 0.0
H1408 H 0.92681 0.69863 0.09517 0.0
H1409 H 0.9616 0.67148 0.10402 0.0
C1410 C 0.68134 0.84792 0.32785 0.0
C1411 C 0.67079 0.86272 0.34627 0.0
C1412 C 0.6695 0.82749 0.31804 0.0
C1413 C 0.60894 0.80222 0.31211 0.0
H1414 H 0.64215 0.73892 0.29849 0.0
C1415 C 0.55899 0.71135 0.30049 0.0
C1416 C 0.5651 0.69522 0.28114 0.0
C1417 C 0.57298 0.7316 0.3063 0.0
C1418 C 0.6327 0.75658 0.3019 0.0
H1419 H 0.63929 0.86755 0.36857 0.0
H1420 H 0.61914 0.83178 0.35212 0.0
H1421 H 0.66455 0.77466 0.31286 0.0
H1422 H 0.59123 0.68766 0.25302 0.0
H1423 H 0.61598 0.72323 0.26346 0.0
H1424 H 0.57709 0.7841 0.30174 0.0
C1425 C 0.63641 0.83609 0.34493 0.0
C1426 C 0.64552 0.77709 0.31013 0.0
C1427 C 0.64818 0.85645 0.35467 0.0
C1428 C 0.58596 0.6997 0.26801 0.0
C1429 C 0.60017 0.72 0.27402 0.0
C1430 C 0.59619 0.78178 0.30405 0.0
C1431 C 0.64679 0.82141 0.32635 0.0
C1432 C 0.63371 0.80003 0.31581 0.0
C1433 C 0.59362 0.73636 0.29306 0.0
C1434 C 0.60781 0.75857 0.2993 0.0
H1435 H 0.69882 0.85203 0.32107 0.0
H1436 H 0.678 0.81671 0.30368 0.0
H1437 H 0.59929 0.81975 0.31562 0.0
H1438 H 0.54315 0.70857 0.31114 0.0
H1439 H 0.56764 0.74355 0.32134 0.0
C1440 C 0.55311 0.31232 0.54555 0.0
C1441 C 0.57649 0.31714 0.55271 0.0
C1442 C 0.5352 0.33083 0.54727 0.0
C1443 C 0.51746 0.38395 0.58415 0.0
H1444 H 0.46505 0.38754 0.53762 0.0
C1445 C 0.42519 0.43412 0.60242 0.0
C1446 C 0.4059 0.41854 0.59788 0.0
C1447 C 0.44819 0.42699 0.59495 0.0
C1448 C 0.47961 0.3869 0.55071 0.0
H1449 H 0.59989 0.34536 0.56634 0.0
H1450 H 0.56803 0.37811 0.56996 0.0
H1451 H 0.50274 0.36706 0.5262 0.0
H1452 H 0.39609 0.3828 0.58263 0.0
H1453 H 0.43588 0.37084 0.56912 0.0
H1454 H 0.49382 0.40301 0.60897 0.0
C1455 C 0.56375 0.35988 0.56287 0.0
C1456 C 0.50118 0.37524 0.54417 0.0
C1457 C 0.58193 0.34127 0.56072 0.0
C1458 C 0.41029 0.39561 0.58591 0.0
C1459 C 0.43313 0.3887 0.57819 0.0
C1460 C 0.49583 0.39582 0.59065 0.0
C1461 C 0.54013 0.35465 0.55644 0.0
C1462 C 0.51996 0.37261 0.56118 0.0
C1463 C 0.45228 0.40434 0.58249 0.0
C1464 C 0.47641 0.39638 0.57432 0.0
H1465 H 0.54849 0.2939 0.53913 0.0
H1466 H 0.5172 0.32602 0.5425 0.0
H1467 H 0.53156 0.38209 0.59769 0.0
H1468 H 0.42247 0.45206 0.61131 0.0
H1469 H 0.46268 0.43937 0.59849 0.0
C1470 C 0.16975 0.6662 0.68257 0.0
C1471 C 0.19214 0.66864 0.67182 0.0
C1472 C 0.15764 0.68707 0.69237 0.0
C1473 C 0.15289 0.75574 0.68593 0.0
H1474 H 0.11124 0.74981 0.74151 0.0
C1475 C 0.08498 0.83513 0.71341 0.0
C1476 C 0.06184 0.8263 0.71547 0.0
C1477 C 0.10455 0.81807 0.71257 0.0
C1478 C 0.1229 0.75181 0.72604 0.0
H1479 H 0.21967 0.69486 0.66356 0.0
H1480 H 0.19863 0.73127 0.68102 0.0
H1481 H 0.13924 0.71537 0.73191 0.0
H1482 H 0.041 0.79305 0.71938 0.0
H1483 H 0.07484 0.76355 0.71809 0.0
H1484 H 0.13592 0.7919 0.67966 0.0
C1485 C 0.19036 0.71322 0.68165 0.0
C1486 C 0.13887 0.73205 0.72048 0.0
C1487 C 0.20251 0.69229 0.67188 0.0
C1488 C 0.05864 0.80038 0.71763 0.0
C1489 C 0.07807 0.78347 0.71712 0.0
C1490 C 0.13695 0.77557 0.69156 0.0
C1491 C 0.1676 0.71093 0.69168 0.0
C1492 C 0.15348 0.73342 0.69987 0.0
C1493 C 0.10121 0.79204 0.71423 0.0
C1494 C 0.12122 0.77343 0.71117 0.0
H1495 H 0.16137 0.6482 0.68306 0.0
H1496 H 0.14003 0.68463 0.69968 0.0
H1497 H 0.16376 0.75738 0.66983 0.0
H1498 H 0.08788 0.85507 0.71181 0.0
H1499 H 0.12223 0.82518 0.71042 0.0
C1500 C 0.44265 0.84621 0.97176 0.0
C1501 C 0.43641 0.82646 0.95633 0.0
C1502 C 0.46227 0.86085 0.96643 0.0
C1503 C 0.50357 0.87662 0.91595 0.0
H1504 H 0.54629 0.894 0.96856 0.0
C1505 C 0.58815 0.93168 0.89703 0.0
C1506 C 0.60895 0.92421 0.90994 0.0
C1507 C 0.56605 0.9226 0.90369 0.0
C1508 C 0.53464 0.88918 0.95361 0.0
H1509 H 0.44579 0.80703 0.92288 0.0
H1510 H 0.47981 0.83202 0.91391 0.0
H1511 H 0.50961 0.8729 0.9778 0.0
H1512 H 0.62275 0.90145 0.94014 0.0
H1513 H 0.58436 0.88518 0.95149 0.0
H1514 H 0.52898 0.89174 0.89165 0.0
C1515 C 0.46946 0.83661 0.92993 0.0
C1516 C 0.51338 0.87737 0.95896 0.0
C1517 C 0.44994 0.82209 0.93522 0.0
C1518 C 0.60704 0.90779 0.92997 0.0
C1519 C 0.58496 0.89852 0.93652 0.0
C1520 C 0.52483 0.88827 0.9106 0.0
C1521 C 0.47606 0.85608 0.94552 0.0
C1522 C 0.49771 0.8706 0.94016 0.0
C1523 C 0.56416 0.90559 0.92332 0.0
C1524 C 0.54083 0.89448 0.92931 0.0
H1525 H 0.43269 0.8501 0.98821 0.0
H1526 H 0.46665 0.87585 0.97872 0.0
H1527 H 0.49181 0.87208 0.90099 0.0
H1528 H 0.58895 0.94463 0.88175 0.0
H1529 H 0.55044 0.92893 0.89339 0.0
C1530 C 0.91996 0.10479 0.39836 0.0
C1531 C 0.90791 0.08888 0.4143 0.0
C1532 C 0.94123 0.11556 0.40552 0.0
C1533 C 0.97712 0.13262 0.45933 0.0
H1534 H 0.02795 0.13513 0.41215 0.0
C1535 C 0.06901 0.17429 0.48254 0.0
C1536 C 0.07869 0.18969 0.46443 0.0
C1537 C 0.04913 0.15991 0.4774 0.0
C1538 C 0.0139 0.13481 0.42551 0.0
H1539 H 0.90875 0.07221 0.45051 0.0
H1540 H 0.946 0.09106 0.46303 0.0
H1541 H 0.99126 0.11469 0.40155 0.0
H1542 H 0.07509 0.20154 0.42654 0.0
H1543 H 0.04067 0.17692 0.41778 0.0
H1544 H 0.99966 0.15319 0.48314 0.0
C1545 C 0.93888 0.0952 0.44497 0.0
C1546 C 0.99282 0.12306 0.41941 0.0
C1547 C 0.91763 0.08425 0.43773 0.0
C1548 C 0.06827 0.18991 0.441 0.0
C1549 C 0.04851 0.17559 0.43588 0.0
C1550 C 0.99823 0.14451 0.46541 0.0
C1551 C 0.95106 0.11083 0.42885 0.0
C1552 C 0.974 0.12212 0.43608 0.0
C1553 C 0.03851 0.1605 0.45401 0.0
C1554 C 0.01677 0.1461 0.44844 0.0
H1555 H 0.91322 0.10854 0.38008 0.0
H1556 H 0.94993 0.12775 0.39274 0.0
H1557 H 0.96294 0.13238 0.47255 0.0
H1558 H 0.07652 0.17365 0.50081 0.0
H1559 H 0.04209 0.14832 0.49175 0.0
loop_
_geom_bond_atom_site_label_1
_geom_bond_atom_site_label_2
_geom_bond_distance
_geom_bond_site_symmetry_2
_ccdc_geom_bond_type
Gd0 C3 2.818 . S
Gd0 O20 2.377 . S
Gd0 O22 2.448 . S
Gd0 O23 2.506 . S
Gd0 O24 2.435 . S
Gd0 O25 2.717 . S
Gd0 O27 2.395 . S
Gd0 O31 2.327 . S
Gd1 C12 2.818 . S
Gd1 O21 2.395 . S
Gd1 O25 2.327 . S
Gd1 O26 2.377 . S
Gd1 O28 2.448 . S
Gd1 O29 2.506 . S
Gd1 O30 2.435 . S
Gd1 O31 2.717 . S
C2 O20 1.240 . S
C2 O21 1.240 . S
C3 Gd0 2.818 . S
C3 C4 1.510 . S
C3 O22 1.249 . S
C3 O23 1.252 . S
C4 C3 1.510 . S
C4 C5 1.404 . S
C4 C6 1.352 . S
C5 C4 1.404 . S
C5 C9 1.389 . S
C5 H32 0.930 . S
C6 C4 1.352 . S
C6 C8 1.374 . S
C6 H33 0.931 . S
C7 C8 1.359 . S
C7 C9 1.364 . S
C8 C6 1.374 . S
C8 C7 1.359 . S
C8 H34 0.931 . S
C9 C5 1.389 . S
C9 C7 1.364 . S
C9 H35 0.931 . S
C10 O24 1.256 . S
C10 O25 1.257 . S
C11 O26 1.240 . S
C11 O27 1.240 . S
C12 Gd1 2.818 . S
C12 C13 1.510 . S
C12 O28 1.249 . S
C12 O29 1.252 . S
C13 C12 1.510 . S
C13 C14 1.404 . S
C13 C15 1.352 . S
C14 C13 1.404 . S
C14 C18 1.389 . S
C14 H36 0.930 . S
C15 C13 1.352 . S
C15 C17 1.374 . S
C15 H37 0.931 . S
C16 C17 1.359 . S
C16 C18 1.364 . S
C17 C15 1.374 . S
C17 C16 1.359 . S
C17 H38 0.931 . S
C18 C14 1.389 . S
C18 C16 1.364 . S
C18 H39 0.931 . S
C19 O30 1.256 . S
C19 O31 1.257 . S
O20 Gd0 2.377 . S
O20 C2 1.240 . S
O21 Gd1 2.395 . S
O21 C2 1.240 . S
O22 Gd0 2.448 . S
O22 C3 1.249 . S
O23 Gd0 2.506 . S
O23 C3 1.252 . S
O24 Gd0 2.435 . S
O24 C10 1.256 . S
O25 Gd0 2.717 . S
O25 Gd1 2.327 . S
O25 C10 1.257 . S
O26 Gd1 2.377 . S
O26 C11 1.240 . S
O27 Gd0 2.395 . S
O27 C11 1.240 . S
O28 Gd1 2.448 . S
O28 C12 1.249 . S
O29 Gd1 2.506 . S
O29 C12 1.252 . S
O30 Gd1 2.435 . S
O30 C19 1.256 . S
O31 Gd0 2.327 . S
O31 Gd1 2.717 . S
O31 C19 1.257 . S
H32 C5 0.930 . S
H33 C6 0.931 . S
H34 C8 0.931 . S
H35 C9 0.931 . S
H36 C14 0.930 . S
H37 C15 0.931 . S
H38 C17 0.931 . S
H39 C18 0.931 . S
Gd40 C43 2.818 . S
Gd40 O60 2.377 1_655 S
Gd40 O62 2.448 . S
Gd40 O63 2.506 . S
Gd40 O64 2.435 1_655 S
Gd40 O65 2.717 1_655 S
Gd40 O67 2.395 . S
Gd40 O71 2.327 . S
Gd41 C52 2.818 . S
Gd41 O61 2.395 . S
Gd41 O65 2.327 . S
Gd41 O66 2.377 . S
Gd41 O68 2.448 . S
Gd41 O69 2.506 . S
Gd41 O70 2.435 . S
Gd41 O71 2.717 1_455 S
C42 O60 1.240 . S
C42 O61 1.240 . S
C43 Gd40 2.818 . S
C43 C44 1.510 . S
C43 O62 1.249 . S
C43 O63 1.252 . S
C44 C43 1.510 . S
C44 C45 1.404 . S
C44 C46 1.352 . S
C45 C44 1.404 . S
C45 C49 1.389 . S
C45 H72 0.930 . S
C46 C44 1.352 . S
C46 C48 1.374 . S
C46 H73 0.931 . S
C47 C48 1.359 . S
C47 C49 1.364 . S
C48 C46 1.374 . S
C48 C47 1.359 . S
C48 H74 0.931 . S
C49 C45 1.389 . S
C49 C47 1.364 . S
C49 H75 0.931 . S
C50 O64 1.256 . S
C50 O65 1.257 . S
C51 O66 1.240 . S
C51 O67 1.240 1_455 S
C52 Gd41 2.818 . S
C52 C53 1.510 . S
C52 O68 1.249 . S
C52 O69 1.252 . S
C53 C52 1.510 . S
C53 C54 1.404 . S
C53 C55 1.352 . S
C54 C53 1.404 . S
C54 C58 1.389 . S
C54 H76 0.930 . S
C55 C53 1.352 . S
C55 C57 1.374 . S
C55 H77 0.931 . S
C56 C57 1.359 . S
C56 C58 1.364 . S
C57 C55 1.374 . S
C57 C56 1.359 . S
C57 H78 0.931 . S
C58 C54 1.389 . S
C58 C56 1.364 . S
C58 H79 0.931 . S
C59 O70 1.256 1_655 S
C59 O71 1.257 . S
O60 Gd40 2.377 1_455 S
O60 C42 1.240 . S
O61 Gd41 2.395 . S
O61 C42 1.240 . S
O62 Gd40 2.448 . S
O62 C43 1.249 . S
O63 Gd40 2.506 . S
O63 C43 1.252 . S
O64 Gd40 2.435 1_455 S
O64 C50 1.256 . S
O65 Gd40 2.717 1_455 S
O65 Gd41 2.327 . S
O65 C50 1.257 . S
O66 Gd41 2.377 . S
O66 C51 1.240 . S
O67 Gd40 2.395 . S
O67 C51 1.240 1_655 S
O68 Gd41 2.448 . S
O68 C52 1.249 . S
O69 Gd41 2.506 . S
O69 C52 1.252 . S
O70 Gd41 2.435 . S
O70 C59 1.256 1_455 S
O71 Gd40 2.327 . S
O71 Gd41 2.717 1_655 S
O71 C59 1.257 . S
H72 C45 0.930 . S
H73 C46 0.931 . S
H74 C48 0.931 . S
H75 C49 0.931 . S
H76 C54 0.930 . S
H77 C55 0.931 . S
H78 C57 0.931 . S
H79 C58 0.931 . S
Gd80 C83 2.818 . S
Gd80 O100 2.377 1_554 S
Gd80 O102 2.448 . S
Gd80 O103 2.506 . S
Gd80 O104 2.435 1_554 S
Gd80 O105 2.717 1_554 S
Gd80 O107 2.395 . S
Gd80 O111 2.329 . S
Gd81 C92 2.818 . S
Gd81 O101 2.395 . S
Gd81 O105 2.327 . S
Gd81 O106 2.377 . S
Gd81 O108 2.448 . S
Gd81 O109 2.506 . S
Gd81 O110 2.435 . S
Gd81 O111 2.710 1_556 S
C82 O100 1.240 . S
C82 O101 1.240 . S
C83 Gd80 2.818 . S
C83 C84 1.510 . S
C83 O102 1.249 . S
C83 O103 1.252 . S
C84 C83 1.510 . S
C84 C85 1.404 . S
C84 C86 1.352 . S
C85 C84 1.404 . S
C85 C89 1.389 . S
C85 H112 0.930 . S
C86 C84 1.352 . S
C86 C88 1.374 . S
C86 H113 0.931 . S
C87 C88 1.359 . S
C87 C89 1.364 . S
C88 C86 1.374 . S
C88 C87 1.359 . S
C88 H114 0.931 . S
C89 C85 1.389 . S
C89 C87 1.364 . S
C89 H115 0.931 . S
C90 O104 1.256 . S
C90 O105 1.257 . S
C91 O106 1.240 . S
C91 O107 1.240 1_556 S
C92 Gd81 2.818 . S
C92 C93 1.510 . S
C92 O108 1.249 . S
C92 O109 1.252 . S
C93 C92 1.510 . S
C93 C94 1.404 . S
C93 C95 1.352 . S
C94 C93 1.404 . S
C94 C98 1.389 . S
C94 H116 0.930 . S
C95 C93 1.352 . S
C95 C97 1.374 . S
C95 H117 0.931 . S
C96 C97 1.359 . S
C96 C98 1.364 . S
C97 C95 1.374 . S
C97 C96 1.359 . S
C97 H118 0.931 . S
C98 C94 1.389 . S
C98 C96 1.364 . S
C98 H119 0.931 . S
C99 O110 1.256 1_554 S
C99 O111 1.258 . S
O100 Gd80 2.377 1_556 S
O100 C82 1.240 . S
O101 Gd81 2.395 . S
O101 C82 1.240 . S
O102 Gd80 2.448 . S
O102 C83 1.249 . S
O103 Gd80 2.506 . S
O103 C83 1.252 . S
O104 Gd80 2.435 1_556 S
O104 C90 1.256 . S
O105 Gd80 2.717 1_556 S
O105 Gd81 2.327 . S
O105 C90 1.257 . S
O106 Gd81 2.377 . S
O106 C91 1.240 . S
O107 Gd80 2.395 . S
O107 C91 1.240 1_554 S
O108 Gd81 2.448 . S
O108 C92 1.249 . S
O109 Gd81 2.506 . S
O109 C92 1.252 . S
O110 Gd81 2.435 . S
O110 C99 1.256 1_556 S
O111 Gd80 2.329 . S
O111 Gd81 2.710 1_554 S
O111 C99 1.258 . S
H112 C85 0.930 . S
H113 C86 0.931 . S
H114 C88 0.931 . S
H115 C89 0.931 . S
H116 C94 0.930 . S
H117 C95 0.931 . S
H118 C97 0.931 . S
H119 C98 0.931 . S
Gd120 C123 2.818 . S
Gd120 O140 2.377 . S
Gd120 O142 2.448 . S
Gd120 O143 2.506 . S
Gd120 O144 2.435 . S
Gd120 O145 2.717 . S
Gd120 O147 2.395 . S
Gd120 O151 2.327 . S
Gd121 C132 2.818 . S
Gd121 O141 2.395 . S
Gd121 O145 2.327 . S
Gd121 O146 2.377 . S
Gd121 O148 2.448 . S
Gd121 O149 2.506 . S
Gd121 O150 2.435 . S
Gd121 O151 2.717 . S
C122 O140 1.240 . S
C122 O141 1.240 . S
C123 Gd120 2.818 . S
C123 C124 1.510 . S
C123 O142 1.249 . S
C123 O143 1.252 . S
C124 C123 1.510 . S
C124 C125 1.404 . S
C124 C126 1.352 . S
C125 C124 1.404 . S
C125 C129 1.389 . S
C125 H152 0.930 . S
C126 C124 1.352 . S
C126 C128 1.374 . S
C126 H153 0.931 . S
C127 C128 1.359 . S
C127 C129 1.364 . S
C128 C126 1.374 . S
C128 C127 1.359 . S
C128 H154 0.931 . S
C129 C125 1.389 . S
C129 C127 1.364 . S
C129 H155 0.931 . S
C130 O144 1.256 . S
C130 O145 1.257 . S
C131 O146 1.240 . S
C131 O147 1.240 . S
C132 Gd121 2.818 . S
C132 C133 1.510 . S
C132 O148 1.249 . S
C132 O149 1.252 . S
C133 C132 1.510 . S
C133 C134 1.404 . S
C133 C135 1.352 . S
C134 C133 1.404 . S
C134 C138 1.389 . S
C134 H156 0.930 . S
C135 C133 1.352 . S
C135 C137 1.374 . S
C135 H157 0.931 . S
C136 C137 1.359 . S
C136 C138 1.364 . S
C137 C135 1.374 . S
C137 C136 1.359 . S
C137 H158 0.931 . S
C138 C134 1.389 . S
C138 C136 1.364 . S
C138 H159 0.931 . S
C139 O150 1.256 . S
C139 O151 1.257 . S
O140 Gd120 2.377 . S
O140 C122 1.240 . S
O141 Gd121 2.395 . S
O141 C122 1.240 . S
O142 Gd120 2.448 . S
O142 C123 1.249 . S
O143 Gd120 2.506 . S
O143 C123 1.252 . S
O144 Gd120 2.435 . S
O144 C130 1.256 . S
O145 Gd120 2.717 . S
O145 Gd121 2.327 . S
O145 C130 1.257 . S
O146 Gd121 2.377 . S
O146 C131 1.240 . S
O147 Gd120 2.395 . S
O147 C131 1.240 . S
O148 Gd121 2.448 . S
O148 C132 1.249 . S
O149 Gd121 2.506 . S
O149 C132 1.252 . S
O150 Gd121 2.435 . S
O150 C139 1.256 . S
O151 Gd120 2.327 . S
O151 Gd121 2.717 . S
O151 C139 1.257 . S
H152 C125 0.930 . S
H153 C126 0.931 . S
H154 C128 0.931 . S
H155 C129 0.931 . S
H156 C134 0.930 . S
H157 C135 0.931 . S
H158 C137 0.931 . S
H159 C138 0.931 . S
Gd160 C163 2.818 . S
Gd160 O180 2.377 . S
Gd160 O182 2.448 . S
Gd160 O183 2.506 . S
Gd160 O184 2.435 . S
Gd160 O185 2.717 . S
Gd160 O187 2.395 . S
Gd160 O191 2.327 . S
Gd161 C172 2.818 . S
Gd161 O181 2.395 . S
Gd161 O185 2.327 . S
Gd161 O186 2.377 . S
Gd161 O188 2.448 . S
Gd161 O189 2.506 . S
Gd161 O190 2.435 . S
Gd161 O191 2.717 . S
C162 O180 1.240 . S
C162 O181 1.240 . S
C163 Gd160 2.818 . S
C163 C164 1.510 . S
C163 O182 1.249 . S
C163 O183 1.252 . S
C164 C163 1.510 . S
C164 C165 1.404 . S
C164 C166 1.352 . S
C165 C164 1.404 . S
C165 C169 1.389 . S
C165 H192 0.930 . S
C166 C164 1.352 . S
C166 C168 1.374 . S
C166 H193 0.931 . S
C167 C168 1.359 . S
C167 C169 1.364 . S
C168 C166 1.374 . S
C168 C167 1.359 . S
C168 H194 0.931 . S
C169 C165 1.389 . S
C169 C167 1.364 . S
C169 H195 0.931 . S
C170 O184 1.256 . S
C170 O185 1.257 . S
C171 O186 1.240 . S
C171 O187 1.240 . S
C172 Gd161 2.818 . S
C172 C173 1.510 . S
C172 O188 1.249 . S
C172 O189 1.252 . S
C173 C172 1.510 . S
C173 C174 1.404 . S
C173 C175 1.352 . S
C174 C173 1.404 . S
C174 C178 1.389 . S
C174 H196 0.930 . S
C175 C173 1.352 . S
C175 C177 1.374 . S
C175 H197 0.931 . S
C176 C177 1.359 . S
C176 C178 1.364 . S
C177 C175 1.374 . S
C177 C176 1.359 . S
C177 H198 0.931 . S
C178 C174 1.389 . S
C178 C176 1.364 . S
C178 H199 0.931 . S
C179 O190 1.256 . S
C179 O191 1.257 . S
O180 Gd160 2.377 . S
O180 C162 1.240 . S
O181 Gd161 2.395 . S
O181 C162 1.240 . S
O182 Gd160 2.448 . S
O182 C163 1.249 . S
O183 Gd160 2.506 . S
O183 C163 1.252 . S
O184 Gd160 2.435 . S
O184 C170 1.256 . S
O185 Gd160 2.717 . S
O185 Gd161 2.327 . S
O185 C170 1.257 . S
O186 Gd161 2.377 . S
O186 C171 1.240 . S
O187 Gd160 2.395 . S
O187 C171 1.240 . S
O188 Gd161 2.448 . S
O188 C172 1.249 . S
O189 Gd161 2.506 . S
O189 C172 1.252 . S
O190 Gd161 2.435 . S
O190 C179 1.256 . S
O191 Gd160 2.327 . S
O191 Gd161 2.717 . S
O191 C179 1.257 . S
H192 C165 0.930 . S
H193 C166 0.931 . S
H194 C168 0.931 . S
H195 C169 0.931 . S
H196 C174 0.930 . S
H197 C175 0.931 . S
H198 C177 0.931 . S
H199 C178 0.931 . S
Gd200 C203 2.818 . S
Gd200 O220 2.377 . S
Gd200 O222 2.448 . S
Gd200 O223 2.506 . S
Gd200 O224 2.435 . S
Gd200 O225 2.717 . S
Gd200 O227 2.395 . S
Gd200 O231 2.327 . S
Gd201 C212 2.818 . S
Gd201 O221 2.395 1_455 S
Gd201 O225 2.327 1_455 S
Gd201 O226 2.377 . S
Gd201 O228 2.448 . S
Gd201 O229 2.506 . S
Gd201 O230 2.435 . S
Gd201 O231 2.717 1_455 S
C202 O220 1.240 . S
C202 O221 1.240 . S
C203 Gd200 2.818 . S
C203 C204 1.510 . S
C203 O222 1.249 . S
C203 O223 1.252 . S
C204 C203 1.510 . S
C204 C205 1.404 . S
C204 C206 1.352 . S
C205 C204 1.404 . S
C205 C209 1.389 . S
C205 H232 0.930 . S
C206 C204 1.352 . S
C206 C208 1.374 . S
C206 H233 0.931 . S
C207 C208 1.359 . S
C207 C209 1.364 . S
C208 C206 1.374 . S
C208 C207 1.359 . S
C208 H234 0.931 . S
C209 C205 1.389 . S
C209 C207 1.364 . S
C209 H235 0.931 . S
C210 O224 1.256 . S
C210 O225 1.257 . S
C211 O226 1.240 . S
C211 O227 1.240 1_455 S
C212 Gd201 2.818 . S
C212 C213 1.510 . S
C212 O228 1.249 . S
C212 O229 1.252 . S
C213 C212 1.510 . S
C213 C214 1.404 . S
C213 C215 1.352 . S
C214 C213 1.404 . S
C214 C218 1.389 . S
C214 H236 0.930 . S
C215 C213 1.352 . S
C215 C217 1.374 . S
C215 H237 0.931 . S
C216 C217 1.359 . S
C216 C218 1.364 . S
C217 C215 1.374 . S
C217 C216 1.359 . S
C217 H238 0.931 . S
C218 C214 1.389 . S
C218 C216 1.364 . S
C218 H239 0.931 . S
C219 O230 1.256 . S
C219 O231 1.257 1_455 S
O220 Gd200 2.377 . S
O220 C202 1.240 . S
O221 Gd201 2.395 1_655 S
O221 C202 1.240 . S
O222 Gd200 2.448 . S
O222 C203 1.249 . S
O223 Gd200 2.506 . S
O223 C203 1.252 . S
O224 Gd200 2.435 . S
O224 C210 1.256 . S
O225 Gd200 2.717 . S
O225 Gd201 2.327 1_655 S
O225 C210 1.257 . S
O226 Gd201 2.377 . S
O226 C211 1.240 . S
O227 Gd200 2.395 . S
O227 C211 1.240 1_655 S
O228 Gd201 2.448 . S
O228 C212 1.249 . S
O229 Gd201 2.506 . S
O229 C212 1.252 . S
O230 Gd201 2.435 . S
O230 C219 1.256 . S
O231 Gd200 2.327 . S
O231 Gd201 2.717 1_655 S
O231 C219 1.257 1_655 S
H232 C205 0.930 . S
H233 C206 0.931 . S
H234 C208 0.931 . S
H235 C209 0.931 . S
H236 C214 0.930 . S
H237 C215 0.931 . S
H238 C217 0.931 . S
H239 C218 0.931 . S
Gd240 C243 2.818 . S
Gd240 O260 2.377 . S
Gd240 O262 2.448 . S
Gd240 O263 2.506 . S
Gd240 O264 2.435 . S
Gd240 O265 2.717 . S
Gd240 O267 2.395 1_554 S
Gd240 O271 2.327 . S
Gd241 C252 2.818 . S
Gd241 O261 2.395 1_556 S
Gd241 O265 2.327 1_556 S
Gd241 O266 2.377 . S
Gd241 O268 2.448 . S
Gd241 O269 2.506 . S
Gd241 O270 2.435 . S
Gd241 O271 2.717 1_556 S
C242 O260 1.240 . S
C242 O261 1.240 . S
C243 Gd240 2.818 . S
C243 C244 1.510 . S
C243 O262 1.249 . S
C243 O263 1.252 . S
C244 C243 1.510 . S
C244 C245 1.404 . S
C244 C246 1.352 . S
C245 C244 1.404 . S
C245 C249 1.389 . S
C245 H272 0.930 . S
C246 C244 1.352 . S
C246 C248 1.374 . S
C246 H273 0.931 . S
C247 C248 1.359 . S
C247 C249 1.364 . S
C248 C246 1.374 . S
C248 C247 1.359 . S
C248 H274 0.931 . S
C249 C245 1.389 . S
C249 C247 1.364 . S
C249 H275 0.931 . S
C250 O264 1.256 . S
C250 O265 1.257 . S
C251 O266 1.240 . S
C251 O267 1.240 . S
C252 Gd241 2.818 . S
C252 C253 1.510 . S
C252 O268 1.249 . S
C252 O269 1.252 . S
C253 C252 1.510 . S
C253 C254 1.404 . S
C253 C255 1.352 . S
C254 C253 1.404 . S
C254 C258 1.389 . S
C254 H276 0.930 . S
C255 C253 1.352 . S
C255 C257 1.374 . S
C255 H277 0.931 . S
C256 C257 1.359 . S
C256 C258 1.364 . S
C257 C255 1.374 . S
C257 C256 1.359 . S
C257 H278 0.931 . S
C258 C254 1.389 . S
C258 C256 1.364 . S
C258 H279 0.931 . S
C259 O270 1.256 . S
C259 O271 1.257 1_556 S
O260 Gd240 2.377 . S
O260 C242 1.240 . S
O261 Gd241 2.395 1_554 S
O261 C242 1.240 . S
O262 Gd240 2.448 . S
O262 C243 1.249 . S
O263 Gd240 2.506 . S
O263 C243 1.252 . S
O264 Gd240 2.435 . S
O264 C250 1.256 . S
O265 Gd240 2.717 . S
O265 Gd241 2.327 1_554 S
O265 C250 1.257 . S
O266 Gd241 2.377 . S
O266 C251 1.240 . S
O267 Gd240 2.395 1_556 S
O267 C251 1.240 . S
O268 Gd241 2.448 . S
O268 C252 1.249 . S
O269 Gd241 2.506 . S
O269 C252 1.252 . S
O270 Gd241 2.435 . S
O270 C259 1.256 . S
O271 Gd240 2.327 . S
O271 Gd241 2.717 1_554 S
O271 C259 1.257 1_554 S
H272 C245 0.930 . S
H273 C246 0.931 . S
H274 C248 0.931 . S
H275 C249 0.931 . S
H276 C254 0.930 . S
H277 C255 0.931 . S
H278 C257 0.931 . S
H279 C258 0.931 . S
Gd280 C283 2.818 . S
Gd280 O300 2.377 . S
Gd280 O302 2.448 . S
Gd280 O303 2.506 . S
Gd280 O304 2.435 . S
Gd280 O305 2.717 . S
Gd280 O307 2.395 . S
Gd280 O311 2.327 . S
Gd281 C292 2.818 . S
Gd281 O301 2.395 . S
Gd281 O305 2.327 . S
Gd281 O306 2.377 . S
Gd281 O308 2.448 . S
Gd281 O309 2.506 . S
Gd281 O310 2.435 . S
Gd281 O311 2.717 . S
C282 O300 1.240 . S
C282 O301 1.240 . S
C283 Gd280 2.818 . S
C283 C284 1.510 . S
C283 O302 1.249 . S
C283 O303 1.252 . S
C284 C283 1.510 . S
C284 C285 1.404 . S
C284 C286 1.352 . S
C285 C284 1.404 . S
C285 C289 1.389 . S
C285 H312 0.930 . S
C286 C284 1.352 . S
C286 C288 1.374 . S
C286 H313 0.931 . S
C287 C288 1.359 . S
C287 C289 1.364 . S
C288 C286 1.374 . S
C288 C287 1.359 . S
C288 H314 0.931 . S
C289 C285 1.389 . S
C289 C287 1.364 . S
C289 H315 0.931 . S
C290 O304 1.256 . S
C290 O305 1.257 . S
C291 O306 1.240 . S
C291 O307 1.240 . S
C292 Gd281 2.818 . S
C292 C293 1.510 . S
C292 O308 1.249 . S
C292 O309 1.252 . S
C293 C292 1.510 . S
C293 C294 1.404 . S
C293 C295 1.352 . S
C294 C293 1.404 . S
C294 C298 1.389 . S
C294 H316 0.930 . S
C295 C293 1.352 . S
C295 C297 1.374 . S
C295 H317 0.931 . S
C296 C297 1.359 . S
C296 C298 1.364 . S
C297 C295 1.374 . S
C297 C296 1.359 . S
C297 H318 0.931 . S
C298 C294 1.389 . S
C298 C296 1.364 . S
C298 H319 0.931 . S
C299 O310 1.256 . S
C299 O311 1.257 . S
O300 Gd280 2.377 . S
O300 C282 1.240 . S
O301 Gd281 2.395 . S
O301 C282 1.240 . S
O302 Gd280 2.448 . S
O302 C283 1.249 . S
O303 Gd280 2.506 . S
O303 C283 1.252 . S
O304 Gd280 2.435 . S
O304 C290 1.256 . S
O305 Gd280 2.717 . S
O305 Gd281 2.327 . S
O305 C290 1.257 . S
O306 Gd281 2.377 . S
O306 C291 1.240 . S
O307 Gd280 2.395 . S
O307 C291 1.240 . S
O308 Gd281 2.448 . S
O308 C292 1.249 . S
O309 Gd281 2.506 . S
O309 C292 1.252 . S
O310 Gd281 2.435 . S
O310 C299 1.256 . S
O311 Gd280 2.327 . S
O311 Gd281 2.717 . S
O311 C299 1.257 . S
H312 C285 0.930 . S
H313 C286 0.931 . S
H314 C288 0.931 . S
H315 C289 0.931 . S
H316 C294 0.930 . S
H317 C295 0.931 . S
H318 C297 0.931 . S
H319 C298 0.931 . S
Gd320 C323 2.818 . S
Gd320 O340 2.377 . S
Gd320 O342 2.448 . S
Gd320 O343 2.506 . S
Gd320 O344 2.435 . S
Gd320 O345 2.717 . S
Gd320 O347 2.395 . S
Gd320 O351 2.327 . S
Gd321 C332 2.818 . S
Gd321 O341 2.395 . S
Gd321 O345 2.327 . S
Gd321 O346 2.377 . S
Gd321 O348 2.448 . S
Gd321 O349 2.506 . S
Gd321 O350 2.435 . S
Gd321 O351 2.717 . S
C322 O340 1.240 . S
C322 O341 1.240 . S
C323 Gd320 2.818 . S
C323 C324 1.510 . S
C323 O342 1.249 . S
C323 O343 1.252 . S
C324 C323 1.510 . S
C324 C325 1.404 . S
C324 C326 1.352 . S
C325 C324 1.404 . S
C325 C329 1.389 . S
C325 H352 0.930 . S
C326 C324 1.352 . S
C326 C328 1.374 . S
C326 H353 0.931 . S
C327 C328 1.359 . S
C327 C329 1.364 . S
C328 C326 1.374 . S
C328 C327 1.359 . S
C328 H354 0.931 . S
C329 C325 1.389 . S
C329 C327 1.364 . S
C329 H355 0.931 . S
C330 O344 1.256 . S
C330 O345 1.257 . S
C331 O346 1.240 . S
C331 O347 1.240 . S
C332 Gd321 2.818 . S
C332 C333 1.510 . S
C332 O348 1.249 . S
C332 O349 1.252 . S
C333 C332 1.510 . S
C333 C334 1.404 . S
C333 C335 1.352 . S
C334 C333 1.404 . S
C334 C338 1.389 . S
C334 H356 0.930 . S
C335 C333 1.352 . S
C335 C337 1.374 . S
C335 H357 0.931 . S
C336 C337 1.359 . S
C336 C338 1.364 . S
C337 C335 1.374 . S
C337 C336 1.359 . S
C337 H358 0.931 . S
C338 C334 1.389 . S
C338 C336 1.364 . S
C338 H359 0.931 . S
C339 O350 1.256 . S
C339 O351 1.257 . S
O340 Gd320 2.377 . S
O340 C322 1.240 . S
O341 Gd321 2.395 . S
O341 C322 1.240 . S
O342 Gd320 2.448 . S
O342 C323 1.249 . S
O343 Gd320 2.506 . S
O343 C323 1.252 . S
O344 Gd320 2.435 . S
O344 C330 1.256 . S
O345 Gd320 2.717 . S
O345 Gd321 2.327 . S
O345 C330 1.257 . S
O346 Gd321 2.377 . S
O346 C331 1.240 . S
O347 Gd320 2.395 . S
O347 C331 1.240 . S
O348 Gd321 2.448 . S
O348 C332 1.249 . S
O349 Gd321 2.506 . S
O349 C332 1.252 . S
O350 Gd321 2.435 . S
O350 C339 1.256 . S
O351 Gd320 2.327 . S
O351 Gd321 2.717 . S
O351 C339 1.257 . S
H352 C325 0.930 . S
H353 C326 0.931 . S
H354 C328 0.931 . S
H355 C329 0.931 . S
H356 C334 0.930 . S
H357 C335 0.931 . S
H358 C337 0.931 . S
H359 C338 0.931 . S
Gd360 C363 2.818 . S
Gd360 O380 2.377 1_565 S
Gd360 O382 2.448 . S
Gd360 O383 2.506 . S
Gd360 O384 2.435 1_565 S
Gd360 O385 2.717 1_565 S
Gd360 O387 2.395 . S
Gd360 O391 2.327 . S
Gd361 C372 2.818 . S
Gd361 O381 2.395 . S
Gd361 O385 2.327 . S
Gd361 O386 2.377 . S
Gd361 O388 2.448 . S
Gd361 O389 2.506 . S
Gd361 O390 2.435 . S
Gd361 O391 2.717 1_545 S
C362 O380 1.240 . S
C362 O381 1.240 . S
C363 Gd360 2.818 . S
C363 C364 1.510 . S
C363 O382 1.249 . S
C363 O383 1.252 . S
C364 C363 1.510 . S
C364 C365 1.404 . S
C364 C366 1.352 . S
C365 C364 1.404 . S
C365 C369 1.389 . S
C365 H392 0.930 . S
C366 C364 1.352 . S
C366 C368 1.374 . S
C366 H393 0.931 . S
C367 C368 1.359 . S
C367 C369 1.364 . S
C368 C366 1.374 . S
C368 C367 1.359 . S
C368 H394 0.931 . S
C369 C365 1.389 . S
C369 C367 1.364 . S
C369 H395 0.931 . S
C370 O384 1.256 . S
C370 O385 1.257 . S
C371 O386 1.240 . S
C371 O387 1.240 1_545 S
C372 Gd361 2.818 . S
C372 C373 1.510 . S
C372 O388 1.249 . S
C372 O389 1.252 . S
C373 C372 1.510 . S
C373 C374 1.404 . S
C373 C375 1.352 . S
C374 C373 1.404 . S
C374 C378 1.389 . S
C374 H396 0.930 . S
C375 C373 1.352 . S
C375 C377 1.374 . S
C375 H397 0.931 . S
C376 C377 1.359 . S
C376 C378 1.364 . S
C377 C375 1.374 . S
C377 C376 1.359 . S
C377 H398 0.931 . S
C378 C374 1.389 . S
C378 C376 1.364 . S
C378 H399 0.931 . S
C379 O390 1.256 1_565 S
C379 O391 1.257 . S
O380 Gd360 2.377 1_545 S
O380 C362 1.240 . S
O381 Gd361 2.395 . S
O381 C362 1.240 . S
O382 Gd360 2.448 . S
O382 C363 1.249 . S
O383 Gd360 2.506 . S
O383 C363 1.252 . S
O384 Gd360 2.435 1_545 S
O384 C370 1.256 . S
O385 Gd360 2.717 1_545 S
O385 Gd361 2.327 . S
O385 C370 1.257 . S
O386 Gd361 2.377 . S
O386 C371 1.240 . S
O387 Gd360 2.395 . S
O387 C371 1.240 1_565 S
O388 Gd361 2.448 . S
O388 C372 1.249 . S
O389 Gd361 2.506 . S
O389 C372 1.252 . S
O390 Gd361 2.435 . S
O390 C379 1.256 1_545 S
O391 Gd360 2.327 . S
O391 Gd361 2.717 1_565 S
O391 C379 1.257 . S
H392 C365 0.930 . S
H393 C366 0.931 . S
H394 C368 0.931 . S
H395 C369 0.931 . S
H396 C374 0.930 . S
H397 C375 0.931 . S
H398 C377 0.931 . S
H399 C378 0.931 . S
Gd400 C403 2.818 . S
Gd400 O420 2.377 . S
Gd400 O422 2.448 . S
Gd400 O423 2.506 . S
Gd400 O424 2.435 . S
Gd400 O425 2.717 . S
Gd400 O427 2.395 . S
Gd400 O431 2.327 . S
Gd401 C412 2.818 . S
Gd401 O421 2.395 1_545 S
Gd401 O425 2.327 1_545 S
Gd401 O426 2.377 . S
Gd401 O428 2.448 . S
Gd401 O429 2.506 . S
Gd401 O430 2.435 . S
Gd401 O431 2.717 1_545 S
C402 O420 1.240 . S
C402 O421 1.240 . S
C403 Gd400 2.818 . S
C403 C404 1.510 . S
C403 O422 1.249 . S
C403 O423 1.252 . S
C404 C403 1.510 . S
C404 C405 1.404 . S
C404 C406 1.352 . S
C405 C404 1.404 . S
C405 C409 1.389 . S
C405 H432 0.930 . S
C406 C404 1.352 . S
C406 C408 1.374 . S
C406 H433 0.931 . S
C407 C408 1.359 . S
C407 C409 1.364 . S
C408 C406 1.374 . S
C408 C407 1.359 . S
C408 H434 0.931 . S
C409 C405 1.389 . S
C409 C407 1.364 . S
C409 H435 0.931 . S
C410 O424 1.256 . S
C410 O425 1.257 . S
C411 O426 1.240 . S
C411 O427 1.240 1_545 S
C412 Gd401 2.818 . S
C412 C413 1.510 . S
C412 O428 1.249 . S
C412 O429 1.252 . S
C413 C412 1.510 . S
C413 C414 1.404 . S
C413 C415 1.352 . S
C414 C413 1.404 . S
C414 C418 1.389 . S
C414 H436 0.930 . S
C415 C413 1.352 . S
C415 C417 1.374 . S
C415 H437 0.931 . S
C416 C417 1.359 . S
C416 C418 1.364 . S
C417 C415 1.374 . S
C417 C416 1.359 . S
C417 H438 0.931 . S
C418 C414 1.389 . S
C418 C416 1.364 . S
C418 H439 0.931 . S
C419 O430 1.256 . S
C419 O431 1.257 1_545 S
O420 Gd400 2.377 . S
O420 C402 1.240 . S
O421 Gd401 2.395 1_565 S
O421 C402 1.240 . S
O422 Gd400 2.448 . S
O422 C403 1.249 . S
O423 Gd400 2.506 . S
O423 C403 1.252 . S
O424 Gd400 2.435 . S
O424 C410 1.256 . S
O425 Gd400 2.717 . S
O425 Gd401 2.327 1_565 S
O425 C410 1.257 . S
O426 Gd401 2.377 . S
O426 C411 1.240 . S
O427 Gd400 2.395 . S
O427 C411 1.240 1_565 S
O428 Gd401 2.448 . S
O428 C412 1.249 . S
O429 Gd401 2.506 . S
O429 C412 1.252 . S
O430 Gd401 2.435 . S
O430 C419 1.256 . S
O431 Gd400 2.327 . S
O431 Gd401 2.717 1_565 S
O431 C419 1.257 1_565 S
H432 C405 0.930 . S
H433 C406 0.931 . S
H434 C408 0.931 . S
H435 C409 0.931 . S
H436 C414 0.930 . S
H437 C415 0.931 . S
H438 C417 0.931 . S
H439 C418 0.931 . S
Gd440 C443 2.818 . S
Gd440 O460 2.377 . S
Gd440 O462 2.448 . S
Gd440 O463 2.506 . S
Gd440 O464 2.435 . S
Gd440 O465 2.717 . S
Gd440 O467 2.395 . S
Gd440 O471 2.327 . S
Gd441 C452 2.818 . S
Gd441 O461 2.395 . S
Gd441 O465 2.327 . S
Gd441 O466 2.377 . S
Gd441 O468 2.448 . S
Gd441 O469 2.506 . S
Gd441 O470 2.435 . S
Gd441 O471 2.717 . S
C442 O460 1.240 . S
C442 O461 1.240 . S
C443 Gd440 2.818 . S
C443 C444 1.510 . S
C443 O462 1.249 . S
C443 O463 1.252 . S
C444 C443 1.510 . S
C444 C445 1.404 . S
C444 C446 1.352 . S
C445 C444 1.404 . S
C445 C449 1.389 . S
C445 H472 0.930 . S
C446 C444 1.352 . S
C446 C448 1.374 . S
C446 H473 0.931 . S
C447 C448 1.359 . S
C447 C449 1.364 . S
C448 C446 1.374 . S
C448 C447 1.359 . S
C448 H474 0.931 . S
C449 C445 1.389 . S
C449 C447 1.364 . S
C449 H475 0.931 . S
C450 O464 1.256 . S
C450 O465 1.257 . S
C451 O466 1.240 . S
C451 O467 1.240 . S
C452 Gd441 2.818 . S
C452 C453 1.510 . S
C452 O468 1.249 . S
C452 O469 1.252 . S
C453 C452 1.510 . S
C453 C454 1.404 . S
C453 C455 1.352 . S
C454 C453 1.404 . S
C454 C458 1.389 . S
C454 H476 0.930 . S
C455 C453 1.352 . S
C455 C457 1.374 . S
C455 H477 0.931 . S
C456 C457 1.359 . S
C456 C458 1.364 . S
C457 C455 1.374 . S
C457 C456 1.359 . S
C457 H478 0.931 . S
C458 C454 1.389 . S
C458 C456 1.364 . S
C458 H479 0.931 . S
C459 O470 1.256 . S
C459 O471 1.257 . S
O460 Gd440 2.377 . S
O460 C442 1.240 . S
O461 Gd441 2.395 . S
O461 C442 1.240 . S
O462 Gd440 2.448 . S
O462 C443 1.249 . S
O463 Gd440 2.506 . S
O463 C443 1.252 . S
O464 Gd440 2.435 . S
O464 C450 1.256 . S
O465 Gd440 2.717 . S
O465 Gd441 2.327 . S
O465 C450 1.257 . S
O466 Gd441 2.377 . S
O466 C451 1.240 . S
O467 Gd440 2.395 . S
O467 C451 1.240 . S
O468 Gd441 2.448 . S
O468 C452 1.249 . S
O469 Gd441 2.506 . S
O469 C452 1.252 . S
O470 Gd441 2.435 . S
O470 C459 1.256 . S
O471 Gd440 2.327 . S
O471 Gd441 2.717 . S
O471 C459 1.257 . S
H472 C445 0.930 . S
H473 C446 0.931 . S
H474 C448 0.931 . S
H475 C449 0.931 . S
H476 C454 0.930 . S
H477 C455 0.931 . S
H478 C457 0.931 . S
H479 C458 0.931 . S
C480 C481 1.349 . S
C480 C482 1.327 . S
C480 H505 0.950 . S
C481 C480 1.349 . S
C481 C497 1.349 . S
C482 C480 1.327 . S
C482 C501 1.429 . S
C482 H506 0.950 . S
C483 C500 1.574 . S
C483 C502 1.368 . S
C483 H507 0.949 . S
H484 C488 0.949 . S
C485 C486 1.349 . S
C485 C487 1.327 . S
C485 H508 0.950 . S
C486 C485 1.349 . S
C486 C498 1.349 . S
C487 C485 1.327 . S
C487 C503 1.429 . S
C487 H509 0.950 . S
C488 H484 0.949 . S
C488 C496 1.574 . S
C488 C504 1.368 . S
H489 C497 0.950 . S
H490 C495 0.950 . S
H491 C496 0.949 . S
H492 C498 0.950 . S
H493 C499 0.950 . S
H494 C500 0.949 . S
C495 H490 0.950 . S
C495 C497 1.327 . S
C495 C501 1.429 . S
C496 C488 1.574 . S
C496 H491 0.949 . S
C496 C502 1.368 . S
C497 C481 1.349 . S
C497 H489 0.950 . S
C497 C495 1.327 . S
C498 C486 1.349 . S
C498 H492 0.950 . S
C498 C499 1.327 . S
C499 H493 0.950 . S
C499 C498 1.327 . S
C499 C503 1.429 . S
C500 C483 1.574 . S
C500 H494 0.949 . S
C500 C504 1.368 . S
C501 C482 1.429 . S
C501 C495 1.429 . S
C501 C502 1.523 . S
C502 C483 1.368 . S
C502 C496 1.368 . S
C502 C501 1.523 . S
C503 C487 1.429 . S
C503 C499 1.429 . S
C503 C504 1.523 . S
C504 C488 1.368 . S
C504 C500 1.368 . S
C504 C503 1.523 . S
H505 C480 0.950 . S
H506 C482 0.950 . S
H507 C483 0.949 . S
H508 C485 0.950 . S
H509 C487 0.950 . S
C510 C511 1.349 1_545 S
C510 C512 1.327 . S
C510 H535 0.950 . S
C511 C510 1.349 1_565 S
C511 C527 1.349 . S
C512 C510 1.327 . S
C512 C531 1.429 1_545 S
C512 H536 0.950 . S
C513 C530 1.574 . S
C513 C532 1.368 . S
C513 H537 0.949 . S
H514 C518 0.949 . S
C515 C516 1.349 . S
C515 C517 1.327 . S
C515 H538 0.950 . S
C516 C515 1.349 . S
C516 C528 1.349 . S
C517 C515 1.327 . S
C517 C533 1.429 . S
C517 H539 0.950 . S
C518 H514 0.949 . S
C518 C526 1.574 . S
C518 C534 1.368 . S
H519 C527 0.950 . S
H520 C525 0.950 . S
H521 C526 0.924 1_545 S
H522 C528 0.950 . S
H523 C529 0.950 . S
H524 C530 0.949 . S
C525 H520 0.950 . S
C525 C527 1.327 . S
C525 C531 1.429 . S
C526 C518 1.574 . S
C526 H521 0.924 1_565 S
C526 C532 1.368 . S
C527 C511 1.349 . S
C527 H519 0.950 . S
C527 C525 1.327 . S
C528 C516 1.349 . S
C528 H522 0.950 . S
C528 C529 1.327 . S
C529 H523 0.950 . S
C529 C528 1.327 . S
C529 C533 1.429 . S
C530 C513 1.574 . S
C530 H524 0.949 . S
C530 C534 1.368 . S
C531 C512 1.429 1_565 S
C531 C525 1.429 . S
C531 C532 1.523 . S
C532 C513 1.368 . S
C532 C526 1.368 . S
C532 C531 1.523 . S
C533 C517 1.429 . S
C533 C529 1.429 . S
C533 C534 1.523 . S
C534 C518 1.368 . S
C534 C530 1.368 . S
C534 C533 1.523 . S
H535 C510 0.950 . S
H536 C512 0.950 . S
H537 C513 0.949 . S
H538 C515 0.950 . S
H539 C517 0.950 . S
C540 C541 1.349 1_554 S
C540 C542 1.327 . S
C540 H565 0.950 . S
C541 C540 1.349 1_556 S
C541 C557 1.349 . S
C542 C540 1.327 . S
C542 C561 1.429 . S
C542 H566 0.950 . S
C543 C560 1.574 . S
C543 C562 1.368 . S
C543 H567 0.930 1_554 S
H544 C548 0.949 . S
C545 C546 1.349 . S
C545 C547 1.327 . S
C545 H568 0.950 . S
C546 C545 1.349 . S
C546 C558 1.349 . S
C547 C545 1.327 . S
C547 C563 1.429 . S
C547 H569 0.950 . S
C548 H544 0.949 . S
C548 C556 1.574 . S
C548 C564 1.368 . S
H549 C557 0.950 . S
H550 C555 0.950 . S
H551 C556 0.949 . S
H552 C558 0.950 . S
H553 C559 0.950 . S
H554 C560 0.949 . S
C555 H550 0.950 . S
C555 C557 1.327 . S
C555 C561 1.429 1_556 S
C556 C548 1.574 . S
C556 H551 0.949 . S
C556 C562 1.368 . S
C557 C541 1.349 . S
C557 H549 0.950 . S
C557 C555 1.327 . S
C558 C546 1.349 . S
C558 H552 0.950 . S
C558 C559 1.327 . S
C559 H553 0.950 . S
C559 C558 1.327 . S
C559 C563 1.429 . S
C560 C543 1.574 . S
C560 H554 0.949 . S
C560 C564 1.368 . S
C561 C542 1.429 . S
C561 C555 1.429 1_554 S
C561 C562 1.523 . S
C562 C543 1.368 . S
C562 C556 1.368 . S
C562 C561 1.523 . S
C563 C547 1.429 . S
C563 C559 1.429 . S
C563 C564 1.523 . S
C564 C548 1.368 . S
C564 C560 1.368 . S
C564 C563 1.523 . S
H565 C540 0.950 . S
H566 C542 0.950 . S
H567 C543 0.930 1_556 S
H568 C545 0.950 . S
H569 C547 0.950 . S
C570 C571 1.349 . S
C570 C572 1.327 . S
C570 H595 0.950 . S
C571 C570 1.349 . S
C571 C587 1.349 . S
C572 C570 1.327 . S
C572 C591 1.429 . S
C572 H596 0.950 . S
C573 C590 1.574 . S
C573 C592 1.368 . S
C573 H597 0.949 . S
H574 C578 0.949 . S
C575 C576 1.349 . S
C575 C577 1.327 . S
C575 H598 0.950 . S
C576 C575 1.349 . S
C576 C588 1.349 . S
C577 C575 1.327 . S
C577 C593 1.429 . S
C577 H599 0.950 . S
C578 H574 0.949 . S
C578 C586 1.574 . S
C578 C594 1.368 . S
H579 C587 0.950 . S
H580 C585 0.950 . S
H581 C586 0.949 . S
H582 C588 0.950 . S
H583 C589 0.950 . S
H584 C590 0.949 . S
C585 H580 0.950 . S
C585 C587 1.327 . S
C585 C591 1.429 . S
C586 C578 1.574 . S
C586 H581 0.949 . S
C586 C592 1.368 . S
C587 C571 1.349 . S
C587 H579 0.950 . S
C587 C585 1.327 . S
C588 C576 1.349 . S
C588 H582 0.950 . S
C588 C589 1.327 . S
C589 H583 0.950 . S
C589 C588 1.327 . S
C589 C593 1.429 . S
C590 C573 1.574 . S
C590 H584 0.949 . S
C590 C594 1.368 . S
C591 C572 1.429 . S
C591 C585 1.429 . S
C591 C592 1.523 . S
C592 C573 1.368 . S
C592 C586 1.368 . S
C592 C591 1.523 . S
C593 C577 1.429 . S
C593 C589 1.429 . S
C593 C594 1.523 . S
C594 C578 1.368 . S
C594 C590 1.368 . S
C594 C593 1.523 . S
H595 C570 0.950 . S
H596 C572 0.950 . S
H597 C573 0.949 . S
H598 C575 0.950 . S
H599 C577 0.950 . S
C600 C601 1.349 . S
C600 C602 1.327 . S
C600 H625 0.950 . S
C601 C600 1.349 . S
C601 C617 1.349 . S
C602 C600 1.327 . S
C602 C621 1.429 . S
C602 H626 0.950 . S
C603 C620 1.574 . S
C603 C622 1.368 . S
C603 H627 0.949 . S
H604 C608 0.949 . S
C605 C606 1.349 . S
C605 C607 1.327 . S
C605 H628 0.950 . S
C606 C605 1.349 . S
C606 C618 1.349 . S
C607 C605 1.327 . S
C607 C623 1.429 . S
C607 H629 0.950 . S
C608 H604 0.949 . S
C608 C616 1.574 . S
C608 C624 1.368 . S
H609 C617 0.950 . S
H610 C615 0.950 . S
H611 C616 0.949 . S
H612 C618 0.950 . S
H613 C619 0.950 . S
H614 C620 0.949 . S
C615 H610 0.950 . S
C615 C617 1.327 . S
C615 C621 1.429 . S
C616 C608 1.574 . S
C616 H611 0.949 . S
C616 C622 1.368 . S
C617 C601 1.349 . S
C617 H609 0.950 . S
C617 C615 1.327 . S
C618 C606 1.349 . S
C618 H612 0.950 . S
C618 C619 1.327 . S
C619 H613 0.950 . S
C619 C618 1.327 . S
C619 C623 1.429 . S
C620 C603 1.574 . S
C620 H614 0.949 . S
C620 C624 1.368 . S
C621 C602 1.429 . S
C621 C615 1.429 . S
C621 C622 1.523 . S
C622 C603 1.368 . S
C622 C616 1.368 . S
C622 C621 1.523 . S
C623 C607 1.429 . S
C623 C619 1.429 . S
C623 C624 1.523 . S
C624 C608 1.368 . S
C624 C620 1.368 . S
C624 C623 1.523 . S
H625 C600 0.950 . S
H626 C602 0.950 . S
H627 C603 0.949 . S
H628 C605 0.950 . S
H629 C607 0.950 . S
C630 C631 1.349 . S
C630 C632 1.327 . S
C630 H655 0.950 . S
C631 C630 1.349 . S
C631 C647 1.349 . S
C632 C630 1.327 . S
C632 C651 1.429 . S
C632 H656 0.950 . S
C633 C650 1.574 . S
C633 C652 1.368 . S
C633 H657 0.949 . S
H634 C638 0.949 . S
C635 C636 1.349 . S
C635 C637 1.327 . S
C635 H658 0.950 . S
C636 C635 1.349 . S
C636 C648 1.349 . S
C637 C635 1.327 . S
C637 C653 1.429 . S
C637 H659 0.950 . S
C638 H634 0.949 . S
C638 C646 1.574 . S
C638 C654 1.368 . S
H639 C647 0.950 . S
H640 C645 0.950 . S
H641 C646 0.949 . S
H642 C648 0.950 . S
H643 C649 0.950 . S
H644 C650 0.949 . S
C645 H640 0.950 . S
C645 C647 1.327 . S
C645 C651 1.429 . S
C646 C638 1.574 . S
C646 H641 0.949 . S
C646 C652 1.368 . S
C647 C631 1.349 . S
C647 H639 0.950 . S
C647 C645 1.327 . S
C648 C636 1.349 . S
C648 H642 0.950 . S
C648 C649 1.327 . S
C649 H643 0.950 . S
C649 C648 1.327 . S
C649 C653 1.429 . S
C650 C633 1.574 . S
C650 H644 0.949 . S
C650 C654 1.368 . S
C651 C632 1.429 . S
C651 C645 1.429 . S
C651 C652 1.523 . S
C652 C633 1.368 . S
C652 C646 1.368 . S
C652 C651 1.523 . S
C653 C637 1.429 . S
C653 C649 1.429 . S
C653 C654 1.523 . S
C654 C638 1.368 . S
C654 C650 1.368 . S
C654 C653 1.523 . S
H655 C630 0.950 . S
H656 C632 0.950 . S
H657 C633 0.949 . S
H658 C635 0.950 . S
H659 C637 0.950 . S
C660 C661 1.349 . S
C660 C662 1.327 . S
C660 H685 0.950 . S
C661 C660 1.349 . S
C661 C677 1.349 . S
C662 C660 1.327 . S
C662 C681 1.429 . S
C662 H686 0.950 . S
C663 C680 1.574 . S
C663 C682 1.368 . S
C663 H687 0.949 . S
H664 C668 0.949 . S
C665 C666 1.349 . S
C665 C667 1.327 . S
C665 H688 0.950 1_556 S
C666 C665 1.349 . S
C666 C678 1.349 . S
C667 C665 1.327 . S
C667 C683 1.429 . S
C667 H689 0.950 . S
C668 H664 0.949 . S
C668 C676 1.574 . S
C668 C684 1.368 . S
H669 C677 0.950 . S
H670 C675 0.950 . S
H671 C676 0.949 . S
H672 C678 0.950 . S
H673 C679 0.950 . S
H674 C680 0.949 . S
C675 H670 0.950 . S
C675 C677 1.327 . S
C675 C681 1.429 . S
C676 C668 1.574 . S
C676 H671 0.949 . S
C676 C682 1.368 . S
C677 C661 1.349 . S
C677 H669 0.950 . S
C677 C675 1.327 . S
C678 C666 1.349 . S
C678 H672 0.950 . S
C678 C679 1.327 . S
C679 H673 0.950 . S
C679 C678 1.327 . S
C679 C683 1.429 . S
C680 C663 1.574 . S
C680 H674 0.949 . S
C680 C684 1.368 . S
C681 C662 1.429 . S
C681 C675 1.429 . S
C681 C682 1.523 . S
C682 C663 1.368 . S
C682 C676 1.368 . S
C682 C681 1.523 . S
C683 C667 1.429 . S
C683 C679 1.429 . S
C683 C684 1.523 . S
C684 C668 1.368 . S
C684 C680 1.368 . S
C684 C683 1.523 . S
H685 C660 0.950 . S
H686 C662 0.950 . S
H687 C663 0.949 . S
H688 C665 0.950 1_554 S
H689 C667 0.950 . S
C690 C691 1.349 . S
C690 C692 1.327 . S
C690 H715 0.950 . S
C691 C690 1.349 . S
C691 C707 1.349 . S
C692 C690 1.327 . S
C692 C711 1.429 . S
C692 H716 0.950 . S
C693 C710 1.574 . S
C693 C712 1.368 . S
C693 H717 0.949 . S
H694 C698 0.949 . S
C695 C696 1.349 . S
C695 C697 1.327 . S
C695 H718 0.950 . S
C696 C695 1.349 . S
C696 C708 1.349 . S
C697 C695 1.327 . S
C697 C713 1.429 . S
C697 H719 0.950 . S
C698 H694 0.949 . S
C698 C706 1.574 . S
C698 C714 1.368 . S
H699 C707 0.950 . S
H700 C705 0.950 . S
H701 C706 0.949 . S
H702 C708 0.950 . S
H703 C709 0.950 . S
H704 C710 0.949 . S
C705 H700 0.950 . S
C705 C707 1.327 . S
C705 C711 1.429 . S
C706 C698 1.574 . S
C706 H701 0.949 . S
C706 C712 1.368 . S
C707 C691 1.349 . S
C707 H699 0.950 . S
C707 C705 1.327 . S
C708 C696 1.349 . S
C708 H702 0.950 . S
C708 C709 1.327 . S
C709 H703 0.950 . S
C709 C708 1.327 . S
C709 C713 1.429 . S
C710 C693 1.574 . S
C710 H704 0.949 . S
C710 C714 1.368 . S
C711 C692 1.429 . S
C711 C705 1.429 . S
C711 C712 1.523 . S
C712 C693 1.368 . S
C712 C706 1.368 . S
C712 C711 1.523 . S
C713 C697 1.429 . S
C713 C709 1.429 . S
C713 C714 1.523 . S
C714 C698 1.368 . S
C714 C710 1.368 . S
C714 C713 1.523 . S
H715 C690 0.950 . S
H716 C692 0.950 . S
H717 C693 0.949 . S
H718 C695 0.950 . S
H719 C697 0.950 . S
C720 C721 1.349 . S
C720 C722 1.327 . S
C720 H745 0.950 . S
C721 C720 1.349 . S
C721 C737 1.349 . S
C722 C720 1.327 . S
C722 C741 1.429 . S
C722 H746 0.950 . S
C723 C740 1.574 . S
C723 C742 1.368 . S
C723 H747 0.949 . S
H724 C728 0.949 . S
C725 C726 1.349 . S
C725 C727 1.327 . S
C725 H748 0.950 . S
C726 C725 1.349 . S
C726 C738 1.349 . S
C727 C725 1.327 . S
C727 C743 1.429 . S
C727 H749 0.950 . S
C728 H724 0.949 . S
C728 C736 1.574 . S
C728 C744 1.368 . S
H729 C737 0.950 . S
H730 C735 0.950 . S
H731 C736 0.949 . S
H732 C738 0.950 . S
H733 C739 0.950 . S
H734 C740 0.949 . S
C735 H730 0.950 . S
C735 C737 1.327 . S
C735 C741 1.429 . S
C736 C728 1.574 . S
C736 H731 0.949 . S
C736 C742 1.368 . S
C737 C721 1.349 . S
C737 H729 0.950 . S
C737 C735 1.327 . S
C738 C726 1.349 . S
C738 H732 0.950 . S
C738 C739 1.327 . S
C739 H733 0.950 . S
C739 C738 1.327 . S
C739 C743 1.429 . S
C740 C723 1.574 . S
C740 H734 0.949 . S
C740 C744 1.368 . S
C741 C722 1.429 . S
C741 C735 1.429 . S
C741 C742 1.523 . S
C742 C723 1.368 . S
C742 C736 1.368 . S
C742 C741 1.523 . S
C743 C727 1.429 . S
C743 C739 1.429 . S
C743 C744 1.523 . S
C744 C728 1.368 . S
C744 C740 1.368 . S
C744 C743 1.523 . S
H745 C720 0.950 . S
H746 C722 0.950 . S
H747 C723 0.949 . S
H748 C725 0.950 . S
H749 C727 0.950 . S
C750 C751 1.349 . S
C750 C752 1.327 . S
C750 H775 0.950 . S
C751 C750 1.349 . S
C751 C767 1.349 . S
C752 C750 1.327 . S
C752 C771 1.429 . S
C752 H776 0.950 . S
C753 C770 1.574 . S
C753 C772 1.368 . S
C753 H777 0.949 . S
H754 C758 0.949 . S
C755 C756 1.349 . S
C755 C757 1.327 . S
C755 H778 0.950 1_455 S
C756 C755 1.349 . S
C756 C768 1.349 . S
C757 C755 1.327 . S
C757 C773 1.429 . S
C757 H779 0.950 . S
C758 H754 0.949 . S
C758 C766 1.574 . S
C758 C774 1.368 . S
H759 C767 0.950 . S
H760 C765 0.950 . S
H761 C766 0.949 . S
H762 C768 0.950 . S
H763 C769 0.950 . S
H764 C770 0.949 . S
C765 H760 0.950 . S
C765 C767 1.327 . S
C765 C771 1.429 . S
C766 C758 1.574 . S
C766 H761 0.949 . S
C766 C772 1.368 . S
C767 C751 1.349 . S
C767 H759 0.950 . S
C767 C765 1.327 . S
C768 C756 1.349 . S
C768 H762 0.950 . S
C768 C769 1.327 . S
C769 H763 0.950 . S
C769 C768 1.327 . S
C769 C773 1.429 . S
C770 C753 1.574 . S
C770 H764 0.949 . S
C770 C774 1.368 . S
C771 C752 1.429 . S
C771 C765 1.429 . S
C771 C772 1.523 . S
C772 C753 1.368 . S
C772 C766 1.368 . S
C772 C771 1.523 . S
C773 C757 1.429 . S
C773 C769 1.429 . S
C773 C774 1.523 . S
C774 C758 1.368 . S
C774 C770 1.368 . S
C774 C773 1.523 . S
H775 C750 0.950 . S
H776 C752 0.950 . S
H777 C753 0.949 . S
H778 C755 0.950 1_655 S
H779 C757 0.950 . S
C780 C781 1.349 1_455 S
C780 C782 1.327 . S
C780 H805 0.950 . S
C781 C780 1.349 1_655 S
C781 C797 1.349 . S
C782 C780 1.327 . S
C782 C801 1.429 1_455 S
C782 H806 0.950 . S
C783 C800 1.574 . S
C783 C802 1.368 . S
C783 H807 0.949 . S
H784 C788 0.949 . S
C785 C786 1.349 . S
C785 C787 1.327 . S
C785 H808 0.950 . S
C786 C785 1.349 . S
C786 C798 1.349 . S
C787 C785 1.327 . S
C787 C803 1.429 . S
C787 H809 0.950 . S
C788 H784 0.949 . S
C788 C796 1.574 . S
C788 C804 1.368 . S
H789 C797 0.950 . S
H790 C795 0.950 . S
H791 C796 0.949 . S
H792 C798 0.950 . S
H793 C799 0.950 . S
H794 C800 0.949 . S
C795 H790 0.950 . S
C795 C797 1.327 . S
C795 C801 1.429 . S
C796 C788 1.574 . S
C796 H791 0.949 . S
C796 C802 1.368 . S
C797 C781 1.349 . S
C797 H789 0.950 . S
C797 C795 1.327 . S
C798 C786 1.349 . S
C798 H792 0.950 . S
C798 C799 1.327 . S
C799 H793 0.950 . S
C799 C798 1.327 . S
C799 C803 1.429 . S
C800 C783 1.574 . S
C800 H794 0.949 . S
C800 C804 1.368 . S
C801 C782 1.429 1_655 S
C801 C795 1.429 . S
C801 C802 1.523 . S
C802 C783 1.368 . S
C802 C796 1.368 . S
C802 C801 1.523 . S
C803 C787 1.429 . S
C803 C799 1.429 . S
C803 C804 1.523 . S
C804 C788 1.368 . S
C804 C800 1.368 . S
C804 C803 1.523 . S
H805 C780 0.950 . S
H806 C782 0.950 . S
H807 C783 0.949 . S
H808 C785 0.950 . S
H809 C787 0.950 . S
C810 C811 1.349 . S
C810 C812 1.327 . S
C810 H835 0.950 . S
C811 C810 1.349 . S
C811 C827 1.349 . S
C812 C810 1.327 . S
C812 C831 1.429 . S
C812 H836 0.950 . S
C813 C830 1.574 . S
C813 C832 1.368 . S
C813 H837 0.949 . S
H814 C818 0.949 . S
C815 C816 1.349 . S
C815 C817 1.327 . S
C815 H838 0.950 . S
C816 C815 1.349 . S
C816 C828 1.349 . S
C817 C815 1.327 . S
C817 C833 1.429 . S
C817 H839 0.950 . S
C818 H814 0.949 . S
C818 C826 1.574 . S
C818 C834 1.368 . S
H819 C827 0.950 . S
H820 C825 0.950 . S
H821 C826 0.949 . S
H822 C828 0.950 . S
H823 C829 0.950 . S
H824 C830 0.949 . S
C825 H820 0.950 . S
C825 C827 1.327 . S
C825 C831 1.429 . S
C826 C818 1.574 . S
C826 H821 0.949 . S
C826 C832 1.368 . S
C827 C811 1.349 . S
C827 H819 0.950 . S
C827 C825 1.327 . S
C828 C816 1.349 . S
C828 H822 0.950 . S
C828 C829 1.327 . S
C829 H823 0.950 . S
C829 C828 1.327 . S
C829 C833 1.429 . S
C830 C813 1.574 . S
C830 H824 0.949 . S
C830 C834 1.368 . S
C831 C812 1.429 . S
C831 C825 1.429 . S
C831 C832 1.523 . S
C832 C813 1.368 . S
C832 C826 1.368 . S
C832 C831 1.523 . S
C833 C817 1.429 . S
C833 C829 1.429 . S
C833 C834 1.523 . S
C834 C818 1.368 . S
C834 C830 1.368 . S
C834 C833 1.523 . S
H835 C810 0.950 . S
H836 C812 0.950 . S
H837 C813 0.949 . S
H838 C815 0.950 . S
H839 C817 0.950 . S
C840 C841 1.349 . S
C840 C842 1.327 . S
C840 H865 0.950 . S
C841 C840 1.349 . S
C841 C857 1.349 . S
C842 C840 1.327 . S
C842 C861 1.429 . S
C842 H866 0.950 . S
C843 C860 1.574 . S
C843 C862 1.368 . S
C843 H867 0.949 . S
H844 C848 0.949 . S
C845 C846 1.349 . S
C845 C847 1.327 . S
C845 H868 0.950 . S
C846 C845 1.349 . S
C846 C858 1.349 . S
C847 C845 1.327 . S
C847 C863 1.429 . S
C847 H869 0.950 . S
C848 H844 0.949 . S
C848 C856 1.574 . S
C848 C864 1.368 . S
H849 C857 0.950 . S
H850 C855 0.950 . S
H851 C856 0.949 . S
H852 C858 0.950 . S
H853 C859 0.950 . S
H854 C860 0.949 . S
C855 H850 0.950 . S
C855 C857 1.327 . S
C855 C861 1.429 . S
C856 C848 1.574 . S
C856 H851 0.949 . S
C856 C862 1.368 . S
C857 C841 1.349 . S
C857 H849 0.950 . S
C857 C855 1.327 . S
C858 C846 1.349 . S
C858 H852 0.950 . S
C858 C859 1.327 . S
C859 H853 0.950 . S
C859 C858 1.327 . S
C859 C863 1.429 . S
C860 C843 1.574 . S
C860 H854 0.949 . S
C860 C864 1.368 . S
C861 C842 1.429 . S
C861 C855 1.429 . S
C861 C862 1.523 . S
C862 C843 1.368 . S
C862 C856 1.368 . S
C862 C861 1.523 . S
C863 C847 1.429 . S
C863 C859 1.429 . S
C863 C864 1.523 . S
C864 C848 1.368 . S
C864 C860 1.368 . S
C864 C863 1.523 . S
H865 C840 0.950 . S
H866 C842 0.950 . S
H867 C843 0.949 . S
H868 C845 0.950 . S
H869 C847 0.950 . S
C870 C871 1.349 . S
C870 C872 1.327 . S
C870 H895 0.950 . S
C871 C870 1.349 . S
C871 C887 1.349 . S
C872 C870 1.327 . S
C872 C891 1.429 . S
C872 H896 0.950 . S
C873 C890 1.574 . S
C873 C892 1.368 . S
C873 H897 0.949 . S
H874 C878 0.949 . S
C875 C876 1.349 . S
C875 C877 1.327 . S
C875 H898 0.950 . S
C876 C875 1.349 . S
C876 C888 1.349 . S
C877 C875 1.327 . S
C877 C893 1.429 . S
C877 H899 0.950 . S
C878 H874 0.949 . S
C878 C886 1.574 . S
C878 C894 1.368 . S
H879 C887 0.950 . S
H880 C885 0.950 . S
H881 C886 0.949 . S
H882 C888 0.950 . S
H883 C889 0.950 . S
H884 C890 0.949 . S
C885 H880 0.950 . S
C885 C887 1.327 . S
C885 C891 1.429 . S
C886 C878 1.574 . S
C886 H881 0.949 . S
C886 C892 1.368 . S
C887 C871 1.349 . S
C887 H879 0.950 . S
C887 C885 1.327 . S
C888 C876 1.349 . S
C888 H882 0.950 . S
C888 C889 1.327 . S
C889 H883 0.950 . S
C889 C888 1.327 . S
C889 C893 1.429 . S
C890 C873 1.574 . S
C890 H884 0.949 . S
C890 C894 1.368 . S
C891 C872 1.429 . S
C891 C885 1.429 . S
C891 C892 1.523 . S
C892 C873 1.368 . S
C892 C886 1.368 . S
C892 C891 1.523 . S
C893 C877 1.429 . S
C893 C889 1.429 . S
C893 C894 1.523 . S
C894 C878 1.368 . S
C894 C890 1.368 . S
C894 C893 1.523 . S
H895 C870 0.950 . S
H896 C872 0.950 . S
H897 C873 0.949 . S
H898 C875 0.950 . S
H899 C877 0.950 . S
C900 C901 1.349 . S
C900 C902 1.327 . S
C900 H925 0.950 . S
C901 C900 1.349 . S
C901 C917 1.349 . S
C902 C900 1.327 . S
C902 C921 1.429 . S
C902 H926 0.950 . S
C903 C920 1.574 . S
C903 C922 1.368 . S
C903 H927 0.949 . S
H904 C908 0.949 . S
C905 C906 1.349 . S
C905 C907 1.327 . S
C905 H928 0.950 . S
C906 C905 1.349 . S
C906 C918 1.349 . S
C907 C905 1.327 . S
C907 C923 1.429 . S
C907 H929 0.950 . S
C908 H904 0.949 . S
C908 C916 1.574 . S
C908 C924 1.368 . S
H909 C917 0.950 . S
H910 C915 0.950 . S
H911 C916 0.949 . S
H912 C918 0.950 . S
H913 C919 0.950 . S
H914 C920 0.949 . S
C915 H910 0.950 . S
C915 C917 1.327 . S
C915 C921 1.429 . S
C916 C908 1.574 . S
C916 H911 0.949 . S
C916 C922 1.368 . S
C917 C901 1.349 . S
C917 H909 0.950 . S
C917 C915 1.327 . S
C918 C906 1.349 . S
C918 H912 0.950 . S
C918 C919 1.327 . S
C919 H913 0.950 . S
C919 C918 1.327 . S
C919 C923 1.429 . S
C920 C903 1.574 . S
C920 H914 0.949 . S
C920 C924 1.368 . S
C921 C902 1.429 . S
C921 C915 1.429 . S
C921 C922 1.523 . S
C922 C903 1.368 . S
C922 C916 1.368 . S
C922 C921 1.523 . S
C923 C907 1.429 . S
C923 C919 1.429 . S
C923 C924 1.523 . S
C924 C908 1.368 . S
C924 C920 1.368 . S
C924 C923 1.523 . S
H925 C900 0.950 . S
H926 C902 0.950 . S
H927 C903 0.949 . S
H928 C905 0.950 . S
H929 C907 0.950 . S
C930 C931 1.349 . S
C930 C932 1.327 . S
C930 H955 0.950 . S
C931 C930 1.349 . S
C931 C947 1.349 . S
C932 C930 1.327 . S
C932 C951 1.429 . S
C932 H956 0.950 . S
C933 C950 1.574 . S
C933 C952 1.368 . S
C933 H957 0.949 . S
H934 C938 0.942 1_556 S
C935 C936 1.349 . S
C935 C937 1.327 . S
C935 H958 0.950 . S
C936 C935 1.349 . S
C936 C948 1.349 . S
C937 C935 1.327 . S
C937 C953 1.429 . S
C937 H959 0.950 . S
C938 H934 0.942 1_554 S
C938 C946 1.585 . S
C938 C954 1.364 1_554 S
H939 C947 0.950 . S
H940 C945 0.950 . S
H941 C946 0.949 . S
H942 C948 0.950 . S
H943 C949 0.950 . S
H944 C950 0.949 1_556 S
C945 H940 0.950 . S
C945 C947 1.327 . S
C945 C951 1.429 . S
C946 C938 1.585 . S
C946 H941 0.949 . S
C946 C952 1.368 . S
C947 C931 1.349 . S
C947 H939 0.950 . S
C947 C945 1.327 . S
C948 C936 1.349 . S
C948 H942 0.950 . S
C948 C949 1.327 . S
C949 H943 0.950 . S
C949 C948 1.327 . S
C949 C953 1.429 . S
C950 C933 1.574 . S
C950 H944 0.949 1_554 S
C950 C954 1.368 1_554 S
C951 C932 1.429 . S
C951 C945 1.429 . S
C951 C952 1.523 . S
C952 C933 1.368 . S
C952 C946 1.368 . S
C952 C951 1.523 . S
C953 C937 1.429 . S
C953 C949 1.429 . S
C953 C954 1.523 . S
C954 C938 1.364 1_556 S
C954 C950 1.368 1_556 S
C954 C953 1.523 . S
H955 C930 0.950 . S
H956 C932 0.950 . S
H957 C933 0.949 . S
H958 C935 0.950 . S
H959 C937 0.950 . S
C960 C961 1.349 . S
C960 C962 1.327 . S
C960 H985 0.950 . S
C961 C960 1.349 . S
C961 C977 1.349 . S
C962 C960 1.327 . S
C962 C981 1.429 . S
C962 H986 0.950 . S
C963 C980 1.574 . S
C963 C982 1.368 . S
C963 H987 0.949 . S
H964 C968 0.949 . S
C965 C966 1.349 . S
C965 C967 1.327 . S
C965 H988 0.950 . S
C966 C965 1.349 . S
C966 C978 1.349 . S
C967 C965 1.327 . S
C967 C983 1.429 . S
C967 H989 0.950 . S
C968 H964 0.949 . S
C968 C976 1.574 . S
C968 C984 1.368 . S
H969 C977 0.950 . S
H970 C975 0.950 . S
H971 C976 0.949 . S
H972 C978 0.950 . S
H973 C979 0.950 . S
H974 C980 0.949 . S
C975 H970 0.950 . S
C975 C977 1.327 . S
C975 C981 1.429 . S
C976 C968 1.574 . S
C976 H971 0.949 . S
C976 C982 1.368 . S
C977 C961 1.349 . S
C977 H969 0.950 . S
C977 C975 1.327 . S
C978 C966 1.349 . S
C978 H972 0.950 . S
C978 C979 1.327 . S
C979 H973 0.950 . S
C979 C978 1.327 . S
C979 C983 1.429 . S
C980 C963 1.574 . S
C980 H974 0.949 . S
C980 C984 1.368 . S
C981 C962 1.429 . S
C981 C975 1.429 . S
C981 C982 1.523 . S
C982 C963 1.368 . S
C982 C976 1.368 . S
C982 C981 1.523 . S
C983 C967 1.429 . S
C983 C979 1.429 . S
C983 C984 1.523 . S
C984 C968 1.368 . S
C984 C980 1.368 . S
C984 C983 1.523 . S
H985 C960 0.950 . S
H986 C962 0.950 . S
H987 C963 0.949 . S
H988 C965 0.950 . S
H989 C967 0.950 . S
C990 C991 1.349 . S
C990 C992 1.327 . S
C990 H1015 0.950 . S
C991 C990 1.349 . S
C991 C1007 1.349 . S
C992 C990 1.327 . S
C992 C1011 1.429 . S
C992 H1016 0.950 1_554 S
C993 C1010 1.574 . S
C993 C1012 1.368 . S
C993 H1017 0.949 . S
H994 C998 0.949 . S
C995 C996 1.349 . S
C995 C997 1.327 . S
C995 H1018 0.950 . S
C996 C995 1.349 . S
C996 C1008 1.349 . S
C997 C995 1.327 . S
C997 C1013 1.429 . S
C997 H1019 0.950 . S
C998 H994 0.949 . S
C998 C1006 1.574 . S
C998 C1014 1.368 . S
H999 C1007 0.950 . S
H1000 C1005 0.950 . S
H1001 C1006 0.949 . S
H1002 C1008 0.950 . S
H1003 C1009 0.950 . S
H1004 C1010 0.949 . S
C1005 H1000 0.950 . S
C1005 C1007 1.327 . S
C1005 C1011 1.429 . S
C1006 C998 1.574 . S
C1006 H1001 0.949 . S
C1006 C1012 1.368 . S
C1007 C991 1.349 . S
C1007 H999 0.950 . S
C1007 C1005 1.327 . S
C1008 C996 1.349 . S
C1008 H1002 0.950 . S
C1008 C1009 1.327 . S
C1009 H1003 0.950 . S
C1009 C1008 1.327 . S
C1009 C1013 1.429 . S
C1010 C993 1.574 . S
C1010 H1004 0.949 . S
C1010 C1014 1.368 . S
C1011 C992 1.429 . S
C1011 C1005 1.429 . S
C1011 C1012 1.523 1_554 S
C1012 C993 1.368 . S
C1012 C1006 1.368 . S
C1012 C1011 1.523 1_556 S
C1013 C997 1.429 . S
C1013 C1009 1.429 . S
C1013 C1014 1.523 . S
C1014 C998 1.368 . S
C1014 C1010 1.368 . S
C1014 C1013 1.523 . S
H1015 C990 0.950 . S
H1016 C992 0.950 1_556 S
H1017 C993 0.949 . S
H1018 C995 0.950 . S
H1019 C997 0.950 . S
C1020 C1021 1.349 . S
C1020 C1022 1.327 . S
C1020 H1045 0.950 . S
C1021 C1020 1.349 . S
C1021 C1037 1.349 . S
C1022 C1020 1.327 . S
C1022 C1041 1.429 . S
C1022 H1046 0.950 . S
C1023 C1040 1.574 . S
C1023 C1042 1.368 . S
C1023 H1047 0.949 . S
H1024 C1028 0.949 . S
C1025 C1026 1.349 . S
C1025 C1027 1.327 . S
C1025 H1048 0.950 . S
C1026 C1025 1.349 . S
C1026 C1038 1.349 . S
C1027 C1025 1.327 . S
C1027 C1043 1.429 . S
C1027 H1049 0.950 . S
C1028 H1024 0.949 . S
C1028 C1036 1.574 . S
C1028 C1044 1.368 . S
H1029 C1037 0.950 . S
H1030 C1035 0.950 . S
H1031 C1036 0.949 . S
H1032 C1038 0.950 . S
H1033 C1039 0.950 . S
H1034 C1040 0.949 . S
C1035 H1030 0.950 . S
C1035 C1037 1.327 . S
C1035 C1041 1.429 . S
C1036 C1028 1.574 . S
C1036 H1031 0.949 . S
C1036 C1042 1.368 . S
C1037 C1021 1.349 . S
C1037 H1029 0.950 . S
C1037 C1035 1.327 . S
C1038 C1026 1.349 . S
C1038 H1032 0.950 . S
C1038 C1039 1.327 . S
C1039 H1033 0.950 . S
C1039 C1038 1.327 . S
C1039 C1043 1.429 . S
C1040 C1023 1.574 . S
C1040 H1034 0.949 . S
C1040 C1044 1.368 . S
C1041 C1022 1.429 . S
C1041 C1035 1.429 . S
C1041 C1042 1.523 . S
C1042 C1023 1.368 . S
C1042 C1036 1.368 . S
C1042 C1041 1.523 . S
C1043 C1027 1.429 . S
C1043 C1039 1.429 . S
C1043 C1044 1.523 . S
C1044 C1028 1.368 . S
C1044 C1040 1.368 . S
C1044 C1043 1.523 . S
H1045 C1020 0.950 . S
H1046 C1022 0.950 . S
H1047 C1023 0.949 . S
H1048 C1025 0.950 . S
H1049 C1027 0.950 . S
C1050 C1051 1.349 . S
C1050 C1052 1.327 . S
C1050 H1075 0.950 . S
C1051 C1050 1.349 . S
C1051 C1067 1.349 . S
C1052 C1050 1.327 . S
C1052 C1071 1.429 . S
C1052 H1076 0.950 . S
C1053 C1070 1.574 . S
C1053 C1072 1.368 . S
C1053 H1077 0.949 . S
H1054 C1058 0.949 . S
C1055 C1056 1.349 . S
C1055 C1057 1.327 . S
C1055 H1078 0.950 . S
C1056 C1055 1.349 . S
C1056 C1068 1.349 . S
C1057 C1055 1.327 . S
C1057 C1073 1.429 . S
C1057 H1079 0.950 . S
C1058 H1054 0.949 . S
C1058 C1066 1.574 . S
C1058 C1074 1.368 . S
H1059 C1067 0.950 . S
H1060 C1065 0.950 . S
H1061 C1066 0.949 . S
H1062 C1068 0.950 . S
H1063 C1069 0.950 . S
H1064 C1070 0.949 . S
C1065 H1060 0.950 . S
C1065 C1067 1.327 . S
C1065 C1071 1.429 . S
C1066 C1058 1.574 . S
C1066 H1061 0.949 . S
C1066 C1072 1.368 . S
C1067 C1051 1.349 . S
C1067 H1059 0.950 . S
C1067 C1065 1.327 . S
C1068 C1056 1.349 . S
C1068 H1062 0.950 . S
C1068 C1069 1.327 . S
C1069 H1063 0.950 . S
C1069 C1068 1.327 . S
C1069 C1073 1.429 . S
C1070 C1053 1.574 . S
C1070 H1064 0.949 . S
C1070 C1074 1.368 . S
C1071 C1052 1.429 . S
C1071 C1065 1.429 . S
C1071 C1072 1.523 . S
C1072 C1053 1.368 . S
C1072 C1066 1.368 . S
C1072 C1071 1.523 . S
C1073 C1057 1.429 . S
C1073 C1069 1.429 . S
C1073 C1074 1.523 . S
C1074 C1058 1.368 . S
C1074 C1070 1.368 . S
C1074 C1073 1.523 . S
H1075 C1050 0.950 . S
H1076 C1052 0.950 . S
H1077 C1053 0.949 . S
H1078 C1055 0.950 . S
H1079 C1057 0.950 . S
C1080 C1081 1.349 . S
C1080 C1082 1.327 . S
C1080 H1105 0.950 . S
C1081 C1080 1.349 . S
C1081 C1097 1.349 . S
C1082 C1080 1.327 . S
C1082 C1101 1.429 . S
C1082 H1106 0.950 . S
C1083 C1100 1.574 . S
C1083 C1102 1.368 . S
C1083 H1107 0.949 . S
H1084 C1088 0.949 . S
C1085 C1086 1.349 . S
C1085 C1087 1.327 . S
C1085 H1108 0.950 . S
C1086 C1085 1.349 . S
C1086 C1098 1.349 . S
C1087 C1085 1.327 . S
C1087 C1103 1.429 . S
C1087 H1109 0.950 . S
C1088 H1084 0.949 . S
C1088 C1096 1.574 . S
C1088 C1104 1.368 . S
H1089 C1097 0.950 . S
H1090 C1095 0.950 . S
H1091 C1096 0.949 . S
H1092 C1098 0.950 . S
H1093 C1099 0.950 . S
H1094 C1100 0.949 . S
C1095 H1090 0.950 . S
C1095 C1097 1.327 . S
C1095 C1101 1.429 . S
C1096 C1088 1.574 . S
C1096 H1091 0.949 . S
C1096 C1102 1.368 . S
C1097 C1081 1.349 . S
C1097 H1089 0.950 . S
C1097 C1095 1.327 . S
C1098 C1086 1.349 . S
C1098 H1092 0.950 . S
C1098 C1099 1.327 . S
C1099 H1093 0.950 . S
C1099 C1098 1.327 . S
C1099 C1103 1.429 . S
C1100 C1083 1.574 . S
C1100 H1094 0.949 . S
C1100 C1104 1.368 . S
C1101 C1082 1.429 . S
C1101 C1095 1.429 . S
C1101 C1102 1.523 . S
C1102 C1083 1.368 . S
C1102 C1096 1.368 . S
C1102 C1101 1.523 . S
C1103 C1087 1.429 . S
C1103 C1099 1.429 . S
C1103 C1104 1.523 . S
C1104 C1088 1.368 . S
C1104 C1100 1.368 . S
C1104 C1103 1.523 . S
H1105 C1080 0.950 . S
H1106 C1082 0.950 . S
H1107 C1083 0.949 . S
H1108 C1085 0.950 . S
H1109 C1087 0.950 . S
C1110 C1111 1.349 . S
C1110 C1112 1.327 . S
C1110 H1135 0.950 . S
C1111 C1110 1.349 . S
C1111 C1127 1.349 . S
C1112 C1110 1.327 . S
C1112 C1131 1.429 . S
C1112 H1136 0.950 . S
C1113 C1130 1.574 1_545 S
C1113 C1132 1.368 . S
C1113 H1137 0.949 . S
H1114 C1118 0.949 . S
C1115 C1116 1.349 . S
C1115 C1117 1.327 . S
C1115 H1138 0.950 . S
C1116 C1115 1.349 . S
C1116 C1128 1.349 . S
C1117 C1115 1.327 . S
C1117 C1133 1.429 . S
C1117 H1139 0.950 . S
C1118 H1114 0.949 . S
C1118 C1126 1.574 . S
C1118 C1134 1.368 1_545 S
H1119 C1127 0.950 . S
H1120 C1125 0.950 . S
H1121 C1126 0.949 . S
H1122 C1128 0.950 1_655 S
H1123 C1129 0.950 . S
H1124 C1130 0.949 . S
C1125 H1120 0.950 . S
C1125 C1127 1.327 . S
C1125 C1131 1.429 . S
C1126 C1118 1.574 . S
C1126 H1121 0.949 . S
C1126 C1132 1.368 . S
C1127 C1111 1.349 . S
C1127 H1119 0.950 . S
C1127 C1125 1.327 . S
C1128 C1116 1.349 . S
C1128 H1122 0.950 1_455 S
C1128 C1129 1.327 . S
C1129 H1123 0.950 . S
C1129 C1128 1.327 . S
C1129 C1133 1.429 . S
C1130 C1113 1.574 1_565 S
C1130 H1124 0.949 . S
C1130 C1134 1.368 . S
C1131 C1112 1.429 . S
C1131 C1125 1.429 . S
C1131 C1132 1.523 . S
C1132 C1113 1.368 . S
C1132 C1126 1.368 . S
C1132 C1131 1.523 . S
C1133 C1117 1.429 . S
C1133 C1129 1.429 . S
C1133 C1134 1.523 . S
C1134 C1118 1.368 1_565 S
C1134 C1130 1.368 . S
C1134 C1133 1.523 . S
H1135 C1110 0.950 . S
H1136 C1112 0.950 . S
H1137 C1113 0.949 . S
H1138 C1115 0.950 . S
H1139 C1117 0.950 . S
C1140 C1141 1.349 . S
C1140 C1142 1.327 . S
C1140 H1165 0.950 . S
C1141 C1140 1.349 . S
C1141 C1157 1.349 . S
C1142 C1140 1.327 . S
C1142 C1161 1.429 . S
C1142 H1166 0.950 . S
C1143 C1160 1.574 . S
C1143 C1162 1.368 . S
C1143 H1167 0.949 . S
H1144 C1148 0.949 . S
C1145 C1146 1.349 . S
C1145 C1147 1.327 . S
C1145 H1168 0.950 . S
C1146 C1145 1.349 . S
C1146 C1158 1.349 . S
C1147 C1145 1.327 . S
C1147 C1163 1.429 . S
C1147 H1169 0.950 . S
C1148 H1144 0.949 . S
C1148 C1156 1.574 . S
C1148 C1164 1.368 . S
H1149 C1157 0.950 . S
H1150 C1155 0.950 . S
H1151 C1156 0.949 . S
H1152 C1158 0.950 . S
H1153 C1159 0.950 . S
H1154 C1160 0.949 . S
C1155 H1150 0.950 . S
C1155 C1157 1.327 . S
C1155 C1161 1.429 . S
C1156 C1148 1.574 . S
C1156 H1151 0.949 . S
C1156 C1162 1.368 . S
C1157 C1141 1.349 . S
C1157 H1149 0.950 . S
C1157 C1155 1.327 . S
C1158 C1146 1.349 . S
C1158 H1152 0.950 . S
C1158 C1159 1.327 . S
C1159 H1153 0.950 . S
C1159 C1158 1.327 . S
C1159 C1163 1.429 . S
C1160 C1143 1.574 . S
C1160 H1154 0.949 . S
C1160 C1164 1.368 . S
C1161 C1142 1.429 . S
C1161 C1155 1.429 . S
C1161 C1162 1.523 . S
C1162 C1143 1.368 . S
C1162 C1156 1.368 . S
C1162 C1161 1.523 . S
C1163 C1147 1.429 . S
C1163 C1159 1.429 . S
C1163 C1164 1.523 . S
C1164 C1148 1.368 . S
C1164 C1160 1.368 . S
C1164 C1163 1.523 . S
H1165 C1140 0.950 . S
H1166 C1142 0.950 . S
H1167 C1143 0.949 . S
H1168 C1145 0.950 . S
H1169 C1147 0.950 . S
C1170 C1171 1.349 . S
C1170 C1172 1.327 . S
C1170 H1195 0.950 . S
C1171 C1170 1.349 . S
C1171 C1187 1.349 . S
C1172 C1170 1.327 . S
C1172 C1191 1.429 . S
C1172 H1196 0.950 . S
C1173 C1190 1.574 1_545 S
C1173 C1192 1.368 . S
C1173 H1197 0.949 . S
H1174 C1178 0.949 . S
C1175 C1176 1.349 . S
C1175 C1177 1.327 . S
C1175 H1198 0.950 . S
C1176 C1175 1.349 . S
C1176 C1188 1.349 . S
C1177 C1175 1.327 . S
C1177 C1193 1.429 . S
C1177 H1199 0.950 . S
C1178 H1174 0.949 . S
C1178 C1186 1.574 . S
C1178 C1194 1.368 . S
H1179 C1187 0.950 . S
H1180 C1185 0.950 . S
H1181 C1186 0.949 . S
H1182 C1188 0.950 . S
H1183 C1189 0.950 . S
H1184 C1190 0.949 . S
C1185 H1180 0.950 . S
C1185 C1187 1.327 . S
C1185 C1191 1.429 . S
C1186 C1178 1.574 . S
C1186 H1181 0.949 . S
C1186 C1192 1.368 1_565 S
C1187 C1171 1.349 . S
C1187 H1179 0.950 . S
C1187 C1185 1.327 . S
C1188 C1176 1.349 . S
C1188 H1182 0.950 . S
C1188 C1189 1.327 . S
C1189 H1183 0.950 . S
C1189 C1188 1.327 . S
C1189 C1193 1.429 . S
C1190 C1173 1.574 1_565 S
C1190 H1184 0.949 . S
C1190 C1194 1.368 . S
C1191 C1172 1.429 . S
C1191 C1185 1.429 . S
C1191 C1192 1.523 . S
C1192 C1173 1.368 . S
C1192 C1186 1.368 1_545 S
C1192 C1191 1.523 . S
C1193 C1177 1.429 . S
C1193 C1189 1.429 . S
C1193 C1194 1.523 . S
C1194 C1178 1.368 . S
C1194 C1190 1.368 . S
C1194 C1193 1.523 . S
H1195 C1170 0.950 . S
H1196 C1172 0.950 . S
H1197 C1173 0.949 . S
H1198 C1175 0.950 . S
H1199 C1177 0.950 . S
C1200 C1201 1.349 . S
C1200 C1202 1.327 . S
C1200 H1225 0.950 . S
C1201 C1200 1.349 . S
C1201 C1217 1.349 . S
C1202 C1200 1.327 . S
C1202 C1221 1.429 . S
C1202 H1226 0.950 . S
C1203 C1220 1.574 . S
C1203 C1222 1.368 . S
C1203 H1227 0.949 . S
H1204 C1208 0.949 . S
C1205 C1206 1.349 . S
C1205 C1207 1.327 . S
C1205 H1228 0.950 . S
C1206 C1205 1.349 . S
C1206 C1218 1.349 . S
C1207 C1205 1.327 . S
C1207 C1223 1.429 . S
C1207 H1229 0.950 . S
C1208 H1204 0.949 . S
C1208 C1216 1.574 . S
C1208 C1224 1.368 . S
H1209 C1217 0.950 . S
H1210 C1215 0.950 . S
H1211 C1216 0.949 . S
H1212 C1218 0.950 . S
H1213 C1219 0.950 . S
H1214 C1220 0.949 . S
C1215 H1210 0.950 . S
C1215 C1217 1.327 . S
C1215 C1221 1.429 . S
C1216 C1208 1.574 . S
C1216 H1211 0.949 . S
C1216 C1222 1.368 . S
C1217 C1201 1.349 . S
C1217 H1209 0.950 . S
C1217 C1215 1.327 . S
C1218 C1206 1.349 . S
C1218 H1212 0.950 . S
C1218 C1219 1.327 . S
C1219 H1213 0.950 . S
C1219 C1218 1.327 . S
C1219 C1223 1.429 . S
C1220 C1203 1.574 . S
C1220 H1214 0.949 . S
C1220 C1224 1.368 . S
C1221 C1202 1.429 . S
C1221 C1215 1.429 . S
C1221 C1222 1.523 . S
C1222 C1203 1.368 . S
C1222 C1216 1.368 . S
C1222 C1221 1.523 . S
C1223 C1207 1.429 . S
C1223 C1219 1.429 . S
C1223 C1224 1.523 . S
C1224 C1208 1.368 . S
C1224 C1220 1.368 . S
C1224 C1223 1.523 . S
H1225 C1200 0.950 . S
H1226 C1202 0.950 . S
H1227 C1203 0.949 . S
H1228 C1205 0.950 . S
H1229 C1207 0.950 . S
C1230 C1231 1.349 . S
C1230 C1232 1.327 . S
C1230 H1255 0.950 . S
C1231 C1230 1.349 . S
C1231 C1247 1.349 . S
C1232 C1230 1.327 . S
C1232 C1251 1.429 . S
C1232 H1256 0.950 . S
C1233 C1250 1.574 . S
C1233 C1252 1.368 . S
C1233 H1257 0.949 . S
H1234 C1238 0.949 . S
C1235 C1236 1.349 . S
C1235 C1237 1.327 . S
C1235 H1258 0.950 . S
C1236 C1235 1.349 . S
C1236 C1248 1.349 . S
C1237 C1235 1.327 . S
C1237 C1253 1.429 . S
C1237 H1259 0.950 . S
C1238 H1234 0.949 . S
C1238 C1246 1.574 . S
C1238 C1254 1.368 . S
H1239 C1247 0.950 . S
H1240 C1245 0.950 . S
H1241 C1246 0.949 . S
H1242 C1248 0.950 . S
H1243 C1249 0.950 . S
H1244 C1250 0.949 . S
C1245 H1240 0.950 . S
C1245 C1247 1.327 . S
C1245 C1251 1.429 . S
C1246 C1238 1.574 . S
C1246 H1241 0.949 . S
C1246 C1252 1.368 . S
C1247 C1231 1.349 . S
C1247 H1239 0.950 . S
C1247 C1245 1.327 . S
C1248 C1236 1.349 . S
C1248 H1242 0.950 . S
C1248 C1249 1.327 . S
C1249 H1243 0.950 . S
C1249 C1248 1.327 . S
C1249 C1253 1.429 . S
C1250 C1233 1.574 . S
C1250 H1244 0.949 . S
C1250 C1254 1.368 . S
C1251 C1232 1.429 . S
C1251 C1245 1.429 . S
C1251 C1252 1.523 . S
C1252 C1233 1.368 . S
C1252 C1246 1.368 . S
C1252 C1251 1.523 . S
C1253 C1237 1.429 . S
C1253 C1249 1.429 . S
C1253 C1254 1.523 . S
C1254 C1238 1.368 . S
C1254 C1250 1.368 . S
C1254 C1253 1.523 . S
H1255 C1230 0.950 . S
H1256 C1232 0.950 . S
H1257 C1233 0.949 . S
H1258 C1235 0.950 . S
H1259 C1237 0.950 . S
C1260 C1261 1.349 . S
C1260 C1262 1.327 . S
C1260 H1285 0.950 . S
C1261 C1260 1.349 . S
C1261 C1277 1.349 . S
C1262 C1260 1.327 . S
C1262 C1281 1.429 . S
C1262 H1286 0.950 . S
C1263 C1280 1.574 . S
C1263 C1282 1.368 . S
C1263 H1287 0.949 . S
H1264 C1268 0.949 . S
C1265 C1266 1.349 . S
C1265 C1267 1.327 . S
C1265 H1288 0.950 . S
C1266 C1265 1.349 . S
C1266 C1278 1.349 . S
C1267 C1265 1.327 . S
C1267 C1283 1.429 . S
C1267 H1289 0.950 . S
C1268 H1264 0.949 . S
C1268 C1276 1.574 . S
C1268 C1284 1.368 . S
H1269 C1277 0.950 . S
H1270 C1275 0.950 . S
H1271 C1276 0.949 . S
H1272 C1278 0.950 . S
H1273 C1279 0.950 . S
H1274 C1280 0.949 . S
C1275 H1270 0.950 . S
C1275 C1277 1.327 . S
C1275 C1281 1.429 . S
C1276 C1268 1.574 . S
C1276 H1271 0.949 . S
C1276 C1282 1.368 . S
C1277 C1261 1.349 . S
C1277 H1269 0.950 . S
C1277 C1275 1.327 . S
C1278 C1266 1.349 . S
C1278 H1272 0.950 . S
C1278 C1279 1.327 . S
C1279 H1273 0.950 . S
C1279 C1278 1.327 . S
C1279 C1283 1.429 . S
C1280 C1263 1.574 . S
C1280 H1274 0.949 . S
C1280 C1284 1.368 . S
C1281 C1262 1.429 . S
C1281 C1275 1.429 . S
C1281 C1282 1.523 . S
C1282 C1263 1.368 . S
C1282 C1276 1.368 . S
C1282 C1281 1.523 . S
C1283 C1267 1.429 . S
C1283 C1279 1.429 . S
C1283 C1284 1.523 . S
C1284 C1268 1.368 . S
C1284 C1280 1.368 . S
C1284 C1283 1.523 . S
H1285 C1260 0.950 . S
H1286 C1262 0.950 . S
H1287 C1263 0.949 . S
H1288 C1265 0.950 . S
H1289 C1267 0.950 . S
C1290 C1291 1.349 . S
C1290 C1292 1.327 . S
C1290 H1315 0.950 . S
C1291 C1290 1.349 . S
C1291 C1307 1.349 . S
C1292 C1290 1.327 . S
C1292 C1311 1.429 . S
C1292 H1316 0.950 . S
C1293 C1310 1.574 . S
C1293 C1312 1.368 . S
C1293 H1317 0.949 . S
H1294 C1298 0.949 . S
C1295 C1296 1.349 . S
C1295 C1297 1.327 . S
C1295 H1318 0.950 . S
C1296 C1295 1.349 . S
C1296 C1308 1.349 . S
C1297 C1295 1.327 . S
C1297 C1313 1.429 . S
C1297 H1319 0.950 . S
C1298 H1294 0.949 . S
C1298 C1306 1.574 . S
C1298 C1314 1.368 . S
H1299 C1307 0.950 . S
H1300 C1305 0.950 . S
H1301 C1306 0.949 . S
H1302 C1308 0.950 . S
H1303 C1309 0.950 . S
H1304 C1310 0.949 . S
C1305 H1300 0.950 . S
C1305 C1307 1.327 . S
C1305 C1311 1.429 . S
C1306 C1298 1.574 . S
C1306 H1301 0.949 . S
C1306 C1312 1.368 . S
C1307 C1291 1.349 . S
C1307 H1299 0.950 . S
C1307 C1305 1.327 . S
C1308 C1296 1.349 . S
C1308 H1302 0.950 . S
C1308 C1309 1.327 . S
C1309 H1303 0.950 . S
C1309 C1308 1.327 . S
C1309 C1313 1.429 . S
C1310 C1293 1.574 . S
C1310 H1304 0.949 . S
C1310 C1314 1.368 . S
C1311 C1292 1.429 . S
C1311 C1305 1.429 . S
C1311 C1312 1.523 . S
C1312 C1293 1.368 . S
C1312 C1306 1.368 . S
C1312 C1311 1.523 . S
C1313 C1297 1.429 . S
C1313 C1309 1.429 . S
C1313 C1314 1.523 . S
C1314 C1298 1.368 . S
C1314 C1310 1.368 . S
C1314 C1313 1.523 . S
H1315 C1290 0.950 . S
H1316 C1292 0.950 . S
H1317 C1293 0.949 . S
H1318 C1295 0.950 . S
H1319 C1297 0.950 . S
C1320 C1321 1.349 . S
C1320 C1322 1.327 . S
C1320 H1345 0.950 . S
C1321 C1320 1.349 . S
C1321 C1337 1.349 . S
C1322 C1320 1.327 . S
C1322 C1341 1.429 . S
C1322 H1346 0.950 . S
C1323 C1340 1.574 . S
C1323 C1342 1.368 . S
C1323 H1347 0.949 . S
H1324 C1328 0.949 . S
C1325 C1326 1.349 . S
C1325 C1327 1.327 . S
C1325 H1348 0.950 . S
C1326 C1325 1.349 . S
C1326 C1338 1.349 . S
C1327 C1325 1.327 . S
C1327 C1343 1.429 . S
C1327 H1349 0.950 . S
C1328 H1324 0.949 . S
C1328 C1336 1.574 . S
C1328 C1344 1.368 . S
H1329 C1337 0.950 . S
H1330 C1335 0.950 . S
H1331 C1336 0.949 . S
H1332 C1338 0.950 . S
H1333 C1339 0.950 . S
H1334 C1340 0.949 . S
C1335 H1330 0.950 . S
C1335 C1337 1.327 . S
C1335 C1341 1.429 . S
C1336 C1328 1.574 . S
C1336 H1331 0.949 . S
C1336 C1342 1.368 . S
C1337 C1321 1.349 . S
C1337 H1329 0.950 . S
C1337 C1335 1.327 . S
C1338 C1326 1.349 . S
C1338 H1332 0.950 . S
C1338 C1339 1.327 . S
C1339 H1333 0.950 . S
C1339 C1338 1.327 . S
C1339 C1343 1.429 . S
C1340 C1323 1.574 . S
C1340 H1334 0.949 . S
C1340 C1344 1.368 . S
C1341 C1322 1.429 . S
C1341 C1335 1.429 . S
C1341 C1342 1.523 . S
C1342 C1323 1.368 . S
C1342 C1336 1.368 . S
C1342 C1341 1.523 . S
C1343 C1327 1.429 . S
C1343 C1339 1.429 . S
C1343 C1344 1.523 . S
C1344 C1328 1.368 . S
C1344 C1340 1.368 . S
C1344 C1343 1.523 . S
H1345 C1320 0.950 . S
H1346 C1322 0.950 . S
H1347 C1323 0.949 . S
H1348 C1325 0.950 . S
H1349 C1327 0.950 . S
C1350 C1351 1.349 . S
C1350 C1352 1.327 . S
C1350 H1375 0.950 . S
C1351 C1350 1.349 . S
C1351 C1367 1.349 . S
C1352 C1350 1.327 . S
C1352 C1371 1.429 . S
C1352 H1376 0.950 . S
C1353 C1370 1.574 . S
C1353 C1372 1.368 . S
C1353 H1377 0.949 . S
H1354 C1358 0.949 . S
C1355 C1356 1.349 . S
C1355 C1357 1.327 . S
C1355 H1378 0.950 . S
C1356 C1355 1.349 . S
C1356 C1368 1.349 . S
C1357 C1355 1.327 . S
C1357 C1373 1.429 . S
C1357 H1379 0.950 . S
C1358 H1354 0.949 . S
C1358 C1366 1.574 . S
C1358 C1374 1.368 . S
H1359 C1367 0.950 . S
H1360 C1365 0.950 . S
H1361 C1366 0.949 . S
H1362 C1368 0.950 . S
H1363 C1369 0.950 . S
H1364 C1370 0.949 . S
C1365 H1360 0.950 . S
C1365 C1367 1.327 . S
C1365 C1371 1.429 . S
C1366 C1358 1.574 . S
C1366 H1361 0.949 . S
C1366 C1372 1.368 . S
C1367 C1351 1.349 . S
C1367 H1359 0.950 . S
C1367 C1365 1.327 . S
C1368 C1356 1.349 . S
C1368 H1362 0.950 . S
C1368 C1369 1.327 . S
C1369 H1363 0.950 . S
C1369 C1368 1.327 . S
C1369 C1373 1.429 . S
C1370 C1353 1.574 . S
C1370 H1364 0.949 . S
C1370 C1374 1.368 . S
C1371 C1352 1.429 . S
C1371 C1365 1.429 . S
C1371 C1372 1.523 . S
C1372 C1353 1.368 . S
C1372 C1366 1.368 . S
C1372 C1371 1.523 . S
C1373 C1357 1.429 . S
C1373 C1369 1.429 . S
C1373 C1374 1.523 . S
C1374 C1358 1.368 . S
C1374 C1370 1.368 . S
C1374 C1373 1.523 . S
H1375 C1350 0.950 . S
H1376 C1352 0.950 . S
H1377 C1353 0.949 . S
H1378 C1355 0.950 . S
H1379 C1357 0.950 . S
C1380 C1381 1.349 . S
C1380 C1382 1.327 . S
C1380 H1405 0.950 . S
C1381 C1380 1.349 . S
C1381 C1397 1.349 . S
C1382 C1380 1.327 . S
C1382 C1401 1.429 . S
C1382 H1406 0.950 . S
C1383 C1400 1.574 . S
C1383 C1402 1.368 . S
C1383 H1407 0.949 . S
H1384 C1388 0.949 . S
C1385 C1386 1.349 . S
C1385 C1387 1.327 . S
C1385 H1408 0.950 . S
C1386 C1385 1.349 . S
C1386 C1398 1.349 . S
C1387 C1385 1.327 . S
C1387 C1403 1.429 . S
C1387 H1409 0.950 . S
C1388 H1384 0.949 . S
C1388 C1396 1.574 1_655 S
C1388 C1404 1.368 . S
H1389 C1397 0.950 . S
H1390 C1395 0.950 . S
H1391 C1396 0.949 . S
H1392 C1398 0.950 . S
H1393 C1399 0.950 . S
H1394 C1400 0.949 . S
C1395 H1390 0.950 . S
C1395 C1397 1.327 . S
C1395 C1401 1.429 . S
C1396 C1388 1.574 1_455 S
C1396 H1391 0.949 . S
C1396 C1402 1.368 . S
C1397 C1381 1.349 . S
C1397 H1389 0.950 . S
C1397 C1395 1.327 . S
C1398 C1386 1.349 . S
C1398 H1392 0.950 . S
C1398 C1399 1.327 . S
C1399 H1393 0.950 . S
C1399 C1398 1.327 . S
C1399 C1403 1.429 . S
C1400 C1383 1.574 . S
C1400 H1394 0.949 . S
C1400 C1404 1.368 1_455 S
C1401 C1382 1.429 . S
C1401 C1395 1.429 . S
C1401 C1402 1.523 . S
C1402 C1383 1.368 . S
C1402 C1396 1.368 . S
C1402 C1401 1.523 . S
C1403 C1387 1.429 . S
C1403 C1399 1.429 . S
C1403 C1404 1.523 . S
C1404 C1388 1.368 . S
C1404 C1400 1.368 1_655 S
C1404 C1403 1.523 . S
H1405 C1380 0.950 . S
H1406 C1382 0.950 . S
H1407 C1383 0.949 . S
H1408 C1385 0.950 . S
H1409 C1387 0.950 . S
C1410 C1411 1.349 . S
C1410 C1412 1.327 . S
C1410 H1435 0.950 . S
C1411 C1410 1.349 . S
C1411 C1427 1.349 . S
C1412 C1410 1.327 . S
C1412 C1431 1.429 . S
C1412 H1436 0.950 . S
C1413 C1430 1.574 . S
C1413 C1432 1.368 . S
C1413 H1437 0.949 . S
H1414 C1418 0.949 . S
C1415 C1416 1.349 . S
C1415 C1417 1.327 . S
C1415 H1438 0.950 . S
C1416 C1415 1.349 . S
C1416 C1428 1.349 . S
C1417 C1415 1.327 . S
C1417 C1433 1.429 . S
C1417 H1439 0.950 . S
C1418 H1414 0.949 . S
C1418 C1426 1.574 . S
C1418 C1434 1.368 . S
H1419 C1427 0.950 . S
H1420 C1425 0.950 . S
H1421 C1426 0.949 . S
H1422 C1428 0.950 . S
H1423 C1429 0.950 . S
H1424 C1430 0.949 . S
C1425 H1420 0.950 . S
C1425 C1427 1.327 . S
C1425 C1431 1.429 . S
C1426 C1418 1.574 . S
C1426 H1421 0.949 . S
C1426 C1432 1.368 . S
C1427 C1411 1.349 . S
C1427 H1419 0.950 . S
C1427 C1425 1.327 . S
C1428 C1416 1.349 . S
C1428 H1422 0.950 . S
C1428 C1429 1.327 . S
C1429 H1423 0.950 . S
C1429 C1428 1.327 . S
C1429 C1433 1.429 . S
C1430 C1413 1.574 . S
C1430 H1424 0.949 . S
C1430 C1434 1.368 . S
C1431 C1412 1.429 . S
C1431 C1425 1.429 . S
C1431 C1432 1.523 . S
C1432 C1413 1.368 . S
C1432 C1426 1.368 . S
C1432 C1431 1.523 . S
C1433 C1417 1.429 . S
C1433 C1429 1.429 . S
C1433 C1434 1.523 . S
C1434 C1418 1.368 . S
C1434 C1430 1.368 . S
C1434 C1433 1.523 . S
H1435 C1410 0.950 . S
H1436 C1412 0.950 . S
H1437 C1413 0.949 . S
H1438 C1415 0.950 . S
H1439 C1417 0.950 . S
C1440 C1441 1.349 . S
C1440 C1442 1.327 . S
C1440 H1465 0.950 . S
C1441 C1440 1.349 . S
C1441 C1457 1.349 . S
C1442 C1440 1.327 . S
C1442 C1461 1.429 . S
C1442 H1466 0.950 . S
C1443 C1460 1.574 . S
C1443 C1462 1.368 . S
C1443 H1467 0.949 . S
H1444 C1448 0.949 . S
C1445 C1446 1.349 . S
C1445 C1447 1.327 . S
C1445 H1468 0.950 . S
C1446 C1445 1.349 . S
C1446 C1458 1.349 . S
C1447 C1445 1.327 . S
C1447 C1463 1.429 . S
C1447 H1469 0.950 . S
C1448 H1444 0.949 . S
C1448 C1456 1.574 . S
C1448 C1464 1.368 . S
H1449 C1457 0.950 . S
H1450 C1455 0.950 . S
H1451 C1456 0.949 . S
H1452 C1458 0.950 . S
H1453 C1459 0.950 . S
H1454 C1460 0.949 . S
C1455 H1450 0.950 . S
C1455 C1457 1.327 . S
C1455 C1461 1.429 . S
C1456 C1448 1.574 . S
C1456 H1451 0.949 . S
C1456 C1462 1.368 . S
C1457 C1441 1.349 . S
C1457 H1449 0.950 . S
C1457 C1455 1.327 . S
C1458 C1446 1.349 . S
C1458 H1452 0.950 . S
C1458 C1459 1.327 . S
C1459 H1453 0.950 . S
C1459 C1458 1.327 . S
C1459 C1463 1.429 . S
C1460 C1443 1.574 . S
C1460 H1454 0.949 . S
C1460 C1464 1.368 . S
C1461 C1442 1.429 . S
C1461 C1455 1.429 . S
C1461 C1462 1.523 . S
C1462 C1443 1.368 . S
C1462 C1456 1.368 . S
C1462 C1461 1.523 . S
C1463 C1447 1.429 . S
C1463 C1459 1.429 . S
C1463 C1464 1.523 . S
C1464 C1448 1.368 . S
C1464 C1460 1.368 . S
C1464 C1463 1.523 . S
H1465 C1440 0.950 . S
H1466 C1442 0.950 . S
H1467 C1443 0.949 . S
H1468 C1445 0.950 . S
H1469 C1447 0.950 . S
C1470 C1471 1.349 . S
C1470 C1472 1.327 . S
C1470 H1495 0.950 . S
C1471 C1470 1.349 . S
C1471 C1487 1.349 . S
C1472 C1470 1.327 . S
C1472 C1491 1.429 . S
C1472 H1496 0.950 . S
C1473 C1490 1.574 . S
C1473 C1492 1.368 . S
C1473 H1497 0.949 . S
H1474 C1478 0.949 . S
C1475 C1476 1.349 . S
C1475 C1477 1.327 . S
C1475 H1498 0.950 . S
C1476 C1475 1.349 . S
C1476 C1488 1.349 . S
C1477 C1475 1.327 . S
C1477 C1493 1.429 . S
C1477 H1499 0.950 . S
C1478 H1474 0.949 . S
C1478 C1486 1.574 . S
C1478 C1494 1.368 . S
H1479 C1487 0.950 . S
H1480 C1485 0.950 . S
H1481 C1486 0.949 . S
H1482 C1488 0.950 . S
H1483 C1489 0.950 . S
H1484 C1490 0.949 . S
C1485 H1480 0.950 . S
C1485 C1487 1.327 . S
C1485 C1491 1.429 . S
C1486 C1478 1.574 . S
C1486 H1481 0.949 . S
C1486 C1492 1.368 . S
C1487 C1471 1.349 . S
C1487 H1479 0.950 . S
C1487 C1485 1.327 . S
C1488 C1476 1.349 . S
C1488 H1482 0.950 . S
C1488 C1489 1.327 . S
C1489 H1483 0.950 . S
C1489 C1488 1.327 . S
C1489 C1493 1.429 . S
C1490 C1473 1.574 . S
C1490 H1484 0.949 . S
C1490 C1494 1.368 . S
C1491 C1472 1.429 . S
C1491 C1485 1.429 . S
C1491 C1492 1.523 . S
C1492 C1473 1.368 . S
C1492 C1486 1.368 . S
C1492 C1491 1.523 . S
C1493 C1477 1.429 . S
C1493 C1489 1.429 . S
C1493 C1494 1.523 . S
C1494 C1478 1.368 . S
C1494 C1490 1.368 . S
C1494 C1493 1.523 . S
H1495 C1470 0.950 . S
H1496 C1472 0.950 . S
H1497 C1473 0.949 . S
H1498 C1475 0.950 . S
H1499 C1477 0.950 . S
C1500 C1501 1.349 . S
C1500 C1502 1.327 . S
C1500 H1525 0.950 . S
C1501 C1500 1.349 . S
C1501 C1517 1.349 . S
C1502 C1500 1.327 . S
C1502 C1521 1.429 . S
C1502 H1526 0.950 . S
C1503 C1520 1.574 . S
C1503 C1522 1.368 . S
C1503 H1527 0.949 . S
H1504 C1508 0.949 . S
C1505 C1506 1.349 . S
C1505 C1507 1.327 . S
C1505 H1528 0.950 . S
C1506 C1505 1.349 . S
C1506 C1518 1.349 . S
C1507 C1505 1.327 . S
C1507 C1523 1.429 . S
C1507 H1529 0.950 . S
C1508 H1504 0.949 . S
C1508 C1516 1.574 . S
C1508 C1524 1.368 . S
H1509 C1517 0.950 . S
H1510 C1515 0.950 . S
H1511 C1516 0.949 . S
H1512 C1518 0.950 . S
H1513 C1519 0.950 . S
H1514 C1520 0.949 . S
C1515 H1510 0.950 . S
C1515 C1517 1.327 . S
C1515 C1521 1.429 . S
C1516 C1508 1.574 . S
C1516 H1511 0.949 . S
C1516 C1522 1.368 . S
C1517 C1501 1.349 . S
C1517 H1509 0.950 . S
C1517 C1515 1.327 . S
C1518 C1506 1.349 . S
C1518 H1512 0.950 . S
C1518 C1519 1.327 . S
C1519 H1513 0.950 . S
C1519 C1518 1.327 . S
C1519 C1523 1.429 . S
C1520 C1503 1.574 . S
C1520 H1514 0.949 . S
C1520 C1524 1.368 . S
C1521 C1502 1.429 . S
C1521 C1515 1.429 . S
C1521 C1522 1.523 . S
C1522 C1503 1.368 . S
C1522 C1516 1.368 . S
C1522 C1521 1.523 . S
C1523 C1507 1.429 . S
C1523 C1519 1.429 . S
C1523 C1524 1.523 . S
C1524 C1508 1.368 . S
C1524 C1520 1.368 . S
C1524 C1523 1.523 . S
H1525 C1500 0.950 . S
H1526 C1502 0.950 . S
H1527 C1503 0.949 . S
H1528 C1505 0.950 . S
H1529 C1507 0.950 . S
C1530 C1531 1.349 . S
C1530 C1532 1.327 . S
C1530 H1555 0.950 . S
C1531 C1530 1.349 . S
C1531 C1547 1.349 . S
C1532 C1530 1.327 . S
C1532 C1551 1.429 . S
C1532 H1556 0.950 . S
C1533 C1550 1.574 . S
C1533 C1552 1.368 . S
C1533 H1557 0.949 . S
H1534 C1538 0.949 . S
C1535 C1536 1.349 . S
C1535 C1537 1.327 . S
C1535 H1558 0.950 . S
C1536 C1535 1.349 . S
C1536 C1548 1.349 . S
C1537 C1535 1.327 . S
C1537 C1553 1.429 . S
C1537 H1559 0.950 1_455 S
C1538 H1534 0.949 . S
C1538 C1546 1.574 . S
C1538 C1554 1.368 . S
H1539 C1547 0.950 . S
H1540 C1545 0.950 . S
H1541 C1546 0.949 . S
H1542 C1548 0.950 . S
H1543 C1549 0.950 . S
H1544 C1550 0.949 . S
C1545 H1540 0.950 . S
C1545 C1547 1.327 . S
C1545 C1551 1.429 . S
C1546 C1538 1.574 . S
C1546 H1541 0.949 . S
C1546 C1552 1.368 . S
C1547 C1531 1.349 . S
C1547 H1539 0.950 . S
C1547 C1545 1.327 . S
C1548 C1536 1.349 . S
C1548 H1542 0.950 . S
C1548 C1549 1.327 . S
C1549 H1543 0.950 . S
C1549 C1548 1.327 . S
C1549 C1553 1.429 . S
C1550 C1533 1.574 . S
C1550 H1544 0.949 . S
C1550 C1554 1.368 . S
C1551 C1532 1.429 . S
C1551 C1545 1.429 . S
C1551 C1552 1.523 . S
C1552 C1533 1.368 . S
C1552 C1546 1.368 . S
C1552 C1551 1.523 . S
C1553 C1537 1.429 . S
C1553 C1549 1.429 . S
C1553 C1554 1.523 1_455 S
C1554 C1538 1.368 . S
C1554 C1550 1.368 . S
C1554 C1553 1.523 1_655 S
H1555 C1530 0.950 . S
H1556 C1532 0.950 . S
H1557 C1533 0.949 . S
H1558 C1535 0.950 . S
H1559 C1537 0.950 1_655 S
C481 C11 1.125 . S
C486 C459 1.142 . S
C511 C371 1.793 1_565 S
C516 C59 1.849 . S
C541 C91 1.148 . S
C546 C339 1.181 . S
C571 C139 1.912 . S
C576 C419 1.904 . S
C601 C179 1.756 . S
C606 C411 1.711 . S
C631 C211 1.410 . S
C636 C451 1.420 . S
C661 C379 1.810 . S
C666 C259 1.811 . S
C691 C291 1.489 . S
C696 C331 1.516 . S
C721 C131 1.565 . S
C726 C171 1.577 . S
C751 C19 1.393 . S
C756 C219 1.391 . S
C781 C51 1.556 1_655 S
C786 C251 1.572 . S
C811 C299 1.731 . S
C816 C99 1.736 . S
C841 C16 1.799 . S
C846 C330 1.791 . S
C871 C47 1.214 . S
C876 C410 1.179 . S
C901 C450 1.832 . S
C906 C96 1.839 . S
C931 C127 1.538 . S
C936 C362 1.526 . S
C961 C167 1.075 . S
C966 C370 1.050 . S
C991 C322 2.072 . S
C996 C216 1.992 . S
C1021 C402 1.393 . S
C1026 C247 1.402 . S
C1051 C442 2.145 . S
C1056 C296 2.070 . S
C1081 C10 2.370 . S
C1086 C136 2.376 . S
C1111 C7 1.767 . S
C1116 C42 1.749 . S
C1141 C56 2.121 . S
C1146 C90 2.123 . S
C1171 C122 1.612 . S
C1176 C87 1.626 . S
C1201 C207 1.493 . S
C1206 C162 1.473 . S
C1231 C210 1.130 . S
C1236 C256 1.137 . S
C1261 C242 1.377 . S
C1266 C287 1.392 . S
C1291 C176 0.898 . S
C1296 C290 0.897 . S
C1321 C336 1.315 . S
C1326 C130 1.300 . S
C1351 C202 2.082 . S
C1356 C376 2.021 . S
C1381 C327 1.312 . S
C1386 C250 1.257 . S
C1411 C407 1.852 . S
C1416 C282 1.830 . S
C1441 C170 1.220 . S
C1446 C447 1.267 . S
C1471 C456 1.273 . S
C1476 C50 1.259 . S
C1501 C82 1.682 . S
C1506 C367 1.693 . S
C1531 C416 1.902 . S
C1536 C2 1.972 . S
