# Generated by pormake.
# Topology fnj, (5)-cn, num edge types: 1
# Building blocks:
#     Node 0, Type 0, BuildingBlock: BEQFEK_clean_sbu_0, # of connection points: 5
#     Node 1, Type 0, BuildingBlock: BEQFEK_clean_sbu_0, # of connection points: 5
#     Node 2, Type 0, BuildingBlock: BEQFEK_clean_sbu_0, # of connection points: 5
#     Node 3, Type 0, BuildingBlock: BEQFEK_clean_sbu_0, # of connection points: 5
#     Node 4, Type 0, BuildingBlock: BEQFEK_clean_sbu_0, # of connection points: 5
#     Node 5, Type 0, BuildingBlock: BEQFEK_clean_sbu_0, # of connection points: 5
#     Node 6, Type 0, BuildingBlock: BEQFEK_clean_sbu_0, # of connection points: 5
#     Node 7, Type 0, BuildingBlock: BEQFEK_clean_sbu_0, # of connection points: 5
#     Node 8, Type 0, BuildingBlock: BEQFEK_clean_sbu_0, # of connection points: 5
#     Node 9, Type 0, BuildingBlock: BEQFEK_clean_sbu_0, # of connection points: 5
#     Node 10, Type 0, BuildingBlock: BEQFEK_clean_sbu_0, # of connection points: 5
#     Node 11, Type 0, BuildingBlock: BEQFEK_clean_sbu_0, # of connection points: 5
#     Node 12, Type 0, BuildingBlock: BEQFEK_clean_sbu_0, # of connection points: 5
#     Node 13, Type 0, BuildingBlock: BEQFEK_clean_sbu_0, # of connection points: 5
#     Node 14, Type 0, BuildingBlock: BEQFEK_clean_sbu_0, # of connection points: 5
#     Node 15, Type 0, BuildingBlock: BEQFEK_clean_sbu_0, # of connection points: 5
#     Edge 16, Type (0, 0), BuildingBlock: EZIPEK_clean_linker_0, # of connection points: 2
#     Edge 17, Type (0, 0), BuildingBlock: EZIPEK_clean_linker_0, # of connection points: 2
#     Edge 18, Type (0, 0), BuildingBlock: EZIPEK_clean_linker_0, # of connection points: 2
#     Edge 19, Type (0, 0), BuildingBlock: EZIPEK_clean_linker_0, # of connection points: 2
#     Edge 20, Type (0, 0), BuildingBlock: EZIPEK_clean_linker_0, # of connection points: 2
#     Edge 21, Type (0, 0), BuildingBlock: EZIPEK_clean_linker_0, # of connection points: 2
#     Edge 22, Type (0, 0), BuildingBlock: EZIPEK_clean_linker_0, # of connection points: 2
#     Edge 23, Type (0, 0), BuildingBlock: EZIPEK_clean_linker_0, # of connection points: 2
#     Edge 24, Type (0, 0), BuildingBlock: EZIPEK_clean_linker_0, # of connection points: 2
#     Edge 25, Type (0, 0), BuildingBlock: EZIPEK_clean_linker_0, # of connection points: 2
#     Edge 26, Type (0, 0), BuildingBlock: EZIPEK_clean_linker_0, # of connection points: 2
#     Edge 27, Type (0, 0), BuildingBlock: EZIPEK_clean_linker_0, # of connection points: 2
#     Edge 28, Type (0, 0), BuildingBlock: EZIPEK_clean_linker_0, # of connection points: 2
#     Edge 29, Type (0, 0), BuildingBlock: EZIPEK_clean_linker_0, # of connection points: 2
#     Edge 30, Type (0, 0), BuildingBlock: EZIPEK_clean_linker_0, # of connection points: 2
#     Edge 31, Type (0, 0), BuildingBlock: EZIPEK_clean_linker_0, # of connection points: 2
#     Edge 32, Type (0, 0), BuildingBlock: EZIPEK_clean_linker_0, # of connection points: 2
#     Edge 33, Type (0, 0), BuildingBlock: EZIPEK_clean_linker_0, # of connection points: 2
#     Edge 34, Type (0, 0), BuildingBlock: EZIPEK_clean_linker_0, # of connection points: 2
#     Edge 35, Type (0, 0), BuildingBlock: EZIPEK_clean_linker_0, # of connection points: 2
#     Edge 36, Type (0, 0), BuildingBlock: EZIPEK_clean_linker_0, # of connection points: 2
#     Edge 37, Type (0, 0), BuildingBlock: EZIPEK_clean_linker_0, # of connection points: 2
#     Edge 38, Type (0, 0), BuildingBlock: EZIPEK_clean_linker_0, # of connection points: 2
#     Edge 39, Type (0, 0), BuildingBlock: EZIPEK_clean_linker_0, # of connection points: 2
#     Edge 40, Type (0, 0), BuildingBlock: EZIPEK_clean_linker_0, # of connection points: 2
#     Edge 41, Type (0, 0), BuildingBlock: EZIPEK_clean_linker_0, # of connection points: 2
#     Edge 42, Type (0, 0), BuildingBlock: EZIPEK_clean_linker_0, # of connection points: 2
#     Edge 43, Type (0, 0), BuildingBlock: EZIPEK_clean_linker_0, # of connection points: 2
#     Edge 44, Type (0, 0), BuildingBlock: EZIPEK_clean_linker_0, # of connection points: 2
#     Edge 45, Type (0, 0), BuildingBlock: EZIPEK_clean_linker_0, # of connection points: 2
#     Edge 46, Type (0, 0), BuildingBlock: EZIPEK_clean_linker_0, # of connection points: 2
#     Edge 47, Type (0, 0), BuildingBlock: EZIPEK_clean_linker_0, # of connection points: 2
#     Edge 48, Type (0, 0), BuildingBlock: EZIPEK_clean_linker_0, # of connection points: 2
#     Edge 49, Type (0, 0), BuildingBlock: EZIPEK_clean_linker_0, # of connection points: 2
#     Edge 50, Type (0, 0), BuildingBlock: EZIPEK_clean_linker_0, # of connection points: 2
#     Edge 51, Type (0, 0), BuildingBlock: EZIPEK_clean_linker_0, # of connection points: 2
#     Edge 52, Type (0, 0), BuildingBlock: EZIPEK_clean_linker_0, # of connection points: 2
#     Edge 53, Type (0, 0), BuildingBlock: EZIPEK_clean_linker_0, # of connection points: 2
#     Edge 54, Type (0, 0), BuildingBlock: EZIPEK_clean_linker_0, # of connection points: 2
#     Edge 55, Type (0, 0), BuildingBlock: EZIPEK_clean_linker_0, # of connection points: 2
# Relax obj value: 0.156
# Max RMSD: 0.173
# Mean RMSD: 0.173
data_MOF--net-fnj--node1-BEQFEK_clean_sbu_0--edge1-EZIPEK_clean_linker_0
_symmetry_space_group_name_H-M    P1
_symmetry_Int_Tables_number       1
_symmetry_cell_setting            triclinic
loop_
_symmetry_equiv_pos_as_xyz
'x, y, z'
_cell_length_a     55.020996
_cell_length_b     55.099579
_cell_length_c     15.015717
_cell_angle_alpha  90.057044
_cell_angle_beta   89.970521
_cell_angle_gamma 100.07674
loop_
_atom_site_label
_atom_site_type_symbol
_atom_site_fract_x
_atom_site_fract_y
_atom_site_fract_z
_atom_type_partial_charge
Co0 Co 0.38904 0.04206 0.97961 0.0
Co1 Co 0.38029 0.02031 0.17169 0.0
C2 C 0.36552 0.06938 0.11181 0.0
O3 O 0.37558 0.06994 0.03504 0.0
O4 O 0.36616 0.05135 0.16449 0.0
C5 C 0.38931 0.06039 0.79658 0.0
O6 O 0.37849 0.07824 0.82643 0.0
C7 C 0.3919 0.02771 0.36043 0.0
C8 C 0.36545 0.99799 0.42346 0.0
C9 C 0.38267 0.01891 0.44212 0.0
N10 N 0.38052 0.01293 0.29606 0.0
N11 N 0.36506 0.99488 0.33436 0.0
C12 C 0.41005 0.05082 0.34418 0.0
H13 H 0.41167 0.05507 0.27203 0.0
H14 H 0.42839 0.04847 0.36976 0.0
H15 H 0.40457 0.0663 0.38201 0.0
C16 C 0.44003 0.03555 0.01922 0.0
N17 N 0.41634 0.03467 0.04349 0.0
N18 N 0.4127 0.0242 0.12227 0.0
C19 C 0.43395 0.01748 0.14945 0.0
C20 C 0.45198 0.02471 0.08544 0.0
C21 C 0.45058 0.04536 0.93208 0.0
H22 H 0.44407 0.06284 0.9166 0.0
H23 H 0.47107 0.04853 0.93313 0.0
H24 H 0.44389 0.03187 0.87882 0.0
O25 O 0.36284 0.01243 0.97446 0.0
O26 O 0.35754 0.99425 0.1066 0.0
H27 H 0.45048 0.99067 0.22089 0.0
H28 H 0.44327 0.01561 0.28688 0.0
C29 C 0.43664 1.00283 0.23153 0.0
H30 H 0.41868 0.99157 0.25051 0.0
H31 H 0.35311 0.98138 0.29955 0.0
O32 O 0.39712 0.04597 0.85122 0.0
C33 C 0.35238 0.99498 0.02402 0.0
Co34 Co 0.27439 0.15881 0.37469 0.0
Co35 Co 0.25243 0.15105 0.18248 0.0
C36 C 0.30111 0.13504 0.24181 0.0
O37 O 0.30209 0.1452 0.31844 0.0
O38 O 0.28296 0.13599 0.1899 0.0
C39 C 0.29353 0.15961 0.5581 0.0
O40 O 0.31196 0.14963 0.52819 0.0
C41 C 0.26038 0.163 0.99406 0.0
C42 C 0.23104 0.13633 0.92981 0.0
C43 C 0.25195 0.15365 0.91201 0.0
N44 N 0.24538 0.15158 0.0578 0.0
N45 N 0.22756 0.136 0.01871 0.0
C46 C 0.28336 0.18126 0.01133 0.0
H47 H 0.28769 0.1825 0.08349 0.0
H48 H 0.28071 0.19966 0.98748 0.0
H49 H 0.29897 0.17627 0.9727 0.0
C50 C 0.26821 0.21002 0.33779 0.0
N51 N 0.26738 0.1865 0.31192 0.0
N52 N 0.2569 0.18326 0.233 0.0
C53 C 0.25004 0.20457 0.20749 0.0
C54 C 0.25721 0.22223 0.27274 0.0
C55 C 0.27786 0.22009 0.42576 0.0
H56 H 0.26442 0.21284 0.47853 0.0
H57 H 0.29553 0.2138 0.44027 0.0
H58 H 0.28071 0.24054 0.42661 0.0
O59 O 0.2444 0.13285 0.37877 0.0
O60 O 0.22578 0.12901 0.24685 0.0
H61 H 0.22407 0.18962 0.10601 0.0
H62 H 0.22284 0.22114 0.13828 0.0
C63 C 0.23519 0.20755 0.12614 0.0
H64 H 0.24785 0.21461 0.07096 0.0
H65 H 0.21402 0.12394 0.05295 0.0
O66 O 0.27847 0.16649 0.50363 0.0
C67 C 0.22663 0.12329 0.32882 0.0
Co68 Co 0.12114 1.00073 0.46361 0.0
Co69 Co 0.12695 0.02433 0.65394 0.0
C70 C 0.14579 0.97691 0.60204 0.0
O71 O 0.13741 0.97512 0.52256 0.0
O72 O 0.14281 0.99478 0.6521 0.0
C73 C 0.13101 0.99347 0.28321 0.0
O74 O 0.15211 0.98936 0.31551 0.0
C75 C 0.12321 0.01695 0.84549 0.0
C76 C 0.12623 0.05471 0.89885 0.0
C77 C 0.12409 0.0302 0.92397 0.0
N78 N 0.12488 0.03278 0.77676 0.0
N79 N 0.12649 0.05534 0.80904 0.0
C80 C 0.12221 0.98974 0.83604 0.0
H81 H 0.11052 0.9827 0.7782 0.0
H82 H 0.1149 0.97967 0.89693 0.0
H83 H 0.14116 0.98608 0.8244 0.0
C84 C 0.06878 0.00421 0.49809 0.0
N85 N 0.09249 0.00654 0.52439 0.0
N86 N 0.09495 0.01734 0.60284 0.0
C87 C 0.07288 0.02235 0.62873 0.0
C88 C 0.05558 0.01425 0.5631 0.0
C89 C 0.05937 0.99416 0.40971 0.0
H90 H 0.06695 0.97723 0.39438 0.0
H91 H 0.03889 0.98999 0.40869 0.0
H92 H 0.06585 0.00799 0.35736 0.0
O93 O 0.14541 0.03162 0.45647 0.0
O94 O 0.14882 0.05091 0.58689 0.0
H95 H 0.04943 0.03898 0.71747 0.0
H96 H 0.07286 0.02473 0.77066 0.0
C97 C 0.06873 0.03573 0.71251 0.0
H98 H 0.08158 0.05364 0.71438 0.0
H99 H 0.12832 0.07119 0.76989 0.0
O100 O 0.11339 0.99496 0.33639 0.0
C101 C 0.15463 0.04982 0.50492 0.0
Co102 Co 0.23142 0.88799 0.8916 0.0
Co103 Co 0.2543 0.89376 0.7009 0.0
C104 C 0.20678 0.91206 0.75471 0.0
O105 O 0.20519 0.90329 0.83348 0.0
O106 O 0.22481 0.90998 0.70402 0.0
C107 C 0.22519 0.89835 0.07102 0.0
O108 O 0.22218 0.9197 0.03798 0.0
C109 C 0.24726 0.89077 0.50903 0.0
C110 C 0.28504 0.89188 0.45742 0.0
C111 C 0.26073 0.89093 0.43123 0.0
N112 N 0.26283 0.89169 0.57841 0.0
N113 N 0.28539 0.89221 0.54721 0.0
C114 C 0.22019 0.89103 0.51733 0.0
H115 H 0.21237 0.87901 0.57331 0.0
H116 H 0.2101 0.88486 0.4552 0.0
H117 H 0.21744 0.91013 0.53162 0.0
C118 C 0.23584 0.83596 0.85915 0.0
N119 N 0.23739 0.85943 0.83154 0.0
N120 N 0.24762 0.86178 0.75211 0.0
C121 C 0.253 0.83983 0.72682 0.0
C122 C 0.24579 0.82279 0.79397 0.0
C123 C 0.22689 0.82686 0.94918 0.0
H124 H 0.24095 0.83435 -0.00031 0.0
H125 H 0.20957 0.83365 0.96545 0.0
H126 H 0.22368 0.80642 0.95225 0.0
O127 O 0.26213 0.91275 0.89761 0.0
O128 O 0.28122 0.91527 0.7667 0.0
H129 H 0.28459 0.84785 0.64228 0.0
H130 H 0.26881 0.81617 0.63649 0.0
C131 C 0.26628 0.83564 0.64282 0.0
H132 H 0.25563 0.84056 0.58485 0.0
H133 H 0.30105 0.89324 0.5871 0.0
O134 O 0.22576 0.8804 0.01853 0.0
C135 C 0.28027 0.92151 0.84817 0.0
Co136 Co 0.61911 0.99748 0.17395 0.0
Co137 Co 0.62466 0.01962 0.98026 0.0
C138 C 0.64476 0.97347 0.03714 0.0
O139 O 0.63656 0.97218 0.117 0.0
O140 O 0.64111 0.99063 0.98505 0.0
C141 C 0.61627 0.97668 0.35782 0.0
O142 O 0.62479 0.95728 0.32891 0.0
C143 C 0.61503 0.00803 0.79489 0.0
C144 C 0.62941 0.0427 0.72463 0.0
C145 C 0.61931 0.01811 0.71104 0.0
N146 N 0.62222 0.02571 0.85582 0.0
N147 N 0.63055 0.04653 0.81346 0.0
C148 C 0.60629 0.98146 0.81662 0.0
H149 H 0.59834 0.97951 0.88471 0.0
H150 H 0.59236 0.97294 0.76721 0.0
H151 H 0.6222 0.97157 0.8135 0.0
C152 C 0.56662 0.99952 0.13689 0.0
N153 N 0.59038 1.00207 0.11122 0.0
N154 N 0.59281 0.01253 0.0322 0.0
C155 C 0.57068 0.01717 0.00555 0.0
C156 C 0.55336 0.00905 0.07102 0.0
C157 C 0.55719 0.98964 0.22527 0.0
H158 H 0.56449 0.97253 0.23962 0.0
H159 H 0.5367 0.98578 0.22685 0.0
H160 H 0.56401 0.00337 0.27766 0.0
O161 O 0.64241 0.0291 0.17707 0.0
O162 O 0.64633 0.04709 0.0443 0.0
H163 H 0.54868 0.03715 0.92315 0.0
H164 H 0.56641 0.01759 0.86447 0.0
C165 C 0.56655 0.03042 0.92154 0.0
H166 H 0.58189 0.04614 0.91123 0.0
H167 H 0.63802 0.06305 0.84508 0.0
O168 O 0.61175 0.99288 0.3032 0.0
C169 C 0.6517 0.04693 0.127 0.0
Co170 Co 0.73352 0.88862 0.74222 0.0
Co171 Co 0.75635 0.89341 0.93293 0.0
C172 C 0.70878 0.91196 0.88139 0.0
O173 O 0.70725 0.90365 0.80191 0.0
O174 O 0.72685 0.90969 0.93154 0.0
C175 C 0.72744 0.89933 0.56248 0.0
O176 O 0.72472 0.92081 0.59535 0.0
C177 C 0.74929 0.89009 0.12483 0.0
C178 C 0.78707 0.89117 0.17622 0.0
C179 C 0.76278 0.89035 0.20256 0.0
N180 N 0.76483 0.89089 0.05532 0.0
N181 N 0.78738 0.89135 0.08642 0.0
C182 C 0.72224 0.89051 0.11679 0.0
H183 H 0.71436 0.87864 0.06044 0.0
H184 H 0.71213 0.88421 0.17875 0.0
H185 H 0.71958 0.90968 0.10345 0.0
C186 C 0.73771 0.83644 0.77081 0.0
N187 N 0.73931 0.85976 0.80029 0.0
N188 N 0.74944 0.86164 0.87989 0.0
C189 C 0.75467 0.8395 0.90352 0.0
C190 C 0.74746 0.82285 0.83499 0.0
C191 C 0.72887 0.82787 0.68005 0.0
H192 H 0.74297 0.83569 0.63013 0.0
H193 H 0.71155 0.83471 0.66447 0.0
H194 H 0.72569 0.80746 0.67521 0.0
O195 O 0.76445 0.91311 0.73697 0.0
O196 O 0.7835 0.9149 0.86781 0.0
H197 H 0.78629 0.84701 0.98798 0.0
H198 H 0.77041 0.81534 0.99176 0.0
C199 C 0.76795 0.83487 0.98691 0.0
H200 H 0.75736 0.83956 0.04545 0.0
H201 H 0.80304 0.89235 0.04645 0.0
O202 O 0.72776 0.88139 0.61507 0.0
C203 C 0.78271 0.92138 0.78658 0.0
Co204 Co 0.8892 0.04322 0.6542 0.0
Co205 Co 0.88209 0.0214 0.4627 0.0
C206 C 0.8653 0.06934 0.51965 0.0
O207 O 0.87425 0.07004 0.59815 0.0
O208 O 0.86674 0.05156 0.46694 0.0
C209 C 0.87994 0.05187 0.83308 0.0
O210 O 0.85953 0.05741 0.79971 0.0
C211 C 0.88576 0.02879 0.27156 0.0
C212 C 0.88129 0.99091 0.21812 0.0
C213 C 0.88437 0.01548 0.19316 0.0
N214 N 0.88351 0.01291 0.34013 0.0
N215 N 0.88101 0.99027 0.3079 0.0
C216 C 0.88797 0.05612 0.28132 0.0
H217 H 0.89995 0.06257 0.33908 0.0
H218 H 0.89559 0.06599 0.22042 0.0
H219 H 0.86938 0.06064 0.29358 0.0
C220 C 0.94103 0.03839 0.61741 0.0
N221 N 0.91733 0.03695 0.59214 0.0
N222 N 0.91447 0.02737 0.51178 0.0
C223 C 0.93636 0.02245 0.48322 0.0
C224 C 0.95387 0.02922 0.54937 0.0
C225 C 0.9508 0.04709 0.70694 0.0
H226 H 0.94351 0.03301 0.75753 0.0
H227 H 0.94424 0.06442 0.72457 0.0
H228 H 0.97128 0.05015 0.70832 0.0
O229 O 0.86412 0.01278 0.66087 0.0
O230 O 0.86019 0.99453 0.52866 0.0
H231 H 0.95943 0.00722 0.38895 0.0
H232 H 0.93563 0.02205 0.34106 0.0
C233 C 0.94012 0.0103 0.39648 0.0
H234 H 0.92735 0.99237 0.3924 0.0
H235 H 0.87865 0.97441 0.34706 0.0
O236 O 0.89724 0.0487 0.78081 0.0
C237 C 0.85464 0.99498 0.611 0.0
Co238 Co 0.77338 0.15302 0.23327 0.0
Co239 Co 0.75398 0.15111 0.43003 0.0
C240 C 0.7996 0.13019 0.37152 0.0
O241 O 0.79961 0.13691 0.29017 0.0
O242 O 0.78306 0.13467 0.42515 0.0
C243 C 0.79606 0.16482 0.05179 0.0
O244 O 0.81849 0.17088 0.084 0.0
C245 C 0.76664 0.16059 0.615 0.0
C246 C 0.73075 0.15445 0.68454 0.0
C247 C 0.75603 0.16008 0.69838 0.0
N248 N 0.74862 0.15548 0.554 0.0
N249 N 0.72713 0.15201 0.59582 0.0
C250 C 0.79364 0.1648 0.59405 0.0
H251 H 0.79999 0.14677 0.59229 0.0
H252 H 0.79709 0.17375 0.52796 0.0
H253 H 0.80442 0.17639 0.64585 0.0
C254 C 0.77013 0.20615 0.2592 0.0
N255 N 0.76901 0.183 0.29004 0.0
N256 N 0.7604 0.18196 0.37201 0.0
C257 C 0.75584 0.20432 0.39579 0.0
C258 C 0.76184 0.22037 0.32507 0.0
C259 C 0.77778 0.21419 0.167 0.0
H260 H 0.76552 0.2029 0.11824 0.0
H261 H 0.79688 0.21098 0.15604 0.0
H262 H 0.7771 0.23399 0.15631 0.0
O263 O 0.74177 0.12947 0.2372 0.0
O264 O 0.72549 0.12916 0.37292 0.0
H265 H 0.72717 0.19605 0.493 0.0
H266 H 0.73982 0.22861 0.48306 0.0
C267 C 0.74426 0.20972 0.48205 0.0
H268 H 0.75719 0.20788 0.53729 0.0
H269 H 0.71009 0.14735 0.56417 0.0
O270 O 0.77787 0.15773 0.10308 0.0
C271 C 0.72449 0.12194 0.29203 0.0
Co272 Co 0.88685 0.54386 0.45548 0.0
Co273 Co 0.88281 0.51997 0.64312 0.0
C274 C 0.86216 0.56691 0.59216 0.0
O275 O 0.87071 0.56944 0.51305 0.0
O276 O 0.86541 0.5488 0.64066 0.0
C277 C 0.898 0.56264 0.26443 0.0
O278 O 0.90504 0.58594 0.28571 0.0
C279 C 0.89202 0.53083 0.82821 0.0
C280 C 0.87933 0.49537 0.89617 0.0
C281 C 0.8883 0.52015 0.91123 0.0
N282 N 0.88529 0.51337 0.76634 0.0
N283 N 0.87782 0.49212 0.80712 0.0
C284 C 0.90098 0.55747 0.80796 0.0
H285 H 0.90949 0.5596 0.74078 0.0
H286 H 0.91448 0.56587 0.85899 0.0
H287 H 0.88508 0.56739 0.80921 0.0
C288 C 0.94098 0.54416 0.49356 0.0
N289 N 0.91678 0.5398 0.51555 0.0
N290 N 0.91437 0.52789 0.5919 0.0
C291 C 0.93648 0.52322 0.61818 0.0
C292 C 0.95406 0.53334 0.55661 0.0
C293 C 0.952 0.55903 0.41595 0.0
H294 H 0.93791 0.56729 0.38028 0.0
H295 H 0.96677 0.57396 0.43994 0.0
H296 H 0.96094 0.54728 0.37082 0.0
O297 O 0.86241 0.51252 0.45523 0.0
O298 O 0.86365 0.49154 0.57965 0.0
H299 H 0.92508 0.49259 0.70559 0.0
H300 H 0.95832 0.50178 0.69512 0.0
C301 C 0.94045 0.50846 0.69873 0.0
H302 H 0.94054 0.52024 0.75873 0.0
H303 H 0.87102 0.47562 0.77441 0.0
O304 O 0.89141 0.54663 0.32437 0.0
C305 C 0.85557 0.49311 0.50091 0.0
Co306 Co 0.77822 0.65663 0.88753 0.0
Co307 Co 0.75588 0.65266 0.69631 0.0
C308 C 0.80199 0.63185 0.74993 0.0
O309 O 0.80375 0.64039 0.82906 0.0
O310 O 0.78436 0.63494 0.69888 0.0
C311 C 0.78444 0.64569 0.06689 0.0
O312 O 0.78682 0.62414 0.03379 0.0
C313 C 0.76325 0.65575 0.50481 0.0
C314 C 0.72571 0.65574 0.45277 0.0
C315 C 0.74992 0.65583 0.4269 0.0
N316 N 0.7477 0.65545 0.57399 0.0
N317 N 0.72529 0.65563 0.54255 0.0
C318 C 0.79012 0.65446 0.51338 0.0
H319 H 0.79821 0.666 0.57026 0.0
H320 H 0.80046 0.66064 0.45177 0.0
H321 H 0.79213 0.63509 0.52625 0.0
C322 C 0.77565 0.70922 0.85914 0.0
N323 N 0.77363 0.68589 0.8293 0.0
N324 N 0.76373 0.68435 0.74935 0.0
C325 C 0.75906 0.70671 0.72585 0.0
C326 C 0.7664 0.72317 0.79484 0.0
C327 C 0.78419 0.71744 0.95057 0.0
H328 H 0.76977 0.70974 -0.00047 0.0
H329 H 0.80127 0.71025 0.96698 0.0
H330 H 0.7877 0.73785 0.95601 0.0
O331 O 0.74671 0.63298 0.89181 0.0
O332 O 0.7281 0.63202 0.76028 0.0
H333 H 0.72736 0.70002 0.64159 0.0
H334 H 0.74404 0.73138 0.63758 0.0
C335 C 0.74594 0.71171 0.6425 0.0
H336 H 0.75632 0.70668 0.58392 0.0
H337 H 0.70965 0.6551 0.58228 0.0
O338 O 0.78411 0.66367 0.01451 0.0
C339 C 0.72846 0.62531 0.84133 0.0
Co340 Co 0.62242 0.5019 0.96369 0.0
Co341 Co 0.62779 0.52441 0.15516 0.0
C342 C 0.6469 0.47747 0.1014 0.0
O343 O 0.63853 0.47611 0.02194 0.0
O344 O 0.644 0.49507 0.15286 0.0
C345 C 0.6324 0.49417 0.78383 0.0
O346 O 0.65345 0.48997 0.81638 0.0
C347 C 0.62397 0.51695 0.34627 0.0
C348 C 0.62661 0.55469 0.39955 0.0
C349 C 0.62472 0.53021 0.42462 0.0
N350 N 0.62548 0.53276 0.2776 0.0
N351 N 0.62684 0.5553 0.30976 0.0
C352 C 0.62329 0.48978 0.33686 0.0
H353 H 0.61171 0.48263 0.27886 0.0
H354 H 0.616 0.47966 0.39768 0.0
H355 H 0.64232 0.48634 0.32548 0.0
C356 C 0.57009 0.50529 0.99625 0.0
N357 N 0.59367 0.50736 0.02369 0.0
N358 N 0.59582 0.51741 0.10343 0.0
C359 C 0.57359 0.52197 0.12943 0.0
C360 C 0.5566 0.51453 0.06217 0.0
C361 C 0.56108 0.49618 0.90627 0.0
H362 H 0.56847 0.5102 0.85561 0.0
H363 H 0.56809 0.47898 0.89032 0.0
H364 H 0.54061 0.49274 0.90299 0.0
O365 O 0.64644 0.53296 0.9579 0.0
O366 O 0.64971 0.55129 0.09003 0.0
H367 H 0.5812 0.5528 0.21759 0.0
H368 H 0.54947 0.53689 0.22055 0.0
C369 C 0.56902 0.53451 0.21461 0.0
H370 H 0.57377 0.52342 0.27158 0.0
H371 H 0.62852 0.57113 0.27054 0.0
O372 O 0.61486 0.49608 0.83675 0.0
C373 C 0.65558 0.55085 0.00797 0.0
Co374 Co 0.73155 0.38762 0.38603 0.0
Co375 Co 0.75346 0.39019 0.194 0.0
C376 C 0.70761 0.41169 0.24958 0.0
O377 O 0.70545 0.40291 0.32827 0.0
O378 O 0.72545 0.40871 0.19922 0.0
C379 C 0.71056 0.37661 0.57193 0.0
O380 O 0.68761 0.37075 0.54458 0.0
C381 C 0.74127 0.38208 0.00779 0.0
C382 C 0.77738 0.38603 0.94027 0.0
C383 C 0.75214 0.38185 0.92495 0.0
N384 N 0.75913 0.38623 0.06978 0.0
N385 N 0.78073 0.38845 0.02913 0.0
C386 C 0.71426 0.37918 0.02749 0.0
H387 H 0.71014 0.37011 0.09307 0.0
H388 H 0.70314 0.36829 0.97482 0.0
H389 H 0.70893 0.39769 0.02998 0.0
C390 C 0.7342 0.33444 0.35964 0.0
N391 N 0.73604 0.35774 0.32964 0.0
N392 N 0.7455 0.359 0.24894 0.0
C393 C 0.75022 0.33668 0.22549 0.0
C394 C 0.74322 0.32037 0.29486 0.0
C395 C 0.72563 0.32624 0.45083 0.0
H396 H 0.73849 0.33623 0.50085 0.0
H397 H 0.70712 0.33102 0.46209 0.0
H398 H 0.72467 0.30609 0.4595 0.0
O399 O 0.76262 0.41197 0.38204 0.0
O400 O 0.7826 0.40968 0.25534 0.0
H401 H 0.78043 0.34509 0.13457 0.0
H402 H 0.76718 0.3126 0.14039 0.0
C403 C 0.76303 0.3316 0.14143 0.0
H404 H 0.75108 0.33401 0.0838 0.0
H405 H 0.79772 0.39206 0.06177 0.0
O406 O 0.72793 0.38314 0.51676 0.0
C407 C 0.78167 0.41836 0.33378 0.0
Co408 Co 0.12102 0.50491 0.63624 0.0
Co409 Co 0.1268 0.52715 0.44513 0.0
C410 C 0.14504 0.47978 0.49996 0.0
O411 O 0.13617 0.47844 0.57862 0.0
O412 O 0.14306 0.49769 0.44871 0.0
C413 C 0.13143 0.49853 0.81499 0.0
O414 O 0.15275 0.49548 0.7814 0.0
C415 C 0.12413 0.52019 0.25327 0.0
C416 C 0.12487 0.55789 0.20214 0.0
C417 C 0.12418 0.53367 0.1757 0.0
N418 N 0.12484 0.53566 0.32281 0.0
N419 N 0.12516 0.55818 0.29193 0.0
C420 C 0.12466 0.4932 0.26123 0.0
H421 H 0.1438 0.49065 0.27616 0.0
H422 H 0.11251 0.48522 0.31671 0.0
H423 H 0.11877 0.48315 0.19876 0.0
C424 C 0.06893 0.50933 0.60376 0.0
N425 N 0.09245 0.51085 0.57631 0.0
N426 N 0.09474 0.52049 0.49601 0.0
C427 C 0.07266 0.52535 0.46966 0.0
C428 C 0.05564 0.51856 0.53731 0.0
C429 C 0.05976 0.50058 0.69393 0.0
H430 H 0.06732 0.51466 0.74422 0.0
H431 H 0.06646 0.48327 0.71047 0.0
H432 H 0.03929 0.49746 0.69707 0.0
O433 O 0.1458 0.53559 0.64188 0.0
O434 O 0.14808 0.55427 0.51041 0.0
H435 H 0.08007 0.55614 0.38159 0.0
H436 H 0.04865 0.53962 0.37643 0.0
C437 C 0.06828 0.53764 0.38387 0.0
H438 H 0.07361 0.52667 0.32745 0.0
H439 H 0.12599 0.57376 0.33202 0.0
O440 O 0.11343 0.49929 0.76298 0.0
C441 C 0.15437 0.55363 0.59187 0.0
Co442 Co 0.2303 0.39009 0.21319 0.0
Co443 Co 0.25189 0.39295 0.40495 0.0
C444 C 0.2064 0.41476 0.35091 0.0
O445 O 0.2048 0.40653 0.27135 0.0
O446 O 0.22378 0.41117 0.40237 0.0
C447 C 0.2235 0.40105 0.03363 0.0
O448 O 0.22077 0.42255 0.06629 0.0
C449 C 0.24418 0.38949 0.59598 0.0
C450 C 0.28167 0.38956 0.64869 0.0
C451 C 0.25743 0.38949 0.67407 0.0
N452 N 0.25981 0.38973 0.52711 0.0
N453 N 0.28218 0.38954 0.55893 0.0
C454 C 0.21736 0.39086 0.58695 0.0
H455 H 0.20938 0.37969 0.52907 0.0
H456 H 0.20688 0.38432 0.64794 0.0
H457 H 0.21541 0.41033 0.57561 0.0
C458 C 0.23171 0.33712 0.23983 0.0
N459 N 0.23418 0.36043 0.27034 0.0
N460 N 0.24361 0.36149 0.35097 0.0
C461 C 0.24743 0.33884 0.37443 0.0
C462 C 0.24011 0.32269 0.30455 0.0
C463 C 0.22334 0.32927 0.14785 0.0
H464 H 0.23794 0.33699 0.09957 0.0
H465 H 0.20642 0.33672 0.13128 0.0
H466 H 0.21962 0.30888 0.14152 0.0
O467 O 0.26215 0.41344 0.21025 0.0
O468 O 0.28017 0.41328 0.34253 0.0
H469 H 0.27852 0.34448 0.46175 0.0
H470 H 0.26108 0.3134 0.46346 0.0
C471 C 0.25974 0.33323 0.45883 0.0
H472 H 0.24912 0.33839 0.51655 0.0
H473 H 0.29789 0.3901 0.51945 0.0
O474 O 0.22444 0.38328 0.08629 0.0
C475 C 0.28028 0.42054 0.26201 0.0
Co476 Co 0.3891 0.5436 0.14615 0.0
Co477 Co 0.38294 0.52095 0.95528 0.0
C478 C 0.36575 0.56893 0.00878 0.0
O479 O 0.37426 0.57028 0.08792 0.0
O480 O 0.36776 0.55086 0.95847 0.0
C481 C 0.40633 0.55923 0.3359 0.0
O482 O 0.42396 0.57755 0.31449 0.0
C483 C 0.38446 0.52727 0.76273 0.0
C484 C 0.39629 0.49308 0.7167 0.0
C485 C 0.39223 0.51598 0.68821 0.0
N486 N 0.38496 0.51226 0.83299 0.0
N487 N 0.39116 0.49148 0.80446 0.0
C488 C 0.3763 0.55182 0.76656 0.0
H489 H 0.3577 0.54957 0.79722 0.0
H490 H 0.38938 0.5647 0.8081 0.0
H491 H 0.37513 0.5599 0.69946 0.0
C492 C 0.44208 0.53823 0.11252 0.0
N493 N 0.41823 0.53681 0.08757 0.0
N494 N 0.41549 0.52713 0.00695 0.0
C495 C 0.43762 0.52261 0.97844 0.0
C496 C 0.45495 0.5293 0.04453 0.0
C497 C 0.45271 0.54726 0.20029 0.0
H498 H 0.45353 0.56746 0.20352 0.0
H499 H 0.47172 0.54347 0.20907 0.0
H500 H 0.44103 0.53814 0.25468 0.0
O501 O 0.36435 0.51292 0.14985 0.0
O502 O 0.36037 0.49439 0.01872 0.0
H503 H 0.4341 0.4921 0.8892 0.0
H504 H 0.46261 0.51343 0.87773 0.0
C505 C 0.44251 0.51189 0.89021 0.0
H506 H 0.43442 0.52169 0.83655 0.0
H507 H 0.39301 0.47667 0.84558 0.0
O508 O 0.39296 0.54771 0.27553 0.0
C509 C 0.3546 0.49509 0.10068 0.0
Co510 Co 0.27902 0.65774 0.72243 0.0
Co511 Co 0.25598 0.65186 0.91326 0.0
C512 C 0.30318 0.63302 0.86057 0.0
O513 O 0.30481 0.64156 0.78138 0.0
O514 O 0.28531 0.63565 0.91121 0.0
C515 C 0.28694 0.64814 0.54199 0.0
O516 O 0.29118 0.62709 0.57402 0.0
C517 C 0.26357 0.656 0.10423 0.0
C518 C 0.2258 0.65295 0.15804 0.0
C519 C 0.25039 0.65526 0.18279 0.0
N520 N 0.24761 0.65409 0.03578 0.0
N521 N 0.22505 0.65248 0.06827 0.0
C522 C 0.29082 0.65706 0.0944 0.0
H523 H 0.29454 0.63811 0.08376 0.0
H524 H 0.29772 0.66849 0.03582 0.0
H525 H 0.30097 0.66467 0.15479 0.0
C526 C 0.27488 0.70978 0.75565 0.0
N527 N 0.27329 0.68628 0.78301 0.0
N528 N 0.26299 0.68387 0.86232 0.0
C529 C 0.25777 0.70585 0.88807 0.0
C530 C 0.26506 0.72294 0.82115 0.0
C531 C 0.28377 0.71893 0.66561 0.0
H532 H 0.26972 0.71142 0.61514 0.0
H533 H 0.30111 0.7122 0.64923 0.0
H534 H 0.28694 0.73937 0.6626 0.0
O535 O 0.24782 0.63379 0.7153 0.0
O536 O 0.22916 0.63009 0.84685 0.0
H537 H 0.22636 0.6973 0.97329 0.0
H538 H 0.24134 0.72929 0.97741 0.0
C539 C 0.2444 0.70996 0.97194 0.0
H540 H 0.25531 0.70559 0.03002 0.0
H541 H 0.20912 0.6505 0.02928 0.0
O542 O 0.285 0.66555 0.59545 0.0
C543 C 0.22977 0.6245 0.76452 0.0
C544 C 0.41005 0.04831 0.65851 0.0
C545 C 0.38843 0.0536 0.70057 0.0
C546 C 0.36509 0.04172 0.56375 0.0
C547 C 0.38545 0.03229 0.52848 0.0
N548 N 0.42698 0.02452 0.54553 0.0
N549 N 0.34387 0.05034 0.69737 0.0
C550 C 0.40796 0.03515 0.57643 0.0
C551 C 0.36553 0.04923 0.65418 0.0
N552 N 0.43262 0.05634 0.69617 0.0
N553 N 0.34544 0.04396 0.51059 0.0
H554 H 0.34273 0.05423 0.76493 0.0
H555 H 0.32664 0.04473 0.66803 0.0
H556 H 0.34471 0.03931 0.44317 0.0
H557 H 0.33124 0.05297 0.53105 0.0
H558 H 0.44923 0.0549 0.66497 0.0
H559 H 0.43477 0.0668 0.75448 0.0
H560 H 0.44286 0.02378 0.5824 0.0
H561 H 0.42604 0.01468 0.48588 0.0
C562 C 0.26834 0.17869 0.77745 0.0
C563 C 0.26567 0.15639 0.82629 0.0
C564 C 0.28327 0.13639 0.70214 0.0
C565 C 0.28714 0.15904 0.65447 0.0
N566 N 0.28937 0.20309 0.65689 0.0
N567 N 0.27791 0.11678 0.8466 0.0
C568 C 0.28155 0.18065 0.69548 0.0
C569 C 0.27552 0.13613 0.79234 0.0
N570 N 0.25748 0.19764 0.8074 0.0
N571 N 0.28516 0.11474 0.66035 0.0
H572 H 0.27307 0.11622 0.91384 0.0
H573 H 0.2872 0.10268 0.82734 0.0
H574 H 0.28957 0.11348 0.59329 0.0
H575 H 0.27985 0.09756 0.69026 0.0
H576 H 0.25658 0.21334 0.76983 0.0
H577 H 0.24766 0.19683 0.86708 0.0
H578 H 0.28769 0.21974 0.68715 0.0
H579 H 0.29998 0.20511 0.59891 0.0
C580 C 0.10863 0.99294 0.13665 0.0
C581 C 0.12947 1.00221 0.19012 0.0
C582 C 0.14774 0.02777 0.06548 0.0
C583 C 0.12576 0.02067 0.0158 0.0
N584 N 0.08328 1.00018 0.01077 0.0
N585 N 0.16524 0.03426 0.21238 0.0
C586 C 0.10557 0.00432 0.05336 0.0
C587 C 0.14811 0.02122 0.15659 0.0
N588 N 0.09217 0.97281 0.16392 0.0
N589 N 0.16857 0.04021 0.02548 0.0
H590 H 0.16518 0.03166 0.28103 0.0
H591 H 0.17764 0.04979 0.19199 0.0
H592 H 0.16938 0.04488 0.95815 0.0
H593 H 0.18569 0.04358 0.05713 0.0
H594 H 0.07797 0.96384 0.12362 0.0
H595 H 0.09413 0.96359 0.22342 0.0
H596 H 0.06726 0.99042 0.0394 0.0
H597 H 0.08032 0.00834 0.94999 0.0
C598 C 0.26013 0.91409 0.28785 0.0
C599 C 0.25165 0.89267 0.33889 0.0
C600 C 0.22333 0.87644 0.21848 0.0
C601 C 0.23378 0.89663 0.16403 0.0
N602 N 0.26774 0.93051 0.13985 0.0
N603 N 0.22897 0.85106 0.34591 0.0
C604 C 0.25374 0.91437 0.19657 0.0
C605 C 0.23436 0.87308 0.30216 0.0
N606 N 0.27368 0.93452 0.32669 0.0
N607 N 0.20246 0.86092 0.19176 0.0
H608 H 0.2369 0.84785 0.40692 0.0
H609 H 0.21841 0.83536 0.31798 0.0
H610 H 0.1935 0.86314 0.13187 0.0
H611 H 0.19272 0.84735 0.23274 0.0
H612 H 0.27814 0.95136 0.29381 0.0
H613 H 0.27826 0.93544 0.39412 0.0
H614 H 0.28391 0.94206 0.15972 0.0
H615 H 0.26513 0.93036 0.07116 0.0
C616 C 0.59523 0.99998 0.57731 0.0
C617 C 0.6178 0.00465 0.62501 0.0
C618 C 0.63903 0.98804 0.50153 0.0
C619 C 0.61632 0.98278 0.45427 0.0
N620 N 0.57203 0.97813 0.45529 0.0
N621 N 0.65949 0.99747 0.64345 0.0
C622 C 0.59415 0.98705 0.49483 0.0
C623 C 0.63914 0.99679 0.59065 0.0
N624 N 0.57505 0.00844 0.60976 0.0
N625 N 0.66076 0.98632 0.45976 0.0
H626 H 0.66045 0.00415 0.70862 0.0
H627 H 0.67453 0.98937 0.62558 0.0
H628 H 0.66183 0.98032 0.39433 0.0
H629 H 0.67802 0.99281 0.48757 0.0
H630 H 0.55886 0.00811 0.57354 0.0
H631 H 0.57501 0.0173 0.6712 0.0
H632 H 0.555 0.9788 0.48446 0.0
H633 H 0.57079 0.9677 0.39692 0.0
C634 C 0.72534 0.87697 0.41575 0.0
C635 C 0.73591 0.89733 0.46938 0.0
C636 C 0.76231 0.91415 0.34484 0.0
C637 C 0.75376 0.89252 0.29482 0.0
N638 N 0.73086 0.85098 0.28972 0.0
N639 N 0.77006 0.93112 0.4921 0.0
C640 C 0.73636 0.87318 0.3324 0.0
C641 C 0.75595 0.91483 0.43609 0.0
N642 N 0.70434 0.86172 0.44291 0.0
N643 N 0.77592 0.93437 0.30506 0.0
H644 H 0.76752 0.93122 0.56083 0.0
H645 H 0.78625 0.94253 0.47168 0.0
H646 H 0.78048 0.93499 0.23761 0.0
H647 H 0.78045 0.95135 0.33715 0.0
H648 H 0.69454 0.84804 0.40245 0.0
H649 H 0.69535 0.86429 0.50246 0.0
H650 H 0.7202 0.83546 0.31838 0.0
H651 H 0.73877 0.84746 0.22895 0.0
C652 C 0.86115 0.01898 0.05166 0.0
C653 C 0.88324 0.02512 0.10144 0.0
C654 C 0.90174 0.05193 0.98023 0.0
C655 C 0.8807 0.04347 0.92667 0.0
N656 N 0.84356 0.01311 0.90473 0.0
N657 N 0.9263 0.04376 0.10705 0.0
C658 C 0.8612 0.02542 0.96041 0.0
C659 C 0.90409 0.04055 0.06398 0.0
N660 N 0.8399 0.00754 0.09171 0.0
N661 N 0.91909 0.07128 0.95241 0.0
H662 H 0.92875 0.03555 0.1682 0.0
H663 H 0.94268 0.05275 0.07856 0.0
H664 H 0.91771 0.08044 0.89235 0.0
H665 H 0.93356 0.07974 0.99261 0.0
H666 H 0.82279 0.00495 0.05996 0.0
H667 H 0.83883 1.00296 0.15912 0.0
H668 H 0.83047 0.99815 0.92533 0.0
H669 H 0.84369 0.01568 0.83605 0.0
C670 C 0.77984 0.18481 0.82057 0.0
C671 C 0.76903 0.16149 0.78521 0.0
C672 C 0.78343 0.14072 0.91432 0.0
C673 C 0.79135 0.16401 0.95465 0.0
N674 N 0.79906 0.20828 0.94703 0.0
N675 N 0.7608 0.11709 0.79487 0.0
C676 C 0.79048 0.18611 0.90735 0.0
C677 C 0.77108 0.13936 0.83082 0.0
N678 N 0.77993 0.20562 0.77081 0.0
N679 N 0.78836 0.11999 0.95558 0.0
H680 H 0.75299 0.11522 0.73145 0.0
H681 H 0.75896 0.10043 0.82885 0.0
H682 H 0.79782 0.12063 0.01601 0.0
H683 H 0.78512 0.10248 0.9273 0.0
H684 H 0.78949 0.22296 0.78809 0.0
H685 H 0.77138 0.20542 0.70878 0.0
H686 H 0.79627 0.22521 0.92237 0.0
H687 H 0.80884 0.20971 0.00673 0.0
C688 C 0.88006 0.56116 0.11001 0.0
C689 C 0.89752 0.55419 0.17028 0.0
C690 C 0.91127 0.528 0.05475 0.0
C691 C 0.89192 0.53262 -0.0011 0.0
N692 N 0.85569 0.55096 0.97618 0.0
N693 N 0.9276 0.52829 0.20385 0.0
C694 C 0.87583 0.54869 0.02682 0.0
C695 C 0.91253 0.53686 0.14367 0.0
N696 N 0.86716 0.57931 0.13276 0.0
N697 N 0.92894 0.51574 0.02195 0.0
H698 H 0.92987 0.53484 0.26867 0.0
H699 H 0.93646 0.5134 0.19151 0.0
H700 H 0.9287 0.50905 0.95688 0.0
H701 H 0.94505 0.51423 0.05629 0.0
H702 H 0.8564 0.58719 0.08787 0.0
H703 H 0.86846 0.58782 0.19498 0.0
H704 H 0.84173 0.56017 0.99727 0.0
H705 H 0.85173 0.54186 0.9156 0.0
C706 C 0.77667 0.67221 0.29698 0.0
C707 C 0.7589 0.65326 0.33489 0.0
C708 C 0.75607 0.63071 0.1941 0.0
C709 C 0.77633 0.64783 0.16027 0.0
N710 N 0.80862 0.68288 0.18569 0.0
N711 N 0.73589 0.61174 0.32569 0.0
C712 C 0.78742 0.66807 0.21349 0.0
C713 C 0.74986 0.63167 0.28538 0.0
N714 N 0.78275 0.6944 0.3394 0.0
N715 N 0.74161 0.61457 0.13853 0.0
H716 H 0.7314 0.61133 0.3932 0.0
H717 H 0.73097 0.59475 0.29399 0.0
H718 H 0.74407 0.6143 0.06978 0.0
H719 H 0.72527 0.60349 0.15934 0.0
H720 H 0.79371 0.7097 0.31048 0.0
H721 H 0.77507 0.69817 0.40031 0.0
H722 H 0.81876 0.69643 0.22577 0.0
H723 H 0.81739 0.68004 0.12593 0.0
C724 C 0.60991 0.4931 0.63769 0.0
C725 C 0.63085 0.50253 0.69043 0.0
C726 C 0.64878 0.52793 0.56504 0.0
C727 C 0.62666 0.52074 0.51623 0.0
N728 N 0.58425 0.50002 0.51232 0.0
N729 N 0.66664 0.53463 0.71126 0.0
C730 C 0.60661 0.50434 0.55438 0.0
C731 C 0.64939 0.52149 0.65615 0.0
N732 N 0.59357 0.47297 0.66577 0.0
N733 N 0.66947 0.54036 0.52423 0.0
H734 H 0.66675 0.53211 0.77991 0.0
H735 H 0.67895 0.55015 0.69031 0.0
H736 H 0.67008 0.54498 0.45685 0.0
H737 H 0.68668 0.54379 0.55526 0.0
H738 H 0.57929 0.46389 0.62606 0.0
H739 H 0.59571 0.46387 0.72539 0.0
H740 H 0.56832 0.49022 0.54142 0.0
H741 H 0.58113 0.50806 0.45147 0.0
C742 C 0.71686 0.35586 0.71721 0.0
C743 C 0.71683 0.37783 0.66803 0.0
C744 C 0.73917 0.40243 0.78832 0.0
C745 C 0.73954 0.38045 0.83718 0.0
N746 N 0.72599 0.33673 0.8562 0.0
N747 N 0.72271 0.4221 0.6627 0.0
C748 C 0.72743 0.35729 0.80414 0.0
C749 C 0.72646 0.40116 0.70554 0.0
N750 N 0.70771 0.3336 0.67912 0.0
N751 N 0.7513 0.42449 0.82052 0.0
H752 H 0.71304 0.42169 0.60276 0.0
H753 H 0.72711 0.43973 0.6896 0.0
H754 H 0.75945 0.4265 0.88337 0.0
H755 H 0.7545 0.44069 0.7835 0.0
H756 H 0.70998 0.3167 0.70552 0.0
H757 H 0.69838 0.33201 0.61846 0.0
H758 H 0.71519 0.31979 0.84094 0.0
H759 H 0.73459 0.33685 0.9181 0.0
C760 C 0.14757 0.52693 0.94073 0.0
C761 C 0.12984 0.50697 0.90821 0.0
C762 C 0.10634 0.50733 0.0467 0.0
C763 C 0.12591 0.52467 0.08329 0.0
N764 N 0.16772 0.54689 0.0708 0.0
N765 N 0.09422 0.47552 0.93598 0.0
C766 C 0.14731 0.53326 0.03207 0.0
C767 C 0.10969 0.4964 0.96282 0.0
N768 N 0.16367 0.54096 0.88395 0.0
N769 N 0.08433 0.5018 0.0908 0.0
H770 H 0.09644 0.46666 0.87586 0.0
H771 H 0.0807 0.4657 0.97702 0.0
H772 H 0.08112 0.50966 0.15198 0.0
H773 H 0.06864 0.49118 0.06302 0.0
H774 H 0.1752 0.55713 0.90383 0.0
H775 H 0.16353 0.53835 0.81525 0.0
H776 H 0.18458 0.55144 0.03777 0.0
H777 H 0.16865 0.55146 0.13825 0.0
C778 C 0.2202 0.37815 0.88828 0.0
C779 C 0.23121 0.39875 0.93993 0.0
C780 C 0.25721 0.41452 0.81325 0.0
C781 C 0.2484 0.39254 0.76562 0.0
N782 N 0.22484 0.35126 0.76394 0.0
N783 N 0.26553 0.43258 0.95861 0.0
C784 C 0.23083 0.37367 0.80491 0.0
C785 C 0.25116 0.41595 0.90451 0.0
N786 N 0.19921 0.36327 0.91756 0.0
N787 N 0.27084 0.43434 0.77119 0.0
H788 H 0.26322 0.43324 0.02737 0.0
H789 H 0.28168 0.44377 0.93666 0.0
H790 H 0.27522 0.43437 0.70362 0.0
H791 H 0.27556 0.45156 0.80143 0.0
H792 H 0.18911 0.34938 0.8787 0.0
H793 H 0.19054 0.36634 0.97729 0.0
H794 H 0.21407 0.33603 0.79397 0.0
H795 H 0.23239 0.34728 0.70303 0.0
C796 C 0.38823 0.51302 0.52174 0.0
C797 C 0.39728 0.5267 0.59806 0.0
C798 C 0.41101 0.56272 0.50415 0.0
C799 C 0.4047 0.54815 0.42677 0.0
N800 N 0.39716 0.50612 0.36849 0.0
N801 N 0.42571 0.56182 0.65522 0.0
C802 C 0.39623 0.52226 0.43707 0.0
C803 C 0.4114 0.55071 0.5874 0.0
N804 N 0.37158 0.49161 0.52883 0.0
N805 N 0.41542 0.58786 0.50026 0.0
H806 H 0.42781 0.55295 0.7153 0.0
H807 H 0.43759 0.57864 0.64736 0.0
H808 H 0.41322 0.5977 0.44255 0.0
H809 H 0.41826 0.59882 0.55727 0.0
H810 H 0.36319 0.48232 0.47323 0.0
H811 H 0.36407 0.48473 0.58936 0.0
H812 H 0.39246 0.48708 0.37658 0.0
H813 H 0.406 0.51116 0.30828 0.0
C814 C 0.253 0.63152 0.32355 0.0
C815 C 0.26002 0.65354 0.27436 0.0
C816 C 0.28763 0.67064 0.39574 0.0
C817 C 0.27836 0.64974 0.44875 0.0
N818 N 0.24629 0.61401 0.47009 0.0
N819 N 0.28047 0.69599 0.26985 0.0
C820 C 0.25944 0.63112 0.41469 0.0
C821 C 0.27633 0.67372 0.31227 0.0
N822 N 0.24072 0.6107 0.28312 0.0
N823 N 0.30766 0.68715 0.42372 0.0
H824 H 0.27237 0.69894 0.20889 0.0
H825 H 0.29018 0.71199 0.29868 0.0
H826 H 0.31677 0.68519 0.48349 0.0
H827 H 0.31664 0.70142 0.38386 0.0
H828 H 0.23741 0.59358 0.3146 0.0
H829 H 0.23615 0.6099 0.21567 0.0
H830 H 0.23076 0.60166 0.44924 0.0
H831 H 0.24877 0.61413 0.53876 0.0
C832 C 0.3522 0.09553 0.23442 0.0
C833 C 0.35221 0.0895 0.14229 0.0
C834 C 0.3261 0.12047 0.11773 0.0
C835 C 0.32089 0.12133 0.21048 0.0
N836 N 0.32665 0.10406 0.35653 0.0
N837 N 0.33375 0.09391 0.99738 0.0
C838 C 0.33334 0.1074 0.26922 0.0
C839 C 0.33774 0.10136 0.0837 0.0
N840 N 0.37073 0.09084 0.28829 0.0
N841 N 0.32091 0.13845 0.06239 0.0
H842 H 0.3399 0.07869 0.97033 0.0
H843 H 0.32168 0.10123 0.95581 0.0
H844 H 0.31549 0.15429 0.08746 0.0
H845 H 0.32562 0.13927 0.99502 0.0
H846 H 0.3722 0.09619 0.35501 0.0
H847 H 0.38632 0.08512 0.26207 0.0
H848 H 0.33441 0.09237 0.39834 0.0
H849 H 0.31154 0.11023 0.38451 0.0
C850 C 0.19418 0.06228 0.42099 0.0
C851 C 0.17336 0.06928 0.46358 0.0
C852 C 0.18755 0.11217 0.4174 0.0
C853 C 0.20702 0.10462 0.36849 0.0
N854 N 0.22675 0.07212 0.31128 0.0
N855 N 0.14789 0.10004 0.49007 0.0
C856 C 0.20963 0.07952 0.36632 0.0
C857 C 0.16943 0.09404 0.45888 0.0
N858 N 0.19983 0.03942 0.43594 0.0
N859 N 0.18659 0.1367 0.42523 0.0
H860 H 0.13409 0.08731 0.52017 0.0
H861 H 0.14278 0.11714 0.47972 0.0
H862 H 0.19886 0.15038 0.3924 0.0
H863 H 0.17466 0.1436 0.46852 0.0
H864 H 0.21613 0.03414 0.41444 0.0
H865 H 0.18936 0.0264 0.47723 0.0
H866 H 0.22765 0.05369 0.29907 0.0
H867 H 0.23873 0.08435 0.27155 0.0
C868 C 0.19727 0.95379 0.72616 0.0
C869 C 0.18942 0.92794 0.7233 0.0
C870 C 0.15197 0.93367 0.64261 0.0
C871 C 0.1612 0.95939 0.63739 0.0
N872 N 0.19542 0.99302 0.65735 0.0
N873 N 0.16111 0.89269 0.66929 0.0
C874 C 0.18463 0.9692 0.67469 0.0
C875 C 0.16726 0.91767 0.67872 0.0
N876 N 0.21671 0.96366 0.77917 0.0
N877 N 0.1283 0.92463 0.6169 0.0
H878 H 0.17145 0.88052 0.69772 0.0
H879 H 0.14676 0.88417 0.62876 0.0
H880 H 0.11649 0.93574 0.5911 0.0
H881 H 0.11971 0.90649 0.62784 0.0
H882 H 0.22174 0.9825 0.79104 0.0
H883 H 0.2263 0.95288 0.81843 0.0
H884 H 0.21352 1.00036 0.67505 0.0
H885 H 0.18732 0.00473 0.6169 0.0
C886 C 0.31395 0.9829 0.93344 0.0
C887 C 0.33353 0.97562 0.98273 0.0
C888 C 0.31797 0.93238 0.944 0.0
C889 C 0.30004 0.94005 0.8877 0.0
N890 N 0.28324 0.97275 0.81732 0.0
N891 N 0.35681 0.94389 0.02215 0.0
C892 C 0.29881 0.96539 0.87863 0.0
C893 C 0.33622 0.95045 0.98504 0.0
N894 N 0.30906 0.00629 0.94239 0.0
N895 N 0.3174 0.90782 0.95901 0.0
H896 H 0.37086 0.95653 0.05139 0.0
H897 H 0.36105 0.92625 0.01713 0.0
H898 H 0.30512 0.89405 0.92664 0.0
H899 H 0.32801 0.90116 0.00765 0.0
H900 H 0.29359 0.01197 0.91513 0.0
H901 H 0.31904 0.01937 0.98484 0.0
H902 H 0.28335 0.99114 0.8011 0.0
H903 H 0.2717 0.96039 0.77667 0.0
C904 C 0.69814 0.95296 0.91642 0.0
C905 C 0.69092 0.92703 0.91537 0.0
C906 C 0.65282 0.93088 0.99597 0.0
C907 C 0.66123 0.95668 0.00386 0.0
N908 N 0.69457 0.99134 0.98908 0.0
N909 N 0.6633 0.89066 0.96424 0.0
C910 C 0.68468 0.96744 0.96896 0.0
C911 C 0.66879 0.91576 0.95815 0.0
N912 N 0.71767 0.96384 0.86564 0.0
N913 N 0.6293 0.92096 0.02092 0.0
H914 H 0.67415 0.87913 0.93462 0.0
H915 H 0.64897 0.88138 0.00321 0.0
H916 H 0.61719 0.93142 0.04899 0.0
H917 H 0.6212 0.90278 0.00789 0.0
H918 H 0.7223 0.98283 0.8565 0.0
H919 H 0.72777 0.95377 0.82538 0.0
H920 H 0.71261 0.99941 0.97324 0.0
H921 H 0.6857 1.00239 0.02989 0.0
C922 C 0.80047 0.9651 0.75221 0.0
C923 C 0.80264 0.93992 0.74791 0.0
C924 C 0.83949 0.95042 0.65354 0.0
C925 C 0.83584 0.97531 0.65111 0.0
N926 N 0.80936 0.00492 0.68056 0.0
N927 N 0.8219 0.90773 0.68524 0.0
C928 C 0.81534 0.98225 0.69576 0.0
C929 C 0.82146 0.9323 0.69565 0.0
N930 N 0.78428 0.97266 0.81075 0.0
N931 N 0.86062 0.94427 0.61935 0.0
H932 H 0.80969 0.89405 0.71834 0.0
H933 H 0.83331 0.90089 0.63976 0.0
H934 H 0.87427 0.95699 0.58842 0.0
H935 H 0.86554 0.92701 0.62775 0.0
H936 H 0.78365 0.99115 0.82322 0.0
H937 H 0.77312 0.96054 0.85328 0.0
H938 H 0.79335 0.01029 0.70469 0.0
H939 H 0.819 0.01734 0.63531 0.0
C940 C 0.85956 0.1069 0.43109 0.0
C941 C 0.85003 0.0876 0.49083 0.0
C942 C 0.80813 0.09383 0.45813 0.0
C943 C 0.81747 0.1149 0.40579 0.0
N944 N 0.85278 0.14412 0.35572 0.0
N945 N 0.81589 0.06727 0.57882 0.0
C946 C 0.84344 0.12219 0.3955 0.0
C947 C 0.82452 0.08264 0.51024 0.0
N948 N 0.88393 0.1105 0.40801 0.0
N949 N 0.78368 0.08355 0.45419 0.0
H950 H 0.82762 0.05951 0.62038 0.0
H951 H 0.79763 0.06464 0.6006 0.0
H952 H 0.77139 0.08992 0.411 0.0
H953 H 0.77635 0.06693 0.48501 0.0
H954 H 0.89139 0.1223 0.357 0.0
H955 H 0.89638 0.10057 0.43688 0.0
H956 H 0.87155 0.15147 0.35433 0.0
H957 H 0.84168 0.15603 0.33075 0.0
C958 C 0.70406 0.07813 0.27448 0.0
C959 C 0.70357 0.10337 0.25946 0.0
C960 C 0.66762 0.09202 0.16124 0.0
C961 C 0.67021 0.06685 0.16748 0.0
N962 N 0.69475 0.03683 0.21496 0.0
N963 N 0.68664 0.13486 0.1819 0.0
C964 C 0.68946 0.06013 0.22024 0.0
C965 C 0.68587 0.11048 0.20065 0.0
N966 N 0.71845 0.07129 0.34076 0.0
N967 N 0.64721 0.09824 0.12165 0.0
H968 H 0.6988 0.1489 0.21354 0.0
H969 H 0.67622 0.14106 0.13161 0.0
H970 H 0.63317 0.08529 0.09386 0.0
H971 H 0.64309 0.11598 0.12331 0.0
H972 H 0.71775 0.05304 0.36035 0.0
H973 H 0.7291 0.08403 0.38253 0.0
H974 H 0.71013 0.03167 0.24503 0.0
H975 H 0.68546 0.02334 0.17253 0.0
C976 C 0.84169 0.62589 0.67623 0.0
C977 C 0.81899 0.6157 0.7174 0.0
C978 C 0.82316 0.57464 0.66382 0.0
C979 C 0.84696 0.58433 0.62951 0.0
N980 N 0.88079 0.61855 0.61676 0.0
N981 N 0.79047 0.57997 0.76626 0.0
C982 C 0.85678 0.60984 0.63917 0.0
C983 C 0.8105 0.58992 0.71614 0.0
N984 N 0.84855 0.6509 0.67073 0.0
N985 N 0.81213 0.55112 0.64291 0.0
H986 H 0.78098 0.59066 0.80638 0.0
H987 H 0.78482 0.56108 0.77505 0.0
H988 H 0.82031 0.53961 0.60157 0.0
H989 H 0.79385 0.5439 0.65861 0.0
H990 H 0.8634 0.6595 0.63257 0.0
H991 H 0.83836 0.66311 0.69988 0.0
H992 H 0.88972 0.63639 0.6311 0.0
H993 H 0.89247 0.60738 0.59037 0.0
C994 C 0.69007 0.61404 0.93368 0.0
C995 C 0.7083 0.6067 0.87786 0.0
C996 C 0.6944 0.56371 0.92031 0.0
C997 C 0.67443 0.57058 0.96868 0.0
N998 N 0.65076 0.60199 0.00863 0.0
N999 N 0.72507 0.57436 0.80466 0.0
C1000 C 0.6716 0.59571 0.97236 0.0
C1001 C 0.70953 0.58145 0.86678 0.0
N1002 N 0.69054 0.6385 0.95043 0.0
N1003 N 0.69971 0.54048 0.92885 0.0
H1004 H 0.73652 0.58688 0.76436 0.0
H1005 H 0.72487 0.55602 0.78716 0.0
H1006 H 0.68971 0.52711 0.96996 0.0
H1007 H 0.71553 0.53524 0.90246 0.0
H1008 H 0.6796 0.64488 0.9987 0.0
H1009 H 0.70306 0.65243 0.91987 0.0
H1010 H 0.64653 0.61965 0.0047 0.0
H1011 H 0.63658 0.58913 0.03594 0.0
C1012 C 0.68665 0.46921 0.16465 0.0
C1013 C 0.66232 0.45978 0.13472 0.0
C1014 C 0.66749 0.41813 0.18026 0.0
C1015 C 0.69085 0.42808 0.21718 0.0
N1016 N 0.721 0.46347 0.25848 0.0
N1017 N 0.62805 0.42597 0.12556 0.0
C1018 C 0.69991 0.45376 0.21352 0.0
C1019 C 0.65231 0.43438 0.14531 0.0
N1020 N 0.69752 0.49273 0.14313 0.0
N1021 N 0.66013 0.39314 0.17649 0.0
H1022 H 0.61644 0.43729 0.09974 0.0
H1023 H 0.61895 0.40827 0.14091 0.0
H1024 H 0.67048 0.38083 0.20377 0.0
H1025 H 0.64465 0.38461 0.14134 0.0
H1026 H 0.71609 0.49976 0.1545 0.0
H1027 H 0.68867 0.50455 0.1059 0.0
H1028 H 0.72709 0.48233 0.26656 0.0
H1029 H 0.73128 0.45271 0.29495 0.0
C1030 C 0.80671 0.43513 0.46763 0.0
C1031 C 0.803 0.43554 0.37378 0.0
C1032 C 0.83907 0.46844 0.36489 0.0
C1033 C 0.83846 0.47208 0.45887 0.0
N1034 N 0.81605 0.46095 0.59667 0.0
N1035 N 0.81374 0.45761 0.23522 0.0
C1036 C 0.82077 0.45598 0.50986 0.0
C1037 C 0.81867 0.45353 0.3225 0.0
N1038 N 0.79756 0.4147 0.51663 0.0
N1039 N 0.85933 0.47833 0.316 0.0
H1040 H 0.79798 0.44886 0.20229 0.0
H1041 H 0.82392 0.47203 0.19884 0.0
H1042 H 0.87574 0.48715 0.34497 0.0
H1043 H 0.86089 0.47468 0.24826 0.0
H1044 H 0.80126 0.41338 0.58442 0.0
H1045 H 0.78934 0.39807 0.48758 0.0
H1046 H 0.80186 0.45027 0.63278 0.0
H1047 H 0.82378 0.4772 0.62891 0.0
C1048 C 0.18595 0.47032 0.45538 0.0
C1049 C 0.16036 0.46185 0.46831 0.0
C1050 C 0.16452 0.42171 0.40408 0.0
C1051 C 0.18959 0.43117 0.3836 0.0
N1052 N 0.22266 0.46604 0.37235 0.0
N1053 N 0.1243 0.43075 0.4454 0.0
C1054 C 0.19986 0.45595 0.40435 0.0
C1055 C 0.14932 0.43784 0.44015 0.0
N1056 N 0.19712 0.49184 0.49429 0.0
N1057 N 0.15549 0.39723 0.39179 0.0
H1058 H 0.1128 0.44189 0.47335 0.0
H1059 H 0.11481 0.41459 0.41701 0.0
H1060 H 0.16599 0.38509 0.36412 0.0
H1061 H 0.13822 0.38864 0.41438 0.0
H1062 H 0.21615 0.49783 0.4944 0.0
H1063 H 0.18757 0.50241 0.53463 0.0
H1064 H 0.23017 0.48469 0.37803 0.0
H1065 H 0.23295 0.45629 0.33168 0.0
C1066 C 0.31788 0.43185 0.16532 0.0
C1067 C 0.30103 0.43894 0.22763 0.0
C1068 C 0.3171 0.48234 0.197 0.0
C1069 C 0.33571 0.47545 0.14118 0.0
N1070 N 0.35696 0.44329 0.08871 0.0
N1071 N 0.28809 0.47073 0.31714 0.0
C1072 C 0.33696 0.45007 0.12946 0.0
C1073 C 0.30188 0.46412 0.24839 0.0
N1074 N 0.31565 0.40772 0.14016 0.0
N1075 N 0.31289 0.50607 0.19722 0.0
H1076 H 0.27658 0.45792 0.35615 0.0
H1077 H 0.28995 0.48872 0.34101 0.0
H1078 H 0.32262 0.5199 0.15741 0.0
H1079 H 0.29789 0.51145 0.2293 0.0
H1080 H 0.32547 0.40191 0.08724 0.0
H1081 H 0.30281 0.39369 0.16866 0.0
H1082 H 0.35995 0.42515 0.08635 0.0
H1083 H 0.37189 0.45594 0.06516 0.0
C1084 C 0.31037 0.59191 0.9126 0.0
C1085 C 0.32028 0.6169 0.89328 0.0
C1086 C 0.36067 0.61085 0.95074 0.0
C1087 C 0.35011 0.58648 0.97629 0.0
N1088 N 0.31404 0.55504 0.99512 0.0
N1089 N 0.35376 0.65135 0.904 0.0
C1090 C 0.3247 0.57739 0.96097 0.0
C1091 C 0.34519 0.62672 0.91484 0.0
N1092 N 0.28741 0.58176 0.88211 0.0
N1093 N 0.38559 0.61852 0.95808 0.0
H1094 H 0.34305 0.66332 0.87659 0.0
H1095 H 0.37083 0.66022 0.92745 0.0
H1096 H 0.39727 0.60754 0.98579 0.0
H1097 H 0.39488 0.63502 0.93164 0.0
H1098 H 0.28031 0.56297 0.88446 0.0
H1099 H 0.27619 0.5918 0.84708 0.0
H1100 H 0.29508 0.54866 0.99568 0.0
H1101 H 0.32394 0.54371 0.03023 0.0
C1102 C 0.19845 0.57214 0.61722 0.0
C1103 C 0.17323 0.57335 0.62994 0.0
C1104 C 0.1847 0.60908 0.7287 0.0
C1105 C 0.20982 0.60614 0.72346 0.0
N1106 N 0.2396 0.58099 0.67847 0.0
N1107 N 0.14174 0.59053 0.70709 0.0
C1108 C 0.21642 0.58658 0.672 0.0
C1109 C 0.16616 0.59105 0.6888 0.0
N1110 N 0.20533 0.55727 0.55237 0.0
N1111 N 0.17861 0.62966 0.76743 0.0
H1112 H 0.12763 0.57843 0.67561 0.0
H1113 H 0.13559 0.60099 0.75743 0.0
H1114 H 0.19161 0.64364 0.79522 0.0
H1115 H 0.16093 0.63398 0.76484 0.0
H1116 H 0.22364 0.55751 0.53412 0.0
H1117 H 0.19266 0.54646 0.51067 0.0
H1118 H 0.24459 0.56533 0.65003 0.0
H1119 H 0.25323 0.59063 0.7194 0.0
C1120 C 0.49613 0.03553 0.13465 0.0
C1121 C 0.47781 0.02013 0.08406 0.0
C1122 C 0.50891 0.9972 0.02573 0.0
C1123 C 0.52728 0.01283 0.07546 0.0
N1124 N 0.53968 0.04882 0.16702 0.0
N1125 N 0.46534 0.98452 0.99097 0.0
C1126 C 0.52121 0.03242 0.12778 0.0
C1127 C 0.48384 1.00053 0.0317 0.0
N1128 N 0.48937 0.05283 0.19055 0.0
N1129 N 0.51565 0.97957 0.97134 0.0
H1130 H 0.44682 0.98636 0.99433 0.0
H1131 H 0.46781 0.9685 0.95825 0.0
H1132 H 0.53363 0.97597 0.96827 0.0
H1133 H 0.50395 0.96918 0.9258 0.0
H1134 H 0.50107 0.06273 0.23728 0.0
H1135 H 0.4714 0.05639 0.19439 0.0
H1136 H 0.53707 0.06503 0.19809 0.0
H1137 H 0.55826 0.0472 0.1634 0.0
C1138 C 0.22707 0.2774 0.33332 0.0
C1139 C 0.24417 0.29684 0.29507 0.0
C1140 C 0.2679 0.26702 0.23275 0.0
C1141 C 0.25198 0.24778 0.27711 0.0
N1142 N 0.21752 0.2342 0.3749 0.0
N1143 N 0.28248 0.31101 0.21807 0.0
C1144 C 0.23185 0.25285 0.32892 0.0
C1145 C 0.265 0.29189 0.24707 0.0
N1146 N 0.20593 0.28239 0.37163 0.0
N1147 N 0.28562 0.26146 0.17613 0.0
H1148 H 0.28093 0.32947 0.22663 0.0
H1149 H 0.29943 0.30879 0.19154 0.0
H1150 H 0.28883 0.24355 0.16624 0.0
H1151 H 0.29598 0.27426 0.13394 0.0
H1152 H 0.19137 0.26888 0.39218 0.0
H1153 H 0.20209 0.30021 0.37748 0.0
H1154 H 0.20452 0.23701 0.42242 0.0
H1155 H 0.2195 0.21578 0.3692 0.0
C1156 C 0.0234 0.03819 0.51002 0.0
C1157 C 0.02947 0.01801 0.55886 0.0
C1158 C 0.98573 0.00407 0.59489 0.0
C1159 C 0.97989 0.02514 0.55118 0.0
N1160 N 0.99286 0.06376 0.47563 0.0
N1161 N 0.01738 0.98329 0.65636 0.0
C1162 C 0.99865 0.04259 0.51076 0.0
C1163 C 0.01089 1.00139 0.60382 0.0
N1164 N 0.0413 0.05301 0.4622 0.0
N1165 N 0.96712 0.98626 0.6255 0.0
H1166 H 0.03548 0.98017 0.66181 0.0
H1167 H 1.00522 0.97238 0.6992 0.0
H1168 H 0.94851 0.98774 0.62117 0.0
H1169 H 0.96984 0.9692 0.64918 0.0
H1170 H 0.03769 0.06618 0.41678 0.0
H1171 H 0.05986 0.05122 0.46375 0.0
H1172 H 0.00593 0.07857 0.45414 0.0
H1173 H 0.97485 0.06731 0.47322 0.0
C1174 C 0.27764 0.76837 0.8481 0.0
C1175 C 0.26006 0.74853 0.81479 0.0
C1176 C 0.23409 0.77753 0.76185 0.0
C1177 C 0.25085 0.79721 0.8004 0.0
N1178 N 0.28733 0.81175 0.88745 0.0
N1179 N 0.22029 0.73332 0.74954 0.0
C1180 C 0.27229 0.79273 0.84567 0.0
C1181 C 0.23792 0.75286 0.77421 0.0
N1182 N 0.29975 0.76393 0.87986 0.0
N1183 N 0.21477 0.78252 0.71193 0.0
H1184 H 0.22268 0.71503 0.75548 0.0
H1185 H 0.20261 0.73501 0.7289 0.0
H1186 H 0.21096 0.80028 0.7038 0.0
H1187 H 0.20346 0.76942 0.67353 0.0
H1188 H 0.31455 0.77773 0.89588 0.0
H1189 H 0.304 0.74626 0.88483 0.0
H1190 H 0.30156 0.80938 0.93039 0.0
H1191 H 0.28472 0.83001 0.88356 0.0
C1192 C 0.74043 0.75292 0.85319 0.0
C1193 C 0.76149 0.74873 0.80466 0.0
C1194 C 0.77357 0.79315 0.77721 0.0
C1195 C 0.75253 0.79732 0.82583 0.0
N1196 N 0.71748 0.78238 0.9189 0.0
N1197 N 0.7967 0.76368 0.71239 0.0
C1198 C 0.73636 0.77751 0.86622 0.0
C1199 C 0.77771 0.76856 0.76451 0.0
N1200 N 0.72377 0.73322 0.88325 0.0
N1201 N 0.7901 0.81287 0.74654 0.0
H1202 H 0.80073 0.746 0.70417 0.0
H1203 H 0.80776 0.77671 0.67313 0.0
H1204 H 0.78762 0.83109 0.75428 0.0
H1205 H 0.80707 0.81159 0.71819 0.0
H1206 H 0.70675 0.73455 0.91103 0.0
H1207 H 0.72616 0.71498 0.87529 0.0
H1208 H 0.70656 0.76934 0.95855 0.0
H1209 H 0.71348 0.80006 0.92741 0.0
C1210 C 0.77494 0.26587 0.34882 0.0
C1211 C 0.75709 0.24602 0.31725 0.0
C1212 C 0.73088 0.275 0.26618 0.0
C1213 C 0.74794 0.29472 0.30307 0.0
N1214 N 0.78501 0.30931 0.38692 0.0
N1215 N 0.71678 0.2308 0.25626 0.0
C1216 C 0.76964 0.29025 0.34665 0.0
C1217 C 0.73469 0.25034 0.27864 0.0
N1218 N 0.79726 0.26143 0.3785 0.0
N1219 N 0.71127 0.27994 0.21775 0.0
H1220 H 0.71909 0.21249 0.26264 0.0
H1221 H 0.69898 0.23253 0.23729 0.0
H1222 H 0.7074 0.29769 0.20991 0.0
H1223 H 0.69973 0.26678 0.18032 0.0
H1224 H 0.81218 0.27523 0.39322 0.0
H1225 H 0.80154 0.24375 0.38274 0.0
H1226 H 0.7995 0.30697 0.42868 0.0
H1227 H 0.78242 0.32758 0.38316 0.0
C1228 C 0.9863 0.51048 0.49732 0.0
C1229 C 0.98017 0.52977 0.55109 0.0
C1230 C 0.02377 0.54286 0.59016 0.0
C1231 C 0.02965 0.52256 0.54141 0.0
N1232 N 0.0167 0.48523 0.45776 0.0
N1233 N 0.992 0.56248 0.65727 0.0
C1234 C 0.01096 0.5059 0.49721 0.0
C1235 C 0.99862 0.54543 0.6001 0.0
N1236 N 0.96857 0.49669 0.44562 0.0
N1237 N 0.04234 0.5601 0.62444 0.0
H1238 H 0.97387 0.56546 0.6638 0.0
H1239 H 1.00407 0.57254 0.70262 0.0
H1240 H 0.06095 0.55874 0.61903 0.0
H1241 H 0.03956 0.5767 0.65233 0.0
H1242 H 0.97237 0.48446 0.39683 0.0
H1243 H 0.95003 0.49851 0.44728 0.0
H1244 H 1.00359 0.47087 0.4332 0.0
H1245 H 0.03463 0.4815 0.45507 0.0
C1246 C 0.48647 0.50306 0.08326 0.0
C1247 C 0.48097 0.52522 0.04657 0.0
C1248 C 0.52512 0.54092 0.02458 0.0
C1249 C 0.53052 0.51825 0.057 0.0
N1250 N 0.51681 0.47655 0.10663 0.0
N1251 N 0.49411 0.56393 0.97182 0.0
C1252 C 0.51131 0.49896 0.08334 0.0
C1253 C 0.50005 0.54379 0.0142 0.0
N1254 N 0.46797 0.48622 0.11999 0.0
N1255 N 0.54401 0.55985 0.00546 0.0
H1256 H 0.47599 0.56688 0.965 0.0
H1257 H 0.50682 0.57687 0.93795 0.0
H1258 H 0.56256 0.55815 0.00917 0.0
H1259 H 0.54149 0.57773 0.99134 0.0
H1260 H 0.471 0.47111 0.15721 0.0
H1261 H 0.44944 0.4881 0.11814 0.0
H1262 H 0.50358 0.46083 0.1167 0.0
H1263 H 0.53485 0.47314 0.11026 0.0
loop_
_geom_bond_atom_site_label_1
_geom_bond_atom_site_label_2
_geom_bond_distance
_geom_bond_site_symmetry_2
_ccdc_geom_bond_type
Co0 O3 1.970 1_556 S
Co0 N17 1.989 1_556 S
Co0 O25 1.967 . S
Co0 O32 1.920 . S
Co1 O4 1.966 . S
Co1 N10 2.022 . S
Co1 N18 1.993 . S
Co1 O26 1.941 1_545 S
C2 O3 1.258 . S
C2 O4 1.263 . S
O3 Co0 1.970 1_554 S
O3 C2 1.258 . S
O4 Co1 1.966 . S
O4 C2 1.263 . S
C5 O6 1.235 . S
C5 O32 1.289 . S
O6 C5 1.235 . S
C7 C9 1.400 . S
C7 N10 1.351 . S
C7 C12 1.501 . S
C8 C9 1.387 . S
C8 N11 1.341 1_545 S
C9 C7 1.400 . S
C9 C8 1.387 . S
N10 Co1 2.022 . S
N10 C7 1.351 . S
N10 N11 1.365 1_545 S
N11 C8 1.341 1_565 S
N11 N10 1.365 1_565 S
N11 H31 0.862 . S
C12 C7 1.501 . S
C12 H13 0.961 . S
C12 H14 0.961 . S
C12 H15 0.960 . S
H13 C12 0.961 . S
H14 C12 0.961 . S
H15 C12 0.960 . S
C16 N17 1.342 1_556 S
C16 C20 1.401 1_556 S
C16 C21 1.499 . S
N17 Co0 1.989 1_554 S
N17 C16 1.342 1_554 S
N17 N18 1.388 . S
N18 Co1 1.993 . S
N18 N17 1.388 . S
N18 C19 1.346 . S
C19 N18 1.346 . S
C19 C20 1.396 . S
C19 C29 1.510 . S
C20 C16 1.401 1_554 S
C20 C19 1.396 . S
C21 C16 1.499 . S
C21 H22 0.959 . S
C21 H23 0.960 . S
C21 H24 0.961 . S
H22 C21 0.959 . S
H23 C21 0.960 . S
H24 C21 0.961 . S
O25 Co0 1.967 . S
O25 C33 1.258 1_546 S
O26 Co1 1.941 1_565 S
O26 C33 1.266 . S
H27 C29 0.959 . S
H28 C29 0.961 . S
C29 C19 1.510 . S
C29 H27 0.959 . S
C29 H28 0.961 . S
C29 H30 0.960 . S
H30 C29 0.960 . S
H31 N11 0.862 . S
O32 Co0 1.920 . S
O32 C5 1.289 . S
C33 O25 1.258 1_564 S
C33 O26 1.266 . S
Co34 O37 1.970 . S
Co34 N51 1.989 . S
Co34 O59 1.967 . S
Co34 O66 1.920 . S
Co35 O38 1.966 . S
Co35 N44 2.022 . S
Co35 N52 1.993 . S
Co35 O60 1.941 . S
C36 O37 1.258 . S
C36 O38 1.263 . S
O37 Co34 1.970 . S
O37 C36 1.258 . S
O38 Co35 1.966 . S
O38 C36 1.263 . S
C39 O40 1.235 . S
C39 O66 1.289 . S
O40 C39 1.235 . S
C41 C43 1.400 . S
C41 N44 1.351 1_556 S
C41 C46 1.501 1_556 S
C42 C43 1.387 . S
C42 N45 1.341 1_556 S
C43 C41 1.400 . S
C43 C42 1.387 . S
N44 Co35 2.022 . S
N44 C41 1.351 1_554 S
N44 N45 1.365 . S
N45 C42 1.341 1_554 S
N45 N44 1.365 . S
N45 H65 0.862 . S
C46 C41 1.501 1_554 S
C46 H47 0.961 . S
C46 H48 0.960 1_554 S
C46 H49 0.960 1_554 S
H47 C46 0.961 . S
H48 C46 0.960 1_556 S
H49 C46 0.960 1_556 S
C50 N51 1.342 . S
C50 C54 1.401 . S
C50 C55 1.499 . S
N51 Co34 1.989 . S
N51 C50 1.342 . S
N51 N52 1.388 . S
N52 Co35 1.993 . S
N52 N51 1.388 . S
N52 C53 1.346 . S
C53 N52 1.346 . S
C53 C54 1.396 . S
C53 C63 1.510 . S
C54 C50 1.401 . S
C54 C53 1.396 . S
C55 C50 1.499 . S
C55 H56 0.959 . S
C55 H57 0.960 . S
C55 H58 0.961 . S
H56 C55 0.959 . S
H57 C55 0.960 . S
H58 C55 0.961 . S
O59 Co34 1.967 . S
O59 C67 1.258 . S
O60 Co35 1.941 . S
O60 C67 1.266 . S
H61 C63 0.959 . S
H62 C63 0.961 . S
C63 C53 1.510 . S
C63 H61 0.959 . S
C63 H62 0.961 . S
C63 H64 0.960 . S
H64 C63 0.960 . S
H65 N45 0.862 . S
O66 Co34 1.920 . S
O66 C39 1.289 . S
C67 O59 1.258 . S
C67 O60 1.266 . S
Co68 O71 1.970 1_545 S
Co68 N85 1.989 . S
Co68 O93 1.967 . S
Co68 O100 1.922 . S
Co69 O72 1.966 1_545 S
Co69 N78 2.022 . S
Co69 N86 1.993 . S
Co69 O94 1.941 . S
C70 O71 1.258 . S
C70 O72 1.263 . S
O71 Co68 1.970 1_565 S
O71 C70 1.258 . S
O72 Co69 1.966 1_565 S
O72 C70 1.263 . S
C73 O74 1.235 . S
C73 O100 1.258 1_565 S
O74 C73 1.235 . S
C75 C77 1.400 . S
C75 N78 1.351 . S
C75 C80 1.501 1_545 S
C76 C77 1.387 . S
C76 N79 1.341 . S
C77 C75 1.400 . S
C77 C76 1.387 . S
N78 Co69 2.022 . S
N78 C75 1.351 . S
N78 N79 1.365 . S
N79 C76 1.341 . S
N79 N78 1.365 . S
N79 H99 0.862 . S
C80 C75 1.501 1_565 S
C80 H81 0.961 . S
C80 H82 0.961 . S
C80 H83 0.960 . S
H81 C80 0.961 . S
H82 C80 0.961 . S
H83 C80 0.960 . S
C84 N85 1.342 . S
C84 C88 1.401 . S
C84 C89 1.499 . S
N85 Co68 1.989 . S
N85 C84 1.342 . S
N85 N86 1.388 . S
N86 Co69 1.993 . S
N86 N85 1.388 . S
N86 C87 1.346 . S
C87 N86 1.346 . S
C87 C88 1.396 . S
C87 C97 1.510 . S
C88 C84 1.401 . S
C88 C87 1.396 . S
C89 C84 1.499 . S
C89 H90 0.959 . S
C89 H91 0.960 1_545 S
C89 H92 0.961 . S
H90 C89 0.959 . S
H91 C89 0.960 1_565 S
H92 C89 0.961 . S
O93 Co68 1.967 . S
O93 C101 1.258 . S
O94 Co69 1.941 . S
O94 C101 1.266 . S
H95 C97 0.959 . S
H96 C97 0.961 . S
C97 C87 1.510 . S
C97 H95 0.959 . S
C97 H96 0.961 . S
C97 H98 0.960 . S
H98 C97 0.960 . S
H99 N79 0.862 . S
O100 Co68 1.922 . S
O100 C73 1.258 1_545 S
C101 O93 1.258 . S
C101 O94 1.266 . S
Co102 O105 1.970 . S
Co102 N119 1.989 . S
Co102 O127 1.967 . S
Co102 O134 1.920 1_556 S
Co103 O106 1.966 . S
Co103 N112 2.022 . S
Co103 N120 1.993 . S
Co103 O128 1.941 . S
C104 O105 1.258 . S
C104 O106 1.263 . S
O105 Co102 1.970 . S
O105 C104 1.258 . S
O106 Co103 1.966 . S
O106 C104 1.263 . S
C107 O108 1.235 . S
C107 O134 1.289 . S
O108 C107 1.235 . S
C109 C111 1.400 . S
C109 N112 1.351 . S
C109 C114 1.501 . S
C110 C111 1.387 . S
C110 N113 1.341 . S
C111 C109 1.400 . S
C111 C110 1.387 . S
N112 Co103 2.022 . S
N112 C109 1.351 . S
N112 N113 1.365 . S
N113 C110 1.341 . S
N113 N112 1.365 . S
N113 H133 0.862 . S
C114 C109 1.501 . S
C114 H115 0.961 . S
C114 H116 0.961 . S
C114 H117 0.960 . S
H115 C114 0.961 . S
H116 C114 0.961 . S
H117 C114 0.960 . S
C118 N119 1.342 . S
C118 C122 1.401 . S
C118 C123 1.499 . S
N119 Co102 1.989 . S
N119 C118 1.342 . S
N119 N120 1.388 . S
N120 Co103 1.993 . S
N120 N119 1.388 . S
N120 C121 1.346 . S
C121 N120 1.346 . S
C121 C122 1.396 . S
C121 C131 1.510 . S
C122 C118 1.401 . S
C122 C121 1.396 . S
C123 C118 1.499 . S
C123 H124 0.959 1_556 S
C123 H125 0.960 . S
C123 H126 0.961 . S
H124 C123 0.959 1_554 S
H125 C123 0.960 . S
H126 C123 0.961 . S
O127 Co102 1.967 . S
O127 C135 1.258 . S
O128 Co103 1.941 . S
O128 C135 1.266 . S
H129 C131 0.959 . S
H130 C131 0.961 . S
C131 C121 1.510 . S
C131 H129 0.959 . S
C131 H130 0.961 . S
C131 H132 0.960 . S
H132 C131 0.960 . S
H133 N113 0.862 . S
O134 Co102 1.920 1_554 S
O134 C107 1.289 . S
C135 O127 1.258 . S
C135 O128 1.266 . S
Co136 O139 1.970 1_545 S
Co136 N153 1.989 . S
Co136 O161 1.967 . S
Co136 O168 1.922 . S
Co137 O140 1.966 1_545 S
Co137 N146 2.022 . S
Co137 N154 1.993 1_556 S
Co137 O162 1.941 . S
C138 O139 1.258 . S
C138 O140 1.263 1_554 S
O139 Co136 1.970 1_565 S
O139 C138 1.258 . S
O140 Co137 1.966 1_565 S
O140 C138 1.263 1_556 S
C141 O142 1.235 . S
C141 O168 1.257 1_565 S
O142 C141 1.235 . S
C143 C145 1.400 . S
C143 N146 1.351 . S
C143 C148 1.501 1_545 S
C144 C145 1.387 . S
C144 N147 1.341 . S
C145 C143 1.400 . S
C145 C144 1.387 . S
N146 Co137 2.022 . S
N146 C143 1.351 . S
N146 N147 1.365 . S
N147 C144 1.341 . S
N147 N146 1.365 . S
N147 H167 0.862 . S
C148 C143 1.501 1_565 S
C148 H149 0.961 . S
C148 H150 0.961 . S
C148 H151 0.960 . S
H149 C148 0.961 . S
H150 C148 0.961 . S
H151 C148 0.960 . S
C152 N153 1.342 . S
C152 C156 1.401 . S
C152 C157 1.499 . S
N153 Co136 1.989 . S
N153 C152 1.342 . S
N153 N154 1.388 . S
N154 Co137 1.993 1_554 S
N154 N153 1.388 . S
N154 C155 1.346 1_554 S
C155 N154 1.346 1_556 S
C155 C156 1.396 1_556 S
C155 C165 1.510 . S
C156 C152 1.401 . S
C156 C155 1.396 1_554 S
C157 C152 1.499 . S
C157 H158 0.959 . S
C157 H159 0.960 1_545 S
C157 H160 0.961 . S
H158 C157 0.959 . S
H159 C157 0.960 1_565 S
H160 C157 0.961 . S
O161 Co136 1.967 . S
O161 C169 1.258 . S
O162 Co137 1.941 . S
O162 C169 1.266 1_556 S
H163 C165 0.959 . S
H164 C165 0.961 . S
C165 C155 1.510 . S
C165 H163 0.959 . S
C165 H164 0.961 . S
C165 H166 0.960 . S
H166 C165 0.960 . S
H167 N147 0.862 . S
O168 Co136 1.922 . S
O168 C141 1.257 1_545 S
C169 O161 1.258 . S
C169 O162 1.266 1_554 S
Co170 O173 1.970 . S
Co170 N187 1.989 . S
Co170 O195 1.967 . S
Co170 O202 1.920 . S
Co171 O174 1.966 . S
Co171 N180 2.022 1_556 S
Co171 N188 1.993 . S
Co171 O196 1.941 . S
C172 O173 1.258 . S
C172 O174 1.263 . S
O173 Co170 1.970 . S
O173 C172 1.258 . S
O174 Co171 1.966 . S
O174 C172 1.263 . S
C175 O176 1.235 . S
C175 O202 1.289 . S
O176 C175 1.235 . S
C177 C179 1.400 . S
C177 N180 1.351 . S
C177 C182 1.501 . S
C178 C179 1.387 . S
C178 N181 1.341 . S
C179 C177 1.400 . S
C179 C178 1.387 . S
N180 Co171 2.022 1_554 S
N180 C177 1.351 . S
N180 N181 1.365 . S
N181 C178 1.341 . S
N181 N180 1.365 . S
N181 H201 0.862 . S
C182 C177 1.501 . S
C182 H183 0.961 . S
C182 H184 0.961 . S
C182 H185 0.960 . S
H183 C182 0.961 . S
H184 C182 0.961 . S
H185 C182 0.960 . S
C186 N187 1.342 . S
C186 C190 1.401 . S
C186 C191 1.499 . S
N187 Co170 1.989 . S
N187 C186 1.342 . S
N187 N188 1.388 . S
N188 Co171 1.993 . S
N188 N187 1.388 . S
N188 C189 1.346 . S
C189 N188 1.346 . S
C189 C190 1.396 . S
C189 C199 1.510 . S
C190 C186 1.401 . S
C190 C189 1.396 . S
C191 C186 1.499 . S
C191 H192 0.959 . S
C191 H193 0.960 . S
C191 H194 0.961 . S
H192 C191 0.959 . S
H193 C191 0.960 . S
H194 C191 0.961 . S
O195 Co170 1.967 . S
O195 C203 1.258 . S
O196 Co171 1.941 . S
O196 C203 1.266 . S
H197 C199 0.959 . S
H198 C199 0.961 1_554 S
C199 C189 1.510 . S
C199 H197 0.959 . S
C199 H198 0.961 1_556 S
C199 H200 0.960 1_556 S
H200 C199 0.960 1_554 S
H201 N181 0.862 . S
O202 Co170 1.920 . S
O202 C175 1.289 . S
C203 O195 1.258 . S
C203 O196 1.266 . S
Co204 O207 1.970 . S
Co204 N221 1.989 . S
Co204 O229 1.967 . S
Co204 O236 1.920 . S
Co205 O208 1.966 . S
Co205 N214 2.022 . S
Co205 N222 1.993 . S
Co205 O230 1.941 1_545 S
C206 O207 1.258 . S
C206 O208 1.263 . S
O207 Co204 1.970 . S
O207 C206 1.258 . S
O208 Co205 1.966 . S
O208 C206 1.263 . S
C209 O210 1.235 . S
C209 O236 1.289 . S
O210 C209 1.235 . S
C211 C213 1.400 . S
C211 N214 1.351 . S
C211 C216 1.501 . S
C212 C213 1.387 . S
C212 N215 1.341 1_545 S
C213 C211 1.400 . S
C213 C212 1.387 . S
N214 Co205 2.022 . S
N214 C211 1.351 . S
N214 N215 1.365 1_545 S
N215 C212 1.341 1_565 S
N215 N214 1.365 1_565 S
N215 H235 0.862 . S
C216 C211 1.501 . S
C216 H217 0.961 . S
C216 H218 0.961 . S
C216 H219 0.960 . S
H217 C216 0.961 . S
H218 C216 0.961 . S
H219 C216 0.960 . S
C220 N221 1.342 . S
C220 C224 1.401 . S
C220 C225 1.499 . S
N221 Co204 1.989 . S
N221 C220 1.342 . S
N221 N222 1.388 . S
N222 Co205 1.993 . S
N222 N221 1.388 . S
N222 C223 1.346 . S
C223 N222 1.346 . S
C223 C224 1.396 . S
C223 C233 1.510 . S
C224 C220 1.401 . S
C224 C223 1.396 . S
C225 C220 1.499 . S
C225 H226 0.959 . S
C225 H227 0.960 . S
C225 H228 0.961 . S
H226 C225 0.959 . S
H227 C225 0.960 . S
H228 C225 0.961 . S
O229 Co204 1.967 . S
O229 C237 1.258 1_545 S
O230 Co205 1.941 1_565 S
O230 C237 1.266 . S
H231 C233 0.959 . S
H232 C233 0.961 . S
C233 C223 1.510 . S
C233 H231 0.959 . S
C233 H232 0.961 . S
C233 H234 0.960 . S
H234 C233 0.960 . S
H235 N215 0.862 . S
O236 Co204 1.920 . S
O236 C209 1.289 . S
C237 O229 1.258 1_565 S
C237 O230 1.266 . S
Co238 O241 1.970 . S
Co238 N255 1.989 . S
Co238 O263 1.967 . S
Co238 O270 1.920 . S
Co239 O242 1.966 . S
Co239 N248 2.022 . S
Co239 N256 1.993 . S
Co239 O264 1.941 . S
C240 O241 1.258 . S
C240 O242 1.263 . S
O241 Co238 1.970 . S
O241 C240 1.258 . S
O242 Co239 1.966 . S
O242 C240 1.263 . S
C243 O244 1.235 . S
C243 O270 1.289 . S
O244 C243 1.235 . S
C245 C247 1.400 . S
C245 N248 1.351 . S
C245 C250 1.501 . S
C246 C247 1.387 . S
C246 N249 1.341 . S
C247 C245 1.400 . S
C247 C246 1.387 . S
N248 Co239 2.022 . S
N248 C245 1.351 . S
N248 N249 1.365 . S
N249 C246 1.341 . S
N249 N248 1.365 . S
N249 H269 0.862 . S
C250 C245 1.501 . S
C250 H251 0.961 . S
C250 H252 0.961 . S
C250 H253 0.960 . S
H251 C250 0.961 . S
H252 C250 0.961 . S
H253 C250 0.960 . S
C254 N255 1.342 . S
C254 C258 1.401 . S
C254 C259 1.499 . S
N255 Co238 1.989 . S
N255 C254 1.342 . S
N255 N256 1.388 . S
N256 Co239 1.993 . S
N256 N255 1.388 . S
N256 C257 1.346 . S
C257 N256 1.346 . S
C257 C258 1.396 . S
C257 C267 1.510 . S
C258 C254 1.401 . S
C258 C257 1.396 . S
C259 C254 1.499 . S
C259 H260 0.959 . S
C259 H261 0.960 . S
C259 H262 0.961 . S
H260 C259 0.959 . S
H261 C259 0.960 . S
H262 C259 0.961 . S
O263 Co238 1.967 . S
O263 C271 1.258 . S
O264 Co239 1.941 . S
O264 C271 1.266 . S
H265 C267 0.959 . S
H266 C267 0.961 . S
C267 C257 1.510 . S
C267 H265 0.959 . S
C267 H266 0.961 . S
C267 H268 0.960 . S
H268 C267 0.960 . S
H269 N249 0.862 . S
O270 Co238 1.920 . S
O270 C243 1.289 . S
C271 O263 1.258 . S
C271 O264 1.266 . S
Co272 O275 1.970 . S
Co272 N289 1.989 . S
Co272 O297 1.967 . S
Co272 O304 1.920 . S
Co273 O276 1.966 . S
Co273 N282 2.022 . S
Co273 N290 1.993 . S
Co273 O298 1.941 . S
C274 O275 1.258 . S
C274 O276 1.263 . S
O275 Co272 1.970 . S
O275 C274 1.258 . S
O276 Co273 1.966 . S
O276 C274 1.263 . S
C277 O278 1.235 . S
C277 O304 1.289 . S
O278 C277 1.235 . S
C279 C281 1.400 . S
C279 N282 1.351 . S
C279 C284 1.501 . S
C280 C281 1.387 . S
C280 N283 1.341 . S
C281 C279 1.400 . S
C281 C280 1.387 . S
N282 Co273 2.022 . S
N282 C279 1.351 . S
N282 N283 1.365 . S
N283 C280 1.341 . S
N283 N282 1.365 . S
N283 H303 0.862 . S
C284 C279 1.501 . S
C284 H285 0.961 . S
C284 H286 0.961 . S
C284 H287 0.960 . S
H285 C284 0.961 . S
H286 C284 0.961 . S
H287 C284 0.960 . S
C288 N289 1.342 . S
C288 C292 1.401 . S
C288 C293 1.499 . S
N289 Co272 1.989 . S
N289 C288 1.342 . S
N289 N290 1.388 . S
N290 Co273 1.993 . S
N290 N289 1.388 . S
N290 C291 1.346 . S
C291 N290 1.346 . S
C291 C292 1.396 . S
C291 C301 1.510 . S
C292 C288 1.401 . S
C292 C291 1.396 . S
C293 C288 1.499 . S
C293 H294 0.959 . S
C293 H295 0.960 . S
C293 H296 0.961 . S
H294 C293 0.959 . S
H295 C293 0.960 . S
H296 C293 0.961 . S
O297 Co272 1.967 . S
O297 C305 1.258 . S
O298 Co273 1.941 . S
O298 C305 1.266 . S
H299 C301 0.959 . S
H300 C301 0.961 . S
C301 C291 1.510 . S
C301 H299 0.959 . S
C301 H300 0.961 . S
C301 H302 0.960 . S
H302 C301 0.960 . S
H303 N283 0.862 . S
O304 Co272 1.920 . S
O304 C277 1.289 . S
C305 O297 1.258 . S
C305 O298 1.266 . S
Co306 O309 1.970 . S
Co306 N323 1.989 . S
Co306 O331 1.967 . S
Co306 O338 1.920 1_556 S
Co307 O310 1.966 . S
Co307 N316 2.022 . S
Co307 N324 1.993 . S
Co307 O332 1.941 . S
C308 O309 1.258 . S
C308 O310 1.263 . S
O309 Co306 1.970 . S
O309 C308 1.258 . S
O310 Co307 1.966 . S
O310 C308 1.263 . S
C311 O312 1.235 . S
C311 O338 1.289 . S
O312 C311 1.235 . S
C313 C315 1.400 . S
C313 N316 1.351 . S
C313 C318 1.501 . S
C314 C315 1.387 . S
C314 N317 1.341 . S
C315 C313 1.400 . S
C315 C314 1.387 . S
N316 Co307 2.022 . S
N316 C313 1.351 . S
N316 N317 1.365 . S
N317 C314 1.341 . S
N317 N316 1.365 . S
N317 H337 0.862 . S
C318 C313 1.501 . S
C318 H319 0.961 . S
C318 H320 0.961 . S
C318 H321 0.960 . S
H319 C318 0.961 . S
H320 C318 0.961 . S
H321 C318 0.960 . S
C322 N323 1.342 . S
C322 C326 1.401 . S
C322 C327 1.499 . S
N323 Co306 1.989 . S
N323 C322 1.342 . S
N323 N324 1.388 . S
N324 Co307 1.993 . S
N324 N323 1.388 . S
N324 C325 1.346 . S
C325 N324 1.346 . S
C325 C326 1.396 . S
C325 C335 1.510 . S
C326 C322 1.401 . S
C326 C325 1.396 . S
C327 C322 1.499 . S
C327 H328 0.959 1_556 S
C327 H329 0.960 . S
C327 H330 0.961 . S
H328 C327 0.959 1_554 S
H329 C327 0.960 . S
H330 C327 0.961 . S
O331 Co306 1.967 . S
O331 C339 1.258 . S
O332 Co307 1.941 . S
O332 C339 1.266 . S
H333 C335 0.959 . S
H334 C335 0.961 . S
C335 C325 1.510 . S
C335 H333 0.959 . S
C335 H334 0.961 . S
C335 H336 0.960 . S
H336 C335 0.960 . S
H337 N317 0.862 . S
O338 Co306 1.920 1_554 S
O338 C311 1.289 . S
C339 O331 1.258 . S
C339 O332 1.266 . S
Co340 O343 1.970 1_556 S
Co340 N357 1.989 1_556 S
Co340 O365 1.967 . S
Co340 O372 1.920 . S
Co341 O344 1.966 . S
Co341 N350 2.022 . S
Co341 N358 1.993 . S
Co341 O366 1.941 . S
C342 O343 1.258 . S
C342 O344 1.263 . S
O343 Co340 1.970 1_554 S
O343 C342 1.258 . S
O344 Co341 1.966 . S
O344 C342 1.263 . S
C345 O346 1.235 . S
C345 O372 1.289 . S
O346 C345 1.235 . S
C347 C349 1.400 . S
C347 N350 1.351 . S
C347 C352 1.501 . S
C348 C349 1.387 . S
C348 N351 1.341 . S
C349 C347 1.400 . S
C349 C348 1.387 . S
N350 Co341 2.022 . S
N350 C347 1.351 . S
N350 N351 1.365 . S
N351 C348 1.341 . S
N351 N350 1.365 . S
N351 H371 0.862 . S
C352 C347 1.501 . S
C352 H353 0.961 . S
C352 H354 0.961 . S
C352 H355 0.960 . S
H353 C352 0.961 . S
H354 C352 0.961 . S
H355 C352 0.960 . S
C356 N357 1.342 1_556 S
C356 C360 1.401 1_556 S
C356 C361 1.499 . S
N357 Co340 1.989 1_554 S
N357 C356 1.342 1_554 S
N357 N358 1.388 . S
N358 Co341 1.993 . S
N358 N357 1.388 . S
N358 C359 1.346 . S
C359 N358 1.346 . S
C359 C360 1.396 . S
C359 C369 1.510 . S
C360 C356 1.401 1_554 S
C360 C359 1.396 . S
C361 C356 1.499 . S
C361 H362 0.959 . S
C361 H363 0.960 . S
C361 H364 0.961 . S
H362 C361 0.959 . S
H363 C361 0.960 . S
H364 C361 0.961 . S
O365 Co340 1.967 . S
O365 C373 1.258 1_556 S
O366 Co341 1.941 . S
O366 C373 1.266 . S
H367 C369 0.959 . S
H368 C369 0.961 . S
C369 C359 1.510 . S
C369 H367 0.959 . S
C369 H368 0.961 . S
C369 H370 0.960 . S
H370 C369 0.960 . S
H371 N351 0.862 . S
O372 Co340 1.920 . S
O372 C345 1.289 . S
C373 O365 1.258 1_554 S
C373 O366 1.266 . S
Co374 O377 1.970 . S
Co374 N391 1.989 . S
Co374 O399 1.967 . S
Co374 O406 1.920 . S
Co375 O378 1.966 . S
Co375 N384 2.022 . S
Co375 N392 1.993 . S
Co375 O400 1.941 . S
C376 O377 1.258 . S
C376 O378 1.263 . S
O377 Co374 1.970 . S
O377 C376 1.258 . S
O378 Co375 1.966 . S
O378 C376 1.263 . S
C379 O380 1.235 . S
C379 O406 1.289 . S
O380 C379 1.235 . S
C381 C383 1.400 . S
C381 N384 1.351 1_556 S
C381 C386 1.501 1_556 S
C382 C383 1.387 . S
C382 N385 1.341 1_556 S
C383 C381 1.400 . S
C383 C382 1.387 . S
N384 Co375 2.022 . S
N384 C381 1.351 1_554 S
N384 N385 1.365 . S
N385 C382 1.341 1_554 S
N385 N384 1.365 . S
N385 H405 0.862 . S
C386 C381 1.501 1_554 S
C386 H387 0.961 . S
C386 H388 0.960 1_554 S
C386 H389 0.960 1_554 S
H387 C386 0.961 . S
H388 C386 0.960 1_556 S
H389 C386 0.960 1_556 S
C390 N391 1.342 . S
C390 C394 1.401 . S
C390 C395 1.499 . S
N391 Co374 1.989 . S
N391 C390 1.342 . S
N391 N392 1.388 . S
N392 Co375 1.993 . S
N392 N391 1.388 . S
N392 C393 1.346 . S
C393 N392 1.346 . S
C393 C394 1.396 . S
C393 C403 1.510 . S
C394 C390 1.401 . S
C394 C393 1.396 . S
C395 C390 1.499 . S
C395 H396 0.959 . S
C395 H397 0.960 . S
C395 H398 0.961 . S
H396 C395 0.959 . S
H397 C395 0.960 . S
H398 C395 0.961 . S
O399 Co374 1.967 . S
O399 C407 1.258 . S
O400 Co375 1.941 . S
O400 C407 1.266 . S
H401 C403 0.959 . S
H402 C403 0.961 . S
C403 C393 1.510 . S
C403 H401 0.959 . S
C403 H402 0.961 . S
C403 H404 0.960 . S
H404 C403 0.960 . S
H405 N385 0.862 . S
O406 Co374 1.920 . S
O406 C379 1.289 . S
C407 O399 1.258 . S
C407 O400 1.266 . S
Co408 O411 1.970 . S
Co408 N425 1.989 . S
Co408 O433 1.967 . S
Co408 O440 1.920 . S
Co409 O412 1.966 . S
Co409 N418 2.022 . S
Co409 N426 1.993 . S
Co409 O434 1.941 . S
C410 O411 1.258 . S
C410 O412 1.263 . S
O411 Co408 1.970 . S
O411 C410 1.258 . S
O412 Co409 1.966 . S
O412 C410 1.263 . S
C413 O414 1.235 . S
C413 O440 1.289 . S
O414 C413 1.235 . S
C415 C417 1.400 . S
C415 N418 1.351 . S
C415 C420 1.501 . S
C416 C417 1.387 . S
C416 N419 1.341 . S
C417 C415 1.400 . S
C417 C416 1.387 . S
N418 Co409 2.022 . S
N418 C415 1.351 . S
N418 N419 1.365 . S
N419 C416 1.341 . S
N419 N418 1.365 . S
N419 H439 0.862 . S
C420 C415 1.501 . S
C420 H421 0.961 . S
C420 H422 0.961 . S
C420 H423 0.960 . S
H421 C420 0.961 . S
H422 C420 0.961 . S
H423 C420 0.960 . S
C424 N425 1.342 . S
C424 C428 1.401 . S
C424 C429 1.499 . S
N425 Co408 1.989 . S
N425 C424 1.342 . S
N425 N426 1.388 . S
N426 Co409 1.993 . S
N426 N425 1.388 . S
N426 C427 1.346 . S
C427 N426 1.346 . S
C427 C428 1.396 . S
C427 C437 1.510 . S
C428 C424 1.401 . S
C428 C427 1.396 . S
C429 C424 1.499 . S
C429 H430 0.959 . S
C429 H431 0.960 . S
C429 H432 0.961 . S
H430 C429 0.959 . S
H431 C429 0.960 . S
H432 C429 0.961 . S
O433 Co408 1.967 . S
O433 C441 1.258 . S
O434 Co409 1.941 . S
O434 C441 1.266 . S
H435 C437 0.959 . S
H436 C437 0.961 . S
C437 C427 1.510 . S
C437 H435 0.959 . S
C437 H436 0.961 . S
C437 H438 0.960 . S
H438 C437 0.960 . S
H439 N419 0.862 . S
O440 Co408 1.920 . S
O440 C413 1.289 . S
C441 O433 1.258 . S
C441 O434 1.266 . S
Co442 O445 1.970 . S
Co442 N459 1.989 . S
Co442 O467 1.967 . S
Co442 O474 1.920 . S
Co443 O446 1.966 . S
Co443 N452 2.022 . S
Co443 N460 1.993 . S
Co443 O468 1.941 . S
C444 O445 1.258 . S
C444 O446 1.263 . S
O445 Co442 1.970 . S
O445 C444 1.258 . S
O446 Co443 1.966 . S
O446 C444 1.263 . S
C447 O448 1.235 . S
C447 O474 1.289 . S
O448 C447 1.235 . S
C449 C451 1.400 . S
C449 N452 1.351 . S
C449 C454 1.501 . S
C450 C451 1.387 . S
C450 N453 1.341 . S
C451 C449 1.400 . S
C451 C450 1.387 . S
N452 Co443 2.022 . S
N452 C449 1.351 . S
N452 N453 1.365 . S
N453 C450 1.341 . S
N453 N452 1.365 . S
N453 H473 0.862 . S
C454 C449 1.501 . S
C454 H455 0.961 . S
C454 H456 0.961 . S
C454 H457 0.960 . S
H455 C454 0.961 . S
H456 C454 0.961 . S
H457 C454 0.960 . S
C458 N459 1.342 . S
C458 C462 1.401 . S
C458 C463 1.499 . S
N459 Co442 1.989 . S
N459 C458 1.342 . S
N459 N460 1.388 . S
N460 Co443 1.993 . S
N460 N459 1.388 . S
N460 C461 1.346 . S
C461 N460 1.346 . S
C461 C462 1.396 . S
C461 C471 1.510 . S
C462 C458 1.401 . S
C462 C461 1.396 . S
C463 C458 1.499 . S
C463 H464 0.959 . S
C463 H465 0.960 . S
C463 H466 0.961 . S
H464 C463 0.959 . S
H465 C463 0.960 . S
H466 C463 0.961 . S
O467 Co442 1.967 . S
O467 C475 1.258 . S
O468 Co443 1.941 . S
O468 C475 1.266 . S
H469 C471 0.959 . S
H470 C471 0.961 . S
C471 C461 1.510 . S
C471 H469 0.959 . S
C471 H470 0.961 . S
C471 H472 0.960 . S
H472 C471 0.960 . S
H473 N453 0.862 . S
O474 Co442 1.920 . S
O474 C447 1.289 . S
C475 O467 1.258 . S
C475 O468 1.266 . S
Co476 O479 1.970 . S
Co476 N493 1.989 . S
Co476 O501 1.967 . S
Co476 O508 1.920 . S
Co477 O480 1.966 . S
Co477 N486 2.022 . S
Co477 N494 1.993 1_556 S
Co477 O502 1.941 . S
C478 O479 1.258 . S
C478 O480 1.263 1_554 S
O479 Co476 1.970 . S
O479 C478 1.258 . S
O480 Co477 1.966 . S
O480 C478 1.263 1_556 S
C481 O482 1.235 . S
C481 O508 1.289 . S
O482 C481 1.235 . S
C483 C485 1.400 . S
C483 N486 1.351 . S
C483 C488 1.501 . S
C484 C485 1.387 . S
C484 N487 1.341 . S
C485 C483 1.400 . S
C485 C484 1.387 . S
N486 Co477 2.022 . S
N486 C483 1.351 . S
N486 N487 1.365 . S
N487 C484 1.341 . S
N487 N486 1.365 . S
N487 H507 0.862 . S
C488 C483 1.501 . S
C488 H489 0.961 . S
C488 H490 0.961 . S
C488 H491 0.960 . S
H489 C488 0.961 . S
H490 C488 0.961 . S
H491 C488 0.960 . S
C492 N493 1.342 . S
C492 C496 1.401 . S
C492 C497 1.499 . S
N493 Co476 1.989 . S
N493 C492 1.342 . S
N493 N494 1.388 . S
N494 Co477 1.993 1_554 S
N494 N493 1.388 . S
N494 C495 1.346 1_554 S
C495 N494 1.346 1_556 S
C495 C496 1.396 1_556 S
C495 C505 1.510 . S
C496 C492 1.401 . S
C496 C495 1.396 1_554 S
C497 C492 1.499 . S
C497 H498 0.959 . S
C497 H499 0.960 . S
C497 H500 0.961 . S
H498 C497 0.959 . S
H499 C497 0.960 . S
H500 C497 0.961 . S
O501 Co476 1.967 . S
O501 C509 1.258 . S
O502 Co477 1.941 . S
O502 C509 1.266 1_556 S
H503 C505 0.959 . S
H504 C505 0.961 . S
C505 C495 1.510 . S
C505 H503 0.959 . S
C505 H504 0.961 . S
C505 H506 0.960 . S
H506 C505 0.960 . S
H507 N487 0.862 . S
O508 Co476 1.920 . S
O508 C481 1.289 . S
C509 O501 1.258 . S
C509 O502 1.266 1_554 S
Co510 O513 1.970 . S
Co510 N527 1.989 . S
Co510 O535 1.967 . S
Co510 O542 1.920 . S
Co511 O514 1.966 . S
Co511 N520 2.022 1_556 S
Co511 N528 1.993 . S
Co511 O536 1.941 . S
C512 O513 1.258 . S
C512 O514 1.263 . S
O513 Co510 1.970 . S
O513 C512 1.258 . S
O514 Co511 1.966 . S
O514 C512 1.263 . S
C515 O516 1.235 . S
C515 O542 1.289 . S
O516 C515 1.235 . S
C517 C519 1.400 . S
C517 N520 1.351 . S
C517 C522 1.501 . S
C518 C519 1.387 . S
C518 N521 1.341 . S
C519 C517 1.400 . S
C519 C518 1.387 . S
N520 Co511 2.022 1_554 S
N520 C517 1.351 . S
N520 N521 1.365 . S
N521 C518 1.341 . S
N521 N520 1.365 . S
N521 H541 0.862 . S
C522 C517 1.501 . S
C522 H523 0.961 . S
C522 H524 0.961 . S
C522 H525 0.960 . S
H523 C522 0.961 . S
H524 C522 0.961 . S
H525 C522 0.960 . S
C526 N527 1.342 . S
C526 C530 1.401 . S
C526 C531 1.499 . S
N527 Co510 1.989 . S
N527 C526 1.342 . S
N527 N528 1.388 . S
N528 Co511 1.993 . S
N528 N527 1.388 . S
N528 C529 1.346 . S
C529 N528 1.346 . S
C529 C530 1.396 . S
C529 C539 1.510 . S
C530 C526 1.401 . S
C530 C529 1.396 . S
C531 C526 1.499 . S
C531 H532 0.959 . S
C531 H533 0.960 . S
C531 H534 0.961 . S
H532 C531 0.959 . S
H533 C531 0.960 . S
H534 C531 0.961 . S
O535 Co510 1.967 . S
O535 C543 1.258 . S
O536 Co511 1.941 . S
O536 C543 1.266 . S
H537 C539 0.959 . S
H538 C539 0.961 1_554 S
C539 C529 1.510 . S
C539 H537 0.959 . S
C539 H538 0.961 1_556 S
C539 H540 0.960 1_556 S
H540 C539 0.960 1_554 S
H541 N521 0.862 . S
O542 Co510 1.920 . S
O542 C515 1.289 . S
C543 O535 1.258 . S
C543 O536 1.266 . S
C544 C545 1.363 . S
C544 C550 1.379 . S
C544 N552 1.356 . S
C545 C544 1.363 . S
C545 C551 1.363 . S
C546 C547 1.363 . S
C546 C551 1.379 . S
C546 N553 1.356 . S
C547 C546 1.363 . S
C547 C550 1.363 . S
N548 C550 1.356 . S
N548 H560 0.991 . S
N548 H561 0.985 . S
N549 C551 1.356 . S
N549 H554 0.984 . S
N549 H555 0.985 . S
C550 C544 1.379 . S
C550 C547 1.363 . S
C550 N548 1.356 . S
C551 C545 1.363 . S
C551 C546 1.379 . S
C551 N549 1.356 . S
N552 C544 1.356 . S
N552 H558 0.984 . S
N552 H559 0.984 . S
N553 C546 1.356 . S
N553 H556 0.984 . S
N553 H557 0.985 . S
H554 N549 0.984 . S
H555 N549 0.985 . S
H556 N553 0.984 . S
H557 N553 0.985 . S
H558 N552 0.984 . S
H559 N552 0.984 . S
H560 N548 0.991 . S
H561 N548 0.985 . S
C562 C563 1.363 . S
C562 C568 1.379 . S
C562 N570 1.356 . S
C563 C562 1.363 . S
C563 C569 1.363 . S
C564 C565 1.363 . S
C564 C569 1.379 . S
C564 N571 1.356 . S
C565 C564 1.363 . S
C565 C568 1.363 . S
N566 C568 1.356 . S
N566 H578 0.984 . S
N566 H579 0.985 . S
N567 C569 1.356 . S
N567 H572 0.984 . S
N567 H573 0.985 . S
C568 C562 1.379 . S
C568 C565 1.363 . S
C568 N566 1.356 . S
C569 C563 1.363 . S
C569 C564 1.379 . S
C569 N567 1.356 . S
N570 C562 1.356 . S
N570 H576 0.984 . S
N570 H577 0.984 . S
N571 C564 1.356 . S
N571 H574 0.984 . S
N571 H575 0.985 . S
H572 N567 0.984 . S
H573 N567 0.985 . S
H574 N571 0.984 . S
H575 N571 0.985 . S
H576 N570 0.984 . S
H577 N570 0.984 . S
H578 N566 0.984 . S
H579 N566 0.985 . S
C580 C581 1.363 1_545 S
C580 C586 1.379 . S
C580 N588 1.356 . S
C581 C580 1.363 1_565 S
C581 C587 1.363 . S
C582 C583 1.363 1_565 S
C582 C587 1.379 . S
C582 N589 1.356 1_554 S
C583 C582 1.363 1_545 S
C583 C586 1.363 . S
N584 C586 1.356 . S
N584 H596 0.984 . S
N584 H597 0.985 1_554 S
N585 C587 1.356 . S
N585 H590 0.984 . S
N585 H591 0.985 . S
C586 C580 1.379 . S
C586 C583 1.363 . S
C586 N584 1.356 . S
C587 C581 1.363 . S
C587 C582 1.379 . S
C587 N585 1.356 . S
N588 C580 1.356 . S
N588 H594 0.984 . S
N588 H595 0.984 1_545 S
N589 C582 1.356 1_556 S
N589 H592 0.984 . S
N589 H593 0.985 . S
H590 N585 0.984 . S
H591 N585 0.985 . S
H592 N589 0.984 . S
H593 N589 0.985 . S
H594 N588 0.984 . S
H595 N588 0.984 1_565 S
H596 N584 0.984 . S
H597 N584 0.985 1_556 S
C598 C599 1.363 . S
C598 C604 1.379 . S
C598 N606 1.356 . S
C599 C598 1.363 . S
C599 C605 1.363 . S
C600 C601 1.363 . S
C600 C605 1.379 . S
C600 N607 1.356 . S
C601 C600 1.363 . S
C601 C604 1.363 . S
N602 C604 1.356 . S
N602 H614 0.984 . S
N602 H615 0.985 . S
N603 C605 1.356 . S
N603 H608 0.984 . S
N603 H609 0.985 . S
C604 C598 1.379 . S
C604 C601 1.363 . S
C604 N602 1.356 . S
C605 C599 1.363 . S
C605 C600 1.379 . S
C605 N603 1.356 . S
N606 C598 1.356 . S
N606 H612 0.984 . S
N606 H613 0.984 . S
N607 C600 1.356 . S
N607 H610 0.984 . S
N607 H611 0.985 . S
H608 N603 0.984 . S
H609 N603 0.985 . S
H610 N607 0.984 . S
H611 N607 0.985 . S
H612 N606 0.984 . S
H613 N606 0.984 . S
H614 N602 0.984 . S
H615 N602 0.985 . S
C616 C617 1.363 . S
C616 C622 1.379 . S
C616 N624 1.356 . S
C617 C616 1.363 . S
C617 C623 1.363 1_545 S
C618 C619 1.363 . S
C618 C623 1.379 . S
C618 N625 1.356 . S
C619 C618 1.363 . S
C619 C622 1.363 1_565 S
N620 C622 1.356 . S
N620 H632 0.984 . S
N620 H633 1.010 . S
N621 C623 1.356 . S
N621 H626 0.984 . S
N621 H627 0.985 . S
C622 C616 1.379 . S
C622 C619 1.363 1_545 S
C622 N620 1.356 . S
C623 C617 1.363 1_565 S
C623 C618 1.379 . S
C623 N621 1.356 . S
N624 C616 1.356 . S
N624 H630 0.984 . S
N624 H631 0.984 . S
N625 C618 1.356 . S
N625 H628 0.984 . S
N625 H629 0.985 . S
H626 N621 0.984 . S
H627 N621 0.985 . S
H628 N625 0.984 . S
H629 N625 0.985 . S
H630 N624 0.984 . S
H631 N624 0.984 . S
H632 N620 0.984 . S
H633 N620 1.010 . S
C634 C635 1.363 . S
C634 C640 1.379 . S
C634 N642 1.356 . S
C635 C634 1.363 . S
C635 C641 1.363 . S
C636 C637 1.363 . S
C636 C641 1.379 . S
C636 N643 1.356 . S
C637 C636 1.363 . S
C637 C640 1.363 . S
N638 C640 1.356 . S
N638 H650 0.984 . S
N638 H651 0.985 . S
N639 C641 1.356 . S
N639 H644 0.984 . S
N639 H645 0.985 . S
C640 C634 1.379 . S
C640 C637 1.363 . S
C640 N638 1.356 . S
C641 C635 1.363 . S
C641 C636 1.379 . S
C641 N639 1.356 . S
N642 C634 1.356 . S
N642 H648 0.984 . S
N642 H649 0.984 . S
N643 C636 1.356 . S
N643 H646 0.984 . S
N643 H647 0.985 . S
H644 N639 0.984 . S
H645 N639 0.985 . S
H646 N643 0.984 . S
H647 N643 0.985 . S
H648 N642 0.984 . S
H649 N642 0.984 . S
H650 N638 0.984 . S
H651 N638 0.985 . S
C652 C653 1.363 . S
C652 C658 1.379 1_554 S
C652 N660 1.356 . S
C653 C652 1.363 . S
C653 C659 1.363 . S
C654 C655 1.363 . S
C654 C659 1.379 1_556 S
C654 N661 1.356 . S
C655 C654 1.363 . S
C655 C658 1.363 . S
N656 C658 1.356 . S
N656 H668 0.984 . S
N656 H669 0.985 . S
N657 C659 1.356 . S
N657 H662 0.984 . S
N657 H663 0.985 . S
C658 C652 1.379 1_556 S
C658 C655 1.363 . S
C658 N656 1.356 . S
C659 C653 1.363 . S
C659 C654 1.379 1_554 S
C659 N657 1.356 . S
N660 C652 1.356 . S
N660 H666 0.984 . S
N660 H667 0.984 . S
N661 C654 1.356 . S
N661 H664 0.984 . S
N661 H665 0.985 . S
H662 N657 0.984 . S
H663 N657 0.985 . S
H664 N661 0.984 . S
H665 N661 0.985 . S
H666 N660 0.984 . S
H667 N660 0.984 . S
H668 N656 0.984 . S
H669 N656 0.985 . S
C670 C671 1.363 . S
C670 C676 1.379 . S
C670 N678 1.356 . S
C671 C670 1.363 . S
C671 C677 1.363 . S
C672 C673 1.363 . S
C672 C677 1.379 . S
C672 N679 1.356 . S
C673 C672 1.363 . S
C673 C676 1.363 . S
N674 C676 1.356 . S
N674 H686 0.984 . S
N674 H687 0.985 1_556 S
N675 C677 1.356 . S
N675 H680 0.984 . S
N675 H681 0.985 . S
C676 C670 1.379 . S
C676 C673 1.363 . S
C676 N674 1.356 . S
C677 C671 1.363 . S
C677 C672 1.379 . S
C677 N675 1.356 . S
N678 C670 1.356 . S
N678 H684 0.984 . S
N678 H685 0.984 . S
N679 C672 1.356 . S
N679 H682 0.984 1_556 S
N679 H683 0.985 . S
H680 N675 0.984 . S
H681 N675 0.985 . S
H682 N679 0.984 1_554 S
H683 N679 0.985 . S
H684 N678 0.984 . S
H685 N678 0.984 . S
H686 N674 0.984 . S
H687 N674 0.985 1_554 S
C688 C689 1.363 . S
C688 C694 1.379 . S
C688 N696 1.356 . S
C689 C688 1.363 . S
C689 C695 1.363 . S
C690 C691 1.363 . S
C690 C695 1.379 . S
C690 N697 1.356 . S
C691 C690 1.363 . S
C691 C694 1.363 . S
N692 C694 1.356 1_556 S
N692 H704 0.984 . S
N692 H705 0.985 . S
N693 C695 1.356 . S
N693 H698 0.984 . S
N693 H699 0.985 . S
C694 C688 1.379 . S
C694 C691 1.363 . S
C694 N692 1.356 1_554 S
C695 C689 1.363 . S
C695 C690 1.379 . S
C695 N693 1.356 . S
N696 C688 1.356 . S
N696 H702 0.984 . S
N696 H703 0.984 . S
N697 C690 1.356 . S
N697 H700 0.984 1_554 S
N697 H701 0.985 . S
H698 N693 0.984 . S
H699 N693 0.985 . S
H700 N697 0.984 1_556 S
H701 N697 0.985 . S
H702 N696 0.984 . S
H703 N696 0.984 . S
H704 N692 0.984 . S
H705 N692 0.985 . S
C706 C707 1.363 . S
C706 C712 1.379 . S
C706 N714 1.356 . S
C707 C706 1.363 . S
C707 C713 1.363 . S
C708 C709 1.363 . S
C708 C713 1.379 . S
C708 N715 1.356 . S
C709 C708 1.363 . S
C709 C712 1.363 . S
N710 C712 1.356 . S
N710 H722 0.984 . S
N710 H723 0.985 . S
N711 C713 1.356 . S
N711 H716 0.984 . S
N711 H717 0.985 . S
C712 C706 1.379 . S
C712 C709 1.363 . S
C712 N710 1.356 . S
C713 C707 1.363 . S
C713 C708 1.379 . S
C713 N711 1.356 . S
N714 C706 1.356 . S
N714 H720 0.984 . S
N714 H721 0.984 . S
N715 C708 1.356 . S
N715 H718 0.984 . S
N715 H719 0.985 . S
H716 N711 0.984 . S
H717 N711 0.985 . S
H718 N715 0.984 . S
H719 N715 0.985 . S
H720 N714 0.984 . S
H721 N714 0.984 . S
H722 N710 0.984 . S
H723 N710 0.985 . S
C724 C725 1.363 . S
C724 C730 1.379 . S
C724 N732 1.356 . S
C725 C724 1.363 . S
C725 C731 1.363 . S
C726 C727 1.363 . S
C726 C731 1.379 . S
C726 N733 1.356 . S
C727 C726 1.363 . S
C727 C730 1.363 . S
N728 C730 1.356 . S
N728 H740 0.984 . S
N728 H741 0.985 . S
N729 C731 1.356 . S
N729 H734 0.984 . S
N729 H735 0.985 . S
C730 C724 1.379 . S
C730 C727 1.363 . S
C730 N728 1.356 . S
C731 C725 1.363 . S
C731 C726 1.379 . S
C731 N729 1.356 . S
N732 C724 1.356 . S
N732 H738 0.984 . S
N732 H739 0.984 . S
N733 C726 1.356 . S
N733 H736 0.984 . S
N733 H737 0.985 . S
H734 N729 0.984 . S
H735 N729 0.985 . S
H736 N733 0.984 . S
H737 N733 0.985 . S
H738 N732 0.984 . S
H739 N732 0.984 . S
H740 N728 0.984 . S
H741 N728 0.985 . S
C742 C743 1.363 . S
C742 C748 1.379 . S
C742 N750 1.356 . S
C743 C742 1.363 . S
C743 C749 1.363 . S
C744 C745 1.363 . S
C744 C749 1.379 . S
C744 N751 1.356 . S
C745 C744 1.363 . S
C745 C748 1.363 . S
N746 C748 1.356 . S
N746 H758 0.984 . S
N746 H759 0.985 . S
N747 C749 1.356 . S
N747 H752 0.984 . S
N747 H753 0.985 . S
C748 C742 1.379 . S
C748 C745 1.363 . S
C748 N746 1.356 . S
C749 C743 1.363 . S
C749 C744 1.379 . S
C749 N747 1.356 . S
N750 C742 1.356 . S
N750 H756 0.984 . S
N750 H757 0.984 . S
N751 C744 1.356 . S
N751 H754 0.984 . S
N751 H755 0.985 . S
H752 N747 0.984 . S
H753 N747 0.985 . S
H754 N751 0.984 . S
H755 N751 0.985 . S
H756 N750 0.984 . S
H757 N750 0.984 . S
H758 N746 0.984 . S
H759 N746 0.985 . S
C760 C761 1.363 . S
C760 C766 1.379 1_556 S
C760 N768 1.356 . S
C761 C760 1.363 . S
C761 C767 1.363 . S
C762 C763 1.363 . S
C762 C767 1.379 1_554 S
C762 N769 1.356 . S
C763 C762 1.363 . S
C763 C766 1.363 . S
N764 C766 1.356 . S
N764 H776 0.984 . S
N764 H777 0.985 . S
N765 C767 1.356 . S
N765 H770 0.984 . S
N765 H771 0.985 . S
C766 C760 1.379 1_554 S
C766 C763 1.363 . S
C766 N764 1.356 . S
C767 C761 1.363 . S
C767 C762 1.379 1_556 S
C767 N765 1.356 . S
N768 C760 1.356 . S
N768 H774 0.984 . S
N768 H775 0.984 . S
N769 C762 1.356 . S
N769 H772 0.984 . S
N769 H773 0.985 . S
H770 N765 0.984 . S
H771 N765 0.985 . S
H772 N769 0.984 . S
H773 N769 0.985 . S
H774 N768 0.984 . S
H775 N768 0.984 . S
H776 N764 0.984 . S
H777 N764 0.985 . S
C778 C779 1.363 . S
C778 C784 1.379 . S
C778 N786 1.356 1_556 S
C779 C778 1.363 . S
C779 C785 1.363 . S
C780 C781 1.363 . S
C780 C785 1.379 . S
C780 N787 1.356 . S
C781 C780 1.363 . S
C781 C784 1.363 . S
N782 C784 1.356 . S
N782 H794 0.984 . S
N782 H795 0.985 . S
N783 C785 1.356 . S
N783 H788 0.997 . S
N783 H789 0.985 . S
C784 C778 1.379 . S
C784 C781 1.363 . S
C784 N782 1.356 . S
C785 C779 1.363 . S
C785 C780 1.379 . S
C785 N783 1.356 . S
N786 C778 1.356 1_554 S
N786 H792 0.984 . S
N786 H793 0.984 . S
N787 C780 1.356 . S
N787 H790 0.984 . S
N787 H791 0.985 . S
H788 N783 0.997 . S
H789 N783 0.985 . S
H790 N787 0.984 . S
H791 N787 0.985 . S
H792 N786 0.984 . S
H793 N786 0.984 . S
H794 N782 0.984 . S
H795 N782 0.985 . S
C796 C797 1.363 . S
C796 C802 1.379 . S
C796 N804 1.356 . S
C797 C796 1.363 . S
C797 C803 1.363 . S
C798 C799 1.363 . S
C798 C803 1.379 . S
C798 N805 1.356 . S
C799 C798 1.363 . S
C799 C802 1.363 . S
N800 C802 1.356 . S
N800 H812 0.984 . S
N800 H813 0.985 . S
N801 C803 1.356 . S
N801 H806 0.984 . S
N801 H807 0.985 . S
C802 C796 1.379 . S
C802 C799 1.363 . S
C802 N800 1.356 . S
C803 C797 1.363 . S
C803 C798 1.379 . S
C803 N801 1.356 . S
N804 C796 1.356 . S
N804 H810 0.984 . S
N804 H811 0.984 . S
N805 C798 1.356 . S
N805 H808 0.984 . S
N805 H809 0.985 . S
H806 N801 0.984 . S
H807 N801 0.985 . S
H808 N805 0.984 . S
H809 N805 0.985 . S
H810 N804 0.984 . S
H811 N804 0.984 . S
H812 N800 0.984 . S
H813 N800 0.985 . S
C814 C815 1.363 . S
C814 C820 1.379 . S
C814 N822 1.356 . S
C815 C814 1.363 . S
C815 C821 1.363 . S
C816 C817 1.363 . S
C816 C821 1.379 . S
C816 N823 1.356 . S
C817 C816 1.363 . S
C817 C820 1.363 . S
N818 C820 1.356 . S
N818 H830 0.984 . S
N818 H831 0.985 . S
N819 C821 1.356 . S
N819 H824 0.984 . S
N819 H825 0.985 . S
C820 C814 1.379 . S
C820 C817 1.363 . S
C820 N818 1.356 . S
C821 C815 1.363 . S
C821 C816 1.379 . S
C821 N819 1.356 . S
N822 C814 1.356 . S
N822 H828 0.984 . S
N822 H829 0.984 . S
N823 C816 1.356 . S
N823 H826 0.984 . S
N823 H827 0.985 . S
H824 N819 0.984 . S
H825 N819 0.985 . S
H826 N823 0.984 . S
H827 N823 0.985 . S
H828 N822 0.984 . S
H829 N822 0.984 . S
H830 N818 0.984 . S
H831 N818 0.985 . S
C832 C833 1.363 . S
C832 C838 1.379 . S
C832 N840 1.356 . S
C833 C832 1.363 . S
C833 C839 1.363 . S
C834 C835 1.363 . S
C834 C839 1.379 . S
C834 N841 1.356 . S
C835 C834 1.363 . S
C835 C838 1.363 . S
N836 C838 1.356 . S
N836 H848 0.984 . S
N836 H849 0.985 . S
N837 C839 1.356 . S
N837 H842 0.984 1_554 S
N837 H843 0.985 1_554 S
C838 C832 1.379 . S
C838 C835 1.363 . S
C838 N836 1.356 . S
C839 C833 1.363 . S
C839 C834 1.379 . S
C839 N837 1.356 . S
N840 C832 1.356 . S
N840 H846 0.984 . S
N840 H847 0.984 . S
N841 C834 1.356 . S
N841 H844 0.984 . S
N841 H845 0.985 . S
H842 N837 0.984 1_556 S
H843 N837 0.985 1_556 S
H844 N841 0.984 . S
H845 N841 0.985 . S
H846 N840 0.984 . S
H847 N840 0.984 . S
H848 N836 0.984 . S
H849 N836 0.985 . S
C850 C851 1.363 . S
C850 C856 1.379 . S
C850 N858 1.356 . S
C851 C850 1.363 . S
C851 C857 1.363 . S
C852 C853 1.363 . S
C852 C857 1.379 . S
C852 N859 1.356 . S
C853 C852 1.363 . S
C853 C856 1.363 . S
N854 C856 1.356 . S
N854 H866 0.984 . S
N854 H867 0.985 . S
N855 C857 1.356 . S
N855 H860 0.984 . S
N855 H861 0.985 . S
C856 C850 1.379 . S
C856 C853 1.363 . S
C856 N854 1.356 . S
C857 C851 1.363 . S
C857 C852 1.379 . S
C857 N855 1.356 . S
N858 C850 1.356 . S
N858 H864 0.984 . S
N858 H865 0.984 . S
N859 C852 1.356 . S
N859 H862 0.984 . S
N859 H863 0.985 . S
H860 N855 0.984 . S
H861 N855 0.985 . S
H862 N859 0.984 . S
H863 N859 0.985 . S
H864 N858 0.984 . S
H865 N858 0.984 . S
H866 N854 0.984 . S
H867 N854 0.985 . S
C868 C869 1.363 . S
C868 C874 1.379 . S
C868 N876 1.356 . S
C869 C868 1.363 . S
C869 C875 1.363 . S
C870 C871 1.363 . S
C870 C875 1.379 . S
C870 N877 1.356 . S
C871 C870 1.363 . S
C871 C874 1.363 . S
N872 C874 1.356 . S
N872 H884 0.984 . S
N872 H885 0.985 . S
N873 C875 1.356 . S
N873 H878 0.984 . S
N873 H879 0.985 . S
C874 C868 1.379 . S
C874 C871 1.363 . S
C874 N872 1.356 . S
C875 C869 1.363 . S
C875 C870 1.379 . S
C875 N873 1.356 . S
N876 C868 1.356 . S
N876 H882 0.984 . S
N876 H883 0.984 . S
N877 C870 1.356 . S
N877 H880 0.984 . S
N877 H881 0.985 . S
H878 N873 0.984 . S
H879 N873 0.985 . S
H880 N877 0.984 . S
H881 N877 0.985 . S
H882 N876 0.984 . S
H883 N876 0.984 . S
H884 N872 0.984 . S
H885 N872 0.985 . S
C886 C887 1.363 . S
C886 C892 1.379 . S
C886 N894 1.356 1_565 S
C887 C886 1.363 . S
C887 C893 1.363 . S
C888 C889 1.363 . S
C888 C893 1.379 . S
C888 N895 1.356 . S
C889 C888 1.363 . S
C889 C892 1.363 . S
N890 C892 1.356 . S
N890 H902 0.984 . S
N890 H903 0.985 . S
N891 C893 1.356 1_554 S
N891 H896 0.984 . S
N891 H897 0.985 . S
C892 C886 1.379 . S
C892 C889 1.363 . S
C892 N890 1.356 . S
C893 C887 1.363 . S
C893 C888 1.379 . S
C893 N891 1.356 1_556 S
N894 C886 1.356 1_545 S
N894 H900 0.984 . S
N894 H901 0.984 . S
N895 C888 1.356 . S
N895 H898 0.984 . S
N895 H899 0.985 . S
H896 N891 0.984 . S
H897 N891 0.985 . S
H898 N895 0.984 . S
H899 N895 0.985 . S
H900 N894 0.984 . S
H901 N894 0.984 . S
H902 N890 0.984 . S
H903 N890 0.985 . S
C904 C905 1.363 . S
C904 C910 1.379 . S
C904 N912 1.356 . S
C905 C904 1.363 . S
C905 C911 1.363 . S
C906 C907 1.363 . S
C906 C911 1.379 . S
C906 N913 1.356 1_556 S
C907 C906 1.363 . S
C907 C910 1.363 . S
N908 C910 1.356 . S
N908 H920 0.984 1_565 S
N908 H921 0.985 . S
N909 C911 1.356 . S
N909 H914 0.984 . S
N909 H915 0.985 . S
C910 C904 1.379 . S
C910 C907 1.363 . S
C910 N908 1.356 . S
C911 C905 1.363 . S
C911 C906 1.379 . S
C911 N909 1.356 . S
N912 C904 1.356 . S
N912 H918 0.984 . S
N912 H919 0.984 . S
N913 C906 1.356 1_554 S
N913 H916 0.984 . S
N913 H917 0.985 . S
H914 N909 0.984 . S
H915 N909 0.985 . S
H916 N913 0.984 . S
H917 N913 0.985 . S
H918 N912 0.984 . S
H919 N912 0.984 . S
H920 N908 0.984 1_545 S
H921 N908 0.985 . S
C922 C923 1.363 . S
C922 C928 1.379 . S
C922 N930 1.356 . S
C923 C922 1.363 . S
C923 C929 1.363 . S
C924 C925 1.363 . S
C924 C929 1.379 . S
C924 N931 1.356 . S
C925 C924 1.363 . S
C925 C928 1.363 . S
N926 C928 1.356 1_545 S
N926 H938 0.984 . S
N926 H939 0.985 . S
N927 C929 1.356 . S
N927 H932 0.984 . S
N927 H933 0.985 . S
C928 C922 1.379 . S
C928 C925 1.363 . S
C928 N926 1.356 1_565 S
C929 C923 1.363 . S
C929 C924 1.379 . S
C929 N927 1.356 . S
N930 C922 1.356 . S
N930 H936 0.984 . S
N930 H937 0.984 . S
N931 C924 1.356 . S
N931 H934 0.984 . S
N931 H935 0.985 . S
H932 N927 0.984 . S
H933 N927 0.985 . S
H934 N931 0.984 . S
H935 N931 0.985 . S
H936 N930 0.984 . S
H937 N930 0.984 . S
H938 N926 0.984 . S
H939 N926 0.985 . S
C940 C941 1.363 . S
C940 C946 1.379 . S
C940 N948 1.356 . S
C941 C940 1.363 . S
C941 C947 1.363 . S
C942 C943 1.363 . S
C942 C947 1.379 . S
C942 N949 1.356 . S
C943 C942 1.363 . S
C943 C946 1.363 . S
N944 C946 1.356 . S
N944 H956 0.984 . S
N944 H957 0.985 . S
N945 C947 1.356 . S
N945 H950 0.984 . S
N945 H951 0.985 . S
C946 C940 1.379 . S
C946 C943 1.363 . S
C946 N944 1.356 . S
C947 C941 1.363 . S
C947 C942 1.379 . S
C947 N945 1.356 . S
N948 C940 1.356 . S
N948 H954 0.984 . S
N948 H955 0.984 . S
N949 C942 1.356 . S
N949 H952 0.984 . S
N949 H953 0.985 . S
H950 N945 0.984 . S
H951 N945 0.985 . S
H952 N949 0.984 . S
H953 N949 0.985 . S
H954 N948 0.984 . S
H955 N948 0.984 . S
H956 N944 0.984 . S
H957 N944 0.985 . S
C958 C959 1.363 . S
C958 C964 1.379 . S
C958 N966 1.356 . S
C959 C958 1.363 . S
C959 C965 1.363 . S
C960 C961 1.363 . S
C960 C965 1.379 . S
C960 N967 1.356 . S
C961 C960 1.363 . S
C961 C964 1.363 . S
N962 C964 1.356 . S
N962 H974 0.984 . S
N962 H975 0.985 . S
N963 C965 1.356 . S
N963 H968 0.984 . S
N963 H969 0.985 . S
C964 C958 1.379 . S
C964 C961 1.363 . S
C964 N962 1.356 . S
C965 C959 1.363 . S
C965 C960 1.379 . S
C965 N963 1.356 . S
N966 C958 1.356 . S
N966 H972 0.984 . S
N966 H973 0.984 . S
N967 C960 1.356 . S
N967 H970 0.984 . S
N967 H971 0.985 . S
H968 N963 0.984 . S
H969 N963 0.985 . S
H970 N967 0.984 . S
H971 N967 0.985 . S
H972 N966 0.984 . S
H973 N966 0.984 . S
H974 N962 0.984 . S
H975 N962 0.985 . S
C976 C977 1.363 . S
C976 C982 1.379 . S
C976 N984 1.356 . S
C977 C976 1.363 . S
C977 C983 1.363 . S
C978 C979 1.363 . S
C978 C983 1.379 . S
C978 N985 1.356 . S
C979 C978 1.363 . S
C979 C982 1.363 . S
N980 C982 1.356 . S
N980 H992 0.984 . S
N980 H993 0.985 . S
N981 C983 1.356 . S
N981 H986 0.984 . S
N981 H987 0.985 . S
C982 C976 1.379 . S
C982 C979 1.363 . S
C982 N980 1.356 . S
C983 C977 1.363 . S
C983 C978 1.379 . S
C983 N981 1.356 . S
N984 C976 1.356 . S
N984 H990 0.984 . S
N984 H991 0.984 . S
N985 C978 1.356 . S
N985 H988 0.984 . S
N985 H989 0.985 . S
H986 N981 0.984 . S
H987 N981 0.985 . S
H988 N985 0.984 . S
H989 N985 0.985 . S
H990 N984 0.984 . S
H991 N984 0.984 . S
H992 N980 0.984 . S
H993 N980 0.985 . S
C994 C995 1.363 . S
C994 C1000 1.379 1_556 S
C994 N1002 1.356 . S
C995 C994 1.363 . S
C995 C1001 1.363 . S
C996 C997 1.363 . S
C996 C1001 1.379 . S
C996 N1003 1.356 . S
C997 C996 1.363 . S
C997 C1000 1.363 1_556 S
N998 C1000 1.356 . S
N998 H1010 0.984 . S
N998 H1011 0.985 . S
N999 C1001 1.356 . S
N999 H1004 0.984 . S
N999 H1005 0.985 . S
C1000 C994 1.379 1_554 S
C1000 C997 1.363 1_554 S
C1000 N998 1.356 . S
C1001 C995 1.363 . S
C1001 C996 1.379 . S
C1001 N999 1.356 . S
N1002 C994 1.356 . S
N1002 H1008 0.984 1_556 S
N1002 H1009 0.984 . S
N1003 C996 1.356 . S
N1003 H1006 0.984 . S
N1003 H1007 0.985 . S
H1004 N999 0.984 . S
H1005 N999 0.985 . S
H1006 N1003 0.984 . S
H1007 N1003 0.985 . S
H1008 N1002 0.984 1_554 S
H1009 N1002 0.984 . S
H1010 N998 0.984 . S
H1011 N998 0.985 . S
C1012 C1013 1.363 . S
C1012 C1018 1.379 . S
C1012 N1020 1.356 . S
C1013 C1012 1.363 . S
C1013 C1019 1.363 . S
C1014 C1015 1.363 . S
C1014 C1019 1.379 . S
C1014 N1021 1.356 . S
C1015 C1014 1.363 . S
C1015 C1018 1.363 . S
N1016 C1018 1.356 . S
N1016 H1028 0.984 . S
N1016 H1029 0.985 . S
N1017 C1019 1.356 . S
N1017 H1022 0.984 . S
N1017 H1023 0.985 . S
C1018 C1012 1.379 . S
C1018 C1015 1.363 . S
C1018 N1016 1.356 . S
C1019 C1013 1.363 . S
C1019 C1014 1.379 . S
C1019 N1017 1.356 . S
N1020 C1012 1.356 . S
N1020 H1026 0.984 . S
N1020 H1027 0.984 . S
N1021 C1014 1.356 . S
N1021 H1024 0.984 . S
N1021 H1025 0.985 . S
H1022 N1017 0.984 . S
H1023 N1017 0.985 . S
H1024 N1021 0.984 . S
H1025 N1021 0.985 . S
H1026 N1020 0.984 . S
H1027 N1020 0.984 . S
H1028 N1016 0.984 . S
H1029 N1016 0.985 . S
C1030 C1031 1.363 . S
C1030 C1036 1.379 . S
C1030 N1038 1.356 . S
C1031 C1030 1.363 . S
C1031 C1037 1.363 . S
C1032 C1033 1.363 . S
C1032 C1037 1.379 . S
C1032 N1039 1.356 . S
C1033 C1032 1.363 . S
C1033 C1036 1.363 . S
N1034 C1036 1.356 . S
N1034 H1046 0.984 . S
N1034 H1047 0.985 . S
N1035 C1037 1.356 . S
N1035 H1040 0.984 . S
N1035 H1041 0.985 . S
C1036 C1030 1.379 . S
C1036 C1033 1.363 . S
C1036 N1034 1.356 . S
C1037 C1031 1.363 . S
C1037 C1032 1.379 . S
C1037 N1035 1.356 . S
N1038 C1030 1.356 . S
N1038 H1044 0.984 . S
N1038 H1045 0.984 . S
N1039 C1032 1.356 . S
N1039 H1042 0.984 . S
N1039 H1043 0.985 . S
H1040 N1035 0.984 . S
H1041 N1035 0.985 . S
H1042 N1039 0.984 . S
H1043 N1039 0.985 . S
H1044 N1038 0.984 . S
H1045 N1038 0.984 . S
H1046 N1034 0.984 . S
H1047 N1034 0.985 . S
C1048 C1049 1.363 . S
C1048 C1054 1.379 . S
C1048 N1056 1.356 . S
C1049 C1048 1.363 . S
C1049 C1055 1.363 . S
C1050 C1051 1.363 . S
C1050 C1055 1.379 . S
C1050 N1057 1.356 . S
C1051 C1050 1.363 . S
C1051 C1054 1.363 . S
N1052 C1054 1.356 . S
N1052 H1064 0.984 . S
N1052 H1065 0.985 . S
N1053 C1055 1.356 . S
N1053 H1058 0.984 . S
N1053 H1059 0.985 . S
C1054 C1048 1.379 . S
C1054 C1051 1.363 . S
C1054 N1052 1.356 . S
C1055 C1049 1.363 . S
C1055 C1050 1.379 . S
C1055 N1053 1.356 . S
N1056 C1048 1.356 . S
N1056 H1062 0.984 . S
N1056 H1063 0.984 . S
N1057 C1050 1.356 . S
N1057 H1060 0.984 . S
N1057 H1061 0.985 . S
H1058 N1053 0.984 . S
H1059 N1053 0.985 . S
H1060 N1057 0.984 . S
H1061 N1057 0.985 . S
H1062 N1056 0.984 . S
H1063 N1056 0.984 . S
H1064 N1052 0.984 . S
H1065 N1052 0.985 . S
C1066 C1067 1.363 . S
C1066 C1072 1.379 . S
C1066 N1074 1.356 . S
C1067 C1066 1.363 . S
C1067 C1073 1.363 . S
C1068 C1069 1.363 . S
C1068 C1073 1.379 . S
C1068 N1075 1.356 . S
C1069 C1068 1.363 . S
C1069 C1072 1.363 . S
N1070 C1072 1.356 . S
N1070 H1082 0.984 . S
N1070 H1083 0.985 . S
N1071 C1073 1.356 . S
N1071 H1076 0.984 . S
N1071 H1077 0.985 . S
C1072 C1066 1.379 . S
C1072 C1069 1.363 . S
C1072 N1070 1.356 . S
C1073 C1067 1.363 . S
C1073 C1068 1.379 . S
C1073 N1071 1.356 . S
N1074 C1066 1.356 . S
N1074 H1080 0.984 . S
N1074 H1081 0.984 . S
N1075 C1068 1.356 . S
N1075 H1078 0.984 . S
N1075 H1079 0.985 . S
H1076 N1071 0.984 . S
H1077 N1071 0.985 . S
H1078 N1075 0.984 . S
H1079 N1075 0.985 . S
H1080 N1074 0.984 . S
H1081 N1074 0.984 . S
H1082 N1070 0.984 . S
H1083 N1070 0.985 . S
C1084 C1085 1.363 . S
C1084 C1090 1.379 . S
C1084 N1092 1.356 . S
C1085 C1084 1.363 . S
C1085 C1091 1.363 . S
C1086 C1087 1.363 . S
C1086 C1091 1.379 . S
C1086 N1093 1.356 1_556 S
C1087 C1086 1.363 . S
C1087 C1090 1.363 . S
N1088 C1090 1.356 . S
N1088 H1100 0.984 . S
N1088 H1101 0.985 1_556 S
N1089 C1091 1.356 . S
N1089 H1094 0.984 . S
N1089 H1095 0.985 . S
C1090 C1084 1.379 . S
C1090 C1087 1.363 . S
C1090 N1088 1.356 . S
C1091 C1085 1.363 . S
C1091 C1086 1.379 . S
C1091 N1089 1.356 . S
N1092 C1084 1.356 . S
N1092 H1098 0.984 . S
N1092 H1099 0.984 . S
N1093 C1086 1.356 1_554 S
N1093 H1096 0.984 . S
N1093 H1097 0.985 . S
H1094 N1089 0.984 . S
H1095 N1089 0.985 . S
H1096 N1093 0.984 . S
H1097 N1093 0.985 . S
H1098 N1092 0.984 . S
H1099 N1092 0.984 . S
H1100 N1088 0.984 . S
H1101 N1088 0.985 1_554 S
C1102 C1103 1.363 . S
C1102 C1108 1.379 . S
C1102 N1110 1.356 . S
C1103 C1102 1.363 . S
C1103 C1109 1.363 . S
C1104 C1105 1.363 . S
C1104 C1109 1.379 . S
C1104 N1111 1.356 . S
C1105 C1104 1.363 . S
C1105 C1108 1.363 . S
N1106 C1108 1.356 . S
N1106 H1118 0.984 . S
N1106 H1119 0.985 . S
N1107 C1109 1.356 . S
N1107 H1112 0.984 . S
N1107 H1113 0.985 . S
C1108 C1102 1.379 . S
C1108 C1105 1.363 . S
C1108 N1106 1.356 . S
C1109 C1103 1.363 . S
C1109 C1104 1.379 . S
C1109 N1107 1.356 . S
N1110 C1102 1.356 . S
N1110 H1116 0.984 . S
N1110 H1117 0.984 . S
N1111 C1104 1.356 . S
N1111 H1114 0.984 . S
N1111 H1115 0.985 . S
H1112 N1107 0.984 . S
H1113 N1107 0.985 . S
H1114 N1111 0.984 . S
H1115 N1111 0.985 . S
H1116 N1110 0.984 . S
H1117 N1110 0.984 . S
H1118 N1106 0.984 . S
H1119 N1106 0.985 . S
C1120 C1121 1.363 . S
C1120 C1126 1.379 . S
C1120 N1128 1.356 . S
C1121 C1120 1.363 . S
C1121 C1127 1.363 1_554 S
C1122 C1123 1.363 1_556 S
C1122 C1127 1.379 . S
C1122 N1129 1.356 . S
C1123 C1122 1.363 1_554 S
C1123 C1126 1.363 . S
N1124 C1126 1.356 . S
N1124 H1136 0.984 . S
N1124 H1137 0.985 . S
N1125 C1127 1.356 . S
N1125 H1130 0.984 . S
N1125 H1131 0.985 . S
C1126 C1120 1.379 . S
C1126 C1123 1.363 . S
C1126 N1124 1.356 . S
C1127 C1121 1.363 1_556 S
C1127 C1122 1.379 . S
C1127 N1125 1.356 . S
N1128 C1120 1.356 . S
N1128 H1134 0.984 . S
N1128 H1135 0.984 . S
N1129 C1122 1.356 . S
N1129 H1132 0.984 . S
N1129 H1133 0.985 . S
H1130 N1125 0.984 . S
H1131 N1125 0.985 . S
H1132 N1129 0.984 . S
H1133 N1129 0.985 . S
H1134 N1128 0.984 . S
H1135 N1128 0.984 . S
H1136 N1124 0.984 . S
H1137 N1124 0.985 . S
C1138 C1139 1.363 . S
C1138 C1144 1.379 . S
C1138 N1146 1.356 . S
C1139 C1138 1.363 . S
C1139 C1145 1.363 . S
C1140 C1141 1.363 . S
C1140 C1145 1.379 . S
C1140 N1147 1.356 . S
C1141 C1140 1.363 . S
C1141 C1144 1.363 . S
N1142 C1144 1.356 . S
N1142 H1154 0.984 . S
N1142 H1155 0.985 . S
N1143 C1145 1.356 . S
N1143 H1148 0.984 . S
N1143 H1149 0.985 . S
C1144 C1138 1.379 . S
C1144 C1141 1.363 . S
C1144 N1142 1.356 . S
C1145 C1139 1.363 . S
C1145 C1140 1.379 . S
C1145 N1143 1.356 . S
N1146 C1138 1.356 . S
N1146 H1152 0.984 . S
N1146 H1153 0.984 . S
N1147 C1140 1.356 . S
N1147 H1150 0.984 . S
N1147 H1151 0.985 . S
H1148 N1143 0.984 . S
H1149 N1143 0.985 . S
H1150 N1147 0.984 . S
H1151 N1147 0.985 . S
H1152 N1146 0.984 . S
H1153 N1146 0.984 . S
H1154 N1142 0.984 . S
H1155 N1142 0.985 . S
C1156 C1157 1.363 . S
C1156 C1162 1.379 1_455 S
C1156 N1164 1.356 . S
C1157 C1156 1.363 . S
C1157 C1163 1.363 . S
C1158 C1159 1.363 . S
C1158 C1163 1.379 1_655 S
C1158 N1165 1.356 . S
C1159 C1158 1.363 . S
C1159 C1162 1.363 . S
N1160 C1162 1.356 . S
N1160 H1172 0.984 . S
N1160 H1173 0.985 . S
N1161 C1163 1.356 1_565 S
N1161 H1166 0.984 . S
N1161 H1167 0.985 . S
C1162 C1156 1.379 1_655 S
C1162 C1159 1.363 . S
C1162 N1160 1.356 . S
C1163 C1157 1.363 . S
C1163 C1158 1.379 1_455 S
C1163 N1161 1.356 1_545 S
N1164 C1156 1.356 . S
N1164 H1170 0.984 . S
N1164 H1171 0.984 . S
N1165 C1158 1.356 . S
N1165 H1168 0.984 . S
N1165 H1169 0.985 1_545 S
H1166 N1161 0.984 . S
H1167 N1161 0.985 . S
H1168 N1165 0.984 . S
H1169 N1165 0.985 1_565 S
H1170 N1164 0.984 . S
H1171 N1164 0.984 . S
H1172 N1160 0.984 . S
H1173 N1160 0.985 . S
C1174 C1175 1.363 . S
C1174 C1180 1.379 . S
C1174 N1182 1.356 . S
C1175 C1174 1.363 . S
C1175 C1181 1.363 . S
C1176 C1177 1.363 . S
C1176 C1181 1.379 . S
C1176 N1183 1.356 . S
C1177 C1176 1.363 . S
C1177 C1180 1.363 . S
N1178 C1180 1.356 . S
N1178 H1190 0.984 . S
N1178 H1191 0.985 . S
N1179 C1181 1.356 . S
N1179 H1184 0.984 . S
N1179 H1185 0.985 . S
C1180 C1174 1.379 . S
C1180 C1177 1.363 . S
C1180 N1178 1.356 . S
C1181 C1175 1.363 . S
C1181 C1176 1.379 . S
C1181 N1179 1.356 . S
N1182 C1174 1.356 . S
N1182 H1188 0.984 . S
N1182 H1189 0.984 . S
N1183 C1176 1.356 . S
N1183 H1186 0.984 . S
N1183 H1187 0.985 . S
H1184 N1179 0.984 . S
H1185 N1179 0.985 . S
H1186 N1183 0.984 . S
H1187 N1183 0.985 . S
H1188 N1182 0.984 . S
H1189 N1182 0.984 . S
H1190 N1178 0.984 . S
H1191 N1178 0.985 . S
C1192 C1193 1.363 . S
C1192 C1198 1.379 . S
C1192 N1200 1.356 . S
C1193 C1192 1.363 . S
C1193 C1199 1.363 . S
C1194 C1195 1.363 . S
C1194 C1199 1.379 . S
C1194 N1201 1.356 . S
C1195 C1194 1.363 . S
C1195 C1198 1.363 . S
N1196 C1198 1.356 . S
N1196 H1208 0.984 . S
N1196 H1209 0.985 . S
N1197 C1199 1.356 . S
N1197 H1202 0.984 . S
N1197 H1203 0.985 . S
C1198 C1192 1.379 . S
C1198 C1195 1.363 . S
C1198 N1196 1.356 . S
C1199 C1193 1.363 . S
C1199 C1194 1.379 . S
C1199 N1197 1.356 . S
N1200 C1192 1.356 . S
N1200 H1206 0.984 . S
N1200 H1207 0.984 . S
N1201 C1194 1.356 . S
N1201 H1204 0.984 . S
N1201 H1205 0.985 . S
H1202 N1197 0.984 . S
H1203 N1197 0.985 . S
H1204 N1201 0.984 . S
H1205 N1201 0.985 . S
H1206 N1200 0.984 . S
H1207 N1200 0.984 . S
H1208 N1196 0.984 . S
H1209 N1196 0.985 . S
C1210 C1211 1.363 . S
C1210 C1216 1.379 . S
C1210 N1218 1.356 . S
C1211 C1210 1.363 . S
C1211 C1217 1.363 . S
C1212 C1213 1.363 . S
C1212 C1217 1.379 . S
C1212 N1219 1.356 . S
C1213 C1212 1.363 . S
C1213 C1216 1.363 . S
N1214 C1216 1.356 . S
N1214 H1226 0.984 . S
N1214 H1227 0.985 . S
N1215 C1217 1.356 . S
N1215 H1220 0.984 . S
N1215 H1221 0.985 . S
C1216 C1210 1.379 . S
C1216 C1213 1.363 . S
C1216 N1214 1.356 . S
C1217 C1211 1.363 . S
C1217 C1212 1.379 . S
C1217 N1215 1.356 . S
N1218 C1210 1.356 . S
N1218 H1224 0.984 . S
N1218 H1225 0.984 . S
N1219 C1212 1.356 . S
N1219 H1222 0.984 . S
N1219 H1223 0.985 . S
H1220 N1215 0.984 . S
H1221 N1215 0.985 . S
H1222 N1219 0.984 . S
H1223 N1219 0.985 . S
H1224 N1218 0.984 . S
H1225 N1218 0.984 . S
H1226 N1214 0.984 . S
H1227 N1214 0.985 . S
C1228 C1229 1.363 . S
C1228 C1234 1.379 1_655 S
C1228 N1236 1.356 . S
C1229 C1228 1.363 . S
C1229 C1235 1.363 . S
C1230 C1231 1.363 . S
C1230 C1235 1.379 1_455 S
C1230 N1237 1.356 . S
C1231 C1230 1.363 . S
C1231 C1234 1.363 . S
N1232 C1234 1.356 . S
N1232 H1244 0.984 . S
N1232 H1245 0.985 . S
N1233 C1235 1.356 . S
N1233 H1238 0.984 . S
N1233 H1239 0.985 . S
C1234 C1228 1.379 1_455 S
C1234 C1231 1.363 . S
C1234 N1232 1.356 . S
C1235 C1229 1.363 . S
C1235 C1230 1.379 1_655 S
C1235 N1233 1.356 . S
N1236 C1228 1.356 . S
N1236 H1242 0.984 . S
N1236 H1243 0.984 . S
N1237 C1230 1.356 . S
N1237 H1240 0.984 . S
N1237 H1241 0.985 . S
H1238 N1233 0.984 . S
H1239 N1233 0.985 . S
H1240 N1237 0.984 . S
H1241 N1237 0.985 . S
H1242 N1236 0.984 . S
H1243 N1236 0.984 . S
H1244 N1232 0.984 . S
H1245 N1232 0.985 . S
C1246 C1247 1.363 . S
C1246 C1252 1.379 . S
C1246 N1254 1.356 1_554 S
C1247 C1246 1.363 . S
C1247 C1253 1.363 . S
C1248 C1249 1.363 . S
C1248 C1253 1.379 . S
C1248 N1255 1.356 . S
C1249 C1248 1.363 . S
C1249 C1252 1.363 . S
N1250 C1252 1.356 . S
N1250 H1262 0.984 1_554 S
N1250 H1263 0.985 . S
N1251 C1253 1.356 . S
N1251 H1256 0.984 . S
N1251 H1257 0.985 . S
C1252 C1246 1.379 . S
C1252 C1249 1.363 . S
C1252 N1250 1.356 . S
C1253 C1247 1.363 . S
C1253 C1248 1.379 . S
C1253 N1251 1.356 . S
N1254 C1246 1.356 1_556 S
N1254 H1260 0.984 . S
N1254 H1261 0.984 . S
N1255 C1248 1.356 . S
N1255 H1258 0.984 . S
N1255 H1259 0.985 . S
H1256 N1251 0.984 . S
H1257 N1251 0.985 . S
H1258 N1255 0.984 . S
H1259 N1255 0.985 . S
H1260 N1254 0.984 . S
H1261 N1254 0.984 . S
H1262 N1250 0.984 1_556 S
H1263 N1250 0.985 . S
C545 C5 1.411 . S
C547 C9 1.423 . S
C563 C43 1.424 . S
C565 C39 1.411 . S
C581 C73 1.411 . S
C583 C77 1.423 1_554 S
C599 C111 1.423 . S
C601 C107 1.411 . S
C617 C145 1.423 . S
C619 C141 1.411 . S
C635 C175 1.411 . S
C637 C179 1.424 . S
C653 C213 1.423 . S
C655 C209 1.411 . S
C671 C247 1.424 . S
C673 C243 1.411 1_556 S
C689 C277 1.411 . S
C691 C281 1.423 1_554 S
C707 C315 1.423 . S
C709 C311 1.411 . S
C725 C345 1.411 . S
C727 C349 1.424 . S
C743 C379 1.411 . S
C745 C383 1.424 . S
C761 C413 1.411 . S
C763 C417 1.423 . S
C779 C447 1.411 1_556 S
C781 C451 1.424 . S
C797 C485 1.423 . S
C799 C481 1.411 . S
C815 C519 1.424 . S
C817 C515 1.411 . S
C833 C2 1.666 . S
C835 C36 1.666 . S
C851 C101 1.610 . S
C853 C67 1.610 . S
C869 C104 1.666 . S
C871 C70 1.666 . S
C887 C33 1.610 1_556 S
C889 C135 1.610 . S
C905 C172 1.666 . S
C907 C138 1.666 1_556 S
C923 C203 1.610 . S
C925 C237 1.610 . S
C941 C206 1.666 . S
C943 C240 1.666 . S
C959 C271 1.610 . S
C961 C169 1.610 . S
C977 C308 1.666 . S
C979 C274 1.666 . S
C995 C339 1.610 . S
C997 C373 1.610 1_556 S
C1013 C342 1.666 . S
C1015 C376 1.666 . S
C1031 C407 1.610 . S
C1033 C305 1.610 . S
C1049 C410 1.666 . S
C1051 C444 1.666 . S
C1067 C475 1.610 . S
C1069 C509 1.610 . S
C1085 C512 1.666 . S
C1087 C478 1.666 1_556 S
C1103 C441 1.610 . S
C1105 C543 1.610 . S
C1121 C20 1.517 . S
C1123 C156 1.517 . S
C1139 C462 1.517 . S
C1141 C54 1.517 . S
C1157 C88 1.517 . S
C1159 C224 1.517 . S
C1175 C530 1.517 . S
C1177 C122 1.517 . S
C1193 C326 1.517 . S
C1195 C190 1.517 . S
C1211 C258 1.517 . S
C1213 C394 1.517 . S
C1229 C292 1.517 . S
C1231 C428 1.517 . S
C1247 C496 1.517 . S
C1249 C360 1.517 . S
