# Generated by pormake.
# Topology unv, (4)-cn, num edge types: 1
# Building blocks:
#     Node 0, Type 0, BuildingBlock: KUFVIS_clean_sbu_0, # of connection points: 4
#     Node 1, Type 0, BuildingBlock: KUFVIS_clean_sbu_0, # of connection points: 4
#     Node 2, Type 0, BuildingBlock: KUFVIS_clean_sbu_0, # of connection points: 4
#     Node 3, Type 0, BuildingBlock: KUFVIS_clean_sbu_0, # of connection points: 4
#     Node 4, Type 0, BuildingBlock: KUFVIS_clean_sbu_0, # of connection points: 4
#     Node 5, Type 0, BuildingBlock: KUFVIS_clean_sbu_0, # of connection points: 4
#     Node 6, Type 0, BuildingBlock: KUFVIS_clean_sbu_0, # of connection points: 4
#     Node 7, Type 0, BuildingBlock: KUFVIS_clean_sbu_0, # of connection points: 4
#     Node 8, Type 0, BuildingBlock: KUFVIS_clean_sbu_0, # of connection points: 4
#     Node 9, Type 0, BuildingBlock: KUFVIS_clean_sbu_0, # of connection points: 4
#     Node 10, Type 0, BuildingBlock: KUFVIS_clean_sbu_0, # of connection points: 4
#     Node 11, Type 0, BuildingBlock: KUFVIS_clean_sbu_0, # of connection points: 4
#     Node 12, Type 0, BuildingBlock: KUFVIS_clean_sbu_0, # of connection points: 4
#     Node 13, Type 0, BuildingBlock: KUFVIS_clean_sbu_0, # of connection points: 4
#     Node 14, Type 0, BuildingBlock: KUFVIS_clean_sbu_0, # of connection points: 4
#     Node 15, Type 0, BuildingBlock: KUFVIS_clean_sbu_0, # of connection points: 4
#     Node 16, Type 0, BuildingBlock: KUFVIS_clean_sbu_0, # of connection points: 4
#     Node 17, Type 0, BuildingBlock: KUFVIS_clean_sbu_0, # of connection points: 4
#     Node 18, Type 0, BuildingBlock: KUFVIS_clean_sbu_0, # of connection points: 4
#     Node 19, Type 0, BuildingBlock: KUFVIS_clean_sbu_0, # of connection points: 4
#     Node 20, Type 0, BuildingBlock: KUFVIS_clean_sbu_0, # of connection points: 4
#     Node 21, Type 0, BuildingBlock: KUFVIS_clean_sbu_0, # of connection points: 4
#     Node 22, Type 0, BuildingBlock: KUFVIS_clean_sbu_0, # of connection points: 4
#     Node 23, Type 0, BuildingBlock: KUFVIS_clean_sbu_0, # of connection points: 4
#     Edge 24, Type (0, 0), BuildingBlock: TEMPAE_clean_linker_10, # of connection points: 2
#     Edge 25, Type (0, 0), BuildingBlock: TEMPAE_clean_linker_10, # of connection points: 2
#     Edge 26, Type (0, 0), BuildingBlock: TEMPAE_clean_linker_10, # of connection points: 2
#     Edge 27, Type (0, 0), BuildingBlock: TEMPAE_clean_linker_10, # of connection points: 2
#     Edge 28, Type (0, 0), BuildingBlock: TEMPAE_clean_linker_10, # of connection points: 2
#     Edge 29, Type (0, 0), BuildingBlock: TEMPAE_clean_linker_10, # of connection points: 2
#     Edge 30, Type (0, 0), BuildingBlock: TEMPAE_clean_linker_10, # of connection points: 2
#     Edge 31, Type (0, 0), BuildingBlock: TEMPAE_clean_linker_10, # of connection points: 2
#     Edge 32, Type (0, 0), BuildingBlock: TEMPAE_clean_linker_10, # of connection points: 2
#     Edge 33, Type (0, 0), BuildingBlock: TEMPAE_clean_linker_10, # of connection points: 2
#     Edge 34, Type (0, 0), BuildingBlock: TEMPAE_clean_linker_10, # of connection points: 2
#     Edge 35, Type (0, 0), BuildingBlock: TEMPAE_clean_linker_10, # of connection points: 2
#     Edge 36, Type (0, 0), BuildingBlock: TEMPAE_clean_linker_10, # of connection points: 2
#     Edge 37, Type (0, 0), BuildingBlock: TEMPAE_clean_linker_10, # of connection points: 2
#     Edge 38, Type (0, 0), BuildingBlock: TEMPAE_clean_linker_10, # of connection points: 2
#     Edge 39, Type (0, 0), BuildingBlock: TEMPAE_clean_linker_10, # of connection points: 2
#     Edge 40, Type (0, 0), BuildingBlock: TEMPAE_clean_linker_10, # of connection points: 2
#     Edge 41, Type (0, 0), BuildingBlock: TEMPAE_clean_linker_10, # of connection points: 2
#     Edge 42, Type (0, 0), BuildingBlock: TEMPAE_clean_linker_10, # of connection points: 2
#     Edge 43, Type (0, 0), BuildingBlock: TEMPAE_clean_linker_10, # of connection points: 2
#     Edge 44, Type (0, 0), BuildingBlock: TEMPAE_clean_linker_10, # of connection points: 2
#     Edge 45, Type (0, 0), BuildingBlock: TEMPAE_clean_linker_10, # of connection points: 2
#     Edge 46, Type (0, 0), BuildingBlock: TEMPAE_clean_linker_10, # of connection points: 2
#     Edge 47, Type (0, 0), BuildingBlock: TEMPAE_clean_linker_10, # of connection points: 2
#     Edge 48, Type (0, 0), BuildingBlock: TEMPAE_clean_linker_10, # of connection points: 2
#     Edge 49, Type (0, 0), BuildingBlock: TEMPAE_clean_linker_10, # of connection points: 2
#     Edge 50, Type (0, 0), BuildingBlock: TEMPAE_clean_linker_10, # of connection points: 2
#     Edge 51, Type (0, 0), BuildingBlock: TEMPAE_clean_linker_10, # of connection points: 2
#     Edge 52, Type (0, 0), BuildingBlock: TEMPAE_clean_linker_10, # of connection points: 2
#     Edge 53, Type (0, 0), BuildingBlock: TEMPAE_clean_linker_10, # of connection points: 2
#     Edge 54, Type (0, 0), BuildingBlock: TEMPAE_clean_linker_10, # of connection points: 2
#     Edge 55, Type (0, 0), BuildingBlock: TEMPAE_clean_linker_10, # of connection points: 2
#     Edge 56, Type (0, 0), BuildingBlock: TEMPAE_clean_linker_10, # of connection points: 2
#     Edge 57, Type (0, 0), BuildingBlock: TEMPAE_clean_linker_10, # of connection points: 2
#     Edge 58, Type (0, 0), BuildingBlock: TEMPAE_clean_linker_10, # of connection points: 2
#     Edge 59, Type (0, 0), BuildingBlock: TEMPAE_clean_linker_10, # of connection points: 2
#     Edge 60, Type (0, 0), BuildingBlock: TEMPAE_clean_linker_10, # of connection points: 2
#     Edge 61, Type (0, 0), BuildingBlock: TEMPAE_clean_linker_10, # of connection points: 2
#     Edge 62, Type (0, 0), BuildingBlock: TEMPAE_clean_linker_10, # of connection points: 2
#     Edge 63, Type (0, 0), BuildingBlock: TEMPAE_clean_linker_10, # of connection points: 2
#     Edge 64, Type (0, 0), BuildingBlock: TEMPAE_clean_linker_10, # of connection points: 2
#     Edge 65, Type (0, 0), BuildingBlock: TEMPAE_clean_linker_10, # of connection points: 2
#     Edge 66, Type (0, 0), BuildingBlock: TEMPAE_clean_linker_10, # of connection points: 2
#     Edge 67, Type (0, 0), BuildingBlock: TEMPAE_clean_linker_10, # of connection points: 2
#     Edge 68, Type (0, 0), BuildingBlock: TEMPAE_clean_linker_10, # of connection points: 2
#     Edge 69, Type (0, 0), BuildingBlock: TEMPAE_clean_linker_10, # of connection points: 2
#     Edge 70, Type (0, 0), BuildingBlock: TEMPAE_clean_linker_10, # of connection points: 2
#     Edge 71, Type (0, 0), BuildingBlock: TEMPAE_clean_linker_10, # of connection points: 2
# Relax obj value: 0.329
# Max RMSD: 0.271
# Mean RMSD: 0.240
data_MOF--net-unv--node1-KUFVIS_clean_sbu_0--edge1-TEMPAE_clean_linker_10
_symmetry_space_group_name_H-M    P1
_symmetry_Int_Tables_number       1
_symmetry_cell_setting            triclinic
loop_
_symmetry_equiv_pos_as_xyz
'x, y, z'
_cell_length_a     48.676707
_cell_length_b     48.677466
_cell_length_c     48.676354
_cell_angle_alpha  89.977043
_cell_angle_beta   89.983338
_cell_angle_gamma 89.991276
loop_
_atom_site_label
_atom_site_type_symbol
_atom_site_fract_x
_atom_site_fract_y
_atom_site_fract_z
_atom_type_partial_charge
Mn0 Mn 0.99435 0.09739 0.37847 0.0
Mn1 Mn 0.05842 0.10914 0.35511 0.0
C2 C 0.02875 0.10906 0.40883 0.0
C3 C 0.96139 0.06681 0.39384 0.0
C4 C 0.0113 0.14929 0.34806 0.0
O5 O 0.99438 0.07977 0.34086 0.0
O6 O 0.03873 0.08519 0.32834 0.0
C7 C 0.08189 0.05308 0.35785 0.0
N8 N 0.08245 0.07992 0.36573 0.0
C9 C 0.12208 0.07211 0.39424 0.0
C10 C 0.12205 0.04444 0.38627 0.0
C11 C 0.10184 0.03488 0.36802 0.0
C12 C 0.10193 0.08939 0.38311 0.0
H13 H 0.06631 0.04557 0.34398 0.0
C14 C 0.01448 0.07549 0.32461 0.0
O15 O 0.95425 0.09002 0.3828 0.0
O16 O 0.98737 0.06136 0.39578 0.0
N17 N 0.07922 0.13136 0.38004 0.0
C18 C 0.07507 0.15805 0.3874 0.0
C19 C 0.09266 0.17036 0.40665 0.0
C20 C 0.1143 0.15513 0.41815 0.0
C21 C 0.11817 0.12771 0.41027 0.0
C22 C 0.10012 0.11658 0.39084 0.0
H23 H 0.05831 0.1698 0.37886 0.0
O24 O 0.00316 0.11314 0.41529 0.0
O25 O 0.03314 0.09875 0.38462 0.0
O26 O 0.99359 0.13562 0.36161 0.0
O27 O 0.03572 0.14083 0.34352 0.0
C28 C 0.13884 0.1108 0.42143 0.0
C29 C 0.14083 0.08303 0.41339 0.0
H30 H 0.13718 0.03026 0.39434 0.0
H31 H 0.10156 0.01351 0.36193 0.0
H32 H 0.08944 0.1915 0.41275 0.0
H33 H 0.12765 0.16462 0.43321 0.0
H34 H 0.1531 0.11885 0.43649 0.0
H35 H 0.15654 0.07013 0.42245 0.0
Mn36 Mn 0.992 0.40013 0.37346 0.0
Mn37 Mn 0.92734 0.38481 0.35413 0.0
C38 C 0.96116 0.38342 0.40523 0.0
C39 C 0.0238 0.43193 0.38881 0.0
C40 C 0.9765 0.34874 0.34133 0.0
O41 O 0.98765 0.42041 0.33753 0.0
O42 O 0.94325 0.41163 0.32742 0.0
C43 C 0.90063 0.4389 0.36213 0.0
N44 N 0.90234 0.41164 0.36825 0.0
C45 C 0.86476 0.4151 0.40022 0.0
C46 C 0.86247 0.44315 0.39409 0.0
C47 C 0.88051 0.45509 0.37498 0.0
C48 C 0.88495 0.39989 0.38647 0.0
H49 H 0.91458 0.44826 0.34764 0.0
C50 C 0.96621 0.42381 0.32289 0.0
O51 O 0.03166 0.41032 0.37529 0.0
O52 O 0.99774 0.43516 0.39311 0.0
N53 N 0.90995 0.35979 0.37907 0.0
C54 C 0.91628 0.33302 0.38435 0.0
C55 C 0.90105 0.31843 0.40403 0.0
C56 C 0.8795 0.33148 0.41809 0.0
C57 C 0.87333 0.35902 0.4123 0.0
C58 C 0.88907 0.37246 0.3923 0.0
H59 H 0.933 0.32293 0.37384 0.0
O60 O 0.98741 0.381 0.40943 0.0
O61 O 0.95404 0.39519 0.38235 0.0
O62 O 0.99424 0.3634 0.35373 0.0
O63 O 0.95119 0.35541 0.33927 0.0
C64 C 0.85263 0.37382 0.42607 0.0
C65 C 0.84832 0.40183 0.42002 0.0
H66 H 0.84721 0.45579 0.40422 0.0
H67 H 0.879 0.47678 0.3703 0.0
H68 H 0.90603 0.29723 0.40848 0.0
H69 H 0.86799 0.32025 0.43348 0.0
H70 H 0.84014 0.36396 0.44163 0.0
H71 H 0.83264 0.4131 0.43108 0.0
Mn72 Mn 0.98852 0.90415 0.12909 0.0
Mn73 Mn 0.05246 0.89039 0.15172 0.0
C74 C 0.02181 0.88979 0.0986 0.0
C75 C 0.95671 0.93563 0.11299 0.0
C76 C 0.00384 0.85255 0.16094 0.0
O77 O 0.99001 0.92318 0.166 0.0
O78 O 0.03422 0.91591 0.17807 0.0
C79 C 0.07802 0.94537 0.14672 0.0
N80 N 0.07743 0.91827 0.13978 0.0
C81 C 0.11696 0.92352 0.11053 0.0
C82 C 0.1181 0.95144 0.11754 0.0
C83 C 0.09852 0.9624 0.13568 0.0
C84 C 0.09628 0.90746 0.12247 0.0
H85 H 0.06292 0.95396 0.16053 0.0
C86 C 0.01053 0.92689 0.18185 0.0
O87 O 0.9487 0.91327 0.12516 0.0
O88 O 0.98287 0.93973 0.11045 0.0
N89 N 0.07196 0.86656 0.12723 0.0
C90 C 0.06669 0.83981 0.12086 0.0
C91 C 0.08355 0.82615 0.10186 0.0
C92 C 0.10564 0.8401 0.08961 0.0
C93 C 0.11069 0.86761 0.09649 0.0
C94 C 0.0933 0.88011 0.1157 0.0
H95 H 0.04959 0.82904 0.13001 0.0
O96 O 0.99596 0.88663 0.09275 0.0
O97 O 0.02711 0.90081 0.12231 0.0
O98 O 0.98639 0.86659 0.14742 0.0
O99 O 0.0287 0.86005 0.16464 0.0
C100 C 0.13191 0.88327 0.08457 0.0
C101 C 0.13506 0.9112 0.0916 0.0
H102 H 0.13368 0.96472 0.1088 0.0
H103 H 0.09915 0.98397 0.14103 0.0
H104 H 0.07943 0.80496 0.09655 0.0
H105 H 0.11844 0.82957 0.07476 0.0
H106 H 0.1457 0.87412 0.0697 0.0
H107 H 0.15118 0.92313 0.08195 0.0
Mn108 Mn 0.99247 0.60195 0.1345 0.0
Mn109 Mn 0.92653 0.61469 0.15133 0.0
C110 C 0.96233 0.61767 0.10159 0.0
C111 C 0.02604 0.57126 0.12062 0.0
C112 C 0.97365 0.65268 0.16597 0.0
O113 O 0.9875 0.5815 0.17024 0.0
O114 O 0.94243 0.58847 0.17863 0.0
C115 C 0.90251 0.55954 0.14214 0.0
N116 N 0.90324 0.58689 0.13622 0.0
C117 C 0.86689 0.58205 0.10305 0.0
C118 C 0.86562 0.55388 0.10896 0.0
C119 C 0.88353 0.54259 0.12856 0.0
C120 C 0.88599 0.598 0.11749 0.0
H121 H 0.91636 0.55069 0.15703 0.0
C122 C 0.96567 0.57722 0.18403 0.0
O123 O 0.03254 0.59319 0.13434 0.0
O124 O 0.00031 0.56716 0.11517 0.0
N125 N 0.90904 0.63906 0.12582 0.0
C126 C 0.91438 0.66611 0.12089 0.0
C127 C 0.89914 0.68017 0.10084 0.0
C128 C 0.87859 0.66632 0.08608 0.0
C129 C 0.87343 0.63852 0.09154 0.0
C130 C 0.88913 0.62561 0.11191 0.0
H131 H 0.9303 0.67683 0.13197 0.0
O132 O 0.98863 0.62094 0.09838 0.0
O133 O 0.95472 0.60551 0.12411 0.0
O134 O 0.99245 0.63874 0.15427 0.0
O135 O 0.94858 0.645 0.1671 0.0
C136 C 0.85374 0.62297 0.07713 0.0
C137 C 0.85047 0.59475 0.08287 0.0
H138 H 0.85123 0.54068 0.0983 0.0
H139 H 0.88281 0.52083 0.13309 0.0
H140 H 0.90334 0.7016 0.09665 0.0
H141 H 0.86707 0.67717 0.07043 0.0
H142 H 0.84125 0.63243 0.06133 0.0
H143 H 0.83559 0.58291 0.07131 0.0
Mn144 Mn 0.37804 0.99319 0.09504 0.0
Mn145 Mn 0.35462 0.05717 0.10703 0.0
C146 C 0.40839 0.0276 0.10668 0.0
C147 C 0.39324 0.96045 0.06415 0.0
C148 C 0.34794 0.00996 0.14717 0.0
O149 O 0.34032 0.99314 0.07769 0.0
O150 O 0.32777 0.03747 0.08316 0.0
C151 C 0.35706 0.08072 0.05097 0.0
N152 N 0.36504 0.08127 0.07779 0.0
C153 C 0.39349 0.12093 0.06987 0.0
C154 C 0.3854 0.1209 0.04223 0.0
C155 C 0.36713 0.10069 0.03274 0.0
C156 C 0.38245 0.10077 0.08719 0.0
H157 H 0.34318 0.06511 0.04351 0.0
C158 C 0.32403 0.01322 0.07347 0.0
O159 O 0.38245 0.95313 0.08743 0.0
O160 O 0.39507 0.98646 0.05885 0.0
N161 N 0.3796 0.07801 0.12916 0.0
C162 C 0.38706 0.07386 0.15583 0.0
C163 C 0.40634 0.09147 0.16807 0.0
C164 C 0.41775 0.11313 0.1528 0.0
C165 C 0.40976 0.11701 0.1254 0.0
C166 C 0.39029 0.09894 0.11435 0.0
H167 H 0.37859 0.05708 0.1676 0.0
O168 O 0.41494 0.00201 0.11058 0.0
O169 O 0.38413 0.03199 0.09649 0.0
O170 O 0.36144 0.99228 0.1334 0.0
O171 O 0.34327 0.03437 0.13873 0.0
C172 C 0.42083 0.1377 0.10845 0.0
C173 C 0.41267 0.13969 0.08072 0.0
H174 H 0.3934 0.13605 0.02802 0.0
H175 H 0.36095 0.10041 0.01139 0.0
H176 H 0.41252 0.08825 0.18918 0.0
H177 H 0.43284 0.12649 0.16223 0.0
H178 H 0.43592 0.15196 0.11644 0.0
H179 H 0.42166 0.15541 0.06778 0.0
Mn180 Mn 0.62293 0.51937 0.09413 0.0
Mn181 Mn 0.64752 0.45544 0.10407 0.0
C182 C 0.59315 0.48388 0.10398 0.0
C183 C 0.60743 0.55277 0.06407 0.0
C184 C 0.65242 0.50113 0.14611 0.0
O185 O 0.66098 0.52099 0.07751 0.0
O186 O 0.67438 0.47679 0.08177 0.0
C187 C 0.64685 0.43434 0.04703 0.0
N188 N 0.63841 0.43236 0.07364 0.0
C189 C 0.61192 0.39184 0.06367 0.0
C190 C 0.6205 0.39333 0.03621 0.0
C191 C 0.63799 0.41471 0.02785 0.0
C192 C 0.62167 0.4118 0.08194 0.0
H193 H 0.6602 0.45081 0.04047 0.0
C194 C 0.67787 0.50146 0.07315 0.0
O195 O 0.6176 0.5596 0.08778 0.0
O196 O 0.60643 0.52692 0.05791 0.0
N197 N 0.62269 0.43301 0.12478 0.0
C198 C 0.61454 0.43581 0.15141 0.0
C199 C 0.59582 0.41692 0.16259 0.0
C200 C 0.58573 0.39534 0.14632 0.0
C201 C 0.59444 0.39286 0.11898 0.0
C202 C 0.61322 0.41223 0.10898 0.0
H203 H 0.62206 0.45246 0.16397 0.0
O204 O 0.58596 0.50915 0.10866 0.0
O205 O 0.61766 0.48038 0.09401 0.0
O206 O 0.63886 0.51919 0.13286 0.0
O207 O 0.65755 0.47715 0.13682 0.0
C208 C 0.58478 0.37227 0.1011 0.0
C209 C 0.59351 0.37175 0.07347 0.0
H210 H 0.61347 0.3784 0.02129 0.0
H211 H 0.64455 0.41611 0.00665 0.0
H212 H 0.58908 0.41905 0.18368 0.0
H213 H 0.5711 0.38095 0.15495 0.0
H214 H 0.57037 0.35693 0.1083 0.0
H215 H 0.58557 0.3561 0.0598 0.0
Mn216 Mn 0.37353 0.99411 0.39928 0.0
Mn217 Mn 0.35311 0.92941 0.38561 0.0
C218 C 0.40499 0.962 0.38448 0.0
C219 C 0.38891 0.02661 0.43034 0.0
C220 C 0.34238 0.97757 0.34758 0.0
O221 O 0.33699 0.99128 0.41878 0.0
O222 O 0.32606 0.94687 0.41107 0.0
C223 C 0.35892 0.90444 0.44081 0.0
N224 N 0.36584 0.90504 0.4137 0.0
C225 C 0.39666 0.86678 0.41935 0.0
C226 C 0.38969 0.86563 0.44728 0.0
C227 C 0.37076 0.88456 0.45804 0.0
C228 C 0.38389 0.88679 0.40307 0.0
H229 H 0.34454 0.91906 0.44927 0.0
C230 C 0.32173 0.9703 0.42239 0.0
O231 O 0.37614 0.03406 0.40814 0.0
O232 O 0.39242 0.00058 0.4346 0.0
N233 N 0.37829 0.91056 0.36195 0.0
C234 C 0.38448 0.91583 0.33514 0.0
C235 C 0.40415 0.8996 0.32166 0.0
C236 C 0.41726 0.87816 0.33584 0.0
C237 C 0.41054 0.8731 0.36339 0.0
C238 C 0.39059 0.8898 0.3757 0.0
H239 H 0.37471 0.93246 0.32419 0.0
O240 O 0.40985 0.98805 0.38127 0.0
O241 O 0.38167 0.95579 0.39588 0.0
O242 O 0.35477 0.99554 0.36198 0.0
O243 O 0.33965 0.95255 0.355 0.0
C244 C 0.42332 0.85256 0.37928 0.0
C245 C 0.41637 0.84938 0.40723 0.0
H246 H 0.39905 0.85056 0.46072 0.0
H247 H 0.36543 0.88393 0.47962 0.0
H248 H 0.40934 0.90374 0.30044 0.0
H249 H 0.43265 0.86589 0.32545 0.0
H250 H 0.4388 0.83934 0.3703 0.0
H251 H 0.42668 0.83381 0.41934 0.0
Mn252 Mn 0.62405 0.49267 0.39841 0.0
Mn253 Mn 0.64594 0.55812 0.39298 0.0
C254 C 0.59324 0.52711 0.38813 0.0
C255 C 0.60879 0.45692 0.4257 0.0
C256 C 0.65487 0.51519 0.34879 0.0
O257 O 0.66098 0.49198 0.41732 0.0
O258 O 0.67279 0.53675 0.41541 0.0
C259 C 0.64121 0.57531 0.45115 0.0
N260 N 0.63422 0.57876 0.42428 0.0
C261 C 0.60522 0.61725 0.43537 0.0
C262 C 0.61229 0.61423 0.46312 0.0
C263 C 0.63032 0.59314 0.47105 0.0
C264 C 0.61692 0.59904 0.41642 0.0
H265 H 0.65494 0.55904 0.4574 0.0
C266 C 0.67679 0.51193 0.42337 0.0
O267 O 0.62073 0.45196 0.40235 0.0
O268 O 0.60579 0.48231 0.43306 0.0
N269 N 0.62118 0.58077 0.37243 0.0
C270 C 0.61469 0.57951 0.34522 0.0
C271 C 0.59581 0.59836 0.33424 0.0
C272 C 0.58388 0.61835 0.35128 0.0
C273 C 0.59094 0.6193 0.37919 0.0
C274 C 0.60997 0.60006 0.38897 0.0
H275 H 0.62365 0.5641 0.33203 0.0
O276 O 0.58761 0.50175 0.382 0.0
O277 O 0.61677 0.53133 0.39999 0.0
O278 O 0.6422 0.49572 0.36087 0.0
O279 O 0.65835 0.53893 0.3594 0.0
C280 C 0.57941 0.63824 0.39779 0.0
C281 C 0.58651 0.63719 0.42586 0.0
H282 H 0.60373 0.62777 0.47857 0.0
H283 H 0.63572 0.59056 0.49246 0.0
H284 H 0.59038 0.59741 0.3127 0.0
H285 H 0.56915 0.6327 0.34279 0.0
H286 H 0.56481 0.65348 0.39076 0.0
H287 H 0.57711 0.65155 0.44003 0.0
Mn288 Mn 0.09791 0.37942 0.00111 0.0
Mn289 Mn 0.10835 0.35567 0.06525 0.0
C290 C 0.10859 0.40962 0.03595 0.0
C291 C 0.068 0.39468 0.96753 0.0
C292 C 0.14958 0.34918 0.01897 0.0
O293 O 0.08053 0.34172 0.0005 0.0
O294 O 0.08486 0.32895 0.0449 0.0
C295 C 0.05181 0.35799 0.08762 0.0
N296 N 0.0786 0.36602 0.08874 0.0
C297 C 0.06979 0.3944 0.12825 0.0
C298 C 0.04217 0.38627 0.12763 0.0
C299 C 0.03315 0.368 0.10721 0.0
C300 C 0.08756 0.3834 0.10846 0.0
H301 H 0.0447 0.34411 0.07185 0.0
C302 C 0.07572 0.32538 0.02041 0.0
O303 O 0.09147 0.3839 0.96088 0.0
O304 O 0.06193 0.39649 0.99338 0.0
N305 N 0.13003 0.38058 0.08665 0.0
C306 C 0.15677 0.38808 0.08309 0.0
C307 C 0.1686 0.40736 0.10097 0.0
C308 C 0.15285 0.41876 0.12228 0.0
C309 C 0.12538 0.41074 0.12555 0.0
C310 C 0.11475 0.39126 0.10725 0.0
H311 H 0.16892 0.37963 0.06657 0.0
O312 O 0.11321 0.41627 0.0105 0.0
O313 O 0.09834 0.38531 0.03996 0.0
O314 O 0.13622 0.36283 0.0011 0.0
O315 O 0.14059 0.34434 0.04314 0.0
C316 C 0.10796 0.42181 0.14584 0.0
C317 C 0.08021 0.41361 0.14723 0.0
H318 H 0.02763 0.39424 0.14247 0.0
H319 H 0.01182 0.36179 0.10647 0.0
H320 H 0.18978 0.41356 0.09822 0.0
H321 H 0.16197 0.43385 0.13585 0.0
H322 H 0.11561 0.43694 0.16025 0.0
H323 H 0.06692 0.42259 0.16266 0.0
Mn324 Mn 0.0934 0.62183 0.51721 0.0
Mn325 Mn 0.10222 0.64635 0.45308 0.0
C326 C 0.10258 0.59201 0.48158 0.0
C327 C 0.06401 0.60642 0.55123 0.0
C328 C 0.14511 0.6512 0.49796 0.0
O329 O 0.07685 0.65989 0.51909 0.0
O330 O 0.0804 0.67329 0.47482 0.0
C331 C 0.04476 0.64579 0.43312 0.0
N332 N 0.07131 0.63729 0.43062 0.0
C333 C 0.06043 0.6107 0.3904 0.0
C334 C 0.03303 0.61934 0.39243 0.0
C335 C 0.02516 0.63692 0.41392 0.0
C336 C 0.07913 0.62048 0.40994 0.0
H337 H 0.03857 0.6592 0.44968 0.0
C338 C 0.0722 0.6768 0.49963 0.0
O339 O 0.08786 0.61656 0.55756 0.0
O340 O 0.05731 0.60537 0.52551 0.0
N341 N 0.12241 0.62145 0.43026 0.0
C342 C 0.14908 0.61324 0.43253 0.0
C343 C 0.15982 0.59445 0.41347 0.0
C344 C 0.14307 0.58433 0.39227 0.0
C345 C 0.1157 0.5931 0.39033 0.0
C346 C 0.10616 0.61197 0.40984 0.0
H347 H 0.16199 0.62078 0.4489 0.0
O348 O 0.10771 0.58484 0.50678 0.0
O349 O 0.09256 0.61652 0.47823 0.0
O350 O 0.13212 0.63773 0.51627 0.0
O351 O 0.13543 0.65632 0.47413 0.0
C352 C 0.09737 0.5834 0.37016 0.0
C353 C 0.06976 0.59219 0.37019 0.0
H354 H 0.01778 0.6123 0.37784 0.0
H355 H 0.00401 0.64353 0.41574 0.0
H356 H 0.18092 0.58767 0.41519 0.0
H357 H 0.15136 0.56964 0.37776 0.0
H358 H 0.10422 0.5689 0.35474 0.0
H359 H 0.05575 0.58422 0.35485 0.0
Mn360 Mn 0.90035 0.87244 0.5184 0.0
Mn361 Mn 0.89387 0.84971 0.45337 0.0
C362 C 0.88946 0.90286 0.48374 0.0
C363 C 0.92853 0.88813 0.55326 0.0
C364 C 0.85098 0.84032 0.49754 0.0
O365 O 0.91941 0.83554 0.5191 0.0
O366 O 0.91735 0.82357 0.47435 0.0
C367 C 0.95135 0.8552 0.43418 0.0
N368 N 0.92427 0.86178 0.43161 0.0
C369 C 0.93353 0.8903 0.39229 0.0
C370 C 0.96148 0.88366 0.39439 0.0
C371 C 0.97042 0.86609 0.41548 0.0
C372 C 0.91542 0.87862 0.41137 0.0
H373 H 0.95835 0.8418 0.45042 0.0
C374 C 0.92548 0.81974 0.49913 0.0
O375 O 0.90533 0.87624 0.55899 0.0
O376 O 0.93516 0.89091 0.52765 0.0
N377 N 0.87216 0.8739 0.4312 0.0
C378 C 0.84494 0.88004 0.4334 0.0
C379 C 0.833 0.8985 0.41472 0.0
C380 C 0.84913 0.91037 0.39394 0.0
C381 C 0.8771 0.90371 0.39207 0.0
C382 C 0.88785 0.88514 0.41122 0.0
H383 H 0.83246 0.87109 0.44941 0.0
O384 O 0.8837 0.90879 0.50912 0.0
O385 O 0.90113 0.87921 0.47967 0.0
O386 O 0.86281 0.85403 0.51644 0.0
O387 O 0.86126 0.83665 0.47369 0.0
C388 C 0.89482 0.91518 0.37227 0.0
C389 C 0.92302 0.90853 0.37241 0.0
H390 H 0.9763 0.89222 0.38016 0.0
H391 H 0.99199 0.86103 0.41735 0.0
H392 H 0.81143 0.90363 0.41638 0.0
H393 H 0.8399 0.92476 0.37969 0.0
H394 H 0.88702 0.92942 0.35705 0.0
H395 H 0.93652 0.91788 0.35738 0.0
Mn396 Mn 0.39804 0.62469 0.49431 0.0
Mn397 Mn 0.38888 0.6437 0.56022 0.0
C398 C 0.3857 0.59243 0.52666 0.0
C399 C 0.42747 0.61086 0.45969 0.0
C400 C 0.34742 0.65493 0.5151 0.0
O401 O 0.41694 0.66154 0.49642 0.0
O402 O 0.41292 0.67121 0.54156 0.0
C403 C 0.44574 0.63753 0.58098 0.0
N404 N 0.41864 0.63066 0.58229 0.0
C405 C 0.42694 0.59968 0.61995 0.0
C406 C 0.45489 0.6066 0.61913 0.0
C407 C 0.46432 0.62557 0.59953 0.0
C408 C 0.40932 0.61249 0.60114 0.0
H409 H 0.45314 0.65198 0.56585 0.0
C410 C 0.42216 0.67629 0.51739 0.0
O411 O 0.4045 0.6231 0.45381 0.0
O412 O 0.43324 0.60677 0.48533 0.0
N413 N 0.36666 0.61815 0.58029 0.0
C414 C 0.33956 0.61199 0.57688 0.0
C415 C 0.32723 0.59228 0.59396 0.0
C416 C 0.34284 0.57916 0.61438 0.0
C417 C 0.37066 0.58588 0.61754 0.0
C418 C 0.38182 0.60579 0.60002 0.0
H419 H 0.32749 0.62183 0.5611 0.0
O420 O 0.38108 0.58795 0.50076 0.0
O421 O 0.3973 0.61572 0.5326 0.0
O422 O 0.3604 0.64281 0.49588 0.0
O423 O 0.35674 0.65742 0.53951 0.0
C424 C 0.38789 0.57317 0.63701 0.0
C425 C 0.41602 0.58004 0.6382 0.0
H426 H 0.46934 0.5972 0.6332 0.0
H427 H 0.4859 0.63087 0.59864 0.0
H428 H 0.30577 0.58711 0.59131 0.0
H429 H 0.33331 0.56378 0.62735 0.0
H430 H 0.37979 0.55782 0.65094 0.0
H431 H 0.42915 0.56976 0.65293 0.0
Mn432 Mn 0.48696 0.59882 0.86462 0.0
Mn433 Mn 0.55247 0.60751 0.84393 0.0
C434 C 0.51997 0.6125 0.8957 0.0
C435 C 0.45265 0.56997 0.88051 0.0
C436 C 0.50712 0.64854 0.8323 0.0
O437 O 0.48836 0.57839 0.82848 0.0
O438 O 0.53316 0.58294 0.81748 0.0
C439 C 0.57301 0.55071 0.85127 0.0
N440 N 0.5747 0.57799 0.85725 0.0
C441 C 0.61336 0.57043 0.88711 0.0
C442 C 0.61216 0.54228 0.88112 0.0
C443 C 0.59185 0.53238 0.86317 0.0
C444 C 0.59416 0.58774 0.87449 0.0
H445 H 0.55737 0.54297 0.83759 0.0
C446 C 0.50902 0.57326 0.81324 0.0
O447 O 0.44649 0.59235 0.86733 0.0
O448 O 0.4784 0.56441 0.88423 0.0
N449 N 0.57327 0.63031 0.8683 0.0
C450 C 0.57024 0.65763 0.87367 0.0
C451 C 0.58812 0.67048 0.89229 0.0
C452 C 0.60899 0.65519 0.90508 0.0
C453 C 0.61175 0.62714 0.89915 0.0
C454 C 0.59338 0.61544 0.88038 0.0
H455 H 0.55419 0.66948 0.864 0.0
O456 O 0.49415 0.61725 0.90054 0.0
O457 O 0.52547 0.59999 0.87278 0.0
O458 O 0.48806 0.63578 0.84496 0.0
O459 O 0.53156 0.63931 0.82988 0.0
C460 C 0.63172 0.61023 0.91151 0.0
C461 C 0.63247 0.58188 0.90558 0.0
H462 H 0.62651 0.52805 0.89043 0.0
H463 H 0.59068 0.51066 0.85859 0.0
H464 H 0.58578 0.69212 0.89684 0.0
H465 H 0.62261 0.66513 0.91958 0.0
H466 H 0.6464 0.61878 0.92586 0.0
H467 H 0.6476 0.56901 0.91563 0.0
Mn468 Mn 0.51872 0.89993 0.86963 0.0
Mn469 Mn 0.45374 0.89435 0.84649 0.0
C470 C 0.48367 0.88983 0.89987 0.0
C471 C 0.55389 0.92772 0.88537 0.0
C472 C 0.4971 0.85044 0.83811 0.0
O473 O 0.52008 0.91857 0.83253 0.0
O474 O 0.47545 0.91692 0.82013 0.0
C475 C 0.43596 0.95235 0.85101 0.0
N476 N 0.43262 0.92543 0.8579 0.0
C477 C 0.39326 0.93606 0.88587 0.0
C478 C 0.39616 0.96387 0.87891 0.0
C479 C 0.41765 0.97204 0.86146 0.0
C480 C 0.412 0.91733 0.87465 0.0
H481 H 0.45251 0.95877 0.83769 0.0
C482 C 0.50038 0.92463 0.81641 0.0
O483 O 0.55936 0.90432 0.87377 0.0
O484 O 0.52836 0.93478 0.8878 0.0
N485 N 0.43081 0.87354 0.87077 0.0
C486 C 0.43223 0.84634 0.87727 0.0
C487 C 0.41304 0.83512 0.89565 0.0
C488 C 0.39253 0.85192 0.90706 0.0
C489 C 0.39145 0.87983 0.90001 0.0
C490 C 0.41109 0.88986 0.88153 0.0
H491 H 0.44802 0.83335 0.86867 0.0
O492 O 0.50893 0.88378 0.90605 0.0
O493 O 0.47994 0.90142 0.87612 0.0
O494 O 0.51621 0.86221 0.85159 0.0
O495 O 0.47343 0.86107 0.8342 0.0
C496 C 0.37196 0.89819 0.91099 0.0
C497 C 0.3729 0.9263 0.90399 0.0
H498 H 0.38222 0.97915 0.88712 0.0
H499 H 0.42014 0.99349 0.85614 0.0
H500 H 0.41409 0.81359 0.90109 0.0
H501 H 0.37789 0.84324 0.92139 0.0
H502 H 0.35636 0.89095 0.92511 0.0
H503 H 0.35812 0.94029 0.91298 0.0
Mn504 Mn 0.49132 0.39681 0.62151 0.0
Mn505 Mn 0.55687 0.3896 0.64251 0.0
C506 C 0.52493 0.38484 0.59038 0.0
C507 C 0.45627 0.42494 0.60619 0.0
C508 C 0.51253 0.34722 0.65319 0.0
O509 O 0.4919 0.41653 0.65802 0.0
O510 O 0.53678 0.41334 0.6692 0.0
C511 C 0.57616 0.44696 0.63623 0.0
N512 N 0.57846 0.41984 0.62975 0.0
C513 C 0.61683 0.42885 0.59988 0.0
C514 C 0.615 0.45684 0.60641 0.0
C515 C 0.59454 0.46593 0.62462 0.0
C516 C 0.59811 0.41086 0.61229 0.0
H517 H 0.56038 0.4541 0.6501 0.0
C518 C 0.5123 0.42219 0.67341 0.0
O519 O 0.45073 0.40207 0.61878 0.0
O520 O 0.48184 0.43136 0.6026 0.0
N521 N 0.57829 0.36769 0.61782 0.0
C522 C 0.57586 0.34043 0.61192 0.0
C523 C 0.59393 0.32835 0.59295 0.0
C524 C 0.61434 0.34437 0.58032 0.0
C525 C 0.61648 0.37236 0.58677 0.0
C526 C 0.59797 0.38326 0.60591 0.0
H527 H 0.56011 0.32803 0.62142 0.0
O528 O 0.49931 0.37936 0.58527 0.0
O529 O 0.52986 0.39695 0.61364 0.0
O530 O 0.49334 0.35962 0.64045 0.0
O531 O 0.53669 0.35705 0.65603 0.0
C532 C 0.63591 0.38997 0.57453 0.0
C533 C 0.63606 0.41821 0.58104 0.0
H534 H 0.62896 0.47158 0.59729 0.0
H535 H 0.59287 0.48753 0.62961 0.0
H536 H 0.59205 0.30676 0.58799 0.0
H537 H 0.62809 0.33503 0.56553 0.0
H538 H 0.65062 0.38207 0.55983 0.0
H539 H 0.65078 0.43163 0.5711 0.0
Mn540 Mn 0.51907 0.09451 0.61961 0.0
Mn541 Mn 0.45474 0.1017 0.64417 0.0
C542 C 0.48334 0.10389 0.58994 0.0
C543 C 0.55371 0.06623 0.60361 0.0
C544 C 0.49889 0.14517 0.65018 0.0
O545 O 0.52113 0.07689 0.65721 0.0
O546 O 0.47682 0.0797 0.67067 0.0
C547 C 0.4359 0.0439 0.64223 0.0
N548 N 0.43287 0.07059 0.63439 0.0
C549 C 0.39269 0.05965 0.60777 0.0
C550 C 0.39526 0.03208 0.61572 0.0
C551 C 0.417 0.02417 0.63298 0.0
C552 C 0.41198 0.07845 0.61785 0.0
H553 H 0.45263 0.03768 0.65541 0.0
C554 C 0.50171 0.07168 0.67401 0.0
O555 O 0.55953 0.08988 0.61449 0.0
O556 O 0.52812 0.0591 0.60215 0.0
N557 N 0.43157 0.12203 0.61973 0.0
C558 C 0.43333 0.14892 0.61215 0.0
C559 C 0.41395 0.15978 0.59374 0.0
C560 C 0.39295 0.14293 0.5834 0.0
C561 C 0.39154 0.11533 0.59152 0.0
C562 C 0.41137 0.10566 0.60998 0.0
H563 H 0.44952 0.16194 0.6199 0.0
O564 O 0.50845 0.10966 0.58298 0.0
O565 O 0.48012 0.09317 0.61417 0.0
O566 O 0.51745 0.13271 0.63657 0.0
O567 O 0.47515 0.13507 0.65491 0.0
C568 C 0.37155 0.09691 0.58161 0.0
C569 C 0.37214 0.06908 0.58969 0.0
H570 H 0.38088 0.01676 0.60842 0.0
H571 H 0.41924 0.0029 0.63905 0.0
H572 H 0.41526 0.18107 0.58747 0.0
H573 H 0.37816 0.15132 0.56904 0.0
H574 H 0.35583 0.10387 0.56749 0.0
H575 H 0.35695 0.05502 0.58154 0.0
Mn576 Mn 0.86618 0.48498 0.60163 0.0
Mn577 Mn 0.84524 0.55052 0.60933 0.0
C578 C 0.89718 0.51837 0.61461 0.0
C579 C 0.88203 0.45016 0.57346 0.0
C580 C 0.83393 0.50578 0.6511 0.0
O581 O 0.83003 0.48591 0.58119 0.0
O582 O 0.81883 0.53072 0.58511 0.0
C583 C 0.8523 0.57024 0.55218 0.0
N584 N 0.85836 0.57236 0.57942 0.0
C585 C 0.88795 0.61111 0.57117 0.0
C586 C 0.88186 0.60946 0.54307 0.0
C587 C 0.86401 0.58889 0.53354 0.0
C588 C 0.87552 0.59207 0.58882 0.0
H589 H 0.83867 0.55441 0.54472 0.0
C590 C 0.81471 0.50643 0.57574 0.0
O591 O 0.86892 0.44442 0.59599 0.0
O592 O 0.88576 0.47581 0.56738 0.0
N593 N 0.8696 0.57178 0.63172 0.0
C594 C 0.87511 0.56917 0.65905 0.0
C595 C 0.89367 0.58735 0.67157 0.0
C596 C 0.90625 0.60808 0.65593 0.0
C597 C 0.9002 0.6104 0.62786 0.0
C598 C 0.88151 0.59173 0.61651 0.0
H599 H 0.86559 0.55323 0.67118 0.0
O600 O 0.90212 0.49267 0.61986 0.0
O601 O 0.87418 0.52354 0.6021 0.0
O602 O 0.84659 0.48662 0.63856 0.0
O603 O 0.83137 0.53008 0.64153 0.0
C604 C 0.91235 0.63022 0.61062 0.0
C605 C 0.90631 0.63052 0.58228 0.0
H606 H 0.89102 0.62367 0.52859 0.0
H607 H 0.85935 0.58737 0.51185 0.0
H608 H 0.89831 0.58535 0.69322 0.0
H609 H 0.9207 0.62195 0.66562 0.0
H610 H 0.92661 0.64514 0.61891 0.0
H611 H 0.91621 0.64553 0.56916 0.0
Mn612 Mn 0.13174 0.99564 0.59997 0.0
Mn613 Mn 0.15003 0.92989 0.61169 0.0
C614 C 0.09964 0.9646 0.61564 0.0
C615 C 0.11669 0.02931 0.56995 0.0
C616 C 0.16399 0.97674 0.65024 0.0
O617 O 0.16735 0.99173 0.57903 0.0
O618 O 0.17688 0.94684 0.58569 0.0
C619 C 0.14112 0.90669 0.55614 0.0
N620 N 0.13533 0.90677 0.58353 0.0
C621 C 0.10305 0.86969 0.57818 0.0
C622 C 0.10883 0.86909 0.54997 0.0
C623 C 0.12792 0.8877 0.53891 0.0
C624 C 0.11708 0.88886 0.59441 0.0
H625 H 0.15562 0.92107 0.54748 0.0
C626 C 0.18171 0.97029 0.57459 0.0
O627 O 0.13058 0.03582 0.59177 0.0
O628 O 0.11181 0.00352 0.56554 0.0
N629 N 0.12504 0.91138 0.63583 0.0
C630 C 0.12012 0.91609 0.663 0.0
C631 C 0.10054 0.90009 0.67688 0.0
C632 C 0.08624 0.87942 0.66274 0.0
C633 C 0.09169 0.8749 0.63482 0.0
C634 C 0.11157 0.89136 0.62209 0.0
H635 H 0.13086 0.9321 0.67395 0.0
O636 O 0.09594 0.99077 0.61933 0.0
O637 O 0.12215 0.95761 0.60312 0.0
O638 O 0.15198 0.99553 0.63654 0.0
O639 O 0.16539 0.95176 0.6423 0.0
C640 C 0.07773 0.85511 0.61899 0.0
C641 C 0.08339 0.85252 0.59069 0.0
H642 H 0.09847 0.85468 0.53656 0.0
H643 H 0.13235 0.88749 0.51712 0.0
H644 H 0.09636 0.9038 0.6984 0.0
H645 H 0.07095 0.86731 0.67345 0.0
H646 H 0.06233 0.84202 0.62831 0.0
H647 H 0.07216 0.83755 0.57865 0.0
Mn648 Mn 0.87432 0.51791 0.90206 0.0
Mn649 Mn 0.85181 0.45272 0.89647 0.0
C650 C 0.90493 0.48315 0.89205 0.0
C651 C 0.88966 0.55326 0.92983 0.0
C652 C 0.84272 0.49615 0.85275 0.0
O653 O 0.83725 0.51882 0.92076 0.0
O654 O 0.8254 0.47401 0.91934 0.0
C655 C 0.85679 0.4345 0.9543 0.0
N656 N 0.86364 0.43151 0.92733 0.0
C657 C 0.89213 0.3924 0.93752 0.0
C658 C 0.88522 0.39495 0.96537 0.0
C659 C 0.86753 0.41614 0.97379 0.0
C660 C 0.88061 0.41115 0.91899 0.0
H661 H 0.84328 0.45082 0.96091 0.0
C662 C 0.82144 0.49891 0.92702 0.0
O663 O 0.87797 0.55858 0.90643 0.0
O664 O 0.89244 0.52776 0.93688 0.0
N665 N 0.87626 0.43026 0.87536 0.0
C666 C 0.88266 0.43202 0.84816 0.0
C667 C 0.90126 0.41317 0.83672 0.0
C668 C 0.91301 0.39269 0.85331 0.0
C669 C 0.90609 0.39127 0.88123 0.0
C670 C 0.88738 0.41056 0.89149 0.0
H671 H 0.8738 0.4478 0.83533 0.0
O672 O 0.91086 0.50845 0.88591 0.0
O673 O 0.88117 0.47922 0.90355 0.0
O674 O 0.85627 0.51528 0.86439 0.0
O675 O 0.83902 0.47246 0.86339 0.0
C676 C 0.91741 0.37179 0.89939 0.0
C677 C 0.91049 0.37237 0.92752 0.0
H678 H 0.89365 0.38098 0.9805 0.0
H679 H 0.86225 0.41836 0.99528 0.0
H680 H 0.9066 0.41449 0.81517 0.0
H681 H 0.92751 0.37831 0.84444 0.0
H682 H 0.93173 0.35646 0.89197 0.0
H683 H 0.91973 0.35759 0.94136 0.0
Mn684 Mn 0.12828 0.99006 0.9022 0.0
Mn685 Mn 0.15187 0.0538 0.88909 0.0
C686 C 0.09821 0.02408 0.88865 0.0
C687 C 0.11205 0.95806 0.93343 0.0
C688 C 0.15982 0.00559 0.85047 0.0
O689 O 0.16543 0.99064 0.9208 0.0
O690 O 0.17812 0.03476 0.91411 0.0
C691 C 0.14786 0.07869 0.94446 0.0
N692 N 0.14064 0.07859 0.91742 0.0
C693 C 0.1122 0.11859 0.92347 0.0
C694 C 0.1195 0.11922 0.95133 0.0
C695 C 0.13737 0.09916 0.96186 0.0
C696 C 0.12359 0.09791 0.90702 0.0
H697 H 0.16146 0.06322 0.95271 0.0
C698 C 0.18164 0.01086 0.92469 0.0
O699 O 0.12377 0.95018 0.91079 0.0
O700 O 0.10999 0.9842 0.93794 0.0
N701 N 0.12749 0.07406 0.86577 0.0
C702 C 0.12076 0.06926 0.83902 0.0
C703 C 0.10195 0.08665 0.82577 0.0
C704 C 0.09026 0.10878 0.84012 0.0
C705 C 0.0975 0.11333 0.86762 0.0
C706 C 0.1165 0.09542 0.87971 0.0
H707 H 0.12948 0.05214 0.82794 0.0
O708 O 0.09186 0.99838 0.88523 0.0
O709 O 0.12213 0.02881 0.89948 0.0
O710 O 0.14611 0.98817 0.86439 0.0
O711 O 0.16407 0.03026 0.85832 0.0
C712 C 0.08615 0.13456 0.88367 0.0
C713 C 0.0935 0.13721 0.91157 0.0
H714 H 0.1112 0.13479 0.96489 0.0
H715 H 0.14294 0.0994 0.98338 0.0
H716 H 0.09636 0.08292 0.80458 0.0
H717 H 0.07555 0.122 0.8299 0.0
H718 H 0.07146 0.14876 0.87484 0.0
H719 H 0.08428 0.15334 0.9238 0.0
Mn720 Mn 0.60074 0.86546 0.48959 0.0
Mn721 Mn 0.61022 0.8467 0.55558 0.0
C722 C 0.61569 0.89726 0.52131 0.0
C723 C 0.57176 0.88086 0.45521 0.0
C724 C 0.65 0.83255 0.50985 0.0
O725 O 0.57938 0.82999 0.49266 0.0
O726 O 0.58455 0.82026 0.53771 0.0
C727 C 0.5541 0.85611 0.57717 0.0
N728 N 0.58155 0.86151 0.57799 0.0
C729 C 0.57558 0.89296 0.61567 0.0
C730 C 0.54729 0.88757 0.61535 0.0
C731 C 0.53651 0.86912 0.59597 0.0
C732 C 0.59215 0.87922 0.59657 0.0
H733 H 0.54568 0.84204 0.56223 0.0
C734 C 0.57424 0.81559 0.51391 0.0
O735 O 0.59369 0.86689 0.44919 0.0
O736 O 0.56672 0.88567 0.48089 0.0
N737 N 0.63407 0.87124 0.57498 0.0
C738 C 0.66141 0.8759 0.57109 0.0
C739 C 0.67509 0.89491 0.58791 0.0
C740 C 0.66058 0.90884 0.6086 0.0
C741 C 0.63249 0.90365 0.61226 0.0
C742 C 0.61995 0.88443 0.59493 0.0
H743 H 0.67266 0.86537 0.55514 0.0
O744 O 0.6202 0.90111 0.49528 0.0
O745 O 0.6028 0.8748 0.52776 0.0
O746 O 0.63716 0.8449 0.49068 0.0
O747 O 0.64122 0.83113 0.53454 0.0
C748 C 0.61633 0.91718 0.63208 0.0
C749 C 0.58789 0.91191 0.63375 0.0
H750 H 0.53361 0.89774 0.62966 0.0
H751 H 0.51466 0.865 0.59548 0.0
H752 H 0.69676 0.89888 0.58487 0.0
H753 H 0.67117 0.92364 0.6214 0.0
H754 H 0.62553 0.93194 0.64594 0.0
H755 H 0.5756 0.92284 0.64874 0.0
Mn756 Mn 0.60059 0.13002 0.99449 0.0
Mn757 Mn 0.61254 0.14866 0.9289 0.0
C758 C 0.61632 0.09803 0.96335 0.0
C759 C 0.57029 0.11496 0.02791 0.0
C760 C 0.65083 0.1625 0.97602 0.0
O761 O 0.5798 0.16572 0.99067 0.0
O762 O 0.58628 0.1753 0.94577 0.0
C763 C 0.55722 0.13954 0.90525 0.0
N764 N 0.58464 0.1339 0.90551 0.0
C765 C 0.57974 0.10175 0.86827 0.0
C766 C 0.5515 0.10738 0.86748 0.0
C767 C 0.5402 0.12633 0.88608 0.0
C768 C 0.59575 0.11578 0.88762 0.0
H769 H 0.54838 0.15394 0.91962 0.0
C770 C 0.57524 0.18008 0.96925 0.0
O771 O 0.59215 0.12869 0.03462 0.0
O772 O 0.56603 0.11018 0.00208 0.0
N773 N 0.63696 0.12387 0.91049 0.0
C774 C 0.6641 0.11908 0.9154 0.0
C775 C 0.67821 0.09964 0.89944 0.0
C776 C 0.66431 0.08536 0.87859 0.0
C777 C 0.6364 0.09067 0.87387 0.0
C778 C 0.62344 0.11041 0.89031 0.0
H779 H 0.67488 0.12981 0.93154 0.0
O780 O 0.61985 0.09416 0.98953 0.0
O781 O 0.6039 0.12063 0.95644 0.0
O782 O 0.63723 0.15014 0.99466 0.0
O783 O 0.64291 0.16416 0.95105 0.0
C784 C 0.6208 0.07672 0.8539 0.0
C785 C 0.59249 0.08223 0.85111 0.0
H786 H 0.53826 0.09701 0.85293 0.0
H787 H 0.51839 0.13063 0.88572 0.0
H788 H 0.69973 0.09556 0.90329 0.0
H789 H 0.6752 0.07017 0.8665 0.0
H790 H 0.6303 0.06144 0.84081 0.0
H791 H 0.58062 0.07101 0.836 0.0
Mn792 Mn 0.40112 0.37258 0.99621 0.0
Mn793 Mn 0.38484 0.35148 0.93235 0.0
C794 C 0.3848 0.40366 0.96444 0.0
C795 C 0.43334 0.38846 0.02731 0.0
C796 C 0.34897 0.34094 0.98218 0.0
O797 O 0.42072 0.33614 0.99289 0.0
O798 O 0.41115 0.32471 0.94896 0.0
C799 C 0.43891 0.35737 0.90503 0.0
N800 N 0.41181 0.36416 0.90672 0.0
C801 C 0.41574 0.39484 0.86812 0.0
C802 C 0.44363 0.388 0.86585 0.0
C803 C 0.45526 0.3692 0.88441 0.0
C804 C 0.40036 0.38208 0.88883 0.0
H805 H 0.44803 0.34311 0.91937 0.0
C806 C 0.42349 0.32067 0.97193 0.0
O807 O 0.41156 0.37554 0.03572 0.0
O808 O 0.43653 0.3918 0.00109 0.0
N809 N 0.36027 0.37639 0.9143 0.0
C810 C 0.33367 0.38245 0.92062 0.0
C811 C 0.31942 0.40196 0.90485 0.0
C812 C 0.33265 0.41504 0.88278 0.0
C813 C 0.36 0.40845 0.87664 0.0
C814 C 0.3731 0.38865 0.89292 0.0
H815 H 0.32346 0.37271 0.93773 0.0
O816 O 0.38261 0.40873 0.99056 0.0
O817 O 0.39606 0.38034 0.95799 0.0
O818 O 0.36406 0.35357 0.99938 0.0
O819 O 0.3553 0.33806 0.95687 0.0
C820 C 0.37498 0.42123 0.85543 0.0
C821 C 0.40282 0.41441 0.85115 0.0
H822 H 0.45639 0.39736 0.8502 0.0
H823 H 0.47682 0.36398 0.88292 0.0
H824 H 0.29835 0.40704 0.90981 0.0
H825 H 0.32168 0.43031 0.87086 0.0
H826 H 0.36539 0.43662 0.84252 0.0
H827 H 0.41423 0.42472 0.83505 0.0
Mn828 Mn 0.90293 0.13198 0.99037 0.0
Mn829 Mn 0.88873 0.15416 0.05437 0.0
C830 C 0.8886 0.10121 0.02343 0.0
C831 C 0.93458 0.11621 0.95855 0.0
C832 C 0.85096 0.16325 0.00568 0.0
O833 O 0.92175 0.16898 0.99214 0.0
O834 O 0.91415 0.18077 0.03636 0.0
C835 C 0.94365 0.14947 0.08012 0.0
N836 N 0.9166 0.14232 0.0794 0.0
C837 C 0.92192 0.11296 0.11884 0.0
C838 C 0.94977 0.12018 0.12012 0.0
C839 C 0.96068 0.13848 0.10065 0.0
C840 C 0.90585 0.12486 0.09815 0.0
H841 H 0.9522 0.1634 0.06511 0.0
C842 C 0.92529 0.18472 0.01277 0.0
O843 O 0.91218 0.1283 0.95055 0.0
O844 O 0.93865 0.11358 0.98472 0.0
N845 N 0.86501 0.12939 0.07369 0.0
C846 C 0.83833 0.12283 0.06829 0.0
C847 C 0.82475 0.10366 0.08502 0.0
C848 C 0.83871 0.09143 0.10712 0.0
C849 C 0.86614 0.09851 0.1123 0.0
C850 C 0.87857 0.11789 0.09503 0.0
H851 H 0.82755 0.13196 0.05119 0.0
O852 O 0.8856 0.0955 0.99753 0.0
O853 O 0.89948 0.12495 0.02891 0.0
O854 O 0.86526 0.15004 0.98819 0.0
O855 O 0.85835 0.1669 0.03058 0.0
C856 C 0.8818 0.08663 0.13353 0.0
C857 C 0.90967 0.09386 0.13682 0.0
H858 H 0.96306 0.1115 0.13572 0.0
H859 H 0.98221 0.144 0.10138 0.0
H860 H 0.80362 0.0982 0.08081 0.0
H861 H 0.82824 0.07644 0.11982 0.0
H862 H 0.87271 0.07163 0.14723 0.0
H863 H 0.92161 0.08425 0.15295 0.0
C864 C 0.12432 0.06741 0.53667 0.0
C865 C 0.10629 0.04998 0.55072 0.0
C866 C 0.11504 0.08304 0.51421 0.0
C867 C 0.08709 0.08135 0.50626 0.0
C868 C 0.06848 0.06551 0.52209 0.0
C869 C 0.07845 0.04963 0.54386 0.0
C870 C 0.13566 0.09927 0.49772 0.0
C871 C 0.03841 0.06344 0.51465 0.0
C872 C 0.05045 0.12431 0.45271 0.0
C873 C 0.04873 0.10539 0.43114 0.0
C874 C 0.06509 0.11785 0.47676 0.0
C875 C 0.07785 0.09181 0.47914 0.0
C876 C 0.07758 0.07347 0.45661 0.0
C877 C 0.06252 0.08026 0.43316 0.0
C878 C 0.06512 0.13796 0.50031 0.0
C879 C 0.09136 0.04569 0.45808 0.0
H880 H 0.14596 0.06735 0.54196 0.0
H881 H 0.06462 0.03608 0.55492 0.0
H882 H 0.14348 0.08621 0.48075 0.0
H883 H 0.1263 0.1179 0.4885 0.0
H884 H 0.15347 0.10548 0.51055 0.0
H885 H 0.02617 0.05344 0.53112 0.0
H886 H 0.02971 0.08412 0.51064 0.0
H887 H 0.03613 0.05117 0.49558 0.0
H888 H 0.03934 0.14356 0.45125 0.0
H889 H 0.06026 0.06516 0.41696 0.0
H890 H 0.08588 0.13938 0.50962 0.0
H891 H 0.05082 0.13063 0.51649 0.0
H892 H 0.05851 0.15879 0.4937 0.0
H893 H 0.11305 0.04804 0.46464 0.0
H894 H 0.09093 0.03476 0.43806 0.0
H895 H 0.08084 0.03266 0.47355 0.0
C896 C 0.94397 0.36298 0.44902 0.0
C897 C 0.9428 0.38372 0.42914 0.0
C898 C 0.93081 0.36635 0.47452 0.0
C899 C 0.91677 0.39121 0.48012 0.0
C900 C 0.91404 0.4113 0.45927 0.0
C901 C 0.92756 0.40751 0.43428 0.0
C902 C 0.9337 0.34431 0.49609 0.0
C903 C 0.89881 0.43792 0.46414 0.0
C904 C 0.87388 0.41108 0.54165 0.0
C905 C 0.89218 0.42892 0.55479 0.0
C906 C 0.88225 0.3961 0.51842 0.0
C907 C 0.90952 0.39903 0.50867 0.0
C908 C 0.9287 0.41478 0.52388 0.0
C909 C 0.91963 0.4299 0.54654 0.0
C910 C 0.86113 0.3796 0.50289 0.0
C911 C 0.9581 0.41818 0.5145 0.0
H912 H 0.95612 0.34473 0.44508 0.0
H913 H 0.92752 0.42399 0.41929 0.0
H914 H 0.94949 0.35063 0.51126 0.0
H915 H 0.91408 0.34141 0.50735 0.0
H916 H 0.94005 0.32437 0.48698 0.0
H917 H 0.89682 0.45035 0.44511 0.0
H918 H 0.87795 0.43367 0.47226 0.0
H919 H 0.90988 0.45038 0.47969 0.0
H920 H 0.85253 0.41061 0.54804 0.0
H921 H 0.93367 0.44376 0.5569 0.0
H922 H 0.87058 0.36216 0.49167 0.0
H923 H 0.8509 0.39313 0.48765 0.0
H924 H 0.84506 0.37156 0.51697 0.0
H925 H 0.97118 0.42758 0.53067 0.0
H926 H 0.95867 0.43166 0.49611 0.0
H927 H 0.96706 0.39808 0.50864 0.0
C928 C 0.05644 0.91595 0.07252 0.0
C929 C 0.04157 0.89159 0.07585 0.0
C930 C 0.07151 0.92098 0.04862 0.0
C931 C 0.07074 0.90161 0.02697 0.0
C932 C 0.05683 0.87632 0.03069 0.0
C933 C 0.04216 0.87166 0.05514 0.0
C934 C 0.08651 0.948 0.04574 0.0
C935 C 0.0558 0.85513 0.00813 0.0
C936 C 0.07296 0.94048 0.96022 0.0
C937 C 0.10075 0.93859 0.95336 0.0
C938 C 0.06238 0.92616 0.98277 0.0
C939 C 0.08032 0.9103 0.99934 0.0
C940 C 0.10815 0.90698 0.99142 0.0
C941 C 0.11805 0.92113 0.96826 0.0
C942 C 0.03247 0.92997 0.99018 0.0
C943 C 0.12809 0.89065 0.00861 0.0
H944 H 0.05509 0.93184 0.08806 0.0
H945 H 0.03024 0.85301 0.05761 0.0
H946 H 0.10802 0.94435 0.03914 0.0
H947 H 0.07645 0.96075 0.02975 0.0
H948 H 0.08677 0.95985 0.06523 0.0
H949 H 0.04812 0.83501 0.01571 0.0
H950 H 0.04192 0.8624 0.99158 0.0
H951 H 0.07646 0.85219 0.99896 0.0
H952 H 0.05974 0.95412 0.94855 0.0
H953 H 0.13968 0.92004 0.96298 0.0
H954 H 0.03085 0.94324 0.00865 0.0
H955 H 0.02285 0.90994 0.99522 0.0
H956 H 0.02062 0.93973 0.97329 0.0
H957 H 0.13691 0.90427 0.02461 0.0
H958 H 0.14532 0.88271 0.99593 0.0
H959 H 0.11791 0.87315 0.01908 0.0
C960 C 0.94589 0.63875 0.05783 0.0
C961 C 0.94481 0.6174 0.07706 0.0
C962 C 0.93358 0.63575 0.03187 0.0
C963 C 0.92056 0.61064 0.02511 0.0
C964 C 0.91792 0.58983 0.04526 0.0
C965 C 0.93054 0.5933 0.07078 0.0
C966 C 0.9362 0.65858 0.01111 0.0
C967 C 0.90372 0.56291 0.03916 0.0
C968 C 0.87969 0.59146 0.96203 0.0
C969 C 0.89889 0.57478 0.94864 0.0
C970 C 0.88705 0.60594 0.9859 0.0
C971 C 0.9142 0.60359 0.99614 0.0
C972 C 0.93424 0.58908 0.98078 0.0
C973 C 0.92619 0.5745 0.95739 0.0
C974 C 0.86501 0.62111 0.0015 0.0
C975 C 0.96351 0.58628 0.99071 0.0
H976 H 0.95728 0.65726 0.06268 0.0
H977 H 0.93054 0.57642 0.08532 0.0
H978 H 0.95226 0.65314 0.99588 0.0
H979 H 0.91662 0.66141 -0.00023 0.0
H980 H 0.94199 0.67834 0.02095 0.0
H981 H 0.90161 0.54982 0.05775 0.0
H982 H 0.88295 0.56674 0.03061 0.0
H983 H 0.91561 0.5513 0.02355 0.0
H984 H 0.85844 0.59129 0.95532 0.0
H985 H 0.94088 0.56139 0.94693 0.0
H986 H 0.87359 0.63808 0.01406 0.0
H987 H 0.85444 0.60651 0.01547 0.0
H988 H 0.84935 0.62961 0.98724 0.0
H989 H 0.97167 0.60644 0.99749 0.0
H990 H 0.97727 0.57791 0.97453 0.0
H991 H 0.96411 0.57218 0.00863 0.0
C992 C 0.4327 0.06157 0.07809 0.0
C993 C 0.43063 0.04767 0.10316 0.0
C994 C 0.45619 0.07663 0.0714 0.0
C995 C 0.4787 0.07678 0.08978 0.0
C996 C 0.47623 0.06395 0.11579 0.0
C997 C 0.45216 0.04932 0.12214 0.0
C998 C 0.45774 0.09049 0.04366 0.0
C999 C 0.49974 0.06387 0.13594 0.0
C1000 C 0.54364 0.07693 0.04792 0.0
C1001 C 0.55078 0.1047 0.04839 0.0
C1002 C 0.52165 0.06713 0.0636 0.0
C1003 C 0.50589 0.08586 0.07937 0.0
C1004 C 0.51406 0.11374 0.08115 0.0
C1005 C 0.53673 0.12284 0.06572 0.0
C1006 C 0.51396 0.03714 0.06143 0.0
C1007 C 0.49763 0.13446 0.09729 0.0
H1008 H 0.41653 0.05938 0.06295 0.0
H1009 H 0.45066 0.03813 0.14135 0.0
H1010 H 0.46449 0.11212 0.04607 0.0
H1011 H 0.47311 0.07988 0.03059 0.0
H1012 H 0.4377 0.09026 0.03276 0.0
H1013 H 0.49306 0.0573 0.15676 0.0
H1014 H 0.51586 0.04948 0.12866 0.0
H1015 H 0.50917 0.08457 0.13737 0.0
H1016 H 0.55469 0.06303 0.03444 0.0
H1017 H 0.54223 0.14443 0.06573 0.0
H1018 H 0.49488 0.03506 0.04913 0.0
H1019 H 0.50985 0.02841 0.08208 0.0
H1020 H 0.53033 0.02478 0.05141 0.0
H1021 H 0.48066 0.14226 0.08422 0.0
H1022 H 0.5105 0.15227 0.10344 0.0
H1023 H 0.48839 0.12519 0.11596 0.0
C1024 C 0.57 0.44972 0.07463 0.0
C1025 C 0.5715 0.46327 0.09991 0.0
C1026 C 0.54718 0.43374 0.06774 0.0
C1027 C 0.52472 0.43233 0.08613 0.0
C1028 C 0.52654 0.44506 0.11222 0.0
C1029 C 0.54999 0.46057 0.1188 0.0
C1030 C 0.54631 0.41999 0.03994 0.0
C1031 C 0.50301 0.44388 0.13233 0.0
C1032 C 0.45927 0.42801 0.04515 0.0
C1033 C 0.45347 0.39995 0.04643 0.0
C1034 C 0.4811 0.43917 0.0601 0.0
C1035 C 0.4981 0.42157 0.07588 0.0
C1036 C 0.49144 0.39332 0.07826 0.0
C1037 C 0.46888 0.38284 0.06361 0.0
C1038 C 0.4871 0.46951 0.0574 0.0
C1039 C 0.50926 0.37367 0.09427 0.0
H1040 H 0.58612 0.45274 0.05956 0.0
H1041 H 0.55102 0.47153 0.13816 0.0
H1042 H 0.54073 0.39801 0.04228 0.0
H1043 H 0.53035 0.42981 0.02696 0.0
H1044 H 0.56627 0.42136 0.02898 0.0
H1045 H 0.50902 0.45151 0.15298 0.0
H1046 H 0.48581 0.4567 0.12459 0.0
H1047 H 0.49528 0.42253 0.13431 0.0
H1048 H 0.44714 0.4411 0.03179 0.0
H1049 H 0.4644 0.36102 0.06423 0.0
H1050 H 0.50591 0.47248 0.04485 0.0
H1051 H 0.49096 0.47873 0.07789 0.0
H1052 H 0.46996 0.48081 0.04742 0.0
H1053 H 0.52564 0.36578 0.08053 0.0
H1054 H 0.49718 0.35579 0.10171 0.0
H1055 H 0.51923 0.38378 0.11209 0.0
C1056 C 0.5447 0.91842 0.43496 0.0
C1057 C 0.5527 0.89089 0.43422 0.0
C1058 C 0.5222 0.9276 0.41966 0.0
C1059 C 0.50685 0.90847 0.40399 0.0
C1060 C 0.5162 0.88101 0.40151 0.0
C1061 C 0.53932 0.87253 0.41661 0.0
C1062 C 0.51327 0.95719 0.42257 0.0
C1063 C 0.50042 0.8599 0.38524 0.0
C1064 C 0.43269 0.92842 0.4102 0.0
C1065 C 0.42847 0.94313 0.38589 0.0
C1066 C 0.45728 0.91445 0.41495 0.0
C1067 C 0.47867 0.91622 0.39534 0.0
C1068 C 0.47402 0.92979 0.37003 0.0
C1069 C 0.4489 0.94336 0.36566 0.0
C1070 C 0.46115 0.89974 0.44203 0.0
C1071 C 0.49623 0.93175 0.34853 0.0
H1072 H 0.55526 0.93251 0.44862 0.0
H1073 H 0.54551 0.85113 0.41633 0.0
H1074 H 0.50789 0.966 0.40225 0.0
H1075 H 0.49467 0.95824 0.43572 0.0
H1076 H 0.52949 0.97013 0.43207 0.0
H1077 H 0.51423 0.84335 0.37771 0.0
H1078 H 0.48478 0.85031 0.39877 0.0
H1079 H 0.48964 0.86923 0.36746 0.0
H1080 H 0.41731 0.92913 0.42629 0.0
H1081 H 0.44569 0.95514 0.34702 0.0
H1082 H 0.47656 0.91081 0.45465 0.0
H1083 H 0.46899 0.87864 0.43847 0.0
H1084 H 0.44176 0.89839 0.45398 0.0
H1085 H 0.51175 0.94709 0.3551 0.0
H1086 H 0.48788 0.93819 0.32828 0.0
H1087 H 0.50691 0.91175 0.34613 0.0
C1088 C 0.45285 0.57367 0.43688 0.0
C1089 C 0.44674 0.60163 0.43859 0.0
C1090 C 0.47577 0.56454 0.42215 0.0
C1091 C 0.49335 0.58405 0.40954 0.0
C1092 C 0.48598 0.61222 0.40948 0.0
C1093 C 0.46255 0.62072 0.42405 0.0
C1094 C 0.4826 0.53427 0.42245 0.0
C1095 C 0.50405 0.63379 0.39653 0.0
C1096 C 0.56596 0.55882 0.41658 0.0
C1097 C 0.57049 0.54667 0.39096 0.0
C1098 C 0.54189 0.57351 0.42193 0.0
C1099 C 0.52137 0.57519 0.4014 0.0
C1100 C 0.52644 0.56421 0.37495 0.0
C1101 C 0.55096 0.54975 0.37009 0.0
C1102 C 0.53759 0.58543 0.45025 0.0
C1103 C 0.50525 0.56616 0.35245 0.0
H1104 H 0.44053 0.55907 0.44837 0.0
H1105 H 0.45788 0.64244 0.42582 0.0
H1106 H 0.48855 0.52718 0.40163 0.0
H1107 H 0.50033 0.53062 0.43632 0.0
H1108 H 0.46507 0.5216 0.42975 0.0
H1109 H 0.49156 0.65131 0.38889 0.0
H1110 H 0.5183 0.64189 0.41236 0.0
H1111 H 0.51642 0.62545 0.37931 0.0
H1112 H 0.58066 0.5556 0.433 0.0
H1113 H 0.55442 0.53998 0.35037 0.0
H1114 H 0.52099 0.57405 0.46096 0.0
H1115 H 0.53112 0.60723 0.44869 0.0
H1116 H 0.55646 0.58433 0.46304 0.0
H1117 H 0.51393 0.56062 0.33208 0.0
H1118 H 0.4967 0.58727 0.35137 0.0
H1119 H 0.48799 0.55199 0.35707 0.0
C1120 C 0.07879 0.43355 0.06913 0.0
C1121 C 0.10426 0.43179 0.05594 0.0
C1122 C 0.07138 0.45697 0.08396 0.0
C1123 C 0.08944 0.47972 0.08457 0.0
C1124 C 0.11582 0.47758 0.07247 0.0
C1125 C 0.12291 0.45356 0.05808 0.0
C1126 C 0.04325 0.45817 0.09704 0.0
C1127 C 0.13564 0.50138 0.07284 0.0
C1128 C 0.04689 0.54423 0.08332 0.0
C1129 C 0.04668 0.55158 0.11104 0.0
C1130 C 0.06296 0.5223 0.07406 0.0
C1131 C 0.07842 0.50679 0.09326 0.0
C1132 C 0.07941 0.51511 0.12114 0.0
C1133 C 0.06363 0.53774 0.1297 0.0
C1134 C 0.06162 0.51443 0.04406 0.0
C1135 C 0.09516 0.4989 0.14234 0.0
H1136 H 0.06391 0.4172 0.06653 0.0
H1137 H 0.14243 0.45231 0.04743 0.0
H1138 H 0.04497 0.46493 0.11874 0.0
H1139 H 0.03029 0.47338 0.08608 0.0
H1140 H 0.0326 0.438 0.09651 0.0
H1141 H 0.15672 0.49497 0.06689 0.0
H1142 H 0.12854 0.51732 0.05816 0.0
H1143 H 0.13635 0.51093 0.09352 0.0
H1144 H 0.03371 0.55511 0.06902 0.0
H1145 H 0.0631 0.5434 0.15124 0.0
H1146 H 0.04962 0.49518 0.04178 0.0
H1147 H 0.08253 0.51053 0.03587 0.0
H1148 H 0.05171 0.53061 0.03137 0.0
H1149 H 0.08222 0.48158 0.14956 0.0
H1150 H 0.10041 0.51177 0.16043 0.0
H1151 H 0.11434 0.49014 0.13366 0.0
C1152 C 0.04281 0.45795 0.42775 0.0
C1153 C 0.04336 0.45197 0.39971 0.0
C1154 C 0.05804 0.47986 0.43838 0.0
C1155 C 0.07337 0.49674 0.42027 0.0
C1156 C 0.07505 0.48989 0.39202 0.0
C1157 C 0.06013 0.46726 0.38206 0.0
C1158 C 0.05608 0.48608 0.46873 0.0
C1159 C 0.09057 0.50757 0.37186 0.0
C1160 C 0.07263 0.56878 0.44802 0.0
C1161 C 0.09816 0.57035 0.46108 0.0
C1162 C 0.06545 0.54589 0.43227 0.0
C1163 C 0.08384 0.52345 0.43059 0.0
C1164 C 0.11019 0.52537 0.44275 0.0
C1165 C 0.11703 0.54887 0.45806 0.0
C1166 C 0.03737 0.54491 0.41911 0.0
C1167 C 0.13032 0.50187 0.44124 0.0
H1168 H 0.02976 0.44593 0.44125 0.0
H1169 H 0.06018 0.46265 0.36027 0.0
H1170 H 0.07678 0.49 0.47742 0.0
H1171 H 0.04361 0.5049 0.47187 0.0
H1172 H 0.04638 0.46902 0.4804 0.0
H1173 H 0.09749 0.4954 0.35384 0.0
H1174 H 0.07667 0.52397 0.36428 0.0
H1175 H 0.10868 0.51753 0.38144 0.0
H1176 H 0.0576 0.58488 0.4513 0.0
H1177 H 0.13661 0.54997 0.46862 0.0
H1178 H 0.0246 0.52904 0.42934 0.0
H1179 H 0.03924 0.53916 0.39713 0.0
H1180 H 0.02645 0.5649 0.42054 0.0
H1181 H 0.12296 0.48477 0.45441 0.0
H1182 H 0.15115 0.508 0.44828 0.0
H1183 H 0.13176 0.49397 0.41991 0.0
C1184 C 0.91825 0.92919 0.45148 0.0
C1185 C 0.89266 0.92544 0.46397 0.0
C1186 C 0.92401 0.9529 0.43635 0.0
C1187 C 0.90399 0.97389 0.4346 0.0
C1188 C 0.87761 0.96974 0.44617 0.0
C1189 C 0.87229 0.94551 0.46099 0.0
C1190 C 0.95223 0.95624 0.42386 0.0
C1191 C 0.85569 0.99154 0.44434 0.0
C1192 C 0.94069 0.04186 0.43261 0.0
C1193 C 0.94126 0.04721 0.40445 0.0
C1194 C 0.92612 0.01936 0.44299 0.0
C1195 C 0.91253 0.0014 0.42453 0.0
C1196 C 0.91158 0.00787 0.39616 0.0
C1197 C 0.92599 0.0309 0.38641 0.0
C1198 C 0.92739 0.01348 0.47344 0.0
C1199 C 0.89767 0.98932 0.37565 0.0
H1200 H 0.93435 0.91414 0.45469 0.0
H1201 H 0.85263 0.9427 0.47108 0.0
H1202 H 0.95042 0.9619 0.40185 0.0
H1203 H 0.9634 0.97307 0.43441 0.0
H1204 H 0.96473 0.93721 0.42549 0.0
H1205 H 0.83529 0.98371 0.45091 0.0
H1206 H 0.86136 0.00911 0.4577 0.0
H1207 H 0.85409 -0.00058 0.423 0.0
H1208 H 0.95273 0.05458 0.44639 0.0
H1209 H 0.92687 0.03501 0.36452 0.0
H1210 H 0.94111 0.99565 0.47717 0.0
H1211 H 0.90674 0.00808 0.48143 0.0
H1212 H 0.93539 0.03128 0.48527 0.0
H1213 H 0.91295 0.97435 0.36779 0.0
H1214 H 0.8899 0.00127 0.35782 0.0
H1215 H 0.88036 0.97774 0.38491 0.0
C1216 C 0.36686 0.5489 0.54606 0.0
C1217 C 0.38762 0.56878 0.54524 0.0
C1218 C 0.37123 0.52368 0.55943 0.0
C1219 C 0.39706 0.51833 0.57168 0.0
C1220 C 0.41736 0.53914 0.57231 0.0
C1221 C 0.41256 0.56387 0.55859 0.0
C1222 C 0.34899 0.50214 0.55883 0.0
C1223 C 0.44501 0.53452 0.58564 0.0
C1224 C 0.41854 0.45791 0.61546 0.0
C1225 C 0.43486 0.44368 0.59657 0.0
C1226 C 0.40364 0.48122 0.60723 0.0
C1227 C 0.40511 0.49 0.57951 0.0
C1228 C 0.41938 0.4738 0.55995 0.0
C1229 C 0.43448 0.45105 0.56887 0.0
C1230 C 0.38889 0.4978 0.62883 0.0
C1231 C 0.42116 0.48211 0.5301 0.0
H1232 H 0.34771 0.55267 0.53532 0.0
H1233 H 0.42897 0.57885 0.55706 0.0
H1234 H 0.35461 0.4859 0.54384 0.0
H1235 H 0.34692 0.4922 0.57925 0.0
H1236 H 0.32881 0.51092 0.55277 0.0
H1237 H 0.45761 0.55353 0.58621 0.0
H1238 H 0.44227 0.52696 0.60697 0.0
H1239 H 0.45657 0.51862 0.5741 0.0
H1240 H 0.41923 0.45225 0.637 0.0
H1241 H 0.44728 0.4399 0.55441 0.0
H1242 H 0.37177 0.51004 0.62008 0.0
H1243 H 0.40375 0.51213 0.6385 0.0
H1244 H 0.38068 0.48425 0.64526 0.0
H1245 H 0.40066 0.48812 0.52218 0.0
H1246 H 0.42942 0.46532 0.51703 0.0
H1247 H 0.43492 0.50018 0.52806 0.0
C1248 C 0.6148 0.58801 0.02805 0.0
C1249 C 0.59676 0.57296 0.04458 0.0
C1250 C 0.60524 0.60125 0.00425 0.0
C1251 C 0.57708 0.59918 0.99712 0.0
C1252 C 0.55851 0.58613 0.01538 0.0
C1253 C 0.56869 0.57287 0.03876 0.0
C1254 C 0.62587 0.61487 0.9856 0.0
C1255 C 0.52828 0.58366 0.00881 0.0
C1256 C 0.5406 0.63367 0.93759 0.0
C1257 C 0.53917 0.61183 0.91894 0.0
C1258 C 0.55503 0.63081 0.96244 0.0
C1259 C 0.56766 0.60538 0.96877 0.0
C1260 C 0.56751 0.5839 0.94918 0.0
C1261 C 0.55285 0.58725 0.92474 0.0
C1262 C 0.5554 0.65434 0.98257 0.0
C1263 C 0.5812 0.55662 0.95482 0.0
H1264 H 0.63663 0.58764 0.0325 0.0
H1265 H 0.55491 0.56094 0.05161 0.0
H1266 H 0.63549 0.59893 0.97245 0.0
H1267 H 0.61633 0.63061 0.97216 0.0
H1268 H 0.64251 0.62464 0.99778 0.0
H1269 H 0.51618 0.57642 0.02676 0.0
H1270 H 0.51988 0.6037 0.00193 0.0
H1271 H 0.52543 0.56877 0.99178 0.0
H1272 H 0.52967 0.65256 0.93314 0.0
H1273 H 0.55093 0.57006 0.91072 0.0
H1274 H 0.57641 0.6573 0.99092 0.0
H1275 H 0.54167 0.64952 0.00012 0.0
H1276 H 0.5484 0.67385 0.97301 0.0
H1277 H 0.60285 0.55988 0.96114 0.0
H1278 H 0.58094 0.54288 0.93661 0.0
H1279 H 0.57052 0.54604 0.97197 0.0
C1280 C 0.43191 0.93971 0.03911 0.0
C1281 C 0.40373 0.94051 0.04431 0.0
C1282 C 0.44224 0.92553 0.01634 0.0
C1283 C 0.42373 0.91252 0.99801 0.0
C1284 C 0.39531 0.91179 0.00429 0.0
C1285 C 0.3856 0.92585 0.02755 0.0
C1286 C 0.47274 0.92657 0.01065 0.0
C1287 C 0.37473 0.8985 0.98536 0.0
C1288 C 0.45139 0.91872 0.92608 0.0
C1289 C 0.46367 0.89304 0.92223 0.0
C1290 C 0.43609 0.92439 0.9497 0.0
C1291 C 0.43391 0.90417 0.97048 0.0
C1292 C 0.44521 0.87772 0.96616 0.0
C1293 C 0.46025 0.8725 0.94206 0.0
C1294 C 0.42386 0.9527 0.95321 0.0
C1295 C 0.44285 0.85557 0.98769 0.0
H1296 H 0.44575 0.95132 0.05215 0.0
H1297 H 0.3637 0.92693 0.03152 0.0
H1298 H 0.48055 0.9059 0.00508 0.0
H1299 H 0.4767 0.94044 0.99299 0.0
H1300 H 0.48455 0.93424 0.0286 0.0
H1301 H 0.35683 0.89056 0.99709 0.0
H1302 H 0.36699 0.91421 0.97077 0.0
H1303 H 0.38387 0.88142 0.97336 0.0
H1304 H 0.45491 0.93491 0.9112 0.0
H1305 H 0.47016 0.85276 0.93916 0.0
H1306 H 0.43449 0.96364 0.97014 0.0
H1307 H 0.40183 0.95107 0.95882 0.0
H1308 H 0.42566 0.96531 0.93427 0.0
H1309 H 0.44932 0.83518 0.97972 0.0
H1310 H 0.42139 0.8541 0.99525 0.0
H1311 H 0.45603 0.86089 0.00552 0.0
C1312 C 0.54629 0.36629 0.5476 0.0
C1313 C 0.54408 0.3872 0.56721 0.0
C1314 C 0.56044 0.37085 0.52282 0.0
C1315 C 0.572 0.39703 0.51761 0.0
C1316 C 0.57113 0.41756 0.53817 0.0
C1317 C 0.55674 0.41253 0.56247 0.0
C1318 C 0.56152 0.34834 0.50159 0.0
C1319 C 0.58367 0.44561 0.53373 0.0
C1320 C 0.61782 0.41965 0.45918 0.0
C1321 C 0.59905 0.43506 0.44383 0.0
C1322 C 0.609 0.40454 0.48214 0.0
C1323 C 0.58085 0.40499 0.48953 0.0
C1324 C 0.56159 0.41834 0.47223 0.0
C1325 C 0.57104 0.43359 0.44976 0.0
C1326 C 0.63032 0.39072 0.49985 0.0
C1327 C 0.53133 0.41909 0.47908 0.0
H1328 H 0.53612 0.34681 0.55122 0.0
H1329 H 0.55418 0.42901 0.57723 0.0
H1330 H 0.54716 0.35328 0.48459 0.0
H1331 H 0.58244 0.3468 0.49266 0.0
H1332 H 0.55568 0.32809 0.51036 0.0
H1333 H 0.58292 0.4585 0.55254 0.0
H1334 H 0.60541 0.44354 0.52721 0.0
H1335 H 0.57249 0.45652 0.51712 0.0
H1336 H 0.63958 0.42121 0.45464 0.0
H1337 H 0.55669 0.44576 0.43781 0.0
H1338 H 0.62158 0.37354 0.51202 0.0
H1339 H 0.63899 0.4061 0.51425 0.0
H1340 H 0.64751 0.38278 0.4871 0.0
H1341 H 0.5239 0.39837 0.48496 0.0
H1342 H 0.51879 0.42667 0.46157 0.0
H1343 H 0.52793 0.43296 0.49685 0.0
C1344 C 0.45025 0.07398 0.56598 0.0
C1345 C 0.4629 0.09968 0.56815 0.0
C1346 C 0.43439 0.06719 0.54305 0.0
C1347 C 0.4321 0.0862 0.52118 0.0
C1348 C 0.44389 0.11268 0.52371 0.0
C1349 C 0.45939 0.11908 0.54722 0.0
C1350 C 0.42166 0.03894 0.54144 0.0
C1351 C 0.44164 0.13349 0.50088 0.0
C1352 C 0.42828 0.04665 0.45488 0.0
C1353 C 0.40005 0.04655 0.44985 0.0
C1354 C 0.43925 0.06179 0.47669 0.0
C1355 C 0.42133 0.0764 0.49438 0.0
C1356 C 0.39287 0.07761 0.48835 0.0
C1357 C 0.38253 0.06271 0.46589 0.0
C1358 C 0.46979 0.06032 0.48203 0.0
C1359 C 0.37289 0.09245 0.50679 0.0
H1360 H 0.45389 0.05858 0.58165 0.0
H1361 H 0.46961 0.13881 0.54879 0.0
H1362 H 0.39955 0.04063 0.53618 0.0
H1363 H 0.43177 0.02685 0.52497 0.0
H1364 H 0.42366 0.02741 0.56103 0.0
H1365 H 0.44862 0.15419 0.50746 0.0
H1366 H 0.45443 0.12679 0.48324 0.0
H1367 H 0.4201 0.13494 0.49355 0.0
H1368 H 0.44167 0.03401 0.44231 0.0
H1369 H 0.36059 0.06226 0.46201 0.0
H1370 H 0.47369 0.04738 0.5004 0.0
H1371 H 0.47817 0.08108 0.48631 0.0
H1372 H 0.48117 0.05134 0.46439 0.0
H1373 H 0.36526 0.07785 0.52255 0.0
H1374 H 0.35486 0.09992 0.49496 0.0
H1375 H 0.38255 0.1101 0.51747 0.0
C1376 C 0.0395 0.56767 0.57235 0.0
C1377 C 0.04493 0.59582 0.57186 0.0
C1378 C 0.01644 0.55741 0.58612 0.0
C1379 C 0.99811 0.57597 0.59908 0.0
C1380 C 0.00489 0.60425 0.60056 0.0
C1381 C 0.02836 0.61389 0.5868 0.0
C1382 C 0.01024 0.52706 0.58426 0.0
C1383 C 0.98617 0.62488 0.61407 0.0
C1384 C 0.92581 0.55086 0.58841 0.0
C1385 C 0.92037 0.53762 0.61331 0.0
C1386 C 0.95011 0.56561 0.5845 0.0
C1387 C 0.96994 0.56632 0.60575 0.0
C1388 C 0.96399 0.5541 0.63148 0.0
C1389 C 0.93926 0.53956 0.63489 0.0
C1390 C 0.95534 0.57885 0.5569 0.0
C1391 C 0.98439 0.55505 0.65476 0.0
H1392 H 0.05237 0.55386 0.56049 0.0
H1393 H 0.03251 0.63577 0.58599 0.0
H1394 H 0.00367 0.51894 0.60452 0.0
H1395 H 0.9931 0.52373 0.56959 0.0
H1396 H 0.02828 0.51507 0.57706 0.0
H1397 H 0.99828 0.64178 0.62346 0.0
H1398 H 0.97275 0.63412 0.59813 0.0
H1399 H 0.973 0.61543 0.6301 0.0
H1400 H 0.9116 0.54855 0.57142 0.0
H1401 H 0.93509 0.52896 0.65404 0.0
H1402 H 0.97252 0.56819 0.54637 0.0
H1403 H 0.96141 0.60064 0.55969 0.0
H1404 H 0.93701 0.5781 0.54333 0.0
H1405 H 0.97514 0.54823 0.67449 0.0
H1406 H 0.99252 0.5762 0.6573 0.0
H1407 H 0.00204 0.54146 0.64995 0.0
C1408 C 0.95556 0.92522 0.57422 0.0
C1409 C 0.94753 0.8977 0.57447 0.0
C1410 C 0.97899 0.93378 0.58845 0.0
C1411 C 0.99513 0.91405 0.60254 0.0
C1412 C 0.98565 0.88662 0.60485 0.0
C1413 C 0.96173 0.87874 0.59074 0.0
C1414 C 0.98809 0.96333 0.58573 0.0
C1415 C 0.00208 0.86487 0.61956 0.0
C1416 C 0.06919 0.93241 0.59132 0.0
C1417 C 0.07548 0.94656 0.61549 0.0
C1418 C 0.04392 0.91923 0.58807 0.0
C1419 C 0.02403 0.92114 0.6092 0.0
C1420 C 0.03082 0.93408 0.63434 0.0
C1421 C 0.05652 0.94698 0.63711 0.0
C1422 C 0.03778 0.90514 0.56111 0.0
C1423 C 0.01034 0.93593 0.6575 0.0
H1424 H 0.94447 0.93972 0.56143 0.0
H1425 H 0.95557 0.85732 0.59053 0.0
H1426 H 0.995 0.9715 0.60583 0.0
H1427 H 0.00573 0.96453 0.57132 0.0
H1428 H 0.9714 0.97671 0.57774 0.0
H1429 H 0.98836 0.84892 0.6284 0.0
H1430 H 0.01584 0.8546 0.60456 0.0
H1431 H 0.01493 0.87365 0.63621 0.0
H1432 H 0.08348 0.93293 0.57425 0.0
H1433 H 0.06137 0.95827 0.65568 0.0
H1434 H 0.02172 0.91676 0.54984 0.0
H1435 H 0.02978 0.88414 0.56487 0.0
H1436 H 0.05622 0.90361 0.54775 0.0
H1437 H 0.02027 0.94198 0.67713 0.0
H1438 H -0.0003 0.91598 0.66041 0.0
H1439 H 0.99449 0.95149 0.65235 0.0
C1440 C 0.03254 0.38667 0.93187 0.0
C1441 C 0.0487 0.40497 0.94697 0.0
C1442 C 0.00971 0.39616 0.91699 0.0
C1443 C 0.00327 0.42456 0.91733 0.0
C1444 C 0.0211 0.44325 0.93077 0.0
C1445 C 0.04343 0.43313 0.94579 0.0
C1446 C 0.9913 0.3754 0.90327 0.0
C1447 C 0.01525 0.47372 0.9314 0.0
C1448 C 0.94782 0.4602 0.8758 0.0
C1449 C 0.92751 0.46352 0.89587 0.0
C1450 C 0.97201 0.44553 0.88167 0.0
C1451 C 0.97587 0.43446 0.9083 0.0
C1452 C 0.95465 0.43655 0.92806 0.0
C1453 C 0.93099 0.45152 0.92174 0.0
C1454 C 0.99406 0.44331 0.86003 0.0
C1455 C 0.95768 0.42459 0.95654 0.0
H1456 H 0.03658 0.36479 0.93323 0.0
H1457 H 0.05603 0.44711 0.95772 0.0
H1458 H 0.97618 0.3678 0.91854 0.0
H1459 H 0.9799 0.38435 0.88568 0.0
H1460 H 0.00333 0.35744 0.89593 0.0
H1461 H 0.03297 0.48568 0.93937 0.0
H1462 H 0.01008 0.48133 0.91055 0.0
H1463 H 0.99727 0.47771 0.94485 0.0
H1464 H 0.94522 0.46991 0.85592 0.0
H1465 H 0.91574 0.45499 0.9376 0.0
H1466 H 0.00194 0.42194 0.85889 0.0
H1467 H 0.01158 0.45676 0.86566 0.0
H1468 H 0.98647 0.44952 0.83943 0.0
H1469 H 0.96334 0.40255 0.9552 0.0
H1470 H 0.93853 0.42646 0.96881 0.0
H1471 H 0.97441 0.43533 0.96769 0.0
C1472 C 0.05503 0.04548 0.8711 0.0
C1473 C 0.07586 0.04424 0.89088 0.0
C1474 C 0.03091 0.06056 0.87612 0.0
C1475 C 0.02765 0.07423 0.9016 0.0
C1476 C 0.04945 0.07434 0.92081 0.0
C1477 C 0.07301 0.05887 0.91543 0.0
C1478 C 0.00818 0.06021 0.85509 0.0
C1479 C 0.04706 0.08908 0.94802 0.0
C1480 C 0.96971 0.12221 0.92187 0.0
C1481 C 0.95459 0.10492 0.93916 0.0
C1482 C 0.99274 0.11214 0.90761 0.0
C1483 C 0.00025 0.08417 0.91061 0.0
C1484 C 0.98348 0.06629 0.92635 0.0
C1485 C 0.9611 0.07704 0.9408 0.0
C1486 C 0.01017 0.13201 0.89145 0.0
C1487 C 0.99047 0.03624 0.92981 0.0
H1488 H 0.05714 0.03374 0.8523 0.0
H1489 H 0.08864 0.05703 0.93119 0.0
H1490 H 0.99142 0.04656 0.86233 0.0
H1491 H 0.99938 0.08108 0.85246 0.0
H1492 H 0.01546 0.05263 0.83483 0.0
H1493 H 0.06664 0.08885 0.95972 0.0
H1494 H 0.0408 0.11074 0.94467 0.0
H1495 H 0.03099 0.07915 0.96079 0.0
H1496 H 0.9647 0.1439 0.92096 0.0
H1497 H 0.94924 0.06382 0.95428 0.0
H1498 H 0.02037 0.12188 0.87376 0.0
H1499 H 0.0264 0.14036 0.90509 0.0
H1500 H 0.99775 0.14956 0.88379 0.0
H1501 H 0.9952 0.02676 0.90965 0.0
H1502 H 0.97347 0.02455 0.93959 0.0
H1503 H 0.00901 0.0342 0.94292 0.0
C1504 C 0.59074 0.03225 0.61156 0.0
C1505 C 0.57481 0.04758 0.59322 0.0
C1506 C 0.60481 0.00872 0.60255 0.0
C1507 C 0.60272 0.00071 0.57464 0.0
C1508 C 0.58901 0.01802 0.55565 0.0
C1509 C 0.57485 0.04108 0.5653 0.0
C1510 C 0.61916 0.99112 0.62359 0.0
C1511 C 0.58656 0.01053 0.52563 0.0
C1512 C 0.63706 0.93997 0.54003 0.0
C1513 C 0.61527 0.92123 0.53959 0.0
C1514 C 0.63429 0.96537 0.55351 0.0
C1515 C 0.60899 0.97208 0.56621 0.0
C1516 C 0.58757 0.95244 0.56707 0.0
C1517 C 0.59083 0.92749 0.55331 0.0
C1518 C 0.65772 0.9856 0.55276 0.0
C1519 C 0.56042 0.95849 0.58087 0.0
H1520 H 0.59034 0.03726 0.63327 0.0
H1521 H 0.5623 0.05305 0.55128 0.0
H1522 H 0.60369 0.97789 0.63386 0.0
H1523 H 0.63512 0.97777 0.61429 0.0
H1524 H 0.62882 0.0041 0.63968 0.0
H1525 H 0.57914 0.02807 0.51304 0.0
H1526 H 0.60664 0.00359 0.51739 0.0
H1527 H 0.5718 0.99331 0.52333 0.0
H1528 H 0.65584 0.93516 0.52905 0.0
H1529 H 0.57363 0.9134 0.55211 0.0
H1530 H 0.66077 0.99501 0.5733 0.0
H1531 H 0.65276 0.00242 0.53819 0.0
H1532 H 0.67723 0.97579 0.54612 0.0
H1533 H 0.5639 0.96548 0.60228 0.0
H1534 H 0.54669 0.94027 0.58132 0.0
H1535 H 0.5497 0.97527 0.56976 0.0
C1536 C 0.63783 0.05504 0.94547 0.0
C1537 C 0.6162 0.07399 0.94516 0.0
C1538 C 0.63509 0.02943 0.93238 0.0
C1539 C 0.60996 0.0227 0.91937 0.0
C1540 C 0.58882 0.04259 0.9176 0.0
C1541 C 0.59204 0.06777 0.93095 0.0
C1542 C 0.65828 0.00898 0.93407 0.0
C1543 C 0.56186 0.03652 0.90346 0.0
C1544 C 0.59149 0.96087 0.87631 0.0
C1545 C 0.57526 0.94643 0.89514 0.0
C1546 C 0.60564 0.98468 0.88445 0.0
C1547 C 0.60336 0.99386 0.91199 0.0
C1548 C 0.58933 0.97747 0.93156 0.0
C1549 C 0.5751 0.95412 0.92276 0.0
C1550 C 0.62034 0.00135 0.86288 0.0
C1551 C 0.58661 0.98624 0.9612 0.0
H1552 H 0.65638 0.05982 0.95681 0.0
H1553 H 0.57497 0.08206 0.93154 0.0
H1554 H 0.65317 0.99301 0.94952 0.0
H1555 H 0.6612 0.99849 0.91404 0.0
H1556 H 0.67791 0.0189 0.94017 0.0
H1557 H 0.54844 0.05494 0.90214 0.0
H1558 H 0.56563 0.02877 0.88237 0.0
H1559 H 0.55065 0.02029 0.91491 0.0
H1560 H 0.59121 0.95499 0.85482 0.0
H1561 H 0.56232 0.94287 0.93715 0.0
H1562 H 0.63704 0.01405 0.87179 0.0
H1563 H 0.60536 0.01526 0.85279 0.0
H1564 H 0.62913 0.9878 0.84675 0.0
H1565 H 0.60671 0.99309 0.96944 0.0
H1566 H 0.57866 0.9694 0.97441 0.0
H1567 H 0.57218 0.00385 0.9626 0.0
C1568 C 0.43314 0.54325 0.91867 0.0
C1569 C 0.43177 0.55109 0.89111 0.0
C1570 C 0.41815 0.52073 0.92831 0.0
C1571 C 0.40209 0.50523 0.90962 0.0
C1572 C 0.39893 0.51445 0.88219 0.0
C1573 C 0.4138 0.53755 0.87323 0.0
C1574 C 0.42184 0.51192 0.95785 0.0
C1575 C 0.38215 0.49855 0.86157 0.0
C1576 C 0.40922 0.4312 0.92976 0.0
C1577 C 0.38545 0.42699 0.94533 0.0
C1578 C 0.4134 0.45571 0.91546 0.0
C1579 C 0.39376 0.47703 0.91772 0.0
C1580 C 0.36891 0.47235 0.93211 0.0
C1581 C 0.36512 0.44732 0.94605 0.0
C1582 C 0.43999 0.45961 0.89991 0.0
C1583 C 0.34734 0.49444 0.93455 0.0
H1584 H 0.44711 0.55391 0.93237 0.0
H1585 H 0.41305 0.5436 0.85179 0.0
H1586 H 0.40177 0.50659 0.96722 0.0
H1587 H 0.43501 0.49331 0.95863 0.0
H1588 H 0.43169 0.52819 0.97047 0.0
H1589 H 0.37433 0.51222 0.84505 0.0
H1590 H 0.39538 0.48273 0.85185 0.0
H1591 H 0.36453 0.48794 0.8714 0.0
H1592 H 0.42539 0.41589 0.93004 0.0
H1593 H 0.3469 0.44412 0.95846 0.0
H1594 H 0.45289 0.47513 0.9105 0.0
H1595 H 0.43576 0.46732 0.87889 0.0
H1596 H 0.45197 0.44026 0.89829 0.0
H1597 H 0.35418 0.51 0.94973 0.0
H1598 H 0.32731 0.48597 0.94146 0.0
H1599 H 0.34442 0.50509 0.9146 0.0
C1600 C 0.91457 0.07508 0.05814 0.0
C1601 C 0.89033 0.07838 0.04308 0.0
C1602 C 0.91956 0.05113 0.07313 0.0
C1603 C 0.9003 0.02939 0.07207 0.0
C1604 C 0.87512 0.03307 0.05796 0.0
C1605 C 0.87048 0.05759 0.0434 0.0
C1606 C 0.94646 0.04828 0.08835 0.0
C1607 C 0.85404 0.01042 0.05661 0.0
C1608 C 0.93947 0.96284 0.07405 0.0
C1609 C 0.93733 0.95569 0.10174 0.0
C1610 C 0.92515 0.98542 0.06354 0.0
C1611 C 0.90905 0.00173 0.08149 0.0
C1612 C 0.9055 0.99354 0.10921 0.0
C1613 C 0.91963 0.97032 0.11902 0.0
C1614 C 0.9292 0.99312 0.03374 0.0
C1615 C 0.88893 0.01047 0.12917 0.0
H1616 H 0.93041 0.09069 0.057 0.0
H1617 H 0.85192 0.06005 0.03133 0.0
H1618 H 0.94265 0.04147 0.10977 0.0
H1619 H 0.9594 0.03245 0.07827 0.0
H1620 H 0.9582 0.06784 0.08888 0.0
H1621 H 0.83395 0.01796 0.04882 0.0
H1622 H 0.86151 0.99401 0.04266 0.0
H1623 H 0.85097 0.00108 0.07718 0.0
H1624 H 0.95327 0.95136 0.06083 0.0
H1625 H 0.91833 0.96481 0.14057 0.0
H1626 H 0.94238 0.01167 0.03239 0.0
H1627 H 0.90922 0.99814 0.02398 0.0
H1628 H 0.93915 0.97639 0.02182 0.0
H1629 H 0.90241 0.02644 0.13826 0.0
H1630 H 0.88087 0.9976 0.14621 0.0
H1631 H 0.87148 0.02097 0.11893 0.0
C1632 C 0.98496 0.19251 0.35492 0.0
C1633 C 0.00413 0.17752 0.33956 0.0
C1634 C 0.98069 0.22052 0.34996 0.0
C1635 C 0.99545 0.23368 0.32861 0.0
C1636 C 0.01341 0.21822 0.31176 0.0
C1637 C 0.01791 0.19035 0.31773 0.0
C1638 C 0.96169 0.23636 0.36874 0.0
C1639 C 0.02875 0.23135 0.28822 0.0
C1640 C 0.96763 0.30505 0.31554 0.0
C1641 C 0.98471 0.32079 0.33261 0.0
C1642 C 0.97235 0.27682 0.31191 0.0
C1643 C 0.99416 0.26406 0.32627 0.0
C1644 C 0.01262 0.28022 0.34186 0.0
C1645 C 0.00786 0.30845 0.34454 0.0
C1646 C 0.95286 0.2604 0.29427 0.0
C1647 C 0.03597 0.26738 0.3578 0.0
H1648 H 0.97436 0.18274 0.37191 0.0
H1649 H 0.03255 0.17873 0.30563 0.0
H1650 H 0.97365 0.25188 0.3804 0.0
H1651 H 0.94604 0.24756 0.35657 0.0
H1652 H 0.95095 0.22282 0.38366 0.0
H1653 H 0.0377 0.21576 0.27416 0.0
H1654 H 0.01497 0.24502 0.27626 0.0
H1655 H 0.04571 0.24417 0.29639 0.0
H1656 H 0.94989 0.31451 0.30595 0.0
H1657 H 0.02123 0.32041 0.35773 0.0
H1658 H 0.93825 0.24908 0.30761 0.0
H1659 H 0.96422 0.24501 0.28186 0.0
H1660 H 0.94083 0.27379 0.28024 0.0
H1661 H 0.02749 0.2545 0.37462 0.0
H1662 H 0.0498 0.28303 0.36699 0.0
H1663 H 0.04833 0.25377 0.34437 0.0
C1664 C 0.00286 0.69453 0.16306 0.0
C1665 C 0.98037 0.68094 0.1749 0.0
C1666 C 0.0063 0.7229 0.16612 0.0
C1667 C 0.9872 0.73797 0.18206 0.0
C1668 C 0.96597 0.72402 0.19621 0.0
C1669 C 0.96253 0.69566 0.19213 0.0
C1670 C 0.02902 0.73702 0.15034 0.0
C1671 C 0.94589 0.73924 0.21425 0.0
C1672 C 0.00974 0.81178 0.19174 0.0
C1673 C 0.99596 0.82468 0.16996 0.0
C1674 C 0.00533 0.78387 0.19757 0.0
C1675 C 0.9875 0.76844 0.18059 0.0
C1676 C 0.97246 0.78174 0.15953 0.0
C1677 C 0.9766 0.8098 0.15473 0.0
C1678 C 0.0209 0.77063 0.22088 0.0
C1679 C 0.95358 0.76594 0.14062 0.0
H1680 H 0.01674 0.68337 0.14969 0.0
H1681 H 0.94527 0.68523 0.2016 0.0
H1682 H 0.01995 0.75035 0.1342 0.0
H1683 H 0.04121 0.7504 0.16415 0.0
H1684 H 0.04315 0.72216 0.14032 0.0
H1685 H 0.93458 0.72508 0.22814 0.0
H1686 H 0.95661 0.75493 0.22685 0.0
H1687 H 0.93068 0.7501 0.20122 0.0
H1688 H 0.02451 0.82332 0.20377 0.0
H1689 H 0.96599 0.81963 0.13779 0.0
H1690 H 0.03831 0.75855 0.21252 0.0
H1691 H 0.00747 0.75627 0.23244 0.0
H1692 H 0.02928 0.78616 0.23535 0.0
H1693 H 0.96578 0.75114 0.12828 0.0
H1694 H 0.9422 0.77962 0.12631 0.0
H1695 H 0.93846 0.75391 0.15269 0.0
C1696 C 0.35503 0.98344 0.1903 0.0
C1697 C 0.33973 0.00283 0.17551 0.0
C1698 C 0.35051 0.97935 0.21841 0.0
C1699 C 0.32969 0.99455 0.23191 0.0
C1700 C 0.31285 0.01272 0.21669 0.0
C1701 C 0.31835 0.01698 0.18869 0.0
C1702 C 0.36925 0.9601 0.23399 0.0
C1703 C 0.28989 0.02856 0.23021 0.0
C1704 C 0.31681 0.96804 0.3039 0.0
C1705 C 0.33423 0.9851 0.31927 0.0
C1706 C 0.31322 0.97224 0.27558 0.0
C1707 C 0.32794 0.99353 0.26234 0.0
C1708 C 0.34409 0.01188 0.27807 0.0
C1709 C 0.34676 0.00764 0.30639 0.0
C1710 C 0.29505 0.95286 0.25962 0.0
C1711 C 0.36043 0.03466 0.2647 0.0
H1712 H 0.37167 0.97254 0.18027 0.0
H1713 H 0.30628 0.0318 0.17725 0.0
H1714 H 0.38158 0.97196 0.24905 0.0
H1715 H 0.35701 0.94487 0.2457 0.0
H1716 H 0.38355 0.94886 0.2202 0.0
H1717 H 0.27579 0.03787 0.21486 0.0
H1718 H 0.27783 0.01502 0.24404 0.0
H1719 H 0.29864 0.04529 0.24294 0.0
H1720 H 0.3068 0.95076 0.31377 0.0
H1721 H 0.36026 0.02096 0.31805 0.0
H1722 H 0.30801 0.93801 0.24817 0.0
H1723 H 0.28253 0.96426 0.24436 0.0
H1724 H 0.28109 0.94109 0.27332 0.0
H1725 H 0.37674 0.02562 0.25157 0.0
H1726 H 0.37029 0.04838 0.28003 0.0
H1727 H 0.34706 0.04726 0.25124 0.0
C1728 C 0.68153 0.49231 0.18745 0.0
C1729 C 0.6602 0.50701 0.17482 0.0
C1730 C 0.68627 0.49456 0.21579 0.0
C1731 C 0.66877 0.51132 0.23183 0.0
C1732 C 0.64822 0.52737 0.21893 0.0
C1733 C 0.64439 0.52525 0.19049 0.0
C1734 C 0.70894 0.47781 0.22872 0.0
C1735 C 0.6289 0.54525 0.23539 0.0
C1736 C 0.65016 0.49051 0.30422 0.0
C1737 C 0.66276 0.51127 0.3197 0.0
C1738 C 0.65304 0.48958 0.27563 0.0
C1739 C 0.66942 0.50954 0.26225 0.0
C1740 C 0.68395 0.52922 0.27791 0.0
C1741 C 0.6802 0.53006 0.3065 0.0
C1742 C 0.63698 0.46838 0.25961 0.0
C1743 C 0.70224 0.55029 0.26439 0.0
H1744 H 0.69403 0.47843 0.17532 0.0
H1745 H 0.62782 0.53658 0.18084 0.0
H1746 H 0.72045 0.49027 0.24394 0.0
H1747 H 0.69991 0.46008 0.23982 0.0
H1748 H 0.72358 0.46983 0.21313 0.0
H1749 H 0.61539 0.55794 0.22208 0.0
H1750 H 0.61574 0.53209 0.24859 0.0
H1751 H 0.64063 0.5591 0.24914 0.0
H1752 H 0.63662 0.47591 0.3142 0.0
H1753 H 0.69023 0.54601 0.31836 0.0
H1754 H 0.65075 0.45696 0.24552 0.0
H1755 H 0.62125 0.4788 0.2468 0.0
H1756 H 0.62644 0.45337 0.27321 0.0
H1757 H 0.71535 0.54056 0.24848 0.0
H1758 H 0.71566 0.56087 0.27952 0.0
H1759 H 0.68939 0.56599 0.25401 0.0
C1760 C 0.3048 0.31556 0.97456 0.0
C1761 C 0.32104 0.33276 0.99102 0.0
C1762 C 0.27665 0.31226 0.9799 0.0
C1763 C 0.26445 0.32706 0.00175 0.0
C1764 C 0.28112 0.3428 0.01961 0.0
C1765 C 0.30927 0.34518 0.01422 0.0
C1766 C 0.25968 0.29449 0.96101 0.0
C1767 C 0.26889 0.3592 0.04296 0.0
C1768 C 0.19297 0.35599 0.99285 0.0
C1769 C 0.17797 0.34084 0.0122 0.0
C1770 C 0.22095 0.35095 0.98857 0.0
C1771 C 0.23412 0.32974 0.00351 0.0
C1772 C 0.21872 0.31321 0.02182 0.0
C1773 C 0.19085 0.31924 0.0263 0.0
C1774 C 0.23673 0.3694 0.96919 0.0
C1775 C 0.23188 0.28987 0.03742 0.0
H1776 H 0.31382 0.30558 0.9568 0.0
H1777 H 0.32161 0.35847 0.02712 0.0
H1778 H 0.24447 0.28231 0.97287 0.0
H1779 H 0.2481 0.30773 0.94652 0.0
H1780 H 0.2727 0.28023 0.94884 0.0
H1781 H 0.2849 0.36827 0.05646 0.0
H1782 H 0.25618 0.37614 0.03447 0.0
H1783 H 0.25523 0.34614 0.05567 0.0
H1784 H 0.18319 0.37281 0.98201 0.0
H1785 H 0.17925 0.3073 0.0411 0.0
H1786 H 0.24757 0.35696 0.95348 0.0
H1787 H 0.25256 0.38099 0.98081 0.0
H1788 H 0.22322 0.38438 0.9585 0.0
H1789 H 0.24514 0.27747 0.02362 0.0
H1790 H 0.21632 0.27617 0.04699 0.0
H1791 H 0.24515 0.29824 0.05393 0.0
C1792 C 0.18975 0.64323 0.52156 0.0
C1793 C 0.17388 0.659 0.50346 0.0
C1794 C 0.21814 0.64735 0.52369 0.0
C1795 C 0.23081 0.66818 0.5078 0.0
C1796 C 0.21459 0.6855 0.49103 0.0
C1797 C 0.1863 0.68046 0.48875 0.0
C1798 C 0.23481 0.62817 0.54154 0.0
C1799 C 0.22727 0.70845 0.47447 0.0
C1800 C 0.30475 0.68041 0.52845 0.0
C1801 C 0.31861 0.6631 0.51001 0.0
C1802 C 0.2762 0.68403 0.52672 0.0
C1803 C 0.26122 0.6695 0.50652 0.0
C1804 C 0.27531 0.65343 0.4868 0.0
C1805 C 0.30387 0.65068 0.48861 0.0
C1806 C 0.26195 0.70206 0.54753 0.0
C1807 C 0.26004 0.63735 0.46508 0.0
H1808 H 0.18028 0.62655 0.53288 0.0
H1809 H 0.17402 0.6929 0.47495 0.0
H1810 H 0.24861 0.61561 0.52844 0.0
H1811 H 0.24796 0.64005 0.55584 0.0
H1812 H 0.22165 0.61408 0.55377 0.0
H1813 H 0.2115 0.72281 0.46633 0.0
H1814 H 0.24211 0.72023 0.48713 0.0
H1815 H 0.23876 0.69969 0.45685 0.0
H1816 H 0.31606 0.69032 0.54487 0.0
H1817 H 0.31437 0.63725 0.47428 0.0
H1818 H 0.2515 0.68899 0.56301 0.0
H1819 H 0.246 0.7149 0.5375 0.0
H1820 H 0.27664 0.71571 0.55842 0.0
H1821 H 0.24749 0.62112 0.47504 0.0
H1822 H 0.27414 0.62741 0.45013 0.0
H1823 H 0.24577 0.65093 0.45365 0.0
C1824 C 0.69349 0.83556 0.48318 0.0
C1825 C 0.67842 0.82331 0.50446 0.0
C1826 C 0.72208 0.83273 0.48184 0.0
C1827 C 0.73578 0.81669 0.50186 0.0
C1828 C 0.72039 0.80191 0.52159 0.0
C1829 C 0.69184 0.80567 0.5229 0.0
C1830 C 0.73776 0.84905 0.46057 0.0
C1831 C 0.73422 0.78375 0.54258 0.0
C1832 C 0.81171 0.80896 0.48693 0.0
C1833 C 0.8226 0.83079 0.50226 0.0
C1834 C 0.78363 0.80258 0.4882 0.0
C1835 C 0.76605 0.81901 0.50449 0.0
C1836 C 0.7772 0.84013 0.5211 0.0
C1837 C 0.80543 0.84552 0.52005 0.0
C1838 C 0.77262 0.77926 0.47101 0.0
C1839 C 0.75908 0.85839 0.53851 0.0
H1840 H 0.6833 0.84919 0.46882 0.0
H1841 H 0.68024 0.79584 0.53918 0.0
H1842 H 0.74952 0.86563 0.4709 0.0
H1843 H 0.75276 0.83578 0.44974 0.0
H1844 H 0.72396 0.85858 0.44508 0.0
H1845 H 0.71943 0.76936 0.55233 0.0
H1846 H 0.75107 0.77171 0.53305 0.0
H1847 H 0.74338 0.7967 0.55893 0.0
H1848 H 0.82502 0.79732 0.47338 0.0
H1849 H 0.81372 0.86248 0.53185 0.0
H1850 H 0.76235 0.78766 0.45249 0.0
H1851 H 0.75711 0.76725 0.48264 0.0
H1852 H 0.78925 0.76519 0.46419 0.0
H1853 H 0.74516 0.87042 0.52503 0.0
H1854 H 0.77114 0.87296 0.55126 0.0
H1855 H 0.74601 0.84581 0.55229 0.0
C1856 C 0.48512 0.81046 0.80815 0.0
C1857 C 0.50129 0.82176 0.82916 0.0
C1858 C 0.4859 0.78221 0.80247 0.0
C1859 C 0.50265 0.7649 0.81873 0.0
C1860 C 0.52008 0.77642 0.83897 0.0
C1861 C 0.51942 0.80478 0.84371 0.0
C1862 C 0.46775 0.77076 0.78011 0.0
C1863 C 0.53803 0.7586 0.85699 0.0
C1864 C 0.4815 0.69256 0.83681 0.0
C1865 C 0.50198 0.67718 0.82363 0.0
C1866 C 0.48041 0.72117 0.83397 0.0
C1867 C 0.49988 0.73459 0.81704 0.0
C1868 C 0.51887 0.71894 0.80158 0.0
C1869 C 0.51993 0.69037 0.80531 0.0
C1870 C 0.45997 0.73715 0.85102 0.0
C1871 C 0.53929 0.73247 0.78257 0.0
H1872 H 0.47127 0.82358 0.79665 0.0
H1873 H 0.53188 0.81337 0.86004 0.0
H1874 H 0.47898 0.75523 0.76777 0.0
H1875 H 0.44976 0.76037 0.78948 0.0
H1876 H 0.46009 0.78714 0.76616 0.0
H1877 H 0.55143 0.7709 0.87075 0.0
H1878 H 0.52492 0.74509 0.86986 0.0
H1879 H 0.55121 0.74511 0.84421 0.0
H1880 H 0.46756 0.68255 0.85101 0.0
H1881 H 0.5356 0.67855 0.7948 0.0
H1882 H 0.44869 0.7521 0.83806 0.0
H1883 H 0.47107 0.74901 0.86702 0.0
H1884 H 0.4448 0.72356 0.86134 0.0
H1885 H 0.52937 0.7491 0.77053 0.0
H1886 H 0.54866 0.71748 0.76814 0.0
H1887 H 0.55598 0.74191 0.79487 0.0
C1888 C 0.52607 0.30526 0.67973 0.0
C1889 C 0.50777 0.31848 0.66179 0.0
C1890 C 0.52476 0.27675 0.68381 0.0
C1891 C 0.50515 0.26118 0.66909 0.0
C1892 C 0.48548 0.27464 0.65242 0.0
C1893 C 0.48685 0.30318 0.64924 0.0
C1894 C 0.54544 0.26316 0.7025 0.0
C1895 C 0.46439 0.25874 0.63613 0.0
C1896 C 0.52218 0.19011 0.64319 0.0
C1897 C 0.50393 0.17389 0.65843 0.0
C1898 C 0.52379 0.2185 0.64748 0.0
C1899 C 0.50721 0.23081 0.66797 0.0
C1900 C 0.49037 0.21424 0.68489 0.0
C1901 C 0.48861 0.18596 0.67966 0.0
C1902 C 0.54177 0.23552 0.62873 0.0
C1903 C 0.47311 0.22655 0.70752 0.0
H1904 H 0.5421 0.31701 0.68977 0.0
H1905 H 0.47261 0.3132 0.63536 0.0
H1906 H 0.53552 0.24697 0.71512 0.0
H1907 H 0.5616 0.25316 0.68993 0.0
H1908 H 0.55549 0.27822 0.71638 0.0
H1909 H 0.44935 0.27241 0.62575 0.0
H1910 H 0.47492 0.24622 0.62023 0.0
H1911 H 0.453 0.24439 0.64966 0.0
H1912 H 0.534 0.18092 0.6267 0.0
H1913 H 0.47471 0.17341 0.69172 0.0
H1914 H 0.5555 0.24897 0.64093 0.0
H1915 H 0.52869 0.24904 0.61583 0.0
H1916 H 0.55461 0.22262 0.61495 0.0
H1917 H 0.48509 0.24193 0.71933 0.0
H1918 H 0.46534 0.21062 0.72191 0.0
H1919 H 0.4552 0.23732 0.69844 0.0
C1920 C 0.81182 0.48462 0.81338 0.0
C1921 C 0.83334 0.50042 0.82424 0.0
C1922 C 0.80557 0.48555 0.78525 0.0
C1923 C 0.82178 0.50201 0.76762 0.0
C1924 C 0.84257 0.51906 0.77873 0.0
C1925 C 0.84786 0.5183 0.80698 0.0
C1926 C 0.78262 0.46784 0.77427 0.0
C1927 C 0.86059 0.53665 0.76054 0.0
C1928 C 0.8384 0.48023 0.69517 0.0
C1929 C 0.82548 0.50095 0.67987 0.0
C1930 C 0.83591 0.47929 0.7238 0.0
C1931 C 0.81956 0.49915 0.73736 0.0
C1932 C 0.80429 0.51839 0.72184 0.0
C1933 C 0.80769 0.5193 0.69322 0.0
C1934 C 0.85276 0.45856 0.73964 0.0
C1935 C 0.78587 0.53923 0.73554 0.0
H1936 H 0.80034 0.47099 0.82674 0.0
H1937 H 0.86458 0.53046 0.81526 0.0
H1938 H 0.77028 0.47927 0.75887 0.0
H1939 H 0.79142 0.4496 0.76384 0.0
H1940 H 0.76878 0.46059 0.79091 0.0
H1941 H 0.87482 0.54981 0.77257 0.0
H1942 H 0.87297 0.52328 0.74683 0.0
H1943 H 0.84781 0.55004 0.74727 0.0
H1944 H 0.85217 0.46595 0.68505 0.0
H1945 H 0.79736 0.53516 0.68148 0.0
H1946 H 0.83976 0.44756 0.75476 0.0
H1947 H 0.86911 0.46938 0.75128 0.0
H1948 H 0.86262 0.44318 0.72597 0.0
H1949 H 0.77134 0.54873 0.72071 0.0
H1950 H 0.7986 0.55578 0.74464 0.0
H1951 H 0.77394 0.52963 0.75244 0.0
C1952 C 0.18992 0.96508 0.69321 0.0
C1953 C 0.17305 0.98328 0.67852 0.0
C1954 C 0.194 0.96833 0.72159 0.0
C1955 C 0.18028 0.98981 0.73558 0.0
C1956 C 0.1648 0.0093 0.72053 0.0
C1957 C 0.16168 0.00599 0.69214 0.0
C1958 C 0.21153 0.94778 0.7368 0.0
C1959 C 0.14954 0.03234 0.73468 0.0
C1960 C 0.1527 0.97921 0.80733 0.0
C1961 C 0.16847 0.99797 0.82242 0.0
C1962 C 0.15731 0.97532 0.77921 0.0
C1963 C 0.17873 0.98998 0.76604 0.0
C1964 C 0.19616 0.00723 0.78164 0.0
C1965 C 0.19052 0.01141 0.80962 0.0
C1966 C 0.13793 0.95707 0.76324 0.0
C1967 C 0.21981 0.02238 0.76852 0.0
H1968 H 0.19905 0.94765 0.68278 0.0
H1969 H 0.14863 0.02019 0.681 0.0
H1970 H 0.22439 0.95817 0.75249 0.0
H1971 H 0.1981 0.93291 0.74766 0.0
H1972 H 0.22512 0.93613 0.72264 0.0
H1973 H 0.13999 0.04682 0.71984 0.0
H1974 H 0.13308 0.02361 0.74784 0.0
H1975 H 0.16357 0.04407 0.74823 0.0
H1976 H 0.13555 0.96889 0.8171 0.0
H1977 H 0.20294 0.02572 0.82132 0.0
H1978 H 0.14962 0.94174 0.75111 0.0
H1979 H 0.12595 0.96971 0.74851 0.0
H1980 H 0.1233 0.94597 0.7768 0.0
H1981 H 0.23109 0.00881 0.75409 0.0
H1982 H 0.23444 0.03036 0.78411 0.0
H1983 H 0.21184 0.04004 0.75653 0.0
C1984 C 0.80918 0.19254 0.01226 0.0
C1985 C 0.82288 0.17168 0.99785 0.0
C1986 C 0.78107 0.19743 0.00804 0.0
C1987 C 0.76626 0.18043 0.98969 0.0
C1988 C 0.78034 0.1604 0.97397 0.0
C1989 C 0.80856 0.15654 0.97799 0.0
C1990 C 0.76696 0.21969 0.02436 0.0
C1991 C 0.76525 0.14151 0.9545 0.0
C1992 C 0.69307 0.15969 0.00468 0.0
C1993 C 0.67895 0.17188 0.98272 0.0
C1994 C 0.72135 0.16359 0.00807 0.0
C1995 C 0.73576 0.18071 0.98948 0.0
C1996 C 0.72121 0.19506 0.96879 0.0
C1997 C 0.69298 0.19015 0.96537 0.0
C1998 C 0.73614 0.14758 0.0302 0.0
C1999 C 0.7357 0.21429 0.94926 0.0
H2000 H 0.82025 0.20451 0.02743 0.0
H2001 H 0.81899 0.1403 0.96687 0.0
H2002 H 0.75213 0.2311 0.01133 0.0
H2003 H 0.75524 0.21029 0.0415 0.0
H2004 H 0.78192 0.23447 0.0332 0.0
H2005 H 0.77946 0.12821 0.94259 0.0
H2006 H 0.75105 0.12814 0.96633 0.0
H2007 H 0.75265 0.15358 0.93987 0.0
H2008 H 0.68244 0.1455 0.01816 0.0
H2009 H 0.68213 0.19988 0.94853 0.0
H2010 H 0.749 0.16147 0.04284 0.0
H2011 H 0.75005 0.1323 0.02055 0.0
H2012 H 0.72171 0.1365 0.044 0.0
H2013 H 0.75088 0.22717 0.96036 0.0
H2014 H 0.721 0.22793 0.93836 0.0
H2015 H 0.74706 0.20215 0.93368 0.0
C2016 C 0.025 0.94656 0.22702 0.0
C2017 C 0.00765 0.94732 0.20408 0.0
C2018 C 0.02424 0.96751 0.24678 0.0
C2019 C 0.00619 0.99004 0.24308 0.0
C2020 C 0.9883 0.99069 0.22021 0.0
C2021 C 0.98902 0.96915 0.20113 0.0
C2022 C 0.04315 0.96583 0.27132 0.0
C2023 C 0.96917 0.01463 0.21529 0.0
C2024 C 0.99068 0.03472 0.30491 0.0
C2025 C 0.01036 0.05561 0.30208 0.0
C2026 C 0.98884 0.0134 0.28568 0.0
C2027 C 0.0067 0.01333 0.26275 0.0
C2028 C 0.02577 0.03501 0.25912 0.0
C2029 C 0.02762 0.05574 0.27905 0.0
C2030 C 0.96863 0.99035 0.29054 0.0
C2031 C 0.04468 0.03593 0.23454 0.0
H2032 H 0.03936 0.9297 0.22938 0.0
H2033 H 0.9758 0.97004 0.18323 0.0
H2034 H 0.05827 0.98286 0.27057 0.0
H2035 H 0.03121 0.96817 0.2906 0.0
H2036 H 0.05454 0.94606 0.27213 0.0
H2037 H 0.95595 0.01155 0.19694 0.0
H2038 H 0.95578 0.01789 0.23344 0.0
H2039 H 0.98134 0.03368 0.21236 0.0
H2040 H 0.97751 0.0343 0.32288 0.0
H2041 H 0.0428 0.07188 0.27677 0.0
H2042 H 0.97993 0.97077 0.29353 0.0
H2043 H 0.95518 0.98767 0.27236 0.0
H2044 H 0.9555 0.99403 0.30885 0.0
H2045 H 0.05912 0.01832 0.23527 0.0
H2046 H 0.05683 0.05523 0.2337 0.0
H2047 H 0.03264 0.03404 0.21528 0.0
C2048 C 0.98522 0.46758 0.30454 0.0
C2049 C 0.9672 0.44529 0.30146 0.0
C2050 C 0.98494 0.48959 0.28601 0.0
C2051 C 0.96665 0.489 0.26345 0.0
C2052 C 0.94881 0.46629 0.25985 0.0
C2053 C 0.94903 0.44483 0.27915 0.0
C2054 C 0.00386 0.51371 0.29089 0.0
C2055 C 0.92952 0.46467 0.23562 0.0
C2056 C 0.94823 0.55584 0.2275 0.0
C2057 C 0.9667 0.55573 0.20543 0.0
C2058 C 0.94821 0.53439 0.24683 0.0
C2059 C 0.96654 0.51203 0.24344 0.0
C2060 C 0.9851 0.51178 0.22109 0.0
C2061 C 0.98519 0.53379 0.20257 0.0
C2062 C 0.92863 0.53566 0.27085 0.0
C2063 C 0.00453 0.48802 0.21642 0.0
H2064 H 0.99901 0.4683 0.32203 0.0
H2065 H 0.93505 0.42766 0.27674 0.0
H2066 H 0.01796 0.51629 0.27317 0.0
H2067 H 0.99166 0.53289 0.29266 0.0
H2068 H 0.01637 0.51125 0.30982 0.0
H2069 H 0.91759 0.44522 0.23534 0.0
H2070 H 0.91491 0.48215 0.23613 0.0
H2071 H 0.94132 0.4663 0.21617 0.0
H2072 H 0.9339 0.57274 0.22972 0.0
H2073 H 0.99921 0.53336 0.18525 0.0
H2074 H 0.94025 0.53429 0.29042 0.0
H2075 H 0.91437 0.51791 0.27022 0.0
H2076 H 0.91632 0.55488 0.27099 0.0
H2077 H 0.01848 0.4857 0.23429 0.0
H2078 H 0.01721 0.49071 0.19763 0.0
H2079 H 0.99272 0.46861 0.21452 0.0
C2080 C 0.22703 0.02448 0.94439 0.0
C2081 C 0.2039 0.00738 0.94498 0.0
C2082 C 0.24674 0.02335 0.96538 0.0
C2083 C 0.24278 0.00518 0.98778 0.0
C2084 C 0.21976 0.98747 0.9882 0.0
C2085 C 0.20074 0.98856 0.96662 0.0
C2086 C 0.27144 0.04207 0.96393 0.0
C2087 C 0.21458 0.96821 0.01198 0.0
C2088 C 0.30431 0.98936 0.03275 0.0
C2089 C 0.30148 0.00907 0.05362 0.0
C2090 C 0.28514 0.98757 0.01137 0.0
C2091 C 0.26227 0.00549 0.01121 0.0
C2092 C 0.25861 0.02455 0.03289 0.0
C2093 C 0.27848 0.02636 0.05369 0.0
C2094 C 0.29003 0.96736 0.98833 0.0
C2095 C 0.23408 0.04354 0.03373 0.0
H2096 H 0.22956 0.03898 0.92767 0.0
H2097 H 0.18269 0.97553 0.96737 0.0
H2098 H 0.27066 0.05717 0.98097 0.0
H2099 H 0.29061 0.02998 0.96642 0.0
H2100 H 0.2725 0.05348 0.94418 0.0
H2101 H 0.19627 0.95501 0.00863 0.0
H2102 H 0.23269 0.95482 0.01541 0.0
H2103 H 0.21141 0.98029 0.03105 0.0
H2104 H 0.32226 0.97616 0.03237 0.0
H2105 H 0.2762 0.04155 0.0698 0.0
H2106 H 0.29333 0.97868 0.96881 0.0
H2107 H 0.27175 0.95408 0.98543 0.0
H2108 H 0.30819 0.95405 0.99217 0.0
H2109 H 0.23501 0.05807 0.01619 0.0
H2110 H 0.23315 0.0556 0.05308 0.0
H2111 H 0.2148 0.03157 0.03163 0.0
C2112 C 0.72464 0.49036 0.05538 0.0
C2113 C 0.70099 0.50671 0.05429 0.0
C2114 C 0.74491 0.49243 0.03503 0.0
C2115 C 0.741 0.51075 0.01276 0.0
C2116 C 0.7177 0.5281 0.01216 0.0
C2117 C 0.69809 0.52609 0.03314 0.0
C2118 C 0.76989 0.4741 0.03672 0.0
C2119 C 0.7126 0.54755 0.98851 0.0
C2120 C 0.80237 0.52465 0.96689 0.0
C2121 C 0.79909 0.5043 0.94673 0.0
C2122 C 0.78329 0.52748 0.98827 0.0
C2123 C 0.76013 0.50995 0.98907 0.0
C2124 C 0.75599 0.49036 0.96795 0.0
C2125 C 0.77576 0.48752 0.9472 0.0
C2126 C 0.78868 0.54821 0.01072 0.0
C2127 C 0.73116 0.47175 0.96777 0.0
H2128 H 0.72698 0.47549 0.07181 0.0
H2129 H 0.67968 0.53859 0.03207 0.0
H2130 H 0.76907 0.45849 0.02014 0.0
H2131 H 0.7889 0.48631 0.03364 0.0
H2132 H 0.7713 0.46328 0.05677 0.0
H2133 H 0.69483 0.56136 0.99237 0.0
H2134 H 0.73105 0.56029 0.98449 0.0
H2135 H 0.70843 0.53553 0.96959 0.0
H2136 H 0.8206 0.53746 0.96677 0.0
H2137 H 0.77316 0.47187 0.93157 0.0
H2138 H 0.79292 0.53729 0.03028 0.0
H2139 H 0.77031 0.56125 0.01412 0.0
H2140 H 0.80647 0.56169 0.00595 0.0
H2141 H 0.73211 0.45751 0.98555 0.0
H2142 H 0.72979 0.45937 0.94866 0.0
H2143 H 0.71208 0.48404 0.9699 0.0
C2144 C 0.30278 0.99071 0.46529 0.0
C2145 C 0.29979 0.97234 0.44327 0.0
C2146 C 0.28396 0.99098 0.48706 0.0
C2147 C 0.26121 0.97293 0.48648 0.0
C2148 C 0.25755 0.95495 0.46389 0.0
C2149 C 0.27713 0.9546 0.4427 0.0
C2150 C 0.28889 0.01003 0.51106 0.0
C2151 C 0.23312 0.93592 0.46225 0.0
C2152 C 0.22549 0.95377 0.55319 0.0
C2153 C 0.20321 0.972 0.55324 0.0
C2154 C 0.24485 0.95419 0.53181 0.0
C2155 C 0.24135 0.97275 0.50965 0.0
C2156 C 0.21889 0.99118 0.50961 0.0
C2157 C 0.20029 0.99081 0.53157 0.0
C2158 C 0.26898 0.93472 0.53286 0.0
C2159 C 0.21411 0.01083 0.48606 0.0
H2160 H 0.3205 0.00419 0.46608 0.0
H2161 H 0.27477 0.94038 0.42572 0.0
H2162 H 0.27103 0.02389 0.51389 0.0
H2163 H 0.29109 0.99786 0.53022 0.0
H2164 H 0.30762 0.02278 0.50833 0.0
H2165 H 0.23253 0.92428 0.44263 0.0
H2166 H 0.23373 0.92103 0.4795 0.0
H2167 H 0.21379 0.94783 0.46427 0.0
H2168 H 0.22779 0.93922 0.5699 0.0
H2169 H 0.18284 0.00467 0.53127 0.0
H2170 H 0.28849 0.9464 0.53126 0.0
H2171 H 0.26819 0.92044 0.51513 0.0
H2172 H 0.26935 0.92242 0.55208 0.0
H2173 H 0.23207 0.02463 0.4836 0.0
H2174 H 0.19546 0.02365 0.48908 0.0
H2175 H 0.21185 0.99917 0.46661 0.0
C2176 C 0.76979 0.51977 0.55491 0.0
C2177 C 0.79299 0.50277 0.55494 0.0
C2178 C 0.75072 0.51865 0.53335 0.0
C2179 C 0.75546 0.50067 0.51096 0.0
C2180 C 0.77852 0.48299 0.5112 0.0
C2181 C 0.79685 0.48401 0.5334 0.0
C2182 C 0.72591 0.53728 0.53416 0.0
C2183 C 0.78458 0.46397 0.48745 0.0
C2184 C 0.69537 0.48636 0.46358 0.0
C2185 C 0.69888 0.50675 0.44348 0.0
C2186 C 0.71394 0.48371 0.48542 0.0
C2187 C 0.73692 0.50144 0.48676 0.0
C2188 C 0.74137 0.52107 0.46572 0.0
C2189 C 0.72205 0.52376 0.44451 0.0
C2190 C 0.70816 0.46295 0.50776 0.0
C2191 C 0.76608 0.53983 0.4661 0.0
H2192 H 0.76675 0.53422 0.57159 0.0
H2193 H 0.81499 0.47107 0.53317 0.0
H2194 H 0.72736 0.55274 0.51747 0.0
H2195 H 0.70689 0.52522 0.53063 0.0
H2196 H 0.72401 0.54827 0.55406 0.0
H2197 H 0.80253 0.45046 0.49151 0.0
H2198 H 0.76649 0.4509 0.48292 0.0
H2199 H 0.78888 0.47629 0.46874 0.0
H2200 H 0.67728 0.47337 0.46308 0.0
H2201 H 0.72485 0.53946 0.42895 0.0
H2202 H 0.70375 0.47383 0.5273 0.0
H2203 H 0.72641 0.4498 0.51133 0.0
H2204 H 0.69036 0.44956 0.50275 0.0
H2205 H 0.76456 0.55416 0.48375 0.0
H2206 H 0.76788 0.55211 0.44694 0.0
H2207 H 0.78517 0.52767 0.46882 0.0
C2208 C 0.05509 0.27996 0.03279 0.0
C2209 C 0.05566 0.30312 0.01571 0.0
C2210 C 0.03407 0.26038 0.0304 0.0
C2211 C 0.01279 0.26452 0.01098 0.0
C2212 C 0.01356 0.28758 0.99333 0.0
C2213 C 0.03517 0.30643 0.99569 0.0
C2214 C 0.03427 0.23563 0.04911 0.0
C2215 C 0.99095 0.29301 0.97277 0.0
C2216 C 0.96797 0.20377 0.99193 0.0
C2217 C 0.9459 0.20683 0.01025 0.0
C2218 C 0.9898 0.22253 0.99175 0.0
C2219 C 0.98921 0.24523 0.00988 0.0
C2220 C 0.96642 0.24909 0.02757 0.0
C2221 C 0.94518 0.22962 0.0278 0.0
C2222 C 0.014 0.21744 0.97299 0.0
C2223 C 0.96478 0.27346 0.04669 0.0
H2224 H 0.07091 0.27733 0.04825 0.0
H2225 H 0.03526 0.32452 0.98267 0.0
H2226 H 0.01643 0.23652 0.06326 0.0
H2227 H 0.03226 0.21651 0.03686 0.0
H2228 H 0.05335 0.23436 0.06157 0.0
H2229 H 0.99515 0.31137 0.95987 0.0
H2230 H 0.98819 0.27499 0.95911 0.0
H2231 H 0.97123 0.29622 0.98377 0.0
H2232 H 0.96884 0.18597 0.97857 0.0
H2233 H 0.92814 0.23206 0.04193 0.0
H2234 H 0.03277 0.21403 0.98547 0.0
H2235 H 0.01783 0.23569 0.95989 0.0
H2236 H 0.01085 0.1993 0.9595 0.0
H2237 H 0.98148 0.27227 0.06213 0.0
H2238 H 0.9448 0.2745 0.05769 0.0
H2239 H 0.9677 0.29282 0.035 0.0
C2240 C 0.03266 0.69704 0.52496 0.0
C2241 C 0.05344 0.69992 0.50518 0.0
C2242 C 0.01166 0.71661 0.52728 0.0
C2243 C 0.01188 0.73984 0.50982 0.0
C2244 C 0.03382 0.74375 0.4911 0.0
C2245 C 0.05418 0.72352 0.48875 0.0
C2246 C 0.98838 0.7115 0.54716 0.0
C2247 C 0.03511 0.76867 0.47265 0.0
C2248 C 0.94576 0.77415 0.48755 0.0
C2249 C 0.94544 0.79755 0.50425 0.0
C2250 C 0.96666 0.75452 0.49012 0.0
C2251 C 0.98809 0.75886 0.50932 0.0
C2252 C 0.98747 0.78208 0.52677 0.0
C2253 C 0.96593 0.80103 0.52423 0.0
C2254 C 0.9663 0.72961 0.47163 0.0
C2255 C 0.01024 0.78768 0.54709 0.0
H2256 H 0.03185 0.67867 0.53754 0.0
H2257 H 0.07032 0.72586 0.47357 0.0
H2258 H 0.98449 0.73 0.55986 0.0
H2259 H 0.96928 0.70716 0.53549 0.0
H2260 H 0.99257 0.69384 0.56101 0.0
H2261 H 0.05497 0.77012 0.4615 0.0
H2262 H 0.01829 0.7677 0.4573 0.0
H2263 H 0.03214 0.78771 0.48482 0.0
H2264 H 0.92987 0.7714 0.47219 0.0
H2265 H 0.96592 0.8193 0.53696 0.0
H2266 H 0.96872 0.71059 0.48397 0.0
H2267 H 0.98384 0.73058 0.45709 0.0
H2268 H 0.94699 0.7281 0.45956 0.0
H2269 H 0.01395 0.76939 0.56016 0.0
H2270 H 0.0056 0.80551 0.56057 0.0
H2271 H 0.02959 0.79198 0.53582 0.0
C2272 C 0.55368 0.77085 0.5283 0.0
C2273 C 0.55289 0.79426 0.51161 0.0
C2274 C 0.53219 0.75165 0.52776 0.0
C2275 C 0.50904 0.75655 0.5108 0.0
C2276 C 0.50823 0.78012 0.49381 0.0
C2277 C 0.53038 0.79851 0.49414 0.0
C2278 C 0.5341 0.7263 0.54555 0.0
C2279 C 0.48362 0.7864 0.47598 0.0
C2280 C 0.46277 0.69639 0.49367 0.0
C2281 C 0.44254 0.69852 0.51412 0.0
C2282 C 0.48442 0.71527 0.49219 0.0
C2283 C 0.4855 0.7372 0.51121 0.0
C2284 C 0.46453 0.74013 0.5312 0.0
C2285 C 0.44347 0.7205 0.53266 0.0
C2286 C 0.5067 0.71111 0.47097 0.0
C2287 C 0.46467 0.76369 0.55137 0.0
H2288 H 0.5711 0.76757 0.54178 0.0
H2289 H 0.52953 0.81686 0.48153 0.0
H2290 H 0.51755 0.72659 0.56123 0.0
H2291 H 0.5311 0.7076 0.53287 0.0
H2292 H 0.5542 0.72473 0.55625 0.0
H2293 H 0.48639 0.80547 0.46373 0.0
H2294 H 0.47962 0.76911 0.4617 0.0
H2295 H 0.46508 0.78877 0.48905 0.0
H2296 H 0.46239 0.67921 0.47949 0.0
H2297 H 0.42785 0.72222 0.54845 0.0
H2298 H 0.52666 0.70758 0.48141 0.0
H2299 H 0.50901 0.72981 0.45816 0.0
H2300 H 0.50244 0.69337 0.45726 0.0
H2301 H 0.48277 0.76197 0.5651 0.0
H2302 H 0.44583 0.76414 0.56425 0.0
H2303 H 0.46642 0.78352 0.54026 0.0
C2304 C 0.52286 0.55292 0.76822 0.0
C2305 C 0.50561 0.55269 0.79125 0.0
C2306 C 0.52172 0.53174 0.74873 0.0
C2307 C 0.50345 0.50947 0.75286 0.0
C2308 C 0.48558 0.50942 0.77579 0.0
C2309 C 0.48665 0.53123 0.79455 0.0
C2310 C 0.54056 0.53285 0.7241 0.0
C2311 C 0.46624 0.48576 0.78118 0.0
C2312 C 0.48826 0.46331 0.69204 0.0
C2313 C 0.50805 0.4426 0.6954 0.0
C2314 C 0.48623 0.48505 0.71078 0.0
C2315 C 0.50397 0.4857 0.73379 0.0
C2316 C 0.52312 0.46418 0.73797 0.0
C2317 C 0.52521 0.44306 0.71848 0.0
C2318 C 0.46599 0.50793 0.70529 0.0
C2319 C 0.54189 0.46383 0.76267 0.0
H2320 H 0.53746 0.56954 0.7656 0.0
H2321 H 0.47351 0.53079 0.81254 0.0
H2322 H 0.55573 0.51589 0.72525 0.0
H2323 H 0.52859 0.52997 0.70491 0.0
H2324 H 0.55188 0.55262 0.72275 0.0
H2325 H 0.45283 0.48946 0.79929 0.0
H2326 H 0.45305 0.48201 0.76299 0.0
H2327 H 0.47827 0.46674 0.78483 0.0
H2328 H 0.47518 0.46324 0.674 0.0
H2329 H 0.54046 0.42704 0.72114 0.0
H2330 H 0.47728 0.5274 0.70162 0.0
H2331 H 0.4526 0.51121 0.72343 0.0
H2332 H 0.4528 0.50368 0.68715 0.0
H2333 H 0.55637 0.48139 0.76157 0.0
H2334 H 0.554 0.44453 0.76405 0.0
H2335 H 0.52973 0.46622 0.78181 0.0
C2336 C 0.52642 0.96427 0.79718 0.0
C2337 C 0.506 0.94417 0.79394 0.0
C2338 C 0.5293 0.98564 0.77809 0.0
C2339 C 0.51173 0.98651 0.75496 0.0
C2340 C 0.49218 0.96536 0.75078 0.0
C2341 C 0.4893 0.94462 0.77054 0.0
C2342 C 0.55003 0.00808 0.78351 0.0
C2343 C 0.47354 0.96525 0.72597 0.0
C2344 C 0.49128 0.05313 0.7206 0.0
C2345 C 0.50742 0.05256 0.69679 0.0
C2346 C 0.49371 0.03251 0.74054 0.0
C2347 C 0.5122 0.01047 0.73614 0.0
C2348 C 0.52936 0.01038 0.71268 0.0
C2349 C 0.52697 0.03165 0.6934 0.0
C2350 C 0.47558 0.03366 0.7657 0.0
C2351 C 0.54896 0.987 0.70705 0.0
H2352 H 0.5392 0.96416 0.81543 0.0
H2353 H 0.47362 0.92902 0.76794 0.0
H2354 H 0.56282 0.01181 0.76502 0.0
H2355 H 0.5391 0.02753 0.78821 0.0
H2356 H 0.56377 0.00309 0.80105 0.0
H2357 H 0.46138 0.946 0.72442 0.0
H2358 H 0.45909 0.98283 0.72716 0.0
H2359 H 0.48576 0.96774 0.70689 0.0
H2360 H 0.47628 0.06937 0.72331 0.0
H2361 H 0.5393 0.03098 0.67485 0.0
H2362 H 0.48798 0.03047 0.78456 0.0
H2363 H 0.46014 0.01692 0.76478 0.0
H2364 H 0.46455 0.05356 0.76747 0.0
H2365 H 0.56175 0.98266 0.7254 0.0
H2366 H 0.56273 0.99136 0.68936 0.0
H2367 H 0.53708 0.9681 0.70246 0.0
C2368 C 0.46701 0.30174 0.99105 0.0
C2369 C 0.44443 0.29873 0.97337 0.0
C2370 C 0.48869 0.28282 0.99082 0.0
C2371 C 0.48746 0.25995 0.97295 0.0
C2372 C 0.46436 0.25631 0.95564 0.0
C2373 C 0.44325 0.27598 0.95578 0.0
C2374 C 0.51323 0.28771 0.00917 0.0
C2375 C 0.46206 0.23177 0.93682 0.0
C2376 C 0.55354 0.22369 0.95263 0.0
C2377 C 0.5539 0.2016 0.97109 0.0
C2378 C 0.53223 0.24312 0.95329 0.0
C2379 C 0.51046 0.2399 0.97236 0.0
C2380 C 0.51072 0.2176 0.99099 0.0
C2381 C 0.5326 0.19892 0.99035 0.0
C2382 C 0.53294 0.26705 0.93355 0.0
C2383 C 0.4876 0.21314 0.01123 0.0
H2384 H 0.46827 0.31953 0.0044 0.0
H2385 H 0.42584 0.27359 0.9421 0.0
H2386 H 0.51623 0.26998 0.02316 0.0
H2387 H 0.53209 0.28959 0.9965 0.0
H2388 H 0.51102 0.30661 0.02178 0.0
H2389 H 0.44218 0.23128 0.92563 0.0
H2390 H 0.47897 0.2321 0.92155 0.0
H2391 H 0.46416 0.2125 0.94883 0.0
H2392 H 0.56996 0.22581 0.93773 0.0
H2393 H 0.53252 0.18162 0.0044 0.0
H2394 H 0.53187 0.28668 0.94508 0.0
H2395 H 0.51481 0.26631 0.91978 0.0
H2396 H 0.55182 0.26713 0.92071 0.0
H2397 H 0.48565 0.23119 0.02499 0.0
H2398 H 0.49075 0.19452 0.02406 0.0
H2399 H 0.46785 0.21102 5e-05 0.0
loop_
_geom_bond_atom_site_label_1
_geom_bond_atom_site_label_2
_geom_bond_distance
_geom_bond_site_symmetry_2
_ccdc_geom_bond_type
Mn0 O5 2.095 . S
Mn0 O15 2.162 . S
Mn0 O16 2.297 . S
Mn0 O24 2.385 1_655 S
Mn0 O25 2.209 1_655 S
Mn0 O26 2.094 . S
Mn1 O6 2.121 . S
Mn1 N8 2.257 . S
Mn1 N17 2.282 . S
Mn1 O25 2.215 . S
Mn1 O27 2.117 . S
C2 O24 1.234 . S
C2 O25 1.283 . S
C3 O15 1.281 . S
C3 O16 1.236 . S
C4 O26 1.240 . S
C4 O27 1.264 1_655 S
O5 Mn0 2.095 . S
O5 C14 1.250 1_655 S
O6 Mn1 2.121 . S
O6 C14 1.258 . S
C7 N8 1.326 . S
C7 C11 1.460 . S
C7 H13 0.929 . S
N8 Mn1 2.257 . S
N8 C7 1.326 . S
N8 C12 1.362 . S
C9 C10 1.258 . S
C9 C12 1.431 . S
C9 C29 1.449 . S
C10 C9 1.258 . S
C10 C11 1.477 . S
C10 H30 0.931 . S
C11 C7 1.460 . S
C11 C10 1.477 . S
C11 H31 0.930 . S
C12 N8 1.362 . S
C12 C9 1.431 . S
C12 C22 1.476 . S
H13 C7 0.929 . S
C14 O5 1.250 1_455 S
C14 O6 1.258 . S
O15 Mn0 2.162 . S
O15 C3 1.281 . S
O16 Mn0 2.297 . S
O16 C3 1.236 . S
N17 Mn1 2.282 . S
N17 C18 1.328 . S
N17 C22 1.318 . S
C18 N17 1.328 . S
C18 C19 1.457 . S
C18 H23 0.929 . S
C19 C18 1.457 . S
C19 C20 1.291 . S
C19 H32 0.931 . S
C20 C19 1.291 . S
C20 C21 1.373 . S
C20 H33 0.929 . S
C21 C20 1.373 . S
C21 C22 1.396 . S
C21 C28 1.403 . S
C22 C12 1.476 . S
C22 N17 1.318 . S
C22 C21 1.396 . S
H23 C18 0.929 . S
O24 Mn0 2.385 1_455 S
O24 C2 1.234 . S
O25 Mn0 2.209 1_455 S
O25 Mn1 2.215 . S
O25 C2 1.283 . S
O26 Mn0 2.094 . S
O26 C4 1.240 . S
O27 Mn1 2.117 . S
O27 C4 1.264 1_455 S
C28 C21 1.403 . S
C28 C29 1.399 . S
C28 H34 0.929 . S
C29 C9 1.449 . S
C29 C28 1.399 . S
C29 H35 0.930 . S
H30 C10 0.931 . S
H31 C11 0.930 . S
H32 C19 0.931 . S
H33 C20 0.929 . S
H34 C28 0.929 . S
H35 C29 0.930 . S
Mn36 O41 2.095 . S
Mn36 O51 2.162 . S
Mn36 O52 2.297 . S
Mn36 O60 2.385 1_455 S
Mn36 O61 2.209 1_455 S
Mn36 O62 2.094 . S
Mn37 O42 2.121 . S
Mn37 N44 2.257 . S
Mn37 N53 2.282 . S
Mn37 O61 2.215 . S
Mn37 O63 2.117 . S
C38 O60 1.234 . S
C38 O61 1.283 . S
C39 O51 1.281 . S
C39 O52 1.236 . S
C40 O62 1.240 . S
C40 O63 1.264 1_455 S
O41 Mn36 2.095 . S
O41 C50 1.250 1_455 S
O42 Mn37 2.121 . S
O42 C50 1.258 . S
C43 N44 1.326 . S
C43 C47 1.460 . S
C43 H49 0.929 . S
N44 Mn37 2.257 . S
N44 C43 1.326 . S
N44 C48 1.362 . S
C45 C46 1.258 . S
C45 C48 1.431 . S
C45 C65 1.449 . S
C46 C45 1.258 . S
C46 C47 1.477 . S
C46 H66 0.931 . S
C47 C43 1.460 . S
C47 C46 1.477 . S
C47 H67 0.930 . S
C48 N44 1.362 . S
C48 C45 1.431 . S
C48 C58 1.476 . S
H49 C43 0.929 . S
C50 O41 1.250 1_655 S
C50 O42 1.258 . S
O51 Mn36 2.162 . S
O51 C39 1.281 . S
O52 Mn36 2.297 . S
O52 C39 1.236 . S
N53 Mn37 2.282 . S
N53 C54 1.328 . S
N53 C58 1.318 . S
C54 N53 1.328 . S
C54 C55 1.457 . S
C54 H59 0.929 . S
C55 C54 1.457 . S
C55 C56 1.291 . S
C55 H68 0.931 . S
C56 C55 1.291 . S
C56 C57 1.373 . S
C56 H69 0.929 . S
C57 C56 1.373 . S
C57 C58 1.396 . S
C57 C64 1.403 . S
C58 C48 1.476 . S
C58 N53 1.318 . S
C58 C57 1.396 . S
H59 C54 0.929 . S
O60 Mn36 2.385 1_655 S
O60 C38 1.234 . S
O61 Mn36 2.209 1_655 S
O61 Mn37 2.215 . S
O61 C38 1.283 . S
O62 Mn36 2.094 . S
O62 C40 1.240 . S
O63 Mn37 2.117 . S
O63 C40 1.264 1_655 S
C64 C57 1.403 . S
C64 C65 1.399 . S
C64 H70 0.929 . S
C65 C45 1.449 . S
C65 C64 1.399 . S
C65 H71 0.930 . S
H66 C46 0.931 . S
H67 C47 0.930 . S
H68 C55 0.931 . S
H69 C56 0.929 . S
H70 C64 0.929 . S
H71 C65 0.930 . S
Mn72 O77 2.095 . S
Mn72 O87 2.162 . S
Mn72 O88 2.297 . S
Mn72 O96 2.385 1_655 S
Mn72 O97 2.209 1_655 S
Mn72 O98 2.094 . S
Mn73 O78 2.121 . S
Mn73 N80 2.257 . S
Mn73 N89 2.282 . S
Mn73 O97 2.215 . S
Mn73 O99 2.117 . S
C74 O96 1.234 . S
C74 O97 1.283 . S
C75 O87 1.281 . S
C75 O88 1.236 . S
C76 O98 1.240 . S
C76 O99 1.264 1_655 S
O77 Mn72 2.095 . S
O77 C86 1.250 1_655 S
O78 Mn73 2.121 . S
O78 C86 1.258 . S
C79 N80 1.326 . S
C79 C83 1.460 . S
C79 H85 0.929 . S
N80 Mn73 2.257 . S
N80 C79 1.326 . S
N80 C84 1.362 . S
C81 C82 1.258 . S
C81 C84 1.431 . S
C81 C101 1.449 . S
C82 C81 1.258 . S
C82 C83 1.477 . S
C82 H102 0.931 . S
C83 C79 1.460 . S
C83 C82 1.477 . S
C83 H103 0.930 . S
C84 N80 1.362 . S
C84 C81 1.431 . S
C84 C94 1.476 . S
H85 C79 0.929 . S
C86 O77 1.250 1_455 S
C86 O78 1.258 . S
O87 Mn72 2.162 . S
O87 C75 1.281 . S
O88 Mn72 2.297 . S
O88 C75 1.236 . S
N89 Mn73 2.282 . S
N89 C90 1.328 . S
N89 C94 1.318 . S
C90 N89 1.328 . S
C90 C91 1.457 . S
C90 H95 0.929 . S
C91 C90 1.457 . S
C91 C92 1.291 . S
C91 H104 0.931 . S
C92 C91 1.291 . S
C92 C93 1.373 . S
C92 H105 0.929 . S
C93 C92 1.373 . S
C93 C94 1.396 . S
C93 C100 1.403 . S
C94 C84 1.476 . S
C94 N89 1.318 . S
C94 C93 1.396 . S
H95 C90 0.929 . S
O96 Mn72 2.385 1_455 S
O96 C74 1.234 . S
O97 Mn72 2.209 1_455 S
O97 Mn73 2.215 . S
O97 C74 1.283 . S
O98 Mn72 2.094 . S
O98 C76 1.240 . S
O99 Mn73 2.117 . S
O99 C76 1.264 1_455 S
C100 C93 1.403 . S
C100 C101 1.399 . S
C100 H106 0.929 . S
C101 C81 1.449 . S
C101 C100 1.399 . S
C101 H107 0.930 . S
H102 C82 0.931 . S
H103 C83 0.930 . S
H104 C91 0.931 . S
H105 C92 0.929 . S
H106 C100 0.929 . S
H107 C101 0.930 . S
Mn108 O113 2.095 . S
Mn108 O123 2.162 . S
Mn108 O124 2.297 . S
Mn108 O132 2.385 1_455 S
Mn108 O133 2.209 1_455 S
Mn108 O134 2.094 . S
Mn109 O114 2.121 . S
Mn109 N116 2.257 . S
Mn109 N125 2.282 . S
Mn109 O133 2.215 . S
Mn109 O135 2.117 . S
C110 O132 1.234 . S
C110 O133 1.283 . S
C111 O123 1.281 . S
C111 O124 1.236 . S
C112 O134 1.240 . S
C112 O135 1.264 1_455 S
O113 Mn108 2.095 . S
O113 C122 1.250 1_455 S
O114 Mn109 2.121 . S
O114 C122 1.258 . S
C115 N116 1.326 . S
C115 C119 1.460 . S
C115 H121 0.929 . S
N116 Mn109 2.257 . S
N116 C115 1.326 . S
N116 C120 1.362 . S
C117 C118 1.258 . S
C117 C120 1.431 . S
C117 C137 1.449 . S
C118 C117 1.258 . S
C118 C119 1.477 . S
C118 H138 0.931 . S
C119 C115 1.460 . S
C119 C118 1.477 . S
C119 H139 0.930 . S
C120 N116 1.362 . S
C120 C117 1.431 . S
C120 C130 1.476 . S
H121 C115 0.929 . S
C122 O113 1.250 1_655 S
C122 O114 1.258 . S
O123 Mn108 2.162 . S
O123 C111 1.281 . S
O124 Mn108 2.297 . S
O124 C111 1.236 . S
N125 Mn109 2.282 . S
N125 C126 1.328 . S
N125 C130 1.318 . S
C126 N125 1.328 . S
C126 C127 1.457 . S
C126 H131 0.929 . S
C127 C126 1.457 . S
C127 C128 1.291 . S
C127 H140 0.931 . S
C128 C127 1.291 . S
C128 C129 1.373 . S
C128 H141 0.929 . S
C129 C128 1.373 . S
C129 C130 1.396 . S
C129 C136 1.403 . S
C130 C120 1.476 . S
C130 N125 1.318 . S
C130 C129 1.396 . S
H131 C126 0.929 . S
O132 Mn108 2.385 1_655 S
O132 C110 1.234 . S
O133 Mn108 2.209 1_655 S
O133 Mn109 2.215 . S
O133 C110 1.283 . S
O134 Mn108 2.094 . S
O134 C112 1.240 . S
O135 Mn109 2.117 . S
O135 C112 1.264 1_655 S
C136 C129 1.403 . S
C136 C137 1.399 . S
C136 H142 0.929 . S
C137 C117 1.449 . S
C137 C136 1.399 . S
C137 H143 0.930 . S
H138 C118 0.931 . S
H139 C119 0.930 . S
H140 C127 0.931 . S
H141 C128 0.929 . S
H142 C136 0.929 . S
H143 C137 0.930 . S
Mn144 O149 2.095 . S
Mn144 O159 2.162 . S
Mn144 O160 2.297 . S
Mn144 O168 2.385 1_565 S
Mn144 O169 2.209 1_565 S
Mn144 O170 2.094 . S
Mn145 O150 2.121 . S
Mn145 N152 2.257 . S
Mn145 N161 2.282 . S
Mn145 O169 2.215 . S
Mn145 O171 2.117 . S
C146 O168 1.234 . S
C146 O169 1.283 . S
C147 O159 1.281 . S
C147 O160 1.236 . S
C148 O170 1.240 . S
C148 O171 1.264 1_565 S
O149 Mn144 2.095 . S
O149 C158 1.250 1_565 S
O150 Mn145 2.121 . S
O150 C158 1.258 . S
C151 N152 1.326 . S
C151 C155 1.460 . S
C151 H157 0.929 . S
N152 Mn145 2.257 . S
N152 C151 1.326 . S
N152 C156 1.362 . S
C153 C154 1.258 . S
C153 C156 1.431 . S
C153 C173 1.449 . S
C154 C153 1.258 . S
C154 C155 1.477 . S
C154 H174 0.931 . S
C155 C151 1.460 . S
C155 C154 1.477 . S
C155 H175 0.930 . S
C156 N152 1.362 . S
C156 C153 1.431 . S
C156 C166 1.476 . S
H157 C151 0.929 . S
C158 O149 1.250 1_545 S
C158 O150 1.258 . S
O159 Mn144 2.162 . S
O159 C147 1.281 . S
O160 Mn144 2.297 . S
O160 C147 1.236 . S
N161 Mn145 2.282 . S
N161 C162 1.328 . S
N161 C166 1.318 . S
C162 N161 1.328 . S
C162 C163 1.457 . S
C162 H167 0.929 . S
C163 C162 1.457 . S
C163 C164 1.291 . S
C163 H176 0.931 . S
C164 C163 1.291 . S
C164 C165 1.373 . S
C164 H177 0.929 . S
C165 C164 1.373 . S
C165 C166 1.396 . S
C165 C172 1.403 . S
C166 C156 1.476 . S
C166 N161 1.318 . S
C166 C165 1.396 . S
H167 C162 0.929 . S
O168 Mn144 2.385 1_545 S
O168 C146 1.234 . S
O169 Mn144 2.209 1_545 S
O169 Mn145 2.215 . S
O169 C146 1.283 . S
O170 Mn144 2.094 . S
O170 C148 1.240 . S
O171 Mn145 2.117 . S
O171 C148 1.264 1_545 S
C172 C165 1.403 . S
C172 C173 1.399 . S
C172 H178 0.929 . S
C173 C153 1.449 . S
C173 C172 1.399 . S
C173 H179 0.930 . S
H174 C154 0.931 . S
H175 C155 0.930 . S
H176 C163 0.931 . S
H177 C164 0.929 . S
H178 C172 0.929 . S
H179 C173 0.930 . S
Mn180 O185 2.095 . S
Mn180 O195 2.162 . S
Mn180 O196 2.297 . S
Mn180 O204 2.385 . S
Mn180 O205 2.209 . S
Mn180 O206 2.094 . S
Mn181 O186 2.121 . S
Mn181 N188 2.257 . S
Mn181 N197 2.282 . S
Mn181 O205 2.215 . S
Mn181 O207 2.117 . S
C182 O204 1.234 . S
C182 O205 1.283 . S
C183 O195 1.281 . S
C183 O196 1.236 . S
C184 O206 1.240 . S
C184 O207 1.264 . S
O185 Mn180 2.095 . S
O185 C194 1.250 . S
O186 Mn181 2.121 . S
O186 C194 1.258 . S
C187 N188 1.326 . S
C187 C191 1.460 . S
C187 H193 0.929 . S
N188 Mn181 2.257 . S
N188 C187 1.326 . S
N188 C192 1.362 . S
C189 C190 1.258 . S
C189 C192 1.431 . S
C189 C209 1.449 . S
C190 C189 1.258 . S
C190 C191 1.477 . S
C190 H210 0.931 . S
C191 C187 1.460 . S
C191 C190 1.477 . S
C191 H211 0.930 . S
C192 N188 1.362 . S
C192 C189 1.431 . S
C192 C202 1.476 . S
H193 C187 0.929 . S
C194 O185 1.250 . S
C194 O186 1.258 . S
O195 Mn180 2.162 . S
O195 C183 1.281 . S
O196 Mn180 2.297 . S
O196 C183 1.236 . S
N197 Mn181 2.282 . S
N197 C198 1.328 . S
N197 C202 1.318 . S
C198 N197 1.328 . S
C198 C199 1.457 . S
C198 H203 0.929 . S
C199 C198 1.457 . S
C199 C200 1.291 . S
C199 H212 0.931 . S
C200 C199 1.291 . S
C200 C201 1.373 . S
C200 H213 0.929 . S
C201 C200 1.373 . S
C201 C202 1.396 . S
C201 C208 1.403 . S
C202 C192 1.476 . S
C202 N197 1.318 . S
C202 C201 1.396 . S
H203 C198 0.929 . S
O204 Mn180 2.385 . S
O204 C182 1.234 . S
O205 Mn180 2.209 . S
O205 Mn181 2.215 . S
O205 C182 1.283 . S
O206 Mn180 2.094 . S
O206 C184 1.240 . S
O207 Mn181 2.117 . S
O207 C184 1.264 . S
C208 C201 1.403 . S
C208 C209 1.399 . S
C208 H214 0.929 . S
C209 C189 1.449 . S
C209 C208 1.399 . S
C209 H215 0.930 . S
H210 C190 0.931 . S
H211 C191 0.930 . S
H212 C199 0.931 . S
H213 C200 0.929 . S
H214 C208 0.929 . S
H215 C209 0.930 . S
Mn216 O221 2.095 . S
Mn216 O231 2.162 . S
Mn216 O232 2.297 . S
Mn216 O240 2.385 1_545 S
Mn216 O241 2.209 1_545 S
Mn216 O242 2.094 . S
Mn217 O222 2.121 . S
Mn217 N224 2.257 . S
Mn217 N233 2.282 . S
Mn217 O241 2.215 . S
Mn217 O243 2.117 . S
C218 O240 1.234 . S
C218 O241 1.283 . S
C219 O231 1.281 . S
C219 O232 1.236 . S
C220 O242 1.240 . S
C220 O243 1.264 1_545 S
O221 Mn216 2.095 . S
O221 C230 1.250 1_545 S
O222 Mn217 2.121 . S
O222 C230 1.258 . S
C223 N224 1.326 . S
C223 C227 1.460 . S
C223 H229 0.929 . S
N224 Mn217 2.257 . S
N224 C223 1.326 . S
N224 C228 1.362 . S
C225 C226 1.258 . S
C225 C228 1.431 . S
C225 C245 1.449 . S
C226 C225 1.258 . S
C226 C227 1.477 . S
C226 H246 0.931 . S
C227 C223 1.460 . S
C227 C226 1.477 . S
C227 H247 0.930 . S
C228 N224 1.362 . S
C228 C225 1.431 . S
C228 C238 1.476 . S
H229 C223 0.929 . S
C230 O221 1.250 1_565 S
C230 O222 1.258 . S
O231 Mn216 2.162 . S
O231 C219 1.281 . S
O232 Mn216 2.297 . S
O232 C219 1.236 . S
N233 Mn217 2.282 . S
N233 C234 1.328 . S
N233 C238 1.318 . S
C234 N233 1.328 . S
C234 C235 1.457 . S
C234 H239 0.929 . S
C235 C234 1.457 . S
C235 C236 1.291 . S
C235 H248 0.931 . S
C236 C235 1.291 . S
C236 C237 1.373 . S
C236 H249 0.929 . S
C237 C236 1.373 . S
C237 C238 1.396 . S
C237 C244 1.403 . S
C238 C228 1.476 . S
C238 N233 1.318 . S
C238 C237 1.396 . S
H239 C234 0.929 . S
O240 Mn216 2.385 1_565 S
O240 C218 1.234 . S
O241 Mn216 2.209 1_565 S
O241 Mn217 2.215 . S
O241 C218 1.283 . S
O242 Mn216 2.094 . S
O242 C220 1.240 . S
O243 Mn217 2.117 . S
O243 C220 1.264 1_565 S
C244 C237 1.403 . S
C244 C245 1.399 . S
C244 H250 0.929 . S
C245 C225 1.449 . S
C245 C244 1.399 . S
C245 H251 0.930 . S
H246 C226 0.931 . S
H247 C227 0.930 . S
H248 C235 0.931 . S
H249 C236 0.929 . S
H250 C244 0.929 . S
H251 C245 0.930 . S
Mn252 O257 2.095 . S
Mn252 O267 2.162 . S
Mn252 O268 2.297 . S
Mn252 O276 2.385 . S
Mn252 O277 2.209 . S
Mn252 O278 2.094 . S
Mn253 O258 2.121 . S
Mn253 N260 2.257 . S
Mn253 N269 2.282 . S
Mn253 O277 2.215 . S
Mn253 O279 2.117 . S
C254 O276 1.234 . S
C254 O277 1.283 . S
C255 O267 1.281 . S
C255 O268 1.236 . S
C256 O278 1.240 . S
C256 O279 1.264 . S
O257 Mn252 2.095 . S
O257 C266 1.250 . S
O258 Mn253 2.121 . S
O258 C266 1.258 . S
C259 N260 1.326 . S
C259 C263 1.460 . S
C259 H265 0.929 . S
N260 Mn253 2.257 . S
N260 C259 1.326 . S
N260 C264 1.362 . S
C261 C262 1.258 . S
C261 C264 1.431 . S
C261 C281 1.449 . S
C262 C261 1.258 . S
C262 C263 1.477 . S
C262 H282 0.931 . S
C263 C259 1.460 . S
C263 C262 1.477 . S
C263 H283 0.930 . S
C264 N260 1.362 . S
C264 C261 1.431 . S
C264 C274 1.476 . S
H265 C259 0.929 . S
C266 O257 1.250 . S
C266 O258 1.258 . S
O267 Mn252 2.162 . S
O267 C255 1.281 . S
O268 Mn252 2.297 . S
O268 C255 1.236 . S
N269 Mn253 2.282 . S
N269 C270 1.328 . S
N269 C274 1.318 . S
C270 N269 1.328 . S
C270 C271 1.457 . S
C270 H275 0.929 . S
C271 C270 1.457 . S
C271 C272 1.291 . S
C271 H284 0.931 . S
C272 C271 1.291 . S
C272 C273 1.373 . S
C272 H285 0.929 . S
C273 C272 1.373 . S
C273 C274 1.396 . S
C273 C280 1.403 . S
C274 C264 1.476 . S
C274 N269 1.318 . S
C274 C273 1.396 . S
H275 C270 0.929 . S
O276 Mn252 2.385 . S
O276 C254 1.234 . S
O277 Mn252 2.209 . S
O277 Mn253 2.215 . S
O277 C254 1.283 . S
O278 Mn252 2.094 . S
O278 C256 1.240 . S
O279 Mn253 2.117 . S
O279 C256 1.264 . S
C280 C273 1.403 . S
C280 C281 1.399 . S
C280 H286 0.929 . S
C281 C261 1.449 . S
C281 C280 1.399 . S
C281 H287 0.930 . S
H282 C262 0.931 . S
H283 C263 0.930 . S
H284 C271 0.931 . S
H285 C272 0.929 . S
H286 C280 0.929 . S
H287 C281 0.930 . S
Mn288 O293 2.095 . S
Mn288 O303 2.162 . S
Mn288 O304 2.297 . S
Mn288 O312 2.385 1_556 S
Mn288 O313 2.209 1_556 S
Mn288 O314 2.094 . S
Mn289 O294 2.121 . S
Mn289 N296 2.257 . S
Mn289 N305 2.282 . S
Mn289 O313 2.215 . S
Mn289 O315 2.117 . S
C290 O312 1.234 . S
C290 O313 1.283 . S
C291 O303 1.281 . S
C291 O304 1.236 . S
C292 O314 1.240 . S
C292 O315 1.264 1_556 S
O293 Mn288 2.095 . S
O293 C302 1.250 1_556 S
O294 Mn289 2.121 . S
O294 C302 1.258 . S
C295 N296 1.326 . S
C295 C299 1.460 . S
C295 H301 0.929 . S
N296 Mn289 2.257 . S
N296 C295 1.326 . S
N296 C300 1.362 . S
C297 C298 1.258 . S
C297 C300 1.431 . S
C297 C317 1.449 . S
C298 C297 1.258 . S
C298 C299 1.477 . S
C298 H318 0.931 . S
C299 C295 1.460 . S
C299 C298 1.477 . S
C299 H319 0.930 . S
C300 N296 1.362 . S
C300 C297 1.431 . S
C300 C310 1.476 . S
H301 C295 0.929 . S
C302 O293 1.250 1_554 S
C302 O294 1.258 . S
O303 Mn288 2.162 . S
O303 C291 1.281 . S
O304 Mn288 2.297 . S
O304 C291 1.236 . S
N305 Mn289 2.282 . S
N305 C306 1.328 . S
N305 C310 1.318 . S
C306 N305 1.328 . S
C306 C307 1.457 . S
C306 H311 0.929 . S
C307 C306 1.457 . S
C307 C308 1.291 . S
C307 H320 0.931 . S
C308 C307 1.291 . S
C308 C309 1.373 . S
C308 H321 0.929 . S
C309 C308 1.373 . S
C309 C310 1.396 . S
C309 C316 1.403 . S
C310 C300 1.476 . S
C310 N305 1.318 . S
C310 C309 1.396 . S
H311 C306 0.929 . S
O312 Mn288 2.385 1_554 S
O312 C290 1.234 . S
O313 Mn288 2.209 1_554 S
O313 Mn289 2.215 . S
O313 C290 1.283 . S
O314 Mn288 2.094 . S
O314 C292 1.240 . S
O315 Mn289 2.117 . S
O315 C292 1.264 1_554 S
C316 C309 1.403 . S
C316 C317 1.399 . S
C316 H322 0.929 . S
C317 C297 1.449 . S
C317 C316 1.399 . S
C317 H323 0.930 . S
H318 C298 0.931 . S
H319 C299 0.930 . S
H320 C307 0.931 . S
H321 C308 0.929 . S
H322 C316 0.929 . S
H323 C317 0.930 . S
Mn324 O329 2.095 . S
Mn324 O339 2.162 . S
Mn324 O340 2.297 . S
Mn324 O348 2.385 . S
Mn324 O349 2.209 . S
Mn324 O350 2.094 . S
Mn325 O330 2.121 . S
Mn325 N332 2.257 . S
Mn325 N341 2.282 . S
Mn325 O349 2.215 . S
Mn325 O351 2.117 . S
C326 O348 1.234 . S
C326 O349 1.283 . S
C327 O339 1.281 . S
C327 O340 1.236 . S
C328 O350 1.240 . S
C328 O351 1.264 . S
O329 Mn324 2.095 . S
O329 C338 1.250 . S
O330 Mn325 2.121 . S
O330 C338 1.258 . S
C331 N332 1.326 . S
C331 C335 1.460 . S
C331 H337 0.929 . S
N332 Mn325 2.257 . S
N332 C331 1.326 . S
N332 C336 1.362 . S
C333 C334 1.258 . S
C333 C336 1.431 . S
C333 C353 1.449 . S
C334 C333 1.258 . S
C334 C335 1.477 . S
C334 H354 0.931 . S
C335 C331 1.460 . S
C335 C334 1.477 . S
C335 H355 0.930 . S
C336 N332 1.362 . S
C336 C333 1.431 . S
C336 C346 1.476 . S
H337 C331 0.929 . S
C338 O329 1.250 . S
C338 O330 1.258 . S
O339 Mn324 2.162 . S
O339 C327 1.281 . S
O340 Mn324 2.297 . S
O340 C327 1.236 . S
N341 Mn325 2.282 . S
N341 C342 1.328 . S
N341 C346 1.318 . S
C342 N341 1.328 . S
C342 C343 1.457 . S
C342 H347 0.929 . S
C343 C342 1.457 . S
C343 C344 1.291 . S
C343 H356 0.931 . S
C344 C343 1.291 . S
C344 C345 1.373 . S
C344 H357 0.929 . S
C345 C344 1.373 . S
C345 C346 1.396 . S
C345 C352 1.403 . S
C346 C336 1.476 . S
C346 N341 1.318 . S
C346 C345 1.396 . S
H347 C342 0.929 . S
O348 Mn324 2.385 . S
O348 C326 1.234 . S
O349 Mn324 2.209 . S
O349 Mn325 2.215 . S
O349 C326 1.283 . S
O350 Mn324 2.094 . S
O350 C328 1.240 . S
O351 Mn325 2.117 . S
O351 C328 1.264 . S
C352 C345 1.403 . S
C352 C353 1.399 . S
C352 H358 0.929 . S
C353 C333 1.449 . S
C353 C352 1.399 . S
C353 H359 0.930 . S
H354 C334 0.931 . S
H355 C335 0.930 . S
H356 C343 0.931 . S
H357 C344 0.929 . S
H358 C352 0.929 . S
H359 C353 0.930 . S
Mn360 O365 2.095 . S
Mn360 O375 2.162 . S
Mn360 O376 2.297 . S
Mn360 O384 2.385 . S
Mn360 O385 2.209 . S
Mn360 O386 2.094 . S
Mn361 O366 2.121 . S
Mn361 N368 2.257 . S
Mn361 N377 2.282 . S
Mn361 O385 2.215 . S
Mn361 O387 2.117 . S
C362 O384 1.234 . S
C362 O385 1.283 . S
C363 O375 1.281 . S
C363 O376 1.236 . S
C364 O386 1.240 . S
C364 O387 1.264 . S
O365 Mn360 2.095 . S
O365 C374 1.250 . S
O366 Mn361 2.121 . S
O366 C374 1.258 . S
C367 N368 1.326 . S
C367 C371 1.460 . S
C367 H373 0.929 . S
N368 Mn361 2.257 . S
N368 C367 1.326 . S
N368 C372 1.362 . S
C369 C370 1.258 . S
C369 C372 1.431 . S
C369 C389 1.449 . S
C370 C369 1.258 . S
C370 C371 1.477 . S
C370 H390 0.931 . S
C371 C367 1.460 . S
C371 C370 1.477 . S
C371 H391 0.930 . S
C372 N368 1.362 . S
C372 C369 1.431 . S
C372 C382 1.476 . S
H373 C367 0.929 . S
C374 O365 1.250 . S
C374 O366 1.258 . S
O375 Mn360 2.162 . S
O375 C363 1.281 . S
O376 Mn360 2.297 . S
O376 C363 1.236 . S
N377 Mn361 2.282 . S
N377 C378 1.328 . S
N377 C382 1.318 . S
C378 N377 1.328 . S
C378 C379 1.457 . S
C378 H383 0.929 . S
C379 C378 1.457 . S
C379 C380 1.291 . S
C379 H392 0.931 . S
C380 C379 1.291 . S
C380 C381 1.373 . S
C380 H393 0.929 . S
C381 C380 1.373 . S
C381 C382 1.396 . S
C381 C388 1.403 . S
C382 C372 1.476 . S
C382 N377 1.318 . S
C382 C381 1.396 . S
H383 C378 0.929 . S
O384 Mn360 2.385 . S
O384 C362 1.234 . S
O385 Mn360 2.209 . S
O385 Mn361 2.215 . S
O385 C362 1.283 . S
O386 Mn360 2.094 . S
O386 C364 1.240 . S
O387 Mn361 2.117 . S
O387 C364 1.264 . S
C388 C381 1.403 . S
C388 C389 1.399 . S
C388 H394 0.929 . S
C389 C369 1.449 . S
C389 C388 1.399 . S
C389 H395 0.930 . S
H390 C370 0.931 . S
H391 C371 0.930 . S
H392 C379 0.931 . S
H393 C380 0.929 . S
H394 C388 0.929 . S
H395 C389 0.930 . S
Mn396 O401 2.095 . S
Mn396 O411 2.162 . S
Mn396 O412 2.297 . S
Mn396 O420 2.385 . S
Mn396 O421 2.209 . S
Mn396 O422 2.094 . S
Mn397 O402 2.121 . S
Mn397 N404 2.257 . S
Mn397 N413 2.282 . S
Mn397 O421 2.215 . S
Mn397 O423 2.117 . S
C398 O420 1.234 . S
C398 O421 1.283 . S
C399 O411 1.281 . S
C399 O412 1.236 . S
C400 O422 1.240 . S
C400 O423 1.264 . S
O401 Mn396 2.095 . S
O401 C410 1.250 . S
O402 Mn397 2.121 . S
O402 C410 1.258 . S
C403 N404 1.326 . S
C403 C407 1.460 . S
C403 H409 0.929 . S
N404 Mn397 2.257 . S
N404 C403 1.326 . S
N404 C408 1.362 . S
C405 C406 1.258 . S
C405 C408 1.431 . S
C405 C425 1.449 . S
C406 C405 1.258 . S
C406 C407 1.477 . S
C406 H426 0.931 . S
C407 C403 1.460 . S
C407 C406 1.477 . S
C407 H427 0.930 . S
C408 N404 1.362 . S
C408 C405 1.431 . S
C408 C418 1.476 . S
H409 C403 0.929 . S
C410 O401 1.250 . S
C410 O402 1.258 . S
O411 Mn396 2.162 . S
O411 C399 1.281 . S
O412 Mn396 2.297 . S
O412 C399 1.236 . S
N413 Mn397 2.282 . S
N413 C414 1.328 . S
N413 C418 1.318 . S
C414 N413 1.328 . S
C414 C415 1.457 . S
C414 H419 0.929 . S
C415 C414 1.457 . S
C415 C416 1.291 . S
C415 H428 0.931 . S
C416 C415 1.291 . S
C416 C417 1.373 . S
C416 H429 0.929 . S
C417 C416 1.373 . S
C417 C418 1.396 . S
C417 C424 1.403 . S
C418 C408 1.476 . S
C418 N413 1.318 . S
C418 C417 1.396 . S
H419 C414 0.929 . S
O420 Mn396 2.385 . S
O420 C398 1.234 . S
O421 Mn396 2.209 . S
O421 Mn397 2.215 . S
O421 C398 1.283 . S
O422 Mn396 2.094 . S
O422 C400 1.240 . S
O423 Mn397 2.117 . S
O423 C400 1.264 . S
C424 C417 1.403 . S
C424 C425 1.399 . S
C424 H430 0.929 . S
C425 C405 1.449 . S
C425 C424 1.399 . S
C425 H431 0.930 . S
H426 C406 0.931 . S
H427 C407 0.930 . S
H428 C415 0.931 . S
H429 C416 0.929 . S
H430 C424 0.929 . S
H431 C425 0.930 . S
Mn432 O437 2.095 . S
Mn432 O447 2.162 . S
Mn432 O448 2.297 . S
Mn432 O456 2.385 . S
Mn432 O457 2.209 . S
Mn432 O458 2.094 . S
Mn433 O438 2.121 . S
Mn433 N440 2.257 . S
Mn433 N449 2.282 . S
Mn433 O457 2.215 . S
Mn433 O459 2.117 . S
C434 O456 1.234 . S
C434 O457 1.283 . S
C435 O447 1.281 . S
C435 O448 1.236 . S
C436 O458 1.240 . S
C436 O459 1.264 . S
O437 Mn432 2.095 . S
O437 C446 1.250 . S
O438 Mn433 2.121 . S
O438 C446 1.258 . S
C439 N440 1.326 . S
C439 C443 1.460 . S
C439 H445 0.929 . S
N440 Mn433 2.257 . S
N440 C439 1.326 . S
N440 C444 1.362 . S
C441 C442 1.258 . S
C441 C444 1.431 . S
C441 C461 1.449 . S
C442 C441 1.258 . S
C442 C443 1.477 . S
C442 H462 0.931 . S
C443 C439 1.460 . S
C443 C442 1.477 . S
C443 H463 0.930 . S
C444 N440 1.362 . S
C444 C441 1.431 . S
C444 C454 1.476 . S
H445 C439 0.929 . S
C446 O437 1.250 . S
C446 O438 1.258 . S
O447 Mn432 2.162 . S
O447 C435 1.281 . S
O448 Mn432 2.297 . S
O448 C435 1.236 . S
N449 Mn433 2.282 . S
N449 C450 1.328 . S
N449 C454 1.318 . S
C450 N449 1.328 . S
C450 C451 1.457 . S
C450 H455 0.929 . S
C451 C450 1.457 . S
C451 C452 1.291 . S
C451 H464 0.931 . S
C452 C451 1.291 . S
C452 C453 1.373 . S
C452 H465 0.929 . S
C453 C452 1.373 . S
C453 C454 1.396 . S
C453 C460 1.403 . S
C454 C444 1.476 . S
C454 N449 1.318 . S
C454 C453 1.396 . S
H455 C450 0.929 . S
O456 Mn432 2.385 . S
O456 C434 1.234 . S
O457 Mn432 2.209 . S
O457 Mn433 2.215 . S
O457 C434 1.283 . S
O458 Mn432 2.094 . S
O458 C436 1.240 . S
O459 Mn433 2.117 . S
O459 C436 1.264 . S
C460 C453 1.403 . S
C460 C461 1.399 . S
C460 H466 0.929 . S
C461 C441 1.449 . S
C461 C460 1.399 . S
C461 H467 0.930 . S
H462 C442 0.931 . S
H463 C443 0.930 . S
H464 C451 0.931 . S
H465 C452 0.929 . S
H466 C460 0.929 . S
H467 C461 0.930 . S
Mn468 O473 2.095 . S
Mn468 O483 2.162 . S
Mn468 O484 2.297 . S
Mn468 O492 2.385 . S
Mn468 O493 2.209 . S
Mn468 O494 2.094 . S
Mn469 O474 2.121 . S
Mn469 N476 2.257 . S
Mn469 N485 2.282 . S
Mn469 O493 2.215 . S
Mn469 O495 2.117 . S
C470 O492 1.234 . S
C470 O493 1.283 . S
C471 O483 1.281 . S
C471 O484 1.236 . S
C472 O494 1.240 . S
C472 O495 1.264 . S
O473 Mn468 2.095 . S
O473 C482 1.250 . S
O474 Mn469 2.121 . S
O474 C482 1.258 . S
C475 N476 1.326 . S
C475 C479 1.460 . S
C475 H481 0.929 . S
N476 Mn469 2.257 . S
N476 C475 1.326 . S
N476 C480 1.362 . S
C477 C478 1.258 . S
C477 C480 1.431 . S
C477 C497 1.449 . S
C478 C477 1.258 . S
C478 C479 1.477 . S
C478 H498 0.931 . S
C479 C475 1.460 . S
C479 C478 1.477 . S
C479 H499 0.930 . S
C480 N476 1.362 . S
C480 C477 1.431 . S
C480 C490 1.476 . S
H481 C475 0.929 . S
C482 O473 1.250 . S
C482 O474 1.258 . S
O483 Mn468 2.162 . S
O483 C471 1.281 . S
O484 Mn468 2.297 . S
O484 C471 1.236 . S
N485 Mn469 2.282 . S
N485 C486 1.328 . S
N485 C490 1.318 . S
C486 N485 1.328 . S
C486 C487 1.457 . S
C486 H491 0.929 . S
C487 C486 1.457 . S
C487 C488 1.291 . S
C487 H500 0.931 . S
C488 C487 1.291 . S
C488 C489 1.373 . S
C488 H501 0.929 . S
C489 C488 1.373 . S
C489 C490 1.396 . S
C489 C496 1.403 . S
C490 C480 1.476 . S
C490 N485 1.318 . S
C490 C489 1.396 . S
H491 C486 0.929 . S
O492 Mn468 2.385 . S
O492 C470 1.234 . S
O493 Mn468 2.209 . S
O493 Mn469 2.215 . S
O493 C470 1.283 . S
O494 Mn468 2.094 . S
O494 C472 1.240 . S
O495 Mn469 2.117 . S
O495 C472 1.264 . S
C496 C489 1.403 . S
C496 C497 1.399 . S
C496 H502 0.929 . S
C497 C477 1.449 . S
C497 C496 1.399 . S
C497 H503 0.930 . S
H498 C478 0.931 . S
H499 C479 0.930 . S
H500 C487 0.931 . S
H501 C488 0.929 . S
H502 C496 0.929 . S
H503 C497 0.930 . S
Mn504 O509 2.095 . S
Mn504 O519 2.162 . S
Mn504 O520 2.297 . S
Mn504 O528 2.385 . S
Mn504 O529 2.209 . S
Mn504 O530 2.094 . S
Mn505 O510 2.121 . S
Mn505 N512 2.257 . S
Mn505 N521 2.282 . S
Mn505 O529 2.215 . S
Mn505 O531 2.117 . S
C506 O528 1.234 . S
C506 O529 1.283 . S
C507 O519 1.281 . S
C507 O520 1.236 . S
C508 O530 1.240 . S
C508 O531 1.264 . S
O509 Mn504 2.095 . S
O509 C518 1.250 . S
O510 Mn505 2.121 . S
O510 C518 1.258 . S
C511 N512 1.326 . S
C511 C515 1.460 . S
C511 H517 0.929 . S
N512 Mn505 2.257 . S
N512 C511 1.326 . S
N512 C516 1.362 . S
C513 C514 1.258 . S
C513 C516 1.431 . S
C513 C533 1.449 . S
C514 C513 1.258 . S
C514 C515 1.477 . S
C514 H534 0.931 . S
C515 C511 1.460 . S
C515 C514 1.477 . S
C515 H535 0.930 . S
C516 N512 1.362 . S
C516 C513 1.431 . S
C516 C526 1.476 . S
H517 C511 0.929 . S
C518 O509 1.250 . S
C518 O510 1.258 . S
O519 Mn504 2.162 . S
O519 C507 1.281 . S
O520 Mn504 2.297 . S
O520 C507 1.236 . S
N521 Mn505 2.282 . S
N521 C522 1.328 . S
N521 C526 1.318 . S
C522 N521 1.328 . S
C522 C523 1.457 . S
C522 H527 0.929 . S
C523 C522 1.457 . S
C523 C524 1.291 . S
C523 H536 0.931 . S
C524 C523 1.291 . S
C524 C525 1.373 . S
C524 H537 0.929 . S
C525 C524 1.373 . S
C525 C526 1.396 . S
C525 C532 1.403 . S
C526 C516 1.476 . S
C526 N521 1.318 . S
C526 C525 1.396 . S
H527 C522 0.929 . S
O528 Mn504 2.385 . S
O528 C506 1.234 . S
O529 Mn504 2.209 . S
O529 Mn505 2.215 . S
O529 C506 1.283 . S
O530 Mn504 2.094 . S
O530 C508 1.240 . S
O531 Mn505 2.117 . S
O531 C508 1.264 . S
C532 C525 1.403 . S
C532 C533 1.399 . S
C532 H538 0.929 . S
C533 C513 1.449 . S
C533 C532 1.399 . S
C533 H539 0.930 . S
H534 C514 0.931 . S
H535 C515 0.930 . S
H536 C523 0.931 . S
H537 C524 0.929 . S
H538 C532 0.929 . S
H539 C533 0.930 . S
Mn540 O545 2.095 . S
Mn540 O555 2.162 . S
Mn540 O556 2.297 . S
Mn540 O564 2.385 . S
Mn540 O565 2.209 . S
Mn540 O566 2.094 . S
Mn541 O546 2.121 . S
Mn541 N548 2.257 . S
Mn541 N557 2.282 . S
Mn541 O565 2.215 . S
Mn541 O567 2.117 . S
C542 O564 1.234 . S
C542 O565 1.283 . S
C543 O555 1.281 . S
C543 O556 1.236 . S
C544 O566 1.240 . S
C544 O567 1.264 . S
O545 Mn540 2.095 . S
O545 C554 1.250 . S
O546 Mn541 2.121 . S
O546 C554 1.258 . S
C547 N548 1.326 . S
C547 C551 1.460 . S
C547 H553 0.929 . S
N548 Mn541 2.257 . S
N548 C547 1.326 . S
N548 C552 1.362 . S
C549 C550 1.258 . S
C549 C552 1.431 . S
C549 C569 1.449 . S
C550 C549 1.258 . S
C550 C551 1.477 . S
C550 H570 0.931 . S
C551 C547 1.460 . S
C551 C550 1.477 . S
C551 H571 0.930 . S
C552 N548 1.362 . S
C552 C549 1.431 . S
C552 C562 1.476 . S
H553 C547 0.929 . S
C554 O545 1.250 . S
C554 O546 1.258 . S
O555 Mn540 2.162 . S
O555 C543 1.281 . S
O556 Mn540 2.297 . S
O556 C543 1.236 . S
N557 Mn541 2.282 . S
N557 C558 1.328 . S
N557 C562 1.318 . S
C558 N557 1.328 . S
C558 C559 1.457 . S
C558 H563 0.929 . S
C559 C558 1.457 . S
C559 C560 1.291 . S
C559 H572 0.931 . S
C560 C559 1.291 . S
C560 C561 1.373 . S
C560 H573 0.929 . S
C561 C560 1.373 . S
C561 C562 1.396 . S
C561 C568 1.403 . S
C562 C552 1.476 . S
C562 N557 1.318 . S
C562 C561 1.396 . S
H563 C558 0.929 . S
O564 Mn540 2.385 . S
O564 C542 1.234 . S
O565 Mn540 2.209 . S
O565 Mn541 2.215 . S
O565 C542 1.283 . S
O566 Mn540 2.094 . S
O566 C544 1.240 . S
O567 Mn541 2.117 . S
O567 C544 1.264 . S
C568 C561 1.403 . S
C568 C569 1.399 . S
C568 H574 0.929 . S
C569 C549 1.449 . S
C569 C568 1.399 . S
C569 H575 0.930 . S
H570 C550 0.931 . S
H571 C551 0.930 . S
H572 C559 0.931 . S
H573 C560 0.929 . S
H574 C568 0.929 . S
H575 C569 0.930 . S
Mn576 O581 2.095 . S
Mn576 O591 2.162 . S
Mn576 O592 2.297 . S
Mn576 O600 2.385 . S
Mn576 O601 2.209 . S
Mn576 O602 2.094 . S
Mn577 O582 2.121 . S
Mn577 N584 2.257 . S
Mn577 N593 2.282 . S
Mn577 O601 2.215 . S
Mn577 O603 2.117 . S
C578 O600 1.234 . S
C578 O601 1.283 . S
C579 O591 1.281 . S
C579 O592 1.236 . S
C580 O602 1.240 . S
C580 O603 1.264 . S
O581 Mn576 2.095 . S
O581 C590 1.250 . S
O582 Mn577 2.121 . S
O582 C590 1.258 . S
C583 N584 1.326 . S
C583 C587 1.460 . S
C583 H589 0.929 . S
N584 Mn577 2.257 . S
N584 C583 1.326 . S
N584 C588 1.362 . S
C585 C586 1.258 . S
C585 C588 1.431 . S
C585 C605 1.449 . S
C586 C585 1.258 . S
C586 C587 1.477 . S
C586 H606 0.931 . S
C587 C583 1.460 . S
C587 C586 1.477 . S
C587 H607 0.930 . S
C588 N584 1.362 . S
C588 C585 1.431 . S
C588 C598 1.476 . S
H589 C583 0.929 . S
C590 O581 1.250 . S
C590 O582 1.258 . S
O591 Mn576 2.162 . S
O591 C579 1.281 . S
O592 Mn576 2.297 . S
O592 C579 1.236 . S
N593 Mn577 2.282 . S
N593 C594 1.328 . S
N593 C598 1.318 . S
C594 N593 1.328 . S
C594 C595 1.457 . S
C594 H599 0.929 . S
C595 C594 1.457 . S
C595 C596 1.291 . S
C595 H608 0.931 . S
C596 C595 1.291 . S
C596 C597 1.373 . S
C596 H609 0.929 . S
C597 C596 1.373 . S
C597 C598 1.396 . S
C597 C604 1.403 . S
C598 C588 1.476 . S
C598 N593 1.318 . S
C598 C597 1.396 . S
H599 C594 0.929 . S
O600 Mn576 2.385 . S
O600 C578 1.234 . S
O601 Mn576 2.209 . S
O601 Mn577 2.215 . S
O601 C578 1.283 . S
O602 Mn576 2.094 . S
O602 C580 1.240 . S
O603 Mn577 2.117 . S
O603 C580 1.264 . S
C604 C597 1.403 . S
C604 C605 1.399 . S
C604 H610 0.929 . S
C605 C585 1.449 . S
C605 C604 1.399 . S
C605 H611 0.930 . S
H606 C586 0.931 . S
H607 C587 0.930 . S
H608 C595 0.931 . S
H609 C596 0.929 . S
H610 C604 0.929 . S
H611 C605 0.930 . S
Mn612 O617 2.095 . S
Mn612 O627 2.162 . S
Mn612 O628 2.297 . S
Mn612 O636 2.385 1_545 S
Mn612 O637 2.209 1_545 S
Mn612 O638 2.094 . S
Mn613 O618 2.121 . S
Mn613 N620 2.257 . S
Mn613 N629 2.282 . S
Mn613 O637 2.215 . S
Mn613 O639 2.117 . S
C614 O636 1.234 . S
C614 O637 1.283 . S
C615 O627 1.281 . S
C615 O628 1.236 . S
C616 O638 1.240 . S
C616 O639 1.264 1_545 S
O617 Mn612 2.095 . S
O617 C626 1.250 1_545 S
O618 Mn613 2.121 . S
O618 C626 1.258 . S
C619 N620 1.326 . S
C619 C623 1.460 . S
C619 H625 0.929 . S
N620 Mn613 2.257 . S
N620 C619 1.326 . S
N620 C624 1.362 . S
C621 C622 1.258 . S
C621 C624 1.431 . S
C621 C641 1.449 . S
C622 C621 1.258 . S
C622 C623 1.477 . S
C622 H642 0.931 . S
C623 C619 1.460 . S
C623 C622 1.477 . S
C623 H643 0.930 . S
C624 N620 1.362 . S
C624 C621 1.431 . S
C624 C634 1.476 . S
H625 C619 0.929 . S
C626 O617 1.250 1_565 S
C626 O618 1.258 . S
O627 Mn612 2.162 . S
O627 C615 1.281 . S
O628 Mn612 2.297 . S
O628 C615 1.236 . S
N629 Mn613 2.282 . S
N629 C630 1.328 . S
N629 C634 1.318 . S
C630 N629 1.328 . S
C630 C631 1.457 . S
C630 H635 0.929 . S
C631 C630 1.457 . S
C631 C632 1.291 . S
C631 H644 0.931 . S
C632 C631 1.291 . S
C632 C633 1.373 . S
C632 H645 0.929 . S
C633 C632 1.373 . S
C633 C634 1.396 . S
C633 C640 1.403 . S
C634 C624 1.476 . S
C634 N629 1.318 . S
C634 C633 1.396 . S
H635 C630 0.929 . S
O636 Mn612 2.385 1_565 S
O636 C614 1.234 . S
O637 Mn612 2.209 1_565 S
O637 Mn613 2.215 . S
O637 C614 1.283 . S
O638 Mn612 2.094 . S
O638 C616 1.240 . S
O639 Mn613 2.117 . S
O639 C616 1.264 1_565 S
C640 C633 1.403 . S
C640 C641 1.399 . S
C640 H646 0.929 . S
C641 C621 1.449 . S
C641 C640 1.399 . S
C641 H647 0.930 . S
H642 C622 0.931 . S
H643 C623 0.930 . S
H644 C631 0.931 . S
H645 C632 0.929 . S
H646 C640 0.929 . S
H647 C641 0.930 . S
Mn648 O653 2.095 . S
Mn648 O663 2.162 . S
Mn648 O664 2.297 . S
Mn648 O672 2.385 . S
Mn648 O673 2.209 . S
Mn648 O674 2.094 . S
Mn649 O654 2.121 . S
Mn649 N656 2.257 . S
Mn649 N665 2.282 . S
Mn649 O673 2.215 . S
Mn649 O675 2.117 . S
C650 O672 1.234 . S
C650 O673 1.283 . S
C651 O663 1.281 . S
C651 O664 1.236 . S
C652 O674 1.240 . S
C652 O675 1.264 . S
O653 Mn648 2.095 . S
O653 C662 1.250 . S
O654 Mn649 2.121 . S
O654 C662 1.258 . S
C655 N656 1.326 . S
C655 C659 1.460 . S
C655 H661 0.929 . S
N656 Mn649 2.257 . S
N656 C655 1.326 . S
N656 C660 1.362 . S
C657 C658 1.258 . S
C657 C660 1.431 . S
C657 C677 1.449 . S
C658 C657 1.258 . S
C658 C659 1.477 . S
C658 H678 0.931 . S
C659 C655 1.460 . S
C659 C658 1.477 . S
C659 H679 0.930 . S
C660 N656 1.362 . S
C660 C657 1.431 . S
C660 C670 1.476 . S
H661 C655 0.929 . S
C662 O653 1.250 . S
C662 O654 1.258 . S
O663 Mn648 2.162 . S
O663 C651 1.281 . S
O664 Mn648 2.297 . S
O664 C651 1.236 . S
N665 Mn649 2.282 . S
N665 C666 1.328 . S
N665 C670 1.318 . S
C666 N665 1.328 . S
C666 C667 1.457 . S
C666 H671 0.929 . S
C667 C666 1.457 . S
C667 C668 1.291 . S
C667 H680 0.931 . S
C668 C667 1.291 . S
C668 C669 1.373 . S
C668 H681 0.929 . S
C669 C668 1.373 . S
C669 C670 1.396 . S
C669 C676 1.403 . S
C670 C660 1.476 . S
C670 N665 1.318 . S
C670 C669 1.396 . S
H671 C666 0.929 . S
O672 Mn648 2.385 . S
O672 C650 1.234 . S
O673 Mn648 2.209 . S
O673 Mn649 2.215 . S
O673 C650 1.283 . S
O674 Mn648 2.094 . S
O674 C652 1.240 . S
O675 Mn649 2.117 . S
O675 C652 1.264 . S
C676 C669 1.403 . S
C676 C677 1.399 . S
C676 H682 0.929 . S
C677 C657 1.449 . S
C677 C676 1.399 . S
C677 H683 0.930 . S
H678 C658 0.931 . S
H679 C659 0.930 . S
H680 C667 0.931 . S
H681 C668 0.929 . S
H682 C676 0.929 . S
H683 C677 0.930 . S
Mn684 O689 2.095 . S
Mn684 O699 2.162 . S
Mn684 O700 2.297 . S
Mn684 O708 2.385 1_565 S
Mn684 O709 2.209 1_565 S
Mn684 O710 2.094 . S
Mn685 O690 2.121 . S
Mn685 N692 2.257 . S
Mn685 N701 2.282 . S
Mn685 O709 2.215 . S
Mn685 O711 2.117 . S
C686 O708 1.234 . S
C686 O709 1.283 . S
C687 O699 1.281 . S
C687 O700 1.236 . S
C688 O710 1.240 . S
C688 O711 1.264 1_565 S
O689 Mn684 2.095 . S
O689 C698 1.250 1_565 S
O690 Mn685 2.121 . S
O690 C698 1.258 . S
C691 N692 1.326 . S
C691 C695 1.460 . S
C691 H697 0.929 . S
N692 Mn685 2.257 . S
N692 C691 1.326 . S
N692 C696 1.362 . S
C693 C694 1.258 . S
C693 C696 1.431 . S
C693 C713 1.449 . S
C694 C693 1.258 . S
C694 C695 1.477 . S
C694 H714 0.931 . S
C695 C691 1.460 . S
C695 C694 1.477 . S
C695 H715 0.930 . S
C696 N692 1.362 . S
C696 C693 1.431 . S
C696 C706 1.476 . S
H697 C691 0.929 . S
C698 O689 1.250 1_545 S
C698 O690 1.258 . S
O699 Mn684 2.162 . S
O699 C687 1.281 . S
O700 Mn684 2.297 . S
O700 C687 1.236 . S
N701 Mn685 2.282 . S
N701 C702 1.328 . S
N701 C706 1.318 . S
C702 N701 1.328 . S
C702 C703 1.457 . S
C702 H707 0.929 . S
C703 C702 1.457 . S
C703 C704 1.291 . S
C703 H716 0.931 . S
C704 C703 1.291 . S
C704 C705 1.373 . S
C704 H717 0.929 . S
C705 C704 1.373 . S
C705 C706 1.396 . S
C705 C712 1.403 . S
C706 C696 1.476 . S
C706 N701 1.318 . S
C706 C705 1.396 . S
H707 C702 0.929 . S
O708 Mn684 2.385 1_545 S
O708 C686 1.234 . S
O709 Mn684 2.209 1_545 S
O709 Mn685 2.215 . S
O709 C686 1.283 . S
O710 Mn684 2.094 . S
O710 C688 1.240 . S
O711 Mn685 2.117 . S
O711 C688 1.264 1_545 S
C712 C705 1.403 . S
C712 C713 1.399 . S
C712 H718 0.929 . S
C713 C693 1.449 . S
C713 C712 1.399 . S
C713 H719 0.930 . S
H714 C694 0.931 . S
H715 C695 0.930 . S
H716 C703 0.931 . S
H717 C704 0.929 . S
H718 C712 0.929 . S
H719 C713 0.930 . S
Mn720 O725 2.095 . S
Mn720 O735 2.162 . S
Mn720 O736 2.297 . S
Mn720 O744 2.385 . S
Mn720 O745 2.209 . S
Mn720 O746 2.094 . S
Mn721 O726 2.121 . S
Mn721 N728 2.257 . S
Mn721 N737 2.282 . S
Mn721 O745 2.215 . S
Mn721 O747 2.117 . S
C722 O744 1.234 . S
C722 O745 1.283 . S
C723 O735 1.281 . S
C723 O736 1.236 . S
C724 O746 1.240 . S
C724 O747 1.264 . S
O725 Mn720 2.095 . S
O725 C734 1.250 . S
O726 Mn721 2.121 . S
O726 C734 1.258 . S
C727 N728 1.326 . S
C727 C731 1.460 . S
C727 H733 0.929 . S
N728 Mn721 2.257 . S
N728 C727 1.326 . S
N728 C732 1.362 . S
C729 C730 1.258 . S
C729 C732 1.431 . S
C729 C749 1.449 . S
C730 C729 1.258 . S
C730 C731 1.477 . S
C730 H750 0.931 . S
C731 C727 1.460 . S
C731 C730 1.477 . S
C731 H751 0.930 . S
C732 N728 1.362 . S
C732 C729 1.431 . S
C732 C742 1.476 . S
H733 C727 0.929 . S
C734 O725 1.250 . S
C734 O726 1.258 . S
O735 Mn720 2.162 . S
O735 C723 1.281 . S
O736 Mn720 2.297 . S
O736 C723 1.236 . S
N737 Mn721 2.282 . S
N737 C738 1.328 . S
N737 C742 1.318 . S
C738 N737 1.328 . S
C738 C739 1.457 . S
C738 H743 0.929 . S
C739 C738 1.457 . S
C739 C740 1.291 . S
C739 H752 0.931 . S
C740 C739 1.291 . S
C740 C741 1.373 . S
C740 H753 0.929 . S
C741 C740 1.373 . S
C741 C742 1.396 . S
C741 C748 1.403 . S
C742 C732 1.476 . S
C742 N737 1.318 . S
C742 C741 1.396 . S
H743 C738 0.929 . S
O744 Mn720 2.385 . S
O744 C722 1.234 . S
O745 Mn720 2.209 . S
O745 Mn721 2.215 . S
O745 C722 1.283 . S
O746 Mn720 2.094 . S
O746 C724 1.240 . S
O747 Mn721 2.117 . S
O747 C724 1.264 . S
C748 C741 1.403 . S
C748 C749 1.399 . S
C748 H754 0.929 . S
C749 C729 1.449 . S
C749 C748 1.399 . S
C749 H755 0.930 . S
H750 C730 0.931 . S
H751 C731 0.930 . S
H752 C739 0.931 . S
H753 C740 0.929 . S
H754 C748 0.929 . S
H755 C749 0.930 . S
Mn756 O761 2.095 . S
Mn756 O771 2.162 . S
Mn756 O772 2.297 . S
Mn756 O780 2.385 1_554 S
Mn756 O781 2.209 1_554 S
Mn756 O782 2.094 . S
Mn757 O762 2.121 . S
Mn757 N764 2.257 . S
Mn757 N773 2.282 . S
Mn757 O781 2.215 . S
Mn757 O783 2.117 . S
C758 O780 1.234 . S
C758 O781 1.283 . S
C759 O771 1.281 . S
C759 O772 1.236 . S
C760 O782 1.240 . S
C760 O783 1.264 1_554 S
O761 Mn756 2.095 . S
O761 C770 1.250 1_554 S
O762 Mn757 2.121 . S
O762 C770 1.258 . S
C763 N764 1.326 . S
C763 C767 1.460 . S
C763 H769 0.929 . S
N764 Mn757 2.257 . S
N764 C763 1.326 . S
N764 C768 1.362 . S
C765 C766 1.258 . S
C765 C768 1.431 . S
C765 C785 1.449 . S
C766 C765 1.258 . S
C766 C767 1.477 . S
C766 H786 0.931 . S
C767 C763 1.460 . S
C767 C766 1.477 . S
C767 H787 0.930 . S
C768 N764 1.362 . S
C768 C765 1.431 . S
C768 C778 1.476 . S
H769 C763 0.929 . S
C770 O761 1.250 1_556 S
C770 O762 1.258 . S
O771 Mn756 2.162 . S
O771 C759 1.281 . S
O772 Mn756 2.297 . S
O772 C759 1.236 . S
N773 Mn757 2.282 . S
N773 C774 1.328 . S
N773 C778 1.318 . S
C774 N773 1.328 . S
C774 C775 1.457 . S
C774 H779 0.929 . S
C775 C774 1.457 . S
C775 C776 1.291 . S
C775 H788 0.931 . S
C776 C775 1.291 . S
C776 C777 1.373 . S
C776 H789 0.929 . S
C777 C776 1.373 . S
C777 C778 1.396 . S
C777 C784 1.403 . S
C778 C768 1.476 . S
C778 N773 1.318 . S
C778 C777 1.396 . S
H779 C774 0.929 . S
O780 Mn756 2.385 1_556 S
O780 C758 1.234 . S
O781 Mn756 2.209 1_556 S
O781 Mn757 2.215 . S
O781 C758 1.283 . S
O782 Mn756 2.094 . S
O782 C760 1.240 . S
O783 Mn757 2.117 . S
O783 C760 1.264 1_556 S
C784 C777 1.403 . S
C784 C785 1.399 . S
C784 H790 0.929 . S
C785 C765 1.449 . S
C785 C784 1.399 . S
C785 H791 0.930 . S
H786 C766 0.931 . S
H787 C767 0.930 . S
H788 C775 0.931 . S
H789 C776 0.929 . S
H790 C784 0.929 . S
H791 C785 0.930 . S
Mn792 O797 2.095 . S
Mn792 O807 2.162 . S
Mn792 O808 2.297 . S
Mn792 O816 2.385 1_554 S
Mn792 O817 2.209 1_554 S
Mn792 O818 2.094 . S
Mn793 O798 2.121 . S
Mn793 N800 2.257 . S
Mn793 N809 2.282 . S
Mn793 O817 2.215 . S
Mn793 O819 2.117 . S
C794 O816 1.234 . S
C794 O817 1.283 . S
C795 O807 1.281 . S
C795 O808 1.236 . S
C796 O818 1.240 . S
C796 O819 1.264 1_554 S
O797 Mn792 2.095 . S
O797 C806 1.250 1_554 S
O798 Mn793 2.121 . S
O798 C806 1.258 . S
C799 N800 1.326 . S
C799 C803 1.460 . S
C799 H805 0.929 . S
N800 Mn793 2.257 . S
N800 C799 1.326 . S
N800 C804 1.362 . S
C801 C802 1.258 . S
C801 C804 1.431 . S
C801 C821 1.449 . S
C802 C801 1.258 . S
C802 C803 1.477 . S
C802 H822 0.931 . S
C803 C799 1.460 . S
C803 C802 1.477 . S
C803 H823 0.930 . S
C804 N800 1.362 . S
C804 C801 1.431 . S
C804 C814 1.476 . S
H805 C799 0.929 . S
C806 O797 1.250 1_556 S
C806 O798 1.258 . S
O807 Mn792 2.162 . S
O807 C795 1.281 . S
O808 Mn792 2.297 . S
O808 C795 1.236 . S
N809 Mn793 2.282 . S
N809 C810 1.328 . S
N809 C814 1.318 . S
C810 N809 1.328 . S
C810 C811 1.457 . S
C810 H815 0.929 . S
C811 C810 1.457 . S
C811 C812 1.291 . S
C811 H824 0.931 . S
C812 C811 1.291 . S
C812 C813 1.373 . S
C812 H825 0.929 . S
C813 C812 1.373 . S
C813 C814 1.396 . S
C813 C820 1.403 . S
C814 C804 1.476 . S
C814 N809 1.318 . S
C814 C813 1.396 . S
H815 C810 0.929 . S
O816 Mn792 2.385 1_556 S
O816 C794 1.234 . S
O817 Mn792 2.209 1_556 S
O817 Mn793 2.215 . S
O817 C794 1.283 . S
O818 Mn792 2.094 . S
O818 C796 1.240 . S
O819 Mn793 2.117 . S
O819 C796 1.264 1_556 S
C820 C813 1.403 . S
C820 C821 1.399 . S
C820 H826 0.929 . S
C821 C801 1.449 . S
C821 C820 1.399 . S
C821 H827 0.930 . S
H822 C802 0.931 . S
H823 C803 0.930 . S
H824 C811 0.931 . S
H825 C812 0.929 . S
H826 C820 0.929 . S
H827 C821 0.930 . S
Mn828 O833 2.095 . S
Mn828 O843 2.162 . S
Mn828 O844 2.297 . S
Mn828 O852 2.385 1_556 S
Mn828 O853 2.209 1_556 S
Mn828 O854 2.094 . S
Mn829 O834 2.121 . S
Mn829 N836 2.257 . S
Mn829 N845 2.282 . S
Mn829 O853 2.215 . S
Mn829 O855 2.117 . S
C830 O852 1.234 . S
C830 O853 1.283 . S
C831 O843 1.281 . S
C831 O844 1.236 . S
C832 O854 1.240 . S
C832 O855 1.264 1_556 S
O833 Mn828 2.095 . S
O833 C842 1.250 1_556 S
O834 Mn829 2.121 . S
O834 C842 1.258 . S
C835 N836 1.326 . S
C835 C839 1.460 . S
C835 H841 0.929 . S
N836 Mn829 2.257 . S
N836 C835 1.326 . S
N836 C840 1.362 . S
C837 C838 1.258 . S
C837 C840 1.431 . S
C837 C857 1.449 . S
C838 C837 1.258 . S
C838 C839 1.477 . S
C838 H858 0.931 . S
C839 C835 1.460 . S
C839 C838 1.477 . S
C839 H859 0.930 . S
C840 N836 1.362 . S
C840 C837 1.431 . S
C840 C850 1.476 . S
H841 C835 0.929 . S
C842 O833 1.250 1_554 S
C842 O834 1.258 . S
O843 Mn828 2.162 . S
O843 C831 1.281 . S
O844 Mn828 2.297 . S
O844 C831 1.236 . S
N845 Mn829 2.282 . S
N845 C846 1.328 . S
N845 C850 1.318 . S
C846 N845 1.328 . S
C846 C847 1.457 . S
C846 H851 0.929 . S
C847 C846 1.457 . S
C847 C848 1.291 . S
C847 H860 0.931 . S
C848 C847 1.291 . S
C848 C849 1.373 . S
C848 H861 0.929 . S
C849 C848 1.373 . S
C849 C850 1.396 . S
C849 C856 1.403 . S
C850 C840 1.476 . S
C850 N845 1.318 . S
C850 C849 1.396 . S
H851 C846 0.929 . S
O852 Mn828 2.385 1_554 S
O852 C830 1.234 . S
O853 Mn828 2.209 1_554 S
O853 Mn829 2.215 . S
O853 C830 1.283 . S
O854 Mn828 2.094 . S
O854 C832 1.240 . S
O855 Mn829 2.117 . S
O855 C832 1.264 1_554 S
C856 C849 1.403 . S
C856 C857 1.399 . S
C856 H862 0.929 . S
C857 C837 1.449 . S
C857 C856 1.399 . S
C857 H863 0.930 . S
H858 C838 0.931 . S
H859 C839 0.930 . S
H860 C847 0.931 . S
H861 C848 0.929 . S
H862 C856 0.929 . S
H863 C857 0.930 . S
C864 C865 1.391 . S
C864 C866 1.394 . S
C864 H880 0.931 . S
C865 C864 1.391 . S
C865 C869 1.376 . S
C866 C864 1.394 . S
C866 C867 1.369 . S
C866 C870 1.531 . S
C867 C866 1.369 . S
C867 C868 1.410 . S
C867 C875 1.503 . S
C868 C867 1.410 . S
C868 C869 1.392 . S
C868 C871 1.511 . S
C869 C865 1.376 . S
C869 C868 1.392 . S
C869 H881 0.929 . S
C870 C866 1.531 . S
C870 H882 0.960 . S
C870 H883 0.962 . S
C870 H884 0.960 1_545 S
C871 C868 1.511 . S
C871 H885 0.961 . S
C871 H886 0.961 . S
C871 H887 0.961 . S
C872 C873 1.370 . S
C872 C874 1.363 . S
C872 H888 0.931 . S
C873 C872 1.370 . S
C873 C877 1.408 . S
C874 C872 1.363 . S
C874 C875 1.370 . S
C874 C878 1.524 . S
C875 C867 1.503 . S
C875 C874 1.370 . S
C875 C876 1.403 . S
C876 C875 1.403 . S
C876 C877 1.404 . S
C876 C879 1.539 . S
C877 C873 1.408 . S
C877 C876 1.404 . S
C877 H889 0.930 . S
C878 C874 1.524 . S
C878 H890 0.956 . S
C878 H891 0.961 . S
C878 H892 0.961 . S
C879 C876 1.539 . S
C879 H893 0.958 . S
C879 H894 0.961 . S
C879 H895 0.960 . S
H880 C864 0.931 . S
H881 C869 0.929 . S
H882 C870 0.960 . S
H883 C870 0.962 . S
H884 C870 0.960 1_565 S
H885 C871 0.961 . S
H886 C871 0.961 . S
H887 C871 0.961 . S
H888 C872 0.931 . S
H889 C877 0.930 . S
H890 C878 0.956 . S
H891 C878 0.961 . S
H892 C878 0.961 . S
H893 C879 0.958 . S
H894 C879 0.961 . S
H895 C879 0.960 . S
C896 C897 1.391 . S
C896 C898 1.394 . S
C896 H912 0.931 . S
C897 C896 1.391 . S
C897 C901 1.376 . S
C898 C896 1.394 . S
C898 C899 1.369 . S
C898 C902 1.531 . S
C899 C898 1.369 . S
C899 C900 1.410 . S
C899 C907 1.503 . S
C900 C899 1.410 . S
C900 C901 1.392 . S
C900 C903 1.511 . S
C901 C897 1.376 . S
C901 C900 1.392 . S
C901 H913 0.929 . S
C902 C898 1.531 . S
C902 H914 0.960 . S
C902 H915 0.962 . S
C902 H916 0.960 . S
C903 C900 1.511 . S
C903 H917 0.961 . S
C903 H918 0.961 . S
C903 H919 0.961 . S
C904 C905 1.370 . S
C904 C906 1.363 . S
C904 H920 0.931 . S
C905 C904 1.370 . S
C905 C909 1.408 . S
C906 C904 1.363 . S
C906 C907 1.370 . S
C906 C910 1.524 . S
C907 C899 1.503 . S
C907 C906 1.370 . S
C907 C908 1.403 . S
C908 C907 1.403 . S
C908 C909 1.404 . S
C908 C911 1.539 . S
C909 C905 1.408 . S
C909 C908 1.404 . S
C909 H921 0.930 . S
C910 C906 1.524 . S
C910 H922 0.956 . S
C910 H923 0.961 . S
C910 H924 0.961 . S
C911 C908 1.539 . S
C911 H925 0.958 . S
C911 H926 0.961 . S
C911 H927 0.960 . S
H912 C896 0.931 . S
H913 C901 0.929 . S
H914 C902 0.960 . S
H915 C902 0.962 . S
H916 C902 0.960 . S
H917 C903 0.961 . S
H918 C903 0.961 . S
H919 C903 0.961 . S
H920 C904 0.931 . S
H921 C909 0.930 . S
H922 C910 0.956 . S
H923 C910 0.961 . S
H924 C910 0.961 . S
H925 C911 0.958 . S
H926 C911 0.961 . S
H927 C911 0.960 . S
C928 C929 1.391 . S
C928 C930 1.394 . S
C928 H944 0.931 . S
C929 C928 1.391 . S
C929 C933 1.376 . S
C930 C928 1.394 . S
C930 C931 1.369 . S
C930 C934 1.531 . S
C931 C930 1.369 . S
C931 C932 1.410 . S
C931 C939 1.503 . S
C932 C931 1.410 . S
C932 C933 1.392 . S
C932 C935 1.511 . S
C933 C929 1.376 . S
C933 C932 1.392 . S
C933 H945 0.929 . S
C934 C930 1.531 . S
C934 H946 0.960 . S
C934 H947 0.962 . S
C934 H948 0.960 . S
C935 C932 1.511 . S
C935 H949 0.961 . S
C935 H950 0.961 . S
C935 H951 0.961 . S
C936 C937 1.370 . S
C936 C938 1.377 . S
C936 H952 0.931 . S
C937 C936 1.370 . S
C937 C941 1.408 . S
C938 C936 1.377 . S
C938 C939 1.360 1_556 S
C938 C942 1.522 1_556 S
C939 C931 1.503 . S
C939 C938 1.360 1_554 S
C939 C940 1.403 . S
C940 C939 1.403 . S
C940 C941 1.404 1_554 S
C940 C943 1.539 . S
C941 C937 1.408 . S
C941 C940 1.404 1_556 S
C941 H953 0.930 . S
C942 C938 1.522 1_554 S
C942 H954 0.956 . S
C942 H955 0.961 . S
C942 H956 0.961 1_554 S
C943 C940 1.539 . S
C943 H957 0.958 1_565 S
C943 H958 0.959 . S
C943 H959 0.960 . S
H944 C928 0.931 . S
H945 C933 0.929 . S
H946 C934 0.960 . S
H947 C934 0.962 . S
H948 C934 0.960 . S
H949 C935 0.961 . S
H950 C935 0.961 . S
H951 C935 0.961 . S
H952 C936 0.931 . S
H953 C941 0.930 . S
H954 C942 0.956 . S
H955 C942 0.961 . S
H956 C942 0.961 1_556 S
H957 C943 0.958 1_545 S
H958 C943 0.959 . S
H959 C943 0.960 . S
C960 C961 1.391 . S
C960 C962 1.394 . S
C960 H976 0.931 . S
C961 C960 1.391 . S
C961 C965 1.376 . S
C962 C960 1.394 . S
C962 C963 1.369 . S
C962 C966 1.531 . S
C963 C962 1.369 . S
C963 C964 1.410 . S
C963 C971 1.503 . S
C964 C963 1.410 . S
C964 C965 1.392 . S
C964 C967 1.511 . S
C965 C961 1.376 . S
C965 C964 1.392 . S
C965 H977 0.929 . S
C966 C962 1.531 . S
C966 H978 0.960 . S
C966 H979 0.962 . S
C966 H980 0.960 . S
C967 C964 1.511 . S
C967 H981 0.961 . S
C967 H982 0.961 . S
C967 H983 0.961 . S
C968 C969 1.370 . S
C968 C970 1.363 1_556 S
C968 H984 0.931 . S
C969 C968 1.370 . S
C969 C973 1.408 . S
C970 C968 1.363 1_554 S
C970 C971 1.370 . S
C970 C974 1.524 . S
C971 C963 1.503 . S
C971 C970 1.370 . S
C971 C972 1.403 1_554 S
C972 C971 1.403 1_556 S
C972 C973 1.404 . S
C972 C975 1.539 . S
C973 C969 1.408 . S
C973 C972 1.404 . S
C973 H985 0.930 . S
C974 C970 1.524 . S
C974 H986 0.956 . S
C974 H987 0.961 . S
C974 H988 0.961 . S
C975 C972 1.539 . S
C975 H989 0.958 . S
C975 H990 0.961 . S
C975 H991 0.960 1_556 S
H976 C960 0.931 . S
H977 C965 0.929 . S
H978 C966 0.960 . S
H979 C966 0.962 . S
H980 C966 0.960 . S
H981 C967 0.961 . S
H982 C967 0.961 . S
H983 C967 0.961 . S
H984 C968 0.931 . S
H985 C973 0.930 . S
H986 C974 0.956 . S
H987 C974 0.961 . S
H988 C974 0.961 . S
H989 C975 0.958 . S
H990 C975 0.961 . S
H991 C975 0.960 1_554 S
C992 C993 1.391 . S
C992 C994 1.394 . S
C992 H1008 0.931 . S
C993 C992 1.391 . S
C993 C997 1.376 . S
C994 C992 1.394 . S
C994 C995 1.369 . S
C994 C998 1.531 . S
C995 C994 1.369 . S
C995 C996 1.410 . S
C995 C1003 1.503 . S
C996 C995 1.410 . S
C996 C997 1.392 . S
C996 C999 1.511 . S
C997 C993 1.376 . S
C997 C996 1.392 . S
C997 H1009 0.929 . S
C998 C994 1.531 . S
C998 H1010 0.960 . S
C998 H1011 0.962 . S
C998 H1012 0.960 . S
C999 C996 1.511 . S
C999 H1013 0.961 . S
C999 H1014 0.961 . S
C999 H1015 0.961 . S
C1000 C1001 1.370 . S
C1000 C1002 1.363 . S
C1000 H1016 0.931 . S
C1001 C1000 1.370 . S
C1001 C1005 1.408 . S
C1002 C1000 1.363 . S
C1002 C1003 1.370 . S
C1002 C1006 1.524 . S
C1003 C995 1.503 . S
C1003 C1002 1.370 . S
C1003 C1004 1.403 . S
C1004 C1003 1.403 . S
C1004 C1005 1.404 . S
C1004 C1007 1.539 . S
C1005 C1001 1.408 . S
C1005 C1004 1.404 . S
C1005 H1017 0.930 . S
C1006 C1002 1.524 . S
C1006 H1018 0.956 . S
C1006 H1019 0.961 . S
C1006 H1020 0.961 . S
C1007 C1004 1.539 . S
C1007 H1021 0.958 . S
C1007 H1022 0.961 . S
C1007 H1023 0.960 . S
H1008 C992 0.931 . S
H1009 C997 0.929 . S
H1010 C998 0.960 . S
H1011 C998 0.962 . S
H1012 C998 0.960 . S
H1013 C999 0.961 . S
H1014 C999 0.961 . S
H1015 C999 0.961 . S
H1016 C1000 0.931 . S
H1017 C1005 0.930 . S
H1018 C1006 0.956 . S
H1019 C1006 0.961 . S
H1020 C1006 0.961 . S
H1021 C1007 0.958 . S
H1022 C1007 0.961 . S
H1023 C1007 0.960 . S
C1024 C1025 1.391 . S
C1024 C1026 1.394 . S
C1024 H1040 0.931 . S
C1025 C1024 1.391 . S
C1025 C1029 1.376 . S
C1026 C1024 1.394 . S
C1026 C1027 1.369 . S
C1026 C1030 1.531 . S
C1027 C1026 1.369 . S
C1027 C1028 1.410 . S
C1027 C1035 1.503 . S
C1028 C1027 1.410 . S
C1028 C1029 1.392 . S
C1028 C1031 1.511 . S
C1029 C1025 1.376 . S
C1029 C1028 1.392 . S
C1029 H1041 0.929 . S
C1030 C1026 1.531 . S
C1030 H1042 0.960 . S
C1030 H1043 0.962 . S
C1030 H1044 0.960 . S
C1031 C1028 1.511 . S
C1031 H1045 0.961 . S
C1031 H1046 0.961 . S
C1031 H1047 0.961 . S
C1032 C1033 1.370 . S
C1032 C1034 1.363 . S
C1032 H1048 0.931 . S
C1033 C1032 1.370 . S
C1033 C1037 1.408 . S
C1034 C1032 1.363 . S
C1034 C1035 1.370 . S
C1034 C1038 1.524 . S
C1035 C1027 1.503 . S
C1035 C1034 1.370 . S
C1035 C1036 1.403 . S
C1036 C1035 1.403 . S
C1036 C1037 1.404 . S
C1036 C1039 1.539 . S
C1037 C1033 1.408 . S
C1037 C1036 1.404 . S
C1037 H1049 0.930 . S
C1038 C1034 1.524 . S
C1038 H1050 0.956 . S
C1038 H1051 0.961 . S
C1038 H1052 0.961 1_554 S
C1039 C1036 1.539 . S
C1039 H1053 0.958 . S
C1039 H1054 0.961 . S
C1039 H1055 0.960 . S
H1040 C1024 0.931 . S
H1041 C1029 0.929 . S
H1042 C1030 0.960 . S
H1043 C1030 0.962 . S
H1044 C1030 0.960 . S
H1045 C1031 0.961 . S
H1046 C1031 0.961 . S
H1047 C1031 0.961 . S
H1048 C1032 0.931 . S
H1049 C1037 0.930 . S
H1050 C1038 0.956 . S
H1051 C1038 0.961 . S
H1052 C1038 0.961 1_556 S
H1053 C1039 0.958 . S
H1054 C1039 0.961 . S
H1055 C1039 0.960 . S
C1056 C1057 1.391 . S
C1056 C1058 1.394 . S
C1056 H1072 0.931 . S
C1057 C1056 1.391 . S
C1057 C1061 1.376 . S
C1058 C1056 1.394 . S
C1058 C1059 1.369 . S
C1058 C1062 1.531 . S
C1059 C1058 1.369 . S
C1059 C1060 1.410 . S
C1059 C1067 1.503 . S
C1060 C1059 1.410 . S
C1060 C1061 1.392 . S
C1060 C1063 1.511 . S
C1061 C1057 1.376 . S
C1061 C1060 1.392 . S
C1061 H1073 0.929 . S
C1062 C1058 1.531 . S
C1062 H1074 0.960 . S
C1062 H1075 0.962 . S
C1062 H1076 0.960 . S
C1063 C1060 1.511 . S
C1063 H1077 0.961 . S
C1063 H1078 0.961 . S
C1063 H1079 0.961 . S
C1064 C1065 1.370 . S
C1064 C1066 1.363 . S
C1064 H1080 0.931 . S
C1065 C1064 1.370 . S
C1065 C1069 1.408 . S
C1066 C1064 1.363 . S
C1066 C1067 1.370 . S
C1066 C1070 1.524 . S
C1067 C1059 1.503 . S
C1067 C1066 1.370 . S
C1067 C1068 1.403 . S
C1068 C1067 1.403 . S
C1068 C1069 1.404 . S
C1068 C1071 1.539 . S
C1069 C1065 1.408 . S
C1069 C1068 1.404 . S
C1069 H1081 0.930 . S
C1070 C1066 1.524 . S
C1070 H1082 0.956 . S
C1070 H1083 0.961 . S
C1070 H1084 0.961 . S
C1071 C1068 1.539 . S
C1071 H1085 0.958 . S
C1071 H1086 0.961 . S
C1071 H1087 0.960 . S
H1072 C1056 0.931 . S
H1073 C1061 0.929 . S
H1074 C1062 0.960 . S
H1075 C1062 0.962 . S
H1076 C1062 0.960 . S
H1077 C1063 0.961 . S
H1078 C1063 0.961 . S
H1079 C1063 0.961 . S
H1080 C1064 0.931 . S
H1081 C1069 0.930 . S
H1082 C1070 0.956 . S
H1083 C1070 0.961 . S
H1084 C1070 0.961 . S
H1085 C1071 0.958 . S
H1086 C1071 0.961 . S
H1087 C1071 0.960 . S
C1088 C1089 1.391 . S
C1088 C1090 1.394 . S
C1088 H1104 0.931 . S
C1089 C1088 1.391 . S
C1089 C1093 1.376 . S
C1090 C1088 1.394 . S
C1090 C1091 1.369 . S
C1090 C1094 1.531 . S
C1091 C1090 1.369 . S
C1091 C1092 1.410 . S
C1091 C1099 1.503 . S
C1092 C1091 1.410 . S
C1092 C1093 1.392 . S
C1092 C1095 1.511 . S
C1093 C1089 1.376 . S
C1093 C1092 1.392 . S
C1093 H1105 0.929 . S
C1094 C1090 1.531 . S
C1094 H1106 0.960 . S
C1094 H1107 0.962 . S
C1094 H1108 0.960 . S
C1095 C1092 1.511 . S
C1095 H1109 0.961 . S
C1095 H1110 0.961 . S
C1095 H1111 0.961 . S
C1096 C1097 1.370 . S
C1096 C1098 1.363 . S
C1096 H1112 0.931 . S
C1097 C1096 1.370 . S
C1097 C1101 1.408 . S
C1098 C1096 1.363 . S
C1098 C1099 1.370 . S
C1098 C1102 1.524 . S
C1099 C1091 1.503 . S
C1099 C1098 1.370 . S
C1099 C1100 1.403 . S
C1100 C1099 1.403 . S
C1100 C1101 1.404 . S
C1100 C1103 1.539 . S
C1101 C1097 1.408 . S
C1101 C1100 1.404 . S
C1101 H1113 0.930 . S
C1102 C1098 1.524 . S
C1102 H1114 0.956 . S
C1102 H1115 0.961 . S
C1102 H1116 0.961 . S
C1103 C1100 1.539 . S
C1103 H1117 0.958 . S
C1103 H1118 0.961 . S
C1103 H1119 0.960 . S
H1104 C1088 0.931 . S
H1105 C1093 0.929 . S
H1106 C1094 0.960 . S
H1107 C1094 0.962 . S
H1108 C1094 0.960 . S
H1109 C1095 0.961 . S
H1110 C1095 0.961 . S
H1111 C1095 0.961 . S
H1112 C1096 0.931 . S
H1113 C1101 0.930 . S
H1114 C1102 0.956 . S
H1115 C1102 0.961 . S
H1116 C1102 0.961 . S
H1117 C1103 0.958 . S
H1118 C1103 0.961 . S
H1119 C1103 0.960 . S
C1120 C1121 1.391 . S
C1120 C1122 1.394 . S
C1120 H1136 0.931 . S
C1121 C1120 1.391 . S
C1121 C1125 1.376 . S
C1122 C1120 1.394 . S
C1122 C1123 1.369 . S
C1122 C1126 1.531 . S
C1123 C1122 1.369 . S
C1123 C1124 1.410 . S
C1123 C1131 1.503 . S
C1124 C1123 1.410 . S
C1124 C1125 1.392 . S
C1124 C1127 1.511 . S
C1125 C1121 1.376 . S
C1125 C1124 1.392 . S
C1125 H1137 0.929 . S
C1126 C1122 1.531 . S
C1126 H1138 0.960 . S
C1126 H1139 0.962 . S
C1126 H1140 0.960 . S
C1127 C1124 1.511 . S
C1127 H1141 0.961 . S
C1127 H1142 0.961 . S
C1127 H1143 0.961 . S
C1128 C1129 1.370 . S
C1128 C1130 1.363 . S
C1128 H1144 0.931 . S
C1129 C1128 1.370 . S
C1129 C1133 1.408 . S
C1130 C1128 1.363 . S
C1130 C1131 1.370 . S
C1130 C1134 1.524 . S
C1131 C1123 1.503 . S
C1131 C1130 1.370 . S
C1131 C1132 1.403 . S
C1132 C1131 1.403 . S
C1132 C1133 1.404 . S
C1132 C1135 1.539 . S
C1133 C1129 1.408 . S
C1133 C1132 1.404 . S
C1133 H1145 0.930 . S
C1134 C1130 1.524 . S
C1134 H1146 0.956 . S
C1134 H1147 0.961 . S
C1134 H1148 0.961 . S
C1135 C1132 1.539 . S
C1135 H1149 0.958 1_455 S
C1135 H1150 0.961 1_455 S
C1135 H1151 0.960 . S
H1136 C1120 0.931 . S
H1137 C1125 0.929 . S
H1138 C1126 0.960 . S
H1139 C1126 0.962 . S
H1140 C1126 0.960 . S
H1141 C1127 0.961 . S
H1142 C1127 0.961 . S
H1143 C1127 0.961 . S
H1144 C1128 0.931 . S
H1145 C1133 0.930 . S
H1146 C1134 0.956 . S
H1147 C1134 0.961 . S
H1148 C1134 0.961 . S
H1149 C1135 0.958 1_655 S
H1150 C1135 0.961 1_655 S
H1151 C1135 0.960 . S
C1152 C1153 1.391 . S
C1152 C1154 1.394 . S
C1152 H1168 0.931 . S
C1153 C1152 1.391 . S
C1153 C1157 1.376 . S
C1154 C1152 1.394 . S
C1154 C1155 1.369 . S
C1154 C1158 1.531 . S
C1155 C1154 1.369 . S
C1155 C1156 1.410 . S
C1155 C1163 1.503 . S
C1156 C1155 1.410 . S
C1156 C1157 1.392 . S
C1156 C1159 1.511 . S
C1157 C1153 1.376 . S
C1157 C1156 1.392 . S
C1157 H1169 0.929 . S
C1158 C1154 1.531 . S
C1158 H1170 0.960 . S
C1158 H1171 0.962 . S
C1158 H1172 0.960 1_455 S
C1159 C1156 1.511 . S
C1159 H1173 0.961 . S
C1159 H1174 0.961 . S
C1159 H1175 0.961 . S
C1160 C1161 1.370 . S
C1160 C1162 1.363 . S
C1160 H1176 0.931 . S
C1161 C1160 1.370 . S
C1161 C1165 1.408 . S
C1162 C1160 1.363 . S
C1162 C1163 1.370 . S
C1162 C1166 1.524 . S
C1163 C1155 1.503 . S
C1163 C1162 1.370 . S
C1163 C1164 1.403 . S
C1164 C1163 1.403 . S
C1164 C1165 1.404 . S
C1164 C1167 1.539 . S
C1165 C1161 1.408 . S
C1165 C1164 1.404 . S
C1165 H1177 0.930 . S
C1166 C1162 1.524 . S
C1166 H1178 0.956 . S
C1166 H1179 0.961 . S
C1166 H1180 0.961 . S
C1167 C1164 1.539 . S
C1167 H1181 0.958 . S
C1167 H1182 0.961 . S
C1167 H1183 0.960 . S
H1168 C1152 0.931 . S
H1169 C1157 0.929 . S
H1170 C1158 0.960 . S
H1171 C1158 0.962 . S
H1172 C1158 0.960 1_655 S
H1173 C1159 0.961 . S
H1174 C1159 0.961 . S
H1175 C1159 0.961 . S
H1176 C1160 0.931 . S
H1177 C1165 0.930 . S
H1178 C1166 0.956 . S
H1179 C1166 0.961 . S
H1180 C1166 0.961 . S
H1181 C1167 0.958 . S
H1182 C1167 0.961 . S
H1183 C1167 0.960 . S
C1184 C1185 1.391 . S
C1184 C1186 1.394 . S
C1184 H1200 0.931 . S
C1185 C1184 1.391 . S
C1185 C1189 1.376 . S
C1186 C1184 1.394 . S
C1186 C1187 1.369 . S
C1186 C1190 1.531 . S
C1187 C1186 1.369 . S
C1187 C1188 1.410 . S
C1187 C1195 1.503 . S
C1188 C1187 1.410 . S
C1188 C1189 1.392 . S
C1188 C1191 1.511 . S
C1189 C1185 1.376 . S
C1189 C1188 1.392 . S
C1189 H1201 0.929 . S
C1190 C1186 1.531 . S
C1190 H1202 0.960 . S
C1190 H1203 0.962 . S
C1190 H1204 0.960 . S
C1191 C1188 1.511 . S
C1191 H1205 0.961 . S
C1191 H1206 0.961 . S
C1191 H1207 0.961 . S
C1192 C1193 1.370 . S
C1192 C1194 1.363 . S
C1192 H1208 0.931 . S
C1193 C1192 1.370 . S
C1193 C1197 1.408 . S
C1194 C1192 1.363 . S
C1194 C1195 1.370 1_545 S
C1194 C1198 1.524 . S
C1195 C1187 1.503 . S
C1195 C1194 1.370 1_565 S
C1195 C1196 1.403 . S
C1196 C1195 1.403 . S
C1196 C1197 1.404 1_565 S
C1196 C1199 1.539 . S
C1197 C1193 1.408 . S
C1197 C1196 1.404 1_545 S
C1197 H1209 0.930 . S
C1198 C1194 1.524 . S
C1198 H1210 0.956 1_545 S
C1198 H1211 0.961 1_545 S
C1198 H1212 0.961 . S
C1199 C1196 1.539 . S
C1199 H1213 0.958 . S
C1199 H1214 0.961 . S
C1199 H1215 0.960 . S
H1200 C1184 0.931 . S
H1201 C1189 0.929 . S
H1202 C1190 0.960 . S
H1203 C1190 0.962 . S
H1204 C1190 0.960 . S
H1205 C1191 0.961 . S
H1206 C1191 0.961 . S
H1207 C1191 0.961 . S
H1208 C1192 0.931 . S
H1209 C1197 0.930 . S
H1210 C1198 0.956 1_565 S
H1211 C1198 0.961 1_565 S
H1212 C1198 0.961 . S
H1213 C1199 0.958 . S
H1214 C1199 0.961 . S
H1215 C1199 0.960 . S
C1216 C1217 1.391 . S
C1216 C1218 1.394 . S
C1216 H1232 0.931 . S
C1217 C1216 1.391 . S
C1217 C1221 1.376 . S
C1218 C1216 1.394 . S
C1218 C1219 1.369 . S
C1218 C1222 1.531 . S
C1219 C1218 1.369 . S
C1219 C1220 1.410 . S
C1219 C1227 1.503 . S
C1220 C1219 1.410 . S
C1220 C1221 1.392 . S
C1220 C1223 1.511 . S
C1221 C1217 1.376 . S
C1221 C1220 1.392 . S
C1221 H1233 0.929 . S
C1222 C1218 1.531 . S
C1222 H1234 0.960 . S
C1222 H1235 0.962 . S
C1222 H1236 0.960 . S
C1223 C1220 1.511 . S
C1223 H1237 0.961 . S
C1223 H1238 0.961 . S
C1223 H1239 0.961 . S
C1224 C1225 1.370 . S
C1224 C1226 1.363 . S
C1224 H1240 0.931 . S
C1225 C1224 1.370 . S
C1225 C1229 1.408 . S
C1226 C1224 1.363 . S
C1226 C1227 1.370 . S
C1226 C1230 1.524 . S
C1227 C1219 1.503 . S
C1227 C1226 1.370 . S
C1227 C1228 1.403 . S
C1228 C1227 1.403 . S
C1228 C1229 1.404 . S
C1228 C1231 1.539 . S
C1229 C1225 1.408 . S
C1229 C1228 1.404 . S
C1229 H1241 0.930 . S
C1230 C1226 1.524 . S
C1230 H1242 0.956 . S
C1230 H1243 0.961 . S
C1230 H1244 0.961 . S
C1231 C1228 1.539 . S
C1231 H1245 0.958 . S
C1231 H1246 0.961 . S
C1231 H1247 0.960 . S
H1232 C1216 0.931 . S
H1233 C1221 0.929 . S
H1234 C1222 0.960 . S
H1235 C1222 0.962 . S
H1236 C1222 0.960 . S
H1237 C1223 0.961 . S
H1238 C1223 0.961 . S
H1239 C1223 0.961 . S
H1240 C1224 0.931 . S
H1241 C1229 0.930 . S
H1242 C1230 0.956 . S
H1243 C1230 0.961 . S
H1244 C1230 0.961 . S
H1245 C1231 0.958 . S
H1246 C1231 0.961 . S
H1247 C1231 0.960 . S
C1248 C1249 1.391 . S
C1248 C1250 1.394 1_554 S
C1248 H1264 0.931 . S
C1249 C1248 1.391 . S
C1249 C1253 1.376 . S
C1250 C1248 1.394 1_556 S
C1250 C1251 1.369 . S
C1250 C1254 1.531 . S
C1251 C1250 1.369 . S
C1251 C1252 1.410 1_556 S
C1251 C1259 1.503 . S
C1252 C1251 1.410 1_554 S
C1252 C1253 1.392 . S
C1252 C1255 1.511 . S
C1253 C1249 1.376 . S
C1253 C1252 1.392 . S
C1253 H1265 0.929 . S
C1254 C1250 1.531 . S
C1254 H1266 0.960 . S
C1254 H1267 0.962 . S
C1254 H1268 0.960 . S
C1255 C1252 1.511 . S
C1255 H1269 0.961 . S
C1255 H1270 0.961 1_554 S
C1255 H1271 0.961 . S
C1256 C1257 1.370 . S
C1256 C1258 1.363 . S
C1256 H1272 0.931 . S
C1257 C1256 1.370 . S
C1257 C1261 1.408 . S
C1258 C1256 1.363 . S
C1258 C1259 1.370 . S
C1258 C1262 1.524 . S
C1259 C1251 1.503 . S
C1259 C1258 1.370 . S
C1259 C1260 1.403 . S
C1260 C1259 1.403 . S
C1260 C1261 1.404 . S
C1260 C1263 1.539 . S
C1261 C1257 1.408 . S
C1261 C1260 1.404 . S
C1261 H1273 0.930 . S
C1262 C1258 1.524 . S
C1262 H1274 0.956 . S
C1262 H1275 0.961 . S
C1262 H1276 0.961 . S
C1263 C1260 1.539 . S
C1263 H1277 0.958 . S
C1263 H1278 0.961 . S
C1263 H1279 0.960 . S
H1264 C1248 0.931 . S
H1265 C1253 0.929 . S
H1266 C1254 0.960 . S
H1267 C1254 0.962 . S
H1268 C1254 0.960 . S
H1269 C1255 0.961 . S
H1270 C1255 0.961 1_556 S
H1271 C1255 0.961 . S
H1272 C1256 0.931 . S
H1273 C1261 0.930 . S
H1274 C1262 0.956 . S
H1275 C1262 0.961 . S
H1276 C1262 0.961 . S
H1277 C1263 0.958 . S
H1278 C1263 0.961 . S
H1279 C1263 0.960 . S
C1280 C1281 1.391 . S
C1280 C1282 1.394 . S
C1280 H1296 0.931 . S
C1281 C1280 1.391 . S
C1281 C1285 1.376 . S
C1282 C1280 1.394 . S
C1282 C1283 1.369 1_554 S
C1282 C1286 1.531 . S
C1283 C1282 1.369 1_556 S
C1283 C1284 1.410 . S
C1283 C1291 1.503 . S
C1284 C1283 1.410 . S
C1284 C1285 1.392 1_556 S
C1284 C1287 1.511 . S
C1285 C1281 1.376 . S
C1285 C1284 1.392 1_554 S
C1285 H1297 0.929 . S
C1286 C1282 1.531 . S
C1286 H1298 0.960 1_554 S
C1286 H1299 0.962 . S
C1286 H1300 0.960 . S
C1287 C1284 1.511 . S
C1287 H1301 0.961 . S
C1287 H1302 0.961 . S
C1287 H1303 0.961 . S
C1288 C1289 1.370 . S
C1288 C1290 1.363 . S
C1288 H1304 0.931 . S
C1289 C1288 1.370 . S
C1289 C1293 1.408 . S
C1290 C1288 1.363 . S
C1290 C1291 1.370 . S
C1290 C1294 1.524 . S
C1291 C1283 1.503 . S
C1291 C1290 1.370 . S
C1291 C1292 1.403 . S
C1292 C1291 1.403 . S
C1292 C1293 1.404 . S
C1292 C1295 1.539 . S
C1293 C1289 1.408 . S
C1293 C1292 1.404 . S
C1293 H1305 0.930 . S
C1294 C1290 1.524 . S
C1294 H1306 0.956 . S
C1294 H1307 0.961 . S
C1294 H1308 0.961 . S
C1295 C1292 1.539 . S
C1295 H1309 0.958 . S
C1295 H1310 0.961 . S
C1295 H1311 0.960 . S
H1296 C1280 0.931 . S
H1297 C1285 0.929 . S
H1298 C1286 0.960 1_556 S
H1299 C1286 0.962 . S
H1300 C1286 0.960 . S
H1301 C1287 0.961 . S
H1302 C1287 0.961 . S
H1303 C1287 0.961 . S
H1304 C1288 0.931 . S
H1305 C1293 0.930 . S
H1306 C1294 0.956 . S
H1307 C1294 0.961 . S
H1308 C1294 0.961 . S
H1309 C1295 0.958 . S
H1310 C1295 0.961 . S
H1311 C1295 0.960 . S
C1312 C1313 1.391 . S
C1312 C1314 1.394 . S
C1312 H1328 0.931 . S
C1313 C1312 1.391 . S
C1313 C1317 1.376 . S
C1314 C1312 1.394 . S
C1314 C1315 1.369 . S
C1314 C1318 1.531 . S
C1315 C1314 1.369 . S
C1315 C1316 1.410 . S
C1315 C1323 1.503 . S
C1316 C1315 1.410 . S
C1316 C1317 1.392 . S
C1316 C1319 1.511 . S
C1317 C1313 1.376 . S
C1317 C1316 1.392 . S
C1317 H1329 0.929 . S
C1318 C1314 1.531 . S
C1318 H1330 0.960 . S
C1318 H1331 0.962 . S
C1318 H1332 0.960 . S
C1319 C1316 1.511 . S
C1319 H1333 0.961 . S
C1319 H1334 0.961 . S
C1319 H1335 0.961 . S
C1320 C1321 1.370 . S
C1320 C1322 1.363 . S
C1320 H1336 0.931 . S
C1321 C1320 1.370 . S
C1321 C1325 1.408 . S
C1322 C1320 1.363 . S
C1322 C1323 1.370 . S
C1322 C1326 1.524 . S
C1323 C1315 1.503 . S
C1323 C1322 1.370 . S
C1323 C1324 1.403 . S
C1324 C1323 1.403 . S
C1324 C1325 1.404 . S
C1324 C1327 1.539 . S
C1325 C1321 1.408 . S
C1325 C1324 1.404 . S
C1325 H1337 0.930 . S
C1326 C1322 1.524 . S
C1326 H1338 0.956 . S
C1326 H1339 0.961 . S
C1326 H1340 0.961 . S
C1327 C1324 1.539 . S
C1327 H1341 0.958 . S
C1327 H1342 0.961 . S
C1327 H1343 0.960 . S
H1328 C1312 0.931 . S
H1329 C1317 0.929 . S
H1330 C1318 0.960 . S
H1331 C1318 0.962 . S
H1332 C1318 0.960 . S
H1333 C1319 0.961 . S
H1334 C1319 0.961 . S
H1335 C1319 0.961 . S
H1336 C1320 0.931 . S
H1337 C1325 0.930 . S
H1338 C1326 0.956 . S
H1339 C1326 0.961 . S
H1340 C1326 0.961 . S
H1341 C1327 0.958 . S
H1342 C1327 0.961 . S
H1343 C1327 0.960 . S
C1344 C1345 1.391 . S
C1344 C1346 1.394 . S
C1344 H1360 0.931 . S
C1345 C1344 1.391 . S
C1345 C1349 1.376 . S
C1346 C1344 1.394 . S
C1346 C1347 1.369 . S
C1346 C1350 1.531 . S
C1347 C1346 1.369 . S
C1347 C1348 1.410 . S
C1347 C1355 1.503 . S
C1348 C1347 1.410 . S
C1348 C1349 1.392 . S
C1348 C1351 1.511 . S
C1349 C1345 1.376 . S
C1349 C1348 1.392 . S
C1349 H1361 0.929 . S
C1350 C1346 1.531 . S
C1350 H1362 0.960 . S
C1350 H1363 0.962 . S
C1350 H1364 0.960 . S
C1351 C1348 1.511 . S
C1351 H1365 0.961 . S
C1351 H1366 0.961 . S
C1351 H1367 0.961 . S
C1352 C1353 1.370 . S
C1352 C1354 1.363 . S
C1352 H1368 0.931 . S
C1353 C1352 1.370 . S
C1353 C1357 1.408 . S
C1354 C1352 1.363 . S
C1354 C1355 1.370 . S
C1354 C1358 1.524 . S
C1355 C1347 1.503 . S
C1355 C1354 1.370 . S
C1355 C1356 1.403 . S
C1356 C1355 1.403 . S
C1356 C1357 1.404 . S
C1356 C1359 1.539 . S
C1357 C1353 1.408 . S
C1357 C1356 1.404 . S
C1357 H1369 0.930 . S
C1358 C1354 1.524 . S
C1358 H1370 0.956 . S
C1358 H1371 0.961 . S
C1358 H1372 0.961 . S
C1359 C1356 1.539 . S
C1359 H1373 0.936 1_545 S
C1359 H1374 0.961 . S
C1359 H1375 0.960 . S
H1360 C1344 0.931 . S
H1361 C1349 0.929 . S
H1362 C1350 0.960 . S
H1363 C1350 0.962 . S
H1364 C1350 0.960 . S
H1365 C1351 0.961 . S
H1366 C1351 0.961 . S
H1367 C1351 0.961 . S
H1368 C1352 0.931 . S
H1369 C1357 0.930 . S
H1370 C1358 0.956 . S
H1371 C1358 0.961 . S
H1372 C1358 0.961 . S
H1373 C1359 0.936 1_565 S
H1374 C1359 0.961 . S
H1375 C1359 0.960 . S
C1376 C1377 1.391 . S
C1376 C1378 1.394 . S
C1376 H1392 0.931 . S
C1377 C1376 1.391 . S
C1377 C1381 1.376 . S
C1378 C1376 1.394 . S
C1378 C1379 1.369 1_455 S
C1378 C1382 1.531 1_455 S
C1379 C1378 1.369 1_655 S
C1379 C1380 1.410 . S
C1379 C1387 1.503 . S
C1380 C1379 1.410 . S
C1380 C1381 1.392 1_655 S
C1380 C1383 1.511 . S
C1381 C1377 1.376 . S
C1381 C1380 1.392 1_455 S
C1381 H1393 0.929 . S
C1382 C1378 1.531 1_655 S
C1382 H1394 0.960 . S
C1382 H1395 0.962 1_655 S
C1382 H1396 0.960 1_655 S
C1383 C1380 1.511 . S
C1383 H1397 0.961 . S
C1383 H1398 0.961 . S
C1383 H1399 0.961 . S
C1384 C1385 1.370 . S
C1384 C1386 1.363 . S
C1384 H1400 0.931 . S
C1385 C1384 1.370 . S
C1385 C1389 1.408 . S
C1386 C1384 1.363 . S
C1386 C1387 1.370 . S
C1386 C1390 1.524 . S
C1387 C1379 1.503 . S
C1387 C1386 1.370 . S
C1387 C1388 1.403 . S
C1388 C1387 1.403 . S
C1388 C1389 1.404 . S
C1388 C1391 1.539 . S
C1389 C1385 1.408 . S
C1389 C1388 1.404 . S
C1389 H1401 0.930 . S
C1390 C1386 1.524 . S
C1390 H1402 0.956 . S
C1390 H1403 0.961 . S
C1390 H1404 0.961 . S
C1391 C1388 1.539 . S
C1391 H1405 0.958 . S
C1391 H1406 0.961 . S
C1391 H1407 0.960 . S
H1392 C1376 0.931 . S
H1393 C1381 0.929 . S
H1394 C1382 0.960 . S
H1395 C1382 0.962 1_455 S
H1396 C1382 0.960 1_455 S
H1397 C1383 0.961 . S
H1398 C1383 0.961 . S
H1399 C1383 0.961 . S
H1400 C1384 0.931 . S
H1401 C1389 0.930 . S
H1402 C1390 0.956 . S
H1403 C1390 0.961 . S
H1404 C1390 0.961 . S
H1405 C1391 0.958 . S
H1406 C1391 0.961 . S
H1407 C1391 0.960 . S
C1408 C1409 1.391 . S
C1408 C1410 1.394 . S
C1408 H1424 0.931 . S
C1409 C1408 1.391 . S
C1409 C1413 1.376 . S
C1410 C1408 1.394 . S
C1410 C1411 1.369 1_655 S
C1410 C1414 1.526 1_655 S
C1411 C1410 1.369 1_455 S
C1411 C1412 1.410 . S
C1411 C1419 1.503 . S
C1412 C1411 1.410 . S
C1412 C1413 1.392 1_455 S
C1412 C1415 1.511 . S
C1413 C1409 1.376 . S
C1413 C1412 1.392 1_655 S
C1413 H1425 0.929 . S
C1414 C1410 1.526 1_455 S
C1414 H1426 0.985 . S
C1414 H1427 0.959 1_455 S
C1414 H1428 0.943 1_455 S
C1415 C1412 1.511 . S
C1415 H1429 0.961 . S
C1415 H1430 0.961 . S
C1415 H1431 0.961 . S
C1416 C1417 1.370 . S
C1416 C1418 1.363 . S
C1416 H1432 0.931 . S
C1417 C1416 1.370 . S
C1417 C1421 1.408 . S
C1418 C1416 1.363 . S
C1418 C1419 1.370 . S
C1418 C1422 1.524 . S
C1419 C1411 1.503 . S
C1419 C1418 1.370 . S
C1419 C1420 1.403 . S
C1420 C1419 1.403 . S
C1420 C1421 1.404 . S
C1420 C1423 1.539 . S
C1421 C1417 1.408 . S
C1421 C1420 1.404 . S
C1421 H1433 0.930 . S
C1422 C1418 1.524 . S
C1422 H1434 0.956 . S
C1422 H1435 0.961 . S
C1422 H1436 0.961 . S
C1423 C1420 1.539 . S
C1423 H1437 0.958 . S
C1423 H1438 0.961 . S
C1423 H1439 0.960 . S
H1424 C1408 0.931 . S
H1425 C1413 0.929 . S
H1426 C1414 0.985 . S
H1427 C1414 0.959 1_655 S
H1428 C1414 0.943 1_655 S
H1429 C1415 0.961 . S
H1430 C1415 0.961 . S
H1431 C1415 0.961 . S
H1432 C1416 0.931 . S
H1433 C1421 0.930 . S
H1434 C1422 0.956 . S
H1435 C1422 0.961 . S
H1436 C1422 0.961 . S
H1437 C1423 0.958 . S
H1438 C1423 0.961 . S
H1439 C1423 0.960 . S
C1440 C1441 1.391 . S
C1440 C1442 1.394 1_455 S
C1440 H1456 0.931 . S
C1441 C1440 1.391 . S
C1441 C1445 1.376 . S
C1442 C1440 1.394 1_655 S
C1442 C1443 1.369 . S
C1442 C1446 1.531 . S
C1443 C1442 1.369 . S
C1443 C1444 1.410 1_655 S
C1443 C1451 1.503 . S
C1444 C1443 1.410 1_455 S
C1444 C1445 1.392 . S
C1444 C1447 1.511 . S
C1445 C1441 1.376 . S
C1445 C1444 1.392 . S
C1445 H1457 0.929 . S
C1446 C1442 1.531 . S
C1446 H1458 0.960 . S
C1446 H1459 0.962 . S
C1446 H1460 0.960 1_556 S
C1447 C1444 1.511 . S
C1447 H1461 0.961 . S
C1447 H1462 0.961 1_455 S
C1447 H1463 0.961 . S
C1448 C1449 1.370 . S
C1448 C1450 1.363 . S
C1448 H1464 0.931 . S
C1449 C1448 1.370 . S
C1449 C1453 1.408 . S
C1450 C1448 1.363 . S
C1450 C1451 1.370 . S
C1450 C1454 1.524 . S
C1451 C1443 1.503 . S
C1451 C1450 1.370 . S
C1451 C1452 1.403 . S
C1452 C1451 1.403 . S
C1452 C1453 1.404 . S
C1452 C1455 1.539 . S
C1453 C1449 1.408 . S
C1453 C1452 1.404 . S
C1453 H1465 0.930 . S
C1454 C1450 1.524 . S
C1454 H1466 0.956 . S
C1454 H1467 0.961 . S
C1454 H1468 0.961 . S
C1455 C1452 1.539 . S
C1455 H1469 0.958 . S
C1455 H1470 0.961 . S
C1455 H1471 0.960 . S
H1456 C1440 0.931 . S
H1457 C1445 0.929 . S
H1458 C1446 0.960 . S
H1459 C1446 0.962 . S
H1460 C1446 0.960 1_554 S
H1461 C1447 0.961 . S
H1462 C1447 0.961 1_655 S
H1463 C1447 0.961 . S
H1464 C1448 0.931 . S
H1465 C1453 0.930 . S
H1466 C1454 0.956 . S
H1467 C1454 0.961 . S
H1468 C1454 0.961 . S
H1469 C1455 0.958 . S
H1470 C1455 0.961 . S
H1471 C1455 0.960 . S
C1472 C1473 1.391 . S
C1472 C1474 1.394 . S
C1472 H1488 0.931 . S
C1473 C1472 1.391 . S
C1473 C1477 1.376 . S
C1474 C1472 1.394 . S
C1474 C1475 1.369 . S
C1474 C1478 1.531 . S
C1475 C1474 1.369 . S
C1475 C1476 1.410 . S
C1475 C1483 1.503 . S
C1476 C1475 1.410 . S
C1476 C1477 1.392 . S
C1476 C1479 1.511 . S
C1477 C1473 1.376 . S
C1477 C1476 1.392 . S
C1477 H1489 0.929 . S
C1478 C1474 1.531 . S
C1478 H1490 0.960 . S
C1478 H1491 0.962 . S
C1478 H1492 0.960 . S
C1479 C1476 1.511 . S
C1479 H1493 0.961 . S
C1479 H1494 0.961 . S
C1479 H1495 0.961 . S
C1480 C1481 1.370 . S
C1480 C1482 1.363 1_655 S
C1480 H1496 0.931 . S
C1481 C1480 1.370 . S
C1481 C1485 1.408 . S
C1482 C1480 1.363 1_455 S
C1482 C1483 1.370 . S
C1482 C1486 1.524 . S
C1483 C1475 1.503 . S
C1483 C1482 1.370 . S
C1483 C1484 1.403 1_455 S
C1484 C1483 1.403 1_655 S
C1484 C1485 1.404 . S
C1484 C1487 1.539 . S
C1485 C1481 1.408 . S
C1485 C1484 1.404 . S
C1485 H1497 0.930 . S
C1486 C1482 1.524 . S
C1486 H1498 0.956 . S
C1486 H1499 0.961 . S
C1486 H1500 0.961 . S
C1487 C1484 1.539 . S
C1487 H1501 0.958 . S
C1487 H1502 0.961 . S
C1487 H1503 0.960 1_655 S
H1488 C1472 0.931 . S
H1489 C1477 0.929 . S
H1490 C1478 0.960 . S
H1491 C1478 0.962 . S
H1492 C1478 0.960 . S
H1493 C1479 0.961 . S
H1494 C1479 0.961 . S
H1495 C1479 0.961 . S
H1496 C1480 0.931 . S
H1497 C1485 0.930 . S
H1498 C1486 0.956 . S
H1499 C1486 0.961 . S
H1500 C1486 0.961 . S
H1501 C1487 0.958 . S
H1502 C1487 0.961 . S
H1503 C1487 0.960 1_455 S
C1504 C1505 1.391 . S
C1504 C1506 1.394 1_545 S
C1504 H1520 0.931 . S
C1505 C1504 1.391 . S
C1505 C1509 1.376 . S
C1506 C1504 1.394 1_565 S
C1506 C1507 1.369 . S
C1506 C1510 1.531 . S
C1507 C1506 1.369 . S
C1507 C1508 1.410 1_565 S
C1507 C1515 1.503 . S
C1508 C1507 1.410 1_545 S
C1508 C1509 1.392 . S
C1508 C1511 1.511 1_545 S
C1509 C1505 1.376 . S
C1509 C1508 1.392 . S
C1509 H1521 0.929 . S
C1510 C1506 1.531 . S
C1510 H1522 0.960 . S
C1510 H1523 0.962 . S
C1510 H1524 0.960 . S
C1511 C1508 1.511 1_565 S
C1511 H1525 0.961 1_565 S
C1511 H1526 0.961 . S
C1511 H1527 0.961 . S
C1512 C1513 1.370 . S
C1512 C1514 1.363 . S
C1512 H1528 0.931 . S
C1513 C1512 1.370 . S
C1513 C1517 1.408 . S
C1514 C1512 1.363 . S
C1514 C1515 1.370 . S
C1514 C1518 1.524 . S
C1515 C1507 1.503 . S
C1515 C1514 1.370 . S
C1515 C1516 1.403 . S
C1516 C1515 1.403 . S
C1516 C1517 1.404 . S
C1516 C1519 1.539 . S
C1517 C1513 1.408 . S
C1517 C1516 1.404 . S
C1517 H1529 0.930 . S
C1518 C1514 1.524 . S
C1518 H1530 0.956 . S
C1518 H1531 0.961 . S
C1518 H1532 0.961 . S
C1519 C1516 1.539 . S
C1519 H1533 0.958 . S
C1519 H1534 0.961 . S
C1519 H1535 0.960 . S
H1520 C1504 0.931 . S
H1521 C1509 0.929 . S
H1522 C1510 0.960 . S
H1523 C1510 0.962 . S
H1524 C1510 0.960 . S
H1525 C1511 0.961 1_545 S
H1526 C1511 0.961 . S
H1527 C1511 0.961 . S
H1528 C1512 0.931 . S
H1529 C1517 0.930 . S
H1530 C1518 0.956 . S
H1531 C1518 0.961 . S
H1532 C1518 0.961 . S
H1533 C1519 0.958 . S
H1534 C1519 0.961 . S
H1535 C1519 0.960 . S
C1536 C1537 1.391 . S
C1536 C1538 1.394 . S
C1536 H1552 0.931 . S
C1537 C1536 1.391 . S
C1537 C1541 1.376 . S
C1538 C1536 1.394 . S
C1538 C1539 1.369 . S
C1538 C1542 1.531 . S
C1539 C1538 1.369 . S
C1539 C1540 1.410 . S
C1539 C1547 1.503 . S
C1540 C1539 1.410 . S
C1540 C1541 1.392 . S
C1540 C1543 1.511 . S
C1541 C1537 1.376 . S
C1541 C1540 1.392 . S
C1541 H1553 0.929 . S
C1542 C1538 1.531 . S
C1542 H1554 0.960 . S
C1542 H1555 0.962 . S
C1542 H1556 0.960 . S
C1543 C1540 1.511 . S
C1543 H1557 0.961 . S
C1543 H1558 0.961 . S
C1543 H1559 0.961 . S
C1544 C1545 1.370 . S
C1544 C1546 1.363 1_565 S
C1544 H1560 0.931 . S
C1545 C1544 1.370 . S
C1545 C1549 1.408 . S
C1546 C1544 1.363 1_545 S
C1546 C1547 1.370 . S
C1546 C1550 1.524 . S
C1547 C1539 1.503 . S
C1547 C1546 1.370 . S
C1547 C1548 1.403 1_545 S
C1548 C1547 1.403 1_565 S
C1548 C1549 1.404 . S
C1548 C1551 1.539 . S
C1549 C1545 1.408 . S
C1549 C1548 1.404 . S
C1549 H1561 0.930 . S
C1550 C1546 1.524 . S
C1550 H1562 0.956 . S
C1550 H1563 0.961 . S
C1550 H1564 0.961 . S
C1551 C1548 1.539 . S
C1551 H1565 0.958 . S
C1551 H1566 0.961 . S
C1551 H1567 0.960 1_565 S
H1552 C1536 0.931 . S
H1553 C1541 0.929 . S
H1554 C1542 0.960 . S
H1555 C1542 0.962 . S
H1556 C1542 0.960 . S
H1557 C1543 0.961 . S
H1558 C1543 0.961 . S
H1559 C1543 0.961 . S
H1560 C1544 0.931 . S
H1561 C1549 0.930 . S
H1562 C1550 0.956 . S
H1563 C1550 0.961 . S
H1564 C1550 0.961 . S
H1565 C1551 0.958 . S
H1566 C1551 0.961 . S
H1567 C1551 0.960 1_545 S
C1568 C1569 1.391 . S
C1568 C1570 1.394 . S
C1568 H1584 0.931 . S
C1569 C1568 1.391 . S
C1569 C1573 1.376 . S
C1570 C1568 1.394 . S
C1570 C1571 1.369 . S
C1570 C1574 1.531 . S
C1571 C1570 1.369 . S
C1571 C1572 1.410 . S
C1571 C1579 1.503 . S
C1572 C1571 1.410 . S
C1572 C1573 1.392 . S
C1572 C1575 1.511 . S
C1573 C1569 1.376 . S
C1573 C1572 1.392 . S
C1573 H1585 0.929 . S
C1574 C1570 1.531 . S
C1574 H1586 0.960 . S
C1574 H1587 0.962 . S
C1574 H1588 0.960 . S
C1575 C1572 1.511 . S
C1575 H1589 0.961 . S
C1575 H1590 0.961 . S
C1575 H1591 0.961 . S
C1576 C1577 1.370 . S
C1576 C1578 1.363 . S
C1576 H1592 0.931 . S
C1577 C1576 1.370 . S
C1577 C1581 1.408 . S
C1578 C1576 1.363 . S
C1578 C1579 1.370 . S
C1578 C1582 1.524 . S
C1579 C1571 1.503 . S
C1579 C1578 1.370 . S
C1579 C1580 1.403 . S
C1580 C1579 1.403 . S
C1580 C1581 1.404 . S
C1580 C1583 1.539 . S
C1581 C1577 1.408 . S
C1581 C1580 1.404 . S
C1581 H1593 0.930 . S
C1582 C1578 1.524 . S
C1582 H1594 0.956 . S
C1582 H1595 0.961 . S
C1582 H1596 0.961 . S
C1583 C1580 1.539 . S
C1583 H1597 0.958 . S
C1583 H1598 0.961 . S
C1583 H1599 0.960 . S
H1584 C1568 0.931 . S
H1585 C1573 0.929 . S
H1586 C1574 0.960 . S
H1587 C1574 0.962 . S
H1588 C1574 0.960 . S
H1589 C1575 0.961 . S
H1590 C1575 0.961 . S
H1591 C1575 0.961 . S
H1592 C1576 0.931 . S
H1593 C1581 0.930 . S
H1594 C1582 0.956 . S
H1595 C1582 0.961 . S
H1596 C1582 0.961 . S
H1597 C1583 0.958 . S
H1598 C1583 0.961 . S
H1599 C1583 0.960 . S
C1600 C1601 1.391 . S
C1600 C1602 1.394 . S
C1600 H1616 0.931 . S
C1601 C1600 1.391 . S
C1601 C1605 1.376 . S
C1602 C1600 1.394 . S
C1602 C1603 1.369 . S
C1602 C1606 1.531 . S
C1603 C1602 1.369 . S
C1603 C1604 1.410 . S
C1603 C1611 1.503 . S
C1604 C1603 1.410 . S
C1604 C1605 1.392 . S
C1604 C1607 1.511 . S
C1605 C1601 1.376 . S
C1605 C1604 1.392 . S
C1605 H1617 0.929 . S
C1606 C1602 1.531 . S
C1606 H1618 0.960 . S
C1606 H1619 0.962 . S
C1606 H1620 0.960 . S
C1607 C1604 1.511 . S
C1607 H1621 0.961 . S
C1607 H1622 0.961 . S
C1607 H1623 0.961 . S
C1608 C1609 1.370 . S
C1608 C1610 1.363 1_565 S
C1608 H1624 0.931 . S
C1609 C1608 1.370 . S
C1609 C1613 1.408 . S
C1610 C1608 1.363 1_545 S
C1610 C1611 1.370 . S
C1610 C1614 1.524 . S
C1611 C1603 1.503 . S
C1611 C1610 1.370 . S
C1611 C1612 1.419 . S
C1612 C1611 1.419 . S
C1612 C1613 1.379 1_545 S
C1612 C1615 1.546 . S
C1613 C1609 1.408 . S
C1613 C1612 1.379 1_565 S
C1613 H1625 0.930 . S
C1614 C1610 1.524 . S
C1614 H1626 0.956 . S
C1614 H1627 0.961 . S
C1614 H1628 0.961 1_655 S
C1615 C1612 1.546 . S
C1615 H1629 0.958 . S
C1615 H1630 0.961 1_545 S
C1615 H1631 0.960 . S
H1616 C1600 0.931 . S
H1617 C1605 0.929 . S
H1618 C1606 0.960 . S
H1619 C1606 0.962 . S
H1620 C1606 0.960 . S
H1621 C1607 0.961 . S
H1622 C1607 0.961 . S
H1623 C1607 0.961 . S
H1624 C1608 0.931 . S
H1625 C1613 0.930 . S
H1626 C1614 0.956 . S
H1627 C1614 0.961 . S
H1628 C1614 0.961 1_455 S
H1629 C1615 0.958 . S
H1630 C1615 0.961 1_565 S
H1631 C1615 0.960 . S
C1632 C1633 1.391 . S
C1632 C1634 1.394 . S
C1632 H1648 0.931 . S
C1633 C1632 1.391 . S
C1633 C1637 1.376 1_655 S
C1634 C1632 1.394 . S
C1634 C1635 1.369 1_655 S
C1634 C1638 1.531 . S
C1635 C1634 1.369 1_455 S
C1635 C1636 1.410 . S
C1635 C1643 1.503 . S
C1636 C1635 1.410 . S
C1636 C1637 1.392 . S
C1636 C1639 1.511 . S
C1637 C1633 1.376 1_455 S
C1637 C1636 1.392 . S
C1637 H1649 0.929 . S
C1638 C1634 1.531 . S
C1638 H1650 0.960 . S
C1638 H1651 0.962 . S
C1638 H1652 0.960 . S
C1639 C1636 1.511 . S
C1639 H1653 0.961 . S
C1639 H1654 0.961 . S
C1639 H1655 0.961 . S
C1640 C1641 1.370 1_655 S
C1640 C1642 1.363 . S
C1640 H1656 0.931 . S
C1641 C1640 1.370 1_455 S
C1641 C1645 1.408 . S
C1642 C1640 1.363 . S
C1642 C1643 1.370 1_655 S
C1642 C1646 1.524 . S
C1643 C1635 1.503 . S
C1643 C1642 1.370 1_455 S
C1643 C1644 1.403 . S
C1644 C1643 1.403 . S
C1644 C1645 1.404 . S
C1644 C1647 1.539 . S
C1645 C1641 1.408 . S
C1645 C1644 1.404 . S
C1645 H1657 0.930 . S
C1646 C1642 1.524 . S
C1646 H1658 0.956 . S
C1646 H1659 0.961 . S
C1646 H1660 0.961 . S
C1647 C1644 1.539 . S
C1647 H1661 0.958 . S
C1647 H1662 0.961 . S
C1647 H1663 0.960 . S
H1648 C1632 0.931 . S
H1649 C1637 0.929 . S
H1650 C1638 0.960 . S
H1651 C1638 0.962 . S
H1652 C1638 0.960 . S
H1653 C1639 0.961 . S
H1654 C1639 0.961 . S
H1655 C1639 0.961 . S
H1656 C1640 0.931 . S
H1657 C1645 0.930 . S
H1658 C1646 0.956 . S
H1659 C1646 0.961 . S
H1660 C1646 0.961 . S
H1661 C1647 0.958 . S
H1662 C1647 0.961 . S
H1663 C1647 0.960 . S
C1664 C1665 1.391 1_655 S
C1664 C1666 1.394 . S
C1664 H1680 0.931 . S
C1665 C1664 1.391 1_455 S
C1665 C1669 1.376 . S
C1666 C1664 1.394 . S
C1666 C1667 1.369 . S
C1666 C1670 1.531 . S
C1667 C1666 1.369 . S
C1667 C1668 1.410 1_655 S
C1667 C1675 1.503 . S
C1668 C1667 1.410 1_455 S
C1668 C1669 1.392 . S
C1668 C1671 1.511 . S
C1669 C1665 1.376 . S
C1669 C1668 1.392 . S
C1669 H1681 0.929 . S
C1670 C1666 1.531 . S
C1670 H1682 0.960 . S
C1670 H1683 0.962 . S
C1670 H1684 0.960 . S
C1671 C1668 1.511 . S
C1671 H1685 0.961 . S
C1671 H1686 0.961 . S
C1671 H1687 0.961 . S
C1672 C1673 1.370 1_455 S
C1672 C1674 1.363 . S
C1672 H1688 0.931 . S
C1673 C1672 1.370 1_655 S
C1673 C1677 1.408 . S
C1674 C1672 1.363 . S
C1674 C1675 1.370 1_455 S
C1674 C1678 1.524 . S
C1675 C1667 1.503 . S
C1675 C1674 1.370 1_655 S
C1675 C1676 1.403 . S
C1676 C1675 1.403 . S
C1676 C1677 1.404 . S
C1676 C1679 1.539 . S
C1677 C1673 1.408 . S
C1677 C1676 1.404 . S
C1677 H1689 0.930 . S
C1678 C1674 1.524 . S
C1678 H1690 0.956 . S
C1678 H1691 0.961 . S
C1678 H1692 0.961 . S
C1679 C1676 1.539 . S
C1679 H1693 0.958 . S
C1679 H1694 0.961 . S
C1679 H1695 0.960 . S
H1680 C1664 0.931 . S
H1681 C1669 0.929 . S
H1682 C1670 0.960 . S
H1683 C1670 0.962 . S
H1684 C1670 0.960 . S
H1685 C1671 0.961 . S
H1686 C1671 0.961 . S
H1687 C1671 0.961 . S
H1688 C1672 0.931 . S
H1689 C1677 0.930 . S
H1690 C1678 0.956 . S
H1691 C1678 0.961 . S
H1692 C1678 0.961 . S
H1693 C1679 0.958 . S
H1694 C1679 0.961 . S
H1695 C1679 0.960 . S
C1696 C1697 1.391 1_545 S
C1696 C1698 1.394 . S
C1696 H1712 0.931 . S
C1697 C1696 1.391 1_565 S
C1697 C1701 1.376 . S
C1698 C1696 1.394 . S
C1698 C1699 1.369 . S
C1698 C1702 1.531 . S
C1699 C1698 1.369 . S
C1699 C1700 1.410 1_545 S
C1699 C1707 1.503 . S
C1700 C1699 1.410 1_565 S
C1700 C1701 1.392 . S
C1700 C1703 1.511 . S
C1701 C1697 1.376 . S
C1701 C1700 1.392 . S
C1701 H1713 0.929 . S
C1702 C1698 1.531 . S
C1702 H1714 0.960 . S
C1702 H1715 0.962 . S
C1702 H1716 0.960 . S
C1703 C1700 1.511 . S
C1703 H1717 0.961 . S
C1703 H1718 0.961 . S
C1703 H1719 0.961 1_565 S
C1704 C1705 1.370 1_565 S
C1704 C1706 1.363 . S
C1704 H1720 0.931 . S
C1705 C1704 1.370 1_545 S
C1705 C1709 1.408 . S
C1706 C1704 1.363 . S
C1706 C1707 1.370 1_565 S
C1706 C1710 1.524 . S
C1707 C1699 1.503 . S
C1707 C1706 1.370 1_545 S
C1707 C1708 1.403 . S
C1708 C1707 1.403 . S
C1708 C1709 1.404 . S
C1708 C1711 1.539 . S
C1709 C1705 1.408 . S
C1709 C1708 1.404 . S
C1709 H1721 0.930 . S
C1710 C1706 1.524 . S
C1710 H1722 0.956 . S
C1710 H1723 0.961 . S
C1710 H1724 0.961 . S
C1711 C1708 1.539 . S
C1711 H1725 0.958 . S
C1711 H1726 0.961 . S
C1711 H1727 0.960 . S
H1712 C1696 0.931 . S
H1713 C1701 0.929 . S
H1714 C1702 0.960 . S
H1715 C1702 0.962 . S
H1716 C1702 0.960 . S
H1717 C1703 0.961 . S
H1718 C1703 0.961 . S
H1719 C1703 0.961 1_545 S
H1720 C1704 0.931 . S
H1721 C1709 0.930 . S
H1722 C1710 0.956 . S
H1723 C1710 0.961 . S
H1724 C1710 0.961 . S
H1725 C1711 0.958 . S
H1726 C1711 0.961 . S
H1727 C1711 0.960 . S
C1728 C1729 1.391 . S
C1728 C1730 1.394 . S
C1728 H1744 0.931 . S
C1729 C1728 1.391 . S
C1729 C1733 1.376 . S
C1730 C1728 1.394 . S
C1730 C1731 1.369 . S
C1730 C1734 1.531 . S
C1731 C1730 1.369 . S
C1731 C1732 1.410 . S
C1731 C1739 1.503 . S
C1732 C1731 1.410 . S
C1732 C1733 1.392 . S
C1732 C1735 1.511 . S
C1733 C1729 1.376 . S
C1733 C1732 1.392 . S
C1733 H1745 0.929 . S
C1734 C1730 1.531 . S
C1734 H1746 0.960 . S
C1734 H1747 0.962 . S
C1734 H1748 0.960 . S
C1735 C1732 1.511 . S
C1735 H1749 0.961 . S
C1735 H1750 0.961 . S
C1735 H1751 0.961 . S
C1736 C1737 1.370 . S
C1736 C1738 1.363 . S
C1736 H1752 0.931 . S
C1737 C1736 1.370 . S
C1737 C1741 1.408 . S
C1738 C1736 1.363 . S
C1738 C1739 1.370 . S
C1738 C1742 1.524 . S
C1739 C1731 1.503 . S
C1739 C1738 1.370 . S
C1739 C1740 1.403 . S
C1740 C1739 1.403 . S
C1740 C1741 1.404 . S
C1740 C1743 1.539 . S
C1741 C1737 1.408 . S
C1741 C1740 1.404 . S
C1741 H1753 0.930 . S
C1742 C1738 1.524 . S
C1742 H1754 0.956 . S
C1742 H1755 0.961 . S
C1742 H1756 0.961 . S
C1743 C1740 1.539 . S
C1743 H1757 0.958 . S
C1743 H1758 0.961 . S
C1743 H1759 0.960 . S
H1744 C1728 0.931 . S
H1745 C1733 0.929 . S
H1746 C1734 0.960 . S
H1747 C1734 0.962 . S
H1748 C1734 0.960 . S
H1749 C1735 0.961 . S
H1750 C1735 0.961 . S
H1751 C1735 0.961 . S
H1752 C1736 0.931 . S
H1753 C1741 0.930 . S
H1754 C1742 0.956 . S
H1755 C1742 0.961 . S
H1756 C1742 0.961 . S
H1757 C1743 0.958 . S
H1758 C1743 0.961 . S
H1759 C1743 0.960 . S
C1760 C1761 1.391 . S
C1760 C1762 1.394 . S
C1760 H1776 0.931 . S
C1761 C1760 1.391 . S
C1761 C1765 1.376 1_554 S
C1762 C1760 1.394 . S
C1762 C1763 1.369 . S
C1762 C1766 1.531 . S
C1763 C1762 1.369 . S
C1763 C1764 1.410 1_554 S
C1763 C1771 1.503 . S
C1764 C1763 1.410 1_556 S
C1764 C1765 1.392 . S
C1764 C1767 1.511 . S
C1765 C1761 1.376 1_556 S
C1765 C1764 1.392 . S
C1765 H1777 0.929 . S
C1766 C1762 1.531 . S
C1766 H1778 0.960 . S
C1766 H1779 0.962 . S
C1766 H1780 0.960 . S
C1767 C1764 1.511 . S
C1767 H1781 0.961 . S
C1767 H1782 0.961 . S
C1767 H1783 0.961 1_556 S
C1768 C1769 1.370 . S
C1768 C1770 1.363 . S
C1768 H1784 0.931 . S
C1769 C1768 1.370 . S
C1769 C1773 1.408 1_556 S
C1770 C1768 1.363 . S
C1770 C1771 1.370 1_556 S
C1770 C1774 1.524 . S
C1771 C1763 1.503 . S
C1771 C1770 1.370 1_554 S
C1771 C1772 1.403 . S
C1772 C1771 1.403 . S
C1772 C1773 1.404 . S
C1772 C1775 1.539 . S
C1773 C1769 1.408 1_554 S
C1773 C1772 1.404 . S
C1773 H1785 0.930 . S
C1774 C1770 1.524 . S
C1774 H1786 0.956 . S
C1774 H1787 0.961 . S
C1774 H1788 0.961 . S
C1775 C1772 1.539 . S
C1775 H1789 0.958 . S
C1775 H1790 0.961 . S
C1775 H1791 0.960 . S
H1776 C1760 0.931 . S
H1777 C1765 0.929 . S
H1778 C1766 0.960 . S
H1779 C1766 0.962 . S
H1780 C1766 0.960 . S
H1781 C1767 0.961 . S
H1782 C1767 0.961 . S
H1783 C1767 0.961 1_554 S
H1784 C1768 0.931 . S
H1785 C1773 0.930 . S
H1786 C1774 0.956 . S
H1787 C1774 0.961 . S
H1788 C1774 0.961 . S
H1789 C1775 0.958 . S
H1790 C1775 0.961 . S
H1791 C1775 0.960 . S
C1792 C1793 1.391 . S
C1792 C1794 1.394 . S
C1792 H1808 0.931 . S
C1793 C1792 1.391 . S
C1793 C1797 1.376 . S
C1794 C1792 1.394 . S
C1794 C1795 1.369 . S
C1794 C1798 1.531 . S
C1795 C1794 1.369 . S
C1795 C1796 1.410 . S
C1795 C1803 1.503 . S
C1796 C1795 1.410 . S
C1796 C1797 1.392 . S
C1796 C1799 1.511 . S
C1797 C1793 1.376 . S
C1797 C1796 1.392 . S
C1797 H1809 0.929 . S
C1798 C1794 1.531 . S
C1798 H1810 0.960 . S
C1798 H1811 0.962 . S
C1798 H1812 0.960 . S
C1799 C1796 1.511 . S
C1799 H1813 0.961 . S
C1799 H1814 0.961 . S
C1799 H1815 0.961 . S
C1800 C1801 1.370 . S
C1800 C1802 1.363 . S
C1800 H1816 0.931 . S
C1801 C1800 1.370 . S
C1801 C1805 1.408 . S
C1802 C1800 1.363 . S
C1802 C1803 1.370 . S
C1802 C1806 1.524 . S
C1803 C1795 1.503 . S
C1803 C1802 1.370 . S
C1803 C1804 1.403 . S
C1804 C1803 1.403 . S
C1804 C1805 1.404 . S
C1804 C1807 1.539 . S
C1805 C1801 1.408 . S
C1805 C1804 1.404 . S
C1805 H1817 0.930 . S
C1806 C1802 1.524 . S
C1806 H1818 0.956 . S
C1806 H1819 0.961 . S
C1806 H1820 0.961 . S
C1807 C1804 1.539 . S
C1807 H1821 0.958 . S
C1807 H1822 0.961 . S
C1807 H1823 0.960 . S
H1808 C1792 0.931 . S
H1809 C1797 0.929 . S
H1810 C1798 0.960 . S
H1811 C1798 0.962 . S
H1812 C1798 0.960 . S
H1813 C1799 0.961 . S
H1814 C1799 0.961 . S
H1815 C1799 0.961 . S
H1816 C1800 0.931 . S
H1817 C1805 0.930 . S
H1818 C1806 0.956 . S
H1819 C1806 0.961 . S
H1820 C1806 0.961 . S
H1821 C1807 0.958 . S
H1822 C1807 0.961 . S
H1823 C1807 0.960 . S
C1824 C1825 1.391 . S
C1824 C1826 1.394 . S
C1824 H1840 0.931 . S
C1825 C1824 1.391 . S
C1825 C1829 1.376 . S
C1826 C1824 1.394 . S
C1826 C1827 1.369 . S
C1826 C1830 1.531 . S
C1827 C1826 1.369 . S
C1827 C1828 1.410 . S
C1827 C1835 1.503 . S
C1828 C1827 1.410 . S
C1828 C1829 1.392 . S
C1828 C1831 1.511 . S
C1829 C1825 1.376 . S
C1829 C1828 1.392 . S
C1829 H1841 0.929 . S
C1830 C1826 1.531 . S
C1830 H1842 0.960 . S
C1830 H1843 0.962 . S
C1830 H1844 0.960 . S
C1831 C1828 1.511 . S
C1831 H1845 0.961 . S
C1831 H1846 0.961 . S
C1831 H1847 0.961 . S
C1832 C1833 1.370 . S
C1832 C1834 1.363 . S
C1832 H1848 0.931 . S
C1833 C1832 1.370 . S
C1833 C1837 1.408 . S
C1834 C1832 1.363 . S
C1834 C1835 1.370 . S
C1834 C1838 1.524 . S
C1835 C1827 1.503 . S
C1835 C1834 1.370 . S
C1835 C1836 1.403 . S
C1836 C1835 1.403 . S
C1836 C1837 1.404 . S
C1836 C1839 1.539 . S
C1837 C1833 1.408 . S
C1837 C1836 1.404 . S
C1837 H1849 0.930 . S
C1838 C1834 1.524 . S
C1838 H1850 0.956 . S
C1838 H1851 0.961 . S
C1838 H1852 0.961 . S
C1839 C1836 1.539 . S
C1839 H1853 0.958 . S
C1839 H1854 0.961 . S
C1839 H1855 0.960 . S
H1840 C1824 0.931 . S
H1841 C1829 0.929 . S
H1842 C1830 0.960 . S
H1843 C1830 0.962 . S
H1844 C1830 0.960 . S
H1845 C1831 0.961 . S
H1846 C1831 0.961 . S
H1847 C1831 0.961 . S
H1848 C1832 0.931 . S
H1849 C1837 0.930 . S
H1850 C1838 0.956 . S
H1851 C1838 0.961 . S
H1852 C1838 0.961 . S
H1853 C1839 0.958 . S
H1854 C1839 0.961 . S
H1855 C1839 0.960 . S
C1856 C1857 1.391 . S
C1856 C1858 1.394 . S
C1856 H1872 0.931 . S
C1857 C1856 1.391 . S
C1857 C1861 1.376 . S
C1858 C1856 1.394 . S
C1858 C1859 1.369 . S
C1858 C1862 1.531 . S
C1859 C1858 1.369 . S
C1859 C1860 1.410 . S
C1859 C1867 1.503 . S
C1860 C1859 1.410 . S
C1860 C1861 1.392 . S
C1860 C1863 1.511 . S
C1861 C1857 1.376 . S
C1861 C1860 1.392 . S
C1861 H1873 0.929 . S
C1862 C1858 1.531 . S
C1862 H1874 0.960 . S
C1862 H1875 0.962 . S
C1862 H1876 0.960 . S
C1863 C1860 1.511 . S
C1863 H1877 0.961 . S
C1863 H1878 0.961 . S
C1863 H1879 0.961 . S
C1864 C1865 1.370 . S
C1864 C1866 1.363 . S
C1864 H1880 0.931 . S
C1865 C1864 1.370 . S
C1865 C1869 1.408 . S
C1866 C1864 1.363 . S
C1866 C1867 1.370 . S
C1866 C1870 1.524 . S
C1867 C1859 1.503 . S
C1867 C1866 1.370 . S
C1867 C1868 1.403 . S
C1868 C1867 1.403 . S
C1868 C1869 1.404 . S
C1868 C1871 1.539 . S
C1869 C1865 1.408 . S
C1869 C1868 1.404 . S
C1869 H1881 0.930 . S
C1870 C1866 1.524 . S
C1870 H1882 0.956 . S
C1870 H1883 0.961 . S
C1870 H1884 0.961 . S
C1871 C1868 1.539 . S
C1871 H1885 0.958 . S
C1871 H1886 0.961 . S
C1871 H1887 0.960 . S
H1872 C1856 0.931 . S
H1873 C1861 0.929 . S
H1874 C1862 0.960 . S
H1875 C1862 0.962 . S
H1876 C1862 0.960 . S
H1877 C1863 0.961 . S
H1878 C1863 0.961 . S
H1879 C1863 0.961 . S
H1880 C1864 0.931 . S
H1881 C1869 0.930 . S
H1882 C1870 0.956 . S
H1883 C1870 0.961 . S
H1884 C1870 0.961 . S
H1885 C1871 0.958 . S
H1886 C1871 0.961 . S
H1887 C1871 0.960 . S
C1888 C1889 1.391 . S
C1888 C1890 1.394 . S
C1888 H1904 0.931 . S
C1889 C1888 1.391 . S
C1889 C1893 1.376 . S
C1890 C1888 1.394 . S
C1890 C1891 1.369 . S
C1890 C1894 1.531 . S
C1891 C1890 1.369 . S
C1891 C1892 1.410 . S
C1891 C1899 1.503 . S
C1892 C1891 1.410 . S
C1892 C1893 1.392 . S
C1892 C1895 1.511 . S
C1893 C1889 1.376 . S
C1893 C1892 1.392 . S
C1893 H1905 0.929 . S
C1894 C1890 1.531 . S
C1894 H1906 0.960 . S
C1894 H1907 0.962 . S
C1894 H1908 0.960 . S
C1895 C1892 1.511 . S
C1895 H1909 0.961 . S
C1895 H1910 0.961 . S
C1895 H1911 0.961 . S
C1896 C1897 1.370 . S
C1896 C1898 1.363 . S
C1896 H1912 0.931 . S
C1897 C1896 1.370 . S
C1897 C1901 1.408 . S
C1898 C1896 1.363 . S
C1898 C1899 1.370 . S
C1898 C1902 1.524 . S
C1899 C1891 1.503 . S
C1899 C1898 1.370 . S
C1899 C1900 1.403 . S
C1900 C1899 1.403 . S
C1900 C1901 1.404 . S
C1900 C1903 1.539 . S
C1901 C1897 1.408 . S
C1901 C1900 1.404 . S
C1901 H1913 0.930 . S
C1902 C1898 1.524 . S
C1902 H1914 0.956 . S
C1902 H1915 0.961 . S
C1902 H1916 0.961 . S
C1903 C1900 1.539 . S
C1903 H1917 0.958 . S
C1903 H1918 0.961 . S
C1903 H1919 0.960 . S
H1904 C1888 0.931 . S
H1905 C1893 0.929 . S
H1906 C1894 0.960 . S
H1907 C1894 0.962 . S
H1908 C1894 0.960 . S
H1909 C1895 0.961 . S
H1910 C1895 0.961 . S
H1911 C1895 0.961 . S
H1912 C1896 0.931 . S
H1913 C1901 0.930 . S
H1914 C1902 0.956 . S
H1915 C1902 0.961 . S
H1916 C1902 0.961 . S
H1917 C1903 0.958 . S
H1918 C1903 0.961 . S
H1919 C1903 0.960 . S
C1920 C1921 1.391 . S
C1920 C1922 1.394 . S
C1920 H1936 0.931 . S
C1921 C1920 1.391 . S
C1921 C1925 1.376 . S
C1922 C1920 1.394 . S
C1922 C1923 1.369 . S
C1922 C1926 1.531 . S
C1923 C1922 1.369 . S
C1923 C1924 1.410 . S
C1923 C1931 1.503 . S
C1924 C1923 1.410 . S
C1924 C1925 1.392 . S
C1924 C1927 1.511 . S
C1925 C1921 1.376 . S
C1925 C1924 1.392 . S
C1925 H1937 0.929 . S
C1926 C1922 1.531 . S
C1926 H1938 0.960 . S
C1926 H1939 0.962 . S
C1926 H1940 0.960 . S
C1927 C1924 1.511 . S
C1927 H1941 0.961 . S
C1927 H1942 0.961 . S
C1927 H1943 0.961 . S
C1928 C1929 1.370 . S
C1928 C1930 1.363 . S
C1928 H1944 0.931 . S
C1929 C1928 1.370 . S
C1929 C1933 1.408 . S
C1930 C1928 1.363 . S
C1930 C1931 1.370 . S
C1930 C1934 1.524 . S
C1931 C1923 1.503 . S
C1931 C1930 1.370 . S
C1931 C1932 1.403 . S
C1932 C1931 1.403 . S
C1932 C1933 1.404 . S
C1932 C1935 1.539 . S
C1933 C1929 1.408 . S
C1933 C1932 1.404 . S
C1933 H1945 0.930 . S
C1934 C1930 1.524 . S
C1934 H1946 0.956 . S
C1934 H1947 0.961 . S
C1934 H1948 0.961 . S
C1935 C1932 1.539 . S
C1935 H1949 0.958 . S
C1935 H1950 0.961 . S
C1935 H1951 0.960 . S
H1936 C1920 0.931 . S
H1937 C1925 0.929 . S
H1938 C1926 0.960 . S
H1939 C1926 0.962 . S
H1940 C1926 0.960 . S
H1941 C1927 0.961 . S
H1942 C1927 0.961 . S
H1943 C1927 0.961 . S
H1944 C1928 0.931 . S
H1945 C1933 0.930 . S
H1946 C1934 0.956 . S
H1947 C1934 0.961 . S
H1948 C1934 0.961 . S
H1949 C1935 0.958 . S
H1950 C1935 0.961 . S
H1951 C1935 0.960 . S
C1952 C1953 1.391 1_565 S
C1952 C1954 1.394 . S
C1952 H1968 0.931 . S
C1953 C1952 1.391 1_545 S
C1953 C1957 1.376 . S
C1954 C1952 1.394 . S
C1954 C1955 1.369 . S
C1954 C1958 1.531 . S
C1955 C1954 1.369 . S
C1955 C1956 1.410 1_565 S
C1955 C1963 1.503 . S
C1956 C1955 1.410 1_545 S
C1956 C1957 1.392 . S
C1956 C1959 1.511 . S
C1957 C1953 1.376 . S
C1957 C1956 1.392 . S
C1957 H1969 0.929 . S
C1958 C1954 1.531 . S
C1958 H1970 0.960 . S
C1958 H1971 0.962 . S
C1958 H1972 0.960 . S
C1959 C1956 1.511 . S
C1959 H1973 0.961 . S
C1959 H1974 0.961 . S
C1959 H1975 0.961 . S
C1960 C1961 1.370 1_545 S
C1960 C1962 1.363 . S
C1960 H1976 0.931 . S
C1961 C1960 1.370 1_565 S
C1961 C1965 1.408 . S
C1962 C1960 1.363 . S
C1962 C1963 1.370 1_545 S
C1962 C1966 1.524 . S
C1963 C1955 1.503 . S
C1963 C1962 1.370 1_565 S
C1963 C1964 1.403 . S
C1964 C1963 1.403 . S
C1964 C1965 1.404 . S
C1964 C1967 1.539 . S
C1965 C1961 1.408 . S
C1965 C1964 1.404 . S
C1965 H1977 0.930 . S
C1966 C1962 1.524 . S
C1966 H1978 0.956 . S
C1966 H1979 0.961 . S
C1966 H1980 0.961 . S
C1967 C1964 1.539 . S
C1967 H1981 0.958 . S
C1967 H1982 0.961 . S
C1967 H1983 0.960 . S
H1968 C1952 0.931 . S
H1969 C1957 0.929 . S
H1970 C1958 0.960 . S
H1971 C1958 0.962 . S
H1972 C1958 0.960 . S
H1973 C1959 0.961 . S
H1974 C1959 0.961 . S
H1975 C1959 0.961 . S
H1976 C1960 0.931 . S
H1977 C1965 0.930 . S
H1978 C1966 0.956 . S
H1979 C1966 0.961 . S
H1980 C1966 0.961 . S
H1981 C1967 0.958 . S
H1982 C1967 0.961 . S
H1983 C1967 0.960 . S
C1984 C1985 1.391 1_554 S
C1984 C1986 1.394 . S
C1984 H2000 0.931 . S
C1985 C1984 1.391 1_556 S
C1985 C1989 1.376 . S
C1986 C1984 1.394 . S
C1986 C1987 1.369 . S
C1986 C1990 1.531 . S
C1987 C1986 1.369 . S
C1987 C1988 1.410 1_554 S
C1987 C1995 1.503 . S
C1988 C1987 1.410 1_556 S
C1988 C1989 1.392 . S
C1988 C1991 1.511 . S
C1989 C1985 1.376 . S
C1989 C1988 1.392 . S
C1989 H2001 0.929 . S
C1990 C1986 1.531 . S
C1990 H2002 0.960 . S
C1990 H2003 0.962 . S
C1990 H2004 0.960 . S
C1991 C1988 1.511 . S
C1991 H2005 0.961 . S
C1991 H2006 0.961 . S
C1991 H2007 0.961 . S
C1992 C1993 1.370 . S
C1992 C1994 1.361 1_554 S
C1992 H2008 0.930 1_554 S
C1993 C1992 1.370 . S
C1993 C1997 1.408 . S
C1994 C1992 1.361 1_556 S
C1994 C1995 1.367 1_556 S
C1994 C1998 1.530 . S
C1995 C1987 1.503 . S
C1995 C1994 1.367 1_554 S
C1995 C1996 1.403 . S
C1996 C1995 1.403 . S
C1996 C1997 1.404 . S
C1996 C1999 1.539 . S
C1997 C1993 1.408 . S
C1997 C1996 1.404 . S
C1997 H2009 0.930 . S
C1998 C1994 1.530 . S
C1998 H2010 0.956 1_556 S
C1998 H2011 0.961 . S
C1998 H2012 0.961 . S
C1999 C1996 1.539 . S
C1999 H2013 0.958 . S
C1999 H2014 0.961 . S
C1999 H2015 0.960 . S
H2000 C1984 0.931 . S
H2001 C1989 0.929 . S
H2002 C1990 0.960 . S
H2003 C1990 0.962 . S
H2004 C1990 0.960 . S
H2005 C1991 0.961 . S
H2006 C1991 0.961 . S
H2007 C1991 0.961 . S
H2008 C1992 0.930 1_556 S
H2009 C1997 0.930 . S
H2010 C1998 0.956 1_554 S
H2011 C1998 0.961 . S
H2012 C1998 0.961 . S
H2013 C1999 0.958 . S
H2014 C1999 0.961 . S
H2015 C1999 0.960 . S
C2016 C2017 1.391 . S
C2016 C2018 1.394 . S
C2016 H2032 0.931 . S
C2017 C2016 1.391 . S
C2017 C2021 1.376 1_455 S
C2018 C2016 1.394 . S
C2018 C2019 1.369 . S
C2018 C2022 1.531 . S
C2019 C2018 1.369 . S
C2019 C2020 1.410 1_455 S
C2019 C2027 1.503 1_565 S
C2020 C2019 1.410 1_655 S
C2020 C2021 1.392 . S
C2020 C2023 1.511 1_565 S
C2021 C2017 1.376 1_655 S
C2021 C2020 1.392 . S
C2021 H2033 0.929 . S
C2022 C2018 1.531 . S
C2022 H2034 0.960 . S
C2022 H2035 0.962 . S
C2022 H2036 0.960 . S
C2023 C2020 1.511 1_545 S
C2023 H2037 0.961 . S
C2023 H2038 0.961 . S
C2023 H2039 0.961 . S
C2024 C2025 1.370 1_655 S
C2024 C2026 1.363 . S
C2024 H2040 0.931 . S
C2025 C2024 1.370 1_455 S
C2025 C2029 1.408 . S
C2026 C2024 1.363 . S
C2026 C2027 1.370 1_655 S
C2026 C2030 1.524 1_545 S
C2027 C2019 1.503 1_545 S
C2027 C2026 1.370 1_455 S
C2027 C2028 1.403 . S
C2028 C2027 1.403 . S
C2028 C2029 1.404 . S
C2028 C2031 1.539 . S
C2029 C2025 1.408 . S
C2029 C2028 1.404 . S
C2029 H2041 0.930 . S
C2030 C2026 1.524 1_565 S
C2030 H2042 0.956 . S
C2030 H2043 0.961 . S
C2030 H2044 0.961 . S
C2031 C2028 1.539 . S
C2031 H2045 0.958 . S
C2031 H2046 0.961 . S
C2031 H2047 0.960 . S
H2032 C2016 0.931 . S
H2033 C2021 0.929 . S
H2034 C2022 0.960 . S
H2035 C2022 0.962 . S
H2036 C2022 0.960 . S
H2037 C2023 0.961 . S
H2038 C2023 0.961 . S
H2039 C2023 0.961 . S
H2040 C2024 0.931 . S
H2041 C2029 0.930 . S
H2042 C2030 0.956 . S
H2043 C2030 0.961 . S
H2044 C2030 0.961 . S
H2045 C2031 0.958 . S
H2046 C2031 0.961 . S
H2047 C2031 0.960 . S
C2048 C2049 1.391 1_455 S
C2048 C2050 1.394 . S
C2048 H2064 0.931 . S
C2049 C2048 1.391 1_655 S
C2049 C2053 1.376 . S
C2050 C2048 1.394 . S
C2050 C2051 1.369 1_455 S
C2050 C2054 1.531 . S
C2051 C2050 1.369 1_655 S
C2051 C2052 1.410 . S
C2051 C2059 1.503 . S
C2052 C2051 1.410 . S
C2052 C2053 1.392 . S
C2052 C2055 1.511 . S
C2053 C2049 1.376 . S
C2053 C2052 1.392 . S
C2053 H2065 0.929 . S
C2054 C2050 1.531 . S
C2054 H2066 0.960 . S
C2054 H2067 0.962 . S
C2054 H2068 0.960 . S
C2055 C2052 1.511 . S
C2055 H2069 0.961 . S
C2055 H2070 0.961 . S
C2055 H2071 0.961 . S
C2056 C2057 1.370 1_455 S
C2056 C2058 1.363 . S
C2056 H2072 0.931 . S
C2057 C2056 1.370 1_655 S
C2057 C2061 1.408 . S
C2058 C2056 1.363 . S
C2058 C2059 1.370 1_455 S
C2058 C2062 1.524 . S
C2059 C2051 1.503 . S
C2059 C2058 1.370 1_655 S
C2059 C2060 1.403 . S
C2060 C2059 1.403 . S
C2060 C2061 1.404 . S
C2060 C2063 1.539 . S
C2061 C2057 1.408 . S
C2061 C2060 1.404 . S
C2061 H2073 0.930 . S
C2062 C2058 1.524 . S
C2062 H2074 0.956 . S
C2062 H2075 0.961 . S
C2062 H2076 0.961 . S
C2063 C2060 1.539 . S
C2063 H2077 0.958 . S
C2063 H2078 0.961 . S
C2063 H2079 0.960 . S
H2064 C2048 0.931 . S
H2065 C2053 0.929 . S
H2066 C2054 0.960 . S
H2067 C2054 0.962 . S
H2068 C2054 0.960 . S
H2069 C2055 0.961 . S
H2070 C2055 0.961 . S
H2071 C2055 0.961 . S
H2072 C2056 0.931 . S
H2073 C2061 0.930 . S
H2074 C2062 0.956 . S
H2075 C2062 0.961 . S
H2076 C2062 0.961 . S
H2077 C2063 0.958 . S
H2078 C2063 0.961 . S
H2079 C2063 0.960 . S
C2080 C2081 1.391 . S
C2080 C2082 1.394 . S
C2080 H2096 0.931 . S
C2081 C2080 1.391 . S
C2081 C2085 1.376 1_545 S
C2082 C2080 1.394 . S
C2082 C2083 1.369 . S
C2082 C2086 1.531 . S
C2083 C2082 1.369 . S
C2083 C2084 1.410 1_545 S
C2083 C2091 1.503 1_556 S
C2084 C2083 1.410 1_565 S
C2084 C2085 1.392 . S
C2084 C2087 1.511 1_556 S
C2085 C2081 1.376 1_565 S
C2085 C2084 1.392 . S
C2085 H2097 0.929 . S
C2086 C2082 1.531 . S
C2086 H2098 0.960 . S
C2086 H2099 0.962 . S
C2086 H2100 0.960 . S
C2087 C2084 1.511 1_554 S
C2087 H2101 0.961 . S
C2087 H2102 0.961 . S
C2087 H2103 0.961 . S
C2088 C2089 1.370 1_565 S
C2088 C2090 1.363 . S
C2088 H2104 0.931 . S
C2089 C2088 1.370 1_545 S
C2089 C2093 1.408 . S
C2090 C2088 1.363 . S
C2090 C2091 1.370 1_565 S
C2090 C2094 1.524 1_554 S
C2091 C2083 1.503 1_554 S
C2091 C2090 1.370 1_545 S
C2091 C2092 1.403 . S
C2092 C2091 1.403 . S
C2092 C2093 1.404 . S
C2092 C2095 1.539 . S
C2093 C2089 1.408 . S
C2093 C2092 1.404 . S
C2093 H2105 0.930 . S
C2094 C2090 1.524 1_556 S
C2094 H2106 0.956 . S
C2094 H2107 0.961 . S
C2094 H2108 0.961 . S
C2095 C2092 1.539 . S
C2095 H2109 0.958 . S
C2095 H2110 0.961 . S
C2095 H2111 0.960 . S
H2096 C2080 0.931 . S
H2097 C2085 0.929 . S
H2098 C2086 0.960 . S
H2099 C2086 0.962 . S
H2100 C2086 0.960 . S
H2101 C2087 0.961 . S
H2102 C2087 0.961 . S
H2103 C2087 0.961 . S
H2104 C2088 0.931 . S
H2105 C2093 0.930 . S
H2106 C2094 0.956 . S
H2107 C2094 0.961 . S
H2108 C2094 0.961 . S
H2109 C2095 0.958 . S
H2110 C2095 0.961 . S
H2111 C2095 0.960 . S
C2112 C2113 1.391 . S
C2112 C2114 1.394 . S
C2112 H2128 0.931 . S
C2113 C2112 1.391 . S
C2113 C2117 1.376 . S
C2114 C2112 1.394 . S
C2114 C2115 1.369 . S
C2114 C2118 1.531 . S
C2115 C2114 1.369 . S
C2115 C2116 1.410 . S
C2115 C2123 1.503 1_554 S
C2116 C2115 1.410 . S
C2116 C2117 1.392 . S
C2116 C2119 1.511 1_554 S
C2117 C2113 1.376 . S
C2117 C2116 1.392 . S
C2117 H2129 0.929 . S
C2118 C2114 1.531 . S
C2118 H2130 0.960 . S
C2118 H2131 0.962 . S
C2118 H2132 0.960 . S
C2119 C2116 1.511 1_556 S
C2119 H2133 0.961 . S
C2119 H2134 0.961 . S
C2119 H2135 0.961 . S
C2120 C2121 1.370 . S
C2120 C2122 1.363 . S
C2120 H2136 0.931 . S
C2121 C2120 1.370 . S
C2121 C2125 1.408 . S
C2122 C2120 1.363 . S
C2122 C2123 1.370 . S
C2122 C2126 1.524 . S
C2123 C2115 1.503 1_556 S
C2123 C2122 1.370 . S
C2123 C2124 1.403 . S
C2124 C2123 1.403 . S
C2124 C2125 1.404 . S
C2124 C2127 1.539 . S
C2125 C2121 1.408 . S
C2125 C2124 1.404 . S
C2125 H2137 0.930 . S
C2126 C2122 1.524 . S
C2126 H2138 0.956 1_556 S
C2126 H2139 0.961 . S
C2126 H2140 0.961 . S
C2127 C2124 1.539 . S
C2127 H2141 0.958 . S
C2127 H2142 0.961 . S
C2127 H2143 0.960 . S
H2128 C2112 0.931 . S
H2129 C2117 0.929 . S
H2130 C2118 0.960 . S
H2131 C2118 0.962 . S
H2132 C2118 0.960 . S
H2133 C2119 0.961 . S
H2134 C2119 0.961 . S
H2135 C2119 0.961 . S
H2136 C2120 0.931 . S
H2137 C2125 0.930 . S
H2138 C2126 0.956 1_554 S
H2139 C2126 0.961 . S
H2140 C2126 0.961 . S
H2141 C2127 0.958 . S
H2142 C2127 0.961 . S
H2143 C2127 0.960 . S
C2144 C2145 1.391 . S
C2144 C2146 1.394 . S
C2144 H2160 0.931 . S
C2145 C2144 1.391 . S
C2145 C2149 1.378 . S
C2146 C2144 1.394 . S
C2146 C2147 1.369 1_565 S
C2146 C2150 1.531 . S
C2147 C2146 1.369 1_545 S
C2147 C2148 1.410 . S
C2147 C2155 1.503 1_545 S
C2148 C2147 1.410 . S
C2148 C2149 1.391 1_545 S
C2148 C2151 1.511 . S
C2149 C2145 1.378 . S
C2149 C2148 1.391 1_565 S
C2149 H2161 0.929 1_565 S
C2150 C2146 1.531 . S
C2150 H2162 0.960 1_565 S
C2150 H2163 0.962 . S
C2150 H2164 0.960 1_565 S
C2151 C2148 1.511 . S
C2151 H2165 0.961 1_545 S
C2151 H2166 0.961 1_545 S
C2151 H2167 0.961 . S
C2152 C2153 1.370 . S
C2152 C2154 1.363 . S
C2152 H2168 0.931 . S
C2153 C2152 1.370 . S
C2153 C2157 1.408 1_565 S
C2154 C2152 1.363 . S
C2154 C2155 1.370 . S
C2154 C2158 1.524 . S
C2155 C2147 1.503 1_565 S
C2155 C2154 1.370 . S
C2155 C2156 1.403 1_565 S
C2156 C2155 1.403 1_545 S
C2156 C2157 1.404 . S
C2156 C2159 1.539 . S
C2157 C2153 1.408 1_545 S
C2157 C2156 1.404 . S
C2157 H2169 0.930 . S
C2158 C2154 1.524 . S
C2158 H2170 0.956 . S
C2158 H2171 0.961 . S
C2158 H2172 0.961 . S
C2159 C2156 1.539 . S
C2159 H2173 0.958 . S
C2159 H2174 0.961 . S
C2159 H2175 0.960 . S
H2160 C2144 0.931 . S
H2161 C2149 0.929 1_545 S
H2162 C2150 0.960 1_545 S
H2163 C2150 0.962 . S
H2164 C2150 0.960 1_545 S
H2165 C2151 0.961 1_565 S
H2166 C2151 0.961 1_565 S
H2167 C2151 0.961 . S
H2168 C2152 0.931 . S
H2169 C2157 0.930 . S
H2170 C2158 0.956 . S
H2171 C2158 0.961 . S
H2172 C2158 0.961 . S
H2173 C2159 0.958 . S
H2174 C2159 0.961 . S
H2175 C2159 0.960 . S
C2176 C2177 1.391 . S
C2176 C2178 1.394 . S
C2176 H2192 0.931 . S
C2177 C2176 1.391 . S
C2177 C2181 1.376 . S
C2178 C2176 1.394 . S
C2178 C2179 1.369 . S
C2178 C2182 1.531 . S
C2179 C2178 1.369 . S
C2179 C2180 1.410 . S
C2179 C2187 1.503 . S
C2180 C2179 1.410 . S
C2180 C2181 1.392 . S
C2180 C2183 1.511 . S
C2181 C2177 1.376 . S
C2181 C2180 1.392 . S
C2181 H2193 0.929 . S
C2182 C2178 1.531 . S
C2182 H2194 0.960 . S
C2182 H2195 0.962 . S
C2182 H2196 0.960 . S
C2183 C2180 1.511 . S
C2183 H2197 0.961 . S
C2183 H2198 0.961 . S
C2183 H2199 0.961 . S
C2184 C2185 1.370 . S
C2184 C2186 1.363 . S
C2184 H2200 0.931 . S
C2185 C2184 1.370 . S
C2185 C2189 1.408 . S
C2186 C2184 1.363 . S
C2186 C2187 1.370 . S
C2186 C2190 1.524 . S
C2187 C2179 1.503 . S
C2187 C2186 1.370 . S
C2187 C2188 1.403 . S
C2188 C2187 1.403 . S
C2188 C2189 1.404 . S
C2188 C2191 1.539 . S
C2189 C2185 1.408 . S
C2189 C2188 1.404 . S
C2189 H2201 0.930 . S
C2190 C2186 1.524 . S
C2190 H2202 0.956 . S
C2190 H2203 0.961 . S
C2190 H2204 0.961 . S
C2191 C2188 1.539 . S
C2191 H2205 0.958 . S
C2191 H2206 0.961 . S
C2191 H2207 0.960 . S
H2192 C2176 0.931 . S
H2193 C2181 0.929 . S
H2194 C2182 0.960 . S
H2195 C2182 0.962 . S
H2196 C2182 0.960 . S
H2197 C2183 0.961 . S
H2198 C2183 0.961 . S
H2199 C2183 0.961 . S
H2200 C2184 0.931 . S
H2201 C2189 0.930 . S
H2202 C2190 0.956 . S
H2203 C2190 0.961 . S
H2204 C2190 0.961 . S
H2205 C2191 0.958 . S
H2206 C2191 0.961 . S
H2207 C2191 0.960 . S
C2208 C2209 1.391 . S
C2208 C2210 1.394 . S
C2208 H2224 0.931 1_554 S
C2209 C2208 1.391 . S
C2209 C2213 1.376 . S
C2210 C2208 1.394 . S
C2210 C2211 1.369 . S
C2210 C2214 1.534 . S
C2211 C2210 1.369 . S
C2211 C2212 1.410 . S
C2211 C2219 1.503 1_455 S
C2212 C2211 1.410 . S
C2212 C2213 1.392 . S
C2212 C2215 1.511 1_455 S
C2213 C2209 1.376 . S
C2213 C2212 1.392 . S
C2213 H2225 0.929 . S
C2214 C2210 1.534 . S
C2214 H2226 0.972 . S
C2214 H2227 0.940 1_554 S
C2214 H2228 0.967 . S
C2215 C2212 1.511 1_655 S
C2215 H2229 0.961 . S
C2215 H2230 0.961 . S
C2215 H2231 0.961 . S
C2216 C2217 1.370 1_556 S
C2216 C2218 1.363 . S
C2216 H2232 0.931 . S
C2217 C2216 1.370 1_554 S
C2217 C2221 1.408 . S
C2218 C2216 1.363 . S
C2218 C2219 1.370 1_556 S
C2218 C2222 1.524 . S
C2219 C2211 1.503 1_655 S
C2219 C2218 1.370 1_554 S
C2219 C2220 1.403 . S
C2220 C2219 1.403 . S
C2220 C2221 1.404 . S
C2220 C2223 1.539 . S
C2221 C2217 1.408 . S
C2221 C2220 1.404 . S
C2221 H2233 0.930 . S
C2222 C2218 1.524 . S
C2222 H2234 0.932 1_655 S
C2222 H2235 0.961 . S
C2222 H2236 0.961 . S
C2223 C2220 1.539 . S
C2223 H2237 0.958 1_655 S
C2223 H2238 0.961 . S
C2223 H2239 0.963 . S
H2224 C2208 0.931 1_556 S
H2225 C2213 0.929 . S
H2226 C2214 0.972 . S
H2227 C2214 0.940 1_556 S
H2228 C2214 0.967 . S
H2229 C2215 0.961 . S
H2230 C2215 0.961 . S
H2231 C2215 0.961 . S
H2232 C2216 0.931 . S
H2233 C2221 0.930 . S
H2234 C2222 0.932 1_455 S
H2235 C2222 0.961 . S
H2236 C2222 0.961 . S
H2237 C2223 0.958 1_455 S
H2238 C2223 0.961 . S
H2239 C2223 0.963 . S
C2240 C2241 1.391 . S
C2240 C2242 1.394 . S
C2240 H2256 0.931 . S
C2241 C2240 1.391 . S
C2241 C2245 1.376 . S
C2242 C2240 1.394 . S
C2242 C2243 1.369 . S
C2242 C2246 1.531 1_455 S
C2243 C2242 1.369 . S
C2243 C2244 1.410 . S
C2243 C2251 1.503 1_455 S
C2244 C2243 1.410 . S
C2244 C2245 1.392 . S
C2244 C2247 1.511 . S
C2245 C2241 1.376 . S
C2245 C2244 1.392 . S
C2245 H2257 0.929 . S
C2246 C2242 1.531 1_655 S
C2246 H2258 0.960 . S
C2246 H2259 0.962 . S
C2246 H2260 0.960 . S
C2247 C2244 1.511 . S
C2247 H2261 0.961 . S
C2247 H2262 0.961 . S
C2247 H2263 0.961 . S
C2248 C2249 1.370 . S
C2248 C2250 1.363 . S
C2248 H2264 0.931 . S
C2249 C2248 1.370 . S
C2249 C2253 1.408 . S
C2250 C2248 1.363 . S
C2250 C2251 1.370 . S
C2250 C2254 1.524 . S
C2251 C2243 1.503 1_655 S
C2251 C2250 1.370 . S
C2251 C2252 1.403 . S
C2252 C2251 1.403 . S
C2252 C2253 1.404 . S
C2252 C2255 1.516 1_655 S
C2253 C2249 1.408 . S
C2253 C2252 1.404 . S
C2253 H2265 0.930 . S
C2254 C2250 1.524 . S
C2254 H2266 0.956 . S
C2254 H2267 0.961 . S
C2254 H2268 0.961 . S
C2255 C2252 1.516 1_455 S
C2255 H2269 0.942 1_455 S
C2255 H2270 0.965 . S
C2255 H2271 0.997 . S
H2256 C2240 0.931 . S
H2257 C2245 0.929 . S
H2258 C2246 0.960 . S
H2259 C2246 0.962 . S
H2260 C2246 0.960 . S
H2261 C2247 0.961 . S
H2262 C2247 0.961 . S
H2263 C2247 0.961 . S
H2264 C2248 0.931 . S
H2265 C2253 0.930 . S
H2266 C2254 0.956 . S
H2267 C2254 0.961 . S
H2268 C2254 0.961 . S
H2269 C2255 0.942 1_655 S
H2270 C2255 0.965 . S
H2271 C2255 0.997 . S
C2272 C2273 1.391 . S
C2272 C2274 1.394 . S
C2272 H2288 0.931 . S
C2273 C2272 1.391 . S
C2273 C2277 1.376 . S
C2274 C2272 1.394 . S
C2274 C2275 1.369 . S
C2274 C2278 1.531 . S
C2275 C2274 1.369 . S
C2275 C2276 1.410 . S
C2275 C2283 1.503 . S
C2276 C2275 1.410 . S
C2276 C2277 1.392 . S
C2276 C2279 1.511 . S
C2277 C2273 1.376 . S
C2277 C2276 1.392 . S
C2277 H2289 0.929 . S
C2278 C2274 1.531 . S
C2278 H2290 0.960 . S
C2278 H2291 0.962 . S
C2278 H2292 0.960 . S
C2279 C2276 1.511 . S
C2279 H2293 0.961 . S
C2279 H2294 0.961 . S
C2279 H2295 0.961 . S
C2280 C2281 1.370 . S
C2280 C2282 1.363 . S
C2280 H2296 0.931 . S
C2281 C2280 1.370 . S
C2281 C2285 1.408 . S
C2282 C2280 1.363 . S
C2282 C2283 1.370 . S
C2282 C2286 1.524 . S
C2283 C2275 1.503 . S
C2283 C2282 1.370 . S
C2283 C2284 1.403 . S
C2284 C2283 1.403 . S
C2284 C2285 1.404 . S
C2284 C2287 1.539 . S
C2285 C2281 1.408 . S
C2285 C2284 1.404 . S
C2285 H2297 0.930 . S
C2286 C2282 1.524 . S
C2286 H2298 0.956 . S
C2286 H2299 0.961 . S
C2286 H2300 0.961 . S
C2287 C2284 1.539 . S
C2287 H2301 0.958 . S
C2287 H2302 0.961 . S
C2287 H2303 0.960 . S
H2288 C2272 0.931 . S
H2289 C2277 0.929 . S
H2290 C2278 0.960 . S
H2291 C2278 0.962 . S
H2292 C2278 0.960 . S
H2293 C2279 0.961 . S
H2294 C2279 0.961 . S
H2295 C2279 0.961 . S
H2296 C2280 0.931 . S
H2297 C2285 0.930 . S
H2298 C2286 0.956 . S
H2299 C2286 0.961 . S
H2300 C2286 0.961 . S
H2301 C2287 0.958 . S
H2302 C2287 0.961 . S
H2303 C2287 0.960 . S
C2304 C2305 1.391 . S
C2304 C2306 1.394 . S
C2304 H2320 0.931 . S
C2305 C2304 1.391 . S
C2305 C2309 1.376 . S
C2306 C2304 1.394 . S
C2306 C2307 1.369 . S
C2306 C2310 1.531 . S
C2307 C2306 1.369 . S
C2307 C2308 1.410 . S
C2307 C2315 1.503 . S
C2308 C2307 1.410 . S
C2308 C2309 1.392 . S
C2308 C2311 1.511 . S
C2309 C2305 1.376 . S
C2309 C2308 1.392 . S
C2309 H2321 0.929 . S
C2310 C2306 1.531 . S
C2310 H2322 0.960 . S
C2310 H2323 0.962 . S
C2310 H2324 0.960 . S
C2311 C2308 1.511 . S
C2311 H2325 0.961 . S
C2311 H2326 0.961 . S
C2311 H2327 0.961 . S
C2312 C2313 1.370 . S
C2312 C2314 1.363 . S
C2312 H2328 0.931 . S
C2313 C2312 1.370 . S
C2313 C2317 1.408 . S
C2314 C2312 1.363 . S
C2314 C2315 1.370 . S
C2314 C2318 1.524 . S
C2315 C2307 1.503 . S
C2315 C2314 1.370 . S
C2315 C2316 1.403 . S
C2316 C2315 1.403 . S
C2316 C2317 1.404 . S
C2316 C2319 1.539 . S
C2317 C2313 1.408 . S
C2317 C2316 1.404 . S
C2317 H2329 0.930 . S
C2318 C2314 1.524 . S
C2318 H2330 0.956 . S
C2318 H2331 0.961 . S
C2318 H2332 0.961 . S
C2319 C2316 1.539 . S
C2319 H2333 0.958 . S
C2319 H2334 0.961 . S
C2319 H2335 0.960 . S
H2320 C2304 0.931 . S
H2321 C2309 0.929 . S
H2322 C2310 0.960 . S
H2323 C2310 0.962 . S
H2324 C2310 0.960 . S
H2325 C2311 0.961 . S
H2326 C2311 0.961 . S
H2327 C2311 0.961 . S
H2328 C2312 0.931 . S
H2329 C2317 0.930 . S
H2330 C2318 0.956 . S
H2331 C2318 0.961 . S
H2332 C2318 0.961 . S
H2333 C2319 0.958 . S
H2334 C2319 0.961 . S
H2335 C2319 0.960 . S
C2336 C2337 1.391 . S
C2336 C2338 1.394 . S
C2336 H2352 0.931 . S
C2337 C2336 1.391 . S
C2337 C2341 1.376 . S
C2338 C2336 1.394 . S
C2338 C2339 1.369 . S
C2338 C2342 1.531 1_565 S
C2339 C2338 1.369 . S
C2339 C2340 1.410 . S
C2339 C2347 1.503 1_565 S
C2340 C2339 1.410 . S
C2340 C2341 1.392 . S
C2340 C2343 1.511 . S
C2341 C2337 1.376 . S
C2341 C2340 1.392 . S
C2341 H2353 0.929 . S
C2342 C2338 1.531 1_545 S
C2342 H2354 0.960 . S
C2342 H2355 0.962 . S
C2342 H2356 0.960 . S
C2343 C2340 1.511 . S
C2343 H2357 0.961 . S
C2343 H2358 0.961 . S
C2343 H2359 0.961 . S
C2344 C2345 1.370 . S
C2344 C2346 1.363 . S
C2344 H2360 0.931 . S
C2345 C2344 1.370 . S
C2345 C2349 1.408 . S
C2346 C2344 1.363 . S
C2346 C2347 1.370 . S
C2346 C2350 1.524 . S
C2347 C2339 1.503 1_545 S
C2347 C2346 1.370 . S
C2347 C2348 1.403 . S
C2348 C2347 1.403 . S
C2348 C2349 1.404 . S
C2348 C2351 1.525 1_545 S
C2349 C2345 1.408 . S
C2349 C2348 1.404 . S
C2349 H2361 0.930 . S
C2350 C2346 1.524 . S
C2350 H2362 0.956 . S
C2350 H2363 0.961 1_545 S
C2350 H2364 0.961 . S
C2351 C2348 1.525 1_565 S
C2351 H2365 0.945 1_565 S
C2351 H2366 0.963 . S
C2351 H2367 0.987 . S
H2352 C2336 0.931 . S
H2353 C2341 0.929 . S
H2354 C2342 0.960 . S
H2355 C2342 0.962 . S
H2356 C2342 0.960 . S
H2357 C2343 0.961 . S
H2358 C2343 0.961 . S
H2359 C2343 0.961 . S
H2360 C2344 0.931 . S
H2361 C2349 0.930 . S
H2362 C2350 0.956 . S
H2363 C2350 0.961 1_565 S
H2364 C2350 0.961 . S
H2365 C2351 0.945 1_545 S
H2366 C2351 0.963 . S
H2367 C2351 0.987 . S
C2368 C2369 1.391 . S
C2368 C2370 1.394 . S
C2368 H2384 0.931 . S
C2369 C2368 1.391 . S
C2369 C2373 1.376 1_556 S
C2370 C2368 1.394 . S
C2370 C2371 1.369 . S
C2370 C2374 1.531 . S
C2371 C2370 1.369 . S
C2371 C2372 1.410 1_556 S
C2371 C2379 1.503 . S
C2372 C2371 1.410 1_554 S
C2372 C2373 1.392 . S
C2372 C2375 1.511 . S
C2373 C2369 1.376 1_554 S
C2373 C2372 1.392 . S
C2373 H2385 0.929 . S
C2374 C2370 1.531 . S
C2374 H2386 0.960 . S
C2374 H2387 0.962 . S
C2374 H2388 0.960 . S
C2375 C2372 1.511 . S
C2375 H2389 0.961 . S
C2375 H2390 0.961 . S
C2375 H2391 0.961 . S
C2376 C2377 1.370 . S
C2376 C2378 1.363 . S
C2376 H2392 0.931 . S
C2377 C2376 1.370 . S
C2377 C2381 1.408 1_556 S
C2378 C2376 1.363 . S
C2378 C2379 1.370 . S
C2378 C2382 1.524 . S
C2379 C2371 1.503 . S
C2379 C2378 1.370 . S
C2379 C2380 1.403 1_556 S
C2380 C2379 1.403 1_554 S
C2380 C2381 1.404 . S
C2380 C2383 1.539 . S
C2381 C2377 1.408 1_554 S
C2381 C2380 1.404 . S
C2381 H2393 0.930 . S
C2382 C2378 1.524 . S
C2382 H2394 0.956 . S
C2382 H2395 0.961 . S
C2382 H2396 0.961 . S
C2383 C2380 1.539 . S
C2383 H2397 0.958 . S
C2383 H2398 0.961 . S
C2383 H2399 0.960 . S
H2384 C2368 0.931 . S
H2385 C2373 0.929 . S
H2386 C2374 0.960 . S
H2387 C2374 0.962 . S
H2388 C2374 0.960 . S
H2389 C2375 0.961 . S
H2390 C2375 0.961 . S
H2391 C2375 0.961 . S
H2392 C2376 0.931 . S
H2393 C2381 0.930 . S
H2394 C2382 0.956 . S
H2395 C2382 0.961 . S
H2396 C2382 0.961 . S
H2397 C2383 0.958 . S
H2398 C2383 0.961 . S
H2399 C2383 0.960 . S
C865 C615 0.526 . S
C873 C2 0.539 . S
C897 C38 0.712 . S
C905 C579 0.632 . S
C929 C74 0.756 . S
C937 C687 0.703 . S
C961 C110 0.764 . S
C969 C651 0.802 . S
C993 C146 0.660 . S
C1001 C759 0.551 . S
C1025 C182 0.697 . S
C1033 C795 0.711 . S
C1057 C723 0.706 . S
C1065 C218 0.626 . S
C1089 C399 0.826 . S
C1097 C254 0.780 . S
C1121 C290 0.613 . S
C1129 C111 0.522 . S
C1153 C39 0.705 . S
C1161 C326 0.666 . S
C1185 C362 0.905 . S
C1193 C3 0.860 . S
C1217 C398 0.770 . S
C1225 C507 0.743 . S
C1249 C183 0.868 . S
C1257 C434 0.952 . S
C1281 C147 0.900 . S
C1289 C470 0.874 . S
C1313 C506 0.810 . S
C1321 C255 0.741 . S
C1345 C542 0.738 . S
C1353 C219 0.675 . S
C1377 C327 0.963 . S
C1385 C578 0.954 . S
C1409 C363 0.857 . S
C1417 C614 0.828 . S
C1441 C291 0.844 . S
C1449 C650 0.848 . S
C1473 C686 0.690 . S
C1481 C831 0.742 . S
C1505 C543 0.882 . S
C1513 C722 0.960 . S
C1537 C758 0.763 . S
C1545 C471 0.803 . S
C1569 C435 0.679 . S
C1577 C794 0.627 . S
C1601 C830 0.736 . S
C1609 C75 0.744 . S
C1633 C4 1.702 . S
C1641 C40 1.713 . S
C1665 C112 1.602 . S
C1673 C76 1.629 . S
C1697 C148 1.700 . S
C1705 C220 1.720 . S
C1729 C184 1.931 . S
C1737 C256 1.879 . S
C1761 C796 1.719 . S
C1769 C292 1.714 . S
C1793 C328 1.905 . S
C1801 C400 1.889 . S
C1825 C724 1.809 . S
C1833 C364 1.832 . S
C1857 C472 1.845 . S
C1865 C436 1.812 . S
C1889 C508 1.905 . S
C1897 C544 1.904 . S
C1921 C652 1.855 . S
C1929 C580 1.804 . S
C1953 C616 1.605 . S
C1961 C688 1.628 . S
C1985 C832 1.618 . S
C1993 C760 1.618 . S
C2017 C86 1.170 . S
C2025 C14 1.184 . S
C2049 C50 1.423 . S
C2057 C122 1.430 . S
C2081 C698 1.171 . S
C2089 C158 1.186 . S
C2113 C194 1.327 . S
C2121 C662 1.355 . S
C2145 C230 1.446 . S
C2153 C626 1.442 . S
C2177 C590 1.584 . S
C2185 C266 1.597 . S
C2209 C302 1.164 . S
C2217 C842 1.184 . S
C2241 C338 1.377 . S
C2249 C374 1.367 . S
C2273 C734 1.594 . S
C2281 C410 1.592 . S
C2305 C446 1.592 . S
C2313 C518 1.592 . S
C2337 C482 1.380 . S
C2345 C554 1.363 . S
C2369 C806 1.439 . S
C2377 C770 1.444 . S
