# Generated by pormake.
# Topology ftb, (5)-cn, num edge types: 1
# Building blocks:
#     Node 0, Type 0, BuildingBlock: BEQFEK_clean_sbu_0, # of connection points: 5
#     Node 1, Type 0, BuildingBlock: BEQFEK_clean_sbu_0, # of connection points: 5
#     Node 2, Type 0, BuildingBlock: BEQFEK_clean_sbu_0, # of connection points: 5
#     Node 3, Type 0, BuildingBlock: BEQFEK_clean_sbu_0, # of connection points: 5
#     Node 4, Type 0, BuildingBlock: BEQFEK_clean_sbu_0, # of connection points: 5
#     Node 5, Type 0, BuildingBlock: BEQFEK_clean_sbu_0, # of connection points: 5
#     Node 6, Type 0, BuildingBlock: BEQFEK_clean_sbu_0, # of connection points: 5
#     Node 7, Type 0, BuildingBlock: BEQFEK_clean_sbu_0, # of connection points: 5
#     Edge 8, Type (0, 0), BuildingBlock: OJICUG_clean_linker_0, # of connection points: 2
#     Edge 9, Type (0, 0), BuildingBlock: OJICUG_clean_linker_0, # of connection points: 2
#     Edge 10, Type (0, 0), BuildingBlock: OJICUG_clean_linker_0, # of connection points: 2
#     Edge 11, Type (0, 0), BuildingBlock: OJICUG_clean_linker_0, # of connection points: 2
#     Edge 12, Type (0, 0), BuildingBlock: OJICUG_clean_linker_0, # of connection points: 2
#     Edge 13, Type (0, 0), BuildingBlock: OJICUG_clean_linker_0, # of connection points: 2
#     Edge 14, Type (0, 0), BuildingBlock: OJICUG_clean_linker_0, # of connection points: 2
#     Edge 15, Type (0, 0), BuildingBlock: OJICUG_clean_linker_0, # of connection points: 2
#     Edge 16, Type (0, 0), BuildingBlock: OJICUG_clean_linker_0, # of connection points: 2
#     Edge 17, Type (0, 0), BuildingBlock: OJICUG_clean_linker_0, # of connection points: 2
#     Edge 18, Type (0, 0), BuildingBlock: OJICUG_clean_linker_0, # of connection points: 2
#     Edge 19, Type (0, 0), BuildingBlock: OJICUG_clean_linker_0, # of connection points: 2
#     Edge 20, Type (0, 0), BuildingBlock: OJICUG_clean_linker_0, # of connection points: 2
#     Edge 21, Type (0, 0), BuildingBlock: OJICUG_clean_linker_0, # of connection points: 2
#     Edge 22, Type (0, 0), BuildingBlock: OJICUG_clean_linker_0, # of connection points: 2
#     Edge 23, Type (0, 0), BuildingBlock: OJICUG_clean_linker_0, # of connection points: 2
#     Edge 24, Type (0, 0), BuildingBlock: OJICUG_clean_linker_0, # of connection points: 2
#     Edge 25, Type (0, 0), BuildingBlock: OJICUG_clean_linker_0, # of connection points: 2
#     Edge 26, Type (0, 0), BuildingBlock: OJICUG_clean_linker_0, # of connection points: 2
#     Edge 27, Type (0, 0), BuildingBlock: OJICUG_clean_linker_0, # of connection points: 2
# Relax obj value: 0.111
# Max RMSD: 0.196
# Mean RMSD: 0.196
data_MOF--net-ftb--node1-BEQFEK_clean_sbu_0--edge1-OJICUG_clean_linker_0
_symmetry_space_group_name_H-M    P1
_symmetry_Int_Tables_number       1
_symmetry_cell_setting            triclinic
loop_
_symmetry_equiv_pos_as_xyz
'x, y, z'
_cell_length_a     41.968022
_cell_length_b     11.607249
_cell_length_c     28.929231
_cell_angle_alpha  90.024133
_cell_angle_beta   93.914803
_cell_angle_gamma 89.931226
loop_
_atom_site_label
_atom_site_type_symbol
_atom_site_fract_x
_atom_site_fract_y
_atom_site_fract_z
_atom_type_partial_charge
Co0 Co 0.34091 0.04144 0.11107 0.0
Co1 Co 0.33973 0.97812 0.00493 0.0
C2 C 0.32596 0.80851 0.08166 0.0
O3 O 0.33465 0.8751 0.11522 0.0
O4 O 0.32795 0.83915 0.03953 0.0
C5 C 0.3366 0.07578 0.21048 0.0
O6 O 0.32126 0.97718 0.2104 0.0
C7 C 0.346 0.8457 0.91841 0.0
C8 C 0.34701 -0.0128 0.86747 0.0
C9 C 0.3473 0.8683 0.8714 0.0
N10 N 0.34476 0.94675 0.94103 0.0
N11 N 0.34538 0.03081 0.91031 0.0
C12 C 0.34707 0.73079 0.9418 0.0
H13 H 0.35977 0.73767 0.97659 0.0
H14 H 0.35921 0.666 0.92089 0.0
H15 H 0.32229 0.70163 0.9461 0.0
C16 C 0.40534 0.11436 0.09254 0.0
N17 N 0.37613 0.07794 0.07725 0.0
N18 N 0.37626 0.05082 0.03315 0.0
C19 C 0.40579 0.06874 0.01898 0.0
C20 C 0.42507 0.11018 0.05618 0.0
C21 C 0.41486 0.14127 0.14218 0.0
H22 H 0.4002 0.21418 0.15358 0.0
H23 H 0.40999 0.06553 0.164 0.0
H24 H 0.44046 0.165 0.14731 0.0
O25 O 0.29993 0.09557 0.08206 0.0
O26 O 0.3009 0.07307 0.00593 0.0
H27 H 0.40552 0.08711 0.94556 0.0
H28 H 0.44284 0.03448 0.97202 0.0
C29 C 0.41649 0.03046 0.9731 0.0
H30 H 0.40834 0.94099 0.96587 0.0
H31 H 0.34428 0.11817 0.91861 0.0
O32 O 0.34646 0.11411 0.1729 0.0
C33 C 0.28662 0.10318 0.04135 0.0
Co34 Co 0.64618 0.0381 0.00932 0.0
Co35 Co 0.65065 -0.00485 0.11725 0.0
C36 C 0.66811 0.81856 0.04438 0.0
O37 O 0.65708 0.87459 0.0089 0.0
O38 O 0.6657 0.85675 0.0854 0.0
C39 C 0.6541 0.07694 0.91152 0.0
O40 O 0.6767 -0.00144 0.91619 0.0
C41 C 0.64298 0.86559 0.20346 0.0
C42 C 0.65123 0.00263 0.25593 0.0
C43 C 0.64532 0.88567 0.25098 0.0
N44 N 0.64756 0.96589 0.18164 0.0
N45 N 0.65246 0.04735 0.21322 0.0
C46 C 0.6354 0.75473 0.17879 0.0
H47 H 0.62316 0.77201 0.14426 0.0
H48 H 0.62012 0.6994 0.19938 0.0
H49 H 0.65798 0.70818 0.1736 0.0
C50 C 0.58028 0.09322 0.02882 0.0
N51 N 0.61049 0.06699 0.04351 0.0
N52 N 0.61228 0.05273 0.08866 0.0
C53 C 0.5833 0.07156 0.10444 0.0
C54 C 0.56199 0.09753 0.06698 0.0
C55 C 0.56869 0.09848 0.97873 0.0
H56 H 0.57406 0.18491 0.96486 0.0
H57 H 0.58136 0.03325 0.95876 0.0
H58 H 0.54262 0.08282 0.97372 0.0
O59 O 0.68607 0.10784 0.03618 0.0
O60 O 0.68658 0.10068 0.1129 0.0
H61 H 0.59443 0.1107 0.17593 0.0
H62 H 0.55228 0.09728 0.16048 0.0
C63 C 0.57622 0.06225 0.15431 0.0
H64 H 0.57754 0.9705 0.16504 0.0
H65 H 0.65706 0.13335 0.20559 0.0
O66 O 0.63843 0.1027 0.94614 0.0
C67 C 0.69974 0.12682 0.07607 0.0
Co68 Co 0.34303 0.54233 0.61038 0.0
Co69 Co 0.33881 0.4887 0.50344 0.0
C70 C 0.32358 0.31663 0.57906 0.0
O71 O 0.334 0.37779 0.61342 0.0
O72 O 0.32526 0.35106 0.53736 0.0
C73 C 0.33579 0.58237 0.70789 0.0
O74 O 0.31489 0.49813 0.70416 0.0
C75 C 0.346 0.35491 0.41793 0.0
C76 C 0.33895 0.49144 0.36499 0.0
C77 C 0.3441 0.37416 0.37039 0.0
N78 N 0.34195 0.45616 0.43938 0.0
N79 N 0.33772 0.53724 0.4075 0.0
C80 C 0.35261 0.24375 0.44287 0.0
H81 H 0.36499 0.26024 0.47737 0.0
H82 H 0.36741 0.18609 0.42243 0.0
H83 H 0.32964 0.20013 0.44808 0.0
C84 C 0.40851 0.60052 0.59005 0.0
N85 N 0.37842 0.57183 0.5757 0.0
N86 N 0.37681 0.55212 0.53089 0.0
C87 C 0.40582 0.56936 0.51497 0.0
C88 C 0.42694 0.6003 0.55201 0.0
C89 C 0.41993 0.61132 0.64007 0.0
H90 H 0.41329 0.69766 0.65283 0.0
H91 H 0.40809 0.54558 0.66079 0.0
H92 H 0.44616 0.6003 0.64544 0.0
O93 O 0.30238 0.60553 0.58289 0.0
O94 O 0.302 0.59143 0.50634 0.0
H95 H 0.39566 0.60055 0.44268 0.0
H96 H 0.43754 0.58341 0.4591 0.0
C97 C 0.41325 0.55245 0.46555 0.0
H98 H 0.41116 0.45967 0.4566 0.0
H99 H 0.33363 0.62384 0.41483 0.0
O100 O 0.35034 0.61182 0.67267 0.0
C101 C 0.28862 0.61977 0.54273 0.0
Co102 Co 0.64928 0.55238 0.51087 0.0
Co103 Co 0.64983 0.48475 0.61675 0.0
C104 C 0.66679 0.32103 0.5393 0.0
O105 O 0.6577 0.38735 0.50583 0.0
O106 O 0.66385 0.34977 0.58144 0.0
C107 C 0.65219 0.58759 0.4112 0.0
O108 O 0.66551 0.48521 0.41028 0.0
C109 C 0.64385 0.34613 0.70195 0.0
C110 C 0.6401 0.48441 0.7538 0.0
C111 C 0.64137 0.36583 0.74898 0.0
N112 N 0.64421 0.44856 0.68018 0.0
N113 N 0.64199 0.53064 0.71147 0.0
C114 C 0.64478 0.23245 0.67777 0.0
H115 H 0.67005 0.20777 0.67436 0.0
H116 H 0.63267 0.23899 0.64257 0.0
H117 H 0.63311 0.16457 0.69766 0.0
C118 C 0.58385 0.61638 0.52817 0.0
N119 N 0.61319 0.58201 0.5439 0.0
N120 N 0.61284 0.5537 0.58786 0.0
C121 C 0.58305 0.56902 0.60149 0.0
C122 C 0.56386 0.61014 0.56415 0.0
C123 C 0.57457 0.64375 0.47851 0.0
H124 H 0.58083 0.57005 0.45641 0.0
H125 H 0.54868 0.66286 0.47282 0.0
H126 H 0.58832 0.71976 0.46794 0.0
O127 O 0.68925 0.61 0.54173 0.0
O128 O 0.6876 0.58536 0.61769 0.0
H129 H 0.5824 0.58802 0.67478 0.0
H130 H 0.54575 0.53186 0.6476 0.0
C131 C 0.57217 0.53012 0.64714 0.0
H132 H 0.58092 0.44147 0.65472 0.0
H133 H 0.64214 0.61855 0.70392 0.0
O134 O 0.64395 0.62801 0.44943 0.0
C135 C 0.70201 0.61808 0.58276 0.0
Co136 Co 0.84178 0.05141 0.611 0.0
Co137 Co 0.83974 0.98075 0.50532 0.0
C138 C 0.82342 0.81934 0.58342 0.0
O139 O 0.83259 0.8869 0.61644 0.0
O140 O 0.8261 0.84641 0.54104 0.0
C141 C 0.83914 0.08873 0.71033 0.0
O142 O 0.82448 -0.01115 0.71092 0.0
C143 C 0.84633 0.84156 0.42037 0.0
C144 C 0.84611 0.97937 0.36767 0.0
C145 C 0.84746 0.8609 0.37307 0.0
N146 N 0.84432 0.94411 0.44172 0.0
N147 N 0.8441 0.02586 0.40993 0.0
C148 C 0.84819 0.72854 0.44517 0.0
H149 H 0.86029 0.73938 0.4802 0.0
H150 H 0.86123 0.66387 0.42538 0.0
H151 H 0.82362 0.69663 0.4491 0.0
C152 C 0.90728 0.11077 0.59176 0.0
N153 N 0.87763 0.07774 0.57696 0.0
N154 N 0.87728 0.04754 0.53314 0.0
C155 C 0.9069 0.05972 0.51862 0.0
C156 C 0.92683 0.10057 0.55527 0.0
C157 C 0.91732 0.13569 0.64142 0.0
H158 H 0.90613 0.21761 0.65172 0.0
H159 H 0.90862 0.06618 0.66366 0.0
H160 H 0.94361 0.14292 0.64745 0.0
O161 O 0.80172 0.11159 0.58114 0.0
O162 O 0.80233 0.083 0.50529 0.0
H163 H 0.90262 0.07869 0.44509 0.0
H164 H 0.94212 0.03953 0.46759 0.0
C165 C 0.91629 0.02594 0.47149 0.0
H166 H 0.91021 0.9341 0.46496 0.0
H167 H 0.84234 0.11367 0.41713 0.0
O168 O 0.84815 0.12746 0.67228 0.0
C169 C 0.78852 0.11859 0.54033 0.0
Co170 Co 0.14734 0.0454 0.51328 0.0
Co171 Co 0.1506 -0.0131 0.6199 0.0
C172 C 0.16602 0.81669 0.54443 0.0
O173 O 0.15607 0.87996 0.51043 0.0
O174 O 0.16383 0.8488 0.58631 0.0
C175 C 0.15533 0.08415 0.41595 0.0
O176 O 0.17657 0.0009 0.42024 0.0
C177 C 0.14537 0.85468 0.70626 0.0
C178 C 0.14691 -0.00488 0.75795 0.0
C179 C 0.14561 0.87636 0.75352 0.0
N180 N 0.1468 0.95604 0.68399 0.0
N181 N 0.14767 0.03951 0.71511 0.0
C182 C 0.14256 0.74056 0.68236 0.0
H183 H 0.16685 0.70693 0.67753 0.0
H184 H 0.12969 0.75027 0.6478 0.0
H185 H 0.12977 0.67773 0.70328 0.0
C186 C 0.08258 0.11283 0.53347 0.0
N187 N 0.11221 0.0787 0.54788 0.0
N188 N 0.11298 0.05296 0.59217 0.0
C189 C 0.08365 0.06896 0.60729 0.0
C190 C 0.06359 0.10866 0.57066 0.0
C191 C 0.07189 0.13558 0.48389 0.0
H192 H 0.07778 0.0602 0.46244 0.0
H193 H 0.04586 0.15327 0.47944 0.0
H194 H 0.08507 0.21101 0.47145 0.0
O195 O 0.18784 0.10692 0.54078 0.0
O196 O 0.18817 0.08706 0.61717 0.0
H197 H 0.08654 0.08863 0.68081 0.0
H198 H 0.04794 0.04131 0.65684 0.0
C199 C 0.0741 0.03328 0.65408 0.0
H200 H 0.08156 0.94283 0.66096 0.0
H201 H 0.14921 0.12688 0.70709 0.0
O202 O 0.1403 0.11329 0.45077 0.0
C203 C 0.2016 0.11769 0.58109 0.0
Co204 Co 0.84526 0.53675 0.11241 0.0
Co205 Co 0.84147 0.4955 0.0044 0.0
C206 C 0.82369 0.31797 0.07671 0.0
O207 O 0.83471 0.37311 0.11242 0.0
O208 O 0.82617 0.35702 0.03586 0.0
C209 C 0.83824 0.56999 0.21104 0.0
O210 O 0.81751 0.48524 0.20722 0.0
C211 C 0.84937 0.36603 0.9182 0.0
C212 C 0.84202 0.50365 0.8658 0.0
C213 C 0.84743 0.38635 0.87071 0.0
N214 N 0.84504 0.46652 0.94006 0.0
N215 N 0.84069 0.54835 0.90852 0.0
C216 C 0.8563 0.25459 0.94279 0.0
H217 H 0.83347 0.20979 0.9478 0.0
H218 H 0.86855 0.27092 0.97739 0.0
H219 H 0.87135 0.1981 0.92224 0.0
C220 C 0.91125 0.59245 0.09399 0.0
N221 N 0.88114 0.56643 0.07881 0.0
N222 N 0.87966 0.55266 0.03364 0.0
C223 C 0.90877 0.57153 0.01834 0.0
C224 C 0.92982 0.59706 0.05615 0.0
C225 C 0.92249 0.59715 0.14423 0.0
H226 H 0.90976 0.53149 0.16383 0.0
H227 H 0.94856 0.58176 0.14959 0.0
H228 H 0.91688 0.68331 0.15822 0.0
O229 O 0.8054 0.60607 0.08507 0.0
O230 O 0.80543 0.60122 0.00838 0.0
H231 H 0.89826 0.61186 0.94684 0.0
H232 H 0.94029 0.59693 0.96289 0.0
C233 C 0.91622 0.56257 0.96861 0.0
H234 H 0.91481 0.47099 0.95764 0.0
H235 H 0.83634 0.63458 0.91618 0.0
O236 O 0.85244 0.60118 0.17571 0.0
C237 C 0.79196 0.62606 0.04511 0.0
Co238 Co 0.15089 0.54283 0.01291 0.0
Co239 Co 0.15233 0.47875 0.11889 0.0
C240 C 0.16608 0.30948 0.04207 0.0
O241 O 0.15745 0.37653 0.00864 0.0
O242 O 0.16404 0.33965 0.08425 0.0
C243 C 0.1579 0.5831 0.91482 0.0
O244 O 0.17691 0.49298 0.91659 0.0
C245 C 0.14615 0.34667 0.2054 0.0
C246 C 0.14518 0.48839 0.25632 0.0
C247 C 0.14482 0.36949 0.25239 0.0
N248 N 0.14747 0.44763 0.18279 0.0
N249 N 0.14689 0.53181 0.21348 0.0
C250 C 0.14498 0.23171 0.18203 0.0
H251 H 0.16974 0.20214 0.17765 0.0
H252 H 0.13224 0.23869 0.14727 0.0
H253 H 0.13284 0.16717 0.20297 0.0
C254 C 0.08642 0.61519 0.03178 0.0
N255 N 0.1157 0.57893 0.04692 0.0
N256 N 0.11567 0.55136 0.09096 0.0
C257 C 0.08613 0.56873 0.10524 0.0
C258 C 0.06674 0.61034 0.06818 0.0
C259 C 0.07679 0.64254 0.98222 0.0
H260 H 0.08174 0.56714 0.96022 0.0
H261 H 0.05114 0.66599 0.97721 0.0
H262 H 0.0913 0.71581 0.97095 0.0
O263 O 0.19185 0.59745 0.04161 0.0
O264 O 0.19111 0.57355 0.11769 0.0
H265 H 0.08649 0.58604 0.17872 0.0
H266 H 0.04919 0.5336 0.15223 0.0
C267 C 0.07554 0.52974 0.15106 0.0
H268 H 0.08379 0.4402 0.15804 0.0
H269 H 0.14801 0.61913 0.20517 0.0
O270 O 0.14491 0.6149 0.9511 0.0
C271 C 0.20526 0.60439 0.08228 0.0
C272 C 0.33002 0.18301 0.33345 0.0
C273 C 0.34499 0.29105 0.33176 0.0
H274 H 0.31562 0.02966 0.29637 0.0
C275 C 0.35841 0.32481 0.29078 0.0
H276 H 0.31862 0.15592 0.36405 0.0
C277 C 0.35648 0.25322 0.25198 0.0
C278 C 0.34078 0.14641 0.25308 0.0
H279 H 0.37001 0.40777 0.28847 0.0
H280 H 0.36669 0.28313 0.22077 0.0
C281 C 0.32799 0.11117 0.29446 0.0
C282 C 0.63216 0.83985 0.33154 0.0
C283 C 0.64432 0.80342 0.28995 0.0
H284 H 0.62471 0.80021 0.40207 0.0
C285 C 0.65795 0.69301 0.28783 0.0
H286 H 0.62162 0.92464 0.33426 0.0
C287 C 0.6598 0.6213 0.32684 0.0
C288 C 0.64825 0.65899 0.36876 0.0
H289 H 0.66846 0.66362 0.25681 0.0
H290 H 0.67109 0.53776 0.32446 0.0
C291 C 0.63396 0.76841 0.37042 0.0
C292 C 0.32399 0.62087 0.79044 0.0
C293 C 0.34072 0.64882 0.75149 0.0
H294 H 0.31264 0.66888 0.85888 0.0
C295 C 0.36112 0.74498 0.7537 0.0
H296 H 0.30798 0.5477 0.78979 0.0
C297 C 0.36389 0.81383 0.79333 0.0
C298 C 0.34669 0.78737 0.83187 0.0
H299 H 0.37441 0.76901 0.72438 0.0
H300 H 0.37919 0.88899 0.79359 0.0
C301 C 0.32692 0.68962 0.83026 0.0
C302 C 0.66341 0.18895 0.78991 0.0
C303 C 0.64223 0.28297 0.78789 0.0
H304 H 0.68378 0.04959 0.8306 0.0
C305 C 0.62379 0.30442 0.82565 0.0
H306 H 0.67857 0.17207 0.76188 0.0
C307 C 0.62682 0.23475 0.86503 0.0
C308 C 0.64873 0.14284 0.86782 0.0
H309 H 0.60736 0.37656 0.82506 0.0
H310 H 0.61259 0.2552 0.89381 0.0
C311 C 0.66662 0.11946 0.82952 0.0
C312 C 0.85873 0.26743 0.75144 0.0
C313 C 0.84353 0.15972 0.75284 0.0
H314 H 0.87205 0.42244 0.78784 0.0
C315 C 0.83142 0.12351 0.79457 0.0
H316 H 0.86842 0.29802 0.71993 0.0
C317 C 0.83362 0.19508 0.83362 0.0
C318 C 0.84812 0.30392 0.83173 0.0
H319 H 0.81944 0.0413 0.79675 0.0
H320 H 0.82268 0.167 0.86446 0.0
C321 C 0.86084 0.33883 0.79035 0.0
C322 C 0.13399 0.75226 0.87163 0.0
C323 C 0.15299 0.65234 0.87196 0.0
H324 H 0.1167 0.90041 0.8337 0.0
C325 C 0.16816 0.62278 0.83177 0.0
H326 H 0.12194 0.77779 0.90194 0.0
C327 C 0.16503 0.69336 0.7925 0.0
C328 C 0.14656 0.79444 0.79269 0.0
H329 H 0.1831 0.54675 0.83098 0.0
H330 H 0.17813 0.67105 0.76282 0.0
C331 C 0.13097 0.82273 0.83254 0.0
C332 C 0.86522 0.80379 0.29603 0.0
C333 C 0.84789 0.77753 0.33445 0.0
H334 H 0.87629 0.75799 0.22744 0.0
C335 C 0.8288 0.67807 0.33327 0.0
H336 H 0.88008 0.88008 0.296 0.0
C337 C 0.82638 0.6081 0.29372 0.0
C338 C 0.84303 0.63643 0.25471 0.0
H339 H 0.81453 0.65717 0.36189 0.0
H340 H 0.81073 0.53394 0.29323 0.0
C341 C 0.86302 0.7337 0.25675 0.0
C342 C 0.16761 0.12204 0.33357 0.0
C343 C 0.15065 0.15033 0.37227 0.0
H344 H 0.17935 0.16968 0.26528 0.0
C345 C 0.13026 0.24671 0.36979 0.0
H346 H 0.18361 0.04867 0.33444 0.0
C347 C 0.12775 0.31546 0.33016 0.0
C348 C 0.14519 0.28868 0.29188 0.0
H349 H 0.11683 0.27108 0.39893 0.0
H350 H 0.11247 0.39082 0.3297 0.0
C351 C 0.16492 0.19068 0.29372 0.0
C352 C 0.51049 0.193 0.0409 0.0
C353 C 0.52695 0.10574 0.06631 0.0
H354 H 0.46467 0.26203 0.01742 0.0
C355 C 0.50969 0.02173 0.08883 0.0
H356 H 0.52344 0.25843 0.0232 0.0
C357 C 0.47646 0.02483 0.08603 0.0
C358 C 0.46007 0.11113 0.06023 0.0
H359 H 0.52183 0.95198 0.10764 0.0
H360 H 0.46349 0.95851 0.10322 0.0
C361 C 0.47713 0.19523 0.03761 0.0
C362 C 0.47935 0.5188 0.53307 0.0
C363 C 0.46201 0.60729 0.55289 0.0
H364 H 0.52564 0.45168 0.52107 0.0
C365 C 0.4784 0.69822 0.576 0.0
H366 H 0.46723 0.44637 0.51609 0.0
C367 C 0.51176 0.69979 0.57967 0.0
C368 C 0.52889 0.61121 0.55976 0.0
H369 H 0.46539 0.76707 0.59163 0.0
H370 H 0.52418 0.76961 0.59805 0.0
C371 C 0.51259 0.52119 0.53622 0.0
C372 C 0.01252 0.00596 0.55454 0.0
C373 C 0.02865 0.10762 0.56763 0.0
H374 H 0.96713 0.92462 0.54046 0.0
C375 C 0.01141 0.20783 0.57624 0.0
H376 H 0.02569 0.92808 0.54778 0.0
C377 C 0.97805 0.20617 0.57178 0.0
C378 C 0.96188 0.10447 0.55841 0.0
H379 H 0.02373 0.28691 0.5862 0.0
H380 H 0.96486 0.2839 0.57867 0.0
C381 C 0.97928 0.00431 0.55004 0.0
C382 C 0.98114 0.69232 0.08298 0.0
C383 C 0.96487 0.60506 0.05736 0.0
H384 H 0.02682 0.76162 0.10685 0.0
C385 C 0.98232 0.52099 0.03507 0.0
H386 H 0.96804 0.75776 0.10053 0.0
C387 C 0.01555 0.52416 0.03822 0.0
C388 C 0.03174 0.61062 0.06413 0.0
H389 H 0.97031 0.45124 0.01611 0.0
H390 H 0.02867 0.45793 0.02113 0.0
C391 C 0.0145 0.69466 0.0866 0.0
C392 C 0.20777 0.22789 0.99431 0.0
C393 C 0.18983 0.21932 0.03365 0.0
H394 H 0.25327 0.2006 0.96639 0.0
C395 C 0.20189 0.15226 0.07126 0.0
H396 H 0.1991 0.2778 0.96442 0.0
C397 C 0.23317 0.11192 0.07289 0.0
C398 C 0.2526 0.13469 0.03631 0.0
H399 H 0.18843 0.1416 0.1016 0.0
H400 H 0.24257 0.06725 0.10377 0.0
C401 C 0.23906 0.18582 0.9957 0.0
C402 C 0.74347 0.70511 0.00046 0.0
C403 C 0.75815 0.66133 0.04183 0.0
H404 H 0.70194 0.78499 0.96779 0.0
C405 C 0.73961 0.64365 0.07986 0.0
H406 H 0.75692 0.71597 0.97011 0.0
C407 C 0.70788 0.6792 0.07809 0.0
C408 C 0.69423 0.73577 0.03866 0.0
H409 H 0.74981 0.60503 0.11161 0.0
H410 H 0.69499 0.67169 0.10914 0.0
C411 C 0.7117 0.74204 0.99885 0.0
C412 C 0.25294 0.68576 0.12795 0.0
C413 C 0.23928 0.6355 0.08723 0.0
H414 H 0.29302 0.77642 0.15937 0.0
C415 C 0.25863 0.61287 0.05053 0.0
H416 H 0.23878 0.70035 0.15736 0.0
C417 C 0.28996 0.65246 0.05218 0.0
C418 C 0.30214 0.71871 0.08994 0.0
H419 H 0.24914 0.56881 0.01955 0.0
H420 H 0.30335 0.64191 0.02177 0.0
C421 C 0.28427 0.72711 0.12936 0.0
C422 C 0.74846 0.20397 0.12063 0.0
C423 C 0.73352 0.16213 0.0791 0.0
H424 H 0.7902 0.28174 0.15344 0.0
C425 C 0.75182 0.14595 0.0407 0.0
H426 H 0.73521 0.2136 0.15125 0.0
C427 C 0.78356 0.18097 0.04236 0.0
C428 C 0.79749 0.23556 0.08208 0.0
H429 H 0.74143 0.10881 0.00878 0.0
H430 H 0.79627 0.17457 0.01111 0.0
C431 C 0.78024 0.24038 0.12215 0.0
C432 C 0.20889 0.74131 0.49726 0.0
C433 C 0.19118 0.73124 0.53675 0.0
H434 H 0.25428 0.71718 0.4687 0.0
C435 C 0.20421 0.66787 0.57483 0.0
H436 H 0.19957 0.78894 0.46711 0.0
C437 C 0.23581 0.63095 0.57629 0.0
C438 C 0.25473 0.65354 0.53911 0.0
H439 H 0.19104 0.65658 0.6054 0.0
H440 H 0.2457 0.58784 0.60726 0.0
C441 C 0.2405 0.70263 0.49847 0.0
C442 C 0.71013 0.24629 0.49271 0.0
C443 C 0.69161 0.23445 0.53133 0.0
H444 H 0.75608 0.22135 0.46574 0.0
C445 C 0.7035 0.16681 0.56885 0.0
H446 H 0.70167 0.29724 0.463 0.0
C447 C 0.73489 0.12764 0.57101 0.0
C448 C 0.75469 0.15218 0.53504 0.0
H449 H 0.68966 0.15393 0.59866 0.0
H450 H 0.74402 0.08163 0.60172 0.0
C451 C 0.74153 0.20511 0.49457 0.0
C452 C 0.25424 0.1297 0.54727 0.0
C453 C 0.23551 0.15064 0.58485 0.0
H454 H 0.29863 0.15818 0.5175 0.0
C455 C 0.24986 0.19861 0.6256 0.0
H456 H 0.24425 0.08751 0.51616 0.0
C457 C 0.28135 0.23823 0.62655 0.0
C458 C 0.29876 0.2302 0.58667 0.0
H459 H 0.23621 0.21194 0.65562 0.0
H460 H 0.29074 0.28525 0.65682 0.0
C461 C 0.28569 0.16768 0.54842 0.0
C462 C 0.75598 0.623 0.55314 0.0
C463 C 0.73591 0.65017 0.58853 0.0
H464 H 0.80132 0.64787 0.52569 0.0
C465 C 0.74878 0.70552 0.62862 0.0
H466 H 0.74705 0.5752 0.52278 0.0
C467 C 0.78016 0.74671 0.63044 0.0
C468 C 0.79889 0.73259 0.59215 0.0
H469 H 0.73402 0.7239 0.65701 0.0
H470 H 0.78838 0.79971 0.65967 0.0
C471 C 0.78732 0.66235 0.55525 0.0
loop_
_geom_bond_atom_site_label_1
_geom_bond_atom_site_label_2
_geom_bond_distance
_geom_bond_site_symmetry_2
_ccdc_geom_bond_type
Co0 O3 1.970 1_545 S
Co0 N17 1.989 . S
Co0 O25 1.967 . S
Co0 O32 1.920 . S
Co1 O4 1.957 1_546 S
Co1 N10 2.043 1_545 S
Co1 N18 1.984 1_556 S
Co1 O26 1.941 . S
C2 O3 1.258 . S
C2 O4 1.263 . S
O3 Co0 1.970 1_565 S
O3 C2 1.258 . S
O4 Co1 1.957 1_564 S
O4 C2 1.263 . S
C5 O6 1.235 1_545 S
C5 O32 1.289 . S
O6 C5 1.235 1_565 S
C7 C9 1.400 . S
C7 N10 1.351 . S
C7 C12 1.501 . S
C8 C9 1.387 . S
C8 N11 1.341 1_565 S
C9 C7 1.400 . S
C9 C8 1.387 . S
N10 Co1 2.043 1_565 S
N10 C7 1.351 . S
N10 N11 1.365 1_565 S
N11 C8 1.341 1_545 S
N11 N10 1.365 1_545 S
N11 H31 0.862 . S
C12 C7 1.501 . S
C12 H13 0.961 . S
C12 H14 0.961 . S
C12 H15 0.960 . S
H13 C12 0.961 . S
H14 C12 0.961 . S
H15 C12 0.960 . S
C16 N17 1.342 . S
C16 C20 1.401 . S
C16 C21 1.499 . S
N17 Co0 1.989 . S
N17 C16 1.342 . S
N17 N18 1.388 . S
N18 Co1 1.984 1_554 S
N18 N17 1.388 . S
N18 C19 1.346 . S
C19 N18 1.346 . S
C19 C20 1.396 . S
C19 C29 1.510 1_544 S
C20 C16 1.401 . S
C20 C19 1.396 . S
C21 C16 1.499 . S
C21 H22 0.959 . S
C21 H23 0.960 . S
C21 H24 0.961 . S
H22 C21 0.959 . S
H23 C21 0.960 . S
H24 C21 0.961 . S
O25 Co0 1.967 . S
O25 C33 1.258 . S
O26 Co1 1.941 . S
O26 C33 1.252 1_556 S
H27 C29 0.959 1_545 S
H28 C29 0.961 . S
C29 C19 1.510 1_566 S
C29 H27 0.959 1_565 S
C29 H28 0.961 . S
C29 H30 0.960 . S
H30 C29 0.960 . S
H31 N11 0.862 . S
O32 Co0 1.920 . S
O32 C5 1.289 . S
C33 O25 1.258 . S
C33 O26 1.252 1_554 S
Co34 O37 1.970 1_545 S
Co34 N51 1.989 . S
Co34 O59 1.967 . S
Co34 O66 1.920 1_554 S
Co35 O38 1.966 1_545 S
Co35 N44 2.022 1_545 S
Co35 N52 1.993 . S
Co35 O60 1.941 . S
C36 O37 1.258 . S
C36 O38 1.263 . S
O37 Co34 1.970 1_565 S
O37 C36 1.258 . S
O38 Co35 1.966 1_565 S
O38 C36 1.263 . S
C39 O40 1.235 1_545 S
C39 O66 1.289 . S
O40 C39 1.235 1_565 S
C41 C43 1.400 . S
C41 N44 1.351 . S
C41 C46 1.501 . S
C42 C43 1.387 . S
C42 N45 1.341 1_565 S
C43 C41 1.400 . S
C43 C42 1.387 . S
N44 Co35 2.022 1_565 S
N44 C41 1.351 . S
N44 N45 1.365 1_565 S
N45 C42 1.341 1_545 S
N45 N44 1.365 1_545 S
N45 H65 0.862 . S
C46 C41 1.501 . S
C46 H47 0.961 . S
C46 H48 0.961 . S
C46 H49 0.960 . S
H47 C46 0.961 . S
H48 C46 0.961 . S
H49 C46 0.960 . S
C50 N51 1.342 . S
C50 C54 1.401 . S
C50 C55 1.499 1_554 S
N51 Co34 1.989 . S
N51 C50 1.342 . S
N51 N52 1.388 . S
N52 Co35 1.993 . S
N52 N51 1.388 . S
N52 C53 1.346 . S
C53 N52 1.346 . S
C53 C54 1.396 . S
C53 C63 1.510 1_545 S
C54 C50 1.401 . S
C54 C53 1.396 . S
C55 C50 1.499 1_556 S
C55 H56 0.959 . S
C55 H57 0.960 . S
C55 H58 0.961 . S
H56 C55 0.959 . S
H57 C55 0.960 . S
H58 C55 0.961 . S
O59 Co34 1.967 . S
O59 C67 1.258 . S
O60 Co35 1.941 . S
O60 C67 1.266 . S
H61 C63 0.959 1_545 S
H62 C63 0.961 . S
C63 C53 1.510 1_565 S
C63 H61 0.959 1_565 S
C63 H62 0.961 . S
C63 H64 0.960 . S
H64 C63 0.960 . S
H65 N45 0.862 . S
O66 Co34 1.920 1_556 S
O66 C39 1.289 . S
C67 O59 1.258 . S
C67 O60 1.266 . S
Co68 O71 1.970 . S
Co68 N85 1.989 . S
Co68 O93 1.967 . S
Co68 O100 1.920 . S
Co69 O72 1.966 . S
Co69 N78 2.022 . S
Co69 N86 1.993 . S
Co69 O94 1.941 . S
C70 O71 1.258 . S
C70 O72 1.263 . S
O71 Co68 1.970 . S
O71 C70 1.258 . S
O72 Co69 1.966 . S
O72 C70 1.263 . S
C73 O74 1.235 . S
C73 O100 1.289 . S
O74 C73 1.235 . S
C75 C77 1.400 . S
C75 N78 1.351 . S
C75 C80 1.501 . S
C76 C77 1.387 . S
C76 N79 1.341 . S
C77 C75 1.400 . S
C77 C76 1.387 . S
N78 Co69 2.022 . S
N78 C75 1.351 . S
N78 N79 1.365 . S
N79 C76 1.341 . S
N79 N78 1.365 . S
N79 H99 0.862 . S
C80 C75 1.501 . S
C80 H81 0.961 . S
C80 H82 0.961 . S
C80 H83 0.960 . S
H81 C80 0.961 . S
H82 C80 0.961 . S
H83 C80 0.960 . S
C84 N85 1.342 . S
C84 C88 1.401 . S
C84 C89 1.499 . S
N85 Co68 1.989 . S
N85 C84 1.342 . S
N85 N86 1.388 . S
N86 Co69 1.993 . S
N86 N85 1.388 . S
N86 C87 1.346 . S
C87 N86 1.346 . S
C87 C88 1.396 . S
C87 C97 1.510 . S
C88 C84 1.401 . S
C88 C87 1.396 . S
C89 C84 1.499 . S
C89 H90 0.959 . S
C89 H91 0.960 . S
C89 H92 0.961 . S
H90 C89 0.959 . S
H91 C89 0.960 . S
H92 C89 0.961 . S
O93 Co68 1.967 . S
O93 C101 1.258 . S
O94 Co69 1.941 . S
O94 C101 1.266 . S
H95 C97 0.959 . S
H96 C97 0.961 . S
C97 C87 1.510 . S
C97 H95 0.959 . S
C97 H96 0.961 . S
C97 H98 0.960 . S
H98 C97 0.960 . S
H99 N79 0.862 . S
O100 Co68 1.920 . S
O100 C73 1.289 . S
C101 O93 1.258 . S
C101 O94 1.266 . S
Co102 O105 1.970 . S
Co102 N119 1.989 . S
Co102 O127 1.967 . S
Co102 O134 1.920 . S
Co103 O106 1.966 . S
Co103 N112 2.022 . S
Co103 N120 1.993 . S
Co103 O128 1.941 . S
C104 O105 1.258 . S
C104 O106 1.263 . S
O105 Co102 1.970 . S
O105 C104 1.258 . S
O106 Co103 1.966 . S
O106 C104 1.263 . S
C107 O108 1.235 . S
C107 O134 1.289 . S
O108 C107 1.235 . S
C109 C111 1.400 . S
C109 N112 1.351 . S
C109 C114 1.501 . S
C110 C111 1.387 . S
C110 N113 1.341 . S
C111 C109 1.400 . S
C111 C110 1.387 . S
N112 Co103 2.022 . S
N112 C109 1.351 . S
N112 N113 1.365 . S
N113 C110 1.341 . S
N113 N112 1.365 . S
N113 H133 0.862 . S
C114 C109 1.501 . S
C114 H115 0.961 . S
C114 H116 0.961 . S
C114 H117 0.960 . S
H115 C114 0.961 . S
H116 C114 0.961 . S
H117 C114 0.960 . S
C118 N119 1.342 . S
C118 C122 1.401 . S
C118 C123 1.499 . S
N119 Co102 1.989 . S
N119 C118 1.342 . S
N119 N120 1.388 . S
N120 Co103 1.993 . S
N120 N119 1.388 . S
N120 C121 1.346 . S
C121 N120 1.346 . S
C121 C122 1.396 . S
C121 C131 1.510 . S
C122 C118 1.401 . S
C122 C121 1.396 . S
C123 C118 1.499 . S
C123 H124 0.959 . S
C123 H125 0.960 . S
C123 H126 0.961 . S
H124 C123 0.959 . S
H125 C123 0.960 . S
H126 C123 0.961 . S
O127 Co102 1.967 . S
O127 C135 1.258 . S
O128 Co103 1.941 . S
O128 C135 1.266 . S
H129 C131 0.959 . S
H130 C131 0.961 . S
C131 C121 1.510 . S
C131 H129 0.959 . S
C131 H130 0.961 . S
C131 H132 0.960 . S
H132 C131 0.960 . S
H133 N113 0.862 . S
O134 Co102 1.920 . S
O134 C107 1.289 . S
C135 O127 1.258 . S
C135 O128 1.266 . S
Co136 O139 1.970 1_545 S
Co136 N153 1.989 . S
Co136 O161 1.967 . S
Co136 O168 1.920 . S
Co137 O140 1.966 1_545 S
Co137 N146 2.022 1_545 S
Co137 N154 1.993 . S
Co137 O162 1.941 . S
C138 O139 1.258 . S
C138 O140 1.263 . S
O139 Co136 1.970 1_565 S
O139 C138 1.258 . S
O140 Co137 1.966 1_565 S
O140 C138 1.263 . S
C141 O142 1.235 1_545 S
C141 O168 1.289 . S
O142 C141 1.235 1_565 S
C143 C145 1.400 . S
C143 N146 1.351 . S
C143 C148 1.501 . S
C144 C145 1.387 . S
C144 N147 1.341 1_565 S
C145 C143 1.400 . S
C145 C144 1.387 . S
N146 Co137 2.022 1_565 S
N146 C143 1.351 . S
N146 N147 1.365 1_565 S
N147 C144 1.341 1_545 S
N147 N146 1.365 1_545 S
N147 H167 0.862 . S
C148 C143 1.501 . S
C148 H149 0.961 . S
C148 H150 0.961 . S
C148 H151 0.960 . S
H149 C148 0.961 . S
H150 C148 0.961 . S
H151 C148 0.960 . S
C152 N153 1.342 . S
C152 C156 1.401 . S
C152 C157 1.499 . S
N153 Co136 1.989 . S
N153 C152 1.342 . S
N153 N154 1.388 . S
N154 Co137 1.993 . S
N154 N153 1.388 . S
N154 C155 1.346 . S
C155 N154 1.346 . S
C155 C156 1.396 . S
C155 C165 1.510 1_545 S
C156 C152 1.401 . S
C156 C155 1.396 . S
C157 C152 1.499 . S
C157 H158 0.959 . S
C157 H159 0.960 . S
C157 H160 0.961 . S
H158 C157 0.959 . S
H159 C157 0.960 . S
H160 C157 0.961 . S
O161 Co136 1.967 . S
O161 C169 1.258 . S
O162 Co137 1.941 . S
O162 C169 1.266 . S
H163 C165 0.959 1_545 S
H164 C165 0.961 . S
C165 C155 1.510 1_565 S
C165 H163 0.959 1_565 S
C165 H164 0.961 . S
C165 H166 0.960 . S
H166 C165 0.960 . S
H167 N147 0.862 . S
O168 Co136 1.920 . S
O168 C141 1.289 . S
C169 O161 1.258 . S
C169 O162 1.266 . S
Co170 O173 1.970 1_545 S
Co170 N187 1.989 . S
Co170 O195 1.967 . S
Co170 O202 1.920 . S
Co171 O174 1.966 1_545 S
Co171 N180 2.022 1_545 S
Co171 N188 1.993 . S
Co171 O196 1.941 . S
C172 O173 1.258 . S
C172 O174 1.263 . S
O173 Co170 1.970 1_565 S
O173 C172 1.258 . S
O174 Co171 1.966 1_565 S
O174 C172 1.263 . S
C175 O176 1.235 1_545 S
C175 O202 1.289 . S
O176 C175 1.235 1_565 S
C177 C179 1.400 . S
C177 N180 1.351 . S
C177 C182 1.501 . S
C178 C179 1.387 . S
C178 N181 1.341 1_565 S
C179 C177 1.400 . S
C179 C178 1.387 . S
N180 Co171 2.022 1_565 S
N180 C177 1.351 . S
N180 N181 1.365 1_565 S
N181 C178 1.341 1_545 S
N181 N180 1.365 1_545 S
N181 H201 0.862 . S
C182 C177 1.501 . S
C182 H183 0.961 . S
C182 H184 0.961 . S
C182 H185 0.960 . S
H183 C182 0.961 . S
H184 C182 0.961 . S
H185 C182 0.960 . S
C186 N187 1.342 . S
C186 C190 1.401 . S
C186 C191 1.499 . S
N187 Co170 1.989 . S
N187 C186 1.342 . S
N187 N188 1.388 . S
N188 Co171 1.993 . S
N188 N187 1.388 . S
N188 C189 1.346 . S
C189 N188 1.346 . S
C189 C190 1.396 . S
C189 C199 1.510 1_545 S
C190 C186 1.401 . S
C190 C189 1.396 . S
C191 C186 1.499 . S
C191 H192 0.959 . S
C191 H193 0.960 . S
C191 H194 0.961 . S
H192 C191 0.959 . S
H193 C191 0.960 . S
H194 C191 0.961 . S
O195 Co170 1.967 . S
O195 C203 1.258 . S
O196 Co171 1.941 . S
O196 C203 1.266 . S
H197 C199 0.959 1_545 S
H198 C199 0.961 . S
C199 C189 1.510 1_565 S
C199 H197 0.959 1_565 S
C199 H198 0.961 . S
C199 H200 0.960 . S
H200 C199 0.960 . S
H201 N181 0.862 . S
O202 Co170 1.920 . S
O202 C175 1.289 . S
C203 O195 1.258 . S
C203 O196 1.266 . S
Co204 O207 1.970 . S
Co204 N221 1.989 . S
Co204 O229 1.967 . S
Co204 O236 1.920 . S
Co205 O208 1.957 1_556 S
Co205 N214 2.044 . S
Co205 N222 1.984 1_556 S
Co205 O230 1.941 . S
C206 O207 1.258 . S
C206 O208 1.263 . S
O207 Co204 1.970 . S
O207 C206 1.258 . S
O208 Co205 1.957 1_554 S
O208 C206 1.263 . S
C209 O210 1.235 . S
C209 O236 1.289 . S
O210 C209 1.235 . S
C211 C213 1.400 . S
C211 N214 1.351 . S
C211 C216 1.501 . S
C212 C213 1.387 . S
C212 N215 1.341 . S
C213 C211 1.400 . S
C213 C212 1.387 . S
N214 Co205 2.044 . S
N214 C211 1.351 . S
N214 N215 1.365 . S
N215 C212 1.341 . S
N215 N214 1.365 . S
N215 H235 0.862 . S
C216 C211 1.501 . S
C216 H217 0.961 . S
C216 H218 0.961 . S
C216 H219 0.960 . S
H217 C216 0.961 . S
H218 C216 0.961 . S
H219 C216 0.960 . S
C220 N221 1.342 . S
C220 C224 1.401 . S
C220 C225 1.499 . S
N221 Co204 1.989 . S
N221 C220 1.342 . S
N221 N222 1.388 . S
N222 Co205 1.984 1_554 S
N222 N221 1.388 . S
N222 C223 1.346 . S
C223 N222 1.346 . S
C223 C224 1.396 . S
C223 C233 1.510 1_554 S
C224 C220 1.401 . S
C224 C223 1.396 . S
C225 C220 1.499 . S
C225 H226 0.959 . S
C225 H227 0.960 . S
C225 H228 0.961 . S
H226 C225 0.959 . S
H227 C225 0.960 . S
H228 C225 0.961 . S
O229 Co204 1.967 . S
O229 C237 1.258 . S
O230 Co205 1.941 . S
O230 C237 1.252 1_556 S
H231 C233 0.959 . S
H232 C233 0.961 . S
C233 C223 1.510 1_556 S
C233 H231 0.959 . S
C233 H232 0.961 . S
C233 H234 0.960 . S
H234 C233 0.960 . S
H235 N215 0.862 . S
O236 Co204 1.920 . S
O236 C209 1.289 . S
C237 O229 1.258 . S
C237 O230 1.252 1_554 S
Co238 O241 1.970 . S
Co238 N255 1.989 . S
Co238 O263 1.967 . S
Co238 O270 1.920 1_554 S
Co239 O242 1.966 . S
Co239 N248 2.022 . S
Co239 N256 1.993 . S
Co239 O264 1.941 . S
C240 O241 1.258 . S
C240 O242 1.263 . S
O241 Co238 1.970 . S
O241 C240 1.258 . S
O242 Co239 1.966 . S
O242 C240 1.263 . S
C243 O244 1.235 . S
C243 O270 1.289 . S
O244 C243 1.235 . S
C245 C247 1.400 . S
C245 N248 1.351 . S
C245 C250 1.501 . S
C246 C247 1.387 . S
C246 N249 1.341 . S
C247 C245 1.400 . S
C247 C246 1.387 . S
N248 Co239 2.022 . S
N248 C245 1.351 . S
N248 N249 1.365 . S
N249 C246 1.341 . S
N249 N248 1.365 . S
N249 H269 0.862 . S
C250 C245 1.501 . S
C250 H251 0.961 . S
C250 H252 0.961 . S
C250 H253 0.960 . S
H251 C250 0.961 . S
H252 C250 0.961 . S
H253 C250 0.960 . S
C254 N255 1.342 . S
C254 C258 1.401 . S
C254 C259 1.499 1_554 S
N255 Co238 1.989 . S
N255 C254 1.342 . S
N255 N256 1.388 . S
N256 Co239 1.993 . S
N256 N255 1.388 . S
N256 C257 1.346 . S
C257 N256 1.346 . S
C257 C258 1.396 . S
C257 C267 1.510 . S
C258 C254 1.401 . S
C258 C257 1.396 . S
C259 C254 1.499 1_556 S
C259 H260 0.959 . S
C259 H261 0.960 . S
C259 H262 0.961 . S
H260 C259 0.959 . S
H261 C259 0.960 . S
H262 C259 0.961 . S
O263 Co238 1.967 . S
O263 C271 1.258 . S
O264 Co239 1.941 . S
O264 C271 1.266 . S
H265 C267 0.959 . S
H266 C267 0.961 . S
C267 C257 1.510 . S
C267 H265 0.959 . S
C267 H266 0.961 . S
C267 H268 0.960 . S
H268 C267 0.960 . S
H269 N249 0.862 . S
O270 Co238 1.920 1_556 S
O270 C243 1.289 . S
C271 O263 1.258 . S
C271 O264 1.266 . S
C272 C273 1.387 . S
C272 H276 0.950 . S
C272 C281 1.390 . S
C273 C272 1.387 . S
C273 C275 1.387 . S
H274 C281 0.950 . S
C275 C273 1.387 . S
C275 C277 1.390 . S
C275 H279 0.950 . S
H276 C272 0.950 . S
C277 C275 1.390 . S
C277 C278 1.387 . S
C277 H280 0.950 . S
C278 C277 1.387 . S
C278 C281 1.387 . S
H279 C275 0.950 . S
H280 C277 0.950 . S
C281 C272 1.390 . S
C281 H274 0.950 . S
C281 C278 1.387 . S
C282 C283 1.387 . S
C282 H286 0.950 . S
C282 C291 1.390 . S
C283 C282 1.387 . S
C283 C285 1.387 . S
H284 C291 0.950 . S
C285 C283 1.387 . S
C285 C287 1.390 . S
C285 H289 0.950 . S
H286 C282 0.950 . S
C287 C285 1.390 . S
C287 C288 1.387 . S
C287 H290 0.950 . S
C288 C287 1.387 . S
C288 C291 1.387 . S
H289 C285 0.950 . S
H290 C287 0.950 . S
C291 C282 1.390 . S
C291 H284 0.950 . S
C291 C288 1.387 . S
C292 C293 1.387 . S
C292 H296 0.950 . S
C292 C301 1.390 . S
C293 C292 1.387 . S
C293 C295 1.387 . S
H294 C301 0.950 . S
C295 C293 1.387 . S
C295 C297 1.390 . S
C295 H299 0.950 . S
H296 C292 0.950 . S
C297 C295 1.390 . S
C297 C298 1.387 . S
C297 H300 0.950 . S
C298 C297 1.387 . S
C298 C301 1.387 . S
H299 C295 0.950 . S
H300 C297 0.950 . S
C301 C292 1.390 . S
C301 H294 0.950 . S
C301 C298 1.387 . S
C302 C303 1.387 . S
C302 H306 0.950 . S
C302 C311 1.390 . S
C303 C302 1.387 . S
C303 C305 1.387 . S
H304 C311 0.950 . S
C305 C303 1.387 . S
C305 C307 1.390 . S
C305 H309 0.950 . S
H306 C302 0.950 . S
C307 C305 1.390 . S
C307 C308 1.387 . S
C307 H310 0.950 . S
C308 C307 1.387 . S
C308 C311 1.387 . S
H309 C305 0.950 . S
H310 C307 0.950 . S
C311 C302 1.390 . S
C311 H304 0.950 . S
C311 C308 1.387 . S
C312 C313 1.387 . S
C312 H316 0.950 . S
C312 C321 1.390 . S
C313 C312 1.387 . S
C313 C315 1.387 . S
H314 C321 0.950 . S
C315 C313 1.387 . S
C315 C317 1.390 . S
C315 H319 0.950 . S
H316 C312 0.950 . S
C317 C315 1.390 . S
C317 C318 1.387 . S
C317 H320 0.950 . S
C318 C317 1.387 . S
C318 C321 1.387 . S
H319 C315 0.950 . S
H320 C317 0.950 . S
C321 C312 1.390 . S
C321 H314 0.950 . S
C321 C318 1.387 . S
C322 C323 1.387 . S
C322 H326 0.950 . S
C322 C331 1.390 . S
C323 C322 1.387 . S
C323 C325 1.387 . S
H324 C331 0.950 . S
C325 C323 1.387 . S
C325 C327 1.390 . S
C325 H329 0.950 . S
H326 C322 0.950 . S
C327 C325 1.390 . S
C327 C328 1.387 . S
C327 H330 0.950 . S
C328 C327 1.387 . S
C328 C331 1.387 . S
H329 C325 0.950 . S
H330 C327 0.950 . S
C331 C322 1.390 . S
C331 H324 0.950 . S
C331 C328 1.387 . S
C332 C333 1.387 . S
C332 H336 0.950 . S
C332 C341 1.390 . S
C333 C332 1.387 . S
C333 C335 1.387 . S
H334 C341 0.950 . S
C335 C333 1.387 . S
C335 C337 1.390 . S
C335 H339 0.950 . S
H336 C332 0.950 . S
C337 C335 1.390 . S
C337 C338 1.387 . S
C337 H340 0.950 . S
C338 C337 1.387 . S
C338 C341 1.387 . S
H339 C335 0.950 . S
H340 C337 0.950 . S
C341 C332 1.390 . S
C341 H334 0.950 . S
C341 C338 1.387 . S
C342 C343 1.387 . S
C342 H346 0.950 . S
C342 C351 1.390 . S
C343 C342 1.387 . S
C343 C345 1.387 . S
H344 C351 0.950 . S
C345 C343 1.387 . S
C345 C347 1.390 . S
C345 H349 0.950 . S
H346 C342 0.950 . S
C347 C345 1.390 . S
C347 C348 1.387 . S
C347 H350 0.950 . S
C348 C347 1.387 . S
C348 C351 1.387 . S
H349 C345 0.950 . S
H350 C347 0.950 . S
C351 C342 1.390 . S
C351 H344 0.950 . S
C351 C348 1.387 . S
C352 C353 1.387 . S
C352 H356 0.950 . S
C352 C361 1.390 . S
C353 C352 1.387 . S
C353 C355 1.387 1_545 S
H354 C361 0.950 . S
C355 C353 1.387 1_565 S
C355 C357 1.390 . S
C355 H359 0.950 . S
H356 C352 0.950 . S
C357 C355 1.390 . S
C357 C358 1.387 1_565 S
C357 H360 0.950 . S
C358 C357 1.387 1_545 S
C358 C361 1.387 . S
H359 C355 0.950 . S
H360 C357 0.950 . S
C361 C352 1.390 . S
C361 H354 0.950 . S
C361 C358 1.387 . S
C362 C363 1.387 . S
C362 H366 0.950 . S
C362 C371 1.390 . S
C363 C362 1.387 . S
C363 C365 1.387 . S
H364 C371 0.950 . S
C365 C363 1.387 . S
C365 C367 1.390 . S
C365 H369 0.950 . S
H366 C362 0.950 . S
C367 C365 1.390 . S
C367 C368 1.387 . S
C367 H370 0.950 . S
C368 C367 1.387 . S
C368 C371 1.387 . S
H369 C365 0.950 . S
H370 C367 0.950 . S
C371 C362 1.390 . S
C371 H364 0.950 . S
C371 C368 1.387 . S
C372 C373 1.387 1_565 S
C372 H376 0.950 . S
C372 C381 1.390 1_455 S
C373 C372 1.387 1_545 S
C373 C375 1.387 . S
H374 C381 0.950 . S
C375 C373 1.387 . S
C375 C377 1.390 1_455 S
C375 H379 0.950 . S
H376 C372 0.950 . S
C377 C375 1.390 1_655 S
C377 C378 1.387 . S
C377 H380 0.950 . S
C378 C377 1.387 . S
C378 C381 1.387 1_545 S
H379 C375 0.950 . S
H380 C377 0.950 . S
C381 C372 1.390 1_655 S
C381 H374 0.950 . S
C381 C378 1.387 1_565 S
C382 C383 1.387 . S
C382 H386 0.950 . S
C382 C391 1.390 1_655 S
C383 C382 1.387 . S
C383 C385 1.387 . S
H384 C391 0.950 . S
C385 C383 1.387 . S
C385 C387 1.390 1_655 S
C385 H389 0.950 . S
H386 C382 0.950 . S
C387 C385 1.390 1_455 S
C387 C388 1.387 . S
C387 H390 0.950 . S
C388 C387 1.387 . S
C388 C391 1.387 . S
H389 C385 0.950 . S
H390 C387 0.950 . S
C391 C382 1.390 1_455 S
C391 H384 0.950 . S
C391 C388 1.387 . S
C392 C393 1.387 . S
C392 H396 0.950 . S
C392 C401 1.390 . S
C393 C392 1.387 . S
C393 C395 1.387 . S
H394 C401 0.950 . S
C395 C393 1.387 . S
C395 C397 1.390 . S
C395 H399 0.950 . S
H396 C392 0.950 . S
C397 C395 1.390 . S
C397 C398 1.387 . S
C397 H400 0.950 . S
C398 C397 1.387 . S
C398 C401 1.387 . S
H399 C395 0.950 . S
H400 C397 0.950 . S
C401 C392 1.390 . S
C401 H394 0.950 . S
C401 C398 1.387 . S
C402 C403 1.387 . S
C402 H406 0.950 1_554 S
C402 C411 1.390 . S
C403 C402 1.387 . S
C403 C405 1.387 . S
H404 C411 0.950 . S
C405 C403 1.387 . S
C405 C407 1.390 . S
C405 H409 0.950 . S
H406 C402 0.950 1_556 S
C407 C405 1.390 . S
C407 C408 1.387 . S
C407 H410 0.950 . S
C408 C407 1.387 . S
C408 C411 1.387 . S
H409 C405 0.950 . S
H410 C407 0.950 . S
C411 C402 1.390 . S
C411 H404 0.950 . S
C411 C408 1.387 . S
C412 C413 1.387 . S
C412 H416 0.950 . S
C412 C421 1.390 . S
C413 C412 1.387 . S
C413 C415 1.387 . S
H414 C421 0.950 . S
C415 C413 1.387 . S
C415 C417 1.390 . S
C415 H419 0.950 . S
H416 C412 0.950 . S
C417 C415 1.390 . S
C417 C418 1.387 . S
C417 H420 0.950 . S
C418 C417 1.387 . S
C418 C421 1.387 . S
H419 C415 0.950 . S
H420 C417 0.950 . S
C421 C412 1.390 . S
C421 H414 0.950 . S
C421 C418 1.387 . S
C422 C423 1.387 . S
C422 H426 0.950 . S
C422 C431 1.390 . S
C423 C422 1.387 . S
C423 C425 1.387 . S
H424 C431 0.950 . S
C425 C423 1.387 . S
C425 C427 1.390 . S
C425 H429 0.950 . S
H426 C422 0.950 . S
C427 C425 1.390 . S
C427 C428 1.387 . S
C427 H430 0.950 . S
C428 C427 1.387 . S
C428 C431 1.387 . S
H429 C425 0.950 . S
H430 C427 0.950 . S
C431 C422 1.390 . S
C431 H424 0.950 . S
C431 C428 1.387 . S
C432 C433 1.387 . S
C432 H436 0.950 . S
C432 C441 1.390 . S
C433 C432 1.387 . S
C433 C435 1.387 . S
H434 C441 0.950 . S
C435 C433 1.387 . S
C435 C437 1.390 . S
C435 H439 0.950 . S
H436 C432 0.950 . S
C437 C435 1.390 . S
C437 C438 1.387 . S
C437 H440 0.950 . S
C438 C437 1.387 . S
C438 C441 1.387 . S
H439 C435 0.950 . S
H440 C437 0.950 . S
C441 C432 1.390 . S
C441 H434 0.950 . S
C441 C438 1.387 . S
C442 C443 1.387 . S
C442 H446 0.950 . S
C442 C451 1.390 . S
C443 C442 1.387 . S
C443 C445 1.387 . S
H444 C451 0.950 . S
C445 C443 1.387 . S
C445 C447 1.390 . S
C445 H449 0.950 . S
H446 C442 0.950 . S
C447 C445 1.390 . S
C447 C448 1.387 . S
C447 H450 0.950 . S
C448 C447 1.387 . S
C448 C451 1.387 . S
H449 C445 0.950 . S
H450 C447 0.950 . S
C451 C442 1.390 . S
C451 H444 0.950 . S
C451 C448 1.387 . S
C452 C453 1.387 . S
C452 H456 0.950 . S
C452 C461 1.390 . S
C453 C452 1.387 . S
C453 C455 1.387 . S
H454 C461 0.950 . S
C455 C453 1.387 . S
C455 C457 1.390 . S
C455 H459 0.950 . S
H456 C452 0.950 . S
C457 C455 1.390 . S
C457 C458 1.387 . S
C457 H460 0.950 . S
C458 C457 1.387 . S
C458 C461 1.387 . S
H459 C455 0.950 . S
H460 C457 0.950 . S
C461 C452 1.390 . S
C461 H454 0.950 . S
C461 C458 1.387 . S
C462 C463 1.387 . S
C462 H466 0.950 . S
C462 C471 1.390 . S
C463 C462 1.387 . S
C463 C465 1.387 . S
H464 C471 0.950 . S
C465 C463 1.387 . S
C465 C467 1.390 . S
C465 H469 0.950 . S
H466 C462 0.950 . S
C467 C465 1.390 . S
C467 C468 1.387 . S
C467 H470 0.950 . S
C468 C467 1.387 . S
C468 C471 1.387 . S
H469 C465 0.950 . S
H470 C467 0.950 . S
C471 C462 1.390 . S
C471 H464 0.950 . S
C471 C468 1.387 . S
C273 C77 1.554 . S
C278 C5 1.575 . S
C283 C43 1.552 . S
C288 C107 1.576 . S
C293 C73 1.575 . S
C298 C9 1.554 . S
C303 C111 1.554 . S
C308 C39 1.575 . S
C313 C141 1.576 . S
C318 C213 1.552 . S
C323 C243 1.576 . S
C328 C179 1.552 . S
C333 C145 1.552 . S
C338 C209 1.576 . S
C343 C175 1.575 . S
C348 C247 1.554 . S
C353 C54 1.467 . S
C358 C20 1.467 . S
C363 C88 1.466 . S
C368 C122 1.466 . S
C373 C190 1.466 . S
C378 C156 1.466 . S
C383 C224 1.467 . S
C388 C258 1.467 . S
C393 C240 1.103 . S
C398 C33 1.065 . S
C403 C237 1.066 . S
C408 C36 1.104 . S
C413 C271 1.066 . S
C418 C2 1.104 . S
C423 C67 1.067 . S
C428 C206 1.105 . S
C433 C172 1.104 . S
C438 C101 1.065 . S
C443 C104 1.103 . S
C448 C169 1.065 . S
C453 C203 1.063 . S
C458 C70 1.101 . S
C463 C135 1.063 . S
C468 C138 1.101 . S
