# Generated by pormake.
# Topology bsn, (6)-cn, num edge types: 1
# Building blocks:
#     Node 0, Type 0, BuildingBlock: UKALOJ_clean_sbu_0, # of connection points: 6
#     Node 1, Type 0, BuildingBlock: UKALOJ_clean_sbu_0, # of connection points: 6
#     Node 2, Type 0, BuildingBlock: UKALOJ_clean_sbu_0, # of connection points: 6
#     Node 3, Type 0, BuildingBlock: UKALOJ_clean_sbu_0, # of connection points: 6
#     Edge 4, Type (0, 0), BuildingBlock: AJUNOK_clean_linker_0, # of connection points: 2
#     Edge 5, Type (0, 0), BuildingBlock: AJUNOK_clean_linker_0, # of connection points: 2
#     Edge 6, Type (0, 0), BuildingBlock: AJUNOK_clean_linker_0, # of connection points: 2
#     Edge 7, Type (0, 0), BuildingBlock: AJUNOK_clean_linker_0, # of connection points: 2
#     Edge 8, Type (0, 0), BuildingBlock: AJUNOK_clean_linker_0, # of connection points: 2
#     Edge 9, Type (0, 0), BuildingBlock: AJUNOK_clean_linker_0, # of connection points: 2
#     Edge 10, Type (0, 0), BuildingBlock: AJUNOK_clean_linker_0, # of connection points: 2
#     Edge 11, Type (0, 0), BuildingBlock: AJUNOK_clean_linker_0, # of connection points: 2
#     Edge 12, Type (0, 0), BuildingBlock: AJUNOK_clean_linker_0, # of connection points: 2
#     Edge 13, Type (0, 0), BuildingBlock: AJUNOK_clean_linker_0, # of connection points: 2
#     Edge 14, Type (0, 0), BuildingBlock: AJUNOK_clean_linker_0, # of connection points: 2
#     Edge 15, Type (0, 0), BuildingBlock: AJUNOK_clean_linker_0, # of connection points: 2
# Relax obj value: 0.215
# Max RMSD: 0.164
# Mean RMSD: 0.146
data_MOF--net-bsn--node1-UKALOJ_clean_sbu_0--edge1-AJUNOK_clean_linker_0
_symmetry_space_group_name_H-M    P1
_symmetry_Int_Tables_number       1
_symmetry_cell_setting            triclinic
loop_
_symmetry_equiv_pos_as_xyz
'x, y, z'
_cell_length_a     23.06009
_cell_length_b     28.350161
_cell_length_c     11.338826
_cell_angle_alpha  90.514753
_cell_angle_beta   95.441461
_cell_angle_gamma 89.744823
loop_
_atom_site_label
_atom_site_type_symbol
_atom_site_fract_x
_atom_site_fract_y
_atom_site_fract_z
_atom_type_partial_charge
Zn0 Zn 0.052 0.33714 0.31466 0.0
O1 O 0.95794 0.34219 0.30876 0.0
C2 C 0.0561 0.2925 0.55834 0.0
Zn3 Zn 0.05249 0.25612 0.31498 0.0
C4 C 0.93028 0.30318 0.30867 0.0
O5 O 0.95921 0.26468 0.30913 0.0
C6 C 0.17431 0.29 0.32187 0.0
O7 O 0.04864 0.26182 0.12972 0.0
O8 O 0.04827 0.33937 0.12599 0.0
N9 N 1.03969 0.18215 0.29335 0.0
C10 C 0.06024 0.14089 0.34206 0.0
C11 C 0.99305 0.12299 0.20771 0.0
N12 N 0.99818 0.17026 0.20977 0.0
N13 N 1.03127 0.10309 0.29002 0.0
C14 C 1.03997 0.45165 0.28759 0.0
C15 C 0.11024 0.47209 0.41252 0.0
N16 N 0.06411 0.41126 0.33447 0.0
N17 N 0.1076 0.42465 0.41201 0.0
N18 N 0.0682 0.49055 0.33571 0.0
H19 H 0.9939 0.42105 0.13205 0.0
H20 H 0.99208 0.48507 0.1381 0.0
H21 H 0.94915 0.45051 0.23061 0.0
C22 C 0.9912 0.45231 0.19073 0.0
C23 C 0.10673 0.138 0.44299 0.0
H24 H 0.11339 0.17278 0.48762 0.0
H25 H 0.14818 0.12697 0.4085 0.0
H26 H 0.09515 0.11111 0.50726 0.0
O27 O 0.14658 0.251 0.32135 0.0
O28 O 0.1454 0.32854 0.32089 0.0
C29 C 0.0476 0.29986 0.07104 0.0
O30 O 0.05576 0.3313 0.50234 0.0
O31 O 0.05596 0.25361 0.50101 0.0
Zn32 Zn 0.99947 0.79552 0.30343 0.0
O33 O 1.00298 0.71876 0.29521 0.0
C34 C 0.05016 0.79545 0.55749 0.0
Zn35 Zn 0.09512 0.79791 0.32343 0.0
C36 C 0.05119 0.69651 0.30584 0.0
O37 O 0.09787 0.7207 0.31939 0.0
C38 C 0.04301 0.89688 0.318 0.0
O39 O 0.0928 0.79859 0.13796 0.0
O40 O 0.99709 0.79642 0.11553 0.0
N41 N 0.18291 0.79906 0.34077 0.0
C42 C 0.21949 0.8203 0.42438 0.0
C43 C 0.26854 0.76876 0.3383 0.0
N44 N 0.2136 0.76749 0.28612 0.0
N45 N 0.2731 0.80177 0.42476 0.0
C46 C 0.88045 0.77107 0.37953 0.0
C47 C 0.82764 0.82741 0.30681 0.0
N48 N 0.91143 0.79383 0.30252 0.0
N49 N 0.87817 0.82841 0.25598 0.0
N50 N 0.82806 0.79158 0.38413 0.0
H51 H 0.94897 0.72352 0.45757 0.0
H52 H 0.87652 0.70112 0.44867 0.0
H53 H 0.89903 0.74503 0.5571 0.0
C54 C 0.90334 0.7333 0.46467 0.0
C55 C 0.2028 0.85582 0.51443 0.0
H56 H 0.1569 0.86703 0.50036 0.0
H57 H 0.23087 0.88738 0.51119 0.0
H58 H 0.21144 0.84093 0.60452 0.0
O59 O 0.09172 0.87522 0.32475 0.0
O60 O 0.99678 0.87212 0.30813 0.0
C61 C 0.04561 0.79724 0.07021 0.0
O62 O 1.00277 0.79607 0.49159 0.0
O63 O 0.09739 0.7957 0.50944 0.0
Zn64 Zn 0.59124 0.83117 0.80415 0.0
O65 O 0.50033 0.83823 0.78071 0.0
C66 C 0.58965 0.79205 0.04715 0.0
Zn67 Zn 0.57944 0.75404 0.80039 0.0
C68 C 0.46732 0.80253 0.76995 0.0
O69 O 0.4895 0.7618 0.78348 0.0
C70 C 0.70136 0.78232 0.79251 0.0
O71 O 0.57674 0.75468 0.61253 0.0
O72 O 0.59185 0.83137 0.61758 0.0
N73 N 0.57133 0.68292 0.80355 0.0
C74 C 0.54146 0.65681 0.87577 0.0
C75 C 0.60229 0.6111 0.80211 0.0
N76 N 0.60866 0.65433 0.75655 0.0
N77 N 0.56023 0.61189 0.87671 0.0
C78 C 0.57212 0.93236 0.88339 0.0
C79 C 0.65335 0.96464 0.85932 0.0
N80 N 0.60183 0.9023 0.8185 0.0
N81 N 0.65209 0.9226 0.80258 0.0
N82 N 0.60402 0.97112 0.91225 0.0
H83 H 0.48164 0.92071 0.83169 0.0
H84 H 0.49444 0.95519 -0.03647 0.0
H85 H 0.50861 0.89239 -0.03221 0.0
C86 C 0.51095 0.92476 0.9144 0.0
C87 C 0.4943 0.67454 0.94822 0.0
H88 H 0.49159 0.71325 0.9531 0.0
H89 H 0.50042 0.6607 0.03963 0.0
H90 H 0.45188 0.6609 0.90789 0.0
O91 O 0.66972 0.74655 0.80497 0.0
O92 O 0.68137 0.8229 0.81442 0.0
C93 C 0.58516 0.79296 0.55876 0.0
O94 O 0.59282 0.83045 -0.00806 0.0
O95 O 0.58389 0.75388 -0.01149 0.0
Zn96 Zn 0.55365 0.25759 0.3222 0.0
O97 O 0.55815 0.25956 0.5088 0.0
C98 C 0.43039 0.2928 0.31476 0.0
Zn99 Zn 0.55204 0.33538 0.32371 0.0
C100 C 0.55777 0.29807 0.56706 0.0
O101 O 0.55544 0.33701 0.51176 0.0
C102 C 0.5492 0.29459 0.07848 0.0
O103 O 0.64646 0.33829 0.33413 0.0
O104 O 0.64725 0.26135 0.3283 0.0
N105 N 0.54624 0.40678 0.31496 0.0
C106 C 0.56669 0.43581 0.23532 0.0
C107 C 0.50694 0.47562 0.3289 0.0
N108 N 0.50947 0.43167 0.37399 0.0
N109 N 0.54263 0.47879 0.24209 0.0
C110 C 0.54232 0.15464 0.24026 0.0
C111 C 0.60675 0.12058 0.35718 0.0
N112 N 0.56112 0.18635 0.32408 0.0
N113 N 0.60063 0.16499 0.39774 0.0
N114 N 0.57073 0.11339 0.25815 0.0
H115 H 0.4667 0.19254 0.16235 0.0
H116 H 0.47045 0.13102 0.12 0.0
H117 H 0.51663 0.1731 0.05943 0.0
C118 C 0.49619 0.16357 0.14036 0.0
C119 C 0.60761 0.42232 0.14496 0.0
H120 H 0.63329 0.39046 0.16979 0.0
H121 H 0.63783 0.45189 0.133 0.0
H122 H 0.58224 0.41591 0.05831 0.0
O123 O 0.54745 0.3331 0.1355 0.0
O124 O 0.55078 0.25628 0.13523 0.0
C125 C 0.67528 0.29997 0.33142 0.0
O126 O 0.45938 0.25439 0.31651 0.0
O127 O 0.45828 0.33151 0.31519 0.0
C128 C 0.11041 0.56952 0.30654 0.0
C129 C 0.0609 0.54099 0.31422 0.0
C130 C 0.10666 0.61918 0.30168 0.0
C131 C 0.05311 0.64318 0.30476 0.0
H132 H 0.15292 0.55315 0.30637 0.0
H133 H 0.14648 0.63892 0.29711 0.0
S134 S 0.91019 0.58546 0.32976 0.0
N135 N 0.95665 0.54097 0.32914 0.0
N136 N 0.94893 0.63368 0.31679 0.0
C137 C 1.00294 0.61502 0.31099 0.0
C138 C 1.00695 0.56428 0.31659 0.0
C139 C 0.7745 0.82066 0.67688 0.0
C140 C 0.74341 0.77977 0.70154 0.0
C141 C 0.79984 0.82518 0.57016 0.0
C142 C 0.79476 0.78918 0.48408 0.0
H143 H 0.77716 0.85024 0.73829 0.0
H144 H 0.82402 0.85685 0.55481 0.0
S145 S 0.72235 0.67406 0.50507 0.0
N146 N 0.71292 0.70109 0.63137 0.0
N147 N 0.75952 0.71109 0.43005 0.0
C148 C 0.76578 0.74776 0.50811 0.0
C149 C 0.74078 0.74253 0.61732 0.0
C150 C 0.5167 0.50562 0.03904 0.0
C151 C 0.54248 0.51464 0.15453 0.0
C152 C 0.52281 0.53746 0.94739 0.0
C153 C 0.55486 0.57891 -0.03056 0.0
H154 H 0.49278 0.47324 0.01967 0.0
H155 H 0.5027 0.52977 0.85914 0.0
S156 S 0.63056 0.6183 0.25586 0.0
N157 N 0.60064 0.56745 0.28599 0.0
N158 N 0.61271 0.62751 0.11332 0.0
C159 C 0.5805 0.58835 0.08456 0.0
C160 C 0.57394 0.55617 0.17759 0.0
C161 C 0.83241 0.34377 0.32054 0.0
C162 C 0.86514 0.30187 0.31233 0.0
C163 C 0.77155 0.34292 0.32758 0.0
C164 C 0.74035 0.30013 0.32698 0.0
H165 H 0.85396 0.37767 0.32205 0.0
H166 H 0.74879 0.37624 0.33333 0.0
S167 S 0.80471 0.18018 0.30489 0.0
N168 N 0.86068 0.21607 0.30256 0.0
N169 N 0.74757 0.21458 0.31598 0.0
C170 C 0.77254 0.25798 0.31834 0.0
C171 C 0.83435 0.25883 0.31097 0.0
C172 C 0.33393 0.24997 0.31774 0.0
C173 C 0.36506 0.2927 0.3152 0.0
C174 C 0.27276 0.24925 0.32044 0.0
C175 C 0.23962 0.29123 0.32082 0.0
H176 H 0.35697 0.21659 0.3179 0.0
H177 H 0.25134 0.21538 0.32215 0.0
S178 S 0.2995 0.41284 0.31428 0.0
N179 N 0.35717 0.3783 0.3128 0.0
N180 N 0.24351 0.37705 0.31795 0.0
C181 C 0.27029 0.33422 0.31815 0.0
C182 C 0.33241 0.33493 0.31529 0.0
C183 C 0.39657 0.84609 0.63224 0.0
C184 C 0.40885 0.80693 0.7065 0.0
C185 C 0.35147 0.84451 0.54066 0.0
C186 C 0.3175 0.80392 0.5212 0.0
H187 H 0.42453 0.87679 0.6388 0.0
H188 H 0.34446 0.87428 0.48177 0.0
S189 S 0.3229 0.6966 0.70506 0.0
N190 N 0.37692 0.72957 0.76526 0.0
N191 N 0.29196 0.72712 0.59249 0.0
C192 C 0.32558 0.76646 0.60069 0.0
C193 C 0.3712 0.76796 0.69408 0.0
C194 C 0.60166 0.0541 -0.02564 0.0
C195 C 0.59497 1.00634 0.00026 0.0
C196 C 0.59324 0.08892 0.05922 0.0
C197 C 0.57756 0.07706 0.17206 0.0
H198 H 0.61335 0.06442 0.88801 0.0
H199 H 0.6001 0.12536 0.03763 0.0
S200 S 0.56023 0.95709 0.28758 0.0
N201 N 0.57705 0.94863 0.15049 0.0
N202 N 0.55898 1.01483 0.30804 0.0
C203 C 0.57249 1.02953 0.20037 0.0
C204 C 0.58166 0.99393 0.11473 0.0
C205 C 0.09104 0.97803 0.32332 0.0
C206 C 1.04001 0.95022 0.32007 0.0
C207 C 0.08864 1.02803 0.31942 0.0
C208 C 1.03509 0.05253 0.31245 0.0
H209 H 0.1333 0.96105 0.32622 0.0
H210 H 0.12879 0.04743 0.31694 0.0
S211 S 0.88903 0.99772 0.31094 0.0
N212 N 0.93433 0.95238 0.31619 0.0
N213 N 0.93021 1.04513 0.30917 0.0
C214 C 0.98411 1.02529 0.31295 0.0
C215 C 0.98643 0.97468 0.31689 0.0
C216 C 0.05797 0.33817 0.87543 0.0
C217 C 0.04799 0.29738 0.94009 0.0
C218 C 0.06105 0.33612 0.75249 0.0
C219 C 0.0543 0.29319 0.689 0.0
H220 H 0.06408 0.37197 0.92008 0.0
H221 H 0.06898 0.36858 0.70708 0.0
S222 S 1.02459 0.17632 0.81548 0.0
N223 N 1.02944 0.21275 0.93023 0.0
N224 N 1.03544 0.20905 0.7001 0.0
C225 C 0.04376 0.25216 0.75238 0.0
C226 C 0.04049 0.25423 0.87746 0.0
C227 C 0.99806 0.80399 0.74052 0.0
C228 C 0.05001 0.79488 0.68814 0.0
C229 C 0.9969 0.80449 0.86393 0.0
C230 C 0.04768 0.79607 0.93986 0.0
H231 H 0.95792 0.81126 0.68595 0.0
H232 H 0.95595 0.81204 0.8999 0.0
S233 S 0.19424 0.76712 0.84714 0.0
N234 N 0.15289 0.7747 0.72184 0.0
N235 N 0.15105 0.77622 0.95315 0.0
C236 C 0.0998 0.7862 0.88852 0.0
C237 C 0.10088 0.78546 0.76293 0.0
C238 C 0.5594 0.75783 0.23418 0.0
C239 C 0.59119 0.79181 0.17782 0.0
C240 C 0.55798 0.75822 0.35759 0.0
C241 C 0.58834 0.79258 0.42902 0.0
H242 H 0.53443 0.73132 0.18242 0.0
H243 H 0.53207 0.73192 0.39703 0.0
S244 S 0.68706 0.88345 0.32679 0.0
N245 N 0.65952 0.85693 0.20389 0.0
N246 N 0.65697 0.85766 0.43577 0.0
C247 C 0.62243 0.8254 0.37422 0.0
C248 C 0.62382 0.82502 0.24863 0.0
C249 C 0.53524 0.33552 0.75861 0.0
C250 C 0.55784 0.29717 0.69771 0.0
C251 C 0.53224 0.33428 0.88159 0.0
C252 C 0.55192 0.29472 0.94837 0.0
H253 H 0.51872 0.36643 0.71073 0.0
H254 H 0.51374 0.36437 0.92434 0.0
S255 S 0.62092 0.18739 0.83277 0.0
N256 N 0.60371 0.21982 0.71445 0.0
N257 N 0.59915 0.21787 0.9453 0.0
C258 C 0.57605 0.25668 0.88887 0.0
C259 C 0.57877 0.25783 0.76372 0.0
loop_
_geom_bond_atom_site_label_1
_geom_bond_atom_site_label_2
_geom_bond_distance
_geom_bond_site_symmetry_2
_ccdc_geom_bond_type
Zn0 O1 2.055 1_455 S
Zn0 O8 2.046 . S
Zn0 N16 2.036 . S
Zn0 O28 2.053 . S
Zn0 O30 2.066 . S
O1 Zn0 2.055 1_655 S
O1 C4 1.259 . S
C2 O30 1.256 . S
C2 O31 1.244 . S
Zn3 O5 2.046 1_455 S
Zn3 O7 2.055 . S
Zn3 N9 2.036 . S
Zn3 O27 2.066 . S
Zn3 O31 2.053 . S
C4 O1 1.259 . S
C4 O5 1.254 . S
O5 Zn3 2.046 1_655 S
O5 C4 1.254 . S
C6 O27 1.256 . S
C6 O28 1.244 . S
O7 Zn3 2.055 . S
O7 C29 1.259 . S
O8 Zn0 2.046 . S
O8 C29 1.254 . S
N9 Zn3 2.036 . S
N9 C10 1.298 . S
N9 N12 1.398 . S
C10 N9 1.298 . S
C10 N13 1.367 . S
C10 C23 1.481 . S
C11 N12 1.299 . S
C11 N13 1.379 . S
N12 N9 1.398 . S
N12 C11 1.299 . S
N13 C10 1.367 . S
N13 C11 1.379 . S
C14 N16 1.298 . S
C14 N18 1.367 . S
C14 C22 1.481 1_455 S
C15 N17 1.299 . S
C15 N18 1.379 . S
N16 Zn0 2.036 . S
N16 C14 1.298 . S
N16 N17 1.398 . S
N17 C15 1.299 . S
N17 N16 1.398 . S
N18 C14 1.367 . S
N18 C15 1.379 . S
H19 C22 0.980 . S
H20 C22 0.981 . S
H21 C22 0.981 . S
C22 C14 1.481 1_655 S
C22 H19 0.980 . S
C22 H20 0.981 . S
C22 H21 0.981 . S
C23 C10 1.481 . S
C23 H24 0.980 . S
C23 H25 0.981 . S
C23 H26 0.981 . S
H24 C23 0.980 . S
H25 C23 0.981 . S
H26 C23 0.981 . S
O27 Zn3 2.066 . S
O27 C6 1.256 . S
O28 Zn0 2.053 . S
O28 C6 1.244 . S
C29 O7 1.259 . S
C29 O8 1.254 . S
O30 Zn0 2.066 . S
O30 C2 1.256 . S
O31 C2 1.244 . S
O31 Zn3 2.053 . S
Zn32 O33 2.055 . S
Zn32 O40 2.046 . S
Zn32 N48 2.036 . S
Zn32 O60 2.053 . S
Zn32 O62 2.066 . S
O33 Zn32 2.055 . S
O33 C36 1.259 1_655 S
C34 O62 1.256 1_455 S
C34 O63 1.244 . S
Zn35 O37 2.046 . S
Zn35 O39 2.055 . S
Zn35 N41 2.036 . S
Zn35 O59 2.066 . S
Zn35 O63 2.053 . S
C36 O33 1.259 1_455 S
C36 O37 1.254 . S
O37 Zn35 2.046 . S
O37 C36 1.254 . S
C38 O59 1.256 . S
C38 O60 1.244 1_455 S
O39 Zn35 2.055 . S
O39 C61 1.259 . S
O40 Zn32 2.046 . S
O40 C61 1.254 1_655 S
N41 Zn35 2.036 . S
N41 C42 1.298 . S
N41 N44 1.398 . S
C42 N41 1.298 . S
C42 N45 1.367 . S
C42 C55 1.481 . S
C43 N44 1.299 . S
C43 N45 1.379 . S
N44 N41 1.398 . S
N44 C43 1.299 . S
N45 C42 1.367 . S
N45 C43 1.379 . S
C46 N48 1.298 . S
C46 N50 1.367 . S
C46 C54 1.481 . S
C47 N49 1.299 . S
C47 N50 1.379 . S
N48 Zn32 2.036 . S
N48 C46 1.298 . S
N48 N49 1.398 . S
N49 C47 1.299 . S
N49 N48 1.398 . S
N50 C46 1.367 . S
N50 C47 1.379 . S
H51 C54 0.980 . S
H52 C54 0.981 . S
H53 C54 0.981 . S
C54 C46 1.481 . S
C54 H51 0.980 . S
C54 H52 0.981 . S
C54 H53 0.981 . S
C55 C42 1.481 . S
C55 H56 0.980 . S
C55 H57 0.981 . S
C55 H58 0.981 . S
H56 C55 0.980 . S
H57 C55 0.981 . S
H58 C55 0.981 . S
O59 Zn35 2.066 . S
O59 C38 1.256 . S
O60 Zn32 2.053 . S
O60 C38 1.244 1_655 S
C61 O39 1.259 . S
C61 O40 1.254 1_455 S
O62 Zn32 2.066 . S
O62 C34 1.256 1_655 S
O63 C34 1.244 . S
O63 Zn35 2.053 . S
Zn64 O65 2.055 . S
Zn64 O72 2.046 . S
Zn64 N80 2.036 . S
Zn64 O92 2.053 . S
Zn64 O94 2.066 1_556 S
O65 Zn64 2.055 . S
O65 C68 1.259 . S
C66 O94 1.256 . S
C66 O95 1.244 . S
Zn67 O69 2.046 . S
Zn67 O71 2.055 . S
Zn67 N73 2.036 . S
Zn67 O91 2.066 . S
Zn67 O95 2.053 1_556 S
C68 O65 1.259 . S
C68 O69 1.254 . S
O69 Zn67 2.046 . S
O69 C68 1.254 . S
C70 O91 1.256 . S
C70 O92 1.244 . S
O71 Zn67 2.055 . S
O71 C93 1.259 . S
O72 Zn64 2.046 . S
O72 C93 1.254 . S
N73 Zn67 2.036 . S
N73 C74 1.298 . S
N73 N76 1.398 . S
C74 N73 1.298 . S
C74 N77 1.367 . S
C74 C87 1.481 . S
C75 N76 1.299 . S
C75 N77 1.379 . S
N76 N73 1.398 . S
N76 C75 1.299 . S
N77 C74 1.367 . S
N77 C75 1.379 . S
C78 N80 1.298 . S
C78 N82 1.367 . S
C78 C86 1.481 . S
C79 N81 1.299 . S
C79 N82 1.379 . S
N80 Zn64 2.036 . S
N80 C78 1.298 . S
N80 N81 1.398 . S
N81 C79 1.299 . S
N81 N80 1.398 . S
N82 C78 1.367 . S
N82 C79 1.379 . S
H83 C86 0.980 . S
H84 C86 0.981 . S
H85 C86 0.981 1_554 S
C86 C78 1.481 . S
C86 H83 0.980 . S
C86 H84 0.981 . S
C86 H85 0.981 1_556 S
C87 C74 1.481 . S
C87 H88 0.980 . S
C87 H89 0.981 . S
C87 H90 0.981 . S
H88 C87 0.980 . S
H89 C87 0.981 . S
H90 C87 0.981 . S
O91 Zn67 2.066 . S
O91 C70 1.256 . S
O92 Zn64 2.053 . S
O92 C70 1.244 . S
C93 O71 1.259 . S
C93 O72 1.254 . S
O94 Zn64 2.066 1_554 S
O94 C66 1.256 . S
O95 C66 1.244 . S
O95 Zn67 2.053 1_554 S
Zn96 O97 2.055 . S
Zn96 O104 2.046 . S
Zn96 N112 2.036 . S
Zn96 O124 2.054 . S
Zn96 O126 2.066 . S
O97 Zn96 2.055 . S
O97 C100 1.259 . S
C98 O126 1.256 . S
C98 O127 1.244 . S
Zn99 O101 2.046 . S
Zn99 O103 2.055 . S
Zn99 N105 2.036 . S
Zn99 O123 2.066 . S
Zn99 O127 2.053 . S
C100 O97 1.259 . S
C100 O101 1.254 . S
O101 Zn99 2.046 . S
O101 C100 1.254 . S
C102 O123 1.256 1_556 S
C102 O124 1.244 1_556 S
O103 Zn99 2.055 . S
O103 C125 1.259 . S
O104 Zn96 2.046 . S
O104 C125 1.254 . S
N105 Zn99 2.036 . S
N105 C106 1.298 . S
N105 N108 1.398 . S
C106 N105 1.298 . S
C106 N109 1.367 . S
C106 C119 1.481 . S
C107 N108 1.299 . S
C107 N109 1.379 . S
N108 N105 1.398 . S
N108 C107 1.299 . S
N109 C106 1.367 . S
N109 C107 1.379 . S
C110 N112 1.298 . S
C110 N114 1.367 . S
C110 C118 1.481 . S
C111 N113 1.299 . S
C111 N114 1.379 . S
N112 Zn96 2.036 . S
N112 C110 1.298 . S
N112 N113 1.398 . S
N113 C111 1.299 . S
N113 N112 1.398 . S
N114 C110 1.367 . S
N114 C111 1.379 . S
H115 C118 0.980 . S
H116 C118 0.981 . S
H117 C118 0.981 . S
C118 C110 1.481 . S
C118 H115 0.980 . S
C118 H116 0.981 . S
C118 H117 0.981 . S
C119 C106 1.481 . S
C119 H120 0.980 . S
C119 H121 0.981 . S
C119 H122 0.981 . S
H120 C119 0.980 . S
H121 C119 0.981 . S
H122 C119 0.981 . S
O123 Zn99 2.066 . S
O123 C102 1.256 1_554 S
O124 Zn96 2.054 . S
O124 C102 1.244 1_554 S
C125 O103 1.259 . S
C125 O104 1.254 . S
O126 Zn96 2.066 . S
O126 C98 1.256 . S
O127 C98 1.244 . S
O127 Zn99 2.053 . S
C128 C129 1.369 . S
C128 C130 1.419 . S
C128 H132 0.930 . S
C129 C128 1.369 . S
C129 C138 1.429 . S
C130 C128 1.419 . S
C130 C131 1.363 . S
C130 H133 0.929 . S
C131 C130 1.363 . S
C131 C137 1.428 1_455 S
H132 C128 0.930 . S
H133 C130 0.929 . S
S134 N135 1.613 . S
S134 N136 1.610 . S
N135 S134 1.613 . S
N135 C138 1.350 1_655 S
N136 S134 1.610 . S
N136 C137 1.351 . S
C137 C131 1.428 1_655 S
C137 N136 1.351 . S
C137 C138 1.434 1_655 S
C138 C129 1.429 . S
C138 N135 1.350 1_455 S
C138 C137 1.434 1_455 S
C139 C140 1.369 . S
C139 C141 1.419 . S
C139 H143 0.930 . S
C140 C139 1.369 . S
C140 C149 1.429 . S
C141 C139 1.419 . S
C141 C142 1.363 . S
C141 H144 0.929 . S
C142 C141 1.363 . S
C142 C148 1.428 . S
H143 C139 0.930 . S
H144 C141 0.929 . S
S145 N146 1.613 . S
S145 N147 1.610 . S
N146 S145 1.613 . S
N146 C149 1.350 . S
N147 S145 1.610 . S
N147 C148 1.351 . S
C148 C142 1.428 . S
C148 N147 1.351 . S
C148 C149 1.434 . S
C149 C140 1.429 . S
C149 N146 1.350 . S
C149 C148 1.434 . S
C150 C151 1.369 . S
C150 C152 1.419 1_554 S
C150 H154 0.930 . S
C151 C150 1.369 . S
C151 C160 1.429 . S
C152 C150 1.419 1_556 S
C152 C153 1.363 . S
C152 H155 0.929 . S
C153 C152 1.363 . S
C153 C159 1.428 . S
H154 C150 0.930 . S
H155 C152 0.929 . S
S156 N157 1.613 . S
S156 N158 1.610 1_554 S
N157 S156 1.613 . S
N157 C160 1.350 . S
N158 S156 1.610 1_556 S
N158 C159 1.351 . S
C159 C153 1.428 . S
C159 N158 1.351 . S
C159 C160 1.434 1_556 S
C160 C151 1.429 . S
C160 N157 1.350 . S
C160 C159 1.434 1_554 S
C161 C162 1.369 . S
C161 C163 1.419 . S
C161 H165 0.930 . S
C162 C161 1.369 . S
C162 C171 1.429 . S
C163 C161 1.419 . S
C163 C164 1.363 . S
C163 H166 0.929 . S
C164 C163 1.363 . S
C164 C170 1.428 . S
H165 C161 0.930 . S
H166 C163 0.929 . S
S167 N168 1.613 . S
S167 N169 1.610 . S
N168 S167 1.613 . S
N168 C171 1.350 . S
N169 S167 1.610 . S
N169 C170 1.351 . S
C170 C164 1.428 . S
C170 N169 1.351 . S
C170 C171 1.434 . S
C171 C162 1.429 . S
C171 N168 1.350 . S
C171 C170 1.434 . S
C172 C173 1.369 . S
C172 C174 1.419 . S
C172 H176 0.930 . S
C173 C172 1.369 . S
C173 C182 1.429 . S
C174 C172 1.419 . S
C174 C175 1.363 . S
C174 H177 0.929 . S
C175 C174 1.363 . S
C175 C181 1.428 . S
H176 C172 0.930 . S
H177 C174 0.929 . S
S178 N179 1.613 . S
S178 N180 1.610 . S
N179 S178 1.613 . S
N179 C182 1.350 . S
N180 S178 1.610 . S
N180 C181 1.351 . S
C181 C175 1.428 . S
C181 N180 1.351 . S
C181 C182 1.434 . S
C182 C173 1.429 . S
C182 N179 1.350 . S
C182 C181 1.434 . S
C183 C184 1.369 . S
C183 C185 1.419 . S
C183 H187 0.930 . S
C184 C183 1.369 . S
C184 C193 1.429 . S
C185 C183 1.419 . S
C185 C186 1.363 . S
C185 H188 0.929 . S
C186 C185 1.363 . S
C186 C192 1.428 . S
H187 C183 0.930 . S
H188 C185 0.929 . S
S189 N190 1.613 . S
S189 N191 1.610 . S
N190 S189 1.613 . S
N190 C193 1.350 . S
N191 S189 1.610 . S
N191 C192 1.351 . S
C192 C186 1.428 . S
C192 N191 1.351 . S
C192 C193 1.434 . S
C193 C184 1.429 . S
C193 N190 1.350 . S
C193 C192 1.434 . S
C194 C195 1.369 1_545 S
C194 C196 1.419 1_556 S
C194 H198 0.930 . S
C195 C194 1.369 1_565 S
C195 C204 1.429 1_556 S
C196 C194 1.419 1_554 S
C196 C197 1.363 . S
C196 H199 0.929 1_554 S
C197 C196 1.363 . S
C197 C203 1.428 1_545 S
H198 C194 0.930 . S
H199 C196 0.929 1_556 S
S200 N201 1.613 . S
S200 N202 1.610 . S
N201 S200 1.613 . S
N201 C204 1.350 . S
N202 S200 1.610 . S
N202 C203 1.351 . S
C203 C197 1.428 1_565 S
C203 N202 1.351 . S
C203 C204 1.434 . S
C204 C195 1.429 1_554 S
C204 N201 1.350 . S
C204 C203 1.434 . S
C205 C206 1.369 . S
C205 C207 1.419 . S
C205 H209 0.930 . S
C206 C205 1.369 . S
C206 C215 1.429 1_455 S
C207 C205 1.419 . S
C207 C208 1.363 . S
C207 H210 0.929 . S
C208 C207 1.363 . S
C208 C214 1.428 1_455 S
H209 C205 0.930 . S
H210 C207 0.929 . S
S211 N212 1.613 . S
S211 N213 1.610 . S
N212 S211 1.613 . S
N212 C215 1.350 . S
N213 S211 1.610 . S
N213 C214 1.351 . S
C214 C208 1.428 1_655 S
C214 N213 1.351 . S
C214 C215 1.434 . S
C215 C206 1.429 1_655 S
C215 N212 1.350 . S
C215 C214 1.434 . S
C216 C217 1.369 . S
C216 C218 1.419 . S
C216 H220 0.930 . S
C217 C216 1.369 . S
C217 C226 1.429 . S
C218 C216 1.419 . S
C218 C219 1.363 . S
C218 H221 0.929 . S
C219 C218 1.363 . S
C219 C225 1.428 . S
H220 C216 0.930 . S
H221 C218 0.929 . S
S222 N223 1.613 . S
S222 N224 1.610 . S
N223 S222 1.613 . S
N223 C226 1.350 . S
N224 S222 1.610 . S
N224 C225 1.351 . S
C225 C219 1.428 . S
C225 N224 1.351 . S
C225 C226 1.434 . S
C226 C217 1.429 . S
C226 N223 1.350 . S
C226 C225 1.434 . S
C227 C228 1.371 . S
C227 C229 1.414 1_556 S
C227 H231 0.932 . S
C228 C227 1.371 . S
C228 C237 1.429 1_455 S
C229 C227 1.414 1_554 S
C229 C230 1.363 . S
C229 H232 0.929 . S
C230 C229 1.363 . S
C230 C236 1.428 1_455 S
H231 C227 0.932 . S
H232 C229 0.929 . S
S233 N234 1.613 1_554 S
S233 N235 1.610 . S
N234 S233 1.613 1_556 S
N234 C237 1.350 . S
N235 S233 1.610 . S
N235 C236 1.351 . S
C236 C230 1.428 1_655 S
C236 N235 1.351 . S
C236 C237 1.434 1_554 S
C237 C228 1.429 1_655 S
C237 N234 1.350 . S
C237 C236 1.434 1_556 S
C238 C239 1.369 . S
C238 C240 1.419 . S
C238 H242 0.930 . S
C239 C238 1.369 . S
C239 C248 1.429 . S
C240 C238 1.419 . S
C240 C241 1.363 . S
C240 H243 0.929 . S
C241 C240 1.363 . S
C241 C247 1.428 . S
H242 C238 0.930 . S
H243 C240 0.929 . S
S244 N245 1.613 . S
S244 N246 1.610 . S
N245 S244 1.613 . S
N245 C248 1.350 . S
N246 S244 1.610 . S
N246 C247 1.351 . S
C247 C241 1.428 . S
C247 N246 1.351 . S
C247 C248 1.434 . S
C248 C239 1.429 . S
C248 N245 1.350 . S
C248 C247 1.434 . S
C249 C250 1.369 . S
C249 C251 1.419 . S
C249 H253 0.930 . S
C250 C249 1.369 . S
C250 C259 1.429 . S
C251 C249 1.419 . S
C251 C252 1.363 . S
C251 H254 0.929 . S
C252 C251 1.363 . S
C252 C258 1.428 . S
H253 C249 0.930 . S
H254 C251 0.929 . S
S255 N256 1.613 . S
S255 N257 1.610 . S
N256 S255 1.613 . S
N256 C259 1.350 . S
N257 S255 1.610 . S
N257 C258 1.351 . S
C258 C252 1.428 . S
C258 N257 1.351 . S
C258 C259 1.434 . S
C259 C250 1.429 . S
C259 N256 1.350 . S
C259 C258 1.434 . S
C129 N18 2.303 . S
C131 C36 2.253 . S
C140 C70 1.299 . S
C142 N50 1.333 . S
C151 N109 1.313 . S
C153 N77 1.113 . S
C162 C4 2.119 . S
C164 C125 2.119 . S
C173 C98 2.610 . S
C175 C6 2.608 . S
C184 C68 0.996 . S
C186 N45 0.934 . S
C195 N82 1.231 . S
C197 N114 1.051 . S
C206 C38 2.510 . S
C208 N13 2.331 1_565 S
C217 C29 1.155 1_556 S
C219 C2 1.157 . S
C228 C34 1.166 . S
C230 C61 1.157 . S
C239 C66 1.156 . S
C241 C93 1.155 . S
C250 C100 1.155 . S
C252 C102 1.159 . S
