# Generated by pormake.
# Topology uox, (4)-cn, num edge types: 1
# Building blocks:
#     Node 0, Type 0, BuildingBlock: NAHDIM_clean_sbu_0, # of connection points: 4
#     Node 1, Type 0, BuildingBlock: NAHDIM_clean_sbu_0, # of connection points: 4
#     Node 2, Type 0, BuildingBlock: NAHDIM_clean_sbu_0, # of connection points: 4
#     Node 3, Type 0, BuildingBlock: NAHDIM_clean_sbu_0, # of connection points: 4
#     Node 4, Type 0, BuildingBlock: NAHDIM_clean_sbu_0, # of connection points: 4
#     Node 5, Type 0, BuildingBlock: NAHDIM_clean_sbu_0, # of connection points: 4
#     Node 6, Type 0, BuildingBlock: NAHDIM_clean_sbu_0, # of connection points: 4
#     Node 7, Type 0, BuildingBlock: NAHDIM_clean_sbu_0, # of connection points: 4
#     Node 8, Type 0, BuildingBlock: NAHDIM_clean_sbu_0, # of connection points: 4
#     Node 9, Type 0, BuildingBlock: NAHDIM_clean_sbu_0, # of connection points: 4
#     Node 10, Type 0, BuildingBlock: NAHDIM_clean_sbu_0, # of connection points: 4
#     Node 11, Type 0, BuildingBlock: NAHDIM_clean_sbu_0, # of connection points: 4
#     Node 12, Type 0, BuildingBlock: NAHDIM_clean_sbu_0, # of connection points: 4
#     Node 13, Type 0, BuildingBlock: NAHDIM_clean_sbu_0, # of connection points: 4
#     Node 14, Type 0, BuildingBlock: NAHDIM_clean_sbu_0, # of connection points: 4
#     Node 15, Type 0, BuildingBlock: NAHDIM_clean_sbu_0, # of connection points: 4
#     Node 16, Type 0, BuildingBlock: NAHDIM_clean_sbu_0, # of connection points: 4
#     Node 17, Type 0, BuildingBlock: NAHDIM_clean_sbu_0, # of connection points: 4
#     Node 18, Type 0, BuildingBlock: NAHDIM_clean_sbu_0, # of connection points: 4
#     Node 19, Type 0, BuildingBlock: NAHDIM_clean_sbu_0, # of connection points: 4
#     Node 20, Type 0, BuildingBlock: NAHDIM_clean_sbu_0, # of connection points: 4
#     Node 21, Type 0, BuildingBlock: NAHDIM_clean_sbu_0, # of connection points: 4
#     Node 22, Type 0, BuildingBlock: NAHDIM_clean_sbu_0, # of connection points: 4
#     Node 23, Type 0, BuildingBlock: NAHDIM_clean_sbu_0, # of connection points: 4
#     Node 24, Type 0, BuildingBlock: NAHDIM_clean_sbu_0, # of connection points: 4
#     Node 25, Type 0, BuildingBlock: NAHDIM_clean_sbu_0, # of connection points: 4
#     Node 26, Type 0, BuildingBlock: NAHDIM_clean_sbu_0, # of connection points: 4
#     Node 27, Type 0, BuildingBlock: NAHDIM_clean_sbu_0, # of connection points: 4
#     Node 28, Type 0, BuildingBlock: NAHDIM_clean_sbu_0, # of connection points: 4
#     Node 29, Type 0, BuildingBlock: NAHDIM_clean_sbu_0, # of connection points: 4
#     Node 30, Type 0, BuildingBlock: NAHDIM_clean_sbu_0, # of connection points: 4
#     Node 31, Type 0, BuildingBlock: NAHDIM_clean_sbu_0, # of connection points: 4
#     Edge 32, Type (0, 0), BuildingBlock: XUDNAN_clean_linker_2, # of connection points: 2
#     Edge 33, Type (0, 0), BuildingBlock: XUDNAN_clean_linker_2, # of connection points: 2
#     Edge 34, Type (0, 0), BuildingBlock: XUDNAN_clean_linker_2, # of connection points: 2
#     Edge 35, Type (0, 0), BuildingBlock: XUDNAN_clean_linker_2, # of connection points: 2
#     Edge 36, Type (0, 0), BuildingBlock: XUDNAN_clean_linker_2, # of connection points: 2
#     Edge 37, Type (0, 0), BuildingBlock: XUDNAN_clean_linker_2, # of connection points: 2
#     Edge 38, Type (0, 0), BuildingBlock: XUDNAN_clean_linker_2, # of connection points: 2
#     Edge 39, Type (0, 0), BuildingBlock: XUDNAN_clean_linker_2, # of connection points: 2
#     Edge 40, Type (0, 0), BuildingBlock: XUDNAN_clean_linker_2, # of connection points: 2
#     Edge 41, Type (0, 0), BuildingBlock: XUDNAN_clean_linker_2, # of connection points: 2
#     Edge 42, Type (0, 0), BuildingBlock: XUDNAN_clean_linker_2, # of connection points: 2
#     Edge 43, Type (0, 0), BuildingBlock: XUDNAN_clean_linker_2, # of connection points: 2
#     Edge 44, Type (0, 0), BuildingBlock: XUDNAN_clean_linker_2, # of connection points: 2
#     Edge 45, Type (0, 0), BuildingBlock: XUDNAN_clean_linker_2, # of connection points: 2
#     Edge 46, Type (0, 0), BuildingBlock: XUDNAN_clean_linker_2, # of connection points: 2
#     Edge 47, Type (0, 0), BuildingBlock: XUDNAN_clean_linker_2, # of connection points: 2
#     Edge 48, Type (0, 0), BuildingBlock: XUDNAN_clean_linker_2, # of connection points: 2
#     Edge 49, Type (0, 0), BuildingBlock: XUDNAN_clean_linker_2, # of connection points: 2
#     Edge 50, Type (0, 0), BuildingBlock: XUDNAN_clean_linker_2, # of connection points: 2
#     Edge 51, Type (0, 0), BuildingBlock: XUDNAN_clean_linker_2, # of connection points: 2
#     Edge 52, Type (0, 0), BuildingBlock: XUDNAN_clean_linker_2, # of connection points: 2
#     Edge 53, Type (0, 0), BuildingBlock: XUDNAN_clean_linker_2, # of connection points: 2
#     Edge 54, Type (0, 0), BuildingBlock: XUDNAN_clean_linker_2, # of connection points: 2
#     Edge 55, Type (0, 0), BuildingBlock: XUDNAN_clean_linker_2, # of connection points: 2
#     Edge 56, Type (0, 0), BuildingBlock: XUDNAN_clean_linker_2, # of connection points: 2
#     Edge 57, Type (0, 0), BuildingBlock: XUDNAN_clean_linker_2, # of connection points: 2
#     Edge 58, Type (0, 0), BuildingBlock: XUDNAN_clean_linker_2, # of connection points: 2
#     Edge 59, Type (0, 0), BuildingBlock: XUDNAN_clean_linker_2, # of connection points: 2
#     Edge 60, Type (0, 0), BuildingBlock: XUDNAN_clean_linker_2, # of connection points: 2
#     Edge 61, Type (0, 0), BuildingBlock: XUDNAN_clean_linker_2, # of connection points: 2
#     Edge 62, Type (0, 0), BuildingBlock: XUDNAN_clean_linker_2, # of connection points: 2
#     Edge 63, Type (0, 0), BuildingBlock: XUDNAN_clean_linker_2, # of connection points: 2
#     Edge 64, Type (0, 0), BuildingBlock: XUDNAN_clean_linker_2, # of connection points: 2
#     Edge 65, Type (0, 0), BuildingBlock: XUDNAN_clean_linker_2, # of connection points: 2
#     Edge 66, Type (0, 0), BuildingBlock: XUDNAN_clean_linker_2, # of connection points: 2
#     Edge 67, Type (0, 0), BuildingBlock: XUDNAN_clean_linker_2, # of connection points: 2
#     Edge 68, Type (0, 0), BuildingBlock: XUDNAN_clean_linker_2, # of connection points: 2
#     Edge 69, Type (0, 0), BuildingBlock: XUDNAN_clean_linker_2, # of connection points: 2
#     Edge 70, Type (0, 0), BuildingBlock: XUDNAN_clean_linker_2, # of connection points: 2
#     Edge 71, Type (0, 0), BuildingBlock: XUDNAN_clean_linker_2, # of connection points: 2
#     Edge 72, Type (0, 0), BuildingBlock: XUDNAN_clean_linker_2, # of connection points: 2
#     Edge 73, Type (0, 0), BuildingBlock: XUDNAN_clean_linker_2, # of connection points: 2
#     Edge 74, Type (0, 0), BuildingBlock: XUDNAN_clean_linker_2, # of connection points: 2
#     Edge 75, Type (0, 0), BuildingBlock: XUDNAN_clean_linker_2, # of connection points: 2
#     Edge 76, Type (0, 0), BuildingBlock: XUDNAN_clean_linker_2, # of connection points: 2
#     Edge 77, Type (0, 0), BuildingBlock: XUDNAN_clean_linker_2, # of connection points: 2
#     Edge 78, Type (0, 0), BuildingBlock: XUDNAN_clean_linker_2, # of connection points: 2
#     Edge 79, Type (0, 0), BuildingBlock: XUDNAN_clean_linker_2, # of connection points: 2
#     Edge 80, Type (0, 0), BuildingBlock: XUDNAN_clean_linker_2, # of connection points: 2
#     Edge 81, Type (0, 0), BuildingBlock: XUDNAN_clean_linker_2, # of connection points: 2
#     Edge 82, Type (0, 0), BuildingBlock: XUDNAN_clean_linker_2, # of connection points: 2
#     Edge 83, Type (0, 0), BuildingBlock: XUDNAN_clean_linker_2, # of connection points: 2
#     Edge 84, Type (0, 0), BuildingBlock: XUDNAN_clean_linker_2, # of connection points: 2
#     Edge 85, Type (0, 0), BuildingBlock: XUDNAN_clean_linker_2, # of connection points: 2
#     Edge 86, Type (0, 0), BuildingBlock: XUDNAN_clean_linker_2, # of connection points: 2
#     Edge 87, Type (0, 0), BuildingBlock: XUDNAN_clean_linker_2, # of connection points: 2
#     Edge 88, Type (0, 0), BuildingBlock: XUDNAN_clean_linker_2, # of connection points: 2
#     Edge 89, Type (0, 0), BuildingBlock: XUDNAN_clean_linker_2, # of connection points: 2
#     Edge 90, Type (0, 0), BuildingBlock: XUDNAN_clean_linker_2, # of connection points: 2
#     Edge 91, Type (0, 0), BuildingBlock: XUDNAN_clean_linker_2, # of connection points: 2
#     Edge 92, Type (0, 0), BuildingBlock: XUDNAN_clean_linker_2, # of connection points: 2
#     Edge 93, Type (0, 0), BuildingBlock: XUDNAN_clean_linker_2, # of connection points: 2
#     Edge 94, Type (0, 0), BuildingBlock: XUDNAN_clean_linker_2, # of connection points: 2
#     Edge 95, Type (0, 0), BuildingBlock: XUDNAN_clean_linker_2, # of connection points: 2
# Relax obj value: 0.105
# Max RMSD: 0.136
# Mean RMSD: 0.136
data_MOF--net-uox--node1-NAHDIM_clean_sbu_0--edge1-XUDNAN_clean_linker_2
_symmetry_space_group_name_H-M    P1
_symmetry_Int_Tables_number       1
_symmetry_cell_setting            triclinic
loop_
_symmetry_equiv_pos_as_xyz
'x, y, z'
_cell_length_a     44.659695
_cell_length_b     44.568682
_cell_length_c     81.470333
_cell_angle_alpha  89.999519
_cell_angle_beta   89.95541
_cell_angle_gamma 90.03583
loop_
_atom_site_label
_atom_site_type_symbol
_atom_site_fract_x
_atom_site_fract_y
_atom_site_fract_z
_atom_type_partial_charge
C0 C 0.43361 0.03265 0.18733 0.0
O1 O 0.43735 0.0063 0.18041 0.0
O2 O 0.46668 0.05968 0.14323 0.0
Zn3 Zn 0.42694 0.05017 0.1537 0.0
O4 O 0.41489 0.00746 0.14926 0.0
C5 C 0.4013 0.10446 0.14048 0.0
O6 O 0.42874 0.11446 0.14251 0.0
O7 O 0.42942 0.05554 0.1783 0.0
C8 C 0.40345 0.99839 0.1359 0.0
O9 O 0.40009 0.01741 0.12371 0.0
C10 C 0.48891 0.042 0.1442 0.0
O11 O 0.48589 0.01652 0.15215 0.0
O12 O 0.39519 0.07761 0.14453 0.0
C13 C 0.21034 0.19173 0.44797 0.0
O14 O 0.19228 0.21428 0.44486 0.0
O15 O 0.2034 0.22283 0.40633 0.0
Zn16 Zn 0.20769 0.1793 0.41247 0.0
O17 O 0.24075 0.16038 0.39948 0.0
C18 C 0.14613 0.15709 0.41536 0.0
O19 O 0.14592 0.17132 0.42947 0.0
O20 O 0.21845 0.17455 0.43635 0.0
C21 C 0.26795 0.16281 0.40386 0.0
O22 O 0.27466 0.17961 0.41659 0.0
C23 C 0.18948 0.2295 0.39323 0.0
O24 O 0.17878 0.2078 0.38402 0.0
O25 O 0.16973 0.15732 0.40666 0.0
C26 C 0.05305 0.95993 0.68806 0.0
O27 O 0.04734 0.98525 0.68043 0.0
O28 O 0.01723 0.93419 0.64684 0.0
Zn29 Zn 0.05937 0.93989 0.65498 0.0
O30 O 0.07598 0.98085 0.6491 0.0
C31 C 0.08034 0.89954 0.63027 0.0
O32 O 0.06109 0.91514 0.62158 0.0
O33 O 0.05891 0.93663 0.67965 0.0
C34 C 0.0944 0.9861 0.63755 0.0
O35 O 0.10312 0.96399 0.62804 0.0
C36 C 0.00453 0.94962 0.63573 0.0
O37 O 0.01883 0.97245 0.62918 0.0
O38 O 0.08432 0.90631 0.64529 0.0
C39 C 0.27659 0.82578 0.94939 0.0
O40 O 0.26203 0.80294 0.94304 0.0
O41 O 0.30305 0.79206 0.91082 0.0
Zn42 Zn 0.2924 0.83513 0.91568 0.0
O43 O 0.25106 0.84519 0.90767 0.0
C44 C 0.34993 0.86092 0.90633 0.0
O45 O 0.36099 0.83905 0.91528 0.0
O46 O 0.29221 0.8424 0.94002 0.0
C47 C 0.24694 0.8569 0.89364 0.0
O48 O 0.26992 0.86028 0.88372 0.0
C49 C 0.31325 0.78394 0.89694 0.0
O50 O 0.31653 0.80406 0.88529 0.0
O51 O 0.32172 0.86338 0.90491 0.0
C52 C 0.42612 0.00494 0.3068 0.0
O53 O 0.43371 0.02332 0.3187 0.0
O54 O 0.4642 0.95228 0.3381 0.0
Zn55 Zn 0.42153 0.96404 0.33376 0.0
O56 O 0.40922 0.99813 0.34837 0.0
C57 C 0.39913 0.90759 0.34709 0.0
O58 O 0.4255 0.90659 0.35418 0.0
O59 O 0.41939 0.97793 0.31025 0.0
C60 C 0.38276 0.0079 0.34643 0.0
O61 O 0.36544 0.99503 0.33545 0.0
C62 C 0.47683 0.95317 0.35207 0.0
O63 O 0.46142 0.96178 0.36497 0.0
O64 O 0.39294 0.92943 0.33763 0.0
C65 C 0.2614 0.1837 0.56524 0.0
O66 O 0.24004 0.19657 0.57381 0.0
O67 O 0.29301 0.20737 0.60796 0.0
Zn68 Zn 0.28275 0.1676 0.59743 0.0
O69 O 0.24319 0.14997 0.60453 0.0
C70 C 0.31543 0.13165 0.61961 0.0
O71 O 0.29552 0.14361 0.62952 0.0
O72 O 0.28263 0.17058 0.57276 0.0
C73 C 0.22788 0.1557 0.6173 0.0
O74 O 0.23697 0.17663 0.6275 0.0
C75 C 0.27605 0.22972 0.61067 0.0
O76 O 0.24778 0.22851 0.60629 0.0
O77 O 0.31474 0.13848 0.60447 0.0
C78 C 0.06191 0.99535 0.8069 0.0
O79 O 0.06296 0.97645 0.81926 0.0
O80 O 0.0372 0.05096 0.84436 0.0
Zn81 Zn 0.0747 0.03741 0.83266 0.0
O82 O 0.09562 0.00405 0.84474 0.0
C83 C 0.10918 0.08521 0.84544 0.0
O84 O 0.09569 0.07582 0.85884 0.0
O85 O 0.0656 0.02321 0.80964 0.0
C86 C 0.08685 0.99088 0.85772 0.0
O87 O 0.06169 -0.00083 0.86472 0.0
C88 C 0.01315 0.03575 0.8451 0.0
O89 O 0.01198 0.00938 0.83792 0.0
O90 O 0.10351 0.07216 0.83192 0.0
C91 C 0.23022 0.84313 0.06696 0.0
O92 O 0.23569 0.86507 0.07731 0.0
O93 O 0.21428 0.77177 0.10443 0.0
Zn94 Zn 0.21957 0.81494 0.09722 0.0
O95 O 0.25865 0.83181 0.105 0.0
C96 C 0.15961 0.83984 0.10364 0.0
O97 O 0.14979 0.81884 0.09368 0.0
O98 O 0.22098 0.81815 0.07256 0.0
C99 C 0.27188 0.82742 0.11857 0.0
O100 O 0.26044 0.80849 0.12923 0.0
C101 C 0.19694 0.76456 0.11618 0.0
O102 O 0.18243 0.78568 0.12412 0.0
O103 O 0.18749 0.84181 0.10653 0.0
C104 C 0.57033 0.00485 0.81677 0.0
O105 O 0.5717 0.0253 0.82834 0.0
O106 O 0.53769 0.95841 0.85581 0.0
Zn107 Zn 0.5772 0.96598 0.84456 0.0
O108 O 0.60118 0.99851 0.85555 0.0
C109 C 0.62903 0.9267 0.84503 0.0
O110 O 0.64381 0.95146 0.84168 0.0
O111 O 0.5715 0.97726 0.82073 0.0
C112 C 0.59113 0.01974 0.86439 0.0
O113 O 0.56234 0.02105 0.86764 0.0
C114 C 0.51295 0.97051 0.85191 0.0
O115 O 0.51239 0.99068 0.84016 0.0
O116 O 0.60068 0.92765 0.84629 0.0
C117 C 0.73808 0.80277 0.55722 0.0
O118 O 0.72605 0.7835 0.5675 0.0
O119 O 0.78091 0.7751 0.59072 0.0
Zn120 Zn 0.76986 0.81831 0.58613 0.0
O121 O 0.73477 0.83331 0.59928 0.0
C122 C 0.82457 0.84047 0.60099 0.0
O123 O 0.82211 0.816 0.60987 0.0
O124 O 0.75808 0.82069 0.56241 0.0
C125 C 0.73631 0.84075 0.61431 0.0
O126 O 0.76153 0.83702 0.62232 0.0
C127 C 0.7793 0.76092 0.60423 0.0
O128 O 0.76913 0.77456 0.61738 0.0
O129 O 0.80511 0.84584 0.59 0.0
C130 C 0.94299 0.01564 0.31641 0.0
O131 O 0.94923 -0.00107 0.32925 0.0
O132 O 0.95491 0.06249 0.35625 0.0
Zn133 Zn 0.91966 0.05151 0.34205 0.0
O134 O 0.89979 0.01486 0.35159 0.0
C135 C 0.86569 0.08501 0.34997 0.0
O136 O 0.85607 0.05864 0.35487 0.0
O137 O 0.93106 0.04122 0.3187 0.0
C138 C 0.90242 0.0073 0.36656 0.0
O139 O 0.91862 0.02398 0.37645 0.0
C140 C 0.98195 0.06711 0.35211 0.0
O141 O 0.98997 0.06379 0.3367 0.0
O142 O 0.89136 0.087 0.34327 0.0
C143 C 0.74178 0.16133 0.06139 0.0
O144 O 0.75844 0.13901 0.06661 0.0
O145 O 0.72043 0.20515 0.10832 0.0
Zn146 Zn 0.72605 0.16633 0.09583 0.0
O147 O 0.76562 0.14791 0.10189 0.0
C148 C 0.66584 0.14132 0.09777 0.0
O149 O 0.65825 0.1661 0.09009 0.0
O150 O 0.72583 0.17576 0.07163 0.0
C151 C 0.76788 0.13242 0.11492 0.0
O152 O 0.74439 0.12955 0.12451 0.0
C153 C 0.7008 0.20906 0.11944 0.0
O154 O 0.68334 0.18669 0.12372 0.0
O155 O 0.69322 0.13675 0.10119 0.0
C156 C 0.56117 0.02586 0.69688 0.0
O157 O 0.55276 0.00024 0.69037 0.0
O158 O 0.51783 0.04255 0.65889 0.0
Zn159 Zn 0.56226 0.0415 0.6632 0.0
O160 O 0.5813 0.00157 0.65816 0.0
C161 C 0.57695 0.08195 0.63636 0.0
O162 O 0.55604 0.06671 0.62872 0.0
O163 O 0.56698 0.04787 0.68748 0.0
C164 C 0.58853 0.99142 0.64414 0.0
O165 O 0.58243 0.00718 0.63094 0.0
C166 C 0.50308 0.0327 0.64669 0.0
O167 O 0.51696 0.0189 0.63465 0.0
O168 O 0.58341 0.07521 0.6511 0.0
C169 C 0.70834 0.83436 0.43916 0.0
O170 O 0.72297 0.8585 0.43452 0.0
O171 O 0.69717 0.79044 0.39099 0.0
Zn172 Zn 0.70203 0.82778 0.40447 0.0
O173 O 0.74245 0.84714 0.40169 0.0
C174 C 0.66807 0.86104 0.38171 0.0
O175 O 0.68746 0.84795 0.37194 0.0
O176 O 0.69656 0.8176 0.42832 0.0
C177 C 0.75824 0.84809 0.38873 0.0
O178 O 0.74885 0.83453 0.37538 0.0
C179 C 0.71458 0.76794 0.39067 0.0
O180 O 0.73919 0.76828 0.39949 0.0
O181 O 0.66985 0.85637 0.39707 0.0
C182 C 0.93318 0.96162 0.19962 0.0
O183 O 0.92784 0.98578 0.19087 0.0
O184 O 0.96813 0.92447 0.15691 0.0
Zn185 Zn 0.92858 0.93316 0.1678 0.0
O186 O 0.91047 0.97172 0.15932 0.0
C187 C 0.88792 0.90117 0.14775 0.0
O188 O 0.8932 0.92491 0.13864 0.0
O189 O 0.93434 0.93623 0.19247 0.0
C190 C 0.92159 0.98831 0.14817 0.0
O191 O 0.94727 0.9809 0.14144 0.0
C192 C 0.99237 0.93764 0.16072 0.0
O193 O 0.99197 0.95852 0.17211 0.0
O194 O 0.90063 0.89908 0.16168 0.0
C195 C 0.77658 0.19468 0.94358 0.0
O196 O 0.76334 0.21312 0.93331 0.0
O197 O 0.81778 0.21961 0.90795 0.0
Zn198 Zn 0.80264 0.17831 0.91361 0.0
O199 O 0.76256 0.1693 0.90333 0.0
C200 C 0.85973 0.153 0.90302 0.0
O201 O 0.86962 0.18046 0.90524 0.0
O202 O 0.79609 0.17654 0.93804 0.0
C203 C 0.76003 0.15058 0.89165 0.0
O204 O 0.78434 0.13923 0.88504 0.0
C205 C 0.81861 0.23141 0.89375 0.0
O206 O 0.80787 0.21652 0.88115 0.0
O207 O 0.83255 0.14697 0.90632 0.0
C208 C 0.92027 0.51718 0.68741 0.0
O209 O 0.91705 0.49061 0.68066 0.0
O210 O 0.94973 0.54036 0.64139 0.0
Zn211 Zn 0.91122 0.53628 0.65408 0.0
O212 O 0.88986 0.49707 0.65039 0.0
C213 C 0.87926 0.57148 0.63117 0.0
O214 O 0.89118 0.5513 0.6214 0.0
O215 O 0.91916 0.54044 0.67837 0.0
C216 C 0.89066 0.47962 0.63807 0.0
O217 O 0.90753 0.48643 0.62539 0.0
C218 C 0.97357 0.52546 0.64378 0.0
O219 O 0.97377 0.50416 0.65493 0.0
O220 O 0.8843 0.56977 0.64649 0.0
C221 C 0.72979 0.67128 0.93671 0.0
O222 O 0.74524 0.64813 0.93142 0.0
O223 O 0.72259 0.72183 0.89017 0.0
Zn224 Zn 0.72571 0.68236 0.9022 0.0
O225 O 0.76696 0.66505 0.89977 0.0
C226 C 0.67048 0.6476 0.89845 0.0
O227 O 0.66188 0.66176 0.91179 0.0
O228 O 0.71816 0.68906 0.92631 0.0
C229 C 0.77672 0.65574 0.88605 0.0
O230 O 0.76007 0.6591 0.87289 0.0
C231 C 0.69672 0.73259 0.88742 0.0
O232 O 0.67308 0.71766 0.89246 0.0
O233 O 0.69633 0.65277 0.89256 0.0
C234 C 0.55779 0.47832 0.1836 0.0
O235 O 0.55695 0.49735 0.1713 0.0
O236 O 0.5291 0.42832 0.14557 0.0
Zn237 Zn 0.56807 0.4377 0.15706 0.0
O238 O 0.59061 0.4708 0.1455 0.0
C239 C 0.62211 0.40252 0.15587 0.0
O240 O 0.63468 0.42911 0.15694 0.0
O241 O 0.56158 0.45057 0.1806 0.0
C242 C 0.58038 0.48895 0.13487 0.0
O243 O 0.55246 0.48648 0.13002 0.0
C244 C 0.50557 0.4443 0.14636 0.0
O245 O 0.50569 0.46881 0.1553 0.0
O246 O 0.59372 0.40053 0.15621 0.0
C247 C 0.77235 0.32253 0.43772 0.0
O248 O 0.76223 0.29675 0.4322 0.0
O249 O 0.78565 0.29348 0.39632 0.0
Zn250 Zn 0.78026 0.33688 0.40298 0.0
O251 O 0.74056 0.35211 0.39481 0.0
C252 C 0.83941 0.36222 0.39634 0.0
O253 O 0.84881 0.34226 0.40702 0.0
O254 O 0.78169 0.34208 0.42758 0.0
C255 C 0.71597 0.34877 0.40246 0.0
O256 O 0.71555 0.33346 0.41622 0.0
C257 C 0.80186 0.28582 0.38418 0.0
O258 O 0.8159 0.30659 0.37571 0.0
O259 O 0.81173 0.36342 0.39282 0.0
C260 C 0.94061 0.49341 0.80677 0.0
O261 O 0.95356 0.51139 0.8174 0.0
O262 O 0.98392 0.45106 0.83718 0.0
Zn263 Zn 0.93964 0.45958 0.83554 0.0
O264 O 0.92592 0.49662 0.84777 0.0
C265 C 0.92621 0.41187 0.8573 0.0
O266 O 0.95044 0.42301 0.86408 0.0
O267 O 0.93159 0.4678 0.8116 0.0
C268 C 0.92479 0.50145 0.86313 0.0
O269 O 0.93468 0.48104 0.8734 0.0
C270 C 0.00273 0.45831 0.84819 0.0
O271 O 0.99412 0.47461 0.86075 0.0
O272 O 0.91662 0.42339 0.84402 0.0
C273 C 0.75375 0.68896 0.05615 0.0
O274 O 0.73898 0.705 0.06699 0.0
O275 O 0.78783 0.70796 0.09485 0.0
Zn276 Zn 0.77932 0.66692 0.08553 0.0
O277 O 0.74062 0.65043 0.09438 0.0
C278 C 0.83994 0.64505 0.09221 0.0
O279 O 0.84778 0.67329 0.09046 0.0
O280 O 0.77362 0.6707 0.06114 0.0
C281 C 0.73989 0.63035 0.10543 0.0
O282 O 0.76508 0.62143 0.11217 0.0
C283 C 0.79853 0.71324 0.10902 0.0
O284 O 0.80452 0.69073 0.1189 0.0
O285 O 0.81265 0.63767 0.09041 0.0
C286 C 0.57043 0.51835 0.30194 0.0
O287 O 0.57214 0.49309 0.3102 0.0
O288 O 0.53705 0.55993 0.34368 0.0
Zn289 Zn 0.57618 0.54592 0.33416 0.0
O290 O 0.58848 0.50625 0.34386 0.0
C291 C 0.60371 0.60373 0.33943 0.0
O292 O 0.57743 0.6136 0.3346 0.0
O293 O 0.57198 0.54315 0.30961 0.0
C294 C 0.57821 0.49636 0.35737 0.0
O295 O 0.55776 0.51187 0.36525 0.0
C296 C 0.51315 0.54494 0.34159 0.0
O297 O 0.51427 0.51974 0.33324 0.0
O298 O 0.60837 0.57564 0.33993 0.0
C299 C 0.72332 0.34595 0.55465 0.0
O300 O 0.73228 0.36587 0.56548 0.0
O301 O 0.68109 0.27836 0.58746 0.0
Zn302 Zn 0.69648 0.32037 0.58335 0.0
O303 O 0.73394 0.32985 0.59611 0.0
C304 C 0.63811 0.34434 0.59306 0.0
O305 O 0.6289 0.31661 0.59093 0.0
O306 O 0.70668 0.32444 0.55936 0.0
C307 C 0.73243 0.33929 0.61081 0.0
O308 O 0.70626 0.34041 0.61816 0.0
C309 C 0.68185 0.26465 0.60114 0.0
O310 O 0.69442 0.27765 0.61385 0.0
O311 O 0.66527 0.3509 0.59004 0.0
C312 C 0.05939 0.4737 0.30135 0.0
O313 O 0.0626 0.4999 0.30851 0.0
O314 O 0.03248 0.44947 0.34693 0.0
Zn315 Zn 0.07082 0.45349 0.33417 0.0
O316 O 0.09124 0.49329 0.33772 0.0
C317 C 0.11609 0.4235 0.35334 0.0
O318 O 0.11786 0.44999 0.36031 0.0
O319 O 0.06173 0.44992 0.30991 0.0
C320 C 0.08989 0.51051 0.35012 0.0
O321 O 0.07387 0.50261 0.36294 0.0
C322 C 0.00866 0.46356 0.34333 0.0
O323 O 0.00917 0.48322 0.33132 0.0
O324 O 0.09798 0.41971 0.34147 0.0
C325 C 0.2528 0.31214 0.04808 0.0
O326 O 0.232 0.30576 0.05894 0.0
O327 O 0.29556 0.28545 0.08767 0.0
Zn328 Zn 0.28392 0.32507 0.07755 0.0
O329 O 0.24584 0.34169 0.08711 0.0
C330 C 0.34324 0.34661 0.08541 0.0
O331 O 0.35052 0.31841 0.08292 0.0
O332 O 0.27833 0.32088 0.05309 0.0
C333 C 0.23607 0.33636 0.10146 0.0
O334 O 0.25089 0.31791 0.11104 0.0
C335 C 0.27899 0.26263 0.0899 0.0
O336 O 0.25075 0.2636 0.08543 0.0
O337 O 0.31634 0.35483 0.08305 0.0
C338 C 0.43843 0.53417 0.80681 0.0
O339 O 0.43659 0.50869 0.81485 0.0
O340 O 0.47613 0.5632 0.84979 0.0
Zn341 Zn 0.43533 0.55835 0.83961 0.0
O342 O 0.41538 0.51987 0.84665 0.0
C343 C 0.4006 0.5918 0.8623 0.0
O344 O 0.407 0.56809 0.87121 0.0
O345 O 0.43849 0.55871 0.81481 0.0
C346 C 0.42606 0.50047 0.85647 0.0
O347 O 0.45246 0.50498 0.86312 0.0
C348 C 0.5 0.55224 0.84378 0.0
O349 O 0.49845 0.53576 0.83044 0.0
O350 O 0.41012 0.59304 0.84759 0.0
C351 C 0.19609 0.66765 0.54637 0.0
O352 O 0.17754 0.68954 0.54999 0.0
O353 O 0.18213 0.6988 0.58551 0.0
Zn354 Zn 0.19716 0.65677 0.58179 0.0
O355 O 0.23655 0.64976 0.59316 0.0
C356 C 0.13883 0.63085 0.5893 0.0
O357 O 0.12866 0.65577 0.58274 0.0
O358 O 0.20578 0.65079 0.55777 0.0
C359 C 0.23879 0.63354 0.60592 0.0
O360 O 0.21434 0.62314 0.61287 0.0
C361 C 0.17824 0.71046 0.59959 0.0
O362 O 0.18477 0.69479 0.61277 0.0
O363 O 0.16691 0.62644 0.58986 0.0
C364 C 0.04489 0.50237 0.18226 0.0
O365 O 0.03793 0.48335 0.17055 0.0
O366 O 0.02626 0.54582 0.14258 0.0
Zn367 Zn 0.06431 0.53464 0.15432 0.0
O368 O 0.08191 0.49601 0.14592 0.0
C369 C 0.12059 0.56606 0.14706 0.0
O370 O 0.1318 0.539 0.14539 0.0
O371 O 0.05606 0.52766 0.17836 0.0
C372 C 0.08984 0.48937 0.1314 0.0
O373 O 0.08635 0.50912 0.11959 0.0
C374 C 0.0074 0.52763 0.13646 0.0
O375 O 0.01216 0.49863 0.13761 0.0
O376 O 0.09329 0.56909 0.1512 0.0
C377 C 0.24285 0.31726 0.92759 0.0
O378 O 0.26956 0.32261 0.92148 0.0
O379 O 0.21755 0.27465 0.88438 0.0
Zn380 Zn 0.22458 0.31629 0.89327 0.0
O381 O 0.26542 0.333 0.88735 0.0
C382 C 0.18224 0.34012 0.87001 0.0
O383 O 0.19411 0.31919 0.86072 0.0
O384 O 0.22075 0.31407 0.91791 0.0
C385 C 0.26917 0.35139 0.8756 0.0
O386 O 0.24626 0.35843 0.86629 0.0
C387 C 0.22881 0.2635 0.87141 0.0
O388 O 0.24822 0.27925 0.86288 0.0
O389 O 0.19174 0.34343 0.88461 0.0
C390 C 0.43285 0.49474 0.68813 0.0
O391 O 0.43401 0.51369 0.6758 0.0
O392 O 0.45653 0.44391 0.64947 0.0
Zn393 Zn 0.41857 0.45519 0.66163 0.0
O394 O 0.39692 0.48953 0.65077 0.0
C395 C 0.39695 0.39433 0.65561 0.0
O396 O 0.42522 0.38872 0.65238 0.0
O397 O 0.42708 0.46727 0.68521 0.0
C398 C 0.40678 0.50834 0.64036 0.0
O399 O 0.43456 0.50632 0.63519 0.0
C400 C 0.48103 0.45843 0.64986 0.0
O401 O 0.48273 0.48317 0.65857 0.0
O402 O 0.38952 0.42038 0.6605 0.0
C403 C 0.25956 0.68454 0.43121 0.0
O404 O 0.24042 0.70111 0.42299 0.0
O405 O 0.29652 0.71728 0.39187 0.0
Zn406 Zn 0.28465 0.67559 0.39908 0.0
O407 O 0.24563 0.66226 0.38927 0.0
C408 C 0.34343 0.65357 0.39002 0.0
O409 O 0.35211 0.68045 0.39465 0.0
O410 O 0.28114 0.67224 0.42358 0.0
C411 C 0.24291 0.65925 0.37384 0.0
O412 O 0.26528 0.66707 0.36426 0.0
C413 C 0.27919 0.73592 0.38487 0.0
O414 O 0.25093 0.72882 0.38264 0.0
O415 O 0.31592 0.64658 0.39111 0.0
H416 H 0.42439 0.9706 0.2789 0.0
H417 H 0.42918 0.06286 0.29579 0.0
H418 H 0.43128 0.0803 0.26703 0.0
H419 H 0.47608 0.97909 0.24573 0.0
H420 H 0.45619 0.95403 0.23222 0.0
H421 H 0.45391 0.94893 0.25411 0.0
H422 H 0.396 0.95194 0.25265 0.0
H423 H 0.3981 0.95693 0.23074 0.0
H424 H 0.3786 0.98407 0.24319 0.0
H425 H 0.43273 0.0876 0.23628 0.0
H426 H 0.43464 0.08397 0.20599 0.0
H427 H 0.43067 0.98685 0.20957 0.0
C428 C 0.42564 0.99449 0.27656 0.0
C429 C 0.42649 0.01539 0.28958 0.0
C430 C 0.4285 0.04644 0.286 0.0
C431 C 0.42967 0.05657 0.26971 0.0
C432 C 0.42901 0.03535 0.25716 0.0
C433 C 0.42714 0.00496 0.26041 0.0
C434 C 0.42758 0.98673 0.24475 0.0
C435 C 0.45508 0.96598 0.24417 0.0
C436 C 0.39833 0.96887 0.24272 0.0
C437 C 0.42996 0.0116 0.23218 0.0
C438 C 0.43059 0.0395 0.23955 0.0
C439 C 0.43233 0.06586 0.23037 0.0
C440 C 0.4334 0.06358 0.21319 0.0
C441 C 0.43295 0.03515 0.20542 0.0
C442 C 0.43129 0.00892 0.21512 0.0
H443 H 0.22159 0.21306 0.54521 0.0
H444 H 0.29701 0.15161 0.54426 0.0
H445 H 0.29226 0.14738 0.51418 0.0
H446 H 0.17826 0.17679 0.51442 0.0
H447 H 0.16457 0.21106 0.50539 0.0
H448 H 0.17434 0.21006 0.52683 0.0
H449 H 0.21105 0.25443 0.52256 0.0
H450 H 0.20127 0.2557 0.50113 0.0
H451 H 0.23989 0.25163 0.50714 0.0
H452 H 0.27785 0.14781 0.48449 0.0
H453 H 0.2567 0.15521 0.45684 0.0
H454 H 0.19146 0.21751 0.47687 0.0
C455 C 0.23724 0.19886 0.53867 0.0
C456 C 0.25965 0.18262 0.54711 0.0
C457 C 0.2797 0.16432 0.53808 0.0
C458 C 0.27715 0.16172 0.52099 0.0
C459 C 0.25459 0.17773 0.51309 0.0
C460 C 0.23516 0.19617 0.52159 0.0
C461 C 0.21284 0.21088 0.51013 0.0
C462 C 0.1806 0.20164 0.51445 0.0
C463 C 0.2165 0.2452 0.51025 0.0
C464 C 0.2226 0.19759 0.49387 0.0
C465 C 0.24665 0.17845 0.49588 0.0
C466 C 0.25915 0.16291 0.48274 0.0
C467 C 0.24688 0.16719 0.46709 0.0
C468 C 0.22245 0.187 0.46468 0.0
C469 C 0.21023 0.20237 0.47829 0.0
H470 H 0.05622 0.02821 0.77853 0.0
H471 H 0.05984 0.93681 0.79688 0.0
H472 H 0.05667 0.91769 0.76852 0.0
H473 H 0.00354 0.01348 0.74536 0.0
H474 H 0.02152 0.03937 0.7315 0.0
H475 H 0.02299 0.04581 0.75331 0.0
H476 H 0.08095 0.04772 0.75197 0.0
H477 H 0.07967 0.04117 0.73018 0.0
H478 H 0.10113 0.01657 0.7432 0.0
H479 H 0.05588 0.90852 0.73807 0.0
H480 H 0.05535 0.91008 0.70775 0.0
H481 H 0.05107 0.00736 0.70939 0.0
C482 C 0.05611 0.00417 0.77661 0.0
C483 C 0.05831 0.98402 0.78994 0.0
C484 C 0.05812 0.95271 0.78688 0.0
C485 C 0.05635 0.94161 0.77081 0.0
C486 C 0.05457 0.96208 0.75794 0.0
C487 C 0.05419 0.99269 0.76066 0.0
C488 C 0.05252 0.0099 0.74466 0.0
C489 C 0.02341 0.02822 0.74365 0.0
C490 C 0.08022 0.03002 0.74237 0.0
C491 C 0.0524 0.98418 0.73252 0.0
C492 C 0.05361 0.95678 0.74042 0.0
C493 C 0.05468 0.92984 0.73175 0.0
C494 C 0.05445 0.93095 0.71454 0.0
C495 C 0.05303 0.95881 0.7062 0.0
C496 C 0.0519 0.98569 0.71539 0.0
H497 H 0.24883 0.79254 0.97337 0.0
H498 H 0.29611 0.87639 0.96512 0.0
H499 H 0.28799 0.89039 0.99408 0.0
H500 H 0.19312 0.8215 0.00083 0.0
H501 H 0.19285 0.78882 0.01387 0.0
H502 H 0.20232 0.7852 0.99247 0.0
H503 H 0.25273 0.7602 0.00025 0.0
H504 H 0.24331 0.76354 0.02167 0.0
H505 H 0.27784 0.77927 0.01408 0.0
H506 H 0.27379 0.8959 0.02363 0.0
H507 H 0.25761 0.89106 0.05243 0.0
H508 H 0.22049 0.80309 0.04176 0.0
C509 C 0.25756 0.81381 0.97766 0.0
C510 C 0.27305 0.8334 0.96696 0.0
C511 C 0.28422 0.86098 0.97308 0.0
C512 C 0.27963 0.8692 0.9895 0.0
C513 C 0.26399 0.84952 -0.00034 0.0
C514 C 0.25335 0.82229 0.99404 0.0
C515 C 0.23772 0.80504 0.0076 0.0
C516 C 0.20453 0.79985 0.00344 0.0
C517 C 0.25387 0.77525 0.01111 0.0
C518 C 0.2412 0.82688 0.02172 0.0
C519 C 0.25624 0.85247 0.01682 0.0
C520 C 0.26207 0.87593 0.02763 0.0
C521 C 0.25268 0.87299 0.04397 0.0
C522 C 0.23779 0.84668 0.04938 0.0
C523 C 0.23181 0.82347 0.03801 0.0
H524 H 0.56263 0.96882 0.78971 0.0
H525 H 0.57447 0.06172 0.80444 0.0
H526 H 0.57344 0.07724 0.7754 0.0
H527 H 0.60848 0.97189 0.75374 0.0
H528 H 0.5846 0.94768 0.7418 0.0
H529 H 0.5859 0.94382 0.76379 0.0
H530 H 0.52836 0.9509 0.76533 0.0
H531 H 0.52687 0.95468 0.74334 0.0
H532 H 0.5116 0.98373 0.75626 0.0
H533 H 0.57262 0.08257 0.74473 0.0
H534 H 0.56984 0.07745 0.71457 0.0
H535 H 0.55746 0.98129 0.71993 0.0
C536 C 0.56492 0.99243 0.78684 0.0
C537 C 0.56867 0.01404 0.79935 0.0
C538 C 0.57152 0.04474 0.79507 0.0
C539 C 0.57102 0.0538 0.77861 0.0
C540 C 0.56749 0.03192 0.76657 0.0
C541 C 0.5643 0.0019 0.77047 0.0
C542 C 0.56068 0.98294 0.75518 0.0
C543 C 0.58646 0.96025 0.75354 0.0
C544 C 0.53005 0.96714 0.75502 0.0
C545 C 0.5625 0.00698 0.74209 0.0
C546 C 0.56654 0.03506 0.74891 0.0
C547 C 0.56933 0.06071 0.73924 0.0
C548 C 0.56778 0.05757 0.72213 0.0
C549 C 0.56334 0.029 0.7149 0.0
C550 C 0.56071 0.00346 0.72508 0.0
H551 H 0.73801 0.8609 0.46471 0.0
H552 H 0.67625 0.7886 0.45324 0.0
H553 H 0.67597 0.77348 0.48242 0.0
H554 H 0.78172 0.82019 0.49343 0.0
H555 H 0.78766 0.85172 0.50689 0.0
H556 H 0.78173 0.85782 0.4853 0.0
H557 H 0.73727 0.89322 0.49186 0.0
H558 H 0.74313 0.88731 0.51349 0.0
H559 H 0.70697 0.87987 0.50455 0.0
H560 H 0.68353 0.76551 0.51273 0.0
H561 H 0.69871 0.76493 0.54187 0.0
H562 H 0.75614 0.84201 0.53323 0.0
C563 C 0.72417 0.84206 0.46834 0.0
C564 C 0.70705 0.826 0.45671 0.0
C565 C 0.68951 0.80128 0.46194 0.0
C566 C 0.68918 0.79254 0.47848 0.0
C567 C 0.70655 0.80872 0.4896 0.0
C568 C 0.72371 0.83296 0.48474 0.0
C569 C 0.74112 0.84598 0.49899 0.0
C570 C 0.77506 0.84378 0.49597 0.0
C571 C 0.73154 0.87852 0.50242 0.0
C572 C 0.73124 0.82515 0.51262 0.0
C573 C 0.71118 0.80391 0.50698 0.0
C574 C 0.69916 0.78208 0.5173 0.0
C575 C 0.70793 0.78194 0.53383 0.0
C576 C 0.72862 0.8034 0.53983 0.0
C577 C 0.7403 0.82528 0.52903 0.0
H578 H 0.93028 0.04302 0.28692 0.0
H579 H 0.96393 0.96012 0.30797 0.0
H580 H 0.96635 0.93768 0.28034 0.0
H581 H 0.88364 0.00973 0.25704 0.0
H582 H 0.89122 0.03718 0.24133 0.0
H583 H 0.8938 0.04753 0.26264 0.0
H584 H 0.94838 0.06558 0.2582 0.0
H585 H 0.94589 0.05549 0.23683 0.0
H586 H 0.97544 0.04027 0.24937 0.0
H587 H 0.9619 0.92298 0.25064 0.0
H588 H 0.95352 0.91824 0.22075 0.0
H589 H 0.92375 0.01091 0.21904 0.0
C590 C 0.93853 0.02028 0.28571 0.0
C591 C 0.94692 0.00336 0.29964 0.0
C592 C 0.95743 0.9736 0.2975 0.0
C593 C 0.95886 0.9606 0.28185 0.0
C594 C 0.9499 0.97769 0.26842 0.0
C595 C 0.94023 0.00698 0.27015 0.0
C596 C 0.93128 0.02022 0.25375 0.0
C597 C 0.89801 0.02918 0.2537 0.0
C598 C 0.95146 0.04697 0.24927 0.0
C599 C 0.93702 0.99367 0.24258 0.0
C600 C 0.94775 0.96934 0.25127 0.0
C601 C 0.95377 0.94197 0.24367 0.0
C602 C 0.94883 0.93945 0.22671 0.0
C603 C 0.93809 0.96421 0.21754 0.0
C604 C 0.9322 0.99163 0.22566 0.0
H605 H 0.79714 0.15743 0.96808 0.0
H606 H 0.73623 0.23144 0.95877 0.0
H607 H 0.72052 0.23065 0.98777 0.0
H608 H 0.74939 0.11762 0.99607 0.0
H609 H 0.77955 0.10577 0.00925 0.0
H610 H 0.78643 0.1123 0.98776 0.0
H611 H 0.82842 0.15015 0.9951 0.0
H612 H 0.82175 0.14365 0.01661 0.0
H613 H 0.82012 0.18124 0.0085 0.0
H614 H 0.71108 0.22176 0.01767 0.0
H615 H 0.70913 0.20577 0.04664 0.0
H616 H 0.77597 0.13743 0.03657 0.0
C617 C 0.78058 0.17354 0.97214 0.0
C618 C 0.76794 0.19451 0.96113 0.0
C619 C 0.74626 0.21516 0.96695 0.0
C620 C 0.73716 0.21489 0.98341 0.0
C621 C 0.74991 0.19385 0.99392 0.0
C622 C 0.77118 0.17358 0.98855 0.0
C623 C 0.78128 0.15325 0.00238 0.0
C624 C 0.7737 0.12028 -0.00136 0.0
C625 C 0.81488 0.15733 0.00585 0.0
C626 C 0.76234 0.16527 0.01634 0.0
C627 C 0.7444 0.18867 0.01118 0.0
C628 C 0.72502 0.20346 0.02186 0.0
C629 C 0.72407 0.19419 0.0383 0.0
C630 C 0.74237 0.17034 0.0439 0.0
C631 C 0.76164 0.15569 0.0327 0.0
H632 H 0.91577 0.47255 0.7104 0.0
H633 H 0.93363 0.56784 0.70505 0.0
H634 H 0.93988 0.57215 0.73508 0.0
H635 H 0.87319 0.47822 0.74782 0.0
H636 H 0.88792 0.44394 0.75633 0.0
H637 H 0.88499 0.44829 0.73441 0.0
H638 H 0.94157 0.43668 0.73132 0.0
H639 H 0.94466 0.4322 0.75322 0.0
H640 H 0.96845 0.4586 0.74267 0.0
H641 H 0.94515 0.56587 0.76553 0.0
H642 H 0.94852 0.54972 0.79441 0.0
H643 H 0.92596 0.45867 0.78001 0.0
C644 C 0.92106 0.49434 0.71552 0.0
C645 C 0.9243 0.51987 0.70537 0.0
C646 C 0.93105 0.54799 0.71258 0.0
C647 C 0.93463 0.55066 0.72962 0.0
C648 C 0.93121 0.52504 0.73926 0.0
C649 C 0.92451 0.49744 0.73249 0.0
C650 C 0.92191 0.47343 0.74558 0.0
C651 C 0.89011 0.4602 0.74606 0.0
C652 C 0.94556 0.44878 0.74304 0.0
C653 C 0.92841 0.49181 0.76079 0.0
C654 C 0.93375 0.52151 0.75685 0.0
C655 C 0.94089 0.54271 0.76877 0.0
C656 C 0.94279 0.53328 0.78514 0.0
C657 C 0.93743 0.50295 0.78947 0.0
C658 C 0.92994 0.48204 0.7771 0.0
H659 H 0.77499 0.65414 0.0309 0.0
H660 H 0.71551 0.72872 0.0415 0.0
H661 H 0.70203 0.73174 0.01216 0.0
H662 H 0.80188 0.68141 0.99209 0.0
H663 H 0.803 0.64473 0.98279 0.0
H664 H 0.808 0.64863 0.00461 0.0
H665 H 0.76421 0.61153 0.00963 0.0
H666 H 0.75898 0.60764 0.98781 0.0
H667 H 0.72811 0.61907 0.00063 0.0
H668 H 0.69536 0.72689 0.98158 0.0
H669 H 0.69635 0.71469 0.95199 0.0
H670 H 0.75942 0.64271 0.96162 0.0
C671 C 0.75921 0.67119 0.02706 0.0
C672 C 0.74635 0.69124 0.0385 0.0
C673 C 0.72567 0.71312 0.03296 0.0
C674 C 0.71784 0.715 0.01633 0.0
C675 C 0.73078 0.69477 0.0054 0.0
C676 C 0.75103 0.67329 0.01053 0.0
C677 C 0.76165 0.65418 0.99632 0.0
C678 C 0.79565 0.65745 0.99381 0.0
C679 C 0.75269 0.62115 -0.00125 0.0
C680 C 0.74434 0.66838 0.98237 0.0
C681 C 0.72666 0.69175 0.98785 0.0
C682 C 0.70906 0.70858 0.97715 0.0
C683 C 0.70976 0.70147 0.96037 0.0
C684 C 0.72788 0.6777 0.95449 0.0
C685 C 0.74517 0.66088 0.96572 0.0
H686 H 0.57187 0.46969 0.28124 0.0
H687 H 0.55994 0.56641 0.28187 0.0
H688 H 0.55328 0.56616 0.25183 0.0
H689 H 0.61428 0.46686 0.2441 0.0
H690 H 0.5977 0.4323 0.23706 0.0
H691 H 0.60037 0.43987 0.25872 0.0
H692 H 0.54312 0.43207 0.26172 0.0
H693 H 0.54026 0.42455 0.24005 0.0
H694 H 0.51789 0.45377 0.24919 0.0
H695 H 0.54891 0.55575 0.22181 0.0
H696 H 0.54862 0.53609 0.19355 0.0
H697 H 0.56377 0.4461 0.21226 0.0
C698 C 0.5677 0.49081 0.27508 0.0
C699 C 0.56636 0.51807 0.28393 0.0
C700 C 0.56108 0.54524 0.27537 0.0
C701 C 0.55718 0.54533 0.25831 0.0
C702 C 0.55867 0.5181 0.24997 0.0
C703 C 0.56388 0.49134 0.25804 0.0
C704 C 0.56531 0.46533 0.24608 0.0
C705 C 0.59626 0.45021 0.24652 0.0
C706 C 0.54014 0.44259 0.24947 0.0
C707 C 0.56028 0.48171 0.23003 0.0
C708 C 0.55634 0.5121 0.23258 0.0
C709 C 0.55188 0.53198 0.21964 0.0
C710 C 0.55176 0.52056 0.20363 0.0
C711 C 0.55615 0.48954 0.20067 0.0
C712 C 0.5602 0.46989 0.21411 0.0
H713 H 0.71247 0.30602 0.52963 0.0
H714 H 0.75819 0.38962 0.54074 0.0
H715 H 0.77696 0.39189 0.51227 0.0
H716 H 0.76952 0.27558 0.50323 0.0
H717 H 0.74325 0.25868 0.48921 0.0
H718 H 0.73328 0.26359 0.51047 0.0
H719 H 0.68599 0.29338 0.50191 0.0
H720 H 0.69571 0.28841 0.48063 0.0
H721 H 0.68988 0.32561 0.4887 0.0
H722 H 0.79027 0.38542 0.48252 0.0
H723 H 0.79653 0.37108 0.45346 0.0
H724 H 0.74283 0.29127 0.46187 0.0
C725 C 0.72636 0.32486 0.52608 0.0
C726 C 0.73381 0.34768 0.53743 0.0
C727 C 0.75214 0.37189 0.53228 0.0
C728 C 0.76297 0.37335 0.51613 0.0
C729 C 0.75535 0.35041 0.5053 0.0
C730 C 0.73745 0.32664 0.51004 0.0
C731 C 0.73245 0.30498 0.49597 0.0
C732 C 0.74541 0.27387 0.49997 0.0
C733 C 0.69902 0.303 0.49154 0.0
C734 C 0.75023 0.32037 0.48256 0.0
C735 C 0.76329 0.34652 0.4882 0.0
C736 C 0.78024 0.36494 0.47797 0.0
C737 C 0.78367 0.35659 0.46148 0.0
C738 C 0.77026 0.33 0.45539 0.0
C739 C 0.75359 0.31158 0.46617 0.0
H740 H 0.06471 0.51915 0.27904 0.0
H741 H 0.04153 0.42486 0.28331 0.0
H742 H 0.03259 0.42272 0.25337 0.0
H743 H 0.01116 0.53839 0.24733 0.0
H744 H 0.03657 0.56352 0.23699 0.0
H745 H 0.03958 0.55796 0.25883 0.0
H746 H 0.09522 0.54263 0.25542 0.0
H747 H 0.09241 0.54821 0.2336 0.0
H748 H 0.10483 0.5126 0.24157 0.0
H749 H 0.02709 0.43079 0.22295 0.0
H750 H 0.02803 0.4475 0.1941 0.0
H751 H 0.05617 0.53629 0.20976 0.0
C752 C 0.05749 0.49809 0.27372 0.0
C753 C 0.05365 0.47219 0.28351 0.0
C754 C 0.04459 0.44497 0.27603 0.0
C755 C 0.03936 0.44358 0.25906 0.0
C756 C 0.04343 0.46955 0.24978 0.0
C757 C 0.05244 0.49624 0.25683 0.0
C758 C 0.05655 0.52057 0.24405 0.0
C759 C 0.03466 0.54665 0.24698 0.0
C760 C 0.08919 0.53164 0.24364 0.0
C761 C 0.04866 0.50335 0.22865 0.0
C762 C 0.04087 0.47404 0.23224 0.0
C763 C 0.03309 0.4537 0.22 0.0
C764 C 0.03366 0.46345 0.20364 0.0
C765 C 0.04219 0.49322 0.19965 0.0
C766 C 0.04949 0.51343 0.2124 0.0
H767 H 0.29048 0.32356 0.02205 0.0
H768 H 0.19959 0.29644 0.03397 0.0
H769 H 0.18735 0.29451 0.0045 0.0
H770 H 0.27169 0.37099 0.98818 0.0
H771 H 0.30382 0.36053 0.97606 0.0
H772 H 0.30576 0.35923 -0.00187 0.0
H773 H 0.32155 0.30333 0.99683 0.0
H774 H 0.31974 0.30449 0.97475 0.0
H775 H 0.29835 0.27691 0.98592 0.0
H776 H 0.18447 0.2967 0.97386 0.0
H777 H 0.19158 0.30161 0.94394 0.0
H778 H 0.28443 0.3268 0.95186 0.0
C779 C 0.26804 0.3171 0.01847 0.0
C780 C 0.246 0.31016 0.03034 0.0
C781 C 0.21688 0.30183 0.02512 0.0
C782 C 0.20968 0.30069 0.0084 0.0
C783 C 0.23184 0.30784 0.99704 0.0
C784 C 0.26046 0.31576 0.00181 0.0
C785 C 0.28005 0.32253 0.98708 0.0
C786 C 0.29096 0.35527 0.98739 0.0
C787 C 0.30648 0.30049 0.98609 0.0
C788 C 0.25791 0.3173 0.9733 0.0
C789 C 0.23023 0.30888 0.97932 0.0
C790 C 0.20607 0.30318 0.96898 0.0
C791 C 0.21033 0.30608 0.952 0.0
C792 C 0.23857 0.31454 0.94554 0.0
C793 C 0.2626 0.3202 0.95639 0.0
H794 H 0.43243 0.48604 0.7861 0.0
H795 H 0.44797 0.58223 0.78643 0.0
H796 H 0.45006 0.5821 0.75613 0.0
H797 H 0.48073 0.46853 0.75167 0.0
H798 H 0.45598 0.44018 0.74361 0.0
H799 H 0.45675 0.44765 0.76534 0.0
H800 H 0.39956 0.45746 0.76504 0.0
H801 H 0.39861 0.45 0.74333 0.0
H802 H 0.38445 0.48506 0.75116 0.0
H803 H 0.44949 0.57169 0.7259 0.0
H804 H 0.4451 0.55215 0.69772 0.0
H805 H 0.42934 0.46266 0.71701 0.0
C806 C 0.43646 0.50708 0.77983 0.0
C807 C 0.44012 0.53416 0.78866 0.0
C808 C 0.44511 0.56122 0.77995 0.0
C809 C 0.4464 0.56135 0.76274 0.0
C810 C 0.44261 0.53427 0.75444 0.0
C811 C 0.43768 0.50764 0.76268 0.0
C812 C 0.43346 0.48178 0.75081 0.0
C813 C 0.45821 0.45814 0.75299 0.0
C814 C 0.40216 0.46776 0.7527 0.0
C815 C 0.43659 0.49807 0.73459 0.0
C816 C 0.44202 0.5283 0.73698 0.0
C817 C 0.44532 0.54806 0.72387 0.0
C818 C 0.44278 0.53669 0.7079 0.0
C819 C 0.43687 0.50584 0.70512 0.0
C820 C 0.43396 0.48632 0.7187 0.0
H821 H 0.18014 0.69939 0.51877 0.0
H822 H 0.23953 0.62887 0.53588 0.0
H823 H 0.2623 0.62586 0.50837 0.0
H824 H 0.16833 0.6685 0.47793 0.0
H825 H 0.16772 0.70482 0.46821 0.0
H826 H 0.15555 0.7009 0.48918 0.0
H827 H 0.19386 0.74144 0.49808 0.0
H828 H 0.20634 0.74531 0.47716 0.0
H829 H 0.2329 0.73656 0.4931 0.0
H830 H 0.28028 0.63201 0.47948 0.0
H831 H 0.28989 0.64447 0.45045 0.0
H832 H 0.21821 0.71025 0.45186 0.0
C833 C 0.19776 0.68313 0.51671 0.0
C834 C 0.20805 0.66439 0.52951 0.0
C835 C 0.23119 0.64344 0.52628 0.0
C836 C 0.24436 0.6416 0.5107 0.0
C837 C 0.23402 0.66072 0.49844 0.0
C838 C 0.21106 0.68087 0.50119 0.0
C839 C 0.20419 0.69886 0.48587 0.0
C840 C 0.17204 0.6929 0.47995 0.0
C841 C 0.20966 0.73253 0.48873 0.0
C842 C 0.22705 0.68581 0.47412 0.0
C843 C 0.2441 0.66393 0.48166 0.0
C844 C 0.26697 0.64898 0.4734 0.0
C845 C 0.27232 0.65631 0.45693 0.0
C846 C 0.25478 0.67829 0.44886 0.0
C847 C 0.23196 0.69328 0.45766 0.0
H848 H 0.37188 0.97336 0.1105 0.0
H849 H 0.4062 0.95421 0.15923 0.0
H850 H 0.38055 0.90519 0.15888 0.0
H851 H 0.30102 0.9448 0.1168 0.0
H852 H 0.29655 0.92917 0.09654 0.0
H853 H 0.32095 0.96076 0.09963 0.0
H854 H 0.36498 0.93119 0.08664 0.0
H855 H 0.34059 0.89948 0.08345 0.0
H856 H 0.37494 0.89494 0.09479 0.0
H857 H 0.3461 0.86112 0.15465 0.0
H858 H 0.30634 0.8254 0.14653 0.0
H859 H 0.29555 0.87324 0.10049 0.0
C860 C 0.37461 0.95858 0.12094 0.0
C861 C 0.39109 0.96763 0.13486 0.0
C862 C 0.39374 0.94776 0.14838 0.0
C863 C 0.37932 0.91981 0.1483 0.0
C864 C 0.36258 0.91191 0.13454 0.0
C865 C 0.3604 0.93061 0.12105 0.0
C866 C 0.33922 0.91792 0.10834 0.0
C867 C 0.31288 0.93944 0.10516 0.0
C868 C 0.35594 0.91043 0.09236 0.0
C869 C 0.32902 0.88972 0.11705 0.0
C870 C 0.34295 0.88641 0.13206 0.0
C871 C 0.33542 0.86318 0.14278 0.0
C872 C 0.31278 0.84304 0.13809 0.0
C873 C 0.29792 0.8464 0.12286 0.0
C874 C 0.30668 0.86976 0.11214 0.0
H875 H 0.26036 0.1233 0.37851 0.0
H876 H 0.32784 0.15995 0.41122 0.0
H877 H 0.36542 0.12555 0.39931 0.0
H878 H 0.28319 0.04822 0.38133 0.0
H879 H 0.27556 0.03931 0.36016 0.0
H880 H 0.25467 0.06846 0.37028 0.0
H881 H 0.27029 0.10635 0.34769 0.0
H882 H 0.29106 0.07723 0.33741 0.0
H883 H 0.30944 0.11169 0.34314 0.0
H884 H 0.39472 0.08465 0.38504 0.0
H885 H 0.41373 0.04169 0.36891 0.0
H886 H 0.32665 0.0323 0.34579 0.0
C887 C 0.28313 0.12447 0.38303 0.0
C888 C 0.29118 0.14437 0.39578 0.0
C889 C 0.32118 0.14496 0.40141 0.0
C890 C 0.34268 0.1255 0.39474 0.0
C891 C 0.3338 0.10573 0.38241 0.0
C892 C 0.30478 0.10525 0.37654 0.0
C893 C 0.3006 0.08112 0.36369 0.0
C894 C 0.27712 0.05791 0.36921 0.0
C895 C 0.29237 0.09493 0.347 0.0
C896 C 0.33169 0.06777 0.36341 0.0
C897 C 0.35059 0.0823 0.37424 0.0
C898 C 0.38019 0.07327 0.37642 0.0
C899 C 0.39075 0.04881 0.36725 0.0
C900 C 0.37169 0.03368 0.35607 0.0
C901 C 0.34184 0.04345 0.35417 0.0
H902 H 0.13328 0.00516 0.61373 0.0
H903 H 0.08637 0.03514 0.65744 0.0
H904 H 0.11234 0.08399 0.65571 0.0
H905 H 0.20236 0.03684 0.62322 0.0
H906 H 0.21158 0.04737 0.60247 0.0
H907 H 0.18704 0.01609 0.60618 0.0
H908 H 0.14627 0.0407 0.58799 0.0
H909 H 0.17077 0.07208 0.58417 0.0
H910 H 0.13389 0.0783 0.5925 0.0
H911 H 0.14735 0.12766 0.65074 0.0
H912 H 0.18758 0.16278 0.64252 0.0
H913 H 0.21033 0.10425 0.6018 0.0
C914 C 0.12806 0.02214 0.6228 0.0
C915 C 0.10778 0.01631 0.63571 0.0
C916 C 0.10175 0.03911 0.64739 0.0
C917 C 0.11637 0.06696 0.6465 0.0
C918 C 0.13668 0.07175 0.63377 0.0
C919 C 0.14231 0.05004 0.62205 0.0
C920 C 0.16626 0.06011 0.61012 0.0
C921 C 0.19341 0.03884 0.61054 0.0
C922 C 0.15353 0.06297 0.59266 0.0
C923 C 0.17386 0.09051 0.61723 0.0
C924 C 0.15646 0.09698 0.6308 0.0
C925 C 0.1608 0.12304 0.63998 0.0
C926 C 0.18374 0.14282 0.63525 0.0
C927 C 0.202 0.13639 0.62147 0.0
C928 C 0.19655 0.11008 0.61226 0.0
H929 H 0.14042 0.96976 0.84631 0.0
H930 H 0.07521 0.95727 0.88528 0.0
H931 H 0.10724 0.91791 0.89747 0.0
H932 H 0.16285 0.89114 0.84253 0.0
H933 H 0.20153 0.90059 0.83884 0.0
H934 H 0.17232 0.92598 0.83254 0.0
H935 H 0.19695 0.9687 0.8494 0.0
H936 H 0.22623 0.94353 0.8557 0.0
H937 H 0.20434 0.96302 0.87093 0.0
H938 H 0.14812 0.88232 0.90633 0.0
H939 H 0.195 0.85458 0.9116 0.0
H940 H 0.23292 0.89061 0.86664 0.0
C941 C 0.13263 0.95856 0.85731 0.0
C942 C 0.10526 0.96657 0.86483 0.0
C943 C 0.09607 0.95149 0.87929 0.0
C944 C 0.11406 0.92903 0.88627 0.0
C945 C 0.14104 0.92187 0.87858 0.0
C946 C 0.15024 0.93619 0.86441 0.0
C947 C 0.18089 0.92562 0.85901 0.0
C948 C 0.17928 0.90989 0.84224 0.0
C949 C 0.20342 0.95177 0.85876 0.0
C950 C 0.18786 0.90356 0.87258 0.0
C951 C 0.16449 0.90145 0.88366 0.0
C952 C 0.16643 0.88356 0.89765 0.0
C953 C 0.19316 0.86789 0.90053 0.0
C954 C 0.21762 0.87035 0.88951 0.0
C955 C 0.21457 0.88799 0.87521 0.0
H956 H 0.74793 0.10329 0.87134 0.0
H957 H 0.70502 0.16894 0.90291 0.0
H958 H 0.65631 0.14385 0.89852 0.0
H959 H 0.68559 0.09387 0.84233 0.0
H960 H 0.69239 0.0542 0.8402 0.0
H961 H 0.72302 0.0793 0.84453 0.0
H962 H 0.73648 0.04765 0.87019 0.0
H963 H 0.7057 0.02271 0.86606 0.0
H964 H 0.7084 0.04115 0.8857 0.0
H965 H 0.61285 0.10907 0.89223 0.0
H966 H 0.57822 0.0685 0.88384 0.0
H967 H 0.65053 0.02565 0.85699 0.0
C968 C 0.72823 0.11283 0.87707 0.0
C969 C 0.73029 0.13816 0.88741 0.0
C970 C 0.70398 0.14962 0.89487 0.0
C971 C 0.67621 0.13551 0.89247 0.0
C972 C 0.67515 0.11004 0.88256 0.0
C973 C 0.70046 0.09897 0.87488 0.0
C974 C 0.69376 0.07039 0.86557 0.0
C975 C 0.699 0.07471 0.84706 0.0
C976 C 0.71217 0.04392 0.87229 0.0
C977 C 0.66085 0.06679 0.86943 0.0
C978 C 0.65039 0.08994 0.87914 0.0
C979 C 0.62076 0.09095 0.88453 0.0
C980 C 0.60129 0.06777 0.87975 0.0
C981 C 0.61164 0.04387 0.86979 0.0
C982 C 0.64185 0.04354 0.86463 0.0
H983 H 0.60688 0.96213 0.61625 0.0
H984 H 0.61146 0.95828 0.66945 0.0
H985 H 0.64607 0.91537 0.6676 0.0
H986 H 0.61182 0.87963 0.60935 0.0
H987 H 0.63439 0.88434 0.59118 0.0
H988 H 0.60724 0.9125 0.5967 0.0
H989 H 0.64884 0.95307 0.59625 0.0
H990 H 0.67607 0.92509 0.5908 0.0
H991 H 0.68177 0.94805 0.60874 0.0
H992 H 0.6854 0.87785 0.66002 0.0
H993 H 0.72446 0.84639 0.64709 0.0
H994 H 0.69248 0.87283 0.59895 0.0
C995 C 0.61467 0.95188 0.62751 0.0
C996 C 0.60648 0.96361 0.64298 0.0
C997 C 0.61735 0.94967 0.65744 0.0
C998 C 0.637 0.92523 0.65653 0.0
C999 C 0.64522 0.91469 0.64109 0.0
C1000 C 0.63409 0.92729 0.62683 0.0
C1001 C 0.6478 0.91286 0.61178 0.0
C1002 C 0.62388 0.89635 0.60166 0.0
C1003 C 0.66462 0.93616 0.60129 0.0
C1004 C 0.66918 0.89099 0.61981 0.0
C1005 C 0.66725 0.89227 0.63672 0.0
C1006 C 0.68668 0.87613 0.64679 0.0
C1007 C 0.70884 0.85843 0.63936 0.0
C1008 C 0.71119 0.8569 0.62206 0.0
C1009 C 0.69073 0.873 0.61221 0.0
H1010 H 0.78539 0.87302 0.36184 0.0
H1011 H 0.79096 0.86756 0.41493 0.0
H1012 H 0.83218 0.90448 0.41475 0.0
H1013 H 0.86649 0.8851 0.35381 0.0
H1014 H 0.85906 0.91136 0.33749 0.0
H1015 H 0.83307 0.88131 0.34159 0.0
H1016 H 0.79024 0.92009 0.34484 0.0
H1017 H 0.81608 0.9502 0.34089 0.0
H1018 H 0.79422 0.95014 0.35949 0.0
H1019 H 0.86928 0.94532 0.4091 0.0
H1020 H 0.89917 0.98763 0.39838 0.0
H1021 H 0.86838 0.96741 0.34905 0.0
C1022 C 0.79586 0.87896 0.37338 0.0
C1023 C 0.7852 0.86726 0.38839 0.0
C1024 C 0.7989 0.87619 0.40328 0.0
C1025 C 0.82237 0.89707 0.40331 0.0
C1026 C 0.83184 0.90881 0.38834 0.0
C1027 C 0.81909 0.90004 0.37363 0.0
C1028 C 0.83148 0.91806 0.35941 0.0
C1029 C 0.84854 0.89774 0.34737 0.0
C1030 C 0.80652 0.93566 0.35065 0.0
C1031 C 0.85259 0.93883 0.36847 0.0
C1032 C 0.8528 0.93286 0.38511 0.0
C1033 C 0.86958 0.95 0.39607 0.0
C1034 C 0.88643 0.97402 0.38986 0.0
C1035 C 0.88613 0.98083 0.37288 0.0
C1036 C 0.8692 0.96272 0.36209 0.0
H1037 H 0.77766 0.09205 0.13966 0.0
H1038 H 0.82128 0.1354 0.09833 0.0
H1039 H 0.86694 0.10562 0.10351 0.0
H1040 H 0.84401 0.08602 0.1659 0.0
H1041 H 0.83315 0.04972 0.17365 0.0
H1042 H 0.80492 0.07631 0.16751 0.0
H1043 H 0.78239 0.03698 0.14758 0.0
H1044 H 0.81055 0.01033 0.15362 0.0
H1045 H 0.80609 0.01995 0.13227 0.0
H1046 H 0.90671 0.06867 0.11217 0.0
H1047 H 0.93712 0.0272 0.12345 0.0
H1048 H 0.86699 0.00816 0.15891 0.0
C1049 C 0.79695 0.09566 0.13184 0.0
C1050 C 0.79593 0.11615 0.11863 0.0
C1051 C 0.82156 0.11989 0.10856 0.0
C1052 C 0.84762 0.10311 0.11142 0.0
C1053 C 0.8477 0.08278 0.12441 0.0
C1054 C 0.82305 0.07906 0.13448 0.0
C1055 C 0.82825 0.05463 0.14705 0.0
C1056 C 0.82755 0.06744 0.16456 0.0
C1057 C 0.80547 0.02896 0.14499 0.0
C1058 C 0.85948 0.04479 0.1423 0.0
C1059 C 0.87045 0.06144 0.12931 0.0
C1060 C 0.89845 0.05565 0.12243 0.0
C1061 C 0.91555 0.03204 0.12891 0.0
C1062 C 0.90448 0.01445 0.14208 0.0
C1063 C 0.8762 0.02125 0.14891 0.0
H1064 H 0.78259 0.36134 0.59572 0.0
H1065 H 0.74107 0.34977 0.64347 0.0
H1066 H 0.78177 0.37921 0.65618 0.0
H1067 H 0.8625 0.36175 0.61 0.0
H1068 H 0.87256 0.39051 0.59544 0.0
H1069 H 0.8434 0.36399 0.59055 0.0
H1070 H 0.80681 0.40791 0.58503 0.0
H1071 H 0.83568 0.43451 0.59 0.0
H1072 H 0.80049 0.4355 0.60084 0.0
H1073 H 0.82256 0.41493 0.66311 0.0
H1074 H 0.8603 0.4552 0.66389 0.0
H1075 H 0.87507 0.44482 0.61151 0.0
C1076 C 0.78262 0.36414 0.60893 0.0
C1077 C 0.75889 0.35301 0.61867 0.0
C1078 C 0.75916 0.35795 0.63582 0.0
C1079 C 0.78224 0.37454 0.64314 0.0
C1080 C 0.80483 0.38602 0.63313 0.0
C1081 C 0.8053 0.38096 0.6164 0.0
C1082 C 0.83016 0.39862 0.60817 0.0
C1083 C 0.85354 0.37745 0.6006 0.0
C1084 C 0.81751 0.42043 0.59526 0.0
C1085 C 0.84287 0.41526 0.6228 0.0
C1086 C 0.82825 0.40723 0.63712 0.0
C1087 C 0.83449 0.42106 0.65204 0.0
C1088 C 0.85589 0.44402 0.65233 0.0
C1089 C 0.8707 0.45313 0.63776 0.0
C1090 C 0.86446 0.43808 0.62288 0.0
H1091 H 0.88965 0.54017 0.8457 0.0
H1092 H 0.92411 0.52319 0.89463 0.0
H1093 H 0.8941 0.56552 0.90529 0.0
H1094 H 0.88384 0.62301 0.84908 0.0
H1095 H 0.84937 0.62378 0.83759 0.0
H1096 H 0.87692 0.59522 0.83345 0.0
H1097 H 0.83692 0.55406 0.83847 0.0
H1098 H 0.80934 0.5824 0.84267 0.0
H1099 H 0.8167 0.55353 0.85763 0.0
H1100 H 0.85669 0.60622 0.91102 0.0
H1101 H 0.81355 0.64072 0.91164 0.0
H1102 H 0.80272 0.63002 0.859 0.0
C1103 C 0.89151 0.54579 0.85859 0.0
C1104 C 0.9094 0.52853 0.86932 0.0
C1105 C 0.91064 0.5362 0.88617 0.0
C1106 C 0.89378 0.56027 0.89233 0.0
C1107 C 0.87584 0.5764 0.88146 0.0
C1108 C 0.87464 0.56949 0.86494 0.0
C1109 C 0.85145 0.58828 0.85612 0.0
C1110 C 0.86629 0.60879 0.8433 0.0
C1111 C 0.82718 0.56837 0.84827 0.0
C1112 C 0.83912 0.60623 0.87035 0.0
C1113 C 0.85383 0.59945 0.88481 0.0
C1114 C 0.84527 0.61199 0.89975 0.0
C1115 C 0.82069 0.63155 0.89996 0.0
C1116 C 0.80476 0.63812 0.88535 0.0
C1117 C 0.81456 0.62567 0.87035 0.0
H1118 H 0.73148 0.58252 0.12606 0.0
H1119 H 0.68409 0.64256 0.09312 0.0
H1120 H 0.63761 0.61363 0.09753 0.0
H1121 H 0.6966 0.51587 0.11295 0.0
H1122 H 0.69498 0.49906 0.13305 0.0
H1123 H 0.72401 0.5257 0.12827 0.0
H1124 H 0.70812 0.55849 0.15307 0.0
H1125 H 0.6792 0.53178 0.15803 0.0
H1126 H 0.66976 0.57066 0.15484 0.0
H1127 H 0.59698 0.57625 0.10429 0.0
H1128 H 0.5649 0.5345 0.11383 0.0
H1129 H 0.63927 0.49925 0.14221 0.0
C1130 C 0.71126 0.5899 0.11995 0.0
C1131 C 0.71144 0.61484 0.10927 0.0
C1132 C 0.6845 0.62356 0.1014 0.0
C1133 C 0.65798 0.60725 0.10381 0.0
C1134 C 0.65876 0.58239 0.11415 0.0
C1135 C 0.68465 0.57389 0.1222 0.0
C1136 C 0.67979 0.54578 0.13226 0.0
C1137 C 0.70005 0.52009 0.12627 0.0
C1138 C 0.68449 0.55206 0.15064 0.0
C1139 C 0.64723 0.53957 0.12846 0.0
C1140 C 0.63544 0.56094 0.11803 0.0
C1141 C 0.60591 0.55949 0.11255 0.0
C1142 C 0.5879 0.53564 0.11799 0.0
C1143 C 0.59954 0.51362 0.12877 0.0
C1144 C 0.62963 0.51573 0.134 0.0
H1145 H 0.70897 0.38034 0.37392 0.0
H1146 H 0.66198 0.35382 0.41829 0.0
H1147 H 0.61886 0.38508 0.41009 0.0
H1148 H 0.68782 0.45482 0.37435 0.0
H1149 H 0.68368 0.45851 0.35244 0.0
H1150 H 0.70908 0.43114 0.36071 0.0
H1151 H 0.6819 0.38906 0.34455 0.0
H1152 H 0.65643 0.41639 0.33615 0.0
H1153 H 0.64207 0.38419 0.34699 0.0
H1154 H 0.58363 0.42391 0.39871 0.0
H1155 H 0.55856 0.46609 0.38463 0.0
H1156 H 0.62836 0.46612 0.34751 0.0
C1157 C 0.68939 0.38059 0.38177 0.0
C1158 C 0.68883 0.36461 0.39674 0.0
C1159 C 0.66286 0.36575 0.40672 0.0
C1160 C 0.63824 0.38343 0.40216 0.0
C1161 C 0.63983 0.39948 0.38751 0.0
C1162 C 0.66463 0.39795 0.37738 0.0
C1163 C 0.66164 0.41883 0.36283 0.0
C1164 C 0.68705 0.4422 0.36259 0.0
C1165 C 0.66043 0.40105 0.34668 0.0
C1166 C 0.63176 0.43316 0.36665 0.0
C1167 C 0.61937 0.42153 0.38085 0.0
C1168 C 0.59285 0.43282 0.38742 0.0
C1169 C 0.57883 0.45683 0.37937 0.0
C1170 C 0.5914 0.46927 0.36492 0.0
C1171 C 0.61793 0.45684 0.35839 0.0
H1172 H 0.10866 0.54271 0.37694 0.0
H1173 H 0.11372 0.53965 0.32376 0.0
H1174 H 0.14899 0.58221 0.32399 0.0
H1175 H 0.11678 0.62577 0.38135 0.0
H1176 H 0.13975 0.62204 0.39942 0.0
H1177 H 0.1114 0.59439 0.395 0.0
H1178 H 0.15148 0.55241 0.39627 0.0
H1179 H 0.17988 0.57987 0.40064 0.0
H1180 H 0.18417 0.555 0.38335 0.0
H1181 H 0.18791 0.62071 0.32999 0.0
H1182 H 0.22838 0.65206 0.34145 0.0
H1183 H 0.1984 0.63021 0.39073 0.0
C1184 C 0.11657 0.55156 0.36533 0.0
C1185 C 0.10834 0.53802 0.35033 0.0
C1186 C 0.11972 0.54972 0.33541 0.0
C1187 C 0.13965 0.57399 0.3354 0.0
C1188 C 0.14793 0.58638 0.35041 0.0
C1189 C 0.13669 0.57567 0.36511 0.0
C1190 C 0.15143 0.59106 0.37958 0.0
C1191 C 0.12847 0.60941 0.38942 0.0
C1192 C 0.16771 0.56822 0.3906 0.0
C1193 C 0.17336 0.61133 0.37071 0.0
C1194 C 0.17067 0.6086 0.35389 0.0
C1195 C 0.18993 0.62343 0.34314 0.0
C1196 C 0.2129 0.64113 0.34976 0.0
C1197 C 0.21648 0.64371 0.36697 0.0
C1198 C 0.196 0.62907 0.37752 0.0
H1199 H 0.20642 0.38264 0.08651 0.0
H1200 H 0.2065 0.32793 0.13061 0.0
H1201 H 0.16499 0.3583 0.14182 0.0
H1202 H 0.19593 0.45105 0.10614 0.0
H1203 H 0.17216 0.46703 0.09056 0.0
H1204 H 0.1991 0.43874 0.08513 0.0
H1205 H 0.1569 0.40614 0.07253 0.0
H1206 H 0.12976 0.43442 0.0779 0.0
H1207 H 0.12481 0.39634 0.08485 0.0
H1208 H 0.12691 0.39719 0.14922 0.0
H1209 H 0.09575 0.44236 0.15266 0.0
H1210 H 0.12087 0.47216 0.1038 0.0
C1211 C 0.19734 0.37662 0.09839 0.0
C1212 C 0.20962 0.3528 0.10767 0.0
C1213 C 0.1974 0.34601 0.12327 0.0
C1214 C 0.17375 0.36307 0.12971 0.0
C1215 C 0.16255 0.38674 0.12036 0.0
C1216 C 0.17389 0.39348 0.10502 0.0
C1217 C 0.15953 0.42148 0.09802 0.0
C1218 C 0.18308 0.44602 0.09478 0.0
C1219 C 0.14169 0.41414 0.0824 0.0
C1220 C 0.13893 0.42996 0.11203 0.0
C1221 C 0.14073 0.40939 0.1247 0.0
C1222 C 0.12506 0.41325 0.13932 0.0
C1223 C 0.10747 0.43905 0.14115 0.0
C1224 C 0.10582 0.4608 0.12847 0.0
C1225 C 0.12137 0.45581 0.11362 0.0
H1226 H 0.37248 0.4835 0.84322 0.0
H1227 H 0.43923 0.45649 0.879 0.0
H1228 H 0.40799 0.41269 0.88646 0.0
H1229 H 0.30935 0.46576 0.86689 0.0
H1230 H 0.28734 0.45252 0.84983 0.0
H1231 H 0.31606 0.4802 0.84655 0.0
H1232 H 0.34091 0.4459 0.82474 0.0
H1233 H 0.31223 0.41805 0.82797 0.0
H1234 H 0.35113 0.40805 0.83016 0.0
H1235 H 0.36746 0.37376 0.89126 0.0
H1236 H 0.32119 0.3434 0.89308 0.0
H1237 H 0.28199 0.39616 0.8538 0.0
C1238 C 0.38075 0.46826 0.85252 0.0
C1239 C 0.40831 0.47343 0.86054 0.0
C1240 C 0.41821 0.45295 0.87267 0.0
C1241 C 0.40065 0.42798 0.87697 0.0
C1242 C 0.37343 0.42375 0.86891 0.0
C1243 C 0.36364 0.44329 0.8569 0.0
C1244 C 0.33303 0.43461 0.85056 0.0
C1245 C 0.3101 0.45976 0.85365 0.0
C1246 C 0.33442 0.42614 0.83227 0.0
C1247 C 0.32675 0.40746 0.86114 0.0
C1248 C 0.35036 0.40136 0.87157 0.0
C1249 C 0.34898 0.37814 0.88302 0.0
C1250 C 0.32261 0.36103 0.88396 0.0
C1251 C 0.298 0.36731 0.87354 0.0
C1252 C 0.30046 0.39056 0.86184 0.0
H1253 H 0.34826 0.51771 0.64872 0.0
H1254 H 0.41999 0.55344 0.61847 0.0
H1255 H 0.38578 0.59285 0.60823 0.0
H1256 H 0.29073 0.52706 0.61995 0.0
H1257 H 0.26267 0.53704 0.6349 0.0
H1258 H 0.29354 0.51346 0.64074 0.0
H1259 H 0.30716 0.5506 0.66406 0.0
H1260 H 0.27635 0.57441 0.65823 0.0
H1261 H 0.31376 0.58952 0.65924 0.0
H1262 H 0.34259 0.6263 0.60004 0.0
H1263 H 0.29381 0.64971 0.59378 0.0
H1264 H 0.25093 0.59181 0.62964 0.0
C1265 C 0.35696 0.53397 0.64007 0.0
C1266 C 0.38685 0.5325 0.63441 0.0
C1267 C 0.39719 0.55413 0.62299 0.0
C1268 C 0.37796 0.57666 0.61716 0.0
C1269 C 0.34857 0.57732 0.62295 0.0
C1270 C 0.33816 0.55651 0.63416 0.0
C1271 C 0.30525 0.56097 0.6378 0.0
C1272 C 0.28698 0.53298 0.63306 0.0
C1273 C 0.30035 0.56938 0.65591 0.0
C1274 C 0.2985 0.58713 0.6266 0.0
C1275 C 0.32381 0.59649 0.61826 0.0
C1276 C 0.3227 0.61935 0.60662 0.0
C1277 C 0.29488 0.63252 0.60315 0.0
C1278 C 0.26853 0.62266 0.61125 0.0
C1279 C 0.27065 0.6001 0.62336 0.0
H1280 H 0.40775 0.16219 0.12942 0.0
H1281 H 0.34205 0.09114 0.13532 0.0
H1282 H 0.30332 0.12386 0.12316 0.0
H1283 H 0.35875 0.22371 0.13911 0.0
H1284 H 0.37516 0.24847 0.12409 0.0
H1285 H 0.39752 0.21947 0.13338 0.0
H1286 H 0.41082 0.19877 0.10455 0.0
H1287 H 0.38848 0.22769 0.09519 0.0
H1288 H 0.38114 0.18882 0.09058 0.0
H1289 H 0.27177 0.16453 0.11011 0.0
H1290 H 0.25008 0.20985 0.09725 0.0
H1291 H 0.33677 0.25375 0.09999 0.0
C1292 C 0.38522 0.15348 0.12821 0.0
C1293 C 0.37794 0.12409 0.13335 0.0
C1294 C 0.34817 0.11358 0.13148 0.0
C1295 C 0.32601 0.132 0.12459 0.0
C1296 C 0.33398 0.16084 0.11962 0.0
C1297 C 0.36287 0.1715 0.12135 0.0
C1298 C 0.36574 0.20324 0.11492 0.0
C1299 C 0.37482 0.225 0.1287 0.0
C1300 C 0.38785 0.2047 0.10045 0.0
C1301 C 0.33393 0.20878 0.10932 0.0
C1302 C 0.31591 0.1841 0.11212 0.0
C1303 C 0.28567 0.184 0.10787 0.0
C1304 C 0.27356 0.20984 0.10057 0.0
C1305 C 0.29168 0.23537 0.09761 0.0
C1306 C 0.32225 0.23466 0.10208 0.0
H1307 H 0.13757 0.13122 0.38517 0.0
H1308 H 0.09275 0.14931 0.43145 0.0
H1309 H 0.04664 0.12583 0.42069 0.0
H1310 H 0.07599 0.14791 0.35952 0.0
H1311 H 0.0839 0.11874 0.34482 0.0
H1312 H 0.1139 0.13515 0.35651 0.0
H1313 H 0.12926 0.08243 0.36695 0.0
H1314 H 0.09928 0.06582 0.35527 0.0
H1315 H 0.10185 0.05912 0.37704 0.0
H1316 H 0.0051 0.10198 0.40463 0.0
H1317 H 0.9704 0.08073 0.38422 0.0
H1318 H 0.04209 0.07895 0.34816 0.0
C1319 C 0.11818 0.12999 0.39313 0.0
C1320 C 0.11882 0.142 0.4092 0.0
C1321 C 0.09283 0.1402 0.41913 0.0
C1322 C 0.06656 0.12685 0.41314 0.0
C1323 C 0.06666 0.11543 0.39721 0.0
C1324 C 0.09178 0.11687 0.38734 0.0
C1325 C 0.08564 0.10399 0.37045 0.0
C1326 C 0.09012 0.12788 0.35704 0.0
C1327 C 0.10517 0.07619 0.36724 0.0
C1328 C 0.05297 0.09553 0.37227 0.0
C1329 C 0.04257 0.10204 0.38786 0.0
C1330 C 0.01301 0.09667 0.39242 0.0
C1331 C 0.99348 0.08457 0.3807 0.0
C1332 C 0.00348 0.07816 0.36455 0.0
C1333 C 0.03374 0.08353 0.36038 0.0
H1334 H 0.1108 0.85383 0.64564 0.0
H1335 H 0.08599 0.88776 0.59759 0.0
H1336 H 0.11066 0.84438 0.58457 0.0
H1337 H 0.18354 0.82262 0.63383 0.0
H1338 H 0.17956 0.7902 0.64689 0.0
H1339 H 0.16184 0.82507 0.65245 0.0
H1340 H 0.11055 0.79803 0.65418 0.0
H1341 H 0.12807 0.76313 0.64858 0.0
H1342 H 0.0971 0.77723 0.63669 0.0
H1343 H 0.13603 0.79667 0.57675 0.0
H1344 H 0.15961 0.74686 0.5746 0.0
H1345 H 0.16717 0.7429 0.62772 0.0
C1346 C 0.11094 0.85233 0.63238 0.0
C1347 C 0.0966 0.87425 0.62262 0.0
C1348 C 0.09683 0.87125 0.60531 0.0
C1349 C 0.11086 0.84673 0.59779 0.0
C1350 C 0.12447 0.82534 0.60775 0.0
C1351 C 0.12463 0.82781 0.62466 0.0
C1352 C 0.13955 0.80084 0.63251 0.0
C1353 C 0.1678 0.81025 0.64198 0.0
C1354 C 0.1175 0.78381 0.64365 0.0
C1355 C 0.14742 0.78272 0.61737 0.0
C1356 C 0.13874 0.79742 0.60323 0.0
C1357 C 0.14307 0.78497 0.58773 0.0
C1358 C 0.15648 0.75664 0.58665 0.0
C1359 C 0.16527 0.74092 0.60098 0.0
C1360 C 0.16079 0.75433 0.61653 0.0
H1361 H 0.50613 0.92514 0.87432 0.0
H1362 H 0.45609 0.99195 0.84693 0.0
H1363 H 0.40896 0.97236 0.85871 0.0
H1364 H 0.45471 0.86571 0.86891 0.0
H1365 H 0.46004 0.85013 0.88911 0.0
H1366 H 0.48992 0.87063 0.87939 0.0
H1367 H 0.49282 0.9065 0.90437 0.0
H1368 H 0.46302 0.88602 0.91423 0.0
H1369 H 0.45958 0.9259 0.91107 0.0
H1370 H 0.36715 0.94386 0.87247 0.0
H1371 H 0.33383 0.90904 0.88737 0.0
H1372 H 0.41143 0.86079 0.90562 0.0
C1373 C 0.48533 0.93594 0.87093 0.0
C1374 C 0.48483 0.96016 0.85972 0.0
C1375 C 0.45705 0.97342 0.85551 0.0
C1376 C 0.43016 0.96245 0.86215 0.0
C1377 C 0.43146 0.93827 0.87298 0.0
C1378 C 0.45834 0.92525 0.87738 0.0
C1379 C 0.45357 0.89886 0.88881 0.0
C1380 C 0.46525 0.86961 0.88109 0.0
C1381 C 0.46811 0.90468 0.90562 0.0
C1382 C 0.41975 0.89886 0.89002 0.0
C1383 C 0.40742 0.92183 0.88085 0.0
C1384 C 0.37657 0.92591 0.87977 0.0
C1385 C 0.35783 0.90597 0.88826 0.0
C1386 C 0.36999 0.88219 0.89771 0.0
C1387 C 0.4014 0.87878 0.89859 0.0
H1388 H 0.33636 0.75763 0.38802 0.0
H1389 H 0.2498 0.77845 0.36663 0.0
H1390 H 0.27103 0.82459 0.35447 0.0
H1391 H 0.35687 0.83395 0.39803 0.0
H1392 H 0.39585 0.82839 0.39314 0.0
H1393 H 0.37355 0.79737 0.40034 0.0
H1394 H 0.38797 0.76689 0.37442 0.0
H1395 H 0.41017 0.79787 0.36709 0.0
H1396 H 0.3809 0.78253 0.35438 0.0
H1397 H 0.30229 0.86784 0.34399 0.0
H1398 H 0.34052 0.90587 0.33701 0.0
H1399 H 0.40628 0.85666 0.36554 0.0
C1400 C 0.32176 0.77195 0.38087 0.0
C1401 C 0.29138 0.7644 0.37829 0.0
C1402 C 0.27311 0.78378 0.36882 0.0
C1403 C 0.28499 0.81001 0.36183 0.0
C1404 C 0.31512 0.81659 0.36447 0.0
C1405 C 0.3332 0.7982 0.37385 0.0
C1406 C 0.36484 0.81026 0.37483 0.0
C1407 C 0.37326 0.81795 0.39264 0.0
C1408 C 0.38729 0.78807 0.36722 0.0
C1409 C 0.36181 0.83827 0.36446 0.0
C1410 C 0.33299 0.84151 0.35856 0.0
C1411 C 0.3249 0.86557 0.34858 0.0
C1412 C 0.3468 0.88702 0.34465 0.0
C1413 C 0.37641 0.88429 0.35073 0.0
C1414 C 0.38387 0.85946 0.36071 0.0
H1415 H 0.36206 0.10515 0.60293 0.0
H1416 H 0.32255 0.11383 0.65142 0.0
H1417 H 0.36378 0.08404 0.6631 0.0
H1418 H 0.3915 0.02786 0.60862 0.0
H1419 H 0.4251 0.03578 0.59714 0.0
H1420 H 0.39074 0.05497 0.5922 0.0
H1421 H 0.41732 0.10621 0.59601 0.0
H1422 H 0.45168 0.08721 0.60093 0.0
H1423 H 0.43619 0.11414 0.61508 0.0
H1424 H 0.41181 0.05908 0.67006 0.0
H1425 H 0.46343 0.03951 0.67173 0.0
H1426 H 0.47135 0.04491 0.61876 0.0
C1427 C 0.36179 0.10031 0.61595 0.0
C1428 C 0.33904 0.11182 0.62625 0.0
C1429 C 0.33968 0.10526 0.64327 0.0
C1430 C 0.36296 0.08824 0.65002 0.0
C1431 C 0.38529 0.07767 0.63959 0.0
C1432 C 0.38483 0.08322 0.6229 0.0
C1433 C 0.41263 0.07092 0.61461 0.0
C1434 C 0.40449 0.04589 0.60242 0.0
C1435 C 0.4305 0.09612 0.60617 0.0
C1436 C 0.42922 0.0585 0.62933 0.0
C1437 C 0.4129 0.06244 0.6436 0.0
C1438 C 0.42456 0.05528 0.65896 0.0
C1439 C 0.45388 0.04426 0.65979 0.0
C1440 C 0.47108 0.04033 0.64536 0.0
C1441 C 0.45834 0.04694 0.62993 0.0
H1442 H 0.12023 0.12205 0.87157 0.0
H1443 H 0.14681 0.10538 0.82113 0.0
H1444 H 0.18287 0.14743 0.82274 0.0
H1445 H 0.12249 0.20157 0.86915 0.0
H1446 H 0.13641 0.20644 0.88974 0.0
H1447 H 0.11399 0.17415 0.88475 0.0
H1448 H 0.15612 0.13923 0.8954 0.0
H1449 H 0.17876 0.17145 0.90036 0.0
H1450 H 0.19335 0.14266 0.88703 0.0
H1451 H 0.21544 0.19225 0.82987 0.0
H1452 H 0.2395 0.23763 0.84135 0.0
H1453 H 0.19062 0.22471 0.88689 0.0
C1454 C 0.13375 0.12706 0.86087 0.0
C1455 C 0.13079 0.11035 0.84624 0.0
C1456 C 0.1487 0.11788 0.83248 0.0
C1457 C 0.16933 0.14165 0.83329 0.0
C1458 C 0.17169 0.15765 0.84794 0.0
C1459 C 0.15425 0.15074 0.86145 0.0
C1460 C 0.16008 0.17209 0.87552 0.0
C1461 C 0.13155 0.1896 0.88005 0.0
C1462 C 0.17284 0.15535 0.89046 0.0
C1463 C 0.18335 0.19232 0.86779 0.0
C1464 C 0.19 0.18352 0.85194 0.0
C1465 C 0.21047 0.19927 0.84229 0.0
C1466 C 0.22409 0.22497 0.84893 0.0
C1467 C 0.21697 0.23474 0.86502 0.0
C1468 C 0.19663 0.21784 0.87457 0.0
H1469 H 0.09812 0.83673 0.10424 0.0
H1470 H 0.17336 0.88819 0.12289 0.0
H1471 H 0.13858 0.92026 0.13854 0.0
H1472 H 0.04599 0.89951 0.10048 0.0
H1473 H 0.01423 0.87755 0.10701 0.0
H1474 H 0.04494 0.85973 0.09648 0.0
H1475 H 0.05093 0.82237 0.12064 0.0
H1476 H 0.02032 0.84011 0.13125 0.0
H1477 H 0.05624 0.83663 0.14114 0.0
H1478 H 0.09589 0.94532 0.15318 0.0
H1479 H 0.04823 0.96145 0.16578 0.0
H1480 H 0.00091 0.89357 0.13767 0.0
C1481 C 0.10727 0.85496 0.11145 0.0
C1482 C 0.13848 0.85997 0.11229 0.0
C1483 C 0.14954 0.8839 0.12203 0.0
C1484 C 0.12996 0.90229 0.13095 0.0
C1485 C 0.09937 0.89653 0.13 0.0
C1486 C 0.08805 0.8735 0.12048 0.0
C1487 C 0.05433 0.87138 0.12209 0.0
C1488 C 0.03897 0.87741 0.10553 0.0
C1489 C 0.04491 0.84081 0.12921 0.0
C1490 C 0.04853 0.89657 0.13416 0.0
C1491 C 0.07478 0.91091 0.1385 0.0
C1492 C 0.07515 0.93439 0.1498 0.0
C1493 C 0.04797 0.94337 0.15691 0.0
C1494 C 0.02081 0.92883 0.15272 0.0
C1495 C 0.02123 0.90526 0.1411 0.0
H1496 H 0.64427 0.76051 0.87937 0.0
H1497 H 0.74081 0.77107 0.87683 0.0
H1498 H 0.73414 0.82092 0.864 0.0
H1499 H 0.62717 0.79779 0.84061 0.0
H1500 H 0.59359 0.81485 0.84857 0.0
H1501 H 0.60613 0.77934 0.85659 0.0
H1502 H 0.60631 0.80149 0.88601 0.0
H1503 H 0.59377 0.83701 0.8781 0.0
H1504 H 0.62755 0.83506 0.89015 0.0
H1505 H 0.71661 0.87096 0.85286 0.0
H1506 H 0.68975 0.917 0.84453 0.0
H1507 H 0.60491 0.87283 0.85433 0.0
C1508 C 0.66407 0.77313 0.87599 0.0
C1509 C 0.69307 0.76188 0.8791 0.0
C1510 C 0.71835 0.77921 0.87454 0.0
C1511 C 0.71479 0.80752 0.86722 0.0
C1512 C 0.68583 0.81804 0.86447 0.0
C1513 C 0.66092 0.80129 0.86867 0.0
C1514 C 0.63224 0.81802 0.865 0.0
C1515 C 0.6137 0.80151 0.85191 0.0
C1516 C 0.6139 0.82321 0.88075 0.0
C1517 C 0.64486 0.8471 0.85838 0.0
C1518 C 0.6758 0.84664 0.85804 0.0
C1519 C 0.69238 0.87146 0.85294 0.0
C1520 C 0.67692 0.89751 0.84824 0.0
C1521 C 0.64522 0.89853 0.84873 0.0
C1522 C 0.62913 0.87277 0.8537 0.0
H1523 H 0.97219 0.90021 0.64481 0.0
H1524 H 0.97092 0.97632 0.61155 0.0
H1525 H 0.92378 0.95747 0.59939 0.0
H1526 H 0.94684 0.84637 0.61629 0.0
H1527 H 0.92462 0.8258 0.63096 0.0
H1528 H 0.95709 0.84633 0.63769 0.0
H1529 H 0.92453 0.87573 0.65856 0.0
H1530 H 0.89197 0.85515 0.65197 0.0
H1531 H 0.89184 0.89558 0.65146 0.0
H1532 H 0.87777 0.9288 0.59012 0.0
H1533 H 0.83638 0.89325 0.58482 0.0
H1534 H 0.86878 0.83603 0.62411 0.0
C1535 C 0.96188 0.91319 0.63511 0.0
C1536 C 0.97522 0.93982 0.62916 0.0
C1537 C 0.96107 0.95591 0.61634 0.0
C1538 C 0.93431 0.94537 0.60935 0.0
C1539 C 0.92204 0.91876 0.61535 0.0
C1540 C 0.93534 0.90298 0.62799 0.0
C1541 C 0.91828 0.87452 0.6319 0.0
C1542 C 0.93788 0.84661 0.62903 0.0
C1543 C 0.90592 0.87531 0.64952 0.0
C1544 C 0.8934 0.87656 0.61938 0.0
C1545 C 0.89584 0.90226 0.60998 0.0
C1546 C 0.87557 0.90868 0.59747 0.0
C1547 C 0.85218 0.88832 0.59453 0.0
C1548 C 0.84932 0.86184 0.60404 0.0
C1549 C 0.87028 0.85604 0.61662 0.0
H1550 H 0.84362 0.26067 0.36372 0.0
H1551 H 0.76728 0.23864 0.39447 0.0
H1552 H 0.77283 0.18517 0.38707 0.0
H1553 H 0.82957 0.20549 0.33148 0.0
H1554 H 0.86874 0.19707 0.32877 0.0
H1555 H 0.8574 0.23389 0.33546 0.0
H1556 H 0.89148 0.22911 0.36107 0.0
H1557 H 0.90301 0.19239 0.35441 0.0
H1558 H 0.88701 0.19734 0.37455 0.0
H1559 H 0.78772 0.13401 0.37711 0.0
H1560 H 0.81291 0.08844 0.36694 0.0
H1561 H 0.88043 0.14369 0.34325 0.0
C1562 C 0.82784 0.24465 0.36875 0.0
C1563 C 0.80489 0.25384 0.3796 0.0
C1564 C 0.78502 0.23212 0.38613 0.0
C1565 C 0.78789 0.20172 0.38193 0.0
C1566 C 0.81082 0.19342 0.37125 0.0
C1567 C 0.83057 0.21421 0.36482 0.0
C1568 C 0.8544 0.1992 0.35444 0.0
C1569 C 0.85239 0.20953 0.33647 0.0
C1570 C 0.88583 0.20484 0.36155 0.0
C1571 C 0.84524 0.16664 0.35623 0.0
C1572 C 0.81981 0.16384 0.36578 0.0
C1573 C 0.80757 0.13593 0.36955 0.0
C1574 C 0.82205 0.11016 0.36368 0.0
C1575 C 0.84868 0.11243 0.35428 0.0
C1576 C 0.86004 0.14115 0.35031 0.0
H1577 H 0.60516 0.15046 0.09929 0.0
H1578 H 0.67422 0.08501 0.11035 0.0
H1579 H 0.636 0.05128 0.12217 0.0
H1580 H 0.56414 0.14046 0.13592 0.0
H1581 H 0.52792 0.14515 0.12653 0.0
H1582 H 0.56025 0.1631 0.1177 0.0
H1583 H 0.54954 0.13725 0.08982 0.0
H1584 H 0.51706 0.11929 0.09855 0.0
H1585 H 0.54586 0.09699 0.08899 0.0
H1586 H 0.59065 0.02572 0.13399 0.0
H1587 H 0.54156 0.01048 0.14522 0.0
H1588 H 0.50236 0.09306 0.12685 0.0
C1589 C 0.6122 0.12884 0.10395 0.0
C1590 C 0.64266 0.1203 0.10381 0.0
C1591 C 0.651 0.09201 0.11029 0.0
C1592 C 0.62945 0.07266 0.11701 0.0
C1593 C 0.59968 0.08195 0.11718 0.0
C1594 C 0.59102 0.10935 0.11081 0.0
C1595 C 0.55782 0.11463 0.11325 0.0
C1596 C 0.55222 0.14248 0.12399 0.0
C1597 C 0.54162 0.11718 0.09666 0.0
C1598 C 0.54922 0.08606 0.12215 0.0
C1599 C 0.57363 0.06741 0.12419 0.0
C1600 C 0.57133 0.04006 0.13238 0.0
C1601 C 0.54335 0.03161 0.13873 0.0
C1602 C 0.51809 0.05054 0.13692 0.0
C1603 C 0.52118 0.07802 0.12841 0.0
H1604 H 0.67654 0.2303 0.62902 0.0
H1605 H 0.65277 0.23257 0.57735 0.0
H1606 H 0.62516 0.18501 0.58058 0.0
H1607 H 0.68609 0.14898 0.63195 0.0
H1608 H 0.67019 0.14706 0.65226 0.0
H1609 H 0.68952 0.18047 0.64571 0.0
H1610 H 0.64261 0.21226 0.65262 0.0
H1611 H 0.62311 0.17897 0.65914 0.0
H1612 H 0.60713 0.20262 0.64349 0.0
H1613 H 0.59778 0.13897 0.58967 0.0
H1614 H 0.57334 0.09669 0.60388 0.0
H1615 H 0.61525 0.12383 0.64962 0.0
C1616 C 0.66582 0.22065 0.61834 0.0
C1617 C 0.66688 0.23518 0.60292 0.0
C1618 C 0.65235 0.22186 0.58928 0.0
C1619 C 0.63661 0.19483 0.59098 0.0
C1620 C 0.6357 0.18131 0.60639 0.0
C1621 C 0.65003 0.19364 0.61981 0.0
C1622 C 0.64479 0.17498 0.6351 0.0
C1623 C 0.67441 0.16211 0.64163 0.0
C1624 C 0.62843 0.19331 0.64837 0.0
C1625 C 0.62492 0.15049 0.62821 0.0
C1626 C 0.62004 0.15454 0.61161 0.0
C1627 C 0.60163 0.1354 0.60263 0.0
C1628 C 0.58778 0.11149 0.61084 0.0
C1629 C 0.59243 0.10687 0.62786 0.0
C1630 C 0.61143 0.1266 0.63659 0.0
H1631 H 0.50695 0.93814 0.38029 0.0
H1632 H 0.5175 0.94537 0.32745 0.0
H1633 H 0.56915 0.92641 0.32974 0.0
H1634 H 0.58426 0.9586 0.3913 0.0
H1635 H 0.58593 0.93176 0.40783 0.0
H1636 H 0.55066 0.94857 0.40229 0.0
H1637 H 0.52758 0.89572 0.39823 0.0
H1638 H 0.56274 0.87878 0.40374 0.0
H1639 H 0.54538 0.86965 0.3844 0.0
H1640 H 0.61807 0.90386 0.33735 0.0
H1641 H 0.66104 0.8777 0.34974 0.0
H1642 H 0.61897 0.88431 0.39769 0.0
C1643 C 0.52031 0.9362 0.36924 0.0
C1644 C 0.50826 0.94335 0.3537 0.0
C1645 C 0.52626 0.94002 0.33949 0.0
C1646 C 0.55567 0.92939 0.34066 0.0
C1647 C 0.56675 0.92219 0.35613 0.0
C1648 C 0.54969 0.9254 0.37018 0.0
C1649 C 0.56639 0.91415 0.38515 0.0
C1650 C 0.57215 0.93981 0.39736 0.0
C1651 C 0.54952 0.88802 0.39336 0.0
C1652 C 0.59525 0.90361 0.37726 0.0
C1653 C 0.59507 0.90877 0.36053 0.0
C1654 C 0.61863 0.89991 0.35045 0.0
C1655 C 0.64291 0.88501 0.35761 0.0
C1656 C 0.6434 0.87899 0.37469 0.0
C1657 C 0.61938 0.88883 0.38463 0.0
H1658 H 0.83147 0.73247 0.13559 0.0
H1659 H 0.78249 0.76461 0.09305 0.0
H1660 H 0.79704 0.8165 0.09976 0.0
H1661 H 0.81492 0.79682 0.16256 0.0
H1662 H 0.85173 0.79664 0.17162 0.0
H1663 H 0.83537 0.76212 0.16437 0.0
H1664 H 0.88172 0.75297 0.14589 0.0
H1665 H 0.89818 0.78743 0.15305 0.0
H1666 H 0.89287 0.7814 0.13137 0.0
H1667 H 0.81966 0.86406 0.10962 0.0
H1668 H 0.84914 0.90481 0.1221 0.0
H1669 H 0.8836 0.84261 0.15849 0.0
C1670 C 0.82339 0.75047 0.12785 0.0
C1671 C 0.80574 0.74446 0.11381 0.0
C1672 C 0.79601 0.76862 0.10386 0.0
C1673 C 0.80407 0.79821 0.1076 0.0
C1674 C 0.82182 0.80333 0.12135 0.0
C1675 C 0.83133 0.78021 0.13137 0.0
C1676 C 0.85165 0.7918 0.14488 0.0
C1677 C 0.83757 0.78653 0.16187 0.0
C1678 C 0.88295 0.77756 0.14372 0.0
C1679 C 0.85251 0.82494 0.14067 0.0
C1680 C 0.83495 0.83104 0.12712 0.0
C1681 C 0.83323 0.85966 0.12035 0.0
C1682 C 0.85015 0.88263 0.12751 0.0
C1683 C 0.86858 0.87693 0.14131 0.0
C1684 C 0.86941 0.84774 0.14809 0.0
H1685 H 0.00723 0.09108 0.85947 0.0
H1686 H 0.95969 0.00745 0.8511 0.0
H1687 H 0.91591 0.02758 0.86604 0.0
H1688 H 0.97865 0.10528 0.90028 0.0
H1689 H 0.97597 0.14523 0.89717 0.0
H1690 H 0.00386 0.12386 0.88628 0.0
H1691 H 0.98362 0.14407 0.8586 0.0
H1692 H 0.95573 0.16554 0.8694 0.0
H1693 H 0.94455 0.13935 0.85369 0.0
H1694 H 0.87692 0.05734 0.88142 0.0
H1695 H 0.84523 0.09485 0.8954 0.0
H1696 H 0.91838 0.15901 0.89349 0.0
C1697 C 0.98769 0.07689 0.86083 0.0
C1698 C 0.98692 0.04763 0.85413 0.0
C1699 C 0.96082 0.02992 0.85612 0.0
C1700 C 0.93586 0.04113 0.86462 0.0
C1701 C 0.93737 0.07008 0.87103 0.0
C1702 C 0.96259 0.08774 0.86921 0.0
C1703 C 0.95823 0.11838 0.87687 0.0
C1704 C 0.9805 0.12347 0.89099 0.0
C1705 C 0.96067 0.1433 0.86386 0.0
C1706 C 0.92651 0.11531 0.8832 0.0
C1707 C 0.91491 0.08724 0.8798 0.0
C1708 C 0.88581 0.07935 0.8842 0.0
C1709 C 0.86799 0.10082 0.89216 0.0
C1710 C 0.87931 0.12988 0.89558 0.0
C1711 C 0.90907 0.13699 0.89113 0.0
H1712 H 0.79439 0.72915 0.6319 0.0
H1713 H 0.79094 0.72287 0.57875 0.0
H1714 H 0.81322 0.6723 0.58011 0.0
H1715 H 0.86498 0.69478 0.63634 0.0
H1716 H 0.85586 0.6752 0.65504 0.0
H1717 H 0.83709 0.70975 0.65009 0.0
H1718 H 0.78568 0.68313 0.65257 0.0
H1719 H 0.8043 0.64846 0.65758 0.0
H1720 H 0.77848 0.64986 0.64061 0.0
H1721 H 0.83826 0.62388 0.587 0.0
H1722 H 0.86533 0.58096 0.59894 0.0
H1723 H 0.85351 0.61884 0.64765 0.0
C1724 C 0.79784 0.71692 0.62057 0.0
C1725 C 0.79078 0.72987 0.60522 0.0
C1726 C 0.79616 0.71338 0.59065 0.0
C1727 C 0.80872 0.6846 0.59129 0.0
C1728 C 0.81583 0.67266 0.60659 0.0
C1729 C 0.81061 0.68825 0.62098 0.0
C1730 C 0.82197 0.67098 0.63574 0.0
C1731 C 0.84643 0.68874 0.64483 0.0
C1732 C 0.79606 0.66261 0.6473 0.0
C1733 C 0.83477 0.64347 0.62737 0.0
C1734 C 0.83073 0.6448 0.61057 0.0
C1735 C 0.84138 0.62247 0.60015 0.0
C1736 C 0.85678 0.59819 0.60707 0.0
C1737 C 0.86154 0.59649 0.62424 0.0
C1738 C 0.85011 0.61938 0.63449 0.0
H1739 H 0.60993 0.64182 0.90312 0.0
H1740 H 0.6837 0.60851 0.87357 0.0
H1741 H 0.64839 0.57735 0.85765 0.0
H1742 H 0.56576 0.57229 0.90367 0.0
H1743 H 0.53066 0.59201 0.90207 0.0
H1744 H 0.56209 0.60949 0.91212 0.0
H1745 H 0.55784 0.65508 0.89251 0.0
H1746 H 0.52649 0.63775 0.88239 0.0
H1747 H 0.55879 0.64903 0.87063 0.0
H1748 H 0.60469 0.55218 0.84387 0.0
H1749 H 0.55578 0.53599 0.83283 0.0
H1750 H 0.51064 0.58648 0.87113 0.0
C1751 C 0.61875 0.62758 0.89349 0.0
C1752 C 0.6496 0.62746 0.88965 0.0
C1753 C 0.66015 0.60892 0.87675 0.0
C1754 C 0.64029 0.59107 0.86767 0.0
C1755 C 0.60995 0.59204 0.87162 0.0
C1756 C 0.59922 0.60981 0.88422 0.0
C1757 C 0.5654 0.60828 0.8853 0.0
C1758 C 0.5554 0.5947 0.90177 0.0
C1759 C 0.55131 0.63938 0.88254 0.0
C1760 C 0.55876 0.58726 0.87117 0.0
C1761 C 0.58475 0.57788 0.86354 0.0
C1762 C 0.58419 0.55919 0.84982 0.0
C1763 C 0.55629 0.55012 0.84364 0.0
C1764 C 0.52936 0.55992 0.85111 0.0
C1765 C 0.53079 0.57845 0.86517 0.0
H1766 H 0.60384 0.34372 0.15505 0.0
H1767 H 0.68207 0.40056 0.14897 0.0
H1768 H 0.71188 0.35636 0.14089 0.0
H1769 H 0.64435 0.27774 0.17116 0.0
H1770 H 0.62033 0.25172 0.1605 0.0
H1771 H 0.60585 0.28743 0.16717 0.0
H1772 H 0.58913 0.29917 0.1374 0.0
H1773 H 0.60365 0.26362 0.13064 0.0
H1774 H 0.61631 0.2978 0.12105 0.0
H1775 H 0.73163 0.30712 0.13054 0.0
H1776 H 0.7406 0.25573 0.12024 0.0
H1777 H 0.65018 0.23065 0.13417 0.0
C1778 C 0.62736 0.34682 0.15228 0.0
C1779 C 0.64061 0.37562 0.15264 0.0
C1780 C 0.67143 0.37872 0.14885 0.0
C1781 C 0.68857 0.35374 0.14424 0.0
C1782 C 0.67466 0.32577 0.14369 0.0
C1783 C 0.64485 0.3221 0.1478 0.0
C1784 C 0.63498 0.28985 0.14558 0.0
C1785 C 0.62584 0.27586 0.16209 0.0
C1786 C 0.60952 0.28749 0.13291 0.0
C1787 C 0.66367 0.27612 0.13914 0.0
C1788 C 0.68632 0.29719 0.13817 0.0
C1789 C 0.71424 0.29029 0.13151 0.0
C1790 C 0.71909 0.26111 0.12564 0.0
C1791 C 0.6962 0.23918 0.12657 0.0
C1792 C 0.6683 0.24679 0.1336 0.0
H1793 H 0.90088 0.3606 0.39728 0.0
H1794 H 0.82615 0.41026 0.37674 0.0
H1795 H 0.86151 0.4439 0.36248 0.0
H1796 H 0.95089 0.4246 0.40311 0.0
H1797 H 0.98379 0.40375 0.39727 0.0
H1798 H 0.95264 0.38474 0.40676 0.0
H1799 H 0.94982 0.34801 0.38214 0.0
H1800 H 0.98096 0.36684 0.37261 0.0
H1801 H 0.94616 0.3628 0.36164 0.0
H1802 H 0.90486 0.47074 0.34943 0.0
H1803 H 0.95311 0.4877 0.33784 0.0
H1804 H -0.00056 0.42034 0.36676 0.0
C1805 C 0.89194 0.37874 0.38993 0.0
C1806 C 0.86074 0.38285 0.38818 0.0
C1807 C 0.84996 0.40666 0.37828 0.0
C1808 C 0.86986 0.42597 0.37017 0.0
C1809 C 0.90047 0.4212 0.37208 0.0
C1810 C 0.91148 0.39815 0.38169 0.0
C1811 C 0.94535 0.39697 0.38103 0.0
C1812 C 0.95896 0.40287 0.39806 0.0
C1813 C 0.9562 0.36688 0.37393 0.0
C1814 C 0.95162 0.42269 0.36938 0.0
C1815 C 0.92546 0.43654 0.36446 0.0
C1816 C 0.92553 0.46021 0.35328 0.0
C1817 C 0.95305 0.46969 0.34677 0.0
C1818 C 0.98008 0.45542 0.3514 0.0
C1819 C 0.97923 0.43189 0.36304 0.0
H1820 H 0.88687 0.37076 0.84389 0.0
H1821 H 0.92942 0.39725 0.88955 0.0
H1822 H 0.90405 0.35582 0.90392 0.0
H1823 H 0.81551 0.34634 0.86161 0.0
H1824 H 0.81184 0.31467 0.84799 0.0
H1825 H 0.83161 0.34777 0.84132 0.0
H1826 H 0.8783 0.31549 0.83469 0.0
H1827 H 0.85868 0.28232 0.84133 0.0
H1828 H 0.89415 0.29199 0.85046 0.0
H1829 H 0.87559 0.31142 0.91332 0.0
H1830 H 0.84756 0.26441 0.91706 0.0
H1831 H 0.82435 0.26456 0.86527 0.0
C1832 C 0.89052 0.36798 0.85694 0.0
C1833 C 0.91001 0.38728 0.86563 0.0
C1834 C 0.91464 0.38269 0.88264 0.0
C1835 C 0.90022 0.35931 0.89094 0.0
C1836 C 0.88138 0.34053 0.88204 0.0
C1837 C 0.87657 0.34438 0.86542 0.0
C1838 C 0.8565 0.31979 0.85869 0.0
C1839 C 0.82712 0.33294 0.85201 0.0
C1840 C 0.87289 0.3013 0.84552 0.0
C1841 C 0.85109 0.30147 0.87412 0.0
C1842 C 0.86541 0.31413 0.88745 0.0
C1843 C 0.86419 0.30128 0.903 0.0
C1844 C 0.84817 0.27454 0.90499 0.0
C1845 C 0.83373 0.26071 0.89147 0.0
C1846 C 0.83507 0.27458 0.87585 0.0
H1847 H 0.99409 0.58619 0.12936 0.0
H1848 H 0.95893 0.49563 0.12536 0.0
H1849 H 0.91278 0.51565 0.1127 0.0
H1850 H 0.92568 0.62182 0.13987 0.0
H1851 H 0.9332 0.65529 0.12815 0.0
H1852 H 0.96376 0.63368 0.13636 0.0
H1853 H 0.98659 0.62876 0.10722 0.0
H1854 H 0.95609 0.65038 0.09891 0.0
H1855 H 0.96412 0.61362 0.09082 0.0
H1856 H 0.8695 0.54596 0.1017 0.0
H1857 H 0.83295 0.58399 0.09254 0.0
H1858 H 0.89723 0.65447 0.10317 0.0
C1859 C 0.97677 0.57049 0.12576 0.0
C1860 C 0.98011 0.53931 0.12838 0.0
C1861 C 0.95691 0.51959 0.12346 0.0
C1862 C 0.93062 0.53075 0.11626 0.0
C1863 C 0.92801 0.56164 0.11397 0.0
C1864 C 0.95054 0.5812 0.11849 0.0
C1865 C 0.9421 0.61344 0.1149 0.0
C1866 C 0.94112 0.63215 0.13076 0.0
C1867 C 0.9635 0.62736 0.10221 0.0
C1868 C 0.9111 0.60903 0.10782 0.0
C1869 C 0.90337 0.579 0.10738 0.0
C1870 C 0.87541 0.56951 0.10186 0.0
C1871 C 0.85479 0.59129 0.0967 0.0
C1872 C 0.86228 0.6222 0.09704 0.0
C1873 C 0.89093 0.63102 0.10258 0.0
H1874 H 0.59886 0.66466 0.34294 0.0
H1875 H 0.66071 0.59056 0.34966 0.0
H1876 H 0.69789 0.62541 0.36148 0.0
H1877 H 0.65536 0.72199 0.33285 0.0
H1878 H 0.6356 0.75088 0.34391 0.0
H1879 H 0.61513 0.72057 0.33451 0.0
H1880 H 0.59068 0.70798 0.36256 0.0
H1881 H 0.61109 0.73816 0.37203 0.0
H1882 H 0.61427 0.7006 0.38005 0.0
H1883 H 0.72673 0.66781 0.37467 0.0
H1884 H 0.74453 0.71421 0.3882 0.0
H1885 H 0.66363 0.76006 0.37262 0.0
C1886 C 0.6204 0.65579 0.34663 0.0
C1887 C 0.62688 0.62488 0.34533 0.0
C1888 C 0.65524 0.61417 0.3505 0.0
C1889 C 0.67655 0.63381 0.3572 0.0
C1890 C 0.66923 0.66409 0.35856 0.0
C1891 C 0.64188 0.67503 0.35335 0.0
C1892 C 0.63878 0.70814 0.35705 0.0
C1893 C 0.63607 0.72647 0.34113 0.0
C1894 C 0.61214 0.71404 0.36861 0.0
C1895 C 0.66835 0.71396 0.36551 0.0
C1896 C 0.68577 0.68839 0.36615 0.0
C1897 C 0.71342 0.68807 0.37409 0.0
C1898 C 0.72334 0.71451 0.38175 0.0
C1899 C 0.70553 0.74079 0.38146 0.0
C1900 C 0.67791 0.74044 0.373 0.0
H1901 H 0.57885 0.33767 0.60134 0.0
H1902 H 0.65149 0.40249 0.6012 0.0
H1903 H 0.61865 0.43941 0.61483 0.0
H1904 H 0.51855 0.39132 0.59382 0.0
H1905 H 0.49268 0.37203 0.60715 0.0
H1906 H 0.52147 0.35129 0.59659 0.0
H1907 H 0.54021 0.3302 0.62439 0.0
H1908 H 0.51159 0.35096 0.63502 0.0
H1909 H 0.55036 0.35583 0.64058 0.0
H1910 H 0.57882 0.46824 0.63 0.0
H1911 H 0.53438 0.48738 0.64472 0.0
H1912 H 0.48762 0.40398 0.63455 0.0
C1913 C 0.58779 0.35973 0.604 0.0
C1914 C 0.61777 0.36717 0.60017 0.0
C1915 C 0.62859 0.39627 0.60396 0.0
C1916 C 0.61011 0.41741 0.61171 0.0
C1917 C 0.58081 0.40919 0.61552 0.0
C1918 C 0.56964 0.38113 0.61169 0.0
C1919 C 0.53758 0.37768 0.61748 0.0
C1920 C 0.51632 0.3728 0.60289 0.0
C1921 C 0.53479 0.35216 0.63012 0.0
C1922 C 0.53261 0.40803 0.62537 0.0
C1923 C 0.55779 0.4259 0.6241 0.0
C1924 C 0.55888 0.45454 0.63095 0.0
C1925 C 0.53355 0.46518 0.63932 0.0
C1926 C 0.50747 0.44726 0.64074 0.0
C1927 C 0.50709 0.41836 0.63357 0.0
H1928 H 0.11226 0.36402 0.34465 0.0
H1929 H 0.15827 0.42512 0.37763 0.0
H1930 H 0.18415 0.38227 0.39048 0.0
H1931 H 0.09924 0.30709 0.37372 0.0
H1932 H 0.10513 0.27643 0.35966 0.0
H1933 H 0.09202 0.31202 0.35212 0.0
H1934 H 0.13663 0.31447 0.3318 0.0
H1935 H 0.14982 0.27877 0.33923 0.0
H1936 H 0.17432 0.31092 0.33947 0.0
H1937 H 0.20238 0.33262 0.40103 0.0
H1938 H 0.2124 0.27968 0.4081 0.0
H1939 H 0.15472 0.25107 0.36817 0.0
C1940 C 0.12812 0.36845 0.3544 0.0
C1941 C 0.13328 0.39796 0.3601 0.0
C1942 C 0.15396 0.40273 0.37303 0.0
C1943 C 0.16881 0.37854 0.38041 0.0
C1944 C 0.16283 0.34971 0.37469 0.0
C1945 C 0.14311 0.34456 0.36192 0.0
C1946 C 0.13968 0.31132 0.35858 0.0
C1947 C 0.10708 0.30113 0.36118 0.0
C1948 C 0.15078 0.30341 0.34124 0.0
C1949 C 0.16018 0.29858 0.37162 0.0
C1950 C 0.17343 0.32109 0.38074 0.0
C1951 C 0.19237 0.31479 0.39388 0.0
C1952 C 0.19787 0.28465 0.39782 0.0
C1953 C 0.18445 0.26122 0.38866 0.0
C1954 C 0.16554 0.26843 0.37533 0.0
H1955 H 0.40162 0.33524 0.09376 0.0
H1956 H 0.33407 0.40529 0.09417 0.0
H1957 H 0.36893 0.43864 0.109 0.0
H1958 H 0.42888 0.34792 0.13358 0.0
H1959 H 0.46752 0.34062 0.1286 0.0
H1960 H 0.43819 0.32301 0.11691 0.0
H1961 H 0.46025 0.34501 0.09005 0.0
H1962 H 0.48983 0.3625 0.10164 0.0
H1963 H 0.46643 0.38488 0.08843 0.0
H1964 H 0.40979 0.46298 0.12561 0.0
H1965 H 0.45464 0.47741 0.1415 0.0
H1966 H 0.49552 0.39163 0.12987 0.0
C1967 C 0.39427 0.35775 0.09673 0.0
C1968 C 0.3651 0.36764 0.09277 0.0
C1969 C 0.35634 0.39721 0.09702 0.0
C1970 C 0.37596 0.41633 0.10546 0.0
C1971 C 0.40432 0.40562 0.10948 0.0
C1972 C 0.41357 0.37713 0.10512 0.0
C1973 C 0.44485 0.37071 0.11136 0.0
C1974 C 0.44484 0.34399 0.12332 0.0
C1975 C 0.46663 0.36548 0.09701 0.0
C1976 C 0.45156 0.39987 0.12013 0.0
C1977 C 0.42793 0.41974 0.1189 0.0
C1978 C 0.42855 0.44773 0.12652 0.0
C1979 C 0.45408 0.45567 0.13557 0.0
C1980 C 0.47864 0.43571 0.13689 0.0
C1981 C 0.47724 0.40749 0.12901 0.0
H1982 H 0.33974 0.75986 0.86948 0.0
H1983 H 0.3077 0.73668 0.9182 0.0
H1984 H 0.32454 0.68452 0.91405 0.0
H1985 H 0.31973 0.68924 0.84972 0.0
H1986 H 0.35272 0.68881 0.83695 0.0
H1987 H 0.33684 0.72404 0.84342 0.0
H1988 H 0.3879 0.73966 0.85586 0.0
H1989 H 0.40393 0.7045 0.84945 0.0
H1990 H 0.40568 0.71555 0.87071 0.0
H1991 H 0.34678 0.6356 0.90518 0.0
H1992 H 0.37291 0.59307 0.89219 0.0
H1993 H 0.3904 0.6478 0.84912 0.0
C1994 C 0.336 0.74378 0.87923 0.0
C1995 C 0.32233 0.75239 0.89416 0.0
C1996 C 0.31808 0.73065 0.90665 0.0
C1997 C 0.32753 0.70094 0.9044 0.0
C1998 C 0.34113 0.69328 0.88959 0.0
C1999 C 0.34532 0.71401 0.87719 0.0
C2000 C 0.36139 0.70014 0.86266 0.0
C2001 C 0.34147 0.70058 0.84728 0.0
C2002 C 0.39151 0.7159 0.8595 0.0
C2003 C 0.3659 0.66845 0.86891 0.0
C2004 C 0.35393 0.66497 0.88445 0.0
C2005 C 0.35607 0.63799 0.89298 0.0
C2006 C 0.37102 0.61397 0.88549 0.0
C2007 C 0.38366 0.61704 0.86962 0.0
C2008 C 0.38079 0.64464 0.86121 0.0
H2009 H 0.98154 0.57268 0.62271 0.0
H2010 H 0.02877 0.49844 0.64548 0.0
H2011 H 0.07588 0.51556 0.63254 0.0
H2012 H 0.02386 0.57363 0.58419 0.0
H2013 H 0.0233 0.61401 0.58293 0.0
H2014 H 0.99301 0.59436 0.59285 0.0
H2015 H 0.00132 0.6259 0.61919 0.0
H2016 H 0.03167 0.64554 0.60939 0.0
H2017 H 0.03783 0.62651 0.62861 0.0
H2018 H 0.11841 0.5428 0.6185 0.0
H2019 H 0.15291 0.57789 0.6046 0.0
H2020 H 0.07758 0.63442 0.59132 0.0
C2021 C 0.00167 0.55969 0.6248 0.0
C2022 C 0.00142 0.53411 0.63508 0.0
C2023 C 0.02837 0.51803 0.63762 0.0
C2024 C 0.05523 0.52757 0.63031 0.0
C2025 C 0.05474 0.55317 0.62047 0.0
C2026 C 0.02861 0.56893 0.61767 0.0
C2027 C 0.03428 0.59658 0.60731 0.0
C2028 C 0.01763 0.5945 0.59084 0.0
C2029 C 0.02578 0.62532 0.61669 0.0
C2030 C 0.06781 0.59423 0.60494 0.0
C2031 C 0.07917 0.56892 0.6125 0.0
C2032 C 0.10971 0.56254 0.61242 0.0
C2033 C 0.12914 0.58264 0.6045 0.0
C2034 C 0.11797 0.60891 0.59682 0.0
C2035 C 0.08684 0.6145 0.59697 0.0
H2036 H 0.10637 0.62523 0.15209 0.0
H2037 H 0.17557 0.56737 0.13213 0.0
H2038 H 0.2039 0.61199 0.12303 0.0
H2039 H 0.10721 0.67907 0.12051 0.0
H2040 H 0.10144 0.71081 0.13386 0.0
H2041 H 0.08753 0.67443 0.13968 0.0
H2042 H 0.11702 0.67745 0.16702 0.0
H2043 H 0.13093 0.71395 0.16131 0.0
H2044 H 0.15678 0.68444 0.16656 0.0
H2045 H 0.2226 0.6629 0.11412 0.0
H2046 H 0.23163 0.71633 0.10755 0.0
H2047 H 0.15107 0.74069 0.13423 0.0
C2048 C 0.12765 0.62191 0.14598 0.0
C2049 C 0.13874 0.59278 0.14282 0.0
C2050 C 0.16667 0.58945 0.13475 0.0
C2051 C 0.18291 0.61466 0.12951 0.0
C2052 C 0.17109 0.64304 0.13259 0.0
C2053 C 0.14425 0.64679 0.1408 0.0
C2054 C 0.13613 0.67966 0.14227 0.0
C2055 C 0.10632 0.68637 0.13356 0.0
C2056 C 0.13517 0.68944 0.16037 0.0
C2057 C 0.1623 0.6938 0.13334 0.0
C2058 C 0.18222 0.67232 0.12783 0.0
C2059 C 0.20736 0.67994 0.11856 0.0
C2060 C 0.21224 0.71031 0.11484 0.0
C2061 C 0.19219 0.73267 0.12048 0.0
C2062 C 0.16705 0.72418 0.12994 0.0
H2063 H 0.14634 0.37986 0.88679 0.0
H2064 H 0.16426 0.3444 0.83812 0.0
H2065 H 0.12341 0.37526 0.82687 0.0
H2066 H 0.06802 0.37889 0.88347 0.0
H2067 H 0.06198 0.41313 0.89478 0.0
H2068 H 0.09465 0.39071 0.89879 0.0
H2069 H 0.12857 0.43671 0.89298 0.0
H2070 H 0.09593 0.45928 0.8889 0.0
H2071 H 0.12517 0.45632 0.87372 0.0
H2072 H 0.0785 0.40628 0.8212 0.0
H2073 H 0.03114 0.43464 0.82158 0.0
H2074 H 0.04191 0.45052 0.87382 0.0
C2075 C 0.14197 0.37896 0.87373 0.0
C2076 C 0.15856 0.35979 0.86332 0.0
C2077 C 0.15186 0.3589 0.84634 0.0
C2078 C 0.1288 0.37647 0.8398 0.0
C2079 C 0.11267 0.39488 0.8504 0.0
C2080 C 0.11889 0.3963 0.867 0.0
C2081 C 0.09673 0.41637 0.87584 0.0
C2082 C 0.07932 0.39871 0.88899 0.0
C2083 C 0.11255 0.4438 0.8833 0.0
C2084 C 0.07667 0.42537 0.86168 0.0
C2085 C 0.08652 0.41297 0.8471 0.0
C2086 C 0.07074 0.41644 0.83249 0.0
C2087 C 0.04384 0.43253 0.83284 0.0
C2088 C 0.03295 0.44492 0.8477 0.0
C2089 C 0.04995 0.44178 0.86222 0.0
H2090 H 0.33483 0.24196 0.61751 0.0
H2091 H 0.24521 0.27862 0.62229 0.0
H2092 H 0.26613 0.32355 0.63595 0.0
H2093 H 0.36392 0.26924 0.65625 0.0
H2094 H 0.40041 0.27746 0.64792 0.0
H2095 H 0.3782 0.24766 0.63925 0.0
H2096 H 0.38226 0.27233 0.61052 0.0
H2097 H 0.40456 0.3021 0.61908 0.0
H2098 H 0.37086 0.31083 0.60791 0.0
H2099 H 0.29721 0.36503 0.64855 0.0
H2100 H 0.33596 0.40085 0.65771 0.0
H2101 H 0.40511 0.33699 0.64421 0.0
C2102 C 0.31951 0.25931 0.62152 0.0
C2103 C 0.28833 0.25671 0.61888 0.0
C2104 C 0.26916 0.28011 0.62418 0.0
C2105 C 0.28083 0.30565 0.632 0.0
C2106 C 0.3117 0.30747 0.6344 0.0
C2107 C 0.33077 0.28496 0.62924 0.0
C2108 C 0.36316 0.29285 0.63263 0.0
C2109 C 0.37724 0.27047 0.64474 0.0
C2110 C 0.38126 0.29464 0.61658 0.0
C2111 C 0.35941 0.32348 0.64038 0.0
C2112 C 0.32955 0.33141 0.64143 0.0
C2113 C 0.32064 0.35899 0.64784 0.0
C2114 C 0.34284 0.37917 0.65304 0.0
C2115 C 0.37362 0.37176 0.6517 0.0
C2116 C 0.38183 0.34333 0.64548 0.0
H2117 H 0.50236 0.59863 0.35692 0.0
H2118 H 0.45919 0.5157 0.34196 0.0
H2119 H 0.41132 0.53392 0.35343 0.0
H2120 H 0.46223 0.60824 0.39504 0.0
H2121 H 0.45976 0.64844 0.393 0.0
H2122 H 0.49077 0.62854 0.38398 0.0
H2123 H 0.47826 0.65158 0.3556 0.0
H2124 H 0.44724 0.67156 0.36452 0.0
H2125 H 0.44116 0.64704 0.34725 0.0
H2126 H 0.36807 0.56147 0.36617 0.0
H2127 H 0.33223 0.59674 0.37879 0.0
H2128 H 0.40373 0.6618 0.38519 0.0
C2129 C 0.4829 0.5842 0.35611 0.0
C2130 C 0.48453 0.55569 0.34857 0.0
C2131 C 0.45847 0.53762 0.34768 0.0
C2132 C 0.4312 0.54775 0.35418 0.0
C2133 C 0.43037 0.57599 0.3615 0.0
C2134 C 0.45551 0.59399 0.36247 0.0
C2135 C 0.44848 0.6237 0.37062 0.0
C2136 C 0.46637 0.62743 0.38661 0.0
C2137 C 0.45411 0.65002 0.35879 0.0
C2138 C 0.41541 0.61964 0.37404 0.0
C2139 C 0.40542 0.59194 0.36874 0.0
C2140 C 0.37563 0.58321 0.3704 0.0
C2141 C 0.35546 0.60341 0.37759 0.0
C2142 C 0.36516 0.63204 0.383 0.0
C2143 C 0.3956 0.64008 0.38124 0.0
loop_
_geom_bond_atom_site_label_1
_geom_bond_atom_site_label_2
_geom_bond_distance
_geom_bond_site_symmetry_2
_ccdc_geom_bond_type
C0 O1 1.160 . S
C0 O7 1.185 . S
O1 C0 1.160 . S
O2 Zn3 1.899 . S
O2 C10 1.284 . S
Zn3 O2 1.899 . S
Zn3 O4 2.032 . S
Zn3 O7 2.086 . S
Zn3 O12 1.977 . S
O4 Zn3 2.032 . S
O4 C8 1.278 . S
C5 O6 1.203 . S
C5 O12 1.267 . S
O6 C5 1.203 . S
O7 C0 1.185 . S
O7 Zn3 2.086 . S
C8 O4 1.278 . S
C8 O9 1.211 . S
O9 C8 1.211 . S
C10 O2 1.284 . S
C10 O11 1.273 . S
O11 C10 1.273 . S
O12 Zn3 1.977 . S
O12 C5 1.267 . S
C13 O14 1.160 . S
C13 O20 1.185 . S
O14 C13 1.160 . S
O15 Zn16 1.899 . S
O15 C23 1.284 . S
Zn16 O15 1.899 . S
Zn16 O17 2.032 . S
Zn16 O20 2.086 . S
Zn16 O25 1.977 . S
O17 Zn16 2.032 . S
O17 C21 1.278 . S
C18 O19 1.203 . S
C18 O25 1.267 . S
O19 C18 1.203 . S
O20 C13 1.185 . S
O20 Zn16 2.086 . S
C21 O17 1.278 . S
C21 O22 1.211 . S
O22 C21 1.211 . S
C23 O15 1.284 . S
C23 O24 1.273 . S
O24 C23 1.273 . S
O25 Zn16 1.977 . S
O25 C18 1.267 . S
C26 O27 1.160 . S
C26 O33 1.185 . S
O27 C26 1.160 . S
O28 Zn29 1.899 . S
O28 C36 1.284 . S
Zn29 O28 1.899 . S
Zn29 O30 2.032 . S
Zn29 O33 2.086 . S
Zn29 O38 1.977 . S
O30 Zn29 2.032 . S
O30 C34 1.278 . S
C31 O32 1.203 . S
C31 O38 1.267 . S
O32 C31 1.203 . S
O33 C26 1.185 . S
O33 Zn29 2.086 . S
C34 O30 1.278 . S
C34 O35 1.211 . S
O35 C34 1.211 . S
C36 O28 1.284 . S
C36 O37 1.273 . S
O37 C36 1.273 . S
O38 Zn29 1.977 . S
O38 C31 1.267 . S
C39 O40 1.160 . S
C39 O46 1.185 . S
O40 C39 1.160 . S
O41 Zn42 1.899 . S
O41 C49 1.284 . S
Zn42 O41 1.899 . S
Zn42 O43 2.032 . S
Zn42 O46 2.086 . S
Zn42 O51 1.977 . S
O43 Zn42 2.032 . S
O43 C47 1.278 . S
C44 O45 1.203 . S
C44 O51 1.267 . S
O45 C44 1.203 . S
O46 C39 1.185 . S
O46 Zn42 2.086 . S
C47 O43 1.278 . S
C47 O48 1.211 . S
O48 C47 1.211 . S
C49 O41 1.284 . S
C49 O50 1.273 . S
O50 C49 1.273 . S
O51 Zn42 1.977 . S
O51 C44 1.267 . S
C52 O53 1.160 . S
C52 O59 1.185 . S
O53 C52 1.160 . S
O54 Zn55 1.899 . S
O54 C62 1.284 . S
Zn55 O54 1.899 . S
Zn55 O56 2.032 . S
Zn55 O59 2.086 . S
Zn55 O64 1.977 . S
O56 Zn55 2.032 . S
O56 C60 1.278 . S
C57 O58 1.203 . S
C57 O64 1.267 . S
O58 C57 1.203 . S
O59 C52 1.185 . S
O59 Zn55 2.086 . S
C60 O56 1.278 . S
C60 O61 1.211 . S
O61 C60 1.211 . S
C62 O54 1.284 . S
C62 O63 1.273 . S
O63 C62 1.273 . S
O64 Zn55 1.977 . S
O64 C57 1.267 . S
C65 O66 1.160 . S
C65 O72 1.185 . S
O66 C65 1.160 . S
O67 Zn68 1.899 . S
O67 C75 1.284 . S
Zn68 O67 1.899 . S
Zn68 O69 2.032 . S
Zn68 O72 2.086 . S
Zn68 O77 1.977 . S
O69 Zn68 2.032 . S
O69 C73 1.278 . S
C70 O71 1.203 . S
C70 O77 1.267 . S
O71 C70 1.203 . S
O72 C65 1.185 . S
O72 Zn68 2.086 . S
C73 O69 1.278 . S
C73 O74 1.211 . S
O74 C73 1.211 . S
C75 O67 1.284 . S
C75 O76 1.273 . S
O76 C75 1.273 . S
O77 Zn68 1.977 . S
O77 C70 1.267 . S
C78 O79 1.160 . S
C78 O85 1.185 . S
O79 C78 1.160 . S
O80 Zn81 1.899 . S
O80 C88 1.284 . S
Zn81 O80 1.899 . S
Zn81 O82 2.032 . S
Zn81 O85 2.086 . S
Zn81 O90 1.977 . S
O82 Zn81 2.032 . S
O82 C86 1.278 . S
C83 O84 1.203 . S
C83 O90 1.267 . S
O84 C83 1.203 . S
O85 C78 1.185 . S
O85 Zn81 2.086 . S
C86 O82 1.278 . S
C86 O87 1.211 . S
O87 C86 1.211 . S
C88 O80 1.284 . S
C88 O89 1.273 . S
O89 C88 1.273 . S
O90 Zn81 1.977 . S
O90 C83 1.267 . S
C91 O92 1.160 . S
C91 O98 1.185 . S
O92 C91 1.160 . S
O93 Zn94 1.899 . S
O93 C101 1.284 . S
Zn94 O93 1.899 . S
Zn94 O95 2.032 . S
Zn94 O98 2.086 . S
Zn94 O103 1.977 . S
O95 Zn94 2.032 . S
O95 C99 1.278 . S
C96 O97 1.203 . S
C96 O103 1.267 . S
O97 C96 1.203 . S
O98 C91 1.185 . S
O98 Zn94 2.086 . S
C99 O95 1.278 . S
C99 O100 1.211 . S
O100 C99 1.211 . S
C101 O93 1.284 . S
C101 O102 1.273 . S
O102 C101 1.273 . S
O103 Zn94 1.977 . S
O103 C96 1.267 . S
C104 O105 1.160 . S
C104 O111 1.185 . S
O105 C104 1.160 . S
O106 Zn107 1.899 . S
O106 C114 1.284 . S
Zn107 O106 1.899 . S
Zn107 O108 2.032 . S
Zn107 O111 2.086 . S
Zn107 O116 1.977 . S
O108 Zn107 2.032 . S
O108 C112 1.278 . S
C109 O110 1.203 . S
C109 O116 1.267 . S
O110 C109 1.203 . S
O111 C104 1.185 . S
O111 Zn107 2.086 . S
C112 O108 1.278 . S
C112 O113 1.211 . S
O113 C112 1.211 . S
C114 O106 1.284 . S
C114 O115 1.273 . S
O115 C114 1.273 . S
O116 Zn107 1.977 . S
O116 C109 1.267 . S
C117 O118 1.160 . S
C117 O124 1.185 . S
O118 C117 1.160 . S
O119 Zn120 1.899 . S
O119 C127 1.284 . S
Zn120 O119 1.899 . S
Zn120 O121 2.032 . S
Zn120 O124 2.086 . S
Zn120 O129 1.977 . S
O121 Zn120 2.032 . S
O121 C125 1.278 . S
C122 O123 1.203 . S
C122 O129 1.267 . S
O123 C122 1.203 . S
O124 C117 1.185 . S
O124 Zn120 2.086 . S
C125 O121 1.278 . S
C125 O126 1.211 . S
O126 C125 1.211 . S
C127 O119 1.284 . S
C127 O128 1.273 . S
O128 C127 1.273 . S
O129 Zn120 1.977 . S
O129 C122 1.267 . S
C130 O131 1.160 . S
C130 O137 1.185 . S
O131 C130 1.160 . S
O132 Zn133 1.899 . S
O132 C140 1.284 . S
Zn133 O132 1.899 . S
Zn133 O134 2.032 . S
Zn133 O137 2.086 . S
Zn133 O142 1.977 . S
O134 Zn133 2.032 . S
O134 C138 1.278 . S
C135 O136 1.203 . S
C135 O142 1.267 . S
O136 C135 1.203 . S
O137 C130 1.185 . S
O137 Zn133 2.086 . S
C138 O134 1.278 . S
C138 O139 1.211 . S
O139 C138 1.211 . S
C140 O132 1.284 . S
C140 O141 1.273 . S
O141 C140 1.273 . S
O142 Zn133 1.977 . S
O142 C135 1.267 . S
C143 O144 1.160 . S
C143 O150 1.185 . S
O144 C143 1.160 . S
O145 Zn146 1.899 . S
O145 C153 1.284 . S
Zn146 O145 1.899 . S
Zn146 O147 2.032 . S
Zn146 O150 2.086 . S
Zn146 O155 1.977 . S
O147 Zn146 2.032 . S
O147 C151 1.278 . S
C148 O149 1.203 . S
C148 O155 1.267 . S
O149 C148 1.203 . S
O150 C143 1.185 . S
O150 Zn146 2.086 . S
C151 O147 1.278 . S
C151 O152 1.211 . S
O152 C151 1.211 . S
C153 O145 1.284 . S
C153 O154 1.273 . S
O154 C153 1.273 . S
O155 Zn146 1.977 . S
O155 C148 1.267 . S
C156 O157 1.160 . S
C156 O163 1.185 . S
O157 C156 1.160 . S
O158 Zn159 1.899 . S
O158 C166 1.284 . S
Zn159 O158 1.899 . S
Zn159 O160 2.032 . S
Zn159 O163 2.086 . S
Zn159 O168 1.977 . S
O160 Zn159 2.032 . S
O160 C164 1.278 . S
C161 O162 1.203 . S
C161 O168 1.267 . S
O162 C161 1.203 . S
O163 C156 1.185 . S
O163 Zn159 2.086 . S
C164 O160 1.278 . S
C164 O165 1.211 . S
O165 C164 1.211 . S
C166 O158 1.284 . S
C166 O167 1.273 . S
O167 C166 1.273 . S
O168 Zn159 1.977 . S
O168 C161 1.267 . S
C169 O170 1.160 . S
C169 O176 1.185 . S
O170 C169 1.160 . S
O171 Zn172 1.899 . S
O171 C179 1.284 . S
Zn172 O171 1.899 . S
Zn172 O173 2.032 . S
Zn172 O176 2.086 . S
Zn172 O181 1.977 . S
O173 Zn172 2.032 . S
O173 C177 1.278 . S
C174 O175 1.203 . S
C174 O181 1.267 . S
O175 C174 1.203 . S
O176 C169 1.185 . S
O176 Zn172 2.086 . S
C177 O173 1.278 . S
C177 O178 1.211 . S
O178 C177 1.211 . S
C179 O171 1.284 . S
C179 O180 1.273 . S
O180 C179 1.273 . S
O181 Zn172 1.977 . S
O181 C174 1.267 . S
C182 O183 1.160 . S
C182 O189 1.185 . S
O183 C182 1.160 . S
O184 Zn185 1.899 . S
O184 C192 1.284 . S
Zn185 O184 1.899 . S
Zn185 O186 2.032 . S
Zn185 O189 2.086 . S
Zn185 O194 1.977 . S
O186 Zn185 2.032 . S
O186 C190 1.278 . S
C187 O188 1.203 . S
C187 O194 1.267 . S
O188 C187 1.203 . S
O189 C182 1.185 . S
O189 Zn185 2.086 . S
C190 O186 1.278 . S
C190 O191 1.211 . S
O191 C190 1.211 . S
C192 O184 1.284 . S
C192 O193 1.273 . S
O193 C192 1.273 . S
O194 Zn185 1.977 . S
O194 C187 1.267 . S
C195 O196 1.160 . S
C195 O202 1.185 . S
O196 C195 1.160 . S
O197 Zn198 1.899 . S
O197 C205 1.284 . S
Zn198 O197 1.899 . S
Zn198 O199 2.032 . S
Zn198 O202 2.086 . S
Zn198 O207 1.977 . S
O199 Zn198 2.032 . S
O199 C203 1.278 . S
C200 O201 1.203 . S
C200 O207 1.267 . S
O201 C200 1.203 . S
O202 C195 1.185 . S
O202 Zn198 2.086 . S
C203 O199 1.278 . S
C203 O204 1.211 . S
O204 C203 1.211 . S
C205 O197 1.284 . S
C205 O206 1.273 . S
O206 C205 1.273 . S
O207 Zn198 1.977 . S
O207 C200 1.267 . S
C208 O209 1.160 . S
C208 O215 1.185 . S
O209 C208 1.160 . S
O210 Zn211 1.899 . S
O210 C218 1.284 . S
Zn211 O210 1.899 . S
Zn211 O212 2.032 . S
Zn211 O215 2.086 . S
Zn211 O220 1.977 . S
O212 Zn211 2.032 . S
O212 C216 1.278 . S
C213 O214 1.203 . S
C213 O220 1.267 . S
O214 C213 1.203 . S
O215 C208 1.185 . S
O215 Zn211 2.086 . S
C216 O212 1.278 . S
C216 O217 1.211 . S
O217 C216 1.211 . S
C218 O210 1.284 . S
C218 O219 1.273 . S
O219 C218 1.273 . S
O220 Zn211 1.977 . S
O220 C213 1.267 . S
C221 O222 1.160 . S
C221 O228 1.185 . S
O222 C221 1.160 . S
O223 Zn224 1.899 . S
O223 C231 1.284 . S
Zn224 O223 1.899 . S
Zn224 O225 2.032 . S
Zn224 O228 2.086 . S
Zn224 O233 1.977 . S
O225 Zn224 2.032 . S
O225 C229 1.278 . S
C226 O227 1.203 . S
C226 O233 1.267 . S
O227 C226 1.203 . S
O228 C221 1.185 . S
O228 Zn224 2.086 . S
C229 O225 1.278 . S
C229 O230 1.211 . S
O230 C229 1.211 . S
C231 O223 1.284 . S
C231 O232 1.273 . S
O232 C231 1.273 . S
O233 Zn224 1.977 . S
O233 C226 1.267 . S
C234 O235 1.160 . S
C234 O241 1.185 . S
O235 C234 1.160 . S
O236 Zn237 1.899 . S
O236 C244 1.284 . S
Zn237 O236 1.899 . S
Zn237 O238 2.032 . S
Zn237 O241 2.086 . S
Zn237 O246 1.977 . S
O238 Zn237 2.032 . S
O238 C242 1.278 . S
C239 O240 1.203 . S
C239 O246 1.267 . S
O240 C239 1.203 . S
O241 C234 1.185 . S
O241 Zn237 2.086 . S
C242 O238 1.278 . S
C242 O243 1.211 . S
O243 C242 1.211 . S
C244 O236 1.284 . S
C244 O245 1.273 . S
O245 C244 1.273 . S
O246 Zn237 1.977 . S
O246 C239 1.267 . S
C247 O248 1.160 . S
C247 O254 1.185 . S
O248 C247 1.160 . S
O249 Zn250 1.899 . S
O249 C257 1.284 . S
Zn250 O249 1.899 . S
Zn250 O251 2.032 . S
Zn250 O254 2.086 . S
Zn250 O259 1.977 . S
O251 Zn250 2.032 . S
O251 C255 1.278 . S
C252 O253 1.203 . S
C252 O259 1.267 . S
O253 C252 1.203 . S
O254 C247 1.185 . S
O254 Zn250 2.086 . S
C255 O251 1.278 . S
C255 O256 1.211 . S
O256 C255 1.211 . S
C257 O249 1.284 . S
C257 O258 1.273 . S
O258 C257 1.273 . S
O259 Zn250 1.977 . S
O259 C252 1.267 . S
C260 O261 1.160 . S
C260 O267 1.185 . S
O261 C260 1.160 . S
O262 Zn263 1.899 . S
O262 C270 1.284 . S
Zn263 O262 1.899 . S
Zn263 O264 2.032 . S
Zn263 O267 2.086 . S
Zn263 O272 1.977 . S
O264 Zn263 2.032 . S
O264 C268 1.278 . S
C265 O266 1.203 . S
C265 O272 1.267 . S
O266 C265 1.203 . S
O267 C260 1.185 . S
O267 Zn263 2.086 . S
C268 O264 1.278 . S
C268 O269 1.211 . S
O269 C268 1.211 . S
C270 O262 1.284 . S
C270 O271 1.273 . S
O271 C270 1.273 . S
O272 Zn263 1.977 . S
O272 C265 1.267 . S
C273 O274 1.160 . S
C273 O280 1.185 . S
O274 C273 1.160 . S
O275 Zn276 1.899 . S
O275 C283 1.284 . S
Zn276 O275 1.899 . S
Zn276 O277 2.032 . S
Zn276 O280 2.086 . S
Zn276 O285 1.977 . S
O277 Zn276 2.032 . S
O277 C281 1.278 . S
C278 O279 1.203 . S
C278 O285 1.267 . S
O279 C278 1.203 . S
O280 C273 1.185 . S
O280 Zn276 2.086 . S
C281 O277 1.278 . S
C281 O282 1.211 . S
O282 C281 1.211 . S
C283 O275 1.284 . S
C283 O284 1.273 . S
O284 C283 1.273 . S
O285 Zn276 1.977 . S
O285 C278 1.267 . S
C286 O287 1.160 . S
C286 O293 1.185 . S
O287 C286 1.160 . S
O288 Zn289 1.899 . S
O288 C296 1.284 . S
Zn289 O288 1.899 . S
Zn289 O290 2.032 . S
Zn289 O293 2.086 . S
Zn289 O298 1.977 . S
O290 Zn289 2.032 . S
O290 C294 1.278 . S
C291 O292 1.203 . S
C291 O298 1.267 . S
O292 C291 1.203 . S
O293 C286 1.185 . S
O293 Zn289 2.086 . S
C294 O290 1.278 . S
C294 O295 1.211 . S
O295 C294 1.211 . S
C296 O288 1.284 . S
C296 O297 1.273 . S
O297 C296 1.273 . S
O298 Zn289 1.977 . S
O298 C291 1.267 . S
C299 O300 1.160 . S
C299 O306 1.185 . S
O300 C299 1.160 . S
O301 Zn302 1.899 . S
O301 C309 1.284 . S
Zn302 O301 1.899 . S
Zn302 O303 2.032 . S
Zn302 O306 2.086 . S
Zn302 O311 1.977 . S
O303 Zn302 2.032 . S
O303 C307 1.278 . S
C304 O305 1.203 . S
C304 O311 1.267 . S
O305 C304 1.203 . S
O306 C299 1.185 . S
O306 Zn302 2.086 . S
C307 O303 1.278 . S
C307 O308 1.211 . S
O308 C307 1.211 . S
C309 O301 1.284 . S
C309 O310 1.273 . S
O310 C309 1.273 . S
O311 Zn302 1.977 . S
O311 C304 1.267 . S
C312 O313 1.160 . S
C312 O319 1.185 . S
O313 C312 1.160 . S
O314 Zn315 1.899 . S
O314 C322 1.284 . S
Zn315 O314 1.899 . S
Zn315 O316 2.032 . S
Zn315 O319 2.086 . S
Zn315 O324 1.977 . S
O316 Zn315 2.032 . S
O316 C320 1.278 . S
C317 O318 1.203 . S
C317 O324 1.267 . S
O318 C317 1.203 . S
O319 C312 1.185 . S
O319 Zn315 2.086 . S
C320 O316 1.278 . S
C320 O321 1.211 . S
O321 C320 1.211 . S
C322 O314 1.284 . S
C322 O323 1.273 . S
O323 C322 1.273 . S
O324 Zn315 1.977 . S
O324 C317 1.267 . S
C325 O326 1.160 . S
C325 O332 1.185 . S
O326 C325 1.160 . S
O327 Zn328 1.899 . S
O327 C335 1.284 . S
Zn328 O327 1.899 . S
Zn328 O329 2.032 . S
Zn328 O332 2.086 . S
Zn328 O337 1.977 . S
O329 Zn328 2.032 . S
O329 C333 1.278 . S
C330 O331 1.203 . S
C330 O337 1.267 . S
O331 C330 1.203 . S
O332 C325 1.185 . S
O332 Zn328 2.086 . S
C333 O329 1.278 . S
C333 O334 1.211 . S
O334 C333 1.211 . S
C335 O327 1.284 . S
C335 O336 1.273 . S
O336 C335 1.273 . S
O337 Zn328 1.977 . S
O337 C330 1.267 . S
C338 O339 1.160 . S
C338 O345 1.185 . S
O339 C338 1.160 . S
O340 Zn341 1.899 . S
O340 C348 1.284 . S
Zn341 O340 1.899 . S
Zn341 O342 2.032 . S
Zn341 O345 2.086 . S
Zn341 O350 1.977 . S
O342 Zn341 2.032 . S
O342 C346 1.278 . S
C343 O344 1.203 . S
C343 O350 1.267 . S
O344 C343 1.203 . S
O345 C338 1.185 . S
O345 Zn341 2.086 . S
C346 O342 1.278 . S
C346 O347 1.211 . S
O347 C346 1.211 . S
C348 O340 1.284 . S
C348 O349 1.273 . S
O349 C348 1.273 . S
O350 Zn341 1.977 . S
O350 C343 1.267 . S
C351 O352 1.160 . S
C351 O358 1.185 . S
O352 C351 1.160 . S
O353 Zn354 1.899 . S
O353 C361 1.284 . S
Zn354 O353 1.899 . S
Zn354 O355 2.032 . S
Zn354 O358 2.086 . S
Zn354 O363 1.977 . S
O355 Zn354 2.032 . S
O355 C359 1.278 . S
C356 O357 1.203 . S
C356 O363 1.267 . S
O357 C356 1.203 . S
O358 C351 1.185 . S
O358 Zn354 2.086 . S
C359 O355 1.278 . S
C359 O360 1.211 . S
O360 C359 1.211 . S
C361 O353 1.284 . S
C361 O362 1.273 . S
O362 C361 1.273 . S
O363 Zn354 1.977 . S
O363 C356 1.267 . S
C364 O365 1.160 . S
C364 O371 1.185 . S
O365 C364 1.160 . S
O366 Zn367 1.899 . S
O366 C374 1.284 . S
Zn367 O366 1.899 . S
Zn367 O368 2.032 . S
Zn367 O371 2.086 . S
Zn367 O376 1.977 . S
O368 Zn367 2.032 . S
O368 C372 1.278 . S
C369 O370 1.203 . S
C369 O376 1.267 . S
O370 C369 1.203 . S
O371 C364 1.185 . S
O371 Zn367 2.086 . S
C372 O368 1.278 . S
C372 O373 1.211 . S
O373 C372 1.211 . S
C374 O366 1.284 . S
C374 O375 1.273 . S
O375 C374 1.273 . S
O376 Zn367 1.977 . S
O376 C369 1.267 . S
C377 O378 1.160 . S
C377 O384 1.185 . S
O378 C377 1.160 . S
O379 Zn380 1.899 . S
O379 C387 1.284 . S
Zn380 O379 1.899 . S
Zn380 O381 2.032 . S
Zn380 O384 2.086 . S
Zn380 O389 1.977 . S
O381 Zn380 2.032 . S
O381 C385 1.278 . S
C382 O383 1.203 . S
C382 O389 1.267 . S
O383 C382 1.203 . S
O384 C377 1.185 . S
O384 Zn380 2.086 . S
C385 O381 1.278 . S
C385 O386 1.211 . S
O386 C385 1.211 . S
C387 O379 1.284 . S
C387 O388 1.273 . S
O388 C387 1.273 . S
O389 Zn380 1.977 . S
O389 C382 1.267 . S
C390 O391 1.160 . S
C390 O397 1.185 . S
O391 C390 1.160 . S
O392 Zn393 1.899 . S
O392 C400 1.284 . S
Zn393 O392 1.899 . S
Zn393 O394 2.032 . S
Zn393 O397 2.086 . S
Zn393 O402 1.977 . S
O394 Zn393 2.032 . S
O394 C398 1.278 . S
C395 O396 1.203 . S
C395 O402 1.267 . S
O396 C395 1.203 . S
O397 C390 1.185 . S
O397 Zn393 2.086 . S
C398 O394 1.278 . S
C398 O399 1.211 . S
O399 C398 1.211 . S
C400 O392 1.284 . S
C400 O401 1.273 . S
O401 C400 1.273 . S
O402 Zn393 1.977 . S
O402 C395 1.267 . S
C403 O404 1.160 . S
C403 O410 1.185 . S
O404 C403 1.160 . S
O405 Zn406 1.899 . S
O405 C413 1.284 . S
Zn406 O405 1.899 . S
Zn406 O407 2.032 . S
Zn406 O410 2.086 . S
Zn406 O415 1.977 . S
O407 Zn406 2.032 . S
O407 C411 1.278 . S
C408 O409 1.203 . S
C408 O415 1.267 . S
O409 C408 1.203 . S
O410 C403 1.185 . S
O410 Zn406 2.086 . S
C411 O407 1.278 . S
C411 O412 1.211 . S
O412 C411 1.211 . S
C413 O405 1.284 . S
C413 O414 1.273 . S
O414 C413 1.273 . S
O415 Zn406 1.977 . S
O415 C408 1.267 . S
H416 C428 0.930 . S
H417 C430 0.930 . S
H418 C431 0.930 . S
H419 C435 0.959 . S
H420 C435 0.959 . S
H421 C435 0.961 . S
H422 C436 0.960 . S
H423 C436 0.961 . S
H424 C436 0.959 . S
H425 C439 0.929 . S
H426 C440 0.931 . S
H427 C442 0.918 1_565 S
C428 H416 0.930 . S
C428 C429 1.399 . S
C428 C433 1.399 . S
C429 C428 1.399 . S
C429 C430 1.376 1_565 S
C430 H417 0.930 . S
C430 C429 1.376 1_545 S
C430 C431 1.388 . S
C431 H418 0.930 . S
C431 C430 1.388 . S
C431 C432 1.390 . S
C432 C431 1.390 . S
C432 C433 1.394 1_545 S
C432 C438 1.465 . S
C433 C428 1.399 . S
C433 C432 1.394 1_565 S
C433 C434 1.516 . S
C434 C433 1.516 . S
C434 C435 1.502 . S
C434 C436 1.561 . S
C434 C437 1.526 . S
C435 H419 0.959 . S
C435 H420 0.959 . S
C435 H421 0.961 . S
C435 C434 1.502 . S
C436 H422 0.960 . S
C436 H423 0.961 . S
C436 H424 0.959 . S
C436 C434 1.561 . S
C437 C434 1.526 . S
C437 C438 1.396 1_565 S
C437 C442 1.387 1_565 S
C438 C432 1.465 . S
C438 C437 1.396 1_545 S
C438 C439 1.399 . S
C439 H425 0.929 . S
C439 C438 1.399 . S
C439 C440 1.385 . S
C440 H426 0.931 . S
C440 C439 1.385 . S
C440 C441 1.389 . S
C441 C440 1.389 . S
C441 C442 1.401 . S
C442 H427 0.918 1_545 S
C442 C437 1.387 1_545 S
C442 C441 1.401 . S
H443 C455 0.930 . S
H444 C457 0.930 . S
H445 C458 0.930 . S
H446 C462 0.959 . S
H447 C462 0.959 . S
H448 C462 0.961 . S
H449 C463 0.960 . S
H450 C463 0.961 . S
H451 C463 0.959 . S
H452 C466 0.929 . S
H453 C467 0.931 . S
H454 C469 0.930 . S
C455 H443 0.930 . S
C455 C456 1.399 . S
C455 C460 1.399 . S
C456 C455 1.399 . S
C456 C457 1.376 . S
C457 H444 0.930 . S
C457 C456 1.376 . S
C457 C458 1.388 . S
C458 H445 0.930 . S
C458 C457 1.388 . S
C458 C459 1.390 . S
C459 C458 1.390 . S
C459 C460 1.394 . S
C459 C465 1.465 . S
C460 C455 1.399 . S
C460 C459 1.394 . S
C460 C461 1.516 . S
C461 C460 1.516 . S
C461 C462 1.502 . S
C461 C463 1.561 . S
C461 C464 1.526 . S
C462 H446 0.959 . S
C462 H447 0.959 . S
C462 H448 0.961 . S
C462 C461 1.502 . S
C463 H449 0.960 . S
C463 H450 0.961 . S
C463 H451 0.959 . S
C463 C461 1.561 . S
C464 C461 1.526 . S
C464 C465 1.396 . S
C464 C469 1.390 . S
C465 C459 1.465 . S
C465 C464 1.396 . S
C465 C466 1.399 . S
C466 H452 0.929 . S
C466 C465 1.399 . S
C466 C467 1.385 . S
C467 H453 0.931 . S
C467 C466 1.385 . S
C467 C468 1.389 . S
C468 C467 1.389 . S
C468 C469 1.387 . S
C469 H454 0.930 . S
C469 C464 1.390 . S
C469 C468 1.387 . S
H470 C482 0.930 . S
H471 C484 0.930 . S
H472 C485 0.930 . S
H473 C489 0.959 . S
H474 C489 0.959 . S
H475 C489 0.961 . S
H476 C490 0.960 . S
H477 C490 0.961 . S
H478 C490 0.959 . S
H479 C493 0.929 . S
H480 C494 0.931 . S
H481 C496 0.913 1_545 S
C482 H470 0.930 . S
C482 C483 1.399 . S
C482 C487 1.399 . S
C483 C482 1.399 . S
C483 C484 1.376 1_545 S
C484 H471 0.930 . S
C484 C483 1.376 1_565 S
C484 C485 1.388 . S
C485 H472 0.930 . S
C485 C484 1.388 . S
C485 C486 1.390 . S
C486 C485 1.390 . S
C486 C487 1.394 1_565 S
C486 C492 1.465 . S
C487 C482 1.399 . S
C487 C486 1.394 1_545 S
C487 C488 1.516 . S
C488 C487 1.516 . S
C488 C489 1.502 . S
C488 C490 1.561 . S
C488 C491 1.526 . S
C489 H473 0.959 . S
C489 H474 0.959 . S
C489 H475 0.961 . S
C489 C488 1.502 . S
C490 H476 0.960 . S
C490 H477 0.961 . S
C490 H478 0.959 . S
C490 C488 1.561 . S
C491 C488 1.526 . S
C491 C492 1.396 1_545 S
C491 C496 1.385 1_545 S
C492 C486 1.465 . S
C492 C491 1.396 1_565 S
C492 C493 1.399 . S
C493 H479 0.929 . S
C493 C492 1.399 . S
C493 C494 1.385 . S
C494 H480 0.931 . S
C494 C493 1.385 . S
C494 C495 1.389 . S
C495 C494 1.389 . S
C495 C496 1.409 . S
C496 H481 0.913 1_565 S
C496 C491 1.385 1_565 S
C496 C495 1.409 . S
H497 C509 0.930 . S
H498 C511 0.930 . S
H499 C512 0.930 . S
H500 C516 0.959 . S
H501 C516 0.997 . S
H502 C516 0.961 . S
H503 C517 0.960 . S
H504 C517 0.961 1_554 S
H505 C517 0.959 1_554 S
H506 C520 0.929 . S
H507 C521 0.931 . S
H508 C523 0.930 . S
C509 H497 0.930 . S
C509 C510 1.399 . S
C509 C514 1.399 . S
C510 C509 1.399 . S
C510 C511 1.376 . S
C511 H498 0.930 . S
C511 C510 1.376 . S
C511 C512 1.388 . S
C512 H499 0.930 . S
C512 C511 1.388 . S
C512 C513 1.390 . S
C513 C512 1.390 . S
C513 C514 1.394 . S
C513 C519 1.465 1_556 S
C514 C509 1.399 . S
C514 C513 1.394 . S
C514 C515 1.516 . S
C515 C514 1.516 . S
C515 C516 1.502 . S
C515 C517 1.561 . S
C515 C518 1.526 1_556 S
C516 H500 0.959 . S
C516 H501 0.997 . S
C516 H502 0.961 . S
C516 C515 1.502 . S
C517 H503 0.960 . S
C517 H504 0.961 1_556 S
C517 H505 0.959 1_556 S
C517 C515 1.561 . S
C518 C515 1.526 1_554 S
C518 C519 1.396 . S
C518 C523 1.390 . S
C519 C513 1.465 1_554 S
C519 C518 1.396 . S
C519 C520 1.399 . S
C520 H506 0.929 . S
C520 C519 1.399 . S
C520 C521 1.385 . S
C521 H507 0.931 . S
C521 C520 1.385 . S
C521 C522 1.389 . S
C522 C521 1.389 . S
C522 C523 1.387 . S
C523 H508 0.930 . S
C523 C518 1.390 . S
C523 C522 1.387 . S
H524 C536 0.930 . S
H525 C538 0.930 . S
H526 C539 0.930 . S
H527 C543 0.959 . S
H528 C543 0.959 . S
H529 C543 0.961 . S
H530 C544 0.960 . S
H531 C544 0.961 . S
H532 C544 0.959 . S
H533 C547 0.929 . S
H534 C548 0.931 . S
H535 C550 0.945 . S
C536 H524 0.930 . S
C536 C537 1.399 . S
C536 C541 1.399 . S
C537 C536 1.399 . S
C537 C538 1.376 1_565 S
C538 H525 0.930 . S
C538 C537 1.376 1_545 S
C538 C539 1.388 . S
C539 H526 0.930 . S
C539 C538 1.388 . S
C539 C540 1.390 . S
C540 C539 1.390 . S
C540 C541 1.394 1_545 S
C540 C546 1.465 . S
C541 C536 1.399 . S
C541 C540 1.394 1_565 S
C541 C542 1.516 . S
C542 C541 1.516 . S
C542 C543 1.502 . S
C542 C544 1.561 . S
C542 C545 1.526 . S
C543 H527 0.959 . S
C543 H528 0.959 . S
C543 H529 0.961 . S
C543 C542 1.502 . S
C544 H530 0.960 . S
C544 H531 0.961 . S
C544 H532 0.959 . S
C544 C542 1.561 . S
C545 C542 1.526 . S
C545 C546 1.396 1_565 S
C545 C550 1.393 . S
C546 C540 1.465 . S
C546 C545 1.396 1_545 S
C546 C547 1.399 . S
C547 H533 0.929 . S
C547 C546 1.399 . S
C547 C548 1.385 . S
C548 H534 0.931 . S
C548 C547 1.385 . S
C548 C549 1.389 . S
C549 C548 1.389 . S
C549 C550 1.369 1_545 S
C550 H535 0.945 . S
C550 C545 1.393 . S
C550 C549 1.369 1_565 S
H551 C563 0.930 . S
H552 C565 0.930 . S
H553 C566 0.930 . S
H554 C570 0.959 . S
H555 C570 0.959 . S
H556 C570 0.961 . S
H557 C571 0.960 . S
H558 C571 0.961 . S
H559 C571 0.959 . S
H560 C574 0.929 . S
H561 C575 0.931 . S
H562 C577 0.930 . S
C563 H551 0.930 . S
C563 C564 1.399 . S
C563 C568 1.399 . S
C564 C563 1.399 . S
C564 C565 1.376 . S
C565 H552 0.930 . S
C565 C564 1.376 . S
C565 C566 1.388 . S
C566 H553 0.930 . S
C566 C565 1.388 . S
C566 C567 1.390 . S
C567 C566 1.390 . S
C567 C568 1.394 . S
C567 C573 1.465 . S
C568 C563 1.399 . S
C568 C567 1.394 . S
C568 C569 1.516 . S
C569 C568 1.516 . S
C569 C570 1.502 . S
C569 C571 1.561 . S
C569 C572 1.526 . S
C570 H554 0.959 . S
C570 H555 0.959 . S
C570 H556 0.961 . S
C570 C569 1.502 . S
C571 H557 0.960 . S
C571 H558 0.961 . S
C571 H559 0.959 . S
C571 C569 1.561 . S
C572 C569 1.526 . S
C572 C573 1.396 . S
C572 C577 1.390 . S
C573 C567 1.465 . S
C573 C572 1.396 . S
C573 C574 1.399 . S
C574 H560 0.929 . S
C574 C573 1.399 . S
C574 C575 1.385 . S
C575 H561 0.931 . S
C575 C574 1.385 . S
C575 C576 1.389 . S
C576 C575 1.389 . S
C576 C577 1.387 . S
C577 H562 0.930 . S
C577 C572 1.390 . S
C577 C576 1.387 . S
H578 C590 0.930 . S
H579 C592 0.930 . S
H580 C593 0.930 . S
H581 C597 0.959 . S
H582 C597 0.959 . S
H583 C597 0.961 . S
H584 C598 0.960 . S
H585 C598 0.961 . S
H586 C598 0.959 . S
H587 C601 0.929 . S
H588 C602 0.931 . S
H589 C604 0.930 . S
C590 H578 0.930 . S
C590 C591 1.399 . S
C590 C595 1.399 . S
C591 C590 1.399 . S
C591 C592 1.376 1_545 S
C592 H579 0.930 . S
C592 C591 1.376 1_565 S
C592 C593 1.388 . S
C593 H580 0.930 . S
C593 C592 1.388 . S
C593 C594 1.390 . S
C594 C593 1.390 . S
C594 C595 1.394 1_565 S
C594 C600 1.465 . S
C595 C590 1.399 . S
C595 C594 1.394 1_545 S
C595 C596 1.516 . S
C596 C595 1.516 . S
C596 C597 1.502 . S
C596 C598 1.561 . S
C596 C599 1.526 . S
C597 H581 0.959 . S
C597 H582 0.959 . S
C597 H583 0.961 . S
C597 C596 1.502 . S
C598 H584 0.960 . S
C598 H585 0.961 . S
C598 H586 0.959 . S
C598 C596 1.561 . S
C599 C596 1.526 . S
C599 C600 1.396 1_545 S
C599 C604 1.390 . S
C600 C594 1.465 . S
C600 C599 1.396 1_565 S
C600 C601 1.399 . S
C601 H587 0.929 . S
C601 C600 1.399 . S
C601 C602 1.385 . S
C602 H588 0.931 . S
C602 C601 1.385 . S
C602 C603 1.389 . S
C603 C602 1.389 . S
C603 C604 1.387 1_565 S
C604 H589 0.930 . S
C604 C599 1.390 . S
C604 C603 1.387 1_545 S
H605 C617 0.930 . S
H606 C619 0.930 . S
H607 C620 0.930 . S
H608 C624 0.959 . S
H609 C624 0.959 . S
H610 C624 0.961 . S
H611 C625 0.960 . S
H612 C625 0.961 . S
H613 C625 0.959 . S
H614 C628 0.929 . S
H615 C629 0.931 . S
H616 C631 0.930 . S
C617 H605 0.930 . S
C617 C618 1.399 . S
C617 C622 1.399 . S
C618 C617 1.399 . S
C618 C619 1.376 . S
C619 H606 0.930 . S
C619 C618 1.376 . S
C619 C620 1.388 . S
C620 H607 0.930 . S
C620 C619 1.388 . S
C620 C621 1.390 . S
C621 C620 1.390 . S
C621 C622 1.394 . S
C621 C627 1.465 1_556 S
C622 C617 1.399 . S
C622 C621 1.394 . S
C622 C623 1.516 1_556 S
C623 C622 1.516 1_554 S
C623 C624 1.502 . S
C623 C625 1.561 . S
C623 C626 1.526 . S
C624 H608 0.959 . S
C624 H609 0.959 . S
C624 H610 0.961 . S
C624 C623 1.502 . S
C625 H611 0.960 . S
C625 H612 0.961 . S
C625 H613 0.959 . S
C625 C623 1.561 . S
C626 C623 1.526 . S
C626 C627 1.396 . S
C626 C631 1.390 . S
C627 C621 1.465 1_554 S
C627 C626 1.396 . S
C627 C628 1.399 . S
C628 H614 0.929 . S
C628 C627 1.399 . S
C628 C629 1.385 . S
C629 H615 0.931 . S
C629 C628 1.385 . S
C629 C630 1.389 . S
C630 C629 1.389 . S
C630 C631 1.387 . S
C631 H616 0.930 . S
C631 C626 1.390 . S
C631 C630 1.387 . S
H632 C644 0.930 . S
H633 C646 0.930 . S
H634 C647 0.930 . S
H635 C651 0.959 . S
H636 C651 0.959 . S
H637 C651 0.961 . S
H638 C652 0.960 . S
H639 C652 0.961 . S
H640 C652 0.959 . S
H641 C655 0.929 . S
H642 C656 0.931 . S
H643 C658 0.930 . S
C644 H632 0.930 . S
C644 C645 1.399 . S
C644 C649 1.399 . S
C645 C644 1.399 . S
C645 C646 1.376 . S
C646 H633 0.930 . S
C646 C645 1.376 . S
C646 C647 1.388 . S
C647 H634 0.930 . S
C647 C646 1.388 . S
C647 C648 1.390 . S
C648 C647 1.390 . S
C648 C649 1.394 . S
C648 C654 1.465 . S
C649 C644 1.399 . S
C649 C648 1.394 . S
C649 C650 1.516 . S
C650 C649 1.516 . S
C650 C651 1.502 . S
C650 C652 1.561 . S
C650 C653 1.526 . S
C651 H635 0.959 . S
C651 H636 0.959 . S
C651 H637 0.961 . S
C651 C650 1.502 . S
C652 H638 0.960 . S
C652 H639 0.961 . S
C652 H640 0.959 . S
C652 C650 1.561 . S
C653 C650 1.526 . S
C653 C654 1.396 . S
C653 C658 1.390 . S
C654 C648 1.465 . S
C654 C653 1.396 . S
C654 C655 1.399 . S
C655 H641 0.929 . S
C655 C654 1.399 . S
C655 C656 1.385 . S
C656 H642 0.931 . S
C656 C655 1.385 . S
C656 C657 1.389 . S
C657 C656 1.389 . S
C657 C658 1.387 . S
C658 H643 0.930 . S
C658 C653 1.390 . S
C658 C657 1.387 . S
H659 C671 0.930 . S
H660 C673 0.930 . S
H661 C674 0.930 . S
H662 C678 0.959 . S
H663 C678 0.959 . S
H664 C678 0.915 1_554 S
H665 C679 1.012 . S
H666 C679 0.908 1_556 S
H667 C679 0.975 . S
H668 C682 0.929 . S
H669 C683 0.931 . S
H670 C685 0.930 . S
C671 H659 0.930 . S
C671 C672 1.399 . S
C671 C676 1.399 . S
C672 C671 1.399 . S
C672 C673 1.376 . S
C673 H660 0.930 . S
C673 C672 1.376 . S
C673 C674 1.388 . S
C674 H661 0.930 . S
C674 C673 1.388 . S
C674 C675 1.390 . S
C675 C674 1.390 . S
C675 C676 1.394 . S
C675 C681 1.465 1_554 S
C676 C671 1.399 . S
C676 C675 1.394 . S
C676 C677 1.516 1_554 S
C677 C676 1.516 1_556 S
C677 C678 1.502 . S
C677 C679 1.552 1_556 S
C677 C680 1.526 . S
C678 H662 0.959 . S
C678 H663 0.959 . S
C678 H664 0.915 1_556 S
C678 C677 1.502 . S
C679 H665 1.012 . S
C679 H666 0.908 1_554 S
C679 H667 0.975 . S
C679 C677 1.552 1_554 S
C680 C677 1.526 . S
C680 C681 1.396 . S
C680 C685 1.390 . S
C681 C675 1.465 1_556 S
C681 C680 1.396 . S
C681 C682 1.399 . S
C682 H668 0.929 . S
C682 C681 1.399 . S
C682 C683 1.385 . S
C683 H669 0.931 . S
C683 C682 1.385 . S
C683 C684 1.389 . S
C684 C683 1.389 . S
C684 C685 1.387 . S
C685 H670 0.930 . S
C685 C680 1.390 . S
C685 C684 1.387 . S
H686 C698 0.930 . S
H687 C700 0.930 . S
H688 C701 0.930 . S
H689 C705 0.959 . S
H690 C705 0.959 . S
H691 C705 0.961 . S
H692 C706 0.960 . S
H693 C706 0.961 . S
H694 C706 0.959 . S
H695 C709 0.929 . S
H696 C710 0.931 . S
H697 C712 0.930 . S
C698 H686 0.930 . S
C698 C699 1.399 . S
C698 C703 1.399 . S
C699 C698 1.399 . S
C699 C700 1.376 . S
C700 H687 0.930 . S
C700 C699 1.376 . S
C700 C701 1.388 . S
C701 H688 0.930 . S
C701 C700 1.388 . S
C701 C702 1.390 . S
C702 C701 1.390 . S
C702 C703 1.394 . S
C702 C708 1.465 . S
C703 C698 1.399 . S
C703 C702 1.394 . S
C703 C704 1.516 . S
C704 C703 1.516 . S
C704 C705 1.502 . S
C704 C706 1.561 . S
C704 C707 1.526 . S
C705 H689 0.959 . S
C705 H690 0.959 . S
C705 H691 0.961 . S
C705 C704 1.502 . S
C706 H692 0.960 . S
C706 H693 0.961 . S
C706 H694 0.959 . S
C706 C704 1.561 . S
C707 C704 1.526 . S
C707 C708 1.396 . S
C707 C712 1.390 . S
C708 C702 1.465 . S
C708 C707 1.396 . S
C708 C709 1.399 . S
C709 H695 0.929 . S
C709 C708 1.399 . S
C709 C710 1.385 . S
C710 H696 0.931 . S
C710 C709 1.385 . S
C710 C711 1.389 . S
C711 C710 1.389 . S
C711 C712 1.387 . S
C712 H697 0.930 . S
C712 C707 1.390 . S
C712 C711 1.387 . S
H713 C725 0.930 . S
H714 C727 0.930 . S
H715 C728 0.930 . S
H716 C732 0.959 . S
H717 C732 0.959 . S
H718 C732 0.961 . S
H719 C733 0.960 . S
H720 C733 0.961 . S
H721 C733 0.959 . S
H722 C736 0.929 . S
H723 C737 0.931 . S
H724 C739 0.930 . S
C725 H713 0.930 . S
C725 C726 1.399 . S
C725 C730 1.399 . S
C726 C725 1.399 . S
C726 C727 1.376 . S
C727 H714 0.930 . S
C727 C726 1.376 . S
C727 C728 1.388 . S
C728 H715 0.930 . S
C728 C727 1.388 . S
C728 C729 1.390 . S
C729 C728 1.390 . S
C729 C730 1.394 . S
C729 C735 1.465 . S
C730 C725 1.399 . S
C730 C729 1.394 . S
C730 C731 1.516 . S
C731 C730 1.516 . S
C731 C732 1.502 . S
C731 C733 1.561 . S
C731 C734 1.526 . S
C732 H716 0.959 . S
C732 H717 0.959 . S
C732 H718 0.961 . S
C732 C731 1.502 . S
C733 H719 0.960 . S
C733 H720 0.961 . S
C733 H721 0.959 . S
C733 C731 1.561 . S
C734 C731 1.526 . S
C734 C735 1.396 . S
C734 C739 1.390 . S
C735 C729 1.465 . S
C735 C734 1.396 . S
C735 C736 1.399 . S
C736 H722 0.929 . S
C736 C735 1.399 . S
C736 C737 1.385 . S
C737 H723 0.931 . S
C737 C736 1.385 . S
C737 C738 1.389 . S
C738 C737 1.389 . S
C738 C739 1.387 . S
C739 H724 0.930 . S
C739 C734 1.390 . S
C739 C738 1.387 . S
H740 C752 0.930 . S
H741 C754 0.930 . S
H742 C755 0.930 . S
H743 C759 0.959 . S
H744 C759 0.959 . S
H745 C759 0.961 . S
H746 C760 0.960 . S
H747 C760 0.961 . S
H748 C760 0.959 . S
H749 C763 0.929 . S
H750 C764 0.931 . S
H751 C766 0.930 . S
C752 H740 0.930 . S
C752 C753 1.399 . S
C752 C757 1.399 . S
C753 C752 1.399 . S
C753 C754 1.376 . S
C754 H741 0.930 . S
C754 C753 1.376 . S
C754 C755 1.388 . S
C755 H742 0.930 . S
C755 C754 1.388 . S
C755 C756 1.390 . S
C756 C755 1.390 . S
C756 C757 1.394 . S
C756 C762 1.465 . S
C757 C752 1.399 . S
C757 C756 1.394 . S
C757 C758 1.516 . S
C758 C757 1.516 . S
C758 C759 1.502 . S
C758 C760 1.561 . S
C758 C761 1.526 . S
C759 H743 0.959 . S
C759 H744 0.959 . S
C759 H745 0.961 . S
C759 C758 1.502 . S
C760 H746 0.960 . S
C760 H747 0.961 . S
C760 H748 0.959 . S
C760 C758 1.561 . S
C761 C758 1.526 . S
C761 C762 1.396 . S
C761 C766 1.390 . S
C762 C756 1.465 . S
C762 C761 1.396 . S
C762 C763 1.399 . S
C763 H749 0.929 . S
C763 C762 1.399 . S
C763 C764 1.385 . S
C764 H750 0.931 . S
C764 C763 1.385 . S
C764 C765 1.389 . S
C765 C764 1.389 . S
C765 C766 1.387 . S
C766 H751 0.930 . S
C766 C761 1.390 . S
C766 C765 1.387 . S
H767 C779 0.930 . S
H768 C781 0.930 . S
H769 C782 0.930 . S
H770 C786 0.959 . S
H771 C786 0.959 . S
H772 C786 0.961 1_554 S
H773 C787 0.960 . S
H774 C787 0.961 1_556 S
H775 C787 0.959 . S
H776 C790 0.929 . S
H777 C791 0.931 . S
H778 C793 0.930 . S
C779 H767 0.930 . S
C779 C780 1.399 . S
C779 C784 1.399 . S
C780 C779 1.399 . S
C780 C781 1.376 . S
C781 H768 0.930 . S
C781 C780 1.376 . S
C781 C782 1.388 . S
C782 H769 0.930 . S
C782 C781 1.388 . S
C782 C783 1.390 . S
C783 C782 1.390 . S
C783 C784 1.394 . S
C783 C789 1.465 1_554 S
C784 C779 1.399 . S
C784 C783 1.394 . S
C784 C785 1.516 1_554 S
C785 C784 1.516 1_556 S
C785 C786 1.502 . S
C785 C787 1.561 1_556 S
C785 C788 1.526 . S
C786 H770 0.959 . S
C786 H771 0.959 . S
C786 H772 0.961 1_556 S
C786 C785 1.502 . S
C787 H773 0.960 . S
C787 H774 0.961 1_554 S
C787 H775 0.959 . S
C787 C785 1.561 1_554 S
C788 C785 1.526 . S
C788 C789 1.396 . S
C788 C793 1.390 . S
C789 C783 1.465 1_556 S
C789 C788 1.396 . S
C789 C790 1.399 . S
C790 H776 0.929 . S
C790 C789 1.399 . S
C790 C791 1.385 . S
C791 H777 0.931 . S
C791 C790 1.385 . S
C791 C792 1.389 . S
C792 C791 1.389 . S
C792 C793 1.387 . S
C793 H778 0.930 . S
C793 C788 1.390 . S
C793 C792 1.387 . S
H794 C806 0.930 . S
H795 C808 0.930 . S
H796 C809 0.930 . S
H797 C813 0.959 . S
H798 C813 0.959 . S
H799 C813 0.961 . S
H800 C814 0.960 . S
H801 C814 0.961 . S
H802 C814 0.959 . S
H803 C817 0.929 . S
H804 C818 0.931 . S
H805 C820 0.930 . S
C806 H794 0.930 . S
C806 C807 1.399 . S
C806 C811 1.399 . S
C807 C806 1.399 . S
C807 C808 1.376 . S
C808 H795 0.930 . S
C808 C807 1.376 . S
C808 C809 1.388 . S
C809 H796 0.930 . S
C809 C808 1.388 . S
C809 C810 1.390 . S
C810 C809 1.390 . S
C810 C811 1.394 . S
C810 C816 1.465 . S
C811 C806 1.399 . S
C811 C810 1.394 . S
C811 C812 1.516 . S
C812 C811 1.516 . S
C812 C813 1.502 . S
C812 C814 1.561 . S
C812 C815 1.526 . S
C813 H797 0.959 . S
C813 H798 0.959 . S
C813 H799 0.961 . S
C813 C812 1.502 . S
C814 H800 0.960 . S
C814 H801 0.961 . S
C814 H802 0.959 . S
C814 C812 1.561 . S
C815 C812 1.526 . S
C815 C816 1.396 . S
C815 C820 1.390 . S
C816 C810 1.465 . S
C816 C815 1.396 . S
C816 C817 1.399 . S
C817 H803 0.929 . S
C817 C816 1.399 . S
C817 C818 1.385 . S
C818 H804 0.931 . S
C818 C817 1.385 . S
C818 C819 1.389 . S
C819 C818 1.389 . S
C819 C820 1.387 . S
C820 H805 0.930 . S
C820 C815 1.390 . S
C820 C819 1.387 . S
H821 C833 0.930 . S
H822 C835 0.930 . S
H823 C836 0.930 . S
H824 C840 0.959 . S
H825 C840 0.959 . S
H826 C840 0.961 . S
H827 C841 0.960 . S
H828 C841 0.961 . S
H829 C841 0.959 . S
H830 C844 0.929 . S
H831 C845 0.931 . S
H832 C847 0.930 . S
C833 H821 0.930 . S
C833 C834 1.399 . S
C833 C838 1.399 . S
C834 C833 1.399 . S
C834 C835 1.376 . S
C835 H822 0.930 . S
C835 C834 1.376 . S
C835 C836 1.388 . S
C836 H823 0.930 . S
C836 C835 1.388 . S
C836 C837 1.390 . S
C837 C836 1.390 . S
C837 C838 1.394 . S
C837 C843 1.465 . S
C838 C833 1.399 . S
C838 C837 1.394 . S
C838 C839 1.516 . S
C839 C838 1.516 . S
C839 C840 1.502 . S
C839 C841 1.561 . S
C839 C842 1.526 . S
C840 H824 0.959 . S
C840 H825 0.959 . S
C840 H826 0.961 . S
C840 C839 1.502 . S
C841 H827 0.960 . S
C841 H828 0.961 . S
C841 H829 0.959 . S
C841 C839 1.561 . S
C842 C839 1.526 . S
C842 C843 1.396 . S
C842 C847 1.390 . S
C843 C837 1.465 . S
C843 C842 1.396 . S
C843 C844 1.399 . S
C844 H830 0.929 . S
C844 C843 1.399 . S
C844 C845 1.385 . S
C845 H831 0.931 . S
C845 C844 1.385 . S
C845 C846 1.389 . S
C846 C845 1.389 . S
C846 C847 1.387 . S
C847 H832 0.930 . S
C847 C842 1.390 . S
C847 C846 1.387 . S
H848 C860 0.930 1_545 S
H849 C862 0.930 . S
H850 C863 0.930 . S
H851 C867 0.959 . S
H852 C867 0.959 . S
H853 C867 0.961 . S
H854 C868 0.960 . S
H855 C868 0.961 . S
H856 C868 0.959 . S
H857 C871 0.929 . S
H858 C872 0.931 . S
H859 C874 0.930 . S
C860 H848 0.930 1_565 S
C860 C861 1.399 . S
C860 C865 1.399 . S
C861 C860 1.399 . S
C861 C862 1.376 . S
C862 H849 0.930 . S
C862 C861 1.376 . S
C862 C863 1.388 . S
C863 H850 0.930 . S
C863 C862 1.388 . S
C863 C864 1.390 . S
C864 C863 1.390 . S
C864 C865 1.394 . S
C864 C870 1.465 . S
C865 C860 1.399 . S
C865 C864 1.394 . S
C865 C866 1.516 . S
C866 C865 1.516 . S
C866 C867 1.502 . S
C866 C868 1.561 . S
C866 C869 1.526 . S
C867 H851 0.959 . S
C867 H852 0.959 . S
C867 H853 0.961 . S
C867 C866 1.502 . S
C868 H854 0.960 . S
C868 H855 0.961 . S
C868 H856 0.959 . S
C868 C866 1.561 . S
C869 C866 1.526 . S
C869 C870 1.396 . S
C869 C874 1.390 . S
C870 C864 1.465 . S
C870 C869 1.396 . S
C870 C871 1.399 . S
C871 H857 0.929 . S
C871 C870 1.399 . S
C871 C872 1.385 . S
C872 H858 0.931 . S
C872 C871 1.385 . S
C872 C873 1.389 . S
C873 C872 1.389 . S
C873 C874 1.387 . S
C874 H859 0.930 . S
C874 C869 1.390 . S
C874 C873 1.387 . S
H875 C887 0.930 . S
H876 C889 0.930 . S
H877 C890 0.930 . S
H878 C894 0.959 . S
H879 C894 0.959 . S
H880 C894 0.961 . S
H881 C895 0.960 . S
H882 C895 0.961 . S
H883 C895 0.959 . S
H884 C898 0.929 . S
H885 C899 0.931 1_565 S
H886 C901 0.930 . S
C887 H875 0.930 . S
C887 C888 1.399 . S
C887 C892 1.399 . S
C888 C887 1.399 . S
C888 C889 1.376 . S
C889 H876 0.930 . S
C889 C888 1.376 . S
C889 C890 1.388 . S
C890 H877 0.930 . S
C890 C889 1.388 . S
C890 C891 1.390 . S
C891 C890 1.390 . S
C891 C892 1.394 . S
C891 C897 1.465 . S
C892 C887 1.399 . S
C892 C891 1.394 . S
C892 C893 1.516 . S
C893 C892 1.516 . S
C893 C894 1.502 . S
C893 C895 1.561 . S
C893 C896 1.526 . S
C894 H878 0.959 . S
C894 H879 0.959 . S
C894 H880 0.961 . S
C894 C893 1.502 . S
C895 H881 0.960 . S
C895 H882 0.961 . S
C895 H883 0.959 . S
C895 C893 1.561 . S
C896 C893 1.526 . S
C896 C897 1.396 . S
C896 C901 1.390 . S
C897 C891 1.465 . S
C897 C896 1.396 . S
C897 C898 1.399 . S
C898 H884 0.929 . S
C898 C897 1.399 . S
C898 C899 1.385 . S
C899 H885 0.931 1_545 S
C899 C898 1.385 . S
C899 C900 1.389 . S
C900 C899 1.389 . S
C900 C901 1.387 . S
C901 H886 0.930 . S
C901 C896 1.390 . S
C901 C900 1.387 . S
H902 C914 0.930 1_565 S
H903 C916 0.930 . S
H904 C917 0.930 . S
H905 C921 0.959 . S
H906 C921 0.959 . S
H907 C921 0.961 1_565 S
H908 C922 0.960 . S
H909 C922 0.961 . S
H910 C922 0.959 . S
H911 C925 0.929 . S
H912 C926 0.931 . S
H913 C928 0.930 . S
C914 H902 0.930 1_545 S
C914 C915 1.399 . S
C914 C919 1.399 . S
C915 C914 1.399 . S
C915 C916 1.376 . S
C916 H903 0.930 . S
C916 C915 1.376 . S
C916 C917 1.388 . S
C917 H904 0.930 . S
C917 C916 1.388 . S
C917 C918 1.390 . S
C918 C917 1.390 . S
C918 C919 1.394 . S
C918 C924 1.465 . S
C919 C914 1.399 . S
C919 C918 1.394 . S
C919 C920 1.516 . S
C920 C919 1.516 . S
C920 C921 1.502 . S
C920 C922 1.561 . S
C920 C923 1.526 . S
C921 H905 0.959 . S
C921 H906 0.959 . S
C921 H907 0.961 1_545 S
C921 C920 1.502 . S
C922 H908 0.960 . S
C922 H909 0.961 . S
C922 H910 0.959 . S
C922 C920 1.561 . S
C923 C920 1.526 . S
C923 C924 1.396 . S
C923 C928 1.390 . S
C924 C918 1.465 . S
C924 C923 1.396 . S
C924 C925 1.399 . S
C925 H911 0.929 . S
C925 C924 1.399 . S
C925 C926 1.385 . S
C926 H912 0.931 . S
C926 C925 1.385 . S
C926 C927 1.389 . S
C927 C926 1.389 . S
C927 C928 1.387 . S
C928 H913 0.930 . S
C928 C923 1.390 . S
C928 C927 1.387 . S
H929 C941 0.930 . S
H930 C943 0.930 . S
H931 C944 0.930 . S
H932 C948 0.959 . S
H933 C948 0.959 . S
H934 C948 0.961 . S
H935 C949 0.960 . S
H936 C949 0.961 . S
H937 C949 0.959 . S
H938 C952 0.929 . S
H939 C953 0.931 . S
H940 C955 0.930 . S
C941 H929 0.930 . S
C941 C942 1.399 . S
C941 C946 1.399 . S
C942 C941 1.399 . S
C942 C943 1.376 1_565 S
C943 H930 0.930 . S
C943 C942 1.376 1_545 S
C943 C944 1.388 1_545 S
C944 H931 0.930 . S
C944 C943 1.388 1_565 S
C944 C945 1.390 . S
C945 C944 1.390 . S
C945 C946 1.394 . S
C945 C951 1.465 . S
C946 C941 1.399 . S
C946 C945 1.394 . S
C946 C947 1.516 . S
C947 C946 1.516 . S
C947 C948 1.502 . S
C947 C949 1.561 . S
C947 C950 1.526 . S
C948 H932 0.959 . S
C948 H933 0.959 . S
C948 H934 0.961 . S
C948 C947 1.502 . S
C949 H935 0.960 . S
C949 H936 0.961 . S
C949 H937 0.959 . S
C949 C947 1.561 . S
C950 C947 1.526 . S
C950 C951 1.396 . S
C950 C955 1.390 . S
C951 C945 1.465 . S
C951 C950 1.396 . S
C951 C952 1.399 . S
C952 H938 0.929 . S
C952 C951 1.399 . S
C952 C953 1.385 . S
C953 H939 0.931 . S
C953 C952 1.385 . S
C953 C954 1.389 . S
C954 C953 1.389 . S
C954 C955 1.387 . S
C955 H940 0.930 . S
C955 C950 1.390 . S
C955 C954 1.387 . S
H956 C968 0.930 . S
H957 C970 0.930 . S
H958 C971 0.930 . S
H959 C975 0.959 . S
H960 C975 0.959 . S
H961 C975 0.961 . S
H962 C976 0.960 . S
H963 C976 0.961 . S
H964 C976 0.959 . S
H965 C979 0.929 . S
H966 C980 0.931 . S
H967 C982 0.930 . S
C968 H956 0.930 . S
C968 C969 1.399 . S
C968 C973 1.399 . S
C969 C968 1.399 . S
C969 C970 1.376 . S
C970 H957 0.930 . S
C970 C969 1.376 . S
C970 C971 1.388 . S
C971 H958 0.930 . S
C971 C970 1.388 . S
C971 C972 1.390 . S
C972 C971 1.390 . S
C972 C973 1.394 . S
C972 C978 1.465 . S
C973 C968 1.399 . S
C973 C972 1.394 . S
C973 C974 1.516 . S
C974 C973 1.516 . S
C974 C975 1.502 . S
C974 C976 1.561 . S
C974 C977 1.526 . S
C975 H959 0.959 . S
C975 H960 0.959 . S
C975 H961 0.961 . S
C975 C974 1.502 . S
C976 H962 0.960 . S
C976 H963 0.961 . S
C976 H964 0.959 . S
C976 C974 1.561 . S
C977 C974 1.526 . S
C977 C978 1.396 . S
C977 C982 1.390 . S
C978 C972 1.465 . S
C978 C977 1.396 . S
C978 C979 1.399 . S
C979 H965 0.929 . S
C979 C978 1.399 . S
C979 C980 1.385 1_545 S
C980 H966 0.931 . S
C980 C979 1.385 1_565 S
C980 C981 1.389 1_565 S
C981 C980 1.389 1_545 S
C981 C982 1.387 . S
C982 H967 0.930 . S
C982 C977 1.390 . S
C982 C981 1.387 . S
H983 C995 0.930 1_545 S
H984 C997 0.930 . S
H985 C998 0.930 . S
H986 C1002 0.959 . S
H987 C1002 0.959 . S
H988 C1002 0.961 . S
H989 C1003 0.960 1_545 S
H990 C1003 0.961 . S
H991 C1003 0.959 . S
H992 C1006 0.929 . S
H993 C1007 0.931 . S
H994 C1009 0.930 . S
C995 H983 0.930 1_565 S
C995 C996 1.399 . S
C995 C1000 1.399 . S
C996 C995 1.399 . S
C996 C997 1.376 . S
C997 H984 0.930 . S
C997 C996 1.376 . S
C997 C998 1.388 . S
C998 H985 0.930 . S
C998 C997 1.388 . S
C998 C999 1.390 . S
C999 C998 1.390 . S
C999 C1000 1.394 . S
C999 C1005 1.465 . S
C1000 C995 1.399 . S
C1000 C999 1.394 . S
C1000 C1001 1.516 . S
C1001 C1000 1.516 . S
C1001 C1002 1.502 . S
C1001 C1003 1.561 . S
C1001 C1004 1.526 . S
C1002 H986 0.959 . S
C1002 H987 0.959 . S
C1002 H988 0.961 . S
C1002 C1001 1.502 . S
C1003 H989 0.960 1_565 S
C1003 H990 0.961 . S
C1003 H991 0.959 . S
C1003 C1001 1.561 . S
C1004 C1001 1.526 . S
C1004 C1005 1.396 . S
C1004 C1009 1.390 . S
C1005 C999 1.465 . S
C1005 C1004 1.396 . S
C1005 C1006 1.399 . S
C1006 H992 0.929 . S
C1006 C1005 1.399 . S
C1006 C1007 1.385 . S
C1007 H993 0.931 . S
C1007 C1006 1.385 . S
C1007 C1008 1.389 . S
C1008 C1007 1.389 . S
C1008 C1009 1.387 . S
C1009 H994 0.930 . S
C1009 C1004 1.390 . S
C1009 C1008 1.387 . S
H1010 C1022 0.930 . S
H1011 C1024 0.930 . S
H1012 C1025 0.930 . S
H1013 C1029 0.959 . S
H1014 C1029 0.959 . S
H1015 C1029 0.961 . S
H1016 C1030 0.960 . S
H1017 C1030 0.961 . S
H1018 C1030 0.959 . S
H1019 C1033 0.929 1_545 S
H1020 C1034 0.931 . S
H1021 C1036 0.930 . S
C1022 H1010 0.930 . S
C1022 C1023 1.399 . S
C1022 C1027 1.399 . S
C1023 C1022 1.399 . S
C1023 C1024 1.376 . S
C1024 H1011 0.930 . S
C1024 C1023 1.376 . S
C1024 C1025 1.388 . S
C1025 H1012 0.930 . S
C1025 C1024 1.388 . S
C1025 C1026 1.390 . S
C1026 C1025 1.390 . S
C1026 C1027 1.394 . S
C1026 C1032 1.465 . S
C1027 C1022 1.399 . S
C1027 C1026 1.394 . S
C1027 C1028 1.516 . S
C1028 C1027 1.516 . S
C1028 C1029 1.502 . S
C1028 C1030 1.561 . S
C1028 C1031 1.526 . S
C1029 H1013 0.959 . S
C1029 H1014 0.959 . S
C1029 H1015 0.961 . S
C1029 C1028 1.502 . S
C1030 H1016 0.960 . S
C1030 H1017 0.961 . S
C1030 H1018 0.959 . S
C1030 C1028 1.561 . S
C1031 C1028 1.526 . S
C1031 C1032 1.396 . S
C1031 C1036 1.390 . S
C1032 C1026 1.465 . S
C1032 C1031 1.396 . S
C1032 C1033 1.399 . S
C1033 H1019 0.929 1_565 S
C1033 C1032 1.399 . S
C1033 C1034 1.385 1_565 S
C1034 H1020 0.931 . S
C1034 C1033 1.385 1_545 S
C1034 C1035 1.389 1_545 S
C1035 C1034 1.389 1_565 S
C1035 C1036 1.387 . S
C1036 H1021 0.930 . S
C1036 C1031 1.390 . S
C1036 C1035 1.387 . S
H1037 C1049 0.930 . S
H1038 C1051 0.930 . S
H1039 C1052 0.930 . S
H1040 C1056 0.959 . S
H1041 C1056 0.959 . S
H1042 C1056 0.961 . S
H1043 C1057 0.960 . S
H1044 C1057 0.961 . S
H1045 C1057 0.959 . S
H1046 C1060 0.929 . S
H1047 C1061 0.931 . S
H1048 C1063 0.930 . S
C1049 H1037 0.930 . S
C1049 C1050 1.399 . S
C1049 C1054 1.399 . S
C1050 C1049 1.399 . S
C1050 C1051 1.376 . S
C1051 H1038 0.930 . S
C1051 C1050 1.376 . S
C1051 C1052 1.388 . S
C1052 H1039 0.930 . S
C1052 C1051 1.388 . S
C1052 C1053 1.390 . S
C1053 C1052 1.390 . S
C1053 C1054 1.394 . S
C1053 C1059 1.465 . S
C1054 C1049 1.399 . S
C1054 C1053 1.394 . S
C1054 C1055 1.516 . S
C1055 C1054 1.516 . S
C1055 C1056 1.502 . S
C1055 C1057 1.561 . S
C1055 C1058 1.526 . S
C1056 H1040 0.959 . S
C1056 H1041 0.959 . S
C1056 H1042 0.961 . S
C1056 C1055 1.502 . S
C1057 H1043 0.960 . S
C1057 H1044 0.961 . S
C1057 H1045 0.959 . S
C1057 C1055 1.561 . S
C1058 C1055 1.526 . S
C1058 C1059 1.396 . S
C1058 C1063 1.390 . S
C1059 C1053 1.465 . S
C1059 C1058 1.396 . S
C1059 C1060 1.399 . S
C1060 H1046 0.929 . S
C1060 C1059 1.399 . S
C1060 C1061 1.385 . S
C1061 H1047 0.931 . S
C1061 C1060 1.385 . S
C1061 C1062 1.389 . S
C1062 C1061 1.389 . S
C1062 C1063 1.387 . S
C1063 H1048 0.930 . S
C1063 C1058 1.390 . S
C1063 C1062 1.387 . S
H1064 C1076 0.930 . S
H1065 C1078 0.930 . S
H1066 C1079 0.930 . S
H1067 C1083 0.959 . S
H1068 C1083 0.959 . S
H1069 C1083 0.961 . S
H1070 C1084 0.960 . S
H1071 C1084 0.961 . S
H1072 C1084 0.959 . S
H1073 C1087 0.929 . S
H1074 C1088 0.931 . S
H1075 C1090 0.930 . S
C1076 H1064 0.930 . S
C1076 C1077 1.399 . S
C1076 C1081 1.399 . S
C1077 C1076 1.399 . S
C1077 C1078 1.376 . S
C1078 H1065 0.930 . S
C1078 C1077 1.376 . S
C1078 C1079 1.388 . S
C1079 H1066 0.930 . S
C1079 C1078 1.388 . S
C1079 C1080 1.390 . S
C1080 C1079 1.390 . S
C1080 C1081 1.394 . S
C1080 C1086 1.465 . S
C1081 C1076 1.399 . S
C1081 C1080 1.394 . S
C1081 C1082 1.516 . S
C1082 C1081 1.516 . S
C1082 C1083 1.502 . S
C1082 C1084 1.561 . S
C1082 C1085 1.526 . S
C1083 H1067 0.959 . S
C1083 H1068 0.959 . S
C1083 H1069 0.961 . S
C1083 C1082 1.502 . S
C1084 H1070 0.960 . S
C1084 H1071 0.961 . S
C1084 H1072 0.959 . S
C1084 C1082 1.561 . S
C1085 C1082 1.526 . S
C1085 C1086 1.396 . S
C1085 C1090 1.390 . S
C1086 C1080 1.465 . S
C1086 C1085 1.396 . S
C1086 C1087 1.399 . S
C1087 H1073 0.929 . S
C1087 C1086 1.399 . S
C1087 C1088 1.385 . S
C1088 H1074 0.931 . S
C1088 C1087 1.385 . S
C1088 C1089 1.389 . S
C1089 C1088 1.389 . S
C1089 C1090 1.387 . S
C1090 H1075 0.930 . S
C1090 C1085 1.390 . S
C1090 C1089 1.387 . S
H1091 C1103 0.930 . S
H1092 C1105 0.930 . S
H1093 C1106 0.930 . S
H1094 C1110 0.959 . S
H1095 C1110 0.959 . S
H1096 C1110 0.961 . S
H1097 C1111 0.960 . S
H1098 C1111 0.961 . S
H1099 C1111 0.959 . S
H1100 C1114 0.929 . S
H1101 C1115 0.931 . S
H1102 C1117 0.930 . S
C1103 H1091 0.930 . S
C1103 C1104 1.399 . S
C1103 C1108 1.399 . S
C1104 C1103 1.399 . S
C1104 C1105 1.376 . S
C1105 H1092 0.930 . S
C1105 C1104 1.376 . S
C1105 C1106 1.388 . S
C1106 H1093 0.930 . S
C1106 C1105 1.388 . S
C1106 C1107 1.390 . S
C1107 C1106 1.390 . S
C1107 C1108 1.394 . S
C1107 C1113 1.465 . S
C1108 C1103 1.399 . S
C1108 C1107 1.394 . S
C1108 C1109 1.516 . S
C1109 C1108 1.516 . S
C1109 C1110 1.502 . S
C1109 C1111 1.561 . S
C1109 C1112 1.526 . S
C1110 H1094 0.959 . S
C1110 H1095 0.959 . S
C1110 H1096 0.961 . S
C1110 C1109 1.502 . S
C1111 H1097 0.960 . S
C1111 H1098 0.961 . S
C1111 H1099 0.959 . S
C1111 C1109 1.561 . S
C1112 C1109 1.526 . S
C1112 C1113 1.396 . S
C1112 C1117 1.390 . S
C1113 C1107 1.465 . S
C1113 C1112 1.396 . S
C1113 C1114 1.399 . S
C1114 H1100 0.929 . S
C1114 C1113 1.399 . S
C1114 C1115 1.385 . S
C1115 H1101 0.931 . S
C1115 C1114 1.385 . S
C1115 C1116 1.389 . S
C1116 C1115 1.389 . S
C1116 C1117 1.387 . S
C1117 H1102 0.930 . S
C1117 C1112 1.390 . S
C1117 C1116 1.387 . S
H1118 C1130 0.930 . S
H1119 C1132 0.930 . S
H1120 C1133 0.930 . S
H1121 C1137 0.959 . S
H1122 C1137 0.959 . S
H1123 C1137 0.961 . S
H1124 C1138 0.960 . S
H1125 C1138 0.961 . S
H1126 C1138 0.959 . S
H1127 C1141 0.929 . S
H1128 C1142 0.931 . S
H1129 C1144 0.930 . S
C1130 H1118 0.930 . S
C1130 C1131 1.399 . S
C1130 C1135 1.399 . S
C1131 C1130 1.399 . S
C1131 C1132 1.376 . S
C1132 H1119 0.930 . S
C1132 C1131 1.376 . S
C1132 C1133 1.388 . S
C1133 H1120 0.930 . S
C1133 C1132 1.388 . S
C1133 C1134 1.390 . S
C1134 C1133 1.390 . S
C1134 C1135 1.394 . S
C1134 C1140 1.465 . S
C1135 C1130 1.399 . S
C1135 C1134 1.394 . S
C1135 C1136 1.516 . S
C1136 C1135 1.516 . S
C1136 C1137 1.502 . S
C1136 C1138 1.561 . S
C1136 C1139 1.526 . S
C1137 H1121 0.959 . S
C1137 H1122 0.959 . S
C1137 H1123 0.961 . S
C1137 C1136 1.502 . S
C1138 H1124 0.960 . S
C1138 H1125 0.961 . S
C1138 H1126 0.959 . S
C1138 C1136 1.561 . S
C1139 C1136 1.526 . S
C1139 C1140 1.396 . S
C1139 C1144 1.390 . S
C1140 C1134 1.465 . S
C1140 C1139 1.396 . S
C1140 C1141 1.399 . S
C1141 H1127 0.929 . S
C1141 C1140 1.399 . S
C1141 C1142 1.385 . S
C1142 H1128 0.931 . S
C1142 C1141 1.385 . S
C1142 C1143 1.389 . S
C1143 C1142 1.389 . S
C1143 C1144 1.387 . S
C1144 H1129 0.930 . S
C1144 C1139 1.390 . S
C1144 C1143 1.387 . S
H1145 C1157 0.930 . S
H1146 C1159 0.930 . S
H1147 C1160 0.930 . S
H1148 C1164 0.959 . S
H1149 C1164 0.959 . S
H1150 C1164 0.961 . S
H1151 C1165 0.960 . S
H1152 C1165 0.961 . S
H1153 C1165 0.959 . S
H1154 C1168 0.929 . S
H1155 C1169 0.931 . S
H1156 C1171 0.930 . S
C1157 H1145 0.930 . S
C1157 C1158 1.399 . S
C1157 C1162 1.399 . S
C1158 C1157 1.399 . S
C1158 C1159 1.376 . S
C1159 H1146 0.930 . S
C1159 C1158 1.376 . S
C1159 C1160 1.388 . S
C1160 H1147 0.930 . S
C1160 C1159 1.388 . S
C1160 C1161 1.390 . S
C1161 C1160 1.390 . S
C1161 C1162 1.394 . S
C1161 C1167 1.465 . S
C1162 C1157 1.399 . S
C1162 C1161 1.394 . S
C1162 C1163 1.516 . S
C1163 C1162 1.516 . S
C1163 C1164 1.502 . S
C1163 C1165 1.561 . S
C1163 C1166 1.526 . S
C1164 H1148 0.959 . S
C1164 H1149 0.959 . S
C1164 H1150 0.961 . S
C1164 C1163 1.502 . S
C1165 H1151 0.960 . S
C1165 H1152 0.961 . S
C1165 H1153 0.959 . S
C1165 C1163 1.561 . S
C1166 C1163 1.526 . S
C1166 C1167 1.396 . S
C1166 C1171 1.390 . S
C1167 C1161 1.465 . S
C1167 C1166 1.396 . S
C1167 C1168 1.399 . S
C1168 H1154 0.929 . S
C1168 C1167 1.399 . S
C1168 C1169 1.385 . S
C1169 H1155 0.931 . S
C1169 C1168 1.385 . S
C1169 C1170 1.389 . S
C1170 C1169 1.389 . S
C1170 C1171 1.387 . S
C1171 H1156 0.930 . S
C1171 C1166 1.390 . S
C1171 C1170 1.387 . S
H1172 C1184 0.930 . S
H1173 C1186 0.930 . S
H1174 C1187 0.930 . S
H1175 C1191 0.959 . S
H1176 C1191 0.959 . S
H1177 C1191 0.961 . S
H1178 C1192 0.960 . S
H1179 C1192 0.961 . S
H1180 C1192 0.959 . S
H1181 C1195 0.929 . S
H1182 C1196 0.931 . S
H1183 C1198 0.930 . S
C1184 H1172 0.930 . S
C1184 C1185 1.399 . S
C1184 C1189 1.399 . S
C1185 C1184 1.399 . S
C1185 C1186 1.376 . S
C1186 H1173 0.930 . S
C1186 C1185 1.376 . S
C1186 C1187 1.388 . S
C1187 H1174 0.930 . S
C1187 C1186 1.388 . S
C1187 C1188 1.390 . S
C1188 C1187 1.390 . S
C1188 C1189 1.394 . S
C1188 C1194 1.465 . S
C1189 C1184 1.399 . S
C1189 C1188 1.394 . S
C1189 C1190 1.516 . S
C1190 C1189 1.516 . S
C1190 C1191 1.502 . S
C1190 C1192 1.561 . S
C1190 C1193 1.526 . S
C1191 H1175 0.959 . S
C1191 H1176 0.959 . S
C1191 H1177 0.961 . S
C1191 C1190 1.502 . S
C1192 H1178 0.960 . S
C1192 H1179 0.961 . S
C1192 H1180 0.959 . S
C1192 C1190 1.561 . S
C1193 C1190 1.526 . S
C1193 C1194 1.396 . S
C1193 C1198 1.390 . S
C1194 C1188 1.465 . S
C1194 C1193 1.396 . S
C1194 C1195 1.399 . S
C1195 H1181 0.929 . S
C1195 C1194 1.399 . S
C1195 C1196 1.385 . S
C1196 H1182 0.931 . S
C1196 C1195 1.385 . S
C1196 C1197 1.389 . S
C1197 C1196 1.389 . S
C1197 C1198 1.387 . S
C1198 H1183 0.930 . S
C1198 C1193 1.390 . S
C1198 C1197 1.387 . S
H1199 C1211 0.930 . S
H1200 C1213 0.930 . S
H1201 C1214 0.930 . S
H1202 C1218 0.959 . S
H1203 C1218 0.959 . S
H1204 C1218 0.961 . S
H1205 C1219 0.960 . S
H1206 C1219 0.961 . S
H1207 C1219 0.959 . S
H1208 C1222 0.929 . S
H1209 C1223 0.931 . S
H1210 C1225 0.930 . S
C1211 H1199 0.930 . S
C1211 C1212 1.399 . S
C1211 C1216 1.399 . S
C1212 C1211 1.399 . S
C1212 C1213 1.376 . S
C1213 H1200 0.930 . S
C1213 C1212 1.376 . S
C1213 C1214 1.388 . S
C1214 H1201 0.930 . S
C1214 C1213 1.388 . S
C1214 C1215 1.390 . S
C1215 C1214 1.390 . S
C1215 C1216 1.394 . S
C1215 C1221 1.465 . S
C1216 C1211 1.399 . S
C1216 C1215 1.394 . S
C1216 C1217 1.516 . S
C1217 C1216 1.516 . S
C1217 C1218 1.502 . S
C1217 C1219 1.561 . S
C1217 C1220 1.526 . S
C1218 H1202 0.959 . S
C1218 H1203 0.959 . S
C1218 H1204 0.961 . S
C1218 C1217 1.502 . S
C1219 H1205 0.960 . S
C1219 H1206 0.961 . S
C1219 H1207 0.959 . S
C1219 C1217 1.561 . S
C1220 C1217 1.526 . S
C1220 C1221 1.396 . S
C1220 C1225 1.390 . S
C1221 C1215 1.465 . S
C1221 C1220 1.396 . S
C1221 C1222 1.399 . S
C1222 H1208 0.929 . S
C1222 C1221 1.399 . S
C1222 C1223 1.385 . S
C1223 H1209 0.931 . S
C1223 C1222 1.385 . S
C1223 C1224 1.389 . S
C1224 C1223 1.389 . S
C1224 C1225 1.387 . S
C1225 H1210 0.930 . S
C1225 C1220 1.390 . S
C1225 C1224 1.387 . S
H1226 C1238 0.930 . S
H1227 C1240 0.930 . S
H1228 C1241 0.930 . S
H1229 C1245 0.959 . S
H1230 C1245 0.959 . S
H1231 C1245 0.961 . S
H1232 C1246 0.960 . S
H1233 C1246 0.961 . S
H1234 C1246 0.959 . S
H1235 C1249 0.929 . S
H1236 C1250 0.931 . S
H1237 C1252 0.930 . S
C1238 H1226 0.930 . S
C1238 C1239 1.399 . S
C1238 C1243 1.399 . S
C1239 C1238 1.399 . S
C1239 C1240 1.376 . S
C1240 H1227 0.930 . S
C1240 C1239 1.376 . S
C1240 C1241 1.388 . S
C1241 H1228 0.930 . S
C1241 C1240 1.388 . S
C1241 C1242 1.390 . S
C1242 C1241 1.390 . S
C1242 C1243 1.394 . S
C1242 C1248 1.465 . S
C1243 C1238 1.399 . S
C1243 C1242 1.394 . S
C1243 C1244 1.516 . S
C1244 C1243 1.516 . S
C1244 C1245 1.502 . S
C1244 C1246 1.561 . S
C1244 C1247 1.526 . S
C1245 H1229 0.959 . S
C1245 H1230 0.959 . S
C1245 H1231 0.961 . S
C1245 C1244 1.502 . S
C1246 H1232 0.960 . S
C1246 H1233 0.961 . S
C1246 H1234 0.959 . S
C1246 C1244 1.561 . S
C1247 C1244 1.526 . S
C1247 C1248 1.396 . S
C1247 C1252 1.390 . S
C1248 C1242 1.465 . S
C1248 C1247 1.396 . S
C1248 C1249 1.399 . S
C1249 H1235 0.929 . S
C1249 C1248 1.399 . S
C1249 C1250 1.385 . S
C1250 H1236 0.931 . S
C1250 C1249 1.385 . S
C1250 C1251 1.389 . S
C1251 C1250 1.389 . S
C1251 C1252 1.387 . S
C1252 H1237 0.930 . S
C1252 C1247 1.390 . S
C1252 C1251 1.387 . S
H1253 C1265 0.930 . S
H1254 C1267 0.930 . S
H1255 C1268 0.930 . S
H1256 C1272 0.959 . S
H1257 C1272 0.959 . S
H1258 C1272 0.961 . S
H1259 C1273 0.960 . S
H1260 C1273 0.961 . S
H1261 C1273 0.959 . S
H1262 C1276 0.929 . S
H1263 C1277 0.931 . S
H1264 C1279 0.930 . S
C1265 H1253 0.930 . S
C1265 C1266 1.399 . S
C1265 C1270 1.399 . S
C1266 C1265 1.399 . S
C1266 C1267 1.376 . S
C1267 H1254 0.930 . S
C1267 C1266 1.376 . S
C1267 C1268 1.388 . S
C1268 H1255 0.930 . S
C1268 C1267 1.388 . S
C1268 C1269 1.390 . S
C1269 C1268 1.390 . S
C1269 C1270 1.394 . S
C1269 C1275 1.465 . S
C1270 C1265 1.399 . S
C1270 C1269 1.394 . S
C1270 C1271 1.516 . S
C1271 C1270 1.516 . S
C1271 C1272 1.502 . S
C1271 C1273 1.561 . S
C1271 C1274 1.526 . S
C1272 H1256 0.959 . S
C1272 H1257 0.959 . S
C1272 H1258 0.961 . S
C1272 C1271 1.502 . S
C1273 H1259 0.960 . S
C1273 H1260 0.961 . S
C1273 H1261 0.959 . S
C1273 C1271 1.561 . S
C1274 C1271 1.526 . S
C1274 C1275 1.396 . S
C1274 C1279 1.390 . S
C1275 C1269 1.465 . S
C1275 C1274 1.396 . S
C1275 C1276 1.399 . S
C1276 H1262 0.929 . S
C1276 C1275 1.399 . S
C1276 C1277 1.385 . S
C1277 H1263 0.931 . S
C1277 C1276 1.385 . S
C1277 C1278 1.389 . S
C1278 C1277 1.389 . S
C1278 C1279 1.387 . S
C1279 H1264 0.930 . S
C1279 C1274 1.390 . S
C1279 C1278 1.387 . S
H1280 C1292 0.930 . S
H1281 C1294 0.930 . S
H1282 C1295 0.930 . S
H1283 C1299 0.959 . S
H1284 C1299 0.959 . S
H1285 C1299 0.961 . S
H1286 C1300 0.960 . S
H1287 C1300 0.961 . S
H1288 C1300 0.959 . S
H1289 C1303 0.929 . S
H1290 C1304 0.931 . S
H1291 C1306 0.930 . S
C1292 H1280 0.930 . S
C1292 C1293 1.399 . S
C1292 C1297 1.399 . S
C1293 C1292 1.399 . S
C1293 C1294 1.376 . S
C1294 H1281 0.930 . S
C1294 C1293 1.376 . S
C1294 C1295 1.388 . S
C1295 H1282 0.930 . S
C1295 C1294 1.388 . S
C1295 C1296 1.390 . S
C1296 C1295 1.390 . S
C1296 C1297 1.394 . S
C1296 C1302 1.465 . S
C1297 C1292 1.399 . S
C1297 C1296 1.394 . S
C1297 C1298 1.516 . S
C1298 C1297 1.516 . S
C1298 C1299 1.502 . S
C1298 C1300 1.561 . S
C1298 C1301 1.526 . S
C1299 H1283 0.959 . S
C1299 H1284 0.959 . S
C1299 H1285 0.961 . S
C1299 C1298 1.502 . S
C1300 H1286 0.960 . S
C1300 H1287 0.961 . S
C1300 H1288 0.959 . S
C1300 C1298 1.561 . S
C1301 C1298 1.526 . S
C1301 C1302 1.396 . S
C1301 C1306 1.390 . S
C1302 C1296 1.465 . S
C1302 C1301 1.396 . S
C1302 C1303 1.399 . S
C1303 H1289 0.929 . S
C1303 C1302 1.399 . S
C1303 C1304 1.385 . S
C1304 H1290 0.931 . S
C1304 C1303 1.385 . S
C1304 C1305 1.389 . S
C1305 C1304 1.389 . S
C1305 C1306 1.387 . S
C1306 H1291 0.930 . S
C1306 C1301 1.390 . S
C1306 C1305 1.387 . S
H1307 C1319 0.930 . S
H1308 C1321 0.930 . S
H1309 C1322 0.930 . S
H1310 C1326 0.959 . S
H1311 C1326 0.959 . S
H1312 C1326 0.961 . S
H1313 C1327 0.960 . S
H1314 C1327 0.961 . S
H1315 C1327 0.959 . S
H1316 C1330 0.930 . S
H1317 C1331 0.931 . S
H1318 C1333 0.930 . S
C1319 H1307 0.930 . S
C1319 C1320 1.399 . S
C1319 C1324 1.399 . S
C1320 C1319 1.399 . S
C1320 C1321 1.376 . S
C1321 H1308 0.930 . S
C1321 C1320 1.376 . S
C1321 C1322 1.388 . S
C1322 H1309 0.930 . S
C1322 C1321 1.388 . S
C1322 C1323 1.390 . S
C1323 C1322 1.390 . S
C1323 C1324 1.394 . S
C1323 C1329 1.465 . S
C1324 C1319 1.399 . S
C1324 C1323 1.394 . S
C1324 C1325 1.516 . S
C1325 C1324 1.516 . S
C1325 C1326 1.502 . S
C1325 C1327 1.561 . S
C1325 C1328 1.526 . S
C1326 H1310 0.959 . S
C1326 H1311 0.959 . S
C1326 H1312 0.961 . S
C1326 C1325 1.502 . S
C1327 H1313 0.960 . S
C1327 H1314 0.961 . S
C1327 H1315 0.959 . S
C1327 C1325 1.561 . S
C1328 C1325 1.526 . S
C1328 C1329 1.396 . S
C1328 C1333 1.390 . S
C1329 C1323 1.465 . S
C1329 C1328 1.396 . S
C1329 C1330 1.396 1_455 S
C1330 H1316 0.930 . S
C1330 C1329 1.396 1_655 S
C1330 C1331 1.387 . S
C1331 H1317 0.931 . S
C1331 C1330 1.387 . S
C1331 C1332 1.389 . S
C1332 C1331 1.389 . S
C1332 C1333 1.387 1_655 S
C1333 H1318 0.930 . S
C1333 C1328 1.390 . S
C1333 C1332 1.387 1_455 S
H1334 C1346 0.930 . S
H1335 C1348 0.930 . S
H1336 C1349 0.930 . S
H1337 C1353 0.959 . S
H1338 C1353 0.959 . S
H1339 C1353 0.961 . S
H1340 C1354 0.960 . S
H1341 C1354 0.961 . S
H1342 C1354 0.959 . S
H1343 C1357 0.929 . S
H1344 C1358 0.931 . S
H1345 C1360 0.930 . S
C1346 H1334 0.930 . S
C1346 C1347 1.399 . S
C1346 C1351 1.399 . S
C1347 C1346 1.399 . S
C1347 C1348 1.376 . S
C1348 H1335 0.930 . S
C1348 C1347 1.376 . S
C1348 C1349 1.388 . S
C1349 H1336 0.930 . S
C1349 C1348 1.388 . S
C1349 C1350 1.390 . S
C1350 C1349 1.390 . S
C1350 C1351 1.394 . S
C1350 C1356 1.465 . S
C1351 C1346 1.399 . S
C1351 C1350 1.394 . S
C1351 C1352 1.516 . S
C1352 C1351 1.516 . S
C1352 C1353 1.502 . S
C1352 C1354 1.561 . S
C1352 C1355 1.526 . S
C1353 H1337 0.959 . S
C1353 H1338 0.959 . S
C1353 H1339 0.961 . S
C1353 C1352 1.502 . S
C1354 H1340 0.960 . S
C1354 H1341 0.961 . S
C1354 H1342 0.959 . S
C1354 C1352 1.561 . S
C1355 C1352 1.526 . S
C1355 C1356 1.396 . S
C1355 C1360 1.390 . S
C1356 C1350 1.465 . S
C1356 C1355 1.396 . S
C1356 C1357 1.399 . S
C1357 H1343 0.929 . S
C1357 C1356 1.399 . S
C1357 C1358 1.385 . S
C1358 H1344 0.931 . S
C1358 C1357 1.385 . S
C1358 C1359 1.389 . S
C1359 C1358 1.389 . S
C1359 C1360 1.387 . S
C1360 H1345 0.930 . S
C1360 C1355 1.390 . S
C1360 C1359 1.387 . S
H1361 C1373 0.930 . S
H1362 C1375 0.930 . S
H1363 C1376 0.930 . S
H1364 C1380 0.959 . S
H1365 C1380 0.959 . S
H1366 C1380 0.961 . S
H1367 C1381 0.960 . S
H1368 C1381 0.961 . S
H1369 C1381 0.959 . S
H1370 C1384 0.929 . S
H1371 C1385 0.931 . S
H1372 C1387 0.930 . S
C1373 H1361 0.930 . S
C1373 C1374 1.399 . S
C1373 C1378 1.399 . S
C1374 C1373 1.399 . S
C1374 C1375 1.376 . S
C1375 H1362 0.930 . S
C1375 C1374 1.376 . S
C1375 C1376 1.388 . S
C1376 H1363 0.930 . S
C1376 C1375 1.388 . S
C1376 C1377 1.390 . S
C1377 C1376 1.390 . S
C1377 C1378 1.394 . S
C1377 C1383 1.465 . S
C1378 C1373 1.399 . S
C1378 C1377 1.394 . S
C1378 C1379 1.516 . S
C1379 C1378 1.516 . S
C1379 C1380 1.502 . S
C1379 C1381 1.561 . S
C1379 C1382 1.526 . S
C1380 H1364 0.959 . S
C1380 H1365 0.959 . S
C1380 H1366 0.961 . S
C1380 C1379 1.502 . S
C1381 H1367 0.960 . S
C1381 H1368 0.961 . S
C1381 H1369 0.959 . S
C1381 C1379 1.561 . S
C1382 C1379 1.526 . S
C1382 C1383 1.396 . S
C1382 C1387 1.390 . S
C1383 C1377 1.465 . S
C1383 C1382 1.396 . S
C1383 C1384 1.399 . S
C1384 H1370 0.929 . S
C1384 C1383 1.399 . S
C1384 C1385 1.385 . S
C1385 H1371 0.931 . S
C1385 C1384 1.385 . S
C1385 C1386 1.389 . S
C1386 C1385 1.389 . S
C1386 C1387 1.387 . S
C1387 H1372 0.930 . S
C1387 C1382 1.390 . S
C1387 C1386 1.387 . S
H1388 C1400 0.930 . S
H1389 C1402 0.930 . S
H1390 C1403 0.930 . S
H1391 C1407 0.959 . S
H1392 C1407 0.959 . S
H1393 C1407 0.961 . S
H1394 C1408 0.960 . S
H1395 C1408 0.961 . S
H1396 C1408 0.959 . S
H1397 C1411 0.929 . S
H1398 C1412 0.931 . S
H1399 C1414 0.930 . S
C1400 H1388 0.930 . S
C1400 C1401 1.399 . S
C1400 C1405 1.399 . S
C1401 C1400 1.399 . S
C1401 C1402 1.376 . S
C1402 H1389 0.930 . S
C1402 C1401 1.376 . S
C1402 C1403 1.388 . S
C1403 H1390 0.930 . S
C1403 C1402 1.388 . S
C1403 C1404 1.390 . S
C1404 C1403 1.390 . S
C1404 C1405 1.394 . S
C1404 C1410 1.465 . S
C1405 C1400 1.399 . S
C1405 C1404 1.394 . S
C1405 C1406 1.516 . S
C1406 C1405 1.516 . S
C1406 C1407 1.502 . S
C1406 C1408 1.561 . S
C1406 C1409 1.526 . S
C1407 H1391 0.959 . S
C1407 H1392 0.959 . S
C1407 H1393 0.961 . S
C1407 C1406 1.502 . S
C1408 H1394 0.960 . S
C1408 H1395 0.961 . S
C1408 H1396 0.959 . S
C1408 C1406 1.561 . S
C1409 C1406 1.526 . S
C1409 C1410 1.396 . S
C1409 C1414 1.390 . S
C1410 C1404 1.465 . S
C1410 C1409 1.396 . S
C1410 C1411 1.399 . S
C1411 H1397 0.929 . S
C1411 C1410 1.399 . S
C1411 C1412 1.385 . S
C1412 H1398 0.931 . S
C1412 C1411 1.385 . S
C1412 C1413 1.389 . S
C1413 C1412 1.389 . S
C1413 C1414 1.387 . S
C1414 H1399 0.930 . S
C1414 C1409 1.390 . S
C1414 C1413 1.387 . S
H1415 C1427 0.930 . S
H1416 C1429 0.930 . S
H1417 C1430 0.930 . S
H1418 C1434 0.959 . S
H1419 C1434 0.959 . S
H1420 C1434 0.961 . S
H1421 C1435 0.960 . S
H1422 C1435 0.961 . S
H1423 C1435 0.959 . S
H1424 C1438 0.929 . S
H1425 C1439 0.931 . S
H1426 C1441 0.930 . S
C1427 H1415 0.930 . S
C1427 C1428 1.399 . S
C1427 C1432 1.399 . S
C1428 C1427 1.399 . S
C1428 C1429 1.376 . S
C1429 H1416 0.930 . S
C1429 C1428 1.376 . S
C1429 C1430 1.388 . S
C1430 H1417 0.930 . S
C1430 C1429 1.388 . S
C1430 C1431 1.390 . S
C1431 C1430 1.390 . S
C1431 C1432 1.394 . S
C1431 C1437 1.465 . S
C1432 C1427 1.399 . S
C1432 C1431 1.394 . S
C1432 C1433 1.516 . S
C1433 C1432 1.516 . S
C1433 C1434 1.502 . S
C1433 C1435 1.561 . S
C1433 C1436 1.526 . S
C1434 H1418 0.959 . S
C1434 H1419 0.959 . S
C1434 H1420 0.961 . S
C1434 C1433 1.502 . S
C1435 H1421 0.960 . S
C1435 H1422 0.961 . S
C1435 H1423 0.959 . S
C1435 C1433 1.561 . S
C1436 C1433 1.526 . S
C1436 C1437 1.396 . S
C1436 C1441 1.390 . S
C1437 C1431 1.465 . S
C1437 C1436 1.396 . S
C1437 C1438 1.399 . S
C1438 H1424 0.929 . S
C1438 C1437 1.399 . S
C1438 C1439 1.385 . S
C1439 H1425 0.931 . S
C1439 C1438 1.385 . S
C1439 C1440 1.389 . S
C1440 C1439 1.389 . S
C1440 C1441 1.387 . S
C1441 H1426 0.930 . S
C1441 C1436 1.390 . S
C1441 C1440 1.387 . S
H1442 C1454 0.930 . S
H1443 C1456 0.930 . S
H1444 C1457 0.930 . S
H1445 C1461 0.959 . S
H1446 C1461 0.959 . S
H1447 C1461 0.961 . S
H1448 C1462 0.960 . S
H1449 C1462 0.961 . S
H1450 C1462 0.959 . S
H1451 C1465 0.929 . S
H1452 C1466 0.931 . S
H1453 C1468 0.930 . S
C1454 H1442 0.930 . S
C1454 C1455 1.399 . S
C1454 C1459 1.399 . S
C1455 C1454 1.399 . S
C1455 C1456 1.376 . S
C1456 H1443 0.930 . S
C1456 C1455 1.376 . S
C1456 C1457 1.388 . S
C1457 H1444 0.930 . S
C1457 C1456 1.388 . S
C1457 C1458 1.390 . S
C1458 C1457 1.390 . S
C1458 C1459 1.394 . S
C1458 C1464 1.465 . S
C1459 C1454 1.399 . S
C1459 C1458 1.394 . S
C1459 C1460 1.516 . S
C1460 C1459 1.516 . S
C1460 C1461 1.502 . S
C1460 C1462 1.561 . S
C1460 C1463 1.526 . S
C1461 H1445 0.959 . S
C1461 H1446 0.959 . S
C1461 H1447 0.961 . S
C1461 C1460 1.502 . S
C1462 H1448 0.960 . S
C1462 H1449 0.961 . S
C1462 H1450 0.959 . S
C1462 C1460 1.561 . S
C1463 C1460 1.526 . S
C1463 C1464 1.396 . S
C1463 C1468 1.390 . S
C1464 C1458 1.465 . S
C1464 C1463 1.396 . S
C1464 C1465 1.399 . S
C1465 H1451 0.929 . S
C1465 C1464 1.399 . S
C1465 C1466 1.385 . S
C1466 H1452 0.931 . S
C1466 C1465 1.385 . S
C1466 C1467 1.389 . S
C1467 C1466 1.389 . S
C1467 C1468 1.387 . S
C1468 H1453 0.930 . S
C1468 C1463 1.390 . S
C1468 C1467 1.387 . S
H1469 C1481 0.930 . S
H1470 C1483 0.930 . S
H1471 C1484 0.930 . S
H1472 C1488 0.959 . S
H1473 C1488 0.959 1_655 S
H1474 C1488 0.961 . S
H1475 C1489 0.960 . S
H1476 C1489 0.961 . S
H1477 C1489 0.959 . S
H1478 C1492 0.929 . S
H1479 C1493 0.931 . S
H1480 C1495 0.930 . S
C1481 H1469 0.930 . S
C1481 C1482 1.399 . S
C1481 C1486 1.399 . S
C1482 C1481 1.399 . S
C1482 C1483 1.376 . S
C1483 H1470 0.930 . S
C1483 C1482 1.376 . S
C1483 C1484 1.388 . S
C1484 H1471 0.930 . S
C1484 C1483 1.388 . S
C1484 C1485 1.390 . S
C1485 C1484 1.390 . S
C1485 C1486 1.394 . S
C1485 C1491 1.465 . S
C1486 C1481 1.399 . S
C1486 C1485 1.394 . S
C1486 C1487 1.516 . S
C1487 C1486 1.516 . S
C1487 C1488 1.502 . S
C1487 C1489 1.561 . S
C1487 C1490 1.526 . S
C1488 H1472 0.959 . S
C1488 H1473 0.959 1_455 S
C1488 H1474 0.961 . S
C1488 C1487 1.502 . S
C1489 H1475 0.960 . S
C1489 H1476 0.961 . S
C1489 H1477 0.959 . S
C1489 C1487 1.561 . S
C1490 C1487 1.526 . S
C1490 C1491 1.396 . S
C1490 C1495 1.390 1_455 S
C1491 C1485 1.465 . S
C1491 C1490 1.396 . S
C1491 C1492 1.399 . S
C1492 H1478 0.929 . S
C1492 C1491 1.399 . S
C1492 C1493 1.385 . S
C1493 H1479 0.931 . S
C1493 C1492 1.385 . S
C1493 C1494 1.389 1_455 S
C1494 C1493 1.389 1_655 S
C1494 C1495 1.387 . S
C1495 H1480 0.930 . S
C1495 C1490 1.390 1_655 S
C1495 C1494 1.387 . S
H1496 C1508 0.930 . S
H1497 C1510 0.930 . S
H1498 C1511 0.930 . S
H1499 C1515 0.959 . S
H1500 C1515 0.959 . S
H1501 C1515 0.961 . S
H1502 C1516 0.960 . S
H1503 C1516 0.961 . S
H1504 C1516 0.959 . S
H1505 C1519 0.929 . S
H1506 C1520 0.931 . S
H1507 C1522 0.930 . S
C1508 H1496 0.930 . S
C1508 C1509 1.399 . S
C1508 C1513 1.399 . S
C1509 C1508 1.399 . S
C1509 C1510 1.376 . S
C1510 H1497 0.930 . S
C1510 C1509 1.376 . S
C1510 C1511 1.388 . S
C1511 H1498 0.930 . S
C1511 C1510 1.388 . S
C1511 C1512 1.390 . S
C1512 C1511 1.390 . S
C1512 C1513 1.394 . S
C1512 C1518 1.465 . S
C1513 C1508 1.399 . S
C1513 C1512 1.394 . S
C1513 C1514 1.516 . S
C1514 C1513 1.516 . S
C1514 C1515 1.502 . S
C1514 C1516 1.561 . S
C1514 C1517 1.526 . S
C1515 H1499 0.959 . S
C1515 H1500 0.959 . S
C1515 H1501 0.961 . S
C1515 C1514 1.502 . S
C1516 H1502 0.960 . S
C1516 H1503 0.961 . S
C1516 H1504 0.959 . S
C1516 C1514 1.561 . S
C1517 C1514 1.526 . S
C1517 C1518 1.396 . S
C1517 C1522 1.390 . S
C1518 C1512 1.465 . S
C1518 C1517 1.396 . S
C1518 C1519 1.399 . S
C1519 H1505 0.929 . S
C1519 C1518 1.399 . S
C1519 C1520 1.385 . S
C1520 H1506 0.931 . S
C1520 C1519 1.385 . S
C1520 C1521 1.389 . S
C1521 C1520 1.389 . S
C1521 C1522 1.387 . S
C1522 H1507 0.930 . S
C1522 C1517 1.390 . S
C1522 C1521 1.387 . S
H1523 C1535 0.927 1_455 S
H1524 C1537 0.930 . S
H1525 C1538 0.930 . S
H1526 C1542 0.959 . S
H1527 C1542 0.959 . S
H1528 C1542 0.961 . S
H1529 C1543 0.960 . S
H1530 C1543 0.961 . S
H1531 C1543 0.959 . S
H1532 C1546 0.929 . S
H1533 C1547 0.931 . S
H1534 C1549 0.930 . S
C1535 H1523 0.927 1_655 S
C1535 C1536 1.394 1_655 S
C1535 C1540 1.407 . S
C1536 C1535 1.394 1_455 S
C1536 C1537 1.376 . S
C1537 H1524 0.930 . S
C1537 C1536 1.376 . S
C1537 C1538 1.388 1_455 S
C1538 H1525 0.930 . S
C1538 C1537 1.388 1_655 S
C1538 C1539 1.390 . S
C1539 C1538 1.390 . S
C1539 C1540 1.394 . S
C1539 C1545 1.465 . S
C1540 C1535 1.407 . S
C1540 C1539 1.394 . S
C1540 C1541 1.516 . S
C1541 C1540 1.516 . S
C1541 C1542 1.502 . S
C1541 C1543 1.561 . S
C1541 C1544 1.526 . S
C1542 H1526 0.959 . S
C1542 H1527 0.959 . S
C1542 H1528 0.961 . S
C1542 C1541 1.502 . S
C1543 H1529 0.960 . S
C1543 H1530 0.961 . S
C1543 H1531 0.959 . S
C1543 C1541 1.561 . S
C1544 C1541 1.526 . S
C1544 C1545 1.396 . S
C1544 C1549 1.390 . S
C1545 C1539 1.465 . S
C1545 C1544 1.396 . S
C1545 C1546 1.399 . S
C1546 H1532 0.929 . S
C1546 C1545 1.399 . S
C1546 C1547 1.385 . S
C1547 H1533 0.931 . S
C1547 C1546 1.385 . S
C1547 C1548 1.389 . S
C1548 C1547 1.389 . S
C1548 C1549 1.387 . S
C1549 H1534 0.930 . S
C1549 C1544 1.390 . S
C1549 C1548 1.387 . S
H1550 C1562 0.930 . S
H1551 C1564 0.930 . S
H1552 C1565 0.930 . S
H1553 C1569 0.959 . S
H1554 C1569 0.959 . S
H1555 C1569 0.961 . S
H1556 C1570 0.960 . S
H1557 C1570 0.961 . S
H1558 C1570 0.959 . S
H1559 C1573 0.929 . S
H1560 C1574 0.931 . S
H1561 C1576 0.930 . S
C1562 H1550 0.930 . S
C1562 C1563 1.399 . S
C1562 C1567 1.399 . S
C1563 C1562 1.399 . S
C1563 C1564 1.376 . S
C1564 H1551 0.930 . S
C1564 C1563 1.376 . S
C1564 C1565 1.388 . S
C1565 H1552 0.930 . S
C1565 C1564 1.388 . S
C1565 C1566 1.390 . S
C1566 C1565 1.390 . S
C1566 C1567 1.394 . S
C1566 C1572 1.465 . S
C1567 C1562 1.399 . S
C1567 C1566 1.394 . S
C1567 C1568 1.516 . S
C1568 C1567 1.516 . S
C1568 C1569 1.502 . S
C1568 C1570 1.561 . S
C1568 C1571 1.526 . S
C1569 H1553 0.959 . S
C1569 H1554 0.959 . S
C1569 H1555 0.961 . S
C1569 C1568 1.502 . S
C1570 H1556 0.960 . S
C1570 H1557 0.961 . S
C1570 H1558 0.959 . S
C1570 C1568 1.561 . S
C1571 C1568 1.526 . S
C1571 C1572 1.396 . S
C1571 C1576 1.390 . S
C1572 C1566 1.465 . S
C1572 C1571 1.396 . S
C1572 C1573 1.399 . S
C1573 H1559 0.929 . S
C1573 C1572 1.399 . S
C1573 C1574 1.385 . S
C1574 H1560 0.931 . S
C1574 C1573 1.385 . S
C1574 C1575 1.389 . S
C1575 C1574 1.389 . S
C1575 C1576 1.387 . S
C1576 H1561 0.930 . S
C1576 C1571 1.390 . S
C1576 C1575 1.387 . S
H1577 C1589 0.930 . S
H1578 C1591 0.930 . S
H1579 C1592 0.930 . S
H1580 C1596 0.959 . S
H1581 C1596 0.959 . S
H1582 C1596 0.961 . S
H1583 C1597 0.960 . S
H1584 C1597 0.961 . S
H1585 C1597 0.959 . S
H1586 C1600 0.929 . S
H1587 C1601 0.931 . S
H1588 C1603 0.930 . S
C1589 H1577 0.930 . S
C1589 C1590 1.399 . S
C1589 C1594 1.399 . S
C1590 C1589 1.399 . S
C1590 C1591 1.376 . S
C1591 H1578 0.930 . S
C1591 C1590 1.376 . S
C1591 C1592 1.388 . S
C1592 H1579 0.930 . S
C1592 C1591 1.388 . S
C1592 C1593 1.390 . S
C1593 C1592 1.390 . S
C1593 C1594 1.394 . S
C1593 C1599 1.465 . S
C1594 C1589 1.399 . S
C1594 C1593 1.394 . S
C1594 C1595 1.516 . S
C1595 C1594 1.516 . S
C1595 C1596 1.502 . S
C1595 C1597 1.561 . S
C1595 C1598 1.526 . S
C1596 H1580 0.959 . S
C1596 H1581 0.959 . S
C1596 H1582 0.961 . S
C1596 C1595 1.502 . S
C1597 H1583 0.960 . S
C1597 H1584 0.961 . S
C1597 H1585 0.959 . S
C1597 C1595 1.561 . S
C1598 C1595 1.526 . S
C1598 C1599 1.396 . S
C1598 C1603 1.390 . S
C1599 C1593 1.465 . S
C1599 C1598 1.396 . S
C1599 C1600 1.399 . S
C1600 H1586 0.929 . S
C1600 C1599 1.399 . S
C1600 C1601 1.385 . S
C1601 H1587 0.931 . S
C1601 C1600 1.385 . S
C1601 C1602 1.389 . S
C1602 C1601 1.389 . S
C1602 C1603 1.387 . S
C1603 H1588 0.930 . S
C1603 C1598 1.390 . S
C1603 C1602 1.387 . S
H1604 C1616 0.930 . S
H1605 C1618 0.930 . S
H1606 C1619 0.930 . S
H1607 C1623 0.959 . S
H1608 C1623 0.959 . S
H1609 C1623 0.961 . S
H1610 C1624 0.960 . S
H1611 C1624 0.961 . S
H1612 C1624 0.959 . S
H1613 C1627 0.929 . S
H1614 C1628 0.931 . S
H1615 C1630 0.930 . S
C1616 H1604 0.930 . S
C1616 C1617 1.399 . S
C1616 C1621 1.399 . S
C1617 C1616 1.399 . S
C1617 C1618 1.376 . S
C1618 H1605 0.930 . S
C1618 C1617 1.376 . S
C1618 C1619 1.388 . S
C1619 H1606 0.930 . S
C1619 C1618 1.388 . S
C1619 C1620 1.390 . S
C1620 C1619 1.390 . S
C1620 C1621 1.394 . S
C1620 C1626 1.465 . S
C1621 C1616 1.399 . S
C1621 C1620 1.394 . S
C1621 C1622 1.516 . S
C1622 C1621 1.516 . S
C1622 C1623 1.502 . S
C1622 C1624 1.561 . S
C1622 C1625 1.526 . S
C1623 H1607 0.959 . S
C1623 H1608 0.959 . S
C1623 H1609 0.961 . S
C1623 C1622 1.502 . S
C1624 H1610 0.960 . S
C1624 H1611 0.961 . S
C1624 H1612 0.959 . S
C1624 C1622 1.561 . S
C1625 C1622 1.526 . S
C1625 C1626 1.396 . S
C1625 C1630 1.390 . S
C1626 C1620 1.465 . S
C1626 C1625 1.396 . S
C1626 C1627 1.399 . S
C1627 H1613 0.929 . S
C1627 C1626 1.399 . S
C1627 C1628 1.385 . S
C1628 H1614 0.931 . S
C1628 C1627 1.385 . S
C1628 C1629 1.389 . S
C1629 C1628 1.389 . S
C1629 C1630 1.387 . S
C1630 H1615 0.930 . S
C1630 C1625 1.390 . S
C1630 C1629 1.387 . S
H1631 C1643 0.930 . S
H1632 C1645 0.930 . S
H1633 C1646 0.930 . S
H1634 C1650 0.959 . S
H1635 C1650 0.959 . S
H1636 C1650 0.961 . S
H1637 C1651 0.960 . S
H1638 C1651 0.961 . S
H1639 C1651 0.959 . S
H1640 C1654 0.929 . S
H1641 C1655 0.931 . S
H1642 C1657 0.930 . S
C1643 H1631 0.930 . S
C1643 C1644 1.399 . S
C1643 C1648 1.399 . S
C1644 C1643 1.399 . S
C1644 C1645 1.376 . S
C1645 H1632 0.930 . S
C1645 C1644 1.376 . S
C1645 C1646 1.388 . S
C1646 H1633 0.930 . S
C1646 C1645 1.388 . S
C1646 C1647 1.390 . S
C1647 C1646 1.390 . S
C1647 C1648 1.394 . S
C1647 C1653 1.465 . S
C1648 C1643 1.399 . S
C1648 C1647 1.394 . S
C1648 C1649 1.516 . S
C1649 C1648 1.516 . S
C1649 C1650 1.502 . S
C1649 C1651 1.561 . S
C1649 C1652 1.526 . S
C1650 H1634 0.959 . S
C1650 H1635 0.959 . S
C1650 H1636 0.961 . S
C1650 C1649 1.502 . S
C1651 H1637 0.960 . S
C1651 H1638 0.961 . S
C1651 H1639 0.959 . S
C1651 C1649 1.561 . S
C1652 C1649 1.526 . S
C1652 C1653 1.396 . S
C1652 C1657 1.390 . S
C1653 C1647 1.465 . S
C1653 C1652 1.396 . S
C1653 C1654 1.399 . S
C1654 H1640 0.929 . S
C1654 C1653 1.399 . S
C1654 C1655 1.385 . S
C1655 H1641 0.931 . S
C1655 C1654 1.385 . S
C1655 C1656 1.389 . S
C1656 C1655 1.389 . S
C1656 C1657 1.387 . S
C1657 H1642 0.930 . S
C1657 C1652 1.390 . S
C1657 C1656 1.387 . S
H1658 C1670 0.930 . S
H1659 C1672 0.930 . S
H1660 C1673 0.930 . S
H1661 C1677 0.959 . S
H1662 C1677 0.959 . S
H1663 C1677 0.961 . S
H1664 C1678 0.960 . S
H1665 C1678 0.961 . S
H1666 C1678 0.959 . S
H1667 C1681 0.929 . S
H1668 C1682 0.931 . S
H1669 C1684 0.930 . S
C1670 H1658 0.930 . S
C1670 C1671 1.399 . S
C1670 C1675 1.399 . S
C1671 C1670 1.399 . S
C1671 C1672 1.376 . S
C1672 H1659 0.930 . S
C1672 C1671 1.376 . S
C1672 C1673 1.388 . S
C1673 H1660 0.930 . S
C1673 C1672 1.388 . S
C1673 C1674 1.390 . S
C1674 C1673 1.390 . S
C1674 C1675 1.394 . S
C1674 C1680 1.465 . S
C1675 C1670 1.399 . S
C1675 C1674 1.394 . S
C1675 C1676 1.516 . S
C1676 C1675 1.516 . S
C1676 C1677 1.502 . S
C1676 C1678 1.561 . S
C1676 C1679 1.526 . S
C1677 H1661 0.959 . S
C1677 H1662 0.959 . S
C1677 H1663 0.961 . S
C1677 C1676 1.502 . S
C1678 H1664 0.960 . S
C1678 H1665 0.961 . S
C1678 H1666 0.959 . S
C1678 C1676 1.561 . S
C1679 C1676 1.526 . S
C1679 C1680 1.396 . S
C1679 C1684 1.390 . S
C1680 C1674 1.465 . S
C1680 C1679 1.396 . S
C1680 C1681 1.399 . S
C1681 H1667 0.929 . S
C1681 C1680 1.399 . S
C1681 C1682 1.385 . S
C1682 H1668 0.931 . S
C1682 C1681 1.385 . S
C1682 C1683 1.389 . S
C1683 C1682 1.389 . S
C1683 C1684 1.387 . S
C1684 H1669 0.930 . S
C1684 C1679 1.390 . S
C1684 C1683 1.387 . S
H1685 C1697 0.930 1_455 S
H1686 C1699 0.930 . S
H1687 C1700 0.930 . S
H1688 C1704 0.959 . S
H1689 C1704 0.959 . S
H1690 C1704 0.961 . S
H1691 C1705 0.960 . S
H1692 C1705 0.961 . S
H1693 C1705 0.959 . S
H1694 C1708 0.929 . S
H1695 C1709 0.931 . S
H1696 C1711 0.930 . S
C1697 H1685 0.930 1_655 S
C1697 C1698 1.399 1_655 S
C1697 C1702 1.399 . S
C1698 C1697 1.399 1_455 S
C1698 C1699 1.376 . S
C1699 H1686 0.930 . S
C1699 C1698 1.376 . S
C1699 C1700 1.388 1_455 S
C1700 H1687 0.930 . S
C1700 C1699 1.388 1_655 S
C1700 C1701 1.390 . S
C1701 C1700 1.390 . S
C1701 C1702 1.394 . S
C1701 C1707 1.465 . S
C1702 C1697 1.399 . S
C1702 C1701 1.394 . S
C1702 C1703 1.516 . S
C1703 C1702 1.516 . S
C1703 C1704 1.502 . S
C1703 C1705 1.561 . S
C1703 C1706 1.526 . S
C1704 H1688 0.959 . S
C1704 H1689 0.959 . S
C1704 H1690 0.961 . S
C1704 C1703 1.502 . S
C1705 H1691 0.960 . S
C1705 H1692 0.961 . S
C1705 H1693 0.959 . S
C1705 C1703 1.561 . S
C1706 C1703 1.526 . S
C1706 C1707 1.396 . S
C1706 C1711 1.390 . S
C1707 C1701 1.465 . S
C1707 C1706 1.396 . S
C1707 C1708 1.399 . S
C1708 H1694 0.929 . S
C1708 C1707 1.399 . S
C1708 C1709 1.385 . S
C1709 H1695 0.931 . S
C1709 C1708 1.385 . S
C1709 C1710 1.389 . S
C1710 C1709 1.389 . S
C1710 C1711 1.387 . S
C1711 H1696 0.930 . S
C1711 C1706 1.390 . S
C1711 C1710 1.387 . S
H1712 C1724 0.930 . S
H1713 C1726 0.930 . S
H1714 C1727 0.930 . S
H1715 C1731 0.959 . S
H1716 C1731 0.959 . S
H1717 C1731 0.961 . S
H1718 C1732 0.960 . S
H1719 C1732 0.961 . S
H1720 C1732 0.959 . S
H1721 C1735 0.929 . S
H1722 C1736 0.931 . S
H1723 C1738 0.930 . S
C1724 H1712 0.930 . S
C1724 C1725 1.399 . S
C1724 C1729 1.399 . S
C1725 C1724 1.399 . S
C1725 C1726 1.376 . S
C1726 H1713 0.930 . S
C1726 C1725 1.376 . S
C1726 C1727 1.388 . S
C1727 H1714 0.930 . S
C1727 C1726 1.388 . S
C1727 C1728 1.390 . S
C1728 C1727 1.390 . S
C1728 C1729 1.394 . S
C1728 C1734 1.465 . S
C1729 C1724 1.399 . S
C1729 C1728 1.394 . S
C1729 C1730 1.516 . S
C1730 C1729 1.516 . S
C1730 C1731 1.502 . S
C1730 C1732 1.561 . S
C1730 C1733 1.526 . S
C1731 H1715 0.959 . S
C1731 H1716 0.959 . S
C1731 H1717 0.961 . S
C1731 C1730 1.502 . S
C1732 H1718 0.960 . S
C1732 H1719 0.961 . S
C1732 H1720 0.959 . S
C1732 C1730 1.561 . S
C1733 C1730 1.526 . S
C1733 C1734 1.396 . S
C1733 C1738 1.390 . S
C1734 C1728 1.465 . S
C1734 C1733 1.396 . S
C1734 C1735 1.399 . S
C1735 H1721 0.929 . S
C1735 C1734 1.399 . S
C1735 C1736 1.385 . S
C1736 H1722 0.931 . S
C1736 C1735 1.385 . S
C1736 C1737 1.389 . S
C1737 C1736 1.389 . S
C1737 C1738 1.387 . S
C1738 H1723 0.930 . S
C1738 C1733 1.390 . S
C1738 C1737 1.387 . S
H1739 C1751 0.930 . S
H1740 C1753 0.930 . S
H1741 C1754 0.930 . S
H1742 C1758 0.959 . S
H1743 C1758 0.959 . S
H1744 C1758 0.961 . S
H1745 C1759 0.960 . S
H1746 C1759 0.961 . S
H1747 C1759 0.959 . S
H1748 C1762 0.929 . S
H1749 C1763 0.931 . S
H1750 C1765 0.930 . S
C1751 H1739 0.930 . S
C1751 C1752 1.399 . S
C1751 C1756 1.399 . S
C1752 C1751 1.399 . S
C1752 C1753 1.376 . S
C1753 H1740 0.930 . S
C1753 C1752 1.376 . S
C1753 C1754 1.388 . S
C1754 H1741 0.930 . S
C1754 C1753 1.388 . S
C1754 C1755 1.390 . S
C1755 C1754 1.390 . S
C1755 C1756 1.394 . S
C1755 C1761 1.465 . S
C1756 C1751 1.399 . S
C1756 C1755 1.394 . S
C1756 C1757 1.516 . S
C1757 C1756 1.516 . S
C1757 C1758 1.502 . S
C1757 C1759 1.561 . S
C1757 C1760 1.526 . S
C1758 H1742 0.959 . S
C1758 H1743 0.959 . S
C1758 H1744 0.961 . S
C1758 C1757 1.502 . S
C1759 H1745 0.960 . S
C1759 H1746 0.961 . S
C1759 H1747 0.959 . S
C1759 C1757 1.561 . S
C1760 C1757 1.526 . S
C1760 C1761 1.396 . S
C1760 C1765 1.390 . S
C1761 C1755 1.465 . S
C1761 C1760 1.396 . S
C1761 C1762 1.399 . S
C1762 H1748 0.929 . S
C1762 C1761 1.399 . S
C1762 C1763 1.385 . S
C1763 H1749 0.931 . S
C1763 C1762 1.385 . S
C1763 C1764 1.389 . S
C1764 C1763 1.389 . S
C1764 C1765 1.387 . S
C1765 H1750 0.930 . S
C1765 C1760 1.390 . S
C1765 C1764 1.387 . S
H1766 C1778 0.930 . S
H1767 C1780 0.930 . S
H1768 C1781 0.930 . S
H1769 C1785 0.959 . S
H1770 C1785 0.959 . S
H1771 C1785 0.961 . S
H1772 C1786 0.960 . S
H1773 C1786 0.961 . S
H1774 C1786 0.959 . S
H1775 C1789 0.929 . S
H1776 C1790 0.931 . S
H1777 C1792 0.930 . S
C1778 H1766 0.930 . S
C1778 C1779 1.399 . S
C1778 C1783 1.399 . S
C1779 C1778 1.399 . S
C1779 C1780 1.376 . S
C1780 H1767 0.930 . S
C1780 C1779 1.376 . S
C1780 C1781 1.388 . S
C1781 H1768 0.930 . S
C1781 C1780 1.388 . S
C1781 C1782 1.390 . S
C1782 C1781 1.390 . S
C1782 C1783 1.394 . S
C1782 C1788 1.465 . S
C1783 C1778 1.399 . S
C1783 C1782 1.394 . S
C1783 C1784 1.516 . S
C1784 C1783 1.516 . S
C1784 C1785 1.502 . S
C1784 C1786 1.561 . S
C1784 C1787 1.526 . S
C1785 H1769 0.959 . S
C1785 H1770 0.959 . S
C1785 H1771 0.961 . S
C1785 C1784 1.502 . S
C1786 H1772 0.960 . S
C1786 H1773 0.961 . S
C1786 H1774 0.959 . S
C1786 C1784 1.561 . S
C1787 C1784 1.526 . S
C1787 C1788 1.396 . S
C1787 C1792 1.390 . S
C1788 C1782 1.465 . S
C1788 C1787 1.396 . S
C1788 C1789 1.399 . S
C1789 H1775 0.929 . S
C1789 C1788 1.399 . S
C1789 C1790 1.385 . S
C1790 H1776 0.931 . S
C1790 C1789 1.385 . S
C1790 C1791 1.389 . S
C1791 C1790 1.389 . S
C1791 C1792 1.387 . S
C1792 H1777 0.930 . S
C1792 C1787 1.390 . S
C1792 C1791 1.387 . S
H1793 C1805 0.930 . S
H1794 C1807 0.930 . S
H1795 C1808 0.930 . S
H1796 C1812 0.959 . S
H1797 C1812 0.959 . S
H1798 C1812 0.961 . S
H1799 C1813 0.960 . S
H1800 C1813 0.961 . S
H1801 C1813 0.959 . S
H1802 C1816 0.929 . S
H1803 C1817 0.931 . S
H1804 C1819 0.930 . S
C1805 H1793 0.930 . S
C1805 C1806 1.399 . S
C1805 C1810 1.399 . S
C1806 C1805 1.399 . S
C1806 C1807 1.376 . S
C1807 H1794 0.930 . S
C1807 C1806 1.376 . S
C1807 C1808 1.388 . S
C1808 H1795 0.930 . S
C1808 C1807 1.388 . S
C1808 C1809 1.390 . S
C1809 C1808 1.390 . S
C1809 C1810 1.394 . S
C1809 C1815 1.465 . S
C1810 C1805 1.399 . S
C1810 C1809 1.394 . S
C1810 C1811 1.516 . S
C1811 C1810 1.516 . S
C1811 C1812 1.502 . S
C1811 C1813 1.561 . S
C1811 C1814 1.526 . S
C1812 H1796 0.959 . S
C1812 H1797 0.959 . S
C1812 H1798 0.961 . S
C1812 C1811 1.502 . S
C1813 H1799 0.960 . S
C1813 H1800 0.961 . S
C1813 H1801 0.959 . S
C1813 C1811 1.561 . S
C1814 C1811 1.526 . S
C1814 C1815 1.396 . S
C1814 C1819 1.390 1_655 S
C1815 C1809 1.465 . S
C1815 C1814 1.396 . S
C1815 C1816 1.399 . S
C1816 H1802 0.929 . S
C1816 C1815 1.399 . S
C1816 C1817 1.385 1_655 S
C1817 H1803 0.931 . S
C1817 C1816 1.385 1_455 S
C1817 C1818 1.389 . S
C1818 C1817 1.389 . S
C1818 C1819 1.387 . S
C1819 H1804 0.930 . S
C1819 C1814 1.390 1_455 S
C1819 C1818 1.387 . S
H1820 C1832 0.930 . S
H1821 C1834 0.930 . S
H1822 C1835 0.930 . S
H1823 C1839 0.959 . S
H1824 C1839 0.959 . S
H1825 C1839 0.961 . S
H1826 C1840 0.960 . S
H1827 C1840 0.961 . S
H1828 C1840 0.959 . S
H1829 C1843 0.929 . S
H1830 C1844 0.931 . S
H1831 C1846 0.930 . S
C1832 H1820 0.930 . S
C1832 C1833 1.399 . S
C1832 C1837 1.399 . S
C1833 C1832 1.399 . S
C1833 C1834 1.376 . S
C1834 H1821 0.930 . S
C1834 C1833 1.376 . S
C1834 C1835 1.388 . S
C1835 H1822 0.930 . S
C1835 C1834 1.388 . S
C1835 C1836 1.390 . S
C1836 C1835 1.390 . S
C1836 C1837 1.394 . S
C1836 C1842 1.465 . S
C1837 C1832 1.399 . S
C1837 C1836 1.394 . S
C1837 C1838 1.516 . S
C1838 C1837 1.516 . S
C1838 C1839 1.502 . S
C1838 C1840 1.561 . S
C1838 C1841 1.526 . S
C1839 H1823 0.959 . S
C1839 H1824 0.959 . S
C1839 H1825 0.961 . S
C1839 C1838 1.502 . S
C1840 H1826 0.960 . S
C1840 H1827 0.961 . S
C1840 H1828 0.959 . S
C1840 C1838 1.561 . S
C1841 C1838 1.526 . S
C1841 C1842 1.396 . S
C1841 C1846 1.390 . S
C1842 C1836 1.465 . S
C1842 C1841 1.396 . S
C1842 C1843 1.399 . S
C1843 H1829 0.929 . S
C1843 C1842 1.399 . S
C1843 C1844 1.385 . S
C1844 H1830 0.931 . S
C1844 C1843 1.385 . S
C1844 C1845 1.389 . S
C1845 C1844 1.389 . S
C1845 C1846 1.387 . S
C1846 H1831 0.930 . S
C1846 C1841 1.390 . S
C1846 C1845 1.387 . S
H1847 C1859 0.930 . S
H1848 C1861 0.930 1_455 S
H1849 C1862 0.930 . S
H1850 C1866 0.959 . S
H1851 C1866 0.959 . S
H1852 C1866 0.961 . S
H1853 C1867 0.960 1_455 S
H1854 C1867 0.961 . S
H1855 C1867 0.959 . S
H1856 C1870 0.929 . S
H1857 C1871 0.931 . S
H1858 C1873 0.930 . S
C1859 H1847 0.930 . S
C1859 C1860 1.399 . S
C1859 C1864 1.399 1_455 S
C1860 C1859 1.399 . S
C1860 C1861 1.376 1_455 S
C1861 H1848 0.930 1_655 S
C1861 C1860 1.376 1_655 S
C1861 C1862 1.388 . S
C1862 H1849 0.930 . S
C1862 C1861 1.388 . S
C1862 C1863 1.390 . S
C1863 C1862 1.390 . S
C1863 C1864 1.394 . S
C1863 C1869 1.465 . S
C1864 C1859 1.399 1_655 S
C1864 C1863 1.394 . S
C1864 C1865 1.516 . S
C1865 C1864 1.516 . S
C1865 C1866 1.502 . S
C1865 C1867 1.561 . S
C1865 C1868 1.526 . S
C1866 H1850 0.959 . S
C1866 H1851 0.959 . S
C1866 H1852 0.961 . S
C1866 C1865 1.502 . S
C1867 H1853 0.960 1_655 S
C1867 H1854 0.961 . S
C1867 H1855 0.959 . S
C1867 C1865 1.561 . S
C1868 C1865 1.526 . S
C1868 C1869 1.396 . S
C1868 C1873 1.390 . S
C1869 C1863 1.465 . S
C1869 C1868 1.396 . S
C1869 C1870 1.399 . S
C1870 H1856 0.929 . S
C1870 C1869 1.399 . S
C1870 C1871 1.385 . S
C1871 H1857 0.931 . S
C1871 C1870 1.385 . S
C1871 C1872 1.389 . S
C1872 C1871 1.389 . S
C1872 C1873 1.387 . S
C1873 H1858 0.930 . S
C1873 C1868 1.390 . S
C1873 C1872 1.387 . S
H1874 C1886 0.930 . S
H1875 C1888 0.930 . S
H1876 C1889 0.930 . S
H1877 C1893 0.959 . S
H1878 C1893 0.959 . S
H1879 C1893 0.961 . S
H1880 C1894 0.960 . S
H1881 C1894 0.961 . S
H1882 C1894 0.959 . S
H1883 C1897 0.929 . S
H1884 C1898 0.931 . S
H1885 C1900 0.930 . S
C1886 H1874 0.930 . S
C1886 C1887 1.399 . S
C1886 C1891 1.399 . S
C1887 C1886 1.399 . S
C1887 C1888 1.376 . S
C1888 H1875 0.930 . S
C1888 C1887 1.376 . S
C1888 C1889 1.388 . S
C1889 H1876 0.930 . S
C1889 C1888 1.388 . S
C1889 C1890 1.390 . S
C1890 C1889 1.390 . S
C1890 C1891 1.394 . S
C1890 C1896 1.465 . S
C1891 C1886 1.399 . S
C1891 C1890 1.394 . S
C1891 C1892 1.516 . S
C1892 C1891 1.516 . S
C1892 C1893 1.502 . S
C1892 C1894 1.561 . S
C1892 C1895 1.526 . S
C1893 H1877 0.959 . S
C1893 H1878 0.959 . S
C1893 H1879 0.961 . S
C1893 C1892 1.502 . S
C1894 H1880 0.960 . S
C1894 H1881 0.961 . S
C1894 H1882 0.959 . S
C1894 C1892 1.561 . S
C1895 C1892 1.526 . S
C1895 C1896 1.396 . S
C1895 C1900 1.390 . S
C1896 C1890 1.465 . S
C1896 C1895 1.396 . S
C1896 C1897 1.399 . S
C1897 H1883 0.929 . S
C1897 C1896 1.399 . S
C1897 C1898 1.385 . S
C1898 H1884 0.931 . S
C1898 C1897 1.385 . S
C1898 C1899 1.389 . S
C1899 C1898 1.389 . S
C1899 C1900 1.387 . S
C1900 H1885 0.930 . S
C1900 C1895 1.390 . S
C1900 C1899 1.387 . S
H1901 C1913 0.930 . S
H1902 C1915 0.930 . S
H1903 C1916 0.930 . S
H1904 C1920 0.959 . S
H1905 C1920 0.959 . S
H1906 C1920 0.961 . S
H1907 C1921 0.960 . S
H1908 C1921 0.961 . S
H1909 C1921 0.959 . S
H1910 C1924 0.929 . S
H1911 C1925 0.931 . S
H1912 C1927 0.930 . S
C1913 H1901 0.930 . S
C1913 C1914 1.399 . S
C1913 C1918 1.399 . S
C1914 C1913 1.399 . S
C1914 C1915 1.376 . S
C1915 H1902 0.930 . S
C1915 C1914 1.376 . S
C1915 C1916 1.388 . S
C1916 H1903 0.930 . S
C1916 C1915 1.388 . S
C1916 C1917 1.390 . S
C1917 C1916 1.390 . S
C1917 C1918 1.394 . S
C1917 C1923 1.465 . S
C1918 C1913 1.399 . S
C1918 C1917 1.394 . S
C1918 C1919 1.516 . S
C1919 C1918 1.516 . S
C1919 C1920 1.502 . S
C1919 C1921 1.561 . S
C1919 C1922 1.526 . S
C1920 H1904 0.959 . S
C1920 H1905 0.959 . S
C1920 H1906 0.961 . S
C1920 C1919 1.502 . S
C1921 H1907 0.960 . S
C1921 H1908 0.961 . S
C1921 H1909 0.959 . S
C1921 C1919 1.561 . S
C1922 C1919 1.526 . S
C1922 C1923 1.396 . S
C1922 C1927 1.390 . S
C1923 C1917 1.465 . S
C1923 C1922 1.396 . S
C1923 C1924 1.399 . S
C1924 H1910 0.929 . S
C1924 C1923 1.399 . S
C1924 C1925 1.385 . S
C1925 H1911 0.931 . S
C1925 C1924 1.385 . S
C1925 C1926 1.389 . S
C1926 C1925 1.389 . S
C1926 C1927 1.387 . S
C1927 H1912 0.930 . S
C1927 C1922 1.390 . S
C1927 C1926 1.387 . S
H1928 C1940 0.930 . S
H1929 C1942 0.930 . S
H1930 C1943 0.930 . S
H1931 C1947 0.959 . S
H1932 C1947 0.959 . S
H1933 C1947 0.961 . S
H1934 C1948 0.960 . S
H1935 C1948 0.961 . S
H1936 C1948 0.959 . S
H1937 C1951 0.929 . S
H1938 C1952 0.931 . S
H1939 C1954 0.930 . S
C1940 H1928 0.930 . S
C1940 C1941 1.399 . S
C1940 C1945 1.399 . S
C1941 C1940 1.399 . S
C1941 C1942 1.376 . S
C1942 H1929 0.930 . S
C1942 C1941 1.376 . S
C1942 C1943 1.388 . S
C1943 H1930 0.930 . S
C1943 C1942 1.388 . S
C1943 C1944 1.390 . S
C1944 C1943 1.390 . S
C1944 C1945 1.394 . S
C1944 C1950 1.465 . S
C1945 C1940 1.399 . S
C1945 C1944 1.394 . S
C1945 C1946 1.516 . S
C1946 C1945 1.516 . S
C1946 C1947 1.502 . S
C1946 C1948 1.561 . S
C1946 C1949 1.526 . S
C1947 H1931 0.959 . S
C1947 H1932 0.959 . S
C1947 H1933 0.961 . S
C1947 C1946 1.502 . S
C1948 H1934 0.960 . S
C1948 H1935 0.961 . S
C1948 H1936 0.959 . S
C1948 C1946 1.561 . S
C1949 C1946 1.526 . S
C1949 C1950 1.396 . S
C1949 C1954 1.390 . S
C1950 C1944 1.465 . S
C1950 C1949 1.396 . S
C1950 C1951 1.399 . S
C1951 H1937 0.929 . S
C1951 C1950 1.399 . S
C1951 C1952 1.385 . S
C1952 H1938 0.931 . S
C1952 C1951 1.385 . S
C1952 C1953 1.389 . S
C1953 C1952 1.389 . S
C1953 C1954 1.387 . S
C1954 H1939 0.930 . S
C1954 C1949 1.390 . S
C1954 C1953 1.387 . S
H1955 C1967 0.930 . S
H1956 C1969 0.930 . S
H1957 C1970 0.930 . S
H1958 C1974 0.959 . S
H1959 C1974 0.959 . S
H1960 C1974 0.961 . S
H1961 C1975 0.960 . S
H1962 C1975 0.961 . S
H1963 C1975 0.959 . S
H1964 C1978 0.929 . S
H1965 C1979 0.931 . S
H1966 C1981 0.930 . S
C1967 H1955 0.930 . S
C1967 C1968 1.399 . S
C1967 C1972 1.399 . S
C1968 C1967 1.399 . S
C1968 C1969 1.376 . S
C1969 H1956 0.930 . S
C1969 C1968 1.376 . S
C1969 C1970 1.388 . S
C1970 H1957 0.930 . S
C1970 C1969 1.388 . S
C1970 C1971 1.390 . S
C1971 C1970 1.390 . S
C1971 C1972 1.394 . S
C1971 C1977 1.465 . S
C1972 C1967 1.399 . S
C1972 C1971 1.394 . S
C1972 C1973 1.516 . S
C1973 C1972 1.516 . S
C1973 C1974 1.502 . S
C1973 C1975 1.561 . S
C1973 C1976 1.526 . S
C1974 H1958 0.959 . S
C1974 H1959 0.959 . S
C1974 H1960 0.961 . S
C1974 C1973 1.502 . S
C1975 H1961 0.960 . S
C1975 H1962 0.961 . S
C1975 H1963 0.959 . S
C1975 C1973 1.561 . S
C1976 C1973 1.526 . S
C1976 C1977 1.396 . S
C1976 C1981 1.390 . S
C1977 C1971 1.465 . S
C1977 C1976 1.396 . S
C1977 C1978 1.399 . S
C1978 H1964 0.929 . S
C1978 C1977 1.399 . S
C1978 C1979 1.385 . S
C1979 H1965 0.931 . S
C1979 C1978 1.385 . S
C1979 C1980 1.389 . S
C1980 C1979 1.389 . S
C1980 C1981 1.387 . S
C1981 H1966 0.930 . S
C1981 C1976 1.390 . S
C1981 C1980 1.387 . S
H1982 C1994 0.930 . S
H1983 C1996 0.930 . S
H1984 C1997 0.930 . S
H1985 C2001 0.959 . S
H1986 C2001 0.959 . S
H1987 C2001 0.961 . S
H1988 C2002 0.960 . S
H1989 C2002 0.961 . S
H1990 C2002 0.959 . S
H1991 C2005 0.929 . S
H1992 C2006 0.931 . S
H1993 C2008 0.930 . S
C1994 H1982 0.930 . S
C1994 C1995 1.399 . S
C1994 C1999 1.399 . S
C1995 C1994 1.399 . S
C1995 C1996 1.376 . S
C1996 H1983 0.930 . S
C1996 C1995 1.376 . S
C1996 C1997 1.388 . S
C1997 H1984 0.930 . S
C1997 C1996 1.388 . S
C1997 C1998 1.390 . S
C1998 C1997 1.390 . S
C1998 C1999 1.394 . S
C1998 C2004 1.465 . S
C1999 C1994 1.399 . S
C1999 C1998 1.394 . S
C1999 C2000 1.516 . S
C2000 C1999 1.516 . S
C2000 C2001 1.502 . S
C2000 C2002 1.561 . S
C2000 C2003 1.526 . S
C2001 H1985 0.959 . S
C2001 H1986 0.959 . S
C2001 H1987 0.961 . S
C2001 C2000 1.502 . S
C2002 H1988 0.960 . S
C2002 H1989 0.961 . S
C2002 H1990 0.959 . S
C2002 C2000 1.561 . S
C2003 C2000 1.526 . S
C2003 C2004 1.396 . S
C2003 C2008 1.390 . S
C2004 C1998 1.465 . S
C2004 C2003 1.396 . S
C2004 C2005 1.399 . S
C2005 H1991 0.929 . S
C2005 C2004 1.399 . S
C2005 C2006 1.385 . S
C2006 H1992 0.931 . S
C2006 C2005 1.385 . S
C2006 C2007 1.389 . S
C2007 C2006 1.389 . S
C2007 C2008 1.387 . S
C2008 H1993 0.930 . S
C2008 C2003 1.390 . S
C2008 C2007 1.387 . S
H2009 C2021 0.930 . S
H2010 C2023 0.930 1_655 S
H2011 C2024 0.930 . S
H2012 C2028 0.959 . S
H2013 C2028 0.959 . S
H2014 C2028 0.961 1_655 S
H2015 C2029 0.960 . S
H2016 C2029 0.961 . S
H2017 C2029 0.959 . S
H2018 C2032 0.929 . S
H2019 C2033 0.931 . S
H2020 C2035 0.930 . S
C2021 H2009 0.930 . S
C2021 C2022 1.399 . S
C2021 C2026 1.399 1_655 S
C2022 C2021 1.399 . S
C2022 C2023 1.376 1_655 S
C2023 H2010 0.930 1_455 S
C2023 C2022 1.376 1_455 S
C2023 C2024 1.388 . S
C2024 H2011 0.930 . S
C2024 C2023 1.388 . S
C2024 C2025 1.390 . S
C2025 C2024 1.390 . S
C2025 C2026 1.394 . S
C2025 C2031 1.465 . S
C2026 C2021 1.399 1_455 S
C2026 C2025 1.394 . S
C2026 C2027 1.516 . S
C2027 C2026 1.516 . S
C2027 C2028 1.502 . S
C2027 C2029 1.561 . S
C2027 C2030 1.526 . S
C2028 H2012 0.959 . S
C2028 H2013 0.959 . S
C2028 H2014 0.961 1_455 S
C2028 C2027 1.502 . S
C2029 H2015 0.960 . S
C2029 H2016 0.961 . S
C2029 H2017 0.959 . S
C2029 C2027 1.561 . S
C2030 C2027 1.526 . S
C2030 C2031 1.396 . S
C2030 C2035 1.390 . S
C2031 C2025 1.465 . S
C2031 C2030 1.396 . S
C2031 C2032 1.399 . S
C2032 H2018 0.929 . S
C2032 C2031 1.399 . S
C2032 C2033 1.385 . S
C2033 H2019 0.931 . S
C2033 C2032 1.385 . S
C2033 C2034 1.389 . S
C2034 C2033 1.389 . S
C2034 C2035 1.387 . S
C2035 H2020 0.930 . S
C2035 C2030 1.390 . S
C2035 C2034 1.387 . S
H2036 C2048 0.930 . S
H2037 C2050 0.930 . S
H2038 C2051 0.930 . S
H2039 C2055 0.959 . S
H2040 C2055 0.959 . S
H2041 C2055 0.961 . S
H2042 C2056 0.960 . S
H2043 C2056 0.961 . S
H2044 C2056 0.959 . S
H2045 C2059 0.929 . S
H2046 C2060 0.931 . S
H2047 C2062 0.930 . S
C2048 H2036 0.930 . S
C2048 C2049 1.399 . S
C2048 C2053 1.399 . S
C2049 C2048 1.399 . S
C2049 C2050 1.376 . S
C2050 H2037 0.930 . S
C2050 C2049 1.376 . S
C2050 C2051 1.388 . S
C2051 H2038 0.930 . S
C2051 C2050 1.388 . S
C2051 C2052 1.390 . S
C2052 C2051 1.390 . S
C2052 C2053 1.394 . S
C2052 C2058 1.465 . S
C2053 C2048 1.399 . S
C2053 C2052 1.394 . S
C2053 C2054 1.516 . S
C2054 C2053 1.516 . S
C2054 C2055 1.502 . S
C2054 C2056 1.561 . S
C2054 C2057 1.526 . S
C2055 H2039 0.959 . S
C2055 H2040 0.959 . S
C2055 H2041 0.961 . S
C2055 C2054 1.502 . S
C2056 H2042 0.960 . S
C2056 H2043 0.961 . S
C2056 H2044 0.959 . S
C2056 C2054 1.561 . S
C2057 C2054 1.526 . S
C2057 C2058 1.396 . S
C2057 C2062 1.390 . S
C2058 C2052 1.465 . S
C2058 C2057 1.396 . S
C2058 C2059 1.399 . S
C2059 H2045 0.929 . S
C2059 C2058 1.399 . S
C2059 C2060 1.385 . S
C2060 H2046 0.931 . S
C2060 C2059 1.385 . S
C2060 C2061 1.389 . S
C2061 C2060 1.389 . S
C2061 C2062 1.387 . S
C2062 H2047 0.930 . S
C2062 C2057 1.390 . S
C2062 C2061 1.387 . S
H2063 C2075 0.930 . S
H2064 C2077 0.930 . S
H2065 C2078 0.930 . S
H2066 C2082 0.959 . S
H2067 C2082 0.959 1_655 S
H2068 C2082 0.961 . S
H2069 C2083 0.960 . S
H2070 C2083 0.961 . S
H2071 C2083 0.959 . S
H2072 C2086 0.929 . S
H2073 C2087 0.931 . S
H2074 C2089 0.930 . S
C2075 H2063 0.930 . S
C2075 C2076 1.399 . S
C2075 C2080 1.399 . S
C2076 C2075 1.399 . S
C2076 C2077 1.376 . S
C2077 H2064 0.930 . S
C2077 C2076 1.376 . S
C2077 C2078 1.388 . S
C2078 H2065 0.930 . S
C2078 C2077 1.388 . S
C2078 C2079 1.390 . S
C2079 C2078 1.390 . S
C2079 C2080 1.394 . S
C2079 C2085 1.465 . S
C2080 C2075 1.399 . S
C2080 C2079 1.394 . S
C2080 C2081 1.516 . S
C2081 C2080 1.516 . S
C2081 C2082 1.502 . S
C2081 C2083 1.561 . S
C2081 C2084 1.526 . S
C2082 H2066 0.959 . S
C2082 H2067 0.959 1_455 S
C2082 H2068 0.961 . S
C2082 C2081 1.502 . S
C2083 H2069 0.960 . S
C2083 H2070 0.961 . S
C2083 H2071 0.959 . S
C2083 C2081 1.561 . S
C2084 C2081 1.526 . S
C2084 C2085 1.396 . S
C2084 C2089 1.390 1_455 S
C2085 C2079 1.465 . S
C2085 C2084 1.396 . S
C2085 C2086 1.399 . S
C2086 H2072 0.929 . S
C2086 C2085 1.399 . S
C2086 C2087 1.385 . S
C2087 H2073 0.931 . S
C2087 C2086 1.385 . S
C2087 C2088 1.389 1_455 S
C2088 C2087 1.389 1_655 S
C2088 C2089 1.387 . S
C2089 H2074 0.930 . S
C2089 C2084 1.390 1_655 S
C2089 C2088 1.387 . S
H2090 C2102 0.930 . S
H2091 C2104 0.930 . S
H2092 C2105 0.930 . S
H2093 C2109 0.959 . S
H2094 C2109 0.959 . S
H2095 C2109 0.961 . S
H2096 C2110 0.960 . S
H2097 C2110 0.961 . S
H2098 C2110 0.959 . S
H2099 C2113 0.929 . S
H2100 C2114 0.931 . S
H2101 C2116 0.930 . S
C2102 H2090 0.930 . S
C2102 C2103 1.399 . S
C2102 C2107 1.399 . S
C2103 C2102 1.399 . S
C2103 C2104 1.376 . S
C2104 H2091 0.930 . S
C2104 C2103 1.376 . S
C2104 C2105 1.388 . S
C2105 H2092 0.930 . S
C2105 C2104 1.388 . S
C2105 C2106 1.390 . S
C2106 C2105 1.390 . S
C2106 C2107 1.394 . S
C2106 C2112 1.465 . S
C2107 C2102 1.399 . S
C2107 C2106 1.394 . S
C2107 C2108 1.516 . S
C2108 C2107 1.516 . S
C2108 C2109 1.502 . S
C2108 C2110 1.561 . S
C2108 C2111 1.526 . S
C2109 H2093 0.959 . S
C2109 H2094 0.959 . S
C2109 H2095 0.961 . S
C2109 C2108 1.502 . S
C2110 H2096 0.960 . S
C2110 H2097 0.961 . S
C2110 H2098 0.959 . S
C2110 C2108 1.561 . S
C2111 C2108 1.526 . S
C2111 C2112 1.396 . S
C2111 C2116 1.390 . S
C2112 C2106 1.465 . S
C2112 C2111 1.396 . S
C2112 C2113 1.399 . S
C2113 H2099 0.929 . S
C2113 C2112 1.399 . S
C2113 C2114 1.385 . S
C2114 H2100 0.931 . S
C2114 C2113 1.385 . S
C2114 C2115 1.389 . S
C2115 C2114 1.389 . S
C2115 C2116 1.387 . S
C2116 H2101 0.930 . S
C2116 C2111 1.390 . S
C2116 C2115 1.387 . S
H2117 C2129 0.930 . S
H2118 C2131 0.930 . S
H2119 C2132 0.930 . S
H2120 C2136 0.959 . S
H2121 C2136 0.959 . S
H2122 C2136 0.961 . S
H2123 C2137 0.960 . S
H2124 C2137 0.961 . S
H2125 C2137 0.959 . S
H2126 C2140 0.929 . S
H2127 C2141 0.931 . S
H2128 C2143 0.930 . S
C2129 H2117 0.930 . S
C2129 C2130 1.399 . S
C2129 C2134 1.399 . S
C2130 C2129 1.399 . S
C2130 C2131 1.376 . S
C2131 H2118 0.930 . S
C2131 C2130 1.376 . S
C2131 C2132 1.388 . S
C2132 H2119 0.930 . S
C2132 C2131 1.388 . S
C2132 C2133 1.390 . S
C2133 C2132 1.390 . S
C2133 C2134 1.394 . S
C2133 C2139 1.465 . S
C2134 C2129 1.399 . S
C2134 C2133 1.394 . S
C2134 C2135 1.516 . S
C2135 C2134 1.516 . S
C2135 C2136 1.502 . S
C2135 C2137 1.561 . S
C2135 C2138 1.526 . S
C2136 H2120 0.959 . S
C2136 H2121 0.959 . S
C2136 H2122 0.961 . S
C2136 C2135 1.502 . S
C2137 H2123 0.960 . S
C2137 H2124 0.961 . S
C2137 H2125 0.959 . S
C2137 C2135 1.561 . S
C2138 C2135 1.526 . S
C2138 C2139 1.396 . S
C2138 C2143 1.390 . S
C2139 C2133 1.465 . S
C2139 C2138 1.396 . S
C2139 C2140 1.399 . S
C2140 H2126 0.929 . S
C2140 C2139 1.399 . S
C2140 C2141 1.385 . S
C2141 H2127 0.931 . S
C2141 C2140 1.385 . S
C2141 C2142 1.389 . S
C2142 C2141 1.389 . S
C2142 C2143 1.387 . S
C2143 H2128 0.930 . S
C2143 C2138 1.390 . S
C2143 C2142 1.387 . S
C429 C52 1.474 . S
C441 C0 1.473 . S
C456 C65 1.475 . S
C468 C13 1.475 . S
C483 C78 1.474 . S
C495 C26 1.474 . S
C510 C39 1.467 . S
C522 C91 1.468 . S
C537 C104 1.427 . S
C549 C156 1.439 . S
C564 C169 1.439 . S
C576 C117 1.429 . S
C591 C130 1.434 . S
C603 C182 1.448 . S
C618 C195 1.436 . S
C630 C143 1.451 . S
C645 C208 1.435 . S
C657 C260 1.437 . S
C672 C273 1.433 . S
C684 C221 1.433 . S
C699 C286 1.445 . S
C711 C234 1.446 . S
C726 C299 1.478 . S
C738 C247 1.477 . S
C753 C312 1.478 . S
C765 C364 1.468 . S
C780 C325 1.467 . S
C792 C377 1.477 . S
C807 C338 1.474 . S
C819 C390 1.461 . S
C834 C351 1.459 . S
C846 C403 1.472 . S
C861 C8 0.905 1_565 S
C873 C99 0.880 . S
C888 C21 0.818 . S
C900 C60 0.843 1_545 S
C915 C34 0.920 1_545 S
C927 C73 0.911 . S
C942 C86 0.815 1_565 S
C954 C47 0.838 . S
C969 C203 0.826 . S
C981 C112 0.830 1_545 S
C996 C164 0.866 1_565 S
C1008 C125 0.870 . S
C1023 C177 0.815 . S
C1035 C138 0.818 1_565 S
C1050 C151 0.877 . S
C1062 C190 0.880 1_545 S
C1077 C307 0.845 . S
C1089 C216 0.876 . S
C1104 C268 0.810 . S
C1116 C229 0.830 . S
C1131 C281 0.893 . S
C1143 C242 0.863 . S
C1158 C255 0.820 . S
C1170 C294 0.809 . S
C1185 C320 0.816 . S
C1197 C411 0.820 . S
C1212 C333 0.854 . S
C1224 C372 0.850 . S
C1239 C346 0.884 . S
C1251 C385 0.880 . S
C1266 C398 0.917 . S
C1278 C359 0.915 . S
C1293 C5 1.436 . S
C1305 C335 1.425 . S
C1320 C18 1.403 . S
C1332 C140 1.420 . S
C1347 C31 1.367 . S
C1359 C361 1.437 . S
C1374 C114 1.435 . S
C1386 C44 1.425 . S
C1401 C413 1.417 . S
C1413 C57 1.428 . S
C1428 C70 1.375 . S
C1440 C166 1.431 . S
C1455 C83 1.436 . S
C1467 C387 1.424 . S
C1482 C96 1.386 . S
C1494 C192 1.449 . S
C1509 C231 1.428 . S
C1521 C109 1.367 . S
C1536 C36 1.437 . S
C1548 C122 1.434 . S
C1563 C257 1.439 . S
C1575 C135 1.366 . S
C1590 C148 1.403 . S
C1602 C10 1.417 . S
C1617 C309 1.439 . S
C1629 C161 1.366 . S
C1644 C62 1.440 . S
C1656 C174 1.367 . S
C1671 C283 1.426 . S
C1683 C187 1.369 . S
C1698 C88 1.436 . S
C1710 C200 1.435 . S
C1725 C127 1.450 . S
C1737 C213 1.380 . S
C1752 C226 1.429 . S
C1764 C348 1.434 . S
C1779 C239 1.366 . S
C1791 C153 1.438 . S
C1806 C252 1.426 . S
C1818 C322 1.435 . S
C1833 C265 1.370 . S
C1845 C205 1.449 . S
C1860 C374 1.439 . S
C1872 C278 1.420 . S
C1887 C291 1.435 . S
C1899 C179 1.427 . S
C1914 C304 1.378 . S
C1926 C400 1.450 . S
C1941 C317 1.399 . S
C1953 C23 1.450 . S
C1968 C330 1.421 . S
C1980 C244 1.420 . S
C1995 C49 1.436 . S
C2007 C343 1.364 . S
C2022 C218 1.449 . S
C2034 C356 1.408 . S
C2049 C369 1.387 . S
C2061 C101 1.449 . S
C2076 C382 1.409 . S
C2088 C270 1.449 . S
C2103 C75 1.446 . S
C2115 C395 1.423 . S
C2130 C296 1.450 . S
C2142 C408 1.406 . S
