# Generated by pormake.
# Topology sxb, (6)-cn, num edge types: 1
# Building blocks:
#     Node 0, Type 0, BuildingBlock: LEVNOQ01_clean_sbu_1, # of connection points: 6
#     Node 1, Type 0, BuildingBlock: LEVNOQ01_clean_sbu_1, # of connection points: 6
#     Node 2, Type 0, BuildingBlock: LEVNOQ01_clean_sbu_1, # of connection points: 6
#     Node 3, Type 0, BuildingBlock: LEVNOQ01_clean_sbu_1, # of connection points: 6
#     Edge 4, Type (0, 0), BuildingBlock: ZUJKAS_clean_linker_0, # of connection points: 2
#     Edge 5, Type (0, 0), BuildingBlock: ZUJKAS_clean_linker_0, # of connection points: 2
#     Edge 6, Type (0, 0), BuildingBlock: ZUJKAS_clean_linker_0, # of connection points: 2
#     Edge 7, Type (0, 0), BuildingBlock: ZUJKAS_clean_linker_0, # of connection points: 2
#     Edge 8, Type (0, 0), BuildingBlock: ZUJKAS_clean_linker_0, # of connection points: 2
#     Edge 9, Type (0, 0), BuildingBlock: ZUJKAS_clean_linker_0, # of connection points: 2
#     Edge 10, Type (0, 0), BuildingBlock: ZUJKAS_clean_linker_0, # of connection points: 2
#     Edge 11, Type (0, 0), BuildingBlock: ZUJKAS_clean_linker_0, # of connection points: 2
#     Edge 12, Type (0, 0), BuildingBlock: ZUJKAS_clean_linker_0, # of connection points: 2
#     Edge 13, Type (0, 0), BuildingBlock: ZUJKAS_clean_linker_0, # of connection points: 2
#     Edge 14, Type (0, 0), BuildingBlock: ZUJKAS_clean_linker_0, # of connection points: 2
#     Edge 15, Type (0, 0), BuildingBlock: ZUJKAS_clean_linker_0, # of connection points: 2
# Relax obj value: 0.084
# Max RMSD: 0.127
# Mean RMSD: 0.127
data_MOF--net-sxb--node1-LEVNOQ01_clean_sbu_1--edge1-ZUJKAS_clean_linker_0
_symmetry_space_group_name_H-M    P1
_symmetry_Int_Tables_number       1
_symmetry_cell_setting            triclinic
loop_
_symmetry_equiv_pos_as_xyz
'x, y, z'
_cell_length_a     19.174112
_cell_length_b     36.245162
_cell_length_c     40.085004
_cell_angle_alpha  89.798042
_cell_angle_beta   104.18783
_cell_angle_gamma 90.221719
loop_
_atom_site_label
_atom_site_type_symbol
_atom_site_fract_x
_atom_site_fract_y
_atom_site_fract_z
_atom_type_partial_charge
O0 O 0.82717 0.95312 0.98174 0.0
Mg1 Mg 0.85534 0.99371 0.94938 0.0
O2 O 0.90217 0.97966 0.02559 0.0
Mg3 Mg 0.00432 0.00011 0.00786 0.0
O4 O 0.96052 0.98842 0.95157 0.0
O5 O 0.87849 0.97977 0.90287 0.0
O6 O 0.10284 0.0217 0.98569 0.0
O7 O 0.05121 0.94133 0.01236 0.0
Mg8 Mg 0.1253 0.01193 0.04526 0.0
O9 O 0.04304 0.00923 0.06892 0.0
O10 O 0.14415 0.06337 0.02396 0.0
O11 O 0.16202 0.96223 0.02611 0.0
O12 O 0.16059 0.01091 0.09652 0.0
C13 C 0.89433 0.07113 0.98303 0.0
C14 C 0.84541 0.96062 0.01352 0.0
C15 C 0.94528 0.98198 0.91905 0.0
C16 C 0.14541 0.04882 0.99562 0.0
C17 C 0.11829 0.93584 0.01643 0.0
C18 C 0.09383 0.00946 0.09732 0.0
O19 O 0.84879 0.0507 0.96262 0.0
O20 O 0.95387 0.05842 0.0012 0.0
O21 O 0.82529 0.94747 0.45545 0.0
Mg22 Mg 0.82969 0.00537 0.44506 0.0
O23 O 0.9268 0.94566 0.49677 0.0
Mg24 Mg 0.97634 0.00434 0.50323 0.0
O25 O 0.93298 0.01823 0.44608 0.0
O26 O 0.84438 0.02439 0.39883 0.0
O27 O 0.02781 0.06204 0.51088 0.0
O28 O 0.07614 0.9862 0.48198 0.0
Mg29 Mg 0.10628 0.98852 0.54586 0.0
O30 O 0.01505 0.99045 0.56255 0.0
O31 O 0.13826 0.04369 0.53648 0.0
O32 O 0.12165 0.94213 0.5166 0.0
O33 O 0.12397 0.97539 0.59591 0.0
C34 C 0.81549 0.04096 0.50881 0.0
C35 C 0.87111 0.92988 0.47821 0.0
C36 C 0.91205 0.02631 0.41367 0.0
C37 C 0.09429 0.06913 0.52344 0.0
C38 C 0.12072 0.95972 0.48943 0.0
C39 C 0.05626 0.98135 0.59231 0.0
O40 O 0.79083 0.04217 0.47651 0.0
O41 O 0.87572 0.02542 0.52199 0.0
O42 O 0.32036 0.4804 0.95665 0.0
Mg43 Mg 0.37795 0.52049 0.93538 0.0
O44 O 0.40484 0.47226 0.00503 0.0
Mg45 Mg 0.50932 0.50198 0.00204 0.0
O46 O 0.48002 0.50139 0.94393 0.0
O47 O 0.41229 0.5097 0.89122 0.0
O48 O 0.61295 0.53281 -0.00026 0.0
O49 O 0.56155 0.44484 0.99014 0.0
Mg50 Mg 0.5911 0.46897 0.0468 0.0
O51 O 0.5308 0.50598 0.06443 0.0
O52 O 0.67993 0.48894 0.02915 0.0
O53 O 0.55134 0.41511 0.03541 0.0
O54 O 0.62 0.47277 0.09802 0.0
C55 C 0.41418 0.58191 0.98739 0.0
C56 C 0.34159 0.46637 0.98653 0.0
C57 C 0.47184 0.4985 0.91116 0.0
C58 C 0.67416 0.5184 0.0117 0.0
C59 C 0.56401 0.41437 0.00613 0.0
C60 C 0.56887 0.49644 0.09488 0.0
O61 O 0.38075 0.57386 0.95687 0.0
O62 O 0.45729 0.55936 0.00655 0.0
O63 O 0.39633 0.42644 0.45265 0.0
Mg64 Mg 0.37996 0.48295 0.45514 0.0
O65 O 0.44706 0.43936 0.50637 0.0
Mg66 Mg 0.49538 0.50013 0.50835 0.0
O67 O 0.46113 0.51657 0.44895 0.0
O68 O 0.35777 0.50709 0.4087 0.0
O69 O 0.54865 0.55817 0.51472 0.0
O70 O 0.59502 0.47748 0.49199 0.0
Mg71 Mg 0.63849 0.49633 0.56669 0.0
O72 O 0.53355 0.487 0.56617 0.0
O73 O 0.64838 0.55385 0.55698 0.0
O74 O 0.67868 0.45816 0.53638 0.0
O75 O 0.62283 0.48002 0.61327 0.0
C76 C 0.32925 0.51928 0.51073 0.0
C77 C 0.41791 0.41591 0.48342 0.0
C78 C 0.42162 0.52101 0.41769 0.0
C79 C 0.60493 0.57262 0.5342 0.0
C80 C 0.65497 0.46156 0.50416 0.0
C81 C 0.55493 0.4796 0.59873 0.0
O82 O 0.30866 0.50065 0.48356 0.0
O83 O 0.39575 0.52523 0.52377 0.0
H84 H 0.48264 0.64718 0.98558 0.0
H85 H 0.4376 0.70834 0.99599 0.0
H86 H 0.25949 0.657 0.02673 0.0
H87 H 0.30572 0.59609 0.01717 0.0
H88 H 0.31138 0.7328 0.95873 0.0
H89 H 0.30748 0.73828 0.09634 0.0
H90 H 0.35793 0.70392 0.07975 0.0
H91 H 0.26272 0.69815 0.07517 0.0
C92 C 0.43554 0.64916 0.99587 0.0
C93 C 0.3979 0.61734 0.00109 0.0
C94 C 0.40957 0.68396 0.0016 0.0
C95 C 0.3454 0.68729 0.01239 0.0
C96 C 0.30989 0.65522 0.01922 0.0
H97 H 0.0493 0.86911 0.0131 0.0
H98 H 0.10095 0.80788 0.00907 0.0
C99 C 0.33611 0.62046 0.01366 0.0
C100 C 0.31055 0.72383 0.01184 0.0
H101 H 0.23632 0.78321 0.05934 0.0
C102 C 0.29569 0.74396 0.98088 0.0
C103 C 0.28907 0.73815 0.04057 0.0
C104 C 0.30573 0.71865 0.07491 0.0
C105 C 0.25971 0.77787 0.9778 0.0
C106 C 0.2383 0.79207 0.00647 0.0
C107 C 0.2525 0.77196 0.03735 0.0
C108 C 0.20478 0.8288 0.00563 0.0
C109 C 0.24408 0.79811 0.94384 0.0
C110 C 0.24601 0.86059 0.00465 0.0
C111 C 0.2171 0.8954 0.00732 0.0
C112 C 0.14624 0.89903 0.01088 0.0
C113 C 0.10407 0.86715 0.0105 0.0
C114 C 0.13343 0.83223 0.00823 0.0
H115 H 0.25016 0.77997 0.92245 0.0
H116 H 0.18868 0.80949 0.93757 0.0
H117 H 0.2822 0.82156 0.94565 0.0
H118 H 0.30131 0.85841 0.00285 0.0
H119 H 0.2507 0.91947 0.00714 0.0
H120 H 0.54721 0.37053 0.94838 0.0
H121 H 0.62262 0.31687 0.9424 0.0
H122 H 0.76242 0.3404 0.04197 0.0
H123 H 0.68718 0.3927 0.04833 0.0
H124 H 0.78853 0.30724 0.95325 0.0
H125 H 0.66664 0.23661 0.04906 0.0
H126 H 0.62558 0.27624 0.02466 0.0
H127 H 0.70273 0.28203 0.06013 0.0
C128 C 0.59437 0.36418 0.9687 0.0
C129 C 0.61043 0.38467 -0.00072 0.0
C130 C 0.63753 0.33389 0.96522 0.0
C131 C 0.69726 0.32453 0.99207 0.0
C132 C 0.71602 0.34691 0.02126 0.0
H133 H 0.94555 0.11946 0.03608 0.0
H134 H 0.90944 0.18412 0.03958 0.0
C135 C 0.67274 0.37651 0.02494 0.0
C136 C 0.73535 0.28921 0.99194 0.0
H137 H 0.75707 0.20463 0.03075 0.0
C138 C 0.78165 0.28474 0.97007 0.0
C139 C 0.72723 0.26029 0.0145 0.0
C140 C 0.67757 0.26372 0.03832 0.0
C141 C 0.81931 0.25157 0.96986 0.0
C142 C 0.80928 0.2223 0.99165 0.0
C143 C 0.76469 0.22725 0.01419 0.0
C144 C 0.83755 0.18493 0.98869 0.0
C145 C 0.86954 0.24788 0.94642 0.0
C146 C 0.80859 0.16421 0.95911 0.0
C147 C 0.82797 0.12741 0.95728 0.0
C148 C 0.87723 0.11065 0.98495 0.0
C149 C 0.90776 0.13173 0.01432 0.0
C150 C 0.88734 0.16857 0.01634 0.0
H151 H 0.88561 0.27524 0.93813 0.0
H152 H 0.91872 0.23243 0.95938 0.0
H153 H 0.84209 0.23225 0.92311 0.0
H154 H 0.76915 0.1762 0.93779 0.0
H155 H 0.8038 0.11197 0.93423 0.0
H156 H 0.05835 0.12096 0.4725 0.0
H157 H 0.11324 0.18227 0.47153 0.0
H158 H 0.24237 0.1646 0.57471 0.0
H159 H 0.19048 0.10289 0.57504 0.0
H160 H 0.12443 0.24496 0.51172 0.0
H161 H 0.39411 0.1835 0.52256 0.0
H162 H 0.31291 0.15617 0.51354 0.0
H163 H 0.35382 0.17064 0.55684 0.0
C164 C 0.09815 0.13041 0.49497 0.0
C165 C 0.12123 0.10721 0.52364 0.0
C166 C 0.12933 0.16535 0.49445 0.0
C167 C 0.1831 0.17762 0.52278 0.0
C168 C 0.20265 0.15524 0.5522 0.0
H169 H 0.41443 0.39031 0.54762 0.0
H170 H 0.35687 0.33317 0.56079 0.0
C171 C 0.17287 0.1201 0.55241 0.0
C172 C 0.22163 0.21282 0.52095 0.0
H173 H 0.38843 0.24846 0.52415 0.0
C174 C 0.18216 0.24576 0.51461 0.0
C175 C 0.29701 0.21376 0.5245 0.0
C176 C 0.34194 0.17912 0.52941 0.0
C177 C 0.21625 0.27957 0.51161 0.0
C178 C 0.29137 0.28029 0.51517 0.0
C179 C 0.33093 0.24762 0.52197 0.0
C180 C 0.3287 0.314 0.50815 0.0
C181 C 0.17201 0.31427 0.50385 0.0
C182 C 0.33376 0.32115 0.4745 0.0
C183 C 0.36692 0.35333 0.46695 0.0
C184 C 0.39562 0.37902 0.49296 0.0
C185 C 0.39327 0.37096 0.52706 0.0
C186 C 0.35984 0.33861 0.53458 0.0
H187 H 0.11475 0.3095 0.50388 0.0
H188 H 0.19471 0.33581 0.52314 0.0
H189 H 0.1745 0.32508 0.47821 0.0
H190 H 0.31066 0.30213 0.45392 0.0
H191 H 0.36793 0.35863 0.44046 0.0
H192 H 0.86752 0.90141 0.54031 0.0
H193 H 0.82376 0.84006 0.55209 0.0
H194 H 0.79378 0.81107 0.44527 0.0
H195 H 0.8352 0.8729 0.43315 0.0
H196 H 0.66934 0.81013 0.50133 0.0
H197 H 0.9185 0.72573 0.52004 0.0
H198 H 0.92144 0.77416 0.53095 0.0
H199 H 0.90051 0.76051 0.48669 0.0
C200 C 0.85285 0.88162 0.51954 0.0
C201 C 0.85482 0.89155 0.48587 0.0
C202 C 0.82765 0.8468 0.52625 0.0
C203 C 0.80574 0.82125 0.49952 0.0
C204 C 0.81047 0.83058 0.46615 0.0
H205 H 0.60075 0.60728 0.47357 0.0
H206 H 0.64557 0.66954 0.46561 0.0
C207 C 0.83411 0.8657 0.45928 0.0
C208 C 0.77343 0.78569 0.5059 0.0
H209 H 0.81056 0.69417 0.52017 0.0
C210 C 0.70008 0.78475 0.50556 0.0
C211 C 0.81404 0.75288 0.51148 0.0
C212 C 0.89315 0.75301 0.51249 0.0
C213 C 0.66594 0.75144 0.51017 0.0
C214 C 0.70639 0.71857 0.51532 0.0
C215 C 0.7799 0.71958 0.51608 0.0
C216 C 0.67331 0.68267 0.51986 0.0
C217 C 0.58693 0.75127 0.50938 0.0
C218 C 0.67375 0.66991 0.55295 0.0
C219 C 0.64928 0.63433 0.55757 0.0
C220 C 0.62295 0.61137 0.52908 0.0
C221 C 0.6199 0.62476 0.49584 0.0
C222 C 0.64563 0.66011 0.49129 0.0
H223 H 0.56242 0.77907 0.50403 0.0
H224 H 0.5579 0.73184 0.48934 0.0
H225 H 0.57944 0.74135 0.53451 0.0
H226 H 0.69485 0.6871 0.57523 0.0
H227 H 0.65185 0.62453 0.58341 0.0
H228 H 0.25139 0.10095 0.01326 0.0
H229 H 0.37872 0.08943 0.01763 0.0
H230 H 0.32361 0.98861 0.96026 0.0
H231 H 0.19658 0.00018 0.95526 0.0
H232 H 0.43566 0.02911 0.05497 0.0
H233 H 0.49507 0.02336 0.92701 0.0
H234 H 0.41513 0.04516 0.93373 0.0
H235 H 0.41784 0.99589 0.92836 0.0
C236 C 0.26612 0.0772 0.00017 0.0
C237 C 0.21391 0.05095 0.98478 0.0
C238 C 0.33908 0.07051 0.00295 0.0
C239 C 0.36085 0.0378 0.9899 0.0
C240 C 0.30826 0.01412 0.97046 0.0
H241 H 0.73762 0.90993 0.00677 0.0
H242 H 0.61661 0.92554 0.01128 0.0
C243 C 0.23526 0.02085 0.96757 0.0
C244 C 0.43667 0.0253 0.00139 0.0
H245 H 0.57589 0.99055 0.97247 0.0
C246 C 0.46677 0.02107 0.03695 0.0
C247 C 0.47709 0.0147 0.97794 0.0
C248 C 0.44985 0.02037 0.93966 0.0
C249 C 0.53517 0.00537 0.04957 0.0
C250 C 0.57439 0.99369 0.02598 0.0
C251 C 0.54499 -0.00124 0.99054 0.0
C252 C 0.64763 0.97772 0.0367 0.0
C253 C 0.56415 0.00065 0.08784 0.0
C254 C 0.70614 0.00011 0.05263 0.0
C255 C 0.77582 0.99091 0.05055 0.0
C256 C 0.78709 0.95967 0.03179 0.0
C257 C 0.73032 0.9344 0.02097 0.0
C258 C 0.66097 0.94342 0.02336 0.0
H259 H 0.52092 0.00261 0.10183 0.0
H260 H 0.59163 0.97365 0.09384 0.0
H261 H 0.60415 0.02273 0.09755 0.0
H262 H 0.69719 0.02671 0.06307 0.0
H263 H 0.81851 0.01088 0.05933 0.0
H264 H 0.16534 0.01427 0.45159 0.0
H265 H 0.29094 0.03122 0.4572 0.0
H266 H 0.35867 0.92871 0.50979 0.0
H267 H 0.23322 0.9114 0.5043 0.0
H268 H 0.40032 0.99554 0.54991 0.0
H269 H 0.47186 0.00015 0.42365 0.0
H270 H 0.3865 0.02003 0.4245 0.0
H271 H 0.40021 0.97134 0.43132 0.0
C272 C 0.20662 0.99448 0.46293 0.0
C273 C 0.18924 0.96198 0.47855 0.0
C274 C 0.27864 0.00434 0.46624 0.0
C275 C 0.33397 0.98159 0.48466 0.0
C276 C 0.31661 0.94688 0.49594 0.0
H277 H 0.78334 0.99669 0.55784 0.0
H278 H 0.65979 0.98922 0.56285 0.0
C279 C 0.24475 0.93693 0.49255 0.0
C280 C 0.40786 0.99641 0.49712 0.0
H281 H 0.5534 0.02756 0.47076 0.0
C282 C 0.43408 0.00247 0.53266 0.0
C283 C 0.45116 0.00574 0.47454 0.0
C284 C 0.42653 -0.0012 0.43638 0.0
C285 C 0.50265 0.01774 0.5462 0.0
C286 C 0.54603 0.02692 0.52358 0.0
C287 C 0.51951 0.02102 0.48805 0.0
C288 C 0.62153 0.0397 0.53559 0.0
C289 C 0.5279 0.02424 0.58439 0.0
C290 C 0.64246 0.07235 0.52177 0.0
C291 C 0.71306 0.07655 0.51877 0.0
C292 C 0.76314 0.04808 0.52947 0.0
C293 C 0.74568 0.01901 0.54927 0.0
C294 C 0.6747 0.01461 0.55202 0.0
H295 H 0.48231 0.02437 0.59698 0.0
H296 H 0.56528 0.00183 0.59614 0.0
H297 H 0.55738 0.05085 0.58971 0.0
H298 H 0.60237 0.09223 0.50928 0.0
H299 H 0.72548 0.0994 0.50367 0.0
H300 H 0.73438 0.50493 0.95914 0.0
H301 H 0.86367 0.50804 0.96402 0.0
H302 H 0.89275 0.56948 0.05849 0.0
H303 H 0.76294 0.56563 0.05386 0.0
H304 H 0.98397 0.55692 0.97724 0.0
H305 H 0.97618 0.4675 0.0901 0.0
H306 H 0.8946 0.48196 0.06003 0.0
H307 H 0.94644 0.51448 0.08986 0.0
C308 C 0.76796 0.52083 0.97986 0.0
C309 C 0.7397 0.53496 0.00618 0.0
C310 C 0.84179 0.52247 0.98279 0.0
C311 C 0.88766 0.53798 0.01219 0.0
C312 C 0.85814 0.55675 0.036 0.0
H313 H 0.33764 0.47713 0.05301 0.0
H314 H 0.22554 0.49092 0.06867 0.0
C315 C 0.78416 0.55492 0.03315 0.0
C316 C 0.96414 0.52733 0.02062 0.0
H317 H 0.07714 0.46277 0.06739 0.0
C318 C 0.00511 0.53703 0.99744 0.0
C319 C -0.00834 0.50149 0.04724 0.0
C320 C 0.95015 0.4905 0.07325 0.0
C321 C 0.07073 0.51971 0.99866 0.0
C322 C 0.09465 0.49131 0.02309 0.0
C323 C 0.05706 0.48378 0.04814 0.0
C324 C 0.15783 0.46897 0.02167 0.0
C325 C 0.11269 0.53101 0.9729 0.0
C326 C 0.15622 0.44821 0.99201 0.0
C327 C 0.22012 0.44081 0.98268 0.0
C328 C 0.28561 0.45378 0.00328 0.0
C329 C 0.28768 0.46733 0.03637 0.0
C330 C 0.22357 0.47546 0.04536 0.0
H331 H 0.09762 0.55908 0.96246 0.0
H332 H 0.1715 0.53051 0.98465 0.0
H333 H 0.10089 0.51138 0.95103 0.0
H334 H 0.1055 0.44226 0.97386 0.0
H335 H 0.21734 0.42972 0.95731 0.0
H336 H 0.26059 0.5844 0.49757 0.0
H337 H 0.13263 0.59085 0.49568 0.0
H338 H 0.13992 0.48876 0.55213 0.0
H339 H 0.26715 0.48268 0.55417 0.0
H340 H 0.05339 0.53744 0.45765 0.0
H341 H 0.98266 0.54265 0.58232 0.0
H342 H 0.07069 0.55617 0.57776 0.0
H343 H 0.05076 0.50842 0.58458 0.0
C344 C 0.23579 0.56486 0.51169 0.0
C345 C 0.2732 0.53321 0.5262 0.0
C346 C 0.16255 0.56831 0.51025 0.0
C347 C 0.12656 0.54016 0.52349 0.0
C348 C 0.1666 0.51118 0.54222 0.0
H349 H 0.76791 0.41436 0.51026 0.0
H350 H 0.88358 0.4349 0.50176 0.0
C351 C 0.23963 0.50776 0.54359 0.0
C352 C 0.04786 0.53543 0.51079 0.0
H353 H 0.90278 0.50513 0.53781 0.0
C354 C 0.01966 0.53125 0.47508 0.0
C355 C 0.00371 0.52782 0.53342 0.0
C356 C 0.02855 0.53444 0.57161 0.0
C357 C 0.95093 0.51609 0.46182 0.0
C358 C 0.9102 0.50488 0.48496 0.0
C359 C 0.93565 0.5124 0.52023 0.0
C360 C 0.84138 0.48465 0.47428 0.0
C361 C 0.92396 0.51037 0.42359 0.0
C362 C 0.7787 0.50361 0.458 0.0
C363 C 0.71211 0.49131 0.46205 0.0
C364 C 0.70856 0.46074 0.48337 0.0
C365 C 0.76939 0.43826 0.49412 0.0
C366 C 0.8356 0.45013 0.48942 0.0
H367 H 0.96612 0.51624 0.40957 0.0
H368 H 0.90453 0.48161 0.4181 0.0
H369 H 0.87784 0.52906 0.41348 0.0
H370 H 0.78196 0.53027 0.44617 0.0
H371 H 0.66603 0.50915 0.45328 0.0
H372 H 0.02945 0.98572 0.41085 0.0
H373 H 0.08307 0.98332 0.36123 0.0
H374 H 0.95669 0.07754 0.31679 0.0
H375 H 0.90316 0.07978 0.36602 0.0
H376 H 0.98611 0.9701 0.29712 0.0
H377 H 0.14778 0.09569 0.29086 0.0
H378 H 0.12838 0.07971 0.3304 0.0
H379 H 0.06252 0.10576 0.29971 0.0
C380 C 0.01622 0.00705 0.39136 0.0
C381 C 0.96258 0.03304 0.39213 0.0
C382 C 0.04621 0.00543 0.36287 0.0
C383 C 0.02371 0.03022 0.33532 0.0
C384 C 0.97556 0.05846 0.33791 0.0
H385 H 0.97295 0.03388 0.11555 0.0
H386 H 0.95292 0.03447 0.17397 0.0
C387 C 0.945 0.05976 0.36604 0.0
C388 C 0.03936 0.02302 0.30159 0.0
H389 H 0.10035 0.06414 0.23741 0.0
C390 C 0.0122 0.99037 0.28427 0.0
C391 C 0.07268 0.04966 0.28478 0.0
C392 C 0.10512 0.08453 0.30252 0.0
C393 C 0.01542 0.98431 0.25011 0.0
C394 C 0.0465 0.01155 0.23308 0.0
C395 C 0.07547 0.04364 0.25059 0.0
C396 C 0.0527 0.00674 0.19746 0.0
C397 C 0.98458 0.9493 0.23208 0.0
C398 C 0.11466 0.99048 0.19166 0.0
C399 C 0.12664 0.99065 0.15877 0.0
C400 C 0.07655 0.00687 0.13108 0.0
C401 C 0.01247 0.0214 0.13654 0.0
C402 C 0.00096 0.02167 0.16973 0.0
H403 H 0.96032 0.93121 0.24867 0.0
H404 H 0.94281 0.95618 0.20837 0.0
H405 H 0.02764 0.9338 0.22413 0.0
H406 H 0.15493 0.97879 0.21283 0.0
H407 H 0.17586 0.9786 0.15512 0.0
H408 H 0.00368 0.04241 0.89788 0.0
H409 H 0.03759 0.04553 0.84292 0.0
H410 H 0.03844 0.92666 0.83859 0.0
H411 H 0.00113 0.92363 0.89274 0.0
H412 H 0.13046 0.01636 0.80317 0.0
H413 H 0.85339 0.95899 0.7675 0.0
H414 H 0.89467 0.97565 0.81012 0.0
H415 H 0.91573 0.93039 0.79716 0.0
C416 C 0.01513 0.01701 0.88608 0.0
C417 C -0.00064 0.98279 0.89902 0.0
C418 C 0.03409 0.01881 0.85462 0.0
C419 C 0.0379 0.98632 0.83629 0.0
C420 C 0.03409 0.95202 0.85216 0.0
H421 H 0.06928 0.92589 0.63823 0.0
H422 H 0.05313 0.9304 0.69683 0.0
C423 C 0.0136 0.95025 0.88321 0.0
C424 C 0.02957 0.98817 0.79869 0.0
H425 H 0.91447 0.96329 0.72267 0.0
C426 C 0.08324 0.00494 0.78554 0.0
C427 C 0.96643 0.97445 0.77574 0.0
C428 C 0.90387 0.95923 0.78826 0.0
C429 C 0.07711 0.00633 0.74992 0.0
C430 C 0.0161 0.99051 0.7273 0.0
C431 C 0.96123 0.97515 0.74031 0.0
C432 C 0.01252 0.98622 0.69046 0.0
C433 C 0.13634 0.02383 0.73646 0.0
C434 C -0.00875 0.01552 0.6673 0.0
C435 C -0.00121 0.01263 0.63357 0.0
C436 C 0.02871 0.98066 0.6232 0.0
C437 C 0.04569 0.95064 0.64583 0.0
C438 C 0.03688 0.95327 0.67919 0.0
H439 H 0.18132 0.03403 0.75748 0.0
H440 H 0.15779 0.00358 0.72081 0.0
H441 H 0.11422 0.04736 0.71936 0.0
H442 H 0.97234 0.04112 0.67579 0.0
H443 H 0.9866 0.03627 0.61654 0.0
H444 H 0.35216 0.56606 0.3664 0.0
H445 H 0.38312 0.5754 0.31127 0.0
H446 H 0.58475 0.51957 0.35063 0.0
H447 H 0.55423 0.5105 0.40613 0.0
H448 H 0.52938 0.60007 0.28852 0.0
H449 H 0.42943 0.45502 0.27127 0.0
H450 H 0.40617 0.4856 0.3023 0.0
H451 H 0.4947 0.46628 0.31055 0.0
C452 C 0.4045 0.55728 0.36377 0.0
C453 C 0.4509 0.53757 0.3904 0.0
C454 C 0.42204 0.5626 0.33229 0.0
C455 C 0.48582 0.5479 0.32691 0.0
C456 C 0.5354 0.53126 0.35448 0.0
H457 H 0.66079 0.49929 0.15787 0.0
H458 H 0.63461 0.51635 0.21224 0.0
C459 C 0.51822 0.52634 0.38622 0.0
C460 C 0.49387 0.544 0.29135 0.0
H461 H 0.47211 0.48135 0.22614 0.0
C462 C 0.51674 0.57422 0.27479 0.0
C463 C 0.4761 0.51036 0.27345 0.0
C464 C 0.44979 0.47739 0.29005 0.0
C465 C 0.52449 0.57114 0.2409 0.0
C466 C 0.50824 0.53727 0.22337 0.0
C467 C 0.48376 0.50739 0.23967 0.0
C468 C 0.52396 0.53092 0.18961 0.0
C469 C 0.55118 0.60368 0.22401 0.0
C470 C 0.47021 0.53392 0.15882 0.0
C471 C 0.48511 0.52436 0.12737 0.0
C472 C 0.55362 0.51122 0.12664 0.0
C473 C 0.60741 0.50921 0.15756 0.0
C474 C 0.59272 0.51901 0.18868 0.0
H475 H 0.55661 0.62895 0.24005 0.0
H476 H 0.60442 0.59704 0.21928 0.0
H477 H 0.5137 0.60931 0.19864 0.0
H478 H 0.41657 0.54281 0.15924 0.0
H479 H 0.4425 0.52583 0.10398 0.0
H480 H 0.49244 0.41689 0.61534 0.0
H481 H 0.46243 0.40768 0.67085 0.0
H482 H 0.48967 0.52454 0.69076 0.0
H483 H 0.5148 0.53365 0.6349 0.0
H484 H 0.56364 0.41672 0.72433 0.0
H485 H 0.34661 0.50673 0.74309 0.0
H486 H 0.35862 0.49774 0.7006 0.0
H487 H 0.40771 0.53453 0.72659 0.0
C488 C 0.4869 0.44075 0.63068 0.0
C489 C 0.50525 0.47598 0.62101 0.0
C490 C 0.47078 0.43549 0.6626 0.0
C491 C 0.47431 0.46532 0.68535 0.0
C492 C 0.48477 0.50107 0.67372 0.0
H493 H 0.58416 0.52696 0.88964 0.0
H494 H 0.60721 0.50681 0.83524 0.0
C495 C 0.49927 0.50635 0.64163 0.0
C496 C 0.48316 0.45874 0.7228 0.0
H497 H 0.44486 0.49603 0.7942 0.0
C498 C 0.53624 0.43347 0.73948 0.0
C499 C 0.44782 0.48049 0.74286 0.0
C500 C 0.38654 0.50605 0.72715 0.0
C501 C 0.55761 0.43102 0.77555 0.0
C502 C 0.52595 0.45478 0.79526 0.0
C503 C 0.47049 0.47857 0.77877 0.0
C504 C 0.54727 0.45587 0.83318 0.0
C505 C 0.61526 0.40412 0.79248 0.0
C506 C 0.51304 0.43187 0.85162 0.0
C507 C 0.50091 0.44317 0.88299 0.0
C508 C 0.52203 0.47863 0.8956 0.0
C509 C 0.56765 0.49945 0.88037 0.0
C510 C 0.58044 0.48802 0.84916 0.0
H511 H 0.63683 0.38852 0.77342 0.0
H512 H 0.66011 0.41908 0.81009 0.0
H513 H 0.59287 0.38421 0.80827 0.0
H514 H 0.48687 0.40704 0.83964 0.0
H515 H 0.46519 0.42679 0.89433 0.0
loop_
_geom_bond_atom_site_label_1
_geom_bond_atom_site_label_2
_geom_bond_distance
_geom_bond_site_symmetry_2
_ccdc_geom_bond_type
O0 Mg1 1.990 . S
O0 C14 1.251 1_545 S
Mg1 O0 1.990 . S
Mg1 O4 2.180 1_655 S
Mg1 O5 2.117 . S
Mg1 O19 2.030 . S
O2 Mg3 2.072 1_665 S
O2 C14 1.261 1_554 S
Mg3 O2 2.072 1_445 S
Mg3 O4 2.099 1_554 S
Mg3 O6 2.079 . S
Mg3 O7 2.072 1_545 S
Mg3 O9 2.099 . S
Mg3 O20 2.079 . S
O4 Mg1 2.180 1_455 S
O4 Mg3 2.099 1_556 S
O4 C15 1.279 1_455 S
O5 Mg1 2.117 . S
O5 C15 1.250 . S
O6 Mg3 2.079 . S
O6 C16 1.264 . S
O7 Mg3 2.072 1_565 S
O7 C17 1.260 . S
Mg8 O9 2.180 1_565 S
Mg8 O10 2.030 . S
Mg8 O11 1.990 . S
Mg8 O12 2.117 . S
O9 Mg3 2.099 . S
O9 Mg8 2.180 1_545 S
O9 C18 1.279 1_545 S
O10 Mg8 2.030 . S
O10 C16 1.248 1_565 S
O11 Mg8 1.990 . S
O11 C17 1.253 . S
O12 Mg8 2.117 . S
O12 C18 1.250 . S
C13 O19 1.248 1_554 S
C13 O20 1.264 1_655 S
C14 O0 1.251 1_565 S
C14 O2 1.261 1_556 S
C15 O4 1.279 1_655 S
C15 O5 1.250 . S
C16 O6 1.264 . S
C16 O10 1.248 1_545 S
C17 O7 1.260 . S
C17 O11 1.253 . S
C18 O9 1.279 1_565 S
C18 O12 1.250 . S
O19 Mg1 2.030 . S
O19 C13 1.248 1_556 S
O20 Mg3 2.079 . S
O20 C13 1.264 1_455 S
O21 Mg22 1.990 . S
O21 C35 1.253 . S
Mg22 O21 1.990 . S
Mg22 O25 2.180 1_565 S
Mg22 O26 2.117 . S
Mg22 O40 2.030 . S
O23 Mg24 2.072 1_565 S
O23 C35 1.260 . S
Mg24 O23 2.072 1_545 S
Mg24 O25 2.099 . S
Mg24 O27 2.079 1_655 S
Mg24 O28 2.072 1_645 S
Mg24 O30 2.099 1_655 S
Mg24 O41 2.079 . S
O25 Mg22 2.180 1_545 S
O25 Mg24 2.099 . S
O25 C36 1.279 1_545 S
O26 Mg22 2.117 . S
O26 C36 1.250 . S
O27 Mg24 2.079 1_455 S
O27 C37 1.264 . S
O28 Mg24 2.072 1_465 S
O28 C38 1.260 . S
Mg29 O30 2.180 . S
Mg29 O31 2.030 . S
Mg29 O32 1.990 . S
Mg29 O33 2.117 . S
O30 Mg24 2.099 1_455 S
O30 Mg29 2.180 . S
O30 C39 1.279 . S
O31 Mg29 2.030 . S
O31 C37 1.248 . S
O32 Mg29 1.990 . S
O32 C38 1.253 1_545 S
O33 Mg29 2.117 . S
O33 C39 1.250 . S
C34 O40 1.248 1_545 S
C34 O41 1.264 . S
C35 O21 1.253 . S
C35 O23 1.260 . S
C36 O25 1.279 1_565 S
C36 O26 1.250 . S
C37 O27 1.264 . S
C37 O31 1.248 . S
C38 O28 1.260 . S
C38 O32 1.253 1_565 S
C39 O30 1.279 . S
C39 O33 1.250 . S
O40 Mg22 2.030 . S
O40 C34 1.248 1_565 S
O41 Mg24 2.079 . S
O41 C34 1.264 . S
O42 Mg43 1.990 . S
O42 C56 1.251 . S
Mg43 O42 1.990 . S
Mg43 O46 2.180 . S
Mg43 O47 2.117 . S
Mg43 O61 2.030 . S
O44 Mg45 2.072 . S
O44 C56 1.261 1_554 S
Mg45 O44 2.072 . S
Mg45 O46 2.099 1_554 S
Mg45 O48 2.079 . S
Mg45 O49 2.072 . S
Mg45 O51 2.099 . S
Mg45 O62 2.079 . S
O46 Mg43 2.180 . S
O46 Mg45 2.099 1_556 S
O46 C57 1.279 . S
O47 Mg43 2.117 . S
O47 C57 1.250 . S
O48 Mg45 2.079 . S
O48 C58 1.264 . S
O49 Mg45 2.072 . S
O49 C59 1.260 . S
Mg50 O51 2.180 . S
Mg50 O52 2.030 . S
Mg50 O53 1.990 . S
Mg50 O54 2.117 . S
O51 Mg45 2.099 . S
O51 Mg50 2.180 . S
O51 C60 1.279 . S
O52 Mg50 2.030 . S
O52 C58 1.248 . S
O53 Mg50 1.990 . S
O53 C59 1.253 . S
O54 Mg50 2.117 . S
O54 C60 1.250 . S
C55 O61 1.248 1_554 S
C55 O62 1.264 . S
C56 O42 1.251 . S
C56 O44 1.261 1_556 S
C57 O46 1.279 . S
C57 O47 1.250 . S
C58 O48 1.264 . S
C58 O52 1.248 . S
C59 O49 1.260 . S
C59 O53 1.253 . S
C60 O51 1.279 . S
C60 O54 1.250 . S
O61 Mg43 2.030 . S
O61 C55 1.248 1_556 S
O62 Mg45 2.079 . S
O62 C55 1.264 . S
O63 Mg64 1.990 . S
O63 C77 1.253 . S
Mg64 O63 1.990 . S
Mg64 O67 2.180 . S
Mg64 O68 2.117 . S
Mg64 O82 2.030 . S
O65 Mg66 2.072 . S
O65 C77 1.260 . S
Mg66 O65 2.072 . S
Mg66 O67 2.099 . S
Mg66 O69 2.079 . S
Mg66 O70 2.072 . S
Mg66 O72 2.099 . S
Mg66 O83 2.079 . S
O67 Mg64 2.180 . S
O67 Mg66 2.099 . S
O67 C78 1.279 . S
O68 Mg64 2.117 . S
O68 C78 1.250 . S
O69 Mg66 2.079 . S
O69 C79 1.264 . S
O70 Mg66 2.072 . S
O70 C80 1.260 . S
Mg71 O72 2.180 . S
Mg71 O73 2.030 . S
Mg71 O74 1.990 . S
Mg71 O75 2.117 . S
O72 Mg66 2.099 . S
O72 Mg71 2.180 . S
O72 C81 1.279 . S
O73 Mg71 2.030 . S
O73 C79 1.248 . S
O74 Mg71 1.990 . S
O74 C80 1.253 . S
O75 Mg71 2.117 . S
O75 C81 1.250 . S
C76 O82 1.248 . S
C76 O83 1.264 . S
C77 O63 1.253 . S
C77 O65 1.260 . S
C78 O67 1.279 . S
C78 O68 1.250 . S
C79 O69 1.264 . S
C79 O73 1.248 . S
C80 O70 1.260 . S
C80 O74 1.253 . S
C81 O72 1.279 . S
C81 O75 1.250 . S
O82 Mg64 2.030 . S
O82 C76 1.248 . S
O83 Mg66 2.079 . S
O83 C76 1.264 . S
H84 C92 0.929 . S
H85 C94 0.930 . S
H86 C96 0.930 . S
H87 C99 0.929 . S
H88 C102 0.930 . S
H89 C104 0.960 . S
H90 C104 0.960 . S
H91 C104 0.960 . S
C92 H84 0.929 . S
C92 C93 1.377 . S
C92 C94 1.384 . S
C93 C92 1.377 . S
C93 C99 1.390 . S
C94 H85 0.930 . S
C94 C92 1.384 . S
C94 C95 1.372 . S
C95 C94 1.372 . S
C95 C96 1.400 . S
C95 C100 1.490 . S
C96 H86 0.930 . S
C96 C95 1.400 . S
C96 C99 1.386 . S
H97 C113 0.930 . S
H98 C114 0.930 . S
C99 H87 0.929 . S
C99 C93 1.390 . S
C99 C96 1.386 . S
C100 C95 1.490 . S
C100 C102 1.395 1_554 S
C100 C103 1.403 . S
H101 C107 0.930 . S
C102 H88 0.930 . S
C102 C100 1.395 1_556 S
C102 C105 1.403 . S
C103 C100 1.403 . S
C103 C104 1.524 . S
C103 C107 1.400 . S
C104 H89 0.960 . S
C104 H90 0.960 . S
C104 H91 0.960 . S
C104 C103 1.524 . S
C105 C102 1.403 . S
C105 C106 1.392 1_556 S
C105 C109 1.495 . S
C106 C105 1.392 1_554 S
C106 C107 1.385 . S
C106 C108 1.476 . S
C107 H101 0.930 . S
C107 C103 1.400 . S
C107 C106 1.385 . S
C108 C106 1.476 . S
C108 C110 1.379 . S
C108 C114 1.390 . S
C109 C105 1.495 . S
C109 H115 0.959 . S
C109 H116 0.961 . S
C109 H117 0.960 . S
C110 C108 1.379 . S
C110 C111 1.394 . S
C110 H118 0.930 . S
C111 C110 1.394 . S
C111 C112 1.383 . S
C111 H119 0.929 . S
C112 C111 1.383 . S
C112 C113 1.377 . S
C113 H97 0.930 . S
C113 C112 1.377 . S
C113 C114 1.379 . S
C114 H98 0.930 . S
C114 C108 1.390 . S
C114 C113 1.379 . S
H115 C109 0.959 . S
H116 C109 0.961 . S
H117 C109 0.960 . S
H118 C110 0.930 . S
H119 C111 0.929 . S
H120 C128 0.929 . S
H121 C130 0.930 . S
H122 C132 0.930 . S
H123 C135 0.929 . S
H124 C138 0.930 . S
H125 C140 0.960 . S
H126 C140 0.960 . S
H127 C140 0.960 . S
C128 H120 0.929 . S
C128 C129 1.377 1_556 S
C128 C130 1.384 . S
C129 C128 1.377 1_554 S
C129 C135 1.390 . S
C130 H121 0.930 . S
C130 C128 1.384 . S
C130 C131 1.372 1_556 S
C131 C130 1.372 1_554 S
C131 C132 1.400 . S
C131 C136 1.490 . S
C132 H122 0.930 . S
C132 C131 1.400 . S
C132 C135 1.386 . S
H133 C149 0.930 . S
H134 C150 0.931 . S
C135 H123 0.929 . S
C135 C129 1.390 . S
C135 C132 1.386 . S
C136 C131 1.490 . S
C136 C138 1.395 1_554 S
C136 C139 1.403 . S
H137 C143 0.930 . S
C138 H124 0.930 . S
C138 C136 1.395 1_556 S
C138 C141 1.403 . S
C139 C136 1.403 . S
C139 C140 1.524 . S
C139 C143 1.400 . S
C140 H125 0.960 . S
C140 H126 0.960 . S
C140 H127 0.960 . S
C140 C139 1.524 . S
C141 C138 1.403 . S
C141 C142 1.392 1_556 S
C141 C145 1.495 . S
C142 C141 1.392 1_554 S
C142 C143 1.385 . S
C142 C144 1.478 . S
C143 H137 0.930 . S
C143 C139 1.400 . S
C143 C142 1.385 . S
C144 C142 1.478 . S
C144 C146 1.381 1_554 S
C144 C150 1.383 . S
C145 C141 1.495 . S
C145 H151 0.959 . S
C145 H152 0.961 . S
C145 H153 0.960 . S
C146 C144 1.381 1_556 S
C146 C147 1.394 . S
C146 H154 0.930 . S
C147 C146 1.394 . S
C147 C148 1.383 1_556 S
C147 H155 0.929 . S
C148 C147 1.383 1_554 S
C148 C149 1.377 . S
C149 H133 0.930 . S
C149 C148 1.377 . S
C149 C150 1.379 . S
C150 H134 0.931 . S
C150 C144 1.383 . S
C150 C149 1.379 . S
H151 C145 0.959 . S
H152 C145 0.961 . S
H153 C145 0.960 . S
H154 C146 0.930 . S
H155 C147 0.929 . S
H156 C164 0.929 . S
H157 C166 0.930 . S
H158 C168 0.930 . S
H159 C171 0.929 . S
H160 C174 0.930 . S
H161 C176 0.960 . S
H162 C176 0.960 . S
H163 C176 0.960 . S
C164 H156 0.929 . S
C164 C165 1.377 . S
C164 C166 1.384 . S
C165 C164 1.377 . S
C165 C171 1.390 . S
C166 H157 0.930 . S
C166 C164 1.384 . S
C166 C167 1.372 . S
C167 C166 1.372 . S
C167 C168 1.400 . S
C167 C172 1.490 . S
C168 H158 0.930 . S
C168 C167 1.400 . S
C168 C171 1.386 . S
H169 C185 0.930 . S
H170 C186 0.931 . S
C171 H159 0.929 . S
C171 C165 1.390 . S
C171 C168 1.386 . S
C172 C167 1.490 . S
C172 C174 1.395 . S
C172 C175 1.403 . S
H173 C179 0.930 . S
C174 H160 0.930 . S
C174 C172 1.395 . S
C174 C177 1.403 . S
C175 C172 1.403 . S
C175 C176 1.524 . S
C175 C179 1.400 . S
C176 H161 0.960 . S
C176 H162 0.960 . S
C176 H163 0.960 . S
C176 C175 1.524 . S
C177 C174 1.403 . S
C177 C178 1.392 . S
C177 C181 1.495 . S
C178 C177 1.392 . S
C178 C179 1.385 . S
C178 C180 1.478 . S
C179 H173 0.930 . S
C179 C175 1.400 . S
C179 C178 1.385 . S
C180 C178 1.478 . S
C180 C182 1.381 . S
C180 C186 1.383 . S
C181 C177 1.495 . S
C181 H187 0.959 . S
C181 H188 0.961 . S
C181 H189 0.960 . S
C182 C180 1.381 . S
C182 C183 1.394 . S
C182 H190 0.930 . S
C183 C182 1.394 . S
C183 C184 1.383 . S
C183 H191 0.929 . S
C184 C183 1.383 . S
C184 C185 1.377 . S
C185 H169 0.930 . S
C185 C184 1.377 . S
C185 C186 1.379 . S
C186 H170 0.931 . S
C186 C180 1.383 . S
C186 C185 1.379 . S
H187 C181 0.959 . S
H188 C181 0.961 . S
H189 C181 0.960 . S
H190 C182 0.930 . S
H191 C183 0.929 . S
H192 C200 0.929 . S
H193 C202 0.930 . S
H194 C204 0.930 . S
H195 C207 0.929 . S
H196 C210 0.930 . S
H197 C212 0.960 . S
H198 C212 0.960 . S
H199 C212 0.960 . S
C200 H192 0.929 . S
C200 C201 1.377 . S
C200 C202 1.384 . S
C201 C200 1.377 . S
C201 C207 1.390 . S
C202 H193 0.930 . S
C202 C200 1.384 . S
C202 C203 1.372 . S
C203 C202 1.372 . S
C203 C204 1.400 . S
C203 C208 1.490 . S
C204 H194 0.930 . S
C204 C203 1.400 . S
C204 C207 1.386 . S
H205 C221 0.930 . S
H206 C222 0.931 . S
C207 H195 0.929 . S
C207 C201 1.390 . S
C207 C204 1.386 . S
C208 C203 1.490 . S
C208 C210 1.395 . S
C208 C211 1.403 . S
H209 C215 0.930 . S
C210 H196 0.930 . S
C210 C208 1.395 . S
C210 C213 1.403 . S
C211 C208 1.403 . S
C211 C212 1.524 . S
C211 C215 1.400 . S
C212 H197 0.960 . S
C212 H198 0.960 . S
C212 H199 0.960 . S
C212 C211 1.524 . S
C213 C210 1.403 . S
C213 C214 1.392 . S
C213 C217 1.495 . S
C214 C213 1.392 . S
C214 C215 1.385 . S
C214 C216 1.478 . S
C215 H209 0.930 . S
C215 C211 1.400 . S
C215 C214 1.385 . S
C216 C214 1.478 . S
C216 C218 1.381 . S
C216 C222 1.383 . S
C217 C213 1.495 . S
C217 H223 0.959 . S
C217 H224 0.961 . S
C217 H225 0.960 . S
C218 C216 1.381 . S
C218 C219 1.394 . S
C218 H226 0.930 . S
C219 C218 1.394 . S
C219 C220 1.383 . S
C219 H227 0.929 . S
C220 C219 1.383 . S
C220 C221 1.377 . S
C221 H205 0.930 . S
C221 C220 1.377 . S
C221 C222 1.379 . S
C222 H206 0.931 . S
C222 C216 1.383 . S
C222 C221 1.379 . S
H223 C217 0.959 . S
H224 C217 0.961 . S
H225 C217 0.960 . S
H226 C218 0.930 . S
H227 C219 0.929 . S
H228 C236 0.929 . S
H229 C238 0.930 . S
H230 C240 0.930 . S
H231 C243 0.929 . S
H232 C246 0.930 . S
H233 C248 0.960 . S
H234 C248 0.960 1_545 S
H235 C248 0.960 . S
C236 H228 0.929 . S
C236 C237 1.377 . S
C236 C238 1.384 . S
C237 C236 1.377 . S
C237 C243 1.390 1_545 S
C238 H229 0.930 . S
C238 C236 1.384 . S
C238 C239 1.372 . S
C239 C238 1.372 . S
C239 C240 1.400 1_545 S
C239 C244 1.490 . S
C240 H230 0.930 . S
C240 C239 1.400 1_565 S
C240 C243 1.386 . S
H241 C257 0.930 . S
H242 C258 0.931 . S
C243 H231 0.929 . S
C243 C237 1.390 1_565 S
C243 C240 1.386 . S
C244 C239 1.490 . S
C244 C246 1.395 . S
C244 C247 1.403 1_554 S
H245 C251 0.930 . S
C246 H232 0.930 . S
C246 C244 1.395 . S
C246 C249 1.403 . S
C247 C244 1.403 1_556 S
C247 C248 1.524 1_545 S
C247 C251 1.400 1_545 S
C248 H233 0.960 . S
C248 H234 0.960 1_565 S
C248 H235 0.960 . S
C248 C247 1.524 1_565 S
C249 C246 1.403 . S
C249 C250 1.392 . S
C249 C253 1.495 . S
C250 C249 1.392 . S
C250 C251 1.385 1_544 S
C250 C252 1.478 . S
C251 H245 0.930 . S
C251 C247 1.400 1_565 S
C251 C250 1.385 1_566 S
C252 C250 1.478 . S
C252 C254 1.381 . S
C252 C258 1.383 1_545 S
C253 C249 1.495 . S
C253 H259 0.959 . S
C253 H260 0.961 . S
C253 H261 0.960 . S
C254 C252 1.381 . S
C254 C255 1.394 . S
C254 H262 0.930 . S
C255 C254 1.394 . S
C255 C256 1.383 1_545 S
C255 H263 0.929 . S
C256 C255 1.383 1_565 S
C256 C257 1.377 . S
C257 H241 0.930 . S
C257 C256 1.377 . S
C257 C258 1.379 . S
C258 H242 0.931 . S
C258 C252 1.383 1_565 S
C258 C257 1.379 . S
H259 C253 0.959 . S
H260 C253 0.961 . S
H261 C253 0.960 . S
H262 C254 0.930 . S
H263 C255 0.929 . S
H264 C272 0.929 . S
H265 C274 0.930 . S
H266 C276 0.930 . S
H267 C279 0.929 . S
H268 C282 0.930 . S
H269 C284 0.960 . S
H270 C284 0.960 1_545 S
H271 C284 0.960 . S
C272 H264 0.929 . S
C272 C273 1.377 1_545 S
C272 C274 1.384 . S
C273 C272 1.377 1_565 S
C273 C279 1.390 . S
C274 H265 0.930 . S
C274 C272 1.384 . S
C274 C275 1.372 . S
C275 C274 1.372 . S
C275 C276 1.400 1_545 S
C275 C280 1.490 . S
C276 H266 0.930 . S
C276 C275 1.400 1_565 S
C276 C279 1.386 . S
H277 C293 0.930 . S
H278 C294 0.931 . S
C279 H267 0.929 . S
C279 C273 1.390 . S
C279 C276 1.386 . S
C280 C275 1.490 . S
C280 C282 1.395 . S
C280 C283 1.402 1_545 S
H281 C287 0.930 1_565 S
C282 H268 0.930 . S
C282 C280 1.395 . S
C282 C285 1.403 . S
C283 C280 1.402 1_565 S
C283 C284 1.525 . S
C283 C287 1.399 1_565 S
C284 H269 0.960 . S
C284 H270 0.960 1_565 S
C284 H271 0.960 . S
C284 C283 1.525 . S
C285 C282 1.403 . S
C285 C286 1.392 . S
C285 C289 1.495 . S
C286 C285 1.392 . S
C286 C287 1.385 . S
C286 C288 1.478 . S
C287 H281 0.930 1_545 S
C287 C283 1.399 1_545 S
C287 C286 1.385 . S
C288 C286 1.478 . S
C288 C290 1.381 . S
C288 C294 1.383 1_545 S
C289 C285 1.495 . S
C289 H295 0.959 . S
C289 H296 0.961 . S
C289 H297 0.960 . S
C290 C288 1.381 . S
C290 C291 1.394 . S
C290 H298 0.930 . S
C291 C290 1.394 . S
C291 C292 1.383 . S
C291 H299 0.929 . S
C292 C291 1.383 . S
C292 C293 1.377 1_545 S
C293 H277 0.930 . S
C293 C292 1.377 1_565 S
C293 C294 1.379 . S
C294 H278 0.931 . S
C294 C288 1.383 1_565 S
C294 C293 1.379 . S
H295 C289 0.959 . S
H296 C289 0.961 . S
H297 C289 0.960 . S
H298 C290 0.930 . S
H299 C291 0.929 . S
H300 C308 0.929 . S
H301 C310 0.930 . S
H302 C312 0.930 . S
H303 C315 0.929 . S
H304 C318 0.930 . S
H305 C320 0.960 1_455 S
H306 C320 0.960 . S
H307 C320 0.960 . S
C308 H300 0.929 . S
C308 C309 1.377 1_556 S
C308 C310 1.384 . S
C309 C308 1.377 1_554 S
C309 C315 1.390 . S
C310 H301 0.930 . S
C310 C308 1.384 . S
C310 C311 1.372 1_556 S
C311 C310 1.372 1_554 S
C311 C312 1.400 . S
C311 C316 1.490 . S
C312 H302 0.930 . S
C312 C311 1.400 . S
C312 C315 1.386 . S
H313 C329 0.930 . S
H314 C330 0.931 . S
C315 H303 0.929 . S
C315 C309 1.390 . S
C315 C312 1.386 . S
C316 C311 1.490 . S
C316 C318 1.395 1_554 S
C316 C319 1.403 1_655 S
H317 C323 0.930 . S
C318 H304 0.930 . S
C318 C316 1.395 1_556 S
C318 C321 1.403 1_655 S
C319 C316 1.403 1_455 S
C319 C320 1.524 1_455 S
C319 C323 1.400 . S
C320 H305 0.960 1_655 S
C320 H306 0.960 . S
C320 H307 0.960 . S
C320 C319 1.524 1_655 S
C321 C318 1.403 1_455 S
C321 C322 1.392 1_556 S
C321 C325 1.495 . S
C322 C321 1.392 1_554 S
C322 C323 1.385 . S
C322 C324 1.478 . S
C323 H317 0.930 . S
C323 C319 1.400 . S
C323 C322 1.385 . S
C324 C322 1.478 . S
C324 C326 1.381 1_554 S
C324 C330 1.383 . S
C325 C321 1.495 . S
C325 H331 0.959 . S
C325 H332 0.961 . S
C325 H333 0.960 . S
C326 C324 1.381 1_556 S
C326 C327 1.394 . S
C326 H334 0.930 . S
C327 C326 1.394 . S
C327 C328 1.383 1_556 S
C327 H335 0.929 . S
C328 C327 1.383 1_554 S
C328 C329 1.377 . S
C329 H313 0.930 . S
C329 C328 1.377 . S
C329 C330 1.379 . S
C330 H314 0.931 . S
C330 C324 1.383 . S
C330 C329 1.379 . S
H331 C325 0.959 . S
H332 C325 0.961 . S
H333 C325 0.960 . S
H334 C326 0.930 . S
H335 C327 0.929 . S
H336 C344 0.929 . S
H337 C346 0.930 . S
H338 C348 0.930 . S
H339 C351 0.929 . S
H340 C354 0.930 . S
H341 C356 0.960 . S
H342 C356 0.960 . S
H343 C356 0.960 . S
C344 H336 0.929 . S
C344 C345 1.377 . S
C344 C346 1.384 . S
C345 C344 1.377 . S
C345 C351 1.390 . S
C346 H337 0.930 . S
C346 C344 1.384 . S
C346 C347 1.372 . S
C347 C346 1.372 . S
C347 C348 1.400 . S
C347 C352 1.490 . S
C348 H338 0.930 . S
C348 C347 1.400 . S
C348 C351 1.386 . S
H349 C365 0.930 . S
H350 C366 0.931 . S
C351 H339 0.929 . S
C351 C345 1.390 . S
C351 C348 1.386 . S
C352 C347 1.490 . S
C352 C354 1.395 . S
C352 C355 1.403 . S
H353 C359 0.930 . S
C354 H340 0.930 . S
C354 C352 1.395 . S
C354 C357 1.403 1_455 S
C355 C352 1.403 . S
C355 C356 1.524 . S
C355 C359 1.400 1_455 S
C356 H341 0.960 . S
C356 H342 0.960 . S
C356 H343 0.960 . S
C356 C355 1.524 . S
C357 C354 1.403 1_655 S
C357 C358 1.392 . S
C357 C361 1.495 . S
C358 C357 1.392 . S
C358 C359 1.385 . S
C358 C360 1.478 . S
C359 H353 0.930 . S
C359 C355 1.400 1_655 S
C359 C358 1.385 . S
C360 C358 1.478 . S
C360 C362 1.381 . S
C360 C366 1.383 . S
C361 C357 1.495 . S
C361 H367 0.959 . S
C361 H368 0.961 . S
C361 H369 0.960 . S
C362 C360 1.381 . S
C362 C363 1.394 . S
C362 H370 0.930 . S
C363 C362 1.394 . S
C363 C364 1.383 . S
C363 H371 0.929 . S
C364 C363 1.383 . S
C364 C365 1.377 . S
C365 H349 0.930 . S
C365 C364 1.377 . S
C365 C366 1.379 . S
C366 H350 0.931 . S
C366 C360 1.383 . S
C366 C365 1.379 . S
H367 C361 0.959 . S
H368 C361 0.961 . S
H369 C361 0.960 . S
H370 C362 0.930 . S
H371 C363 0.929 . S
H372 C380 0.929 . S
H373 C382 0.930 . S
H374 C384 0.930 . S
H375 C387 0.929 . S
H376 C390 0.930 1_655 S
H377 C392 0.960 . S
H378 C392 0.960 . S
H379 C392 0.960 . S
C380 H372 0.929 . S
C380 C381 1.377 1_565 S
C380 C382 1.384 . S
C381 C380 1.377 1_545 S
C381 C387 1.390 1_455 S
C382 H373 0.930 . S
C382 C380 1.384 . S
C382 C383 1.372 1_565 S
C383 C382 1.372 1_545 S
C383 C384 1.400 1_455 S
C383 C388 1.490 . S
C384 H374 0.930 . S
C384 C383 1.400 1_655 S
C384 C387 1.386 . S
H385 C401 0.930 . S
H386 C402 0.931 . S
C387 H375 0.929 . S
C387 C381 1.390 1_655 S
C387 C384 1.386 . S
C388 C383 1.490 . S
C388 C390 1.395 1_545 S
C388 C391 1.402 . S
H389 C395 0.930 . S
C390 H376 0.930 1_455 S
C390 C388 1.395 1_565 S
C390 C393 1.401 . S
C391 C388 1.402 . S
C391 C392 1.524 . S
C391 C395 1.400 . S
C392 H377 0.960 . S
C392 H378 0.960 . S
C392 H379 0.960 . S
C392 C391 1.524 . S
C393 C390 1.401 . S
C393 C394 1.397 . S
C393 C397 1.494 1_455 S
C394 C393 1.397 . S
C394 C395 1.385 1_565 S
C394 C396 1.478 . S
C395 H389 0.930 . S
C395 C391 1.400 . S
C395 C394 1.385 1_545 S
C396 C394 1.478 . S
C396 C398 1.381 . S
C396 C402 1.383 1_465 S
C397 C393 1.494 1_655 S
C397 H403 0.959 . S
C397 H404 0.961 . S
C397 H405 0.960 1_655 S
C398 C396 1.381 . S
C398 C399 1.394 . S
C398 H406 0.930 . S
C399 C398 1.394 . S
C399 C400 1.383 . S
C399 H407 0.929 . S
C400 C399 1.383 . S
C400 C401 1.377 1_465 S
C401 H385 0.930 . S
C401 C400 1.377 1_645 S
C401 C402 1.379 . S
C402 H386 0.931 . S
C402 C396 1.383 1_645 S
C402 C401 1.379 . S
H403 C397 0.959 . S
H404 C397 0.961 . S
H405 C397 0.960 1_455 S
H406 C398 0.930 . S
H407 C399 0.929 . S
H408 C416 0.929 . S
H409 C418 0.930 . S
H410 C420 0.930 . S
H411 C423 0.929 . S
H412 C426 0.930 . S
H413 C428 0.960 . S
H414 C428 0.960 . S
H415 C428 0.960 . S
C416 H408 0.929 . S
C416 C417 1.377 1_545 S
C416 C418 1.384 . S
C417 C416 1.377 1_565 S
C417 C423 1.390 . S
C418 H409 0.930 . S
C418 C416 1.384 . S
C418 C419 1.372 1_545 S
C419 C418 1.372 1_565 S
C419 C420 1.400 . S
C419 C424 1.490 . S
C420 H410 0.930 . S
C420 C419 1.400 . S
C420 C423 1.386 . S
H421 C437 0.930 . S
H422 C438 0.931 . S
C423 H411 0.929 . S
C423 C417 1.390 . S
C423 C420 1.386 . S
C424 C419 1.490 . S
C424 C426 1.395 1_565 S
C424 C427 1.403 1_455 S
H425 C431 0.930 . S
C426 H412 0.930 . S
C426 C424 1.395 1_545 S
C426 C429 1.403 . S
C427 C424 1.403 1_655 S
C427 C428 1.524 . S
C427 C431 1.400 . S
C428 H413 0.960 . S
C428 H414 0.960 . S
C428 H415 0.960 . S
C428 C427 1.524 . S
C429 C426 1.403 . S
C429 C430 1.392 1_545 S
C429 C433 1.495 . S
C430 C429 1.392 1_565 S
C430 C431 1.385 1_455 S
C430 C432 1.478 . S
C431 H425 0.930 . S
C431 C427 1.400 . S
C431 C430 1.385 1_655 S
C432 C430 1.478 . S
C432 C434 1.381 1_565 S
C432 C438 1.383 . S
C433 C429 1.495 . S
C433 H439 0.959 . S
C433 H440 0.961 . S
C433 H441 0.960 . S
C434 C432 1.381 1_545 S
C434 C435 1.394 . S
C434 H442 0.930 . S
C435 C434 1.394 . S
C435 C436 1.383 1_545 S
C435 H443 0.929 1_455 S
C436 C435 1.383 1_565 S
C436 C437 1.377 . S
C437 H421 0.930 . S
C437 C436 1.377 . S
C437 C438 1.379 . S
C438 H422 0.931 . S
C438 C432 1.383 . S
C438 C437 1.379 . S
H439 C433 0.959 . S
H440 C433 0.961 . S
H441 C433 0.960 . S
H442 C434 0.930 . S
H443 C435 0.929 1_655 S
H444 C452 0.929 . S
H445 C454 0.930 . S
H446 C456 0.930 . S
H447 C459 0.929 . S
H448 C462 0.930 . S
H449 C464 0.960 . S
H450 C464 0.960 . S
H451 C464 0.960 . S
C452 H444 0.929 . S
C452 C453 1.377 . S
C452 C454 1.384 . S
C453 C452 1.377 . S
C453 C459 1.390 . S
C454 H445 0.930 . S
C454 C452 1.384 . S
C454 C455 1.372 . S
C455 C454 1.372 . S
C455 C456 1.400 . S
C455 C460 1.490 . S
C456 H446 0.930 . S
C456 C455 1.400 . S
C456 C459 1.386 . S
H457 C473 0.930 . S
H458 C474 0.931 . S
C459 H447 0.929 . S
C459 C453 1.390 . S
C459 C456 1.386 . S
C460 C455 1.490 . S
C460 C462 1.395 . S
C460 C463 1.403 . S
H461 C467 0.930 . S
C462 H448 0.930 . S
C462 C460 1.395 . S
C462 C465 1.403 . S
C463 C460 1.403 . S
C463 C464 1.524 . S
C463 C467 1.400 . S
C464 H449 0.960 . S
C464 H450 0.960 . S
C464 H451 0.960 . S
C464 C463 1.524 . S
C465 C462 1.403 . S
C465 C466 1.392 . S
C465 C469 1.495 . S
C466 C465 1.392 . S
C466 C467 1.385 . S
C466 C468 1.478 . S
C467 H461 0.930 . S
C467 C463 1.400 . S
C467 C466 1.385 . S
C468 C466 1.478 . S
C468 C470 1.381 . S
C468 C474 1.383 . S
C469 C465 1.495 . S
C469 H475 0.959 . S
C469 H476 0.961 . S
C469 H477 0.960 . S
C470 C468 1.381 . S
C470 C471 1.394 . S
C470 H478 0.930 . S
C471 C470 1.394 . S
C471 C472 1.383 . S
C471 H479 0.929 . S
C472 C471 1.383 . S
C472 C473 1.377 . S
C473 H457 0.930 . S
C473 C472 1.377 . S
C473 C474 1.379 . S
C474 H458 0.931 . S
C474 C468 1.383 . S
C474 C473 1.379 . S
H475 C469 0.959 . S
H476 C469 0.961 . S
H477 C469 0.960 . S
H478 C470 0.930 . S
H479 C471 0.929 . S
H480 C488 0.929 . S
H481 C490 0.930 . S
H482 C492 0.930 . S
H483 C495 0.929 . S
H484 C498 0.930 . S
H485 C500 0.960 . S
H486 C500 0.960 . S
H487 C500 0.960 . S
C488 H480 0.929 . S
C488 C489 1.377 . S
C488 C490 1.384 . S
C489 C488 1.377 . S
C489 C495 1.390 . S
C490 H481 0.930 . S
C490 C488 1.384 . S
C490 C491 1.372 . S
C491 C490 1.372 . S
C491 C492 1.400 . S
C491 C496 1.490 . S
C492 H482 0.930 . S
C492 C491 1.400 . S
C492 C495 1.386 . S
H493 C509 0.930 . S
H494 C510 0.931 . S
C495 H483 0.929 . S
C495 C489 1.390 . S
C495 C492 1.386 . S
C496 C491 1.490 . S
C496 C498 1.395 . S
C496 C499 1.403 . S
H497 C503 0.930 . S
C498 H484 0.930 . S
C498 C496 1.395 . S
C498 C501 1.403 . S
C499 C496 1.403 . S
C499 C500 1.524 . S
C499 C503 1.400 . S
C500 H485 0.960 . S
C500 H486 0.960 . S
C500 H487 0.960 . S
C500 C499 1.524 . S
C501 C498 1.403 . S
C501 C502 1.392 . S
C501 C505 1.495 . S
C502 C501 1.392 . S
C502 C503 1.385 . S
C502 C504 1.478 . S
C503 H497 0.930 . S
C503 C499 1.400 . S
C503 C502 1.385 . S
C504 C502 1.478 . S
C504 C506 1.381 . S
C504 C510 1.383 . S
C505 C501 1.495 . S
C505 H511 0.959 . S
C505 H512 0.961 . S
C505 H513 0.960 . S
C506 C504 1.381 . S
C506 C507 1.394 . S
C506 H514 0.930 . S
C507 C506 1.394 . S
C507 C508 1.383 . S
C507 H515 0.929 . S
C508 C507 1.383 . S
C508 C509 1.377 . S
C509 H493 0.930 . S
C509 C508 1.377 . S
C509 C510 1.379 . S
C510 H494 0.931 . S
C510 C504 1.383 . S
C510 C509 1.379 . S
H511 C505 0.959 . S
H512 C505 0.961 . S
H513 C505 0.960 . S
H514 C506 0.930 . S
H515 C507 0.929 . S
C93 C55 1.470 . S
C112 C17 1.491 . S
C129 C59 1.475 . S
C148 C13 1.461 . S
C165 C37 1.465 . S
C184 C77 1.450 . S
C201 C35 1.477 . S
C220 C79 1.486 . S
C237 C16 0.794 . S
C256 C14 0.822 1_554 S
C273 C38 0.784 . S
C292 C34 0.823 . S
C309 C58 0.771 . S
C328 C56 0.733 1_554 S
C345 C76 0.794 . S
C364 C80 0.815 . S
C381 C36 1.298 1_445 S
C400 C18 1.275 . S
C417 C15 1.291 1_465 S
C436 C39 1.249 1_565 S
C453 C78 1.279 . S
C472 C60 1.298 . S
C489 C81 1.311 . S
C508 C57 1.345 . S
