# Generated by pormake.
# Topology unl, (4)-cn, num edge types: 1
# Building blocks:
#     Node 0, Type 0, BuildingBlock: CEKHIL_clean_sbu_0, # of connection points: 4
#     Node 1, Type 0, BuildingBlock: CEKHIL_clean_sbu_0, # of connection points: 4
#     Node 2, Type 0, BuildingBlock: CEKHIL_clean_sbu_0, # of connection points: 4
#     Node 3, Type 0, BuildingBlock: CEKHIL_clean_sbu_0, # of connection points: 4
#     Node 4, Type 0, BuildingBlock: CEKHIL_clean_sbu_0, # of connection points: 4
#     Node 5, Type 0, BuildingBlock: CEKHIL_clean_sbu_0, # of connection points: 4
#     Node 6, Type 0, BuildingBlock: CEKHIL_clean_sbu_0, # of connection points: 4
#     Node 7, Type 0, BuildingBlock: CEKHIL_clean_sbu_0, # of connection points: 4
#     Node 8, Type 0, BuildingBlock: CEKHIL_clean_sbu_0, # of connection points: 4
#     Node 9, Type 0, BuildingBlock: CEKHIL_clean_sbu_0, # of connection points: 4
#     Node 10, Type 0, BuildingBlock: CEKHIL_clean_sbu_0, # of connection points: 4
#     Node 11, Type 0, BuildingBlock: CEKHIL_clean_sbu_0, # of connection points: 4
#     Node 12, Type 0, BuildingBlock: CEKHIL_clean_sbu_0, # of connection points: 4
#     Node 13, Type 0, BuildingBlock: CEKHIL_clean_sbu_0, # of connection points: 4
#     Node 14, Type 0, BuildingBlock: CEKHIL_clean_sbu_0, # of connection points: 4
#     Node 15, Type 0, BuildingBlock: CEKHIL_clean_sbu_0, # of connection points: 4
#     Node 16, Type 0, BuildingBlock: CEKHIL_clean_sbu_0, # of connection points: 4
#     Node 17, Type 0, BuildingBlock: CEKHIL_clean_sbu_0, # of connection points: 4
#     Node 18, Type 0, BuildingBlock: CEKHIL_clean_sbu_0, # of connection points: 4
#     Node 19, Type 0, BuildingBlock: CEKHIL_clean_sbu_0, # of connection points: 4
#     Node 20, Type 0, BuildingBlock: CEKHIL_clean_sbu_0, # of connection points: 4
#     Node 21, Type 0, BuildingBlock: CEKHIL_clean_sbu_0, # of connection points: 4
#     Node 22, Type 0, BuildingBlock: CEKHIL_clean_sbu_0, # of connection points: 4
#     Node 23, Type 0, BuildingBlock: CEKHIL_clean_sbu_0, # of connection points: 4
#     Node 24, Type 0, BuildingBlock: CEKHIL_clean_sbu_0, # of connection points: 4
#     Node 25, Type 0, BuildingBlock: CEKHIL_clean_sbu_0, # of connection points: 4
#     Node 26, Type 0, BuildingBlock: CEKHIL_clean_sbu_0, # of connection points: 4
#     Node 27, Type 0, BuildingBlock: CEKHIL_clean_sbu_0, # of connection points: 4
#     Node 28, Type 0, BuildingBlock: CEKHIL_clean_sbu_0, # of connection points: 4
#     Node 29, Type 0, BuildingBlock: CEKHIL_clean_sbu_0, # of connection points: 4
#     Node 30, Type 0, BuildingBlock: CEKHIL_clean_sbu_0, # of connection points: 4
#     Node 31, Type 0, BuildingBlock: CEKHIL_clean_sbu_0, # of connection points: 4
#     Node 32, Type 0, BuildingBlock: CEKHIL_clean_sbu_0, # of connection points: 4
#     Node 33, Type 0, BuildingBlock: CEKHIL_clean_sbu_0, # of connection points: 4
#     Node 34, Type 0, BuildingBlock: CEKHIL_clean_sbu_0, # of connection points: 4
#     Node 35, Type 0, BuildingBlock: CEKHIL_clean_sbu_0, # of connection points: 4
#     Edge 36, Type (0, 0), BuildingBlock: MIFKUJ_clean_linker_0, # of connection points: 2
#     Edge 37, Type (0, 0), BuildingBlock: MIFKUJ_clean_linker_0, # of connection points: 2
#     Edge 38, Type (0, 0), BuildingBlock: MIFKUJ_clean_linker_0, # of connection points: 2
#     Edge 39, Type (0, 0), BuildingBlock: MIFKUJ_clean_linker_0, # of connection points: 2
#     Edge 40, Type (0, 0), BuildingBlock: MIFKUJ_clean_linker_0, # of connection points: 2
#     Edge 41, Type (0, 0), BuildingBlock: MIFKUJ_clean_linker_0, # of connection points: 2
#     Edge 42, Type (0, 0), BuildingBlock: MIFKUJ_clean_linker_0, # of connection points: 2
#     Edge 43, Type (0, 0), BuildingBlock: MIFKUJ_clean_linker_0, # of connection points: 2
#     Edge 44, Type (0, 0), BuildingBlock: MIFKUJ_clean_linker_0, # of connection points: 2
#     Edge 45, Type (0, 0), BuildingBlock: MIFKUJ_clean_linker_0, # of connection points: 2
#     Edge 46, Type (0, 0), BuildingBlock: MIFKUJ_clean_linker_0, # of connection points: 2
#     Edge 47, Type (0, 0), BuildingBlock: MIFKUJ_clean_linker_0, # of connection points: 2
#     Edge 48, Type (0, 0), BuildingBlock: MIFKUJ_clean_linker_0, # of connection points: 2
#     Edge 49, Type (0, 0), BuildingBlock: MIFKUJ_clean_linker_0, # of connection points: 2
#     Edge 50, Type (0, 0), BuildingBlock: MIFKUJ_clean_linker_0, # of connection points: 2
#     Edge 51, Type (0, 0), BuildingBlock: MIFKUJ_clean_linker_0, # of connection points: 2
#     Edge 52, Type (0, 0), BuildingBlock: MIFKUJ_clean_linker_0, # of connection points: 2
#     Edge 53, Type (0, 0), BuildingBlock: MIFKUJ_clean_linker_0, # of connection points: 2
#     Edge 54, Type (0, 0), BuildingBlock: MIFKUJ_clean_linker_0, # of connection points: 2
#     Edge 55, Type (0, 0), BuildingBlock: MIFKUJ_clean_linker_0, # of connection points: 2
#     Edge 56, Type (0, 0), BuildingBlock: MIFKUJ_clean_linker_0, # of connection points: 2
#     Edge 57, Type (0, 0), BuildingBlock: MIFKUJ_clean_linker_0, # of connection points: 2
#     Edge 58, Type (0, 0), BuildingBlock: MIFKUJ_clean_linker_0, # of connection points: 2
#     Edge 59, Type (0, 0), BuildingBlock: MIFKUJ_clean_linker_0, # of connection points: 2
#     Edge 60, Type (0, 0), BuildingBlock: MIFKUJ_clean_linker_0, # of connection points: 2
#     Edge 61, Type (0, 0), BuildingBlock: MIFKUJ_clean_linker_0, # of connection points: 2
#     Edge 62, Type (0, 0), BuildingBlock: MIFKUJ_clean_linker_0, # of connection points: 2
#     Edge 63, Type (0, 0), BuildingBlock: MIFKUJ_clean_linker_0, # of connection points: 2
#     Edge 64, Type (0, 0), BuildingBlock: MIFKUJ_clean_linker_0, # of connection points: 2
#     Edge 65, Type (0, 0), BuildingBlock: MIFKUJ_clean_linker_0, # of connection points: 2
#     Edge 66, Type (0, 0), BuildingBlock: MIFKUJ_clean_linker_0, # of connection points: 2
#     Edge 67, Type (0, 0), BuildingBlock: MIFKUJ_clean_linker_0, # of connection points: 2
#     Edge 68, Type (0, 0), BuildingBlock: MIFKUJ_clean_linker_0, # of connection points: 2
#     Edge 69, Type (0, 0), BuildingBlock: MIFKUJ_clean_linker_0, # of connection points: 2
#     Edge 70, Type (0, 0), BuildingBlock: MIFKUJ_clean_linker_0, # of connection points: 2
#     Edge 71, Type (0, 0), BuildingBlock: MIFKUJ_clean_linker_0, # of connection points: 2
#     Edge 72, Type (0, 0), BuildingBlock: MIFKUJ_clean_linker_0, # of connection points: 2
#     Edge 73, Type (0, 0), BuildingBlock: MIFKUJ_clean_linker_0, # of connection points: 2
#     Edge 74, Type (0, 0), BuildingBlock: MIFKUJ_clean_linker_0, # of connection points: 2
#     Edge 75, Type (0, 0), BuildingBlock: MIFKUJ_clean_linker_0, # of connection points: 2
#     Edge 76, Type (0, 0), BuildingBlock: MIFKUJ_clean_linker_0, # of connection points: 2
#     Edge 77, Type (0, 0), BuildingBlock: MIFKUJ_clean_linker_0, # of connection points: 2
#     Edge 78, Type (0, 0), BuildingBlock: MIFKUJ_clean_linker_0, # of connection points: 2
#     Edge 79, Type (0, 0), BuildingBlock: MIFKUJ_clean_linker_0, # of connection points: 2
#     Edge 80, Type (0, 0), BuildingBlock: MIFKUJ_clean_linker_0, # of connection points: 2
#     Edge 81, Type (0, 0), BuildingBlock: MIFKUJ_clean_linker_0, # of connection points: 2
#     Edge 82, Type (0, 0), BuildingBlock: MIFKUJ_clean_linker_0, # of connection points: 2
#     Edge 83, Type (0, 0), BuildingBlock: MIFKUJ_clean_linker_0, # of connection points: 2
#     Edge 84, Type (0, 0), BuildingBlock: MIFKUJ_clean_linker_0, # of connection points: 2
#     Edge 85, Type (0, 0), BuildingBlock: MIFKUJ_clean_linker_0, # of connection points: 2
#     Edge 86, Type (0, 0), BuildingBlock: MIFKUJ_clean_linker_0, # of connection points: 2
#     Edge 87, Type (0, 0), BuildingBlock: MIFKUJ_clean_linker_0, # of connection points: 2
#     Edge 88, Type (0, 0), BuildingBlock: MIFKUJ_clean_linker_0, # of connection points: 2
#     Edge 89, Type (0, 0), BuildingBlock: MIFKUJ_clean_linker_0, # of connection points: 2
#     Edge 90, Type (0, 0), BuildingBlock: MIFKUJ_clean_linker_0, # of connection points: 2
#     Edge 91, Type (0, 0), BuildingBlock: MIFKUJ_clean_linker_0, # of connection points: 2
#     Edge 92, Type (0, 0), BuildingBlock: MIFKUJ_clean_linker_0, # of connection points: 2
#     Edge 93, Type (0, 0), BuildingBlock: MIFKUJ_clean_linker_0, # of connection points: 2
#     Edge 94, Type (0, 0), BuildingBlock: MIFKUJ_clean_linker_0, # of connection points: 2
#     Edge 95, Type (0, 0), BuildingBlock: MIFKUJ_clean_linker_0, # of connection points: 2
#     Edge 96, Type (0, 0), BuildingBlock: MIFKUJ_clean_linker_0, # of connection points: 2
#     Edge 97, Type (0, 0), BuildingBlock: MIFKUJ_clean_linker_0, # of connection points: 2
#     Edge 98, Type (0, 0), BuildingBlock: MIFKUJ_clean_linker_0, # of connection points: 2
#     Edge 99, Type (0, 0), BuildingBlock: MIFKUJ_clean_linker_0, # of connection points: 2
#     Edge 100, Type (0, 0), BuildingBlock: MIFKUJ_clean_linker_0, # of connection points: 2
#     Edge 101, Type (0, 0), BuildingBlock: MIFKUJ_clean_linker_0, # of connection points: 2
#     Edge 102, Type (0, 0), BuildingBlock: MIFKUJ_clean_linker_0, # of connection points: 2
#     Edge 103, Type (0, 0), BuildingBlock: MIFKUJ_clean_linker_0, # of connection points: 2
#     Edge 104, Type (0, 0), BuildingBlock: MIFKUJ_clean_linker_0, # of connection points: 2
#     Edge 105, Type (0, 0), BuildingBlock: MIFKUJ_clean_linker_0, # of connection points: 2
#     Edge 106, Type (0, 0), BuildingBlock: MIFKUJ_clean_linker_0, # of connection points: 2
#     Edge 107, Type (0, 0), BuildingBlock: MIFKUJ_clean_linker_0, # of connection points: 2
# Relax obj value: 0.040
# Max RMSD: 0.122
# Mean RMSD: 0.122
data_MOF--net-unl--node1-CEKHIL_clean_sbu_0--edge1-MIFKUJ_clean_linker_0
_symmetry_space_group_name_H-M    P1
_symmetry_Int_Tables_number       1
_symmetry_cell_setting            triclinic
loop_
_symmetry_equiv_pos_as_xyz
'x, y, z'
_cell_length_a     83.609709
_cell_length_b     83.639223
_cell_length_c     53.295318
_cell_angle_alpha  89.995465
_cell_angle_beta   89.99346
_cell_angle_gamma 119.99431
loop_
_atom_site_label
_atom_site_type_symbol
_atom_site_fract_x
_atom_site_fract_y
_atom_site_fract_z
_atom_type_partial_charge
Co0 Co 0.21044 0.11945 0.11243 0.0
O1 O 0.22716 0.11527 0.13256 0.0
O2 O 0.23416 0.14194 0.11498 0.0
C3 C 0.20023 0.09381 0.08837 0.0
O4 O 0.19728 0.12889 0.08965 0.0
Co5 Co 0.16829 0.09177 0.11373 0.0
O6 O 0.16709 0.10761 0.08703 0.0
C7 C 0.18563 0.11806 0.15556 0.0
C8 C 0.23945 0.13237 0.12829 0.0
C9 C 0.18093 0.12309 0.08089 0.0
O10 O 0.20104 0.12628 0.14344 0.0
O11 O 0.17158 0.10318 0.14779 0.0
O12 O 0.21566 0.1087 0.08317 0.0
O13 O 0.19239 0.09435 0.109 0.0
Co14 Co 0.88759 0.0944 0.11628 0.0
O15 O 0.88987 0.11383 0.138 0.0
O16 O 0.86419 0.09397 0.11847 0.0
C17 C 0.91362 0.11203 0.09387 0.0
O18 O 0.88033 0.07308 0.0916 0.0
Co19 Co 0.91756 0.08268 0.11766 0.0
O20 O 0.90376 0.06713 0.08864 0.0
C21 C 0.88897 0.06941 0.15724 0.0
C22 C 0.87272 0.10835 0.13298 0.0
C23 C 0.88789 0.06429 0.08202 0.0
O24 O 0.88068 0.07681 0.14578 0.0
O25 O 0.90452 0.07152 0.15002 0.0
O26 O 0.89842 0.11195 0.08859 0.0
O27 O 0.91307 0.10305 0.11387 0.0
Co28 Co 0.90595 0.79142 0.1132 0.0
O29 O 0.88526 0.77361 0.13258 0.0
O30 O 0.90603 0.76824 0.1149 0.0
C31 C 0.88978 0.80095 0.08961 0.0
O32 O 0.92859 0.80619 0.09091 0.0
Co33 Co 0.91794 0.833 0.11686 0.0
O34 O 0.93535 0.83585 0.08969 0.0
C35 C 0.92914 0.81607 0.15673 0.0
C36 C 0.8909 0.76202 0.12794 0.0
C37 C 0.93822 0.8229 0.08281 0.0
O38 O 0.92194 0.80076 0.14439 0.0
O39 O 0.92764 0.82992 0.14981 0.0
O40 O 0.89018 0.7861 0.0837 0.0
O41 O 0.89753 0.80847 0.11067 0.0
Co42 Co 0.11763 0.21076 0.39058 0.0
O43 O 0.11519 0.22717 0.36753 0.0
O44 O 0.14071 0.23398 0.38828 0.0
C45 C 0.09108 0.20213 0.41181 0.0
O46 O 0.12508 0.19773 0.41665 0.0
Co47 Co 0.08882 0.1688 0.39136 0.0
O48 O 0.10081 0.16943 0.42373 0.0
C49 C 0.1177 0.18375 0.35195 0.0
C50 C 0.13217 0.23924 0.37285 0.0
C51 C 0.11695 0.18249 0.42914 0.0
O52 O 0.12537 0.19982 0.36236 0.0
O53 O 0.10244 0.17012 0.35969 0.0
O54 O 0.10593 0.21759 0.41704 0.0
O55 O 0.09229 0.1934 0.39258 0.0
Co56 Co 0.79128 0.90457 0.38701 0.0
O57 O 0.77391 0.88474 0.36605 0.0
O58 O 0.76815 0.90476 0.38522 0.0
C59 C 0.80014 0.88732 0.40944 0.0
O60 O 0.80566 0.92627 0.41096 0.0
Co61 Co 0.8329 0.91639 0.38463 0.0
O62 O 0.83463 0.93128 0.41452 0.0
C63 C 0.81687 0.92885 0.34501 0.0
C64 C 0.7622 0.89017 0.37111 0.0
C65 C 0.82188 0.9346 0.42097 0.0
O66 O 0.80142 0.92173 0.35702 0.0
O67 O 0.83042 0.92681 0.35192 0.0
O68 O 0.78519 0.88755 0.41527 0.0
O69 O 0.80816 0.89596 0.38906 0.0
Co70 Co 0.09194 0.88195 0.38868 0.0
O71 O 0.111 0.88333 0.3669 0.0
O72 O 0.09118 0.8584 0.38806 0.0
C73 C 0.1102 0.90859 0.40944 0.0
O74 O 0.07109 0.87567 0.41384 0.0
Co75 Co 0.08035 0.91184 0.38598 0.0
O76 O 0.06656 0.89993 0.41712 0.0
C77 C 0.06706 0.88272 0.34719 0.0
C78 C 0.10532 0.86634 0.37308 0.0
C79 C 0.06333 0.88402 0.42418 0.0
O80 O 0.07401 0.87437 0.35951 0.0
O81 O 0.06943 0.89852 0.35363 0.0
O82 O 0.10992 0.89345 0.41569 0.0
O83 O 0.10089 0.90754 0.38955 0.0
Co84 Co 0.79057 0.88637 0.88651 0.0
O85 O 0.7725 0.88833 0.86651 0.0
O86 O 0.7677 0.86276 0.88534 0.0
C87 C 0.79935 0.91235 0.90911 0.0
O88 O 0.80587 0.87957 0.9096 0.0
Co89 Co 0.83188 0.91679 0.88254 0.0
O90 O 0.8347 0.90395 0.91199 0.0
C91 C 0.81559 0.88792 0.84346 0.0
C92 C 0.76118 0.87115 0.87174 0.0
C93 C 0.82236 0.88781 0.91882 0.0
O94 O 0.80032 0.87962 0.85586 0.0
O95 O 0.82919 0.90355 0.85007 0.0
O96 O 0.7847 0.89699 0.91528 0.0
O97 O 0.80706 0.91193 0.88831 0.0
Co98 Co 0.11839 0.90707 0.89053 0.0
O99 O 0.11472 0.88749 0.86798 0.0
O100 O 0.14101 0.90616 0.88719 0.0
C101 C 0.09229 0.88997 0.91302 0.0
O102 O 0.12728 0.92818 0.9159 0.0
Co103 Co 0.09078 0.92152 0.89375 0.0
O104 O 0.10323 0.93179 0.92628 0.0
C105 C 0.11862 0.93467 0.8528 0.0
C106 C 0.13173 0.89205 0.8725 0.0
C107 C 0.11962 0.93499 0.92996 0.0
O108 O 0.12562 0.92514 0.86159 0.0
O109 O 0.10435 0.93432 0.86227 0.0
O110 O 0.10714 0.88926 0.91786 0.0
O111 O 0.09323 0.89975 0.89373 0.0
Co112 Co 0.09395 0.21103 0.88484 0.0
O113 O 0.11311 0.22837 0.86302 0.0
O114 O 0.09228 0.23326 0.88161 0.0
C115 C 0.11243 0.20445 0.90807 0.0
O116 O 0.07268 0.19668 0.90937 0.0
Co117 Co 0.0839 0.17007 0.88595 0.0
O118 O 0.07065 0.16932 0.91722 0.0
C119 C 0.06989 0.18334 0.84464 0.0
C120 C 0.10681 0.23947 0.86732 0.0
C121 C 0.06613 0.18149 0.92187 0.0
O122 O 0.07682 0.19927 0.85527 0.0
O123 O 0.07232 0.17036 0.85303 0.0
O124 O 0.11113 0.21894 0.91296 0.0
O125 O 0.10392 0.1953 0.88819 0.0
Co126 Co 0.88405 0.78982 0.61711 0.0
O127 O 0.88619 0.77246 0.63857 0.0
O128 O 0.86077 0.76667 0.61833 0.0
C129 C 0.91046 0.7988 0.59535 0.0
O130 O 0.877 0.80411 0.59258 0.0
Co131 Co 0.91357 0.83148 0.62028 0.0
O132 O 0.90016 0.83365 0.59103 0.0
C133 C 0.88467 0.81505 0.65917 0.0
C134 C 0.86917 0.76074 0.63297 0.0
C135 C 0.88453 0.82063 0.58362 0.0
O136 O 0.87648 0.79984 0.64666 0.0
O137 O 0.90041 0.82864 0.65289 0.0
O138 O 0.8954 0.78373 0.5895 0.0
O139 O 0.90956 0.80684 0.61557 0.0
Co140 Co 0.21125 0.09243 0.61209 0.0
O141 O 0.2267 0.11107 0.63612 0.0
O142 O 0.23494 0.09362 0.61492 0.0
C143 C 0.20215 0.11016 0.59138 0.0
O144 O 0.19959 0.07243 0.58503 0.0
Co145 Co 0.16905 0.07743 0.60864 0.0
O146 O 0.17162 0.06835 0.57542 0.0
C147 C 0.18364 0.06239 0.6471 0.0
C148 C 0.2394 0.10701 0.6308 0.0
C149 C 0.18507 0.06567 0.57104 0.0
O150 O 0.20032 0.07303 0.63945 0.0
O151 O 0.16957 0.06251 0.63782 0.0
O152 O 0.21797 0.11146 0.58649 0.0
O153 O 0.1931 0.09944 0.60988 0.0
Co154 Co 0.90584 0.11423 0.61355 0.0
O155 O 0.88625 0.11188 0.63499 0.0
O156 O 0.90659 0.13776 0.61633 0.0
C157 C 0.88802 0.08866 0.59059 0.0
O158 O 0.92745 0.12171 0.58936 0.0
Co159 Co 0.91718 0.08418 0.61309 0.0
O160 O 0.93063 0.09696 0.58208 0.0
C161 C 0.93025 0.11169 0.65419 0.0
C162 C 0.89204 0.12916 0.63053 0.0
C163 C 0.93467 0.11349 0.5773 0.0
O164 O 0.92292 0.12028 0.64339 0.0
O165 O 0.92835 0.09645 0.64594 0.0
O166 O 0.88876 0.10416 0.58524 0.0
O167 O 0.89672 0.08869 0.61062 0.0
Co168 Co 0.87459 0.44647 0.44624 0.0
O169 O 0.89166 0.44329 0.46696 0.0
O170 O 0.89778 0.46962 0.44915 0.0
C171 C 0.86577 0.42095 0.42245 0.0
O172 O 0.86068 0.45469 0.42271 0.0
Co173 Co 0.83282 0.41697 0.44733 0.0
O174 O 0.83113 0.43173 0.41949 0.0
C175 C 0.84861 0.44435 0.4883 0.0
C176 C 0.90349 0.46052 0.46275 0.0
C177 C 0.8443 0.44764 0.41336 0.0
O178 O 0.86423 0.45279 0.47671 0.0
O179 O 0.83501 0.42909 0.48059 0.0
O180 O 0.8809 0.43621 0.41744 0.0
O181 O 0.85752 0.42111 0.44285 0.0
Co182 Co 0.54889 0.42732 0.44166 0.0
O183 O 0.55121 0.44644 0.46406 0.0
O184 O 0.52583 0.42758 0.44314 0.0
C185 C 0.57561 0.44495 0.42068 0.0
O186 O 0.54166 0.40665 0.41601 0.0
Co187 Co 0.57754 0.41403 0.44312 0.0
O188 O 0.56563 0.40181 0.41107 0.0
C189 C 0.54884 0.40153 0.48237 0.0
C190 C 0.5343 0.44157 0.4583 0.0
C191 C 0.54977 0.39906 0.40458 0.0
O192 O 0.54083 0.40896 0.47035 0.0
O193 O 0.56441 0.40339 0.47572 0.0
O194 O 0.56081 0.44551 0.41495 0.0
O195 O 0.57426 0.43525 0.44028 0.0
Co196 Co 0.57237 0.12467 0.44715 0.0
O197 O 0.55319 0.10806 0.4696 0.0
O198 O 0.57257 0.10163 0.4499 0.0
C199 C 0.55448 0.13282 0.42501 0.0
O200 O 0.59334 0.13801 0.42179 0.0
Co201 Co 0.58486 0.16639 0.44594 0.0
O202 O 0.59665 0.16593 0.41387 0.0
C203 C 0.59888 0.15197 0.48596 0.0
C204 C 0.55841 0.09616 0.46474 0.0
C205 C 0.60026 0.15313 0.40906 0.0
O206 O 0.59043 0.13576 0.47598 0.0
O207 O 0.5974 0.16555 0.47765 0.0
O208 O 0.55445 0.11763 0.41992 0.0
O209 O 0.56393 0.14165 0.44453 0.0
Co210 Co 0.7814 0.54131 0.71918 0.0
O211 O 0.77945 0.55849 0.69715 0.0
O212 O 0.80484 0.56427 0.71747 0.0
C213 C 0.75508 0.53305 0.74074 0.0
O214 O 0.78834 0.52724 0.7442 0.0
Co215 Co 0.7516 0.49975 0.71841 0.0
O216 O 0.7636 0.49906 0.75019 0.0
C217 C 0.78043 0.51477 0.67898 0.0
C218 C 0.79653 0.57014 0.70257 0.0
C219 C 0.7799 0.51167 0.75591 0.0
O220 O 0.78861 0.53058 0.69011 0.0
O221 O 0.76492 0.50133 0.68634 0.0
O222 O 0.77029 0.54797 0.74657 0.0
O223 O 0.75583 0.52459 0.72089 0.0
Co224 Co 0.45829 0.24117 0.71812 0.0
O225 O 0.44099 0.22201 0.69622 0.0
O226 O 0.43512 0.24133 0.7171 0.0
C227 C 0.4671 0.22332 0.73915 0.0
O228 O 0.47255 0.26215 0.74326 0.0
Co229 Co 0.50003 0.25324 0.71553 0.0
O230 O 0.50151 0.26703 0.74643 0.0
C231 C 0.48426 0.26742 0.67778 0.0
C232 C 0.42922 0.22717 0.70215 0.0
C233 C 0.48876 0.27019 0.75337 0.0
O234 O 0.46851 0.25924 0.68907 0.0
O235 O 0.498 0.26564 0.68448 0.0
O236 O 0.452 0.22321 0.74517 0.0
O237 O 0.47529 0.23267 0.71925 0.0
Co238 Co 0.7618 0.21824 0.71846 0.0
O239 O 0.78071 0.21997 0.69615 0.0
O240 O 0.76165 0.19495 0.71758 0.0
C241 C 0.77978 0.24507 0.73892 0.0
O242 O 0.74118 0.21175 0.74409 0.0
Co243 Co 0.74949 0.2477 0.71574 0.0
O244 O 0.73612 0.23572 0.7471 0.0
C245 C 0.73644 0.21842 0.67728 0.0
C246 C 0.77558 0.20307 0.70223 0.0
C247 C 0.73327 0.21998 0.75438 0.0
O248 O 0.74348 0.21021 0.68973 0.0
O249 O 0.73877 0.23425 0.68345 0.0
O250 O 0.78009 0.23021 0.74507 0.0
O251 O 0.77018 0.24366 0.71921 0.0
Co252 Co 0.45796 0.21771 0.21669 0.0
O253 O 0.44071 0.2196 0.19472 0.0
O254 O 0.4349 0.19436 0.21548 0.0
C255 C 0.4667 0.24429 0.23784 0.0
O256 O 0.47216 0.2109 0.24174 0.0
Co257 Co 0.4997 0.24741 0.21391 0.0
O258 O 0.50181 0.23392 0.24306 0.0
C259 C 0.48366 0.21809 0.17545 0.0
C260 C 0.42902 0.20259 0.20045 0.0
C261 C 0.48872 0.21838 0.25059 0.0
O262 O 0.46827 0.20999 0.18761 0.0
O263 O 0.49716 0.23387 0.18178 0.0
O264 O 0.45156 0.22932 0.24376 0.0
O265 O 0.47495 0.24318 0.21799 0.0
Co266 Co 0.78138 0.23691 0.21982 0.0
O267 O 0.77953 0.21771 0.19798 0.0
O268 O 0.80482 0.23736 0.21844 0.0
C269 C 0.75491 0.21903 0.24117 0.0
O270 O 0.78813 0.25794 0.24478 0.0
Co271 Co 0.7515 0.2487 0.21788 0.0
O272 O 0.76388 0.26246 0.24885 0.0
C273 C 0.7804 0.26188 0.17869 0.0
C274 C 0.79658 0.22313 0.20361 0.0
C275 C 0.77992 0.26577 0.25539 0.0
O276 O 0.78878 0.25479 0.19061 0.0
O277 O 0.76468 0.25958 0.18547 0.0
O278 O 0.76997 0.21903 0.24709 0.0
O279 O 0.75592 0.22828 0.22126 0.0
Co280 Co 0.76118 0.54323 0.21921 0.0
O281 O 0.78133 0.56027 0.19834 0.0
O282 O 0.76139 0.56651 0.21675 0.0
C283 C 0.77805 0.53415 0.24213 0.0
O284 O 0.73922 0.52942 0.24302 0.0
Co285 Co 0.74824 0.50141 0.21857 0.0
O286 O 0.73498 0.501 0.24967 0.0
C287 C 0.73681 0.51743 0.17755 0.0
C288 C 0.77608 0.57218 0.20292 0.0
C289 C 0.73152 0.51386 0.25478 0.0
O290 O 0.74427 0.53309 0.18902 0.0
O291 O 0.73813 0.50365 0.1854 0.0
O292 O 0.77802 0.54926 0.24768 0.0
O293 O 0.76925 0.52597 0.22191 0.0
Co294 Co 0.55148 0.12367 0.94235 0.0
O295 O 0.55394 0.10647 0.96374 0.0
O296 O 0.52841 0.10032 0.94354 0.0
C297 C 0.57812 0.133 0.92106 0.0
O298 O 0.54399 0.13757 0.9178 0.0
Co299 Co 0.58014 0.16549 0.94378 0.0
O300 O 0.56829 0.166 0.91177 0.0
C301 C 0.55146 0.14917 0.98336 0.0
C302 C 0.53697 0.09456 0.95814 0.0
C303 C 0.55213 0.15313 0.90604 0.0
O304 O 0.54371 0.13349 0.97191 0.0
O305 O 0.56667 0.16306 0.97601 0.0
O306 O 0.56318 0.11797 0.91468 0.0
O307 O 0.5769 0.14102 0.94109 0.0
Co308 Co 0.87423 0.42582 0.94716 0.0
O309 O 0.8908 0.4449 0.96978 0.0
O310 O 0.89742 0.42584 0.94959 0.0
C311 C 0.86575 0.44363 0.92547 0.0
O312 O 0.8609 0.40505 0.92148 0.0
Co313 Co 0.83233 0.41305 0.94669 0.0
O314 O 0.8328 0.40158 0.91437 0.0
C315 C 0.84729 0.39941 0.98645 0.0
C316 C 0.90281 0.43988 0.96463 0.0
C317 C 0.84565 0.39817 0.90899 0.0
O318 O 0.86331 0.40755 0.97587 0.0
O319 O 0.83368 0.40104 0.9786 0.0
O320 O 0.88111 0.44401 0.92028 0.0
O321 O 0.85704 0.43398 0.94491 0.0
Co322 Co 0.57287 0.44971 0.94661 0.0
O323 O 0.55337 0.44782 0.96783 0.0
O324 O 0.57358 0.47328 0.94819 0.0
C325 C 0.55513 0.42366 0.92443 0.0
O326 O 0.5943 0.45654 0.92233 0.0
Co327 Co 0.58403 0.41947 0.94881 0.0
O328 O 0.5992 0.43249 0.91906 0.0
C329 C 0.59717 0.44805 0.98834 0.0
C330 C 0.55908 0.46498 0.96256 0.0
C331 C 0.60254 0.44852 0.91244 0.0
O332 O 0.59015 0.45653 0.97647 0.0
O333 O 0.5949 0.4324 0.98133 0.0
O334 O 0.55569 0.43899 0.91853 0.0
O335 O 0.56376 0.42411 0.94474 0.0
Co336 Co 0.54375 0.78278 0.77629 0.0
O337 O 0.559 0.77922 0.80018 0.0
O338 O 0.56737 0.80524 0.77974 0.0
C339 C 0.53473 0.75624 0.75495 0.0
O340 O 0.53222 0.79145 0.7495 0.0
Co341 Co 0.50154 0.75565 0.77238 0.0
O342 O 0.50426 0.76773 0.73947 0.0
C343 C 0.51597 0.78504 0.8111 0.0
C344 C 0.57171 0.79608 0.7954 0.0
C345 C 0.51774 0.7839 0.73542 0.0
O346 O 0.53268 0.79095 0.80377 0.0
O347 O 0.50188 0.77106 0.8015 0.0
O348 O 0.55059 0.77079 0.75036 0.0
O349 O 0.5256 0.75769 0.77353 0.0
Co350 Co 0.21543 0.75861 0.77853 0.0
O351 O 0.21807 0.77759 0.80142 0.0
O352 O 0.19232 0.75866 0.78126 0.0
C353 C 0.24173 0.77652 0.75684 0.0
O354 O 0.20777 0.73794 0.75269 0.0
Co355 Co 0.24438 0.74565 0.77719 0.0
O356 O 0.23239 0.73465 0.74466 0.0
C357 C 0.21601 0.73195 0.8173 0.0
C358 C 0.20102 0.77261 0.79642 0.0
C359 C 0.21607 0.73124 0.73971 0.0
O360 O 0.20812 0.74019 0.807 0.0
O361 O 0.23117 0.73354 0.80918 0.0
O362 O 0.22676 0.77695 0.75178 0.0
O363 O 0.24076 0.76669 0.77609 0.0
Co364 Co 0.23906 0.45797 0.78016 0.0
O365 O 0.21915 0.44103 0.80142 0.0
O366 O 0.23924 0.43495 0.78304 0.0
C367 C 0.22199 0.4664 0.75667 0.0
O368 O 0.26088 0.47169 0.75622 0.0
Co369 Co 0.2515 0.49965 0.77999 0.0
O370 O 0.26492 0.49999 0.74908 0.0
C371 C 0.26323 0.48431 0.82147 0.0
C372 C 0.22464 0.42928 0.79706 0.0
C373 C 0.26849 0.48717 0.74426 0.0
O374 O 0.25598 0.4686 0.81017 0.0
O375 O 0.26171 0.49793 0.8134 0.0
O376 O 0.2222 0.45131 0.75172 0.0
O377 O 0.23064 0.47494 0.77683 0.0
Co378 Co 0.44967 0.8764 0.05084 0.0
O379 O 0.44667 0.89283 0.0285 0.0
O380 O 0.4728 0.89951 0.04747 0.0
C381 C 0.42385 0.86827 0.07359 0.0
O382 O 0.45783 0.86333 0.07593 0.0
Co383 Co 0.42067 0.83465 0.05311 0.0
O384 O 0.4333 0.83565 0.08503 0.0
C385 C 0.4485 0.8488 0.01225 0.0
C386 C 0.46385 0.90481 0.03286 0.0
C387 C 0.4498 0.84845 0.08918 0.0
O388 O 0.45624 0.86518 0.02169 0.0
O389 O 0.43375 0.8352 0.02126 0.0
O390 O 0.43907 0.88348 0.07843 0.0
O391 O 0.42428 0.85933 0.05409 0.0
Co392 Co 0.12149 0.57244 0.05448 0.0
O393 O 0.1049 0.55285 0.03248 0.0
O394 O 0.09812 0.57203 0.05201 0.0
C395 C 0.13045 0.55515 0.07662 0.0
O396 O 0.13477 0.59373 0.07939 0.0
Co397 Co 0.16349 0.58578 0.05487 0.0
O398 O 0.16286 0.59735 0.08707 0.0
C399 C 0.14788 0.59806 0.01424 0.0
C400 C 0.09278 0.55777 0.03741 0.0
C401 C 0.14995 0.60077 0.09201 0.0
O402 O 0.13201 0.59019 0.0252 0.0
O403 O 0.16163 0.59672 0.0222 0.0
O404 O 0.1151 0.55474 0.08196 0.0
O405 O 0.13895 0.56461 0.05695 0.0
Co406 Co 0.42793 0.55269 0.05147 0.0
O407 O 0.4468 0.55512 0.02846 0.0
O408 O 0.4278 0.52948 0.04877 0.0
C409 C 0.44602 0.57891 0.0732 0.0
O410 O 0.40732 0.54524 0.07743 0.0
Co411 Co 0.41542 0.58201 0.05274 0.0
O412 O 0.40381 0.5698 0.0849 0.0
C413 C 0.40139 0.55358 0.01276 0.0
C414 C 0.44173 0.53806 0.03353 0.0
C415 C 0.40039 0.5535 0.09006 0.0
O416 O 0.40943 0.54552 0.02308 0.0
O417 O 0.40326 0.56887 0.02078 0.0
O418 O 0.44635 0.56388 0.07815 0.0
O419 O 0.43624 0.57806 0.05395 0.0
Co420 Co 0.12331 0.55014 0.54977 0.0
O421 O 0.10562 0.55244 0.52927 0.0
O422 O 0.10022 0.52677 0.54842 0.0
C423 C 0.13241 0.5763 0.57218 0.0
O424 O 0.13808 0.54298 0.57331 0.0
Co425 Co 0.16492 0.58006 0.54613 0.0
O426 O 0.16747 0.5665 0.57485 0.0
C427 C 0.14848 0.55104 0.50729 0.0
C428 C 0.09403 0.53532 0.53453 0.0
C429 C 0.1547 0.55065 0.58199 0.0
O430 O 0.13309 0.54302 0.51947 0.0
O431 O 0.1622 0.56659 0.51389 0.0
O432 O 0.11746 0.56115 0.57815 0.0
O433 O 0.14021 0.57561 0.55162 0.0
Co434 Co 0.44716 0.5723 0.55104 0.0
O435 O 0.44407 0.55319 0.52803 0.0
O436 O 0.47022 0.57229 0.54722 0.0
C437 C 0.42136 0.55446 0.57372 0.0
O438 O 0.4554 0.59312 0.57678 0.0
Co439 Co 0.41822 0.58521 0.55411 0.0
O440 O 0.43104 0.59657 0.58604 0.0
C441 C 0.44584 0.59899 0.51302 0.0
C442 C 0.46122 0.55823 0.53232 0.0
C443 C 0.44747 0.60001 0.59019 0.0
O444 O 0.4538 0.59057 0.52248 0.0
O445 O 0.43094 0.59753 0.52199 0.0
O446 O 0.43646 0.55412 0.57806 0.0
O447 O 0.42187 0.56418 0.55459 0.0
Co448 Co 0.42661 0.87759 0.55455 0.0
O449 O 0.44596 0.89434 0.5324 0.0
O450 O 0.42657 0.90073 0.55218 0.0
C451 C 0.44434 0.86908 0.5765 0.0
O452 O 0.40549 0.8641 0.57961 0.0
Co453 Co 0.41394 0.83578 0.55476 0.0
O454 O 0.4018 0.83593 0.58667 0.0
C455 C 0.4009 0.85096 0.51454 0.0
C456 C 0.44079 0.90625 0.53743 0.0
C457 C 0.39832 0.84876 0.59187 0.0
O458 O 0.40873 0.86685 0.52545 0.0
O459 O 0.40253 0.83735 0.52236 0.0
O460 O 0.44446 0.88428 0.58187 0.0
O461 O 0.43488 0.86046 0.55688 0.0
Co462 Co 0.21767 0.4566 0.27704 0.0
O463 O 0.22079 0.44059 0.3001 0.0
O464 O 0.19507 0.43296 0.27929 0.0
C465 C 0.24444 0.46608 0.25597 0.0
O466 O 0.20945 0.469 0.25096 0.0
Co467 Co 0.24508 0.49883 0.27567 0.0
O468 O 0.23323 0.4974 0.24292 0.0
C469 C 0.21561 0.4833 0.3143 0.0
C470 C 0.20395 0.42812 0.29473 0.0
C471 C 0.21716 0.48403 0.23798 0.0
O472 O 0.20928 0.46695 0.30521 0.0
O473 O 0.23009 0.49751 0.30586 0.0
O474 O 0.22989 0.45039 0.25067 0.0
O475 O 0.24284 0.47469 0.27509 0.0
Co476 Co 0.54363 0.76138 0.27917 0.0
O477 O 0.56051 0.78069 0.30122 0.0
O478 O 0.56658 0.76093 0.28192 0.0
C479 C 0.53555 0.77922 0.25674 0.0
O480 O 0.52982 0.74022 0.25423 0.0
Co481 Co 0.50195 0.74959 0.27911 0.0
O482 O 0.50165 0.73673 0.24768 0.0
C483 C 0.51679 0.73653 0.31964 0.0
C484 C 0.57226 0.77526 0.29649 0.0
C485 C 0.51432 0.73304 0.24232 0.0
O486 O 0.53254 0.74365 0.30839 0.0
O487 O 0.50348 0.73871 0.31199 0.0
O488 O 0.55068 0.77912 0.25162 0.0
O489 O 0.52686 0.77003 0.27649 0.0
Co490 Co 0.24038 0.78393 0.27921 0.0
O491 O 0.21986 0.78037 0.29952 0.0
O492 O 0.23974 0.80683 0.28167 0.0
C493 C 0.2242 0.75815 0.2557 0.0
O494 O 0.26272 0.79232 0.25602 0.0
Co495 Co 0.25326 0.75489 0.28177 0.0
O496 O 0.26983 0.76966 0.25402 0.0
C497 C 0.26387 0.78243 0.32227 0.0
C498 C 0.22487 0.79748 0.29511 0.0
C499 C 0.27235 0.7854 0.24733 0.0
O500 O 0.25691 0.79076 0.30988 0.0
O501 O 0.26229 0.76708 0.31521 0.0
O502 O 0.22397 0.77317 0.2503 0.0
O503 O 0.2326 0.75869 0.27628 0.0
H504 H 0.21205 0.0905 0.04187 0.0
H505 H 0.19981 0.06278 0.01571 0.0
H506 H 0.15855 0.03198 0.07188 0.0
H507 H 0.17071 0.05967 0.0981 0.0
H508 H 0.17461 0.01289 0.05607 0.0
H509 H 0.14594 0.04349 0.0182 0.0
H510 H 0.14084 0.06662 0.99664 0.0
H511 H 0.1755 0.0687 0.9358 0.0
H512 H 0.18094 0.04566 0.95711 0.0
H513 H 0.10761 0.94053 0.97481 0.0
H514 H 0.12447 0.96644 0.00373 0.0
H515 H 0.17293 0.98709 0.9571 0.0
H516 H 0.15631 0.96082 0.92846 0.0
H517 H 0.1551 0.01101 0.96773 0.0
H518 H 0.18018 0.97656 0.00666 0.0
H519 H 0.17864 0.94927 0.02675 0.0
H520 H 0.14544 0.95211 0.08615 0.0
H521 H 0.14654 0.97926 0.06619 0.0
C522 C 0.20031 0.07785 0.04859 0.0
C523 C 0.19236 0.07726 0.07206 0.0
C524 C 0.19328 0.06202 0.03358 0.0
C525 C 0.17822 0.04529 0.04179 0.0
C526 C 0.17021 0.04471 0.06518 0.0
C527 C 0.17713 0.06057 0.0801 0.0
C528 C 0.17112 0.02831 0.02624 0.0
C529 C 0.17022 0.01247 0.0368 0.0
C530 C 0.16563 0.02776 0.00099 0.0
C531 C 0.16402 0.04301 0.9894 0.0
C532 C 0.15279 0.04916 0.00048 0.0
C533 C 0.14973 0.06216 0.98821 0.0
C534 C 0.15779 0.06907 0.96483 0.0
C535 C 0.16924 0.0633 0.95389 0.0
C536 C 0.17232 0.05028 0.96606 0.0
C537 C 0.122 0.95034 0.97108 0.0
C538 C 0.13066 0.9487 0.9494 0.0
C539 C 0.13161 0.96508 0.98763 0.0
C540 C 0.14991 0.97861 0.98252 0.0
C541 C 0.15884 0.97667 0.9614 0.0
C542 C 0.14936 0.96166 0.94514 0.0
C543 C 0.15876 0.99581 0.99749 0.0
C544 C 0.15984 0.01163 0.98686 0.0
C545 C 0.16403 0.99618 0.02275 0.0
C546 C 0.16328 0.97983 0.03477 0.0
C547 C 0.17238 0.97124 0.02385 0.0
C548 C 0.17162 0.95583 0.03525 0.0
C549 C 0.1619 0.94893 0.05767 0.0
C550 C 0.15295 0.95745 0.06876 0.0
C551 C 0.15365 0.97287 0.05742 0.0
H552 H 0.16135 0.937 0.06648 0.0
H553 H 0.15502 0.07875 0.95504 0.0
H554 H 0.9443 0.10834 0.095 0.0
H555 H 0.97101 0.12266 0.06701 0.0
H556 H 0.94708 0.15098 0.02819 0.0
H557 H 0.92 0.13608 0.05553 0.0
H558 H 0.96005 0.13808 0.99551 0.0
H559 H 0.98486 0.1734 0.07011 0.0
H560 H 0.99226 0.17895 0.11517 0.0
H561 H 0.02476 0.15238 0.11011 0.0
H562 H 0.01736 0.14643 0.06507 0.0
H563 H 0.04319 0.19592 0.92717 0.0
H564 H 0.01802 0.18664 0.95758 0.0
H565 H 0.03196 0.14828 0.99117 0.0
H566 H 0.05695 0.15732 0.96084 0.0
H567 H 0.02461 0.16886 0.02652 0.0
H568 H 0.99731 0.13215 0.95172 0.0
H569 H 0.98904 0.12677 0.90688 0.0
H570 H 0.96118 0.15802 0.91284 0.0
H571 H 0.96945 0.16373 0.95769 0.0
C572 C 0.94477 0.11766 0.08055 0.0
C573 C 0.93006 0.12109 0.07746 0.0
C574 C 0.96012 0.12597 0.06465 0.0
C575 C 0.96127 0.13819 0.04567 0.0
C576 C 0.94657 0.14165 0.04266 0.0
C577 C 0.93111 0.13314 0.05833 0.0
C578 C 0.97742 0.14678 0.02836 0.0
C579 C 0.97415 0.14512 0.00238 0.0
C580 C 0.99589 0.15575 0.03717 0.0
C581 C 0.00042 0.15933 0.06425 0.0
C582 C 0.99348 0.16861 0.07864 0.0
C583 C 0.99769 0.17185 0.10418 0.0
C584 C 0.00894 0.16598 0.11551 0.0
C585 C 0.01604 0.1569 0.10131 0.0
C586 C 0.01185 0.15361 0.07577 0.0
C587 C 0.04102 0.18566 0.94121 0.0
C588 C 0.052 0.17728 0.9415 0.0
C589 C 0.02659 0.18031 0.95848 0.0
C590 C 0.02305 0.16666 0.97648 0.0
C591 C 0.03444 0.15881 0.9774 0.0
C592 C 0.04867 0.16395 0.95998 0.0
C593 C 0.00712 0.16003 0.99389 0.0
C594 C 0.01047 0.16202 0.01981 0.0
C595 C 0.98872 0.15158 0.98506 0.0
C596 C 0.98418 0.14855 0.95797 0.0
C597 C 0.98961 0.13806 0.94339 0.0
C598 C 0.98487 0.1349 0.91799 0.0
C599 C 0.97462 0.14208 0.907 0.0
C600 C 0.96913 0.15248 0.92137 0.0
C601 C 0.97383 0.15567 0.94678 0.0
H602 H 0.97084 0.13953 0.88739 0.0
H603 H 0.01219 0.1685 0.13528 0.0
H604 H 0.85718 0.89804 0.93469 0.0
H605 H 0.86682 0.88221 0.96384 0.0
H606 H 0.80997 0.84002 0.97497 0.0
H607 H 0.80017 0.85559 0.94482 0.0
H608 H 0.86233 0.87553 0.0102 0.0
H609 H 0.8073 0.79947 0.99017 0.0
H610 H 0.78828 0.78003 0.95503 0.0
H611 H 0.8281 0.81776 0.90232 0.0
H612 H 0.84736 0.83739 0.93709 0.0
H613 H 0.87535 0.82265 0.10267 0.0
H614 H 0.86168 0.83591 0.07497 0.0
H615 H 0.87332 0.81174 0.01092 0.0
H616 H 0.88581 0.79745 0.03885 0.0
H617 H 0.84266 0.80911 0.00286 0.0
H618 H 0.9007 0.85983 0.02935 0.0
H619 H 0.92445 0.88039 0.0596 0.0
H620 H 0.88666 0.89574 0.09076 0.0
H621 H 0.86262 0.8751 0.06087 0.0
C622 C 0.84663 0.88539 0.94327 0.0
C623 C 0.82784 0.8781 0.93732 0.0
C624 C 0.85221 0.87635 0.96007 0.0
C625 C 0.83919 0.85982 0.9716 0.0
C626 C 0.82036 0.85258 0.96602 0.0
C627 C 0.81474 0.86155 0.94888 0.0
C628 C 0.84558 0.85045 0.98948 0.0
C629 C 0.85796 0.86098 0.0086 0.0
C630 C 0.84023 0.83155 0.98726 0.0
C631 C 0.82863 0.81999 0.96622 0.0
C632 C 0.81197 0.80362 0.97106 0.0
C633 C 0.80114 0.79259 0.95121 0.0
C634 C 0.80692 0.79773 0.92644 0.0
C635 C 0.82356 0.81389 0.92148 0.0
C636 C 0.83441 0.82499 0.94125 0.0
C637 C 0.87492 0.82016 0.08267 0.0
C638 C 0.88169 0.80911 0.07286 0.0
C639 C 0.8672 0.82783 0.0668 0.0
C640 C 0.86675 0.8252 0.04067 0.0
C641 C 0.87342 0.814 0.03094 0.0
C642 C 0.88065 0.8059 0.0469 0.0
C643 C 0.85959 0.83425 0.02342 0.0
C644 C 0.84697 0.82364 0.00455 0.0
C645 C 0.86536 0.8533 0.02515 0.0
C646 C 0.87981 0.86579 0.04305 0.0
C647 C 0.89743 0.86751 0.04276 0.0
C648 C 0.91094 0.87919 0.05982 0.0
C649 C 0.90705 0.88933 0.07713 0.0
C650 C 0.88965 0.88786 0.07736 0.0
C651 C 0.87608 0.87619 0.06035 0.0
H652 H 0.91753 0.89835 0.09034 0.0
H653 H 0.79855 0.78915 0.9111 0.0
H654 H 0.9569 0.15103 0.57255 0.0
H655 H 0.98313 0.16757 0.54404 0.0
H656 H 0.97139 0.11586 0.51046 0.0
H657 H 0.94564 0.09929 0.53936 0.0
H658 H 0.00626 0.13496 0.51975 0.0
H659 H 0.96263 0.14862 0.48048 0.0
H660 H 0.94063 0.16009 0.47848 0.0
H661 H 0.98356 0.21419 0.50004 0.0
H662 H 0.00577 0.20297 0.50248 0.0
H663 H 0.06112 0.16738 0.41021 0.0
H664 H 0.03432 0.154 0.43815 0.0
H665 H 0.05653 0.20569 0.47785 0.0
H666 H 0.08358 0.21915 0.45011 0.0
H667 H 0.01758 0.18835 0.46666 0.0
H668 H 0.06124 0.17441 0.50461 0.0
H669 H 0.0832 0.16286 0.50486 0.0
H670 H 0.03964 0.10882 0.4843 0.0
H671 H 0.01745 0.12013 0.48356 0.0
C672 C 0.95977 0.14322 0.55885 0.0
C673 C 0.94921 0.12383 0.55828 0.0
C674 C 0.97476 0.1527 0.54251 0.0
C675 C 0.97925 0.143 0.52494 0.0
C676 C 0.96834 0.12369 0.52391 0.0
C677 C 0.95355 0.11422 0.54041 0.0
C678 C 0.99576 0.15273 0.50837 0.0
C679 C 0.00854 0.14648 0.50793 0.0
C680 C 0.99914 0.16813 0.4934 0.0
C681 C 0.98581 0.1749 0.49192 0.0
C682 C 0.96734 0.16292 0.48498 0.0
C683 C 0.95484 0.16939 0.48374 0.0
C684 C 0.96068 0.18784 0.4892 0.0
C685 C 0.97905 0.19989 0.49585 0.0
C686 C 0.9916 0.19349 0.49715 0.0
C687 C 0.06029 0.17594 0.42482 0.0
C688 C 0.07451 0.19429 0.42805 0.0
C689 C 0.04497 0.16827 0.44077 0.0
C690 C 0.0435 0.17884 0.46013 0.0
C691 C 0.05741 0.19732 0.463 0.0
C692 C 0.07287 0.20495 0.44722 0.0
C693 C 0.02771 0.1703 0.47784 0.0
C694 C 0.01519 0.17684 0.47856 0.0
C695 C 0.02448 0.15509 0.49297 0.0
C696 C 0.03772 0.14816 0.49381 0.0
C697 C 0.05637 0.16009 0.49996 0.0
C698 C 0.06885 0.15359 0.50022 0.0
C699 C 0.06283 0.13513 0.49453 0.0
C700 C 0.04429 0.12312 0.48867 0.0
C701 C 0.03175 0.12957 0.48836 0.0
H702 H 0.07253 0.13013 0.49472 0.0
H703 H 0.95098 0.19282 0.48822 0.0
H704 H 0.82674 0.87883 0.39736 0.0
H705 H 0.83952 0.86413 0.42399 0.0
H706 H 0.8046 0.86215 0.48501 0.0
H707 H 0.7912 0.87603 0.45803 0.0
H708 H 0.85896 0.87421 0.46292 0.0
H709 H 0.79475 0.82761 0.52497 0.0
H710 H 0.76085 0.8095 0.5207 0.0
H711 H 0.76631 0.80472 0.44134 0.0
H712 H 0.80022 0.82257 0.44518 0.0
H713 H 0.88852 0.85435 0.57426 0.0
H714 H 0.87302 0.86272 0.54269 0.0
H715 H 0.84277 0.80613 0.51758 0.0
H716 H 0.85784 0.79746 0.55016 0.0
H717 H 0.82088 0.81973 0.51674 0.0
H718 H 0.8808 0.84013 0.48421 0.0
H719 H 0.91482 0.85567 0.48433 0.0
H720 H 0.918 0.90794 0.4965 0.0
H721 H 0.88399 0.89268 0.4968 0.0
C722 C 0.8217 0.87512 0.4164 0.0
C723 C 0.80791 0.87849 0.42558 0.0
C724 C 0.82904 0.86674 0.43165 0.0
C725 C 0.82288 0.86174 0.45649 0.0
C726 C 0.80926 0.86537 0.46576 0.0
C727 C 0.80169 0.87344 0.45037 0.0
C728 C 0.83126 0.85348 0.473 0.0
C729 C 0.85059 0.86224 0.47456 0.0
C730 C 0.82044 0.83753 0.48778 0.0
C731 C 0.80004 0.82657 0.48535 0.0
C732 C 0.78872 0.82262 0.50663 0.0
C733 C 0.7695 0.81242 0.50428 0.0
C734 C 0.76143 0.80601 0.48076 0.0
C735 C 0.77257 0.80974 0.45954 0.0
C736 C 0.79179 0.81992 0.46179 0.0
C737 C 0.8786 0.84364 0.56201 0.0
C738 C 0.87459 0.82526 0.56452 0.0
C739 C 0.86978 0.84848 0.54386 0.0
C740 C 0.85706 0.83518 0.52724 0.0
C741 C 0.85264 0.81668 0.53005 0.0
C742 C 0.86127 0.81174 0.54862 0.0
C743 C 0.84852 0.84081 0.50709 0.0
C744 C 0.8292 0.83158 0.50488 0.0
C745 C 0.85935 0.85594 0.49102 0.0
C746 C 0.87983 0.86523 0.49068 0.0
C747 C 0.88875 0.85493 0.48706 0.0
C748 C 0.90803 0.86369 0.48704 0.0
C749 C 0.91856 0.88278 0.49046 0.0
C750 C 0.90983 0.89315 0.49386 0.0
C751 C 0.89055 0.88446 0.49392 0.0
H752 H 0.93348 0.88953 0.49045 0.0
H753 H 0.74655 0.79813 0.47897 0.0
H754 H 0.13376 0.91513 0.44847 0.0
H755 H 0.14998 0.94313 0.47377 0.0
H756 H 0.12501 0.96846 0.43036 0.0
H757 H 0.10915 0.94061 0.40447 0.0
H758 H 0.15995 0.99283 0.43902 0.0
H759 H 0.10898 0.94997 0.48933 0.0
H760 H 0.0889 0.92043 0.51078 0.0
H761 H 0.13468 0.92765 0.55571 0.0
H762 H 0.15511 0.95712 0.53425 0.0
H763 H 0.16459 0.05861 0.5285 0.0
H764 H 0.15621 0.03347 0.49864 0.0
H765 H 0.19069 0.01718 0.53842 0.0
H766 H 0.19939 0.04258 0.56828 0.0
H767 H 0.15344 0.98859 0.53168 0.0
H768 H 0.20358 0.03376 0.48244 0.0
H769 H 0.22214 0.06368 0.46113 0.0
H770 H 0.17582 0.0526 0.41453 0.0
H771 H 0.15689 0.02271 0.43582 0.0
C772 C 0.13173 0.92667 0.44429 0.0
C773 C 0.12008 0.92563 0.42458 0.0
C774 C 0.14098 0.94266 0.45882 0.0
C775 C 0.13853 0.95784 0.45424 0.0
C776 C 0.12712 0.95693 0.43428 0.0
C777 C 0.118 0.94099 0.41956 0.0
C778 C 0.14761 0.97452 0.4705 0.0
C779 C 0.15837 0.99191 0.45926 0.0
C780 C 0.14588 0.97333 0.49698 0.0
C781 C 0.13362 0.95565 0.50999 0.0
C782 C 0.1148 0.94519 0.50365 0.0
C783 C 0.10335 0.92847 0.51583 0.0
C784 C 0.11052 0.92214 0.53455 0.0
C785 C 0.12915 0.93255 0.54117 0.0
C786 C 0.14067 0.94927 0.52902 0.0
C787 C 0.1707 0.04992 0.5306 0.0
C788 C 0.18262 0.05254 0.55076 0.0
C789 C 0.16593 0.03559 0.51348 0.0
C790 C 0.17282 0.02346 0.51633 0.0
C791 C 0.18526 0.02642 0.53589 0.0
C792 C 0.1903 0.04099 0.55282 0.0
C793 C 0.16568 0.00683 0.50018 0.0
C794 C 0.15518 0.98946 0.51146 0.0
C795 C 0.16742 0.00808 0.47376 0.0
C796 C 0.17877 0.02605 0.46089 0.0
C797 C 0.1973 0.03777 0.46781 0.0
C798 C 0.20789 0.05471 0.45569 0.0
C799 C 0.20015 0.06006 0.43653 0.0
C800 C 0.1818 0.04845 0.4294 0.0
C801 C 0.17113 0.03149 0.44146 0.0
H802 H 0.20838 0.07318 0.42717 0.0
H803 H 0.10164 0.9092 0.54396 0.0
H804 H 0.86188 0.06112 0.04758 0.0
H805 H 0.84601 0.03655 0.01631 0.0
H806 H 0.87421 0.00892 0.04478 0.0
H807 H 0.89063 0.03371 0.07482 0.0
H808 H 0.87485 0.00722 0.99821 0.0
H809 H 0.82664 0.99486 0.05737 0.0
H810 H 0.80614 0.00183 0.08261 0.0
H811 H 0.78445 0.01212 0.01535 0.0
H812 H 0.80499 0.00542 0.98971 0.0
H813 H 0.78957 0.91457 0.95728 0.0
H814 H 0.8036 0.94137 0.98513 0.0
H815 H 0.84045 0.97423 0.92564 0.0
H816 H 0.82689 0.94726 0.89801 0.0
H817 H 0.80694 0.97397 0.98628 0.0
H818 H 0.88197 0.00514 0.94928 0.0
H819 H 0.90168 0.99463 0.92914 0.0
H820 H 0.86867 0.94078 0.96149 0.0
H821 H 0.84896 0.95106 0.98214 0.0
C822 C 0.86463 0.04977 0.04708 0.0
C823 C 0.87758 0.0494 0.06353 0.0
C824 C 0.8555 0.03568 0.02929 0.0
C825 C 0.85878 0.02073 0.02819 0.0
C826 C 0.87153 0.02033 0.04495 0.0
C827 C 0.8809 0.03453 0.06222 0.0
C828 C 0.84927 0.00549 0.00959 0.0
C829 C 0.86 4e-05 0.9956 0.0
C830 C 0.82985 0.99582 0.0063 0.0
C831 C 0.81749 0.99985 0.02165 0.0
C832 C 0.81759 0.99874 0.04798 0.0
C833 C 0.80595 0.00262 0.06235 0.0
C834 C 0.79404 0.00747 0.05059 0.0
C835 C 0.79371 0.0084 0.02443 0.0
C836 C 0.80534 0.00455 0.00997 0.0
C837 C 0.80064 0.92752 0.95013 0.0
C838 C 0.80726 0.92878 0.92555 0.0
C839 C 0.80859 0.94287 0.96603 0.0
C840 C 0.82324 0.9598 0.95762 0.0
C841 C 0.82941 0.96124 0.93274 0.0
C842 C 0.82163 0.94583 0.91694 0.0
C843 C 0.83254 0.97569 0.97522 0.0
C844 C 0.8218 0.98129 0.98884 0.0
C845 C 0.85189 0.98504 0.97899 0.0
C846 C 0.86387 0.97882 0.967 0.0
C847 C 0.87897 0.99108 0.95217 0.0
C848 C 0.89014 0.98516 0.94066 0.0
C849 C 0.88639 0.96703 0.94396 0.0
C850 C 0.87152 0.9548 0.95888 0.0
C851 C 0.86035 0.96067 0.97048 0.0
H852 H 0.89504 0.96247 0.935 0.0
H853 H 0.78504 0.01046 0.06175 0.0
H854 H 0.97004 0.85575 0.07935 0.0
H855 H 0.99536 0.86473 0.04984 0.0
H856 H 0.96683 0.8104 0.01665 0.0
H857 H 0.94169 0.80104 0.04723 0.0
H858 H 0.00185 0.8216 0.01757 0.0
H859 H 0.96675 0.84863 0.98916 0.0
H860 H 0.95062 0.86645 0.99261 0.0
H861 H 0.00174 0.91517 0.01117 0.0
H862 H 0.01813 0.89758 0.00819 0.0
H863 H 0.05797 0.8844 0.90276 0.0
H864 H 0.0307 0.87027 0.92974 0.0
H865 H 0.06232 0.86262 0.98771 0.0
H866 H 0.08942 0.87605 0.9603 0.0
H867 H 0.02324 0.8801 0.97073 0.0
H868 H 0.03526 0.82668 0.02522 0.0
H869 H 0.04865 0.80667 0.01778 0.0
H870 H 0.03884 0.80673 0.9387 0.0
H871 H 0.02517 0.82653 0.9457 0.0
C872 C 0.96915 0.84568 0.0658 0.0
C873 C 0.95376 0.82776 0.06536 0.0
C874 C 0.98363 0.85086 0.04885 0.0
C875 C 0.98283 0.83843 0.0305 0.0
C876 C 0.96773 0.8203 0.03051 0.0
C877 C 0.95335 0.81496 0.04792 0.0
C878 C 0.99761 0.84464 0.01113 0.0
C879 C 0.0065 0.83436 0.00727 0.0
C880 C 0.00341 0.86104 0.99713 0.0
C881 C 0.99364 0.87175 0.99862 0.0
C882 C 0.97454 0.86313 0.99411 0.0
C883 C 0.96535 0.87319 0.99597 0.0
C884 C 0.97514 0.89192 0.00215 0.0
C885 C 0.99416 0.90065 0.0064 0.0
C886 C 0.00342 0.89065 0.0046 0.0
C887 C 0.05906 0.87957 0.9212 0.0
C888 C 0.0758 0.88126 0.92939 0.0
C889 C 0.04346 0.87152 0.93664 0.0
C890 C 0.0443 0.86515 0.96073 0.0
C891 C 0.06112 0.86699 0.96902 0.0
C892 C 0.07666 0.87479 0.9534 0.0
C893 C 0.02779 0.85727 0.97745 0.0
C894 C 0.01857 0.86727 0.98087 0.0
C895 C 0.02132 0.8403 0.99035 0.0
C896 C 0.02936 0.82824 0.98599 0.0
C897 C 0.0359 0.82236 0.00626 0.0
C898 C 0.04355 0.81107 0.00211 0.0
C899 C 0.04465 0.80548 0.97778 0.0
C900 C 0.03805 0.81112 0.95754 0.0
C901 C 0.03037 0.8224 0.96158 0.0
H902 H 0.05059 0.79674 0.97461 0.0
H903 H 0.968 0.89968 0.0036 0.0
H904 H 0.10542 0.19636 0.95737 0.0
H905 H 0.12112 0.18591 0.98605 0.0
H906 H 0.15769 0.18966 0.92611 0.0
H907 H 0.1407 0.19845 0.89698 0.0
H908 H 0.15195 0.16262 0.94962 0.0
H909 H 0.17065 0.22234 0.97873 0.0
H910 H 0.16848 0.24931 0.9926 0.0
H911 H 0.13634 0.21887 0.05644 0.0
H912 H 0.13808 0.1916 0.04276 0.0
H913 H 0.20483 0.14841 0.04675 0.0
H914 H 0.19807 0.16675 0.0169 0.0
H915 H 0.14309 0.1434 0.04725 0.0
H916 H 0.1495 0.1248 0.07645 0.0
H917 H 0.16483 0.18503 0.03754 0.0
H918 H 0.14692 0.12407 -0.00011 0.0
H919 H 0.15624 0.10181 0.98628 0.0
H920 H 0.19621 0.14214 0.936 0.0
H921 H 0.18748 0.16487 0.94999 0.0
C922 C 0.1168 0.19487 0.95044 0.0
C923 C 0.12197 0.1982 0.92515 0.0
C924 C 0.12596 0.18913 0.96688 0.0
C925 C 0.14108 0.18749 0.95861 0.0
C926 C 0.14616 0.19083 0.93314 0.0
C927 C 0.13651 0.19589 0.91648 0.0
C928 C 0.151 0.18158 0.97634 0.0
C929 C 0.15506 0.1679 0.96864 0.0
C930 C 0.15552 0.18852 0.00121 0.0
C931 C 0.15439 0.20487 0.0096 0.0
C932 C 0.16301 0.22135 0.99563 0.0
C933 C 0.16187 0.2367 0.00348 0.0
C934 C 0.15225 0.23579 0.02536 0.0
C935 C 0.14378 0.21954 0.03948 0.0
C936 C 0.14486 0.20414 0.03171 0.0
C937 C 0.19137 0.14734 0.04713 0.0
C938 C 0.17762 0.13505 0.06373 0.0
C939 C 0.18756 0.15782 0.03016 0.0
C940 C 0.1701 0.15643 0.03 0.0
C941 C 0.15666 0.14472 0.0472 0.0
C942 C 0.1603 0.13398 0.0637 0.0
C943 C 0.16507 0.16594 0.0108 0.0
C944 C 0.16195 0.1802 0.01829 0.0
C945 C 0.16226 0.16022 0.98548 0.0
C946 C 0.16671 0.14621 0.97619 0.0
C947 C 0.15776 0.12822 0.98604 0.0
C948 C 0.16295 0.11551 0.97825 0.0
C949 C 0.17685 0.12055 0.96029 0.0
C950 C 0.18548 0.13827 0.94995 0.0
C951 C 0.18044 0.15108 0.95783 0.0
H952 H 0.18097 0.11076 0.95437 0.0
H953 H 0.15139 0.24769 0.0314 0.0
H954 H 0.91517 0.78407 0.55232 0.0
H955 H 0.94237 0.79675 0.52527 0.0
H956 H 0.97057 0.84363 0.57463 0.0
H957 H 0.94339 0.83085 0.60203 0.0
H958 H 0.95792 0.82748 0.4991 0.0
H959 H 0.01732 0.85949 0.57192 0.0
H960 H 0.02358 0.85385 0.61529 0.0
H961 H 0.98354 0.79628 0.60773 0.0
H962 H 0.97723 0.80153 0.56421 0.0
H963 H 0.04056 0.89512 0.44476 0.0
H964 H 0.01598 0.87895 0.47529 0.0
H965 H 0.02922 0.83542 0.4799 0.0
H966 H 0.05399 0.8515 0.44891 0.0
H967 H 0.02153 0.84698 0.52795 0.0
H968 H 0.99454 0.82589 0.44705 0.0
H969 H 0.98784 0.82902 0.40299 0.0
H970 H 0.96206 0.86009 0.42562 0.0
H971 H 0.96887 0.85732 0.46996 0.0
C972 C 0.92718 0.79704 0.55751 0.0
C973 C 0.92713 0.80647 0.57931 0.0
C974 C 0.94273 0.80428 0.542 0.0
C975 C 0.95859 0.82107 0.54798 0.0
C976 C 0.95861 0.83051 0.56982 0.0
C977 C 0.94304 0.82324 0.58539 0.0
C978 C 0.97472 0.82904 0.5307 0.0
C979 C 0.9718 0.8317 0.50549 0.0
C980 C 0.99284 0.83431 0.53883 0.0
C981 C 0.99669 0.83096 0.56489 0.0
C982 C 0.00991 0.84562 0.57948 0.0
C983 C 0.01346 0.84249 0.6041 0.0
C984 C 0.00393 0.82473 0.61428 0.0
C985 C 0.99087 0.81005 0.59985 0.0
C986 C 0.98728 0.8131 0.57522 0.0
C987 C 0.03844 0.88219 0.45231 0.0
C988 C 0.04925 0.87458 0.44416 0.0
C989 C 0.02433 0.87296 0.4698 0.0
C990 C 0.02071 0.85596 0.47973 0.0
C991 C 0.03183 0.84856 0.47244 0.0
C992 C 0.04591 0.85773 0.45466 0.0
C993 C 0.00465 0.84564 0.49665 0.0
C994 C 0.0076 0.84266 0.5217 0.0
C995 C 0.98647 0.83977 0.48836 0.0
C996 C 0.98238 0.84156 0.46178 0.0
C997 C 0.9876 0.83354 0.44262 0.0
C998 C 0.98375 0.83522 0.41758 0.0
C999 C 0.97456 0.8448 0.41144 0.0
C1000 C 0.9692 0.85269 0.43039 0.0
C1001 C 0.97303 0.85106 0.45549 0.0
H1002 H 0.97156 0.84607 0.39203 0.0
H1003 H 0.00668 0.82234 0.63335 0.0
H1004 H 0.15443 0.19904 0.43581 0.0
H1005 H 0.17087 0.18996 0.46552 0.0
H1006 H 0.11892 0.14898 0.4973 0.0
H1007 H 0.10243 0.1578 0.4676 0.0
H1008 H 0.14687 0.16842 0.53357 0.0
H1009 H 0.13775 0.13567 0.45509 0.0
H1010 H 0.14046 0.13368 0.40926 0.0
H1011 H 0.19955 0.16566 0.41485 0.0
H1012 H 0.19717 0.16807 0.46071 0.0
H1013 H 0.16731 0.10524 0.59269 0.0
H1014 H 0.15472 0.12045 0.56682 0.0
H1015 H 0.20739 0.15188 0.52975 0.0
H1016 H 0.21985 0.1362 0.55504 0.0
H1017 H 0.18142 0.14023 0.49646 0.0
H1018 H 0.19144 0.17135 0.57476 0.0
H1019 H 0.18949 0.17435 0.62053 0.0
H1020 H 0.13037 0.14733 0.61578 0.0
H1021 H 0.13195 0.14394 0.57001 0.0
C1022 C 0.14654 0.18833 0.44942 0.0
C1023 C 0.12712 0.17905 0.44924 0.0
C1024 C 0.15594 0.18311 0.4663 0.0
C1025 C 0.14609 0.16867 0.48342 0.0
C1026 C 0.12678 0.16013 0.48422 0.0
C1027 C 0.11738 0.16515 0.46717 0.0
C1028 C 0.1557 0.16154 0.49936 0.0
C1029 C 0.15434 0.16215 0.52553 0.0
C1030 C 0.16583 0.1538 0.4888 0.0
C1031 C 0.16727 0.15223 0.46127 0.0
C1032 C 0.15131 0.14241 0.44652 0.0
C1033 C 0.15279 0.14118 0.42055 0.0
C1034 C 0.17016 0.14959 0.40914 0.0
C1035 C 0.1861 0.15919 0.4237 0.0
C1036 C 0.1847 0.16048 0.44968 0.0
C1037 C 0.17622 0.11541 0.57907 0.0
C1038 C 0.19459 0.11956 0.57595 0.0
C1039 C 0.16904 0.12421 0.56438 0.0
C1040 C 0.18018 0.1376 0.54659 0.0
C1041 C 0.19852 0.14167 0.54338 0.0
C1042 C 0.20564 0.13272 0.55788 0.0
C1043 C 0.17253 0.14694 0.53088 0.0
C1044 C 0.17418 0.1467 0.50467 0.0
C1045 C 0.16283 0.15519 0.54145 0.0
C1046 C 0.16181 0.15725 0.56897 0.0
C1047 C 0.17802 0.16593 0.5835 0.0
C1048 C 0.17698 0.16771 0.60944 0.0
C1049 C 0.15982 0.161 0.62106 0.0
C1050 C 0.14365 0.15251 0.60675 0.0
C1051 C 0.14461 0.15067 0.5808 0.0
H1052 H 0.15904 0.16239 0.64115 0.0
H1053 H 0.17128 0.14863 0.38903 0.0
H1054 H 0.86927 0.05262 0.60455 0.0
H1055 H 0.85447 0.02549 0.57728 0.0
H1056 H 0.8725 0.06101 0.51216 0.0
H1057 H 0.88597 0.08813 0.5396 0.0
H1058 H 0.84149 0.03432 0.50157 0.0
H1059 H 0.89565 0.03725 0.53766 0.0
H1060 H 0.91616 0.03876 0.57198 0.0
H1061 H 0.87318 0.98713 0.60104 0.0
H1062 H 0.85235 0.98543 0.56705 0.0
H1063 H 0.85568 0.95767 0.44139 0.0
H1064 H 0.86412 0.98278 0.47078 0.0
H1065 H 0.80744 0.97026 0.47374 0.0
H1066 H 0.79886 0.94518 0.44344 0.0
H1067 H 0.85605 0.98444 0.51645 0.0
H1068 H 0.80669 0.01048 0.48521 0.0
H1069 H 0.79061 0.01167 0.44702 0.0
H1070 H 0.83178 0.00968 0.4011 0.0
H1071 H 0.84822 0.00873 0.43898 0.0
C1072 C 0.86992 0.05456 0.58439 0.0
C1073 C 0.87883 0.07238 0.5741 0.0
C1074 C 0.86156 0.03907 0.56879 0.0
C1075 C 0.86273 0.04108 0.54252 0.0
C1076 C 0.87136 0.05899 0.5323 0.0
C1077 C 0.87914 0.07449 0.54795 0.0
C1078 C 0.85557 0.02463 0.52572 0.0
C1079 C 0.84466 0.02341 0.50491 0.0
C1080 C 0.85983 0.0104 0.52968 0.0
C1081 C 0.8724 0.0113 0.54997 0.0
C1082 C 0.89056 0.02626 0.55144 0.0
C1083 C 0.90224 0.02715 0.57083 0.0
C1084 C 0.89596 0.01307 0.58871 0.0
C1085 C 0.87801 0.99804 0.5872 0.0
C1086 C 0.86627 0.9971 0.56787 0.0
C1087 C 0.8449 0.96013 0.44824 0.0
C1088 C 0.82654 0.94934 0.43991 0.0
C1089 C 0.84979 0.97454 0.46519 0.0
C1090 C 0.83649 0.97856 0.47444 0.0
C1091 C 0.81804 0.96763 0.4666 0.0
C1092 C 0.81312 0.95322 0.44937 0.0
C1093 C 0.84223 0.99428 0.49215 0.0
C1094 C 0.85278 0.9953 0.51323 0.0
C1095 C 0.83827 0.00865 0.48783 0.0
C1096 C 0.82852 0.00927 0.46494 0.0
C1097 C 0.81231 0.01032 0.46696 0.0
C1098 C 0.80314 0.01096 0.44537 0.0
C1099 C 0.81013 0.01067 0.42165 0.0
C1100 C 0.82634 0.00982 0.41947 0.0
C1101 C 0.83557 0.0092 0.441 0.0
H1102 H 0.80301 0.01117 0.40497 0.0
H1103 H 0.90502 0.01378 0.60372 0.0
H1104 H 0.76774 0.28667 0.27913 0.0
H1105 H 0.78475 0.3124 0.30772 0.0
H1106 H 0.83135 0.30369 0.30479 0.0
H1107 H 0.81447 0.27783 0.27564 0.0
H1108 H 0.82236 0.31126 0.35448 0.0
H1109 H 0.83506 0.33637 0.27145 0.0
H1110 H 0.82725 0.34113 0.22852 0.0
H1111 H 0.79562 0.36443 0.25814 0.0
H1112 H 0.80299 0.35953 0.30128 0.0
H1113 H 0.87959 0.41809 0.3773 0.0
H1114 H 0.86738 0.39117 0.34961 0.0
H1115 H 0.82293 0.36025 0.40174 0.0
H1116 H 0.83513 0.38709 0.42958 0.0
H1117 H 0.83482 0.3729 0.32571 0.0
H1118 H 0.8119 0.31491 0.40008 0.0
H1119 H 0.82116 0.31043 0.44228 0.0
H1120 H 0.87673 0.35383 0.42853 0.0
H1121 H 0.86788 0.3584 0.38614 0.0
C1122 C 0.78156 0.29004 0.28458 0.0
C1123 C 0.78979 0.28022 0.27478 0.0
C1124 C 0.79126 0.30482 0.30097 0.0
C1125 C 0.80936 0.31007 0.30813 0.0
C1126 C 0.81739 0.29985 0.29939 0.0
C1127 C 0.80773 0.28511 0.28271 0.0
C1128 C 0.81997 0.32673 0.32391 0.0
C1129 C 0.82516 0.32475 0.34822 0.0
C1130 C 0.82386 0.34437 0.31552 0.0
C1131 C 0.81945 0.34742 0.2896 0.0
C1132 C 0.8263 0.34235 0.26882 0.0
C1133 C 0.82198 0.3451 0.24444 0.0
C1134 C 0.81091 0.35304 0.2406 0.0
C1135 C 0.80417 0.35827 0.26114 0.0
C1136 C 0.80843 0.35552 0.28556 0.0
C1137 C 0.86724 0.40554 0.3829 0.0
C1138 C 0.85833 0.4047 0.40565 0.0
C1139 C 0.86027 0.39018 0.36703 0.0
C1140 C 0.84435 0.37363 0.3737 0.0
C1141 C 0.83539 0.37278 0.39638 0.0
C1142 C 0.84232 0.38816 0.41221 0.0
C1143 C 0.83684 0.35741 0.35663 0.0
C1144 C 0.83216 0.35945 0.33202 0.0
C1145 C 0.83363 0.3399 0.36468 0.0
C1146 C 0.83917 0.3371 0.39002 0.0
C1147 C 0.82612 0.32344 0.40602 0.0
C1148 C 0.83129 0.3209 0.42998 0.0
C1149 C 0.84951 0.33187 0.4381 0.0
C1150 C 0.86261 0.34538 0.42225 0.0
C1151 C 0.85751 0.34797 0.39827 0.0
H1152 H 0.85348 0.32989 0.45666 0.0
H1153 H 0.80759 0.35516 0.22172 0.0
H1154 H 0.60611 0.44094 0.42325 0.0
H1155 H 0.63356 0.45551 0.39657 0.0
H1156 H 0.61101 0.4847 0.35674 0.0
H1157 H 0.58326 0.46965 0.38278 0.0
H1158 H 0.62442 0.47177 0.32466 0.0
H1159 H 0.64781 0.50641 0.39998 0.0
H1160 H 0.65427 0.51162 0.44529 0.0
H1161 H 0.68656 0.48476 0.44186 0.0
H1162 H 0.68009 0.47916 0.39656 0.0
H1163 H 0.70933 0.52924 0.25927 0.0
H1164 H 0.68366 0.52029 0.28878 0.0
H1165 H 0.69578 0.48087 0.32314 0.0
H1166 H 0.72119 0.48951 0.29364 0.0
H1167 H 0.68829 0.5018 0.35813 0.0
H1168 H 0.66219 0.4655 0.28279 0.0
H1169 H 0.65445 0.45994 0.23785 0.0
H1170 H 0.627 0.49166 0.24189 0.0
H1171 H 0.63476 0.49756 0.28687 0.0
C1172 C 0.60704 0.45052 0.40887 0.0
C1173 C 0.59252 0.45415 0.40511 0.0
C1174 C 0.62282 0.45896 0.39372 0.0
C1175 C 0.62456 0.47147 0.37482 0.0
C1176 C 0.61006 0.47514 0.37117 0.0
C1177 C 0.5942 0.46654 0.3861 0.0
C1178 C 0.64109 0.4801 0.35816 0.0
C1179 C 0.63837 0.47867 0.33207 0.0
C1180 C 0.65937 0.48887 0.36767 0.0
C1181 C 0.66333 0.49223 0.3949 0.0
C1182 C 0.65618 0.50149 0.40892 0.0
C1183 C 0.65986 0.50454 0.43459 0.0
C1184 C 0.67078 0.49849 0.44646 0.0
C1185 C 0.67809 0.48942 0.43265 0.0
C1186 C 0.67443 0.48632 0.40696 0.0
C1187 C 0.70666 0.51883 0.27332 0.0
C1188 C 0.71724 0.51002 0.27405 0.0
C1189 C 0.69195 0.51368 0.29007 0.0
C1190 C 0.68775 0.49983 0.30803 0.0
C1191 C 0.69876 0.49157 0.30943 0.0
C1192 C 0.71324 0.49649 0.29249 0.0
C1193 C 0.67149 0.49334 0.32483 0.0
C1194 C 0.6743 0.49514 0.35088 0.0
C1195 C 0.65329 0.48512 0.31532 0.0
C1196 C 0.64926 0.48217 0.2881 0.0
C1197 C 0.65473 0.4715 0.27402 0.0
C1198 C 0.65027 0.46822 0.24856 0.0
C1199 C 0.64026 0.47546 0.237 0.0
C1200 C 0.63477 0.48607 0.25086 0.0
C1201 C 0.63919 0.48938 0.27633 0.0
H1202 H 0.63666 0.47278 0.21735 0.0
H1203 H 0.67362 0.50086 0.46634 0.0
H1204 H 0.53997 0.12073 0.37832 0.0
H1205 H 0.52678 0.13415 0.35005 0.0
H1206 H 0.53493 0.17459 0.4064 0.0
H1207 H 0.54874 0.16163 0.43436 0.0
H1208 H 0.49833 0.13902 0.34981 0.0
H1209 H 0.54646 0.21526 0.37952 0.0
H1210 H 0.57782 0.23481 0.39664 0.0
H1211 H 0.59483 0.19835 0.36539 0.0
H1212 H 0.56369 0.17875 0.3478 0.0
H1213 H 0.46675 0.19416 0.28734 0.0
H1214 H 0.47587 0.17868 0.31871 0.0
H1215 H 0.53028 0.20362 0.28569 0.0
H1216 H 0.52157 0.21973 0.25558 0.0
H1217 H 0.53478 0.20611 0.3318 0.0
H1218 H 0.49476 0.156 0.2777 0.0
H1219 H 0.46586 0.13526 0.25528 0.0
H1220 H 0.43691 0.11768 0.32544 0.0
H1221 H 0.46561 0.13849 0.34826 0.0
C1222 C 0.5389 0.13245 0.38469 0.0
C1223 C 0.54556 0.14025 0.40845 0.0
C1224 C 0.53127 0.14005 0.36856 0.0
C1225 C 0.53005 0.15554 0.37593 0.0
C1226 C 0.53604 0.16288 0.40007 0.0
C1227 C 0.54389 0.15544 0.41607 0.0
C1228 C 0.52331 0.16449 0.35797 0.0
C1229 C 0.50627 0.15371 0.3459 0.0
C1230 C 0.53381 0.18357 0.35241 0.0
C1231 C 0.55268 0.19543 0.36261 0.0
C1232 C 0.55692 0.21146 0.37624 0.0
C1233 C 0.57465 0.22255 0.38603 0.0
C1234 C 0.58828 0.21779 0.38219 0.0
C1235 C 0.58424 0.20198 0.36844 0.0
C1236 C 0.56655 0.19087 0.35857 0.0
C1237 C 0.48062 0.19627 0.28688 0.0
C1238 C 0.49348 0.20825 0.26915 0.0
C1239 C 0.48582 0.18736 0.30471 0.0
C1240 C 0.50378 0.18985 0.30458 0.0
C1241 C 0.51642 0.20158 0.2865 0.0
C1242 C 0.5114 0.21077 0.2692 0.0
C1243 C 0.50979 0.18066 0.32332 0.0
C1244 C 0.52672 0.19144 0.33572 0.0
C1245 C 0.49953 0.16145 0.32832 0.0
C1246 C 0.48227 0.14895 0.31466 0.0
C1247 C 0.4822 0.14781 0.28833 0.0
C1248 C 0.46586 0.13603 0.27555 0.0
C1249 C 0.44955 0.1252 0.28892 0.0
C1250 C 0.44955 0.1261 0.3151 0.0
C1251 C 0.46585 0.13787 0.32797 0.0
H1252 H 0.43692 0.11609 0.27899 0.0
H1253 H 0.60199 0.22637 0.38981 0.0
H1254 H 0.60906 0.47862 0.88376 0.0
H1255 H 0.63292 0.49405 0.85148 0.0
H1256 H 0.65316 0.4566 0.86647 0.0
H1257 H 0.62917 0.44084 0.89778 0.0
H1258 H 0.66867 0.51256 0.85133 0.0
H1259 H 0.66945 0.4468 0.81606 0.0
H1260 H 0.64737 0.41363 0.8101 0.0
H1261 H 0.6027 0.4249 0.8049 0.0
H1262 H 0.62452 0.45815 0.81045 0.0
H1263 H 0.75317 0.53911 0.79061 0.0
H1264 H 0.72568 0.5259 0.81719 0.0
H1265 H 0.69175 0.49773 0.75292 0.0
H1266 H 0.71943 0.51 0.72671 0.0
H1267 H 0.6796 0.47561 0.78799 0.0
H1268 H 0.69411 0.53803 0.78247 0.0
H1269 H 0.7134 0.57194 0.78443 0.0
H1270 H 0.72246 0.56882 0.86314 0.0
H1271 H 0.70343 0.53487 0.86159 0.0
C1272 C 0.61856 0.47365 0.88005 0.0
C1273 C 0.61704 0.45834 0.89315 0.0
C1274 C 0.63222 0.4825 0.86164 0.0
C1275 C 0.64465 0.47628 0.85613 0.0
C1276 C 0.64344 0.46136 0.86977 0.0
C1277 C 0.6297 0.45238 0.88781 0.0
C1278 C 0.65908 0.48533 0.83641 0.0
C1279 C 0.67101 0.50451 0.83737 0.0
C1280 C 0.66182 0.47496 0.81762 0.0
C1281 C 0.64863 0.45497 0.81388 0.0
C1282 C 0.65493 0.44222 0.8135 0.0
C1283 C 0.64246 0.4234 0.81022 0.0
C1284 C 0.62364 0.41716 0.80719 0.0
C1285 C 0.61727 0.42974 0.80734 0.0
C1286 C 0.62968 0.44857 0.81057 0.0
C1287 C 0.73982 0.53015 0.78219 0.0
C1288 C 0.73839 0.5256 0.75661 0.0
C1289 C 0.72406 0.52271 0.79735 0.0
C1290 C 0.70646 0.51107 0.78708 0.0
C1291 C 0.70509 0.50665 0.76141 0.0
C1292 C 0.72091 0.5137 0.7464 0.0
C1293 C 0.68962 0.50285 0.80328 0.0
C1294 C 0.67721 0.48377 0.8017 0.0
C1295 C 0.68604 0.51345 0.8208 0.0
C1296 C 0.69745 0.53388 0.82186 0.0
C1297 C 0.70031 0.54457 0.80017 0.0
C1298 C 0.71119 0.5638 0.80121 0.0
C1299 C 0.71918 0.57252 0.82388 0.0
C1300 C 0.71627 0.56204 0.84558 0.0
C1301 C 0.70542 0.5428 0.84464 0.0
H1302 H 0.72759 0.58741 0.82465 0.0
H1303 H 0.614 0.40258 0.80469 0.0
H1304 H 0.44982 0.19825 0.77654 0.0
H1305 H 0.46263 0.18357 0.80307 0.0
H1306 H 0.51485 0.21369 0.7645 0.0
H1307 H 0.50181 0.22782 0.73721 0.0
H1308 H 0.50812 0.18039 0.77249 0.0
H1309 H 0.50653 0.22646 0.82404 0.0
H1310 H 0.4925 0.24291 0.84455 0.0
H1311 H 0.45496 0.19354 0.88435 0.0
H1312 H 0.46862 0.17671 0.86379 0.0
H1313 H 0.56685 0.17808 0.86789 0.0
H1314 H 0.55049 0.18675 0.83772 0.0
H1315 H 0.49839 0.14616 0.86952 0.0
H1316 H 0.51468 0.13718 0.8997 0.0
H1317 H 0.50348 0.1826 0.8651 0.0
H1318 H 0.5082 0.1377 0.81436 0.0
H1319 H 0.52442 0.12322 0.7944 0.0
H1320 H 0.55893 0.17324 0.75381 0.0
H1321 H 0.54309 0.18812 0.77381 0.0
C1322 C 0.46402 0.20171 0.77368 0.0
C1323 C 0.47485 0.21427 0.7549 0.0
C1324 C 0.47137 0.19337 0.78895 0.0
C1325 C 0.48984 0.19775 0.78615 0.0
C1326 C 0.50058 0.21008 0.76709 0.0
C1327 C 0.49313 0.21821 0.75154 0.0
C1328 C 0.49803 0.18964 0.80323 0.0
C1329 C 0.50725 0.18106 0.79273 0.0
C1330 C 0.49666 0.19018 0.8297 0.0
C1331 C 0.48847 0.20027 0.84217 0.0
C1332 C 0.4952 0.21907 0.83702 0.0
C1333 C 0.48732 0.22847 0.84867 0.0
C1334 C 0.47281 0.21926 0.86569 0.0
C1335 C 0.46618 0.20065 0.87113 0.0
C1336 C 0.47399 0.19117 0.8595 0.0
C1337 C 0.55189 0.17082 0.86831 0.0
C1338 C 0.54206 0.15696 0.88623 0.0
C1339 C 0.54257 0.17577 0.851 0.0
C1340 C 0.52324 0.16708 0.85138 0.0
C1341 C 0.51332 0.153 0.86892 0.0
C1342 C 0.52264 0.14783 0.88604 0.0
C1343 C 0.51358 0.17349 0.8343 0.0
C1344 C 0.50416 0.18181 0.84483 0.0
C1345 C 0.51507 0.17302 0.80791 0.0
C1346 C 0.52455 0.16407 0.79576 0.0
C1347 C 0.51935 0.14566 0.80134 0.0
C1348 C 0.52845 0.13737 0.78998 0.0
C1349 C 0.54272 0.14731 0.77289 0.0
C1350 C 0.54788 0.16556 0.76707 0.0
C1351 C 0.53883 0.17392 0.77839 0.0
H1352 H 0.54975 0.14087 0.76412 0.0
H1353 H 0.46674 0.22656 0.87469 0.0
H1354 H 0.86134 0.37646 0.90192 0.0
H1355 H 0.85206 0.35143 0.87146 0.0
H1356 H 0.81244 0.36443 0.83961 0.0
H1357 H 0.82119 0.38892 0.87049 0.0
H1358 H 0.79652 0.32928 0.84639 0.0
H1359 H 0.85384 0.37406 0.80919 0.0
H1360 H 0.88724 0.3964 0.80771 0.0
H1361 H 0.89903 0.35338 0.82627 0.0
H1362 H 0.86567 0.33082 0.82819 0.0
H1363 H 0.77529 0.27519 0.73587 0.0
H1364 H 0.78871 0.30231 0.76327 0.0
H1365 H 0.81786 0.28033 0.80435 0.0
H1366 H 0.8043 0.25301 0.77721 0.0
H1367 H 0.83939 0.31946 0.7928 0.0
H1368 H 0.78102 0.27458 0.82822 0.0
H1369 H 0.74761 0.25258 0.82544 0.0
H1370 H 0.73765 0.29696 0.80792 0.0
H1371 H 0.77111 0.31917 0.8097 0.0
C1372 C 0.85086 0.37415 0.88817 0.0
C1373 C 0.84197 0.38465 0.88867 0.0
C1374 C 0.84556 0.35984 0.87072 0.0
C1375 C 0.83156 0.35602 0.8531 0.0
C1376 C 0.82317 0.36696 0.85307 0.0
C1377 C 0.82825 0.38104 0.87069 0.0
C1378 C 0.82496 0.34013 0.83548 0.0
C1379 C 0.80592 0.32733 0.83446 0.0
C1380 C 0.83719 0.33726 0.82022 0.0
C1381 C 0.85725 0.35079 0.81909 0.0
C1382 C 0.86355 0.36939 0.81316 0.0
C1383 C 0.88248 0.38209 0.8122 0.0
C1384 C 0.89525 0.37632 0.81696 0.0
C1385 C 0.88912 0.35783 0.82263 0.0
C1386 C 0.8702 0.34508 0.82363 0.0
C1387 C 0.78464 0.27617 0.75063 0.0
C1388 C 0.78864 0.26192 0.75453 0.0
C1389 C 0.7923 0.29167 0.76624 0.0
C1390 C 0.8042 0.29326 0.78587 0.0
C1391 C 0.80872 0.27936 0.78927 0.0
C1392 C 0.80089 0.26374 0.77386 0.0
C1393 C 0.81109 0.30893 0.80367 0.0
C1394 C 0.8301 0.32155 0.80478 0.0
C1395 C 0.79884 0.31176 0.81883 0.0
C1396 C 0.77863 0.29853 0.81881 0.0
C1397 C 0.77174 0.27965 0.82358 0.0
C1398 C 0.75278 0.26713 0.82217 0.0
C1399 C 0.74051 0.27336 0.81647 0.0
C1400 C 0.74718 0.29215 0.81228 0.0
C1401 C 0.76615 0.3047 0.81344 0.0
H1402 H 0.72584 0.26364 0.81535 0.0
H1403 H 0.9099 0.38617 0.8162 0.0
H1404 H 0.51324 0.38309 0.39063 0.0
H1405 H 0.49705 0.35881 0.3592 0.0
H1406 H 0.54807 0.36045 0.34076 0.0
H1407 H 0.56434 0.3847 0.37173 0.0
H1408 H 0.52715 0.35692 0.29869 0.0
H1409 H 0.51761 0.32925 0.3825 0.0
H1410 H 0.50661 0.32599 0.42617 0.0
H1411 H 0.45185 0.30899 0.39985 0.0
H1412 H 0.46262 0.31251 0.35602 0.0
H1413 H 0.50256 0.27184 0.24212 0.0
H1414 H 0.51478 0.29945 0.26826 0.0
H1415 H 0.45951 0.28316 0.29306 0.0
H1416 H 0.44747 0.25487 0.26821 0.0
H1417 H 0.4796 0.29557 0.33047 0.0
H1418 H 0.4859 0.32006 0.24841 0.0
H1419 H 0.49482 0.32539 0.20378 0.0
H1420 H 0.55199 0.34994 0.22421 0.0
H1421 H 0.5434 0.34453 0.26897 0.0
C1422 C 0.52106 0.37846 0.37965 0.0
C1423 C 0.54007 0.38573 0.38395 0.0
C1424 C 0.51177 0.36454 0.36175 0.0
C1425 C 0.52132 0.35766 0.34786 0.0
C1426 C 0.54042 0.36551 0.35129 0.0
C1427 C 0.54967 0.37933 0.36915 0.0
C1428 C 0.51148 0.34154 0.33086 0.0
C1429 C 0.5168 0.34346 0.30558 0.0
C1430 C 0.4975 0.32416 0.33967 0.0
C1431 C 0.49095 0.32132 0.36602 0.0
C1432 C 0.50324 0.32487 0.38605 0.0
C1433 C 0.49705 0.323 0.41082 0.0
C1434 C 0.47855 0.31735 0.41578 0.0
C1435 C 0.46618 0.31341 0.39598 0.0
C1436 C 0.47232 0.31535 0.37118 0.0
C1437 C 0.49304 0.27419 0.25312 0.0
C1438 C 0.47408 0.26126 0.2531 0.0
C1439 C 0.5 0.29009 0.26793 0.0
C1440 C 0.48807 0.29375 0.2823 0.0
C1441 C 0.46907 0.28077 0.28219 0.0
C1442 C 0.46217 0.26461 0.26793 0.0
C1443 C 0.49547 0.31074 0.2981 0.0
C1444 C 0.48974 0.30901 0.32325 0.0
C1445 C 0.50873 0.32841 0.28896 0.0
C1446 C 0.51399 0.33175 0.26205 0.0
C1447 C 0.50037 0.32648 0.24339 0.0
C1448 C 0.50537 0.32953 0.21806 0.0
C1449 C 0.52396 0.33796 0.21117 0.0
C1450 C 0.53759 0.3434 0.22958 0.0
C1451 C 0.53267 0.34037 0.25494 0.0
H1452 H 0.5278 0.34031 0.19155 0.0
H1453 H 0.47377 0.31602 0.43494 0.0
H1454 H 0.72386 0.2218 0.23682 0.0
H1455 H 0.69688 0.20851 0.26443 0.0
H1456 H 0.72112 0.18318 0.30924 0.0
H1457 H 0.74829 0.19657 0.28175 0.0
H1458 H 0.68262 0.15957 0.29871 0.0
H1459 H 0.72415 0.22046 0.33029 0.0
H1460 H 0.74438 0.25414 0.32605 0.0
H1461 H 0.69808 0.2594 0.30264 0.0
H1462 H 0.67763 0.22569 0.30624 0.0
H1463 H 0.62355 0.13907 0.40536 0.0
H1464 H 0.64913 0.14838 0.37585 0.0
H1465 H 0.63374 0.1845 0.33849 0.0
H1466 H 0.6087 0.17582 0.36855 0.0
H1467 H 0.66858 0.20234 0.34557 0.0
H1468 H 0.62697 0.14208 0.31259 0.0
H1469 H 0.6065 0.1083 0.314 0.0
H1470 H 0.65189 0.10163 0.33777 0.0
H1471 H 0.67259 0.1354 0.33682 0.0
C1472 C 0.72343 0.21334 0.25248 0.0
C1473 C 0.73825 0.21033 0.25723 0.0
C1474 C 0.70801 0.20577 0.26823 0.0
C1475 C 0.70707 0.19496 0.28895 0.0
C1476 C 0.72159 0.19147 0.29333 0.0
C1477 C 0.73712 0.1992 0.2777 0.0
C1478 C 0.69125 0.18798 0.30657 0.0
C1479 C 0.67962 0.16887 0.30924 0.0
C1480 C 0.6872 0.20017 0.31982 0.0
C1481 C 0.69938 0.22052 0.31832 0.0
C1482 C 0.7183 0.22878 0.32408 0.0
C1483 C 0.72981 0.24788 0.3218 0.0
C1484 C 0.72253 0.25889 0.31403 0.0
C1485 C 0.70371 0.25084 0.30863 0.0
C1486 C 0.69215 0.23174 0.31079 0.0
C1487 C 0.62546 0.14877 0.3906 0.0
C1488 C 0.61414 0.15674 0.38931 0.0
C1489 C 0.64009 0.15408 0.37367 0.0
C1490 C 0.64338 0.1671 0.35474 0.0
C1491 C 0.63162 0.17454 0.35296 0.0
C1492 C 0.61725 0.1695 0.37011 0.0
C1493 C 0.65958 0.17377 0.33761 0.0
C1494 C 0.67142 0.19293 0.33509 0.0
C1495 C 0.6637 0.16159 0.32433 0.0
C1496 C 0.65129 0.14128 0.32488 0.0
C1497 C 0.63256 0.13342 0.31831 0.0
C1498 C 0.62092 0.11427 0.31899 0.0
C1499 C 0.62788 0.10283 0.32604 0.0
C1500 C 0.64651 0.11051 0.33235 0.0
C1501 C 0.65821 0.12965 0.33172 0.0
H1502 H 0.61884 0.08801 0.32655 0.0
H1503 H 0.73147 0.27367 0.31225 0.0
H1504 H 0.81129 0.44581 0.40678 0.0
H1505 H 0.8031 0.46214 0.37628 0.0
H1506 H 0.85895 0.48991 0.34799 0.0
H1507 H 0.86748 0.47404 0.37959 0.0
H1508 H 0.84657 0.51298 0.34764 0.0
H1509 H 0.82316 0.45209 0.31676 0.0
H1510 H 0.80652 0.41807 0.31815 0.0
H1511 H 0.75568 0.41733 0.33304 0.0
H1512 H 0.77206 0.45137 0.33208 0.0
H1513 H 0.78542 0.50675 0.23057 0.0
H1514 H 0.80016 0.49397 0.25705 0.0
H1515 H 0.80474 0.53075 0.31699 0.0
H1516 H 0.79072 0.54411 0.29012 0.0
H1517 H 0.79022 0.4754 0.29678 0.0
H1518 H 0.8402 0.54021 0.35565 0.0
H1519 H 0.85932 0.5739 0.34995 0.0
H1520 H 0.86162 0.56643 0.27059 0.0
H1521 H 0.84274 0.53269 0.27584 0.0
C1522 C 0.82188 0.45541 0.39411 0.0
C1523 C 0.83998 0.45844 0.39535 0.0
C1524 C 0.81715 0.46471 0.37657 0.0
C1525 C 0.83025 0.47689 0.35929 0.0
C1526 C 0.84855 0.48047 0.36099 0.0
C1527 C 0.85341 0.47138 0.37899 0.0
C1528 C 0.82453 0.48551 0.33936 0.0
C1529 C 0.8343 0.50477 0.33644 0.0
C1530 C 0.80883 0.4748 0.32412 0.0
C1531 C 0.79887 0.4543 0.3245 0.0
C1532 C 0.80845 0.44468 0.32046 0.0
C1533 C 0.79906 0.42539 0.32116 0.0
C1534 C 0.78006 0.41555 0.32571 0.0
C1535 C 0.7704 0.42497 0.32952 0.0
C1536 C 0.77972 0.44427 0.32886 0.0
C1537 C 0.7897 0.5122 0.24934 0.0
C1538 C 0.78697 0.52646 0.25825 0.0
C1539 C 0.79811 0.50486 0.2645 0.0
C1540 C 0.80381 0.5115 0.289 0.0
C1541 C 0.80092 0.52566 0.29799 0.0
C1542 C 0.79277 0.53321 0.28268 0.0
C1543 C 0.81194 0.50298 0.30548 0.0
C1544 C 0.80259 0.48367 0.30778 0.0
C1545 C 0.82838 0.51363 0.31943 0.0
C1546 C 0.8399 0.53392 0.31614 0.0
C1547 C 0.84485 0.54575 0.337 0.0
C1548 C 0.85564 0.56486 0.33384 0.0
C1549 C 0.86163 0.5723 0.30991 0.0
C1550 C 0.85691 0.56065 0.2891 0.0
C1551 C 0.84615 0.54153 0.29215 0.0
H1552 H 0.86997 0.5871 0.30751 0.0
H1553 H 0.77283 0.40061 0.32626 0.0
H1554 H 0.5812 0.12945 0.8707 0.0
H1555 H 0.60943 0.14335 0.84553 0.0
H1556 H 0.6418 0.16727 0.91253 0.0
H1557 H 0.61343 0.15448 0.93732 0.0
H1558 H 0.65599 0.191 0.88016 0.0
H1559 H 0.63868 0.12777 0.87885 0.0
H1560 H 0.61841 0.09421 0.87335 0.0
H1561 H 0.61205 0.10228 0.79521 0.0
H1562 H 0.63209 0.13592 0.80032 0.0
H1563 H 0.72542 0.18846 0.7807 0.0
H1564 H 0.70176 0.17295 0.81314 0.0
H1565 H 0.68562 0.21429 0.8051 0.0
H1566 H 0.70949 0.23014 0.77383 0.0
H1567 H 0.66666 0.15644 0.81285 0.0
H1568 H 0.66881 0.22189 0.85562 0.0
H1569 H 0.69201 0.25397 0.86638 0.0
H1570 H 0.73394 0.23876 0.87099 0.0
H1571 H 0.71101 0.20659 0.86036 0.0
C1572 C 0.59438 0.13765 0.87999 0.0
C1573 C 0.59518 0.14087 0.90592 0.0
C1574 C 0.61056 0.14548 0.86564 0.0
C1575 C 0.62794 0.1561 0.87708 0.0
C1576 C 0.62866 0.15919 0.90311 0.0
C1577 C 0.61244 0.15183 0.91732 0.0
C1578 C 0.64527 0.1646 0.86183 0.0
C1579 C 0.65831 0.18334 0.86557 0.0
C1580 C 0.64881 0.15462 0.84324 0.0
C1581 C 0.63679 0.13439 0.84002 0.0
C1582 C 0.63287 0.1224 0.86053 0.0
C1583 C 0.62143 0.10336 0.85748 0.0
C1584 C 0.61392 0.09612 0.83396 0.0
C1585 C 0.61787 0.10791 0.81342 0.0
C1586 C 0.62929 0.12696 0.81638 0.0
C1587 C 0.71695 0.19434 0.78608 0.0
C1588 C 0.71947 0.21061 0.77468 0.0
C1589 C 0.70338 0.18543 0.80459 0.0
C1590 C 0.69202 0.19256 0.81195 0.0
C1591 C 0.69448 0.20873 0.8004 0.0
C1592 C 0.70814 0.21774 0.78228 0.0
C1593 C 0.67701 0.18287 0.83082 0.0
C1594 C 0.66441 0.16396 0.8277 0.0
C1595 C 0.6743 0.19246 0.85076 0.0
C1596 C 0.68819 0.21184 0.85705 0.0
C1597 C 0.68297 0.22538 0.85901 0.0
C1598 C 0.69608 0.24358 0.86505 0.0
C1599 C 0.71443 0.2484 0.86936 0.0
C1600 C 0.71972 0.23502 0.8676 0.0
C1601 C 0.70669 0.21681 0.86147 0.0
H1602 H 0.72456 0.2625 0.87402 0.0
H1603 H 0.60506 0.08138 0.83163 0.0
H1604 H 0.83082 0.43844 0.92598 0.0
H1605 H 0.81771 0.45187 0.89756 0.0
H1606 H 0.8701 0.48216 0.85965 0.0
H1607 H 0.88327 0.46851 0.88778 0.0
H1608 H 0.85179 0.50324 0.87112 0.0
H1609 H 0.84031 0.4468 0.83168 0.0
H1610 H 0.82937 0.41343 0.83034 0.0
H1611 H 0.77434 0.40149 0.84783 0.0
H1612 H 0.78503 0.43482 0.84969 0.0
H1613 H 0.81729 0.52763 0.76325 0.0
H1614 H 0.83318 0.5179 0.79284 0.0
H1615 H 0.78063 0.47659 0.82289 0.0
H1616 H 0.76473 0.48584 0.79293 0.0
H1617 H 0.80061 0.46161 0.8146 0.0
H1618 H 0.81151 0.51746 0.85525 0.0
H1619 H 0.8221 0.5507 0.85846 0.0
H1620 H 0.8774 0.56376 0.84045 0.0
H1621 H 0.86709 0.53058 0.83681 0.0
C1622 C 0.83958 0.448 0.91166 0.0
C1623 C 0.85804 0.45235 0.90901 0.0
C1624 C 0.83207 0.45565 0.89545 0.0
C1625 C 0.84293 0.46794 0.87648 0.0
C1626 C 0.86151 0.47272 0.8742 0.0
C1627 C 0.86897 0.46485 0.89019 0.0
C1628 C 0.83463 0.47526 0.85854 0.0
C1629 C 0.84076 0.49423 0.85848 0.0
C1630 C 0.82003 0.46339 0.84248 0.0
C1631 C 0.81351 0.44332 0.84106 0.0
C1632 C 0.8259 0.43707 0.83545 0.0
C1633 C 0.81975 0.41816 0.83456 0.0
C1634 C 0.80118 0.40535 0.83905 0.0
C1635 C 0.78873 0.41143 0.84438 0.0
C1636 C 0.79482 0.43033 0.84534 0.0
C1637 C 0.80915 0.51665 0.77641 0.0
C1638 C 0.78974 0.50747 0.77567 0.0
C1639 C 0.81825 0.51111 0.79337 0.0
C1640 C 0.80813 0.49653 0.81023 0.0
C1641 C 0.78877 0.48778 0.81 0.0
C1642 C 0.77968 0.49313 0.79289 0.0
C1643 C 0.81751 0.4897 0.82732 0.0
C1644 C 0.81163 0.47074 0.82717 0.0
C1645 C 0.83226 0.50159 0.8433 0.0
C1646 C 0.83849 0.52154 0.84549 0.0
C1647 C 0.8259 0.52742 0.85177 0.0
C1648 C 0.83186 0.54625 0.85371 0.0
C1649 C 0.8504 0.55933 0.84959 0.0
C1650 C 0.86303 0.55361 0.84359 0.0
C1651 C 0.85714 0.5348 0.84161 0.0
H1652 H 0.85498 0.5739 0.8511 0.0
H1653 H 0.79644 0.39071 0.83836 0.0
H1654 H 0.54034 0.38766 0.93825 0.0
H1655 H 0.52599 0.36042 0.91115 0.0
H1656 H 0.53678 0.39553 0.84651 0.0
H1657 H 0.54992 0.42263 0.87388 0.0
H1658 H 0.50624 0.36724 0.83891 0.0
H1659 H 0.56468 0.37562 0.86473 0.0
H1660 H 0.58898 0.37959 0.89451 0.0
H1661 H 0.55226 0.32667 0.92709 0.0
H1662 H 0.52766 0.32249 0.89769 0.0
H1663 H 0.52305 0.29465 0.77087 0.0
H1664 H 0.53177 0.31941 0.80085 0.0
H1665 H 0.47446 0.30342 0.8109 0.0
H1666 H 0.46557 0.27873 0.77982 0.0
H1667 H 0.52679 0.32119 0.847 0.0
H1668 H 0.47107 0.34131 0.82587 0.0
H1669 H 0.45198 0.34099 0.79033 0.0
H1670 H 0.49217 0.34294 0.73835 0.0
H1671 H 0.51156 0.34348 0.77355 0.0
C1672 C 0.53953 0.3895 0.91826 0.0
C1673 C 0.54631 0.40721 0.9081 0.0
C1674 C 0.53142 0.37394 0.90273 0.0
C1675 C 0.53061 0.37584 0.8766 0.0
C1676 C 0.53716 0.39359 0.86655 0.0
C1677 C 0.54476 0.4091 0.88218 0.0
C1678 C 0.52346 0.35947 0.85965 0.0
C1679 C 0.51072 0.35716 0.84077 0.0
C1680 C 0.5295 0.34641 0.86156 0.0
C1681 C 0.54427 0.34883 0.8792 0.0
C1682 C 0.56176 0.36488 0.87835 0.0
C1683 C 0.57559 0.36717 0.89515 0.0
C1684 C 0.57215 0.35341 0.91273 0.0
C1685 C 0.55489 0.33732 0.91349 0.0
C1686 C 0.541 0.33498 0.89676 0.0
C1687 C 0.51219 0.29625 0.77943 0.0
C1688 C 0.49356 0.28463 0.77282 0.0
C1689 C 0.51724 0.31048 0.79672 0.0
C1690 C 0.50384 0.31345 0.80814 0.0
C1691 C 0.48513 0.30164 0.80207 0.0
C1692 C 0.48004 0.28746 0.78439 0.0
C1693 C 0.50976 0.32908 0.82609 0.0
C1694 C 0.5222 0.33119 0.84527 0.0
C1695 C 0.50419 0.34245 0.82361 0.0
C1696 C 0.49262 0.34218 0.80234 0.0
C1697 C 0.47582 0.34169 0.80685 0.0
C1698 C 0.46496 0.34148 0.78676 0.0
C1699 C 0.47082 0.34187 0.76209 0.0
C1700 C 0.48759 0.34255 0.75745 0.0
C1701 C 0.49851 0.34278 0.77746 0.0
H1702 H 0.46238 0.34169 0.74657 0.0
H1703 H 0.58287 0.3552 0.92572 0.0
H1704 H 0.48488 0.6236 0.5926 0.0
H1705 H 0.50139 0.64947 0.62167 0.0
H1706 H 0.45051 0.6332 0.66136 0.0
H1707 H 0.43392 0.60786 0.63188 0.0
H1708 H 0.46639 0.66797 0.65171 0.0
H1709 H 0.48756 0.62844 0.68593 0.0
H1710 H 0.50213 0.60907 0.6846 0.0
H1711 H 0.55284 0.65542 0.65895 0.0
H1712 H 0.53851 0.67501 0.65983 0.0
H1713 H 0.5006 0.72548 0.75799 0.0
H1714 H 0.48753 0.69834 0.73076 0.0
H1715 H 0.53824 0.7221 0.68837 0.0
H1716 H 0.55146 0.74936 0.71564 0.0
H1717 H 0.52402 0.68462 0.69827 0.0
H1718 H 0.50297 0.72387 0.66389 0.0
H1719 H 0.48875 0.74352 0.66536 0.0
H1720 H 0.43794 0.6976 0.69159 0.0
H1721 H 0.45192 0.67768 0.69041 0.0
C1722 C 0.47731 0.62536 0.60783 0.0
C1723 C 0.45809 0.61376 0.60988 0.0
C1724 C 0.48677 0.64015 0.62448 0.0
C1725 C 0.47723 0.64332 0.64381 0.0
C1726 C 0.45818 0.63117 0.64652 0.0
C1727 C 0.44871 0.61663 0.6297 0.0
C1728 C 0.48664 0.65995 0.66017 0.0
C1729 C 0.47883 0.67138 0.66217 0.0
C1730 C 0.50326 0.66489 0.67318 0.0
C1731 C 0.5119 0.65314 0.67271 0.0
C1732 C 0.50178 0.63446 0.67983 0.0
C1733 C 0.51 0.62346 0.67919 0.0
C1734 C 0.52838 0.631 0.67163 0.0
C1735 C 0.5386 0.64959 0.66477 0.0
C1736 C 0.53044 0.66065 0.66536 0.0
C1737 C 0.509 0.72493 0.74293 0.0
C1738 C 0.52702 0.73961 0.73887 0.0
C1739 C 0.50151 0.70942 0.72736 0.0
C1740 C 0.51187 0.70827 0.70741 0.0
C1741 C 0.53002 0.72271 0.70366 0.0
C1742 C 0.53751 0.73829 0.71917 0.0
C1743 C 0.50347 0.69222 0.69011 0.0
C1744 C 0.51153 0.68105 0.68782 0.0
C1745 C 0.48707 0.68747 0.67679 0.0
C1746 C 0.47854 0.69933 0.67727 0.0
C1747 C 0.4888 0.718 0.67012 0.0
C1748 C 0.48078 0.72918 0.67089 0.0
C1749 C 0.46248 0.72185 0.67868 0.0
C1750 C 0.45213 0.70327 0.6856 0.0
C1751 C 0.46008 0.69202 0.68483 0.0
H1752 H 0.45631 0.73054 0.6793 0.0
H1753 H 0.53472 0.62245 0.67114 0.0
H1754 H 0.38974 0.82574 0.63194 0.0
H1755 H 0.36392 0.81593 0.66092 0.0
H1756 H 0.34859 0.85238 0.62442 0.0
H1757 H 0.37496 0.86278 0.59581 0.0
H1758 H 0.34245 0.85174 0.67315 0.0
H1759 H 0.32675 0.80584 0.61019 0.0
H1760 H 0.3307 0.78398 0.58348 0.0
H1761 H 0.33071 0.75393 0.64879 0.0
H1762 H 0.32703 0.77577 0.67594 0.0
H1763 H 0.24865 0.80074 0.71833 0.0
H1764 H 0.27597 0.81527 0.69117 0.0
H1765 H 0.29938 0.78707 0.73137 0.0
H1766 H 0.27225 0.77266 0.75869 0.0
H1767 H 0.30028 0.78404 0.67906 0.0
H1768 H 0.31593 0.83148 0.74163 0.0
H1769 H 0.31061 0.85327 0.76646 0.0
H1770 H 0.30853 0.8801 0.69886 0.0
H1771 H 0.31358 0.8583 0.67359 0.0
C1772 C 0.38102 0.83186 0.63028 0.0
C1773 C 0.38426 0.84489 0.61142 0.0
C1774 C 0.36619 0.82617 0.64678 0.0
C1775 C 0.35397 0.83301 0.64442 0.0
C1776 C 0.35774 0.84679 0.62649 0.0
C1777 C 0.37282 0.85274 0.61017 0.0
C1778 C 0.33688 0.82509 0.65991 0.0
C1779 C 0.33311 0.83695 0.67417 0.0
C1780 C 0.32465 0.80577 0.66138 0.0
C1781 C 0.32678 0.79254 0.64511 0.0
C1782 C 0.32773 0.79464 0.61887 0.0
C1783 C 0.3299 0.78225 0.60365 0.0
C1784 C 0.331 0.7676 0.61444 0.0
C1785 C 0.32988 0.76529 0.64047 0.0
C1786 C 0.32774 0.77767 0.65578 0.0
C1787 C 0.25965 0.79769 0.72142 0.0
C1788 C 0.2583 0.78555 0.74063 0.0
C1789 C 0.27527 0.80605 0.70596 0.0
C1790 C 0.28974 0.80232 0.70936 0.0
C1791 C 0.28837 0.79015 0.72847 0.0
C1792 C 0.27288 0.78195 0.74408 0.0
C1793 C 0.3061 0.81065 0.6926 0.0
C1794 C 0.30964 0.79882 0.67799 0.0
C1795 C 0.31788 0.82997 0.69052 0.0
C1796 C 0.31494 0.84314 0.70571 0.0
C1797 C 0.31418 0.84193 0.73204 0.0
C1798 C 0.31125 0.8543 0.74621 0.0
C1799 C 0.30918 0.86803 0.73425 0.0
C1800 C 0.3101 0.86944 0.7081 0.0
C1801 C 0.31302 0.85709 0.69385 0.0
H1802 H 0.30691 0.87759 0.74524 0.0
H1803 H 0.33268 0.75802 0.60262 0.0
H1804 H 0.18871 0.55484 0.58892 0.0
H1805 H 0.19807 0.539 0.61856 0.0
H1806 H 0.14223 0.50829 0.64662 0.0
H1807 H 0.13256 0.52368 0.61588 0.0
H1808 H 0.20014 0.53943 0.66535 0.0
H1809 H 0.13415 0.46729 0.67153 0.0
H1810 H 0.10801 0.44602 0.64474 0.0
H1811 H 0.14091 0.47034 0.57884 0.0
H1812 H 0.16729 0.49157 0.60523 0.0
H1813 H 0.21362 0.49341 0.76647 0.0
H1814 H 0.19981 0.50604 0.73793 0.0
H1815 H 0.19774 0.46931 0.67951 0.0
H1816 H 0.21077 0.45608 0.70837 0.0
H1817 H 0.16822 0.4715 0.67651 0.0
H1818 H 0.23236 0.51566 0.68252 0.0
H1819 H 0.26179 0.53632 0.70382 0.0
H1820 H 0.23839 0.56742 0.73497 0.0
H1821 H 0.20869 0.54674 0.71417 0.0
C1822 C 0.17836 0.54469 0.60135 0.0
C1823 C 0.15988 0.54057 0.60011 0.0
C1824 C 0.18377 0.53564 0.61838 0.0
C1825 C 0.17092 0.52239 0.63492 0.0
C1826 C 0.15239 0.51823 0.63382 0.0
C1827 C 0.14687 0.52708 0.61633 0.0
C1828 C 0.17725 0.51335 0.65343 0.0
C1829 C 0.19308 0.52457 0.66779 0.0
C1830 C 0.16835 0.49393 0.65639 0.0
C1831 C 0.1526 0.48116 0.64037 0.0
C1832 C 0.13581 0.46806 0.65133 0.0
C1833 C 0.12095 0.45602 0.63621 0.0
C1834 C 0.12278 0.45688 0.61011 0.0
C1835 C 0.13948 0.46974 0.59906 0.0
C1836 C 0.15438 0.4818 0.61409 0.0
C1837 C 0.21013 0.48798 0.74757 0.0
C1838 C 0.21338 0.47385 0.73959 0.0
C1839 C 0.20229 0.49524 0.73124 0.0
C1840 C 0.19798 0.48886 0.70638 0.0
C1841 C 0.20089 0.47447 0.69857 0.0
C1842 C 0.20844 0.46698 0.71504 0.0
C1843 C 0.1911 0.49761 0.68827 0.0
C1844 C 0.17517 0.48636 0.67411 0.0
C1845 C 0.20037 0.51697 0.68461 0.0
C1846 C 0.21825 0.52954 0.697 0.0
C1847 C 0.23345 0.52683 0.69405 0.0
C1848 C 0.25018 0.53854 0.70602 0.0
C1849 C 0.25194 0.55314 0.72078 0.0
C1850 C 0.23699 0.55608 0.72355 0.0
C1851 C 0.2202 0.54437 0.71168 0.0
H1852 H 0.26491 0.56221 0.73003 0.0
H1853 H 0.11126 0.44756 0.59844 0.0
H1854 H 0.38874 0.84114 0.063 0.0
H1855 H 0.36158 0.82911 0.0901 0.0
H1856 H 0.39492 0.86644 0.14889 0.0
H1857 H 0.42192 0.87909 0.12136 0.0
H1858 H 0.35319 0.81107 0.13022 0.0
H1859 H 0.36988 0.87668 0.18813 0.0
H1860 H 0.38508 0.91039 0.18204 0.0
H1861 H 0.37436 0.90253 0.1029 0.0
H1862 H 0.35888 0.86878 0.10856 0.0
H1863 H 0.30361 0.7836 0.24131 0.0
H1864 H 0.32802 0.79944 0.2105 0.0
H1865 H 0.29999 0.82693 0.18116 0.0
H1866 H 0.27562 0.81149 0.21294 0.0
H1867 H 0.33584 0.84992 0.1807 0.0
H1868 H 0.29727 0.78876 0.15117 0.0
H1869 H 0.27948 0.75477 0.1534 0.0
H1870 H 0.32931 0.75341 0.16791 0.0
H1871 H 0.34737 0.78741 0.16612 0.0
C1872 C 0.39023 0.84688 0.08164 0.0
C1873 C 0.40743 0.8611 0.09003 0.0
C1874 C 0.37469 0.83997 0.09716 0.0
C1875 C 0.37604 0.84698 0.12152 0.0
C1876 C 0.39331 0.86109 0.12999 0.0
C1877 C 0.4088 0.86823 0.1143 0.0
C1878 C 0.3596 0.83889 0.1384 0.0
C1879 C 0.3494 0.81962 0.14113 0.0
C1880 C 0.35425 0.84992 0.15231 0.0
C1881 C 0.36336 0.8702 0.14876 0.0
C1882 C 0.37069 0.88214 0.16945 0.0
C1883 C 0.37937 0.90126 0.16607 0.0
C1884 C 0.38073 0.9086 0.14209 0.0
C1885 C 0.37336 0.89683 0.12145 0.0
C1886 C 0.36465 0.87771 0.12473 0.0
C1887 C 0.3026 0.79304 0.22835 0.0
C1888 C 0.28752 0.79608 0.22931 0.0
C1889 C 0.31658 0.80206 0.21066 0.0
C1890 C 0.31563 0.814 0.193 0.0
C1891 C 0.30095 0.81766 0.19446 0.0
C1892 C 0.28703 0.80882 0.21257 0.0
C1893 C 0.32983 0.82221 0.17286 0.0
C1894 C 0.3396 0.84144 0.16958 0.0
C1895 C 0.33444 0.81114 0.15778 0.0
C1896 C 0.32366 0.79065 0.15867 0.0
C1897 C 0.30442 0.78122 0.15498 0.0
C1898 C 0.29429 0.76195 0.15615 0.0
C1899 C 0.30326 0.75194 0.16083 0.0
C1900 C 0.32238 0.76118 0.16429 0.0
C1901 C 0.33258 0.78045 0.16317 0.0
H1902 H 0.29539 0.73702 0.16174 0.0
H1903 H 0.38748 0.9234 0.13951 0.0
H1904 H 0.1642 0.55768 0.07271 0.0
H1905 H 0.17684 0.54269 0.0989 0.0
H1906 H 0.1265 0.51665 0.14225 0.0
H1907 H 0.11399 0.53209 0.1165 0.0
H1908 H 0.1548 0.52906 0.17243 0.0
H1909 H 0.13696 0.49234 0.09826 0.0
H1910 H 0.13522 0.486 0.05287 0.0
H1911 H 0.19405 0.5092 0.0501 0.0
H1912 H 0.19618 0.51591 0.09544 0.0
H1913 H 0.17966 0.46894 0.23473 0.0
H1914 H 0.16274 0.47797 0.20575 0.0
H1915 H 0.21364 0.51501 0.16792 0.0
H1916 H 0.23065 0.50637 0.19703 0.0
H1917 H 0.18264 0.49426 0.1351 0.0
H1918 H 0.19969 0.53184 0.20994 0.0
H1919 H 0.20049 0.53741 0.25545 0.0
H1920 H 0.14136 0.51147 0.25677 0.0
H1921 H 0.14016 0.50517 0.21142 0.0
C1922 C 0.15581 0.54875 0.0878 0.0
C1923 C 0.13807 0.54602 0.09249 0.0
C1924 C 0.16301 0.54008 0.10268 0.0
C1925 C 0.15251 0.52824 0.12231 0.0
C1926 C 0.13485 0.52564 0.12717 0.0
C1927 C 0.1277 0.53445 0.11241 0.0
C1928 C 0.16017 0.51896 0.1381 0.0
C1929 C 0.16056 0.52116 0.16426 0.0
C1930 C 0.16795 0.50884 0.12749 0.0
C1931 C 0.16674 0.50477 0.10022 0.0
C1932 C 0.14955 0.49621 0.08795 0.0
C1933 C 0.14849 0.49253 0.06223 0.0
C1934 C 0.16452 0.49723 0.0486 0.0
C1935 C 0.18165 0.50558 0.06068 0.0
C1936 C 0.18278 0.50931 0.0864 0.0
C1937 C 0.18717 0.47872 0.21991 0.0
C1938 C 0.20649 0.48701 0.2182 0.0
C1939 C 0.17751 0.48392 0.20347 0.0
C1940 C 0.18698 0.49726 0.18485 0.0
C1941 C 0.20609 0.50471 0.18217 0.0
C1942 C 0.21579 0.49978 0.19885 0.0
C1943 C 0.17731 0.50449 0.16925 0.0
C1944 C 0.17663 0.50196 0.14319 0.0
C1945 C 0.16909 0.51414 0.17996 0.0
C1946 C 0.16982 0.51775 0.20733 0.0
C1947 C 0.18683 0.52704 0.22 0.0
C1948 C 0.18736 0.53035 0.24578 0.0
C1949 C 0.17098 0.52467 0.25906 0.0
C1950 C 0.15403 0.51571 0.24655 0.0
C1951 C 0.15342 0.51224 0.2208 0.0
H1952 H 0.17143 0.5273 0.27899 0.0
H1953 H 0.16367 0.49437 0.02869 0.0
H1954 H 0.53057 0.71183 0.2351 0.0
H1955 H 0.5209 0.68606 0.20579 0.0
H1956 H 0.47915 0.69668 0.17579 0.0
H1957 H 0.48832 0.72194 0.20547 0.0
H1958 H 0.46444 0.66176 0.18462 0.0
H1959 H 0.51993 0.7068 0.14321 0.0
H1960 H 0.55312 0.72959 0.13962 0.0
H1961 H 0.56665 0.68771 0.15771 0.0
H1962 H 0.53353 0.66471 0.16174 0.0
H1963 H 0.44093 0.6087 0.07314 0.0
H1964 H 0.4545 0.63513 0.1017 0.0
H1965 H 0.4849 0.61287 0.1389 0.0
H1966 H 0.47109 0.58613 0.11062 0.0
H1967 H 0.50596 0.6524 0.12759 0.0
H1968 H 0.44982 0.60726 0.16739 0.0
H1969 H 0.41648 0.58469 0.16903 0.0
H1970 H 0.40414 0.62758 0.15223 0.0
H1971 H 0.43744 0.65037 0.15005 0.0
C1972 C 0.51951 0.70883 0.22201 0.0
C1973 C 0.51019 0.71892 0.22269 0.0
C1974 C 0.514 0.69409 0.20521 0.0
C1975 C 0.4993 0.6894 0.18845 0.0
C1976 C 0.49043 0.69989 0.18861 0.0
C1977 C 0.49575 0.71441 0.20555 0.0
C1978 C 0.49248 0.67309 0.17156 0.0
C1979 C 0.47354 0.6599 0.17195 0.0
C1980 C 0.50435 0.67028 0.15545 0.0
C1981 C 0.52426 0.68408 0.15304 0.0
C1982 C 0.52999 0.70248 0.14662 0.0
C1983 C 0.54879 0.71543 0.14447 0.0
C1984 C 0.56198 0.71012 0.14851 0.0
C1985 C 0.55641 0.69182 0.15464 0.0
C1986 C 0.53763 0.67882 0.15683 0.0
C1987 C 0.45054 0.60943 0.08733 0.0
C1988 C 0.45486 0.59528 0.08974 0.0
C1989 C 0.45828 0.62454 0.10362 0.0
C1990 C 0.47064 0.62589 0.12244 0.0
C1991 C 0.4754 0.61206 0.12447 0.0
C1992 C 0.46744 0.59678 0.10839 0.0
C1993 C 0.47802 0.64145 0.14048 0.0
C1994 C 0.49698 0.65437 0.14035 0.0
C1995 C 0.46618 0.64412 0.15671 0.0
C1996 C 0.44614 0.6305 0.15833 0.0
C1997 C 0.44001 0.61186 0.16384 0.0
C1998 C 0.42112 0.59903 0.1649 0.0
C1999 C 0.4082 0.6047 0.16069 0.0
C2000 C 0.41416 0.62321 0.15547 0.0
C2001 C 0.43304 0.63609 0.15433 0.0
H2002 H 0.39358 0.59474 0.16152 0.0
H2003 H 0.57653 0.72017 0.14683 0.0
H2004 H 0.11674 0.58224 0.61347 0.0
H2005 H 0.12986 0.60964 0.64038 0.0
H2006 H 0.1789 0.63516 0.59448 0.0
H2007 H 0.16584 0.60785 0.56742 0.0
H2008 H 0.18632 0.63721 0.64568 0.0
H2009 H 0.14822 0.64927 0.58957 0.0
H2010 H 0.11906 0.64182 0.56845 0.0
H2011 H 0.09346 0.63764 0.63987 0.0
H2012 H 0.12241 0.64482 0.66144 0.0
H2013 H 0.23048 0.72556 0.69719 0.0
H2014 H 0.215 0.7005 0.66694 0.0
H2015 H 0.16371 0.68054 0.70722 0.0
H2016 H 0.17905 0.70622 0.73697 0.0
H2017 H 0.15657 0.67509 0.65932 0.0
H2018 H 0.1926 0.66182 0.71606 0.0
H2019 H 0.2205 0.66758 0.73928 0.0
H2020 H 0.24835 0.67167 0.66983 0.0
H2021 H 0.22068 0.66617 0.64618 0.0
C2022 C 0.1303 0.59371 0.60907 0.0
C2023 C 0.14027 0.5929 0.58832 0.0
C2024 C 0.13774 0.60938 0.6244 0.0
C2025 C 0.15529 0.62449 0.6193 0.0
C2026 C 0.16531 0.62366 0.59869 0.0
C2027 C 0.15782 0.60807 0.58323 0.0
C2028 C 0.16346 0.64097 0.63586 0.0
C2029 C 0.17997 0.64566 0.64838 0.0
C2030 C 0.15479 0.65157 0.64009 0.0
C2031 C 0.13743 0.64741 0.62713 0.0
C2032 C 0.13633 0.64662 0.60078 0.0
C2033 C 0.11985 0.64247 0.58873 0.0
C2034 C 0.1044 0.63921 0.60281 0.0
C2035 C 0.10543 0.64015 0.62898 0.0
C2036 C 0.12188 0.64427 0.64113 0.0
C2037 C 0.21583 0.71599 0.69937 0.0
C2038 C 0.206 0.71772 0.71957 0.0
C2039 C 0.20701 0.70159 0.68216 0.0
C2040 C 0.1883 0.68825 0.68521 0.0
C2041 C 0.17819 0.69055 0.70456 0.0
C2042 C 0.18695 0.70524 0.72154 0.0
C2043 C 0.17963 0.67153 0.66895 0.0
C2044 C 0.16298 0.6667 0.65659 0.0
C2045 C 0.18799 0.66056 0.66519 0.0
C2046 C 0.20463 0.66376 0.67935 0.0
C2047 C 0.20472 0.66407 0.70574 0.0
C2048 C 0.22048 0.66727 0.71898 0.0
C2049 C 0.2362 0.67003 0.70604 0.0
C2050 C 0.23617 0.66955 0.67983 0.0
C2051 C 0.22044 0.66637 0.6665 0.0
H2052 H 0.24839 0.67251 0.71632 0.0
H2053 H 0.09165 0.63599 0.59344 0.0
H2054 H 0.29054 0.47164 0.7402 0.0
H2055 H 0.31602 0.4801 0.71054 0.0
H2056 H 0.30415 0.51949 0.67551 0.0
H2057 H 0.27893 0.51135 0.70517 0.0
H2058 H 0.31068 0.49734 0.64108 0.0
H2059 H 0.33782 0.53479 0.71546 0.0
H2060 H 0.34614 0.54079 0.76024 0.0
H2061 H 0.37375 0.50925 0.75581 0.0
H2062 H 0.36538 0.50285 0.71106 0.0
H2063 H 0.39056 0.55788 0.5732 0.0
H2064 H 0.36401 0.54334 0.60133 0.0
H2065 H 0.38849 0.51541 0.63979 0.0
H2066 H 0.41545 0.53048 0.61216 0.0
H2067 H 0.3751 0.52814 0.67267 0.0
H2068 H 0.3509 0.49237 0.59871 0.0
H2069 H 0.34375 0.48623 0.55366 0.0
H2070 H 0.3107 0.51229 0.55692 0.0
H2071 H 0.31787 0.51883 0.60192 0.0
C2072 C 0.29324 0.48195 0.726 0.0
C2073 C 0.28277 0.49088 0.72508 0.0
C2074 C 0.30784 0.48682 0.70917 0.0
C2075 C 0.31202 0.5005 0.69096 0.0
C2076 C 0.30116 0.50892 0.68944 0.0
C2077 C 0.28679 0.50428 0.70646 0.0
C2078 C 0.32802 0.50653 0.67384 0.0
C2079 C 0.32479 0.50417 0.64792 0.0
C2080 C 0.34636 0.51488 0.68288 0.0
C2081 C 0.35079 0.51816 0.70999 0.0
C2082 C 0.34545 0.52892 0.72411 0.0
C2083 C 0.35023 0.53245 0.74946 0.0
C2084 C 0.36049 0.52542 0.76084 0.0
C2085 C 0.36583 0.5147 0.74696 0.0
C2086 C 0.36106 0.51111 0.72161 0.0
C2087 C 0.39028 0.5486 0.5876 0.0
C2088 C 0.40509 0.5453 0.59044 0.0
C2089 C 0.375 0.54017 0.60359 0.0
C2090 C 0.37403 0.52798 0.62246 0.0
C2091 C 0.38885 0.5247 0.62534 0.0
C2092 C 0.40425 0.5333 0.60952 0.0
C2093 C 0.35786 0.51923 0.63971 0.0
C2094 C 0.36102 0.52107 0.66571 0.0
C2095 C 0.33943 0.51014 0.63074 0.0
C2096 C 0.33505 0.50622 0.60366 0.0
C2097 C 0.34222 0.49692 0.58978 0.0
C2098 C 0.33814 0.49334 0.56426 0.0
C2099 C 0.32681 0.4989 0.55242 0.0
C2100 C 0.31949 0.50801 0.56611 0.0
C2101 C 0.32354 0.51163 0.59163 0.0
H2102 H 0.32367 0.49612 0.53266 0.0
H2103 H 0.3644 0.52837 0.78036 0.0
H2104 H 0.53248 0.82139 0.73352 0.0
H2105 H 0.52378 0.83861 0.70462 0.0
H2106 H 0.48867 0.78846 0.66399 0.0
H2107 H 0.497 0.77115 0.693 0.0
H2108 H 0.50966 0.82116 0.6329 0.0
H2109 H 0.46912 0.79949 0.70554 0.0
H2110 H 0.46307 0.79659 0.75108 0.0
H2111 H 0.48927 0.85555 0.75758 0.0
H2112 H 0.49577 0.8588 0.71209 0.0
H2113 H 0.44389 0.83639 0.5712 0.0
H2114 H 0.45987 0.82453 0.5969 0.0
H2115 H 0.48275 0.87365 0.64261 0.0
H2116 H 0.46644 0.88541 0.61725 0.0
H2117 H 0.4712 0.84449 0.67149 0.0
H2118 H 0.50935 0.86682 0.59908 0.0
H2119 H 0.51695 0.87078 0.554 0.0
H2120 H 0.49741 0.81275 0.54706 0.0
H2121 H 0.48943 0.80838 0.59206 0.0
C2122 C 0.52326 0.81413 0.71807 0.0
C2123 C 0.51535 0.7949 0.71557 0.0
C2124 C 0.51825 0.82396 0.70166 0.0
C2125 C 0.50548 0.81476 0.68232 0.0
C2126 C 0.49855 0.79581 0.67879 0.0
C2127 C 0.50329 0.78594 0.69541 0.0
C2128 C 0.498 0.8244 0.66718 0.0
C2129 C 0.50117 0.82619 0.64124 0.0
C2130 C 0.48732 0.83135 0.67825 0.0
C2131 C 0.48313 0.8294 0.70549 0.0
C2132 C 0.47373 0.81184 0.71672 0.0
C2133 C 0.4702 0.81013 0.74251 0.0
C2134 C 0.47584 0.82588 0.75723 0.0
C2135 C 0.48495 0.84337 0.74616 0.0
C2136 C 0.48856 0.84515 0.72038 0.0
C2137 C 0.45234 0.84468 0.58671 0.0
C2138 C 0.45395 0.86186 0.59215 0.0
C2139 C 0.46156 0.83793 0.60132 0.0
C2140 C 0.47279 0.84832 0.62148 0.0
C2141 C 0.47424 0.86541 0.62711 0.0
C2142 C 0.46493 0.87213 0.61257 0.0
C2143 C 0.48264 0.84113 0.63695 0.0
C2144 C 0.47988 0.83972 0.66304 0.0
C2145 C 0.49386 0.83472 0.62601 0.0
C2146 C 0.49864 0.83725 0.59892 0.0
C2147 C 0.50653 0.85487 0.58791 0.0
C2148 C 0.51093 0.8572 0.56237 0.0
C2149 C 0.50763 0.84202 0.54766 0.0
C2150 C 0.49994 0.82449 0.55848 0.0
C2151 C 0.4955 0.82209 0.58401 0.0
H2152 H 0.51105 0.84384 0.52789 0.0
H2153 H 0.47312 0.82453 0.7772 0.0
H2154 H 0.27424 0.50095 0.25821 0.0
H2155 H 0.30153 0.51452 0.23113 0.0
H2156 H 0.28007 0.46305 0.19105 0.0
H2157 H 0.2526 0.44939 0.21797 0.0
H2158 H 0.31836 0.4798 0.20275 0.0
H2159 H 0.27594 0.49528 0.16429 0.0
H2160 H 0.25447 0.50742 0.16382 0.0
H2161 H 0.29839 0.5608 0.1861 0.0
H2162 H 0.3201 0.5489 0.187 0.0
H2163 H 0.37816 0.51606 0.09583 0.0
H2164 H 0.35257 0.50008 0.12546 0.0
H2165 H 0.36616 0.55227 0.15924 0.0
H2166 H 0.39124 0.56828 0.12919 0.0
H2167 H 0.33113 0.53396 0.15039 0.0
H2168 H 0.37381 0.51876 0.1889 0.0
H2169 H 0.39517 0.5065 0.19059 0.0
H2170 H 0.35122 0.45286 0.16929 0.0
H2171 H 0.32964 0.46486 0.16715 0.0
C2172 C 0.27534 0.49249 0.24369 0.0
C2173 C 0.26122 0.47413 0.24013 0.0
C2174 C 0.29094 0.50027 0.22823 0.0
C2175 C 0.29277 0.48981 0.20901 0.0
C2176 C 0.27892 0.47134 0.2058 0.0
C2177 C 0.26321 0.4636 0.2211 0.0
C2178 C 0.30886 0.49841 0.19177 0.0
C2179 C 0.32109 0.49151 0.19104 0.0
C2180 C 0.31253 0.51386 0.17688 0.0
C2181 C 0.2996 0.52116 0.17595 0.0
C2182 C 0.28099 0.50958 0.16926 0.0
C2183 C 0.26878 0.51642 0.1689 0.0
C2184 C 0.27504 0.53485 0.17502 0.0
C2185 C 0.29355 0.54651 0.1814 0.0
C2186 C 0.30582 0.53974 0.18181 0.0
C2187 C 0.37588 0.52408 0.10987 0.0
C2188 C 0.38669 0.54344 0.11011 0.0
C2189 C 0.36124 0.51492 0.12685 0.0
C2190 C 0.3574 0.52494 0.14471 0.0
C2191 C 0.36871 0.54421 0.14557 0.0
C2192 C 0.38311 0.55336 0.12843 0.0
C2193 C 0.34099 0.5156 0.16151 0.0
C2194 C 0.32856 0.5223 0.16209 0.0
C2195 C 0.33721 0.50001 0.17631 0.0
C2196 C 0.35015 0.49276 0.17762 0.0
C2197 C 0.36873 0.50438 0.18438 0.0
C2198 C 0.38087 0.49747 0.18546 0.0
C2199 C 0.37457 0.47892 0.17998 0.0
C2200 C 0.35609 0.46723 0.17349 0.0
C2201 C 0.34389 0.47408 0.17237 0.0
H2202 H 0.38399 0.4736 0.18083 0.0
H2203 H 0.26555 0.54011 0.17477 0.0
H2204 H 0.50239 0.77795 0.26063 0.0
H2205 H 0.48965 0.7919 0.23255 0.0
H2206 H 0.53902 0.81467 0.18739 0.0
H2207 H 0.5519 0.80071 0.21545 0.0
H2208 H 0.52651 0.8398 0.19621 0.0
H2209 H 0.5026 0.77783 0.16657 0.0
H2210 H 0.48733 0.74401 0.17113 0.0
H2211 H 0.43796 0.74247 0.19712 0.0
H2212 H 0.45303 0.77634 0.19299 0.0
H2213 H 0.48697 0.86091 0.09052 0.0
H2214 H 0.50326 0.85123 0.11952 0.0
H2215 H 0.45271 0.81874 0.16095 0.0
H2216 H 0.4363 0.82772 0.13143 0.0
H2217 H 0.46739 0.79881 0.15278 0.0
H2218 H 0.49139 0.86099 0.1832 0.0
H2219 H 0.507 0.89491 0.17976 0.0
H2220 H 0.55618 0.89634 0.15315 0.0
H2221 H 0.54079 0.8624 0.15615 0.0
C2222 C 0.51057 0.78597 0.24477 0.0
C2223 C 0.5281 0.78814 0.24016 0.0
C2224 C 0.50327 0.79392 0.22873 0.0
C2225 C 0.51334 0.8042 0.20778 0.0
C2226 C 0.53104 0.80679 0.20346 0.0
C2227 C 0.53832 0.79873 0.21943 0.0
C2228 C 0.50507 0.81172 0.19003 0.0
C2229 C 0.5137 0.83088 0.18643 0.0
C2230 C 0.48823 0.80005 0.17762 0.0
C2231 C 0.479 0.77964 0.17967 0.0
C2232 C 0.48852 0.77029 0.1734 0.0
C2233 C 0.4799 0.75112 0.1759 0.0
C2234 C 0.4617 0.7411 0.18449 0.0
C2235 C 0.45206 0.75025 0.19049 0.0
C2236 C 0.46063 0.76944 0.18804 0.0
C2237 C 0.47944 0.85197 0.10609 0.0
C2238 C 0.46036 0.84503 0.10867 0.0
C2239 C 0.48877 0.84645 0.12271 0.0
C2240 C 0.47926 0.83427 0.14258 0.0
C2241 C 0.46036 0.82801 0.14571 0.0
C2242 C 0.45099 0.83322 0.12888 0.0
C2243 C 0.48856 0.82707 0.15924 0.0
C2244 C 0.48018 0.80786 0.16253 0.0
C2245 C 0.50559 0.83874 0.1714 0.0
C2246 C 0.51487 0.85914 0.16966 0.0
C2247 C 0.50549 0.86853 0.17645 0.0
C2248 C 0.5143 0.88776 0.17461 0.0
C2249 C 0.53255 0.89777 0.16618 0.0
C2250 C 0.54204 0.88857 0.15964 0.0
C2251 C 0.53328 0.86934 0.16143 0.0
H2252 H 0.53935 0.91266 0.16476 0.0
H2253 H 0.45506 0.72626 0.18645 0.0
H2254 H 0.20371 0.75284 0.21333 0.0
H2255 H 0.18916 0.72537 0.18657 0.0
H2256 H 0.21054 0.69875 0.23431 0.0
H2257 H 0.22516 0.72617 0.2611 0.0
H2258 H 0.21606 0.69532 0.18431 0.0
H2259 H 0.16555 0.68687 0.23745 0.0
H2260 H 0.14455 0.6962 0.25638 0.0
H2261 H 0.12569 0.7006 0.18315 0.0
H2262 H 0.14678 0.69153 0.16375 0.0
H2263 H 0.16914 0.60624 0.13531 0.0
H2264 H 0.17931 0.63194 0.16465 0.0
H2265 H 0.15049 0.6533 0.12135 0.0
H2266 H 0.13945 0.62695 0.09263 0.0
H2267 H 0.14857 0.66013 0.16834 0.0
H2268 H 0.19828 0.66963 0.11445 0.0
H2269 H 0.21982 0.66185 0.09351 0.0
H2270 H 0.24104 0.65768 0.16507 0.0
H2271 H 0.21945 0.66519 0.18647 0.0
C2272 C 0.20531 0.74113 0.21813 0.0
C2273 C 0.21556 0.74165 0.23934 0.0
C2274 C 0.19691 0.72541 0.20289 0.0
C2275 C 0.1986 0.70993 0.20859 0.0
C2276 C 0.20901 0.71052 0.22961 0.0
C2277 C 0.21733 0.72618 0.24491 0.0
C2278 C 0.18988 0.69325 0.1924 0.0
C2279 C 0.20127 0.68746 0.18109 0.0
C2280 C 0.17067 0.68341 0.18747 0.0
C2281 C 0.15787 0.68869 0.19914 0.0
C2282 C 0.15702 0.68996 0.22537 0.0
C2283 C 0.14508 0.69517 0.23619 0.0
C2284 C 0.13382 0.69903 0.22098 0.0
C2285 C 0.13443 0.69763 0.19491 0.0
C2286 C 0.14636 0.69243 0.184 0.0
C2287 C 0.16471 0.61626 0.13232 0.0
C2288 C 0.15364 0.61471 0.1116 0.0
C2289 C 0.17065 0.63103 0.14898 0.0
C2290 C 0.1662 0.64494 0.1448 0.0
C2291 C 0.15426 0.64286 0.12489 0.0
C2292 C 0.14793 0.62779 0.10851 0.0
C2293 C 0.17473 0.66199 0.16046 0.0
C2294 C 0.16335 0.66793 0.17156 0.0
C2295 C 0.19404 0.67221 0.16488 0.0
C2296 C 0.20713 0.66781 0.15206 0.0
C2297 C 0.20746 0.66694 0.12573 0.0
C2298 C 0.21969 0.66259 0.11377 0.0
C2299 C 0.23176 0.65923 0.12795 0.0
C2300 C 0.23167 0.66027 0.15412 0.0
C2301 C 0.21945 0.66458 0.16617 0.0
H2302 H 0.24121 0.65587 0.11866 0.0
H2303 H 0.12459 0.70308 0.22939 0.0
H2304 H 0.15224 0.2071 0.33211 0.0
H2305 H 0.1688 0.19959 0.30045 0.0
H2306 H 0.12167 0.14487 0.29321 0.0
H2307 H 0.10514 0.15211 0.32455 0.0
H2308 H 0.1536 0.14414 0.29991 0.0
H2309 H 0.13195 0.17774 0.24865 0.0
H2310 H 0.12968 0.20511 0.23717 0.0
H2311 H 0.18864 0.2371 0.22945 0.0
H2312 H 0.19126 0.20995 0.2412 0.0
H2313 H 0.15668 0.10298 0.18831 0.0
H2314 H 0.15073 0.11776 0.22339 0.0
H2315 H 0.20285 0.16745 0.21085 0.0
H2316 H 0.20886 0.15275 0.17498 0.0
H2317 H 0.17555 0.17532 0.21764 0.0
H2318 H 0.19698 0.14075 0.26236 0.0
H2319 H 0.19969 0.11363 0.2738 0.0
H2320 H 0.14246 0.08409 0.29484 0.0
H2321 H 0.13932 0.11093 0.28319 0.0
C2322 C 0.14532 0.19354 0.32357 0.0
C2323 C 0.12734 0.18021 0.33105 0.0
C2324 C 0.15483 0.18927 0.30548 0.0
C2325 C 0.1465 0.17162 0.29454 0.0
C2326 C 0.12844 0.15852 0.30154 0.0
C2327 C 0.11897 0.16275 0.31946 0.0
C2328 C 0.15649 0.16631 0.27629 0.0
C2329 C 0.15834 0.15091 0.28187 0.0
C2330 C 0.16342 0.17563 0.25322 0.0
C2331 C 0.16182 0.19189 0.24611 0.0
C2332 C 0.14444 0.19066 0.24472 0.0
C2333 C 0.14309 0.20612 0.23812 0.0
C2334 C 0.15901 0.22285 0.23267 0.0
C2335 C 0.17632 0.22414 0.23373 0.0
C2336 C 0.17775 0.20872 0.24034 0.0
C2337 C 0.16706 0.117 0.19304 0.0
C2338 C 0.18328 0.12665 0.17869 0.0
C2339 C 0.16365 0.12542 0.21329 0.0
C2340 C 0.17642 0.14367 0.22001 0.0
C2341 C 0.19282 0.15333 0.20607 0.0
C2342 C 0.19628 0.14486 0.18567 0.0
C2343 C 0.17193 0.15263 0.24085 0.0
C2344 C 0.17116 0.16874 0.23585 0.0
C2345 C 0.16609 0.14404 0.26459 0.0
C2346 C 0.16791 0.12785 0.27178 0.0
C2347 C 0.18494 0.12843 0.26928 0.0
C2348 C 0.18655 0.11311 0.27582 0.0
C2349 C 0.17125 0.09715 0.28501 0.0
C2350 C 0.1543 0.09648 0.28773 0.0
C2351 C 0.15261 0.11175 0.2812 0.0
H2352 H 0.17253 0.0853 0.29006 0.0
H2353 H 0.15794 0.2348 0.22756 0.0
H2354 H 0.79616 0.94455 0.33025 0.0
H2355 H 0.80476 0.96918 0.29912 0.0
H2356 H 0.85362 0.96659 0.2806 0.0
H2357 H 0.84526 0.94221 0.31138 0.0
H2358 H 0.86133 0.0016 0.29264 0.0
H2359 H 0.81733 0.95061 0.24062 0.0
H2360 H 0.78647 0.92449 0.23055 0.0
H2361 H 0.76369 0.96046 0.23353 0.0
H2362 H 0.79439 0.98677 0.24394 0.0
H2363 H 0.90094 0.04915 0.18292 0.0
H2364 H 0.88522 0.02664 0.21577 0.0
H2365 H 0.84023 0.03793 0.2139 0.0
H2366 H 0.85579 0.06042 0.18004 0.0
H2367 H 0.82716 0.00153 0.21654 0.0
H2368 H 0.87105 0.05312 0.26329 0.0
H2369 H 0.90146 0.07971 0.27393 0.0
H2370 H 0.92373 0.0436 0.28288 0.0
H2371 H 0.89353 0.01682 0.27194 0.0
C2372 C 0.80854 0.94897 0.31918 0.0
C2373 C 0.8201 0.94148 0.32354 0.0
C2374 C 0.81345 0.96308 0.30143 0.0
C2375 C 0.82993 0.96984 0.28769 0.0
C2376 C 0.84094 0.96173 0.29116 0.0
C2377 C 0.83609 0.94772 0.30878 0.0
C2378 C 0.83659 0.9861 0.27082 0.0
C2379 C 0.85391 0.00154 0.27591 0.0
C2380 C 0.82651 0.9864 0.24968 0.0
C2381 C 0.8081 0.9706 0.24336 0.0
C2382 C 0.80571 0.95291 0.23935 0.0
C2383 C 0.78825 0.93808 0.23353 0.0
C2384 C 0.77312 0.9408 0.23148 0.0
C2385 C 0.77542 0.95837 0.23517 0.0
C2386 C 0.79284 0.97324 0.24101 0.0
C2387 C 0.88779 0.04709 0.18952 0.0
C2388 C 0.87974 0.05678 0.1788 0.0
C2389 C 0.87881 0.03418 0.20849 0.0
C2390 C 0.86166 0.03076 0.2177 0.0
C2391 C 0.85351 0.04039 0.20719 0.0
C2392 C 0.86247 0.05332 0.18793 0.0
C2393 C 0.85232 0.0167 0.23778 0.0
C2394 C 0.83448 0.00175 0.23345 0.0
C2395 C 0.86182 0.01689 0.25988 0.0
C2396 C 0.88002 0.03296 0.26668 0.0
C2397 C 0.88246 0.05086 0.26739 0.0
C2398 C 0.89966 0.06597 0.27349 0.0
C2399 C 0.91452 0.06335 0.27905 0.0
C2400 C 0.9122 0.04561 0.27857 0.0
C2401 C 0.89503 0.03045 0.27247 0.0
H2402 H 0.92784 0.07507 0.28376 0.0
H2403 H 0.75962 0.9293 0.22697 0.0
H2404 H 0.94765 0.84687 0.1859 0.0
H2405 H 0.97142 0.8534 0.21697 0.0
H2406 H 0.96287 0.79844 0.20835 0.0
H2407 H 0.93896 0.79167 0.17665 0.0
H2408 H 0.96807 0.81326 0.26083 0.0
H2409 H 0.99725 0.82782 0.18026 0.0
H2410 H 0.00354 0.84135 0.13782 0.0
H2411 H 0.02472 0.89546 0.16939 0.0
H2412 H 0.01825 0.88221 0.21203 0.0
H2413 H 0.05169 0.8464 0.33228 0.0
H2414 H 0.02906 0.83081 0.29867 0.0
H2415 H 0.03176 0.88222 0.27961 0.0
H2416 H 0.05435 0.89785 0.31268 0.0
H2417 H 0.03066 0.86397 0.23809 0.0
H2418 H 0.99698 0.85001 0.31622 0.0
H2419 H 0.98902 0.83785 0.35921 0.0
H2420 H 0.97538 0.78393 0.333 0.0
H2421 H 0.98353 0.7959 0.28974 0.0
C2422 C 0.95054 0.83598 0.1907 0.0
C2423 C 0.94142 0.81876 0.17846 0.0
C2424 C 0.96422 0.8398 0.20849 0.0
C2425 C 0.96908 0.8265 0.21466 0.0
C2426 C 0.95935 0.80891 0.20371 0.0
C2427 C 0.94568 0.80509 0.18563 0.0
C2428 C 0.98503 0.83166 0.23157 0.0
C2429 C 0.98188 0.824 0.2557 0.0
C2430 C 0.00294 0.84591 0.22496 0.0
C2431 C 0.00715 0.854 0.19935 0.0
C2432 C 0.00313 0.84259 0.17816 0.0
C2433 C 0.00674 0.85021 0.15406 0.0
C2434 C 0.0145 0.86925 0.15091 0.0
C2435 C 0.01871 0.88071 0.17186 0.0
C2436 C 0.01509 0.87316 0.196 0.0
C2437 C 0.04764 0.85443 0.32071 0.0
C2438 C 0.05479 0.87338 0.32536 0.0
C2439 C 0.03462 0.84547 0.30159 0.0
C2440 C 0.02854 0.8553 0.28675 0.0
C2441 C 0.03621 0.87432 0.29076 0.0
C2442 C 0.04911 0.88324 0.30982 0.0
C2443 C 0.01366 0.84592 0.26769 0.0
C2444 C 0.017 0.85285 0.24309 0.0
C2445 C 0.99591 0.83112 0.27395 0.0
C2446 C 0.9911 0.82389 0.29987 0.0
C2447 C 0.99245 0.8356 0.31967 0.0
C2448 C 0.98786 0.82872 0.34409 0.0
C2449 C 0.98174 0.81012 0.34891 0.0
C2450 C 0.98017 0.79834 0.32927 0.0
C2451 C 0.98477 0.80517 0.30479 0.0
H2452 H 0.97817 0.8048 0.36783 0.0
H2453 H 0.01728 0.87512 0.13223 0.0
H2454 H 0.84791 0.79464 0.67203 0.0
H2455 H 0.83167 0.80204 0.70426 0.0
H2456 H 0.88319 0.84938 0.72661 0.0
H2457 H 0.89946 0.84205 0.69485 0.0
H2458 H 0.8625 0.83194 0.7669 0.0
H2459 H 0.85366 0.85345 0.68637 0.0
H2460 H 0.84333 0.84959 0.64232 0.0
H2461 H 0.78775 0.81145 0.66523 0.0
H2462 H 0.79782 0.81491 0.70941 0.0
H2463 H 0.84703 0.89973 0.81578 0.0
H2464 H 0.85366 0.8824 0.785 0.0
H2465 H 0.79791 0.83696 0.79104 0.0
H2466 H 0.79103 0.85419 0.82248 0.0
H2467 H 0.81519 0.84732 0.73869 0.0
H2468 H 0.82421 0.83023 0.82076 0.0
H2469 H 0.83535 0.83653 0.86438 0.0
H2470 H 0.89136 0.86738 0.83833 0.0
H2471 H 0.8805 0.86176 0.79445 0.0
C2472 C 0.85582 0.80644 0.68409 0.0
C2473 C 0.875 0.81782 0.68068 0.0
C2474 C 0.84649 0.81072 0.7024 0.0
C2475 C 0.85617 0.82642 0.71764 0.0
C2476 C 0.87541 0.83722 0.71506 0.0
C2477 C 0.88469 0.83303 0.69678 0.0
C2478 C 0.84645 0.83232 0.73552 0.0
C2479 C 0.85213 0.83525 0.76071 0.0
C2480 C 0.8326 0.83627 0.72764 0.0
C2481 C 0.82653 0.83425 0.70113 0.0
C2482 C 0.83927 0.84413 0.68198 0.0
C2483 C 0.83346 0.84203 0.657 0.0
C2484 C 0.81491 0.83023 0.65097 0.0
C2485 C 0.80212 0.82055 0.66992 0.0
C2486 C 0.80787 0.82257 0.69493 0.0
C2487 C 0.83599 0.88617 0.81044 0.0
C2488 C 0.8185 0.87832 0.82193 0.0
C2489 C 0.83986 0.87628 0.79278 0.0
C2490 C 0.82634 0.85835 0.78597 0.0
C2491 C 0.80853 0.85079 0.79613 0.0
C2492 C 0.80465 0.86065 0.81411 0.0
C2493 C 0.8316 0.8473 0.76976 0.0
C2494 C 0.82518 0.84352 0.74496 0.0
C2495 C 0.84484 0.84262 0.77793 0.0
C2496 C 0.85151 0.84569 0.80428 0.0
C2497 C 0.83889 0.83849 0.8243 0.0
C2498 C 0.84516 0.84192 0.84909 0.0
C2499 C 0.86406 0.85232 0.85415 0.0
C2500 C 0.87672 0.85932 0.83439 0.0
C2501 C 0.87052 0.85603 0.80954 0.0
H2502 H 0.86888 0.85495 0.87337 0.0
H2503 H 0.81043 0.82863 0.63162 0.0
H2504 H 0.20183 0.06683 0.69174 0.0
H2505 H 0.19312 0.04394 0.72547 0.0
H2506 H 0.14927 0.00335 0.67898 0.0
H2507 H 0.15716 0.0265 0.64631 0.0
H2508 H 0.13566 0.0009 0.72029 0.0
H2509 H 0.19147 0.00307 0.69555 0.0
H2510 H 0.22462 0.01744 0.68551 0.0
H2511 H 0.2385 0.03813 0.7608 0.0
H2512 H 0.20543 0.02408 0.77121 0.0
H2513 H 0.14165 0.93332 0.81678 0.0
H2514 H 0.15498 0.95378 0.78025 0.0
H2515 H 0.13011 0.98554 0.80478 0.0
H2516 H 0.11634 0.96498 0.84039 0.0
H2517 H 0.17822 0.98944 0.77205 0.0
H2518 H 0.11459 0.99929 0.75769 0.0
H2519 H 0.08083 0.98161 0.76376 0.0
H2520 H 0.08165 0.93079 0.75866 0.0
H2521 H 0.11537 0.94814 0.75222 0.0
C2522 C 0.19045 0.05295 0.6888 0.0
C2523 C 0.18004 0.04843 0.6666 0.0
C2524 C 0.18553 0.0398 0.70798 0.0
C2525 C 0.17053 0.02174 0.70489 0.0
C2526 C 0.16074 0.01715 0.68212 0.0
C2527 C 0.16528 0.03038 0.66338 0.0
C2528 C 0.16402 0.00796 0.72577 0.0
C2529 C 0.14506 0.9984 0.73143 0.0
C2530 C 0.17606 0.00427 0.74023 0.0
C2531 C 0.19596 0.01265 0.7341 0.0
C2532 C 0.20159 0.01078 0.70992 0.0
C2533 C 0.22037 0.01886 0.70417 0.0
C2534 C 0.23366 0.02874 0.72248 0.0
C2535 C 0.22819 0.0305 0.74662 0.0
C2536 C 0.20943 0.02246 0.75247 0.0
C2537 C 0.13905 0.94467 0.81431 0.0
C2538 C 0.12763 0.94728 0.83123 0.0
C2539 C 0.14673 0.9564 0.7935 0.0
C2540 C 0.14324 0.971 0.78943 0.0
C2541 C 0.1326 0.97409 0.80705 0.0
C2542 C 0.12472 0.96228 0.82747 0.0
C2543 C 0.15002 0.98273 0.76649 0.0
C2544 C 0.16894 0.99191 0.76061 0.0
C2545 C 0.13787 0.9856 0.7511 0.0
C2546 C 0.11754 0.97504 0.75469 0.0
C2547 C 0.10756 0.98434 0.75775 0.0
C2548 C 0.08843 0.97437 0.76128 0.0
C2549 C 0.07911 0.95509 0.76167 0.0
C2550 C 0.08889 0.94572 0.75844 0.0
C2551 C 0.10801 0.95562 0.75488 0.0
H2552 H 0.06431 0.9474 0.76442 0.0
H2553 H 0.24819 0.03499 0.71799 0.0
H2554 H 0.94179 0.14583 0.67547 0.0
H2555 H 0.96454 0.16069 0.70908 0.0
H2556 H 0.9698 0.11212 0.71568 0.0
H2557 H 0.94698 0.09711 0.68276 0.0
H2558 H 0.96951 0.12515 0.76065 0.0
H2559 H 0.00101 0.15107 0.68181 0.0
H2560 H 0.00592 0.16764 0.64172 0.0
H2561 H 0.0125 0.21531 0.68124 0.0
H2562 H 0.00739 0.19891 0.72156 0.0
H2563 H 0.0549 0.15254 0.81496 0.0
H2564 H 0.03096 0.14352 0.78322 0.0
H2565 H 0.03174 0.19506 0.7932 0.0
H2566 H 0.05595 0.20438 0.82507 0.0
H2567 H 0.02741 0.18375 0.74279 0.0
H2568 H 0.00049 0.15884 0.82224 0.0
H2569 H 0.9973 0.14245 0.86189 0.0
H2570 H 0.98178 0.09243 0.82133 0.0
H2571 H 0.98567 0.10875 0.78127 0.0
C2572 C 0.94761 0.13822 0.68429 0.0
C2573 C 0.94258 0.12028 0.67621 0.0
C2574 C 0.96072 0.1468 0.70341 0.0
C2575 C 0.96911 0.13764 0.71468 0.0
C2576 C 0.96358 0.11951 0.70728 0.0
C2577 C 0.9505 0.11094 0.68832 0.0
C2578 C 0.98406 0.14687 0.73367 0.0
C2579 C 0.9822 0.13791 0.75667 0.0
C2580 C 0.00044 0.16382 0.72884 0.0
C2581 C 0.00361 0.1737 0.70465 0.0
C2582 C 0.00337 0.16504 0.68192 0.0
C2583 C 0.00621 0.1744 0.65917 0.0
C2584 C 0.00946 0.1925 0.65893 0.0
C2585 C 0.00994 0.20128 0.68145 0.0
C2586 C 0.00708 0.19196 0.70426 0.0
C2587 C 0.05021 0.16213 0.81028 0.0
C2588 C 0.05724 0.17912 0.82289 0.0
C2589 C 0.03646 0.15691 0.7921 0.0
C2590 C 0.02931 0.16846 0.78619 0.0
C2591 C 0.037 0.18589 0.79759 0.0
C2592 C 0.05083 0.19117 0.81583 0.0
C2593 C 0.01304 0.16167 0.76932 0.0
C2594 C 0.01462 0.17111 0.74687 0.0
C2595 C 0.99639 0.14511 0.7746 0.0
C2596 C 0.99351 0.13508 0.7987 0.0
C2597 C 0.99652 0.14438 0.82173 0.0
C2598 C 0.99459 0.13509 0.84431 0.0
C2599 C 0.98924 0.11637 0.84418 0.0
C2600 C 0.98589 0.10692 0.82142 0.0
C2601 C 0.98802 0.11621 0.79875 0.0
H2602 H 0.98772 0.1092 0.8617 0.0
H2603 H 0.01165 0.19973 0.6413 0.0
H2604 H 0.81659 0.53576 0.66326 0.0
H2605 H 0.83267 0.52712 0.6323 0.0
H2606 H 0.78179 0.47688 0.61646 0.0
H2607 H 0.76573 0.48525 0.64718 0.0
H2608 H 0.80975 0.4703 0.62672 0.0
H2609 H 0.80062 0.51326 0.57526 0.0
H2610 H 0.80438 0.54378 0.56545 0.0
H2611 H 0.86335 0.56794 0.56709 0.0
H2612 H 0.85993 0.53759 0.57721 0.0
H2613 H 0.81694 0.43135 0.5157 0.0
H2614 H 0.81031 0.44651 0.54952 0.0
H2615 H 0.86602 0.49246 0.546 0.0
H2616 H 0.87275 0.47747 0.51119 0.0
H2617 H 0.84214 0.50467 0.54984 0.0
H2618 H 0.85183 0.46165 0.59558 0.0
H2619 H 0.84891 0.43157 0.60593 0.0
H2620 H 0.79055 0.40819 0.6169 0.0
H2621 H 0.79306 0.43805 0.60627 0.0
C2622 C 0.80876 0.52302 0.65288 0.0
C2623 C 0.78986 0.51115 0.65791 0.0
C2624 C 0.81799 0.51809 0.6352 0.0
C2625 C 0.80845 0.50128 0.62216 0.0
C2626 C 0.78948 0.48983 0.62645 0.0
C2627 C 0.7803 0.4947 0.64403 0.0
C2628 C 0.8181 0.49489 0.6049 0.0
C2629 C 0.81675 0.47777 0.60983 0.0
C2630 C 0.828 0.50503 0.5835 0.0
C2631 C 0.83002 0.52321 0.57728 0.0
C2632 C 0.81439 0.52511 0.57373 0.0
C2633 C 0.81646 0.54237 0.56807 0.0
C2634 C 0.8341 0.5578 0.56573 0.0
C2635 C 0.8497 0.55599 0.56896 0.0
C2636 C 0.8477 0.53876 0.57463 0.0
C2637 C 0.82795 0.44459 0.52215 0.0
C2638 C 0.84545 0.45311 0.51064 0.0
C2639 C 0.82411 0.45324 0.54169 0.0
C2640 C 0.83772 0.47052 0.55067 0.0
C2641 C 0.85531 0.47908 0.53947 0.0
C2642 C 0.85916 0.47044 0.51967 0.0
C2643 C 0.83305 0.47966 0.5711 0.0
C2644 C 0.83542 0.49731 0.56691 0.0
C2645 C 0.82422 0.4701 0.5934 0.0
C2646 C 0.82264 0.45211 0.60001 0.0
C2647 C 0.83836 0.45008 0.60006 0.0
C2648 C 0.83677 0.43306 0.60599 0.0
C2649 C 0.81956 0.41798 0.61204 0.0
C2650 C 0.80388 0.41989 0.61222 0.0
C2651 C 0.80538 0.43687 0.60629 0.0
H2652 H 0.81836 0.40481 0.61662 0.0
H2653 H 0.83567 0.57115 0.56136 0.0
H2654 H 0.51728 0.29347 0.65841 0.0
H2655 H 0.52309 0.3165 0.62646 0.0
H2656 H 0.46456 0.2949 0.61799 0.0
H2657 H 0.45847 0.27167 0.65059 0.0
H2658 H 0.48626 0.3023 0.57111 0.0
H2659 H 0.48448 0.33253 0.64573 0.0
H2660 H 0.49146 0.34247 0.68982 0.0
H2661 H 0.54933 0.3736 0.67254 0.0
H2662 H 0.54271 0.36362 0.62836 0.0
H2663 H 0.51162 0.38168 0.49214 0.0
H2664 H 0.49613 0.35909 0.5259 0.0
H2665 H 0.54908 0.37126 0.5553 0.0
H2666 H 0.56459 0.39352 0.52156 0.0
H2667 H 0.52425 0.36872 0.59266 0.0
H2668 H 0.52674 0.33484 0.52101 0.0
H2669 H 0.52083 0.3224 0.47795 0.0
H2670 H 0.4624 0.29716 0.49017 0.0
H2671 H 0.46797 0.30969 0.53323 0.0
C2672 C 0.50554 0.29343 0.64975 0.0
C2673 C 0.48737 0.28063 0.65713 0.0
C2674 C 0.50893 0.30672 0.63154 0.0
C2675 C 0.49428 0.30752 0.62005 0.0
C2676 C 0.47606 0.29454 0.62676 0.0
C2677 C 0.47262 0.2813 0.64537 0.0
C2678 C 0.49841 0.32204 0.60103 0.0
C2679 C 0.49409 0.31685 0.57584 0.0
C2680 C 0.50899 0.34099 0.60723 0.0
C2681 C 0.51309 0.34722 0.63374 0.0
C2682 C 0.49871 0.34138 0.65136 0.0
C2683 C 0.5026 0.34705 0.67637 0.0
C2684 C 0.52083 0.35863 0.68401 0.0
C2685 C 0.53521 0.36462 0.66661 0.0
C2686 C 0.53139 0.35899 0.64155 0.0
C2687 C 0.51995 0.37971 0.506 0.0
C2688 C 0.53934 0.38936 0.50413 0.0
C2689 C 0.51108 0.36673 0.52518 0.0
C2690 C 0.52146 0.36343 0.54303 0.0
C2691 C 0.5408 0.37359 0.54175 0.0
C2692 C 0.54964 0.38627 0.52239 0.0
C2693 C 0.51238 0.34898 0.56262 0.0
C2694 C 0.51591 0.35421 0.58795 0.0
C2695 C 0.50112 0.33006 0.55651 0.0
C2696 C 0.49778 0.32343 0.53021 0.0
C2697 C 0.51264 0.32691 0.51438 0.0
C2698 C 0.50935 0.31977 0.49002 0.0
C2699 C 0.49125 0.30898 0.48137 0.0
C2700 C 0.47641 0.30551 0.49692 0.0
C2701 C 0.47962 0.31265 0.52129 0.0
H2702 H 0.48874 0.30318 0.46268 0.0
H2703 H 0.52382 0.36299 0.70339 0.0
H2704 H 0.60559 0.12729 0.51178 0.0
H2705 H 0.62937 0.13445 0.5438 0.0
H2706 H 0.64597 0.19216 0.53903 0.0
H2707 H 0.62243 0.18526 0.50743 0.0
H2708 H 0.67545 0.18568 0.53527 0.0
H2709 H 0.62158 0.16762 0.58776 0.0
H2710 H 0.5901 0.14608 0.60288 0.0
H2711 H 0.60672 0.10681 0.62302 0.0
H2712 H 0.63827 0.12805 0.60769 0.0
H2713 H 0.72548 0.23376 0.64084 0.0
H2714 H 0.70309 0.21814 0.60756 0.0
H2715 H 0.69668 0.1659 0.63102 0.0
H2716 H 0.71922 0.18154 0.6648 0.0
H2717 H 0.66314 0.1641 0.62359 0.0
H2718 H 0.71812 0.18388 0.57706 0.0
H2719 H 0.7497 0.20528 0.56221 0.0
H2720 H 0.7314 0.24052 0.53031 0.0
H2721 H 0.69975 0.21948 0.5453 0.0
C2722 C 0.61419 0.14148 0.51773 0.0
C2723 C 0.61205 0.15568 0.50692 0.0
C2724 C 0.62777 0.14554 0.53602 0.0
C2725 C 0.63949 0.16386 0.54369 0.0
C2726 C 0.63716 0.17794 0.53327 0.0
C2727 C 0.62357 0.17392 0.51525 0.0
C2728 C 0.65456 0.16872 0.56212 0.0
C2729 C 0.67277 0.18101 0.5546 0.0
C2730 C 0.65114 0.16205 0.58708 0.0
C2731 C 0.6322 0.14931 0.59627 0.0
C2732 C 0.61847 0.15432 0.59518 0.0
C2733 C 0.60063 0.14218 0.60384 0.0
C2734 C 0.59639 0.12506 0.61382 0.0
C2735 C 0.61001 0.12006 0.61523 0.0
C2736 C 0.62787 0.13214 0.60656 0.0
C2737 C 0.71949 0.21897 0.63888 0.0
C2738 C 0.72418 0.20892 0.65557 0.0
C2739 C 0.70671 0.21005 0.61971 0.0
C2740 C 0.69829 0.19086 0.61665 0.0
C2741 C 0.70306 0.18073 0.63301 0.0
C2742 C 0.71602 0.18971 0.65219 0.0
C2743 C 0.68397 0.18159 0.59692 0.0
C2744 C 0.66592 0.16848 0.60414 0.0
C2745 C 0.68754 0.18741 0.57159 0.0
C2746 C 0.70656 0.20013 0.56245 0.0
C2747 C 0.72085 0.19626 0.56704 0.0
C2748 C 0.73877 0.20832 0.55857 0.0
C2749 C 0.74256 0.22426 0.54535 0.0
C2750 C 0.72844 0.22817 0.54055 0.0
C2751 C 0.7105 0.21616 0.549 0.0
H2752 H 0.75644 0.23358 0.53881 0.0
H2753 H 0.58257 0.11568 0.62052 0.0
H2754 H 0.56509 0.17908 0.01441 0.0
H2755 H 0.54937 0.18512 0.04817 0.0
H2756 H 0.5008 0.13196 0.03643 0.0
H2757 H 0.51647 0.12581 0.00189 0.0
H2758 H 0.4918 0.15891 0.04215 0.0
H2759 H 0.52679 0.1387 0.08803 0.0
H2760 H 0.55404 0.13642 0.10011 0.0
H2761 H 0.58302 0.19381 0.12022 0.0
H2762 H 0.55605 0.19653 0.10792 0.0
H2763 H 0.46041 0.1829 0.15746 0.0
H2764 H 0.46768 0.16607 0.12589 0.0
H2765 H 0.52127 0.21412 0.11466 0.0
H2766 H 0.51425 0.23097 0.14573 0.0
H2767 H 0.52276 0.18218 0.12427 0.0
H2768 H 0.48811 0.20215 0.07179 0.0
H2769 H 0.46014 0.2034 0.06055 0.0
H2770 H 0.4293 0.14429 0.05476 0.0
H2771 H 0.45706 0.14269 0.06629 0.0
C2772 C 0.55111 0.16852 0.01898 0.0
C2773 C 0.5421 0.15191 0.00534 0.0
C2774 C 0.54214 0.172 0.03847 0.0
C2775 C 0.52396 0.15892 0.0451 0.0
C2776 C 0.51486 0.14224 0.0317 0.0
C2777 C 0.52388 0.13871 0.01207 0.0
C2778 C 0.51464 0.16326 0.06561 0.0
C2779 C 0.49834 0.16359 0.06032 0.0
C2780 C 0.52311 0.16937 0.08937 0.0
C2781 C 0.53939 0.16783 0.09693 0.0
C2782 C 0.53901 0.15087 0.09488 0.0
C2783 C 0.55441 0.14949 0.10179 0.0
C2784 C 0.57026 0.16496 0.1109 0.0
C2785 C 0.57073 0.18184 0.11316 0.0
C2786 C 0.55538 0.18329 0.10627 0.0
C2787 C 0.47364 0.18996 0.14802 0.0
C2788 C 0.48676 0.20829 0.15435 0.0
C2789 C 0.47777 0.1803 0.13 0.0
C2790 C 0.49508 0.18881 0.11808 0.0
C2791 C 0.50789 0.20723 0.12379 0.0
C2792 C 0.50378 0.21688 0.14157 0.0
C2793 C 0.50048 0.17863 0.10035 0.0
C2794 C 0.51603 0.17713 0.10627 0.0
C2795 C 0.49118 0.17127 0.0774 0.0
C2796 C 0.47459 0.17228 0.0702 0.0
C2797 C 0.47533 0.18941 0.06832 0.0
C2798 C 0.45952 0.19019 0.06185 0.0
C2799 C 0.44293 0.17393 0.05704 0.0
C2800 C 0.44214 0.15687 0.05855 0.0
C2801 C 0.45791 0.15602 0.06503 0.0
H2802 H 0.43071 0.17456 0.05206 0.0
H2803 H 0.58216 0.16387 0.11623 0.0
H2804 H 0.81485 0.37861 0.01152 0.0
H2805 H 0.80831 0.35667 0.04516 0.0
H2806 H 0.86498 0.36912 0.0445 0.0
H2807 H 0.87169 0.3911 0.01002 0.0
H2808 H 0.84157 0.33226 0.04804 0.0
H2809 H 0.84946 0.38501 0.09213 0.0
H2810 H 0.8455 0.41173 0.10121 0.0
H2811 H 0.78724 0.37557 0.11143 0.0
H2812 H 0.7908 0.34864 0.10206 0.0
H2813 H 0.81677 0.27764 0.16363 0.0
H2814 H 0.83253 0.30184 0.13185 0.0
H2815 H 0.78095 0.29915 0.11387 0.0
H2816 H 0.76522 0.27524 0.14531 0.0
H2817 H 0.80823 0.33424 0.12391 0.0
H2818 H 0.80073 0.28202 0.07441 0.0
H2819 H 0.8053 0.25562 0.06561 0.0
H2820 H 0.8641 0.29158 0.0671 0.0
H2821 H 0.85987 0.31816 0.07624 0.0
C2822 C 0.82606 0.37689 0.01851 0.0
C2823 C 0.84387 0.38679 0.00803 0.0
C2824 C 0.82227 0.36431 0.0379 0.0
C2825 C 0.8362 0.36142 0.04769 0.0
C2826 C 0.85402 0.37118 0.03732 0.0
C2827 C 0.85784 0.3838 0.0177 0.0
C2828 C 0.83172 0.3479 0.06843 0.0
C2829 C 0.83463 0.33289 0.0649 0.0
C2830 C 0.82261 0.34864 0.09042 0.0
C2831 C 0.8204 0.3648 0.09627 0.0
C2832 C 0.83578 0.38276 0.09617 0.0
C2833 C 0.83361 0.39794 0.10139 0.0
C2834 C 0.81613 0.39535 0.10686 0.0
C2835 C 0.80078 0.37756 0.10719 0.0
C2836 C 0.80287 0.36232 0.10197 0.0
C2837 C 0.80874 0.28199 0.1526 0.0
C2838 C 0.78973 0.27457 0.15724 0.0
C2839 C 0.81778 0.29584 0.13447 0.0
C2840 C 0.80794 0.3024 0.12061 0.0
C2841 C 0.78887 0.29444 0.1245 0.0
C2842 C 0.77988 0.28069 0.14251 0.0
C2843 C 0.81733 0.31823 0.10299 0.0
C2844 C 0.81543 0.33376 0.10725 0.0
C2845 C 0.82747 0.31799 0.08187 0.0
C2846 C 0.82998 0.30202 0.07631 0.0
C2847 C 0.81463 0.28426 0.07308 0.0
C2848 C 0.81716 0.26928 0.06798 0.0
C2849 C 0.83498 0.27191 0.06588 0.0
C2850 C 0.85031 0.28955 0.06879 0.0
C2851 C 0.84785 0.30458 0.07391 0.0
H2852 H 0.83691 0.26029 0.06193 0.0
H2853 H 0.81447 0.40713 0.11089 0.0
H2854 H 0.61015 0.4833 0.00678 0.0
H2855 H 0.63326 0.49882 0.03987 0.0
H2856 H 0.63607 0.44922 0.05128 0.0
H2857 H 0.61289 0.4336 0.01903 0.0
H2858 H 0.63676 0.46385 0.09459 0.0
H2859 H 0.66829 0.48665 0.01513 0.0
H2860 H 0.67388 0.50218 0.97408 0.0
H2861 H 0.68273 0.55179 0.01037 0.0
H2862 H 0.67696 0.53646 0.05163 0.0
H2863 H 0.7219 0.48785 0.14576 0.0
H2864 H 0.69838 0.48031 0.11384 0.0
H2865 H 0.7004 0.53214 0.12696 0.0
H2866 H 0.72416 0.53994 0.1592 0.0
H2867 H 0.69588 0.52055 0.07446 0.0
H2868 H 0.66939 0.49745 0.15528 0.0
H2869 H 0.66667 0.48125 0.19496 0.0
H2870 H 0.64878 0.43058 0.15483 0.0
H2871 H 0.65228 0.4467 0.11472 0.0
C2872 C 0.61551 0.47563 0.01659 0.0
C2873 C 0.60967 0.45719 0.01005 0.0
C2874 C 0.62883 0.48457 0.03538 0.0
C2875 C 0.63664 0.47529 0.04787 0.0
C2876 C 0.63031 0.45672 0.04196 0.0
C2877 C 0.61703 0.4478 0.02337 0.0
C2878 C 0.65173 0.4847 0.06667 0.0
C2879 C 0.64967 0.47623 0.09012 0.0
C2880 C 0.66848 0.50113 0.06117 0.0
C2881 C 0.67196 0.51034 0.03641 0.0
C2882 C 0.67128 0.50082 0.01433 0.0
C2883 C 0.67451 0.50959 0.99103 0.0
C2884 C 0.67859 0.52794 0.98961 0.0
C2885 C 0.67952 0.53757 0.01149 0.0
C2886 C 0.67627 0.52885 0.03484 0.0
C2887 C 0.71761 0.49784 0.14172 0.0
C2888 C 0.72478 0.51441 0.15541 0.0
C2889 C 0.70414 0.49349 0.12338 0.0
C2890 C 0.69742 0.50552 0.11833 0.0
C2891 C 0.70536 0.52263 0.13066 0.0
C2892 C 0.71892 0.52704 0.14911 0.0
C2893 C 0.68102 0.49928 0.10185 0.0
C2894 C 0.68282 0.50837 0.07902 0.0
C2895 C 0.66406 0.48325 0.10774 0.0
C2896 C 0.66123 0.47334 0.13193 0.0
C2897 C 0.665 0.48288 0.15487 0.0
C2898 C 0.66334 0.4737 0.17746 0.0
C2899 C 0.65746 0.45486 0.17745 0.0
C2900 C 0.65331 0.44517 0.15482 0.0
C2901 C 0.6552 0.45435 0.13212 0.0
H2902 H 0.65615 0.44776 0.19497 0.0
H2903 H 0.6811 0.53471 0.97155 0.0
H2904 H 0.4754 0.87361 0.98013 0.0
H2905 H 0.48921 0.86651 0.94418 0.0
H2906 H 0.45599 0.80839 0.96056 0.0
H2907 H 0.44185 0.81523 0.99563 0.0
H2908 H 0.50926 0.85015 0.9379 0.0
H2909 H 0.44182 0.78312 0.90937 0.0
H2910 H 0.40817 0.77094 0.90989 0.0
H2911 H 0.41717 0.82618 0.90959 0.0
H2912 H 0.45085 0.83869 0.90871 0.0
H2913 H 0.52997 0.79395 0.85874 0.0
H2914 H 0.52089 0.80847 0.89155 0.0
H2915 H 0.48563 0.81518 0.83844 0.0
H2916 H 0.49367 0.79949 0.80647 0.0
H2917 H 0.46742 0.80306 0.87675 0.0
H2918 H 0.52877 0.85259 0.86383 0.0
H2919 H 0.56263 0.86753 0.85982 0.0
H2920 H 0.56654 0.85306 0.93596 0.0
H2921 H 0.53268 0.83781 0.94033 0.0
C2922 C 0.47101 0.85932 0.97597 0.0
C2923 C 0.45728 0.84499 0.99056 0.0
C2924 C 0.47897 0.85529 0.95549 0.0
C2925 C 0.47341 0.83688 0.94935 0.0
C2926 C 0.4602 0.82267 0.96446 0.0
C2927 C 0.4521 0.82664 0.98459 0.0
C2928 C 0.48097 0.83222 0.92697 0.0
C2929 C 0.50016 0.83994 0.9244 0.0
C2930 C 0.46914 0.81926 0.90895 0.0
C2931 C 0.44887 0.81183 0.90918 0.0
C2932 C 0.43662 0.79267 0.90929 0.0
C2933 C 0.41754 0.7857 0.90967 0.0
C2934 C 0.41054 0.79778 0.90984 0.0
C2935 C 0.42261 0.81684 0.90954 0.0
C2936 C 0.44169 0.82387 0.90913 0.0
C2937 C 0.52042 0.79871 0.85419 0.0
C2938 C 0.51239 0.79555 0.83027 0.0
C2939 C 0.51532 0.80715 0.87284 0.0
C2940 C 0.50263 0.81314 0.86757 0.0
C2941 C 0.49529 0.8106 0.84321 0.0
C2942 C 0.49992 0.80169 0.8249 0.0
C2943 C 0.49583 0.82073 0.88767 0.0
C2944 C 0.47668 0.81346 0.88994 0.0
C2945 C 0.50777 0.83457 0.90478 0.0
C2946 C 0.52816 0.84393 0.90234 0.0
C2947 C 0.53684 0.8525 0.87968 0.0
C2948 C 0.55604 0.86104 0.87734 0.0
C2949 C 0.56673 0.86121 0.8976 0.0
C2950 C 0.55825 0.8529 0.92027 0.0
C2951 C 0.53905 0.84434 0.9227 0.0
H2952 H 0.58158 0.86779 0.89574 0.0
H2953 H 0.39577 0.79236 0.91016 0.0
H2954 H 0.18231 0.72189 0.83914 0.0
H2955 H 0.16631 0.6984 0.87167 0.0
H2956 H 0.2126 0.68921 0.87582 0.0
H2957 H 0.22857 0.7124 0.84361 0.0
H2958 H 0.17992 0.65702 0.87097 0.0
H2959 H 0.20487 0.71296 0.92117 0.0
H2960 H 0.20873 0.74328 0.93253 0.0
H2961 H 0.15024 0.71845 0.94384 0.0
H2962 H 0.14601 0.688 0.93222 0.0
H2963 H 0.17746 0.61268 0.98248 0.0
H2964 H 0.18401 0.63415 0.94807 0.0
H2965 H 0.1323 0.63255 0.96084 0.0
H2966 H 0.1256 0.61098 0.99584 0.0
H2967 H 0.16109 0.66812 0.95448 0.0
H2968 H 0.13651 0.61157 0.91007 0.0
H2969 H 0.13228 0.58114 0.89858 0.0
H2970 H 0.18899 0.60665 0.87546 0.0
H2971 H 0.19365 0.63722 0.88716 0.0
C2972 C 0.18916 0.715 0.84716 0.0
C2973 C 0.20674 0.71905 0.83858 0.0
C2974 C 0.17998 0.70158 0.86576 0.0
C2975 C 0.18823 0.69199 0.87611 0.0
C2976 C 0.2059 0.69632 0.86798 0.0
C2977 C 0.21506 0.70969 0.84956 0.0
C2978 C 0.17851 0.67702 0.89488 0.0
C2979 C 0.17587 0.65947 0.88927 0.0
C2980 C 0.17253 0.68 0.91837 0.0
C2981 C 0.1751 0.69826 0.92553 0.0
C2982 C 0.19282 0.71399 0.92588 0.0
C2983 C 0.19508 0.73119 0.9324 0.0
C2984 C 0.17973 0.7328 0.93881 0.0
C2985 C 0.1621 0.71719 0.93881 0.0
C2986 C 0.15977 0.69996 0.93228 0.0
C2987 C 0.16734 0.61672 0.97798 0.0
C2988 C 0.15096 0.61002 0.99201 0.0
C2989 C 0.1711 0.62899 0.95816 0.0
C2990 C 0.15858 0.63485 0.95168 0.0
C2991 C 0.14214 0.62817 0.96547 0.0
C2992 C 0.13829 0.61576 0.98537 0.0
C2993 C 0.16319 0.64832 0.93088 0.0
C2994 C 0.16482 0.66555 0.93603 0.0
C2995 C 0.16817 0.64505 0.90684 0.0
C2996 C 0.16544 0.6267 0.89964 0.0
C2997 C 0.14811 0.61069 0.9027 0.0
C2998 C 0.14564 0.59341 0.89612 0.0
C2999 C 0.16036 0.59196 0.88633 0.0
C3000 C 0.17759 0.6078 0.88305 0.0
C3001 C 0.18015 0.62511 0.88962 0.0
H3002 H 0.15841 0.57858 0.88125 0.0
H3003 H 0.18151 0.74613 0.94383 0.0
H3004 H 0.38182 0.56636 0.98692 0.0
H3005 H 0.35775 0.55017 0.95585 0.0
H3006 H 0.36646 0.5036 0.95939 0.0
H3007 H 0.3908 0.51976 0.99091 0.0
H3008 H 0.361 0.51355 0.9092 0.0
H3009 H 0.33147 0.49914 0.9894 0.0
H3010 H 0.3249 0.50603 0.03189 0.0
H3011 H 0.30483 0.54002 0.00065 0.0
H3012 H 0.31156 0.53357 0.95797 0.0
H3013 H 0.27722 0.46283 0.83902 0.0
H3014 H 0.29947 0.47015 0.87316 0.0
H3015 H 0.29836 0.52021 0.88847 0.0
H3016 H 0.27615 0.51303 0.85467 0.0
H3017 H 0.29883 0.50307 0.93153 0.0
H3018 H 0.33117 0.52049 0.85255 0.0
H3019 H 0.3376 0.51441 0.80962 0.0
H3020 H 0.3531 0.47601 0.83803 0.0
H3021 H 0.34611 0.48141 0.88118 0.0
C3022 C 0.37884 0.55274 0.98106 0.0
C3023 C 0.38822 0.54433 0.99172 0.0
C3024 C 0.36499 0.54348 0.96327 0.0
C3025 C 0.36012 0.52559 0.9556 0.0
C3026 C 0.36997 0.51739 0.96518 0.0
C3027 C 0.38386 0.52665 0.9832 0.0
C3028 C 0.34421 0.51544 0.93837 0.0
C3029 C 0.34729 0.51084 0.91423 0.0
C3030 C 0.3264 0.51219 0.94484 0.0
C3031 C 0.32214 0.51595 0.97048 0.0
C3032 C 0.32578 0.50818 0.99159 0.0
C3033 C 0.32201 0.512 0.01571 0.0
C3034 C 0.31448 0.52347 0.01897 0.0
C3035 C 0.31067 0.53113 0.9981 0.0
C3036 C 0.31444 0.52738 0.97394 0.0
C3037 C 0.28149 0.47526 0.84989 0.0
C3038 C 0.27498 0.48741 0.84392 0.0
C3039 C 0.29428 0.47946 0.86933 0.0
C3040 C 0.30074 0.49584 0.88318 0.0
C3041 C 0.29359 0.50751 0.87803 0.0
C3042 C 0.28093 0.5034 0.85858 0.0
C3043 C 0.31567 0.50154 0.90214 0.0
C3044 C 0.31241 0.50537 0.92663 0.0
C3045 C 0.33331 0.50415 0.89591 0.0
C3046 C 0.33787 0.50116 0.87006 0.0
C3047 C 0.33578 0.51062 0.84964 0.0
C3048 C 0.33955 0.5073 0.82525 0.0
C3049 C 0.34578 0.49483 0.82107 0.0
C3050 C 0.34824 0.48565 0.8413 0.0
C3051 C 0.34433 0.48879 0.86572 0.0
H3052 H 0.34871 0.49231 0.80216 0.0
H3053 H 0.31158 0.52641 0.03766 0.0
H3054 H 0.12313 0.51835 0.48462 0.0
H3055 H 0.12925 0.50123 0.45212 0.0
H3056 H 0.18632 0.54427 0.44965 0.0
H3057 H 0.18045 0.56148 0.48155 0.0
H3058 H 0.14532 0.51211 0.40184 0.0
H3059 H 0.21171 0.52248 0.45109 0.0
H3060 H 0.22381 0.52563 0.49412 0.0
H3061 H 0.16851 0.49495 0.5228 0.0
H3062 H 0.15608 0.49136 0.47993 0.0
H3063 H 0.2147 0.51471 0.32414 0.0
H3064 H 0.19752 0.52003 0.35691 0.0
H3065 H 0.17591 0.46428 0.38346 0.0
H3066 H 0.19282 0.45862 0.35003 0.0
H3067 H 0.1924 0.49433 0.42162 0.0
H3068 H 0.14638 0.46962 0.35854 0.0
H3069 H 0.13347 0.46565 0.31594 0.0
H3070 H 0.14576 0.522 0.31576 0.0
H3071 H 0.15907 0.52643 0.35824 0.0
C3072 C 0.13693 0.52427 0.47694 0.0
C3073 C 0.15129 0.54129 0.48586 0.0
C3074 C 0.14038 0.51446 0.45838 0.0
C3075 C 0.15829 0.52139 0.44877 0.0
C3076 C 0.17245 0.53859 0.45704 0.0
C3077 C 0.16901 0.54845 0.47527 0.0
C3078 C 0.16266 0.5107 0.43057 0.0
C3079 C 0.15545 0.50802 0.4062 0.0
C3080 C 0.17559 0.50502 0.43646 0.0
C3081 C 0.18297 0.50676 0.46228 0.0
C3082 C 0.20213 0.5163 0.46655 0.0
C3083 C 0.20905 0.51819 0.49093 0.0
C3084 C 0.19693 0.51054 0.51118 0.0
C3085 C 0.17788 0.50092 0.5071 0.0
C3086 C 0.17089 0.49898 0.48277 0.0
C3087 C 0.20633 0.50354 0.33693 0.0
C3088 C 0.20521 0.48626 0.33458 0.0
C3089 C 0.19642 0.50659 0.35555 0.0
C3090 C 0.18539 0.49253 0.3725 0.0
C3091 C 0.18432 0.47528 0.37046 0.0
C3092 C 0.19396 0.47207 0.35139 0.0
C3093 C 0.17559 0.4964 0.39268 0.0
C3094 C 0.18194 0.49798 0.41739 0.0
C3095 C 0.16173 0.50087 0.38714 0.0
C3096 C 0.15383 0.49839 0.36154 0.0
C3097 C 0.1465 0.48123 0.34934 0.0
C3098 C 0.13909 0.47888 0.32523 0.0
C3099 C 0.13881 0.49356 0.31316 0.0
C3100 C 0.14598 0.51064 0.32516 0.0
C3101 C 0.15345 0.51307 0.34927 0.0
H3102 H 0.13297 0.49166 0.29455 0.0
H3103 H 0.20231 0.51203 0.53004 0.0
H3104 H 0.43511 0.62184 0.4918 0.0
H3105 H 0.44991 0.64401 0.45822 0.0
H3106 H 0.49131 0.62789 0.45134 0.0
H3107 H 0.47671 0.60571 0.48577 0.0
H3108 H 0.50684 0.66496 0.44915 0.0
H3109 H 0.45701 0.61425 0.4073 0.0
H3110 H 0.42489 0.58935 0.40073 0.0
H3111 H 0.40701 0.62929 0.39681 0.0
H3112 H 0.43898 0.65443 0.4037 0.0
H3113 H 0.53575 0.71898 0.33406 0.0
H3114 H 0.52654 0.69492 0.36615 0.0
H3115 H 0.48024 0.70162 0.38616 0.0
H3116 H 0.4891 0.72529 0.35407 0.0
H3117 H 0.46934 0.66635 0.37797 0.0
H3118 H 0.5191 0.71665 0.42415 0.0
H3119 H 0.55134 0.74133 0.43069 0.0
H3120 H 0.56955 0.70169 0.42545 0.0
H3121 H 0.53743 0.6768 0.41856 0.0
C3122 C 0.44728 0.6228 0.48315 0.0
C3123 C 0.4546 0.6118 0.49149 0.0
C3124 C 0.45572 0.63553 0.4638 0.0
C3125 C 0.47156 0.63744 0.4519 0.0
C3126 C 0.47904 0.6266 0.46016 0.0
C3127 C 0.47063 0.61386 0.47977 0.0
C3128 C 0.48021 0.65103 0.43114 0.0
C3129 C 0.49875 0.66507 0.43331 0.0
C3130 C 0.46965 0.6513 0.41054 0.0
C3131 C 0.4504 0.63622 0.40614 0.0
C3132 C 0.44622 0.61772 0.40517 0.0
C3133 C 0.42804 0.60356 0.40138 0.0
C3134 C 0.41392 0.60773 0.39839 0.0
C3135 C 0.41796 0.62608 0.39912 0.0
C3136 C 0.43612 0.64029 0.40293 0.0
C3137 C 0.5238 0.71554 0.3456 0.0
C3138 C 0.51309 0.72399 0.34133 0.0
C3139 C 0.51854 0.70178 0.36395 0.0
C3140 C 0.50264 0.69639 0.37854 0.0
C3141 C 0.49246 0.7054 0.375 0.0
C3142 C 0.49759 0.719 0.35665 0.0
C3143 C 0.49574 0.68068 0.39649 0.0
C3144 C 0.47751 0.66614 0.39365 0.0
C3145 C 0.50663 0.67995 0.41632 0.0
C3146 C 0.5259 0.6949 0.42055 0.0
C3147 C 0.53 0.71322 0.42419 0.0
C3148 C 0.54824 0.72725 0.428 0.0
C3149 C 0.56249 0.72309 0.42841 0.0
C3150 C 0.55851 0.70489 0.42508 0.0
C3151 C 0.54029 0.69082 0.42124 0.0
H3152 H 0.5766 0.73397 0.43136 0.0
H3153 H 0.39985 0.59675 0.39547 0.0
H3154 H 0.38861 0.87362 0.49563 0.0
H3155 H 0.366 0.8665 0.46199 0.0
H3156 H 0.36217 0.8136 0.45112 0.0
H3157 H 0.38477 0.82062 0.48416 0.0
H3158 H 0.3632 0.82903 0.40717 0.0
H3159 H 0.32997 0.81864 0.48563 0.0
H3160 H 0.3237 0.82791 0.52675 0.0
H3161 H 0.31572 0.86946 0.49112 0.0
H3162 H 0.32218 0.86058 0.44981 0.0
H3163 H 0.27875 0.76807 0.35459 0.0
H3164 H 0.30221 0.7843 0.38643 0.0
H3165 H 0.30006 0.83394 0.37242 0.0
H3166 H 0.27642 0.81776 0.34005 0.0
H3167 H 0.30362 0.82613 0.42571 0.0
H3168 H 0.33301 0.83309 0.34621 0.0
H3169 H 0.33813 0.82229 0.30556 0.0
H3170 H 0.35292 0.78629 0.34364 0.0
H3171 H 0.34758 0.79664 0.38454 0.0
C3172 C 0.38311 0.86056 0.48588 0.0
C3173 C 0.38849 0.84767 0.49277 0.0
C3174 C 0.37009 0.85647 0.46676 0.0
C3175 C 0.3622 0.83942 0.45421 0.0
C3176 C 0.36803 0.82684 0.46051 0.0
C3177 C 0.38096 0.83088 0.47954 0.0
C3178 C 0.34757 0.8342 0.43487 0.0
C3179 C 0.35019 0.8284 0.41128 0.0
C3180 C 0.33073 0.83382 0.4399 0.0
C3181 C 0.32679 0.83911 0.46469 0.0
C3182 C 0.32703 0.82986 0.4866 0.0
C3183 C 0.32341 0.83502 0.50993 0.0
C3184 C 0.31938 0.84931 0.51156 0.0
C3185 C 0.31889 0.85842 0.48984 0.0
C3186 C 0.32252 0.85333 0.46647 0.0
C3187 C 0.283 0.78237 0.35837 0.0
C3188 C 0.27581 0.79164 0.34441 0.0
C3189 C 0.29646 0.79163 0.37664 0.0
C3190 C 0.30307 0.81038 0.38149 0.0
C3191 C 0.29517 0.81947 0.36885 0.0
C3192 C 0.28166 0.81019 0.35037 0.0
C3193 C 0.31915 0.82048 0.39845 0.0
C3194 C 0.3168 0.82716 0.42149 0.0
C3195 C 0.33626 0.82163 0.39301 0.0
C3196 C 0.33978 0.81557 0.36845 0.0
C3197 C 0.33723 0.82278 0.34592 0.0
C3198 C 0.34019 0.81675 0.32283 0.0
C3199 C 0.34582 0.80359 0.32202 0.0
C3200 C 0.34855 0.79648 0.3443 0.0
C3201 C 0.34559 0.80244 0.36744 0.0
H3202 H 0.34809 0.79893 0.30412 0.0
H3203 H 0.31658 0.85328 0.52964 0.0
H3204 H 0.25289 0.1164 0.1602 0.0
H3205 H 0.28497 0.12789 0.17247 0.0
H3206 H 0.30194 0.17698 0.12824 0.0
H3207 H 0.26975 0.16552 0.11583 0.0
H3208 H 0.32369 0.16125 0.11977 0.0
H3209 H 0.30115 0.17941 0.19072 0.0
H3210 H 0.27991 0.1748 0.22563 0.0
H3211 H 0.29206 0.13537 0.25911 0.0
H3212 H 0.31319 0.13956 0.22419 0.0
H3213 H 0.41448 0.21623 0.16662 0.0
H3214 H 0.38226 0.20314 0.15426 0.0
H3215 H 0.36727 0.15589 0.20161 0.0
H3216 H 0.39967 0.16906 0.21431 0.0
H3217 H 0.34429 0.16965 0.20851 0.0
H3218 H 0.36733 0.15183 0.13844 0.0
H3219 H 0.38861 0.15623 0.10368 0.0
H3220 H 0.37546 0.19442 0.06849 0.0
H3221 H 0.3543 0.19046 0.10325 0.0
C3222 C 0.26341 0.12972 0.15323 0.0
C3223 C 0.25876 0.14007 0.13707 0.0
C3224 C 0.28175 0.13629 0.16031 0.0
C3225 C 0.29586 0.15334 0.15138 0.0
C3226 C 0.29127 0.16378 0.13536 0.0
C3227 C 0.27287 0.15727 0.12839 0.0
C3228 C 0.31544 0.16001 0.15832 0.0
C3229 C 0.32826 0.16334 0.13915 0.0
C3230 C 0.32128 0.16217 0.18365 0.0
C3231 C 0.30861 0.15966 0.2047 0.0
C3232 C 0.29918 0.16964 0.20542 0.0
C3233 C 0.28718 0.16712 0.22523 0.0
C3234 C 0.28459 0.15476 0.24454 0.0
C3235 C 0.29405 0.14492 0.24412 0.0
C3236 C 0.30605 0.14737 0.22433 0.0
C3237 C 0.40439 0.20295 0.17425 0.0
C3238 C 0.40966 0.19367 0.19144 0.0
C3239 C 0.38595 0.19545 0.16708 0.0
C3240 C 0.37232 0.17846 0.17684 0.0
C3241 C 0.37755 0.16902 0.19381 0.0
C3242 C 0.39607 0.1765 0.20095 0.0
C3243 C 0.35259 0.171 0.16995 0.0
C3244 C 0.33973 0.16751 0.18912 0.0
C3245 C 0.3467 0.16862 0.14462 0.0
C3246 C 0.35934 0.17097 0.12359 0.0
C3247 C 0.36908 0.16128 0.1234 0.0
C3248 C 0.3811 0.16367 0.10367 0.0
C3249 C 0.38342 0.17563 0.08392 0.0
C3250 C 0.37367 0.18518 0.08382 0.0
C3251 C 0.36164 0.18285 0.10352 0.0
H3252 H 0.39274 0.17747 0.06867 0.0
H3253 H 0.2753 0.15284 0.25987 0.0
H3254 H 0.78202 0.19331 0.17248 0.0
H3255 H 0.7952 0.1741 0.16085 0.0
H3256 H 0.84422 0.20939 0.20357 0.0
H3257 H 0.83112 0.22889 0.21517 0.0
H3258 H 0.85258 0.19933 0.15888 0.0
H3259 H 0.81162 0.16859 0.22761 0.0
H3260 H 0.78217 0.15488 0.2508 0.0
H3261 H 0.75531 0.11574 0.19139 0.0
H3262 H 0.78455 0.1294 0.16766 0.0
H3263 H 0.88767 0.13821 0.16408 0.0
H3264 H 0.87471 0.15752 0.17617 0.0
H3265 H 0.82527 0.12234 0.13415 0.0
H3266 H 0.83814 0.10272 0.12214 0.0
H3267 H 0.81725 0.13242 0.17879 0.0
H3268 H 0.85818 0.16328 0.10996 0.0
H3269 H 0.88763 0.17699 0.08678 0.0
H3270 H 0.91456 0.21592 0.14639 0.0
H3271 H 0.88531 0.20226 0.17011 0.0
C3272 C 0.79568 0.19711 0.17928 0.0
C3273 C 0.80548 0.2126 0.19489 0.0
C3274 C 0.80316 0.18603 0.17271 0.0
C3275 C 0.82056 0.19008 0.1817 0.0
C3276 C 0.83071 0.20593 0.19652 0.0
C3277 C 0.82322 0.21706 0.20314 0.0
C3278 C 0.82794 0.17756 0.17591 0.0
C3279 C 0.84498 0.18476 0.16356 0.0
C3280 C 0.81783 0.15844 0.18148 0.0
C3281 C 0.80024 0.15014 0.19575 0.0
C3282 C 0.7994 0.15715 0.2194 0.0
C3283 C 0.78275 0.14937 0.23265 0.0
C3284 C 0.76687 0.13447 0.22254 0.0
C3285 C 0.76762 0.12729 0.19918 0.0
C3286 C 0.78423 0.13504 0.18583 0.0
C3287 C 0.87397 0.13445 0.15753 0.0
C3288 C 0.86398 0.11896 0.14201 0.0
C3289 C 0.86662 0.14559 0.16437 0.0
C3290 C 0.84915 0.1416 0.15571 0.0
C3291 C 0.83882 0.12575 0.14096 0.0
C3292 C 0.84618 0.11455 0.13411 0.0
C3293 C 0.84188 0.15418 0.16172 0.0
C3294 C 0.82485 0.14699 0.17412 0.0
C3295 C 0.852 0.17332 0.15619 0.0
C3296 C 0.86959 0.18162 0.14192 0.0
C3297 C 0.87041 0.17467 0.11822 0.0
C3298 C 0.88706 0.18245 0.10497 0.0
C3299 C 0.90297 0.19729 0.11514 0.0
C3300 C 0.90223 0.20441 0.13855 0.0
C3301 C 0.88562 0.19666 0.1519 0.0
H3302 H 0.91584 0.20329 0.10485 0.0
H3303 H 0.75399 0.12847 0.23284 0.0
H3304 H 0.81001 0.5883 0.18098 0.0
H3305 H 0.82936 0.62046 0.16835 0.0
H3306 H 0.78693 0.63218 0.1918 0.0
H3307 H 0.76741 0.59985 0.20483 0.0
H3308 H 0.80298 0.64772 0.14454 0.0
H3309 H 0.82214 0.64538 0.22844 0.0
H3310 H 0.83268 0.63345 0.26317 0.0
H3311 H 0.88163 0.64597 0.22174 0.0
H3312 H 0.87124 0.65773 0.18656 0.0
H3313 H 0.85656 0.7451 0.14862 0.0
H3314 H 0.83742 0.71275 0.16041 0.0
H3315 H 0.88074 0.70214 0.13771 0.0
H3316 H 0.90009 0.73471 0.12558 0.0
H3317 H 0.86442 0.6859 0.18417 0.0
H3318 H 0.84552 0.6885 0.10045 0.0
H3319 H 0.83502 0.70033 0.06555 0.0
H3320 H 0.78566 0.68722 0.10634 0.0
H3321 H 0.796 0.67557 0.14169 0.0
C3322 C 0.80469 0.59765 0.18336 0.0
C3323 C 0.78715 0.5915 0.19397 0.0
C3324 C 0.81583 0.61607 0.1762 0.0
C3325 C 0.80967 0.62875 0.17934 0.0
C3326 C 0.79196 0.6226 0.18928 0.0
C3327 C 0.78084 0.60415 0.19674 0.0
C3328 C 0.82191 0.64846 0.17249 0.0
C3329 C 0.81629 0.65616 0.15345 0.0
C3330 C 0.8395 0.6593 0.18365 0.0
C3331 C 0.84581 0.65224 0.20475 0.0
C3332 C 0.83507 0.64543 0.22663 0.0
C3333 C 0.84103 0.63873 0.24642 0.0
C3334 C 0.85779 0.6389 0.24463 0.0
C3335 C 0.86864 0.64582 0.22307 0.0
C3336 C 0.86272 0.65251 0.20321 0.0
C3337 C 0.86211 0.73595 0.1462 0.0
C3338 C 0.87986 0.74249 0.1361 0.0
C3339 C 0.85108 0.71742 0.15286 0.0
C3340 C 0.85756 0.70498 0.14971 0.0
C3341 C 0.87546 0.71151 0.14022 0.0
C3342 C 0.88648 0.73009 0.13327 0.0
C3343 C 0.84547 0.68519 0.15625 0.0
C3344 C 0.85112 0.67746 0.17523 0.0
C3345 C 0.82791 0.67431 0.14501 0.0
C3346 C 0.82164 0.68134 0.12383 0.0
C3347 C 0.83251 0.6883 0.10209 0.0
C3348 C 0.82657 0.69494 0.0822 0.0
C3349 C 0.80971 0.69458 0.08376 0.0
C3350 C 0.79874 0.68753 0.10519 0.0
C3351 C 0.80462 0.68089 0.12515 0.0
H3352 H 0.80513 0.69971 0.06833 0.0
H3353 H 0.86239 0.63372 0.25998 0.0
H3354 H 0.22005 0.41457 0.32628 0.0
H3355 H 0.20814 0.38258 0.33928 0.0
H3356 H 0.1578 0.3663 0.29832 0.0
H3357 H 0.16979 0.39831 0.28486 0.0
H3358 H 0.17909 0.35844 0.36592 0.0
H3359 H 0.14211 0.3234 0.27341 0.0
H3360 H 0.14441 0.3303 0.2281 0.0
H3361 H 0.20237 0.36883 0.23608 0.0
H3362 H 0.20047 0.36197 0.28134 0.0
H3363 H 0.11687 0.25339 0.34099 0.0
H3364 H 0.12949 0.28545 0.32801 0.0
H3365 H 0.17937 0.30067 0.36953 0.0
H3366 H 0.16665 0.26854 0.383 0.0
H3367 H 0.15879 0.30917 0.30163 0.0
H3368 H 0.19586 0.34397 0.39403 0.0
H3369 H 0.19357 0.33712 0.43936 0.0
H3370 H 0.13546 0.2991 0.43159 0.0
H3371 H 0.13736 0.30591 0.38631 0.0
C3372 C 0.20638 0.40422 0.32014 0.0
C3373 C 0.19591 0.40899 0.3044 0.0
C3374 C 0.19958 0.38592 0.32764 0.0
C3375 C 0.18219 0.37195 0.3195 0.0
C3376 C 0.17141 0.37677 0.30448 0.0
C3377 C 0.17823 0.3951 0.29692 0.0
C3378 C 0.17555 0.35235 0.32638 0.0
C3379 C 0.17487 0.34771 0.35183 0.0
C3380 C 0.16973 0.33824 0.30807 0.0
C3381 C 0.17109 0.34231 0.28081 0.0
C3382 C 0.15535 0.3333 0.26547 0.0
C3383 C 0.15659 0.33721 0.2398 0.0
C3384 C 0.17351 0.35004 0.22923 0.0
C3385 C 0.18926 0.35894 0.2443 0.0
C3386 C 0.1881 0.35507 0.26997 0.0
C3387 C 0.13059 0.26351 0.34725 0.0
C3388 C 0.14071 0.25841 0.36316 0.0
C3389 C 0.1378 0.28187 0.33976 0.0
C3390 C 0.15527 0.29557 0.34806 0.0
C3391 C 0.16572 0.29041 0.36323 0.0
C3392 C 0.15848 0.27202 0.3708 0.0
C3393 C 0.16228 0.31524 0.34118 0.0
C3394 C 0.16303 0.3199 0.31572 0.0
C3395 C 0.16817 0.32936 0.35948 0.0
C3396 C 0.16681 0.32531 0.38674 0.0
C3397 C 0.18259 0.33419 0.40203 0.0
C3398 C 0.18136 0.33031 0.4277 0.0
C3399 C 0.1644 0.31763 0.43833 0.0
C3400 C 0.14861 0.30886 0.42332 0.0
C3401 C 0.14976 0.31271 0.39764 0.0
H3402 H 0.16348 0.31463 0.4582 0.0
H3403 H 0.17443 0.35306 0.20937 0.0
H3404 H 0.58755 0.80692 0.32398 0.0
H3405 H 0.61971 0.82612 0.33662 0.0
H3406 H 0.63299 0.78733 0.30288 0.0
H3407 H 0.60061 0.76791 0.29003 0.0
H3408 H 0.64979 0.80006 0.34953 0.0
H3409 H 0.64367 0.82563 0.27226 0.0
H3410 H 0.6298 0.83799 0.24281 0.0
H3411 H 0.64137 0.88214 0.29398 0.0
H3412 H 0.65507 0.86987 0.32394 0.0
H3413 H 0.74657 0.85811 0.34449 0.0
H3414 H 0.7143 0.83877 0.33252 0.0
H3415 H 0.70131 0.87783 0.36605 0.0
H3416 H 0.73382 0.89742 0.3782 0.0
H3417 H 0.68432 0.86494 0.31967 0.0
H3418 H 0.69067 0.83938 0.39687 0.0
H3419 H 0.70463 0.82698 0.42611 0.0
H3420 H 0.69273 0.78279 0.37486 0.0
H3421 H 0.67893 0.79508 0.34512 0.0
C3422 C 0.59724 0.80234 0.31937 0.0
C3423 C 0.59151 0.7859 0.30588 0.0
C3424 C 0.61566 0.81341 0.32654 0.0
C3425 C 0.62882 0.80831 0.3204 0.0
C3426 C 0.62307 0.79157 0.30772 0.0
C3427 C 0.60458 0.78049 0.30038 0.0
C3428 C 0.64859 0.82073 0.32684 0.0
C3429 C 0.65742 0.81416 0.34272 0.0
C3430 C 0.65843 0.83928 0.31843 0.0
C3431 C 0.65022 0.84672 0.30046 0.0
C3432 C 0.64311 0.83788 0.27734 0.0
C3433 C 0.6353 0.84489 0.26054 0.0
C3434 C 0.63465 0.86081 0.26655 0.0
C3435 C 0.64185 0.86979 0.28937 0.0
C3436 C 0.64965 0.86282 0.30626 0.0
C3437 C 0.73692 0.86271 0.34923 0.0
C3438 C 0.74278 0.87931 0.36241 0.0
C3439 C 0.71843 0.85155 0.34245 0.0
C3440 C 0.70532 0.8567 0.34869 0.0
C3441 C 0.71118 0.87355 0.36114 0.0
C3442 C 0.72975 0.88472 0.36809 0.0
C3443 C 0.68552 0.84429 0.34239 0.0
C3444 C 0.67669 0.85085 0.32652 0.0
C3445 C 0.67569 0.82573 0.35078 0.0
C3446 C 0.68393 0.81826 0.36865 0.0
C3447 C 0.69117 0.82711 0.39173 0.0
C3448 C 0.69903 0.82008 0.40841 0.0
C3449 C 0.69962 0.80414 0.40232 0.0
C3450 C 0.69229 0.79515 0.37954 0.0
C3451 C 0.68444 0.80214 0.36277 0.0
H3452 H 0.7057 0.79872 0.41526 0.0
H3453 H 0.62861 0.86622 0.25351 0.0
H3454 H 0.19043 0.77865 0.31503 0.0
H3455 H 0.17035 0.79046 0.32769 0.0
H3456 H 0.21294 0.84574 0.30861 0.0
H3457 H 0.23299 0.83375 0.29483 0.0
H3458 H 0.1713 0.81162 0.36218 0.0
H3459 H 0.19349 0.87166 0.2919 0.0
H3460 H 0.20649 0.88049 0.24926 0.0
H3461 H 0.18337 0.82334 0.22966 0.0
H3462 H 0.17005 0.81417 0.27208 0.0
H3463 H 0.1329 0.86658 0.39942 0.0
H3464 H 0.15336 0.85505 0.38621 0.0
H3465 H 0.12272 0.83526 0.31707 0.0
H3466 H 0.10261 0.84743 0.33012 0.0
H3467 H 0.15793 0.85134 0.30717 0.0
H3468 H 0.11852 0.80553 0.36635 0.0
H3469 H 0.10261 0.79356 0.40678 0.0
H3470 H 0.15489 0.81646 0.44445 0.0
H3471 H 0.17112 0.82877 0.40427 0.0
C3472 C 0.19561 0.79335 0.31353 0.0
C3473 C 0.21333 0.80526 0.30387 0.0
C3474 C 0.18407 0.8001 0.32085 0.0
C3475 C 0.18997 0.81899 0.31896 0.0
C3476 C 0.20787 0.83105 0.30983 0.0
C3477 C 0.21938 0.82422 0.30211 0.0
C3478 C 0.17723 0.82578 0.32665 0.0
C3479 C 0.16845 0.82035 0.35012 0.0
C3480 C 0.17316 0.83692 0.31087 0.0
C3481 C 0.18096 0.84226 0.28525 0.0
C3482 C 0.19114 0.86099 0.27846 0.0
C3483 C 0.19857 0.86605 0.25434 0.0
C3484 C 0.19581 0.85249 0.23679 0.0
C3485 C 0.18556 0.83383 0.2433 0.0
C3486 C 0.17808 0.8287 0.26739 0.0
C3487 C 0.13043 0.85952 0.38158 0.0
C3488 C 0.11608 0.85754 0.36592 0.0
C3489 C 0.1421 0.85293 0.37402 0.0
C3490 C 0.13948 0.84402 0.35075 0.0
C3491 C 0.12502 0.84203 0.33511 0.0
C3492 C 0.11345 0.8488 0.34261 0.0
C3493 C 0.15203 0.83713 0.34265 0.0
C3494 C 0.16083 0.84263 0.3192 0.0
C3495 C 0.15574 0.82561 0.35814 0.0
C3496 C 0.14603 0.81822 0.38234 0.0
C3497 C 0.12662 0.80813 0.38329 0.0
C3498 C 0.11755 0.80126 0.40615 0.0
C3499 C 0.12773 0.80429 0.42818 0.0
C3500 C 0.14702 0.81415 0.42738 0.0
C3501 C 0.15616 0.82105 0.40456 0.0
H3502 H 0.12068 0.79896 0.44586 0.0
H3503 H 0.20159 0.85644 0.21813 0.0
H3504 H 0.73355 0.83515 0.87871 0.0
H3505 H 0.70085 0.82148 0.86717 0.0
H3506 H 0.71192 0.87352 0.83559 0.0
H3507 H 0.74438 0.88717 0.84696 0.0
H3508 H 0.68152 0.85887 0.86546 0.0
H3509 H 0.70529 0.83874 0.7979 0.0
H3510 H 0.72126 0.82368 0.77888 0.0
H3511 H 0.68174 0.77197 0.81195 0.0
H3512 H 0.66567 0.7868 0.83148 0.0
H3513 H 0.60077 0.83148 0.79135 0.0
H3514 H 0.63245 0.84341 0.80635 0.0
H3515 H 0.61706 0.79008 0.83763 0.0
H3516 H 0.58542 0.77808 0.82282 0.0
H3517 H 0.64901 0.80424 0.80993 0.0
H3518 H 0.62433 0.82423 0.87587 0.0
H3519 H 0.60817 0.83935 0.89409 0.0
H3520 H 0.64931 0.89142 0.86372 0.0
H3521 H 0.66558 0.87654 0.84496 0.0
C3522 C 0.72901 0.84361 0.86915 0.0
C3523 C 0.74159 0.86223 0.86372 0.0
C3524 C 0.71034 0.8358 0.86256 0.0
C3525 C 0.70392 0.84649 0.85049 0.0
C3526 C 0.7165 0.86502 0.84498 0.0
C3527 C 0.73511 0.87277 0.85139 0.0
C3528 C 0.68412 0.83856 0.84372 0.0
C3529 C 0.67447 0.84703 0.85313 0.0
C3530 C 0.67477 0.82287 0.82808 0.0
C3531 C 0.68442 0.81393 0.8164 0.0
C3532 C 0.70011 0.8242 0.80132 0.0
C3533 C 0.70916 0.8157 0.7904 0.0
C3534 C 0.70256 0.7969 0.79427 0.0
C3535 C 0.68686 0.78654 0.80902 0.0
C3536 C 0.67777 0.79499 0.82 0.0
C3537 C 0.60409 0.82235 0.80163 0.0
C3538 C 0.59056 0.80385 0.80594 0.0
C3539 C 0.6222 0.82918 0.81021 0.0
C3540 C 0.62712 0.81764 0.82317 0.0
C3541 C 0.61359 0.79922 0.82765 0.0
C3542 C 0.59548 0.79242 0.81928 0.0
C3543 C 0.64648 0.82464 0.83151 0.0
C3544 C 0.65604 0.81601 0.8224 0.0
C3545 C 0.65575 0.84019 0.8474 0.0
C3546 C 0.64608 0.84923 0.85879 0.0
C3547 C 0.62986 0.83888 0.87289 0.0
C3548 C 0.62068 0.84741 0.88335 0.0
C3549 C 0.62768 0.86632 0.88001 0.0
C3550 C 0.64389 0.87676 0.86626 0.0
C3551 C 0.6531 0.86829 0.85573 0.0
H3552 H 0.62055 0.8729 0.88811 0.0
H3553 H 0.70958 0.79034 0.78579 0.0
H3554 H 0.2169 0.80267 0.82711 0.0
H3555 H 0.20442 0.82219 0.84014 0.0
H3556 H 0.15371 0.78668 0.80079 0.0
H3557 H 0.16632 0.76717 0.7872 0.0
H3558 H 0.16539 0.82207 0.7905 0.0
H3559 H 0.15603 0.78702 0.86545 0.0
H3560 H 0.1648 0.77355 0.90029 0.0
H3561 H 0.20484 0.82785 0.92548 0.0
H3562 H 0.1965 0.84165 0.89057 0.0
H3563 H 0.11471 0.86155 0.84262 0.0
H3564 H 0.12624 0.84115 0.82977 0.0
H3565 H 0.17771 0.87615 0.86782 0.0
H3566 H 0.16609 0.89654 0.88115 0.0
H3567 H 0.165 0.84048 0.87888 0.0
H3568 H 0.17454 0.87539 0.80332 0.0
H3569 H 0.16566 0.88868 0.76838 0.0
H3570 H 0.12493 0.83429 0.74441 0.0
H3571 H 0.1334 0.82068 0.77943 0.0
C3572 C 0.203 0.79886 0.82142 0.0
C3573 C 0.19259 0.78332 0.80614 0.0
C3574 C 0.19585 0.81003 0.82898 0.0
C3575 C 0.17804 0.80585 0.82168 0.0
C3576 C 0.16748 0.79019 0.80669 0.0
C3577 C 0.17466 0.77899 0.79904 0.0
C3578 C 0.17082 0.81827 0.8289 0.0
C3579 C 0.16501 0.82584 0.80988 0.0
C3580 C 0.17077 0.82361 0.85411 0.0
C3581 C 0.17574 0.81536 0.87525 0.0
C3582 C 0.1668 0.79609 0.87831 0.0
C3583 C 0.17168 0.78839 0.89809 0.0
C3584 C 0.1854 0.79984 0.91505 0.0
C3585 C 0.19423 0.819 0.91231 0.0
C3586 C 0.18941 0.82677 0.89254 0.0
C3587 C 0.12857 0.86505 0.84806 0.0
C3588 C 0.1395 0.88072 0.86287 0.0
C3589 C 0.13516 0.85337 0.84062 0.0
C3590 C 0.15291 0.85716 0.84763 0.0
C3591 C 0.16397 0.87293 0.86217 0.0
C3592 C 0.15735 0.88463 0.86966 0.0
C3593 C 0.15964 0.84432 0.84047 0.0
C3594 C 0.16534 0.83667 0.85952 0.0
C3595 C 0.15956 0.83887 0.81528 0.0
C3596 C 0.15449 0.84703 0.79415 0.0
C3597 C 0.1636 0.86627 0.79072 0.0
C3598 C 0.15865 0.87386 0.77087 0.0
C3599 C 0.14471 0.86234 0.75422 0.0
C3600 C 0.13571 0.8432 0.75734 0.0
C3601 C 0.14059 0.83554 0.77717 0.0
H3602 H 0.1409 0.86824 0.73888 0.0
H3603 H 0.18917 0.79385 0.93035 0.0
H3604 H 0.22725 0.39924 0.78241 0.0
H3605 H 0.20683 0.36693 0.79446 0.0
H3606 H 0.17697 0.38352 0.84402 0.0
H3607 H 0.19723 0.41574 0.83206 0.0
H3608 H 0.18318 0.35699 0.86528 0.0
H3609 H 0.15941 0.36677 0.78841 0.0
H3610 H 0.16089 0.37626 0.74428 0.0
H3611 H 0.17547 0.33594 0.72152 0.0
H3612 H 0.17434 0.3264 0.76561 0.0
H3613 H 0.1031 0.26884 0.88228 0.0
H3614 H 0.12265 0.30131 0.87014 0.0
H3615 H 0.15294 0.28596 0.81947 0.0
H3616 H 0.13355 0.25364 0.83147 0.0
H3617 H 0.14612 0.312 0.79887 0.0
H3618 H 0.17038 0.30252 0.87558 0.0
H3619 H 0.16908 0.29301 0.91967 0.0
H3620 H 0.15377 0.33275 0.94269 0.0
H3621 H 0.15472 0.3423 0.89864 0.0
C3622 C 0.21649 0.39602 0.79611 0.0
C3623 C 0.2138 0.41002 0.8062 0.0
C3624 C 0.20477 0.37755 0.80287 0.0
C3625 C 0.19024 0.3728 0.81992 0.0
C3626 C 0.18805 0.38686 0.8308 0.0
C3627 C 0.19963 0.40527 0.82389 0.0
C3628 C 0.17691 0.35317 0.8258 0.0
C3629 C 0.17492 0.3472 0.85081 0.0
C3630 C 0.16633 0.34033 0.80687 0.0
C3631 C 0.16699 0.34602 0.78034 0.0
C3632 C 0.1631 0.36004 0.77403 0.0
C3633 C 0.16384 0.36541 0.74902 0.0
C3634 C 0.16833 0.35675 0.73012 0.0
C3635 C 0.17203 0.34266 0.73619 0.0
C3636 C 0.17133 0.33726 0.76118 0.0
C3637 C 0.11374 0.27237 0.86828 0.0
C3638 C 0.11685 0.2587 0.85793 0.0
C3639 C 0.12497 0.29092 0.86147 0.0
C3640 C 0.13941 0.29607 0.84413 0.0
C3641 C 0.14193 0.28232 0.83293 0.0
C3642 C 0.13084 0.26385 0.83986 0.0
C3643 C 0.15242 0.31581 0.83834 0.0
C3644 C 0.15436 0.3218 0.81335 0.0
C3645 C 0.16297 0.32866 0.85729 0.0
C3646 C 0.16241 0.32297 0.88378 0.0
C3647 C 0.16657 0.30911 0.89001 0.0
C3648 C 0.16593 0.30374 0.915 0.0
C3649 C 0.16129 0.31223 0.93396 0.0
C3650 C 0.15733 0.32615 0.92797 0.0
C3651 C 0.15792 0.33156 0.903 0.0
H3652 H 0.16081 0.30806 0.9533 0.0
H3653 H 0.16889 0.36091 0.71076 0.0
H3654 H 0.83687 0.73089 0.61668 0.0
H3655 H 0.82452 0.69845 0.62824 0.0
H3656 H 0.86947 0.71433 0.68036 0.0
H3657 H 0.8821 0.74659 0.66839 0.0
H3658 H 0.86531 0.68627 0.6539 0.0
H3659 H 0.82401 0.70007 0.69953 0.0
H3660 H 0.80169 0.71096 0.70471 0.0
H3661 H 0.76462 0.66959 0.65305 0.0
H3662 H 0.78682 0.65861 0.64731 0.0
H3663 H 0.82899 0.6 0.7184 0.0
H3664 H 0.84147 0.63237 0.70635 0.0
H3665 H 0.79647 0.61627 0.65424 0.0
H3666 H 0.78374 0.58408 0.66667 0.0
H3667 H 0.80064 0.6444 0.68053 0.0
H3668 H 0.84184 0.63051 0.635 0.0
H3669 H 0.86412 0.6196 0.62975 0.0
H3670 H 0.90136 0.6611 0.68113 0.0
H3671 H 0.87919 0.67211 0.68693 0.0
C3672 C 0.84398 0.72747 0.63082 0.0
C3673 C 0.86045 0.74132 0.64162 0.0
C3674 C 0.83689 0.70891 0.63746 0.0
C3675 C 0.84599 0.70388 0.65533 0.0
C3676 C 0.86223 0.71779 0.66647 0.0
C3677 C 0.86939 0.73627 0.65969 0.0
C3678 C 0.83904 0.68414 0.66186 0.0
C3679 C 0.85122 0.67719 0.66005 0.0
C3680 C 0.82054 0.67209 0.6693 0.0
C3681 C 0.80715 0.67864 0.67281 0.0
C3682 C 0.81115 0.69339 0.68914 0.0
C3683 C 0.79852 0.69956 0.6922 0.0
C3684 C 0.78177 0.691 0.67917 0.0
C3685 C 0.77761 0.67622 0.66311 0.0
C3686 C 0.7902 0.67001 0.65996 0.0
C3687 C 0.82191 0.60335 0.70414 0.0
C3688 C 0.80538 0.58947 0.6935 0.0
C3689 C 0.82907 0.62187 0.69722 0.0
C3690 C 0.81998 0.62682 0.67925 0.0
C3691 C 0.80371 0.61287 0.66821 0.0
C3692 C 0.79649 0.59444 0.67526 0.0
C3693 C 0.82691 0.64654 0.67258 0.0
C3694 C 0.81473 0.65348 0.67437 0.0
C3695 C 0.8454 0.65858 0.66512 0.0
C3696 C 0.85878 0.65201 0.66158 0.0
C3697 C 0.85472 0.63722 0.64532 0.0
C3698 C 0.86734 0.63103 0.64222 0.0
C3699 C 0.88413 0.63962 0.65515 0.0
C3700 C 0.88835 0.65444 0.67115 0.0
C3701 C 0.87577 0.66067 0.67433 0.0
H3702 H 0.89388 0.63481 0.65273 0.0
H3703 H 0.77201 0.6958 0.68157 0.0
H3704 H 0.26993 0.10428 0.61941 0.0
H3705 H 0.3018 0.12484 0.63285 0.0
H3706 H 0.28388 0.15581 0.67792 0.0
H3707 H 0.25206 0.13551 0.66426 0.0
H3708 H 0.31339 0.17862 0.65129 0.0
H3709 H 0.29708 0.12668 0.70469 0.0
H3710 H 0.28517 0.09388 0.71488 0.0
H3711 H 0.32765 0.09374 0.66977 0.0
H3712 H 0.33967 0.12648 0.659 0.0
H3713 H 0.39979 0.23127 0.71604 0.0
H3714 H 0.36721 0.21117 0.70492 0.0
H3715 H 0.38208 0.17847 0.65827 0.0
H3716 H 0.41446 0.19825 0.66953 0.0
H3717 H 0.35367 0.15671 0.68748 0.0
H3718 H 0.36932 0.20846 0.63315 0.0
H3719 H 0.38106 0.24123 0.6229 0.0
H3720 H 0.33971 0.2417 0.67018 0.0
H3721 H 0.32787 0.20898 0.68097 0.0
C3722 C 0.27274 0.11533 0.63242 0.0
C3723 C 0.25843 0.11822 0.64079 0.0
C3724 C 0.29098 0.12707 0.64013 0.0
C3725 C 0.29528 0.14186 0.65654 0.0
C3726 C 0.28095 0.14455 0.66523 0.0
C3727 C 0.26273 0.13286 0.65748 0.0
C3728 C 0.31476 0.15487 0.66397 0.0
C3729 C 0.32211 0.17384 0.65957 0.0
C3730 C 0.3263 0.14867 0.67432 0.0
C3731 C 0.31917 0.129 0.68085 0.0
C3732 C 0.3038 0.11962 0.69678 0.0
C3733 C 0.29705 0.10104 0.70269 0.0
C3734 C 0.30562 0.09172 0.69293 0.0
C3735 C 0.32101 0.10097 0.67729 0.0
C3736 C 0.32781 0.11955 0.6713 0.0
C3737 C 0.39612 0.21993 0.70318 0.0
C3738 C 0.40973 0.21638 0.69369 0.0
C3739 C 0.37749 0.20845 0.69682 0.0
C3740 C 0.37215 0.19328 0.68069 0.0
C3741 C 0.3858 0.18999 0.67083 0.0
C3742 C 0.40435 0.2014 0.67721 0.0
C3743 C 0.35234 0.18044 0.6746 0.0
C3744 C 0.34493 0.16149 0.67929 0.0
C3745 C 0.34074 0.18667 0.66456 0.0
C3746 C 0.34784 0.20633 0.65808 0.0
C3747 C 0.36283 0.2156 0.64152 0.0
C3748 C 0.36948 0.23415 0.63559 0.0
C3749 C 0.36117 0.24356 0.64594 0.0
C3750 C 0.34615 0.23441 0.66221 0.0
C3751 C 0.33945 0.21586 0.66822 0.0
H3752 H 0.36634 0.25792 0.64132 0.0
H3753 H 0.30037 0.07734 0.69753 0.0
H3754 H 0.86418 0.11536 0.66484 0.0
H3755 H 0.84472 0.12806 0.67739 0.0
H3756 H 0.8761 0.17518 0.62943 0.0
H3757 H 0.89599 0.16267 0.61717 0.0
H3758 H 0.86776 0.18559 0.67267 0.0
H3759 H 0.83386 0.13882 0.61103 0.0
H3760 H 0.81993 0.10773 0.59237 0.0
H3761 H 0.78568 0.08465 0.65747 0.0
H3762 H 0.79959 0.11558 0.67669 0.0
H3763 H 0.80333 0.21643 0.66775 0.0
H3764 H 0.82288 0.20369 0.65588 0.0
H3765 H 0.79189 0.15732 0.70517 0.0
H3766 H 0.77197 0.16991 0.71688 0.0
H3767 H 0.79998 0.14648 0.66153 0.0
H3768 H 0.83378 0.19335 0.723 0.0
H3769 H 0.84766 0.22449 0.74151 0.0
H3770 H 0.88207 0.24741 0.6765 0.0
H3771 H 0.8682 0.21643 0.65743 0.0
C3772 C 0.86707 0.12851 0.65709 0.0
C3773 C 0.88156 0.13795 0.63985 0.0
C3774 C 0.85585 0.13571 0.66419 0.0
C3775 C 0.85865 0.15238 0.65393 0.0
C3776 C 0.87358 0.16223 0.63748 0.0
C3777 C 0.88495 0.15508 0.63049 0.0
C3778 C 0.84576 0.15927 0.66003 0.0
C3779 C 0.85297 0.17712 0.6699 0.0
C3780 C 0.82638 0.1481 0.65699 0.0
C3781 C 0.81789 0.1295 0.64539 0.0
C3782 C 0.82345 0.1271 0.62144 0.0
C3783 C 0.81554 0.1095 0.61075 0.0
C3784 C 0.80196 0.09422 0.62375 0.0
C3785 C 0.79622 0.0965 0.64744 0.0
C3786 C 0.80409 0.11406 0.65823 0.0
C3787 C 0.80054 0.20344 0.67594 0.0
C3788 C 0.78615 0.19424 0.6934 0.0
C3789 C 0.81182 0.19622 0.66923 0.0
C3790 C 0.80912 0.17974 0.68001 0.0
C3791 C 0.79431 0.17012 0.69672 0.0
C3792 C 0.78293 0.17732 0.70339 0.0
C3793 C 0.82199 0.17279 0.67413 0.0
C3794 C 0.81477 0.15493 0.6643 0.0
C3795 C 0.84136 0.18397 0.67718 0.0
C3796 C 0.84983 0.20259 0.68869 0.0
C3797 C 0.84422 0.20505 0.71257 0.0
C3798 C 0.8521 0.22267 0.72318 0.0
C3799 C 0.86571 0.23793 0.71017 0.0
C3800 C 0.87151 0.23559 0.68655 0.0
C3801 C 0.86366 0.218 0.67584 0.0
H3802 H 0.87179 0.25155 0.71841 0.0
H3803 H 0.79586 0.08061 0.61545 0.0
H3804 H 0.07765 0.55179 0.50976 0.0
H3805 H 0.0452 0.53858 0.49854 0.0
H3806 H 0.03344 0.48615 0.5294 0.0
H3807 H 0.06613 0.49937 0.54088 0.0
H3808 H 0.01606 0.48292 0.48316 0.0
H3809 H 0.02207 0.51207 0.56247 0.0
H3810 H 0.03573 0.53739 0.59332 0.0
H3811 H 0.02303 0.57089 0.54553 0.0
H3812 H 0.00953 0.54584 0.51419 0.0
H3813 H 0.91897 0.44321 0.48774 0.0
H3814 H 0.95114 0.45582 0.50012 0.0
H3815 H 0.9642 0.50899 0.47055 0.0
H3816 H 0.93182 0.4964 0.45799 0.0
H3817 H 0.98079 0.51146 0.5168 0.0
H3818 H 0.97518 0.48245 0.43726 0.0
H3819 H 0.9616 0.45716 0.40636 0.0
H3820 H 0.9736 0.42339 0.45464 0.0
H3821 H 0.98701 0.44841 0.48603 0.0
C3822 C 0.06823 0.5374 0.51407 0.0
C3823 C 0.07449 0.52664 0.52632 0.0
C3824 C 0.04964 0.5299 0.50772 0.0
C3825 C 0.03684 0.51145 0.51341 0.0
C3826 C 0.04308 0.50045 0.52493 0.0
C3827 C 0.06174 0.50802 0.53149 0.0
C3828 C 0.01694 0.50387 0.50751 0.0
C3829 C 0.00826 0.48897 0.49082 0.0
C3830 C 0.00688 0.51205 0.51704 0.0
C3831 C 0.01495 0.52714 0.53586 0.0
C3832 C 0.02233 0.52489 0.55843 0.0
C3833 C 0.03002 0.53918 0.57603 0.0
C3834 C 0.0303 0.55576 0.57136 0.0
C3835 C 0.02283 0.55805 0.5491 0.0
C3836 C 0.01515 0.5438 0.53142 0.0
C3837 C 0.92861 0.45763 0.48398 0.0
C3838 C 0.92282 0.46879 0.47177 0.0
C3839 C 0.94705 0.46479 0.49099 0.0
C3840 C 0.96015 0.48328 0.48598 0.0
C3841 C 0.95433 0.49465 0.47452 0.0
C3842 C 0.93584 0.48745 0.46734 0.0
C3843 C 0.97992 0.49054 0.49239 0.0
C3844 C 0.98858 0.50539 0.50917 0.0
C3845 C 0.98996 0.48231 0.48295 0.0
C3846 C 0.98192 0.46724 0.46411 0.0
C3847 C 0.97477 0.46958 0.44139 0.0
C3848 C 0.96713 0.4553 0.42377 0.0
C3849 C 0.96669 0.43866 0.42856 0.0
C3850 C 0.97392 0.43628 0.45097 0.0
C3851 C 0.98156 0.45051 0.46868 0.0
H3852 H 0.96077 0.42762 0.41489 0.0
H3853 H 0.03625 0.5668 0.58501 0.0
H3854 H 0.49614 0.56389 0.54005 0.0
H3855 H 0.50841 0.54413 0.52643 0.0
H3856 H 0.4571 0.50826 0.48859 0.0
H3857 H 0.44473 0.5278 0.50227 0.0
H3858 H 0.46776 0.48861 0.51645 0.0
H3859 H 0.49584 0.53695 0.45555 0.0
H3860 H 0.51401 0.56904 0.44049 0.0
H3861 H 0.56178 0.57532 0.4794 0.0
H3862 H 0.54382 0.54332 0.49499 0.0
H3863 H 0.49957 0.43583 0.44839 0.0
H3864 H 0.48688 0.45556 0.46053 0.0
H3865 H 0.53729 0.49175 0.50001 0.0
H3866 H 0.55005 0.47224 0.4879 0.0
H3867 H 0.52677 0.51109 0.4705 0.0
H3868 H 0.49835 0.46274 0.53185 0.0
H3869 H 0.48006 0.43059 0.54663 0.0
H3870 H 0.43276 0.42428 0.50637 0.0
H3871 H 0.45086 0.45634 0.49106 0.0
C3872 C 0.48756 0.55192 0.52858 0.0
C3873 C 0.46947 0.54744 0.52225 0.0
C3874 C 0.4946 0.54063 0.52078 0.0
C3875 C 0.4837 0.52471 0.50641 0.0
C3876 C 0.46575 0.52042 0.49972 0.0
C3877 C 0.45874 0.53168 0.50747 0.0
C3878 C 0.49072 0.51215 0.49905 0.0
C3879 C 0.48053 0.49348 0.50608 0.0
C3880 C 0.50758 0.51854 0.48598 0.0
C3881 C 0.51842 0.53779 0.47665 0.0
C3882 C 0.51017 0.54522 0.46108 0.0
C3883 C 0.52045 0.56338 0.45241 0.0
C3884 C 0.53903 0.57423 0.45904 0.0
C3885 C 0.54738 0.56691 0.47431 0.0
C3886 C 0.53717 0.54876 0.48305 0.0
C3887 C 0.50787 0.44788 0.45987 0.0
C3888 C 0.52581 0.45244 0.4672 0.0
C3889 C 0.5006 0.45915 0.46681 0.0
C3890 C 0.51113 0.47514 0.48124 0.0
C3891 C 0.52894 0.47954 0.48882 0.0
C3892 C 0.53617 0.46829 0.48197 0.0
C3893 C 0.50384 0.48758 0.48799 0.0
C3894 C 0.51398 0.50622 0.48083 0.0
C3895 C 0.48693 0.48115 0.5009 0.0
C3896 C 0.47602 0.46188 0.51009 0.0
C3897 C 0.48409 0.45445 0.52597 0.0
C3898 C 0.47376 0.43625 0.53448 0.0
C3899 C 0.45528 0.42538 0.52738 0.0
C3900 C 0.44709 0.43271 0.51181 0.0
C3901 C 0.45737 0.4509 0.50323 0.0
H3902 H 0.44729 0.41129 0.534 0.0
H3903 H 0.54696 0.58828 0.4523 0.0
H3904 H 0.56388 0.06699 0.45501 0.0
H3905 H 0.54412 0.03472 0.4677 0.0
H3906 H 0.5086 0.04959 0.50771 0.0
H3907 H 0.52838 0.08177 0.49555 0.0
H3908 H 0.51328 0.0254 0.53421 0.0
H3909 H 0.49739 0.03002 0.44882 0.0
H3910 H 0.5035 0.03754 0.40384 0.0
H3911 H 0.5236 0.9995 0.39669 0.0
H3912 H 0.51783 0.99193 0.44173 0.0
H3913 H 0.43533 0.93541 0.54737 0.0
H3914 H 0.45512 0.96772 0.53487 0.0
H3915 H 0.49076 0.95299 0.49489 0.0
H3916 H 0.47095 0.92077 0.50687 0.0
H3917 H 0.48597 0.97712 0.46839 0.0
H3918 H 0.50184 0.97252 0.55385 0.0
H3919 H 0.49568 0.96501 0.59883 0.0
H3920 H 0.47555 0.00304 0.60583 0.0
H3921 H 0.48137 0.01059 0.56079 0.0
C3922 C 0.55198 0.06341 0.46675 0.0
C3923 C 0.54767 0.07694 0.47416 0.0
C3924 C 0.54062 0.04494 0.47385 0.0
C3925 C 0.52467 0.03965 0.48833 0.0
C3926 C 0.52076 0.05328 0.49649 0.0
C3927 C 0.5321 0.07171 0.48946 0.0
C3928 C 0.51175 0.01991 0.49454 0.0
C3929 C 0.50716 0.01489 0.51978 0.0
C3930 C 0.50396 0.00609 0.47579 0.0
C3931 C 0.50735 0.01056 0.44869 0.0
C3932 C 0.50324 0.02336 0.4377 0.0
C3933 C 0.50662 0.02762 0.41218 0.0
C3934 C 0.51398 0.01904 0.39743 0.0
C3935 C 0.51792 0.00615 0.40815 0.0
C3936 C 0.51459 0.00187 0.43366 0.0
C3937 C 0.44728 0.93904 0.5357 0.0
C3938 C 0.4516 0.92553 0.52822 0.0
C3939 C 0.45865 0.95753 0.5287 0.0
C3940 C 0.47462 0.96286 0.51426 0.0
C3941 C 0.47857 0.94926 0.50608 0.0
C3942 C 0.46722 0.93082 0.513 0.0
C3943 C 0.48751 0.98261 0.50806 0.0
C3944 C 0.4921 0.98764 0.48282 0.0
C3945 C 0.49529 0.99644 0.52681 0.0
C3946 C 0.49186 0.99198 0.5539 0.0
C3947 C 0.49597 0.97918 0.56495 0.0
C3948 C 0.49256 0.97493 0.59046 0.0
C3949 C 0.48518 0.9835 0.60517 0.0
C3950 C 0.48124 0.99639 0.59441 0.0
C3951 C 0.4846 0.00066 0.5689 0.0
H3952 H 0.48255 0.9802 0.62491 0.0
H3953 H 0.51658 0.02235 0.37768 0.0
H3954 H 0.50274 0.0653 0.94655 0.0
H3955 H 0.49008 0.0329 0.95868 0.0
H3956 H 0.53937 0.04759 0.00136 0.0
H3957 H 0.55215 0.07981 0.9891 0.0
H3958 H 0.53041 0.01802 0.97307 0.0
H3959 H 0.49844 0.03692 0.03013 0.0
H3960 H 0.47896 0.05014 0.04209 0.0
H3961 H 0.43405 0.00863 0.99882 0.0
H3962 H 0.45336 0.99531 0.98632 0.0
H3963 H 0.49827 0.93435 0.04253 0.0
H3964 H 0.5106 0.9664 0.02898 0.0
H3965 H 0.46053 0.95051 0.98753 0.0
H3966 H 0.44807 0.91861 0.00127 0.0
H3967 H 0.4696 0.9805 0.0144 0.0
H3968 H 0.50126 0.96129 0.95774 0.0
H3969 H 0.52065 0.94803 0.94556 0.0
H3970 H 0.56602 0.99001 0.98765 0.0
H3971 H 0.54681 0.00339 0.00038 0.0
C3972 C 0.51079 0.06164 0.95871 0.0
C3973 C 0.52845 0.07515 0.96686 0.0
C3974 C 0.50353 0.04311 0.96566 0.0
C3975 C 0.51374 0.03777 0.98104 0.0
C3976 C 0.53125 0.05132 0.98943 0.0
C3977 C 0.5385 0.06978 0.98248 0.0
C3978 C 0.50647 0.01807 0.98796 0.0
C3979 C 0.51721 0.00989 0.98239 0.0
C3980 C 0.48905 0.00727 -0.00044 0.0
C3981 C 0.47741 0.01524 0.00708 0.0
C3982 C 0.48446 0.03071 0.023 0.0
C3983 C 0.47344 0.0382 0.02991 0.0
C3984 C 0.45529 0.03026 0.02116 0.0
C3985 C 0.44812 0.01478 0.00554 0.0
C3986 C 0.45909 0.00725 0.99856 0.0
C3987 C 0.48999 0.93766 0.0303 0.0
C3988 C 0.4722 0.92392 0.02298 0.0
C3989 C 0.49705 0.95599 0.02253 0.0
C3990 C 0.48652 0.9609 0.00711 0.0
C3991 C 0.46889 0.94711 -0.00053 0.0
C3992 C 0.46183 0.92884 0.00726 0.0
C3993 C 0.49357 0.98047 -0.00041 0.0
C3994 C 0.48279 0.98862 0.00504 0.0
C3995 C 0.51094 0.99123 0.98785 0.0
C3996 C 0.52253 0.98323 0.98022 0.0
C3997 C 0.51532 0.96761 0.96457 0.0
C3998 C 0.52629 0.96008 0.95754 0.0
C3999 C 0.54454 0.96814 0.96588 0.0
C4000 C 0.55187 0.98377 0.98123 0.0
C4001 C 0.54096 0.99134 0.98834 0.0
H4002 H 0.55301 0.9623 0.96041 0.0
H4003 H 0.44678 0.03608 0.02654 0.0
H4004 H 0.93203 0.43438 0.9552 0.0
H4005 H 0.96432 0.45421 0.96784 0.0
H4006 H 0.94941 0.48986 0.0074 0.0
H4007 H 0.91728 0.47026 0.99477 0.0
H4008 H 0.97926 0.50961 0.9784 0.0
H4009 H 0.95981 0.461 0.03909 0.0
H4010 H 0.94627 0.42881 0.05361 0.0
H4011 H 0.9877 0.4233 0.01322 0.0
H4012 H 0.00134 0.45539 0.99816 0.0
H4013 H 0.0634 0.56305 0.04656 0.0
H4014 H 0.03115 0.54299 0.03395 0.0
H4015 H 0.04636 0.50728 0.99516 0.0
H4016 H 0.07845 0.52709 0.00783 0.0
H4017 H 0.01639 0.4875 0.02358 0.0
H4018 H 0.03589 0.53603 0.96291 0.0
H4019 H 0.04944 0.56817 0.9482 0.0
H4020 H 0.00797 0.5738 0.98827 0.0
H4021 H 0.99431 0.54175 0.00352 0.0
C4022 C 0.93561 0.44632 0.96683 0.0
C4023 C 0.92207 0.45071 0.97398 0.0
C4024 C 0.95407 0.45765 0.97406 0.0
C4025 C 0.95931 0.47354 0.98863 0.0
C4026 C 0.94574 0.47774 0.99609 0.0
C4027 C 0.92733 0.46643 0.98894 0.0
C4028 C 0.97899 0.48614 0.99551 0.0
C4029 C 0.98731 0.50482 0.98858 0.0
C4030 C 0.98965 0.47984 0.00826 0.0
C4031 C 0.98148 0.46054 0.01728 0.0
C4032 C 0.96594 0.45287 0.03312 0.0
C4033 C 0.95826 0.43465 0.04149 0.0
C4034 C 0.96609 0.424 0.03428 0.0
C4035 C 0.98163 0.43156 0.01875 0.0
C4036 C 0.98935 0.44977 0.01031 0.0
C4037 C 0.05989 0.55103 0.03513 0.0
C4038 C 0.07351 0.5467 0.02819 0.0
C4039 C 0.04146 0.53958 0.0279 0.0
C4040 C 0.03631 0.52363 0.01352 0.0
C4041 C 0.04995 0.51945 0.00631 0.0
C4042 C 0.06834 0.53087 0.01349 0.0
C4043 C 0.01666 0.51098 0.0065 0.0
C4044 C 0.00835 0.49229 0.0134 0.0
C4045 C 0.00601 0.51727 0.9937 0.0
C4046 C 0.01419 0.53655 0.98457 0.0
C4047 C 0.02975 0.54417 0.96876 0.0
C4048 C 0.03744 0.56236 0.9603 0.0
C4049 C 0.02961 0.57304 0.96736 0.0
C4050 C 0.01404 0.56552 0.98285 0.0
C4051 C 0.00631 0.54734 0.9914 0.0
H4052 H 0.03557 0.58712 0.96077 0.0
H4053 H 0.96013 0.4099 0.04079 0.0
H4054 H 0.53101 0.45164 0.99651 0.0
H4055 H 0.5115 0.4645 0.00796 0.0
H4056 H 0.54323 0.51106 0.95925 0.0
H4057 H 0.56315 0.49836 0.94802 0.0
H4058 H 0.53456 0.52186 0.00227 0.0
H4059 H 0.50128 0.475 0.94067 0.0
H4060 H 0.48759 0.44389 0.92212 0.0
H4061 H 0.45271 0.42083 0.98668 0.0
H4062 H 0.46638 0.45178 0.00578 0.0
H4063 H 0.46956 0.5523 0.99905 0.0
H4064 H 0.48936 0.54002 0.98628 0.0
H4065 H 0.45851 0.49267 0.03406 0.0
H4066 H 0.43834 0.50475 0.04658 0.0
H4067 H 0.46686 0.48256 0.99056 0.0
H4068 H 0.50049 0.52931 0.05245 0.0
H4069 H 0.51425 0.56038 0.07115 0.0
H4070 H 0.54852 0.58364 0.00609 0.0
H4071 H 0.53476 0.55273 0.98684 0.0
C4072 C 0.53398 0.46471 0.98836 0.0
C4073 C 0.54857 0.47392 0.9712 0.0
C4074 C 0.52271 0.472 0.99483 0.0
C4075 C 0.5256 0.48855 0.98405 0.0
C4076 C 0.54064 0.49819 0.96768 0.0
C4077 C 0.55203 0.49094 0.96129 0.0
C4078 C 0.51268 0.49551 0.98957 0.0
C4079 C 0.51979 0.51337 -0.00065 0.0
C4080 C 0.49333 0.4843 0.98629 0.0
C4081 C 0.48497 0.46569 0.97475 0.0
C4082 C 0.49078 0.46327 0.95098 0.0
C4083 C 0.48301 0.44567 0.94036 0.0
C4084 C 0.46932 0.43038 0.95324 0.0
C4085 C 0.46333 0.43268 0.97674 0.0
C4086 C 0.47107 0.45025 0.98746 0.0
C4087 C 0.46684 0.53918 0.00668 0.0
C4088 C 0.45242 0.52955 0.02396 0.0
C4089 C 0.47827 0.53223 -0.00053 0.0
C4090 C 0.4757 0.5156 0.0096 0.0
C4091 C 0.46085 0.50558 0.0261 0.0
C4092 C 0.44932 0.51249 0.03323 0.0
C4093 C 0.48873 0.5089 0.00335 0.0
C4094 C 0.48163 0.49108 0.99343 0.0
C4095 C 0.50809 0.52014 0.0065 0.0
C4096 C 0.51647 0.53873 0.01811 0.0
C4097 C 0.51086 0.54107 0.04205 0.0
C4098 C 0.51868 0.55865 0.05276 0.0
C4099 C 0.53222 0.57398 0.03979 0.0
C4100 C 0.53801 0.57176 0.0161 0.0
C4101 C 0.53022 0.55421 0.00529 0.0
H4102 H 0.53825 0.58758 0.04811 0.0
H4103 H 0.46333 0.41677 0.94499 0.0
loop_
_geom_bond_atom_site_label_1
_geom_bond_atom_site_label_2
_geom_bond_distance
_geom_bond_site_symmetry_2
_ccdc_geom_bond_type
Co0 O1 2.216 . S
Co0 O2 2.091 . S
Co0 O4 2.004 . S
Co0 O10 2.021 . S
Co0 O12 2.137 . S
Co0 O13 2.244 . S
O1 Co0 2.216 . S
O1 C8 1.247 . S
O2 Co0 2.091 . S
O2 C8 1.261 . S
C3 O12 1.247 . S
C3 O13 1.272 . S
O4 Co0 2.004 . S
O4 C9 1.259 . S
Co5 O6 2.061 . S
Co5 O11 2.052 . S
Co5 O13 2.135 . S
O6 Co5 2.061 . S
O6 C9 1.235 . S
C7 O10 1.238 . S
C7 O11 1.241 . S
C8 O1 1.247 . S
C8 O2 1.261 . S
C9 O4 1.259 . S
C9 O6 1.235 . S
O10 Co0 2.021 . S
O10 C7 1.238 . S
O11 Co5 2.052 . S
O11 C7 1.241 . S
O12 Co0 2.137 . S
O12 C3 1.247 . S
O13 Co0 2.244 . S
O13 C3 1.272 . S
O13 Co5 2.135 . S
Co14 O15 2.216 . S
Co14 O16 2.091 . S
Co14 O18 2.004 . S
Co14 O24 2.021 . S
Co14 O26 2.137 . S
Co14 O27 2.244 . S
O15 Co14 2.216 . S
O15 C22 1.247 . S
O16 Co14 2.091 . S
O16 C22 1.261 . S
C17 O26 1.247 . S
C17 O27 1.272 . S
O18 Co14 2.004 . S
O18 C23 1.259 . S
Co19 O20 2.061 . S
Co19 O25 2.052 . S
Co19 O27 2.135 . S
O20 Co19 2.061 . S
O20 C23 1.235 . S
C21 O24 1.238 . S
C21 O25 1.241 . S
C22 O15 1.247 . S
C22 O16 1.261 . S
C23 O18 1.259 . S
C23 O20 1.235 . S
O24 Co14 2.021 . S
O24 C21 1.238 . S
O25 Co19 2.052 . S
O25 C21 1.241 . S
O26 Co14 2.137 . S
O26 C17 1.247 . S
O27 Co14 2.244 . S
O27 C17 1.272 . S
O27 Co19 2.135 . S
Co28 O29 2.216 . S
Co28 O30 2.091 . S
Co28 O32 2.004 . S
Co28 O38 2.021 . S
Co28 O40 2.137 . S
Co28 O41 2.244 . S
O29 Co28 2.216 . S
O29 C36 1.247 . S
O30 Co28 2.091 . S
O30 C36 1.261 . S
C31 O40 1.247 . S
C31 O41 1.272 . S
O32 Co28 2.004 . S
O32 C37 1.259 . S
Co33 O34 2.061 . S
Co33 O39 2.052 . S
Co33 O41 2.135 . S
O34 Co33 2.061 . S
O34 C37 1.235 . S
C35 O38 1.238 . S
C35 O39 1.241 . S
C36 O29 1.247 . S
C36 O30 1.261 . S
C37 O32 1.259 . S
C37 O34 1.235 . S
O38 Co28 2.021 . S
O38 C35 1.238 . S
O39 Co33 2.052 . S
O39 C35 1.241 . S
O40 Co28 2.137 . S
O40 C31 1.247 . S
O41 Co28 2.244 . S
O41 C31 1.272 . S
O41 Co33 2.135 . S
Co42 O43 2.216 . S
Co42 O44 2.091 . S
Co42 O46 2.004 . S
Co42 O52 2.021 . S
Co42 O54 2.137 . S
Co42 O55 2.244 . S
O43 Co42 2.216 . S
O43 C50 1.247 . S
O44 Co42 2.091 . S
O44 C50 1.261 . S
C45 O54 1.247 . S
C45 O55 1.272 . S
O46 Co42 2.004 . S
O46 C51 1.259 . S
Co47 O48 2.061 . S
Co47 O53 2.052 . S
Co47 O55 2.135 . S
O48 Co47 2.061 . S
O48 C51 1.235 . S
C49 O52 1.238 . S
C49 O53 1.241 . S
C50 O43 1.247 . S
C50 O44 1.261 . S
C51 O46 1.259 . S
C51 O48 1.235 . S
O52 Co42 2.021 . S
O52 C49 1.238 . S
O53 Co47 2.052 . S
O53 C49 1.241 . S
O54 Co42 2.137 . S
O54 C45 1.247 . S
O55 Co42 2.244 . S
O55 C45 1.272 . S
O55 Co47 2.135 . S
Co56 O57 2.216 . S
Co56 O58 2.091 . S
Co56 O60 2.004 . S
Co56 O66 2.021 . S
Co56 O68 2.137 . S
Co56 O69 2.244 . S
O57 Co56 2.216 . S
O57 C64 1.247 . S
O58 Co56 2.091 . S
O58 C64 1.261 . S
C59 O68 1.247 . S
C59 O69 1.272 . S
O60 Co56 2.004 . S
O60 C65 1.259 . S
Co61 O62 2.061 . S
Co61 O67 2.052 . S
Co61 O69 2.135 . S
O62 Co61 2.061 . S
O62 C65 1.235 . S
C63 O66 1.238 . S
C63 O67 1.241 . S
C64 O57 1.247 . S
C64 O58 1.261 . S
C65 O60 1.259 . S
C65 O62 1.235 . S
O66 Co56 2.021 . S
O66 C63 1.238 . S
O67 Co61 2.052 . S
O67 C63 1.241 . S
O68 Co56 2.137 . S
O68 C59 1.247 . S
O69 Co56 2.244 . S
O69 C59 1.272 . S
O69 Co61 2.135 . S
Co70 O71 2.216 . S
Co70 O72 2.091 . S
Co70 O74 2.004 . S
Co70 O80 2.021 . S
Co70 O82 2.137 . S
Co70 O83 2.244 . S
O71 Co70 2.216 . S
O71 C78 1.247 . S
O72 Co70 2.091 . S
O72 C78 1.261 . S
C73 O82 1.247 . S
C73 O83 1.272 . S
O74 Co70 2.004 . S
O74 C79 1.259 . S
Co75 O76 2.061 . S
Co75 O81 2.052 . S
Co75 O83 2.135 . S
O76 Co75 2.061 . S
O76 C79 1.235 . S
C77 O80 1.238 . S
C77 O81 1.241 . S
C78 O71 1.247 . S
C78 O72 1.261 . S
C79 O74 1.259 . S
C79 O76 1.235 . S
O80 Co70 2.021 . S
O80 C77 1.238 . S
O81 Co75 2.052 . S
O81 C77 1.241 . S
O82 Co70 2.137 . S
O82 C73 1.247 . S
O83 Co70 2.244 . S
O83 C73 1.272 . S
O83 Co75 2.135 . S
Co84 O85 2.216 . S
Co84 O86 2.091 . S
Co84 O88 2.004 . S
Co84 O94 2.021 . S
Co84 O96 2.137 . S
Co84 O97 2.244 . S
O85 Co84 2.216 . S
O85 C92 1.247 . S
O86 Co84 2.091 . S
O86 C92 1.261 . S
C87 O96 1.247 . S
C87 O97 1.272 . S
O88 Co84 2.004 . S
O88 C93 1.259 . S
Co89 O90 2.061 . S
Co89 O95 2.052 . S
Co89 O97 2.135 . S
O90 Co89 2.061 . S
O90 C93 1.235 . S
C91 O94 1.238 . S
C91 O95 1.241 . S
C92 O85 1.247 . S
C92 O86 1.261 . S
C93 O88 1.259 . S
C93 O90 1.235 . S
O94 Co84 2.021 . S
O94 C91 1.238 . S
O95 Co89 2.052 . S
O95 C91 1.241 . S
O96 Co84 2.137 . S
O96 C87 1.247 . S
O97 Co84 2.244 . S
O97 C87 1.272 . S
O97 Co89 2.135 . S
Co98 O99 2.216 . S
Co98 O100 2.091 . S
Co98 O102 2.004 . S
Co98 O108 2.021 . S
Co98 O110 2.137 . S
Co98 O111 2.244 . S
O99 Co98 2.216 . S
O99 C106 1.247 . S
O100 Co98 2.091 . S
O100 C106 1.261 . S
C101 O110 1.247 . S
C101 O111 1.272 . S
O102 Co98 2.004 . S
O102 C107 1.259 . S
Co103 O104 2.061 . S
Co103 O109 2.052 . S
Co103 O111 2.135 . S
O104 Co103 2.061 . S
O104 C107 1.235 . S
C105 O108 1.238 . S
C105 O109 1.241 . S
C106 O99 1.247 . S
C106 O100 1.261 . S
C107 O102 1.259 . S
C107 O104 1.235 . S
O108 Co98 2.021 . S
O108 C105 1.238 . S
O109 Co103 2.052 . S
O109 C105 1.241 . S
O110 Co98 2.137 . S
O110 C101 1.247 . S
O111 Co98 2.244 . S
O111 C101 1.272 . S
O111 Co103 2.135 . S
Co112 O113 2.216 . S
Co112 O114 2.091 . S
Co112 O116 2.004 . S
Co112 O122 2.021 . S
Co112 O124 2.137 . S
Co112 O125 2.244 . S
O113 Co112 2.216 . S
O113 C120 1.247 . S
O114 Co112 2.091 . S
O114 C120 1.261 . S
C115 O124 1.247 . S
C115 O125 1.272 . S
O116 Co112 2.004 . S
O116 C121 1.259 . S
Co117 O118 2.061 . S
Co117 O123 2.052 . S
Co117 O125 2.135 . S
O118 Co117 2.061 . S
O118 C121 1.235 . S
C119 O122 1.238 . S
C119 O123 1.241 . S
C120 O113 1.247 . S
C120 O114 1.261 . S
C121 O116 1.259 . S
C121 O118 1.235 . S
O122 Co112 2.021 . S
O122 C119 1.238 . S
O123 Co117 2.052 . S
O123 C119 1.241 . S
O124 Co112 2.137 . S
O124 C115 1.247 . S
O125 Co112 2.244 . S
O125 C115 1.272 . S
O125 Co117 2.135 . S
Co126 O127 2.216 . S
Co126 O128 2.091 . S
Co126 O130 2.004 . S
Co126 O136 2.021 . S
Co126 O138 2.137 . S
Co126 O139 2.244 . S
O127 Co126 2.216 . S
O127 C134 1.247 . S
O128 Co126 2.091 . S
O128 C134 1.261 . S
C129 O138 1.247 . S
C129 O139 1.272 . S
O130 Co126 2.004 . S
O130 C135 1.259 . S
Co131 O132 2.061 . S
Co131 O137 2.052 . S
Co131 O139 2.135 . S
O132 Co131 2.061 . S
O132 C135 1.235 . S
C133 O136 1.238 . S
C133 O137 1.241 . S
C134 O127 1.247 . S
C134 O128 1.261 . S
C135 O130 1.259 . S
C135 O132 1.235 . S
O136 Co126 2.021 . S
O136 C133 1.238 . S
O137 Co131 2.052 . S
O137 C133 1.241 . S
O138 Co126 2.137 . S
O138 C129 1.247 . S
O139 Co126 2.244 . S
O139 C129 1.272 . S
O139 Co131 2.135 . S
Co140 O141 2.216 . S
Co140 O142 2.091 . S
Co140 O144 2.004 . S
Co140 O150 2.021 . S
Co140 O152 2.137 . S
Co140 O153 2.244 . S
O141 Co140 2.216 . S
O141 C148 1.247 . S
O142 Co140 2.091 . S
O142 C148 1.261 . S
C143 O152 1.247 . S
C143 O153 1.272 . S
O144 Co140 2.004 . S
O144 C149 1.259 . S
Co145 O146 2.061 . S
Co145 O151 2.052 . S
Co145 O153 2.135 . S
O146 Co145 2.061 . S
O146 C149 1.235 . S
C147 O150 1.238 . S
C147 O151 1.241 . S
C148 O141 1.247 . S
C148 O142 1.261 . S
C149 O144 1.259 . S
C149 O146 1.235 . S
O150 Co140 2.021 . S
O150 C147 1.238 . S
O151 Co145 2.052 . S
O151 C147 1.241 . S
O152 Co140 2.137 . S
O152 C143 1.247 . S
O153 Co140 2.244 . S
O153 C143 1.272 . S
O153 Co145 2.135 . S
Co154 O155 2.216 . S
Co154 O156 2.091 . S
Co154 O158 2.004 . S
Co154 O164 2.021 . S
Co154 O166 2.137 . S
Co154 O167 2.244 . S
O155 Co154 2.216 . S
O155 C162 1.247 . S
O156 Co154 2.091 . S
O156 C162 1.261 . S
C157 O166 1.247 . S
C157 O167 1.272 . S
O158 Co154 2.004 . S
O158 C163 1.259 . S
Co159 O160 2.061 . S
Co159 O165 2.052 . S
Co159 O167 2.135 . S
O160 Co159 2.061 . S
O160 C163 1.235 . S
C161 O164 1.238 . S
C161 O165 1.241 . S
C162 O155 1.247 . S
C162 O156 1.261 . S
C163 O158 1.259 . S
C163 O160 1.235 . S
O164 Co154 2.021 . S
O164 C161 1.238 . S
O165 Co159 2.052 . S
O165 C161 1.241 . S
O166 Co154 2.137 . S
O166 C157 1.247 . S
O167 Co154 2.244 . S
O167 C157 1.272 . S
O167 Co159 2.135 . S
Co168 O169 2.216 . S
Co168 O170 2.091 . S
Co168 O172 2.004 . S
Co168 O178 2.021 . S
Co168 O180 2.137 . S
Co168 O181 2.244 . S
O169 Co168 2.216 . S
O169 C176 1.247 . S
O170 Co168 2.091 . S
O170 C176 1.261 . S
C171 O180 1.247 . S
C171 O181 1.272 . S
O172 Co168 2.004 . S
O172 C177 1.259 . S
Co173 O174 2.061 . S
Co173 O179 2.052 . S
Co173 O181 2.135 . S
O174 Co173 2.061 . S
O174 C177 1.235 . S
C175 O178 1.238 . S
C175 O179 1.241 . S
C176 O169 1.247 . S
C176 O170 1.261 . S
C177 O172 1.259 . S
C177 O174 1.235 . S
O178 Co168 2.021 . S
O178 C175 1.238 . S
O179 Co173 2.052 . S
O179 C175 1.241 . S
O180 Co168 2.137 . S
O180 C171 1.247 . S
O181 Co168 2.244 . S
O181 C171 1.272 . S
O181 Co173 2.135 . S
Co182 O183 2.216 . S
Co182 O184 2.091 . S
Co182 O186 2.004 . S
Co182 O192 2.021 . S
Co182 O194 2.137 . S
Co182 O195 2.244 . S
O183 Co182 2.216 . S
O183 C190 1.247 . S
O184 Co182 2.091 . S
O184 C190 1.261 . S
C185 O194 1.247 . S
C185 O195 1.272 . S
O186 Co182 2.004 . S
O186 C191 1.259 . S
Co187 O188 2.061 . S
Co187 O193 2.052 . S
Co187 O195 2.135 . S
O188 Co187 2.061 . S
O188 C191 1.235 . S
C189 O192 1.238 . S
C189 O193 1.241 . S
C190 O183 1.247 . S
C190 O184 1.261 . S
C191 O186 1.259 . S
C191 O188 1.235 . S
O192 Co182 2.021 . S
O192 C189 1.238 . S
O193 Co187 2.052 . S
O193 C189 1.241 . S
O194 Co182 2.137 . S
O194 C185 1.247 . S
O195 Co182 2.244 . S
O195 C185 1.272 . S
O195 Co187 2.135 . S
Co196 O197 2.216 . S
Co196 O198 2.091 . S
Co196 O200 2.004 . S
Co196 O206 2.021 . S
Co196 O208 2.137 . S
Co196 O209 2.244 . S
O197 Co196 2.216 . S
O197 C204 1.247 . S
O198 Co196 2.091 . S
O198 C204 1.261 . S
C199 O208 1.247 . S
C199 O209 1.272 . S
O200 Co196 2.004 . S
O200 C205 1.259 . S
Co201 O202 2.061 . S
Co201 O207 2.052 . S
Co201 O209 2.135 . S
O202 Co201 2.061 . S
O202 C205 1.235 . S
C203 O206 1.238 . S
C203 O207 1.241 . S
C204 O197 1.247 . S
C204 O198 1.261 . S
C205 O200 1.259 . S
C205 O202 1.235 . S
O206 Co196 2.021 . S
O206 C203 1.238 . S
O207 Co201 2.052 . S
O207 C203 1.241 . S
O208 Co196 2.137 . S
O208 C199 1.247 . S
O209 Co196 2.244 . S
O209 C199 1.272 . S
O209 Co201 2.135 . S
Co210 O211 2.216 . S
Co210 O212 2.091 . S
Co210 O214 2.004 . S
Co210 O220 2.021 . S
Co210 O222 2.137 . S
Co210 O223 2.244 . S
O211 Co210 2.216 . S
O211 C218 1.247 . S
O212 Co210 2.091 . S
O212 C218 1.261 . S
C213 O222 1.247 . S
C213 O223 1.272 . S
O214 Co210 2.004 . S
O214 C219 1.259 . S
Co215 O216 2.061 . S
Co215 O221 2.052 . S
Co215 O223 2.135 . S
O216 Co215 2.061 . S
O216 C219 1.235 . S
C217 O220 1.238 . S
C217 O221 1.241 . S
C218 O211 1.247 . S
C218 O212 1.261 . S
C219 O214 1.259 . S
C219 O216 1.235 . S
O220 Co210 2.021 . S
O220 C217 1.238 . S
O221 Co215 2.052 . S
O221 C217 1.241 . S
O222 Co210 2.137 . S
O222 C213 1.247 . S
O223 Co210 2.244 . S
O223 C213 1.272 . S
O223 Co215 2.135 . S
Co224 O225 2.216 . S
Co224 O226 2.091 . S
Co224 O228 2.004 . S
Co224 O234 2.021 . S
Co224 O236 2.137 . S
Co224 O237 2.244 . S
O225 Co224 2.216 . S
O225 C232 1.247 . S
O226 Co224 2.091 . S
O226 C232 1.261 . S
C227 O236 1.247 . S
C227 O237 1.272 . S
O228 Co224 2.004 . S
O228 C233 1.259 . S
Co229 O230 2.061 . S
Co229 O235 2.052 . S
Co229 O237 2.135 . S
O230 Co229 2.061 . S
O230 C233 1.235 . S
C231 O234 1.238 . S
C231 O235 1.241 . S
C232 O225 1.247 . S
C232 O226 1.261 . S
C233 O228 1.259 . S
C233 O230 1.235 . S
O234 Co224 2.021 . S
O234 C231 1.238 . S
O235 Co229 2.052 . S
O235 C231 1.241 . S
O236 Co224 2.137 . S
O236 C227 1.247 . S
O237 Co224 2.244 . S
O237 C227 1.272 . S
O237 Co229 2.135 . S
Co238 O239 2.216 . S
Co238 O240 2.091 . S
Co238 O242 2.004 . S
Co238 O248 2.021 . S
Co238 O250 2.137 . S
Co238 O251 2.244 . S
O239 Co238 2.216 . S
O239 C246 1.247 . S
O240 Co238 2.091 . S
O240 C246 1.261 . S
C241 O250 1.247 . S
C241 O251 1.272 . S
O242 Co238 2.004 . S
O242 C247 1.259 . S
Co243 O244 2.061 . S
Co243 O249 2.052 . S
Co243 O251 2.135 . S
O244 Co243 2.061 . S
O244 C247 1.235 . S
C245 O248 1.238 . S
C245 O249 1.241 . S
C246 O239 1.247 . S
C246 O240 1.261 . S
C247 O242 1.259 . S
C247 O244 1.235 . S
O248 Co238 2.021 . S
O248 C245 1.238 . S
O249 Co243 2.052 . S
O249 C245 1.241 . S
O250 Co238 2.137 . S
O250 C241 1.247 . S
O251 Co238 2.244 . S
O251 C241 1.272 . S
O251 Co243 2.135 . S
Co252 O253 2.216 . S
Co252 O254 2.091 . S
Co252 O256 2.004 . S
Co252 O262 2.021 . S
Co252 O264 2.137 . S
Co252 O265 2.244 . S
O253 Co252 2.216 . S
O253 C260 1.247 . S
O254 Co252 2.091 . S
O254 C260 1.261 . S
C255 O264 1.247 . S
C255 O265 1.272 . S
O256 Co252 2.004 . S
O256 C261 1.259 . S
Co257 O258 2.061 . S
Co257 O263 2.052 . S
Co257 O265 2.135 . S
O258 Co257 2.061 . S
O258 C261 1.235 . S
C259 O262 1.238 . S
C259 O263 1.241 . S
C260 O253 1.247 . S
C260 O254 1.261 . S
C261 O256 1.259 . S
C261 O258 1.235 . S
O262 Co252 2.021 . S
O262 C259 1.238 . S
O263 Co257 2.052 . S
O263 C259 1.241 . S
O264 Co252 2.137 . S
O264 C255 1.247 . S
O265 Co252 2.244 . S
O265 C255 1.272 . S
O265 Co257 2.135 . S
Co266 O267 2.216 . S
Co266 O268 2.091 . S
Co266 O270 2.004 . S
Co266 O276 2.021 . S
Co266 O278 2.137 . S
Co266 O279 2.244 . S
O267 Co266 2.216 . S
O267 C274 1.247 . S
O268 Co266 2.091 . S
O268 C274 1.261 . S
C269 O278 1.247 . S
C269 O279 1.272 . S
O270 Co266 2.004 . S
O270 C275 1.259 . S
Co271 O272 2.061 . S
Co271 O277 2.052 . S
Co271 O279 2.135 . S
O272 Co271 2.061 . S
O272 C275 1.235 . S
C273 O276 1.238 . S
C273 O277 1.241 . S
C274 O267 1.247 . S
C274 O268 1.261 . S
C275 O270 1.259 . S
C275 O272 1.235 . S
O276 Co266 2.021 . S
O276 C273 1.238 . S
O277 Co271 2.052 . S
O277 C273 1.241 . S
O278 Co266 2.137 . S
O278 C269 1.247 . S
O279 Co266 2.244 . S
O279 C269 1.272 . S
O279 Co271 2.135 . S
Co280 O281 2.216 . S
Co280 O282 2.091 . S
Co280 O284 2.004 . S
Co280 O290 2.021 . S
Co280 O292 2.137 . S
Co280 O293 2.244 . S
O281 Co280 2.216 . S
O281 C288 1.247 . S
O282 Co280 2.091 . S
O282 C288 1.261 . S
C283 O292 1.247 . S
C283 O293 1.272 . S
O284 Co280 2.004 . S
O284 C289 1.259 . S
Co285 O286 2.061 . S
Co285 O291 2.052 . S
Co285 O293 2.135 . S
O286 Co285 2.061 . S
O286 C289 1.235 . S
C287 O290 1.238 . S
C287 O291 1.241 . S
C288 O281 1.247 . S
C288 O282 1.261 . S
C289 O284 1.259 . S
C289 O286 1.235 . S
O290 Co280 2.021 . S
O290 C287 1.238 . S
O291 Co285 2.052 . S
O291 C287 1.241 . S
O292 Co280 2.137 . S
O292 C283 1.247 . S
O293 Co280 2.244 . S
O293 C283 1.272 . S
O293 Co285 2.135 . S
Co294 O295 2.216 . S
Co294 O296 2.091 . S
Co294 O298 2.004 . S
Co294 O304 2.021 . S
Co294 O306 2.137 . S
Co294 O307 2.244 . S
O295 Co294 2.216 . S
O295 C302 1.247 . S
O296 Co294 2.091 . S
O296 C302 1.261 . S
C297 O306 1.247 . S
C297 O307 1.272 . S
O298 Co294 2.004 . S
O298 C303 1.259 . S
Co299 O300 2.061 . S
Co299 O305 2.052 . S
Co299 O307 2.135 . S
O300 Co299 2.061 . S
O300 C303 1.235 . S
C301 O304 1.238 . S
C301 O305 1.241 . S
C302 O295 1.247 . S
C302 O296 1.261 . S
C303 O298 1.259 . S
C303 O300 1.235 . S
O304 Co294 2.021 . S
O304 C301 1.238 . S
O305 Co299 2.052 . S
O305 C301 1.241 . S
O306 Co294 2.137 . S
O306 C297 1.247 . S
O307 Co294 2.244 . S
O307 C297 1.272 . S
O307 Co299 2.135 . S
Co308 O309 2.216 . S
Co308 O310 2.091 . S
Co308 O312 2.004 . S
Co308 O318 2.021 . S
Co308 O320 2.137 . S
Co308 O321 2.244 . S
O309 Co308 2.216 . S
O309 C316 1.247 . S
O310 Co308 2.091 . S
O310 C316 1.261 . S
C311 O320 1.247 . S
C311 O321 1.272 . S
O312 Co308 2.004 . S
O312 C317 1.259 . S
Co313 O314 2.061 . S
Co313 O319 2.052 . S
Co313 O321 2.135 . S
O314 Co313 2.061 . S
O314 C317 1.235 . S
C315 O318 1.238 . S
C315 O319 1.241 . S
C316 O309 1.247 . S
C316 O310 1.261 . S
C317 O312 1.259 . S
C317 O314 1.235 . S
O318 Co308 2.021 . S
O318 C315 1.238 . S
O319 Co313 2.052 . S
O319 C315 1.241 . S
O320 Co308 2.137 . S
O320 C311 1.247 . S
O321 Co308 2.244 . S
O321 C311 1.272 . S
O321 Co313 2.135 . S
Co322 O323 2.216 . S
Co322 O324 2.091 . S
Co322 O326 2.004 . S
Co322 O332 2.021 . S
Co322 O334 2.137 . S
Co322 O335 2.244 . S
O323 Co322 2.216 . S
O323 C330 1.247 . S
O324 Co322 2.091 . S
O324 C330 1.261 . S
C325 O334 1.247 . S
C325 O335 1.272 . S
O326 Co322 2.004 . S
O326 C331 1.259 . S
Co327 O328 2.061 . S
Co327 O333 2.052 . S
Co327 O335 2.135 . S
O328 Co327 2.061 . S
O328 C331 1.235 . S
C329 O332 1.238 . S
C329 O333 1.241 . S
C330 O323 1.247 . S
C330 O324 1.261 . S
C331 O326 1.259 . S
C331 O328 1.235 . S
O332 Co322 2.021 . S
O332 C329 1.238 . S
O333 Co327 2.052 . S
O333 C329 1.241 . S
O334 Co322 2.137 . S
O334 C325 1.247 . S
O335 Co322 2.244 . S
O335 C325 1.272 . S
O335 Co327 2.135 . S
Co336 O337 2.216 . S
Co336 O338 2.091 . S
Co336 O340 2.004 . S
Co336 O346 2.021 . S
Co336 O348 2.137 . S
Co336 O349 2.244 . S
O337 Co336 2.216 . S
O337 C344 1.247 . S
O338 Co336 2.091 . S
O338 C344 1.261 . S
C339 O348 1.247 . S
C339 O349 1.272 . S
O340 Co336 2.004 . S
O340 C345 1.259 . S
Co341 O342 2.061 . S
Co341 O347 2.052 . S
Co341 O349 2.135 . S
O342 Co341 2.061 . S
O342 C345 1.235 . S
C343 O346 1.238 . S
C343 O347 1.241 . S
C344 O337 1.247 . S
C344 O338 1.261 . S
C345 O340 1.259 . S
C345 O342 1.235 . S
O346 Co336 2.021 . S
O346 C343 1.238 . S
O347 Co341 2.052 . S
O347 C343 1.241 . S
O348 Co336 2.137 . S
O348 C339 1.247 . S
O349 Co336 2.244 . S
O349 C339 1.272 . S
O349 Co341 2.135 . S
Co350 O351 2.216 . S
Co350 O352 2.091 . S
Co350 O354 2.004 . S
Co350 O360 2.021 . S
Co350 O362 2.137 . S
Co350 O363 2.244 . S
O351 Co350 2.216 . S
O351 C358 1.247 . S
O352 Co350 2.091 . S
O352 C358 1.261 . S
C353 O362 1.247 . S
C353 O363 1.272 . S
O354 Co350 2.004 . S
O354 C359 1.259 . S
Co355 O356 2.061 . S
Co355 O361 2.052 . S
Co355 O363 2.135 . S
O356 Co355 2.061 . S
O356 C359 1.235 . S
C357 O360 1.238 . S
C357 O361 1.241 . S
C358 O351 1.247 . S
C358 O352 1.261 . S
C359 O354 1.259 . S
C359 O356 1.235 . S
O360 Co350 2.021 . S
O360 C357 1.238 . S
O361 Co355 2.052 . S
O361 C357 1.241 . S
O362 Co350 2.137 . S
O362 C353 1.247 . S
O363 Co350 2.244 . S
O363 C353 1.272 . S
O363 Co355 2.135 . S
Co364 O365 2.216 . S
Co364 O366 2.091 . S
Co364 O368 2.004 . S
Co364 O374 2.021 . S
Co364 O376 2.137 . S
Co364 O377 2.244 . S
O365 Co364 2.216 . S
O365 C372 1.247 . S
O366 Co364 2.091 . S
O366 C372 1.261 . S
C367 O376 1.247 . S
C367 O377 1.272 . S
O368 Co364 2.004 . S
O368 C373 1.259 . S
Co369 O370 2.061 . S
Co369 O375 2.052 . S
Co369 O377 2.135 . S
O370 Co369 2.061 . S
O370 C373 1.235 . S
C371 O374 1.238 . S
C371 O375 1.241 . S
C372 O365 1.247 . S
C372 O366 1.261 . S
C373 O368 1.259 . S
C373 O370 1.235 . S
O374 Co364 2.021 . S
O374 C371 1.238 . S
O375 Co369 2.052 . S
O375 C371 1.241 . S
O376 Co364 2.137 . S
O376 C367 1.247 . S
O377 Co364 2.244 . S
O377 C367 1.272 . S
O377 Co369 2.135 . S
Co378 O379 2.216 . S
Co378 O380 2.091 . S
Co378 O382 2.004 . S
Co378 O388 2.021 . S
Co378 O390 2.137 . S
Co378 O391 2.244 . S
O379 Co378 2.216 . S
O379 C386 1.247 . S
O380 Co378 2.091 . S
O380 C386 1.261 . S
C381 O390 1.247 . S
C381 O391 1.272 . S
O382 Co378 2.004 . S
O382 C387 1.259 . S
Co383 O384 2.061 . S
Co383 O389 2.052 . S
Co383 O391 2.135 . S
O384 Co383 2.061 . S
O384 C387 1.235 . S
C385 O388 1.238 . S
C385 O389 1.241 . S
C386 O379 1.247 . S
C386 O380 1.261 . S
C387 O382 1.259 . S
C387 O384 1.235 . S
O388 Co378 2.021 . S
O388 C385 1.238 . S
O389 Co383 2.052 . S
O389 C385 1.241 . S
O390 Co378 2.137 . S
O390 C381 1.247 . S
O391 Co378 2.244 . S
O391 C381 1.272 . S
O391 Co383 2.135 . S
Co392 O393 2.216 . S
Co392 O394 2.091 . S
Co392 O396 2.004 . S
Co392 O402 2.021 . S
Co392 O404 2.137 . S
Co392 O405 2.244 . S
O393 Co392 2.216 . S
O393 C400 1.247 . S
O394 Co392 2.091 . S
O394 C400 1.261 . S
C395 O404 1.247 . S
C395 O405 1.272 . S
O396 Co392 2.004 . S
O396 C401 1.259 . S
Co397 O398 2.061 . S
Co397 O403 2.052 . S
Co397 O405 2.135 . S
O398 Co397 2.061 . S
O398 C401 1.235 . S
C399 O402 1.238 . S
C399 O403 1.241 . S
C400 O393 1.247 . S
C400 O394 1.261 . S
C401 O396 1.259 . S
C401 O398 1.235 . S
O402 Co392 2.021 . S
O402 C399 1.238 . S
O403 Co397 2.052 . S
O403 C399 1.241 . S
O404 Co392 2.137 . S
O404 C395 1.247 . S
O405 Co392 2.244 . S
O405 C395 1.272 . S
O405 Co397 2.135 . S
Co406 O407 2.216 . S
Co406 O408 2.091 . S
Co406 O410 2.004 . S
Co406 O416 2.021 . S
Co406 O418 2.137 . S
Co406 O419 2.244 . S
O407 Co406 2.216 . S
O407 C414 1.247 . S
O408 Co406 2.091 . S
O408 C414 1.261 . S
C409 O418 1.247 . S
C409 O419 1.272 . S
O410 Co406 2.004 . S
O410 C415 1.259 . S
Co411 O412 2.061 . S
Co411 O417 2.052 . S
Co411 O419 2.135 . S
O412 Co411 2.061 . S
O412 C415 1.235 . S
C413 O416 1.238 . S
C413 O417 1.241 . S
C414 O407 1.247 . S
C414 O408 1.261 . S
C415 O410 1.259 . S
C415 O412 1.235 . S
O416 Co406 2.021 . S
O416 C413 1.238 . S
O417 Co411 2.052 . S
O417 C413 1.241 . S
O418 Co406 2.137 . S
O418 C409 1.247 . S
O419 Co406 2.244 . S
O419 C409 1.272 . S
O419 Co411 2.135 . S
Co420 O421 2.216 . S
Co420 O422 2.091 . S
Co420 O424 2.004 . S
Co420 O430 2.021 . S
Co420 O432 2.137 . S
Co420 O433 2.244 . S
O421 Co420 2.216 . S
O421 C428 1.247 . S
O422 Co420 2.091 . S
O422 C428 1.261 . S
C423 O432 1.247 . S
C423 O433 1.272 . S
O424 Co420 2.004 . S
O424 C429 1.259 . S
Co425 O426 2.061 . S
Co425 O431 2.052 . S
Co425 O433 2.135 . S
O426 Co425 2.061 . S
O426 C429 1.235 . S
C427 O430 1.238 . S
C427 O431 1.241 . S
C428 O421 1.247 . S
C428 O422 1.261 . S
C429 O424 1.259 . S
C429 O426 1.235 . S
O430 Co420 2.021 . S
O430 C427 1.238 . S
O431 Co425 2.052 . S
O431 C427 1.241 . S
O432 Co420 2.137 . S
O432 C423 1.247 . S
O433 Co420 2.244 . S
O433 C423 1.272 . S
O433 Co425 2.135 . S
Co434 O435 2.216 . S
Co434 O436 2.091 . S
Co434 O438 2.004 . S
Co434 O444 2.021 . S
Co434 O446 2.137 . S
Co434 O447 2.244 . S
O435 Co434 2.216 . S
O435 C442 1.247 . S
O436 Co434 2.091 . S
O436 C442 1.261 . S
C437 O446 1.247 . S
C437 O447 1.272 . S
O438 Co434 2.004 . S
O438 C443 1.259 . S
Co439 O440 2.061 . S
Co439 O445 2.052 . S
Co439 O447 2.135 . S
O440 Co439 2.061 . S
O440 C443 1.235 . S
C441 O444 1.238 . S
C441 O445 1.241 . S
C442 O435 1.247 . S
C442 O436 1.261 . S
C443 O438 1.259 . S
C443 O440 1.235 . S
O444 Co434 2.021 . S
O444 C441 1.238 . S
O445 Co439 2.052 . S
O445 C441 1.241 . S
O446 Co434 2.137 . S
O446 C437 1.247 . S
O447 Co434 2.244 . S
O447 C437 1.272 . S
O447 Co439 2.135 . S
Co448 O449 2.216 . S
Co448 O450 2.091 . S
Co448 O452 2.004 . S
Co448 O458 2.021 . S
Co448 O460 2.137 . S
Co448 O461 2.244 . S
O449 Co448 2.216 . S
O449 C456 1.247 . S
O450 Co448 2.091 . S
O450 C456 1.261 . S
C451 O460 1.247 . S
C451 O461 1.272 . S
O452 Co448 2.004 . S
O452 C457 1.259 . S
Co453 O454 2.061 . S
Co453 O459 2.052 . S
Co453 O461 2.135 . S
O454 Co453 2.061 . S
O454 C457 1.235 . S
C455 O458 1.238 . S
C455 O459 1.241 . S
C456 O449 1.247 . S
C456 O450 1.261 . S
C457 O452 1.259 . S
C457 O454 1.235 . S
O458 Co448 2.021 . S
O458 C455 1.238 . S
O459 Co453 2.052 . S
O459 C455 1.241 . S
O460 Co448 2.137 . S
O460 C451 1.247 . S
O461 Co448 2.244 . S
O461 C451 1.272 . S
O461 Co453 2.135 . S
Co462 O463 2.216 . S
Co462 O464 2.091 . S
Co462 O466 2.004 . S
Co462 O472 2.021 . S
Co462 O474 2.137 . S
Co462 O475 2.244 . S
O463 Co462 2.216 . S
O463 C470 1.247 . S
O464 Co462 2.091 . S
O464 C470 1.261 . S
C465 O474 1.247 . S
C465 O475 1.272 . S
O466 Co462 2.004 . S
O466 C471 1.259 . S
Co467 O468 2.061 . S
Co467 O473 2.052 . S
Co467 O475 2.135 . S
O468 Co467 2.061 . S
O468 C471 1.235 . S
C469 O472 1.238 . S
C469 O473 1.241 . S
C470 O463 1.247 . S
C470 O464 1.261 . S
C471 O466 1.259 . S
C471 O468 1.235 . S
O472 Co462 2.021 . S
O472 C469 1.238 . S
O473 Co467 2.052 . S
O473 C469 1.241 . S
O474 Co462 2.137 . S
O474 C465 1.247 . S
O475 Co462 2.244 . S
O475 C465 1.272 . S
O475 Co467 2.135 . S
Co476 O477 2.216 . S
Co476 O478 2.091 . S
Co476 O480 2.004 . S
Co476 O486 2.021 . S
Co476 O488 2.137 . S
Co476 O489 2.244 . S
O477 Co476 2.216 . S
O477 C484 1.247 . S
O478 Co476 2.091 . S
O478 C484 1.261 . S
C479 O488 1.247 . S
C479 O489 1.272 . S
O480 Co476 2.004 . S
O480 C485 1.259 . S
Co481 O482 2.061 . S
Co481 O487 2.052 . S
Co481 O489 2.135 . S
O482 Co481 2.061 . S
O482 C485 1.235 . S
C483 O486 1.238 . S
C483 O487 1.241 . S
C484 O477 1.247 . S
C484 O478 1.261 . S
C485 O480 1.259 . S
C485 O482 1.235 . S
O486 Co476 2.021 . S
O486 C483 1.238 . S
O487 Co481 2.052 . S
O487 C483 1.241 . S
O488 Co476 2.137 . S
O488 C479 1.247 . S
O489 Co476 2.244 . S
O489 C479 1.272 . S
O489 Co481 2.135 . S
Co490 O491 2.216 . S
Co490 O492 2.091 . S
Co490 O494 2.004 . S
Co490 O500 2.021 . S
Co490 O502 2.137 . S
Co490 O503 2.244 . S
O491 Co490 2.216 . S
O491 C498 1.247 . S
O492 Co490 2.091 . S
O492 C498 1.261 . S
C493 O502 1.247 . S
C493 O503 1.272 . S
O494 Co490 2.004 . S
O494 C499 1.259 . S
Co495 O496 2.061 . S
Co495 O501 2.052 . S
Co495 O503 2.135 . S
O496 Co495 2.061 . S
O496 C499 1.235 . S
C497 O500 1.238 . S
C497 O501 1.241 . S
C498 O491 1.247 . S
C498 O492 1.261 . S
C499 O494 1.259 . S
C499 O496 1.235 . S
O500 Co490 2.021 . S
O500 C497 1.238 . S
O501 Co495 2.052 . S
O501 C497 1.241 . S
O502 Co490 2.137 . S
O502 C493 1.247 . S
O503 Co490 2.244 . S
O503 C493 1.272 . S
O503 Co495 2.135 . S
H504 C522 0.951 . S
H505 C524 0.951 . S
H506 C526 0.950 . S
H507 C527 0.950 . S
H508 C529 0.950 . S
H509 C532 0.950 . S
H510 C533 0.950 . S
H511 C535 0.950 . S
H512 C536 0.950 . S
H513 C537 0.951 . S
H514 C539 0.951 1_554 S
H515 C541 0.950 . S
H516 C542 0.950 . S
H517 C544 0.950 . S
H518 C547 0.950 . S
H519 C548 0.950 . S
H520 C550 0.950 1_565 S
H521 C551 0.950 . S
C522 H504 0.951 . S
C522 C523 1.366 . S
C522 C524 1.388 . S
C523 C522 1.366 . S
C523 C527 1.385 . S
C524 H505 0.951 . S
C524 C522 1.388 . S
C524 C525 1.366 . S
C525 C524 1.366 . S
C525 C526 1.414 . S
C525 C528 1.499 . S
C526 H506 0.950 . S
C526 C525 1.414 . S
C526 C527 1.374 . S
C527 H507 0.950 . S
C527 C523 1.385 . S
C527 C526 1.374 . S
C528 C525 1.499 . S
C528 C529 1.373 . S
C528 C530 1.389 . S
C529 H508 0.950 . S
C529 C528 1.373 . S
C529 C545 1.377 . S
C530 C528 1.389 . S
C530 C531 1.521 1_554 S
C530 C544 1.377 1_554 S
C531 C530 1.521 1_556 S
C531 C532 1.372 1_556 S
C531 C536 1.391 . S
C532 H509 0.950 . S
C532 C531 1.372 1_554 S
C532 C533 1.334 . S
C533 H510 0.950 . S
C533 C532 1.334 . S
C533 C534 1.287 1_554 S
C534 C533 1.287 1_556 S
C534 C535 1.524 . S
C534 H553 0.913 . S
C535 H511 0.950 . S
C535 C534 1.524 . S
C535 C536 1.415 . S
C536 H512 0.950 . S
C536 C531 1.391 . S
C536 C535 1.415 . S
C537 H513 0.951 . S
C537 C538 1.366 . S
C537 C539 1.388 . S
C538 C537 1.366 . S
C538 C542 1.385 . S
C539 H514 0.951 1_556 S
C539 C537 1.388 . S
C539 C540 1.366 1_565 S
C540 C539 1.366 1_545 S
C540 C541 1.414 . S
C540 C543 1.499 . S
C541 H515 0.950 . S
C541 C540 1.414 . S
C541 C542 1.374 1_545 S
C542 H516 0.950 . S
C542 C538 1.385 . S
C542 C541 1.374 1_565 S
C543 C540 1.499 . S
C543 C544 1.373 . S
C543 C545 1.389 1_556 S
C544 H517 0.950 . S
C544 C530 1.377 1_556 S
C544 C543 1.373 . S
C545 C529 1.377 . S
C545 C543 1.389 1_554 S
C545 C546 1.524 . S
C546 C545 1.524 . S
C546 C547 1.397 1_554 S
C546 C551 1.363 . S
C547 H518 0.950 . S
C547 C546 1.397 1_556 S
C547 C548 1.334 . S
C548 H519 0.950 . S
C548 C547 1.334 . S
C548 C549 1.287 1_556 S
C549 C548 1.287 1_554 S
C549 C550 1.524 . S
C549 H552 0.999 1_545 S
C550 H520 0.950 1_545 S
C550 C549 1.524 . S
C550 C551 1.415 . S
C551 H521 0.950 . S
C551 C546 1.363 . S
C551 C550 1.415 . S
H552 C549 0.999 1_565 S
H553 C534 0.913 . S
H554 C572 0.951 . S
H555 C574 0.951 . S
H556 C576 0.950 . S
H557 C577 0.950 . S
H558 C579 0.950 . S
H559 C582 0.950 . S
H560 C583 0.950 . S
H561 C585 0.956 . S
H562 C586 0.950 . S
H563 C587 0.951 . S
H564 C589 0.919 1_655 S
H565 C591 0.950 . S
H566 C592 0.950 . S
H567 C594 0.950 . S
H568 C597 0.950 . S
H569 C598 0.950 . S
H570 C600 0.950 . S
H571 C601 0.950 . S
C572 H554 0.951 . S
C572 C573 1.366 . S
C572 C574 1.388 . S
C573 C572 1.366 . S
C573 C577 1.385 . S
C574 H555 0.951 . S
C574 C572 1.388 . S
C574 C575 1.366 . S
C575 C574 1.366 . S
C575 C576 1.414 . S
C575 C578 1.499 . S
C576 H556 0.950 . S
C576 C575 1.414 . S
C576 C577 1.374 . S
C577 H557 0.950 . S
C577 C573 1.385 . S
C577 C576 1.374 . S
C578 C575 1.499 . S
C578 C579 1.373 1_554 S
C578 C580 1.389 . S
C579 H558 0.950 . S
C579 C578 1.373 1_556 S
C579 C595 1.377 . S
C580 C578 1.389 . S
C580 C581 1.524 . S
C580 C594 1.377 . S
C581 C580 1.524 . S
C581 C582 1.397 . S
C581 C586 1.363 . S
C582 H559 0.950 . S
C582 C581 1.397 . S
C582 C583 1.334 . S
C583 H560 0.950 . S
C583 C582 1.334 . S
C583 C584 1.287 . S
C584 C583 1.287 . S
C584 C585 1.524 . S
C584 H603 0.913 . S
C585 H561 0.956 . S
C585 C584 1.524 . S
C585 C586 1.415 . S
C586 H562 0.950 . S
C586 C581 1.363 . S
C586 C585 1.415 . S
C587 H563 0.951 . S
C587 C588 1.366 . S
C587 C589 1.408 . S
C588 C587 1.366 . S
C588 C592 1.385 . S
C589 H564 0.919 1_455 S
C589 C587 1.408 . S
C589 C590 1.378 1_455 S
C590 C589 1.378 1_655 S
C590 C591 1.414 1_655 S
C590 C593 1.499 . S
C591 H565 0.950 . S
C591 C590 1.414 1_455 S
C591 C592 1.374 . S
C592 H566 0.950 . S
C592 C588 1.385 . S
C592 C591 1.374 . S
C593 C590 1.499 . S
C593 C594 1.373 1_556 S
C593 C595 1.389 . S
C594 H567 0.950 . S
C594 C580 1.377 . S
C594 C593 1.373 1_554 S
C595 C579 1.377 . S
C595 C593 1.389 . S
C595 C596 1.524 . S
C596 C595 1.524 . S
C596 C597 1.397 . S
C596 C601 1.363 . S
C597 H568 0.950 . S
C597 C596 1.397 . S
C597 C598 1.334 . S
C598 H569 0.950 . S
C598 C597 1.334 . S
C598 C599 1.287 . S
C599 C598 1.287 . S
C599 C600 1.524 . S
C599 H602 0.999 . S
C600 H570 0.950 . S
C600 C599 1.524 . S
C600 C601 1.415 . S
C601 H571 0.950 . S
C601 C596 1.363 . S
C601 C600 1.415 . S
H602 C599 0.999 . S
H603 C584 0.913 . S
H604 C622 0.951 . S
H605 C624 0.951 . S
H606 C626 0.950 . S
H607 C627 0.950 . S
H608 C629 0.950 . S
H609 C632 0.950 . S
H610 C633 0.950 . S
H611 C635 0.950 . S
H612 C636 0.950 . S
H613 C637 0.951 . S
H614 C639 0.951 . S
H615 C641 0.950 . S
H616 C642 0.950 . S
H617 C644 0.950 . S
H618 C647 0.950 . S
H619 C648 0.950 . S
H620 C650 0.950 . S
H621 C651 0.950 . S
C622 H604 0.951 . S
C622 C623 1.366 . S
C622 C624 1.388 . S
C623 C622 1.366 . S
C623 C627 1.385 . S
C624 H605 0.951 . S
C624 C622 1.388 . S
C624 C625 1.366 . S
C625 C624 1.366 . S
C625 C626 1.414 . S
C625 C628 1.499 . S
C626 H606 0.950 . S
C626 C625 1.414 . S
C626 C627 1.374 . S
C627 H607 0.950 . S
C627 C623 1.385 . S
C627 C626 1.374 . S
C628 C625 1.499 . S
C628 C629 1.373 1_556 S
C628 C630 1.389 . S
C629 H608 0.950 . S
C629 C628 1.373 1_554 S
C629 C645 1.377 . S
C630 C628 1.389 . S
C630 C631 1.524 . S
C630 C644 1.377 . S
C631 C630 1.524 . S
C631 C632 1.397 . S
C631 C636 1.363 . S
C632 H609 0.950 . S
C632 C631 1.397 . S
C632 C633 1.334 . S
C633 H610 0.950 . S
C633 C632 1.334 . S
C633 C634 1.287 . S
C634 C633 1.287 . S
C634 C635 1.524 . S
C634 H653 0.913 . S
C635 H611 0.950 . S
C635 C634 1.524 . S
C635 C636 1.415 . S
C636 H612 0.950 . S
C636 C631 1.363 . S
C636 C635 1.415 . S
C637 H613 0.951 . S
C637 C638 1.366 . S
C637 C639 1.388 . S
C638 C637 1.366 . S
C638 C642 1.385 . S
C639 H614 0.951 . S
C639 C637 1.388 . S
C639 C640 1.366 . S
C640 C639 1.366 . S
C640 C641 1.414 . S
C640 C643 1.499 . S
C641 H615 0.950 . S
C641 C640 1.414 . S
C641 C642 1.374 . S
C642 H616 0.950 . S
C642 C638 1.385 . S
C642 C641 1.374 . S
C643 C640 1.499 . S
C643 C644 1.373 1_554 S
C643 C645 1.389 . S
C644 H617 0.950 . S
C644 C630 1.377 . S
C644 C643 1.373 1_556 S
C645 C629 1.377 . S
C645 C643 1.389 . S
C645 C646 1.524 . S
C646 C645 1.524 . S
C646 C647 1.397 . S
C646 C651 1.363 . S
C647 H618 0.950 . S
C647 C646 1.397 . S
C647 C648 1.334 . S
C648 H619 0.950 . S
C648 C647 1.334 . S
C648 C649 1.287 . S
C649 C648 1.287 . S
C649 C650 1.524 . S
C649 H652 0.999 . S
C650 H620 0.950 . S
C650 C649 1.524 . S
C650 C651 1.415 . S
C651 H621 0.950 . S
C651 C646 1.363 . S
C651 C650 1.415 . S
H652 C649 0.999 . S
H653 C634 0.913 . S
H654 C672 0.951 . S
H655 C674 0.973 . S
H656 C676 0.950 . S
H657 C677 0.950 . S
H658 C679 0.950 . S
H659 C682 0.950 . S
H660 C683 0.950 . S
H661 C685 0.950 . S
H662 C686 0.950 . S
H663 C687 0.951 . S
H664 C689 0.951 . S
H665 C691 0.950 . S
H666 C692 0.950 . S
H667 C694 0.950 . S
H668 C697 0.950 . S
H669 C698 0.950 . S
H670 C700 0.950 . S
H671 C701 0.950 . S
C672 H654 0.951 . S
C672 C673 1.366 . S
C672 C674 1.348 1_655 S
C673 C672 1.366 . S
C673 C677 1.385 . S
C674 H655 0.973 . S
C674 C672 1.348 1_455 S
C674 C675 1.374 . S
C675 C674 1.374 . S
C675 C676 1.402 1_455 S
C675 C678 1.522 . S
C676 H656 0.950 . S
C676 C675 1.402 1_655 S
C676 C677 1.374 . S
C677 H657 0.950 . S
C677 C673 1.385 . S
C677 C676 1.374 . S
C678 C675 1.522 . S
C678 C679 1.373 . S
C678 C680 1.389 . S
C679 H658 0.950 . S
C679 C678 1.373 . S
C679 C695 1.377 . S
C680 C678 1.389 . S
C680 C681 1.524 . S
C680 C694 1.377 . S
C681 C680 1.524 . S
C681 C682 1.391 1_455 S
C681 C686 1.363 . S
C682 H659 0.950 . S
C682 C681 1.391 1_655 S
C682 C683 1.339 . S
C683 H660 0.950 . S
C683 C682 1.339 . S
C683 C684 1.287 1_655 S
C684 C683 1.287 1_455 S
C684 C685 1.524 . S
C684 H703 0.913 1_455 S
C685 H661 0.950 . S
C685 C684 1.524 . S
C685 C686 1.415 . S
C686 H662 0.950 . S
C686 C681 1.363 . S
C686 C685 1.415 . S
C687 H663 0.951 . S
C687 C688 1.366 . S
C687 C689 1.388 . S
C688 C687 1.366 . S
C688 C692 1.385 . S
C689 H664 0.951 . S
C689 C687 1.388 . S
C689 C690 1.366 . S
C690 C689 1.366 . S
C690 C691 1.414 . S
C690 C693 1.499 . S
C691 H665 0.950 . S
C691 C690 1.414 . S
C691 C692 1.374 . S
C692 H666 0.950 . S
C692 C688 1.385 . S
C692 C691 1.374 . S
C693 C690 1.499 . S
C693 C694 1.373 . S
C693 C695 1.389 . S
C694 H667 0.950 . S
C694 C680 1.377 . S
C694 C693 1.373 . S
C695 C679 1.377 . S
C695 C693 1.389 . S
C695 C696 1.524 . S
C696 C695 1.524 . S
C696 C697 1.397 . S
C696 C701 1.363 . S
C697 H668 0.950 . S
C697 C696 1.397 . S
C697 C698 1.334 . S
C698 H669 0.950 . S
C698 C697 1.334 . S
C698 C699 1.287 . S
C699 C698 1.287 . S
C699 C700 1.524 . S
C699 H702 0.999 . S
C700 H670 0.950 . S
C700 C699 1.524 . S
C700 C701 1.415 . S
C701 H671 0.950 . S
C701 C696 1.363 . S
C701 C700 1.415 . S
H702 C699 0.999 . S
H703 C684 0.913 1_655 S
H704 C722 0.951 . S
H705 C724 0.951 . S
H706 C726 0.950 . S
H707 C727 0.950 . S
H708 C729 0.950 . S
H709 C732 0.950 . S
H710 C733 0.950 . S
H711 C735 0.950 . S
H712 C736 0.950 . S
H713 C737 0.951 . S
H714 C739 0.951 . S
H715 C741 0.950 . S
H716 C742 0.950 . S
H717 C744 0.950 . S
H718 C747 0.950 . S
H719 C748 0.950 . S
H720 C750 0.950 . S
H721 C751 0.950 . S
C722 H704 0.951 . S
C722 C723 1.366 . S
C722 C724 1.388 . S
C723 C722 1.366 . S
C723 C727 1.385 . S
C724 H705 0.951 . S
C724 C722 1.388 . S
C724 C725 1.366 . S
C725 C724 1.366 . S
C725 C726 1.414 . S
C725 C728 1.499 . S
C726 H706 0.950 . S
C726 C725 1.414 . S
C726 C727 1.374 . S
C727 H707 0.950 . S
C727 C723 1.385 . S
C727 C726 1.374 . S
C728 C725 1.499 . S
C728 C729 1.373 . S
C728 C730 1.389 . S
C729 H708 0.950 . S
C729 C728 1.373 . S
C729 C745 1.377 . S
C730 C728 1.389 . S
C730 C731 1.524 . S
C730 C744 1.377 . S
C731 C730 1.524 . S
C731 C732 1.397 . S
C731 C736 1.363 . S
C732 H709 0.950 . S
C732 C731 1.397 . S
C732 C733 1.334 . S
C733 H710 0.950 . S
C733 C732 1.334 . S
C733 C734 1.287 . S
C734 C733 1.287 . S
C734 C735 1.524 . S
C734 H753 0.913 . S
C735 H711 0.950 . S
C735 C734 1.524 . S
C735 C736 1.415 . S
C736 H712 0.950 . S
C736 C731 1.363 . S
C736 C735 1.415 . S
C737 H713 0.951 . S
C737 C738 1.366 . S
C737 C739 1.388 . S
C738 C737 1.366 . S
C738 C742 1.385 . S
C739 H714 0.951 . S
C739 C737 1.388 . S
C739 C740 1.366 . S
C740 C739 1.366 . S
C740 C741 1.414 . S
C740 C743 1.499 . S
C741 H715 0.950 . S
C741 C740 1.414 . S
C741 C742 1.374 . S
C742 H716 0.950 . S
C742 C738 1.385 . S
C742 C741 1.374 . S
C743 C740 1.499 . S
C743 C744 1.373 . S
C743 C745 1.389 . S
C744 H717 0.950 . S
C744 C730 1.377 . S
C744 C743 1.373 . S
C745 C729 1.377 . S
C745 C743 1.389 . S
C745 C746 1.524 . S
C746 C745 1.524 . S
C746 C747 1.397 . S
C746 C751 1.363 . S
C747 H718 0.950 . S
C747 C746 1.397 . S
C747 C748 1.334 . S
C748 H719 0.950 . S
C748 C747 1.334 . S
C748 C749 1.287 . S
C749 C748 1.287 . S
C749 C750 1.524 . S
C749 H752 0.999 . S
C750 H720 0.950 . S
C750 C749 1.524 . S
C750 C751 1.415 . S
C751 H721 0.950 . S
C751 C746 1.363 . S
C751 C750 1.415 . S
H752 C749 0.999 . S
H753 C734 0.913 . S
H754 C772 0.951 . S
H755 C774 0.951 . S
H756 C776 0.950 . S
H757 C777 0.950 . S
H758 C779 0.950 . S
H759 C782 0.950 . S
H760 C783 0.950 . S
H761 C785 0.950 . S
H762 C786 0.950 . S
H763 C787 0.951 . S
H764 C789 0.951 . S
H765 C791 0.950 . S
H766 C792 0.950 . S
H767 C794 0.950 . S
H768 C797 0.950 . S
H769 C798 0.950 . S
H770 C800 0.950 . S
H771 C801 0.950 . S
C772 H754 0.951 . S
C772 C773 1.366 . S
C772 C774 1.388 . S
C773 C772 1.366 . S
C773 C777 1.385 . S
C774 H755 0.951 . S
C774 C772 1.388 . S
C774 C775 1.366 . S
C775 C774 1.366 . S
C775 C776 1.414 . S
C775 C778 1.499 . S
C776 H756 0.950 . S
C776 C775 1.414 . S
C776 C777 1.374 . S
C777 H757 0.950 . S
C777 C773 1.385 . S
C777 C776 1.374 . S
C778 C775 1.499 . S
C778 C779 1.373 . S
C778 C780 1.389 . S
C779 H758 0.950 . S
C779 C778 1.373 . S
C779 C795 1.377 . S
C780 C778 1.389 . S
C780 C781 1.524 . S
C780 C794 1.377 . S
C781 C780 1.524 . S
C781 C782 1.397 . S
C781 C786 1.363 . S
C782 H759 0.950 . S
C782 C781 1.397 . S
C782 C783 1.334 . S
C783 H760 0.950 . S
C783 C782 1.334 . S
C783 C784 1.287 . S
C784 C783 1.287 . S
C784 C785 1.524 . S
C784 H803 0.913 . S
C785 H761 0.950 . S
C785 C784 1.524 . S
C785 C786 1.415 . S
C786 H762 0.950 . S
C786 C781 1.363 . S
C786 C785 1.415 . S
C787 H763 0.951 . S
C787 C788 1.366 . S
C787 C789 1.388 . S
C788 C787 1.366 . S
C788 C792 1.385 . S
C789 H764 0.951 . S
C789 C787 1.388 . S
C789 C790 1.322 1_545 S
C790 C789 1.322 1_565 S
C790 C791 1.431 . S
C790 C793 1.527 . S
C791 H765 0.950 . S
C791 C790 1.431 . S
C791 C792 1.374 1_565 S
C792 H766 0.950 . S
C792 C788 1.385 . S
C792 C791 1.374 1_545 S
C793 C790 1.527 . S
C793 C794 1.373 . S
C793 C795 1.389 . S
C794 H767 0.950 . S
C794 C780 1.377 . S
C794 C793 1.373 . S
C795 C779 1.377 . S
C795 C793 1.389 . S
C795 C796 1.508 1_565 S
C796 C795 1.508 1_545 S
C796 C797 1.392 . S
C796 C801 1.381 . S
C797 H768 0.950 . S
C797 C796 1.392 . S
C797 C798 1.334 . S
C798 H769 0.950 . S
C798 C797 1.334 . S
C798 C799 1.287 . S
C799 C798 1.287 . S
C799 C800 1.524 . S
C799 H802 0.999 . S
C800 H770 0.950 . S
C800 C799 1.524 . S
C800 C801 1.415 . S
C801 H771 0.950 . S
C801 C796 1.381 . S
C801 C800 1.415 . S
H802 C799 0.999 . S
H803 C784 0.913 . S
H804 C822 0.951 . S
H805 C824 0.951 . S
H806 C826 0.950 1_565 S
H807 C827 0.950 . S
H808 C829 0.950 . S
H809 C832 0.950 . S
H810 C833 0.950 . S
H811 C835 0.950 . S
H812 C836 0.950 . S
H813 C837 0.951 . S
H814 C839 0.951 . S
H815 C841 0.950 . S
H816 C842 0.950 . S
H817 C844 0.950 . S
H818 C847 0.950 . S
H819 C848 0.950 . S
H820 C850 0.950 1_554 S
H821 C851 0.950 1_554 S
C822 H804 0.951 . S
C822 C823 1.366 . S
C822 C824 1.388 . S
C823 C822 1.366 . S
C823 C827 1.385 . S
C824 H805 0.951 . S
C824 C822 1.388 . S
C824 C825 1.366 1_545 S
C825 C824 1.366 1_565 S
C825 C826 1.414 1_565 S
C825 C828 1.499 . S
C826 H806 0.950 1_545 S
C826 C825 1.414 1_545 S
C826 C827 1.374 . S
C827 H807 0.950 . S
C827 C823 1.385 . S
C827 C826 1.374 . S
C828 C825 1.499 . S
C828 C829 1.373 . S
C828 C830 1.390 . S
C829 H808 0.950 . S
C829 C828 1.373 . S
C829 C845 1.377 1_554 S
C830 C828 1.390 . S
C830 C831 1.525 . S
C830 C844 1.376 1_554 S
C831 C830 1.525 . S
C831 C832 1.397 . S
C831 C836 1.363 1_554 S
C832 H809 0.950 . S
C832 C831 1.397 . S
C832 C833 1.334 . S
C833 H810 0.950 . S
C833 C832 1.334 . S
C833 C834 1.287 . S
C834 C833 1.287 . S
C834 C835 1.524 1_554 S
C834 H853 0.913 . S
C835 H811 0.950 . S
C835 C834 1.524 1_556 S
C835 C836 1.415 . S
C836 H812 0.950 . S
C836 C831 1.363 1_556 S
C836 C835 1.415 . S
C837 H813 0.951 . S
C837 C838 1.366 . S
C837 C839 1.388 . S
C838 C837 1.366 . S
C838 C842 1.385 . S
C839 H814 0.951 . S
C839 C837 1.388 . S
C839 C840 1.366 . S
C840 C839 1.366 . S
C840 C841 1.414 . S
C840 C843 1.499 . S
C841 H815 0.950 . S
C841 C840 1.414 . S
C841 C842 1.374 . S
C842 H816 0.950 . S
C842 C838 1.385 . S
C842 C841 1.374 . S
C843 C840 1.499 . S
C843 C844 1.373 . S
C843 C845 1.389 . S
C844 H817 0.950 . S
C844 C830 1.376 1_556 S
C844 C843 1.373 . S
C845 C829 1.377 1_556 S
C845 C843 1.389 . S
C845 C846 1.524 . S
C846 C845 1.524 . S
C846 C847 1.397 . S
C846 C851 1.363 . S
C847 H818 0.950 . S
C847 C846 1.397 . S
C847 C848 1.334 . S
C848 H819 0.950 . S
C848 C847 1.334 . S
C848 C849 1.287 . S
C849 C848 1.287 . S
C849 C850 1.524 . S
C849 H852 0.999 . S
C850 H820 0.950 1_556 S
C850 C849 1.524 . S
C850 C851 1.415 . S
C851 H821 0.950 1_556 S
C851 C846 1.363 . S
C851 C850 1.415 . S
H852 C849 0.999 . S
H853 C834 0.913 . S
H854 C872 0.951 . S
H855 C874 0.979 . S
H856 C876 0.950 1_556 S
H857 C877 0.950 . S
H858 C879 0.950 . S
H859 C882 0.948 . S
H860 C883 0.950 . S
H861 C885 0.950 . S
H862 C886 0.950 . S
H863 C887 0.951 . S
H864 C889 0.951 . S
H865 C891 0.950 . S
H866 C892 0.950 . S
H867 C894 0.950 . S
H868 C897 0.950 . S
H869 C898 0.950 . S
H870 C900 0.950 . S
H871 C901 0.950 . S
C872 H854 0.951 . S
C872 C873 1.366 . S
C872 C874 1.356 1_655 S
C873 C872 1.366 . S
C873 C877 1.385 . S
C874 H855 0.979 . S
C874 C872 1.356 1_455 S
C874 C875 1.368 . S
C875 C874 1.368 . S
C875 C876 1.400 1_455 S
C875 C878 1.517 . S
C876 H856 0.950 1_554 S
C876 C875 1.400 1_655 S
C876 C877 1.374 . S
C877 H857 0.950 . S
C877 C873 1.385 . S
C877 C876 1.374 . S
C878 C875 1.517 . S
C878 C879 1.373 1_554 S
C878 C880 1.389 . S
C879 H858 0.950 . S
C879 C878 1.373 1_556 S
C879 C895 1.377 . S
C880 C878 1.389 . S
C880 C881 1.524 . S
C880 C894 1.377 1_554 S
C881 C880 1.524 . S
C881 C882 1.404 1_455 S
C881 C886 1.363 . S
C882 H859 0.948 . S
C882 C881 1.404 1_655 S
C882 C883 1.328 . S
C883 H860 0.950 . S
C883 C882 1.328 . S
C883 C884 1.287 1_655 S
C884 C883 1.287 1_455 S
C884 C885 1.524 . S
C884 H903 0.913 1_455 S
C885 H861 0.950 . S
C885 C884 1.524 . S
C885 C886 1.415 . S
C886 H862 0.950 . S
C886 C881 1.363 . S
C886 C885 1.415 . S
C887 H863 0.951 . S
C887 C888 1.366 . S
C887 C889 1.388 . S
C888 C887 1.366 . S
C888 C892 1.385 . S
C889 H864 0.951 . S
C889 C887 1.388 . S
C889 C890 1.366 . S
C890 C889 1.366 . S
C890 C891 1.414 . S
C890 C893 1.499 . S
C891 H865 0.950 . S
C891 C890 1.414 . S
C891 C892 1.374 . S
C892 H866 0.950 . S
C892 C888 1.385 . S
C892 C891 1.374 . S
C893 C890 1.499 . S
C893 C894 1.373 . S
C893 C895 1.389 . S
C894 H867 0.950 . S
C894 C880 1.377 1_556 S
C894 C893 1.373 . S
C895 C879 1.377 . S
C895 C893 1.389 . S
C895 C896 1.524 . S
C896 C895 1.524 . S
C896 C897 1.397 . S
C896 C901 1.363 . S
C897 H868 0.950 . S
C897 C896 1.397 . S
C897 C898 1.334 . S
C898 H869 0.950 . S
C898 C897 1.334 . S
C898 C899 1.287 . S
C899 C898 1.287 . S
C899 C900 1.524 . S
C899 H902 0.999 . S
C900 H870 0.950 . S
C900 C899 1.524 . S
C900 C901 1.415 . S
C901 H871 0.950 . S
C901 C896 1.363 . S
C901 C900 1.415 . S
H902 C899 0.999 . S
H903 C884 0.913 1_655 S
H904 C922 0.951 . S
H905 C924 0.951 . S
H906 C926 0.950 . S
H907 C927 0.950 . S
H908 C929 0.950 . S
H909 C932 0.950 1_556 S
H910 C933 0.973 . S
H911 C935 0.950 . S
H912 C936 0.950 . S
H913 C937 0.951 . S
H914 C939 0.955 1_556 S
H915 C941 0.950 . S
H916 C942 0.950 . S
H917 C944 0.950 . S
H918 C947 0.950 1_554 S
H919 C948 0.950 . S
H920 C950 0.950 . S
H921 C951 0.950 . S
C922 H904 0.951 . S
C922 C923 1.366 . S
C922 C924 1.388 . S
C923 C922 1.366 . S
C923 C927 1.385 . S
C924 H905 0.951 . S
C924 C922 1.388 . S
C924 C925 1.366 . S
C925 C924 1.366 . S
C925 C926 1.414 . S
C925 C928 1.499 . S
C926 H906 0.950 . S
C926 C925 1.414 . S
C926 C927 1.374 . S
C927 H907 0.950 . S
C927 C923 1.385 . S
C927 C926 1.374 . S
C928 C925 1.499 . S
C928 C929 1.373 . S
C928 C930 1.389 1_556 S
C929 H908 0.950 . S
C929 C928 1.373 . S
C929 C945 1.377 . S
C930 C928 1.389 1_554 S
C930 C931 1.524 . S
C930 C944 1.377 . S
C931 C930 1.524 . S
C931 C932 1.397 . S
C931 C936 1.363 . S
C932 H909 0.950 1_554 S
C932 C931 1.397 . S
C932 C933 1.334 . S
C933 H910 0.973 . S
C933 C932 1.334 . S
C933 C934 1.287 . S
C934 C933 1.287 . S
C934 C935 1.524 . S
C934 H953 0.913 . S
C935 H911 0.950 . S
C935 C934 1.524 . S
C935 C936 1.415 . S
C936 H912 0.950 . S
C936 C931 1.363 . S
C936 C935 1.415 . S
C937 H913 0.951 . S
C937 C938 1.366 . S
C937 C939 1.388 . S
C938 C937 1.366 . S
C938 C942 1.385 . S
C939 H914 0.955 1_554 S
C939 C937 1.388 . S
C939 C940 1.366 . S
C940 C939 1.366 . S
C940 C941 1.414 . S
C940 C943 1.499 . S
C941 H915 0.950 . S
C941 C940 1.414 . S
C941 C942 1.374 . S
C942 H916 0.950 . S
C942 C938 1.385 . S
C942 C941 1.374 . S
C943 C940 1.499 . S
C943 C944 1.373 . S
C943 C945 1.389 1_554 S
C944 H917 0.950 . S
C944 C930 1.377 . S
C944 C943 1.373 . S
C945 C929 1.377 . S
C945 C943 1.389 1_556 S
C945 C946 1.524 . S
C946 C945 1.524 . S
C946 C947 1.397 . S
C946 C951 1.363 . S
C947 H918 0.950 1_556 S
C947 C946 1.397 . S
C947 C948 1.334 . S
C948 H919 0.950 . S
C948 C947 1.334 . S
C948 C949 1.287 . S
C949 C948 1.287 . S
C949 C950 1.524 . S
C949 H952 0.999 . S
C950 H920 0.950 . S
C950 C949 1.524 . S
C950 C951 1.415 . S
C951 H921 0.950 . S
C951 C946 1.363 . S
C951 C950 1.415 . S
H952 C949 0.999 . S
H953 C934 0.913 . S
H954 C972 0.951 . S
H955 C974 0.951 . S
H956 C976 0.950 . S
H957 C977 0.950 . S
H958 C979 0.950 . S
H959 C982 0.950 . S
H960 C983 0.950 . S
H961 C985 0.950 . S
H962 C986 0.950 . S
H963 C987 0.951 . S
H964 C989 0.951 . S
H965 C991 0.950 . S
H966 C992 0.950 . S
H967 C994 0.950 . S
H968 C997 0.950 . S
H969 C998 0.950 . S
H970 C1000 0.950 . S
H971 C1001 0.950 . S
C972 H954 0.951 . S
C972 C973 1.366 . S
C972 C974 1.388 . S
C973 C972 1.366 . S
C973 C977 1.385 . S
C974 H955 0.951 . S
C974 C972 1.388 . S
C974 C975 1.366 . S
C975 C974 1.366 . S
C975 C976 1.414 . S
C975 C978 1.499 . S
C976 H956 0.950 . S
C976 C975 1.414 . S
C976 C977 1.374 . S
C977 H957 0.950 . S
C977 C973 1.385 . S
C977 C976 1.374 . S
C978 C975 1.499 . S
C978 C979 1.373 . S
C978 C980 1.389 . S
C979 H958 0.950 . S
C979 C978 1.373 . S
C979 C995 1.377 . S
C980 C978 1.389 . S
C980 C981 1.524 . S
C980 C994 1.377 . S
C981 C980 1.524 . S
C981 C982 1.397 . S
C981 C986 1.363 . S
C982 H959 0.950 . S
C982 C981 1.397 . S
C982 C983 1.334 . S
C983 H960 0.950 . S
C983 C982 1.334 . S
C983 C984 1.287 . S
C984 C983 1.287 . S
C984 C985 1.524 . S
C984 H1003 0.913 . S
C985 H961 0.950 . S
C985 C984 1.524 . S
C985 C986 1.415 . S
C986 H962 0.950 . S
C986 C981 1.363 . S
C986 C985 1.415 . S
C987 H963 0.951 . S
C987 C988 1.366 . S
C987 C989 1.388 . S
C988 C987 1.366 . S
C988 C992 1.385 . S
C989 H964 0.951 . S
C989 C987 1.388 . S
C989 C990 1.366 1_455 S
C990 C989 1.366 1_655 S
C990 C991 1.414 1_655 S
C990 C993 1.499 . S
C991 H965 0.950 . S
C991 C990 1.414 1_455 S
C991 C992 1.374 . S
C992 H966 0.950 . S
C992 C988 1.385 . S
C992 C991 1.374 . S
C993 C990 1.499 . S
C993 C994 1.373 . S
C993 C995 1.389 . S
C994 H967 0.950 . S
C994 C980 1.377 . S
C994 C993 1.373 . S
C995 C979 1.377 . S
C995 C993 1.389 . S
C995 C996 1.524 . S
C996 C995 1.524 . S
C996 C997 1.397 . S
C996 C1001 1.363 . S
C997 H968 0.950 . S
C997 C996 1.397 . S
C997 C998 1.334 . S
C998 H969 0.950 . S
C998 C997 1.334 . S
C998 C999 1.287 . S
C999 C998 1.287 . S
C999 C1000 1.524 . S
C999 H1002 0.999 . S
C1000 H970 0.950 . S
C1000 C999 1.524 . S
C1000 C1001 1.415 . S
C1001 H971 0.950 . S
C1001 C996 1.363 . S
C1001 C1000 1.415 . S
H1002 C999 0.999 . S
H1003 C984 0.913 . S
H1004 C1022 0.951 . S
H1005 C1024 0.951 . S
H1006 C1026 0.950 . S
H1007 C1027 0.950 . S
H1008 C1029 0.950 . S
H1009 C1032 0.950 . S
H1010 C1033 0.950 . S
H1011 C1035 0.950 . S
H1012 C1036 0.950 . S
H1013 C1037 0.951 . S
H1014 C1039 0.951 . S
H1015 C1041 0.950 . S
H1016 C1042 0.950 . S
H1017 C1044 0.950 . S
H1018 C1047 0.950 . S
H1019 C1048 0.950 . S
H1020 C1050 0.950 . S
H1021 C1051 0.950 . S
C1022 H1004 0.951 . S
C1022 C1023 1.366 . S
C1022 C1024 1.388 . S
C1023 C1022 1.366 . S
C1023 C1027 1.385 . S
C1024 H1005 0.951 . S
C1024 C1022 1.388 . S
C1024 C1025 1.366 . S
C1025 C1024 1.366 . S
C1025 C1026 1.414 . S
C1025 C1028 1.499 . S
C1026 H1006 0.950 . S
C1026 C1025 1.414 . S
C1026 C1027 1.374 . S
C1027 H1007 0.950 . S
C1027 C1023 1.385 . S
C1027 C1026 1.374 . S
C1028 C1025 1.499 . S
C1028 C1029 1.373 . S
C1028 C1030 1.389 . S
C1029 H1008 0.950 . S
C1029 C1028 1.373 . S
C1029 C1045 1.377 . S
C1030 C1028 1.389 . S
C1030 C1031 1.524 . S
C1030 C1044 1.377 . S
C1031 C1030 1.524 . S
C1031 C1032 1.397 . S
C1031 C1036 1.363 . S
C1032 H1009 0.950 . S
C1032 C1031 1.397 . S
C1032 C1033 1.334 . S
C1033 H1010 0.950 . S
C1033 C1032 1.334 . S
C1033 C1034 1.287 . S
C1034 C1033 1.287 . S
C1034 C1035 1.524 . S
C1034 H1053 0.913 . S
C1035 H1011 0.950 . S
C1035 C1034 1.524 . S
C1035 C1036 1.415 . S
C1036 H1012 0.950 . S
C1036 C1031 1.363 . S
C1036 C1035 1.415 . S
C1037 H1013 0.951 . S
C1037 C1038 1.366 . S
C1037 C1039 1.388 . S
C1038 C1037 1.366 . S
C1038 C1042 1.385 . S
C1039 H1014 0.951 . S
C1039 C1037 1.388 . S
C1039 C1040 1.366 . S
C1040 C1039 1.366 . S
C1040 C1041 1.414 . S
C1040 C1043 1.499 . S
C1041 H1015 0.950 . S
C1041 C1040 1.414 . S
C1041 C1042 1.374 . S
C1042 H1016 0.950 . S
C1042 C1038 1.385 . S
C1042 C1041 1.374 . S
C1043 C1040 1.499 . S
C1043 C1044 1.373 . S
C1043 C1045 1.389 . S
C1044 H1017 0.950 . S
C1044 C1030 1.377 . S
C1044 C1043 1.373 . S
C1045 C1029 1.377 . S
C1045 C1043 1.389 . S
C1045 C1046 1.524 . S
C1046 C1045 1.524 . S
C1046 C1047 1.397 . S
C1046 C1051 1.363 . S
C1047 H1018 0.950 . S
C1047 C1046 1.397 . S
C1047 C1048 1.334 . S
C1048 H1019 0.950 . S
C1048 C1047 1.334 . S
C1048 C1049 1.287 . S
C1049 C1048 1.287 . S
C1049 C1050 1.524 . S
C1049 H1052 0.999 . S
C1050 H1020 0.950 . S
C1050 C1049 1.524 . S
C1050 C1051 1.415 . S
C1051 H1021 0.950 . S
C1051 C1046 1.363 . S
C1051 C1050 1.415 . S
H1052 C1049 0.999 . S
H1053 C1034 0.913 . S
H1054 C1072 0.951 . S
H1055 C1074 0.951 . S
H1056 C1076 0.950 . S
H1057 C1077 0.950 . S
H1058 C1079 0.950 . S
H1059 C1082 0.950 . S
H1060 C1083 0.950 . S
H1061 C1085 0.950 . S
H1062 C1086 0.950 . S
H1063 C1087 0.951 . S
H1064 C1089 0.951 1_545 S
H1065 C1091 0.950 . S
H1066 C1092 0.950 . S
H1067 C1094 0.950 . S
H1068 C1097 0.950 . S
H1069 C1098 0.950 . S
H1070 C1100 0.950 . S
H1071 C1101 0.950 . S
C1072 H1054 0.951 . S
C1072 C1073 1.366 . S
C1072 C1074 1.388 . S
C1073 C1072 1.366 . S
C1073 C1077 1.385 . S
C1074 H1055 0.951 . S
C1074 C1072 1.388 . S
C1074 C1075 1.366 . S
C1075 C1074 1.366 . S
C1075 C1076 1.414 . S
C1075 C1078 1.499 . S
C1076 H1056 0.950 . S
C1076 C1075 1.414 . S
C1076 C1077 1.374 . S
C1077 H1057 0.950 . S
C1077 C1073 1.385 . S
C1077 C1076 1.374 . S
C1078 C1075 1.499 . S
C1078 C1079 1.373 . S
C1078 C1080 1.389 . S
C1079 H1058 0.950 . S
C1079 C1078 1.373 . S
C1079 C1095 1.377 . S
C1080 C1078 1.389 . S
C1080 C1081 1.524 . S
C1080 C1094 1.377 . S
C1081 C1080 1.524 . S
C1081 C1082 1.397 . S
C1081 C1086 1.363 . S
C1082 H1059 0.950 . S
C1082 C1081 1.397 . S
C1082 C1083 1.334 . S
C1083 H1060 0.950 . S
C1083 C1082 1.334 . S
C1083 C1084 1.287 . S
C1084 C1083 1.287 . S
C1084 C1085 1.524 . S
C1084 H1103 0.913 . S
C1085 H1061 0.950 . S
C1085 C1084 1.524 . S
C1085 C1086 1.415 . S
C1086 H1062 0.950 . S
C1086 C1081 1.363 . S
C1086 C1085 1.415 . S
C1087 H1063 0.951 . S
C1087 C1088 1.366 . S
C1087 C1089 1.388 . S
C1088 C1087 1.366 . S
C1088 C1092 1.385 . S
C1089 H1064 0.951 1_565 S
C1089 C1087 1.388 . S
C1089 C1090 1.366 1_565 S
C1090 C1089 1.366 1_545 S
C1090 C1091 1.414 1_545 S
C1090 C1093 1.499 . S
C1091 H1065 0.950 . S
C1091 C1090 1.414 1_565 S
C1091 C1092 1.374 . S
C1092 H1066 0.950 . S
C1092 C1088 1.385 . S
C1092 C1091 1.374 . S
C1093 C1090 1.499 . S
C1093 C1094 1.373 . S
C1093 C1095 1.389 . S
C1094 H1067 0.950 . S
C1094 C1080 1.377 . S
C1094 C1093 1.373 . S
C1095 C1079 1.377 . S
C1095 C1093 1.389 . S
C1095 C1096 1.524 . S
C1096 C1095 1.524 . S
C1096 C1097 1.397 . S
C1096 C1101 1.363 . S
C1097 H1068 0.950 . S
C1097 C1096 1.397 . S
C1097 C1098 1.334 . S
C1098 H1069 0.950 . S
C1098 C1097 1.334 . S
C1098 C1099 1.287 . S
C1099 C1098 1.287 . S
C1099 C1100 1.524 . S
C1099 H1102 0.999 . S
C1100 H1070 0.950 . S
C1100 C1099 1.524 . S
C1100 C1101 1.415 . S
C1101 H1071 0.950 . S
C1101 C1096 1.363 . S
C1101 C1100 1.415 . S
H1102 C1099 0.999 . S
H1103 C1084 0.913 . S
H1104 C1122 0.951 . S
H1105 C1124 0.951 . S
H1106 C1126 0.950 . S
H1107 C1127 0.950 . S
H1108 C1129 0.950 . S
H1109 C1132 0.950 . S
H1110 C1133 0.950 . S
H1111 C1135 0.950 . S
H1112 C1136 0.950 . S
H1113 C1137 0.951 . S
H1114 C1139 0.951 . S
H1115 C1141 0.950 . S
H1116 C1142 0.950 . S
H1117 C1144 0.950 . S
H1118 C1147 0.950 . S
H1119 C1148 0.950 . S
H1120 C1150 0.950 . S
H1121 C1151 0.950 . S
C1122 H1104 0.951 . S
C1122 C1123 1.366 . S
C1122 C1124 1.388 . S
C1123 C1122 1.366 . S
C1123 C1127 1.385 . S
C1124 H1105 0.951 . S
C1124 C1122 1.388 . S
C1124 C1125 1.366 . S
C1125 C1124 1.366 . S
C1125 C1126 1.414 . S
C1125 C1128 1.499 . S
C1126 H1106 0.950 . S
C1126 C1125 1.414 . S
C1126 C1127 1.374 . S
C1127 H1107 0.950 . S
C1127 C1123 1.385 . S
C1127 C1126 1.374 . S
C1128 C1125 1.499 . S
C1128 C1129 1.373 . S
C1128 C1130 1.389 . S
C1129 H1108 0.950 . S
C1129 C1128 1.373 . S
C1129 C1145 1.377 . S
C1130 C1128 1.389 . S
C1130 C1131 1.524 . S
C1130 C1144 1.377 . S
C1131 C1130 1.524 . S
C1131 C1132 1.397 . S
C1131 C1136 1.363 . S
C1132 H1109 0.950 . S
C1132 C1131 1.397 . S
C1132 C1133 1.334 . S
C1133 H1110 0.950 . S
C1133 C1132 1.334 . S
C1133 C1134 1.287 . S
C1134 C1133 1.287 . S
C1134 C1135 1.524 . S
C1134 H1153 0.913 . S
C1135 H1111 0.950 . S
C1135 C1134 1.524 . S
C1135 C1136 1.415 . S
C1136 H1112 0.950 . S
C1136 C1131 1.363 . S
C1136 C1135 1.415 . S
C1137 H1113 0.951 . S
C1137 C1138 1.366 . S
C1137 C1139 1.388 . S
C1138 C1137 1.366 . S
C1138 C1142 1.385 . S
C1139 H1114 0.951 . S
C1139 C1137 1.388 . S
C1139 C1140 1.366 . S
C1140 C1139 1.366 . S
C1140 C1141 1.414 . S
C1140 C1143 1.499 . S
C1141 H1115 0.950 . S
C1141 C1140 1.414 . S
C1141 C1142 1.374 . S
C1142 H1116 0.950 . S
C1142 C1138 1.385 . S
C1142 C1141 1.374 . S
C1143 C1140 1.499 . S
C1143 C1144 1.373 . S
C1143 C1145 1.389 . S
C1144 H1117 0.950 . S
C1144 C1130 1.377 . S
C1144 C1143 1.373 . S
C1145 C1129 1.377 . S
C1145 C1143 1.389 . S
C1145 C1146 1.524 . S
C1146 C1145 1.524 . S
C1146 C1147 1.397 . S
C1146 C1151 1.363 . S
C1147 H1118 0.950 . S
C1147 C1146 1.397 . S
C1147 C1148 1.334 . S
C1148 H1119 0.950 . S
C1148 C1147 1.334 . S
C1148 C1149 1.287 . S
C1149 C1148 1.287 . S
C1149 C1150 1.524 . S
C1149 H1152 0.999 . S
C1150 H1120 0.950 . S
C1150 C1149 1.524 . S
C1150 C1151 1.415 . S
C1151 H1121 0.950 . S
C1151 C1146 1.363 . S
C1151 C1150 1.415 . S
H1152 C1149 0.999 . S
H1153 C1134 0.913 . S
H1154 C1172 0.951 . S
H1155 C1174 0.951 . S
H1156 C1176 0.950 . S
H1157 C1177 0.950 . S
H1158 C1179 0.950 . S
H1159 C1182 0.950 . S
H1160 C1183 0.950 . S
H1161 C1185 0.950 . S
H1162 C1186 0.950 . S
H1163 C1187 0.951 . S
H1164 C1189 0.951 . S
H1165 C1191 0.950 . S
H1166 C1192 0.950 . S
H1167 C1194 0.950 . S
H1168 C1197 0.950 . S
H1169 C1198 0.950 . S
H1170 C1200 0.950 . S
H1171 C1201 0.950 . S
C1172 H1154 0.951 . S
C1172 C1173 1.366 . S
C1172 C1174 1.388 . S
C1173 C1172 1.366 . S
C1173 C1177 1.385 . S
C1174 H1155 0.951 . S
C1174 C1172 1.388 . S
C1174 C1175 1.366 . S
C1175 C1174 1.366 . S
C1175 C1176 1.414 . S
C1175 C1178 1.499 . S
C1176 H1156 0.950 . S
C1176 C1175 1.414 . S
C1176 C1177 1.374 . S
C1177 H1157 0.950 . S
C1177 C1173 1.385 . S
C1177 C1176 1.374 . S
C1178 C1175 1.499 . S
C1178 C1179 1.373 . S
C1178 C1180 1.389 . S
C1179 H1158 0.950 . S
C1179 C1178 1.373 . S
C1179 C1195 1.377 . S
C1180 C1178 1.389 . S
C1180 C1181 1.524 . S
C1180 C1194 1.377 . S
C1181 C1180 1.524 . S
C1181 C1182 1.397 . S
C1181 C1186 1.363 . S
C1182 H1159 0.950 . S
C1182 C1181 1.397 . S
C1182 C1183 1.334 . S
C1183 H1160 0.950 . S
C1183 C1182 1.334 . S
C1183 C1184 1.287 . S
C1184 C1183 1.287 . S
C1184 C1185 1.524 . S
C1184 H1203 0.913 . S
C1185 H1161 0.950 . S
C1185 C1184 1.524 . S
C1185 C1186 1.415 . S
C1186 H1162 0.950 . S
C1186 C1181 1.363 . S
C1186 C1185 1.415 . S
C1187 H1163 0.951 . S
C1187 C1188 1.366 . S
C1187 C1189 1.388 . S
C1188 C1187 1.366 . S
C1188 C1192 1.385 . S
C1189 H1164 0.951 . S
C1189 C1187 1.388 . S
C1189 C1190 1.366 . S
C1190 C1189 1.366 . S
C1190 C1191 1.414 . S
C1190 C1193 1.499 . S
C1191 H1165 0.950 . S
C1191 C1190 1.414 . S
C1191 C1192 1.374 . S
C1192 H1166 0.950 . S
C1192 C1188 1.385 . S
C1192 C1191 1.374 . S
C1193 C1190 1.499 . S
C1193 C1194 1.373 . S
C1193 C1195 1.389 . S
C1194 H1167 0.950 . S
C1194 C1180 1.377 . S
C1194 C1193 1.373 . S
C1195 C1179 1.377 . S
C1195 C1193 1.389 . S
C1195 C1196 1.524 . S
C1196 C1195 1.524 . S
C1196 C1197 1.397 . S
C1196 C1201 1.363 . S
C1197 H1168 0.950 . S
C1197 C1196 1.397 . S
C1197 C1198 1.334 . S
C1198 H1169 0.950 . S
C1198 C1197 1.334 . S
C1198 C1199 1.287 . S
C1199 C1198 1.287 . S
C1199 C1200 1.524 . S
C1199 H1202 0.999 . S
C1200 H1170 0.950 . S
C1200 C1199 1.524 . S
C1200 C1201 1.415 . S
C1201 H1171 0.950 . S
C1201 C1196 1.363 . S
C1201 C1200 1.415 . S
H1202 C1199 0.999 . S
H1203 C1184 0.913 . S
H1204 C1222 0.951 . S
H1205 C1224 0.951 . S
H1206 C1226 0.950 . S
H1207 C1227 0.950 . S
H1208 C1229 0.950 . S
H1209 C1232 0.950 . S
H1210 C1233 0.950 . S
H1211 C1235 0.950 . S
H1212 C1236 0.950 . S
H1213 C1237 0.951 . S
H1214 C1239 0.951 . S
H1215 C1241 0.950 . S
H1216 C1242 0.950 . S
H1217 C1244 0.950 . S
H1218 C1247 0.950 . S
H1219 C1248 0.950 . S
H1220 C1250 0.950 . S
H1221 C1251 0.950 . S
C1222 H1204 0.951 . S
C1222 C1223 1.366 . S
C1222 C1224 1.388 . S
C1223 C1222 1.366 . S
C1223 C1227 1.385 . S
C1224 H1205 0.951 . S
C1224 C1222 1.388 . S
C1224 C1225 1.366 . S
C1225 C1224 1.366 . S
C1225 C1226 1.414 . S
C1225 C1228 1.499 . S
C1226 H1206 0.950 . S
C1226 C1225 1.414 . S
C1226 C1227 1.374 . S
C1227 H1207 0.950 . S
C1227 C1223 1.385 . S
C1227 C1226 1.374 . S
C1228 C1225 1.499 . S
C1228 C1229 1.373 . S
C1228 C1230 1.389 . S
C1229 H1208 0.950 . S
C1229 C1228 1.373 . S
C1229 C1245 1.377 . S
C1230 C1228 1.389 . S
C1230 C1231 1.524 . S
C1230 C1244 1.377 . S
C1231 C1230 1.524 . S
C1231 C1232 1.397 . S
C1231 C1236 1.363 . S
C1232 H1209 0.950 . S
C1232 C1231 1.397 . S
C1232 C1233 1.334 . S
C1233 H1210 0.950 . S
C1233 C1232 1.334 . S
C1233 C1234 1.287 . S
C1234 C1233 1.287 . S
C1234 C1235 1.524 . S
C1234 H1253 0.913 . S
C1235 H1211 0.950 . S
C1235 C1234 1.524 . S
C1235 C1236 1.415 . S
C1236 H1212 0.950 . S
C1236 C1231 1.363 . S
C1236 C1235 1.415 . S
C1237 H1213 0.951 . S
C1237 C1238 1.366 . S
C1237 C1239 1.388 . S
C1238 C1237 1.366 . S
C1238 C1242 1.385 . S
C1239 H1214 0.951 . S
C1239 C1237 1.388 . S
C1239 C1240 1.366 . S
C1240 C1239 1.366 . S
C1240 C1241 1.414 . S
C1240 C1243 1.499 . S
C1241 H1215 0.950 . S
C1241 C1240 1.414 . S
C1241 C1242 1.374 . S
C1242 H1216 0.950 . S
C1242 C1238 1.385 . S
C1242 C1241 1.374 . S
C1243 C1240 1.499 . S
C1243 C1244 1.373 . S
C1243 C1245 1.389 . S
C1244 H1217 0.950 . S
C1244 C1230 1.377 . S
C1244 C1243 1.373 . S
C1245 C1229 1.377 . S
C1245 C1243 1.389 . S
C1245 C1246 1.524 . S
C1246 C1245 1.524 . S
C1246 C1247 1.397 . S
C1246 C1251 1.363 . S
C1247 H1218 0.950 . S
C1247 C1246 1.397 . S
C1247 C1248 1.334 . S
C1248 H1219 0.950 . S
C1248 C1247 1.334 . S
C1248 C1249 1.287 . S
C1249 C1248 1.287 . S
C1249 C1250 1.524 . S
C1249 H1252 0.999 . S
C1250 H1220 0.950 . S
C1250 C1249 1.524 . S
C1250 C1251 1.415 . S
C1251 H1221 0.950 . S
C1251 C1246 1.363 . S
C1251 C1250 1.415 . S
H1252 C1249 0.999 . S
H1253 C1234 0.913 . S
H1254 C1272 0.951 . S
H1255 C1274 0.951 . S
H1256 C1276 0.950 . S
H1257 C1277 0.950 . S
H1258 C1279 0.950 . S
H1259 C1282 0.950 . S
H1260 C1283 0.950 . S
H1261 C1285 0.950 . S
H1262 C1286 0.950 . S
H1263 C1287 0.951 . S
H1264 C1289 0.951 . S
H1265 C1291 0.950 . S
H1266 C1292 0.950 . S
H1267 C1294 0.950 . S
H1268 C1297 0.950 . S
H1269 C1298 0.950 . S
H1270 C1300 0.950 . S
H1271 C1301 0.950 . S
C1272 H1254 0.951 . S
C1272 C1273 1.366 . S
C1272 C1274 1.388 . S
C1273 C1272 1.366 . S
C1273 C1277 1.385 . S
C1274 H1255 0.951 . S
C1274 C1272 1.388 . S
C1274 C1275 1.366 . S
C1275 C1274 1.366 . S
C1275 C1276 1.414 . S
C1275 C1278 1.499 . S
C1276 H1256 0.950 . S
C1276 C1275 1.414 . S
C1276 C1277 1.374 . S
C1277 H1257 0.950 . S
C1277 C1273 1.385 . S
C1277 C1276 1.374 . S
C1278 C1275 1.499 . S
C1278 C1279 1.373 . S
C1278 C1280 1.389 . S
C1279 H1258 0.950 . S
C1279 C1278 1.373 . S
C1279 C1295 1.377 . S
C1280 C1278 1.389 . S
C1280 C1281 1.524 . S
C1280 C1294 1.377 . S
C1281 C1280 1.524 . S
C1281 C1282 1.397 . S
C1281 C1286 1.363 . S
C1282 H1259 0.950 . S
C1282 C1281 1.397 . S
C1282 C1283 1.334 . S
C1283 H1260 0.950 . S
C1283 C1282 1.334 . S
C1283 C1284 1.287 . S
C1284 C1283 1.287 . S
C1284 C1285 1.524 . S
C1284 H1303 0.913 . S
C1285 H1261 0.950 . S
C1285 C1284 1.524 . S
C1285 C1286 1.415 . S
C1286 H1262 0.950 . S
C1286 C1281 1.363 . S
C1286 C1285 1.415 . S
C1287 H1263 0.951 . S
C1287 C1288 1.366 . S
C1287 C1289 1.388 . S
C1288 C1287 1.366 . S
C1288 C1292 1.385 . S
C1289 H1264 0.951 . S
C1289 C1287 1.388 . S
C1289 C1290 1.366 . S
C1290 C1289 1.366 . S
C1290 C1291 1.414 . S
C1290 C1293 1.499 . S
C1291 H1265 0.950 . S
C1291 C1290 1.414 . S
C1291 C1292 1.374 . S
C1292 H1266 0.950 . S
C1292 C1288 1.385 . S
C1292 C1291 1.374 . S
C1293 C1290 1.499 . S
C1293 C1294 1.373 . S
C1293 C1295 1.389 . S
C1294 H1267 0.950 . S
C1294 C1280 1.377 . S
C1294 C1293 1.373 . S
C1295 C1279 1.377 . S
C1295 C1293 1.389 . S
C1295 C1296 1.524 . S
C1296 C1295 1.524 . S
C1296 C1297 1.397 . S
C1296 C1301 1.363 . S
C1297 H1268 0.950 . S
C1297 C1296 1.397 . S
C1297 C1298 1.334 . S
C1298 H1269 0.950 . S
C1298 C1297 1.334 . S
C1298 C1299 1.287 . S
C1299 C1298 1.287 . S
C1299 C1300 1.524 . S
C1299 H1302 0.999 . S
C1300 H1270 0.950 . S
C1300 C1299 1.524 . S
C1300 C1301 1.415 . S
C1301 H1271 0.950 . S
C1301 C1296 1.363 . S
C1301 C1300 1.415 . S
H1302 C1299 0.999 . S
H1303 C1284 0.913 . S
H1304 C1322 0.951 . S
H1305 C1324 0.951 . S
H1306 C1326 0.950 . S
H1307 C1327 0.950 . S
H1308 C1329 0.950 . S
H1309 C1332 0.950 . S
H1310 C1333 0.950 . S
H1311 C1335 0.950 . S
H1312 C1336 0.950 . S
H1313 C1337 0.951 . S
H1314 C1339 0.951 . S
H1315 C1341 0.950 . S
H1316 C1342 0.950 . S
H1317 C1344 0.950 . S
H1318 C1347 0.950 . S
H1319 C1348 0.950 . S
H1320 C1350 0.950 . S
H1321 C1351 0.950 . S
C1322 H1304 0.951 . S
C1322 C1323 1.366 . S
C1322 C1324 1.388 . S
C1323 C1322 1.366 . S
C1323 C1327 1.385 . S
C1324 H1305 0.951 . S
C1324 C1322 1.388 . S
C1324 C1325 1.366 . S
C1325 C1324 1.366 . S
C1325 C1326 1.414 . S
C1325 C1328 1.499 . S
C1326 H1306 0.950 . S
C1326 C1325 1.414 . S
C1326 C1327 1.374 . S
C1327 H1307 0.950 . S
C1327 C1323 1.385 . S
C1327 C1326 1.374 . S
C1328 C1325 1.499 . S
C1328 C1329 1.373 . S
C1328 C1330 1.389 . S
C1329 H1308 0.950 . S
C1329 C1328 1.373 . S
C1329 C1345 1.377 . S
C1330 C1328 1.389 . S
C1330 C1331 1.524 . S
C1330 C1344 1.377 . S
C1331 C1330 1.524 . S
C1331 C1332 1.397 . S
C1331 C1336 1.363 . S
C1332 H1309 0.950 . S
C1332 C1331 1.397 . S
C1332 C1333 1.334 . S
C1333 H1310 0.950 . S
C1333 C1332 1.334 . S
C1333 C1334 1.287 . S
C1334 C1333 1.287 . S
C1334 C1335 1.524 . S
C1334 H1353 0.913 . S
C1335 H1311 0.950 . S
C1335 C1334 1.524 . S
C1335 C1336 1.415 . S
C1336 H1312 0.950 . S
C1336 C1331 1.363 . S
C1336 C1335 1.415 . S
C1337 H1313 0.951 . S
C1337 C1338 1.366 . S
C1337 C1339 1.388 . S
C1338 C1337 1.366 . S
C1338 C1342 1.385 . S
C1339 H1314 0.951 . S
C1339 C1337 1.388 . S
C1339 C1340 1.366 . S
C1340 C1339 1.366 . S
C1340 C1341 1.414 . S
C1340 C1343 1.499 . S
C1341 H1315 0.950 . S
C1341 C1340 1.414 . S
C1341 C1342 1.374 . S
C1342 H1316 0.950 . S
C1342 C1338 1.385 . S
C1342 C1341 1.374 . S
C1343 C1340 1.499 . S
C1343 C1344 1.373 . S
C1343 C1345 1.389 . S
C1344 H1317 0.950 . S
C1344 C1330 1.377 . S
C1344 C1343 1.373 . S
C1345 C1329 1.377 . S
C1345 C1343 1.389 . S
C1345 C1346 1.524 . S
C1346 C1345 1.524 . S
C1346 C1347 1.397 . S
C1346 C1351 1.363 . S
C1347 H1318 0.950 . S
C1347 C1346 1.397 . S
C1347 C1348 1.334 . S
C1348 H1319 0.950 . S
C1348 C1347 1.334 . S
C1348 C1349 1.287 . S
C1349 C1348 1.287 . S
C1349 C1350 1.524 . S
C1349 H1352 0.999 . S
C1350 H1320 0.950 . S
C1350 C1349 1.524 . S
C1350 C1351 1.415 . S
C1351 H1321 0.950 . S
C1351 C1346 1.363 . S
C1351 C1350 1.415 . S
H1352 C1349 0.999 . S
H1353 C1334 0.913 . S
H1354 C1372 0.951 . S
H1355 C1374 0.951 . S
H1356 C1376 0.950 . S
H1357 C1377 0.950 . S
H1358 C1379 0.950 . S
H1359 C1382 0.950 . S
H1360 C1383 0.950 . S
H1361 C1385 0.950 . S
H1362 C1386 0.950 . S
H1363 C1387 0.951 . S
H1364 C1389 0.951 . S
H1365 C1391 0.950 . S
H1366 C1392 0.950 . S
H1367 C1394 0.950 . S
H1368 C1397 0.950 . S
H1369 C1398 0.950 . S
H1370 C1400 0.950 . S
H1371 C1401 0.950 . S
C1372 H1354 0.951 . S
C1372 C1373 1.366 . S
C1372 C1374 1.388 . S
C1373 C1372 1.366 . S
C1373 C1377 1.385 . S
C1374 H1355 0.951 . S
C1374 C1372 1.388 . S
C1374 C1375 1.366 . S
C1375 C1374 1.366 . S
C1375 C1376 1.414 . S
C1375 C1378 1.499 . S
C1376 H1356 0.950 . S
C1376 C1375 1.414 . S
C1376 C1377 1.374 . S
C1377 H1357 0.950 . S
C1377 C1373 1.385 . S
C1377 C1376 1.374 . S
C1378 C1375 1.499 . S
C1378 C1379 1.373 . S
C1378 C1380 1.389 . S
C1379 H1358 0.950 . S
C1379 C1378 1.373 . S
C1379 C1395 1.377 . S
C1380 C1378 1.389 . S
C1380 C1381 1.524 . S
C1380 C1394 1.377 . S
C1381 C1380 1.524 . S
C1381 C1382 1.397 . S
C1381 C1386 1.363 . S
C1382 H1359 0.950 . S
C1382 C1381 1.397 . S
C1382 C1383 1.334 . S
C1383 H1360 0.950 . S
C1383 C1382 1.334 . S
C1383 C1384 1.287 . S
C1384 C1383 1.287 . S
C1384 C1385 1.524 . S
C1384 H1403 0.913 . S
C1385 H1361 0.950 . S
C1385 C1384 1.524 . S
C1385 C1386 1.415 . S
C1386 H1362 0.950 . S
C1386 C1381 1.363 . S
C1386 C1385 1.415 . S
C1387 H1363 0.951 . S
C1387 C1388 1.366 . S
C1387 C1389 1.388 . S
C1388 C1387 1.366 . S
C1388 C1392 1.385 . S
C1389 H1364 0.951 . S
C1389 C1387 1.388 . S
C1389 C1390 1.366 . S
C1390 C1389 1.366 . S
C1390 C1391 1.414 . S
C1390 C1393 1.499 . S
C1391 H1365 0.950 . S
C1391 C1390 1.414 . S
C1391 C1392 1.374 . S
C1392 H1366 0.950 . S
C1392 C1388 1.385 . S
C1392 C1391 1.374 . S
C1393 C1390 1.499 . S
C1393 C1394 1.373 . S
C1393 C1395 1.389 . S
C1394 H1367 0.950 . S
C1394 C1380 1.377 . S
C1394 C1393 1.373 . S
C1395 C1379 1.377 . S
C1395 C1393 1.389 . S
C1395 C1396 1.524 . S
C1396 C1395 1.524 . S
C1396 C1397 1.397 . S
C1396 C1401 1.363 . S
C1397 H1368 0.950 . S
C1397 C1396 1.397 . S
C1397 C1398 1.334 . S
C1398 H1369 0.950 . S
C1398 C1397 1.334 . S
C1398 C1399 1.287 . S
C1399 C1398 1.287 . S
C1399 C1400 1.524 . S
C1399 H1402 0.999 . S
C1400 H1370 0.950 . S
C1400 C1399 1.524 . S
C1400 C1401 1.415 . S
C1401 H1371 0.950 . S
C1401 C1396 1.363 . S
C1401 C1400 1.415 . S
H1402 C1399 0.999 . S
H1403 C1384 0.913 . S
H1404 C1422 0.951 . S
H1405 C1424 0.951 . S
H1406 C1426 0.950 . S
H1407 C1427 0.950 . S
H1408 C1429 0.950 . S
H1409 C1432 0.950 . S
H1410 C1433 0.950 . S
H1411 C1435 0.950 . S
H1412 C1436 0.950 . S
H1413 C1437 0.951 . S
H1414 C1439 0.951 . S
H1415 C1441 0.950 . S
H1416 C1442 0.950 . S
H1417 C1444 0.950 . S
H1418 C1447 0.950 . S
H1419 C1448 0.950 . S
H1420 C1450 0.950 . S
H1421 C1451 0.950 . S
C1422 H1404 0.951 . S
C1422 C1423 1.366 . S
C1422 C1424 1.388 . S
C1423 C1422 1.366 . S
C1423 C1427 1.385 . S
C1424 H1405 0.951 . S
C1424 C1422 1.388 . S
C1424 C1425 1.366 . S
C1425 C1424 1.366 . S
C1425 C1426 1.414 . S
C1425 C1428 1.499 . S
C1426 H1406 0.950 . S
C1426 C1425 1.414 . S
C1426 C1427 1.374 . S
C1427 H1407 0.950 . S
C1427 C1423 1.385 . S
C1427 C1426 1.374 . S
C1428 C1425 1.499 . S
C1428 C1429 1.373 . S
C1428 C1430 1.389 . S
C1429 H1408 0.950 . S
C1429 C1428 1.373 . S
C1429 C1445 1.377 . S
C1430 C1428 1.389 . S
C1430 C1431 1.524 . S
C1430 C1444 1.377 . S
C1431 C1430 1.524 . S
C1431 C1432 1.397 . S
C1431 C1436 1.363 . S
C1432 H1409 0.950 . S
C1432 C1431 1.397 . S
C1432 C1433 1.334 . S
C1433 H1410 0.950 . S
C1433 C1432 1.334 . S
C1433 C1434 1.287 . S
C1434 C1433 1.287 . S
C1434 C1435 1.524 . S
C1434 H1453 0.913 . S
C1435 H1411 0.950 . S
C1435 C1434 1.524 . S
C1435 C1436 1.415 . S
C1436 H1412 0.950 . S
C1436 C1431 1.363 . S
C1436 C1435 1.415 . S
C1437 H1413 0.951 . S
C1437 C1438 1.366 . S
C1437 C1439 1.388 . S
C1438 C1437 1.366 . S
C1438 C1442 1.385 . S
C1439 H1414 0.951 . S
C1439 C1437 1.388 . S
C1439 C1440 1.366 . S
C1440 C1439 1.366 . S
C1440 C1441 1.414 . S
C1440 C1443 1.499 . S
C1441 H1415 0.950 . S
C1441 C1440 1.414 . S
C1441 C1442 1.374 . S
C1442 H1416 0.950 . S
C1442 C1438 1.385 . S
C1442 C1441 1.374 . S
C1443 C1440 1.499 . S
C1443 C1444 1.373 . S
C1443 C1445 1.389 . S
C1444 H1417 0.950 . S
C1444 C1430 1.377 . S
C1444 C1443 1.373 . S
C1445 C1429 1.377 . S
C1445 C1443 1.389 . S
C1445 C1446 1.524 . S
C1446 C1445 1.524 . S
C1446 C1447 1.397 . S
C1446 C1451 1.363 . S
C1447 H1418 0.950 . S
C1447 C1446 1.397 . S
C1447 C1448 1.334 . S
C1448 H1419 0.950 . S
C1448 C1447 1.334 . S
C1448 C1449 1.287 . S
C1449 C1448 1.287 . S
C1449 C1450 1.524 . S
C1449 H1452 0.999 . S
C1450 H1420 0.950 . S
C1450 C1449 1.524 . S
C1450 C1451 1.415 . S
C1451 H1421 0.950 . S
C1451 C1446 1.363 . S
C1451 C1450 1.415 . S
H1452 C1449 0.999 . S
H1453 C1434 0.913 . S
H1454 C1472 0.951 . S
H1455 C1474 0.951 . S
H1456 C1476 0.950 . S
H1457 C1477 0.950 . S
H1458 C1479 0.950 . S
H1459 C1482 0.950 . S
H1460 C1483 0.950 . S
H1461 C1485 0.950 . S
H1462 C1486 0.950 . S
H1463 C1487 0.951 . S
H1464 C1489 0.951 . S
H1465 C1491 0.950 . S
H1466 C1492 0.950 . S
H1467 C1494 0.950 . S
H1468 C1497 0.950 . S
H1469 C1498 0.950 . S
H1470 C1500 0.950 . S
H1471 C1501 0.950 . S
C1472 H1454 0.951 . S
C1472 C1473 1.366 . S
C1472 C1474 1.388 . S
C1473 C1472 1.366 . S
C1473 C1477 1.385 . S
C1474 H1455 0.951 . S
C1474 C1472 1.388 . S
C1474 C1475 1.366 . S
C1475 C1474 1.366 . S
C1475 C1476 1.414 . S
C1475 C1478 1.499 . S
C1476 H1456 0.950 . S
C1476 C1475 1.414 . S
C1476 C1477 1.374 . S
C1477 H1457 0.950 . S
C1477 C1473 1.385 . S
C1477 C1476 1.374 . S
C1478 C1475 1.499 . S
C1478 C1479 1.373 . S
C1478 C1480 1.389 . S
C1479 H1458 0.950 . S
C1479 C1478 1.373 . S
C1479 C1495 1.377 . S
C1480 C1478 1.389 . S
C1480 C1481 1.524 . S
C1480 C1494 1.377 . S
C1481 C1480 1.524 . S
C1481 C1482 1.397 . S
C1481 C1486 1.363 . S
C1482 H1459 0.950 . S
C1482 C1481 1.397 . S
C1482 C1483 1.334 . S
C1483 H1460 0.950 . S
C1483 C1482 1.334 . S
C1483 C1484 1.287 . S
C1484 C1483 1.287 . S
C1484 C1485 1.524 . S
C1484 H1503 0.913 . S
C1485 H1461 0.950 . S
C1485 C1484 1.524 . S
C1485 C1486 1.415 . S
C1486 H1462 0.950 . S
C1486 C1481 1.363 . S
C1486 C1485 1.415 . S
C1487 H1463 0.951 . S
C1487 C1488 1.366 . S
C1487 C1489 1.388 . S
C1488 C1487 1.366 . S
C1488 C1492 1.385 . S
C1489 H1464 0.951 . S
C1489 C1487 1.388 . S
C1489 C1490 1.366 . S
C1490 C1489 1.366 . S
C1490 C1491 1.414 . S
C1490 C1493 1.499 . S
C1491 H1465 0.950 . S
C1491 C1490 1.414 . S
C1491 C1492 1.374 . S
C1492 H1466 0.950 . S
C1492 C1488 1.385 . S
C1492 C1491 1.374 . S
C1493 C1490 1.499 . S
C1493 C1494 1.373 . S
C1493 C1495 1.389 . S
C1494 H1467 0.950 . S
C1494 C1480 1.377 . S
C1494 C1493 1.373 . S
C1495 C1479 1.377 . S
C1495 C1493 1.389 . S
C1495 C1496 1.524 . S
C1496 C1495 1.524 . S
C1496 C1497 1.397 . S
C1496 C1501 1.363 . S
C1497 H1468 0.950 . S
C1497 C1496 1.397 . S
C1497 C1498 1.334 . S
C1498 H1469 0.950 . S
C1498 C1497 1.334 . S
C1498 C1499 1.287 . S
C1499 C1498 1.287 . S
C1499 C1500 1.524 . S
C1499 H1502 0.999 . S
C1500 H1470 0.950 . S
C1500 C1499 1.524 . S
C1500 C1501 1.415 . S
C1501 H1471 0.950 . S
C1501 C1496 1.363 . S
C1501 C1500 1.415 . S
H1502 C1499 0.999 . S
H1503 C1484 0.913 . S
H1504 C1522 0.951 . S
H1505 C1524 0.951 . S
H1506 C1526 0.950 . S
H1507 C1527 0.950 . S
H1508 C1529 0.950 . S
H1509 C1532 0.950 . S
H1510 C1533 0.950 . S
H1511 C1535 0.950 . S
H1512 C1536 0.950 . S
H1513 C1537 0.951 . S
H1514 C1539 0.951 . S
H1515 C1541 0.950 . S
H1516 C1542 0.950 . S
H1517 C1544 0.950 . S
H1518 C1547 0.950 . S
H1519 C1548 0.950 . S
H1520 C1550 0.950 . S
H1521 C1551 0.950 . S
C1522 H1504 0.951 . S
C1522 C1523 1.366 . S
C1522 C1524 1.388 . S
C1523 C1522 1.366 . S
C1523 C1527 1.385 . S
C1524 H1505 0.951 . S
C1524 C1522 1.388 . S
C1524 C1525 1.366 . S
C1525 C1524 1.366 . S
C1525 C1526 1.414 . S
C1525 C1528 1.499 . S
C1526 H1506 0.950 . S
C1526 C1525 1.414 . S
C1526 C1527 1.374 . S
C1527 H1507 0.950 . S
C1527 C1523 1.385 . S
C1527 C1526 1.374 . S
C1528 C1525 1.499 . S
C1528 C1529 1.373 . S
C1528 C1530 1.389 . S
C1529 H1508 0.950 . S
C1529 C1528 1.373 . S
C1529 C1545 1.377 . S
C1530 C1528 1.389 . S
C1530 C1531 1.524 . S
C1530 C1544 1.377 . S
C1531 C1530 1.524 . S
C1531 C1532 1.397 . S
C1531 C1536 1.363 . S
C1532 H1509 0.950 . S
C1532 C1531 1.397 . S
C1532 C1533 1.334 . S
C1533 H1510 0.950 . S
C1533 C1532 1.334 . S
C1533 C1534 1.287 . S
C1534 C1533 1.287 . S
C1534 C1535 1.524 . S
C1534 H1553 0.913 . S
C1535 H1511 0.950 . S
C1535 C1534 1.524 . S
C1535 C1536 1.415 . S
C1536 H1512 0.950 . S
C1536 C1531 1.363 . S
C1536 C1535 1.415 . S
C1537 H1513 0.951 . S
C1537 C1538 1.366 . S
C1537 C1539 1.388 . S
C1538 C1537 1.366 . S
C1538 C1542 1.385 . S
C1539 H1514 0.951 . S
C1539 C1537 1.388 . S
C1539 C1540 1.366 . S
C1540 C1539 1.366 . S
C1540 C1541 1.414 . S
C1540 C1543 1.499 . S
C1541 H1515 0.950 . S
C1541 C1540 1.414 . S
C1541 C1542 1.374 . S
C1542 H1516 0.950 . S
C1542 C1538 1.385 . S
C1542 C1541 1.374 . S
C1543 C1540 1.499 . S
C1543 C1544 1.373 . S
C1543 C1545 1.389 . S
C1544 H1517 0.950 . S
C1544 C1530 1.377 . S
C1544 C1543 1.373 . S
C1545 C1529 1.377 . S
C1545 C1543 1.389 . S
C1545 C1546 1.524 . S
C1546 C1545 1.524 . S
C1546 C1547 1.397 . S
C1546 C1551 1.363 . S
C1547 H1518 0.950 . S
C1547 C1546 1.397 . S
C1547 C1548 1.334 . S
C1548 H1519 0.950 . S
C1548 C1547 1.334 . S
C1548 C1549 1.287 . S
C1549 C1548 1.287 . S
C1549 C1550 1.524 . S
C1549 H1552 0.999 . S
C1550 H1520 0.950 . S
C1550 C1549 1.524 . S
C1550 C1551 1.415 . S
C1551 H1521 0.950 . S
C1551 C1546 1.363 . S
C1551 C1550 1.415 . S
H1552 C1549 0.999 . S
H1553 C1534 0.913 . S
H1554 C1572 0.951 . S
H1555 C1574 0.951 . S
H1556 C1576 0.950 . S
H1557 C1577 0.950 . S
H1558 C1579 0.950 . S
H1559 C1582 0.950 . S
H1560 C1583 0.950 . S
H1561 C1585 0.950 . S
H1562 C1586 0.950 . S
H1563 C1587 0.951 . S
H1564 C1589 0.951 . S
H1565 C1591 0.950 . S
H1566 C1592 0.950 . S
H1567 C1594 0.950 . S
H1568 C1597 0.950 . S
H1569 C1598 0.950 . S
H1570 C1600 0.950 . S
H1571 C1601 0.950 . S
C1572 H1554 0.951 . S
C1572 C1573 1.366 . S
C1572 C1574 1.388 . S
C1573 C1572 1.366 . S
C1573 C1577 1.385 . S
C1574 H1555 0.951 . S
C1574 C1572 1.388 . S
C1574 C1575 1.366 . S
C1575 C1574 1.366 . S
C1575 C1576 1.414 . S
C1575 C1578 1.499 . S
C1576 H1556 0.950 . S
C1576 C1575 1.414 . S
C1576 C1577 1.374 . S
C1577 H1557 0.950 . S
C1577 C1573 1.385 . S
C1577 C1576 1.374 . S
C1578 C1575 1.499 . S
C1578 C1579 1.373 . S
C1578 C1580 1.389 . S
C1579 H1558 0.950 . S
C1579 C1578 1.373 . S
C1579 C1595 1.377 . S
C1580 C1578 1.389 . S
C1580 C1581 1.524 . S
C1580 C1594 1.377 . S
C1581 C1580 1.524 . S
C1581 C1582 1.397 . S
C1581 C1586 1.363 . S
C1582 H1559 0.950 . S
C1582 C1581 1.397 . S
C1582 C1583 1.334 . S
C1583 H1560 0.950 . S
C1583 C1582 1.334 . S
C1583 C1584 1.287 . S
C1584 C1583 1.287 . S
C1584 C1585 1.524 . S
C1584 H1603 0.913 . S
C1585 H1561 0.950 . S
C1585 C1584 1.524 . S
C1585 C1586 1.415 . S
C1586 H1562 0.950 . S
C1586 C1581 1.363 . S
C1586 C1585 1.415 . S
C1587 H1563 0.951 . S
C1587 C1588 1.366 . S
C1587 C1589 1.388 . S
C1588 C1587 1.366 . S
C1588 C1592 1.385 . S
C1589 H1564 0.951 . S
C1589 C1587 1.388 . S
C1589 C1590 1.366 . S
C1590 C1589 1.366 . S
C1590 C1591 1.414 . S
C1590 C1593 1.499 . S
C1591 H1565 0.950 . S
C1591 C1590 1.414 . S
C1591 C1592 1.374 . S
C1592 H1566 0.950 . S
C1592 C1588 1.385 . S
C1592 C1591 1.374 . S
C1593 C1590 1.499 . S
C1593 C1594 1.373 . S
C1593 C1595 1.389 . S
C1594 H1567 0.950 . S
C1594 C1580 1.377 . S
C1594 C1593 1.373 . S
C1595 C1579 1.377 . S
C1595 C1593 1.389 . S
C1595 C1596 1.524 . S
C1596 C1595 1.524 . S
C1596 C1597 1.397 . S
C1596 C1601 1.363 . S
C1597 H1568 0.950 . S
C1597 C1596 1.397 . S
C1597 C1598 1.334 . S
C1598 H1569 0.950 . S
C1598 C1597 1.334 . S
C1598 C1599 1.287 . S
C1599 C1598 1.287 . S
C1599 C1600 1.524 . S
C1599 H1602 0.999 . S
C1600 H1570 0.950 . S
C1600 C1599 1.524 . S
C1600 C1601 1.415 . S
C1601 H1571 0.950 . S
C1601 C1596 1.363 . S
C1601 C1600 1.415 . S
H1602 C1599 0.999 . S
H1603 C1584 0.913 . S
H1604 C1622 0.951 . S
H1605 C1624 0.951 . S
H1606 C1626 0.950 . S
H1607 C1627 0.950 . S
H1608 C1629 0.950 . S
H1609 C1632 0.950 . S
H1610 C1633 0.950 . S
H1611 C1635 0.950 . S
H1612 C1636 0.950 . S
H1613 C1637 0.951 . S
H1614 C1639 0.951 . S
H1615 C1641 0.950 . S
H1616 C1642 0.950 . S
H1617 C1644 0.950 . S
H1618 C1647 0.950 . S
H1619 C1648 0.950 . S
H1620 C1650 0.950 . S
H1621 C1651 0.950 . S
C1622 H1604 0.951 . S
C1622 C1623 1.366 . S
C1622 C1624 1.388 . S
C1623 C1622 1.366 . S
C1623 C1627 1.385 . S
C1624 H1605 0.951 . S
C1624 C1622 1.388 . S
C1624 C1625 1.366 . S
C1625 C1624 1.366 . S
C1625 C1626 1.414 . S
C1625 C1628 1.499 . S
C1626 H1606 0.950 . S
C1626 C1625 1.414 . S
C1626 C1627 1.374 . S
C1627 H1607 0.950 . S
C1627 C1623 1.385 . S
C1627 C1626 1.374 . S
C1628 C1625 1.499 . S
C1628 C1629 1.373 . S
C1628 C1630 1.389 . S
C1629 H1608 0.950 . S
C1629 C1628 1.373 . S
C1629 C1645 1.377 . S
C1630 C1628 1.389 . S
C1630 C1631 1.524 . S
C1630 C1644 1.377 . S
C1631 C1630 1.524 . S
C1631 C1632 1.397 . S
C1631 C1636 1.363 . S
C1632 H1609 0.950 . S
C1632 C1631 1.397 . S
C1632 C1633 1.334 . S
C1633 H1610 0.950 . S
C1633 C1632 1.334 . S
C1633 C1634 1.287 . S
C1634 C1633 1.287 . S
C1634 C1635 1.524 . S
C1634 H1653 0.913 . S
C1635 H1611 0.950 . S
C1635 C1634 1.524 . S
C1635 C1636 1.415 . S
C1636 H1612 0.950 . S
C1636 C1631 1.363 . S
C1636 C1635 1.415 . S
C1637 H1613 0.951 . S
C1637 C1638 1.366 . S
C1637 C1639 1.388 . S
C1638 C1637 1.366 . S
C1638 C1642 1.385 . S
C1639 H1614 0.951 . S
C1639 C1637 1.388 . S
C1639 C1640 1.366 . S
C1640 C1639 1.366 . S
C1640 C1641 1.414 . S
C1640 C1643 1.499 . S
C1641 H1615 0.950 . S
C1641 C1640 1.414 . S
C1641 C1642 1.374 . S
C1642 H1616 0.950 . S
C1642 C1638 1.385 . S
C1642 C1641 1.374 . S
C1643 C1640 1.499 . S
C1643 C1644 1.373 . S
C1643 C1645 1.389 . S
C1644 H1617 0.950 . S
C1644 C1630 1.377 . S
C1644 C1643 1.373 . S
C1645 C1629 1.377 . S
C1645 C1643 1.389 . S
C1645 C1646 1.524 . S
C1646 C1645 1.524 . S
C1646 C1647 1.397 . S
C1646 C1651 1.363 . S
C1647 H1618 0.950 . S
C1647 C1646 1.397 . S
C1647 C1648 1.334 . S
C1648 H1619 0.950 . S
C1648 C1647 1.334 . S
C1648 C1649 1.287 . S
C1649 C1648 1.287 . S
C1649 C1650 1.524 . S
C1649 H1652 0.999 . S
C1650 H1620 0.950 . S
C1650 C1649 1.524 . S
C1650 C1651 1.415 . S
C1651 H1621 0.950 . S
C1651 C1646 1.363 . S
C1651 C1650 1.415 . S
H1652 C1649 0.999 . S
H1653 C1634 0.913 . S
H1654 C1672 0.951 . S
H1655 C1674 0.951 . S
H1656 C1676 0.950 . S
H1657 C1677 0.950 . S
H1658 C1679 0.950 . S
H1659 C1682 0.950 . S
H1660 C1683 0.950 . S
H1661 C1685 0.950 . S
H1662 C1686 0.950 . S
H1663 C1687 0.951 . S
H1664 C1689 0.951 . S
H1665 C1691 0.950 . S
H1666 C1692 0.950 . S
H1667 C1694 0.950 . S
H1668 C1697 0.950 . S
H1669 C1698 0.950 . S
H1670 C1700 0.950 . S
H1671 C1701 0.950 . S
C1672 H1654 0.951 . S
C1672 C1673 1.366 . S
C1672 C1674 1.388 . S
C1673 C1672 1.366 . S
C1673 C1677 1.385 . S
C1674 H1655 0.951 . S
C1674 C1672 1.388 . S
C1674 C1675 1.366 . S
C1675 C1674 1.366 . S
C1675 C1676 1.414 . S
C1675 C1678 1.499 . S
C1676 H1656 0.950 . S
C1676 C1675 1.414 . S
C1676 C1677 1.374 . S
C1677 H1657 0.950 . S
C1677 C1673 1.385 . S
C1677 C1676 1.374 . S
C1678 C1675 1.499 . S
C1678 C1679 1.373 . S
C1678 C1680 1.389 . S
C1679 H1658 0.950 . S
C1679 C1678 1.373 . S
C1679 C1695 1.377 . S
C1680 C1678 1.389 . S
C1680 C1681 1.524 . S
C1680 C1694 1.377 . S
C1681 C1680 1.524 . S
C1681 C1682 1.397 . S
C1681 C1686 1.363 . S
C1682 H1659 0.950 . S
C1682 C1681 1.397 . S
C1682 C1683 1.334 . S
C1683 H1660 0.950 . S
C1683 C1682 1.334 . S
C1683 C1684 1.287 . S
C1684 C1683 1.287 . S
C1684 C1685 1.524 . S
C1684 H1703 0.913 . S
C1685 H1661 0.950 . S
C1685 C1684 1.524 . S
C1685 C1686 1.415 . S
C1686 H1662 0.950 . S
C1686 C1681 1.363 . S
C1686 C1685 1.415 . S
C1687 H1663 0.951 . S
C1687 C1688 1.366 . S
C1687 C1689 1.388 . S
C1688 C1687 1.366 . S
C1688 C1692 1.385 . S
C1689 H1664 0.951 . S
C1689 C1687 1.388 . S
C1689 C1690 1.366 . S
C1690 C1689 1.366 . S
C1690 C1691 1.414 . S
C1690 C1693 1.499 . S
C1691 H1665 0.950 . S
C1691 C1690 1.414 . S
C1691 C1692 1.374 . S
C1692 H1666 0.950 . S
C1692 C1688 1.385 . S
C1692 C1691 1.374 . S
C1693 C1690 1.499 . S
C1693 C1694 1.373 . S
C1693 C1695 1.389 . S
C1694 H1667 0.950 . S
C1694 C1680 1.377 . S
C1694 C1693 1.373 . S
C1695 C1679 1.377 . S
C1695 C1693 1.389 . S
C1695 C1696 1.524 . S
C1696 C1695 1.524 . S
C1696 C1697 1.397 . S
C1696 C1701 1.363 . S
C1697 H1668 0.950 . S
C1697 C1696 1.397 . S
C1697 C1698 1.334 . S
C1698 H1669 0.950 . S
C1698 C1697 1.334 . S
C1698 C1699 1.287 . S
C1699 C1698 1.287 . S
C1699 C1700 1.524 . S
C1699 H1702 0.999 . S
C1700 H1670 0.950 . S
C1700 C1699 1.524 . S
C1700 C1701 1.415 . S
C1701 H1671 0.950 . S
C1701 C1696 1.363 . S
C1701 C1700 1.415 . S
H1702 C1699 0.999 . S
H1703 C1684 0.913 . S
H1704 C1722 0.951 . S
H1705 C1724 0.951 . S
H1706 C1726 0.950 . S
H1707 C1727 0.950 . S
H1708 C1729 0.950 . S
H1709 C1732 0.950 . S
H1710 C1733 0.950 . S
H1711 C1735 0.950 . S
H1712 C1736 0.950 . S
H1713 C1737 0.951 . S
H1714 C1739 0.951 . S
H1715 C1741 0.950 . S
H1716 C1742 0.950 . S
H1717 C1744 0.950 . S
H1718 C1747 0.950 . S
H1719 C1748 0.950 . S
H1720 C1750 0.950 . S
H1721 C1751 0.950 . S
C1722 H1704 0.951 . S
C1722 C1723 1.366 . S
C1722 C1724 1.388 . S
C1723 C1722 1.366 . S
C1723 C1727 1.385 . S
C1724 H1705 0.951 . S
C1724 C1722 1.388 . S
C1724 C1725 1.366 . S
C1725 C1724 1.366 . S
C1725 C1726 1.414 . S
C1725 C1728 1.499 . S
C1726 H1706 0.950 . S
C1726 C1725 1.414 . S
C1726 C1727 1.374 . S
C1727 H1707 0.950 . S
C1727 C1723 1.385 . S
C1727 C1726 1.374 . S
C1728 C1725 1.499 . S
C1728 C1729 1.373 . S
C1728 C1730 1.389 . S
C1729 H1708 0.950 . S
C1729 C1728 1.373 . S
C1729 C1745 1.377 . S
C1730 C1728 1.389 . S
C1730 C1731 1.524 . S
C1730 C1744 1.377 . S
C1731 C1730 1.524 . S
C1731 C1732 1.397 . S
C1731 C1736 1.363 . S
C1732 H1709 0.950 . S
C1732 C1731 1.397 . S
C1732 C1733 1.334 . S
C1733 H1710 0.950 . S
C1733 C1732 1.334 . S
C1733 C1734 1.287 . S
C1734 C1733 1.287 . S
C1734 C1735 1.524 . S
C1734 H1753 0.913 . S
C1735 H1711 0.950 . S
C1735 C1734 1.524 . S
C1735 C1736 1.415 . S
C1736 H1712 0.950 . S
C1736 C1731 1.363 . S
C1736 C1735 1.415 . S
C1737 H1713 0.951 . S
C1737 C1738 1.366 . S
C1737 C1739 1.388 . S
C1738 C1737 1.366 . S
C1738 C1742 1.385 . S
C1739 H1714 0.951 . S
C1739 C1737 1.388 . S
C1739 C1740 1.366 . S
C1740 C1739 1.366 . S
C1740 C1741 1.414 . S
C1740 C1743 1.499 . S
C1741 H1715 0.950 . S
C1741 C1740 1.414 . S
C1741 C1742 1.374 . S
C1742 H1716 0.950 . S
C1742 C1738 1.385 . S
C1742 C1741 1.374 . S
C1743 C1740 1.499 . S
C1743 C1744 1.373 . S
C1743 C1745 1.389 . S
C1744 H1717 0.950 . S
C1744 C1730 1.377 . S
C1744 C1743 1.373 . S
C1745 C1729 1.377 . S
C1745 C1743 1.389 . S
C1745 C1746 1.524 . S
C1746 C1745 1.524 . S
C1746 C1747 1.397 . S
C1746 C1751 1.363 . S
C1747 H1718 0.950 . S
C1747 C1746 1.397 . S
C1747 C1748 1.334 . S
C1748 H1719 0.950 . S
C1748 C1747 1.334 . S
C1748 C1749 1.287 . S
C1749 C1748 1.287 . S
C1749 C1750 1.524 . S
C1749 H1752 0.999 . S
C1750 H1720 0.950 . S
C1750 C1749 1.524 . S
C1750 C1751 1.415 . S
C1751 H1721 0.950 . S
C1751 C1746 1.363 . S
C1751 C1750 1.415 . S
H1752 C1749 0.999 . S
H1753 C1734 0.913 . S
H1754 C1772 0.951 . S
H1755 C1774 0.951 . S
H1756 C1776 0.950 . S
H1757 C1777 0.950 . S
H1758 C1779 0.950 . S
H1759 C1782 0.950 . S
H1760 C1783 0.950 . S
H1761 C1785 0.950 . S
H1762 C1786 0.950 . S
H1763 C1787 0.951 . S
H1764 C1789 0.951 . S
H1765 C1791 0.950 . S
H1766 C1792 0.950 . S
H1767 C1794 0.950 . S
H1768 C1797 0.950 . S
H1769 C1798 0.950 . S
H1770 C1800 0.950 . S
H1771 C1801 0.950 . S
C1772 H1754 0.951 . S
C1772 C1773 1.366 . S
C1772 C1774 1.388 . S
C1773 C1772 1.366 . S
C1773 C1777 1.385 . S
C1774 H1755 0.951 . S
C1774 C1772 1.388 . S
C1774 C1775 1.366 . S
C1775 C1774 1.366 . S
C1775 C1776 1.414 . S
C1775 C1778 1.499 . S
C1776 H1756 0.950 . S
C1776 C1775 1.414 . S
C1776 C1777 1.374 . S
C1777 H1757 0.950 . S
C1777 C1773 1.385 . S
C1777 C1776 1.374 . S
C1778 C1775 1.499 . S
C1778 C1779 1.373 . S
C1778 C1780 1.389 . S
C1779 H1758 0.950 . S
C1779 C1778 1.373 . S
C1779 C1795 1.377 . S
C1780 C1778 1.389 . S
C1780 C1781 1.524 . S
C1780 C1794 1.377 . S
C1781 C1780 1.524 . S
C1781 C1782 1.397 . S
C1781 C1786 1.363 . S
C1782 H1759 0.950 . S
C1782 C1781 1.397 . S
C1782 C1783 1.334 . S
C1783 H1760 0.950 . S
C1783 C1782 1.334 . S
C1783 C1784 1.287 . S
C1784 C1783 1.287 . S
C1784 C1785 1.524 . S
C1784 H1803 0.913 . S
C1785 H1761 0.950 . S
C1785 C1784 1.524 . S
C1785 C1786 1.415 . S
C1786 H1762 0.950 . S
C1786 C1781 1.363 . S
C1786 C1785 1.415 . S
C1787 H1763 0.951 . S
C1787 C1788 1.366 . S
C1787 C1789 1.388 . S
C1788 C1787 1.366 . S
C1788 C1792 1.385 . S
C1789 H1764 0.951 . S
C1789 C1787 1.388 . S
C1789 C1790 1.366 . S
C1790 C1789 1.366 . S
C1790 C1791 1.414 . S
C1790 C1793 1.499 . S
C1791 H1765 0.950 . S
C1791 C1790 1.414 . S
C1791 C1792 1.374 . S
C1792 H1766 0.950 . S
C1792 C1788 1.385 . S
C1792 C1791 1.374 . S
C1793 C1790 1.499 . S
C1793 C1794 1.373 . S
C1793 C1795 1.389 . S
C1794 H1767 0.950 . S
C1794 C1780 1.377 . S
C1794 C1793 1.373 . S
C1795 C1779 1.377 . S
C1795 C1793 1.389 . S
C1795 C1796 1.524 . S
C1796 C1795 1.524 . S
C1796 C1797 1.397 . S
C1796 C1801 1.363 . S
C1797 H1768 0.950 . S
C1797 C1796 1.397 . S
C1797 C1798 1.334 . S
C1798 H1769 0.950 . S
C1798 C1797 1.334 . S
C1798 C1799 1.287 . S
C1799 C1798 1.287 . S
C1799 C1800 1.524 . S
C1799 H1802 0.999 . S
C1800 H1770 0.950 . S
C1800 C1799 1.524 . S
C1800 C1801 1.415 . S
C1801 H1771 0.950 . S
C1801 C1796 1.363 . S
C1801 C1800 1.415 . S
H1802 C1799 0.999 . S
H1803 C1784 0.913 . S
H1804 C1822 0.951 . S
H1805 C1824 0.951 . S
H1806 C1826 0.950 . S
H1807 C1827 0.950 . S
H1808 C1829 0.950 . S
H1809 C1832 0.950 . S
H1810 C1833 0.950 . S
H1811 C1835 0.950 . S
H1812 C1836 0.950 . S
H1813 C1837 0.951 . S
H1814 C1839 0.951 . S
H1815 C1841 0.950 . S
H1816 C1842 0.950 . S
H1817 C1844 0.950 . S
H1818 C1847 0.950 . S
H1819 C1848 0.950 . S
H1820 C1850 0.950 . S
H1821 C1851 0.950 . S
C1822 H1804 0.951 . S
C1822 C1823 1.366 . S
C1822 C1824 1.388 . S
C1823 C1822 1.366 . S
C1823 C1827 1.385 . S
C1824 H1805 0.951 . S
C1824 C1822 1.388 . S
C1824 C1825 1.366 . S
C1825 C1824 1.366 . S
C1825 C1826 1.414 . S
C1825 C1828 1.499 . S
C1826 H1806 0.950 . S
C1826 C1825 1.414 . S
C1826 C1827 1.374 . S
C1827 H1807 0.950 . S
C1827 C1823 1.385 . S
C1827 C1826 1.374 . S
C1828 C1825 1.499 . S
C1828 C1829 1.373 . S
C1828 C1830 1.389 . S
C1829 H1808 0.950 . S
C1829 C1828 1.373 . S
C1829 C1845 1.377 . S
C1830 C1828 1.389 . S
C1830 C1831 1.524 . S
C1830 C1844 1.377 . S
C1831 C1830 1.524 . S
C1831 C1832 1.397 . S
C1831 C1836 1.363 . S
C1832 H1809 0.950 . S
C1832 C1831 1.397 . S
C1832 C1833 1.334 . S
C1833 H1810 0.950 . S
C1833 C1832 1.334 . S
C1833 C1834 1.287 . S
C1834 C1833 1.287 . S
C1834 C1835 1.524 . S
C1834 H1853 0.913 . S
C1835 H1811 0.950 . S
C1835 C1834 1.524 . S
C1835 C1836 1.415 . S
C1836 H1812 0.950 . S
C1836 C1831 1.363 . S
C1836 C1835 1.415 . S
C1837 H1813 0.951 . S
C1837 C1838 1.366 . S
C1837 C1839 1.388 . S
C1838 C1837 1.366 . S
C1838 C1842 1.385 . S
C1839 H1814 0.951 . S
C1839 C1837 1.388 . S
C1839 C1840 1.366 . S
C1840 C1839 1.366 . S
C1840 C1841 1.414 . S
C1840 C1843 1.499 . S
C1841 H1815 0.950 . S
C1841 C1840 1.414 . S
C1841 C1842 1.374 . S
C1842 H1816 0.950 . S
C1842 C1838 1.385 . S
C1842 C1841 1.374 . S
C1843 C1840 1.499 . S
C1843 C1844 1.373 . S
C1843 C1845 1.389 . S
C1844 H1817 0.950 . S
C1844 C1830 1.377 . S
C1844 C1843 1.373 . S
C1845 C1829 1.377 . S
C1845 C1843 1.389 . S
C1845 C1846 1.524 . S
C1846 C1845 1.524 . S
C1846 C1847 1.397 . S
C1846 C1851 1.363 . S
C1847 H1818 0.950 . S
C1847 C1846 1.397 . S
C1847 C1848 1.334 . S
C1848 H1819 0.950 . S
C1848 C1847 1.334 . S
C1848 C1849 1.287 . S
C1849 C1848 1.287 . S
C1849 C1850 1.524 . S
C1849 H1852 0.999 . S
C1850 H1820 0.950 . S
C1850 C1849 1.524 . S
C1850 C1851 1.415 . S
C1851 H1821 0.950 . S
C1851 C1846 1.363 . S
C1851 C1850 1.415 . S
H1852 C1849 0.999 . S
H1853 C1834 0.913 . S
H1854 C1872 0.951 . S
H1855 C1874 0.951 . S
H1856 C1876 0.950 . S
H1857 C1877 0.950 . S
H1858 C1879 0.950 . S
H1859 C1882 0.950 . S
H1860 C1883 0.950 . S
H1861 C1885 0.950 . S
H1862 C1886 0.950 . S
H1863 C1887 0.951 . S
H1864 C1889 0.951 . S
H1865 C1891 0.950 . S
H1866 C1892 0.950 . S
H1867 C1894 0.950 . S
H1868 C1897 0.950 . S
H1869 C1898 0.950 . S
H1870 C1900 0.950 . S
H1871 C1901 0.950 . S
C1872 H1854 0.951 . S
C1872 C1873 1.366 . S
C1872 C1874 1.388 . S
C1873 C1872 1.366 . S
C1873 C1877 1.385 . S
C1874 H1855 0.951 . S
C1874 C1872 1.388 . S
C1874 C1875 1.366 . S
C1875 C1874 1.366 . S
C1875 C1876 1.414 . S
C1875 C1878 1.499 . S
C1876 H1856 0.950 . S
C1876 C1875 1.414 . S
C1876 C1877 1.374 . S
C1877 H1857 0.950 . S
C1877 C1873 1.385 . S
C1877 C1876 1.374 . S
C1878 C1875 1.499 . S
C1878 C1879 1.373 . S
C1878 C1880 1.389 . S
C1879 H1858 0.950 . S
C1879 C1878 1.373 . S
C1879 C1895 1.377 . S
C1880 C1878 1.389 . S
C1880 C1881 1.524 . S
C1880 C1894 1.377 . S
C1881 C1880 1.524 . S
C1881 C1882 1.397 . S
C1881 C1886 1.363 . S
C1882 H1859 0.950 . S
C1882 C1881 1.397 . S
C1882 C1883 1.334 . S
C1883 H1860 0.950 . S
C1883 C1882 1.334 . S
C1883 C1884 1.287 . S
C1884 C1883 1.287 . S
C1884 C1885 1.524 . S
C1884 H1903 0.913 . S
C1885 H1861 0.950 . S
C1885 C1884 1.524 . S
C1885 C1886 1.415 . S
C1886 H1862 0.950 . S
C1886 C1881 1.363 . S
C1886 C1885 1.415 . S
C1887 H1863 0.951 . S
C1887 C1888 1.366 . S
C1887 C1889 1.388 . S
C1888 C1887 1.366 . S
C1888 C1892 1.385 . S
C1889 H1864 0.951 . S
C1889 C1887 1.388 . S
C1889 C1890 1.366 . S
C1890 C1889 1.366 . S
C1890 C1891 1.414 . S
C1890 C1893 1.499 . S
C1891 H1865 0.950 . S
C1891 C1890 1.414 . S
C1891 C1892 1.374 . S
C1892 H1866 0.950 . S
C1892 C1888 1.385 . S
C1892 C1891 1.374 . S
C1893 C1890 1.499 . S
C1893 C1894 1.373 . S
C1893 C1895 1.389 . S
C1894 H1867 0.950 . S
C1894 C1880 1.377 . S
C1894 C1893 1.373 . S
C1895 C1879 1.377 . S
C1895 C1893 1.389 . S
C1895 C1896 1.524 . S
C1896 C1895 1.524 . S
C1896 C1897 1.397 . S
C1896 C1901 1.363 . S
C1897 H1868 0.950 . S
C1897 C1896 1.397 . S
C1897 C1898 1.334 . S
C1898 H1869 0.950 . S
C1898 C1897 1.334 . S
C1898 C1899 1.287 . S
C1899 C1898 1.287 . S
C1899 C1900 1.524 . S
C1899 H1902 0.999 . S
C1900 H1870 0.950 . S
C1900 C1899 1.524 . S
C1900 C1901 1.415 . S
C1901 H1871 0.950 . S
C1901 C1896 1.363 . S
C1901 C1900 1.415 . S
H1902 C1899 0.999 . S
H1903 C1884 0.913 . S
H1904 C1922 0.951 . S
H1905 C1924 0.951 . S
H1906 C1926 0.950 . S
H1907 C1927 0.950 . S
H1908 C1929 0.950 . S
H1909 C1932 0.950 . S
H1910 C1933 0.950 . S
H1911 C1935 0.950 . S
H1912 C1936 0.950 . S
H1913 C1937 0.951 . S
H1914 C1939 0.951 . S
H1915 C1941 0.950 . S
H1916 C1942 0.950 . S
H1917 C1944 0.950 . S
H1918 C1947 0.950 . S
H1919 C1948 0.950 . S
H1920 C1950 0.950 . S
H1921 C1951 0.950 . S
C1922 H1904 0.951 . S
C1922 C1923 1.366 . S
C1922 C1924 1.388 . S
C1923 C1922 1.366 . S
C1923 C1927 1.385 . S
C1924 H1905 0.951 . S
C1924 C1922 1.388 . S
C1924 C1925 1.366 . S
C1925 C1924 1.366 . S
C1925 C1926 1.414 . S
C1925 C1928 1.499 . S
C1926 H1906 0.950 . S
C1926 C1925 1.414 . S
C1926 C1927 1.374 . S
C1927 H1907 0.950 . S
C1927 C1923 1.385 . S
C1927 C1926 1.374 . S
C1928 C1925 1.499 . S
C1928 C1929 1.373 . S
C1928 C1930 1.389 . S
C1929 H1908 0.950 . S
C1929 C1928 1.373 . S
C1929 C1945 1.377 . S
C1930 C1928 1.389 . S
C1930 C1931 1.524 . S
C1930 C1944 1.377 . S
C1931 C1930 1.524 . S
C1931 C1932 1.397 . S
C1931 C1936 1.363 . S
C1932 H1909 0.950 . S
C1932 C1931 1.397 . S
C1932 C1933 1.334 . S
C1933 H1910 0.950 . S
C1933 C1932 1.334 . S
C1933 C1934 1.287 . S
C1934 C1933 1.287 . S
C1934 C1935 1.524 . S
C1934 H1953 0.913 . S
C1935 H1911 0.950 . S
C1935 C1934 1.524 . S
C1935 C1936 1.415 . S
C1936 H1912 0.950 . S
C1936 C1931 1.363 . S
C1936 C1935 1.415 . S
C1937 H1913 0.951 . S
C1937 C1938 1.366 . S
C1937 C1939 1.388 . S
C1938 C1937 1.366 . S
C1938 C1942 1.385 . S
C1939 H1914 0.951 . S
C1939 C1937 1.388 . S
C1939 C1940 1.366 . S
C1940 C1939 1.366 . S
C1940 C1941 1.414 . S
C1940 C1943 1.499 . S
C1941 H1915 0.950 . S
C1941 C1940 1.414 . S
C1941 C1942 1.374 . S
C1942 H1916 0.950 . S
C1942 C1938 1.385 . S
C1942 C1941 1.374 . S
C1943 C1940 1.499 . S
C1943 C1944 1.373 . S
C1943 C1945 1.389 . S
C1944 H1917 0.950 . S
C1944 C1930 1.377 . S
C1944 C1943 1.373 . S
C1945 C1929 1.377 . S
C1945 C1943 1.389 . S
C1945 C1946 1.524 . S
C1946 C1945 1.524 . S
C1946 C1947 1.397 . S
C1946 C1951 1.363 . S
C1947 H1918 0.950 . S
C1947 C1946 1.397 . S
C1947 C1948 1.334 . S
C1948 H1919 0.950 . S
C1948 C1947 1.334 . S
C1948 C1949 1.287 . S
C1949 C1948 1.287 . S
C1949 C1950 1.524 . S
C1949 H1952 0.999 . S
C1950 H1920 0.950 . S
C1950 C1949 1.524 . S
C1950 C1951 1.415 . S
C1951 H1921 0.950 . S
C1951 C1946 1.363 . S
C1951 C1950 1.415 . S
H1952 C1949 0.999 . S
H1953 C1934 0.913 . S
H1954 C1972 0.951 . S
H1955 C1974 0.951 . S
H1956 C1976 0.950 . S
H1957 C1977 0.950 . S
H1958 C1979 0.950 . S
H1959 C1982 0.950 . S
H1960 C1983 0.950 . S
H1961 C1985 0.950 . S
H1962 C1986 0.950 . S
H1963 C1987 0.951 . S
H1964 C1989 0.951 . S
H1965 C1991 0.950 . S
H1966 C1992 0.950 . S
H1967 C1994 0.950 . S
H1968 C1997 0.950 . S
H1969 C1998 0.950 . S
H1970 C2000 0.950 . S
H1971 C2001 0.950 . S
C1972 H1954 0.951 . S
C1972 C1973 1.366 . S
C1972 C1974 1.388 . S
C1973 C1972 1.366 . S
C1973 C1977 1.385 . S
C1974 H1955 0.951 . S
C1974 C1972 1.388 . S
C1974 C1975 1.366 . S
C1975 C1974 1.366 . S
C1975 C1976 1.414 . S
C1975 C1978 1.499 . S
C1976 H1956 0.950 . S
C1976 C1975 1.414 . S
C1976 C1977 1.374 . S
C1977 H1957 0.950 . S
C1977 C1973 1.385 . S
C1977 C1976 1.374 . S
C1978 C1975 1.499 . S
C1978 C1979 1.373 . S
C1978 C1980 1.389 . S
C1979 H1958 0.950 . S
C1979 C1978 1.373 . S
C1979 C1995 1.377 . S
C1980 C1978 1.389 . S
C1980 C1981 1.524 . S
C1980 C1994 1.377 . S
C1981 C1980 1.524 . S
C1981 C1982 1.397 . S
C1981 C1986 1.363 . S
C1982 H1959 0.950 . S
C1982 C1981 1.397 . S
C1982 C1983 1.334 . S
C1983 H1960 0.950 . S
C1983 C1982 1.334 . S
C1983 C1984 1.287 . S
C1984 C1983 1.287 . S
C1984 C1985 1.524 . S
C1984 H2003 0.913 . S
C1985 H1961 0.950 . S
C1985 C1984 1.524 . S
C1985 C1986 1.415 . S
C1986 H1962 0.950 . S
C1986 C1981 1.363 . S
C1986 C1985 1.415 . S
C1987 H1963 0.951 . S
C1987 C1988 1.366 . S
C1987 C1989 1.388 . S
C1988 C1987 1.366 . S
C1988 C1992 1.385 . S
C1989 H1964 0.951 . S
C1989 C1987 1.388 . S
C1989 C1990 1.366 . S
C1990 C1989 1.366 . S
C1990 C1991 1.414 . S
C1990 C1993 1.499 . S
C1991 H1965 0.950 . S
C1991 C1990 1.414 . S
C1991 C1992 1.374 . S
C1992 H1966 0.950 . S
C1992 C1988 1.385 . S
C1992 C1991 1.374 . S
C1993 C1990 1.499 . S
C1993 C1994 1.373 . S
C1993 C1995 1.389 . S
C1994 H1967 0.950 . S
C1994 C1980 1.377 . S
C1994 C1993 1.373 . S
C1995 C1979 1.377 . S
C1995 C1993 1.389 . S
C1995 C1996 1.524 . S
C1996 C1995 1.524 . S
C1996 C1997 1.397 . S
C1996 C2001 1.363 . S
C1997 H1968 0.950 . S
C1997 C1996 1.397 . S
C1997 C1998 1.334 . S
C1998 H1969 0.950 . S
C1998 C1997 1.334 . S
C1998 C1999 1.287 . S
C1999 C1998 1.287 . S
C1999 C2000 1.524 . S
C1999 H2002 0.999 . S
C2000 H1970 0.950 . S
C2000 C1999 1.524 . S
C2000 C2001 1.415 . S
C2001 H1971 0.950 . S
C2001 C1996 1.363 . S
C2001 C2000 1.415 . S
H2002 C1999 0.999 . S
H2003 C1984 0.913 . S
H2004 C2022 0.951 . S
H2005 C2024 0.951 . S
H2006 C2026 0.950 . S
H2007 C2027 0.950 . S
H2008 C2029 0.950 . S
H2009 C2032 0.950 . S
H2010 C2033 0.950 . S
H2011 C2035 0.950 . S
H2012 C2036 0.950 . S
H2013 C2037 0.951 . S
H2014 C2039 0.951 . S
H2015 C2041 0.950 . S
H2016 C2042 0.950 . S
H2017 C2044 0.950 . S
H2018 C2047 0.950 . S
H2019 C2048 0.950 . S
H2020 C2050 0.950 . S
H2021 C2051 0.950 . S
C2022 H2004 0.951 . S
C2022 C2023 1.366 . S
C2022 C2024 1.388 . S
C2023 C2022 1.366 . S
C2023 C2027 1.385 . S
C2024 H2005 0.951 . S
C2024 C2022 1.388 . S
C2024 C2025 1.366 . S
C2025 C2024 1.366 . S
C2025 C2026 1.414 . S
C2025 C2028 1.499 . S
C2026 H2006 0.950 . S
C2026 C2025 1.414 . S
C2026 C2027 1.374 . S
C2027 H2007 0.950 . S
C2027 C2023 1.385 . S
C2027 C2026 1.374 . S
C2028 C2025 1.499 . S
C2028 C2029 1.373 . S
C2028 C2030 1.389 . S
C2029 H2008 0.950 . S
C2029 C2028 1.373 . S
C2029 C2045 1.377 . S
C2030 C2028 1.389 . S
C2030 C2031 1.524 . S
C2030 C2044 1.377 . S
C2031 C2030 1.524 . S
C2031 C2032 1.397 . S
C2031 C2036 1.363 . S
C2032 H2009 0.950 . S
C2032 C2031 1.397 . S
C2032 C2033 1.334 . S
C2033 H2010 0.950 . S
C2033 C2032 1.334 . S
C2033 C2034 1.287 . S
C2034 C2033 1.287 . S
C2034 C2035 1.524 . S
C2034 H2053 0.913 . S
C2035 H2011 0.950 . S
C2035 C2034 1.524 . S
C2035 C2036 1.415 . S
C2036 H2012 0.950 . S
C2036 C2031 1.363 . S
C2036 C2035 1.415 . S
C2037 H2013 0.951 . S
C2037 C2038 1.366 . S
C2037 C2039 1.388 . S
C2038 C2037 1.366 . S
C2038 C2042 1.385 . S
C2039 H2014 0.951 . S
C2039 C2037 1.388 . S
C2039 C2040 1.366 . S
C2040 C2039 1.366 . S
C2040 C2041 1.414 . S
C2040 C2043 1.499 . S
C2041 H2015 0.950 . S
C2041 C2040 1.414 . S
C2041 C2042 1.374 . S
C2042 H2016 0.950 . S
C2042 C2038 1.385 . S
C2042 C2041 1.374 . S
C2043 C2040 1.499 . S
C2043 C2044 1.373 . S
C2043 C2045 1.389 . S
C2044 H2017 0.950 . S
C2044 C2030 1.377 . S
C2044 C2043 1.373 . S
C2045 C2029 1.377 . S
C2045 C2043 1.389 . S
C2045 C2046 1.524 . S
C2046 C2045 1.524 . S
C2046 C2047 1.397 . S
C2046 C2051 1.363 . S
C2047 H2018 0.950 . S
C2047 C2046 1.397 . S
C2047 C2048 1.334 . S
C2048 H2019 0.950 . S
C2048 C2047 1.334 . S
C2048 C2049 1.287 . S
C2049 C2048 1.287 . S
C2049 C2050 1.524 . S
C2049 H2052 0.999 . S
C2050 H2020 0.950 . S
C2050 C2049 1.524 . S
C2050 C2051 1.415 . S
C2051 H2021 0.950 . S
C2051 C2046 1.363 . S
C2051 C2050 1.415 . S
H2052 C2049 0.999 . S
H2053 C2034 0.913 . S
H2054 C2072 0.951 . S
H2055 C2074 0.951 . S
H2056 C2076 0.950 . S
H2057 C2077 0.950 . S
H2058 C2079 0.950 . S
H2059 C2082 0.950 . S
H2060 C2083 0.950 . S
H2061 C2085 0.950 . S
H2062 C2086 0.950 . S
H2063 C2087 0.951 . S
H2064 C2089 0.951 . S
H2065 C2091 0.950 . S
H2066 C2092 0.950 . S
H2067 C2094 0.950 . S
H2068 C2097 0.950 . S
H2069 C2098 0.950 . S
H2070 C2100 0.950 . S
H2071 C2101 0.950 . S
C2072 H2054 0.951 . S
C2072 C2073 1.366 . S
C2072 C2074 1.388 . S
C2073 C2072 1.366 . S
C2073 C2077 1.385 . S
C2074 H2055 0.951 . S
C2074 C2072 1.388 . S
C2074 C2075 1.366 . S
C2075 C2074 1.366 . S
C2075 C2076 1.414 . S
C2075 C2078 1.499 . S
C2076 H2056 0.950 . S
C2076 C2075 1.414 . S
C2076 C2077 1.374 . S
C2077 H2057 0.950 . S
C2077 C2073 1.385 . S
C2077 C2076 1.374 . S
C2078 C2075 1.499 . S
C2078 C2079 1.373 . S
C2078 C2080 1.389 . S
C2079 H2058 0.950 . S
C2079 C2078 1.373 . S
C2079 C2095 1.377 . S
C2080 C2078 1.389 . S
C2080 C2081 1.524 . S
C2080 C2094 1.377 . S
C2081 C2080 1.524 . S
C2081 C2082 1.397 . S
C2081 C2086 1.363 . S
C2082 H2059 0.950 . S
C2082 C2081 1.397 . S
C2082 C2083 1.334 . S
C2083 H2060 0.950 . S
C2083 C2082 1.334 . S
C2083 C2084 1.287 . S
C2084 C2083 1.287 . S
C2084 C2085 1.524 . S
C2084 H2103 0.913 . S
C2085 H2061 0.950 . S
C2085 C2084 1.524 . S
C2085 C2086 1.415 . S
C2086 H2062 0.950 . S
C2086 C2081 1.363 . S
C2086 C2085 1.415 . S
C2087 H2063 0.951 . S
C2087 C2088 1.366 . S
C2087 C2089 1.388 . S
C2088 C2087 1.366 . S
C2088 C2092 1.385 . S
C2089 H2064 0.951 . S
C2089 C2087 1.388 . S
C2089 C2090 1.366 . S
C2090 C2089 1.366 . S
C2090 C2091 1.414 . S
C2090 C2093 1.499 . S
C2091 H2065 0.950 . S
C2091 C2090 1.414 . S
C2091 C2092 1.374 . S
C2092 H2066 0.950 . S
C2092 C2088 1.385 . S
C2092 C2091 1.374 . S
C2093 C2090 1.499 . S
C2093 C2094 1.373 . S
C2093 C2095 1.389 . S
C2094 H2067 0.950 . S
C2094 C2080 1.377 . S
C2094 C2093 1.373 . S
C2095 C2079 1.377 . S
C2095 C2093 1.389 . S
C2095 C2096 1.524 . S
C2096 C2095 1.524 . S
C2096 C2097 1.397 . S
C2096 C2101 1.363 . S
C2097 H2068 0.950 . S
C2097 C2096 1.397 . S
C2097 C2098 1.334 . S
C2098 H2069 0.950 . S
C2098 C2097 1.334 . S
C2098 C2099 1.287 . S
C2099 C2098 1.287 . S
C2099 C2100 1.524 . S
C2099 H2102 0.999 . S
C2100 H2070 0.950 . S
C2100 C2099 1.524 . S
C2100 C2101 1.415 . S
C2101 H2071 0.950 . S
C2101 C2096 1.363 . S
C2101 C2100 1.415 . S
H2102 C2099 0.999 . S
H2103 C2084 0.913 . S
H2104 C2122 0.951 . S
H2105 C2124 0.951 . S
H2106 C2126 0.950 . S
H2107 C2127 0.950 . S
H2108 C2129 0.950 . S
H2109 C2132 0.950 . S
H2110 C2133 0.950 . S
H2111 C2135 0.950 . S
H2112 C2136 0.950 . S
H2113 C2137 0.951 . S
H2114 C2139 0.951 . S
H2115 C2141 0.950 . S
H2116 C2142 0.950 . S
H2117 C2144 0.950 . S
H2118 C2147 0.950 . S
H2119 C2148 0.950 . S
H2120 C2150 0.950 . S
H2121 C2151 0.950 . S
C2122 H2104 0.951 . S
C2122 C2123 1.366 . S
C2122 C2124 1.388 . S
C2123 C2122 1.366 . S
C2123 C2127 1.385 . S
C2124 H2105 0.951 . S
C2124 C2122 1.388 . S
C2124 C2125 1.366 . S
C2125 C2124 1.366 . S
C2125 C2126 1.414 . S
C2125 C2128 1.499 . S
C2126 H2106 0.950 . S
C2126 C2125 1.414 . S
C2126 C2127 1.374 . S
C2127 H2107 0.950 . S
C2127 C2123 1.385 . S
C2127 C2126 1.374 . S
C2128 C2125 1.499 . S
C2128 C2129 1.373 . S
C2128 C2130 1.389 . S
C2129 H2108 0.950 . S
C2129 C2128 1.373 . S
C2129 C2145 1.377 . S
C2130 C2128 1.389 . S
C2130 C2131 1.524 . S
C2130 C2144 1.377 . S
C2131 C2130 1.524 . S
C2131 C2132 1.397 . S
C2131 C2136 1.363 . S
C2132 H2109 0.950 . S
C2132 C2131 1.397 . S
C2132 C2133 1.334 . S
C2133 H2110 0.950 . S
C2133 C2132 1.334 . S
C2133 C2134 1.287 . S
C2134 C2133 1.287 . S
C2134 C2135 1.524 . S
C2134 H2153 0.913 . S
C2135 H2111 0.950 . S
C2135 C2134 1.524 . S
C2135 C2136 1.415 . S
C2136 H2112 0.950 . S
C2136 C2131 1.363 . S
C2136 C2135 1.415 . S
C2137 H2113 0.951 . S
C2137 C2138 1.366 . S
C2137 C2139 1.388 . S
C2138 C2137 1.366 . S
C2138 C2142 1.385 . S
C2139 H2114 0.951 . S
C2139 C2137 1.388 . S
C2139 C2140 1.366 . S
C2140 C2139 1.366 . S
C2140 C2141 1.414 . S
C2140 C2143 1.499 . S
C2141 H2115 0.950 . S
C2141 C2140 1.414 . S
C2141 C2142 1.374 . S
C2142 H2116 0.950 . S
C2142 C2138 1.385 . S
C2142 C2141 1.374 . S
C2143 C2140 1.499 . S
C2143 C2144 1.373 . S
C2143 C2145 1.389 . S
C2144 H2117 0.950 . S
C2144 C2130 1.377 . S
C2144 C2143 1.373 . S
C2145 C2129 1.377 . S
C2145 C2143 1.389 . S
C2145 C2146 1.524 . S
C2146 C2145 1.524 . S
C2146 C2147 1.397 . S
C2146 C2151 1.363 . S
C2147 H2118 0.950 . S
C2147 C2146 1.397 . S
C2147 C2148 1.334 . S
C2148 H2119 0.950 . S
C2148 C2147 1.334 . S
C2148 C2149 1.287 . S
C2149 C2148 1.287 . S
C2149 C2150 1.524 . S
C2149 H2152 0.999 . S
C2150 H2120 0.950 . S
C2150 C2149 1.524 . S
C2150 C2151 1.415 . S
C2151 H2121 0.950 . S
C2151 C2146 1.363 . S
C2151 C2150 1.415 . S
H2152 C2149 0.999 . S
H2153 C2134 0.913 . S
H2154 C2172 0.951 . S
H2155 C2174 0.951 . S
H2156 C2176 0.950 . S
H2157 C2177 0.950 . S
H2158 C2179 0.950 . S
H2159 C2182 0.950 . S
H2160 C2183 0.950 . S
H2161 C2185 0.950 . S
H2162 C2186 0.950 . S
H2163 C2187 0.951 . S
H2164 C2189 0.951 . S
H2165 C2191 0.950 . S
H2166 C2192 0.950 . S
H2167 C2194 0.950 . S
H2168 C2197 0.950 . S
H2169 C2198 0.950 . S
H2170 C2200 0.950 . S
H2171 C2201 0.950 . S
C2172 H2154 0.951 . S
C2172 C2173 1.366 . S
C2172 C2174 1.388 . S
C2173 C2172 1.366 . S
C2173 C2177 1.385 . S
C2174 H2155 0.951 . S
C2174 C2172 1.388 . S
C2174 C2175 1.366 . S
C2175 C2174 1.366 . S
C2175 C2176 1.414 . S
C2175 C2178 1.499 . S
C2176 H2156 0.950 . S
C2176 C2175 1.414 . S
C2176 C2177 1.374 . S
C2177 H2157 0.950 . S
C2177 C2173 1.385 . S
C2177 C2176 1.374 . S
C2178 C2175 1.499 . S
C2178 C2179 1.373 . S
C2178 C2180 1.389 . S
C2179 H2158 0.950 . S
C2179 C2178 1.373 . S
C2179 C2195 1.377 . S
C2180 C2178 1.389 . S
C2180 C2181 1.524 . S
C2180 C2194 1.377 . S
C2181 C2180 1.524 . S
C2181 C2182 1.397 . S
C2181 C2186 1.363 . S
C2182 H2159 0.950 . S
C2182 C2181 1.397 . S
C2182 C2183 1.334 . S
C2183 H2160 0.950 . S
C2183 C2182 1.334 . S
C2183 C2184 1.287 . S
C2184 C2183 1.287 . S
C2184 C2185 1.524 . S
C2184 H2203 0.913 . S
C2185 H2161 0.950 . S
C2185 C2184 1.524 . S
C2185 C2186 1.415 . S
C2186 H2162 0.950 . S
C2186 C2181 1.363 . S
C2186 C2185 1.415 . S
C2187 H2163 0.951 . S
C2187 C2188 1.366 . S
C2187 C2189 1.388 . S
C2188 C2187 1.366 . S
C2188 C2192 1.385 . S
C2189 H2164 0.951 . S
C2189 C2187 1.388 . S
C2189 C2190 1.366 . S
C2190 C2189 1.366 . S
C2190 C2191 1.414 . S
C2190 C2193 1.499 . S
C2191 H2165 0.950 . S
C2191 C2190 1.414 . S
C2191 C2192 1.374 . S
C2192 H2166 0.950 . S
C2192 C2188 1.385 . S
C2192 C2191 1.374 . S
C2193 C2190 1.499 . S
C2193 C2194 1.373 . S
C2193 C2195 1.389 . S
C2194 H2167 0.950 . S
C2194 C2180 1.377 . S
C2194 C2193 1.373 . S
C2195 C2179 1.377 . S
C2195 C2193 1.389 . S
C2195 C2196 1.524 . S
C2196 C2195 1.524 . S
C2196 C2197 1.397 . S
C2196 C2201 1.363 . S
C2197 H2168 0.950 . S
C2197 C2196 1.397 . S
C2197 C2198 1.334 . S
C2198 H2169 0.950 . S
C2198 C2197 1.334 . S
C2198 C2199 1.287 . S
C2199 C2198 1.287 . S
C2199 C2200 1.524 . S
C2199 H2202 0.999 . S
C2200 H2170 0.950 . S
C2200 C2199 1.524 . S
C2200 C2201 1.415 . S
C2201 H2171 0.950 . S
C2201 C2196 1.363 . S
C2201 C2200 1.415 . S
H2202 C2199 0.999 . S
H2203 C2184 0.913 . S
H2204 C2222 0.951 . S
H2205 C2224 0.951 . S
H2206 C2226 0.950 . S
H2207 C2227 0.950 . S
H2208 C2229 0.950 . S
H2209 C2232 0.950 . S
H2210 C2233 0.950 . S
H2211 C2235 0.950 . S
H2212 C2236 0.950 . S
H2213 C2237 0.951 . S
H2214 C2239 0.951 . S
H2215 C2241 0.950 . S
H2216 C2242 0.950 . S
H2217 C2244 0.950 . S
H2218 C2247 0.950 . S
H2219 C2248 0.950 . S
H2220 C2250 0.950 . S
H2221 C2251 0.950 . S
C2222 H2204 0.951 . S
C2222 C2223 1.366 . S
C2222 C2224 1.388 . S
C2223 C2222 1.366 . S
C2223 C2227 1.385 . S
C2224 H2205 0.951 . S
C2224 C2222 1.388 . S
C2224 C2225 1.366 . S
C2225 C2224 1.366 . S
C2225 C2226 1.414 . S
C2225 C2228 1.499 . S
C2226 H2206 0.950 . S
C2226 C2225 1.414 . S
C2226 C2227 1.374 . S
C2227 H2207 0.950 . S
C2227 C2223 1.385 . S
C2227 C2226 1.374 . S
C2228 C2225 1.499 . S
C2228 C2229 1.373 . S
C2228 C2230 1.389 . S
C2229 H2208 0.950 . S
C2229 C2228 1.373 . S
C2229 C2245 1.377 . S
C2230 C2228 1.389 . S
C2230 C2231 1.524 . S
C2230 C2244 1.377 . S
C2231 C2230 1.524 . S
C2231 C2232 1.397 . S
C2231 C2236 1.363 . S
C2232 H2209 0.950 . S
C2232 C2231 1.397 . S
C2232 C2233 1.334 . S
C2233 H2210 0.950 . S
C2233 C2232 1.334 . S
C2233 C2234 1.287 . S
C2234 C2233 1.287 . S
C2234 C2235 1.524 . S
C2234 H2253 0.913 . S
C2235 H2211 0.950 . S
C2235 C2234 1.524 . S
C2235 C2236 1.415 . S
C2236 H2212 0.950 . S
C2236 C2231 1.363 . S
C2236 C2235 1.415 . S
C2237 H2213 0.951 . S
C2237 C2238 1.366 . S
C2237 C2239 1.388 . S
C2238 C2237 1.366 . S
C2238 C2242 1.385 . S
C2239 H2214 0.951 . S
C2239 C2237 1.388 . S
C2239 C2240 1.366 . S
C2240 C2239 1.366 . S
C2240 C2241 1.414 . S
C2240 C2243 1.499 . S
C2241 H2215 0.950 . S
C2241 C2240 1.414 . S
C2241 C2242 1.374 . S
C2242 H2216 0.950 . S
C2242 C2238 1.385 . S
C2242 C2241 1.374 . S
C2243 C2240 1.499 . S
C2243 C2244 1.373 . S
C2243 C2245 1.389 . S
C2244 H2217 0.950 . S
C2244 C2230 1.377 . S
C2244 C2243 1.373 . S
C2245 C2229 1.377 . S
C2245 C2243 1.389 . S
C2245 C2246 1.524 . S
C2246 C2245 1.524 . S
C2246 C2247 1.397 . S
C2246 C2251 1.363 . S
C2247 H2218 0.950 . S
C2247 C2246 1.397 . S
C2247 C2248 1.334 . S
C2248 H2219 0.950 . S
C2248 C2247 1.334 . S
C2248 C2249 1.287 . S
C2249 C2248 1.287 . S
C2249 C2250 1.524 . S
C2249 H2252 0.999 . S
C2250 H2220 0.950 . S
C2250 C2249 1.524 . S
C2250 C2251 1.415 . S
C2251 H2221 0.950 . S
C2251 C2246 1.363 . S
C2251 C2250 1.415 . S
H2252 C2249 0.999 . S
H2253 C2234 0.913 . S
H2254 C2272 0.951 . S
H2255 C2274 0.951 . S
H2256 C2276 0.950 . S
H2257 C2277 0.950 . S
H2258 C2279 0.950 . S
H2259 C2282 0.950 . S
H2260 C2283 0.950 . S
H2261 C2285 0.950 . S
H2262 C2286 0.950 . S
H2263 C2287 0.951 . S
H2264 C2289 0.951 . S
H2265 C2291 0.950 . S
H2266 C2292 0.950 . S
H2267 C2294 0.950 . S
H2268 C2297 0.950 . S
H2269 C2298 0.950 . S
H2270 C2300 0.950 . S
H2271 C2301 0.950 . S
C2272 H2254 0.951 . S
C2272 C2273 1.366 . S
C2272 C2274 1.388 . S
C2273 C2272 1.366 . S
C2273 C2277 1.385 . S
C2274 H2255 0.951 . S
C2274 C2272 1.388 . S
C2274 C2275 1.366 . S
C2275 C2274 1.366 . S
C2275 C2276 1.414 . S
C2275 C2278 1.499 . S
C2276 H2256 0.950 . S
C2276 C2275 1.414 . S
C2276 C2277 1.374 . S
C2277 H2257 0.950 . S
C2277 C2273 1.385 . S
C2277 C2276 1.374 . S
C2278 C2275 1.499 . S
C2278 C2279 1.373 . S
C2278 C2280 1.389 . S
C2279 H2258 0.950 . S
C2279 C2278 1.373 . S
C2279 C2295 1.377 . S
C2280 C2278 1.389 . S
C2280 C2281 1.524 . S
C2280 C2294 1.377 . S
C2281 C2280 1.524 . S
C2281 C2282 1.397 . S
C2281 C2286 1.363 . S
C2282 H2259 0.950 . S
C2282 C2281 1.397 . S
C2282 C2283 1.334 . S
C2283 H2260 0.950 . S
C2283 C2282 1.334 . S
C2283 C2284 1.287 . S
C2284 C2283 1.287 . S
C2284 C2285 1.524 . S
C2284 H2303 0.913 . S
C2285 H2261 0.950 . S
C2285 C2284 1.524 . S
C2285 C2286 1.415 . S
C2286 H2262 0.950 . S
C2286 C2281 1.363 . S
C2286 C2285 1.415 . S
C2287 H2263 0.951 . S
C2287 C2288 1.366 . S
C2287 C2289 1.388 . S
C2288 C2287 1.366 . S
C2288 C2292 1.385 . S
C2289 H2264 0.951 . S
C2289 C2287 1.388 . S
C2289 C2290 1.366 . S
C2290 C2289 1.366 . S
C2290 C2291 1.414 . S
C2290 C2293 1.499 . S
C2291 H2265 0.950 . S
C2291 C2290 1.414 . S
C2291 C2292 1.374 . S
C2292 H2266 0.950 . S
C2292 C2288 1.385 . S
C2292 C2291 1.374 . S
C2293 C2290 1.499 . S
C2293 C2294 1.373 . S
C2293 C2295 1.389 . S
C2294 H2267 0.950 . S
C2294 C2280 1.377 . S
C2294 C2293 1.373 . S
C2295 C2279 1.377 . S
C2295 C2293 1.389 . S
C2295 C2296 1.524 . S
C2296 C2295 1.524 . S
C2296 C2297 1.397 . S
C2296 C2301 1.363 . S
C2297 H2268 0.950 . S
C2297 C2296 1.397 . S
C2297 C2298 1.334 . S
C2298 H2269 0.950 . S
C2298 C2297 1.334 . S
C2298 C2299 1.287 . S
C2299 C2298 1.287 . S
C2299 C2300 1.524 . S
C2299 H2302 0.999 . S
C2300 H2270 0.950 . S
C2300 C2299 1.524 . S
C2300 C2301 1.415 . S
C2301 H2271 0.950 . S
C2301 C2296 1.363 . S
C2301 C2300 1.415 . S
H2302 C2299 0.999 . S
H2303 C2284 0.913 . S
H2304 C2322 0.951 . S
H2305 C2324 0.951 . S
H2306 C2326 0.950 . S
H2307 C2327 0.950 . S
H2308 C2329 0.950 . S
H2309 C2332 0.950 . S
H2310 C2333 0.950 . S
H2311 C2335 0.950 . S
H2312 C2336 0.950 . S
H2313 C2337 0.951 . S
H2314 C2339 0.951 . S
H2315 C2341 0.950 . S
H2316 C2342 0.950 . S
H2317 C2344 0.950 . S
H2318 C2347 0.950 . S
H2319 C2348 0.950 . S
H2320 C2350 0.950 . S
H2321 C2351 0.950 . S
C2322 H2304 0.951 . S
C2322 C2323 1.366 . S
C2322 C2324 1.388 . S
C2323 C2322 1.366 . S
C2323 C2327 1.385 . S
C2324 H2305 0.951 . S
C2324 C2322 1.388 . S
C2324 C2325 1.366 . S
C2325 C2324 1.366 . S
C2325 C2326 1.414 . S
C2325 C2328 1.499 . S
C2326 H2306 0.950 . S
C2326 C2325 1.414 . S
C2326 C2327 1.374 . S
C2327 H2307 0.950 . S
C2327 C2323 1.385 . S
C2327 C2326 1.374 . S
C2328 C2325 1.499 . S
C2328 C2329 1.373 . S
C2328 C2330 1.389 . S
C2329 H2308 0.950 . S
C2329 C2328 1.373 . S
C2329 C2345 1.377 . S
C2330 C2328 1.389 . S
C2330 C2331 1.524 . S
C2330 C2344 1.377 . S
C2331 C2330 1.524 . S
C2331 C2332 1.397 . S
C2331 C2336 1.363 . S
C2332 H2309 0.950 . S
C2332 C2331 1.397 . S
C2332 C2333 1.334 . S
C2333 H2310 0.950 . S
C2333 C2332 1.334 . S
C2333 C2334 1.287 . S
C2334 C2333 1.287 . S
C2334 C2335 1.524 . S
C2334 H2353 0.913 . S
C2335 H2311 0.950 . S
C2335 C2334 1.524 . S
C2335 C2336 1.415 . S
C2336 H2312 0.950 . S
C2336 C2331 1.363 . S
C2336 C2335 1.415 . S
C2337 H2313 0.951 . S
C2337 C2338 1.366 . S
C2337 C2339 1.388 . S
C2338 C2337 1.366 . S
C2338 C2342 1.385 . S
C2339 H2314 0.951 . S
C2339 C2337 1.388 . S
C2339 C2340 1.366 . S
C2340 C2339 1.366 . S
C2340 C2341 1.414 . S
C2340 C2343 1.499 . S
C2341 H2315 0.950 . S
C2341 C2340 1.414 . S
C2341 C2342 1.374 . S
C2342 H2316 0.950 . S
C2342 C2338 1.385 . S
C2342 C2341 1.374 . S
C2343 C2340 1.499 . S
C2343 C2344 1.373 . S
C2343 C2345 1.389 . S
C2344 H2317 0.950 . S
C2344 C2330 1.377 . S
C2344 C2343 1.373 . S
C2345 C2329 1.377 . S
C2345 C2343 1.389 . S
C2345 C2346 1.524 . S
C2346 C2345 1.524 . S
C2346 C2347 1.397 . S
C2346 C2351 1.363 . S
C2347 H2318 0.950 . S
C2347 C2346 1.397 . S
C2347 C2348 1.334 . S
C2348 H2319 0.950 . S
C2348 C2347 1.334 . S
C2348 C2349 1.287 . S
C2349 C2348 1.287 . S
C2349 C2350 1.524 . S
C2349 H2352 0.999 . S
C2350 H2320 0.950 . S
C2350 C2349 1.524 . S
C2350 C2351 1.415 . S
C2351 H2321 0.950 . S
C2351 C2346 1.363 . S
C2351 C2350 1.415 . S
H2352 C2349 0.999 . S
H2353 C2334 0.913 . S
H2354 C2372 0.951 . S
H2355 C2374 0.951 . S
H2356 C2376 0.950 . S
H2357 C2377 0.950 . S
H2358 C2379 0.950 . S
H2359 C2382 0.950 . S
H2360 C2383 0.950 . S
H2361 C2385 0.950 . S
H2362 C2386 0.950 . S
H2363 C2387 0.951 . S
H2364 C2389 0.951 . S
H2365 C2391 0.950 . S
H2366 C2392 0.950 . S
H2367 C2394 0.950 . S
H2368 C2397 0.950 . S
H2369 C2398 0.950 . S
H2370 C2400 0.950 . S
H2371 C2401 0.950 . S
C2372 H2354 0.951 . S
C2372 C2373 1.366 . S
C2372 C2374 1.388 . S
C2373 C2372 1.366 . S
C2373 C2377 1.385 . S
C2374 H2355 0.951 . S
C2374 C2372 1.388 . S
C2374 C2375 1.366 . S
C2375 C2374 1.366 . S
C2375 C2376 1.414 . S
C2375 C2378 1.499 . S
C2376 H2356 0.950 . S
C2376 C2375 1.414 . S
C2376 C2377 1.374 . S
C2377 H2357 0.950 . S
C2377 C2373 1.385 . S
C2377 C2376 1.374 . S
C2378 C2375 1.499 . S
C2378 C2379 1.373 . S
C2378 C2380 1.389 . S
C2379 H2358 0.950 . S
C2379 C2378 1.373 . S
C2379 C2395 1.377 1_565 S
C2380 C2378 1.389 . S
C2380 C2381 1.524 . S
C2380 C2394 1.377 1_565 S
C2381 C2380 1.524 . S
C2381 C2382 1.397 . S
C2381 C2386 1.363 1_565 S
C2382 H2359 0.950 . S
C2382 C2381 1.397 . S
C2382 C2383 1.334 . S
C2383 H2360 0.950 . S
C2383 C2382 1.334 . S
C2383 C2384 1.287 . S
C2384 C2383 1.287 . S
C2384 C2385 1.524 1_565 S
C2384 H2403 0.913 . S
C2385 H2361 0.950 . S
C2385 C2384 1.524 1_545 S
C2385 C2386 1.415 . S
C2386 H2362 0.950 . S
C2386 C2381 1.363 1_545 S
C2386 C2385 1.415 . S
C2387 H2363 0.951 . S
C2387 C2388 1.366 . S
C2387 C2389 1.388 . S
C2388 C2387 1.366 . S
C2388 C2392 1.385 . S
C2389 H2364 0.951 . S
C2389 C2387 1.388 . S
C2389 C2390 1.366 . S
C2390 C2389 1.366 . S
C2390 C2391 1.414 . S
C2390 C2393 1.499 . S
C2391 H2365 0.950 . S
C2391 C2390 1.414 . S
C2391 C2392 1.374 . S
C2392 H2366 0.950 . S
C2392 C2388 1.385 . S
C2392 C2391 1.374 . S
C2393 C2390 1.499 . S
C2393 C2394 1.373 . S
C2393 C2395 1.389 . S
C2394 H2367 0.950 . S
C2394 C2380 1.377 1_545 S
C2394 C2393 1.373 . S
C2395 C2379 1.377 1_545 S
C2395 C2393 1.389 . S
C2395 C2396 1.524 . S
C2396 C2395 1.524 . S
C2396 C2397 1.397 . S
C2396 C2401 1.363 1_545 S
C2397 H2368 0.950 . S
C2397 C2396 1.397 . S
C2397 C2398 1.334 . S
C2398 H2369 0.950 . S
C2398 C2397 1.334 . S
C2398 C2399 1.287 . S
C2399 C2398 1.287 . S
C2399 C2400 1.524 1_545 S
C2399 H2402 0.999 . S
C2400 H2370 0.950 . S
C2400 C2399 1.524 1_565 S
C2400 C2401 1.415 . S
C2401 H2371 0.950 . S
C2401 C2396 1.363 1_565 S
C2401 C2400 1.415 . S
H2402 C2399 0.999 . S
H2403 C2384 0.913 . S
H2404 C2422 0.951 . S
H2405 C2424 0.951 . S
H2406 C2426 0.950 . S
H2407 C2427 0.950 . S
H2408 C2429 0.950 . S
H2409 C2432 0.950 . S
H2410 C2433 0.950 . S
H2411 C2435 0.950 . S
H2412 C2436 0.950 . S
H2413 C2437 0.951 . S
H2414 C2439 0.951 . S
H2415 C2441 0.950 . S
H2416 C2442 0.950 . S
H2417 C2444 0.950 . S
H2418 C2447 0.950 . S
H2419 C2448 0.950 . S
H2420 C2450 0.950 . S
H2421 C2451 0.950 . S
C2422 H2404 0.951 . S
C2422 C2423 1.366 . S
C2422 C2424 1.388 . S
C2423 C2422 1.366 . S
C2423 C2427 1.385 . S
C2424 H2405 0.951 . S
C2424 C2422 1.388 . S
C2424 C2425 1.366 . S
C2425 C2424 1.366 . S
C2425 C2426 1.414 . S
C2425 C2428 1.499 . S
C2426 H2406 0.950 . S
C2426 C2425 1.414 . S
C2426 C2427 1.374 . S
C2427 H2407 0.950 . S
C2427 C2423 1.385 . S
C2427 C2426 1.374 . S
C2428 C2425 1.499 . S
C2428 C2429 1.373 . S
C2428 C2430 1.389 1_655 S
C2429 H2408 0.950 . S
C2429 C2428 1.373 . S
C2429 C2445 1.377 . S
C2430 C2428 1.389 1_455 S
C2430 C2431 1.524 . S
C2430 C2444 1.377 . S
C2431 C2430 1.524 . S
C2431 C2432 1.397 . S
C2431 C2436 1.363 . S
C2432 H2409 0.950 . S
C2432 C2431 1.397 . S
C2432 C2433 1.334 . S
C2433 H2410 0.950 . S
C2433 C2432 1.334 . S
C2433 C2434 1.287 . S
C2434 C2433 1.287 . S
C2434 C2435 1.524 . S
C2434 H2453 0.913 . S
C2435 H2411 0.950 . S
C2435 C2434 1.524 . S
C2435 C2436 1.415 . S
C2436 H2412 0.950 . S
C2436 C2431 1.363 . S
C2436 C2435 1.415 . S
C2437 H2413 0.951 . S
C2437 C2438 1.366 . S
C2437 C2439 1.388 . S
C2438 C2437 1.366 . S
C2438 C2442 1.385 . S
C2439 H2414 0.951 . S
C2439 C2437 1.388 . S
C2439 C2440 1.366 . S
C2440 C2439 1.366 . S
C2440 C2441 1.414 . S
C2440 C2443 1.499 . S
C2441 H2415 0.950 . S
C2441 C2440 1.414 . S
C2441 C2442 1.374 . S
C2442 H2416 0.950 . S
C2442 C2438 1.385 . S
C2442 C2441 1.374 . S
C2443 C2440 1.499 . S
C2443 C2444 1.373 . S
C2443 C2445 1.389 1_455 S
C2444 H2417 0.950 . S
C2444 C2430 1.377 . S
C2444 C2443 1.373 . S
C2445 C2429 1.377 . S
C2445 C2443 1.389 1_655 S
C2445 C2446 1.524 . S
C2446 C2445 1.524 . S
C2446 C2447 1.397 . S
C2446 C2451 1.363 . S
C2447 H2418 0.950 . S
C2447 C2446 1.397 . S
C2447 C2448 1.334 . S
C2448 H2419 0.950 . S
C2448 C2447 1.334 . S
C2448 C2449 1.287 . S
C2449 C2448 1.287 . S
C2449 C2450 1.524 . S
C2449 H2452 0.999 . S
C2450 H2420 0.950 . S
C2450 C2449 1.524 . S
C2450 C2451 1.415 . S
C2451 H2421 0.950 . S
C2451 C2446 1.363 . S
C2451 C2450 1.415 . S
H2452 C2449 0.999 . S
H2453 C2434 0.913 . S
H2454 C2472 0.951 . S
H2455 C2474 0.951 . S
H2456 C2476 0.950 . S
H2457 C2477 0.950 . S
H2458 C2479 0.950 . S
H2459 C2482 0.950 . S
H2460 C2483 0.950 . S
H2461 C2485 0.950 . S
H2462 C2486 0.950 . S
H2463 C2487 0.951 . S
H2464 C2489 0.951 . S
H2465 C2491 0.950 . S
H2466 C2492 0.950 . S
H2467 C2494 0.950 . S
H2468 C2497 0.950 . S
H2469 C2498 0.950 . S
H2470 C2500 0.950 . S
H2471 C2501 0.950 . S
C2472 H2454 0.951 . S
C2472 C2473 1.366 . S
C2472 C2474 1.388 . S
C2473 C2472 1.366 . S
C2473 C2477 1.385 . S
C2474 H2455 0.951 . S
C2474 C2472 1.388 . S
C2474 C2475 1.366 . S
C2475 C2474 1.366 . S
C2475 C2476 1.414 . S
C2475 C2478 1.499 . S
C2476 H2456 0.950 . S
C2476 C2475 1.414 . S
C2476 C2477 1.374 . S
C2477 H2457 0.950 . S
C2477 C2473 1.385 . S
C2477 C2476 1.374 . S
C2478 C2475 1.499 . S
C2478 C2479 1.373 . S
C2478 C2480 1.389 . S
C2479 H2458 0.950 . S
C2479 C2478 1.373 . S
C2479 C2495 1.377 . S
C2480 C2478 1.389 . S
C2480 C2481 1.524 . S
C2480 C2494 1.377 . S
C2481 C2480 1.524 . S
C2481 C2482 1.397 . S
C2481 C2486 1.363 . S
C2482 H2459 0.950 . S
C2482 C2481 1.397 . S
C2482 C2483 1.334 . S
C2483 H2460 0.950 . S
C2483 C2482 1.334 . S
C2483 C2484 1.287 . S
C2484 C2483 1.287 . S
C2484 C2485 1.524 . S
C2484 H2503 0.913 . S
C2485 H2461 0.950 . S
C2485 C2484 1.524 . S
C2485 C2486 1.415 . S
C2486 H2462 0.950 . S
C2486 C2481 1.363 . S
C2486 C2485 1.415 . S
C2487 H2463 0.951 . S
C2487 C2488 1.366 . S
C2487 C2489 1.388 . S
C2488 C2487 1.366 . S
C2488 C2492 1.385 . S
C2489 H2464 0.951 . S
C2489 C2487 1.388 . S
C2489 C2490 1.366 . S
C2490 C2489 1.366 . S
C2490 C2491 1.414 . S
C2490 C2493 1.499 . S
C2491 H2465 0.950 . S
C2491 C2490 1.414 . S
C2491 C2492 1.374 . S
C2492 H2466 0.950 . S
C2492 C2488 1.385 . S
C2492 C2491 1.374 . S
C2493 C2490 1.499 . S
C2493 C2494 1.373 . S
C2493 C2495 1.389 . S
C2494 H2467 0.950 . S
C2494 C2480 1.377 . S
C2494 C2493 1.373 . S
C2495 C2479 1.377 . S
C2495 C2493 1.389 . S
C2495 C2496 1.524 . S
C2496 C2495 1.524 . S
C2496 C2497 1.397 . S
C2496 C2501 1.363 . S
C2497 H2468 0.950 . S
C2497 C2496 1.397 . S
C2497 C2498 1.334 . S
C2498 H2469 0.950 . S
C2498 C2497 1.334 . S
C2498 C2499 1.287 . S
C2499 C2498 1.287 . S
C2499 C2500 1.524 . S
C2499 H2502 0.999 . S
C2500 H2470 0.950 . S
C2500 C2499 1.524 . S
C2500 C2501 1.415 . S
C2501 H2471 0.950 . S
C2501 C2496 1.363 . S
C2501 C2500 1.415 . S
H2502 C2499 0.999 . S
H2503 C2484 0.913 . S
H2504 C2522 0.951 . S
H2505 C2524 0.951 . S
H2506 C2526 0.950 . S
H2507 C2527 0.950 . S
H2508 C2529 0.950 . S
H2509 C2532 0.950 . S
H2510 C2533 0.950 . S
H2511 C2535 0.950 . S
H2512 C2536 0.950 . S
H2513 C2537 0.951 . S
H2514 C2539 0.951 . S
H2515 C2541 0.950 . S
H2516 C2542 0.950 . S
H2517 C2544 0.950 . S
H2518 C2547 0.950 . S
H2519 C2548 0.950 . S
H2520 C2550 0.950 . S
H2521 C2551 0.950 . S
C2522 H2504 0.951 . S
C2522 C2523 1.366 . S
C2522 C2524 1.388 . S
C2523 C2522 1.366 . S
C2523 C2527 1.385 . S
C2524 H2505 0.951 . S
C2524 C2522 1.388 . S
C2524 C2525 1.366 . S
C2525 C2524 1.366 . S
C2525 C2526 1.414 . S
C2525 C2528 1.499 . S
C2526 H2506 0.950 . S
C2526 C2525 1.414 . S
C2526 C2527 1.374 . S
C2527 H2507 0.950 . S
C2527 C2523 1.385 . S
C2527 C2526 1.374 . S
C2528 C2525 1.499 . S
C2528 C2529 1.373 1_545 S
C2528 C2530 1.389 . S
C2529 H2508 0.950 . S
C2529 C2528 1.373 1_565 S
C2529 C2545 1.377 . S
C2530 C2528 1.389 . S
C2530 C2531 1.524 . S
C2530 C2544 1.377 . S
C2531 C2530 1.524 . S
C2531 C2532 1.397 . S
C2531 C2536 1.363 . S
C2532 H2509 0.950 . S
C2532 C2531 1.397 . S
C2532 C2533 1.334 . S
C2533 H2510 0.950 . S
C2533 C2532 1.334 . S
C2533 C2534 1.287 . S
C2534 C2533 1.287 . S
C2534 C2535 1.524 . S
C2534 H2553 0.913 . S
C2535 H2511 0.950 . S
C2535 C2534 1.524 . S
C2535 C2536 1.415 . S
C2536 H2512 0.950 . S
C2536 C2531 1.363 . S
C2536 C2535 1.415 . S
C2537 H2513 0.951 . S
C2537 C2538 1.366 . S
C2537 C2539 1.388 . S
C2538 C2537 1.366 . S
C2538 C2542 1.385 . S
C2539 H2514 0.951 . S
C2539 C2537 1.388 . S
C2539 C2540 1.366 . S
C2540 C2539 1.366 . S
C2540 C2541 1.414 . S
C2540 C2543 1.499 . S
C2541 H2515 0.950 . S
C2541 C2540 1.414 . S
C2541 C2542 1.374 . S
C2542 H2516 0.950 . S
C2542 C2538 1.385 . S
C2542 C2541 1.374 . S
C2543 C2540 1.499 . S
C2543 C2544 1.373 1_565 S
C2543 C2545 1.389 . S
C2544 H2517 0.950 . S
C2544 C2530 1.377 . S
C2544 C2543 1.373 1_545 S
C2545 C2529 1.377 . S
C2545 C2543 1.389 . S
C2545 C2546 1.524 . S
C2546 C2545 1.524 . S
C2546 C2547 1.397 . S
C2546 C2551 1.363 . S
C2547 H2518 0.950 . S
C2547 C2546 1.397 . S
C2547 C2548 1.334 . S
C2548 H2519 0.950 . S
C2548 C2547 1.334 . S
C2548 C2549 1.287 . S
C2549 C2548 1.287 . S
C2549 C2550 1.524 . S
C2549 H2552 0.999 . S
C2550 H2520 0.950 . S
C2550 C2549 1.524 . S
C2550 C2551 1.415 . S
C2551 H2521 0.950 . S
C2551 C2546 1.363 . S
C2551 C2550 1.415 . S
H2552 C2549 0.999 . S
H2553 C2534 0.913 . S
H2554 C2572 0.951 . S
H2555 C2574 0.951 . S
H2556 C2576 0.950 . S
H2557 C2577 0.950 . S
H2558 C2579 0.950 . S
H2559 C2582 0.950 . S
H2560 C2583 0.950 . S
H2561 C2585 0.950 . S
H2562 C2586 0.950 . S
H2563 C2587 0.951 . S
H2564 C2589 0.951 . S
H2565 C2591 0.950 . S
H2566 C2592 0.950 . S
H2567 C2594 0.950 . S
H2568 C2597 0.950 . S
H2569 C2598 0.950 . S
H2570 C2600 0.950 . S
H2571 C2601 0.950 . S
C2572 H2554 0.951 . S
C2572 C2573 1.366 . S
C2572 C2574 1.388 . S
C2573 C2572 1.366 . S
C2573 C2577 1.385 . S
C2574 H2555 0.951 . S
C2574 C2572 1.388 . S
C2574 C2575 1.366 . S
C2575 C2574 1.366 . S
C2575 C2576 1.414 . S
C2575 C2578 1.499 . S
C2576 H2556 0.950 . S
C2576 C2575 1.414 . S
C2576 C2577 1.374 . S
C2577 H2557 0.950 . S
C2577 C2573 1.385 . S
C2577 C2576 1.374 . S
C2578 C2575 1.499 . S
C2578 C2579 1.373 . S
C2578 C2580 1.389 . S
C2579 H2558 0.950 . S
C2579 C2578 1.373 . S
C2579 C2595 1.377 1_655 S
C2580 C2578 1.389 . S
C2580 C2581 1.524 . S
C2580 C2594 1.377 1_655 S
C2581 C2580 1.524 . S
C2581 C2582 1.397 . S
C2581 C2586 1.363 . S
C2582 H2559 0.950 . S
C2582 C2581 1.397 . S
C2582 C2583 1.334 . S
C2583 H2560 0.950 . S
C2583 C2582 1.334 . S
C2583 C2584 1.287 . S
C2584 C2583 1.287 . S
C2584 C2585 1.524 . S
C2584 H2603 0.913 . S
C2585 H2561 0.950 . S
C2585 C2584 1.524 . S
C2585 C2586 1.415 . S
C2586 H2562 0.950 . S
C2586 C2581 1.363 . S
C2586 C2585 1.415 . S
C2587 H2563 0.951 . S
C2587 C2588 1.366 . S
C2587 C2589 1.388 . S
C2588 C2587 1.366 . S
C2588 C2592 1.385 . S
C2589 H2564 0.951 . S
C2589 C2587 1.388 . S
C2589 C2590 1.366 . S
C2590 C2589 1.366 . S
C2590 C2591 1.414 . S
C2590 C2593 1.499 . S
C2591 H2565 0.950 . S
C2591 C2590 1.414 . S
C2591 C2592 1.374 . S
C2592 H2566 0.950 . S
C2592 C2588 1.385 . S
C2592 C2591 1.374 . S
C2593 C2590 1.499 . S
C2593 C2594 1.373 . S
C2593 C2595 1.389 . S
C2594 H2567 0.950 . S
C2594 C2580 1.377 1_455 S
C2594 C2593 1.373 . S
C2595 C2579 1.377 1_455 S
C2595 C2593 1.389 . S
C2595 C2596 1.524 . S
C2596 C2595 1.524 . S
C2596 C2597 1.397 . S
C2596 C2601 1.363 . S
C2597 H2568 0.950 . S
C2597 C2596 1.397 . S
C2597 C2598 1.334 . S
C2598 H2569 0.950 . S
C2598 C2597 1.334 . S
C2598 C2599 1.287 . S
C2599 C2598 1.287 . S
C2599 C2600 1.524 . S
C2599 H2602 0.999 . S
C2600 H2570 0.950 . S
C2600 C2599 1.524 . S
C2600 C2601 1.415 . S
C2601 H2571 0.950 . S
C2601 C2596 1.363 . S
C2601 C2600 1.415 . S
H2602 C2599 0.999 . S
H2603 C2584 0.913 . S
H2604 C2622 0.951 . S
H2605 C2624 0.951 . S
H2606 C2626 0.950 . S
H2607 C2627 0.950 . S
H2608 C2629 0.950 . S
H2609 C2632 0.950 . S
H2610 C2633 0.950 . S
H2611 C2635 0.950 . S
H2612 C2636 0.950 . S
H2613 C2637 0.951 . S
H2614 C2639 0.951 . S
H2615 C2641 0.950 . S
H2616 C2642 0.950 . S
H2617 C2644 0.950 . S
H2618 C2647 0.950 . S
H2619 C2648 0.950 . S
H2620 C2650 0.950 . S
H2621 C2651 0.950 . S
C2622 H2604 0.951 . S
C2622 C2623 1.366 . S
C2622 C2624 1.388 . S
C2623 C2622 1.366 . S
C2623 C2627 1.385 . S
C2624 H2605 0.951 . S
C2624 C2622 1.388 . S
C2624 C2625 1.366 . S
C2625 C2624 1.366 . S
C2625 C2626 1.414 . S
C2625 C2628 1.499 . S
C2626 H2606 0.950 . S
C2626 C2625 1.414 . S
C2626 C2627 1.374 . S
C2627 H2607 0.950 . S
C2627 C2623 1.385 . S
C2627 C2626 1.374 . S
C2628 C2625 1.499 . S
C2628 C2629 1.373 . S
C2628 C2630 1.389 . S
C2629 H2608 0.950 . S
C2629 C2628 1.373 . S
C2629 C2645 1.377 . S
C2630 C2628 1.389 . S
C2630 C2631 1.524 . S
C2630 C2644 1.377 . S
C2631 C2630 1.524 . S
C2631 C2632 1.397 . S
C2631 C2636 1.363 . S
C2632 H2609 0.950 . S
C2632 C2631 1.397 . S
C2632 C2633 1.334 . S
C2633 H2610 0.950 . S
C2633 C2632 1.334 . S
C2633 C2634 1.287 . S
C2634 C2633 1.287 . S
C2634 C2635 1.524 . S
C2634 H2653 0.913 . S
C2635 H2611 0.950 . S
C2635 C2634 1.524 . S
C2635 C2636 1.415 . S
C2636 H2612 0.950 . S
C2636 C2631 1.363 . S
C2636 C2635 1.415 . S
C2637 H2613 0.951 . S
C2637 C2638 1.366 . S
C2637 C2639 1.388 . S
C2638 C2637 1.366 . S
C2638 C2642 1.385 . S
C2639 H2614 0.951 . S
C2639 C2637 1.388 . S
C2639 C2640 1.366 . S
C2640 C2639 1.366 . S
C2640 C2641 1.414 . S
C2640 C2643 1.499 . S
C2641 H2615 0.950 . S
C2641 C2640 1.414 . S
C2641 C2642 1.374 . S
C2642 H2616 0.950 . S
C2642 C2638 1.385 . S
C2642 C2641 1.374 . S
C2643 C2640 1.499 . S
C2643 C2644 1.373 . S
C2643 C2645 1.389 . S
C2644 H2617 0.950 . S
C2644 C2630 1.377 . S
C2644 C2643 1.373 . S
C2645 C2629 1.377 . S
C2645 C2643 1.389 . S
C2645 C2646 1.524 . S
C2646 C2645 1.524 . S
C2646 C2647 1.397 . S
C2646 C2651 1.363 . S
C2647 H2618 0.950 . S
C2647 C2646 1.397 . S
C2647 C2648 1.334 . S
C2648 H2619 0.950 . S
C2648 C2647 1.334 . S
C2648 C2649 1.287 . S
C2649 C2648 1.287 . S
C2649 C2650 1.524 . S
C2649 H2652 0.999 . S
C2650 H2620 0.950 . S
C2650 C2649 1.524 . S
C2650 C2651 1.415 . S
C2651 H2621 0.950 . S
C2651 C2646 1.363 . S
C2651 C2650 1.415 . S
H2652 C2649 0.999 . S
H2653 C2634 0.913 . S
H2654 C2672 0.951 . S
H2655 C2674 0.951 . S
H2656 C2676 0.950 . S
H2657 C2677 0.950 . S
H2658 C2679 0.950 . S
H2659 C2682 0.950 . S
H2660 C2683 0.950 . S
H2661 C2685 0.950 . S
H2662 C2686 0.950 . S
H2663 C2687 0.951 . S
H2664 C2689 0.951 . S
H2665 C2691 0.950 . S
H2666 C2692 0.950 . S
H2667 C2694 0.950 . S
H2668 C2697 0.950 . S
H2669 C2698 0.950 . S
H2670 C2700 0.950 . S
H2671 C2701 0.950 . S
C2672 H2654 0.951 . S
C2672 C2673 1.366 . S
C2672 C2674 1.388 . S
C2673 C2672 1.366 . S
C2673 C2677 1.385 . S
C2674 H2655 0.951 . S
C2674 C2672 1.388 . S
C2674 C2675 1.366 . S
C2675 C2674 1.366 . S
C2675 C2676 1.414 . S
C2675 C2678 1.499 . S
C2676 H2656 0.950 . S
C2676 C2675 1.414 . S
C2676 C2677 1.374 . S
C2677 H2657 0.950 . S
C2677 C2673 1.385 . S
C2677 C2676 1.374 . S
C2678 C2675 1.499 . S
C2678 C2679 1.373 . S
C2678 C2680 1.389 . S
C2679 H2658 0.950 . S
C2679 C2678 1.373 . S
C2679 C2695 1.377 . S
C2680 C2678 1.389 . S
C2680 C2681 1.524 . S
C2680 C2694 1.377 . S
C2681 C2680 1.524 . S
C2681 C2682 1.397 . S
C2681 C2686 1.363 . S
C2682 H2659 0.950 . S
C2682 C2681 1.397 . S
C2682 C2683 1.334 . S
C2683 H2660 0.950 . S
C2683 C2682 1.334 . S
C2683 C2684 1.287 . S
C2684 C2683 1.287 . S
C2684 C2685 1.524 . S
C2684 H2703 0.913 . S
C2685 H2661 0.950 . S
C2685 C2684 1.524 . S
C2685 C2686 1.415 . S
C2686 H2662 0.950 . S
C2686 C2681 1.363 . S
C2686 C2685 1.415 . S
C2687 H2663 0.951 . S
C2687 C2688 1.366 . S
C2687 C2689 1.388 . S
C2688 C2687 1.366 . S
C2688 C2692 1.385 . S
C2689 H2664 0.951 . S
C2689 C2687 1.388 . S
C2689 C2690 1.366 . S
C2690 C2689 1.366 . S
C2690 C2691 1.414 . S
C2690 C2693 1.499 . S
C2691 H2665 0.950 . S
C2691 C2690 1.414 . S
C2691 C2692 1.374 . S
C2692 H2666 0.950 . S
C2692 C2688 1.385 . S
C2692 C2691 1.374 . S
C2693 C2690 1.499 . S
C2693 C2694 1.373 . S
C2693 C2695 1.389 . S
C2694 H2667 0.950 . S
C2694 C2680 1.377 . S
C2694 C2693 1.373 . S
C2695 C2679 1.377 . S
C2695 C2693 1.389 . S
C2695 C2696 1.524 . S
C2696 C2695 1.524 . S
C2696 C2697 1.397 . S
C2696 C2701 1.363 . S
C2697 H2668 0.950 . S
C2697 C2696 1.397 . S
C2697 C2698 1.334 . S
C2698 H2669 0.950 . S
C2698 C2697 1.334 . S
C2698 C2699 1.287 . S
C2699 C2698 1.287 . S
C2699 C2700 1.524 . S
C2699 H2702 0.999 . S
C2700 H2670 0.950 . S
C2700 C2699 1.524 . S
C2700 C2701 1.415 . S
C2701 H2671 0.950 . S
C2701 C2696 1.363 . S
C2701 C2700 1.415 . S
H2702 C2699 0.999 . S
H2703 C2684 0.913 . S
H2704 C2722 0.951 . S
H2705 C2724 0.951 . S
H2706 C2726 0.950 . S
H2707 C2727 0.950 . S
H2708 C2729 0.950 . S
H2709 C2732 0.950 . S
H2710 C2733 0.950 . S
H2711 C2735 0.950 . S
H2712 C2736 0.950 . S
H2713 C2737 0.951 . S
H2714 C2739 0.951 . S
H2715 C2741 0.950 . S
H2716 C2742 0.950 . S
H2717 C2744 0.950 . S
H2718 C2747 0.950 . S
H2719 C2748 0.950 . S
H2720 C2750 0.950 . S
H2721 C2751 0.950 . S
C2722 H2704 0.951 . S
C2722 C2723 1.366 . S
C2722 C2724 1.388 . S
C2723 C2722 1.366 . S
C2723 C2727 1.385 . S
C2724 H2705 0.951 . S
C2724 C2722 1.388 . S
C2724 C2725 1.366 . S
C2725 C2724 1.366 . S
C2725 C2726 1.414 . S
C2725 C2728 1.499 . S
C2726 H2706 0.950 . S
C2726 C2725 1.414 . S
C2726 C2727 1.374 . S
C2727 H2707 0.950 . S
C2727 C2723 1.385 . S
C2727 C2726 1.374 . S
C2728 C2725 1.499 . S
C2728 C2729 1.373 . S
C2728 C2730 1.389 . S
C2729 H2708 0.950 . S
C2729 C2728 1.373 . S
C2729 C2745 1.377 . S
C2730 C2728 1.389 . S
C2730 C2731 1.524 . S
C2730 C2744 1.377 . S
C2731 C2730 1.524 . S
C2731 C2732 1.397 . S
C2731 C2736 1.363 . S
C2732 H2709 0.950 . S
C2732 C2731 1.397 . S
C2732 C2733 1.334 . S
C2733 H2710 0.950 . S
C2733 C2732 1.334 . S
C2733 C2734 1.287 . S
C2734 C2733 1.287 . S
C2734 C2735 1.524 . S
C2734 H2753 0.913 . S
C2735 H2711 0.950 . S
C2735 C2734 1.524 . S
C2735 C2736 1.415 . S
C2736 H2712 0.950 . S
C2736 C2731 1.363 . S
C2736 C2735 1.415 . S
C2737 H2713 0.951 . S
C2737 C2738 1.366 . S
C2737 C2739 1.388 . S
C2738 C2737 1.366 . S
C2738 C2742 1.385 . S
C2739 H2714 0.951 . S
C2739 C2737 1.388 . S
C2739 C2740 1.366 . S
C2740 C2739 1.366 . S
C2740 C2741 1.414 . S
C2740 C2743 1.499 . S
C2741 H2715 0.950 . S
C2741 C2740 1.414 . S
C2741 C2742 1.374 . S
C2742 H2716 0.950 . S
C2742 C2738 1.385 . S
C2742 C2741 1.374 . S
C2743 C2740 1.499 . S
C2743 C2744 1.373 . S
C2743 C2745 1.389 . S
C2744 H2717 0.950 . S
C2744 C2730 1.377 . S
C2744 C2743 1.373 . S
C2745 C2729 1.377 . S
C2745 C2743 1.389 . S
C2745 C2746 1.524 . S
C2746 C2745 1.524 . S
C2746 C2747 1.397 . S
C2746 C2751 1.363 . S
C2747 H2718 0.950 . S
C2747 C2746 1.397 . S
C2747 C2748 1.334 . S
C2748 H2719 0.950 . S
C2748 C2747 1.334 . S
C2748 C2749 1.287 . S
C2749 C2748 1.287 . S
C2749 C2750 1.524 . S
C2749 H2752 0.999 . S
C2750 H2720 0.950 . S
C2750 C2749 1.524 . S
C2750 C2751 1.415 . S
C2751 H2721 0.950 . S
C2751 C2746 1.363 . S
C2751 C2750 1.415 . S
H2752 C2749 0.999 . S
H2753 C2734 0.913 . S
H2754 C2772 0.951 . S
H2755 C2774 0.951 . S
H2756 C2776 0.950 . S
H2757 C2777 0.932 1_556 S
H2758 C2779 0.950 . S
H2759 C2782 0.950 . S
H2760 C2783 0.950 . S
H2761 C2785 0.950 . S
H2762 C2786 0.950 . S
H2763 C2787 0.951 . S
H2764 C2789 0.951 . S
H2765 C2791 0.950 . S
H2766 C2792 0.950 . S
H2767 C2794 0.950 . S
H2768 C2797 0.950 . S
H2769 C2798 0.950 . S
H2770 C2800 0.950 . S
H2771 C2801 0.950 . S
C2772 H2754 0.951 . S
C2772 C2773 1.366 1_554 S
C2772 C2774 1.388 . S
C2773 C2772 1.366 1_556 S
C2773 C2777 1.385 1_556 S
C2774 H2755 0.951 . S
C2774 C2772 1.388 . S
C2774 C2775 1.366 . S
C2775 C2774 1.366 . S
C2775 C2776 1.414 . S
C2775 C2778 1.499 . S
C2776 H2756 0.950 . S
C2776 C2775 1.414 . S
C2776 C2777 1.374 . S
C2777 H2757 0.932 1_554 S
C2777 C2773 1.385 1_554 S
C2777 C2776 1.374 . S
C2778 C2775 1.499 . S
C2778 C2779 1.373 . S
C2778 C2780 1.389 . S
C2779 H2758 0.950 . S
C2779 C2778 1.373 . S
C2779 C2795 1.377 . S
C2780 C2778 1.389 . S
C2780 C2781 1.524 . S
C2780 C2794 1.377 . S
C2781 C2780 1.524 . S
C2781 C2782 1.397 . S
C2781 C2786 1.363 . S
C2782 H2759 0.950 . S
C2782 C2781 1.397 . S
C2782 C2783 1.334 . S
C2783 H2760 0.950 . S
C2783 C2782 1.334 . S
C2783 C2784 1.287 . S
C2784 C2783 1.287 . S
C2784 C2785 1.524 . S
C2784 H2803 0.913 . S
C2785 H2761 0.950 . S
C2785 C2784 1.524 . S
C2785 C2786 1.415 . S
C2786 H2762 0.950 . S
C2786 C2781 1.363 . S
C2786 C2785 1.415 . S
C2787 H2763 0.951 . S
C2787 C2788 1.366 . S
C2787 C2789 1.388 . S
C2788 C2787 1.366 . S
C2788 C2792 1.385 . S
C2789 H2764 0.951 . S
C2789 C2787 1.388 . S
C2789 C2790 1.366 . S
C2790 C2789 1.366 . S
C2790 C2791 1.414 . S
C2790 C2793 1.499 . S
C2791 H2765 0.950 . S
C2791 C2790 1.414 . S
C2791 C2792 1.374 . S
C2792 H2766 0.950 . S
C2792 C2788 1.385 . S
C2792 C2791 1.374 . S
C2793 C2790 1.499 . S
C2793 C2794 1.373 . S
C2793 C2795 1.389 . S
C2794 H2767 0.950 . S
C2794 C2780 1.377 . S
C2794 C2793 1.373 . S
C2795 C2779 1.377 . S
C2795 C2793 1.389 . S
C2795 C2796 1.524 . S
C2796 C2795 1.524 . S
C2796 C2797 1.397 . S
C2796 C2801 1.363 . S
C2797 H2768 0.950 . S
C2797 C2796 1.397 . S
C2797 C2798 1.334 . S
C2798 H2769 0.950 . S
C2798 C2797 1.334 . S
C2798 C2799 1.287 . S
C2799 C2798 1.287 . S
C2799 C2800 1.524 . S
C2799 H2802 0.999 . S
C2800 H2770 0.950 . S
C2800 C2799 1.524 . S
C2800 C2801 1.415 . S
C2801 H2771 0.950 . S
C2801 C2796 1.363 . S
C2801 C2800 1.415 . S
H2802 C2799 0.999 . S
H2803 C2784 0.913 . S
H2804 C2822 0.951 . S
H2805 C2824 0.951 . S
H2806 C2826 0.950 . S
H2807 C2827 0.950 . S
H2808 C2829 0.950 . S
H2809 C2832 0.950 . S
H2810 C2833 0.950 . S
H2811 C2835 0.950 . S
H2812 C2836 0.950 . S
H2813 C2837 0.951 . S
H2814 C2839 0.951 . S
H2815 C2841 0.950 . S
H2816 C2842 0.950 . S
H2817 C2844 0.950 . S
H2818 C2847 0.950 . S
H2819 C2848 0.950 . S
H2820 C2850 0.950 . S
H2821 C2851 0.950 . S
C2822 H2804 0.951 . S
C2822 C2823 1.366 . S
C2822 C2824 1.388 1_556 S
C2823 C2822 1.366 . S
C2823 C2827 1.385 1_556 S
C2824 H2805 0.951 . S
C2824 C2822 1.388 1_554 S
C2824 C2825 1.366 . S
C2825 C2824 1.366 . S
C2825 C2826 1.414 . S
C2825 C2828 1.499 . S
C2826 H2806 0.950 . S
C2826 C2825 1.414 . S
C2826 C2827 1.374 . S
C2827 H2807 0.950 . S
C2827 C2823 1.385 1_554 S
C2827 C2826 1.374 . S
C2828 C2825 1.499 . S
C2828 C2829 1.373 . S
C2828 C2830 1.389 . S
C2829 H2808 0.950 . S
C2829 C2828 1.373 . S
C2829 C2845 1.377 . S
C2830 C2828 1.389 . S
C2830 C2831 1.524 . S
C2830 C2844 1.377 . S
C2831 C2830 1.524 . S
C2831 C2832 1.397 . S
C2831 C2836 1.363 . S
C2832 H2809 0.950 . S
C2832 C2831 1.397 . S
C2832 C2833 1.334 . S
C2833 H2810 0.950 . S
C2833 C2832 1.334 . S
C2833 C2834 1.287 . S
C2834 C2833 1.287 . S
C2834 C2835 1.524 . S
C2834 H2853 0.913 . S
C2835 H2811 0.950 . S
C2835 C2834 1.524 . S
C2835 C2836 1.415 . S
C2836 H2812 0.950 . S
C2836 C2831 1.363 . S
C2836 C2835 1.415 . S
C2837 H2813 0.951 . S
C2837 C2838 1.366 . S
C2837 C2839 1.388 . S
C2838 C2837 1.366 . S
C2838 C2842 1.385 . S
C2839 H2814 0.951 . S
C2839 C2837 1.388 . S
C2839 C2840 1.366 . S
C2840 C2839 1.366 . S
C2840 C2841 1.414 . S
C2840 C2843 1.499 . S
C2841 H2815 0.950 . S
C2841 C2840 1.414 . S
C2841 C2842 1.374 . S
C2842 H2816 0.950 . S
C2842 C2838 1.385 . S
C2842 C2841 1.374 . S
C2843 C2840 1.499 . S
C2843 C2844 1.373 . S
C2843 C2845 1.389 . S
C2844 H2817 0.950 . S
C2844 C2830 1.377 . S
C2844 C2843 1.373 . S
C2845 C2829 1.377 . S
C2845 C2843 1.389 . S
C2845 C2846 1.524 . S
C2846 C2845 1.524 . S
C2846 C2847 1.397 . S
C2846 C2851 1.363 . S
C2847 H2818 0.950 . S
C2847 C2846 1.397 . S
C2847 C2848 1.334 . S
C2848 H2819 0.950 . S
C2848 C2847 1.334 . S
C2848 C2849 1.287 . S
C2849 C2848 1.287 . S
C2849 C2850 1.524 . S
C2849 H2852 0.999 . S
C2850 H2820 0.950 . S
C2850 C2849 1.524 . S
C2850 C2851 1.415 . S
C2851 H2821 0.950 . S
C2851 C2846 1.363 . S
C2851 C2850 1.415 . S
H2852 C2849 0.999 . S
H2853 C2834 0.913 . S
H2854 C2872 0.951 . S
H2855 C2874 0.951 . S
H2856 C2876 0.950 . S
H2857 C2877 0.940 1_556 S
H2858 C2879 0.950 . S
H2859 C2882 0.950 . S
H2860 C2883 0.950 1_556 S
H2861 C2885 0.950 . S
H2862 C2886 0.950 . S
H2863 C2887 0.951 . S
H2864 C2889 0.951 . S
H2865 C2891 0.950 . S
H2866 C2892 0.950 . S
H2867 C2894 0.950 . S
H2868 C2897 0.950 . S
H2869 C2898 0.950 . S
H2870 C2900 0.950 . S
H2871 C2901 0.950 . S
C2872 H2854 0.951 . S
C2872 C2873 1.366 1_554 S
C2872 C2874 1.388 . S
C2873 C2872 1.366 1_556 S
C2873 C2877 1.383 1_556 S
C2874 H2855 0.951 . S
C2874 C2872 1.388 . S
C2874 C2875 1.366 . S
C2875 C2874 1.366 . S
C2875 C2876 1.414 . S
C2875 C2878 1.499 . S
C2876 H2856 0.950 . S
C2876 C2875 1.414 . S
C2876 C2877 1.386 . S
C2877 H2857 0.940 1_554 S
C2877 C2873 1.383 1_554 S
C2877 C2876 1.386 . S
C2878 C2875 1.499 . S
C2878 C2879 1.373 . S
C2878 C2880 1.389 . S
C2879 H2858 0.950 . S
C2879 C2878 1.373 . S
C2879 C2895 1.377 . S
C2880 C2878 1.389 . S
C2880 C2881 1.524 . S
C2880 C2894 1.377 . S
C2881 C2880 1.524 . S
C2881 C2882 1.397 . S
C2881 C2886 1.363 . S
C2882 H2859 0.950 . S
C2882 C2881 1.397 . S
C2882 C2883 1.334 . S
C2883 H2860 0.950 1_554 S
C2883 C2882 1.334 . S
C2883 C2884 1.287 . S
C2884 C2883 1.287 . S
C2884 C2885 1.524 . S
C2884 H2903 0.913 . S
C2885 H2861 0.950 . S
C2885 C2884 1.524 . S
C2885 C2886 1.415 . S
C2886 H2862 0.950 . S
C2886 C2881 1.363 . S
C2886 C2885 1.415 . S
C2887 H2863 0.951 . S
C2887 C2888 1.366 . S
C2887 C2889 1.388 . S
C2888 C2887 1.366 . S
C2888 C2892 1.385 . S
C2889 H2864 0.951 . S
C2889 C2887 1.388 . S
C2889 C2890 1.366 . S
C2890 C2889 1.366 . S
C2890 C2891 1.414 . S
C2890 C2893 1.499 . S
C2891 H2865 0.950 . S
C2891 C2890 1.414 . S
C2891 C2892 1.374 . S
C2892 H2866 0.950 . S
C2892 C2888 1.385 . S
C2892 C2891 1.374 . S
C2893 C2890 1.499 . S
C2893 C2894 1.373 . S
C2893 C2895 1.389 . S
C2894 H2867 0.950 . S
C2894 C2880 1.377 . S
C2894 C2893 1.373 . S
C2895 C2879 1.377 . S
C2895 C2893 1.389 . S
C2895 C2896 1.524 . S
C2896 C2895 1.524 . S
C2896 C2897 1.397 . S
C2896 C2901 1.363 . S
C2897 H2868 0.950 . S
C2897 C2896 1.397 . S
C2897 C2898 1.334 . S
C2898 H2869 0.950 . S
C2898 C2897 1.334 . S
C2898 C2899 1.287 . S
C2899 C2898 1.287 . S
C2899 C2900 1.524 . S
C2899 H2902 0.999 . S
C2900 H2870 0.950 . S
C2900 C2899 1.524 . S
C2900 C2901 1.415 . S
C2901 H2871 0.950 . S
C2901 C2896 1.363 . S
C2901 C2900 1.415 . S
H2902 C2899 0.999 . S
H2903 C2884 0.913 . S
H2904 C2922 0.951 . S
H2905 C2924 0.951 . S
H2906 C2926 0.950 . S
H2907 C2927 0.950 . S
H2908 C2929 0.950 . S
H2909 C2932 0.950 . S
H2910 C2933 0.950 . S
H2911 C2935 0.950 . S
H2912 C2936 0.950 . S
H2913 C2937 0.951 . S
H2914 C2939 0.951 . S
H2915 C2941 0.950 . S
H2916 C2942 0.950 . S
H2917 C2944 0.950 . S
H2918 C2947 0.950 . S
H2919 C2948 0.950 . S
H2920 C2950 0.950 . S
H2921 C2951 0.950 . S
C2922 H2904 0.951 . S
C2922 C2923 1.366 1_556 S
C2922 C2924 1.388 . S
C2923 C2922 1.366 1_554 S
C2923 C2927 1.385 . S
C2924 H2905 0.951 . S
C2924 C2922 1.388 . S
C2924 C2925 1.366 . S
C2925 C2924 1.366 . S
C2925 C2926 1.414 . S
C2925 C2928 1.499 . S
C2926 H2906 0.950 . S
C2926 C2925 1.414 . S
C2926 C2927 1.374 1_556 S
C2927 H2907 0.950 . S
C2927 C2923 1.385 . S
C2927 C2926 1.374 1_554 S
C2928 C2925 1.499 . S
C2928 C2929 1.373 . S
C2928 C2930 1.389 . S
C2929 H2908 0.950 . S
C2929 C2928 1.373 . S
C2929 C2945 1.377 . S
C2930 C2928 1.389 . S
C2930 C2931 1.524 . S
C2930 C2944 1.377 . S
C2931 C2930 1.524 . S
C2931 C2932 1.397 . S
C2931 C2936 1.363 . S
C2932 H2909 0.950 . S
C2932 C2931 1.397 . S
C2932 C2933 1.334 . S
C2933 H2910 0.950 . S
C2933 C2932 1.334 . S
C2933 C2934 1.287 . S
C2934 C2933 1.287 . S
C2934 C2935 1.524 . S
C2934 H2953 0.913 . S
C2935 H2911 0.950 . S
C2935 C2934 1.524 . S
C2935 C2936 1.415 . S
C2936 H2912 0.950 . S
C2936 C2931 1.363 . S
C2936 C2935 1.415 . S
C2937 H2913 0.951 . S
C2937 C2938 1.366 . S
C2937 C2939 1.388 . S
C2938 C2937 1.366 . S
C2938 C2942 1.385 . S
C2939 H2914 0.951 . S
C2939 C2937 1.388 . S
C2939 C2940 1.366 . S
C2940 C2939 1.366 . S
C2940 C2941 1.414 . S
C2940 C2943 1.499 . S
C2941 H2915 0.950 . S
C2941 C2940 1.414 . S
C2941 C2942 1.374 . S
C2942 H2916 0.950 . S
C2942 C2938 1.385 . S
C2942 C2941 1.374 . S
C2943 C2940 1.499 . S
C2943 C2944 1.373 . S
C2943 C2945 1.389 . S
C2944 H2917 0.950 . S
C2944 C2930 1.377 . S
C2944 C2943 1.373 . S
C2945 C2929 1.377 . S
C2945 C2943 1.389 . S
C2945 C2946 1.524 . S
C2946 C2945 1.524 . S
C2946 C2947 1.397 . S
C2946 C2951 1.363 . S
C2947 H2918 0.950 . S
C2947 C2946 1.397 . S
C2947 C2948 1.334 . S
C2948 H2919 0.950 . S
C2948 C2947 1.334 . S
C2948 C2949 1.287 . S
C2949 C2948 1.287 . S
C2949 C2950 1.524 . S
C2949 H2952 0.999 . S
C2950 H2920 0.950 . S
C2950 C2949 1.524 . S
C2950 C2951 1.415 . S
C2951 H2921 0.950 . S
C2951 C2946 1.363 . S
C2951 C2950 1.415 . S
H2952 C2949 0.999 . S
H2953 C2934 0.913 . S
H2954 C2972 0.951 . S
H2955 C2974 0.951 . S
H2956 C2976 0.950 . S
H2957 C2977 0.950 . S
H2958 C2979 0.950 . S
H2959 C2982 0.950 . S
H2960 C2983 0.950 . S
H2961 C2985 0.950 . S
H2962 C2986 0.950 . S
H2963 C2987 0.951 . S
H2964 C2989 0.951 . S
H2965 C2991 0.950 . S
H2966 C2992 0.950 1_554 S
H2967 C2994 0.950 . S
H2968 C2997 0.950 . S
H2969 C2998 0.950 . S
H2970 C3000 0.950 . S
H2971 C3001 0.950 . S
C2972 H2954 0.951 . S
C2972 C2973 1.366 . S
C2972 C2974 1.388 . S
C2973 C2972 1.366 . S
C2973 C2977 1.385 . S
C2974 H2955 0.951 . S
C2974 C2972 1.388 . S
C2974 C2975 1.366 . S
C2975 C2974 1.366 . S
C2975 C2976 1.414 . S
C2975 C2978 1.499 . S
C2976 H2956 0.950 . S
C2976 C2975 1.414 . S
C2976 C2977 1.374 . S
C2977 H2957 0.950 . S
C2977 C2973 1.385 . S
C2977 C2976 1.374 . S
C2978 C2975 1.499 . S
C2978 C2979 1.373 . S
C2978 C2980 1.389 . S
C2979 H2958 0.950 . S
C2979 C2978 1.373 . S
C2979 C2995 1.377 . S
C2980 C2978 1.389 . S
C2980 C2981 1.524 . S
C2980 C2994 1.377 . S
C2981 C2980 1.524 . S
C2981 C2982 1.397 . S
C2981 C2986 1.363 . S
C2982 H2959 0.950 . S
C2982 C2981 1.397 . S
C2982 C2983 1.334 . S
C2983 H2960 0.950 . S
C2983 C2982 1.334 . S
C2983 C2984 1.287 . S
C2984 C2983 1.287 . S
C2984 C2985 1.524 . S
C2984 H3003 0.913 . S
C2985 H2961 0.950 . S
C2985 C2984 1.524 . S
C2985 C2986 1.415 . S
C2986 H2962 0.950 . S
C2986 C2981 1.363 . S
C2986 C2985 1.415 . S
C2987 H2963 0.951 . S
C2987 C2988 1.366 1_556 S
C2987 C2989 1.388 . S
C2988 C2987 1.366 1_554 S
C2988 C2992 1.385 1_554 S
C2989 H2964 0.951 . S
C2989 C2987 1.388 . S
C2989 C2990 1.366 . S
C2990 C2989 1.366 . S
C2990 C2991 1.414 . S
C2990 C2993 1.499 . S
C2991 H2965 0.950 . S
C2991 C2990 1.414 . S
C2991 C2992 1.374 . S
C2992 H2966 0.950 1_556 S
C2992 C2988 1.385 1_556 S
C2992 C2991 1.374 . S
C2993 C2990 1.499 . S
C2993 C2994 1.373 . S
C2993 C2995 1.389 . S
C2994 H2967 0.950 . S
C2994 C2980 1.377 . S
C2994 C2993 1.373 . S
C2995 C2979 1.377 . S
C2995 C2993 1.389 . S
C2995 C2996 1.524 . S
C2996 C2995 1.524 . S
C2996 C2997 1.397 . S
C2996 C3001 1.363 . S
C2997 H2968 0.950 . S
C2997 C2996 1.397 . S
C2997 C2998 1.334 . S
C2998 H2969 0.950 . S
C2998 C2997 1.334 . S
C2998 C2999 1.287 . S
C2999 C2998 1.287 . S
C2999 C3000 1.524 . S
C2999 H3002 0.999 . S
C3000 H2970 0.950 . S
C3000 C2999 1.524 . S
C3000 C3001 1.415 . S
C3001 H2971 0.950 . S
C3001 C2996 1.363 . S
C3001 C3000 1.415 . S
H3002 C2999 0.999 . S
H3003 C2984 0.913 . S
H3004 C3022 0.951 . S
H3005 C3024 0.951 . S
H3006 C3026 0.950 . S
H3007 C3027 0.944 1_554 S
H3008 C3029 0.950 . S
H3009 C3032 0.950 . S
H3010 C3033 0.987 . S
H3011 C3035 0.950 . S
H3012 C3036 0.950 . S
H3013 C3037 0.951 . S
H3014 C3039 0.951 . S
H3015 C3041 0.950 . S
H3016 C3042 0.950 . S
H3017 C3044 0.950 . S
H3018 C3047 0.950 . S
H3019 C3048 0.950 . S
H3020 C3050 0.950 . S
H3021 C3051 0.950 . S
C3022 H3004 0.951 . S
C3022 C3023 1.366 1_556 S
C3022 C3024 1.388 . S
C3023 C3022 1.366 1_554 S
C3023 C3027 1.385 1_554 S
C3024 H3005 0.951 . S
C3024 C3022 1.388 . S
C3024 C3025 1.366 . S
C3025 C3024 1.366 . S
C3025 C3026 1.414 . S
C3025 C3028 1.499 . S
C3026 H3006 0.950 . S
C3026 C3025 1.414 . S
C3026 C3027 1.374 . S
C3027 H3007 0.944 1_556 S
C3027 C3023 1.385 1_556 S
C3027 C3026 1.374 . S
C3028 C3025 1.499 . S
C3028 C3029 1.373 . S
C3028 C3030 1.389 . S
C3029 H3008 0.950 . S
C3029 C3028 1.373 . S
C3029 C3045 1.377 . S
C3030 C3028 1.389 . S
C3030 C3031 1.524 . S
C3030 C3044 1.377 . S
C3031 C3030 1.524 . S
C3031 C3032 1.397 . S
C3031 C3036 1.363 . S
C3032 H3009 0.950 . S
C3032 C3031 1.397 . S
C3032 C3033 1.301 1_556 S
C3033 H3010 0.987 . S
C3033 C3032 1.301 1_554 S
C3033 C3034 1.283 1_554 S
C3034 C3033 1.283 1_556 S
C3034 C3035 1.524 . S
C3034 H3053 0.913 1_556 S
C3035 H3011 0.950 . S
C3035 C3034 1.524 . S
C3035 C3036 1.415 . S
C3036 H3012 0.950 . S
C3036 C3031 1.363 . S
C3036 C3035 1.415 . S
C3037 H3013 0.951 . S
C3037 C3038 1.366 . S
C3037 C3039 1.388 . S
C3038 C3037 1.366 . S
C3038 C3042 1.385 . S
C3039 H3014 0.951 . S
C3039 C3037 1.388 . S
C3039 C3040 1.366 . S
C3040 C3039 1.366 . S
C3040 C3041 1.414 . S
C3040 C3043 1.499 . S
C3041 H3015 0.950 . S
C3041 C3040 1.414 . S
C3041 C3042 1.374 . S
C3042 H3016 0.950 . S
C3042 C3038 1.385 . S
C3042 C3041 1.374 . S
C3043 C3040 1.499 . S
C3043 C3044 1.373 . S
C3043 C3045 1.389 . S
C3044 H3017 0.950 . S
C3044 C3030 1.377 . S
C3044 C3043 1.373 . S
C3045 C3029 1.377 . S
C3045 C3043 1.389 . S
C3045 C3046 1.524 . S
C3046 C3045 1.524 . S
C3046 C3047 1.397 . S
C3046 C3051 1.363 . S
C3047 H3018 0.950 . S
C3047 C3046 1.397 . S
C3047 C3048 1.334 . S
C3048 H3019 0.950 . S
C3048 C3047 1.334 . S
C3048 C3049 1.287 . S
C3049 C3048 1.287 . S
C3049 C3050 1.524 . S
C3049 H3052 0.999 . S
C3050 H3020 0.950 . S
C3050 C3049 1.524 . S
C3050 C3051 1.415 . S
C3051 H3021 0.950 . S
C3051 C3046 1.363 . S
C3051 C3050 1.415 . S
H3052 C3049 0.999 . S
H3053 C3034 0.913 1_554 S
H3054 C3072 0.951 . S
H3055 C3074 0.951 . S
H3056 C3076 0.950 . S
H3057 C3077 0.950 . S
H3058 C3079 0.950 . S
H3059 C3082 0.950 . S
H3060 C3083 0.950 . S
H3061 C3085 0.950 . S
H3062 C3086 0.950 . S
H3063 C3087 0.951 . S
H3064 C3089 0.951 . S
H3065 C3091 0.950 . S
H3066 C3092 0.950 . S
H3067 C3094 0.950 . S
H3068 C3097 0.950 . S
H3069 C3098 0.950 . S
H3070 C3100 0.950 . S
H3071 C3101 0.950 . S
C3072 H3054 0.951 . S
C3072 C3073 1.366 . S
C3072 C3074 1.388 . S
C3073 C3072 1.366 . S
C3073 C3077 1.385 . S
C3074 H3055 0.951 . S
C3074 C3072 1.388 . S
C3074 C3075 1.366 . S
C3075 C3074 1.366 . S
C3075 C3076 1.414 . S
C3075 C3078 1.499 . S
C3076 H3056 0.950 . S
C3076 C3075 1.414 . S
C3076 C3077 1.374 . S
C3077 H3057 0.950 . S
C3077 C3073 1.385 . S
C3077 C3076 1.374 . S
C3078 C3075 1.499 . S
C3078 C3079 1.373 . S
C3078 C3080 1.389 . S
C3079 H3058 0.950 . S
C3079 C3078 1.373 . S
C3079 C3095 1.377 . S
C3080 C3078 1.389 . S
C3080 C3081 1.524 . S
C3080 C3094 1.377 . S
C3081 C3080 1.524 . S
C3081 C3082 1.397 . S
C3081 C3086 1.363 . S
C3082 H3059 0.950 . S
C3082 C3081 1.397 . S
C3082 C3083 1.334 . S
C3083 H3060 0.950 . S
C3083 C3082 1.334 . S
C3083 C3084 1.287 . S
C3084 C3083 1.287 . S
C3084 C3085 1.524 . S
C3084 H3103 0.913 . S
C3085 H3061 0.950 . S
C3085 C3084 1.524 . S
C3085 C3086 1.415 . S
C3086 H3062 0.950 . S
C3086 C3081 1.363 . S
C3086 C3085 1.415 . S
C3087 H3063 0.951 . S
C3087 C3088 1.366 . S
C3087 C3089 1.388 . S
C3088 C3087 1.366 . S
C3088 C3092 1.385 . S
C3089 H3064 0.951 . S
C3089 C3087 1.388 . S
C3089 C3090 1.366 . S
C3090 C3089 1.366 . S
C3090 C3091 1.414 . S
C3090 C3093 1.499 . S
C3091 H3065 0.950 . S
C3091 C3090 1.414 . S
C3091 C3092 1.374 . S
C3092 H3066 0.950 . S
C3092 C3088 1.385 . S
C3092 C3091 1.374 . S
C3093 C3090 1.499 . S
C3093 C3094 1.373 . S
C3093 C3095 1.389 . S
C3094 H3067 0.950 . S
C3094 C3080 1.377 . S
C3094 C3093 1.373 . S
C3095 C3079 1.377 . S
C3095 C3093 1.389 . S
C3095 C3096 1.524 . S
C3096 C3095 1.524 . S
C3096 C3097 1.397 . S
C3096 C3101 1.363 . S
C3097 H3068 0.950 . S
C3097 C3096 1.397 . S
C3097 C3098 1.334 . S
C3098 H3069 0.950 . S
C3098 C3097 1.334 . S
C3098 C3099 1.287 . S
C3099 C3098 1.287 . S
C3099 C3100 1.524 . S
C3099 H3102 0.999 . S
C3100 H3070 0.950 . S
C3100 C3099 1.524 . S
C3100 C3101 1.415 . S
C3101 H3071 0.950 . S
C3101 C3096 1.363 . S
C3101 C3100 1.415 . S
H3102 C3099 0.999 . S
H3103 C3084 0.913 . S
H3104 C3122 0.951 . S
H3105 C3124 0.951 . S
H3106 C3126 0.950 . S
H3107 C3127 0.950 . S
H3108 C3129 0.950 . S
H3109 C3132 0.950 . S
H3110 C3133 0.950 . S
H3111 C3135 0.950 . S
H3112 C3136 0.950 . S
H3113 C3137 0.951 . S
H3114 C3139 0.951 . S
H3115 C3141 0.950 . S
H3116 C3142 0.950 . S
H3117 C3144 0.950 . S
H3118 C3147 0.950 . S
H3119 C3148 0.950 . S
H3120 C3150 0.950 . S
H3121 C3151 0.950 . S
C3122 H3104 0.951 . S
C3122 C3123 1.366 . S
C3122 C3124 1.388 . S
C3123 C3122 1.366 . S
C3123 C3127 1.385 . S
C3124 H3105 0.951 . S
C3124 C3122 1.388 . S
C3124 C3125 1.366 . S
C3125 C3124 1.366 . S
C3125 C3126 1.414 . S
C3125 C3128 1.499 . S
C3126 H3106 0.950 . S
C3126 C3125 1.414 . S
C3126 C3127 1.374 . S
C3127 H3107 0.950 . S
C3127 C3123 1.385 . S
C3127 C3126 1.374 . S
C3128 C3125 1.499 . S
C3128 C3129 1.373 . S
C3128 C3130 1.389 . S
C3129 H3108 0.950 . S
C3129 C3128 1.373 . S
C3129 C3145 1.377 . S
C3130 C3128 1.389 . S
C3130 C3131 1.524 . S
C3130 C3144 1.377 . S
C3131 C3130 1.524 . S
C3131 C3132 1.397 . S
C3131 C3136 1.363 . S
C3132 H3109 0.950 . S
C3132 C3131 1.397 . S
C3132 C3133 1.334 . S
C3133 H3110 0.950 . S
C3133 C3132 1.334 . S
C3133 C3134 1.287 . S
C3134 C3133 1.287 . S
C3134 C3135 1.524 . S
C3134 H3153 0.913 . S
C3135 H3111 0.950 . S
C3135 C3134 1.524 . S
C3135 C3136 1.415 . S
C3136 H3112 0.950 . S
C3136 C3131 1.363 . S
C3136 C3135 1.415 . S
C3137 H3113 0.951 . S
C3137 C3138 1.366 . S
C3137 C3139 1.388 . S
C3138 C3137 1.366 . S
C3138 C3142 1.385 . S
C3139 H3114 0.951 . S
C3139 C3137 1.388 . S
C3139 C3140 1.366 . S
C3140 C3139 1.366 . S
C3140 C3141 1.414 . S
C3140 C3143 1.499 . S
C3141 H3115 0.950 . S
C3141 C3140 1.414 . S
C3141 C3142 1.374 . S
C3142 H3116 0.950 . S
C3142 C3138 1.385 . S
C3142 C3141 1.374 . S
C3143 C3140 1.499 . S
C3143 C3144 1.373 . S
C3143 C3145 1.389 . S
C3144 H3117 0.950 . S
C3144 C3130 1.377 . S
C3144 C3143 1.373 . S
C3145 C3129 1.377 . S
C3145 C3143 1.389 . S
C3145 C3146 1.524 . S
C3146 C3145 1.524 . S
C3146 C3147 1.397 . S
C3146 C3151 1.363 . S
C3147 H3118 0.950 . S
C3147 C3146 1.397 . S
C3147 C3148 1.334 . S
C3148 H3119 0.950 . S
C3148 C3147 1.334 . S
C3148 C3149 1.287 . S
C3149 C3148 1.287 . S
C3149 C3150 1.524 . S
C3149 H3152 0.999 . S
C3150 H3120 0.950 . S
C3150 C3149 1.524 . S
C3150 C3151 1.415 . S
C3151 H3121 0.950 . S
C3151 C3146 1.363 . S
C3151 C3150 1.415 . S
H3152 C3149 0.999 . S
H3153 C3134 0.913 . S
H3154 C3172 0.951 . S
H3155 C3174 0.951 . S
H3156 C3176 0.950 . S
H3157 C3177 0.950 . S
H3158 C3179 0.950 . S
H3159 C3182 0.950 . S
H3160 C3183 0.950 . S
H3161 C3185 0.950 . S
H3162 C3186 0.950 . S
H3163 C3187 0.951 . S
H3164 C3189 0.951 . S
H3165 C3191 0.950 . S
H3166 C3192 0.950 . S
H3167 C3194 0.950 . S
H3168 C3197 0.950 . S
H3169 C3198 0.950 . S
H3170 C3200 0.950 . S
H3171 C3201 0.950 . S
C3172 H3154 0.951 . S
C3172 C3173 1.366 . S
C3172 C3174 1.388 . S
C3173 C3172 1.366 . S
C3173 C3177 1.385 . S
C3174 H3155 0.951 . S
C3174 C3172 1.388 . S
C3174 C3175 1.366 . S
C3175 C3174 1.366 . S
C3175 C3176 1.414 . S
C3175 C3178 1.499 . S
C3176 H3156 0.950 . S
C3176 C3175 1.414 . S
C3176 C3177 1.374 . S
C3177 H3157 0.950 . S
C3177 C3173 1.385 . S
C3177 C3176 1.374 . S
C3178 C3175 1.499 . S
C3178 C3179 1.373 . S
C3178 C3180 1.389 . S
C3179 H3158 0.950 . S
C3179 C3178 1.373 . S
C3179 C3195 1.377 . S
C3180 C3178 1.389 . S
C3180 C3181 1.524 . S
C3180 C3194 1.377 . S
C3181 C3180 1.524 . S
C3181 C3182 1.397 . S
C3181 C3186 1.363 . S
C3182 H3159 0.950 . S
C3182 C3181 1.397 . S
C3182 C3183 1.334 . S
C3183 H3160 0.950 . S
C3183 C3182 1.334 . S
C3183 C3184 1.287 . S
C3184 C3183 1.287 . S
C3184 C3185 1.524 . S
C3184 H3203 0.913 . S
C3185 H3161 0.950 . S
C3185 C3184 1.524 . S
C3185 C3186 1.415 . S
C3186 H3162 0.950 . S
C3186 C3181 1.363 . S
C3186 C3185 1.415 . S
C3187 H3163 0.951 . S
C3187 C3188 1.366 . S
C3187 C3189 1.388 . S
C3188 C3187 1.366 . S
C3188 C3192 1.385 . S
C3189 H3164 0.951 . S
C3189 C3187 1.388 . S
C3189 C3190 1.366 . S
C3190 C3189 1.366 . S
C3190 C3191 1.414 . S
C3190 C3193 1.499 . S
C3191 H3165 0.950 . S
C3191 C3190 1.414 . S
C3191 C3192 1.374 . S
C3192 H3166 0.950 . S
C3192 C3188 1.385 . S
C3192 C3191 1.374 . S
C3193 C3190 1.499 . S
C3193 C3194 1.373 . S
C3193 C3195 1.389 . S
C3194 H3167 0.950 . S
C3194 C3180 1.377 . S
C3194 C3193 1.373 . S
C3195 C3179 1.377 . S
C3195 C3193 1.389 . S
C3195 C3196 1.524 . S
C3196 C3195 1.524 . S
C3196 C3197 1.397 . S
C3196 C3201 1.363 . S
C3197 H3168 0.950 . S
C3197 C3196 1.397 . S
C3197 C3198 1.334 . S
C3198 H3169 0.950 . S
C3198 C3197 1.334 . S
C3198 C3199 1.287 . S
C3199 C3198 1.287 . S
C3199 C3200 1.524 . S
C3199 H3202 0.999 . S
C3200 H3170 0.950 . S
C3200 C3199 1.524 . S
C3200 C3201 1.415 . S
C3201 H3171 0.950 . S
C3201 C3196 1.363 . S
C3201 C3200 1.415 . S
H3202 C3199 0.999 . S
H3203 C3184 0.913 . S
H3204 C3222 0.951 . S
H3205 C3224 0.951 . S
H3206 C3226 0.950 . S
H3207 C3227 0.950 . S
H3208 C3229 0.950 . S
H3209 C3232 0.950 . S
H3210 C3233 0.950 . S
H3211 C3235 0.950 . S
H3212 C3236 0.950 . S
H3213 C3237 0.951 . S
H3214 C3239 0.951 . S
H3215 C3241 0.950 . S
H3216 C3242 0.950 . S
H3217 C3244 0.950 . S
H3218 C3247 0.950 . S
H3219 C3248 0.950 . S
H3220 C3250 0.950 . S
H3221 C3251 0.950 . S
C3222 H3204 0.951 . S
C3222 C3223 1.366 . S
C3222 C3224 1.388 . S
C3223 C3222 1.366 . S
C3223 C3227 1.385 . S
C3224 H3205 0.951 . S
C3224 C3222 1.388 . S
C3224 C3225 1.366 . S
C3225 C3224 1.366 . S
C3225 C3226 1.414 . S
C3225 C3228 1.499 . S
C3226 H3206 0.950 . S
C3226 C3225 1.414 . S
C3226 C3227 1.374 . S
C3227 H3207 0.950 . S
C3227 C3223 1.385 . S
C3227 C3226 1.374 . S
C3228 C3225 1.499 . S
C3228 C3229 1.373 . S
C3228 C3230 1.389 . S
C3229 H3208 0.950 . S
C3229 C3228 1.373 . S
C3229 C3245 1.377 . S
C3230 C3228 1.389 . S
C3230 C3231 1.524 . S
C3230 C3244 1.377 . S
C3231 C3230 1.524 . S
C3231 C3232 1.397 . S
C3231 C3236 1.363 . S
C3232 H3209 0.950 . S
C3232 C3231 1.397 . S
C3232 C3233 1.334 . S
C3233 H3210 0.950 . S
C3233 C3232 1.334 . S
C3233 C3234 1.287 . S
C3234 C3233 1.287 . S
C3234 C3235 1.524 . S
C3234 H3253 0.913 . S
C3235 H3211 0.950 . S
C3235 C3234 1.524 . S
C3235 C3236 1.415 . S
C3236 H3212 0.950 . S
C3236 C3231 1.363 . S
C3236 C3235 1.415 . S
C3237 H3213 0.951 . S
C3237 C3238 1.366 . S
C3237 C3239 1.388 . S
C3238 C3237 1.366 . S
C3238 C3242 1.385 . S
C3239 H3214 0.951 . S
C3239 C3237 1.388 . S
C3239 C3240 1.366 . S
C3240 C3239 1.366 . S
C3240 C3241 1.414 . S
C3240 C3243 1.499 . S
C3241 H3215 0.950 . S
C3241 C3240 1.414 . S
C3241 C3242 1.374 . S
C3242 H3216 0.950 . S
C3242 C3238 1.385 . S
C3242 C3241 1.374 . S
C3243 C3240 1.499 . S
C3243 C3244 1.373 . S
C3243 C3245 1.389 . S
C3244 H3217 0.950 . S
C3244 C3230 1.377 . S
C3244 C3243 1.373 . S
C3245 C3229 1.377 . S
C3245 C3243 1.389 . S
C3245 C3246 1.524 . S
C3246 C3245 1.524 . S
C3246 C3247 1.397 . S
C3246 C3251 1.363 . S
C3247 H3218 0.950 . S
C3247 C3246 1.397 . S
C3247 C3248 1.334 . S
C3248 H3219 0.950 . S
C3248 C3247 1.334 . S
C3248 C3249 1.287 . S
C3249 C3248 1.287 . S
C3249 C3250 1.524 . S
C3249 H3252 0.999 . S
C3250 H3220 0.950 . S
C3250 C3249 1.524 . S
C3250 C3251 1.415 . S
C3251 H3221 0.950 . S
C3251 C3246 1.363 . S
C3251 C3250 1.415 . S
H3252 C3249 0.999 . S
H3253 C3234 0.913 . S
H3254 C3272 0.951 . S
H3255 C3274 0.951 . S
H3256 C3276 0.950 . S
H3257 C3277 0.950 . S
H3258 C3279 0.950 . S
H3259 C3282 0.950 . S
H3260 C3283 0.950 . S
H3261 C3285 0.950 . S
H3262 C3286 0.950 . S
H3263 C3287 0.951 . S
H3264 C3289 0.951 . S
H3265 C3291 0.950 . S
H3266 C3292 0.950 . S
H3267 C3294 0.950 . S
H3268 C3297 0.950 . S
H3269 C3298 0.950 . S
H3270 C3300 0.950 . S
H3271 C3301 0.950 . S
C3272 H3254 0.951 . S
C3272 C3273 1.366 . S
C3272 C3274 1.388 . S
C3273 C3272 1.366 . S
C3273 C3277 1.385 . S
C3274 H3255 0.951 . S
C3274 C3272 1.388 . S
C3274 C3275 1.366 . S
C3275 C3274 1.366 . S
C3275 C3276 1.414 . S
C3275 C3278 1.499 . S
C3276 H3256 0.950 . S
C3276 C3275 1.414 . S
C3276 C3277 1.374 . S
C3277 H3257 0.950 . S
C3277 C3273 1.385 . S
C3277 C3276 1.374 . S
C3278 C3275 1.499 . S
C3278 C3279 1.373 . S
C3278 C3280 1.389 . S
C3279 H3258 0.950 . S
C3279 C3278 1.373 . S
C3279 C3295 1.377 . S
C3280 C3278 1.389 . S
C3280 C3281 1.524 . S
C3280 C3294 1.377 . S
C3281 C3280 1.524 . S
C3281 C3282 1.397 . S
C3281 C3286 1.363 . S
C3282 H3259 0.950 . S
C3282 C3281 1.397 . S
C3282 C3283 1.334 . S
C3283 H3260 0.950 . S
C3283 C3282 1.334 . S
C3283 C3284 1.287 . S
C3284 C3283 1.287 . S
C3284 C3285 1.524 . S
C3284 H3303 0.913 . S
C3285 H3261 0.950 . S
C3285 C3284 1.524 . S
C3285 C3286 1.415 . S
C3286 H3262 0.950 . S
C3286 C3281 1.363 . S
C3286 C3285 1.415 . S
C3287 H3263 0.951 . S
C3287 C3288 1.366 . S
C3287 C3289 1.388 . S
C3288 C3287 1.366 . S
C3288 C3292 1.385 . S
C3289 H3264 0.951 . S
C3289 C3287 1.388 . S
C3289 C3290 1.366 . S
C3290 C3289 1.366 . S
C3290 C3291 1.414 . S
C3290 C3293 1.499 . S
C3291 H3265 0.950 . S
C3291 C3290 1.414 . S
C3291 C3292 1.374 . S
C3292 H3266 0.950 . S
C3292 C3288 1.385 . S
C3292 C3291 1.374 . S
C3293 C3290 1.499 . S
C3293 C3294 1.373 . S
C3293 C3295 1.389 . S
C3294 H3267 0.950 . S
C3294 C3280 1.377 . S
C3294 C3293 1.373 . S
C3295 C3279 1.377 . S
C3295 C3293 1.389 . S
C3295 C3296 1.524 . S
C3296 C3295 1.524 . S
C3296 C3297 1.397 . S
C3296 C3301 1.363 . S
C3297 H3268 0.950 . S
C3297 C3296 1.397 . S
C3297 C3298 1.334 . S
C3298 H3269 0.950 . S
C3298 C3297 1.334 . S
C3298 C3299 1.287 . S
C3299 C3298 1.287 . S
C3299 C3300 1.524 . S
C3299 H3302 0.999 . S
C3300 H3270 0.950 . S
C3300 C3299 1.524 . S
C3300 C3301 1.415 . S
C3301 H3271 0.950 . S
C3301 C3296 1.363 . S
C3301 C3300 1.415 . S
H3302 C3299 0.999 . S
H3303 C3284 0.913 . S
H3304 C3322 0.951 . S
H3305 C3324 0.951 . S
H3306 C3326 0.950 . S
H3307 C3327 0.950 . S
H3308 C3329 0.950 . S
H3309 C3332 0.950 . S
H3310 C3333 0.950 . S
H3311 C3335 0.950 . S
H3312 C3336 0.950 . S
H3313 C3337 0.951 . S
H3314 C3339 0.951 . S
H3315 C3341 0.950 . S
H3316 C3342 0.950 . S
H3317 C3344 0.950 . S
H3318 C3347 0.950 . S
H3319 C3348 0.950 . S
H3320 C3350 0.950 . S
H3321 C3351 0.950 . S
C3322 H3304 0.951 . S
C3322 C3323 1.366 . S
C3322 C3324 1.388 . S
C3323 C3322 1.366 . S
C3323 C3327 1.385 . S
C3324 H3305 0.951 . S
C3324 C3322 1.388 . S
C3324 C3325 1.366 . S
C3325 C3324 1.366 . S
C3325 C3326 1.414 . S
C3325 C3328 1.499 . S
C3326 H3306 0.950 . S
C3326 C3325 1.414 . S
C3326 C3327 1.374 . S
C3327 H3307 0.950 . S
C3327 C3323 1.385 . S
C3327 C3326 1.374 . S
C3328 C3325 1.499 . S
C3328 C3329 1.373 . S
C3328 C3330 1.389 . S
C3329 H3308 0.950 . S
C3329 C3328 1.373 . S
C3329 C3345 1.377 . S
C3330 C3328 1.389 . S
C3330 C3331 1.524 . S
C3330 C3344 1.377 . S
C3331 C3330 1.524 . S
C3331 C3332 1.397 . S
C3331 C3336 1.363 . S
C3332 H3309 0.950 . S
C3332 C3331 1.397 . S
C3332 C3333 1.334 . S
C3333 H3310 0.950 . S
C3333 C3332 1.334 . S
C3333 C3334 1.287 . S
C3334 C3333 1.287 . S
C3334 C3335 1.524 . S
C3334 H3353 0.913 . S
C3335 H3311 0.950 . S
C3335 C3334 1.524 . S
C3335 C3336 1.415 . S
C3336 H3312 0.950 . S
C3336 C3331 1.363 . S
C3336 C3335 1.415 . S
C3337 H3313 0.951 . S
C3337 C3338 1.366 . S
C3337 C3339 1.388 . S
C3338 C3337 1.366 . S
C3338 C3342 1.385 . S
C3339 H3314 0.951 . S
C3339 C3337 1.388 . S
C3339 C3340 1.366 . S
C3340 C3339 1.366 . S
C3340 C3341 1.414 . S
C3340 C3343 1.499 . S
C3341 H3315 0.950 . S
C3341 C3340 1.414 . S
C3341 C3342 1.374 . S
C3342 H3316 0.950 . S
C3342 C3338 1.385 . S
C3342 C3341 1.374 . S
C3343 C3340 1.499 . S
C3343 C3344 1.373 . S
C3343 C3345 1.389 . S
C3344 H3317 0.950 . S
C3344 C3330 1.377 . S
C3344 C3343 1.373 . S
C3345 C3329 1.377 . S
C3345 C3343 1.389 . S
C3345 C3346 1.524 . S
C3346 C3345 1.524 . S
C3346 C3347 1.397 . S
C3346 C3351 1.363 . S
C3347 H3318 0.950 . S
C3347 C3346 1.397 . S
C3347 C3348 1.334 . S
C3348 H3319 0.950 . S
C3348 C3347 1.334 . S
C3348 C3349 1.287 . S
C3349 C3348 1.287 . S
C3349 C3350 1.524 . S
C3349 H3352 0.999 . S
C3350 H3320 0.950 . S
C3350 C3349 1.524 . S
C3350 C3351 1.415 . S
C3351 H3321 0.950 . S
C3351 C3346 1.363 . S
C3351 C3350 1.415 . S
H3352 C3349 0.999 . S
H3353 C3334 0.913 . S
H3354 C3372 0.951 . S
H3355 C3374 0.951 . S
H3356 C3376 0.950 . S
H3357 C3377 0.950 . S
H3358 C3379 0.950 . S
H3359 C3382 0.950 . S
H3360 C3383 0.950 . S
H3361 C3385 0.950 . S
H3362 C3386 0.950 . S
H3363 C3387 0.951 . S
H3364 C3389 0.951 . S
H3365 C3391 0.950 . S
H3366 C3392 0.950 . S
H3367 C3394 0.950 . S
H3368 C3397 0.950 . S
H3369 C3398 0.950 . S
H3370 C3400 0.950 . S
H3371 C3401 0.950 . S
C3372 H3354 0.951 . S
C3372 C3373 1.366 . S
C3372 C3374 1.388 . S
C3373 C3372 1.366 . S
C3373 C3377 1.385 . S
C3374 H3355 0.951 . S
C3374 C3372 1.388 . S
C3374 C3375 1.366 . S
C3375 C3374 1.366 . S
C3375 C3376 1.414 . S
C3375 C3378 1.499 . S
C3376 H3356 0.950 . S
C3376 C3375 1.414 . S
C3376 C3377 1.374 . S
C3377 H3357 0.950 . S
C3377 C3373 1.385 . S
C3377 C3376 1.374 . S
C3378 C3375 1.499 . S
C3378 C3379 1.373 . S
C3378 C3380 1.389 . S
C3379 H3358 0.950 . S
C3379 C3378 1.373 . S
C3379 C3395 1.377 . S
C3380 C3378 1.389 . S
C3380 C3381 1.524 . S
C3380 C3394 1.377 . S
C3381 C3380 1.524 . S
C3381 C3382 1.397 . S
C3381 C3386 1.363 . S
C3382 H3359 0.950 . S
C3382 C3381 1.397 . S
C3382 C3383 1.334 . S
C3383 H3360 0.950 . S
C3383 C3382 1.334 . S
C3383 C3384 1.287 . S
C3384 C3383 1.287 . S
C3384 C3385 1.524 . S
C3384 H3403 0.913 . S
C3385 H3361 0.950 . S
C3385 C3384 1.524 . S
C3385 C3386 1.415 . S
C3386 H3362 0.950 . S
C3386 C3381 1.363 . S
C3386 C3385 1.415 . S
C3387 H3363 0.951 . S
C3387 C3388 1.366 . S
C3387 C3389 1.388 . S
C3388 C3387 1.366 . S
C3388 C3392 1.385 . S
C3389 H3364 0.951 . S
C3389 C3387 1.388 . S
C3389 C3390 1.366 . S
C3390 C3389 1.366 . S
C3390 C3391 1.414 . S
C3390 C3393 1.499 . S
C3391 H3365 0.950 . S
C3391 C3390 1.414 . S
C3391 C3392 1.374 . S
C3392 H3366 0.950 . S
C3392 C3388 1.385 . S
C3392 C3391 1.374 . S
C3393 C3390 1.499 . S
C3393 C3394 1.373 . S
C3393 C3395 1.389 . S
C3394 H3367 0.950 . S
C3394 C3380 1.377 . S
C3394 C3393 1.373 . S
C3395 C3379 1.377 . S
C3395 C3393 1.389 . S
C3395 C3396 1.524 . S
C3396 C3395 1.524 . S
C3396 C3397 1.397 . S
C3396 C3401 1.363 . S
C3397 H3368 0.950 . S
C3397 C3396 1.397 . S
C3397 C3398 1.334 . S
C3398 H3369 0.950 . S
C3398 C3397 1.334 . S
C3398 C3399 1.287 . S
C3399 C3398 1.287 . S
C3399 C3400 1.524 . S
C3399 H3402 0.999 . S
C3400 H3370 0.950 . S
C3400 C3399 1.524 . S
C3400 C3401 1.415 . S
C3401 H3371 0.950 . S
C3401 C3396 1.363 . S
C3401 C3400 1.415 . S
H3402 C3399 0.999 . S
H3403 C3384 0.913 . S
H3404 C3422 0.951 . S
H3405 C3424 0.951 . S
H3406 C3426 0.950 . S
H3407 C3427 0.950 . S
H3408 C3429 0.950 . S
H3409 C3432 0.950 . S
H3410 C3433 0.950 . S
H3411 C3435 0.950 . S
H3412 C3436 0.950 . S
H3413 C3437 0.951 . S
H3414 C3439 0.951 . S
H3415 C3441 0.950 . S
H3416 C3442 0.950 . S
H3417 C3444 0.950 . S
H3418 C3447 0.950 . S
H3419 C3448 0.950 . S
H3420 C3450 0.950 . S
H3421 C3451 0.950 . S
C3422 H3404 0.951 . S
C3422 C3423 1.366 . S
C3422 C3424 1.388 . S
C3423 C3422 1.366 . S
C3423 C3427 1.385 . S
C3424 H3405 0.951 . S
C3424 C3422 1.388 . S
C3424 C3425 1.366 . S
C3425 C3424 1.366 . S
C3425 C3426 1.414 . S
C3425 C3428 1.499 . S
C3426 H3406 0.950 . S
C3426 C3425 1.414 . S
C3426 C3427 1.374 . S
C3427 H3407 0.950 . S
C3427 C3423 1.385 . S
C3427 C3426 1.374 . S
C3428 C3425 1.499 . S
C3428 C3429 1.373 . S
C3428 C3430 1.389 . S
C3429 H3408 0.950 . S
C3429 C3428 1.373 . S
C3429 C3445 1.377 . S
C3430 C3428 1.389 . S
C3430 C3431 1.524 . S
C3430 C3444 1.377 . S
C3431 C3430 1.524 . S
C3431 C3432 1.397 . S
C3431 C3436 1.363 . S
C3432 H3409 0.950 . S
C3432 C3431 1.397 . S
C3432 C3433 1.334 . S
C3433 H3410 0.950 . S
C3433 C3432 1.334 . S
C3433 C3434 1.287 . S
C3434 C3433 1.287 . S
C3434 C3435 1.524 . S
C3434 H3453 0.913 . S
C3435 H3411 0.950 . S
C3435 C3434 1.524 . S
C3435 C3436 1.415 . S
C3436 H3412 0.950 . S
C3436 C3431 1.363 . S
C3436 C3435 1.415 . S
C3437 H3413 0.951 . S
C3437 C3438 1.366 . S
C3437 C3439 1.388 . S
C3438 C3437 1.366 . S
C3438 C3442 1.385 . S
C3439 H3414 0.951 . S
C3439 C3437 1.388 . S
C3439 C3440 1.366 . S
C3440 C3439 1.366 . S
C3440 C3441 1.414 . S
C3440 C3443 1.499 . S
C3441 H3415 0.950 . S
C3441 C3440 1.414 . S
C3441 C3442 1.374 . S
C3442 H3416 0.950 . S
C3442 C3438 1.385 . S
C3442 C3441 1.374 . S
C3443 C3440 1.499 . S
C3443 C3444 1.373 . S
C3443 C3445 1.389 . S
C3444 H3417 0.950 . S
C3444 C3430 1.377 . S
C3444 C3443 1.373 . S
C3445 C3429 1.377 . S
C3445 C3443 1.389 . S
C3445 C3446 1.524 . S
C3446 C3445 1.524 . S
C3446 C3447 1.397 . S
C3446 C3451 1.363 . S
C3447 H3418 0.950 . S
C3447 C3446 1.397 . S
C3447 C3448 1.334 . S
C3448 H3419 0.950 . S
C3448 C3447 1.334 . S
C3448 C3449 1.287 . S
C3449 C3448 1.287 . S
C3449 C3450 1.524 . S
C3449 H3452 0.999 . S
C3450 H3420 0.950 . S
C3450 C3449 1.524 . S
C3450 C3451 1.415 . S
C3451 H3421 0.950 . S
C3451 C3446 1.363 . S
C3451 C3450 1.415 . S
H3452 C3449 0.999 . S
H3453 C3434 0.913 . S
H3454 C3472 0.951 . S
H3455 C3474 0.951 . S
H3456 C3476 0.950 . S
H3457 C3477 0.950 . S
H3458 C3479 0.950 . S
H3459 C3482 0.950 . S
H3460 C3483 0.950 . S
H3461 C3485 0.950 . S
H3462 C3486 0.950 . S
H3463 C3487 0.951 . S
H3464 C3489 0.951 . S
H3465 C3491 0.950 . S
H3466 C3492 0.950 . S
H3467 C3494 0.950 . S
H3468 C3497 0.950 . S
H3469 C3498 0.950 . S
H3470 C3500 0.950 . S
H3471 C3501 0.950 . S
C3472 H3454 0.951 . S
C3472 C3473 1.366 . S
C3472 C3474 1.388 . S
C3473 C3472 1.366 . S
C3473 C3477 1.385 . S
C3474 H3455 0.951 . S
C3474 C3472 1.388 . S
C3474 C3475 1.366 . S
C3475 C3474 1.366 . S
C3475 C3476 1.414 . S
C3475 C3478 1.499 . S
C3476 H3456 0.950 . S
C3476 C3475 1.414 . S
C3476 C3477 1.374 . S
C3477 H3457 0.950 . S
C3477 C3473 1.385 . S
C3477 C3476 1.374 . S
C3478 C3475 1.499 . S
C3478 C3479 1.373 . S
C3478 C3480 1.389 . S
C3479 H3458 0.950 . S
C3479 C3478 1.373 . S
C3479 C3495 1.377 . S
C3480 C3478 1.389 . S
C3480 C3481 1.524 . S
C3480 C3494 1.377 . S
C3481 C3480 1.524 . S
C3481 C3482 1.397 . S
C3481 C3486 1.363 . S
C3482 H3459 0.950 . S
C3482 C3481 1.397 . S
C3482 C3483 1.334 . S
C3483 H3460 0.950 . S
C3483 C3482 1.334 . S
C3483 C3484 1.287 . S
C3484 C3483 1.287 . S
C3484 C3485 1.524 . S
C3484 H3503 0.913 . S
C3485 H3461 0.950 . S
C3485 C3484 1.524 . S
C3485 C3486 1.415 . S
C3486 H3462 0.950 . S
C3486 C3481 1.363 . S
C3486 C3485 1.415 . S
C3487 H3463 0.951 . S
C3487 C3488 1.366 . S
C3487 C3489 1.388 . S
C3488 C3487 1.366 . S
C3488 C3492 1.385 . S
C3489 H3464 0.951 . S
C3489 C3487 1.388 . S
C3489 C3490 1.366 . S
C3490 C3489 1.366 . S
C3490 C3491 1.414 . S
C3490 C3493 1.499 . S
C3491 H3465 0.950 . S
C3491 C3490 1.414 . S
C3491 C3492 1.374 . S
C3492 H3466 0.950 . S
C3492 C3488 1.385 . S
C3492 C3491 1.374 . S
C3493 C3490 1.499 . S
C3493 C3494 1.373 . S
C3493 C3495 1.389 . S
C3494 H3467 0.950 . S
C3494 C3480 1.377 . S
C3494 C3493 1.373 . S
C3495 C3479 1.377 . S
C3495 C3493 1.389 . S
C3495 C3496 1.524 . S
C3496 C3495 1.524 . S
C3496 C3497 1.397 . S
C3496 C3501 1.363 . S
C3497 H3468 0.950 . S
C3497 C3496 1.397 . S
C3497 C3498 1.334 . S
C3498 H3469 0.950 . S
C3498 C3497 1.334 . S
C3498 C3499 1.287 . S
C3499 C3498 1.287 . S
C3499 C3500 1.524 . S
C3499 H3502 0.999 . S
C3500 H3470 0.950 . S
C3500 C3499 1.524 . S
C3500 C3501 1.415 . S
C3501 H3471 0.950 . S
C3501 C3496 1.363 . S
C3501 C3500 1.415 . S
H3502 C3499 0.999 . S
H3503 C3484 0.913 . S
H3504 C3522 0.951 . S
H3505 C3524 0.951 . S
H3506 C3526 0.950 . S
H3507 C3527 0.950 . S
H3508 C3529 0.950 . S
H3509 C3532 0.950 . S
H3510 C3533 0.950 . S
H3511 C3535 0.950 . S
H3512 C3536 0.950 . S
H3513 C3537 0.951 . S
H3514 C3539 0.951 . S
H3515 C3541 0.950 . S
H3516 C3542 0.950 . S
H3517 C3544 0.950 . S
H3518 C3547 0.950 . S
H3519 C3548 0.950 . S
H3520 C3550 0.950 . S
H3521 C3551 0.950 . S
C3522 H3504 0.951 . S
C3522 C3523 1.366 . S
C3522 C3524 1.388 . S
C3523 C3522 1.366 . S
C3523 C3527 1.385 . S
C3524 H3505 0.951 . S
C3524 C3522 1.388 . S
C3524 C3525 1.366 . S
C3525 C3524 1.366 . S
C3525 C3526 1.414 . S
C3525 C3528 1.499 . S
C3526 H3506 0.950 . S
C3526 C3525 1.414 . S
C3526 C3527 1.374 . S
C3527 H3507 0.950 . S
C3527 C3523 1.385 . S
C3527 C3526 1.374 . S
C3528 C3525 1.499 . S
C3528 C3529 1.373 . S
C3528 C3530 1.389 . S
C3529 H3508 0.950 . S
C3529 C3528 1.373 . S
C3529 C3545 1.377 . S
C3530 C3528 1.389 . S
C3530 C3531 1.524 . S
C3530 C3544 1.377 . S
C3531 C3530 1.524 . S
C3531 C3532 1.397 . S
C3531 C3536 1.363 . S
C3532 H3509 0.950 . S
C3532 C3531 1.397 . S
C3532 C3533 1.334 . S
C3533 H3510 0.950 . S
C3533 C3532 1.334 . S
C3533 C3534 1.287 . S
C3534 C3533 1.287 . S
C3534 C3535 1.524 . S
C3534 H3553 0.913 . S
C3535 H3511 0.950 . S
C3535 C3534 1.524 . S
C3535 C3536 1.415 . S
C3536 H3512 0.950 . S
C3536 C3531 1.363 . S
C3536 C3535 1.415 . S
C3537 H3513 0.951 . S
C3537 C3538 1.366 . S
C3537 C3539 1.388 . S
C3538 C3537 1.366 . S
C3538 C3542 1.385 . S
C3539 H3514 0.951 . S
C3539 C3537 1.388 . S
C3539 C3540 1.366 . S
C3540 C3539 1.366 . S
C3540 C3541 1.414 . S
C3540 C3543 1.499 . S
C3541 H3515 0.950 . S
C3541 C3540 1.414 . S
C3541 C3542 1.374 . S
C3542 H3516 0.950 . S
C3542 C3538 1.385 . S
C3542 C3541 1.374 . S
C3543 C3540 1.499 . S
C3543 C3544 1.373 . S
C3543 C3545 1.389 . S
C3544 H3517 0.950 . S
C3544 C3530 1.377 . S
C3544 C3543 1.373 . S
C3545 C3529 1.377 . S
C3545 C3543 1.389 . S
C3545 C3546 1.524 . S
C3546 C3545 1.524 . S
C3546 C3547 1.397 . S
C3546 C3551 1.363 . S
C3547 H3518 0.950 . S
C3547 C3546 1.397 . S
C3547 C3548 1.334 . S
C3548 H3519 0.950 . S
C3548 C3547 1.334 . S
C3548 C3549 1.287 . S
C3549 C3548 1.287 . S
C3549 C3550 1.524 . S
C3549 H3552 0.999 . S
C3550 H3520 0.950 . S
C3550 C3549 1.524 . S
C3550 C3551 1.415 . S
C3551 H3521 0.950 . S
C3551 C3546 1.363 . S
C3551 C3550 1.415 . S
H3552 C3549 0.999 . S
H3553 C3534 0.913 . S
H3554 C3572 0.951 . S
H3555 C3574 0.951 . S
H3556 C3576 0.950 . S
H3557 C3577 0.950 . S
H3558 C3579 0.950 . S
H3559 C3582 0.950 . S
H3560 C3583 0.950 . S
H3561 C3585 0.950 . S
H3562 C3586 0.950 . S
H3563 C3587 0.951 . S
H3564 C3589 0.951 . S
H3565 C3591 0.950 . S
H3566 C3592 0.950 . S
H3567 C3594 0.950 . S
H3568 C3597 0.950 . S
H3569 C3598 0.950 . S
H3570 C3600 0.950 . S
H3571 C3601 0.950 . S
C3572 H3554 0.951 . S
C3572 C3573 1.366 . S
C3572 C3574 1.388 . S
C3573 C3572 1.366 . S
C3573 C3577 1.385 . S
C3574 H3555 0.951 . S
C3574 C3572 1.388 . S
C3574 C3575 1.366 . S
C3575 C3574 1.366 . S
C3575 C3576 1.414 . S
C3575 C3578 1.499 . S
C3576 H3556 0.950 . S
C3576 C3575 1.414 . S
C3576 C3577 1.374 . S
C3577 H3557 0.950 . S
C3577 C3573 1.385 . S
C3577 C3576 1.374 . S
C3578 C3575 1.499 . S
C3578 C3579 1.373 . S
C3578 C3580 1.389 . S
C3579 H3558 0.950 . S
C3579 C3578 1.373 . S
C3579 C3595 1.377 . S
C3580 C3578 1.389 . S
C3580 C3581 1.524 . S
C3580 C3594 1.377 . S
C3581 C3580 1.524 . S
C3581 C3582 1.397 . S
C3581 C3586 1.363 . S
C3582 H3559 0.950 . S
C3582 C3581 1.397 . S
C3582 C3583 1.334 . S
C3583 H3560 0.950 . S
C3583 C3582 1.334 . S
C3583 C3584 1.287 . S
C3584 C3583 1.287 . S
C3584 C3585 1.524 . S
C3584 H3603 0.913 . S
C3585 H3561 0.950 . S
C3585 C3584 1.524 . S
C3585 C3586 1.415 . S
C3586 H3562 0.950 . S
C3586 C3581 1.363 . S
C3586 C3585 1.415 . S
C3587 H3563 0.951 . S
C3587 C3588 1.366 . S
C3587 C3589 1.388 . S
C3588 C3587 1.366 . S
C3588 C3592 1.385 . S
C3589 H3564 0.951 . S
C3589 C3587 1.388 . S
C3589 C3590 1.366 . S
C3590 C3589 1.366 . S
C3590 C3591 1.414 . S
C3590 C3593 1.499 . S
C3591 H3565 0.950 . S
C3591 C3590 1.414 . S
C3591 C3592 1.374 . S
C3592 H3566 0.950 . S
C3592 C3588 1.385 . S
C3592 C3591 1.374 . S
C3593 C3590 1.499 . S
C3593 C3594 1.373 . S
C3593 C3595 1.389 . S
C3594 H3567 0.950 . S
C3594 C3580 1.377 . S
C3594 C3593 1.373 . S
C3595 C3579 1.377 . S
C3595 C3593 1.389 . S
C3595 C3596 1.524 . S
C3596 C3595 1.524 . S
C3596 C3597 1.397 . S
C3596 C3601 1.363 . S
C3597 H3568 0.950 . S
C3597 C3596 1.397 . S
C3597 C3598 1.334 . S
C3598 H3569 0.950 . S
C3598 C3597 1.334 . S
C3598 C3599 1.287 . S
C3599 C3598 1.287 . S
C3599 C3600 1.524 . S
C3599 H3602 0.999 . S
C3600 H3570 0.950 . S
C3600 C3599 1.524 . S
C3600 C3601 1.415 . S
C3601 H3571 0.950 . S
C3601 C3596 1.363 . S
C3601 C3600 1.415 . S
H3602 C3599 0.999 . S
H3603 C3584 0.913 . S
H3604 C3622 0.951 . S
H3605 C3624 0.951 . S
H3606 C3626 0.950 . S
H3607 C3627 0.950 . S
H3608 C3629 0.950 . S
H3609 C3632 0.950 . S
H3610 C3633 0.950 . S
H3611 C3635 0.950 . S
H3612 C3636 0.950 . S
H3613 C3637 0.951 . S
H3614 C3639 0.951 . S
H3615 C3641 0.950 . S
H3616 C3642 0.950 . S
H3617 C3644 0.950 . S
H3618 C3647 0.950 . S
H3619 C3648 0.950 . S
H3620 C3650 0.950 . S
H3621 C3651 0.950 . S
C3622 H3604 0.951 . S
C3622 C3623 1.366 . S
C3622 C3624 1.388 . S
C3623 C3622 1.366 . S
C3623 C3627 1.385 . S
C3624 H3605 0.951 . S
C3624 C3622 1.388 . S
C3624 C3625 1.366 . S
C3625 C3624 1.366 . S
C3625 C3626 1.414 . S
C3625 C3628 1.499 . S
C3626 H3606 0.950 . S
C3626 C3625 1.414 . S
C3626 C3627 1.374 . S
C3627 H3607 0.950 . S
C3627 C3623 1.385 . S
C3627 C3626 1.374 . S
C3628 C3625 1.499 . S
C3628 C3629 1.373 . S
C3628 C3630 1.389 . S
C3629 H3608 0.950 . S
C3629 C3628 1.373 . S
C3629 C3645 1.377 . S
C3630 C3628 1.389 . S
C3630 C3631 1.524 . S
C3630 C3644 1.377 . S
C3631 C3630 1.524 . S
C3631 C3632 1.397 . S
C3631 C3636 1.363 . S
C3632 H3609 0.950 . S
C3632 C3631 1.397 . S
C3632 C3633 1.334 . S
C3633 H3610 0.950 . S
C3633 C3632 1.334 . S
C3633 C3634 1.287 . S
C3634 C3633 1.287 . S
C3634 C3635 1.524 . S
C3634 H3653 0.913 . S
C3635 H3611 0.950 . S
C3635 C3634 1.524 . S
C3635 C3636 1.415 . S
C3636 H3612 0.950 . S
C3636 C3631 1.363 . S
C3636 C3635 1.415 . S
C3637 H3613 0.951 . S
C3637 C3638 1.366 . S
C3637 C3639 1.388 . S
C3638 C3637 1.366 . S
C3638 C3642 1.385 . S
C3639 H3614 0.951 . S
C3639 C3637 1.388 . S
C3639 C3640 1.366 . S
C3640 C3639 1.366 . S
C3640 C3641 1.414 . S
C3640 C3643 1.499 . S
C3641 H3615 0.950 . S
C3641 C3640 1.414 . S
C3641 C3642 1.374 . S
C3642 H3616 0.950 . S
C3642 C3638 1.385 . S
C3642 C3641 1.374 . S
C3643 C3640 1.499 . S
C3643 C3644 1.373 . S
C3643 C3645 1.389 . S
C3644 H3617 0.950 . S
C3644 C3630 1.377 . S
C3644 C3643 1.373 . S
C3645 C3629 1.377 . S
C3645 C3643 1.389 . S
C3645 C3646 1.524 . S
C3646 C3645 1.524 . S
C3646 C3647 1.397 . S
C3646 C3651 1.363 . S
C3647 H3618 0.950 . S
C3647 C3646 1.397 . S
C3647 C3648 1.334 . S
C3648 H3619 0.950 . S
C3648 C3647 1.334 . S
C3648 C3649 1.287 . S
C3649 C3648 1.287 . S
C3649 C3650 1.524 . S
C3649 H3652 0.999 . S
C3650 H3620 0.950 . S
C3650 C3649 1.524 . S
C3650 C3651 1.415 . S
C3651 H3621 0.950 . S
C3651 C3646 1.363 . S
C3651 C3650 1.415 . S
H3652 C3649 0.999 . S
H3653 C3634 0.913 . S
H3654 C3672 0.951 . S
H3655 C3674 0.951 . S
H3656 C3676 0.950 . S
H3657 C3677 0.950 . S
H3658 C3679 0.950 . S
H3659 C3682 0.950 . S
H3660 C3683 0.950 . S
H3661 C3685 0.950 . S
H3662 C3686 0.950 . S
H3663 C3687 0.951 . S
H3664 C3689 0.951 . S
H3665 C3691 0.950 . S
H3666 C3692 0.950 . S
H3667 C3694 0.950 . S
H3668 C3697 0.950 . S
H3669 C3698 0.950 . S
H3670 C3700 0.950 . S
H3671 C3701 0.950 . S
C3672 H3654 0.951 . S
C3672 C3673 1.366 . S
C3672 C3674 1.388 . S
C3673 C3672 1.366 . S
C3673 C3677 1.385 . S
C3674 H3655 0.951 . S
C3674 C3672 1.388 . S
C3674 C3675 1.366 . S
C3675 C3674 1.366 . S
C3675 C3676 1.414 . S
C3675 C3678 1.499 . S
C3676 H3656 0.950 . S
C3676 C3675 1.414 . S
C3676 C3677 1.374 . S
C3677 H3657 0.950 . S
C3677 C3673 1.385 . S
C3677 C3676 1.374 . S
C3678 C3675 1.499 . S
C3678 C3679 1.373 . S
C3678 C3680 1.389 . S
C3679 H3658 0.950 . S
C3679 C3678 1.373 . S
C3679 C3695 1.377 . S
C3680 C3678 1.389 . S
C3680 C3681 1.524 . S
C3680 C3694 1.377 . S
C3681 C3680 1.524 . S
C3681 C3682 1.397 . S
C3681 C3686 1.363 . S
C3682 H3659 0.950 . S
C3682 C3681 1.397 . S
C3682 C3683 1.334 . S
C3683 H3660 0.950 . S
C3683 C3682 1.334 . S
C3683 C3684 1.287 . S
C3684 C3683 1.287 . S
C3684 C3685 1.524 . S
C3684 H3703 0.913 . S
C3685 H3661 0.950 . S
C3685 C3684 1.524 . S
C3685 C3686 1.415 . S
C3686 H3662 0.950 . S
C3686 C3681 1.363 . S
C3686 C3685 1.415 . S
C3687 H3663 0.951 . S
C3687 C3688 1.366 . S
C3687 C3689 1.388 . S
C3688 C3687 1.366 . S
C3688 C3692 1.385 . S
C3689 H3664 0.951 . S
C3689 C3687 1.388 . S
C3689 C3690 1.366 . S
C3690 C3689 1.366 . S
C3690 C3691 1.414 . S
C3690 C3693 1.499 . S
C3691 H3665 0.950 . S
C3691 C3690 1.414 . S
C3691 C3692 1.374 . S
C3692 H3666 0.950 . S
C3692 C3688 1.385 . S
C3692 C3691 1.374 . S
C3693 C3690 1.499 . S
C3693 C3694 1.373 . S
C3693 C3695 1.389 . S
C3694 H3667 0.950 . S
C3694 C3680 1.377 . S
C3694 C3693 1.373 . S
C3695 C3679 1.377 . S
C3695 C3693 1.389 . S
C3695 C3696 1.524 . S
C3696 C3695 1.524 . S
C3696 C3697 1.397 . S
C3696 C3701 1.363 . S
C3697 H3668 0.950 . S
C3697 C3696 1.397 . S
C3697 C3698 1.334 . S
C3698 H3669 0.950 . S
C3698 C3697 1.334 . S
C3698 C3699 1.287 . S
C3699 C3698 1.287 . S
C3699 C3700 1.524 . S
C3699 H3702 0.999 . S
C3700 H3670 0.950 . S
C3700 C3699 1.524 . S
C3700 C3701 1.415 . S
C3701 H3671 0.950 . S
C3701 C3696 1.363 . S
C3701 C3700 1.415 . S
H3702 C3699 0.999 . S
H3703 C3684 0.913 . S
H3704 C3722 0.951 . S
H3705 C3724 0.951 . S
H3706 C3726 0.950 . S
H3707 C3727 0.950 . S
H3708 C3729 0.950 . S
H3709 C3732 0.950 . S
H3710 C3733 0.950 . S
H3711 C3735 0.950 . S
H3712 C3736 0.950 . S
H3713 C3737 0.951 . S
H3714 C3739 0.951 . S
H3715 C3741 0.950 . S
H3716 C3742 0.950 . S
H3717 C3744 0.950 . S
H3718 C3747 0.950 . S
H3719 C3748 0.950 . S
H3720 C3750 0.950 . S
H3721 C3751 0.950 . S
C3722 H3704 0.951 . S
C3722 C3723 1.366 . S
C3722 C3724 1.388 . S
C3723 C3722 1.366 . S
C3723 C3727 1.385 . S
C3724 H3705 0.951 . S
C3724 C3722 1.388 . S
C3724 C3725 1.366 . S
C3725 C3724 1.366 . S
C3725 C3726 1.414 . S
C3725 C3728 1.499 . S
C3726 H3706 0.950 . S
C3726 C3725 1.414 . S
C3726 C3727 1.374 . S
C3727 H3707 0.950 . S
C3727 C3723 1.385 . S
C3727 C3726 1.374 . S
C3728 C3725 1.499 . S
C3728 C3729 1.373 . S
C3728 C3730 1.389 . S
C3729 H3708 0.950 . S
C3729 C3728 1.373 . S
C3729 C3745 1.377 . S
C3730 C3728 1.389 . S
C3730 C3731 1.524 . S
C3730 C3744 1.377 . S
C3731 C3730 1.524 . S
C3731 C3732 1.397 . S
C3731 C3736 1.363 . S
C3732 H3709 0.950 . S
C3732 C3731 1.397 . S
C3732 C3733 1.334 . S
C3733 H3710 0.950 . S
C3733 C3732 1.334 . S
C3733 C3734 1.287 . S
C3734 C3733 1.287 . S
C3734 C3735 1.524 . S
C3734 H3753 0.913 . S
C3735 H3711 0.950 . S
C3735 C3734 1.524 . S
C3735 C3736 1.415 . S
C3736 H3712 0.950 . S
C3736 C3731 1.363 . S
C3736 C3735 1.415 . S
C3737 H3713 0.951 . S
C3737 C3738 1.366 . S
C3737 C3739 1.388 . S
C3738 C3737 1.366 . S
C3738 C3742 1.385 . S
C3739 H3714 0.951 . S
C3739 C3737 1.388 . S
C3739 C3740 1.366 . S
C3740 C3739 1.366 . S
C3740 C3741 1.414 . S
C3740 C3743 1.499 . S
C3741 H3715 0.950 . S
C3741 C3740 1.414 . S
C3741 C3742 1.374 . S
C3742 H3716 0.950 . S
C3742 C3738 1.385 . S
C3742 C3741 1.374 . S
C3743 C3740 1.499 . S
C3743 C3744 1.373 . S
C3743 C3745 1.389 . S
C3744 H3717 0.950 . S
C3744 C3730 1.377 . S
C3744 C3743 1.373 . S
C3745 C3729 1.377 . S
C3745 C3743 1.389 . S
C3745 C3746 1.524 . S
C3746 C3745 1.524 . S
C3746 C3747 1.397 . S
C3746 C3751 1.363 . S
C3747 H3718 0.950 . S
C3747 C3746 1.397 . S
C3747 C3748 1.334 . S
C3748 H3719 0.950 . S
C3748 C3747 1.334 . S
C3748 C3749 1.287 . S
C3749 C3748 1.287 . S
C3749 C3750 1.524 . S
C3749 H3752 0.999 . S
C3750 H3720 0.950 . S
C3750 C3749 1.524 . S
C3750 C3751 1.415 . S
C3751 H3721 0.950 . S
C3751 C3746 1.363 . S
C3751 C3750 1.415 . S
H3752 C3749 0.999 . S
H3753 C3734 0.913 . S
H3754 C3772 0.951 . S
H3755 C3774 0.951 . S
H3756 C3776 0.950 . S
H3757 C3777 0.950 . S
H3758 C3779 0.950 . S
H3759 C3782 0.950 . S
H3760 C3783 0.950 . S
H3761 C3785 0.950 . S
H3762 C3786 0.950 . S
H3763 C3787 0.951 . S
H3764 C3789 0.951 . S
H3765 C3791 0.950 . S
H3766 C3792 0.950 . S
H3767 C3794 0.950 . S
H3768 C3797 0.950 . S
H3769 C3798 0.950 . S
H3770 C3800 0.950 . S
H3771 C3801 0.950 . S
C3772 H3754 0.951 . S
C3772 C3773 1.366 . S
C3772 C3774 1.388 . S
C3773 C3772 1.366 . S
C3773 C3777 1.385 . S
C3774 H3755 0.951 . S
C3774 C3772 1.388 . S
C3774 C3775 1.366 . S
C3775 C3774 1.366 . S
C3775 C3776 1.414 . S
C3775 C3778 1.499 . S
C3776 H3756 0.950 . S
C3776 C3775 1.414 . S
C3776 C3777 1.374 . S
C3777 H3757 0.950 . S
C3777 C3773 1.385 . S
C3777 C3776 1.374 . S
C3778 C3775 1.499 . S
C3778 C3779 1.373 . S
C3778 C3780 1.389 . S
C3779 H3758 0.950 . S
C3779 C3778 1.373 . S
C3779 C3795 1.377 . S
C3780 C3778 1.389 . S
C3780 C3781 1.524 . S
C3780 C3794 1.377 . S
C3781 C3780 1.524 . S
C3781 C3782 1.397 . S
C3781 C3786 1.363 . S
C3782 H3759 0.950 . S
C3782 C3781 1.397 . S
C3782 C3783 1.334 . S
C3783 H3760 0.950 . S
C3783 C3782 1.334 . S
C3783 C3784 1.287 . S
C3784 C3783 1.287 . S
C3784 C3785 1.524 . S
C3784 H3803 0.913 . S
C3785 H3761 0.950 . S
C3785 C3784 1.524 . S
C3785 C3786 1.415 . S
C3786 H3762 0.950 . S
C3786 C3781 1.363 . S
C3786 C3785 1.415 . S
C3787 H3763 0.951 . S
C3787 C3788 1.366 . S
C3787 C3789 1.388 . S
C3788 C3787 1.366 . S
C3788 C3792 1.385 . S
C3789 H3764 0.951 . S
C3789 C3787 1.388 . S
C3789 C3790 1.366 . S
C3790 C3789 1.366 . S
C3790 C3791 1.414 . S
C3790 C3793 1.499 . S
C3791 H3765 0.950 . S
C3791 C3790 1.414 . S
C3791 C3792 1.374 . S
C3792 H3766 0.950 . S
C3792 C3788 1.385 . S
C3792 C3791 1.374 . S
C3793 C3790 1.499 . S
C3793 C3794 1.373 . S
C3793 C3795 1.389 . S
C3794 H3767 0.950 . S
C3794 C3780 1.377 . S
C3794 C3793 1.373 . S
C3795 C3779 1.377 . S
C3795 C3793 1.389 . S
C3795 C3796 1.524 . S
C3796 C3795 1.524 . S
C3796 C3797 1.397 . S
C3796 C3801 1.363 . S
C3797 H3768 0.950 . S
C3797 C3796 1.397 . S
C3797 C3798 1.334 . S
C3798 H3769 0.950 . S
C3798 C3797 1.334 . S
C3798 C3799 1.287 . S
C3799 C3798 1.287 . S
C3799 C3800 1.524 . S
C3799 H3802 0.999 . S
C3800 H3770 0.950 . S
C3800 C3799 1.524 . S
C3800 C3801 1.415 . S
C3801 H3771 0.950 . S
C3801 C3796 1.363 . S
C3801 C3800 1.415 . S
H3802 C3799 0.999 . S
H3803 C3784 0.913 . S
H3804 C3822 0.951 . S
H3805 C3824 0.951 . S
H3806 C3826 0.950 . S
H3807 C3827 0.950 . S
H3808 C3829 0.950 . S
H3809 C3832 0.950 . S
H3810 C3833 0.950 . S
H3811 C3835 0.950 . S
H3812 C3836 0.950 . S
H3813 C3837 0.951 . S
H3814 C3839 0.951 . S
H3815 C3841 0.950 . S
H3816 C3842 0.950 . S
H3817 C3844 0.950 . S
H3818 C3847 0.950 . S
H3819 C3848 0.950 . S
H3820 C3850 0.950 . S
H3821 C3851 0.950 . S
C3822 H3804 0.951 . S
C3822 C3823 1.366 . S
C3822 C3824 1.388 . S
C3823 C3822 1.366 . S
C3823 C3827 1.385 . S
C3824 H3805 0.951 . S
C3824 C3822 1.388 . S
C3824 C3825 1.366 . S
C3825 C3824 1.366 . S
C3825 C3826 1.414 . S
C3825 C3828 1.499 . S
C3826 H3806 0.950 . S
C3826 C3825 1.414 . S
C3826 C3827 1.374 . S
C3827 H3807 0.950 . S
C3827 C3823 1.385 . S
C3827 C3826 1.374 . S
C3828 C3825 1.499 . S
C3828 C3829 1.373 . S
C3828 C3830 1.389 . S
C3829 H3808 0.950 . S
C3829 C3828 1.373 . S
C3829 C3845 1.377 1_455 S
C3830 C3828 1.389 . S
C3830 C3831 1.523 . S
C3830 C3844 1.377 1_455 S
C3831 C3830 1.523 . S
C3831 C3832 1.426 . S
C3831 C3836 1.334 1_455 S
C3832 H3809 0.950 . S
C3832 C3831 1.426 . S
C3832 C3833 1.334 . S
C3833 H3810 0.950 . S
C3833 C3832 1.334 . S
C3833 C3834 1.287 1_455 S
C3834 C3833 1.287 1_655 S
C3834 C3835 1.524 . S
C3834 H3853 0.913 . S
C3835 H3811 0.950 . S
C3835 C3834 1.524 . S
C3835 C3836 1.415 . S
C3836 H3812 0.950 . S
C3836 C3831 1.334 1_655 S
C3836 C3835 1.415 . S
C3837 H3813 0.951 . S
C3837 C3838 1.366 . S
C3837 C3839 1.388 . S
C3838 C3837 1.366 . S
C3838 C3842 1.385 . S
C3839 H3814 0.951 . S
C3839 C3837 1.388 . S
C3839 C3840 1.366 . S
C3840 C3839 1.366 . S
C3840 C3841 1.414 . S
C3840 C3843 1.499 . S
C3841 H3815 0.950 . S
C3841 C3840 1.414 . S
C3841 C3842 1.374 . S
C3842 H3816 0.950 . S
C3842 C3838 1.385 . S
C3842 C3841 1.374 . S
C3843 C3840 1.499 . S
C3843 C3844 1.373 . S
C3843 C3845 1.389 . S
C3844 H3817 0.950 . S
C3844 C3830 1.377 1_655 S
C3844 C3843 1.373 . S
C3845 C3829 1.377 1_655 S
C3845 C3843 1.389 . S
C3845 C3846 1.523 . S
C3846 C3845 1.523 . S
C3846 C3847 1.426 . S
C3846 C3851 1.334 1_655 S
C3847 H3818 0.950 . S
C3847 C3846 1.426 . S
C3847 C3848 1.334 . S
C3848 H3819 0.950 . S
C3848 C3847 1.334 . S
C3848 C3849 1.287 1_655 S
C3849 C3848 1.287 1_455 S
C3849 C3850 1.524 . S
C3849 H3852 0.999 . S
C3850 H3820 0.950 . S
C3850 C3849 1.524 . S
C3850 C3851 1.415 . S
C3851 H3821 0.950 . S
C3851 C3846 1.334 1_455 S
C3851 C3850 1.415 . S
H3852 C3849 0.999 . S
H3853 C3834 0.913 . S
H3854 C3872 0.951 . S
H3855 C3874 0.951 . S
H3856 C3876 0.950 . S
H3857 C3877 0.950 . S
H3858 C3879 0.950 . S
H3859 C3882 0.950 . S
H3860 C3883 0.950 . S
H3861 C3885 0.950 . S
H3862 C3886 0.950 . S
H3863 C3887 0.951 . S
H3864 C3889 0.951 . S
H3865 C3891 0.950 . S
H3866 C3892 0.950 . S
H3867 C3894 0.950 . S
H3868 C3897 0.950 . S
H3869 C3898 0.950 . S
H3870 C3900 0.950 . S
H3871 C3901 0.950 . S
C3872 H3854 0.951 . S
C3872 C3873 1.366 . S
C3872 C3874 1.388 . S
C3873 C3872 1.366 . S
C3873 C3877 1.385 . S
C3874 H3855 0.951 . S
C3874 C3872 1.388 . S
C3874 C3875 1.366 . S
C3875 C3874 1.366 . S
C3875 C3876 1.414 . S
C3875 C3878 1.499 . S
C3876 H3856 0.950 . S
C3876 C3875 1.414 . S
C3876 C3877 1.374 . S
C3877 H3857 0.950 . S
C3877 C3873 1.385 . S
C3877 C3876 1.374 . S
C3878 C3875 1.499 . S
C3878 C3879 1.373 . S
C3878 C3880 1.389 . S
C3879 H3858 0.950 . S
C3879 C3878 1.373 . S
C3879 C3895 1.377 . S
C3880 C3878 1.389 . S
C3880 C3881 1.524 . S
C3880 C3894 1.377 . S
C3881 C3880 1.524 . S
C3881 C3882 1.397 . S
C3881 C3886 1.363 . S
C3882 H3859 0.950 . S
C3882 C3881 1.397 . S
C3882 C3883 1.334 . S
C3883 H3860 0.950 . S
C3883 C3882 1.334 . S
C3883 C3884 1.287 . S
C3884 C3883 1.287 . S
C3884 C3885 1.524 . S
C3884 H3903 0.913 . S
C3885 H3861 0.950 . S
C3885 C3884 1.524 . S
C3885 C3886 1.415 . S
C3886 H3862 0.950 . S
C3886 C3881 1.363 . S
C3886 C3885 1.415 . S
C3887 H3863 0.951 . S
C3887 C3888 1.366 . S
C3887 C3889 1.388 . S
C3888 C3887 1.366 . S
C3888 C3892 1.385 . S
C3889 H3864 0.951 . S
C3889 C3887 1.388 . S
C3889 C3890 1.366 . S
C3890 C3889 1.366 . S
C3890 C3891 1.414 . S
C3890 C3893 1.499 . S
C3891 H3865 0.950 . S
C3891 C3890 1.414 . S
C3891 C3892 1.374 . S
C3892 H3866 0.950 . S
C3892 C3888 1.385 . S
C3892 C3891 1.374 . S
C3893 C3890 1.499 . S
C3893 C3894 1.373 . S
C3893 C3895 1.389 . S
C3894 H3867 0.950 . S
C3894 C3880 1.377 . S
C3894 C3893 1.373 . S
C3895 C3879 1.377 . S
C3895 C3893 1.389 . S
C3895 C3896 1.524 . S
C3896 C3895 1.524 . S
C3896 C3897 1.397 . S
C3896 C3901 1.363 . S
C3897 H3868 0.950 . S
C3897 C3896 1.397 . S
C3897 C3898 1.334 . S
C3898 H3869 0.950 . S
C3898 C3897 1.334 . S
C3898 C3899 1.287 . S
C3899 C3898 1.287 . S
C3899 C3900 1.524 . S
C3899 H3902 0.999 . S
C3900 H3870 0.950 . S
C3900 C3899 1.524 . S
C3900 C3901 1.415 . S
C3901 H3871 0.950 . S
C3901 C3896 1.363 . S
C3901 C3900 1.415 . S
H3902 C3899 0.999 . S
H3903 C3884 0.913 . S
H3904 C3922 0.951 . S
H3905 C3924 0.951 . S
H3906 C3926 0.950 . S
H3907 C3927 0.950 . S
H3908 C3929 0.950 . S
H3909 C3932 0.950 . S
H3910 C3933 0.950 . S
H3911 C3935 0.950 . S
H3912 C3936 0.950 . S
H3913 C3937 0.951 . S
H3914 C3939 0.951 . S
H3915 C3941 0.950 . S
H3916 C3942 0.950 . S
H3917 C3944 0.950 . S
H3918 C3947 0.950 . S
H3919 C3948 0.950 . S
H3920 C3950 0.950 . S
H3921 C3951 0.950 . S
C3922 H3904 0.951 . S
C3922 C3923 1.366 . S
C3922 C3924 1.388 . S
C3923 C3922 1.366 . S
C3923 C3927 1.385 . S
C3924 H3905 0.951 . S
C3924 C3922 1.388 . S
C3924 C3925 1.366 . S
C3925 C3924 1.366 . S
C3925 C3926 1.414 . S
C3925 C3928 1.499 . S
C3926 H3906 0.950 . S
C3926 C3925 1.414 . S
C3926 C3927 1.374 . S
C3927 H3907 0.950 . S
C3927 C3923 1.385 . S
C3927 C3926 1.374 . S
C3928 C3925 1.499 . S
C3928 C3929 1.373 . S
C3928 C3930 1.350 1_545 S
C3929 H3908 0.950 . S
C3929 C3928 1.373 . S
C3929 C3945 1.402 . S
C3930 C3928 1.350 1_565 S
C3930 C3931 1.541 . S
C3930 C3944 1.402 . S
C3931 C3930 1.541 . S
C3931 C3932 1.397 1_565 S
C3931 C3936 1.363 . S
C3932 H3909 0.950 . S
C3932 C3931 1.397 1_545 S
C3932 C3933 1.334 . S
C3933 H3910 0.950 . S
C3933 C3932 1.334 . S
C3933 C3934 1.287 1_545 S
C3934 C3933 1.287 1_565 S
C3934 C3935 1.524 . S
C3934 H3953 0.913 . S
C3935 H3911 0.950 . S
C3935 C3934 1.524 . S
C3935 C3936 1.415 . S
C3936 H3912 0.950 . S
C3936 C3931 1.363 . S
C3936 C3935 1.415 . S
C3937 H3913 0.951 . S
C3937 C3938 1.366 . S
C3937 C3939 1.388 . S
C3938 C3937 1.366 . S
C3938 C3942 1.385 . S
C3939 H3914 0.951 . S
C3939 C3937 1.388 . S
C3939 C3940 1.366 . S
C3940 C3939 1.366 . S
C3940 C3941 1.414 . S
C3940 C3943 1.499 . S
C3941 H3915 0.950 . S
C3941 C3940 1.414 . S
C3941 C3942 1.374 . S
C3942 H3916 0.950 . S
C3942 C3938 1.385 . S
C3942 C3941 1.374 . S
C3943 C3940 1.499 . S
C3943 C3944 1.373 . S
C3943 C3945 1.350 1_565 S
C3944 H3917 0.950 . S
C3944 C3930 1.402 . S
C3944 C3943 1.373 . S
C3945 C3929 1.402 . S
C3945 C3943 1.350 1_545 S
C3945 C3946 1.541 . S
C3946 C3945 1.541 . S
C3946 C3947 1.397 1_545 S
C3946 C3951 1.363 . S
C3947 H3918 0.950 . S
C3947 C3946 1.397 1_565 S
C3947 C3948 1.334 . S
C3948 H3919 0.950 . S
C3948 C3947 1.334 . S
C3948 C3949 1.287 1_565 S
C3949 C3948 1.287 1_545 S
C3949 C3950 1.524 . S
C3949 H3952 0.999 . S
C3950 H3920 0.950 . S
C3950 C3949 1.524 . S
C3950 C3951 1.415 . S
C3951 H3921 0.950 . S
C3951 C3946 1.363 . S
C3951 C3950 1.415 . S
H3952 C3949 0.999 . S
H3953 C3934 0.913 . S
H3954 C3972 0.951 . S
H3955 C3974 0.951 . S
H3956 C3976 0.950 . S
H3957 C3977 0.950 . S
H3958 C3979 0.950 . S
H3959 C3982 0.950 . S
H3960 C3983 0.950 . S
H3961 C3985 0.950 1_565 S
H3962 C3986 0.950 1_565 S
H3963 C3987 0.951 . S
H3964 C3989 0.951 . S
H3965 C3991 0.950 . S
H3966 C3992 0.950 . S
H3967 C3994 0.950 . S
H3968 C3997 0.950 . S
H3969 C3998 0.950 . S
H3970 C4000 0.950 1_545 S
H3971 C4001 0.950 1_545 S
C3972 H3954 0.951 . S
C3972 C3973 1.366 . S
C3972 C3974 1.388 . S
C3973 C3972 1.366 . S
C3973 C3977 1.385 . S
C3974 H3955 0.951 . S
C3974 C3972 1.388 . S
C3974 C3975 1.366 . S
C3975 C3974 1.366 . S
C3975 C3976 1.414 . S
C3975 C3978 1.499 . S
C3976 H3956 0.950 . S
C3976 C3975 1.414 . S
C3976 C3977 1.374 . S
C3977 H3957 0.950 . S
C3977 C3973 1.385 . S
C3977 C3976 1.374 . S
C3978 C3975 1.499 . S
C3978 C3979 1.373 . S
C3978 C3980 1.389 1_556 S
C3979 H3958 0.950 . S
C3979 C3978 1.373 . S
C3979 C3995 1.377 1_545 S
C3980 C3978 1.389 1_554 S
C3980 C3981 1.524 . S
C3980 C3994 1.377 1_545 S
C3981 C3980 1.524 . S
C3981 C3982 1.397 . S
C3981 C3986 1.363 . S
C3982 H3959 0.950 . S
C3982 C3981 1.397 . S
C3982 C3983 1.334 . S
C3983 H3960 0.950 . S
C3983 C3982 1.334 . S
C3983 C3984 1.287 . S
C3984 C3983 1.287 . S
C3984 C3985 1.524 . S
C3984 H4003 0.913 . S
C3985 H3961 0.950 1_545 S
C3985 C3984 1.524 . S
C3985 C3986 1.415 . S
C3986 H3962 0.950 1_545 S
C3986 C3981 1.363 . S
C3986 C3985 1.415 . S
C3987 H3963 0.951 . S
C3987 C3988 1.366 . S
C3987 C3989 1.388 . S
C3988 C3987 1.366 . S
C3988 C3992 1.385 . S
C3989 H3964 0.951 . S
C3989 C3987 1.388 . S
C3989 C3990 1.366 . S
C3990 C3989 1.366 . S
C3990 C3991 1.414 . S
C3990 C3993 1.499 . S
C3991 H3965 0.950 . S
C3991 C3990 1.414 . S
C3991 C3992 1.374 . S
C3992 H3966 0.950 . S
C3992 C3988 1.385 . S
C3992 C3991 1.374 . S
C3993 C3990 1.499 . S
C3993 C3994 1.373 . S
C3993 C3995 1.389 1_554 S
C3994 H3967 0.950 . S
C3994 C3980 1.377 1_565 S
C3994 C3993 1.373 . S
C3995 C3979 1.377 1_565 S
C3995 C3993 1.389 1_556 S
C3995 C3996 1.524 . S
C3996 C3995 1.524 . S
C3996 C3997 1.397 . S
C3996 C4001 1.363 . S
C3997 H3968 0.950 . S
C3997 C3996 1.397 . S
C3997 C3998 1.334 . S
C3998 H3969 0.950 . S
C3998 C3997 1.334 . S
C3998 C3999 1.287 . S
C3999 C3998 1.287 . S
C3999 C4000 1.524 . S
C3999 H4002 0.999 . S
C4000 H3970 0.950 1_565 S
C4000 C3999 1.524 . S
C4000 C4001 1.415 . S
C4001 H3971 0.950 1_565 S
C4001 C3996 1.363 . S
C4001 C4000 1.415 . S
H4002 C3999 0.999 . S
H4003 C3984 0.913 . S
H4004 C4022 0.951 . S
H4005 C4024 0.951 . S
H4006 C4026 0.950 . S
H4007 C4027 0.950 . S
H4008 C4029 0.950 . S
H4009 C4032 0.950 . S
H4010 C4033 0.950 . S
H4011 C4035 0.950 . S
H4012 C4036 0.950 . S
H4013 C4037 0.951 . S
H4014 C4039 0.951 . S
H4015 C4041 0.950 . S
H4016 C4042 0.950 . S
H4017 C4044 0.950 . S
H4018 C4047 0.950 . S
H4019 C4048 0.950 . S
H4020 C4050 0.950 . S
H4021 C4051 0.950 . S
C4022 H4004 0.951 . S
C4022 C4023 1.366 . S
C4022 C4024 1.388 . S
C4023 C4022 1.366 . S
C4023 C4027 1.385 . S
C4024 H4005 0.951 . S
C4024 C4022 1.388 . S
C4024 C4025 1.366 . S
C4025 C4024 1.366 . S
C4025 C4026 1.414 . S
C4025 C4028 1.499 . S
C4026 H4006 0.950 . S
C4026 C4025 1.414 . S
C4026 C4027 1.374 . S
C4027 H4007 0.950 . S
C4027 C4023 1.385 . S
C4027 C4026 1.374 . S
C4028 C4025 1.499 . S
C4028 C4029 1.373 . S
C4028 C4030 1.389 1_556 S
C4029 H4008 0.950 . S
C4029 C4028 1.373 . S
C4029 C4045 1.377 1_655 S
C4030 C4028 1.389 1_554 S
C4030 C4031 1.524 . S
C4030 C4044 1.377 1_655 S
C4031 C4030 1.524 . S
C4031 C4032 1.397 . S
C4031 C4036 1.363 . S
C4032 H4009 0.950 . S
C4032 C4031 1.397 . S
C4032 C4033 1.334 . S
C4033 H4010 0.950 . S
C4033 C4032 1.334 . S
C4033 C4034 1.287 . S
C4034 C4033 1.287 . S
C4034 C4035 1.524 . S
C4034 H4053 0.913 . S
C4035 H4011 0.950 . S
C4035 C4034 1.524 . S
C4035 C4036 1.415 . S
C4036 H4012 0.950 . S
C4036 C4031 1.363 . S
C4036 C4035 1.415 . S
C4037 H4013 0.951 . S
C4037 C4038 1.366 . S
C4037 C4039 1.388 . S
C4038 C4037 1.366 . S
C4038 C4042 1.385 . S
C4039 H4014 0.951 . S
C4039 C4037 1.388 . S
C4039 C4040 1.366 . S
C4040 C4039 1.366 . S
C4040 C4041 1.414 . S
C4040 C4043 1.499 . S
C4041 H4015 0.950 . S
C4041 C4040 1.414 . S
C4041 C4042 1.374 . S
C4042 H4016 0.950 . S
C4042 C4038 1.385 . S
C4042 C4041 1.374 . S
C4043 C4040 1.499 . S
C4043 C4044 1.373 . S
C4043 C4045 1.389 1_554 S
C4044 H4017 0.950 . S
C4044 C4030 1.377 1_455 S
C4044 C4043 1.373 . S
C4045 C4029 1.377 1_455 S
C4045 C4043 1.389 1_556 S
C4045 C4046 1.524 . S
C4046 C4045 1.524 . S
C4046 C4047 1.397 . S
C4046 C4051 1.363 . S
C4047 H4018 0.950 . S
C4047 C4046 1.397 . S
C4047 C4048 1.334 . S
C4048 H4019 0.950 . S
C4048 C4047 1.334 . S
C4048 C4049 1.287 . S
C4049 C4048 1.287 . S
C4049 C4050 1.524 . S
C4049 H4052 0.999 . S
C4050 H4020 0.950 . S
C4050 C4049 1.524 . S
C4050 C4051 1.415 . S
C4051 H4021 0.950 . S
C4051 C4046 1.363 . S
C4051 C4050 1.415 . S
H4052 C4049 0.999 . S
H4053 C4034 0.913 . S
H4054 C4072 0.951 . S
H4055 C4074 0.951 1_554 S
H4056 C4076 0.950 . S
H4057 C4077 0.950 . S
H4058 C4079 0.950 . S
H4059 C4082 0.950 1_556 S
H4060 C4083 0.943 1_556 S
H4061 C4085 0.950 . S
H4062 C4086 0.950 . S
H4063 C4087 0.951 . S
H4064 C4089 0.951 1_556 S
H4065 C4091 0.950 . S
H4066 C4092 0.950 . S
H4067 C4094 0.950 . S
H4068 C4097 0.950 1_554 S
H4069 C4098 0.943 1_554 S
H4070 C4100 0.950 . S
H4071 C4101 0.950 . S
C4072 H4054 0.951 . S
C4072 C4073 1.366 . S
C4072 C4074 1.388 . S
C4073 C4072 1.366 . S
C4073 C4077 1.385 . S
C4074 H4055 0.951 1_556 S
C4074 C4072 1.388 . S
C4074 C4075 1.366 . S
C4075 C4074 1.366 . S
C4075 C4076 1.414 . S
C4075 C4078 1.499 . S
C4076 H4056 0.950 . S
C4076 C4075 1.414 . S
C4076 C4077 1.374 . S
C4077 H4057 0.950 . S
C4077 C4073 1.385 . S
C4077 C4076 1.374 . S
C4078 C4075 1.499 . S
C4078 C4079 1.373 . S
C4078 C4080 1.389 1_556 S
C4079 H4058 0.950 . S
C4079 C4078 1.373 . S
C4079 C4095 1.377 . S
C4080 C4078 1.389 1_554 S
C4080 C4081 1.524 . S
C4080 C4094 1.377 . S
C4081 C4080 1.524 . S
C4081 C4082 1.397 . S
C4081 C4086 1.363 . S
C4082 H4059 0.950 1_554 S
C4082 C4081 1.397 . S
C4082 C4083 1.334 . S
C4083 H4060 0.943 1_554 S
C4083 C4082 1.334 . S
C4083 C4084 1.287 . S
C4084 C4083 1.287 . S
C4084 C4085 1.524 . S
C4084 H4103 0.913 . S
C4085 H4061 0.950 . S
C4085 C4084 1.524 . S
C4085 C4086 1.415 . S
C4086 H4062 0.950 . S
C4086 C4081 1.363 . S
C4086 C4085 1.415 . S
C4087 H4063 0.951 . S
C4087 C4088 1.366 . S
C4087 C4089 1.388 . S
C4088 C4087 1.366 . S
C4088 C4092 1.385 . S
C4089 H4064 0.951 1_554 S
C4089 C4087 1.388 . S
C4089 C4090 1.366 . S
C4090 C4089 1.366 . S
C4090 C4091 1.414 . S
C4090 C4093 1.499 . S
C4091 H4065 0.950 . S
C4091 C4090 1.414 . S
C4091 C4092 1.374 . S
C4092 H4066 0.950 . S
C4092 C4088 1.385 . S
C4092 C4091 1.374 . S
C4093 C4090 1.499 . S
C4093 C4094 1.373 . S
C4093 C4095 1.389 1_554 S
C4094 H4067 0.950 . S
C4094 C4080 1.377 . S
C4094 C4093 1.373 . S
C4095 C4079 1.377 . S
C4095 C4093 1.389 1_556 S
C4095 C4096 1.524 . S
C4096 C4095 1.524 . S
C4096 C4097 1.397 . S
C4096 C4101 1.363 . S
C4097 H4068 0.950 1_556 S
C4097 C4096 1.397 . S
C4097 C4098 1.334 . S
C4098 H4069 0.943 1_556 S
C4098 C4097 1.334 . S
C4098 C4099 1.287 . S
C4099 C4098 1.287 . S
C4099 C4100 1.524 . S
C4099 H4102 0.999 . S
C4100 H4070 0.950 . S
C4100 C4099 1.524 . S
C4100 C4101 1.415 . S
C4101 H4071 0.950 . S
C4101 C4096 1.363 . S
C4101 C4100 1.415 . S
H4102 C4099 0.999 . S
H4103 C4084 0.913 . S
C523 C3 1.253 . S
C538 C107 1.228 . S
C573 C17 1.253 . S
C588 C121 1.230 . S
C623 C93 1.229 . S
C638 C31 1.253 . S
C673 C163 1.229 . S
C688 C45 1.254 . S
C723 C59 1.253 . S
C738 C135 1.229 . S
C773 C73 1.254 . S
C788 C149 1.229 . S
C823 C23 1.229 . S
C838 C87 1.253 . S
C873 C37 1.230 . S
C888 C101 1.254 . S
C923 C115 1.254 . S
C938 C9 1.229 . S
C973 C129 1.253 . S
C988 C79 1.230 . S
C1023 C51 1.229 . S
C1038 C143 1.253 . S
C1073 C157 1.253 . S
C1088 C65 1.229 . S
C1123 C275 1.228 . S
C1138 C171 1.252 . S
C1173 C185 1.254 . S
C1188 C289 1.230 . S
C1223 C199 1.254 . S
C1238 C261 1.229 . S
C1273 C331 1.230 . S
C1288 C213 1.254 . S
C1323 C227 1.254 . S
C1338 C303 1.230 . S
C1373 C317 1.229 . S
C1388 C241 1.254 . S
C1423 C191 1.228 . S
C1438 C255 1.252 . S
C1473 C269 1.253 . S
C1488 C205 1.229 . S
C1523 C177 1.230 . S
C1538 C283 1.254 . S
C1573 C297 1.252 . S
C1588 C247 1.228 . S
C1623 C311 1.253 . S
C1638 C219 1.229 . S
C1673 C325 1.254 . S
C1688 C233 1.229 . S
C1723 C443 1.228 . S
C1738 C339 1.253 . S
C1773 C457 1.230 . S
C1788 C353 1.254 . S
C1823 C429 1.229 . S
C1838 C367 1.253 . S
C1873 C381 1.252 . S
C1888 C499 1.229 . S
C1923 C395 1.253 . S
C1938 C471 1.230 . S
C1973 C485 1.229 . S
C1988 C409 1.254 . S
C2023 C423 1.253 . S
C2038 C359 1.229 . S
C2073 C373 1.230 . S
C2088 C437 1.254 . S
C2123 C345 1.231 . S
C2138 C451 1.254 . S
C2173 C465 1.253 . S
C2188 C415 1.229 . S
C2223 C479 1.254 . S
C2238 C387 1.229 . S
C2273 C493 1.254 . S
C2288 C401 1.230 . S
C2323 C49 1.280 . S
C2338 C7 1.280 . S
C2373 C63 1.280 . S
C2388 C21 1.281 . S
C2423 C35 1.281 . S
C2438 C77 1.281 . S
C2473 C133 1.280 . S
C2488 C91 1.280 . S
C2523 C147 1.280 . S
C2538 C105 1.281 . S
C2573 C161 1.280 . S
C2588 C119 1.281 . S
C2623 C217 1.279 . S
C2638 C175 1.280 . S
C2673 C231 1.281 . S
C2688 C189 1.281 . S
C2723 C203 1.280 . S
C2738 C245 1.280 . S
C2773 C301 1.280 . S
C2788 C259 1.280 . S
C2823 C315 1.281 . S
C2838 C273 1.280 . S
C2873 C329 1.281 . S
C2888 C287 1.281 . S
C2923 C385 1.281 . S
C2938 C343 1.280 . S
C2973 C357 1.280 . S
C2988 C399 1.280 . S
C3023 C413 1.281 . S
C3038 C371 1.281 . S
C3073 C427 1.280 . S
C3088 C469 1.280 . S
C3123 C441 1.281 . S
C3138 C483 1.280 . S
C3173 C455 1.281 . S
C3188 C497 1.281 . S
C3223 C8 1.394 . S
C3238 C260 1.394 . S
C3273 C274 1.395 . S
C3288 C22 1.395 . S
C3323 C288 1.395 . S
C3338 C36 1.395 . S
C3373 C470 1.395 . S
C3388 C50 1.395 . S
C3423 C484 1.396 . S
C3438 C64 1.396 . S
C3473 C498 1.395 . S
C3488 C78 1.395 . S
C3523 C92 1.394 . S
C3538 C344 1.394 . S
C3573 C358 1.395 . S
C3588 C106 1.395 . S
C3623 C372 1.396 . S
C3638 C120 1.396 . S
C3673 C134 1.395 . S
C3688 C218 1.395 . S
C3723 C148 1.396 . S
C3738 C232 1.396 . S
C3773 C162 1.395 . S
C3788 C246 1.395 . S
C3823 C428 1.394 . S
C3838 C176 1.394 . S
C3873 C442 1.395 . S
C3888 C190 1.395 . S
C3923 C204 1.395 . S
C3938 C456 1.395 . S
C3973 C302 1.394 . S
C3988 C386 1.394 . S
C4023 C316 1.395 . S
C4038 C400 1.395 . S
C4073 C330 1.394 . S
C4088 C414 1.394 . S
