# Generated by pormake.
# Topology ecc, (8)-cn, num edge types: 1
# Building blocks:
#     Node 0, Type 0, BuildingBlock: TAGTUT_clean_sbu_3, # of connection points: 8
#     Node 1, Type 0, BuildingBlock: TAGTUT_clean_sbu_3, # of connection points: 8
#     Node 2, Type 0, BuildingBlock: TAGTUT_clean_sbu_3, # of connection points: 8
#     Node 3, Type 0, BuildingBlock: TAGTUT_clean_sbu_3, # of connection points: 8
#     Node 4, Type 0, BuildingBlock: TAGTUT_clean_sbu_3, # of connection points: 8
#     Node 5, Type 0, BuildingBlock: TAGTUT_clean_sbu_3, # of connection points: 8
#     Node 6, Type 0, BuildingBlock: TAGTUT_clean_sbu_3, # of connection points: 8
#     Node 7, Type 0, BuildingBlock: TAGTUT_clean_sbu_3, # of connection points: 8
#     Node 8, Type 0, BuildingBlock: TAGTUT_clean_sbu_3, # of connection points: 8
#     Node 9, Type 0, BuildingBlock: TAGTUT_clean_sbu_3, # of connection points: 8
#     Node 10, Type 0, BuildingBlock: TAGTUT_clean_sbu_3, # of connection points: 8
#     Node 11, Type 0, BuildingBlock: TAGTUT_clean_sbu_3, # of connection points: 8
#     Node 12, Type 0, BuildingBlock: TAGTUT_clean_sbu_3, # of connection points: 8
#     Node 13, Type 0, BuildingBlock: TAGTUT_clean_sbu_3, # of connection points: 8
#     Node 14, Type 0, BuildingBlock: TAGTUT_clean_sbu_3, # of connection points: 8
#     Node 15, Type 0, BuildingBlock: TAGTUT_clean_sbu_3, # of connection points: 8
#     Node 16, Type 0, BuildingBlock: TAGTUT_clean_sbu_3, # of connection points: 8
#     Node 17, Type 0, BuildingBlock: TAGTUT_clean_sbu_3, # of connection points: 8
#     Edge 18, Type (0, 0), BuildingBlock: AJUNOK_clean_linker_0, # of connection points: 2
#     Edge 19, Type (0, 0), BuildingBlock: AJUNOK_clean_linker_0, # of connection points: 2
#     Edge 20, Type (0, 0), BuildingBlock: AJUNOK_clean_linker_0, # of connection points: 2
#     Edge 21, Type (0, 0), BuildingBlock: AJUNOK_clean_linker_0, # of connection points: 2
#     Edge 22, Type (0, 0), BuildingBlock: AJUNOK_clean_linker_0, # of connection points: 2
#     Edge 23, Type (0, 0), BuildingBlock: AJUNOK_clean_linker_0, # of connection points: 2
#     Edge 24, Type (0, 0), BuildingBlock: AJUNOK_clean_linker_0, # of connection points: 2
#     Edge 25, Type (0, 0), BuildingBlock: AJUNOK_clean_linker_0, # of connection points: 2
#     Edge 26, Type (0, 0), BuildingBlock: AJUNOK_clean_linker_0, # of connection points: 2
#     Edge 27, Type (0, 0), BuildingBlock: AJUNOK_clean_linker_0, # of connection points: 2
#     Edge 28, Type (0, 0), BuildingBlock: AJUNOK_clean_linker_0, # of connection points: 2
#     Edge 29, Type (0, 0), BuildingBlock: AJUNOK_clean_linker_0, # of connection points: 2
#     Edge 30, Type (0, 0), BuildingBlock: AJUNOK_clean_linker_0, # of connection points: 2
#     Edge 31, Type (0, 0), BuildingBlock: AJUNOK_clean_linker_0, # of connection points: 2
#     Edge 32, Type (0, 0), BuildingBlock: AJUNOK_clean_linker_0, # of connection points: 2
#     Edge 33, Type (0, 0), BuildingBlock: AJUNOK_clean_linker_0, # of connection points: 2
#     Edge 34, Type (0, 0), BuildingBlock: AJUNOK_clean_linker_0, # of connection points: 2
#     Edge 35, Type (0, 0), BuildingBlock: AJUNOK_clean_linker_0, # of connection points: 2
#     Edge 36, Type (0, 0), BuildingBlock: AJUNOK_clean_linker_0, # of connection points: 2
#     Edge 37, Type (0, 0), BuildingBlock: AJUNOK_clean_linker_0, # of connection points: 2
#     Edge 38, Type (0, 0), BuildingBlock: AJUNOK_clean_linker_0, # of connection points: 2
#     Edge 39, Type (0, 0), BuildingBlock: AJUNOK_clean_linker_0, # of connection points: 2
#     Edge 40, Type (0, 0), BuildingBlock: AJUNOK_clean_linker_0, # of connection points: 2
#     Edge 41, Type (0, 0), BuildingBlock: AJUNOK_clean_linker_0, # of connection points: 2
#     Edge 42, Type (0, 0), BuildingBlock: AJUNOK_clean_linker_0, # of connection points: 2
#     Edge 43, Type (0, 0), BuildingBlock: AJUNOK_clean_linker_0, # of connection points: 2
#     Edge 44, Type (0, 0), BuildingBlock: AJUNOK_clean_linker_0, # of connection points: 2
#     Edge 45, Type (0, 0), BuildingBlock: AJUNOK_clean_linker_0, # of connection points: 2
#     Edge 46, Type (0, 0), BuildingBlock: AJUNOK_clean_linker_0, # of connection points: 2
#     Edge 47, Type (0, 0), BuildingBlock: AJUNOK_clean_linker_0, # of connection points: 2
#     Edge 48, Type (0, 0), BuildingBlock: AJUNOK_clean_linker_0, # of connection points: 2
#     Edge 49, Type (0, 0), BuildingBlock: AJUNOK_clean_linker_0, # of connection points: 2
#     Edge 50, Type (0, 0), BuildingBlock: AJUNOK_clean_linker_0, # of connection points: 2
#     Edge 51, Type (0, 0), BuildingBlock: AJUNOK_clean_linker_0, # of connection points: 2
#     Edge 52, Type (0, 0), BuildingBlock: AJUNOK_clean_linker_0, # of connection points: 2
#     Edge 53, Type (0, 0), BuildingBlock: AJUNOK_clean_linker_0, # of connection points: 2
#     Edge 54, Type (0, 0), BuildingBlock: AJUNOK_clean_linker_0, # of connection points: 2
#     Edge 55, Type (0, 0), BuildingBlock: AJUNOK_clean_linker_0, # of connection points: 2
#     Edge 56, Type (0, 0), BuildingBlock: AJUNOK_clean_linker_0, # of connection points: 2
#     Edge 57, Type (0, 0), BuildingBlock: AJUNOK_clean_linker_0, # of connection points: 2
#     Edge 58, Type (0, 0), BuildingBlock: AJUNOK_clean_linker_0, # of connection points: 2
#     Edge 59, Type (0, 0), BuildingBlock: AJUNOK_clean_linker_0, # of connection points: 2
#     Edge 60, Type (0, 0), BuildingBlock: AJUNOK_clean_linker_0, # of connection points: 2
#     Edge 61, Type (0, 0), BuildingBlock: AJUNOK_clean_linker_0, # of connection points: 2
#     Edge 62, Type (0, 0), BuildingBlock: AJUNOK_clean_linker_0, # of connection points: 2
#     Edge 63, Type (0, 0), BuildingBlock: AJUNOK_clean_linker_0, # of connection points: 2
#     Edge 64, Type (0, 0), BuildingBlock: AJUNOK_clean_linker_0, # of connection points: 2
#     Edge 65, Type (0, 0), BuildingBlock: AJUNOK_clean_linker_0, # of connection points: 2
#     Edge 66, Type (0, 0), BuildingBlock: AJUNOK_clean_linker_0, # of connection points: 2
#     Edge 67, Type (0, 0), BuildingBlock: AJUNOK_clean_linker_0, # of connection points: 2
#     Edge 68, Type (0, 0), BuildingBlock: AJUNOK_clean_linker_0, # of connection points: 2
#     Edge 69, Type (0, 0), BuildingBlock: AJUNOK_clean_linker_0, # of connection points: 2
#     Edge 70, Type (0, 0), BuildingBlock: AJUNOK_clean_linker_0, # of connection points: 2
#     Edge 71, Type (0, 0), BuildingBlock: AJUNOK_clean_linker_0, # of connection points: 2
#     Edge 72, Type (0, 0), BuildingBlock: AJUNOK_clean_linker_0, # of connection points: 2
#     Edge 73, Type (0, 0), BuildingBlock: AJUNOK_clean_linker_0, # of connection points: 2
#     Edge 74, Type (0, 0), BuildingBlock: AJUNOK_clean_linker_0, # of connection points: 2
#     Edge 75, Type (0, 0), BuildingBlock: AJUNOK_clean_linker_0, # of connection points: 2
#     Edge 76, Type (0, 0), BuildingBlock: AJUNOK_clean_linker_0, # of connection points: 2
#     Edge 77, Type (0, 0), BuildingBlock: AJUNOK_clean_linker_0, # of connection points: 2
#     Edge 78, Type (0, 0), BuildingBlock: AJUNOK_clean_linker_0, # of connection points: 2
#     Edge 79, Type (0, 0), BuildingBlock: AJUNOK_clean_linker_0, # of connection points: 2
#     Edge 80, Type (0, 0), BuildingBlock: AJUNOK_clean_linker_0, # of connection points: 2
#     Edge 81, Type (0, 0), BuildingBlock: AJUNOK_clean_linker_0, # of connection points: 2
#     Edge 82, Type (0, 0), BuildingBlock: AJUNOK_clean_linker_0, # of connection points: 2
#     Edge 83, Type (0, 0), BuildingBlock: AJUNOK_clean_linker_0, # of connection points: 2
#     Edge 84, Type (0, 0), BuildingBlock: AJUNOK_clean_linker_0, # of connection points: 2
#     Edge 85, Type (0, 0), BuildingBlock: AJUNOK_clean_linker_0, # of connection points: 2
#     Edge 86, Type (0, 0), BuildingBlock: AJUNOK_clean_linker_0, # of connection points: 2
#     Edge 87, Type (0, 0), BuildingBlock: AJUNOK_clean_linker_0, # of connection points: 2
#     Edge 88, Type (0, 0), BuildingBlock: AJUNOK_clean_linker_0, # of connection points: 2
#     Edge 89, Type (0, 0), BuildingBlock: AJUNOK_clean_linker_0, # of connection points: 2
# Relax obj value: 0.277
# Max RMSD: 0.222
# Mean RMSD: 0.204
data_MOF--net-ecc--node1-TAGTUT_clean_sbu_3--edge1-AJUNOK_clean_linker_0
_symmetry_space_group_name_H-M    P1
_symmetry_Int_Tables_number       1
_symmetry_cell_setting            triclinic
loop_
_symmetry_equiv_pos_as_xyz
'x, y, z'
_cell_length_a     46.530759
_cell_length_b     43.66313
_cell_length_c     20.213344
_cell_angle_alpha  87.425967
_cell_angle_beta   91.122643
_cell_angle_gamma 127.03612
loop_
_atom_site_label
_atom_site_type_symbol
_atom_site_fract_x
_atom_site_fract_y
_atom_site_fract_z
_atom_type_partial_charge
C0 C 0.25451 0.10014 0.58748 0.0
C1 C 0.2363 0.16836 0.75238 0.0
C2 C 0.26252 0.10975 0.88828 0.0
Mg3 Mg 0.25416 0.02441 0.61187 0.0
Mg4 Mg 0.19263 0.94821 0.70358 0.0
O5 O 0.2266 0.001 0.69792 0.0
Mg6 Mg 0.21975 0.04097 0.71672 0.0
O7 O 0.22148 0.08798 0.72681 0.0
Mg8 Mg 0.27728 0.1295 0.73377 0.0
Mg9 Mg 0.20409 0.08535 0.80872 0.0
C10 C 0.17323 0.97156 0.83353 0.0
O11 O 0.15699 0.00466 0.70442 0.0
O12 O 0.26493 0.9799 0.61626 0.0
O13 O 0.15296 0.03404 0.78885 0.0
O14 O 0.20431 0.98243 0.55079 0.0
O15 O 0.22552 0.92977 0.68437 0.0
O16 O 0.16105 0.93492 0.61829 0.0
O17 O 0.27896 0.0788 0.74713 0.0
O18 O 0.3035 0.06169 0.68063 0.0
C19 C 0.30527 0.07893 0.73166 0.0
C20 C 0.25241 0.94713 0.64411 0.0
O21 O 0.19595 0.00827 0.82125 0.0
O22 O 0.26183 0.17052 0.72322 0.0
O23 O 0.16869 0.94647 0.79482 0.0
O24 O 0.27982 0.1363 0.84419 0.0
O25 O 0.21517 0.14128 0.79507 0.0
O26 O 0.23665 0.07718 0.87014 0.0
O27 O 0.23618 0.06492 0.60864 0.0
O28 O 0.27868 0.12664 0.62354 0.0
C29 C 0.17255 0.95166 0.56151 0.0
C30 C 0.13835 0.00692 0.7481 0.0
C31 C 0.07949 0.29877 0.65468 0.0
C32 C 0.9578 0.24052 0.80766 0.0
C33 C 0.96936 0.16185 0.85496 0.0
Mg34 Mg 0.11444 0.25742 0.6357 0.0
Mg35 Mg 0.06471 0.16494 0.60552 0.0
O36 O 0.07234 0.20146 0.6604 0.0
Mg37 Mg 0.03444 0.20748 0.68001 0.0
O38 O 0.00292 0.2221 0.70613 0.0
Mg39 Mg 0.03117 0.24989 0.78727 0.0
Mg40 Mg 0.9557 0.18124 0.72363 0.0
C41 C 0.99079 0.11259 0.6845 0.0
O42 O 0.00165 0.18639 0.5847 0.0
O43 O 0.15151 0.23815 0.64749 0.0
O44 O 0.94596 0.16156 0.62487 0.0
O45 O 0.10902 0.2445 0.52712 0.0
O46 O 0.11533 0.17518 0.62606 0.0
O47 O 0.06328 0.18385 0.5095 0.0
O48 O 0.0643 0.22753 0.77713 0.0
O49 O 0.11956 0.27253 0.74127 0.0
C50 C 0.09829 0.24568 0.78262 0.0
C51 C 0.14604 0.20577 0.64181 0.0
O52 O 0.9951 0.14125 0.71213 0.0
O53 O 0.99213 0.26404 0.80041 0.0
O54 O 0.01356 0.11688 0.64314 0.0
O55 O 0.99363 0.19794 0.85954 0.0
O56 O 0.93852 0.20917 0.77687 0.0
O57 O 0.95593 0.14713 0.79959 0.0
O58 O 0.07219 0.2675 0.6358 0.0
O59 O 0.06689 0.30041 0.70924 0.0
C60 C 0.08877 0.21739 0.48826 0.0
C61 C 0.96751 0.16822 0.578 0.0
C62 C 0.82154 0.773 0.72252 0.0
C63 C 0.73294 0.79353 0.57983 0.0
C64 C 0.82669 0.90582 0.56664 0.0
Mg65 Mg 0.90014 0.83424 0.77364 0.0
Mg66 Mg 0.92488 0.91586 0.82932 0.0
O67 O 0.90439 0.88292 0.76004 0.0
Mg68 Mg 0.85566 0.86188 0.72416 0.0
O69 O 0.80579 0.83403 0.68643 0.0
Mg70 Mg 0.81762 0.82314 0.60004 0.0
Mg71 Mg 0.78107 0.85502 0.68215 0.0
C72 C 0.89568 0.95368 0.74026 0.0
O73 O 0.83293 0.86775 0.8166 0.0
O74 O 0.96199 0.87251 0.78407 0.0
O75 O 0.78866 0.87179 0.78238 0.0
O76 O 0.89339 0.8311 0.8854 0.0
O77 O 0.97686 0.92962 0.81329 0.0
O78 O 0.9056 0.88497 0.9223 0.0
O79 O 0.87582 0.85689 0.62825 0.0
O80 O 0.90713 0.83654 0.66634 0.0
C81 C 0.89453 0.84503 0.61892 0.0
C82 C 0.98539 0.9081 0.79605 0.0
O83 O 0.87657 0.92499 0.70228 0.0
O84 O 0.75917 0.79205 0.57017 0.0
O85 O 0.91207 0.95317 0.79169 0.0
O86 O 0.82876 0.87913 0.54971 0.0
O87 O 0.73419 0.81476 0.62345 0.0
O88 O 0.81292 0.90407 0.62138 0.0
O89 O 0.84039 0.80431 0.75245 0.0
O90 O 0.8076 0.77061 0.66523 0.0
C91 C 0.89631 0.85115 0.93255 0.0
C92 C 0.81061 0.87533 0.82637 0.0
C93 C 0.75632 0.97002 0.19657 0.0
C94 C 0.79815 0.09967 0.25004 0.0
C95 C 0.87643 0.11167 0.35433 0.0
Mg96 Mg 0.80688 0.94538 0.19758 0.0
Mg97 Mg 0.8938 0.00386 0.16349 0.0
O98 O 0.85634 0.9952 0.21223 0.0
Mg99 Mg 0.84302 0.03095 0.21278 0.0
O100 O 0.82252 0.06124 0.22019 0.0
Mg101 Mg 0.79435 0.03166 0.31168 0.0
Mg102 Mg 0.85879 0.11725 0.20827 0.0
C103 C 0.93206 0.08715 0.21994 0.0
O104 O 0.86325 0.05649 0.1079 0.0
O105 O 0.83125 0.91313 0.22157 0.0
O106 O 0.88124 0.11727 0.11555 0.0
O107 O 0.81782 0.94819 0.089 0.0
O108 O 0.89103 0.95604 0.20436 0.0
O109 O 0.87591 0.99319 0.06432 0.0
O110 O 0.8259 0.00753 0.31661 0.0
O111 O 0.79833 0.94511 0.30433 0.0
C112 C 0.8117 0.97369 0.34079 0.0
C113 C 0.86323 0.92263 0.22323 0.0
O114 O 0.90268 0.0813 0.23821 0.0
O115 O 0.79932 0.07259 0.23384 0.0
O116 O 0.93292 0.06209 0.19132 0.0
O117 O 0.84414 0.08147 0.36629 0.0
O118 O 0.82271 0.13273 0.22473 0.0
O119 O 0.88798 0.12809 0.29701 0.0
O120 O 0.7878 0.98194 0.17998 0.0
O121 O 0.75092 0.98359 0.24569 0.0
C122 C 0.8436 0.96749 0.04731 0.0
C123 C 0.87909 0.09096 0.08448 0.0
C124 C 0.96724 0.74872 0.25433 0.0
C125 C 0.07101 0.79114 0.10004 0.0
C126 C 0.0809 0.89252 0.06119 0.0
Mg127 Mg 0.93744 0.79015 0.31438 0.0
Mg128 Mg 0.99559 0.879 0.3675 0.0
O129 O 0.97939 0.84735 0.29578 0.0
Mg130 Mg 0.01288 0.84082 0.249 0.0
O131 O 0.04063 0.82756 0.19962 0.0
Mg132 Mg 0.00856 0.8044 0.12139 0.0
Mg133 Mg 0.08993 0.85722 0.18689 0.0
C134 C 0.0578 0.93333 0.26118 0.0
O135 O 0.05189 0.85759 0.33503 0.0
O136 O 0.90466 0.81179 0.34112 0.0
O137 O 0.10391 0.87515 0.2879 0.0
O138 O 0.95246 0.78756 0.42318 0.0
O139 O 0.94636 0.87335 0.36762 0.0
O140 O 0.00088 0.8447 0.43635 0.0
O141 O 0.97765 0.82621 0.16006 0.0
O142 O 0.92325 0.79217 0.20758 0.0
C143 C 0.9436 0.80846 0.15662 0.0
C144 C 0.91406 0.84532 0.35301 0.0
O145 O 0.04976 0.90602 0.22399 0.0
O146 O 0.04112 0.78521 0.08724 0.0
O147 O 0.04142 0.92748 0.3158 0.0
O148 O 0.04834 0.86165 0.05712 0.0
O149 O 0.09364 0.81563 0.14152 0.0
O150 O 0.10058 0.8982 0.11102 0.0
O151 O 0.97625 0.77912 0.28051 0.0
O152 O 0.97569 0.74949 0.19385 0.0
C153 C 0.9698 0.8173 0.45731 0.0
C154 C 0.08543 0.87198 0.33775 0.0
C155 C 0.23934 0.26991 0.13211 0.0
C156 C 0.29345 0.22138 0.31953 0.0
C157 C 0.19681 0.14725 0.37963 0.0
Mg158 Mg 0.15421 0.2241 0.10406 0.0
Mg159 Mg 0.10079 0.13003 0.08668 0.0
O160 O 0.13663 0.17096 0.13517 0.0
Mg161 Mg 0.18111 0.18066 0.17228 0.0
O162 O 0.22758 0.19638 0.21304 0.0
Mg163 Mg 0.23048 0.22946 0.2827 0.0
Mg164 Mg 0.22357 0.1545 0.25156 0.0
C165 C 0.12321 0.08837 0.18353 0.0
O166 O 0.19337 0.154 0.0952 0.0
O167 O 0.09408 0.2019 0.10979 0.0
O168 O 0.21268 0.12664 0.16178 0.0
O169 O 0.14953 0.20727 -0.00135 0.0
O170 O 0.0616 0.13736 0.1173 0.0
O171 O 0.11478 0.14441 -0.01575 0.0
O172 O 0.17345 0.207 0.25672 0.0
O173 O 0.15717 0.24044 0.20699 0.0
C174 C 0.16406 0.22891 0.25906 0.0
C175 C 0.06462 0.16832 0.12267 0.0
O176 O 0.1467 0.11845 0.21571 0.0
O177 O 0.28481 0.24412 0.30896 0.0
O178 O 0.10578 0.08868 0.13398 0.0
O179 O 0.21195 0.18324 0.37031 0.0
O180 O 0.27442 0.18698 0.29968 0.0
O181 O 0.18576 0.12623 0.33002 0.0
O182 O 0.21079 0.2378 0.11619 0.0
O183 O 0.2521 0.27483 0.19114 0.0
C184 C 0.13538 0.17889 0.96122 0.0
C185 C 0.20441 0.13327 0.10492 0.0
C186 C 0.93875 0.38373 0.1588 0.0
C187 C 0.90404 0.25929 0.0398 0.0
C188 C 0.82574 0.26364 0.9586 0.0
Mg189 Mg 0.89537 0.41865 0.1558 0.0
Mg190 Mg 0.80531 0.36672 0.15673 0.0
O191 O 0.8461 0.37262 0.13009 0.0
Mg192 Mg 0.85594 0.33511 0.12125 0.0
O193 O 0.87274 0.30309 0.10869 0.0
Mg194 Mg 0.90273 0.3336 0.02795 0.0
Mg195 Mg 0.83831 0.25095 0.09754 0.0
C196 C 0.76947 0.28727 0.08559 0.0
O197 O 0.82854 0.29934 0.21617 0.0
O198 O 0.8791 0.45725 0.12856 0.0
O199 O 0.81048 0.24031 0.18885 0.0
O200 O 0.87285 0.40812 0.25861 0.0
O201 O 0.82021 0.41767 0.10341 0.0
O202 O 0.81294 0.3762 0.26154 0.0
O203 O 0.88094 0.36766 0.02393 0.0
O204 O 0.9136 0.42849 0.05085 0.0
C205 C 0.90013 0.40332 0.00737 0.0
C206 C 0.85098 0.4507 0.10138 0.0
O207 O 0.79942 0.29254 0.07653 0.0
O208 O 0.91964 0.29527 0.03055 0.0
O209 O 0.76684 0.3105 0.11678 0.0
O210 O 0.85874 0.29291 0.95658 0.0
O211 O 0.87276 0.23621 0.06677 0.0
O212 O 0.80956 0.24554 0.01233 0.0
O213 O 0.90852 0.37624 0.17269 0.0
O214 O 0.94352 0.37184 0.10633 0.0
C215 C 0.8434 0.39341 0.29013 0.0
C216 C 0.81114 0.26306 0.22803 0.0
C217 C 0.68845 0.56626 0.11121 0.0
C218 C 0.7927 0.663 0.92936 0.0
C219 C 0.80014 0.57159 0.92114 0.0
Mg220 Mg 0.66582 0.48355 0.16659 0.0
Mg221 Mg 0.72289 0.46204 0.18643 0.0
O222 O 0.71169 0.4918 0.14503 0.0
Mg223 Mg 0.74062 0.54341 0.10184 0.0
O224 O 0.76523 0.59493 0.05366 0.0
Mg225 Mg 0.73144 0.57188 -0.02402 0.0
Mg226 Mg 0.81465 0.62449 0.03257 0.0
C227 C 0.79185 0.51741 0.09355 0.0
O228 O 0.7807 0.57428 0.18443 0.0
O229 O 0.63603 0.41751 0.17294 0.0
O230 O 0.83267 0.62363 0.13481 0.0
O231 O 0.68209 0.48839 0.27399 0.0
O232 O 0.67777 0.40911 0.14864 0.0
O233 O 0.71141 0.46242 0.28835 0.0
O234 O 0.70423 0.51335 0.01826 0.0
O235 O 0.64946 0.47494 0.06224 0.0
C236 C 0.6704 0.48924 0.01263 0.0
C237 C 0.64493 0.39662 0.15348 0.0
O238 O 0.77998 0.53432 0.06505 0.0
O239 O 0.76104 0.63141 0.93131 0.0
O240 O 0.7758 0.4925 0.14194 0.0
O241 O 0.76897 0.56405 0.91453 0.0
O242 O 0.81837 0.66811 0.96522 0.0
O243 O 0.82107 0.592 0.96762 0.0
O244 O 0.70018 0.54974 0.14232 0.0
O245 O 0.69665 0.57786 0.04976 0.0
C246 C 0.69451 0.47437 0.31109 0.0
C247 C 0.81452 0.60201 0.18622 0.0
C248 C 0.45638 0.05172 0.13396 0.0
C249 C 0.38902 0.09946 0.96706 0.0
C250 C 0.49057 0.19085 0.94704 0.0
Mg251 Mg 0.54 0.10421 0.15997 0.0
Mg252 Mg 0.58215 0.19414 0.20563 0.0
O253 O 0.5504 0.15656 0.14865 0.0
Mg254 Mg 0.50403 0.14384 0.12001 0.0
O255 O 0.45455 0.12281 0.08484 0.0
Mg256 Mg 0.46011 0.10262 0.00168 0.0
Mg257 Mg 0.44707 0.15939 0.06758 0.0
C258 C 0.55712 0.23818 0.1281 0.0
O259 O 0.48826 0.15927 0.21345 0.0
O260 O 0.60268 0.13819 0.14126 0.0
O261 O 0.45504 0.17684 0.16826 0.0
O262 O 0.54808 0.1114 0.26965 0.0
O263 O 0.62645 0.19923 0.1655 0.0
O264 O 0.57145 0.17001 0.30265 0.0
O265 O 0.51974 0.13298 0.02283 0.0
O266 O 0.53084 0.09236 0.05446 0.0
C267 C 0.53484 0.11705 0.01298 0.0
C268 C 0.62913 0.17432 0.14201 0.0
O269 O 0.5334 0.20931 0.09363 0.0
O270 O 0.40252 0.08091 0.97047 0.0
O271 O 0.57462 0.23618 0.17552 0.0
O272 O 0.47831 0.15617 0.93804 0.0
O273 O 0.40064 0.12826 0.00304 0.0
O274 O 0.48831 0.20158 0.00262 0.0
O275 O 0.48113 0.08364 0.15829 0.0
O276 O 0.4434 0.05039 0.07613 0.0
C277 C 0.55918 0.13529 0.31492 0.0
C278 C 0.47114 0.17384 0.21774 0.0
C279 C 0.57658 0.40584 0.48299 0.0
C280 C 0.67465 0.44769 0.58536 0.0
C281 C 0.61633 0.41032 0.77233 0.0
Mg282 Mg 0.4935 0.33795 0.49006 0.0
Mg283 Mg 0.45838 0.25727 0.57478 0.0
O284 O 0.486 0.31 0.57668 0.0
Mg285 Mg 0.53762 0.34083 0.59899 0.0
O286 O 0.58889 0.37782 0.61347 0.0
Mg287 Mg 0.59407 0.42719 0.62311 0.0
Mg288 Mg 0.61814 0.36932 0.65915 0.0
C289 C 0.49514 0.27338 0.71488 0.0
O290 O 0.54517 0.29416 0.57228 0.0
O291 O 0.43331 0.30232 0.48567 0.0
O292 O 0.59263 0.31071 0.63607 0.0
O293 O 0.48967 0.29172 0.42902 0.0
O294 O 0.40886 0.2462 0.5422 0.0
O295 O 0.4788 0.24413 0.49769 0.0
O296 O 0.53228 0.38596 0.63966 0.0
O297 O 0.4958 0.38024 0.55975 0.0
C298 C 0.51034 0.39216 0.61671 0.0
C299 C 0.40606 0.26895 0.50549 0.0
O300 O 0.52102 0.30867 0.70008 0.0
O301 O 0.6553 0.4596 0.59108 0.0
O302 O 0.47101 0.2506 0.6734 0.0
O303 O 0.60824 0.42642 0.73 0.0
O304 O 0.66464 0.41463 0.60732 0.0
O305 O 0.61965 0.38467 0.75703 0.0
O306 O 0.55412 0.36968 0.49438 0.0
O307 O 0.57649 0.42794 0.52062 0.0
C308 C 0.48628 0.26057 0.44049 0.0
C309 C 0.56605 0.28712 0.5994 0.0
C310 C 0.61284 0.10244 0.53797 0.0
C311 C 0.60093 0.18793 0.64559 0.0
C312 C 0.64264 0.16882 0.82189 0.0
Mg313 Mg 0.67207 0.09092 0.53076 0.0
Mg314 Mg 0.75152 0.14468 0.59577 0.0
O315 O 0.7024 0.11399 0.612 0.0
Mg316 Mg 0.68134 0.14125 0.63538 0.0
O317 O 0.65574 0.16269 0.65474 0.0
Mg318 Mg 0.60774 0.11609 0.68648 0.0
Mg319 Mg 0.67474 0.20993 0.68927 0.0
C320 C 0.75131 0.17608 0.73106 0.0
O321 O 0.72671 0.20085 0.58434 0.0
O322 O 0.70384 0.06712 0.50731 0.0
O323 O 0.72656 0.24395 0.64184 0.0
O324 O 0.71216 0.14209 0.4608 0.0
O325 O 0.75892 0.10665 0.55112 0.0
O326 O 0.76228 0.18282 0.5168 0.0
O327 O 0.63648 0.08568 0.68991 0.0
O328 O 0.63343 0.04679 0.61502 0.0
C329 C 0.62384 0.05193 0.6708 0.0
C330 C 0.73742 0.0814 0.50967 0.0
O331 O 0.71873 0.16444 0.72331 0.0
O332 O 0.58556 0.15261 0.66475 0.0
O333 O 0.76833 0.17164 0.68825 0.0
O334 O 0.62277 0.13794 0.79037 0.0
O335 O 0.63493 0.21388 0.64834 0.0
O336 O 0.66629 0.20127 0.79346 0.0
O337 O 0.64638 0.11956 0.54655 0.0
O338 O 0.59242 0.09633 0.58539 0.0
C339 C 0.74321 0.17439 0.46539 0.0
C340 C 0.74051 0.23554 0.59914 0.0
C341 C 0.97716 0.56622 0.61844 0.0
C342 C 0.97005 0.67803 0.49648 0.0
C343 C 0.88475 0.59673 0.42314 0.0
Mg344 Mg 0.91546 0.47758 0.61033 0.0
Mg345 Mg 0.82953 0.44274 0.63467 0.0
O346 O 0.87234 0.47771 0.58909 0.0
Mg347 Mg 0.89562 0.53352 0.58263 0.0
O348 O 0.92549 0.59063 0.57236 0.0
Mg349 Mg 0.95209 0.59558 0.48984 0.0
Mg350 Mg 0.90236 0.61367 0.56799 0.0
C351 C 0.81071 0.49481 0.55853 0.0
O352 O 0.87447 0.53775 0.68269 0.0
O353 O 0.87817 0.41294 0.57865 0.0
O354 O 0.87221 0.58762 0.66041 0.0
O355 O 0.89526 0.45539 0.71388 0.0
O356 O 0.82156 0.39505 0.5887 0.0
O357 O 0.84144 0.44013 0.73822 0.0
O358 O 0.9137 0.52996 0.47976 0.0
O359 O 0.94065 0.50468 0.51105 0.0
C360 C 0.92051 0.50611 0.47066 0.0
C361 C 0.84375 0.38849 0.57177 0.0
O362 O 0.84338 0.52182 0.5412 0.0
O363 O 0.98432 0.66045 0.50066 0.0
O364 O 0.80167 0.46567 0.59619 0.0
O365 O 0.9135 0.59909 0.41791 0.0
O366 O 0.94801 0.67201 0.54176 0.0
O367 O 0.8725 0.59621 0.47931 0.0
O368 O 0.94377 0.54092 0.63082 0.0
O369 O 0.98774 0.58995 0.56805 0.0
C370 C 0.86991 0.44371 0.75471 0.0
C371 C 0.86549 0.55933 0.69778 0.0
C372 C 0.56144 0.71352 0.24568 0.0
C373 C 0.49152 0.73327 0.38004 0.0
C374 C 0.53196 0.70507 0.54924 0.0
Mg375 Mg 0.58654 0.66068 0.2598 0.0
Mg376 Mg 0.55046 0.58236 0.35843 0.0
O377 O 0.56944 0.63407 0.3495 0.0
Mg378 Mg 0.54064 0.65325 0.36762 0.0
O379 O 0.51789 0.67858 0.38256 0.0
Mg380 Mg 0.56259 0.73269 0.39426 0.0
Mg381 Mg 0.4796 0.65963 0.44031 0.0
C382 C 0.52458 0.59401 0.4928 0.0
O383 O 0.48341 0.59772 0.34177 0.0
O384 O 0.61765 0.63632 0.25228 0.0
O385 O 0.44806 0.60071 0.4124 0.0
O386 O 0.53869 0.60791 0.21243 0.0
O387 O 0.59471 0.5841 0.31923 0.0
O388 O 0.51005 0.55784 0.28607 0.0
O389 O 0.59349 0.70716 0.39851 0.0
O390 O 0.63016 0.71116 0.32292 0.0
C391 C 0.62506 0.72305 0.37534 0.0
C392 C 0.61737 0.60831 0.27467 0.0
O393 O 0.52874 0.62422 0.46931 0.0
O394 O 0.52571 0.75112 0.38132 0.0
O395 O 0.5307 0.57406 0.45934 0.0
O396 O 0.55484 0.72624 0.50372 0.0
O397 O 0.469 0.69804 0.39998 0.0
O398 O 0.50024 0.67562 0.53734 0.0
O399 O 0.55145 0.68021 0.26486 0.0
O400 O 0.56877 0.73844 0.28653 0.0
C401 C 0.5123 0.57354 0.2299 0.0
C402 C 0.45298 0.5828 0.371 0.0
C403 C 0.41819 0.85317 0.41133 0.0
C404 C 0.42545 0.79268 0.23508 0.0
C405 C 0.39298 0.83704 0.10763 0.0
Mg406 Mg 0.36103 0.86721 0.44934 0.0
Mg407 Mg 0.27807 0.80829 0.39933 0.0
O408 O 0.32543 0.84524 0.37417 0.0
Mg409 Mg 0.34765 0.82563 0.32341 0.0
O410 O 0.37399 0.81205 0.27392 0.0
Mg411 Mg 0.41992 0.86408 0.25298 0.0
Mg412 Mg 0.35268 0.77735 0.20487 0.0
C413 C 0.27445 0.79577 0.24668 0.0
O414 O 0.307 0.75931 0.34896 0.0
O415 O 0.3309 0.88905 0.48848 0.0
O416 O 0.29952 0.73896 0.2451 0.0
O417 O 0.32329 0.81466 0.52061 0.0
O418 O 0.27281 0.84345 0.46271 0.0
O419 O 0.27972 0.76875 0.45917 0.0
O420 O 0.3885 0.88608 0.28645 0.0
O421 O 0.39548 0.91957 0.37274 0.0
C422 C 0.40108 0.91797 0.31138 0.0
C423 C 0.29725 0.87398 0.49245 0.0
O424 O 0.30834 0.81225 0.24367 0.0
O425 O 0.44161 0.82923 0.23159 0.0
O426 O 0.25753 0.78977 0.30091 0.0
O427 O 0.39788 0.86026 0.14991 0.0
O428 O 0.39151 0.76783 0.22643 0.0
O429 O 0.36257 0.8044 0.10856 0.0
O430 O 0.3849 0.83877 0.40822 0.0
O431 O 0.43781 0.86536 0.3593 0.0
C432 C 0.29462 0.78042 0.51487 0.0
C433 C 0.29077 0.73249 0.30651 0.0
C434 C 0.13906 0.40252 0.42699 0.0
C435 C 0.05423 0.43166 0.32959 0.0
C436 C 0.13679 0.51047 0.20075 0.0
Mg437 Mg 0.22364 0.4451 0.41471 0.0
Mg438 Mg 0.28266 0.53988 0.41625 0.0
O439 O 0.24046 0.49803 0.38074 0.0
Mg440 Mg 0.19358 0.48994 0.37089 0.0
O441 O 0.1433 0.47335 0.35889 0.0
Mg442 Mg 0.1266 0.43591 0.28826 0.0
Mg443 Mg 0.12887 0.50412 0.34916 0.0
C444 C 0.25161 0.58173 0.34478 0.0
O445 O 0.19927 0.52619 0.45683 0.0
O446 O 0.28174 0.46451 0.3843 0.0
O447 O 0.16456 0.54333 0.4176 0.0
O448 O 0.24482 0.46568 0.51593 0.0
O449 O 0.3159 0.52905 0.36811 0.0
O450 O 0.28564 0.52893 0.52087 0.0
O451 O 0.18605 0.45811 0.27705 0.0
O452 O 0.2013 0.42152 0.31691 0.0
C453 C 0.19451 0.43558 0.26839 0.0
C454 C 0.31112 0.497 0.36491 0.0
O455 O 0.22363 0.55086 0.32044 0.0
O456 O 0.0699 0.41888 0.30379 0.0
O457 O 0.2742 0.58172 0.38247 0.0
O458 O 0.133 0.47872 0.20301 0.0
O459 O 0.07182 0.46397 0.3572 0.0
O460 O 0.13962 0.52702 0.25292 0.0
O461 O 0.16966 0.4348 0.43308 0.0
O462 O 0.11877 0.39611 0.37737 0.0
C463 C 0.26727 0.49531 0.5482 0.0
C464 C 0.18932 0.54821 0.45494 0.0
C465 C 0.12297 0.57176 0.95152 0.0
C466 C 0.19452 0.55326 0.79502 0.0
C467 C 0.18486 0.62313 0.6604 0.0
Mg468 Mg 0.11697 0.64173 0.95325 0.0
Mg469 Mg 0.174 0.72785 0.87707 0.0
O470 O 0.1452 0.6749 0.87316 0.0
Mg471 Mg 0.16607 0.64778 0.85511 0.0
O472 O 0.18115 0.6153 0.83777 0.0
Mg473 Mg 0.13495 0.57163 0.79609 0.0
Mg474 Mg 0.2211 0.63776 0.7836 0.0
C475 C 0.20717 0.72258 0.75003 0.0
O476 O 0.22263 0.69157 0.90529 0.0
O477 O 0.09811 0.67921 0.96223 0.0
O478 O 0.25742 0.68624 0.83793 0.0
O479 O 0.16289 0.68328 0.02294 0.0
O480 O 0.13464 0.7356 0.90462 0.0
O481 O 0.20305 0.73719 0.96322 0.0
O482 O 0.11392 0.6075 0.79976 0.0
O483 O 0.07628 0.60421 0.87228 0.0
C484 C 0.08222 0.59575 0.81644 0.0
C485 C 0.10775 0.71261 0.94335 0.0
O486 O 0.19309 0.68751 0.76553 0.0
O487 O 0.1616 0.54082 0.79985 0.0
O488 O 0.20455 0.7443 0.7858 0.0
O489 O 0.15781 0.59365 0.69098 0.0
O490 O 0.2209 0.58893 0.78697 0.0
O491 O 0.21006 0.65136 0.69132 0.0
O492 O 0.14009 0.6083 0.94582 0.0
O493 O 0.11598 0.55188 0.90101 0.0
C494 C 0.19299 0.71682 0.01682 0.0
C495 C 0.25362 0.70235 0.88448 0.0
C496 C 0.30735 0.44633 0.77806 0.0
C497 C 0.26446 0.49527 0.90854 0.0
C498 C 0.30114 0.47135 0.08102 0.0
Mg499 Mg 0.36923 0.43525 0.78741 0.0
Mg500 Mg 0.44485 0.49135 0.86842 0.0
O501 O 0.39537 0.46097 0.86998 0.0
Mg502 Mg 0.36707 0.48015 0.89392 0.0
O503 O 0.33247 0.49073 0.91416 0.0
Mg504 Mg 0.28689 0.43671 0.9302 0.0
Mg505 Mg 0.33978 0.52834 0.96636 0.0
C506 C 0.42607 0.50471 0.00863 0.0
O507 O 0.41053 0.54712 0.86636 0.0
O508 O 0.40392 0.41408 0.77658 0.0
O509 O 0.39468 0.57287 0.93881 0.0
O510 O 0.41345 0.4882 0.72357 0.0
O511 O 0.45541 0.45317 0.83207 0.0
O512 O 0.45877 0.53095 0.78891 0.0
O513 O 0.32495 0.42024 0.93364 0.0
O514 O 0.32789 0.38412 0.86467 0.0
C515 C 0.31605 0.38766 0.91876 0.0
C516 C 0.43571 0.42562 0.79297 0.0
O517 O 0.39514 0.49541 -0.00798 0.0
O518 O 0.25502 0.46102 0.91504 0.0
O519 O 0.44848 0.50669 0.96918 0.0
O520 O 0.28807 0.44526 0.03906 0.0
O521 O 0.29592 0.52523 0.92249 0.0
O522 O 0.3254 0.50655 0.06522 0.0
O523 O 0.34051 0.46385 0.79276 0.0
O524 O 0.28325 0.42928 0.82279 0.0
C525 C 0.4435 0.52101 0.73277 0.0
C526 C 0.41683 0.57607 0.89709 0.0
C527 C 0.5635 0.91751 0.84586 0.0
C528 C 0.65494 0.90124 -0.0164 0.0
C529 C 0.56248 0.78887 0.01212 0.0
Mg530 Mg 0.48081 0.85481 0.81187 0.0
Mg531 Mg 0.44329 0.76485 0.77591 0.0
O532 O 0.47809 0.80677 0.82265 0.0
Mg533 Mg 0.52763 0.827 0.85173 0.0
O534 O 0.57864 0.85547 0.88486 0.0
Mg535 Mg 0.5698 0.86963 0.97106 0.0
Mg536 Mg 0.60414 0.83543 0.89036 0.0
C537 C 0.48377 0.73207 0.84211 0.0
O538 O 0.54757 0.81821 0.75765 0.0
O539 O 0.41809 0.81772 0.82415 0.0
O540 O 0.5927 0.81552 0.79229 0.0
O541 O 0.47665 0.84957 0.69895 0.0
O542 O 0.39857 0.75642 0.82658 0.0
O543 O 0.44823 0.78779 0.67699 0.0
O544 O 0.5112 0.83457 0.95054 0.0
O545 O 0.48281 0.85919 0.91969 0.0
C546 C 0.4959 0.84973 0.96431 0.0
C547 C 0.39394 0.7818 0.83824 0.0
O548 O 0.50685 0.76255 0.87461 0.0
O549 O 0.62881 0.90259 -0.00556 0.0
O550 O 0.4609 0.7299 0.80198 0.0
O551 O 0.56043 0.81592 0.02632 0.0
O552 O 0.65277 0.87841 0.94247 0.0
O553 O 0.57526 0.78875 0.95747 0.0
O554 O 0.54249 0.88527 0.8184 0.0
O555 O 0.57755 0.91982 0.90294 0.0
C556 C 0.46249 0.82256 0.65818 0.0
C557 C 0.56982 0.81032 0.74888 0.0
C558 C 0.20036 0.22487 0.70861 0.0
C559 C 0.17483 0.20196 0.65987 0.0
C560 C 0.22242 0.21579 0.73699 0.0
C561 C 0.22024 0.18431 0.71565 0.0
H562 H 0.20166 0.24838 0.72788 0.0
H563 H 0.23995 0.2323 0.77745 0.0
S564 S 0.15973 0.11678 0.58744 0.0
N565 N 0.15058 0.14782 0.58931 0.0
N566 N 0.19184 0.13108 0.64222 0.0
C567 C 0.19648 0.16274 0.66443 0.0
C568 C 0.17392 0.17157 0.63635 0.0
C569 C 0.94657 0.04645 0.64493 0.0
C570 C 0.95798 0.07249 0.69612 0.0
C571 C 0.92093 0.00681 0.65634 0.0
C572 C 0.90606 0.99183 0.71962 0.0
H573 H 0.95928 0.05651 0.59646 0.0
H574 H 0.91593 0.98784 0.61753 0.0
S575 S 0.92019 0.04656 0.86652 0.0
N576 N 0.9481 0.07978 0.8101 0.0
N577 N 0.89858 0.00524 0.83018 0.0
C578 C 0.91342 0.01745 0.76852 0.0
C579 C 0.93996 0.05784 0.75738 0.0
C580 C 0.0476 0.95434 0.83149 0.0
C581 C 0.02388 0.92646 0.78716 0.0
C582 C 0.08426 0.97871 0.81846 0.0
C583 C 0.0992 0.9769 0.75974 0.0
H584 H 0.0376 0.95831 0.8758 0.0
H585 H 0.10077 0.99986 0.85501 0.0
S586 S 0.04865 0.90299 0.63442 0.0
N587 N 0.01738 0.89387 0.68709 0.0
N588 N 0.08744 0.94052 0.66206 0.0
C589 C 0.07602 0.94696 0.71734 0.0
C590 C 0.03809 0.92154 0.73118 0.0
C591 C 0.90886 0.87652 0.25587 0.0
C592 C 0.89444 0.85726 0.31762 0.0
C593 C 0.89671 0.89546 0.22349 0.0
C594 C 0.86926 0.89531 0.25122 0.0
H595 H 0.93118 0.87869 0.23404 0.0
H596 H 0.90999 0.91175 0.17778 0.0
S597 S 0.81849 0.84332 0.40653 0.0
N598 N 0.84882 0.83522 0.40211 0.0
N599 N 0.82478 0.87027 0.34001 0.0
C600 C 0.85234 0.87329 0.31024 0.0
C601 C 0.86529 0.85437 0.34397 0.0
C602 C 0.11401 0.04035 0.2687 0.0
C603 C 0.11563 0.0513 0.20203 0.0
C604 C 0.09861 0.00216 0.28704 0.0
C605 C 0.08406 0.97381 0.23929 0.0
H606 H 0.12185 0.06047 0.30712 0.0
H607 H 0.09554 0.99434 0.33938 0.0
S608 S 0.09008 0.99052 0.05715 0.0
N609 N 0.10848 0.03311 0.08726 0.0
N610 N 0.07815 0.9608 0.12216 0.0
C611 C 0.08954 0.98542 0.17213 0.0
C612 C 0.10555 0.02439 0.15341 0.0
C613 C 0.00995 0.16664 0.13059 0.0
C614 C 0.03599 0.16447 0.16131 0.0
C615 C 0.97586 0.14813 0.16047 0.0
C616 C 0.96671 0.12561 0.21971 0.0
H617 H 0.01438 0.17876 0.08056 0.0
H618 H 0.955 0.14623 0.13178 0.0
S619 S 0.02944 0.12192 0.32824 0.0
N620 N 0.05376 0.14755 0.26192 0.0
N621 N 0.98917 0.11117 0.31562 0.0
C622 C 0.99459 0.12944 0.25578 0.0
C623 C 0.02935 0.14882 0.22646 0.0
C624 C 0.86616 0.5145 0.11336 0.0
C625 C 0.85245 0.48294 0.07378 0.0
C626 C 0.85134 0.53434 0.10907 0.0
C627 C 0.82282 0.52238 0.06557 0.0
H628 H 0.88368 0.51977 0.15454 0.0
H629 H 0.8574 0.55382 0.14772 0.0
S630 S 0.79037 0.45358 0.93272 0.0
N631 N 0.81882 0.4498 -0.02461 0.0
N632 N 0.79075 0.48725 0.96785 0.0
C633 C 0.81579 0.49774 0.01548 0.0
C634 C 0.8306 0.47742 0.01992 0.0
C635 C 0.62347 0.34053 0.085 0.0
C636 C 0.61652 0.35684 0.13489 0.0
C637 C 0.59956 0.30121 0.07367 0.0
C638 C 0.56824 0.27695 0.1124 0.0
H639 H 0.64852 0.35781 0.05712 0.0
H640 H 0.60769 0.2891 0.03977 0.0
S641 S 0.53527 0.30642 0.242 0.0
N642 N 0.57382 0.34671 0.2169 0.0
N643 N 0.52939 0.27253 0.19667 0.0
C644 C 0.55926 0.29358 0.15747 0.0
C645 C 0.58338 0.33366 0.16865 0.0
C646 C 0.7256 0.21747 0.10972 0.0
C647 C 0.73537 0.2501 0.07099 0.0
C648 C 0.68932 0.18839 0.12693 0.0
C649 C 0.66221 0.19084 0.10309 0.0
H650 H 0.74629 0.21698 0.13363 0.0
H651 H 0.68306 0.16663 0.16444 0.0
S652 S 0.67362 0.26458 -0.0161 0.0
N653 N 0.71501 0.27898 -0.00159 0.0
N654 N 0.64692 0.22364 0.02707 0.0
C655 C 0.67147 0.21975 0.05479 0.0
C656 C 0.70818 0.24965 0.03927 0.0
C657 C 0.58496 0.25155 0.54985 0.0
C658 C 0.56046 0.25061 0.59083 0.0
C659 C 0.59447 0.22699 0.56319 0.0
C660 C 0.58007 0.20093 0.61841 0.0
H661 H 0.59982 0.2742 0.51183 0.0
H662 H 0.61594 0.23111 0.53402 0.0
S663 S 0.51007 0.18258 0.73344 0.0
N664 N 0.51802 0.21769 0.68262 0.0
N665 N 0.53622 0.17158 0.70795 0.0
C666 C 0.55236 0.19642 0.65472 0.0
C667 C 0.54254 0.22142 0.64091 0.0
C668 C 0.79551 0.33082 0.5138 0.0
C669 C 0.82715 0.34905 0.55154 0.0
C670 C 0.76876 0.29108 0.5207 0.0
C671 C 0.77302 0.26851 0.56527 0.0
H672 H 0.7894 0.34786 0.48535 0.0
H673 H 0.74292 0.27888 0.49771 0.0
S674 S 0.85542 0.30089 0.65828 0.0
N675 N 0.86491 0.34057 0.62162 0.0
N676 N 0.81422 0.26565 0.63553 0.0
C677 C 0.80677 0.28548 0.59459 0.0
C678 C 0.83418 0.32597 0.58708 0.0
C679 C 0.7526 0.46287 0.50381 0.0
C680 C 0.7811 0.4956 0.53489 0.0
C681 C 0.71743 0.45078 0.51125 0.0
C682 C 0.70969 0.47084 0.5506 0.0
H683 H 0.75682 0.4438 0.48123 0.0
H684 H 0.69581 0.42277 0.49382 0.0
S685 S 0.77659 0.5665 0.61809 0.0
N686 N 0.80099 0.55427 0.58771 0.0
N687 N 0.73408 0.53066 0.60374 0.0
C688 C 0.73848 0.50725 0.57103 0.0
C689 C 0.77461 0.51987 0.5627 0.0
C690 C 0.44051 0.73541 0.35442 0.0
C691 C 0.47706 0.75184 0.34576 0.0
C692 C 0.42421 0.74824 0.31631 0.0
C693 C 0.44378 0.77833 0.26822 0.0
H694 H 0.42406 0.71198 0.39046 0.0
H695 H 0.39602 0.73484 0.32583 0.0
S696 S 0.54003 0.83107 0.22476 0.0
N697 N 0.53249 0.79973 0.28421 0.0
N698 N 0.50143 0.82452 0.21363 0.0
C699 C 0.48044 0.79566 0.25938 0.0
C700 C 0.49719 0.78228 0.29794 0.0
C701 C 0.28217 0.68161 0.38252 0.0
C702 C 0.26993 0.6916 0.32794 0.0
C703 C 0.2754 0.64571 0.3876 0.0
C704 C 0.25577 0.61821 0.33878 0.0
H705 H 0.29987 0.70274 0.4183 0.0
H706 H 0.28664 0.64 0.42949 0.0
S707 S 0.21316 0.62859 0.19166 0.0
N708 N 0.23328 0.66965 0.22873 0.0
N709 N 0.22073 0.60213 0.23829 0.0
C710 C 0.24046 0.62652 0.28742 0.0
C711 C 0.24728 0.66311 0.28233 0.0
C712 C 0.36109 0.49549 0.401 0.0
C713 C 0.34359 0.5002 0.34865 0.0
C714 C 0.39885 0.51824 0.4026 0.0
C715 C 0.41993 0.54588 0.35158 0.0
H716 H 0.3461 0.47876 0.44533 0.0
H717 H 0.41151 0.51818 0.44815 0.0
S718 S 0.3863 0.56066 0.19536 0.0
N719 N 0.34954 0.52783 0.23837 0.0
N720 N 0.4204 0.57028 0.24123 0.0
C721 C 0.40249 0.54558 0.29401 0.0
C722 C 0.36415 0.52275 0.29263 0.0
C723 C 0.2086 0.49072 0.89867 0.0
C724 C 0.24101 0.50127 0.87135 0.0
C725 C 0.19019 0.50367 0.86817 0.0
C726 C 0.20401 0.52733 0.81003 0.0
H727 H 0.19902 0.47501 0.946 0.0
H728 H 0.16723 0.4984 0.89367 0.0
S729 S 0.28372 0.55537 0.71291 0.0
N730 N 0.28296 0.53085 0.77837 0.0
N731 N 0.24834 0.55512 0.72095 0.0
C732 C 0.23408 0.53409 0.77876 0.0
C733 C 0.25276 0.52116 0.80974 0.0
C734 C 0.46344 0.64302 0.93067 0.0
C735 C 0.44767 0.61636 0.8797 0.0
C736 C 0.47956 0.68222 0.91763 0.0
C737 C 0.48013 0.69593 0.85317 0.0
H738 H 0.45987 0.63281 -0.0181 0.0
H739 H 0.48798 0.70078 0.95898 0.0
S740 S 0.45072 0.63993 0.70077 0.0
N741 N 0.44009 0.60803 0.76139 0.0
N742 N 0.46998 0.68129 0.73649 0.0
C743 C 0.46891 0.67054 0.80103 0.0
C744 C 0.45288 0.63082 0.81433 0.0
C745 C 0.34294 0.78605 0.85553 0.0
C746 C 0.36005 0.76898 0.87186 0.0
C747 C 0.30728 0.76848 0.87649 0.0
C748 C 0.28786 0.73328 0.91336 0.0
H749 H 0.35571 0.81081 0.82141 0.0
H750 H 0.2932 0.77918 0.85509 0.0
S751 S 0.32433 0.68436 -0.01338 0.0
N752 N 0.35758 0.72009 0.9401 0.0
N753 N 0.29159 0.68883 -0.01875 0.0
C754 C 0.30735 0.72105 0.94127 0.0
C755 C 0.34291 0.73774 0.91829 0.0
C756 C 0.21115 0.08522 0.49376 0.0
C757 C 0.23916 0.11213 0.5353 0.0
C758 C 0.19573 0.09614 0.44664 0.0
C759 C 0.2071 0.13436 0.43955 0.0
H760 H 0.20137 0.05554 0.4969 0.0
H761 H 0.17535 0.07454 0.41415 0.0
S762 S 0.27693 0.21549 0.54089 0.0
N763 N 0.27618 0.17888 0.56804 0.0
N764 N 0.24635 0.19844 0.48243 0.0
C765 C 0.2339 0.16113 0.48295 0.0
C766 C 0.25017 0.15035 0.52968 0.0
C767 C 0.95337 0.17968 0.46592 0.0
C768 C 0.9512 0.15422 0.51406 0.0
C769 C 0.92942 0.16566 0.41289 0.0
C770 C 0.90256 0.12598 0.40782 0.0
H771 H 0.9721 0.21042 0.47152 0.0
H772 H 0.93085 0.18594 0.3775 0.0
S773 S 0.89029 0.04827 0.51681 0.0
N774 N 0.9234 0.08836 0.55055 0.0
N775 N 0.87847 0.06158 0.45042 0.0
C776 C 0.90189 0.1004 0.45357 0.0
C777 C 0.92629 0.11471 0.50699 0.0
C778 C 0.88997 0.8072 0.53007 0.0
C779 C 0.9058 0.8438 0.55367 0.0
C780 C 0.91072 0.7992 0.49713 0.0
C781 C 0.94796 0.8277 0.48658 0.0
H782 H 0.86254 0.78358 0.54412 0.0
H783 H 0.89783 0.76993 0.48329 0.0
S784 S -0.00014 0.93001 0.53083 0.0
N785 N 0.95846 0.90995 0.55667 0.0
N786 N -0.00147 0.89536 0.49746 0.0
C787 C 0.96317 0.86535 0.50554 0.0
C788 C 0.94157 0.87345 0.53705 0.0
C789 C 0.08715 0.185 0.82676 0.0
C790 C 0.11125 0.22476 0.81222 0.0
C791 C 0.0981 0.16629 0.86483 0.0
C792 C 0.13292 0.18735 0.8914 0.0
H793 H 0.05913 0.16869 0.81258 0.0
H794 H 0.07763 0.13688 0.88188 0.0
S795 S 0.20871 0.28864 0.85024 0.0
N796 N 0.17358 0.2821 0.81318 0.0
N797 N 0.19376 0.24657 0.88536 0.0
C798 C 0.15874 0.22497 0.86648 0.0
C799 C 0.14776 0.24415 0.82796 0.0
C800 C 0.86037 0.94203 0.9648 0.0
C801 C 0.83741 0.95083 -0.01655 0.0
C802 C 0.85025 0.91589 0.91637 0.0
C803 C 0.81714 0.89813 0.88369 0.0
H804 H 0.88546 0.95365 -0.00955 0.0
H805 H 0.86905 0.91021 0.90395 0.0
S806 S 0.74973 0.91607 0.90958 0.0
N807 N 0.7816 0.9427 0.96386 0.0
N808 N 0.76269 0.894 0.86984 0.0
C809 C 0.79459 0.90818 0.89992 0.0
C810 C 0.80478 0.93456 0.95036 0.0
C811 C 0.15794 0.97194 0.95222 0.0
C812 C 0.14732 0.95616 0.88967 0.0
C813 C 0.13472 0.95305 0.00734 0.0
C814 C 0.09975 0.91816 0.00144 0.0
H815 H 0.18506 0.99746 0.9593 0.0
H816 H 0.14503 0.96466 0.05563 0.0
S817 S 0.05671 0.86965 0.84481 0.0
N818 N 0.09791 0.90667 0.82288 0.0
N819 N 0.0541 0.87232 0.92534 0.0
C820 C 0.08761 0.90463 0.93759 0.0
C821 C 0.11147 0.92324 0.88205 0.0
C822 C 0.85124 0.94086 0.45807 0.0
C823 C 0.83282 0.93497 0.51691 0.0
C824 C 0.8474 0.95798 0.40226 0.0
C825 C 0.82483 0.96936 0.40367 0.0
H826 H 0.86635 0.92951 0.45351 0.0
H827 H 0.85958 0.95922 0.35605 0.0
S828 S 0.7785 0.96976 0.54909 0.0
N829 N 0.79742 0.94965 0.57683 0.0
N830 N 0.78943 0.98045 0.46978 0.0
C831 C 0.80992 0.96811 0.46358 0.0
C832 C 0.81427 0.95131 0.52107 0.0
C833 C 0.13239 0.88676 0.41883 0.0
C834 C 0.10499 0.88962 0.39884 0.0
C835 C 0.15446 0.90729 0.47203 0.0
C836 C 0.15005 0.93169 0.5054 0.0
H837 H 0.13696 0.86884 0.39287 0.0
H838 H 0.1752 0.90431 0.48692 0.0
S839 S 0.08482 0.95175 0.46989 0.0
N840 N 0.07556 0.91956 0.41622 0.0
N841 N 0.11837 0.9593 0.51469 0.0
C842 C 0.12324 0.93512 0.48615 0.0
C843 C 0.10025 0.91367 0.43307 0.0
C844 C 0.13131 0.19675 0.36278 0.0
C845 C 0.14871 0.22961 0.32045 0.0
C846 C 0.10948 0.19199 0.41401 0.0
C847 C 0.10488 0.22027 0.42558 0.0
H848 H 0.13332 0.1737 0.35495 0.0
H849 H 0.09711 0.16645 0.44624 0.0
S850 S 0.14644 0.31268 0.33222 0.0
N851 N 0.16079 0.29141 0.29409 0.0
N852 N 0.12059 0.28294 0.39406 0.0
C853 C 0.12283 0.25377 0.3852 0.0
C854 C 0.14461 0.25835 0.33172 0.0
C855 C 0.95015 0.8562 0.07549 0.0
C856 C 0.92952 0.81805 0.10057 0.0
C857 C 0.93692 0.86755 0.02559 0.0
C858 C 0.90296 0.84093 -0.00214 0.0
H859 H 0.97674 0.8776 0.09468 0.0
H860 H 0.9545 0.89685 0.00556 0.0
S861 S 0.83707 0.73865 0.05069 0.0
N862 N 0.87209 0.75451 0.09912 0.0
N863 N 0.84803 0.7755 0.00132 0.0
C864 C 0.8815 0.80301 0.0239 0.0
C865 C 0.89459 0.79166 0.07636 0.0
C866 C 0.23351 0.1524 -0.00391 0.0
C867 C 0.21738 0.1251 0.04887 0.0
C868 C 0.25305 0.15035 0.94801 0.0
C869 C 0.25613 0.12021 0.95025 0.0
H870 H 0.23178 0.17607 -0.00746 0.0
H871 H 0.26361 0.17107 0.90656 0.0
S872 S 0.22141 0.04348 0.08114 0.0
N873 N 0.2076 0.06859 0.10356 0.0
N874 N 0.24416 0.06438 0.01123 0.0
C875 C 0.24143 0.09365 0.0041 0.0
C876 C 0.22167 0.09586 0.05347 0.0
C877 C 0.91603 0.14065 0.91902 0.0
C878 C 0.94616 0.14099 0.91237 0.0
C879 C 0.89312 0.12256 0.97372 0.0
C880 C 0.89872 0.10258 0.0217 0.0
H881 H 0.91068 0.15525 0.88215 0.0
H882 H 0.87133 0.12479 -0.02079 0.0
S883 S 0.97163 0.09125 0.02247 0.0
N884 N 0.98021 0.11926 0.95624 0.0
N885 N 0.93455 0.08108 0.05615 0.0
C886 C 0.92748 0.10053 0.01332 0.0
C887 C 0.95207 0.12097 0.95936 0.0
C888 C 0.88685 0.44152 0.93667 0.0
C889 C 0.89397 0.41428 0.94177 0.0
C890 C 0.87642 0.44925 0.87662 0.0
C891 C 0.8734 0.43041 0.81983 0.0
H892 H 0.88883 0.45664 -0.02042 0.0
H893 H 0.87218 0.47111 0.87398 0.0
S894 S 0.88904 0.35706 0.80648 0.0
N895 N 0.89678 0.36839 0.88497 0.0
N896 N 0.87803 0.38354 0.7714 0.0
C897 C 0.88026 0.40311 0.82414 0.0
C898 C 0.89037 0.3949 0.88532 0.0
C899 C 0.61726 0.44934 0.85832 0.0
C900 C 0.62704 0.4263 0.83788 0.0
C901 C 0.63145 0.47002 0.91552 0.0
C902 C 0.65655 0.46902 0.95227 0.0
H903 H 0.59935 0.45235 0.82894 0.0
H904 H 0.62343 0.48746 0.93025 0.0
S905 S 0.68997 0.41233 0.92319 0.0
N906 N 0.66226 0.40257 0.86144 0.0
N907 N 0.68955 0.4425 0.96873 0.0
C908 C 0.6661 0.4457 0.93389 0.0
C909 C 0.65111 0.42396 0.87656 0.0
C910 C 0.61742 0.13792 0.9303 0.0
C911 C 0.62726 0.16774 0.88459 0.0
C912 C 0.58788 0.12239 0.97216 0.0
C913 C 0.56708 0.1362 0.96992 0.0
H914 H 0.63043 0.12407 0.92922 0.0
H915 H 0.58051 0.09814 0.00441 0.0
S916 S 0.58582 0.21829 0.86476 0.0
N917 N 0.61712 0.21372 0.84357 0.0
N918 N 0.56155 0.18484 0.92346 0.0
C919 C 0.57874 0.16839 0.9283 0.0
C920 C 0.60906 0.1843 0.8857 0.0
C921 C 0.86927 0.61735 0.24614 0.0
C922 C 0.83344 0.60483 0.24824 0.0
C923 C 0.88548 0.61378 0.30237 0.0
C924 C 0.86658 0.59797 0.36297 0.0
H925 H 0.88453 0.62871 0.20019 0.0
H926 H 0.91308 0.62375 0.29838 0.0
S927 S 0.77246 0.56209 0.3952 0.0
N928 N 0.77995 0.57704 0.31668 0.0
N929 N 0.81018 0.57027 0.42162 0.0
C930 C 0.83097 0.58606 0.36591 0.0
C931 C 0.81451 0.58958 0.30886 0.0
C932 C 0.46059 0.23216 0.33303 0.0
C933 C 0.48399 0.23904 0.38474 0.0
C934 C 0.45508 0.20906 0.28149 0.0
C935 C 0.47332 0.19249 0.27897 0.0
H936 H 0.44604 0.24434 0.3328 0.0
H937 H 0.437 0.20514 0.24241 0.0
S938 S 0.53624 0.20066 0.4058 0.0
N939 N 0.524 0.22627 0.43367 0.0
N940 N 0.51483 0.18363 0.33521 0.0
C941 C 0.49622 0.19849 0.33172 0.0
C942 C 0.50131 0.22163 0.38495 0.0
C943 C 0.74002 0.19026 0.34779 0.0
C944 C 0.75854 0.20161 0.40805 0.0
C945 C 0.75663 0.21196 0.28967 0.0
C946 C 0.79175 0.24618 0.29029 0.0
H947 H 0.71338 0.16327 0.34445 0.0
H948 H 0.74247 0.20082 0.24365 0.0
S949 S 0.85042 0.29123 0.43531 0.0
N950 N 0.81321 0.25119 0.46537 0.0
N951 N 0.84356 0.29269 0.35519 0.0
C952 C 0.80951 0.25976 0.35044 0.0
C953 C 0.79305 0.23724 0.40975 0.0
C954 C 0.4641 0.21791 0.79425 0.0
C955 C 0.4942 0.25599 0.77948 0.0
C956 C 0.46428 0.19704 0.84754 0.0
C957 C 0.49392 0.21372 0.88951 0.0
H958 H 0.44051 0.20331 0.7631 0.0
H959 H 0.44082 0.16755 0.85618 0.0
S960 S 0.57716 0.31348 0.87988 0.0
N961 N 0.55355 0.31049 0.81492 0.0
N962 N 0.55243 0.27088 0.91883 0.0
C963 C 0.52319 0.25229 0.87895 0.0
C964 C 0.52362 0.27361 0.82306 0.0
C965 C 0.77038 0.22371 0.89346 0.0
C966 C 0.80796 0.2456 0.8972 0.0
C967 C 0.75219 0.20089 0.83968 0.0
C968 C 0.771 0.19881 0.78865 0.0
H969 H 0.75495 0.22373 0.9329 0.0
H970 H 0.72312 0.18448 0.83867 0.0
S971 S 0.87008 0.25104 0.77664 0.0
N972 N 0.8637 0.26452 0.84626 0.0
N973 N 0.82957 0.22085 0.74553 0.0
C974 C 0.8088 0.22084 0.79195 0.0
C975 C 0.82728 0.24461 0.84609 0.0
C976 C 0.79471 0.54369 0.81166 0.0
C977 C 0.8141 0.55983 0.87026 0.0
C978 C 0.81049 0.53974 0.7576 0.0
C979 C 0.84607 0.5518 0.76007 0.0
H980 H 0.76794 0.53605 0.8059 0.0
H981 H 0.79534 0.52881 0.71247 0.0
S982 S 0.90539 0.58692 0.90599 0.0
N983 N 0.86882 0.58126 0.93097 0.0
N984 N 0.8981 0.57412 0.82824 0.0
C985 C 0.86435 0.56394 0.82011 0.0
C986 C 0.84844 0.56796 0.8755 0.0
C987 C 0.60696 0.15221 0.39243 0.0
C988 C 0.5706 0.12632 0.37514 0.0
C989 C 0.6219 0.142 0.44028 0.0
C990 C 0.60066 0.10592 0.47355 0.0
H991 H 0.62434 0.18027 0.36751 0.0
H992 H 0.64964 0.16346 0.4542 0.0
S993 S 0.50466 0.02732 0.44419 0.0
N994 N 0.5143 0.06238 0.39127 0.0
N995 N 0.54213 0.04376 0.4851 0.0
C996 C 0.56453 0.07939 0.45572 0.0
C997 C 0.54948 0.08952 0.40575 0.0
C998 C 0.86288 0.46382 0.40811 0.0
C999 C 0.89338 0.46982 0.43803 0.0
C1000 C 0.84034 0.43234 0.36836 0.0
C1001 C 0.84796 0.40634 0.35736 0.0
H1002 H 0.85778 0.48487 0.4114 0.0
H1003 H 0.82002 0.43139 0.3393 0.0
S1004 S 0.91867 0.40349 0.43594 0.0
N1005 N 0.92611 0.44298 0.46182 0.0
N1006 N 0.88244 0.38339 0.38964 0.0
C1007 C 0.87461 0.40859 0.39503 0.0
C1008 C 0.89821 0.44094 0.4337 0.0
C1009 C 0.63702 0.46278 0.44509 0.0
C1010 C 0.61137 0.42242 0.44977 0.0
C1011 C 0.66884 0.48037 0.40907 0.0
C1012 C 0.67583 0.45837 0.37473 0.0
H1013 H 0.63182 0.4813 0.46661 0.0
H1014 H 0.68596 0.51135 0.40163 0.0
S1015 S 0.62109 0.35198 0.38 0.0
N1016 N 0.59803 0.361 0.42531 0.0
N1017 N 0.65764 0.39433 0.35504 0.0
C1018 C 0.65254 0.41811 0.38456 0.0
C1019 C 0.62007 0.40003 0.42196 0.0
C1020 C 0.53088 0.73158 0.17289 0.0
C1021 C 0.55358 0.72039 0.17905 0.0
C1022 C 0.53175 0.75138 0.11608 0.0
C1023 C 0.55503 0.76005 0.06352 0.0
H1024 H 0.51457 0.72785 0.21458 0.0
H1025 H 0.51586 0.76201 0.11506 0.0
S1026 S 0.61505 0.73071 0.05206 0.0
N1027 N 0.59625 0.71463 0.1263 0.0
N1028 N 0.59767 0.75116 0.01753 0.0
C1029 C 0.57486 0.74508 0.06633 0.0
C1030 C 0.57415 0.72526 0.12482 0.0
C1031 C 0.21793 0.74421 0.19342 0.0
C1032 C 0.25369 0.77753 0.1871 0.0
C1033 C 0.19893 0.72329 0.13825 0.0
C1034 C 0.21505 0.7352 0.07514 0.0
H1035 H 0.20471 0.73373 0.2414 0.0
H1036 H 0.17115 0.69827 0.14498 0.0
S1037 S 0.30836 0.82005 0.03259 0.0
N1038 N 0.30461 0.82144 0.11319 0.0
N1039 N 0.26913 0.78153 0.00946 0.0
C1040 C 0.25102 0.76812 0.06831 0.0
C1041 C 0.27023 0.78953 0.12433 0.0
C1042 C 0.27433 0.49096 0.15654 0.0
C1043 C 0.27718 0.46235 0.13677 0.0
C1044 C 0.2447 0.48149 0.19309 0.0
C1045 C 0.21696 0.4431 0.21149 0.0
H1046 H 0.2944 0.52086 0.14168 0.0
H1047 H 0.24445 0.50459 0.2097 0.0
S1048 S 0.21187 0.35764 0.17428 0.0
N1049 N 0.25019 0.39422 0.14025 0.0
N1050 N 0.19404 0.37642 0.20826 0.0
C1051 C 0.21941 0.41428 0.19218 0.0
C1052 C 0.2498 0.42392 0.15588 0.0
C1053 C 0.40992 0.8103 0.5051 0.0
C1054 C 0.4315 0.84669 0.47275 0.0
C1055 C 0.42162 0.80207 0.56252 0.0
C1056 C 0.455 0.83023 0.59073 0.0
H1057 H 0.38373 0.78787 0.48573 0.0
H1058 H 0.40349 0.7739 0.58665 0.0
S1059 S 0.52213 0.92966 0.52321 0.0
N1060 N 0.4885 0.91054 0.47026 0.0
N1061 N 0.51006 0.89571 0.58075 0.0
C1062 C 0.47721 0.86662 0.55811 0.0
C1063 C 0.46559 0.87467 0.49838 0.0
C1064 C 0.21074 0.57268 0.56536 0.0
C1065 C 0.20334 0.57865 0.50103 0.0
C1066 C 0.20733 0.5903 0.61666 0.0
C1067 C 0.19679 0.61418 0.60443 0.0
H1068 H 0.21468 0.55098 0.57718 0.0
H1069 H 0.20979 0.58248 0.66652 0.0
S1070 S 0.18758 0.64941 0.44255 0.0
N1071 N 0.19513 0.61818 0.42533 0.0
N1072 N 0.18818 0.65071 0.52414 0.0
C1073 C 0.19537 0.62541 0.54001 0.0
C1074 C 0.19916 0.60786 0.48731 0.0
C1075 C 0.45932 0.56378 0.63314 0.0
C1076 C 0.46609 0.54253 0.67513 0.0
C1077 C 0.47993 0.58216 0.57551 0.0
C1078 C 0.50705 0.57875 0.55778 0.0
H1079 H 0.43774 0.56562 0.6443 0.0
H1080 H 0.47345 0.59763 0.54317 0.0
S1081 S 0.53418 0.52547 0.65258 0.0
N1082 N 0.50143 0.51909 0.69704 0.0
N1083 N 0.53956 0.55273 0.58736 0.0
C1084 C 0.51404 0.55767 0.60003 0.0
C1085 C 0.49361 0.5397 0.65918 0.0
C1086 C 0.12846 0.5259 0.0174 0.0
C1087 C 0.12309 0.55451 0.01586 0.0
C1088 C 0.13345 0.51222 0.07706 0.0
C1089 C 0.13305 0.5264 0.13761 0.0
H1090 H 0.13004 0.51474 0.97194 0.0
H1091 H 0.13789 0.49059 0.07552 0.0
S1092 S 0.11654 0.59903 0.16046 0.0
N1093 N 0.11598 0.59524 0.07954 0.0
N1094 N 0.12384 0.56885 0.19241 0.0
C1095 C 0.12645 0.5542 0.13679 0.0
C1096 C 0.1219 0.56844 0.07579 0.0
C1097 C 0.45079 0.55379 0.08995 0.0
C1098 C 0.43819 0.51671 0.07483 0.0
C1099 C 0.47354 0.57146 0.14339 0.0
C1100 C 0.48335 0.55198 0.18322 0.0
H1101 H 0.4456 0.57028 0.05719 0.0
H1102 H 0.48488 0.60111 0.15173 0.0
S1103 S 0.4526 0.45227 0.16802 0.0
N1104 N 0.43361 0.45954 0.10562 0.0
N1105 N 0.47562 0.49241 0.20876 0.0
C1106 C 0.46799 0.51353 0.17217 0.0
C1107 C 0.44546 0.49588 0.11686 0.0
C1108 C 0.48707 0.87969 0.05116 0.0
C1109 C 0.48366 0.84729 0.03115 0.0
C1110 C 0.45785 0.87572 0.0797 0.0
C1111 C 0.42464 0.83928 0.08891 0.0
H1112 H 0.51031 0.90821 0.03557 0.0
H1113 H 0.46036 0.90148 0.0891 0.0
S1114 S 0.40825 0.74575 0.06793 0.0
N1115 N 0.44999 0.77831 0.04184 0.0
N1116 N 0.39325 0.76989 0.08957 0.0
C1117 C 0.42302 0.80658 0.07794 0.0
C1118 C 0.45357 0.81097 0.05234 0.0
C1119 C 0.3235 0.49076 0.67868 0.0
C1120 C 0.29719 0.45777 0.71705 0.0
C1121 C 0.31366 0.50543 0.62729 0.0
C1122 C 0.27723 0.48778 0.61294 0.0
H1123 H 0.35187 0.50559 0.68864 0.0
H1124 H 0.33468 0.52962 0.59675 0.0
S1125 S 0.19786 0.40218 0.69972 0.0
N1126 N 0.23282 0.40837 0.73672 0.0
N1127 N 0.21491 0.4371 0.64235 0.0
C1128 C 0.25077 0.45567 0.65196 0.0
C1129 C 0.26058 0.44024 0.70306 0.0
C1130 C 0.52928 0.76691 0.66195 0.0
C1131 C 0.56218 0.78477 0.69542 0.0
C1132 C 0.51755 0.73712 0.62021 0.0
C1133 C 0.53837 0.72437 0.60988 0.0
H1134 H 0.51195 0.77539 0.66864 0.0
H1135 H 0.49286 0.72538 0.59301 0.0
S1136 S 0.62616 0.76061 0.68444 0.0
N1137 N 0.61537 0.78687 0.71532 0.0
N1138 N 0.59291 0.73092 0.63468 0.0
C1139 C 0.57109 0.7415 0.64259 0.0
C1140 C 0.58319 0.77183 0.68564 0.0
C1141 C 0.26578 0.7541 0.69397 0.0
C1142 C 0.22918 0.73839 0.69037 0.0
C1143 C 0.28676 0.76596 0.63642 0.0
C1144 C 0.27136 0.76153 0.57381 0.0
H1145 H 0.27817 0.75705 0.74147 0.0
H1146 H 0.31521 0.77914 0.64088 0.0
S1147 S 0.17583 0.7211 0.54002 0.0
N1148 N 0.17797 0.71814 0.62141 0.0
N1149 N 0.21682 0.74033 0.51238 0.0
C1150 C 0.23429 0.74495 0.57012 0.0
C1151 C 0.21328 0.73334 0.62877 0.0
C1152 C 0.29977 0.94825 0.58692 0.0
C1153 C 0.26579 0.92671 0.61834 0.0
C1154 C 0.30993 0.93085 0.54707 0.0
C1155 C 0.28632 0.89132 0.53657 0.0
H1156 H 0.31813 0.97915 0.59077 0.0
H1157 H 0.33595 0.94878 0.52241 0.0
S1158 S 0.19655 0.82102 0.61525 0.0
N1159 N 0.21007 0.86296 0.64191 0.0
N1160 N 0.22932 0.83021 0.56698 0.0
C1161 C 0.2532 0.86897 0.57095 0.0
C1162 C 0.24297 0.88665 0.61214 0.0
C1163 C 0.13058 0.34355 0.57847 0.0
C1164 C 0.09727 0.33077 0.60551 0.0
C1165 C 0.14413 0.36687 0.52033 0.0
C1166 C 0.12382 0.37637 0.48578 0.0
H1167 H 0.14577 0.33457 0.60151 0.0
H1168 H 0.17012 0.37667 0.50131 0.0
S1169 S 0.03499 0.34986 0.53605 0.0
N1170 N 0.04468 0.32976 0.59445 0.0
N1171 N 0.06938 0.37239 0.48359 0.0
C1172 C 0.09059 0.36395 0.51255 0.0
C1173 C 0.07745 0.34138 0.57287 0.0
C1174 C 0.67787 0.73496 0.43377 0.0
C1175 C 0.65479 0.74518 0.42213 0.0
C1176 C 0.70157 0.74929 0.48704 0.0
C1177 C 0.70363 0.77495 0.53045 0.0
H1178 H 0.6766 0.71442 0.40317 0.0
H1179 H 0.7186 0.74021 0.49383 0.0
S1180 S 0.65039 0.81281 0.5175 0.0
N1181 N 0.63573 0.78304 0.45633 0.0
N1182 N 0.68162 0.81169 0.55509 0.0
C1183 C 0.6811 0.78606 0.51835 0.0
C1184 C 0.65645 0.77084 0.46448 0.0
C1185 C 0.95404 0.26861 -0.02044 0.0
C1186 C 0.91717 0.24451 -0.00472 0.0
C1187 C 0.96642 0.26823 0.91762 0.0
C1188 C 0.94257 0.24293 0.86917 0.0
H1189 H 0.97316 0.29044 0.01322 0.0
H1190 H 0.99509 0.28831 0.90792 0.0
S1191 S 0.84379 0.16875 0.89115 0.0
N1192 N 0.8572 0.19132 0.96133 0.0
N1193 N 0.88049 0.18947 0.84513 0.0
C1194 C 0.90584 0.21627 0.88658 0.0
C1195 C 0.89324 0.21692 0.94988 0.0
C1196 C 0.83469 0.71754 0.84931 0.0
C1197 C 0.79981 0.69121 0.87581 0.0
C1198 C 0.84099 0.74125 0.79365 0.0
C1199 C 0.81271 0.73936 0.76214 0.0
H1200 H 0.85726 0.71983 0.87147 0.0
H1201 H 0.86849 0.7624 0.77669 0.0
S1202 S 0.71672 0.67633 0.81226 0.0
N1203 N 0.73652 0.66517 0.86612 0.0
N1204 N 0.74894 0.70978 0.76143 0.0
C1205 C 0.77774 0.71276 0.78698 0.0
C1206 C 0.7712 0.68886 0.844 0.0
C1207 C 0.33406 0.05842 0.80886 0.0
C1208 C 0.33085 0.08712 0.78556 0.0
C1209 C 0.35143 0.06172 0.86895 0.0
C1210 C 0.36599 0.09365 0.90877 0.0
H1211 H 0.32191 0.03253 0.78165 0.0
H1212 H 0.35345 0.03899 0.88424 0.0
S1213 S 0.36737 0.17842 0.86564 0.0
N1214 N 0.34575 0.14955 0.80387 0.0
N1215 N 0.37749 0.15581 0.91698 0.0
C1216 C 0.36326 0.12282 0.885 0.0
C1217 C 0.34604 0.11956 0.82348 0.0
C1218 C 0.80162 0.12246 0.36314 0.0
C1219 C 0.78167 0.09518 0.31497 0.0
C1220 C 0.7883 0.11593 0.42788 0.0
C1221 C 0.75413 0.08209 0.44705 0.0
H1222 H 0.82804 0.14874 0.35119 0.0
H1223 H 0.80445 0.13862 0.46225 0.0
S1224 S 0.69216 0.001 0.33916 0.0
N1225 N 0.72699 0.03238 0.29075 0.0
N1226 N 0.70138 0.02052 0.41206 0.0
C1227 C 0.73427 0.0543 0.39932 0.0
C1228 C 0.74812 0.06078 0.33353 0.0
C1229 C 0.9362 0.70982 0.35629 0.0
C1230 C 0.95902 0.71806 0.30276 0.0
C1231 C 0.93972 0.69658 0.41808 0.0
C1232 C 0.96605 0.69057 0.42905 0.0
H1233 H 0.91748 0.71682 0.35194 0.0
H1234 H 0.92229 0.69224 0.45802 0.0
S1235 S 0.02932 0.70299 0.30177 0.0
N1236 N 0.00644 0.71582 0.26238 0.0
N1237 N 0.01279 0.69009 0.37799 0.0
C1238 C 0.98704 0.69566 0.37413 0.0
C1239 C 0.9834 0.70928 0.31107 0.0
C1240 C 0.36798 0.28072 0.44076 0.0
C1241 C 0.3724 0.25416 0.47079 0.0
C1242 C 0.34326 0.27012 0.39025 0.0
C1243 C 0.32174 0.23243 0.36824 0.0
H1244 H 0.38512 0.31054 0.45403 0.0
H1245 H 0.34135 0.29186 0.36799 0.0
S1246 S 0.3197 0.15065 0.43734 0.0
N1247 N 0.35116 0.18779 0.47965 0.0
N1248 N 0.30396 0.16732 0.38518 0.0
C1249 C 0.32441 0.20491 0.40064 0.0
C1250 C 0.34965 0.21583 0.45231 0.0
C1251 C 0.07431 0.76835 -0.00741 0.0
C1252 C 0.07995 0.77035 0.0615 0.0
C1253 C 0.08244 0.74868 0.95385 0.0
C1254 C 0.09509 0.72936 -0.01648 0.0
H1255 H 0.06434 0.78286 0.96832 0.0
H1256 H 0.07904 0.74876 0.90067 0.0
S1257 S 0.11406 0.72573 0.16188 0.0
N1258 N 0.0991 0.75179 0.15759 0.0
N1259 N 0.11334 0.71358 0.08532 0.0
C1260 C 0.10026 0.73063 0.05253 0.0
C1261 C 0.09295 0.75151 0.09153 0.0
C1262 C 0.29081 0.36517 0.03426 0.0
C1263 C 0.29574 0.35608 0.97095 0.0
C1264 C 0.27364 0.33765 0.0867 0.0
C1265 C 0.25981 0.29951 0.07803 0.0
H1266 H 0.3009 0.39417 0.04437 0.0
H1267 H 0.2707 0.34616 0.13407 0.0
S1268 S 0.26915 0.26073 0.92665 0.0
N1269 N 0.28822 0.30626 0.90591 0.0
N1270 N 0.25452 0.25409 0.0036 0.0
C1271 C 0.26505 0.28983 0.01592 0.0
C1272 C 0.28335 0.31815 0.96272 0.0
C1273 C 0.6917 0.9528 0.0629 0.0
C1274 C 0.68446 0.92062 0.0318 0.0
C1275 C 0.71319 0.96701 0.11919 0.0
C1276 C 0.72863 0.94988 0.146 0.0
H1277 H 0.67988 0.9666 0.0445 0.0
H1278 H 0.71859 0.99228 0.14076 0.0
S1279 S 0.71749 0.86449 0.08565 0.0
N1280 N 0.69329 0.87096 0.03448 0.0
N1281 N 0.73568 0.89943 0.13822 0.0
C1282 C 0.72224 0.91816 0.11522 0.0
C1283 C 0.69972 0.90312 0.05853 0.0
C1284 C 0.64778 0.55302 0.20439 0.0
C1285 C 0.67013 0.57726 0.15106 0.0
C1286 C 0.63237 0.56409 0.24679 0.0
C1287 C 0.63922 0.60012 0.23802 0.0
H1288 H 0.64182 0.52504 0.213 0.0
H1289 H 0.61417 0.54377 0.28545 0.0
S1290 S 0.70034 0.67622 0.11077 0.0
N1291 N 0.70098 0.6399 0.09488 0.0
N1292 N 0.67305 0.66153 0.17511 0.0
C1293 C 0.6631 0.62538 0.18652 0.0
C1294 C 0.67817 0.6137 0.14274 0.0
C1295 C 0.45375 0.02074 0.2432 0.0
C1296 C 0.44262 0.01669 0.1764 0.0
C1297 C 0.44042 0.98887 0.28651 0.0
C1298 C 0.41588 0.95156 0.26479 0.0
H1299 H 0.47253 0.04889 0.26308 0.0
H1300 H 0.44931 0.99345 0.33735 0.0
S1301 S 0.3768 0.92476 0.09589 0.0
N1302 N 0.40487 0.97211 0.09139 0.0
N1303 N 0.3795 0.91208 0.17255 0.0
C1304 C 0.40438 0.94692 0.19818 0.0
C1305 C 0.41783 0.97946 0.15411 0.0
C1306 C 0.0077 0.43892 0.29095 0.0
C1307 C 0.01723 0.41443 0.30807 0.0
C1308 C 0.98089 0.42832 0.24417 0.0
C1309 C 0.9633 0.39318 0.21355 0.0
H1310 H 0.02332 0.46785 0.30848 0.0
H1311 H 0.97564 0.4486 0.22874 0.0
S1312 S 0.97059 0.31468 0.25582 0.0
N1313 N 0.00114 0.35032 0.30202 0.0
N1314 N 0.95108 0.33067 0.21338 0.0
C1315 C 0.96924 0.36664 0.23643 0.0
C1316 C 0.99604 0.37714 0.28441 0.0
C1317 C 0.4662 0.40542 0.63995 0.0
C1318 C 0.49367 0.40318 0.66301 0.0
C1319 C 0.44647 0.41059 0.68324 0.0
C1320 C 0.45352 0.41427 0.75159 0.0
H1321 H 0.4594 0.40267 0.58791 0.0
H1322 H 0.42617 0.41288 0.66242 0.0
S1323 S 0.5216 0.40972 0.8388 0.0
N1324 N 0.52621 0.40431 0.76029 0.0
N1325 N 0.48948 0.41518 0.84085 0.0
C1326 C 0.48097 0.41252 0.77565 0.0
C1327 C 0.50094 0.40675 0.73167 0.0
C1328 C 0.58091 0.98151 0.69506 0.0
C1329 C 0.6035 0.01871 0.71886 0.0
C1330 C 0.56648 0.94919 0.73756 0.0
C1331 C 0.5745 0.95252 0.80577 0.0
H1332 H 0.57537 0.97733 0.64265 0.0
H1333 H 0.55031 0.92135 0.71557 0.0
S1334 S 0.62886 0.04359 0.89448 0.0
N1335 N 0.63043 0.05722 0.81625 0.0
N1336 N 0.60375 0.99621 0.89612 0.0
C1337 C 0.59532 0.98953 0.83107 0.0
C1338 C 0.60963 0.02263 0.78763 0.0
C1339 C 0.03961 0.58865 0.65007 0.0
C1340 C 0.0032 0.56941 0.66712 0.0
C1341 C 0.06473 0.59445 0.69773 0.0
C1342 C 0.05444 0.58174 0.76445 0.0
H1343 H 0.04895 0.60011 0.6 0.0
H1344 H 0.09275 0.6109 0.68285 0.0
S1345 S 0.96229 0.52808 0.83439 0.0
N1346 N 0.95801 0.53607 0.75558 0.0
N1347 N 0.00521 0.54711 0.84403 0.0
C1348 C 0.01796 0.56106 0.78142 0.0
C1349 C 0.99237 0.5549 0.73314 0.0
loop_
_geom_bond_atom_site_label_1
_geom_bond_atom_site_label_2
_geom_bond_distance
_geom_bond_site_symmetry_2
_ccdc_geom_bond_type
C0 O27 1.312 . S
C0 O28 1.208 . S
C1 O22 1.331 . S
C1 O25 1.244 . S
C2 O24 1.264 . S
C2 O26 1.273 . S
Mg3 O5 1.936 1_545 S
Mg3 O12 2.081 1_545 S
Mg3 O14 2.023 1_545 S
Mg3 O18 2.031 . S
Mg3 O27 2.291 . S
Mg4 O5 1.963 . S
Mg4 O15 1.942 . S
Mg4 O16 1.955 . S
Mg4 O23 1.986 . S
O5 Mg3 1.936 1_565 S
O5 Mg4 1.963 . S
O5 Mg6 1.915 1_565 S
Mg6 O5 1.915 1_545 S
Mg6 O7 1.915 . S
Mg6 O11 2.013 1_545 S
Mg6 O17 2.114 . S
Mg6 O21 2.013 1_545 S
Mg6 O27 2.114 . S
O7 Mg6 1.915 . S
O7 Mg8 1.936 . S
O7 Mg9 1.963 . S
Mg8 O7 1.936 . S
Mg8 O17 2.291 . S
Mg8 O22 2.081 . S
Mg8 O24 2.023 . S
Mg8 O28 2.031 . S
Mg9 O7 1.963 . S
Mg9 O13 1.986 1_545 S
Mg9 O25 1.942 . S
Mg9 O26 1.955 . S
C10 O21 1.191 . S
C10 O23 1.307 . S
O11 Mg6 2.013 1_565 S
O11 C30 1.191 . S
O12 Mg3 2.081 1_565 S
O12 C20 1.331 . S
O13 Mg9 1.986 1_565 S
O13 C30 1.307 . S
O14 Mg3 2.023 1_565 S
O14 C29 1.264 . S
O15 Mg4 1.942 . S
O15 C20 1.244 . S
O16 Mg4 1.955 . S
O16 C29 1.273 . S
O17 Mg6 2.114 . S
O17 Mg8 2.291 . S
O17 C19 1.312 . S
O18 Mg3 2.031 . S
O18 C19 1.208 . S
C19 O17 1.312 . S
C19 O18 1.208 . S
C20 O12 1.331 . S
C20 O15 1.244 . S
O21 Mg6 2.013 1_565 S
O21 C10 1.191 . S
O22 C1 1.331 . S
O22 Mg8 2.081 . S
O23 Mg4 1.986 . S
O23 C10 1.307 . S
O24 C2 1.264 . S
O24 Mg8 2.023 . S
O25 C1 1.244 . S
O25 Mg9 1.942 . S
O26 C2 1.273 . S
O26 Mg9 1.955 . S
O27 C0 1.312 . S
O27 Mg3 2.291 . S
O27 Mg6 2.114 . S
O28 C0 1.208 . S
O28 Mg8 2.031 . S
C29 O14 1.264 . S
C29 O16 1.273 . S
C30 O11 1.191 . S
C30 O13 1.307 . S
C31 O58 1.312 . S
C31 O59 1.208 . S
C32 O53 1.331 . S
C32 O56 1.244 . S
C33 O55 1.264 . S
C33 O57 1.273 . S
Mg34 O36 1.936 . S
Mg34 O43 2.081 . S
Mg34 O45 2.023 . S
Mg34 O49 2.031 . S
Mg34 O58 2.291 . S
Mg35 O36 1.963 . S
Mg35 O46 1.942 . S
Mg35 O47 1.955 . S
Mg35 O54 1.986 1_455 S
O36 Mg34 1.936 . S
O36 Mg35 1.963 . S
O36 Mg37 1.915 . S
Mg37 O36 1.915 . S
Mg37 O38 1.915 1_455 S
Mg37 O42 2.013 1_455 S
Mg37 O48 2.114 . S
Mg37 O52 2.013 1_455 S
Mg37 O58 2.114 . S
O38 Mg37 1.915 1_655 S
O38 Mg39 1.936 1_655 S
O38 Mg40 1.963 . S
Mg39 O38 1.936 1_455 S
Mg39 O48 2.291 . S
Mg39 O53 2.081 1_455 S
Mg39 O55 2.023 1_455 S
Mg39 O59 2.031 . S
Mg40 O38 1.963 . S
Mg40 O44 1.986 . S
Mg40 O56 1.942 . S
Mg40 O57 1.955 . S
C41 O52 1.191 . S
C41 O54 1.307 . S
O42 Mg37 2.013 1_655 S
O42 C61 1.191 . S
O43 Mg34 2.081 . S
O43 C51 1.331 . S
O44 Mg40 1.986 . S
O44 C61 1.307 . S
O45 Mg34 2.023 . S
O45 C60 1.264 . S
O46 Mg35 1.942 . S
O46 C51 1.244 . S
O47 Mg35 1.955 . S
O47 C60 1.273 . S
O48 Mg37 2.114 . S
O48 Mg39 2.291 . S
O48 C50 1.312 . S
O49 Mg34 2.031 . S
O49 C50 1.208 . S
C50 O48 1.312 . S
C50 O49 1.208 . S
C51 O43 1.331 . S
C51 O46 1.244 . S
O52 Mg37 2.013 1_655 S
O52 C41 1.191 . S
O53 C32 1.331 . S
O53 Mg39 2.081 1_655 S
O54 Mg35 1.986 1_655 S
O54 C41 1.307 . S
O55 C33 1.264 . S
O55 Mg39 2.023 1_655 S
O56 C32 1.244 . S
O56 Mg40 1.942 . S
O57 C33 1.273 . S
O57 Mg40 1.955 . S
O58 C31 1.312 . S
O58 Mg34 2.291 . S
O58 Mg37 2.114 . S
O59 C31 1.208 . S
O59 Mg39 2.031 . S
C60 O45 1.264 . S
C60 O47 1.273 . S
C61 O42 1.191 . S
C61 O44 1.307 . S
C62 O89 1.312 . S
C62 O90 1.208 . S
C63 O84 1.331 . S
C63 O87 1.244 . S
C64 O86 1.264 . S
C64 O88 1.273 . S
Mg65 O67 1.936 . S
Mg65 O74 2.081 . S
Mg65 O76 2.023 . S
Mg65 O80 2.031 . S
Mg65 O89 2.291 . S
Mg66 O67 1.963 . S
Mg66 O77 1.942 . S
Mg66 O78 1.955 . S
Mg66 O85 1.986 . S
O67 Mg65 1.936 . S
O67 Mg66 1.963 . S
O67 Mg68 1.915 . S
Mg68 O67 1.915 . S
Mg68 O69 1.915 . S
Mg68 O73 2.013 . S
Mg68 O79 2.114 . S
Mg68 O83 2.013 . S
Mg68 O89 2.114 . S
O69 Mg68 1.915 . S
O69 Mg70 1.936 . S
O69 Mg71 1.963 . S
Mg70 O69 1.936 . S
Mg70 O79 2.291 . S
Mg70 O84 2.081 . S
Mg70 O86 2.023 . S
Mg70 O90 2.031 . S
Mg71 O69 1.963 . S
Mg71 O75 1.986 . S
Mg71 O87 1.942 . S
Mg71 O88 1.955 . S
C72 O83 1.191 . S
C72 O85 1.307 . S
O73 Mg68 2.013 . S
O73 C92 1.191 . S
O74 Mg65 2.081 . S
O74 C82 1.331 . S
O75 Mg71 1.986 . S
O75 C92 1.307 . S
O76 Mg65 2.023 . S
O76 C91 1.264 . S
O77 Mg66 1.942 . S
O77 C82 1.245 . S
O78 Mg66 1.955 . S
O78 C91 1.273 . S
O79 Mg68 2.114 . S
O79 Mg70 2.291 . S
O79 C81 1.312 . S
O80 Mg65 2.031 . S
O80 C81 1.208 . S
C81 O79 1.312 . S
C81 O80 1.208 . S
C82 O74 1.331 . S
C82 O77 1.245 . S
O83 Mg68 2.013 . S
O83 C72 1.191 . S
O84 C63 1.331 . S
O84 Mg70 2.081 . S
O85 Mg66 1.986 . S
O85 C72 1.307 . S
O86 C64 1.264 . S
O86 Mg70 2.023 . S
O87 C63 1.244 . S
O87 Mg71 1.942 . S
O88 C64 1.273 . S
O88 Mg71 1.955 . S
O89 C62 1.312 . S
O89 Mg65 2.291 . S
O89 Mg68 2.114 . S
O90 C62 1.208 . S
O90 Mg70 2.031 . S
C91 O76 1.264 . S
C91 O78 1.273 . S
C92 O73 1.191 . S
C92 O75 1.307 . S
C93 O120 1.312 . S
C93 O121 1.208 . S
C94 O115 1.331 . S
C94 O118 1.244 . S
C95 O117 1.264 . S
C95 O119 1.273 . S
Mg96 O98 1.936 . S
Mg96 O105 2.081 . S
Mg96 O107 2.023 . S
Mg96 O111 2.031 . S
Mg96 O120 2.291 . S
Mg97 O98 1.963 . S
Mg97 O108 1.942 . S
Mg97 O109 1.955 . S
Mg97 O116 1.986 1_565 S
O98 Mg96 1.936 . S
O98 Mg97 1.963 . S
O98 Mg99 1.915 1_565 S
Mg99 O98 1.915 1_545 S
Mg99 O100 1.915 . S
Mg99 O104 2.013 . S
Mg99 O110 2.114 1_545 S
Mg99 O114 2.013 . S
Mg99 O120 2.114 1_545 S
O100 Mg99 1.915 . S
O100 Mg101 1.936 . S
O100 Mg102 1.963 . S
Mg101 O100 1.936 . S
Mg101 O110 2.291 1_545 S
Mg101 O115 2.081 . S
Mg101 O117 2.023 . S
Mg101 O121 2.031 1_545 S
Mg102 O100 1.963 . S
Mg102 O106 1.986 . S
Mg102 O118 1.942 . S
Mg102 O119 1.955 . S
C103 O114 1.191 . S
C103 O116 1.307 . S
O104 Mg99 2.013 . S
O104 C123 1.191 . S
O105 Mg96 2.081 . S
O105 C113 1.331 . S
O106 Mg102 1.986 . S
O106 C123 1.307 . S
O107 Mg96 2.023 . S
O107 C122 1.264 . S
O108 Mg97 1.942 . S
O108 C113 1.244 . S
O109 Mg97 1.955 . S
O109 C122 1.273 . S
O110 Mg99 2.114 1_565 S
O110 Mg101 2.291 1_565 S
O110 C112 1.312 . S
O111 Mg96 2.031 . S
O111 C112 1.208 . S
C112 O110 1.312 . S
C112 O111 1.208 . S
C113 O105 1.331 . S
C113 O108 1.244 . S
O114 Mg99 2.013 . S
O114 C103 1.191 . S
O115 C94 1.331 . S
O115 Mg101 2.081 . S
O116 Mg97 1.986 1_545 S
O116 C103 1.307 . S
O117 C95 1.264 . S
O117 Mg101 2.023 . S
O118 C94 1.244 . S
O118 Mg102 1.942 . S
O119 C95 1.273 . S
O119 Mg102 1.955 . S
O120 C93 1.312 . S
O120 Mg96 2.291 . S
O120 Mg99 2.114 1_565 S
O121 C93 1.208 . S
O121 Mg101 2.031 1_565 S
C122 O107 1.264 . S
C122 O109 1.273 . S
C123 O104 1.191 . S
C123 O106 1.307 . S
C124 O151 1.310 . S
C124 O152 1.210 . S
C125 O146 1.331 . S
C125 O149 1.244 . S
C126 O148 1.264 . S
C126 O150 1.273 . S
Mg127 O129 1.936 1_655 S
Mg127 O136 2.081 . S
Mg127 O138 2.023 . S
Mg127 O142 2.031 . S
Mg127 O151 2.291 1_655 S
Mg128 O129 1.963 . S
Mg128 O139 1.942 1_455 S
Mg128 O140 1.955 . S
Mg128 O147 1.986 . S
O129 Mg127 1.936 1_455 S
O129 Mg128 1.963 . S
O129 Mg130 1.915 . S
Mg130 O129 1.915 . S
Mg130 O131 1.915 . S
Mg130 O135 2.013 . S
Mg130 O141 2.114 . S
Mg130 O145 2.013 . S
Mg130 O151 2.114 . S
O131 Mg130 1.915 . S
O131 Mg132 1.936 . S
O131 Mg133 1.963 . S
Mg132 O131 1.936 . S
Mg132 O141 2.291 . S
Mg132 O146 2.081 . S
Mg132 O148 2.023 . S
Mg132 O152 2.031 . S
Mg133 O131 1.963 . S
Mg133 O137 1.986 . S
Mg133 O149 1.942 . S
Mg133 O150 1.955 . S
C134 O145 1.191 . S
C134 O147 1.307 . S
O135 Mg130 2.013 . S
O135 C154 1.191 . S
O136 Mg127 2.081 . S
O136 C144 1.331 . S
O137 Mg133 1.986 . S
O137 C154 1.307 . S
O138 Mg127 2.023 . S
O138 C153 1.264 . S
O139 Mg128 1.942 1_655 S
O139 C144 1.244 . S
O140 Mg128 1.955 . S
O140 C153 1.273 1_455 S
O141 Mg130 2.114 . S
O141 Mg132 2.291 . S
O141 C143 1.312 1_455 S
O142 Mg127 2.031 . S
O142 C143 1.208 . S
C143 O141 1.312 1_655 S
C143 O142 1.208 . S
C144 O136 1.331 . S
C144 O139 1.244 . S
O145 Mg130 2.013 . S
O145 C134 1.191 . S
O146 C125 1.331 . S
O146 Mg132 2.081 . S
O147 Mg128 1.986 . S
O147 C134 1.307 . S
O148 C126 1.264 . S
O148 Mg132 2.023 . S
O149 C125 1.244 . S
O149 Mg133 1.942 . S
O150 C126 1.273 . S
O150 Mg133 1.955 . S
O151 C124 1.310 . S
O151 Mg127 2.291 1_455 S
O151 Mg130 2.114 . S
O152 C124 1.210 . S
O152 Mg132 2.031 . S
C153 O138 1.264 . S
C153 O140 1.273 1_655 S
C154 O135 1.191 . S
C154 O137 1.307 . S
C155 O182 1.312 . S
C155 O183 1.208 . S
C156 O177 1.331 . S
C156 O180 1.244 . S
C157 O179 1.264 . S
C157 O181 1.273 . S
Mg158 O160 1.936 . S
Mg158 O167 2.081 . S
Mg158 O169 2.023 . S
Mg158 O173 2.031 . S
Mg158 O182 2.291 . S
Mg159 O160 1.963 . S
Mg159 O170 1.942 . S
Mg159 O171 1.955 . S
Mg159 O178 1.986 . S
O160 Mg158 1.936 . S
O160 Mg159 1.963 . S
O160 Mg161 1.915 . S
Mg161 O160 1.915 . S
Mg161 O162 1.915 . S
Mg161 O166 2.013 . S
Mg161 O172 2.114 . S
Mg161 O176 2.013 . S
Mg161 O182 2.114 . S
O162 Mg161 1.915 . S
O162 Mg163 1.936 . S
O162 Mg164 1.963 . S
Mg163 O162 1.936 . S
Mg163 O172 2.291 . S
Mg163 O177 2.081 . S
Mg163 O179 2.023 . S
Mg163 O183 2.031 . S
Mg164 O162 1.963 . S
Mg164 O168 1.986 . S
Mg164 O180 1.942 . S
Mg164 O181 1.955 . S
C165 O176 1.191 . S
C165 O178 1.307 . S
O166 Mg161 2.013 . S
O166 C185 1.191 . S
O167 Mg158 2.081 . S
O167 C175 1.331 . S
O168 Mg164 1.986 . S
O168 C185 1.307 . S
O169 Mg158 2.023 . S
O169 C184 1.264 . S
O170 Mg159 1.942 . S
O170 C175 1.244 . S
O171 Mg159 1.955 . S
O171 C184 1.273 . S
O172 Mg161 2.114 . S
O172 Mg163 2.291 . S
O172 C174 1.312 . S
O173 Mg158 2.031 . S
O173 C174 1.208 . S
C174 O172 1.312 . S
C174 O173 1.208 . S
C175 O167 1.331 . S
C175 O170 1.244 . S
O176 Mg161 2.013 . S
O176 C165 1.191 . S
O177 C156 1.331 . S
O177 Mg163 2.081 . S
O178 Mg159 1.986 . S
O178 C165 1.307 . S
O179 C157 1.264 . S
O179 Mg163 2.023 . S
O180 C156 1.244 . S
O180 Mg164 1.942 . S
O181 C157 1.273 . S
O181 Mg164 1.955 . S
O182 C155 1.312 . S
O182 Mg158 2.291 . S
O182 Mg161 2.114 . S
O183 C155 1.208 . S
O183 Mg163 2.031 . S
C184 O169 1.264 . S
C184 O171 1.273 . S
C185 O166 1.191 . S
C185 O168 1.307 . S
C186 O213 1.312 . S
C186 O214 1.208 . S
C187 O208 1.331 . S
C187 O211 1.244 . S
C188 O210 1.264 . S
C188 O212 1.273 . S
Mg189 O191 1.936 . S
Mg189 O198 2.081 . S
Mg189 O200 2.023 . S
Mg189 O204 2.031 . S
Mg189 O213 2.291 . S
Mg190 O191 1.963 . S
Mg190 O201 1.942 . S
Mg190 O202 1.955 . S
Mg190 O209 1.986 . S
O191 Mg189 1.936 . S
O191 Mg190 1.963 . S
O191 Mg192 1.915 . S
Mg192 O191 1.915 . S
Mg192 O193 1.915 . S
Mg192 O197 2.013 . S
Mg192 O203 2.114 1_554 S
Mg192 O207 2.013 . S
Mg192 O213 2.114 . S
O193 Mg192 1.915 . S
O193 Mg194 1.936 1_554 S
O193 Mg195 1.963 . S
Mg194 O193 1.936 1_556 S
Mg194 O203 2.291 . S
Mg194 O208 2.081 1_556 S
Mg194 O210 2.023 . S
Mg194 O214 2.031 1_556 S
Mg195 O193 1.963 . S
Mg195 O199 1.986 . S
Mg195 O211 1.942 . S
Mg195 O212 1.955 1_554 S
C196 O207 1.191 . S
C196 O209 1.307 . S
O197 Mg192 2.013 . S
O197 C216 1.191 . S
O198 Mg189 2.081 . S
O198 C206 1.331 . S
O199 Mg195 1.986 . S
O199 C216 1.307 . S
O200 Mg189 2.023 . S
O200 C215 1.264 . S
O201 Mg190 1.942 . S
O201 C206 1.244 . S
O202 Mg190 1.955 . S
O202 C215 1.273 . S
O203 Mg192 2.114 1_556 S
O203 Mg194 2.291 . S
O203 C205 1.312 . S
O204 Mg189 2.031 . S
O204 C205 1.208 1_554 S
C205 O203 1.312 . S
C205 O204 1.208 1_556 S
C206 O198 1.331 . S
C206 O201 1.244 . S
O207 Mg192 2.013 . S
O207 C196 1.191 . S
O208 C187 1.331 . S
O208 Mg194 2.081 1_554 S
O209 Mg190 1.986 . S
O209 C196 1.307 . S
O210 C188 1.264 . S
O210 Mg194 2.023 . S
O211 C187 1.244 . S
O211 Mg195 1.942 . S
O212 C188 1.273 . S
O212 Mg195 1.955 1_556 S
O213 C186 1.312 . S
O213 Mg189 2.291 . S
O213 Mg192 2.114 . S
O214 C186 1.208 . S
O214 Mg194 2.031 1_554 S
C215 O200 1.264 . S
C215 O202 1.273 . S
C216 O197 1.191 . S
C216 O199 1.307 . S
C217 O244 1.312 . S
C217 O245 1.208 . S
C218 O239 1.331 . S
C218 O242 1.244 . S
C219 O241 1.264 . S
C219 O243 1.273 . S
Mg220 O222 1.936 . S
Mg220 O229 2.081 . S
Mg220 O231 2.023 . S
Mg220 O235 2.031 . S
Mg220 O244 2.291 . S
Mg221 O222 1.963 . S
Mg221 O232 1.942 . S
Mg221 O233 1.955 . S
Mg221 O240 1.986 . S
O222 Mg220 1.936 . S
O222 Mg221 1.963 . S
O222 Mg223 1.915 . S
Mg223 O222 1.915 . S
Mg223 O224 1.915 . S
Mg223 O228 2.013 . S
Mg223 O234 2.114 . S
Mg223 O238 2.013 . S
Mg223 O244 2.114 . S
O224 Mg223 1.915 . S
O224 Mg225 1.936 1_554 S
O224 Mg226 1.963 . S
Mg225 O224 1.936 1_556 S
Mg225 O234 2.291 1_556 S
Mg225 O239 2.081 1_556 S
Mg225 O241 2.023 . S
Mg225 O245 2.031 1_556 S
Mg226 O224 1.963 . S
Mg226 O230 1.986 . S
Mg226 O242 1.942 . S
Mg226 O243 1.955 1_554 S
C227 O238 1.191 . S
C227 O240 1.307 . S
O228 Mg223 2.013 . S
O228 C247 1.191 . S
O229 Mg220 2.081 . S
O229 C237 1.331 . S
O230 Mg226 1.986 . S
O230 C247 1.307 . S
O231 Mg220 2.023 . S
O231 C246 1.264 . S
O232 Mg221 1.942 . S
O232 C237 1.244 . S
O233 Mg221 1.955 . S
O233 C246 1.273 . S
O234 Mg223 2.114 . S
O234 Mg225 2.291 1_554 S
O234 C236 1.312 1_554 S
O235 Mg220 2.031 . S
O235 C236 1.208 1_554 S
C236 O234 1.312 1_556 S
C236 O235 1.208 1_556 S
C237 O229 1.331 . S
C237 O232 1.244 . S
O238 Mg223 2.013 . S
O238 C227 1.191 . S
O239 C218 1.331 . S
O239 Mg225 2.081 1_554 S
O240 Mg221 1.986 . S
O240 C227 1.307 . S
O241 C219 1.264 . S
O241 Mg225 2.023 . S
O242 C218 1.244 . S
O242 Mg226 1.942 . S
O243 C219 1.273 . S
O243 Mg226 1.955 1_556 S
O244 C217 1.312 . S
O244 Mg220 2.291 . S
O244 Mg223 2.114 . S
O245 C217 1.208 . S
O245 Mg225 2.031 1_554 S
C246 O231 1.264 . S
C246 O233 1.273 . S
C247 O228 1.191 . S
C247 O230 1.307 . S
C248 O275 1.312 . S
C248 O276 1.208 . S
C249 O270 1.331 . S
C249 O273 1.244 . S
C250 O272 1.264 . S
C250 O274 1.273 . S
Mg251 O253 1.936 . S
Mg251 O260 2.081 . S
Mg251 O262 2.023 . S
Mg251 O266 2.031 . S
Mg251 O275 2.291 . S
Mg252 O253 1.963 . S
Mg252 O263 1.942 . S
Mg252 O264 1.955 . S
Mg252 O271 1.986 . S
O253 Mg251 1.936 . S
O253 Mg252 1.963 . S
O253 Mg254 1.915 . S
Mg254 O253 1.915 . S
Mg254 O255 1.915 . S
Mg254 O259 2.013 . S
Mg254 O265 2.114 1_554 S
Mg254 O269 2.013 . S
Mg254 O275 2.114 . S
O255 Mg254 1.915 . S
O255 Mg256 1.936 1_554 S
O255 Mg257 1.963 . S
Mg256 O255 1.936 1_556 S
Mg256 O265 2.291 . S
Mg256 O270 2.081 1_556 S
Mg256 O272 2.023 . S
Mg256 O276 2.031 1_556 S
Mg257 O255 1.963 . S
Mg257 O261 1.986 . S
Mg257 O273 1.942 . S
Mg257 O274 1.955 1_554 S
C258 O269 1.191 . S
C258 O271 1.307 . S
O259 Mg254 2.013 . S
O259 C278 1.191 . S
O260 Mg251 2.081 . S
O260 C268 1.331 . S
O261 Mg257 1.986 . S
O261 C278 1.307 . S
O262 Mg251 2.023 . S
O262 C277 1.264 . S
O263 Mg252 1.942 . S
O263 C268 1.244 . S
O264 Mg252 1.955 . S
O264 C277 1.273 . S
O265 Mg254 2.114 1_556 S
O265 Mg256 2.291 . S
O265 C267 1.312 . S
O266 Mg251 2.031 . S
O266 C267 1.208 1_554 S
C267 O265 1.312 . S
C267 O266 1.208 1_556 S
C268 O260 1.331 . S
C268 O263 1.244 . S
O269 Mg254 2.013 . S
O269 C258 1.191 . S
O270 C249 1.331 . S
O270 Mg256 2.081 1_554 S
O271 Mg252 1.986 . S
O271 C258 1.307 . S
O272 C250 1.264 . S
O272 Mg256 2.023 . S
O273 C249 1.244 . S
O273 Mg257 1.942 . S
O274 C250 1.273 . S
O274 Mg257 1.955 1_556 S
O275 C248 1.312 . S
O275 Mg251 2.291 . S
O275 Mg254 2.114 . S
O276 C248 1.208 . S
O276 Mg256 2.031 1_554 S
C277 O262 1.264 . S
C277 O264 1.273 . S
C278 O259 1.191 . S
C278 O261 1.307 . S
C279 O306 1.312 . S
C279 O307 1.208 . S
C280 O301 1.331 . S
C280 O304 1.244 . S
C281 O303 1.264 . S
C281 O305 1.273 . S
Mg282 O284 1.936 . S
Mg282 O291 2.081 . S
Mg282 O293 2.023 . S
Mg282 O297 2.031 . S
Mg282 O306 2.291 . S
Mg283 O284 1.963 . S
Mg283 O294 1.942 . S
Mg283 O295 1.955 . S
Mg283 O302 1.986 . S
O284 Mg282 1.936 . S
O284 Mg283 1.963 . S
O284 Mg285 1.915 . S
Mg285 O284 1.915 . S
Mg285 O286 1.915 . S
Mg285 O290 2.013 . S
Mg285 O296 2.114 . S
Mg285 O300 2.013 . S
Mg285 O306 2.114 . S
O286 Mg285 1.915 . S
O286 Mg287 1.936 . S
O286 Mg288 1.963 . S
Mg287 O286 1.936 . S
Mg287 O296 2.291 . S
Mg287 O301 2.081 . S
Mg287 O303 2.023 . S
Mg287 O307 2.031 . S
Mg288 O286 1.963 . S
Mg288 O292 1.986 . S
Mg288 O304 1.942 . S
Mg288 O305 1.955 . S
C289 O300 1.191 . S
C289 O302 1.307 . S
O290 Mg285 2.013 . S
O290 C309 1.191 . S
O291 Mg282 2.081 . S
O291 C299 1.331 . S
O292 Mg288 1.986 . S
O292 C309 1.307 . S
O293 Mg282 2.023 . S
O293 C308 1.264 . S
O294 Mg283 1.942 . S
O294 C299 1.244 . S
O295 Mg283 1.955 . S
O295 C308 1.273 . S
O296 Mg285 2.114 . S
O296 Mg287 2.291 . S
O296 C298 1.312 . S
O297 Mg282 2.031 . S
O297 C298 1.208 . S
C298 O296 1.312 . S
C298 O297 1.208 . S
C299 O291 1.331 . S
C299 O294 1.244 . S
O300 Mg285 2.013 . S
O300 C289 1.191 . S
O301 C280 1.331 . S
O301 Mg287 2.081 . S
O302 Mg283 1.986 . S
O302 C289 1.307 . S
O303 C281 1.264 . S
O303 Mg287 2.023 . S
O304 C280 1.244 . S
O304 Mg288 1.942 . S
O305 C281 1.273 . S
O305 Mg288 1.955 . S
O306 C279 1.312 . S
O306 Mg282 2.291 . S
O306 Mg285 2.114 . S
O307 C279 1.208 . S
O307 Mg287 2.031 . S
C308 O293 1.264 . S
C308 O295 1.273 . S
C309 O290 1.191 . S
C309 O292 1.307 . S
C310 O337 1.312 . S
C310 O338 1.208 . S
C311 O332 1.331 . S
C311 O335 1.244 . S
C312 O334 1.264 . S
C312 O336 1.273 . S
Mg313 O315 1.936 . S
Mg313 O322 2.081 . S
Mg313 O324 2.023 . S
Mg313 O328 2.031 . S
Mg313 O337 2.291 . S
Mg314 O315 1.963 . S
Mg314 O325 1.942 . S
Mg314 O326 1.955 . S
Mg314 O333 1.986 . S
O315 Mg313 1.936 . S
O315 Mg314 1.963 . S
O315 Mg316 1.915 . S
Mg316 O315 1.915 . S
Mg316 O317 1.915 . S
Mg316 O321 2.013 . S
Mg316 O327 2.114 . S
Mg316 O331 2.013 . S
Mg316 O337 2.114 . S
O317 Mg316 1.915 . S
O317 Mg318 1.936 . S
O317 Mg319 1.963 . S
Mg318 O317 1.936 . S
Mg318 O327 2.291 . S
Mg318 O332 2.081 . S
Mg318 O334 2.023 . S
Mg318 O338 2.031 . S
Mg319 O317 1.963 . S
Mg319 O323 1.986 . S
Mg319 O335 1.942 . S
Mg319 O336 1.955 . S
C320 O331 1.191 . S
C320 O333 1.307 . S
O321 Mg316 2.013 . S
O321 C340 1.191 . S
O322 Mg313 2.081 . S
O322 C330 1.331 . S
O323 Mg319 1.986 . S
O323 C340 1.307 . S
O324 Mg313 2.023 . S
O324 C339 1.264 . S
O325 Mg314 1.942 . S
O325 C330 1.244 . S
O326 Mg314 1.955 . S
O326 C339 1.273 . S
O327 Mg316 2.114 . S
O327 Mg318 2.291 . S
O327 C329 1.312 . S
O328 Mg313 2.031 . S
O328 C329 1.208 . S
C329 O327 1.312 . S
C329 O328 1.208 . S
C330 O322 1.331 . S
C330 O325 1.244 . S
O331 Mg316 2.013 . S
O331 C320 1.191 . S
O332 C311 1.331 . S
O332 Mg318 2.081 . S
O333 Mg314 1.986 . S
O333 C320 1.307 . S
O334 C312 1.264 . S
O334 Mg318 2.023 . S
O335 C311 1.244 . S
O335 Mg319 1.942 . S
O336 C312 1.273 . S
O336 Mg319 1.955 . S
O337 C310 1.312 . S
O337 Mg313 2.291 . S
O337 Mg316 2.114 . S
O338 C310 1.208 . S
O338 Mg318 2.031 . S
C339 O324 1.264 . S
C339 O326 1.273 . S
C340 O321 1.191 . S
C340 O323 1.307 . S
C341 O368 1.312 . S
C341 O369 1.208 . S
C342 O363 1.331 . S
C342 O366 1.244 . S
C343 O365 1.264 . S
C343 O367 1.273 . S
Mg344 O346 1.936 . S
Mg344 O353 2.081 . S
Mg344 O355 2.023 . S
Mg344 O359 2.031 . S
Mg344 O368 2.291 . S
Mg345 O346 1.963 . S
Mg345 O356 1.942 . S
Mg345 O357 1.955 . S
Mg345 O364 1.986 . S
O346 Mg344 1.936 . S
O346 Mg345 1.963 . S
O346 Mg347 1.915 . S
Mg347 O346 1.915 . S
Mg347 O348 1.915 . S
Mg347 O352 2.013 . S
Mg347 O358 2.114 . S
Mg347 O362 2.013 . S
Mg347 O368 2.114 . S
O348 Mg347 1.915 . S
O348 Mg349 1.936 . S
O348 Mg350 1.963 . S
Mg349 O348 1.936 . S
Mg349 O358 2.291 . S
Mg349 O363 2.081 . S
Mg349 O365 2.023 . S
Mg349 O369 2.031 . S
Mg350 O348 1.963 . S
Mg350 O354 1.986 . S
Mg350 O366 1.942 . S
Mg350 O367 1.955 . S
C351 O362 1.191 . S
C351 O364 1.307 . S
O352 Mg347 2.013 . S
O352 C371 1.191 . S
O353 Mg344 2.081 . S
O353 C361 1.331 . S
O354 Mg350 1.986 . S
O354 C371 1.307 . S
O355 Mg344 2.023 . S
O355 C370 1.264 . S
O356 Mg345 1.942 . S
O356 C361 1.244 . S
O357 Mg345 1.955 . S
O357 C370 1.273 . S
O358 Mg347 2.114 . S
O358 Mg349 2.291 . S
O358 C360 1.312 . S
O359 Mg344 2.031 . S
O359 C360 1.208 . S
C360 O358 1.312 . S
C360 O359 1.208 . S
C361 O353 1.331 . S
C361 O356 1.244 . S
O362 Mg347 2.013 . S
O362 C351 1.191 . S
O363 C342 1.331 . S
O363 Mg349 2.081 . S
O364 Mg345 1.986 . S
O364 C351 1.307 . S
O365 C343 1.264 . S
O365 Mg349 2.023 . S
O366 C342 1.244 . S
O366 Mg350 1.942 . S
O367 C343 1.273 . S
O367 Mg350 1.955 . S
O368 C341 1.312 . S
O368 Mg344 2.291 . S
O368 Mg347 2.114 . S
O369 C341 1.208 . S
O369 Mg349 2.031 . S
C370 O355 1.264 . S
C370 O357 1.273 . S
C371 O352 1.191 . S
C371 O354 1.307 . S
C372 O399 1.312 . S
C372 O400 1.208 . S
C373 O394 1.331 . S
C373 O397 1.244 . S
C374 O396 1.264 . S
C374 O398 1.273 . S
Mg375 O377 1.936 . S
Mg375 O384 2.081 . S
Mg375 O386 2.023 . S
Mg375 O390 2.031 . S
Mg375 O399 2.291 . S
Mg376 O377 1.963 . S
Mg376 O387 1.942 . S
Mg376 O388 1.955 . S
Mg376 O395 1.986 . S
O377 Mg375 1.936 . S
O377 Mg376 1.963 . S
O377 Mg378 1.915 . S
Mg378 O377 1.915 . S
Mg378 O379 1.915 . S
Mg378 O383 2.013 . S
Mg378 O389 2.114 . S
Mg378 O393 2.013 . S
Mg378 O399 2.114 . S
O379 Mg378 1.915 . S
O379 Mg380 1.936 . S
O379 Mg381 1.963 . S
Mg380 O379 1.936 . S
Mg380 O389 2.291 . S
Mg380 O394 2.081 . S
Mg380 O396 2.023 . S
Mg380 O400 2.031 . S
Mg381 O379 1.963 . S
Mg381 O385 1.986 . S
Mg381 O397 1.942 . S
Mg381 O398 1.955 . S
C382 O393 1.191 . S
C382 O395 1.307 . S
O383 Mg378 2.013 . S
O383 C402 1.191 . S
O384 Mg375 2.081 . S
O384 C392 1.331 . S
O385 Mg381 1.986 . S
O385 C402 1.307 . S
O386 Mg375 2.023 . S
O386 C401 1.264 . S
O387 Mg376 1.942 . S
O387 C392 1.244 . S
O388 Mg376 1.955 . S
O388 C401 1.273 . S
O389 Mg378 2.114 . S
O389 Mg380 2.291 . S
O389 C391 1.312 . S
O390 Mg375 2.031 . S
O390 C391 1.208 . S
C391 O389 1.312 . S
C391 O390 1.208 . S
C392 O384 1.331 . S
C392 O387 1.244 . S
O393 Mg378 2.013 . S
O393 C382 1.191 . S
O394 C373 1.331 . S
O394 Mg380 2.081 . S
O395 Mg376 1.986 . S
O395 C382 1.307 . S
O396 C374 1.264 . S
O396 Mg380 2.023 . S
O397 C373 1.244 . S
O397 Mg381 1.942 . S
O398 C374 1.273 . S
O398 Mg381 1.955 . S
O399 C372 1.312 . S
O399 Mg375 2.291 . S
O399 Mg378 2.114 . S
O400 C372 1.208 . S
O400 Mg380 2.031 . S
C401 O386 1.264 . S
C401 O388 1.273 . S
C402 O383 1.191 . S
C402 O385 1.307 . S
C403 O430 1.312 . S
C403 O431 1.208 . S
C404 O425 1.331 . S
C404 O428 1.244 . S
C405 O427 1.264 . S
C405 O429 1.273 . S
Mg406 O408 1.936 . S
Mg406 O415 2.081 . S
Mg406 O417 2.023 . S
Mg406 O421 2.031 . S
Mg406 O430 2.291 . S
Mg407 O408 1.963 . S
Mg407 O418 1.942 . S
Mg407 O419 1.955 . S
Mg407 O426 1.986 . S
O408 Mg406 1.936 . S
O408 Mg407 1.963 . S
O408 Mg409 1.915 . S
Mg409 O408 1.915 . S
Mg409 O410 1.915 . S
Mg409 O414 2.013 . S
Mg409 O420 2.114 . S
Mg409 O424 2.013 . S
Mg409 O430 2.114 . S
O410 Mg409 1.915 . S
O410 Mg411 1.936 . S
O410 Mg412 1.963 . S
Mg411 O410 1.936 . S
Mg411 O420 2.291 . S
Mg411 O425 2.081 . S
Mg411 O427 2.023 . S
Mg411 O431 2.031 . S
Mg412 O410 1.963 . S
Mg412 O416 1.986 . S
Mg412 O428 1.942 . S
Mg412 O429 1.955 . S
C413 O424 1.191 . S
C413 O426 1.307 . S
O414 Mg409 2.013 . S
O414 C433 1.191 . S
O415 Mg406 2.081 . S
O415 C423 1.331 . S
O416 Mg412 1.986 . S
O416 C433 1.307 . S
O417 Mg406 2.023 . S
O417 C432 1.264 . S
O418 Mg407 1.942 . S
O418 C423 1.244 . S
O419 Mg407 1.955 . S
O419 C432 1.273 . S
O420 Mg409 2.114 . S
O420 Mg411 2.291 . S
O420 C422 1.312 . S
O421 Mg406 2.031 . S
O421 C422 1.208 . S
C422 O420 1.312 . S
C422 O421 1.208 . S
C423 O415 1.331 . S
C423 O418 1.244 . S
O424 Mg409 2.013 . S
O424 C413 1.191 . S
O425 C404 1.331 . S
O425 Mg411 2.081 . S
O426 Mg407 1.986 . S
O426 C413 1.307 . S
O427 C405 1.264 . S
O427 Mg411 2.023 . S
O428 C404 1.244 . S
O428 Mg412 1.942 . S
O429 C405 1.273 . S
O429 Mg412 1.955 . S
O430 C403 1.312 . S
O430 Mg406 2.291 . S
O430 Mg409 2.114 . S
O431 C403 1.208 . S
O431 Mg411 2.031 . S
C432 O417 1.264 . S
C432 O419 1.273 . S
C433 O414 1.191 . S
C433 O416 1.307 . S
C434 O461 1.312 . S
C434 O462 1.208 . S
C435 O456 1.331 . S
C435 O459 1.244 . S
C436 O458 1.264 . S
C436 O460 1.273 . S
Mg437 O439 1.936 . S
Mg437 O446 2.081 . S
Mg437 O448 2.023 . S
Mg437 O452 2.031 . S
Mg437 O461 2.291 . S
Mg438 O439 1.963 . S
Mg438 O449 1.942 . S
Mg438 O450 1.955 . S
Mg438 O457 1.986 . S
O439 Mg437 1.936 . S
O439 Mg438 1.963 . S
O439 Mg440 1.915 . S
Mg440 O439 1.915 . S
Mg440 O441 1.915 . S
Mg440 O445 2.013 . S
Mg440 O451 2.114 . S
Mg440 O455 2.013 . S
Mg440 O461 2.114 . S
O441 Mg440 1.915 . S
O441 Mg442 1.936 . S
O441 Mg443 1.963 . S
Mg442 O441 1.936 . S
Mg442 O451 2.291 . S
Mg442 O456 2.081 . S
Mg442 O458 2.023 . S
Mg442 O462 2.031 . S
Mg443 O441 1.963 . S
Mg443 O447 1.986 . S
Mg443 O459 1.942 . S
Mg443 O460 1.955 . S
C444 O455 1.191 . S
C444 O457 1.307 . S
O445 Mg440 2.013 . S
O445 C464 1.191 . S
O446 Mg437 2.081 . S
O446 C454 1.331 . S
O447 Mg443 1.986 . S
O447 C464 1.307 . S
O448 Mg437 2.023 . S
O448 C463 1.264 . S
O449 Mg438 1.942 . S
O449 C454 1.244 . S
O450 Mg438 1.955 . S
O450 C463 1.273 . S
O451 Mg440 2.114 . S
O451 Mg442 2.291 . S
O451 C453 1.312 . S
O452 Mg437 2.031 . S
O452 C453 1.208 . S
C453 O451 1.312 . S
C453 O452 1.208 . S
C454 O446 1.331 . S
C454 O449 1.244 . S
O455 Mg440 2.013 . S
O455 C444 1.191 . S
O456 C435 1.331 . S
O456 Mg442 2.081 . S
O457 Mg438 1.986 . S
O457 C444 1.307 . S
O458 C436 1.264 . S
O458 Mg442 2.023 . S
O459 C435 1.244 . S
O459 Mg443 1.942 . S
O460 C436 1.273 . S
O460 Mg443 1.955 . S
O461 C434 1.312 . S
O461 Mg437 2.291 . S
O461 Mg440 2.114 . S
O462 C434 1.208 . S
O462 Mg442 2.031 . S
C463 O448 1.264 . S
C463 O450 1.273 . S
C464 O445 1.191 . S
C464 O447 1.307 . S
C465 O492 1.312 . S
C465 O493 1.208 1_554 S
C466 O487 1.331 . S
C466 O490 1.244 . S
C467 O489 1.264 . S
C467 O491 1.273 . S
Mg468 O470 1.936 1_554 S
Mg468 O477 2.079 1_554 S
Mg468 O479 2.023 . S
Mg468 O483 2.031 1_554 S
Mg468 O492 2.291 . S
Mg469 O470 1.963 . S
Mg469 O480 1.942 . S
Mg469 O481 1.955 1_556 S
Mg469 O488 1.986 . S
O470 Mg468 1.936 1_556 S
O470 Mg469 1.963 . S
O470 Mg471 1.915 . S
Mg471 O470 1.915 . S
Mg471 O472 1.915 . S
Mg471 O476 2.013 . S
Mg471 O482 2.114 . S
Mg471 O486 2.013 . S
Mg471 O492 2.114 1_556 S
O472 Mg471 1.915 . S
O472 Mg473 1.936 . S
O472 Mg474 1.963 . S
Mg473 O472 1.936 . S
Mg473 O482 2.291 . S
Mg473 O487 2.081 . S
Mg473 O489 2.023 . S
Mg473 O493 2.031 . S
Mg474 O472 1.963 . S
Mg474 O478 1.986 . S
Mg474 O490 1.942 . S
Mg474 O491 1.955 . S
C475 O486 1.191 . S
C475 O488 1.307 . S
O476 Mg471 2.013 . S
O476 C495 1.191 . S
O477 Mg468 2.079 1_556 S
O477 C485 1.339 . S
O478 Mg474 1.986 . S
O478 C495 1.307 . S
O479 Mg468 2.023 . S
O479 C494 1.264 . S
O480 Mg469 1.942 . S
O480 C485 1.244 . S
O481 Mg469 1.955 1_554 S
O481 C494 1.273 . S
O482 Mg471 2.114 . S
O482 Mg473 2.291 . S
O482 C484 1.312 . S
O483 Mg468 2.031 1_556 S
O483 C484 1.208 . S
C484 O482 1.312 . S
C484 O483 1.208 . S
C485 O477 1.339 . S
C485 O480 1.244 . S
O486 Mg471 2.013 . S
O486 C475 1.191 . S
O487 C466 1.331 . S
O487 Mg473 2.081 . S
O488 Mg469 1.986 . S
O488 C475 1.307 . S
O489 C467 1.264 . S
O489 Mg473 2.023 . S
O490 C466 1.244 . S
O490 Mg474 1.942 . S
O491 C467 1.273 . S
O491 Mg474 1.955 . S
O492 C465 1.312 . S
O492 Mg468 2.291 . S
O492 Mg471 2.114 1_554 S
O493 C465 1.208 1_556 S
O493 Mg473 2.031 . S
C494 O479 1.264 . S
C494 O481 1.273 . S
C495 O476 1.191 . S
C495 O478 1.307 . S
C496 O523 1.312 . S
C496 O524 1.208 . S
C497 O518 1.331 . S
C497 O521 1.244 . S
C498 O520 1.264 . S
C498 O522 1.273 . S
Mg499 O501 1.936 . S
Mg499 O508 2.081 . S
Mg499 O510 2.023 . S
Mg499 O514 2.031 . S
Mg499 O523 2.291 . S
Mg500 O501 1.963 . S
Mg500 O511 1.942 . S
Mg500 O512 1.955 . S
Mg500 O519 1.986 . S
O501 Mg499 1.936 . S
O501 Mg500 1.963 . S
O501 Mg502 1.915 . S
Mg502 O501 1.915 . S
Mg502 O503 1.915 . S
Mg502 O507 2.013 . S
Mg502 O513 2.114 . S
Mg502 O517 2.013 1_556 S
Mg502 O523 2.114 . S
O503 Mg502 1.915 . S
O503 Mg504 1.936 . S
O503 Mg505 1.963 1_556 S
Mg504 O503 1.936 . S
Mg504 O513 2.291 . S
Mg504 O518 2.081 . S
Mg504 O520 2.023 1_556 S
Mg504 O524 2.031 . S
Mg505 O503 1.963 1_554 S
Mg505 O509 1.986 1_554 S
Mg505 O521 1.942 1_554 S
Mg505 O522 1.955 . S
C506 O517 1.191 . S
C506 O519 1.307 1_554 S
O507 Mg502 2.013 . S
O507 C526 1.191 . S
O508 Mg499 2.081 . S
O508 C516 1.331 . S
O509 Mg505 1.986 1_556 S
O509 C526 1.307 . S
O510 Mg499 2.023 . S
O510 C525 1.264 . S
O511 Mg500 1.942 . S
O511 C516 1.244 . S
O512 Mg500 1.955 . S
O512 C525 1.273 . S
O513 Mg502 2.114 . S
O513 Mg504 2.291 . S
O513 C515 1.312 . S
O514 Mg499 2.031 . S
O514 C515 1.208 . S
C515 O513 1.312 . S
C515 O514 1.208 . S
C516 O508 1.331 . S
C516 O511 1.244 . S
O517 Mg502 2.013 1_554 S
O517 C506 1.191 . S
O518 C497 1.331 . S
O518 Mg504 2.081 . S
O519 Mg500 1.986 . S
O519 C506 1.307 1_556 S
O520 C498 1.264 . S
O520 Mg504 2.023 1_554 S
O521 C497 1.244 . S
O521 Mg505 1.942 1_556 S
O522 C498 1.273 . S
O522 Mg505 1.955 . S
O523 C496 1.312 . S
O523 Mg499 2.291 . S
O523 Mg502 2.114 . S
O524 C496 1.208 . S
O524 Mg504 2.031 . S
C525 O510 1.264 . S
C525 O512 1.273 . S
C526 O507 1.191 . S
C526 O509 1.307 . S
C527 O554 1.312 . S
C527 O555 1.208 . S
C528 O549 1.331 . S
C528 O552 1.244 . S
C529 O551 1.264 . S
C529 O553 1.273 . S
Mg530 O532 1.936 . S
Mg530 O539 2.081 . S
Mg530 O541 2.023 . S
Mg530 O545 2.031 . S
Mg530 O554 2.291 . S
Mg531 O532 1.963 . S
Mg531 O542 1.942 . S
Mg531 O543 1.955 . S
Mg531 O550 1.986 . S
O532 Mg530 1.936 . S
O532 Mg531 1.963 . S
O532 Mg533 1.915 . S
Mg533 O532 1.915 . S
Mg533 O534 1.915 . S
Mg533 O538 2.013 . S
Mg533 O544 2.114 1_556 S
Mg533 O548 2.013 . S
Mg533 O554 2.114 . S
O534 Mg533 1.915 . S
O534 Mg535 1.936 1_556 S
O534 Mg536 1.963 . S
Mg535 O534 1.936 1_554 S
Mg535 O544 2.291 . S
Mg535 O549 2.081 1_554 S
Mg535 O551 2.023 . S
Mg535 O555 2.031 1_554 S
Mg536 O534 1.963 . S
Mg536 O540 1.986 . S
Mg536 O552 1.942 . S
Mg536 O553 1.955 1_556 S
C537 O548 1.191 . S
C537 O550 1.307 . S
O538 Mg533 2.013 . S
O538 C557 1.191 . S
O539 Mg530 2.081 . S
O539 C547 1.331 . S
O540 Mg536 1.986 . S
O540 C557 1.307 . S
O541 Mg530 2.023 . S
O541 C556 1.264 . S
O542 Mg531 1.942 . S
O542 C547 1.244 . S
O543 Mg531 1.955 . S
O543 C556 1.273 . S
O544 Mg533 2.114 1_554 S
O544 Mg535 2.291 . S
O544 C546 1.312 . S
O545 Mg530 2.031 . S
O545 C546 1.208 1_556 S
C546 O544 1.312 . S
C546 O545 1.208 1_554 S
C547 O539 1.331 . S
C547 O542 1.244 . S
O548 Mg533 2.013 . S
O548 C537 1.191 . S
O549 C528 1.331 . S
O549 Mg535 2.081 1_556 S
O550 Mg531 1.986 . S
O550 C537 1.307 . S
O551 C529 1.264 . S
O551 Mg535 2.023 . S
O552 C528 1.244 . S
O552 Mg536 1.942 . S
O553 C529 1.273 . S
O553 Mg536 1.955 1_554 S
O554 C527 1.312 . S
O554 Mg530 2.291 . S
O554 Mg533 2.114 . S
O555 C527 1.208 . S
O555 Mg535 2.031 1_556 S
C556 O541 1.264 . S
C556 O543 1.273 . S
C557 O538 1.191 . S
C557 O540 1.307 . S
C558 C559 1.369 . S
C558 C560 1.419 . S
C558 H562 0.930 . S
C559 C558 1.369 . S
C559 C568 1.429 . S
C560 C558 1.419 . S
C560 C561 1.363 . S
C560 H563 0.929 . S
C561 C560 1.363 . S
C561 C567 1.428 . S
H562 C558 0.930 . S
H563 C560 0.929 . S
S564 N565 1.613 . S
S564 N566 1.610 . S
N565 S564 1.613 . S
N565 C568 1.350 . S
N566 S564 1.610 . S
N566 C567 1.351 . S
C567 C561 1.428 . S
C567 N566 1.351 . S
C567 C568 1.434 . S
C568 C559 1.429 . S
C568 N565 1.350 . S
C568 C567 1.434 . S
C569 C570 1.369 . S
C569 C571 1.419 . S
C569 H573 0.930 . S
C570 C569 1.369 . S
C570 C579 1.429 . S
C571 C569 1.419 . S
C571 C572 1.363 1_545 S
C571 H574 0.929 . S
C572 C571 1.363 1_565 S
C572 C578 1.428 . S
H573 C569 0.930 . S
H574 C571 0.929 . S
S575 N576 1.613 1_565 S
S575 N577 1.610 . S
N576 S575 1.613 1_545 S
N576 C579 1.350 . S
N577 S575 1.610 . S
N577 C578 1.351 . S
C578 C572 1.428 . S
C578 N577 1.351 . S
C578 C579 1.434 1_565 S
C579 C570 1.429 . S
C579 N576 1.350 . S
C579 C578 1.434 1_545 S
C580 C581 1.369 . S
C580 C582 1.419 . S
C580 H584 0.930 . S
C581 C580 1.369 . S
C581 C590 1.429 . S
C582 C580 1.419 . S
C582 C583 1.363 . S
C582 H585 0.929 . S
C583 C582 1.363 . S
C583 C589 1.428 . S
H584 C580 0.930 . S
H585 C582 0.929 . S
S586 N587 1.613 . S
S586 N588 1.610 . S
N587 S586 1.613 . S
N587 C590 1.350 . S
N588 S586 1.610 . S
N588 C589 1.351 . S
C589 C583 1.428 . S
C589 N588 1.351 . S
C589 C590 1.434 . S
C590 C581 1.429 . S
C590 N587 1.350 . S
C590 C589 1.434 . S
C591 C592 1.369 . S
C591 C593 1.419 . S
C591 H595 0.930 . S
C592 C591 1.369 . S
C592 C601 1.429 . S
C593 C591 1.419 . S
C593 C594 1.363 . S
C593 H596 0.929 . S
C594 C593 1.363 . S
C594 C600 1.428 . S
H595 C591 0.930 . S
H596 C593 0.929 . S
S597 N598 1.613 . S
S597 N599 1.610 . S
N598 S597 1.613 . S
N598 C601 1.350 . S
N599 S597 1.610 . S
N599 C600 1.351 . S
C600 C594 1.428 . S
C600 N599 1.351 . S
C600 C601 1.434 . S
C601 C592 1.429 . S
C601 N598 1.350 . S
C601 C600 1.434 . S
C602 C603 1.369 . S
C602 C604 1.419 1_545 S
C602 H606 0.930 . S
C603 C602 1.369 . S
C603 C612 1.429 . S
C604 C602 1.419 1_565 S
C604 C605 1.363 . S
C604 H607 0.929 . S
C605 C604 1.363 . S
C605 C611 1.428 1_565 S
H606 C602 0.930 . S
H607 C604 0.929 . S
S608 N609 1.613 . S
S608 N610 1.610 1_545 S
N609 S608 1.613 . S
N609 C612 1.350 . S
N610 S608 1.610 1_565 S
N610 C611 1.351 1_565 S
C611 C605 1.428 1_545 S
C611 N610 1.351 1_545 S
C611 C612 1.434 . S
C612 C603 1.429 . S
C612 N609 1.350 . S
C612 C611 1.434 . S
C613 C614 1.369 . S
C613 C615 1.419 1_455 S
C613 H617 0.930 . S
C614 C613 1.369 . S
C614 C623 1.429 . S
C615 C613 1.419 1_655 S
C615 C616 1.363 . S
C615 H618 0.929 . S
C616 C615 1.363 . S
C616 C622 1.428 . S
H617 C613 0.930 . S
H618 C615 0.929 . S
S619 N620 1.613 1_655 S
S619 N621 1.610 . S
N620 S619 1.613 1_455 S
N620 C623 1.350 . S
N621 S619 1.610 . S
N621 C622 1.351 . S
C622 C616 1.428 . S
C622 N621 1.351 . S
C622 C623 1.434 1_655 S
C623 C614 1.429 . S
C623 N620 1.350 . S
C623 C622 1.434 1_455 S
C624 C625 1.369 . S
C624 C626 1.419 . S
C624 H628 0.930 . S
C625 C624 1.369 . S
C625 C634 1.429 . S
C626 C624 1.419 . S
C626 C627 1.363 . S
C626 H629 0.929 . S
C627 C626 1.363 . S
C627 C633 1.428 . S
H628 C624 0.930 . S
H629 C626 0.929 . S
S630 N631 1.613 1_556 S
S630 N632 1.610 . S
N631 S630 1.613 1_554 S
N631 C634 1.350 . S
N632 S630 1.610 . S
N632 C633 1.351 1_556 S
C633 C627 1.428 . S
C633 N632 1.351 1_554 S
C633 C634 1.434 . S
C634 C625 1.429 . S
C634 N631 1.350 . S
C634 C633 1.434 . S
C635 C636 1.369 . S
C635 C637 1.419 . S
C635 H639 0.930 . S
C636 C635 1.369 . S
C636 C645 1.429 . S
C637 C635 1.419 . S
C637 C638 1.363 . S
C637 H640 0.929 . S
C638 C637 1.363 . S
C638 C644 1.428 . S
H639 C635 0.930 . S
H640 C637 0.929 . S
S641 N642 1.613 . S
S641 N643 1.610 . S
N642 S641 1.613 . S
N642 C645 1.350 . S
N643 S641 1.610 . S
N643 C644 1.351 . S
C644 C638 1.428 . S
C644 N643 1.351 . S
C644 C645 1.434 . S
C645 C636 1.429 . S
C645 N642 1.350 . S
C645 C644 1.434 . S
C646 C647 1.369 . S
C646 C648 1.419 . S
C646 H650 0.930 . S
C647 C646 1.369 . S
C647 C656 1.429 . S
C648 C646 1.419 . S
C648 C649 1.363 . S
C648 H651 0.929 . S
C649 C648 1.363 . S
C649 C655 1.428 . S
H650 C646 0.930 . S
H651 C648 0.929 . S
S652 N653 1.613 . S
S652 N654 1.610 . S
N653 S652 1.613 . S
N653 C656 1.350 . S
N654 S652 1.610 . S
N654 C655 1.351 . S
C655 C649 1.428 . S
C655 N654 1.351 . S
C655 C656 1.434 . S
C656 C647 1.429 . S
C656 N653 1.350 . S
C656 C655 1.434 . S
C657 C658 1.369 . S
C657 C659 1.419 . S
C657 H661 0.930 . S
C658 C657 1.369 . S
C658 C667 1.429 . S
C659 C657 1.419 . S
C659 C660 1.363 . S
C659 H662 0.929 . S
C660 C659 1.363 . S
C660 C666 1.428 . S
H661 C657 0.930 . S
H662 C659 0.929 . S
S663 N664 1.613 . S
S663 N665 1.610 . S
N664 S663 1.613 . S
N664 C667 1.350 . S
N665 S663 1.610 . S
N665 C666 1.351 . S
C666 C660 1.428 . S
C666 N665 1.351 . S
C666 C667 1.434 . S
C667 C658 1.429 . S
C667 N664 1.350 . S
C667 C666 1.434 . S
C668 C669 1.369 . S
C668 C670 1.419 . S
C668 H672 0.930 . S
C669 C668 1.369 . S
C669 C678 1.429 . S
C670 C668 1.419 . S
C670 C671 1.363 . S
C670 H673 0.929 . S
C671 C670 1.363 . S
C671 C677 1.428 . S
H672 C668 0.930 . S
H673 C670 0.929 . S
S674 N675 1.613 . S
S674 N676 1.610 . S
N675 S674 1.613 . S
N675 C678 1.350 . S
N676 S674 1.610 . S
N676 C677 1.351 . S
C677 C671 1.428 . S
C677 N676 1.351 . S
C677 C678 1.434 . S
C678 C669 1.429 . S
C678 N675 1.350 . S
C678 C677 1.434 . S
C679 C680 1.369 . S
C679 C681 1.419 . S
C679 H683 0.930 . S
C680 C679 1.369 . S
C680 C689 1.429 . S
C681 C679 1.419 . S
C681 C682 1.363 . S
C681 H684 0.929 . S
C682 C681 1.363 . S
C682 C688 1.428 . S
H683 C679 0.930 . S
H684 C681 0.929 . S
S685 N686 1.613 . S
S685 N687 1.610 . S
N686 S685 1.613 . S
N686 C689 1.350 . S
N687 S685 1.610 . S
N687 C688 1.351 . S
C688 C682 1.428 . S
C688 N687 1.351 . S
C688 C689 1.434 . S
C689 C680 1.429 . S
C689 N686 1.350 . S
C689 C688 1.434 . S
C690 C691 1.369 . S
C690 C692 1.419 . S
C690 H694 0.930 . S
C691 C690 1.369 . S
C691 C700 1.429 . S
C692 C690 1.419 . S
C692 C693 1.363 . S
C692 H695 0.929 . S
C693 C692 1.363 . S
C693 C699 1.428 . S
H694 C690 0.930 . S
H695 C692 0.929 . S
S696 N697 1.613 . S
S696 N698 1.610 . S
N697 S696 1.613 . S
N697 C700 1.350 . S
N698 S696 1.610 . S
N698 C699 1.351 . S
C699 C693 1.428 . S
C699 N698 1.351 . S
C699 C700 1.434 . S
C700 C691 1.429 . S
C700 N697 1.350 . S
C700 C699 1.434 . S
C701 C702 1.369 . S
C701 C703 1.419 . S
C701 H705 0.930 . S
C702 C701 1.369 . S
C702 C711 1.429 . S
C703 C701 1.419 . S
C703 C704 1.363 . S
C703 H706 0.929 . S
C704 C703 1.363 . S
C704 C710 1.428 . S
H705 C701 0.930 . S
H706 C703 0.929 . S
S707 N708 1.613 . S
S707 N709 1.610 . S
N708 S707 1.613 . S
N708 C711 1.350 . S
N709 S707 1.610 . S
N709 C710 1.351 . S
C710 C704 1.428 . S
C710 N709 1.351 . S
C710 C711 1.434 . S
C711 C702 1.429 . S
C711 N708 1.350 . S
C711 C710 1.434 . S
C712 C713 1.369 . S
C712 C714 1.419 . S
C712 H716 0.930 . S
C713 C712 1.369 . S
C713 C722 1.429 . S
C714 C712 1.419 . S
C714 C715 1.363 . S
C714 H717 0.929 . S
C715 C714 1.363 . S
C715 C721 1.428 . S
H716 C712 0.930 . S
H717 C714 0.929 . S
S718 N719 1.613 . S
S718 N720 1.610 . S
N719 S718 1.613 . S
N719 C722 1.350 . S
N720 S718 1.610 . S
N720 C721 1.351 . S
C721 C715 1.428 . S
C721 N720 1.351 . S
C721 C722 1.434 . S
C722 C713 1.429 . S
C722 N719 1.350 . S
C722 C721 1.434 . S
C723 C724 1.369 . S
C723 C725 1.419 . S
C723 H727 0.930 1_556 S
C724 C723 1.369 . S
C724 C733 1.429 . S
C725 C723 1.419 . S
C725 C726 1.363 . S
C725 H728 0.929 . S
C726 C725 1.363 . S
C726 C732 1.428 . S
H727 C723 0.930 1_554 S
H728 C725 0.929 . S
S729 N730 1.613 . S
S729 N731 1.610 . S
N730 S729 1.613 . S
N730 C733 1.350 . S
N731 S729 1.610 . S
N731 C732 1.351 . S
C732 C726 1.428 . S
C732 N731 1.351 . S
C732 C733 1.434 . S
C733 C724 1.429 . S
C733 N730 1.350 . S
C733 C732 1.434 . S
C734 C735 1.369 . S
C734 C736 1.419 . S
C734 H738 0.930 . S
C735 C734 1.369 . S
C735 C744 1.429 . S
C736 C734 1.419 . S
C736 C737 1.363 . S
C736 H739 0.929 1_556 S
C737 C736 1.363 . S
C737 C743 1.428 . S
H738 C734 0.930 . S
H739 C736 0.929 1_554 S
S740 N741 1.613 . S
S740 N742 1.610 . S
N741 S740 1.613 . S
N741 C744 1.350 . S
N742 S740 1.610 . S
N742 C743 1.351 . S
C743 C737 1.428 . S
C743 N742 1.351 . S
C743 C744 1.434 . S
C744 C735 1.429 . S
C744 N741 1.350 . S
C744 C743 1.434 . S
C745 C746 1.369 . S
C745 C747 1.419 . S
C745 H749 0.930 . S
C746 C745 1.369 . S
C746 C755 1.429 . S
C747 C745 1.419 . S
C747 C748 1.363 . S
C747 H750 0.929 . S
C748 C747 1.363 . S
C748 C754 1.428 . S
H749 C745 0.930 . S
H750 C747 0.929 . S
S751 N752 1.613 . S
S751 N753 1.610 . S
N752 S751 1.613 . S
N752 C755 1.350 . S
N753 S751 1.610 . S
N753 C754 1.351 . S
C754 C748 1.428 . S
C754 N753 1.351 . S
C754 C755 1.434 . S
C755 C746 1.429 . S
C755 N752 1.350 . S
C755 C754 1.434 . S
C756 C757 1.369 . S
C756 C758 1.419 . S
C756 H760 0.930 . S
C757 C756 1.369 . S
C757 C766 1.429 . S
C758 C756 1.419 . S
C758 C759 1.363 . S
C758 H761 0.929 . S
C759 C758 1.363 . S
C759 C765 1.428 . S
H760 C756 0.930 . S
H761 C758 0.929 . S
S762 N763 1.613 . S
S762 N764 1.610 . S
N763 S762 1.613 . S
N763 C766 1.350 . S
N764 S762 1.610 . S
N764 C765 1.351 . S
C765 C759 1.428 . S
C765 N764 1.351 . S
C765 C766 1.434 . S
C766 C757 1.429 . S
C766 N763 1.350 . S
C766 C765 1.434 . S
C767 C768 1.369 . S
C767 C769 1.419 . S
C767 H771 0.930 . S
C768 C767 1.369 . S
C768 C777 1.429 . S
C769 C767 1.419 . S
C769 C770 1.363 . S
C769 H772 0.929 . S
C770 C769 1.363 . S
C770 C776 1.428 . S
H771 C767 0.930 . S
H772 C769 0.929 . S
S773 N774 1.613 . S
S773 N775 1.610 . S
N774 S773 1.613 . S
N774 C777 1.350 . S
N775 S773 1.610 . S
N775 C776 1.351 . S
C776 C770 1.428 . S
C776 N775 1.351 . S
C776 C777 1.434 . S
C777 C768 1.429 . S
C777 N774 1.350 . S
C777 C776 1.434 . S
C778 C779 1.369 . S
C778 C780 1.419 . S
C778 H782 0.930 . S
C779 C778 1.369 . S
C779 C788 1.429 . S
C780 C778 1.419 . S
C780 C781 1.363 . S
C780 H783 0.929 . S
C781 C780 1.363 . S
C781 C787 1.428 . S
H782 C778 0.930 . S
H783 C780 0.929 . S
S784 N785 1.613 . S
S784 N786 1.610 . S
N785 S784 1.613 . S
N785 C788 1.350 . S
N786 S784 1.610 . S
N786 C787 1.351 . S
C787 C781 1.428 . S
C787 N786 1.351 . S
C787 C788 1.434 . S
C788 C779 1.429 . S
C788 N785 1.350 . S
C788 C787 1.434 . S
C789 C790 1.369 . S
C789 C791 1.419 . S
C789 H793 0.930 . S
C790 C789 1.369 . S
C790 C799 1.429 . S
C791 C789 1.419 . S
C791 C792 1.363 . S
C791 H794 0.929 1_556 S
C792 C791 1.363 . S
C792 C798 1.428 . S
H793 C789 0.930 . S
H794 C791 0.929 1_554 S
S795 N796 1.613 . S
S795 N797 1.610 . S
N796 S795 1.613 . S
N796 C799 1.350 . S
N797 S795 1.610 . S
N797 C798 1.351 . S
C798 C792 1.428 . S
C798 N797 1.351 . S
C798 C799 1.434 . S
C799 C790 1.429 . S
C799 N796 1.350 . S
C799 C798 1.434 . S
C800 C801 1.369 1_554 S
C800 C802 1.419 1_554 S
C800 H804 0.930 . S
C801 C800 1.369 1_556 S
C801 C810 1.429 . S
C802 C800 1.419 1_556 S
C802 C803 1.363 . S
C802 H805 0.929 . S
C803 C802 1.363 . S
C803 C809 1.428 . S
H804 C800 0.930 . S
H805 C802 0.929 . S
S806 N807 1.613 . S
S806 N808 1.610 . S
N807 S806 1.613 . S
N807 C810 1.350 . S
N808 S806 1.610 . S
N808 C809 1.351 . S
C809 C803 1.428 . S
C809 N808 1.351 . S
C809 C810 1.434 . S
C810 C801 1.429 . S
C810 N807 1.350 . S
C810 C809 1.434 . S
C811 C812 1.369 . S
C811 C813 1.419 . S
C811 H815 0.930 . S
C812 C811 1.369 . S
C812 C821 1.429 . S
C813 C811 1.419 . S
C813 C814 1.363 1_556 S
C813 H816 0.929 1_556 S
C814 C813 1.363 1_554 S
C814 C820 1.428 1_554 S
H815 C811 0.930 . S
H816 C813 0.929 1_554 S
S817 N818 1.613 . S
S817 N819 1.610 . S
N818 S817 1.613 . S
N818 C821 1.350 . S
N819 S817 1.610 . S
N819 C820 1.351 . S
C820 C814 1.428 1_556 S
C820 N819 1.351 . S
C820 C821 1.434 . S
C821 C812 1.429 . S
C821 N818 1.350 . S
C821 C820 1.434 . S
C822 C823 1.369 . S
C822 C824 1.419 . S
C822 H826 0.930 . S
C823 C822 1.369 . S
C823 C832 1.429 . S
C824 C822 1.419 . S
C824 C825 1.363 . S
C824 H827 0.929 . S
C825 C824 1.363 . S
C825 C831 1.428 . S
H826 C822 0.930 . S
H827 C824 0.929 . S
S828 N829 1.613 . S
S828 N830 1.610 . S
N829 S828 1.613 . S
N829 C832 1.350 . S
N830 S828 1.610 . S
N830 C831 1.351 . S
C831 C825 1.428 . S
C831 N830 1.351 . S
C831 C832 1.434 . S
C832 C823 1.429 . S
C832 N829 1.350 . S
C832 C831 1.434 . S
C833 C834 1.369 . S
C833 C835 1.419 . S
C833 H837 0.930 . S
C834 C833 1.369 . S
C834 C843 1.429 . S
C835 C833 1.419 . S
C835 C836 1.363 . S
C835 H838 0.929 . S
C836 C835 1.363 . S
C836 C842 1.428 . S
H837 C833 0.930 . S
H838 C835 0.929 . S
S839 N840 1.613 . S
S839 N841 1.610 . S
N840 S839 1.613 . S
N840 C843 1.350 . S
N841 S839 1.610 . S
N841 C842 1.351 . S
C842 C836 1.428 . S
C842 N841 1.351 . S
C842 C843 1.434 . S
C843 C834 1.429 . S
C843 N840 1.350 . S
C843 C842 1.434 . S
C844 C845 1.369 . S
C844 C846 1.419 . S
C844 H848 0.930 . S
C845 C844 1.369 . S
C845 C854 1.429 . S
C846 C844 1.419 . S
C846 C847 1.363 . S
C846 H849 0.929 . S
C847 C846 1.363 . S
C847 C853 1.428 . S
H848 C844 0.930 . S
H849 C846 0.929 . S
S850 N851 1.613 . S
S850 N852 1.610 . S
N851 S850 1.613 . S
N851 C854 1.350 . S
N852 S850 1.610 . S
N852 C853 1.351 . S
C853 C847 1.428 . S
C853 N852 1.351 . S
C853 C854 1.434 . S
C854 C845 1.429 . S
C854 N851 1.350 . S
C854 C853 1.434 . S
C855 C856 1.369 . S
C855 C857 1.419 1_554 S
C855 H859 0.930 1_655 S
C856 C855 1.369 . S
C856 C865 1.429 . S
C857 C855 1.419 1_556 S
C857 C858 1.363 . S
C857 H860 0.929 . S
C858 C857 1.363 . S
C858 C864 1.428 1_556 S
H859 C855 0.930 1_455 S
H860 C857 0.929 . S
S861 N862 1.613 . S
S861 N863 1.610 . S
N862 S861 1.613 . S
N862 C865 1.350 . S
N863 S861 1.610 . S
N863 C864 1.351 . S
C864 C858 1.428 1_554 S
C864 N863 1.351 . S
C864 C865 1.434 . S
C865 C856 1.429 . S
C865 N862 1.350 . S
C865 C864 1.434 . S
C866 C867 1.369 . S
C866 C868 1.419 . S
C866 H870 0.930 . S
C867 C866 1.369 . S
C867 C876 1.429 . S
C868 C866 1.419 . S
C868 C869 1.363 1_554 S
C868 H871 0.929 1_554 S
C869 C868 1.363 1_556 S
C869 C875 1.428 1_556 S
H870 C866 0.930 . S
H871 C868 0.929 1_556 S
S872 N873 1.613 . S
S872 N874 1.610 1_554 S
N873 S872 1.613 . S
N873 C876 1.350 . S
N874 S872 1.610 1_556 S
N874 C875 1.351 1_556 S
C875 C869 1.428 1_554 S
C875 N874 1.351 1_554 S
C875 C876 1.434 . S
C876 C867 1.429 . S
C876 N873 1.350 . S
C876 C875 1.434 . S
C877 C878 1.369 . S
C877 C879 1.419 1_556 S
C877 H881 0.930 . S
C878 C877 1.369 . S
C878 C887 1.429 1_556 S
C879 C877 1.419 1_554 S
C879 C880 1.363 . S
C879 H882 0.929 . S
C880 C879 1.363 . S
C880 C886 1.428 . S
H881 C877 0.930 . S
H882 C879 0.929 . S
S883 N884 1.613 . S
S883 N885 1.610 . S
N884 S883 1.613 . S
N884 C887 1.350 . S
N885 S883 1.610 . S
N885 C886 1.351 . S
C886 C880 1.428 . S
C886 N885 1.351 . S
C886 C887 1.434 . S
C887 C878 1.429 1_554 S
C887 N884 1.350 . S
C887 C886 1.434 . S
C888 C889 1.369 . S
C888 C890 1.419 . S
C888 H892 0.930 1_556 S
C889 C888 1.369 . S
C889 C898 1.429 . S
C890 C888 1.419 . S
C890 C891 1.363 . S
C890 H893 0.929 . S
C891 C890 1.363 . S
C891 C897 1.428 . S
H892 C888 0.930 1_554 S
H893 C890 0.929 . S
S894 N895 1.613 . S
S894 N896 1.610 . S
N895 S894 1.613 . S
N895 C898 1.350 . S
N896 S894 1.610 . S
N896 C897 1.351 . S
C897 C891 1.428 . S
C897 N896 1.351 . S
C897 C898 1.434 . S
C898 C889 1.429 . S
C898 N895 1.350 . S
C898 C897 1.434 . S
C899 C900 1.369 . S
C899 C901 1.419 . S
C899 H903 0.930 . S
C900 C899 1.369 . S
C900 C909 1.429 . S
C901 C899 1.419 . S
C901 C902 1.363 . S
C901 H904 0.929 . S
C902 C901 1.363 . S
C902 C908 1.428 . S
H903 C899 0.930 . S
H904 C901 0.929 . S
S905 N906 1.613 . S
S905 N907 1.610 . S
N906 S905 1.613 . S
N906 C909 1.350 . S
N907 S905 1.610 . S
N907 C908 1.351 . S
C908 C902 1.428 . S
C908 N907 1.351 . S
C908 C909 1.434 . S
C909 C900 1.429 . S
C909 N906 1.350 . S
C909 C908 1.434 . S
C910 C911 1.369 . S
C910 C912 1.419 . S
C910 H914 0.930 . S
C911 C910 1.369 . S
C911 C920 1.429 . S
C912 C910 1.419 . S
C912 C913 1.363 . S
C912 H915 0.937 . S
C913 C912 1.363 . S
C913 C919 1.428 . S
H914 C910 0.930 . S
H915 C912 0.937 . S
S916 N917 1.613 . S
S916 N918 1.610 . S
N917 S916 1.613 . S
N917 C920 1.350 . S
N918 S916 1.610 . S
N918 C919 1.351 . S
C919 C913 1.428 . S
C919 N918 1.351 . S
C919 C920 1.434 . S
C920 C911 1.429 . S
C920 N917 1.350 . S
C920 C919 1.434 . S
C921 C922 1.369 . S
C921 C923 1.419 . S
C921 H925 0.930 . S
C922 C921 1.369 . S
C922 C931 1.429 . S
C923 C921 1.419 . S
C923 C924 1.363 . S
C923 H926 0.929 . S
C924 C923 1.363 . S
C924 C930 1.428 . S
H925 C921 0.930 . S
H926 C923 0.929 . S
S927 N928 1.613 . S
S927 N929 1.610 . S
N928 S927 1.613 . S
N928 C931 1.350 . S
N929 S927 1.610 . S
N929 C930 1.351 . S
C930 C924 1.428 . S
C930 N929 1.351 . S
C930 C931 1.434 . S
C931 C922 1.429 . S
C931 N928 1.350 . S
C931 C930 1.434 . S
C932 C933 1.369 . S
C932 C934 1.419 . S
C932 H936 0.930 . S
C933 C932 1.369 . S
C933 C942 1.429 . S
C934 C932 1.419 . S
C934 C935 1.363 . S
C934 H937 0.929 . S
C935 C934 1.363 . S
C935 C941 1.428 . S
H936 C932 0.930 . S
H937 C934 0.929 . S
S938 N939 1.613 . S
S938 N940 1.610 . S
N939 S938 1.613 . S
N939 C942 1.350 . S
N940 S938 1.610 . S
N940 C941 1.351 . S
C941 C935 1.428 . S
C941 N940 1.351 . S
C941 C942 1.434 . S
C942 C933 1.429 . S
C942 N939 1.350 . S
C942 C941 1.434 . S
C943 C944 1.369 . S
C943 C945 1.419 . S
C943 H947 0.930 . S
C944 C943 1.369 . S
C944 C953 1.429 . S
C945 C943 1.419 . S
C945 C946 1.363 . S
C945 H948 0.929 . S
C946 C945 1.363 . S
C946 C952 1.428 . S
H947 C943 0.930 . S
H948 C945 0.929 . S
S949 N950 1.613 . S
S949 N951 1.610 . S
N950 S949 1.613 . S
N950 C953 1.350 . S
N951 S949 1.610 . S
N951 C952 1.351 . S
C952 C946 1.428 . S
C952 N951 1.351 . S
C952 C953 1.434 . S
C953 C944 1.429 . S
C953 N950 1.350 . S
C953 C952 1.434 . S
C954 C955 1.369 . S
C954 C956 1.419 . S
C954 H958 0.930 . S
C955 C954 1.369 . S
C955 C964 1.429 . S
C956 C954 1.419 . S
C956 C957 1.363 . S
C956 H959 0.929 . S
C957 C956 1.363 . S
C957 C963 1.428 . S
H958 C954 0.930 . S
H959 C956 0.929 . S
S960 N961 1.613 . S
S960 N962 1.610 . S
N961 S960 1.613 . S
N961 C964 1.350 . S
N962 S960 1.610 . S
N962 C963 1.351 . S
C963 C957 1.428 . S
C963 N962 1.351 . S
C963 C964 1.434 . S
C964 C955 1.429 . S
C964 N961 1.350 . S
C964 C963 1.434 . S
C965 C966 1.369 . S
C965 C967 1.419 . S
C965 H969 0.930 . S
C966 C965 1.369 . S
C966 C975 1.429 . S
C967 C965 1.419 . S
C967 C968 1.363 . S
C967 H970 0.929 . S
C968 C967 1.363 . S
C968 C974 1.428 . S
H969 C965 0.930 . S
H970 C967 0.929 . S
S971 N972 1.613 . S
S971 N973 1.610 . S
N972 S971 1.613 . S
N972 C975 1.350 . S
N973 S971 1.610 . S
N973 C974 1.351 . S
C974 C968 1.428 . S
C974 N973 1.351 . S
C974 C975 1.434 . S
C975 C966 1.429 . S
C975 N972 1.350 . S
C975 C974 1.434 . S
C976 C977 1.369 . S
C976 C978 1.419 . S
C976 H980 0.930 . S
C977 C976 1.369 . S
C977 C986 1.429 . S
C978 C976 1.419 . S
C978 C979 1.363 . S
C978 H981 0.929 . S
C979 C978 1.363 . S
C979 C985 1.428 . S
H980 C976 0.930 . S
H981 C978 0.929 . S
S982 N983 1.613 . S
S982 N984 1.610 . S
N983 S982 1.613 . S
N983 C986 1.350 . S
N984 S982 1.610 . S
N984 C985 1.351 . S
C985 C979 1.428 . S
C985 N984 1.351 . S
C985 C986 1.434 . S
C986 C977 1.429 . S
C986 N983 1.350 . S
C986 C985 1.434 . S
C987 C988 1.369 . S
C987 C989 1.419 . S
C987 H991 0.930 . S
C988 C987 1.369 . S
C988 C997 1.429 . S
C989 C987 1.419 . S
C989 C990 1.363 . S
C989 H992 0.929 . S
C990 C989 1.363 . S
C990 C996 1.428 . S
H991 C987 0.930 . S
H992 C989 0.929 . S
S993 N994 1.613 . S
S993 N995 1.610 . S
N994 S993 1.613 . S
N994 C997 1.350 . S
N995 S993 1.610 . S
N995 C996 1.351 . S
C996 C990 1.428 . S
C996 N995 1.351 . S
C996 C997 1.434 . S
C997 C988 1.429 . S
C997 N994 1.350 . S
C997 C996 1.434 . S
C998 C999 1.369 . S
C998 C1000 1.419 . S
C998 H1002 0.930 . S
C999 C998 1.369 . S
C999 C1008 1.429 . S
C1000 C998 1.419 . S
C1000 C1001 1.363 . S
C1000 H1003 0.929 . S
C1001 C1000 1.363 . S
C1001 C1007 1.428 . S
H1002 C998 0.930 . S
H1003 C1000 0.929 . S
S1004 N1005 1.613 . S
S1004 N1006 1.610 . S
N1005 S1004 1.613 . S
N1005 C1008 1.350 . S
N1006 S1004 1.610 . S
N1006 C1007 1.351 . S
C1007 C1001 1.428 . S
C1007 N1006 1.351 . S
C1007 C1008 1.434 . S
C1008 C999 1.429 . S
C1008 N1005 1.350 . S
C1008 C1007 1.434 . S
C1009 C1010 1.369 . S
C1009 C1011 1.419 . S
C1009 H1013 0.930 . S
C1010 C1009 1.369 . S
C1010 C1019 1.429 . S
C1011 C1009 1.419 . S
C1011 C1012 1.363 . S
C1011 H1014 0.929 . S
C1012 C1011 1.363 . S
C1012 C1018 1.428 . S
H1013 C1009 0.930 . S
H1014 C1011 0.929 . S
S1015 N1016 1.613 . S
S1015 N1017 1.610 . S
N1016 S1015 1.613 . S
N1016 C1019 1.350 . S
N1017 S1015 1.610 . S
N1017 C1018 1.351 . S
C1018 C1012 1.428 . S
C1018 N1017 1.351 . S
C1018 C1019 1.434 . S
C1019 C1010 1.429 . S
C1019 N1016 1.350 . S
C1019 C1018 1.434 . S
C1020 C1021 1.369 . S
C1020 C1022 1.419 . S
C1020 H1024 0.930 . S
C1021 C1020 1.369 . S
C1021 C1030 1.429 . S
C1022 C1020 1.419 . S
C1022 C1023 1.363 . S
C1022 H1025 0.929 . S
C1023 C1022 1.363 . S
C1023 C1029 1.428 . S
H1024 C1020 0.930 . S
H1025 C1022 0.929 . S
S1026 N1027 1.613 . S
S1026 N1028 1.610 . S
N1027 S1026 1.613 . S
N1027 C1030 1.350 . S
N1028 S1026 1.610 . S
N1028 C1029 1.351 . S
C1029 C1023 1.428 . S
C1029 N1028 1.351 . S
C1029 C1030 1.434 . S
C1030 C1021 1.429 . S
C1030 N1027 1.350 . S
C1030 C1029 1.434 . S
C1031 C1032 1.369 . S
C1031 C1033 1.419 . S
C1031 H1035 0.930 . S
C1032 C1031 1.369 . S
C1032 C1041 1.429 . S
C1033 C1031 1.419 . S
C1033 C1034 1.363 . S
C1033 H1036 0.929 . S
C1034 C1033 1.363 . S
C1034 C1040 1.428 . S
H1035 C1031 0.930 . S
H1036 C1033 0.929 . S
S1037 N1038 1.613 . S
S1037 N1039 1.610 . S
N1038 S1037 1.613 . S
N1038 C1041 1.350 . S
N1039 S1037 1.610 . S
N1039 C1040 1.351 . S
C1040 C1034 1.428 . S
C1040 N1039 1.351 . S
C1040 C1041 1.434 . S
C1041 C1032 1.429 . S
C1041 N1038 1.350 . S
C1041 C1040 1.434 . S
C1042 C1043 1.369 . S
C1042 C1044 1.419 . S
C1042 H1046 0.930 . S
C1043 C1042 1.369 . S
C1043 C1052 1.429 . S
C1044 C1042 1.419 . S
C1044 C1045 1.363 . S
C1044 H1047 0.929 . S
C1045 C1044 1.363 . S
C1045 C1051 1.428 . S
H1046 C1042 0.930 . S
H1047 C1044 0.929 . S
S1048 N1049 1.613 . S
S1048 N1050 1.610 . S
N1049 S1048 1.613 . S
N1049 C1052 1.350 . S
N1050 S1048 1.610 . S
N1050 C1051 1.351 . S
C1051 C1045 1.428 . S
C1051 N1050 1.351 . S
C1051 C1052 1.434 . S
C1052 C1043 1.429 . S
C1052 N1049 1.350 . S
C1052 C1051 1.434 . S
C1053 C1054 1.369 . S
C1053 C1055 1.419 . S
C1053 H1057 0.930 . S
C1054 C1053 1.369 . S
C1054 C1063 1.429 . S
C1055 C1053 1.419 . S
C1055 C1056 1.363 . S
C1055 H1058 0.929 . S
C1056 C1055 1.363 . S
C1056 C1062 1.428 . S
H1057 C1053 0.930 . S
H1058 C1055 0.929 . S
S1059 N1060 1.613 . S
S1059 N1061 1.610 . S
N1060 S1059 1.613 . S
N1060 C1063 1.350 . S
N1061 S1059 1.610 . S
N1061 C1062 1.351 . S
C1062 C1056 1.428 . S
C1062 N1061 1.351 . S
C1062 C1063 1.434 . S
C1063 C1054 1.429 . S
C1063 N1060 1.350 . S
C1063 C1062 1.434 . S
C1064 C1065 1.369 . S
C1064 C1066 1.419 . S
C1064 H1068 0.930 . S
C1065 C1064 1.369 . S
C1065 C1074 1.429 . S
C1066 C1064 1.419 . S
C1066 C1067 1.363 . S
C1066 H1069 0.929 . S
C1067 C1066 1.363 . S
C1067 C1073 1.428 . S
H1068 C1064 0.930 . S
H1069 C1066 0.929 . S
S1070 N1071 1.613 . S
S1070 N1072 1.610 . S
N1071 S1070 1.613 . S
N1071 C1074 1.350 . S
N1072 S1070 1.610 . S
N1072 C1073 1.351 . S
C1073 C1067 1.428 . S
C1073 N1072 1.351 . S
C1073 C1074 1.434 . S
C1074 C1065 1.429 . S
C1074 N1071 1.350 . S
C1074 C1073 1.434 . S
C1075 C1076 1.369 . S
C1075 C1077 1.419 . S
C1075 H1079 0.930 . S
C1076 C1075 1.369 . S
C1076 C1085 1.429 . S
C1077 C1075 1.419 . S
C1077 C1078 1.363 . S
C1077 H1080 0.929 . S
C1078 C1077 1.363 . S
C1078 C1084 1.428 . S
H1079 C1075 0.930 . S
H1080 C1077 0.929 . S
S1081 N1082 1.613 . S
S1081 N1083 1.610 . S
N1082 S1081 1.613 . S
N1082 C1085 1.350 . S
N1083 S1081 1.610 . S
N1083 C1084 1.351 . S
C1084 C1078 1.428 . S
C1084 N1083 1.351 . S
C1084 C1085 1.434 . S
C1085 C1076 1.429 . S
C1085 N1082 1.350 . S
C1085 C1084 1.434 . S
C1086 C1087 1.369 . S
C1086 C1088 1.419 . S
C1086 H1090 0.930 . S
C1087 C1086 1.369 . S
C1087 C1096 1.429 . S
C1088 C1086 1.419 . S
C1088 C1089 1.363 . S
C1088 H1091 0.929 . S
C1089 C1088 1.363 . S
C1089 C1095 1.428 . S
H1090 C1086 0.930 . S
H1091 C1088 0.929 . S
S1092 N1093 1.613 . S
S1092 N1094 1.610 . S
N1093 S1092 1.613 . S
N1093 C1096 1.350 . S
N1094 S1092 1.610 . S
N1094 C1095 1.351 . S
C1095 C1089 1.428 . S
C1095 N1094 1.351 . S
C1095 C1096 1.434 . S
C1096 C1087 1.429 . S
C1096 N1093 1.350 . S
C1096 C1095 1.434 . S
C1097 C1098 1.369 . S
C1097 C1099 1.419 . S
C1097 H1101 0.930 . S
C1098 C1097 1.369 . S
C1098 C1107 1.429 . S
C1099 C1097 1.419 . S
C1099 C1100 1.363 . S
C1099 H1102 0.929 . S
C1100 C1099 1.363 . S
C1100 C1106 1.428 . S
H1101 C1097 0.930 . S
H1102 C1099 0.929 . S
S1103 N1104 1.613 . S
S1103 N1105 1.610 . S
N1104 S1103 1.613 . S
N1104 C1107 1.350 . S
N1105 S1103 1.610 . S
N1105 C1106 1.351 . S
C1106 C1100 1.428 . S
C1106 N1105 1.351 . S
C1106 C1107 1.434 . S
C1107 C1098 1.429 . S
C1107 N1104 1.350 . S
C1107 C1106 1.434 . S
C1108 C1109 1.369 . S
C1108 C1110 1.419 . S
C1108 H1112 0.930 . S
C1109 C1108 1.369 . S
C1109 C1118 1.429 . S
C1110 C1108 1.419 . S
C1110 C1111 1.363 . S
C1110 H1113 0.929 . S
C1111 C1110 1.363 . S
C1111 C1117 1.428 . S
H1112 C1108 0.930 . S
H1113 C1110 0.929 . S
S1114 N1115 1.613 . S
S1114 N1116 1.610 . S
N1115 S1114 1.613 . S
N1115 C1118 1.350 . S
N1116 S1114 1.610 . S
N1116 C1117 1.351 . S
C1117 C1111 1.428 . S
C1117 N1116 1.351 . S
C1117 C1118 1.434 . S
C1118 C1109 1.429 . S
C1118 N1115 1.350 . S
C1118 C1117 1.434 . S
C1119 C1120 1.369 . S
C1119 C1121 1.419 . S
C1119 H1123 0.930 . S
C1120 C1119 1.369 . S
C1120 C1129 1.429 . S
C1121 C1119 1.419 . S
C1121 C1122 1.363 . S
C1121 H1124 0.929 . S
C1122 C1121 1.363 . S
C1122 C1128 1.428 . S
H1123 C1119 0.930 . S
H1124 C1121 0.929 . S
S1125 N1126 1.613 . S
S1125 N1127 1.610 . S
N1126 S1125 1.613 . S
N1126 C1129 1.350 . S
N1127 S1125 1.610 . S
N1127 C1128 1.351 . S
C1128 C1122 1.428 . S
C1128 N1127 1.351 . S
C1128 C1129 1.434 . S
C1129 C1120 1.429 . S
C1129 N1126 1.350 . S
C1129 C1128 1.434 . S
C1130 C1131 1.369 . S
C1130 C1132 1.419 . S
C1130 H1134 0.930 . S
C1131 C1130 1.369 . S
C1131 C1140 1.429 . S
C1132 C1130 1.419 . S
C1132 C1133 1.363 . S
C1132 H1135 0.929 . S
C1133 C1132 1.363 . S
C1133 C1139 1.428 . S
H1134 C1130 0.930 . S
H1135 C1132 0.929 . S
S1136 N1137 1.613 . S
S1136 N1138 1.610 . S
N1137 S1136 1.613 . S
N1137 C1140 1.350 . S
N1138 S1136 1.610 . S
N1138 C1139 1.351 . S
C1139 C1133 1.428 . S
C1139 N1138 1.351 . S
C1139 C1140 1.434 . S
C1140 C1131 1.429 . S
C1140 N1137 1.350 . S
C1140 C1139 1.434 . S
C1141 C1142 1.369 . S
C1141 C1143 1.419 . S
C1141 H1145 0.930 . S
C1142 C1141 1.369 . S
C1142 C1151 1.429 . S
C1143 C1141 1.419 . S
C1143 C1144 1.363 . S
C1143 H1146 0.929 . S
C1144 C1143 1.363 . S
C1144 C1150 1.428 . S
H1145 C1141 0.930 . S
H1146 C1143 0.929 . S
S1147 N1148 1.613 . S
S1147 N1149 1.610 . S
N1148 S1147 1.613 . S
N1148 C1151 1.350 . S
N1149 S1147 1.610 . S
N1149 C1150 1.351 . S
C1150 C1144 1.428 . S
C1150 N1149 1.351 . S
C1150 C1151 1.434 . S
C1151 C1142 1.429 . S
C1151 N1148 1.350 . S
C1151 C1150 1.434 . S
C1152 C1153 1.369 . S
C1152 C1154 1.419 . S
C1152 H1156 0.930 . S
C1153 C1152 1.369 . S
C1153 C1162 1.429 . S
C1154 C1152 1.419 . S
C1154 C1155 1.363 . S
C1154 H1157 0.929 . S
C1155 C1154 1.363 . S
C1155 C1161 1.428 . S
H1156 C1152 0.930 . S
H1157 C1154 0.929 . S
S1158 N1159 1.613 . S
S1158 N1160 1.610 . S
N1159 S1158 1.613 . S
N1159 C1162 1.350 . S
N1160 S1158 1.610 . S
N1160 C1161 1.351 . S
C1161 C1155 1.428 . S
C1161 N1160 1.351 . S
C1161 C1162 1.434 . S
C1162 C1153 1.429 . S
C1162 N1159 1.350 . S
C1162 C1161 1.434 . S
C1163 C1164 1.369 . S
C1163 C1165 1.419 . S
C1163 H1167 0.930 . S
C1164 C1163 1.369 . S
C1164 C1173 1.429 . S
C1165 C1163 1.419 . S
C1165 C1166 1.363 . S
C1165 H1168 0.929 . S
C1166 C1165 1.363 . S
C1166 C1172 1.428 . S
H1167 C1163 0.930 . S
H1168 C1165 0.929 . S
S1169 N1170 1.613 . S
S1169 N1171 1.610 . S
N1170 S1169 1.613 . S
N1170 C1173 1.350 . S
N1171 S1169 1.610 . S
N1171 C1172 1.351 . S
C1172 C1166 1.428 . S
C1172 N1171 1.351 . S
C1172 C1173 1.434 . S
C1173 C1164 1.429 . S
C1173 N1170 1.350 . S
C1173 C1172 1.434 . S
C1174 C1175 1.369 . S
C1174 C1176 1.419 . S
C1174 H1178 0.930 . S
C1175 C1174 1.369 . S
C1175 C1184 1.429 . S
C1176 C1174 1.419 . S
C1176 C1177 1.363 . S
C1176 H1179 0.929 . S
C1177 C1176 1.363 . S
C1177 C1183 1.428 . S
H1178 C1174 0.930 . S
H1179 C1176 0.929 . S
S1180 N1181 1.613 . S
S1180 N1182 1.610 . S
N1181 S1180 1.613 . S
N1181 C1184 1.350 . S
N1182 S1180 1.610 . S
N1182 C1183 1.351 . S
C1183 C1177 1.428 . S
C1183 N1182 1.351 . S
C1183 C1184 1.434 . S
C1184 C1175 1.429 . S
C1184 N1181 1.350 . S
C1184 C1183 1.434 . S
C1185 C1186 1.369 . S
C1185 C1187 1.419 . S
C1185 H1189 0.920 1_556 S
C1186 C1185 1.369 . S
C1186 C1195 1.429 . S
C1187 C1185 1.419 . S
C1187 C1188 1.363 . S
C1187 H1190 0.929 . S
C1188 C1187 1.363 . S
C1188 C1194 1.428 . S
H1189 C1185 0.920 1_554 S
H1190 C1187 0.929 . S
S1191 N1192 1.613 . S
S1191 N1193 1.610 . S
N1192 S1191 1.613 . S
N1192 C1195 1.350 . S
N1193 S1191 1.610 . S
N1193 C1194 1.351 . S
C1194 C1188 1.428 . S
C1194 N1193 1.351 . S
C1194 C1195 1.434 . S
C1195 C1186 1.429 . S
C1195 N1192 1.350 . S
C1195 C1194 1.434 . S
C1196 C1197 1.369 . S
C1196 C1198 1.419 . S
C1196 H1200 0.930 . S
C1197 C1196 1.369 . S
C1197 C1206 1.429 . S
C1198 C1196 1.419 . S
C1198 C1199 1.363 . S
C1198 H1201 0.929 . S
C1199 C1198 1.363 . S
C1199 C1205 1.428 . S
H1200 C1196 0.930 . S
H1201 C1198 0.929 . S
S1202 N1203 1.613 . S
S1202 N1204 1.610 . S
N1203 S1202 1.613 . S
N1203 C1206 1.350 . S
N1204 S1202 1.610 . S
N1204 C1205 1.351 . S
C1205 C1199 1.428 . S
C1205 N1204 1.351 . S
C1205 C1206 1.434 . S
C1206 C1197 1.429 . S
C1206 N1203 1.350 . S
C1206 C1205 1.434 . S
C1207 C1208 1.369 . S
C1207 C1209 1.419 . S
C1207 H1211 0.930 . S
C1208 C1207 1.369 . S
C1208 C1217 1.429 . S
C1209 C1207 1.419 . S
C1209 C1210 1.363 . S
C1209 H1212 0.929 . S
C1210 C1209 1.363 . S
C1210 C1216 1.428 . S
H1211 C1207 0.930 . S
H1212 C1209 0.929 . S
S1213 N1214 1.613 . S
S1213 N1215 1.610 1_556 S
N1214 S1213 1.613 . S
N1214 C1217 1.350 . S
N1215 S1213 1.610 1_554 S
N1215 C1216 1.351 1_554 S
C1216 C1210 1.428 . S
C1216 N1215 1.351 1_556 S
C1216 C1217 1.434 . S
C1217 C1208 1.429 . S
C1217 N1214 1.350 . S
C1217 C1216 1.434 . S
C1218 C1219 1.369 . S
C1218 C1220 1.419 . S
C1218 H1222 0.930 . S
C1219 C1218 1.369 . S
C1219 C1228 1.429 . S
C1220 C1218 1.419 . S
C1220 C1221 1.363 . S
C1220 H1223 0.929 . S
C1221 C1220 1.363 . S
C1221 C1227 1.428 . S
H1222 C1218 0.930 . S
H1223 C1220 0.929 . S
S1224 N1225 1.613 . S
S1224 N1226 1.610 . S
N1225 S1224 1.613 . S
N1225 C1228 1.350 . S
N1226 S1224 1.610 . S
N1226 C1227 1.351 . S
C1227 C1221 1.428 . S
C1227 N1226 1.351 . S
C1227 C1228 1.434 . S
C1228 C1219 1.429 . S
C1228 N1225 1.350 . S
C1228 C1227 1.434 . S
C1229 C1230 1.369 . S
C1229 C1231 1.419 . S
C1229 H1233 0.930 . S
C1230 C1229 1.369 . S
C1230 C1239 1.429 . S
C1231 C1229 1.419 . S
C1231 C1232 1.363 . S
C1231 H1234 0.929 . S
C1232 C1231 1.363 . S
C1232 C1238 1.428 . S
H1233 C1229 0.930 . S
H1234 C1231 0.929 . S
S1235 N1236 1.613 . S
S1235 N1237 1.610 . S
N1236 S1235 1.613 . S
N1236 C1239 1.350 . S
N1237 S1235 1.610 . S
N1237 C1238 1.351 . S
C1238 C1232 1.428 . S
C1238 N1237 1.351 . S
C1238 C1239 1.434 . S
C1239 C1230 1.429 . S
C1239 N1236 1.350 . S
C1239 C1238 1.434 . S
C1240 C1241 1.369 . S
C1240 C1242 1.419 . S
C1240 H1244 0.930 . S
C1241 C1240 1.369 . S
C1241 C1250 1.429 . S
C1242 C1240 1.419 . S
C1242 C1243 1.363 . S
C1242 H1245 0.929 . S
C1243 C1242 1.363 . S
C1243 C1249 1.428 . S
H1244 C1240 0.930 . S
H1245 C1242 0.929 . S
S1246 N1247 1.613 . S
S1246 N1248 1.610 . S
N1247 S1246 1.613 . S
N1247 C1250 1.350 . S
N1248 S1246 1.610 . S
N1248 C1249 1.351 . S
C1249 C1243 1.428 . S
C1249 N1248 1.351 . S
C1249 C1250 1.434 . S
C1250 C1241 1.429 . S
C1250 N1247 1.350 . S
C1250 C1249 1.434 . S
C1251 C1252 1.369 . S
C1251 C1253 1.419 . S
C1251 H1255 0.930 . S
C1252 C1251 1.369 . S
C1252 C1261 1.429 . S
C1253 C1251 1.419 . S
C1253 C1254 1.363 . S
C1253 H1256 0.929 1_554 S
C1254 C1253 1.363 . S
C1254 C1260 1.428 . S
H1255 C1251 0.930 . S
H1256 C1253 0.929 1_556 S
S1257 N1258 1.613 . S
S1257 N1259 1.610 . S
N1258 S1257 1.613 . S
N1258 C1261 1.350 . S
N1259 S1257 1.610 . S
N1259 C1260 1.351 . S
C1260 C1254 1.428 . S
C1260 N1259 1.351 . S
C1260 C1261 1.434 . S
C1261 C1252 1.429 . S
C1261 N1258 1.350 . S
C1261 C1260 1.434 . S
C1262 C1263 1.369 . S
C1262 C1264 1.419 . S
C1262 H1266 0.930 . S
C1263 C1262 1.369 . S
C1263 C1272 1.429 . S
C1264 C1262 1.419 . S
C1264 C1265 1.363 . S
C1264 H1267 0.929 . S
C1265 C1264 1.363 . S
C1265 C1271 1.428 . S
H1266 C1262 0.930 . S
H1267 C1264 0.929 . S
S1268 N1269 1.613 1_554 S
S1268 N1270 1.610 . S
N1269 S1268 1.613 1_556 S
N1269 C1272 1.350 1_556 S
N1270 S1268 1.610 . S
N1270 C1271 1.351 . S
C1271 C1265 1.428 . S
C1271 N1270 1.351 . S
C1271 C1272 1.434 . S
C1272 C1263 1.429 . S
C1272 N1269 1.350 1_554 S
C1272 C1271 1.434 . S
C1273 C1274 1.369 . S
C1273 C1275 1.419 . S
C1273 H1277 0.930 1_554 S
C1274 C1273 1.369 . S
C1274 C1283 1.429 . S
C1275 C1273 1.419 . S
C1275 C1276 1.363 . S
C1275 H1278 0.929 . S
C1276 C1275 1.363 . S
C1276 C1282 1.428 . S
H1277 C1273 0.930 1_556 S
H1278 C1275 0.929 . S
S1279 N1280 1.613 . S
S1279 N1281 1.610 . S
N1280 S1279 1.613 . S
N1280 C1283 1.350 . S
N1281 S1279 1.610 . S
N1281 C1282 1.351 . S
C1282 C1276 1.428 . S
C1282 N1281 1.351 . S
C1282 C1283 1.434 . S
C1283 C1274 1.429 . S
C1283 N1280 1.350 . S
C1283 C1282 1.434 . S
C1284 C1285 1.369 . S
C1284 C1286 1.419 . S
C1284 H1288 0.930 . S
C1285 C1284 1.369 . S
C1285 C1294 1.429 . S
C1286 C1284 1.419 . S
C1286 C1287 1.363 . S
C1286 H1289 0.929 . S
C1287 C1286 1.363 . S
C1287 C1293 1.428 . S
H1288 C1284 0.930 . S
H1289 C1286 0.929 . S
S1290 N1291 1.613 . S
S1290 N1292 1.610 . S
N1291 S1290 1.613 . S
N1291 C1294 1.350 . S
N1292 S1290 1.610 . S
N1292 C1293 1.351 . S
C1293 C1287 1.428 . S
C1293 N1292 1.351 . S
C1293 C1294 1.434 . S
C1294 C1285 1.429 . S
C1294 N1291 1.350 . S
C1294 C1293 1.434 . S
C1295 C1296 1.369 . S
C1295 C1297 1.419 1_545 S
C1295 H1299 0.930 . S
C1296 C1295 1.369 . S
C1296 C1305 1.429 1_545 S
C1297 C1295 1.419 1_565 S
C1297 C1298 1.363 . S
C1297 H1300 0.929 1_565 S
C1298 C1297 1.363 . S
C1298 C1304 1.428 . S
H1299 C1295 0.930 . S
H1300 C1297 0.929 1_545 S
S1301 N1302 1.613 . S
S1301 N1303 1.610 . S
N1302 S1301 1.613 . S
N1302 C1305 1.350 . S
N1303 S1301 1.610 . S
N1303 C1304 1.351 . S
C1304 C1298 1.428 . S
C1304 N1303 1.351 . S
C1304 C1305 1.434 . S
C1305 C1296 1.429 1_565 S
C1305 N1302 1.350 . S
C1305 C1304 1.434 . S
C1306 C1307 1.369 . S
C1306 C1308 1.419 1_455 S
C1306 H1310 0.930 . S
C1307 C1306 1.369 . S
C1307 C1316 1.429 . S
C1308 C1306 1.419 1_655 S
C1308 C1309 1.363 . S
C1308 H1311 0.929 . S
C1309 C1308 1.363 . S
C1309 C1315 1.428 . S
H1310 C1306 0.930 . S
H1311 C1308 0.929 . S
S1312 N1313 1.613 . S
S1312 N1314 1.610 1_455 S
N1313 S1312 1.613 . S
N1313 C1316 1.350 . S
N1314 S1312 1.610 1_655 S
N1314 C1315 1.351 . S
C1315 C1309 1.428 . S
C1315 N1314 1.351 . S
C1315 C1316 1.434 1_655 S
C1316 C1307 1.429 . S
C1316 N1313 1.350 . S
C1316 C1315 1.434 1_455 S
C1317 C1318 1.369 . S
C1317 C1319 1.419 . S
C1317 H1321 0.930 . S
C1318 C1317 1.369 . S
C1318 C1327 1.429 . S
C1319 C1317 1.419 . S
C1319 C1320 1.363 . S
C1319 H1322 0.929 . S
C1320 C1319 1.363 . S
C1320 C1326 1.428 . S
H1321 C1317 0.930 . S
H1322 C1319 0.929 . S
S1323 N1324 1.613 . S
S1323 N1325 1.610 . S
N1324 S1323 1.613 . S
N1324 C1327 1.350 . S
N1325 S1323 1.610 . S
N1325 C1326 1.351 . S
C1326 C1320 1.428 . S
C1326 N1325 1.351 . S
C1326 C1327 1.434 . S
C1327 C1318 1.429 . S
C1327 N1324 1.350 . S
C1327 C1326 1.434 . S
C1328 C1329 1.369 1_565 S
C1328 C1330 1.419 . S
C1328 H1332 0.930 . S
C1329 C1328 1.369 1_545 S
C1329 C1338 1.429 . S
C1330 C1328 1.419 . S
C1330 C1331 1.363 . S
C1330 H1333 0.929 . S
C1331 C1330 1.363 . S
C1331 C1337 1.428 1_565 S
H1332 C1328 0.930 . S
H1333 C1330 0.929 . S
S1334 N1335 1.613 . S
S1334 N1336 1.610 . S
N1335 S1334 1.613 . S
N1335 C1338 1.350 . S
N1336 S1334 1.610 . S
N1336 C1337 1.351 . S
C1337 C1331 1.428 1_545 S
C1337 N1336 1.351 . S
C1337 C1338 1.434 . S
C1338 C1329 1.429 . S
C1338 N1335 1.350 . S
C1338 C1337 1.434 . S
C1339 C1340 1.369 . S
C1339 C1341 1.419 . S
C1339 H1343 0.930 . S
C1340 C1339 1.369 . S
C1340 C1349 1.429 . S
C1341 C1339 1.419 . S
C1341 C1342 1.363 . S
C1341 H1344 0.929 . S
C1342 C1341 1.363 . S
C1342 C1348 1.428 . S
H1343 C1339 0.930 . S
H1344 C1341 0.929 . S
S1345 N1346 1.613 1_455 S
S1345 N1347 1.610 . S
N1346 S1345 1.613 1_655 S
N1346 C1349 1.350 1_655 S
N1347 S1345 1.610 . S
N1347 C1348 1.351 . S
C1348 C1342 1.428 . S
C1348 N1347 1.351 . S
C1348 C1349 1.434 . S
C1349 C1340 1.429 . S
C1349 N1346 1.350 1_455 S
C1349 C1348 1.434 . S
C559 C51 1.024 . S
C561 C1 1.013 . S
C570 C41 1.412 . S
C572 C72 1.422 . S
C581 C82 1.163 1_455 S
C583 C30 1.052 . S
C592 C144 0.934 . S
C594 C113 0.936 . S
C603 C165 1.355 . S
C605 C134 1.329 . S
C614 C175 1.220 . S
C616 C103 1.100 . S
C625 C206 1.314 . S
C627 C227 1.215 . S
C636 C237 1.382 . S
C638 C258 1.243 . S
C647 C196 1.241 . S
C649 C268 1.362 . S
C658 C309 1.237 . S
C660 C311 1.337 . S
C669 C361 1.399 . S
C671 C340 1.257 . S
C680 C351 1.214 . S
C682 C280 1.340 . S
C691 C373 1.118 . S
C693 C404 1.117 . S
C702 C433 1.589 . S
C704 C444 1.617 . S
C713 C454 1.470 . S
C715 C402 1.338 . S
C724 C497 1.242 . S
C726 C466 1.228 . S
C735 C526 1.681 . S
C737 C537 1.701 . S
C746 C547 1.404 . S
C748 C495 1.267 . S
C757 C0 1.197 . S
C759 C157 1.231 . S
C768 C61 1.206 . S
C770 C95 1.280 . S
C779 C81 1.286 . S
C781 C153 1.197 . S
C790 C50 1.321 . S
C792 C184 1.266 1_556 S
C801 C122 1.160 1_556 S
C803 C92 1.198 . S
C812 C10 1.102 . S
C814 C126 1.153 . S
C823 C64 1.234 . S
C825 C112 1.209 . S
C834 C154 1.114 . S
C836 C29 1.161 . S
C845 C174 1.296 . S
C847 C60 1.220 . S
C856 C143 1.278 . S
C858 C91 1.226 . S
C867 C185 1.238 . S
C869 C2 1.185 . S
C878 C33 1.271 . S
C880 C123 1.198 . S
C889 C205 1.248 . S
C891 C370 1.157 . S
C900 C281 1.184 . S
C902 C236 1.241 . S
C911 C312 1.333 . S
C913 C267 1.436 . S
C922 C247 1.309 . S
C924 C343 1.386 . S
C933 C308 1.367 . S
C935 C278 1.280 . S
C944 C339 1.151 . S
C946 C216 1.109 . S
C955 C289 1.157 . S
C957 C250 1.227 . S
C966 C188 1.202 . S
C968 C320 1.139 . S
C977 C219 1.426 . S
C979 C371 1.340 . S
C988 C277 1.304 . S
C990 C310 1.381 . S
C999 C360 1.384 . S
C1001 C215 1.321 . S
C1010 C279 1.201 . S
C1012 C246 1.123 . S
C1021 C372 1.343 . S
C1023 C529 1.385 . S
C1032 C413 1.235 . S
C1034 C494 1.301 . S
C1043 C498 1.346 . S
C1045 C453 1.422 . S
C1054 C403 1.325 . S
C1056 C556 1.273 . S
C1065 C464 1.300 . S
C1067 C467 1.247 . S
C1076 C525 1.346 . S
C1078 C382 1.277 . S
C1087 C465 1.276 . S
C1089 C436 1.305 . S
C1098 C506 1.298 . S
C1100 C401 1.364 . S
C1109 C546 1.329 . S
C1111 C405 1.253 . S
C1120 C496 1.456 . S
C1122 C463 1.397 . S
C1131 C557 1.320 . S
C1133 C374 1.286 . S
C1142 C475 1.239 . S
C1144 C432 1.300 . S
C1153 C20 1.656 . S
C1155 C423 1.676 . S
C1164 C31 2.305 . S
C1166 C434 2.301 . S
C1175 C391 2.151 . S
C1177 C63 1.805 . S
C1186 C187 1.688 1_556 S
C1188 C32 1.645 . S
C1197 C218 1.804 1_556 S
C1199 C62 2.169 . S
C1208 C19 2.083 . S
C1210 C249 1.675 1_556 S
C1219 C94 1.571 . S
C1221 C330 1.563 . S
C1230 C124 2.043 1_655 S
C1232 C342 1.637 . S
C1241 C299 1.727 . S
C1243 C156 1.661 . S
C1252 C125 1.698 . S
C1254 C485 1.665 1_554 S
C1263 C515 2.316 1_554 S
C1265 C155 2.309 . S
C1274 C528 1.775 1_554 S
C1276 C93 2.131 . S
C1285 C217 2.306 . S
C1287 C392 2.031 . S
C1296 C248 2.387 . S
C1298 C422 2.381 . S
C1307 C435 2.008 . S
C1309 C186 2.322 . S
C1318 C298 2.359 . S
C1320 C516 2.062 . S
C1329 C329 2.465 . S
C1331 C527 2.473 . S
C1340 C341 2.496 1_455 S
C1342 C484 2.479 . S
