# Generated by pormake.
# Topology umg, (4)-cn, num edge types: 1
# Building blocks:
#     Node 0, Type 0, BuildingBlock: ICAMEG_clean_sbu_1, # of connection points: 4
#     Node 1, Type 0, BuildingBlock: ICAMEG_clean_sbu_1, # of connection points: 4
#     Node 2, Type 0, BuildingBlock: ICAMEG_clean_sbu_1, # of connection points: 4
#     Node 3, Type 0, BuildingBlock: ICAMEG_clean_sbu_1, # of connection points: 4
#     Node 4, Type 0, BuildingBlock: ICAMEG_clean_sbu_1, # of connection points: 4
#     Node 5, Type 0, BuildingBlock: ICAMEG_clean_sbu_1, # of connection points: 4
#     Node 6, Type 0, BuildingBlock: ICAMEG_clean_sbu_1, # of connection points: 4
#     Node 7, Type 0, BuildingBlock: ICAMEG_clean_sbu_1, # of connection points: 4
#     Node 8, Type 0, BuildingBlock: ICAMEG_clean_sbu_1, # of connection points: 4
#     Node 9, Type 0, BuildingBlock: ICAMEG_clean_sbu_1, # of connection points: 4
#     Node 10, Type 0, BuildingBlock: ICAMEG_clean_sbu_1, # of connection points: 4
#     Node 11, Type 0, BuildingBlock: ICAMEG_clean_sbu_1, # of connection points: 4
#     Edge 12, Type (0, 0), BuildingBlock: TEMPAE_clean_linker_10, # of connection points: 2
#     Edge 13, Type (0, 0), BuildingBlock: TEMPAE_clean_linker_10, # of connection points: 2
#     Edge 14, Type (0, 0), BuildingBlock: TEMPAE_clean_linker_10, # of connection points: 2
#     Edge 15, Type (0, 0), BuildingBlock: TEMPAE_clean_linker_10, # of connection points: 2
#     Edge 16, Type (0, 0), BuildingBlock: TEMPAE_clean_linker_10, # of connection points: 2
#     Edge 17, Type (0, 0), BuildingBlock: TEMPAE_clean_linker_10, # of connection points: 2
#     Edge 18, Type (0, 0), BuildingBlock: TEMPAE_clean_linker_10, # of connection points: 2
#     Edge 19, Type (0, 0), BuildingBlock: TEMPAE_clean_linker_10, # of connection points: 2
#     Edge 20, Type (0, 0), BuildingBlock: TEMPAE_clean_linker_10, # of connection points: 2
#     Edge 21, Type (0, 0), BuildingBlock: TEMPAE_clean_linker_10, # of connection points: 2
#     Edge 22, Type (0, 0), BuildingBlock: TEMPAE_clean_linker_10, # of connection points: 2
#     Edge 23, Type (0, 0), BuildingBlock: TEMPAE_clean_linker_10, # of connection points: 2
#     Edge 24, Type (0, 0), BuildingBlock: TEMPAE_clean_linker_10, # of connection points: 2
#     Edge 25, Type (0, 0), BuildingBlock: TEMPAE_clean_linker_10, # of connection points: 2
#     Edge 26, Type (0, 0), BuildingBlock: TEMPAE_clean_linker_10, # of connection points: 2
#     Edge 27, Type (0, 0), BuildingBlock: TEMPAE_clean_linker_10, # of connection points: 2
#     Edge 28, Type (0, 0), BuildingBlock: TEMPAE_clean_linker_10, # of connection points: 2
#     Edge 29, Type (0, 0), BuildingBlock: TEMPAE_clean_linker_10, # of connection points: 2
#     Edge 30, Type (0, 0), BuildingBlock: TEMPAE_clean_linker_10, # of connection points: 2
#     Edge 31, Type (0, 0), BuildingBlock: TEMPAE_clean_linker_10, # of connection points: 2
#     Edge 32, Type (0, 0), BuildingBlock: TEMPAE_clean_linker_10, # of connection points: 2
#     Edge 33, Type (0, 0), BuildingBlock: TEMPAE_clean_linker_10, # of connection points: 2
#     Edge 34, Type (0, 0), BuildingBlock: TEMPAE_clean_linker_10, # of connection points: 2
#     Edge 35, Type (0, 0), BuildingBlock: TEMPAE_clean_linker_10, # of connection points: 2
# Relax obj value: 0.059
# Max RMSD: 0.148
# Mean RMSD: 0.148
data_MOF--net-umg--node1-ICAMEG_clean_sbu_1--edge1-TEMPAE_clean_linker_10
_symmetry_space_group_name_H-M    P1
_symmetry_Int_Tables_number       1
_symmetry_cell_setting            triclinic
loop_
_symmetry_equiv_pos_as_xyz
'x, y, z'
_cell_length_a     30.720746
_cell_length_b     30.729219
_cell_length_c     92.568169
_cell_angle_alpha  90.004936
_cell_angle_beta   90.006864
_cell_angle_gamma 119.96298
loop_
_atom_site_label
_atom_site_type_symbol
_atom_site_fract_x
_atom_site_fract_y
_atom_site_fract_z
_atom_type_partial_charge
Co0 Co 0.28986 0.62195 0.08296 0.0
Co1 Co 0.25111 0.5018 0.09529 0.0
O2 O 0.29158 0.55948 0.08292 0.0
C3 C 0.26279 0.58395 0.05323 0.0
O4 O 0.22844 0.54146 0.05894 0.0
C5 C 0.35607 0.53291 0.10167 0.0
O6 O 0.36415 0.57904 0.10182 0.0
O7 O 0.26602 0.54524 0.11256 0.0
O8 O 0.28924 0.62312 0.10461 0.0
H9 H 0.12145 0.40358 0.13315 0.0
H10 H 0.36852 0.61486 0.06623 0.0
O11 O 0.29067 0.62126 0.0613 0.0
H12 H 0.46042 0.75245 0.10106 0.0
H13 H 0.33896 0.79473 0.06467 0.0
H14 H 0.2346 0.66163 0.09952 0.0
H15 H 0.36779 0.70722 0.10025 0.0
H16 H 0.34117 0.71557 0.06538 0.0
O17 O 0.31212 0.49602 0.09939 0.0
H18 H 0.17203 0.47644 0.11739 0.0
H19 H 0.24598 0.40329 0.09959 0.0
H20 H 0.23151 0.74033 0.09926 0.0
H21 H 0.46114 0.65957 0.06652 0.0
H22 H 0.28397 0.80755 0.08174 0.0
H23 H 0.50772 0.72872 0.08408 0.0
O24 O 0.21499 0.58478 0.0828 0.0
H25 H 0.29384 0.44219 0.04976 0.0
H26 H 0.15716 0.41875 0.08251 0.0
H27 H 0.13703 0.36638 0.06061 0.0
H28 H 0.20566 0.37797 0.04406 0.0
H29 H 0.31224 0.49392 0.07173 0.0
H30 H 0.19648 0.32972 0.11524 0.0
H31 H 0.13355 0.32951 0.13214 0.0
O32 O 0.19017 0.50744 0.09154 0.0
C33 C 0.27935 0.59122 0.11472 0.0
C34 C 0.14863 0.40313 0.1258 0.0
C35 C 0.1908 0.36172 0.11577 0.0
N36 N 0.2116 0.44392 0.10751 0.0
C37 C 0.17726 0.44422 0.11682 0.0
C38 C 0.21878 0.4035 0.10695 0.0
C39 C 0.15548 0.36162 0.12524 0.0
C40 C 0.38851 0.6453 0.07379 0.0
N41 N 0.36276 0.6585 0.08319 0.0
C42 C 0.44097 0.67035 0.07394 0.0
C43 C 0.46707 0.70908 0.08382 0.0
C44 C 0.44055 0.72237 0.09336 0.0
C45 C 0.3881 0.69651 0.09289 0.0
C46 C 0.31601 0.76576 0.07238 0.0
C47 C 0.25778 0.69086 0.09194 0.0
C48 C 0.31703 0.72085 0.07281 0.0
N49 N 0.28837 0.68426 0.08257 0.0
C50 C 0.25575 0.73527 0.09181 0.0
C51 C 0.28516 0.77294 0.08196 0.0
C52 C 0.18099 0.54096 0.08672 0.0
C53 C 0.26363 0.43666 0.05691 0.0
C54 C 0.18722 0.42396 0.07537 0.0
C55 C 0.17561 0.39418 0.06299 0.0
C56 C 0.21414 0.40069 0.05371 0.0
N57 N 0.23587 0.45909 0.07844 0.0
C58 C 0.27385 0.46569 0.0694 0.0
Co59 Co 0.65727 0.28315 0.4161 0.0
Co60 Co 0.74568 0.2535 0.42804 0.0
O61 O 0.72386 0.29003 0.41556 0.0
C62 C 0.6693 0.26049 0.38601 0.0
O63 O 0.67892 0.2265 0.39126 0.0
C64 C 0.81917 0.3599 0.43235 0.0
O65 O 0.78094 0.36767 0.43289 0.0
O66 O 0.72121 0.27243 0.4454 0.0
O67 O 0.6555 0.27976 0.43776 0.0
H68 H 0.72708 0.13492 0.46803 0.0
H69 H 0.73877 0.36731 0.39963 0.0
O70 O 0.6585 0.28647 0.39446 0.0
H71 H 0.68574 0.44731 0.43645 0.0
H72 H 0.52468 0.32238 0.39943 0.0
H73 H 0.56328 0.22026 0.43247 0.0
H74 H 0.6443 0.35501 0.43476 0.0
H75 H 0.60897 0.331 0.39961 0.0
O76 O 0.81236 0.3159 0.43045 0.0
H77 H 0.69939 0.18062 0.45201 0.0
H78 H 0.84104 0.25105 0.43091 0.0
H79 H 0.47862 0.21068 0.43273 0.0
H80 H 0.78083 0.4597 0.40084 0.0
H81 H 0.4589 0.262 0.41613 0.0
H82 H 0.75448 0.5003 0.41939 0.0
O83 O 0.62462 0.20882 0.41526 0.0
H84 H 0.83617 0.28718 0.38058 0.0
H85 H 0.73444 0.15759 0.41661 0.0
H86 H 0.76205 0.1334 0.39452 0.0
H87 H 0.81329 0.19845 0.37632 0.0
H88 H 0.80754 0.30967 0.40279 0.0
H89 H 0.87049 0.20649 0.44679 0.0
H90 H 0.81322 0.14775 0.46546 0.0
O91 O 0.67926 0.19053 0.42599 0.0
C92 C 0.6837 0.27849 0.44769 0.0
C93 C 0.75232 0.16025 0.4599 0.0
C94 C 0.83283 0.20047 0.44798 0.0
N95 N 0.76838 0.218 0.44045 0.0
C96 C 0.73678 0.18608 0.45077 0.0
C97 C 0.81599 0.22565 0.43904 0.0
C98 C 0.80067 0.16751 0.45846 0.0
C99 C 0.72664 0.38466 0.40761 0.0
N100 N 0.68893 0.35577 0.41706 0.0
C101 C 0.75079 0.43702 0.4083 0.0
C102 C 0.73605 0.45977 0.41873 0.0
C103 C 0.69752 0.43006 0.42831 0.0
C104 C 0.67428 0.37781 0.42732 0.0
C105 C 0.53286 0.2999 0.40674 0.0
C106 C 0.55507 0.24296 0.42528 0.0
C107 C 0.58048 0.30457 0.40687 0.0
N108 N 0.59112 0.27652 0.41614 0.0
C109 C 0.50703 0.23726 0.42545 0.0
C110 C 0.49597 0.26602 0.41612 0.0
C111 C 0.63661 0.17764 0.42033 0.0
C112 C 0.81402 0.25853 0.38846 0.0
C113 C 0.75677 0.18611 0.40875 0.0
C114 C 0.77234 0.1722 0.39627 0.0
C115 C 0.8011 0.20873 0.38606 0.0
N116 N 0.76965 0.23506 0.41103 0.0
C117 C 0.79789 0.27108 0.40108 0.0
Co118 Co 0.3743 0.66713 0.75023 0.0
Co119 Co 0.49859 0.74815 0.75894 0.0
O120 O 0.43739 0.72989 0.74827 0.0
C121 C 0.40422 0.67013 0.71994 0.0
O122 O 0.44742 0.6779 0.72499 0.0
C123 C 0.47293 0.82542 0.76668 0.0
O124 O 0.42799 0.78831 0.76986 0.0
O125 O 0.46087 0.72369 0.77749 0.0
O126 O 0.37963 0.67147 0.77173 0.0
H127 H 0.60763 0.72182 0.79421 0.0
H128 H 0.38058 0.75057 0.73247 0.0
O129 O 0.36902 0.66311 0.7286 0.0
H130 H 0.25336 0.71804 0.7698 0.0
H131 H 0.19567 0.54358 0.73652 0.0
H132 H 0.33651 0.577 0.76891 0.0
H133 H 0.29492 0.66711 0.76873 0.0
H134 H 0.27635 0.62309 0.73475 0.0
O135 O 0.50701 0.81641 0.76231 0.0
H136 H 0.53002 0.69779 0.78048 0.0
H137 H 0.59899 0.84088 0.76023 0.0
H138 H 0.25639 0.49719 0.77114 0.0
H139 H 0.33965 0.80209 0.73305 0.0
H140 H 0.18528 0.48008 0.75486 0.0
H141 H 0.27567 0.78609 0.75186 0.0
O142 O 0.40913 0.62695 0.7502 0.0
H143 H 0.54288 0.83931 0.7114 0.0
H144 H 0.57596 0.73255 0.74416 0.0
H145 H 0.62002 0.7584 0.72076 0.0
H146 H 0.60354 0.81214 0.70419 0.0
H147 H 0.49939 0.81233 0.73486 0.0
H148 H 0.6773 0.86661 0.7738 0.0
H149 H 0.68198 0.80678 0.7909 0.0
O150 O 0.49048 0.68042 0.75559 0.0
C151 C 0.41504 0.69389 0.78091 0.0
C152 C 0.6061 0.74817 0.78676 0.0
C153 C 0.64518 0.82946 0.77532 0.0
N154 N 0.56014 0.76779 0.76951 0.0
C155 C 0.56231 0.73473 0.77893 0.0
C156 C 0.60073 0.81474 0.76769 0.0
C157 C 0.64779 0.79586 0.78491 0.0
C158 C 0.35245 0.74306 0.74061 0.0
N159 N 0.34005 0.70576 0.75054 0.0
C160 C 0.32953 0.77249 0.74092 0.0
C161 C 0.29369 0.76353 0.75148 0.0
C162 C 0.28118 0.72538 0.76156 0.0
C163 C 0.30492 0.69675 0.76093 0.0
C164 C 0.22636 0.55063 0.74369 0.0
C165 C 0.30563 0.56994 0.76185 0.0
C166 C 0.27214 0.59551 0.74271 0.0
N167 N 0.31092 0.60477 0.75179 0.0
C168 C 0.26041 0.52462 0.76313 0.0
C169 C 0.22054 0.51503 0.75399 0.0
C170 C 0.45411 0.63685 0.75257 0.0
C171 C 0.55052 0.81605 0.71855 0.0
C172 C 0.56867 0.75603 0.73703 0.0
C173 C 0.59376 0.77057 0.72379 0.0
C174 C 0.5845 0.80073 0.7145 0.0
N175 N 0.53539 0.7712 0.74092 0.0
C176 C 0.52618 0.80084 0.73188 0.0
Co177 Co 0.71174 0.38064 0.08276 0.0
Co178 Co 0.75093 0.50036 0.09558 0.0
O179 O 0.71028 0.44322 0.08304 0.0
C180 C 0.73875 0.41983 0.05313 0.0
O181 O 0.77339 0.462 0.05893 0.0
C182 C 0.64604 0.46919 0.10205 0.0
O183 O 0.63786 0.42304 0.10203 0.0
O184 O 0.73606 0.4562 0.11268 0.0
O185 O 0.71234 0.37851 0.1044 0.0
H186 H 0.88097 0.59699 0.13352 0.0
H187 H 0.63318 0.38872 0.06627 0.0
O188 O 0.71085 0.38227 0.06111 0.0
H189 H 0.54108 0.2497 0.10065 0.0
H190 H 0.66205 0.20855 0.06373 0.0
H191 H 0.76678 0.33995 0.09898 0.0
H192 H 0.6337 0.29478 0.09984 0.0
H193 H 0.66012 0.2878 0.06486 0.0
O194 O 0.69001 0.50613 0.09985 0.0
H195 H 0.83021 0.5248 0.11754 0.0
H196 H 0.75622 0.59875 0.10034 0.0
H197 H 0.76961 0.26112 0.09831 0.0
H198 H 0.54056 0.34415 0.06656 0.0
H199 H 0.71695 0.19476 0.08058 0.0
H200 H 0.49389 0.27429 0.0839 0.0
O201 O 0.78663 0.41761 0.0826 0.0
H202 H 0.70824 0.56205 0.05045 0.0
H203 H 0.84492 0.58375 0.08295 0.0
H204 H 0.86508 0.63707 0.06126 0.0
H205 H 0.79645 0.62636 0.04484 0.0
H206 H 0.6898 0.50937 0.07221 0.0
H207 H 0.80591 0.67167 0.1162 0.0
H208 H 0.86894 0.67114 0.13291 0.0
O209 O 0.81172 0.49465 0.09164 0.0
C210 C 0.72249 0.41007 0.11463 0.0
C211 C 0.85373 0.59775 0.12626 0.0
C212 C 0.81155 0.63963 0.11655 0.0
N213 N 0.79059 0.55773 0.10796 0.0
C214 C 0.82499 0.55703 0.11716 0.0
C215 C 0.78346 0.5982 0.10762 0.0
C216 C 0.84693 0.63931 0.12592 0.0
C217 C 0.61315 0.35796 0.07373 0.0
N218 N 0.63883 0.34427 0.083 0.0
C219 C 0.56069 0.33299 0.07388 0.0
C220 C 0.53453 0.29386 0.08363 0.0
C221 C 0.56099 0.28009 0.09305 0.0
C222 C 0.61344 0.30587 0.09258 0.0
C223 C 0.68508 0.23714 0.07152 0.0
C224 C 0.74352 0.31109 0.09131 0.0
C225 C 0.68421 0.28211 0.07219 0.0
N226 N 0.71298 0.31823 0.08206 0.0
C227 C 0.74539 0.26661 0.09094 0.0
C228 C 0.71588 0.22942 0.08098 0.0
C229 C 0.82073 0.46121 0.08666 0.0
C230 C 0.73845 0.5672 0.05755 0.0
C231 C 0.81485 0.57892 0.07586 0.0
C232 C 0.82649 0.60924 0.0636 0.0
C233 C 0.78796 0.60322 0.0544 0.0
N234 N 0.76619 0.54375 0.07889 0.0
C235 C 0.72821 0.53763 0.06992 0.0
Co236 Co 0.3346 0.70432 0.41655 0.0
Co237 Co 0.25449 0.7463 0.42772 0.0
O238 O 0.27174 0.70526 0.4156 0.0
C239 C 0.32931 0.73348 0.3866 0.0
O240 O 0.32254 0.76906 0.39207 0.0
C241 C 0.17609 0.64217 0.43277 0.0
O242 O 0.21246 0.63162 0.43348 0.0
O243 O 0.27795 0.72762 0.44539 0.0
O244 O 0.33296 0.70376 0.43819 0.0
H245 H 0.28389 0.87335 0.46625 0.0
H246 H 0.24996 0.6285 0.39887 0.0
O247 O 0.33633 0.70445 0.3949 0.0
H248 H 0.28571 0.53112 0.43448 0.0
H249 H 0.45631 0.64985 0.40017 0.0
H250 H 0.42704 0.75575 0.43433 0.0
H251 H 0.33607 0.62364 0.43407 0.0
H252 H 0.37661 0.65107 0.39971 0.0
O253 O 0.18575 0.68707 0.43066 0.0
H254 H 0.30613 0.82198 0.45079 0.0
H255 H 0.16321 0.75621 0.43048 0.0
H256 H 0.50713 0.75538 0.43524 0.0
H257 H 0.19914 0.53605 0.39876 0.0
H258 H 0.52213 0.70213 0.41807 0.0
H259 H 0.21671 0.48672 0.41671 0.0
O260 O 0.3746 0.77918 0.41674 0.0
H261 H 0.16247 0.71274 0.3805 0.0
H262 H 0.27238 0.84335 0.41527 0.0
H263 H 0.2467 0.86798 0.39288 0.0
H264 H 0.19138 0.80242 0.37531 0.0
H265 H 0.18924 0.6898 0.40299 0.0
H266 H 0.1392 0.80658 0.4458 0.0
H267 H 0.19985 0.8658 0.4638 0.0
O268 O 0.32287 0.80553 0.42513 0.0
C269 C 0.30943 0.71306 0.44799 0.0
C270 C 0.25719 0.84781 0.45841 0.0
C271 C 0.17596 0.81028 0.44695 0.0
N272 N 0.23618 0.78648 0.43968 0.0
C273 C 0.26964 0.81875 0.4496 0.0
C274 C 0.18972 0.7818 0.43833 0.0
C275 C 0.21002 0.84351 0.45704 0.0
C276 C 0.25824 0.60731 0.40661 0.0
N277 N 0.29603 0.63146 0.41645 0.0
C278 C 0.22919 0.55495 0.40653 0.0
C279 C 0.239 0.52731 0.41662 0.0
C280 C 0.27767 0.5522 0.42661 0.0
C281 C 0.30594 0.6046 0.42637 0.0
C282 C 0.45017 0.67313 0.40772 0.0
C283 C 0.4332 0.73225 0.42689 0.0
C284 C 0.40517 0.67405 0.4075 0.0
N285 N 0.39707 0.70314 0.41707 0.0
C286 C 0.47866 0.7323 0.42743 0.0
C287 C 0.48708 0.70246 0.41778 0.0
C288 C 0.36571 0.81374 0.42076 0.0
C289 C 0.18643 0.74163 0.3881 0.0
C290 C 0.24822 0.8146 0.40769 0.0
C291 C 0.23378 0.82877 0.39503 0.0
C292 C 0.20272 0.79196 0.38518 0.0
N293 N 0.23201 0.76515 0.41048 0.0
C294 C 0.20153 0.72885 0.40088 0.0
Co295 Co 0.6261 0.33697 0.75035 0.0
Co296 Co 0.50216 0.25346 0.75874 0.0
O297 O 0.56395 0.27343 0.7482 0.0
C298 C 0.59668 0.33431 0.72002 0.0
O299 O 0.55315 0.32584 0.72499 0.0
C300 C 0.53008 0.17771 0.76639 0.0
O301 O 0.57459 0.21538 0.76966 0.0
O302 O 0.53923 0.27814 0.77738 0.0
O303 O 0.62028 0.33196 0.77183 0.0
H304 H 0.38999 0.27545 0.79388 0.0
H305 H 0.62242 0.25496 0.73246 0.0
O306 O 0.63184 0.34161 0.72873 0.0
H307 H 0.74975 0.28974 0.76997 0.0
H308 H 0.80395 0.4642 0.73703 0.0
H309 H 0.66154 0.42627 0.76927 0.0
H310 H 0.70613 0.33873 0.76895 0.0
H311 H 0.72447 0.38359 0.73504 0.0
O312 O 0.49544 0.18586 0.76201 0.0
H313 H 0.4683 0.30169 0.78028 0.0
H314 H 0.40299 0.15915 0.75977 0.0
H315 H 0.74042 0.50717 0.77171 0.0
H316 H 0.66544 0.20539 0.73299 0.0
H317 H 0.81233 0.52655 0.75551 0.0
H318 H 0.72948 0.22254 0.75188 0.0
O319 O 0.58969 0.37563 0.75036 0.0
H320 H 0.46144 0.16389 0.71096 0.0
H321 H 0.42323 0.26647 0.74392 0.0
H322 H 0.37989 0.24032 0.72041 0.0
H323 H 0.39898 0.1887 0.70374 0.0
H324 H 0.50411 0.19111 0.73453 0.0
H325 H 0.32402 0.13122 0.77321 0.0
H326 H 0.31714 0.18964 0.79037 0.0
O327 O 0.50855 0.32054 0.75548 0.0
C328 C 0.58476 0.30867 0.78093 0.0
C329 C 0.39247 0.2497 0.7864 0.0
C330 C 0.35547 0.16872 0.77481 0.0
N331 N 0.44004 0.23209 0.76918 0.0
C332 C 0.43666 0.26439 0.77865 0.0
C333 C 0.40029 0.1847 0.76726 0.0
C334 C 0.35163 0.20153 0.78444 0.0
C335 C 0.65058 0.26298 0.74063 0.0
N336 N 0.66188 0.29983 0.75064 0.0
C337 C 0.67468 0.23465 0.74091 0.0
C338 C 0.71056 0.24424 0.75152 0.0
C339 C 0.72192 0.28192 0.76168 0.0
C340 C 0.69702 0.30945 0.76108 0.0
C341 C 0.77291 0.45617 0.74416 0.0
C342 C 0.69276 0.43434 0.76224 0.0
C343 C 0.7278 0.41065 0.74306 0.0
N344 N 0.68857 0.40016 0.75209 0.0
C345 C 0.73729 0.48025 0.76364 0.0
C346 C 0.7776 0.49112 0.75454 0.0
C347 C 0.54431 0.36464 0.75261 0.0
C348 C 0.45268 0.18624 0.71815 0.0
C349 C 0.43166 0.24395 0.73674 0.0
C350 C 0.40698 0.22921 0.72344 0.0
C351 C 0.41769 0.20023 0.7141 0.0
N352 N 0.46596 0.23011 0.74063 0.0
C353 C 0.47657 0.20159 0.73153 0.0
Co354 Co 0.37029 0.70493 0.58336 0.0
Co355 Co 0.4926 0.74692 0.57246 0.0
O356 O 0.43407 0.70586 0.58449 0.0
C357 C 0.40364 0.73358 0.61342 0.0
O358 O 0.44615 0.76935 0.6081 0.0
C359 C 0.46741 0.64285 0.56752 0.0
O360 O 0.42044 0.63207 0.56675 0.0
O361 O 0.4509 0.72799 0.5547 0.0
O362 O 0.37201 0.70456 0.56172 0.0
H363 H 0.59075 0.8737 0.53395 0.0
H364 H 0.37872 0.62894 0.60108 0.0
O365 O 0.36796 0.70477 0.60499 0.0
H366 H 0.24658 0.53189 0.56519 0.0
H367 H 0.19365 0.65031 0.59926 0.0
H368 H 0.32981 0.75656 0.56544 0.0
H369 H 0.28862 0.6244 0.56567 0.0
H370 H 0.27453 0.6515 0.59995 0.0
O371 O 0.50244 0.68782 0.56965 0.0
H372 H 0.51687 0.82231 0.54929 0.0
H373 H 0.59401 0.75717 0.56999 0.0
H374 H 0.24939 0.75622 0.5643 0.0
H375 H 0.3372 0.53649 0.60111 0.0
H376 H 0.18063 0.70279 0.5813 0.0
H377 H 0.2708 0.48733 0.58302 0.0
O378 O 0.4051 0.77981 0.58325 0.0
H379 H 0.5501 0.71388 0.61992 0.0
H380 H 0.57125 0.84414 0.58495 0.0
H381 H 0.62099 0.86902 0.60745 0.0
H382 H 0.61052 0.80364 0.62511 0.0
H383 H 0.50096 0.69069 0.59733 0.0
H384 H 0.66865 0.80757 0.55479 0.0
H385 H 0.66736 0.86649 0.53665 0.0
O386 O 0.4832 0.80605 0.57491 0.0
C387 C 0.40496 0.71357 0.55199 0.0
C388 C 0.59185 0.8483 0.54185 0.0
C389 C 0.63554 0.81113 0.55353 0.0
N390 N 0.55131 0.78713 0.5606 0.0
C391 C 0.55019 0.81923 0.55059 0.0
C392 C 0.59315 0.78263 0.56208 0.0
C393 C 0.63479 0.84419 0.54336 0.0
C394 C 0.34946 0.60782 0.59328 0.0
N395 N 0.33606 0.63207 0.58339 0.0
C396 C 0.32623 0.55547 0.59331 0.0
C397 C 0.28905 0.52791 0.58314 0.0
C398 C 0.27549 0.5529 0.57312 0.0
C399 C 0.29955 0.60529 0.5734 0.0
C400 C 0.22328 0.67367 0.59178 0.0
C401 C 0.29993 0.73298 0.57281 0.0
C402 C 0.26919 0.67458 0.59214 0.0
N403 N 0.30665 0.70376 0.58266 0.0
C404 C 0.25455 0.73306 0.57214 0.0
C405 C 0.216 0.70311 0.58169 0.0
C406 C 0.44857 0.81433 0.57924 0.0
C407 C 0.55513 0.7427 0.61228 0.0
C408 C 0.56656 0.81547 0.59258 0.0
C409 C 0.59485 0.82978 0.60529 0.0
C410 C 0.58897 0.79307 0.6152 0.0
N411 N 0.53351 0.76598 0.58979 0.0
C412 C 0.52757 0.72977 0.59944 0.0
Co413 Co 0.66631 0.38034 0.91654 0.0
Co414 Co 0.74702 0.49918 0.90322 0.0
O415 O 0.73066 0.44256 0.91597 0.0
C416 C 0.68027 0.4203 0.94612 0.0
O417 O 0.68775 0.46244 0.94031 0.0
C418 C 0.82105 0.46802 0.89695 0.0
O419 O 0.7832 0.4218 0.89703 0.0
O420 O 0.71758 0.4542 0.88629 0.0
O421 O 0.66221 0.37762 0.89492 0.0
H422 H 0.71304 0.59385 0.86478 0.0
H423 H 0.75344 0.38795 0.93263 0.0
O424 O 0.67004 0.38251 0.93817 0.0
H425 H 0.70353 0.2478 0.89844 0.0
H426 H 0.54395 0.20916 0.9361 0.0
H427 H 0.56975 0.34006 0.90078 0.0
H428 H 0.65671 0.29363 0.89948 0.0
H429 H 0.62541 0.28792 0.93461 0.0
O430 O 0.81372 0.50487 0.89901 0.0
H431 H 0.6919 0.52243 0.88105 0.0
H432 H 0.83992 0.59743 0.89817 0.0
H433 H 0.48782 0.26172 0.90182 0.0
H434 H 0.80081 0.34267 0.9321 0.0
H435 H 0.47454 0.19561 0.91958 0.0
H436 H 0.77611 0.27222 0.91485 0.0
O437 O 0.62901 0.41793 0.91688 0.0
H438 H 0.85186 0.56289 0.94821 0.0
H439 H 0.7366 0.58323 0.91547 0.0
H440 H 0.77001 0.63756 0.93697 0.0
H441 H 0.82809 0.62754 0.95351 0.0
H442 H 0.81735 0.50919 0.92665 0.0
H443 H 0.86285 0.66957 0.882 0.0
H444 H 0.7991 0.66812 0.8652 0.0
O445 O 0.6806 0.49378 0.90712 0.0
C446 C 0.68394 0.40833 0.88453 0.0
C447 C 0.74111 0.59501 0.87209 0.0
C448 C 0.82521 0.63747 0.88174 0.0
N449 N 0.76451 0.55596 0.89062 0.0
C450 C 0.7293 0.55475 0.88135 0.0
C451 C 0.81205 0.59649 0.89085 0.0
C452 C 0.78941 0.63664 0.87232 0.0
C453 C 0.74207 0.35695 0.92521 0.0
N454 N 0.70226 0.34337 0.91612 0.0
C455 C 0.76917 0.33158 0.92492 0.0
C456 C 0.75535 0.29213 0.91522 0.0
C457 C 0.71468 0.27845 0.90599 0.0
C458 C 0.68842 0.30465 0.90659 0.0
C459 C 0.54931 0.23764 0.9283 0.0
C460 C 0.56434 0.31131 0.90847 0.0
C461 C 0.59531 0.28233 0.92742 0.0
N462 N 0.60241 0.31831 0.91753 0.0
C463 C 0.51783 0.26711 0.90904 0.0
C464 C 0.51039 0.23005 0.91902 0.0
C465 C 0.63848 0.46118 0.91248 0.0
C466 C 0.82674 0.56774 0.94106 0.0
C467 C 0.76189 0.57869 0.92262 0.0
C468 C 0.78072 0.60958 0.93476 0.0
C469 C 0.81332 0.60395 0.94404 0.0
N470 N 0.77531 0.54333 0.91976 0.0
C471 C 0.80725 0.53759 0.9288 0.0
Co472 Co 0.29035 0.66502 0.24973 0.0
Co473 Co 0.24994 0.74688 0.23938 0.0
O474 O 0.29161 0.72876 0.25077 0.0
C475 C 0.26567 0.67281 0.27993 0.0
O476 O 0.23005 0.68013 0.27477 0.0
C477 C 0.35316 0.82346 0.23216 0.0
O478 O 0.36096 0.78622 0.2291 0.0
O479 O 0.26526 0.72207 0.22132 0.0
O480 O 0.28771 0.66555 0.2281 0.0
H481 H 0.11977 0.72098 0.20225 0.0
H482 H 0.37008 0.75054 0.26624 0.0
O483 O 0.29335 0.66467 0.27138 0.0
H484 H 0.45948 0.7082 0.22959 0.0
H485 H 0.34268 0.5409 0.26527 0.0
H486 H 0.23452 0.57184 0.23246 0.0
H487 H 0.36705 0.65942 0.23133 0.0
H488 H 0.34386 0.62178 0.26584 0.0
O489 O 0.31001 0.81478 0.2363 0.0
H490 H 0.17158 0.69693 0.21686 0.0
H491 H 0.2423 0.83957 0.2374 0.0
H492 H 0.23243 0.49057 0.23144 0.0
H493 H 0.46255 0.80002 0.26498 0.0
H494 H 0.28681 0.47472 0.24793 0.0
H495 H 0.50786 0.77907 0.24652 0.0
O496 O 0.21542 0.62663 0.25045 0.0
H497 H 0.29117 0.83922 0.28671 0.0
H498 H 0.1553 0.73145 0.25298 0.0
H499 H 0.13437 0.75808 0.27584 0.0
H500 H 0.20259 0.81232 0.29289 0.0
H501 H 0.3104 0.81151 0.26378 0.0
H502 H 0.19152 0.86537 0.22293 0.0
H503 H 0.12959 0.80577 0.20525 0.0
O504 O 0.18998 0.67936 0.2423 0.0
C505 C 0.27808 0.68937 0.21847 0.0
C506 C 0.14648 0.74722 0.20996 0.0
C507 C 0.18681 0.82828 0.22155 0.0
N508 N 0.20951 0.76662 0.22807 0.0
C509 C 0.17579 0.73374 0.2183 0.0
C510 C 0.2155 0.8135 0.22969 0.0
C511 C 0.15205 0.79482 0.21163 0.0
C512 C 0.38953 0.74092 0.25825 0.0
N513 N 0.36319 0.70208 0.24888 0.0
C514 C 0.4419 0.76919 0.25756 0.0
C515 C 0.46729 0.75745 0.24719 0.0
C516 C 0.44017 0.71772 0.23768 0.0
C517 C 0.38783 0.69032 0.23868 0.0
C518 C 0.31888 0.5474 0.25801 0.0
C519 C 0.25851 0.5653 0.2396 0.0
C520 C 0.31931 0.59306 0.25831 0.0
N521 N 0.28958 0.6016 0.24911 0.0
C522 C 0.25706 0.51918 0.23901 0.0
C523 C 0.28754 0.51029 0.24828 0.0
C524 C 0.18118 0.63644 0.24675 0.0
C525 C 0.26113 0.81574 0.27934 0.0
C526 C 0.1852 0.75514 0.26033 0.0
C527 C 0.17312 0.77012 0.27325 0.0
C528 C 0.21142 0.80057 0.28281 0.0
N529 N 0.23406 0.77021 0.257 0.0
C530 C 0.27181 0.80011 0.26631 0.0
Co531 Co 0.62815 0.28402 0.58388 0.0
Co532 Co 0.51063 0.25504 0.5717 0.0
O533 O 0.56871 0.2914 0.58428 0.0
C534 C 0.59355 0.26269 0.61402 0.0
O535 O 0.54988 0.22851 0.60886 0.0
C536 C 0.54361 0.36149 0.56744 0.0
O537 O 0.5896 0.36924 0.56692 0.0
O538 O 0.55442 0.27414 0.55443 0.0
O539 O 0.62661 0.2799 0.56223 0.0
H540 H 0.41165 0.13706 0.53148 0.0
H541 H 0.63141 0.36908 0.60004 0.0
O542 O 0.63026 0.28814 0.6055 0.0
H543 H 0.76461 0.44704 0.56322 0.0
H544 H 0.7995 0.32252 0.60077 0.0
H545 H 0.65869 0.22007 0.56781 0.0
H546 H 0.71322 0.35484 0.56513 0.0
H547 H 0.72423 0.33184 0.6004 0.0
O548 O 0.50642 0.31749 0.56929 0.0
H549 H 0.48459 0.18243 0.54767 0.0
H550 H 0.41295 0.25276 0.56863 0.0
H551 H 0.73337 0.20978 0.56775 0.0
H552 H 0.68228 0.46138 0.5986 0.0
H553 H 0.80445 0.26127 0.58432 0.0
H554 H 0.74932 0.50096 0.58005 0.0
O555 O 0.58605 0.20976 0.58492 0.0
H556 H 0.45273 0.28829 0.61904 0.0
H557 H 0.42566 0.15906 0.58294 0.0
H558 H 0.37329 0.13469 0.60492 0.0
H559 H 0.38671 0.19956 0.62315 0.0
H560 H 0.50443 0.31096 0.59694 0.0
H561 H 0.33939 0.20852 0.55259 0.0
H562 H 0.33837 0.15001 0.53389 0.0
O563 O 0.51397 0.19198 0.57375 0.0
C564 C 0.59768 0.27934 0.55223 0.0
C565 C 0.41156 0.16229 0.53962 0.0
C566 C 0.37103 0.20246 0.55146 0.0
N567 N 0.45273 0.21974 0.55917 0.0
C568 C 0.45266 0.18794 0.54885 0.0
C569 C 0.41279 0.22745 0.56049 0.0
C570 C 0.37048 0.16962 0.54097 0.0
C571 C 0.66093 0.38598 0.59206 0.0
N572 N 0.66949 0.35656 0.58273 0.0
C573 C 0.68945 0.43829 0.59124 0.0
C574 C 0.72698 0.46046 0.58081 0.0
C575 C 0.73554 0.43023 0.57135 0.0
C576 C 0.70623 0.37804 0.57247 0.0
C577 C 0.76882 0.29997 0.59348 0.0
C578 C 0.68963 0.24284 0.57498 0.0
C579 C 0.7261 0.30502 0.59324 0.0
N580 N 0.68737 0.27686 0.58399 0.0
C581 C 0.73174 0.23674 0.57493 0.0
C582 C 0.77158 0.2656 0.58424 0.0
C583 C 0.54316 0.1788 0.57965 0.0
C584 C 0.44641 0.25972 0.61115 0.0
C585 C 0.43169 0.18751 0.59082 0.0
C586 C 0.40189 0.17349 0.60324 0.0
C587 C 0.40942 0.20991 0.61346 0.0
N588 N 0.46784 0.23645 0.58863 0.0
C589 C 0.47542 0.27237 0.59859 0.0
Co590 Co 0.3315 0.62429 0.91642 0.0
Co591 Co 0.25075 0.50511 0.90332 0.0
O592 O 0.26722 0.56194 0.91599 0.0
C593 C 0.3184 0.58493 0.94604 0.0
O594 O 0.31088 0.54274 0.94025 0.0
C595 C 0.1764 0.53588 0.89709 0.0
O596 O 0.21406 0.58218 0.89721 0.0
O597 O 0.27976 0.54977 0.88631 0.0
O598 O 0.33518 0.62655 0.8948 0.0
H599 H 0.2844 0.41 0.86494 0.0
H600 H 0.24462 0.61679 0.93262 0.0
O601 O 0.32823 0.62254 0.93806 0.0
H602 H 0.29327 0.75596 0.89817 0.0
H603 H 0.45384 0.79603 0.93565 0.0
H604 H 0.42776 0.6645 0.90051 0.0
H605 H 0.34038 0.71044 0.89923 0.0
H606 H 0.37251 0.71707 0.93434 0.0
O607 O 0.18389 0.49914 0.89916 0.0
H608 H 0.30562 0.48171 0.88111 0.0
H609 H 0.15796 0.40657 0.89847 0.0
H610 H 0.50955 0.74304 0.90137 0.0
H611 H 0.19691 0.66173 0.93206 0.0
H612 H 0.52297 0.80947 0.91904 0.0
H613 H 0.221 0.7317 0.91469 0.0
O614 O 0.36899 0.58689 0.91676 0.0
H615 H 0.14677 0.44213 0.94847 0.0
H616 H 0.26167 0.42147 0.91567 0.0
H617 H 0.22878 0.3676 0.93726 0.0
H618 H 0.17089 0.37778 0.95383 0.0
H619 H 0.18076 0.49539 0.9268 0.0
H620 H 0.13496 0.33415 0.88241 0.0
H621 H 0.1985 0.33552 0.86554 0.0
O622 O 0.31733 0.51078 0.90716 0.0
C623 C 0.31331 0.59562 0.88446 0.0
C624 C 0.25643 0.40887 0.87228 0.0
C625 C 0.17254 0.36634 0.88207 0.0
N626 N 0.2332 0.44812 0.89079 0.0
C627 C 0.26828 0.44929 0.88149 0.0
C628 C 0.18574 0.40748 0.89112 0.0
C629 C 0.20822 0.36712 0.87261 0.0
C630 C 0.25572 0.64758 0.92515 0.0
N631 N 0.29535 0.66107 0.91599 0.0
C632 C 0.22842 0.67275 0.92484 0.0
C633 C 0.24189 0.71194 0.91507 0.0
C634 C 0.2824 0.72553 0.90578 0.0
C635 C 0.30884 0.69951 0.9064 0.0
C636 C 0.44841 0.76741 0.92789 0.0
C637 C 0.43323 0.69338 0.90816 0.0
C638 C 0.40249 0.7226 0.92712 0.0
N639 N 0.39531 0.68645 0.91728 0.0
C640 C 0.47966 0.7377 0.90863 0.0
C641 C 0.48718 0.77493 0.91856 0.0
C642 C 0.35953 0.54357 0.91243 0.0
C643 C 0.17181 0.43721 0.9413 0.0
C644 C 0.23645 0.42608 0.92282 0.0
C645 C 0.21792 0.39545 0.93502 0.0
C646 C 0.18542 0.40117 0.94432 0.0
N647 N 0.22284 0.46128 0.91993 0.0
C648 C 0.19101 0.46711 0.92899 0.0
Co649 Co 0.71034 0.33567 0.2495 0.0
Co650 Co 0.74867 0.25211 0.23925 0.0
O651 O 0.70788 0.27138 0.25064 0.0
C652 C 0.73479 0.32802 0.27973 0.0
O653 O 0.77024 0.32036 0.27462 0.0
C654 C 0.64491 0.17639 0.23224 0.0
O655 O 0.6377 0.21395 0.22909 0.0
O656 O 0.73341 0.2768 0.22117 0.0
O657 O 0.71312 0.33493 0.22789 0.0
H658 H 0.87704 0.2749 0.20189 0.0
H659 H 0.62962 0.25113 0.26605 0.0
O660 O 0.70724 0.33626 0.27115 0.0
H661 H 0.54218 0.29514 0.22918 0.0
H662 H 0.66086 0.46216 0.26481 0.0
H663 H 0.76756 0.42849 0.23218 0.0
H664 H 0.63463 0.34252 0.23096 0.0
H665 H 0.6581 0.38053 0.26549 0.0
O666 O 0.68792 0.18458 0.23636 0.0
H667 H 0.82649 0.30046 0.21653 0.0
H668 H 0.75477 0.15855 0.23747 0.0
H669 H 0.77121 0.51048 0.23105 0.0
H670 H 0.5371 0.20304 0.26475 0.0
H671 H 0.71758 0.52771 0.24745 0.0
H672 H 0.49277 0.22484 0.24618 0.0
O673 O 0.78523 0.37293 0.25027 0.0
H674 H 0.70735 0.16122 0.28682 0.0
H675 H 0.84308 0.26644 0.25275 0.0
H676 H 0.86391 0.23996 0.27565 0.0
H677 H 0.79577 0.18699 0.29287 0.0
H678 H 0.68822 0.18874 0.26384 0.0
H679 H 0.80428 0.13125 0.22298 0.0
H680 H 0.86608 0.18971 0.20508 0.0
O681 O 0.80937 0.3193 0.24201 0.0
C682 C 0.72167 0.31026 0.21827 0.0
C683 C 0.8504 0.24916 0.2097 0.0
C684 C 0.8095 0.16851 0.22152 0.0
N685 N 0.78817 0.23123 0.22795 0.0
C686 C 0.82181 0.26349 0.21806 0.0
C687 C 0.78154 0.18414 0.22968 0.0
C688 C 0.84418 0.20134 0.21148 0.0
C689 C 0.6106 0.26113 0.25801 0.0
N690 N 0.63751 0.29967 0.2486 0.0
C691 C 0.5582 0.23364 0.2573 0.0
C692 C 0.53336 0.24585 0.24687 0.0
C693 C 0.56106 0.28526 0.23732 0.0
C694 C 0.61341 0.31187 0.23834 0.0
C695 C 0.68434 0.45506 0.25759 0.0
C696 C 0.74388 0.43563 0.23929 0.0
C697 C 0.68302 0.40897 0.25795 0.0
N698 N 0.71235 0.39968 0.2488 0.0
C699 C 0.74622 0.48216 0.23863 0.0
C700 C 0.71616 0.49182 0.24784 0.0
C701 C 0.81892 0.3624 0.24652 0.0
C702 C 0.73735 0.18413 0.27938 0.0
C703 C 0.81321 0.24332 0.26018 0.0
C704 C 0.82523 0.22841 0.27312 0.0
C705 C 0.78698 0.19867 0.28277 0.0
N706 N 0.76444 0.22886 0.25691 0.0
C707 C 0.72673 0.19965 0.26632 0.0
C708 C 0.2997 0.62204 0.9675 0.0
C709 C 0.31281 0.58789 0.96178 0.0
C710 C 0.29158 0.62334 0.98237 0.0
C711 C 0.29799 0.59057 0.99175 0.0
C712 C 0.31248 0.55692 0.98606 0.0
C713 C 0.31907 0.55552 0.9711 0.0
C714 C 0.27501 0.6589 0.988 0.0
C715 C 0.32078 0.5222 0.99576 0.0
C716 C 0.31815 0.622 0.03174 0.0
C717 C 0.27111 0.58744 0.03747 0.0
C718 C 0.32747 0.62354 0.01686 0.0
C719 C 0.28841 0.59056 0.00748 0.0
C720 C 0.24042 0.55656 0.01319 0.0
C721 C 0.23254 0.55496 0.02815 0.0
C722 C 0.37942 0.6595 0.01121 0.0
C723 C 0.19752 0.5216 0.0035 0.0
H724 H 0.2944 0.64683 0.96029 0.0
H725 H 0.3295 0.52929 0.96671 0.0
H726 H 0.23794 0.63727 0.99339 0.0
H727 H 0.30198 0.68437 0.99622 0.0
H728 H 0.2719 0.68204 0.97928 0.0
H729 H 0.33458 0.50024 0.98971 0.0
H730 H 0.34844 0.54417 0.00431 0.0
H731 H 0.28514 0.49556 0.00123 0.0
H732 H 0.34819 0.64688 0.03895 0.0
H733 H 0.19604 0.5284 0.03255 0.0
H734 H 0.37754 0.6847 0.00297 0.0
H735 H 0.39525 0.63816 0.00585 0.0
H736 H 0.40553 0.68291 0.01992 0.0
H737 H 0.19162 0.54339 0.99493 0.0
H738 H 0.16181 0.49952 0.00955 0.0
H739 H 0.20676 0.49508 0.99805 0.0
C740 C 0.67079 0.23452 0.36058 0.0
C741 C 0.67455 0.27103 0.37036 0.0
C742 C 0.67821 0.2448 0.34574 0.0
C743 C 0.69096 0.29319 0.34064 0.0
C744 C 0.69436 0.33008 0.35046 0.0
C745 C 0.6855 0.31834 0.36521 0.0
C746 C 0.67316 0.20413 0.33556 0.0
C747 C 0.70898 0.38241 0.34546 0.0
C748 C 0.76215 0.33007 0.30517 0.0
C749 C 0.72438 0.32295 0.29538 0.0
C750 C 0.75215 0.32225 0.32001 0.0
C751 C 0.70284 0.30564 0.32511 0.0
C752 C 0.66467 0.29898 0.31528 0.0
C753 C 0.67607 0.30833 0.30052 0.0
C754 C 0.79413 0.3309 0.3302 0.0
C755 C 0.61143 0.28026 0.32027 0.0
H756 H 0.66201 0.1978 0.36453 0.0
H757 H 0.68883 0.34681 0.37277 0.0
H758 H 0.64668 0.199 0.32669 0.0
H759 H 0.71006 0.2153 0.33054 0.0
H760 H 0.65956 0.16755 0.34112 0.0
H761 H 0.70855 0.40629 0.35441 0.0
H762 H 0.74729 0.40068 0.34074 0.0
H763 H 0.68306 0.38075 0.33686 0.0
H764 H 0.79962 0.34168 0.30122 0.0
H765 H 0.64668 0.30237 0.29295 0.0
H766 H 0.78601 0.29479 0.33519 0.0
H767 H 0.7969 0.35642 0.33909 0.0
H768 H 0.83106 0.34738 0.32465 0.0
H769 H 0.59586 0.24209 0.32495 0.0
H770 H 0.58653 0.27861 0.31133 0.0
H771 H 0.61076 0.30494 0.3289 0.0
C772 C 0.36406 0.68813 0.69907 0.0
C773 C 0.3985 0.67455 0.70427 0.0
C774 C 0.36182 0.6972 0.6843 0.0
C775 C 0.394 0.69143 0.67451 0.0
C776 C 0.42755 0.67597 0.67966 0.0
C777 C 0.42981 0.6683 0.69451 0.0
C778 C 0.32628 0.71459 0.67924 0.0
C779 C 0.46171 0.66838 0.66952 0.0
C780 C 0.36351 0.67638 0.63444 0.0
C781 C 0.39873 0.7239 0.62912 0.0
C782 C 0.3611 0.66539 0.64923 0.0
C783 C 0.39398 0.70316 0.65894 0.0
C784 C 0.42846 0.7517 0.65368 0.0
C785 C 0.43081 0.76132 0.6388 0.0
C786 C 0.32458 0.61292 0.6544 0.0
C787 C 0.46345 0.79323 0.66374 0.0
H788 H 0.34012 0.69347 0.70661 0.0
H789 H 0.45633 0.6576 0.6985 0.0
H790 H 0.34804 0.75268 0.67445 0.0
H791 H 0.30116 0.68926 0.67067 0.0
H792 H 0.30279 0.71589 0.68817 0.0
H793 H 0.48319 0.65312 0.67514 0.0
H794 H 0.43942 0.64223 0.6607 0.0
H795 H 0.48881 0.70466 0.66444 0.0
H796 H 0.33888 0.64719 0.62699 0.0
H797 H 0.45791 0.79817 0.63473 0.0
H798 H 0.3 0.61413 0.66297 0.0
H799 H 0.34558 0.59576 0.6592 0.0
H800 H 0.30055 0.58828 0.64552 0.0
H801 H 0.44173 0.79796 0.67257 0.0
H802 H 0.48553 0.82972 0.65806 0.0
H803 H 0.49 0.78324 0.66882 0.0
C804 C 0.76861 0.44932 0.02806 0.0
C805 C 0.73004 0.41701 0.0374 0.0
C806 C 0.7604 0.44819 0.01312 0.0
C807 C 0.7121 0.41489 0.00747 0.0
C808 C 0.673 0.38219 0.01687 0.0
C809 C 0.68263 0.38319 0.03172 0.0
C810 C 0.80334 0.4828 0.00339 0.0
C811 C 0.62072 0.347 0.01129 0.0
C812 C 0.68125 0.45051 0.9712 0.0
C813 C 0.68649 0.41758 0.96184 0.0
C814 C 0.68835 0.44922 0.98613 0.0
C815 C 0.7023 0.41507 0.99176 0.0
C816 C 0.70775 0.3818 0.98234 0.0
C817 C 0.69916 0.38303 0.9675 0.0
C818 C 0.68108 0.4845 0.99588 0.0
C819 C 0.72371 0.34568 0.9879 0.0
H820 H 0.80537 0.47531 0.03242 0.0
H821 H 0.6526 0.35847 0.03895 0.0
H822 H 0.80872 0.46078 0.99479 0.0
H823 H 0.79447 0.50966 0.99799 0.0
H824 H 0.83921 0.5045 0.00941 0.0
H825 H 0.59452 0.32399 0.02003 0.0
H826 H 0.60549 0.36891 0.00595 0.0
H827 H 0.62186 0.3214 0.00305 0.0
H828 H 0.67119 0.47707 0.96685 0.0
H829 H 0.70369 0.35781 0.96026 0.0
H830 H 0.717 0.51064 0.00131 0.0
H831 H 0.65339 0.46289 0.00446 0.0
H832 H 0.66779 0.50698 0.98988 0.0
H833 H 0.76086 0.36685 0.99327 0.0
H834 H 0.72636 0.32239 0.97914 0.0
H835 H 0.69661 0.32035 0.99611 0.0
C836 C 0.3238 0.69103 0.30081 0.0
C837 C 0.27592 0.67785 0.2956 0.0
C838 C 0.33501 0.69975 0.3156 0.0
C839 C 0.29708 0.694 0.32538 0.0
C840 C 0.24824 0.67915 0.3202 0.0
C841 C 0.23842 0.67185 0.30534 0.0
C842 C 0.38778 0.71653 0.32068 0.0
C843 C 0.2065 0.67159 0.33034 0.0
C844 C 0.31189 0.67699 0.36537 0.0
C845 C 0.32454 0.7244 0.37087 0.0
C846 C 0.30333 0.66665 0.35054 0.0
C847 C 0.30865 0.70498 0.34099 0.0
C848 C 0.32307 0.75339 0.34644 0.0
C849 C 0.33027 0.76235 0.36135 0.0
C850 C 0.28699 0.61429 0.34518 0.0
C851 C 0.33009 0.79551 0.33655 0.0
H852 H 0.35302 0.69614 0.29328 0.0
H853 H 0.20129 0.6614 0.30135 0.0
H854 H 0.40418 0.75432 0.32568 0.0
H855 H 0.38724 0.69056 0.32909 0.0
H856 H 0.41267 0.71824 0.31173 0.0
H857 H 0.16993 0.65707 0.32469 0.0
H858 H 0.20215 0.64484 0.33903 0.0
H859 H 0.21604 0.70772 0.3356 0.0
H860 H 0.30702 0.64739 0.37271 0.0
H861 H 0.34031 0.79912 0.36556 0.0
H862 H 0.31282 0.6156 0.3366 0.0
H863 H 0.24898 0.59771 0.34031 0.0
H864 H 0.28595 0.58912 0.35395 0.0
H865 H 0.35657 0.80038 0.32772 0.0
H866 H 0.34469 0.83179 0.34237 0.0
H867 H 0.29372 0.78606 0.33147 0.0
C868 C 0.57211 0.33692 0.69453 0.0
C869 C 0.60265 0.32982 0.70437 0.0
C870 C 0.57412 0.32862 0.67972 0.0
C871 C 0.60652 0.31152 0.67469 0.0
C872 C 0.63809 0.30509 0.68456 0.0
C873 C 0.63622 0.31493 0.69929 0.0
C874 C 0.54073 0.33704 0.66948 0.0
C875 C 0.67231 0.28588 0.67965 0.0
C876 C 0.56634 0.23836 0.63955 0.0
C877 C 0.59904 0.27418 0.62961 0.0
C878 C 0.56954 0.24956 0.65433 0.0
C879 C 0.60546 0.29816 0.65922 0.0
C880 C 0.63883 0.33436 0.64924 0.0
C881 C 0.63562 0.32172 0.63456 0.0
C882 C 0.53402 0.20959 0.6647 0.0
C883 C 0.67681 0.38691 0.654 0.0
H884 H 0.54629 0.34866 0.69844 0.0
H885 H 0.65955 0.30895 0.7069 0.0
H886 H 0.56329 0.36182 0.66046 0.0
H887 H 0.51233 0.30071 0.6647 0.0
H888 H 0.52078 0.35423 0.67495 0.0
H889 H 0.69587 0.28477 0.68859 0.0
H890 H 0.64946 0.2474 0.6752 0.0
H891 H 0.69734 0.3099 0.67088 0.0
H892 H 0.53822 0.20148 0.63576 0.0
H893 H 0.66071 0.34966 0.62688 0.0
H894 H 0.50863 0.22132 0.66967 0.0
H895 H 0.55547 0.20474 0.67359 0.0
H896 H 0.51069 0.17275 0.6593 0.0
H897 H 0.65704 0.40559 0.65864 0.0
H898 H 0.70089 0.41023 0.64494 0.0
H899 H 0.70126 0.3856 0.6626 0.0
C900 C 0.3135 0.66012 0.19886 0.0
C901 C 0.28187 0.67849 0.20311 0.0
C902 C 0.31655 0.64879 0.18434 0.0
C903 C 0.2862 0.6547 0.1739 0.0
C904 C 0.25441 0.6735 0.17812 0.0
C905 C 0.25311 0.68577 0.19264 0.0
C906 C 0.35175 0.62991 0.1802 0.0
C907 C 0.22058 0.67919 0.16737 0.0
C908 C 0.31457 0.65794 0.13381 0.0
C909 C 0.28223 0.60782 0.12985 0.0
C910 C 0.31713 0.67363 0.1482 0.0
C911 C 0.28558 0.63863 0.15873 0.0
C912 C 0.25259 0.5881 0.15474 0.0
C913 C 0.25182 0.57319 0.1404 0.0
C914 C 0.35364 0.72754 0.15213 0.0
C915 C 0.21749 0.54988 0.16558 0.0
H916 H 0.33617 0.65488 0.20687 0.0
H917 H 0.2284 0.69973 0.19586 0.0
H918 H 0.3298 0.59057 0.17632 0.0
H919 H 0.37649 0.65272 0.1712 0.0
H920 H 0.37562 0.63118 0.18939 0.0
H921 H 0.1988 0.69527 0.17235 0.0
H922 H 0.2431 0.7038 0.15832 0.0
H923 H 0.1938 0.64199 0.16269 0.0
H924 H 0.33839 0.68474 0.12571 0.0
H925 H 0.22645 0.53449 0.13739 0.0
H926 H 0.37886 0.72891 0.16093 0.0
H927 H 0.33291 0.74593 0.15626 0.0
H928 H 0.37699 0.74951 0.14279 0.0
H929 H 0.23937 0.54602 0.17452 0.0
H930 H 0.1935 0.5123 0.16065 0.0
H931 H 0.19278 0.56275 0.1704 0.0
C932 C 0.71042 0.31381 0.47236 0.0
C933 C 0.67186 0.28316 0.46279 0.0
C934 C 0.70016 0.31678 0.48697 0.0
C935 C 0.6505 0.2868 0.49218 0.0
C936 C 0.61143 0.25574 0.48251 0.0
C937 C 0.62248 0.25503 0.46783 0.0
C938 C 0.74243 0.35174 0.49684 0.0
C939 C 0.55832 0.22208 0.48773 0.0
C940 C 0.63383 0.254 0.5321 0.0
C941 C 0.61443 0.28377 0.53717 0.0
C942 C 0.64561 0.25449 0.51744 0.0
C943 C 0.63955 0.28695 0.50781 0.0
C944 C 0.62185 0.31857 0.51306 0.0
C945 C 0.60849 0.31583 0.52766 0.0
C946 C 0.66289 0.21909 0.51216 0.0
C947 C 0.61669 0.35501 0.50326 0.0
H948 H 0.74858 0.33575 0.46836 0.0
H949 H 0.59287 0.23096 0.4604 0.0
H950 H 0.73202 0.37686 0.50263 0.0
H951 H 0.74918 0.32971 0.50512 0.0
H952 H 0.77802 0.37521 0.49086 0.0
H953 H 0.53249 0.19973 0.47884 0.0
H954 H 0.55786 0.19587 0.49606 0.0
H955 H 0.54372 0.24482 0.49288 0.0
H956 H 0.63783 0.22886 0.5395 0.0
H957 H 0.59369 0.339 0.53169 0.0
H958 H 0.7004 0.24054 0.50703 0.0
H959 H 0.63654 0.19364 0.50381 0.0
H960 H 0.66514 0.19591 0.52103 0.0
H961 H 0.65259 0.37895 0.49749 0.0
H962 H 0.60614 0.37966 0.50928 0.0
H963 H 0.58759 0.33411 0.49495 0.0
C964 C 0.4373 0.68761 0.80649 0.0
C965 C 0.40201 0.68495 0.7964 0.0
C966 C 0.42426 0.67585 0.82108 0.0
C967 C 0.37515 0.66229 0.82571 0.0
C968 C 0.34003 0.66151 0.81566 0.0
C969 C 0.3537 0.67225 0.80109 0.0
C970 C 0.46241 0.67606 0.83141 0.0
C971 C 0.28766 0.6483 0.82024 0.0
C972 C 0.32083 0.57839 0.85852 0.0
C973 C 0.32862 0.61318 0.86945 0.0
C974 C 0.33645 0.59404 0.84431 0.0
C975 C 0.3594 0.64569 0.84083 0.0
C976 C 0.36683 0.68104 0.85175 0.0
C977 C 0.35189 0.66441 0.86599 0.0
C978 C 0.32874 0.55526 0.83303 0.0
C979 C 0.39018 0.73629 0.84837 0.0
H980 H 0.47462 0.69719 0.80289 0.0
H981 H 0.3265 0.67075 0.79337 0.0
H982 H 0.46736 0.70035 0.84084 0.0
H983 H 0.44868 0.63749 0.83557 0.0
H984 H 0.49958 0.68948 0.82622 0.0
H985 H 0.2664 0.65365 0.81137 0.0
H986 H 0.26651 0.6085 0.82377 0.0
H987 H 0.28938 0.67173 0.82959 0.0
H988 H 0.30329 0.53879 0.8611 0.0
H989 H 0.35789 0.69147 0.87437 0.0
H990 H 0.36522 0.56492 0.82797 0.0
H991 H 0.3038 0.55506 0.82433 0.0
H992 H 0.31184 0.51679 0.83762 0.0
H993 H 0.42859 0.75086 0.84398 0.0
H994 H 0.39249 0.75879 0.85804 0.0
H995 H 0.36783 0.74199 0.83994 0.0
C996 C 0.75373 0.42566 0.13995 0.0
C997 C 0.71967 0.39287 0.12966 0.0
C998 C 0.75265 0.41022 0.15424 0.0
C999 C 0.71562 0.36122 0.15845 0.0
C1000 C 0.68057 0.32811 0.14816 0.0
C1001 C 0.68351 0.34412 0.13379 0.0
C1002 C 0.79152 0.44621 0.16479 0.0
C1003 C 0.63976 0.27606 0.15236 0.0
C1004 C 0.74242 0.30869 0.19223 0.0
C1005 C 0.7179 0.32105 0.20288 0.0
C1006 C 0.74129 0.32079 0.17768 0.0
C1007 C 0.71409 0.34486 0.17364 0.0
C1008 C 0.68792 0.35598 0.18426 0.0
C1009 C 0.69064 0.34449 0.19878 0.0
C1010 C 0.77059 0.30931 0.16672 0.0
C1011 C 0.65772 0.38078 0.18031 0.0
H1012 H 0.78203 0.46322 0.13675 0.0
H1013 H 0.6569 0.31887 0.12587 0.0
H1014 H 0.77283 0.45396 0.17387 0.0
H1015 H 0.81274 0.42906 0.16944 0.0
H1016 H 0.81863 0.48249 0.15965 0.0
H1017 H 0.61463 0.25545 0.14315 0.0
H1018 H 0.65669 0.25395 0.15648 0.0
H1019 H 0.61676 0.27847 0.16123 0.0
H1020 H 0.76374 0.29076 0.19531 0.0
H1021 H 0.6713 0.35384 0.20691 0.0
H1022 H 0.80025 0.34482 0.16184 0.0
H1023 H 0.74553 0.28606 0.15784 0.0
H1024 H 0.78864 0.28918 0.17157 0.0
H1025 H 0.68317 0.41937 0.17629 0.0
H1026 H 0.63621 0.38308 0.18964 0.0
H1027 H 0.63103 0.35969 0.17147 0.0
C1028 C 0.42515 0.73708 0.52607 0.0
C1029 C 0.38962 0.70854 0.53667 0.0
C1030 C 0.41106 0.73521 0.51159 0.0
C1031 C 0.36042 0.70298 0.50753 0.0
C1032 C 0.32467 0.67276 0.51809 0.0
C1033 C 0.33956 0.67643 0.53258 0.0
C1034 C 0.45007 0.76896 0.50072 0.0
C1035 C 0.27059 0.63705 0.51409 0.0
C1036 C 0.31448 0.73774 0.47385 0.0
C1037 C 0.32026 0.70831 0.46329 0.0
C1038 C 0.32708 0.73605 0.4883 0.0
C1039 C 0.3446 0.70308 0.49237 0.0
C1040 C 0.34901 0.67205 0.48185 0.0
C1041 C 0.33747 0.67557 0.46737 0.0
C1042 C 0.32303 0.77066 0.49913 0.0
C1043 C 0.36636 0.63554 0.48586 0.0
H1044 H 0.46385 0.76218 0.52916 0.0
H1045 H 0.31204 0.65398 0.5407 0.0
H1046 H 0.45239 0.74628 0.49175 0.0
H1047 H 0.439 0.79514 0.49595 0.0
H1048 H 0.48798 0.79138 0.50562 0.0
H1049 H 0.24848 0.61329 0.52335 0.0
H1050 H 0.25269 0.65856 0.51023 0.0
H1051 H 0.2687 0.61223 0.50511 0.0
H1052 H 0.3015 0.76335 0.47076 0.0
H1053 H 0.34161 0.65245 0.45927 0.0
H1054 H 0.36052 0.79613 0.50388 0.0
H1055 H 0.29778 0.74855 0.50812 0.0
H1056 H 0.30848 0.79387 0.49421 0.0
H1057 H 0.40578 0.65638 0.48973 0.0
H1058 H 0.36422 0.61151 0.47661 0.0
H1059 H 0.34313 0.61101 0.49485 0.0
C1060 C 0.67477 0.42474 0.85864 0.0
C1061 C 0.66851 0.39041 0.86955 0.0
C1062 C 0.65934 0.40874 0.84444 0.0
C1063 C 0.63823 0.35726 0.84096 0.0
C1064 C 0.63225 0.32239 0.85187 0.0
C1065 C 0.64689 0.33931 0.8661 0.0
C1066 C 0.66541 0.44697 0.83318 0.0
C1067 C 0.61095 0.26739 0.84847 0.0
C1068 C 0.56114 0.31309 0.80649 0.0
C1069 C 0.5973 0.31754 0.79645 0.0
C1070 C 0.57363 0.32492 0.82111 0.0
C1071 C 0.62313 0.34041 0.82581 0.0
C1072 C 0.65919 0.34295 0.81582 0.0
C1073 C 0.646 0.33207 0.80122 0.0
C1074 C 0.53444 0.32276 0.83139 0.0
C1075 C 0.71206 0.35828 0.82047 0.0
H1076 H 0.691 0.46421 0.86124 0.0
H1077 H 0.64212 0.31264 0.87447 0.0
H1078 H 0.69108 0.44851 0.82452 0.0
H1079 H 0.6286 0.43575 0.82807 0.0
H1080 H 0.68068 0.48524 0.83779 0.0
H1081 H 0.6093 0.24524 0.85815 0.0
H1082 H 0.57251 0.25147 0.84397 0.0
H1083 H 0.6343 0.26288 0.84012 0.0
H1084 H 0.5235 0.30209 0.80284 0.0
H1085 H 0.67392 0.33498 0.79354 0.0
H1086 H 0.54649 0.36101 0.83554 0.0
H1087 H 0.53048 0.29886 0.84083 0.0
H1088 H 0.4971 0.3078 0.82616 0.0
H1089 H 0.73177 0.3981 0.82401 0.0
H1090 H 0.73417 0.35407 0.81164 0.0
H1091 H 0.71126 0.33532 0.82983 0.0
C1092 C 0.88789 0.44732 0.07614 0.0
C1093 C 0.87377 0.47375 0.08561 0.0
C1094 C 0.93799 0.45828 0.07534 0.0
C1095 C 0.97447 0.49574 0.08446 0.0
C1096 C 0.96047 0.52267 0.09398 0.0
C1097 C 0.91041 0.51175 0.09432 0.0
C1098 C 0.95181 0.42956 0.06484 0.0
C1099 C 0.99812 0.56223 0.10407 0.0
C1100 C 0.091 0.48904 0.09399 0.0
C1101 C 0.12788 0.52819 0.08564 0.0
C1102 C 0.04085 0.47785 0.09362 0.0
C1103 C 0.02704 0.50577 0.08443 0.0
C1104 C 0.06377 0.54439 0.07566 0.0
C1105 C 0.11391 0.55551 0.07648 0.0
C1106 C 0.00291 0.43699 0.10333 0.0
C1107 C 0.05018 0.57425 0.06552 0.0
H1108 H 0.85981 0.41824 0.06928 0.0
H1109 H 0.89979 0.53222 0.10169 0.0
H1110 H 0.983 0.45608 0.05776 0.0
H1111 H 0.96531 0.4073 0.07082 0.0
H1112 H 0.91958 0.40362 0.05794 0.0
H1113 H 0.98114 0.5799 0.11077 0.0
H1114 H 0.01418 0.54519 0.11136 0.0
H1115 H 0.0297 0.59206 0.0978 0.0
H1116 H 0.10149 0.46784 0.10112 0.0
H1117 H 0.14215 0.58549 0.06989 0.0
H1118 H 0.9715 0.408 0.09681 0.0
H1119 H 0.98665 0.45307 0.1109 0.0
H1120 H 0.0197 0.41846 0.10973 0.0
H1121 H 0.01916 0.54853 0.05826 0.0
H1122 H 0.08256 0.60094 0.0588 0.0
H1123 H 0.03656 0.59584 0.0718 0.0
C1124 C 0.60324 0.08928 0.4287 0.0
C1125 C 0.59907 0.12352 0.4196 0.0
C1126 C 0.56677 0.03815 0.42857 0.0
C1127 C 0.52565 0.02078 0.41893 0.0
C1128 C 0.52201 0.05487 0.40941 0.0
C1129 C 0.55854 0.10594 0.40995 0.0
C1130 C 0.57145 0.00303 0.43904 0.0
C1131 C 0.47908 0.03752 0.39883 0.0
C1132 C 0.44922 0.88063 0.41149 0.0
C1133 C 0.40701 0.86648 0.42026 0.0
C1134 C 0.48807 0.93088 0.41083 0.0
C1135 C 0.48496 0.96746 0.41937 0.0
C1136 C 0.44275 0.95327 0.42837 0.0
C1137 C 0.4041 0.90308 0.4286 0.0
C1138 C 0.53217 0.94492 0.40092 0.0
C1139 C 0.43846 0.99106 0.43781 0.0
H1140 H 0.63439 0.10259 0.43621 0.0
H1141 H 0.55538 0.13212 0.40278 0.0
H1142 H 0.539 0.98693 0.44657 0.0
H1143 H 0.57064 0.97121 0.43314 0.0
H1144 H 0.60662 0.02221 0.44549 0.0
H1145 H 0.48363 0.06813 0.39149 0.0
H1146 H 0.47607 0.00604 0.3922 0.0
H1147 H 0.44316 0.02326 0.40478 0.0
H1148 H 0.45152 0.85258 0.40494 0.0
H1149 H 0.37177 0.89244 0.43547 0.0
H1150 H 0.56755 0.96186 0.40725 0.0
H1151 H 0.53544 0.9736 0.39304 0.0
H1152 H 0.52865 0.91206 0.39489 0.0
H1153 H 0.47141 0.00965 0.44512 0.0
H1154 H 0.40374 0.97358 0.44447 0.0
H1155 H 0.43844 0.02079 0.43102 0.0
C1156 C 0.49045 0.39798 0.74358 0.0
C1157 C 0.53205 0.40504 0.75163 0.0
C1158 C 0.47748 0.4357 0.74286 0.0
C1159 C 0.50569 0.48057 0.75085 0.0
C1160 C 0.54765 0.48762 0.75908 0.0
C1161 C 0.56091 0.45004 0.75914 0.0
C1162 C 0.43367 0.42755 0.73355 0.0
C1163 C 0.57768 0.53421 0.76811 0.0
C1164 C 0.50148 0.59896 0.74183 0.0
C1165 C 0.46519 0.59577 0.75157 0.0
C1166 C 0.51386 0.56081 0.74114 0.0
C1167 C 0.49081 0.51977 0.75084 0.0
C1168 C 0.45425 0.51673 0.76077 0.0
C1169 C 0.44117 0.55444 0.76082 0.0
C1170 C 0.55162 0.56447 0.73006 0.0
C1171 C 0.43005 0.47448 0.7716 0.0
H1172 H 0.46849 0.36317 0.73768 0.0
H1173 H 0.59282 0.45507 0.76546 0.0
H1174 H 0.40354 0.42654 0.74039 0.0
H1175 H 0.44568 0.45929 0.72588 0.0
H1176 H 0.41771 0.39198 0.7273 0.0
H1177 H 0.60859 0.53341 0.77411 0.0
H1178 H 0.59409 0.56809 0.76115 0.0
H1179 H 0.55262 0.53809 0.776 0.0
H1180 H 0.51977 0.63111 0.73467 0.0
H1181 H 0.41345 0.5526 0.76843 0.0
H1182 H 0.53549 0.52951 0.72354 0.0
H1183 H 0.5855 0.56845 0.73556 0.0
H1184 H 0.56336 0.59692 0.72266 0.0
H1185 H 0.40999 0.43783 0.76593 0.0
H1186 H 0.40294 0.47812 0.77873 0.0
H1187 H 0.45943 0.47386 0.77843 0.0
C1188 C 0.48828 0.0906 0.57113 0.0
C1189 C 0.52627 0.12459 0.58038 0.0
C1190 C 0.47334 0.0394 0.57126 0.0
C1191 C 0.49633 0.02166 0.58106 0.0
C1192 C 0.5336 0.05549 0.59072 0.0
C1193 C 0.54846 0.10666 0.59018 0.0
C1194 C 0.43406 0.00458 0.56062 0.0
C1195 C 0.55839 0.03775 0.60147 0.0
C1196 C 0.4317 0.88134 0.58833 0.0
C1197 C 0.46009 0.86713 0.57972 0.0
C1198 C 0.44325 0.93165 0.58898 0.0
C1199 C 0.48349 0.96827 0.58061 0.0
C1200 C 0.51184 0.95401 0.57177 0.0
C1201 C 0.50009 0.90375 0.57154 0.0
C1202 C 0.41279 0.94574 0.59871 0.0
C1203 C 0.55452 0.99183 0.56251 0.0
H1204 H 0.47103 0.10419 0.5635 0.0
H1205 H 0.57746 0.13263 0.59747 0.0
H1206 H 0.45071 0.98848 0.5532 0.0
H1207 H 0.40267 0.97274 0.56639 0.0
H1208 H 0.41856 0.02401 0.55407 0.0
H1209 H 0.58411 0.06818 0.60891 0.0
H1210 H 0.52946 0.00625 0.60799 0.0
H1211 H 0.58025 0.02341 0.59566 0.0
H1212 H 0.40095 0.85328 0.59475 0.0
H1213 H 0.52205 0.89309 0.56479 0.0
H1214 H 0.39489 0.96299 0.59226 0.0
H1215 H 0.4378 0.9742 0.6067 0.0
H1216 H 0.38299 0.91285 0.60461 0.0
H1217 H 0.54072 0.01069 0.5551 0.0
H1218 H 0.57199 0.97431 0.55596 0.0
H1219 H 0.58394 0.02135 0.56943 0.0
C1220 C 0.39759 0.49167 0.90504 0.0
C1221 C 0.39975 0.53056 0.91351 0.0
C1222 C 0.4364 0.48024 0.90541 0.0
C1223 C 0.47792 0.50768 0.9147 0.0
C1224 C 0.47975 0.54609 0.92357 0.0
C1225 C 0.44085 0.55742 0.92277 0.0
C1226 C 0.4335 0.43957 0.89561 0.0
C1227 C 0.523 0.57548 0.93381 0.0
C1228 C 0.55762 0.44803 0.92297 0.0
C1229 C 0.59834 0.47431 0.91355 0.0
C1230 C 0.51876 0.45942 0.92376 0.0
C1231 C 0.52023 0.49727 0.91471 0.0
C1232 C 0.56138 0.52413 0.90526 0.0
C1233 C 0.60017 0.51268 0.9049 0.0
C1234 C 0.47594 0.43069 0.93417 0.0
C1235 C 0.56387 0.56416 0.89526 0.0
H1236 H 0.36608 0.47081 0.89782 0.0
H1237 H 0.44256 0.58722 0.92944 0.0
H1238 H 0.46604 0.45572 0.88811 0.0
H1239 H 0.43555 0.41025 0.90207 0.0
H1240 H 0.39838 0.42143 0.88912 0.0
H1241 H 0.51737 0.60219 0.94055 0.0
H1242 H 0.5279 0.54945 0.94104 0.0
H1243 H 0.55837 0.597 0.92761 0.0
H1244 H 0.55618 0.41863 0.92978 0.0
H1245 H 0.6314 0.53307 0.89757 0.0
H1246 H 0.44031 0.40877 0.9281 0.0
H1247 H 0.47132 0.45718 0.94128 0.0
H1248 H 0.48185 0.40443 0.94104 0.0
H1249 H 0.53104 0.54753 0.88787 0.0
H1250 H 0.59873 0.58189 0.88866 0.0
H1251 H 0.56207 0.59388 0.90158 0.0
C1252 C 0.09166 0.59916 0.23929 0.0
C1253 C 0.12813 0.59616 0.24766 0.0
C1254 C 0.04129 0.56101 0.23969 0.0
C1255 C 0.02681 0.5193 0.24891 0.0
C1256 C 0.06318 0.51647 0.25763 0.0
C1257 C 0.11363 0.55474 0.25679 0.0
C1258 C 0.00377 0.56486 0.22999 0.0
C1259 C 0.04881 0.47294 0.2678 0.0
C1260 C 0.88733 0.44253 0.25704 0.0
C1261 C 0.87219 0.402 0.24752 0.0
C1262 C 0.93796 0.48025 0.25797 0.0
C1263 C 0.97386 0.47783 0.24893 0.0
C1264 C 0.95877 0.43691 0.23935 0.0
C1265 C 0.9082 0.39922 0.23887 0.0
C1266 C 0.95297 0.52289 0.26853 0.0
C1267 C 0.99578 0.43357 0.22931 0.0
H1268 H 0.1026 0.63094 0.23217 0.0
H1269 H 0.14161 0.55249 0.26338 0.0
H1270 H 0.98656 0.53231 0.22251 0.0
H1271 H 0.97298 0.56368 0.23655 0.0
H1272 H 0.0212 0.59994 0.22349 0.0
H1273 H 0.0811 0.47772 0.2744 0.0
H1274 H 0.01843 0.46875 0.27515 0.0
H1275 H 0.03397 0.43752 0.26155 0.0
H1276 H 0.85968 0.44452 0.26385 0.0
H1277 H 0.89671 0.36808 0.23145 0.0
H1278 H 0.96734 0.5588 0.26257 0.0
H1279 H 0.98384 0.52653 0.27557 0.0
H1280 H 0.9211 0.51749 0.27544 0.0
H1281 H 0.01254 0.46649 0.22196 0.0
H1282 H 0.97803 0.39881 0.22267 0.0
H1283 H 0.02697 0.43453 0.2356 0.0
C1284 C 0.60491 0.5146 0.11221 0.0
C1285 C 0.6033 0.4778 0.10298 0.0
C1286 C 0.56412 0.52309 0.11301 0.0
C1287 C 0.52208 0.49567 0.10386 0.0
C1288 C 0.52082 0.45889 0.09437 0.0
C1289 C 0.56111 0.44967 0.09428 0.0
C1290 C 0.56593 0.56121 0.12364 0.0
C1291 C 0.47766 0.43031 0.08403 0.0
C1292 C 0.39567 0.48526 0.11126 0.0
C1293 C 0.39881 0.52429 0.10273 0.0
C1294 C 0.43638 0.47668 0.11218 0.0
C1295 C 0.48005 0.50645 0.10383 0.0
C1296 C 0.48294 0.54557 0.09506 0.0
C1297 C 0.44258 0.55468 0.09486 0.0
C1298 C 0.43271 0.43591 0.12206 0.0
C1299 C 0.52796 0.57681 0.08556 0.0
H1300 H 0.6377 0.53606 0.11896 0.0
H1301 H 0.56045 0.42164 0.08703 0.0
H1302 H 0.56641 0.5929 0.11778 0.0
H1303 H 0.53176 0.54387 0.13051 0.0
H1304 H 0.59957 0.57645 0.13073 0.0
H1305 H 0.48306 0.40372 0.07716 0.0
H1306 H 0.44199 0.40882 0.0901 0.0
H1307 H 0.47349 0.45706 0.07691 0.0
H1308 H 0.36169 0.46204 0.11738 0.0
H1309 H 0.44452 0.5845 0.08815 0.0
H1310 H 0.4656 0.4514 0.12944 0.0
H1311 H 0.43334 0.40581 0.11562 0.0
H1312 H 0.39784 0.4189 0.12866 0.0
H1313 H 0.56243 0.59662 0.09223 0.0
H1314 H 0.52378 0.60513 0.07918 0.0
H1315 H 0.53353 0.55201 0.07798 0.0
C1316 C 0.90497 0.40119 0.44274 0.0
C1317 C 0.87041 0.40253 0.43319 0.0
C1318 C 0.95443 0.4414 0.44346 0.0
C1319 C 0.96991 0.48254 0.4339 0.0
C1320 C 0.93497 0.48366 0.42414 0.0
C1321 C 0.88515 0.44397 0.42413 0.0
C1322 C 0.99009 0.43982 0.4544 0.0
C1323 C 0.95055 0.52589 0.4134 0.0
C1324 C 0.08811 0.60691 0.4413 0.0
C1325 C 0.12373 0.60136 0.43333 0.0
C1326 C 0.03796 0.56793 0.44189 0.0
C1327 C 0.02306 0.52357 0.43379 0.0
C1328 C 0.05896 0.51839 0.4255 0.0
C1329 C 0.1092 0.55704 0.42563 0.0
C1330 C 0.00113 0.57394 0.45129 0.0
C1331 C 0.04417 0.47249 0.41629 0.0
H1332 H 0.89303 0.36897 0.44977 0.0
H1333 H 0.85813 0.44438 0.41667 0.0
H1334 H 0.02077 0.43756 0.44878 0.0
H1335 H 0.00769 0.47484 0.46091 0.0
H1336 H 0.97094 0.4072 0.46182 0.0
H1337 H 0.91883 0.52074 0.40645 0.0
H1338 H 0.96579 0.56231 0.41912 0.0
H1339 H 0.98096 0.52826 0.40638 0.0
H1340 H 0.09976 0.64132 0.4473 0.0
H1341 H 0.13693 0.55327 0.41934 0.0
H1342 H 0.98312 0.54221 0.45903 0.0
H1343 H 0.97083 0.57297 0.44454 0.0
H1344 H 0.01938 0.60973 0.45746 0.0
H1345 H 0.02898 0.43851 0.42319 0.0
H1346 H 0.07633 0.47541 0.41 0.0
H1347 H 0.01399 0.467 0.40866 0.0
C1348 C 0.55042 0.11428 0.77612 0.0
C1349 C 0.52102 0.1259 0.76709 0.0
C1350 C 0.54299 0.0654 0.77666 0.0
C1351 C 0.5062 0.02772 0.76766 0.0
C1352 C 0.47659 0.03936 0.75846 0.0
C1353 C 0.48394 0.08823 0.75842 0.0
C1354 C 0.57443 0.05408 0.78685 0.0
C1355 C 0.43778 0.00043 0.74848 0.0
C1356 C 0.52021 0.91482 0.75866 0.0
C1357 C 0.48298 0.87757 0.76739 0.0
C1358 C 0.52809 0.96389 0.75861 0.0
C1359 C 0.49888 0.97615 0.76778 0.0
C1360 C 0.46211 0.93893 0.77688 0.0
C1361 C 0.45413 0.88986 0.77643 0.0
C1362 C 0.56685 0.0023 0.74852 0.0
C1363 C 0.43108 0.95091 0.78705 0.0
H1364 H 0.57895 0.14333 0.78288 0.0
H1365 H 0.4615 0.09727 0.75132 0.0
H1366 H 0.54969 0.02274 0.79416 0.0
H1367 H 0.5973 0.04182 0.78064 0.0
H1368 H 0.60008 0.08714 0.79352 0.0
H1369 H 0.41849 0.01582 0.74182 0.0
H1370 H 0.45591 0.9856 0.74115 0.0
H1371 H 0.4091 0.96826 0.75483 0.0
H1372 H 0.54224 0.90525 0.75156 0.0
H1373 H 0.42549 0.86113 0.78325 0.0
H1374 H 0.59548 0.03489 0.75475 0.0
H1375 H 0.54862 0.01661 0.74104 0.0
H1376 H 0.5862 0.9866 0.74201 0.0
H1377 H 0.45609 0.98281 0.79416 0.0
H1378 H 0.4058 0.91832 0.79393 0.0
H1379 H 0.40785 0.96261 0.7808 0.0
C1380 C 0.52024 0.60793 0.55882 0.0
C1381 C 0.47931 0.60227 0.56693 0.0
C1382 C 0.53168 0.56914 0.55817 0.0
C1383 C 0.50278 0.52487 0.56635 0.0
C1384 C 0.46198 0.5196 0.5748 0.0
C1385 C 0.45007 0.55806 0.57473 0.0
C1386 C 0.57418 0.57522 0.5486 0.0
C1387 C 0.43148 0.4738 0.58409 0.0
C1388 C 0.49859 0.4026 0.55725 0.0
C1389 C 0.53497 0.40414 0.56665 0.0
C1390 C 0.48915 0.44271 0.55662 0.0
C1391 C 0.51511 0.48397 0.56612 0.0
C1392 C 0.55168 0.48532 0.57572 0.0
C1393 C 0.56196 0.44571 0.57564 0.0
C1394 C 0.45135 0.44088 0.54585 0.0
C1395 C 0.57867 0.52768 0.5864 0.0
H1396 H 0.54255 0.64227 0.55276 0.0
H1397 H 0.41877 0.55422 0.58112 0.0
H1398 H 0.60383 0.57435 0.55522 0.0
H1399 H 0.56023 0.54345 0.54086 0.0
H1400 H 0.59135 0.61096 0.54242 0.0
H1401 H 0.40251 0.47671 0.59053 0.0
H1402 H 0.41245 0.43973 0.57723 0.0
H1403 H 0.45663 0.4685 0.59159 0.0
H1404 H 0.47806 0.37027 0.55026 0.0
H1405 H 0.58975 0.44628 0.58299 0.0
H1406 H 0.46832 0.47585 0.53932 0.0
H1407 H 0.41859 0.4385 0.55161 0.0
H1408 H 0.43769 0.40822 0.53843 0.0
H1409 H 0.59939 0.56407 0.58064 0.0
H1410 H 0.60569 0.52275 0.59321 0.0
H1411 H 0.5509 0.52996 0.59356 0.0
C1412 C 0.10981 0.55359 0.90501 0.0
C1413 C 0.12484 0.52671 0.89611 0.0
C1414 C 0.06005 0.54367 0.90484 0.0
C1415 C 0.02526 0.50751 0.89508 0.0
C1416 C 0.04088 0.4814 0.88573 0.0
C1417 C 0.09037 0.4905 0.8866 0.0
C1418 C 0.04442 0.57084 0.91539 0.0
C1419 C 0.00542 0.44403 0.8748 0.0
C1420 C 0.88611 0.44624 0.90352 0.0
C1421 C 0.8726 0.477 0.89588 0.0
C1422 C 0.9358 0.45594 0.90343 0.0
C1423 C 0.97221 0.49609 0.89498 0.0
C1424 C 0.9582 0.52621 0.88684 0.0
C1425 C 0.90866 0.51698 0.88766 0.0
C1426 C 0.94961 0.4242 0.9127 0.0
C1427 C 0.9955 0.56813 0.87729 0.0
H1428 H 0.13662 0.58117 0.91246 0.0
H1429 H 0.10243 0.47 0.87969 0.0
H1430 H 0.03019 0.59261 0.90948 0.0
H1431 H 0.01327 0.54318 0.92227 0.0
H1432 H 0.07586 0.59697 0.92249 0.0
H1433 H 0.02451 0.42977 0.86762 0.0
H1434 H 0.97415 0.41162 0.88041 0.0
H1435 H 0.98859 0.46165 0.86804 0.0
H1436 H 0.85815 0.41568 0.91001 0.0
H1437 H 0.89788 0.54053 0.8817 0.0
H1438 H 0.97936 0.4485 0.9205 0.0
H1439 H 0.96505 0.4054 0.90591 0.0
H1440 H 0.91694 0.39501 0.91883 0.0
H1441 H 0.02558 0.59787 0.88399 0.0
H1442 H 0.9776 0.58534 0.87079 0.0
H1443 H 0.01371 0.55372 0.86984 0.0
C1444 C 0.39459 0.91262 0.24015 0.0
C1445 C 0.39513 0.87549 0.2315 0.0
C1446 C 0.4353 0.96184 0.24015 0.0
C1447 C 0.47678 0.9743 0.23098 0.0
C1448 C 0.47698 0.93717 0.22198 0.0
C1449 C 0.43634 0.88792 0.2225 0.0
C1450 C 0.43438 0.00021 0.25015 0.0
C1451 C 0.52012 0.94946 0.21184 0.0
C1452 C 0.56152 0.1124 0.22256 0.0
C1453 C 0.60253 0.12457 0.23163 0.0
C1454 C 0.52067 0.06326 0.22201 0.0
C1455 C 0.52044 0.02601 0.23105 0.0
C1456 C 0.56165 0.03825 0.24031 0.0
C1457 C 0.60257 0.08734 0.24035 0.0
C1458 C 0.47784 0.05119 0.21176 0.0
C1459 C 0.56211 -0.00025 0.25036 0.0
H1460 H 0.36289 0.90289 0.24723 0.0
H1461 H 0.4366 0.85922 0.21574 0.0
H1462 H 0.46702 0.01516 0.2576 0.0
H1463 H 0.43771 0.0324 0.24384 0.0
H1464 H 0.39941 0.98425 0.25668 0.0
H1465 H 0.51332 0.91682 0.20506 0.0
H1466 H 0.52647 0.98098 0.20464 0.0
H1467 H 0.55515 0.96186 0.2181 0.0
H1468 H 0.56164 0.14118 0.21575 0.0
H1469 H 0.63411 0.09689 0.24747 0.0
H1470 H 0.44258 0.03853 0.21793 0.0
H1471 H 0.4718 0.0199 0.20451 0.0
H1472 H 0.4848 0.08401 0.20504 0.0
H1473 H 0.52908 0.9846 0.25766 0.0
H1474 H 0.59674 0.01564 0.25704 0.0
H1475 H 0.55919 0.96771 0.24405 0.0
loop_
_geom_bond_atom_site_label_1
_geom_bond_atom_site_label_2
_geom_bond_distance
_geom_bond_site_symmetry_2
_ccdc_geom_bond_type
Co0 O2 2.143 . S
Co0 O8 2.074 . S
Co0 O11 2.093 . S
Co0 O24 2.097 . S
Co0 N41 2.151 . S
Co0 N49 2.214 . S
Co1 O2 2.160 . S
Co1 O7 2.058 . S
Co1 O17 2.057 . S
Co1 O32 2.037 . S
Co1 N36 2.145 . S
Co1 N57 2.257 . S
O2 Co0 2.143 . S
O2 Co1 2.160 . S
C3 O4 1.278 . S
C3 O11 1.224 . S
O4 C3 1.278 . S
C5 O6 1.245 . S
C5 O17 1.232 . S
O6 C5 1.245 . S
O7 Co1 2.058 . S
O7 C33 1.269 . S
O8 Co0 2.074 . S
O8 C33 1.257 . S
H9 C34 0.930 . S
H10 C40 0.930 . S
O11 Co0 2.093 . S
O11 C3 1.224 . S
H12 C44 0.929 . S
H13 C46 0.930 . S
H14 C47 0.930 . S
H15 C45 0.929 . S
H16 C48 0.928 . S
O17 Co1 2.057 . S
O17 C5 1.232 . S
H18 C37 0.929 . S
H19 C38 0.929 . S
H20 C50 0.931 . S
H21 C42 0.929 . S
H22 C51 0.930 . S
H23 C43 0.931 . S
O24 Co0 2.097 . S
O24 C52 1.214 . S
H25 C53 0.929 . S
H26 C54 0.929 . S
H27 C55 0.930 . S
H28 C56 0.929 . S
H29 C58 0.930 . S
H30 C35 0.930 . S
H31 C39 0.930 . S
O32 Co1 2.037 . S
O32 C52 1.234 . S
C33 O7 1.269 . S
C33 O8 1.257 . S
C34 H9 0.930 . S
C34 C37 1.388 . S
C34 C39 1.418 . S
C35 H30 0.930 . S
C35 C38 1.404 . S
C35 C39 1.353 . S
N36 Co1 2.145 . S
N36 C37 1.397 . S
N36 C38 1.334 . S
C37 H18 0.929 . S
C37 C34 1.388 . S
C37 N36 1.397 . S
C38 H19 0.929 . S
C38 C35 1.404 . S
C38 N36 1.334 . S
C39 H31 0.930 . S
C39 C34 1.418 . S
C39 C35 1.353 . S
C40 H10 0.930 . S
C40 N41 1.330 . S
C40 C42 1.446 . S
N41 Co0 2.151 . S
N41 C40 1.330 . S
N41 C45 1.418 . S
C42 H21 0.929 . S
C42 C40 1.446 . S
C42 C43 1.332 . S
C43 H23 0.931 . S
C43 C42 1.332 . S
C43 C44 1.267 . S
C44 H12 0.929 . S
C44 C43 1.267 . S
C44 C45 1.251 . S
C45 H15 0.929 . S
C45 N41 1.418 . S
C45 C44 1.251 . S
C46 H13 0.930 . S
C46 C48 1.406 . S
C46 C51 1.261 . S
C47 H14 0.930 . S
C47 N49 1.325 . S
C47 C50 1.357 . S
C48 H16 0.928 . S
C48 C46 1.406 . S
C48 N49 1.261 . S
N49 Co0 2.214 . S
N49 C47 1.325 . S
N49 C48 1.261 . S
C50 H20 0.931 . S
C50 C47 1.357 . S
C50 C51 1.312 . S
C51 H22 0.930 . S
C51 C46 1.261 . S
C51 C50 1.312 . S
C52 O24 1.214 . S
C52 O32 1.234 . S
C53 H25 0.929 . S
C53 C56 1.391 . S
C53 C58 1.391 . S
C54 H26 0.929 . S
C54 C55 1.390 . S
C54 N57 1.391 . S
C55 H27 0.930 . S
C55 C54 1.390 . S
C55 C56 1.392 . S
C56 H28 0.929 . S
C56 C53 1.391 . S
C56 C55 1.392 . S
N57 Co1 2.257 . S
N57 C54 1.391 . S
N57 C58 1.388 . S
C58 H29 0.930 . S
C58 C53 1.391 . S
C58 N57 1.388 . S
Co59 O61 2.143 . S
Co59 O67 2.074 . S
Co59 O70 2.093 . S
Co59 O83 2.097 . S
Co59 N100 2.151 . S
Co59 N108 2.214 . S
Co60 O61 2.160 . S
Co60 O66 2.058 . S
Co60 O76 2.057 . S
Co60 O91 2.037 . S
Co60 N95 2.145 . S
Co60 N116 2.257 . S
O61 Co59 2.143 . S
O61 Co60 2.160 . S
C62 O63 1.278 . S
C62 O70 1.224 . S
O63 C62 1.278 . S
C64 O65 1.245 . S
C64 O76 1.232 . S
O65 C64 1.245 . S
O66 Co60 2.058 . S
O66 C92 1.269 . S
O67 Co59 2.074 . S
O67 C92 1.257 . S
H68 C93 0.930 . S
H69 C99 0.930 . S
O70 Co59 2.093 . S
O70 C62 1.224 . S
H71 C103 0.929 . S
H72 C105 0.930 . S
H73 C106 0.930 . S
H74 C104 0.929 . S
H75 C107 0.928 . S
O76 Co60 2.057 . S
O76 C64 1.232 . S
H77 C96 0.929 . S
H78 C97 0.929 . S
H79 C109 0.931 . S
H80 C101 0.929 . S
H81 C110 0.930 . S
H82 C102 0.931 . S
O83 Co59 2.097 . S
O83 C111 1.214 . S
H84 C112 0.929 . S
H85 C113 0.929 . S
H86 C114 0.930 . S
H87 C115 0.929 . S
H88 C117 0.930 . S
H89 C94 0.930 . S
H90 C98 0.930 . S
O91 Co60 2.037 . S
O91 C111 1.234 . S
C92 O66 1.269 . S
C92 O67 1.257 . S
C93 H68 0.930 . S
C93 C96 1.388 . S
C93 C98 1.418 . S
C94 H89 0.930 . S
C94 C97 1.404 . S
C94 C98 1.353 . S
N95 Co60 2.145 . S
N95 C96 1.397 . S
N95 C97 1.334 . S
C96 H77 0.929 . S
C96 C93 1.388 . S
C96 N95 1.397 . S
C97 H78 0.929 . S
C97 C94 1.404 . S
C97 N95 1.334 . S
C98 H90 0.930 . S
C98 C93 1.418 . S
C98 C94 1.353 . S
C99 H69 0.930 . S
C99 N100 1.330 . S
C99 C101 1.446 . S
N100 Co59 2.151 . S
N100 C99 1.330 . S
N100 C104 1.418 . S
C101 H80 0.929 . S
C101 C99 1.446 . S
C101 C102 1.332 . S
C102 H82 0.931 . S
C102 C101 1.332 . S
C102 C103 1.267 . S
C103 H71 0.929 . S
C103 C102 1.267 . S
C103 C104 1.251 . S
C104 H74 0.929 . S
C104 N100 1.418 . S
C104 C103 1.251 . S
C105 H72 0.930 . S
C105 C107 1.406 . S
C105 C110 1.261 . S
C106 H73 0.930 . S
C106 N108 1.325 . S
C106 C109 1.357 . S
C107 H75 0.928 . S
C107 C105 1.406 . S
C107 N108 1.261 . S
N108 Co59 2.214 . S
N108 C106 1.325 . S
N108 C107 1.261 . S
C109 H79 0.931 . S
C109 C106 1.357 . S
C109 C110 1.312 . S
C110 H81 0.930 . S
C110 C105 1.261 . S
C110 C109 1.312 . S
C111 O83 1.214 . S
C111 O91 1.234 . S
C112 H84 0.929 . S
C112 C115 1.391 . S
C112 C117 1.391 . S
C113 H85 0.929 . S
C113 C114 1.390 . S
C113 N116 1.391 . S
C114 H86 0.930 . S
C114 C113 1.390 . S
C114 C115 1.392 . S
C115 H87 0.929 . S
C115 C112 1.391 . S
C115 C114 1.392 . S
N116 Co60 2.257 . S
N116 C113 1.391 . S
N116 C117 1.388 . S
C117 H88 0.930 . S
C117 C112 1.391 . S
C117 N116 1.388 . S
Co118 O120 2.143 . S
Co118 O126 2.074 . S
Co118 O129 2.093 . S
Co118 O142 2.097 . S
Co118 N159 2.151 . S
Co118 N167 2.214 . S
Co119 O120 2.160 . S
Co119 O125 2.058 . S
Co119 O135 2.057 . S
Co119 O150 2.037 . S
Co119 N154 2.145 . S
Co119 N175 2.257 . S
O120 Co118 2.143 . S
O120 Co119 2.160 . S
C121 O122 1.278 . S
C121 O129 1.224 . S
O122 C121 1.278 . S
C123 O124 1.245 . S
C123 O135 1.232 . S
O124 C123 1.245 . S
O125 Co119 2.058 . S
O125 C151 1.269 . S
O126 Co118 2.074 . S
O126 C151 1.257 . S
H127 C152 0.930 . S
H128 C158 0.930 . S
O129 Co118 2.093 . S
O129 C121 1.224 . S
H130 C162 0.929 . S
H131 C164 0.930 . S
H132 C165 0.930 . S
H133 C163 0.929 . S
H134 C166 0.928 . S
O135 Co119 2.057 . S
O135 C123 1.232 . S
H136 C155 0.929 . S
H137 C156 0.929 . S
H138 C168 0.931 . S
H139 C160 0.929 . S
H140 C169 0.930 . S
H141 C161 0.931 . S
O142 Co118 2.097 . S
O142 C170 1.214 . S
H143 C171 0.929 . S
H144 C172 0.929 . S
H145 C173 0.930 . S
H146 C174 0.929 . S
H147 C176 0.930 . S
H148 C153 0.930 . S
H149 C157 0.930 . S
O150 Co119 2.037 . S
O150 C170 1.234 . S
C151 O125 1.269 . S
C151 O126 1.257 . S
C152 H127 0.930 . S
C152 C155 1.388 . S
C152 C157 1.418 . S
C153 H148 0.930 . S
C153 C156 1.404 . S
C153 C157 1.353 . S
N154 Co119 2.145 . S
N154 C155 1.397 . S
N154 C156 1.334 . S
C155 H136 0.929 . S
C155 C152 1.388 . S
C155 N154 1.397 . S
C156 H137 0.929 . S
C156 C153 1.404 . S
C156 N154 1.334 . S
C157 H149 0.930 . S
C157 C152 1.418 . S
C157 C153 1.353 . S
C158 H128 0.930 . S
C158 N159 1.330 . S
C158 C160 1.446 . S
N159 Co118 2.151 . S
N159 C158 1.330 . S
N159 C163 1.418 . S
C160 H139 0.929 . S
C160 C158 1.446 . S
C160 C161 1.332 . S
C161 H141 0.931 . S
C161 C160 1.332 . S
C161 C162 1.267 . S
C162 H130 0.929 . S
C162 C161 1.267 . S
C162 C163 1.251 . S
C163 H133 0.929 . S
C163 N159 1.418 . S
C163 C162 1.251 . S
C164 H131 0.930 . S
C164 C166 1.406 . S
C164 C169 1.261 . S
C165 H132 0.930 . S
C165 N167 1.325 . S
C165 C168 1.357 . S
C166 H134 0.928 . S
C166 C164 1.406 . S
C166 N167 1.261 . S
N167 Co118 2.214 . S
N167 C165 1.325 . S
N167 C166 1.261 . S
C168 H138 0.931 . S
C168 C165 1.357 . S
C168 C169 1.312 . S
C169 H140 0.930 . S
C169 C164 1.261 . S
C169 C168 1.312 . S
C170 O142 1.214 . S
C170 O150 1.234 . S
C171 H143 0.929 . S
C171 C174 1.391 . S
C171 C176 1.391 . S
C172 H144 0.929 . S
C172 C173 1.390 . S
C172 N175 1.391 . S
C173 H145 0.930 . S
C173 C172 1.390 . S
C173 C174 1.392 . S
C174 H146 0.929 . S
C174 C171 1.391 . S
C174 C173 1.392 . S
N175 Co119 2.257 . S
N175 C172 1.391 . S
N175 C176 1.388 . S
C176 H147 0.930 . S
C176 C171 1.391 . S
C176 N175 1.388 . S
Co177 O179 2.143 . S
Co177 O185 2.074 . S
Co177 O188 2.093 . S
Co177 O201 2.097 . S
Co177 N218 2.151 . S
Co177 N226 2.214 . S
Co178 O179 2.160 . S
Co178 O184 2.058 . S
Co178 O194 2.057 . S
Co178 O209 2.037 . S
Co178 N213 2.145 . S
Co178 N234 2.257 . S
O179 Co177 2.143 . S
O179 Co178 2.160 . S
C180 O181 1.278 . S
C180 O188 1.224 . S
O181 C180 1.278 . S
C182 O183 1.245 . S
C182 O194 1.232 . S
O183 C182 1.245 . S
O184 Co178 2.058 . S
O184 C210 1.269 . S
O185 Co177 2.074 . S
O185 C210 1.257 . S
H186 C211 0.930 . S
H187 C217 0.930 . S
O188 Co177 2.093 . S
O188 C180 1.224 . S
H189 C221 0.929 . S
H190 C223 0.930 . S
H191 C224 0.930 . S
H192 C222 0.929 . S
H193 C225 0.928 . S
O194 Co178 2.057 . S
O194 C182 1.232 . S
H195 C214 0.929 . S
H196 C215 0.929 . S
H197 C227 0.931 . S
H198 C219 0.929 . S
H199 C228 0.930 . S
H200 C220 0.931 . S
O201 Co177 2.097 . S
O201 C229 1.214 . S
H202 C230 0.929 . S
H203 C231 0.929 . S
H204 C232 0.930 . S
H205 C233 0.929 . S
H206 C235 0.930 . S
H207 C212 0.930 . S
H208 C216 0.930 . S
O209 Co178 2.037 . S
O209 C229 1.234 . S
C210 O184 1.269 . S
C210 O185 1.257 . S
C211 H186 0.930 . S
C211 C214 1.388 . S
C211 C216 1.418 . S
C212 H207 0.930 . S
C212 C215 1.404 . S
C212 C216 1.353 . S
N213 Co178 2.145 . S
N213 C214 1.397 . S
N213 C215 1.334 . S
C214 H195 0.929 . S
C214 C211 1.388 . S
C214 N213 1.397 . S
C215 H196 0.929 . S
C215 C212 1.404 . S
C215 N213 1.334 . S
C216 H208 0.930 . S
C216 C211 1.418 . S
C216 C212 1.353 . S
C217 H187 0.930 . S
C217 N218 1.330 . S
C217 C219 1.446 . S
N218 Co177 2.151 . S
N218 C217 1.330 . S
N218 C222 1.418 . S
C219 H198 0.929 . S
C219 C217 1.446 . S
C219 C220 1.332 . S
C220 H200 0.931 . S
C220 C219 1.332 . S
C220 C221 1.267 . S
C221 H189 0.929 . S
C221 C220 1.267 . S
C221 C222 1.251 . S
C222 H192 0.929 . S
C222 N218 1.418 . S
C222 C221 1.251 . S
C223 H190 0.930 . S
C223 C225 1.406 . S
C223 C228 1.261 . S
C224 H191 0.930 . S
C224 N226 1.325 . S
C224 C227 1.357 . S
C225 H193 0.928 . S
C225 C223 1.406 . S
C225 N226 1.261 . S
N226 Co177 2.214 . S
N226 C224 1.325 . S
N226 C225 1.261 . S
C227 H197 0.931 . S
C227 C224 1.357 . S
C227 C228 1.312 . S
C228 H199 0.930 . S
C228 C223 1.261 . S
C228 C227 1.312 . S
C229 O201 1.214 . S
C229 O209 1.234 . S
C230 H202 0.929 . S
C230 C233 1.391 . S
C230 C235 1.391 . S
C231 H203 0.929 . S
C231 C232 1.390 . S
C231 N234 1.391 . S
C232 H204 0.930 . S
C232 C231 1.390 . S
C232 C233 1.392 . S
C233 H205 0.929 . S
C233 C230 1.391 . S
C233 C232 1.392 . S
N234 Co178 2.257 . S
N234 C231 1.391 . S
N234 C235 1.388 . S
C235 H206 0.930 . S
C235 C230 1.391 . S
C235 N234 1.388 . S
Co236 O238 2.143 . S
Co236 O244 2.074 . S
Co236 O247 2.093 . S
Co236 O260 2.097 . S
Co236 N277 2.151 . S
Co236 N285 2.214 . S
Co237 O238 2.160 . S
Co237 O243 2.058 . S
Co237 O253 2.057 . S
Co237 O268 2.037 . S
Co237 N272 2.145 . S
Co237 N293 2.257 . S
O238 Co236 2.143 . S
O238 Co237 2.160 . S
C239 O240 1.278 . S
C239 O247 1.224 . S
O240 C239 1.278 . S
C241 O242 1.245 . S
C241 O253 1.232 . S
O242 C241 1.245 . S
O243 Co237 2.058 . S
O243 C269 1.269 . S
O244 Co236 2.074 . S
O244 C269 1.257 . S
H245 C270 0.930 . S
H246 C276 0.930 . S
O247 Co236 2.093 . S
O247 C239 1.224 . S
H248 C280 0.929 . S
H249 C282 0.930 . S
H250 C283 0.930 . S
H251 C281 0.929 . S
H252 C284 0.928 . S
O253 Co237 2.057 . S
O253 C241 1.232 . S
H254 C273 0.929 . S
H255 C274 0.929 . S
H256 C286 0.931 . S
H257 C278 0.929 . S
H258 C287 0.930 . S
H259 C279 0.931 . S
O260 Co236 2.097 . S
O260 C288 1.214 . S
H261 C289 0.929 . S
H262 C290 0.929 . S
H263 C291 0.930 . S
H264 C292 0.929 . S
H265 C294 0.930 . S
H266 C271 0.930 . S
H267 C275 0.930 . S
O268 Co237 2.037 . S
O268 C288 1.234 . S
C269 O243 1.269 . S
C269 O244 1.257 . S
C270 H245 0.930 . S
C270 C273 1.388 . S
C270 C275 1.418 . S
C271 H266 0.930 . S
C271 C274 1.404 . S
C271 C275 1.353 . S
N272 Co237 2.145 . S
N272 C273 1.397 . S
N272 C274 1.334 . S
C273 H254 0.929 . S
C273 C270 1.388 . S
C273 N272 1.397 . S
C274 H255 0.929 . S
C274 C271 1.404 . S
C274 N272 1.334 . S
C275 H267 0.930 . S
C275 C270 1.418 . S
C275 C271 1.353 . S
C276 H246 0.930 . S
C276 N277 1.330 . S
C276 C278 1.446 . S
N277 Co236 2.151 . S
N277 C276 1.330 . S
N277 C281 1.418 . S
C278 H257 0.929 . S
C278 C276 1.446 . S
C278 C279 1.332 . S
C279 H259 0.931 . S
C279 C278 1.332 . S
C279 C280 1.267 . S
C280 H248 0.929 . S
C280 C279 1.267 . S
C280 C281 1.251 . S
C281 H251 0.929 . S
C281 N277 1.418 . S
C281 C280 1.251 . S
C282 H249 0.930 . S
C282 C284 1.406 . S
C282 C287 1.261 . S
C283 H250 0.930 . S
C283 N285 1.325 . S
C283 C286 1.357 . S
C284 H252 0.928 . S
C284 C282 1.406 . S
C284 N285 1.261 . S
N285 Co236 2.214 . S
N285 C283 1.325 . S
N285 C284 1.261 . S
C286 H256 0.931 . S
C286 C283 1.357 . S
C286 C287 1.312 . S
C287 H258 0.930 . S
C287 C282 1.261 . S
C287 C286 1.312 . S
C288 O260 1.214 . S
C288 O268 1.234 . S
C289 H261 0.929 . S
C289 C292 1.391 . S
C289 C294 1.391 . S
C290 H262 0.929 . S
C290 C291 1.390 . S
C290 N293 1.391 . S
C291 H263 0.930 . S
C291 C290 1.390 . S
C291 C292 1.392 . S
C292 H264 0.929 . S
C292 C289 1.391 . S
C292 C291 1.392 . S
N293 Co237 2.257 . S
N293 C290 1.391 . S
N293 C294 1.388 . S
C294 H265 0.930 . S
C294 C289 1.391 . S
C294 N293 1.388 . S
Co295 O297 2.143 . S
Co295 O303 2.074 . S
Co295 O306 2.093 . S
Co295 O319 2.097 . S
Co295 N336 2.151 . S
Co295 N344 2.214 . S
Co296 O297 2.160 . S
Co296 O302 2.058 . S
Co296 O312 2.057 . S
Co296 O327 2.037 . S
Co296 N331 2.145 . S
Co296 N352 2.257 . S
O297 Co295 2.143 . S
O297 Co296 2.160 . S
C298 O299 1.278 . S
C298 O306 1.224 . S
O299 C298 1.278 . S
C300 O301 1.245 . S
C300 O312 1.232 . S
O301 C300 1.245 . S
O302 Co296 2.058 . S
O302 C328 1.269 . S
O303 Co295 2.074 . S
O303 C328 1.257 . S
H304 C329 0.930 . S
H305 C335 0.930 . S
O306 Co295 2.093 . S
O306 C298 1.224 . S
H307 C339 0.929 . S
H308 C341 0.930 . S
H309 C342 0.930 . S
H310 C340 0.929 . S
H311 C343 0.928 . S
O312 Co296 2.057 . S
O312 C300 1.232 . S
H313 C332 0.929 . S
H314 C333 0.929 . S
H315 C345 0.931 . S
H316 C337 0.929 . S
H317 C346 0.930 . S
H318 C338 0.931 . S
O319 Co295 2.097 . S
O319 C347 1.214 . S
H320 C348 0.929 . S
H321 C349 0.929 . S
H322 C350 0.930 . S
H323 C351 0.929 . S
H324 C353 0.930 . S
H325 C330 0.930 . S
H326 C334 0.930 . S
O327 Co296 2.037 . S
O327 C347 1.234 . S
C328 O302 1.269 . S
C328 O303 1.257 . S
C329 H304 0.930 . S
C329 C332 1.388 . S
C329 C334 1.418 . S
C330 H325 0.930 . S
C330 C333 1.404 . S
C330 C334 1.353 . S
N331 Co296 2.145 . S
N331 C332 1.397 . S
N331 C333 1.334 . S
C332 H313 0.929 . S
C332 C329 1.388 . S
C332 N331 1.397 . S
C333 H314 0.929 . S
C333 C330 1.404 . S
C333 N331 1.334 . S
C334 H326 0.930 . S
C334 C329 1.418 . S
C334 C330 1.353 . S
C335 H305 0.930 . S
C335 N336 1.330 . S
C335 C337 1.446 . S
N336 Co295 2.151 . S
N336 C335 1.330 . S
N336 C340 1.418 . S
C337 H316 0.929 . S
C337 C335 1.446 . S
C337 C338 1.332 . S
C338 H318 0.931 . S
C338 C337 1.332 . S
C338 C339 1.267 . S
C339 H307 0.929 . S
C339 C338 1.267 . S
C339 C340 1.251 . S
C340 H310 0.929 . S
C340 N336 1.418 . S
C340 C339 1.251 . S
C341 H308 0.930 . S
C341 C343 1.406 . S
C341 C346 1.261 . S
C342 H309 0.930 . S
C342 N344 1.325 . S
C342 C345 1.357 . S
C343 H311 0.928 . S
C343 C341 1.406 . S
C343 N344 1.261 . S
N344 Co295 2.214 . S
N344 C342 1.325 . S
N344 C343 1.261 . S
C345 H315 0.931 . S
C345 C342 1.357 . S
C345 C346 1.312 . S
C346 H317 0.930 . S
C346 C341 1.261 . S
C346 C345 1.312 . S
C347 O319 1.214 . S
C347 O327 1.234 . S
C348 H320 0.929 . S
C348 C351 1.391 . S
C348 C353 1.391 . S
C349 H321 0.929 . S
C349 C350 1.390 . S
C349 N352 1.391 . S
C350 H322 0.930 . S
C350 C349 1.390 . S
C350 C351 1.392 . S
C351 H323 0.929 . S
C351 C348 1.391 . S
C351 C350 1.392 . S
N352 Co296 2.257 . S
N352 C349 1.391 . S
N352 C353 1.388 . S
C353 H324 0.930 . S
C353 C348 1.391 . S
C353 N352 1.388 . S
Co354 O356 2.143 . S
Co354 O362 2.074 . S
Co354 O365 2.093 . S
Co354 O378 2.097 . S
Co354 N395 2.151 . S
Co354 N403 2.214 . S
Co355 O356 2.160 . S
Co355 O361 2.058 . S
Co355 O371 2.057 . S
Co355 O386 2.037 . S
Co355 N390 2.145 . S
Co355 N411 2.257 . S
O356 Co354 2.143 . S
O356 Co355 2.160 . S
C357 O358 1.278 . S
C357 O365 1.224 . S
O358 C357 1.278 . S
C359 O360 1.245 . S
C359 O371 1.232 . S
O360 C359 1.245 . S
O361 Co355 2.058 . S
O361 C387 1.269 . S
O362 Co354 2.074 . S
O362 C387 1.257 . S
H363 C388 0.930 . S
H364 C394 0.930 . S
O365 Co354 2.093 . S
O365 C357 1.224 . S
H366 C398 0.929 . S
H367 C400 0.930 . S
H368 C401 0.930 . S
H369 C399 0.929 . S
H370 C402 0.928 . S
O371 Co355 2.057 . S
O371 C359 1.232 . S
H372 C391 0.929 . S
H373 C392 0.929 . S
H374 C404 0.931 . S
H375 C396 0.929 . S
H376 C405 0.930 . S
H377 C397 0.931 . S
O378 Co354 2.097 . S
O378 C406 1.214 . S
H379 C407 0.929 . S
H380 C408 0.929 . S
H381 C409 0.930 . S
H382 C410 0.929 . S
H383 C412 0.930 . S
H384 C389 0.930 . S
H385 C393 0.930 . S
O386 Co355 2.037 . S
O386 C406 1.234 . S
C387 O361 1.269 . S
C387 O362 1.257 . S
C388 H363 0.930 . S
C388 C391 1.388 . S
C388 C393 1.418 . S
C389 H384 0.930 . S
C389 C392 1.404 . S
C389 C393 1.353 . S
N390 Co355 2.145 . S
N390 C391 1.397 . S
N390 C392 1.334 . S
C391 H372 0.929 . S
C391 C388 1.388 . S
C391 N390 1.397 . S
C392 H373 0.929 . S
C392 C389 1.404 . S
C392 N390 1.334 . S
C393 H385 0.930 . S
C393 C388 1.418 . S
C393 C389 1.353 . S
C394 H364 0.930 . S
C394 N395 1.330 . S
C394 C396 1.446 . S
N395 Co354 2.151 . S
N395 C394 1.330 . S
N395 C399 1.418 . S
C396 H375 0.929 . S
C396 C394 1.446 . S
C396 C397 1.332 . S
C397 H377 0.931 . S
C397 C396 1.332 . S
C397 C398 1.267 . S
C398 H366 0.929 . S
C398 C397 1.267 . S
C398 C399 1.251 . S
C399 H369 0.929 . S
C399 N395 1.418 . S
C399 C398 1.251 . S
C400 H367 0.930 . S
C400 C402 1.406 . S
C400 C405 1.261 . S
C401 H368 0.930 . S
C401 N403 1.325 . S
C401 C404 1.357 . S
C402 H370 0.928 . S
C402 C400 1.406 . S
C402 N403 1.261 . S
N403 Co354 2.214 . S
N403 C401 1.325 . S
N403 C402 1.261 . S
C404 H374 0.931 . S
C404 C401 1.357 . S
C404 C405 1.312 . S
C405 H376 0.930 . S
C405 C400 1.261 . S
C405 C404 1.312 . S
C406 O378 1.214 . S
C406 O386 1.234 . S
C407 H379 0.929 . S
C407 C410 1.391 . S
C407 C412 1.391 . S
C408 H380 0.929 . S
C408 C409 1.390 . S
C408 N411 1.391 . S
C409 H381 0.930 . S
C409 C408 1.390 . S
C409 C410 1.392 . S
C410 H382 0.929 . S
C410 C407 1.391 . S
C410 C409 1.392 . S
N411 Co355 2.257 . S
N411 C408 1.391 . S
N411 C412 1.388 . S
C412 H383 0.930 . S
C412 C407 1.391 . S
C412 N411 1.388 . S
Co413 O415 2.143 . S
Co413 O421 2.074 . S
Co413 O424 2.093 . S
Co413 O437 2.097 . S
Co413 N454 2.151 . S
Co413 N462 2.214 . S
Co414 O415 2.160 . S
Co414 O420 2.058 . S
Co414 O430 2.057 . S
Co414 O445 2.037 . S
Co414 N449 2.145 . S
Co414 N470 2.257 . S
O415 Co413 2.143 . S
O415 Co414 2.160 . S
C416 O417 1.278 . S
C416 O424 1.224 . S
O417 C416 1.278 . S
C418 O419 1.245 . S
C418 O430 1.232 . S
O419 C418 1.245 . S
O420 Co414 2.058 . S
O420 C446 1.269 . S
O421 Co413 2.074 . S
O421 C446 1.257 . S
H422 C447 0.930 . S
H423 C453 0.930 . S
O424 Co413 2.093 . S
O424 C416 1.224 . S
H425 C457 0.929 . S
H426 C459 0.930 . S
H427 C460 0.930 . S
H428 C458 0.929 . S
H429 C461 0.928 . S
O430 Co414 2.057 . S
O430 C418 1.232 . S
H431 C450 0.929 . S
H432 C451 0.929 . S
H433 C463 0.931 . S
H434 C455 0.929 . S
H435 C464 0.930 . S
H436 C456 0.931 . S
O437 Co413 2.097 . S
O437 C465 1.214 . S
H438 C466 0.929 . S
H439 C467 0.929 . S
H440 C468 0.930 . S
H441 C469 0.929 . S
H442 C471 0.930 . S
H443 C448 0.930 . S
H444 C452 0.930 . S
O445 Co414 2.037 . S
O445 C465 1.234 . S
C446 O420 1.269 . S
C446 O421 1.257 . S
C447 H422 0.930 . S
C447 C450 1.388 . S
C447 C452 1.418 . S
C448 H443 0.930 . S
C448 C451 1.404 . S
C448 C452 1.353 . S
N449 Co414 2.145 . S
N449 C450 1.397 . S
N449 C451 1.334 . S
C450 H431 0.929 . S
C450 C447 1.388 . S
C450 N449 1.397 . S
C451 H432 0.929 . S
C451 C448 1.404 . S
C451 N449 1.334 . S
C452 H444 0.930 . S
C452 C447 1.418 . S
C452 C448 1.353 . S
C453 H423 0.930 . S
C453 N454 1.330 . S
C453 C455 1.446 . S
N454 Co413 2.151 . S
N454 C453 1.330 . S
N454 C458 1.418 . S
C455 H434 0.929 . S
C455 C453 1.446 . S
C455 C456 1.332 . S
C456 H436 0.931 . S
C456 C455 1.332 . S
C456 C457 1.267 . S
C457 H425 0.929 . S
C457 C456 1.267 . S
C457 C458 1.251 . S
C458 H428 0.929 . S
C458 N454 1.418 . S
C458 C457 1.251 . S
C459 H426 0.930 . S
C459 C461 1.406 . S
C459 C464 1.261 . S
C460 H427 0.930 . S
C460 N462 1.325 . S
C460 C463 1.357 . S
C461 H429 0.928 . S
C461 C459 1.406 . S
C461 N462 1.261 . S
N462 Co413 2.214 . S
N462 C460 1.325 . S
N462 C461 1.261 . S
C463 H433 0.931 . S
C463 C460 1.357 . S
C463 C464 1.312 . S
C464 H435 0.930 . S
C464 C459 1.261 . S
C464 C463 1.312 . S
C465 O437 1.214 . S
C465 O445 1.234 . S
C466 H438 0.929 . S
C466 C469 1.391 . S
C466 C471 1.391 . S
C467 H439 0.929 . S
C467 C468 1.390 . S
C467 N470 1.391 . S
C468 H440 0.930 . S
C468 C467 1.390 . S
C468 C469 1.392 . S
C469 H441 0.929 . S
C469 C466 1.391 . S
C469 C468 1.392 . S
N470 Co414 2.257 . S
N470 C467 1.391 . S
N470 C471 1.388 . S
C471 H442 0.930 . S
C471 C466 1.391 . S
C471 N470 1.388 . S
Co472 O474 2.143 . S
Co472 O480 2.074 . S
Co472 O483 2.093 . S
Co472 O496 2.097 . S
Co472 N513 2.151 . S
Co472 N521 2.214 . S
Co473 O474 2.160 . S
Co473 O479 2.058 . S
Co473 O489 2.057 . S
Co473 O504 2.037 . S
Co473 N508 2.145 . S
Co473 N529 2.257 . S
O474 Co472 2.143 . S
O474 Co473 2.160 . S
C475 O476 1.278 . S
C475 O483 1.224 . S
O476 C475 1.278 . S
C477 O478 1.245 . S
C477 O489 1.232 . S
O478 C477 1.245 . S
O479 Co473 2.058 . S
O479 C505 1.269 . S
O480 Co472 2.074 . S
O480 C505 1.257 . S
H481 C506 0.930 . S
H482 C512 0.930 . S
O483 Co472 2.093 . S
O483 C475 1.224 . S
H484 C516 0.929 . S
H485 C518 0.930 . S
H486 C519 0.930 . S
H487 C517 0.929 . S
H488 C520 0.928 . S
O489 Co473 2.057 . S
O489 C477 1.232 . S
H490 C509 0.929 . S
H491 C510 0.929 . S
H492 C522 0.931 . S
H493 C514 0.929 . S
H494 C523 0.930 . S
H495 C515 0.931 . S
O496 Co472 2.097 . S
O496 C524 1.214 . S
H497 C525 0.929 . S
H498 C526 0.929 . S
H499 C527 0.930 . S
H500 C528 0.929 . S
H501 C530 0.930 . S
H502 C507 0.930 . S
H503 C511 0.930 . S
O504 Co473 2.037 . S
O504 C524 1.234 . S
C505 O479 1.269 . S
C505 O480 1.257 . S
C506 H481 0.930 . S
C506 C509 1.388 . S
C506 C511 1.418 . S
C507 H502 0.930 . S
C507 C510 1.404 . S
C507 C511 1.353 . S
N508 Co473 2.145 . S
N508 C509 1.397 . S
N508 C510 1.334 . S
C509 H490 0.929 . S
C509 C506 1.388 . S
C509 N508 1.397 . S
C510 H491 0.929 . S
C510 C507 1.404 . S
C510 N508 1.334 . S
C511 H503 0.930 . S
C511 C506 1.418 . S
C511 C507 1.353 . S
C512 H482 0.930 . S
C512 N513 1.330 . S
C512 C514 1.446 . S
N513 Co472 2.151 . S
N513 C512 1.330 . S
N513 C517 1.418 . S
C514 H493 0.929 . S
C514 C512 1.446 . S
C514 C515 1.332 . S
C515 H495 0.931 . S
C515 C514 1.332 . S
C515 C516 1.267 . S
C516 H484 0.929 . S
C516 C515 1.267 . S
C516 C517 1.251 . S
C517 H487 0.929 . S
C517 N513 1.418 . S
C517 C516 1.251 . S
C518 H485 0.930 . S
C518 C520 1.406 . S
C518 C523 1.261 . S
C519 H486 0.930 . S
C519 N521 1.325 . S
C519 C522 1.357 . S
C520 H488 0.928 . S
C520 C518 1.406 . S
C520 N521 1.261 . S
N521 Co472 2.214 . S
N521 C519 1.325 . S
N521 C520 1.261 . S
C522 H492 0.931 . S
C522 C519 1.357 . S
C522 C523 1.312 . S
C523 H494 0.930 . S
C523 C518 1.261 . S
C523 C522 1.312 . S
C524 O496 1.214 . S
C524 O504 1.234 . S
C525 H497 0.929 . S
C525 C528 1.391 . S
C525 C530 1.391 . S
C526 H498 0.929 . S
C526 C527 1.390 . S
C526 N529 1.391 . S
C527 H499 0.930 . S
C527 C526 1.390 . S
C527 C528 1.392 . S
C528 H500 0.929 . S
C528 C525 1.391 . S
C528 C527 1.392 . S
N529 Co473 2.257 . S
N529 C526 1.391 . S
N529 C530 1.388 . S
C530 H501 0.930 . S
C530 C525 1.391 . S
C530 N529 1.388 . S
Co531 O533 2.143 . S
Co531 O539 2.074 . S
Co531 O542 2.093 . S
Co531 O555 2.097 . S
Co531 N572 2.151 . S
Co531 N580 2.214 . S
Co532 O533 2.160 . S
Co532 O538 2.058 . S
Co532 O548 2.057 . S
Co532 O563 2.037 . S
Co532 N567 2.145 . S
Co532 N588 2.257 . S
O533 Co531 2.143 . S
O533 Co532 2.160 . S
C534 O535 1.278 . S
C534 O542 1.224 . S
O535 C534 1.278 . S
C536 O537 1.245 . S
C536 O548 1.232 . S
O537 C536 1.245 . S
O538 Co532 2.058 . S
O538 C564 1.269 . S
O539 Co531 2.074 . S
O539 C564 1.257 . S
H540 C565 0.930 . S
H541 C571 0.930 . S
O542 Co531 2.093 . S
O542 C534 1.224 . S
H543 C575 0.929 . S
H544 C577 0.930 . S
H545 C578 0.930 . S
H546 C576 0.929 . S
H547 C579 0.928 . S
O548 Co532 2.057 . S
O548 C536 1.232 . S
H549 C568 0.929 . S
H550 C569 0.929 . S
H551 C581 0.931 . S
H552 C573 0.929 . S
H553 C582 0.930 . S
H554 C574 0.931 . S
O555 Co531 2.097 . S
O555 C583 1.214 . S
H556 C584 0.929 . S
H557 C585 0.929 . S
H558 C586 0.930 . S
H559 C587 0.929 . S
H560 C589 0.930 . S
H561 C566 0.930 . S
H562 C570 0.930 . S
O563 Co532 2.037 . S
O563 C583 1.234 . S
C564 O538 1.269 . S
C564 O539 1.257 . S
C565 H540 0.930 . S
C565 C568 1.388 . S
C565 C570 1.418 . S
C566 H561 0.930 . S
C566 C569 1.404 . S
C566 C570 1.353 . S
N567 Co532 2.145 . S
N567 C568 1.397 . S
N567 C569 1.334 . S
C568 H549 0.929 . S
C568 C565 1.388 . S
C568 N567 1.397 . S
C569 H550 0.929 . S
C569 C566 1.404 . S
C569 N567 1.334 . S
C570 H562 0.930 . S
C570 C565 1.418 . S
C570 C566 1.353 . S
C571 H541 0.930 . S
C571 N572 1.330 . S
C571 C573 1.446 . S
N572 Co531 2.151 . S
N572 C571 1.330 . S
N572 C576 1.418 . S
C573 H552 0.929 . S
C573 C571 1.446 . S
C573 C574 1.332 . S
C574 H554 0.931 . S
C574 C573 1.332 . S
C574 C575 1.267 . S
C575 H543 0.929 . S
C575 C574 1.267 . S
C575 C576 1.251 . S
C576 H546 0.929 . S
C576 N572 1.418 . S
C576 C575 1.251 . S
C577 H544 0.930 . S
C577 C579 1.406 . S
C577 C582 1.261 . S
C578 H545 0.930 . S
C578 N580 1.325 . S
C578 C581 1.357 . S
C579 H547 0.928 . S
C579 C577 1.406 . S
C579 N580 1.261 . S
N580 Co531 2.214 . S
N580 C578 1.325 . S
N580 C579 1.261 . S
C581 H551 0.931 . S
C581 C578 1.357 . S
C581 C582 1.312 . S
C582 H553 0.930 . S
C582 C577 1.261 . S
C582 C581 1.312 . S
C583 O555 1.214 . S
C583 O563 1.234 . S
C584 H556 0.929 . S
C584 C587 1.391 . S
C584 C589 1.391 . S
C585 H557 0.929 . S
C585 C586 1.390 . S
C585 N588 1.391 . S
C586 H558 0.930 . S
C586 C585 1.390 . S
C586 C587 1.392 . S
C587 H559 0.929 . S
C587 C584 1.391 . S
C587 C586 1.392 . S
N588 Co532 2.257 . S
N588 C585 1.391 . S
N588 C589 1.388 . S
C589 H560 0.930 . S
C589 C584 1.391 . S
C589 N588 1.388 . S
Co590 O592 2.143 . S
Co590 O598 2.074 . S
Co590 O601 2.093 . S
Co590 O614 2.097 . S
Co590 N631 2.151 . S
Co590 N639 2.214 . S
Co591 O592 2.160 . S
Co591 O597 2.058 . S
Co591 O607 2.057 . S
Co591 O622 2.037 . S
Co591 N626 2.145 . S
Co591 N647 2.257 . S
O592 Co590 2.143 . S
O592 Co591 2.160 . S
C593 O594 1.278 . S
C593 O601 1.224 . S
O594 C593 1.278 . S
C595 O596 1.245 . S
C595 O607 1.232 . S
O596 C595 1.245 . S
O597 Co591 2.058 . S
O597 C623 1.269 . S
O598 Co590 2.074 . S
O598 C623 1.257 . S
H599 C624 0.930 . S
H600 C630 0.930 . S
O601 Co590 2.093 . S
O601 C593 1.224 . S
H602 C634 0.929 . S
H603 C636 0.930 . S
H604 C637 0.930 . S
H605 C635 0.929 . S
H606 C638 0.928 . S
O607 Co591 2.057 . S
O607 C595 1.232 . S
H608 C627 0.929 . S
H609 C628 0.929 . S
H610 C640 0.931 . S
H611 C632 0.929 . S
H612 C641 0.930 . S
H613 C633 0.931 . S
O614 Co590 2.097 . S
O614 C642 1.214 . S
H615 C643 0.929 . S
H616 C644 0.929 . S
H617 C645 0.930 . S
H618 C646 0.929 . S
H619 C648 0.930 . S
H620 C625 0.930 . S
H621 C629 0.930 . S
O622 Co591 2.037 . S
O622 C642 1.234 . S
C623 O597 1.269 . S
C623 O598 1.257 . S
C624 H599 0.930 . S
C624 C627 1.388 . S
C624 C629 1.418 . S
C625 H620 0.930 . S
C625 C628 1.404 . S
C625 C629 1.353 . S
N626 Co591 2.145 . S
N626 C627 1.397 . S
N626 C628 1.334 . S
C627 H608 0.929 . S
C627 C624 1.388 . S
C627 N626 1.397 . S
C628 H609 0.929 . S
C628 C625 1.404 . S
C628 N626 1.334 . S
C629 H621 0.930 . S
C629 C624 1.418 . S
C629 C625 1.353 . S
C630 H600 0.930 . S
C630 N631 1.330 . S
C630 C632 1.446 . S
N631 Co590 2.151 . S
N631 C630 1.330 . S
N631 C635 1.418 . S
C632 H611 0.929 . S
C632 C630 1.446 . S
C632 C633 1.332 . S
C633 H613 0.931 . S
C633 C632 1.332 . S
C633 C634 1.267 . S
C634 H602 0.929 . S
C634 C633 1.267 . S
C634 C635 1.251 . S
C635 H605 0.929 . S
C635 N631 1.418 . S
C635 C634 1.251 . S
C636 H603 0.930 . S
C636 C638 1.406 . S
C636 C641 1.261 . S
C637 H604 0.930 . S
C637 N639 1.325 . S
C637 C640 1.357 . S
C638 H606 0.928 . S
C638 C636 1.406 . S
C638 N639 1.261 . S
N639 Co590 2.214 . S
N639 C637 1.325 . S
N639 C638 1.261 . S
C640 H610 0.931 . S
C640 C637 1.357 . S
C640 C641 1.312 . S
C641 H612 0.930 . S
C641 C636 1.261 . S
C641 C640 1.312 . S
C642 O614 1.214 . S
C642 O622 1.234 . S
C643 H615 0.929 . S
C643 C646 1.391 . S
C643 C648 1.391 . S
C644 H616 0.929 . S
C644 C645 1.390 . S
C644 N647 1.391 . S
C645 H617 0.930 . S
C645 C644 1.390 . S
C645 C646 1.392 . S
C646 H618 0.929 . S
C646 C643 1.391 . S
C646 C645 1.392 . S
N647 Co591 2.257 . S
N647 C644 1.391 . S
N647 C648 1.388 . S
C648 H619 0.930 . S
C648 C643 1.391 . S
C648 N647 1.388 . S
Co649 O651 2.143 . S
Co649 O657 2.074 . S
Co649 O660 2.093 . S
Co649 O673 2.097 . S
Co649 N690 2.151 . S
Co649 N698 2.214 . S
Co650 O651 2.160 . S
Co650 O656 2.058 . S
Co650 O666 2.057 . S
Co650 O681 2.037 . S
Co650 N685 2.145 . S
Co650 N706 2.257 . S
O651 Co649 2.143 . S
O651 Co650 2.160 . S
C652 O653 1.278 . S
C652 O660 1.224 . S
O653 C652 1.278 . S
C654 O655 1.245 . S
C654 O666 1.232 . S
O655 C654 1.245 . S
O656 Co650 2.058 . S
O656 C682 1.269 . S
O657 Co649 2.074 . S
O657 C682 1.257 . S
H658 C683 0.930 . S
H659 C689 0.930 . S
O660 Co649 2.093 . S
O660 C652 1.224 . S
H661 C693 0.929 . S
H662 C695 0.930 . S
H663 C696 0.930 . S
H664 C694 0.929 . S
H665 C697 0.928 . S
O666 Co650 2.057 . S
O666 C654 1.232 . S
H667 C686 0.929 . S
H668 C687 0.929 . S
H669 C699 0.931 . S
H670 C691 0.929 . S
H671 C700 0.930 . S
H672 C692 0.931 . S
O673 Co649 2.097 . S
O673 C701 1.214 . S
H674 C702 0.929 . S
H675 C703 0.929 . S
H676 C704 0.930 . S
H677 C705 0.929 . S
H678 C707 0.930 . S
H679 C684 0.930 . S
H680 C688 0.930 . S
O681 Co650 2.037 . S
O681 C701 1.234 . S
C682 O656 1.269 . S
C682 O657 1.257 . S
C683 H658 0.930 . S
C683 C686 1.388 . S
C683 C688 1.418 . S
C684 H679 0.930 . S
C684 C687 1.404 . S
C684 C688 1.353 . S
N685 Co650 2.145 . S
N685 C686 1.397 . S
N685 C687 1.334 . S
C686 H667 0.929 . S
C686 C683 1.388 . S
C686 N685 1.397 . S
C687 H668 0.929 . S
C687 C684 1.404 . S
C687 N685 1.334 . S
C688 H680 0.930 . S
C688 C683 1.418 . S
C688 C684 1.353 . S
C689 H659 0.930 . S
C689 N690 1.330 . S
C689 C691 1.446 . S
N690 Co649 2.151 . S
N690 C689 1.330 . S
N690 C694 1.418 . S
C691 H670 0.929 . S
C691 C689 1.446 . S
C691 C692 1.332 . S
C692 H672 0.931 . S
C692 C691 1.332 . S
C692 C693 1.267 . S
C693 H661 0.929 . S
C693 C692 1.267 . S
C693 C694 1.251 . S
C694 H664 0.929 . S
C694 N690 1.418 . S
C694 C693 1.251 . S
C695 H662 0.930 . S
C695 C697 1.406 . S
C695 C700 1.261 . S
C696 H663 0.930 . S
C696 N698 1.325 . S
C696 C699 1.357 . S
C697 H665 0.928 . S
C697 C695 1.406 . S
C697 N698 1.261 . S
N698 Co649 2.214 . S
N698 C696 1.325 . S
N698 C697 1.261 . S
C699 H669 0.931 . S
C699 C696 1.357 . S
C699 C700 1.312 . S
C700 H671 0.930 . S
C700 C695 1.261 . S
C700 C699 1.312 . S
C701 O673 1.214 . S
C701 O681 1.234 . S
C702 H674 0.929 . S
C702 C705 1.391 . S
C702 C707 1.391 . S
C703 H675 0.929 . S
C703 C704 1.390 . S
C703 N706 1.391 . S
C704 H676 0.930 . S
C704 C703 1.390 . S
C704 C705 1.392 . S
C705 H677 0.929 . S
C705 C702 1.391 . S
C705 C704 1.392 . S
N706 Co650 2.257 . S
N706 C703 1.391 . S
N706 C707 1.388 . S
C707 H678 0.930 . S
C707 C702 1.391 . S
C707 N706 1.388 . S
C708 C709 1.391 . S
C708 C710 1.394 . S
C708 H724 0.931 . S
C709 C708 1.391 . S
C709 C713 1.376 . S
C710 C708 1.394 . S
C710 C711 1.369 . S
C710 C714 1.531 . S
C711 C710 1.369 . S
C711 C712 1.410 . S
C711 C719 1.503 1_556 S
C712 C711 1.410 . S
C712 C713 1.392 . S
C712 C715 1.511 . S
C713 C709 1.376 . S
C713 C712 1.392 . S
C713 H725 0.929 . S
C714 C710 1.531 . S
C714 H726 1.010 . S
C714 H727 0.962 . S
C714 H728 0.960 . S
C715 C712 1.511 . S
C715 H729 0.961 . S
C715 H730 0.961 1_556 S
C715 H731 0.961 . S
C716 C717 1.370 . S
C716 C718 1.363 . S
C716 H732 0.931 . S
C717 C716 1.370 . S
C717 C721 1.408 . S
C718 C716 1.363 . S
C718 C719 1.370 . S
C718 C722 1.524 . S
C719 C711 1.503 1_554 S
C719 C718 1.370 . S
C719 C720 1.403 . S
C720 C719 1.403 . S
C720 C721 1.404 . S
C720 C723 1.539 . S
C721 C717 1.408 . S
C721 C720 1.404 . S
C721 H733 0.930 . S
C722 C718 1.524 . S
C722 H734 0.962 . S
C722 H735 0.965 1_554 S
C722 H736 0.961 . S
C723 C720 1.539 . S
C723 H737 0.958 . S
C723 H738 0.961 . S
C723 H739 0.979 . S
H724 C708 0.931 . S
H725 C713 0.929 . S
H726 C714 1.010 . S
H727 C714 0.962 . S
H728 C714 0.960 . S
H729 C715 0.961 . S
H730 C715 0.961 1_554 S
H731 C715 0.961 . S
H732 C716 0.931 . S
H733 C721 0.930 . S
H734 C722 0.962 . S
H735 C722 0.965 1_556 S
H736 C722 0.961 . S
H737 C723 0.958 . S
H738 C723 0.961 . S
H739 C723 0.979 . S
C740 C741 1.391 . S
C740 C742 1.394 . S
C740 H756 0.931 . S
C741 C740 1.391 . S
C741 C745 1.376 . S
C742 C740 1.394 . S
C742 C743 1.369 . S
C742 C746 1.531 . S
C743 C742 1.369 . S
C743 C744 1.410 . S
C743 C751 1.503 . S
C744 C743 1.410 . S
C744 C745 1.392 . S
C744 C747 1.511 . S
C745 C741 1.376 . S
C745 C744 1.392 . S
C745 H757 0.929 . S
C746 C742 1.531 . S
C746 H758 0.960 . S
C746 H759 0.962 . S
C746 H760 0.960 . S
C747 C744 1.511 . S
C747 H761 0.961 . S
C747 H762 0.961 . S
C747 H763 0.961 . S
C748 C749 1.370 . S
C748 C750 1.363 . S
C748 H764 0.931 . S
C749 C748 1.370 . S
C749 C753 1.408 . S
C750 C748 1.363 . S
C750 C751 1.370 . S
C750 C754 1.524 . S
C751 C743 1.503 . S
C751 C750 1.370 . S
C751 C752 1.403 . S
C752 C751 1.403 . S
C752 C753 1.404 . S
C752 C755 1.539 . S
C753 C749 1.408 . S
C753 C752 1.404 . S
C753 H765 0.930 . S
C754 C750 1.524 . S
C754 H766 0.956 . S
C754 H767 0.961 . S
C754 H768 0.961 . S
C755 C752 1.539 . S
C755 H769 0.958 . S
C755 H770 0.961 . S
C755 H771 0.960 . S
H756 C740 0.931 . S
H757 C745 0.929 . S
H758 C746 0.960 . S
H759 C746 0.962 . S
H760 C746 0.960 . S
H761 C747 0.961 . S
H762 C747 0.961 . S
H763 C747 0.961 . S
H764 C748 0.931 . S
H765 C753 0.930 . S
H766 C754 0.956 . S
H767 C754 0.961 . S
H768 C754 0.961 . S
H769 C755 0.958 . S
H770 C755 0.961 . S
H771 C755 0.960 . S
C772 C773 1.391 . S
C772 C774 1.394 . S
C772 H788 0.931 . S
C773 C772 1.391 . S
C773 C777 1.376 . S
C774 C772 1.394 . S
C774 C775 1.369 . S
C774 C778 1.531 . S
C775 C774 1.369 . S
C775 C776 1.410 . S
C775 C783 1.503 . S
C776 C775 1.410 . S
C776 C777 1.392 . S
C776 C779 1.511 . S
C777 C773 1.376 . S
C777 C776 1.392 . S
C777 H789 0.929 . S
C778 C774 1.531 . S
C778 H790 0.960 . S
C778 H791 0.962 . S
C778 H792 0.960 . S
C779 C776 1.511 . S
C779 H793 0.961 . S
C779 H794 0.961 . S
C779 H795 0.961 . S
C780 C781 1.370 . S
C780 C782 1.363 . S
C780 H796 0.931 . S
C781 C780 1.370 . S
C781 C785 1.408 . S
C782 C780 1.363 . S
C782 C783 1.370 . S
C782 C786 1.524 . S
C783 C775 1.503 . S
C783 C782 1.370 . S
C783 C784 1.403 . S
C784 C783 1.403 . S
C784 C785 1.404 . S
C784 C787 1.539 . S
C785 C781 1.408 . S
C785 C784 1.404 . S
C785 H797 0.930 . S
C786 C782 1.524 . S
C786 H798 0.956 . S
C786 H799 0.961 . S
C786 H800 0.961 . S
C787 C784 1.539 . S
C787 H801 0.958 . S
C787 H802 0.961 . S
C787 H803 0.960 . S
H788 C772 0.931 . S
H789 C777 0.929 . S
H790 C778 0.960 . S
H791 C778 0.962 . S
H792 C778 0.960 . S
H793 C779 0.961 . S
H794 C779 0.961 . S
H795 C779 0.961 . S
H796 C780 0.931 . S
H797 C785 0.930 . S
H798 C786 0.956 . S
H799 C786 0.961 . S
H800 C786 0.961 . S
H801 C787 0.958 . S
H802 C787 0.961 . S
H803 C787 0.960 . S
C804 C805 1.391 . S
C804 C806 1.394 . S
C804 H820 0.931 . S
C805 C804 1.391 . S
C805 C809 1.376 . S
C806 C804 1.394 . S
C806 C807 1.369 . S
C806 C810 1.531 . S
C807 C806 1.369 . S
C807 C808 1.410 . S
C807 C815 1.503 1_554 S
C808 C807 1.410 . S
C808 C809 1.392 . S
C808 C811 1.511 . S
C809 C805 1.376 . S
C809 C808 1.392 . S
C809 H821 0.929 . S
C810 C806 1.531 . S
C810 H822 0.960 1_554 S
C810 H823 0.962 . S
C810 H824 0.960 . S
C811 C808 1.511 . S
C811 H825 0.961 . S
C811 H826 0.989 . S
C811 H827 0.961 . S
C812 C813 1.370 . S
C812 C814 1.363 . S
C812 H828 0.931 . S
C813 C812 1.370 . S
C813 C817 1.408 . S
C814 C812 1.363 . S
C814 C815 1.370 . S
C814 C818 1.524 . S
C815 C807 1.503 1_556 S
C815 C814 1.370 . S
C815 C816 1.403 . S
C816 C815 1.403 . S
C816 C817 1.404 . S
C816 C819 1.539 . S
C817 C813 1.408 . S
C817 C816 1.404 . S
C817 H829 0.930 . S
C818 C814 1.524 . S
C818 H830 0.956 . S
C818 H831 0.961 1_556 S
C818 H832 0.961 . S
C819 C816 1.539 . S
C819 H833 0.958 . S
C819 H834 0.961 . S
C819 H835 0.951 1_556 S
H820 C804 0.931 . S
H821 C809 0.929 . S
H822 C810 0.960 1_556 S
H823 C810 0.962 . S
H824 C810 0.960 . S
H825 C811 0.961 . S
H826 C811 0.989 . S
H827 C811 0.961 . S
H828 C812 0.931 . S
H829 C817 0.930 . S
H830 C818 0.956 . S
H831 C818 0.961 1_554 S
H832 C818 0.961 . S
H833 C819 0.958 . S
H834 C819 0.961 . S
H835 C819 0.951 1_554 S
C836 C837 1.391 . S
C836 C838 1.394 . S
C836 H852 0.931 . S
C837 C836 1.391 . S
C837 C841 1.376 . S
C838 C836 1.394 . S
C838 C839 1.369 . S
C838 C842 1.531 . S
C839 C838 1.369 . S
C839 C840 1.410 . S
C839 C847 1.503 . S
C840 C839 1.410 . S
C840 C841 1.392 . S
C840 C843 1.511 . S
C841 C837 1.376 . S
C841 C840 1.392 . S
C841 H853 0.929 . S
C842 C838 1.531 . S
C842 H854 0.960 . S
C842 H855 0.962 . S
C842 H856 0.960 . S
C843 C840 1.511 . S
C843 H857 0.961 . S
C843 H858 0.961 . S
C843 H859 0.961 . S
C844 C845 1.370 . S
C844 C846 1.363 . S
C844 H860 0.931 . S
C845 C844 1.370 . S
C845 C849 1.408 . S
C846 C844 1.363 . S
C846 C847 1.370 . S
C846 C850 1.524 . S
C847 C839 1.503 . S
C847 C846 1.370 . S
C847 C848 1.403 . S
C848 C847 1.403 . S
C848 C849 1.404 . S
C848 C851 1.539 . S
C849 C845 1.408 . S
C849 C848 1.404 . S
C849 H861 0.930 . S
C850 C846 1.524 . S
C850 H862 0.956 . S
C850 H863 0.961 . S
C850 H864 0.961 . S
C851 C848 1.539 . S
C851 H865 0.958 . S
C851 H866 0.961 . S
C851 H867 0.960 . S
H852 C836 0.931 . S
H853 C841 0.929 . S
H854 C842 0.960 . S
H855 C842 0.962 . S
H856 C842 0.960 . S
H857 C843 0.961 . S
H858 C843 0.961 . S
H859 C843 0.961 . S
H860 C844 0.931 . S
H861 C849 0.930 . S
H862 C850 0.956 . S
H863 C850 0.961 . S
H864 C850 0.961 . S
H865 C851 0.958 . S
H866 C851 0.961 . S
H867 C851 0.960 . S
C868 C869 1.391 . S
C868 C870 1.394 . S
C868 H884 0.931 . S
C869 C868 1.391 . S
C869 C873 1.376 . S
C870 C868 1.394 . S
C870 C871 1.369 . S
C870 C874 1.531 . S
C871 C870 1.369 . S
C871 C872 1.410 . S
C871 C879 1.503 . S
C872 C871 1.410 . S
C872 C873 1.392 . S
C872 C875 1.511 . S
C873 C869 1.376 . S
C873 C872 1.392 . S
C873 H885 0.929 . S
C874 C870 1.531 . S
C874 H886 0.960 . S
C874 H887 0.962 . S
C874 H888 0.960 . S
C875 C872 1.511 . S
C875 H889 0.961 . S
C875 H890 0.961 . S
C875 H891 0.961 . S
C876 C877 1.370 . S
C876 C878 1.363 . S
C876 H892 0.931 . S
C877 C876 1.370 . S
C877 C881 1.408 . S
C878 C876 1.363 . S
C878 C879 1.370 . S
C878 C882 1.524 . S
C879 C871 1.503 . S
C879 C878 1.370 . S
C879 C880 1.403 . S
C880 C879 1.403 . S
C880 C881 1.404 . S
C880 C883 1.539 . S
C881 C877 1.408 . S
C881 C880 1.404 . S
C881 H893 0.930 . S
C882 C878 1.524 . S
C882 H894 0.956 . S
C882 H895 0.961 . S
C882 H896 0.961 . S
C883 C880 1.539 . S
C883 H897 0.958 . S
C883 H898 0.961 . S
C883 H899 0.960 . S
H884 C868 0.931 . S
H885 C873 0.929 . S
H886 C874 0.960 . S
H887 C874 0.962 . S
H888 C874 0.960 . S
H889 C875 0.961 . S
H890 C875 0.961 . S
H891 C875 0.961 . S
H892 C876 0.931 . S
H893 C881 0.930 . S
H894 C882 0.956 . S
H895 C882 0.961 . S
H896 C882 0.961 . S
H897 C883 0.958 . S
H898 C883 0.961 . S
H899 C883 0.960 . S
C900 C901 1.391 . S
C900 C902 1.394 . S
C900 H916 0.931 . S
C901 C900 1.391 . S
C901 C905 1.376 . S
C902 C900 1.394 . S
C902 C903 1.369 . S
C902 C906 1.531 . S
C903 C902 1.369 . S
C903 C904 1.410 . S
C903 C911 1.503 . S
C904 C903 1.410 . S
C904 C905 1.392 . S
C904 C907 1.511 . S
C905 C901 1.376 . S
C905 C904 1.392 . S
C905 H917 0.929 . S
C906 C902 1.531 . S
C906 H918 0.960 . S
C906 H919 0.962 . S
C906 H920 0.960 . S
C907 C904 1.511 . S
C907 H921 0.961 . S
C907 H922 0.961 . S
C907 H923 0.961 . S
C908 C909 1.370 . S
C908 C910 1.363 . S
C908 H924 0.931 . S
C909 C908 1.370 . S
C909 C913 1.408 . S
C910 C908 1.363 . S
C910 C911 1.370 . S
C910 C914 1.524 . S
C911 C903 1.503 . S
C911 C910 1.370 . S
C911 C912 1.403 . S
C912 C911 1.403 . S
C912 C913 1.404 . S
C912 C915 1.539 . S
C913 C909 1.408 . S
C913 C912 1.404 . S
C913 H925 0.930 . S
C914 C910 1.524 . S
C914 H926 0.956 . S
C914 H927 0.961 . S
C914 H928 0.961 . S
C915 C912 1.539 . S
C915 H929 0.958 . S
C915 H930 0.961 . S
C915 H931 0.960 . S
H916 C900 0.931 . S
H917 C905 0.929 . S
H918 C906 0.960 . S
H919 C906 0.962 . S
H920 C906 0.960 . S
H921 C907 0.961 . S
H922 C907 0.961 . S
H923 C907 0.961 . S
H924 C908 0.931 . S
H925 C913 0.930 . S
H926 C914 0.956 . S
H927 C914 0.961 . S
H928 C914 0.961 . S
H929 C915 0.958 . S
H930 C915 0.961 . S
H931 C915 0.960 . S
C932 C933 1.391 . S
C932 C934 1.394 . S
C932 H948 0.931 . S
C933 C932 1.391 . S
C933 C937 1.376 . S
C934 C932 1.394 . S
C934 C935 1.369 . S
C934 C938 1.531 . S
C935 C934 1.369 . S
C935 C936 1.410 . S
C935 C943 1.503 . S
C936 C935 1.410 . S
C936 C937 1.392 . S
C936 C939 1.511 . S
C937 C933 1.376 . S
C937 C936 1.392 . S
C937 H949 0.929 . S
C938 C934 1.531 . S
C938 H950 0.960 . S
C938 H951 0.962 . S
C938 H952 0.960 . S
C939 C936 1.511 . S
C939 H953 0.961 . S
C939 H954 0.961 . S
C939 H955 0.961 . S
C940 C941 1.370 . S
C940 C942 1.363 . S
C940 H956 0.931 . S
C941 C940 1.370 . S
C941 C945 1.408 . S
C942 C940 1.363 . S
C942 C943 1.370 . S
C942 C946 1.524 . S
C943 C935 1.503 . S
C943 C942 1.370 . S
C943 C944 1.403 . S
C944 C943 1.403 . S
C944 C945 1.404 . S
C944 C947 1.539 . S
C945 C941 1.408 . S
C945 C944 1.404 . S
C945 H957 0.930 . S
C946 C942 1.524 . S
C946 H958 0.956 . S
C946 H959 0.961 . S
C946 H960 0.961 . S
C947 C944 1.539 . S
C947 H961 0.958 . S
C947 H962 0.961 . S
C947 H963 0.960 . S
H948 C932 0.931 . S
H949 C937 0.929 . S
H950 C938 0.960 . S
H951 C938 0.962 . S
H952 C938 0.960 . S
H953 C939 0.961 . S
H954 C939 0.961 . S
H955 C939 0.961 . S
H956 C940 0.931 . S
H957 C945 0.930 . S
H958 C946 0.956 . S
H959 C946 0.961 . S
H960 C946 0.961 . S
H961 C947 0.958 . S
H962 C947 0.961 . S
H963 C947 0.960 . S
C964 C965 1.391 . S
C964 C966 1.394 . S
C964 H980 0.931 . S
C965 C964 1.391 . S
C965 C969 1.376 . S
C966 C964 1.394 . S
C966 C967 1.369 . S
C966 C970 1.531 . S
C967 C966 1.369 . S
C967 C968 1.410 . S
C967 C975 1.503 . S
C968 C967 1.410 . S
C968 C969 1.392 . S
C968 C971 1.511 . S
C969 C965 1.376 . S
C969 C968 1.392 . S
C969 H981 0.929 . S
C970 C966 1.531 . S
C970 H982 0.960 . S
C970 H983 0.962 . S
C970 H984 0.960 . S
C971 C968 1.511 . S
C971 H985 0.961 . S
C971 H986 0.961 . S
C971 H987 0.961 . S
C972 C973 1.370 . S
C972 C974 1.363 . S
C972 H988 0.931 . S
C973 C972 1.370 . S
C973 C977 1.408 . S
C974 C972 1.363 . S
C974 C975 1.370 . S
C974 C978 1.524 . S
C975 C967 1.503 . S
C975 C974 1.370 . S
C975 C976 1.403 . S
C976 C975 1.403 . S
C976 C977 1.404 . S
C976 C979 1.539 . S
C977 C973 1.408 . S
C977 C976 1.404 . S
C977 H989 0.930 . S
C978 C974 1.524 . S
C978 H990 0.956 . S
C978 H991 0.961 . S
C978 H992 0.961 . S
C979 C976 1.539 . S
C979 H993 0.958 . S
C979 H994 0.961 . S
C979 H995 0.960 . S
H980 C964 0.931 . S
H981 C969 0.929 . S
H982 C970 0.960 . S
H983 C970 0.962 . S
H984 C970 0.960 . S
H985 C971 0.961 . S
H986 C971 0.961 . S
H987 C971 0.961 . S
H988 C972 0.931 . S
H989 C977 0.930 . S
H990 C978 0.956 . S
H991 C978 0.961 . S
H992 C978 0.961 . S
H993 C979 0.958 . S
H994 C979 0.961 . S
H995 C979 0.960 . S
C996 C997 1.391 . S
C996 C998 1.394 . S
C996 H1012 0.931 . S
C997 C996 1.391 . S
C997 C1001 1.376 . S
C998 C996 1.394 . S
C998 C999 1.369 . S
C998 C1002 1.531 . S
C999 C998 1.369 . S
C999 C1000 1.410 . S
C999 C1007 1.503 . S
C1000 C999 1.410 . S
C1000 C1001 1.392 . S
C1000 C1003 1.511 . S
C1001 C997 1.376 . S
C1001 C1000 1.392 . S
C1001 H1013 0.929 . S
C1002 C998 1.531 . S
C1002 H1014 0.960 . S
C1002 H1015 0.962 . S
C1002 H1016 0.960 . S
C1003 C1000 1.511 . S
C1003 H1017 0.961 . S
C1003 H1018 0.961 . S
C1003 H1019 0.961 . S
C1004 C1005 1.370 . S
C1004 C1006 1.363 . S
C1004 H1020 0.931 . S
C1005 C1004 1.370 . S
C1005 C1009 1.408 . S
C1006 C1004 1.363 . S
C1006 C1007 1.370 . S
C1006 C1010 1.524 . S
C1007 C999 1.503 . S
C1007 C1006 1.370 . S
C1007 C1008 1.403 . S
C1008 C1007 1.403 . S
C1008 C1009 1.404 . S
C1008 C1011 1.539 . S
C1009 C1005 1.408 . S
C1009 C1008 1.404 . S
C1009 H1021 0.930 . S
C1010 C1006 1.524 . S
C1010 H1022 0.956 . S
C1010 H1023 0.961 . S
C1010 H1024 0.961 . S
C1011 C1008 1.539 . S
C1011 H1025 0.958 . S
C1011 H1026 0.961 . S
C1011 H1027 0.960 . S
H1012 C996 0.931 . S
H1013 C1001 0.929 . S
H1014 C1002 0.960 . S
H1015 C1002 0.962 . S
H1016 C1002 0.960 . S
H1017 C1003 0.961 . S
H1018 C1003 0.961 . S
H1019 C1003 0.961 . S
H1020 C1004 0.931 . S
H1021 C1009 0.930 . S
H1022 C1010 0.956 . S
H1023 C1010 0.961 . S
H1024 C1010 0.961 . S
H1025 C1011 0.958 . S
H1026 C1011 0.961 . S
H1027 C1011 0.960 . S
C1028 C1029 1.391 . S
C1028 C1030 1.394 . S
C1028 H1044 0.931 . S
C1029 C1028 1.391 . S
C1029 C1033 1.376 . S
C1030 C1028 1.394 . S
C1030 C1031 1.369 . S
C1030 C1034 1.531 . S
C1031 C1030 1.369 . S
C1031 C1032 1.410 . S
C1031 C1039 1.503 . S
C1032 C1031 1.410 . S
C1032 C1033 1.392 . S
C1032 C1035 1.511 . S
C1033 C1029 1.376 . S
C1033 C1032 1.392 . S
C1033 H1045 0.929 . S
C1034 C1030 1.531 . S
C1034 H1046 0.960 . S
C1034 H1047 0.962 . S
C1034 H1048 0.960 . S
C1035 C1032 1.511 . S
C1035 H1049 0.961 . S
C1035 H1050 0.961 . S
C1035 H1051 0.961 . S
C1036 C1037 1.370 . S
C1036 C1038 1.363 . S
C1036 H1052 0.931 . S
C1037 C1036 1.370 . S
C1037 C1041 1.408 . S
C1038 C1036 1.363 . S
C1038 C1039 1.370 . S
C1038 C1042 1.524 . S
C1039 C1031 1.503 . S
C1039 C1038 1.370 . S
C1039 C1040 1.403 . S
C1040 C1039 1.403 . S
C1040 C1041 1.404 . S
C1040 C1043 1.539 . S
C1041 C1037 1.408 . S
C1041 C1040 1.404 . S
C1041 H1053 0.930 . S
C1042 C1038 1.524 . S
C1042 H1054 0.956 . S
C1042 H1055 0.961 . S
C1042 H1056 0.961 . S
C1043 C1040 1.539 . S
C1043 H1057 0.958 . S
C1043 H1058 0.961 . S
C1043 H1059 0.960 . S
H1044 C1028 0.931 . S
H1045 C1033 0.929 . S
H1046 C1034 0.960 . S
H1047 C1034 0.962 . S
H1048 C1034 0.960 . S
H1049 C1035 0.961 . S
H1050 C1035 0.961 . S
H1051 C1035 0.961 . S
H1052 C1036 0.931 . S
H1053 C1041 0.930 . S
H1054 C1042 0.956 . S
H1055 C1042 0.961 . S
H1056 C1042 0.961 . S
H1057 C1043 0.958 . S
H1058 C1043 0.961 . S
H1059 C1043 0.960 . S
C1060 C1061 1.391 . S
C1060 C1062 1.394 . S
C1060 H1076 0.931 . S
C1061 C1060 1.391 . S
C1061 C1065 1.376 . S
C1062 C1060 1.394 . S
C1062 C1063 1.369 . S
C1062 C1066 1.531 . S
C1063 C1062 1.369 . S
C1063 C1064 1.410 . S
C1063 C1071 1.503 . S
C1064 C1063 1.410 . S
C1064 C1065 1.392 . S
C1064 C1067 1.511 . S
C1065 C1061 1.376 . S
C1065 C1064 1.392 . S
C1065 H1077 0.929 . S
C1066 C1062 1.531 . S
C1066 H1078 0.960 . S
C1066 H1079 0.962 . S
C1066 H1080 0.960 . S
C1067 C1064 1.511 . S
C1067 H1081 0.961 . S
C1067 H1082 0.961 . S
C1067 H1083 0.961 . S
C1068 C1069 1.370 . S
C1068 C1070 1.363 . S
C1068 H1084 0.931 . S
C1069 C1068 1.370 . S
C1069 C1073 1.408 . S
C1070 C1068 1.363 . S
C1070 C1071 1.370 . S
C1070 C1074 1.524 . S
C1071 C1063 1.503 . S
C1071 C1070 1.370 . S
C1071 C1072 1.403 . S
C1072 C1071 1.403 . S
C1072 C1073 1.404 . S
C1072 C1075 1.539 . S
C1073 C1069 1.408 . S
C1073 C1072 1.404 . S
C1073 H1085 0.930 . S
C1074 C1070 1.524 . S
C1074 H1086 0.956 . S
C1074 H1087 0.961 . S
C1074 H1088 0.961 . S
C1075 C1072 1.539 . S
C1075 H1089 0.958 . S
C1075 H1090 0.961 . S
C1075 H1091 0.960 . S
H1076 C1060 0.931 . S
H1077 C1065 0.929 . S
H1078 C1066 0.960 . S
H1079 C1066 0.962 . S
H1080 C1066 0.960 . S
H1081 C1067 0.961 . S
H1082 C1067 0.961 . S
H1083 C1067 0.961 . S
H1084 C1068 0.931 . S
H1085 C1073 0.930 . S
H1086 C1074 0.956 . S
H1087 C1074 0.961 . S
H1088 C1074 0.961 . S
H1089 C1075 0.958 . S
H1090 C1075 0.961 . S
H1091 C1075 0.960 . S
C1092 C1093 1.391 . S
C1092 C1094 1.394 . S
C1092 H1108 0.931 . S
C1093 C1092 1.391 . S
C1093 C1097 1.376 . S
C1094 C1092 1.394 . S
C1094 C1095 1.369 . S
C1094 C1098 1.531 . S
C1095 C1094 1.369 . S
C1095 C1096 1.410 . S
C1095 C1103 1.503 1_655 S
C1096 C1095 1.410 . S
C1096 C1097 1.392 . S
C1096 C1099 1.511 . S
C1097 C1093 1.376 . S
C1097 C1096 1.392 . S
C1097 H1109 0.929 . S
C1098 C1094 1.531 . S
C1098 H1110 0.960 1_655 S
C1098 H1111 0.962 . S
C1098 H1112 0.960 . S
C1099 C1096 1.511 . S
C1099 H1113 0.961 . S
C1099 H1114 0.961 1_655 S
C1099 H1115 0.961 . S
C1100 C1101 1.370 . S
C1100 C1102 1.363 . S
C1100 H1116 0.931 . S
C1101 C1100 1.370 . S
C1101 C1105 1.408 . S
C1102 C1100 1.363 . S
C1102 C1103 1.370 . S
C1102 C1106 1.524 . S
C1103 C1095 1.503 1_455 S
C1103 C1102 1.370 . S
C1103 C1104 1.403 . S
C1104 C1103 1.403 . S
C1104 C1105 1.404 . S
C1104 C1107 1.539 . S
C1105 C1101 1.408 . S
C1105 C1104 1.404 . S
C1105 H1117 0.930 . S
C1106 C1102 1.524 . S
C1106 H1118 0.956 1_455 S
C1106 H1119 0.961 1_455 S
C1106 H1120 0.961 . S
C1107 C1104 1.539 . S
C1107 H1121 0.958 . S
C1107 H1122 0.961 . S
C1107 H1123 0.960 . S
H1108 C1092 0.931 . S
H1109 C1097 0.929 . S
H1110 C1098 0.960 1_455 S
H1111 C1098 0.962 . S
H1112 C1098 0.960 . S
H1113 C1099 0.961 . S
H1114 C1099 0.961 1_455 S
H1115 C1099 0.961 . S
H1116 C1100 0.931 . S
H1117 C1105 0.930 . S
H1118 C1106 0.956 1_655 S
H1119 C1106 0.961 1_655 S
H1120 C1106 0.961 . S
H1121 C1107 0.958 . S
H1122 C1107 0.961 . S
H1123 C1107 0.960 . S
C1124 C1125 1.391 . S
C1124 C1126 1.394 . S
C1124 H1140 0.931 . S
C1125 C1124 1.391 . S
C1125 C1129 1.376 . S
C1126 C1124 1.394 . S
C1126 C1127 1.369 . S
C1126 C1130 1.531 . S
C1127 C1126 1.369 . S
C1127 C1128 1.410 . S
C1127 C1135 1.503 1_545 S
C1128 C1127 1.410 . S
C1128 C1129 1.392 . S
C1128 C1131 1.511 . S
C1129 C1125 1.376 . S
C1129 C1128 1.392 . S
C1129 H1141 0.929 . S
C1130 C1126 1.531 . S
C1130 H1142 0.960 1_545 S
C1130 H1143 0.962 1_545 S
C1130 H1144 0.960 . S
C1131 C1128 1.511 . S
C1131 H1145 0.961 . S
C1131 H1146 0.961 . S
C1131 H1147 0.961 . S
C1132 C1133 1.370 . S
C1132 C1134 1.363 . S
C1132 H1148 0.931 . S
C1133 C1132 1.370 . S
C1133 C1137 1.408 . S
C1134 C1132 1.363 . S
C1134 C1135 1.370 . S
C1134 C1138 1.524 . S
C1135 C1127 1.503 1_565 S
C1135 C1134 1.370 . S
C1135 C1136 1.403 . S
C1136 C1135 1.403 . S
C1136 C1137 1.404 . S
C1136 C1139 1.539 . S
C1137 C1133 1.408 . S
C1137 C1136 1.404 . S
C1137 H1149 0.930 . S
C1138 C1134 1.524 . S
C1138 H1150 0.956 . S
C1138 H1151 0.961 1_565 S
C1138 H1152 0.961 . S
C1139 C1136 1.539 . S
C1139 H1153 0.958 . S
C1139 H1154 0.961 . S
C1139 H1155 0.960 1_565 S
H1140 C1124 0.931 . S
H1141 C1129 0.929 . S
H1142 C1130 0.960 1_565 S
H1143 C1130 0.962 1_565 S
H1144 C1130 0.960 . S
H1145 C1131 0.961 . S
H1146 C1131 0.961 . S
H1147 C1131 0.961 . S
H1148 C1132 0.931 . S
H1149 C1137 0.930 . S
H1150 C1138 0.956 . S
H1151 C1138 0.961 1_545 S
H1152 C1138 0.961 . S
H1153 C1139 0.958 . S
H1154 C1139 0.961 . S
H1155 C1139 0.960 1_545 S
C1156 C1157 1.391 . S
C1156 C1158 1.394 . S
C1156 H1172 0.931 . S
C1157 C1156 1.391 . S
C1157 C1161 1.376 . S
C1158 C1156 1.394 . S
C1158 C1159 1.369 . S
C1158 C1162 1.531 . S
C1159 C1158 1.369 . S
C1159 C1160 1.410 . S
C1159 C1167 1.503 . S
C1160 C1159 1.410 . S
C1160 C1161 1.392 . S
C1160 C1163 1.511 . S
C1161 C1157 1.376 . S
C1161 C1160 1.392 . S
C1161 H1173 0.929 . S
C1162 C1158 1.531 . S
C1162 H1174 0.960 . S
C1162 H1175 0.962 . S
C1162 H1176 0.960 . S
C1163 C1160 1.511 . S
C1163 H1177 0.961 . S
C1163 H1178 0.961 . S
C1163 H1179 0.961 . S
C1164 C1165 1.370 . S
C1164 C1166 1.363 . S
C1164 H1180 0.931 . S
C1165 C1164 1.370 . S
C1165 C1169 1.408 . S
C1166 C1164 1.363 . S
C1166 C1167 1.370 . S
C1166 C1170 1.524 . S
C1167 C1159 1.503 . S
C1167 C1166 1.370 . S
C1167 C1168 1.403 . S
C1168 C1167 1.403 . S
C1168 C1169 1.404 . S
C1168 C1171 1.539 . S
C1169 C1165 1.408 . S
C1169 C1168 1.404 . S
C1169 H1181 0.930 . S
C1170 C1166 1.524 . S
C1170 H1182 0.956 . S
C1170 H1183 0.961 . S
C1170 H1184 0.961 . S
C1171 C1168 1.539 . S
C1171 H1185 0.958 . S
C1171 H1186 0.961 . S
C1171 H1187 0.960 . S
H1172 C1156 0.931 . S
H1173 C1161 0.929 . S
H1174 C1162 0.960 . S
H1175 C1162 0.962 . S
H1176 C1162 0.960 . S
H1177 C1163 0.961 . S
H1178 C1163 0.961 . S
H1179 C1163 0.961 . S
H1180 C1164 0.931 . S
H1181 C1169 0.930 . S
H1182 C1170 0.956 . S
H1183 C1170 0.961 . S
H1184 C1170 0.961 . S
H1185 C1171 0.958 . S
H1186 C1171 0.961 . S
H1187 C1171 0.960 . S
C1188 C1189 1.391 . S
C1188 C1190 1.394 . S
C1188 H1204 0.931 . S
C1189 C1188 1.391 . S
C1189 C1193 1.376 . S
C1190 C1188 1.394 . S
C1190 C1191 1.369 . S
C1190 C1194 1.531 . S
C1191 C1190 1.369 . S
C1191 C1192 1.410 . S
C1191 C1199 1.503 1_545 S
C1192 C1191 1.410 . S
C1192 C1193 1.392 . S
C1192 C1195 1.511 . S
C1193 C1189 1.376 . S
C1193 C1192 1.392 . S
C1193 H1205 0.929 . S
C1194 C1190 1.531 . S
C1194 H1206 0.960 1_545 S
C1194 H1207 0.962 1_545 S
C1194 H1208 0.960 . S
C1195 C1192 1.511 . S
C1195 H1209 0.961 . S
C1195 H1210 0.961 . S
C1195 H1211 0.961 . S
C1196 C1197 1.370 . S
C1196 C1198 1.363 . S
C1196 H1212 0.931 . S
C1197 C1196 1.370 . S
C1197 C1201 1.408 . S
C1198 C1196 1.363 . S
C1198 C1199 1.370 . S
C1198 C1202 1.524 . S
C1199 C1191 1.503 1_565 S
C1199 C1198 1.370 . S
C1199 C1200 1.403 . S
C1200 C1199 1.403 . S
C1200 C1201 1.404 . S
C1200 C1203 1.539 . S
C1201 C1197 1.408 . S
C1201 C1200 1.404 . S
C1201 H1213 0.930 . S
C1202 C1198 1.524 . S
C1202 H1214 0.956 . S
C1202 H1215 0.961 . S
C1202 H1216 0.961 . S
C1203 C1200 1.539 . S
C1203 H1217 0.958 . S
C1203 H1218 0.961 . S
C1203 H1219 0.960 1_565 S
H1204 C1188 0.931 . S
H1205 C1193 0.929 . S
H1206 C1194 0.960 1_565 S
H1207 C1194 0.962 1_565 S
H1208 C1194 0.960 . S
H1209 C1195 0.961 . S
H1210 C1195 0.961 . S
H1211 C1195 0.961 . S
H1212 C1196 0.931 . S
H1213 C1201 0.930 . S
H1214 C1202 0.956 . S
H1215 C1202 0.961 . S
H1216 C1202 0.961 . S
H1217 C1203 0.958 . S
H1218 C1203 0.961 . S
H1219 C1203 0.960 1_545 S
C1220 C1221 1.391 . S
C1220 C1222 1.394 . S
C1220 H1236 0.931 . S
C1221 C1220 1.391 . S
C1221 C1225 1.376 . S
C1222 C1220 1.394 . S
C1222 C1223 1.369 . S
C1222 C1226 1.531 . S
C1223 C1222 1.369 . S
C1223 C1224 1.410 . S
C1223 C1231 1.503 . S
C1224 C1223 1.410 . S
C1224 C1225 1.392 . S
C1224 C1227 1.511 . S
C1225 C1221 1.376 . S
C1225 C1224 1.392 . S
C1225 H1237 0.929 . S
C1226 C1222 1.531 . S
C1226 H1238 0.960 . S
C1226 H1239 0.962 . S
C1226 H1240 0.960 . S
C1227 C1224 1.511 . S
C1227 H1241 0.961 . S
C1227 H1242 0.961 . S
C1227 H1243 0.961 . S
C1228 C1229 1.370 . S
C1228 C1230 1.363 . S
C1228 H1244 0.931 . S
C1229 C1228 1.370 . S
C1229 C1233 1.408 . S
C1230 C1228 1.363 . S
C1230 C1231 1.370 . S
C1230 C1234 1.524 . S
C1231 C1223 1.503 . S
C1231 C1230 1.370 . S
C1231 C1232 1.403 . S
C1232 C1231 1.403 . S
C1232 C1233 1.404 . S
C1232 C1235 1.539 . S
C1233 C1229 1.408 . S
C1233 C1232 1.404 . S
C1233 H1245 0.930 . S
C1234 C1230 1.524 . S
C1234 H1246 0.956 . S
C1234 H1247 0.961 . S
C1234 H1248 0.961 . S
C1235 C1232 1.539 . S
C1235 H1249 0.958 . S
C1235 H1250 0.961 . S
C1235 H1251 0.960 . S
H1236 C1220 0.931 . S
H1237 C1225 0.929 . S
H1238 C1226 0.960 . S
H1239 C1226 0.962 . S
H1240 C1226 0.960 . S
H1241 C1227 0.961 . S
H1242 C1227 0.961 . S
H1243 C1227 0.961 . S
H1244 C1228 0.931 . S
H1245 C1233 0.930 . S
H1246 C1234 0.956 . S
H1247 C1234 0.961 . S
H1248 C1234 0.961 . S
H1249 C1235 0.958 . S
H1250 C1235 0.961 . S
H1251 C1235 0.960 . S
C1252 C1253 1.391 . S
C1252 C1254 1.394 . S
C1252 H1268 0.931 . S
C1253 C1252 1.391 . S
C1253 C1257 1.376 . S
C1254 C1252 1.394 . S
C1254 C1255 1.369 . S
C1254 C1258 1.531 . S
C1255 C1254 1.369 . S
C1255 C1256 1.410 . S
C1255 C1263 1.503 1_455 S
C1256 C1255 1.410 . S
C1256 C1257 1.392 . S
C1256 C1259 1.511 . S
C1257 C1253 1.376 . S
C1257 C1256 1.392 . S
C1257 H1269 0.929 . S
C1258 C1254 1.531 . S
C1258 H1270 0.960 1_455 S
C1258 H1271 0.962 1_455 S
C1258 H1272 0.960 . S
C1259 C1256 1.511 . S
C1259 H1273 0.961 . S
C1259 H1274 0.961 . S
C1259 H1275 0.961 . S
C1260 C1261 1.370 . S
C1260 C1262 1.363 . S
C1260 H1276 0.931 . S
C1261 C1260 1.370 . S
C1261 C1265 1.408 . S
C1262 C1260 1.363 . S
C1262 C1263 1.370 . S
C1262 C1266 1.524 . S
C1263 C1255 1.503 1_655 S
C1263 C1262 1.370 . S
C1263 C1264 1.403 . S
C1264 C1263 1.403 . S
C1264 C1265 1.404 . S
C1264 C1267 1.539 . S
C1265 C1261 1.408 . S
C1265 C1264 1.404 . S
C1265 H1277 0.930 . S
C1266 C1262 1.524 . S
C1266 H1278 0.956 . S
C1266 H1279 0.961 1_655 S
C1266 H1280 0.961 . S
C1267 C1264 1.539 . S
C1267 H1281 0.958 . S
C1267 H1282 0.961 . S
C1267 H1283 0.960 1_655 S
H1268 C1252 0.931 . S
H1269 C1257 0.929 . S
H1270 C1258 0.960 1_655 S
H1271 C1258 0.962 1_655 S
H1272 C1258 0.960 . S
H1273 C1259 0.961 . S
H1274 C1259 0.961 . S
H1275 C1259 0.961 . S
H1276 C1260 0.931 . S
H1277 C1265 0.930 . S
H1278 C1266 0.956 . S
H1279 C1266 0.961 1_455 S
H1280 C1266 0.961 . S
H1281 C1267 0.958 . S
H1282 C1267 0.961 . S
H1283 C1267 0.960 1_455 S
C1284 C1285 1.391 . S
C1284 C1286 1.394 . S
C1284 H1300 0.931 . S
C1285 C1284 1.391 . S
C1285 C1289 1.376 . S
C1286 C1284 1.394 . S
C1286 C1287 1.369 . S
C1286 C1290 1.531 . S
C1287 C1286 1.369 . S
C1287 C1288 1.410 . S
C1287 C1295 1.503 . S
C1288 C1287 1.410 . S
C1288 C1289 1.392 . S
C1288 C1291 1.511 . S
C1289 C1285 1.376 . S
C1289 C1288 1.392 . S
C1289 H1301 0.929 . S
C1290 C1286 1.531 . S
C1290 H1302 0.960 . S
C1290 H1303 0.962 . S
C1290 H1304 0.960 . S
C1291 C1288 1.511 . S
C1291 H1305 0.961 . S
C1291 H1306 0.961 . S
C1291 H1307 0.961 . S
C1292 C1293 1.370 . S
C1292 C1294 1.363 . S
C1292 H1308 0.931 . S
C1293 C1292 1.370 . S
C1293 C1297 1.408 . S
C1294 C1292 1.363 . S
C1294 C1295 1.370 . S
C1294 C1298 1.524 . S
C1295 C1287 1.503 . S
C1295 C1294 1.370 . S
C1295 C1296 1.403 . S
C1296 C1295 1.403 . S
C1296 C1297 1.404 . S
C1296 C1299 1.539 . S
C1297 C1293 1.408 . S
C1297 C1296 1.404 . S
C1297 H1309 0.930 . S
C1298 C1294 1.524 . S
C1298 H1310 0.956 . S
C1298 H1311 0.961 . S
C1298 H1312 0.961 . S
C1299 C1296 1.539 . S
C1299 H1313 0.958 . S
C1299 H1314 0.961 . S
C1299 H1315 0.960 . S
H1300 C1284 0.931 . S
H1301 C1289 0.929 . S
H1302 C1290 0.960 . S
H1303 C1290 0.962 . S
H1304 C1290 0.960 . S
H1305 C1291 0.961 . S
H1306 C1291 0.961 . S
H1307 C1291 0.961 . S
H1308 C1292 0.931 . S
H1309 C1297 0.930 . S
H1310 C1298 0.956 . S
H1311 C1298 0.961 . S
H1312 C1298 0.961 . S
H1313 C1299 0.958 . S
H1314 C1299 0.961 . S
H1315 C1299 0.960 . S
C1316 C1317 1.391 . S
C1316 C1318 1.394 . S
C1316 H1332 0.931 . S
C1317 C1316 1.391 . S
C1317 C1321 1.376 . S
C1318 C1316 1.394 . S
C1318 C1319 1.369 . S
C1318 C1322 1.531 . S
C1319 C1318 1.369 . S
C1319 C1320 1.410 . S
C1319 C1327 1.503 1_655 S
C1320 C1319 1.410 . S
C1320 C1321 1.392 . S
C1320 C1323 1.511 . S
C1321 C1317 1.376 . S
C1321 C1320 1.392 . S
C1321 H1333 0.929 . S
C1322 C1318 1.531 . S
C1322 H1334 0.960 1_655 S
C1322 H1335 0.962 . S
C1322 H1336 0.960 . S
C1323 C1320 1.511 . S
C1323 H1337 0.961 . S
C1323 H1338 0.961 . S
C1323 H1339 0.961 . S
C1324 C1325 1.370 . S
C1324 C1326 1.363 . S
C1324 H1340 0.931 . S
C1325 C1324 1.370 . S
C1325 C1329 1.408 . S
C1326 C1324 1.363 . S
C1326 C1327 1.370 . S
C1326 C1330 1.536 . S
C1327 C1319 1.503 1_455 S
C1327 C1326 1.370 . S
C1327 C1328 1.403 . S
C1328 C1327 1.403 . S
C1328 C1329 1.404 . S
C1328 C1331 1.539 . S
C1329 C1325 1.408 . S
C1329 C1328 1.404 . S
C1329 H1341 0.930 . S
C1330 C1326 1.536 . S
C1330 H1342 0.954 1_455 S
C1330 H1343 0.952 1_455 S
C1330 H1344 0.959 . S
C1331 C1328 1.539 . S
C1331 H1345 0.958 . S
C1331 H1346 0.961 . S
C1331 H1347 0.960 . S
H1332 C1316 0.931 . S
H1333 C1321 0.929 . S
H1334 C1322 0.960 1_455 S
H1335 C1322 0.962 . S
H1336 C1322 0.960 . S
H1337 C1323 0.961 . S
H1338 C1323 0.961 . S
H1339 C1323 0.961 . S
H1340 C1324 0.931 . S
H1341 C1329 0.930 . S
H1342 C1330 0.954 1_655 S
H1343 C1330 0.952 1_655 S
H1344 C1330 0.959 . S
H1345 C1331 0.958 . S
H1346 C1331 0.961 . S
H1347 C1331 0.960 . S
C1348 C1349 1.391 . S
C1348 C1350 1.394 . S
C1348 H1364 0.931 . S
C1349 C1348 1.391 . S
C1349 C1353 1.376 . S
C1350 C1348 1.394 . S
C1350 C1351 1.369 . S
C1350 C1354 1.531 . S
C1351 C1350 1.369 . S
C1351 C1352 1.410 . S
C1351 C1359 1.503 1_545 S
C1352 C1351 1.410 . S
C1352 C1353 1.392 . S
C1352 C1355 1.511 . S
C1353 C1349 1.376 . S
C1353 C1352 1.392 . S
C1353 H1365 0.929 . S
C1354 C1350 1.531 . S
C1354 H1366 0.960 . S
C1354 H1367 0.962 . S
C1354 H1368 0.960 . S
C1355 C1352 1.511 . S
C1355 H1369 0.961 . S
C1355 H1370 0.961 1_545 S
C1355 H1371 0.961 1_545 S
C1356 C1357 1.370 . S
C1356 C1358 1.363 . S
C1356 H1372 0.931 . S
C1357 C1356 1.370 . S
C1357 C1361 1.408 . S
C1358 C1356 1.363 . S
C1358 C1359 1.370 . S
C1358 C1362 1.524 . S
C1359 C1351 1.503 1_565 S
C1359 C1358 1.370 . S
C1359 C1360 1.403 . S
C1360 C1359 1.403 . S
C1360 C1361 1.404 . S
C1360 C1363 1.539 . S
C1361 C1357 1.408 . S
C1361 C1360 1.404 . S
C1361 H1373 0.930 . S
C1362 C1358 1.524 . S
C1362 H1374 0.956 1_565 S
C1362 H1375 0.961 1_565 S
C1362 H1376 0.961 . S
C1363 C1360 1.539 . S
C1363 H1377 0.958 . S
C1363 H1378 0.961 . S
C1363 H1379 0.960 . S
H1364 C1348 0.931 . S
H1365 C1353 0.929 . S
H1366 C1354 0.960 . S
H1367 C1354 0.962 . S
H1368 C1354 0.960 . S
H1369 C1355 0.961 . S
H1370 C1355 0.961 1_565 S
H1371 C1355 0.961 1_565 S
H1372 C1356 0.931 . S
H1373 C1361 0.930 . S
H1374 C1362 0.956 1_545 S
H1375 C1362 0.961 1_545 S
H1376 C1362 0.961 . S
H1377 C1363 0.958 . S
H1378 C1363 0.961 . S
H1379 C1363 0.960 . S
C1380 C1381 1.391 . S
C1380 C1382 1.394 . S
C1380 H1396 0.931 . S
C1381 C1380 1.391 . S
C1381 C1385 1.376 . S
C1382 C1380 1.394 . S
C1382 C1383 1.369 . S
C1382 C1386 1.531 . S
C1383 C1382 1.369 . S
C1383 C1384 1.410 . S
C1383 C1391 1.503 . S
C1384 C1383 1.410 . S
C1384 C1385 1.392 . S
C1384 C1387 1.511 . S
C1385 C1381 1.376 . S
C1385 C1384 1.392 . S
C1385 H1397 0.929 . S
C1386 C1382 1.531 . S
C1386 H1398 0.960 . S
C1386 H1399 0.962 . S
C1386 H1400 0.960 . S
C1387 C1384 1.511 . S
C1387 H1401 0.961 . S
C1387 H1402 0.961 . S
C1387 H1403 0.961 . S
C1388 C1389 1.370 . S
C1388 C1390 1.363 . S
C1388 H1404 0.931 . S
C1389 C1388 1.370 . S
C1389 C1393 1.408 . S
C1390 C1388 1.363 . S
C1390 C1391 1.370 . S
C1390 C1394 1.524 . S
C1391 C1383 1.503 . S
C1391 C1390 1.370 . S
C1391 C1392 1.403 . S
C1392 C1391 1.403 . S
C1392 C1393 1.404 . S
C1392 C1395 1.539 . S
C1393 C1389 1.408 . S
C1393 C1392 1.404 . S
C1393 H1405 0.930 . S
C1394 C1390 1.524 . S
C1394 H1406 0.956 . S
C1394 H1407 0.961 . S
C1394 H1408 0.961 . S
C1395 C1392 1.539 . S
C1395 H1409 0.958 . S
C1395 H1410 0.961 . S
C1395 H1411 0.960 . S
H1396 C1380 0.931 . S
H1397 C1385 0.929 . S
H1398 C1386 0.960 . S
H1399 C1386 0.962 . S
H1400 C1386 0.960 . S
H1401 C1387 0.961 . S
H1402 C1387 0.961 . S
H1403 C1387 0.961 . S
H1404 C1388 0.931 . S
H1405 C1393 0.930 . S
H1406 C1394 0.956 . S
H1407 C1394 0.961 . S
H1408 C1394 0.961 . S
H1409 C1395 0.958 . S
H1410 C1395 0.961 . S
H1411 C1395 0.960 . S
C1412 C1413 1.391 . S
C1412 C1414 1.394 . S
C1412 H1428 0.931 . S
C1413 C1412 1.391 . S
C1413 C1417 1.376 . S
C1414 C1412 1.394 . S
C1414 C1415 1.369 . S
C1414 C1418 1.531 . S
C1415 C1414 1.369 . S
C1415 C1416 1.410 . S
C1415 C1423 1.503 1_455 S
C1416 C1415 1.410 . S
C1416 C1417 1.392 . S
C1416 C1419 1.511 . S
C1417 C1413 1.376 . S
C1417 C1416 1.392 . S
C1417 H1429 0.929 . S
C1418 C1414 1.531 . S
C1418 H1430 0.960 . S
C1418 H1431 0.962 . S
C1418 H1432 0.960 . S
C1419 C1416 1.511 . S
C1419 H1433 0.961 . S
C1419 H1434 0.961 1_455 S
C1419 H1435 0.961 . S
C1420 C1421 1.370 . S
C1420 C1422 1.363 . S
C1420 H1436 0.931 . S
C1421 C1420 1.370 . S
C1421 C1425 1.408 . S
C1422 C1420 1.363 . S
C1422 C1423 1.370 . S
C1422 C1426 1.524 . S
C1423 C1415 1.503 1_655 S
C1423 C1422 1.370 . S
C1423 C1424 1.403 . S
C1424 C1423 1.403 . S
C1424 C1425 1.404 . S
C1424 C1427 1.539 . S
C1425 C1421 1.408 . S
C1425 C1424 1.404 . S
C1425 H1437 0.930 . S
C1426 C1422 1.524 . S
C1426 H1438 0.956 . S
C1426 H1439 0.961 . S
C1426 H1440 0.961 . S
C1427 C1424 1.539 . S
C1427 H1441 0.958 1_655 S
C1427 H1442 0.961 . S
C1427 H1443 0.960 1_655 S
H1428 C1412 0.931 . S
H1429 C1417 0.929 . S
H1430 C1418 0.960 . S
H1431 C1418 0.962 . S
H1432 C1418 0.960 . S
H1433 C1419 0.961 . S
H1434 C1419 0.961 1_655 S
H1435 C1419 0.961 . S
H1436 C1420 0.931 . S
H1437 C1425 0.930 . S
H1438 C1426 0.956 . S
H1439 C1426 0.961 . S
H1440 C1426 0.961 . S
H1441 C1427 0.958 1_455 S
H1442 C1427 0.961 . S
H1443 C1427 0.960 1_455 S
C1444 C1445 1.391 . S
C1444 C1446 1.394 . S
C1444 H1460 0.931 . S
C1445 C1444 1.391 . S
C1445 C1449 1.376 . S
C1446 C1444 1.394 . S
C1446 C1447 1.369 . S
C1446 C1450 1.531 . S
C1447 C1446 1.369 . S
C1447 C1448 1.410 . S
C1447 C1455 1.503 1_565 S
C1448 C1447 1.410 . S
C1448 C1449 1.392 . S
C1448 C1451 1.511 . S
C1449 C1445 1.376 . S
C1449 C1448 1.392 . S
C1449 H1461 0.929 . S
C1450 C1446 1.531 . S
C1450 H1462 0.960 1_565 S
C1450 H1463 0.962 1_565 S
C1450 H1464 0.960 . S
C1451 C1448 1.511 . S
C1451 H1465 0.961 . S
C1451 H1466 0.961 . S
C1451 H1467 0.961 . S
C1452 C1453 1.370 . S
C1452 C1454 1.363 . S
C1452 H1468 0.931 . S
C1453 C1452 1.370 . S
C1453 C1457 1.408 . S
C1454 C1452 1.363 . S
C1454 C1455 1.370 . S
C1454 C1458 1.524 . S
C1455 C1447 1.503 1_545 S
C1455 C1454 1.370 . S
C1455 C1456 1.403 . S
C1456 C1455 1.403 . S
C1456 C1457 1.404 . S
C1456 C1459 1.539 . S
C1457 C1453 1.408 . S
C1457 C1456 1.404 . S
C1457 H1469 0.930 . S
C1458 C1454 1.524 . S
C1458 H1470 0.956 . S
C1458 H1471 0.961 . S
C1458 H1472 0.961 . S
C1459 C1456 1.539 . S
C1459 H1473 0.958 . S
C1459 H1474 0.961 . S
C1459 H1475 0.960 1_545 S
H1460 C1444 0.931 . S
H1461 C1449 0.929 . S
H1462 C1450 0.960 1_545 S
H1463 C1450 0.962 1_545 S
H1464 C1450 0.960 . S
H1465 C1451 0.961 . S
H1466 C1451 0.961 . S
H1467 C1451 0.961 . S
H1468 C1452 0.931 . S
H1469 C1457 0.930 . S
H1470 C1458 0.956 . S
H1471 C1458 0.961 . S
H1472 C1458 0.961 . S
H1473 C1459 0.958 . S
H1474 C1459 0.961 . S
H1475 C1459 0.960 1_565 S
C709 C593 1.367 . S
C717 C3 1.381 . S
C741 C62 1.378 . S
C749 C652 1.393 . S
C773 C121 1.371 . S
C781 C357 1.380 . S
C805 C180 1.402 . S
C813 C416 1.395 . S
C837 C475 1.368 . S
C845 C239 1.380 . S
C869 C298 1.398 . S
C877 C534 1.396 . S
C901 C505 1.278 . S
C909 C33 1.274 . S
C933 C92 1.303 . S
C941 C564 1.276 . S
C965 C151 1.265 . S
C973 C623 1.292 . S
C997 C210 1.249 . S
C1005 C682 1.293 . S
C1029 C387 1.268 . S
C1037 C269 1.290 . S
C1061 C446 1.252 . S
C1069 C328 1.292 . S
C1093 C229 1.661 . S
C1101 C52 1.665 . S
C1125 C111 1.669 . S
C1133 C288 1.669 . S
C1157 C347 1.669 . S
C1165 C170 1.669 . S
C1189 C583 1.668 . S
C1197 C406 1.669 . S
C1221 C642 1.670 . S
C1229 C465 1.669 . S
C1253 C524 1.669 . S
C1261 C701 1.669 . S
C1285 C182 1.289 . S
C1293 C5 1.285 . S
C1317 C64 1.289 . S
C1325 C241 1.284 . S
C1349 C300 1.290 . S
C1357 C123 1.287 . S
C1381 C359 1.285 . S
C1389 C536 1.286 . S
C1413 C595 1.279 . S
C1421 C418 1.291 . S
C1445 C477 1.278 . S
C1453 C654 1.288 . S
