# Generated by pormake.
# Topology wlm, (5)-cn, num edge types: 1
# Building blocks:
#     Node 0, Type 0, BuildingBlock: XOMCOT_clean_sbu_0, # of connection points: 5
#     Node 1, Type 0, BuildingBlock: XOMCOT_clean_sbu_0, # of connection points: 5
#     Node 2, Type 0, BuildingBlock: XOMCOT_clean_sbu_0, # of connection points: 5
#     Node 3, Type 0, BuildingBlock: XOMCOT_clean_sbu_0, # of connection points: 5
#     Node 4, Type 0, BuildingBlock: XOMCOT_clean_sbu_0, # of connection points: 5
#     Node 5, Type 0, BuildingBlock: XOMCOT_clean_sbu_0, # of connection points: 5
#     Node 6, Type 0, BuildingBlock: XOMCOT_clean_sbu_0, # of connection points: 5
#     Node 7, Type 0, BuildingBlock: XOMCOT_clean_sbu_0, # of connection points: 5
#     Node 8, Type 0, BuildingBlock: XOMCOT_clean_sbu_0, # of connection points: 5
#     Node 9, Type 0, BuildingBlock: XOMCOT_clean_sbu_0, # of connection points: 5
#     Node 10, Type 0, BuildingBlock: XOMCOT_clean_sbu_0, # of connection points: 5
#     Node 11, Type 0, BuildingBlock: XOMCOT_clean_sbu_0, # of connection points: 5
#     Node 12, Type 0, BuildingBlock: XOMCOT_clean_sbu_0, # of connection points: 5
#     Node 13, Type 0, BuildingBlock: XOMCOT_clean_sbu_0, # of connection points: 5
#     Node 14, Type 0, BuildingBlock: XOMCOT_clean_sbu_0, # of connection points: 5
#     Node 15, Type 0, BuildingBlock: XOMCOT_clean_sbu_0, # of connection points: 5
#     Node 16, Type 0, BuildingBlock: XOMCOT_clean_sbu_0, # of connection points: 5
#     Node 17, Type 0, BuildingBlock: XOMCOT_clean_sbu_0, # of connection points: 5
#     Node 18, Type 0, BuildingBlock: XOMCOT_clean_sbu_0, # of connection points: 5
#     Node 19, Type 0, BuildingBlock: XOMCOT_clean_sbu_0, # of connection points: 5
#     Node 20, Type 0, BuildingBlock: XOMCOT_clean_sbu_0, # of connection points: 5
#     Node 21, Type 0, BuildingBlock: XOMCOT_clean_sbu_0, # of connection points: 5
#     Node 22, Type 0, BuildingBlock: XOMCOT_clean_sbu_0, # of connection points: 5
#     Node 23, Type 0, BuildingBlock: XOMCOT_clean_sbu_0, # of connection points: 5
#     Node 24, Type 0, BuildingBlock: XOMCOT_clean_sbu_0, # of connection points: 5
#     Node 25, Type 0, BuildingBlock: XOMCOT_clean_sbu_0, # of connection points: 5
#     Node 26, Type 0, BuildingBlock: XOMCOT_clean_sbu_0, # of connection points: 5
#     Node 27, Type 0, BuildingBlock: XOMCOT_clean_sbu_0, # of connection points: 5
#     Node 28, Type 0, BuildingBlock: XOMCOT_clean_sbu_0, # of connection points: 5
#     Node 29, Type 0, BuildingBlock: XOMCOT_clean_sbu_0, # of connection points: 5
#     Node 30, Type 0, BuildingBlock: XOMCOT_clean_sbu_0, # of connection points: 5
#     Node 31, Type 0, BuildingBlock: XOMCOT_clean_sbu_0, # of connection points: 5
#     Node 32, Type 0, BuildingBlock: XOMCOT_clean_sbu_0, # of connection points: 5
#     Node 33, Type 0, BuildingBlock: XOMCOT_clean_sbu_0, # of connection points: 5
#     Node 34, Type 0, BuildingBlock: XOMCOT_clean_sbu_0, # of connection points: 5
#     Node 35, Type 0, BuildingBlock: XOMCOT_clean_sbu_0, # of connection points: 5
#     Edge 36, Type (0, 0), BuildingBlock: AJUNOK_clean_linker_0, # of connection points: 2
#     Edge 37, Type (0, 0), BuildingBlock: AJUNOK_clean_linker_0, # of connection points: 2
#     Edge 38, Type (0, 0), BuildingBlock: AJUNOK_clean_linker_0, # of connection points: 2
#     Edge 39, Type (0, 0), BuildingBlock: AJUNOK_clean_linker_0, # of connection points: 2
#     Edge 40, Type (0, 0), BuildingBlock: AJUNOK_clean_linker_0, # of connection points: 2
#     Edge 41, Type (0, 0), BuildingBlock: AJUNOK_clean_linker_0, # of connection points: 2
#     Edge 42, Type (0, 0), BuildingBlock: AJUNOK_clean_linker_0, # of connection points: 2
#     Edge 43, Type (0, 0), BuildingBlock: AJUNOK_clean_linker_0, # of connection points: 2
#     Edge 44, Type (0, 0), BuildingBlock: AJUNOK_clean_linker_0, # of connection points: 2
#     Edge 45, Type (0, 0), BuildingBlock: AJUNOK_clean_linker_0, # of connection points: 2
#     Edge 46, Type (0, 0), BuildingBlock: AJUNOK_clean_linker_0, # of connection points: 2
#     Edge 47, Type (0, 0), BuildingBlock: AJUNOK_clean_linker_0, # of connection points: 2
#     Edge 48, Type (0, 0), BuildingBlock: AJUNOK_clean_linker_0, # of connection points: 2
#     Edge 49, Type (0, 0), BuildingBlock: AJUNOK_clean_linker_0, # of connection points: 2
#     Edge 50, Type (0, 0), BuildingBlock: AJUNOK_clean_linker_0, # of connection points: 2
#     Edge 51, Type (0, 0), BuildingBlock: AJUNOK_clean_linker_0, # of connection points: 2
#     Edge 52, Type (0, 0), BuildingBlock: AJUNOK_clean_linker_0, # of connection points: 2
#     Edge 53, Type (0, 0), BuildingBlock: AJUNOK_clean_linker_0, # of connection points: 2
#     Edge 54, Type (0, 0), BuildingBlock: AJUNOK_clean_linker_0, # of connection points: 2
#     Edge 55, Type (0, 0), BuildingBlock: AJUNOK_clean_linker_0, # of connection points: 2
#     Edge 56, Type (0, 0), BuildingBlock: AJUNOK_clean_linker_0, # of connection points: 2
#     Edge 57, Type (0, 0), BuildingBlock: AJUNOK_clean_linker_0, # of connection points: 2
#     Edge 58, Type (0, 0), BuildingBlock: AJUNOK_clean_linker_0, # of connection points: 2
#     Edge 59, Type (0, 0), BuildingBlock: AJUNOK_clean_linker_0, # of connection points: 2
#     Edge 60, Type (0, 0), BuildingBlock: AJUNOK_clean_linker_0, # of connection points: 2
#     Edge 61, Type (0, 0), BuildingBlock: AJUNOK_clean_linker_0, # of connection points: 2
#     Edge 62, Type (0, 0), BuildingBlock: AJUNOK_clean_linker_0, # of connection points: 2
#     Edge 63, Type (0, 0), BuildingBlock: AJUNOK_clean_linker_0, # of connection points: 2
#     Edge 64, Type (0, 0), BuildingBlock: AJUNOK_clean_linker_0, # of connection points: 2
#     Edge 65, Type (0, 0), BuildingBlock: AJUNOK_clean_linker_0, # of connection points: 2
#     Edge 66, Type (0, 0), BuildingBlock: AJUNOK_clean_linker_0, # of connection points: 2
#     Edge 67, Type (0, 0), BuildingBlock: AJUNOK_clean_linker_0, # of connection points: 2
#     Edge 68, Type (0, 0), BuildingBlock: AJUNOK_clean_linker_0, # of connection points: 2
#     Edge 69, Type (0, 0), BuildingBlock: AJUNOK_clean_linker_0, # of connection points: 2
#     Edge 70, Type (0, 0), BuildingBlock: AJUNOK_clean_linker_0, # of connection points: 2
#     Edge 71, Type (0, 0), BuildingBlock: AJUNOK_clean_linker_0, # of connection points: 2
#     Edge 72, Type (0, 0), BuildingBlock: AJUNOK_clean_linker_0, # of connection points: 2
#     Edge 73, Type (0, 0), BuildingBlock: AJUNOK_clean_linker_0, # of connection points: 2
#     Edge 74, Type (0, 0), BuildingBlock: AJUNOK_clean_linker_0, # of connection points: 2
#     Edge 75, Type (0, 0), BuildingBlock: AJUNOK_clean_linker_0, # of connection points: 2
#     Edge 76, Type (0, 0), BuildingBlock: AJUNOK_clean_linker_0, # of connection points: 2
#     Edge 77, Type (0, 0), BuildingBlock: AJUNOK_clean_linker_0, # of connection points: 2
#     Edge 78, Type (0, 0), BuildingBlock: AJUNOK_clean_linker_0, # of connection points: 2
#     Edge 79, Type (0, 0), BuildingBlock: AJUNOK_clean_linker_0, # of connection points: 2
#     Edge 80, Type (0, 0), BuildingBlock: AJUNOK_clean_linker_0, # of connection points: 2
#     Edge 81, Type (0, 0), BuildingBlock: AJUNOK_clean_linker_0, # of connection points: 2
#     Edge 82, Type (0, 0), BuildingBlock: AJUNOK_clean_linker_0, # of connection points: 2
#     Edge 83, Type (0, 0), BuildingBlock: AJUNOK_clean_linker_0, # of connection points: 2
#     Edge 84, Type (0, 0), BuildingBlock: AJUNOK_clean_linker_0, # of connection points: 2
#     Edge 85, Type (0, 0), BuildingBlock: AJUNOK_clean_linker_0, # of connection points: 2
#     Edge 86, Type (0, 0), BuildingBlock: AJUNOK_clean_linker_0, # of connection points: 2
#     Edge 87, Type (0, 0), BuildingBlock: AJUNOK_clean_linker_0, # of connection points: 2
#     Edge 88, Type (0, 0), BuildingBlock: AJUNOK_clean_linker_0, # of connection points: 2
#     Edge 89, Type (0, 0), BuildingBlock: AJUNOK_clean_linker_0, # of connection points: 2
#     Edge 90, Type (0, 0), BuildingBlock: AJUNOK_clean_linker_0, # of connection points: 2
#     Edge 91, Type (0, 0), BuildingBlock: AJUNOK_clean_linker_0, # of connection points: 2
#     Edge 92, Type (0, 0), BuildingBlock: AJUNOK_clean_linker_0, # of connection points: 2
#     Edge 93, Type (0, 0), BuildingBlock: AJUNOK_clean_linker_0, # of connection points: 2
#     Edge 94, Type (0, 0), BuildingBlock: AJUNOK_clean_linker_0, # of connection points: 2
#     Edge 95, Type (0, 0), BuildingBlock: AJUNOK_clean_linker_0, # of connection points: 2
#     Edge 96, Type (0, 0), BuildingBlock: AJUNOK_clean_linker_0, # of connection points: 2
#     Edge 97, Type (0, 0), BuildingBlock: AJUNOK_clean_linker_0, # of connection points: 2
#     Edge 98, Type (0, 0), BuildingBlock: AJUNOK_clean_linker_0, # of connection points: 2
#     Edge 99, Type (0, 0), BuildingBlock: AJUNOK_clean_linker_0, # of connection points: 2
#     Edge 100, Type (0, 0), BuildingBlock: AJUNOK_clean_linker_0, # of connection points: 2
#     Edge 101, Type (0, 0), BuildingBlock: AJUNOK_clean_linker_0, # of connection points: 2
#     Edge 102, Type (0, 0), BuildingBlock: AJUNOK_clean_linker_0, # of connection points: 2
#     Edge 103, Type (0, 0), BuildingBlock: AJUNOK_clean_linker_0, # of connection points: 2
#     Edge 104, Type (0, 0), BuildingBlock: AJUNOK_clean_linker_0, # of connection points: 2
#     Edge 105, Type (0, 0), BuildingBlock: AJUNOK_clean_linker_0, # of connection points: 2
#     Edge 106, Type (0, 0), BuildingBlock: AJUNOK_clean_linker_0, # of connection points: 2
#     Edge 107, Type (0, 0), BuildingBlock: AJUNOK_clean_linker_0, # of connection points: 2
#     Edge 108, Type (0, 0), BuildingBlock: AJUNOK_clean_linker_0, # of connection points: 2
#     Edge 109, Type (0, 0), BuildingBlock: AJUNOK_clean_linker_0, # of connection points: 2
#     Edge 110, Type (0, 0), BuildingBlock: AJUNOK_clean_linker_0, # of connection points: 2
#     Edge 111, Type (0, 0), BuildingBlock: AJUNOK_clean_linker_0, # of connection points: 2
#     Edge 112, Type (0, 0), BuildingBlock: AJUNOK_clean_linker_0, # of connection points: 2
#     Edge 113, Type (0, 0), BuildingBlock: AJUNOK_clean_linker_0, # of connection points: 2
#     Edge 114, Type (0, 0), BuildingBlock: AJUNOK_clean_linker_0, # of connection points: 2
#     Edge 115, Type (0, 0), BuildingBlock: AJUNOK_clean_linker_0, # of connection points: 2
#     Edge 116, Type (0, 0), BuildingBlock: AJUNOK_clean_linker_0, # of connection points: 2
#     Edge 117, Type (0, 0), BuildingBlock: AJUNOK_clean_linker_0, # of connection points: 2
#     Edge 118, Type (0, 0), BuildingBlock: AJUNOK_clean_linker_0, # of connection points: 2
#     Edge 119, Type (0, 0), BuildingBlock: AJUNOK_clean_linker_0, # of connection points: 2
#     Edge 120, Type (0, 0), BuildingBlock: AJUNOK_clean_linker_0, # of connection points: 2
#     Edge 121, Type (0, 0), BuildingBlock: AJUNOK_clean_linker_0, # of connection points: 2
#     Edge 122, Type (0, 0), BuildingBlock: AJUNOK_clean_linker_0, # of connection points: 2
#     Edge 123, Type (0, 0), BuildingBlock: AJUNOK_clean_linker_0, # of connection points: 2
#     Edge 124, Type (0, 0), BuildingBlock: AJUNOK_clean_linker_0, # of connection points: 2
#     Edge 125, Type (0, 0), BuildingBlock: AJUNOK_clean_linker_0, # of connection points: 2
# Relax obj value: 0.123
# Max RMSD: 0.149
# Mean RMSD: 0.149
data_MOF--net-wlm--node1-XOMCOT_clean_sbu_0--edge1-AJUNOK_clean_linker_0
_symmetry_space_group_name_H-M    P1
_symmetry_Int_Tables_number       1
_symmetry_cell_setting            triclinic
loop_
_symmetry_equiv_pos_as_xyz
'x, y, z'
_cell_length_a     99.556946
_cell_length_b     99.451439
_cell_length_c     13.730569
_cell_angle_alpha  90.052327
_cell_angle_beta   89.994353
_cell_angle_gamma 119.98659
loop_
_atom_site_label
_atom_site_type_symbol
_atom_site_fract_x
_atom_site_fract_y
_atom_site_fract_z
_atom_type_partial_charge
Co0 Co 0.1204 0.39376 0.22713 0.0
C1 C 0.12114 0.39481 1.01064 0.0
C2 C 0.10496 0.37203 0.06387 0.0
C3 C 0.10501 0.37155 0.96358 0.0
N4 N 0.1152 0.38657 0.09345 0.0
N5 N 0.11514 0.38585 0.93052 0.0
H6 H 0.12981 0.40701 1.00899 0.0
H7 H 0.09792 0.36239 0.11155 0.0
C8 C 0.1193 0.36566 0.32139 0.0
O9 O 0.13273 0.3744 0.36421 0.0
N10 N 0.12532 0.40123 0.36234 0.0
C11 C 0.13292 0.41628 0.3908 0.0
C12 C 0.13306 0.41711 0.49081 0.0
C13 C 0.12037 0.39318 0.44704 0.0
N14 N 0.12533 0.40258 0.52611 0.0
C15 C 0.15407 0.41198 0.22322 0.0
C16 C 0.15848 0.38826 0.15586 0.0
C17 C 0.17149 0.40232 0.18336 0.0
C18 C 0.16917 0.41445 0.21453 0.0
C19 C 0.14364 0.38631 0.16561 0.0
N20 N 0.14149 0.39777 0.20438 0.0
H21 H 0.15259 0.42156 0.24471 0.0
H22 H 0.13382 0.37534 0.1442 0.0
H23 H 0.13761 0.42618 0.34268 0.0
H24 H 0.11265 0.38081 0.45161 0.0
O25 O 0.12244 0.41357 0.18858 0.0
O26 O 0.10083 0.39304 0.23967 0.0
O27 O 0.1131 0.37163 0.26848 0.0
C28 C 0.10767 0.40724 0.20797 0.0
H29 H 0.09799 0.36152 0.91821 0.0
H30 H 0.13832 0.4276 0.53437 0.0
H31 H 0.1597 0.37865 0.12961 0.0
H32 H 0.17892 0.42575 0.23202 0.0
Co33 Co 0.60332 0.72608 0.23306 0.0
C34 C 0.6028 0.72545 1.01305 0.0
C35 C 0.62403 0.72859 0.07252 0.0
C36 C 0.62474 0.72786 0.97278 0.0
N37 N 0.6105 0.72765 0.09841 0.0
N38 N 0.61134 0.7258 0.9353 0.0
H39 H 0.59089 0.72262 1.00703 0.0
H40 H 0.63276 0.72942 0.12289 0.0
C41 C 0.63525 0.75339 0.23714 0.0
O42 O 0.63108 0.75838 0.1607 0.0
N43 N 0.59623 0.72391 0.36665 0.0
C44 C 0.58239 0.72181 0.39555 0.0
C45 C 0.58179 0.72129 0.49573 0.0
C46 C 0.60386 0.72452 0.44947 0.0
N47 N 0.59526 0.72294 0.52968 0.0
C48 C 0.58974 0.74367 0.15022 0.0
C49 C 0.60422 0.76837 0.27803 0.0
C50 C 0.59522 0.76922 0.20273 0.0
C51 C 0.58775 0.7566 0.13883 0.0
C52 C 0.60608 0.75541 0.28568 0.0
N53 N 0.59961 0.74359 0.21905 0.0
H54 H 0.58299 0.73364 0.10549 0.0
H55 H 0.61291 0.75497 0.34542 0.0
H56 H 0.57343 0.72093 0.34698 0.0
H57 H 0.61557 0.72648 0.45097 0.0
O58 O 0.58317 0.70888 0.19607 0.0
O59 O 0.6033 0.70676 0.24357 0.0
O60 O 0.62545 0.74053 0.27696 0.0
C61 C 0.58895 0.69992 0.21439 0.0
H62 H 0.63442 0.72881 0.93136 0.0
H63 H 0.57216 0.71977 0.54032 0.0
H64 H 0.60995 0.77776 0.33005 0.0
H65 H 0.5802 0.75659 0.08204 0.0
Co66 Co 0.27117 0.87819 0.21285 0.0
C67 C 0.27192 0.87852 0.99562 0.0
C68 C 0.26758 0.896 0.05417 0.0
C69 C 0.26787 0.89703 0.95417 0.0
N70 N 0.27004 0.88436 0.08028 0.0
N71 N 0.27078 0.88616 0.91708 0.0
H72 H 0.27428 0.86902 0.99175 0.0
H73 H 0.26568 0.90329 0.10421 0.0
C74 C 0.24538 0.8801 0.31356 0.0
O75 O 0.24106 0.86666 0.35535 0.0
N76 N 0.27287 0.87254 0.34754 0.0
C77 C 0.27736 0.86246 0.37766 0.0
C78 C 0.27809 0.86261 0.47776 0.0
C79 C 0.27199 0.87943 0.43082 0.0
N80 N 0.27467 0.87327 0.51135 0.0
C81 C 0.25424 0.84447 0.19613 0.0
C82 C 0.22655 0.84213 0.13887 0.0
C83 C 0.22681 0.82848 0.16026 0.0
C84 C 0.24103 0.82976 0.18636 0.0
C85 C 0.23999 0.85653 0.15002 0.0
N86 N 0.25336 0.85765 0.18524 0.0
H87 H 0.26513 0.84517 0.21209 0.0
H88 H 0.23949 0.86685 0.13233 0.0
H89 H 0.28082 0.856 0.33106 0.0
H90 H 0.26948 0.88882 0.43266 0.0
O91 O 0.28816 0.87493 0.1754 0.0
O92 O 0.29068 0.89709 0.2294 0.0
O93 O 0.25701 0.88621 0.25595 0.0
C94 C 0.29731 0.88948 0.19793 0.0
H95 H 0.26577 0.905 0.91229 0.0
H96 H 0.28145 0.85581 0.52241 0.0
H97 H 0.21598 0.84169 0.11472 0.0
H98 H 0.2419 0.81954 0.20159 0.0
Co99 Co 0.39171 0.11915 0.82697 0.0
C100 C 0.39181 0.11931 0.04394 0.0
C101 C 0.37082 0.10043 0.98544 0.0
C102 C 0.36988 0.09979 0.08565 0.0
N103 N 0.38449 0.11273 0.95934 0.0
N104 N 0.38304 0.11169 0.12236 0.0
H105 H 0.40321 0.12953 0.04798 0.0
H106 H 0.36215 0.0924 0.93513 0.0
C107 C 0.36379 0.11804 0.73377 0.0
O108 O 0.37257 0.13221 0.70065 0.0
N109 N 0.39893 0.12503 0.6925 0.0
C110 C 0.41365 0.13428 0.66209 0.0
C111 C 0.41406 0.1343 0.56195 0.0
C112 C 0.3908 0.11882 0.60926 0.0
N113 N 0.39965 0.12464 0.52828 0.0
C114 C 0.40847 0.15302 0.83948 0.0
C115 C 0.38352 0.15512 0.90864 0.0
C116 C 0.39683 0.16872 0.87893 0.0
C117 C 0.4097 0.16765 0.8483 0.0
C118 C 0.3828 0.14082 0.8985 0.0
N119 N 0.39474 0.13976 0.85716 0.0
H120 H 0.41854 0.15246 0.81785 0.0
H121 H 0.37226 0.13046 0.91984 0.0
H122 H 0.42371 0.14001 0.70861 0.0
H123 H 0.37886 0.10958 0.60805 0.0
O124 O 0.4118 0.12173 0.86346 0.0
O125 O 0.3918 0.10012 0.8072 0.0
O126 O 0.36963 0.11145 0.78454 0.0
C127 C 0.40595 0.10714 0.83971 0.0
H128 H 0.3604 0.09103 0.12823 0.0
H129 H 0.42431 0.14075 0.51748 0.0
H130 H 0.37357 0.15549 0.93727 0.0
H131 H 0.42043 0.17794 0.82831 0.0
Co132 Co 0.87662 0.27188 0.8229 0.0
C133 C 0.87694 0.27264 0.04006 0.0
C134 C 0.89458 0.26856 0.98154 0.0
C135 C 0.89562 0.26886 0.08156 0.0
N136 N 0.88285 0.27086 0.95543 0.0
N137 N 0.88465 0.27161 0.1186 0.0
H138 H 0.86736 0.27485 0.04392 0.0
H139 H 0.90192 0.26676 0.93145 0.0
C140 C 0.87832 0.24596 0.72138 0.0
O141 O 0.86505 0.24187 0.67822 0.0
N142 N 0.87087 0.27339 0.68825 0.0
C143 C 0.86021 0.27708 0.65783 0.0
C144 C 0.86037 0.27779 0.55774 0.0
C145 C 0.878 0.27287 0.60519 0.0
N146 N 0.87152 0.27509 0.52441 0.0
C147 C 0.84322 0.25609 0.84785 0.0
C148 C 0.83971 0.2275 0.89463 0.0
C149 C 0.8264 0.2286 0.8786 0.0
C150 C 0.82829 0.24328 0.85874 0.0
C151 C 0.85438 0.24059 0.88287 0.0
N152 N 0.85599 0.25439 0.85192 0.0
H153 H 0.84445 0.26737 0.83729 0.0
H154 H 0.86445 0.23949 0.89714 0.0
H155 H 0.85324 0.27992 0.70405 0.0
H156 H 0.88767 0.27081 0.60382 0.0
O157 O 0.87377 0.2892 0.85903 0.0
O158 O 0.89567 0.29123 0.80486 0.0
O159 O 0.88433 0.25741 0.78058 0.0
C160 C 0.8883 0.29813 0.83569 0.0
H161 H 0.90367 0.2669 0.12353 0.0
H162 H 0.85315 0.28057 0.51291 0.0
H163 H 0.83884 0.21651 0.91349 0.0
H164 H 0.81833 0.24486 0.85179 0.0
Co165 Co 0.72473 0.60446 0.79904 0.0
C166 C 0.72586 0.60465 1.01936 0.0
C167 C 0.72599 0.62455 0.95898 0.0
C168 C 0.72602 0.62565 0.05879 0.0
N169 N 0.72635 0.61161 0.93355 0.0
N170 N 0.72602 0.61318 0.09673 0.0
H171 H 0.72488 0.59342 0.02645 0.0
H172 H 0.72535 0.6325 0.90804 0.0
C173 C 0.75196 0.63645 0.80052 0.0
O174 O 0.75656 0.63213 0.87809 0.0
N175 N 0.72263 0.5975 0.66543 0.0
C176 C 0.72047 0.58365 0.63573 0.0
C177 C 0.72028 0.58331 0.53549 0.0
C178 C 0.72363 0.60538 0.58317 0.0
N179 N 0.72235 0.59699 0.50229 0.0
C180 C 0.74105 0.58913 0.87585 0.0
C181 C 0.76707 0.6055 0.76098 0.0
C182 C 0.7672 0.59546 0.83173 0.0
C183 C 0.75377 0.58679 0.88772 0.0
C184 C 0.75421 0.60741 0.7515 0.0
N185 N 0.74185 0.60021 0.81346 0.0
H186 H 0.73053 0.58183 0.91536 0.0
H187 H 0.75428 0.61483 0.69395 0.0
H188 H 0.71941 0.57455 0.68376 0.0
H189 H 0.72514 0.61693 0.58289 0.0
O190 O 0.70709 0.58446 0.8352 0.0
O191 O 0.70582 0.60507 0.78757 0.0
O192 O 0.73951 0.62662 0.75688 0.0
C193 C 0.69857 0.59077 0.81751 0.0
H194 H 0.72542 0.63461 0.1002 0.0
H195 H 0.71908 0.57383 0.49043 0.0
H196 H 0.77689 0.61186 0.71286 0.0
H197 H 0.75316 0.57845 0.94074 0.0
Co198 Co 0.87674 0.6039 0.79639 0.0
C199 C 0.87567 0.6037 1.0159 0.0
C200 C 0.89511 0.62413 0.95809 0.0
C201 C 0.89596 0.62493 0.05814 0.0
N202 N 0.88212 0.61102 0.93104 0.0
N203 N 0.88366 0.61212 0.09456 0.0
H204 H 0.86599 0.59207 1.02103 0.0
H205 H 0.90359 0.63246 0.90822 0.0
C206 C 0.8812 0.63583 0.7965 0.0
O207 O 0.87228 0.63158 0.8741 0.0
N208 N 0.87188 0.59683 0.66281 0.0
C209 C 0.86051 0.58269 0.63487 0.0
C210 C 0.85985 0.58217 0.53477 0.0
C211 C 0.87809 0.60473 0.57935 0.0
N212 N 0.8708 0.59604 0.49992 0.0
C213 C 0.84509 0.58863 0.87354 0.0
C214 C 0.83544 0.60495 0.75819 0.0
C215 C 0.82536 0.59508 0.82986 0.0
C216 C 0.8301 0.58642 0.88603 0.0
C217 C 0.85015 0.60673 0.74815 0.0
N218 N 0.85534 0.59959 0.81047 0.0
H219 H 0.84828 0.58131 0.91315 0.0
H220 H 0.85746 0.61406 0.69017 0.0
H221 H 0.85305 0.57347 0.68411 0.0
H222 H 0.88745 0.61665 0.57668 0.0
O223 O 0.87446 0.58392 0.83292 0.0
O224 O 0.89629 0.60455 0.7854 0.0
O225 O 0.88405 0.62605 0.75405 0.0
C226 C 0.88928 0.59025 0.81533 0.0
H227 H 0.905 0.6342 0.10078 0.0
H228 H 0.85195 0.57229 0.49096 0.0
H229 H 0.83196 0.61129 0.70997 0.0
H230 H 0.82243 0.57819 0.93971 0.0
Co231 Co 0.39295 0.27271 0.8231 0.0
C232 C 0.39359 0.27334 0.03962 0.0
C233 C 0.37177 0.2694 0.98379 0.0
C234 C 0.37122 0.26947 0.08417 0.0
N235 N 0.38575 0.27171 0.95592 0.0
N236 N 0.38497 0.27205 0.11914 0.0
H237 H 0.40528 0.27525 0.04218 0.0
H238 H 0.3626 0.26785 0.93474 0.0
C239 C 0.36469 0.24667 0.72729 0.0
O240 O 0.37323 0.24109 0.69283 0.0
N241 N 0.40029 0.27428 0.68851 0.0
C242 C 0.4151 0.27964 0.65997 0.0
C243 C 0.41595 0.28062 0.56015 0.0
C244 C 0.39254 0.2729 0.60425 0.0
N245 N 0.40179 0.2765 0.52473 0.0
C246 C 0.40897 0.25492 0.83452 0.0
C247 C 0.38362 0.22799 0.9014 0.0
C248 C 0.39694 0.22754 0.87392 0.0
C249 C 0.40997 0.24141 0.84408 0.0
C250 C 0.38313 0.24169 0.89056 0.0
N251 N 0.3953 0.25466 0.85062 0.0
H252 H 0.41921 0.2655 0.81427 0.0
H253 H 0.37264 0.24167 0.91103 0.0
H254 H 0.42494 0.28348 0.70775 0.0
H255 H 0.38054 0.27001 0.60091 0.0
O256 O 0.41328 0.28958 0.86127 0.0
O257 O 0.39386 0.29235 0.80675 0.0
O258 O 0.37078 0.25899 0.77924 0.0
C259 C 0.40802 0.29885 0.83899 0.0
H260 H 0.36157 0.26804 0.12817 0.0
H261 H 0.42632 0.2842 0.51733 0.0
H262 H 0.37353 0.21775 0.92954 0.0
H263 H 0.42071 0.24173 0.82579 0.0
Co264 Co 0.72406 0.12035 0.81065 0.0
C265 C 0.72379 0.12028 0.02781 0.0
C266 C 0.72499 0.10092 0.96879 0.0
C267 C 0.72456 0.09983 0.06883 0.0
N268 N 0.72463 0.11378 0.943 0.0
N269 N 0.72362 0.11191 0.10624 0.0
H270 H 0.72299 0.13073 0.03181 0.0
H271 H 0.72529 0.09275 0.91833 0.0
C272 C 0.74998 0.11877 0.71022 0.0
O273 O 0.75437 0.13256 0.6735 0.0
N274 N 0.72295 0.12645 0.67613 0.0
C275 C 0.71996 0.1376 0.6455 0.0
C276 C 0.71944 0.13755 0.54531 0.0
C277 C 0.72325 0.11919 0.593 0.0
N278 N 0.72152 0.12598 0.51216 0.0
C279 C 0.74013 0.15374 0.83973 0.0
C280 C 0.76837 0.15668 0.88937 0.0
C281 C 0.76754 0.17017 0.87421 0.0
C282 C 0.75302 0.16856 0.85299 0.0
C283 C 0.75521 0.14213 0.87522 0.0
N284 N 0.74162 0.14082 0.84254 0.0
H285 H 0.72896 0.15269 0.82852 0.0
H286 H 0.75608 0.1319 0.88866 0.0
H287 H 0.7175 0.14486 0.69147 0.0
H288 H 0.72479 0.10917 0.59157 0.0
O289 O 0.70687 0.12336 0.84632 0.0
O290 O 0.70469 0.10146 0.79017 0.0
O291 O 0.73831 0.11241 0.7676 0.0
C292 C 0.69788 0.10886 0.82207 0.0
H293 H 0.72509 0.09089 0.1105 0.0
H294 H 0.71716 0.14511 0.50023 0.0
H295 H 0.77921 0.15733 0.90931 0.0
H296 H 0.75164 0.17866 0.84686 0.0
Co297 Co 0.6039 0.87872 0.22074 0.0
C298 C 0.6035 0.87876 1.00347 0.0
C299 C 0.62485 0.89701 0.06232 0.0
C300 C 0.62558 0.89808 0.96238 0.0
N301 N 0.61107 0.88486 0.08816 0.0
N302 N 0.61209 0.88673 0.92513 0.0
H303 H 0.59186 0.8689 0.99943 0.0
H304 H 0.63376 0.90468 0.11265 0.0
C305 C 0.63177 0.88035 0.31935 0.0
O306 O 0.6227 0.86726 0.36484 0.0
N307 N 0.59673 0.87307 0.35561 0.0
C308 C 0.58229 0.86267 0.38612 0.0
C309 C 0.58179 0.86276 0.48618 0.0
C310 C 0.6045 0.88004 0.43871 0.0
N311 N 0.59576 0.87366 0.51938 0.0
C312 C 0.58588 0.84529 0.19849 0.0
C313 C 0.61054 0.84107 0.15262 0.0
C314 C 0.5961 0.82801 0.17251 0.0
C315 C 0.58352 0.83022 0.19168 0.0
C316 C 0.61238 0.85592 0.16127 0.0
N317 N 0.60042 0.85791 0.19215 0.0
H318 H 0.57597 0.84675 0.2086 0.0
H319 H 0.62358 0.86583 0.14523 0.0
H320 H 0.57239 0.85597 0.34005 0.0
H321 H 0.61632 0.88956 0.44033 0.0
O322 O 0.58382 0.87604 0.18534 0.0
O323 O 0.60383 0.89792 0.23875 0.0
O324 O 0.62611 0.88629 0.26137 0.0
C325 C 0.58954 0.89062 0.2083 0.0
H326 H 0.63543 0.90647 0.92062 0.0
H327 H 0.57175 0.85572 0.53115 0.0
H328 H 0.62045 0.83985 0.134 0.0
H329 H 0.57198 0.82038 0.20197 0.0
Co330 Co 0.11905 0.72502 0.22754 0.0
C331 C 0.11923 0.7251 1.01059 0.0
C332 C 0.10007 0.72671 0.06898 0.0
C333 C 0.09942 0.72699 0.96877 0.0
N334 N 0.11254 0.72565 0.09516 0.0
N335 N 0.1115 0.72605 0.93211 0.0
H336 H 0.12961 0.7242 1.0066 0.0
H337 H 0.09192 0.72713 0.11923 0.0
C338 C 0.11716 0.75137 0.32169 0.0
O339 O 0.13133 0.75689 0.35516 0.0
N340 N 0.12507 0.72389 0.36206 0.0
C341 C 0.13478 0.71898 0.39256 0.0
C342 C 0.1348 0.71858 0.4927 0.0
C343 C 0.11862 0.72548 0.44524 0.0
N344 N 0.1247 0.72278 0.52626 0.0
C345 C 0.15273 0.74235 0.21083 0.0
C346 C 0.15454 0.76938 0.14351 0.0
C347 C 0.16831 0.76951 0.16672 0.0
C348 C 0.16731 0.75562 0.19793 0.0
C349 C 0.14027 0.75589 0.15734 0.0
N350 N 0.13942 0.74288 0.19729 0.0
H351 H 0.15225 0.7317 0.2314 0.0
H352 H 0.12983 0.75608 0.13867 0.0
H353 H 0.14086 0.71502 0.34619 0.0
H354 H 0.10908 0.72774 0.44639 0.0
O355 O 0.12239 0.708 0.19114 0.0
O356 O 0.10035 0.70549 0.24673 0.0
O357 O 0.11079 0.73899 0.27019 0.0
C358 C 0.10791 0.69884 0.21494 0.0
H359 H 0.09053 0.72749 0.92615 0.0
H360 H 0.14156 0.71517 0.53726 0.0
H361 H 0.15478 0.7797 0.11597 0.0
H362 H 0.17765 0.75508 0.21472 0.0
Co363 Co 0.27315 0.39522 0.24343 0.0
C364 C 0.27262 0.39542 0.02716 0.0
C365 C 0.27197 0.37497 0.08324 0.0
C366 C 0.27186 0.37432 0.98296 0.0
N367 N 0.27229 0.38811 0.11082 0.0
N368 N 0.27221 0.38716 0.94743 0.0
H369 H 0.27357 0.40673 0.02531 0.0
H370 H 0.27211 0.36658 0.13257 0.0
C371 C 0.24607 0.36782 0.33799 0.0
O372 O 0.24187 0.37733 0.37537 0.0
N373 N 0.27458 0.40248 0.37809 0.0
C374 C 0.27974 0.41723 0.40784 0.0
C375 C 0.27981 0.41775 0.50794 0.0
C376 C 0.27264 0.39448 0.46196 0.0
N377 N 0.27522 0.40342 0.54194 0.0
C378 C 0.2576 0.41332 0.22431 0.0
C379 C 0.22963 0.3889 0.16133 0.0
C380 C 0.23046 0.40302 0.18449 0.0
C381 C 0.24484 0.41551 0.2128 0.0
C382 C 0.24263 0.38722 0.17439 0.0
N383 N 0.25609 0.39899 0.21266 0.0
H384 H 0.26866 0.42319 0.24178 0.0
H385 H 0.2417 0.37621 0.15628 0.0
H386 H 0.28411 0.42725 0.36115 0.0
H387 H 0.26958 0.38241 0.46499 0.0
O388 O 0.29102 0.41512 0.20812 0.0
O389 O 0.29198 0.39471 0.26358 0.0
O390 O 0.25816 0.37311 0.28433 0.0
C391 C 0.29942 0.40889 0.2315 0.0
H392 H 0.27154 0.36508 0.93958 0.0
H393 H 0.28361 0.42802 0.55243 0.0
H394 H 0.21888 0.37906 0.13643 0.0
H395 H 0.24621 0.42687 0.22607 0.0
Co396 Co 0.78611 0.72732 0.56084 0.0
C397 C 0.78614 0.72786 0.34436 0.0
C398 C 0.76919 0.70556 0.39988 0.0
C399 C 0.76852 0.70507 0.29946 0.0
N400 N 0.7803 0.71983 0.42798 0.0
N401 N 0.77909 0.71911 0.26464 0.0
H402 H 0.79543 0.73982 0.34203 0.0
H403 H 0.76194 0.6962 0.44877 0.0
C404 C 0.78549 0.70065 0.66455 0.0
O405 O 0.79934 0.71058 0.6981 0.0
N406 N 0.79144 0.73498 0.69553 0.0
C407 C 0.80082 0.74981 0.72434 0.0
C408 C 0.8005 0.75068 0.82424 0.0
C409 C 0.78485 0.72727 0.77957 0.0
N410 N 0.79043 0.7365 0.85927 0.0
C411 C 0.81981 0.74477 0.54645 0.0
C412 C 0.8229 0.72005 0.48343 0.0
C413 C 0.83633 0.73418 0.5039 0.0
C414 C 0.83466 0.74675 0.53388 0.0
C415 C 0.80834 0.71859 0.49729 0.0
N416 N 0.80687 0.73056 0.5345 0.0
H417 H 0.81883 0.75475 0.56435 0.0
H418 H 0.79817 0.70759 0.48049 0.0
H419 H 0.80695 0.75966 0.6768 0.0
H420 H 0.77576 0.71525 0.78269 0.0
O421 O 0.78892 0.74729 0.52111 0.0
O422 O 0.76694 0.72747 0.57511 0.0
O423 O 0.77857 0.70533 0.6071 0.0
C424 C 0.77432 0.74165 0.54255 0.0
H425 H 0.76062 0.69523 0.25539 0.0
H426 H 0.80723 0.76103 0.86744 0.0
H427 H 0.8236 0.71004 0.4595 0.0
H428 H 0.84475 0.75803 0.54698 0.0
Co429 Co 0.26945 0.05892 0.5589 0.0
C430 C 0.26877 0.05816 0.34232 0.0
C431 C 0.29078 0.06266 0.39822 0.0
C432 C 0.29134 0.06258 0.29786 0.0
N433 N 0.27668 0.06 0.42605 0.0
N434 N 0.27748 0.05965 0.26285 0.0
H435 H 0.25698 0.05596 0.33968 0.0
H436 H 0.30004 0.06446 0.44726 0.0
C437 C 0.29756 0.08521 0.65451 0.0
O438 O 0.28893 0.09067 0.68918 0.0
N439 N 0.26209 0.05728 0.69354 0.0
C440 C 0.24725 0.05166 0.72218 0.0
C441 C 0.24641 0.05063 0.82199 0.0
C442 C 0.2699 0.05878 0.77772 0.0
N443 N 0.26063 0.05499 0.85727 0.0
C444 C 0.25287 0.07614 0.54653 0.0
C445 C 0.27787 0.10331 0.47925 0.0
C446 C 0.26425 0.10337 0.50424 0.0
C447 C 0.25147 0.0894 0.53557 0.0
C448 C 0.27875 0.08984 0.49145 0.0
N449 N 0.26671 0.07673 0.53109 0.0
H450 H 0.24278 0.06546 0.56726 0.0
H451 H 0.28941 0.09014 0.47186 0.0
H452 H 0.23737 0.04765 0.67447 0.0
H453 H 0.28196 0.06187 0.781 0.0
O454 O 0.24924 0.0418 0.52115 0.0
O455 O 0.26895 0.0395 0.57569 0.0
O456 O 0.29155 0.07291 0.60242 0.0
C457 C 0.25476 0.03275 0.54382 0.0
H458 H 0.30109 0.06426 0.2539 0.0
H459 H 0.23602 0.04682 0.86491 0.0
H460 H 0.28787 0.11369 0.45164 0.0
H461 H 0.2406 0.08879 0.55398 0.0
Co462 Co 0.93784 0.21158 0.5456 0.0
C463 C 0.93789 0.21101 0.32892 0.0
C464 C 0.93354 0.22865 0.38471 0.0
C465 C 0.93364 0.22929 0.28446 0.0
N466 N 0.93605 0.21709 0.41257 0.0
N467 N 0.9365 0.2183 0.24952 0.0
H468 H 0.94023 0.20149 0.3263 0.0
H469 H 0.9321 0.23634 0.43373 0.0
C470 C 0.91182 0.21324 0.64642 0.0
O471 O 0.90788 0.20013 0.69141 0.0
N472 N 0.94027 0.20654 0.68057 0.0
C473 C 0.94596 0.19737 0.70928 0.0
C474 C 0.94718 0.19772 0.80897 0.0
C475 C 0.93904 0.21309 0.76455 0.0
N476 N 0.94288 0.20765 0.84407 0.0
C477 C 0.92201 0.17795 0.53502 0.0
C478 C 0.89359 0.17394 0.4788 0.0
C479 C 0.89471 0.16084 0.50241 0.0
C480 C 0.90923 0.16294 0.52842 0.0
C481 C 0.90662 0.18874 0.48781 0.0
N482 N 0.92038 0.19068 0.52209 0.0
H483 H 0.93318 0.17925 0.5498 0.0
H484 H 0.90552 0.19869 0.46911 0.0
H485 H 0.94984 0.19136 0.66179 0.0
H486 H 0.9359 0.22203 0.76776 0.0
O487 O 0.95497 0.20869 0.50672 0.0
O488 O 0.95717 0.23084 0.55821 0.0
O489 O 0.9234 0.21927 0.5884 0.0
C490 C 0.96394 0.22335 0.52698 0.0
H491 H 0.93222 0.23753 0.24056 0.0
H492 H 0.95094 0.1911 0.85199 0.0
H493 H 0.88262 0.17279 0.45666 0.0
H494 H 0.91069 0.15305 0.54352 0.0
Co495 Co 0.05885 0.45209 0.14763 0.0
C496 C 0.05897 0.45228 0.36457 0.0
C497 C 0.03782 0.43361 0.30628 0.0
C498 C 0.03689 0.43303 0.40649 0.0
N499 N 0.0516 0.44575 0.28003 0.0
N500 N 0.05015 0.4448 0.44307 0.0
H501 H 0.07046 0.46239 0.36852 0.0
H502 H 0.02907 0.42566 0.25608 0.0
C503 C 0.03118 0.45138 0.05436 0.0
O504 O 0.04033 0.46538 1.01988 0.0
N505 N 0.0661 0.45792 1.01312 0.0
C506 C 0.08083 0.46715 0.98274 0.0
C507 C 0.08125 0.46717 0.88259 0.0
C508 C 0.05797 0.45174 0.92985 0.0
N509 N 0.06683 0.45756 0.84892 0.0
C510 C 0.07594 0.4859 0.16195 0.0
C511 C 0.05119 0.48843 0.23048 0.0
C512 C 0.06485 0.50199 0.20468 0.0
C513 C 0.07753 0.50065 0.1731 0.0
C514 C 0.05014 0.474 0.21847 0.0
N515 N 0.06203 0.47276 0.17778 0.0
H516 H 0.08591 0.48516 0.14045 0.0
H517 H 0.03944 0.46371 0.23848 0.0
H518 H 0.09089 0.47287 0.02925 0.0
H519 H 0.046 0.44256 0.92852 0.0
O520 O 0.07892 0.45468 0.18425 0.0
O521 O 0.05894 0.43301 0.12835 0.0
O522 O 0.03675 0.44452 0.10501 0.0
C523 C 0.0731 0.44009 0.16073 0.0
H524 H 0.02732 0.42439 0.44917 0.0
H525 H 0.09149 0.47361 0.83809 0.0
H526 H 0.04128 0.48895 0.25829 0.0
H527 H 0.08843 0.51084 0.15441 0.0
Co528 Co 0.54413 0.60623 0.1596 0.0
C529 C 0.54363 0.60611 0.37587 0.0
C530 C 0.56279 0.6043 0.31968 0.0
C531 C 0.5633 0.60417 0.41999 0.0
N532 N 0.55042 0.60544 0.29217 0.0
N533 N 0.55122 0.60524 0.45549 0.0
H534 H 0.53353 0.6075 0.37795 0.0
H535 H 0.57091 0.60365 0.27031 0.0
C536 C 0.54573 0.58004 0.06199 0.0
O537 O 0.53222 0.57565 1.02111 0.0
N538 N 0.53824 0.60756 0.0249 0.0
C539 C 0.52811 0.61204 0.99551 0.0
C540 C 0.52771 0.6122 0.89544 0.0
C541 C 0.54464 0.60615 0.94086 0.0
N542 N 0.53796 0.60831 0.86101 0.0
C543 C 0.51054 0.58972 0.18028 0.0
C544 C 0.50794 0.56204 0.24121 0.0
C545 C 0.49438 0.56257 0.22279 0.0
C546 C 0.4958 0.57675 0.1941 0.0
C547 C 0.5224 0.57524 0.22592 0.0
N548 N 0.5236 0.58859 0.18937 0.0
H549 H 0.51137 0.60066 0.1637 0.0
H550 H 0.53268 0.57458 0.24207 0.0
H551 H 0.522 0.61587 0.04243 0.0
H552 H 0.55405 0.6037 0.93766 0.0
O553 O 0.54109 0.62343 0.1955 0.0
O554 O 0.56305 0.62567 0.14088 0.0
O555 O 0.552 0.59186 0.11832 0.0
C556 C 0.55559 0.63247 0.17199 0.0
H557 H 0.57186 0.60322 0.46348 0.0
H558 H 0.52084 0.61554 0.85134 0.0
H559 H 0.50743 0.5514 0.26471 0.0
H560 H 0.4856 0.57781 0.1829 0.0
Co561 Co 0.39089 0.93683 0.14406 0.0
C562 C 0.39014 0.93648 0.36103 0.0
C563 C 0.3941 0.95819 0.30281 0.0
C564 C 0.39374 0.95887 0.40295 0.0
N565 N 0.3919 0.94419 0.27649 0.0
N566 N 0.39109 0.94516 0.4398 0.0
H567 H 0.388 0.9247 0.36464 0.0
H568 H 0.39586 0.96732 0.25277 0.0
C569 C 0.4172 0.96369 0.04325 0.0
O570 O 0.42123 0.95381 1.01007 0.0
N571 N 0.38931 0.9294 1.00942 0.0
C572 C 0.38496 0.91486 0.97905 0.0
C573 C 0.3843 0.91432 0.87883 0.0
C574 C 0.39022 0.93719 0.92614 0.0
N575 N 0.38763 0.92837 0.84543 0.0
C576 C 0.40709 0.9194 0.16564 0.0
C577 C 0.43494 0.94441 0.22481 0.0
C578 C 0.43437 0.93033 0.20456 0.0
C579 C 0.42004 0.91754 0.1783 0.0
C580 C 0.42174 0.94573 0.2112 0.0
N581 N 0.40834 0.93365 0.17451 0.0
H582 H 0.39608 0.90932 0.14995 0.0
H583 H 0.42248 0.95671 0.22733 0.0
H584 H 0.38155 0.90494 0.02542 0.0
H585 H 0.3927 0.94907 0.92441 0.0
O586 O 0.37354 0.91677 0.18104 0.0
O587 O 0.37164 0.93666 0.12529 0.0
O588 O 0.40545 0.95889 0.0996 0.0
C589 C 0.36468 0.92244 0.15718 0.0
H590 H 0.39561 0.96885 0.44512 0.0
H591 H 0.38104 0.90419 0.83399 0.0
H592 H 0.44563 0.9545 0.24806 0.0
H593 H 0.41883 0.90619 0.16771 0.0
Co594 Co 0.54411 0.93893 0.15747 0.0
C595 C 0.54337 0.93851 0.3737 0.0
C596 C 0.56242 0.95961 0.318 0.0
C597 C 0.56293 0.9602 0.41827 0.0
N598 N 0.55011 0.94605 0.2902 0.0
N599 N 0.55094 0.94696 0.45348 0.0
H600 H 0.53339 0.92693 0.37551 0.0
H601 H 0.57054 0.96841 0.26885 0.0
C602 C 0.54574 0.96686 0.05991 0.0
O603 O 0.5325 0.95783 1.01585 0.0
N604 N 0.53847 0.93165 0.02269 0.0
C605 C 0.52851 0.91697 0.99353 0.0
C606 C 0.52813 0.91632 0.89353 0.0
C607 C 0.54477 0.93945 0.93858 0.0
N608 N 0.5382 0.9305 0.85891 0.0
C609 C 0.51062 0.92113 0.17743 0.0
C610 C 0.50684 0.94586 0.22969 0.0
C611 C 0.49362 0.93151 0.21006 0.0
C612 C 0.49564 0.91889 0.18737 0.0
C613 C 0.52158 0.94757 0.21866 0.0
N614 N 0.52335 0.93558 0.18535 0.0
H615 H 0.5119 0.91117 0.16441 0.0
H616 H 0.53158 0.95868 0.23531 0.0
H617 H 0.52248 0.90705 0.04061 0.0
H618 H 0.554 0.95141 0.93518 0.0
O619 O 0.54134 0.91881 0.19354 0.0
O620 O 0.56325 0.93876 0.14031 0.0
O621 O 0.55179 0.96117 0.11675 0.0
C622 C 0.55591 0.92448 0.17102 0.0
H623 H 0.57147 0.96971 0.46192 0.0
H624 H 0.52137 0.90604 0.8496 0.0
H625 H 0.50584 0.95583 0.25072 0.0
H626 H 0.48573 0.90738 0.1774 0.0
Co627 Co 0.05964 0.60531 0.15361 0.0
C628 C 0.06029 0.60566 0.37021 0.0
C629 C 0.03855 0.60197 0.31445 0.0
C630 C 0.03804 0.60213 0.41475 0.0
N631 N 0.05244 0.60406 0.28657 0.0
N632 N 0.05173 0.60457 0.44971 0.0
H633 H 0.07197 0.60754 0.37272 0.0
H634 H 0.02948 0.60067 0.2654 0.0
C635 C 0.03175 0.57961 0.0529 0.0
O636 O 0.04076 0.5754 1.0085 0.0
N637 N 0.06701 0.60719 1.01881 0.0
C638 C 0.08171 0.61207 0.99006 0.0
C639 C 0.08262 0.61324 0.89032 0.0
C640 C 0.05942 0.60642 0.93488 0.0
N641 N 0.06861 0.60975 0.85527 0.0
C642 C 0.07637 0.58827 0.16823 0.0
C643 C 0.05102 0.56059 0.22584 0.0
C644 C 0.06487 0.5608 0.20426 0.0
C645 C 0.07781 0.57501 0.17779 0.0
C646 C 0.05009 0.57406 0.21482 0.0
N647 N 0.06235 0.58744 0.17969 0.0
H648 H 0.08658 0.59914 0.15229 0.0
H649 H 0.03933 0.5736 0.23313 0.0
H650 H 0.09151 0.61545 0.03755 0.0
H651 H 0.04755 0.60394 0.93187 0.0
O652 O 0.07987 0.62235 0.1915 0.0
O653 O 0.06019 0.62481 0.1385 0.0
O654 O 0.03743 0.5912 0.11104 0.0
C655 C 0.0744 0.63147 0.17004 0.0
H656 H 0.02847 0.60095 0.45868 0.0
H657 H 0.09288 0.61645 0.84724 0.0
H658 H 0.04089 0.55005 0.25035 0.0
H659 H 0.08887 0.57584 0.16236 0.0
Co660 Co 0.39285 0.45344 0.16405 0.0
C661 C 0.39225 0.45344 0.38056 0.0
C662 C 0.39715 0.43618 0.32465 0.0
C663 C 0.39711 0.43558 0.42503 0.0
N664 N 0.39421 0.44745 0.29682 0.0
N665 N 0.39392 0.44635 0.46006 0.0
H666 H 0.38981 0.46289 0.38315 0.0
H667 H 0.3991 0.42882 0.2756 0.0
C668 C 0.41948 0.45242 0.06792 0.0
O669 O 0.42432 0.46637 0.03254 0.0
N670 N 0.39096 0.45901 0.02952 0.0
C671 C 0.38521 0.46814 1.00092 0.0
C672 C 0.38422 0.46797 0.90107 0.0
C673 C 0.39257 0.45278 0.94526 0.0
N674 N 0.38874 0.45822 0.8657 0.0
C675 C 0.4091 0.48715 0.17904 0.0
C676 C 0.43674 0.49025 0.24497 0.0
C677 C 0.43611 0.5037 0.2236 0.0
C678 C 0.42194 0.50201 0.19227 0.0
C679 C 0.42365 0.47566 0.23071 0.0
N680 N 0.41032 0.47419 0.19195 0.0
H681 H 0.39821 0.48617 0.15969 0.0
H682 H 0.42442 0.46549 0.24839 0.0
H683 H 0.38113 0.47395 0.04862 0.0
H684 H 0.39583 0.44392 0.94193 0.0
O685 O 0.3755 0.45612 0.20253 0.0
O686 O 0.37364 0.4343 0.14772 0.0
O687 O 0.4072 0.44574 0.11992 0.0
C688 C 0.36668 0.44148 0.18074 0.0
H689 H 0.39897 0.42762 0.46899 0.0
H690 H 0.38036 0.47453 0.85818 0.0
H691 H 0.44739 0.49094 0.26985 0.0
H692 H 0.42078 0.5121 0.17843 0.0
Co693 Co 0.27031 0.21221 0.55686 0.0
C694 C 0.26967 0.21226 0.34027 0.0
C695 C 0.29174 0.22966 0.39621 0.0
C696 C 0.29229 0.23028 0.29584 0.0
N697 N 0.2776 0.21828 0.42402 0.0
N698 N 0.27839 0.21942 0.26081 0.0
H699 H 0.25783 0.20273 0.33761 0.0
H700 H 0.30102 0.23708 0.44529 0.0
C701 C 0.29829 0.2137 0.65246 0.0
O702 O 0.28957 0.1996 0.68689 0.0
N703 N 0.2629 0.20659 0.6914 0.0
C704 C 0.24803 0.19756 0.71992 0.0
C705 C 0.24719 0.19774 0.81975 0.0
C706 C 0.27075 0.2128 0.77566 0.0
N707 N 0.26146 0.20742 0.85517 0.0
C708 C 0.25337 0.17838 0.54486 0.0
C709 C 0.27818 0.17587 0.47753 0.0
C710 C 0.26451 0.16229 0.503 0.0
C711 C 0.25182 0.16364 0.53428 0.0
C712 C 0.27922 0.19031 0.48934 0.0
N713 N 0.26727 0.19153 0.52902 0.0
H714 H 0.24336 0.1791 0.56573 0.0
H715 H 0.28992 0.20059 0.46957 0.0
H716 H 0.23814 0.19181 0.6721 0.0
H717 H 0.28286 0.22162 0.77905 0.0
O718 O 0.25023 0.20951 0.5187 0.0
O719 O 0.27018 0.23129 0.57375 0.0
O720 O 0.29238 0.22008 0.60053 0.0
C721 C 0.25605 0.22415 0.54084 0.0
H722 H 0.30206 0.23831 0.25188 0.0
H723 H 0.23677 0.19127 0.86259 0.0
H724 H 0.28811 0.17537 0.44995 0.0
H725 H 0.24091 0.15346 0.55302 0.0
Co726 Co 0.78633 0.05849 0.56859 0.0
C727 C 0.78712 0.0591 0.34907 0.0
C728 C 0.76774 0.06017 0.40702 0.0
C729 C 0.76685 0.06006 0.30688 0.0
N730 N 0.78073 0.06008 0.43406 0.0
N731 N 0.77913 0.05952 0.27043 0.0
H732 H 0.79671 0.05704 0.3437 0.0
H733 H 0.75926 0.06004 0.45686 0.0
C734 C 0.78059 0.08522 0.57311 0.0
O735 O 0.78944 0.09056 0.49547 0.0
N736 N 0.79143 0.05644 0.70203 0.0
C737 C 0.8032 0.05429 0.72971 0.0
C738 C 0.80386 0.05439 0.82986 0.0
C739 C 0.78496 0.05768 0.78573 0.0
N740 N 0.79249 0.05666 0.86507 0.0
C741 C 0.81763 0.07575 0.4891 0.0
C742 C 0.82721 0.10138 0.60802 0.0
C743 C 0.83718 0.10189 0.53456 0.0
C744 C 0.83241 0.08873 0.47582 0.0
C745 C 0.81251 0.08833 0.61742 0.0
N746 N 0.80743 0.07609 0.55417 0.0
H747 H 0.81464 0.06533 0.44907 0.0
H748 H 0.80518 0.08812 0.67601 0.0
H749 H 0.81093 0.05298 0.68027 0.0
H750 H 0.77523 0.05965 0.78872 0.0
O751 O 0.78941 0.04136 0.53108 0.0
O752 O 0.76715 0.03912 0.57936 0.0
O753 O 0.77835 0.07264 0.6129 0.0
C754 C 0.77469 0.03235 0.54956 0.0
H755 H 0.75781 0.06026 0.2642 0.0
H756 H 0.81203 0.05283 0.8734 0.0
H757 H 0.83067 0.11111 0.65707 0.0
H758 H 0.84014 0.08839 0.42163 0.0
Co759 Co 0.93823 0.72751 0.56786 0.0
C760 C 0.93797 0.72756 0.35101 0.0
C761 C 0.93541 0.70635 0.40901 0.0
C762 C 0.93517 0.70547 0.30878 0.0
N763 N 0.93705 0.72013 0.43545 0.0
N764 N 0.93671 0.71877 0.27233 0.0
H765 H 0.93942 0.73908 0.34726 0.0
H766 H 0.93463 0.6976 0.45908 0.0
C767 C 0.91182 0.70037 0.667 0.0
O768 O 0.90764 0.7101 0.70081 0.0
N769 N 0.93996 0.73492 0.70251 0.0
C770 C 0.94497 0.74958 0.7331 0.0
C771 C 0.94547 0.75002 0.83331 0.0
C772 C 0.93851 0.72693 0.78566 0.0
N773 N 0.94124 0.73571 0.86671 0.0
C774 C 0.92191 0.74486 0.55073 0.0
C775 C 0.89432 0.72014 0.48544 0.0
C776 C 0.8949 0.73423 0.5059 0.0
C777 C 0.90904 0.7468 0.53692 0.0
C778 C 0.90742 0.71872 0.50048 0.0
N779 N 0.92073 0.73067 0.53897 0.0
H780 H 0.93281 0.75484 0.56953 0.0
H781 H 0.90671 0.70777 0.48352 0.0
H782 H 0.94886 0.7596 0.68681 0.0
H783 H 0.93614 0.71507 0.78679 0.0
O784 O 0.95543 0.74758 0.53007 0.0
O785 O 0.95756 0.72778 0.58506 0.0
O786 O 0.92376 0.7054 0.61209 0.0
C787 C 0.96439 0.74199 0.55292 0.0
H788 H 0.93433 0.69593 0.26602 0.0
H789 H 0.94888 0.76019 0.87804 0.0
H790 H 0.88369 0.71013 0.46064 0.0
H791 H 0.91016 0.75806 0.54998 0.0
Co792 Co 0.45215 0.05987 0.9092 0.0
C793 C 0.45215 0.0603 0.68903 0.0
C794 C 0.43401 0.03912 0.74874 0.0
C795 C 0.43257 0.03835 0.64903 0.0
N796 N 0.44662 0.05266 0.77449 0.0
N797 N 0.44393 0.05172 0.61138 0.0
H798 H 0.46129 0.0722 0.68281 0.0
H799 H 0.42611 0.03042 0.79927 0.0
C800 C 0.44806 0.02812 0.91102 0.0
O801 O 0.45722 0.03254 0.83458 0.0
N802 N 0.45699 0.06696 0.04284 0.0
C803 C 0.46864 0.08086 0.07193 0.0
C804 C 0.46873 0.08142 0.17214 0.0
C805 C 0.45004 0.05925 0.12555 0.0
N806 N 0.45702 0.06786 0.20588 0.0
C807 C 0.48338 0.07427 0.82711 0.0
C808 C 0.49388 0.05978 0.9525 0.0
C809 C 0.50369 0.06911 0.87808 0.0
C810 C 0.4984 0.07659 0.81544 0.0
C811 C 0.47898 0.05762 0.96049 0.0
N812 N 0.4735 0.06407 0.89484 0.0
H813 H 0.47996 0.08102 0.78357 0.0
H814 H 0.47176 0.05058 1.01974 0.0
H815 H 0.47665 0.08989 0.02349 0.0
H816 H 0.44038 0.04748 0.12689 0.0
O817 O 0.4546 0.07988 0.87256 0.0
O818 O 0.43267 0.05934 0.92017 0.0
O819 O 0.44492 0.03777 0.95233 0.0
C820 C 0.43979 0.07365 0.89023 0.0
H821 H 0.42381 0.02866 0.60773 0.0
H822 H 0.47679 0.09107 0.2169 0.0
H823 H 0.49764 0.05402 1.00353 0.0
H824 H 0.50591 0.08439 0.75945 0.0
Co825 Co 0.93693 0.39188 0.88477 0.0
C826 C 0.93678 0.39193 0.66784 0.0
C827 C 0.95778 0.39403 0.72593 0.0
C828 C 0.9587 0.39438 0.62573 0.0
N829 N 0.9441 0.39263 0.75231 0.0
N830 N 0.94554 0.39312 0.58928 0.0
H831 H 0.92538 0.39076 0.664 0.0
H832 H 0.96646 0.39468 0.77604 0.0
C833 C 0.96487 0.41854 0.97785 0.0
O834 O 0.95589 0.42361 1.01234 0.0
N835 N 0.92974 0.3906 1.01935 0.0
C836 C 0.91504 0.38529 0.0497 0.0
C837 C 0.91461 0.3849 0.14983 0.0
C838 C 0.93782 0.39243 0.10264 0.0
N839 N 0.92897 0.3895 0.18353 0.0
C840 C 0.92059 0.40937 0.87254 0.0
C841 C 0.9457 0.43628 0.80322 0.0
C842 C 0.93243 0.4367 0.83224 0.0
C843 C 0.91949 0.42283 0.86309 0.0
C844 C 0.94628 0.42262 0.81374 0.0
N845 N 0.93425 0.40969 0.85515 0.0
H846 H 0.91045 0.3988 0.89419 0.0
H847 H 0.95676 0.42269 0.79247 0.0
H848 H 0.905 0.38108 1.00313 0.0
H849 H 0.94974 0.39504 0.10399 0.0
O850 O 0.91668 0.37475 0.84824 0.0
O851 O 0.93632 0.37242 0.90351 0.0
O852 O 0.95912 0.40606 0.92739 0.0
C853 C 0.92211 0.36567 0.87192 0.0
H854 H 0.9682 0.39515 0.58294 0.0
H855 H 0.90438 0.38122 0.19429 0.0
H856 H 0.95571 0.44654 0.77456 0.0
H857 H 0.90879 0.4225 0.88262 0.0
Co858 Co 0.60512 0.54563 0.88649 0.0
C859 C 0.60546 0.54534 0.66988 0.0
C860 C 0.60136 0.56313 0.72589 0.0
C861 C 0.60153 0.56383 0.6256 0.0
N862 N 0.6037 0.55147 0.7536 0.0
N863 N 0.60423 0.55273 0.59045 0.0
H864 H 0.60755 0.53566 0.66729 0.0
H865 H 0.59988 0.57079 0.77505 0.0
C866 C 0.57911 0.54723 0.98809 0.0
O867 O 0.57528 0.53419 0.03376 0.0
N868 N 0.60709 0.54021 1.02121 0.0
C869 C 0.61172 0.53019 0.05023 0.0
C870 C 0.6129 0.53051 0.15 0.0
C871 C 0.60641 0.54713 0.10498 0.0
N872 N 0.60961 0.5412 0.18476 0.0
C873 C 0.58948 0.51204 0.86625 0.0
C874 C 0.5609 0.50831 0.81705 0.0
C875 C 0.56203 0.49507 0.83539 0.0
C876 C 0.57669 0.49705 0.85681 0.0
C877 C 0.57394 0.52303 0.82785 0.0
N878 N 0.58776 0.52479 0.85955 0.0
H879 H 0.60073 0.51332 0.87763 0.0
H880 H 0.57281 0.53304 0.81198 0.0
H881 H 0.61488 0.52356 1.00305 0.0
H882 H 0.60401 0.5566 0.10771 0.0
O883 O 0.62263 0.54315 0.84905 0.0
O884 O 0.62421 0.56489 0.90262 0.0
O885 O 0.59052 0.55315 0.92875 0.0
C886 C 0.63133 0.55782 0.87068 0.0
H887 H 0.60018 0.57213 0.58181 0.0
H888 H 0.61593 0.52334 0.19337 0.0
H889 H 0.54992 0.50733 0.79708 0.0
H890 H 0.57826 0.4871 0.86593 0.0
Co891 Co 0.7262 0.78685 0.47496 0.0
C892 C 0.72678 0.78676 0.6914 0.0
C893 C 0.70459 0.76958 0.63561 0.0
C894 C 0.7041 0.76891 0.73604 0.0
N895 N 0.71878 0.78084 0.60768 0.0
N896 N 0.71808 0.77963 0.77104 0.0
H897 H 0.73866 0.7962 0.69385 0.0
H898 H 0.69527 0.76227 0.58657 0.0
C899 C 0.6995 0.78627 0.37226 0.0
O900 O 0.70946 0.80015 0.33914 0.0
N901 N 0.73381 0.79242 0.34043 0.0
C902 C 0.74858 0.80202 0.31172 0.0
C903 C 0.74944 0.80174 0.21181 0.0
C904 C 0.72615 0.78575 0.25632 0.0
N905 N 0.73534 0.79147 0.17666 0.0
C906 C 0.74348 0.82057 0.49295 0.0
C907 C 0.71863 0.82331 0.55691 0.0
C908 C 0.73274 0.83686 0.53867 0.0
C909 C 0.74537 0.83536 0.50806 0.0
C910 C 0.71726 0.80882 0.5408 0.0
N911 N 0.72931 0.80754 0.50316 0.0
H912 H 0.75351 0.8197 0.47477 0.0
H913 H 0.70629 0.79856 0.5565 0.0
H914 H 0.7584 0.80827 0.35931 0.0
H915 H 0.7142 0.77652 0.25315 0.0
O916 O 0.7462 0.78974 0.51412 0.0
O917 O 0.72649 0.76775 0.45902 0.0
O918 O 0.70421 0.77926 0.42884 0.0
C919 C 0.74065 0.77516 0.49172 0.0
H920 H 0.69431 0.76093 0.78002 0.0
H921 H 0.75975 0.8086 0.16866 0.0
H922 H 0.70855 0.82385 0.58106 0.0
H923 H 0.75665 0.84554 0.49656 0.0
Co924 Co 0.21029 0.93914 0.49018 0.0
C925 C 0.2101 0.93963 0.70685 0.0
C926 C 0.22843 0.93643 0.65073 0.0
C927 C 0.22917 0.93665 0.75101 0.0
N928 N 0.21641 0.93816 0.62309 0.0
N929 N 0.21772 0.93878 0.78623 0.0
H930 H 0.20011 0.94121 0.70952 0.0
H931 H 0.23631 0.93532 0.6015 0.0
C932 C 0.21265 0.91352 0.38922 0.0
O933 O 0.1995 0.90939 0.34415 0.0
N934 N 0.20459 0.94069 0.35538 0.0
C935 C 0.19411 0.94469 0.32612 0.0
C936 C 0.19444 0.9459 0.22638 0.0
C937 C 0.21174 0.94039 0.27179 0.0
N938 N 0.20557 0.94325 0.19189 0.0
C939 C 0.17681 0.92278 0.51296 0.0
C940 C 0.17385 0.89448 0.562 0.0
C941 C 0.16039 0.89528 0.54509 0.0
C942 C 0.162 0.9098 0.52376 0.0
C943 C 0.18839 0.90773 0.54986 0.0
N944 N 0.18976 0.92139 0.51817 0.0
H945 H 0.1778 0.93394 0.50185 0.0
H946 H 0.19858 0.90687 0.56488 0.0
H947 H 0.18714 0.94742 0.37308 0.0
H948 H 0.22154 0.93851 0.26932 0.0
O949 O 0.20707 0.95621 0.52652 0.0
O950 O 0.22917 0.95864 0.47313 0.0
O951 O 0.2184 0.92498 0.44842 0.0
C952 C 0.22159 0.96533 0.50388 0.0
H953 H 0.23771 0.93571 0.79475 0.0
H954 H 0.187 0.94854 0.1828 0.0
H955 H 0.17316 0.88362 0.58198 0.0
H956 H 0.15189 0.91111 0.5158 0.0
Co957 Co 0.05738 0.27084 0.46873 0.0
C958 C 0.05751 0.27034 0.68547 0.0
C959 C 0.05953 0.29142 0.62936 0.0
C960 C 0.05951 0.29204 0.72963 0.0
N961 N 0.0585 0.27793 0.60173 0.0
N962 N 0.05812 0.27875 0.76473 0.0
H963 H 0.0563 0.25891 0.68827 0.0
H964 H 0.05985 0.30004 0.58003 0.0
C965 C 0.08382 0.29881 0.37189 0.0
O966 O 0.08784 0.28975 0.32605 0.0
N967 N 0.05567 0.26359 0.33376 0.0
C968 C 0.0506 0.24885 0.30461 0.0
C969 C 0.04952 0.24802 0.20491 0.0
C970 C 0.05671 0.27132 0.24997 0.0
N971 N 0.05327 0.26212 0.17014 0.0
C972 C 0.07302 0.25293 0.48664 0.0
C973 C 0.10142 0.2775 0.54179 0.0
C974 C 0.10028 0.26317 0.52093 0.0
C975 C 0.08575 0.25067 0.49563 0.0
C976 C 0.08844 0.27927 0.5306 0.0
N977 N 0.07471 0.26736 0.49632 0.0
H978 H 0.06182 0.24301 0.47282 0.0
H979 H 0.08955 0.29038 0.5479 0.0
H980 H 0.04696 0.23897 0.35164 0.0
H981 H 0.05943 0.28329 0.24729 0.0
O982 O 0.04002 0.25079 0.50475 0.0
O983 O 0.03818 0.27085 0.4518 0.0
O984 O 0.07204 0.29305 0.42842 0.0
C985 C 0.0312 0.25657 0.48256 0.0
H986 H 0.05993 0.3013 0.77347 0.0
H987 H 0.04616 0.23772 0.16167 0.0
H988 H 0.11238 0.28739 0.56354 0.0
H989 H 0.08426 0.23925 0.48295 0.0
Co990 Co 0.20945 0.27096 0.46574 0.0
C991 C 0.20938 0.27034 0.6854 0.0
C992 C 0.22683 0.29208 0.62769 0.0
C993 C 0.22814 0.29268 0.7276 0.0
N994 N 0.21467 0.27828 0.60063 0.0
N995 N 0.2172 0.27897 0.76391 0.0
H996 H 0.20048 0.25833 0.69025 0.0
H997 H 0.23466 0.301 0.57806 0.0
C998 C 0.21361 0.30285 0.45828 0.0
O999 O 0.20429 0.29894 0.53387 0.0
N1000 N 0.20487 0.26367 0.33216 0.0
C1001 C 0.19341 0.24963 0.30357 0.0
C1002 C 0.19365 0.24876 0.20355 0.0
C1003 C 0.212 0.27117 0.24921 0.0
N1004 N 0.20538 0.26227 0.16932 0.0
C1005 C 0.17819 0.25674 0.54696 0.0
C1006 C 0.16775 0.27101 0.41941 0.0
C1007 C 0.15805 0.26211 0.49553 0.0
C1008 C 0.16326 0.25462 0.55867 0.0
C1009 C 0.1826 0.273 0.41145 0.0
N1010 N 0.18807 0.2667 0.4783 0.0
H1011 H 0.18158 0.25008 0.59159 0.0
H1012 H 0.18982 0.27984 0.35158 0.0
H1013 H 0.18526 0.24073 0.35217 0.0
H1014 H 0.22182 0.28283 0.24723 0.0
O1015 O 0.20712 0.25104 0.50412 0.0
O1016 O 0.22901 0.27162 0.45679 0.0
O1017 O 0.2167 0.29293 0.42063 0.0
C1018 C 0.22196 0.25733 0.48707 0.0
H1019 H 0.23686 0.30223 0.77013 0.0
H1020 H 0.1855 0.23909 0.15932 0.0
H1021 H 0.164 0.27665 0.36745 0.0
H1022 H 0.15578 0.24702 0.61554 0.0
Co1023 Co 0.72582 0.93877 0.48973 0.0
C1024 C 0.72625 0.93952 0.70696 0.0
C1025 C 0.70447 0.93526 0.64844 0.0
C1026 C 0.70373 0.93554 0.74844 0.0
N1027 N 0.71855 0.93769 0.62232 0.0
N1028 N 0.71748 0.9384 0.7855 0.0
H1029 H 0.73808 0.94183 0.71083 0.0
H1030 H 0.69532 0.9334 0.5984 0.0
C1031 C 0.69807 0.91286 0.38924 0.0
O1032 O 0.70712 0.90858 0.34633 0.0
N1033 N 0.73311 0.94037 0.35501 0.0
C1034 C 0.7476 0.94461 0.32467 0.0
C1035 C 0.74814 0.9453 0.22457 0.0
C1036 C 0.72535 0.93957 0.27188 0.0
N1037 N 0.73414 0.94209 0.1912 0.0
C1038 C 0.74314 0.92256 0.51056 0.0
C1039 C 0.7181 0.89439 0.56445 0.0
C1040 C 0.73238 0.89525 0.54738 0.0
C1041 C 0.74511 0.90967 0.52237 0.0
C1042 C 0.71665 0.90754 0.55124 0.0
N1043 N 0.72881 0.92115 0.51785 0.0
H1044 H 0.7532 0.93368 0.49691 0.0
H1045 H 0.70559 0.90664 0.56651 0.0
H1046 H 0.75749 0.9479 0.37099 0.0
H1047 H 0.71351 0.93719 0.2703 0.0
O1048 O 0.74601 0.9559 0.52658 0.0
O1049 O 0.7263 0.95824 0.47268 0.0
O1050 O 0.70364 0.92446 0.4473 0.0
C1051 C 0.74055 0.96497 0.50386 0.0
H1052 H 0.69367 0.93346 0.79035 0.0
H1053 H 0.75824 0.94848 0.17978 0.0
H1054 H 0.70799 0.88355 0.58534 0.0
H1055 H 0.75649 0.91098 0.51251 0.0
Co1056 Co 0.0578 0.78674 0.49243 0.0
C1057 C 0.05797 0.78731 0.70858 0.0
C1058 C 0.06011 0.76831 0.65268 0.0
C1059 C 0.0603 0.76787 0.75298 0.0
N1060 N 0.05873 0.78054 0.62499 0.0
N1061 N 0.05901 0.77985 0.78834 0.0
H1062 H 0.05636 0.79729 0.71042 0.0
H1063 H 0.06089 0.76023 0.60346 0.0
C1064 C 0.08421 0.78479 0.39903 0.0
O1065 O 0.08978 0.79891 0.36445 0.0
N1066 N 0.05641 0.79258 0.35784 0.0
C1067 C 0.05119 0.80214 0.32858 0.0
C1068 C 0.05114 0.80264 0.22853 0.0
C1069 C 0.05852 0.78669 0.27368 0.0
N1070 N 0.05587 0.79304 0.194 0.0
C1071 C 0.07432 0.82032 0.50915 0.0
C1072 C 0.10208 0.82324 0.5707 0.0
C1073 C 0.1016 0.83671 0.54724 0.0
C1074 C 0.0873 0.83513 0.52017 0.0
C1075 C 0.0888 0.80868 0.55912 0.0
N1076 N 0.07546 0.80731 0.5212 0.0
H1077 H 0.06338 0.8194 0.49166 0.0
H1078 H 0.08943 0.79845 0.57758 0.0
H1079 H 0.04684 0.80777 0.3757 0.0
H1080 H 0.06164 0.77774 0.27011 0.0
O1081 O 0.04073 0.78991 0.52928 0.0
O1082 O 0.03833 0.76783 0.47471 0.0
O1083 O 0.07183 0.77854 0.45016 0.0
C1084 C 0.03164 0.77536 0.50645 0.0
H1085 H 0.06144 0.75943 0.79653 0.0
H1086 H 0.04726 0.80908 0.18445 0.0
H1087 H 0.11274 0.82388 0.59479 0.0
H1088 H 0.08614 0.84524 0.50731 0.0
Co1089 Co 0.93805 0.54539 0.88075 0.0
C1090 C 0.93763 0.54488 0.6645 0.0
C1091 C 0.95888 0.56369 0.72053 0.0
C1092 C 0.95948 0.5642 0.62022 0.0
N1093 N 0.94522 0.55154 0.74814 0.0
N1094 N 0.94615 0.55234 0.58479 0.0
H1095 H 0.926 0.535 0.66259 0.0
H1096 H 0.96777 0.57168 0.76982 0.0
C1097 C 0.96563 0.54661 0.97839 0.0
O1098 O 0.95643 0.53312 1.01915 0.0
N1099 N 0.93072 0.5397 1.01536 0.0
C1100 C 0.91597 0.53007 0.04439 0.0
C1101 C 0.91533 0.5297 0.14444 0.0
C1102 C 0.93858 0.54589 0.09957 0.0
N1103 N 0.92959 0.5395 0.17919 0.0
C1104 C 0.92117 0.51149 0.86733 0.0
C1105 C 0.94636 0.5093 0.80407 0.0
C1106 C 0.93286 0.4957 0.83135 0.0
C1107 C 0.9199 0.49683 0.85905 0.0
C1108 C 0.94713 0.52364 0.81382 0.0
N1109 N 0.93503 0.52473 0.85222 0.0
H1110 H 0.91101 0.51208 0.88607 0.0
H1111 H 0.95776 0.53396 0.79339 0.0
H1112 H 0.90604 0.5243 0.99701 0.0
H1113 H 0.95058 0.55498 0.10311 0.0
O1114 O 0.91794 0.54274 0.84387 0.0
O1115 O 0.93793 0.56448 0.89876 0.0
O1116 O 0.9602 0.55302 0.92253 0.0
C1117 C 0.92375 0.55736 0.8666 0.0
H1118 H 0.96908 0.57261 0.57671 0.0
H1119 H 0.90502 0.52318 0.18831 0.0
H1120 H 0.95639 0.50892 0.77713 0.0
H1121 H 0.90902 0.48654 0.87686 0.0
Co1122 Co 0.45376 0.39245 0.89758 0.0
C1123 C 0.45405 0.39263 0.68064 0.0
C1124 C 0.43526 0.3949 0.7388 0.0
C1125 C 0.43466 0.39523 0.63861 0.0
N1126 N 0.44747 0.3934 0.76513 0.0
N1127 N 0.44651 0.39387 0.60209 0.0
H1128 H 0.46421 0.39134 0.67676 0.0
H1129 H 0.42724 0.39559 0.78894 0.0
C1130 C 0.45263 0.41915 0.99223 0.0
O1131 O 0.46659 0.42403 0.02754 0.0
N1132 N 0.45957 0.39102 0.03213 0.0
C1133 C 0.46912 0.3859 0.06258 0.0
C1134 C 0.46913 0.38548 0.16272 0.0
C1135 C 0.45322 0.39274 0.11533 0.0
N1136 N 0.45921 0.38991 0.19628 0.0
C1137 C 0.48734 0.4088 0.88012 0.0
C1138 C 0.49031 0.43655 0.81743 0.0
C1139 C 0.50376 0.43603 0.84022 0.0
C1140 C 0.50215 0.42174 0.8682 0.0
C1141 C 0.47576 0.42333 0.82995 0.0
N1142 N 0.47436 0.40999 0.8682 0.0
H1143 H 0.48639 0.39784 0.89796 0.0
H1144 H 0.46555 0.42401 0.8118 0.0
H1145 H 0.47511 0.38185 1.01619 0.0
H1146 H 0.44385 0.39526 0.11657 0.0
O1147 O 0.45667 0.37519 0.86081 0.0
O1148 O 0.43477 0.37308 0.9158 0.0
O1149 O 0.44595 0.40681 0.94047 0.0
C1150 C 0.44215 0.36623 0.88416 0.0
H1151 H 0.42596 0.39604 0.59588 0.0
H1152 H 0.47579 0.38195 0.20731 0.0
H1153 H 0.49096 0.44721 0.79291 0.0
H1154 H 0.51225 0.42055 0.88079 0.0
Co1155 Co 0.60456 0.06076 0.88736 0.0
C1156 C 0.60404 0.06113 0.67103 0.0
C1157 C 0.60072 0.03951 0.72669 0.0
C1158 C 0.60059 0.0389 0.62644 0.0
N1159 N 0.60281 0.05341 0.75456 0.0
N1160 N 0.60265 0.05247 0.59124 0.0
H1161 H 0.60635 0.07297 0.66919 0.0
H1162 H 0.59954 0.03048 0.77574 0.0
C1163 C 0.57841 0.03315 0.98774 0.0
O1164 O 0.57426 0.04233 0.03063 0.0
N1165 N 0.60684 0.06825 0.02222 0.0
C1166 C 0.61224 0.08307 0.05123 0.0
C1167 C 0.61257 0.08376 0.15122 0.0
C1168 C 0.60505 0.06037 0.10645 0.0
N1169 N 0.60783 0.06944 0.18601 0.0
C1170 C 0.58906 0.07877 0.8743 0.0
C1171 C 0.56037 0.05437 0.82205 0.0
C1172 C 0.56168 0.06868 0.8457 0.0
C1173 C 0.57638 0.08115 0.86834 0.0
C1174 C 0.57335 0.05249 0.82977 0.0
N1175 N 0.58721 0.06431 0.86302 0.0
H1176 H 0.60033 0.08862 0.8877 0.0
H1177 H 0.5721 0.04136 0.8115 0.0
H1178 H 0.61647 0.09302 1.00394 0.0
H1179 H 0.60185 0.04828 0.11013 0.0
O1180 O 0.62173 0.08075 0.84872 0.0
O1181 O 0.62386 0.06081 0.9007 0.0
O1182 O 0.59004 0.03863 0.93013 0.0
C1183 C 0.63067 0.07506 0.86933 0.0
H1184 H 0.59907 0.02916 0.58278 0.0
H1185 H 0.6165 0.09412 0.19502 0.0
H1186 H 0.5493 0.04455 0.80126 0.0
H1187 H 0.57802 0.09261 0.88203 0.0
C1188 C 0.10651 0.4319 0.19169 0.0
C1189 C 0.09887 0.41556 0.19416 0.0
C1190 C 0.09815 0.43982 0.18167 0.0
C1191 C 0.08188 0.43169 0.17201 0.0
H1192 H 0.119 0.43863 0.199 0.0
H1193 H 0.10449 0.4524 0.18076 0.0
S1194 S 0.05642 0.3888 0.17172 0.0
N1195 N 0.07409 0.39156 0.18487 0.0
N1196 N 0.05851 0.40631 0.16515 0.0
C1197 C 0.07417 0.41535 0.17334 0.0
C1198 C 0.08262 0.40733 0.18466 0.0
C1199 C 0.57985 0.65824 0.18401 0.0
C1200 C 0.56354 0.64964 0.18193 0.0
C1201 C 0.58785 0.67442 0.19462 0.0
C1202 C 0.57992 0.68278 0.20206 0.0
H1203 H 0.58655 0.65241 0.17861 0.0
H1204 H 0.60041 0.68043 0.19639 0.0
S1205 S 0.5372 0.66589 0.19873 0.0
N1206 N 0.53969 0.65074 0.18761 0.0
N1207 N 0.55476 0.68123 0.20585 0.0
C1208 C 0.56361 0.67439 0.19896 0.0
C1209 C 0.55542 0.65781 0.1895 0.0
C1210 C 0.33923 0.92152 0.17119 0.0
C1211 C 0.34753 0.91351 0.16756 0.0
C1212 C 0.32306 0.91361 0.18153 0.0
C1213 C 0.31443 0.89732 0.18703 0.0
H1214 H 0.34528 0.93408 0.16704 0.0
H1215 H 0.31728 0.92038 0.18432 0.0
S1216 S 0.33051 0.87076 0.17992 0.0
N1217 N 0.34589 0.88828 0.17035 0.0
N1218 N 0.31542 0.87337 0.18793 0.0
C1219 C 0.32254 0.8891 0.18271 0.0
C1220 C 0.3391 0.8972 0.17364 0.0
C1221 C 0.43895 0.09851 0.87704 0.0
C1222 C 0.43122 0.08216 0.87533 0.0
C1223 C 0.43076 0.10658 0.86607 0.0
C1224 C 0.41459 0.0986 0.85127 0.0
H1225 H 0.45137 0.10511 0.88849 0.0
H1226 H 0.43715 0.11915 0.86872 0.0
S1227 S 0.38903 0.05575 0.83723 0.0
N1228 N 0.40653 0.05833 0.85558 0.0
N1229 N 0.39125 0.07333 0.83414 0.0
C1230 C 0.40681 0.08225 0.84804 0.0
C1231 C 0.41509 0.07408 0.86028 0.0
C1232 C 0.91264 0.32378 0.84894 0.0
C1233 C 0.89634 0.31532 0.845 0.0
C1234 C 0.92075 0.33999 0.85807 0.0
C1235 C 0.91294 0.3485 0.86201 0.0
H1236 H 0.91926 0.31784 0.84596 0.0
H1237 H 0.93329 0.3459 0.86118 0.0
S1238 S 0.87029 0.33197 0.85322 0.0
N1239 N 0.87263 0.31669 0.84563 0.0
N1240 N 0.88791 0.34723 0.86095 0.0
C1241 C 0.89664 0.34023 0.85729 0.0
C1242 C 0.88833 0.32363 0.84944 0.0
C1243 C 0.65658 0.55814 0.84487 0.0
C1244 C 0.64848 0.56626 0.85803 0.0
C1245 C 0.67282 0.56607 0.83325 0.0
C1246 C 0.6815 0.58241 0.83267 0.0
H1247 H 0.65036 0.54557 0.84413 0.0
H1248 H 0.67856 0.55936 0.82325 0.0
S1249 S 0.66592 0.60915 0.86519 0.0
N1250 N 0.65052 0.59163 0.8707 0.0
N1251 N 0.68077 0.6064 0.84808 0.0
C1252 C 0.67352 0.59063 0.84586 0.0
C1253 C 0.6571 0.5826 0.85874 0.0
C1254 C 0.89876 0.55763 0.84182 0.0
C1255 C 0.91498 0.56576 0.8546 0.0
C1256 C 0.89042 0.56555 0.83071 0.0
C1257 C 0.89802 0.58189 0.83028 0.0
H1258 H 0.89244 0.54506 0.84096 0.0
H1259 H 0.87797 0.55883 0.82093 0.0
S1260 S 0.94031 0.60866 0.86209 0.0
N1261 N 0.93825 0.59116 0.86718 0.0
N1262 N 0.9227 0.60589 0.84554 0.0
C1263 C 0.91422 0.59012 0.84319 0.0
C1264 C 0.92265 0.58211 0.85555 0.0
C1265 C 0.40958 0.32457 0.85625 0.0
C1266 C 0.41729 0.31597 0.85147 0.0
C1267 C 0.41776 0.34073 0.86764 0.0
C1268 C 0.43405 0.34907 0.87312 0.0
H1269 H 0.39704 0.31876 0.85197 0.0
H1270 H 0.41121 0.34674 0.871 0.0
S1271 S 0.45986 0.33216 0.86414 0.0
N1272 N 0.44221 0.31702 0.85385 0.0
N1273 N 0.45765 0.34751 0.87336 0.0
C1274 C 0.44196 0.34067 0.86805 0.0
C1275 C 0.43358 0.32411 0.85791 0.0
C1276 C 0.6562 0.07632 0.84909 0.0
C1277 C 0.64776 0.08414 0.85673 0.0
C1278 C 0.67234 0.08445 0.83684 0.0
C1279 C 0.68077 0.10077 0.83337 0.0
H1280 H 0.65029 0.06375 0.8517 0.0
H1281 H 0.67826 0.07783 0.83126 0.0
S1282 S 0.66423 0.12686 0.85095 0.0
N1283 N 0.64904 0.10921 0.85978 0.0
N1284 N 0.67944 0.12452 0.8386 0.0
C1285 C 0.67251 0.10879 0.84148 0.0
C1286 C 0.65599 0.10047 0.85253 0.0
C1287 C 0.58027 0.92319 0.18514 0.0
C1288 C 0.56397 0.91538 0.1809 0.0
C1289 C 0.58835 0.91506 0.19478 0.0
C1290 C 0.5805 0.89874 0.19891 0.0
H1291 H 0.58691 0.93575 0.18193 0.0
H1292 H 0.6009 0.92167 0.19796 0.0
S1293 S 0.53782 0.87268 0.18999 0.0
N1294 N 0.54022 0.89031 0.18182 0.0
N1295 N 0.55542 0.87502 0.19812 0.0
C1296 C 0.56419 0.89074 0.19415 0.0
C1297 C 0.55593 0.89905 0.18576 0.0
C1298 C 0.07566 0.65703 0.18788 0.0
C1299 C 0.08352 0.64859 0.18245 0.0
C1300 C 0.0837 0.67319 0.19915 0.0
C1301 C 0.09999 0.6817 0.20389 0.0
H1302 H 0.06312 0.6511 0.18419 0.0
H1303 H 0.07703 0.67907 0.20302 0.0
S1304 S 0.12618 0.66524 0.19293 0.0
N1305 N 0.1086 0.64996 0.18335 0.0
N1306 N 0.12377 0.68046 0.20267 0.0
C1307 C 0.10807 0.67346 0.19815 0.0
C1308 C 0.09982 0.65689 0.1881 0.0
C1309 C 0.34142 0.44133 0.20008 0.0
C1310 C 0.34958 0.43316 0.19463 0.0
C1311 C 0.32518 0.43346 0.21125 0.0
C1312 C 0.31655 0.41716 0.21926 0.0
H1313 H 0.34759 0.45387 0.19439 0.0
H1314 H 0.31936 0.44019 0.21445 0.0
S1315 S 0.33245 0.3904 0.21139 0.0
N1316 N 0.34776 0.40786 0.19912 0.0
N1317 N 0.3175 0.39318 0.22111 0.0
C1318 C 0.32463 0.40892 0.21486 0.0
C1319 C 0.34107 0.41688 0.20228 0.0
C1320 C 0.74189 0.75083 0.5099 0.0
C1321 C 0.74971 0.76713 0.5045 0.0
C1322 C 0.74997 0.74278 0.52285 0.0
C1323 C 0.76625 0.75067 0.52926 0.0
H1324 H 0.72935 0.74417 0.50516 0.0
H1325 H 0.74337 0.73023 0.52691 0.0
S1326 S 0.79232 0.79336 0.51818 0.0
N1327 N 0.77473 0.79093 0.50656 0.0
N1328 N 0.78996 0.77577 0.52903 0.0
C1329 C 0.77427 0.76698 0.52317 0.0
C1330 C 0.76599 0.77521 0.51144 0.0
C1331 C 0.24573 0.99108 0.51809 0.0
C1332 C 0.22944 0.98248 0.51396 0.0
C1333 C 0.25368 0.00726 0.52797 0.0
C1334 C 0.24572 0.01561 0.53259 0.0
H1335 H 0.25246 0.98526 0.5147 0.0
H1336 H 0.26623 0.01327 0.53123 0.0
S1337 S 0.20303 0.9987 0.52357 0.0
N1338 N 0.20556 0.98354 0.51506 0.0
N1339 N 0.22057 0.01406 0.53186 0.0
C1340 C 0.22943 0.00722 0.52763 0.0
C1341 C 0.22128 0.99063 0.51898 0.0
C1342 C 0.98956 0.24761 0.50885 0.0
C1343 C 0.98103 0.23132 0.51482 0.0
C1344 C 0.00572 0.25558 0.49757 0.0
C1345 C 0.01408 0.24763 0.49339 0.0
H1346 H 0.98371 0.25431 0.51212 0.0
H1347 H 0.01171 0.26814 0.49322 0.0
S1348 S 0.9973 0.20492 0.50639 0.0
N1349 N 0.98216 0.20744 0.51543 0.0
N1350 N 0.01258 0.22247 0.49595 0.0
C1351 C 0.00573 0.23132 0.49976 0.0
C1352 C 0.9892 0.22316 0.50987 0.0
C1353 C 0.23109 0.22456 0.51901 0.0
C1354 C 0.24737 0.2326 0.52729 0.0
C1355 C 0.22286 0.23258 0.50749 0.0
C1356 C 0.23063 0.24891 0.50213 0.0
H1357 H 0.22465 0.212 0.52235 0.0
H1358 H 0.21034 0.22593 0.50151 0.0
S1359 S 0.27322 0.27541 0.51904 0.0
N1360 N 0.27093 0.25786 0.52897 0.0
N1361 N 0.25559 0.27279 0.50669 0.0
C1362 C 0.24691 0.25704 0.51001 0.0
C1363 C 0.25524 0.24893 0.52273 0.0
C1364 C 0.74211 0.99075 0.51765 0.0
C1365 C 0.74979 0.98213 0.5146 0.0
C1366 C 0.75031 0.00692 0.52903 0.0
C1367 C 0.76659 0.01523 0.53635 0.0
H1368 H 0.72958 0.98497 0.51241 0.0
H1369 H 0.74378 0.01295 0.53152 0.0
S1370 S 0.79235 0.99824 0.53042 0.0
N1371 N 0.7747 0.98314 0.51908 0.0
N1372 N 0.79016 0.01361 0.53881 0.0
C1373 C 0.77448 0.00681 0.53222 0.0
C1374 C 0.76608 0.99025 0.52196 0.0
C1375 C 0.98989 0.7431 0.53574 0.0
C1376 C 0.9815 0.75101 0.54101 0.0
C1377 C 0.00602 0.75111 0.52379 0.0
C1378 C 0.01453 0.76742 0.51825 0.0
H1379 H 0.98393 0.73054 0.53987 0.0
H1380 H 0.01189 0.74442 0.51992 0.0
S1381 S 0.99819 0.79372 0.52921 0.0
N1382 N 0.98293 0.77615 0.53962 0.0
N1383 N 0.01335 0.79125 0.51904 0.0
C1384 C 0.00634 0.77553 0.52412 0.0
C1385 C 0.98981 0.76732 0.53484 0.0
C1386 C 0.10018 0.32248 0.27092 0.0
C1387 C 0.09329 0.31588 0.36097 0.0
C1388 C 0.10868 0.33867 0.2586 0.0
C1389 C 0.11088 0.34874 0.33659 0.0
H1390 H 0.09868 0.31509 0.20902 0.0
H1391 H 0.11355 0.34336 0.18773 0.0
S1392 S 0.09555 0.3374 0.58699 0.0
N1393 N 0.08951 0.32077 0.52947 0.0
N1394 N 0.1055 0.35109 0.50598 0.0
C1395 C 0.10427 0.34233 0.42696 0.0
C1396 C 0.09546 0.3259 0.43925 0.0
C1397 C 0.65675 0.75588 0.34516 0.0
C1398 C 0.65145 0.76232 0.27401 0.0
C1399 C 0.67221 0.76376 0.37732 0.0
C1400 C 0.68302 0.77846 0.34004 0.0
H1401 H 0.64898 0.74452 0.37537 0.0
H1402 H 0.67572 0.75818 0.43128 0.0
S1403 S 0.67487 0.80083 0.15579 0.0
N1404 N 0.65818 0.78461 0.16987 0.0
N1405 N 0.68711 0.79935 0.22992 0.0
C1406 C 0.67778 0.78519 0.27033 0.0
C1407 C 0.66206 0.77715 0.23747 0.0
C1408 C 0.22251 0.90073 0.27628 0.0
C1409 C 0.22084 0.90482 0.37176 0.0
C1410 C 0.23067 0.89287 0.25775 0.0
C1411 C 0.23692 0.88838 0.33444 0.0
H1412 H 0.21775 0.90392 0.2154 0.0
H1413 H 0.23194 0.89011 0.18315 0.0
S1414 S 0.23549 0.89601 0.59723 0.0
N1415 N 0.22618 0.90384 0.54363 0.0
N1416 N 0.24091 0.88846 0.50887 0.0
C1417 C 0.23512 0.89215 0.43017 0.0
C1418 C 0.22723 0.90055 0.44884 0.0
C1419 C 0.32266 0.10956 0.68814 0.0
C1420 C 0.31441 0.09336 0.67494 0.0
C1421 C 0.33872 0.11754 0.70525 0.0
C1422 C 0.34699 0.10953 0.71218 0.0
H1423 H 0.31671 0.11616 0.68383 0.0
H1424 H 0.34464 0.13002 0.71484 0.0
S1425 S 0.33083 0.0671 0.68345 0.0
N1426 N 0.31577 0.06962 0.66919 0.0
N1427 N 0.34582 0.08455 0.70363 0.0
C1428 C 0.33887 0.09334 0.69963 0.0
C1429 C 0.32262 0.08527 0.68035 0.0
C1430 C 0.89933 0.22341 0.75953 0.0
C1431 C 0.90294 0.22126 0.66387 0.0
C1432 C 0.89146 0.23159 0.7778 0.0
C1433 C 0.88651 0.23737 0.70078 0.0
H1434 H 0.90291 0.21907 0.82065 0.0
H1435 H 0.8891 0.23327 0.85251 0.0
S1436 S 0.8928 0.23451 0.43746 0.0
N1437 N 0.90099 0.22557 0.4915 0.0
N1438 N 0.88565 0.24036 0.52583 0.0
C1439 C 0.88979 0.23505 0.60493 0.0
C1440 C 0.89817 0.22714 0.58644 0.0
C1441 C 0.76441 0.67282 0.6482 0.0
C1442 C 0.7775 0.68426 0.69832 0.0
C1443 C 0.75638 0.65738 0.68075 0.0
C1444 C 0.76104 0.65275 0.76518 0.0
H1445 H 0.7603 0.6758 0.58321 0.0
H1446 H 0.74636 0.64905 0.63962 0.0
S1447 S 0.79449 0.67832 0.92385 0.0
N1448 N 0.79473 0.68988 0.83702 0.0
N1449 N 0.77967 0.66102 0.89839 0.0
C1450 C 0.77418 0.66408 0.81566 0.0
C1451 C 0.78239 0.67978 0.78222 0.0
C1452 C 0.90075 0.65793 0.69461 0.0
C1453 C 0.88822 0.65205 0.76024 0.0
C1454 C 0.90814 0.67347 0.66386 0.0
C1455 C 0.90327 0.68376 0.69697 0.0
H1456 H 0.90512 0.65058 0.66815 0.0
H1457 H 0.91789 0.67745 0.6146 0.0
S1458 S 0.87018 0.67381 0.86382 0.0
N1459 N 0.87073 0.65756 0.85343 0.0
N1460 N 0.8845 0.68662 0.79553 0.0
C1461 C 0.89045 0.67789 0.76049 0.0
C1462 C 0.88297 0.6621 0.79215 0.0
C1463 C 0.32337 0.21424 0.68224 0.0
C1464 C 0.31515 0.22227 0.67266 0.0
C1465 C 0.33947 0.22224 0.69819 0.0
C1466 C 0.34782 0.2385 0.70756 0.0
H1467 H 0.31738 0.20171 0.67572 0.0
H1468 H 0.34536 0.21561 0.70477 0.0
S1469 S 0.33166 0.26491 0.68999 0.0
N1470 N 0.31656 0.2474 0.6738 0.0
N1471 N 0.34667 0.26235 0.70628 0.0
C1472 C 0.3397 0.24664 0.69919 0.0
C1473 C 0.3234 0.23855 0.68101 0.0
C1474 C 0.76837 0.11566 0.60081 0.0
C1475 C 0.7581 0.11029 0.68044 0.0
C1476 C 0.77566 0.10757 0.56766 0.0
C1477 C 0.77306 0.09376 0.6128 0.0
H1478 H 0.77064 0.12609 0.5623 0.0
H1479 H 0.78329 0.11216 0.50531 0.0
S1480 S 0.74787 0.07515 0.82799 0.0
N1481 N 0.74621 0.09058 0.80637 0.0
N1482 N 0.75982 0.07535 0.74401 0.0
C1483 C 0.76305 0.0884 0.69384 0.0
C1484 C 0.7556 0.09665 0.72758 0.0
C1485 C 0.6707 0.8983 0.44742 0.0
C1486 C 0.68128 0.90434 0.36975 0.0
C1487 C 0.65464 0.89019 0.43034 0.0
C1488 C 0.64869 0.88835 0.33533 0.0
H1489 H 0.67488 0.89973 0.52171 0.0
H1490 H 0.64683 0.88565 0.49196 0.0
S1491 S 0.67165 0.90242 0.1077 0.0
N1492 N 0.6848 0.90794 0.19491 0.0
N1493 N 0.65464 0.8933 0.16285 0.0
C1494 C 0.65919 0.89452 0.25727 0.0
C1495 C 0.6755 0.90235 0.27449 0.0
C1496 C 0.11655 0.77589 0.35073 0.0
C1497 C 0.10857 0.75961 0.34262 0.0
C1498 C 0.10856 0.78398 0.36758 0.0
C1499 C 0.09235 0.77604 0.37937 0.0
H1500 H 0.12904 0.78246 0.34229 0.0
H1501 H 0.11516 0.79652 0.37273 0.0
S1502 S 0.06612 0.73337 0.36737 0.0
N1503 N 0.08358 0.73582 0.34843 0.0
N1504 N 0.06863 0.75095 0.38257 0.0
C1505 C 0.08427 0.75974 0.37283 0.0
C1506 C 0.09236 0.75155 0.35372 0.0
C1507 C 0.22736 0.34602 0.44432 0.0
C1508 C 0.23728 0.35104 0.363 0.0
C1509 C 0.21957 0.33041 0.47315 0.0
C1510 C 0.22131 0.31911 0.42178 0.0
H1511 H 0.22584 0.35427 0.4877 0.0
H1512 H 0.21233 0.32729 0.5375 0.0
S1513 S 0.24479 0.32594 0.19772 0.0
N1514 N 0.24759 0.34323 0.22739 0.0
N1515 N 0.23301 0.31395 0.28148 0.0
C1516 C 0.23082 0.32388 0.33841 0.0
C1517 C 0.23878 0.33981 0.30913 0.0
C1518 C 0.98996 0.41918 1.00656 0.0
C1519 C 0.98173 0.42721 0.99764 0.0
C1520 C 0.00593 0.42709 0.02577 0.0
C1521 C 0.01434 0.44337 0.03428 0.0
H1522 H 0.98397 0.40665 0.99996 0.0
H1523 H 0.01177 0.42042 0.03276 0.0
S1524 S -0.00172 0.46984 1.01523 0.0
N1525 N 0.98316 0.45234 0.99863 0.0
N1526 N 0.01326 0.46726 0.03225 0.0
C1527 C 0.00629 0.45156 0.02445 0.0
C1528 C 0.98996 0.44347 1.00693 0.0
C1529 C 0.56697 0.55777 0.10105 0.0
C1530 C 0.57021 0.55521 1.00537 0.0
C1531 C 0.55916 0.566 0.11901 0.0
C1532 C 0.55387 0.57142 0.04174 0.0
H1533 H 0.57082 0.55371 0.16234 0.0
H1534 H 0.55709 0.56801 0.19369 0.0
S1535 S 0.55908 0.56736 0.77831 0.0
N1536 N 0.56757 0.55875 0.83269 0.0
N1537 N 0.55225 0.57356 0.86655 0.0
C1538 C 0.55676 0.56866 0.94591 0.0
C1539 C 0.56511 0.56072 0.92766 0.0
C1540 C 0.42297 0.99127 0.05656 0.0
C1541 C 0.4257 0.98017 1.01099 0.0
C1542 C 0.43043 0.00677 0.025 0.0
C1543 C 0.44088 0.01181 0.94619 0.0
H1544 H 0.41494 0.98798 0.11699 0.0
H1545 H 0.42781 0.0148 0.0622 0.0
S1546 S 0.45216 0.98734 0.80192 0.0
N1547 N 0.43973 0.97538 0.88309 0.0
N1548 N 0.45369 0.00436 0.82397 0.0
C1549 C 0.44385 0.00085 0.90063 0.0
C1550 C 0.43629 0.98509 0.93294 0.0
C1551 C 0.55577 0.98963 0.94799 0.0
C1552 C 0.5538 0.98378 0.0433 0.0
C1553 C 0.56391 0.00569 0.9304 0.0
C1554 C 0.56982 0.01636 1.00781 0.0
H1555 H 0.55131 0.98174 0.88658 0.0
H1556 H 0.56545 0.0098 0.85591 0.0
S1557 S 0.56747 0.00697 0.27048 0.0
N1558 N 0.55849 0.98988 0.21576 0.0
N1559 N 0.57311 0.02005 0.18281 0.0
C1560 C 0.56768 0.01067 0.10337 0.0
C1561 C 0.55984 0.99435 0.1211 0.0
C1562 C 0.99308 0.55981 0.92169 0.0
C1563 C 0.98238 0.55467 0.99886 0.0
C1564 C 0.00911 0.56757 0.9398 0.0
C1565 C 0.01488 0.5709 0.03551 0.0
H1566 H 0.98902 0.55766 0.84698 0.0
H1567 H 0.01702 0.57128 0.87859 0.0
S1568 S 0.99157 0.56017 0.26232 0.0
N1569 N 0.97856 0.55328 0.17399 0.0
N1570 N 0.00868 0.56852 0.20809 0.0
C1571 C 0.00427 0.56596 0.11311 0.0
C1572 C 0.98799 0.55765 0.09474 0.0
C1573 C 0.42827 0.42 1.02029 0.0
C1574 C 0.44453 0.42792 1.01209 0.0
C1575 C 0.42028 0.42802 0.03926 0.0
C1576 C 0.42823 0.44429 0.04811 0.0
H1577 H 0.42166 0.40748 1.01326 0.0
H1578 H 0.40777 0.42143 0.04573 0.0
S1579 S 0.47079 0.47049 0.0317 0.0
N1580 N 0.46831 0.45294 1.01473 0.0
N1581 N 0.45326 0.46805 0.04771 0.0
C1582 C 0.44447 0.45237 0.03923 0.0
C1583 C 0.45263 0.44417 0.02206 0.0
C1584 C 0.19201 0.39869 0.10064 0.0
C1585 C 0.18725 0.40402 0.18138 0.0
C1586 C 0.2062 0.39886 0.10084 0.0
C1587 C 0.21623 0.4044 0.18167 0.0
H1588 H 0.18462 0.39417 0.03712 0.0
H1589 H 0.20927 0.39443 0.03761 0.0
S1590 S 0.20905 0.41919 0.41254 0.0
N1591 N 0.19366 0.41477 0.345 0.0
N1592 N 0.22032 0.41516 0.34506 0.0
C1593 C 0.21176 0.41003 0.26213 0.0
C1594 C 0.19729 0.40982 0.26206 0.0
C1595 C 0.59905 0.79232 0.10678 0.0
C1596 C 0.59377 0.7833 0.19196 0.0
C1597 C 0.5995 0.80665 0.0999 0.0
C1598 C 0.59441 0.81229 0.17725 0.0
H1599 H 0.60339 0.78854 0.04652 0.0
H1600 H 0.60403 0.81346 0.03411 0.0
S1601 S 0.57891 0.79268 0.41413 0.0
N1602 N 0.58293 0.78075 0.3538 0.0
N1603 N 0.58358 0.80752 0.34062 0.0
C1604 C 0.58864 0.80311 0.26146 0.0
C1605 C 0.58839 0.78866 0.26892 0.0
C1606 C 0.19881 0.81186 0.20479 0.0
C1607 C 0.21212 0.81321 0.15945 0.0
C1608 C 0.18479 0.79773 0.20627 0.0
C1609 C 0.18343 0.7843 0.16268 0.0
H1610 H 0.19929 0.82179 0.24076 0.0
H1611 H 0.17495 0.79728 0.24319 0.0
S1612 S 0.21448 0.78174 0.0292 0.0
N1613 N 0.22284 0.79997 0.06623 0.0
N1614 N 0.19645 0.77335 0.06956 0.0
C1615 C 0.19659 0.78545 0.11658 0.0
C1616 C 0.21092 0.79989 0.11485 0.0
C1617 C 0.40919 0.19726 0.91826 0.0
C1618 C 0.39694 0.18375 0.8764 0.0
C1619 C 0.4092 0.21142 0.91708 0.0
C1620 C 0.39698 0.21257 0.87391 0.0
H1621 H 0.4187 0.19682 0.95345 0.0
H1622 H 0.41873 0.22148 0.95144 0.0
S1623 S 0.36317 0.18106 0.74399 0.0
N1624 N 0.37294 0.17277 0.78373 0.0
N1625 N 0.37299 0.19926 0.78135 0.0
C1626 C 0.38491 0.19924 0.82951 0.0
C1627 C 0.38489 0.18488 0.83078 0.0
C1628 C 0.7925 0.18946 0.95544 0.0
C1629 C 0.78183 0.18574 0.87864 0.0
C1630 C 0.80667 0.20352 0.95648 0.0
C1631 C 0.81074 0.21443 0.88077 0.0
H1632 H 0.78995 0.18137 1.0148 0.0
H1633 H 0.81457 0.20581 1.01661 0.0
S1634 S 0.78717 0.21002 0.661 0.0
N1635 N 0.77648 0.19401 0.72403 0.0
N1636 N 0.80305 0.22037 0.72599 0.0
C1637 C 0.80008 0.21094 0.80428 0.0
C1638 C 0.78566 0.19663 0.80322 0.0
C1639 C 0.80985 0.60823 0.85394 0.0
C1640 C 0.81017 0.5943 0.84447 0.0
C1641 C 0.79584 0.60832 0.85445 0.0
C1642 C 0.78152 0.59449 0.84544 0.0
H1643 H 0.82059 0.61923 0.85834 0.0
H1644 H 0.79624 0.61939 0.85924 0.0
S1645 S 0.7759 0.55484 0.82279 0.0
N1646 N 0.79491 0.56623 0.82974 0.0
N1647 N 0.76846 0.56639 0.83056 0.0
C1648 C 0.78158 0.58039 0.84034 0.0
C1649 C 0.79594 0.5803 0.83988 0.0
C1650 C 0.87636 0.7417 0.57739 0.0
C1651 C 0.88067 0.73555 0.49888 0.0
C1652 C 0.86225 0.7417 0.5769 0.0
C1653 C 0.8519 0.73554 0.49788 0.0
H1654 H 0.88367 0.74603 0.64138 0.0
H1655 H 0.85916 0.74602 0.64051 0.0
S1656 S 0.85872 0.72007 0.26868 0.0
N1657 N 0.87416 0.72456 0.33593 0.0
N1658 N 0.84766 0.72454 0.33504 0.0
C1659 C 0.8564 0.73 0.41707 0.0
C1660 C 0.87076 0.73001 0.41756 0.0
C1661 C 0.27615 0.14575 0.54331 0.0
C1662 C 0.26394 0.14703 0.50125 0.0
C1663 C 0.27609 0.13163 0.54359 0.0
C1664 C 0.26382 0.11814 0.50182 0.0
H1665 H 0.28578 0.15573 0.57758 0.0
H1666 H 0.28568 0.13124 0.57808 0.0
S1667 S 0.22949 0.11542 0.37705 0.0
N1668 N 0.2395 0.13368 0.41338 0.0
N1669 N 0.23939 0.1071 0.41386 0.0
C1670 C 0.25156 0.11923 0.45899 0.0
C1671 C 0.25162 0.13366 0.45872 0.0
C1672 C 0.87668 0.13657 0.59232 0.0
C1673 C 0.88067 0.14517 0.50529 0.0
C1674 C 0.86278 0.12237 0.60043 0.0
C1675 C 0.8525 0.11611 0.52122 0.0
H1676 H 0.88411 0.14112 0.65569 0.0
H1677 H 0.85992 0.11634 0.66963 0.0
S1678 S 0.858 0.13361 0.2758 0.0
N1679 N 0.87354 0.14615 0.33732 0.0
N1680 N 0.84751 0.1193 0.35208 0.0
C1681 C 0.85661 0.12431 0.4328 0.0
C1682 C 0.87065 0.1389 0.425 0.0
C1683 C 0.05336 0.53266 0.16201 0.0
C1684 C 0.06542 0.54608 0.20593 0.0
C1685 C 0.05334 0.51856 0.16226 0.0
C1686 C 0.0654 0.51724 0.20618 0.0
H1687 H 0.0439 0.53308 0.12603 0.0
H1688 H 0.04385 0.50862 0.12662 0.0
S1689 S 0.09931 0.5486 0.33582 0.0
N1690 N 0.0895 0.55696 0.29786 0.0
N1691 N 0.0895 0.53043 0.29755 0.0
C1692 C 0.07754 0.53052 0.25054 0.0
C1693 C 0.07754 0.54492 0.25059 0.0
C1694 C 0.45444 0.5297 0.15112 0.0
C1695 C 0.4503 0.51931 0.22986 0.0
C1696 C 0.46846 0.54389 0.15099 0.0
C1697 C 0.47891 0.54825 0.22952 0.0
H1698 H 0.44705 0.5266 0.08747 0.0
H1699 H 0.47141 0.55125 0.08728 0.0
S1700 S 0.4726 0.52621 0.45901 0.0
N1701 N 0.45711 0.51509 0.39256 0.0
N1702 N 0.48347 0.54172 0.39206 0.0
C1703 C 0.47461 0.53828 0.31049 0.0
C1704 C 0.46033 0.52384 0.31071 0.0
C1705 C 0.47341 0.93608 0.28881 0.0
C1706 C 0.47791 0.92991 0.21131 0.0
C1707 C 0.45913 0.93574 0.2876 0.0
C1708 C 0.44878 0.92925 0.20875 0.0
H1709 H 0.48105 0.94133 0.35061 0.0
H1710 H 0.45624 0.94076 0.34852 0.0
S1711 S 0.45533 0.91217 0.98585 0.0
N1712 N 0.47098 0.9174 0.05263 0.0
N1713 N 0.44423 0.91682 0.05019 0.0
C1714 C 0.45306 0.92288 0.13136 0.0
C1715 C 0.46758 0.9232 0.13266 0.0
C1716 C 0.53714 0.06566 0.7729 0.0
C1717 C 0.54767 0.07033 0.85118 0.0
C1718 C 0.52324 0.06603 0.78029 0.0
C1719 C 0.51929 0.07082 0.86682 0.0
H1720 H 0.53957 0.06149 0.70601 0.0
H1721 H 0.51526 0.06197 0.71934 0.0
S1722 S 0.54301 0.08454 0.09168 0.0
N1723 N 0.55333 0.08028 1.01685 0.0
N1724 N 0.52721 0.08083 0.03083 0.0
C1725 C 0.52987 0.07584 0.94465 0.0
C1726 C 0.54406 0.07564 0.93678 0.0
C1727 C 0.92028 0.45298 0.79044 0.0
C1728 C 0.93241 0.45167 0.83363 0.0
C1729 C 0.92038 0.46719 0.7903 0.0
C1730 C 0.9326 0.48058 0.83345 0.0
H1731 H 0.91078 0.44302 0.75515 0.0
H1732 H 0.91096 0.46776 0.75477 0.0
S1733 S 0.96609 0.48276 0.96676 0.0
N1734 N 0.95627 0.46467 0.92758 0.0
N1735 N 0.95644 0.49122 0.9277 0.0
C1736 C 0.94454 0.47926 0.87936 0.0
C1737 C 0.94444 0.46487 0.87935 0.0
C1738 C 0.52329 0.46073 0.75737 0.0
C1739 C 0.51927 0.45043 0.83657 0.0
C1740 C 0.53731 0.47493 0.75617 0.0
C1741 C 0.5479 0.47938 0.83395 0.0
H1742 H 0.51546 0.45785 0.6961 0.0
H1743 H 0.53981 0.48256 0.6942 0.0
S1744 S 0.5427 0.45695 0.06031 0.0
N1745 N 0.52694 0.44592 0.9959 0.0
N1746 N 0.55329 0.4725 0.99311 0.0
C1747 C 0.54415 0.46912 0.9129 0.0
C1748 C 0.52985 0.45468 0.91434 0.0
C1749 C 0.74034 0.87724 0.47326 0.0
C1750 C 0.7338 0.88106 0.55194 0.0
C1751 C 0.74044 0.86318 0.47117 0.0
C1752 C 0.73402 0.85239 0.54777 0.0
H1753 H 0.7449 0.88493 0.41107 0.0
H1754 H 0.74506 0.86048 0.40736 0.0
S1755 S 0.7175 0.85785 0.77677 0.0
N1756 N 0.72213 0.87361 0.71256 0.0
N1757 N 0.72239 0.84723 0.70899 0.0
C1758 C 0.72812 0.8564 0.62894 0.0
C1759 C 0.72798 0.8707 0.63094 0.0
C1760 C 0.12657 0.85644 0.62687 0.0
C1761 C 0.11603 0.85221 0.5488 0.0
C1762 C 0.14072 0.87052 0.62634 0.0
C1763 C 0.14487 0.88097 0.54793 0.0
H1764 H 0.1239 0.84876 0.68868 0.0
H1765 H 0.14852 0.87322 0.68758 0.0
S1766 S 0.12181 0.87512 0.32357 0.0
N1767 N 0.11104 0.85947 0.38945 0.0
N1768 N 0.1375 0.88594 0.38913 0.0
C1769 C 0.1344 0.87697 0.46992 0.0
C1770 C 0.12003 0.86261 0.4702 0.0
C1771 C 0.1322 0.25611 0.42901 0.0
C1772 C 0.14263 0.26084 0.50777 0.0
C1773 C 0.11823 0.25631 0.43553 0.0
C1774 C 0.11431 0.26152 0.52041 0.0
H1775 H 0.13499 0.25247 0.36126 0.0
H1776 H 0.11071 0.2529 0.37235 0.0
S1777 S 0.13735 0.27456 0.7482 0.0
N1778 N 0.14782 0.27033 0.6744 0.0
N1779 N 0.12165 0.2709 0.68621 0.0
C1780 C 0.12446 0.26594 0.60042 0.0
C1781 C 0.13858 0.26552 0.59427 0.0
C1782 C 0.11633 0.40244 0.79313 0.0
C1783 C 0.1184 0.39042 0.82992 0.0
C1784 C 0.1185 0.40629 0.69357 0.0
C1785 C 0.12284 0.39827 0.62765 0.0
H1786 H 0.1127 0.40864 0.84137 0.0
H1787 H 0.11659 0.41548 0.66758 0.0
S1788 S 0.13218 0.36767 0.69161 0.0
N1789 N 0.12639 0.37154 0.79534 0.0
N1790 N 0.1309 0.37906 0.60903 0.0
C1791 C 0.1255 0.38663 0.6646 0.0
C1792 C 0.12317 0.38264 0.76556 0.0
C1793 C 0.59464 0.73065 0.70036 0.0
C1794 C 0.5995 0.72353 0.63099 0.0
C1795 C 0.59838 0.73117 0.79945 0.0
C1796 C 0.60714 0.72458 0.83343 0.0
H1797 H 0.58807 0.73608 0.67761 0.0
H1798 H 0.59464 0.73705 0.84965 0.0
S1799 S 0.62132 0.70313 0.68321 0.0
N1800 N 0.61268 0.70886 0.60437 0.0
N1801 N 0.61963 0.70972 0.79031 0.0
C1802 C 0.61182 0.71714 0.76511 0.0
C1803 C 0.60804 0.71666 0.66409 0.0
C1804 C 0.26709 0.86805 0.78196 0.0
C1805 C 0.27211 0.88324 0.81502 0.0
C1806 C 0.26795 0.86493 0.68296 0.0
C1807 C 0.27382 0.87684 0.61263 0.0
H1808 H 0.26221 0.85845 0.83274 0.0
H1809 H 0.26376 0.85303 0.66098 0.0
S1810 S 0.2899 0.9188 0.66174 0.0
N1811 N 0.28422 0.9105 0.76949 0.0
N1812 N 0.2856 0.90453 0.584 0.0
C1813 C 0.27908 0.8921 0.64467 0.0
C1814 C 0.2783 0.89531 0.74557 0.0
C1815 C 0.40592 0.12219 0.35627 0.0
C1816 C 0.3951 0.12109 0.42686 0.0
C1817 C 0.40199 0.11934 0.25709 0.0
C1818 C 0.38702 0.11509 0.2242 0.0
H1819 H 0.41753 0.12513 0.37776 0.0
H1820 H 0.41065 0.12017 0.20588 0.0
S1821 S 0.35465 0.11166 0.37638 0.0
N1822 N 0.36893 0.11631 0.45444 0.0
N1823 N 0.3615 0.11061 0.26885 0.0
C1824 C 0.3761 0.11403 0.29336 0.0
C1825 C 0.38013 0.11709 0.39432 0.0
C1826 C 0.86325 0.26815 0.35274 0.0
C1827 C 0.87516 0.27433 0.42312 0.0
C1828 C 0.86643 0.26741 0.25372 0.0
C1829 C 0.88166 0.27283 0.22066 0.0
H1830 H 0.85131 0.26363 0.37465 0.0
H1831 H 0.85683 0.2623 0.20289 0.0
S1832 S 0.9172 0.29146 0.37384 0.0
N1833 N 0.9029 0.28681 0.45164 0.0
N1834 N 0.90893 0.28559 0.2661 0.0
C1835 C 0.89373 0.2793 0.29009 0.0
C1836 C 0.89047 0.27999 0.39102 0.0
C1837 C 0.71464 0.59016 0.32985 0.0
C1838 C 0.72324 0.60145 0.40113 0.0
C1839 C 0.71568 0.59402 0.2307 0.0
C1840 C 0.7253 0.60935 0.19875 0.0
H1841 H 0.7069 0.57824 0.35095 0.0
H1842 H 0.70872 0.58499 0.17877 0.0
S1843 S 0.75119 0.64307 0.35384 0.0
N1844 N 0.74242 0.6285 0.43117 0.0
N1845 N 0.74418 0.63576 0.24531 0.0
C1846 C 0.73406 0.62074 0.26884 0.0
C1847 C 0.73307 0.61681 0.3698 0.0
C1848 C 0.88917 0.609 0.36417 0.0
C1849 C 0.87386 0.60049 0.39872 0.0
C1850 C 0.89229 0.61272 0.26489 0.0
C1851 C 0.88021 0.60814 0.1964 0.0
H1852 H 0.89879 0.61248 0.41396 0.0
H1853 H 0.90427 0.619 0.24136 0.0
S1854 S 0.83811 0.58737 0.25223 0.0
N1855 N 0.84652 0.58867 0.35822 0.0
N1856 N 0.85235 0.59579 0.17243 0.0
C1857 C 0.86486 0.60002 0.23077 0.0
C1858 C 0.86169 0.59618 0.33164 0.0
C1859 C 0.38285 0.26446 0.38975 0.0
C1860 C 0.39754 0.27596 0.42314 0.0
C1861 C 0.37883 0.26324 0.29052 0.0
C1862 C 0.38937 0.27338 0.22056 0.0
H1863 H 0.37451 0.25615 0.44041 0.0
H1864 H 0.36747 0.25412 0.26797 0.0
S1865 S 0.4285 0.30673 0.27069 0.0
N1866 N 0.42208 0.29866 0.37833 0.0
N1867 N 0.41459 0.29605 0.19251 0.0
C1868 C 0.40392 0.28514 0.25304 0.0
C1869 C 0.40798 0.28651 0.35403 0.0
C1870 C 0.72969 0.13059 0.24196 0.0
C1871 C 0.72276 0.11516 0.2084 0.0
C1872 C 0.72928 0.13399 0.34104 0.0
C1873 C 0.72198 0.12213 0.41096 0.0
H1874 H 0.7357 0.14013 0.19149 0.0
H1875 H 0.7349 0.14604 0.36343 0.0
S1876 S 0.70068 0.07985 0.36058 0.0
N1877 N 0.7073 0.0879 0.25312 0.0
N1878 N 0.70683 0.09437 0.43877 0.0
C1879 C 0.71481 0.10667 0.37847 0.0
C1880 C 0.71512 0.10318 0.27749 0.0
C1881 C 0.5986 0.86843 0.78929 0.0
C1882 C 0.60792 0.88374 0.82307 0.0
C1883 C 0.59477 0.86527 0.69017 0.0
C1884 C 0.60014 0.87726 0.62056 0.0
H1885 H 0.59443 0.8588 0.83962 0.0
H1886 H 0.58769 0.8533 0.66748 0.0
S1887 S 0.62355 0.91942 0.67176 0.0
N1888 N 0.62146 0.91112 0.77909 0.0
N1889 N 0.61443 0.90507 0.59322 0.0
C1890 C 0.60927 0.89261 0.65329 0.0
C1891 C 0.6131 0.89587 0.75432 0.0
C1892 C 0.12252 0.71414 0.69819 0.0
C1893 C 0.12106 0.72365 0.62763 0.0
C1894 C 0.11961 0.71513 0.79737 0.0
C1895 C 0.11495 0.72556 0.83028 0.0
H1896 H 0.12579 0.7057 0.67666 0.0
H1897 H 0.12072 0.70747 0.84857 0.0
S1898 S 0.11051 0.75392 0.67804 0.0
N1899 N 0.11551 0.74455 0.59999 0.0
N1900 N 0.10972 0.74613 0.78559 0.0
C1901 C 0.11354 0.73523 0.7611 0.0
C1902 C 0.11665 0.73433 0.66014 0.0
C1903 C 0.27953 0.38608 0.77574 0.0
C1904 C 0.27262 0.39118 0.84551 0.0
C1905 C 0.28007 0.38981 0.67647 0.0
C1906 C 0.27389 0.39895 0.64308 0.0
H1907 H 0.28481 0.37935 0.79812 0.0
H1908 H 0.28569 0.38586 0.62579 0.0
S1909 S 0.25307 0.41385 0.79222 0.0
N1910 N 0.25829 0.40479 0.87116 0.0
N1911 N 0.25973 0.41212 0.68559 0.0
C1912 C 0.2667 0.40388 0.71121 0.0
C1913 C 0.26598 0.39994 0.81205 0.0
C1914 C 0.78418 0.71749 0.99296 0.0
C1915 C 0.78691 0.73209 0.96077 0.0
C1916 C 0.78166 0.71335 0.09208 0.0
C1917 C 0.78185 0.72366 0.16322 0.0
H1918 H 0.78432 0.70932 0.9414 0.0
H1919 H 0.77981 0.70207 0.11355 0.0
S1920 S 0.78643 0.76245 0.1163 0.0
N1921 N 0.78817 0.75629 1.00783 0.0
N1922 N 0.78368 0.74857 0.19343 0.0
C1923 C 0.78416 0.73812 0.13187 0.0
C1924 C 0.78662 0.7423 0.03097 0.0
C1925 C 0.27946 0.06733 0.99244 0.0
C1926 C 0.26492 0.05557 0.9588 0.0
C1927 C 0.28348 0.0686 0.09169 0.0
C1928 C 0.27307 0.05824 0.16139 0.0
H1929 H 0.28768 0.07581 0.94196 0.0
H1930 H 0.29472 0.07792 0.11447 0.0
S1931 S 0.23444 0.02419 0.11039 0.0
N1932 N 0.24072 0.03242 1.00296 0.0
N1933 N 0.24819 0.0351 0.18888 0.0
C1934 C 0.25869 0.04622 0.12863 0.0
C1935 C 0.25464 0.0448 0.02761 0.0
C1936 C 0.92991 0.21352 0.97812 0.0
C1937 C 0.94193 0.21106 0.94562 0.0
C1938 C 0.92818 0.21581 0.0774 0.0
C1939 C 0.93831 0.21561 0.1482 0.0
H1940 H 0.92157 0.21332 0.9267 0.0
H1941 H 0.91869 0.21752 0.09932 0.0
S1942 S 0.97283 0.21169 0.10074 0.0
N1943 N 0.96503 0.21009 0.99218 0.0
N1944 N 0.9615 0.21406 0.17826 0.0
C1945 C 0.95058 0.21355 0.11668 0.0
C1946 C 0.95246 0.21138 1.01562 0.0
C1947 C 0.07301 0.45496 0.67699 0.0
C1948 C 0.06227 0.45407 0.74751 0.0
C1949 C 0.06906 0.45216 0.5778 0.0
C1950 C 0.05416 0.44818 0.54487 0.0
H1951 H 0.08455 0.45769 0.69857 0.0
H1952 H 0.07764 0.45281 0.52662 0.0
S1953 S 0.02208 0.44547 0.69692 0.0
N1954 N 0.03629 0.44984 0.77505 0.0
N1955 N 0.02884 0.44424 0.58942 0.0
C1956 C 0.04333 0.44736 0.61398 0.0
C1957 C 0.04738 0.45036 0.71494 0.0
C1958 C 0.55641 0.61305 0.72646 0.0
C1959 C 0.54111 0.607 0.75972 0.0
C1960 C 0.5596 0.61246 0.62721 0.0
C1961 C 0.54762 0.60568 0.55734 0.0
H1962 H 0.56598 0.61859 0.77721 0.0
H1963 H 0.5716 0.6176 0.60484 0.0
S1964 S 0.50544 0.5863 0.60982 0.0
N1965 N 0.5138 0.59289 0.71665 0.0
N1966 N 0.51974 0.59152 0.53109 0.0
C1967 C 0.53224 0.59914 0.59052 0.0
C1968 C 0.52901 0.59985 0.69134 0.0
C1969 C 0.39529 0.93105 0.57463 0.0
C1970 C 0.38986 0.94089 0.54182 0.0
C1971 C 0.39453 0.92706 0.67359 0.0
C1972 C 0.38837 0.93278 0.74417 0.0
H1973 H 0.40041 0.92659 0.52365 0.0
H1974 H 0.39903 0.9196 0.69538 0.0
S1975 S 0.37109 0.9576 0.6957 0.0
N1976 N 0.377 0.9553 0.58784 0.0
N1977 N 0.37581 0.94796 0.77321 0.0
C1978 C 0.38267 0.94241 0.71235 0.0
C1979 C 0.38335 0.94641 0.6115 0.0
C1980 C 0.55646 0.94433 0.72386 0.0
C1981 C 0.54122 0.93491 0.75757 0.0
C1982 C 0.55953 0.94814 0.62462 0.0
C1983 C 0.54746 0.9428 0.55523 0.0
H1984 H 0.56609 0.94848 0.77427 0.0
H1985 H 0.57148 0.95514 0.60189 0.0
S1986 S 0.50537 0.91935 0.60896 0.0
N1987 N 0.51386 0.92127 0.71543 0.0
N1988 N 0.51956 0.92864 0.52985 0.0
C1989 C 0.53214 0.93372 0.58882 0.0
C1990 C 0.52904 0.92975 0.68964 0.0
C1991 C 0.04555 0.59627 0.62179 0.0
C1992 C 0.05618 0.6061 0.55112 0.0
C1993 C 0.04956 0.59771 0.72105 0.0
C1994 C 0.06434 0.60911 0.75373 0.0
H1995 H 0.03411 0.58723 0.59981 0.0
H1996 H 0.04115 0.58961 0.7723 0.0
S1997 S 0.09561 0.63909 0.59921 0.0
N1998 N 0.08161 0.6284 0.52157 0.0
N1999 N 0.0891 0.63136 0.70754 0.0
C2000 C 0.07488 0.61935 0.68392 0.0
C2001 C 0.07083 0.61778 0.58288 0.0
C2002 C 0.40273 0.4493 0.63164 0.0
C2003 C 0.39239 0.44928 0.56151 0.0
C2004 C 0.40133 0.45197 0.73088 0.0
C2005 C 0.38947 0.45462 0.76411 0.0
H2006 H 0.41213 0.44747 0.60923 0.0
H2007 H 0.4098 0.45227 0.78168 0.0
S2008 S 0.35815 0.4536 0.61121 0.0
N2009 N 0.36918 0.45087 0.53316 0.0
N2010 N 0.36629 0.45554 0.71899 0.0
C2011 C 0.37875 0.4541 0.69483 0.0
C2012 C 0.38028 0.45153 0.59384 0.0
C2013 C 0.28428 0.21637 0.08951 0.0
C2014 C 0.27396 0.21646 0.15936 0.0
C2015 C 0.28025 0.21366 0.99026 0.0
C2016 C 0.26577 0.21107 0.95674 0.0
H2017 H 0.29547 0.21814 0.11217 0.0
H2018 H 0.2884 0.21329 0.93966 0.0
S2019 S 0.23554 0.21239 0.10882 0.0
N2020 N 0.24924 0.21504 0.18716 0.0
N2021 N 0.24174 0.21035 1.00125 0.0
C2022 C 0.25557 0.21169 0.02573 0.0
C2023 C 0.25964 0.21428 0.12675 0.0
C2024 C 0.77393 0.05086 1.00056 0.0
C2025 C 0.78929 0.0579 0.9664 0.0
C2026 C 0.77069 0.0514 0.09977 0.0
C2027 C 0.78268 0.05906 0.16863 0.0
H2028 H 0.76438 0.04461 0.95051 0.0
H2029 H 0.7587 0.04556 0.12299 0.0
S2030 S 0.82481 0.08112 0.11411 0.0
N2031 N 0.81656 0.0739 1.00787 0.0
N2032 N 0.81048 0.07502 0.19344 0.0
C2033 C 0.79807 0.06655 0.1347 0.0
C2034 C 0.80137 0.06595 0.03392 0.0
C2035 C 0.94961 0.74189 0.03932 0.0
C2036 C 0.94006 0.73109 0.96802 0.0
C2037 C 0.94832 0.73787 0.13846 0.0
C2038 C 0.93751 0.72286 0.17055 0.0
H2039 H 0.9583 0.75353 1.01835 0.0
H2040 H 0.95604 0.7465 0.19027 0.0
S2041 S 0.90884 0.69061 1.01601 0.0
N2042 N 0.91869 0.70494 0.9387 0.0
N2043 N 0.91651 0.69738 0.12419 0.0
C2044 C 0.92778 0.71199 0.10057 0.0
C2045 C 0.929 0.71609 0.99968 0.0
C2046 C 0.46222 0.06466 0.47531 0.0
C2047 C 0.44689 0.0559 0.50948 0.0
C2048 C 0.46541 0.06842 0.37624 0.0
C2049 C 0.4534 0.06356 0.3071 0.0
H2050 H 0.47184 0.06841 0.52535 0.0
H2051 H 0.4774 0.07502 0.35331 0.0
S2052 S 0.41125 0.04172 0.35981 0.0
N2053 N 0.41954 0.0434 0.46674 0.0
N2054 N 0.42558 0.05037 0.28081 0.0
C2055 C 0.43802 0.05501 0.34035 0.0
C2056 C 0.43476 0.05122 0.44136 0.0
C2057 C 0.9266 0.38181 0.45449 0.0
C2058 C 0.94155 0.39257 0.48753 0.0
C2059 C 0.92268 0.38074 0.35531 0.0
C2060 C 0.9335 0.39051 0.28493 0.0
H2061 H 0.91795 0.37394 0.50557 0.0
H2062 H 0.91109 0.37204 0.33362 0.0
S2063 S 0.97387 0.4217 0.3359 0.0
N2064 N 0.96703 0.41374 0.44328 0.0
N2065 N 0.95963 0.41202 0.25766 0.0
C2066 C 0.94845 0.40153 0.31762 0.0
C2067 C 0.95247 0.40251 0.41857 0.0
C2068 C 0.59753 0.5482 0.31879 0.0
C2069 C 0.60895 0.54484 0.28626 0.0
C2070 C 0.59604 0.55073 0.41809 0.0
C2071 C 0.60584 0.5499 0.48895 0.0
H2072 H 0.58946 0.54852 0.26738 0.0
H2073 H 0.58697 0.55309 0.43994 0.0
S2074 S 0.63885 0.54348 0.44113 0.0
N2075 N 0.63116 0.54228 0.33268 0.0
N2076 N 0.62814 0.54677 0.51869 0.0
C2077 C 0.61754 0.54695 0.45727 0.0
C2078 C 0.61915 0.5445 0.35621 0.0
C2079 C 0.71632 0.78488 0.04254 0.0
C2080 C 0.73097 0.78785 0.07511 0.0
C2081 C 0.7122 0.78223 0.94336 0.0
C2082 C 0.72259 0.78251 0.87255 0.0
H2083 H 0.70809 0.78495 0.09384 0.0
H2084 H 0.70088 0.78019 0.92156 0.0
S2085 S 0.76158 0.78776 0.92059 0.0
N2086 N 0.75533 0.78947 0.02879 0.0
N2087 N 0.74765 0.78473 0.84311 0.0
C2088 C 0.73711 0.78508 0.9043 0.0
C2089 C 0.74127 0.78767 1.00525 0.0
C2090 C 0.21596 0.93055 0.95827 0.0
C2091 C 0.21475 0.94018 0.88777 0.0
C2092 C 0.21329 0.93183 0.05761 0.0
C2093 C 0.20939 0.94286 0.0905 0.0
H2094 H 0.21874 0.92177 0.9361 0.0
H2095 H 0.21392 0.92388 0.10876 0.0
S2096 S 0.20693 0.97228 0.9368 0.0
N2097 N 0.21072 0.96197 0.85884 0.0
N2098 N 0.20595 0.96459 0.04494 0.0
C2099 C 0.20868 0.95291 1.02095 0.0
C2100 C 0.21129 0.95151 0.91985 0.0
C2101 C 0.06529 0.28112 0.03564 0.0
C2102 C 0.05384 0.26637 0.06866 0.0
C2103 C 0.06665 0.28506 0.93629 0.0
C2104 C 0.05674 0.27438 0.86604 0.0
H2105 H 0.07345 0.28954 0.08668 0.0
H2106 H 0.07568 0.29648 0.91384 0.0
S2107 S 0.02358 0.23511 0.91495 0.0
N2108 N 0.0314 0.24167 0.02312 0.0
N2109 N 0.03433 0.24901 0.83697 0.0
C2110 C 0.04503 0.25979 0.89808 0.0
C2111 C 0.04349 0.25581 0.99915 0.0
C2112 C 0.21617 0.28554 0.93678 0.0
C2113 C 0.21468 0.27464 0.86572 0.0
C2114 C 0.21347 0.28156 0.03599 0.0
C2115 C 0.20919 0.26651 0.0681 0.0
H2116 H 0.21911 0.29717 0.91517 0.0
H2117 H 0.21434 0.2902 0.08758 0.0
S2118 S 0.20593 0.23436 0.91357 0.0
N2119 N 0.21014 0.24861 0.83607 0.0
N2120 N 0.20506 0.24112 0.02188 0.0
C2121 C 0.20821 0.25567 0.99824 0.0
C2122 C 0.21094 0.25972 0.89731 0.0
C2123 C 0.73173 0.9345 0.92051 0.0
C2124 C 0.72169 0.93967 0.88756 0.0
C2125 C 0.73567 0.9353 1.01951 0.0
C2126 C 0.72972 0.94127 0.08996 0.0
H2127 H 0.73638 0.92956 0.86962 0.0
H2128 H 0.74328 0.931 0.04139 0.0
S2129 S 0.70417 0.95769 0.04113 0.0
N2130 N 0.70674 0.95198 0.93328 0.0
N2131 N 0.71401 0.95326 0.11879 0.0
C2132 C 0.71985 0.94666 0.05802 0.0
C2133 C 0.71589 0.94593 0.95711 0.0
C2134 C 0.05216 0.77149 0.96033 0.0
C2135 C 0.05852 0.78346 0.89019 0.0
C2136 C 0.05158 0.77467 0.05961 0.0
C2137 C 0.0572 0.78994 0.09267 0.0
H2138 H 0.04735 0.7595 0.93821 0.0
H2139 H 0.04638 0.7651 0.11058 0.0
S2140 S 0.07652 0.82562 0.94206 0.0
N2141 N 0.07174 0.81135 0.8635 0.0
N2142 N 0.0703 0.81724 0.04915 0.0
C2143 C 0.06386 0.80204 0.02404 0.0
C2144 C 0.06459 0.79883 0.92316 0.0
C2145 C 0.9438 0.55776 0.31388 0.0
C2146 C 0.93403 0.54253 0.28055 0.0
C2147 C 0.94765 0.56086 0.41312 0.0
C2148 C 0.942 0.54883 0.48293 0.0
H2149 H 0.9482 0.56736 0.26317 0.0
H2150 H 0.95491 0.57281 0.43549 0.0
S2151 S 0.91768 0.50673 0.43015 0.0
N2152 N 0.9198 0.5152 0.32342 0.0
N2153 N 0.92725 0.52093 0.50894 0.0
C2154 C 0.93262 0.5335 0.44965 0.0
C2155 C 0.92861 0.53038 0.34884 0.0
C2156 C 0.45405 0.38243 0.46747 0.0
C2157 C 0.44988 0.39323 0.50029 0.0
C2158 C 0.45684 0.38127 0.36826 0.0
C2159 C 0.45571 0.39097 0.29765 0.0
H2160 H 0.45488 0.37461 0.51875 0.0
H2161 H 0.45974 0.37256 0.34672 0.0
S2162 S 0.44653 0.42221 0.34779 0.0
N2163 N 0.44551 0.41435 0.45544 0.0
N2164 N 0.45104 0.41244 0.26977 0.0
C2165 C 0.45179 0.40202 0.33006 0.0
C2166 C 0.44883 0.40309 0.43103 0.0
C2167 C 0.61098 0.05476 0.32122 0.0
C2168 C 0.6061 0.06495 0.28733 0.0
C2169 C 0.60987 0.0508 0.42037 0.0
C2170 C 0.60369 0.05675 0.4895 0.0
H2171 H 0.61601 0.0501 0.27103 0.0
H2172 H 0.61412 0.04319 0.44324 0.0
S2173 S 0.58737 0.08229 0.43506 0.0
N2174 N 0.59372 0.07993 0.3289 0.0
N2175 N 0.59136 0.0723 0.51433 0.0
C2176 C 0.59832 0.06659 0.45568 0.0
C2177 C 0.59957 0.0707 0.35495 0.0
loop_
_geom_bond_atom_site_label_1
_geom_bond_atom_site_label_2
_geom_bond_distance
_geom_bond_site_symmetry_2
_ccdc_geom_bond_type
Co0 N4 2.148 . S
Co0 N10 2.128 . S
Co0 N20 2.194 . S
Co0 O25 2.351 . S
Co0 O26 2.155 . S
Co0 O27 2.096 . S
C1 N4 1.301 . S
C1 N5 1.328 1_554 S
C1 H6 0.930 . S
C2 C3 1.333 1_554 S
C2 N4 1.317 . S
C2 H7 0.930 . S
C3 C2 1.333 1_556 S
C3 N5 1.350 . S
C3 H29 0.931 . S
N4 Co0 2.148 . S
N4 C1 1.301 . S
N4 C2 1.317 . S
N5 C1 1.328 1_556 S
N5 C3 1.350 . S
H6 C1 0.930 . S
H7 C2 0.930 . S
C8 O9 1.224 . S
C8 O27 1.247 . S
O9 C8 1.224 . S
N10 Co0 2.128 . S
N10 C11 1.355 . S
N10 C13 1.311 . S
C11 N10 1.355 . S
C11 C12 1.363 . S
C11 H23 0.929 . S
C12 C11 1.363 . S
C12 N14 1.375 . S
C12 H30 0.931 . S
C13 N10 1.311 . S
C13 N14 1.347 . S
C13 H24 0.929 . S
N14 C12 1.375 . S
N14 C13 1.347 . S
C15 C18 1.365 . S
C15 N20 1.328 . S
C15 H21 0.929 . S
C16 C17 1.362 . S
C16 C19 1.378 . S
C16 H31 0.929 . S
C17 C16 1.362 . S
C17 C18 1.366 . S
C18 C15 1.365 . S
C18 C17 1.366 . S
C18 H32 0.930 . S
C19 C16 1.378 . S
C19 N20 1.315 . S
C19 H22 0.930 . S
N20 Co0 2.194 . S
N20 C15 1.328 . S
N20 C19 1.315 . S
H21 C15 0.929 . S
H22 C19 0.930 . S
H23 C11 0.929 . S
H24 C13 0.929 . S
O25 Co0 2.351 . S
O25 C28 1.244 . S
O26 Co0 2.155 . S
O26 C28 1.240 . S
O27 Co0 2.096 . S
O27 C8 1.247 . S
C28 O25 1.244 . S
C28 O26 1.240 . S
H29 C3 0.931 . S
H30 C12 0.931 . S
H31 C16 0.929 . S
H32 C18 0.930 . S
Co33 N37 2.148 . S
Co33 N43 2.128 . S
Co33 N53 2.194 . S
Co33 O58 2.351 . S
Co33 O59 2.155 . S
Co33 O60 2.096 . S
C34 N37 1.301 . S
C34 N38 1.328 1_554 S
C34 H39 0.930 . S
C35 C36 1.333 1_554 S
C35 N37 1.317 . S
C35 H40 0.930 . S
C36 C35 1.333 1_556 S
C36 N38 1.350 . S
C36 H62 0.931 . S
N37 Co33 2.148 . S
N37 C34 1.301 . S
N37 C35 1.317 . S
N38 C34 1.328 1_556 S
N38 C36 1.350 . S
H39 C34 0.930 . S
H40 C35 0.930 . S
C41 O42 1.224 . S
C41 O60 1.247 . S
O42 C41 1.224 . S
N43 Co33 2.128 . S
N43 C44 1.355 . S
N43 C46 1.311 . S
C44 N43 1.355 . S
C44 C45 1.363 . S
C44 H56 0.929 . S
C45 C44 1.363 . S
C45 N47 1.375 . S
C45 H63 0.931 . S
C46 N43 1.311 . S
C46 N47 1.347 . S
C46 H57 0.929 . S
N47 C45 1.375 . S
N47 C46 1.347 . S
C48 C51 1.365 . S
C48 N53 1.328 . S
C48 H54 0.929 . S
C49 C50 1.362 . S
C49 C52 1.378 . S
C49 H64 0.929 . S
C50 C49 1.362 . S
C50 C51 1.366 . S
C51 C48 1.365 . S
C51 C50 1.366 . S
C51 H65 0.930 . S
C52 C49 1.378 . S
C52 N53 1.315 . S
C52 H55 0.930 . S
N53 Co33 2.194 . S
N53 C48 1.328 . S
N53 C52 1.315 . S
H54 C48 0.929 . S
H55 C52 0.930 . S
H56 C44 0.929 . S
H57 C46 0.929 . S
O58 Co33 2.351 . S
O58 C61 1.244 . S
O59 Co33 2.155 . S
O59 C61 1.240 . S
O60 Co33 2.096 . S
O60 C41 1.247 . S
C61 O58 1.244 . S
C61 O59 1.240 . S
H62 C36 0.931 . S
H63 C45 0.931 . S
H64 C49 0.929 . S
H65 C51 0.930 . S
Co66 N70 2.148 . S
Co66 N76 2.128 . S
Co66 N86 2.194 . S
Co66 O91 2.351 . S
Co66 O92 2.155 . S
Co66 O93 2.096 . S
C67 N70 1.301 . S
C67 N71 1.328 1_554 S
C67 H72 0.930 . S
C68 C69 1.333 1_554 S
C68 N70 1.317 . S
C68 H73 0.930 . S
C69 C68 1.333 1_556 S
C69 N71 1.350 . S
C69 H95 0.931 . S
N70 Co66 2.148 . S
N70 C67 1.301 . S
N70 C68 1.317 . S
N71 C67 1.328 1_556 S
N71 C69 1.350 . S
H72 C67 0.930 . S
H73 C68 0.930 . S
C74 O75 1.224 . S
C74 O93 1.247 . S
O75 C74 1.224 . S
N76 Co66 2.128 . S
N76 C77 1.355 . S
N76 C79 1.311 . S
C77 N76 1.355 . S
C77 C78 1.363 . S
C77 H89 0.929 . S
C78 C77 1.363 . S
C78 N80 1.375 . S
C78 H96 0.931 . S
C79 N76 1.311 . S
C79 N80 1.347 . S
C79 H90 0.929 . S
N80 C78 1.375 . S
N80 C79 1.347 . S
C81 C84 1.365 . S
C81 N86 1.328 . S
C81 H87 0.929 . S
C82 C83 1.362 . S
C82 C85 1.378 . S
C82 H97 0.929 . S
C83 C82 1.362 . S
C83 C84 1.366 . S
C84 C81 1.365 . S
C84 C83 1.366 . S
C84 H98 0.930 . S
C85 C82 1.378 . S
C85 N86 1.315 . S
C85 H88 0.930 . S
N86 Co66 2.194 . S
N86 C81 1.328 . S
N86 C85 1.315 . S
H87 C81 0.929 . S
H88 C85 0.930 . S
H89 C77 0.929 . S
H90 C79 0.929 . S
O91 Co66 2.351 . S
O91 C94 1.244 . S
O92 Co66 2.155 . S
O92 C94 1.240 . S
O93 Co66 2.096 . S
O93 C74 1.247 . S
C94 O91 1.244 . S
C94 O92 1.240 . S
H95 C69 0.931 . S
H96 C78 0.931 . S
H97 C82 0.929 . S
H98 C84 0.930 . S
Co99 N103 2.148 . S
Co99 N109 2.128 . S
Co99 N119 2.194 . S
Co99 O124 2.351 . S
Co99 O125 2.155 . S
Co99 O126 2.096 . S
C100 N103 1.301 . S
C100 N104 1.328 1_556 S
C100 H105 0.930 . S
C101 C102 1.333 1_556 S
C101 N103 1.317 . S
C101 H106 0.930 . S
C102 C101 1.333 1_554 S
C102 N104 1.350 . S
C102 H128 0.931 . S
N103 Co99 2.148 . S
N103 C100 1.301 . S
N103 C101 1.317 . S
N104 C100 1.328 1_554 S
N104 C102 1.350 . S
H105 C100 0.930 . S
H106 C101 0.930 . S
C107 O108 1.224 . S
C107 O126 1.247 . S
O108 C107 1.224 . S
N109 Co99 2.128 . S
N109 C110 1.355 . S
N109 C112 1.311 . S
C110 N109 1.355 . S
C110 C111 1.363 . S
C110 H122 0.929 . S
C111 C110 1.363 . S
C111 N113 1.375 . S
C111 H129 0.931 . S
C112 N109 1.311 . S
C112 N113 1.347 . S
C112 H123 0.929 . S
N113 C111 1.375 . S
N113 C112 1.347 . S
C114 C117 1.365 . S
C114 N119 1.328 . S
C114 H120 0.929 . S
C115 C116 1.362 . S
C115 C118 1.378 . S
C115 H130 0.929 . S
C116 C115 1.362 . S
C116 C117 1.366 . S
C117 C114 1.365 . S
C117 C116 1.366 . S
C117 H131 0.930 . S
C118 C115 1.378 . S
C118 N119 1.315 . S
C118 H121 0.930 . S
N119 Co99 2.194 . S
N119 C114 1.328 . S
N119 C118 1.315 . S
H120 C114 0.929 . S
H121 C118 0.930 . S
H122 C110 0.929 . S
H123 C112 0.929 . S
O124 Co99 2.351 . S
O124 C127 1.244 . S
O125 Co99 2.155 . S
O125 C127 1.240 . S
O126 Co99 2.096 . S
O126 C107 1.247 . S
C127 O124 1.244 . S
C127 O125 1.240 . S
H128 C102 0.931 . S
H129 C111 0.931 . S
H130 C115 0.929 . S
H131 C117 0.930 . S
Co132 N136 2.148 . S
Co132 N142 2.128 . S
Co132 N152 2.194 . S
Co132 O157 2.351 . S
Co132 O158 2.155 . S
Co132 O159 2.096 . S
C133 N136 1.301 . S
C133 N137 1.328 1_556 S
C133 H138 0.930 . S
C134 C135 1.333 1_556 S
C134 N136 1.317 . S
C134 H139 0.930 . S
C135 C134 1.333 1_554 S
C135 N137 1.350 . S
C135 H161 0.931 . S
N136 Co132 2.148 . S
N136 C133 1.301 . S
N136 C134 1.317 . S
N137 C133 1.328 1_554 S
N137 C135 1.350 . S
H138 C133 0.930 . S
H139 C134 0.930 . S
C140 O141 1.224 . S
C140 O159 1.247 . S
O141 C140 1.224 . S
N142 Co132 2.128 . S
N142 C143 1.355 . S
N142 C145 1.311 . S
C143 N142 1.355 . S
C143 C144 1.363 . S
C143 H155 0.929 . S
C144 C143 1.363 . S
C144 N146 1.375 . S
C144 H162 0.931 . S
C145 N142 1.311 . S
C145 N146 1.347 . S
C145 H156 0.929 . S
N146 C144 1.375 . S
N146 C145 1.347 . S
C147 C150 1.365 . S
C147 N152 1.328 . S
C147 H153 0.929 . S
C148 C149 1.362 . S
C148 C151 1.378 . S
C148 H163 0.929 . S
C149 C148 1.362 . S
C149 C150 1.366 . S
C150 C147 1.365 . S
C150 C149 1.366 . S
C150 H164 0.930 . S
C151 C148 1.378 . S
C151 N152 1.315 . S
C151 H154 0.930 . S
N152 Co132 2.194 . S
N152 C147 1.328 . S
N152 C151 1.315 . S
H153 C147 0.929 . S
H154 C151 0.930 . S
H155 C143 0.929 . S
H156 C145 0.929 . S
O157 Co132 2.351 . S
O157 C160 1.244 . S
O158 Co132 2.155 . S
O158 C160 1.240 . S
O159 Co132 2.096 . S
O159 C140 1.247 . S
C160 O157 1.244 . S
C160 O158 1.240 . S
H161 C135 0.931 . S
H162 C144 0.931 . S
H163 C148 0.929 . S
H164 C150 0.930 . S
Co165 N169 2.148 . S
Co165 N175 2.128 . S
Co165 N185 2.194 . S
Co165 O190 2.351 . S
Co165 O191 2.155 . S
Co165 O192 2.096 . S
C166 N169 1.301 . S
C166 N170 1.328 1_556 S
C166 H171 0.930 . S
C167 C168 1.333 1_556 S
C167 N169 1.317 . S
C167 H172 0.930 . S
C168 C167 1.333 1_554 S
C168 N170 1.350 . S
C168 H194 0.931 . S
N169 Co165 2.148 . S
N169 C166 1.301 . S
N169 C167 1.317 . S
N170 C166 1.328 1_554 S
N170 C168 1.350 . S
H171 C166 0.930 . S
H172 C167 0.930 . S
C173 O174 1.224 . S
C173 O192 1.247 . S
O174 C173 1.224 . S
N175 Co165 2.128 . S
N175 C176 1.355 . S
N175 C178 1.311 . S
C176 N175 1.355 . S
C176 C177 1.363 . S
C176 H188 0.929 . S
C177 C176 1.363 . S
C177 N179 1.375 . S
C177 H195 0.931 . S
C178 N175 1.311 . S
C178 N179 1.347 . S
C178 H189 0.929 . S
N179 C177 1.375 . S
N179 C178 1.347 . S
C180 C183 1.365 . S
C180 N185 1.328 . S
C180 H186 0.929 . S
C181 C182 1.362 . S
C181 C184 1.378 . S
C181 H196 0.929 . S
C182 C181 1.362 . S
C182 C183 1.366 . S
C183 C180 1.365 . S
C183 C182 1.366 . S
C183 H197 0.930 . S
C184 C181 1.378 . S
C184 N185 1.315 . S
C184 H187 0.930 . S
N185 Co165 2.194 . S
N185 C180 1.328 . S
N185 C184 1.315 . S
H186 C180 0.929 . S
H187 C184 0.930 . S
H188 C176 0.929 . S
H189 C178 0.929 . S
O190 Co165 2.351 . S
O190 C193 1.244 . S
O191 Co165 2.155 . S
O191 C193 1.240 . S
O192 Co165 2.096 . S
O192 C173 1.247 . S
C193 O190 1.244 . S
C193 O191 1.240 . S
H194 C168 0.931 . S
H195 C177 0.931 . S
H196 C181 0.929 . S
H197 C183 0.930 . S
Co198 N202 2.148 . S
Co198 N208 2.128 . S
Co198 N218 2.194 . S
Co198 O223 2.351 . S
Co198 O224 2.155 . S
Co198 O225 2.096 . S
C199 N202 1.301 . S
C199 N203 1.328 1_556 S
C199 H204 0.930 . S
C200 C201 1.333 1_556 S
C200 N202 1.317 . S
C200 H205 0.930 . S
C201 C200 1.333 1_554 S
C201 N203 1.350 . S
C201 H227 0.931 . S
N202 Co198 2.148 . S
N202 C199 1.301 . S
N202 C200 1.317 . S
N203 C199 1.328 1_554 S
N203 C201 1.350 . S
H204 C199 0.930 . S
H205 C200 0.930 . S
C206 O207 1.224 . S
C206 O225 1.247 . S
O207 C206 1.224 . S
N208 Co198 2.128 . S
N208 C209 1.355 . S
N208 C211 1.311 . S
C209 N208 1.355 . S
C209 C210 1.363 . S
C209 H221 0.929 . S
C210 C209 1.363 . S
C210 N212 1.375 . S
C210 H228 0.931 . S
C211 N208 1.311 . S
C211 N212 1.347 . S
C211 H222 0.929 . S
N212 C210 1.375 . S
N212 C211 1.347 . S
C213 C216 1.365 . S
C213 N218 1.328 . S
C213 H219 0.929 . S
C214 C215 1.362 . S
C214 C217 1.378 . S
C214 H229 0.929 . S
C215 C214 1.362 . S
C215 C216 1.366 . S
C216 C213 1.365 . S
C216 C215 1.366 . S
C216 H230 0.930 . S
C217 C214 1.378 . S
C217 N218 1.315 . S
C217 H220 0.930 . S
N218 Co198 2.194 . S
N218 C213 1.328 . S
N218 C217 1.315 . S
H219 C213 0.929 . S
H220 C217 0.930 . S
H221 C209 0.929 . S
H222 C211 0.929 . S
O223 Co198 2.351 . S
O223 C226 1.244 . S
O224 Co198 2.155 . S
O224 C226 1.240 . S
O225 Co198 2.096 . S
O225 C206 1.247 . S
C226 O223 1.244 . S
C226 O224 1.240 . S
H227 C201 0.931 . S
H228 C210 0.931 . S
H229 C214 0.929 . S
H230 C216 0.930 . S
Co231 N235 2.148 . S
Co231 N241 2.128 . S
Co231 N251 2.194 . S
Co231 O256 2.351 . S
Co231 O257 2.155 . S
Co231 O258 2.096 . S
C232 N235 1.301 . S
C232 N236 1.328 1_556 S
C232 H237 0.930 . S
C233 C234 1.333 1_556 S
C233 N235 1.317 . S
C233 H238 0.930 . S
C234 C233 1.333 1_554 S
C234 N236 1.350 . S
C234 H260 0.931 . S
N235 Co231 2.148 . S
N235 C232 1.301 . S
N235 C233 1.317 . S
N236 C232 1.328 1_554 S
N236 C234 1.350 . S
H237 C232 0.930 . S
H238 C233 0.930 . S
C239 O240 1.224 . S
C239 O258 1.247 . S
O240 C239 1.224 . S
N241 Co231 2.128 . S
N241 C242 1.355 . S
N241 C244 1.311 . S
C242 N241 1.355 . S
C242 C243 1.363 . S
C242 H254 0.929 . S
C243 C242 1.363 . S
C243 N245 1.375 . S
C243 H261 0.931 . S
C244 N241 1.311 . S
C244 N245 1.347 . S
C244 H255 0.929 . S
N245 C243 1.375 . S
N245 C244 1.347 . S
C246 C249 1.365 . S
C246 N251 1.328 . S
C246 H252 0.929 . S
C247 C248 1.362 . S
C247 C250 1.378 . S
C247 H262 0.929 . S
C248 C247 1.362 . S
C248 C249 1.366 . S
C249 C246 1.365 . S
C249 C248 1.366 . S
C249 H263 0.930 . S
C250 C247 1.378 . S
C250 N251 1.315 . S
C250 H253 0.930 . S
N251 Co231 2.194 . S
N251 C246 1.328 . S
N251 C250 1.315 . S
H252 C246 0.929 . S
H253 C250 0.930 . S
H254 C242 0.929 . S
H255 C244 0.929 . S
O256 Co231 2.351 . S
O256 C259 1.244 . S
O257 Co231 2.155 . S
O257 C259 1.240 . S
O258 Co231 2.096 . S
O258 C239 1.247 . S
C259 O256 1.244 . S
C259 O257 1.240 . S
H260 C234 0.931 . S
H261 C243 0.931 . S
H262 C247 0.929 . S
H263 C249 0.930 . S
Co264 N268 2.148 . S
Co264 N274 2.128 . S
Co264 N284 2.194 . S
Co264 O289 2.351 . S
Co264 O290 2.155 . S
Co264 O291 2.096 . S
C265 N268 1.301 . S
C265 N269 1.328 1_556 S
C265 H270 0.930 . S
C266 C267 1.333 1_556 S
C266 N268 1.317 . S
C266 H271 0.930 . S
C267 C266 1.333 1_554 S
C267 N269 1.350 . S
C267 H293 0.931 . S
N268 Co264 2.148 . S
N268 C265 1.301 . S
N268 C266 1.317 . S
N269 C265 1.328 1_554 S
N269 C267 1.350 . S
H270 C265 0.930 . S
H271 C266 0.930 . S
C272 O273 1.224 . S
C272 O291 1.247 . S
O273 C272 1.224 . S
N274 Co264 2.128 . S
N274 C275 1.355 . S
N274 C277 1.311 . S
C275 N274 1.355 . S
C275 C276 1.363 . S
C275 H287 0.929 . S
C276 C275 1.363 . S
C276 N278 1.375 . S
C276 H294 0.931 . S
C277 N274 1.311 . S
C277 N278 1.347 . S
C277 H288 0.929 . S
N278 C276 1.375 . S
N278 C277 1.347 . S
C279 C282 1.365 . S
C279 N284 1.328 . S
C279 H285 0.929 . S
C280 C281 1.362 . S
C280 C283 1.378 . S
C280 H295 0.929 . S
C281 C280 1.362 . S
C281 C282 1.366 . S
C282 C279 1.365 . S
C282 C281 1.366 . S
C282 H296 0.930 . S
C283 C280 1.378 . S
C283 N284 1.315 . S
C283 H286 0.930 . S
N284 Co264 2.194 . S
N284 C279 1.328 . S
N284 C283 1.315 . S
H285 C279 0.929 . S
H286 C283 0.930 . S
H287 C275 0.929 . S
H288 C277 0.929 . S
O289 Co264 2.351 . S
O289 C292 1.244 . S
O290 Co264 2.155 . S
O290 C292 1.240 . S
O291 Co264 2.096 . S
O291 C272 1.247 . S
C292 O289 1.244 . S
C292 O290 1.240 . S
H293 C267 0.931 . S
H294 C276 0.931 . S
H295 C280 0.929 . S
H296 C282 0.930 . S
Co297 N301 2.148 . S
Co297 N307 2.128 . S
Co297 N317 2.194 . S
Co297 O322 2.351 . S
Co297 O323 2.155 . S
Co297 O324 2.096 . S
C298 N301 1.301 . S
C298 N302 1.328 1_554 S
C298 H303 0.930 . S
C299 C300 1.333 1_554 S
C299 N301 1.317 . S
C299 H304 0.930 . S
C300 C299 1.333 1_556 S
C300 N302 1.350 . S
C300 H326 0.931 . S
N301 Co297 2.148 . S
N301 C298 1.301 . S
N301 C299 1.317 . S
N302 C298 1.328 1_556 S
N302 C300 1.350 . S
H303 C298 0.930 . S
H304 C299 0.930 . S
C305 O306 1.224 . S
C305 O324 1.247 . S
O306 C305 1.224 . S
N307 Co297 2.128 . S
N307 C308 1.355 . S
N307 C310 1.311 . S
C308 N307 1.355 . S
C308 C309 1.363 . S
C308 H320 0.929 . S
C309 C308 1.363 . S
C309 N311 1.375 . S
C309 H327 0.931 . S
C310 N307 1.311 . S
C310 N311 1.347 . S
C310 H321 0.929 . S
N311 C309 1.375 . S
N311 C310 1.347 . S
C312 C315 1.365 . S
C312 N317 1.328 . S
C312 H318 0.929 . S
C313 C314 1.362 . S
C313 C316 1.378 . S
C313 H328 0.929 . S
C314 C313 1.362 . S
C314 C315 1.366 . S
C315 C312 1.365 . S
C315 C314 1.366 . S
C315 H329 0.930 . S
C316 C313 1.378 . S
C316 N317 1.315 . S
C316 H319 0.930 . S
N317 Co297 2.194 . S
N317 C312 1.328 . S
N317 C316 1.315 . S
H318 C312 0.929 . S
H319 C316 0.930 . S
H320 C308 0.929 . S
H321 C310 0.929 . S
O322 Co297 2.351 . S
O322 C325 1.244 . S
O323 Co297 2.155 . S
O323 C325 1.240 . S
O324 Co297 2.096 . S
O324 C305 1.247 . S
C325 O322 1.244 . S
C325 O323 1.240 . S
H326 C300 0.931 . S
H327 C309 0.931 . S
H328 C313 0.929 . S
H329 C315 0.930 . S
Co330 N334 2.148 . S
Co330 N340 2.128 . S
Co330 N350 2.194 . S
Co330 O355 2.351 . S
Co330 O356 2.155 . S
Co330 O357 2.096 . S
C331 N334 1.301 . S
C331 N335 1.328 1_554 S
C331 H336 0.930 . S
C332 C333 1.333 1_554 S
C332 N334 1.317 . S
C332 H337 0.930 . S
C333 C332 1.333 1_556 S
C333 N335 1.350 . S
C333 H359 0.931 . S
N334 Co330 2.148 . S
N334 C331 1.301 . S
N334 C332 1.317 . S
N335 C331 1.328 1_556 S
N335 C333 1.350 . S
H336 C331 0.930 . S
H337 C332 0.930 . S
C338 O339 1.224 . S
C338 O357 1.247 . S
O339 C338 1.224 . S
N340 Co330 2.128 . S
N340 C341 1.355 . S
N340 C343 1.311 . S
C341 N340 1.355 . S
C341 C342 1.363 . S
C341 H353 0.929 . S
C342 C341 1.363 . S
C342 N344 1.375 . S
C342 H360 0.931 . S
C343 N340 1.311 . S
C343 N344 1.347 . S
C343 H354 0.929 . S
N344 C342 1.375 . S
N344 C343 1.347 . S
C345 C348 1.365 . S
C345 N350 1.328 . S
C345 H351 0.929 . S
C346 C347 1.362 . S
C346 C349 1.378 . S
C346 H361 0.929 . S
C347 C346 1.362 . S
C347 C348 1.366 . S
C348 C345 1.365 . S
C348 C347 1.366 . S
C348 H362 0.930 . S
C349 C346 1.378 . S
C349 N350 1.315 . S
C349 H352 0.930 . S
N350 Co330 2.194 . S
N350 C345 1.328 . S
N350 C349 1.315 . S
H351 C345 0.929 . S
H352 C349 0.930 . S
H353 C341 0.929 . S
H354 C343 0.929 . S
O355 Co330 2.351 . S
O355 C358 1.244 . S
O356 Co330 2.155 . S
O356 C358 1.240 . S
O357 Co330 2.096 . S
O357 C338 1.247 . S
C358 O355 1.244 . S
C358 O356 1.240 . S
H359 C333 0.931 . S
H360 C342 0.931 . S
H361 C346 0.929 . S
H362 C348 0.930 . S
Co363 N367 2.148 . S
Co363 N373 2.128 . S
Co363 N383 2.194 . S
Co363 O388 2.351 . S
Co363 O389 2.155 . S
Co363 O390 2.096 . S
C364 N367 1.301 . S
C364 N368 1.328 1_554 S
C364 H369 0.930 . S
C365 C366 1.333 1_554 S
C365 N367 1.317 . S
C365 H370 0.930 . S
C366 C365 1.333 1_556 S
C366 N368 1.350 . S
C366 H392 0.931 . S
N367 Co363 2.148 . S
N367 C364 1.301 . S
N367 C365 1.317 . S
N368 C364 1.328 1_556 S
N368 C366 1.350 . S
H369 C364 0.930 . S
H370 C365 0.930 . S
C371 O372 1.224 . S
C371 O390 1.247 . S
O372 C371 1.224 . S
N373 Co363 2.128 . S
N373 C374 1.355 . S
N373 C376 1.311 . S
C374 N373 1.355 . S
C374 C375 1.363 . S
C374 H386 0.929 . S
C375 C374 1.363 . S
C375 N377 1.375 . S
C375 H393 0.931 . S
C376 N373 1.311 . S
C376 N377 1.347 . S
C376 H387 0.929 . S
N377 C375 1.375 . S
N377 C376 1.347 . S
C378 C381 1.365 . S
C378 N383 1.328 . S
C378 H384 0.929 . S
C379 C380 1.362 . S
C379 C382 1.378 . S
C379 H394 0.929 . S
C380 C379 1.362 . S
C380 C381 1.366 . S
C381 C378 1.365 . S
C381 C380 1.366 . S
C381 H395 0.930 . S
C382 C379 1.378 . S
C382 N383 1.315 . S
C382 H385 0.930 . S
N383 Co363 2.194 . S
N383 C378 1.328 . S
N383 C382 1.315 . S
H384 C378 0.929 . S
H385 C382 0.930 . S
H386 C374 0.929 . S
H387 C376 0.929 . S
O388 Co363 2.351 . S
O388 C391 1.244 . S
O389 Co363 2.155 . S
O389 C391 1.240 . S
O390 Co363 2.096 . S
O390 C371 1.247 . S
C391 O388 1.244 . S
C391 O389 1.240 . S
H392 C366 0.931 . S
H393 C375 0.931 . S
H394 C379 0.929 . S
H395 C381 0.930 . S
Co396 N400 2.148 . S
Co396 N406 2.128 . S
Co396 N416 2.194 . S
Co396 O421 2.351 . S
Co396 O422 2.155 . S
Co396 O423 2.096 . S
C397 N400 1.301 . S
C397 N401 1.328 . S
C397 H402 0.930 . S
C398 C399 1.333 . S
C398 N400 1.317 . S
C398 H403 0.930 . S
C399 C398 1.333 . S
C399 N401 1.350 . S
C399 H425 0.931 . S
N400 Co396 2.148 . S
N400 C397 1.301 . S
N400 C398 1.317 . S
N401 C397 1.328 . S
N401 C399 1.350 . S
H402 C397 0.930 . S
H403 C398 0.930 . S
C404 O405 1.224 . S
C404 O423 1.247 . S
O405 C404 1.224 . S
N406 Co396 2.128 . S
N406 C407 1.355 . S
N406 C409 1.311 . S
C407 N406 1.355 . S
C407 C408 1.363 . S
C407 H419 0.929 . S
C408 C407 1.363 . S
C408 N410 1.375 . S
C408 H426 0.931 . S
C409 N406 1.311 . S
C409 N410 1.347 . S
C409 H420 0.929 . S
N410 C408 1.375 . S
N410 C409 1.347 . S
C411 C414 1.365 . S
C411 N416 1.328 . S
C411 H417 0.929 . S
C412 C413 1.362 . S
C412 C415 1.378 . S
C412 H427 0.929 . S
C413 C412 1.362 . S
C413 C414 1.366 . S
C414 C411 1.365 . S
C414 C413 1.366 . S
C414 H428 0.930 . S
C415 C412 1.378 . S
C415 N416 1.315 . S
C415 H418 0.930 . S
N416 Co396 2.194 . S
N416 C411 1.328 . S
N416 C415 1.315 . S
H417 C411 0.929 . S
H418 C415 0.930 . S
H419 C407 0.929 . S
H420 C409 0.929 . S
O421 Co396 2.351 . S
O421 C424 1.244 . S
O422 Co396 2.155 . S
O422 C424 1.240 . S
O423 Co396 2.096 . S
O423 C404 1.247 . S
C424 O421 1.244 . S
C424 O422 1.240 . S
H425 C399 0.931 . S
H426 C408 0.931 . S
H427 C412 0.929 . S
H428 C414 0.930 . S
Co429 N433 2.148 . S
Co429 N439 2.128 . S
Co429 N449 2.194 . S
Co429 O454 2.351 . S
Co429 O455 2.155 . S
Co429 O456 2.096 . S
C430 N433 1.301 . S
C430 N434 1.328 . S
C430 H435 0.930 . S
C431 C432 1.333 . S
C431 N433 1.317 . S
C431 H436 0.930 . S
C432 C431 1.333 . S
C432 N434 1.350 . S
C432 H458 0.931 . S
N433 Co429 2.148 . S
N433 C430 1.301 . S
N433 C431 1.317 . S
N434 C430 1.328 . S
N434 C432 1.350 . S
H435 C430 0.930 . S
H436 C431 0.930 . S
C437 O438 1.224 . S
C437 O456 1.247 . S
O438 C437 1.224 . S
N439 Co429 2.128 . S
N439 C440 1.355 . S
N439 C442 1.311 . S
C440 N439 1.355 . S
C440 C441 1.363 . S
C440 H452 0.929 . S
C441 C440 1.363 . S
C441 N443 1.375 . S
C441 H459 0.931 . S
C442 N439 1.311 . S
C442 N443 1.347 . S
C442 H453 0.929 . S
N443 C441 1.375 . S
N443 C442 1.347 . S
C444 C447 1.365 . S
C444 N449 1.328 . S
C444 H450 0.929 . S
C445 C446 1.362 . S
C445 C448 1.378 . S
C445 H460 0.929 . S
C446 C445 1.362 . S
C446 C447 1.366 . S
C447 C444 1.365 . S
C447 C446 1.366 . S
C447 H461 0.930 . S
C448 C445 1.378 . S
C448 N449 1.315 . S
C448 H451 0.930 . S
N449 Co429 2.194 . S
N449 C444 1.328 . S
N449 C448 1.315 . S
H450 C444 0.929 . S
H451 C448 0.930 . S
H452 C440 0.929 . S
H453 C442 0.929 . S
O454 Co429 2.351 . S
O454 C457 1.244 . S
O455 Co429 2.155 . S
O455 C457 1.240 . S
O456 Co429 2.096 . S
O456 C437 1.247 . S
C457 O454 1.244 . S
C457 O455 1.240 . S
H458 C432 0.931 . S
H459 C441 0.931 . S
H460 C445 0.929 . S
H461 C447 0.930 . S
Co462 N466 2.148 . S
Co462 N472 2.128 . S
Co462 N482 2.194 . S
Co462 O487 2.351 . S
Co462 O488 2.155 . S
Co462 O489 2.096 . S
C463 N466 1.301 . S
C463 N467 1.328 . S
C463 H468 0.930 . S
C464 C465 1.333 . S
C464 N466 1.317 . S
C464 H469 0.930 . S
C465 C464 1.333 . S
C465 N467 1.350 . S
C465 H491 0.931 . S
N466 Co462 2.148 . S
N466 C463 1.301 . S
N466 C464 1.317 . S
N467 C463 1.328 . S
N467 C465 1.350 . S
H468 C463 0.930 . S
H469 C464 0.930 . S
C470 O471 1.224 . S
C470 O489 1.247 . S
O471 C470 1.224 . S
N472 Co462 2.128 . S
N472 C473 1.355 . S
N472 C475 1.311 . S
C473 N472 1.355 . S
C473 C474 1.363 . S
C473 H485 0.929 . S
C474 C473 1.363 . S
C474 N476 1.375 . S
C474 H492 0.931 . S
C475 N472 1.311 . S
C475 N476 1.347 . S
C475 H486 0.929 . S
N476 C474 1.375 . S
N476 C475 1.347 . S
C477 C480 1.365 . S
C477 N482 1.328 . S
C477 H483 0.929 . S
C478 C479 1.362 . S
C478 C481 1.378 . S
C478 H493 0.929 . S
C479 C478 1.362 . S
C479 C480 1.366 . S
C480 C477 1.365 . S
C480 C479 1.366 . S
C480 H494 0.930 . S
C481 C478 1.378 . S
C481 N482 1.315 . S
C481 H484 0.930 . S
N482 Co462 2.194 . S
N482 C477 1.328 . S
N482 C481 1.315 . S
H483 C477 0.929 . S
H484 C481 0.930 . S
H485 C473 0.929 . S
H486 C475 0.929 . S
O487 Co462 2.351 . S
O487 C490 1.244 . S
O488 Co462 2.155 . S
O488 C490 1.240 . S
O489 Co462 2.096 . S
O489 C470 1.247 . S
C490 O487 1.244 . S
C490 O488 1.240 . S
H491 C465 0.931 . S
H492 C474 0.931 . S
H493 C478 0.929 . S
H494 C480 0.930 . S
Co495 N499 2.148 . S
Co495 N505 2.128 1_554 S
Co495 N515 2.194 . S
Co495 O520 2.351 . S
Co495 O521 2.155 . S
Co495 O522 2.096 . S
C496 N499 1.301 . S
C496 N500 1.328 . S
C496 H501 0.930 . S
C497 C498 1.333 . S
C497 N499 1.317 . S
C497 H502 0.930 . S
C498 C497 1.333 . S
C498 N500 1.350 . S
C498 H524 0.931 . S
N499 Co495 2.148 . S
N499 C496 1.301 . S
N499 C497 1.317 . S
N500 C496 1.328 . S
N500 C498 1.350 . S
H501 C496 0.930 . S
H502 C497 0.930 . S
C503 O504 1.224 . S
C503 O522 1.247 . S
O504 C503 1.224 . S
N505 Co495 2.128 1_556 S
N505 C506 1.355 . S
N505 C508 1.311 . S
C506 N505 1.355 . S
C506 C507 1.363 . S
C506 H518 0.929 . S
C507 C506 1.363 . S
C507 N509 1.375 . S
C507 H525 0.931 . S
C508 N505 1.311 . S
C508 N509 1.347 . S
C508 H519 0.929 . S
N509 C507 1.375 . S
N509 C508 1.347 . S
C510 C513 1.365 . S
C510 N515 1.328 . S
C510 H516 0.929 . S
C511 C512 1.362 . S
C511 C514 1.378 . S
C511 H526 0.929 . S
C512 C511 1.362 . S
C512 C513 1.366 . S
C513 C510 1.365 . S
C513 C512 1.366 . S
C513 H527 0.930 . S
C514 C511 1.378 . S
C514 N515 1.315 . S
C514 H517 0.930 . S
N515 Co495 2.194 . S
N515 C510 1.328 . S
N515 C514 1.315 . S
H516 C510 0.929 . S
H517 C514 0.930 . S
H518 C506 0.929 . S
H519 C508 0.929 . S
O520 Co495 2.351 . S
O520 C523 1.244 . S
O521 Co495 2.155 . S
O521 C523 1.240 . S
O522 Co495 2.096 . S
O522 C503 1.247 . S
C523 O520 1.244 . S
C523 O521 1.240 . S
H524 C498 0.931 . S
H525 C507 0.931 . S
H526 C511 0.929 . S
H527 C513 0.930 . S
Co528 N532 2.148 . S
Co528 N538 2.128 1_554 S
Co528 N548 2.194 . S
Co528 O553 2.351 . S
Co528 O554 2.155 . S
Co528 O555 2.096 . S
C529 N532 1.301 . S
C529 N533 1.328 . S
C529 H534 0.930 . S
C530 C531 1.333 . S
C530 N532 1.317 . S
C530 H535 0.930 . S
C531 C530 1.333 . S
C531 N533 1.350 . S
C531 H557 0.931 . S
N532 Co528 2.148 . S
N532 C529 1.301 . S
N532 C530 1.317 . S
N533 C529 1.328 . S
N533 C531 1.350 . S
H534 C529 0.930 . S
H535 C530 0.930 . S
C536 O537 1.224 . S
C536 O555 1.247 . S
O537 C536 1.224 . S
N538 Co528 2.128 1_556 S
N538 C539 1.355 . S
N538 C541 1.311 . S
C539 N538 1.355 . S
C539 C540 1.363 . S
C539 H551 0.929 . S
C540 C539 1.363 . S
C540 N542 1.375 . S
C540 H558 0.931 . S
C541 N538 1.311 . S
C541 N542 1.347 . S
C541 H552 0.929 . S
N542 C540 1.375 . S
N542 C541 1.347 . S
C543 C546 1.365 . S
C543 N548 1.328 . S
C543 H549 0.929 . S
C544 C545 1.362 . S
C544 C547 1.378 . S
C544 H559 0.929 . S
C545 C544 1.362 . S
C545 C546 1.366 . S
C546 C543 1.365 . S
C546 C545 1.366 . S
C546 H560 0.930 . S
C547 C544 1.378 . S
C547 N548 1.315 . S
C547 H550 0.930 . S
N548 Co528 2.194 . S
N548 C543 1.328 . S
N548 C547 1.315 . S
H549 C543 0.929 . S
H550 C547 0.930 . S
H551 C539 0.929 . S
H552 C541 0.929 . S
O553 Co528 2.351 . S
O553 C556 1.244 . S
O554 Co528 2.155 . S
O554 C556 1.240 . S
O555 Co528 2.096 . S
O555 C536 1.247 . S
C556 O553 1.244 . S
C556 O554 1.240 . S
H557 C531 0.931 . S
H558 C540 0.931 . S
H559 C544 0.929 . S
H560 C546 0.930 . S
Co561 N565 2.148 . S
Co561 N571 2.128 1_554 S
Co561 N581 2.194 . S
Co561 O586 2.351 . S
Co561 O587 2.155 . S
Co561 O588 2.096 . S
C562 N565 1.301 . S
C562 N566 1.328 . S
C562 H567 0.930 . S
C563 C564 1.333 . S
C563 N565 1.317 . S
C563 H568 0.930 . S
C564 C563 1.333 . S
C564 N566 1.350 . S
C564 H590 0.931 . S
N565 Co561 2.148 . S
N565 C562 1.301 . S
N565 C563 1.317 . S
N566 C562 1.328 . S
N566 C564 1.350 . S
H567 C562 0.930 . S
H568 C563 0.930 . S
C569 O570 1.224 . S
C569 O588 1.247 . S
O570 C569 1.224 . S
N571 Co561 2.128 1_556 S
N571 C572 1.355 . S
N571 C574 1.311 . S
C572 N571 1.355 . S
C572 C573 1.363 . S
C572 H584 0.929 . S
C573 C572 1.363 . S
C573 N575 1.375 . S
C573 H591 0.931 . S
C574 N571 1.311 . S
C574 N575 1.347 . S
C574 H585 0.929 . S
N575 C573 1.375 . S
N575 C574 1.347 . S
C576 C579 1.365 . S
C576 N581 1.328 . S
C576 H582 0.929 . S
C577 C578 1.362 . S
C577 C580 1.378 . S
C577 H592 0.929 . S
C578 C577 1.362 . S
C578 C579 1.366 . S
C579 C576 1.365 . S
C579 C578 1.366 . S
C579 H593 0.930 . S
C580 C577 1.378 . S
C580 N581 1.315 . S
C580 H583 0.930 . S
N581 Co561 2.194 . S
N581 C576 1.328 . S
N581 C580 1.315 . S
H582 C576 0.929 . S
H583 C580 0.930 . S
H584 C572 0.929 . S
H585 C574 0.929 . S
O586 Co561 2.351 . S
O586 C589 1.244 . S
O587 Co561 2.155 . S
O587 C589 1.240 . S
O588 Co561 2.096 . S
O588 C569 1.247 . S
C589 O586 1.244 . S
C589 O587 1.240 . S
H590 C564 0.931 . S
H591 C573 0.931 . S
H592 C577 0.929 . S
H593 C579 0.930 . S
Co594 N598 2.148 . S
Co594 N604 2.128 1_554 S
Co594 N614 2.194 . S
Co594 O619 2.351 . S
Co594 O620 2.155 . S
Co594 O621 2.096 . S
C595 N598 1.301 . S
C595 N599 1.328 . S
C595 H600 0.930 . S
C596 C597 1.333 . S
C596 N598 1.317 . S
C596 H601 0.930 . S
C597 C596 1.333 . S
C597 N599 1.350 . S
C597 H623 0.931 . S
N598 Co594 2.148 . S
N598 C595 1.301 . S
N598 C596 1.317 . S
N599 C595 1.328 . S
N599 C597 1.350 . S
H600 C595 0.930 . S
H601 C596 0.930 . S
C602 O603 1.224 . S
C602 O621 1.247 . S
O603 C602 1.224 . S
N604 Co594 2.128 1_556 S
N604 C605 1.355 . S
N604 C607 1.311 . S
C605 N604 1.355 . S
C605 C606 1.363 . S
C605 H617 0.929 . S
C606 C605 1.363 . S
C606 N608 1.375 . S
C606 H624 0.931 . S
C607 N604 1.311 . S
C607 N608 1.347 . S
C607 H618 0.929 . S
N608 C606 1.375 . S
N608 C607 1.347 . S
C609 C612 1.365 . S
C609 N614 1.328 . S
C609 H615 0.929 . S
C610 C611 1.362 . S
C610 C613 1.378 . S
C610 H625 0.929 . S
C611 C610 1.362 . S
C611 C612 1.366 . S
C612 C609 1.365 . S
C612 C611 1.366 . S
C612 H626 0.930 . S
C613 C610 1.378 . S
C613 N614 1.315 . S
C613 H616 0.930 . S
N614 Co594 2.194 . S
N614 C609 1.328 . S
N614 C613 1.315 . S
H615 C609 0.929 . S
H616 C613 0.930 . S
H617 C605 0.929 . S
H618 C607 0.929 . S
O619 Co594 2.351 . S
O619 C622 1.244 . S
O620 Co594 2.155 . S
O620 C622 1.240 . S
O621 Co594 2.096 . S
O621 C602 1.247 . S
C622 O619 1.244 . S
C622 O620 1.240 . S
H623 C597 0.931 . S
H624 C606 0.931 . S
H625 C610 0.929 . S
H626 C612 0.930 . S
Co627 N631 2.148 . S
Co627 N637 2.128 1_554 S
Co627 N647 2.194 . S
Co627 O652 2.351 . S
Co627 O653 2.155 . S
Co627 O654 2.096 . S
C628 N631 1.301 . S
C628 N632 1.328 . S
C628 H633 0.930 . S
C629 C630 1.333 . S
C629 N631 1.317 . S
C629 H634 0.930 . S
C630 C629 1.333 . S
C630 N632 1.350 . S
C630 H656 0.931 . S
N631 Co627 2.148 . S
N631 C628 1.301 . S
N631 C629 1.317 . S
N632 C628 1.328 . S
N632 C630 1.350 . S
H633 C628 0.930 . S
H634 C629 0.930 . S
C635 O636 1.224 . S
C635 O654 1.247 . S
O636 C635 1.224 . S
N637 Co627 2.128 1_556 S
N637 C638 1.355 . S
N637 C640 1.311 . S
C638 N637 1.355 . S
C638 C639 1.363 . S
C638 H650 0.929 . S
C639 C638 1.363 . S
C639 N641 1.375 . S
C639 H657 0.931 . S
C640 N637 1.311 . S
C640 N641 1.347 . S
C640 H651 0.929 . S
N641 C639 1.375 . S
N641 C640 1.347 . S
C642 C645 1.365 . S
C642 N647 1.328 . S
C642 H648 0.929 . S
C643 C644 1.362 . S
C643 C646 1.378 . S
C643 H658 0.929 . S
C644 C643 1.362 . S
C644 C645 1.366 . S
C645 C642 1.365 . S
C645 C644 1.366 . S
C645 H659 0.930 . S
C646 C643 1.378 . S
C646 N647 1.315 . S
C646 H649 0.930 . S
N647 Co627 2.194 . S
N647 C642 1.328 . S
N647 C646 1.315 . S
H648 C642 0.929 . S
H649 C646 0.930 . S
H650 C638 0.929 . S
H651 C640 0.929 . S
O652 Co627 2.351 . S
O652 C655 1.244 . S
O653 Co627 2.155 . S
O653 C655 1.240 . S
O654 Co627 2.096 . S
O654 C635 1.247 . S
C655 O652 1.244 . S
C655 O653 1.240 . S
H656 C630 0.931 . S
H657 C639 0.931 . S
H658 C643 0.929 . S
H659 C645 0.930 . S
Co660 N664 2.148 . S
Co660 N670 2.128 1_554 S
Co660 N680 2.194 . S
Co660 O685 2.351 . S
Co660 O686 2.155 . S
Co660 O687 2.096 . S
C661 N664 1.301 . S
C661 N665 1.328 . S
C661 H666 0.930 . S
C662 C663 1.333 . S
C662 N664 1.317 . S
C662 H667 0.930 . S
C663 C662 1.333 . S
C663 N665 1.350 . S
C663 H689 0.931 . S
N664 Co660 2.148 . S
N664 C661 1.301 . S
N664 C662 1.317 . S
N665 C661 1.328 . S
N665 C663 1.350 . S
H666 C661 0.930 . S
H667 C662 0.930 . S
C668 O669 1.224 . S
C668 O687 1.247 . S
O669 C668 1.224 . S
N670 Co660 2.128 1_556 S
N670 C671 1.355 . S
N670 C673 1.311 . S
C671 N670 1.355 . S
C671 C672 1.363 . S
C671 H683 0.929 . S
C672 C671 1.363 . S
C672 N674 1.375 . S
C672 H690 0.931 . S
C673 N670 1.311 . S
C673 N674 1.347 . S
C673 H684 0.929 . S
N674 C672 1.375 . S
N674 C673 1.347 . S
C675 C678 1.365 . S
C675 N680 1.328 . S
C675 H681 0.929 . S
C676 C677 1.362 . S
C676 C679 1.378 . S
C676 H691 0.929 . S
C677 C676 1.362 . S
C677 C678 1.366 . S
C678 C675 1.365 . S
C678 C677 1.366 . S
C678 H692 0.930 . S
C679 C676 1.378 . S
C679 N680 1.315 . S
C679 H682 0.930 . S
N680 Co660 2.194 . S
N680 C675 1.328 . S
N680 C679 1.315 . S
H681 C675 0.929 . S
H682 C679 0.930 . S
H683 C671 0.929 . S
H684 C673 0.929 . S
O685 Co660 2.351 . S
O685 C688 1.244 . S
O686 Co660 2.155 . S
O686 C688 1.240 . S
O687 Co660 2.096 . S
O687 C668 1.247 . S
C688 O685 1.244 . S
C688 O686 1.240 . S
H689 C663 0.931 . S
H690 C672 0.931 . S
H691 C676 0.929 . S
H692 C678 0.930 . S
Co693 N697 2.148 . S
Co693 N703 2.128 . S
Co693 N713 2.194 . S
Co693 O718 2.351 . S
Co693 O719 2.155 . S
Co693 O720 2.096 . S
C694 N697 1.301 . S
C694 N698 1.328 . S
C694 H699 0.930 . S
C695 C696 1.333 . S
C695 N697 1.317 . S
C695 H700 0.930 . S
C696 C695 1.333 . S
C696 N698 1.350 . S
C696 H722 0.931 . S
N697 Co693 2.148 . S
N697 C694 1.301 . S
N697 C695 1.317 . S
N698 C694 1.328 . S
N698 C696 1.350 . S
H699 C694 0.930 . S
H700 C695 0.930 . S
C701 O702 1.224 . S
C701 O720 1.247 . S
O702 C701 1.224 . S
N703 Co693 2.128 . S
N703 C704 1.355 . S
N703 C706 1.311 . S
C704 N703 1.355 . S
C704 C705 1.363 . S
C704 H716 0.929 . S
C705 C704 1.363 . S
C705 N707 1.375 . S
C705 H723 0.931 . S
C706 N703 1.311 . S
C706 N707 1.347 . S
C706 H717 0.929 . S
N707 C705 1.375 . S
N707 C706 1.347 . S
C708 C711 1.365 . S
C708 N713 1.328 . S
C708 H714 0.929 . S
C709 C710 1.362 . S
C709 C712 1.378 . S
C709 H724 0.929 . S
C710 C709 1.362 . S
C710 C711 1.366 . S
C711 C708 1.365 . S
C711 C710 1.366 . S
C711 H725 0.930 . S
C712 C709 1.378 . S
C712 N713 1.315 . S
C712 H715 0.930 . S
N713 Co693 2.194 . S
N713 C708 1.328 . S
N713 C712 1.315 . S
H714 C708 0.929 . S
H715 C712 0.930 . S
H716 C704 0.929 . S
H717 C706 0.929 . S
O718 Co693 2.351 . S
O718 C721 1.244 . S
O719 Co693 2.155 . S
O719 C721 1.240 . S
O720 Co693 2.096 . S
O720 C701 1.247 . S
C721 O718 1.244 . S
C721 O719 1.240 . S
H722 C696 0.931 . S
H723 C705 0.931 . S
H724 C709 0.929 . S
H725 C711 0.930 . S
Co726 N730 2.148 . S
Co726 N736 2.128 . S
Co726 N746 2.194 . S
Co726 O751 2.351 . S
Co726 O752 2.155 . S
Co726 O753 2.096 . S
C727 N730 1.301 . S
C727 N731 1.328 . S
C727 H732 0.930 . S
C728 C729 1.333 . S
C728 N730 1.317 . S
C728 H733 0.930 . S
C729 C728 1.333 . S
C729 N731 1.350 . S
C729 H755 0.931 . S
N730 Co726 2.148 . S
N730 C727 1.301 . S
N730 C728 1.317 . S
N731 C727 1.328 . S
N731 C729 1.350 . S
H732 C727 0.930 . S
H733 C728 0.930 . S
C734 O735 1.224 . S
C734 O753 1.247 . S
O735 C734 1.224 . S
N736 Co726 2.128 . S
N736 C737 1.355 . S
N736 C739 1.311 . S
C737 N736 1.355 . S
C737 C738 1.363 . S
C737 H749 0.929 . S
C738 C737 1.363 . S
C738 N740 1.375 . S
C738 H756 0.931 . S
C739 N736 1.311 . S
C739 N740 1.347 . S
C739 H750 0.929 . S
N740 C738 1.375 . S
N740 C739 1.347 . S
C741 C744 1.365 . S
C741 N746 1.328 . S
C741 H747 0.929 . S
C742 C743 1.362 . S
C742 C745 1.378 . S
C742 H757 0.929 . S
C743 C742 1.362 . S
C743 C744 1.366 . S
C744 C741 1.365 . S
C744 C743 1.366 . S
C744 H758 0.930 . S
C745 C742 1.378 . S
C745 N746 1.315 . S
C745 H748 0.930 . S
N746 Co726 2.194 . S
N746 C741 1.328 . S
N746 C745 1.315 . S
H747 C741 0.929 . S
H748 C745 0.930 . S
H749 C737 0.929 . S
H750 C739 0.929 . S
O751 Co726 2.351 . S
O751 C754 1.244 . S
O752 Co726 2.155 . S
O752 C754 1.240 . S
O753 Co726 2.096 . S
O753 C734 1.247 . S
C754 O751 1.244 . S
C754 O752 1.240 . S
H755 C729 0.931 . S
H756 C738 0.931 . S
H757 C742 0.929 . S
H758 C744 0.930 . S
Co759 N763 2.148 . S
Co759 N769 2.128 . S
Co759 N779 2.194 . S
Co759 O784 2.351 . S
Co759 O785 2.155 . S
Co759 O786 2.096 . S
C760 N763 1.301 . S
C760 N764 1.328 . S
C760 H765 0.930 . S
C761 C762 1.333 . S
C761 N763 1.317 . S
C761 H766 0.930 . S
C762 C761 1.333 . S
C762 N764 1.350 . S
C762 H788 0.931 . S
N763 Co759 2.148 . S
N763 C760 1.301 . S
N763 C761 1.317 . S
N764 C760 1.328 . S
N764 C762 1.350 . S
H765 C760 0.930 . S
H766 C761 0.930 . S
C767 O768 1.224 . S
C767 O786 1.247 . S
O768 C767 1.224 . S
N769 Co759 2.128 . S
N769 C770 1.355 . S
N769 C772 1.311 . S
C770 N769 1.355 . S
C770 C771 1.363 . S
C770 H782 0.929 . S
C771 C770 1.363 . S
C771 N773 1.375 . S
C771 H789 0.931 . S
C772 N769 1.311 . S
C772 N773 1.347 . S
C772 H783 0.929 . S
N773 C771 1.375 . S
N773 C772 1.347 . S
C774 C777 1.365 . S
C774 N779 1.328 . S
C774 H780 0.929 . S
C775 C776 1.362 . S
C775 C778 1.378 . S
C775 H790 0.929 . S
C776 C775 1.362 . S
C776 C777 1.366 . S
C777 C774 1.365 . S
C777 C776 1.366 . S
C777 H791 0.930 . S
C778 C775 1.378 . S
C778 N779 1.315 . S
C778 H781 0.930 . S
N779 Co759 2.194 . S
N779 C774 1.328 . S
N779 C778 1.315 . S
H780 C774 0.929 . S
H781 C778 0.930 . S
H782 C770 0.929 . S
H783 C772 0.929 . S
O784 Co759 2.351 . S
O784 C787 1.244 . S
O785 Co759 2.155 . S
O785 C787 1.240 . S
O786 Co759 2.096 . S
O786 C767 1.247 . S
C787 O784 1.244 . S
C787 O785 1.240 . S
H788 C762 0.931 . S
H789 C771 0.931 . S
H790 C775 0.929 . S
H791 C777 0.930 . S
Co792 N796 2.148 . S
Co792 N802 2.128 1_556 S
Co792 N812 2.194 . S
Co792 O817 2.351 . S
Co792 O818 2.155 . S
Co792 O819 2.096 . S
C793 N796 1.301 . S
C793 N797 1.328 . S
C793 H798 0.930 . S
C794 C795 1.333 . S
C794 N796 1.317 . S
C794 H799 0.930 . S
C795 C794 1.333 . S
C795 N797 1.350 . S
C795 H821 0.931 . S
N796 Co792 2.148 . S
N796 C793 1.301 . S
N796 C794 1.317 . S
N797 C793 1.328 . S
N797 C795 1.350 . S
H798 C793 0.930 . S
H799 C794 0.930 . S
C800 O801 1.224 . S
C800 O819 1.247 . S
O801 C800 1.224 . S
N802 Co792 2.128 1_554 S
N802 C803 1.355 . S
N802 C805 1.311 . S
C803 N802 1.355 . S
C803 C804 1.363 . S
C803 H815 0.929 . S
C804 C803 1.363 . S
C804 N806 1.375 . S
C804 H822 0.931 . S
C805 N802 1.311 . S
C805 N806 1.347 . S
C805 H816 0.929 . S
N806 C804 1.375 . S
N806 C805 1.347 . S
C807 C810 1.365 . S
C807 N812 1.328 . S
C807 H813 0.929 . S
C808 C809 1.362 . S
C808 C811 1.378 . S
C808 H823 0.929 . S
C809 C808 1.362 . S
C809 C810 1.366 . S
C810 C807 1.365 . S
C810 C809 1.366 . S
C810 H824 0.930 . S
C811 C808 1.378 . S
C811 N812 1.315 . S
C811 H814 0.930 . S
N812 Co792 2.194 . S
N812 C807 1.328 . S
N812 C811 1.315 . S
H813 C807 0.929 . S
H814 C811 0.930 . S
H815 C803 0.929 . S
H816 C805 0.929 . S
O817 Co792 2.351 . S
O817 C820 1.244 . S
O818 Co792 2.155 . S
O818 C820 1.240 . S
O819 Co792 2.096 . S
O819 C800 1.247 . S
C820 O817 1.244 . S
C820 O818 1.240 . S
H821 C795 0.931 . S
H822 C804 0.931 . S
H823 C808 0.929 . S
H824 C810 0.930 . S
Co825 N829 2.148 . S
Co825 N835 2.128 1_556 S
Co825 N845 2.194 . S
Co825 O850 2.351 . S
Co825 O851 2.155 . S
Co825 O852 2.096 . S
C826 N829 1.301 . S
C826 N830 1.328 . S
C826 H831 0.930 . S
C827 C828 1.333 . S
C827 N829 1.317 . S
C827 H832 0.930 . S
C828 C827 1.333 . S
C828 N830 1.350 . S
C828 H854 0.931 . S
N829 Co825 2.148 . S
N829 C826 1.301 . S
N829 C827 1.317 . S
N830 C826 1.328 . S
N830 C828 1.350 . S
H831 C826 0.930 . S
H832 C827 0.930 . S
C833 O834 1.224 . S
C833 O852 1.247 . S
O834 C833 1.224 . S
N835 Co825 2.128 1_554 S
N835 C836 1.355 . S
N835 C838 1.311 . S
C836 N835 1.355 . S
C836 C837 1.363 . S
C836 H848 0.929 . S
C837 C836 1.363 . S
C837 N839 1.375 . S
C837 H855 0.931 . S
C838 N835 1.311 . S
C838 N839 1.347 . S
C838 H849 0.929 . S
N839 C837 1.375 . S
N839 C838 1.347 . S
C840 C843 1.365 . S
C840 N845 1.328 . S
C840 H846 0.929 . S
C841 C842 1.362 . S
C841 C844 1.378 . S
C841 H856 0.929 . S
C842 C841 1.362 . S
C842 C843 1.366 . S
C843 C840 1.365 . S
C843 C842 1.366 . S
C843 H857 0.930 . S
C844 C841 1.378 . S
C844 N845 1.315 . S
C844 H847 0.930 . S
N845 Co825 2.194 . S
N845 C840 1.328 . S
N845 C844 1.315 . S
H846 C840 0.929 . S
H847 C844 0.930 . S
H848 C836 0.929 . S
H849 C838 0.929 . S
O850 Co825 2.351 . S
O850 C853 1.244 . S
O851 Co825 2.155 . S
O851 C853 1.240 . S
O852 Co825 2.096 . S
O852 C833 1.247 . S
C853 O850 1.244 . S
C853 O851 1.240 . S
H854 C828 0.931 . S
H855 C837 0.931 . S
H856 C841 0.929 . S
H857 C843 0.930 . S
Co858 N862 2.148 . S
Co858 N868 2.128 1_556 S
Co858 N878 2.194 . S
Co858 O883 2.351 . S
Co858 O884 2.155 . S
Co858 O885 2.096 . S
C859 N862 1.301 . S
C859 N863 1.328 . S
C859 H864 0.930 . S
C860 C861 1.333 . S
C860 N862 1.317 . S
C860 H865 0.930 . S
C861 C860 1.333 . S
C861 N863 1.350 . S
C861 H887 0.931 . S
N862 Co858 2.148 . S
N862 C859 1.301 . S
N862 C860 1.317 . S
N863 C859 1.328 . S
N863 C861 1.350 . S
H864 C859 0.930 . S
H865 C860 0.930 . S
C866 O867 1.224 . S
C866 O885 1.247 . S
O867 C866 1.224 . S
N868 Co858 2.128 1_554 S
N868 C869 1.355 . S
N868 C871 1.311 . S
C869 N868 1.355 . S
C869 C870 1.363 . S
C869 H881 0.929 . S
C870 C869 1.363 . S
C870 N872 1.375 . S
C870 H888 0.931 . S
C871 N868 1.311 . S
C871 N872 1.347 . S
C871 H882 0.929 . S
N872 C870 1.375 . S
N872 C871 1.347 . S
C873 C876 1.365 . S
C873 N878 1.328 . S
C873 H879 0.929 . S
C874 C875 1.362 . S
C874 C877 1.378 . S
C874 H889 0.929 . S
C875 C874 1.362 . S
C875 C876 1.366 . S
C876 C873 1.365 . S
C876 C875 1.366 . S
C876 H890 0.930 . S
C877 C874 1.378 . S
C877 N878 1.315 . S
C877 H880 0.930 . S
N878 Co858 2.194 . S
N878 C873 1.328 . S
N878 C877 1.315 . S
H879 C873 0.929 . S
H880 C877 0.930 . S
H881 C869 0.929 . S
H882 C871 0.929 . S
O883 Co858 2.351 . S
O883 C886 1.244 . S
O884 Co858 2.155 . S
O884 C886 1.240 . S
O885 Co858 2.096 . S
O885 C866 1.247 . S
C886 O883 1.244 . S
C886 O884 1.240 . S
H887 C861 0.931 . S
H888 C870 0.931 . S
H889 C874 0.929 . S
H890 C876 0.930 . S
Co891 N895 2.148 . S
Co891 N901 2.128 . S
Co891 N911 2.194 . S
Co891 O916 2.351 . S
Co891 O917 2.155 . S
Co891 O918 2.096 . S
C892 N895 1.301 . S
C892 N896 1.328 . S
C892 H897 0.930 . S
C893 C894 1.333 . S
C893 N895 1.317 . S
C893 H898 0.930 . S
C894 C893 1.333 . S
C894 N896 1.350 . S
C894 H920 0.931 . S
N895 Co891 2.148 . S
N895 C892 1.301 . S
N895 C893 1.317 . S
N896 C892 1.328 . S
N896 C894 1.350 . S
H897 C892 0.930 . S
H898 C893 0.930 . S
C899 O900 1.224 . S
C899 O918 1.247 . S
O900 C899 1.224 . S
N901 Co891 2.128 . S
N901 C902 1.355 . S
N901 C904 1.311 . S
C902 N901 1.355 . S
C902 C903 1.363 . S
C902 H914 0.929 . S
C903 C902 1.363 . S
C903 N905 1.375 . S
C903 H921 0.931 . S
C904 N901 1.311 . S
C904 N905 1.347 . S
C904 H915 0.929 . S
N905 C903 1.375 . S
N905 C904 1.347 . S
C906 C909 1.365 . S
C906 N911 1.328 . S
C906 H912 0.929 . S
C907 C908 1.362 . S
C907 C910 1.378 . S
C907 H922 0.929 . S
C908 C907 1.362 . S
C908 C909 1.366 . S
C909 C906 1.365 . S
C909 C908 1.366 . S
C909 H923 0.930 . S
C910 C907 1.378 . S
C910 N911 1.315 . S
C910 H913 0.930 . S
N911 Co891 2.194 . S
N911 C906 1.328 . S
N911 C910 1.315 . S
H912 C906 0.929 . S
H913 C910 0.930 . S
H914 C902 0.929 . S
H915 C904 0.929 . S
O916 Co891 2.351 . S
O916 C919 1.244 . S
O917 Co891 2.155 . S
O917 C919 1.240 . S
O918 Co891 2.096 . S
O918 C899 1.247 . S
C919 O916 1.244 . S
C919 O917 1.240 . S
H920 C894 0.931 . S
H921 C903 0.931 . S
H922 C907 0.929 . S
H923 C909 0.930 . S
Co924 N928 2.148 . S
Co924 N934 2.128 . S
Co924 N944 2.194 . S
Co924 O949 2.351 . S
Co924 O950 2.155 . S
Co924 O951 2.096 . S
C925 N928 1.301 . S
C925 N929 1.328 . S
C925 H930 0.930 . S
C926 C927 1.333 . S
C926 N928 1.317 . S
C926 H931 0.930 . S
C927 C926 1.333 . S
C927 N929 1.350 . S
C927 H953 0.931 . S
N928 Co924 2.148 . S
N928 C925 1.301 . S
N928 C926 1.317 . S
N929 C925 1.328 . S
N929 C927 1.350 . S
H930 C925 0.930 . S
H931 C926 0.930 . S
C932 O933 1.224 . S
C932 O951 1.247 . S
O933 C932 1.224 . S
N934 Co924 2.128 . S
N934 C935 1.355 . S
N934 C937 1.311 . S
C935 N934 1.355 . S
C935 C936 1.363 . S
C935 H947 0.929 . S
C936 C935 1.363 . S
C936 N938 1.375 . S
C936 H954 0.931 . S
C937 N934 1.311 . S
C937 N938 1.347 . S
C937 H948 0.929 . S
N938 C936 1.375 . S
N938 C937 1.347 . S
C939 C942 1.365 . S
C939 N944 1.328 . S
C939 H945 0.929 . S
C940 C941 1.362 . S
C940 C943 1.378 . S
C940 H955 0.929 . S
C941 C940 1.362 . S
C941 C942 1.366 . S
C942 C939 1.365 . S
C942 C941 1.366 . S
C942 H956 0.930 . S
C943 C940 1.378 . S
C943 N944 1.315 . S
C943 H946 0.930 . S
N944 Co924 2.194 . S
N944 C939 1.328 . S
N944 C943 1.315 . S
H945 C939 0.929 . S
H946 C943 0.930 . S
H947 C935 0.929 . S
H948 C937 0.929 . S
O949 Co924 2.351 . S
O949 C952 1.244 . S
O950 Co924 2.155 . S
O950 C952 1.240 . S
O951 Co924 2.096 . S
O951 C932 1.247 . S
C952 O949 1.244 . S
C952 O950 1.240 . S
H953 C927 0.931 . S
H954 C936 0.931 . S
H955 C940 0.929 . S
H956 C942 0.930 . S
Co957 N961 2.148 . S
Co957 N967 2.128 . S
Co957 N977 2.194 . S
Co957 O982 2.351 . S
Co957 O983 2.155 . S
Co957 O984 2.096 . S
C958 N961 1.301 . S
C958 N962 1.328 . S
C958 H963 0.930 . S
C959 C960 1.333 . S
C959 N961 1.317 . S
C959 H964 0.930 . S
C960 C959 1.333 . S
C960 N962 1.350 . S
C960 H986 0.931 . S
N961 Co957 2.148 . S
N961 C958 1.301 . S
N961 C959 1.317 . S
N962 C958 1.328 . S
N962 C960 1.350 . S
H963 C958 0.930 . S
H964 C959 0.930 . S
C965 O966 1.224 . S
C965 O984 1.247 . S
O966 C965 1.224 . S
N967 Co957 2.128 . S
N967 C968 1.355 . S
N967 C970 1.311 . S
C968 N967 1.355 . S
C968 C969 1.363 . S
C968 H980 0.929 . S
C969 C968 1.363 . S
C969 N971 1.375 . S
C969 H987 0.931 . S
C970 N967 1.311 . S
C970 N971 1.347 . S
C970 H981 0.929 . S
N971 C969 1.375 . S
N971 C970 1.347 . S
C972 C975 1.365 . S
C972 N977 1.328 . S
C972 H978 0.929 . S
C973 C974 1.362 . S
C973 C976 1.378 . S
C973 H988 0.929 . S
C974 C973 1.362 . S
C974 C975 1.366 . S
C975 C972 1.365 . S
C975 C974 1.366 . S
C975 H989 0.930 . S
C976 C973 1.378 . S
C976 N977 1.315 . S
C976 H979 0.930 . S
N977 Co957 2.194 . S
N977 C972 1.328 . S
N977 C976 1.315 . S
H978 C972 0.929 . S
H979 C976 0.930 . S
H980 C968 0.929 . S
H981 C970 0.929 . S
O982 Co957 2.351 . S
O982 C985 1.244 . S
O983 Co957 2.155 . S
O983 C985 1.240 . S
O984 Co957 2.096 . S
O984 C965 1.247 . S
C985 O982 1.244 . S
C985 O983 1.240 . S
H986 C960 0.931 . S
H987 C969 0.931 . S
H988 C973 0.929 . S
H989 C975 0.930 . S
Co990 N994 2.148 . S
Co990 N1000 2.128 . S
Co990 N1010 2.194 . S
Co990 O1015 2.351 . S
Co990 O1016 2.155 . S
Co990 O1017 2.096 . S
C991 N994 1.301 . S
C991 N995 1.328 . S
C991 H996 0.930 . S
C992 C993 1.333 . S
C992 N994 1.317 . S
C992 H997 0.930 . S
C993 C992 1.333 . S
C993 N995 1.350 . S
C993 H1019 0.931 . S
N994 Co990 2.148 . S
N994 C991 1.301 . S
N994 C992 1.317 . S
N995 C991 1.328 . S
N995 C993 1.350 . S
H996 C991 0.930 . S
H997 C992 0.930 . S
C998 O999 1.224 . S
C998 O1017 1.247 . S
O999 C998 1.224 . S
N1000 Co990 2.128 . S
N1000 C1001 1.355 . S
N1000 C1003 1.311 . S
C1001 N1000 1.355 . S
C1001 C1002 1.363 . S
C1001 H1013 0.929 . S
C1002 C1001 1.363 . S
C1002 N1004 1.375 . S
C1002 H1020 0.931 . S
C1003 N1000 1.311 . S
C1003 N1004 1.347 . S
C1003 H1014 0.929 . S
N1004 C1002 1.375 . S
N1004 C1003 1.347 . S
C1005 C1008 1.365 . S
C1005 N1010 1.328 . S
C1005 H1011 0.929 . S
C1006 C1007 1.362 . S
C1006 C1009 1.378 . S
C1006 H1021 0.929 . S
C1007 C1006 1.362 . S
C1007 C1008 1.366 . S
C1008 C1005 1.365 . S
C1008 C1007 1.366 . S
C1008 H1022 0.930 . S
C1009 C1006 1.378 . S
C1009 N1010 1.315 . S
C1009 H1012 0.930 . S
N1010 Co990 2.194 . S
N1010 C1005 1.328 . S
N1010 C1009 1.315 . S
H1011 C1005 0.929 . S
H1012 C1009 0.930 . S
H1013 C1001 0.929 . S
H1014 C1003 0.929 . S
O1015 Co990 2.351 . S
O1015 C1018 1.244 . S
O1016 Co990 2.155 . S
O1016 C1018 1.240 . S
O1017 Co990 2.096 . S
O1017 C998 1.247 . S
C1018 O1015 1.244 . S
C1018 O1016 1.240 . S
H1019 C993 0.931 . S
H1020 C1002 0.931 . S
H1021 C1006 0.929 . S
H1022 C1008 0.930 . S
Co1023 N1027 2.148 . S
Co1023 N1033 2.128 . S
Co1023 N1043 2.194 . S
Co1023 O1048 2.351 . S
Co1023 O1049 2.155 . S
Co1023 O1050 2.096 . S
C1024 N1027 1.301 . S
C1024 N1028 1.328 . S
C1024 H1029 0.930 . S
C1025 C1026 1.333 . S
C1025 N1027 1.317 . S
C1025 H1030 0.930 . S
C1026 C1025 1.333 . S
C1026 N1028 1.350 . S
C1026 H1052 0.931 . S
N1027 Co1023 2.148 . S
N1027 C1024 1.301 . S
N1027 C1025 1.317 . S
N1028 C1024 1.328 . S
N1028 C1026 1.350 . S
H1029 C1024 0.930 . S
H1030 C1025 0.930 . S
C1031 O1032 1.224 . S
C1031 O1050 1.247 . S
O1032 C1031 1.224 . S
N1033 Co1023 2.128 . S
N1033 C1034 1.355 . S
N1033 C1036 1.311 . S
C1034 N1033 1.355 . S
C1034 C1035 1.363 . S
C1034 H1046 0.929 . S
C1035 C1034 1.363 . S
C1035 N1037 1.375 . S
C1035 H1053 0.931 . S
C1036 N1033 1.311 . S
C1036 N1037 1.347 . S
C1036 H1047 0.929 . S
N1037 C1035 1.375 . S
N1037 C1036 1.347 . S
C1038 C1041 1.365 . S
C1038 N1043 1.328 . S
C1038 H1044 0.929 . S
C1039 C1040 1.362 . S
C1039 C1042 1.378 . S
C1039 H1054 0.929 . S
C1040 C1039 1.362 . S
C1040 C1041 1.366 . S
C1041 C1038 1.365 . S
C1041 C1040 1.366 . S
C1041 H1055 0.930 . S
C1042 C1039 1.378 . S
C1042 N1043 1.315 . S
C1042 H1045 0.930 . S
N1043 Co1023 2.194 . S
N1043 C1038 1.328 . S
N1043 C1042 1.315 . S
H1044 C1038 0.929 . S
H1045 C1042 0.930 . S
H1046 C1034 0.929 . S
H1047 C1036 0.929 . S
O1048 Co1023 2.351 . S
O1048 C1051 1.244 . S
O1049 Co1023 2.155 . S
O1049 C1051 1.240 . S
O1050 Co1023 2.096 . S
O1050 C1031 1.247 . S
C1051 O1048 1.244 . S
C1051 O1049 1.240 . S
H1052 C1026 0.931 . S
H1053 C1035 0.931 . S
H1054 C1039 0.929 . S
H1055 C1041 0.930 . S
Co1056 N1060 2.148 . S
Co1056 N1066 2.128 . S
Co1056 N1076 2.194 . S
Co1056 O1081 2.351 . S
Co1056 O1082 2.155 . S
Co1056 O1083 2.096 . S
C1057 N1060 1.301 . S
C1057 N1061 1.328 . S
C1057 H1062 0.930 . S
C1058 C1059 1.333 . S
C1058 N1060 1.317 . S
C1058 H1063 0.930 . S
C1059 C1058 1.333 . S
C1059 N1061 1.350 . S
C1059 H1085 0.931 . S
N1060 Co1056 2.148 . S
N1060 C1057 1.301 . S
N1060 C1058 1.317 . S
N1061 C1057 1.328 . S
N1061 C1059 1.350 . S
H1062 C1057 0.930 . S
H1063 C1058 0.930 . S
C1064 O1065 1.224 . S
C1064 O1083 1.247 . S
O1065 C1064 1.224 . S
N1066 Co1056 2.128 . S
N1066 C1067 1.355 . S
N1066 C1069 1.311 . S
C1067 N1066 1.355 . S
C1067 C1068 1.363 . S
C1067 H1079 0.929 . S
C1068 C1067 1.363 . S
C1068 N1070 1.375 . S
C1068 H1086 0.931 . S
C1069 N1066 1.311 . S
C1069 N1070 1.347 . S
C1069 H1080 0.929 . S
N1070 C1068 1.375 . S
N1070 C1069 1.347 . S
C1071 C1074 1.365 . S
C1071 N1076 1.328 . S
C1071 H1077 0.929 . S
C1072 C1073 1.362 . S
C1072 C1075 1.378 . S
C1072 H1087 0.929 . S
C1073 C1072 1.362 . S
C1073 C1074 1.366 . S
C1074 C1071 1.365 . S
C1074 C1073 1.366 . S
C1074 H1088 0.930 . S
C1075 C1072 1.378 . S
C1075 N1076 1.315 . S
C1075 H1078 0.930 . S
N1076 Co1056 2.194 . S
N1076 C1071 1.328 . S
N1076 C1075 1.315 . S
H1077 C1071 0.929 . S
H1078 C1075 0.930 . S
H1079 C1067 0.929 . S
H1080 C1069 0.929 . S
O1081 Co1056 2.351 . S
O1081 C1084 1.244 . S
O1082 Co1056 2.155 . S
O1082 C1084 1.240 . S
O1083 Co1056 2.096 . S
O1083 C1064 1.247 . S
C1084 O1081 1.244 . S
C1084 O1082 1.240 . S
H1085 C1059 0.931 . S
H1086 C1068 0.931 . S
H1087 C1072 0.929 . S
H1088 C1074 0.930 . S
Co1089 N1093 2.148 . S
Co1089 N1099 2.128 1_556 S
Co1089 N1109 2.194 . S
Co1089 O1114 2.351 . S
Co1089 O1115 2.155 . S
Co1089 O1116 2.096 . S
C1090 N1093 1.301 . S
C1090 N1094 1.328 . S
C1090 H1095 0.930 . S
C1091 C1092 1.333 . S
C1091 N1093 1.317 . S
C1091 H1096 0.930 . S
C1092 C1091 1.333 . S
C1092 N1094 1.350 . S
C1092 H1118 0.931 . S
N1093 Co1089 2.148 . S
N1093 C1090 1.301 . S
N1093 C1091 1.317 . S
N1094 C1090 1.328 . S
N1094 C1092 1.350 . S
H1095 C1090 0.930 . S
H1096 C1091 0.930 . S
C1097 O1098 1.224 . S
C1097 O1116 1.247 . S
O1098 C1097 1.224 . S
N1099 Co1089 2.128 1_554 S
N1099 C1100 1.355 . S
N1099 C1102 1.311 . S
C1100 N1099 1.355 . S
C1100 C1101 1.363 . S
C1100 H1112 0.929 . S
C1101 C1100 1.363 . S
C1101 N1103 1.375 . S
C1101 H1119 0.931 . S
C1102 N1099 1.311 . S
C1102 N1103 1.347 . S
C1102 H1113 0.929 . S
N1103 C1101 1.375 . S
N1103 C1102 1.347 . S
C1104 C1107 1.365 . S
C1104 N1109 1.328 . S
C1104 H1110 0.929 . S
C1105 C1106 1.362 . S
C1105 C1108 1.378 . S
C1105 H1120 0.929 . S
C1106 C1105 1.362 . S
C1106 C1107 1.366 . S
C1107 C1104 1.365 . S
C1107 C1106 1.366 . S
C1107 H1121 0.930 . S
C1108 C1105 1.378 . S
C1108 N1109 1.315 . S
C1108 H1111 0.930 . S
N1109 Co1089 2.194 . S
N1109 C1104 1.328 . S
N1109 C1108 1.315 . S
H1110 C1104 0.929 . S
H1111 C1108 0.930 . S
H1112 C1100 0.929 . S
H1113 C1102 0.929 . S
O1114 Co1089 2.351 . S
O1114 C1117 1.244 . S
O1115 Co1089 2.155 . S
O1115 C1117 1.240 . S
O1116 Co1089 2.096 . S
O1116 C1097 1.247 . S
C1117 O1114 1.244 . S
C1117 O1115 1.240 . S
H1118 C1092 0.931 . S
H1119 C1101 0.931 . S
H1120 C1105 0.929 . S
H1121 C1107 0.930 . S
Co1122 N1126 2.148 . S
Co1122 N1132 2.128 1_556 S
Co1122 N1142 2.194 . S
Co1122 O1147 2.351 . S
Co1122 O1148 2.155 . S
Co1122 O1149 2.096 . S
C1123 N1126 1.301 . S
C1123 N1127 1.328 . S
C1123 H1128 0.930 . S
C1124 C1125 1.333 . S
C1124 N1126 1.317 . S
C1124 H1129 0.930 . S
C1125 C1124 1.333 . S
C1125 N1127 1.350 . S
C1125 H1151 0.931 . S
N1126 Co1122 2.148 . S
N1126 C1123 1.301 . S
N1126 C1124 1.317 . S
N1127 C1123 1.328 . S
N1127 C1125 1.350 . S
H1128 C1123 0.930 . S
H1129 C1124 0.930 . S
C1130 O1131 1.224 . S
C1130 O1149 1.247 . S
O1131 C1130 1.224 . S
N1132 Co1122 2.128 1_554 S
N1132 C1133 1.355 . S
N1132 C1135 1.311 . S
C1133 N1132 1.355 . S
C1133 C1134 1.363 . S
C1133 H1145 0.929 . S
C1134 C1133 1.363 . S
C1134 N1136 1.375 . S
C1134 H1152 0.931 . S
C1135 N1132 1.311 . S
C1135 N1136 1.347 . S
C1135 H1146 0.929 . S
N1136 C1134 1.375 . S
N1136 C1135 1.347 . S
C1137 C1140 1.365 . S
C1137 N1142 1.328 . S
C1137 H1143 0.929 . S
C1138 C1139 1.362 . S
C1138 C1141 1.378 . S
C1138 H1153 0.929 . S
C1139 C1138 1.362 . S
C1139 C1140 1.366 . S
C1140 C1137 1.365 . S
C1140 C1139 1.366 . S
C1140 H1154 0.930 . S
C1141 C1138 1.378 . S
C1141 N1142 1.315 . S
C1141 H1144 0.930 . S
N1142 Co1122 2.194 . S
N1142 C1137 1.328 . S
N1142 C1141 1.315 . S
H1143 C1137 0.929 . S
H1144 C1141 0.930 . S
H1145 C1133 0.929 . S
H1146 C1135 0.929 . S
O1147 Co1122 2.351 . S
O1147 C1150 1.244 . S
O1148 Co1122 2.155 . S
O1148 C1150 1.240 . S
O1149 Co1122 2.096 . S
O1149 C1130 1.247 . S
C1150 O1147 1.244 . S
C1150 O1148 1.240 . S
H1151 C1125 0.931 . S
H1152 C1134 0.931 . S
H1153 C1138 0.929 . S
H1154 C1140 0.930 . S
Co1155 N1159 2.148 . S
Co1155 N1165 2.128 1_556 S
Co1155 N1175 2.194 . S
Co1155 O1180 2.351 . S
Co1155 O1181 2.155 . S
Co1155 O1182 2.096 . S
C1156 N1159 1.301 . S
C1156 N1160 1.328 . S
C1156 H1161 0.930 . S
C1157 C1158 1.333 . S
C1157 N1159 1.317 . S
C1157 H1162 0.930 . S
C1158 C1157 1.333 . S
C1158 N1160 1.350 . S
C1158 H1184 0.931 . S
N1159 Co1155 2.148 . S
N1159 C1156 1.301 . S
N1159 C1157 1.317 . S
N1160 C1156 1.328 . S
N1160 C1158 1.350 . S
H1161 C1156 0.930 . S
H1162 C1157 0.930 . S
C1163 O1164 1.224 . S
C1163 O1182 1.247 . S
O1164 C1163 1.224 . S
N1165 Co1155 2.128 1_554 S
N1165 C1166 1.355 . S
N1165 C1168 1.311 . S
C1166 N1165 1.355 . S
C1166 C1167 1.363 . S
C1166 H1178 0.929 . S
C1167 C1166 1.363 . S
C1167 N1169 1.375 . S
C1167 H1185 0.931 . S
C1168 N1165 1.311 . S
C1168 N1169 1.347 . S
C1168 H1179 0.929 . S
N1169 C1167 1.375 . S
N1169 C1168 1.347 . S
C1170 C1173 1.365 . S
C1170 N1175 1.328 . S
C1170 H1176 0.929 . S
C1171 C1172 1.362 . S
C1171 C1174 1.378 . S
C1171 H1186 0.929 . S
C1172 C1171 1.362 . S
C1172 C1173 1.366 . S
C1173 C1170 1.365 . S
C1173 C1172 1.366 . S
C1173 H1187 0.930 . S
C1174 C1171 1.378 . S
C1174 N1175 1.315 . S
C1174 H1177 0.930 . S
N1175 Co1155 2.194 . S
N1175 C1170 1.328 . S
N1175 C1174 1.315 . S
H1176 C1170 0.929 . S
H1177 C1174 0.930 . S
H1178 C1166 0.929 . S
H1179 C1168 0.929 . S
O1180 Co1155 2.351 . S
O1180 C1183 1.244 . S
O1181 Co1155 2.155 . S
O1181 C1183 1.240 . S
O1182 Co1155 2.096 . S
O1182 C1163 1.247 . S
C1183 O1180 1.244 . S
C1183 O1181 1.240 . S
H1184 C1158 0.931 . S
H1185 C1167 0.931 . S
H1186 C1171 0.929 . S
H1187 C1173 0.930 . S
C1188 C1189 1.369 . S
C1188 C1190 1.419 . S
C1188 H1192 0.930 . S
C1189 C1188 1.369 . S
C1189 C1198 1.429 . S
C1190 C1188 1.419 . S
C1190 C1191 1.363 . S
C1190 H1193 0.929 . S
C1191 C1190 1.363 . S
C1191 C1197 1.428 . S
H1192 C1188 0.930 . S
H1193 C1190 0.929 . S
S1194 N1195 1.613 . S
S1194 N1196 1.610 . S
N1195 S1194 1.613 . S
N1195 C1198 1.350 . S
N1196 S1194 1.610 . S
N1196 C1197 1.351 . S
C1197 C1191 1.428 . S
C1197 N1196 1.351 . S
C1197 C1198 1.434 . S
C1198 C1189 1.429 . S
C1198 N1195 1.350 . S
C1198 C1197 1.434 . S
C1199 C1200 1.369 . S
C1199 C1201 1.419 . S
C1199 H1203 0.930 . S
C1200 C1199 1.369 . S
C1200 C1209 1.429 . S
C1201 C1199 1.419 . S
C1201 C1202 1.363 . S
C1201 H1204 0.929 . S
C1202 C1201 1.363 . S
C1202 C1208 1.428 . S
H1203 C1199 0.930 . S
H1204 C1201 0.929 . S
S1205 N1206 1.613 . S
S1205 N1207 1.610 . S
N1206 S1205 1.613 . S
N1206 C1209 1.350 . S
N1207 S1205 1.610 . S
N1207 C1208 1.351 . S
C1208 C1202 1.428 . S
C1208 N1207 1.351 . S
C1208 C1209 1.434 . S
C1209 C1200 1.429 . S
C1209 N1206 1.350 . S
C1209 C1208 1.434 . S
C1210 C1211 1.369 . S
C1210 C1212 1.419 . S
C1210 H1214 0.930 . S
C1211 C1210 1.369 . S
C1211 C1220 1.429 . S
C1212 C1210 1.419 . S
C1212 C1213 1.363 . S
C1212 H1215 0.929 . S
C1213 C1212 1.363 . S
C1213 C1219 1.428 . S
H1214 C1210 0.930 . S
H1215 C1212 0.929 . S
S1216 N1217 1.613 . S
S1216 N1218 1.610 . S
N1217 S1216 1.613 . S
N1217 C1220 1.350 . S
N1218 S1216 1.610 . S
N1218 C1219 1.351 . S
C1219 C1213 1.428 . S
C1219 N1218 1.351 . S
C1219 C1220 1.434 . S
C1220 C1211 1.429 . S
C1220 N1217 1.350 . S
C1220 C1219 1.434 . S
C1221 C1222 1.369 . S
C1221 C1223 1.419 . S
C1221 H1225 0.930 . S
C1222 C1221 1.369 . S
C1222 C1231 1.429 . S
C1223 C1221 1.419 . S
C1223 C1224 1.363 . S
C1223 H1226 0.929 . S
C1224 C1223 1.363 . S
C1224 C1230 1.428 . S
H1225 C1221 0.930 . S
H1226 C1223 0.929 . S
S1227 N1228 1.613 . S
S1227 N1229 1.610 . S
N1228 S1227 1.613 . S
N1228 C1231 1.350 . S
N1229 S1227 1.610 . S
N1229 C1230 1.351 . S
C1230 C1224 1.428 . S
C1230 N1229 1.351 . S
C1230 C1231 1.434 . S
C1231 C1222 1.429 . S
C1231 N1228 1.350 . S
C1231 C1230 1.434 . S
C1232 C1233 1.369 . S
C1232 C1234 1.419 . S
C1232 H1236 0.930 . S
C1233 C1232 1.369 . S
C1233 C1242 1.429 . S
C1234 C1232 1.419 . S
C1234 C1235 1.363 . S
C1234 H1237 0.929 . S
C1235 C1234 1.363 . S
C1235 C1241 1.428 . S
H1236 C1232 0.930 . S
H1237 C1234 0.929 . S
S1238 N1239 1.613 . S
S1238 N1240 1.610 . S
N1239 S1238 1.613 . S
N1239 C1242 1.350 . S
N1240 S1238 1.610 . S
N1240 C1241 1.351 . S
C1241 C1235 1.428 . S
C1241 N1240 1.351 . S
C1241 C1242 1.434 . S
C1242 C1233 1.429 . S
C1242 N1239 1.350 . S
C1242 C1241 1.434 . S
C1243 C1244 1.369 . S
C1243 C1245 1.419 . S
C1243 H1247 0.930 . S
C1244 C1243 1.369 . S
C1244 C1253 1.429 . S
C1245 C1243 1.419 . S
C1245 C1246 1.363 . S
C1245 H1248 0.929 . S
C1246 C1245 1.363 . S
C1246 C1252 1.428 . S
H1247 C1243 0.930 . S
H1248 C1245 0.929 . S
S1249 N1250 1.613 . S
S1249 N1251 1.610 1_554 S
N1250 S1249 1.613 . S
N1250 C1253 1.350 1_554 S
N1251 S1249 1.610 1_556 S
N1251 C1252 1.351 . S
C1252 C1246 1.428 . S
C1252 N1251 1.351 . S
C1252 C1253 1.434 . S
C1253 C1244 1.429 . S
C1253 N1250 1.350 1_556 S
C1253 C1252 1.434 . S
C1254 C1255 1.369 . S
C1254 C1256 1.419 . S
C1254 H1258 0.930 . S
C1255 C1254 1.369 . S
C1255 C1264 1.429 . S
C1256 C1254 1.419 . S
C1256 C1257 1.363 . S
C1256 H1259 0.929 . S
C1257 C1256 1.363 . S
C1257 C1263 1.428 . S
H1258 C1254 0.930 . S
H1259 C1256 0.929 . S
S1260 N1261 1.613 1_554 S
S1260 N1262 1.610 1_554 S
N1261 S1260 1.613 1_556 S
N1261 C1264 1.350 . S
N1262 S1260 1.610 1_556 S
N1262 C1263 1.351 . S
C1263 C1257 1.428 . S
C1263 N1262 1.351 . S
C1263 C1264 1.434 . S
C1264 C1255 1.429 . S
C1264 N1261 1.350 . S
C1264 C1263 1.434 . S
C1265 C1266 1.369 . S
C1265 C1267 1.419 . S
C1265 H1269 0.930 . S
C1266 C1265 1.369 . S
C1266 C1275 1.429 . S
C1267 C1265 1.419 . S
C1267 C1268 1.363 . S
C1267 H1270 0.929 . S
C1268 C1267 1.363 . S
C1268 C1274 1.428 . S
H1269 C1265 0.930 . S
H1270 C1267 0.929 . S
S1271 N1272 1.613 . S
S1271 N1273 1.610 . S
N1272 S1271 1.613 . S
N1272 C1275 1.350 . S
N1273 S1271 1.610 . S
N1273 C1274 1.351 . S
C1274 C1268 1.428 . S
C1274 N1273 1.351 . S
C1274 C1275 1.434 . S
C1275 C1266 1.429 . S
C1275 N1272 1.350 . S
C1275 C1274 1.434 . S
C1276 C1277 1.369 . S
C1276 C1278 1.419 . S
C1276 H1280 0.930 . S
C1277 C1276 1.369 . S
C1277 C1286 1.429 . S
C1278 C1276 1.419 . S
C1278 C1279 1.363 . S
C1278 H1281 0.929 . S
C1279 C1278 1.363 . S
C1279 C1285 1.428 . S
H1280 C1276 0.930 . S
H1281 C1278 0.929 . S
S1282 N1283 1.613 . S
S1282 N1284 1.610 . S
N1283 S1282 1.613 . S
N1283 C1286 1.350 . S
N1284 S1282 1.610 . S
N1284 C1285 1.351 . S
C1285 C1279 1.428 . S
C1285 N1284 1.351 . S
C1285 C1286 1.434 . S
C1286 C1277 1.429 . S
C1286 N1283 1.350 . S
C1286 C1285 1.434 . S
C1287 C1288 1.369 . S
C1287 C1289 1.419 . S
C1287 H1291 0.930 . S
C1288 C1287 1.369 . S
C1288 C1297 1.429 . S
C1289 C1287 1.419 . S
C1289 C1290 1.363 . S
C1289 H1292 0.929 . S
C1290 C1289 1.363 . S
C1290 C1296 1.428 . S
H1291 C1287 0.930 . S
H1292 C1289 0.929 . S
S1293 N1294 1.613 . S
S1293 N1295 1.610 . S
N1294 S1293 1.613 . S
N1294 C1297 1.350 . S
N1295 S1293 1.610 . S
N1295 C1296 1.351 . S
C1296 C1290 1.428 . S
C1296 N1295 1.351 . S
C1296 C1297 1.434 . S
C1297 C1288 1.429 . S
C1297 N1294 1.350 . S
C1297 C1296 1.434 . S
C1298 C1299 1.369 . S
C1298 C1300 1.419 . S
C1298 H1302 0.930 . S
C1299 C1298 1.369 . S
C1299 C1308 1.429 . S
C1300 C1298 1.419 . S
C1300 C1301 1.363 . S
C1300 H1303 0.929 . S
C1301 C1300 1.363 . S
C1301 C1307 1.428 . S
H1302 C1298 0.930 . S
H1303 C1300 0.929 . S
S1304 N1305 1.613 . S
S1304 N1306 1.610 1_556 S
N1305 S1304 1.613 . S
N1305 C1308 1.350 1_556 S
N1306 S1304 1.610 1_554 S
N1306 C1307 1.351 . S
C1307 C1301 1.428 . S
C1307 N1306 1.351 . S
C1307 C1308 1.434 . S
C1308 C1299 1.429 . S
C1308 N1305 1.350 1_554 S
C1308 C1307 1.434 . S
C1309 C1310 1.369 . S
C1309 C1311 1.419 . S
C1309 H1313 0.930 . S
C1310 C1309 1.369 . S
C1310 C1319 1.429 . S
C1311 C1309 1.419 . S
C1311 C1312 1.363 . S
C1311 H1314 0.929 . S
C1312 C1311 1.363 . S
C1312 C1318 1.428 . S
H1313 C1309 0.930 . S
H1314 C1311 0.929 . S
S1315 N1316 1.613 . S
S1315 N1317 1.610 . S
N1316 S1315 1.613 . S
N1316 C1319 1.350 . S
N1317 S1315 1.610 . S
N1317 C1318 1.351 . S
C1318 C1312 1.428 . S
C1318 N1317 1.351 . S
C1318 C1319 1.434 . S
C1319 C1310 1.429 . S
C1319 N1316 1.350 . S
C1319 C1318 1.434 . S
C1320 C1321 1.369 . S
C1320 C1322 1.419 . S
C1320 H1324 0.930 . S
C1321 C1320 1.369 . S
C1321 C1330 1.429 . S
C1322 C1320 1.419 . S
C1322 C1323 1.363 . S
C1322 H1325 0.929 . S
C1323 C1322 1.363 . S
C1323 C1329 1.428 . S
H1324 C1320 0.930 . S
H1325 C1322 0.929 . S
S1326 N1327 1.613 . S
S1326 N1328 1.610 . S
N1327 S1326 1.613 . S
N1327 C1330 1.350 . S
N1328 S1326 1.610 . S
N1328 C1329 1.351 . S
C1329 C1323 1.428 . S
C1329 N1328 1.351 . S
C1329 C1330 1.434 . S
C1330 C1321 1.429 . S
C1330 N1327 1.350 . S
C1330 C1329 1.434 . S
C1331 C1332 1.369 . S
C1331 C1333 1.419 1_565 S
C1331 H1335 0.930 . S
C1332 C1331 1.369 . S
C1332 C1341 1.429 . S
C1333 C1331 1.419 1_545 S
C1333 C1334 1.363 . S
C1333 H1336 0.929 . S
C1334 C1333 1.363 . S
C1334 C1340 1.428 . S
H1335 C1331 0.930 . S
H1336 C1333 0.929 . S
S1337 N1338 1.613 1_545 S
S1337 N1339 1.610 . S
N1338 S1337 1.613 1_565 S
N1338 C1341 1.350 . S
N1339 S1337 1.610 . S
N1339 C1340 1.351 . S
C1340 C1334 1.428 . S
C1340 N1339 1.351 . S
C1340 C1341 1.434 1_545 S
C1341 C1332 1.429 . S
C1341 N1338 1.350 . S
C1341 C1340 1.434 1_565 S
C1342 C1343 1.369 . S
C1342 C1344 1.419 1_655 S
C1342 H1346 0.930 . S
C1343 C1342 1.369 . S
C1343 C1352 1.429 . S
C1344 C1342 1.419 1_455 S
C1344 C1345 1.363 . S
C1344 H1347 0.929 . S
C1345 C1344 1.363 . S
C1345 C1351 1.428 . S
H1346 C1342 0.930 . S
H1347 C1344 0.929 . S
S1348 N1349 1.613 . S
S1348 N1350 1.610 1_655 S
N1349 S1348 1.613 . S
N1349 C1352 1.350 . S
N1350 S1348 1.610 1_455 S
N1350 C1351 1.351 . S
C1351 C1345 1.428 . S
C1351 N1350 1.351 . S
C1351 C1352 1.434 1_455 S
C1352 C1343 1.429 . S
C1352 N1349 1.350 . S
C1352 C1351 1.434 1_655 S
C1353 C1354 1.369 . S
C1353 C1355 1.419 . S
C1353 H1357 0.930 . S
C1354 C1353 1.369 . S
C1354 C1363 1.429 . S
C1355 C1353 1.419 . S
C1355 C1356 1.363 . S
C1355 H1358 0.929 . S
C1356 C1355 1.363 . S
C1356 C1362 1.428 . S
H1357 C1353 0.930 . S
H1358 C1355 0.929 . S
S1359 N1360 1.613 . S
S1359 N1361 1.610 . S
N1360 S1359 1.613 . S
N1360 C1363 1.350 . S
N1361 S1359 1.610 . S
N1361 C1362 1.351 . S
C1362 C1356 1.428 . S
C1362 N1361 1.351 . S
C1362 C1363 1.434 . S
C1363 C1354 1.429 . S
C1363 N1360 1.350 . S
C1363 C1362 1.434 . S
C1364 C1365 1.369 . S
C1364 C1366 1.419 1_565 S
C1364 H1368 0.930 . S
C1365 C1364 1.369 . S
C1365 C1374 1.429 . S
C1366 C1364 1.419 1_545 S
C1366 C1367 1.363 . S
C1366 H1369 0.929 . S
C1367 C1366 1.363 . S
C1367 C1373 1.428 . S
H1368 C1364 0.930 . S
H1369 C1366 0.929 . S
S1370 N1371 1.613 1_545 S
S1370 N1372 1.610 . S
N1371 S1370 1.613 1_565 S
N1371 C1374 1.350 . S
N1372 S1370 1.610 . S
N1372 C1373 1.351 . S
C1373 C1367 1.428 . S
C1373 N1372 1.351 . S
C1373 C1374 1.434 1_545 S
C1374 C1365 1.429 . S
C1374 N1371 1.350 . S
C1374 C1373 1.434 1_565 S
C1375 C1376 1.369 . S
C1375 C1377 1.419 1_655 S
C1375 H1379 0.930 . S
C1376 C1375 1.369 . S
C1376 C1385 1.429 . S
C1377 C1375 1.419 1_455 S
C1377 C1378 1.363 . S
C1377 H1380 0.929 . S
C1378 C1377 1.363 . S
C1378 C1384 1.428 . S
H1379 C1375 0.930 . S
H1380 C1377 0.929 . S
S1381 N1382 1.613 . S
S1381 N1383 1.610 1_655 S
N1382 S1381 1.613 . S
N1382 C1385 1.350 . S
N1383 S1381 1.610 1_455 S
N1383 C1384 1.351 . S
C1384 C1378 1.428 . S
C1384 N1383 1.351 . S
C1384 C1385 1.434 1_455 S
C1385 C1376 1.429 . S
C1385 N1382 1.350 . S
C1385 C1384 1.434 1_655 S
C1386 C1387 1.369 . S
C1386 C1388 1.419 . S
C1386 H1390 0.930 . S
C1387 C1386 1.369 . S
C1387 C1396 1.429 . S
C1388 C1386 1.419 . S
C1388 C1389 1.363 . S
C1388 H1391 0.929 . S
C1389 C1388 1.363 . S
C1389 C1395 1.428 . S
H1390 C1386 0.930 . S
H1391 C1388 0.929 . S
S1392 N1393 1.613 . S
S1392 N1394 1.610 . S
N1393 S1392 1.613 . S
N1393 C1396 1.350 . S
N1394 S1392 1.610 . S
N1394 C1395 1.351 . S
C1395 C1389 1.428 . S
C1395 N1394 1.351 . S
C1395 C1396 1.434 . S
C1396 C1387 1.429 . S
C1396 N1393 1.350 . S
C1396 C1395 1.434 . S
C1397 C1398 1.369 . S
C1397 C1399 1.419 . S
C1397 H1401 0.930 . S
C1398 C1397 1.369 . S
C1398 C1407 1.429 . S
C1399 C1397 1.419 . S
C1399 C1400 1.363 . S
C1399 H1402 0.929 . S
C1400 C1399 1.363 . S
C1400 C1406 1.428 . S
H1401 C1397 0.930 . S
H1402 C1399 0.929 . S
S1403 N1404 1.613 . S
S1403 N1405 1.610 . S
N1404 S1403 1.613 . S
N1404 C1407 1.350 . S
N1405 S1403 1.610 . S
N1405 C1406 1.351 . S
C1406 C1400 1.428 . S
C1406 N1405 1.351 . S
C1406 C1407 1.434 . S
C1407 C1398 1.429 . S
C1407 N1404 1.350 . S
C1407 C1406 1.434 . S
C1408 C1409 1.369 . S
C1408 C1410 1.419 . S
C1408 H1412 0.930 . S
C1409 C1408 1.369 . S
C1409 C1418 1.429 . S
C1410 C1408 1.419 . S
C1410 C1411 1.363 . S
C1410 H1413 0.929 . S
C1411 C1410 1.363 . S
C1411 C1417 1.428 . S
H1412 C1408 0.930 . S
H1413 C1410 0.929 . S
S1414 N1415 1.613 . S
S1414 N1416 1.610 . S
N1415 S1414 1.613 . S
N1415 C1418 1.350 . S
N1416 S1414 1.610 . S
N1416 C1417 1.351 . S
C1417 C1411 1.428 . S
C1417 N1416 1.351 . S
C1417 C1418 1.434 . S
C1418 C1409 1.429 . S
C1418 N1415 1.350 . S
C1418 C1417 1.434 . S
C1419 C1420 1.369 . S
C1419 C1421 1.419 . S
C1419 H1423 0.930 . S
C1420 C1419 1.369 . S
C1420 C1429 1.429 . S
C1421 C1419 1.419 . S
C1421 C1422 1.363 . S
C1421 H1424 0.929 . S
C1422 C1421 1.363 . S
C1422 C1428 1.428 . S
H1423 C1419 0.930 . S
H1424 C1421 0.929 . S
S1425 N1426 1.613 . S
S1425 N1427 1.610 . S
N1426 S1425 1.613 . S
N1426 C1429 1.350 . S
N1427 S1425 1.610 . S
N1427 C1428 1.351 . S
C1428 C1422 1.428 . S
C1428 N1427 1.351 . S
C1428 C1429 1.434 . S
C1429 C1420 1.429 . S
C1429 N1426 1.350 . S
C1429 C1428 1.434 . S
C1430 C1431 1.369 . S
C1430 C1432 1.419 . S
C1430 H1434 0.930 . S
C1431 C1430 1.369 . S
C1431 C1440 1.429 . S
C1432 C1430 1.419 . S
C1432 C1433 1.363 . S
C1432 H1435 0.929 . S
C1433 C1432 1.363 . S
C1433 C1439 1.428 . S
H1434 C1430 0.930 . S
H1435 C1432 0.929 . S
S1436 N1437 1.613 . S
S1436 N1438 1.610 . S
N1437 S1436 1.613 . S
N1437 C1440 1.350 . S
N1438 S1436 1.610 . S
N1438 C1439 1.351 . S
C1439 C1433 1.428 . S
C1439 N1438 1.351 . S
C1439 C1440 1.434 . S
C1440 C1431 1.429 . S
C1440 N1437 1.350 . S
C1440 C1439 1.434 . S
C1441 C1442 1.369 . S
C1441 C1443 1.419 . S
C1441 H1445 0.930 . S
C1442 C1441 1.369 . S
C1442 C1451 1.429 . S
C1443 C1441 1.419 . S
C1443 C1444 1.363 . S
C1443 H1446 0.929 . S
C1444 C1443 1.363 . S
C1444 C1450 1.428 . S
H1445 C1441 0.930 . S
H1446 C1443 0.929 . S
S1447 N1448 1.613 . S
S1447 N1449 1.610 . S
N1448 S1447 1.613 . S
N1448 C1451 1.350 . S
N1449 S1447 1.610 . S
N1449 C1450 1.351 . S
C1450 C1444 1.428 . S
C1450 N1449 1.351 . S
C1450 C1451 1.434 . S
C1451 C1442 1.429 . S
C1451 N1448 1.350 . S
C1451 C1450 1.434 . S
C1452 C1453 1.369 . S
C1452 C1454 1.419 . S
C1452 H1456 0.930 . S
C1453 C1452 1.369 . S
C1453 C1462 1.429 . S
C1454 C1452 1.419 . S
C1454 C1455 1.363 . S
C1454 H1457 0.929 . S
C1455 C1454 1.363 . S
C1455 C1461 1.428 . S
H1456 C1452 0.930 . S
H1457 C1454 0.929 . S
S1458 N1459 1.613 . S
S1458 N1460 1.610 . S
N1459 S1458 1.613 . S
N1459 C1462 1.350 . S
N1460 S1458 1.610 . S
N1460 C1461 1.351 . S
C1461 C1455 1.428 . S
C1461 N1460 1.351 . S
C1461 C1462 1.434 . S
C1462 C1453 1.429 . S
C1462 N1459 1.350 . S
C1462 C1461 1.434 . S
C1463 C1464 1.369 . S
C1463 C1465 1.419 . S
C1463 H1467 0.930 . S
C1464 C1463 1.369 . S
C1464 C1473 1.429 . S
C1465 C1463 1.419 . S
C1465 C1466 1.363 . S
C1465 H1468 0.929 . S
C1466 C1465 1.363 . S
C1466 C1472 1.428 . S
H1467 C1463 0.930 . S
H1468 C1465 0.929 . S
S1469 N1470 1.613 . S
S1469 N1471 1.610 . S
N1470 S1469 1.613 . S
N1470 C1473 1.350 . S
N1471 S1469 1.610 . S
N1471 C1472 1.351 . S
C1472 C1466 1.428 . S
C1472 N1471 1.351 . S
C1472 C1473 1.434 . S
C1473 C1464 1.429 . S
C1473 N1470 1.350 . S
C1473 C1472 1.434 . S
C1474 C1475 1.369 . S
C1474 C1476 1.419 . S
C1474 H1478 0.930 . S
C1475 C1474 1.369 . S
C1475 C1484 1.429 . S
C1476 C1474 1.419 . S
C1476 C1477 1.363 . S
C1476 H1479 0.929 . S
C1477 C1476 1.363 . S
C1477 C1483 1.428 . S
H1478 C1474 0.930 . S
H1479 C1476 0.929 . S
S1480 N1481 1.613 . S
S1480 N1482 1.610 . S
N1481 S1480 1.613 . S
N1481 C1484 1.350 . S
N1482 S1480 1.610 . S
N1482 C1483 1.351 . S
C1483 C1477 1.428 . S
C1483 N1482 1.351 . S
C1483 C1484 1.434 . S
C1484 C1475 1.429 . S
C1484 N1481 1.350 . S
C1484 C1483 1.434 . S
C1485 C1486 1.369 . S
C1485 C1487 1.419 . S
C1485 H1489 0.930 . S
C1486 C1485 1.369 . S
C1486 C1495 1.429 . S
C1487 C1485 1.419 . S
C1487 C1488 1.363 . S
C1487 H1490 0.929 . S
C1488 C1487 1.363 . S
C1488 C1494 1.428 . S
H1489 C1485 0.930 . S
H1490 C1487 0.929 . S
S1491 N1492 1.613 . S
S1491 N1493 1.610 . S
N1492 S1491 1.613 . S
N1492 C1495 1.350 . S
N1493 S1491 1.610 . S
N1493 C1494 1.351 . S
C1494 C1488 1.428 . S
C1494 N1493 1.351 . S
C1494 C1495 1.434 . S
C1495 C1486 1.429 . S
C1495 N1492 1.350 . S
C1495 C1494 1.434 . S
C1496 C1497 1.369 . S
C1496 C1498 1.419 . S
C1496 H1500 0.930 . S
C1497 C1496 1.369 . S
C1497 C1506 1.429 . S
C1498 C1496 1.419 . S
C1498 C1499 1.363 . S
C1498 H1501 0.929 . S
C1499 C1498 1.363 . S
C1499 C1505 1.428 . S
H1500 C1496 0.930 . S
H1501 C1498 0.929 . S
S1502 N1503 1.613 . S
S1502 N1504 1.610 . S
N1503 S1502 1.613 . S
N1503 C1506 1.350 . S
N1504 S1502 1.610 . S
N1504 C1505 1.351 . S
C1505 C1499 1.428 . S
C1505 N1504 1.351 . S
C1505 C1506 1.434 . S
C1506 C1497 1.429 . S
C1506 N1503 1.350 . S
C1506 C1505 1.434 . S
C1507 C1508 1.369 . S
C1507 C1509 1.419 . S
C1507 H1511 0.930 . S
C1508 C1507 1.369 . S
C1508 C1517 1.429 . S
C1509 C1507 1.419 . S
C1509 C1510 1.363 . S
C1509 H1512 0.929 . S
C1510 C1509 1.363 . S
C1510 C1516 1.428 . S
H1511 C1507 0.930 . S
H1512 C1509 0.929 . S
S1513 N1514 1.613 . S
S1513 N1515 1.610 . S
N1514 S1513 1.613 . S
N1514 C1517 1.350 . S
N1515 S1513 1.610 . S
N1515 C1516 1.351 . S
C1516 C1510 1.428 . S
C1516 N1515 1.351 . S
C1516 C1517 1.434 . S
C1517 C1508 1.429 . S
C1517 N1514 1.350 . S
C1517 C1516 1.434 . S
C1518 C1519 1.369 . S
C1518 C1520 1.419 1_656 S
C1518 H1522 0.930 . S
C1519 C1518 1.369 . S
C1519 C1528 1.429 . S
C1520 C1518 1.419 1_454 S
C1520 C1521 1.363 . S
C1520 H1523 0.929 . S
C1521 C1520 1.363 . S
C1521 C1527 1.428 . S
H1522 C1518 0.930 . S
H1523 C1520 0.929 . S
S1524 N1525 1.616 1_554 S
S1524 N1526 1.601 1_655 S
N1525 S1524 1.616 1_556 S
N1525 C1528 1.350 . S
N1526 S1524 1.601 1_455 S
N1526 C1527 1.351 . S
C1527 C1521 1.428 . S
C1527 N1526 1.351 . S
C1527 C1528 1.434 1_454 S
C1528 C1519 1.429 . S
C1528 N1525 1.350 . S
C1528 C1527 1.434 1_656 S
C1529 C1530 1.369 1_554 S
C1529 C1531 1.419 . S
C1529 H1533 0.930 . S
C1530 C1529 1.369 1_556 S
C1530 C1539 1.429 . S
C1531 C1529 1.419 . S
C1531 C1532 1.363 . S
C1531 H1534 0.929 . S
C1532 C1531 1.363 . S
C1532 C1538 1.428 1_554 S
H1533 C1529 0.930 . S
H1534 C1531 0.929 . S
S1535 N1536 1.613 . S
S1535 N1537 1.610 . S
N1536 S1535 1.613 . S
N1536 C1539 1.350 . S
N1537 S1535 1.610 . S
N1537 C1538 1.351 . S
C1538 C1532 1.428 1_556 S
C1538 N1537 1.351 . S
C1538 C1539 1.434 . S
C1539 C1530 1.429 . S
C1539 N1536 1.350 . S
C1539 C1538 1.434 . S
C1540 C1541 1.369 . S
C1540 C1542 1.419 1_565 S
C1540 H1544 0.930 . S
C1541 C1540 1.369 . S
C1541 C1550 1.429 1_554 S
C1542 C1540 1.419 1_545 S
C1542 C1543 1.363 1_554 S
C1542 H1545 0.929 . S
C1543 C1542 1.363 1_556 S
C1543 C1549 1.428 . S
H1544 C1540 0.930 . S
H1545 C1542 0.929 . S
S1546 N1547 1.613 . S
S1546 N1548 1.610 1_565 S
N1547 S1546 1.613 . S
N1547 C1550 1.350 . S
N1548 S1546 1.610 1_545 S
N1548 C1549 1.351 . S
C1549 C1543 1.428 . S
C1549 N1548 1.351 . S
C1549 C1550 1.434 1_545 S
C1550 C1541 1.429 1_556 S
C1550 N1547 1.350 . S
C1550 C1549 1.434 1_565 S
C1551 C1552 1.369 1_556 S
C1551 C1553 1.419 1_565 S
C1551 H1555 0.930 . S
C1552 C1551 1.369 1_554 S
C1552 C1561 1.429 . S
C1553 C1551 1.419 1_545 S
C1553 C1554 1.363 . S
C1553 H1556 0.929 . S
C1554 C1553 1.363 . S
C1554 C1560 1.428 1_556 S
H1555 C1551 0.930 . S
H1556 C1553 0.929 . S
S1557 N1558 1.613 1_545 S
S1557 N1559 1.610 . S
N1558 S1557 1.613 1_565 S
N1558 C1561 1.350 . S
N1559 S1557 1.610 . S
N1559 C1560 1.351 . S
C1560 C1554 1.428 1_554 S
C1560 N1559 1.351 . S
C1560 C1561 1.434 1_545 S
C1561 C1552 1.429 . S
C1561 N1558 1.350 . S
C1561 C1560 1.434 1_565 S
C1562 C1563 1.369 . S
C1562 C1564 1.419 1_655 S
C1562 H1566 0.930 . S
C1563 C1562 1.369 . S
C1563 C1572 1.429 1_556 S
C1564 C1562 1.419 1_455 S
C1564 C1565 1.363 1_556 S
C1564 H1567 0.929 . S
C1565 C1564 1.363 1_554 S
C1565 C1571 1.428 . S
H1566 C1562 0.930 . S
H1567 C1564 0.929 . S
S1568 N1569 1.613 . S
S1568 N1570 1.610 1_655 S
N1569 S1568 1.613 . S
N1569 C1572 1.350 . S
N1570 S1568 1.610 1_455 S
N1570 C1571 1.351 . S
C1571 C1565 1.428 . S
C1571 N1570 1.351 . S
C1571 C1572 1.434 1_455 S
C1572 C1563 1.429 1_554 S
C1572 N1569 1.350 . S
C1572 C1571 1.434 1_655 S
C1573 C1574 1.369 1_554 S
C1573 C1575 1.419 . S
C1573 H1577 0.930 . S
C1574 C1573 1.369 1_556 S
C1574 C1583 1.429 . S
C1575 C1573 1.419 . S
C1575 C1576 1.363 . S
C1575 H1578 0.929 . S
C1576 C1575 1.363 . S
C1576 C1582 1.428 1_554 S
H1577 C1573 0.930 . S
H1578 C1575 0.929 . S
S1579 N1580 1.613 . S
S1579 N1581 1.610 . S
N1580 S1579 1.613 . S
N1580 C1583 1.350 . S
N1581 S1579 1.610 . S
N1581 C1582 1.351 . S
C1582 C1576 1.428 1_556 S
C1582 N1581 1.351 . S
C1582 C1583 1.434 . S
C1583 C1574 1.429 . S
C1583 N1580 1.350 . S
C1583 C1582 1.434 . S
C1584 C1585 1.369 . S
C1584 C1586 1.419 . S
C1584 H1588 0.930 . S
C1585 C1584 1.369 . S
C1585 C1594 1.429 . S
C1586 C1584 1.419 . S
C1586 C1587 1.363 . S
C1586 H1589 0.929 . S
C1587 C1586 1.363 . S
C1587 C1593 1.428 . S
H1588 C1584 0.930 . S
H1589 C1586 0.929 . S
S1590 N1591 1.613 . S
S1590 N1592 1.610 . S
N1591 S1590 1.613 . S
N1591 C1594 1.350 . S
N1592 S1590 1.610 . S
N1592 C1593 1.351 . S
C1593 C1587 1.428 . S
C1593 N1592 1.351 . S
C1593 C1594 1.434 . S
C1594 C1585 1.429 . S
C1594 N1591 1.350 . S
C1594 C1593 1.434 . S
C1595 C1596 1.369 . S
C1595 C1597 1.419 . S
C1595 H1599 0.930 . S
C1596 C1595 1.369 . S
C1596 C1605 1.429 . S
C1597 C1595 1.419 . S
C1597 C1598 1.363 . S
C1597 H1600 0.929 . S
C1598 C1597 1.363 . S
C1598 C1604 1.428 . S
H1599 C1595 0.930 . S
H1600 C1597 0.929 . S
S1601 N1602 1.613 . S
S1601 N1603 1.610 . S
N1602 S1601 1.613 . S
N1602 C1605 1.350 . S
N1603 S1601 1.610 . S
N1603 C1604 1.351 . S
C1604 C1598 1.428 . S
C1604 N1603 1.351 . S
C1604 C1605 1.434 . S
C1605 C1596 1.429 . S
C1605 N1602 1.350 . S
C1605 C1604 1.434 . S
C1606 C1607 1.369 . S
C1606 C1608 1.419 . S
C1606 H1610 0.930 . S
C1607 C1606 1.369 . S
C1607 C1616 1.429 . S
C1608 C1606 1.419 . S
C1608 C1609 1.363 . S
C1608 H1611 0.929 . S
C1609 C1608 1.363 . S
C1609 C1615 1.428 . S
H1610 C1606 0.930 . S
H1611 C1608 0.929 . S
S1612 N1613 1.613 . S
S1612 N1614 1.610 . S
N1613 S1612 1.613 . S
N1613 C1616 1.350 . S
N1614 S1612 1.610 . S
N1614 C1615 1.351 . S
C1615 C1609 1.428 . S
C1615 N1614 1.351 . S
C1615 C1616 1.434 . S
C1616 C1607 1.429 . S
C1616 N1613 1.350 . S
C1616 C1615 1.434 . S
C1617 C1618 1.369 . S
C1617 C1619 1.419 . S
C1617 H1621 0.930 . S
C1618 C1617 1.369 . S
C1618 C1627 1.429 . S
C1619 C1617 1.419 . S
C1619 C1620 1.363 . S
C1619 H1622 0.929 . S
C1620 C1619 1.363 . S
C1620 C1626 1.428 . S
H1621 C1617 0.930 . S
H1622 C1619 0.929 . S
S1623 N1624 1.613 . S
S1623 N1625 1.610 . S
N1624 S1623 1.613 . S
N1624 C1627 1.350 . S
N1625 S1623 1.610 . S
N1625 C1626 1.351 . S
C1626 C1620 1.428 . S
C1626 N1625 1.351 . S
C1626 C1627 1.434 . S
C1627 C1618 1.429 . S
C1627 N1624 1.350 . S
C1627 C1626 1.434 . S
C1628 C1629 1.369 . S
C1628 C1630 1.419 . S
C1628 H1632 0.930 . S
C1629 C1628 1.369 . S
C1629 C1638 1.429 . S
C1630 C1628 1.419 . S
C1630 C1631 1.363 . S
C1630 H1633 0.929 . S
C1631 C1630 1.363 . S
C1631 C1637 1.428 . S
H1632 C1628 0.930 . S
H1633 C1630 0.929 . S
S1634 N1635 1.613 . S
S1634 N1636 1.610 . S
N1635 S1634 1.613 . S
N1635 C1638 1.350 . S
N1636 S1634 1.610 . S
N1636 C1637 1.351 . S
C1637 C1631 1.428 . S
C1637 N1636 1.351 . S
C1637 C1638 1.434 . S
C1638 C1629 1.429 . S
C1638 N1635 1.350 . S
C1638 C1637 1.434 . S
C1639 C1640 1.369 . S
C1639 C1641 1.419 . S
C1639 H1643 0.930 . S
C1640 C1639 1.369 . S
C1640 C1649 1.429 . S
C1641 C1639 1.419 . S
C1641 C1642 1.363 . S
C1641 H1644 0.929 . S
C1642 C1641 1.363 . S
C1642 C1648 1.428 . S
H1643 C1639 0.930 . S
H1644 C1641 0.929 . S
S1645 N1646 1.613 . S
S1645 N1647 1.610 . S
N1646 S1645 1.613 . S
N1646 C1649 1.350 . S
N1647 S1645 1.610 . S
N1647 C1648 1.351 . S
C1648 C1642 1.428 . S
C1648 N1647 1.351 . S
C1648 C1649 1.434 . S
C1649 C1640 1.429 . S
C1649 N1646 1.350 . S
C1649 C1648 1.434 . S
C1650 C1651 1.369 . S
C1650 C1652 1.419 . S
C1650 H1654 0.930 . S
C1651 C1650 1.369 . S
C1651 C1660 1.429 . S
C1652 C1650 1.419 . S
C1652 C1653 1.363 . S
C1652 H1655 0.929 . S
C1653 C1652 1.363 . S
C1653 C1659 1.428 . S
H1654 C1650 0.930 . S
H1655 C1652 0.929 . S
S1656 N1657 1.613 . S
S1656 N1658 1.610 . S
N1657 S1656 1.613 . S
N1657 C1660 1.350 . S
N1658 S1656 1.610 . S
N1658 C1659 1.351 . S
C1659 C1653 1.428 . S
C1659 N1658 1.351 . S
C1659 C1660 1.434 . S
C1660 C1651 1.429 . S
C1660 N1657 1.350 . S
C1660 C1659 1.434 . S
C1661 C1662 1.369 . S
C1661 C1663 1.419 . S
C1661 H1665 0.930 . S
C1662 C1661 1.369 . S
C1662 C1671 1.429 . S
C1663 C1661 1.419 . S
C1663 C1664 1.363 . S
C1663 H1666 0.929 . S
C1664 C1663 1.363 . S
C1664 C1670 1.428 . S
H1665 C1661 0.930 . S
H1666 C1663 0.929 . S
S1667 N1668 1.613 . S
S1667 N1669 1.610 . S
N1668 S1667 1.613 . S
N1668 C1671 1.350 . S
N1669 S1667 1.610 . S
N1669 C1670 1.351 . S
C1670 C1664 1.428 . S
C1670 N1669 1.351 . S
C1670 C1671 1.434 . S
C1671 C1662 1.429 . S
C1671 N1668 1.350 . S
C1671 C1670 1.434 . S
C1672 C1673 1.369 . S
C1672 C1674 1.419 . S
C1672 H1676 0.930 . S
C1673 C1672 1.369 . S
C1673 C1682 1.429 . S
C1674 C1672 1.419 . S
C1674 C1675 1.363 . S
C1674 H1677 0.929 . S
C1675 C1674 1.363 . S
C1675 C1681 1.428 . S
H1676 C1672 0.930 . S
H1677 C1674 0.929 . S
S1678 N1679 1.613 . S
S1678 N1680 1.610 . S
N1679 S1678 1.613 . S
N1679 C1682 1.350 . S
N1680 S1678 1.610 . S
N1680 C1681 1.351 . S
C1681 C1675 1.428 . S
C1681 N1680 1.351 . S
C1681 C1682 1.434 . S
C1682 C1673 1.429 . S
C1682 N1679 1.350 . S
C1682 C1681 1.434 . S
C1683 C1684 1.369 . S
C1683 C1685 1.419 . S
C1683 H1687 0.930 1_554 S
C1684 C1683 1.369 . S
C1684 C1693 1.429 . S
C1685 C1683 1.419 . S
C1685 C1686 1.363 . S
C1685 H1688 0.929 1_554 S
C1686 C1685 1.363 . S
C1686 C1692 1.428 . S
H1687 C1683 0.930 1_556 S
H1688 C1685 0.929 1_556 S
S1689 N1690 1.613 . S
S1689 N1691 1.610 . S
N1690 S1689 1.613 . S
N1690 C1693 1.350 . S
N1691 S1689 1.610 . S
N1691 C1692 1.351 . S
C1692 C1686 1.428 . S
C1692 N1691 1.351 . S
C1692 C1693 1.434 . S
C1693 C1684 1.429 . S
C1693 N1690 1.350 . S
C1693 C1692 1.434 . S
C1694 C1695 1.369 . S
C1694 C1696 1.419 . S
C1694 H1698 0.930 . S
C1695 C1694 1.369 . S
C1695 C1704 1.429 . S
C1696 C1694 1.419 . S
C1696 C1697 1.363 . S
C1696 H1699 0.929 . S
C1697 C1696 1.363 . S
C1697 C1703 1.428 . S
H1698 C1694 0.930 . S
H1699 C1696 0.929 . S
S1700 N1701 1.613 . S
S1700 N1702 1.610 . S
N1701 S1700 1.613 . S
N1701 C1704 1.350 . S
N1702 S1700 1.610 . S
N1702 C1703 1.351 . S
C1703 C1697 1.428 . S
C1703 N1702 1.351 . S
C1703 C1704 1.434 . S
C1704 C1695 1.429 . S
C1704 N1701 1.350 . S
C1704 C1703 1.434 . S
C1705 C1706 1.369 . S
C1705 C1707 1.419 . S
C1705 H1709 0.930 . S
C1706 C1705 1.369 . S
C1706 C1715 1.429 . S
C1707 C1705 1.419 . S
C1707 C1708 1.363 . S
C1707 H1710 0.929 . S
C1708 C1707 1.363 . S
C1708 C1714 1.428 . S
H1709 C1705 0.930 . S
H1710 C1707 0.929 . S
S1711 N1712 1.613 . S
S1711 N1713 1.610 . S
N1712 S1711 1.613 . S
N1712 C1715 1.350 . S
N1713 S1711 1.610 . S
N1713 C1714 1.351 . S
C1714 C1708 1.428 . S
C1714 N1713 1.351 . S
C1714 C1715 1.434 . S
C1715 C1706 1.429 . S
C1715 N1712 1.350 . S
C1715 C1714 1.434 . S
C1716 C1717 1.369 . S
C1716 C1718 1.419 . S
C1716 H1720 0.930 . S
C1717 C1716 1.369 . S
C1717 C1726 1.429 . S
C1718 C1716 1.419 . S
C1718 C1719 1.363 . S
C1718 H1721 0.929 . S
C1719 C1718 1.363 . S
C1719 C1725 1.428 . S
H1720 C1716 0.930 . S
H1721 C1718 0.929 . S
S1722 N1723 1.613 . S
S1722 N1724 1.610 . S
N1723 S1722 1.613 . S
N1723 C1726 1.350 1_554 S
N1724 S1722 1.610 . S
N1724 C1725 1.351 1_554 S
C1725 C1719 1.428 . S
C1725 N1724 1.351 1_556 S
C1725 C1726 1.434 . S
C1726 C1717 1.429 . S
C1726 N1723 1.350 1_556 S
C1726 C1725 1.434 . S
C1727 C1728 1.369 . S
C1727 C1729 1.419 . S
C1727 H1731 0.930 . S
C1728 C1727 1.369 . S
C1728 C1737 1.429 . S
C1729 C1727 1.419 . S
C1729 C1730 1.363 . S
C1729 H1732 0.929 . S
C1730 C1729 1.363 . S
C1730 C1736 1.428 . S
H1731 C1727 0.930 . S
H1732 C1729 0.929 . S
S1733 N1734 1.613 . S
S1733 N1735 1.610 . S
N1734 S1733 1.613 . S
N1734 C1737 1.350 . S
N1735 S1733 1.610 . S
N1735 C1736 1.351 . S
C1736 C1730 1.428 . S
C1736 N1735 1.351 . S
C1736 C1737 1.434 . S
C1737 C1728 1.429 . S
C1737 N1734 1.350 . S
C1737 C1736 1.434 . S
C1738 C1739 1.369 . S
C1738 C1740 1.419 . S
C1738 H1742 0.930 . S
C1739 C1738 1.369 . S
C1739 C1748 1.429 . S
C1740 C1738 1.419 . S
C1740 C1741 1.363 . S
C1740 H1743 0.929 . S
C1741 C1740 1.363 . S
C1741 C1747 1.428 . S
H1742 C1738 0.930 . S
H1743 C1740 0.929 . S
S1744 N1745 1.613 . S
S1744 N1746 1.610 . S
N1745 S1744 1.613 . S
N1745 C1748 1.350 1_554 S
N1746 S1744 1.610 . S
N1746 C1747 1.351 1_554 S
C1747 C1741 1.428 . S
C1747 N1746 1.351 1_556 S
C1747 C1748 1.434 . S
C1748 C1739 1.429 . S
C1748 N1745 1.350 1_556 S
C1748 C1747 1.434 . S
C1749 C1750 1.369 . S
C1749 C1751 1.419 . S
C1749 H1753 0.930 . S
C1750 C1749 1.369 . S
C1750 C1759 1.429 . S
C1751 C1749 1.419 . S
C1751 C1752 1.363 . S
C1751 H1754 0.929 . S
C1752 C1751 1.363 . S
C1752 C1758 1.428 . S
H1753 C1749 0.930 . S
H1754 C1751 0.929 . S
S1755 N1756 1.613 . S
S1755 N1757 1.610 . S
N1756 S1755 1.613 . S
N1756 C1759 1.350 . S
N1757 S1755 1.610 . S
N1757 C1758 1.351 . S
C1758 C1752 1.428 . S
C1758 N1757 1.351 . S
C1758 C1759 1.434 . S
C1759 C1750 1.429 . S
C1759 N1756 1.350 . S
C1759 C1758 1.434 . S
C1760 C1761 1.369 . S
C1760 C1762 1.419 . S
C1760 H1764 0.930 . S
C1761 C1760 1.369 . S
C1761 C1770 1.429 . S
C1762 C1760 1.419 . S
C1762 C1763 1.363 . S
C1762 H1765 0.929 . S
C1763 C1762 1.363 . S
C1763 C1769 1.428 . S
H1764 C1760 0.930 . S
H1765 C1762 0.929 . S
S1766 N1767 1.613 . S
S1766 N1768 1.610 . S
N1767 S1766 1.613 . S
N1767 C1770 1.350 . S
N1768 S1766 1.610 . S
N1768 C1769 1.351 . S
C1769 C1763 1.428 . S
C1769 N1768 1.351 . S
C1769 C1770 1.434 . S
C1770 C1761 1.429 . S
C1770 N1767 1.350 . S
C1770 C1769 1.434 . S
C1771 C1772 1.369 . S
C1771 C1773 1.419 . S
C1771 H1775 0.930 . S
C1772 C1771 1.369 . S
C1772 C1781 1.429 . S
C1773 C1771 1.419 . S
C1773 C1774 1.363 . S
C1773 H1776 0.929 . S
C1774 C1773 1.363 . S
C1774 C1780 1.428 . S
H1775 C1771 0.930 . S
H1776 C1773 0.929 . S
S1777 N1778 1.613 . S
S1777 N1779 1.610 . S
N1778 S1777 1.613 . S
N1778 C1781 1.350 . S
N1779 S1777 1.610 . S
N1779 C1780 1.351 . S
C1780 C1774 1.428 . S
C1780 N1779 1.351 . S
C1780 C1781 1.434 . S
C1781 C1772 1.429 . S
C1781 N1778 1.350 . S
C1781 C1780 1.434 . S
C1782 C1783 1.369 . S
C1782 C1784 1.419 . S
C1782 H1786 0.930 . S
C1783 C1782 1.369 . S
C1783 C1792 1.429 . S
C1784 C1782 1.419 . S
C1784 C1785 1.363 . S
C1784 H1787 0.929 . S
C1785 C1784 1.363 . S
C1785 C1791 1.428 . S
H1786 C1782 0.930 . S
H1787 C1784 0.929 . S
S1788 N1789 1.613 . S
S1788 N1790 1.610 . S
N1789 S1788 1.613 . S
N1789 C1792 1.350 . S
N1790 S1788 1.610 . S
N1790 C1791 1.351 . S
C1791 C1785 1.428 . S
C1791 N1790 1.351 . S
C1791 C1792 1.434 . S
C1792 C1783 1.429 . S
C1792 N1789 1.350 . S
C1792 C1791 1.434 . S
C1793 C1794 1.369 . S
C1793 C1795 1.419 . S
C1793 H1797 0.930 . S
C1794 C1793 1.369 . S
C1794 C1803 1.429 . S
C1795 C1793 1.419 . S
C1795 C1796 1.363 . S
C1795 H1798 0.929 . S
C1796 C1795 1.363 . S
C1796 C1802 1.428 . S
H1797 C1793 0.930 . S
H1798 C1795 0.929 . S
S1799 N1800 1.613 . S
S1799 N1801 1.610 . S
N1800 S1799 1.613 . S
N1800 C1803 1.350 . S
N1801 S1799 1.610 . S
N1801 C1802 1.351 . S
C1802 C1796 1.428 . S
C1802 N1801 1.351 . S
C1802 C1803 1.434 . S
C1803 C1794 1.429 . S
C1803 N1800 1.350 . S
C1803 C1802 1.434 . S
C1804 C1805 1.369 . S
C1804 C1806 1.419 . S
C1804 H1808 0.930 . S
C1805 C1804 1.369 . S
C1805 C1814 1.429 . S
C1806 C1804 1.419 . S
C1806 C1807 1.363 . S
C1806 H1809 0.929 . S
C1807 C1806 1.363 . S
C1807 C1813 1.428 . S
H1808 C1804 0.930 . S
H1809 C1806 0.929 . S
S1810 N1811 1.613 . S
S1810 N1812 1.610 . S
N1811 S1810 1.613 . S
N1811 C1814 1.350 . S
N1812 S1810 1.610 . S
N1812 C1813 1.351 . S
C1813 C1807 1.428 . S
C1813 N1812 1.351 . S
C1813 C1814 1.434 . S
C1814 C1805 1.429 . S
C1814 N1811 1.350 . S
C1814 C1813 1.434 . S
C1815 C1816 1.369 . S
C1815 C1817 1.419 . S
C1815 H1819 0.930 . S
C1816 C1815 1.369 . S
C1816 C1825 1.429 . S
C1817 C1815 1.419 . S
C1817 C1818 1.363 . S
C1817 H1820 0.929 . S
C1818 C1817 1.363 . S
C1818 C1824 1.428 . S
H1819 C1815 0.930 . S
H1820 C1817 0.929 . S
S1821 N1822 1.613 . S
S1821 N1823 1.610 . S
N1822 S1821 1.613 . S
N1822 C1825 1.350 . S
N1823 S1821 1.610 . S
N1823 C1824 1.351 . S
C1824 C1818 1.428 . S
C1824 N1823 1.351 . S
C1824 C1825 1.434 . S
C1825 C1816 1.429 . S
C1825 N1822 1.350 . S
C1825 C1824 1.434 . S
C1826 C1827 1.369 . S
C1826 C1828 1.419 . S
C1826 H1830 0.930 . S
C1827 C1826 1.369 . S
C1827 C1836 1.429 . S
C1828 C1826 1.419 . S
C1828 C1829 1.363 . S
C1828 H1831 0.929 . S
C1829 C1828 1.363 . S
C1829 C1835 1.428 . S
H1830 C1826 0.930 . S
H1831 C1828 0.929 . S
S1832 N1833 1.613 . S
S1832 N1834 1.610 . S
N1833 S1832 1.613 . S
N1833 C1836 1.350 . S
N1834 S1832 1.610 . S
N1834 C1835 1.351 . S
C1835 C1829 1.428 . S
C1835 N1834 1.351 . S
C1835 C1836 1.434 . S
C1836 C1827 1.429 . S
C1836 N1833 1.350 . S
C1836 C1835 1.434 . S
C1837 C1838 1.369 . S
C1837 C1839 1.419 . S
C1837 H1841 0.930 . S
C1838 C1837 1.369 . S
C1838 C1847 1.429 . S
C1839 C1837 1.419 . S
C1839 C1840 1.363 . S
C1839 H1842 0.929 . S
C1840 C1839 1.363 . S
C1840 C1846 1.428 . S
H1841 C1837 0.930 . S
H1842 C1839 0.929 . S
S1843 N1844 1.613 . S
S1843 N1845 1.610 . S
N1844 S1843 1.613 . S
N1844 C1847 1.350 . S
N1845 S1843 1.610 . S
N1845 C1846 1.351 . S
C1846 C1840 1.428 . S
C1846 N1845 1.351 . S
C1846 C1847 1.434 . S
C1847 C1838 1.429 . S
C1847 N1844 1.350 . S
C1847 C1846 1.434 . S
C1848 C1849 1.369 . S
C1848 C1850 1.419 . S
C1848 H1852 0.930 . S
C1849 C1848 1.369 . S
C1849 C1858 1.429 . S
C1850 C1848 1.419 . S
C1850 C1851 1.363 . S
C1850 H1853 0.929 . S
C1851 C1850 1.363 . S
C1851 C1857 1.428 . S
H1852 C1848 0.930 . S
H1853 C1850 0.929 . S
S1854 N1855 1.613 . S
S1854 N1856 1.610 . S
N1855 S1854 1.613 . S
N1855 C1858 1.350 . S
N1856 S1854 1.610 . S
N1856 C1857 1.351 . S
C1857 C1851 1.428 . S
C1857 N1856 1.351 . S
C1857 C1858 1.434 . S
C1858 C1849 1.429 . S
C1858 N1855 1.350 . S
C1858 C1857 1.434 . S
C1859 C1860 1.369 . S
C1859 C1861 1.419 . S
C1859 H1863 0.930 . S
C1860 C1859 1.369 . S
C1860 C1869 1.429 . S
C1861 C1859 1.419 . S
C1861 C1862 1.363 . S
C1861 H1864 0.929 . S
C1862 C1861 1.363 . S
C1862 C1868 1.428 . S
H1863 C1859 0.930 . S
H1864 C1861 0.929 . S
S1865 N1866 1.613 . S
S1865 N1867 1.610 . S
N1866 S1865 1.613 . S
N1866 C1869 1.350 . S
N1867 S1865 1.610 . S
N1867 C1868 1.351 . S
C1868 C1862 1.428 . S
C1868 N1867 1.351 . S
C1868 C1869 1.434 . S
C1869 C1860 1.429 . S
C1869 N1866 1.350 . S
C1869 C1868 1.434 . S
C1870 C1871 1.369 . S
C1870 C1872 1.419 . S
C1870 H1874 0.930 . S
C1871 C1870 1.369 . S
C1871 C1880 1.429 . S
C1872 C1870 1.419 . S
C1872 C1873 1.363 . S
C1872 H1875 0.929 . S
C1873 C1872 1.363 . S
C1873 C1879 1.428 . S
H1874 C1870 0.930 . S
H1875 C1872 0.929 . S
S1876 N1877 1.613 . S
S1876 N1878 1.610 . S
N1877 S1876 1.613 . S
N1877 C1880 1.350 . S
N1878 S1876 1.610 . S
N1878 C1879 1.351 . S
C1879 C1873 1.428 . S
C1879 N1878 1.351 . S
C1879 C1880 1.434 . S
C1880 C1871 1.429 . S
C1880 N1877 1.350 . S
C1880 C1879 1.434 . S
C1881 C1882 1.369 . S
C1881 C1883 1.419 . S
C1881 H1885 0.930 . S
C1882 C1881 1.369 . S
C1882 C1891 1.429 . S
C1883 C1881 1.419 . S
C1883 C1884 1.363 . S
C1883 H1886 0.929 . S
C1884 C1883 1.363 . S
C1884 C1890 1.428 . S
H1885 C1881 0.930 . S
H1886 C1883 0.929 . S
S1887 N1888 1.613 . S
S1887 N1889 1.610 . S
N1888 S1887 1.613 . S
N1888 C1891 1.350 . S
N1889 S1887 1.610 . S
N1889 C1890 1.351 . S
C1890 C1884 1.428 . S
C1890 N1889 1.351 . S
C1890 C1891 1.434 . S
C1891 C1882 1.429 . S
C1891 N1888 1.350 . S
C1891 C1890 1.434 . S
C1892 C1893 1.369 . S
C1892 C1894 1.419 . S
C1892 H1896 0.930 . S
C1893 C1892 1.369 . S
C1893 C1902 1.429 . S
C1894 C1892 1.419 . S
C1894 C1895 1.363 . S
C1894 H1897 0.929 . S
C1895 C1894 1.363 . S
C1895 C1901 1.428 . S
H1896 C1892 0.930 . S
H1897 C1894 0.929 . S
S1898 N1899 1.613 . S
S1898 N1900 1.610 . S
N1899 S1898 1.613 . S
N1899 C1902 1.350 . S
N1900 S1898 1.610 . S
N1900 C1901 1.351 . S
C1901 C1895 1.428 . S
C1901 N1900 1.351 . S
C1901 C1902 1.434 . S
C1902 C1893 1.429 . S
C1902 N1899 1.350 . S
C1902 C1901 1.434 . S
C1903 C1904 1.369 . S
C1903 C1905 1.419 . S
C1903 H1907 0.930 . S
C1904 C1903 1.369 . S
C1904 C1913 1.429 . S
C1905 C1903 1.419 . S
C1905 C1906 1.363 . S
C1905 H1908 0.929 . S
C1906 C1905 1.363 . S
C1906 C1912 1.428 . S
H1907 C1903 0.930 . S
H1908 C1905 0.929 . S
S1909 N1910 1.613 . S
S1909 N1911 1.610 . S
N1910 S1909 1.613 . S
N1910 C1913 1.350 . S
N1911 S1909 1.610 . S
N1911 C1912 1.351 . S
C1912 C1906 1.428 . S
C1912 N1911 1.351 . S
C1912 C1913 1.434 . S
C1913 C1904 1.429 . S
C1913 N1910 1.350 . S
C1913 C1912 1.434 . S
C1914 C1915 1.369 1_554 S
C1914 C1916 1.419 . S
C1914 H1918 0.930 1_554 S
C1915 C1914 1.369 1_556 S
C1915 C1924 1.429 1_556 S
C1916 C1914 1.419 . S
C1916 C1917 1.363 . S
C1916 H1919 0.929 . S
C1917 C1916 1.363 . S
C1917 C1923 1.428 . S
H1918 C1914 0.930 1_556 S
H1919 C1916 0.929 . S
S1920 N1921 1.613 1_554 S
S1920 N1922 1.610 . S
N1921 S1920 1.613 1_556 S
N1921 C1924 1.350 1_556 S
N1922 S1920 1.610 . S
N1922 C1923 1.351 . S
C1923 C1917 1.428 . S
C1923 N1922 1.351 . S
C1923 C1924 1.434 . S
C1924 C1915 1.429 1_554 S
C1924 N1921 1.350 1_554 S
C1924 C1923 1.434 . S
C1925 C1926 1.369 1_554 S
C1925 C1927 1.419 . S
C1925 H1929 0.930 1_554 S
C1926 C1925 1.369 1_556 S
C1926 C1935 1.429 1_556 S
C1927 C1925 1.419 . S
C1927 C1928 1.363 . S
C1927 H1930 0.929 . S
C1928 C1927 1.363 . S
C1928 C1934 1.428 . S
H1929 C1925 0.930 1_556 S
H1930 C1927 0.929 . S
S1931 N1932 1.613 1_554 S
S1931 N1933 1.610 . S
N1932 S1931 1.613 1_556 S
N1932 C1935 1.350 1_556 S
N1933 S1931 1.610 . S
N1933 C1934 1.351 . S
C1934 C1928 1.428 . S
C1934 N1933 1.351 . S
C1934 C1935 1.434 . S
C1935 C1926 1.429 1_554 S
C1935 N1932 1.350 1_554 S
C1935 C1934 1.434 . S
C1936 C1937 1.369 1_554 S
C1936 C1938 1.419 . S
C1936 H1940 0.930 1_554 S
C1937 C1936 1.369 1_556 S
C1937 C1946 1.429 1_556 S
C1938 C1936 1.419 . S
C1938 C1939 1.363 . S
C1938 H1941 0.929 . S
C1939 C1938 1.363 . S
C1939 C1945 1.428 . S
H1940 C1936 0.930 1_556 S
H1941 C1938 0.929 . S
S1942 N1943 1.613 1_554 S
S1942 N1944 1.610 . S
N1943 S1942 1.613 1_556 S
N1943 C1946 1.350 1_556 S
N1944 S1942 1.610 . S
N1944 C1945 1.351 . S
C1945 C1939 1.428 . S
C1945 N1944 1.351 . S
C1945 C1946 1.434 . S
C1946 C1937 1.429 1_554 S
C1946 N1943 1.350 1_554 S
C1946 C1945 1.434 . S
C1947 C1948 1.369 . S
C1947 C1949 1.419 . S
C1947 H1951 0.930 . S
C1948 C1947 1.369 . S
C1948 C1957 1.429 . S
C1949 C1947 1.419 . S
C1949 C1950 1.363 . S
C1949 H1952 0.929 . S
C1950 C1949 1.363 . S
C1950 C1956 1.428 . S
H1951 C1947 0.930 . S
H1952 C1949 0.929 . S
S1953 N1954 1.613 . S
S1953 N1955 1.610 . S
N1954 S1953 1.613 . S
N1954 C1957 1.350 . S
N1955 S1953 1.610 . S
N1955 C1956 1.351 . S
C1956 C1950 1.428 . S
C1956 N1955 1.351 . S
C1956 C1957 1.434 . S
C1957 C1948 1.429 . S
C1957 N1954 1.350 . S
C1957 C1956 1.434 . S
C1958 C1959 1.369 . S
C1958 C1960 1.419 . S
C1958 H1962 0.930 . S
C1959 C1958 1.369 . S
C1959 C1968 1.429 . S
C1960 C1958 1.419 . S
C1960 C1961 1.363 . S
C1960 H1963 0.929 . S
C1961 C1960 1.363 . S
C1961 C1967 1.428 . S
H1962 C1958 0.930 . S
H1963 C1960 0.929 . S
S1964 N1965 1.613 . S
S1964 N1966 1.610 . S
N1965 S1964 1.613 . S
N1965 C1968 1.350 . S
N1966 S1964 1.610 . S
N1966 C1967 1.351 . S
C1967 C1961 1.428 . S
C1967 N1966 1.351 . S
C1967 C1968 1.434 . S
C1968 C1959 1.429 . S
C1968 N1965 1.350 . S
C1968 C1967 1.434 . S
C1969 C1970 1.369 . S
C1969 C1971 1.419 . S
C1969 H1973 0.930 . S
C1970 C1969 1.369 . S
C1970 C1979 1.429 . S
C1971 C1969 1.419 . S
C1971 C1972 1.363 . S
C1971 H1974 0.929 . S
C1972 C1971 1.363 . S
C1972 C1978 1.428 . S
H1973 C1969 0.930 . S
H1974 C1971 0.929 . S
S1975 N1976 1.613 . S
S1975 N1977 1.610 . S
N1976 S1975 1.613 . S
N1976 C1979 1.350 . S
N1977 S1975 1.610 . S
N1977 C1978 1.351 . S
C1978 C1972 1.428 . S
C1978 N1977 1.351 . S
C1978 C1979 1.434 . S
C1979 C1970 1.429 . S
C1979 N1976 1.350 . S
C1979 C1978 1.434 . S
C1980 C1981 1.369 . S
C1980 C1982 1.419 . S
C1980 H1984 0.930 . S
C1981 C1980 1.369 . S
C1981 C1990 1.429 . S
C1982 C1980 1.419 . S
C1982 C1983 1.363 . S
C1982 H1985 0.929 . S
C1983 C1982 1.363 . S
C1983 C1989 1.428 . S
H1984 C1980 0.930 . S
H1985 C1982 0.929 . S
S1986 N1987 1.613 . S
S1986 N1988 1.610 . S
N1987 S1986 1.613 . S
N1987 C1990 1.350 . S
N1988 S1986 1.610 . S
N1988 C1989 1.351 . S
C1989 C1983 1.428 . S
C1989 N1988 1.351 . S
C1989 C1990 1.434 . S
C1990 C1981 1.429 . S
C1990 N1987 1.350 . S
C1990 C1989 1.434 . S
C1991 C1992 1.369 . S
C1991 C1993 1.419 . S
C1991 H1995 0.930 . S
C1992 C1991 1.369 . S
C1992 C2001 1.429 . S
C1993 C1991 1.419 . S
C1993 C1994 1.363 . S
C1993 H1996 0.929 . S
C1994 C1993 1.363 . S
C1994 C2000 1.428 . S
H1995 C1991 0.930 . S
H1996 C1993 0.929 . S
S1997 N1998 1.613 . S
S1997 N1999 1.610 . S
N1998 S1997 1.613 . S
N1998 C2001 1.350 . S
N1999 S1997 1.610 . S
N1999 C2000 1.351 . S
C2000 C1994 1.428 . S
C2000 N1999 1.351 . S
C2000 C2001 1.434 . S
C2001 C1992 1.429 . S
C2001 N1998 1.350 . S
C2001 C2000 1.434 . S
C2002 C2003 1.369 . S
C2002 C2004 1.419 . S
C2002 H2006 0.930 . S
C2003 C2002 1.369 . S
C2003 C2012 1.429 . S
C2004 C2002 1.419 . S
C2004 C2005 1.363 . S
C2004 H2007 0.929 . S
C2005 C2004 1.363 . S
C2005 C2011 1.428 . S
H2006 C2002 0.930 . S
H2007 C2004 0.929 . S
S2008 N2009 1.613 . S
S2008 N2010 1.610 . S
N2009 S2008 1.613 . S
N2009 C2012 1.350 . S
N2010 S2008 1.610 . S
N2010 C2011 1.351 . S
C2011 C2005 1.428 . S
C2011 N2010 1.351 . S
C2011 C2012 1.434 . S
C2012 C2003 1.429 . S
C2012 N2009 1.350 . S
C2012 C2011 1.434 . S
C2013 C2014 1.369 . S
C2013 C2015 1.419 . S
C2013 H2017 0.930 . S
C2014 C2013 1.369 . S
C2014 C2023 1.429 . S
C2015 C2013 1.419 . S
C2015 C2016 1.363 1_554 S
C2015 H2018 0.929 1_554 S
C2016 C2015 1.363 1_556 S
C2016 C2022 1.428 1_556 S
H2017 C2013 0.930 . S
H2018 C2015 0.929 1_556 S
S2019 N2020 1.613 . S
S2019 N2021 1.610 1_554 S
N2020 S2019 1.613 . S
N2020 C2023 1.350 . S
N2021 S2019 1.610 1_556 S
N2021 C2022 1.351 1_556 S
C2022 C2016 1.428 1_554 S
C2022 N2021 1.351 1_554 S
C2022 C2023 1.434 . S
C2023 C2014 1.429 . S
C2023 N2020 1.350 . S
C2023 C2022 1.434 . S
C2024 C2025 1.369 1_554 S
C2024 C2026 1.419 . S
C2024 H2028 0.930 1_554 S
C2025 C2024 1.369 1_556 S
C2025 C2034 1.429 1_556 S
C2026 C2024 1.419 . S
C2026 C2027 1.363 . S
C2026 H2029 0.929 . S
C2027 C2026 1.363 . S
C2027 C2033 1.428 . S
H2028 C2024 0.930 1_556 S
H2029 C2026 0.929 . S
S2030 N2031 1.613 1_554 S
S2030 N2032 1.610 . S
N2031 S2030 1.613 1_556 S
N2031 C2034 1.350 1_556 S
N2032 S2030 1.610 . S
N2032 C2033 1.351 . S
C2033 C2027 1.428 . S
C2033 N2032 1.351 . S
C2033 C2034 1.434 . S
C2034 C2025 1.429 1_554 S
C2034 N2031 1.350 1_554 S
C2034 C2033 1.434 . S
C2035 C2036 1.369 1_554 S
C2035 C2037 1.419 . S
C2035 H2039 0.930 1_554 S
C2036 C2035 1.369 1_556 S
C2036 C2045 1.429 1_556 S
C2037 C2035 1.419 . S
C2037 C2038 1.363 . S
C2037 H2040 0.929 . S
C2038 C2037 1.363 . S
C2038 C2044 1.428 . S
H2039 C2035 0.930 1_556 S
H2040 C2037 0.929 . S
S2041 N2042 1.613 1_554 S
S2041 N2043 1.610 . S
N2042 S2041 1.613 1_556 S
N2042 C2045 1.350 1_556 S
N2043 S2041 1.610 . S
N2043 C2044 1.351 . S
C2044 C2038 1.428 . S
C2044 N2043 1.351 . S
C2044 C2045 1.434 . S
C2045 C2036 1.429 1_554 S
C2045 N2042 1.350 1_554 S
C2045 C2044 1.434 . S
C2046 C2047 1.369 . S
C2046 C2048 1.419 . S
C2046 H2050 0.930 . S
C2047 C2046 1.369 . S
C2047 C2056 1.429 . S
C2048 C2046 1.419 . S
C2048 C2049 1.363 . S
C2048 H2051 0.929 . S
C2049 C2048 1.363 . S
C2049 C2055 1.428 . S
H2050 C2046 0.930 . S
H2051 C2048 0.929 . S
S2052 N2053 1.613 . S
S2052 N2054 1.610 . S
N2053 S2052 1.613 . S
N2053 C2056 1.350 . S
N2054 S2052 1.610 . S
N2054 C2055 1.351 . S
C2055 C2049 1.428 . S
C2055 N2054 1.351 . S
C2055 C2056 1.434 . S
C2056 C2047 1.429 . S
C2056 N2053 1.350 . S
C2056 C2055 1.434 . S
C2057 C2058 1.369 . S
C2057 C2059 1.419 . S
C2057 H2061 0.930 . S
C2058 C2057 1.369 . S
C2058 C2067 1.429 . S
C2059 C2057 1.419 . S
C2059 C2060 1.363 . S
C2059 H2062 0.929 . S
C2060 C2059 1.363 . S
C2060 C2066 1.428 . S
H2061 C2057 0.930 . S
H2062 C2059 0.929 . S
S2063 N2064 1.613 . S
S2063 N2065 1.610 . S
N2064 S2063 1.613 . S
N2064 C2067 1.350 . S
N2065 S2063 1.610 . S
N2065 C2066 1.351 . S
C2066 C2060 1.428 . S
C2066 N2065 1.351 . S
C2066 C2067 1.434 . S
C2067 C2058 1.429 . S
C2067 N2064 1.350 . S
C2067 C2066 1.434 . S
C2068 C2069 1.369 . S
C2068 C2070 1.419 . S
C2068 H2072 0.930 . S
C2069 C2068 1.369 . S
C2069 C2078 1.429 . S
C2070 C2068 1.419 . S
C2070 C2071 1.363 . S
C2070 H2073 0.929 . S
C2071 C2070 1.363 . S
C2071 C2077 1.428 . S
H2072 C2068 0.930 . S
H2073 C2070 0.929 . S
S2074 N2075 1.613 . S
S2074 N2076 1.610 . S
N2075 S2074 1.613 . S
N2075 C2078 1.350 . S
N2076 S2074 1.610 . S
N2076 C2077 1.351 . S
C2077 C2071 1.428 . S
C2077 N2076 1.351 . S
C2077 C2078 1.434 . S
C2078 C2069 1.429 . S
C2078 N2075 1.350 . S
C2078 C2077 1.434 . S
C2079 C2080 1.369 1_556 S
C2079 C2081 1.419 . S
C2079 H2083 0.930 1_556 S
C2080 C2079 1.369 1_554 S
C2080 C2089 1.429 1_554 S
C2081 C2079 1.419 . S
C2081 C2082 1.363 . S
C2081 H2084 0.929 . S
C2082 C2081 1.363 . S
C2082 C2088 1.428 . S
H2083 C2079 0.930 1_554 S
H2084 C2081 0.929 . S
S2085 N2086 1.613 1_556 S
S2085 N2087 1.610 . S
N2086 S2085 1.613 1_554 S
N2086 C2089 1.350 1_554 S
N2087 S2085 1.610 . S
N2087 C2088 1.351 . S
C2088 C2082 1.428 . S
C2088 N2087 1.351 . S
C2088 C2089 1.434 . S
C2089 C2080 1.429 1_556 S
C2089 N2086 1.350 1_556 S
C2089 C2088 1.434 . S
C2090 C2091 1.369 . S
C2090 C2092 1.419 . S
C2090 H2094 0.930 . S
C2091 C2090 1.369 . S
C2091 C2100 1.429 . S
C2092 C2090 1.419 . S
C2092 C2093 1.363 1_556 S
C2092 H2095 0.929 1_556 S
C2093 C2092 1.363 1_554 S
C2093 C2099 1.428 1_554 S
H2094 C2090 0.930 . S
H2095 C2092 0.929 1_554 S
S2096 N2097 1.613 . S
S2096 N2098 1.610 1_556 S
N2097 S2096 1.613 . S
N2097 C2100 1.350 . S
N2098 S2096 1.610 1_554 S
N2098 C2099 1.351 1_554 S
C2099 C2093 1.428 1_556 S
C2099 N2098 1.351 1_556 S
C2099 C2100 1.434 . S
C2100 C2091 1.429 . S
C2100 N2097 1.350 . S
C2100 C2099 1.434 . S
C2101 C2102 1.369 1_556 S
C2101 C2103 1.419 . S
C2101 H2105 0.930 1_556 S
C2102 C2101 1.369 1_554 S
C2102 C2111 1.429 1_554 S
C2103 C2101 1.419 . S
C2103 C2104 1.363 . S
C2103 H2106 0.929 . S
C2104 C2103 1.363 . S
C2104 C2110 1.428 . S
H2105 C2101 0.930 1_554 S
H2106 C2103 0.929 . S
S2107 N2108 1.613 1_556 S
S2107 N2109 1.610 . S
N2108 S2107 1.613 1_554 S
N2108 C2111 1.350 1_554 S
N2109 S2107 1.610 . S
N2109 C2110 1.351 . S
C2110 C2104 1.428 . S
C2110 N2109 1.351 . S
C2110 C2111 1.434 . S
C2111 C2102 1.429 1_556 S
C2111 N2108 1.350 1_556 S
C2111 C2110 1.434 . S
C2112 C2113 1.369 . S
C2112 C2114 1.419 . S
C2112 H2116 0.930 . S
C2113 C2112 1.369 . S
C2113 C2122 1.429 . S
C2114 C2112 1.419 . S
C2114 C2115 1.363 1_556 S
C2114 H2117 0.929 1_556 S
C2115 C2114 1.363 1_554 S
C2115 C2121 1.428 1_554 S
H2116 C2112 0.930 . S
H2117 C2114 0.929 1_554 S
S2118 N2119 1.613 . S
S2118 N2120 1.610 1_556 S
N2119 S2118 1.613 . S
N2119 C2122 1.350 . S
N2120 S2118 1.610 1_554 S
N2120 C2121 1.351 1_554 S
C2121 C2115 1.428 1_556 S
C2121 N2120 1.351 1_556 S
C2121 C2122 1.434 . S
C2122 C2113 1.429 . S
C2122 N2119 1.350 . S
C2122 C2121 1.434 . S
C2123 C2124 1.369 . S
C2123 C2125 1.419 . S
C2123 H2127 0.930 . S
C2124 C2123 1.369 . S
C2124 C2133 1.429 . S
C2125 C2123 1.419 . S
C2125 C2126 1.363 1_556 S
C2125 H2128 0.929 1_556 S
C2126 C2125 1.363 1_554 S
C2126 C2132 1.428 1_554 S
H2127 C2123 0.930 . S
H2128 C2125 0.929 1_554 S
S2129 N2130 1.613 . S
S2129 N2131 1.610 1_556 S
N2130 S2129 1.613 . S
N2130 C2133 1.350 . S
N2131 S2129 1.610 1_554 S
N2131 C2132 1.351 1_554 S
C2132 C2126 1.428 1_556 S
C2132 N2131 1.351 1_556 S
C2132 C2133 1.434 . S
C2133 C2124 1.429 . S
C2133 N2130 1.350 . S
C2133 C2132 1.434 . S
C2134 C2135 1.369 . S
C2134 C2136 1.419 . S
C2134 H2138 0.930 . S
C2135 C2134 1.369 . S
C2135 C2144 1.429 . S
C2136 C2134 1.419 . S
C2136 C2137 1.363 1_556 S
C2136 H2139 0.929 1_556 S
C2137 C2136 1.363 1_554 S
C2137 C2143 1.428 1_554 S
H2138 C2134 0.930 . S
H2139 C2136 0.929 1_554 S
S2140 N2141 1.613 . S
S2140 N2142 1.610 1_556 S
N2141 S2140 1.613 . S
N2141 C2144 1.350 . S
N2142 S2140 1.610 1_554 S
N2142 C2143 1.351 1_554 S
C2143 C2137 1.428 1_556 S
C2143 N2142 1.351 1_556 S
C2143 C2144 1.434 . S
C2144 C2135 1.429 . S
C2144 N2141 1.350 . S
C2144 C2143 1.434 . S
C2145 C2146 1.369 . S
C2145 C2147 1.419 . S
C2145 H2149 0.930 . S
C2146 C2145 1.369 . S
C2146 C2155 1.429 . S
C2147 C2145 1.419 . S
C2147 C2148 1.363 . S
C2147 H2150 0.929 . S
C2148 C2147 1.363 . S
C2148 C2154 1.428 . S
H2149 C2145 0.930 . S
H2150 C2147 0.929 . S
S2151 N2152 1.613 . S
S2151 N2153 1.610 . S
N2152 S2151 1.613 . S
N2152 C2155 1.350 . S
N2153 S2151 1.610 . S
N2153 C2154 1.351 . S
C2154 C2148 1.428 . S
C2154 N2153 1.351 . S
C2154 C2155 1.434 . S
C2155 C2146 1.429 . S
C2155 N2152 1.350 . S
C2155 C2154 1.434 . S
C2156 C2157 1.369 . S
C2156 C2158 1.419 . S
C2156 H2160 0.930 . S
C2157 C2156 1.369 . S
C2157 C2166 1.429 . S
C2158 C2156 1.419 . S
C2158 C2159 1.363 . S
C2158 H2161 0.929 . S
C2159 C2158 1.363 . S
C2159 C2165 1.428 . S
H2160 C2156 0.930 . S
H2161 C2158 0.929 . S
S2162 N2163 1.613 . S
S2162 N2164 1.610 . S
N2163 S2162 1.613 . S
N2163 C2166 1.350 . S
N2164 S2162 1.610 . S
N2164 C2165 1.351 . S
C2165 C2159 1.428 . S
C2165 N2164 1.351 . S
C2165 C2166 1.434 . S
C2166 C2157 1.429 . S
C2166 N2163 1.350 . S
C2166 C2165 1.434 . S
C2167 C2168 1.369 . S
C2167 C2169 1.419 . S
C2167 H2171 0.930 . S
C2168 C2167 1.369 . S
C2168 C2177 1.429 . S
C2169 C2167 1.419 . S
C2169 C2170 1.363 . S
C2169 H2172 0.929 . S
C2170 C2169 1.363 . S
C2170 C2176 1.428 . S
H2171 C2167 0.930 . S
H2172 C2169 0.929 . S
S2173 N2174 1.613 . S
S2173 N2175 1.610 . S
N2174 S2173 1.613 . S
N2174 C2177 1.350 . S
N2175 S2173 1.610 . S
N2175 C2176 1.351 . S
C2176 C2170 1.428 . S
C2176 N2175 1.351 . S
C2176 C2177 1.434 . S
C2177 C2168 1.429 . S
C2177 N2174 1.350 . S
C2177 C2176 1.434 . S
C1189 C28 1.048 . S
C1191 C523 1.049 . S
C1200 C556 1.052 . S
C1202 C61 1.051 . S
C1211 C589 1.052 . S
C1213 C94 1.052 . S
C1222 C820 1.051 . S
C1224 C127 1.051 . S
C1233 C160 1.052 . S
C1235 C853 1.051 . S
C1244 C886 1.049 . S
C1246 C193 1.049 . S
C1255 C1117 1.050 . S
C1257 C226 1.049 . S
C1266 C259 1.053 . S
C1268 C1150 1.052 . S
C1277 C1183 1.052 . S
C1279 C292 1.052 . S
C1288 C622 1.050 . S
C1290 C325 1.050 . S
C1299 C655 1.051 . S
C1301 C358 1.051 . S
C1310 C688 1.048 . S
C1312 C391 1.049 . S
C1321 C919 1.053 . S
C1323 C424 1.052 . S
C1332 C952 1.051 . S
C1334 C457 1.051 . S
C1343 C490 1.052 . S
C1345 C985 1.052 . S
C1354 C721 1.048 . S
C1356 C1018 1.049 . S
C1365 C1051 1.053 . S
C1367 C754 1.052 . S
C1376 C787 1.052 . S
C1378 C1084 1.052 . S
C1387 C965 1.567 . S
C1389 C8 1.567 . S
C1398 C41 1.565 . S
C1400 C899 1.565 . S
C1409 C932 1.568 . S
C1411 C74 1.568 . S
C1420 C437 1.569 . S
C1422 C107 1.569 . S
C1431 C470 1.567 . S
C1433 C140 1.567 . S
C1442 C404 1.567 . S
C1444 C173 1.567 . S
C1453 C206 1.565 . S
C1455 C767 1.566 . S
C1464 C701 1.568 . S
C1466 C239 1.568 . S
C1475 C272 1.565 . S
C1477 C734 1.565 . S
C1486 C1031 1.568 . S
C1488 C305 1.568 . S
C1497 C338 1.569 . S
C1499 C1064 1.568 . S
C1508 C371 1.569 . S
C1510 C998 1.568 . S
C1519 C833 1.565 . S
C1521 C503 1.566 . S
C1530 C866 1.567 . S
C1532 C536 1.567 . S
C1541 C569 1.568 . S
C1543 C800 1.567 . S
C1552 C602 1.567 . S
C1554 C1163 1.568 . S
C1563 C1097 1.568 . S
C1565 C635 1.568 . S
C1574 C1130 1.565 . S
C1576 C668 1.565 . S
C1585 C17 1.509 . S
C1587 C380 1.509 . S
C1596 C50 1.510 . S
C1598 C314 1.510 . S
C1607 C83 1.508 . S
C1609 C347 1.508 . S
C1618 C116 1.508 . S
C1620 C248 1.508 . S
C1629 C281 1.509 . S
C1631 C149 1.509 . S
C1640 C215 1.511 . S
C1642 C182 1.510 . S
C1651 C776 1.507 . S
C1653 C413 1.507 . S
C1662 C710 1.509 . S
C1664 C446 1.509 . S
C1673 C479 1.507 . S
C1675 C743 1.507 . S
C1684 C644 1.510 . S
C1686 C512 1.510 . S
C1695 C677 1.506 . S
C1697 C545 1.506 . S
C1706 C611 1.511 . S
C1708 C578 1.510 . S
C1717 C1172 1.504 . S
C1719 C809 1.505 . S
C1728 C842 1.506 . S
C1730 C1106 1.506 . S
C1739 C1139 1.509 . S
C1741 C875 1.509 . S
C1750 C1040 1.507 . S
C1752 C908 1.507 . S
C1761 C1073 1.510 . S
C1763 C941 1.509 . S
C1772 C1007 1.508 . S
C1774 C974 1.508 . S
C1783 N5 1.475 . S
C1785 N14 1.473 . S
C1794 N47 1.470 . S
C1796 N38 1.478 . S
C1805 N71 1.475 . S
C1807 N80 1.474 . S
C1816 N113 1.475 . S
C1818 N104 1.475 . S
C1827 N146 1.471 . S
C1829 N137 1.477 . S
C1838 N179 1.475 . S
C1840 N170 1.475 . S
C1849 N212 1.471 . S
C1851 N203 1.477 . S
C1860 N245 1.469 . S
C1862 N236 1.479 . S
C1871 N269 1.476 . S
C1873 N278 1.473 . S
C1882 N302 1.478 . S
C1884 N311 1.472 . S
C1893 N344 1.472 . S
C1895 N335 1.477 . S
C1904 N368 1.476 . S
C1906 N377 1.472 . S
C1915 N410 1.470 . S
C1917 N401 1.478 . S
C1926 N443 1.468 . S
C1928 N434 1.479 . S
C1937 N476 1.469 . S
C1939 N467 1.479 . S
C1948 N509 1.474 . S
C1950 N500 1.475 . S
C1959 N542 1.470 . S
C1961 N533 1.478 . S
C1970 N566 1.474 . S
C1972 N575 1.474 . S
C1981 N608 1.469 . S
C1983 N599 1.479 . S
C1992 N632 1.479 . S
C1994 N641 1.470 . S
C2003 N665 1.480 . S
C2005 N674 1.469 . S
C2014 N698 1.479 . S
C2016 N707 1.470 . S
C2025 N740 1.470 . S
C2027 N731 1.478 . S
C2036 N773 1.474 . S
C2038 N764 1.475 . S
C2047 N797 1.474 . S
C2049 N806 1.474 . S
C2058 N830 1.475 . S
C2060 N839 1.473 . S
C2069 N872 1.468 . S
C2071 N863 1.479 . S
C2080 N905 1.469 . S
C2082 N896 1.479 . S
C2091 N929 1.478 . S
C2093 N938 1.471 . S
C2102 N971 1.469 . S
C2104 N962 1.479 . S
C2113 N995 1.479 . S
C2115 N1004 1.469 . S
C2124 N1028 1.477 . S
C2126 N1037 1.472 . S
C2135 N1061 1.478 . S
C2137 N1070 1.470 . S
C2146 N1103 1.469 . S
C2148 N1094 1.479 . S
C2157 N1127 1.475 . S
C2159 N1136 1.473 . S
C2168 N1169 1.469 . S
C2170 N1160 1.479 . S
