# Generated by pormake.
# Topology ukp, (4)-cn, num edge types: 1
# Building blocks:
#     Node 0, Type 0, BuildingBlock: GALJAG_clean_sbu_0, # of connection points: 4
#     Node 1, Type 0, BuildingBlock: GALJAG_clean_sbu_0, # of connection points: 4
#     Node 2, Type 0, BuildingBlock: GALJAG_clean_sbu_0, # of connection points: 4
#     Node 3, Type 0, BuildingBlock: GALJAG_clean_sbu_0, # of connection points: 4
#     Node 4, Type 0, BuildingBlock: GALJAG_clean_sbu_0, # of connection points: 4
#     Node 5, Type 0, BuildingBlock: GALJAG_clean_sbu_0, # of connection points: 4
#     Node 6, Type 0, BuildingBlock: GALJAG_clean_sbu_0, # of connection points: 4
#     Node 7, Type 0, BuildingBlock: GALJAG_clean_sbu_0, # of connection points: 4
#     Node 8, Type 0, BuildingBlock: GALJAG_clean_sbu_0, # of connection points: 4
#     Node 9, Type 0, BuildingBlock: GALJAG_clean_sbu_0, # of connection points: 4
#     Node 10, Type 0, BuildingBlock: GALJAG_clean_sbu_0, # of connection points: 4
#     Node 11, Type 0, BuildingBlock: GALJAG_clean_sbu_0, # of connection points: 4
#     Node 12, Type 0, BuildingBlock: GALJAG_clean_sbu_0, # of connection points: 4
#     Node 13, Type 0, BuildingBlock: GALJAG_clean_sbu_0, # of connection points: 4
#     Node 14, Type 0, BuildingBlock: GALJAG_clean_sbu_0, # of connection points: 4
#     Node 15, Type 0, BuildingBlock: GALJAG_clean_sbu_0, # of connection points: 4
#     Node 16, Type 0, BuildingBlock: GALJAG_clean_sbu_0, # of connection points: 4
#     Node 17, Type 0, BuildingBlock: GALJAG_clean_sbu_0, # of connection points: 4
#     Node 18, Type 0, BuildingBlock: GALJAG_clean_sbu_0, # of connection points: 4
#     Node 19, Type 0, BuildingBlock: GALJAG_clean_sbu_0, # of connection points: 4
#     Node 20, Type 0, BuildingBlock: GALJAG_clean_sbu_0, # of connection points: 4
#     Node 21, Type 0, BuildingBlock: GALJAG_clean_sbu_0, # of connection points: 4
#     Node 22, Type 0, BuildingBlock: GALJAG_clean_sbu_0, # of connection points: 4
#     Node 23, Type 0, BuildingBlock: GALJAG_clean_sbu_0, # of connection points: 4
#     Node 24, Type 0, BuildingBlock: GALJAG_clean_sbu_0, # of connection points: 4
#     Node 25, Type 0, BuildingBlock: GALJAG_clean_sbu_0, # of connection points: 4
#     Node 26, Type 0, BuildingBlock: GALJAG_clean_sbu_0, # of connection points: 4
#     Node 27, Type 0, BuildingBlock: GALJAG_clean_sbu_0, # of connection points: 4
#     Node 28, Type 0, BuildingBlock: GALJAG_clean_sbu_0, # of connection points: 4
#     Node 29, Type 0, BuildingBlock: GALJAG_clean_sbu_0, # of connection points: 4
#     Node 30, Type 0, BuildingBlock: GALJAG_clean_sbu_0, # of connection points: 4
#     Node 31, Type 0, BuildingBlock: GALJAG_clean_sbu_0, # of connection points: 4
#     Node 32, Type 0, BuildingBlock: GALJAG_clean_sbu_0, # of connection points: 4
#     Node 33, Type 0, BuildingBlock: GALJAG_clean_sbu_0, # of connection points: 4
#     Node 34, Type 0, BuildingBlock: GALJAG_clean_sbu_0, # of connection points: 4
#     Node 35, Type 0, BuildingBlock: GALJAG_clean_sbu_0, # of connection points: 4
#     Node 36, Type 0, BuildingBlock: GALJAG_clean_sbu_0, # of connection points: 4
#     Node 37, Type 0, BuildingBlock: GALJAG_clean_sbu_0, # of connection points: 4
#     Node 38, Type 0, BuildingBlock: GALJAG_clean_sbu_0, # of connection points: 4
#     Node 39, Type 0, BuildingBlock: GALJAG_clean_sbu_0, # of connection points: 4
#     Node 40, Type 0, BuildingBlock: GALJAG_clean_sbu_0, # of connection points: 4
#     Node 41, Type 0, BuildingBlock: GALJAG_clean_sbu_0, # of connection points: 4
#     Node 42, Type 0, BuildingBlock: GALJAG_clean_sbu_0, # of connection points: 4
#     Node 43, Type 0, BuildingBlock: GALJAG_clean_sbu_0, # of connection points: 4
#     Node 44, Type 0, BuildingBlock: GALJAG_clean_sbu_0, # of connection points: 4
#     Node 45, Type 0, BuildingBlock: GALJAG_clean_sbu_0, # of connection points: 4
#     Node 46, Type 0, BuildingBlock: GALJAG_clean_sbu_0, # of connection points: 4
#     Node 47, Type 0, BuildingBlock: GALJAG_clean_sbu_0, # of connection points: 4
#     Edge 48, Type (0, 0), BuildingBlock: ZUJKAS_clean_linker_0, # of connection points: 2
#     Edge 49, Type (0, 0), BuildingBlock: ZUJKAS_clean_linker_0, # of connection points: 2
#     Edge 50, Type (0, 0), BuildingBlock: ZUJKAS_clean_linker_0, # of connection points: 2
#     Edge 51, Type (0, 0), BuildingBlock: ZUJKAS_clean_linker_0, # of connection points: 2
#     Edge 52, Type (0, 0), BuildingBlock: ZUJKAS_clean_linker_0, # of connection points: 2
#     Edge 53, Type (0, 0), BuildingBlock: ZUJKAS_clean_linker_0, # of connection points: 2
#     Edge 54, Type (0, 0), BuildingBlock: ZUJKAS_clean_linker_0, # of connection points: 2
#     Edge 55, Type (0, 0), BuildingBlock: ZUJKAS_clean_linker_0, # of connection points: 2
#     Edge 56, Type (0, 0), BuildingBlock: ZUJKAS_clean_linker_0, # of connection points: 2
#     Edge 57, Type (0, 0), BuildingBlock: ZUJKAS_clean_linker_0, # of connection points: 2
#     Edge 58, Type (0, 0), BuildingBlock: ZUJKAS_clean_linker_0, # of connection points: 2
#     Edge 59, Type (0, 0), BuildingBlock: ZUJKAS_clean_linker_0, # of connection points: 2
#     Edge 60, Type (0, 0), BuildingBlock: ZUJKAS_clean_linker_0, # of connection points: 2
#     Edge 61, Type (0, 0), BuildingBlock: ZUJKAS_clean_linker_0, # of connection points: 2
#     Edge 62, Type (0, 0), BuildingBlock: ZUJKAS_clean_linker_0, # of connection points: 2
#     Edge 63, Type (0, 0), BuildingBlock: ZUJKAS_clean_linker_0, # of connection points: 2
#     Edge 64, Type (0, 0), BuildingBlock: ZUJKAS_clean_linker_0, # of connection points: 2
#     Edge 65, Type (0, 0), BuildingBlock: ZUJKAS_clean_linker_0, # of connection points: 2
#     Edge 66, Type (0, 0), BuildingBlock: ZUJKAS_clean_linker_0, # of connection points: 2
#     Edge 67, Type (0, 0), BuildingBlock: ZUJKAS_clean_linker_0, # of connection points: 2
#     Edge 68, Type (0, 0), BuildingBlock: ZUJKAS_clean_linker_0, # of connection points: 2
#     Edge 69, Type (0, 0), BuildingBlock: ZUJKAS_clean_linker_0, # of connection points: 2
#     Edge 70, Type (0, 0), BuildingBlock: ZUJKAS_clean_linker_0, # of connection points: 2
#     Edge 71, Type (0, 0), BuildingBlock: ZUJKAS_clean_linker_0, # of connection points: 2
#     Edge 72, Type (0, 0), BuildingBlock: ZUJKAS_clean_linker_0, # of connection points: 2
#     Edge 73, Type (0, 0), BuildingBlock: ZUJKAS_clean_linker_0, # of connection points: 2
#     Edge 74, Type (0, 0), BuildingBlock: ZUJKAS_clean_linker_0, # of connection points: 2
#     Edge 75, Type (0, 0), BuildingBlock: ZUJKAS_clean_linker_0, # of connection points: 2
#     Edge 76, Type (0, 0), BuildingBlock: ZUJKAS_clean_linker_0, # of connection points: 2
#     Edge 77, Type (0, 0), BuildingBlock: ZUJKAS_clean_linker_0, # of connection points: 2
#     Edge 78, Type (0, 0), BuildingBlock: ZUJKAS_clean_linker_0, # of connection points: 2
#     Edge 79, Type (0, 0), BuildingBlock: ZUJKAS_clean_linker_0, # of connection points: 2
#     Edge 80, Type (0, 0), BuildingBlock: ZUJKAS_clean_linker_0, # of connection points: 2
#     Edge 81, Type (0, 0), BuildingBlock: ZUJKAS_clean_linker_0, # of connection points: 2
#     Edge 82, Type (0, 0), BuildingBlock: ZUJKAS_clean_linker_0, # of connection points: 2
#     Edge 83, Type (0, 0), BuildingBlock: ZUJKAS_clean_linker_0, # of connection points: 2
#     Edge 84, Type (0, 0), BuildingBlock: ZUJKAS_clean_linker_0, # of connection points: 2
#     Edge 85, Type (0, 0), BuildingBlock: ZUJKAS_clean_linker_0, # of connection points: 2
#     Edge 86, Type (0, 0), BuildingBlock: ZUJKAS_clean_linker_0, # of connection points: 2
#     Edge 87, Type (0, 0), BuildingBlock: ZUJKAS_clean_linker_0, # of connection points: 2
#     Edge 88, Type (0, 0), BuildingBlock: ZUJKAS_clean_linker_0, # of connection points: 2
#     Edge 89, Type (0, 0), BuildingBlock: ZUJKAS_clean_linker_0, # of connection points: 2
#     Edge 90, Type (0, 0), BuildingBlock: ZUJKAS_clean_linker_0, # of connection points: 2
#     Edge 91, Type (0, 0), BuildingBlock: ZUJKAS_clean_linker_0, # of connection points: 2
#     Edge 92, Type (0, 0), BuildingBlock: ZUJKAS_clean_linker_0, # of connection points: 2
#     Edge 93, Type (0, 0), BuildingBlock: ZUJKAS_clean_linker_0, # of connection points: 2
#     Edge 94, Type (0, 0), BuildingBlock: ZUJKAS_clean_linker_0, # of connection points: 2
#     Edge 95, Type (0, 0), BuildingBlock: ZUJKAS_clean_linker_0, # of connection points: 2
#     Edge 96, Type (0, 0), BuildingBlock: ZUJKAS_clean_linker_0, # of connection points: 2
#     Edge 97, Type (0, 0), BuildingBlock: ZUJKAS_clean_linker_0, # of connection points: 2
#     Edge 98, Type (0, 0), BuildingBlock: ZUJKAS_clean_linker_0, # of connection points: 2
#     Edge 99, Type (0, 0), BuildingBlock: ZUJKAS_clean_linker_0, # of connection points: 2
#     Edge 100, Type (0, 0), BuildingBlock: ZUJKAS_clean_linker_0, # of connection points: 2
#     Edge 101, Type (0, 0), BuildingBlock: ZUJKAS_clean_linker_0, # of connection points: 2
#     Edge 102, Type (0, 0), BuildingBlock: ZUJKAS_clean_linker_0, # of connection points: 2
#     Edge 103, Type (0, 0), BuildingBlock: ZUJKAS_clean_linker_0, # of connection points: 2
#     Edge 104, Type (0, 0), BuildingBlock: ZUJKAS_clean_linker_0, # of connection points: 2
#     Edge 105, Type (0, 0), BuildingBlock: ZUJKAS_clean_linker_0, # of connection points: 2
#     Edge 106, Type (0, 0), BuildingBlock: ZUJKAS_clean_linker_0, # of connection points: 2
#     Edge 107, Type (0, 0), BuildingBlock: ZUJKAS_clean_linker_0, # of connection points: 2
#     Edge 108, Type (0, 0), BuildingBlock: ZUJKAS_clean_linker_0, # of connection points: 2
#     Edge 109, Type (0, 0), BuildingBlock: ZUJKAS_clean_linker_0, # of connection points: 2
#     Edge 110, Type (0, 0), BuildingBlock: ZUJKAS_clean_linker_0, # of connection points: 2
#     Edge 111, Type (0, 0), BuildingBlock: ZUJKAS_clean_linker_0, # of connection points: 2
#     Edge 112, Type (0, 0), BuildingBlock: ZUJKAS_clean_linker_0, # of connection points: 2
#     Edge 113, Type (0, 0), BuildingBlock: ZUJKAS_clean_linker_0, # of connection points: 2
#     Edge 114, Type (0, 0), BuildingBlock: ZUJKAS_clean_linker_0, # of connection points: 2
#     Edge 115, Type (0, 0), BuildingBlock: ZUJKAS_clean_linker_0, # of connection points: 2
#     Edge 116, Type (0, 0), BuildingBlock: ZUJKAS_clean_linker_0, # of connection points: 2
#     Edge 117, Type (0, 0), BuildingBlock: ZUJKAS_clean_linker_0, # of connection points: 2
#     Edge 118, Type (0, 0), BuildingBlock: ZUJKAS_clean_linker_0, # of connection points: 2
#     Edge 119, Type (0, 0), BuildingBlock: ZUJKAS_clean_linker_0, # of connection points: 2
#     Edge 120, Type (0, 0), BuildingBlock: ZUJKAS_clean_linker_0, # of connection points: 2
#     Edge 121, Type (0, 0), BuildingBlock: ZUJKAS_clean_linker_0, # of connection points: 2
#     Edge 122, Type (0, 0), BuildingBlock: ZUJKAS_clean_linker_0, # of connection points: 2
#     Edge 123, Type (0, 0), BuildingBlock: ZUJKAS_clean_linker_0, # of connection points: 2
#     Edge 124, Type (0, 0), BuildingBlock: ZUJKAS_clean_linker_0, # of connection points: 2
#     Edge 125, Type (0, 0), BuildingBlock: ZUJKAS_clean_linker_0, # of connection points: 2
#     Edge 126, Type (0, 0), BuildingBlock: ZUJKAS_clean_linker_0, # of connection points: 2
#     Edge 127, Type (0, 0), BuildingBlock: ZUJKAS_clean_linker_0, # of connection points: 2
#     Edge 128, Type (0, 0), BuildingBlock: ZUJKAS_clean_linker_0, # of connection points: 2
#     Edge 129, Type (0, 0), BuildingBlock: ZUJKAS_clean_linker_0, # of connection points: 2
#     Edge 130, Type (0, 0), BuildingBlock: ZUJKAS_clean_linker_0, # of connection points: 2
#     Edge 131, Type (0, 0), BuildingBlock: ZUJKAS_clean_linker_0, # of connection points: 2
#     Edge 132, Type (0, 0), BuildingBlock: ZUJKAS_clean_linker_0, # of connection points: 2
#     Edge 133, Type (0, 0), BuildingBlock: ZUJKAS_clean_linker_0, # of connection points: 2
#     Edge 134, Type (0, 0), BuildingBlock: ZUJKAS_clean_linker_0, # of connection points: 2
#     Edge 135, Type (0, 0), BuildingBlock: ZUJKAS_clean_linker_0, # of connection points: 2
#     Edge 136, Type (0, 0), BuildingBlock: ZUJKAS_clean_linker_0, # of connection points: 2
#     Edge 137, Type (0, 0), BuildingBlock: ZUJKAS_clean_linker_0, # of connection points: 2
#     Edge 138, Type (0, 0), BuildingBlock: ZUJKAS_clean_linker_0, # of connection points: 2
#     Edge 139, Type (0, 0), BuildingBlock: ZUJKAS_clean_linker_0, # of connection points: 2
#     Edge 140, Type (0, 0), BuildingBlock: ZUJKAS_clean_linker_0, # of connection points: 2
#     Edge 141, Type (0, 0), BuildingBlock: ZUJKAS_clean_linker_0, # of connection points: 2
#     Edge 142, Type (0, 0), BuildingBlock: ZUJKAS_clean_linker_0, # of connection points: 2
#     Edge 143, Type (0, 0), BuildingBlock: ZUJKAS_clean_linker_0, # of connection points: 2
# Relax obj value: 0.196
# Max RMSD: 0.253
# Mean RMSD: 0.253
data_MOF--net-ukp--node1-GALJAG_clean_sbu_0--edge1-ZUJKAS_clean_linker_0
_symmetry_space_group_name_H-M    P1
_symmetry_Int_Tables_number       1
_symmetry_cell_setting            triclinic
loop_
_symmetry_equiv_pos_as_xyz
'x, y, z'
_cell_length_a     80.893783
_cell_length_b     80.875052
_cell_length_c     80.884251
_cell_angle_alpha  90.004769
_cell_angle_beta   90.010701
_cell_angle_gamma 89.985387
loop_
_atom_site_label
_atom_site_type_symbol
_atom_site_fract_x
_atom_site_fract_y
_atom_site_fract_z
_atom_type_partial_charge
In0 In 0.19804 0.27278 0.37903 0.0
O1 O 0.17351 0.25893 0.3812 0.0
O2 O 0.19286 0.25318 0.39815 0.0
C3 C 0.19341 0.29269 0.35288 0.0
C4 C 0.19876 0.29675 0.40209 0.0
C5 C 0.22157 0.25233 0.36743 0.0
O6 O 0.18294 0.28174 0.35678 0.0
O7 O 0.20601 0.29334 0.36205 0.0
O8 O 0.22338 0.26035 0.38073 0.0
O9 O 0.20807 0.25481 0.36003 0.0
C10 C 0.17829 0.25034 0.39337 0.0
O11 O 0.21183 0.28993 0.39688 0.0
O12 O 0.18555 0.29113 0.39598 0.0
In13 In 0.9759 0.94911 0.62498 0.0
O14 O 0.98877 0.92422 0.62766 0.0
O15 O 0.98925 0.94098 0.64805 0.0
C16 C 0.96061 0.94748 0.59558 0.0
C17 C 0.94885 0.95128 0.64417 0.0
C18 C 0.00052 0.96997 0.61719 0.0
O19 O 0.96629 0.93469 0.60256 0.0
O20 O 0.9629 0.96081 0.60334 0.0
O21 O 0.9881 0.9746 0.62553 0.0
O22 O 0.00047 0.95492 0.61306 0.0
C23 C 0.99353 0.92712 0.64228 0.0
O24 O 0.95919 0.963 0.64334 0.0
O25 O 0.95236 0.93879 0.63552 0.0
In26 In 0.30073 0.72617 0.87251 0.0
O27 O 0.32525 0.73934 0.87705 0.0
O28 O 0.30376 0.74782 0.88976 0.0
C29 C 0.30796 0.70293 0.84997 0.0
C30 C 0.29682 0.70516 0.89792 0.0
C31 C 0.27918 0.74523 0.85586 0.0
O32 O 0.3169 0.71566 0.85162 0.0
O33 O 0.29556 0.70227 0.85936 0.0
O34 O 0.2752 0.73773 0.86899 0.0
O35 O 0.2938 0.74276 0.85106 0.0
C36 C 0.31903 0.74956 0.88713 0.0
O37 O 0.28458 0.71179 0.89074 0.0
O38 O 0.31079 0.70971 0.89265 0.0
In39 In 0.5125 0.05866 0.11739 0.0
O40 O 0.53082 0.04454 0.13367 0.0
O41 O 0.5334 0.07068 0.13148 0.0
C42 C 0.49617 0.03001 0.11328 0.0
C43 C 0.49122 0.07865 0.13329 0.0
C44 C 0.52482 0.06497 0.0868 0.0
O45 O 0.51161 0.0305 0.11565 0.0
O46 O 0.48907 0.04389 0.11339 0.0
O47 O 0.51083 0.0586 0.08911 0.0
O48 O 0.5321 0.06917 0.09987 0.0
C49 C 0.53885 0.05738 0.13758 0.0
O50 O 0.49535 0.08131 0.11846 0.0
O51 O 0.49806 0.06632 0.13989 0.0
In52 In 0.1918 0.73275 0.12616 0.0
O53 O 0.20634 0.71414 0.11045 0.0
O54 O 0.18067 0.70998 0.11449 0.0
C55 C 0.21465 0.75651 0.12954 0.0
C56 C 0.1697 0.75171 0.11037 0.0
C57 C 0.19036 0.71859 0.15626 0.0
O58 O 0.21727 0.74366 0.121 0.0
O59 O 0.2006 0.75725 0.13627 0.0
O60 O 0.17752 0.72093 0.1477 0.0
O61 O 0.20355 0.72375 0.14984 0.0
C62 C 0.19393 0.70494 0.10803 0.0
O63 O 0.16873 0.74903 0.12574 0.0
O64 O 0.18144 0.74446 0.1031 0.0
In65 In 0.51679 0.93859 0.37222 0.0
O66 O 0.49947 0.9164 0.37056 0.0
O67 O 0.50439 0.93025 0.34866 0.0
C68 C 0.53046 0.93585 0.40239 0.0
C69 C 0.54477 0.93796 0.35429 0.0
C70 C 0.4951 0.96315 0.37758 0.0
O71 O 0.52521 0.92332 0.39465 0.0
O72 O 0.52858 0.94942 0.39499 0.0
O73 O 0.50825 0.96535 0.3694 0.0
O74 O 0.4929 0.94859 0.38273 0.0
C75 C 0.4968 0.91834 0.35528 0.0
O76 O 0.53575 0.95073 0.35498 0.0
O77 O 0.5395 0.92574 0.36241 0.0
In78 In 0.30583 0.27067 0.61828 0.0
O79 O 0.2943 0.28814 0.5993 0.0
O80 O 0.32032 0.28926 0.60332 0.0
C81 C 0.28073 0.25154 0.62845 0.0
C82 C 0.32433 0.24739 0.60374 0.0
C83 C 0.30939 0.28949 0.64538 0.0
O84 O 0.29464 0.25172 0.63548 0.0
O85 O 0.27935 0.26119 0.61622 0.0
O86 O 0.31925 0.27773 0.64229 0.0
O87 O 0.29804 0.29152 0.63488 0.0
C88 C 0.3079 0.29502 0.59581 0.0
O89 O 0.32961 0.25557 0.61599 0.0
O90 O 0.30998 0.25115 0.59893 0.0
In91 In 0.97028 0.05911 0.86672 0.0
O92 O 0.98598 0.08229 0.86411 0.0
O93 O 0.99102 0.06181 0.84825 0.0
C94 C 0.95029 0.06606 0.89232 0.0
C95 C 0.94745 0.06009 0.84258 0.0
C96 C 0.98786 0.03421 0.88001 0.0
O97 O 0.96276 0.07489 0.88906 0.0
O98 O 0.94811 0.05395 0.88275 0.0
O99 O 0.97808 0.03195 0.86801 0.0
O100 O 0.98862 0.04889 0.88518 0.0
C101 C 0.99478 0.0763 0.85266 0.0
O102 O 0.95375 0.04662 0.84744 0.0
O103 O 0.95311 0.07287 0.84953 0.0
In104 In 0.38191 0.18295 0.27322 0.0
O105 O 0.39918 0.19797 0.28987 0.0
O106 O 0.3986 0.17181 0.29272 0.0
C107 C 0.37507 0.21191 0.25816 0.0
C108 C 0.39449 0.16259 0.25017 0.0
C109 C 0.35295 0.17381 0.28729 0.0
O110 O 0.37241 0.20953 0.27335 0.0
O111 O 0.38192 0.2 0.25084 0.0
O112 O 0.35393 0.17873 0.27254 0.0
O113 O 0.36667 0.17251 0.29453 0.0
C114 C 0.40445 0.18544 0.29759 0.0
O115 O 0.37969 0.16138 0.25499 0.0
O116 O 0.40287 0.17357 0.25737 0.0
In117 In 0.05519 0.12728 0.51078 0.0
O118 O 0.07861 0.13072 0.49552 0.0
O119 O 0.06237 0.15129 0.49843 0.0
C120 C 0.05844 0.09645 0.52288 0.0
C121 C 0.05394 0.14371 0.53972 0.0
C122 C 0.03164 0.12185 0.48806 0.0
O123 O 0.0447 0.10338 0.52052 0.0
O124 O 0.0709 0.105 0.51889 0.0
O125 O 0.02871 0.12947 0.50142 0.0
O126 O 0.04645 0.1173 0.48616 0.0
C127 C 0.07552 0.14568 0.49218 0.0
O128 O 0.04159 0.14299 0.53015 0.0
O129 O 0.06671 0.13649 0.53446 0.0
In130 In 0.11647 0.81184 0.76675 0.0
O131 O 0.09927 0.79892 0.78498 0.0
O132 O 0.10266 0.82499 0.7872 0.0
C133 C 0.12716 0.78586 0.74897 0.0
C134 C 0.09817 0.82899 0.74508 0.0
C135 C 0.14535 0.81909 0.7816 0.0
O136 O 0.1176 0.78416 0.76121 0.0
O137 O 0.13103 0.80058 0.74568 0.0
O138 O 0.14124 0.82577 0.76808 0.0
O139 O 0.13484 0.80927 0.78752 0.0
C140 C 0.09596 0.81204 0.79284 0.0
O141 O 0.11023 0.83546 0.75264 0.0
O142 O 0.0954 0.81405 0.74859 0.0
In143 In 0.44687 0.85907 0.0102 0.0
O144 O 0.45833 0.8398 0.0276 0.0
O145 O 0.43372 0.84805 0.03211 0.0
C146 C 0.46959 0.86496 0.98674 0.0
C147 C 0.42403 0.84506 0.99087 0.0
C148 C 0.44815 0.88766 0.02701 0.0
O149 O 0.47215 0.85478 0.99835 0.0
O150 O 0.45566 0.87198 0.98706 0.0
O151 O 0.43515 0.88311 0.0196 0.0
O152 O 0.46028 0.87796 0.02559 0.0
C153 C 0.44561 0.83907 0.0367 0.0
O154 O 0.42237 0.85963 0.99633 0.0
O155 O 0.43704 0.83768 0.99536 0.0
In156 In 0.38138 0.80603 0.22269 0.0
O157 O 0.38303 0.8293 0.23849 0.0
O158 O 0.40264 0.8117 0.23986 0.0
C159 C 0.35488 0.81096 0.20332 0.0
C160 C 0.40365 0.80509 0.19808 0.0
C161 C 0.36951 0.78285 0.24338 0.0
O162 O 0.3599 0.82196 0.21324 0.0
O163 O 0.36313 0.79773 0.2034 0.0
O164 O 0.3812 0.77983 0.23345 0.0
O165 O 0.36398 0.79741 0.24275 0.0
C166 C 0.39669 0.82522 0.24491 0.0
O167 O 0.3998 0.79228 0.20621 0.0
O168 O 0.39661 0.81823 0.20274 0.0
In169 In 0.44602 0.13018 0.48082 0.0
O170 O 0.42153 0.13234 0.4945 0.0
O171 O 0.43978 0.15109 0.49809 0.0
C172 C 0.44347 0.10312 0.46172 0.0
C173 C 0.44614 0.15246 0.45622 0.0
C174 C 0.46849 0.11963 0.50287 0.0
O175 O 0.43214 0.10713 0.47174 0.0
O176 O 0.45585 0.11258 0.46165 0.0
O177 O 0.47208 0.13009 0.4918 0.0
O178 O 0.45373 0.11465 0.50269 0.0
C179 C 0.42558 0.14567 0.50164 0.0
O180 O 0.45902 0.1494 0.46458 0.0
O181 O 0.43339 0.14461 0.46063 0.0
In182 In 0.11545 0.18492 0.72477 0.0
O183 O 0.11366 0.16084 0.73949 0.0
O184 O 0.09943 0.18163 0.74724 0.0
C185 C 0.14176 0.18084 0.70489 0.0
C186 C 0.09108 0.18189 0.7024 0.0
C187 C 0.12591 0.21194 0.74101 0.0
O188 O 0.14063 0.17328 0.71853 0.0
O189 O 0.12969 0.19006 0.70145 0.0
O190 O 0.11329 0.2122 0.73178 0.0
O191 O 0.13316 0.19816 0.74188 0.0
C192 C 0.10352 0.16681 0.74978 0.0
O193 O 0.09472 0.19565 0.70888 0.0
O194 O 0.09933 0.16973 0.7077 0.0
In195 In 0.05211 0.86592 0.98274 0.0
O196 O 0.07598 0.86603 0.99774 0.0
O197 O 0.06048 0.8446 0.99838 0.0
C198 C 0.04993 0.894 0.96526 0.0
C199 C 0.0556 0.84581 0.95667 0.0
C200 C 0.02838 0.8728 0.00484 0.0
O201 O 0.06214 0.89131 0.97472 0.0
O202 O 0.03924 0.88268 0.96488 0.0
O203 O 0.02602 0.86261 0.99318 0.0
O204 O 0.04261 0.87915 0.00529 0.0
C205 C 0.07346 0.85165 0.00345 0.0
O206 O 0.04254 0.84585 0.96533 0.0
O207 O 0.06684 0.8555 0.96156 0.0
In208 In 0.26766 0.3746 0.19038 0.0
O209 O 0.28523 0.39397 0.20117 0.0
O210 O 0.29059 0.3839 0.17741 0.0
C211 C 0.24377 0.37247 0.21332 0.0
C212 C 0.24874 0.38742 0.16649 0.0
C213 C 0.28241 0.34509 0.19417 0.0
O214 O 0.25644 0.38143 0.2154 0.0
O215 O 0.2432 0.3649 0.19971 0.0
O216 O 0.27773 0.35007 0.18011 0.0
O217 O 0.2795 0.35487 0.20593 0.0
C218 C 0.29484 0.39365 0.18884 0.0
O219 O 0.25194 0.37211 0.16703 0.0
O220 O 0.25541 0.39603 0.17766 0.0
In221 In 0.75897 0.12141 0.80311 0.0
O222 O 0.77747 0.10397 0.79054 0.0
O223 O 0.78363 0.11438 0.81396 0.0
C224 C 0.73466 0.12416 0.78066 0.0
C225 C 0.74272 0.10425 0.8263 0.0
C226 C 0.77133 0.15224 0.80252 0.0
O227 O 0.74801 0.1166 0.77756 0.0
O228 O 0.73358 0.12996 0.79511 0.0
O229 O 0.76728 0.14533 0.81596 0.0
O230 O 0.76883 0.14371 0.78972 0.0
C231 C 0.78793 0.10517 0.80212 0.0
O232 O 0.74383 0.11984 0.82693 0.0
O233 O 0.74988 0.09754 0.81418 0.0
In234 In 0.13661 0.52001 0.05688 0.0
O235 O 0.15691 0.53749 0.04809 0.0
O236 O 0.14968 0.53838 0.07343 0.0
C237 C 0.12872 0.50201 0.03009 0.0
C238 C 0.14908 0.49553 0.07532 0.0
C239 C 0.10935 0.53878 0.05923 0.0
O240 O 0.14055 0.51224 0.02995 0.0
O241 O 0.12103 0.50106 0.04359 0.0
O242 O 0.11234 0.52739 0.06953 0.0
O243 O 0.12003 0.54052 0.04802 0.0
C244 C 0.15871 0.54421 0.0621 0.0
O245 O 0.13519 0.50194 0.07853 0.0
O246 O 0.15665 0.50178 0.0632 0.0
In247 In 0.73118 0.87348 0.31282 0.0
O248 O 0.71363 0.89221 0.30072 0.0
O249 O 0.71047 0.88653 0.32623 0.0
C250 C 0.74624 0.87427 0.28309 0.0
C251 C 0.75315 0.88244 0.33612 0.0
C252 C 0.71857 0.84278 0.31706 0.0
O253 O 0.73179 0.86875 0.2851 0.0
O254 O 0.75272 0.88031 0.29591 0.0
O255 O 0.73282 0.84529 0.31134 0.0
O256 O 0.71106 0.85568 0.32143 0.0
C257 C 0.70545 0.89456 0.31384 0.0
O258 O 0.7522 0.86774 0.33098 0.0
O259 O 0.74299 0.89233 0.32971 0.0
In260 In 0.86333 0.98318 0.04961 0.0
O261 O 0.8457 0.96561 0.03598 0.0
O262 O 0.85129 0.96099 0.0613 0.0
C263 C 0.87072 0.00712 0.02793 0.0
C264 C 0.8469 0.0022 0.07106 0.0
C265 C 0.89239 0.96718 0.05076 0.0
O266 O 0.86105 0.99536 0.02429 0.0
O267 O 0.87655 0.00668 0.0424 0.0
O268 O 0.88409 0.96903 0.0377 0.0
O269 O 0.88615 0.97369 0.06354 0.0
C270 C 0.84368 0.95642 0.04848 0.0
O271 O 0.86114 0.99657 0.07429 0.0
O272 O 0.84105 0.99799 0.05721 0.0
In273 In 0.23043 0.61559 0.68889 0.0
O274 O 0.24672 0.61811 0.66593 0.0
O275 O 0.24587 0.595 0.67868 0.0
C276 C 0.21329 0.64377 0.69212 0.0
C277 C 0.20437 0.59561 0.68438 0.0
C278 C 0.25221 0.61974 0.71355 0.0
O279 O 0.22183 0.64088 0.67932 0.0
O280 O 0.21357 0.63254 0.70294 0.0
O281 O 0.24131 0.60853 0.71401 0.0
O282 O 0.25197 0.62866 0.70076 0.0
C283 C 0.25192 0.60338 0.667 0.0
O284 O 0.21267 0.59551 0.69765 0.0
O285 O 0.20949 0.60551 0.67343 0.0
In286 In 0.13162 0.47923 0.44688 0.0
O287 O 0.1516 0.46261 0.45804 0.0
O288 O 0.14365 0.45807 0.43329 0.0
C289 C 0.12362 0.50129 0.4704 0.0
C290 C 0.14717 0.50002 0.42653 0.0
C291 C 0.10296 0.46255 0.4452 0.0
O292 O 0.13139 0.48815 0.47382 0.0
O293 O 0.12007 0.50315 0.45536 0.0
O294 O 0.10726 0.47245 0.43388 0.0
O295 O 0.11303 0.46126 0.45701 0.0
C296 C 0.15287 0.4538 0.44516 0.0
O297 O 0.13299 0.49429 0.42315 0.0
O298 O 0.15349 0.49486 0.43985 0.0
In299 In 0.35843 0.52666 0.93905 0.0
O300 O 0.35398 0.51146 0.91571 0.0
O301 O 0.34102 0.50494 0.93773 0.0
C302 C 0.38376 0.54689 0.93183 0.0
C303 C 0.33394 0.54909 0.93901 0.0
C304 C 0.37345 0.51017 0.96367 0.0
O305 O 0.38146 0.5336 0.92391 0.0
O306 O 0.37324 0.54986 0.94293 0.0
O307 O 0.36119 0.51953 0.9663 0.0
O308 O 0.37788 0.50917 0.94876 0.0
C309 C 0.34382 0.50184 0.9227 0.0
O310 O 0.33878 0.54218 0.9522 0.0
O311 O 0.3411 0.54422 0.92601 0.0
In312 In 0.69816 0.76335 0.88124 0.0
O313 O 0.71444 0.7859 0.88632 0.0
O314 O 0.6995 0.77696 0.9059 0.0
C315 C 0.72066 0.74081 0.87139 0.0
C316 C 0.67622 0.74506 0.89809 0.0
C317 C 0.68654 0.77971 0.85451 0.0
O318 O 0.72487 0.75453 0.87757 0.0
O319 O 0.7053 0.73858 0.87029 0.0
O320 O 0.69517 0.76679 0.85346 0.0
O321 O 0.68281 0.7838 0.86908 0.0
C322 C 0.70942 0.78789 0.90095 0.0
O323 O 0.6719 0.75405 0.88604 0.0
O324 O 0.69138 0.74566 0.90167 0.0
In325 In 0.48146 0.45267 0.13212 0.0
O326 O 0.4627 0.46103 0.15162 0.0
O327 O 0.45981 0.43727 0.14046 0.0
C328 C 0.50467 0.47623 0.12942 0.0
C329 C 0.50092 0.43008 0.14622 0.0
C330 C 0.46649 0.45645 0.10274 0.0
O331 O 0.49137 0.47874 0.13728 0.0
O332 O 0.50612 0.46202 0.12317 0.0
O333 O 0.47445 0.4434 0.10615 0.0
O334 O 0.4664 0.46723 0.11398 0.0
C335 C 0.45432 0.44784 0.15056 0.0
O336 O 0.49698 0.42917 0.13107 0.0
O337 O 0.49476 0.44211 0.15406 0.0
In338 In 0.80018 0.22779 0.38687 0.0
O339 O 0.82524 0.24065 0.38838 0.0
O340 O 0.80606 0.24806 0.40494 0.0
C341 C 0.80243 0.20595 0.36204 0.0
C342 C 0.79976 0.20495 0.41091 0.0
C343 C 0.77765 0.24857 0.37407 0.0
O344 O 0.81297 0.21741 0.36371 0.0
O345 O 0.79105 0.20579 0.37267 0.0
O346 O 0.77506 0.24088 0.38746 0.0
O347 O 0.79135 0.24554 0.36728 0.0
C348 C 0.82072 0.25011 0.40002 0.0
O349 O 0.78668 0.21212 0.40615 0.0
O350 O 0.81288 0.20988 0.40403 0.0
In351 In 0.01539 0.56322 0.62269 0.0
O352 O 0.0348 0.54835 0.63702 0.0
O353 O 0.03606 0.57456 0.6379 0.0
C354 C 0.00068 0.5335 0.61968 0.0
C355 C 0.99215 0.58351 0.63506 0.0
C356 C 0.0268 0.57231 0.59267 0.0
O357 O 0.01422 0.53697 0.61278 0.0
O358 O 0.99487 0.54479 0.62874 0.0
O359 O 0.01425 0.56331 0.5946 0.0
O360 O 0.03298 0.57767 0.60593 0.0
C361 C 0.04233 0.56097 0.64225 0.0
O362 O 0.99471 0.58236 0.61971 0.0
O363 O 0.00153 0.5748 0.64394 0.0
In364 In 0.69282 0.22461 0.61748 0.0
O365 O 0.70475 0.20569 0.6003 0.0
O366 O 0.67859 0.20869 0.5993 0.0
C367 C 0.71886 0.2421 0.62866 0.0
C368 C 0.67591 0.24963 0.60391 0.0
C369 C 0.68517 0.20467 0.64295 0.0
O370 O 0.71964 0.2334 0.6157 0.0
O371 O 0.70511 0.24174 0.63595 0.0
O372 O 0.67587 0.21654 0.63881 0.0
O373 O 0.6981 0.20316 0.63441 0.0
C374 C 0.69118 0.20109 0.59405 0.0
O375 O 0.67155 0.24312 0.61745 0.0
O376 O 0.68852 0.24331 0.59725 0.0
In377 In 0.02256 0.44484 0.86578 0.0
O378 O 0.03626 0.45926 0.84562 0.0
O379 O 0.04021 0.43326 0.84759 0.0
C380 C 0.00171 0.46675 0.87955 0.0
C381 C 0.00073 0.4234 0.85319 0.0
C382 C 0.04526 0.44272 0.88991 0.0
O383 O 0.0096 0.46999 0.86643 0.0
O384 O 0.00452 0.45266 0.88561 0.0
O385 O 0.03367 0.43228 0.88873 0.0
O386 O 0.04517 0.45395 0.87912 0.0
C387 C 0.04388 0.44661 0.84039 0.0
O388 O 0.01143 0.419 0.86374 0.0
O389 O 0.00121 0.43845 0.8491 0.0
In390 In 0.80649 0.77595 0.11701 0.0
O391 O 0.83147 0.76271 0.11542 0.0
O392 O 0.81181 0.75501 0.0996 0.0
C393 C 0.80822 0.79688 0.14278 0.0
C394 C 0.80701 0.79832 0.09248 0.0
C395 C 0.78277 0.75567 0.1282 0.0
O396 O 0.81907 0.78582 0.14051 0.0
O397 O 0.79681 0.79716 0.13217 0.0
O398 O 0.78055 0.76506 0.11588 0.0
O399 O 0.79682 0.75677 0.13491 0.0
C400 C 0.82654 0.75291 0.10425 0.0
O401 O 0.79398 0.79054 0.09629 0.0
O402 O 0.81965 0.79444 0.10078 0.0
In403 In 0.48428 0.55901 0.37256 0.0
O404 O 0.4668 0.54824 0.35304 0.0
O405 O 0.46253 0.57273 0.36176 0.0
C406 C 0.50511 0.53379 0.37828 0.0
C407 C 0.50618 0.57937 0.35846 0.0
C408 C 0.46845 0.56083 0.40167 0.0
O409 O 0.49234 0.53209 0.36941 0.0
O410 O 0.50729 0.54812 0.38403 0.0
O411 O 0.47034 0.54758 0.39371 0.0
O412 O 0.47477 0.5735 0.39504 0.0
C413 C 0.45789 0.56109 0.35247 0.0
O414 O 0.50243 0.58054 0.37359 0.0
O415 O 0.49853 0.56832 0.35053 0.0
In416 In 0.87288 0.68313 0.76777 0.0
O417 O 0.87042 0.66472 0.7464 0.0
O418 O 0.89424 0.6742 0.75216 0.0
C419 C 0.84342 0.67154 0.77826 0.0
C420 C 0.89227 0.68434 0.79492 0.0
C421 C 0.86847 0.71381 0.75552 0.0
O422 O 0.84495 0.68071 0.76575 0.0
O423 O 0.85689 0.66732 0.78487 0.0
O424 O 0.8607 0.7084 0.7679 0.0
O425 O 0.87899 0.70394 0.74961 0.0
C426 C 0.88562 0.6651 0.74291 0.0
O427 O 0.88523 0.69698 0.78911 0.0
O428 O 0.88982 0.67123 0.78684 0.0
In429 In 0.55133 0.62609 0.01765 0.0
O430 O 0.57615 0.63003 0.00458 0.0
O431 O 0.5564 0.64667 -0.00047 0.0
C432 C 0.56222 0.598 0.03207 0.0
C433 C 0.54418 0.64439 0.04468 0.0
C434 C 0.52632 0.61858 0.99716 0.0
O435 O 0.55008 0.59852 0.02234 0.0
O436 O 0.56958 0.61162 0.03397 0.0
O437 O 0.5406 0.61249 0.99567 0.0
O438 O 0.52459 0.62855 0.00909 0.0
C439 C 0.57116 0.64257 0.9967 0.0
O440 O 0.5364 0.63135 0.04113 0.0
O441 O 0.55499 0.6485 0.03425 0.0
In442 In 0.6241 0.31484 0.26854 0.0
O443 O 0.60929 0.29824 0.28612 0.0
O444 O 0.60776 0.32432 0.28915 0.0
C445 C 0.63043 0.28707 0.25133 0.0
C446 C 0.60831 0.33502 0.24741 0.0
C447 C 0.65334 0.32422 0.28202 0.0
O448 O 0.63047 0.28742 0.26694 0.0
O449 O 0.62672 0.30058 0.24449 0.0
O450 O 0.65236 0.31654 0.26853 0.0
O451 O 0.63959 0.32812 0.28813 0.0
C452 C 0.60344 0.31023 0.29425 0.0
O453 O 0.62333 0.33717 0.25113 0.0
O454 O 0.60143 0.32298 0.25451 0.0
In455 In 0.93769 0.36976 0.52383 0.0
O456 O 0.91286 0.36505 0.51109 0.0
O457 O 0.93441 0.35314 0.50172 0.0
C458 C 0.93106 0.39482 0.54473 0.0
C459 C 0.94023 0.34475 0.54551 0.0
C460 C 0.96181 0.38373 0.50571 0.0
O461 O 0.92422 0.39386 0.53072 0.0
O462 O 0.94088 0.38323 0.54806 0.0
O463 O 0.96447 0.37138 0.51492 0.0
O464 O 0.94717 0.38905 0.50592 0.0
C465 C 0.91907 0.3555 0.50037 0.0
O466 O 0.95276 0.35082 0.53836 0.0
O467 O 0.92654 0.35099 0.54127 0.0
In468 In 0.88691 0.3022 0.72672 0.0
O469 O 0.90611 0.28859 0.71101 0.0
O470 O 0.903 0.31462 0.70775 0.0
C471 C 0.87333 0.27994 0.74722 0.0
C472 C 0.90271 0.32091 0.74891 0.0
C473 C 0.86085 0.30609 0.70656 0.0
O474 O 0.88453 0.27591 0.73703 0.0
O475 O 0.86923 0.29497 0.74694 0.0
O476 O 0.86341 0.31597 0.71844 0.0
O477 O 0.87133 0.29467 0.70506 0.0
C478 C 0.91024 0.30154 0.7032 0.0
O479 O 0.89129 0.32672 0.7399 0.0
O480 O 0.90613 0.30586 0.74649 0.0
In481 In 0.94083 0.62804 0.98274 0.0
O482 O 0.91707 0.63159 0.99746 0.0
O483 O 0.93782 0.647 0.00291 0.0
C484 C 0.93575 0.60089 0.96421 0.0
C485 C 0.93881 0.65079 0.95866 0.0
C486 C 0.96615 0.61733 0.00132 0.0
O487 O 0.92722 0.60368 0.97702 0.0
O488 O 0.94642 0.61173 0.96094 0.0
O489 O 0.96781 0.62907 0.9911 0.0
O490 O 0.95187 0.61113 0.00198 0.0
C491 C 0.92305 0.64314 0.00617 0.0
O492 O 0.95258 0.64566 0.96404 0.0
O493 O 0.92628 0.64482 0.9658 0.0
In494 In 0.62239 0.68291 0.22637 0.0
O495 O 0.60183 0.69364 0.21038 0.0
O496 O 0.60634 0.66763 0.20936 0.0
C497 C 0.63386 0.70836 0.24439 0.0
C498 C 0.61 0.66486 0.25108 0.0
C499 C 0.64792 0.67933 0.20553 0.0
O500 O 0.62136 0.70989 0.23511 0.0
O501 O 0.64041 0.69424 0.24431 0.0
O502 O 0.64634 0.67011 0.21807 0.0
O503 O 0.63668 0.68995 0.20363 0.0
C504 C 0.59809 0.67981 0.20405 0.0
O505 O 0.62249 0.66008 0.24294 0.0
O506 O 0.60376 0.67838 0.24641 0.0
In507 In 0.56183 0.36543 0.47791 0.0
O508 O 0.58533 0.36624 0.49344 0.0
O509 O 0.57009 0.34467 0.49447 0.0
C510 C 0.56258 0.39238 0.45853 0.0
C511 C 0.56377 0.3429 0.45364 0.0
C512 C 0.53825 0.37446 0.49949 0.0
O513 O 0.57446 0.38888 0.4681 0.0
O514 O 0.55059 0.38244 0.45899 0.0
O515 O 0.53547 0.36399 0.4882 0.0
O516 O 0.55274 0.38015 0.49977 0.0
C517 C 0.58288 0.35204 0.49956 0.0
O518 O 0.55075 0.3447 0.46216 0.0
O519 O 0.57567 0.35216 0.4577 0.0
In520 In 0.77347 0.88469 0.70309 0.0
O521 O 0.78986 0.90456 0.71488 0.0
O522 O 0.78893 0.90279 0.6886 0.0
C523 C 0.75615 0.87259 0.72881 0.0
C524 C 0.7489 0.89578 0.68382 0.0
C525 C 0.79484 0.85979 0.69803 0.0
O526 O 0.76264 0.88682 0.72927 0.0
O527 O 0.75874 0.86463 0.71567 0.0
O528 O 0.78118 0.86056 0.69045 0.0
O529 O 0.7976 0.8715 0.70793 0.0
C530 C 0.79504 0.90988 0.7011 0.0
O531 O 0.75927 0.88527 0.67869 0.0
O532 O 0.75102 0.90055 0.69851 0.0
In533 In 0.27035 0.62112 0.31196 0.0
O534 O 0.28946 0.60592 0.29744 0.0
O535 O 0.29128 0.60694 0.32368 0.0
C536 C 0.25201 0.62318 0.28423 0.0
C537 C 0.25039 0.60638 0.33396 0.0
C538 C 0.28167 0.65219 0.31773 0.0
O539 O 0.26763 0.62376 0.28389 0.0
O540 O 0.24589 0.62088 0.29836 0.0
O541 O 0.26805 0.64932 0.3108 0.0
O542 O 0.28912 0.63945 0.3226 0.0
C543 C 0.29727 0.60163 0.3103 0.0
O544 O 0.25346 0.62169 0.33467 0.0
O545 O 0.25759 0.59872 0.32245 0.0
In546 In 0.63152 0.01087 0.55509 0.0
O547 O 0.63329 0.99716 0.57953 0.0
O548 O 0.65394 0.99636 0.56304 0.0
C549 C 0.6021 0.02629 0.5561 0.0
C550 C 0.65062 0.03806 0.55421 0.0
C551 C 0.62454 0.9868 0.53336 0.0
O552 O 0.61042 0.02433 0.54307 0.0
O553 O 0.60856 0.02026 0.56901 0.0
O554 O 0.63416 0.99861 0.52974 0.0
O555 O 0.61877 0.98717 0.54784 0.0
C556 C 0.64773 0.99184 0.57665 0.0
O557 O 0.64775 0.02965 0.54133 0.0
O558 O 0.64426 0.03245 0.56728 0.0
In559 In 0.22346 0.38327 0.80247 0.0
O560 O 0.20883 0.40361 0.7893 0.0
O561 O 0.20354 0.3985 0.81463 0.0
C562 C 0.24601 0.3726 0.78056 0.0
C563 C 0.24394 0.39667 0.82471 0.0
C564 C 0.20338 0.35684 0.80228 0.0
O565 O 0.23631 0.38445 0.7773 0.0
O566 O 0.24417 0.36627 0.79468 0.0
O567 O 0.21403 0.35888 0.81357 0.0
O568 O 0.20302 0.36802 0.79143 0.0
C569 C 0.20009 0.40685 0.80189 0.0
O570 O 0.23453 0.38472 0.82841 0.0
O571 O 0.24275 0.40179 0.81002 0.0
In572 In 0.37348 0.48181 0.55572 0.0
O573 O 0.37373 0.49758 0.57906 0.0
O574 O 0.3512 0.49522 0.56547 0.0
C575 C 0.40303 0.46668 0.55492 0.0
C576 C 0.35411 0.45487 0.55633 0.0
C577 C 0.37838 0.50557 0.53316 0.0
O578 O 0.39428 0.46922 0.54228 0.0
O579 O 0.39697 0.47199 0.56833 0.0
O580 O 0.37005 0.49273 0.52987 0.0
O581 O 0.3841 0.50624 0.54765 0.0
C582 C 0.35871 0.5017 0.57752 0.0
O583 O 0.35459 0.46436 0.54389 0.0
O584 O 0.36312 0.45923 0.5683 0.0
In585 In 0.72233 0.11411 0.19647 0.0
O586 O 0.70403 0.09482 0.20619 0.0
O587 O 0.70348 0.10113 0.1806 0.0
C588 C 0.74126 0.12247 0.22242 0.0
C589 C 0.74519 0.09968 0.17744 0.0
C590 C 0.70475 0.14213 0.19376 0.0
O591 O 0.73064 0.11101 0.22331 0.0
O592 O 0.74219 0.12953 0.20856 0.0
O593 O 0.71655 0.13891 0.184 0.0
O594 O 0.70203 0.1313 0.20464 0.0
C595 C 0.69728 0.09276 0.19221 0.0
O596 O 0.73781 0.11274 0.17299 0.0
O597 O 0.74092 0.09404 0.19134 0.0
In598 In 0.63304 0.96692 0.94028 0.0
O599 O 0.6513 0.9506 0.95445 0.0
O600 O 0.65057 0.94889 0.92814 0.0
C601 C 0.61904 0.98725 0.96261 0.0
C602 C 0.64831 0.98993 0.92209 0.0
C603 C 0.60769 0.9463 0.93439 0.0
O604 O 0.63084 0.9777 0.96645 0.0
O605 O 0.6145 0.98639 0.94774 0.0
O606 O 0.61214 0.95695 0.92384 0.0
O607 O 0.61597 0.94622 0.94759 0.0
C608 C 0.6568 0.94374 0.9415 0.0
O609 O 0.63554 0.98248 0.91696 0.0
O610 O 0.65338 0.98555 0.9362 0.0
In611 In 0.86511 0.01859 0.43516 0.0
O612 O 0.84536 0.03433 0.44787 0.0
O613 O 0.85341 0.0414 0.42383 0.0
C614 C 0.87023 0.99631 0.45928 0.0
C615 C 0.85226 0.99748 0.41308 0.0
C616 C 0.89443 0.03435 0.43429 0.0
O617 O 0.86215 0.00947 0.46175 0.0
O618 O 0.87549 0.99445 0.44473 0.0
O619 O 0.88705 0.03059 0.44746 0.0
O620 O 0.88706 0.03007 0.4212 0.0
C621 C 0.84427 0.04454 0.43609 0.0
O622 O 0.86732 0.00161 0.41277 0.0
O623 O 0.84368 0.00459 0.42401 0.0
H624 H 0.10397 0.13638 0.47649 0.0
H625 H 0.12145 0.15347 0.45856 0.0
H626 H 0.08836 0.19472 0.46548 0.0
H627 H 0.07095 0.17783 0.48348 0.0
H628 H 0.11238 0.17099 0.42876 0.0
H629 H 0.13445 0.2126 0.47879 0.0
H630 H 0.12483 0.19288 0.48292 0.0
H631 H 0.11238 0.21046 0.47748 0.0
C632 C 0.10047 0.1491 0.47422 0.0
C633 C 0.08619 0.15583 0.48147 0.0
C634 C 0.11041 0.15881 0.46395 0.0
C635 C 0.10624 0.17536 0.46088 0.0
C636 C 0.09188 0.18202 0.46792 0.0
H637 H 0.14566 0.24348 0.38747 0.0
H638 H 0.12792 0.22439 0.40301 0.0
C639 C 0.08195 0.17236 0.47817 0.0
C640 C 0.11695 0.18577 0.45043 0.0
H641 H 0.14127 0.22016 0.45135 0.0
C642 C 0.11876 0.18172 0.43365 0.0
C643 C 0.1253 0.19964 0.45696 0.0
C644 C 0.1243 0.20413 0.47505 0.0
C645 C 0.12861 0.19139 0.42314 0.0
C646 C 0.13666 0.20547 0.42962 0.0
C647 C 0.13496 0.2094 0.44643 0.0
C648 C 0.1474 0.21611 0.41939 0.0
C649 C 0.13057 0.18632 0.4053 0.0
C650 C 0.16412 0.21781 0.42357 0.0
C651 C 0.17418 0.22873 0.41486 0.0
C652 C 0.16768 0.2382 0.40183 0.0
C653 C 0.15098 0.23629 0.39744 0.0
C654 C 0.14088 0.22534 0.40622 0.0
H655 H 0.12664 0.17332 0.40321 0.0
H656 H 0.1228 0.19444 0.39743 0.0
H657 H 0.14361 0.1877 0.40124 0.0
H658 H 0.16934 0.21081 0.43373 0.0
H659 H 0.18702 0.22991 0.4185 0.0
H660 H 0.07232 0.81702 0.72726 0.0
H661 H 0.05487 0.83207 0.70774 0.0
H662 H 0.08318 0.87643 0.71639 0.0
H663 H 0.10088 0.86139 0.73584 0.0
H664 H 0.03564 0.85955 0.71499 0.0
H665 H 0.08129 0.87331 0.66565 0.0
H666 H 0.08486 0.85787 0.68139 0.0
H667 H 0.08777 0.87942 0.68599 0.0
C668 C 0.07492 0.82997 0.72492 0.0
C669 C 0.08795 0.83807 0.73306 0.0
C670 C 0.06495 0.83851 0.71376 0.0
C671 C 0.06789 0.85526 0.71049 0.0
C672 C 0.08094 0.8634 0.71853 0.0
H673 H 0.00317 0.93025 0.67428 0.0
H674 H 0.02073 0.91152 0.69015 0.0
C675 C 0.09095 0.85485 0.72971 0.0
C676 C 0.05667 0.86442 0.6994 0.0
H677 H 0.05549 0.88757 0.66416 0.0
C678 C 0.03994 0.86557 0.70381 0.0
C679 C 0.06232 0.87205 0.68473 0.0
C680 C 0.08001 0.8705 0.67903 0.0
C681 C 0.02876 0.87462 0.69417 0.0
C682 C 0.03456 0.88287 0.67992 0.0
C683 C 0.05117 0.88128 0.67519 0.0
C684 C 0.02374 0.89389 0.67026 0.0
C685 C 0.01086 0.87536 0.69935 0.0
C686 C 0.01986 0.89021 0.65377 0.0
C687 C 0.0098 0.9009 0.64464 0.0
C688 C 0.00367 0.91546 0.65189 0.0
C689 C 0.00766 0.91909 0.6684 0.0
C690 C 0.01763 0.90839 0.6775 0.0
H691 H 0.0076 0.8651 0.70788 0.0
H692 H 0.00854 0.8872 0.70588 0.0
H693 H 0.00256 0.87483 0.68842 0.0
H694 H 0.02457 0.87908 0.648 0.0
H695 H 0.00696 0.89786 0.63191 0.0
H696 H 0.42447 0.81344 0.97972 0.0
H697 H 0.40489 0.80023 0.96095 0.0
H698 H 0.37675 0.84543 0.95811 0.0
H699 H 0.3964 0.85887 0.97699 0.0
H700 H 0.36915 0.79774 0.96653 0.0
H701 H 0.38679 0.83087 0.90874 0.0
H702 H 0.40041 0.82966 0.9264 0.0
H703 H 0.38276 0.84305 0.92695 0.0
C704 C 0.41413 0.8206 0.97511 0.0
C705 C 0.41193 0.83718 0.97979 0.0
C706 C 0.40298 0.81304 0.9644 0.0
C707 C 0.38954 0.82194 0.9581 0.0
C708 C 0.38721 0.83847 0.96275 0.0
H709 H 0.30767 0.77306 0.90827 0.0
H710 H 0.324 0.79244 0.92472 0.0
C711 C 0.39836 0.84607 0.97357 0.0
C712 C 0.37782 0.81355 0.94698 0.0
H713 H 0.36614 0.8104 0.90656 0.0
C714 C 0.36833 0.80059 0.95345 0.0
C715 C 0.377 0.81729 0.92994 0.0
C716 C 0.38732 0.8309 0.92246 0.0
C717 C 0.35817 0.79102 0.94323 0.0
C718 C 0.35742 0.79466 0.92616 0.0
C719 C 0.36674 0.80776 0.91969 0.0
C720 C 0.3475 0.78443 0.91482 0.0
C721 C 0.34872 0.77674 0.95067 0.0
C722 C 0.35537 0.77395 0.90346 0.0
C723 C 0.34608 0.76285 0.89403 0.0
C724 C 0.32883 0.76217 0.89585 0.0
C725 C 0.32097 0.77322 0.90672 0.0
C726 C 0.33025 0.78429 0.91611 0.0
H727 H 0.35304 0.77373 0.96336 0.0
H728 H 0.33541 0.77998 0.95134 0.0
H729 H 0.34995 0.76552 0.94283 0.0
H730 H 0.36871 0.77395 0.90233 0.0
H731 H 0.35243 0.75452 0.88568 0.0
H732 H 0.42662 0.1604 0.241 0.0
H733 H 0.43789 0.14694 0.21654 0.0
H734 H 0.38906 0.13045 0.20281 0.0
H735 H 0.37766 0.14366 0.22768 0.0
H736 H 0.41165 0.10637 0.19904 0.0
H737 H 0.43514 0.16303 0.16944 0.0
H738 H 0.4427 0.16168 0.19022 0.0
H739 H 0.42079 0.16358 0.18654 0.0
C740 C 0.41827 0.15386 0.23282 0.0
C741 C 0.40126 0.15312 0.23617 0.0
C742 C 0.4247 0.14635 0.21873 0.0
C743 C 0.41423 0.13819 0.20757 0.0
C744 C 0.39729 0.13694 0.21115 0.0
H745 H 0.46989 0.10198 0.12086 0.0
H746 H 0.44783 0.11642 0.13603 0.0
C747 C 0.39083 0.14437 0.22537 0.0
C748 C 0.42138 0.13034 0.19269 0.0
H749 H 0.44948 0.13747 0.16209 0.0
C750 C 0.41961 0.11322 0.1907 0.0
C751 C 0.43134 0.13934 0.18146 0.0
C752 C 0.43243 0.15795 0.18191 0.0
C753 C 0.42882 0.10465 0.17879 0.0
C754 C 0.44036 0.11341 0.169 0.0
C755 C 0.44091 0.13071 0.16987 0.0
C756 C 0.45333 0.10474 0.15948 0.0
C757 C 0.42651 0.0862 0.17724 0.0
C758 C 0.46399 0.09387 0.16777 0.0
C759 C 0.47646 0.08569 0.15921 0.0
C760 C 0.4787 0.08839 0.14222 0.0
C761 C 0.4684 0.09969 0.13396 0.0
C762 C 0.45578 0.10785 0.14257 0.0
H763 H 0.41368 0.08256 0.1805 0.0
H764 H 0.42926 0.08182 0.16452 0.0
H765 H 0.43496 0.07984 0.18599 0.0
H766 H 0.46271 0.09175 0.18093 0.0
H767 H 0.48431 0.07718 0.16595 0.0
H768 H 0.16615 0.75495 0.07721 0.0
H769 H 0.15014 0.77573 0.06238 0.0
H770 H 0.1333 0.79612 0.10871 0.0
H771 H 0.14901 0.77491 0.12371 0.0
H772 H 0.10865 0.79412 0.08678 0.0
H773 H 0.16223 0.82364 0.0567 0.0
H774 H 0.16207 0.80189 0.05252 0.0
H775 H 0.16449 0.8091 0.07348 0.0
C776 C 0.15899 0.76382 0.08425 0.0
C777 C 0.15887 0.76341 0.1016 0.0
C778 C 0.15 0.7758 0.07577 0.0
C779 C 0.14098 0.78779 0.08446 0.0
C780 C 0.14039 0.7871 0.10179 0.0
H781 H 0.09799 0.86599 0.0219 0.0
H782 H 0.11429 0.85287 0.04394 0.0
C783 C 0.14927 0.77496 0.11033 0.0
C784 C 0.13176 0.8006 0.07523 0.0
H785 H 0.13575 0.82768 0.04315 0.0
C786 C 0.1146 0.80169 0.07745 0.0
C787 C 0.13959 0.81086 0.06341 0.0
C788 C 0.15814 0.81145 0.06153 0.0
C789 C 0.10492 0.81183 0.06727 0.0
C790 C 0.11257 0.82068 0.05427 0.0
C791 C 0.12985 0.8206 0.0529 0.0
C792 C 0.10281 0.82884 0.04114 0.0
C793 C 0.08654 0.81269 0.07038 0.0
C794 C 0.09138 0.81956 0.032 0.0
C795 C 0.08208 0.82698 0.01957 0.0
C796 C 0.08425 0.84379 0.01583 0.0
C797 C 0.09611 0.853 0.02456 0.0
C798 C 0.10534 0.84556 0.03716 0.0
H799 H 0.08367 0.81054 0.08364 0.0
H800 H 0.08137 0.82485 0.06666 0.0
H801 H 0.08027 0.80286 0.06314 0.0
H802 H 0.08966 0.8065 0.03445 0.0
H803 H 0.07315 0.81954 0.01292 0.0
H804 H 0.49428 0.91599 0.32195 0.0
H805 H 0.47407 0.90023 0.30608 0.0
H806 H 0.45228 0.88229 0.35135 0.0
H807 H 0.47298 0.89764 0.36737 0.0
H808 H 0.4549 0.85816 0.3294 0.0
H809 H 0.42659 0.91204 0.29865 0.0
H810 H 0.44844 0.91177 0.29505 0.0
H811 H 0.44068 0.91418 0.31581 0.0
C812 C 0.48519 0.90867 0.32853 0.0
C813 C 0.48509 0.90809 0.34586 0.0
C814 C 0.47355 0.89981 0.31945 0.0
C815 C 0.46135 0.89051 0.32755 0.0
C816 C 0.46147 0.88957 0.34488 0.0
H817 H 0.38357 0.8503 0.26334 0.0
H818 H 0.39721 0.86573 0.2856 0.0
C819 C 0.4733 0.89828 0.35399 0.0
C820 C 0.44892 0.88136 0.31774 0.0
H821 H 0.42267 0.88567 0.28504 0.0
C822 C 0.44764 0.8642 0.31988 0.0
C823 C 0.43907 0.8893 0.30565 0.0
C824 C 0.43862 0.90787 0.3038 0.0
C825 C 0.43758 0.85463 0.30952 0.0
C826 C 0.42906 0.86239 0.29635 0.0
C827 C 0.42948 0.87967 0.29492 0.0
C828 C 0.42054 0.85278 0.28332 0.0
C829 C 0.43632 0.83629 0.31275 0.0
C830 C 0.42923 0.84066 0.27445 0.0
C831 C 0.42144 0.83176 0.26193 0.0
C832 C 0.40493 0.83509 0.25777 0.0
C833 C 0.39633 0.84753 0.26631 0.0
C834 C 0.40408 0.85628 0.27904 0.0
H835 H 0.43817 0.83348 0.32607 0.0
H836 H 0.42413 0.83131 0.30886 0.0
H837 H 0.44616 0.82978 0.30575 0.0
H838 H 0.44211 0.83816 0.27711 0.0
H839 H 0.4284 0.82235 0.25541 0.0
H840 H 0.31415 0.2274 0.57882 0.0
H841 H 0.33056 0.20739 0.56336 0.0
H842 H 0.37301 0.21855 0.59365 0.0
H843 H 0.35654 0.23858 0.60941 0.0
H844 H 0.35872 0.21604 0.54557 0.0
H845 H 0.37225 0.16743 0.59222 0.0
H846 H 0.35582 0.18235 0.59477 0.0
H847 H 0.37688 0.1882 0.59865 0.0
C848 C 0.32693 0.22548 0.58233 0.0
C849 C 0.33412 0.2346 0.59526 0.0
C850 C 0.33626 0.21402 0.57351 0.0
C851 C 0.35291 0.21141 0.57748 0.0
C852 C 0.36007 0.2202 0.59062 0.0
H853 H 0.43124 0.17528 0.5164 0.0
H854 H 0.41301 0.1903 0.53522 0.0
C855 C 0.3507 0.23169 0.59952 0.0
C856 C 0.36305 0.20061 0.56685 0.0
H857 H 0.3869 0.16578 0.56669 0.0
C858 C 0.3648 0.205 0.55016 0.0
C859 C 0.37082 0.18617 0.5729 0.0
C860 C 0.36878 0.18062 0.59058 0.0
C861 C 0.37444 0.1955 0.5394 0.0
C862 C 0.38261 0.18136 0.54555 0.0
C863 C 0.38061 0.17671 0.56212 0.0
C864 C 0.3938 0.17172 0.53494 0.0
C865 C 0.37594 0.20066 0.52153 0.0
C866 C 0.38899 0.15625 0.52879 0.0
C867 C 0.39934 0.14766 0.51794 0.0
C868 C 0.41464 0.15442 0.51325 0.0
C869 C 0.4195 0.16979 0.51975 0.0
C870 C 0.40914 0.17837 0.5305 0.0
H871 H 0.36657 0.2101 0.51808 0.0
H872 H 0.38841 0.20598 0.51939 0.0
H873 H 0.37454 0.18979 0.51325 0.0
H874 H 0.37713 0.15101 0.53215 0.0
H875 H 0.39533 0.1358 0.51316 0.0
H876 H 0.08766 0.17896 0.77662 0.0
H877 H 0.07282 0.16341 0.79777 0.0
H878 H 0.08764 0.11765 0.77467 0.0
H879 H 0.10298 0.13321 0.75365 0.0
H880 H 0.04691 0.14402 0.79005 0.0
H881 H 0.09418 0.10715 0.82336 0.0
H882 H 0.09945 0.12458 0.81044 0.0
H883 H 0.095 0.1048 0.80131 0.0
C884 C 0.08802 0.16557 0.77623 0.0
C885 C 0.09633 0.15725 0.76346 0.0
C886 C 0.07958 0.15672 0.78833 0.0
C887 C 0.07923 0.1394 0.78785 0.0
C888 C 0.08806 0.13101 0.77547 0.0
H889 H 0.01572 0.06532 0.82876 0.0
H890 H 0.03726 0.08105 0.81455 0.0
C891 C 0.0967 0.13989 0.76341 0.0
C892 C 0.06797 0.13037 0.79902 0.0
H893 H 0.06592 0.09941 0.82762 0.0
C894 C 0.0511 0.13441 0.79842 0.0
C895 C 0.07349 0.11779 0.80982 0.0
C896 C 0.09154 0.11341 0.81142 0.0
C897 C 0.03952 0.12596 0.80807 0.0
C898 C 0.045 0.11326 0.81871 0.0
C899 C 0.06185 0.10925 0.81945 0.0
C900 C 0.03315 0.10349 0.82849 0.0
C901 C 0.02144 0.13034 0.80644 0.0
C902 C 0.02399 0.1109 0.84121 0.0
C903 C 0.01163 0.10198 0.84932 0.0
C904 C 0.00833 0.08554 0.84479 0.0
C905 C 0.01793 0.07801 0.83242 0.0
C906 C 0.03028 0.08692 0.82435 0.0
H907 H 0.01901 0.13826 0.79549 0.0
H908 H 0.01379 0.11898 0.80544 0.0
H909 H 0.01741 0.13718 0.81763 0.0
H910 H 0.02618 0.12367 0.84462 0.0
H911 H 0.0045 0.10804 0.85889 0.0
H912 H 0.22481 0.37177 0.14833 0.0
H913 H 0.20289 0.38506 0.13198 0.0
H914 H 0.22448 0.4328 0.14203 0.0
H915 H 0.24598 0.41974 0.15858 0.0
H916 H 0.19083 0.43076 0.14945 0.0
H917 H 0.20469 0.40724 0.08616 0.0
H918 H 0.20215 0.39234 0.10248 0.0
H919 H 0.2196 0.40602 0.10273 0.0
C920 C 0.22498 0.38507 0.14676 0.0
C921 C 0.23701 0.39477 0.15471 0.0
C922 C 0.21249 0.39262 0.13745 0.0
C923 C 0.2121 0.4099 0.13585 0.0
C924 C 0.22452 0.41946 0.14324 0.0
H925 H 0.18049 0.48409 0.07407 0.0
H926 H 0.19221 0.46067 0.08892 0.0
C927 C 0.23682 0.41198 0.15263 0.0
C928 C 0.19853 0.41847 0.12715 0.0
H929 H 0.18442 0.42782 0.08858 0.0
C930 C 0.18916 0.42996 0.13617 0.0
C931 C 0.19639 0.41721 0.10987 0.0
C932 C 0.20625 0.40512 0.09964 0.0
C933 C 0.17869 0.44122 0.12821 0.0
C934 C 0.17726 0.44062 0.1108 0.0
C935 C 0.18561 0.42823 0.10193 0.0
C936 C 0.16944 0.45421 0.10141 0.0
C937 C 0.1703 0.45444 0.1384 0.0
C938 C 0.15271 0.45835 0.10352 0.0
C939 C 0.14604 0.472 0.09525 0.0
C940 C 0.15595 0.48146 0.08457 0.0
C941 C 0.17257 0.47705 0.08226 0.0
C942 C 0.17925 0.4636 0.09065 0.0
H943 H 0.17499 0.4548 0.1513 0.0
H944 H 0.17216 0.46682 0.13275 0.0
H945 H 0.15683 0.45195 0.13885 0.0
H946 H 0.14487 0.45108 0.11156 0.0
H947 H 0.13312 0.47504 0.09705 0.0
H948 H 0.71753 0.11465 0.8463 0.0
H949 H 0.69963 0.09722 0.8635 0.0
H950 H 0.72875 0.05445 0.8504 0.0
H951 H 0.74613 0.07162 0.83275 0.0
H952 H 0.69684 0.04869 0.84614 0.0
H953 H 0.7067 0.07651 0.90815 0.0
H954 H 0.69957 0.09084 0.89277 0.0
H955 H 0.71961 0.08144 0.89065 0.0
C956 C 0.7202 0.10156 0.84733 0.0
C957 C 0.73314 0.09443 0.83822 0.0
C958 C 0.71003 0.09164 0.85719 0.0
C959 C 0.71294 0.07455 0.85833 0.0
C960 C 0.72625 0.06759 0.84965 0.0
H961 H 0.67911 0.00219 0.92723 0.0
H962 H 0.69332 0.02356 0.91136 0.0
C963 C 0.73618 0.07741 0.83961 0.0
C964 C 0.7017 0.06357 0.8677 0.0
H965 H 0.68654 0.05541 0.90619 0.0
C966 C 0.69457 0.05016 0.85928 0.0
C967 C 0.69879 0.06552 0.88482 0.0
C968 C 0.70668 0.07926 0.89469 0.0
C969 C 0.68504 0.03834 0.86759 0.0
C970 C 0.68204 0.04032 0.8847 0.0
C971 C 0.68879 0.05398 0.89304 0.0
C972 C 0.67301 0.02773 0.89442 0.0
C973 C 0.67894 0.02347 0.85807 0.0
C974 C 0.65682 0.02306 0.89024 0.0
C975 C 0.64879 0.01059 0.89909 0.0
C976 C 0.65671 0.0029 0.91249 0.0
C977 C 0.67273 0.00789 0.91692 0.0
C978 C 0.68083 0.02014 0.90792 0.0
H979 H 0.68591 0.0217 0.84636 0.0
H980 H 0.68005 0.01201 0.86554 0.0
H981 H 0.66573 0.02527 0.85484 0.0
H982 H 0.6504 0.02904 0.88013 0.0
H983 H 0.63634 0.0071 0.89559 0.0
H984 H 0.78427 0.86998 0.34028 0.0
H985 H 0.80712 0.88329 0.35536 0.0
H986 H 0.77373 0.92129 0.37223 0.0
H987 H 0.75113 0.90838 0.35699 0.0
H988 H 0.81485 0.91902 0.3475 0.0
H989 H 0.80236 0.90728 0.4138 0.0
H990 H 0.79557 0.8935 0.39753 0.0
H991 H 0.78418 0.91207 0.40194 0.0
C992 C 0.78179 0.88092 0.34759 0.0
C993 C 0.76603 0.88824 0.3475 0.0
C994 C 0.79481 0.88849 0.35612 0.0
C995 C 0.792 0.90315 0.36495 0.0
C996 C 0.77604 0.90986 0.36564 0.0
H997 H 0.82 0.98973 0.40849 0.0
H998 H 0.80887 0.96466 0.39597 0.0
C999 C 0.76318 0.90252 0.3569 0.0
C1000 C 0.80578 0.91291 0.37176 0.0
H1001 H 0.81695 0.93248 0.40728 0.0
C1002 C 0.81579 0.92166 0.36062 0.0
C1003 C 0.80686 0.91621 0.38883 0.0
C1004 C 0.79678 0.90666 0.40126 0.0
C1005 C 0.82569 0.93485 0.36601 0.0
C1006 C 0.82564 0.93908 0.38296 0.0
C1007 C 0.81679 0.9293 0.39425 0.0
C1008 C 0.83274 0.95476 0.38901 0.0
C1009 C 0.83501 0.94498 0.35344 0.0
C1010 C 0.84983 0.95769 0.38878 0.0
C1011 C 0.85622 0.97218 0.39574 0.0
C1012 C 0.84559 0.98375 0.40319 0.0
C1013 C 0.82847 0.98102 0.40285 0.0
C1014 C 0.82211 0.96667 0.39579 0.0
H1015 H 0.83206 0.94127 0.34054 0.0
H1016 H 0.83211 0.95832 0.35496 0.0
H1017 H 0.84849 0.94337 0.35539 0.0
H1018 H 0.85822 0.94855 0.38375 0.0
H1019 H 0.86949 0.97392 0.39601 0.0
H1020 H 0.81667 0.01581 0.06592 0.0
H1021 H 0.80124 0.03392 0.08446 0.0
H1022 H 0.84069 0.0313 0.12024 0.0
H1023 H 0.8564 0.01324 0.1016 0.0
H1024 H 0.79096 0.02589 0.11648 0.0
H1025 H 0.83142 0.08148 0.11554 0.0
H1026 H 0.83282 0.0653 0.10021 0.0
H1027 H 0.84154 0.06228 0.1204 0.0
C1028 C 0.82213 0.01914 0.07772 0.0
C1029 C 0.83774 0.01312 0.08236 0.0
C1030 C 0.81329 0.02949 0.08824 0.0
C1031 C 0.81993 0.03407 0.10358 0.0
C1032 C 0.83552 0.02811 0.1083 0.0
H1033 H 0.76306 0.07239 0.18537 0.0
H1034 H 0.78216 0.0571 0.1677 0.0
C1035 C 0.84442 0.01772 0.09773 0.0
C1036 C 0.81002 0.04439 0.11487 0.0
H1037 H 0.80865 0.08197 0.13402 0.0
C1038 C 0.79482 0.03815 0.12034 0.0
C1039 C 0.81508 0.06042 0.11967 0.0
C1040 C 0.83104 0.06788 0.11357 0.0
C1041 C 0.7845 0.04749 0.1306 0.0
C1042 C 0.78969 0.06337 0.1357 0.0
C1043 C 0.80484 0.06971 0.13014 0.0
C1044 C 0.7794 0.07352 0.14677 0.0
C1045 C 0.768 0.04041 0.1357 0.0
C1046 C 0.77199 0.08808 0.14095 0.0
C1047 C 0.76107 0.09688 0.15104 0.0
C1048 C 0.75751 0.09121 0.16707 0.0
C1049 C 0.76546 0.07696 0.17303 0.0
C1050 C 0.77635 0.06821 0.16297 0.0
H1051 H 0.7643 0.02981 0.12778 0.0
H1052 H 0.76881 0.03596 0.14866 0.0
H1053 H 0.75818 0.04999 0.13511 0.0
H1054 H 0.77428 0.09233 0.12847 0.0
H1055 H 0.75516 0.10788 0.14618 0.0
H1056 H 0.26101 0.57133 0.6646 0.0
H1057 H 0.28419 0.55986 0.64929 0.0
H1058 H 0.29601 0.60831 0.63037 0.0
H1059 H 0.2724 0.61998 0.64562 0.0
H1060 H 0.29733 0.58396 0.60654 0.0
H1061 H 0.33277 0.56432 0.6613 0.0
H1062 H 0.3119 0.55701 0.66272 0.0
H1063 H 0.31592 0.57894 0.66256 0.0
C1064 C 0.26849 0.57957 0.65716 0.0
C1065 C 0.265 0.59655 0.65638 0.0
C1066 C 0.28183 0.57303 0.64856 0.0
C1067 C 0.29211 0.58334 0.63917 0.0
C1068 C 0.28835 0.60023 0.63781 0.0
H1069 H 0.37363 0.52369 0.59847 0.0
H1070 H 0.36043 0.547 0.61279 0.0
C1071 C 0.27485 0.60683 0.64641 0.0
C1072 C 0.30626 0.57596 0.63033 0.0
H1073 H 0.3371 0.54788 0.63627 0.0
C1074 C 0.30633 0.57642 0.61302 0.0
C1075 C 0.31833 0.56655 0.63879 0.0
C1076 C 0.31985 0.56684 0.65738 0.0
C1077 C 0.31707 0.56629 0.60394 0.0
C1078 C 0.32758 0.5552 0.61248 0.0
C1079 C 0.32873 0.55608 0.62974 0.0
C1080 C 0.33582 0.54133 0.60393 0.0
C1081 C 0.31656 0.56711 0.58532 0.0
C1082 C 0.32625 0.53012 0.59479 0.0
C1083 C 0.3337 0.51691 0.58667 0.0
C1084 C 0.35083 0.51449 0.58776 0.0
C1085 C 0.36037 0.52528 0.59749 0.0
C1086 C 0.35289 0.53863 0.60554 0.0
H1087 H 0.31321 0.57973 0.58105 0.0
H1088 H 0.32864 0.56363 0.57979 0.0
H1089 H 0.30696 0.55848 0.58067 0.0
H1090 H 0.31297 0.5316 0.59392 0.0
H1091 H 0.32604 0.5087 0.57937 0.0
H1092 H 0.24676 0.57341 0.33825 0.0
H1093 H 0.2254 0.55915 0.35396 0.0
H1094 H 0.20513 0.60605 0.36936 0.0
H1095 H 0.22693 0.6205 0.35389 0.0
H1096 H 0.20611 0.58393 0.39452 0.0
H1097 H 0.17773 0.55457 0.3399 0.0
H1098 H 0.19943 0.55017 0.34063 0.0
H1099 H 0.1925 0.57122 0.33819 0.0
C1100 C 0.23781 0.58071 0.34504 0.0
C1101 C 0.23838 0.59804 0.34477 0.0
C1102 C 0.22552 0.57255 0.35387 0.0
C1103 C 0.21338 0.58156 0.36235 0.0
C1104 C 0.21427 0.5989 0.36267 0.0
H1105 H 0.13381 0.51881 0.40178 0.0
H1106 H 0.14739 0.54124 0.38652 0.0
C1107 C 0.22673 0.60711 0.35392 0.0
C1108 C 0.20012 0.57261 0.37116 0.0
H1109 H 0.17291 0.54083 0.36614 0.0
C1110 C 0.1986 0.57473 0.38829 0.0
C1111 C 0.18995 0.56098 0.36295 0.0
C1112 C 0.18985 0.55925 0.34437 0.0
C1113 C 0.18814 0.56454 0.39762 0.0
C1114 C 0.1794 0.55166 0.38961 0.0
C1115 C 0.17989 0.55046 0.37233 0.0
C1116 C 0.17091 0.53846 0.39899 0.0
C1117 C 0.18681 0.56751 0.41599 0.0
C1118 C 0.17977 0.52921 0.41068 0.0
C1119 C 0.17206 0.51654 0.41942 0.0
C1120 C 0.15543 0.51266 0.41639 0.0
C1121 C 0.14667 0.52155 0.40431 0.0
C1122 C 0.15437 0.53439 0.39567 0.0
H1123 H 0.18885 0.58076 0.419 0.0
H1124 H 0.17454 0.56373 0.42084 0.0
H1125 H 0.1965 0.56026 0.42245 0.0
H1126 H 0.19272 0.53171 0.413 0.0
H1127 H 0.17915 0.50978 0.42856 0.0
H1128 H 0.32445 0.478 0.9363 0.0
H1129 H 0.30963 0.45591 0.922 0.0
H1130 H 0.32927 0.47283 0.87538 0.0
H1131 H 0.34447 0.49475 0.88967 0.0
H1132 H 0.28582 0.46023 0.89919 0.0
H1133 H 0.33679 0.42343 0.87218 0.0
H1134 H 0.34014 0.43856 0.88826 0.0
H1135 H 0.33829 0.44495 0.86701 0.0
C1136 C 0.32577 0.47689 0.92302 0.0
C1137 C 0.33558 0.48809 0.91406 0.0
C1138 C 0.31733 0.46425 0.91489 0.0
C1139 C 0.31855 0.46258 0.89769 0.0
C1140 C 0.3285 0.47364 0.88873 0.0
H1141 H 0.26684 0.42023 0.81812 0.0
H1142 H 0.28535 0.43395 0.83756 0.0
C1143 C 0.33705 0.48624 0.89687 0.0
C1144 C 0.30829 0.45023 0.88896 0.0
H1145 H 0.30981 0.41937 0.86024 0.0
C1146 C 0.29106 0.45108 0.8909 0.0
C1147 C 0.3152 0.43828 0.87824 0.0
C1148 C 0.33363 0.43612 0.87642 0.0
C1149 C 0.2805 0.44089 0.88171 0.0
C1150 C 0.2874 0.42949 0.87043 0.0
C1151 C 0.30462 0.42817 0.86894 0.0
C1152 C 0.27689 0.42015 0.85883 0.0
C1153 C 0.26204 0.44296 0.88348 0.0
C1154 C 0.26618 0.40769 0.86441 0.0
C1155 C 0.25554 0.39979 0.8533 0.0
C1156 C 0.25549 0.40432 0.83653 0.0
C1157 C 0.26652 0.41654 0.83099 0.0
C1158 C 0.27716 0.42434 0.84204 0.0
H1159 H 0.25874 0.45384 0.89119 0.0
H1160 H 0.25618 0.44435 0.87114 0.0
H1161 H 0.25676 0.43175 0.88938 0.0
H1162 H 0.26594 0.40424 0.87735 0.0
H1163 H 0.2472 0.39035 0.85786 0.0
H1164 H 0.60457 0.63995 0.99205 0.0
H1165 H 0.62189 0.6571 0.97397 0.0
H1166 H 0.57852 0.68318 0.95709 0.0
H1167 H 0.56129 0.66647 0.97535 0.0
H1168 H 0.62146 0.66196 0.94007 0.0
H1169 H 0.60787 0.72055 0.97314 0.0
H1170 H 0.60269 0.70055 0.98156 0.0
H1171 H 0.58971 0.70992 0.96612 0.0
C1172 C 0.59878 0.64934 0.98446 0.0
C1173 C 0.58164 0.65204 0.98523 0.0
C1174 C 0.60864 0.6591 0.97415 0.0
C1175 C 0.60149 0.67162 0.96449 0.0
C1176 C 0.58432 0.67388 0.96479 0.0
H1177 H 0.64252 0.74346 0.89523 0.0
H1178 H 0.62373 0.72508 0.91048 0.0
C1179 C 0.57449 0.66427 0.97516 0.0
C1180 C 0.61196 0.68246 0.95416 0.0
H1181 H 0.62258 0.72283 0.94786 0.0
C1182 C 0.62175 0.67526 0.94178 0.0
C1183 C 0.61229 0.69982 0.95647 0.0
C1184 C 0.6027 0.70817 0.97014 0.0
C1185 C 0.63178 0.685 0.93154 0.0
C1186 C 0.63202 0.7023 0.93383 0.0
C1187 C 0.62217 0.70954 0.94609 0.0
C1188 C 0.64321 0.71305 0.92429 0.0
C1189 C 0.64202 0.67678 0.91829 0.0
C1190 C 0.66025 0.7124 0.92726 0.0
C1191 C 0.67092 0.72291 0.91876 0.0
C1192 C 0.66471 0.73422 0.90711 0.0
C1193 C 0.64761 0.73485 0.90414 0.0
C1194 C 0.6369 0.72438 0.91278 0.0
H1195 H 0.63799 0.66386 0.91595 0.0
H1196 H 0.6413 0.68386 0.90655 0.0
H1197 H 0.65515 0.67653 0.92225 0.0
H1198 H 0.66527 0.70386 0.93628 0.0
H1199 H 0.68404 0.72213 0.9213 0.0
H1200 H 0.62129 0.35687 0.22504 0.0
H1201 H 0.60613 0.37253 0.2039 0.0
H1202 H 0.56024 0.35181 0.22152 0.0
H1203 H 0.57527 0.33585 0.24218 0.0
H1204 H 0.56248 0.35082 0.188 0.0
H1205 H 0.57836 0.41349 0.21163 0.0
H1206 H 0.59559 0.4005 0.20638 0.0
H1207 H 0.5824 0.39497 0.22338 0.0
C1208 C 0.60796 0.35578 0.22442 0.0
C1209 C 0.59942 0.34523 0.23526 0.0
C1210 C 0.59933 0.36473 0.21238 0.0
C1211 C 0.58206 0.36343 0.21125 0.0
C1212 C 0.57358 0.35294 0.22214 0.0
H1213 H 0.5061 0.42621 0.17904 0.0
H1214 H 0.52707 0.40929 0.19252 0.0
C1215 C 0.58217 0.3439 0.23399 0.0
C1216 C 0.57251 0.37295 0.1989 0.0
H1217 H 0.56052 0.41208 0.18882 0.0
C1218 C 0.56215 0.36423 0.18802 0.0
C1219 C 0.57215 0.39042 0.19902 0.0
C1220 C 0.5826 0.40045 0.21079 0.0
C1221 C 0.5508 0.37249 0.17784 0.0
C1222 C 0.55013 0.38994 0.17831 0.0
C1223 C 0.5611 0.39868 0.18854 0.0
C1224 C 0.53702 0.39937 0.16974 0.0
C1225 C 0.53903 0.36245 0.16741 0.0
C1226 C 0.53549 0.39917 0.15245 0.0
C1227 C 0.52329 0.40869 0.1447 0.0
C1228 C 0.51268 0.41869 0.15416 0.0
C1229 C 0.51413 0.41865 0.17145 0.0
C1230 C 0.52615 0.40904 0.17915 0.0
H1231 H 0.53902 0.34918 0.17096 0.0
H1232 H 0.52623 0.36729 0.1685 0.0
H1233 H 0.54278 0.36332 0.15424 0.0
H1234 H 0.54393 0.39198 0.14495 0.0
H1235 H 0.52251 0.40865 0.13133 0.0
H1236 H 0.93078 0.33816 0.47417 0.0
H1237 H 0.9149 0.32286 0.45358 0.0
H1238 H 0.86953 0.33848 0.47687 0.0
H1239 H 0.8854 0.35418 0.49737 0.0
H1240 H 0.89462 0.29721 0.46075 0.0
H1241 H 0.85959 0.34631 0.4282 0.0
H1242 H 0.8772 0.35072 0.4412 0.0
H1243 H 0.85724 0.34701 0.45026 0.0
C1244 C 0.91741 0.33852 0.47479 0.0
C1245 C 0.90929 0.34729 0.48739 0.0
C1246 C 0.90837 0.3298 0.463 0.0
C1247 C 0.89106 0.32969 0.4636 0.0
C1248 C 0.88288 0.33872 0.47598 0.0
H1249 H 0.81267 0.27215 0.42399 0.0
H1250 H 0.83078 0.29205 0.43762 0.0
C1251 C 0.89194 0.34757 0.48774 0.0
C1252 C 0.8817 0.31889 0.45222 0.0
H1253 H 0.85039 0.31848 0.42397 0.0
C1254 C 0.8851 0.30187 0.45253 0.0
C1255 C 0.86932 0.32505 0.44154 0.0
C1256 C 0.86571 0.34329 0.44012 0.0
C1257 C 0.87601 0.29073 0.44289 0.0
C1258 C 0.86334 0.29684 0.43254 0.0
C1259 C 0.86016 0.31389 0.43193 0.0
C1260 C 0.8524 0.28556 0.42329 0.0
C1261 C 0.87955 0.27246 0.44437 0.0
C1262 C 0.85857 0.27552 0.41055 0.0
C1263 C 0.84825 0.26406 0.40274 0.0
C1264 C 0.83164 0.26256 0.40759 0.0
C1265 C 0.82544 0.27296 0.42005 0.0
C1266 C 0.83573 0.28438 0.4278 0.0
H1267 H 0.88768 0.26962 0.45507 0.0
H1268 H 0.86787 0.26537 0.44571 0.0
H1269 H 0.88582 0.26813 0.43296 0.0
H1270 H 0.87139 0.27642 0.4068 0.0
H1271 H 0.8533 0.25626 0.3931 0.0
H1272 H 0.86955 0.64697 0.71918 0.0
H1273 H 0.88197 0.6334 0.69498 0.0
H1274 H 0.9302 0.65007 0.7105 0.0
H1275 H 0.91797 0.66372 0.73439 0.0
H1276 H 0.92299 0.6553 0.67627 0.0
H1277 H 0.91045 0.59079 0.69725 0.0
H1278 H 0.89339 0.60501 0.69589 0.0
H1279 H 0.90909 0.60813 0.71123 0.0
C1280 C 0.8828 0.64765 0.71741 0.0
C1281 C 0.89282 0.65632 0.72868 0.0
C1282 C 0.88985 0.63993 0.70362 0.0
C1283 C 0.90698 0.64075 0.70103 0.0
C1284 C 0.91693 0.6494 0.71226 0.0
H1285 H 0.98657 0.58926 0.66754 0.0
H1286 H 0.96304 0.60333 0.67997 0.0
C1287 C 0.90994 0.65711 0.72595 0.0
C1288 C 0.915 0.6323 0.68699 0.0
H1289 H 0.92879 0.59428 0.67517 0.0
C1290 C 0.92397 0.64194 0.67569 0.0
C1291 C 0.91614 0.61488 0.68636 0.0
C1292 C 0.90685 0.60401 0.69833 0.0
C1293 C 0.93512 0.63465 0.6646 0.0
C1294 C 0.93713 0.61731 0.66479 0.0
C1295 C 0.92716 0.6076 0.67514 0.0
C1296 C 0.95134 0.6093 0.65666 0.0
C1297 C 0.94561 0.64556 0.6537 0.0
C1298 C 0.95263 0.60825 0.6394 0.0
C1299 C 0.96621 0.60028 0.63221 0.0
C1300 C 0.97854 0.59322 0.64224 0.0
C1301 C 0.97726 0.59456 0.65949 0.0
C1302 C 0.9638 0.60252 0.66662 0.0
H1303 H 0.94338 0.65892 0.65601 0.0
H1304 H 0.95892 0.6429 0.65577 0.0
H1305 H 0.94282 0.64292 0.64053 0.0
H1306 H 0.94305 0.61334 0.63155 0.0
H1307 H 0.96687 0.5993 0.61887 0.0
H1308 H 0.58469 0.31979 0.50824 0.0
H1309 H 0.60104 0.30757 0.53037 0.0
H1310 H 0.621 0.35558 0.5424 0.0
H1311 H 0.60504 0.36784 0.51965 0.0
H1312 H 0.64445 0.33315 0.54329 0.0
H1313 H 0.59174 0.30896 0.57876 0.0
H1314 H 0.59042 0.30153 0.55795 0.0
H1315 H 0.58908 0.32344 0.56199 0.0
C1316 C 0.59258 0.32775 0.51558 0.0
C1317 C 0.59356 0.34475 0.51234 0.0
C1318 C 0.60177 0.32079 0.52835 0.0
C1319 C 0.61179 0.33075 0.53841 0.0
C1320 C 0.61315 0.34771 0.53493 0.0
H1321 H 0.65368 0.27055 0.61847 0.0
H1322 H 0.63931 0.2939 0.60549 0.0
C1323 C 0.60411 0.35468 0.52193 0.0
C1324 C 0.62136 0.32308 0.55198 0.0
H1325 H 0.61778 0.29402 0.58225 0.0
C1326 C 0.63861 0.32487 0.55207 0.0
C1327 C 0.61374 0.31276 0.56388 0.0
C1328 C 0.5952 0.31175 0.56576 0.0
C1329 C 0.6485 0.31544 0.56272 0.0
C1330 C 0.64095 0.30349 0.57305 0.0
C1331 C 0.62364 0.30285 0.57404 0.0
C1332 C 0.65062 0.29041 0.58147 0.0
C1333 C 0.66695 0.31816 0.5625 0.0
C1334 C 0.66157 0.2806 0.57225 0.0
C1335 C 0.66989 0.26748 0.57966 0.0
C1336 C 0.66709 0.26362 0.59633 0.0
C1337 C 0.656 0.27327 0.60557 0.0
C1338 C 0.64786 0.28662 0.59819 0.0
H1339 H 0.6699 0.33131 0.55984 0.0
H1340 H 0.67275 0.31468 0.57445 0.0
H1341 H 0.67252 0.3106 0.5525 0.0
H1342 H 0.66341 0.28282 0.55918 0.0
H1343 H 0.67825 0.26013 0.57221 0.0
H1344 H 0.90023 0.35415 0.7547 0.0
H1345 H 0.91589 0.37041 0.77498 0.0
H1346 H 0.94024 0.32605 0.79184 0.0
H1347 H 0.92497 0.30983 0.77148 0.0
H1348 H 0.91788 0.36766 0.80966 0.0
H1349 H 0.97872 0.35641 0.77981 0.0
H1350 H 0.95937 0.35198 0.76963 0.0
H1351 H 0.96747 0.33796 0.78486 0.0
C1352 C 0.90893 0.3479 0.76274 0.0
C1353 C 0.91154 0.33078 0.76141 0.0
C1354 C 0.91781 0.35717 0.77431 0.0
C1355 C 0.92939 0.34943 0.78467 0.0
C1356 C 0.93162 0.33228 0.7837 0.0
H1357 H 0.00014 0.38965 0.85558 0.0
H1358 H 0.9816 0.37064 0.84087 0.0
C1359 C 0.92284 0.32304 0.7721 0.0
C1360 C 0.93937 0.35931 0.79634 0.0
H1361 H 0.97903 0.3704 0.80546 0.0
C1362 C 0.93125 0.36828 0.80877 0.0
C1363 C 0.9568 0.36001 0.79512 0.0
C1364 C 0.96613 0.35121 0.78156 0.0
C1365 C 0.94015 0.37796 0.82008 0.0
C1366 C 0.95754 0.37876 0.81874 0.0
C1367 C 0.96568 0.3696 0.80649 0.0
C1368 C 0.96751 0.39005 0.82903 0.0
C1369 C 0.93092 0.38724 0.83336 0.0
C1370 C 0.96563 0.40717 0.82719 0.0
C1371 C 0.97621 0.41799 0.83543 0.0
C1372 C 0.98886 0.41185 0.84562 0.0
C1373 C 0.99046 0.39469 0.84782 0.0
C1374 C 0.97991 0.38385 0.83946 0.0
H1375 H 0.91842 0.38195 0.83549 0.0
H1376 H 0.93788 0.38709 0.8452 0.0
H1377 H 0.92939 0.40031 0.82949 0.0
H1378 H 0.95633 0.41217 0.81895 0.0
H1379 H 0.97468 0.43116 0.83352 0.0
H1380 H 0.86016 0.74919 0.10671 0.0
H1381 H 0.87733 0.7288 0.09208 0.0
H1382 H 0.83349 0.70704 0.07092 0.0
H1383 H 0.81641 0.72743 0.08508 0.0
H1384 H 0.87734 0.69356 0.09167 0.0
H1385 H 0.861 0.71999 0.03051 0.0
H1386 H 0.85691 0.73066 0.04967 0.0
H1387 H 0.84332 0.71448 0.04272 0.0
C1388 C 0.85424 0.73998 0.099 0.0
C1389 C 0.83701 0.74002 0.0968 0.0
C1390 C 0.86402 0.72836 0.0907 0.0
C1391 C 0.85665 0.71668 0.08019 0.0
C1392 C 0.83941 0.71622 0.07868 0.0
H1393 H 0.88988 0.64111 0.01224 0.0
H1394 H 0.87384 0.65781 0.03183 0.0
C1395 C 0.82968 0.72785 0.08681 0.0
C1396 C 0.86687 0.70532 0.0702 0.0
H1397 H 0.87494 0.69414 0.03035 0.0
C1398 C 0.87693 0.69371 0.07826 0.0
C1399 C 0.86629 0.70566 0.05272 0.0
C1400 C 0.85643 0.71847 0.04337 0.0
C1401 C 0.88616 0.68211 0.06923 0.0
C1402 C 0.88528 0.68227 0.05179 0.0
C1403 C 0.87536 0.69397 0.04375 0.0
C1404 C 0.89509 0.6709 0.04147 0.0
C1405 C 0.89657 0.6696 0.07834 0.0
C1406 C 0.91227 0.67277 0.04054 0.0
C1407 C 0.92139 0.66341 0.0293 0.0
C1408 C 0.91346 0.65201 0.01885 0.0
C1409 C 0.89629 0.64979 0.02017 0.0
C1410 C 0.88715 0.65928 0.03134 0.0
H1411 H 0.89336 0.66898 0.09168 0.0
H1412 H 0.89506 0.65712 0.0728 0.0
H1413 H 0.90979 0.67309 0.07726 0.0
H1414 H 0.91854 0.68189 0.04809 0.0
H1415 H 0.93462 0.66535 0.02857 0.0
H1416 H 0.51134 0.58394 0.32574 0.0
H1417 H 0.53459 0.59785 0.31261 0.0
H1418 H 0.55464 0.61005 0.36054 0.0
H1419 H 0.53092 0.59654 0.37382 0.0
H1420 H 0.55725 0.6355 0.33996 0.0
H1421 H 0.58066 0.58015 0.30812 0.0
H1422 H 0.55925 0.58284 0.30318 0.0
H1423 H 0.56533 0.57894 0.32429 0.0
C1424 C 0.52066 0.58965 0.33348 0.0
C1425 C 0.51944 0.5891 0.35077 0.0
C1426 C 0.53404 0.59742 0.32598 0.0
C1427 C 0.54664 0.60444 0.33561 0.0
C1428 C 0.54517 0.60445 0.3529 0.0
H1429 H 0.62434 0.63946 0.26831 0.0
H1430 H 0.61291 0.62507 0.29249 0.0
C1431 C 0.53161 0.59683 0.36045 0.0
C1432 C 0.56089 0.61231 0.32733 0.0
H1433 H 0.58681 0.60657 0.29465 0.0
C1434 C 0.56403 0.62909 0.33032 0.0
C1435 C 0.57022 0.60382 0.31521 0.0
C1436 C 0.56881 0.58539 0.31268 0.0
C1437 C 0.57501 0.63799 0.32032 0.0
C1438 C 0.58252 0.62998 0.30669 0.0
C1439 C 0.58072 0.61284 0.30483 0.0
C1440 C 0.59027 0.63938 0.29306 0.0
C1441 C 0.57799 0.656 0.32414 0.0
C1442 C 0.58122 0.65193 0.28522 0.0
C1443 C 0.58773 0.66016 0.27161 0.0
C1444 C 0.60327 0.65576 0.2653 0.0
C1445 C 0.61229 0.64304 0.27294 0.0
C1446 C 0.60583 0.6349 0.28677 0.0
H1447 H 0.57749 0.65824 0.33769 0.0
H1448 H 0.59016 0.66025 0.31942 0.0
H1449 H 0.56811 0.66357 0.31837 0.0
H1450 H 0.56892 0.65515 0.2894 0.0
H1451 H 0.58044 0.66983 0.26587 0.0
H1452 H 0.72469 0.91706 0.69317 0.0
H1453 H 0.7047 0.93108 0.67545 0.0
H1454 H 0.72363 0.90484 0.63306 0.0
H1455 H 0.74367 0.89056 0.6508 0.0
H1456 H 0.71494 0.95133 0.64924 0.0
H1457 H 0.67274 0.90146 0.62793 0.0
H1458 H 0.68575 0.89935 0.64597 0.0
H1459 H 0.69443 0.89715 0.62565 0.0
C1460 C 0.72445 0.91406 0.68012 0.0
C1461 C 0.73579 0.9028 0.67331 0.0
C1462 C 0.713 0.92206 0.67004 0.0
C1463 C 0.71265 0.91889 0.65302 0.0
C1464 C 0.72356 0.90722 0.64624 0.0
H1465 H 0.67945 0.9811 0.57393 0.0
H1466 H 0.69446 0.96297 0.59291 0.0
C1467 C 0.73504 0.89917 0.65635 0.0
C1468 C 0.70208 0.92909 0.64222 0.0
H1469 H 0.67034 0.92757 0.61446 0.0
C1470 C 0.70512 0.94616 0.64172 0.0
C1471 C 0.68926 0.92226 0.63252 0.0
C1472 C 0.6852 0.90407 0.63309 0.0
C1473 C 0.69586 0.95658 0.63148 0.0
C1474 C 0.68335 0.9497 0.62146 0.0
C1475 C 0.68003 0.9327 0.62217 0.0
C1476 C 0.67397 0.96006 0.60981 0.0
C1477 C 0.69951 0.97488 0.63138 0.0
C1478 C 0.65747 0.96422 0.61309 0.0
C1479 C 0.64888 0.97466 0.60234 0.0
C1480 C 0.65668 0.98092 0.58813 0.0
C1481 C 0.67315 0.9765 0.58481 0.0
C1482 C 0.68173 0.96616 0.59559 0.0
H1483 H 0.70748 0.97861 0.64194 0.0
H1484 H 0.70599 0.97813 0.61973 0.0
H1485 H 0.68785 0.98212 0.63186 0.0
H1486 H 0.65136 0.95958 0.62406 0.0
H1487 H 0.63617 0.97782 0.60513 0.0
H1488 H 0.21409 0.35698 0.21017 0.0
H1489 H 0.19599 0.34756 0.23245 0.0
H1490 H 0.22791 0.37099 0.26821 0.0
H1491 H 0.24578 0.3808 0.24595 0.0
H1492 H 0.20666 0.32616 0.25454 0.0
H1493 H 0.18354 0.38074 0.28813 0.0
H1494 H 0.19209 0.38217 0.26755 0.0
H1495 H 0.20547 0.38215 0.28538 0.0
C1496 C 0.21698 0.36051 0.22276 0.0
C1497 C 0.2314 0.3695 0.22638 0.0
C1498 C 0.20661 0.35516 0.23546 0.0
C1499 C 0.21049 0.35868 0.252 0.0
C1500 C 0.2244 0.36847 0.25554 0.0
H1501 H 0.21296 0.31864 0.34478 0.0
H1502 H 0.21209 0.33527 0.31971 0.0
C1503 C 0.23471 0.37396 0.24281 0.0
C1504 C 0.20181 0.34994 0.26555 0.0
H1505 H 0.18675 0.3555 0.30455 0.0
C1506 C 0.20182 0.33257 0.26528 0.0
C1507 C 0.19543 0.3583 0.27952 0.0
C1508 C 0.19397 0.37688 0.28008 0.0
C1509 C 0.19703 0.32337 0.27915 0.0
C1510 C 0.19193 0.33178 0.29359 0.0
C1511 C 0.19073 0.3491 0.29345 0.0
C1512 C 0.19059 0.32303 0.30956 0.0
C1513 C 0.19872 0.30477 0.27869 0.0
C1514 C 0.17852 0.31086 0.31232 0.0
C1515 C 0.17902 0.30122 0.3267 0.0
C1516 C 0.19163 0.30366 0.33842 0.0
C1517 C 0.20319 0.31636 0.33591 0.0
C1518 C 0.20265 0.32596 0.32164 0.0
H1519 H 0.20462 0.30035 0.2671 0.0
H1520 H 0.20619 0.3004 0.28935 0.0
H1521 H 0.1863 0.29904 0.27964 0.0
H1522 H 0.16902 0.30853 0.30317 0.0
H1523 H 0.1699 0.29157 0.3284 0.0
H1524 H 0.86851 0.00164 0.49251 0.0
H1525 H 0.88166 0.98507 0.51412 0.0
H1526 H 0.89561 0.94852 0.47786 0.0
H1527 H 0.8829 0.96528 0.4561 0.0
H1528 H 0.88013 0.95245 0.52613 0.0
H1529 H 0.93995 0.96578 0.4946 0.0
H1530 H 0.92099 0.97597 0.48882 0.0
H1531 H 0.92469 0.95495 0.48266 0.0
C1532 C 0.87407 0.9899 0.48921 0.0
C1533 C 0.87498 0.98488 0.47263 0.0
C1534 C 0.88154 0.98043 0.50155 0.0
C1535 C 0.88991 0.96576 0.4975 0.0
C1536 C 0.88952 0.95998 0.48116 0.0
H1537 H 0.94784 0.92052 0.57934 0.0
H1538 H 0.93054 0.92084 0.55427 0.0
C1539 C 0.88223 0.96955 0.46878 0.0
C1540 C 0.90061 0.95781 0.51001 0.0
H1541 H 0.94121 0.95344 0.52065 0.0
C1542 C 0.89347 0.95228 0.52483 0.0
C1543 C 0.91803 0.95773 0.50824 0.0
C1544 C 0.92645 0.96401 0.4928 0.0
C1545 C 0.90336 0.9475 0.53827 0.0
C1546 C 0.92073 0.94824 0.53673 0.0
C1547 C 0.92785 0.95279 0.52163 0.0
C1548 C 0.93157 0.94741 0.55135 0.0
C1549 C 0.89528 0.94281 0.5544 0.0
C1550 C 0.93798 0.96219 0.55769 0.0
C1551 C 0.9477 0.96206 0.57187 0.0
C1552 C 0.95131 0.94711 0.57992 0.0
C1553 C 0.94525 0.93221 0.57332 0.0
C1554 C 0.93535 0.93236 0.55911 0.0
H1555 H 0.88157 0.94294 0.55359 0.0
H1556 H 0.89936 0.93024 0.55812 0.0
H1557 H 0.89921 0.95153 0.56426 0.0
H1558 H 0.93518 0.9739 0.5518 0.0
H1559 H 0.95224 0.97373 0.57663 0.0
H1560 H 0.30079 0.67052 0.85274 0.0
H1561 H 0.29898 0.65041 0.83032 0.0
H1562 H 0.31838 0.68661 0.79628 0.0
H1563 H 0.32081 0.70663 0.81894 0.0
H1564 H 0.27758 0.65823 0.80635 0.0
H1565 H 0.33836 0.64412 0.77813 0.0
H1566 H 0.33634 0.65278 0.79863 0.0
H1567 H 0.3347 0.66586 0.78072 0.0
C1568 C 0.30523 0.67397 0.84058 0.0
C1569 C 0.31077 0.6901 0.83744 0.0
C1570 C 0.30424 0.66247 0.82781 0.0
C1571 C 0.30853 0.66699 0.81163 0.0
C1572 C 0.31531 0.68274 0.80872 0.0
H1573 H 0.27491 0.64442 0.71546 0.0
H1574 H 0.29084 0.65278 0.73966 0.0
C1575 C 0.31659 0.6942 0.82163 0.0
C1576 C 0.30271 0.65668 0.79769 0.0
H1577 H 0.31432 0.63838 0.76147 0.0
C1578 C 0.28567 0.65358 0.79671 0.0
C1579 C 0.31327 0.65087 0.78504 0.0
C1580 C 0.33171 0.65344 0.78572 0.0
C1581 C 0.27876 0.64538 0.78317 0.0
C1582 C 0.28925 0.63978 0.77035 0.0
C1583 C 0.30636 0.64254 0.77143 0.0
C1584 C 0.28226 0.63266 0.75505 0.0
C1585 C 0.26019 0.6436 0.78229 0.0
C1586 C 0.27266 0.61821 0.75553 0.0
C1587 C 0.26332 0.61351 0.74177 0.0
C1588 C 0.26365 0.62313 0.72732 0.0
C1589 C 0.27428 0.63686 0.7265 0.0
C1590 C 0.28349 0.6416 0.74027 0.0
H1591 H 0.25379 0.65152 0.79151 0.0
H1592 H 0.25555 0.64688 0.76979 0.0
H1593 H 0.25676 0.63056 0.78482 0.0
H1594 H 0.27178 0.61102 0.7668 0.0
H1595 H 0.2554 0.60276 0.74266 0.0
H1596 H 0.62371 0.98927 0.99612 0.0
H1597 H 0.60819 0.00648 0.01574 0.0
H1598 H 0.58011 0.02729 0.97548 0.0
H1599 H 0.59551 0.01025 0.95586 0.0
H1600 H 0.59124 0.0509 0.00044 0.0
H1601 H 0.55857 0.99602 0.02596 0.0
H1602 H 0.58076 0.99478 0.02575 0.0
H1603 H 0.5696 0.99546 0.00657 0.0
C1604 C 0.61433 0.99762 0.99146 0.0
C1605 C 0.61071 0.99831 0.97449 0.0
C1606 C 0.60548 0.0074 0.00266 0.0
C1607 C 0.59293 0.01801 0.99702 0.0
C1608 C 0.58974 0.01916 0.98005 0.0
H1609 H 0.51257 0.05347 0.05757 0.0
H1610 H 0.52877 0.04487 0.03355 0.0
C1611 C 0.59851 0.00937 0.96888 0.0
C1612 C 0.58245 0.02721 0.00883 0.0
H1613 H 0.55337 0.02167 0.03881 0.0
C1614 C 0.58294 0.04456 0.00885 0.0
C1615 C 0.57144 0.01886 0.01951 0.0
C1616 C 0.56988 0.00026 0.01943 0.0
C1617 C 0.57289 0.05381 0.01961 0.0
C1618 C 0.56221 0.04542 0.0306 0.0
C1619 C 0.56156 0.02808 0.03034 0.0
C1620 C 0.552 0.05413 0.04304 0.0
C1621 C 0.57366 0.07243 0.01903 0.0
C1622 C 0.55959 0.06284 0.05598 0.0
C1623 C 0.55034 0.06783 0.06969 0.0
C1624 C 0.53341 0.06404 0.07072 0.0
C1625 C 0.5256 0.05655 0.05714 0.0
C1626 C 0.53484 0.05158 0.04343 0.0
H1627 H 0.57891 0.07692 0.00716 0.0
H1628 H 0.56119 0.07792 0.02073 0.0
H1629 H 0.5817 0.07692 0.0292 0.0
H1630 H 0.57284 0.06472 0.05605 0.0
H1631 H 0.55671 0.07355 0.08 0.0
H1632 H 0.16826 0.69513 0.16646 0.0
H1633 H 0.17188 0.67578 0.18966 0.0
H1634 H 0.21674 0.70096 0.20363 0.0
H1635 H 0.21337 0.72003 0.18047 0.0
H1636 H 0.20309 0.65585 0.19219 0.0
H1637 H 0.18986 0.69375 0.2478 0.0
H1638 H 0.18137 0.69845 0.22765 0.0
H1639 H 0.20235 0.70393 0.23249 0.0
C1640 C 0.17863 0.69675 0.17477 0.0
C1641 C 0.19056 0.70902 0.17173 0.0
C1642 C 0.18071 0.68569 0.18792 0.0
C1643 C 0.19451 0.68706 0.19835 0.0
C1644 C 0.20591 0.69985 0.19582 0.0
H1645 H 0.26202 0.63186 0.25315 0.0
H1646 H 0.2449 0.64415 0.23144 0.0
C1647 C 0.204 0.71069 0.18258 0.0
C1648 C 0.19824 0.67427 0.21081 0.0
H1649 H 0.20696 0.66984 0.25177 0.0
C1650 C 0.20358 0.65871 0.20528 0.0
C1651 C 0.19877 0.67806 0.22783 0.0
C1652 C 0.19265 0.69441 0.23437 0.0
C1653 C 0.21051 0.64722 0.21628 0.0
C1654 C 0.21218 0.65152 0.23313 0.0
C1655 C 0.20577 0.66662 0.23881 0.0
C1656 C 0.22189 0.64136 0.24482 0.0
C1657 C 0.21648 0.63082 0.20973 0.0
C1658 C 0.21457 0.63549 0.25938 0.0
C1659 C 0.22432 0.62847 0.27178 0.0
C1660 C 0.24157 0.62741 0.26988 0.0
C1661 C 0.24876 0.63246 0.25491 0.0
C1662 C 0.23898 0.63942 0.24248 0.0
H1663 H 0.21007 0.62744 0.19805 0.0
H1664 H 0.22992 0.63164 0.20709 0.0
H1665 H 0.21453 0.62081 0.21893 0.0
H1666 H 0.20142 0.63697 0.26144 0.0
H1667 H 0.21842 0.62468 0.28319 0.0
H1668 H 0.60829 0.95808 0.5397 0.0
H1669 H 0.5946 0.94006 0.51969 0.0
H1670 H 0.61355 0.97002 0.47982 0.0
H1671 H 0.62767 0.98777 0.49977 0.0
H1672 H 0.57045 0.95088 0.50112 0.0
H1673 H 0.61795 0.92491 0.45977 0.0
H1674 H 0.62305 0.93387 0.47959 0.0
H1675 H 0.62066 0.94682 0.4616 0.0
C1676 C 0.60992 0.96053 0.52663 0.0
C1677 C 0.61894 0.97438 0.52126 0.0
C1678 C 0.60211 0.95021 0.51522 0.0
C1679 C 0.60314 0.95358 0.49824 0.0
C1680 C 0.61291 0.96689 0.49282 0.0
H1681 H 0.53587 0.96114 0.42352 0.0
H1682 H 0.55244 0.96095 0.44864 0.0
C1683 C 0.62088 0.97713 0.50424 0.0
C1684 C 0.59198 0.94504 0.48648 0.0
H1685 H 0.59056 0.92911 0.44745 0.0
C1686 C 0.57491 0.94569 0.48959 0.0
C1687 C 0.59771 0.93798 0.47154 0.0
C1688 C 0.61587 0.93569 0.46803 0.0
C1689 C 0.56343 0.94087 0.47756 0.0
C1690 C 0.56917 0.93553 0.46197 0.0
C1691 C 0.58619 0.93343 0.45937 0.0
C1692 C 0.55798 0.93479 0.44757 0.0
C1693 C 0.54522 0.94235 0.48133 0.0
C1694 C 0.55564 0.9201 0.43862 0.0
C1695 C 0.54602 0.92016 0.4242 0.0
C1696 C 0.53897 0.93498 0.41847 0.0
C1697 C 0.54115 0.94954 0.42765 0.0
C1698 C 0.55054 0.94943 0.44206 0.0
H1699 H 0.54283 0.9412 0.49481 0.0
H1700 H 0.54078 0.9547 0.47732 0.0
H1701 H 0.53797 0.93277 0.47469 0.0
H1702 H 0.56143 0.90872 0.44265 0.0
H1703 H 0.54462 0.9088 0.41725 0.0
H1704 H 0.32674 0.2835 0.67396 0.0
H1705 H 0.3243 0.29878 0.70016 0.0
H1706 H 0.2911 0.3334 0.67683 0.0
H1707 H 0.29351 0.31839 0.65085 0.0
H1708 H 0.31475 0.34797 0.69961 0.0
H1709 H 0.27964 0.29455 0.72556 0.0
H1710 H 0.30007 0.29082 0.71761 0.0
H1711 H 0.28371 0.29639 0.70371 0.0
C1712 C 0.31919 0.29455 0.6744 0.0
C1713 C 0.31013 0.29966 0.66048 0.0
C1714 C 0.31778 0.30322 0.68934 0.0
C1715 C 0.30737 0.31709 0.69041 0.0
C1716 C 0.29919 0.32273 0.67624 0.0
H1717 H 0.24992 0.38099 0.74806 0.0
H1718 H 0.26857 0.36816 0.728 0.0
C1719 C 0.30051 0.31408 0.66143 0.0
C1720 C 0.30337 0.32489 0.70643 0.0
H1721 H 0.27871 0.3194 0.74016 0.0
C1722 C 0.30717 0.34167 0.7087 0.0
C1723 C 0.29351 0.31659 0.71824 0.0
C1724 C 0.28887 0.29861 0.71624 0.0
C1725 C 0.30067 0.35059 0.72209 0.0
C1726 C 0.28984 0.34257 0.73322 0.0
C1727 C 0.28695 0.32554 0.73154 0.0
C1728 C 0.28013 0.35174 0.74574 0.0
C1729 C 0.30518 0.36859 0.72396 0.0
C1730 C 0.28029 0.34666 0.76231 0.0
C1731 C 0.26947 0.35379 0.7737 0.0
C1732 C 0.25827 0.36612 0.76872 0.0
C1733 C 0.25846 0.37157 0.75225 0.0
C1734 C 0.26923 0.36435 0.74082 0.0
H1735 H 0.31751 0.3712 0.71849 0.0
H1736 H 0.29596 0.37626 0.7173 0.0
H1737 H 0.30529 0.37239 0.73715 0.0
H1738 H 0.28851 0.33687 0.76634 0.0
H1739 H 0.26965 0.34938 0.78635 0.0
H1740 H 0.8644 0.008 0.9948 0.0
H1741 H 0.87594 0.0273 0.97457 0.0
H1742 H 0.89968 0.05451 0.01381 0.0
H1743 H 0.8885 0.03504 0.03409 0.0
H1744 H 0.87517 0.06228 0.97031 0.0
H1745 H 0.9383 0.03881 0.98512 0.0
H1746 H 0.91988 0.02854 0.99232 0.0
H1747 H 0.92662 0.04739 0.00194 0.0
C1748 C 0.8719 0.01821 -0.00087 0.0
C1749 C 0.87578 0.01988 0.01596 0.0
C1750 C 0.87843 0.02926 0.98758 0.0
C1751 C 0.88886 0.04215 0.9927 0.0
C1752 C 0.89189 0.04446 0.00961 0.0
H1753 H 0.95644 0.08499 0.91974 0.0
H1754 H 0.94035 0.08522 0.94551 0.0
C1755 C 0.88548 0.03335 0.02115 0.0
C1756 C 0.8977 0.05204 0.98015 0.0
H1757 H 0.9357 0.05638 0.96244 0.0
C1758 C 0.88845 0.06127 0.96874 0.0
C1759 C 0.91506 0.05083 0.97825 0.0
C1760 C 0.9256 0.04079 0.98996 0.0
C1761 C 0.89599 0.06853 0.95491 0.0
C1762 C 0.91313 0.06625 0.95237 0.0
C1763 C 0.92255 0.05813 0.96445 0.0
C1764 C 0.92099 0.06929 0.93615 0.0
C1765 C 0.88544 0.07803 0.94283 0.0
C1766 C 0.91529 0.06049 0.92235 0.0
C1767 C 0.92446 0.06021 0.9078 0.0
C1768 C 0.93955 0.06872 0.90678 0.0
C1769 C 0.94482 0.07836 0.92023 0.0
C1770 C 0.93565 0.07852 0.93491 0.0
H1771 H 0.87483 0.08399 0.94919 0.0
H1772 H 0.89271 0.08768 0.93631 0.0
H1773 H 0.88035 0.06935 0.9335 0.0
H1774 H 0.90425 0.05293 0.92314 0.0
H1775 H 0.92008 0.05273 0.89759 0.0
H1776 H 0.34841 0.16818 0.32018 0.0
H1777 H 0.32387 0.17539 0.33627 0.0
H1778 H 0.29743 0.18625 0.29128 0.0
H1779 H 0.32193 0.17912 0.27508 0.0
H1780 H 0.31291 0.20918 0.33154 0.0
H1781 H 0.26222 0.16381 0.32208 0.0
H1782 H 0.2838 0.15848 0.31966 0.0
H1783 H 0.27332 0.16993 0.3038 0.0
C1784 C 0.33719 0.17151 0.31367 0.0
C1785 C 0.33714 0.1733 0.29638 0.0
C1786 C 0.32319 0.17562 0.32289 0.0
C1787 C 0.30888 0.18134 0.31495 0.0
C1788 C 0.30829 0.18165 0.29762 0.0
H1789 H 0.22279 0.23871 0.33671 0.0
H1790 H 0.244 0.22038 0.32546 0.0
C1791 C 0.32233 0.17763 0.28838 0.0
C1792 C 0.29594 0.1899 0.32461 0.0
H1793 H 0.25478 0.18985 0.33369 0.0
C1794 C 0.30023 0.20486 0.33226 0.0
C1795 C 0.27944 0.1843 0.32524 0.0
C1796 C 0.27436 0.16818 0.31737 0.0
C1797 C 0.28832 0.21474 0.34004 0.0
C1798 C 0.27173 0.20922 0.34064 0.0
C1799 C 0.26751 0.19403 0.33329 0.0
C1800 C 0.25846 0.21952 0.34797 0.0
C1801 C 0.29352 0.23137 0.34675 0.0
C1802 C 0.25941 0.22494 0.36444 0.0
C1803 C 0.24745 0.23569 0.37081 0.0
C1804 C 0.23418 0.24088 0.3609 0.0
C1805 C 0.23293 0.23496 0.34461 0.0
C1806 C 0.245 0.22443 0.33819 0.0
H1807 H 0.30547 0.23553 0.3414 0.0
H1808 H 0.28404 0.24095 0.34415 0.0
H1809 H 0.29512 0.23046 0.36034 0.0
H1810 H 0.26947 0.22098 0.37234 0.0
H1811 H 0.24857 0.23988 0.38348 0.0
H1812 H 0.03004 0.96198 0.60315 0.0
H1813 H 0.04948 0.98067 0.58953 0.0
H1814 H 0.01909 0.02229 0.60341 0.0
H1815 H -9e-05 0.0037 0.61747 0.0
H1816 H 0.04196 0.99806 0.56352 0.0
H1817 H 0.06394 0.04157 0.61099 0.0
H1818 H 0.05398 0.0223 0.61629 0.0
H1819 H 0.04184 0.04045 0.61172 0.0
C1820 C 0.02774 0.97517 0.60365 0.0
C1821 C 0.01343 0.98141 0.61129 0.0
C1822 C 0.03888 0.98583 0.59589 0.0
C1823 C 0.03589 0.00291 0.59559 0.0
C1824 C 0.02195 0.00921 0.60386 0.0
H1825 H 0.03429 0.07349 0.52455 0.0
H1826 H 0.03394 0.04841 0.54116 0.0
C1827 C 0.0109 0.99857 0.61178 0.0
C1828 C 0.04577 0.01386 0.58469 0.0
H1829 H 0.0621 0.05268 0.58275 0.0
C1830 C 0.04679 0.0098 0.56783 0.0
C1831 C 0.05247 0.02902 0.59027 0.0
C1832 C 0.05316 0.03347 0.60836 0.0
C1833 C 0.05281 0.02117 0.55624 0.0
C1834 C 0.0576 0.03708 0.56161 0.0
C1835 C 0.05816 0.04054 0.5786 0.0
C1836 C 0.05913 0.051 0.54986 0.0
C1837 C 0.05319 0.01634 0.53823 0.0
C1838 C 0.07345 0.06079 0.54919 0.0
C1839 C 0.07369 0.07521 0.53958 0.0
C1840 C 0.05949 0.08012 0.53085 0.0
C1841 C 0.04541 0.06999 0.53115 0.0
C1842 C 0.04524 0.05558 0.54055 0.0
H1843 H 0.05516 0.00282 0.53679 0.0
H1844 H 0.04111 0.01943 0.53248 0.0
H1845 H 0.06308 0.02303 0.53145 0.0
H1846 H 0.08422 0.05752 0.55645 0.0
H1847 H 0.08465 0.0829 0.53963 0.0
H1848 H 0.1535 0.81355 0.81349 0.0
H1849 H 0.18111 0.80899 0.8245 0.0
H1850 H 0.20229 0.82268 0.77749 0.0
H1851 H 0.17441 0.82726 0.76633 0.0
H1852 H 0.21056 0.79139 0.78743 0.0
H1853 H 0.22165 0.83447 0.83907 0.0
H1854 H 0.20149 0.82542 0.84064 0.0
H1855 H 0.20638 0.83844 0.82324 0.0
C1856 C 0.16405 0.81615 0.80566 0.0
C1857 C 0.16187 0.82065 0.78905 0.0
C1858 C 0.17986 0.81367 0.81201 0.0
C1859 C 0.19378 0.81564 0.80187 0.0
C1860 C 0.19169 0.82126 0.78556 0.0
H1861 H 0.28554 0.76273 0.82777 0.0
H1862 H 0.26709 0.78196 0.81341 0.0
C1863 C 0.1758 0.82391 0.77922 0.0
C1864 C 0.20979 0.80885 0.80752 0.0
H1865 H 0.23479 0.80732 0.84146 0.0
C1866 C 0.21621 0.79516 0.79899 0.0
C1867 C 0.21709 0.81377 0.82262 0.0
C1868 C 0.21137 0.82895 0.83181 0.0
C1869 C 0.22881 0.78542 0.80584 0.0
C1870 C 0.23526 0.78967 0.82152 0.0
C1871 C 0.22965 0.80401 0.82952 0.0
C1872 C 0.24674 0.7786 0.83042 0.0
C1873 C 0.23433 0.77005 0.79682 0.0
C1874 C 0.24144 0.77055 0.84485 0.0
C1875 C 0.25192 0.75957 0.85308 0.0
C1876 C 0.2679 0.75653 0.84703 0.0
C1877 C 0.27323 0.76474 0.83265 0.0
C1878 C 0.26274 0.77572 0.82443 0.0
H1879 H 0.22629 0.76716 0.78606 0.0
H1880 H 0.24714 0.77182 0.79223 0.0
H1881 H 0.23437 0.75925 0.80529 0.0
H1882 H 0.2291 0.77263 0.84962 0.0
H1883 H 0.24752 0.75349 0.86417 0.0
H1884 H 0.46334 0.02663 0.10656 0.0
H1885 H 0.44933 0.00213 0.09569 0.0
H1886 H 0.49492 0.97463 0.09883 0.0
H1887 H 0.50898 -0.001 0.10984 0.0
H1888 H 0.4583 0.9874 0.06633 0.0
H1889 H 0.46123 0.94195 0.11731 0.0
H1890 H 0.46412 0.96387 0.12056 0.0
H1891 H 0.48095 0.95126 0.11327 0.0
C1892 C 0.4703 0.01525 0.10527 0.0
C1893 C 0.48727 0.0147 0.109 0.0
C1894 C 0.46226 0.00129 0.09906 0.0
C1895 C 0.47104 0.98655 0.09663 0.0
C1896 C 0.48783 0.9858 0.10095 0.0
H1897 H 0.47518 0.89922 0.04302 0.0
H1898 H 0.47727 0.9236 0.06056 0.0
C1899 C 0.49588 -0.00025 0.10715 0.0
C1900 C 0.46328 0.97253 0.08785 0.0
H1901 H 0.45821 0.93074 0.08975 0.0
C1902 C 0.45789 0.97506 0.07154 0.0
C1903 C 0.46269 0.9565 0.09475 0.0
C1904 C 0.4674 0.95325 0.1125 0.0
C1905 C 0.45311 0.96173 0.06152 0.0
C1906 C 0.45357 0.94557 0.06812 0.0
C1907 C 0.45796 0.94318 0.08474 0.0
C1908 C 0.45172 0.93086 0.05748 0.0
C1909 C 0.44865 0.96489 0.04368 0.0
C1910 C 0.43661 0.92692 0.0499 0.0
C1911 C 0.43537 0.91295 0.03974 0.0
C1912 C 0.44923 0.90277 0.03713 0.0
C1913 C 0.46429 0.90683 0.04477 0.0
C1914 C 0.4655 0.92071 0.05485 0.0
H1915 H 0.45088 0.97793 0.03999 0.0
H1916 H 0.45592 0.95667 0.03543 0.0
H1917 H 0.43537 0.96208 0.04174 0.0
H1918 H 0.4258 0.93456 0.05193 0.0
H1919 H 0.4236 0.91004 0.03407 0.0
H1920 H 0.33111 0.83521 0.20448 0.0
H1921 H 0.30521 0.83605 0.18854 0.0
H1922 H 0.31982 0.7918 0.16258 0.0
H1923 H 0.3455 0.79092 0.17824 0.0
H1924 H 0.30396 0.81715 0.14228 0.0
H1925 H 0.2693 0.8007 0.19966 0.0
H1926 H 0.28217 0.81885 0.19972 0.0
H1927 H 0.29148 0.79876 0.19855 0.0
C1928 C 0.32886 0.82584 0.19518 0.0
C1929 C 0.34017 0.81287 0.19274 0.0
C1930 C 0.3141 0.82633 0.18612 0.0
C1931 C 0.31061 0.81391 0.17451 0.0
C1932 C 0.32232 0.80152 0.17147 0.0
H1933 H 0.2473 0.75532 0.12123 0.0
H1934 H 0.269 0.77434 0.13006 0.0
C1935 C 0.33694 0.80097 0.18052 0.0
C1936 C 0.29422 0.81243 0.16661 0.0
H1937 H 0.25591 0.79683 0.17445 0.0
C1938 C 0.29327 0.81313 0.1493 0.0
C1939 C 0.2803 0.8073 0.17583 0.0
C1940 C 0.28073 0.80626 0.19447 0.0
C1941 C 0.27909 0.80772 0.1409 0.0
C1942 C 0.26576 0.80113 0.15008 0.0
C1943 C 0.2662 0.80178 0.16742 0.0
C1944 C 0.25235 0.79144 0.14224 0.0
C1945 C 0.27878 0.80858 0.12228 0.0
C1946 C 0.23577 0.79468 0.14616 0.0
C1947 C 0.22339 0.78365 0.14137 0.0
C1948 C 0.22739 0.76919 0.13258 0.0
C1949 C 0.24386 0.76639 0.12793 0.0
C1950 C 0.25625 0.77736 0.13283 0.0
H1951 H 0.28617 0.81923 0.11775 0.0
H1952 H 0.28439 0.79716 0.11715 0.0
H1953 H 0.26597 0.80971 0.11748 0.0
H1954 H 0.23249 0.80539 0.15351 0.0
H1955 H 0.21076 0.78615 0.14505 0.0
H1956 H 0.50013 0.99628 0.37369 0.0
H1957 H 0.48365 0.01869 0.38559 0.0
H1958 H 0.44832 0.98319 0.40388 0.0
H1959 H 0.46494 0.96068 0.39235 0.0
H1960 H 0.45055 0.02924 0.38278 0.0
H1961 H 0.46484 0.0057 0.44595 0.0
H1962 H 0.47531 0.99809 0.4278 0.0
H1963 H 0.45457 0.99154 0.43228 0.0
C1964 C 0.48872 0.99328 0.38002 0.0
C1965 C 0.48393 0.97675 0.38232 0.0
C1966 C 0.47931 0.00607 0.38679 0.0
C1967 C 0.46496 0.00254 0.39589 0.0
C1968 C 0.45955 0.98613 0.39721 0.0
H1969 H 0.42202 0.07683 0.46327 0.0
H1970 H 0.42269 0.05172 0.44609 0.0
C1971 C 0.46902 0.97331 0.39056 0.0
C1972 C 0.45658 0.01597 0.40506 0.0
H1973 H 0.45086 0.03093 0.44411 0.0
C1974 C 0.45036 0.02951 0.39619 0.0
C1975 C 0.45626 0.01622 0.42257 0.0
C1976 C 0.46318 0.00219 0.43277 0.0
C1977 C 0.44454 0.04365 0.40437 0.0
C1978 C 0.44517 0.04428 0.42183 0.0
C1979 C 0.45036 0.03034 0.43072 0.0
C1980 C 0.44314 0.05998 0.43095 0.0
C1981 C 0.43829 0.05803 0.39427 0.0
C1982 C 0.45444 0.0728 0.42813 0.0
C1983 C 0.45421 0.08692 0.43796 0.0
C1984 C 0.44266 0.08853 0.45082 0.0
C1985 C 0.43102 0.0759 0.4534 0.0
C1986 C 0.43137 0.06161 0.44361 0.0
H1987 H 0.43341 0.05383 0.38213 0.0
H1988 H 0.42841 0.06487 0.40092 0.0
H1989 H 0.44866 0.06668 0.39186 0.0
H1990 H 0.46387 0.07163 0.4187 0.0
H1991 H 0.46332 0.09647 0.43566 0.0
H1992 H 0.14363 0.18886 0.67251 0.0
H1993 H 0.1686 0.19546 0.65696 0.0
H1994 H 0.19856 0.18032 0.69841 0.0
H1995 H 0.17348 0.17338 0.71401 0.0
H1996 H 0.18843 0.22038 0.67082 0.0
H1997 H 0.22499 0.16365 0.65761 0.0
H1998 H 0.20306 0.1631 0.66185 0.0
H1999 H 0.21753 0.16587 0.67845 0.0
C2000 C 0.15555 0.18644 0.67812 0.0
C2001 C 0.15668 0.18079 0.6945 0.0
C2002 C 0.16979 0.19018 0.66922 0.0
C2003 C 0.18539 0.18839 0.67654 0.0
C2004 C 0.18663 0.18154 0.69245 0.0
H2005 H 0.28075 0.23138 0.6554 0.0
H2006 H 0.25773 0.21503 0.66618 0.0
C2007 C 0.17231 0.17763 0.70136 0.0
C2008 C 0.19981 0.19639 0.66871 0.0
H2009 H 0.23806 0.18946 0.65234 0.0
C2010 C 0.19923 0.2136 0.66664 0.0
C2011 C 0.21392 0.18751 0.66354 0.0
C2012 C 0.21496 0.16898 0.66533 0.0
C2013 C 0.21245 0.22225 0.65963 0.0
C2014 C 0.22649 0.21339 0.6542 0.0
C2015 C 0.22717 0.19616 0.65637 0.0
C2016 C 0.24075 0.22201 0.64674 0.0
C2017 C 0.21144 0.24087 0.65852 0.0
C2018 C 0.23887 0.23106 0.63205 0.0
C2019 C 0.25194 0.24055 0.62594 0.0
C2020 C 0.26711 0.24097 0.63435 0.0
C2021 C 0.26914 0.23137 0.6487 0.0
C2022 C 0.25606 0.22196 0.65484 0.0
H2023 H 0.20178 0.24598 0.66684 0.0
H2024 H 0.22347 0.24665 0.66172 0.0
H2025 H 0.20826 0.24446 0.64567 0.0
H2026 H 0.22719 0.23103 0.6255 0.0
H2027 H 0.25009 0.24769 0.61476 0.0
H2028 H 0.06581 0.9239 0.96883 0.0
H2029 H 0.05885 0.94993 0.95456 0.0
H2030 H 0.02201 0.92426 0.92581 0.0
H2031 H 0.02867 0.89855 0.93995 0.0
H2032 H 0.05656 0.95836 0.9184 0.0
H2033 H 0.99675 0.96117 0.95184 0.0
H2034 H 0.01383 0.94852 0.95872 0.0
H2035 H 0.00068 0.94155 0.9422 0.0
C2036 C 0.0564 0.92385 0.95931 0.0
C2037 C 0.04761 0.9093 0.95564 0.0
C2038 C 0.05244 0.93866 0.9512 0.0
C2039 C 0.03973 0.93898 0.93938 0.0
C2040 C 0.03166 0.92428 0.9351 0.0
H2041 H 0.98546 0.00102 0.87417 0.0
H2042 H 5e-05 0.97875 0.88873 0.0
C2043 C 0.0355 0.90961 0.9432 0.0
C2044 C 0.03398 0.95465 0.93199 0.0
H2045 H -0.00076 0.97822 0.92784 0.0
C2046 C 0.04415 0.96292 0.92063 0.0
C2047 C 0.0178 0.96053 0.93503 0.0
C2048 C 0.00667 0.95259 0.94773 0.0
C2049 C 0.03817 0.97651 0.9116 0.0
C2050 C 0.02171 0.98179 0.91406 0.0
C2051 C 0.0118 0.97393 0.92588 0.0
C2052 C 0.01427 0.99523 0.90427 0.0
C2053 C 0.04916 0.98483 0.89906 0.0
C2054 C 0.01755 0.01175 0.90825 0.0
C2055 C 0.00916 0.02444 0.90009 0.0
C2056 C 0.99739 0.02077 0.88781 0.0
C2057 C 0.99446 0.00419 0.88356 0.0
C2058 C 0.00278 0.9915 0.89182 0.0
H2059 H 0.06136 0.97862 0.89792 0.0
H2060 H 0.04302 0.98488 0.88678 0.0
H2061 H 0.0512 0.9979 0.90272 0.0
H2062 H 0.02627 0.01479 0.91795 0.0
H2063 H 0.0117 0.03711 0.90359 0.0
H2064 H 0.28822 0.33046 0.22363 0.0
H2065 H 0.30465 0.30585 0.22913 0.0
H2066 H 0.31316 0.29951 0.17687 0.0
H2067 H 0.29656 0.32442 0.17118 0.0
H2068 H 0.30011 0.27223 0.21561 0.0
H2069 H 0.36032 0.302 0.19987 0.0
H2070 H 0.34216 0.31413 0.20453 0.0
H2071 H 0.34348 0.30317 0.18532 0.0
C2072 C 0.29348 0.32381 0.21326 0.0
C2073 C 0.29121 0.32939 0.19697 0.0
C2074 C 0.30283 0.30973 0.21643 0.0
C2075 C 0.3102 0.30102 0.20342 0.0
C2076 C 0.30765 0.30623 0.18706 0.0
H2077 H 0.37794 0.21872 0.22523 0.0
H2078 H 0.36286 0.23991 0.20965 0.0
C2079 C 0.29813 0.32035 0.18384 0.0
C2080 C 0.32085 0.28677 0.20745 0.0
H2081 H 0.3613 0.27627 0.21335 0.0
C2082 C 0.31348 0.27293 0.21483 0.0
C2083 C 0.33826 0.2878 0.20637 0.0
C2084 C 0.34665 0.30256 0.19865 0.0
C2085 C 0.32312 0.26041 0.22189 0.0
C2086 C 0.34052 0.26197 0.22179 0.0
C2087 C 0.34793 0.27528 0.21351 0.0
C2088 C 0.35105 0.25042 0.2312 0.0
C2089 C 0.31461 0.24583 0.22983 0.0
C2090 C 0.34987 0.24986 0.24849 0.0
C2091 C 0.35849 0.23788 0.25742 0.0
C2092 C 0.36843 0.22629 0.24916 0.0
C2093 C 0.37034 0.2275 0.23191 0.0
C2094 C 0.36173 0.23953 0.22299 0.0
H2095 H 0.30181 0.24426 0.22511 0.0
H2096 H 0.32162 0.23423 0.22759 0.0
H2097 H 0.31392 0.24785 0.24338 0.0
H2098 H 0.34186 0.25839 0.25503 0.0
H2099 H 0.35681 0.23728 0.27069 0.0
H2100 H 0.78608 0.16977 0.82755 0.0
H2101 H 0.80298 0.19489 0.82461 0.0
H2102 H 0.79248 0.19574 0.77233 0.0
H2103 H 0.77568 0.17094 0.77515 0.0
H2104 H 0.83124 0.19705 0.80444 0.0
H2105 H 0.78492 0.24376 0.78603 0.0
H2106 H 0.77932 0.22461 0.79607 0.0
H2107 H 0.78293 0.22517 0.77411 0.0
C2108 C 0.78711 0.17557 0.81553 0.0
C2109 C 0.7796 0.16844 0.80157 0.0
C2110 C 0.79679 0.18984 0.81386 0.0
C2111 C 0.79879 0.19725 0.79829 0.0
C2112 C 0.79082 0.19042 0.78451 0.0
H2113 H 0.87423 0.24615 0.74584 0.0
H2114 H 0.85728 0.22685 0.76184 0.0
C2115 C 0.7813 0.17618 0.78613 0.0
C2116 C 0.81036 0.21118 0.79582 0.0
H2117 H 0.81297 0.24869 0.77686 0.0
C2118 C 0.82725 0.20853 0.79875 0.0
C2119 C 0.80511 0.22622 0.78864 0.0
C2120 C 0.78705 0.23019 0.78619 0.0
C2121 C 0.83915 0.22006 0.79359 0.0
C2122 C 0.83396 0.23441 0.78503 0.0
C2123 C 0.81699 0.23757 0.78319 0.0
C2124 C 0.84578 0.24579 0.7769 0.0
C2125 C 0.85714 0.21661 0.79707 0.0
C2126 C 0.84489 0.26283 0.77997 0.0
C2127 C 0.85433 0.27385 0.77067 0.0
C2128 C 0.86488 0.26803 0.75813 0.0
C2129 C 0.86628 0.25094 0.75549 0.0
C2130 C 0.85669 0.23991 0.76472 0.0
H2131 H 0.85861 0.20873 0.80823 0.0
H2132 H 0.86256 0.20983 0.78645 0.0
H2133 H 0.86421 0.22823 0.7989 0.0
H2134 H 0.83651 0.26764 0.78925 0.0
H2135 H 0.85306 0.28698 0.77302 0.0
H2136 H -0.00101 0.62504 -0.00077 0.0
H2137 H 0.02172 0.61264 0.01499 0.0
H2138 H 0.98677 0.58321 0.04247 0.0
H2139 H 0.96407 0.59522 0.02654 0.0
H2140 H 0.02855 0.61101 0.04909 0.0
H2141 H 0.01739 0.54858 0.02234 0.0
H2142 H 0.00789 0.56699 0.01407 0.0
H2143 H 0.0 0.55774 0.03267 0.0
C2144 C 0.99617 0.61599 0.00868 0.0
C2145 C 0.97982 0.61093 0.01152 0.0
C2146 C 0.00913 0.60896 0.0177 0.0
C2147 C 0.00591 0.59682 0.02968 0.0
C2148 C 0.98952 0.5923 0.03303 0.0
H2149 H 0.08045 0.53266 0.07581 0.0
H2150 H 0.05421 0.5477 0.07269 0.0
C2151 C 0.97659 0.59921 0.02395 0.0
C2152 C 0.01977 0.58839 0.0381 0.0
H2153 H 0.03927 0.55111 0.04123 0.0
C2154 C 0.03083 0.59789 0.04751 0.0
C2155 C 0.02262 0.57124 0.03609 0.0
C2156 C 0.01145 0.56052 0.02565 0.0
C2157 C 0.04497 0.59075 0.05458 0.0
C2158 C 0.04814 0.57376 0.052 0.0
C2159 C 0.0367 0.56412 0.04326 0.0
C2160 C 0.06424 0.5662 0.05617 0.0
C2161 C 0.05657 0.60149 0.06447 0.0
C2162 C 0.07848 0.57174 0.04802 0.0
C2163 C 0.0933 0.56314 0.04963 0.0
C2164 C 0.09417 0.54884 0.05944 0.0
C2165 C 0.0801 0.54369 0.06822 0.0
C2166 C 0.06516 0.55225 0.06646 0.0
H2167 H 0.05005 0.61239 0.06972 0.0
H2168 H 0.06237 0.59441 0.07471 0.0
H2169 H 0.06653 0.6061 0.05625 0.0
H2170 H 0.07795 0.58226 0.03974 0.0
H2171 H 0.10397 0.5674 0.04275 0.0
H2172 H 0.65932 0.70651 0.26616 0.0
H2173 H 0.67151 0.72885 0.28229 0.0
H2174 H 0.636 0.76309 0.26202 0.0
H2175 H 0.6237 0.74068 0.24563 0.0
H2176 H 0.6688 0.77345 0.25946 0.0
H2177 H 0.65475 0.75327 0.32344 0.0
H2178 H 0.66418 0.73746 0.31103 0.0
H2179 H 0.64404 0.74515 0.3056 0.0
C2180 C 0.65397 0.71876 0.26523 0.0
C2181 C 0.64057 0.72188 0.25461 0.0
C2182 C 0.66087 0.73147 0.27458 0.0
C2183 C 0.65447 0.74753 0.27356 0.0
C2184 C 0.64098 0.7507 0.26309 0.0
H2185 H 0.68696 0.83525 0.32605 0.0
H2186 H 0.67112 0.81097 0.31736 0.0
C2187 C 0.63401 0.73794 0.25373 0.0
C2188 C 0.66285 0.76119 0.28233 0.0
H2189 H 0.67562 0.77412 0.32047 0.0
C2190 C 0.67014 0.7737 0.27281 0.0
C2191 C 0.66452 0.76147 0.29974 0.0
C2192 C 0.65633 0.7487 0.31058 0.0
C2193 C 0.6795 0.78624 0.2802 0.0
C2194 C 0.68177 0.78612 0.29753 0.0
C2195 C 0.67405 0.77395 0.30715 0.0
C2196 C 0.69192 0.79887 0.30571 0.0
C2197 C 0.68693 0.79954 0.26941 0.0
C2198 C 0.70898 0.7996 0.30274 0.0
C2199 C 0.71806 0.81341 0.30769 0.0
C2200 C 0.71016 0.82667 0.31566 0.0
C2201 C 0.69335 0.82524 0.31987 0.0
C2202 C 0.68429 0.8114 0.31492 0.0
H2203 H 0.68128 0.79975 0.25689 0.0
H2204 H 0.68536 0.81191 0.27517 0.0
H2205 H 0.70037 0.79721 0.26799 0.0
H2206 H 0.71507 0.7899 0.29577 0.0
H2207 H 0.731 0.81414 0.30434 0.0
H2208 H 0.99504 0.86888 0.00121 0.0
H2209 H 0.97345 0.88352 0.0166 0.0
H2210 H 0.01037 0.90414 0.04908 0.0
H2211 H 0.03203 0.88988 0.03353 0.0
H2212 H 0.96306 0.88666 0.05032 0.0
H2213 H 0.99083 0.9445 0.02517 0.0
H2214 H 0.99674 0.9243 0.01782 0.0
H2215 H 0.00423 0.93167 0.03739 0.0
C2216 C 0.9985 0.87622 0.01187 0.0
C2217 C 0.01519 0.87851 0.01601 0.0
C2218 C 0.98618 0.88455 0.02066 0.0
C2219 C 0.9904 0.89515 0.03374 0.0
C2220 C 0.00693 0.89625 0.03882 0.0
H2221 H 0.91066 0.95687 0.07752 0.0
H2222 H 0.93572 0.93955 0.07693 0.0
C2223 C 0.01925 0.88808 0.02994 0.0
C2224 C 0.97782 0.90653 0.04055 0.0
H2225 H 0.96597 0.94702 0.03967 0.0
C2226 C 0.96379 0.8999 0.04831 0.0
C2227 C 0.97885 0.92378 0.03778 0.0
C2228 C 0.99338 0.93155 0.02899 0.0
C2229 C 0.95042 0.91004 0.05274 0.0
C2230 C 0.95122 0.92715 0.04935 0.0
C2231 C 0.96555 0.93388 0.04236 0.0
C2232 C 0.93642 0.93777 0.05026 0.0
C2233 C 0.9351 0.90235 0.06007 0.0
C2234 C 0.92882 0.94259 0.03547 0.0
C2235 C 0.91468 0.95236 0.03575 0.0
C2236 C 0.90789 0.95759 0.05085 0.0
C2237 C 0.91567 0.95301 0.06572 0.0
C2238 C 0.92988 0.9431 0.06541 0.0
H2239 H 0.93624 0.88872 0.06138 0.0
H2240 H 0.93272 0.90776 0.07245 0.0
H2241 H 0.92423 0.90514 0.05216 0.0
H2242 H 0.93375 0.93861 0.02366 0.0
H2243 H 0.90899 0.95572 0.0241 0.0
H2244 H 0.19288 0.65059 0.71772 0.0
H2245 H 0.17808 0.67618 0.72331 0.0
H2246 H 0.19746 0.69749 0.67844 0.0
H2247 H 0.21234 0.67159 0.67259 0.0
H2248 H 0.19385 0.70741 0.72712 0.0
H2249 H 0.14671 0.70722 0.67684 0.0
H2250 H 0.15755 0.6887 0.68305 0.0
H2251 H 0.16799 0.70417 0.67108 0.0
C2252 C 0.19394 0.66064 0.70894 0.0
C2253 C 0.20381 0.65912 0.69473 0.0
C2254 C 0.18546 0.67525 0.71216 0.0
C2255 C 0.18663 0.68864 0.70125 0.0
C2256 C 0.19626 0.68717 0.68688 0.0
H2257 H 0.14605 0.78696 0.72112 0.0
H2258 H 0.16039 0.76387 0.70773 0.0
C2259 C 0.20478 0.67244 0.6836 0.0
C2260 C 0.17837 0.70431 0.70568 0.0
H2261 H 0.14552 0.72907 0.69614 0.0
C2262 C 0.18339 0.71225 0.72026 0.0
C2263 C 0.16476 0.71054 0.69665 0.0
C2264 C 0.15879 0.70223 0.68107 0.0
C2265 C 0.17485 0.72601 0.72634 0.0
C2266 C 0.16088 0.73186 0.71767 0.0
C2267 C 0.1562 0.72438 0.70275 0.0
C2268 C 0.15075 0.74539 0.72444 0.0
C2269 C 0.18058 0.73406 0.74217 0.0
C2270 C 0.14035 0.74244 0.73799 0.0
C2271 C 0.13211 0.75555 0.74564 0.0
C2272 C 0.13427 0.77177 0.73986 0.0
C2273 C 0.14421 0.77457 0.72587 0.0
C2274 C 0.15237 0.76144 0.71818 0.0
H2275 H 0.19308 0.72975 0.74592 0.0
H2276 H 0.18083 0.74772 0.74078 0.0
H2277 H 0.17177 0.73105 0.75224 0.0
H2278 H 0.13901 0.73006 0.74294 0.0
H2279 H 0.12453 0.75304 0.75638 0.0
H2280 H 0.95796 0.40879 0.48355 0.0
H2281 H 0.97923 0.42165 0.46634 0.0
H2282 H 0.01589 0.38904 0.48729 0.0
H2283 H 0.99461 0.37588 0.50427 0.0
H2284 H 0.00606 0.43823 0.47663 0.0
H2285 H 0.02602 0.38522 0.4385 0.0
H2286 H 0.00708 0.385 0.45032 0.0
H2287 H 0.02652 0.38022 0.46009 0.0
C2288 C 0.97054 0.40426 0.48438 0.0
C2289 C 0.97466 0.39132 0.49524 0.0
C2290 C 0.98265 0.4116 0.4745 0.0
C2291 C -0.00093 0.40608 0.47528 0.0
C2292 C 0.0032 0.39317 0.48614 0.0
H2293 H 0.09531 0.436 0.46395 0.0
H2294 H 0.06849 0.42263 0.46691 0.0
C2295 C 0.99108 0.38577 0.49596 0.0
C2296 C 0.01216 0.41467 0.46581 0.0
H2297 H 0.04586 0.40755 0.44147 0.0
C2298 C 0.01453 0.43164 0.46859 0.0
C2299 C 0.02306 0.40607 0.45518 0.0
C2300 C 0.02043 0.38816 0.4507 0.0
C2301 C 0.0283 0.43993 0.4621 0.0
C2302 C 0.03987 0.431 0.45254 0.0
C2303 C 0.03694 0.41432 0.44885 0.0
C2304 C 0.05628 0.438 0.44877 0.0
C2305 C 0.03102 0.45787 0.46644 0.0
C2306 C 0.05832 0.45082 0.43724 0.0
C2307 C 0.07376 0.45849 0.43544 0.0
C2308 C 0.08717 0.45348 0.44529 0.0
C2309 C 0.08515 0.4402 0.45629 0.0
C2310 C 0.06987 0.4325 0.45795 0.0
H2311 H 0.02131 0.46275 0.47485 0.0
H2312 H 0.04325 0.45945 0.47247 0.0
H2313 H 0.03102 0.46541 0.45498 0.0
H2314 H 0.04792 0.45516 0.43002 0.0
H2315 H 0.07502 0.4687 0.42687 0.0
H2316 H 0.38685 0.57903 0.94039 0.0
H2317 H 0.41264 0.59391 0.94518 0.0
H2318 H 0.4402 0.55277 0.92542 0.0
H2319 H 0.41427 0.53781 0.92037 0.0
H2320 H 0.43464 0.57558 0.96758 0.0
H2321 H 0.46561 0.5962 0.90962 0.0
H2322 H 0.44343 0.59378 0.91101 0.0
H2323 H 0.45646 0.57588 0.91015 0.0
C2324 C 0.39836 0.57339 0.93651 0.0
C2325 C 0.39864 0.55722 0.9302 0.0
C2326 C 0.41307 0.58192 0.9392 0.0
C2327 C 0.42827 0.57441 0.93567 0.0
C2328 C 0.42855 0.55884 0.92801 0.0
H2329 H 0.52664 0.59513 0.97296 0.0
H2330 H 0.50313 0.58518 0.95671 0.0
C2331 C 0.41375 0.5503 0.92516 0.0
C2332 C 0.4434 0.58134 0.94313 0.0
H2333 H 0.4801 0.60036 0.93473 0.0
C2334 C 0.44456 0.58107 0.96041 0.0
C2335 C 0.45636 0.58818 0.93367 0.0
C2336 C 0.45551 0.58866 0.91507 0.0
C2337 C 0.45833 0.58756 0.96859 0.0
C2338 C 0.47111 0.59491 0.95921 0.0
C2339 C 0.47015 0.5949 0.94186 0.0
C2340 C 0.48564 0.60234 0.96741 0.0
C2341 C 0.4592 0.58619 0.9872 0.0
C2342 C 0.48363 0.61559 0.97844 0.0
C2343 C 0.49697 0.62119 0.98787 0.0
C2344 C 0.51255 0.61372 0.98624 0.0
C2345 C 0.51473 0.60105 0.97454 0.0
C2346 C 0.50136 0.5954 0.96519 0.0
H2347 H 0.45067 0.57656 0.992 0.0
H2348 H 0.47194 0.58321 0.99134 0.0
H2349 H 0.45557 0.59819 0.99278 0.0
H2350 H 0.47162 0.62128 0.98011 0.0
H2351 H 0.49499 0.63109 0.99666 0.0
H2352 H 0.67769 0.81227 0.85512 0.0
H2353 H 0.68233 0.83237 0.83298 0.0
H2354 H 0.69611 0.79283 0.79996 0.0
H2355 H 0.69156 0.77272 0.82198 0.0
H2356 H 0.71478 0.83412 0.82064 0.0
H2357 H 0.67019 0.82447 0.76964 0.0
H2358 H 0.66614 0.8179 0.79062 0.0
H2359 H 0.67893 0.80554 0.77728 0.0
C2360 C 0.68106 0.8078 0.84295 0.0
C2361 C 0.68441 0.79095 0.84029 0.0
C2362 C 0.68375 0.81931 0.83034 0.0
C2363 C 0.68952 0.81408 0.81483 0.0
C2364 C 0.6914 0.79711 0.81174 0.0
H2365 H 0.74548 0.84097 0.73189 0.0
H2366 H 0.72778 0.8294 0.75335 0.0
C2367 C 0.68887 0.78563 0.82437 0.0
C2368 C 0.6965 0.82616 0.80301 0.0
H2369 H 0.69617 0.83712 0.76231 0.0
C2370 C 0.71051 0.83513 0.80796 0.0
C2371 C 0.69094 0.82731 0.78651 0.0
C2372 C 0.67562 0.81841 0.78071 0.0
C2373 C 0.71982 0.8443 0.79657 0.0
C2374 C 0.71468 0.84486 0.77986 0.0
C2375 C 0.70012 0.83664 0.77512 0.0
C2376 C 0.72512 0.85238 0.76681 0.0
C2377 C 0.73565 0.85236 0.80232 0.0
C2378 C 0.72954 0.86918 0.76725 0.0
C2379 C 0.73993 0.8758 0.75508 0.0
C2380 C 0.7458 0.86575 0.74218 0.0
C2381 C 0.74118 0.84902 0.7417 0.0
C2382 C 0.73098 0.8424 0.7539 0.0
H2383 H 0.73956 0.84781 0.81467 0.0
H2384 H 0.74582 0.85004 0.7934 0.0
H2385 H 0.73376 0.86591 0.80321 0.0
H2386 H 0.72491 0.87718 0.77693 0.0
H2387 H 0.74315 0.88879 0.75562 0.0
H2388 H 0.44737 0.48273 0.0949 0.0
H2389 H 0.4325 0.48791 0.06931 0.0
H2390 H 0.4506 0.44194 0.04919 0.0
H2391 H 0.46551 0.43647 0.07517 0.0
H2392 H 0.44642 0.4907 0.0376 0.0
H2393 H 0.39987 0.44003 0.04146 0.0
H2394 H 0.4118 0.44658 0.05917 0.0
H2395 H 0.42132 0.43442 0.04326 0.0
C2396 C 0.4482 0.47365 0.08509 0.0
C2397 C 0.45762 0.45918 0.08703 0.0
C2398 C 0.43969 0.47665 0.07046 0.0
C2399 C 0.44037 0.46527 0.05743 0.0
C2400 C 0.44976 0.45077 0.05922 0.0
H2401 H 0.3994 0.48904 0.96018 0.0
H2402 H 0.41588 0.47627 0.98211 0.0
C2403 C 0.45831 0.4477 0.07399 0.0
C2404 C 0.43142 0.46914 0.04197 0.0
H2405 H 0.39732 0.45879 0.0193 0.0
C2406 C 0.43582 0.4836 0.03345 0.0
C2407 C 0.41756 0.45987 0.0367 0.0
C2408 C 0.41221 0.4444 0.04562 0.0
C2409 C 0.42641 0.48934 0.0201 0.0
C2410 C 0.41231 0.48035 0.01516 0.0
C2411 C 0.40817 0.4656 0.02326 0.0
C2412 C 0.40141 0.48666 0.00201 0.0
C2413 C 0.4312 0.50527 0.01165 0.0
C2414 C 0.38774 0.49654 0.00608 0.0
C2415 C 0.37832 0.50391 0.99361 0.0
C2416 C 0.38249 0.50149 0.97693 0.0
C2417 C 0.39592 0.49117 0.97294 0.0
C2418 C 0.40531 0.48382 0.9854 0.0
H2419 H 0.44251 0.51086 0.01708 0.0
H2420 H 0.43341 0.50294 0.99831 0.0
H2421 H 0.42091 0.5143 0.01263 0.0
H2422 H 0.38467 0.49889 0.0189 0.0
H2423 H 0.36805 0.5118 0.99702 0.0
H2424 H 0.78892 0.17547 0.362 0.0
H2425 H 0.78374 0.15782 0.33812 0.0
H2426 H 0.80972 0.19235 0.30685 0.0
H2427 H 0.81536 0.20994 0.33098 0.0
H2428 H 0.76475 0.17053 0.31313 0.0
H2429 H 0.82448 0.14739 0.28832 0.0
H2430 H 0.82232 0.15518 0.30915 0.0
H2431 H 0.82362 0.16928 0.29204 0.0
C2432 C 0.79393 0.17908 0.35011 0.0
C2433 C 0.8024 0.1941 0.34824 0.0
C2434 C 0.79099 0.16897 0.3365 0.0
C2435 C 0.79635 0.17377 0.32073 0.0
C2436 C 0.80573 0.18828 0.31896 0.0
H2437 H 0.76439 0.14688 0.22285 0.0
H2438 H 0.7791 0.15786 0.24684 0.0
C2439 C 0.80888 0.19835 0.33271 0.0
C2440 C 0.78982 0.16494 0.30611 0.0
H2441 H 0.80061 0.14333 0.27149 0.0
C2442 C 0.7726 0.16444 0.30412 0.0
C2443 C 0.80011 0.15722 0.29429 0.0
C2444 C 0.81867 0.15714 0.29606 0.0
C2445 C 0.76533 0.15654 0.29056 0.0
C2446 C 0.77557 0.14867 0.27881 0.0
C2447 C 0.79283 0.14924 0.28067 0.0
C2448 C 0.76842 0.1405 0.26413 0.0
C2449 C 0.74676 0.15708 0.2887 0.0
C2450 C 0.75789 0.12681 0.2659 0.0
C2451 C 0.74937 0.12056 0.25223 0.0
C2452 C 0.75133 0.12788 0.23662 0.0
C2453 C 0.76253 0.14105 0.23477 0.0
C2454 C 0.77102 0.1473 0.24842 0.0
H2455 H 0.74106 0.16664 0.29676 0.0
H2456 H 0.74322 0.15965 0.27569 0.0
H2457 H 0.74151 0.1449 0.29221 0.0
H2458 H 0.7559 0.1213 0.27794 0.0
H2459 H 0.74092 0.11032 0.25398 0.0
H2460 H 0.0201 0.55492 0.56476 0.0
H2461 H 0.03905 0.54982 0.542 0.0
H2462 H 0.07257 0.58649 0.56146 0.0
H2463 H 0.05392 0.59103 0.58491 0.0
H2464 H 0.05398 0.56512 0.51767 0.0
H2465 H 0.10095 0.54615 0.56422 0.0
H2466 H 0.08006 0.55134 0.56987 0.0
H2467 H 0.09475 0.56742 0.56533 0.0
C2468 C 0.03131 0.5622 0.56402 0.0
C2469 C 0.03571 0.57311 0.57679 0.0
C2470 C 0.04217 0.55927 0.55098 0.0
C2471 C 0.05752 0.56735 0.55034 0.0
C2472 C 0.06107 0.57968 0.56205 0.0
H2473 H 0.11803 0.53408 0.46626 0.0
H2474 H 0.10457 0.55297 0.48568 0.0
C2475 C 0.05032 0.5824 0.57532 0.0
C2476 C 0.07017 0.56145 0.53845 0.0
H2477 H 0.10753 0.54185 0.53642 0.0
C2478 C 0.06579 0.5602 0.52171 0.0
C2479 C 0.08549 0.55483 0.54382 0.0
C2480 C 0.09059 0.55484 0.56179 0.0
C2481 C 0.07584 0.55178 0.51035 0.0
C2482 C 0.0911 0.54507 0.51576 0.0
C2483 C 0.09587 0.54706 0.53231 0.0
C2484 C 0.1015 0.53458 0.50489 0.0
C2485 C 0.06943 0.54926 0.49299 0.0
C2486 C 0.10538 0.51832 0.5097 0.0
C2487 C 0.11359 0.50768 0.49884 0.0
C2488 C 0.11778 0.51309 0.48292 0.0
C2489 C 0.11471 0.52959 0.47843 0.0
C2490 C 0.10689 0.54033 0.48944 0.0
H2491 H 0.05588 0.5514 0.49217 0.0
H2492 H 0.07556 0.55817 0.48456 0.0
H2493 H 0.07206 0.53655 0.48854 0.0
H2494 H 0.10145 0.51363 0.52162 0.0
H2495 H 0.1158 0.495 0.50254 0.0
H2496 H 0.6998 0.1753 0.64929 0.0
H2497 H 0.69757 0.15866 0.67421 0.0
H2498 H 0.66108 0.19234 0.6937 0.0
H2499 H 0.66334 0.20927 0.66853 0.0
H2500 H 0.68773 0.18791 0.71411 0.0
H2501 H 0.66476 0.12681 0.69467 0.0
H2502 H 0.68093 0.13367 0.68117 0.0
H2503 H 0.66188 0.14519 0.68228 0.0
C2504 C 0.69103 0.17901 0.65871 0.0
C2505 C 0.68184 0.19364 0.65706 0.0
C2506 C 0.68961 0.16935 0.67288 0.0
C2507 C 0.67895 0.17409 0.6857 0.0
C2508 C 0.66922 0.18837 0.68383 0.0
H2509 H 0.7044 0.13832 0.78512 0.0
H2510 H 0.68585 0.14882 0.76363 0.0
C2511 C 0.67054 0.19802 0.66951 0.0
C2512 C 0.68025 0.16554 0.70181 0.0
H2513 H 0.68391 0.12683 0.71819 0.0
C2514 C 0.68638 0.17462 0.71525 0.0
C2515 C 0.67847 0.1482 0.70323 0.0
C2516 C 0.67097 0.13795 0.68959 0.0
C2517 C 0.69234 0.16667 0.72945 0.0
C2518 C 0.69181 0.14919 0.73031 0.0
C2519 C 0.68441 0.14021 0.71744 0.0
C2520 C 0.70089 0.1401 0.74331 0.0
C2521 C 0.7004 0.17696 0.74279 0.0
C2522 C 0.71495 0.13089 0.73897 0.0
C2523 C 0.72548 0.12475 0.75119 0.0
C2524 C 0.72212 0.12779 0.76794 0.0
C2525 C 0.70739 0.13596 0.77229 0.0
C2526 C 0.69681 0.142 0.76005 0.0
H2527 H 0.70207 0.19005 0.73898 0.0
H2528 H 0.69256 0.17679 0.75404 0.0
H2529 H 0.71268 0.17179 0.74611 0.0
H2530 H 0.71829 0.12926 0.72609 0.0
H2531 H 0.7367 0.11844 0.74749 0.0
H2532 H 0.07569 0.45639 0.88914 0.0
H2533 H 0.09407 0.4614 0.91252 0.0
H2534 H 0.06045 0.43526 0.94463 0.0
H2535 H 0.04218 0.42975 0.92103 0.0
H2536 H 0.08303 0.48023 0.93768 0.0
H2537 H 0.10518 0.42007 0.9621 0.0
H2538 H 0.09648 0.42226 0.94165 0.0
H2539 H 0.08317 0.42119 0.95942 0.0
C2540 C 0.07244 0.45132 0.9011 0.0
C2541 C 0.05749 0.44282 0.90337 0.0
C2542 C 0.08296 0.45415 0.91443 0.0
C2543 C 0.07866 0.44868 0.9303 0.0
C2544 C 0.06417 0.43932 0.93244 0.0
H2545 H 0.10393 0.47941 0.02832 0.0
H2546 H 0.09369 0.46519 0.00373 0.0
C2547 C 0.05371 0.43625 0.91899 0.0
C2548 C 0.08795 0.45501 0.94473 0.0
H2549 H 0.10894 0.44369 0.97956 0.0
C2550 C 0.0889 0.47223 0.94671 0.0
C2551 C 0.0954 0.44454 0.95657 0.0
C2552 C 0.09516 0.42598 0.9548 0.0
C2553 C 0.09681 0.4793 0.96036 0.0
C2554 C 0.10422 0.46886 0.97225 0.0
C2555 C 0.10337 0.45163 0.9703 0.0
C2556 C 0.11191 0.47577 0.98729 0.0
C2557 C 0.09667 0.49788 0.96225 0.0
C2558 C 0.12582 0.48611 0.9862 0.0
C2559 C 0.13165 0.49436 0.00022 0.0
C2560 C 0.12367 0.49231 0.01551 0.0
C2561 C 0.11025 0.48133 0.01667 0.0
C2562 C 0.10444 0.47311 0.00267 0.0
H2563 H 0.08759 0.50386 0.95385 0.0
H2564 H 0.09368 0.50144 0.97517 0.0
H2565 H 0.10911 0.50283 0.95926 0.0
H2566 H 0.13184 0.48815 0.97442 0.0
H2567 H 0.14209 0.50265 -0.00099 0.0
H2568 H 0.73526 0.85981 0.25477 0.0
H2569 H 0.75209 0.84999 0.23169 0.0
H2570 H 0.7955 0.87156 0.25382 0.0
H2571 H 0.77872 0.8815 0.27707 0.0
H2572 H 0.79128 0.87485 0.2166 0.0
H2573 H 0.78623 0.81111 0.24148 0.0
H2574 H 0.76686 0.82192 0.23992 0.0
H2575 H 0.78246 0.82929 0.25392 0.0
C2576 C 0.74832 0.86278 0.25458 0.0
C2577 C 0.75571 0.87131 0.26778 0.0
C2578 C 0.75791 0.8571 0.24143 0.0
C2579 C 0.77503 0.85983 0.24127 0.0
C2580 C 0.78231 0.86927 0.25384 0.0
H2581 H 0.82688 0.79526 0.17111 0.0
H2582 H 0.82364 0.81242 0.19599 0.0
C2583 C 0.7727 0.87496 0.26706 0.0
C2584 C 0.78527 0.85181 0.22847 0.0
H2585 H 0.79488 0.81367 0.21336 0.0
C2586 C 0.79236 0.8615 0.21599 0.0
C2587 C 0.787 0.83443 0.22799 0.0
C2588 C 0.78038 0.82354 0.24162 0.0
C2589 C 0.80009 0.8541 0.2023 0.0
C2590 C 0.80046 0.83664 0.20108 0.0
C2591 C 0.7945 0.82705 0.21424 0.0
C2592 C 0.80464 0.82807 0.18546 0.0
C2593 C 0.80733 0.86504 0.18906 0.0
C2594 C 0.79514 0.83126 0.17132 0.0
C2595 C 0.79688 0.82148 0.15726 0.0
C2596 C 0.80812 0.80824 0.15705 0.0
C2597 C 0.81816 0.80542 0.17094 0.0
C2598 C 0.81633 0.81521 0.18512 0.0
H2599 H 0.8116 0.87699 0.19433 0.0
H2600 H 0.81788 0.85894 0.18273 0.0
H2601 H 0.79767 0.86783 0.17973 0.0
H2602 H 0.78575 0.84081 0.17142 0.0
H2603 H 0.78899 0.82398 0.14672 0.0
H2604 H 0.37708 0.50274 0.49959 0.0
H2605 H 0.38983 0.52142 0.47949 0.0
H2606 H 0.40196 0.55555 0.51864 0.0
H2607 H 0.38972 0.53668 0.53886 0.0
H2608 H 0.38749 0.55479 0.46989 0.0
H2609 H 0.44711 0.54097 0.50171 0.0
H2610 H 0.42839 0.52982 0.50636 0.0
H2611 H 0.43124 0.5505 0.51397 0.0
C2612 C 0.38214 0.51439 0.50385 0.0
C2613 C 0.38274 0.51815 0.52076 0.0
C2614 C 0.38938 0.52507 0.49237 0.0
C2615 C 0.39714 0.53967 0.49767 0.0
C2616 C 0.39635 0.54416 0.51438 0.0
H2617 H 0.45655 0.58791 0.41845 0.0
H2618 H 0.43906 0.58763 0.44342 0.0
C2619 C 0.38933 0.53339 0.52588 0.0
C2620 C 0.40782 0.54883 0.48601 0.0
H2621 H 0.44849 0.5544 0.47627 0.0
C2622 C 0.4008 0.55514 0.47144 0.0
C2623 C 0.42521 0.54919 0.4881 0.0
C2624 C 0.43352 0.54219 0.5033 0.0
C2625 C 0.41081 0.56077 0.45844 0.0
C2626 C 0.42816 0.56009 0.46017 0.0
C2627 C 0.43514 0.55498 0.47516 0.0
C2628 C 0.43907 0.56097 0.44563 0.0
C2629 C 0.4029 0.56616 0.44244 0.0
C2630 C 0.44494 0.54613 0.43894 0.0
C2631 C 0.45475 0.54624 0.42485 0.0
C2632 C 0.459 0.56123 0.41722 0.0
C2633 C 0.45347 0.5762 0.42415 0.0
C2634 C 0.44347 0.57606 0.4383 0.0
H2635 H 0.3892 0.56654 0.44327 0.0
H2636 H 0.40746 0.57863 0.43897 0.0
H2637 H 0.40647 0.5575 0.4324 0.0
H2638 H 0.44166 0.53438 0.4445 0.0
H2639 H 0.45888 0.53452 0.41983 0.0
H2640 H 0.71494 0.70837 0.86464 0.0
H2641 H 0.73395 0.68854 0.852 0.0
H2642 H 0.77176 0.72615 0.85016 0.0
H2643 H 0.75304 0.74575 0.86348 0.0
H2644 H 0.74654 0.68901 0.82286 0.0
H2645 H 0.79857 0.68859 0.86666 0.0
H2646 H 0.77888 0.69772 0.87184 0.0
H2647 H 0.79427 0.70949 0.86077 0.0
C2648 C 0.72743 0.71229 0.86181 0.0
C2649 C 0.73258 0.72856 0.86508 0.0
C2650 C 0.73826 0.70095 0.85459 0.0
C2651 C 0.7544 0.70573 0.85036 0.0
C2652 C 0.75958 0.72197 0.85378 0.0
H2653 H 0.81413 0.68583 0.77021 0.0
H2654 H 0.79033 0.68885 0.78819 0.0
C2655 C 0.74884 0.73323 0.86128 0.0
C2656 C 0.76534 0.6943 0.84105 0.0
H2657 H 0.8055 0.68206 0.83804 0.0
C2658 C 0.75935 0.68717 0.82638 0.0
C2659 C 0.7819 0.69136 0.84583 0.0
C2660 C 0.78868 0.69705 0.86225 0.0
C2661 C 0.76984 0.67839 0.81571 0.0
C2662 C 0.78687 0.67724 0.81953 0.0
C2663 C 0.79251 0.68314 0.83487 0.0
C2664 C 0.79939 0.67216 0.80711 0.0
C2665 C 0.76257 0.67077 0.80032 0.0
C2666 C 0.81242 0.66152 0.81149 0.0
C2667 C 0.82633 0.66009 0.80132 0.0
C2668 C 0.82736 0.6692 0.78657 0.0
C2669 C 0.81368 0.67859 0.78147 0.0
C2670 C 0.79993 0.68023 0.79174 0.0
H2671 H 0.74981 0.66628 0.80271 0.0
H2672 H 0.76177 0.68031 0.79049 0.0
H2673 H 0.77014 0.66027 0.79574 0.0
H2674 H 0.8123 0.65515 0.82328 0.0
H2675 H 0.83669 0.65273 0.80554 0.0
H2676 H 0.53758 0.47212 0.12455 0.0
H2677 H 0.55706 0.49251 0.11369 0.0
H2678 H 0.5184 0.52936 0.1141 0.0
H2679 H 0.49929 0.50925 0.12594 0.0
H2680 H 0.55546 0.50459 0.08536 0.0
H2681 H 0.5553 0.5581 0.12703 0.0
H2682 H 0.54688 0.53841 0.1333 0.0
H2683 H 0.53424 0.55322 0.12234 0.0
C2684 C 0.53346 0.48476 0.12285 0.0
C2685 C 0.51699 0.48918 0.12607 0.0
C2686 C 0.54458 0.49639 0.11661 0.0
C2687 C 0.53932 0.51258 0.11315 0.0
C2688 C 0.523 0.51716 0.11712 0.0
H2689 H 0.54788 0.56786 0.02937 0.0
H2690 H 0.54798 0.5459 0.04978 0.0
C2691 C 0.512 0.50562 0.12377 0.0
C2692 C 0.54986 0.52379 0.10309 0.0
H2693 H 0.55867 0.5646 0.09733 0.0
C2694 C 0.55656 0.51764 0.08826 0.0
C2695 C 0.55188 0.54075 0.10692 0.0
C2696 C 0.54685 0.5479 0.12338 0.0
C2697 C 0.56369 0.52821 0.07654 0.0
C2698 C 0.56355 0.54545 0.0794 0.0
C2699 C 0.55843 0.55142 0.0949 0.0
C2700 C 0.56606 0.55751 0.0658 0.0
C2701 C 0.57075 0.52079 0.06095 0.0
C2702 C 0.57624 0.57144 0.06787 0.0
C2703 C 0.57601 0.58424 0.05621 0.0
C2704 C 0.56551 0.58331 0.04238 0.0
C2705 C 0.55614 0.56892 0.03985 0.0
C2706 C 0.55631 0.55624 0.05149 0.0
H2707 H 0.5765 0.50859 0.06357 0.0
H2708 H 0.56061 0.51867 0.05194 0.0
H2709 H 0.58016 0.52896 0.05521 0.0
H2710 H 0.58378 0.57274 0.07886 0.0
H2711 H 0.5833 0.59524 0.05851 0.0
H2712 H 0.6841 0.31433 0.27237 0.0
H2713 H 0.70721 0.30778 0.29075 0.0
H2714 H 0.68048 0.32837 0.33198 0.0
H2715 H 0.65731 0.33507 0.31371 0.0
H2716 H 0.72536 0.32853 0.32174 0.0
H2717 H 0.68579 0.27334 0.33401 0.0
H2718 H 0.68453 0.28437 0.31465 0.0
H2719 H 0.67656 0.29362 0.33313 0.0
C2720 C 0.68339 0.31805 0.28522 0.0
C2721 C 0.66882 0.32499 0.29166 0.0
C2722 C 0.6966 0.31431 0.29568 0.0
C2723 C 0.6954 0.31749 0.31267 0.0
C2724 C 0.68157 0.32588 0.31886 0.0
H2725 H 0.74824 0.25935 0.38698 0.0
H2726 H 0.72851 0.27851 0.37414 0.0
C2727 C 0.66837 0.32969 0.3084 0.0
C2728 C 0.70705 0.3094 0.32411 0.0
H2729 H 0.71215 0.27366 0.34586 0.0
C2730 C 0.72248 0.31662 0.32719 0.0
C2731 C 0.70311 0.29394 0.33123 0.0
C2732 C 0.68663 0.28574 0.32815 0.0
C2733 C 0.73429 0.30854 0.33704 0.0
C2734 C 0.73062 0.29269 0.34357 0.0
C2735 C 0.71494 0.28579 0.34088 0.0
C2736 C 0.74317 0.28242 0.35208 0.0
C2737 C 0.75056 0.31703 0.34034 0.0
C2738 C 0.75784 0.27817 0.34389 0.0
C2739 C 0.76907 0.26732 0.35118 0.0
C2740 C 0.76576 0.2603 0.36673 0.0
C2741 C 0.75109 0.26457 0.37498 0.0
C2742 C 0.73987 0.27553 0.36769 0.0
H2743 H 0.74927 0.33069 0.33963 0.0
H2744 H 0.75554 0.3137 0.35269 0.0
H2745 H 0.75965 0.3132 0.33081 0.0
H2746 H 0.76042 0.28289 0.33163 0.0
H2747 H 0.78024 0.2642 0.34447 0.0
H2748 H 0.00855 0.51021 0.59683 0.0
H2749 H 0.9919 0.48665 0.58815 0.0
H2750 H 0.95549 0.49846 0.62532 0.0
H2751 H 0.97194 0.52251 0.63375 0.0
H2752 H 0.98195 0.45972 0.60433 0.0
H2753 H 0.92725 0.49609 0.58405 0.0
H2754 H 0.94674 0.50563 0.58917 0.0
H2755 H 0.93307 0.49882 0.60531 0.0
C2756 C 0.99707 0.50774 0.60325 0.0
C2757 C 0.9915 0.51822 0.61591 0.0
C2758 C 0.98753 0.49429 0.59826 0.0
C2759 C 0.9723 0.49099 0.60587 0.0
C2760 C 0.967 0.50104 0.61899 0.0
H2761 H 0.93144 0.39515 0.57819 0.0
H2762 H 0.93731 0.41906 0.59578 0.0
C2763 C 0.97648 0.51464 0.6239 0.0
C2764 C 0.96219 0.47695 0.59987 0.0
H2765 H 0.92581 0.46715 0.58077 0.0
C2766 C 0.96961 0.4613 0.59932 0.0
C2767 C 0.94615 0.47913 0.59321 0.0
C2768 C 0.93784 0.49583 0.5928 0.0
C2769 C 0.96177 0.44788 0.59171 0.0
C2770 C 0.94569 0.45 0.58506 0.0
C2771 C 0.93802 0.46553 0.58607 0.0
C2772 C 0.93753 0.43662 0.57558 0.0
C2773 C 0.97125 0.43186 0.59004 0.0
C2774 C 0.93409 0.43886 0.5587 0.0
C2775 C 0.93016 0.42529 0.54873 0.0
C2776 C 0.9299 0.40935 0.55555 0.0
C2777 C 0.93174 0.40736 0.57268 0.0
C2778 C 0.93522 0.42097 0.58269 0.0
H2779 H 0.98471 0.43361 0.59217 0.0
H2780 H 0.96669 0.42289 0.59934 0.0
H2781 H 0.96955 0.42641 0.57755 0.0
H2782 H 0.93567 0.45087 0.55298 0.0
H2783 H 0.92885 0.42708 0.53552 0.0
H2784 H 0.85866 0.29529 0.67511 0.0
H2785 H 0.83343 0.28963 0.65961 0.0
H2786 H 0.80437 0.31096 0.69893 0.0
H2787 H 0.8298 0.31709 0.71437 0.0
H2788 H 0.81141 0.26794 0.67386 0.0
H2789 H 0.77995 0.32671 0.65709 0.0
H2790 H 0.80165 0.32577 0.66233 0.0
H2791 H 0.78628 0.32493 0.67833 0.0
C2792 C 0.84692 0.29926 0.68021 0.0
C2793 C 0.84609 0.30651 0.69595 0.0
C2794 C 0.83253 0.29603 0.67134 0.0
C2795 C 0.81704 0.29985 0.67812 0.0
C2796 C 0.81622 0.30816 0.69335 0.0
H2797 H 0.7194 0.26183 0.65594 0.0
H2798 H 0.743 0.27695 0.66731 0.0
C2799 C 0.83072 0.31162 0.70218 0.0
C2800 C 0.80206 0.29266 0.67049 0.0
H2801 H 0.76485 0.30183 0.65278 0.0
C2802 C 0.80129 0.27537 0.66914 0.0
C2803 C 0.7888 0.30238 0.66458 0.0
C2804 C 0.78918 0.32099 0.66551 0.0
C2805 C 0.78764 0.2675 0.66203 0.0
C2806 C 0.77449 0.27719 0.65586 0.0
C2807 C 0.77507 0.29448 0.6574 0.0
C2808 C 0.75994 0.26938 0.64807 0.0
C2809 C 0.78726 0.24884 0.66144 0.0
C2810 C 0.76165 0.26037 0.63333 0.0
C2811 C 0.74823 0.25165 0.62684 0.0
C2812 C 0.7329 0.25186 0.63499 0.0
C2813 C 0.73111 0.26135 0.64946 0.0
C2814 C 0.74452 0.27007 0.65592 0.0
H2815 H 0.79647 0.24325 0.66997 0.0
H2816 H 0.7748 0.2441 0.66472 0.0
H2817 H 0.79018 0.24465 0.64871 0.0
H2818 H 0.77345 0.25985 0.62703 0.0
H2819 H 0.74992 0.24455 0.61561 0.0
H2820 H 0.92272 0.57094 0.97342 0.0
H2821 H 0.92647 0.54448 0.95888 0.0
H2822 H 0.95069 0.56997 0.91879 0.0
H2823 H 0.94696 0.59622 0.9331 0.0
H2824 H 0.9294 0.54288 0.90881 0.0
H2825 H 0.97482 0.52657 0.95811 0.0
H2826 H 0.95407 0.53154 0.96438 0.0
H2827 H 0.967 0.54732 0.95568 0.0
C2828 C 0.92844 0.57089 0.96131 0.0
C2829 C 0.93476 0.58554 0.95446 0.0
C2830 C 0.93064 0.5558 0.95307 0.0
C2831 C 0.93907 0.55531 0.9379 0.0
C2832 C 0.94419 0.5701 0.93051 0.0
H2833 H 0.99459 0.49846 0.87019 0.0
H2834 H 0.97646 0.51812 0.88437 0.0
C2835 C 0.94211 0.58508 0.93873 0.0
C2836 C 0.94451 0.53952 0.93047 0.0
H2837 H 0.97415 0.50981 0.93463 0.0
C2838 C 0.93896 0.53542 0.91455 0.0
C2839 C 0.95701 0.52989 0.93801 0.0
C2840 C 0.96371 0.53401 0.95494 0.0
C2841 C 0.94603 0.52226 0.90571 0.0
C2842 C 0.95918 0.51326 0.91288 0.0
C2843 C 0.9641 0.5168 0.92914 0.0
C2844 C 0.96888 0.50092 0.90345 0.0
C2845 C 0.93952 0.51831 0.88869 0.0
C2846 C 0.97086 0.48484 0.90962 0.0
C2847 C 0.98135 0.47369 0.90167 0.0
C2848 C 0.99012 0.47844 0.88743 0.0
C2849 C 0.98794 0.49446 0.8811 0.0
C2850 C 0.97747 0.50564 0.8891 0.0
H2851 H 0.92648 0.52237 0.88726 0.0
H2852 H 0.94703 0.52497 0.87934 0.0
H2853 H 0.94029 0.50485 0.88606 0.0
H2854 H 0.96447 0.48101 0.92075 0.0
H2855 H 0.98276 0.46141 0.90683 0.0
H2856 H 0.67961 0.67105 0.21383 0.0
H2857 H 0.70456 0.67908 0.19844 0.0
H2858 H 0.67417 0.69623 0.15812 0.0
H2859 H 0.64933 0.68863 0.17351 0.0
H2860 H 0.718 0.67481 0.16341 0.0
H2861 H 0.69655 0.73798 0.18005 0.0
H2862 H 0.68865 0.71961 0.18995 0.0
H2863 H 0.68142 0.7254 0.16975 0.0
C2864 C 0.67833 0.67599 0.20144 0.0
C2865 C 0.66264 0.67948 0.19489 0.0
C2866 C 0.69255 0.68057 0.19269 0.0
C2867 C 0.69109 0.68848 0.17732 0.0
C2868 C 0.67547 0.69029 0.17006 0.0
H2869 H 0.7512 0.75202 0.1169 0.0
H2870 H 0.7297 0.73389 0.1281 0.0
C2871 C 0.66133 0.68596 0.17885 0.0
C2872 C 0.70533 0.69725 0.17006 0.0
H2873 H 0.71923 0.73618 0.16177 0.0
C2874 C 0.71837 0.68821 0.16308 0.0
C2875 C 0.70575 0.71473 0.16984 0.0
C2876 C 0.69244 0.72505 0.17792 0.0
C2877 C 0.73167 0.69632 0.15537 0.0
C2878 C 0.73184 0.7138 0.15482 0.0
C2879 C 0.71892 0.72277 0.16206 0.0
C2880 C 0.74535 0.72326 0.14702 0.0
C2881 C 0.74525 0.68621 0.14757 0.0
C2882 C 0.7612 0.72324 0.154 0.0
C2883 C 0.77345 0.73365 0.14771 0.0
C2884 C 0.76999 0.74425 0.13437 0.0
C2885 C 0.75419 0.744 0.1272 0.0
C2886 C 0.74194 0.73362 0.13353 0.0
H2887 H 0.74161 0.67305 0.14601 0.0
H2888 H 0.74869 0.69135 0.13531 0.0
H2889 H 0.75638 0.68665 0.15558 0.0
H2890 H 0.76394 0.71557 0.16463 0.0
H2891 H 0.78553 0.73358 0.15348 0.0
H2892 H 0.49968 0.50077 0.37376 0.0
H2893 H 0.51613 0.47792 0.38494 0.0
H2894 H 0.55177 0.51273 0.40398 0.0
H2895 H 0.53519 0.53562 0.39322 0.0
H2896 H 0.54903 0.46742 0.38127 0.0
H2897 H 0.53615 0.48878 0.44545 0.0
H2898 H 0.52539 0.49705 0.42777 0.0
H2899 H 0.54616 0.50354 0.43223 0.0
C2900 C 0.51113 0.50352 0.38014 0.0
C2901 C 0.51605 0.51994 0.38284 0.0
C2902 C 0.52052 0.49048 0.3865 0.0
C2903 C 0.53498 0.49369 0.39557 0.0
C2904 C 0.54046 0.51004 0.39734 0.0
H2905 H 0.58297 0.41951 0.45933 0.0
H2906 H 0.58033 0.44478 0.4426 0.0
C2907 C 0.531 0.52307 0.39113 0.0
C2908 C 0.54356 0.47998 0.4041 0.0
H2909 H 0.55114 0.46419 0.4425 0.0
C2910 C 0.54969 0.46679 0.39465 0.0
C2911 C 0.54448 0.47926 0.42157 0.0
C2912 C 0.5376 0.49283 0.43241 0.0
C2913 C 0.55618 0.4526 0.40223 0.0
C2914 C 0.55634 0.45156 0.41967 0.0
C2915 C 0.55106 0.4651 0.42912 0.0
C2916 C 0.55953 0.43581 0.42835 0.0
C2917 C 0.56241 0.43866 0.39153 0.0
C2918 C 0.54871 0.42252 0.42586 0.0
C2919 C 0.55007 0.40828 0.43543 0.0
C2920 C 0.56229 0.40704 0.44771 0.0
C2921 C 0.57347 0.42015 0.44991 0.0
C2922 C 0.572 0.43453 0.44037 0.0
H2923 H 0.56649 0.44324 0.37924 0.0
H2924 H 0.57286 0.43207 0.39752 0.0
H2925 H 0.55225 0.42967 0.38949 0.0
H2926 H 0.53877 0.4234 0.41692 0.0
H2927 H 0.54129 0.39837 0.43343 0.0
H2928 H 0.78654 0.82773 0.69198 0.0
H2929 H 0.80384 0.80347 0.69745 0.0
H2930 H 0.84554 0.8353 0.70709 0.0
H2931 H 0.82805 0.85958 0.70252 0.0
H2932 H 0.83266 0.78929 0.68745 0.0
H2933 H 0.83889 0.81378 0.75138 0.0
H2934 H 0.82527 0.823 0.73638 0.0
H2935 H 0.84712 0.82715 0.73573 0.0
C2936 C 0.7995 0.8295 0.69489 0.0
C2937 C 0.80595 0.84544 0.69716 0.0
C2938 C 0.80937 0.81565 0.698 0.0
C2939 C 0.82584 0.81763 0.70316 0.0
C2940 C 0.83273 0.83354 0.70363 0.0
H2941 H 0.88402 0.72887 0.72948 0.0
H2942 H 0.87587 0.75466 0.71573 0.0
C2943 C 0.82278 0.84736 0.70093 0.0
C2944 C 0.83501 0.80331 0.70995 0.0
H2945 H 0.85183 0.78851 0.74571 0.0
C2946 C 0.83699 0.78913 0.70014 0.0
C2947 C 0.84044 0.80309 0.72661 0.0
C2948 C 0.83771 0.81749 0.7382 0.0
C2949 C 0.84388 0.77457 0.70667 0.0
C2950 C 0.84927 0.7744 0.72332 0.0
C2951 C 0.84778 0.78875 0.73292 0.0
C2952 C 0.85482 0.75909 0.73166 0.0
C2953 C 0.84456 0.75931 0.69596 0.0
C2954 C 0.84607 0.7534 0.74551 0.0
C2955 C 0.85086 0.73894 0.75353 0.0
C2956 C 0.86446 0.72982 0.7478 0.0
C2957 C 0.87345 0.73566 0.73412 0.0
C2958 C 0.86872 0.75028 0.72616 0.0
H2959 H 0.83676 0.76056 0.68472 0.0
H2960 H 0.8575 0.75719 0.69193 0.0
H2961 H 0.84043 0.74825 0.70296 0.0
H2962 H 0.83533 0.76005 0.74999 0.0
H2963 H 0.84366 0.73472 0.764 0.0
H2964 H 0.26886 0.68089 0.30551 0.0
H2965 H 0.28455 0.70541 0.29735 0.0
H2966 H 0.32855 0.68471 0.31919 0.0
H2967 H 0.31293 0.66018 0.32755 0.0
H2968 H 0.32458 0.72134 0.32179 0.0
H2969 H 0.31773 0.69532 0.25848 0.0
H2970 H 0.29878 0.69846 0.26965 0.0
H2971 H 0.31344 0.68342 0.27687 0.0
C2972 C 0.28175 0.68178 0.30905 0.0
C2973 C 0.28975 0.66852 0.31693 0.0
C2974 C 0.29069 0.69577 0.30434 0.0
C2975 C 0.30773 0.69665 0.30741 0.0
C2976 C 0.3154 0.68417 0.31667 0.0
H2977 H 0.37769 0.75012 0.24597 0.0
H2978 H 0.36417 0.72919 0.26323 0.0
C2979 C 0.30646 0.67018 0.32142 0.0
C2980 C 0.3179 0.70929 0.29903 0.0
H2981 H 0.33105 0.72114 0.26076 0.0
C2982 C 0.32603 0.72135 0.30846 0.0
C2983 C 0.32001 0.70898 0.28167 0.0
C2984 C 0.31216 0.69579 0.27103 0.0
C2985 C 0.33595 0.73343 0.30088 0.0
C2986 C 0.33761 0.73341 0.28346 0.0
C2987 C 0.32973 0.72112 0.27411 0.0
C2988 C 0.34694 0.74631 0.27447 0.0
C2989 C 0.34469 0.74598 0.31154 0.0
C2990 C 0.34174 0.76283 0.27512 0.0
C2991 C 0.34938 0.77475 0.26528 0.0
C2992 C 0.36232 0.77034 0.25453 0.0
C2993 C 0.36776 0.75386 0.25414 0.0
C2994 C 0.36008 0.74192 0.264 0.0
H2995 H 0.34593 0.74162 0.32451 0.0
H2996 H 0.35719 0.74879 0.3066 0.0
H2997 H 0.33743 0.75762 0.31167 0.0
H2998 H 0.33139 0.76641 0.28283 0.0
H2999 H 0.34489 0.78736 0.26583 0.0
H3000 H 0.50212 0.12203 0.50128 0.0
H3001 H 0.52221 0.10698 0.5182 0.0
H3002 H 0.4826 0.08702 0.54778 0.0
H3003 H 0.46242 0.10162 0.53062 0.0
H3004 H 0.53004 0.10489 0.55194 0.0
H3005 H 0.50376 0.04587 0.52795 0.0
H3006 H 0.49817 0.06568 0.51941 0.0
H3007 H 0.48971 0.05914 0.53888 0.0
C3008 C 0.49772 0.11463 0.51154 0.0
C3009 C 0.48073 0.11274 0.51447 0.0
C3010 C 0.5092 0.10608 0.52122 0.0
C3011 C 0.50384 0.09565 0.53403 0.0
C3012 C 0.48694 0.09473 0.53774 0.0
H3013 H 0.58352 0.03704 0.58251 0.0
H3014 H 0.5579 0.05352 0.58127 0.0
C3015 C 0.47546 0.1031 0.52794 0.0
C3016 C 0.51586 0.08457 0.54223 0.0
H3017 H 0.5279 0.04415 0.54367 0.0
C3018 C 0.52944 0.09157 0.55046 0.0
C3019 C 0.515 0.06719 0.54022 0.0
C3020 C 0.50097 0.05896 0.53105 0.0
C3021 C 0.54266 0.08172 0.55591 0.0
C3022 C 0.54214 0.06449 0.55312 0.0
C3023 C 0.52811 0.05738 0.54587 0.0
C3024 C 0.55712 0.05418 0.55453 0.0
C3025 C 0.55761 0.08985 0.56353 0.0
C3026 C 0.56486 0.04898 0.53995 0.0
C3027 C 0.57931 0.03971 0.54062 0.0
C3028 C 0.58629 0.03534 0.5559 0.0
C3029 C 0.57836 0.04024 0.57058 0.0
C3030 C 0.56383 0.04968 0.56989 0.0
H3031 H 0.55628 0.1035 0.56432 0.0
H3032 H 0.55959 0.08491 0.57618 0.0
H3033 H 0.5688 0.08692 0.55614 0.0
H3034 H 0.55984 0.05235 0.52799 0.0
H3035 H 0.58509 0.03607 0.52909 0.0
H3036 H 0.17469 0.35441 0.78536 0.0
H3037 H 0.15924 0.32932 0.779 0.0
H3038 H 0.19307 0.30079 0.8088 0.0
H3039 H 0.20839 0.3261 0.81562 0.0
H3040 H 0.17378 0.30436 0.76196 0.0
H3041 H 0.1485 0.28068 0.82126 0.0
H3042 H 0.15581 0.30165 0.81885 0.0
H3043 H 0.17028 0.285 0.82149 0.0
C3044 C 0.17862 0.34284 0.79087 0.0
C3045 C 0.19278 0.34212 0.80089 0.0
C3046 C 0.16977 0.32854 0.78724 0.0
C3047 C 0.17497 0.31321 0.79345 0.0
C3048 C 0.18866 0.31254 0.80413 0.0
H3049 H 0.15167 0.21341 0.76262 0.0
H3050 H 0.16284 0.23794 0.77635 0.0
C3051 C 0.19744 0.32697 0.80796 0.0
C3052 C 0.16727 0.29793 0.78698 0.0
H3053 H 0.14637 0.2629 0.79788 0.0
C3054 C 0.16768 0.29536 0.76982 0.0
C3055 C 0.15949 0.28614 0.79728 0.0
C3056 C 0.15833 0.28851 0.81574 0.0
C3057 C 0.16055 0.28133 0.76265 0.0
C3058 C 0.15263 0.26964 0.7729 0.0
C3059 C 0.15237 0.27202 0.79009 0.0
C3060 C 0.14487 0.25471 0.76584 0.0
C3061 C 0.16175 0.27897 0.74417 0.0
C3062 C 0.13091 0.25607 0.75564 0.0
C3063 C 0.1245 0.2421 0.74775 0.0
C3064 C 0.132 0.2266 0.74997 0.0
C3065 C 0.14569 0.22523 0.7606 0.0
C3066 C 0.15204 0.23918 0.76852 0.0
H3067 H 0.17104 0.28735 0.7385 0.0
H3068 H 0.16509 0.266 0.74114 0.0
H3069 H 0.14956 0.28163 0.73846 0.0
H3070 H 0.12516 0.26799 0.75355 0.0
H3071 H 0.11389 0.24349 0.7397 0.0
H3072 H 0.41935 0.45837 0.52698 0.0
H3073 H 0.44438 0.44189 0.52437 0.0
H3074 H 0.44757 0.43778 0.57744 0.0
H3075 H 0.4222 0.45443 0.58021 0.0
H3076 H 0.47662 0.4486 0.53914 0.0
H3077 H 0.44817 0.38885 0.55845 0.0
H3078 H 0.43573 0.4061 0.55163 0.0
H3079 H 0.44562 0.40678 0.57145 0.0
C3080 C 0.42537 0.45405 0.53814 0.0
C3081 C 0.4188 0.45762 0.5538 0.0
C3082 C 0.43968 0.44465 0.53661 0.0
C3083 C 0.44769 0.43853 0.55069 0.0
C3084 C 0.44142 0.44229 0.56643 0.0
H3085 H 0.54286 0.39207 0.52772 0.0
H3086 H 0.52178 0.40622 0.54413 0.0
C3087 C 0.42703 0.45184 0.56799 0.0
C3088 C 0.46249 0.42811 0.54843 0.0
H3089 H 0.47471 0.38775 0.54668 0.0
C3090 C 0.47642 0.43534 0.54111 0.0
C3091 C 0.46198 0.41082 0.55089 0.0
C3092 C 0.44709 0.40255 0.55848 0.0
C3093 C 0.48956 0.42563 0.53534 0.0
C3094 C 0.48882 0.40824 0.53726 0.0
C3095 C 0.47522 0.40108 0.54531 0.0
C3096 C 0.50125 0.39734 0.52947 0.0
C3097 C 0.50358 0.43401 0.52629 0.0
C3098 C 0.49658 0.3869 0.51641 0.0
C3099 C 0.50858 0.37861 0.50713 0.0
C3100 C 0.5254 0.38078 0.51075 0.0
C3101 C 0.52996 0.39037 0.52452 0.0
C3102 C 0.51797 0.39849 0.53388 0.0
H3103 H 0.50062 0.44703 0.52307 0.0
H3104 H 0.51473 0.43406 0.53428 0.0
H3105 H 0.50664 0.42725 0.51474 0.0
H3106 H 0.4837 0.38582 0.51286 0.0
H3107 H 0.50474 0.37125 0.49662 0.0
H3108 H 0.64284 0.25813 0.26328 0.0
H3109 H 0.65458 0.23527 0.24733 0.0
H3110 H 0.64225 0.26033 0.20192 0.0
H3111 H 0.63048 0.28334 0.21779 0.0
H3112 H 0.63461 0.22452 0.20357 0.0
H3113 H 0.69908 0.24049 0.22069 0.0
H3114 H 0.68509 0.23943 0.23792 0.0
H3115 H 0.68218 0.25501 0.22235 0.0
C3116 C 0.64247 0.25871 0.24991 0.0
C3117 C 0.63584 0.27253 0.24177 0.0
C3118 C 0.64925 0.2457 0.24083 0.0
C3119 C 0.64948 0.24631 0.2235 0.0
C3120 C 0.64226 0.25976 0.2153 0.0
H3121 H 0.71218 0.17074 0.17716 0.0
H3122 H 0.69788 0.19745 0.1797 0.0
C3123 C 0.63555 0.27283 0.22438 0.0
C3124 C 0.65757 0.23295 0.21409 0.0
H3125 H 0.69461 0.21332 0.20991 0.0
C3126 C 0.64777 0.22218 0.20469 0.0
C3127 C 0.67478 0.23022 0.21527 0.0
C3128 C 0.68596 0.24198 0.22447 0.0
C3129 C 0.65461 0.20799 0.19741 0.0
C3130 C 0.67158 0.20451 0.19981 0.0
C3131 C 0.68157 0.21596 0.20816 0.0
C3132 C 0.67874 0.18816 0.19592 0.0
C3133 C 0.64353 0.19659 0.18768 0.0
C3134 C 0.67261 0.17416 0.20409 0.0
C3135 C 0.68077 0.15906 0.20278 0.0
C3136 C 0.69524 0.15766 0.19329 0.0
C3137 C 0.70101 0.17149 0.18452 0.0
C3138 C 0.69288 0.18671 0.18594 0.0
H3139 H 0.63297 0.20345 0.18217 0.0
H3140 H 0.65044 0.19026 0.17765 0.0
H3141 H 0.63839 0.18705 0.19609 0.0
H3142 H 0.66196 0.17508 0.21215 0.0
H3143 H 0.67602 0.14859 0.20965 0.0
H3144 H 0.4654 0.88352 0.95899 0.0
H3145 H 0.4869 0.89403 0.94054 0.0
H3146 H 0.52381 0.86763 0.96861 0.0
H3147 H 0.50231 0.85673 0.9868 0.0
H3148 H 0.51037 0.91407 0.95078 0.0
H3149 H 0.54038 0.85981 0.92251 0.0
H3150 H 0.52037 0.85858 0.93236 0.0
H3151 H 0.53904 0.85726 0.94448 0.0
C3152 C 0.47806 0.87965 0.96098 0.0
C3153 C 0.48223 0.86938 0.97438 0.0
C3154 C 0.49032 0.88563 0.9504 0.0
C3155 C 0.50694 0.88147 0.95304 0.0
C3156 C 0.51102 0.87066 0.96603 0.0
H3157 H 0.60021 0.91932 0.95267 0.0
H3158 H 0.57491 0.90303 0.9519 0.0
C3159 C 0.49875 0.86455 0.97653 0.0
C3160 C 0.5202 0.89026 0.94396 0.0
H3161 H 0.55786 0.88429 0.92594 0.0
C3162 C 0.52053 0.90759 0.94488 0.0
C3163 C 0.53338 0.88182 0.93617 0.0
C3164 C 0.53318 0.86335 0.93367 0.0
C3165 C 0.53434 0.9166 0.93957 0.0
C3166 C 0.5481 0.90802 0.93306 0.0
C3167 C 0.54729 0.89081 0.93099 0.0
C3168 C 0.56427 0.91631 0.93126 0.0
C3169 C 0.53466 0.93509 0.9422 0.0
C3170 C 0.56685 0.92887 0.91956 0.0
C3171 C 0.58139 0.93826 0.91997 0.0
C3172 C 0.5934 0.93522 0.93216 0.0
C3173 C 0.5911 0.92205 0.94324 0.0
C3174 C 0.5767 0.91266 0.94275 0.0
H3175 H 0.5235 0.93962 0.94881 0.0
H3176 H 0.54578 0.93867 0.94941 0.0
H3177 H 0.53533 0.94142 0.93005 0.0
H3178 H 0.55739 0.93177 0.91053 0.0
H3179 H 0.58291 0.94832 0.91126 0.0
H3180 H 0.99831 0.12378 0.49261 0.0
H3181 H 0.97693 0.11082 0.47563 0.0
H3182 H 0.01388 0.09586 0.44021 0.0
H3183 H 0.03541 0.10842 0.45738 0.0
H3184 H 0.96602 0.1129 0.44278 0.0
H3185 H 0.99514 0.05197 0.45654 0.0
H3186 H 0.00123 0.07066 0.46704 0.0
H3187 H 0.00791 0.06689 0.44619 0.0
C3188 C 0.00184 0.118 0.48106 0.0
C3189 C 0.01853 0.11686 0.47644 0.0
C3190 C 0.98962 0.11063 0.47135 0.0
C3191 C 0.99389 0.1021 0.45684 0.0
C3192 C 0.01039 0.10209 0.45154 0.0
H3193 H 0.9107 0.04902 0.40831 0.0
H3194 H 0.93626 0.06552 0.40977 0.0
C3195 C 0.02265 0.10931 0.46133 0.0
C3196 C 0.98129 0.09186 0.44844 0.0
H3197 H 0.96954 0.05166 0.44321 0.0
C3198 C 0.96689 0.09952 0.44252 0.0
C3199 C 0.98249 0.07439 0.44823 0.0
C3200 C 0.99745 0.06541 0.45493 0.0
C3201 C 0.95329 0.09014 0.4372 0.0
C3202 C 0.95426 0.0727 0.43774 0.0
C3203 C 0.96898 0.06506 0.44272 0.0
C3204 C 0.93935 0.0623 0.43615 0.0
C3205 C 0.93759 0.09883 0.43214 0.0
C3206 C 0.93293 0.05489 0.45042 0.0
C3207 C 0.91849 0.04559 0.44963 0.0
C3208 C 0.91022 0.04343 0.43453 0.0
C3209 C 0.91686 0.05051 0.4201 0.0
C3210 C 0.93136 0.05996 0.42093 0.0
H3211 H 0.93858 0.11249 0.43331 0.0
H3212 H 0.93465 0.09577 0.4191 0.0
H3213 H 0.92712 0.09449 0.43989 0.0
H3214 H 0.93896 0.05656 0.46227 0.0
H3215 H 0.91372 0.04023 0.46094 0.0
H3216 H 0.17199 0.43996 0.46955 0.0
H3217 H 0.18763 0.41395 0.46801 0.0
H3218 H 0.17277 0.40817 0.41711 0.0
H3219 H 0.15752 0.43404 0.41846 0.0
H3220 H 0.17508 0.38366 0.46224 0.0
H3221 H 0.22114 0.39716 0.41401 0.0
H3222 H 0.2098 0.41331 0.42448 0.0
H3223 H 0.20098 0.40289 0.40685 0.0
C3224 C 0.17236 0.43326 0.45797 0.0
C3225 C 0.16356 0.43903 0.44412 0.0
C3226 C 0.18127 0.41843 0.4571 0.0
C3227 C 0.18164 0.40927 0.44235 0.0
C3228 C 0.17309 0.41523 0.42848 0.0
H3229 H 0.17201 0.31259 0.41466 0.0
H3230 H 0.17139 0.33913 0.42871 0.0
C3231 C 0.16423 0.42998 0.42932 0.0
C3232 C 0.18938 0.39267 0.44163 0.0
H3233 H 0.21208 0.3683 0.41581 0.0
C3234 C 0.18354 0.38035 0.45237 0.0
C3235 C 0.20076 0.38838 0.42907 0.0
C3236 C 0.20866 0.40121 0.41809 0.0
C3237 C 0.18748 0.36365 0.44982 0.0
C3238 C 0.19718 0.35917 0.43596 0.0
C3239 C 0.20437 0.37165 0.42627 0.0
C3240 C 0.198 0.3419 0.42985 0.0
C3241 C 0.18067 0.35093 0.46163 0.0
C3242 C 0.21318 0.33456 0.42566 0.0
C3243 C 0.21356 0.31935 0.41737 0.0
C3244 C 0.19875 0.31136 0.41304 0.0
C3245 C 0.18364 0.3184 0.41787 0.0
C3246 C 0.18327 0.33354 0.42609 0.0
H3247 H 0.17973 0.35609 0.47433 0.0
H3248 H 0.16802 0.3474 0.45767 0.0
H3249 H 0.18849 0.33965 0.462 0.0
H3250 H 0.2247 0.34086 0.42829 0.0
H3251 H 0.22539 0.31424 0.41373 0.0
H3252 H 0.92559 0.92738 0.64654 0.0
H3253 H 0.9 0.92789 0.66223 0.0
H3254 H 0.91169 0.97666 0.68037 0.0
H3255 H 0.93756 0.97636 0.6643 0.0
H3256 H 0.89596 0.9317 0.69659 0.0
H3257 H 0.86452 0.98141 0.66064 0.0
H3258 H 0.88263 0.97095 0.65285 0.0
H3259 H 0.88456 0.98562 0.66937 0.0
C3260 C 0.9228 0.93826 0.65385 0.0
C3261 C 0.93358 0.95186 0.65416 0.0
C3262 C 0.90816 0.9385 0.66286 0.0
C3263 C 0.90391 0.95233 0.6724 0.0
C3264 C 0.91468 0.96594 0.67293 0.0
H3265 H 0.81294 0.92482 0.7258 0.0
H3266 H 0.8389 0.9402 0.72253 0.0
C3267 C 0.92944 0.96572 0.66382 0.0
C3268 C 0.88802 0.95206 0.68148 0.0
H3269 H 0.8482 0.96567 0.67863 0.0
C3270 C 0.88555 0.93937 0.69303 0.0
C3271 C 0.87455 0.96212 0.67672 0.0
C3272 C 0.87654 0.97578 0.66417 0.0
C3273 C 0.8697 0.9355 0.69889 0.0
C3274 C 0.85602 0.94493 0.69337 0.0
C3275 C 0.85872 0.95851 0.68288 0.0
C3276 C 0.83883 0.93901 0.69579 0.0
C3277 C 0.86764 0.92042 0.70972 0.0
C3278 C 0.82966 0.93424 0.68186 0.0
C3279 C 0.8148 0.92573 0.68368 0.0
C3280 C 0.80884 0.92173 0.69949 0.0
C3281 C 0.81734 0.92761 0.71347 0.0
C3282 C 0.83221 0.9363 0.71162 0.0
H3283 H 0.8792 0.91307 0.71068 0.0
H3284 H 0.86407 0.92436 0.72237 0.0
H3285 H 0.85773 0.91228 0.70483 0.0
H3286 H 0.83448 0.93624 0.66952 0.0
H3287 H 0.80848 0.9215 0.67266 0.0
H3288 H 0.26837 0.69068 0.90945 0.0
H3289 H 0.26627 0.66465 0.92488 0.0
H3290 H 0.31952 0.66194 0.92718 0.0
H3291 H 0.32162 0.688 0.91253 0.0
H3292 H 0.27557 0.63637 0.91408 0.0
H3293 H 0.30957 0.64547 0.97191 0.0
H3294 H 0.30293 0.66276 0.95945 0.0
H3295 H 0.32252 0.65275 0.95554 0.0
C3296 C 0.27958 0.68478 0.91376 0.0
C3297 C 0.29516 0.69135 0.90976 0.0
C3298 C 0.27838 0.66989 0.92254 0.0
C3299 C 0.29273 0.66138 0.92745 0.0
C3300 C 0.30823 0.66843 0.92408 0.0
H3301 H 0.32501 0.56756 0.91249 0.0
H3302 H 0.30995 0.59349 0.91253 0.0
C3303 C 0.30943 0.68331 0.9155 0.0
C3304 C 0.29191 0.64412 0.93371 0.0
H3305 H 0.3129 0.61775 0.95899 0.0
C3306 C 0.28333 0.63235 0.92425 0.0
C3307 C 0.30152 0.63873 0.9473 0.0
C3308 C 0.30946 0.65069 0.95921 0.0
C3309 C 0.28565 0.61535 0.92684 0.0
C3310 C 0.29728 0.61003 0.93878 0.0
C3311 C 0.30433 0.62175 0.94949 0.0
C3312 C 0.30419 0.593 0.9387 0.0
C3313 C 0.27607 0.60334 0.91626 0.0
C3314 C 0.30626 0.58404 0.95344 0.0
C3315 C 0.31527 0.56924 0.95352 0.0
C3316 C 0.32234 0.5632 0.93883 0.0
C3317 C 0.31961 0.5718 0.92401 0.0
C3318 C 0.31081 0.58661 0.92397 0.0
H3319 H 0.26346 0.60816 0.9137 0.0
H3320 H 0.2824 0.60188 0.90418 0.0
H3321 H 0.27496 0.59103 0.92224 0.0
H3322 H 0.3014 0.58878 0.96499 0.0
H3323 H 0.31722 0.56288 0.96513 0.0
H3324 H 0.68086 0.08786 0.16341 0.0
H3325 H 0.65393 0.07505 0.15961 0.0
H3326 H 0.65264 0.06186 0.21128 0.0
H3327 H 0.67962 0.07521 0.21531 0.0
H3328 H 0.64098 0.04432 0.16441 0.0
H3329 H 0.61158 0.09031 0.20647 0.0
H3330 H 0.63268 0.09235 0.19962 0.0
H3331 H 0.62743 0.07746 0.21524 0.0
C3332 C 0.67497 0.08208 0.17397 0.0
C3333 C 0.68224 0.08274 0.18972 0.0
C3334 C 0.65958 0.0747 0.17175 0.0
C3335 C 0.65114 0.06776 0.18521 0.0
C3336 C 0.6588 0.06745 0.20079 0.0
H3337 H 0.55318 0.03067 0.15285 0.0
H3338 H 0.57958 0.03014 0.16785 0.0
C3339 C 0.67424 0.07498 0.20306 0.0
C3340 C 0.63386 0.06217 0.1828 0.0
H3341 H 0.59404 0.07359 0.19081 0.0
C3342 C 0.63066 0.05044 0.1704 0.0
C3343 C 0.62047 0.07028 0.19061 0.0
C3344 C 0.6231 0.08338 0.20365 0.0
C3345 C 0.61453 0.04746 0.16476 0.0
C3346 C 0.60121 0.05614 0.17207 0.0
C3347 C 0.6043 0.06696 0.18528 0.0
C3348 C 0.58451 0.05625 0.16454 0.0
C3349 C 0.61204 0.03602 0.15023 0.0
C3350 C 0.57825 0.07117 0.1583 0.0
C3351 C 0.56318 0.07154 0.14998 0.0
C3352 C 0.55406 0.05696 0.14766 0.0
C3353 C 0.56002 0.04207 0.15437 0.0
C3354 C 0.57512 0.04174 0.16285 0.0
H3355 H 0.62392 0.03247 0.14432 0.0
H3356 H 0.60582 0.02456 0.15448 0.0
H3357 H 0.60404 0.04192 0.14075 0.0
H3358 H 0.58528 0.08252 0.15946 0.0
H3359 H 0.5589 0.08321 0.14498 0.0
H3360 H 0.22144 0.68885 0.09633 0.0
H3361 H 0.22245 0.6613 0.08348 0.0
H3362 H 0.16939 0.65765 0.08735 0.0
H3363 H 0.16827 0.68497 0.09992 0.0
H3364 H 0.21199 0.63198 0.0977 0.0
H3365 H 0.17748 0.6432 0.03994 0.0
H3366 H 0.18613 0.65981 0.05212 0.0
H3367 H 0.16635 0.65105 0.05742 0.0
C3368 C 0.21 0.68224 0.09416 0.0
C3369 C 0.19477 0.68905 0.09908 0.0
C3370 C 0.21059 0.66654 0.08686 0.0
C3371 C 0.19596 0.65758 0.0842 0.0
C3372 C 0.18078 0.66452 0.0889 0.0
H3373 H 0.16308 0.56121 0.09076 0.0
H3374 H 0.1768 0.58774 0.09438 0.0
C3375 C 0.18018 0.6801 0.0962 0.0
C3376 C 0.19634 0.64041 0.07784 0.0
H3377 H 0.1764 0.61513 0.05068 0.0
C3378 C 0.20455 0.62829 0.08716 0.0
C3379 C 0.18696 0.63563 0.0639 0.0
C3380 C 0.17889 0.64816 0.05268 0.0
C3381 C 0.20241 0.61141 0.08375 0.0
C3382 C 0.19155 0.6066 0.07091 0.0
C3383 C 0.18455 0.61877 0.0607 0.0
C3384 C 0.18558 0.58936 0.06913 0.0
C3385 C 0.2114 0.59892 0.09428 0.0
C3386 C 0.18584 0.58139 0.0537 0.0
C3387 C 0.17778 0.56624 0.05153 0.0
C3388 C 0.16925 0.55888 0.06476 0.0
C3389 C 0.16961 0.56653 0.08035 0.0
C3390 C 0.1776 0.58166 0.08248 0.0
H3391 H 0.22342 0.60393 0.09865 0.0
H3392 H 0.20384 0.59608 0.10536 0.0
H3393 H 0.21371 0.58725 0.08743 0.0
H3394 H 0.1918 0.58718 0.04319 0.0
H3395 H 0.17768 0.56063 0.03938 0.0
H3396 H 0.68654 0.90076 0.34081 0.0
H3397 H 0.65984 0.9146 0.34177 0.0
H3398 H 0.66343 0.92567 0.28972 0.0
H3399 H 0.69022 0.91139 0.28857 0.0
H3400 H 0.64886 0.94615 0.33414 0.0
H3401 H 0.62084 0.89868 0.29277 0.0
H3402 H 0.64112 0.89611 0.30165 0.0
H3403 H 0.63806 0.9102 0.28477 0.0
C3404 C 0.68176 0.90628 0.32957 0.0
C3405 C 0.69037 0.90482 0.31456 0.0
C3406 C 0.66652 0.91425 0.33016 0.0
C3407 C 0.65954 0.92095 0.31577 0.0
C3408 C 0.66848 0.92032 0.3009 0.0
H3409 H 0.56038 0.9629 0.33727 0.0
H3410 H 0.58783 0.96173 0.32425 0.0
C3411 C 0.6838 0.91225 0.30028 0.0
C3412 C 0.64239 0.92735 0.31648 0.0
H3413 H 0.60285 0.91677 0.30627 0.0
C3414 C 0.63878 0.94002 0.32778 0.0
C3415 C 0.6293 0.91923 0.30818 0.0
C3416 C 0.63241 0.90523 0.29623 0.0
C3417 C 0.6224 0.944 0.3319 0.0
C3418 C 0.60933 0.93527 0.32424 0.0
C3419 C 0.61294 0.92345 0.31206 0.0
C3420 C 0.59221 0.93611 0.33064 0.0
C3421 C 0.61924 0.95659 0.34531 0.0
C3422 C 0.58543 0.92199 0.33806 0.0
C3423 C 0.56985 0.92259 0.34535 0.0
C3424 C 0.56069 0.93734 0.34538 0.0
C3425 C 0.56722 0.95139 0.33749 0.0
C3426 C 0.5829 0.95077 0.33013 0.0
H3427 H 0.63082 0.96063 0.35149 0.0
H3428 H 0.61321 0.96764 0.33985 0.0
H3429 H 0.61077 0.95144 0.35481 0.0
H3430 H 0.59241 0.91057 0.33861 0.0
H3431 H 0.56515 0.91154 0.35128 0.0
H3432 H 0.35161 0.43345 0.58196 0.0
H3433 H 0.33793 0.40666 0.58237 0.0
H3434 H 0.32108 0.41421 0.53233 0.0
H3435 H 0.33512 0.44116 0.53171 0.0
H3436 H 0.30499 0.39783 0.57754 0.0
H3437 H 0.34639 0.37014 0.52991 0.0
H3438 H 0.35107 0.38959 0.53979 0.0
H3439 H 0.33517 0.38852 0.52435 0.0
C3440 C 0.34492 0.4295 0.57105 0.0
C3441 C 0.34454 0.43935 0.55675 0.0
C3442 C 0.33706 0.41419 0.57132 0.0
C3443 C 0.32864 0.40838 0.55733 0.0
C3444 C 0.32772 0.41839 0.54317 0.0
H3445 H 0.28285 0.31189 0.58037 0.0
H3446 H 0.28486 0.33892 0.5667 0.0
C3447 C 0.33566 0.43378 0.54287 0.0
C3448 C 0.32156 0.39151 0.55774 0.0
H3449 H 0.32893 0.35217 0.54435 0.0
C3450 C 0.30991 0.38785 0.57005 0.0
C3451 C 0.32811 0.37857 0.54796 0.0
C3452 C 0.34095 0.38177 0.5348 0.0
C3453 C 0.3055 0.37148 0.57368 0.0
C3454 C 0.31266 0.35846 0.56443 0.0
C3455 C 0.32343 0.3622 0.55134 0.0
C3456 C 0.31134 0.34104 0.56993 0.0
C3457 C 0.29426 0.36823 0.58822 0.0
C3458 C 0.32565 0.33292 0.57542 0.0
C3459 C 0.32456 0.3175 0.58302 0.0
C3460 C 0.30913 0.3099 0.58531 0.0
C3461 C 0.29489 0.31753 0.57887 0.0
C3462 C 0.29601 0.33299 0.57116 0.0
H3463 H 0.29193 0.37957 0.59563 0.0
H3464 H 0.28218 0.36357 0.58368 0.0
H3465 H 0.29967 0.35868 0.59647 0.0
H3466 H 0.33761 0.33888 0.57457 0.0
H3467 H 0.33577 0.31189 0.58776 0.0
H3468 H 0.93196 0.08772 0.83146 0.0
H3469 H 0.90526 0.08933 0.81767 0.0
H3470 H 0.9036 0.03612 0.81425 0.0
H3471 H 0.93031 0.03439 0.82856 0.0
H3472 H 0.89122 0.07862 0.78839 0.0
H3473 H 0.86365 0.04677 0.84295 0.0
H3474 H 0.88475 0.05391 0.84288 0.0
H3475 H 0.87915 0.0356 0.83162 0.0
C3476 C 0.92608 0.07634 0.82753 0.0
C3477 C 0.93308 0.06091 0.83134 0.0
C3478 C 0.91083 0.07729 0.81957 0.0
C3479 C 0.90229 0.06284 0.81523 0.0
C3480 C 0.90985 0.04741 0.81781 0.0
H3481 H 0.80094 0.08464 0.77831 0.0
H3482 H 0.82818 0.07107 0.77872 0.0
C3483 C 0.92513 0.04645 0.82589 0.0
C3484 C 0.88483 0.06422 0.80983 0.0
H3485 H 0.84551 0.05899 0.8242 0.0
C3486 C 0.88116 0.07402 0.79597 0.0
C3487 C 0.87177 0.05827 0.81985 0.0
C3488 C 0.87492 0.04814 0.83522 0.0
C3489 C 0.86487 0.07893 0.79248 0.0
C3490 C 0.85196 0.07367 0.80301 0.0
C3491 C 0.85549 0.06293 0.81615 0.0
C3492 C 0.83533 0.08128 0.8024 0.0
C3493 C 0.86172 0.09067 0.77833 0.0
C3494 C 0.83031 0.09126 0.81565 0.0
C3495 C 0.81489 0.09889 0.81548 0.0
C3496 C 0.8041 0.09669 0.80205 0.0
C3497 C 0.80904 0.08657 0.78879 0.0
C3498 C 0.82458 0.07889 0.78898 0.0
H3499 H 0.87336 0.09492 0.7724 0.0
H3500 H 0.85407 0.0844 0.76882 0.0
H3501 H 0.85475 0.10165 0.78273 0.0
H3502 H 0.83845 0.09329 0.8261 0.0
H3503 H 0.81147 0.1066 0.82589 0.0
H3504 H 0.47246 0.16765 0.44109 0.0
H3505 H 0.47228 0.1819 0.41426 0.0
H3506 H 0.41955 0.17452 0.41088 0.0
H3507 H 0.4196 0.16082 0.43758 0.0
H3508 H 0.46449 0.16816 0.38578 0.0
H3509 H 0.42251 0.2208 0.39437 0.0
H3510 H 0.43144 0.2099 0.4117 0.0
H3511 H 0.41258 0.20265 0.40221 0.0
C3512 C 0.46081 0.1695 0.43479 0.0
C3513 C 0.44606 0.16312 0.4414 0.0
C3514 C 0.46071 0.17761 0.41948 0.0
C3515 C 0.44586 0.17956 0.41067 0.0
C3516 C 0.43109 0.17367 0.41762 0.0
H3517 H 0.41512 0.16015 0.31689 0.0
H3518 H 0.42975 0.162 0.34306 0.0
C3519 C 0.43117 0.16566 0.43285 0.0
C3520 C 0.44575 0.18558 0.39334 0.0
H3521 H 0.42156 0.20762 0.3668 0.0
C3522 C 0.45545 0.17718 0.38165 0.0
C3523 C 0.43436 0.19768 0.38787 0.0
C3524 C 0.4248 0.20838 0.39978 0.0
C3525 C 0.45274 0.17922 0.36465 0.0
C3526 C 0.4397 0.18957 0.35925 0.0
C3527 C 0.4313 0.19936 0.37088 0.0
C3528 C 0.43294 0.18859 0.34222 0.0
C3529 C 0.46345 0.16973 0.35268 0.0
C3530 C 0.42959 0.20295 0.33304 0.0
C3531 C 0.4209 0.20195 0.31809 0.0
C3532 C 0.41539 0.18656 0.31216 0.0
C3533 C 0.41929 0.17219 0.32107 0.0
C3534 C 0.42783 0.1732 0.336 0.0
H3535 H 0.47623 0.16848 0.35756 0.0
H3536 H 0.45839 0.15707 0.35114 0.0
H3537 H 0.46398 0.17583 0.3404 0.0
H3538 H 0.43326 0.21497 0.33767 0.0
H3539 H 0.41803 0.21322 0.31149 0.0
H3540 H 0.07925 0.14615 0.56151 0.0
H3541 H 0.07859 0.15719 0.58948 0.0
H3542 H 0.02725 0.17029 0.58338 0.0
H3543 H 0.02774 0.15888 0.55519 0.0
H3544 H 0.07118 0.18874 0.60076 0.0
H3545 H 0.02732 0.14174 0.62551 0.0
H3546 H 0.03736 0.13932 0.60574 0.0
H3547 H 0.02067 0.15376 0.60802 0.0
C3548 C 0.06781 0.15143 0.56604 0.0
C3549 C 0.05351 0.15157 0.55619 0.0
C3550 C 0.06747 0.15778 0.58204 0.0
C3551 C 0.05284 0.1644 0.58857 0.0
C3552 C 0.0386 0.165 0.57865 0.0
H3553 H 0.07315 0.20631 0.68718 0.0
H3554 H 0.05908 0.2044 0.66038 0.0
C3555 C 0.03892 0.15858 0.56255 0.0
C3556 C 0.05283 0.17022 0.60593 0.0
H3557 H 0.04021 0.15922 0.64467 0.0
C3558 C 0.06417 0.18255 0.61038 0.0
C3559 C 0.04369 0.16203 0.61838 0.0
C3560 C 0.03162 0.1484 0.6143 0.0
C3561 C 0.06749 0.18616 0.62701 0.0
C3562 C 0.05886 0.17748 0.63953 0.0
C3563 C 0.04672 0.1659 0.63504 0.0
C3564 C 0.06414 0.17833 0.65706 0.0
C3565 C 0.08113 0.19828 0.63098 0.0
C3566 C 0.07065 0.1641 0.66455 0.0
C3567 C 0.07843 0.16509 0.6799 0.0
C3568 C 0.07992 0.18037 0.68802 0.0
C3569 C 0.07231 0.19439 0.68112 0.0
C3570 C 0.06436 0.19335 0.66577 0.0
H3571 H 0.08847 0.20166 0.61987 0.0
H3572 H 0.07566 0.20978 0.63608 0.0
H3573 H 0.08967 0.19307 0.64039 0.0
H3574 H 0.07055 0.15236 0.65809 0.0
H3575 H 0.08408 0.15404 0.68494 0.0
H3576 H 0.08264 0.84394 0.93692 0.0
H3577 H 0.08439 0.83216 0.90928 0.0
H3578 H 0.03415 0.81474 0.91325 0.0
H3579 H 0.03216 0.8269 0.94102 0.0
H3580 H 0.08017 0.80071 0.89646 0.0
H3581 H 0.03285 0.84463 0.87241 0.0
H3582 H 0.04202 0.84695 0.8926 0.0
H3583 H 0.02665 0.83133 0.88909 0.0
C3584 C 0.072 0.83744 0.93203 0.0
C3585 C 0.0572 0.8365 0.94106 0.0
C3586 C 0.07304 0.83067 0.91623 0.0
C3587 C 0.05932 0.82281 0.90912 0.0
C3588 C 0.04478 0.82102 0.91842 0.0
H3589 H 0.08162 0.78575 0.80868 0.0
H3590 H 0.0692 0.7857 0.83636 0.0
C3591 C 0.0437 0.82787 0.9343 0.0
C3592 C 0.06024 0.81763 0.89158 0.0
H3593 H 0.04715 0.82866 0.853 0.0
C3594 C 0.07275 0.80654 0.88693 0.0
C3595 C 0.05059 0.8254 0.87922 0.0
C3596 C 0.03733 0.83783 0.88347 0.0
C3597 C 0.07654 0.80373 0.87024 0.0
C3598 C 0.06728 0.81197 0.85788 0.0
C3599 C 0.05414 0.82231 0.86252 0.0
C3600 C 0.07257 0.81195 0.84035 0.0
C3601 C 0.09116 0.79291 0.86603 0.0
C3602 C 0.07781 0.82683 0.83313 0.0
C3603 C 0.0847 0.82692 0.81734 0.0
C3604 C 0.08651 0.81212 0.80845 0.0
C3605 C 0.08047 0.79733 0.81531 0.0
C3606 C 0.07347 0.79726 0.83114 0.0
H3607 H 0.09867 0.7898 0.8771 0.0
H3608 H 0.08668 0.78117 0.86051 0.0
H3609 H 0.09927 0.7991 0.85685 0.0
H3610 H 0.07719 0.83831 0.84001 0.0
H3611 H 0.08918 0.83852 0.81237 0.0
H3612 H 0.41925 0.83591 0.05709 0.0
H3613 H 0.4185 0.82341 0.08441 0.0
H3614 H 0.4693 0.80804 0.07908 0.0
H3615 H 0.47027 0.82099 0.05159 0.0
H3616 H 0.42389 0.79187 0.09599 0.0
H3617 H 0.47036 0.83617 0.12103 0.0
H3618 H 0.46096 0.83898 0.10101 0.0
H3619 H 0.47657 0.82346 0.10388 0.0
C3620 C 0.43025 0.82974 0.06162 0.0
C3621 C 0.44488 0.82958 0.05227 0.0
C3622 C 0.42978 0.82255 0.07724 0.0
C3623 C 0.4439 0.81499 0.08388 0.0
C3624 C 0.45835 0.81406 0.07429 0.0
H3625 H 0.41878 0.77824 0.18383 0.0
H3626 H 0.43284 0.77742 0.15693 0.0
C3627 C 0.45885 0.82136 0.05857 0.0
C3628 C 0.44336 0.80919 0.10125 0.0
H3629 H 0.45577 0.82012 0.14008 0.0
C3630 C 0.4311 0.79773 0.10566 0.0
C3631 C 0.45279 0.81694 0.11379 0.0
C3632 C 0.46586 0.82965 0.10981 0.0
C3633 C 0.42709 0.79478 0.12227 0.0
C3634 C 0.43593 0.8032 0.13482 0.0
C3635 C 0.44906 0.81366 0.13042 0.0
C3636 C 0.42993 0.8036 0.15213 0.0
C3637 C 0.41255 0.78374 0.12617 0.0
C3638 C 0.42444 0.81868 0.1587 0.0
C3639 C 0.41665 0.81921 0.17404 0.0
C3640 C 0.41413 0.80464 0.18314 0.0
C3641 C 0.42045 0.78964 0.17702 0.0
C3642 C 0.42839 0.78914 0.16163 0.0
H3643 H 0.40547 0.7803 0.11491 0.0
H3644 H 0.41705 0.7722 0.13205 0.0
H3645 H 0.404 0.78994 0.13494 0.0
H3646 H 0.42552 0.83 0.1516 0.0
H3647 H 0.412 0.83098 0.17845 0.0
H3648 H 0.43558 0.47049 0.16749 0.0
H3649 H 0.40824 0.4659 0.17995 0.0
H3650 H 0.41066 0.41443 0.1662 0.0
H3651 H 0.43775 0.41888 0.15381 0.0
H3652 H 0.38053 0.45419 0.16201 0.0
H3653 H 0.39487 0.41276 0.2145 0.0
H3654 H 0.41033 0.42561 0.20473 0.0
H3655 H 0.40451 0.40615 0.19564 0.0
C3656 C 0.43037 0.45815 0.16742 0.0
C3657 C 0.43876 0.44504 0.15967 0.0
C3658 C 0.41479 0.45556 0.17451 0.0
C3659 C 0.40756 0.43978 0.1742 0.0
C3660 C 0.41616 0.42662 0.16689 0.0
H3661 H 0.31485 0.39737 0.16216 0.0
H3662 H 0.34126 0.41185 0.16075 0.0
C3663 C 0.4316 0.42922 0.1597 0.0
C3664 C 0.39039 0.43712 0.17992 0.0
H3665 H 0.36706 0.41114 0.20357 0.0
C3666 C 0.37755 0.44508 0.17138 0.0
C3667 C 0.38653 0.42536 0.19227 0.0
C3668 C 0.3998 0.4171 0.20243 0.0
C3669 C 0.36099 0.44065 0.17399 0.0
C3670 C 0.35725 0.42787 0.18531 0.0
C3671 C 0.36998 0.42083 0.19477 0.0
C3672 C 0.34061 0.42033 0.18612 0.0
C3673 C 0.34768 0.44925 0.16416 0.0
C3674 C 0.33156 0.42015 0.20093 0.0
C3675 C 0.31639 0.41186 0.20177 0.0
C3676 C 0.31022 0.40343 0.18788 0.0
C3677 C 0.31926 0.40378 0.17306 0.0
C3678 C 0.3343 0.41215 0.1722 0.0
H3679 H 0.3517 0.46176 0.16016 0.0
H3680 H 0.34494 0.4419 0.1529 0.0
H3681 H 0.3361 0.45042 0.17145 0.0
H3682 H 0.33633 0.42627 0.21185 0.0
H3683 H 0.3097 0.41171 0.21337 0.0
H3684 H 0.83781 0.93595 0.07427 0.0
H3685 H 0.82503 0.90878 0.07372 0.0
H3686 H 0.815 0.91425 0.0216 0.0
H3687 H 0.82828 0.94162 0.022 0.0
H3688 H 0.79389 0.8979 0.06502 0.0
H3689 H 0.84236 0.87172 0.02357 0.0
H3690 H 0.84465 0.89172 0.03315 0.0
H3691 H 0.83059 0.88908 0.01618 0.0
C3692 C 0.83279 0.93149 0.06269 0.0
C3693 C 0.83419 0.94084 0.04814 0.0
C3694 C 0.82541 0.91595 0.0624 0.0
C3695 C 0.81924 0.90941 0.04759 0.0
C3696 C 0.81993 0.91898 0.03311 0.0
H3697 H 0.7813 0.81047 0.07394 0.0
H3698 H 0.78115 0.83616 0.05774 0.0
C3699 C 0.82742 0.93462 0.03338 0.0
C3700 C 0.81312 0.89215 0.0476 0.0
H3701 H 0.82534 0.85305 0.03751 0.0
C3702 C 0.80044 0.88805 0.0587 0.0
C3703 C 0.82174 0.87939 0.03929 0.0
C3704 C 0.83566 0.88307 0.02743 0.0
C3705 C 0.79719 0.87155 0.06295 0.0
C3706 C 0.80658 0.85881 0.05546 0.0
C3707 C 0.81818 0.86286 0.0432 0.0
C3708 C 0.80688 0.84186 0.06242 0.0
C3709 C 0.78483 0.86807 0.07649 0.0
C3710 C 0.8216 0.83608 0.06955 0.0
C3711 C 0.82178 0.82139 0.07854 0.0
C3712 C 0.8072 0.81221 0.08066 0.0
C3713 C 0.79268 0.81741 0.07263 0.0
C3714 C 0.79255 0.8321 0.06346 0.0
H3715 H 0.78046 0.87955 0.08264 0.0
H3716 H 0.77392 0.86169 0.07117 0.0
H3717 H 0.79032 0.85987 0.08604 0.0
H3718 H 0.83281 0.84337 0.06889 0.0
H3719 H 0.83319 0.81767 0.08448 0.0
H3720 H 0.18914 0.57519 0.7067 0.0
H3721 H 0.1622 0.56159 0.70362 0.0
H3722 H 0.15806 0.58121 0.65419 0.0
H3723 H 0.18492 0.59446 0.65704 0.0
H3724 H 0.13326 0.5772 0.69899 0.0
H3725 H 0.14309 0.53436 0.64693 0.0
H3726 H 0.16007 0.54347 0.65821 0.0
H3727 H 0.15028 0.55461 0.64156 0.0
C3728 C 0.18262 0.57628 0.69508 0.0
C3729 C 0.18911 0.58587 0.68212 0.0
C3730 C 0.16724 0.56853 0.69333 0.0
C3731 C 0.15824 0.57015 0.67857 0.0
C3732 C 0.16496 0.57938 0.66551 0.0
H3733 H 0.06051 0.58669 0.6539 0.0
H3734 H 0.08801 0.58566 0.66609 0.0
C3735 C 0.18027 0.58708 0.66723 0.0
C3736 C 0.14108 0.5639 0.67724 0.0
H3737 H 0.11495 0.54487 0.65019 0.0
C3738 C 0.1293 0.56976 0.68855 0.0
C3739 C 0.13591 0.5539 0.66386 0.0
C3740 C 0.14807 0.54608 0.65208 0.0
C3741 C 0.11235 0.56712 0.686 0.0
C3742 C 0.1071 0.55871 0.67159 0.0
C3743 C 0.11895 0.55158 0.6611 0.0
C3744 C 0.08964 0.55893 0.66608 0.0
C3745 C 0.10024 0.57384 0.69848 0.0
C3746 C 0.08143 0.54424 0.66182 0.0
C3747 C 0.06569 0.54479 0.65465 0.0
C3748 C 0.05802 0.56008 0.65153 0.0
C3749 C 0.06607 0.57471 0.65624 0.0
C3750 C 0.08175 0.57415 0.66336 0.0
H3751 H 0.10576 0.57405 0.71106 0.0
H3752 H 0.09704 0.58677 0.69515 0.0
H3753 H 0.08871 0.56641 0.69883 0.0
H3754 H 0.08737 0.53237 0.66368 0.0
H3755 H 0.05979 0.53333 0.65109 0.0
H3756 H 0.67321 0.93035 0.91543 0.0
H3757 H 0.68868 0.9044 0.91487 0.0
H3758 H 0.68173 0.89893 0.96743 0.0
H3759 H 0.66622 0.92504 0.96812 0.0
H3760 H 0.71776 0.8912 0.93542 0.0
H3761 H 0.65726 0.859 0.94308 0.0
H3762 H 0.65848 0.88023 0.9363 0.0
H3763 H 0.66263 0.87512 0.95747 0.0
C3764 C 0.67525 0.92381 0.92693 0.0
C3765 C 0.66838 0.92962 0.9418 0.0
C3766 C 0.68415 0.90903 0.9266 0.0
C3767 C 0.68623 0.89976 0.94108 0.0
C3768 C 0.68021 0.90595 0.95613 0.0
H3769 H 0.70282 0.79378 0.93349 0.0
H3770 H 0.70114 0.82082 0.94695 0.0
C3771 C 0.67138 0.92085 0.9565 0.0
C3772 C 0.69292 0.88279 0.93986 0.0
H3773 H 0.68022 0.84275 0.9368 0.0
C3774 C 0.70967 0.88052 0.936 0.0
C3775 C 0.68231 0.86895 0.94069 0.0
C3776 C 0.66414 0.8708 0.94453 0.0
C3777 C 0.71601 0.86473 0.93246 0.0
C3778 C 0.70517 0.85098 0.93232 0.0
C3779 C 0.68858 0.85323 0.93694 0.0
C3780 C 0.71006 0.83452 0.92576 0.0
C3781 C 0.7342 0.86301 0.92875 0.0
C3782 C 0.71628 0.8331 0.9096 0.0
C3783 C 0.71752 0.81763 0.902 0.0
C3784 C 0.7122 0.80333 0.91029 0.0
C3785 C 0.707 0.80461 0.92681 0.0
C3786 C 0.706 0.82006 0.93449 0.0
H3787 H 0.74151 0.87246 0.93552 0.0
H3788 H 0.7389 0.85055 0.9321 0.0
H3789 H 0.73627 0.86503 0.91534 0.0
H3790 H 0.71908 0.84403 0.90239 0.0
H3791 H 0.72143 0.81706 0.8892 0.0
H3792 H 0.77306 0.18721 0.42189 0.0
H3793 H 0.77368 0.15945 0.43409 0.0
H3794 H 0.82699 0.16117 0.43503 0.0
H3795 H 0.82642 0.18882 0.42332 0.0
H3796 H 0.78631 0.13403 0.41816 0.0
H3797 H 0.81865 0.13812 0.4778 0.0
H3798 H 0.81001 0.15613 0.46778 0.0
H3799 H 0.83045 0.1489 0.46249 0.0
C3800 C 0.78486 0.18187 0.42527 0.0
C3801 C 0.7997 0.19013 0.42157 0.0
C3802 C 0.78521 0.166 0.4322 0.0
C3803 C 0.80038 0.15825 0.43565 0.0
C3804 C 0.81512 0.16698 0.43291 0.0
H3805 H 0.84048 0.06783 0.4122 0.0
H3806 H 0.82575 0.09402 0.41418 0.0
C3807 C 0.81478 0.18278 0.42605 0.0
C3808 C 0.80118 0.14031 0.4394 0.0
H3809 H 0.8233 0.11243 0.46204 0.0
C3810 C 0.79401 0.12928 0.42807 0.0
C3811 C 0.81092 0.13398 0.45248 0.0
C3812 C 0.81777 0.14495 0.46591 0.0
C3813 C 0.79762 0.11233 0.42852 0.0
C3814 C 0.80898 0.10634 0.44039 0.0
C3815 C 0.81485 0.11707 0.45271 0.0
C3816 C 0.81652 0.0897 0.43894 0.0
C3817 C 0.78974 0.10113 0.41586 0.0
C3818 C 0.81649 0.07864 0.45232 0.0
C3819 C 0.82508 0.06363 0.45126 0.0
C3820 C 0.83394 0.05958 0.43686 0.0
C3821 C 0.83369 0.07056 0.42342 0.0
C3822 C 0.82515 0.08549 0.42449 0.0
H3823 H 0.77736 0.10581 0.41219 0.0
H3824 H 0.79756 0.10084 0.40459 0.0
H3825 H 0.78841 0.08832 0.4206 0.0
H3826 H 0.81006 0.08173 0.46365 0.0
H3827 H 0.82512 0.05543 0.46184 0.0
H3828 H 0.71356 0.17627 0.58982 0.0
H3829 H 0.70869 0.14962 0.5765 0.0
H3830 H 0.66073 0.16646 0.56024 0.0
H3831 H 0.66529 0.19288 0.57419 0.0
H3832 H 0.65775 0.13935 0.57665 0.0
H3833 H 0.70794 0.12959 0.53147 0.0
H3834 H 0.7162 0.13486 0.55134 0.0
H3835 H 0.70364 0.14963 0.54035 0.0
C3836 C 0.70218 0.17444 0.583 0.0
C3837 C 0.68975 0.18656 0.58313 0.0
C3838 C 0.69945 0.15922 0.57527 0.0
C3839 C 0.68439 0.15603 0.5672 0.0
C3840 C 0.67245 0.16863 0.56636 0.0
H3841 H 0.65636 0.05841 0.52771 0.0
H3842 H 0.66553 0.08738 0.52886 0.0
C3843 C 0.67506 0.18371 0.57434 0.0
C3844 C 0.68007 0.13894 0.56207 0.0
H3845 H 0.69454 0.10474 0.54184 0.0
C3846 C 0.66568 0.13193 0.56877 0.0
C3847 C 0.69029 0.12921 0.55169 0.0
C3848 C 0.70528 0.13629 0.54317 0.0
C3849 C 0.66161 0.11535 0.56602 0.0
C3850 C 0.67246 0.10531 0.55669 0.0
C3851 C 0.68643 0.11242 0.54926 0.0
C3852 C 0.66965 0.0873 0.55529 0.0
C3853 C 0.64581 0.10865 0.57336 0.0
C3854 C 0.66967 0.07756 0.56963 0.0
C3855 C 0.66435 0.06119 0.56904 0.0
C3856 C 0.65912 0.05418 0.55404 0.0
C3857 C 0.66033 0.06353 0.53943 0.0
C3858 C 0.66554 0.08005 0.54007 0.0
H3859 H 0.63679 0.11869 0.57596 0.0
H3860 H 0.63992 0.09952 0.56496 0.0
H3861 H 0.64865 0.10237 0.58522 0.0
H3862 H 0.67309 0.08288 0.58145 0.0
H3863 H 0.6637 0.05422 0.58046 0.0
H3864 H 0.0582 0.4742 0.82674 0.0
H3865 H 0.08432 0.47526 0.81134 0.0
H3866 H 0.08725 0.422 0.81293 0.0
H3867 H 0.06119 0.42087 0.8277 0.0
H3868 H 0.11266 0.46626 0.82354 0.0
H3869 H 0.10379 0.42931 0.76739 0.0
H3870 H 0.08649 0.43696 0.77925 0.0
H3871 H 0.0962 0.41754 0.7845 0.0
C3872 C 0.06418 0.46272 0.82329 0.0
C3873 C 0.05769 0.44745 0.82847 0.0
C3874 C 0.07911 0.46334 0.81453 0.0
C3875 C 0.08769 0.44871 0.81073 0.0
C3876 C 0.08071 0.43346 0.8152 0.0
H3877 H 0.18053 0.41549 0.82769 0.0
H3878 H 0.15461 0.4306 0.82678 0.0
C3879 C 0.06583 0.43283 0.82385 0.0
C3880 C 0.10498 0.44913 0.80458 0.0
H3881 H 0.13144 0.42686 0.78049 0.0
C3882 C 0.11673 0.45804 0.81376 0.0
C3883 C 0.11041 0.43883 0.79152 0.0
C3884 C 0.09847 0.4303 0.78001 0.0
C3885 C 0.13372 0.45545 0.81147 0.0
C3886 C 0.13905 0.44332 0.80006 0.0
C3887 C 0.12739 0.43587 0.78956 0.0
C3888 C 0.15599 0.43629 0.80064 0.0
C3889 C 0.14573 0.4652 0.82188 0.0
C3890 C 0.16543 0.43423 0.7862 0.0
C3891 C 0.18029 0.42532 0.78666 0.0
C3892 C 0.18582 0.41824 0.80154 0.0
C3893 C 0.17665 0.42085 0.81604 0.0
C3894 C 0.16187 0.42966 0.81557 0.0
H3895 H 0.14093 0.47785 0.82426 0.0
H3896 H 0.14723 0.45903 0.83405 0.0
H3897 H 0.15803 0.46618 0.81587 0.0
H3898 H 0.16105 0.43908 0.77451 0.0
H3899 H 0.18708 0.42343 0.77527 0.0
H3900 H 0.31547 0.59188 0.33667 0.0
H3901 H 0.34291 0.5796 0.33659 0.0
H3902 H 0.3421 0.57755 0.28329 0.0
H3903 H 0.31454 0.59037 0.28326 0.0
H3904 H 0.35596 0.55069 0.32471 0.0
H3905 H 0.38301 0.60533 0.29259 0.0
H3906 H 0.36221 0.60545 0.30058 0.0
H3907 H 0.36691 0.5943 0.28196 0.0
C3908 C 0.32102 0.58869 0.3249 0.0
C3909 C 0.31294 0.59227 0.30995 0.0
C3910 C 0.3367 0.5816 0.32489 0.0
C3911 C 0.34466 0.57788 0.30994 0.0
C3912 C 0.3363 0.58061 0.29496 0.0
H3913 H 0.44448 0.53789 0.33159 0.0
H3914 H 0.41791 0.53964 0.31696 0.0
C3915 C 0.32054 0.58784 0.29496 0.0
C3916 C 0.3621 0.5723 0.31047 0.0
H3917 H 0.40138 0.58631 0.30413 0.0
C3918 C 0.36595 0.55824 0.31991 0.0
C3919 C 0.37506 0.58224 0.30421 0.0
C3920 C 0.3717 0.59774 0.29435 0.0
C3921 C 0.38231 0.55457 0.32435 0.0
C3922 C 0.39519 0.56503 0.31882 0.0
C3923 C 0.39146 0.57833 0.30831 0.0
C3924 C 0.41202 0.56415 0.326 0.0
C3925 C 0.38552 0.54033 0.33599 0.0
C3926 C 0.41777 0.57755 0.33538 0.0
C3927 C 0.43291 0.57665 0.34354 0.0
C3928 C 0.44263 0.5623 0.34253 0.0
C3929 C 0.43718 0.54906 0.33266 0.0
C3930 C 0.42199 0.55001 0.32438 0.0
H3931 H 0.3739 0.53506 0.34107 0.0
H3932 H 0.39214 0.53037 0.32928 0.0
H3933 H 0.39343 0.54436 0.34647 0.0
H3934 H 0.41029 0.58857 0.33682 0.0
H3935 H 0.43678 0.58708 0.351 0.0
H3936 H 0.96158 0.65532 0.93418 0.0
H3937 H 0.95624 0.6664 0.90654 0.0
H3938 H 0.90688 0.68002 0.9215 0.0
H3939 H 0.91199 0.66847 0.94893 0.0
H3940 H 0.90657 0.65999 0.89557 0.0
H3941 H 0.95123 0.71049 0.88355 0.0
H3942 H 0.96097 0.69189 0.89072 0.0
H3943 H 0.94699 0.70285 0.90411 0.0
C3944 C 0.94979 0.66117 0.93171 0.0
C3945 C 0.93714 0.66093 0.94361 0.0
C3946 C 0.94677 0.66757 0.91592 0.0
C3947 C 0.93117 0.67411 0.91195 0.0
C3948 C 0.919 0.67503 0.92429 0.0
H3949 H 0.89516 0.70986 0.8169 0.0
H3950 H 0.9061 0.70843 0.84514 0.0
C3951 C 0.92193 0.66844 0.93995 0.0
C3952 C 0.92665 0.67749 0.89451 0.0
H3953 H 0.93779 0.69876 0.85975 0.0
C3954 C 0.91332 0.66862 0.88782 0.0
C3955 C 0.93542 0.68874 0.8844 0.0
C3956 C 0.94935 0.69916 0.8911 0.0
C3957 C 0.90867 0.67046 0.87126 0.0
C3958 C 0.91786 0.68117 0.86096 0.0
C3959 C 0.93095 0.69037 0.86766 0.0
C3960 C 0.91377 0.68288 0.84323 0.0
C3961 C 0.89389 0.66096 0.86495 0.0
C3962 C 0.91505 0.66916 0.83269 0.0
C3963 C 0.90874 0.6699 0.81665 0.0
C3964 C 0.90116 0.68442 0.81086 0.0
C3965 C 0.90089 0.69849 0.82107 0.0
C3966 C 0.90715 0.69771 0.83717 0.0
H3967 H 0.88587 0.65658 0.87522 0.0
H3968 H 0.88633 0.66869 0.85648 0.0
H3969 H 0.89821 0.64996 0.85798 0.0
H3970 H 0.92033 0.65767 0.83711 0.0
H3971 H 0.90925 0.65891 0.80901 0.0
H3972 H 0.52818 0.63327 0.07223 0.0
H3973 H 0.53166 0.64359 0.10043 0.0
H3974 H 0.56084 0.68425 0.08202 0.0
H3975 H 0.55773 0.67378 0.05386 0.0
H3976 H 0.57736 0.66548 0.10405 0.0
H3977 H 0.51585 0.68131 0.12971 0.0
H3978 H 0.51651 0.66121 0.12031 0.0
H3979 H 0.51958 0.67931 0.10777 0.0
C3980 C 0.53488 0.6447 0.07415 0.0
C3981 C 0.54282 0.65264 0.06089 0.0
C3982 C 0.53678 0.65065 0.09027 0.0
C3983 C 0.54644 0.66474 0.09333 0.0
C3984 C 0.55331 0.67337 0.07993 0.0
H3985 H 0.5824 0.70451 0.18705 0.0
H3986 H 0.56742 0.70177 0.1608 0.0
C3987 C 0.55153 0.66737 0.06385 0.0
C3988 C 0.5517 0.66882 0.1104 0.0
H3989 H 0.53775 0.67703 0.14944 0.0
C3990 C 0.56869 0.66825 0.11389 0.0
C3991 C 0.54038 0.67236 0.12326 0.0
C3992 C 0.52207 0.67375 0.12007 0.0
C3993 C 0.57464 0.67069 0.12995 0.0
C3994 C 0.5633 0.6736 0.14289 0.0
C3995 C 0.54635 0.67465 0.13944 0.0
C3996 C 0.56918 0.6751 0.16009 0.0
C3997 C 0.59302 0.66985 0.13306 0.0
C3998 C 0.57459 0.66096 0.16851 0.0
C3999 C 0.58317 0.66247 0.18339 0.0
C4000 C 0.58647 0.67817 0.19008 0.0
C4001 C 0.58005 0.69227 0.18217 0.0
C4002 C 0.57146 0.69073 0.16723 0.0
H4003 H 0.60026 0.6701 0.12139 0.0
H4004 H 0.59704 0.68032 0.14097 0.0
H4005 H 0.59597 0.65821 0.13971 0.0
H4006 H 0.57293 0.64881 0.16311 0.0
H4007 H 0.58789 0.65139 0.18924 0.0
H4008 H 0.59408 0.28136 0.30942 0.0
H4009 H 0.58039 0.2785 0.33637 0.0
H4010 H 0.57764 0.33164 0.34043 0.0
H4011 H 0.59076 0.33453 0.31358 0.0
H4012 H 0.59237 0.28834 0.36496 0.0
H4013 H 0.53272 0.3197 0.35672 0.0
H4014 H 0.54516 0.31327 0.33932 0.0
H4015 H 0.54871 0.33299 0.34915 0.0
C4016 C 0.59017 0.29238 0.31592 0.0
C4017 C 0.59348 0.30816 0.30941 0.0
C4018 C 0.58236 0.29075 0.3313 0.0
C4019 C 0.57768 0.30485 0.3403 0.0
C4020 C 0.58061 0.32056 0.33353 0.0
H4021 H 0.59054 0.33756 0.43421 0.0
H4022 H 0.59153 0.32304 0.40796 0.0
C4023 C 0.5883 0.32219 0.31821 0.0
C4024 C 0.57173 0.30355 0.3576 0.0
H4025 H 0.54531 0.3225 0.3844 0.0
C4026 C 0.58177 0.2954 0.36918 0.0
C4027 C 0.55764 0.31229 0.36318 0.0
C4028 C 0.54536 0.31987 0.35136 0.0
C4029 C 0.57915 0.29731 0.38621 0.0
C4030 C 0.56646 0.308 0.39176 0.0
C4031 C 0.5553 0.3146 0.38021 0.0
C4032 C 0.56614 0.31458 0.40887 0.0
C4033 C 0.59047 0.28842 0.39806 0.0
C4034 C 0.55146 0.31488 0.41816 0.0
C4035 C 0.55078 0.32345 0.43319 0.0
C4036 C 0.56477 0.33195 0.43907 0.0
C4037 C 0.57957 0.33109 0.43006 0.0
C4038 C 0.58021 0.32261 0.41509 0.0
H4039 H 0.59422 0.27622 0.39297 0.0
H4040 H 0.6019 0.29581 0.39982 0.0
H4041 H 0.58454 0.28647 0.41029 0.0
H4042 H 0.5404 0.30892 0.41352 0.0
H4043 H 0.5392 0.32396 0.43987 0.0
H4044 H 0.92413 0.27473 0.68763 0.0
H4045 H 0.93796 0.27461 0.66061 0.0
H4046 H 0.93334 0.32772 0.65822 0.0
H4047 H 0.92017 0.32795 0.68515 0.0
H4048 H 0.9242 0.28309 0.63279 0.0
H4049 H 0.97851 0.323 0.63991 0.0
H4050 H 0.96775 0.3146 0.65757 0.0
H4051 H 0.9611 0.33378 0.64826 0.0
C4052 C 0.92656 0.28639 0.68153 0.0
C4053 C 0.92105 0.30134 0.68848 0.0
C4054 C 0.93442 0.28631 0.66609 0.0
C4055 C 0.93696 0.30118 0.65745 0.0
C4056 C 0.93205 0.31613 0.66479 0.0
H4057 H 0.91522 0.33321 0.56466 0.0
H4058 H 0.91754 0.31782 0.59033 0.0
C4059 C 0.92433 0.31622 0.68017 0.0
C4060 C 0.94242 0.30122 0.63992 0.0
H4061 H 0.96429 0.32492 0.61283 0.0
C4062 C 0.93334 0.29188 0.62844 0.0
C4063 C 0.95469 0.31224 0.63411 0.0
C4064 C 0.96617 0.32129 0.64569 0.0
C4065 C 0.93492 0.29463 0.61139 0.0
C4066 C 0.94544 0.30742 0.60573 0.0
C4067 C 0.95587 0.3154 0.6171 0.0
C4068 C 0.94407 0.31438 0.5888 0.0
C4069 C 0.92478 0.28424 0.59969 0.0
C4070 C 0.95822 0.3178 0.57932 0.0
C4071 C 0.95696 0.32698 0.56468 0.0
C4072 C 0.9415 0.33287 0.55932 0.0
C4073 C 0.9273 0.32875 0.5684 0.0
C4074 C 0.92858 0.31976 0.58304 0.0
H4075 H 0.92353 0.27142 0.60446 0.0
H4076 H 0.91214 0.2895 0.59874 0.0
H4077 H 0.93035 0.28375 0.58715 0.0
H4078 H 0.97032 0.31391 0.58356 0.0
H4079 H 0.96811 0.33 0.55796 0.0
loop_
_geom_bond_atom_site_label_1
_geom_bond_atom_site_label_2
_geom_bond_distance
_geom_bond_site_symmetry_2
_ccdc_geom_bond_type
In0 O1 2.294 . S
In0 O2 2.326 . S
In0 O6 2.266 . S
In0 O7 2.326 . S
In0 O8 2.266 . S
In0 O9 2.326 . S
In0 O11 2.294 . S
In0 O12 2.326 . S
O1 In0 2.294 . S
O1 C10 1.240 . S
O2 In0 2.326 . S
O2 C10 1.252 . S
C3 O6 1.252 . S
C3 O7 1.260 . S
C4 O11 1.240 . S
C4 O12 1.252 . S
C5 O8 1.252 . S
C5 O9 1.260 . S
O6 In0 2.266 . S
O6 C3 1.252 . S
O7 In0 2.326 . S
O7 C3 1.260 . S
O8 In0 2.266 . S
O8 C5 1.252 . S
O9 In0 2.326 . S
O9 C5 1.260 . S
C10 O1 1.240 . S
C10 O2 1.252 . S
O11 In0 2.294 . S
O11 C4 1.240 . S
O12 In0 2.326 . S
O12 C4 1.252 . S
In13 O14 2.294 . S
In13 O15 2.326 . S
In13 O19 2.266 . S
In13 O20 2.326 . S
In13 O21 2.266 . S
In13 O22 2.309 1_655 S
In13 O24 2.294 . S
In13 O25 2.326 . S
O14 In13 2.294 . S
O14 C23 1.240 . S
O15 In13 2.326 . S
O15 C23 1.252 . S
C16 O19 1.252 . S
C16 O20 1.260 . S
C17 O24 1.240 . S
C17 O25 1.252 . S
C18 O21 1.252 . S
C18 O22 1.253 1_655 S
O19 In13 2.266 . S
O19 C16 1.252 . S
O20 In13 2.326 . S
O20 C16 1.260 . S
O21 In13 2.266 . S
O21 C18 1.252 . S
O22 In13 2.309 1_455 S
O22 C18 1.253 1_455 S
C23 O14 1.240 . S
C23 O15 1.252 . S
O24 In13 2.294 . S
O24 C17 1.240 . S
O25 In13 2.326 . S
O25 C17 1.252 . S
In26 O27 2.294 . S
In26 O28 2.326 . S
In26 O32 2.266 . S
In26 O33 2.326 . S
In26 O34 2.266 . S
In26 O35 2.326 . S
In26 O37 2.294 . S
In26 O38 2.326 . S
O27 In26 2.294 . S
O27 C36 1.240 . S
O28 In26 2.326 . S
O28 C36 1.252 . S
C29 O32 1.252 . S
C29 O33 1.260 . S
C30 O37 1.240 . S
C30 O38 1.252 . S
C31 O34 1.252 . S
C31 O35 1.260 . S
O32 In26 2.266 . S
O32 C29 1.252 . S
O33 In26 2.326 . S
O33 C29 1.260 . S
O34 In26 2.266 . S
O34 C31 1.252 . S
O35 In26 2.326 . S
O35 C31 1.260 . S
C36 O27 1.240 . S
C36 O28 1.252 . S
O37 In26 2.294 . S
O37 C30 1.240 . S
O38 In26 2.326 . S
O38 C30 1.252 . S
In39 O40 2.294 . S
In39 O41 2.326 . S
In39 O45 2.266 . S
In39 O46 2.326 . S
In39 O47 2.266 . S
In39 O48 2.326 . S
In39 O50 2.294 . S
In39 O51 2.326 . S
O40 In39 2.294 . S
O40 C49 1.240 . S
O41 In39 2.326 . S
O41 C49 1.252 . S
C42 O45 1.252 . S
C42 O46 1.260 . S
C43 O50 1.240 . S
C43 O51 1.252 . S
C44 O47 1.252 . S
C44 O48 1.260 . S
O45 In39 2.266 . S
O45 C42 1.252 . S
O46 In39 2.326 . S
O46 C42 1.260 . S
O47 In39 2.266 . S
O47 C44 1.252 . S
O48 In39 2.326 . S
O48 C44 1.260 . S
C49 O40 1.240 . S
C49 O41 1.252 . S
O50 In39 2.294 . S
O50 C43 1.240 . S
O51 In39 2.326 . S
O51 C43 1.252 . S
In52 O53 2.294 . S
In52 O54 2.326 . S
In52 O58 2.266 . S
In52 O59 2.326 . S
In52 O60 2.266 . S
In52 O61 2.326 . S
In52 O63 2.294 . S
In52 O64 2.326 . S
O53 In52 2.294 . S
O53 C62 1.240 . S
O54 In52 2.326 . S
O54 C62 1.252 . S
C55 O58 1.252 . S
C55 O59 1.260 . S
C56 O63 1.240 . S
C56 O64 1.252 . S
C57 O60 1.252 . S
C57 O61 1.260 . S
O58 In52 2.266 . S
O58 C55 1.252 . S
O59 In52 2.326 . S
O59 C55 1.260 . S
O60 In52 2.266 . S
O60 C57 1.252 . S
O61 In52 2.326 . S
O61 C57 1.260 . S
C62 O53 1.240 . S
C62 O54 1.252 . S
O63 In52 2.294 . S
O63 C56 1.240 . S
O64 In52 2.326 . S
O64 C56 1.252 . S
In65 O66 2.294 . S
In65 O67 2.326 . S
In65 O71 2.266 . S
In65 O72 2.326 . S
In65 O73 2.266 . S
In65 O74 2.326 . S
In65 O76 2.294 . S
In65 O77 2.326 . S
O66 In65 2.294 . S
O66 C75 1.240 . S
O67 In65 2.326 . S
O67 C75 1.252 . S
C68 O71 1.252 . S
C68 O72 1.260 . S
C69 O76 1.240 . S
C69 O77 1.252 . S
C70 O73 1.252 . S
C70 O74 1.260 . S
O71 In65 2.266 . S
O71 C68 1.252 . S
O72 In65 2.326 . S
O72 C68 1.260 . S
O73 In65 2.266 . S
O73 C70 1.252 . S
O74 In65 2.326 . S
O74 C70 1.260 . S
C75 O66 1.240 . S
C75 O67 1.252 . S
O76 In65 2.294 . S
O76 C69 1.240 . S
O77 In65 2.326 . S
O77 C69 1.252 . S
In78 O79 2.294 . S
In78 O80 2.326 . S
In78 O84 2.266 . S
In78 O85 2.326 . S
In78 O86 2.266 . S
In78 O87 2.326 . S
In78 O89 2.294 . S
In78 O90 2.326 . S
O79 In78 2.294 . S
O79 C88 1.240 . S
O80 In78 2.326 . S
O80 C88 1.252 . S
C81 O84 1.252 . S
C81 O85 1.260 . S
C82 O89 1.240 . S
C82 O90 1.252 . S
C83 O86 1.252 . S
C83 O87 1.260 . S
O84 In78 2.266 . S
O84 C81 1.252 . S
O85 In78 2.326 . S
O85 C81 1.260 . S
O86 In78 2.266 . S
O86 C83 1.252 . S
O87 In78 2.326 . S
O87 C83 1.260 . S
C88 O79 1.240 . S
C88 O80 1.252 . S
O89 In78 2.294 . S
O89 C82 1.240 . S
O90 In78 2.326 . S
O90 C82 1.252 . S
In91 O92 2.294 . S
In91 O93 2.326 . S
In91 O97 2.266 . S
In91 O98 2.326 . S
In91 O99 2.266 . S
In91 O100 2.310 1_655 S
In91 O102 2.294 . S
In91 O103 2.326 . S
O92 In91 2.294 . S
O92 C101 1.240 . S
O93 In91 2.326 . S
O93 C101 1.252 . S
C94 O97 1.252 . S
C94 O98 1.260 . S
C95 O102 1.240 . S
C95 O103 1.252 . S
C96 O99 1.252 . S
C96 O100 1.253 1_655 S
O97 In91 2.266 . S
O97 C94 1.252 . S
O98 In91 2.326 . S
O98 C94 1.260 . S
O99 In91 2.266 . S
O99 C96 1.252 . S
O100 In91 2.310 1_455 S
O100 C96 1.253 1_455 S
C101 O92 1.240 . S
C101 O93 1.252 . S
O102 In91 2.294 . S
O102 C95 1.240 . S
O103 In91 2.326 . S
O103 C95 1.252 . S
In104 O105 2.294 . S
In104 O106 2.326 . S
In104 O110 2.266 . S
In104 O111 2.326 . S
In104 O112 2.266 . S
In104 O113 2.326 . S
In104 O115 2.294 . S
In104 O116 2.326 . S
O105 In104 2.294 . S
O105 C114 1.240 . S
O106 In104 2.326 . S
O106 C114 1.252 . S
C107 O110 1.252 . S
C107 O111 1.260 . S
C108 O115 1.240 . S
C108 O116 1.252 . S
C109 O112 1.252 . S
C109 O113 1.260 . S
O110 In104 2.266 . S
O110 C107 1.252 . S
O111 In104 2.326 . S
O111 C107 1.260 . S
O112 In104 2.266 . S
O112 C109 1.252 . S
O113 In104 2.326 . S
O113 C109 1.260 . S
C114 O105 1.240 . S
C114 O106 1.252 . S
O115 In104 2.294 . S
O115 C108 1.240 . S
O116 In104 2.326 . S
O116 C108 1.252 . S
In117 O118 2.294 . S
In117 O119 2.326 . S
In117 O123 2.266 . S
In117 O124 2.326 . S
In117 O125 2.266 . S
In117 O126 2.326 . S
In117 O128 2.294 . S
In117 O129 2.326 . S
O118 In117 2.294 . S
O118 C127 1.240 . S
O119 In117 2.326 . S
O119 C127 1.252 . S
C120 O123 1.252 . S
C120 O124 1.260 . S
C121 O128 1.240 . S
C121 O129 1.252 . S
C122 O125 1.252 . S
C122 O126 1.260 . S
O123 In117 2.266 . S
O123 C120 1.252 . S
O124 In117 2.326 . S
O124 C120 1.260 . S
O125 In117 2.266 . S
O125 C122 1.252 . S
O126 In117 2.326 . S
O126 C122 1.260 . S
C127 O118 1.240 . S
C127 O119 1.252 . S
O128 In117 2.294 . S
O128 C121 1.240 . S
O129 In117 2.326 . S
O129 C121 1.252 . S
In130 O131 2.294 . S
In130 O132 2.326 . S
In130 O136 2.266 . S
In130 O137 2.326 . S
In130 O138 2.266 . S
In130 O139 2.326 . S
In130 O141 2.294 . S
In130 O142 2.326 . S
O131 In130 2.294 . S
O131 C140 1.240 . S
O132 In130 2.326 . S
O132 C140 1.252 . S
C133 O136 1.252 . S
C133 O137 1.260 . S
C134 O141 1.240 . S
C134 O142 1.252 . S
C135 O138 1.252 . S
C135 O139 1.260 . S
O136 In130 2.266 . S
O136 C133 1.252 . S
O137 In130 2.326 . S
O137 C133 1.260 . S
O138 In130 2.266 . S
O138 C135 1.252 . S
O139 In130 2.326 . S
O139 C135 1.260 . S
C140 O131 1.240 . S
C140 O132 1.252 . S
O141 In130 2.294 . S
O141 C134 1.240 . S
O142 In130 2.326 . S
O142 C134 1.252 . S
In143 O144 2.294 . S
In143 O145 2.326 . S
In143 O149 2.266 . S
In143 O150 2.309 1_554 S
In143 O151 2.266 . S
In143 O152 2.326 . S
In143 O154 2.294 . S
In143 O155 2.326 . S
O144 In143 2.294 . S
O144 C153 1.240 . S
O145 In143 2.326 . S
O145 C153 1.252 . S
C146 O149 1.252 . S
C146 O150 1.253 1_554 S
C147 O154 1.240 . S
C147 O155 1.252 . S
C148 O151 1.252 . S
C148 O152 1.260 . S
O149 In143 2.266 . S
O149 C146 1.252 . S
O150 In143 2.309 1_556 S
O150 C146 1.253 1_556 S
O151 In143 2.266 . S
O151 C148 1.252 . S
O152 In143 2.326 . S
O152 C148 1.260 . S
C153 O144 1.240 . S
C153 O145 1.252 . S
O154 In143 2.294 . S
O154 C147 1.240 . S
O155 In143 2.326 . S
O155 C147 1.252 . S
In156 O157 2.294 . S
In156 O158 2.326 . S
In156 O162 2.266 . S
In156 O163 2.326 . S
In156 O164 2.266 . S
In156 O165 2.326 . S
In156 O167 2.294 . S
In156 O168 2.326 . S
O157 In156 2.294 . S
O157 C166 1.240 . S
O158 In156 2.326 . S
O158 C166 1.252 . S
C159 O162 1.252 . S
C159 O163 1.260 . S
C160 O167 1.240 . S
C160 O168 1.252 . S
C161 O164 1.252 . S
C161 O165 1.260 . S
O162 In156 2.266 . S
O162 C159 1.252 . S
O163 In156 2.326 . S
O163 C159 1.260 . S
O164 In156 2.266 . S
O164 C161 1.252 . S
O165 In156 2.326 . S
O165 C161 1.260 . S
C166 O157 1.240 . S
C166 O158 1.252 . S
O167 In156 2.294 . S
O167 C160 1.240 . S
O168 In156 2.326 . S
O168 C160 1.252 . S
In169 O170 2.294 . S
In169 O171 2.326 . S
In169 O175 2.266 . S
In169 O176 2.326 . S
In169 O177 2.266 . S
In169 O178 2.326 . S
In169 O180 2.294 . S
In169 O181 2.326 . S
O170 In169 2.294 . S
O170 C179 1.240 . S
O171 In169 2.326 . S
O171 C179 1.252 . S
C172 O175 1.252 . S
C172 O176 1.260 . S
C173 O180 1.240 . S
C173 O181 1.252 . S
C174 O177 1.252 . S
C174 O178 1.260 . S
O175 In169 2.266 . S
O175 C172 1.252 . S
O176 In169 2.326 . S
O176 C172 1.260 . S
O177 In169 2.266 . S
O177 C174 1.252 . S
O178 In169 2.326 . S
O178 C174 1.260 . S
C179 O170 1.240 . S
C179 O171 1.252 . S
O180 In169 2.294 . S
O180 C173 1.240 . S
O181 In169 2.326 . S
O181 C173 1.252 . S
In182 O183 2.294 . S
In182 O184 2.326 . S
In182 O188 2.266 . S
In182 O189 2.326 . S
In182 O190 2.266 . S
In182 O191 2.326 . S
In182 O193 2.294 . S
In182 O194 2.326 . S
O183 In182 2.294 . S
O183 C192 1.240 . S
O184 In182 2.326 . S
O184 C192 1.252 . S
C185 O188 1.252 . S
C185 O189 1.260 . S
C186 O193 1.240 . S
C186 O194 1.252 . S
C187 O190 1.252 . S
C187 O191 1.260 . S
O188 In182 2.266 . S
O188 C185 1.252 . S
O189 In182 2.326 . S
O189 C185 1.260 . S
O190 In182 2.266 . S
O190 C187 1.252 . S
O191 In182 2.326 . S
O191 C187 1.260 . S
C192 O183 1.240 . S
C192 O184 1.252 . S
O193 In182 2.294 . S
O193 C186 1.240 . S
O194 In182 2.326 . S
O194 C186 1.252 . S
In195 O196 2.294 . S
In195 O197 2.326 . S
In195 O201 2.266 . S
In195 O202 2.326 . S
In195 O203 2.266 . S
In195 O204 2.310 1_556 S
In195 O206 2.294 . S
In195 O207 2.326 . S
O196 In195 2.294 . S
O196 C205 1.240 . S
O197 In195 2.326 . S
O197 C205 1.252 . S
C198 O201 1.252 . S
C198 O202 1.260 . S
C199 O206 1.240 . S
C199 O207 1.252 . S
C200 O203 1.252 . S
C200 O204 1.253 1_556 S
O201 In195 2.266 . S
O201 C198 1.252 . S
O202 In195 2.326 . S
O202 C198 1.260 . S
O203 In195 2.266 . S
O203 C200 1.252 . S
O204 In195 2.310 1_554 S
O204 C200 1.253 1_554 S
C205 O196 1.240 . S
C205 O197 1.252 . S
O206 In195 2.294 . S
O206 C199 1.240 . S
O207 In195 2.326 . S
O207 C199 1.252 . S
In208 O209 2.294 . S
In208 O210 2.326 . S
In208 O214 2.266 . S
In208 O215 2.326 . S
In208 O216 2.266 . S
In208 O217 2.326 . S
In208 O219 2.294 . S
In208 O220 2.326 . S
O209 In208 2.294 . S
O209 C218 1.240 . S
O210 In208 2.326 . S
O210 C218 1.252 . S
C211 O214 1.252 . S
C211 O215 1.260 . S
C212 O219 1.240 . S
C212 O220 1.252 . S
C213 O216 1.252 . S
C213 O217 1.260 . S
O214 In208 2.266 . S
O214 C211 1.252 . S
O215 In208 2.326 . S
O215 C211 1.260 . S
O216 In208 2.266 . S
O216 C213 1.252 . S
O217 In208 2.326 . S
O217 C213 1.260 . S
C218 O209 1.240 . S
C218 O210 1.252 . S
O219 In208 2.294 . S
O219 C212 1.240 . S
O220 In208 2.326 . S
O220 C212 1.252 . S
In221 O222 2.294 . S
In221 O223 2.326 . S
In221 O227 2.266 . S
In221 O228 2.326 . S
In221 O229 2.266 . S
In221 O230 2.326 . S
In221 O232 2.294 . S
In221 O233 2.326 . S
O222 In221 2.294 . S
O222 C231 1.240 . S
O223 In221 2.326 . S
O223 C231 1.252 . S
C224 O227 1.252 . S
C224 O228 1.260 . S
C225 O232 1.240 . S
C225 O233 1.252 . S
C226 O229 1.252 . S
C226 O230 1.260 . S
O227 In221 2.266 . S
O227 C224 1.252 . S
O228 In221 2.326 . S
O228 C224 1.260 . S
O229 In221 2.266 . S
O229 C226 1.252 . S
O230 In221 2.326 . S
O230 C226 1.260 . S
C231 O222 1.240 . S
C231 O223 1.252 . S
O232 In221 2.294 . S
O232 C225 1.240 . S
O233 In221 2.326 . S
O233 C225 1.252 . S
In234 O235 2.294 . S
In234 O236 2.326 . S
In234 O240 2.266 . S
In234 O241 2.326 . S
In234 O242 2.266 . S
In234 O243 2.326 . S
In234 O245 2.294 . S
In234 O246 2.326 . S
O235 In234 2.294 . S
O235 C244 1.240 . S
O236 In234 2.326 . S
O236 C244 1.252 . S
C237 O240 1.252 . S
C237 O241 1.260 . S
C238 O245 1.240 . S
C238 O246 1.252 . S
C239 O242 1.252 . S
C239 O243 1.260 . S
O240 In234 2.266 . S
O240 C237 1.252 . S
O241 In234 2.326 . S
O241 C237 1.260 . S
O242 In234 2.266 . S
O242 C239 1.252 . S
O243 In234 2.326 . S
O243 C239 1.260 . S
C244 O235 1.240 . S
C244 O236 1.252 . S
O245 In234 2.294 . S
O245 C238 1.240 . S
O246 In234 2.326 . S
O246 C238 1.252 . S
In247 O248 2.294 . S
In247 O249 2.326 . S
In247 O253 2.266 . S
In247 O254 2.326 . S
In247 O255 2.266 . S
In247 O256 2.326 . S
In247 O258 2.294 . S
In247 O259 2.326 . S
O248 In247 2.294 . S
O248 C257 1.240 . S
O249 In247 2.326 . S
O249 C257 1.252 . S
C250 O253 1.252 . S
C250 O254 1.260 . S
C251 O258 1.240 . S
C251 O259 1.252 . S
C252 O255 1.252 . S
C252 O256 1.260 . S
O253 In247 2.266 . S
O253 C250 1.252 . S
O254 In247 2.326 . S
O254 C250 1.260 . S
O255 In247 2.266 . S
O255 C252 1.252 . S
O256 In247 2.326 . S
O256 C252 1.260 . S
C257 O248 1.240 . S
C257 O249 1.252 . S
O258 In247 2.294 . S
O258 C251 1.240 . S
O259 In247 2.326 . S
O259 C251 1.252 . S
In260 O261 2.294 . S
In260 O262 2.326 . S
In260 O266 2.266 . S
In260 O267 2.310 1_565 S
In260 O268 2.266 . S
In260 O269 2.326 . S
In260 O271 2.294 . S
In260 O272 2.326 . S
O261 In260 2.294 . S
O261 C270 1.240 . S
O262 In260 2.326 . S
O262 C270 1.252 . S
C263 O266 1.252 . S
C263 O267 1.253 1_565 S
C264 O271 1.240 . S
C264 O272 1.252 . S
C265 O268 1.252 . S
C265 O269 1.260 . S
O266 In260 2.266 . S
O266 C263 1.252 . S
O267 In260 2.310 1_545 S
O267 C263 1.253 1_545 S
O268 In260 2.266 . S
O268 C265 1.252 . S
O269 In260 2.326 . S
O269 C265 1.260 . S
C270 O261 1.240 . S
C270 O262 1.252 . S
O271 In260 2.294 . S
O271 C264 1.240 . S
O272 In260 2.326 . S
O272 C264 1.252 . S
In273 O274 2.294 . S
In273 O275 2.326 . S
In273 O279 2.266 . S
In273 O280 2.326 . S
In273 O281 2.266 . S
In273 O282 2.326 . S
In273 O284 2.294 . S
In273 O285 2.326 . S
O274 In273 2.294 . S
O274 C283 1.240 . S
O275 In273 2.326 . S
O275 C283 1.252 . S
C276 O279 1.252 . S
C276 O280 1.260 . S
C277 O284 1.240 . S
C277 O285 1.252 . S
C278 O281 1.252 . S
C278 O282 1.260 . S
O279 In273 2.266 . S
O279 C276 1.252 . S
O280 In273 2.326 . S
O280 C276 1.260 . S
O281 In273 2.266 . S
O281 C278 1.252 . S
O282 In273 2.326 . S
O282 C278 1.260 . S
C283 O274 1.240 . S
C283 O275 1.252 . S
O284 In273 2.294 . S
O284 C277 1.240 . S
O285 In273 2.326 . S
O285 C277 1.252 . S
In286 O287 2.294 . S
In286 O288 2.326 . S
In286 O292 2.266 . S
In286 O293 2.326 . S
In286 O294 2.266 . S
In286 O295 2.326 . S
In286 O297 2.294 . S
In286 O298 2.326 . S
O287 In286 2.294 . S
O287 C296 1.240 . S
O288 In286 2.326 . S
O288 C296 1.252 . S
C289 O292 1.252 . S
C289 O293 1.260 . S
C290 O297 1.240 . S
C290 O298 1.252 . S
C291 O294 1.252 . S
C291 O295 1.260 . S
O292 In286 2.266 . S
O292 C289 1.252 . S
O293 In286 2.326 . S
O293 C289 1.260 . S
O294 In286 2.266 . S
O294 C291 1.252 . S
O295 In286 2.326 . S
O295 C291 1.260 . S
C296 O287 1.240 . S
C296 O288 1.252 . S
O297 In286 2.294 . S
O297 C290 1.240 . S
O298 In286 2.326 . S
O298 C290 1.252 . S
In299 O300 2.294 . S
In299 O301 2.326 . S
In299 O305 2.266 . S
In299 O306 2.326 . S
In299 O307 2.266 . S
In299 O308 2.326 . S
In299 O310 2.294 . S
In299 O311 2.326 . S
O300 In299 2.294 . S
O300 C309 1.240 . S
O301 In299 2.326 . S
O301 C309 1.252 . S
C302 O305 1.252 . S
C302 O306 1.260 . S
C303 O310 1.240 . S
C303 O311 1.252 . S
C304 O307 1.252 . S
C304 O308 1.260 . S
O305 In299 2.266 . S
O305 C302 1.252 . S
O306 In299 2.326 . S
O306 C302 1.260 . S
O307 In299 2.266 . S
O307 C304 1.252 . S
O308 In299 2.326 . S
O308 C304 1.260 . S
C309 O300 1.240 . S
C309 O301 1.252 . S
O310 In299 2.294 . S
O310 C303 1.240 . S
O311 In299 2.326 . S
O311 C303 1.252 . S
In312 O313 2.294 . S
In312 O314 2.326 . S
In312 O318 2.266 . S
In312 O319 2.326 . S
In312 O320 2.266 . S
In312 O321 2.326 . S
In312 O323 2.294 . S
In312 O324 2.326 . S
O313 In312 2.294 . S
O313 C322 1.240 . S
O314 In312 2.326 . S
O314 C322 1.252 . S
C315 O318 1.252 . S
C315 O319 1.260 . S
C316 O323 1.240 . S
C316 O324 1.252 . S
C317 O320 1.252 . S
C317 O321 1.260 . S
O318 In312 2.266 . S
O318 C315 1.252 . S
O319 In312 2.326 . S
O319 C315 1.260 . S
O320 In312 2.266 . S
O320 C317 1.252 . S
O321 In312 2.326 . S
O321 C317 1.260 . S
C322 O313 1.240 . S
C322 O314 1.252 . S
O323 In312 2.294 . S
O323 C316 1.240 . S
O324 In312 2.326 . S
O324 C316 1.252 . S
In325 O326 2.294 . S
In325 O327 2.326 . S
In325 O331 2.266 . S
In325 O332 2.326 . S
In325 O333 2.266 . S
In325 O334 2.326 . S
In325 O336 2.294 . S
In325 O337 2.326 . S
O326 In325 2.294 . S
O326 C335 1.240 . S
O327 In325 2.326 . S
O327 C335 1.252 . S
C328 O331 1.252 . S
C328 O332 1.260 . S
C329 O336 1.240 . S
C329 O337 1.252 . S
C330 O333 1.252 . S
C330 O334 1.260 . S
O331 In325 2.266 . S
O331 C328 1.252 . S
O332 In325 2.326 . S
O332 C328 1.260 . S
O333 In325 2.266 . S
O333 C330 1.252 . S
O334 In325 2.326 . S
O334 C330 1.260 . S
C335 O326 1.240 . S
C335 O327 1.252 . S
O336 In325 2.294 . S
O336 C329 1.240 . S
O337 In325 2.326 . S
O337 C329 1.252 . S
In338 O339 2.294 . S
In338 O340 2.326 . S
In338 O344 2.266 . S
In338 O345 2.326 . S
In338 O346 2.266 . S
In338 O347 2.326 . S
In338 O349 2.294 . S
In338 O350 2.326 . S
O339 In338 2.294 . S
O339 C348 1.240 . S
O340 In338 2.326 . S
O340 C348 1.252 . S
C341 O344 1.252 . S
C341 O345 1.260 . S
C342 O349 1.240 . S
C342 O350 1.252 . S
C343 O346 1.252 . S
C343 O347 1.260 . S
O344 In338 2.266 . S
O344 C341 1.252 . S
O345 In338 2.326 . S
O345 C341 1.260 . S
O346 In338 2.266 . S
O346 C343 1.252 . S
O347 In338 2.326 . S
O347 C343 1.260 . S
C348 O339 1.240 . S
C348 O340 1.252 . S
O349 In338 2.294 . S
O349 C342 1.240 . S
O350 In338 2.326 . S
O350 C342 1.252 . S
In351 O352 2.294 . S
In351 O353 2.326 . S
In351 O357 2.266 . S
In351 O358 2.309 1_455 S
In351 O359 2.266 . S
In351 O360 2.326 . S
In351 O362 2.294 . S
In351 O363 2.326 . S
O352 In351 2.294 . S
O352 C361 1.240 . S
O353 In351 2.326 . S
O353 C361 1.252 . S
C354 O357 1.252 . S
C354 O358 1.253 1_455 S
C355 O362 1.240 . S
C355 O363 1.252 . S
C356 O359 1.252 . S
C356 O360 1.260 . S
O357 In351 2.266 . S
O357 C354 1.252 . S
O358 In351 2.309 1_655 S
O358 C354 1.253 1_655 S
O359 In351 2.266 . S
O359 C356 1.252 . S
O360 In351 2.326 . S
O360 C356 1.260 . S
C361 O352 1.240 . S
C361 O353 1.252 . S
O362 In351 2.294 . S
O362 C355 1.240 . S
O363 In351 2.326 . S
O363 C355 1.252 . S
In364 O365 2.294 . S
In364 O366 2.326 . S
In364 O370 2.266 . S
In364 O371 2.326 . S
In364 O372 2.266 . S
In364 O373 2.326 . S
In364 O375 2.294 . S
In364 O376 2.326 . S
O365 In364 2.294 . S
O365 C374 1.240 . S
O366 In364 2.326 . S
O366 C374 1.252 . S
C367 O370 1.252 . S
C367 O371 1.260 . S
C368 O375 1.240 . S
C368 O376 1.252 . S
C369 O372 1.252 . S
C369 O373 1.260 . S
O370 In364 2.266 . S
O370 C367 1.252 . S
O371 In364 2.326 . S
O371 C367 1.260 . S
O372 In364 2.266 . S
O372 C369 1.252 . S
O373 In364 2.326 . S
O373 C369 1.260 . S
C374 O365 1.240 . S
C374 O366 1.252 . S
O375 In364 2.294 . S
O375 C368 1.240 . S
O376 In364 2.326 . S
O376 C368 1.252 . S
In377 O378 2.294 . S
In377 O379 2.326 . S
In377 O383 2.266 . S
In377 O384 2.309 1_455 S
In377 O385 2.266 . S
In377 O386 2.326 . S
In377 O388 2.294 . S
In377 O389 2.326 . S
O378 In377 2.294 . S
O378 C387 1.240 . S
O379 In377 2.326 . S
O379 C387 1.252 . S
C380 O383 1.252 . S
C380 O384 1.253 1_455 S
C381 O388 1.240 . S
C381 O389 1.252 . S
C382 O385 1.252 . S
C382 O386 1.260 . S
O383 In377 2.266 . S
O383 C380 1.252 . S
O384 In377 2.309 1_655 S
O384 C380 1.253 1_655 S
O385 In377 2.266 . S
O385 C382 1.252 . S
O386 In377 2.326 . S
O386 C382 1.260 . S
C387 O378 1.240 . S
C387 O379 1.252 . S
O388 In377 2.294 . S
O388 C381 1.240 . S
O389 In377 2.326 . S
O389 C381 1.252 . S
In390 O391 2.294 . S
In390 O392 2.326 . S
In390 O396 2.266 . S
In390 O397 2.326 . S
In390 O398 2.266 . S
In390 O399 2.326 . S
In390 O401 2.294 . S
In390 O402 2.326 . S
O391 In390 2.294 . S
O391 C400 1.240 . S
O392 In390 2.326 . S
O392 C400 1.252 . S
C393 O396 1.252 . S
C393 O397 1.260 . S
C394 O401 1.240 . S
C394 O402 1.252 . S
C395 O398 1.252 . S
C395 O399 1.260 . S
O396 In390 2.266 . S
O396 C393 1.252 . S
O397 In390 2.326 . S
O397 C393 1.260 . S
O398 In390 2.266 . S
O398 C395 1.252 . S
O399 In390 2.326 . S
O399 C395 1.260 . S
C400 O391 1.240 . S
C400 O392 1.252 . S
O401 In390 2.294 . S
O401 C394 1.240 . S
O402 In390 2.326 . S
O402 C394 1.252 . S
In403 O404 2.294 . S
In403 O405 2.326 . S
In403 O409 2.266 . S
In403 O410 2.326 . S
In403 O411 2.266 . S
In403 O412 2.326 . S
In403 O414 2.294 . S
In403 O415 2.326 . S
O404 In403 2.294 . S
O404 C413 1.240 . S
O405 In403 2.326 . S
O405 C413 1.252 . S
C406 O409 1.252 . S
C406 O410 1.260 . S
C407 O414 1.240 . S
C407 O415 1.252 . S
C408 O411 1.252 . S
C408 O412 1.260 . S
O409 In403 2.266 . S
O409 C406 1.252 . S
O410 In403 2.326 . S
O410 C406 1.260 . S
O411 In403 2.266 . S
O411 C408 1.252 . S
O412 In403 2.326 . S
O412 C408 1.260 . S
C413 O404 1.240 . S
C413 O405 1.252 . S
O414 In403 2.294 . S
O414 C407 1.240 . S
O415 In403 2.326 . S
O415 C407 1.252 . S
In416 O417 2.294 . S
In416 O418 2.326 . S
In416 O422 2.266 . S
In416 O423 2.326 . S
In416 O424 2.266 . S
In416 O425 2.326 . S
In416 O427 2.294 . S
In416 O428 2.326 . S
O417 In416 2.294 . S
O417 C426 1.240 . S
O418 In416 2.326 . S
O418 C426 1.252 . S
C419 O422 1.252 . S
C419 O423 1.260 . S
C420 O427 1.240 . S
C420 O428 1.252 . S
C421 O424 1.252 . S
C421 O425 1.260 . S
O422 In416 2.266 . S
O422 C419 1.252 . S
O423 In416 2.326 . S
O423 C419 1.260 . S
O424 In416 2.266 . S
O424 C421 1.252 . S
O425 In416 2.326 . S
O425 C421 1.260 . S
C426 O417 1.240 . S
C426 O418 1.252 . S
O427 In416 2.294 . S
O427 C420 1.240 . S
O428 In416 2.326 . S
O428 C420 1.252 . S
In429 O430 2.294 . S
In429 O431 2.326 . S
In429 O435 2.266 . S
In429 O436 2.326 . S
In429 O437 2.266 . S
In429 O438 2.309 1_554 S
In429 O440 2.294 . S
In429 O441 2.326 . S
O430 In429 2.294 . S
O430 C439 1.240 . S
O431 In429 2.326 . S
O431 C439 1.252 . S
C432 O435 1.252 . S
C432 O436 1.260 . S
C433 O440 1.240 . S
C433 O441 1.252 . S
C434 O437 1.252 . S
C434 O438 1.253 1_554 S
O435 In429 2.266 . S
O435 C432 1.252 . S
O436 In429 2.326 . S
O436 C432 1.260 . S
O437 In429 2.266 . S
O437 C434 1.252 . S
O438 In429 2.309 1_556 S
O438 C434 1.253 1_556 S
C439 O430 1.240 . S
C439 O431 1.252 . S
O440 In429 2.294 . S
O440 C433 1.240 . S
O441 In429 2.326 . S
O441 C433 1.252 . S
In442 O443 2.294 . S
In442 O444 2.326 . S
In442 O448 2.266 . S
In442 O449 2.326 . S
In442 O450 2.266 . S
In442 O451 2.326 . S
In442 O453 2.294 . S
In442 O454 2.326 . S
O443 In442 2.294 . S
O443 C452 1.240 . S
O444 In442 2.326 . S
O444 C452 1.252 . S
C445 O448 1.252 . S
C445 O449 1.260 . S
C446 O453 1.240 . S
C446 O454 1.252 . S
C447 O450 1.252 . S
C447 O451 1.260 . S
O448 In442 2.266 . S
O448 C445 1.252 . S
O449 In442 2.326 . S
O449 C445 1.260 . S
O450 In442 2.266 . S
O450 C447 1.252 . S
O451 In442 2.326 . S
O451 C447 1.260 . S
C452 O443 1.240 . S
C452 O444 1.252 . S
O453 In442 2.294 . S
O453 C446 1.240 . S
O454 In442 2.326 . S
O454 C446 1.252 . S
In455 O456 2.294 . S
In455 O457 2.326 . S
In455 O461 2.266 . S
In455 O462 2.326 . S
In455 O463 2.266 . S
In455 O464 2.326 . S
In455 O466 2.294 . S
In455 O467 2.326 . S
O456 In455 2.294 . S
O456 C465 1.240 . S
O457 In455 2.326 . S
O457 C465 1.252 . S
C458 O461 1.252 . S
C458 O462 1.260 . S
C459 O466 1.240 . S
C459 O467 1.252 . S
C460 O463 1.252 . S
C460 O464 1.260 . S
O461 In455 2.266 . S
O461 C458 1.252 . S
O462 In455 2.326 . S
O462 C458 1.260 . S
O463 In455 2.266 . S
O463 C460 1.252 . S
O464 In455 2.326 . S
O464 C460 1.260 . S
C465 O456 1.240 . S
C465 O457 1.252 . S
O466 In455 2.294 . S
O466 C459 1.240 . S
O467 In455 2.326 . S
O467 C459 1.252 . S
In468 O469 2.294 . S
In468 O470 2.326 . S
In468 O474 2.266 . S
In468 O475 2.326 . S
In468 O476 2.266 . S
In468 O477 2.326 . S
In468 O479 2.294 . S
In468 O480 2.326 . S
O469 In468 2.294 . S
O469 C478 1.240 . S
O470 In468 2.326 . S
O470 C478 1.252 . S
C471 O474 1.252 . S
C471 O475 1.260 . S
C472 O479 1.240 . S
C472 O480 1.252 . S
C473 O476 1.252 . S
C473 O477 1.260 . S
O474 In468 2.266 . S
O474 C471 1.252 . S
O475 In468 2.326 . S
O475 C471 1.260 . S
O476 In468 2.266 . S
O476 C473 1.252 . S
O477 In468 2.326 . S
O477 C473 1.260 . S
C478 O469 1.240 . S
C478 O470 1.252 . S
O479 In468 2.294 . S
O479 C472 1.240 . S
O480 In468 2.326 . S
O480 C472 1.252 . S
In481 O482 2.294 . S
In481 O483 2.326 . S
In481 O487 2.266 . S
In481 O488 2.326 . S
In481 O489 2.266 . S
In481 O490 2.309 1_556 S
In481 O492 2.294 . S
In481 O493 2.326 . S
O482 In481 2.294 . S
O482 C491 1.240 . S
O483 In481 2.326 . S
O483 C491 1.252 . S
C484 O487 1.252 . S
C484 O488 1.260 . S
C485 O492 1.240 . S
C485 O493 1.252 . S
C486 O489 1.252 . S
C486 O490 1.253 1_556 S
O487 In481 2.266 . S
O487 C484 1.252 . S
O488 In481 2.326 . S
O488 C484 1.260 . S
O489 In481 2.266 . S
O489 C486 1.252 . S
O490 In481 2.309 1_554 S
O490 C486 1.253 1_554 S
C491 O482 1.240 . S
C491 O483 1.252 . S
O492 In481 2.294 . S
O492 C485 1.240 . S
O493 In481 2.326 . S
O493 C485 1.252 . S
In494 O495 2.294 . S
In494 O496 2.326 . S
In494 O500 2.266 . S
In494 O501 2.326 . S
In494 O502 2.266 . S
In494 O503 2.326 . S
In494 O505 2.294 . S
In494 O506 2.326 . S
O495 In494 2.294 . S
O495 C504 1.240 . S
O496 In494 2.326 . S
O496 C504 1.252 . S
C497 O500 1.252 . S
C497 O501 1.260 . S
C498 O505 1.240 . S
C498 O506 1.252 . S
C499 O502 1.252 . S
C499 O503 1.260 . S
O500 In494 2.266 . S
O500 C497 1.252 . S
O501 In494 2.326 . S
O501 C497 1.260 . S
O502 In494 2.266 . S
O502 C499 1.252 . S
O503 In494 2.326 . S
O503 C499 1.260 . S
C504 O495 1.240 . S
C504 O496 1.252 . S
O505 In494 2.294 . S
O505 C498 1.240 . S
O506 In494 2.326 . S
O506 C498 1.252 . S
In507 O508 2.294 . S
In507 O509 2.326 . S
In507 O513 2.266 . S
In507 O514 2.326 . S
In507 O515 2.266 . S
In507 O516 2.326 . S
In507 O518 2.294 . S
In507 O519 2.326 . S
O508 In507 2.294 . S
O508 C517 1.240 . S
O509 In507 2.326 . S
O509 C517 1.252 . S
C510 O513 1.252 . S
C510 O514 1.260 . S
C511 O518 1.240 . S
C511 O519 1.252 . S
C512 O515 1.252 . S
C512 O516 1.260 . S
O513 In507 2.266 . S
O513 C510 1.252 . S
O514 In507 2.326 . S
O514 C510 1.260 . S
O515 In507 2.266 . S
O515 C512 1.252 . S
O516 In507 2.326 . S
O516 C512 1.260 . S
C517 O508 1.240 . S
C517 O509 1.252 . S
O518 In507 2.294 . S
O518 C511 1.240 . S
O519 In507 2.326 . S
O519 C511 1.252 . S
In520 O521 2.294 . S
In520 O522 2.326 . S
In520 O526 2.266 . S
In520 O527 2.326 . S
In520 O528 2.266 . S
In520 O529 2.326 . S
In520 O531 2.294 . S
In520 O532 2.326 . S
O521 In520 2.294 . S
O521 C530 1.240 . S
O522 In520 2.326 . S
O522 C530 1.252 . S
C523 O526 1.252 . S
C523 O527 1.260 . S
C524 O531 1.240 . S
C524 O532 1.252 . S
C525 O528 1.252 . S
C525 O529 1.260 . S
O526 In520 2.266 . S
O526 C523 1.252 . S
O527 In520 2.326 . S
O527 C523 1.260 . S
O528 In520 2.266 . S
O528 C525 1.252 . S
O529 In520 2.326 . S
O529 C525 1.260 . S
C530 O521 1.240 . S
C530 O522 1.252 . S
O531 In520 2.294 . S
O531 C524 1.240 . S
O532 In520 2.326 . S
O532 C524 1.252 . S
In533 O534 2.294 . S
In533 O535 2.326 . S
In533 O539 2.266 . S
In533 O540 2.326 . S
In533 O541 2.266 . S
In533 O542 2.326 . S
In533 O544 2.294 . S
In533 O545 2.326 . S
O534 In533 2.294 . S
O534 C543 1.240 . S
O535 In533 2.326 . S
O535 C543 1.252 . S
C536 O539 1.252 . S
C536 O540 1.260 . S
C537 O544 1.240 . S
C537 O545 1.252 . S
C538 O541 1.252 . S
C538 O542 1.260 . S
O539 In533 2.266 . S
O539 C536 1.252 . S
O540 In533 2.326 . S
O540 C536 1.260 . S
O541 In533 2.266 . S
O541 C538 1.252 . S
O542 In533 2.326 . S
O542 C538 1.260 . S
C543 O534 1.240 . S
C543 O535 1.252 . S
O544 In533 2.294 . S
O544 C537 1.240 . S
O545 In533 2.326 . S
O545 C537 1.252 . S
In546 O547 2.294 . S
In546 O548 2.326 . S
In546 O552 2.266 . S
In546 O553 2.326 . S
In546 O554 2.266 . S
In546 O555 2.309 1_545 S
In546 O557 2.294 . S
In546 O558 2.326 . S
O547 In546 2.294 . S
O547 C556 1.240 . S
O548 In546 2.326 . S
O548 C556 1.252 . S
C549 O552 1.252 . S
C549 O553 1.260 . S
C550 O557 1.240 . S
C550 O558 1.252 . S
C551 O554 1.252 . S
C551 O555 1.253 1_545 S
O552 In546 2.266 . S
O552 C549 1.252 . S
O553 In546 2.326 . S
O553 C549 1.260 . S
O554 In546 2.266 . S
O554 C551 1.252 . S
O555 In546 2.309 1_565 S
O555 C551 1.253 1_565 S
C556 O547 1.240 . S
C556 O548 1.252 . S
O557 In546 2.294 . S
O557 C550 1.240 . S
O558 In546 2.326 . S
O558 C550 1.252 . S
In559 O560 2.294 . S
In559 O561 2.326 . S
In559 O565 2.266 . S
In559 O566 2.326 . S
In559 O567 2.266 . S
In559 O568 2.326 . S
In559 O570 2.294 . S
In559 O571 2.326 . S
O560 In559 2.294 . S
O560 C569 1.240 . S
O561 In559 2.326 . S
O561 C569 1.252 . S
C562 O565 1.252 . S
C562 O566 1.260 . S
C563 O570 1.240 . S
C563 O571 1.252 . S
C564 O567 1.252 . S
C564 O568 1.260 . S
O565 In559 2.266 . S
O565 C562 1.252 . S
O566 In559 2.326 . S
O566 C562 1.260 . S
O567 In559 2.266 . S
O567 C564 1.252 . S
O568 In559 2.326 . S
O568 C564 1.260 . S
C569 O560 1.240 . S
C569 O561 1.252 . S
O570 In559 2.294 . S
O570 C563 1.240 . S
O571 In559 2.326 . S
O571 C563 1.252 . S
In572 O573 2.294 . S
In572 O574 2.326 . S
In572 O578 2.266 . S
In572 O579 2.326 . S
In572 O580 2.266 . S
In572 O581 2.326 . S
In572 O583 2.294 . S
In572 O584 2.326 . S
O573 In572 2.294 . S
O573 C582 1.240 . S
O574 In572 2.326 . S
O574 C582 1.252 . S
C575 O578 1.252 . S
C575 O579 1.260 . S
C576 O583 1.240 . S
C576 O584 1.252 . S
C577 O580 1.252 . S
C577 O581 1.260 . S
O578 In572 2.266 . S
O578 C575 1.252 . S
O579 In572 2.326 . S
O579 C575 1.260 . S
O580 In572 2.266 . S
O580 C577 1.252 . S
O581 In572 2.326 . S
O581 C577 1.260 . S
C582 O573 1.240 . S
C582 O574 1.252 . S
O583 In572 2.294 . S
O583 C576 1.240 . S
O584 In572 2.326 . S
O584 C576 1.252 . S
In585 O586 2.294 . S
In585 O587 2.326 . S
In585 O591 2.266 . S
In585 O592 2.326 . S
In585 O593 2.266 . S
In585 O594 2.326 . S
In585 O596 2.294 . S
In585 O597 2.326 . S
O586 In585 2.294 . S
O586 C595 1.240 . S
O587 In585 2.326 . S
O587 C595 1.252 . S
C588 O591 1.252 . S
C588 O592 1.260 . S
C589 O596 1.240 . S
C589 O597 1.252 . S
C590 O593 1.252 . S
C590 O594 1.260 . S
O591 In585 2.266 . S
O591 C588 1.252 . S
O592 In585 2.326 . S
O592 C588 1.260 . S
O593 In585 2.266 . S
O593 C590 1.252 . S
O594 In585 2.326 . S
O594 C590 1.260 . S
C595 O586 1.240 . S
C595 O587 1.252 . S
O596 In585 2.294 . S
O596 C589 1.240 . S
O597 In585 2.326 . S
O597 C589 1.252 . S
In598 O599 2.294 . S
In598 O600 2.326 . S
In598 O604 2.266 . S
In598 O605 2.309 1_565 S
In598 O606 2.266 . S
In598 O607 2.326 . S
In598 O609 2.294 . S
In598 O610 2.326 . S
O599 In598 2.294 . S
O599 C608 1.240 . S
O600 In598 2.326 . S
O600 C608 1.252 . S
C601 O604 1.252 . S
C601 O605 1.253 1_565 S
C602 O609 1.240 . S
C602 O610 1.252 . S
C603 O606 1.252 . S
C603 O607 1.260 . S
O604 In598 2.266 . S
O604 C601 1.252 . S
O605 In598 2.309 1_545 S
O605 C601 1.253 1_545 S
O606 In598 2.266 . S
O606 C603 1.252 . S
O607 In598 2.326 . S
O607 C603 1.260 . S
C608 O599 1.240 . S
C608 O600 1.252 . S
O609 In598 2.294 . S
O609 C602 1.240 . S
O610 In598 2.326 . S
O610 C602 1.252 . S
In611 O612 2.294 . S
In611 O613 2.326 . S
In611 O617 2.266 . S
In611 O618 2.309 1_545 S
In611 O619 2.266 . S
In611 O620 2.326 . S
In611 O622 2.294 . S
In611 O623 2.326 . S
O612 In611 2.294 . S
O612 C621 1.240 . S
O613 In611 2.326 . S
O613 C621 1.252 . S
C614 O617 1.252 . S
C614 O618 1.253 1_545 S
C615 O622 1.240 . S
C615 O623 1.252 . S
C616 O619 1.252 . S
C616 O620 1.260 . S
O617 In611 2.266 . S
O617 C614 1.252 . S
O618 In611 2.309 1_565 S
O618 C614 1.253 1_565 S
O619 In611 2.266 . S
O619 C616 1.252 . S
O620 In611 2.326 . S
O620 C616 1.260 . S
C621 O612 1.240 . S
C621 O613 1.252 . S
O622 In611 2.294 . S
O622 C615 1.240 . S
O623 In611 2.326 . S
O623 C615 1.252 . S
H624 C632 0.929 . S
H625 C634 0.930 . S
H626 C636 0.930 . S
H627 C639 0.929 . S
H628 C642 0.930 . S
H629 C644 0.960 . S
H630 C644 0.960 . S
H631 C644 0.960 . S
C632 H624 0.929 . S
C632 C633 1.377 . S
C632 C634 1.384 . S
C633 C632 1.377 . S
C633 C639 1.390 . S
C634 H625 0.930 . S
C634 C632 1.384 . S
C634 C635 1.372 . S
C635 C634 1.372 . S
C635 C636 1.400 . S
C635 C640 1.490 . S
C636 H626 0.930 . S
C636 C635 1.400 . S
C636 C639 1.386 . S
H637 C653 0.930 . S
H638 C654 0.931 . S
C639 H627 0.929 . S
C639 C633 1.390 . S
C639 C636 1.386 . S
C640 C635 1.490 . S
C640 C642 1.395 . S
C640 C643 1.403 . S
H641 C647 0.930 . S
C642 H628 0.930 . S
C642 C640 1.395 . S
C642 C645 1.403 . S
C643 C640 1.403 . S
C643 C644 1.524 . S
C643 C647 1.400 . S
C644 H629 0.960 . S
C644 H630 0.960 . S
C644 H631 0.960 . S
C644 C643 1.524 . S
C645 C642 1.403 . S
C645 C646 1.392 . S
C645 C649 1.495 . S
C646 C645 1.392 . S
C646 C647 1.385 . S
C646 C648 1.478 . S
C647 H641 0.930 . S
C647 C643 1.400 . S
C647 C646 1.385 . S
C648 C646 1.478 . S
C648 C650 1.381 . S
C648 C654 1.383 . S
C649 C645 1.495 . S
C649 H655 0.959 . S
C649 H656 0.961 . S
C649 H657 0.960 . S
C650 C648 1.381 . S
C650 C651 1.394 . S
C650 H658 0.930 . S
C651 C650 1.394 . S
C651 C652 1.383 . S
C651 H659 0.929 . S
C652 C651 1.383 . S
C652 C653 1.377 . S
C653 H637 0.930 . S
C653 C652 1.377 . S
C653 C654 1.379 . S
C654 H638 0.931 . S
C654 C648 1.383 . S
C654 C653 1.379 . S
H655 C649 0.959 . S
H656 C649 0.961 . S
H657 C649 0.960 . S
H658 C650 0.930 . S
H659 C651 0.929 . S
H660 C668 0.929 . S
H661 C670 0.930 . S
H662 C672 0.930 . S
H663 C675 0.929 . S
H664 C678 0.930 . S
H665 C680 0.960 . S
H666 C680 0.960 . S
H667 C680 0.960 . S
C668 H660 0.929 . S
C668 C669 1.377 . S
C668 C670 1.384 . S
C669 C668 1.377 . S
C669 C675 1.390 . S
C670 H661 0.930 . S
C670 C668 1.384 . S
C670 C671 1.372 . S
C671 C670 1.372 . S
C671 C672 1.400 . S
C671 C676 1.490 . S
C672 H662 0.930 . S
C672 C671 1.400 . S
C672 C675 1.386 . S
H673 C689 0.930 . S
H674 C690 0.931 . S
C675 H663 0.929 . S
C675 C669 1.390 . S
C675 C672 1.386 . S
C676 C671 1.490 . S
C676 C678 1.395 . S
C676 C679 1.403 . S
H677 C683 0.930 . S
C678 H664 0.930 . S
C678 C676 1.395 . S
C678 C681 1.403 . S
C679 C676 1.403 . S
C679 C680 1.524 . S
C679 C683 1.400 . S
C680 H665 0.960 . S
C680 H666 0.960 . S
C680 H667 0.960 . S
C680 C679 1.524 . S
C681 C678 1.403 . S
C681 C682 1.392 . S
C681 C685 1.495 . S
C682 C681 1.392 . S
C682 C683 1.385 . S
C682 C684 1.478 . S
C683 H677 0.930 . S
C683 C679 1.400 . S
C683 C682 1.385 . S
C684 C682 1.478 . S
C684 C686 1.381 . S
C684 C690 1.383 . S
C685 C681 1.495 . S
C685 H691 0.959 . S
C685 H692 0.961 . S
C685 H693 0.960 . S
C686 C684 1.381 . S
C686 C687 1.394 . S
C686 H694 0.930 . S
C687 C686 1.394 . S
C687 C688 1.383 . S
C687 H695 0.929 . S
C688 C687 1.383 . S
C688 C689 1.377 . S
C689 H673 0.930 . S
C689 C688 1.377 . S
C689 C690 1.379 . S
C690 H674 0.931 . S
C690 C684 1.383 . S
C690 C689 1.379 . S
H691 C685 0.959 . S
H692 C685 0.961 . S
H693 C685 0.960 . S
H694 C686 0.930 . S
H695 C687 0.929 . S
H696 C704 0.929 . S
H697 C706 0.930 . S
H698 C708 0.930 . S
H699 C711 0.929 . S
H700 C714 0.930 . S
H701 C716 0.960 . S
H702 C716 0.960 . S
H703 C716 0.960 . S
C704 H696 0.929 . S
C704 C705 1.377 . S
C704 C706 1.384 . S
C705 C704 1.377 . S
C705 C711 1.390 . S
C706 H697 0.930 . S
C706 C704 1.384 . S
C706 C707 1.372 . S
C707 C706 1.372 . S
C707 C708 1.400 . S
C707 C712 1.490 . S
C708 H698 0.930 . S
C708 C707 1.400 . S
C708 C711 1.386 . S
H709 C725 0.930 . S
H710 C726 0.931 . S
C711 H699 0.929 . S
C711 C705 1.390 . S
C711 C708 1.386 . S
C712 C707 1.490 . S
C712 C714 1.395 . S
C712 C715 1.403 . S
H713 C719 0.930 . S
C714 H700 0.930 . S
C714 C712 1.395 . S
C714 C717 1.403 . S
C715 C712 1.403 . S
C715 C716 1.524 . S
C715 C719 1.400 . S
C716 H701 0.960 . S
C716 H702 0.960 . S
C716 H703 0.960 . S
C716 C715 1.524 . S
C717 C714 1.403 . S
C717 C718 1.392 . S
C717 C721 1.495 . S
C718 C717 1.392 . S
C718 C719 1.385 . S
C718 C720 1.478 . S
C719 H713 0.930 . S
C719 C715 1.400 . S
C719 C718 1.385 . S
C720 C718 1.478 . S
C720 C722 1.381 . S
C720 C726 1.383 . S
C721 C717 1.495 . S
C721 H727 0.959 . S
C721 H728 0.961 . S
C721 H729 0.960 . S
C722 C720 1.381 . S
C722 C723 1.394 . S
C722 H730 0.930 . S
C723 C722 1.394 . S
C723 C724 1.383 . S
C723 H731 0.929 . S
C724 C723 1.383 . S
C724 C725 1.377 . S
C725 H709 0.930 . S
C725 C724 1.377 . S
C725 C726 1.379 . S
C726 H710 0.931 . S
C726 C720 1.383 . S
C726 C725 1.379 . S
H727 C721 0.959 . S
H728 C721 0.961 . S
H729 C721 0.960 . S
H730 C722 0.930 . S
H731 C723 0.929 . S
H732 C740 0.929 . S
H733 C742 0.930 . S
H734 C744 0.930 . S
H735 C747 0.929 . S
H736 C750 0.930 . S
H737 C752 0.960 . S
H738 C752 0.960 . S
H739 C752 0.960 . S
C740 H732 0.929 . S
C740 C741 1.377 . S
C740 C742 1.384 . S
C741 C740 1.377 . S
C741 C747 1.390 . S
C742 H733 0.930 . S
C742 C740 1.384 . S
C742 C743 1.372 . S
C743 C742 1.372 . S
C743 C744 1.400 . S
C743 C748 1.490 . S
C744 H734 0.930 . S
C744 C743 1.400 . S
C744 C747 1.386 . S
H745 C761 0.930 . S
H746 C762 0.931 . S
C747 H735 0.929 . S
C747 C741 1.390 . S
C747 C744 1.386 . S
C748 C743 1.490 . S
C748 C750 1.395 . S
C748 C751 1.403 . S
H749 C755 0.930 . S
C750 H736 0.930 . S
C750 C748 1.395 . S
C750 C753 1.403 . S
C751 C748 1.403 . S
C751 C752 1.524 . S
C751 C755 1.400 . S
C752 H737 0.960 . S
C752 H738 0.960 . S
C752 H739 0.960 . S
C752 C751 1.524 . S
C753 C750 1.403 . S
C753 C754 1.392 . S
C753 C757 1.495 . S
C754 C753 1.392 . S
C754 C755 1.385 . S
C754 C756 1.478 . S
C755 H749 0.930 . S
C755 C751 1.400 . S
C755 C754 1.385 . S
C756 C754 1.478 . S
C756 C758 1.381 . S
C756 C762 1.383 . S
C757 C753 1.495 . S
C757 H763 0.959 . S
C757 H764 0.961 . S
C757 H765 0.960 . S
C758 C756 1.381 . S
C758 C759 1.394 . S
C758 H766 0.930 . S
C759 C758 1.394 . S
C759 C760 1.383 . S
C759 H767 0.929 . S
C760 C759 1.383 . S
C760 C761 1.377 . S
C761 H745 0.930 . S
C761 C760 1.377 . S
C761 C762 1.379 . S
C762 H746 0.931 . S
C762 C756 1.383 . S
C762 C761 1.379 . S
H763 C757 0.959 . S
H764 C757 0.961 . S
H765 C757 0.960 . S
H766 C758 0.930 . S
H767 C759 0.929 . S
H768 C776 0.929 . S
H769 C778 0.930 . S
H770 C780 0.930 . S
H771 C783 0.929 . S
H772 C786 0.930 . S
H773 C788 0.960 . S
H774 C788 0.960 . S
H775 C788 0.960 . S
C776 H768 0.929 . S
C776 C777 1.377 . S
C776 C778 1.384 . S
C777 C776 1.377 . S
C777 C783 1.390 . S
C778 H769 0.930 . S
C778 C776 1.384 . S
C778 C779 1.372 . S
C779 C778 1.372 . S
C779 C780 1.400 . S
C779 C784 1.490 . S
C780 H770 0.930 . S
C780 C779 1.400 . S
C780 C783 1.386 . S
H781 C797 0.930 . S
H782 C798 0.931 . S
C783 H771 0.929 . S
C783 C777 1.390 . S
C783 C780 1.386 . S
C784 C779 1.490 . S
C784 C786 1.395 . S
C784 C787 1.403 . S
H785 C791 0.930 . S
C786 H772 0.930 . S
C786 C784 1.395 . S
C786 C789 1.403 . S
C787 C784 1.403 . S
C787 C788 1.524 . S
C787 C791 1.400 . S
C788 H773 0.960 . S
C788 H774 0.960 . S
C788 H775 0.960 . S
C788 C787 1.524 . S
C789 C786 1.403 . S
C789 C790 1.392 . S
C789 C793 1.495 . S
C790 C789 1.392 . S
C790 C791 1.385 . S
C790 C792 1.478 . S
C791 H785 0.930 . S
C791 C787 1.400 . S
C791 C790 1.385 . S
C792 C790 1.478 . S
C792 C794 1.381 . S
C792 C798 1.383 . S
C793 C789 1.495 . S
C793 H799 0.959 . S
C793 H800 0.961 . S
C793 H801 0.960 . S
C794 C792 1.381 . S
C794 C795 1.394 . S
C794 H802 0.930 . S
C795 C794 1.394 . S
C795 C796 1.383 . S
C795 H803 0.929 1_554 S
C796 C795 1.383 . S
C796 C797 1.377 . S
C797 H781 0.930 . S
C797 C796 1.377 . S
C797 C798 1.379 . S
C798 H782 0.931 . S
C798 C792 1.383 . S
C798 C797 1.379 . S
H799 C793 0.959 . S
H800 C793 0.961 . S
H801 C793 0.960 . S
H802 C794 0.930 . S
H803 C795 0.929 1_556 S
H804 C812 0.929 . S
H805 C814 0.930 . S
H806 C816 0.930 . S
H807 C819 0.929 . S
H808 C822 0.930 . S
H809 C824 0.960 . S
H810 C824 0.960 . S
H811 C824 0.960 . S
C812 H804 0.929 . S
C812 C813 1.377 . S
C812 C814 1.384 . S
C813 C812 1.377 . S
C813 C819 1.390 . S
C814 H805 0.930 . S
C814 C812 1.384 . S
C814 C815 1.372 . S
C815 C814 1.372 . S
C815 C816 1.400 . S
C815 C820 1.490 . S
C816 H806 0.930 . S
C816 C815 1.400 . S
C816 C819 1.386 . S
H817 C833 0.930 . S
H818 C834 0.931 . S
C819 H807 0.929 . S
C819 C813 1.390 . S
C819 C816 1.386 . S
C820 C815 1.490 . S
C820 C822 1.395 . S
C820 C823 1.403 . S
H821 C827 0.930 . S
C822 H808 0.930 . S
C822 C820 1.395 . S
C822 C825 1.403 . S
C823 C820 1.403 . S
C823 C824 1.524 . S
C823 C827 1.400 . S
C824 H809 0.960 . S
C824 H810 0.960 . S
C824 H811 0.960 . S
C824 C823 1.524 . S
C825 C822 1.403 . S
C825 C826 1.392 . S
C825 C829 1.495 . S
C826 C825 1.392 . S
C826 C827 1.385 . S
C826 C828 1.478 . S
C827 H821 0.930 . S
C827 C823 1.400 . S
C827 C826 1.385 . S
C828 C826 1.478 . S
C828 C830 1.381 . S
C828 C834 1.383 . S
C829 C825 1.495 . S
C829 H835 0.959 . S
C829 H836 0.961 . S
C829 H837 0.960 . S
C830 C828 1.381 . S
C830 C831 1.394 . S
C830 H838 0.930 . S
C831 C830 1.394 . S
C831 C832 1.383 . S
C831 H839 0.929 . S
C832 C831 1.383 . S
C832 C833 1.377 . S
C833 H817 0.930 . S
C833 C832 1.377 . S
C833 C834 1.379 . S
C834 H818 0.931 . S
C834 C828 1.383 . S
C834 C833 1.379 . S
H835 C829 0.959 . S
H836 C829 0.961 . S
H837 C829 0.960 . S
H838 C830 0.930 . S
H839 C831 0.929 . S
H840 C848 0.929 . S
H841 C850 0.930 . S
H842 C852 0.930 . S
H843 C855 0.929 . S
H844 C858 0.930 . S
H845 C860 0.960 . S
H846 C860 0.960 . S
H847 C860 0.960 . S
C848 H840 0.929 . S
C848 C849 1.377 . S
C848 C850 1.384 . S
C849 C848 1.377 . S
C849 C855 1.390 . S
C850 H841 0.930 . S
C850 C848 1.384 . S
C850 C851 1.372 . S
C851 C850 1.372 . S
C851 C852 1.400 . S
C851 C856 1.490 . S
C852 H842 0.930 . S
C852 C851 1.400 . S
C852 C855 1.386 . S
H853 C869 0.930 . S
H854 C870 0.931 . S
C855 H843 0.929 . S
C855 C849 1.390 . S
C855 C852 1.386 . S
C856 C851 1.490 . S
C856 C858 1.395 . S
C856 C859 1.403 . S
H857 C863 0.930 . S
C858 H844 0.930 . S
C858 C856 1.395 . S
C858 C861 1.403 . S
C859 C856 1.403 . S
C859 C860 1.524 . S
C859 C863 1.400 . S
C860 H845 0.960 . S
C860 H846 0.960 . S
C860 H847 0.960 . S
C860 C859 1.524 . S
C861 C858 1.403 . S
C861 C862 1.392 . S
C861 C865 1.495 . S
C862 C861 1.392 . S
C862 C863 1.385 . S
C862 C864 1.478 . S
C863 H857 0.930 . S
C863 C859 1.400 . S
C863 C862 1.385 . S
C864 C862 1.478 . S
C864 C866 1.381 . S
C864 C870 1.383 . S
C865 C861 1.495 . S
C865 H871 0.959 . S
C865 H872 0.961 . S
C865 H873 0.960 . S
C866 C864 1.381 . S
C866 C867 1.394 . S
C866 H874 0.930 . S
C867 C866 1.394 . S
C867 C868 1.383 . S
C867 H875 0.929 . S
C868 C867 1.383 . S
C868 C869 1.377 . S
C869 H853 0.930 . S
C869 C868 1.377 . S
C869 C870 1.379 . S
C870 H854 0.931 . S
C870 C864 1.383 . S
C870 C869 1.379 . S
H871 C865 0.959 . S
H872 C865 0.961 . S
H873 C865 0.960 . S
H874 C866 0.930 . S
H875 C867 0.929 . S
H876 C884 0.929 . S
H877 C886 0.930 . S
H878 C888 0.930 . S
H879 C891 0.929 . S
H880 C894 0.930 . S
H881 C896 0.960 . S
H882 C896 0.960 . S
H883 C896 0.960 . S
C884 H876 0.929 . S
C884 C885 1.377 . S
C884 C886 1.384 . S
C885 C884 1.377 . S
C885 C891 1.390 . S
C886 H877 0.930 . S
C886 C884 1.384 . S
C886 C887 1.372 . S
C887 C886 1.372 . S
C887 C888 1.400 . S
C887 C892 1.490 . S
C888 H878 0.930 . S
C888 C887 1.400 . S
C888 C891 1.386 . S
H889 C905 0.930 . S
H890 C906 0.931 . S
C891 H879 0.929 . S
C891 C885 1.390 . S
C891 C888 1.386 . S
C892 C887 1.490 . S
C892 C894 1.395 . S
C892 C895 1.403 . S
H893 C899 0.930 . S
C894 H880 0.930 . S
C894 C892 1.395 . S
C894 C897 1.403 . S
C895 C892 1.403 . S
C895 C896 1.524 . S
C895 C899 1.400 . S
C896 H881 0.960 . S
C896 H882 0.960 . S
C896 H883 0.960 . S
C896 C895 1.524 . S
C897 C894 1.403 . S
C897 C898 1.392 . S
C897 C901 1.495 . S
C898 C897 1.392 . S
C898 C899 1.385 . S
C898 C900 1.478 . S
C899 H893 0.930 . S
C899 C895 1.400 . S
C899 C898 1.385 . S
C900 C898 1.478 . S
C900 C902 1.381 . S
C900 C906 1.383 . S
C901 C897 1.495 . S
C901 H907 0.959 . S
C901 H908 0.961 . S
C901 H909 0.960 . S
C902 C900 1.381 . S
C902 C903 1.394 . S
C902 H910 0.930 . S
C903 C902 1.394 . S
C903 C904 1.383 . S
C903 H911 0.929 . S
C904 C903 1.383 . S
C904 C905 1.377 . S
C905 H889 0.930 . S
C905 C904 1.377 . S
C905 C906 1.379 . S
C906 H890 0.931 . S
C906 C900 1.383 . S
C906 C905 1.379 . S
H907 C901 0.959 . S
H908 C901 0.961 . S
H909 C901 0.960 . S
H910 C902 0.930 . S
H911 C903 0.929 . S
H912 C920 0.929 . S
H913 C922 0.930 . S
H914 C924 0.930 . S
H915 C927 0.929 . S
H916 C930 0.930 . S
H917 C932 0.960 . S
H918 C932 0.960 . S
H919 C932 0.960 . S
C920 H912 0.929 . S
C920 C921 1.377 . S
C920 C922 1.384 . S
C921 C920 1.377 . S
C921 C927 1.390 . S
C922 H913 0.930 . S
C922 C920 1.384 . S
C922 C923 1.372 . S
C923 C922 1.372 . S
C923 C924 1.400 . S
C923 C928 1.490 . S
C924 H914 0.930 . S
C924 C923 1.400 . S
C924 C927 1.386 . S
H925 C941 0.930 . S
H926 C942 0.931 . S
C927 H915 0.929 . S
C927 C921 1.390 . S
C927 C924 1.386 . S
C928 C923 1.490 . S
C928 C930 1.395 . S
C928 C931 1.403 . S
H929 C935 0.930 . S
C930 H916 0.930 . S
C930 C928 1.395 . S
C930 C933 1.403 . S
C931 C928 1.403 . S
C931 C932 1.524 . S
C931 C935 1.400 . S
C932 H917 0.960 . S
C932 H918 0.960 . S
C932 H919 0.960 . S
C932 C931 1.524 . S
C933 C930 1.403 . S
C933 C934 1.392 . S
C933 C937 1.495 . S
C934 C933 1.392 . S
C934 C935 1.385 . S
C934 C936 1.478 . S
C935 H929 0.930 . S
C935 C931 1.400 . S
C935 C934 1.385 . S
C936 C934 1.478 . S
C936 C938 1.381 . S
C936 C942 1.383 . S
C937 C933 1.495 . S
C937 H943 0.959 . S
C937 H944 0.961 . S
C937 H945 0.960 . S
C938 C936 1.381 . S
C938 C939 1.394 . S
C938 H946 0.930 . S
C939 C938 1.394 . S
C939 C940 1.383 . S
C939 H947 0.929 . S
C940 C939 1.383 . S
C940 C941 1.377 . S
C941 H925 0.930 . S
C941 C940 1.377 . S
C941 C942 1.379 . S
C942 H926 0.931 . S
C942 C936 1.383 . S
C942 C941 1.379 . S
H943 C937 0.959 . S
H944 C937 0.961 . S
H945 C937 0.960 . S
H946 C938 0.930 . S
H947 C939 0.929 . S
H948 C956 0.929 . S
H949 C958 0.930 . S
H950 C960 0.930 . S
H951 C963 0.929 . S
H952 C966 0.930 . S
H953 C968 0.960 . S
H954 C968 0.960 . S
H955 C968 0.960 . S
C956 H948 0.929 . S
C956 C957 1.377 . S
C956 C958 1.384 . S
C957 C956 1.377 . S
C957 C963 1.390 . S
C958 H949 0.930 . S
C958 C956 1.384 . S
C958 C959 1.372 . S
C959 C958 1.372 . S
C959 C960 1.400 . S
C959 C964 1.490 . S
C960 H950 0.930 . S
C960 C959 1.400 . S
C960 C963 1.386 . S
H961 C977 0.930 . S
H962 C978 0.931 . S
C963 H951 0.929 . S
C963 C957 1.390 . S
C963 C960 1.386 . S
C964 C959 1.490 . S
C964 C966 1.395 . S
C964 C967 1.403 . S
H965 C971 0.930 . S
C966 H952 0.930 . S
C966 C964 1.395 . S
C966 C969 1.403 . S
C967 C964 1.403 . S
C967 C968 1.524 . S
C967 C971 1.400 . S
C968 H953 0.960 . S
C968 H954 0.960 . S
C968 H955 0.960 . S
C968 C967 1.524 . S
C969 C966 1.403 . S
C969 C970 1.392 . S
C969 C973 1.495 . S
C970 C969 1.392 . S
C970 C971 1.385 . S
C970 C972 1.478 . S
C971 H965 0.930 . S
C971 C967 1.400 . S
C971 C970 1.385 . S
C972 C970 1.478 . S
C972 C974 1.381 . S
C972 C978 1.383 . S
C973 C969 1.495 . S
C973 H979 0.959 . S
C973 H980 0.961 . S
C973 H981 0.960 . S
C974 C972 1.381 . S
C974 C975 1.394 . S
C974 H982 0.930 . S
C975 C974 1.394 . S
C975 C976 1.383 . S
C975 H983 0.929 . S
C976 C975 1.383 . S
C976 C977 1.377 . S
C977 H961 0.930 . S
C977 C976 1.377 . S
C977 C978 1.379 . S
C978 H962 0.931 . S
C978 C972 1.383 . S
C978 C977 1.379 . S
H979 C973 0.959 . S
H980 C973 0.961 . S
H981 C973 0.960 . S
H982 C974 0.930 . S
H983 C975 0.929 . S
H984 C992 0.929 . S
H985 C994 0.930 . S
H986 C996 0.930 . S
H987 C999 0.929 . S
H988 C1002 0.930 . S
H989 C1004 0.960 . S
H990 C1004 0.960 . S
H991 C1004 0.960 . S
C992 H984 0.929 . S
C992 C993 1.377 . S
C992 C994 1.384 . S
C993 C992 1.377 . S
C993 C999 1.390 . S
C994 H985 0.930 . S
C994 C992 1.384 . S
C994 C995 1.372 . S
C995 C994 1.372 . S
C995 C996 1.400 . S
C995 C1000 1.490 . S
C996 H986 0.930 . S
C996 C995 1.400 . S
C996 C999 1.386 . S
H997 C1013 0.926 1_545 S
H998 C1014 0.931 . S
C999 H987 0.929 . S
C999 C993 1.390 . S
C999 C996 1.386 . S
C1000 C995 1.490 . S
C1000 C1002 1.395 . S
C1000 C1003 1.403 . S
H1001 C1007 0.930 . S
C1002 H988 0.930 . S
C1002 C1000 1.395 . S
C1002 C1005 1.403 . S
C1003 C1000 1.403 . S
C1003 C1004 1.524 . S
C1003 C1007 1.400 . S
C1004 H989 0.960 . S
C1004 H990 0.960 . S
C1004 H991 0.960 . S
C1004 C1003 1.524 . S
C1005 C1002 1.403 . S
C1005 C1006 1.392 . S
C1005 C1009 1.495 . S
C1006 C1005 1.392 . S
C1006 C1007 1.385 . S
C1006 C1008 1.478 . S
C1007 H1001 0.930 . S
C1007 C1003 1.400 . S
C1007 C1006 1.385 . S
C1008 C1006 1.478 . S
C1008 C1010 1.381 . S
C1008 C1014 1.383 . S
C1009 C1005 1.495 . S
C1009 H1015 0.959 . S
C1009 H1016 0.961 . S
C1009 H1017 0.960 . S
C1010 C1008 1.381 . S
C1010 C1011 1.394 . S
C1010 H1018 0.930 . S
C1011 C1010 1.394 . S
C1011 C1012 1.383 . S
C1011 H1019 0.929 . S
C1012 C1011 1.383 . S
C1012 C1013 1.377 . S
C1013 H997 0.926 1_565 S
C1013 C1012 1.377 . S
C1013 C1014 1.379 . S
C1014 H998 0.931 . S
C1014 C1008 1.383 . S
C1014 C1013 1.379 . S
H1015 C1009 0.959 . S
H1016 C1009 0.961 . S
H1017 C1009 0.960 . S
H1018 C1010 0.930 . S
H1019 C1011 0.929 . S
H1020 C1028 0.929 . S
H1021 C1030 0.930 . S
H1022 C1032 0.930 . S
H1023 C1035 0.929 . S
H1024 C1038 0.930 . S
H1025 C1040 0.960 . S
H1026 C1040 0.960 . S
H1027 C1040 0.960 . S
C1028 H1020 0.929 . S
C1028 C1029 1.377 . S
C1028 C1030 1.384 . S
C1029 C1028 1.377 . S
C1029 C1035 1.390 . S
C1030 H1021 0.930 . S
C1030 C1028 1.384 . S
C1030 C1031 1.372 . S
C1031 C1030 1.372 . S
C1031 C1032 1.400 . S
C1031 C1036 1.490 . S
C1032 H1022 0.930 . S
C1032 C1031 1.400 . S
C1032 C1035 1.386 . S
H1033 C1049 0.930 . S
H1034 C1050 0.931 . S
C1035 H1023 0.929 . S
C1035 C1029 1.390 . S
C1035 C1032 1.386 . S
C1036 C1031 1.490 . S
C1036 C1038 1.395 . S
C1036 C1039 1.403 . S
H1037 C1043 0.930 . S
C1038 H1024 0.930 . S
C1038 C1036 1.395 . S
C1038 C1041 1.403 . S
C1039 C1036 1.403 . S
C1039 C1040 1.524 . S
C1039 C1043 1.400 . S
C1040 H1025 0.960 . S
C1040 H1026 0.960 . S
C1040 H1027 0.960 . S
C1040 C1039 1.524 . S
C1041 C1038 1.403 . S
C1041 C1042 1.392 . S
C1041 C1045 1.495 . S
C1042 C1041 1.392 . S
C1042 C1043 1.385 . S
C1042 C1044 1.478 . S
C1043 H1037 0.930 . S
C1043 C1039 1.400 . S
C1043 C1042 1.385 . S
C1044 C1042 1.478 . S
C1044 C1046 1.381 . S
C1044 C1050 1.383 . S
C1045 C1041 1.495 . S
C1045 H1051 0.959 . S
C1045 H1052 0.961 . S
C1045 H1053 0.960 . S
C1046 C1044 1.381 . S
C1046 C1047 1.394 . S
C1046 H1054 0.930 . S
C1047 C1046 1.394 . S
C1047 C1048 1.383 . S
C1047 H1055 0.929 . S
C1048 C1047 1.383 . S
C1048 C1049 1.377 . S
C1049 H1033 0.930 . S
C1049 C1048 1.377 . S
C1049 C1050 1.379 . S
C1050 H1034 0.931 . S
C1050 C1044 1.383 . S
C1050 C1049 1.379 . S
H1051 C1045 0.959 . S
H1052 C1045 0.961 . S
H1053 C1045 0.960 . S
H1054 C1046 0.930 . S
H1055 C1047 0.929 . S
H1056 C1064 0.929 . S
H1057 C1066 0.930 . S
H1058 C1068 0.930 . S
H1059 C1071 0.929 . S
H1060 C1074 0.930 . S
H1061 C1076 0.960 . S
H1062 C1076 0.960 . S
H1063 C1076 0.960 . S
C1064 H1056 0.929 . S
C1064 C1065 1.377 . S
C1064 C1066 1.384 . S
C1065 C1064 1.377 . S
C1065 C1071 1.390 . S
C1066 H1057 0.930 . S
C1066 C1064 1.384 . S
C1066 C1067 1.372 . S
C1067 C1066 1.372 . S
C1067 C1068 1.400 . S
C1067 C1072 1.490 . S
C1068 H1058 0.930 . S
C1068 C1067 1.400 . S
C1068 C1071 1.386 . S
H1069 C1085 0.930 . S
H1070 C1086 0.931 . S
C1071 H1059 0.929 . S
C1071 C1065 1.390 . S
C1071 C1068 1.386 . S
C1072 C1067 1.490 . S
C1072 C1074 1.395 . S
C1072 C1075 1.403 . S
H1073 C1079 0.930 . S
C1074 H1060 0.930 . S
C1074 C1072 1.395 . S
C1074 C1077 1.403 . S
C1075 C1072 1.403 . S
C1075 C1076 1.524 . S
C1075 C1079 1.400 . S
C1076 H1061 0.960 . S
C1076 H1062 0.960 . S
C1076 H1063 0.960 . S
C1076 C1075 1.524 . S
C1077 C1074 1.403 . S
C1077 C1078 1.392 . S
C1077 C1081 1.495 . S
C1078 C1077 1.392 . S
C1078 C1079 1.385 . S
C1078 C1080 1.478 . S
C1079 H1073 0.930 . S
C1079 C1075 1.400 . S
C1079 C1078 1.385 . S
C1080 C1078 1.478 . S
C1080 C1082 1.381 . S
C1080 C1086 1.383 . S
C1081 C1077 1.495 . S
C1081 H1087 0.959 . S
C1081 H1088 0.961 . S
C1081 H1089 0.960 . S
C1082 C1080 1.381 . S
C1082 C1083 1.394 . S
C1082 H1090 0.930 . S
C1083 C1082 1.394 . S
C1083 C1084 1.383 . S
C1083 H1091 0.929 . S
C1084 C1083 1.383 . S
C1084 C1085 1.377 . S
C1085 H1069 0.930 . S
C1085 C1084 1.377 . S
C1085 C1086 1.379 . S
C1086 H1070 0.931 . S
C1086 C1080 1.383 . S
C1086 C1085 1.379 . S
H1087 C1081 0.959 . S
H1088 C1081 0.961 . S
H1089 C1081 0.960 . S
H1090 C1082 0.930 . S
H1091 C1083 0.929 . S
H1092 C1100 0.929 . S
H1093 C1102 0.930 . S
H1094 C1104 0.930 . S
H1095 C1107 0.929 . S
H1096 C1110 0.930 . S
H1097 C1112 0.960 . S
H1098 C1112 0.960 . S
H1099 C1112 0.960 . S
C1100 H1092 0.929 . S
C1100 C1101 1.377 . S
C1100 C1102 1.384 . S
C1101 C1100 1.377 . S
C1101 C1107 1.390 . S
C1102 H1093 0.930 . S
C1102 C1100 1.384 . S
C1102 C1103 1.372 . S
C1103 C1102 1.372 . S
C1103 C1104 1.400 . S
C1103 C1108 1.490 . S
C1104 H1094 0.930 . S
C1104 C1103 1.400 . S
C1104 C1107 1.386 . S
H1105 C1121 0.930 . S
H1106 C1122 0.931 . S
C1107 H1095 0.929 . S
C1107 C1101 1.390 . S
C1107 C1104 1.386 . S
C1108 C1103 1.490 . S
C1108 C1110 1.395 . S
C1108 C1111 1.403 . S
H1109 C1115 0.930 . S
C1110 H1096 0.930 . S
C1110 C1108 1.395 . S
C1110 C1113 1.403 . S
C1111 C1108 1.403 . S
C1111 C1112 1.524 . S
C1111 C1115 1.400 . S
C1112 H1097 0.960 . S
C1112 H1098 0.960 . S
C1112 H1099 0.960 . S
C1112 C1111 1.524 . S
C1113 C1110 1.403 . S
C1113 C1114 1.392 . S
C1113 C1117 1.495 . S
C1114 C1113 1.392 . S
C1114 C1115 1.385 . S
C1114 C1116 1.478 . S
C1115 H1109 0.930 . S
C1115 C1111 1.400 . S
C1115 C1114 1.385 . S
C1116 C1114 1.478 . S
C1116 C1118 1.381 . S
C1116 C1122 1.383 . S
C1117 C1113 1.495 . S
C1117 H1123 0.959 . S
C1117 H1124 0.961 . S
C1117 H1125 0.960 . S
C1118 C1116 1.381 . S
C1118 C1119 1.394 . S
C1118 H1126 0.930 . S
C1119 C1118 1.394 . S
C1119 C1120 1.383 . S
C1119 H1127 0.929 . S
C1120 C1119 1.383 . S
C1120 C1121 1.377 . S
C1121 H1105 0.930 . S
C1121 C1120 1.377 . S
C1121 C1122 1.379 . S
C1122 H1106 0.931 . S
C1122 C1116 1.383 . S
C1122 C1121 1.379 . S
H1123 C1117 0.959 . S
H1124 C1117 0.961 . S
H1125 C1117 0.960 . S
H1126 C1118 0.930 . S
H1127 C1119 0.929 . S
H1128 C1136 0.929 . S
H1129 C1138 0.930 . S
H1130 C1140 0.930 . S
H1131 C1143 0.929 . S
H1132 C1146 0.930 . S
H1133 C1148 0.960 . S
H1134 C1148 0.960 . S
H1135 C1148 0.960 . S
C1136 H1128 0.929 . S
C1136 C1137 1.377 . S
C1136 C1138 1.384 . S
C1137 C1136 1.377 . S
C1137 C1143 1.390 . S
C1138 H1129 0.930 . S
C1138 C1136 1.384 . S
C1138 C1139 1.372 . S
C1139 C1138 1.372 . S
C1139 C1140 1.400 . S
C1139 C1144 1.490 . S
C1140 H1130 0.930 . S
C1140 C1139 1.400 . S
C1140 C1143 1.386 . S
H1141 C1157 0.930 . S
H1142 C1158 0.931 . S
C1143 H1131 0.929 . S
C1143 C1137 1.390 . S
C1143 C1140 1.386 . S
C1144 C1139 1.490 . S
C1144 C1146 1.395 . S
C1144 C1147 1.403 . S
H1145 C1151 0.930 . S
C1146 H1132 0.930 . S
C1146 C1144 1.395 . S
C1146 C1149 1.403 . S
C1147 C1144 1.403 . S
C1147 C1148 1.524 . S
C1147 C1151 1.400 . S
C1148 H1133 0.960 . S
C1148 H1134 0.960 . S
C1148 H1135 0.960 . S
C1148 C1147 1.524 . S
C1149 C1146 1.403 . S
C1149 C1150 1.392 . S
C1149 C1153 1.495 . S
C1150 C1149 1.392 . S
C1150 C1151 1.385 . S
C1150 C1152 1.478 . S
C1151 H1145 0.930 . S
C1151 C1147 1.400 . S
C1151 C1150 1.385 . S
C1152 C1150 1.478 . S
C1152 C1154 1.381 . S
C1152 C1158 1.383 . S
C1153 C1149 1.495 . S
C1153 H1159 0.959 . S
C1153 H1160 0.961 . S
C1153 H1161 0.960 . S
C1154 C1152 1.381 . S
C1154 C1155 1.394 . S
C1154 H1162 0.930 . S
C1155 C1154 1.394 . S
C1155 C1156 1.383 . S
C1155 H1163 0.929 . S
C1156 C1155 1.383 . S
C1156 C1157 1.377 . S
C1157 H1141 0.930 . S
C1157 C1156 1.377 . S
C1157 C1158 1.379 . S
C1158 H1142 0.931 . S
C1158 C1152 1.383 . S
C1158 C1157 1.379 . S
H1159 C1153 0.959 . S
H1160 C1153 0.961 . S
H1161 C1153 0.960 . S
H1162 C1154 0.930 . S
H1163 C1155 0.929 . S
H1164 C1172 0.929 . S
H1165 C1174 0.930 . S
H1166 C1176 0.930 . S
H1167 C1179 0.929 . S
H1168 C1182 0.930 . S
H1169 C1184 0.960 . S
H1170 C1184 0.960 . S
H1171 C1184 0.960 . S
C1172 H1164 0.929 . S
C1172 C1173 1.377 . S
C1172 C1174 1.384 . S
C1173 C1172 1.377 . S
C1173 C1179 1.390 . S
C1174 H1165 0.930 . S
C1174 C1172 1.384 . S
C1174 C1175 1.372 . S
C1175 C1174 1.372 . S
C1175 C1176 1.400 . S
C1175 C1180 1.490 . S
C1176 H1166 0.930 . S
C1176 C1175 1.400 . S
C1176 C1179 1.386 . S
H1177 C1193 0.930 . S
H1178 C1194 0.931 . S
C1179 H1167 0.929 . S
C1179 C1173 1.390 . S
C1179 C1176 1.386 . S
C1180 C1175 1.490 . S
C1180 C1182 1.395 . S
C1180 C1183 1.403 . S
H1181 C1187 0.930 . S
C1182 H1168 0.930 . S
C1182 C1180 1.395 . S
C1182 C1185 1.403 . S
C1183 C1180 1.403 . S
C1183 C1184 1.524 . S
C1183 C1187 1.400 . S
C1184 H1169 0.960 . S
C1184 H1170 0.960 . S
C1184 H1171 0.960 . S
C1184 C1183 1.524 . S
C1185 C1182 1.403 . S
C1185 C1186 1.392 . S
C1185 C1189 1.495 . S
C1186 C1185 1.392 . S
C1186 C1187 1.385 . S
C1186 C1188 1.478 . S
C1187 H1181 0.930 . S
C1187 C1183 1.400 . S
C1187 C1186 1.385 . S
C1188 C1186 1.478 . S
C1188 C1190 1.381 . S
C1188 C1194 1.383 . S
C1189 C1185 1.495 . S
C1189 H1195 0.959 . S
C1189 H1196 0.961 . S
C1189 H1197 0.960 . S
C1190 C1188 1.381 . S
C1190 C1191 1.394 . S
C1190 H1198 0.930 . S
C1191 C1190 1.394 . S
C1191 C1192 1.383 . S
C1191 H1199 0.929 . S
C1192 C1191 1.383 . S
C1192 C1193 1.377 . S
C1193 H1177 0.930 . S
C1193 C1192 1.377 . S
C1193 C1194 1.379 . S
C1194 H1178 0.931 . S
C1194 C1188 1.383 . S
C1194 C1193 1.379 . S
H1195 C1189 0.959 . S
H1196 C1189 0.961 . S
H1197 C1189 0.960 . S
H1198 C1190 0.930 . S
H1199 C1191 0.929 . S
H1200 C1208 0.929 . S
H1201 C1210 0.930 . S
H1202 C1212 0.930 . S
H1203 C1215 0.929 . S
H1204 C1218 0.930 . S
H1205 C1220 0.960 . S
H1206 C1220 0.960 . S
H1207 C1220 0.960 . S
C1208 H1200 0.929 . S
C1208 C1209 1.377 . S
C1208 C1210 1.384 . S
C1209 C1208 1.377 . S
C1209 C1215 1.390 . S
C1210 H1201 0.930 . S
C1210 C1208 1.384 . S
C1210 C1211 1.372 . S
C1211 C1210 1.372 . S
C1211 C1212 1.400 . S
C1211 C1216 1.490 . S
C1212 H1202 0.930 . S
C1212 C1211 1.400 . S
C1212 C1215 1.386 . S
H1213 C1229 0.930 . S
H1214 C1230 0.931 . S
C1215 H1203 0.929 . S
C1215 C1209 1.390 . S
C1215 C1212 1.386 . S
C1216 C1211 1.490 . S
C1216 C1218 1.395 . S
C1216 C1219 1.403 . S
H1217 C1223 0.930 . S
C1218 H1204 0.930 . S
C1218 C1216 1.395 . S
C1218 C1221 1.403 . S
C1219 C1216 1.403 . S
C1219 C1220 1.524 . S
C1219 C1223 1.400 . S
C1220 H1205 0.960 . S
C1220 H1206 0.960 . S
C1220 H1207 0.960 . S
C1220 C1219 1.524 . S
C1221 C1218 1.403 . S
C1221 C1222 1.392 . S
C1221 C1225 1.495 . S
C1222 C1221 1.392 . S
C1222 C1223 1.385 . S
C1222 C1224 1.478 . S
C1223 H1217 0.930 . S
C1223 C1219 1.400 . S
C1223 C1222 1.385 . S
C1224 C1222 1.478 . S
C1224 C1226 1.381 . S
C1224 C1230 1.383 . S
C1225 C1221 1.495 . S
C1225 H1231 0.959 . S
C1225 H1232 0.961 . S
C1225 H1233 0.960 . S
C1226 C1224 1.381 . S
C1226 C1227 1.394 . S
C1226 H1234 0.930 . S
C1227 C1226 1.394 . S
C1227 C1228 1.383 . S
C1227 H1235 0.929 . S
C1228 C1227 1.383 . S
C1228 C1229 1.377 . S
C1229 H1213 0.930 . S
C1229 C1228 1.377 . S
C1229 C1230 1.379 . S
C1230 H1214 0.931 . S
C1230 C1224 1.383 . S
C1230 C1229 1.379 . S
H1231 C1225 0.959 . S
H1232 C1225 0.961 . S
H1233 C1225 0.960 . S
H1234 C1226 0.930 . S
H1235 C1227 0.929 . S
H1236 C1244 0.929 . S
H1237 C1246 0.930 . S
H1238 C1248 0.930 . S
H1239 C1251 0.929 . S
H1240 C1254 0.930 . S
H1241 C1256 0.960 . S
H1242 C1256 0.960 . S
H1243 C1256 0.960 . S
C1244 H1236 0.929 . S
C1244 C1245 1.377 . S
C1244 C1246 1.384 . S
C1245 C1244 1.377 . S
C1245 C1251 1.390 . S
C1246 H1237 0.930 . S
C1246 C1244 1.384 . S
C1246 C1247 1.372 . S
C1247 C1246 1.372 . S
C1247 C1248 1.400 . S
C1247 C1252 1.490 . S
C1248 H1238 0.930 . S
C1248 C1247 1.400 . S
C1248 C1251 1.386 . S
H1249 C1265 0.930 . S
H1250 C1266 0.931 . S
C1251 H1239 0.929 . S
C1251 C1245 1.390 . S
C1251 C1248 1.386 . S
C1252 C1247 1.490 . S
C1252 C1254 1.395 . S
C1252 C1255 1.403 . S
H1253 C1259 0.930 . S
C1254 H1240 0.930 . S
C1254 C1252 1.395 . S
C1254 C1257 1.403 . S
C1255 C1252 1.403 . S
C1255 C1256 1.524 . S
C1255 C1259 1.400 . S
C1256 H1241 0.960 . S
C1256 H1242 0.960 . S
C1256 H1243 0.960 . S
C1256 C1255 1.524 . S
C1257 C1254 1.403 . S
C1257 C1258 1.392 . S
C1257 C1261 1.495 . S
C1258 C1257 1.392 . S
C1258 C1259 1.385 . S
C1258 C1260 1.478 . S
C1259 H1253 0.930 . S
C1259 C1255 1.400 . S
C1259 C1258 1.385 . S
C1260 C1258 1.478 . S
C1260 C1262 1.381 . S
C1260 C1266 1.383 . S
C1261 C1257 1.495 . S
C1261 H1267 0.959 . S
C1261 H1268 0.961 . S
C1261 H1269 0.960 . S
C1262 C1260 1.381 . S
C1262 C1263 1.394 . S
C1262 H1270 0.930 . S
C1263 C1262 1.394 . S
C1263 C1264 1.383 . S
C1263 H1271 0.929 . S
C1264 C1263 1.383 . S
C1264 C1265 1.377 . S
C1265 H1249 0.930 . S
C1265 C1264 1.377 . S
C1265 C1266 1.379 . S
C1266 H1250 0.931 . S
C1266 C1260 1.383 . S
C1266 C1265 1.379 . S
H1267 C1261 0.959 . S
H1268 C1261 0.961 . S
H1269 C1261 0.960 . S
H1270 C1262 0.930 . S
H1271 C1263 0.929 . S
H1272 C1280 0.929 . S
H1273 C1282 0.930 . S
H1274 C1284 0.930 . S
H1275 C1287 0.929 . S
H1276 C1290 0.930 . S
H1277 C1292 0.960 . S
H1278 C1292 0.960 . S
H1279 C1292 0.960 . S
C1280 H1272 0.929 . S
C1280 C1281 1.377 . S
C1280 C1282 1.384 . S
C1281 C1280 1.377 . S
C1281 C1287 1.390 . S
C1282 H1273 0.930 . S
C1282 C1280 1.384 . S
C1282 C1283 1.372 . S
C1283 C1282 1.372 . S
C1283 C1284 1.400 . S
C1283 C1288 1.490 . S
C1284 H1274 0.930 . S
C1284 C1283 1.400 . S
C1284 C1287 1.386 . S
H1285 C1301 0.926 1_455 S
H1286 C1302 0.931 . S
C1287 H1275 0.929 . S
C1287 C1281 1.390 . S
C1287 C1284 1.386 . S
C1288 C1283 1.490 . S
C1288 C1290 1.395 . S
C1288 C1291 1.403 . S
H1289 C1295 0.930 . S
C1290 H1276 0.930 . S
C1290 C1288 1.395 . S
C1290 C1293 1.403 . S
C1291 C1288 1.403 . S
C1291 C1292 1.524 . S
C1291 C1295 1.400 . S
C1292 H1277 0.960 . S
C1292 H1278 0.960 . S
C1292 H1279 0.960 . S
C1292 C1291 1.524 . S
C1293 C1290 1.403 . S
C1293 C1294 1.392 . S
C1293 C1297 1.495 . S
C1294 C1293 1.392 . S
C1294 C1295 1.385 . S
C1294 C1296 1.478 . S
C1295 H1289 0.930 . S
C1295 C1291 1.400 . S
C1295 C1294 1.385 . S
C1296 C1294 1.478 . S
C1296 C1298 1.381 . S
C1296 C1302 1.383 . S
C1297 C1293 1.495 . S
C1297 H1303 0.959 . S
C1297 H1304 0.961 . S
C1297 H1305 0.960 . S
C1298 C1296 1.381 . S
C1298 C1299 1.394 . S
C1298 H1306 0.930 . S
C1299 C1298 1.394 . S
C1299 C1300 1.383 . S
C1299 H1307 0.929 . S
C1300 C1299 1.383 . S
C1300 C1301 1.377 . S
C1301 H1285 0.926 1_655 S
C1301 C1300 1.377 . S
C1301 C1302 1.379 . S
C1302 H1286 0.931 . S
C1302 C1296 1.383 . S
C1302 C1301 1.379 . S
H1303 C1297 0.959 . S
H1304 C1297 0.961 . S
H1305 C1297 0.960 . S
H1306 C1298 0.930 . S
H1307 C1299 0.929 . S
H1308 C1316 0.929 . S
H1309 C1318 0.930 . S
H1310 C1320 0.930 . S
H1311 C1323 0.929 . S
H1312 C1326 0.930 . S
H1313 C1328 0.960 . S
H1314 C1328 0.960 . S
H1315 C1328 0.960 . S
C1316 H1308 0.929 . S
C1316 C1317 1.377 . S
C1316 C1318 1.384 . S
C1317 C1316 1.377 . S
C1317 C1323 1.390 . S
C1318 H1309 0.930 . S
C1318 C1316 1.384 . S
C1318 C1319 1.372 . S
C1319 C1318 1.372 . S
C1319 C1320 1.400 . S
C1319 C1324 1.490 . S
C1320 H1310 0.930 . S
C1320 C1319 1.400 . S
C1320 C1323 1.386 . S
H1321 C1337 0.930 . S
H1322 C1338 0.931 . S
C1323 H1311 0.929 . S
C1323 C1317 1.390 . S
C1323 C1320 1.386 . S
C1324 C1319 1.490 . S
C1324 C1326 1.395 . S
C1324 C1327 1.403 . S
H1325 C1331 0.930 . S
C1326 H1312 0.930 . S
C1326 C1324 1.395 . S
C1326 C1329 1.403 . S
C1327 C1324 1.403 . S
C1327 C1328 1.524 . S
C1327 C1331 1.400 . S
C1328 H1313 0.960 . S
C1328 H1314 0.960 . S
C1328 H1315 0.960 . S
C1328 C1327 1.524 . S
C1329 C1326 1.403 . S
C1329 C1330 1.392 . S
C1329 C1333 1.495 . S
C1330 C1329 1.392 . S
C1330 C1331 1.385 . S
C1330 C1332 1.478 . S
C1331 H1325 0.930 . S
C1331 C1327 1.400 . S
C1331 C1330 1.385 . S
C1332 C1330 1.478 . S
C1332 C1334 1.381 . S
C1332 C1338 1.383 . S
C1333 C1329 1.495 . S
C1333 H1339 0.959 . S
C1333 H1340 0.961 . S
C1333 H1341 0.960 . S
C1334 C1332 1.381 . S
C1334 C1335 1.394 . S
C1334 H1342 0.930 . S
C1335 C1334 1.394 . S
C1335 C1336 1.383 . S
C1335 H1343 0.929 . S
C1336 C1335 1.383 . S
C1336 C1337 1.377 . S
C1337 H1321 0.930 . S
C1337 C1336 1.377 . S
C1337 C1338 1.379 . S
C1338 H1322 0.931 . S
C1338 C1332 1.383 . S
C1338 C1337 1.379 . S
H1339 C1333 0.959 . S
H1340 C1333 0.961 . S
H1341 C1333 0.960 . S
H1342 C1334 0.930 . S
H1343 C1335 0.929 . S
H1344 C1352 0.929 . S
H1345 C1354 0.930 . S
H1346 C1356 0.930 . S
H1347 C1359 0.929 . S
H1348 C1362 0.930 . S
H1349 C1364 0.960 . S
H1350 C1364 0.960 . S
H1351 C1364 0.960 . S
C1352 H1344 0.929 . S
C1352 C1353 1.377 . S
C1352 C1354 1.384 . S
C1353 C1352 1.377 . S
C1353 C1359 1.390 . S
C1354 H1345 0.930 . S
C1354 C1352 1.384 . S
C1354 C1355 1.372 . S
C1355 C1354 1.372 . S
C1355 C1356 1.400 . S
C1355 C1360 1.490 . S
C1356 H1346 0.930 . S
C1356 C1355 1.400 . S
C1356 C1359 1.386 . S
H1357 C1373 0.930 . S
H1358 C1374 0.931 . S
C1359 H1347 0.929 . S
C1359 C1353 1.390 . S
C1359 C1356 1.386 . S
C1360 C1355 1.490 . S
C1360 C1362 1.395 . S
C1360 C1363 1.403 . S
H1361 C1367 0.930 . S
C1362 H1348 0.930 . S
C1362 C1360 1.395 . S
C1362 C1365 1.403 . S
C1363 C1360 1.403 . S
C1363 C1364 1.524 . S
C1363 C1367 1.400 . S
C1364 H1349 0.960 . S
C1364 H1350 0.960 . S
C1364 H1351 0.960 . S
C1364 C1363 1.524 . S
C1365 C1362 1.403 . S
C1365 C1366 1.392 . S
C1365 C1369 1.495 . S
C1366 C1365 1.392 . S
C1366 C1367 1.385 . S
C1366 C1368 1.478 . S
C1367 H1361 0.930 . S
C1367 C1363 1.400 . S
C1367 C1366 1.385 . S
C1368 C1366 1.478 . S
C1368 C1370 1.381 . S
C1368 C1374 1.383 . S
C1369 C1365 1.495 . S
C1369 H1375 0.959 . S
C1369 H1376 0.961 . S
C1369 H1377 0.960 . S
C1370 C1368 1.381 . S
C1370 C1371 1.394 . S
C1370 H1378 0.930 . S
C1371 C1370 1.394 . S
C1371 C1372 1.383 . S
C1371 H1379 0.929 . S
C1372 C1371 1.383 . S
C1372 C1373 1.377 . S
C1373 H1357 0.930 . S
C1373 C1372 1.377 . S
C1373 C1374 1.379 . S
C1374 H1358 0.931 . S
C1374 C1368 1.383 . S
C1374 C1373 1.379 . S
H1375 C1369 0.959 . S
H1376 C1369 0.961 . S
H1377 C1369 0.960 . S
H1378 C1370 0.930 . S
H1379 C1371 0.929 . S
H1380 C1388 0.929 . S
H1381 C1390 0.930 . S
H1382 C1392 0.930 . S
H1383 C1395 0.929 . S
H1384 C1398 0.930 . S
H1385 C1400 0.960 . S
H1386 C1400 0.960 . S
H1387 C1400 0.960 . S
C1388 H1380 0.929 . S
C1388 C1389 1.377 . S
C1388 C1390 1.384 . S
C1389 C1388 1.377 . S
C1389 C1395 1.390 . S
C1390 H1381 0.930 . S
C1390 C1388 1.384 . S
C1390 C1391 1.372 . S
C1391 C1390 1.372 . S
C1391 C1392 1.400 . S
C1391 C1396 1.490 . S
C1392 H1382 0.930 . S
C1392 C1391 1.400 . S
C1392 C1395 1.386 . S
H1393 C1409 0.930 . S
H1394 C1410 0.931 . S
C1395 H1383 0.929 . S
C1395 C1389 1.390 . S
C1395 C1392 1.386 . S
C1396 C1391 1.490 . S
C1396 C1398 1.395 . S
C1396 C1399 1.403 . S
H1397 C1403 0.930 . S
C1398 H1384 0.930 . S
C1398 C1396 1.395 . S
C1398 C1401 1.403 . S
C1399 C1396 1.403 . S
C1399 C1400 1.524 . S
C1399 C1403 1.400 . S
C1400 H1385 0.960 . S
C1400 H1386 0.960 . S
C1400 H1387 0.960 . S
C1400 C1399 1.524 . S
C1401 C1398 1.403 . S
C1401 C1402 1.392 . S
C1401 C1405 1.495 . S
C1402 C1401 1.392 . S
C1402 C1403 1.385 . S
C1402 C1404 1.478 . S
C1403 H1397 0.930 . S
C1403 C1399 1.400 . S
C1403 C1402 1.385 . S
C1404 C1402 1.478 . S
C1404 C1406 1.381 . S
C1404 C1410 1.383 . S
C1405 C1401 1.495 . S
C1405 H1411 0.959 . S
C1405 H1412 0.961 . S
C1405 H1413 0.960 . S
C1406 C1404 1.381 . S
C1406 C1407 1.394 . S
C1406 H1414 0.930 . S
C1407 C1406 1.394 . S
C1407 C1408 1.383 . S
C1407 H1415 0.929 . S
C1408 C1407 1.383 . S
C1408 C1409 1.377 . S
C1409 H1393 0.930 . S
C1409 C1408 1.377 . S
C1409 C1410 1.379 . S
C1410 H1394 0.931 . S
C1410 C1404 1.383 . S
C1410 C1409 1.379 . S
H1411 C1405 0.959 . S
H1412 C1405 0.961 . S
H1413 C1405 0.960 . S
H1414 C1406 0.930 . S
H1415 C1407 0.929 . S
H1416 C1424 0.929 . S
H1417 C1426 0.930 . S
H1418 C1428 0.930 . S
H1419 C1431 0.929 . S
H1420 C1434 0.930 . S
H1421 C1436 0.960 . S
H1422 C1436 0.960 . S
H1423 C1436 0.960 . S
C1424 H1416 0.929 . S
C1424 C1425 1.377 . S
C1424 C1426 1.384 . S
C1425 C1424 1.377 . S
C1425 C1431 1.390 . S
C1426 H1417 0.930 . S
C1426 C1424 1.384 . S
C1426 C1427 1.372 . S
C1427 C1426 1.372 . S
C1427 C1428 1.400 . S
C1427 C1432 1.490 . S
C1428 H1418 0.930 . S
C1428 C1427 1.400 . S
C1428 C1431 1.386 . S
H1429 C1445 0.930 . S
H1430 C1446 0.931 . S
C1431 H1419 0.929 . S
C1431 C1425 1.390 . S
C1431 C1428 1.386 . S
C1432 C1427 1.490 . S
C1432 C1434 1.395 . S
C1432 C1435 1.403 . S
H1433 C1439 0.930 . S
C1434 H1420 0.930 . S
C1434 C1432 1.395 . S
C1434 C1437 1.403 . S
C1435 C1432 1.403 . S
C1435 C1436 1.524 . S
C1435 C1439 1.400 . S
C1436 H1421 0.960 . S
C1436 H1422 0.960 . S
C1436 H1423 0.960 . S
C1436 C1435 1.524 . S
C1437 C1434 1.403 . S
C1437 C1438 1.392 . S
C1437 C1441 1.495 . S
C1438 C1437 1.392 . S
C1438 C1439 1.385 . S
C1438 C1440 1.478 . S
C1439 H1433 0.930 . S
C1439 C1435 1.400 . S
C1439 C1438 1.385 . S
C1440 C1438 1.478 . S
C1440 C1442 1.381 . S
C1440 C1446 1.383 . S
C1441 C1437 1.495 . S
C1441 H1447 0.959 . S
C1441 H1448 0.961 . S
C1441 H1449 0.960 . S
C1442 C1440 1.381 . S
C1442 C1443 1.394 . S
C1442 H1450 0.930 . S
C1443 C1442 1.394 . S
C1443 C1444 1.383 . S
C1443 H1451 0.929 . S
C1444 C1443 1.383 . S
C1444 C1445 1.377 . S
C1445 H1429 0.930 . S
C1445 C1444 1.377 . S
C1445 C1446 1.379 . S
C1446 H1430 0.931 . S
C1446 C1440 1.383 . S
C1446 C1445 1.379 . S
H1447 C1441 0.959 . S
H1448 C1441 0.961 . S
H1449 C1441 0.960 . S
H1450 C1442 0.930 . S
H1451 C1443 0.929 . S
H1452 C1460 0.929 . S
H1453 C1462 0.930 . S
H1454 C1464 0.930 . S
H1455 C1467 0.929 . S
H1456 C1470 0.930 . S
H1457 C1472 0.960 . S
H1458 C1472 0.960 . S
H1459 C1472 0.960 . S
C1460 H1452 0.929 . S
C1460 C1461 1.377 . S
C1460 C1462 1.384 . S
C1461 C1460 1.377 . S
C1461 C1467 1.390 . S
C1462 H1453 0.930 . S
C1462 C1460 1.384 . S
C1462 C1463 1.372 . S
C1463 C1462 1.372 . S
C1463 C1464 1.400 . S
C1463 C1468 1.490 . S
C1464 H1454 0.930 . S
C1464 C1463 1.400 . S
C1464 C1467 1.386 . S
H1465 C1481 0.930 . S
H1466 C1482 0.931 . S
C1467 H1455 0.929 . S
C1467 C1461 1.390 . S
C1467 C1464 1.386 . S
C1468 C1463 1.490 . S
C1468 C1470 1.395 . S
C1468 C1471 1.403 . S
H1469 C1475 0.930 . S
C1470 H1456 0.930 . S
C1470 C1468 1.395 . S
C1470 C1473 1.403 . S
C1471 C1468 1.403 . S
C1471 C1472 1.524 . S
C1471 C1475 1.400 . S
C1472 H1457 0.960 . S
C1472 H1458 0.960 . S
C1472 H1459 0.960 . S
C1472 C1471 1.524 . S
C1473 C1470 1.403 . S
C1473 C1474 1.392 . S
C1473 C1477 1.495 . S
C1474 C1473 1.392 . S
C1474 C1475 1.385 . S
C1474 C1476 1.478 . S
C1475 H1469 0.930 . S
C1475 C1471 1.400 . S
C1475 C1474 1.385 . S
C1476 C1474 1.478 . S
C1476 C1478 1.381 . S
C1476 C1482 1.383 . S
C1477 C1473 1.495 . S
C1477 H1483 0.959 . S
C1477 H1484 0.961 . S
C1477 H1485 0.960 . S
C1478 C1476 1.381 . S
C1478 C1479 1.394 . S
C1478 H1486 0.930 . S
C1479 C1478 1.394 . S
C1479 C1480 1.383 . S
C1479 H1487 0.929 . S
C1480 C1479 1.383 . S
C1480 C1481 1.377 . S
C1481 H1465 0.930 . S
C1481 C1480 1.377 . S
C1481 C1482 1.379 . S
C1482 H1466 0.931 . S
C1482 C1476 1.383 . S
C1482 C1481 1.379 . S
H1483 C1477 0.959 . S
H1484 C1477 0.961 . S
H1485 C1477 0.960 . S
H1486 C1478 0.930 . S
H1487 C1479 0.929 . S
H1488 C1496 0.929 . S
H1489 C1498 0.930 . S
H1490 C1500 0.930 . S
H1491 C1503 0.929 . S
H1492 C1506 0.930 . S
H1493 C1508 0.960 . S
H1494 C1508 0.960 . S
H1495 C1508 0.960 . S
C1496 H1488 0.929 . S
C1496 C1497 1.377 . S
C1496 C1498 1.384 . S
C1497 C1496 1.377 . S
C1497 C1503 1.390 . S
C1498 H1489 0.930 . S
C1498 C1496 1.384 . S
C1498 C1499 1.372 . S
C1499 C1498 1.372 . S
C1499 C1500 1.400 . S
C1499 C1504 1.490 . S
C1500 H1490 0.930 . S
C1500 C1499 1.400 . S
C1500 C1503 1.386 . S
H1501 C1517 0.930 . S
H1502 C1518 0.931 . S
C1503 H1491 0.929 . S
C1503 C1497 1.390 . S
C1503 C1500 1.386 . S
C1504 C1499 1.490 . S
C1504 C1506 1.395 . S
C1504 C1507 1.403 . S
H1505 C1511 0.930 . S
C1506 H1492 0.930 . S
C1506 C1504 1.395 . S
C1506 C1509 1.403 . S
C1507 C1504 1.403 . S
C1507 C1508 1.524 . S
C1507 C1511 1.400 . S
C1508 H1493 0.960 . S
C1508 H1494 0.960 . S
C1508 H1495 0.960 . S
C1508 C1507 1.524 . S
C1509 C1506 1.403 . S
C1509 C1510 1.392 . S
C1509 C1513 1.495 . S
C1510 C1509 1.392 . S
C1510 C1511 1.385 . S
C1510 C1512 1.478 . S
C1511 H1505 0.930 . S
C1511 C1507 1.400 . S
C1511 C1510 1.385 . S
C1512 C1510 1.478 . S
C1512 C1514 1.381 . S
C1512 C1518 1.383 . S
C1513 C1509 1.495 . S
C1513 H1519 0.959 . S
C1513 H1520 0.961 . S
C1513 H1521 0.960 . S
C1514 C1512 1.381 . S
C1514 C1515 1.394 . S
C1514 H1522 0.930 . S
C1515 C1514 1.394 . S
C1515 C1516 1.383 . S
C1515 H1523 0.929 . S
C1516 C1515 1.383 . S
C1516 C1517 1.377 . S
C1517 H1501 0.930 . S
C1517 C1516 1.377 . S
C1517 C1518 1.379 . S
C1518 H1502 0.931 . S
C1518 C1512 1.383 . S
C1518 C1517 1.379 . S
H1519 C1513 0.959 . S
H1520 C1513 0.961 . S
H1521 C1513 0.960 . S
H1522 C1514 0.930 . S
H1523 C1515 0.929 . S
H1524 C1532 0.929 . S
H1525 C1534 0.930 . S
H1526 C1536 0.930 . S
H1527 C1539 0.929 . S
H1528 C1542 0.930 . S
H1529 C1544 0.960 . S
H1530 C1544 0.960 . S
H1531 C1544 0.960 . S
C1532 H1524 0.929 . S
C1532 C1533 1.377 . S
C1532 C1534 1.384 . S
C1533 C1532 1.377 . S
C1533 C1539 1.390 1_545 S
C1534 H1525 0.930 . S
C1534 C1532 1.384 . S
C1534 C1535 1.372 1_545 S
C1535 C1534 1.372 1_565 S
C1535 C1536 1.400 . S
C1535 C1540 1.490 . S
C1536 H1526 0.930 . S
C1536 C1535 1.400 . S
C1536 C1539 1.386 . S
H1537 C1553 0.930 . S
H1538 C1554 0.931 . S
C1539 H1527 0.929 . S
C1539 C1533 1.390 1_565 S
C1539 C1536 1.386 . S
C1540 C1535 1.490 . S
C1540 C1542 1.395 . S
C1540 C1543 1.403 . S
H1541 C1547 0.930 . S
C1542 H1528 0.930 . S
C1542 C1540 1.395 . S
C1542 C1545 1.403 . S
C1543 C1540 1.403 . S
C1543 C1544 1.524 . S
C1543 C1547 1.400 . S
C1544 H1529 0.960 . S
C1544 H1530 0.960 . S
C1544 H1531 0.960 . S
C1544 C1543 1.524 . S
C1545 C1542 1.403 . S
C1545 C1546 1.392 . S
C1545 C1549 1.495 . S
C1546 C1545 1.392 . S
C1546 C1547 1.385 . S
C1546 C1548 1.478 . S
C1547 H1541 0.930 . S
C1547 C1543 1.400 . S
C1547 C1546 1.385 . S
C1548 C1546 1.478 . S
C1548 C1550 1.381 . S
C1548 C1554 1.383 . S
C1549 C1545 1.495 . S
C1549 H1555 0.959 . S
C1549 H1556 0.961 . S
C1549 H1557 0.960 . S
C1550 C1548 1.381 . S
C1550 C1551 1.394 . S
C1550 H1558 0.930 . S
C1551 C1550 1.394 . S
C1551 C1552 1.383 . S
C1551 H1559 0.929 . S
C1552 C1551 1.383 . S
C1552 C1553 1.377 . S
C1553 H1537 0.930 . S
C1553 C1552 1.377 . S
C1553 C1554 1.379 . S
C1554 H1538 0.931 . S
C1554 C1548 1.383 . S
C1554 C1553 1.379 . S
H1555 C1549 0.959 . S
H1556 C1549 0.961 . S
H1557 C1549 0.960 . S
H1558 C1550 0.930 . S
H1559 C1551 0.929 . S
H1560 C1568 0.929 . S
H1561 C1570 0.930 . S
H1562 C1572 0.930 . S
H1563 C1575 0.929 . S
H1564 C1578 0.930 . S
H1565 C1580 0.960 . S
H1566 C1580 0.960 . S
H1567 C1580 0.960 . S
C1568 H1560 0.929 . S
C1568 C1569 1.377 . S
C1568 C1570 1.384 . S
C1569 C1568 1.377 . S
C1569 C1575 1.390 . S
C1570 H1561 0.930 . S
C1570 C1568 1.384 . S
C1570 C1571 1.372 . S
C1571 C1570 1.372 . S
C1571 C1572 1.400 . S
C1571 C1576 1.490 . S
C1572 H1562 0.930 . S
C1572 C1571 1.400 . S
C1572 C1575 1.386 . S
H1573 C1589 0.930 . S
H1574 C1590 0.931 . S
C1575 H1563 0.929 . S
C1575 C1569 1.390 . S
C1575 C1572 1.386 . S
C1576 C1571 1.490 . S
C1576 C1578 1.395 . S
C1576 C1579 1.403 . S
H1577 C1583 0.930 . S
C1578 H1564 0.930 . S
C1578 C1576 1.395 . S
C1578 C1581 1.403 . S
C1579 C1576 1.403 . S
C1579 C1580 1.524 . S
C1579 C1583 1.400 . S
C1580 H1565 0.960 . S
C1580 H1566 0.960 . S
C1580 H1567 0.960 . S
C1580 C1579 1.524 . S
C1581 C1578 1.403 . S
C1581 C1582 1.392 . S
C1581 C1585 1.495 . S
C1582 C1581 1.392 . S
C1582 C1583 1.385 . S
C1582 C1584 1.478 . S
C1583 H1577 0.930 . S
C1583 C1579 1.400 . S
C1583 C1582 1.385 . S
C1584 C1582 1.478 . S
C1584 C1586 1.381 . S
C1584 C1590 1.383 . S
C1585 C1581 1.495 . S
C1585 H1591 0.959 . S
C1585 H1592 0.961 . S
C1585 H1593 0.960 . S
C1586 C1584 1.381 . S
C1586 C1587 1.394 . S
C1586 H1594 0.930 . S
C1587 C1586 1.394 . S
C1587 C1588 1.383 . S
C1587 H1595 0.929 . S
C1588 C1587 1.383 . S
C1588 C1589 1.377 . S
C1589 H1573 0.930 . S
C1589 C1588 1.377 . S
C1589 C1590 1.379 . S
C1590 H1574 0.931 . S
C1590 C1584 1.383 . S
C1590 C1589 1.379 . S
H1591 C1585 0.959 . S
H1592 C1585 0.961 . S
H1593 C1585 0.960 . S
H1594 C1586 0.930 . S
H1595 C1587 0.929 . S
H1596 C1604 0.929 . S
H1597 C1606 0.930 . S
H1598 C1608 0.930 1_565 S
H1599 C1611 0.929 . S
H1600 C1614 0.930 1_556 S
H1601 C1616 0.959 . S
H1602 C1616 0.957 . S
H1603 C1616 0.956 . S
C1604 H1596 0.929 . S
C1604 C1605 1.377 1_545 S
C1604 C1606 1.384 . S
C1605 C1604 1.377 1_565 S
C1605 C1611 1.390 . S
C1606 H1597 0.930 . S
C1606 C1604 1.384 . S
C1606 C1607 1.372 . S
C1607 C1606 1.372 . S
C1607 C1608 1.400 . S
C1607 C1612 1.490 1_556 S
C1608 H1598 0.930 1_545 S
C1608 C1607 1.400 . S
C1608 C1611 1.386 1_545 S
H1609 C1625 0.930 . S
H1610 C1626 0.931 . S
C1611 H1599 0.929 . S
C1611 C1605 1.390 . S
C1611 C1608 1.386 1_565 S
C1612 C1607 1.490 1_554 S
C1612 C1614 1.395 . S
C1612 C1615 1.403 . S
H1613 C1619 0.930 . S
C1614 H1600 0.930 1_554 S
C1614 C1612 1.395 . S
C1614 C1617 1.403 . S
C1615 C1612 1.403 . S
C1615 C1616 1.530 1_545 S
C1615 C1619 1.400 . S
C1616 H1601 0.959 . S
C1616 H1602 0.957 . S
C1616 H1603 0.956 . S
C1616 C1615 1.530 1_565 S
C1617 C1614 1.403 . S
C1617 C1618 1.392 . S
C1617 C1621 1.495 . S
C1618 C1617 1.392 . S
C1618 C1619 1.385 . S
C1618 C1620 1.478 . S
C1619 H1613 0.930 . S
C1619 C1615 1.400 . S
C1619 C1618 1.385 . S
C1620 C1618 1.478 . S
C1620 C1622 1.381 . S
C1620 C1626 1.383 . S
C1621 C1617 1.495 . S
C1621 H1627 0.905 1_554 S
C1621 H1628 0.961 . S
C1621 H1629 0.960 . S
C1622 C1620 1.381 . S
C1622 C1623 1.394 . S
C1622 H1630 0.930 . S
C1623 C1622 1.394 . S
C1623 C1624 1.383 . S
C1623 H1631 0.929 . S
C1624 C1623 1.383 . S
C1624 C1625 1.377 . S
C1625 H1609 0.930 . S
C1625 C1624 1.377 . S
C1625 C1626 1.379 . S
C1626 H1610 0.931 . S
C1626 C1620 1.383 . S
C1626 C1625 1.379 . S
H1627 C1621 0.905 1_556 S
H1628 C1621 0.961 . S
H1629 C1621 0.960 . S
H1630 C1622 0.930 . S
H1631 C1623 0.929 . S
H1632 C1640 0.929 . S
H1633 C1642 0.930 . S
H1634 C1644 0.930 . S
H1635 C1647 0.929 . S
H1636 C1650 0.930 . S
H1637 C1652 0.960 . S
H1638 C1652 0.960 . S
H1639 C1652 0.960 . S
C1640 H1632 0.929 . S
C1640 C1641 1.377 . S
C1640 C1642 1.384 . S
C1641 C1640 1.377 . S
C1641 C1647 1.390 . S
C1642 H1633 0.930 . S
C1642 C1640 1.384 . S
C1642 C1643 1.372 . S
C1643 C1642 1.372 . S
C1643 C1644 1.400 . S
C1643 C1648 1.490 . S
C1644 H1634 0.930 . S
C1644 C1643 1.400 . S
C1644 C1647 1.386 . S
H1645 C1661 0.930 . S
H1646 C1662 0.931 . S
C1647 H1635 0.929 . S
C1647 C1641 1.390 . S
C1647 C1644 1.386 . S
C1648 C1643 1.490 . S
C1648 C1650 1.395 . S
C1648 C1651 1.403 . S
H1649 C1655 0.930 . S
C1650 H1636 0.930 . S
C1650 C1648 1.395 . S
C1650 C1653 1.403 . S
C1651 C1648 1.403 . S
C1651 C1652 1.524 . S
C1651 C1655 1.400 . S
C1652 H1637 0.960 . S
C1652 H1638 0.960 . S
C1652 H1639 0.960 . S
C1652 C1651 1.524 . S
C1653 C1650 1.403 . S
C1653 C1654 1.392 . S
C1653 C1657 1.495 . S
C1654 C1653 1.392 . S
C1654 C1655 1.385 . S
C1654 C1656 1.478 . S
C1655 H1649 0.930 . S
C1655 C1651 1.400 . S
C1655 C1654 1.385 . S
C1656 C1654 1.478 . S
C1656 C1658 1.381 . S
C1656 C1662 1.383 . S
C1657 C1653 1.495 . S
C1657 H1663 0.959 . S
C1657 H1664 0.961 . S
C1657 H1665 0.960 . S
C1658 C1656 1.381 . S
C1658 C1659 1.394 . S
C1658 H1666 0.930 . S
C1659 C1658 1.394 . S
C1659 C1660 1.383 . S
C1659 H1667 0.929 . S
C1660 C1659 1.383 . S
C1660 C1661 1.377 . S
C1661 H1645 0.930 . S
C1661 C1660 1.377 . S
C1661 C1662 1.379 . S
C1662 H1646 0.931 . S
C1662 C1656 1.383 . S
C1662 C1661 1.379 . S
H1663 C1657 0.959 . S
H1664 C1657 0.961 . S
H1665 C1657 0.960 . S
H1666 C1658 0.930 . S
H1667 C1659 0.929 . S
H1668 C1676 0.929 . S
H1669 C1678 0.930 . S
H1670 C1680 0.930 1_545 S
H1671 C1683 0.929 . S
H1672 C1686 0.930 . S
H1673 C1688 0.960 . S
H1674 C1688 0.960 . S
H1675 C1688 0.960 . S
C1676 H1668 0.929 . S
C1676 C1677 1.377 1_565 S
C1676 C1678 1.384 . S
C1677 C1676 1.377 1_545 S
C1677 C1683 1.390 . S
C1678 H1669 0.930 . S
C1678 C1676 1.384 . S
C1678 C1679 1.372 . S
C1679 C1678 1.372 . S
C1679 C1680 1.400 . S
C1679 C1684 1.490 . S
C1680 H1670 0.930 1_565 S
C1680 C1679 1.400 . S
C1680 C1683 1.386 1_565 S
H1681 C1697 0.930 . S
H1682 C1698 0.931 . S
C1683 H1671 0.929 . S
C1683 C1677 1.390 . S
C1683 C1680 1.386 1_545 S
C1684 C1679 1.490 . S
C1684 C1686 1.395 . S
C1684 C1687 1.403 . S
H1685 C1691 0.930 . S
C1686 H1672 0.930 . S
C1686 C1684 1.395 . S
C1686 C1689 1.403 . S
C1687 C1684 1.403 . S
C1687 C1688 1.524 . S
C1687 C1691 1.400 . S
C1688 H1673 0.960 . S
C1688 H1674 0.960 . S
C1688 H1675 0.960 . S
C1688 C1687 1.524 . S
C1689 C1686 1.403 . S
C1689 C1690 1.392 . S
C1689 C1693 1.495 . S
C1690 C1689 1.392 . S
C1690 C1691 1.385 . S
C1690 C1692 1.478 . S
C1691 H1685 0.930 . S
C1691 C1687 1.400 . S
C1691 C1690 1.385 . S
C1692 C1690 1.478 . S
C1692 C1694 1.381 . S
C1692 C1698 1.383 . S
C1693 C1689 1.495 . S
C1693 H1699 0.959 . S
C1693 H1700 0.961 . S
C1693 H1701 0.960 . S
C1694 C1692 1.381 . S
C1694 C1695 1.394 . S
C1694 H1702 0.930 . S
C1695 C1694 1.394 . S
C1695 C1696 1.383 . S
C1695 H1703 0.929 . S
C1696 C1695 1.383 . S
C1696 C1697 1.377 . S
C1697 H1681 0.930 . S
C1697 C1696 1.377 . S
C1697 C1698 1.379 . S
C1698 H1682 0.931 . S
C1698 C1692 1.383 . S
C1698 C1697 1.379 . S
H1699 C1693 0.959 . S
H1700 C1693 0.961 . S
H1701 C1693 0.960 . S
H1702 C1694 0.930 . S
H1703 C1695 0.929 . S
H1704 C1712 0.929 . S
H1705 C1714 0.930 . S
H1706 C1716 0.930 . S
H1707 C1719 0.929 . S
H1708 C1722 0.930 . S
H1709 C1724 0.960 . S
H1710 C1724 0.960 . S
H1711 C1724 0.960 . S
C1712 H1704 0.929 . S
C1712 C1713 1.377 . S
C1712 C1714 1.384 . S
C1713 C1712 1.377 . S
C1713 C1719 1.390 . S
C1714 H1705 0.930 . S
C1714 C1712 1.384 . S
C1714 C1715 1.372 . S
C1715 C1714 1.372 . S
C1715 C1716 1.400 . S
C1715 C1720 1.490 . S
C1716 H1706 0.930 . S
C1716 C1715 1.400 . S
C1716 C1719 1.386 . S
H1717 C1733 0.930 . S
H1718 C1734 0.931 . S
C1719 H1707 0.929 . S
C1719 C1713 1.390 . S
C1719 C1716 1.386 . S
C1720 C1715 1.490 . S
C1720 C1722 1.395 . S
C1720 C1723 1.403 . S
H1721 C1727 0.930 . S
C1722 H1708 0.930 . S
C1722 C1720 1.395 . S
C1722 C1725 1.403 . S
C1723 C1720 1.403 . S
C1723 C1724 1.524 . S
C1723 C1727 1.400 . S
C1724 H1709 0.960 . S
C1724 H1710 0.960 . S
C1724 H1711 0.960 . S
C1724 C1723 1.524 . S
C1725 C1722 1.403 . S
C1725 C1726 1.392 . S
C1725 C1729 1.495 . S
C1726 C1725 1.392 . S
C1726 C1727 1.385 . S
C1726 C1728 1.478 . S
C1727 H1721 0.930 . S
C1727 C1723 1.400 . S
C1727 C1726 1.385 . S
C1728 C1726 1.478 . S
C1728 C1730 1.381 . S
C1728 C1734 1.383 . S
C1729 C1725 1.495 . S
C1729 H1735 0.959 . S
C1729 H1736 0.961 . S
C1729 H1737 0.960 . S
C1730 C1728 1.381 . S
C1730 C1731 1.394 . S
C1730 H1738 0.930 . S
C1731 C1730 1.394 . S
C1731 C1732 1.383 . S
C1731 H1739 0.929 . S
C1732 C1731 1.383 . S
C1732 C1733 1.377 . S
C1733 H1717 0.930 . S
C1733 C1732 1.377 . S
C1733 C1734 1.379 . S
C1734 H1718 0.931 . S
C1734 C1728 1.383 . S
C1734 C1733 1.379 . S
H1735 C1729 0.959 . S
H1736 C1729 0.961 . S
H1737 C1729 0.960 . S
H1738 C1730 0.930 . S
H1739 C1731 0.929 . S
H1740 C1748 0.929 . S
H1741 C1750 0.931 1_566 S
H1742 C1752 0.930 . S
H1743 C1755 0.929 . S
H1744 C1758 0.930 . S
H1745 C1760 0.960 . S
H1746 C1760 0.960 . S
H1747 C1760 0.960 . S
C1748 H1740 0.929 . S
C1748 C1749 1.377 . S
C1748 C1750 1.385 1_565 S
C1749 C1748 1.377 . S
C1749 C1755 1.390 1_565 S
C1750 H1741 0.931 1_544 S
C1750 C1748 1.385 1_545 S
C1750 C1751 1.370 . S
C1751 C1750 1.370 . S
C1751 C1752 1.400 . S
C1751 C1756 1.490 1_554 S
C1752 H1742 0.930 . S
C1752 C1751 1.400 . S
C1752 C1755 1.386 . S
H1753 C1769 0.930 . S
H1754 C1770 0.931 . S
C1755 H1743 0.929 . S
C1755 C1749 1.390 1_545 S
C1755 C1752 1.386 . S
C1756 C1751 1.490 1_556 S
C1756 C1758 1.395 . S
C1756 C1759 1.403 . S
H1757 C1763 0.930 . S
C1758 H1744 0.930 . S
C1758 C1756 1.395 . S
C1758 C1761 1.403 . S
C1759 C1756 1.403 . S
C1759 C1760 1.524 1_556 S
C1759 C1763 1.400 . S
C1760 H1745 0.960 . S
C1760 H1746 0.960 . S
C1760 H1747 0.960 . S
C1760 C1759 1.524 1_554 S
C1761 C1758 1.403 . S
C1761 C1762 1.392 . S
C1761 C1765 1.495 . S
C1762 C1761 1.392 . S
C1762 C1763 1.385 . S
C1762 C1764 1.478 . S
C1763 H1757 0.930 . S
C1763 C1759 1.400 . S
C1763 C1762 1.385 . S
C1764 C1762 1.478 . S
C1764 C1766 1.381 . S
C1764 C1770 1.383 . S
C1765 C1761 1.495 . S
C1765 H1771 0.959 . S
C1765 H1772 0.961 . S
C1765 H1773 0.960 . S
C1766 C1764 1.381 . S
C1766 C1767 1.394 . S
C1766 H1774 0.930 . S
C1767 C1766 1.394 . S
C1767 C1768 1.383 . S
C1767 H1775 0.929 . S
C1768 C1767 1.383 . S
C1768 C1769 1.377 . S
C1769 H1753 0.930 . S
C1769 C1768 1.377 . S
C1769 C1770 1.379 . S
C1770 H1754 0.931 . S
C1770 C1764 1.383 . S
C1770 C1769 1.379 . S
H1771 C1765 0.959 . S
H1772 C1765 0.961 . S
H1773 C1765 0.960 . S
H1774 C1766 0.930 . S
H1775 C1767 0.929 . S
H1776 C1784 0.929 . S
H1777 C1786 0.930 . S
H1778 C1788 0.930 . S
H1779 C1791 0.929 . S
H1780 C1794 0.930 . S
H1781 C1796 0.960 . S
H1782 C1796 0.960 . S
H1783 C1796 0.960 . S
C1784 H1776 0.929 . S
C1784 C1785 1.377 . S
C1784 C1786 1.384 . S
C1785 C1784 1.377 . S
C1785 C1791 1.390 . S
C1786 H1777 0.930 . S
C1786 C1784 1.384 . S
C1786 C1787 1.372 . S
C1787 C1786 1.372 . S
C1787 C1788 1.400 . S
C1787 C1792 1.490 . S
C1788 H1778 0.930 . S
C1788 C1787 1.400 . S
C1788 C1791 1.386 . S
H1789 C1805 0.930 . S
H1790 C1806 0.931 . S
C1791 H1779 0.929 . S
C1791 C1785 1.390 . S
C1791 C1788 1.386 . S
C1792 C1787 1.490 . S
C1792 C1794 1.395 . S
C1792 C1795 1.403 . S
H1793 C1799 0.930 . S
C1794 H1780 0.930 . S
C1794 C1792 1.395 . S
C1794 C1797 1.403 . S
C1795 C1792 1.403 . S
C1795 C1796 1.524 . S
C1795 C1799 1.400 . S
C1796 H1781 0.960 . S
C1796 H1782 0.960 . S
C1796 H1783 0.960 . S
C1796 C1795 1.524 . S
C1797 C1794 1.403 . S
C1797 C1798 1.392 . S
C1797 C1801 1.495 . S
C1798 C1797 1.392 . S
C1798 C1799 1.385 . S
C1798 C1800 1.478 . S
C1799 H1793 0.930 . S
C1799 C1795 1.400 . S
C1799 C1798 1.385 . S
C1800 C1798 1.478 . S
C1800 C1802 1.381 . S
C1800 C1806 1.383 . S
C1801 C1797 1.495 . S
C1801 H1807 0.959 . S
C1801 H1808 0.961 . S
C1801 H1809 0.960 . S
C1802 C1800 1.381 . S
C1802 C1803 1.394 . S
C1802 H1810 0.930 . S
C1803 C1802 1.394 . S
C1803 C1804 1.383 . S
C1803 H1811 0.929 . S
C1804 C1803 1.383 . S
C1804 C1805 1.377 . S
C1805 H1789 0.930 . S
C1805 C1804 1.377 . S
C1805 C1806 1.379 . S
C1806 H1790 0.931 . S
C1806 C1800 1.383 . S
C1806 C1805 1.379 . S
H1807 C1801 0.959 . S
H1808 C1801 0.961 . S
H1809 C1801 0.960 . S
H1810 C1802 0.930 . S
H1811 C1803 0.929 . S
H1812 C1820 0.929 . S
H1813 C1822 0.930 . S
H1814 C1824 0.915 1_645 S
H1815 C1827 0.929 . S
H1816 C1830 0.930 1_565 S
H1817 C1832 0.960 . S
H1818 C1832 0.960 . S
H1819 C1832 0.960 . S
C1820 H1812 0.929 . S
C1820 C1821 1.377 1_455 S
C1820 C1822 1.384 . S
C1821 C1820 1.377 1_655 S
C1821 C1827 1.390 . S
C1822 H1813 0.930 . S
C1822 C1820 1.384 . S
C1822 C1823 1.372 . S
C1823 C1822 1.372 . S
C1823 C1824 1.436 . S
C1823 C1828 1.490 1_565 S
C1824 H1814 0.915 1_465 S
C1824 C1823 1.436 . S
C1824 C1827 1.366 1_455 S
H1825 C1841 0.930 . S
H1826 C1842 0.931 . S
C1827 H1815 0.929 . S
C1827 C1821 1.390 . S
C1827 C1824 1.366 1_655 S
C1828 C1823 1.490 1_545 S
C1828 C1830 1.395 . S
C1828 C1831 1.403 . S
H1829 C1835 0.930 . S
C1830 H1816 0.930 1_545 S
C1830 C1828 1.395 . S
C1830 C1833 1.403 . S
C1831 C1828 1.403 . S
C1831 C1832 1.524 . S
C1831 C1835 1.400 . S
C1832 H1817 0.960 . S
C1832 H1818 0.960 . S
C1832 H1819 0.960 . S
C1832 C1831 1.524 . S
C1833 C1830 1.403 . S
C1833 C1834 1.392 . S
C1833 C1837 1.495 . S
C1834 C1833 1.392 . S
C1834 C1835 1.385 . S
C1834 C1836 1.478 . S
C1835 H1829 0.930 . S
C1835 C1831 1.400 . S
C1835 C1834 1.385 . S
C1836 C1834 1.478 . S
C1836 C1838 1.381 . S
C1836 C1842 1.383 . S
C1837 C1833 1.495 . S
C1837 H1843 0.959 1_545 S
C1837 H1844 0.961 . S
C1837 H1845 0.960 . S
C1838 C1836 1.381 . S
C1838 C1839 1.394 . S
C1838 H1846 0.930 . S
C1839 C1838 1.394 . S
C1839 C1840 1.383 . S
C1839 H1847 0.929 . S
C1840 C1839 1.383 . S
C1840 C1841 1.377 . S
C1841 H1825 0.930 . S
C1841 C1840 1.377 . S
C1841 C1842 1.379 . S
C1842 H1826 0.931 . S
C1842 C1836 1.383 . S
C1842 C1841 1.379 . S
H1843 C1837 0.959 1_565 S
H1844 C1837 0.961 . S
H1845 C1837 0.960 . S
H1846 C1838 0.930 . S
H1847 C1839 0.929 . S
H1848 C1856 0.929 . S
H1849 C1858 0.930 . S
H1850 C1860 0.930 . S
H1851 C1863 0.929 . S
H1852 C1866 0.930 . S
H1853 C1868 0.960 . S
H1854 C1868 0.960 . S
H1855 C1868 0.960 . S
C1856 H1848 0.929 . S
C1856 C1857 1.377 . S
C1856 C1858 1.384 . S
C1857 C1856 1.377 . S
C1857 C1863 1.390 . S
C1858 H1849 0.930 . S
C1858 C1856 1.384 . S
C1858 C1859 1.372 . S
C1859 C1858 1.372 . S
C1859 C1860 1.400 . S
C1859 C1864 1.490 . S
C1860 H1850 0.930 . S
C1860 C1859 1.400 . S
C1860 C1863 1.386 . S
H1861 C1877 0.930 . S
H1862 C1878 0.931 . S
C1863 H1851 0.929 . S
C1863 C1857 1.390 . S
C1863 C1860 1.386 . S
C1864 C1859 1.490 . S
C1864 C1866 1.395 . S
C1864 C1867 1.403 . S
H1865 C1871 0.930 . S
C1866 H1852 0.930 . S
C1866 C1864 1.395 . S
C1866 C1869 1.403 . S
C1867 C1864 1.403 . S
C1867 C1868 1.524 . S
C1867 C1871 1.400 . S
C1868 H1853 0.960 . S
C1868 H1854 0.960 . S
C1868 H1855 0.960 . S
C1868 C1867 1.524 . S
C1869 C1866 1.403 . S
C1869 C1870 1.392 . S
C1869 C1873 1.495 . S
C1870 C1869 1.392 . S
C1870 C1871 1.385 . S
C1870 C1872 1.478 . S
C1871 H1865 0.930 . S
C1871 C1867 1.400 . S
C1871 C1870 1.385 . S
C1872 C1870 1.478 . S
C1872 C1874 1.381 . S
C1872 C1878 1.383 . S
C1873 C1869 1.495 . S
C1873 H1879 0.959 . S
C1873 H1880 0.961 . S
C1873 H1881 0.960 . S
C1874 C1872 1.381 . S
C1874 C1875 1.394 . S
C1874 H1882 0.930 . S
C1875 C1874 1.394 . S
C1875 C1876 1.383 . S
C1875 H1883 0.929 . S
C1876 C1875 1.383 . S
C1876 C1877 1.377 . S
C1877 H1861 0.930 . S
C1877 C1876 1.377 . S
C1877 C1878 1.379 . S
C1878 H1862 0.931 . S
C1878 C1872 1.383 . S
C1878 C1877 1.379 . S
H1879 C1873 0.959 . S
H1880 C1873 0.961 . S
H1881 C1873 0.960 . S
H1882 C1874 0.930 . S
H1883 C1875 0.929 . S
H1884 C1892 0.929 . S
H1885 C1894 0.930 . S
H1886 C1896 0.901 1_565 S
H1887 C1899 0.929 . S
H1888 C1902 0.936 . S
H1889 C1904 0.960 . S
H1890 C1904 0.960 . S
H1891 C1904 0.960 . S
C1892 H1884 0.929 . S
C1892 C1893 1.377 . S
C1892 C1894 1.384 . S
C1893 C1892 1.377 . S
C1893 C1899 1.390 . S
C1894 H1885 0.930 . S
C1894 C1892 1.384 . S
C1894 C1895 1.372 . S
C1895 C1894 1.372 . S
C1895 C1896 1.400 . S
C1895 C1900 1.490 1_545 S
C1896 H1886 0.901 1_545 S
C1896 C1895 1.400 . S
C1896 C1899 1.386 . S
H1897 C1913 0.930 . S
H1898 C1914 0.931 . S
C1899 H1887 0.929 . S
C1899 C1893 1.390 . S
C1899 C1896 1.386 . S
C1900 C1895 1.490 1_565 S
C1900 C1902 1.393 1_565 S
C1900 C1903 1.403 . S
H1901 C1907 0.930 . S
C1902 H1888 0.936 . S
C1902 C1900 1.393 1_545 S
C1902 C1905 1.399 1_545 S
C1903 C1900 1.403 . S
C1903 C1904 1.524 . S
C1903 C1907 1.400 . S
C1904 H1889 0.960 . S
C1904 H1890 0.960 . S
C1904 H1891 0.960 . S
C1904 C1903 1.524 . S
C1905 C1902 1.399 1_565 S
C1905 C1906 1.392 . S
C1905 C1909 1.495 . S
C1906 C1905 1.392 . S
C1906 C1907 1.385 . S
C1906 C1908 1.478 . S
C1907 H1901 0.930 . S
C1907 C1903 1.400 . S
C1907 C1906 1.385 . S
C1908 C1906 1.478 . S
C1908 C1910 1.381 . S
C1908 C1914 1.383 . S
C1909 C1905 1.495 . S
C1909 H1915 0.959 1_565 S
C1909 H1916 0.961 . S
C1909 H1917 0.960 . S
C1910 C1908 1.381 . S
C1910 C1911 1.394 . S
C1910 H1918 0.930 . S
C1911 C1910 1.394 . S
C1911 C1912 1.383 . S
C1911 H1919 0.929 . S
C1912 C1911 1.383 . S
C1912 C1913 1.377 . S
C1913 H1897 0.930 . S
C1913 C1912 1.377 . S
C1913 C1914 1.379 . S
C1914 H1898 0.931 . S
C1914 C1908 1.383 . S
C1914 C1913 1.379 . S
H1915 C1909 0.959 1_545 S
H1916 C1909 0.961 . S
H1917 C1909 0.960 . S
H1918 C1910 0.930 . S
H1919 C1911 0.929 . S
H1920 C1928 0.929 . S
H1921 C1930 0.930 . S
H1922 C1932 0.930 . S
H1923 C1935 0.929 . S
H1924 C1938 0.930 . S
H1925 C1940 0.960 . S
H1926 C1940 0.960 . S
H1927 C1940 0.960 . S
C1928 H1920 0.929 . S
C1928 C1929 1.377 . S
C1928 C1930 1.384 . S
C1929 C1928 1.377 . S
C1929 C1935 1.390 . S
C1930 H1921 0.930 . S
C1930 C1928 1.384 . S
C1930 C1931 1.372 . S
C1931 C1930 1.372 . S
C1931 C1932 1.400 . S
C1931 C1936 1.490 . S
C1932 H1922 0.930 . S
C1932 C1931 1.400 . S
C1932 C1935 1.386 . S
H1933 C1949 0.930 . S
H1934 C1950 0.931 . S
C1935 H1923 0.929 . S
C1935 C1929 1.390 . S
C1935 C1932 1.386 . S
C1936 C1931 1.490 . S
C1936 C1938 1.395 . S
C1936 C1939 1.403 . S
H1937 C1943 0.930 . S
C1938 H1924 0.930 . S
C1938 C1936 1.395 . S
C1938 C1941 1.403 . S
C1939 C1936 1.403 . S
C1939 C1940 1.524 . S
C1939 C1943 1.400 . S
C1940 H1925 0.960 . S
C1940 H1926 0.960 . S
C1940 H1927 0.960 . S
C1940 C1939 1.524 . S
C1941 C1938 1.403 . S
C1941 C1942 1.392 . S
C1941 C1945 1.495 . S
C1942 C1941 1.392 . S
C1942 C1943 1.385 . S
C1942 C1944 1.478 . S
C1943 H1937 0.930 . S
C1943 C1939 1.400 . S
C1943 C1942 1.385 . S
C1944 C1942 1.478 . S
C1944 C1946 1.381 . S
C1944 C1950 1.383 . S
C1945 C1941 1.495 . S
C1945 H1951 0.959 . S
C1945 H1952 0.961 . S
C1945 H1953 0.960 . S
C1946 C1944 1.381 . S
C1946 C1947 1.394 . S
C1946 H1954 0.930 . S
C1947 C1946 1.394 . S
C1947 C1948 1.383 . S
C1947 H1955 0.929 . S
C1948 C1947 1.383 . S
C1948 C1949 1.377 . S
C1949 H1933 0.930 . S
C1949 C1948 1.377 . S
C1949 C1950 1.379 . S
C1950 H1934 0.931 . S
C1950 C1944 1.383 . S
C1950 C1949 1.379 . S
H1951 C1945 0.959 . S
H1952 C1945 0.961 . S
H1953 C1945 0.960 . S
H1954 C1946 0.930 . S
H1955 C1947 0.929 . S
H1956 C1964 0.929 . S
H1957 C1966 0.930 . S
H1958 C1968 0.930 . S
H1959 C1971 0.929 . S
H1960 C1974 0.930 . S
H1961 C1976 0.960 . S
H1962 C1976 0.960 . S
H1963 C1976 0.960 . S
C1964 H1956 0.929 . S
C1964 C1965 1.377 . S
C1964 C1966 1.384 . S
C1965 C1964 1.377 . S
C1965 C1971 1.390 . S
C1966 H1957 0.930 . S
C1966 C1964 1.384 . S
C1966 C1967 1.372 . S
C1967 C1966 1.372 . S
C1967 C1968 1.400 . S
C1967 C1972 1.490 1_565 S
C1968 H1958 0.930 . S
C1968 C1967 1.400 . S
C1968 C1971 1.386 . S
H1969 C1985 0.930 . S
H1970 C1986 0.931 . S
C1971 H1959 0.929 . S
C1971 C1965 1.390 . S
C1971 C1968 1.386 . S
C1972 C1967 1.490 1_545 S
C1972 C1974 1.395 . S
C1972 C1975 1.403 . S
H1973 C1979 0.930 . S
C1974 H1960 0.930 . S
C1974 C1972 1.395 . S
C1974 C1977 1.403 . S
C1975 C1972 1.403 . S
C1975 C1976 1.524 1_545 S
C1975 C1979 1.400 . S
C1976 H1961 0.960 . S
C1976 H1962 0.960 . S
C1976 H1963 0.960 . S
C1976 C1975 1.524 1_565 S
C1977 C1974 1.403 . S
C1977 C1978 1.392 . S
C1977 C1981 1.495 . S
C1978 C1977 1.392 . S
C1978 C1979 1.385 . S
C1978 C1980 1.478 . S
C1979 H1973 0.930 . S
C1979 C1975 1.400 . S
C1979 C1978 1.385 . S
C1980 C1978 1.478 . S
C1980 C1982 1.381 . S
C1980 C1986 1.383 . S
C1981 C1977 1.495 . S
C1981 H1987 0.959 . S
C1981 H1988 0.961 . S
C1981 H1989 0.960 . S
C1982 C1980 1.381 . S
C1982 C1983 1.394 . S
C1982 H1990 0.930 . S
C1983 C1982 1.394 . S
C1983 C1984 1.383 . S
C1983 H1991 0.929 . S
C1984 C1983 1.383 . S
C1984 C1985 1.377 . S
C1985 H1969 0.930 . S
C1985 C1984 1.377 . S
C1985 C1986 1.379 . S
C1986 H1970 0.931 . S
C1986 C1980 1.383 . S
C1986 C1985 1.379 . S
H1987 C1981 0.959 . S
H1988 C1981 0.961 . S
H1989 C1981 0.960 . S
H1990 C1982 0.930 . S
H1991 C1983 0.929 . S
H1992 C2000 0.929 . S
H1993 C2002 0.930 . S
H1994 C2004 0.930 . S
H1995 C2007 0.929 . S
H1996 C2010 0.930 . S
H1997 C2012 0.960 . S
H1998 C2012 0.960 . S
H1999 C2012 0.960 . S
C2000 H1992 0.929 . S
C2000 C2001 1.377 . S
C2000 C2002 1.384 . S
C2001 C2000 1.377 . S
C2001 C2007 1.390 . S
C2002 H1993 0.930 . S
C2002 C2000 1.384 . S
C2002 C2003 1.372 . S
C2003 C2002 1.372 . S
C2003 C2004 1.400 . S
C2003 C2008 1.490 . S
C2004 H1994 0.930 . S
C2004 C2003 1.400 . S
C2004 C2007 1.386 . S
H2005 C2021 0.930 . S
H2006 C2022 0.931 . S
C2007 H1995 0.929 . S
C2007 C2001 1.390 . S
C2007 C2004 1.386 . S
C2008 C2003 1.490 . S
C2008 C2010 1.395 . S
C2008 C2011 1.403 . S
H2009 C2015 0.930 . S
C2010 H1996 0.930 . S
C2010 C2008 1.395 . S
C2010 C2013 1.403 . S
C2011 C2008 1.403 . S
C2011 C2012 1.524 . S
C2011 C2015 1.400 . S
C2012 H1997 0.960 . S
C2012 H1998 0.960 . S
C2012 H1999 0.960 . S
C2012 C2011 1.524 . S
C2013 C2010 1.403 . S
C2013 C2014 1.392 . S
C2013 C2017 1.495 . S
C2014 C2013 1.392 . S
C2014 C2015 1.385 . S
C2014 C2016 1.478 . S
C2015 H2009 0.930 . S
C2015 C2011 1.400 . S
C2015 C2014 1.385 . S
C2016 C2014 1.478 . S
C2016 C2018 1.381 . S
C2016 C2022 1.383 . S
C2017 C2013 1.495 . S
C2017 H2023 0.959 . S
C2017 H2024 0.961 . S
C2017 H2025 0.960 . S
C2018 C2016 1.381 . S
C2018 C2019 1.394 . S
C2018 H2026 0.930 . S
C2019 C2018 1.394 . S
C2019 C2020 1.383 . S
C2019 H2027 0.929 . S
C2020 C2019 1.383 . S
C2020 C2021 1.377 . S
C2021 H2005 0.930 . S
C2021 C2020 1.377 . S
C2021 C2022 1.379 . S
C2022 H2006 0.931 . S
C2022 C2016 1.383 . S
C2022 C2021 1.379 . S
H2023 C2017 0.959 . S
H2024 C2017 0.961 . S
H2025 C2017 0.960 . S
H2026 C2018 0.930 . S
H2027 C2019 0.929 . S
H2028 C2036 0.929 . S
H2029 C2038 0.930 . S
H2030 C2040 0.930 . S
H2031 C2043 0.929 . S
H2032 C2046 0.930 . S
H2033 C2048 0.960 . S
H2034 C2048 0.960 . S
H2035 C2048 0.960 . S
C2036 H2028 0.929 . S
C2036 C2037 1.377 . S
C2036 C2038 1.384 . S
C2037 C2036 1.377 . S
C2037 C2043 1.390 . S
C2038 H2029 0.930 . S
C2038 C2036 1.384 . S
C2038 C2039 1.372 . S
C2039 C2038 1.372 . S
C2039 C2040 1.400 . S
C2039 C2044 1.490 . S
C2040 H2030 0.930 . S
C2040 C2039 1.400 . S
C2040 C2043 1.386 . S
H2041 C2057 0.948 . S
H2042 C2058 0.931 1_565 S
C2043 H2031 0.929 . S
C2043 C2037 1.390 . S
C2043 C2040 1.386 . S
C2044 C2039 1.490 . S
C2044 C2046 1.395 . S
C2044 C2047 1.403 . S
H2045 C2051 0.930 . S
C2046 H2032 0.930 . S
C2046 C2044 1.395 . S
C2046 C2049 1.403 . S
C2047 C2044 1.403 . S
C2047 C2048 1.524 . S
C2047 C2051 1.400 . S
C2048 H2033 0.960 . S
C2048 H2034 0.960 . S
C2048 H2035 0.960 . S
C2048 C2047 1.524 . S
C2049 C2046 1.403 . S
C2049 C2050 1.392 . S
C2049 C2053 1.495 1_565 S
C2050 C2049 1.392 . S
C2050 C2051 1.385 . S
C2050 C2052 1.478 1_565 S
C2051 H2045 0.930 . S
C2051 C2047 1.400 . S
C2051 C2050 1.385 . S
C2052 C2050 1.478 1_545 S
C2052 C2054 1.381 . S
C2052 C2058 1.383 . S
C2053 C2049 1.495 1_545 S
C2053 H2059 0.959 . S
C2053 H2060 0.961 . S
C2053 H2061 0.960 . S
C2054 C2052 1.381 . S
C2054 C2055 1.394 . S
C2054 H2062 0.930 . S
C2055 C2054 1.394 . S
C2055 C2056 1.377 1_455 S
C2055 H2063 0.929 . S
C2056 C2055 1.377 1_655 S
C2056 C2057 1.371 1_655 S
C2057 H2041 0.948 . S
C2057 C2056 1.371 1_455 S
C2057 C2058 1.379 . S
C2058 H2042 0.931 1_545 S
C2058 C2052 1.383 . S
C2058 C2057 1.379 . S
H2059 C2053 0.959 . S
H2060 C2053 0.961 . S
H2061 C2053 0.960 . S
H2062 C2054 0.930 . S
H2063 C2055 0.929 . S
H2064 C2072 0.929 . S
H2065 C2074 0.930 . S
H2066 C2076 0.930 . S
H2067 C2079 0.929 . S
H2068 C2082 0.930 . S
H2069 C2084 0.960 . S
H2070 C2084 0.960 . S
H2071 C2084 0.960 . S
C2072 H2064 0.929 . S
C2072 C2073 1.377 . S
C2072 C2074 1.384 . S
C2073 C2072 1.377 . S
C2073 C2079 1.390 . S
C2074 H2065 0.930 . S
C2074 C2072 1.384 . S
C2074 C2075 1.372 . S
C2075 C2074 1.372 . S
C2075 C2076 1.400 . S
C2075 C2080 1.490 . S
C2076 H2066 0.930 . S
C2076 C2075 1.400 . S
C2076 C2079 1.386 . S
H2077 C2093 0.930 . S
H2078 C2094 0.931 . S
C2079 H2067 0.929 . S
C2079 C2073 1.390 . S
C2079 C2076 1.386 . S
C2080 C2075 1.490 . S
C2080 C2082 1.395 . S
C2080 C2083 1.403 . S
H2081 C2087 0.930 . S
C2082 H2068 0.930 . S
C2082 C2080 1.395 . S
C2082 C2085 1.403 . S
C2083 C2080 1.403 . S
C2083 C2084 1.524 . S
C2083 C2087 1.400 . S
C2084 H2069 0.960 . S
C2084 H2070 0.960 . S
C2084 H2071 0.960 . S
C2084 C2083 1.524 . S
C2085 C2082 1.403 . S
C2085 C2086 1.392 . S
C2085 C2089 1.495 . S
C2086 C2085 1.392 . S
C2086 C2087 1.385 . S
C2086 C2088 1.478 . S
C2087 H2081 0.930 . S
C2087 C2083 1.400 . S
C2087 C2086 1.385 . S
C2088 C2086 1.478 . S
C2088 C2090 1.381 . S
C2088 C2094 1.383 . S
C2089 C2085 1.495 . S
C2089 H2095 0.959 . S
C2089 H2096 0.961 . S
C2089 H2097 0.960 . S
C2090 C2088 1.381 . S
C2090 C2091 1.394 . S
C2090 H2098 0.930 . S
C2091 C2090 1.394 . S
C2091 C2092 1.383 . S
C2091 H2099 0.929 . S
C2092 C2091 1.383 . S
C2092 C2093 1.377 . S
C2093 H2077 0.930 . S
C2093 C2092 1.377 . S
C2093 C2094 1.379 . S
C2094 H2078 0.931 . S
C2094 C2088 1.383 . S
C2094 C2093 1.379 . S
H2095 C2089 0.959 . S
H2096 C2089 0.961 . S
H2097 C2089 0.960 . S
H2098 C2090 0.930 . S
H2099 C2091 0.929 . S
H2100 C2108 0.929 . S
H2101 C2110 0.930 . S
H2102 C2112 0.930 . S
H2103 C2115 0.929 . S
H2104 C2118 0.930 . S
H2105 C2120 0.960 . S
H2106 C2120 0.960 . S
H2107 C2120 0.960 . S
C2108 H2100 0.929 . S
C2108 C2109 1.377 . S
C2108 C2110 1.384 . S
C2109 C2108 1.377 . S
C2109 C2115 1.390 . S
C2110 H2101 0.930 . S
C2110 C2108 1.384 . S
C2110 C2111 1.372 . S
C2111 C2110 1.372 . S
C2111 C2112 1.400 . S
C2111 C2116 1.490 . S
C2112 H2102 0.930 . S
C2112 C2111 1.400 . S
C2112 C2115 1.386 . S
H2113 C2129 0.930 . S
H2114 C2130 0.931 . S
C2115 H2103 0.929 . S
C2115 C2109 1.390 . S
C2115 C2112 1.386 . S
C2116 C2111 1.490 . S
C2116 C2118 1.395 . S
C2116 C2119 1.403 . S
H2117 C2123 0.930 . S
C2118 H2104 0.930 . S
C2118 C2116 1.395 . S
C2118 C2121 1.403 . S
C2119 C2116 1.403 . S
C2119 C2120 1.524 . S
C2119 C2123 1.400 . S
C2120 H2105 0.960 . S
C2120 H2106 0.960 . S
C2120 H2107 0.960 . S
C2120 C2119 1.524 . S
C2121 C2118 1.403 . S
C2121 C2122 1.392 . S
C2121 C2125 1.495 . S
C2122 C2121 1.392 . S
C2122 C2123 1.385 . S
C2122 C2124 1.478 . S
C2123 H2117 0.930 . S
C2123 C2119 1.400 . S
C2123 C2122 1.385 . S
C2124 C2122 1.478 . S
C2124 C2126 1.381 . S
C2124 C2130 1.383 . S
C2125 C2121 1.495 . S
C2125 H2131 0.959 . S
C2125 H2132 0.961 . S
C2125 H2133 0.960 . S
C2126 C2124 1.381 . S
C2126 C2127 1.394 . S
C2126 H2134 0.930 . S
C2127 C2126 1.394 . S
C2127 C2128 1.383 . S
C2127 H2135 0.929 . S
C2128 C2127 1.383 . S
C2128 C2129 1.377 . S
C2129 H2113 0.930 . S
C2129 C2128 1.377 . S
C2129 C2130 1.379 . S
C2130 H2114 0.931 . S
C2130 C2124 1.383 . S
C2130 C2129 1.379 . S
H2131 C2125 0.959 . S
H2132 C2125 0.961 . S
H2133 C2125 0.960 . S
H2134 C2126 0.930 . S
H2135 C2127 0.929 . S
H2136 C2144 0.929 . S
H2137 C2146 0.930 1_456 S
H2138 C2148 0.930 . S
H2139 C2151 0.929 . S
H2140 C2154 0.930 . S
H2141 C2156 0.966 . S
H2142 C2156 0.960 . S
H2143 C2156 0.960 . S
C2144 H2136 0.929 . S
C2144 C2145 1.377 . S
C2144 C2146 1.384 1_556 S
C2145 C2144 1.377 . S
C2145 C2151 1.390 1_556 S
C2146 H2137 0.930 1_654 S
C2146 C2144 1.384 1_554 S
C2146 C2147 1.372 . S
C2147 C2146 1.372 . S
C2147 C2148 1.400 . S
C2147 C2152 1.490 1_655 S
C2148 H2138 0.930 . S
C2148 C2147 1.400 . S
C2148 C2151 1.386 . S
H2149 C2165 0.930 . S
H2150 C2166 0.931 . S
C2151 H2139 0.929 . S
C2151 C2145 1.390 1_554 S
C2151 C2148 1.386 . S
C2152 C2147 1.490 1_455 S
C2152 C2154 1.395 . S
C2152 C2155 1.403 . S
H2153 C2159 0.930 . S
C2154 H2140 0.930 . S
C2154 C2152 1.395 . S
C2154 C2157 1.403 . S
C2155 C2152 1.403 . S
C2155 C2156 1.524 1_455 S
C2155 C2159 1.400 . S
C2156 H2141 0.966 . S
C2156 H2142 0.960 . S
C2156 H2143 0.960 . S
C2156 C2155 1.524 1_655 S
C2157 C2154 1.403 . S
C2157 C2158 1.392 . S
C2157 C2161 1.495 . S
C2158 C2157 1.392 . S
C2158 C2159 1.385 . S
C2158 C2160 1.478 . S
C2159 H2153 0.930 . S
C2159 C2155 1.400 . S
C2159 C2158 1.385 . S
C2160 C2158 1.478 . S
C2160 C2162 1.381 . S
C2160 C2166 1.383 . S
C2161 C2157 1.495 . S
C2161 H2167 0.959 . S
C2161 H2168 0.961 . S
C2161 H2169 0.960 . S
C2162 C2160 1.381 . S
C2162 C2163 1.394 . S
C2162 H2170 0.930 . S
C2163 C2162 1.394 . S
C2163 C2164 1.383 . S
C2163 H2171 0.929 . S
C2164 C2163 1.383 . S
C2164 C2165 1.377 . S
C2165 H2149 0.930 . S
C2165 C2164 1.377 . S
C2165 C2166 1.379 . S
C2166 H2150 0.931 . S
C2166 C2160 1.383 . S
C2166 C2165 1.379 . S
H2167 C2161 0.959 . S
H2168 C2161 0.961 . S
H2169 C2161 0.960 . S
H2170 C2162 0.930 . S
H2171 C2163 0.929 . S
H2172 C2180 0.929 . S
H2173 C2182 0.930 . S
H2174 C2184 0.930 . S
H2175 C2187 0.929 . S
H2176 C2190 0.930 . S
H2177 C2192 0.960 . S
H2178 C2192 0.960 . S
H2179 C2192 0.960 . S
C2180 H2172 0.929 . S
C2180 C2181 1.377 . S
C2180 C2182 1.384 . S
C2181 C2180 1.377 . S
C2181 C2187 1.390 . S
C2182 H2173 0.930 . S
C2182 C2180 1.384 . S
C2182 C2183 1.372 . S
C2183 C2182 1.372 . S
C2183 C2184 1.400 . S
C2183 C2188 1.490 . S
C2184 H2174 0.930 . S
C2184 C2183 1.400 . S
C2184 C2187 1.386 . S
H2185 C2201 0.930 . S
H2186 C2202 0.931 . S
C2187 H2175 0.929 . S
C2187 C2181 1.390 . S
C2187 C2184 1.386 . S
C2188 C2183 1.490 . S
C2188 C2190 1.395 . S
C2188 C2191 1.403 . S
H2189 C2195 0.930 . S
C2190 H2176 0.930 . S
C2190 C2188 1.395 . S
C2190 C2193 1.403 . S
C2191 C2188 1.403 . S
C2191 C2192 1.524 . S
C2191 C2195 1.400 . S
C2192 H2177 0.960 . S
C2192 H2178 0.960 . S
C2192 H2179 0.960 . S
C2192 C2191 1.524 . S
C2193 C2190 1.403 . S
C2193 C2194 1.392 . S
C2193 C2197 1.495 . S
C2194 C2193 1.392 . S
C2194 C2195 1.385 . S
C2194 C2196 1.478 . S
C2195 H2189 0.930 . S
C2195 C2191 1.400 . S
C2195 C2194 1.385 . S
C2196 C2194 1.478 . S
C2196 C2198 1.381 . S
C2196 C2202 1.383 . S
C2197 C2193 1.495 . S
C2197 H2203 0.959 . S
C2197 H2204 0.961 . S
C2197 H2205 0.960 . S
C2198 C2196 1.381 . S
C2198 C2199 1.394 . S
C2198 H2206 0.930 . S
C2199 C2198 1.394 . S
C2199 C2200 1.383 . S
C2199 H2207 0.929 . S
C2200 C2199 1.383 . S
C2200 C2201 1.377 . S
C2201 H2185 0.930 . S
C2201 C2200 1.377 . S
C2201 C2202 1.379 . S
C2202 H2186 0.931 . S
C2202 C2196 1.383 . S
C2202 C2201 1.379 . S
H2203 C2197 0.959 . S
H2204 C2197 0.961 . S
H2205 C2197 0.960 . S
H2206 C2198 0.930 . S
H2207 C2199 0.929 . S
H2208 C2216 0.929 . S
H2209 C2218 0.930 1_655 S
H2210 C2220 0.930 . S
H2211 C2223 0.929 . S
H2212 C2226 0.930 . S
H2213 C2228 0.960 . S
H2214 C2228 0.960 . S
H2215 C2228 0.960 . S
C2216 H2208 0.929 . S
C2216 C2217 1.377 . S
C2216 C2218 1.384 . S
C2217 C2216 1.377 . S
C2217 C2223 1.390 1_556 S
C2218 H2209 0.930 1_455 S
C2218 C2216 1.384 . S
C2218 C2219 1.372 1_556 S
C2219 C2218 1.372 1_554 S
C2219 C2220 1.400 . S
C2219 C2224 1.490 1_455 S
C2220 H2210 0.930 . S
C2220 C2219 1.400 . S
C2220 C2223 1.386 . S
H2221 C2237 0.930 . S
H2222 C2238 0.931 . S
C2223 H2211 0.929 . S
C2223 C2217 1.390 1_554 S
C2223 C2220 1.386 . S
C2224 C2219 1.490 1_655 S
C2224 C2226 1.395 . S
C2224 C2227 1.403 . S
H2225 C2231 0.930 . S
C2226 H2212 0.930 . S
C2226 C2224 1.395 . S
C2226 C2229 1.403 . S
C2227 C2224 1.403 . S
C2227 C2228 1.524 1_655 S
C2227 C2231 1.400 . S
C2228 H2213 0.960 . S
C2228 H2214 0.960 . S
C2228 H2215 0.960 . S
C2228 C2227 1.524 1_455 S
C2229 C2226 1.403 . S
C2229 C2230 1.392 . S
C2229 C2233 1.495 . S
C2230 C2229 1.392 . S
C2230 C2231 1.385 . S
C2230 C2232 1.478 . S
C2231 H2225 0.930 . S
C2231 C2227 1.400 . S
C2231 C2230 1.385 . S
C2232 C2230 1.478 . S
C2232 C2234 1.381 . S
C2232 C2238 1.383 . S
C2233 C2229 1.495 . S
C2233 H2239 0.959 . S
C2233 H2240 0.961 . S
C2233 H2241 0.960 . S
C2234 C2232 1.381 . S
C2234 C2235 1.394 . S
C2234 H2242 0.930 . S
C2235 C2234 1.394 . S
C2235 C2236 1.383 . S
C2235 H2243 0.929 . S
C2236 C2235 1.383 . S
C2236 C2237 1.377 . S
C2237 H2221 0.930 . S
C2237 C2236 1.377 . S
C2237 C2238 1.379 . S
C2238 H2222 0.931 . S
C2238 C2232 1.383 . S
C2238 C2237 1.379 . S
H2239 C2233 0.959 . S
H2240 C2233 0.961 . S
H2241 C2233 0.960 . S
H2242 C2234 0.930 . S
H2243 C2235 0.929 . S
H2244 C2252 0.929 . S
H2245 C2254 0.930 . S
H2246 C2256 0.930 . S
H2247 C2259 0.929 . S
H2248 C2262 0.930 . S
H2249 C2264 0.960 . S
H2250 C2264 0.960 . S
H2251 C2264 0.960 . S
C2252 H2244 0.929 . S
C2252 C2253 1.377 . S
C2252 C2254 1.384 . S
C2253 C2252 1.377 . S
C2253 C2259 1.390 . S
C2254 H2245 0.930 . S
C2254 C2252 1.384 . S
C2254 C2255 1.372 . S
C2255 C2254 1.372 . S
C2255 C2256 1.400 . S
C2255 C2260 1.490 . S
C2256 H2246 0.930 . S
C2256 C2255 1.400 . S
C2256 C2259 1.386 . S
H2257 C2273 0.930 . S
H2258 C2274 0.931 . S
C2259 H2247 0.929 . S
C2259 C2253 1.390 . S
C2259 C2256 1.386 . S
C2260 C2255 1.490 . S
C2260 C2262 1.395 . S
C2260 C2263 1.403 . S
H2261 C2267 0.930 . S
C2262 H2248 0.930 . S
C2262 C2260 1.395 . S
C2262 C2265 1.403 . S
C2263 C2260 1.403 . S
C2263 C2264 1.524 . S
C2263 C2267 1.400 . S
C2264 H2249 0.960 . S
C2264 H2250 0.960 . S
C2264 H2251 0.960 . S
C2264 C2263 1.524 . S
C2265 C2262 1.403 . S
C2265 C2266 1.392 . S
C2265 C2269 1.495 . S
C2266 C2265 1.392 . S
C2266 C2267 1.385 . S
C2266 C2268 1.478 . S
C2267 H2261 0.930 . S
C2267 C2263 1.400 . S
C2267 C2266 1.385 . S
C2268 C2266 1.478 . S
C2268 C2270 1.381 . S
C2268 C2274 1.383 . S
C2269 C2265 1.495 . S
C2269 H2275 0.959 . S
C2269 H2276 0.961 . S
C2269 H2277 0.960 . S
C2270 C2268 1.381 . S
C2270 C2271 1.394 . S
C2270 H2278 0.930 . S
C2271 C2270 1.394 . S
C2271 C2272 1.383 . S
C2271 H2279 0.929 . S
C2272 C2271 1.383 . S
C2272 C2273 1.377 . S
C2273 H2257 0.930 . S
C2273 C2272 1.377 . S
C2273 C2274 1.379 . S
C2274 H2258 0.931 . S
C2274 C2268 1.383 . S
C2274 C2273 1.379 . S
H2275 C2269 0.959 . S
H2276 C2269 0.961 . S
H2277 C2269 0.960 . S
H2278 C2270 0.930 . S
H2279 C2271 0.929 . S
H2280 C2288 0.929 . S
H2281 C2290 0.930 . S
H2282 C2292 0.930 1_455 S
H2283 C2295 0.929 . S
H2284 C2298 0.930 . S
H2285 C2300 0.960 . S
H2286 C2300 0.960 1_655 S
H2287 C2300 0.960 . S
C2288 H2280 0.929 . S
C2288 C2289 1.377 . S
C2288 C2290 1.384 . S
C2289 C2288 1.377 . S
C2289 C2295 1.390 . S
C2290 H2281 0.930 . S
C2290 C2288 1.384 . S
C2290 C2291 1.372 . S
C2291 C2290 1.372 . S
C2291 C2292 1.400 . S
C2291 C2296 1.490 1_655 S
C2292 H2282 0.930 1_655 S
C2292 C2291 1.400 . S
C2292 C2295 1.386 . S
H2293 C2309 0.930 . S
H2294 C2310 0.931 . S
C2295 H2283 0.929 . S
C2295 C2289 1.390 . S
C2295 C2292 1.386 . S
C2296 C2291 1.490 1_455 S
C2296 C2298 1.395 . S
C2296 C2299 1.403 . S
H2297 C2303 0.930 . S
C2298 H2284 0.930 . S
C2298 C2296 1.395 . S
C2298 C2301 1.403 . S
C2299 C2296 1.403 . S
C2299 C2300 1.524 . S
C2299 C2303 1.400 . S
C2300 H2285 0.960 . S
C2300 H2286 0.960 1_455 S
C2300 H2287 0.960 . S
C2300 C2299 1.524 . S
C2301 C2298 1.403 . S
C2301 C2302 1.392 . S
C2301 C2305 1.495 . S
C2302 C2301 1.392 . S
C2302 C2303 1.385 . S
C2302 C2304 1.478 . S
C2303 H2297 0.930 . S
C2303 C2299 1.400 . S
C2303 C2302 1.385 . S
C2304 C2302 1.478 . S
C2304 C2306 1.381 . S
C2304 C2310 1.383 . S
C2305 C2301 1.495 . S
C2305 H2311 0.959 . S
C2305 H2312 0.961 . S
C2305 H2313 0.960 . S
C2306 C2304 1.381 . S
C2306 C2307 1.394 . S
C2306 H2314 0.930 . S
C2307 C2306 1.394 . S
C2307 C2308 1.383 . S
C2307 H2315 0.929 . S
C2308 C2307 1.383 . S
C2308 C2309 1.377 . S
C2309 H2293 0.930 . S
C2309 C2308 1.377 . S
C2309 C2310 1.379 . S
C2310 H2294 0.931 . S
C2310 C2304 1.383 . S
C2310 C2309 1.379 . S
H2311 C2305 0.959 . S
H2312 C2305 0.961 . S
H2313 C2305 0.960 . S
H2314 C2306 0.930 . S
H2315 C2307 0.929 . S
H2316 C2324 0.929 . S
H2317 C2326 0.930 . S
H2318 C2328 0.930 . S
H2319 C2331 0.929 . S
H2320 C2334 0.930 . S
H2321 C2336 0.960 . S
H2322 C2336 0.960 . S
H2323 C2336 0.960 . S
C2324 H2316 0.929 . S
C2324 C2325 1.377 . S
C2324 C2326 1.384 . S
C2325 C2324 1.377 . S
C2325 C2331 1.390 . S
C2326 H2317 0.930 . S
C2326 C2324 1.384 . S
C2326 C2327 1.372 . S
C2327 C2326 1.372 . S
C2327 C2328 1.400 . S
C2327 C2332 1.490 . S
C2328 H2318 0.930 . S
C2328 C2327 1.400 . S
C2328 C2331 1.386 . S
H2329 C2345 0.930 . S
H2330 C2346 0.958 . S
C2331 H2319 0.929 . S
C2331 C2325 1.390 . S
C2331 C2328 1.386 . S
C2332 C2327 1.490 . S
C2332 C2334 1.395 . S
C2332 C2335 1.403 . S
H2333 C2339 0.930 . S
C2334 H2320 0.930 . S
C2334 C2332 1.395 . S
C2334 C2337 1.403 . S
C2335 C2332 1.403 . S
C2335 C2336 1.524 . S
C2335 C2339 1.400 . S
C2336 H2321 0.960 . S
C2336 H2322 0.960 . S
C2336 H2323 0.960 . S
C2336 C2335 1.524 . S
C2337 C2334 1.403 . S
C2337 C2338 1.392 . S
C2337 C2341 1.495 . S
C2338 C2337 1.392 . S
C2338 C2339 1.385 . S
C2338 C2340 1.478 . S
C2339 H2333 0.930 . S
C2339 C2335 1.400 . S
C2339 C2338 1.385 . S
C2340 C2338 1.478 . S
C2340 C2342 1.381 . S
C2340 C2346 1.331 1_556 S
C2341 C2337 1.495 . S
C2341 H2347 0.959 . S
C2341 H2348 0.961 . S
C2341 H2349 0.960 . S
C2342 C2340 1.381 . S
C2342 C2343 1.394 . S
C2342 H2350 0.930 . S
C2343 C2342 1.394 . S
C2343 C2344 1.383 1_556 S
C2343 H2351 0.929 . S
C2344 C2343 1.383 1_554 S
C2344 C2345 1.377 . S
C2345 H2329 0.930 . S
C2345 C2344 1.377 . S
C2345 C2346 1.407 . S
C2346 H2330 0.958 . S
C2346 C2340 1.331 1_554 S
C2346 C2345 1.407 . S
H2347 C2341 0.959 . S
H2348 C2341 0.961 . S
H2349 C2341 0.960 . S
H2350 C2342 0.930 . S
H2351 C2343 0.929 . S
H2352 C2360 0.929 . S
H2353 C2362 0.930 . S
H2354 C2364 0.930 . S
H2355 C2367 0.929 . S
H2356 C2370 0.930 . S
H2357 C2372 0.960 . S
H2358 C2372 0.960 . S
H2359 C2372 0.960 . S
C2360 H2352 0.929 . S
C2360 C2361 1.377 . S
C2360 C2362 1.384 . S
C2361 C2360 1.377 . S
C2361 C2367 1.390 . S
C2362 H2353 0.930 . S
C2362 C2360 1.384 . S
C2362 C2363 1.372 . S
C2363 C2362 1.372 . S
C2363 C2364 1.400 . S
C2363 C2368 1.490 . S
C2364 H2354 0.930 . S
C2364 C2363 1.400 . S
C2364 C2367 1.386 . S
H2365 C2381 0.930 . S
H2366 C2382 0.931 . S
C2367 H2355 0.929 . S
C2367 C2361 1.390 . S
C2367 C2364 1.386 . S
C2368 C2363 1.490 . S
C2368 C2370 1.395 . S
C2368 C2371 1.403 . S
H2369 C2375 0.930 . S
C2370 H2356 0.930 . S
C2370 C2368 1.395 . S
C2370 C2373 1.403 . S
C2371 C2368 1.403 . S
C2371 C2372 1.524 . S
C2371 C2375 1.400 . S
C2372 H2357 0.960 . S
C2372 H2358 0.960 . S
C2372 H2359 0.960 . S
C2372 C2371 1.524 . S
C2373 C2370 1.403 . S
C2373 C2374 1.392 . S
C2373 C2377 1.495 . S
C2374 C2373 1.392 . S
C2374 C2375 1.385 . S
C2374 C2376 1.478 . S
C2375 H2369 0.930 . S
C2375 C2371 1.400 . S
C2375 C2374 1.385 . S
C2376 C2374 1.478 . S
C2376 C2378 1.381 . S
C2376 C2382 1.383 . S
C2377 C2373 1.495 . S
C2377 H2383 0.959 . S
C2377 H2384 0.961 . S
C2377 H2385 0.960 . S
C2378 C2376 1.381 . S
C2378 C2379 1.394 . S
C2378 H2386 0.930 . S
C2379 C2378 1.394 . S
C2379 C2380 1.383 . S
C2379 H2387 0.929 . S
C2380 C2379 1.383 . S
C2380 C2381 1.377 . S
C2381 H2365 0.930 . S
C2381 C2380 1.377 . S
C2381 C2382 1.379 . S
C2382 H2366 0.931 . S
C2382 C2376 1.383 . S
C2382 C2381 1.379 . S
H2383 C2377 0.959 . S
H2384 C2377 0.961 . S
H2385 C2377 0.960 . S
H2386 C2378 0.930 . S
H2387 C2379 0.929 . S
H2388 C2396 0.929 . S
H2389 C2398 0.930 . S
H2390 C2400 0.930 . S
H2391 C2403 0.929 . S
H2392 C2406 0.930 . S
H2393 C2408 0.960 . S
H2394 C2408 0.960 . S
H2395 C2408 0.960 . S
C2396 H2388 0.929 . S
C2396 C2397 1.377 . S
C2396 C2398 1.384 . S
C2397 C2396 1.377 . S
C2397 C2403 1.390 . S
C2398 H2389 0.930 . S
C2398 C2396 1.384 . S
C2398 C2399 1.372 . S
C2399 C2398 1.372 . S
C2399 C2400 1.400 . S
C2399 C2404 1.490 . S
C2400 H2390 0.930 . S
C2400 C2399 1.400 . S
C2400 C2403 1.386 . S
H2401 C2417 0.930 . S
H2402 C2418 0.931 . S
C2403 H2391 0.929 . S
C2403 C2397 1.390 . S
C2403 C2400 1.386 . S
C2404 C2399 1.490 . S
C2404 C2406 1.395 . S
C2404 C2407 1.403 . S
H2405 C2411 0.930 1_556 S
C2406 H2392 0.930 . S
C2406 C2404 1.395 . S
C2406 C2409 1.403 . S
C2407 C2404 1.403 . S
C2407 C2408 1.524 . S
C2407 C2411 1.400 . S
C2408 H2393 0.960 . S
C2408 H2394 0.960 . S
C2408 H2395 0.960 . S
C2408 C2407 1.524 . S
C2409 C2406 1.403 . S
C2409 C2410 1.392 . S
C2409 C2413 1.495 . S
C2410 C2409 1.392 . S
C2410 C2411 1.385 . S
C2410 C2412 1.478 1_554 S
C2411 H2405 0.930 1_554 S
C2411 C2407 1.400 . S
C2411 C2410 1.385 . S
C2412 C2410 1.478 1_556 S
C2412 C2414 1.381 . S
C2412 C2418 1.383 . S
C2413 C2409 1.495 . S
C2413 H2419 0.959 . S
C2413 H2420 0.961 . S
C2413 H2421 0.960 . S
C2414 C2412 1.381 . S
C2414 C2415 1.394 . S
C2414 H2422 0.930 1_556 S
C2415 C2414 1.394 . S
C2415 C2416 1.383 . S
C2415 H2423 0.929 . S
C2416 C2415 1.383 . S
C2416 C2417 1.377 . S
C2417 H2401 0.930 . S
C2417 C2416 1.377 . S
C2417 C2418 1.379 . S
C2418 H2402 0.931 . S
C2418 C2412 1.383 . S
C2418 C2417 1.379 . S
H2419 C2413 0.959 . S
H2420 C2413 0.961 . S
H2421 C2413 0.960 . S
H2422 C2414 0.930 1_554 S
H2423 C2415 0.929 . S
H2424 C2432 0.929 . S
H2425 C2434 0.930 . S
H2426 C2436 0.930 . S
H2427 C2439 0.929 . S
H2428 C2442 0.930 . S
H2429 C2444 0.960 . S
H2430 C2444 0.960 . S
H2431 C2444 0.960 . S
C2432 H2424 0.929 . S
C2432 C2433 1.377 . S
C2432 C2434 1.384 . S
C2433 C2432 1.377 . S
C2433 C2439 1.390 . S
C2434 H2425 0.930 . S
C2434 C2432 1.384 . S
C2434 C2435 1.372 . S
C2435 C2434 1.372 . S
C2435 C2436 1.400 . S
C2435 C2440 1.490 . S
C2436 H2426 0.930 . S
C2436 C2435 1.400 . S
C2436 C2439 1.386 . S
H2437 C2453 0.930 . S
H2438 C2454 0.931 . S
C2439 H2427 0.929 . S
C2439 C2433 1.390 . S
C2439 C2436 1.386 . S
C2440 C2435 1.490 . S
C2440 C2442 1.395 . S
C2440 C2443 1.403 . S
H2441 C2447 0.930 . S
C2442 H2428 0.930 . S
C2442 C2440 1.395 . S
C2442 C2445 1.403 . S
C2443 C2440 1.403 . S
C2443 C2444 1.524 . S
C2443 C2447 1.400 . S
C2444 H2429 0.960 . S
C2444 H2430 0.960 . S
C2444 H2431 0.960 . S
C2444 C2443 1.524 . S
C2445 C2442 1.403 . S
C2445 C2446 1.392 . S
C2445 C2449 1.495 . S
C2446 C2445 1.392 . S
C2446 C2447 1.385 . S
C2446 C2448 1.478 . S
C2447 H2441 0.930 . S
C2447 C2443 1.400 . S
C2447 C2446 1.385 . S
C2448 C2446 1.478 . S
C2448 C2450 1.381 . S
C2448 C2454 1.383 . S
C2449 C2445 1.495 . S
C2449 H2455 0.959 . S
C2449 H2456 0.961 . S
C2449 H2457 0.960 . S
C2450 C2448 1.381 . S
C2450 C2451 1.394 . S
C2450 H2458 0.930 . S
C2451 C2450 1.394 . S
C2451 C2452 1.383 . S
C2451 H2459 0.929 . S
C2452 C2451 1.383 . S
C2452 C2453 1.377 . S
C2453 H2437 0.930 . S
C2453 C2452 1.377 . S
C2453 C2454 1.379 . S
C2454 H2438 0.931 . S
C2454 C2448 1.383 . S
C2454 C2453 1.379 . S
H2455 C2449 0.959 . S
H2456 C2449 0.961 . S
H2457 C2449 0.960 . S
H2458 C2450 0.930 . S
H2459 C2451 0.929 . S
H2460 C2468 0.929 . S
H2461 C2470 0.930 . S
H2462 C2472 0.930 . S
H2463 C2475 0.929 . S
H2464 C2478 0.930 . S
H2465 C2480 0.960 . S
H2466 C2480 0.960 . S
H2467 C2480 0.960 . S
C2468 H2460 0.929 . S
C2468 C2469 1.377 . S
C2468 C2470 1.384 . S
C2469 C2468 1.377 . S
C2469 C2475 1.390 . S
C2470 H2461 0.930 . S
C2470 C2468 1.384 . S
C2470 C2471 1.372 . S
C2471 C2470 1.372 . S
C2471 C2472 1.400 . S
C2471 C2476 1.490 . S
C2472 H2462 0.930 . S
C2472 C2471 1.400 . S
C2472 C2475 1.386 . S
H2473 C2489 0.930 . S
H2474 C2490 0.931 . S
C2475 H2463 0.929 . S
C2475 C2469 1.390 . S
C2475 C2472 1.386 . S
C2476 C2471 1.490 . S
C2476 C2478 1.395 . S
C2476 C2479 1.403 . S
H2477 C2483 0.930 . S
C2478 H2464 0.930 . S
C2478 C2476 1.395 . S
C2478 C2481 1.403 . S
C2479 C2476 1.403 . S
C2479 C2480 1.524 . S
C2479 C2483 1.400 . S
C2480 H2465 0.960 . S
C2480 H2466 0.960 . S
C2480 H2467 0.960 . S
C2480 C2479 1.524 . S
C2481 C2478 1.403 . S
C2481 C2482 1.392 . S
C2481 C2485 1.495 . S
C2482 C2481 1.392 . S
C2482 C2483 1.385 . S
C2482 C2484 1.478 . S
C2483 H2477 0.930 . S
C2483 C2479 1.400 . S
C2483 C2482 1.385 . S
C2484 C2482 1.478 . S
C2484 C2486 1.381 . S
C2484 C2490 1.383 . S
C2485 C2481 1.495 . S
C2485 H2491 0.959 . S
C2485 H2492 0.961 . S
C2485 H2493 0.960 . S
C2486 C2484 1.381 . S
C2486 C2487 1.394 . S
C2486 H2494 0.930 . S
C2487 C2486 1.394 . S
C2487 C2488 1.383 . S
C2487 H2495 0.929 . S
C2488 C2487 1.383 . S
C2488 C2489 1.377 . S
C2489 H2473 0.930 . S
C2489 C2488 1.377 . S
C2489 C2490 1.379 . S
C2490 H2474 0.931 . S
C2490 C2484 1.383 . S
C2490 C2489 1.379 . S
H2491 C2485 0.959 . S
H2492 C2485 0.961 . S
H2493 C2485 0.960 . S
H2494 C2486 0.930 . S
H2495 C2487 0.929 . S
H2496 C2504 0.929 . S
H2497 C2506 0.930 . S
H2498 C2508 0.930 . S
H2499 C2511 0.929 . S
H2500 C2514 0.930 . S
H2501 C2516 0.960 . S
H2502 C2516 0.960 . S
H2503 C2516 0.960 . S
C2504 H2496 0.929 . S
C2504 C2505 1.377 . S
C2504 C2506 1.384 . S
C2505 C2504 1.377 . S
C2505 C2511 1.390 . S
C2506 H2497 0.930 . S
C2506 C2504 1.384 . S
C2506 C2507 1.372 . S
C2507 C2506 1.372 . S
C2507 C2508 1.400 . S
C2507 C2512 1.490 . S
C2508 H2498 0.930 . S
C2508 C2507 1.400 . S
C2508 C2511 1.386 . S
H2509 C2525 0.930 . S
H2510 C2526 0.931 . S
C2511 H2499 0.929 . S
C2511 C2505 1.390 . S
C2511 C2508 1.386 . S
C2512 C2507 1.490 . S
C2512 C2514 1.395 . S
C2512 C2515 1.403 . S
H2513 C2519 0.930 . S
C2514 H2500 0.930 . S
C2514 C2512 1.395 . S
C2514 C2517 1.403 . S
C2515 C2512 1.403 . S
C2515 C2516 1.524 . S
C2515 C2519 1.400 . S
C2516 H2501 0.960 . S
C2516 H2502 0.960 . S
C2516 H2503 0.960 . S
C2516 C2515 1.524 . S
C2517 C2514 1.403 . S
C2517 C2518 1.392 . S
C2517 C2521 1.495 . S
C2518 C2517 1.392 . S
C2518 C2519 1.385 . S
C2518 C2520 1.478 . S
C2519 H2513 0.930 . S
C2519 C2515 1.400 . S
C2519 C2518 1.385 . S
C2520 C2518 1.478 . S
C2520 C2522 1.381 . S
C2520 C2526 1.383 . S
C2521 C2517 1.495 . S
C2521 H2527 0.959 . S
C2521 H2528 0.961 . S
C2521 H2529 0.960 . S
C2522 C2520 1.381 . S
C2522 C2523 1.394 . S
C2522 H2530 0.930 . S
C2523 C2522 1.394 . S
C2523 C2524 1.383 . S
C2523 H2531 0.929 . S
C2524 C2523 1.383 . S
C2524 C2525 1.377 . S
C2525 H2509 0.930 . S
C2525 C2524 1.377 . S
C2525 C2526 1.379 . S
C2526 H2510 0.931 . S
C2526 C2520 1.383 . S
C2526 C2525 1.379 . S
H2527 C2521 0.959 . S
H2528 C2521 0.961 . S
H2529 C2521 0.960 . S
H2530 C2522 0.930 . S
H2531 C2523 0.929 . S
H2532 C2540 0.929 . S
H2533 C2542 0.930 . S
H2534 C2544 0.930 . S
H2535 C2547 0.929 . S
H2536 C2550 0.930 . S
H2537 C2552 0.960 . S
H2538 C2552 0.960 . S
H2539 C2552 0.960 . S
C2540 H2532 0.929 . S
C2540 C2541 1.377 . S
C2540 C2542 1.384 . S
C2541 C2540 1.377 . S
C2541 C2547 1.390 . S
C2542 H2533 0.930 . S
C2542 C2540 1.384 . S
C2542 C2543 1.372 . S
C2543 C2542 1.372 . S
C2543 C2544 1.400 . S
C2543 C2548 1.490 . S
C2544 H2534 0.930 . S
C2544 C2543 1.400 . S
C2544 C2547 1.386 . S
H2545 C2561 0.930 . S
H2546 C2562 0.931 . S
C2547 H2535 0.929 . S
C2547 C2541 1.390 . S
C2547 C2544 1.386 . S
C2548 C2543 1.490 . S
C2548 C2550 1.395 . S
C2548 C2551 1.403 . S
H2549 C2555 0.930 1_554 S
C2550 H2536 0.930 . S
C2550 C2548 1.395 . S
C2550 C2553 1.403 . S
C2551 C2548 1.403 . S
C2551 C2552 1.524 . S
C2551 C2555 1.400 . S
C2552 H2537 0.960 . S
C2552 H2538 0.960 . S
C2552 H2539 0.960 . S
C2552 C2551 1.524 . S
C2553 C2550 1.403 . S
C2553 C2554 1.392 . S
C2553 C2557 1.495 . S
C2554 C2553 1.392 . S
C2554 C2555 1.385 . S
C2554 C2556 1.478 1_556 S
C2555 H2549 0.930 1_556 S
C2555 C2551 1.400 . S
C2555 C2554 1.385 . S
C2556 C2554 1.478 1_554 S
C2556 C2558 1.381 . S
C2556 C2562 1.383 . S
C2557 C2553 1.495 . S
C2557 H2563 0.959 . S
C2557 H2564 0.961 . S
C2557 H2565 0.960 . S
C2558 C2556 1.381 . S
C2558 C2559 1.394 . S
C2558 H2566 0.930 1_554 S
C2559 C2558 1.394 . S
C2559 C2560 1.383 . S
C2559 H2567 0.929 . S
C2560 C2559 1.383 . S
C2560 C2561 1.377 . S
C2561 H2545 0.930 . S
C2561 C2560 1.377 . S
C2561 C2562 1.379 . S
C2562 H2546 0.931 . S
C2562 C2556 1.383 . S
C2562 C2561 1.379 . S
H2563 C2557 0.959 . S
H2564 C2557 0.961 . S
H2565 C2557 0.960 . S
H2566 C2558 0.930 1_556 S
H2567 C2559 0.929 . S
H2568 C2576 0.929 . S
H2569 C2578 0.930 . S
H2570 C2580 0.930 . S
H2571 C2583 0.929 . S
H2572 C2586 0.930 . S
H2573 C2588 0.960 . S
H2574 C2588 0.960 . S
H2575 C2588 0.960 . S
C2576 H2568 0.929 . S
C2576 C2577 1.377 . S
C2576 C2578 1.384 . S
C2577 C2576 1.377 . S
C2577 C2583 1.390 . S
C2578 H2569 0.930 . S
C2578 C2576 1.384 . S
C2578 C2579 1.372 . S
C2579 C2578 1.372 . S
C2579 C2580 1.400 . S
C2579 C2584 1.490 . S
C2580 H2570 0.930 . S
C2580 C2579 1.400 . S
C2580 C2583 1.386 . S
H2581 C2597 0.930 . S
H2582 C2598 0.931 . S
C2583 H2571 0.929 . S
C2583 C2577 1.390 . S
C2583 C2580 1.386 . S
C2584 C2579 1.490 . S
C2584 C2586 1.395 . S
C2584 C2587 1.403 . S
H2585 C2591 0.930 . S
C2586 H2572 0.930 . S
C2586 C2584 1.395 . S
C2586 C2589 1.403 . S
C2587 C2584 1.403 . S
C2587 C2588 1.524 . S
C2587 C2591 1.400 . S
C2588 H2573 0.960 . S
C2588 H2574 0.960 . S
C2588 H2575 0.960 . S
C2588 C2587 1.524 . S
C2589 C2586 1.403 . S
C2589 C2590 1.392 . S
C2589 C2593 1.495 . S
C2590 C2589 1.392 . S
C2590 C2591 1.385 . S
C2590 C2592 1.478 . S
C2591 H2585 0.930 . S
C2591 C2587 1.400 . S
C2591 C2590 1.385 . S
C2592 C2590 1.478 . S
C2592 C2594 1.381 . S
C2592 C2598 1.383 . S
C2593 C2589 1.495 . S
C2593 H2599 0.959 . S
C2593 H2600 0.961 . S
C2593 H2601 0.960 . S
C2594 C2592 1.381 . S
C2594 C2595 1.394 . S
C2594 H2602 0.930 . S
C2595 C2594 1.394 . S
C2595 C2596 1.383 . S
C2595 H2603 0.929 . S
C2596 C2595 1.383 . S
C2596 C2597 1.377 . S
C2597 H2581 0.930 . S
C2597 C2596 1.377 . S
C2597 C2598 1.379 . S
C2598 H2582 0.931 . S
C2598 C2592 1.383 . S
C2598 C2597 1.379 . S
H2599 C2593 0.959 . S
H2600 C2593 0.961 . S
H2601 C2593 0.960 . S
H2602 C2594 0.930 . S
H2603 C2595 0.929 . S
H2604 C2612 0.929 . S
H2605 C2614 0.930 . S
H2606 C2616 0.930 . S
H2607 C2619 0.929 . S
H2608 C2622 0.930 . S
H2609 C2624 0.960 . S
H2610 C2624 0.960 . S
H2611 C2624 0.960 . S
C2612 H2604 0.929 . S
C2612 C2613 1.377 . S
C2612 C2614 1.384 . S
C2613 C2612 1.377 . S
C2613 C2619 1.390 . S
C2614 H2605 0.930 . S
C2614 C2612 1.384 . S
C2614 C2615 1.372 . S
C2615 C2614 1.372 . S
C2615 C2616 1.400 . S
C2615 C2620 1.490 . S
C2616 H2606 0.930 . S
C2616 C2615 1.400 . S
C2616 C2619 1.386 . S
H2617 C2633 0.930 . S
H2618 C2634 0.931 . S
C2619 H2607 0.929 . S
C2619 C2613 1.390 . S
C2619 C2616 1.386 . S
C2620 C2615 1.490 . S
C2620 C2622 1.395 . S
C2620 C2623 1.403 . S
H2621 C2627 0.930 . S
C2622 H2608 0.930 . S
C2622 C2620 1.395 . S
C2622 C2625 1.403 . S
C2623 C2620 1.403 . S
C2623 C2624 1.524 . S
C2623 C2627 1.400 . S
C2624 H2609 0.960 . S
C2624 H2610 0.960 . S
C2624 H2611 0.960 . S
C2624 C2623 1.524 . S
C2625 C2622 1.403 . S
C2625 C2626 1.392 . S
C2625 C2629 1.495 . S
C2626 C2625 1.392 . S
C2626 C2627 1.385 . S
C2626 C2628 1.478 . S
C2627 H2621 0.930 . S
C2627 C2623 1.400 . S
C2627 C2626 1.385 . S
C2628 C2626 1.478 . S
C2628 C2630 1.381 . S
C2628 C2634 1.383 . S
C2629 C2625 1.495 . S
C2629 H2635 0.959 . S
C2629 H2636 0.961 . S
C2629 H2637 0.960 . S
C2630 C2628 1.381 . S
C2630 C2631 1.394 . S
C2630 H2638 0.930 . S
C2631 C2630 1.394 . S
C2631 C2632 1.383 . S
C2631 H2639 0.929 . S
C2632 C2631 1.383 . S
C2632 C2633 1.377 . S
C2633 H2617 0.930 . S
C2633 C2632 1.377 . S
C2633 C2634 1.379 . S
C2634 H2618 0.931 . S
C2634 C2628 1.383 . S
C2634 C2633 1.379 . S
H2635 C2629 0.959 . S
H2636 C2629 0.961 . S
H2637 C2629 0.960 . S
H2638 C2630 0.930 . S
H2639 C2631 0.929 . S
H2640 C2648 0.929 . S
H2641 C2650 0.930 . S
H2642 C2652 0.930 . S
H2643 C2655 0.929 . S
H2644 C2658 0.930 . S
H2645 C2660 0.960 . S
H2646 C2660 0.960 . S
H2647 C2660 0.960 . S
C2648 H2640 0.929 . S
C2648 C2649 1.377 . S
C2648 C2650 1.384 . S
C2649 C2648 1.377 . S
C2649 C2655 1.390 . S
C2650 H2641 0.930 . S
C2650 C2648 1.384 . S
C2650 C2651 1.372 . S
C2651 C2650 1.372 . S
C2651 C2652 1.400 . S
C2651 C2656 1.490 . S
C2652 H2642 0.930 . S
C2652 C2651 1.400 . S
C2652 C2655 1.386 . S
H2653 C2669 0.930 . S
H2654 C2670 0.931 . S
C2655 H2643 0.929 . S
C2655 C2649 1.390 . S
C2655 C2652 1.386 . S
C2656 C2651 1.490 . S
C2656 C2658 1.395 . S
C2656 C2659 1.403 . S
H2657 C2663 0.930 . S
C2658 H2644 0.930 . S
C2658 C2656 1.395 . S
C2658 C2661 1.403 . S
C2659 C2656 1.403 . S
C2659 C2660 1.524 . S
C2659 C2663 1.400 . S
C2660 H2645 0.960 . S
C2660 H2646 0.960 . S
C2660 H2647 0.960 . S
C2660 C2659 1.524 . S
C2661 C2658 1.403 . S
C2661 C2662 1.392 . S
C2661 C2665 1.495 . S
C2662 C2661 1.392 . S
C2662 C2663 1.385 . S
C2662 C2664 1.478 . S
C2663 H2657 0.930 . S
C2663 C2659 1.400 . S
C2663 C2662 1.385 . S
C2664 C2662 1.478 . S
C2664 C2666 1.381 . S
C2664 C2670 1.383 . S
C2665 C2661 1.495 . S
C2665 H2671 0.959 . S
C2665 H2672 0.961 . S
C2665 H2673 0.960 . S
C2666 C2664 1.381 . S
C2666 C2667 1.394 . S
C2666 H2674 0.930 . S
C2667 C2666 1.394 . S
C2667 C2668 1.383 . S
C2667 H2675 0.929 . S
C2668 C2667 1.383 . S
C2668 C2669 1.377 . S
C2669 H2653 0.930 . S
C2669 C2668 1.377 . S
C2669 C2670 1.379 . S
C2670 H2654 0.931 . S
C2670 C2664 1.383 . S
C2670 C2669 1.379 . S
H2671 C2665 0.959 . S
H2672 C2665 0.961 . S
H2673 C2665 0.960 . S
H2674 C2666 0.930 . S
H2675 C2667 0.929 . S
H2676 C2684 0.929 . S
H2677 C2686 0.930 . S
H2678 C2688 0.930 . S
H2679 C2691 0.929 . S
H2680 C2694 0.930 . S
H2681 C2696 0.960 . S
H2682 C2696 0.960 . S
H2683 C2696 0.960 . S
C2684 H2676 0.929 . S
C2684 C2685 1.377 . S
C2684 C2686 1.384 . S
C2685 C2684 1.377 . S
C2685 C2691 1.390 . S
C2686 H2677 0.930 . S
C2686 C2684 1.384 . S
C2686 C2687 1.372 . S
C2687 C2686 1.372 . S
C2687 C2688 1.400 . S
C2687 C2692 1.490 . S
C2688 H2678 0.930 . S
C2688 C2687 1.400 . S
C2688 C2691 1.386 . S
H2689 C2705 0.930 . S
H2690 C2706 0.931 . S
C2691 H2679 0.929 . S
C2691 C2685 1.390 . S
C2691 C2688 1.386 . S
C2692 C2687 1.490 . S
C2692 C2694 1.395 . S
C2692 C2695 1.403 . S
H2693 C2699 0.930 . S
C2694 H2680 0.930 . S
C2694 C2692 1.395 . S
C2694 C2697 1.403 . S
C2695 C2692 1.403 . S
C2695 C2696 1.524 . S
C2695 C2699 1.400 . S
C2696 H2681 0.960 . S
C2696 H2682 0.960 . S
C2696 H2683 0.960 . S
C2696 C2695 1.524 . S
C2697 C2694 1.403 . S
C2697 C2698 1.392 . S
C2697 C2701 1.495 . S
C2698 C2697 1.392 . S
C2698 C2699 1.385 . S
C2698 C2700 1.478 . S
C2699 H2693 0.930 . S
C2699 C2695 1.400 . S
C2699 C2698 1.385 . S
C2700 C2698 1.478 . S
C2700 C2702 1.381 . S
C2700 C2706 1.383 . S
C2701 C2697 1.495 . S
C2701 H2707 0.959 . S
C2701 H2708 0.961 . S
C2701 H2709 0.960 . S
C2702 C2700 1.381 . S
C2702 C2703 1.394 . S
C2702 H2710 0.930 . S
C2703 C2702 1.394 . S
C2703 C2704 1.383 . S
C2703 H2711 0.929 . S
C2704 C2703 1.383 . S
C2704 C2705 1.377 . S
C2705 H2689 0.930 . S
C2705 C2704 1.377 . S
C2705 C2706 1.379 . S
C2706 H2690 0.931 . S
C2706 C2700 1.383 . S
C2706 C2705 1.379 . S
H2707 C2701 0.959 . S
H2708 C2701 0.961 . S
H2709 C2701 0.960 . S
H2710 C2702 0.930 . S
H2711 C2703 0.929 . S
H2712 C2720 0.929 . S
H2713 C2722 0.930 . S
H2714 C2724 0.930 . S
H2715 C2727 0.929 . S
H2716 C2730 0.930 . S
H2717 C2732 0.960 . S
H2718 C2732 0.960 . S
H2719 C2732 0.960 . S
C2720 H2712 0.929 . S
C2720 C2721 1.377 . S
C2720 C2722 1.384 . S
C2721 C2720 1.377 . S
C2721 C2727 1.390 . S
C2722 H2713 0.930 . S
C2722 C2720 1.384 . S
C2722 C2723 1.372 . S
C2723 C2722 1.372 . S
C2723 C2724 1.400 . S
C2723 C2728 1.490 . S
C2724 H2714 0.930 . S
C2724 C2723 1.400 . S
C2724 C2727 1.386 . S
H2725 C2741 0.930 . S
H2726 C2742 0.931 . S
C2727 H2715 0.929 . S
C2727 C2721 1.390 . S
C2727 C2724 1.386 . S
C2728 C2723 1.490 . S
C2728 C2730 1.395 . S
C2728 C2731 1.403 . S
H2729 C2735 0.930 . S
C2730 H2716 0.930 . S
C2730 C2728 1.395 . S
C2730 C2733 1.403 . S
C2731 C2728 1.403 . S
C2731 C2732 1.524 . S
C2731 C2735 1.400 . S
C2732 H2717 0.960 . S
C2732 H2718 0.960 . S
C2732 H2719 0.960 . S
C2732 C2731 1.524 . S
C2733 C2730 1.403 . S
C2733 C2734 1.392 . S
C2733 C2737 1.495 . S
C2734 C2733 1.392 . S
C2734 C2735 1.385 . S
C2734 C2736 1.478 . S
C2735 H2729 0.930 . S
C2735 C2731 1.400 . S
C2735 C2734 1.385 . S
C2736 C2734 1.478 . S
C2736 C2738 1.381 . S
C2736 C2742 1.383 . S
C2737 C2733 1.495 . S
C2737 H2743 0.959 . S
C2737 H2744 0.961 . S
C2737 H2745 0.960 . S
C2738 C2736 1.381 . S
C2738 C2739 1.394 . S
C2738 H2746 0.930 . S
C2739 C2738 1.394 . S
C2739 C2740 1.383 . S
C2739 H2747 0.929 . S
C2740 C2739 1.383 . S
C2740 C2741 1.377 . S
C2741 H2725 0.930 . S
C2741 C2740 1.377 . S
C2741 C2742 1.379 . S
C2742 H2726 0.931 . S
C2742 C2736 1.383 . S
C2742 C2741 1.379 . S
H2743 C2737 0.959 . S
H2744 C2737 0.961 . S
H2745 C2737 0.960 . S
H2746 C2738 0.930 . S
H2747 C2739 0.929 . S
H2748 C2756 0.929 . S
H2749 C2758 0.930 . S
H2750 C2760 0.930 . S
H2751 C2763 0.929 . S
H2752 C2766 0.930 . S
H2753 C2768 0.960 . S
H2754 C2768 0.960 . S
H2755 C2768 0.960 . S
C2756 H2748 0.929 . S
C2756 C2757 1.377 . S
C2756 C2758 1.384 . S
C2757 C2756 1.377 . S
C2757 C2763 1.390 1_455 S
C2758 H2749 0.930 . S
C2758 C2756 1.384 . S
C2758 C2759 1.372 1_455 S
C2759 C2758 1.372 1_655 S
C2759 C2760 1.400 . S
C2759 C2764 1.490 . S
C2760 H2750 0.930 . S
C2760 C2759 1.400 . S
C2760 C2763 1.386 . S
H2761 C2777 0.930 . S
H2762 C2778 0.931 . S
C2763 H2751 0.929 . S
C2763 C2757 1.390 1_655 S
C2763 C2760 1.386 . S
C2764 C2759 1.490 . S
C2764 C2766 1.395 . S
C2764 C2767 1.403 . S
H2765 C2771 0.930 . S
C2766 H2752 0.930 . S
C2766 C2764 1.395 . S
C2766 C2769 1.403 . S
C2767 C2764 1.403 . S
C2767 C2768 1.524 . S
C2767 C2771 1.400 . S
C2768 H2753 0.960 . S
C2768 H2754 0.960 . S
C2768 H2755 0.960 . S
C2768 C2767 1.524 . S
C2769 C2766 1.403 . S
C2769 C2770 1.392 . S
C2769 C2773 1.495 . S
C2770 C2769 1.392 . S
C2770 C2771 1.385 . S
C2770 C2772 1.478 . S
C2771 H2765 0.930 . S
C2771 C2767 1.400 . S
C2771 C2770 1.385 . S
C2772 C2770 1.478 . S
C2772 C2774 1.381 . S
C2772 C2778 1.383 . S
C2773 C2769 1.495 . S
C2773 H2779 0.959 . S
C2773 H2780 0.961 . S
C2773 H2781 0.960 . S
C2774 C2772 1.381 . S
C2774 C2775 1.394 . S
C2774 H2782 0.930 . S
C2775 C2774 1.394 . S
C2775 C2776 1.383 . S
C2775 H2783 0.929 . S
C2776 C2775 1.383 . S
C2776 C2777 1.377 . S
C2777 H2761 0.930 . S
C2777 C2776 1.377 . S
C2777 C2778 1.379 . S
C2778 H2762 0.931 . S
C2778 C2772 1.383 . S
C2778 C2777 1.379 . S
H2779 C2773 0.959 . S
H2780 C2773 0.961 . S
H2781 C2773 0.960 . S
H2782 C2774 0.930 . S
H2783 C2775 0.929 . S
H2784 C2792 0.929 . S
H2785 C2794 0.930 . S
H2786 C2796 0.930 . S
H2787 C2799 0.929 . S
H2788 C2802 0.930 . S
H2789 C2804 0.960 . S
H2790 C2804 0.960 . S
H2791 C2804 0.960 . S
C2792 H2784 0.929 . S
C2792 C2793 1.377 . S
C2792 C2794 1.384 . S
C2793 C2792 1.377 . S
C2793 C2799 1.390 . S
C2794 H2785 0.930 . S
C2794 C2792 1.384 . S
C2794 C2795 1.372 . S
C2795 C2794 1.372 . S
C2795 C2796 1.400 . S
C2795 C2800 1.490 . S
C2796 H2786 0.930 . S
C2796 C2795 1.400 . S
C2796 C2799 1.386 . S
H2797 C2813 0.930 . S
H2798 C2814 0.931 . S
C2799 H2787 0.929 . S
C2799 C2793 1.390 . S
C2799 C2796 1.386 . S
C2800 C2795 1.490 . S
C2800 C2802 1.395 . S
C2800 C2803 1.403 . S
H2801 C2807 0.930 . S
C2802 H2788 0.930 . S
C2802 C2800 1.395 . S
C2802 C2805 1.403 . S
C2803 C2800 1.403 . S
C2803 C2804 1.524 . S
C2803 C2807 1.400 . S
C2804 H2789 0.960 . S
C2804 H2790 0.960 . S
C2804 H2791 0.960 . S
C2804 C2803 1.524 . S
C2805 C2802 1.403 . S
C2805 C2806 1.392 . S
C2805 C2809 1.495 . S
C2806 C2805 1.392 . S
C2806 C2807 1.385 . S
C2806 C2808 1.478 . S
C2807 H2801 0.930 . S
C2807 C2803 1.400 . S
C2807 C2806 1.385 . S
C2808 C2806 1.478 . S
C2808 C2810 1.381 . S
C2808 C2814 1.383 . S
C2809 C2805 1.495 . S
C2809 H2815 0.959 . S
C2809 H2816 0.961 . S
C2809 H2817 0.960 . S
C2810 C2808 1.381 . S
C2810 C2811 1.394 . S
C2810 H2818 0.930 . S
C2811 C2810 1.394 . S
C2811 C2812 1.383 . S
C2811 H2819 0.929 . S
C2812 C2811 1.383 . S
C2812 C2813 1.377 . S
C2813 H2797 0.930 . S
C2813 C2812 1.377 . S
C2813 C2814 1.379 . S
C2814 H2798 0.931 . S
C2814 C2808 1.383 . S
C2814 C2813 1.379 . S
H2815 C2809 0.959 . S
H2816 C2809 0.961 . S
H2817 C2809 0.960 . S
H2818 C2810 0.930 . S
H2819 C2811 0.929 . S
H2820 C2828 0.929 . S
H2821 C2830 0.930 . S
H2822 C2832 0.930 . S
H2823 C2835 0.929 . S
H2824 C2838 0.930 . S
H2825 C2840 0.960 . S
H2826 C2840 0.960 . S
H2827 C2840 0.960 . S
C2828 H2820 0.929 . S
C2828 C2829 1.377 . S
C2828 C2830 1.384 . S
C2829 C2828 1.377 . S
C2829 C2835 1.390 . S
C2830 H2821 0.930 . S
C2830 C2828 1.384 . S
C2830 C2831 1.372 . S
C2831 C2830 1.372 . S
C2831 C2832 1.400 . S
C2831 C2836 1.490 . S
C2832 H2822 0.930 . S
C2832 C2831 1.400 . S
C2832 C2835 1.386 . S
H2833 C2849 0.930 1_455 S
H2834 C2850 0.931 . S
C2835 H2823 0.929 . S
C2835 C2829 1.390 . S
C2835 C2832 1.386 . S
C2836 C2831 1.490 . S
C2836 C2838 1.395 . S
C2836 C2839 1.403 . S
H2837 C2843 0.930 . S
C2838 H2824 0.930 . S
C2838 C2836 1.395 . S
C2838 C2841 1.403 . S
C2839 C2836 1.403 . S
C2839 C2840 1.524 . S
C2839 C2843 1.400 . S
C2840 H2825 0.960 . S
C2840 H2826 0.960 . S
C2840 H2827 0.960 . S
C2840 C2839 1.524 . S
C2841 C2838 1.403 . S
C2841 C2842 1.392 . S
C2841 C2845 1.495 . S
C2842 C2841 1.392 . S
C2842 C2843 1.385 . S
C2842 C2844 1.478 . S
C2843 H2837 0.930 . S
C2843 C2839 1.400 . S
C2843 C2842 1.385 . S
C2844 C2842 1.478 . S
C2844 C2846 1.381 . S
C2844 C2850 1.383 . S
C2845 C2841 1.495 . S
C2845 H2851 0.959 . S
C2845 H2852 0.961 . S
C2845 H2853 0.960 . S
C2846 C2844 1.381 . S
C2846 C2847 1.394 . S
C2846 H2854 0.930 . S
C2847 C2846 1.394 . S
C2847 C2848 1.375 1_655 S
C2847 H2855 0.929 . S
C2848 C2847 1.375 1_455 S
C2848 C2849 1.375 1_455 S
C2849 H2833 0.930 1_655 S
C2849 C2848 1.375 1_655 S
C2849 C2850 1.379 . S
C2850 H2834 0.931 . S
C2850 C2844 1.383 . S
C2850 C2849 1.379 . S
H2851 C2845 0.959 . S
H2852 C2845 0.961 . S
H2853 C2845 0.960 . S
H2854 C2846 0.930 . S
H2855 C2847 0.929 . S
H2856 C2864 0.929 . S
H2857 C2866 0.930 . S
H2858 C2868 0.930 . S
H2859 C2871 0.929 . S
H2860 C2874 0.930 . S
H2861 C2876 0.960 . S
H2862 C2876 0.960 . S
H2863 C2876 0.960 . S
C2864 H2856 0.929 . S
C2864 C2865 1.377 . S
C2864 C2866 1.384 . S
C2865 C2864 1.377 . S
C2865 C2871 1.390 . S
C2866 H2857 0.930 . S
C2866 C2864 1.384 . S
C2866 C2867 1.372 . S
C2867 C2866 1.372 . S
C2867 C2868 1.400 . S
C2867 C2872 1.490 . S
C2868 H2858 0.930 . S
C2868 C2867 1.400 . S
C2868 C2871 1.386 . S
H2869 C2885 0.930 . S
H2870 C2886 0.931 . S
C2871 H2859 0.929 . S
C2871 C2865 1.390 . S
C2871 C2868 1.386 . S
C2872 C2867 1.490 . S
C2872 C2874 1.395 . S
C2872 C2875 1.403 . S
H2873 C2879 0.930 . S
C2874 H2860 0.930 . S
C2874 C2872 1.395 . S
C2874 C2877 1.403 . S
C2875 C2872 1.403 . S
C2875 C2876 1.524 . S
C2875 C2879 1.400 . S
C2876 H2861 0.960 . S
C2876 H2862 0.960 . S
C2876 H2863 0.960 . S
C2876 C2875 1.524 . S
C2877 C2874 1.403 . S
C2877 C2878 1.392 . S
C2877 C2881 1.495 . S
C2878 C2877 1.392 . S
C2878 C2879 1.385 . S
C2878 C2880 1.478 . S
C2879 H2873 0.930 . S
C2879 C2875 1.400 . S
C2879 C2878 1.385 . S
C2880 C2878 1.478 . S
C2880 C2882 1.381 . S
C2880 C2886 1.383 . S
C2881 C2877 1.495 . S
C2881 H2887 0.959 . S
C2881 H2888 0.961 . S
C2881 H2889 0.960 . S
C2882 C2880 1.381 . S
C2882 C2883 1.394 . S
C2882 H2890 0.930 . S
C2883 C2882 1.394 . S
C2883 C2884 1.383 . S
C2883 H2891 0.929 . S
C2884 C2883 1.383 . S
C2884 C2885 1.377 . S
C2885 H2869 0.930 . S
C2885 C2884 1.377 . S
C2885 C2886 1.379 . S
C2886 H2870 0.931 . S
C2886 C2880 1.383 . S
C2886 C2885 1.379 . S
H2887 C2881 0.959 . S
H2888 C2881 0.961 . S
H2889 C2881 0.960 . S
H2890 C2882 0.930 . S
H2891 C2883 0.929 . S
H2892 C2900 0.929 . S
H2893 C2902 0.930 . S
H2894 C2904 0.930 . S
H2895 C2907 0.929 . S
H2896 C2910 0.930 . S
H2897 C2912 0.960 . S
H2898 C2912 0.960 . S
H2899 C2912 0.960 . S
C2900 H2892 0.929 . S
C2900 C2901 1.377 . S
C2900 C2902 1.384 . S
C2901 C2900 1.377 . S
C2901 C2907 1.390 . S
C2902 H2893 0.930 . S
C2902 C2900 1.384 . S
C2902 C2903 1.372 . S
C2903 C2902 1.372 . S
C2903 C2904 1.400 . S
C2903 C2908 1.490 . S
C2904 H2894 0.930 . S
C2904 C2903 1.400 . S
C2904 C2907 1.386 . S
H2905 C2921 0.930 . S
H2906 C2922 0.931 . S
C2907 H2895 0.929 . S
C2907 C2901 1.390 . S
C2907 C2904 1.386 . S
C2908 C2903 1.490 . S
C2908 C2910 1.395 . S
C2908 C2911 1.403 . S
H2909 C2915 0.930 . S
C2910 H2896 0.930 . S
C2910 C2908 1.395 . S
C2910 C2913 1.403 . S
C2911 C2908 1.403 . S
C2911 C2912 1.524 . S
C2911 C2915 1.400 . S
C2912 H2897 0.960 . S
C2912 H2898 0.960 . S
C2912 H2899 0.960 . S
C2912 C2911 1.524 . S
C2913 C2910 1.403 . S
C2913 C2914 1.392 . S
C2913 C2917 1.495 . S
C2914 C2913 1.392 . S
C2914 C2915 1.385 . S
C2914 C2916 1.478 . S
C2915 H2909 0.930 . S
C2915 C2911 1.400 . S
C2915 C2914 1.385 . S
C2916 C2914 1.478 . S
C2916 C2918 1.381 . S
C2916 C2922 1.383 . S
C2917 C2913 1.495 . S
C2917 H2923 0.959 . S
C2917 H2924 0.961 . S
C2917 H2925 0.960 . S
C2918 C2916 1.381 . S
C2918 C2919 1.394 . S
C2918 H2926 0.930 . S
C2919 C2918 1.394 . S
C2919 C2920 1.383 . S
C2919 H2927 0.929 . S
C2920 C2919 1.383 . S
C2920 C2921 1.377 . S
C2921 H2905 0.930 . S
C2921 C2920 1.377 . S
C2921 C2922 1.379 . S
C2922 H2906 0.931 . S
C2922 C2916 1.383 . S
C2922 C2921 1.379 . S
H2923 C2917 0.959 . S
H2924 C2917 0.961 . S
H2925 C2917 0.960 . S
H2926 C2918 0.930 . S
H2927 C2919 0.929 . S
H2928 C2936 0.929 . S
H2929 C2938 0.930 . S
H2930 C2940 0.930 . S
H2931 C2943 0.929 . S
H2932 C2946 0.930 . S
H2933 C2948 0.960 . S
H2934 C2948 0.960 . S
H2935 C2948 0.960 . S
C2936 H2928 0.929 . S
C2936 C2937 1.377 . S
C2936 C2938 1.384 . S
C2937 C2936 1.377 . S
C2937 C2943 1.390 . S
C2938 H2929 0.930 . S
C2938 C2936 1.384 . S
C2938 C2939 1.372 . S
C2939 C2938 1.372 . S
C2939 C2940 1.400 . S
C2939 C2944 1.490 . S
C2940 H2930 0.930 . S
C2940 C2939 1.400 . S
C2940 C2943 1.386 . S
H2941 C2957 0.930 . S
H2942 C2958 0.931 . S
C2943 H2931 0.929 . S
C2943 C2937 1.390 . S
C2943 C2940 1.386 . S
C2944 C2939 1.490 . S
C2944 C2946 1.395 . S
C2944 C2947 1.403 . S
H2945 C2951 0.930 . S
C2946 H2932 0.930 . S
C2946 C2944 1.395 . S
C2946 C2949 1.403 . S
C2947 C2944 1.403 . S
C2947 C2948 1.524 . S
C2947 C2951 1.400 . S
C2948 H2933 0.960 . S
C2948 H2934 0.960 . S
C2948 H2935 0.960 . S
C2948 C2947 1.524 . S
C2949 C2946 1.403 . S
C2949 C2950 1.392 . S
C2949 C2953 1.495 . S
C2950 C2949 1.392 . S
C2950 C2951 1.385 . S
C2950 C2952 1.478 . S
C2951 H2945 0.930 . S
C2951 C2947 1.400 . S
C2951 C2950 1.385 . S
C2952 C2950 1.478 . S
C2952 C2954 1.381 . S
C2952 C2958 1.383 . S
C2953 C2949 1.495 . S
C2953 H2959 0.959 . S
C2953 H2960 0.961 . S
C2953 H2961 0.960 . S
C2954 C2952 1.381 . S
C2954 C2955 1.394 . S
C2954 H2962 0.930 . S
C2955 C2954 1.394 . S
C2955 C2956 1.383 . S
C2955 H2963 0.929 . S
C2956 C2955 1.383 . S
C2956 C2957 1.377 . S
C2957 H2941 0.930 . S
C2957 C2956 1.377 . S
C2957 C2958 1.379 . S
C2958 H2942 0.931 . S
C2958 C2952 1.383 . S
C2958 C2957 1.379 . S
H2959 C2953 0.959 . S
H2960 C2953 0.961 . S
H2961 C2953 0.960 . S
H2962 C2954 0.930 . S
H2963 C2955 0.929 . S
H2964 C2972 0.929 . S
H2965 C2974 0.930 . S
H2966 C2976 0.930 . S
H2967 C2979 0.929 . S
H2968 C2982 0.930 . S
H2969 C2984 0.960 . S
H2970 C2984 0.960 . S
H2971 C2984 0.960 . S
C2972 H2964 0.929 . S
C2972 C2973 1.377 . S
C2972 C2974 1.384 . S
C2973 C2972 1.377 . S
C2973 C2979 1.390 . S
C2974 H2965 0.930 . S
C2974 C2972 1.384 . S
C2974 C2975 1.372 . S
C2975 C2974 1.372 . S
C2975 C2976 1.400 . S
C2975 C2980 1.490 . S
C2976 H2966 0.930 . S
C2976 C2975 1.400 . S
C2976 C2979 1.386 . S
H2977 C2993 0.930 . S
H2978 C2994 0.931 . S
C2979 H2967 0.929 . S
C2979 C2973 1.390 . S
C2979 C2976 1.386 . S
C2980 C2975 1.490 . S
C2980 C2982 1.395 . S
C2980 C2983 1.403 . S
H2981 C2987 0.930 . S
C2982 H2968 0.930 . S
C2982 C2980 1.395 . S
C2982 C2985 1.403 . S
C2983 C2980 1.403 . S
C2983 C2984 1.524 . S
C2983 C2987 1.400 . S
C2984 H2969 0.960 . S
C2984 H2970 0.960 . S
C2984 H2971 0.960 . S
C2984 C2983 1.524 . S
C2985 C2982 1.403 . S
C2985 C2986 1.392 . S
C2985 C2989 1.495 . S
C2986 C2985 1.392 . S
C2986 C2987 1.385 . S
C2986 C2988 1.478 . S
C2987 H2981 0.930 . S
C2987 C2983 1.400 . S
C2987 C2986 1.385 . S
C2988 C2986 1.478 . S
C2988 C2990 1.381 . S
C2988 C2994 1.383 . S
C2989 C2985 1.495 . S
C2989 H2995 0.959 . S
C2989 H2996 0.961 . S
C2989 H2997 0.960 . S
C2990 C2988 1.381 . S
C2990 C2991 1.394 . S
C2990 H2998 0.930 . S
C2991 C2990 1.394 . S
C2991 C2992 1.383 . S
C2991 H2999 0.929 . S
C2992 C2991 1.383 . S
C2992 C2993 1.377 . S
C2993 H2977 0.930 . S
C2993 C2992 1.377 . S
C2993 C2994 1.379 . S
C2994 H2978 0.931 . S
C2994 C2988 1.383 . S
C2994 C2993 1.379 . S
H2995 C2989 0.959 . S
H2996 C2989 0.961 . S
H2997 C2989 0.960 . S
H2998 C2990 0.930 . S
H2999 C2991 0.929 . S
H3000 C3008 0.929 . S
H3001 C3010 0.930 . S
H3002 C3012 0.930 . S
H3003 C3015 0.929 . S
H3004 C3018 0.930 . S
H3005 C3020 0.960 . S
H3006 C3020 0.960 . S
H3007 C3020 0.960 . S
C3008 H3000 0.929 . S
C3008 C3009 1.377 . S
C3008 C3010 1.384 . S
C3009 C3008 1.377 . S
C3009 C3015 1.390 . S
C3010 H3001 0.930 . S
C3010 C3008 1.384 . S
C3010 C3011 1.372 . S
C3011 C3010 1.372 . S
C3011 C3012 1.400 . S
C3011 C3016 1.490 . S
C3012 H3002 0.930 . S
C3012 C3011 1.400 . S
C3012 C3015 1.386 . S
H3013 C3029 0.930 . S
H3014 C3030 0.931 . S
C3015 H3003 0.929 . S
C3015 C3009 1.390 . S
C3015 C3012 1.386 . S
C3016 C3011 1.490 . S
C3016 C3018 1.395 . S
C3016 C3019 1.403 . S
H3017 C3023 0.930 . S
C3018 H3004 0.930 . S
C3018 C3016 1.395 . S
C3018 C3021 1.403 . S
C3019 C3016 1.403 . S
C3019 C3020 1.524 . S
C3019 C3023 1.400 . S
C3020 H3005 0.960 . S
C3020 H3006 0.960 . S
C3020 H3007 0.960 . S
C3020 C3019 1.524 . S
C3021 C3018 1.403 . S
C3021 C3022 1.392 . S
C3021 C3025 1.495 . S
C3022 C3021 1.392 . S
C3022 C3023 1.385 . S
C3022 C3024 1.478 . S
C3023 H3017 0.930 . S
C3023 C3019 1.400 . S
C3023 C3022 1.385 . S
C3024 C3022 1.478 . S
C3024 C3026 1.381 . S
C3024 C3030 1.383 . S
C3025 C3021 1.495 . S
C3025 H3031 0.959 . S
C3025 H3032 0.961 . S
C3025 H3033 0.960 . S
C3026 C3024 1.381 . S
C3026 C3027 1.394 . S
C3026 H3034 0.930 . S
C3027 C3026 1.394 . S
C3027 C3028 1.383 . S
C3027 H3035 0.929 . S
C3028 C3027 1.383 . S
C3028 C3029 1.377 . S
C3029 H3013 0.930 . S
C3029 C3028 1.377 . S
C3029 C3030 1.379 . S
C3030 H3014 0.931 . S
C3030 C3024 1.383 . S
C3030 C3029 1.379 . S
H3031 C3025 0.959 . S
H3032 C3025 0.961 . S
H3033 C3025 0.960 . S
H3034 C3026 0.930 . S
H3035 C3027 0.929 . S
H3036 C3044 0.929 . S
H3037 C3046 0.930 . S
H3038 C3048 0.930 . S
H3039 C3051 0.929 . S
H3040 C3054 0.930 . S
H3041 C3056 0.960 . S
H3042 C3056 0.960 . S
H3043 C3056 0.960 . S
C3044 H3036 0.929 . S
C3044 C3045 1.377 . S
C3044 C3046 1.384 . S
C3045 C3044 1.377 . S
C3045 C3051 1.390 . S
C3046 H3037 0.930 . S
C3046 C3044 1.384 . S
C3046 C3047 1.372 . S
C3047 C3046 1.372 . S
C3047 C3048 1.400 . S
C3047 C3052 1.490 . S
C3048 H3038 0.930 . S
C3048 C3047 1.400 . S
C3048 C3051 1.386 . S
H3049 C3065 0.930 . S
H3050 C3066 0.931 . S
C3051 H3039 0.929 . S
C3051 C3045 1.390 . S
C3051 C3048 1.386 . S
C3052 C3047 1.490 . S
C3052 C3054 1.395 . S
C3052 C3055 1.403 . S
H3053 C3059 0.930 . S
C3054 H3040 0.930 . S
C3054 C3052 1.395 . S
C3054 C3057 1.403 . S
C3055 C3052 1.403 . S
C3055 C3056 1.524 . S
C3055 C3059 1.400 . S
C3056 H3041 0.960 . S
C3056 H3042 0.960 . S
C3056 H3043 0.960 . S
C3056 C3055 1.524 . S
C3057 C3054 1.403 . S
C3057 C3058 1.392 . S
C3057 C3061 1.495 . S
C3058 C3057 1.392 . S
C3058 C3059 1.385 . S
C3058 C3060 1.478 . S
C3059 H3053 0.930 . S
C3059 C3055 1.400 . S
C3059 C3058 1.385 . S
C3060 C3058 1.478 . S
C3060 C3062 1.381 . S
C3060 C3066 1.383 . S
C3061 C3057 1.495 . S
C3061 H3067 0.959 . S
C3061 H3068 0.961 . S
C3061 H3069 0.960 . S
C3062 C3060 1.381 . S
C3062 C3063 1.394 . S
C3062 H3070 0.930 . S
C3063 C3062 1.394 . S
C3063 C3064 1.383 . S
C3063 H3071 0.929 . S
C3064 C3063 1.383 . S
C3064 C3065 1.377 . S
C3065 H3049 0.930 . S
C3065 C3064 1.377 . S
C3065 C3066 1.379 . S
C3066 H3050 0.931 . S
C3066 C3060 1.383 . S
C3066 C3065 1.379 . S
H3067 C3061 0.959 . S
H3068 C3061 0.961 . S
H3069 C3061 0.960 . S
H3070 C3062 0.930 . S
H3071 C3063 0.929 . S
H3072 C3080 0.929 . S
H3073 C3082 0.930 . S
H3074 C3084 0.930 . S
H3075 C3087 0.929 . S
H3076 C3090 0.930 . S
H3077 C3092 0.960 . S
H3078 C3092 0.960 . S
H3079 C3092 0.960 . S
C3080 H3072 0.929 . S
C3080 C3081 1.377 . S
C3080 C3082 1.384 . S
C3081 C3080 1.377 . S
C3081 C3087 1.390 . S
C3082 H3073 0.930 . S
C3082 C3080 1.384 . S
C3082 C3083 1.372 . S
C3083 C3082 1.372 . S
C3083 C3084 1.400 . S
C3083 C3088 1.490 . S
C3084 H3074 0.930 . S
C3084 C3083 1.400 . S
C3084 C3087 1.386 . S
H3085 C3101 0.930 . S
H3086 C3102 0.931 . S
C3087 H3075 0.929 . S
C3087 C3081 1.390 . S
C3087 C3084 1.386 . S
C3088 C3083 1.490 . S
C3088 C3090 1.395 . S
C3088 C3091 1.403 . S
H3089 C3095 0.930 . S
C3090 H3076 0.930 . S
C3090 C3088 1.395 . S
C3090 C3093 1.403 . S
C3091 C3088 1.403 . S
C3091 C3092 1.524 . S
C3091 C3095 1.400 . S
C3092 H3077 0.960 . S
C3092 H3078 0.960 . S
C3092 H3079 0.960 . S
C3092 C3091 1.524 . S
C3093 C3090 1.403 . S
C3093 C3094 1.392 . S
C3093 C3097 1.495 . S
C3094 C3093 1.392 . S
C3094 C3095 1.385 . S
C3094 C3096 1.478 . S
C3095 H3089 0.930 . S
C3095 C3091 1.400 . S
C3095 C3094 1.385 . S
C3096 C3094 1.478 . S
C3096 C3098 1.381 . S
C3096 C3102 1.383 . S
C3097 C3093 1.495 . S
C3097 H3103 0.959 . S
C3097 H3104 0.961 . S
C3097 H3105 0.960 . S
C3098 C3096 1.381 . S
C3098 C3099 1.394 . S
C3098 H3106 0.930 . S
C3099 C3098 1.394 . S
C3099 C3100 1.383 . S
C3099 H3107 0.929 . S
C3100 C3099 1.383 . S
C3100 C3101 1.377 . S
C3101 H3085 0.930 . S
C3101 C3100 1.377 . S
C3101 C3102 1.379 . S
C3102 H3086 0.931 . S
C3102 C3096 1.383 . S
C3102 C3101 1.379 . S
H3103 C3097 0.959 . S
H3104 C3097 0.961 . S
H3105 C3097 0.960 . S
H3106 C3098 0.930 . S
H3107 C3099 0.929 . S
H3108 C3116 0.929 . S
H3109 C3118 0.930 . S
H3110 C3120 0.930 . S
H3111 C3123 0.929 . S
H3112 C3126 0.930 . S
H3113 C3128 0.960 . S
H3114 C3128 0.960 . S
H3115 C3128 0.960 . S
C3116 H3108 0.929 . S
C3116 C3117 1.377 . S
C3116 C3118 1.384 . S
C3117 C3116 1.377 . S
C3117 C3123 1.390 . S
C3118 H3109 0.930 . S
C3118 C3116 1.384 . S
C3118 C3119 1.372 . S
C3119 C3118 1.372 . S
C3119 C3120 1.400 . S
C3119 C3124 1.490 . S
C3120 H3110 0.930 . S
C3120 C3119 1.400 . S
C3120 C3123 1.386 . S
H3121 C3137 0.930 . S
H3122 C3138 0.931 . S
C3123 H3111 0.929 . S
C3123 C3117 1.390 . S
C3123 C3120 1.386 . S
C3124 C3119 1.490 . S
C3124 C3126 1.395 . S
C3124 C3127 1.403 . S
H3125 C3131 0.930 . S
C3126 H3112 0.930 . S
C3126 C3124 1.395 . S
C3126 C3129 1.403 . S
C3127 C3124 1.403 . S
C3127 C3128 1.524 . S
C3127 C3131 1.400 . S
C3128 H3113 0.960 . S
C3128 H3114 0.960 . S
C3128 H3115 0.960 . S
C3128 C3127 1.524 . S
C3129 C3126 1.403 . S
C3129 C3130 1.392 . S
C3129 C3133 1.495 . S
C3130 C3129 1.392 . S
C3130 C3131 1.385 . S
C3130 C3132 1.478 . S
C3131 H3125 0.930 . S
C3131 C3127 1.400 . S
C3131 C3130 1.385 . S
C3132 C3130 1.478 . S
C3132 C3134 1.381 . S
C3132 C3138 1.383 . S
C3133 C3129 1.495 . S
C3133 H3139 0.959 . S
C3133 H3140 0.961 . S
C3133 H3141 0.960 . S
C3134 C3132 1.381 . S
C3134 C3135 1.394 . S
C3134 H3142 0.930 . S
C3135 C3134 1.394 . S
C3135 C3136 1.383 . S
C3135 H3143 0.929 . S
C3136 C3135 1.383 . S
C3136 C3137 1.377 . S
C3137 H3121 0.930 . S
C3137 C3136 1.377 . S
C3137 C3138 1.379 . S
C3138 H3122 0.931 . S
C3138 C3132 1.383 . S
C3138 C3137 1.379 . S
H3139 C3133 0.959 . S
H3140 C3133 0.961 . S
H3141 C3133 0.960 . S
H3142 C3134 0.930 . S
H3143 C3135 0.929 . S
H3144 C3152 0.929 . S
H3145 C3154 0.930 . S
H3146 C3156 0.930 . S
H3147 C3159 0.950 . S
H3148 C3162 0.930 . S
H3149 C3164 0.960 . S
H3150 C3164 0.960 . S
H3151 C3164 0.960 . S
C3152 H3144 0.929 . S
C3152 C3153 1.377 1_556 S
C3152 C3154 1.384 . S
C3153 C3152 1.377 1_554 S
C3153 C3159 1.392 . S
C3154 H3145 0.930 . S
C3154 C3152 1.384 . S
C3154 C3155 1.372 . S
C3155 C3154 1.372 . S
C3155 C3156 1.400 . S
C3155 C3160 1.490 . S
C3156 H3146 0.930 . S
C3156 C3155 1.400 . S
C3156 C3159 1.365 1_556 S
H3157 C3173 0.930 . S
H3158 C3174 0.931 . S
C3159 H3147 0.950 . S
C3159 C3153 1.392 . S
C3159 C3156 1.365 1_554 S
C3160 C3155 1.490 . S
C3160 C3162 1.395 . S
C3160 C3163 1.403 . S
H3161 C3167 0.930 . S
C3162 H3148 0.930 . S
C3162 C3160 1.395 . S
C3162 C3165 1.403 . S
C3163 C3160 1.403 . S
C3163 C3164 1.524 . S
C3163 C3167 1.400 . S
C3164 H3149 0.960 . S
C3164 H3150 0.960 . S
C3164 H3151 0.960 . S
C3164 C3163 1.524 . S
C3165 C3162 1.403 . S
C3165 C3166 1.392 . S
C3165 C3169 1.495 . S
C3166 C3165 1.392 . S
C3166 C3167 1.385 . S
C3166 C3168 1.478 . S
C3167 H3161 0.930 . S
C3167 C3163 1.400 . S
C3167 C3166 1.385 . S
C3168 C3166 1.478 . S
C3168 C3170 1.381 . S
C3168 C3174 1.383 . S
C3169 C3165 1.495 . S
C3169 H3175 0.959 . S
C3169 H3176 0.961 . S
C3169 H3177 0.960 . S
C3170 C3168 1.381 . S
C3170 C3171 1.394 . S
C3170 H3178 0.930 . S
C3171 C3170 1.394 . S
C3171 C3172 1.383 . S
C3171 H3179 0.929 . S
C3172 C3171 1.383 . S
C3172 C3173 1.377 . S
C3173 H3157 0.930 . S
C3173 C3172 1.377 . S
C3173 C3174 1.379 . S
C3174 H3158 0.931 . S
C3174 C3168 1.383 . S
C3174 C3173 1.379 . S
H3175 C3169 0.959 . S
H3176 C3169 0.961 . S
H3177 C3169 0.960 . S
H3178 C3170 0.930 . S
H3179 C3171 0.929 . S
H3180 C3188 0.929 . S
H3181 C3190 0.930 . S
H3182 C3192 0.930 . S
H3183 C3195 0.929 . S
H3184 C3198 0.930 . S
H3185 C3200 0.960 . S
H3186 C3200 0.960 . S
H3187 C3200 0.960 . S
C3188 H3180 0.929 . S
C3188 C3189 1.377 . S
C3188 C3190 1.384 . S
C3189 C3188 1.377 . S
C3189 C3195 1.390 . S
C3190 H3181 0.930 . S
C3190 C3188 1.384 . S
C3190 C3191 1.372 . S
C3191 C3190 1.372 . S
C3191 C3192 1.400 . S
C3191 C3196 1.490 1_455 S
C3192 H3182 0.930 . S
C3192 C3191 1.400 . S
C3192 C3195 1.386 . S
H3193 C3209 0.930 . S
H3194 C3210 0.931 . S
C3195 H3183 0.929 . S
C3195 C3189 1.390 . S
C3195 C3192 1.386 . S
C3196 C3191 1.490 1_655 S
C3196 C3198 1.395 . S
C3196 C3199 1.403 . S
H3197 C3203 0.930 . S
C3198 H3184 0.930 . S
C3198 C3196 1.395 . S
C3198 C3201 1.403 . S
C3199 C3196 1.403 . S
C3199 C3200 1.524 1_655 S
C3199 C3203 1.400 . S
C3200 H3185 0.960 . S
C3200 H3186 0.960 . S
C3200 H3187 0.960 . S
C3200 C3199 1.524 1_455 S
C3201 C3198 1.403 . S
C3201 C3202 1.392 . S
C3201 C3205 1.495 . S
C3202 C3201 1.392 . S
C3202 C3203 1.385 . S
C3202 C3204 1.478 . S
C3203 H3197 0.930 . S
C3203 C3199 1.400 . S
C3203 C3202 1.385 . S
C3204 C3202 1.478 . S
C3204 C3206 1.381 . S
C3204 C3210 1.383 . S
C3205 C3201 1.495 . S
C3205 H3211 0.959 . S
C3205 H3212 0.961 . S
C3205 H3213 0.960 . S
C3206 C3204 1.381 . S
C3206 C3207 1.394 . S
C3206 H3214 0.930 . S
C3207 C3206 1.394 . S
C3207 C3208 1.383 . S
C3207 H3215 0.929 . S
C3208 C3207 1.383 . S
C3208 C3209 1.377 . S
C3209 H3193 0.930 . S
C3209 C3208 1.377 . S
C3209 C3210 1.379 . S
C3210 H3194 0.931 . S
C3210 C3204 1.383 . S
C3210 C3209 1.379 . S
H3211 C3205 0.959 . S
H3212 C3205 0.961 . S
H3213 C3205 0.960 . S
H3214 C3206 0.930 . S
H3215 C3207 0.929 . S
H3216 C3224 0.929 . S
H3217 C3226 0.930 . S
H3218 C3228 0.930 . S
H3219 C3231 0.929 . S
H3220 C3234 0.930 . S
H3221 C3236 0.960 . S
H3222 C3236 0.960 . S
H3223 C3236 0.960 . S
C3224 H3216 0.929 . S
C3224 C3225 1.377 . S
C3224 C3226 1.384 . S
C3225 C3224 1.377 . S
C3225 C3231 1.390 . S
C3226 H3217 0.930 . S
C3226 C3224 1.384 . S
C3226 C3227 1.372 . S
C3227 C3226 1.372 . S
C3227 C3228 1.400 . S
C3227 C3232 1.490 . S
C3228 H3218 0.930 . S
C3228 C3227 1.400 . S
C3228 C3231 1.386 . S
H3229 C3245 0.930 . S
H3230 C3246 0.931 . S
C3231 H3219 0.929 . S
C3231 C3225 1.390 . S
C3231 C3228 1.386 . S
C3232 C3227 1.490 . S
C3232 C3234 1.395 . S
C3232 C3235 1.403 . S
H3233 C3239 0.930 . S
C3234 H3220 0.930 . S
C3234 C3232 1.395 . S
C3234 C3237 1.403 . S
C3235 C3232 1.403 . S
C3235 C3236 1.524 . S
C3235 C3239 1.400 . S
C3236 H3221 0.960 . S
C3236 H3222 0.960 . S
C3236 H3223 0.960 . S
C3236 C3235 1.524 . S
C3237 C3234 1.403 . S
C3237 C3238 1.392 . S
C3237 C3241 1.495 . S
C3238 C3237 1.392 . S
C3238 C3239 1.385 . S
C3238 C3240 1.478 . S
C3239 H3233 0.930 . S
C3239 C3235 1.400 . S
C3239 C3238 1.385 . S
C3240 C3238 1.478 . S
C3240 C3242 1.381 . S
C3240 C3246 1.383 . S
C3241 C3237 1.495 . S
C3241 H3247 0.959 . S
C3241 H3248 0.961 . S
C3241 H3249 0.960 . S
C3242 C3240 1.381 . S
C3242 C3243 1.394 . S
C3242 H3250 0.930 . S
C3243 C3242 1.394 . S
C3243 C3244 1.383 . S
C3243 H3251 0.929 . S
C3244 C3243 1.383 . S
C3244 C3245 1.377 . S
C3245 H3229 0.930 . S
C3245 C3244 1.377 . S
C3245 C3246 1.379 . S
C3246 H3230 0.931 . S
C3246 C3240 1.383 . S
C3246 C3245 1.379 . S
H3247 C3241 0.959 . S
H3248 C3241 0.961 . S
H3249 C3241 0.960 . S
H3250 C3242 0.930 . S
H3251 C3243 0.929 . S
H3252 C3260 0.929 . S
H3253 C3262 0.930 . S
H3254 C3264 0.930 . S
H3255 C3267 0.929 . S
H3256 C3270 0.930 . S
H3257 C3272 0.960 . S
H3258 C3272 0.960 . S
H3259 C3272 0.960 . S
C3260 H3252 0.929 . S
C3260 C3261 1.377 . S
C3260 C3262 1.384 . S
C3261 C3260 1.377 . S
C3261 C3267 1.390 . S
C3262 H3253 0.930 . S
C3262 C3260 1.384 . S
C3262 C3263 1.372 . S
C3263 C3262 1.372 . S
C3263 C3264 1.400 . S
C3263 C3268 1.490 . S
C3264 H3254 0.930 . S
C3264 C3263 1.400 . S
C3264 C3267 1.386 . S
H3265 C3281 0.930 . S
H3266 C3282 0.931 . S
C3267 H3255 0.929 . S
C3267 C3261 1.390 . S
C3267 C3264 1.386 . S
C3268 C3263 1.490 . S
C3268 C3270 1.395 . S
C3268 C3271 1.403 . S
H3269 C3275 0.930 . S
C3270 H3256 0.930 . S
C3270 C3268 1.395 . S
C3270 C3273 1.403 . S
C3271 C3268 1.403 . S
C3271 C3272 1.524 . S
C3271 C3275 1.400 . S
C3272 H3257 0.960 . S
C3272 H3258 0.960 . S
C3272 H3259 0.960 . S
C3272 C3271 1.524 . S
C3273 C3270 1.403 . S
C3273 C3274 1.392 . S
C3273 C3277 1.495 . S
C3274 C3273 1.392 . S
C3274 C3275 1.385 . S
C3274 C3276 1.478 . S
C3275 H3269 0.930 . S
C3275 C3271 1.400 . S
C3275 C3274 1.385 . S
C3276 C3274 1.478 . S
C3276 C3278 1.381 . S
C3276 C3282 1.383 . S
C3277 C3273 1.495 . S
C3277 H3283 0.959 . S
C3277 H3284 0.961 . S
C3277 H3285 0.960 . S
C3278 C3276 1.381 . S
C3278 C3279 1.394 . S
C3278 H3286 0.930 . S
C3279 C3278 1.394 . S
C3279 C3280 1.383 . S
C3279 H3287 0.929 . S
C3280 C3279 1.383 . S
C3280 C3281 1.377 . S
C3281 H3265 0.930 . S
C3281 C3280 1.377 . S
C3281 C3282 1.379 . S
C3282 H3266 0.931 . S
C3282 C3276 1.383 . S
C3282 C3281 1.379 . S
H3283 C3277 0.959 . S
H3284 C3277 0.961 . S
H3285 C3277 0.960 . S
H3286 C3278 0.930 . S
H3287 C3279 0.929 . S
H3288 C3296 0.929 . S
H3289 C3298 0.930 . S
H3290 C3300 0.930 . S
H3291 C3303 0.929 . S
H3292 C3306 0.930 . S
H3293 C3308 0.960 . S
H3294 C3308 0.960 . S
H3295 C3308 0.960 . S
C3296 H3288 0.929 . S
C3296 C3297 1.377 . S
C3296 C3298 1.384 . S
C3297 C3296 1.377 . S
C3297 C3303 1.390 . S
C3298 H3289 0.930 . S
C3298 C3296 1.384 . S
C3298 C3299 1.372 . S
C3299 C3298 1.372 . S
C3299 C3300 1.400 . S
C3299 C3304 1.490 . S
C3300 H3290 0.930 . S
C3300 C3299 1.400 . S
C3300 C3303 1.386 . S
H3301 C3317 0.930 . S
H3302 C3318 0.931 . S
C3303 H3291 0.929 . S
C3303 C3297 1.390 . S
C3303 C3300 1.386 . S
C3304 C3299 1.490 . S
C3304 C3306 1.395 . S
C3304 C3307 1.403 . S
H3305 C3311 0.930 . S
C3306 H3292 0.930 . S
C3306 C3304 1.395 . S
C3306 C3309 1.403 . S
C3307 C3304 1.403 . S
C3307 C3308 1.524 . S
C3307 C3311 1.400 . S
C3308 H3293 0.960 . S
C3308 H3294 0.960 . S
C3308 H3295 0.960 . S
C3308 C3307 1.524 . S
C3309 C3306 1.403 . S
C3309 C3310 1.392 . S
C3309 C3313 1.495 . S
C3310 C3309 1.392 . S
C3310 C3311 1.385 . S
C3310 C3312 1.478 . S
C3311 H3305 0.930 . S
C3311 C3307 1.400 . S
C3311 C3310 1.385 . S
C3312 C3310 1.478 . S
C3312 C3314 1.381 . S
C3312 C3318 1.383 . S
C3313 C3309 1.495 . S
C3313 H3319 0.959 . S
C3313 H3320 0.961 . S
C3313 H3321 0.960 . S
C3314 C3312 1.381 . S
C3314 C3315 1.394 . S
C3314 H3322 0.930 . S
C3315 C3314 1.394 . S
C3315 C3316 1.383 . S
C3315 H3323 0.929 . S
C3316 C3315 1.383 . S
C3316 C3317 1.377 . S
C3317 H3301 0.930 . S
C3317 C3316 1.377 . S
C3317 C3318 1.379 . S
C3318 H3302 0.931 . S
C3318 C3312 1.383 . S
C3318 C3317 1.379 . S
H3319 C3313 0.959 . S
H3320 C3313 0.961 . S
H3321 C3313 0.960 . S
H3322 C3314 0.930 . S
H3323 C3315 0.929 . S
H3324 C3332 0.929 . S
H3325 C3334 0.930 . S
H3326 C3336 0.930 . S
H3327 C3339 0.929 . S
H3328 C3342 0.930 . S
H3329 C3344 0.960 . S
H3330 C3344 0.960 . S
H3331 C3344 0.960 . S
C3332 H3324 0.929 . S
C3332 C3333 1.377 . S
C3332 C3334 1.384 . S
C3333 C3332 1.377 . S
C3333 C3339 1.390 . S
C3334 H3325 0.930 . S
C3334 C3332 1.384 . S
C3334 C3335 1.372 . S
C3335 C3334 1.372 . S
C3335 C3336 1.400 . S
C3335 C3340 1.490 . S
C3336 H3326 0.930 . S
C3336 C3335 1.400 . S
C3336 C3339 1.386 . S
H3337 C3353 0.930 . S
H3338 C3354 0.931 . S
C3339 H3327 0.929 . S
C3339 C3333 1.390 . S
C3339 C3336 1.386 . S
C3340 C3335 1.490 . S
C3340 C3342 1.395 . S
C3340 C3343 1.403 . S
H3341 C3347 0.930 . S
C3342 H3328 0.930 . S
C3342 C3340 1.395 . S
C3342 C3345 1.403 . S
C3343 C3340 1.403 . S
C3343 C3344 1.524 . S
C3343 C3347 1.400 . S
C3344 H3329 0.960 . S
C3344 H3330 0.960 . S
C3344 H3331 0.960 . S
C3344 C3343 1.524 . S
C3345 C3342 1.403 . S
C3345 C3346 1.392 . S
C3345 C3349 1.495 . S
C3346 C3345 1.392 . S
C3346 C3347 1.385 . S
C3346 C3348 1.478 . S
C3347 H3341 0.930 . S
C3347 C3343 1.400 . S
C3347 C3346 1.385 . S
C3348 C3346 1.478 . S
C3348 C3350 1.381 . S
C3348 C3354 1.383 . S
C3349 C3345 1.495 . S
C3349 H3355 0.959 . S
C3349 H3356 0.961 . S
C3349 H3357 0.960 . S
C3350 C3348 1.381 . S
C3350 C3351 1.394 . S
C3350 H3358 0.930 . S
C3351 C3350 1.394 . S
C3351 C3352 1.383 . S
C3351 H3359 0.929 . S
C3352 C3351 1.383 . S
C3352 C3353 1.377 . S
C3353 H3337 0.930 . S
C3353 C3352 1.377 . S
C3353 C3354 1.379 . S
C3354 H3338 0.931 . S
C3354 C3348 1.383 . S
C3354 C3353 1.379 . S
H3355 C3349 0.959 . S
H3356 C3349 0.961 . S
H3357 C3349 0.960 . S
H3358 C3350 0.930 . S
H3359 C3351 0.929 . S
H3360 C3368 0.929 . S
H3361 C3370 0.930 . S
H3362 C3372 0.930 . S
H3363 C3375 0.929 . S
H3364 C3378 0.930 . S
H3365 C3380 0.960 . S
H3366 C3380 0.960 . S
H3367 C3380 0.960 . S
C3368 H3360 0.929 . S
C3368 C3369 1.377 . S
C3368 C3370 1.384 . S
C3369 C3368 1.377 . S
C3369 C3375 1.390 . S
C3370 H3361 0.930 . S
C3370 C3368 1.384 . S
C3370 C3371 1.372 . S
C3371 C3370 1.372 . S
C3371 C3372 1.400 . S
C3371 C3376 1.490 . S
C3372 H3362 0.930 . S
C3372 C3371 1.400 . S
C3372 C3375 1.386 . S
H3373 C3389 0.930 . S
H3374 C3390 0.931 . S
C3375 H3363 0.929 . S
C3375 C3369 1.390 . S
C3375 C3372 1.386 . S
C3376 C3371 1.490 . S
C3376 C3378 1.395 . S
C3376 C3379 1.403 . S
H3377 C3383 0.930 . S
C3378 H3364 0.930 . S
C3378 C3376 1.395 . S
C3378 C3381 1.403 . S
C3379 C3376 1.403 . S
C3379 C3380 1.524 . S
C3379 C3383 1.400 . S
C3380 H3365 0.960 . S
C3380 H3366 0.960 . S
C3380 H3367 0.960 . S
C3380 C3379 1.524 . S
C3381 C3378 1.403 . S
C3381 C3382 1.392 . S
C3381 C3385 1.495 . S
C3382 C3381 1.392 . S
C3382 C3383 1.385 . S
C3382 C3384 1.478 . S
C3383 H3377 0.930 . S
C3383 C3379 1.400 . S
C3383 C3382 1.385 . S
C3384 C3382 1.478 . S
C3384 C3386 1.381 . S
C3384 C3390 1.383 . S
C3385 C3381 1.495 . S
C3385 H3391 0.959 . S
C3385 H3392 0.961 . S
C3385 H3393 0.960 . S
C3386 C3384 1.381 . S
C3386 C3387 1.394 . S
C3386 H3394 0.930 . S
C3387 C3386 1.394 . S
C3387 C3388 1.383 . S
C3387 H3395 0.929 . S
C3388 C3387 1.383 . S
C3388 C3389 1.377 . S
C3389 H3373 0.930 . S
C3389 C3388 1.377 . S
C3389 C3390 1.379 . S
C3390 H3374 0.931 . S
C3390 C3384 1.383 . S
C3390 C3389 1.379 . S
H3391 C3385 0.959 . S
H3392 C3385 0.961 . S
H3393 C3385 0.960 . S
H3394 C3386 0.930 . S
H3395 C3387 0.929 . S
H3396 C3404 0.929 . S
H3397 C3406 0.930 . S
H3398 C3408 0.930 . S
H3399 C3411 0.929 . S
H3400 C3414 0.930 . S
H3401 C3416 0.960 . S
H3402 C3416 0.960 . S
H3403 C3416 0.960 . S
C3404 H3396 0.929 . S
C3404 C3405 1.377 . S
C3404 C3406 1.384 . S
C3405 C3404 1.377 . S
C3405 C3411 1.390 . S
C3406 H3397 0.930 . S
C3406 C3404 1.384 . S
C3406 C3407 1.372 . S
C3407 C3406 1.372 . S
C3407 C3408 1.400 . S
C3407 C3412 1.490 . S
C3408 H3398 0.930 . S
C3408 C3407 1.400 . S
C3408 C3411 1.386 . S
H3409 C3425 0.930 . S
H3410 C3426 0.931 . S
C3411 H3399 0.929 . S
C3411 C3405 1.390 . S
C3411 C3408 1.386 . S
C3412 C3407 1.490 . S
C3412 C3414 1.395 . S
C3412 C3415 1.403 . S
H3413 C3419 0.930 . S
C3414 H3400 0.930 . S
C3414 C3412 1.395 . S
C3414 C3417 1.403 . S
C3415 C3412 1.403 . S
C3415 C3416 1.524 . S
C3415 C3419 1.400 . S
C3416 H3401 0.960 . S
C3416 H3402 0.960 . S
C3416 H3403 0.960 . S
C3416 C3415 1.524 . S
C3417 C3414 1.403 . S
C3417 C3418 1.392 . S
C3417 C3421 1.495 . S
C3418 C3417 1.392 . S
C3418 C3419 1.385 . S
C3418 C3420 1.478 . S
C3419 H3413 0.930 . S
C3419 C3415 1.400 . S
C3419 C3418 1.385 . S
C3420 C3418 1.478 . S
C3420 C3422 1.381 . S
C3420 C3426 1.383 . S
C3421 C3417 1.495 . S
C3421 H3427 0.959 . S
C3421 H3428 0.961 . S
C3421 H3429 0.960 . S
C3422 C3420 1.381 . S
C3422 C3423 1.394 . S
C3422 H3430 0.930 . S
C3423 C3422 1.394 . S
C3423 C3424 1.383 . S
C3423 H3431 0.929 . S
C3424 C3423 1.383 . S
C3424 C3425 1.377 . S
C3425 H3409 0.930 . S
C3425 C3424 1.377 . S
C3425 C3426 1.379 . S
C3426 H3410 0.931 . S
C3426 C3420 1.383 . S
C3426 C3425 1.379 . S
H3427 C3421 0.959 . S
H3428 C3421 0.961 . S
H3429 C3421 0.960 . S
H3430 C3422 0.930 . S
H3431 C3423 0.929 . S
H3432 C3440 0.929 . S
H3433 C3442 0.930 . S
H3434 C3444 0.930 . S
H3435 C3447 0.929 . S
H3436 C3450 0.930 . S
H3437 C3452 0.960 . S
H3438 C3452 0.960 . S
H3439 C3452 0.960 . S
C3440 H3432 0.929 . S
C3440 C3441 1.377 . S
C3440 C3442 1.384 . S
C3441 C3440 1.377 . S
C3441 C3447 1.390 . S
C3442 H3433 0.930 . S
C3442 C3440 1.384 . S
C3442 C3443 1.372 . S
C3443 C3442 1.372 . S
C3443 C3444 1.400 . S
C3443 C3448 1.490 . S
C3444 H3434 0.930 . S
C3444 C3443 1.400 . S
C3444 C3447 1.386 . S
H3445 C3461 0.930 . S
H3446 C3462 0.931 . S
C3447 H3435 0.929 . S
C3447 C3441 1.390 . S
C3447 C3444 1.386 . S
C3448 C3443 1.490 . S
C3448 C3450 1.395 . S
C3448 C3451 1.403 . S
H3449 C3455 0.930 . S
C3450 H3436 0.930 . S
C3450 C3448 1.395 . S
C3450 C3453 1.403 . S
C3451 C3448 1.403 . S
C3451 C3452 1.524 . S
C3451 C3455 1.400 . S
C3452 H3437 0.960 . S
C3452 H3438 0.960 . S
C3452 H3439 0.960 . S
C3452 C3451 1.524 . S
C3453 C3450 1.403 . S
C3453 C3454 1.392 . S
C3453 C3457 1.495 . S
C3454 C3453 1.392 . S
C3454 C3455 1.385 . S
C3454 C3456 1.478 . S
C3455 H3449 0.930 . S
C3455 C3451 1.400 . S
C3455 C3454 1.385 . S
C3456 C3454 1.478 . S
C3456 C3458 1.381 . S
C3456 C3462 1.383 . S
C3457 C3453 1.495 . S
C3457 H3463 0.959 . S
C3457 H3464 0.961 . S
C3457 H3465 0.960 . S
C3458 C3456 1.381 . S
C3458 C3459 1.394 . S
C3458 H3466 0.930 . S
C3459 C3458 1.394 . S
C3459 C3460 1.383 . S
C3459 H3467 0.929 . S
C3460 C3459 1.383 . S
C3460 C3461 1.377 . S
C3461 H3445 0.930 . S
C3461 C3460 1.377 . S
C3461 C3462 1.379 . S
C3462 H3446 0.931 . S
C3462 C3456 1.383 . S
C3462 C3461 1.379 . S
H3463 C3457 0.959 . S
H3464 C3457 0.961 . S
H3465 C3457 0.960 . S
H3466 C3458 0.930 . S
H3467 C3459 0.929 . S
H3468 C3476 0.929 . S
H3469 C3478 0.930 . S
H3470 C3480 0.930 . S
H3471 C3483 0.929 . S
H3472 C3486 0.930 . S
H3473 C3488 0.960 . S
H3474 C3488 0.960 . S
H3475 C3488 0.960 . S
C3476 H3468 0.929 . S
C3476 C3477 1.377 . S
C3476 C3478 1.384 . S
C3477 C3476 1.377 . S
C3477 C3483 1.390 . S
C3478 H3469 0.930 . S
C3478 C3476 1.384 . S
C3478 C3479 1.372 . S
C3479 C3478 1.372 . S
C3479 C3480 1.400 . S
C3479 C3484 1.490 . S
C3480 H3470 0.930 . S
C3480 C3479 1.400 . S
C3480 C3483 1.386 . S
H3481 C3497 0.930 . S
H3482 C3498 0.931 . S
C3483 H3471 0.929 . S
C3483 C3477 1.390 . S
C3483 C3480 1.386 . S
C3484 C3479 1.490 . S
C3484 C3486 1.395 . S
C3484 C3487 1.403 . S
H3485 C3491 0.930 . S
C3486 H3472 0.930 . S
C3486 C3484 1.395 . S
C3486 C3489 1.403 . S
C3487 C3484 1.403 . S
C3487 C3488 1.524 . S
C3487 C3491 1.400 . S
C3488 H3473 0.960 . S
C3488 H3474 0.960 . S
C3488 H3475 0.960 . S
C3488 C3487 1.524 . S
C3489 C3486 1.403 . S
C3489 C3490 1.392 . S
C3489 C3493 1.495 . S
C3490 C3489 1.392 . S
C3490 C3491 1.385 . S
C3490 C3492 1.478 . S
C3491 H3485 0.930 . S
C3491 C3487 1.400 . S
C3491 C3490 1.385 . S
C3492 C3490 1.478 . S
C3492 C3494 1.381 . S
C3492 C3498 1.383 . S
C3493 C3489 1.495 . S
C3493 H3499 0.959 . S
C3493 H3500 0.961 . S
C3493 H3501 0.960 . S
C3494 C3492 1.381 . S
C3494 C3495 1.394 . S
C3494 H3502 0.930 . S
C3495 C3494 1.394 . S
C3495 C3496 1.383 . S
C3495 H3503 0.929 . S
C3496 C3495 1.383 . S
C3496 C3497 1.377 . S
C3497 H3481 0.930 . S
C3497 C3496 1.377 . S
C3497 C3498 1.379 . S
C3498 H3482 0.931 . S
C3498 C3492 1.383 . S
C3498 C3497 1.379 . S
H3499 C3493 0.959 . S
H3500 C3493 0.961 . S
H3501 C3493 0.960 . S
H3502 C3494 0.930 . S
H3503 C3495 0.929 . S
H3504 C3512 0.929 . S
H3505 C3514 0.930 . S
H3506 C3516 0.930 . S
H3507 C3519 0.929 . S
H3508 C3522 0.930 . S
H3509 C3524 0.960 . S
H3510 C3524 0.960 . S
H3511 C3524 0.960 . S
C3512 H3504 0.929 . S
C3512 C3513 1.377 . S
C3512 C3514 1.384 . S
C3513 C3512 1.377 . S
C3513 C3519 1.390 . S
C3514 H3505 0.930 . S
C3514 C3512 1.384 . S
C3514 C3515 1.372 . S
C3515 C3514 1.372 . S
C3515 C3516 1.400 . S
C3515 C3520 1.490 . S
C3516 H3506 0.930 . S
C3516 C3515 1.400 . S
C3516 C3519 1.386 . S
H3517 C3533 0.930 . S
H3518 C3534 0.931 . S
C3519 H3507 0.929 . S
C3519 C3513 1.390 . S
C3519 C3516 1.386 . S
C3520 C3515 1.490 . S
C3520 C3522 1.395 . S
C3520 C3523 1.403 . S
H3521 C3527 0.930 . S
C3522 H3508 0.930 . S
C3522 C3520 1.395 . S
C3522 C3525 1.403 . S
C3523 C3520 1.403 . S
C3523 C3524 1.524 . S
C3523 C3527 1.400 . S
C3524 H3509 0.960 . S
C3524 H3510 0.960 . S
C3524 H3511 0.960 . S
C3524 C3523 1.524 . S
C3525 C3522 1.403 . S
C3525 C3526 1.392 . S
C3525 C3529 1.495 . S
C3526 C3525 1.392 . S
C3526 C3527 1.385 . S
C3526 C3528 1.478 . S
C3527 H3521 0.930 . S
C3527 C3523 1.400 . S
C3527 C3526 1.385 . S
C3528 C3526 1.478 . S
C3528 C3530 1.381 . S
C3528 C3534 1.383 . S
C3529 C3525 1.495 . S
C3529 H3535 0.959 . S
C3529 H3536 0.961 . S
C3529 H3537 0.960 . S
C3530 C3528 1.381 . S
C3530 C3531 1.394 . S
C3530 H3538 0.930 . S
C3531 C3530 1.394 . S
C3531 C3532 1.383 . S
C3531 H3539 0.929 . S
C3532 C3531 1.383 . S
C3532 C3533 1.377 . S
C3533 H3517 0.930 . S
C3533 C3532 1.377 . S
C3533 C3534 1.379 . S
C3534 H3518 0.931 . S
C3534 C3528 1.383 . S
C3534 C3533 1.379 . S
H3535 C3529 0.959 . S
H3536 C3529 0.961 . S
H3537 C3529 0.960 . S
H3538 C3530 0.930 . S
H3539 C3531 0.929 . S
H3540 C3548 0.929 . S
H3541 C3550 0.930 . S
H3542 C3552 0.930 . S
H3543 C3555 0.929 . S
H3544 C3558 0.930 . S
H3545 C3560 0.960 . S
H3546 C3560 0.960 . S
H3547 C3560 0.960 . S
C3548 H3540 0.929 . S
C3548 C3549 1.377 . S
C3548 C3550 1.384 . S
C3549 C3548 1.377 . S
C3549 C3555 1.390 . S
C3550 H3541 0.930 . S
C3550 C3548 1.384 . S
C3550 C3551 1.372 . S
C3551 C3550 1.372 . S
C3551 C3552 1.400 . S
C3551 C3556 1.490 . S
C3552 H3542 0.930 . S
C3552 C3551 1.400 . S
C3552 C3555 1.386 . S
H3553 C3569 0.930 . S
H3554 C3570 0.931 . S
C3555 H3543 0.929 . S
C3555 C3549 1.390 . S
C3555 C3552 1.386 . S
C3556 C3551 1.490 . S
C3556 C3558 1.395 . S
C3556 C3559 1.403 . S
H3557 C3563 0.930 . S
C3558 H3544 0.930 . S
C3558 C3556 1.395 . S
C3558 C3561 1.403 . S
C3559 C3556 1.403 . S
C3559 C3560 1.524 . S
C3559 C3563 1.400 . S
C3560 H3545 0.960 . S
C3560 H3546 0.960 . S
C3560 H3547 0.960 . S
C3560 C3559 1.524 . S
C3561 C3558 1.403 . S
C3561 C3562 1.392 . S
C3561 C3565 1.495 . S
C3562 C3561 1.392 . S
C3562 C3563 1.385 . S
C3562 C3564 1.478 . S
C3563 H3557 0.930 . S
C3563 C3559 1.400 . S
C3563 C3562 1.385 . S
C3564 C3562 1.478 . S
C3564 C3566 1.381 . S
C3564 C3570 1.383 . S
C3565 C3561 1.495 . S
C3565 H3571 0.959 . S
C3565 H3572 0.961 . S
C3565 H3573 0.960 . S
C3566 C3564 1.381 . S
C3566 C3567 1.394 . S
C3566 H3574 0.930 . S
C3567 C3566 1.394 . S
C3567 C3568 1.383 . S
C3567 H3575 0.929 . S
C3568 C3567 1.383 . S
C3568 C3569 1.377 . S
C3569 H3553 0.930 . S
C3569 C3568 1.377 . S
C3569 C3570 1.379 . S
C3570 H3554 0.931 . S
C3570 C3564 1.383 . S
C3570 C3569 1.379 . S
H3571 C3565 0.959 . S
H3572 C3565 0.961 . S
H3573 C3565 0.960 . S
H3574 C3566 0.930 . S
H3575 C3567 0.929 . S
H3576 C3584 0.929 . S
H3577 C3586 0.930 . S
H3578 C3588 0.930 . S
H3579 C3591 0.929 . S
H3580 C3594 0.930 . S
H3581 C3596 0.960 . S
H3582 C3596 0.960 . S
H3583 C3596 0.960 . S
C3584 H3576 0.929 . S
C3584 C3585 1.377 . S
C3584 C3586 1.384 . S
C3585 C3584 1.377 . S
C3585 C3591 1.390 . S
C3586 H3577 0.930 . S
C3586 C3584 1.384 . S
C3586 C3587 1.372 . S
C3587 C3586 1.372 . S
C3587 C3588 1.400 . S
C3587 C3592 1.490 . S
C3588 H3578 0.930 . S
C3588 C3587 1.400 . S
C3588 C3591 1.386 . S
H3589 C3605 0.930 . S
H3590 C3606 0.931 . S
C3591 H3579 0.929 . S
C3591 C3585 1.390 . S
C3591 C3588 1.386 . S
C3592 C3587 1.490 . S
C3592 C3594 1.395 . S
C3592 C3595 1.403 . S
H3593 C3599 0.930 . S
C3594 H3580 0.930 . S
C3594 C3592 1.395 . S
C3594 C3597 1.403 . S
C3595 C3592 1.403 . S
C3595 C3596 1.524 . S
C3595 C3599 1.400 . S
C3596 H3581 0.960 . S
C3596 H3582 0.960 . S
C3596 H3583 0.960 . S
C3596 C3595 1.524 . S
C3597 C3594 1.403 . S
C3597 C3598 1.392 . S
C3597 C3601 1.495 . S
C3598 C3597 1.392 . S
C3598 C3599 1.385 . S
C3598 C3600 1.478 . S
C3599 H3593 0.930 . S
C3599 C3595 1.400 . S
C3599 C3598 1.385 . S
C3600 C3598 1.478 . S
C3600 C3602 1.381 . S
C3600 C3606 1.383 . S
C3601 C3597 1.495 . S
C3601 H3607 0.959 . S
C3601 H3608 0.961 . S
C3601 H3609 0.960 . S
C3602 C3600 1.381 . S
C3602 C3603 1.394 . S
C3602 H3610 0.930 . S
C3603 C3602 1.394 . S
C3603 C3604 1.383 . S
C3603 H3611 0.929 . S
C3604 C3603 1.383 . S
C3604 C3605 1.377 . S
C3605 H3589 0.930 . S
C3605 C3604 1.377 . S
C3605 C3606 1.379 . S
C3606 H3590 0.931 . S
C3606 C3600 1.383 . S
C3606 C3605 1.379 . S
H3607 C3601 0.959 . S
H3608 C3601 0.961 . S
H3609 C3601 0.960 . S
H3610 C3602 0.930 . S
H3611 C3603 0.929 . S
H3612 C3620 0.929 . S
H3613 C3622 0.930 . S
H3614 C3624 0.930 . S
H3615 C3627 0.929 . S
H3616 C3630 0.930 . S
H3617 C3632 0.960 . S
H3618 C3632 0.960 . S
H3619 C3632 0.960 . S
C3620 H3612 0.929 . S
C3620 C3621 1.377 . S
C3620 C3622 1.384 . S
C3621 C3620 1.377 . S
C3621 C3627 1.390 . S
C3622 H3613 0.930 . S
C3622 C3620 1.384 . S
C3622 C3623 1.372 . S
C3623 C3622 1.372 . S
C3623 C3624 1.400 . S
C3623 C3628 1.490 . S
C3624 H3614 0.930 . S
C3624 C3623 1.400 . S
C3624 C3627 1.386 . S
H3625 C3641 0.930 . S
H3626 C3642 0.931 . S
C3627 H3615 0.929 . S
C3627 C3621 1.390 . S
C3627 C3624 1.386 . S
C3628 C3623 1.490 . S
C3628 C3630 1.395 . S
C3628 C3631 1.403 . S
H3629 C3635 0.930 . S
C3630 H3616 0.930 . S
C3630 C3628 1.395 . S
C3630 C3633 1.403 . S
C3631 C3628 1.403 . S
C3631 C3632 1.524 . S
C3631 C3635 1.400 . S
C3632 H3617 0.960 . S
C3632 H3618 0.960 . S
C3632 H3619 0.960 . S
C3632 C3631 1.524 . S
C3633 C3630 1.403 . S
C3633 C3634 1.392 . S
C3633 C3637 1.495 . S
C3634 C3633 1.392 . S
C3634 C3635 1.385 . S
C3634 C3636 1.478 . S
C3635 H3629 0.930 . S
C3635 C3631 1.400 . S
C3635 C3634 1.385 . S
C3636 C3634 1.478 . S
C3636 C3638 1.381 . S
C3636 C3642 1.383 . S
C3637 C3633 1.495 . S
C3637 H3643 0.959 . S
C3637 H3644 0.961 . S
C3637 H3645 0.960 . S
C3638 C3636 1.381 . S
C3638 C3639 1.394 . S
C3638 H3646 0.930 . S
C3639 C3638 1.394 . S
C3639 C3640 1.383 . S
C3639 H3647 0.929 . S
C3640 C3639 1.383 . S
C3640 C3641 1.377 . S
C3641 H3625 0.930 . S
C3641 C3640 1.377 . S
C3641 C3642 1.379 . S
C3642 H3626 0.931 . S
C3642 C3636 1.383 . S
C3642 C3641 1.379 . S
H3643 C3637 0.959 . S
H3644 C3637 0.961 . S
H3645 C3637 0.960 . S
H3646 C3638 0.930 . S
H3647 C3639 0.929 . S
H3648 C3656 0.929 . S
H3649 C3658 0.930 . S
H3650 C3660 0.930 . S
H3651 C3663 0.929 . S
H3652 C3666 0.930 . S
H3653 C3668 0.960 . S
H3654 C3668 0.960 . S
H3655 C3668 0.960 . S
C3656 H3648 0.929 . S
C3656 C3657 1.377 . S
C3656 C3658 1.384 . S
C3657 C3656 1.377 . S
C3657 C3663 1.390 . S
C3658 H3649 0.930 . S
C3658 C3656 1.384 . S
C3658 C3659 1.372 . S
C3659 C3658 1.372 . S
C3659 C3660 1.400 . S
C3659 C3664 1.490 . S
C3660 H3650 0.930 . S
C3660 C3659 1.400 . S
C3660 C3663 1.386 . S
H3661 C3677 0.930 . S
H3662 C3678 0.931 . S
C3663 H3651 0.929 . S
C3663 C3657 1.390 . S
C3663 C3660 1.386 . S
C3664 C3659 1.490 . S
C3664 C3666 1.395 . S
C3664 C3667 1.403 . S
H3665 C3671 0.930 . S
C3666 H3652 0.930 . S
C3666 C3664 1.395 . S
C3666 C3669 1.403 . S
C3667 C3664 1.403 . S
C3667 C3668 1.524 . S
C3667 C3671 1.400 . S
C3668 H3653 0.960 . S
C3668 H3654 0.960 . S
C3668 H3655 0.960 . S
C3668 C3667 1.524 . S
C3669 C3666 1.403 . S
C3669 C3670 1.392 . S
C3669 C3673 1.495 . S
C3670 C3669 1.392 . S
C3670 C3671 1.385 . S
C3670 C3672 1.478 . S
C3671 H3665 0.930 . S
C3671 C3667 1.400 . S
C3671 C3670 1.385 . S
C3672 C3670 1.478 . S
C3672 C3674 1.381 . S
C3672 C3678 1.383 . S
C3673 C3669 1.495 . S
C3673 H3679 0.959 . S
C3673 H3680 0.961 . S
C3673 H3681 0.960 . S
C3674 C3672 1.381 . S
C3674 C3675 1.394 . S
C3674 H3682 0.930 . S
C3675 C3674 1.394 . S
C3675 C3676 1.383 . S
C3675 H3683 0.929 . S
C3676 C3675 1.383 . S
C3676 C3677 1.377 . S
C3677 H3661 0.930 . S
C3677 C3676 1.377 . S
C3677 C3678 1.379 . S
C3678 H3662 0.931 . S
C3678 C3672 1.383 . S
C3678 C3677 1.379 . S
H3679 C3673 0.959 . S
H3680 C3673 0.961 . S
H3681 C3673 0.960 . S
H3682 C3674 0.930 . S
H3683 C3675 0.929 . S
H3684 C3692 0.929 . S
H3685 C3694 0.930 . S
H3686 C3696 0.930 . S
H3687 C3699 0.929 . S
H3688 C3702 0.930 . S
H3689 C3704 0.960 . S
H3690 C3704 0.960 . S
H3691 C3704 0.960 . S
C3692 H3684 0.929 . S
C3692 C3693 1.377 . S
C3692 C3694 1.384 . S
C3693 C3692 1.377 . S
C3693 C3699 1.390 . S
C3694 H3685 0.930 . S
C3694 C3692 1.384 . S
C3694 C3695 1.372 . S
C3695 C3694 1.372 . S
C3695 C3696 1.400 . S
C3695 C3700 1.490 . S
C3696 H3686 0.930 . S
C3696 C3695 1.400 . S
C3696 C3699 1.386 . S
H3697 C3713 0.930 . S
H3698 C3714 0.931 . S
C3699 H3687 0.929 . S
C3699 C3693 1.390 . S
C3699 C3696 1.386 . S
C3700 C3695 1.490 . S
C3700 C3702 1.395 . S
C3700 C3703 1.403 . S
H3701 C3707 0.930 . S
C3702 H3688 0.930 . S
C3702 C3700 1.395 . S
C3702 C3705 1.403 . S
C3703 C3700 1.403 . S
C3703 C3704 1.524 . S
C3703 C3707 1.400 . S
C3704 H3689 0.960 . S
C3704 H3690 0.960 . S
C3704 H3691 0.960 . S
C3704 C3703 1.524 . S
C3705 C3702 1.403 . S
C3705 C3706 1.392 . S
C3705 C3709 1.495 . S
C3706 C3705 1.392 . S
C3706 C3707 1.385 . S
C3706 C3708 1.478 . S
C3707 H3701 0.930 . S
C3707 C3703 1.400 . S
C3707 C3706 1.385 . S
C3708 C3706 1.478 . S
C3708 C3710 1.381 . S
C3708 C3714 1.383 . S
C3709 C3705 1.495 . S
C3709 H3715 0.959 . S
C3709 H3716 0.961 . S
C3709 H3717 0.960 . S
C3710 C3708 1.381 . S
C3710 C3711 1.394 . S
C3710 H3718 0.930 . S
C3711 C3710 1.394 . S
C3711 C3712 1.383 . S
C3711 H3719 0.929 . S
C3712 C3711 1.383 . S
C3712 C3713 1.377 . S
C3713 H3697 0.930 . S
C3713 C3712 1.377 . S
C3713 C3714 1.379 . S
C3714 H3698 0.931 . S
C3714 C3708 1.383 . S
C3714 C3713 1.379 . S
H3715 C3709 0.959 . S
H3716 C3709 0.961 . S
H3717 C3709 0.960 . S
H3718 C3710 0.930 . S
H3719 C3711 0.929 . S
H3720 C3728 0.929 . S
H3721 C3730 0.930 . S
H3722 C3732 0.930 . S
H3723 C3735 0.929 . S
H3724 C3738 0.930 . S
H3725 C3740 0.960 . S
H3726 C3740 0.960 . S
H3727 C3740 0.960 . S
C3728 H3720 0.929 . S
C3728 C3729 1.377 . S
C3728 C3730 1.384 . S
C3729 C3728 1.377 . S
C3729 C3735 1.390 . S
C3730 H3721 0.930 . S
C3730 C3728 1.384 . S
C3730 C3731 1.372 . S
C3731 C3730 1.372 . S
C3731 C3732 1.400 . S
C3731 C3736 1.490 . S
C3732 H3722 0.930 . S
C3732 C3731 1.400 . S
C3732 C3735 1.386 . S
H3733 C3749 0.930 . S
H3734 C3750 0.931 . S
C3735 H3723 0.929 . S
C3735 C3729 1.390 . S
C3735 C3732 1.386 . S
C3736 C3731 1.490 . S
C3736 C3738 1.395 . S
C3736 C3739 1.403 . S
H3737 C3743 0.930 . S
C3738 H3724 0.930 . S
C3738 C3736 1.395 . S
C3738 C3741 1.403 . S
C3739 C3736 1.403 . S
C3739 C3740 1.524 . S
C3739 C3743 1.400 . S
C3740 H3725 0.960 . S
C3740 H3726 0.960 . S
C3740 H3727 0.960 . S
C3740 C3739 1.524 . S
C3741 C3738 1.403 . S
C3741 C3742 1.392 . S
C3741 C3745 1.495 . S
C3742 C3741 1.392 . S
C3742 C3743 1.385 . S
C3742 C3744 1.478 . S
C3743 H3737 0.930 . S
C3743 C3739 1.400 . S
C3743 C3742 1.385 . S
C3744 C3742 1.478 . S
C3744 C3746 1.381 . S
C3744 C3750 1.383 . S
C3745 C3741 1.495 . S
C3745 H3751 0.959 . S
C3745 H3752 0.961 . S
C3745 H3753 0.960 . S
C3746 C3744 1.381 . S
C3746 C3747 1.394 . S
C3746 H3754 0.930 . S
C3747 C3746 1.394 . S
C3747 C3748 1.383 . S
C3747 H3755 0.929 . S
C3748 C3747 1.383 . S
C3748 C3749 1.377 . S
C3749 H3733 0.930 . S
C3749 C3748 1.377 . S
C3749 C3750 1.379 . S
C3750 H3734 0.931 . S
C3750 C3744 1.383 . S
C3750 C3749 1.379 . S
H3751 C3745 0.959 . S
H3752 C3745 0.961 . S
H3753 C3745 0.960 . S
H3754 C3746 0.930 . S
H3755 C3747 0.929 . S
H3756 C3764 0.929 . S
H3757 C3766 0.930 . S
H3758 C3768 0.930 . S
H3759 C3771 0.929 . S
H3760 C3774 0.930 . S
H3761 C3776 0.960 . S
H3762 C3776 0.960 . S
H3763 C3776 0.960 . S
C3764 H3756 0.929 . S
C3764 C3765 1.377 . S
C3764 C3766 1.384 . S
C3765 C3764 1.377 . S
C3765 C3771 1.390 . S
C3766 H3757 0.930 . S
C3766 C3764 1.384 . S
C3766 C3767 1.372 . S
C3767 C3766 1.372 . S
C3767 C3768 1.400 . S
C3767 C3772 1.490 . S
C3768 H3758 0.930 . S
C3768 C3767 1.400 . S
C3768 C3771 1.386 . S
H3769 C3785 0.930 . S
H3770 C3786 0.931 . S
C3771 H3759 0.929 . S
C3771 C3765 1.390 . S
C3771 C3768 1.386 . S
C3772 C3767 1.490 . S
C3772 C3774 1.395 . S
C3772 C3775 1.403 . S
H3773 C3779 0.930 . S
C3774 H3760 0.930 . S
C3774 C3772 1.395 . S
C3774 C3777 1.403 . S
C3775 C3772 1.403 . S
C3775 C3776 1.524 . S
C3775 C3779 1.400 . S
C3776 H3761 0.960 . S
C3776 H3762 0.960 . S
C3776 H3763 0.960 . S
C3776 C3775 1.524 . S
C3777 C3774 1.403 . S
C3777 C3778 1.392 . S
C3777 C3781 1.495 . S
C3778 C3777 1.392 . S
C3778 C3779 1.385 . S
C3778 C3780 1.478 . S
C3779 H3773 0.930 . S
C3779 C3775 1.400 . S
C3779 C3778 1.385 . S
C3780 C3778 1.478 . S
C3780 C3782 1.381 . S
C3780 C3786 1.383 . S
C3781 C3777 1.495 . S
C3781 H3787 0.959 . S
C3781 H3788 0.961 . S
C3781 H3789 0.960 . S
C3782 C3780 1.381 . S
C3782 C3783 1.394 . S
C3782 H3790 0.930 . S
C3783 C3782 1.394 . S
C3783 C3784 1.383 . S
C3783 H3791 0.929 . S
C3784 C3783 1.383 . S
C3784 C3785 1.377 . S
C3785 H3769 0.930 . S
C3785 C3784 1.377 . S
C3785 C3786 1.379 . S
C3786 H3770 0.931 . S
C3786 C3780 1.383 . S
C3786 C3785 1.379 . S
H3787 C3781 0.959 . S
H3788 C3781 0.961 . S
H3789 C3781 0.960 . S
H3790 C3782 0.930 . S
H3791 C3783 0.929 . S
H3792 C3800 0.929 . S
H3793 C3802 0.930 . S
H3794 C3804 0.930 . S
H3795 C3807 0.929 . S
H3796 C3810 0.930 . S
H3797 C3812 0.960 . S
H3798 C3812 0.960 . S
H3799 C3812 0.960 . S
C3800 H3792 0.929 . S
C3800 C3801 1.377 . S
C3800 C3802 1.384 . S
C3801 C3800 1.377 . S
C3801 C3807 1.390 . S
C3802 H3793 0.930 . S
C3802 C3800 1.384 . S
C3802 C3803 1.372 . S
C3803 C3802 1.372 . S
C3803 C3804 1.400 . S
C3803 C3808 1.490 . S
C3804 H3794 0.930 . S
C3804 C3803 1.400 . S
C3804 C3807 1.386 . S
H3805 C3821 0.930 . S
H3806 C3822 0.931 . S
C3807 H3795 0.929 . S
C3807 C3801 1.390 . S
C3807 C3804 1.386 . S
C3808 C3803 1.490 . S
C3808 C3810 1.395 . S
C3808 C3811 1.403 . S
H3809 C3815 0.930 . S
C3810 H3796 0.930 . S
C3810 C3808 1.395 . S
C3810 C3813 1.403 . S
C3811 C3808 1.403 . S
C3811 C3812 1.524 . S
C3811 C3815 1.400 . S
C3812 H3797 0.960 . S
C3812 H3798 0.960 . S
C3812 H3799 0.960 . S
C3812 C3811 1.524 . S
C3813 C3810 1.403 . S
C3813 C3814 1.392 . S
C3813 C3817 1.495 . S
C3814 C3813 1.392 . S
C3814 C3815 1.385 . S
C3814 C3816 1.478 . S
C3815 H3809 0.930 . S
C3815 C3811 1.400 . S
C3815 C3814 1.385 . S
C3816 C3814 1.478 . S
C3816 C3818 1.381 . S
C3816 C3822 1.383 . S
C3817 C3813 1.495 . S
C3817 H3823 0.959 . S
C3817 H3824 0.961 . S
C3817 H3825 0.960 . S
C3818 C3816 1.381 . S
C3818 C3819 1.394 . S
C3818 H3826 0.930 . S
C3819 C3818 1.394 . S
C3819 C3820 1.383 . S
C3819 H3827 0.929 . S
C3820 C3819 1.383 . S
C3820 C3821 1.377 . S
C3821 H3805 0.930 . S
C3821 C3820 1.377 . S
C3821 C3822 1.379 . S
C3822 H3806 0.931 . S
C3822 C3816 1.383 . S
C3822 C3821 1.379 . S
H3823 C3817 0.959 . S
H3824 C3817 0.961 . S
H3825 C3817 0.960 . S
H3826 C3818 0.930 . S
H3827 C3819 0.929 . S
H3828 C3836 0.929 . S
H3829 C3838 0.930 . S
H3830 C3840 0.930 . S
H3831 C3843 0.929 . S
H3832 C3846 0.930 . S
H3833 C3848 0.960 . S
H3834 C3848 0.960 . S
H3835 C3848 0.960 . S
C3836 H3828 0.929 . S
C3836 C3837 1.377 . S
C3836 C3838 1.384 . S
C3837 C3836 1.377 . S
C3837 C3843 1.390 . S
C3838 H3829 0.930 . S
C3838 C3836 1.384 . S
C3838 C3839 1.372 . S
C3839 C3838 1.372 . S
C3839 C3840 1.400 . S
C3839 C3844 1.490 . S
C3840 H3830 0.930 . S
C3840 C3839 1.400 . S
C3840 C3843 1.386 . S
H3841 C3857 0.930 . S
H3842 C3858 0.931 . S
C3843 H3831 0.929 . S
C3843 C3837 1.390 . S
C3843 C3840 1.386 . S
C3844 C3839 1.490 . S
C3844 C3846 1.395 . S
C3844 C3847 1.403 . S
H3845 C3851 0.930 . S
C3846 H3832 0.930 . S
C3846 C3844 1.395 . S
C3846 C3849 1.403 . S
C3847 C3844 1.403 . S
C3847 C3848 1.524 . S
C3847 C3851 1.400 . S
C3848 H3833 0.960 . S
C3848 H3834 0.960 . S
C3848 H3835 0.960 . S
C3848 C3847 1.524 . S
C3849 C3846 1.403 . S
C3849 C3850 1.392 . S
C3849 C3853 1.495 . S
C3850 C3849 1.392 . S
C3850 C3851 1.385 . S
C3850 C3852 1.478 . S
C3851 H3845 0.930 . S
C3851 C3847 1.400 . S
C3851 C3850 1.385 . S
C3852 C3850 1.478 . S
C3852 C3854 1.381 . S
C3852 C3858 1.383 . S
C3853 C3849 1.495 . S
C3853 H3859 0.959 . S
C3853 H3860 0.961 . S
C3853 H3861 0.960 . S
C3854 C3852 1.381 . S
C3854 C3855 1.394 . S
C3854 H3862 0.930 . S
C3855 C3854 1.394 . S
C3855 C3856 1.383 . S
C3855 H3863 0.929 . S
C3856 C3855 1.383 . S
C3856 C3857 1.377 . S
C3857 H3841 0.930 . S
C3857 C3856 1.377 . S
C3857 C3858 1.379 . S
C3858 H3842 0.931 . S
C3858 C3852 1.383 . S
C3858 C3857 1.379 . S
H3859 C3853 0.959 . S
H3860 C3853 0.961 . S
H3861 C3853 0.960 . S
H3862 C3854 0.930 . S
H3863 C3855 0.929 . S
H3864 C3872 0.929 . S
H3865 C3874 0.930 . S
H3866 C3876 0.930 . S
H3867 C3879 0.929 . S
H3868 C3882 0.930 . S
H3869 C3884 0.960 . S
H3870 C3884 0.960 . S
H3871 C3884 0.960 . S
C3872 H3864 0.929 . S
C3872 C3873 1.377 . S
C3872 C3874 1.384 . S
C3873 C3872 1.377 . S
C3873 C3879 1.390 . S
C3874 H3865 0.930 . S
C3874 C3872 1.384 . S
C3874 C3875 1.372 . S
C3875 C3874 1.372 . S
C3875 C3876 1.400 . S
C3875 C3880 1.490 . S
C3876 H3866 0.930 . S
C3876 C3875 1.400 . S
C3876 C3879 1.386 . S
H3877 C3893 0.930 . S
H3878 C3894 0.931 . S
C3879 H3867 0.929 . S
C3879 C3873 1.390 . S
C3879 C3876 1.386 . S
C3880 C3875 1.490 . S
C3880 C3882 1.395 . S
C3880 C3883 1.403 . S
H3881 C3887 0.930 . S
C3882 H3868 0.930 . S
C3882 C3880 1.395 . S
C3882 C3885 1.403 . S
C3883 C3880 1.403 . S
C3883 C3884 1.524 . S
C3883 C3887 1.400 . S
C3884 H3869 0.960 . S
C3884 H3870 0.960 . S
C3884 H3871 0.960 . S
C3884 C3883 1.524 . S
C3885 C3882 1.403 . S
C3885 C3886 1.392 . S
C3885 C3889 1.495 . S
C3886 C3885 1.392 . S
C3886 C3887 1.385 . S
C3886 C3888 1.478 . S
C3887 H3881 0.930 . S
C3887 C3883 1.400 . S
C3887 C3886 1.385 . S
C3888 C3886 1.478 . S
C3888 C3890 1.381 . S
C3888 C3894 1.383 . S
C3889 C3885 1.495 . S
C3889 H3895 0.959 . S
C3889 H3896 0.961 . S
C3889 H3897 0.960 . S
C3890 C3888 1.381 . S
C3890 C3891 1.394 . S
C3890 H3898 0.930 . S
C3891 C3890 1.394 . S
C3891 C3892 1.383 . S
C3891 H3899 0.929 . S
C3892 C3891 1.383 . S
C3892 C3893 1.377 . S
C3893 H3877 0.930 . S
C3893 C3892 1.377 . S
C3893 C3894 1.379 . S
C3894 H3878 0.931 . S
C3894 C3888 1.383 . S
C3894 C3893 1.379 . S
H3895 C3889 0.959 . S
H3896 C3889 0.961 . S
H3897 C3889 0.960 . S
H3898 C3890 0.930 . S
H3899 C3891 0.929 . S
H3900 C3908 0.929 . S
H3901 C3910 0.930 . S
H3902 C3912 0.930 . S
H3903 C3915 0.929 . S
H3904 C3918 0.930 . S
H3905 C3920 0.960 . S
H3906 C3920 0.960 . S
H3907 C3920 0.960 . S
C3908 H3900 0.929 . S
C3908 C3909 1.377 . S
C3908 C3910 1.384 . S
C3909 C3908 1.377 . S
C3909 C3915 1.390 . S
C3910 H3901 0.930 . S
C3910 C3908 1.384 . S
C3910 C3911 1.372 . S
C3911 C3910 1.372 . S
C3911 C3912 1.400 . S
C3911 C3916 1.490 . S
C3912 H3902 0.930 . S
C3912 C3911 1.400 . S
C3912 C3915 1.386 . S
H3913 C3929 0.930 . S
H3914 C3930 0.931 . S
C3915 H3903 0.929 . S
C3915 C3909 1.390 . S
C3915 C3912 1.386 . S
C3916 C3911 1.490 . S
C3916 C3918 1.395 . S
C3916 C3919 1.403 . S
H3917 C3923 0.930 . S
C3918 H3904 0.930 . S
C3918 C3916 1.395 . S
C3918 C3921 1.403 . S
C3919 C3916 1.403 . S
C3919 C3920 1.524 . S
C3919 C3923 1.400 . S
C3920 H3905 0.960 . S
C3920 H3906 0.960 . S
C3920 H3907 0.960 . S
C3920 C3919 1.524 . S
C3921 C3918 1.403 . S
C3921 C3922 1.392 . S
C3921 C3925 1.495 . S
C3922 C3921 1.392 . S
C3922 C3923 1.385 . S
C3922 C3924 1.478 . S
C3923 H3917 0.930 . S
C3923 C3919 1.400 . S
C3923 C3922 1.385 . S
C3924 C3922 1.478 . S
C3924 C3926 1.381 . S
C3924 C3930 1.383 . S
C3925 C3921 1.495 . S
C3925 H3931 0.959 . S
C3925 H3932 0.961 . S
C3925 H3933 0.960 . S
C3926 C3924 1.381 . S
C3926 C3927 1.394 . S
C3926 H3934 0.930 . S
C3927 C3926 1.394 . S
C3927 C3928 1.383 . S
C3927 H3935 0.929 . S
C3928 C3927 1.383 . S
C3928 C3929 1.377 . S
C3929 H3913 0.930 . S
C3929 C3928 1.377 . S
C3929 C3930 1.379 . S
C3930 H3914 0.931 . S
C3930 C3924 1.383 . S
C3930 C3929 1.379 . S
H3931 C3925 0.959 . S
H3932 C3925 0.961 . S
H3933 C3925 0.960 . S
H3934 C3926 0.930 . S
H3935 C3927 0.929 . S
H3936 C3944 0.929 . S
H3937 C3946 0.930 . S
H3938 C3948 0.930 . S
H3939 C3951 0.929 . S
H3940 C3954 0.930 . S
H3941 C3956 0.960 . S
H3942 C3956 0.960 . S
H3943 C3956 0.960 . S
C3944 H3936 0.929 . S
C3944 C3945 1.377 . S
C3944 C3946 1.384 . S
C3945 C3944 1.377 . S
C3945 C3951 1.390 . S
C3946 H3937 0.930 . S
C3946 C3944 1.384 . S
C3946 C3947 1.372 . S
C3947 C3946 1.372 . S
C3947 C3948 1.400 . S
C3947 C3952 1.490 . S
C3948 H3938 0.930 . S
C3948 C3947 1.400 . S
C3948 C3951 1.386 . S
H3949 C3965 0.930 . S
H3950 C3966 0.931 . S
C3951 H3939 0.929 . S
C3951 C3945 1.390 . S
C3951 C3948 1.386 . S
C3952 C3947 1.490 . S
C3952 C3954 1.395 . S
C3952 C3955 1.403 . S
H3953 C3959 0.930 . S
C3954 H3940 0.930 . S
C3954 C3952 1.395 . S
C3954 C3957 1.403 . S
C3955 C3952 1.403 . S
C3955 C3956 1.524 . S
C3955 C3959 1.400 . S
C3956 H3941 0.960 . S
C3956 H3942 0.960 . S
C3956 H3943 0.960 . S
C3956 C3955 1.524 . S
C3957 C3954 1.403 . S
C3957 C3958 1.392 . S
C3957 C3961 1.495 . S
C3958 C3957 1.392 . S
C3958 C3959 1.385 . S
C3958 C3960 1.478 . S
C3959 H3953 0.930 . S
C3959 C3955 1.400 . S
C3959 C3958 1.385 . S
C3960 C3958 1.478 . S
C3960 C3962 1.381 . S
C3960 C3966 1.383 . S
C3961 C3957 1.495 . S
C3961 H3967 0.959 . S
C3961 H3968 0.961 . S
C3961 H3969 0.960 . S
C3962 C3960 1.381 . S
C3962 C3963 1.394 . S
C3962 H3970 0.930 . S
C3963 C3962 1.394 . S
C3963 C3964 1.383 . S
C3963 H3971 0.929 . S
C3964 C3963 1.383 . S
C3964 C3965 1.377 . S
C3965 H3949 0.930 . S
C3965 C3964 1.377 . S
C3965 C3966 1.379 . S
C3966 H3950 0.931 . S
C3966 C3960 1.383 . S
C3966 C3965 1.379 . S
H3967 C3961 0.959 . S
H3968 C3961 0.961 . S
H3969 C3961 0.960 . S
H3970 C3962 0.930 . S
H3971 C3963 0.929 . S
H3972 C3980 0.929 . S
H3973 C3982 0.930 . S
H3974 C3984 0.930 . S
H3975 C3987 0.929 . S
H3976 C3990 0.930 . S
H3977 C3992 0.960 . S
H3978 C3992 0.960 . S
H3979 C3992 0.960 . S
C3980 H3972 0.929 . S
C3980 C3981 1.377 . S
C3980 C3982 1.384 . S
C3981 C3980 1.377 . S
C3981 C3987 1.390 . S
C3982 H3973 0.930 . S
C3982 C3980 1.384 . S
C3982 C3983 1.372 . S
C3983 C3982 1.372 . S
C3983 C3984 1.400 . S
C3983 C3988 1.490 . S
C3984 H3974 0.930 . S
C3984 C3983 1.400 . S
C3984 C3987 1.386 . S
H3985 C4001 0.930 . S
H3986 C4002 0.931 . S
C3987 H3975 0.929 . S
C3987 C3981 1.390 . S
C3987 C3984 1.386 . S
C3988 C3983 1.490 . S
C3988 C3990 1.395 . S
C3988 C3991 1.403 . S
H3989 C3995 0.930 . S
C3990 H3976 0.930 . S
C3990 C3988 1.395 . S
C3990 C3993 1.403 . S
C3991 C3988 1.403 . S
C3991 C3992 1.524 . S
C3991 C3995 1.400 . S
C3992 H3977 0.960 . S
C3992 H3978 0.960 . S
C3992 H3979 0.960 . S
C3992 C3991 1.524 . S
C3993 C3990 1.403 . S
C3993 C3994 1.392 . S
C3993 C3997 1.495 . S
C3994 C3993 1.392 . S
C3994 C3995 1.385 . S
C3994 C3996 1.478 . S
C3995 H3989 0.930 . S
C3995 C3991 1.400 . S
C3995 C3994 1.385 . S
C3996 C3994 1.478 . S
C3996 C3998 1.381 . S
C3996 C4002 1.383 . S
C3997 C3993 1.495 . S
C3997 H4003 0.959 . S
C3997 H4004 0.961 . S
C3997 H4005 0.960 . S
C3998 C3996 1.381 . S
C3998 C3999 1.394 . S
C3998 H4006 0.930 . S
C3999 C3998 1.394 . S
C3999 C4000 1.383 . S
C3999 H4007 0.929 . S
C4000 C3999 1.383 . S
C4000 C4001 1.377 . S
C4001 H3985 0.930 . S
C4001 C4000 1.377 . S
C4001 C4002 1.379 . S
C4002 H3986 0.931 . S
C4002 C3996 1.383 . S
C4002 C4001 1.379 . S
H4003 C3997 0.959 . S
H4004 C3997 0.961 . S
H4005 C3997 0.960 . S
H4006 C3998 0.930 . S
H4007 C3999 0.929 . S
H4008 C4016 0.929 . S
H4009 C4018 0.930 . S
H4010 C4020 0.930 . S
H4011 C4023 0.929 . S
H4012 C4026 0.930 . S
H4013 C4028 0.960 . S
H4014 C4028 0.960 . S
H4015 C4028 0.960 . S
C4016 H4008 0.929 . S
C4016 C4017 1.377 . S
C4016 C4018 1.384 . S
C4017 C4016 1.377 . S
C4017 C4023 1.390 . S
C4018 H4009 0.930 . S
C4018 C4016 1.384 . S
C4018 C4019 1.372 . S
C4019 C4018 1.372 . S
C4019 C4020 1.400 . S
C4019 C4024 1.490 . S
C4020 H4010 0.930 . S
C4020 C4019 1.400 . S
C4020 C4023 1.386 . S
H4021 C4037 0.930 . S
H4022 C4038 0.931 . S
C4023 H4011 0.929 . S
C4023 C4017 1.390 . S
C4023 C4020 1.386 . S
C4024 C4019 1.490 . S
C4024 C4026 1.395 . S
C4024 C4027 1.403 . S
H4025 C4031 0.930 . S
C4026 H4012 0.930 . S
C4026 C4024 1.395 . S
C4026 C4029 1.403 . S
C4027 C4024 1.403 . S
C4027 C4028 1.524 . S
C4027 C4031 1.400 . S
C4028 H4013 0.960 . S
C4028 H4014 0.960 . S
C4028 H4015 0.960 . S
C4028 C4027 1.524 . S
C4029 C4026 1.403 . S
C4029 C4030 1.392 . S
C4029 C4033 1.495 . S
C4030 C4029 1.392 . S
C4030 C4031 1.385 . S
C4030 C4032 1.478 . S
C4031 H4025 0.930 . S
C4031 C4027 1.400 . S
C4031 C4030 1.385 . S
C4032 C4030 1.478 . S
C4032 C4034 1.381 . S
C4032 C4038 1.383 . S
C4033 C4029 1.495 . S
C4033 H4039 0.959 . S
C4033 H4040 0.961 . S
C4033 H4041 0.960 . S
C4034 C4032 1.381 . S
C4034 C4035 1.394 . S
C4034 H4042 0.930 . S
C4035 C4034 1.394 . S
C4035 C4036 1.383 . S
C4035 H4043 0.929 . S
C4036 C4035 1.383 . S
C4036 C4037 1.377 . S
C4037 H4021 0.930 . S
C4037 C4036 1.377 . S
C4037 C4038 1.379 . S
C4038 H4022 0.931 . S
C4038 C4032 1.383 . S
C4038 C4037 1.379 . S
H4039 C4033 0.959 . S
H4040 C4033 0.961 . S
H4041 C4033 0.960 . S
H4042 C4034 0.930 . S
H4043 C4035 0.929 . S
H4044 C4052 0.929 . S
H4045 C4054 0.930 . S
H4046 C4056 0.930 . S
H4047 C4059 0.929 . S
H4048 C4062 0.930 . S
H4049 C4064 0.960 . S
H4050 C4064 0.960 . S
H4051 C4064 0.960 . S
C4052 H4044 0.929 . S
C4052 C4053 1.377 . S
C4052 C4054 1.384 . S
C4053 C4052 1.377 . S
C4053 C4059 1.390 . S
C4054 H4045 0.930 . S
C4054 C4052 1.384 . S
C4054 C4055 1.372 . S
C4055 C4054 1.372 . S
C4055 C4056 1.400 . S
C4055 C4060 1.490 . S
C4056 H4046 0.930 . S
C4056 C4055 1.400 . S
C4056 C4059 1.386 . S
H4057 C4073 0.930 . S
H4058 C4074 0.931 . S
C4059 H4047 0.929 . S
C4059 C4053 1.390 . S
C4059 C4056 1.386 . S
C4060 C4055 1.490 . S
C4060 C4062 1.395 . S
C4060 C4063 1.403 . S
H4061 C4067 0.930 . S
C4062 H4048 0.930 . S
C4062 C4060 1.395 . S
C4062 C4065 1.403 . S
C4063 C4060 1.403 . S
C4063 C4064 1.524 . S
C4063 C4067 1.400 . S
C4064 H4049 0.960 . S
C4064 H4050 0.960 . S
C4064 H4051 0.960 . S
C4064 C4063 1.524 . S
C4065 C4062 1.403 . S
C4065 C4066 1.392 . S
C4065 C4069 1.495 . S
C4066 C4065 1.392 . S
C4066 C4067 1.385 . S
C4066 C4068 1.478 . S
C4067 H4061 0.930 . S
C4067 C4063 1.400 . S
C4067 C4066 1.385 . S
C4068 C4066 1.478 . S
C4068 C4070 1.381 . S
C4068 C4074 1.383 . S
C4069 C4065 1.495 . S
C4069 H4075 0.959 . S
C4069 H4076 0.961 . S
C4069 H4077 0.960 . S
C4070 C4068 1.381 . S
C4070 C4071 1.394 . S
C4070 H4078 0.930 . S
C4071 C4070 1.394 . S
C4071 C4072 1.383 . S
C4071 H4079 0.929 . S
C4072 C4071 1.383 . S
C4072 C4073 1.377 . S
C4073 H4057 0.930 . S
C4073 C4072 1.377 . S
C4073 C4074 1.379 . S
C4074 H4058 0.931 . S
C4074 C4068 1.383 . S
C4074 C4073 1.379 . S
H4075 C4069 0.959 . S
H4076 C4069 0.961 . S
H4077 C4069 0.960 . S
H4078 C4070 0.930 . S
H4079 C4071 0.929 . S
C633 C127 2.113 . S
C652 C10 2.103 . S
C669 C134 2.113 . S
C688 C23 2.112 1_455 S
C705 C147 2.111 1_556 S
C724 C36 2.099 . S
C741 C108 2.112 . S
C760 C43 2.100 . S
C777 C56 2.111 . S
C796 C205 2.101 1_554 S
C813 C75 2.111 . S
C832 C166 2.098 . S
C849 C82 2.112 . S
C868 C179 2.104 . S
C885 C192 2.112 . S
C904 C101 2.107 1_455 S
C921 C212 2.115 . S
C940 C238 2.120 . S
C957 C225 2.115 . S
C976 C602 2.117 1_545 S
C993 C251 2.115 . S
C1012 C615 2.119 1_565 S
C1029 C264 2.113 1_545 S
C1048 C589 2.110 . S
C1065 C283 2.112 . S
C1084 C582 2.099 . S
C1101 C537 2.111 . S
C1120 C290 2.099 . S
C1137 C309 2.111 . S
C1156 C563 2.105 . S
C1173 C439 2.114 1_556 S
C1192 C316 2.108 . S
C1209 C446 2.116 . S
C1228 C329 2.118 . S
C1245 C465 2.112 . S
C1264 C348 2.109 . S
C1281 C426 2.116 . S
C1300 C355 2.120 1_655 S
C1317 C517 2.112 . S
C1336 C368 2.101 . S
C1353 C472 2.114 . S
C1372 C381 2.111 1_655 S
C1389 C400 2.114 . S
C1408 C491 2.107 1_554 S
C1425 C407 2.111 . S
C1444 C498 2.099 . S
C1461 C524 2.112 . S
C1480 C556 2.106 1_565 S
C1497 C211 0.660 . S
C1516 C3 0.685 . S
C1533 C614 0.652 . S
C1552 C16 0.631 . S
C1569 C29 0.663 . S
C1588 C278 0.659 . S
C1605 C601 0.668 . S
C1624 C44 0.721 . S
C1641 C57 0.673 . S
C1660 C536 0.698 . S
C1677 C551 0.662 . S
C1696 C68 0.690 . S
C1713 C83 0.661 . S
C1732 C562 0.646 . S
C1749 C263 0.654 . S
C1768 C94 0.642 . S
C1785 C109 0.668 . S
C1804 C5 0.682 . S
C1821 C18 0.662 . S
C1840 C120 0.694 . S
C1857 C135 0.665 . S
C1876 C31 0.668 . S
C1893 C42 0.666 . S
C1912 C148 0.714 . S
C1929 C159 0.674 . S
C1948 C55 0.700 . S
C1965 C70 0.647 . S
C1984 C172 0.604 . S
C2001 C185 0.675 . S
C2020 C81 0.706 . S
C2037 C198 0.661 . S
C2056 C96 0.663 . S
C2073 C213 0.650 . S
C2092 C107 0.608 . S
C2109 C226 0.675 . S
C2128 C471 0.706 . S
C2145 C486 0.657 . S
C2164 C239 0.658 . S
C2181 C497 0.650 . S
C2200 C252 0.623 . S
C2217 C200 0.650 . S
C2236 C265 0.623 . S
C2253 C276 0.651 . S
C2272 C133 0.608 . S
C2289 C460 0.653 . S
C2308 C291 0.644 . S
C2325 C302 0.676 . S
C2344 C434 0.707 . S
C2361 C317 0.666 . S
C2380 C523 0.670 . S
C2397 C330 0.662 . S
C2416 C304 0.654 . S
C2433 C341 0.660 . S
C2452 C588 0.648 . S
C2469 C356 0.654 . S
C2488 C289 0.622 . S
C2505 C369 0.653 . S
C2524 C224 0.619 . S
C2541 C382 0.660 . S
C2560 C237 0.648 . S
C2577 C250 0.651 . S
C2596 C393 0.625 . S
C2613 C577 0.648 . S
C2632 C408 0.610 . S
C2649 C315 0.663 . S
C2668 C419 0.699 . S
C2685 C328 0.662 . S
C2704 C432 0.695 . S
C2721 C447 0.656 . S
C2740 C343 0.627 . S
C2757 C354 0.647 . S
C2776 C458 0.604 . S
C2793 C473 0.668 . S
C2812 C367 0.680 . S
C2829 C484 0.664 . S
C2848 C380 0.672 . S
C2865 C499 0.656 . S
C2884 C395 0.629 . S
C2901 C406 0.653 . S
C2920 C510 0.641 . S
C2937 C525 0.652 . S
C2956 C421 0.614 . S
C2973 C538 0.657 . S
C2992 C161 0.630 . S
C3009 C174 0.654 . S
C3028 C549 0.644 . S
C3045 C564 0.660 . S
C3064 C187 0.648 . S
C3081 C575 0.653 . S
C3100 C512 0.616 . S
C3117 C445 0.653 . S
C3136 C590 0.636 . S
C3153 C146 0.655 . S
C3172 C603 0.652 . S
C3189 C122 0.647 . S
C3208 C616 0.603 . S
C3225 C296 1.193 . S
C3244 C4 1.198 . S
C3261 C17 1.188 . S
C3280 C530 1.174 . S
C3297 C30 1.193 . S
C3316 C303 1.199 . S
C3333 C595 1.188 . S
C3352 C49 1.174 . S
C3369 C62 1.194 . S
C3388 C244 1.203 . S
C3405 C257 1.189 . S
C3424 C69 1.179 . S
C3441 C576 1.187 . S
C3460 C88 1.172 . S
C3477 C95 1.190 . S
C3496 C231 1.184 . S
C3513 C173 1.195 . S
C3532 C114 1.205 . S
C3549 C121 1.187 . S
C3568 C186 1.170 . S
C3585 C199 1.187 . S
C3604 C140 1.173 . S
C3621 C153 1.187 . S
C3640 C160 1.170 . S
C3657 C335 1.195 . S
C3676 C218 1.206 . S
C3693 C270 1.188 . S
C3712 C394 1.175 . S
C3729 C277 1.192 . S
C3748 C361 1.196 . S
C3765 C608 1.191 . S
C3784 C322 1.192 . S
C3801 C342 1.195 . S
C3820 C621 1.208 . S
C3837 C374 1.188 . S
C3856 C550 1.178 . S
C3873 C387 1.195 . S
C3892 C569 1.207 . S
C3909 C543 1.188 . S
C3928 C413 1.173 . S
C3945 C485 1.190 . S
C3964 C420 1.187 . S
C3981 C433 1.189 . S
C4000 C504 1.181 . S
C4017 C452 1.192 . S
C4036 C511 1.192 . S
C4053 C478 1.194 . S
C4072 C459 1.205 . S
