# Generated by pormake.
# Topology fcq, (5)-cn, num edge types: 1
# Building blocks:
#     Node 0, Type 0, BuildingBlock: XOMCOT_clean_sbu_1, # of connection points: 5
#     Node 1, Type 0, BuildingBlock: XOMCOT_clean_sbu_1, # of connection points: 5
#     Node 2, Type 0, BuildingBlock: XOMCOT_clean_sbu_1, # of connection points: 5
#     Node 3, Type 0, BuildingBlock: XOMCOT_clean_sbu_1, # of connection points: 5
#     Node 4, Type 0, BuildingBlock: XOMCOT_clean_sbu_1, # of connection points: 5
#     Node 5, Type 0, BuildingBlock: XOMCOT_clean_sbu_1, # of connection points: 5
#     Node 6, Type 0, BuildingBlock: XOMCOT_clean_sbu_1, # of connection points: 5
#     Node 7, Type 0, BuildingBlock: XOMCOT_clean_sbu_1, # of connection points: 5
#     Node 8, Type 0, BuildingBlock: XOMCOT_clean_sbu_1, # of connection points: 5
#     Node 9, Type 0, BuildingBlock: XOMCOT_clean_sbu_1, # of connection points: 5
#     Node 10, Type 0, BuildingBlock: XOMCOT_clean_sbu_1, # of connection points: 5
#     Node 11, Type 0, BuildingBlock: XOMCOT_clean_sbu_1, # of connection points: 5
#     Node 12, Type 0, BuildingBlock: XOMCOT_clean_sbu_1, # of connection points: 5
#     Node 13, Type 0, BuildingBlock: XOMCOT_clean_sbu_1, # of connection points: 5
#     Node 14, Type 0, BuildingBlock: XOMCOT_clean_sbu_1, # of connection points: 5
#     Node 15, Type 0, BuildingBlock: XOMCOT_clean_sbu_1, # of connection points: 5
#     Node 16, Type 0, BuildingBlock: XOMCOT_clean_sbu_1, # of connection points: 5
#     Node 17, Type 0, BuildingBlock: XOMCOT_clean_sbu_1, # of connection points: 5
#     Node 18, Type 0, BuildingBlock: XOMCOT_clean_sbu_1, # of connection points: 5
#     Node 19, Type 0, BuildingBlock: XOMCOT_clean_sbu_1, # of connection points: 5
#     Node 20, Type 0, BuildingBlock: XOMCOT_clean_sbu_1, # of connection points: 5
#     Node 21, Type 0, BuildingBlock: XOMCOT_clean_sbu_1, # of connection points: 5
#     Node 22, Type 0, BuildingBlock: XOMCOT_clean_sbu_1, # of connection points: 5
#     Node 23, Type 0, BuildingBlock: XOMCOT_clean_sbu_1, # of connection points: 5
#     Node 24, Type 0, BuildingBlock: XOMCOT_clean_sbu_1, # of connection points: 5
#     Node 25, Type 0, BuildingBlock: XOMCOT_clean_sbu_1, # of connection points: 5
#     Node 26, Type 0, BuildingBlock: XOMCOT_clean_sbu_1, # of connection points: 5
#     Node 27, Type 0, BuildingBlock: XOMCOT_clean_sbu_1, # of connection points: 5
#     Node 28, Type 0, BuildingBlock: XOMCOT_clean_sbu_1, # of connection points: 5
#     Node 29, Type 0, BuildingBlock: XOMCOT_clean_sbu_1, # of connection points: 5
#     Node 30, Type 0, BuildingBlock: XOMCOT_clean_sbu_1, # of connection points: 5
#     Node 31, Type 0, BuildingBlock: XOMCOT_clean_sbu_1, # of connection points: 5
#     Node 32, Type 0, BuildingBlock: XOMCOT_clean_sbu_1, # of connection points: 5
#     Node 33, Type 0, BuildingBlock: XOMCOT_clean_sbu_1, # of connection points: 5
#     Node 34, Type 0, BuildingBlock: XOMCOT_clean_sbu_1, # of connection points: 5
#     Node 35, Type 0, BuildingBlock: XOMCOT_clean_sbu_1, # of connection points: 5
#     Node 36, Type 0, BuildingBlock: XOMCOT_clean_sbu_1, # of connection points: 5
#     Node 37, Type 0, BuildingBlock: XOMCOT_clean_sbu_1, # of connection points: 5
#     Node 38, Type 0, BuildingBlock: XOMCOT_clean_sbu_1, # of connection points: 5
#     Node 39, Type 0, BuildingBlock: XOMCOT_clean_sbu_1, # of connection points: 5
#     Node 40, Type 0, BuildingBlock: XOMCOT_clean_sbu_1, # of connection points: 5
#     Node 41, Type 0, BuildingBlock: XOMCOT_clean_sbu_1, # of connection points: 5
#     Node 42, Type 0, BuildingBlock: XOMCOT_clean_sbu_1, # of connection points: 5
#     Node 43, Type 0, BuildingBlock: XOMCOT_clean_sbu_1, # of connection points: 5
#     Node 44, Type 0, BuildingBlock: XOMCOT_clean_sbu_1, # of connection points: 5
#     Node 45, Type 0, BuildingBlock: XOMCOT_clean_sbu_1, # of connection points: 5
#     Node 46, Type 0, BuildingBlock: XOMCOT_clean_sbu_1, # of connection points: 5
#     Node 47, Type 0, BuildingBlock: XOMCOT_clean_sbu_1, # of connection points: 5
#     Edge 48, Type (0, 0), BuildingBlock: UVAHIK_clean_linker_0, # of connection points: 2
#     Edge 49, Type (0, 0), BuildingBlock: UVAHIK_clean_linker_0, # of connection points: 2
#     Edge 50, Type (0, 0), BuildingBlock: UVAHIK_clean_linker_0, # of connection points: 2
#     Edge 51, Type (0, 0), BuildingBlock: UVAHIK_clean_linker_0, # of connection points: 2
#     Edge 52, Type (0, 0), BuildingBlock: UVAHIK_clean_linker_0, # of connection points: 2
#     Edge 53, Type (0, 0), BuildingBlock: UVAHIK_clean_linker_0, # of connection points: 2
#     Edge 54, Type (0, 0), BuildingBlock: UVAHIK_clean_linker_0, # of connection points: 2
#     Edge 55, Type (0, 0), BuildingBlock: UVAHIK_clean_linker_0, # of connection points: 2
#     Edge 56, Type (0, 0), BuildingBlock: UVAHIK_clean_linker_0, # of connection points: 2
#     Edge 57, Type (0, 0), BuildingBlock: UVAHIK_clean_linker_0, # of connection points: 2
#     Edge 58, Type (0, 0), BuildingBlock: UVAHIK_clean_linker_0, # of connection points: 2
#     Edge 59, Type (0, 0), BuildingBlock: UVAHIK_clean_linker_0, # of connection points: 2
#     Edge 60, Type (0, 0), BuildingBlock: UVAHIK_clean_linker_0, # of connection points: 2
#     Edge 61, Type (0, 0), BuildingBlock: UVAHIK_clean_linker_0, # of connection points: 2
#     Edge 62, Type (0, 0), BuildingBlock: UVAHIK_clean_linker_0, # of connection points: 2
#     Edge 63, Type (0, 0), BuildingBlock: UVAHIK_clean_linker_0, # of connection points: 2
#     Edge 64, Type (0, 0), BuildingBlock: UVAHIK_clean_linker_0, # of connection points: 2
#     Edge 65, Type (0, 0), BuildingBlock: UVAHIK_clean_linker_0, # of connection points: 2
#     Edge 66, Type (0, 0), BuildingBlock: UVAHIK_clean_linker_0, # of connection points: 2
#     Edge 67, Type (0, 0), BuildingBlock: UVAHIK_clean_linker_0, # of connection points: 2
#     Edge 68, Type (0, 0), BuildingBlock: UVAHIK_clean_linker_0, # of connection points: 2
#     Edge 69, Type (0, 0), BuildingBlock: UVAHIK_clean_linker_0, # of connection points: 2
#     Edge 70, Type (0, 0), BuildingBlock: UVAHIK_clean_linker_0, # of connection points: 2
#     Edge 71, Type (0, 0), BuildingBlock: UVAHIK_clean_linker_0, # of connection points: 2
#     Edge 72, Type (0, 0), BuildingBlock: UVAHIK_clean_linker_0, # of connection points: 2
#     Edge 73, Type (0, 0), BuildingBlock: UVAHIK_clean_linker_0, # of connection points: 2
#     Edge 74, Type (0, 0), BuildingBlock: UVAHIK_clean_linker_0, # of connection points: 2
#     Edge 75, Type (0, 0), BuildingBlock: UVAHIK_clean_linker_0, # of connection points: 2
#     Edge 76, Type (0, 0), BuildingBlock: UVAHIK_clean_linker_0, # of connection points: 2
#     Edge 77, Type (0, 0), BuildingBlock: UVAHIK_clean_linker_0, # of connection points: 2
#     Edge 78, Type (0, 0), BuildingBlock: UVAHIK_clean_linker_0, # of connection points: 2
#     Edge 79, Type (0, 0), BuildingBlock: UVAHIK_clean_linker_0, # of connection points: 2
#     Edge 80, Type (0, 0), BuildingBlock: UVAHIK_clean_linker_0, # of connection points: 2
#     Edge 81, Type (0, 0), BuildingBlock: UVAHIK_clean_linker_0, # of connection points: 2
#     Edge 82, Type (0, 0), BuildingBlock: UVAHIK_clean_linker_0, # of connection points: 2
#     Edge 83, Type (0, 0), BuildingBlock: UVAHIK_clean_linker_0, # of connection points: 2
#     Edge 84, Type (0, 0), BuildingBlock: UVAHIK_clean_linker_0, # of connection points: 2
#     Edge 85, Type (0, 0), BuildingBlock: UVAHIK_clean_linker_0, # of connection points: 2
#     Edge 86, Type (0, 0), BuildingBlock: UVAHIK_clean_linker_0, # of connection points: 2
#     Edge 87, Type (0, 0), BuildingBlock: UVAHIK_clean_linker_0, # of connection points: 2
#     Edge 88, Type (0, 0), BuildingBlock: UVAHIK_clean_linker_0, # of connection points: 2
#     Edge 89, Type (0, 0), BuildingBlock: UVAHIK_clean_linker_0, # of connection points: 2
#     Edge 90, Type (0, 0), BuildingBlock: UVAHIK_clean_linker_0, # of connection points: 2
#     Edge 91, Type (0, 0), BuildingBlock: UVAHIK_clean_linker_0, # of connection points: 2
#     Edge 92, Type (0, 0), BuildingBlock: UVAHIK_clean_linker_0, # of connection points: 2
#     Edge 93, Type (0, 0), BuildingBlock: UVAHIK_clean_linker_0, # of connection points: 2
#     Edge 94, Type (0, 0), BuildingBlock: UVAHIK_clean_linker_0, # of connection points: 2
#     Edge 95, Type (0, 0), BuildingBlock: UVAHIK_clean_linker_0, # of connection points: 2
#     Edge 96, Type (0, 0), BuildingBlock: UVAHIK_clean_linker_0, # of connection points: 2
#     Edge 97, Type (0, 0), BuildingBlock: UVAHIK_clean_linker_0, # of connection points: 2
#     Edge 98, Type (0, 0), BuildingBlock: UVAHIK_clean_linker_0, # of connection points: 2
#     Edge 99, Type (0, 0), BuildingBlock: UVAHIK_clean_linker_0, # of connection points: 2
#     Edge 100, Type (0, 0), BuildingBlock: UVAHIK_clean_linker_0, # of connection points: 2
#     Edge 101, Type (0, 0), BuildingBlock: UVAHIK_clean_linker_0, # of connection points: 2
#     Edge 102, Type (0, 0), BuildingBlock: UVAHIK_clean_linker_0, # of connection points: 2
#     Edge 103, Type (0, 0), BuildingBlock: UVAHIK_clean_linker_0, # of connection points: 2
#     Edge 104, Type (0, 0), BuildingBlock: UVAHIK_clean_linker_0, # of connection points: 2
#     Edge 105, Type (0, 0), BuildingBlock: UVAHIK_clean_linker_0, # of connection points: 2
#     Edge 106, Type (0, 0), BuildingBlock: UVAHIK_clean_linker_0, # of connection points: 2
#     Edge 107, Type (0, 0), BuildingBlock: UVAHIK_clean_linker_0, # of connection points: 2
#     Edge 108, Type (0, 0), BuildingBlock: UVAHIK_clean_linker_0, # of connection points: 2
#     Edge 109, Type (0, 0), BuildingBlock: UVAHIK_clean_linker_0, # of connection points: 2
#     Edge 110, Type (0, 0), BuildingBlock: UVAHIK_clean_linker_0, # of connection points: 2
#     Edge 111, Type (0, 0), BuildingBlock: UVAHIK_clean_linker_0, # of connection points: 2
#     Edge 112, Type (0, 0), BuildingBlock: UVAHIK_clean_linker_0, # of connection points: 2
#     Edge 113, Type (0, 0), BuildingBlock: UVAHIK_clean_linker_0, # of connection points: 2
#     Edge 114, Type (0, 0), BuildingBlock: UVAHIK_clean_linker_0, # of connection points: 2
#     Edge 115, Type (0, 0), BuildingBlock: UVAHIK_clean_linker_0, # of connection points: 2
#     Edge 116, Type (0, 0), BuildingBlock: UVAHIK_clean_linker_0, # of connection points: 2
#     Edge 117, Type (0, 0), BuildingBlock: UVAHIK_clean_linker_0, # of connection points: 2
#     Edge 118, Type (0, 0), BuildingBlock: UVAHIK_clean_linker_0, # of connection points: 2
#     Edge 119, Type (0, 0), BuildingBlock: UVAHIK_clean_linker_0, # of connection points: 2
#     Edge 120, Type (0, 0), BuildingBlock: UVAHIK_clean_linker_0, # of connection points: 2
#     Edge 121, Type (0, 0), BuildingBlock: UVAHIK_clean_linker_0, # of connection points: 2
#     Edge 122, Type (0, 0), BuildingBlock: UVAHIK_clean_linker_0, # of connection points: 2
#     Edge 123, Type (0, 0), BuildingBlock: UVAHIK_clean_linker_0, # of connection points: 2
#     Edge 124, Type (0, 0), BuildingBlock: UVAHIK_clean_linker_0, # of connection points: 2
#     Edge 125, Type (0, 0), BuildingBlock: UVAHIK_clean_linker_0, # of connection points: 2
#     Edge 126, Type (0, 0), BuildingBlock: UVAHIK_clean_linker_0, # of connection points: 2
#     Edge 127, Type (0, 0), BuildingBlock: UVAHIK_clean_linker_0, # of connection points: 2
#     Edge 128, Type (0, 0), BuildingBlock: UVAHIK_clean_linker_0, # of connection points: 2
#     Edge 129, Type (0, 0), BuildingBlock: UVAHIK_clean_linker_0, # of connection points: 2
#     Edge 130, Type (0, 0), BuildingBlock: UVAHIK_clean_linker_0, # of connection points: 2
#     Edge 131, Type (0, 0), BuildingBlock: UVAHIK_clean_linker_0, # of connection points: 2
#     Edge 132, Type (0, 0), BuildingBlock: UVAHIK_clean_linker_0, # of connection points: 2
#     Edge 133, Type (0, 0), BuildingBlock: UVAHIK_clean_linker_0, # of connection points: 2
#     Edge 134, Type (0, 0), BuildingBlock: UVAHIK_clean_linker_0, # of connection points: 2
#     Edge 135, Type (0, 0), BuildingBlock: UVAHIK_clean_linker_0, # of connection points: 2
#     Edge 136, Type (0, 0), BuildingBlock: UVAHIK_clean_linker_0, # of connection points: 2
#     Edge 137, Type (0, 0), BuildingBlock: UVAHIK_clean_linker_0, # of connection points: 2
#     Edge 138, Type (0, 0), BuildingBlock: UVAHIK_clean_linker_0, # of connection points: 2
#     Edge 139, Type (0, 0), BuildingBlock: UVAHIK_clean_linker_0, # of connection points: 2
#     Edge 140, Type (0, 0), BuildingBlock: UVAHIK_clean_linker_0, # of connection points: 2
#     Edge 141, Type (0, 0), BuildingBlock: UVAHIK_clean_linker_0, # of connection points: 2
#     Edge 142, Type (0, 0), BuildingBlock: UVAHIK_clean_linker_0, # of connection points: 2
#     Edge 143, Type (0, 0), BuildingBlock: UVAHIK_clean_linker_0, # of connection points: 2
#     Edge 144, Type (0, 0), BuildingBlock: UVAHIK_clean_linker_0, # of connection points: 2
#     Edge 145, Type (0, 0), BuildingBlock: UVAHIK_clean_linker_0, # of connection points: 2
#     Edge 146, Type (0, 0), BuildingBlock: UVAHIK_clean_linker_0, # of connection points: 2
#     Edge 147, Type (0, 0), BuildingBlock: UVAHIK_clean_linker_0, # of connection points: 2
#     Edge 148, Type (0, 0), BuildingBlock: UVAHIK_clean_linker_0, # of connection points: 2
#     Edge 149, Type (0, 0), BuildingBlock: UVAHIK_clean_linker_0, # of connection points: 2
#     Edge 150, Type (0, 0), BuildingBlock: UVAHIK_clean_linker_0, # of connection points: 2
#     Edge 151, Type (0, 0), BuildingBlock: UVAHIK_clean_linker_0, # of connection points: 2
#     Edge 152, Type (0, 0), BuildingBlock: UVAHIK_clean_linker_0, # of connection points: 2
#     Edge 153, Type (0, 0), BuildingBlock: UVAHIK_clean_linker_0, # of connection points: 2
#     Edge 154, Type (0, 0), BuildingBlock: UVAHIK_clean_linker_0, # of connection points: 2
#     Edge 155, Type (0, 0), BuildingBlock: UVAHIK_clean_linker_0, # of connection points: 2
#     Edge 156, Type (0, 0), BuildingBlock: UVAHIK_clean_linker_0, # of connection points: 2
#     Edge 157, Type (0, 0), BuildingBlock: UVAHIK_clean_linker_0, # of connection points: 2
#     Edge 158, Type (0, 0), BuildingBlock: UVAHIK_clean_linker_0, # of connection points: 2
#     Edge 159, Type (0, 0), BuildingBlock: UVAHIK_clean_linker_0, # of connection points: 2
#     Edge 160, Type (0, 0), BuildingBlock: UVAHIK_clean_linker_0, # of connection points: 2
#     Edge 161, Type (0, 0), BuildingBlock: UVAHIK_clean_linker_0, # of connection points: 2
#     Edge 162, Type (0, 0), BuildingBlock: UVAHIK_clean_linker_0, # of connection points: 2
#     Edge 163, Type (0, 0), BuildingBlock: UVAHIK_clean_linker_0, # of connection points: 2
#     Edge 164, Type (0, 0), BuildingBlock: UVAHIK_clean_linker_0, # of connection points: 2
#     Edge 165, Type (0, 0), BuildingBlock: UVAHIK_clean_linker_0, # of connection points: 2
#     Edge 166, Type (0, 0), BuildingBlock: UVAHIK_clean_linker_0, # of connection points: 2
#     Edge 167, Type (0, 0), BuildingBlock: UVAHIK_clean_linker_0, # of connection points: 2
# Relax obj value: 0.455
# Max RMSD: 0.268
# Mean RMSD: 0.268
data_MOF--net-fcq--node1-XOMCOT_clean_sbu_1--edge1-UVAHIK_clean_linker_0
_symmetry_space_group_name_H-M    P1
_symmetry_Int_Tables_number       1
_symmetry_cell_setting            triclinic
loop_
_symmetry_equiv_pos_as_xyz
'x, y, z'
_cell_length_a     82.796181
_cell_length_b     82.744126
_cell_length_c     82.76361
_cell_angle_alpha  90.038085
_cell_angle_beta   89.951027
_cell_angle_gamma 89.988785
loop_
_atom_site_label
_atom_site_type_symbol
_atom_site_fract_x
_atom_site_fract_y
_atom_site_fract_z
_atom_type_partial_charge
C0 C 0.18005 0.20778 0.414 0.0
C1 C 0.19403 0.21292 0.42126 0.0
N2 N 0.19085 0.21613 0.43689 0.0
N3 N 0.16798 0.20737 0.42498 0.0
C4 C 0.17484 0.21329 0.43864 0.0
H5 H 0.17898 0.20452 0.40144 0.0
Co6 Co 0.14655 0.20004 0.4212 0.0
C7 C 0.15412 0.18526 0.45369 0.0
O8 O 0.16914 0.18184 0.44983 0.0
N9 N 0.12561 0.1931 0.41711 0.0
C10 C 0.10202 0.18032 0.41773 0.0
C11 C 0.11556 0.18425 0.42645 0.0
C12 C 0.11798 0.19429 0.40275 0.0
N13 N 0.10355 0.18675 0.40291 0.0
O14 O 0.13833 0.22024 0.42814 0.0
H15 H 0.11824 0.17989 0.43842 0.0
H16 H 0.12329 0.19977 0.39214 0.0
O17 O 0.14484 0.19192 0.44332 0.0
C18 C 0.14021 0.23072 0.4171 0.0
O19 O 0.14802 0.22662 0.40389 0.0
N20 N 0.15406 0.18049 0.41271 0.0
C21 C 0.16638 0.15444 0.39534 0.0
C22 C 0.16131 0.1525 0.41143 0.0
C23 C 0.15481 0.16564 0.41983 0.0
C24 C 0.15721 0.18206 0.39663 0.0
C25 C 0.16362 0.16929 0.38774 0.0
H26 H 0.15042 0.16368 0.4319 0.0
H27 H 0.15513 0.19355 0.39076 0.0
H28 H 0.16838 0.21474 0.44992 0.0
H29 H 0.20571 0.21398 0.41548 0.0
H30 H 0.09235 0.17238 0.42154 0.0
H31 H 0.16288 0.14113 0.4177 0.0
H32 H 0.16678 0.17115 0.37518 0.0
C33 C 0.46434 0.56961 0.83898 0.0
C34 C 0.46898 0.55616 0.83029 0.0
N35 N 0.46391 0.558 0.81495 0.0
N36 N 0.45651 0.57996 0.82913 0.0
C37 C 0.4565 0.57254 0.81454 0.0
H38 H 0.46625 0.57158 0.85175 0.0
Co39 Co 0.44725 0.59985 0.83521 0.0
C40 C 0.42124 0.59784 0.80915 0.0
O41 O 0.40962 0.59213 0.8183 0.0
N42 N 0.43823 0.61996 0.84092 0.0
C43 C 0.42174 0.64106 0.84319 0.0
C44 C 0.4236 0.62594 0.83679 0.0
C45 C 0.4449 0.63168 0.85019 0.0
N46 N 0.4351 0.64465 0.85162 0.0
O47 O 0.46418 0.61102 0.82473 0.0
H48 H 0.4144 0.61968 0.83014 0.0
H49 H 0.45653 0.63059 0.85603 0.0
O50 O 0.43518 0.60066 0.81508 0.0
C51 C 0.47701 0.61072 0.8331 0.0
O52 O 0.47715 0.60254 0.84669 0.0
N53 N 0.43123 0.58893 0.84706 0.0
C54 C 0.41003 0.57304 0.86761 0.0
C55 C 0.41327 0.56687 0.8522 0.0
C56 C 0.42417 0.57485 0.84219 0.0
C57 C 0.42887 0.59444 0.86249 0.0
C58 C 0.41801 0.58686 0.87289 0.0
H59 H 0.42684 0.56974 0.83047 0.0
H60 H 0.43566 0.60461 0.86701 0.0
H61 H 0.45105 0.57756 0.80378 0.0
H62 H 0.47508 0.54559 0.835 0.0
H63 H 0.411 0.64851 0.84247 0.0
H64 H 0.40751 0.55587 0.84802 0.0
H65 H 0.4161 0.59155 0.88497 0.0
C66 C 0.82142 0.28558 0.41074 0.0
C67 C 0.80874 0.2794 0.41959 0.0
N68 N 0.81195 0.28158 0.4354 0.0
N69 N 0.83256 0.29177 0.42087 0.0
C70 C 0.82666 0.2887 0.43582 0.0
H71 H 0.82207 0.28635 0.3977 0.0
Co72 Co 0.85075 0.30385 0.4144 0.0
C73 C 0.84429 0.32271 0.44641 0.0
O74 O 0.82848 0.32337 0.44711 0.0
N75 N 0.86898 0.31584 0.40824 0.0
C76 C 0.88484 0.33707 0.40405 0.0
C77 C 0.87177 0.33138 0.41244 0.0
C78 C 0.88073 0.31226 0.39743 0.0
N79 N 0.89041 0.32509 0.39459 0.0
O80 O 0.86472 0.2879 0.42333 0.0
H81 H 0.86415 0.33856 0.42025 0.0
H82 H 0.88137 0.30097 0.39085 0.0
O83 O 0.85143 0.31556 0.43477 0.0
C84 C 0.8657 0.27526 0.41465 0.0
O85 O 0.8567 0.2741 0.40164 0.0
N86 N 0.83717 0.31923 0.4041 0.0
C87 C 0.81872 0.3412 0.38643 0.0
C88 C 0.81358 0.33592 0.40166 0.0
C89 C 0.82292 0.32483 0.41024 0.0
C90 C 0.84159 0.32339 0.38871 0.0
C91 C 0.83283 0.33473 0.37987 0.0
H92 H 0.81818 0.32016 0.42135 0.0
H93 H 0.85193 0.31782 0.38305 0.0
H94 H 0.8328 0.29199 0.44685 0.0
H95 H 0.79759 0.27463 0.41473 0.0
H96 H 0.88942 0.34933 0.40422 0.0
H97 H 0.80237 0.34027 0.40685 0.0
H98 H 0.83682 0.33808 0.36786 0.0
C99 C 0.53274 0.93085 0.83632 0.0
C100 C 0.5286 0.94441 0.82764 0.0
N101 N 0.53253 0.94196 0.812 0.0
N102 N 0.53924 0.91981 0.82627 0.0
C103 C 0.53879 0.92685 0.81151 0.0
H104 H 0.53163 0.92933 0.84925 0.0
Co105 Co 0.54866 0.90033 0.83305 0.0
C106 C 0.57302 0.8999 0.80509 0.0
O107 O 0.58545 0.90584 0.81293 0.0
N108 N 0.55797 0.88078 0.83978 0.0
C109 C 0.57616 0.8619 0.84552 0.0
C110 C 0.57326 0.87575 0.83701 0.0
C111 C 0.55177 0.86961 0.85 0.0
N112 N 0.5627 0.8581 0.85373 0.0
O113 O 0.531 0.88855 0.8244 0.0
H114 H 0.58225 0.88219 0.83023 0.0
H115 H 0.53992 0.87052 0.85546 0.0
O116 O 0.55949 0.89786 0.81222 0.0
C117 C 0.5184 0.88922 0.83316 0.0
O118 O 0.51863 0.89824 0.84623 0.0
N119 N 0.56538 0.91202 0.84306 0.0
C120 C 0.58746 0.92934 0.86152 0.0
C121 C 0.5845 0.93362 0.84542 0.0
C122 C 0.57301 0.9251 0.83653 0.0
C123 C 0.56759 0.90831 0.85901 0.0
C124 C 0.57871 0.91673 0.86844 0.0
H125 H 0.57017 0.92909 0.82443 0.0
H126 H 0.56042 0.89899 0.86465 0.0
H127 H 0.54373 0.92134 0.80074 0.0
H128 H 0.52335 0.95532 0.83259 0.0
H129 H 0.58756 0.85552 0.84628 0.0
H130 H 0.59061 0.94383 0.83996 0.0
H131 H 0.58031 0.91354 0.88103 0.0
C132 C 0.18428 0.79065 0.08944 0.0
C133 C 0.19816 0.78551 0.08194 0.0
N134 N 0.19452 0.78124 0.06666 0.0
N135 N 0.17189 0.78996 0.0789 0.0
C136 C 0.17836 0.78328 0.06543 0.0
H137 H 0.18351 0.7954 0.10158 0.0
Co138 Co 0.1512 0.79859 0.08275 0.0
C139 C 0.15813 0.81186 0.04858 0.0
O140 O 0.17397 0.81131 0.04831 0.0
N141 N 0.1308 0.80697 0.08694 0.0
C142 C 0.10936 0.82308 0.08757 0.0
C143 C 0.1231 0.8191 0.0792 0.0
C144 C 0.1215 0.80376 0.09995 0.0
N145 N 0.10837 0.81336 0.10051 0.0
O146 O 0.14131 0.77963 0.07455 0.0
H147 H 0.12761 0.82546 0.06877 0.0
H148 H 0.12484 0.79531 0.10936 0.0
O149 O 0.15011 0.80776 0.0611 0.0
C150 C 0.14251 0.76663 0.08259 0.0
O151 O 0.15216 0.76615 0.09517 0.0
N152 N 0.16021 0.81718 0.09196 0.0
C153 C 0.17189 0.84325 0.10988 0.0
C154 C 0.17301 0.84309 0.09294 0.0
C155 C 0.16701 0.83001 0.08419 0.0
C156 C 0.1589 0.81715 0.10838 0.0
C157 C 0.16457 0.83008 0.11759 0.0
H158 H 0.16808 0.83034 0.0713 0.0
H159 H 0.1535 0.80688 0.11439 0.0
H160 H 0.17159 0.78128 0.05443 0.0
H161 H 0.21017 0.78578 0.08708 0.0
H162 H 0.10128 0.83305 0.08498 0.0
H163 H 0.17893 0.85277 0.08642 0.0
H164 H 0.16333 0.82966 0.13061 0.0
C165 C 0.03924 0.56639 0.16126 0.0
C166 C 0.03365 0.55333 0.16986 0.0
N167 N 0.03151 0.55782 0.18538 0.0
N168 N 0.04095 0.57914 0.17127 0.0
C169 C 0.03552 0.57369 0.18572 0.0
H170 H 0.04237 0.56628 0.1486 0.0
Co171 Co 0.0504 0.59931 0.16635 0.0
C172 C 0.06705 0.59147 0.19825 0.0
O173 O 0.06845 0.57575 0.19636 0.0
N174 N 0.05978 0.61923 0.16144 0.0
C175 C 0.07741 0.63943 0.16022 0.0
C176 C 0.07276 0.626 0.16869 0.0
C177 C 0.05675 0.62884 0.1486 0.0
N178 N 0.06733 0.6412 0.14764 0.0
O179 O 0.03235 0.6101 0.17544 0.0
H180 H 0.0792 0.62106 0.1789 0.0
H181 H 0.04772 0.62623 0.13952 0.0
O182 O 0.06065 0.60011 0.18726 0.0
C183 C 0.02166 0.61276 0.1648 0.0
O184 O 0.02382 0.60701 0.15016 0.0
N185 N 0.06779 0.58925 0.156 0.0
C186 C 0.09032 0.57445 0.13575 0.0
C187 C 0.09389 0.57739 0.1521 0.0
C188 C 0.08257 0.58511 0.16196 0.0
C189 C 0.06462 0.58762 0.13993 0.0
C190 C 0.07565 0.58018 0.12959 0.0
H191 H 0.08593 0.58775 0.1742 0.0
H192 H 0.0532 0.59183 0.13519 0.0
H193 H 0.03514 0.58114 0.19645 0.0
H194 H 0.03215 0.54125 0.16509 0.0
H195 H 0.08787 0.64691 0.16265 0.0
H196 H 0.10512 0.57335 0.15743 0.0
H197 H 0.07254 0.57866 0.11698 0.0
C198 C 0.81788 0.71429 0.09079 0.0
C199 C 0.80429 0.71879 0.08225 0.0
N200 N 0.80668 0.71511 0.06657 0.0
N201 N 0.82878 0.70785 0.08051 0.0
C202 C 0.82167 0.70878 0.06582 0.0
H203 H 0.81944 0.71498 0.10374 0.0
Co204 Co 0.84848 0.69791 0.08598 0.0
C205 C 0.84599 0.67393 0.05822 0.0
O206 O 0.84148 0.66147 0.06693 0.0
N207 N 0.86846 0.68838 0.09113 0.0
C208 C 0.89036 0.67282 0.09179 0.0
C209 C 0.8757 0.67526 0.08458 0.0
C210 C 0.87907 0.69366 0.1024 0.0
N211 N 0.89246 0.68435 0.10301 0.0
O212 O 0.85997 0.71568 0.07697 0.0
H213 H 0.87077 0.66754 0.07539 0.0
H214 H 0.87687 0.70394 0.11019 0.0
O215 O 0.84906 0.6875 0.06489 0.0
C216 C 0.85947 0.72856 0.08534 0.0
O217 O 0.85072 0.72881 0.09858 0.0
N218 N 0.83709 0.6808 0.09623 0.0
C219 C 0.82015 0.6578 0.1141 0.0
C220 C 0.81419 0.66325 0.09925 0.0
C221 C 0.82278 0.67483 0.09055 0.0
C222 C 0.8425 0.67617 0.11115 0.0
C223 C 0.83447 0.66434 0.12007 0.0
H224 H 0.81795 0.67883 0.07912 0.0
H225 H 0.8529 0.68185 0.11652 0.0
H226 H 0.82709 0.70441 0.05476 0.0
H227 H 0.7932 0.72354 0.08731 0.0
H228 H 0.89857 0.6629 0.08945 0.0
H229 H 0.80303 0.65849 0.09434 0.0
H230 H 0.83915 0.66069 0.13174 0.0
C231 C 0.96843 0.92938 0.16048 0.0
C232 C 0.97329 0.94248 0.16954 0.0
N233 N 0.96851 0.94024 0.18498 0.0
N234 N 0.96052 0.91888 0.17007 0.0
C235 C 0.96105 0.92566 0.18496 0.0
H236 H 0.96983 0.92796 0.14756 0.0
Co237 Co 0.94933 0.90039 0.16303 0.0
C238 C 0.92329 0.90354 0.18899 0.0
O239 O 0.91226 0.91044 0.17993 0.0
N240 N 0.93834 0.88158 0.15623 0.0
C241 C 0.91962 0.86264 0.15252 0.0
C242 C 0.92293 0.87723 0.15954 0.0
C243 C 0.94399 0.86947 0.14676 0.0
N244 N 0.93284 0.85778 0.1445 0.0
O245 O 0.9651 0.88709 0.17305 0.0
H246 H 0.91425 0.88428 0.1661 0.0
H247 H 0.95595 0.86928 0.1415 0.0
O248 O 0.93707 0.89982 0.18313 0.0
C249 C 0.9777 0.88569 0.16442 0.0
O250 O 0.9785 0.89337 0.15056 0.0
N251 N 0.9344 0.91359 0.15187 0.0
C252 C 0.91374 0.93228 0.13308 0.0
C253 C 0.9185 0.93756 0.14843 0.0
C254 C 0.92895 0.92809 0.15761 0.0
C255 C 0.93087 0.90904 0.13637 0.0
C256 C 0.92015 0.91795 0.12694 0.0
H257 H 0.93232 0.93226 0.1695 0.0
H258 H 0.93637 0.89841 0.13115 0.0
H259 H 0.95559 0.92023 0.19549 0.0
H260 H 0.97915 0.95317 0.16485 0.0
H261 H 0.90814 0.85636 0.15273 0.0
H262 H 0.91379 0.94869 0.15349 0.0
H263 H 0.91699 0.91375 0.11495 0.0
C264 C 0.41267 0.18294 0.20618 0.0
C265 C 0.42101 0.19625 0.2115 0.0
N266 N 0.43666 0.19221 0.213 0.0
N267 N 0.42302 0.17053 0.20389 0.0
C268 C 0.43749 0.17642 0.20884 0.0
H269 H 0.39987 0.18261 0.20384 0.0
Co270 Co 0.4175 0.15023 0.19479 0.0
C271 C 0.4495 0.15674 0.17785 0.0
O272 O 0.44808 0.17247 0.17614 0.0
N273 N 0.41196 0.13041 0.18583 0.0
C274 C 0.40904 0.11057 0.168 0.0
C275 C 0.41782 0.12402 0.17197 0.0
C276 C 0.39971 0.12053 0.19014 0.0
N277 N 0.39769 0.10841 0.17941 0.0
O278 O 0.42646 0.13933 0.2128 0.0
H279 H 0.42726 0.12924 0.16462 0.0
H280 H 0.39181 0.12277 0.20032 0.0
O281 O 0.43826 0.14858 0.18444 0.0
C282 C 0.41916 0.14111 0.22615 0.0
O283 O 0.40692 0.15117 0.22705 0.0
N284 N 0.40741 0.1603 0.17723 0.0
C285 C 0.38759 0.17369 0.1536 0.0
C286 C 0.40378 0.17004 0.15022 0.0
C287 C 0.41347 0.16317 0.16216 0.0
C288 C 0.39143 0.16283 0.18034 0.0
C289 C 0.38134 0.16981 0.16881 0.0
H290 H 0.42558 0.15987 0.15893 0.0
H291 H 0.38654 0.15952 0.19201 0.0
H292 H 0.44861 0.16956 0.20855 0.0
H293 H 0.41602 0.20816 0.21363 0.0
H294 H 0.41044 0.10328 0.15721 0.0
H295 H 0.40902 0.17277 0.13853 0.0
H296 H 0.36883 0.17222 0.17178 0.0
C297 C 0.42831 0.33505 0.02796 0.0
C298 C 0.44094 0.32537 0.02311 0.0
N299 N 0.43921 0.31066 0.02999 0.0
N300 N 0.41859 0.32659 0.03786 0.0
C301 C 0.42544 0.31177 0.03879 0.0
H302 H 0.42671 0.34769 0.02507 0.0
Co303 Co 0.40152 0.33565 0.04944 0.0
C304 C 0.39638 0.31088 0.07564 0.0
O305 O 0.39884 0.32105 0.08754 0.0
N306 N 0.38402 0.34503 0.06148 0.0
C307 C 0.36969 0.35532 0.08194 0.0
C308 C 0.38455 0.3501 0.07708 0.0
C309 C 0.36841 0.34773 0.05716 0.0
N310 N 0.35957 0.35384 0.06944 0.0
O311 O 0.38687 0.32813 0.03342 0.0
H312 H 0.39505 0.35017 0.08478 0.0
H313 H 0.36339 0.34509 0.04543 0.0
O314 O 0.39801 0.31542 0.06099 0.0
C315 C 0.38477 0.33851 0.02231 0.0
O316 O 0.39217 0.35251 0.02342 0.0
N317 N 0.41644 0.3441 0.06395 0.0
C318 C 0.43535 0.36085 0.08595 0.0
C319 C 0.4361 0.34389 0.08503 0.0
C320 C 0.42673 0.3357 0.07364 0.0
C321 C 0.41702 0.36056 0.06337 0.0
C322 C 0.42615 0.36922 0.07452 0.0
H323 H 0.42739 0.32268 0.07293 0.0
H324 H 0.40949 0.36698 0.05484 0.0
H325 H 0.42067 0.30215 0.04619 0.0
H326 H 0.45095 0.32923 0.01567 0.0
H327 H 0.3666 0.36019 0.0937 0.0
H328 H 0.44375 0.33702 0.09312 0.0
H329 H 0.4255 0.3823 0.07456 0.0
C330 C 0.59144 0.31578 0.21463 0.0
C331 C 0.58256 0.30299 0.22056 0.0
N332 N 0.56673 0.30654 0.21905 0.0
N333 N 0.58128 0.32729 0.20921 0.0
C334 C 0.56637 0.32156 0.21262 0.0
H335 H 0.60444 0.31624 0.21338 0.0
Co336 Co 0.58708 0.34576 0.19738 0.0
C337 C 0.5541 0.34042 0.18006 0.0
O338 O 0.55388 0.32481 0.17731 0.0
N339 N 0.59249 0.36451 0.18568 0.0
C340 C 0.59292 0.38344 0.16661 0.0
C341 C 0.58621 0.36903 0.1713 0.0
C342 C 0.60326 0.37625 0.18931 0.0
N343 N 0.60364 0.38793 0.17794 0.0
O344 O 0.57933 0.35898 0.21446 0.0
H345 H 0.57756 0.36216 0.16435 0.0
H346 H 0.61085 0.37617 0.19993 0.0
O347 O 0.56599 0.34702 0.18727 0.0
C348 C 0.59056 0.36136 0.22462 0.0
O349 O 0.60461 0.35434 0.22234 0.0
N350 N 0.59624 0.33268 0.18084 0.0
C351 C 0.61347 0.31346 0.15901 0.0
C352 C 0.59832 0.30857 0.16478 0.0
C353 C 0.59 0.31826 0.17581 0.0
C354 C 0.61132 0.3372 0.17578 0.0
C355 C 0.61994 0.32801 0.16458 0.0
H356 H 0.57917 0.31349 0.18107 0.0
H357 H 0.61712 0.34773 0.18081 0.0
H358 H 0.55538 0.32806 0.21002 0.0
H359 H 0.5874 0.29155 0.22465 0.0
H360 H 0.59052 0.38985 0.15547 0.0
H361 H 0.59307 0.29717 0.16106 0.0
H362 H 0.63186 0.33193 0.16086 0.0
C363 C 0.56848 0.15927 0.03272 0.0
C364 C 0.55435 0.16597 0.02698 0.0
N365 N 0.55611 0.18214 0.02671 0.0
N366 N 0.57894 0.17122 0.03643 0.0
C367 C 0.57119 0.18496 0.03215 0.0
H368 H 0.57042 0.14662 0.03535 0.0
Co369 Co 0.59729 0.16974 0.04962 0.0
C370 C 0.59191 0.20321 0.06678 0.0
O371 O 0.5786 0.21105 0.07045 0.0
N372 N 0.61522 0.16822 0.063 0.0
C373 C 0.62909 0.16553 0.08576 0.0
C374 C 0.6157 0.17226 0.07879 0.0
C375 C 0.62837 0.15885 0.06068 0.0
N376 N 0.63694 0.15694 0.0744 0.0
O377 O 0.60971 0.18109 0.03401 0.0
H378 H 0.60595 0.17793 0.08532 0.0
H379 H 0.63057 0.15204 0.04973 0.0
O380 O 0.59072 0.1897 0.05958 0.0
C381 C 0.61415 0.17084 0.02346 0.0
O382 O 0.60924 0.1558 0.02476 0.0
N383 N 0.58581 0.15738 0.06439 0.0
C384 C 0.57198 0.13568 0.0858 0.0
C385 C 0.56809 0.15216 0.08655 0.0
C386 C 0.57502 0.16287 0.07557 0.0
C387 C 0.58966 0.14138 0.06346 0.0
C388 C 0.58274 0.13022 0.074 0.0
H389 H 0.57169 0.17546 0.07615 0.0
H390 H 0.5982 0.13731 0.05443 0.0
H391 H 0.57587 0.19695 0.03445 0.0
H392 H 0.5433 0.15954 0.02424 0.0
H393 H 0.63197 0.16562 0.09852 0.0
H394 H 0.55948 0.15666 0.09534 0.0
H395 H 0.58579 0.11753 0.07301 0.0
C396 C 0.41252 0.81897 0.2844 0.0
C397 C 0.42188 0.80612 0.27948 0.0
N398 N 0.4374 0.8097 0.28256 0.0
N399 N 0.42201 0.83064 0.29078 0.0
C400 C 0.4372 0.82472 0.28894 0.0
H401 H 0.39955 0.81959 0.28333 0.0
Co402 Co 0.41503 0.8507 0.29982 0.0
C403 C 0.44374 0.84338 0.32109 0.0
O404 O 0.43967 0.82826 0.32386 0.0
N405 N 0.40818 0.8703 0.30849 0.0
C406 C 0.40457 0.89109 0.3251 0.0
C407 C 0.41434 0.87825 0.32138 0.0
C408 C 0.39479 0.87871 0.30444 0.0
N409 N 0.39235 0.89136 0.31444 0.0
O410 O 0.42526 0.86217 0.28286 0.0
H411 H 0.42485 0.87467 0.32822 0.0
H412 H 0.3866 0.87516 0.29489 0.0
O413 O 0.43487 0.8523 0.3122 0.0
C414 C 0.41821 0.8615 0.26926 0.0
O415 O 0.40595 0.8516 0.26739 0.0
N416 N 0.40345 0.84016 0.31615 0.0
C417 C 0.38169 0.82656 0.33802 0.0
C418 C 0.39637 0.83317 0.34335 0.0
C419 C 0.40688 0.84029 0.33229 0.0
C420 C 0.38868 0.83506 0.31099 0.0
C421 C 0.3777 0.82797 0.32164 0.0
H422 H 0.41745 0.84624 0.33693 0.0
H423 H 0.38522 0.83685 0.29854 0.0
H424 H 0.44805 0.83123 0.29216 0.0
H425 H 0.41757 0.7948 0.27454 0.0
H426 H 0.40606 0.89938 0.33512 0.0
H427 H 0.39994 0.83259 0.35591 0.0
H428 H 0.36626 0.82358 0.31708 0.0
C429 C 0.06913 0.33736 0.96843 0.0
C430 C 0.0562 0.32776 0.97252 0.0
N431 N 0.05919 0.31255 0.96743 0.0
N432 N 0.08028 0.32833 0.96073 0.0
C433 C 0.074 0.31323 0.9605 0.0
H434 H 0.07005 0.35028 0.97024 0.0
Co435 Co 0.09899 0.33647 0.9508 0.0
C436 C 0.09786 0.31307 0.92243 0.0
O437 O 0.09141 0.32325 0.91216 0.0
N438 N 0.11794 0.34433 0.94099 0.0
C439 C 0.13678 0.35004 0.9227 0.0
C440 C 0.12141 0.3445 0.92502 0.0
C441 C 0.13139 0.35033 0.94812 0.0
N442 N 0.14303 0.35362 0.9372 0.0
O443 O 0.11205 0.32572 0.96647 0.0
H444 H 0.11324 0.34141 0.91545 0.0
H445 H 0.13269 0.35218 0.96099 0.0
O446 O 0.10058 0.31721 0.93706 0.0
C447 C 0.11151 0.33233 0.98033 0.0
O448 O 0.10195 0.3448 0.98255 0.0
N449 N 0.086 0.34835 0.93621 0.0
C450 C 0.06708 0.36804 0.91669 0.0
C451 C 0.06253 0.35206 0.9197 0.0
C452 C 0.072 0.34248 0.92975 0.0
C453 C 0.08993 0.3643 0.93421 0.0
C454 C 0.08079 0.37432 0.92418 0.0
H455 H 0.06824 0.33019 0.93201 0.0
H456 H 0.1002 0.36938 0.94047 0.0
H457 H 0.07997 0.30304 0.95492 0.0
H458 H 0.04513 0.33192 0.9781 0.0
H459 H 0.14279 0.35181 0.9112 0.0
H460 H 0.05172 0.34702 0.9143 0.0
H461 H 0.0843 0.3868 0.92241 0.0
C462 C 0.58216 0.67265 0.27588 0.0
C463 C 0.57277 0.68552 0.27103 0.0
N464 N 0.55953 0.68604 0.28048 0.0
N465 N 0.57483 0.66495 0.28823 0.0
C466 C 0.56101 0.6734 0.2907 0.0
H467 H 0.59387 0.66945 0.27107 0.0
Co468 Co 0.5837 0.64765 0.2999 0.0
C469 C 0.55667 0.64533 0.32525 0.0
O470 O 0.56457 0.65147 0.33752 0.0
N471 N 0.59266 0.6301 0.31192 0.0
C472 C 0.60175 0.61605 0.33302 0.0
C473 C 0.59353 0.62951 0.32824 0.0
C474 C 0.60068 0.6166 0.30712 0.0
N475 N 0.60639 0.60797 0.31975 0.0
O476 O 0.57625 0.63298 0.28373 0.0
H477 H 0.58969 0.63886 0.33637 0.0
H478 H 0.60302 0.61346 0.29471 0.0
O479 O 0.56321 0.64426 0.31129 0.0
C480 C 0.58691 0.63081 0.27287 0.0
O481 O 0.60082 0.63833 0.27423 0.0
N482 N 0.5925 0.66229 0.31466 0.0
C483 C 0.6096 0.68057 0.33691 0.0
C484 C 0.59295 0.68298 0.3348 0.0
C485 C 0.58465 0.67397 0.32322 0.0
C486 C 0.60893 0.66105 0.31542 0.0
C487 C 0.61774 0.66992 0.32667 0.0
H488 H 0.5719 0.67603 0.32158 0.0
H489 H 0.61517 0.65257 0.30767 0.0
H490 H 0.55233 0.67064 0.30008 0.0
H491 H 0.57579 0.69424 0.26177 0.0
H492 H 0.60454 0.61272 0.34536 0.0
H493 H 0.58644 0.69171 0.34207 0.0
H494 H 0.63066 0.66811 0.32767 0.0
C495 C 0.93317 0.15836 0.96119 0.0
C496 C 0.94673 0.16664 0.96614 0.0
N497 N 0.94372 0.18258 0.96488 0.0
N498 N 0.9218 0.16904 0.95651 0.0
C499 C 0.92847 0.18373 0.95926 0.0
H500 H 0.93212 0.1454 0.95987 0.0
Co501 Co 0.90306 0.16358 0.94501 0.0
C502 C 0.90465 0.19453 0.92494 0.0
O503 O 0.91233 0.18853 0.91244 0.0
N504 N 0.88416 0.15831 0.93361 0.0
C505 C 0.86671 0.15492 0.9135 0.0
C506 C 0.88022 0.16305 0.91849 0.0
C507 C 0.87269 0.14738 0.93763 0.0
N508 N 0.862 0.14512 0.92554 0.0
O509 O 0.8902 0.16959 0.96312 0.0
H510 H 0.8873 0.17097 0.91098 0.0
H511 H 0.87283 0.14036 0.94865 0.0
O512 O 0.90105 0.18566 0.93702 0.0
C513 C 0.89005 0.15842 0.97366 0.0
O514 O 0.89856 0.14529 0.97088 0.0
N515 N 0.91599 0.15588 0.92768 0.0
C516 C 0.93589 0.13935 0.90596 0.0
C517 C 0.94021 0.15472 0.91168 0.0
C518 C 0.93019 0.1627 0.92271 0.0
C519 C 0.91205 0.14065 0.92262 0.0
C520 C 0.92157 0.13238 0.91148 0.0
H521 H 0.93411 0.17416 0.92755 0.0
H522 H 0.90178 0.13443 0.92771 0.0
H523 H 0.92287 0.19506 0.95592 0.0
H524 H 0.9582 0.16137 0.96955 0.0
H525 H 0.86123 0.15547 0.90164 0.0
H526 H 0.95136 0.16042 0.90788 0.0
H527 H 0.91812 0.12028 0.90783 0.0
C528 C 0.20528 0.40717 0.18565 0.0
C529 C 0.21127 0.41517 0.19891 0.0
N530 N 0.21388 0.43074 0.19485 0.0
N531 N 0.20383 0.41763 0.17327 0.0
C532 C 0.20996 0.43166 0.179 0.0
H533 H 0.20134 0.39471 0.18533 0.0
Co534 Co 0.19342 0.41266 0.1537 0.0
C535 C 0.18001 0.44757 0.15839 0.0
O536 O 0.18161 0.44979 0.17402 0.0
N537 N 0.18319 0.40763 0.13428 0.0
C538 C 0.16417 0.40549 0.11552 0.0
C539 C 0.16869 0.4133 0.12941 0.0
C540 C 0.18732 0.39647 0.12308 0.0
N541 N 0.17585 0.39487 0.1116 0.0
O542 O 0.2119 0.41949 0.1419 0.0
H543 H 0.16142 0.42196 0.13597 0.0
H544 H 0.19799 0.38895 0.12391 0.0
O545 O 0.1843 0.43431 0.15176 0.0
C546 C 0.2233 0.40922 0.14266 0.0
O547 O 0.22145 0.39642 0.15186 0.0
N548 N 0.17551 0.40444 0.16514 0.0
C549 C 0.15263 0.3879 0.18349 0.0
C550 C 0.1558 0.40427 0.18639 0.0
C551 C 0.16727 0.41235 0.17703 0.0
C552 C 0.17246 0.38848 0.16216 0.0
C553 C 0.16083 0.38004 0.17101 0.0
H554 H 0.17014 0.42457 0.18011 0.0
H555 H 0.17952 0.38204 0.15326 0.0
H556 H 0.21061 0.44264 0.17195 0.0
H557 H 0.21281 0.41004 0.21083 0.0
H558 H 0.15288 0.40704 0.10911 0.0
H559 H 0.1498 0.41064 0.19614 0.0
H560 H 0.15889 0.36731 0.16867 0.0
C561 C 0.21116 0.58738 0.31853 0.0
C562 C 0.21482 0.57908 0.30456 0.0
N563 N 0.21345 0.56309 0.30748 0.0
N564 N 0.2074 0.57672 0.33025 0.0
C565 C 0.20915 0.56206 0.32324 0.0
H566 H 0.21055 0.60037 0.31989 0.0
Co567 Co 0.19933 0.58184 0.35085 0.0
C568 C 0.1751 0.55412 0.35099 0.0
O569 O 0.16211 0.56305 0.34928 0.0
N570 N 0.19159 0.58685 0.37174 0.0
C571 C 0.17967 0.58622 0.39586 0.0
C572 C 0.18131 0.5785 0.38133 0.0
C573 C 0.19621 0.59955 0.381 0.0
N574 N 0.18901 0.59948 0.39565 0.0
O575 O 0.21791 0.57271 0.36066 0.0
H576 H 0.17527 0.56742 0.3784 0.0
H577 H 0.20467 0.6087 0.37703 0.0
O578 O 0.18904 0.56062 0.35199 0.0
C579 C 0.23082 0.58088 0.35915 0.0
O580 O 0.23069 0.59383 0.34998 0.0
N581 N 0.18149 0.5922 0.34114 0.0
C582 C 0.15836 0.61088 0.32545 0.0
C583 C 0.16119 0.5949 0.32067 0.0
C584 C 0.17316 0.5859 0.32836 0.0
C585 C 0.17923 0.60799 0.34545 0.0
C586 C 0.16762 0.61754 0.33784 0.0
H587 H 0.17591 0.57395 0.32386 0.0
H588 H 0.18693 0.61359 0.3543 0.0
H589 H 0.20694 0.55083 0.32951 0.0
H590 H 0.21753 0.58451 0.29298 0.0
H591 H 0.17181 0.58261 0.40567 0.0
H592 H 0.15467 0.58965 0.31061 0.0
H593 H 0.16614 0.63007 0.34134 0.0
C594 C 0.84094 0.53095 0.9314 0.0
C595 C 0.8321 0.52665 0.94484 0.0
N596 N 0.81637 0.5293 0.94166 0.0
N597 N 0.83084 0.53658 0.91993 0.0
C598 C 0.81591 0.53508 0.92642 0.0
H599 H 0.85397 0.53095 0.93041 0.0
Co600 Co 0.83708 0.54698 0.90073 0.0
C601 C 0.81042 0.57228 0.90323 0.0
O602 O 0.81919 0.5834 0.91033 0.0
N603 N 0.84283 0.55731 0.88128 0.0
C604 C 0.84545 0.576 0.86217 0.0
C605 C 0.84034 0.57303 0.87759 0.0
C606 C 0.84981 0.55103 0.86787 0.0
N607 N 0.85137 0.56218 0.85603 0.0
O608 O 0.82747 0.53006 0.88837 0.0
H609 H 0.83569 0.58207 0.88569 0.0
H610 H 0.85362 0.53857 0.86679 0.0
O611 O 0.81647 0.5585 0.89979 0.0
C612 C 0.83462 0.51647 0.8891 0.0
O613 O 0.84713 0.51487 0.89872 0.0
N614 N 0.84798 0.56311 0.91295 0.0
C615 C 0.8654 0.58689 0.92905 0.0
C616 C 0.85098 0.58098 0.93558 0.0
C617 C 0.84252 0.56892 0.92742 0.0
C618 C 0.86296 0.56755 0.90751 0.0
C619 C 0.87164 0.57987 0.91507 0.0
H620 H 0.83116 0.56487 0.9324 0.0
H621 H 0.86818 0.5618 0.897 0.0
H622 H 0.80497 0.53921 0.92058 0.0
H623 H 0.83689 0.52252 0.95628 0.0
H624 H 0.84541 0.58761 0.85613 0.0
H625 H 0.84598 0.58608 0.94656 0.0
H626 H 0.883 0.58393 0.91 0.0
C627 C 0.78937 0.9112 0.31509 0.0
C628 C 0.78492 0.91929 0.30133 0.0
N629 N 0.78286 0.93497 0.30505 0.0
N630 N 0.7906 0.92175 0.32751 0.0
C631 C 0.78578 0.93604 0.32108 0.0
H632 H 0.79178 0.89842 0.31573 0.0
Co633 Co 0.79823 0.91704 0.34861 0.0
C634 C 0.81497 0.94882 0.34185 0.0
O635 O 0.81836 0.94557 0.32667 0.0
N636 N 0.80553 0.91222 0.36925 0.0
C637 C 0.8184 0.91232 0.39281 0.0
C638 C 0.81455 0.9213 0.37942 0.0
C639 C 0.80416 0.89777 0.37667 0.0
N640 N 0.81177 0.89763 0.39104 0.0
O641 O 0.77879 0.92507 0.35765 0.0
H642 H 0.81884 0.93338 0.37707 0.0
H643 H 0.79828 0.88738 0.37134 0.0
O644 O 0.80757 0.93845 0.35051 0.0
C645 C 0.76697 0.91538 0.35629 0.0
O646 O 0.76884 0.90221 0.34759 0.0
N647 N 0.81709 0.90766 0.34036 0.0
C648 C 0.8418 0.88936 0.32683 0.0
C649 C 0.84485 0.90502 0.33258 0.0
C650 C 0.83234 0.9139 0.33966 0.0
C651 C 0.81451 0.89184 0.33662 0.0
C652 C 0.82659 0.88254 0.32953 0.0
H653 H 0.83511 0.92561 0.34457 0.0
H654 H 0.80274 0.88656 0.33873 0.0
H655 H 0.78529 0.94725 0.3278 0.0
H656 H 0.7837 0.91409 0.28938 0.0
H657 H 0.82622 0.91595 0.40265 0.0
H658 H 0.8566 0.91058 0.33108 0.0
H659 H 0.82392 0.87028 0.32577 0.0
C660 C 0.66874 0.46798 0.43217 0.0
C661 C 0.67959 0.47376 0.44328 0.0
N662 N 0.69361 0.46566 0.44156 0.0
N663 N 0.67575 0.45627 0.42322 0.0
C664 C 0.69089 0.45515 0.4293 0.0
H665 H 0.65616 0.4712 0.43188 0.0
Co666 Co 0.66651 0.44175 0.40817 0.0
C667 C 0.694 0.42813 0.39779 0.0
O668 O 0.68872 0.41726 0.4081 0.0
N669 N 0.65787 0.42693 0.39357 0.0
C670 C 0.64652 0.4045 0.38422 0.0
C671 C 0.65398 0.41155 0.39728 0.0
C672 C 0.65297 0.4289 0.37816 0.0
N673 N 0.64582 0.41549 0.37223 0.0
O674 O 0.6597 0.45972 0.39454 0.0
H675 H 0.65594 0.40603 0.40896 0.0
H676 H 0.65391 0.44015 0.37165 0.0
O677 O 0.68626 0.44131 0.39631 0.0
C678 C 0.64996 0.47164 0.3953 0.0
O679 O 0.6407 0.47371 0.40799 0.0
N680 N 0.64707 0.44086 0.41997 0.0
C681 C 0.62183 0.42494 0.43529 0.0
C682 C 0.6364 0.42768 0.44338 0.0
C683 C 0.64902 0.43531 0.43534 0.0
C684 C 0.63227 0.44 0.41262 0.0
C685 C 0.6195 0.43175 0.42002 0.0
H686 H 0.66088 0.4351 0.44078 0.0
H687 H 0.63086 0.44376 0.4002 0.0
H688 H 0.69953 0.44629 0.4252 0.0
H689 H 0.67686 0.48251 0.4526 0.0
H690 H 0.64177 0.39233 0.38371 0.0
H691 H 0.6387 0.42214 0.45502 0.0
H692 H 0.60852 0.42944 0.4133 0.0
C693 C 0.2814 0.58782 0.68043 0.0
C694 C 0.27669 0.57932 0.69394 0.0
N695 N 0.28023 0.56356 0.69166 0.0
N696 N 0.28792 0.57753 0.66962 0.0
C697 C 0.2868 0.56283 0.67669 0.0
H698 H 0.28074 0.60078 0.67883 0.0
Co699 Co 0.29819 0.58353 0.65025 0.0
C700 C 0.3221 0.55568 0.65192 0.0
O701 O 0.33408 0.5643 0.65771 0.0
N702 N 0.30809 0.58933 0.63058 0.0
C703 C 0.32525 0.5921 0.61008 0.0
C704 C 0.322 0.5838 0.624 0.0
C705 C 0.30309 0.601 0.62026 0.0
N706 N 0.31336 0.60284 0.60774 0.0
O707 O 0.28057 0.57506 0.6382 0.0
H708 H 0.32996 0.57497 0.62919 0.0
H709 H 0.29273 0.60867 0.62246 0.0
O710 O 0.30852 0.56234 0.64887 0.0
C711 C 0.26806 0.58397 0.63842 0.0
O712 O 0.26816 0.59714 0.6473 0.0
N713 N 0.31515 0.59338 0.66223 0.0
C714 C 0.33738 0.61115 0.68026 0.0
C715 C 0.33199 0.59607 0.6857 0.0
C716 C 0.32077 0.58743 0.67658 0.0
C717 C 0.31977 0.60848 0.65731 0.0
C718 C 0.33122 0.61736 0.66588 0.0
H719 H 0.31672 0.57588 0.68107 0.0
H720 H 0.31427 0.6141 0.64696 0.0
H721 H 0.29157 0.55191 0.67136 0.0
H722 H 0.27141 0.58449 0.70473 0.0
H723 H 0.33607 0.5911 0.60279 0.0
H724 H 0.33641 0.591 0.69692 0.0
H725 H 0.33476 0.62922 0.66163 0.0
C726 C 0.84498 0.46032 0.56972 0.0
C727 C 0.83886 0.46558 0.55517 0.0
N728 N 0.82275 0.46711 0.55673 0.0
N729 N 0.8327 0.45818 0.58025 0.0
C730 C 0.81937 0.46282 0.57208 0.0
H731 H 0.85743 0.45718 0.5721 0.0
Co732 Co 0.83383 0.44733 0.60004 0.0
C733 C 0.79902 0.43249 0.5939 0.0
O734 O 0.79345 0.43131 0.57909 0.0
N735 N 0.83485 0.43626 0.61941 0.0
C736 C 0.83455 0.41599 0.63692 0.0
C737 C 0.82893 0.42135 0.62231 0.0
C738 C 0.84403 0.43976 0.63239 0.0
N739 N 0.84413 0.42754 0.64319 0.0
O740 O 0.82419 0.46518 0.61084 0.0
H741 H 0.82218 0.41418 0.61376 0.0
H742 H 0.85163 0.45038 0.63321 0.0
O743 O 0.81293 0.43843 0.59633 0.0
C744 C 0.83333 0.47749 0.61165 0.0
O745 O 0.84753 0.47703 0.60456 0.0
N746 N 0.84432 0.43023 0.58999 0.0
C747 C 0.86396 0.40748 0.57508 0.0
C748 C 0.84729 0.40781 0.57201 0.0
C749 C 0.83765 0.41945 0.57947 0.0
C750 C 0.86041 0.42981 0.59342 0.0
C751 C 0.87053 0.41858 0.58599 0.0
H752 H 0.82502 0.42006 0.57637 0.0
H753 H 0.86547 0.43863 0.60165 0.0
H754 H 0.80724 0.46191 0.57684 0.0
H755 H 0.84558 0.46733 0.54409 0.0
H756 H 0.8327 0.40408 0.642 0.0
H757 H 0.8419 0.39964 0.56332 0.0
H758 H 0.88337 0.41875 0.58849 0.0
C759 C 0.16997 0.03068 0.5757 0.0
C760 C 0.17945 0.02465 0.56342 0.0
N761 N 0.19158 0.03514 0.56065 0.0
N762 N 0.17608 0.04492 0.58082 0.0
C763 C 0.18921 0.04726 0.57134 0.0
H764 H 0.15909 0.02511 0.58014 0.0
Co765 Co 0.16855 0.05987 0.59639 0.0
C766 C 0.19879 0.06895 0.60385 0.0
O767 O 0.19491 0.0798 0.59293 0.0
N768 N 0.16185 0.07506 0.61159 0.0
C769 C 0.15411 0.099 0.62084 0.0
C770 C 0.16177 0.09103 0.60845 0.0
C771 C 0.15459 0.07359 0.62616 0.0
N772 N 0.14942 0.08799 0.63188 0.0
O773 O 0.16048 0.04212 0.6096 0.0
H774 H 0.16618 0.09642 0.5974 0.0
H775 H 0.15188 0.06211 0.63179 0.0
O776 O 0.18856 0.05812 0.60756 0.0
C777 C 0.14831 0.03267 0.61013 0.0
O778 O 0.13694 0.03334 0.59914 0.0
N779 N 0.14885 0.06288 0.58495 0.0
C780 C 0.12353 0.07712 0.56786 0.0
C781 C 0.13796 0.07295 0.56008 0.0
C782 C 0.15057 0.06623 0.56891 0.0
C783 C 0.13439 0.06593 0.59247 0.0
C784 C 0.12161 0.07321 0.58416 0.0
H785 H 0.16215 0.06503 0.56306 0.0
H786 H 0.13289 0.06371 0.60522 0.0
H787 H 0.1968 0.05782 0.5721 0.0
H788 H 0.17725 0.01363 0.55673 0.0
H789 H 0.1516 0.11183 0.62136 0.0
H790 H 0.14009 0.07635 0.54761 0.0
H791 H 0.11074 0.07658 0.59062 0.0
C792 C 0.67137 0.72807 0.92183 0.0
C793 C 0.68275 0.73196 0.93326 0.0
N794 N 0.68555 0.7188 0.94239 0.0
N795 N 0.66682 0.71256 0.92381 0.0
C796 C 0.67577 0.70716 0.93638 0.0
H797 H 0.66703 0.73597 0.91241 0.0
Co798 Co 0.65254 0.70172 0.91026 0.0
C799 C 0.63757 0.67524 0.92971 0.0
O800 O 0.63516 0.6662 0.91689 0.0
N801 N 0.63809 0.69111 0.89604 0.0
C802 C 0.62767 0.6758 0.87651 0.0
C803 C 0.64161 0.68171 0.88309 0.0
C804 C 0.62171 0.69097 0.89672 0.0
N805 N 0.61523 0.68163 0.88509 0.0
O806 O 0.636 0.71686 0.91549 0.0
H807 H 0.65345 0.67888 0.87857 0.0
H808 H 0.61469 0.6969 0.906 0.0
O809 O 0.64502 0.68873 0.92847 0.0
C810 C 0.63361 0.72852 0.90584 0.0
O811 O 0.6428 0.73006 0.89299 0.0
N812 N 0.66914 0.68746 0.90463 0.0
C813 C 0.68875 0.66574 0.88836 0.0
C814 C 0.68162 0.66148 0.90311 0.0
C815 C 0.67208 0.67267 0.91127 0.0
C816 C 0.67775 0.69255 0.89152 0.0
C817 C 0.68758 0.68175 0.88302 0.0
H818 H 0.66679 0.66909 0.92257 0.0
H819 H 0.67569 0.70454 0.88675 0.0
H820 H 0.67524 0.69491 0.94092 0.0
H821 H 0.68889 0.74345 0.9344 0.0
H822 H 0.62669 0.66784 0.86616 0.0
H823 H 0.68312 0.64947 0.9081 0.0
H824 H 0.69332 0.68559 0.8719 0.0
C825 C 0.95728 0.0655 0.33883 0.0
C826 C 0.96197 0.05197 0.33045 0.0
N827 N 0.96422 0.05605 0.31488 0.0
N828 N 0.95618 0.07816 0.32862 0.0
C829 C 0.96133 0.07214 0.31423 0.0
H830 H 0.95435 0.06579 0.35153 0.0
Co831 Co 0.94769 0.09889 0.3339 0.0
C832 C 0.93053 0.09088 0.3026 0.0
O833 O 0.92932 0.07527 0.3052 0.0
N834 N 0.93935 0.11911 0.3392 0.0
C835 C 0.92177 0.13914 0.34238 0.0
C836 C 0.92486 0.12493 0.33447 0.0
C837 C 0.94489 0.13004 0.35002 0.0
N838 N 0.93437 0.14235 0.35208 0.0
O839 O 0.96592 0.1091 0.32434 0.0
H840 H 0.91653 0.11876 0.32657 0.0
H841 H 0.95589 0.12853 0.35691 0.0
O842 O 0.93679 0.10024 0.31313 0.0
C843 C 0.97937 0.10667 0.33128 0.0
O844 O 0.98008 0.09662 0.34354 0.0
N845 N 0.93024 0.0895 0.34475 0.0
C846 C 0.9077 0.07581 0.36566 0.0
C847 C 0.90388 0.07856 0.34935 0.0
C848 C 0.91525 0.08563 0.33912 0.0
C849 C 0.93369 0.08805 0.36078 0.0
C850 C 0.92269 0.08105 0.37144 0.0
H851 H 0.91176 0.08804 0.32687 0.0
H852 H 0.94535 0.09197 0.36521 0.0
H853 H 0.9617 0.07912 0.30319 0.0
H854 H 0.96301 0.03988 0.33534 0.0
H855 H 0.91079 0.14621 0.34169 0.0
H856 H 0.8924 0.07479 0.34434 0.0
H857 H 0.92602 0.07948 0.38399 0.0
C858 C 0.31641 0.78758 0.90913 0.0
C859 C 0.30262 0.78399 0.91771 0.0
N860 N 0.30566 0.78626 0.93355 0.0
N861 N 0.32811 0.79211 0.91949 0.0
C862 C 0.32125 0.79109 0.93427 0.0
H863 H 0.31779 0.78718 0.89613 0.0
Co864 Co 0.34888 0.79869 0.91375 0.0
C865 C 0.3559 0.8249 0.93689 0.0
O866 O 0.36002 0.83437 0.92481 0.0
N867 N 0.37026 0.80468 0.90817 0.0
C868 C 0.39666 0.80884 0.91136 0.0
C869 C 0.38227 0.80648 0.9191 0.0
C870 C 0.37804 0.80506 0.89376 0.0
N871 N 0.39408 0.80785 0.89535 0.0
O872 O 0.35786 0.78029 0.92395 0.0
H873 H 0.38093 0.8054 0.93204 0.0
H874 H 0.37238 0.80233 0.88238 0.0
O875 O 0.35087 0.81058 0.93404 0.0
C876 C 0.35662 0.76704 0.91631 0.0
O877 O 0.34744 0.76647 0.90339 0.0
N878 N 0.33974 0.81651 0.90279 0.0
C879 C 0.32438 0.84063 0.88495 0.0
C880 C 0.32235 0.83968 0.90173 0.0
C881 C 0.32974 0.82727 0.91035 0.0
C882 C 0.34098 0.81667 0.88635 0.0
C883 C 0.33362 0.82879 0.87718 0.0
H884 H 0.32703 0.82609 0.92306 0.0
H885 H 0.34689 0.80687 0.88016 0.0
H886 H 0.32759 0.79379 0.94537 0.0
H887 H 0.29113 0.78038 0.91262 0.0
H888 H 0.40814 0.81091 0.91722 0.0
H889 H 0.31446 0.848 0.90806 0.0
H890 H 0.33479 0.82865 0.86415 0.0
C891 C 0.02801 0.43071 0.33822 0.0
C892 C 0.02121 0.44391 0.33061 0.0
N893 N 0.02356 0.44236 0.31455 0.0
N894 N 0.03484 0.42105 0.32701 0.0
C895 C 0.03151 0.42825 0.31273 0.0
H896 H 0.02904 0.42894 0.35112 0.0
Co897 Co 0.0496 0.40419 0.33025 0.0
C898 C 0.06921 0.40872 0.29888 0.0
O899 O 0.07546 0.42083 0.29075 0.0
N900 N 0.06462 0.38751 0.33329 0.0
C901 C 0.08814 0.37535 0.33751 0.0
C902 C 0.08076 0.38892 0.33158 0.0
C903 C 0.0625 0.37299 0.34048 0.0
N904 N 0.07666 0.36532 0.34325 0.0
O905 O 0.03643 0.39033 0.31741 0.0
H906 H 0.08689 0.39969 0.32744 0.0
H907 H 0.05091 0.36856 0.34445 0.0
O908 O 0.06141 0.41184 0.31173 0.0
C909 C 0.02639 0.38421 0.32733 0.0
O910 O 0.02709 0.38855 0.34259 0.0
N911 N 0.06177 0.41734 0.34396 0.0
C912 C 0.08224 0.43338 0.36507 0.0
C913 C 0.07876 0.43993 0.34984 0.0
C914 C 0.06849 0.43166 0.33938 0.0
C915 C 0.06398 0.41151 0.35922 0.0
C916 C 0.07454 0.41916 0.36989 0.0
H917 H 0.0662 0.4366 0.32751 0.0
H918 H 0.05811 0.40041 0.36285 0.0
H919 H 0.03605 0.42395 0.30125 0.0
H920 H 0.01576 0.45424 0.3365 0.0
H921 H 0.10104 0.37365 0.33867 0.0
H922 H 0.08455 0.45095 0.34578 0.0
H923 H 0.07692 0.41386 0.38162 0.0
C924 C 0.68219 0.28927 0.5844 0.0
C925 C 0.6957 0.28335 0.57678 0.0
N926 N 0.69213 0.28096 0.56109 0.0
N927 N 0.67024 0.29113 0.57348 0.0
C928 C 0.67647 0.28525 0.55953 0.0
H929 H 0.68155 0.29332 0.59681 0.0
Co930 Co 0.65145 0.3031 0.57772 0.0
C931 C 0.6567 0.31541 0.54214 0.0
O932 O 0.67228 0.31378 0.53958 0.0
N933 N 0.63281 0.31518 0.58212 0.0
C934 C 0.61674 0.33661 0.58396 0.0
C935 C 0.63 0.33021 0.57639 0.0
C936 C 0.62107 0.31275 0.59323 0.0
N937 N 0.6112 0.32566 0.5946 0.0
O938 O 0.63853 0.2853 0.57118 0.0
H939 H 0.6377 0.33657 0.56797 0.0
H940 H 0.62047 0.30233 0.60107 0.0
O941 O 0.65052 0.31151 0.55574 0.0
C942 C 0.63551 0.27644 0.58335 0.0
O943 O 0.64213 0.2801 0.59731 0.0
N944 N 0.66394 0.32016 0.58571 0.0
C945 C 0.68295 0.3419 0.6029 0.0
C946 C 0.68564 0.33929 0.58635 0.0
C947 C 0.67591 0.32835 0.57791 0.0
C948 C 0.66123 0.32263 0.60179 0.0
C949 C 0.67039 0.33366 0.61056 0.0
H950 H 0.67856 0.32594 0.56544 0.0
H951 H 0.65218 0.31555 0.60801 0.0
H952 H 0.67009 0.28524 0.54815 0.0
H953 H 0.7076 0.28212 0.58205 0.0
H954 H 0.61196 0.34868 0.58229 0.0
H955 H 0.6954 0.34537 0.5801 0.0
H956 H 0.66819 0.33512 0.62338 0.0
C957 C 0.53101 0.06967 0.65847 0.0
C958 C 0.52626 0.05607 0.66684 0.0
N959 N 0.52937 0.05838 0.68267 0.0
N960 N 0.53719 0.08052 0.66893 0.0
C961 C 0.53573 0.0734 0.68359 0.0
H962 H 0.53075 0.07124 0.6455 0.0
Co963 Co 0.54805 0.09977 0.66351 0.0
C964 C 0.5709 0.09517 0.69257 0.0
O965 O 0.58233 0.08651 0.68583 0.0
N966 N 0.55895 0.11903 0.65863 0.0
C967 C 0.57842 0.13741 0.65727 0.0
C968 C 0.57419 0.12261 0.66321 0.0
C969 C 0.55425 0.13183 0.64962 0.0
N970 N 0.56593 0.14323 0.64868 0.0
O971 O 0.53112 0.11216 0.6729 0.0
H972 H 0.58215 0.1147 0.6698 0.0
H973 H 0.54267 0.13261 0.64361 0.0
O974 O 0.55871 0.09994 0.68445 0.0
C975 C 0.51805 0.11204 0.66486 0.0
O976 O 0.51712 0.10316 0.65174 0.0
N977 N 0.56416 0.08772 0.65272 0.0
C978 C 0.58596 0.07081 0.63355 0.0
C979 C 0.58137 0.06478 0.64866 0.0
C980 C 0.57016 0.07327 0.65795 0.0
C981 C 0.56778 0.09307 0.63749 0.0
C982 C 0.57893 0.08496 0.6278 0.0
H983 H 0.56619 0.0681 0.66924 0.0
H984 H 0.56182 0.10359 0.63259 0.0
H985 H 0.54016 0.07872 0.69466 0.0
H986 H 0.52134 0.04517 0.66156 0.0
H987 H 0.59015 0.14308 0.65841 0.0
H988 H 0.58626 0.0535 0.65313 0.0
H989 H 0.58186 0.08957 0.6159 0.0
C990 C 0.31513 0.21381 0.58874 0.0
C991 C 0.30249 0.22046 0.58025 0.0
N992 N 0.30703 0.22224 0.56469 0.0
N993 N 0.32758 0.21111 0.57859 0.0
C994 C 0.32254 0.21702 0.56422 0.0
H995 H 0.31489 0.21023 0.6013 0.0
Co996 Co 0.3464 0.19947 0.58371 0.0
C997 C 0.33867 0.18379 0.55045 0.0
O998 O 0.32315 0.18659 0.54878 0.0
N999 N 0.36506 0.18789 0.58873 0.0
C1000 C 0.38211 0.16738 0.59142 0.0
C1001 C 0.36854 0.17277 0.58365 0.0
C1002 C 0.37675 0.19149 0.59953 0.0
N1003 N 0.38719 0.1791 0.60148 0.0
O1004 O 0.35951 0.2159 0.57453 0.0
H1005 H 0.3612 0.16567 0.57552 0.0
H1006 H 0.37693 0.20249 0.60661 0.0
O1007 O 0.34626 0.18847 0.56301 0.0
C1008 C 0.36047 0.22871 0.58293 0.0
O1009 O 0.3515 0.23013 0.59595 0.0
N1010 N 0.33404 0.1835 0.5941 0.0
C1011 C 0.31779 0.16082 0.61285 0.0
C1012 C 0.31365 0.16313 0.59661 0.0
C1013 C 0.32197 0.17453 0.58739 0.0
C1014 C 0.3377 0.18184 0.61011 0.0
C1015 C 0.32997 0.1703 0.61964 0.0
H1016 H 0.3184 0.17632 0.5751 0.0
H1017 H 0.34676 0.18952 0.61553 0.0
H1018 H 0.32988 0.21675 0.55341 0.0
H1019 H 0.29051 0.22268 0.58499 0.0
H1020 H 0.38745 0.15549 0.59027 0.0
H1021 H 0.30411 0.15609 0.59107 0.0
H1022 H 0.33325 0.169 0.63224 0.0
C1023 C 0.47144 0.42617 0.66572 0.0
C1024 C 0.47669 0.43864 0.67548 0.0
N1025 N 0.46877 0.43769 0.68966 0.0
N1026 N 0.46032 0.41736 0.67374 0.0
C1027 C 0.45912 0.42461 0.68838 0.0
H1028 H 0.47506 0.42401 0.65335 0.0
Co1029 Co 0.44852 0.39985 0.66531 0.0
C1030 C 0.42196 0.40352 0.69079 0.0
O1031 O 0.4121 0.41274 0.6825 0.0
N1032 N 0.43673 0.38206 0.65725 0.0
C1033 C 0.41602 0.36662 0.64991 0.0
C1034 C 0.42057 0.38001 0.65845 0.0
C1035 C 0.44174 0.36956 0.64792 0.0
N1036 N 0.4293 0.36009 0.64324 0.0
O1037 O 0.4632 0.38532 0.67532 0.0
H1038 H 0.41233 0.38822 0.66426 0.0
H1039 H 0.45404 0.36794 0.64384 0.0
O1040 O 0.43532 0.3988 0.68473 0.0
C1041 C 0.47532 0.38325 0.66616 0.0
O1042 O 0.4759 0.39089 0.65227 0.0
N1043 N 0.43485 0.41434 0.654 0.0
C1044 C 0.4146 0.43347 0.63519 0.0
C1045 C 0.4192 0.43851 0.65068 0.0
C1046 C 0.42954 0.42885 0.65984 0.0
C1047 C 0.43193 0.41035 0.63822 0.0
C1048 C 0.42136 0.41942 0.62879 0.0
H1049 H 0.43271 0.43281 0.67184 0.0
H1050 H 0.43757 0.39986 0.63288 0.0
H1051 H 0.45096 0.42077 0.69782 0.0
H1052 H 0.48504 0.44812 0.67212 0.0
H1053 H 0.40379 0.3623 0.64825 0.0
H1054 H 0.4144 0.44953 0.65589 0.0
H1055 H 0.41852 0.41551 0.61663 0.0
C1056 C 0.90994 0.67882 0.72032 0.0
C1057 C 0.91919 0.69173 0.72532 0.0
N1058 N 0.93453 0.68929 0.7204 0.0
N1059 N 0.91936 0.66821 0.7123 0.0
C1060 C 0.93432 0.67482 0.71276 0.0
H1061 H 0.897 0.67764 0.72167 0.0
Co1062 Co 0.91189 0.65009 0.70075 0.0
C1063 C 0.93842 0.65311 0.67513 0.0
O1064 O 0.93002 0.66102 0.66426 0.0
N1065 N 0.90477 0.63181 0.68919 0.0
C1066 C 0.90043 0.6142 0.66935 0.0
C1067 C 0.90726 0.62871 0.67334 0.0
C1068 C 0.896 0.61906 0.6945 0.0
N1069 N 0.89336 0.60814 0.68263 0.0
O1070 O 0.92142 0.63591 0.7162 0.0
H1071 H 0.91305 0.63666 0.66488 0.0
H1072 H 0.89157 0.61785 0.70674 0.0
O1073 O 0.93205 0.64914 0.68861 0.0
C1074 C 0.91487 0.63558 0.73009 0.0
O1075 O 0.90315 0.64576 0.73335 0.0
N1076 N 0.9011 0.66389 0.68614 0.0
C1077 C 0.8827 0.68252 0.66511 0.0
C1078 C 0.89811 0.68766 0.66987 0.0
C1079 C 0.90708 0.67823 0.68057 0.0
C1080 C 0.88547 0.65969 0.68284 0.0
C1081 C 0.87623 0.66854 0.67193 0.0
H1082 H 0.91901 0.68224 0.68397 0.0
H1083 H 0.88008 0.64925 0.68853 0.0
H1084 H 0.94477 0.66945 0.70706 0.0
H1085 H 0.91475 0.70249 0.73127 0.0
H1086 H 0.90009 0.6088 0.65743 0.0
H1087 H 0.90338 0.69857 0.66493 0.0
H1088 H 0.86417 0.66451 0.66885 0.0
C1089 C 0.92898 0.83807 0.53245 0.0
C1090 C 0.94276 0.82984 0.52802 0.0
N1091 N 0.94015 0.81394 0.53029 0.0
N1092 N 0.91789 0.82742 0.53786 0.0
C1093 C 0.92494 0.81276 0.53604 0.0
H1094 H 0.92751 0.85106 0.53278 0.0
Co1095 Co 0.89862 0.8328 0.54856 0.0
C1096 C 0.90272 0.8046 0.57231 0.0
O1097 O 0.9096 0.81224 0.58438 0.0
N1098 N 0.87917 0.83795 0.55905 0.0
C1099 C 0.85897 0.8393 0.57672 0.0
C1100 C 0.87373 0.83254 0.57347 0.0
C1101 C 0.86754 0.84821 0.55389 0.0
N1102 N 0.85512 0.84918 0.56444 0.0
O1103 O 0.88657 0.82298 0.5318 0.0
H1104 H 0.88016 0.82463 0.58154 0.0
H1105 H 0.86832 0.85508 0.54279 0.0
O1106 O 0.89866 0.81209 0.55949 0.0
C1107 C 0.88567 0.83179 0.51931 0.0
O1108 O 0.89305 0.84583 0.51915 0.0
N1109 N 0.91051 0.8438 0.56459 0.0
C1110 C 0.92878 0.86371 0.58454 0.0
C1111 C 0.93405 0.84807 0.58089 0.0
C1112 C 0.92486 0.83838 0.57065 0.0
C1113 C 0.90562 0.85931 0.56763 0.0
C1114 C 0.91445 0.86941 0.57782 0.0
H1115 H 0.92954 0.82667 0.56726 0.0
H1116 H 0.8951 0.8642 0.5617 0.0
H1117 H 0.91954 0.80151 0.53992 0.0
H1118 H 0.95406 0.83514 0.52411 0.0
H1119 H 0.85195 0.8377 0.58765 0.0
H1120 H 0.94537 0.84354 0.58563 0.0
H1121 H 0.91036 0.88164 0.5801 0.0
C1122 C 0.08731 0.81504 0.71189 0.0
C1123 C 0.07884 0.80179 0.71716 0.0
N1124 N 0.06329 0.80607 0.71907 0.0
N1125 N 0.0771 0.82762 0.70995 0.0
C1126 C 0.06266 0.82193 0.7152 0.0
H1127 H 0.09997 0.81511 0.70877 0.0
Co1128 Co 0.0825 0.84717 0.69938 0.0
C1129 C 0.04944 0.84046 0.6839 0.0
O1130 O 0.0497 0.82457 0.68386 0.0
N1131 N 0.08788 0.86627 0.68879 0.0
C1132 C 0.09023 0.88428 0.66903 0.0
C1133 C 0.08253 0.87051 0.67394 0.0
C1134 C 0.09883 0.87774 0.6927 0.0
N1135 N 0.10039 0.8888 0.68081 0.0
O1136 O 0.07422 0.85945 0.71696 0.0
H1137 H 0.07407 0.86367 0.66673 0.0
H1138 H 0.10595 0.87762 0.70366 0.0
O1139 O 0.06141 0.84845 0.68936 0.0
C1140 C 0.0818 0.85869 0.73028 0.0
O1141 O 0.09381 0.84843 0.73179 0.0
N1142 N 0.09205 0.83574 0.68231 0.0
C1143 C 0.11134 0.82153 0.65876 0.0
C1144 C 0.09469 0.82319 0.65636 0.0
C1145 C 0.08522 0.83041 0.66828 0.0
C1146 C 0.10833 0.83462 0.68456 0.0
C1147 C 0.11822 0.82729 0.67304 0.0
H1148 H 0.07264 0.83204 0.66577 0.0
H1149 H 0.11364 0.83945 0.69549 0.0
H1150 H 0.05158 0.82885 0.7149 0.0
H1151 H 0.08353 0.78964 0.71844 0.0
H1152 H 0.08886 0.8903 0.6575 0.0
H1153 H 0.08904 0.8188 0.6454 0.0
H1154 H 0.13108 0.82622 0.6752 0.0
C1155 C 0.0679 0.66099 0.53342 0.0
C1156 C 0.05461 0.66994 0.52894 0.0
N1157 N 0.05758 0.68564 0.53219 0.0
N1158 N 0.07924 0.67093 0.53954 0.0
C1159 C 0.07272 0.68589 0.53838 0.0
H1160 H 0.06894 0.64796 0.53299 0.0
Co1161 Co 0.09859 0.66426 0.54941 0.0
C1162 C 0.09826 0.6914 0.57409 0.0
O1163 O 0.09245 0.68249 0.58584 0.0
N1164 N 0.11828 0.65779 0.55888 0.0
C1165 C 0.13957 0.65528 0.57508 0.0
C1166 C 0.12487 0.66253 0.57307 0.0
C1167 C 0.12922 0.64732 0.55264 0.0
N1168 N 0.1423 0.64573 0.56226 0.0
O1169 O 0.11056 0.67268 0.53164 0.0
H1170 H 0.11942 0.67036 0.58185 0.0
H1171 H 0.12758 0.64091 0.54136 0.0
O1172 O 0.10069 0.68527 0.56012 0.0
C1173 C 0.10977 0.66405 0.51895 0.0
O1174 O 0.10046 0.65119 0.51901 0.0
N1175 N 0.08661 0.65452 0.56644 0.0
C1176 C 0.06821 0.63711 0.58866 0.0
C1177 C 0.06312 0.65232 0.58333 0.0
C1178 C 0.07241 0.66078 0.57214 0.0
C1179 C 0.09129 0.63935 0.57109 0.0
C1180 C 0.08251 0.63062 0.58253 0.0
H1181 H 0.06821 0.67248 0.56822 0.0
H1182 H 0.10166 0.63362 0.56564 0.0
H1183 H 0.07875 0.69672 0.54248 0.0
H1184 H 0.04334 0.66511 0.52443 0.0
H1185 H 0.1474 0.65641 0.58549 0.0
H1186 H 0.05201 0.65763 0.58779 0.0
H1187 H 0.08652 0.61868 0.58611 0.0
C1188 C 0.91026 0.31313 0.78572 0.0
C1189 C 0.91941 0.30084 0.77923 0.0
N1190 N 0.93465 0.30624 0.77716 0.0
N1191 N 0.91968 0.32621 0.78802 0.0
C1192 C 0.93426 0.32186 0.78203 0.0
H1193 H 0.89773 0.3123 0.78935 0.0
Co1194 Co 0.91371 0.34541 0.79871 0.0
C1195 C 0.94668 0.33877 0.81523 0.0
O1196 O 0.94851 0.32322 0.81261 0.0
N1197 N 0.90797 0.36452 0.8093 0.0
C1198 C 0.90616 0.3836 0.8281 0.0
C1199 C 0.91291 0.36899 0.82421 0.0
C1200 C 0.89796 0.3765 0.80449 0.0
N1201 N 0.89674 0.38829 0.81573 0.0
O1202 O 0.92301 0.35798 0.78193 0.0
H1203 H 0.92062 0.3619 0.832 0.0
H1204 H 0.89161 0.3765 0.79306 0.0
O1205 O 0.93417 0.34625 0.81023 0.0
C1206 C 0.91552 0.35745 0.76856 0.0
O1207 O 0.9033 0.34746 0.76693 0.0
N1208 N 0.90322 0.33354 0.81496 0.0
C1209 C 0.88472 0.31788 0.8382 0.0
C1210 C 0.90091 0.31363 0.83581 0.0
C1211 C 0.90999 0.32164 0.82411 0.0
C1212 C 0.88721 0.33723 0.81667 0.0
C1213 C 0.87778 0.32977 0.8285 0.0
H1214 H 0.92222 0.31794 0.82222 0.0
H1215 H 0.88172 0.34614 0.80887 0.0
H1216 H 0.94462 0.32982 0.78197 0.0
H1217 H 0.91536 0.28857 0.77726 0.0
H1218 H 0.90756 0.39001 0.83943 0.0
H1219 H 0.9065 0.30424 0.84302 0.0
H1220 H 0.86522 0.33313 0.82994 0.0
C1221 C 0.56416 0.8411 0.45752 0.0
C1222 C 0.54985 0.8335 0.46115 0.0
N1223 N 0.55296 0.81784 0.46432 0.0
N1224 N 0.57637 0.83029 0.45805 0.0
C1225 C 0.56918 0.81638 0.46289 0.0
H1226 H 0.56535 0.85371 0.45447 0.0
Co1227 Co 0.59832 0.83385 0.45239 0.0
C1228 C 0.5906 0.8029 0.43446 0.0
O1229 O 0.57573 0.80683 0.43053 0.0
N1230 N 0.61994 0.83733 0.44704 0.0
C1231 C 0.64529 0.83387 0.43899 0.0
C1232 C 0.6309 0.8263 0.4421 0.0
C1233 C 0.62804 0.85151 0.44703 0.0
N1234 N 0.64353 0.84975 0.44211 0.0
O1235 O 0.60521 0.82443 0.47207 0.0
H1236 H 0.62871 0.81355 0.44058 0.0
H1237 H 0.62263 0.86289 0.45048 0.0
O1238 O 0.59944 0.81277 0.4423 0.0
C1239 C 0.60332 0.83313 0.48459 0.0
O1240 O 0.59469 0.84641 0.48344 0.0
N1241 N 0.59224 0.84448 0.43329 0.0
C1242 C 0.58008 0.86398 0.40866 0.0
C1243 C 0.58446 0.84782 0.40562 0.0
C1244 C 0.59098 0.83841 0.41801 0.0
C1245 C 0.58997 0.86057 0.43592 0.0
C1246 C 0.58394 0.87057 0.42379 0.0
H1247 H 0.59469 0.8263 0.41517 0.0
H1248 H 0.59214 0.86552 0.44782 0.0
H1249 H 0.57564 0.80512 0.46445 0.0
H1250 H 0.53802 0.83906 0.46119 0.0
H1251 H 0.65605 0.82815 0.43423 0.0
H1252 H 0.58215 0.84214 0.39408 0.0
H1253 H 0.5816 0.88314 0.42655 0.0
C1254 C 0.08999 0.18282 0.78429 0.0
C1255 C 0.08292 0.19659 0.77808 0.0
N1256 N 0.06681 0.1943 0.77755 0.0
N1257 N 0.07835 0.172 0.7879 0.0
C1258 C 0.06443 0.17922 0.78328 0.0
H1259 H 0.10266 0.18125 0.78702 0.0
Co1260 Co 0.08028 0.1532 0.80041 0.0
C1261 C 0.0466 0.15591 0.81721 0.0
O1262 O 0.03746 0.16829 0.82107 0.0
N1263 N 0.08218 0.13462 0.81318 0.0
C1264 C 0.0854 0.11971 0.83529 0.0
C1265 C 0.07916 0.1338 0.8292 0.0
C1266 C 0.09039 0.12089 0.80985 0.0
N1267 N 0.09257 0.11166 0.82311 0.0
O1268 O 0.06976 0.14115 0.78392 0.0
H1269 H 0.07415 0.14352 0.83632 0.0
H1270 H 0.09606 0.1184 0.79836 0.0
O1271 O 0.05996 0.1586 0.81016 0.0
C1272 C 0.08082 0.13653 0.7743 0.0
O1273 O 0.09578 0.14099 0.77714 0.0
N1274 N 0.09179 0.16455 0.81598 0.0
C1275 C 0.11133 0.17691 0.8402 0.0
C1276 C 0.09505 0.18149 0.8391 0.0
C1277 C 0.08547 0.17531 0.82673 0.0
C1278 C 0.10773 0.16041 0.81652 0.0
C1279 C 0.1178 0.16654 0.82855 0.0
H1280 H 0.07301 0.17907 0.82599 0.0
H1281 H 0.11252 0.152 0.80772 0.0
H1282 H 0.05261 0.17401 0.78523 0.0
H1283 H 0.08908 0.20768 0.77491 0.0
H1284 H 0.0856 0.11618 0.84788 0.0
H1285 H 0.08985 0.18999 0.84761 0.0
H1286 H 0.13042 0.16308 0.82887 0.0
C1287 C 0.43349 0.66131 0.4573 0.0
C1288 C 0.44596 0.67062 0.46312 0.0
N1289 N 0.44054 0.68582 0.4652 0.0
N1290 N 0.42018 0.67056 0.45542 0.0
C1291 C 0.42476 0.68529 0.46099 0.0
H1292 H 0.43437 0.64865 0.45431 0.0
Co1293 Co 0.39994 0.66443 0.44642 0.0
C1294 C 0.4071 0.69591 0.4297 0.0
O1295 O 0.42261 0.69297 0.42793 0.0
N1296 N 0.38011 0.65845 0.43774 0.0
C1297 C 0.35841 0.65721 0.42205 0.0
C1298 C 0.37281 0.66489 0.42465 0.0
C1299 C 0.37004 0.64659 0.4427 0.0
N1300 N 0.35666 0.64572 0.4334 0.0
O1301 O 0.389 0.673 0.46468 0.0
H1302 H 0.37778 0.67425 0.41706 0.0
H1303 H 0.37249 0.63874 0.45287 0.0
O1304 O 0.39786 0.68543 0.43618 0.0
C1305 C 0.39106 0.66598 0.47815 0.0
O1306 O 0.4015 0.65408 0.47922 0.0
N1307 N 0.41002 0.65465 0.42866 0.0
C1308 C 0.42287 0.63499 0.40449 0.0
C1309 C 0.41791 0.65083 0.40105 0.0
C1310 C 0.41128 0.6604 0.41325 0.0
C1311 C 0.41383 0.63896 0.43194 0.0
C1312 C 0.42056 0.62899 0.42013 0.0
H1313 H 0.40681 0.67215 0.41 0.0
H1314 H 0.41161 0.63418 0.4439 0.0
H1315 H 0.4168 0.69566 0.46136 0.0
H1316 H 0.45829 0.66665 0.46485 0.0
H1317 H 0.35012 0.65944 0.41219 0.0
H1318 H 0.41935 0.6559 0.38907 0.0
H1319 H 0.42388 0.61671 0.4232 0.0
C1320 C 0.71361 0.90969 0.68391 0.0
C1321 C 0.7187 0.91801 0.69739 0.0
N1322 N 0.7183 0.93401 0.69419 0.0
N1323 N 0.70977 0.92032 0.67221 0.0
C1324 C 0.71347 0.93493 0.67857 0.0
H1325 H 0.71203 0.89675 0.68295 0.0
Co1326 Co 0.69989 0.91517 0.6523 0.0
C1327 C 0.68213 0.94755 0.65907 0.0
O1328 O 0.68099 0.94719 0.67487 0.0
N1329 N 0.69042 0.91039 0.63224 0.0
C1330 C 0.67353 0.9101 0.61138 0.0
C1331 C 0.67672 0.91686 0.62616 0.0
C1332 C 0.69523 0.89955 0.62095 0.0
N1333 N 0.68511 0.89917 0.60816 0.0
O1334 O 0.71782 0.92413 0.64102 0.0
H1335 H 0.66906 0.92548 0.63228 0.0
H1336 H 0.70562 0.89173 0.62235 0.0
O1337 O 0.68902 0.9361 0.65135 0.0
C1338 C 0.73045 0.9154 0.64152 0.0
O1339 O 0.73039 0.90234 0.65054 0.0
N1340 N 0.68235 0.90484 0.66322 0.0
C1341 C 0.65836 0.88697 0.6789 0.0
C1342 C 0.66392 0.90153 0.68543 0.0
C1343 C 0.67593 0.91024 0.67744 0.0
C1344 C 0.67752 0.89017 0.65722 0.0
C1345 C 0.66521 0.88129 0.66458 0.0
H1346 H 0.68068 0.9207 0.68339 0.0
H1347 H 0.68344 0.88491 0.64689 0.0
H1348 H 0.71198 0.9461 0.67203 0.0
H1349 H 0.72191 0.91256 0.70881 0.0
H1350 H 0.66298 0.91234 0.60398 0.0
H1351 H 0.65917 0.90606 0.69676 0.0
H1352 H 0.66152 0.86981 0.65947 0.0
C1353 C 0.71532 0.0898 0.81923 0.0
C1354 C 0.72107 0.08123 0.80616 0.0
N1355 N 0.71903 0.06531 0.80905 0.0
N1356 N 0.70945 0.07941 0.83028 0.0
C1357 C 0.71247 0.0646 0.82402 0.0
H1358 H 0.71455 0.10282 0.8202 0.0
Co1359 Co 0.69732 0.08528 0.84856 0.0
C1360 C 0.6782 0.05349 0.84101 0.0
O1361 O 0.6786 0.05189 0.82523 0.0
N1362 N 0.68508 0.09095 0.86694 0.0
C1363 C 0.66364 0.0947 0.88272 0.0
C1364 C 0.66942 0.08692 0.8693 0.0
C1365 C 0.68855 0.10116 0.87925 0.0
N1366 N 0.67564 0.10372 0.88892 0.0
O1367 O 0.71283 0.07511 0.86202 0.0
H1368 H 0.66227 0.07953 0.86125 0.0
H1369 H 0.69989 0.10751 0.88049 0.0
O1370 O 0.68509 0.06538 0.84796 0.0
C1371 C 0.72343 0.08537 0.86619 0.0
O1372 O 0.72253 0.10015 0.86048 0.0
N1373 N 0.68254 0.09655 0.83545 0.0
C1374 C 0.6611 0.11528 0.81765 0.0
C1375 C 0.66526 0.09971 0.81248 0.0
C1376 C 0.67607 0.09055 0.82155 0.0
C1377 C 0.67945 0.11216 0.83994 0.0
C1378 C 0.66838 0.12161 0.83146 0.0
H1379 H 0.67963 0.07894 0.81704 0.0
H1380 H 0.68553 0.11736 0.85025 0.0
H1381 H 0.70914 0.05348 0.82998 0.0
H1382 H 0.72582 0.08643 0.79515 0.0
H1383 H 0.65138 0.09423 0.88726 0.0
H1384 H 0.66003 0.0946 0.80162 0.0
H1385 H 0.66566 0.13375 0.83555 0.0
C1386 C 0.336 0.02443 0.42371 0.0
C1387 C 0.32729 0.01902 0.43688 0.0
N1388 N 0.31263 0.02602 0.43647 0.0
N1389 N 0.32682 0.03474 0.41504 0.0
C1390 C 0.31254 0.03519 0.42302 0.0
H1391 H 0.34854 0.02179 0.42117 0.0
Co1392 Co 0.33376 0.04765 0.39765 0.0
C1393 C 0.30761 0.0731 0.40428 0.0
O1394 O 0.3164 0.08333 0.41263 0.0
N1395 N 0.3404 0.06043 0.38012 0.0
C1396 C 0.34554 0.08173 0.36466 0.0
C1397 C 0.33714 0.07626 0.37775 0.0
C1398 C 0.3508 0.05653 0.3681 0.0
N1399 N 0.35426 0.06941 0.35871 0.0
O1400 O 0.32344 0.03338 0.3829 0.0
H1401 H 0.32999 0.08385 0.38548 0.0
H1402 H 0.3566 0.04486 0.36699 0.0
O1403 O 0.31377 0.06012 0.39864 0.0
C1404 C 0.33182 0.02075 0.38045 0.0
O1405 O 0.3456 0.01902 0.3881 0.0
N1406 N 0.34539 0.06101 0.41215 0.0
C1407 C 0.36537 0.07851 0.43274 0.0
C1408 C 0.34977 0.0742 0.43758 0.0
C1409 C 0.34001 0.06528 0.42716 0.0
C1410 C 0.36104 0.06422 0.40785 0.0
C1411 C 0.3711 0.07339 0.41777 0.0
H1412 H 0.32807 0.062 0.43119 0.0
H1413 H 0.36598 0.05951 0.39674 0.0
H1414 H 0.3025 0.04282 0.41968 0.0
H1415 H 0.33176 0.01148 0.44658 0.0
H1416 H 0.34584 0.09407 0.36029 0.0
H1417 H 0.34511 0.07787 0.44926 0.0
H1418 H 0.38328 0.07623 0.4139 0.0
C1419 C 0.2908 0.40854 0.81566 0.0
C1420 C 0.28572 0.41661 0.80208 0.0
N1421 N 0.28364 0.43236 0.80579 0.0
N1422 N 0.29216 0.41906 0.82803 0.0
C1423 C 0.28699 0.43329 0.82179 0.0
H1424 H 0.29361 0.39582 0.81625 0.0
Co1425 Co 0.3004 0.41467 0.84893 0.0
C1426 C 0.31726 0.44599 0.84026 0.0
O1427 O 0.31951 0.44269 0.82488 0.0
N1428 N 0.30847 0.41028 0.86941 0.0
C1429 C 0.3233 0.4105 0.89174 0.0
C1430 C 0.32037 0.41814 0.87736 0.0
C1431 C 0.30458 0.39773 0.87907 0.0
N1432 N 0.3134 0.39767 0.89279 0.0
O1433 O 0.28195 0.42424 0.85866 0.0
H1434 H 0.32708 0.42835 0.87281 0.0
H1435 H 0.29566 0.38867 0.87598 0.0
O1436 O 0.31063 0.43567 0.84956 0.0
C1437 C 0.26812 0.41805 0.85629 0.0
O1438 O 0.26656 0.40644 0.84557 0.0
N1439 N 0.31823 0.404 0.84024 0.0
C1440 C 0.34164 0.38335 0.82755 0.0
C1441 C 0.34511 0.39974 0.83049 0.0
C1442 C 0.33335 0.40978 0.83723 0.0
C1443 C 0.31509 0.3879 0.83878 0.0
C1444 C 0.32659 0.37735 0.83245 0.0
H1445 H 0.33662 0.42203 0.84 0.0
H1446 H 0.30337 0.38331 0.84228 0.0
H1447 H 0.28656 0.44433 0.82876 0.0
H1448 H 0.28414 0.41119 0.7903 0.0
H1449 H 0.33255 0.41368 0.90043 0.0
H1450 H 0.35658 0.40502 0.82712 0.0
H1451 H 0.32351 0.36472 0.83104 0.0
C1452 C 0.16503 0.97613 0.92517 0.0
C1453 C 0.17459 0.98153 0.9377 0.0
N1454 N 0.18868 0.97345 0.93718 0.0
N1455 N 0.1731 0.96477 0.91669 0.0
C1456 C 0.18757 0.96357 0.92424 0.0
H1457 H 0.15268 0.97971 0.92286 0.0
Co1458 Co 0.16457 0.95225 0.89964 0.0
C1459 C 0.19064 0.92626 0.90365 0.0
O1460 O 0.18255 0.91673 0.91339 0.0
N1461 N 0.1564 0.93969 0.88237 0.0
C1462 C 0.14954 0.91823 0.86774 0.0
C1463 C 0.15827 0.92355 0.88069 0.0
C1464 C 0.14641 0.9439 0.8701 0.0
N1465 N 0.14196 0.93097 0.86114 0.0
O1466 O 0.17379 0.96673 0.88439 0.0
H1467 H 0.16467 0.91577 0.88888 0.0
H1468 H 0.1417 0.95597 0.86835 0.0
O1469 O 0.18438 0.93941 0.89853 0.0
C1470 C 0.16436 0.97869 0.88247 0.0
O1471 O 0.15086 0.97929 0.89077 0.0
N1472 N 0.1538 0.93886 0.91476 0.0
C1473 C 0.13538 0.91889 0.93453 0.0
C1474 C 0.15086 0.92377 0.93931 0.0
C1475 C 0.15981 0.934 0.92934 0.0
C1476 C 0.13797 0.93583 0.9111 0.0
C1477 C 0.12873 0.9254 0.9205 0.0
H1478 H 0.17181 0.93736 0.93309 0.0
H1479 H 0.13245 0.94126 0.90062 0.0
H1480 H 0.19691 0.95509 0.92087 0.0
H1481 H 0.17109 0.99002 0.94704 0.0
H1482 H 0.14838 0.90579 0.86382 0.0
H1483 H 0.15626 0.91916 0.95031 0.0
H1484 H 0.11657 0.92234 0.91677 0.0
C1485 C 0.77868 0.08867 0.17821 0.0
C1486 C 0.7739 0.07995 0.19159 0.0
N1487 N 0.77789 0.0643 0.18927 0.0
N1488 N 0.78577 0.07862 0.16753 0.0
C1489 C 0.78472 0.06384 0.17443 0.0
H1490 H 0.77789 0.10164 0.17674 0.0
Co1491 Co 0.79694 0.08443 0.14864 0.0
C1492 C 0.8211 0.05668 0.15406 0.0
O1493 O 0.83207 0.06408 0.16277 0.0
N1494 N 0.80797 0.08981 0.12948 0.0
C1495 C 0.82661 0.09134 0.11018 0.0
C1496 C 0.82283 0.08479 0.1249 0.0
C1497 C 0.80311 0.0997 0.11739 0.0
N1498 N 0.81423 0.10072 0.10551 0.0
O1499 O 0.78095 0.07402 0.13612 0.0
H1500 H 0.83082 0.07733 0.13195 0.0
H1501 H 0.79182 0.10629 0.11745 0.0
O1502 O 0.80865 0.06417 0.14899 0.0
C1503 C 0.76912 0.08346 0.13382 0.0
O1504 O 0.76938 0.09794 0.14033 0.0
N1505 N 0.81225 0.09601 0.16104 0.0
C1506 C 0.83355 0.11542 0.17829 0.0
C1507 C 0.82844 0.10059 0.18459 0.0
C1508 C 0.81765 0.09111 0.17583 0.0
C1509 C 0.81608 0.11113 0.15553 0.0
C1510 C 0.82715 0.12083 0.1637 0.0
H1511 H 0.81379 0.07974 0.18093 0.0
H1512 H 0.81057 0.11587 0.14473 0.0
H1513 H 0.78934 0.05297 0.16887 0.0
H1514 H 0.76872 0.08494 0.20251 0.0
H1515 H 0.83792 0.08995 0.10374 0.0
H1516 H 0.83312 0.09616 0.19598 0.0
H1517 H 0.83063 0.13242 0.15872 0.0
C1518 C 0.33476 0.96996 0.07217 0.0
C1519 C 0.3256 0.9752 0.0593 0.0
N1520 N 0.31051 0.96938 0.06106 0.0
N1521 N 0.32549 0.96096 0.0821 0.0
C1522 C 0.31072 0.96095 0.07504 0.0
H1523 H 0.34754 0.97202 0.07386 0.0
Co1524 Co 0.33292 0.94969 0.10044 0.0
C1525 C 0.3064 0.92419 0.09773 0.0
O1526 O 0.31495 0.91336 0.0899 0.0
N1527 N 0.34006 0.93858 0.11899 0.0
C1528 C 0.34617 0.91869 0.13596 0.0
C1529 C 0.33752 0.92283 0.12253 0.0
C1530 C 0.35026 0.94379 0.13068 0.0
N1531 N 0.35425 0.93182 0.14103 0.0
O1532 O 0.32365 0.96566 0.11411 0.0
H1533 H 0.3308 0.9144 0.11531 0.0
H1534 H 0.35553 0.95576 0.13093 0.0
O1535 O 0.31264 0.93772 0.10173 0.0
C1536 C 0.33209 0.97846 0.1147 0.0
O1537 O 0.34526 0.97945 0.10591 0.0
N1538 N 0.34357 0.93457 0.08691 0.0
C1539 C 0.3615 0.91282 0.06863 0.0
C1540 C 0.34636 0.91805 0.06325 0.0
C1541 C 0.33763 0.92912 0.0725 0.0
C1542 C 0.35904 0.93077 0.0913 0.0
C1543 C 0.36801 0.91946 0.08265 0.0
H1544 H 0.32587 0.93282 0.06829 0.0
H1545 H 0.3646 0.93643 0.10164 0.0
H1546 H 0.30039 0.95448 0.07973 0.0
H1547 H 0.3299 0.98206 0.04903 0.0
H1548 H 0.3471 0.90673 0.14118 0.0
H1549 H 0.34117 0.91333 0.05219 0.0
H1550 H 0.37997 0.91608 0.08675 0.0
C1551 C 0.66029 0.53801 0.06544 0.0
C1552 C 0.66894 0.53377 0.05186 0.0
N1553 N 0.68482 0.53538 0.05512 0.0
N1554 N 0.67063 0.54233 0.07725 0.0
C1555 C 0.68547 0.54037 0.07068 0.0
H1556 H 0.64728 0.53857 0.06646 0.0
Co1557 Co 0.66484 0.55103 0.0974 0.0
C1558 C 0.6934 0.57437 0.09796 0.0
O1559 O 0.68515 0.58727 0.09381 0.0
N1560 N 0.65916 0.55945 0.11778 0.0
C1561 C 0.65758 0.5744 0.14007 0.0
C1562 C 0.66509 0.5726 0.12547 0.0
C1563 C 0.64782 0.55358 0.12802 0.0
N1564 N 0.64671 0.56249 0.14166 0.0
O1565 O 0.67304 0.53233 0.10798 0.0
H1566 H 0.67395 0.58085 0.12088 0.0
H1567 H 0.64038 0.54315 0.1254 0.0
O1568 O 0.68631 0.56075 0.09953 0.0
C1569 C 0.66531 0.51921 0.10597 0.0
O1570 O 0.65288 0.51901 0.09612 0.0
N1571 N 0.65549 0.56904 0.08695 0.0
C1572 C 0.63905 0.59401 0.07155 0.0
C1573 C 0.65436 0.58922 0.06621 0.0
C1574 C 0.66218 0.57639 0.07377 0.0
C1575 C 0.64016 0.57303 0.09167 0.0
C1576 C 0.63175 0.5856 0.08422 0.0
H1577 H 0.67377 0.57253 0.06916 0.0
H1578 H 0.63413 0.56622 0.10101 0.0
H1579 H 0.69654 0.54292 0.07709 0.0
H1580 H 0.66385 0.53049 0.04028 0.0
H1581 H 0.65945 0.58416 0.1486 0.0
H1582 H 0.66003 0.59503 0.05594 0.0
H1583 H 0.61964 0.58858 0.08818 0.0
C1584 C 0.09427 0.34285 0.35181 0.0
C1585 C 0.07943 0.35105 0.35288 0.0
C1586 C 0.09806 0.33055 0.36266 0.0
C1587 C 0.08412 0.29903 0.38815 0.0
H1588 H 0.12367 0.30707 0.41198 0.0
C1589 C 0.11635 0.2482 0.42327 0.0
C1590 C 0.13231 0.24659 0.41774 0.0
C1591 C 0.10771 0.26244 0.42017 0.0
C1592 C 0.11252 0.30469 0.40556 0.0
H1593 H 0.05648 0.35182 0.36567 0.0
H1594 H 0.06304 0.32981 0.38428 0.0
H1595 H 0.11195 0.32849 0.39546 0.0
H1596 H 0.15218 0.25868 0.40582 0.0
H1597 H 0.1374 0.28346 0.4007 0.0
H1598 H 0.08536 0.27482 0.39725 0.0
C1599 C 0.07176 0.33329 0.37515 0.0
C1600 C 0.10584 0.31693 0.39613 0.0
C1601 C 0.06801 0.34582 0.36441 0.0
C1602 C 0.13989 0.25971 0.41023 0.0
C1603 C 0.13141 0.27393 0.40738 0.0
C1604 C 0.09092 0.28666 0.39747 0.0
C1605 C 0.08701 0.32595 0.37464 0.0
C1606 C 0.09197 0.31399 0.38687 0.0
C1607 C 0.11506 0.27527 0.41178 0.0
C1608 C 0.10559 0.2892 0.40569 0.0
H1609 H 0.10316 0.34618 0.34283 0.0
H1610 H 0.10979 0.32479 0.36187 0.0
H1611 H 0.07339 0.29656 0.38108 0.0
H1612 H 0.11023 0.23811 0.42894 0.0
H1613 H 0.09514 0.26317 0.42372 0.0
C1614 C 0.48798 0.63818 0.82811 0.0
C1615 C 0.49055 0.62149 0.82968 0.0
C1616 C 0.50087 0.64893 0.83012 0.0
C1617 C 0.54536 0.65117 0.83421 0.0
H1618 H 0.53686 0.67813 0.8717 0.0
C1619 C 0.59393 0.66205 0.8797 0.0
C1620 C 0.59861 0.67814 0.88202 0.0
C1621 C 0.57919 0.65849 0.87254 0.0
C1622 C 0.53933 0.67091 0.86105 0.0
H1623 H 0.50838 0.60272 0.83311 0.0
H1624 H 0.53093 0.62129 0.83604 0.0
H1625 H 0.51424 0.66634 0.85661 0.0
H1626 H 0.59121 0.70314 0.8802 0.0
H1627 H 0.565 0.69687 0.86748 0.0
H1628 H 0.57039 0.65479 0.83927 0.0
C1629 C 0.51912 0.62622 0.83336 0.0
C1630 C 0.52644 0.66428 0.85235 0.0
C1631 C 0.50624 0.61557 0.8317 0.0
C1632 C 0.5877 0.69065 0.8785 0.0
C1633 C 0.57284 0.68708 0.87121 0.0
C1634 C 0.55816 0.6577 0.84291 0.0
C1635 C 0.51644 0.643 0.83337 0.0
C1636 C 0.52941 0.65373 0.83932 0.0
C1637 C 0.56892 0.67099 0.86747 0.0
C1638 C 0.55525 0.66699 0.85681 0.0
H1639 H 0.47585 0.64294 0.8268 0.0
H1640 H 0.49854 0.66181 0.83005 0.0
H1641 H 0.54796 0.64323 0.82411 0.0
H1642 H 0.60219 0.6523 0.88252 0.0
H1643 H 0.5762 0.64598 0.87009 0.0
C1644 C 0.89444 0.26699 0.41307 0.0
C1645 C 0.87842 0.26321 0.41713 0.0
C1646 C 0.90574 0.25463 0.41067 0.0
C1647 C 0.91333 0.21072 0.41554 0.0
H1648 H 0.92939 0.21293 0.37157 0.0
C1649 C 0.9228 0.15489 0.37619 0.0
C1650 C 0.93461 0.15483 0.36406 0.0
C1651 C 0.92072 0.1684 0.38605 0.0
C1652 C 0.92544 0.21221 0.38403 0.0
H1653 H 0.86175 0.24395 0.42283 0.0
H1654 H 0.88157 0.22235 0.41927 0.0
H1655 H 0.91719 0.23673 0.38385 0.0
H1656 H 0.95387 0.16838 0.35289 0.0
H1657 H 0.95034 0.1923 0.37022 0.0
H1658 H 0.921 0.18601 0.4155 0.0
C1659 C 0.88548 0.23477 0.41791 0.0
C1660 C 0.91842 0.22588 0.39107 0.0
C1661 C 0.87413 0.24709 0.41997 0.0
C1662 C 0.94485 0.1682 0.36236 0.0
C1663 C 0.9427 0.18186 0.37217 0.0
C1664 C 0.92047 0.19708 0.40855 0.0
C1665 C 0.9012 0.23836 0.41255 0.0
C1666 C 0.91175 0.22509 0.40667 0.0
C1667 C 0.93032 0.18226 0.38386 0.0
C1668 C 0.92602 0.19748 0.39248 0.0
H1669 H 0.89787 0.27937 0.41052 0.0
H1670 H 0.91777 0.25773 0.40655 0.0
H1671 H 0.90843 0.20983 0.42765 0.0
H1672 H 0.9147 0.1447 0.37748 0.0
H1673 H 0.9109 0.16831 0.3947 0.0
C1674 C 0.4015 0.81318 0.86678 0.0
C1675 C 0.40606 0.80961 0.88275 0.0
C1676 C 0.41316 0.81699 0.85514 0.0
C1677 C 0.43763 0.83889 0.83938 0.0
H1678 H 0.48248 0.82586 0.84268 0.0
C1679 C 0.48929 0.88318 0.83626 0.0
C1680 C 0.50445 0.87861 0.83025 0.0
C1681 C 0.47654 0.87223 0.83637 0.0
C1682 C 0.46998 0.82942 0.84123 0.0
H1683 H 0.42676 0.8057 0.89842 0.0
H1684 H 0.44677 0.8132 0.87864 0.0
H1685 H 0.46152 0.809 0.85465 0.0
H1686 H 0.51807 0.85934 0.81889 0.0
H1687 H 0.49564 0.83992 0.81929 0.0
H1688 H 0.44615 0.85953 0.82638 0.0
C1689 C 0.43424 0.81285 0.87491 0.0
C1690 C 0.45796 0.81987 0.84829 0.0
C1691 C 0.42264 0.80885 0.88645 0.0
C1692 C 0.50643 0.86316 0.82349 0.0
C1693 C 0.49365 0.85205 0.82381 0.0
C1694 C 0.44961 0.84834 0.83223 0.0
C1695 C 0.42964 0.81749 0.85924 0.0
C1696 C 0.44174 0.82497 0.84822 0.0
C1697 C 0.4787 0.85638 0.83064 0.0
C1698 C 0.46597 0.84418 0.83386 0.0
H1699 H 0.38891 0.81379 0.86337 0.0
H1700 H 0.4092 0.82018 0.84309 0.0
H1701 H 0.42532 0.84328 0.83904 0.0
H1702 H 0.48747 0.89503 0.84152 0.0
H1703 H 0.46528 0.8759 0.84194 0.0
C1704 C 0.13582 0.73741 0.0828 0.0
C1705 C 0.13099 0.75338 0.08001 0.0
C1706 C 0.12439 0.72506 0.08337 0.0
C1707 C 0.08445 0.71868 0.09785 0.0
H1708 H 0.09234 0.67506 0.08265 0.0
C1709 C 0.05706 0.66248 0.12946 0.0
C1710 C 0.06958 0.65222 0.13449 0.0
C1711 C 0.06007 0.6745 0.11788 0.0
C1712 C 0.08979 0.68721 0.08681 0.0
H1713 H 0.11059 0.76905 0.07509 0.0
H1714 H 0.0904 0.74737 0.07669 0.0
H1715 H 0.10644 0.6977 0.07001 0.0
H1716 H 0.09463 0.64573 0.13109 0.0
H1717 H 0.09988 0.66635 0.11079 0.0
H1718 H 0.06884 0.70805 0.11556 0.0
C1719 C 0.10308 0.74441 0.07805 0.0
C1720 C 0.09783 0.70013 0.07957 0.0
C1721 C 0.11461 0.75675 0.07706 0.0
C1722 C 0.08485 0.65357 0.12734 0.0
C1723 C 0.08777 0.66527 0.11563 0.0
C1724 C 0.07645 0.70571 0.10517 0.0
C1725 C 0.10787 0.72851 0.08156 0.0
C1726 C 0.0959 0.71587 0.08561 0.0
C1727 C 0.07553 0.67606 0.11097 0.0
C1728 C 0.07977 0.68979 0.10029 0.0
H1729 H 0.14838 0.73459 0.08519 0.0
H1730 H 0.1284 0.71295 0.08632 0.0
H1731 H 0.08281 0.7307 0.10279 0.0
H1732 H 0.04523 0.66162 0.13498 0.0
H1733 H 0.05046 0.68273 0.11456 0.0
C1734 C 0.90216 0.68633 0.13111 0.0
C1735 C 0.90541 0.68473 0.11452 0.0
C1736 C 0.91422 0.68298 0.14249 0.0
C1737 C 0.94024 0.65553 0.1534 0.0
H1738 H 0.97968 0.67927 0.16196 0.0
C1739 C 0.00995 0.63921 0.158 0.0
C1740 C 0.00926 0.62511 0.16731 0.0
C1741 C 0.99694 0.64987 0.15776 0.0
C1742 C 0.96868 0.67252 0.15984 0.0
H1743 H 0.92389 0.6797 0.09672 0.0
H1744 H 0.9451 0.6743 0.11659 0.0
H1745 H 0.95694 0.69287 0.14879 0.0
H1746 H 0.99513 0.61132 0.1844 0.0
H1747 H 0.97204 0.63001 0.18394 0.0
H1748 H 0.95231 0.63477 0.16281 0.0
C1749 C 0.93324 0.67798 0.12077 0.0
C1750 C 0.95568 0.68036 0.15243 0.0
C1751 C 0.92116 0.68101 0.10946 0.0
C1752 C 0.99583 0.62223 0.17719 0.0
C1753 C 0.98265 0.63286 0.17684 0.0
C1754 C 0.95328 0.64763 0.16059 0.0
C1755 C 0.92971 0.67842 0.13733 0.0
C1756 C 0.9416 0.67175 0.14871 0.0
C1757 C 0.98287 0.64653 0.16667 0.0
C1758 C 0.96791 0.65586 0.16325 0.0
H1759 H 0.89004 0.689 0.13524 0.0
H1760 H 0.9113 0.68322 0.15524 0.0
H1761 H 0.92953 0.64864 0.15037 0.0
H1762 H 0.02027 0.6416 0.1503 0.0
H1763 H 0.99752 0.66011 0.14963 0.0
C1764 C 0.92767 0.82896 0.1404 0.0
C1765 C 0.93368 0.84366 0.1345 0.0
C1766 C 0.92522 0.81594 0.13001 0.0
C1767 C 0.92603 0.78849 0.10526 0.0
H1768 H 0.89244 0.8 0.07472 0.0
C1769 C 0.8861 0.7398 0.0766 0.0
C1770 C 0.87016 0.74232 0.08187 0.0
C1771 C 0.89729 0.75248 0.07713 0.0
C1772 C 0.90208 0.79662 0.08289 0.0
H1773 H 0.94246 0.85624 0.11337 0.0
H1774 H 0.93771 0.8334 0.09484 0.0
H1775 H 0.90802 0.8213 0.08806 0.0
H1776 H 0.85299 0.76013 0.09037 0.0
H1777 H 0.87232 0.78231 0.09086 0.0
H1778 H 0.91942 0.76388 0.10091 0.0
C1779 C 0.93522 0.83194 0.1076 0.0
C1780 C 0.91104 0.80879 0.09046 0.0
C1781 C 0.93801 0.8449 0.11815 0.0
C1782 C 0.86523 0.75792 0.08627 0.0
C1783 C 0.87628 0.77063 0.08645 0.0
C1784 C 0.91727 0.77633 0.09751 0.0
C1785 C 0.92845 0.81748 0.11342 0.0
C1786 C 0.92254 0.80482 0.10227 0.0
C1787 C 0.89256 0.76788 0.08256 0.0
C1788 C 0.90468 0.78032 0.08685 0.0
H1789 H 0.92415 0.82786 0.15296 0.0
H1790 H 0.91977 0.80503 0.13476 0.0
H1791 H 0.93483 0.78517 0.11436 0.0
H1792 H 0.89019 0.72781 0.07328 0.0
H1793 H 0.90979 0.75008 0.07409 0.0
C1794 C 0.98982 0.85845 0.16317 0.0
C1795 C 0.99066 0.87447 0.16861 0.0
C1796 C 0.00386 0.84911 0.16212 0.0
C1797 C 0.04599 0.85745 0.15342 0.0
H1798 H 0.05069 0.81084 0.15417 0.0
C1799 C 0.10136 0.82843 0.12489 0.0
C1800 C 0.09788 0.816 0.11396 0.0
C1801 C 0.08979 0.83336 0.13612 0.0
C1802 C 0.04954 0.82387 0.15394 0.0
H1803 H 0.00613 0.89301 0.1785 0.0
H1804 H 0.03064 0.87656 0.17727 0.0
H1805 H 0.02717 0.82345 0.16707 0.0
H1806 H 0.0802 0.79845 0.10632 0.0
H1807 H 0.05967 0.80709 0.12594 0.0
H1808 H 0.06778 0.858 0.13972 0.0
C1809 C 0.01929 0.87123 0.17353 0.0
C1810 C 0.03612 0.83108 0.16134 0.0
C1811 C 0.00529 0.88059 0.17441 0.0
C1812 C 0.08305 0.80794 0.11488 0.0
C1813 C 0.0714 0.81288 0.12611 0.0
C1814 C 0.05932 0.85029 0.14607 0.0
C1815 C 0.01889 0.85576 0.16645 0.0
C1816 C 0.03409 0.84796 0.16094 0.0
C1817 C 0.07445 0.82604 0.13646 0.0
C1818 C 0.06116 0.83342 0.146 0.0
H1819 H 0.97861 0.85364 0.15844 0.0
H1820 H 0.00311 0.83729 0.15655 0.0
H1821 H 0.04462 0.87043 0.15243 0.0
H1822 H 0.11275 0.83481 0.12416 0.0
H1823 H 0.09259 0.84338 0.14406 0.0
C1824 C 0.42074 0.11321 0.23714 0.0
C1825 C 0.42196 0.12998 0.2396 0.0
C1826 C 0.41796 0.10294 0.2503 0.0
C1827 C 0.39496 0.1072 0.2864 0.0
H1828 H 0.41082 0.06567 0.30127 0.0
C1829 C 0.37655 0.08466 0.34686 0.0
C1830 C 0.36656 0.07098 0.34662 0.0
C1831 C 0.38632 0.08826 0.33372 0.0
C1832 C 0.40624 0.07716 0.29702 0.0
H1833 H 0.42326 0.14904 0.25741 0.0
H1834 H 0.41903 0.1311 0.28041 0.0
H1835 H 0.42409 0.07923 0.27816 0.0
H1836 H 0.3599 0.04955 0.33323 0.0
H1837 H 0.37713 0.05605 0.30972 0.0
H1838 H 0.3773 0.10544 0.30508 0.0
C1839 C 0.41983 0.1259 0.26842 0.0
C1840 C 0.41382 0.0849 0.28395 0.0
C1841 C 0.42228 0.13614 0.25533 0.0
C1842 C 0.36754 0.06016 0.33357 0.0
C1843 C 0.37736 0.06384 0.32024 0.0
C1844 C 0.38747 0.09955 0.29927 0.0
C1845 C 0.41654 0.10942 0.26592 0.0
C1846 C 0.40848 0.10023 0.27891 0.0
C1847 C 0.38628 0.07829 0.32003 0.0
C1848 C 0.39328 0.08471 0.30498 0.0
H1849 H 0.42031 0.10829 0.22502 0.0
H1850 H 0.41542 0.09028 0.24809 0.0
H1851 H 0.39028 0.11876 0.28241 0.0
H1852 H 0.37617 0.09301 0.35694 0.0
H1853 H 0.39319 0.09942 0.33382 0.0
C1854 C 0.36017 0.3485 0.00888 0.0
C1855 C 0.37201 0.3365 0.01021 0.0
C1856 C 0.34913 0.34817 0.99624 0.0
C1857 C 0.32417 0.34355 0.97046 0.0
H1858 H 0.34681 0.34465 0.92944 0.0
C1859 C 0.31345 0.36915 0.90167 0.0
C1860 C 0.31375 0.38573 0.90537 0.0
C1861 C 0.31652 0.35766 0.91373 0.0
C1862 C 0.34017 0.3439 0.9407 0.0
H1863 H 0.38146 0.31441 -0.00012 0.0
H1864 H 0.3623 0.31409 0.97709 0.0
H1865 H 0.36012 0.33315 0.95315 0.0
H1866 H 0.31645 0.40331 0.92454 0.0
H1867 H 0.32132 0.3833 0.94567 0.0
H1868 H 0.30491 0.35587 0.95831 0.0
C1869 C 0.36141 0.32358 0.98607 0.0
C1870 C 0.34776 0.3373 0.95428 0.0
C1871 C 0.3723 0.32373 0.99905 0.0
C1872 C 0.31618 0.3906 0.92143 0.0
C1873 C 0.31886 0.37917 0.93348 0.0
C1874 C 0.31668 0.3503 0.95695 0.0
C1875 C 0.3499 0.336 0.9844 0.0
C1876 C 0.34017 0.3379 0.96947 0.0
C1877 C 0.31945 0.36266 0.92967 0.0
C1878 C 0.32494 0.35122 0.94219 0.0
H1879 H 0.35977 0.35846 0.01739 0.0
H1880 H 0.34063 0.35807 0.99519 0.0
H1881 H 0.31794 0.34393 0.98197 0.0
H1882 H 0.31176 0.36516 0.88932 0.0
H1883 H 0.31703 0.34497 0.91056 0.0
C1884 C 0.59829 0.38748 0.23664 0.0
C1885 C 0.58908 0.37331 0.23756 0.0
C1886 C 0.60097 0.39678 0.25043 0.0
C1887 C 0.59119 0.40117 0.29421 0.0
H1888 H 0.63745 0.40773 0.29775 0.0
C1889 C 0.62478 0.40313 0.35505 0.0
C1890 C 0.63785 0.41381 0.35685 0.0
C1891 C 0.617 0.40153 0.34018 0.0
C1892 C 0.62447 0.40632 0.29691 0.0
H1893 H 0.57451 0.35815 0.25303 0.0
H1894 H 0.57936 0.37424 0.27737 0.0
H1895 H 0.6259 0.40001 0.27197 0.0
H1896 H 0.65293 0.43127 0.34445 0.0
H1897 H 0.63928 0.42855 0.31847 0.0
H1898 H 0.58999 0.4069 0.31944 0.0
C1899 C 0.58428 0.37842 0.266 0.0
C1900 C 0.61781 0.40193 0.28209 0.0
C1901 C 0.58149 0.36919 0.2521 0.0
C1902 C 0.64285 0.423 0.34348 0.0
C1903 C 0.63509 0.42137 0.32858 0.0
C1904 C 0.59789 0.40558 0.30909 0.0
C1905 C 0.59474 0.39185 0.26545 0.0
C1906 C 0.60114 0.39896 0.28062 0.0
C1907 C 0.62213 0.41054 0.32674 0.0
C1908 C 0.61466 0.40783 0.31067 0.0
H1909 H 0.60428 0.3908 0.22548 0.0
H1910 H 0.60878 0.40724 0.24955 0.0
H1911 H 0.5783 0.39913 0.29343 0.0
H1912 H 0.62046 0.39606 0.36516 0.0
H1913 H 0.6072 0.39292 0.33912 0.0
C1914 C 0.68662 0.11751 0.91306 0.0
C1915 C 0.67412 0.11527 0.90182 0.0
C1916 C 0.68456 0.1281 0.92613 0.0
C1917 C 0.65942 0.16218 0.94073 0.0
H1918 H 0.66532 0.14341 0.98319 0.0
C1919 C 0.61955 0.17693 0.99484 0.0
C1920 C 0.6255 0.17478 0.01051 0.0
C1921 C 0.62971 0.17475 0.98154 0.0
C1922 C 0.664 0.14911 0.97149 0.0
H1923 H 0.65006 0.12284 0.89491 0.0
H1924 H 0.64647 0.14131 0.91753 0.0
H1925 H 0.67556 0.12927 0.95951 0.0
H1926 H 0.64669 0.16965 0.02487 0.0
H1927 H 0.66465 0.16615 0.00161 0.0
H1928 H 0.64725 0.18168 0.95263 0.0
C1929 C 0.65784 0.13492 0.91637 0.0
C1930 C 0.66985 0.14094 0.9579 0.0
C1931 C 0.6598 0.1242 0.90352 0.0
C1932 C 0.64198 0.17169 0.01283 0.0
C1933 C 0.65217 0.16947 -0.00048 0.0
C1934 C 0.65366 0.17039 0.95432 0.0
C1935 C 0.6701 0.13686 0.92793 0.0
C1936 C 0.66703 0.14708 0.94235 0.0
C1937 C 0.64595 0.17017 0.98372 0.0
C1938 C 0.65529 0.16363 0.96981 0.0
H1939 H 0.69774 0.1107 0.91199 0.0
H1940 H 0.69419 0.12936 0.9349 0.0
H1941 H 0.65732 0.16731 0.92888 0.0
H1942 H 0.60677 0.17891 0.99285 0.0
H1943 H 0.62442 0.17521 0.96959 0.0
C1944 C 0.36689 0.94351 0.16546 0.0
C1945 C 0.36657 0.93177 0.15322 0.0
C1946 C 0.37752 0.94183 0.17856 0.0
C1947 C 0.41327 0.91814 0.1927 0.0
H1948 H 0.39135 0.91783 0.23409 0.0
C1949 C 0.42087 0.86987 0.24067 0.0
C1950 C 0.42085 0.87408 0.25706 0.0
C1951 C 0.4195 0.88179 0.22885 0.0
C1952 C 0.39784 0.91827 0.22272 0.0
H1953 H 0.37763 0.90981 0.14435 0.0
H1954 H 0.39606 0.90683 0.16692 0.0
H1955 H 0.37856 0.93084 0.21094 0.0
H1956 H 0.41987 0.89392 0.27412 0.0
H1957 H 0.41687 0.91488 0.25333 0.0
H1958 H 0.43187 0.90428 0.20419 0.0
C1959 C 0.38829 0.91736 0.16659 0.0
C1960 C 0.39052 0.92574 0.20945 0.0
C1961 C 0.37762 0.91894 0.15373 0.0
C1962 C 0.42023 0.89046 0.26149 0.0
C1963 C 0.4184 0.9024 0.24966 0.0
C1964 C 0.42049 0.91054 0.2059 0.0
C1965 C 0.38816 0.92855 0.17938 0.0
C1966 C 0.39778 0.925 0.1941 0.0
C1967 C 0.41762 0.8981 0.23325 0.0
C1968 C 0.41247 0.90987 0.22082 0.0
H1969 H 0.35839 0.95346 0.16527 0.0
H1970 H 0.37715 0.95065 0.18824 0.0
H1971 H 0.41933 0.91767 0.1811 0.0
H1972 H 0.42113 0.85728 0.23704 0.0
H1973 H 0.41871 0.87812 0.21631 0.0
C1974 C 0.18814 0.37893 0.08945 0.0
C1975 C 0.17479 0.38272 0.09923 0.0
C1976 C 0.18652 0.36784 0.07671 0.0
C1977 C 0.16017 0.33512 0.06145 0.0
H1978 H 0.16818 0.35264 0.01877 0.0
C1979 C 0.11737 0.32812 0.00924 0.0
C1980 C 0.12289 0.32805 0.99324 0.0
C1981 C 0.1283 0.32851 0.02201 0.0
C1982 C 0.16631 0.34725 0.03055 0.0
H1983 H 0.14962 0.37748 0.10397 0.0
H1984 H 0.14681 0.35812 0.08203 0.0
H1985 H 0.17956 0.36608 0.04243 0.0
H1986 H 0.14405 0.32729 0.97787 0.0
H1987 H 0.16338 0.3284 0.00037 0.0
H1988 H 0.14598 0.31697 0.0497 0.0
C1989 C 0.15851 0.36364 0.08406 0.0
C1990 C 0.17281 0.355 0.04411 0.0
C1991 C 0.16004 0.37486 0.0965 0.0
C1992 C 0.13955 0.32718 0.99017 0.0
C1993 C 0.15057 0.32792 0.003 0.0
C1994 C 0.15372 0.32737 0.04792 0.0
C1995 C 0.17164 0.36013 0.0739 0.0
C1996 C 0.16902 0.3495 0.05972 0.0
C1997 C 0.14501 0.32918 0.01903 0.0
C1998 C 0.15595 0.33391 0.03242 0.0
H1999 H 0.1996 0.38493 0.09135 0.0
H2000 H 0.1968 0.36541 0.06898 0.0
H2001 H 0.15729 0.33049 0.07335 0.0
H2002 H 0.10456 0.3289 0.01185 0.0
H2003 H 0.12358 0.32966 0.03417 0.0
C2004 C 0.57243 0.61788 0.2496 0.0
C2005 C 0.5853 0.61806 0.26063 0.0
C2006 C 0.57272 0.60717 0.23643 0.0
C2007 C 0.58711 0.59428 0.20436 0.0
H2008 H 0.60635 0.55169 0.20821 0.0
C2009 C 0.6404 0.56401 0.17051 0.0
C2010 C 0.63524 0.56133 0.1546 0.0
C2011 C 0.62919 0.56629 0.18286 0.0
C2012 C 0.6006 0.56338 0.2069 0.0
H2013 H 0.60802 0.60689 0.26719 0.0
H2014 H 0.60825 0.58799 0.24484 0.0
H2015 H 0.5943 0.56454 0.23195 0.0
H2016 H 0.61444 0.55835 0.13909 0.0
H2017 H 0.59457 0.56284 0.16086 0.0
H2018 H 0.59442 0.59347 0.17949 0.0
C2019 C 0.59796 0.59598 0.24613 0.0
C2020 C 0.59377 0.57076 0.22045 0.0
C2021 C 0.59789 0.60687 0.25892 0.0
C2022 C 0.61863 0.56018 0.15134 0.0
C2023 C 0.60733 0.56284 0.1637 0.0
C2024 C 0.5938 0.5868 0.19074 0.0
C2025 C 0.58565 0.59628 0.23448 0.0
C2026 C 0.58781 0.58665 0.21951 0.0
C2027 C 0.61259 0.56621 0.17946 0.0
C2028 C 0.60129 0.57164 0.19214 0.0
H2029 H 0.5627 0.62657 0.25066 0.0
H2030 H 0.56313 0.60771 0.22755 0.0
H2031 H 0.58277 0.60659 0.2033 0.0
H2032 H 0.65315 0.56506 0.17322 0.0
H2033 H 0.6335 0.56909 0.1949 0.0
C2034 C 0.86664 0.16985 0.9894 0.0
C2035 C 0.87996 0.15934 0.98834 0.0
C2036 C 0.85625 0.16914 0.00279 0.0
C2037 C 0.85354 0.15617 0.04488 0.0
H2038 H 0.81119 0.13847 0.03545 0.0
C2039 C 0.81973 0.10507 0.07676 0.0
C2040 C 0.81438 0.11112 0.09167 0.0
C2041 C 0.82314 0.11556 0.06404 0.0
C2042 C 0.82278 0.14387 0.03827 0.0
H2043 H 0.89323 0.14041 0.00069 0.0
H2044 H 0.87541 0.13947 0.024 0.0
H2045 H 0.82756 0.14999 0.01353 0.0
H2046 H 0.80773 0.13267 0.10489 0.0
H2047 H 0.81438 0.15129 0.08261 0.0
H2048 H 0.84918 0.14915 0.06942 0.0
C2049 C 0.87294 0.14818 0.01455 0.0
C2050 C 0.8321 0.15046 0.02579 0.0
C2051 C 0.88308 0.14866 0.00114 0.0
C2052 C 0.81165 0.12779 0.09339 0.0
C2053 C 0.81546 0.13837 0.08074 0.0
C2054 C 0.8441 0.1499 0.05738 0.0
C2055 C 0.85932 0.15821 0.0154 0.0
C2056 C 0.84786 0.15592 0.0289 0.0
C2057 C 0.82157 0.1323 0.06612 0.0
C2058 C 0.82897 0.14307 0.05403 0.0
H2059 H 0.86393 0.17815 0.97966 0.0
H2060 H 0.84574 0.17693 0.00321 0.0
H2061 H 0.8657 0.16023 0.04752 0.0
H2062 H 0.822 0.09226 0.07527 0.0
H2063 H 0.82809 0.11067 0.05293 0.0
C2064 C 0.33317 0.35445 0.08255 0.0
C2065 C 0.34307 0.35904 0.06959 0.0
C2066 C 0.31887 0.36274 0.08567 0.0
C2067 C 0.28561 0.3853 0.07674 0.0
H2068 H 0.29603 0.41148 0.11426 0.0
C2069 C 0.23649 0.41606 0.11628 0.0
C2070 C 0.23763 0.41029 0.13221 0.0
C2071 C 0.24943 0.414 0.10554 0.0
C2072 C 0.29297 0.40449 0.10362 0.0
H2073 H 0.34541 0.37494 0.04901 0.0
H2074 H 0.32013 0.38975 0.0546 0.0
H2075 H 0.31763 0.39803 0.09926 0.0
H2076 H 0.2533 0.39884 0.14973 0.0
H2077 H 0.27593 0.39567 0.13125 0.0
H2078 H 0.26079 0.39086 0.0818 0.0
C2079 C 0.32345 0.3796 0.06216 0.0
C2080 C 0.30529 0.39686 0.09504 0.0
C2081 C 0.33779 0.37114 0.05894 0.0
C2082 C 0.25216 0.40342 0.13752 0.0
C2083 C 0.26512 0.40167 0.12694 0.0
C2084 C 0.27321 0.39302 0.08531 0.0
C2085 C 0.31429 0.3758 0.07592 0.0
C2086 C 0.30164 0.38674 0.08195 0.0
C2087 C 0.26376 0.40651 0.11074 0.0
C2088 C 0.27676 0.40209 0.09926 0.0
H2089 H 0.33712 0.34519 0.09089 0.0
H2090 H 0.31195 0.35968 0.09636 0.0
H2091 H 0.28259 0.3774 0.06674 0.0
H2092 H 0.22531 0.42123 0.11189 0.0
H2093 H 0.2481 0.41781 0.09309 0.0
C2094 C 0.3469 0.61764 0.43569 0.0
C2095 C 0.34371 0.63421 0.434 0.0
C2096 C 0.33469 0.60628 0.43279 0.0
C2097 C 0.31131 0.58895 0.40982 0.0
H2098 H 0.26609 0.59606 0.41981 0.0
C2099 C 0.26019 0.58301 0.36459 0.0
C2100 C 0.24485 0.5779 0.36962 0.0
C2101 C 0.27297 0.58364 0.37553 0.0
C2102 C 0.27867 0.59357 0.41717 0.0
H2103 H 0.3252 0.65203 0.42934 0.0
H2104 H 0.30385 0.63237 0.42451 0.0
H2105 H 0.28684 0.60977 0.43564 0.0
H2106 H 0.23096 0.56848 0.38972 0.0
H2107 H 0.25333 0.56994 0.40907 0.0
H2108 H 0.30309 0.57367 0.3906 0.0
C2109 C 0.31568 0.62802 0.42801 0.0
C2110 C 0.29054 0.60152 0.42616 0.0
C2111 C 0.3279 0.6393 0.43065 0.0
C2112 C 0.24273 0.57236 0.38553 0.0
C2113 C 0.25548 0.57328 0.3966 0.0
C2114 C 0.29944 0.58112 0.40073 0.0
C2115 C 0.31907 0.61139 0.42847 0.0
C2116 C 0.30694 0.59985 0.4221 0.0
C2117 C 0.27057 0.57942 0.3918 0.0
C2118 C 0.283 0.58392 0.40387 0.0
H2119 H 0.35905 0.61348 0.43816 0.0
H2120 H 0.3376 0.59353 0.43325 0.0
H2121 H 0.32384 0.5875 0.40633 0.0
H2122 H 0.26211 0.58733 0.35238 0.0
H2123 H 0.28439 0.58859 0.3715 0.0
C2124 C 0.87047 0.40148 0.81059 0.0
C2125 C 0.88663 0.4024 0.81565 0.0
C2126 C 0.85996 0.41451 0.8132 0.0
C2127 C 0.84107 0.4379 0.83561 0.0
H2128 H 0.85414 0.48256 0.83003 0.0
C2129 C 0.83336 0.48734 0.88243 0.0
C2130 C 0.83098 0.5034 0.87763 0.0
C2131 C 0.83397 0.47501 0.87096 0.0
C2132 C 0.85002 0.4702 0.83135 0.0
H2133 H 0.90479 0.41783 0.82637 0.0
H2134 H 0.88664 0.44066 0.83063 0.0
H2135 H 0.86848 0.46121 0.81556 0.0
H2136 H 0.82626 0.51919 0.85731 0.0
H2137 H 0.8278 0.49756 0.83705 0.0
H2138 H 0.82346 0.44681 0.85242 0.0
C2139 C 0.882 0.42993 0.82472 0.0
C2140 C 0.85832 0.45799 0.82316 0.0
C2141 C 0.89236 0.41686 0.8224 0.0
C2142 C 0.82799 0.50684 0.86129 0.0
C2143 C 0.82895 0.49451 0.84972 0.0
C2144 C 0.8329 0.45011 0.84397 0.0
C2145 C 0.8656 0.42875 0.82056 0.0
C2146 C 0.85436 0.44169 0.82574 0.0
C2147 C 0.83256 0.47858 0.85442 0.0
C2148 C 0.83776 0.46632 0.84244 0.0
H2149 H 0.86578 0.39038 0.80549 0.0
H2150 H 0.84735 0.41331 0.80993 0.0
H2151 H 0.83784 0.42542 0.83789 0.0
H2152 H 0.8357 0.48443 0.89498 0.0
H2153 H 0.83693 0.4629 0.87495 0.0
C2154 C 0.6507 0.87799 0.4352 0.0
C2155 C 0.65541 0.86215 0.43914 0.0
C2156 C 0.66214 0.88929 0.42998 0.0
C2157 C 0.68573 0.90349 0.40579 0.0
H2158 H 0.73069 0.90311 0.4189 0.0
C2159 C 0.73813 0.9093 0.36176 0.0
C2160 C 0.75244 0.91706 0.36643 0.0
C2161 C 0.72521 0.90805 0.37248 0.0
C2162 C 0.71813 0.90368 0.41527 0.0
H2163 H 0.67604 0.84627 0.44212 0.0
H2164 H 0.69581 0.86567 0.43258 0.0
H2165 H 0.71032 0.89073 0.43627 0.0
H2166 H 0.76427 0.93029 0.38569 0.0
H2167 H 0.74161 0.9279 0.40465 0.0
H2168 H 0.69365 0.91586 0.3845 0.0
C2169 C 0.68334 0.86948 0.43359 0.0
C2170 C 0.70648 0.89644 0.42514 0.0
C2171 C 0.67193 0.85824 0.43883 0.0
C2172 C 0.75329 0.92436 0.38175 0.0
C2173 C 0.7404 0.92289 0.39262 0.0
C2174 C 0.69737 0.91071 0.39594 0.0
C2175 C 0.67853 0.88499 0.42861 0.0
C2176 C 0.69025 0.89568 0.42018 0.0
C2177 C 0.72639 0.91437 0.3882 0.0
C2178 C 0.71377 0.91029 0.40025 0.0
H2179 H 0.63809 0.88144 0.43532 0.0
H2180 H 0.65808 0.90121 0.42644 0.0
H2181 H 0.67338 0.90307 0.40153 0.0
H2182 H 0.73718 0.90356 0.35002 0.0
H2183 H 0.71468 0.90124 0.36877 0.0
C2184 C 0.65274 0.47928 0.36605 0.0
C2185 C 0.64961 0.48369 0.38218 0.0
C2186 C 0.65186 0.49082 0.3537 0.0
C2187 C 0.65781 0.53193 0.34373 0.0
H2188 H 0.61646 0.53519 0.322 0.0
C2189 C 0.6281 0.59176 0.33174 0.0
C2190 C 0.61641 0.59376 0.31964 0.0
C2191 C 0.6361 0.57711 0.33358 0.0
C2192 C 0.62831 0.53429 0.32745 0.0
H2193 H 0.64382 0.50365 0.39813 0.0
H2194 H 0.64286 0.52386 0.37664 0.0
H2195 H 0.62337 0.51056 0.33667 0.0
H2196 H 0.60487 0.58248 0.29909 0.0
H2197 H 0.61905 0.55656 0.3022 0.0
H2198 H 0.66261 0.55582 0.33516 0.0
C2199 C 0.64565 0.51144 0.37356 0.0
C2200 C 0.63221 0.52019 0.3359 0.0
C2201 C 0.6461 0.49988 0.3858 0.0
C2202 C 0.61377 0.58117 0.30857 0.0
C2203 C 0.62182 0.56635 0.31043 0.0
C2204 C 0.65405 0.54591 0.33506 0.0
C2205 C 0.64836 0.50697 0.35744 0.0
C2206 C 0.6466 0.5193 0.34476 0.0
C2207 C 0.63271 0.56401 0.3233 0.0
C2208 C 0.63882 0.54767 0.32771 0.0
H2209 H 0.65551 0.46689 0.36292 0.0
H2210 H 0.6539 0.48718 0.34129 0.0
H2211 H 0.669 0.53142 0.35049 0.0
H2212 H 0.63062 0.60138 0.34024 0.0
H2213 H 0.6442 0.57581 0.34377 0.0
C2214 C 0.239 0.58651 0.63183 0.0
C2215 C 0.25444 0.58117 0.62737 0.0
C2216 C 0.22657 0.58702 0.6205 0.0
C2217 C 0.22165 0.5962 0.57869 0.0
H2218 H 0.17639 0.5891 0.58843 0.0
C2219 C 0.15315 0.61826 0.5587 0.0
C2220 C 0.15573 0.63489 0.56077 0.0
C2221 C 0.16573 0.60729 0.56156 0.0
C2222 C 0.18896 0.59083 0.58524 0.0
H2223 H 0.26893 0.5714 0.60787 0.0
H2224 H 0.24714 0.57271 0.58777 0.0
H2225 H 0.19707 0.57597 0.60483 0.0
H2226 H 0.17346 0.65328 0.56606 0.0
H2227 H 0.19551 0.63431 0.5707 0.0
H2228 H 0.21354 0.61205 0.55989 0.0
C2229 C 0.24465 0.57627 0.60012 0.0
C2230 C 0.20079 0.58339 0.5947 0.0
C2231 C 0.25705 0.57544 0.61161 0.0
C2232 C 0.1713 0.64049 0.56433 0.0
C2233 C 0.1839 0.62961 0.56692 0.0
C2234 C 0.20982 0.60378 0.56933 0.0
C2235 C 0.22942 0.58248 0.60439 0.0
C2236 C 0.21723 0.58657 0.59195 0.0
C2237 C 0.18108 0.61288 0.56624 0.0
C2238 C 0.19336 0.6017 0.57297 0.0
H2239 H 0.23672 0.59101 0.64392 0.0
H2240 H 0.21503 0.59205 0.62411 0.0
H2241 H 0.23423 0.59896 0.57636 0.0
H2242 H 0.14116 0.61373 0.55614 0.0
H2243 H 0.16325 0.59446 0.56095 0.0
C2244 C 0.88941 0.57985 0.67488 0.0
C2245 C 0.88385 0.59366 0.68301 0.0
C2246 C 0.87922 0.56667 0.67247 0.0
C2247 C 0.85535 0.53813 0.67588 0.0
H2248 H 0.82264 0.54922 0.64423 0.0
C2249 C 0.82494 0.4889 0.63821 0.0
C2250 C 0.82946 0.49131 0.62204 0.0
C2251 C 0.82575 0.50174 0.64922 0.0
C2252 C 0.83141 0.54597 0.65337 0.0
H2253 H 0.86358 0.60443 0.69549 0.0
H2254 H 0.84536 0.58133 0.69082 0.0
H2255 H 0.83672 0.57072 0.65894 0.0
H2256 H 0.83687 0.50896 0.60426 0.0
H2257 H 0.83772 0.53146 0.62326 0.0
H2258 H 0.8508 0.51345 0.66964 0.0
C2259 C 0.85774 0.5807 0.68663 0.0
C2260 C 0.83941 0.55823 0.6618 0.0
C2261 C 0.86813 0.5938 0.68937 0.0
C2262 C 0.83328 0.50691 0.61669 0.0
C2263 C 0.8337 0.51977 0.62755 0.0
C2264 C 0.84715 0.52586 0.66768 0.0
C2265 C 0.86317 0.56717 0.6779 0.0
C2266 C 0.85192 0.5544 0.67259 0.0
C2267 C 0.8307 0.51716 0.64406 0.0
C2268 C 0.83564 0.5297 0.65581 0.0
H2269 H 0.90147 0.57956 0.66982 0.0
H2270 H 0.88359 0.55645 0.66552 0.0
H2271 H 0.86504 0.53494 0.68408 0.0
H2272 H 0.82216 0.47689 0.6426 0.0
H2273 H 0.82342 0.49944 0.6619 0.0
C2274 C 0.15832 0.00553 0.61764 0.0
C2275 C 0.14853 0.01888 0.62118 0.0
C2276 C 0.15701 0.99141 0.62676 0.0
C2277 C 0.14157 0.97381 0.6647 0.0
H2278 H 0.1331 0.93622 0.63804 0.0
C2279 C 0.10814 0.91666 0.68715 0.0
C2280 C 0.11154 0.90192 0.67956 0.0
C2281 C 0.11627 0.93072 0.68243 0.0
C2282 C 0.13583 0.94644 0.64575 0.0
H2283 H 0.13029 0.02853 0.63721 0.0
H2284 H 0.12815 0.00382 0.6535 0.0
H2285 H 0.14084 0.96149 0.62538 0.0
H2286 H 0.12655 0.88981 0.662 0.0
H2287 H 0.14137 0.91413 0.65417 0.0
H2288 H 0.1363 0.95873 0.6851 0.0
C2289 C 0.13682 0.00424 0.6437 0.0
C2290 C 0.14021 0.96096 0.63845 0.0
C2291 C 0.13796 0.01829 0.63439 0.0
C2292 C 0.12394 0.90112 0.66807 0.0
C2293 C 0.13221 0.91507 0.66348 0.0
C2294 C 0.13731 0.95917 0.67206 0.0
C2295 C 0.146 0.99051 0.63968 0.0
C2296 C 0.1429 0.97485 0.6478 0.0
C2297 C 0.12795 0.93018 0.67004 0.0
C2298 C 0.13417 0.94535 0.66264 0.0
H2299 H 0.16648 0.0058 0.60739 0.0
H2300 H 0.16428 0.98103 0.62346 0.0
H2301 H 0.14367 0.98434 0.67218 0.0
H2302 H 0.09836 0.91746 0.69582 0.0
H2303 H 0.11257 0.94213 0.68767 0.0
C2304 C 0.6043 0.73501 0.908 0.0
C2305 C 0.62048 0.74004 0.90863 0.0
C2306 C 0.59185 0.74645 0.90801 0.0
C2307 C 0.58235 0.7894 0.91561 0.0
H2308 H 0.56055 0.78827 0.87418 0.0
C2309 C 0.57422 0.84454 0.87726 0.0
C2310 C 0.56171 0.84588 0.86596 0.0
C2311 C 0.57514 0.83121 0.88742 0.0
C2312 C 0.56602 0.78864 0.88606 0.0
H2313 H 0.63651 0.76054 0.91071 0.0
H2314 H 0.61481 0.78056 0.91126 0.0
H2315 H 0.5743 0.76421 0.88402 0.0
H2316 H 0.53978 0.83501 0.85693 0.0
H2317 H 0.54141 0.81122 0.87477 0.0
H2318 H 0.5749 0.8141 0.91723 0.0
C2319 C 0.61167 0.76786 0.91069 0.0
C2320 C 0.57394 0.77483 0.89168 0.0
C2321 C 0.62407 0.75648 0.91027 0.0
C2322 C 0.54949 0.83415 0.86564 0.0
C2323 C 0.55049 0.82058 0.87576 0.0
C2324 C 0.57428 0.80314 0.91008 0.0
C2325 C 0.59547 0.76301 0.90905 0.0
C2326 C 0.583 0.77543 0.90601 0.0
C2327 C 0.56361 0.81878 0.88645 0.0
C2328 C 0.56697 0.80322 0.89474 0.0
H2329 H 0.60131 0.72236 0.90658 0.0
H2330 H 0.57948 0.74244 0.90662 0.0
H2331 H 0.58907 0.79007 0.92681 0.0
H2332 H 0.58372 0.85353 0.87769 0.0
H2333 H 0.58557 0.83015 0.89525 0.0
C2334 C 0.99183 0.1339 0.33033 0.0
C2335 C 0.99328 0.11715 0.3282 0.0
C2336 C 0.00563 0.14334 0.33282 0.0
C2337 C 0.04563 0.13649 0.3504 0.0
H2338 H 0.05123 0.18257 0.34406 0.0
C2339 C 0.09851 0.16921 0.37972 0.0
C2340 C 0.09393 0.1824 0.38927 0.0
C2341 C 0.08784 0.16291 0.3683 0.0
C2342 C 0.04981 0.16968 0.34584 0.0
H2343 H 0.00995 0.0973 0.32502 0.0
H2344 H 0.0341 0.11386 0.32823 0.0
H2345 H 0.02962 0.16827 0.32964 0.0
H2346 H 0.07522 0.19988 0.39424 0.0
H2347 H 0.05641 0.18901 0.37398 0.0
H2348 H 0.06543 0.13785 0.36681 0.0
C2349 C 0.0224 0.11969 0.32876 0.0
C2350 C 0.03746 0.1615 0.33762 0.0
C2351 C 0.00863 0.11022 0.32673 0.0
C2352 C 0.07892 0.18979 0.38677 0.0
C2353 C 0.06826 0.1836 0.3752 0.0
C2354 C 0.05796 0.14458 0.35844 0.0
C2355 C 0.02103 0.13613 0.33295 0.0
C2356 C 0.03513 0.14481 0.33995 0.0
C2357 C 0.07242 0.16976 0.36624 0.0
C2358 C 0.06011 0.16127 0.3564 0.0
H2359 H 0.98003 0.13941 0.33168 0.0
H2360 H 0.00408 0.15594 0.33601 0.0
H2361 H 0.04393 0.12378 0.35299 0.0
H2362 H 0.11001 0.16331 0.38173 0.0
H2363 H 0.09138 0.15228 0.36152 0.0
C2364 C 0.43172 0.67363 0.85644 0.0
C2365 C 0.43668 0.65842 0.86201 0.0
C2366 C 0.42914 0.68627 0.86727 0.0
C2367 C 0.42682 0.71246 0.8929 0.0
H2368 H 0.39444 0.69778 0.92345 0.0
C2369 C 0.38414 0.75736 0.92385 0.0
C2370 C 0.36819 0.75386 0.91919 0.0
C2371 C 0.39617 0.74555 0.92247 0.0
C2372 C 0.4037 0.70205 0.91524 0.0
H2373 H 0.44387 0.64465 0.88299 0.0
H2374 H 0.43912 0.66682 0.90218 0.0
H2375 H 0.41118 0.67803 0.90929 0.0
H2376 H 0.35197 0.73513 0.91087 0.0
H2377 H 0.3728 0.71441 0.90891 0.0
H2378 H 0.41854 0.73642 0.89804 0.0
C2379 C 0.43738 0.66897 0.88939 0.0
C2380 C 0.41336 0.69077 0.90721 0.0
C2381 C 0.44022 0.65637 0.87845 0.0
C2382 C 0.36418 0.73808 0.91455 0.0
C2383 C 0.3761 0.72622 0.9135 0.0
C2384 C 0.41728 0.72375 0.90107 0.0
C2385 C 0.43124 0.68385 0.88394 0.0
C2386 C 0.42448 0.69583 0.89541 0.0
C2387 C 0.39232 0.73003 0.91677 0.0
C2388 C 0.40512 0.71859 0.91175 0.0
H2389 H 0.42887 0.67539 0.84379 0.0
H2390 H 0.42423 0.69752 0.86271 0.0
H2391 H 0.43534 0.71667 0.8839 0.0
H2392 H 0.38758 0.76951 0.92733 0.0
H2393 H 0.40858 0.74877 0.92506 0.0
C2394 C 0.90072 0.34012 0.3713 0.0
C2395 C 0.90213 0.32706 0.38197 0.0
C2396 C 0.91297 0.34354 0.36028 0.0
C2397 C 0.95159 0.32828 0.34242 0.0
H2398 H 0.96073 0.37414 0.33954 0.0
C2399 C 0.01344 0.35762 0.33011 0.0
C2400 C 0.01373 0.3728 0.32258 0.0
C2401 C 0.99892 0.3492 0.33177 0.0
C2402 C 0.95816 0.36131 0.33983 0.0
H2403 H 0.91696 0.30687 0.3892 0.0
H2404 H 0.93895 0.31313 0.37025 0.0
H2405 H 0.93722 0.36508 0.35428 0.0
H2406 H -0.00036 0.39051 0.30959 0.0
H2407 H 0.97413 0.37577 0.31238 0.0
H2408 H 0.97337 0.32469 0.32873 0.0
C2409 C 0.92819 0.32056 0.3701 0.0
C2410 C 0.94462 0.35607 0.34835 0.0
C2411 C 0.91569 0.31697 0.38099 0.0
C2412 C -0.0003 0.37867 0.31518 0.0
C2413 C 0.98511 0.37033 0.31698 0.0
C2414 C 0.96532 0.33357 0.334 0.0
C2415 C 0.92715 0.33417 0.3599 0.0
C2416 C 0.94117 0.33948 0.34989 0.0
C2417 C 0.98443 0.35602 0.32617 0.0
C2418 C 0.9688 0.35015 0.33274 0.0
H2419 H 0.89021 0.34791 0.37176 0.0
H2420 H 0.91148 0.35381 0.35232 0.0
H2421 H 0.94924 0.31543 0.34322 0.0
H2422 H 0.02412 0.35303 0.33611 0.0
H2423 H 0.99881 0.33826 0.33895 0.0
C2424 C 0.57559 0.17089 0.64433 0.0
C2425 C 0.56652 0.1576 0.63895 0.0
C2426 C 0.57937 0.18347 0.63384 0.0
C2427 C 0.57068 0.20811 0.60121 0.0
H2428 H 0.61681 0.20818 0.5927 0.0
C2429 C 0.62434 0.25085 0.5718 0.0
C2430 C 0.62321 0.2637 0.5828 0.0
C2431 C 0.61427 0.23734 0.57356 0.0
C2432 C 0.60386 0.20812 0.59456 0.0
H2433 H 0.55327 0.14759 0.61874 0.0
H2434 H 0.5597 0.17004 0.60026 0.0
H2435 H 0.60452 0.18527 0.6067 0.0
H2436 H 0.61012 0.27332 0.60332 0.0
H2437 H 0.59223 0.25009 0.60603 0.0
H2438 H 0.57032 0.23167 0.59033 0.0
C2439 C 0.56393 0.17048 0.61263 0.0
C2440 C 0.59686 0.19509 0.60263 0.0
C2441 C 0.56019 0.15775 0.62319 0.0
C2442 C 0.61118 0.2635 0.59472 0.0
C2443 C 0.60088 0.25028 0.59619 0.0
C2444 C 0.57774 0.22132 0.59334 0.0
C2445 C 0.57401 0.18309 0.61779 0.0
C2446 C 0.58034 0.19521 0.60642 0.0
C2447 C 0.60271 0.23683 0.58602 0.0
C2448 C 0.59448 0.22161 0.5904 0.0
H2449 H 0.58042 0.17116 0.65649 0.0
H2450 H 0.58703 0.19321 0.63806 0.0
H2451 H 0.55794 0.20843 0.60415 0.0
H2452 H 0.63363 0.25079 0.56259 0.0
H2453 H 0.61596 0.22702 0.56567 0.0
C2454 C 0.40143 0.1626 0.62156 0.0
C2455 C 0.39953 0.17742 0.61356 0.0
C2456 C 0.41376 0.16046 0.63277 0.0
C2457 C 0.45435 0.17344 0.6416 0.0
H2458 H 0.44793 0.14574 0.67887 0.0
C2459 C 0.50757 0.13973 0.67025 0.0
C2460 C 0.50473 0.12309 0.66862 0.0
C2461 C 0.49466 0.15065 0.66936 0.0
C2462 C 0.44992 0.15372 0.66869 0.0
H2463 H 0.40876 0.20175 0.61116 0.0
H2464 H 0.43084 0.1979 0.63074 0.0
H2465 H 0.42461 0.15779 0.66543 0.0
H2466 H 0.48646 0.10459 0.66617 0.0
H2467 H 0.46393 0.12347 0.6652 0.0
H2468 H 0.4796 0.16848 0.64422 0.0
C2469 C 0.4226 0.18802 0.62837 0.0
C2470 C 0.4366 0.16057 0.66096 0.0
C2471 C 0.41002 0.19024 0.61725 0.0
C2472 C 0.48885 0.11739 0.66754 0.0
C2473 C 0.47598 0.12822 0.66705 0.0
C2474 C 0.46771 0.16661 0.64937 0.0
C2475 C 0.4246 0.17305 0.63619 0.0
C2476 C 0.43863 0.16976 0.64683 0.0
C2477 C 0.4788 0.14497 0.66722 0.0
C2478 C 0.46553 0.156 0.66245 0.0
H2479 H 0.39339 0.15259 0.61908 0.0
H2480 H 0.41514 0.1487 0.63835 0.0
H2481 H 0.45629 0.18042 0.6307 0.0
H2482 H 0.5198 0.14434 0.67087 0.0
H2483 H 0.49714 0.1635 0.6695 0.0
C2484 C 0.38958 0.23582 0.58292 0.0
C2485 C 0.37347 0.24041 0.5803 0.0
C2486 C 0.40157 0.2476 0.58477 0.0
C2487 C 0.41054 0.29116 0.5801 0.0
H2488 H 0.42781 0.28853 0.62357 0.0
C2489 C 0.41717 0.34588 0.62029 0.0
C2490 C 0.42943 0.34694 0.63191 0.0
C2491 C 0.41589 0.33235 0.61039 0.0
C2492 C 0.42355 0.28933 0.61122 0.0
H2493 H 0.35724 0.26051 0.57659 0.0
H2494 H 0.3782 0.28111 0.57912 0.0
H2495 H 0.41536 0.26478 0.61134 0.0
H2496 H 0.4504 0.33508 0.64197 0.0
H2497 H 0.44808 0.31095 0.62464 0.0
H2498 H 0.41793 0.31593 0.58028 0.0
C2499 C 0.38166 0.2685 0.57981 0.0
C2500 C 0.4164 0.27571 0.60421 0.0
C2501 C 0.36965 0.25677 0.57837 0.0
C2502 C 0.44088 0.33448 0.63302 0.0
C2503 C 0.43949 0.32072 0.62319 0.0
C2504 C 0.41779 0.30472 0.58704 0.0
C2505 C 0.3976 0.26408 0.58368 0.0
C2506 C 0.40909 0.27676 0.58893 0.0
C2507 C 0.42681 0.31943 0.61193 0.0
C2508 C 0.42356 0.30419 0.60301 0.0
H2509 H 0.39268 0.22322 0.58474 0.0
H2510 H 0.41374 0.2439 0.58782 0.0
H2511 H 0.40516 0.29222 0.56821 0.0
H2512 H 0.40829 0.35542 0.61913 0.0
H2513 H 0.40581 0.33168 0.60209 0.0
C2514 C 0.48797 0.3563 0.66446 0.0
C2515 C 0.48851 0.37225 0.67019 0.0
C2516 C 0.50232 0.3478 0.6617 0.0
C2517 C 0.53869 0.36007 0.64436 0.0
H2518 H 0.55666 0.31728 0.6508 0.0
C2519 C 0.59768 0.34358 0.61396 0.0
C2520 C 0.59891 0.3284 0.60654 0.0
C2521 C 0.58513 0.34689 0.62463 0.0
C2522 C 0.55167 0.32921 0.64881 0.0
H2523 H 0.50393 0.39134 0.67909 0.0
H2524 H 0.52901 0.37648 0.67443 0.0
H2525 H 0.53279 0.32584 0.66645 0.0
H2526 H 0.58851 0.30448 0.60496 0.0
H2527 H 0.56593 0.31043 0.62336 0.0
H2528 H 0.55665 0.36342 0.62629 0.0
C2529 C 0.5176 0.37048 0.67217 0.0
C2530 C 0.53815 0.3341 0.65783 0.0
C2531 C 0.5033 0.37894 0.67491 0.0
C2532 C 0.58771 0.3163 0.61053 0.0
C2533 C 0.57488 0.3197 0.62109 0.0
C2534 C 0.55191 0.35516 0.63527 0.0
C2535 C 0.51725 0.35532 0.66452 0.0
C2536 C 0.53177 0.3497 0.65581 0.0
C2537 C 0.57325 0.3352 0.62793 0.0
C2538 C 0.55877 0.3398 0.63752 0.0
H2539 H 0.47664 0.35109 0.66047 0.0
H2540 H 0.50178 0.33618 0.65567 0.0
H2541 H 0.53364 0.37196 0.64219 0.0
H2542 H 0.60643 0.35297 0.6114 0.0
H2543 H 0.58456 0.35879 0.63007 0.0
C2544 C 0.91653 0.60604 0.73546 0.0
C2545 C 0.91752 0.622 0.74118 0.0
C2546 C 0.91388 0.59332 0.7463 0.0
C2547 C 0.8908 0.5771 0.77048 0.0
H2548 H 0.90864 0.57331 0.81361 0.0
C2549 C 0.85305 0.5695 0.82735 0.0
C2550 C 0.85905 0.56068 0.84053 0.0
C2551 C 0.86202 0.57087 0.81317 0.0
C2552 C 0.90369 0.57386 0.80151 0.0
H2553 H 0.91818 0.63712 0.76248 0.0
H2554 H 0.91428 0.61492 0.78143 0.0
H2555 H 0.92396 0.58733 0.79263 0.0
H2556 H 0.87858 0.54551 0.84892 0.0
H2557 H 0.89453 0.54803 0.824 0.0
H2558 H 0.86999 0.56476 0.77967 0.0
C2559 C 0.91533 0.61216 0.76868 0.0
C2560 C 0.91244 0.58195 0.78954 0.0
C2561 C 0.91753 0.62488 0.75786 0.0
C2562 C 0.8737 0.55231 0.83887 0.0
C2563 C 0.88283 0.55385 0.8247 0.0
C2564 C 0.88198 0.56917 0.7825 0.0
C2565 C 0.91265 0.59639 0.76296 0.0
C2566 C 0.90578 0.58421 0.77411 0.0
C2567 C 0.87728 0.56355 0.8119 0.0
C2568 C 0.88806 0.56807 0.79831 0.0
H2569 H 0.91631 0.60358 0.72261 0.0
H2570 H 0.91184 0.58127 0.74161 0.0
H2571 H 0.8853 0.57881 0.75873 0.0
H2572 H 0.84172 0.57597 0.82833 0.0
H2573 H 0.85747 0.57858 0.80362 0.0
C2574 C 0.80779 0.88247 0.4161 0.0
C2575 C 0.8152 0.88397 0.40098 0.0
C2576 C 0.8132 0.87085 0.42708 0.0
C2577 C 0.8509 0.85115 0.43759 0.0
H2578 H 0.82473 0.8278 0.46868 0.0
C2579 C 0.88181 0.82276 0.49117 0.0
C2580 C 0.87505 0.82765 0.50587 0.0
C2581 C 0.8727 0.82354 0.47702 0.0
C2582 C 0.83219 0.83419 0.46003 0.0
H2583 H 0.83361 0.87464 0.38503 0.0
H2584 H 0.84327 0.85423 0.40421 0.0
H2585 H 0.81176 0.84127 0.44574 0.0
H2586 H 0.85343 0.83608 0.51787 0.0
H2587 H 0.83752 0.8379 0.49312 0.0
H2588 H 0.87118 0.84501 0.45214 0.0
C2589 C 0.83319 0.86186 0.40761 0.0
C2590 C 0.82477 0.84189 0.44693 0.0
C2591 C 0.82765 0.87338 0.39662 0.0
C2592 C 0.85874 0.83206 0.50658 0.0
C2593 C 0.84965 0.83306 0.4924 0.0
C2594 C 0.85827 0.84354 0.45065 0.0
C2595 C 0.82632 0.86077 0.42313 0.0
C2596 C 0.83405 0.85072 0.43576 0.0
C2597 C 0.85683 0.82966 0.47736 0.0
C2598 C 0.84901 0.83523 0.46221 0.0
H2599 H 0.7983 0.89077 0.41963 0.0
H2600 H 0.8078 0.87045 0.43899 0.0
H2601 H 0.85836 0.85815 0.42943 0.0
H2602 H 0.89445 0.81941 0.49046 0.0
H2603 H 0.87845 0.82049 0.46566 0.0
C2604 C 0.12945 0.94172 0.83616 0.0
C2605 C 0.13012 0.93007 0.84847 0.0
C2606 C 0.11916 0.93948 0.82286 0.0
C2607 C 0.08481 0.91393 0.80828 0.0
H2608 H 0.10664 0.91577 0.76688 0.0
C2609 C 0.07998 0.86631 0.75918 0.0
C2610 C 0.07929 0.87091 0.74292 0.0
C2611 C 0.0809 0.878 0.77129 0.0
C2612 C 0.10018 0.91558 0.77827 0.0
H2613 H 0.11988 0.90762 0.85715 0.0
H2614 H 0.10225 0.9036 0.8342 0.0
H2615 H 0.11868 0.92905 0.7903 0.0
H2616 H 0.0785 0.89118 0.72639 0.0
H2617 H 0.08078 0.91178 0.74769 0.0
H2618 H 0.06709 0.8992 0.7965 0.0
C2619 C 0.10946 0.91451 0.83463 0.0
C2620 C 0.10706 0.9232 0.7917 0.0
C2621 C 0.11975 0.91668 0.84772 0.0
C2622 C 0.07879 0.8874 0.73892 0.0
C2623 C 0.08018 0.89914 0.75104 0.0
C2624 C 0.07806 0.90616 0.79492 0.0
C2625 C 0.10922 0.92569 0.82186 0.0
C2626 C 0.09987 0.92173 0.80703 0.0
C2627 C 0.0816 0.8945 0.7673 0.0
C2628 C 0.08607 0.90628 0.77999 0.0
H2629 H 0.13737 0.95213 0.83649 0.0
H2630 H 0.11922 0.94833 0.81321 0.0
H2631 H 0.07877 0.91291 0.81985 0.0
H2632 H 0.0805 0.85365 0.76248 0.0
H2633 H 0.08219 0.87409 0.78371 0.0
C2634 C 0.11607 0.661 0.48982 0.0
C2635 C 0.1206 0.66676 0.50509 0.0
C2636 C 0.12722 0.66048 0.47722 0.0
C2637 C 0.16974 0.65333 0.47178 0.0
H2638 H 0.15805 0.65675 0.42656 0.0
C2639 C 0.18866 0.62816 0.40389 0.0
C2640 C 0.18924 0.61171 0.40799 0.0
C2641 C 0.18514 0.63978 0.4157 0.0
C2642 C 0.16178 0.65606 0.43908 0.0
H2643 H 0.14005 0.67738 0.51901 0.0
H2644 H 0.15979 0.67623 0.49689 0.0
H2645 H 0.14144 0.66998 0.44696 0.0
H2646 H 0.1882 0.59462 0.42773 0.0
H2647 H 0.18205 0.6147 0.44829 0.0
H2648 H 0.18958 0.63866 0.46396 0.0
C2649 C 0.14754 0.67222 0.4947 0.0
C2650 C 0.15217 0.66354 0.45078 0.0
C2651 C 0.13624 0.67297 0.5073 0.0
C2652 C 0.18767 0.60722 0.42427 0.0
C2653 C 0.18429 0.61878 0.43605 0.0
C2654 C 0.17934 0.64581 0.46008 0.0
C2655 C 0.14324 0.66554 0.47966 0.0
C2656 C 0.15561 0.66159 0.46729 0.0
C2657 C 0.18233 0.63511 0.43181 0.0
C2658 C 0.17502 0.64646 0.44366 0.0
H2659 H 0.10407 0.65617 0.48781 0.0
H2660 H 0.12355 0.65508 0.46587 0.0
H2661 H 0.17269 0.65155 0.48441 0.0
H2662 H 0.18977 0.6319 0.3914 0.0
H2663 H 0.18383 0.65229 0.4121 0.0
C2664 C 0.86342 0.41072 0.65807 0.0
C2665 C 0.85526 0.42547 0.65628 0.0
C2666 C 0.87469 0.40868 0.67035 0.0
C2667 C 0.88445 0.42051 0.71069 0.0
H2668 H 0.92419 0.39755 0.70105 0.0
C2669 C 0.91806 0.38624 0.76028 0.0
C2670 C 0.9181 0.36978 0.75612 0.0
C2671 C 0.91577 0.39798 0.74833 0.0
C2672 C 0.9133 0.40423 0.70395 0.0
H2673 H 0.85224 0.44959 0.66589 0.0
H2674 H 0.87182 0.44582 0.68802 0.0
H2675 H 0.90844 0.40936 0.67908 0.0
H2676 H 0.91724 0.35262 0.73644 0.0
H2677 H 0.91382 0.37299 0.71554 0.0
H2678 H 0.88863 0.41426 0.73542 0.0
C2679 C 0.86961 0.436 0.67966 0.0
C2680 C 0.90429 0.41094 0.69141 0.0
C2681 C 0.85848 0.43815 0.66709 0.0
C2682 C 0.91735 0.36527 0.73984 0.0
C2683 C 0.91544 0.37696 0.72791 0.0
C2684 C 0.89346 0.41375 0.72326 0.0
C2685 C 0.87793 0.42128 0.68124 0.0
C2686 C 0.88938 0.41837 0.6946 0.0
C2687 C 0.91387 0.39336 0.73209 0.0
C2688 C 0.9075 0.40478 0.71988 0.0
H2689 H 0.86128 0.40084 0.64977 0.0
H2690 H 0.88071 0.39711 0.67148 0.0
H2691 H 0.87296 0.42615 0.71344 0.0
H2692 H 0.91841 0.38992 0.77284 0.0
H2693 H 0.91458 0.41053 0.75185 0.0
C2694 C 0.60902 0.8375 0.51374 0.0
C2695 C 0.61369 0.83084 0.49887 0.0
C2696 C 0.62012 0.83881 0.52636 0.0
C2697 C 0.66219 0.84733 0.53125 0.0
H2698 H 0.6523 0.8435 0.5769 0.0
C2699 C 0.68541 0.87111 0.59817 0.0
C2700 C 0.68456 0.88777 0.59509 0.0
C2701 C 0.68103 0.85999 0.58617 0.0
C2702 C 0.65546 0.84435 0.56422 0.0
H2703 H 0.63332 0.81946 0.48574 0.0
H2704 H 0.65289 0.82209 0.50778 0.0
H2705 H 0.63517 0.82994 0.55703 0.0
H2706 H 0.67974 0.90591 0.57696 0.0
H2707 H 0.67252 0.88657 0.55585 0.0
H2708 H 0.68178 0.8627 0.53839 0.0
C2709 C 0.64059 0.82613 0.5097 0.0
C2710 C 0.6456 0.83667 0.55287 0.0
C2711 C 0.62936 0.82452 0.49716 0.0
C2712 C 0.68053 0.8931 0.57952 0.0
C2713 C 0.67647 0.88202 0.56747 0.0
C2714 C 0.67193 0.85519 0.5426 0.0
C2715 C 0.63618 0.83374 0.52423 0.0
C2716 C 0.64854 0.83856 0.53626 0.0
C2717 C 0.67607 0.86539 0.57085 0.0
C2718 C 0.66831 0.85424 0.55916 0.0
H2719 H 0.59702 0.84249 0.51534 0.0
H2720 H 0.61642 0.84487 0.53736 0.0
H2721 H 0.66467 0.8491 0.51852 0.0
H2722 H 0.6883 0.86677 0.61016 0.0
H2723 H 0.68084 0.84722 0.58908 0.0
C2724 C 0.06966 0.13246 0.74681 0.0
C2725 C 0.07771 0.12619 0.7603 0.0
C2726 C 0.07199 0.1254 0.73161 0.0
C2727 C 0.09184 0.09141 0.70947 0.0
H2728 H 0.1085 0.126 0.68265 0.0
C2729 C 0.13949 0.081 0.65922 0.0
C2730 C 0.1387 0.09072 0.64533 0.0
C2731 C 0.12902 0.08378 0.67223 0.0
C2732 C 0.10363 0.11615 0.68974 0.0
H2733 H 0.09297 0.10691 0.76912 0.0
H2734 H 0.0968 0.0944 0.74277 0.0
H2735 H 0.09312 0.13251 0.70669 0.0
H2736 H 0.12577 0.11038 0.63385 0.0
H2737 H 0.10747 0.1151 0.65631 0.0
H2738 H 0.10281 0.07505 0.69264 0.0
C2739 C 0.08874 0.10467 0.74371 0.0
C2740 C 0.09471 0.1199 0.70354 0.0
C2741 C 0.08656 0.11182 0.75881 0.0
C2742 C 0.12698 0.10297 0.64455 0.0
C2743 C 0.11645 0.10565 0.65744 0.0
C2744 C 0.10069 0.08763 0.69555 0.0
C2745 C 0.08232 0.11198 0.72981 0.0
C2746 C 0.08898 0.10762 0.71374 0.0
C2747 C 0.11745 0.09624 0.67154 0.0
C2748 C 0.10696 0.09998 0.68568 0.0
H2749 H 0.06295 0.14366 0.74772 0.0
H2750 H 0.06674 0.13116 0.7211 0.0
H2751 H 0.08756 0.08169 0.71711 0.0
H2752 H 0.14842 0.07149 0.66014 0.0
H2753 H 0.13029 0.07644 0.68298 0.0
C2754 C 0.32493 0.62896 0.60069 0.0
C2755 C 0.31453 0.61618 0.59685 0.0
C2756 C 0.33004 0.63964 0.58872 0.0
C2757 C 0.32498 0.65383 0.54687 0.0
H2758 H 0.37168 0.65078 0.54577 0.0
C2759 C 0.36342 0.6648 0.48955 0.0
C2760 C 0.37979 0.66863 0.49152 0.0
C2761 C 0.35345 0.663 0.50308 0.0
C2762 C 0.35869 0.65228 0.54602 0.0
H2763 H 0.30053 0.60486 0.57801 0.0
H2764 H 0.30927 0.62381 0.55684 0.0
H2765 H 0.35704 0.63953 0.56835 0.0
H2766 H 0.39837 0.67518 0.50861 0.0
H2767 H 0.38077 0.67333 0.53218 0.0
H2768 H 0.32668 0.66652 0.52435 0.0
C2769 C 0.31334 0.62568 0.56913 0.0
C2770 C 0.35028 0.64569 0.55899 0.0
C2771 C 0.30832 0.61489 0.58116 0.0
C2772 C 0.38575 0.67215 0.50692 0.0
C2773 C 0.37569 0.67086 0.52039 0.0
C2774 C 0.33345 0.66072 0.5339 0.0
C2775 C 0.32482 0.63769 0.57269 0.0
C2776 C 0.33336 0.64622 0.55949 0.0
C2777 C 0.35968 0.6653 0.51875 0.0
C2778 C 0.35045 0.65983 0.53322 0.0
H2779 H 0.33002 0.62988 0.61271 0.0
H2780 H 0.33887 0.64882 0.59176 0.0
H2781 H 0.3119 0.65435 0.54698 0.0
H2782 H 0.35868 0.66187 0.4777 0.0
H2783 H 0.34125 0.65865 0.50126 0.0
C2784 C 0.82644 0.85449 0.56958 0.0
C2785 C 0.84155 0.85996 0.56422 0.0
C2786 C 0.8139 0.8654 0.57238 0.0
C2787 C 0.78765 0.89118 0.5734 0.0
H2788 H 0.80109 0.92176 0.60629 0.0
C2789 C 0.74117 0.92265 0.61422 0.0
C2790 C 0.74399 0.91795 0.63028 0.0
C2791 C 0.75343 0.92112 0.60264 0.0
C2792 C 0.79718 0.91355 0.59687 0.0
H2793 H 0.85531 0.88092 0.55686 0.0
H2794 H 0.83337 0.90025 0.56215 0.0
H2795 H 0.82147 0.9074 0.59042 0.0
H2796 H 0.76196 0.9093 0.64717 0.0
H2797 H 0.78343 0.9071 0.62716 0.0
H2798 H 0.76339 0.89655 0.58057 0.0
C2799 C 0.8312 0.88746 0.56395 0.0
C2800 C 0.80882 0.9054 0.58773 0.0
C2801 C 0.84368 0.87645 0.56084 0.0
C2802 C 0.75953 0.91304 0.63486 0.0
C2803 C 0.77183 0.91185 0.62341 0.0
C2804 C 0.77601 0.89949 0.58239 0.0
C2805 C 0.81633 0.88206 0.57014 0.0
C2806 C 0.80417 0.89359 0.57645 0.0
C2807 C 0.76873 0.91524 0.60707 0.0
C2808 C 0.78069 0.91017 0.59474 0.0
H2809 H 0.82458 0.84182 0.57227 0.0
H2810 H 0.80266 0.8609 0.57734 0.0
H2811 H 0.78376 0.88217 0.56473 0.0
H2812 H 0.72921 0.9263 0.61038 0.0
H2813 H 0.75075 0.92379 0.59011 0.0
C2814 C 0.85165 0.12103 0.91194 0.0
C2815 C 0.85011 0.13266 0.92414 0.0
C2816 C 0.83913 0.11021 0.90885 0.0
C2817 C 0.7987 0.09592 0.92344 0.0
H2818 H 0.79111 0.09103 0.87748 0.0
C2819 C 0.73726 0.0906 0.89202 0.0
C2820 C 0.73622 0.08154 0.87775 0.0
C2821 C 0.75159 0.09089 0.90087 0.0
C2822 C 0.79323 0.09187 0.89037 0.0
H2823 H 0.83482 0.14196 0.9431 0.0
H2824 H 0.81238 0.12349 0.93733 0.0
H2825 H 0.81571 0.10375 0.88669 0.0
H2826 H 0.74857 0.06472 0.86203 0.0
H2827 H 0.77393 0.06542 0.87736 0.0
H2828 H 0.77537 0.08508 0.92683 0.0
C2829 C 0.82342 0.1223 0.93042 0.0
C2830 C 0.8074 0.0992 0.8957 0.0
C2831 C 0.83617 0.13294 0.93371 0.0
C2832 C 0.74915 0.07165 0.87312 0.0
C2833 C 0.76362 0.07213 0.88183 0.0
C2834 C 0.78435 0.08876 0.91805 0.0
C2835 C 0.82458 0.1111 0.91761 0.0
C2836 C 0.81024 0.1016 0.9123 0.0
C2837 C 0.7652 0.0824 0.89531 0.0
C2838 C 0.78138 0.08693 0.90144 0.0
H2839 H 0.86244 0.12064 0.90453 0.0
H2840 H 0.84068 0.1015 0.8992 0.0
H2841 H 0.80057 0.09735 0.93631 0.0
H2842 H 0.72737 0.09838 0.89569 0.0
H2843 H 0.75247 0.09898 0.91112 0.0
C2844 C 0.32559 0.99236 0.37414 0.0
C2845 C 0.327 0.00834 0.36881 0.0
C2846 C 0.3255 0.97968 0.36305 0.0
C2847 C 0.34499 0.9706 0.32521 0.0
H2848 H 0.32611 0.92847 0.33318 0.0
C2849 C 0.37523 0.91227 0.302 0.0
C2850 C 0.37881 0.90211 0.31507 0.0
C2851 C 0.36386 0.9247 0.30379 0.0
C2852 C 0.33134 0.9402 0.33061 0.0
H2853 H 0.32861 0.02394 0.34792 0.0
H2854 H 0.32868 0.00163 0.3283 0.0
H2855 H 0.31368 0.95254 0.34496 0.0
H2856 H 0.37293 0.89612 0.33978 0.0
H2857 H 0.35285 0.91748 0.34289 0.0
H2858 H 0.36324 0.95816 0.31173 0.0
C2859 C 0.32742 0.9989 0.34104 0.0
C2860 C 0.32424 0.95396 0.33735 0.0
C2861 C 0.32724 0.01164 0.3522 0.0
C2862 C 0.37024 0.90385 0.32957 0.0
C2863 C 0.3587 0.91599 0.33127 0.0
C2864 C 0.35206 0.95684 0.31841 0.0
C2865 C 0.32718 0.98275 0.34641 0.0
C2866 C 0.3315 0.9692 0.33545 0.0
C2867 C 0.35571 0.92685 0.31857 0.0
C2868 C 0.34577 0.94143 0.32175 0.0
H2869 H 0.3256 0.98962 0.38694 0.0
H2870 H 0.32552 0.96743 0.36765 0.0
H2871 H 0.35099 0.98213 0.3236 0.0
H2872 H 0.38189 0.91114 0.29079 0.0
H2873 H 0.36181 0.93294 0.29383 0.0
C2874 C 0.1722 0.35249 0.93397 0.0
C2875 C 0.15854 0.36081 0.93949 0.0
C2876 C 0.18621 0.36092 0.92998 0.0
C2877 C 0.20652 0.40076 0.92769 0.0
H2878 H 0.21315 0.38748 0.88322 0.0
C2879 C 0.25877 0.42037 0.88474 0.0
C2880 C 0.25515 0.4204 0.86815 0.0
C2881 C 0.24667 0.41697 0.89604 0.0
C2882 C 0.21133 0.39151 0.89555 0.0
H2883 H 0.14909 0.38398 0.94684 0.0
H2884 H 0.17364 0.39897 0.93968 0.0
H2885 H 0.1949 0.3723 0.90019 0.0
H2886 H 0.23601 0.41923 0.85043 0.0
H2887 H 0.21474 0.41405 0.87017 0.0
H2888 H 0.22313 0.42013 0.92274 0.0
C2889 C 0.17365 0.38592 0.93864 0.0
C2890 C 0.2011 0.38258 0.90539 0.0
C2891 C 0.15965 0.37739 0.94279 0.0
C2892 C 0.23906 0.41909 0.86316 0.0
C2893 C 0.22695 0.41603 0.87445 0.0
C2894 C 0.217 0.40969 0.91778 0.0
C2895 C 0.18661 0.37786 0.93118 0.0
C2896 C 0.19858 0.38704 0.92156 0.0
C2897 C 0.23084 0.41378 0.89083 0.0
C2898 C 0.21934 0.40521 0.90155 0.0
H2899 H 0.17145 0.3397 0.93126 0.0
H2900 H 0.19614 0.35438 0.9245 0.0
H2901 H 0.20467 0.40449 0.9401 0.0
H2902 H 0.27116 0.42127 0.88884 0.0
H2903 H 0.25001 0.41534 0.90858 0.0
C2904 C 0.16954 0.00708 0.87549 0.0
C2905 C 0.16722 0.99116 0.8703 0.0
C2906 C 0.16659 0.01994 0.86502 0.0
C2907 C 0.13813 0.02843 0.83298 0.0
H2908 H 0.1563 0.07144 0.83679 0.0
C2909 C 0.10417 0.08634 0.8123 0.0
C2910 C 0.10324 0.09803 0.82458 0.0
C2911 C 0.11469 0.07317 0.81379 0.0
C2912 C 0.15116 0.05947 0.8355 0.0
H2913 H 0.16101 0.97587 0.85003 0.0
H2914 H 0.15586 0.99842 0.83152 0.0
H2915 H 0.17202 0.0481 0.8457 0.0
H2916 H 0.1129 0.10545 0.84775 0.0
H2917 H 0.13122 0.08258 0.85036 0.0
H2918 H 0.11698 0.0399 0.82347 0.0
C2919 C 0.16004 0.00101 0.84364 0.0
C2920 C 0.16015 0.04612 0.84056 0.0
C2921 C 0.16317 0.98812 0.85413 0.0
C2922 C 0.11319 0.09649 0.83822 0.0
C2923 C 0.12385 0.08352 0.83959 0.0
C2924 C 0.12917 0.04178 0.82783 0.0
C2925 C 0.16096 0.01706 0.84923 0.0
C2926 C 0.15346 0.03052 0.84003 0.0
C2927 C 0.12469 0.07169 0.82744 0.0
C2928 C 0.13534 0.05747 0.82969 0.0
H2929 H 0.17235 0.00961 0.88803 0.0
H2930 H 0.16726 0.0321 0.86981 0.0
H2931 H 0.13251 0.01662 0.83257 0.0
H2932 H 0.0966 0.0873 0.80169 0.0
H2933 H 0.11508 0.06418 0.80428 0.0
C2934 C 0.75611 0.08571 0.10723 0.0
C2935 C 0.75594 0.07935 0.12291 0.0
C2936 C 0.74166 0.08766 0.09877 0.0
C2937 C 0.70247 0.09981 0.11159 0.0
H2938 H 0.692 0.10188 0.06598 0.0
C2939 C 0.64706 0.13465 0.09105 0.0
C2940 C 0.64878 0.14467 0.07751 0.0
C2941 C 0.65867 0.12303 0.09457 0.0
C2942 C 0.69483 0.10143 0.07875 0.0
H2943 H 0.74126 0.06843 0.14153 0.0
H2944 H 0.71592 0.07158 0.12668 0.0
H2945 H 0.71498 0.08546 0.07504 0.0
H2946 H 0.66347 0.1501 0.05662 0.0
H2947 H 0.68443 0.13011 0.06315 0.0
H2948 H 0.68329 0.11645 0.11542 0.0
C2949 C 0.72712 0.07513 0.1209 0.0
C2950 C 0.70785 0.09193 0.08392 0.0
C2951 C 0.74157 0.07322 0.12935 0.0
C2952 C 0.66205 0.14252 0.06719 0.0
C2953 C 0.6739 0.13102 0.07088 0.0
C2954 C 0.68968 0.10937 0.10645 0.0
C2955 C 0.72693 0.08344 0.10607 0.0
C2956 C 0.71183 0.09114 0.1004 0.0
C2957 C 0.67247 0.12135 0.08481 0.0
C2958 C 0.68572 0.11041 0.08998 0.0
H2959 H 0.76714 0.09065 0.10219 0.0
H2960 H 0.74188 0.09413 0.0874 0.0
H2961 H 0.70556 0.09992 0.12431 0.0
H2962 H 0.63667 0.13578 0.09892 0.0
H2963 H 0.65691 0.11549 0.10512 0.0
C2964 C 0.3762 0.09505 0.16412 0.0
C2965 C 0.38475 0.09693 0.1786 0.0
C2966 C 0.36474 0.08285 0.16251 0.0
C2967 C 0.35711 0.04221 0.17565 0.0
H2968 H 0.31847 0.04784 0.14978 0.0
C2969 C 0.32847 0.98838 0.14286 0.0
C2970 C 0.3286 0.99146 0.12619 0.0
C2971 C 0.32971 0.0012 0.15385 0.0
C2972 C 0.32907 0.04606 0.15724 0.0
H2973 H 0.38795 0.08797 0.2029 0.0
H2974 H 0.36799 0.06602 0.19998 0.0
H2975 H 0.33191 0.07145 0.1613 0.0
H2976 H 0.32894 0.01 0.10781 0.0
H2977 H 0.33056 0.03237 0.12684 0.0
H2978 H 0.35496 0.01694 0.17058 0.0
C2979 C 0.37003 0.07421 0.18998 0.0
C2980 C 0.33676 0.05956 0.1638 0.0
C2981 C 0.38134 0.08671 0.19169 0.0
C2982 C 0.32864 0.00743 0.12065 0.0
C2983 C 0.32952 0.02021 0.13157 0.0
C2984 C 0.34941 0.02869 0.16905 0.0
C2985 C 0.36175 0.07208 0.17529 0.0
C2986 C 0.35131 0.05783 0.17236 0.0
C2987 C 0.33077 0.01722 0.14825 0.0
C2988 C 0.3358 0.03059 0.15908 0.0
H2989 H 0.37867 0.10287 0.15392 0.0
H2990 H 0.35879 0.08136 0.15095 0.0
H2991 H 0.36835 0.04052 0.18212 0.0
H2992 H 0.32873 0.97607 0.14731 0.0
H2993 H 0.33067 0.99857 0.16663 0.0
C2994 C 0.60805 0.41643 0.17104 0.0
C2995 C 0.61403 0.40179 0.1771 0.0
C2996 C 0.61842 0.4294 0.16826 0.0
C2997 C 0.64279 0.45703 0.16951 0.0
H2998 H 0.67485 0.44663 0.13691 0.0
C2999 C 0.67279 0.50705 0.13254 0.0
C3000 C 0.66835 0.50507 0.11628 0.0
C3001 C 0.67187 0.49398 0.14323 0.0
C3002 C 0.66622 0.44968 0.14628 0.0
H3003 H 0.63537 0.38926 0.1855 0.0
H3004 H 0.65379 0.41198 0.18016 0.0
H3005 H 0.66106 0.42482 0.15139 0.0
H3006 H 0.66102 0.48779 0.09806 0.0
H3007 H 0.65982 0.46492 0.11656 0.0
H3008 H 0.64721 0.48183 0.16375 0.0
C3009 C 0.641 0.41342 0.17782 0.0
C3010 C 0.65839 0.43723 0.15459 0.0
C3011 C 0.63051 0.40051 0.18093 0.0
C3012 C 0.66444 0.4896 0.11056 0.0
C3013 C 0.66387 0.47651 0.12114 0.0
C3014 C 0.65079 0.46946 0.16139 0.0
C3015 C 0.63505 0.42789 0.17124 0.0
C3016 C 0.64609 0.44082 0.16573 0.0
C3017 C 0.66687 0.47872 0.1377 0.0
C3018 C 0.66203 0.46588 0.14917 0.0
H3019 H 0.59538 0.41768 0.16806 0.0
H3020 H 0.61356 0.44035 0.16299 0.0
H3021 H 0.63337 0.46006 0.17808 0.0
H3022 H 0.67575 0.51891 0.13724 0.0
H3023 H 0.67424 0.49597 0.15595 0.0
C3024 C 0.28345 0.07055 0.3863 0.0
C3025 C 0.29094 0.0775 0.39989 0.0
C3026 C 0.26792 0.07533 0.38174 0.0
C3027 C 0.23069 0.09116 0.39782 0.0
H3028 H 0.2237 0.11346 0.3572 0.0
C3029 C 0.19039 0.14609 0.37912 0.0
C3030 C 0.17614 0.14176 0.3873 0.0
C3031 C 0.20184 0.13438 0.37516 0.0
C3032 C 0.22539 0.10699 0.36844 0.0
H3033 H 0.28801 0.09467 0.41947 0.0
H3034 H 0.26069 0.10267 0.41175 0.0
H3035 H 0.24973 0.10026 0.36244 0.0
H3036 H 0.16166 0.12159 0.3956 0.0
H3037 H 0.18176 0.10108 0.38873 0.0
H3038 H 0.2069 0.09848 0.40434 0.0
C3039 C 0.26693 0.09365 0.40458 0.0
C3040 C 0.24023 0.09944 0.37141 0.0
C3041 C 0.28254 0.08912 0.40896 0.0
C3042 C 0.17273 0.12531 0.38971 0.0
C3043 C 0.18419 0.11358 0.38571 0.0
C3044 C 0.21587 0.09849 0.3948 0.0
C3045 C 0.25954 0.08685 0.39092 0.0
C3046 C 0.24314 0.09204 0.38639 0.0
C3047 C 0.19926 0.11813 0.37933 0.0
C3048 C 0.21326 0.10703 0.38036 0.0
H3049 H 0.28971 0.06164 0.37901 0.0
H3050 H 0.26239 0.06997 0.37115 0.0
H3051 H 0.23271 0.08544 0.40942 0.0
H3052 H 0.19341 0.15867 0.37709 0.0
H3053 H 0.21334 0.13832 0.37031 0.0
C3054 C 0.32197 0.46415 0.86393 0.0
C3055 C 0.32339 0.46119 0.84723 0.0
C3056 C 0.32916 0.47772 0.87086 0.0
C3057 C 0.36374 0.50317 0.86394 0.0
H3058 H 0.3454 0.53268 0.89551 0.0
C3059 C 0.38207 0.56755 0.87638 0.0
C3060 C 0.39862 0.56445 0.87802 0.0
C3061 C 0.37089 0.55563 0.88047 0.0
C3062 C 0.35066 0.5243 0.88693 0.0
H3063 H 0.33224 0.47084 0.82453 0.0
H3064 H 0.34472 0.49463 0.83666 0.0
H3065 H 0.32873 0.51064 0.88439 0.0
H3066 H 0.4166 0.54795 0.8873 0.0
H3067 H 0.39705 0.52701 0.89441 0.0
H3068 H 0.38545 0.51676 0.86605 0.0
C3069 C 0.33835 0.4862 0.84439 0.0
C3070 C 0.34118 0.51183 0.88052 0.0
C3071 C 0.33122 0.4726 0.83746 0.0
C3072 C 0.40382 0.55047 0.88599 0.0
C3073 C 0.39266 0.53857 0.89009 0.0
C3074 C 0.37321 0.51534 0.87049 0.0
C3075 C 0.3378 0.48859 0.8612 0.0
C3076 C 0.34759 0.50144 0.86868 0.0
C3077 C 0.37632 0.54053 0.88597 0.0
C3078 C 0.36674 0.52613 0.88187 0.0
H3079 H 0.31573 0.45574 0.87177 0.0
H3080 H 0.3286 0.4793 0.88385 0.0
H3081 H 0.36905 0.49517 0.85502 0.0
H3082 H 0.37794 0.57833 0.87021 0.0
H3083 H 0.35834 0.55739 0.87719 0.0
C3084 C 0.71045 0.40797 0.38312 0.0
C3085 C 0.70771 0.42418 0.3872 0.0
C3086 C 0.72385 0.40363 0.37397 0.0
C3087 C 0.75096 0.39719 0.35088 0.0
H3088 H 0.78892 0.40686 0.37647 0.0
C3089 C 0.81578 0.36761 0.372 0.0
C3090 C 0.809 0.35295 0.37723 0.0
C3091 C 0.80598 0.37955 0.36514 0.0
C3092 C 0.77866 0.40438 0.36874 0.0
H3093 H 0.71637 0.44872 0.38444 0.0
H3094 H 0.74054 0.44095 0.36886 0.0
H3095 H 0.76507 0.42386 0.37893 0.0
H3096 H 0.78717 0.33863 0.3783 0.0
H3097 H 0.77007 0.35929 0.36626 0.0
H3098 H 0.76402 0.37673 0.34193 0.0
C3099 C 0.73204 0.43171 0.37252 0.0
C3100 C 0.76497 0.41416 0.37015 0.0
C3101 C 0.71831 0.43612 0.38145 0.0
C3102 C 0.79259 0.34992 0.37449 0.0
C3103 C 0.78288 0.36168 0.3674 0.0
C3104 C 0.76462 0.38741 0.34948 0.0
C3105 C 0.73499 0.41537 0.36888 0.0
C3106 C 0.75063 0.40985 0.36221 0.0
C3107 C 0.78935 0.37681 0.36312 0.0
C3108 C 0.77811 0.39021 0.35938 0.0
H3109 H 0.70235 0.39854 0.38724 0.0
H3110 H 0.72594 0.39091 0.37165 0.0
H3111 H 0.7401 0.39382 0.3444 0.0
H3112 H 0.82847 0.37013 0.374 0.0
H3113 H 0.81123 0.39112 0.36201 0.0
C3114 C 0.65715 0.03218 0.84388 0.0
C3115 C 0.66917 0.0418 0.85093 0.0
C3116 C 0.64838 0.02134 0.85331 0.0
C3117 C 0.6516 0.99379 0.88499 0.0
H3118 H 0.6049 0.99274 0.88176 0.0
C3119 C 0.59296 0.9484 0.88413 0.0
C3120 C 0.59874 0.939 0.87125 0.0
C3121 C 0.60268 0.96049 0.89079 0.0
C3122 C 0.61788 0.99299 0.88335 0.0
H3123 H 0.6815 0.04768 0.87333 0.0
H3124 H 0.66646 0.02805 0.88971 0.0
H3125 H 0.6194 0.01735 0.87478 0.0
H3126 H 0.61949 0.93333 0.85641 0.0
H3127 H 0.63657 0.95427 0.86808 0.0
H3128 H 0.65017 0.96885 0.89184 0.0
C3129 C 0.66371 0.02924 0.87697 0.0
C3130 C 0.62616 0.00706 0.87923 0.0
C3131 C 0.67228 0.04037 0.86759 0.0
C3132 C 0.61483 0.94057 0.86628 0.0
C3133 C 0.62463 0.95244 0.87311 0.0
C3134 C 0.64332 0.97961 0.88889 0.0
C3135 C 0.65165 0.01974 0.86987 0.0
C3136 C 0.64308 0.00722 0.87913 0.0
C3137 C 0.61833 0.96312 0.88474 0.0
C3138 C 0.62646 0.97883 0.88711 0.0
H3139 H 0.65442 0.03309 0.83112 0.0
H3140 H 0.63925 0.0139 0.84757 0.0
H3141 H 0.66469 0.99373 0.88499 0.0
H3142 H 0.58055 0.94729 0.88812 0.0
H3143 H 0.59757 0.96858 0.89973 0.0
C3144 C 0.18035 0.87217 0.11308 0.0
C3145 C 0.17973 0.85639 0.11929 0.0
C3146 C 0.19134 0.88334 0.11925 0.0
C3147 C 0.23165 0.87942 0.13603 0.0
H3148 H 0.2331 0.92458 0.12364 0.0
C3149 C 0.28409 0.90425 0.10078 0.0
C3150 C 0.29053 0.91951 0.1044 0.0
C3151 C 0.26999 0.89898 0.10827 0.0
C3152 C 0.2329 0.91207 0.12749 0.0
H3153 H 0.18824 0.84087 0.13867 0.0
H3154 H 0.20675 0.86062 0.14993 0.0
H3155 H 0.20715 0.91199 0.12991 0.0
H3156 H 0.28688 0.94149 0.11829 0.0
H3157 H 0.26195 0.93222 0.13129 0.0
H3158 H 0.25727 0.87937 0.13313 0.0
C3159 C 0.19933 0.86413 0.13975 0.0
C3160 C 0.21803 0.90481 0.13098 0.0
C3161 C 0.18855 0.85283 0.13337 0.0
C3162 C 0.28222 0.92964 0.11527 0.0
C3163 C 0.268 0.92435 0.12275 0.0
C3164 C 0.24643 0.88669 0.13271 0.0
C3165 C 0.20178 0.87904 0.13194 0.0
C3166 C 0.21715 0.88811 0.13418 0.0
C3167 C 0.26196 0.90883 0.11954 0.0
C3168 C 0.24707 0.90276 0.12735 0.0
H3169 H 0.17322 0.87553 0.10264 0.0
H3170 H 0.19266 0.89472 0.11294 0.0
H3171 H 0.23163 0.86657 0.13847 0.0
H3172 H 0.29007 0.8962 0.09236 0.0
H3173 H 0.26534 0.88713 0.10518 0.0
C3174 C 0.16268 0.47205 0.156 0.0
C3175 C 0.17213 0.46012 0.1485 0.0
C3176 C 0.15456 0.4835 0.14675 0.0
C3177 C 0.15487 0.509 0.11406 0.0
H3178 H 0.10832 0.50905 0.11912 0.0
C3179 C 0.09447 0.55234 0.11543 0.0
C3180 C 0.10111 0.56409 0.12577 0.0
C3181 C 0.10412 0.53998 0.1092 0.0
C3182 C 0.12123 0.50914 0.11701 0.0
H3183 H 0.18081 0.45105 0.12544 0.0
H3184 H 0.16677 0.47161 0.10922 0.0
H3185 H 0.12364 0.48513 0.12629 0.0
H3186 H 0.1235 0.57348 0.13559 0.0
H3187 H 0.14015 0.55156 0.12546 0.0
H3188 H 0.15259 0.53353 0.10603 0.0
C3189 C 0.16559 0.47179 0.12226 0.0
C3190 C 0.12998 0.49541 0.12123 0.0
C3191 C 0.17355 0.46009 0.13153 0.0
C3192 C 0.11791 0.5643 0.12812 0.0
C3193 C 0.12753 0.55185 0.12203 0.0
C3194 C 0.1461 0.52284 0.10989 0.0
C3195 C 0.1559 0.48341 0.12986 0.0
C3196 C 0.14687 0.49557 0.12059 0.0
C3197 C 0.12054 0.539 0.11338 0.0
C3198 C 0.12926 0.52335 0.11224 0.0
H3199 H 0.16128 0.47236 0.16901 0.0
H3200 H 0.14716 0.49247 0.15279 0.0
H3201 H 0.16794 0.5093 0.11352 0.0
H3202 H 0.08159 0.55181 0.11322 0.0
H3203 H 0.09845 0.53044 0.10226 0.0
C3204 C 0.71737 0.5917 0.10308 0.0
C3205 C 0.70995 0.5765 0.10424 0.0
C3206 C 0.73196 0.59464 0.11083 0.0
C3207 C 0.75379 0.59725 0.14138 0.0
H3208 H 0.79346 0.592 0.11709 0.0
C3209 C 0.81846 0.63045 0.12676 0.0
C3210 C 0.81124 0.64538 0.12321 0.0
C3211 C 0.80902 0.61761 0.13242 0.0
C3212 C 0.78273 0.59312 0.12451 0.0
H3213 H 0.71245 0.55216 0.11377 0.0
H3214 H 0.73845 0.55741 0.12718 0.0
H3215 H 0.77004 0.57547 0.11043 0.0
H3216 H 0.78918 0.65933 0.1243 0.0
H3217 H 0.77271 0.63713 0.13419 0.0
H3218 H 0.76588 0.61605 0.15436 0.0
C3219 C 0.73264 0.56698 0.12042 0.0
C3220 C 0.76933 0.58363 0.12065 0.0
C3221 C 0.71788 0.56402 0.11269 0.0
C3222 C 0.79491 0.64783 0.12683 0.0
C3223 C 0.78556 0.63514 0.13269 0.0
C3224 C 0.76719 0.60669 0.14529 0.0
C3225 C 0.7395 0.58244 0.11979 0.0
C3226 C 0.75452 0.58649 0.1283 0.0
C3227 C 0.79233 0.61968 0.1348 0.0
C3228 C 0.78134 0.60561 0.13597 0.0
H3229 H 0.7117 0.60153 0.09656 0.0
H3230 H 0.73728 0.60659 0.11003 0.0
H3231 H 0.74239 0.59961 0.14739 0.0
H3232 H 0.8311 0.62838 0.12408 0.0
H3233 H 0.81454 0.60584 0.13398 0.0
C3234 C 0.88641 0.93401 0.12077 0.0
C3235 C 0.90133 0.94132 0.12414 0.0
C3236 C 0.87318 0.94351 0.1164 0.0
C3237 C 0.84981 0.96872 0.12928 0.0
H3238 H 0.84989 0.00921 0.10572 0.0
C3239 C 0.83485 0.02998 0.15611 0.0
C3240 C 0.82447 0.04041 0.14773 0.0
C3241 C 0.83919 0.01515 0.14938 0.0
C3242 C 0.84943 0.99779 0.11209 0.0
H3243 H 0.91484 0.96368 0.12377 0.0
H3244 H 0.89184 0.9803 0.11592 0.0
H3245 H 0.86784 0.98727 0.09718 0.0
H3246 H 0.81019 0.04346 0.12595 0.0
H3247 H 0.81837 0.01766 0.11392 0.0
H3248 H 0.83268 0.97984 0.14518 0.0
C3249 C 0.89024 0.96732 0.11667 0.0
C3250 C 0.85967 0.98528 0.10722 0.0
C3251 C 0.90337 0.95788 0.12131 0.0
C3252 C 0.81815 0.03558 0.13271 0.0
C3253 C 0.8228 0.02089 0.12581 0.0
C3254 C 0.83979 0.9813 0.13429 0.0
C3255 C 0.87483 0.96036 0.11514 0.0
C3256 C 0.86054 0.97098 0.1163 0.0
C3257 C 0.83346 0.01066 0.13405 0.0
C3258 C 0.84015 0.99617 0.1262 0.0
H3259 H 0.88464 0.92122 0.12291 0.0
H3260 H 0.86141 0.9379 0.11527 0.0
H3261 H 0.85034 0.95789 0.1366 0.0
H3262 H 0.83985 0.03342 0.16771 0.0
H3263 H 0.84762 0.0075 0.15583 0.0
C3264 C 0.37809 0.1786 0.12532 0.0
C3265 C 0.37789 0.18283 0.14175 0.0
C3266 C 0.37226 0.18936 0.11371 0.0
C3267 C 0.37769 0.2196 0.09458 0.0
H3268 H 0.3499 0.25607 0.10414 0.0
C3269 C 0.38519 0.29079 0.09508 0.0
C3270 C 0.3901 0.29458 0.07928 0.0
C3271 C 0.37842 0.27579 0.09855 0.0
C3272 C 0.35755 0.24587 0.10114 0.0
H3273 H 0.36996 0.20074 0.15911 0.0
H3274 H 0.36038 0.21972 0.13903 0.0
H3275 H 0.3451 0.23022 0.11751 0.0
H3276 H 0.3918 0.28554 0.05471 0.0
H3277 H 0.38033 0.25895 0.06099 0.0
H3278 H 0.39057 0.23549 0.0788 0.0
C3279 C 0.36468 0.20806 0.13492 0.0
C3280 C 0.35484 0.23108 0.10881 0.0
C3281 C 0.37028 0.1972 0.14651 0.0
C3282 C 0.38816 0.28296 0.06701 0.0
C3283 C 0.38154 0.26781 0.07056 0.0
C3284 C 0.38025 0.23431 0.08677 0.0
C3285 C 0.36646 0.20467 0.11833 0.0
C3286 C 0.36556 0.21811 0.10644 0.0
C3287 C 0.37652 0.26416 0.08636 0.0
C3288 C 0.37083 0.24781 0.09075 0.0
H3289 H 0.3836 0.16738 0.12141 0.0
H3290 H 0.37338 0.18616 0.10107 0.0
H3291 H 0.38627 0.20997 0.09242 0.0
H3292 H 0.38648 0.29945 0.10481 0.0
H3293 H 0.37504 0.27314 0.11092 0.0
C3294 C 0.53144 0.34509 0.16092 0.0
C3295 C 0.5411 0.35073 0.17364 0.0
C3296 C 0.51984 0.35512 0.15404 0.0
C3297 C 0.48993 0.38256 0.15961 0.0
H3298 H 0.49494 0.38949 0.11356 0.0
C3299 C 0.45279 0.38383 0.09543 0.0
C3300 C 0.44407 0.36966 0.09885 0.0
C3301 C 0.46261 0.39084 0.10725 0.0
C3302 C 0.4933 0.38831 0.12649 0.0
H3303 H 0.54595 0.37113 0.18944 0.0
H3304 H 0.52501 0.38857 0.17756 0.0
H3305 H 0.51849 0.38371 0.12998 0.0
H3306 H 0.4372 0.35289 0.11774 0.0
H3307 H 0.45468 0.36461 0.13807 0.0
H3308 H 0.46452 0.38561 0.15588 0.0
C3309 C 0.52679 0.37648 0.17285 0.0
C3310 C 0.50685 0.38493 0.13587 0.0
C3311 C 0.53867 0.36651 0.17959 0.0
C3312 C 0.44418 0.36352 0.11464 0.0
C3313 C 0.45396 0.3705 0.12641 0.0
C3314 C 0.47632 0.38594 0.15022 0.0
C3315 C 0.51751 0.37086 0.15988 0.0
C3316 C 0.50506 0.38089 0.1522 0.0
C3317 C 0.46389 0.38377 0.12265 0.0
C3318 C 0.47777 0.38748 0.13334 0.0
H3319 H 0.53308 0.33307 0.15601 0.0
H3320 H 0.51263 0.35056 0.1441 0.0
H3321 H 0.48835 0.3795 0.17225 0.0
H3322 H 0.45279 0.38895 0.08339 0.0
H3323 H 0.46998 0.40117 0.10404 0.0
C3324 C 0.61779 0.21774 0.0618 0.0
C3325 C 0.60733 0.20973 0.07246 0.0
C3326 C 0.62978 0.22804 0.06788 0.0
C3327 C 0.63504 0.25978 0.08645 0.0
H3328 H 0.65559 0.25419 0.12813 0.0
C3329 C 0.62405 0.28638 0.15105 0.0
C3330 C 0.62281 0.30298 0.14792 0.0
C3331 C 0.63164 0.27616 0.14003 0.0
C3332 C 0.65017 0.25604 0.11636 0.0
H3333 H 0.60163 0.20516 0.09753 0.0
H3334 H 0.62285 0.22233 0.10815 0.0
H3335 H 0.65285 0.2311 0.10996 0.0
H3336 H 0.62938 0.32214 0.13133 0.0
H3337 H 0.64255 0.30414 0.1118 0.0
H3338 H 0.63059 0.28419 0.09353 0.0
C3339 C 0.62204 0.22078 0.09518 0.0
C3340 C 0.64874 0.24285 0.10592 0.0
C3341 C 0.60981 0.21098 0.08913 0.0
C3342 C 0.63012 0.30934 0.13397 0.0
C3343 C 0.63764 0.29906 0.12282 0.0
C3344 C 0.63636 0.27294 0.09693 0.0
C3345 C 0.63157 0.2301 0.08467 0.0
C3346 C 0.63996 0.24434 0.09148 0.0
C3347 C 0.63813 0.28229 0.12556 0.0
C3348 C 0.64273 0.27083 0.11253 0.0
H3349 H 0.6158 0.21713 0.04887 0.0
H3350 H 0.63685 0.23524 0.05955 0.0
H3351 H 0.62823 0.26131 0.07538 0.0
H3352 H 0.61878 0.28121 0.16186 0.0
H3353 H 0.63153 0.2633 0.14244 0.0
C3354 C 0.47257 0.1555 0.15843 0.0
C3355 C 0.46276 0.14787 0.16994 0.0
C3356 C 0.48395 0.14658 0.14977 0.0
C3357 C 0.51045 0.11258 0.15085 0.0
H3358 H 0.51084 0.11877 0.10442 0.0
C3359 C 0.55283 0.11301 0.09025 0.0
C3360 C 0.5637 0.12432 0.09665 0.0
C3361 C 0.54101 0.10619 0.10017 0.0
C3362 C 0.51072 0.11637 0.11729 0.0
H3363 H 0.4576 0.12506 0.18191 0.0
H3364 H 0.47786 0.1096 0.16693 0.0
H3365 H 0.48774 0.12784 0.12007 0.0
H3366 H 0.5726 0.13553 0.1185 0.0
H3367 H 0.55208 0.12367 0.13586 0.0
H3368 H 0.53412 0.10239 0.14818 0.0
C3369 C 0.4765 0.1224 0.16452 0.0
C3370 C 0.49756 0.12179 0.12624 0.0
C3371 C 0.46496 0.13127 0.17305 0.0
C3372 C 0.56416 0.12695 0.11336 0.0
C3373 C 0.55249 0.12 0.1233 0.0
C3374 C 0.52376 0.10731 0.14188 0.0
C3375 C 0.48583 0.12994 0.15261 0.0
C3376 C 0.49774 0.12072 0.14313 0.0
C3377 C 0.54003 0.11063 0.11654 0.0
C3378 C 0.52438 0.11001 0.12512 0.0
H3379 H 0.47118 0.16824 0.15579 0.0
H3380 H 0.49129 0.15267 0.1408 0.0
H3381 H 0.51071 0.11154 0.16389 0.0
H3382 H 0.55239 0.11079 0.07735 0.0
H3383 H 0.53163 0.09886 0.09472 0.0
C3384 C 0.38353 0.71217 0.42015 0.0
C3385 C 0.40013 0.71108 0.42357 0.0
C3386 C 0.37712 0.72617 0.4133 0.0
C3387 C 0.39065 0.76063 0.38899 0.0
H3388 H 0.34719 0.77699 0.39589 0.0
C3389 C 0.37095 0.82048 0.36573 0.0
C3390 C 0.37175 0.81666 0.34918 0.0
C3391 C 0.3672 0.80851 0.377 0.0
C3392 C 0.35931 0.77246 0.39395 0.0
H3393 H 0.42277 0.7242 0.42381 0.0
H3394 H 0.41149 0.74891 0.41251 0.0
H3395 H 0.3573 0.75443 0.41248 0.0
H3396 H 0.36622 0.79823 0.33131 0.0
H3397 H 0.35971 0.7775 0.35099 0.0
H3398 H 0.39273 0.77858 0.37062 0.0
C3399 C 0.40353 0.7387 0.41442 0.0
C3400 C 0.3651 0.75959 0.40333 0.0
C3401 C 0.41001 0.72457 0.42092 0.0
C3402 C 0.36591 0.80158 0.34396 0.0
C3403 C 0.36205 0.78967 0.35523 0.0
C3404 C 0.3849 0.77336 0.37974 0.0
C3405 C 0.38711 0.73949 0.41007 0.0
C3406 C 0.38087 0.75356 0.40091 0.0
C3407 C 0.36405 0.79272 0.37177 0.0
C3408 C 0.36923 0.77927 0.38205 0.0
H3409 H 0.37555 0.70206 0.42229 0.0
H3410 H 0.36447 0.72631 0.40999 0.0
H3411 H 0.40267 0.75612 0.3865 0.0
H3412 H 0.37486 0.8322 0.37008 0.0
H3413 H 0.36881 0.81106 0.38974 0.0
C3414 C 0.95918 0.36467 0.82465 0.0
C3415 C 0.95888 0.34766 0.82468 0.0
C3416 C 0.97038 0.37306 0.8341 0.0
C3417 C 0.99213 0.36971 0.87126 0.0
H3418 H 0.02678 0.39567 0.8533 0.0
C3419 C 0.05925 0.37636 0.88911 0.0
C3420 C 0.05711 0.37784 0.90583 0.0
C3421 C 0.04679 0.38067 0.87861 0.0
C3422 C 0.01697 0.38875 0.85851 0.0
H3423 H 0.97019 0.32612 0.83442 0.0
H3424 H 0.98949 0.34081 0.85118 0.0
H3425 H 0.00497 0.38592 0.83565 0.0
H3426 H 0.04141 0.38655 0.92481 0.0
H3427 H 0.01956 0.39423 0.90646 0.0
H3428 H 0.00428 0.37163 0.89384 0.0
C3429 C 0.98109 0.34758 0.84376 0.0
C3430 C 0.00456 0.3832 0.84845 0.0
C3431 C 0.97011 0.3392 0.83415 0.0
C3432 C 0.04323 0.3854 0.91189 0.0
C3433 C 0.03077 0.38972 0.90141 0.0
C3434 C 0.00432 0.37541 0.88131 0.0
C3435 C 0.98122 0.36455 0.8439 0.0
C3436 C 0.99247 0.37308 0.85469 0.0
C3437 C 0.03201 0.3863 0.88481 0.0
C3438 C 0.01722 0.38444 0.87494 0.0
H3439 H 0.95072 0.37151 0.81737 0.0
H3440 H 0.97033 0.38616 0.83406 0.0
H3441 H 0.98284 0.36197 0.8763 0.0
H3442 H 0.06989 0.37043 0.88429 0.0
H3443 H 0.0481 0.37783 0.8659 0.0
C3444 C 0.6126 0.78225 0.43396 0.0
C3445 C 0.59833 0.78859 0.42725 0.0
C3446 C 0.62112 0.77005 0.426 0.0
C3447 C 0.62712 0.75332 0.38563 0.0
H3448 H 0.63407 0.71182 0.4062 0.0
C3449 C 0.61224 0.689 0.36556 0.0
C3450 C 0.6183 0.68926 0.34976 0.0
C3451 C 0.61857 0.69933 0.37722 0.0
C3452 C 0.63263 0.72345 0.40038 0.0
H3453 H 0.58139 0.78668 0.40738 0.0
H3454 H 0.59621 0.76529 0.39353 0.0
H3455 H 0.62657 0.73524 0.42265 0.0
H3456 H 0.63677 0.69904 0.33402 0.0
H3457 H 0.64766 0.71758 0.3544 0.0
H3458 H 0.63177 0.74145 0.36327 0.0
C3459 C 0.60095 0.77 0.40479 0.0
C3460 C 0.62834 0.73682 0.40977 0.0
C3461 C 0.59237 0.78207 0.4128 0.0
C3462 C 0.63182 0.69883 0.34613 0.0
C3463 C 0.63807 0.70935 0.35778 0.0
C3464 C 0.63149 0.74003 0.37628 0.0
C3465 C 0.61556 0.76413 0.41115 0.0
C3466 C 0.6245 0.75153 0.40228 0.0
C3467 C 0.63093 0.71026 0.37318 0.0
C3468 C 0.63314 0.72473 0.38344 0.0
H3469 H 0.6173 0.78691 0.44525 0.0
H3470 H 0.63223 0.76552 0.43122 0.0
H3471 H 0.62454 0.76468 0.37968 0.0
H3472 H 0.60202 0.68143 0.36866 0.0
H3473 H 0.61271 0.69979 0.38891 0.0
C3474 C 0.94058 0.12216 0.88139 0.0
C3475 C 0.94672 0.13018 0.89505 0.0
C3476 C 0.95099 0.11403 0.87082 0.0
C3477 C 0.97779 0.11328 0.84548 0.0
H3478 H 0.01835 0.09532 0.86044 0.0
C3479 C 0.0409 0.13644 0.8388 0.0
C3480 C 0.04142 0.13978 0.82224 0.0
C3481 C 0.03113 0.12411 0.84468 0.0
C3482 C 0.00696 0.09987 0.85589 0.0
H3483 H 0.96831 0.13516 0.90894 0.0
H3484 H 0.98649 0.12129 0.89046 0.0
H3485 H 0.99483 0.09512 0.87825 0.0
H3486 H 0.0331 0.13242 0.79861 0.0
H3487 H 0.01526 0.11108 0.80896 0.0
H3488 H 0.99023 0.11956 0.82382 0.0
C3489 C 0.97366 0.12109 0.88791 0.0
C3490 C 0.99353 0.09986 0.86612 0.0
C3491 C 0.9633 0.12932 0.89835 0.0
C3492 C 0.03305 0.12978 0.81144 0.0
C3493 C 0.02286 0.11763 0.81736 0.0
C3494 C 0.99121 0.11331 0.83527 0.0
C3495 C 0.96768 0.11362 0.87386 0.0
C3496 C 0.97925 0.10779 0.86147 0.0
C3497 C 0.0211 0.11535 0.83412 0.0
C3498 C 0.00629 0.10793 0.84096 0.0
H3499 H 0.9278 0.12261 0.87861 0.0
H3500 H 0.94606 0.10845 0.86006 0.0
H3501 H 0.96692 0.11936 0.84148 0.0
H3502 H 0.04694 0.1443 0.84736 0.0
H3503 H 0.02996 0.1229 0.85766 0.0
C3504 C 0.0609 0.38409 0.2839 0.0
C3505 C 0.07247 0.39227 0.29317 0.0
C3506 C 0.06576 0.37206 0.27299 0.0
C3507 C 0.08294 0.36681 0.24119 0.0
H3508 H 0.12441 0.34523 0.24347 0.0
C3509 C 0.14552 0.37834 0.21102 0.0
C3510 C 0.14194 0.37881 0.19448 0.0
C3511 C 0.13502 0.37081 0.2218 0.0
C3512 C 0.11266 0.35091 0.24255 0.0
H3513 H 0.09773 0.39347 0.29962 0.0
H3514 H 0.10616 0.37244 0.28121 0.0
H3515 H 0.10734 0.34664 0.2675 0.0
H3516 H 0.12506 0.37124 0.17601 0.0
H3517 H 0.10616 0.35849 0.19512 0.0
H3518 H 0.08883 0.37224 0.21664 0.0
C3519 C 0.09336 0.37494 0.2822 0.0
C3520 C 0.10287 0.3517 0.2563 0.0
C3521 C 0.08855 0.38707 0.29282 0.0
C3522 C 0.12798 0.37104 0.18877 0.0
C3523 C 0.11725 0.36374 0.19965 0.0
C3524 C 0.09267 0.3659 0.22743 0.0
C3525 C 0.08224 0.36814 0.27129 0.0
C3526 C 0.08856 0.36087 0.2561 0.0
C3527 C 0.12057 0.36379 0.21632 0.0
C3528 C 0.10816 0.35907 0.22836 0.0
H3529 H 0.04846 0.38814 0.28381 0.0
H3530 H 0.05688 0.36694 0.26486 0.0
H3531 H 0.07198 0.37392 0.24052 0.0
H3532 H 0.15631 0.38413 0.21564 0.0
H3533 H 0.13779 0.37134 0.23458 0.0
C3534 C 0.15256 0.63284 0.30585 0.0
C3535 C 0.14685 0.62079 0.31629 0.0
C3536 C 0.14252 0.63896 0.29375 0.0
C3537 C 0.12635 0.6296 0.26241 0.0
H3538 H 0.07958 0.63224 0.26236 0.0
C3539 C 0.08706 0.59197 0.22082 0.0
C3540 C 0.07493 0.59973 0.21191 0.0
C3541 C 0.09552 0.60039 0.23271 0.0
C3542 C 0.09266 0.63182 0.26212 0.0
H3543 H 0.12597 0.60704 0.32384 0.0
H3544 H 0.10832 0.6178 0.30291 0.0
H3545 H 0.09466 0.64001 0.28664 0.0
H3546 H 0.06176 0.62223 0.20879 0.0
H3547 H 0.07633 0.63677 0.23002 0.0
H3548 H 0.12429 0.62009 0.23845 0.0
C3549 C 0.12045 0.6226 0.30391 0.0
C3550 C 0.10126 0.63629 0.27595 0.0
C3551 C 0.13055 0.61631 0.3158 0.0
C3552 C 0.07109 0.61594 0.21546 0.0
C3553 C 0.0794 0.62429 0.22754 0.0
C3554 C 0.11776 0.62494 0.24872 0.0
C3555 C 0.12664 0.63315 0.29213 0.0
C3556 C 0.11812 0.63437 0.27649 0.0
C3557 C 0.09185 0.61664 0.23606 0.0
C3558 C 0.10084 0.62523 0.2488 0.0
H3559 H 0.16515 0.63641 0.30609 0.0
H3560 H 0.14754 0.64714 0.28485 0.0
H3561 H 0.13932 0.62787 0.26246 0.0
H3562 H 0.0903 0.57953 0.21834 0.0
H3563 H 0.10492 0.59419 0.23937 0.0
C3564 C 0.86085 0.68182 0.03311 0.0
C3565 C 0.84983 0.67157 0.04101 0.0
C3566 C 0.86574 0.67851 0.01728 0.0
C3567 C 0.85469 0.65789 0.98032 0.0
H3568 H 0.89857 0.64165 0.9774 0.0
C3569 C 0.87961 0.60012 0.95186 0.0
C3570 C 0.87296 0.60116 0.93636 0.0
C3571 C 0.88239 0.61414 0.96079 0.0
C3572 C 0.88646 0.64658 0.97785 0.0
H3573 H 0.83467 0.65037 0.03837 0.0
H3574 H 0.84292 0.64485 0.01059 0.0
H3575 H 0.89016 0.65719 0.00121 0.0
H3576 H 0.86531 0.61731 0.9173 0.0
H3577 H 0.86972 0.64195 0.93315 0.0
H3578 H 0.85055 0.6464 0.95761 0.0
C3579 C 0.84784 0.65533 0.0167 0.0
C3580 C 0.88166 0.65544 0.99141 0.0
C3581 C 0.84321 0.65843 0.03259 0.0
C3582 C 0.87055 0.61635 0.92925 0.0
C3583 C 0.87306 0.63039 0.93828 0.0
C3584 C 0.85954 0.6493 0.96666 0.0
C3585 C 0.85934 0.66517 0.00905 0.0
C3586 C 0.86552 0.66036 0.99308 0.0
C3587 C 0.87817 0.62931 0.95443 0.0
C3588 C 0.8752 0.64279 0.96574 0.0
H3589 H 0.86617 0.69202 0.03935 0.0
H3590 H 0.87469 0.68616 0.01156 0.0
H3591 H 0.84218 0.66158 0.98143 0.0
H3592 H 0.88146 0.58845 0.95751 0.0
H3593 H 0.88618 0.61295 0.97326 0.0
C3594 C 0.93049 0.89189 0.21597 0.0
C3595 C 0.91866 0.89698 0.20489 0.0
C3596 C 0.92598 0.88485 0.23065 0.0
C3597 C 0.90921 0.88435 0.26424 0.0
H3598 H 0.87559 0.85177 0.26601 0.0
C3599 C 0.84861 0.87494 0.3014 0.0
C3600 C 0.85367 0.88104 0.31637 0.0
C3601 C 0.85989 0.87015 0.28988 0.0
C3602 C 0.88502 0.86084 0.26578 0.0
H3603 H 0.89288 0.89844 0.20037 0.0
H3604 H 0.88507 0.88607 0.22589 0.0
H3605 H 0.88924 0.85733 0.24046 0.0
H3606 H 0.87434 0.88524 0.33181 0.0
H3607 H 0.89421 0.87629 0.31184 0.0
H3608 H 0.90402 0.88921 0.28895 0.0
C3609 C 0.8978 0.88748 0.22319 0.0
C3610 C 0.89288 0.86392 0.25118 0.0
C3611 C 0.90228 0.89477 0.20869 0.0
C3612 C 0.87017 0.88084 0.32021 0.0
C3613 C 0.88152 0.87576 0.30875 0.0
C3614 C 0.90112 0.88153 0.27877 0.0
C3615 C 0.90959 0.88248 0.23428 0.0
C3616 C 0.90447 0.87624 0.25016 0.0
C3617 C 0.87655 0.87118 0.29312 0.0
C3618 C 0.88827 0.8704 0.27949 0.0
H3619 H 0.94322 0.89341 0.21331 0.0
H3620 H 0.93524 0.88122 0.23914 0.0
H3621 H 0.91813 0.89391 0.26372 0.0
H3622 H 0.83595 0.87506 0.29807 0.0
H3623 H 0.85547 0.86694 0.278 0.0
C3624 C 0.60226 0.41302 0.45482 0.0
C3625 C 0.61184 0.41139 0.44098 0.0
C3626 C 0.59825 0.39936 0.46396 0.0
C3627 C 0.60864 0.35471 0.46775 0.0
H3628 H 0.61569 0.36764 0.5122 0.0
C3629 C 0.65247 0.32599 0.51404 0.0
C3630 C 0.64618 0.32226 0.52938 0.0
C3631 C 0.64278 0.33352 0.50243 0.0
C3632 C 0.61347 0.3638 0.49988 0.0
H3633 H 0.62334 0.39446 0.42476 0.0
H3634 H 0.61744 0.37096 0.44091 0.0
H3635 H 0.6064 0.38739 0.49289 0.0
H3636 H 0.62442 0.32253 0.54406 0.0
H3637 H 0.6079 0.33656 0.5241 0.0
H3638 H 0.61763 0.3314 0.47487 0.0
C3639 C 0.61235 0.38236 0.44478 0.0
C3640 C 0.60793 0.37511 0.48871 0.0
C3641 C 0.61581 0.39591 0.43539 0.0
C3642 C 0.6298 0.32559 0.53256 0.0
C3643 C 0.62025 0.33345 0.52109 0.0
C3644 C 0.61469 0.34351 0.47889 0.0
C3645 C 0.60454 0.38403 0.45983 0.0
C3646 C 0.60608 0.37097 0.47227 0.0
C3647 C 0.62673 0.33765 0.50603 0.0
C3648 C 0.61761 0.34817 0.4949 0.0
H3649 H 0.59905 0.4249 0.45929 0.0
H3650 H 0.59145 0.40111 0.47499 0.0
H3651 H 0.60684 0.35076 0.45541 0.0
H3652 H 0.66496 0.32344 0.5111 0.0
H3653 H 0.64806 0.33682 0.49091 0.0
C3654 C 0.40094 0.60757 0.78926 0.0
C3655 C 0.41717 0.6049 0.79331 0.0
C3656 C 0.39696 0.61594 0.77525 0.0
C3657 C 0.3925 0.64169 0.74985 0.0
H3658 H 0.402 0.61863 0.71022 0.0
C3659 C 0.36389 0.62527 0.68349 0.0
C3660 C 0.34894 0.62053 0.68998 0.0
C3661 C 0.37581 0.63173 0.69358 0.0
C3662 C 0.39964 0.62571 0.72098 0.0
H3663 H 0.44199 0.60844 0.78558 0.0
H3664 H 0.43484 0.62259 0.7605 0.0
H3665 H 0.4178 0.61309 0.73437 0.0
H3666 H 0.33398 0.62023 0.71141 0.0
H3667 H 0.35459 0.63143 0.72899 0.0
H3668 H 0.37343 0.6533 0.73686 0.0
C3669 C 0.42533 0.61853 0.76852 0.0
C3670 C 0.40868 0.62247 0.73483 0.0
C3671 C 0.42936 0.61035 0.78276 0.0
C3672 C 0.34553 0.62363 0.70625 0.0
C3673 C 0.35728 0.63027 0.71623 0.0
C3674 C 0.38354 0.64502 0.73599 0.0
C3675 C 0.40909 0.62163 0.76485 0.0
C3676 C 0.40429 0.6295 0.74961 0.0
C3677 C 0.37279 0.63374 0.71018 0.0
C3678 C 0.38614 0.63602 0.72183 0.0
H3679 H 0.39125 0.60357 0.7971 0.0
H3680 H 0.38431 0.61779 0.77242 0.0
H3681 H 0.38914 0.64748 0.76111 0.0
H3682 H 0.36668 0.62304 0.6709 0.0
H3683 H 0.38764 0.63432 0.68862 0.0
C3684 C 0.88664 0.40341 0.55571 0.0
C3685 C 0.87445 0.39676 0.56546 0.0
C3686 C 0.89337 0.3943 0.54318 0.0
C3687 C 0.8856 0.38006 0.51055 0.0
H3688 H 0.88814 0.33335 0.50758 0.0
C3689 C 0.84689 0.34279 0.46871 0.0
C3690 C 0.85401 0.33098 0.45885 0.0
C3691 C 0.85608 0.35095 0.48021 0.0
C3692 C 0.88785 0.34643 0.50813 0.0
H3693 H 0.86131 0.37497 0.57139 0.0
H3694 H 0.87301 0.35901 0.54962 0.0
H3695 H 0.89534 0.34686 0.53293 0.0
H3696 H 0.87634 0.31835 0.45331 0.0
H3697 H 0.89231 0.33234 0.47403 0.0
H3698 H 0.87665 0.37951 0.48631 0.0
C3699 C 0.87742 0.3712 0.55149 0.0
C3700 C 0.89194 0.35414 0.5226 0.0
C3701 C 0.87056 0.38035 0.56386 0.0
C3702 C 0.87053 0.32742 0.46077 0.0
C3703 C 0.87968 0.33539 0.47254 0.0
C3704 C 0.88136 0.37235 0.4962 0.0
C3705 C 0.88805 0.37841 0.54037 0.0
C3706 C 0.8899 0.37094 0.52421 0.0
C3707 C 0.87251 0.34729 0.48224 0.0
C3708 C 0.88158 0.35544 0.49522 0.0
H3709 H 0.88985 0.41606 0.55678 0.0
H3710 H 0.90163 0.4001 0.53485 0.0
H3711 H 0.8838 0.393 0.5114 0.0
H3712 H 0.83423 0.34586 0.46748 0.0
H3713 H 0.85025 0.35993 0.48776 0.0
C3714 C 0.11208 0.10459 0.56521 0.0
C3715 C 0.11261 0.08855 0.55965 0.0
C3716 C 0.10908 0.11718 0.55437 0.0
C3717 C 0.1062 0.14211 0.52658 0.0
H3718 H 0.13857 0.12913 0.49522 0.0
C3719 C 0.13062 0.18063 0.47234 0.0
C3720 C 0.14715 0.17873 0.46882 0.0
C3721 C 0.12344 0.17183 0.48487 0.0
C3722 C 0.12955 0.13298 0.5039 0.0
H3723 H 0.10743 0.07275 0.53951 0.0
H3724 H 0.10164 0.09467 0.52068 0.0
H3725 H 0.12721 0.10918 0.51327 0.0
H3726 H 0.1695 0.16778 0.47702 0.0
H3727 H 0.15705 0.15272 0.499 0.0
H3728 H 0.10907 0.16618 0.51717 0.0
C3729 C 0.10401 0.09761 0.53321 0.0
C3730 C 0.12277 0.12148 0.51405 0.0
C3731 C 0.10722 0.08505 0.54398 0.0
C3732 C 0.15666 0.16921 0.47912 0.0
C3733 C 0.14953 0.16054 0.49169 0.0
C3734 C 0.1129 0.15371 0.51616 0.0
C3735 C 0.1065 0.11375 0.53795 0.0
C3736 C 0.11118 0.12588 0.52564 0.0
C3737 C 0.13274 0.16116 0.49417 0.0
C3738 C 0.12493 0.14925 0.50499 0.0
H3739 H 0.11618 0.10756 0.57729 0.0
H3740 H 0.11094 0.1295 0.5584 0.0
H3741 H 0.0974 0.14584 0.53552 0.0
H3742 H 0.12304 0.18833 0.46499 0.0
H3743 H 0.1105 0.17264 0.48661 0.0
C3744 C 0.7913 0.59353 0.89415 0.0
C3745 C 0.79493 0.57704 0.89586 0.0
C3746 C 0.77764 0.59839 0.88571 0.0
C3747 C 0.75346 0.60418 0.85868 0.0
H3748 H 0.71372 0.59903 0.88281 0.0
C3749 C 0.68997 0.63818 0.87622 0.0
C3750 C 0.69723 0.65332 0.87877 0.0
C3751 C 0.69893 0.62539 0.86984 0.0
C3752 C 0.72444 0.60025 0.87542 0.0
H3753 H 0.78682 0.55268 0.89049 0.0
H3754 H 0.7622 0.56139 0.87625 0.0
H3755 H 0.73634 0.5812 0.88825 0.0
H3756 H 0.71883 0.66755 0.87513 0.0
H3757 H 0.73471 0.64522 0.86457 0.0
H3758 H 0.74202 0.62394 0.84661 0.0
C3759 C 0.77036 0.5704 0.8811 0.0
C3760 C 0.73742 0.58998 0.8786 0.0
C3761 C 0.78431 0.56548 0.88932 0.0
C3762 C 0.71304 0.65594 0.87339 0.0
C3763 C 0.72207 0.64312 0.86718 0.0
C3764 C 0.74042 0.61432 0.85533 0.0
C3765 C 0.76716 0.58691 0.879 0.0
C3766 C 0.75234 0.5927 0.87111 0.0
C3767 C 0.71536 0.62749 0.86613 0.0
C3768 C 0.72624 0.6133 0.86463 0.0
H3769 H 0.79921 0.60277 0.89898 0.0
H3770 H 0.77514 0.6112 0.88458 0.0
H3771 H 0.76488 0.60632 0.85265 0.0
H3772 H 0.67759 0.63603 0.87989 0.0
H3773 H 0.6933 0.61362 0.86882 0.0
C3774 C 0.83436 0.97191 0.3421 0.0
C3775 C 0.82217 0.96305 0.34985 0.0
C3776 C 0.84272 0.98391 0.35045 0.0
C3777 C 0.8413 0.01231 0.38371 0.0
H3778 H 0.8877 0.0116 0.37751 0.0
C3779 C 0.90318 0.05325 0.38523 0.0
C3780 C 0.89681 0.06591 0.37587 0.0
C3781 C 0.89311 0.04093 0.39082 0.0
C3782 C 0.87484 0.01185 0.37988 0.0
H3783 H 0.80835 0.96063 0.37204 0.0
H3784 H 0.82308 0.9817 0.38662 0.0
H3785 H 0.87161 0.98891 0.36848 0.0
H3786 H 0.87469 0.0771 0.36748 0.0
H3787 H 0.85724 0.05539 0.37661 0.0
H3788 H 0.84451 0.03573 0.39436 0.0
C3789 C 0.82625 0.97914 0.37417 0.0
C3790 C 0.8656 0.99892 0.37444 0.0
C3791 C 0.8179 0.96707 0.36583 0.0
C3792 C 0.87998 0.06721 0.37421 0.0
C3793 C 0.86994 0.05484 0.37969 0.0
C3794 C 0.85058 0.02538 0.38912 0.0
C3795 C 0.83902 0.98735 0.36667 0.0
C3796 C 0.84871 -0.00058 0.37554 0.0
C3797 C 0.87658 0.041 0.38696 0.0
C3798 C 0.86737 0.02563 0.38647 0.0
H3799 H 0.83784 0.96923 0.32977 0.0
H3800 H 0.85227 0.99039 0.34427 0.0
H3801 H 0.82828 0.01286 0.38487 0.0
H3802 H 0.91609 0.05197 0.38689 0.0
H3803 H 0.89851 0.0306 0.39676 0.0
C3804 C 0.30469 0.84793 0.86328 0.0
C3805 C 0.31511 0.8528 0.87574 0.0
C3806 C 0.29259 0.85837 0.85781 0.0
C3807 C 0.26077 0.87372 0.86622 0.0
H3808 H 0.26035 0.92049 0.86944 0.0
C3809 C 0.21321 0.90638 0.90268 0.0
C3810 C 0.2058 0.92027 0.8964 0.0
C3811 C 0.22645 0.89951 0.89489 0.0
C3812 C 0.26022 0.90745 0.86822 0.0
H3813 H 0.32264 0.87294 0.89064 0.0
H3814 H 0.30152 0.89107 0.88132 0.0
H3815 H 0.28534 0.90652 0.86193 0.0
H3816 H 0.20684 0.93822 0.87729 0.0
H3817 H 0.23025 0.92617 0.86372 0.0
H3818 H 0.23598 0.87455 0.87336 0.0
C3819 C 0.30254 0.87929 0.8757 0.0
C3820 C 0.27451 0.89946 0.86396 0.0
C3821 C 0.31455 0.86885 0.88119 0.0
C3822 C 0.21232 0.92752 0.88245 0.0
C3823 C 0.22565 0.92062 0.87464 0.0
C3824 C 0.24658 0.88168 0.87051 0.0
C3825 C 0.29078 0.87379 0.86474 0.0
C3826 C 0.27513 0.88247 0.86378 0.0
C3827 C 0.2326 0.90636 0.88063 0.0
C3828 C 0.24642 0.89853 0.87241 0.0
H3829 H 0.30491 0.83562 0.85882 0.0
H3830 H 0.28384 0.8539 0.84917 0.0
H3831 H 0.26078 0.86063 0.8663 0.0
H3832 H 0.20862 0.90061 0.9135 0.0
H3833 H 0.23187 0.88876 0.90003 0.0
C3834 C 0.09429 0.45704 0.3791 0.0
C3835 C 0.09512 0.44065 0.37493 0.0
C3836 C 0.10812 0.46514 0.38425 0.0
C3837 C 0.13997 0.48036 0.39409 0.0
H3838 H 0.1653 0.47598 0.35486 0.0
C3839 C 0.18176 0.53064 0.36863 0.0
C3840 C 0.1731 0.53709 0.35551 0.0
C3841 C 0.17781 0.51539 0.37475 0.0
C3842 C 0.15874 0.47706 0.36614 0.0
H3843 H 0.11036 0.4194 0.37431 0.0
H3844 H 0.1348 0.43375 0.38286 0.0
H3845 H 0.14696 0.45437 0.36282 0.0
H3846 H 0.15441 0.53249 0.33785 0.0
H3847 H 0.14801 0.5055 0.34808 0.0
H3848 H 0.15089 0.50372 0.39657 0.0
C3849 C 0.12345 0.44025 0.38239 0.0
C3850 C 0.14829 0.46468 0.37077 0.0
C3851 C 0.10951 0.43207 0.37751 0.0
C3852 C 0.16123 0.52771 0.34794 0.0
C3853 C 0.15764 0.51231 0.35374 0.0
C3854 C 0.15066 0.49263 0.38959 0.0
C3855 C 0.12304 0.45703 0.38495 0.0
C3856 C 0.13802 0.46671 0.38417 0.0
C3857 C 0.16557 0.50625 0.36745 0.0
C3858 C 0.15931 0.49145 0.37505 0.0
H3859 H 0.08326 0.46382 0.37719 0.0
H3860 H 0.10745 0.4781 0.38599 0.0
H3861 H 0.13221 0.48218 0.40447 0.0
H3862 H 0.19086 0.53778 0.37475 0.0
H3863 H 0.18391 0.51095 0.38544 0.0
C3864 C 0.78841 0.40828 0.60761 0.0
C3865 C 0.79008 0.42508 0.6072 0.0
C3866 C 0.77809 0.4011 0.61878 0.0
C3867 C 0.75547 0.38772 0.64366 0.0
H3868 H 0.71451 0.40428 0.6282 0.0
C3869 C 0.68809 0.36437 0.62263 0.0
C3870 C 0.69402 0.35209 0.61248 0.0
C3871 C 0.6988 0.37413 0.63137 0.0
C3872 C 0.72567 0.39965 0.63321 0.0
H3873 H 0.78342 0.44766 0.61857 0.0
H3874 H 0.76443 0.4351 0.63773 0.0
H3875 H 0.73807 0.42169 0.62817 0.0
H3876 H 0.7155 0.33966 0.60423 0.0
H3877 H 0.73415 0.35661 0.61933 0.0
H3878 H 0.74332 0.36515 0.64711 0.0
C3879 C 0.77143 0.42747 0.62971 0.0
C3880 C 0.73922 0.40968 0.63324 0.0
C3881 C 0.78214 0.43463 0.61873 0.0
C3882 C 0.71068 0.34923 0.61177 0.0
C3883 C 0.72131 0.35875 0.62066 0.0
C3884 C 0.74191 0.3777 0.64366 0.0
C3885 C 0.76891 0.41066 0.62943 0.0
C3886 C 0.75449 0.40332 0.63704 0.0
C3887 C 0.71553 0.37148 0.63035 0.0
C3888 C 0.72727 0.3832 0.63706 0.0
H3889 H 0.79459 0.40075 0.59884 0.0
H3890 H 0.77627 0.38815 0.61807 0.0
H3891 H 0.76706 0.38265 0.64698 0.0
H3892 H 0.67524 0.3667 0.62342 0.0
H3893 H 0.69405 0.38395 0.63862 0.0
C3894 C 0.67697 0.96266 0.63326 0.0
C3895 C 0.67483 0.96111 0.65008 0.0
C3896 C 0.66907 0.97493 0.62472 0.0
C3897 C 0.63215 0.99651 0.62527 0.0
H3898 H 0.65215 0.03462 0.60672 0.0
C3899 C 0.61423 0.06379 0.62691 0.0
C3900 C 0.59773 0.06183 0.62384 0.0
C3901 C 0.62521 0.05213 0.62162 0.0
C3902 C 0.64642 0.02388 0.61152 0.0
H3903 H 0.66325 0.9716 0.67117 0.0
H3904 H 0.64934 0.99276 0.65622 0.0
H3905 H 0.6691 0.01188 0.6156 0.0
H3906 H 0.57972 0.04761 0.61138 0.0
H3907 H 0.59892 0.02716 0.60199 0.0
H3908 H 0.60967 0.00857 0.6224 0.0
C3909 C 0.65712 0.98447 0.64971 0.0
C3910 C 0.65608 0.01093 0.61656 0.0
C3911 C 0.66509 0.97237 0.65824 0.0
C3912 C 0.59246 0.04921 0.61387 0.0
C3913 C 0.60344 0.03757 0.60853 0.0
C3914 C 0.62253 0.00927 0.62012 0.0
C3915 C 0.65884 0.98566 0.6329 0.0
C3916 C 0.64899 0.99753 0.62412 0.0
C3917 C 0.61971 0.03832 0.61338 0.0
C3918 C 0.62959 0.02341 0.61389 0.0
H3919 H 0.68451 0.95423 0.62665 0.0
H3920 H 0.67051 0.97571 0.61174 0.0
H3921 H 0.62649 0.98623 0.63108 0.0
H3922 H 0.61842 0.07353 0.63459 0.0
H3923 H 0.63764 0.05307 0.62558 0.0
C3924 C 0.21655 0.06711 0.62826 0.0
C3925 C 0.21471 0.0698 0.6116 0.0
C3926 C 0.23115 0.07098 0.6359 0.0
C3927 C 0.27377 0.08252 0.62821 0.0
H3928 H 0.26483 0.11967 0.65532 0.0
C3929 C 0.29242 0.14961 0.62427 0.0
C3930 C 0.30922 0.14864 0.62258 0.0
C3931 C 0.28387 0.13695 0.63132 0.0
C3932 C 0.26767 0.10909 0.64814 0.0
H3933 H 0.22681 0.07725 0.58964 0.0
H3934 H 0.25227 0.08357 0.60277 0.0
H3935 H 0.24386 0.09944 0.65095 0.0
H3936 H 0.3305 0.13436 0.62775 0.0
H3937 H 0.31539 0.11176 0.63969 0.0
H3938 H 0.29696 0.093 0.624 0.0
C3939 C 0.24257 0.07859 0.61003 0.0
C3940 C 0.2557 0.09743 0.64573 0.0
C3941 C 0.22795 0.07514 0.60251 0.0
C3942 C 0.3175 0.13528 0.62895 0.0
C3943 C 0.30889 0.12242 0.63578 0.0
C3944 C 0.28576 0.09411 0.63068 0.0
C3945 C 0.24417 0.0771 0.62686 0.0
C3946 C 0.25826 0.08476 0.63472 0.0
C3947 C 0.29193 0.12294 0.63657 0.0
C3948 C 0.28234 0.10814 0.63963 0.0
H3949 H 0.20641 0.06308 0.63549 0.0
H3950 H 0.23207 0.06986 0.64891 0.0
H3951 H 0.27608 0.07273 0.61981 0.0
H3952 H 0.28585 0.15988 0.6195 0.0
H3953 H 0.2708 0.13765 0.63151 0.0
C3954 C 0.38786 0.43476 0.62138 0.0
C3955 C 0.40218 0.44249 0.62618 0.0
C3956 C 0.37475 0.44387 0.61586 0.0
C3957 C 0.34847 0.46826 0.62445 0.0
H3958 H 0.35305 0.50987 0.60347 0.0
C3959 C 0.34069 0.53232 0.64846 0.0
C3960 C 0.32552 0.53934 0.64561 0.0
C3961 C 0.34502 0.51803 0.64074 0.0
C3962 C 0.35126 0.4981 0.60892 0.0
H3963 H 0.41477 0.46535 0.62756 0.0
H3964 H 0.39205 0.48127 0.61783 0.0
H3965 H 0.37152 0.48789 0.59648 0.0
H3966 H 0.30265 0.53641 0.63308 0.0
H3967 H 0.31038 0.51104 0.61962 0.0
H3968 H 0.32931 0.47911 0.63813 0.0
C3969 C 0.39081 0.46824 0.61827 0.0
C3970 C 0.36185 0.48557 0.605 0.0
C3971 C 0.40377 0.4592 0.62402 0.0
C3972 C 0.31444 0.53129 0.63548 0.0
C3973 C 0.31882 0.51687 0.62774 0.0
C3974 C 0.33788 0.48081 0.62837 0.0
C3975 C 0.37593 0.46077 0.61484 0.0
C3976 C 0.36131 0.47098 0.61364 0.0
C3977 C 0.33427 0.51043 0.6301 0.0
C3978 C 0.33996 0.49607 0.62138 0.0
H3979 H 0.38642 0.42185 0.62297 0.0
H3980 H 0.36343 0.43783 0.61331 0.0
H3981 H 0.34777 0.45715 0.63134 0.0
H3982 H 0.34945 0.53811 0.65625 0.0
H3983 H 0.35696 0.51306 0.64278 0.0
C3984 C 0.8715 0.70787 0.65353 0.0
C3985 C 0.87403 0.69119 0.65226 0.0
C3986 C 0.86668 0.71671 0.64004 0.0
C3987 C 0.85631 0.73312 0.60892 0.0
H3988 H 0.89428 0.72703 0.58207 0.0
C3989 C 0.88243 0.78288 0.56737 0.0
C3990 C 0.89683 0.78803 0.57479 0.0
C3991 C 0.87559 0.768 0.57147 0.0
C3992 C 0.88334 0.72862 0.58909 0.0
H3993 H 0.87221 0.67031 0.63658 0.0
H3994 H 0.86436 0.68593 0.61269 0.0
H3995 H 0.88577 0.70555 0.60033 0.0
H3996 H 0.91588 0.78143 0.59143 0.0
H3997 H 0.90419 0.75517 0.59821 0.0
H3998 H 0.85476 0.75677 0.59851 0.0
C3999 C 0.8658 0.6921 0.62415 0.0
C4000 C 0.87839 0.71633 0.59947 0.0
C4001 C 0.87032 0.68321 0.63776 0.0
C4002 C 0.90477 0.77772 0.58559 0.0
C4003 C 0.89816 0.7627 0.58936 0.0
C4004 C 0.86111 0.74533 0.5983 0.0
C4005 C 0.86469 0.70901 0.62503 0.0
C4006 C 0.8655 0.71892 0.61024 0.0
C4007 C 0.88333 0.75793 0.58264 0.0
C4008 C 0.87525 0.74349 0.58911 0.0
H4009 H 0.87421 0.71419 0.66467 0.0
H4010 H 0.86608 0.72976 0.64102 0.0
H4011 H 0.84634 0.73536 0.6171 0.0
H4012 H 0.87601 0.79069 0.55907 0.0
H4013 H 0.86408 0.76455 0.5663 0.0
C4014 C 0.0264 0.84101 0.66448 0.0
C4015 C 0.03674 0.84927 0.67506 0.0
C4016 C 0.01566 0.84957 0.65475 0.0
C4017 C 0.9912 0.88463 0.65098 0.0
H4018 H 0.99275 0.87394 0.60539 0.0
C4019 C 0.95181 0.88246 0.58812 0.0
C4020 C 0.93878 0.87402 0.59486 0.0
C4021 C 0.96412 0.88827 0.59807 0.0
C4022 C 0.99233 0.87755 0.61796 0.0
H4023 H 0.04344 0.87294 0.68429 0.0
H4024 H 0.0242 0.88784 0.66745 0.0
H4025 H 0.01455 0.86537 0.623 0.0
H4026 H 0.92722 0.86641 0.61699 0.0
H4027 H 0.94877 0.87627 0.63445 0.0
H4028 H 0.9683 0.89574 0.64612 0.0
C4029 C 0.0247 0.87478 0.6666 0.0
C4030 C 0.00475 0.87245 0.62806 0.0
C4031 C 0.03564 0.86623 0.67619 0.0
C4032 C 0.93723 0.87295 0.61166 0.0
C4033 C 0.94953 0.87872 0.62162 0.0
C4034 C 0.97862 0.88961 0.64087 0.0
C4035 C 0.0149 0.8665 0.65558 0.0
C4036 C 0.00386 0.87525 0.64473 0.0
C4037 C 0.96359 0.88545 0.61482 0.0
C4038 C 0.97869 0.88537 0.62441 0.0
H4039 H 0.02694 0.82798 0.66332 0.0
H4040 H 0.00798 0.84296 0.64645 0.0
H4041 H 0.99039 0.88699 0.66384 0.0
H4042 H 0.95311 0.88338 0.57513 0.0
H4043 H 0.97472 0.8936 0.59254 0.0
C4044 C 0.1218 0.81834 0.63071 0.0
C4045 C 0.1211 0.81284 0.64671 0.0
C4046 C 0.12785 0.80831 0.61855 0.0
C4047 C 0.12282 0.78008 0.59643 0.0
H4048 H 0.14758 0.74139 0.60538 0.0
C4049 C 0.10819 0.71126 0.59434 0.0
C4050 C 0.10547 0.70722 0.57808 0.0
C4051 C 0.11613 0.7255 0.59838 0.0
C4052 C 0.14092 0.75227 0.60247 0.0
H4053 H 0.1272 0.79336 0.66297 0.0
H4054 H 0.13697 0.7755 0.64186 0.0
H4055 H 0.15305 0.76603 0.62065 0.0
H4056 H 0.10874 0.71508 0.55329 0.0
H4057 H 0.12208 0.74064 0.56054 0.0
H4058 H 0.11019 0.76599 0.5788 0.0
C4059 C 0.13344 0.78763 0.6385 0.0
C4060 C 0.14393 0.76634 0.61128 0.0
C4061 C 0.12771 0.7978 0.65066 0.0
C4062 C 0.11066 0.71791 0.56592 0.0
C4063 C 0.11837 0.73242 0.57002 0.0
C4064 C 0.12001 0.76609 0.58744 0.0
C4065 C 0.13281 0.79245 0.62217 0.0
C4066 C 0.13405 0.78002 0.60922 0.0
C4067 C 0.12132 0.73617 0.58629 0.0
C4068 C 0.12827 0.75182 0.5912 0.0
H4069 H 0.11688 0.83004 0.62751 0.0
H4070 H 0.12759 0.81258 0.60619 0.0
H4071 H 0.11493 0.79031 0.59441 0.0
H4072 H 0.10441 0.7033 0.60402 0.0
H4073 H 0.1179 0.72836 0.61103 0.0
C4074 C 0.04197 0.62507 0.59654 0.0
C4075 C 0.0582 0.62803 0.60022 0.0
C4076 C 0.03154 0.61922 0.60835 0.0
C4077 C 0.0107 0.60623 0.63473 0.0
H4078 H 0.01302 0.63793 0.6692 0.0
C4079 C 0.96452 0.63943 0.68224 0.0
C4080 C 0.95402 0.64586 0.67051 0.0
C4081 C 0.97871 0.63148 0.67759 0.0
C4082 C 0.01236 0.62865 0.65997 0.0
H4083 H 0.07674 0.62602 0.61852 0.0
H4084 H 0.0583 0.616 0.63952 0.0
H4085 H 0.037 0.63208 0.65315 0.0
H4086 H 0.95017 0.64899 0.64476 0.0
H4087 H 0.97474 0.63503 0.63672 0.0
H4088 H 0.98557 0.60419 0.6405 0.0
C4089 C 0.05367 0.61816 0.62747 0.0
C4090 C 0.02611 0.62523 0.6508 0.0
C4091 C 0.06419 0.62386 0.61551 0.0
C4092 C 0.95801 0.64425 0.6541 0.0
C4093 C 0.97195 0.63607 0.64948 0.0
C4094 C 0.99694 0.60979 0.64378 0.0
C4095 C 0.0371 0.61639 0.62415 0.0
C4096 C 0.02508 0.61487 0.63734 0.0
C4097 C 0.98236 0.62953 0.66115 0.0
C4098 C 0.99747 0.6218 0.65575 0.0
H4099 H 0.03717 0.6281 0.58474 0.0
H4100 H 0.01884 0.61822 0.60538 0.0
H4101 H 0.00967 0.59791 0.62467 0.0
H4102 H 0.96173 0.64051 0.69499 0.0
H4103 H 0.98672 0.62671 0.68676 0.0
C4104 C 0.87169 0.29338 0.84938 0.0
C4105 C 0.87541 0.3098 0.85096 0.0
C4106 C 0.86665 0.28455 0.8628 0.0
C4107 C 0.85681 0.26745 0.89351 0.0
H4108 H 0.89459 0.27241 0.92074 0.0
C4109 C 0.88357 0.21522 0.93154 0.0
C4110 C 0.89822 0.21109 0.92395 0.0
C4111 C 0.87636 0.23023 0.92858 0.0
C4112 C 0.88368 0.2711 0.91363 0.0
H4113 H 0.87554 0.33037 0.8671 0.0
H4114 H 0.86706 0.31478 0.89086 0.0
H4115 H 0.88633 0.29453 0.90324 0.0
H4116 H 0.91732 0.21967 0.90824 0.0
H4117 H 0.905 0.24601 0.90349 0.0
H4118 H 0.85516 0.2434 0.90294 0.0
C4119 C 0.86783 0.30878 0.87925 0.0
C4120 C 0.87887 0.28379 0.90365 0.0
C4121 C 0.87267 0.31767 0.86572 0.0
C4122 C 0.90602 0.22254 0.9142 0.0
C4123 C 0.89903 0.23763 0.91159 0.0
C4124 C 0.86152 0.25481 0.90367 0.0
C4125 C 0.86557 0.29198 0.87807 0.0
C4126 C 0.86612 0.28164 0.89265 0.0
C4127 C 0.88397 0.24144 0.91841 0.0
C4128 C 0.87564 0.25621 0.91294 0.0
H4129 H 0.8738 0.28715 0.83805 0.0
H4130 H 0.8652 0.2716 0.86151 0.0
H4131 H 0.84686 0.26555 0.88524 0.0
H4132 H 0.87728 0.20654 0.93905 0.0
H4133 H 0.86467 0.23292 0.93383 0.0
C4134 C 0.46654 0.84188 0.34082 0.0
C4135 C 0.45811 0.85048 0.3289 0.0
C4136 C 0.47972 0.8489 0.34861 0.0
C4137 C 0.5118 0.87838 0.34427 0.0
H4138 H 0.51439 0.87362 0.39077 0.0
C4139 C 0.55696 0.88279 0.40323 0.0
C4140 C 0.56943 0.87289 0.39719 0.0
C4141 C 0.54406 0.88725 0.39338 0.0
C4142 C 0.51379 0.87547 0.37783 0.0
H4143 H 0.45706 0.87307 0.31557 0.0
H4144 H 0.48032 0.8852 0.32912 0.0
H4145 H 0.48972 0.86619 0.37686 0.0
H4146 H 0.57942 0.86245 0.37527 0.0
H4147 H 0.55646 0.86944 0.35837 0.0
H4148 H 0.53624 0.88697 0.34523 0.0
C4149 C 0.47661 0.87309 0.33244 0.0
C4150 C 0.4997 0.87098 0.36986 0.0
C4151 C 0.4633 0.86614 0.32474 0.0
C4152 C 0.56972 0.86948 0.38052 0.0
C4153 C 0.55665 0.87375 0.37072 0.0
C4154 C 0.52604 0.88277 0.35226 0.0
C4155 C 0.48482 0.86459 0.34455 0.0
C4156 C 0.49878 0.87183 0.35298 0.0
C4157 C 0.54319 0.88169 0.37739 0.0
C4158 C 0.52734 0.88084 0.36909 0.0
H4159 H 0.46287 0.8298 0.34427 0.0
H4160 H 0.48603 0.842 0.35777 0.0
H4161 H 0.51132 0.87921 0.33121 0.0
H4162 H 0.55622 0.88584 0.41592 0.0
H4163 H 0.53405 0.89378 0.39873 0.0
C4164 C 0.10923 0.29693 0.89994 0.0
C4165 C 0.10455 0.29782 0.91619 0.0
C4166 C 0.11583 0.28279 0.89373 0.0
C4167 C 0.13211 0.24211 0.90452 0.0
H4168 H 0.11727 0.23253 0.86114 0.0
C4169 C 0.1165 0.18395 0.86891 0.0
C4170 C 0.12154 0.1843 0.85272 0.0
C4171 C 0.12216 0.19555 0.87975 0.0
C4172 C 0.12183 0.23521 0.87312 0.0
H4173 H 0.10341 0.28483 0.93887 0.0
H4174 H 0.11408 0.25953 0.92772 0.0
H4175 H 0.10976 0.2578 0.87357 0.0
H4176 H 0.13818 0.19508 0.83568 0.0
H4177 H 0.14765 0.21576 0.8545 0.0
H4178 H 0.14292 0.2184 0.9042 0.0
C4179 C 0.1131 0.26996 0.91989 0.0
C4180 C 0.11755 0.24973 0.88029 0.0
C4181 C 0.10683 0.28435 0.92624 0.0
C4182 C 0.1341 0.19469 0.84811 0.0
C4183 C 0.13961 0.20642 0.8589 0.0
C4184 C 0.1361 0.22725 0.89739 0.0
C4185 C 0.11747 0.26898 0.90347 0.0
C4186 C 0.12263 0.25346 0.89605 0.0
C4187 C 0.13264 0.2077 0.87433 0.0
C4188 C 0.13101 0.22381 0.8816 0.0
H4189 H 0.108 0.30726 0.89199 0.0
H4190 H 0.11952 0.28269 0.88117 0.0
H4191 H 0.13629 0.24463 0.91665 0.0
H4192 H 0.10693 0.17586 0.8727 0.0
H4193 H 0.1166 0.19638 0.89158 0.0
C4194 C 0.52956 0.63565 0.31569 0.0
C4195 C 0.54084 0.63773 0.3282 0.0
C4196 C 0.51454 0.62853 0.31886 0.0
C4197 C 0.49241 0.60384 0.34884 0.0
H4198 H 0.45706 0.63368 0.34191 0.0
C4199 C 0.4461 0.61769 0.3962 0.0
C4200 C 0.43157 0.6254 0.39214 0.0
C4201 C 0.45634 0.61192 0.38412 0.0
C4202 C 0.46652 0.6248 0.34355 0.0
H4203 H 0.5456 0.63341 0.35361 0.0
H4204 H 0.51961 0.62093 0.35906 0.0
H4205 H 0.4823 0.63764 0.32761 0.0
H4206 H 0.41526 0.63111 0.37249 0.0
H4207 H 0.43311 0.62086 0.3513 0.0
H4208 H 0.47695 0.59153 0.36551 0.0
C4209 C 0.5223 0.62475 0.34683 0.0
C4210 C 0.48106 0.62715 0.33534 0.0
C4211 C 0.53708 0.63213 0.34375 0.0
C4212 C 0.42662 0.6256 0.3759 0.0
C4213 C 0.43682 0.6197 0.36379 0.0
C4214 C 0.47781 0.60138 0.35694 0.0
C4215 C 0.51081 0.62302 0.33449 0.0
C4216 C 0.49442 0.61732 0.33873 0.0
C4217 C 0.45222 0.61369 0.36772 0.0
C4218 C 0.46509 0.61252 0.35523 0.0
H4219 H 0.53221 0.63985 0.30357 0.0
H4220 H 0.50579 0.62747 0.3092 0.0
H4221 H 0.50251 0.59592 0.35143 0.0
H4222 H 0.45023 0.61734 0.40861 0.0
H4223 H 0.46811 0.60748 0.38768 0.0
C4224 C 0.56402 0.88296 0.78152 0.0
C4225 C 0.57547 0.89334 0.78868 0.0
C4226 C 0.56731 0.8755 0.76667 0.0
C4227 C 0.58373 0.87838 0.72906 0.0
H4228 H 0.61662 0.84513 0.73203 0.0
C4229 C 0.64827 0.87352 0.70373 0.0
C4230 C 0.64589 0.8776 0.68749 0.0
C4231 C 0.63558 0.86732 0.71286 0.0
C4232 C 0.60713 0.85408 0.73084 0.0
H4233 H 0.59897 0.90454 0.78557 0.0
H4234 H 0.60457 0.89163 0.75972 0.0
H4235 H 0.59977 0.85125 0.75551 0.0
H4236 H 0.629 0.87717 0.66754 0.0
H4237 H 0.60646 0.86664 0.68373 0.0
H4238 H 0.59228 0.88264 0.7051 0.0
C4239 C 0.59318 0.88917 0.76571 0.0
C4240 C 0.59745 0.85749 0.74423 0.0
C4241 C 0.58995 0.89655 0.78047 0.0
C4242 C 0.63102 0.87416 0.68012 0.0
C4243 C 0.61818 0.86814 0.68934 0.0
C4244 C 0.59342 0.87499 0.71566 0.0
C4245 C 0.58203 0.87845 0.75886 0.0
C4246 C 0.58647 0.87038 0.7437 0.0
C4247 C 0.62018 0.86528 0.70598 0.0
C4248 C 0.60606 0.8637 0.71689 0.0
H4249 H 0.55275 0.88023 0.78759 0.0
H4250 H 0.55857 0.86728 0.76145 0.0
H4251 H 0.5754 0.88847 0.72851 0.0
H4252 H 0.65972 0.87592 0.70958 0.0
H4253 H 0.63753 0.86546 0.72567 0.0
C4254 C 0.58281 0.09296 0.72006 0.0
C4255 C 0.57343 0.1016 0.70894 0.0
C4256 C 0.58664 0.09977 0.73498 0.0
C4257 C 0.59749 0.13725 0.75194 0.0
H4258 H 0.59731 0.1129 0.79194 0.0
C4259 C 0.63378 0.12767 0.81601 0.0
C4260 C 0.64876 0.12443 0.80875 0.0
C4261 C 0.62061 0.13223 0.80649 0.0
C4262 C 0.59709 0.1202 0.78108 0.0
H4263 H 0.56033 0.12392 0.7047 0.0
H4264 H 0.56765 0.1361 0.73071 0.0
H4265 H 0.57976 0.10465 0.76983 0.0
H4266 H 0.66243 0.12512 0.78649 0.0
H4267 H 0.63958 0.13327 0.76986 0.0
H4268 H 0.61604 0.15182 0.76264 0.0
C4269 C 0.57168 0.12395 0.72796 0.0
C4270 C 0.58713 0.11537 0.7684 0.0
C4271 C 0.56751 0.11697 0.71315 0.0
C4272 C 0.65092 0.12752 0.79226 0.0
C4273 C 0.63786 0.13231 0.7828 0.0
C4274 C 0.60765 0.14196 0.76457 0.0
C4275 C 0.58142 0.11546 0.73888 0.0
C4276 C 0.5879 0.12334 0.75348 0.0
C4277 C 0.62238 0.13377 0.78967 0.0
C4278 C 0.60816 0.1329 0.77891 0.0
H4279 H 0.58747 0.08109 0.71709 0.0
H4280 H 0.59438 0.09309 0.74315 0.0
H4281 H 0.59829 0.14355 0.74049 0.0
H4282 H 0.63194 0.12533 0.82876 0.0
H4283 H 0.60882 0.13332 0.81206 0.0
C4284 C 0.3813 0.08244 0.45777 0.0
C4285 C 0.3752 0.08875 0.44332 0.0
C4286 C 0.38624 0.09285 0.47007 0.0
C4287 C 0.38826 0.13644 0.48227 0.0
H4288 H 0.36031 0.12133 0.51674 0.0
C4289 C 0.36435 0.17409 0.53777 0.0
C4290 C 0.34735 0.17408 0.5383 0.0
C4291 C 0.37259 0.16404 0.52698 0.0
C4292 C 0.36835 0.12563 0.50734 0.0
H4293 H 0.37105 0.11045 0.42941 0.0
H4294 H 0.37907 0.12875 0.45105 0.0
H4295 H 0.36943 0.10248 0.49627 0.0
H4296 H 0.32566 0.16388 0.52772 0.0
H4297 H 0.34009 0.1461 0.50911 0.0
H4298 H 0.38614 0.15994 0.49314 0.0
C4299 C 0.38046 0.11587 0.45293 0.0
C4300 C 0.37378 0.11481 0.49569 0.0
C4301 C 0.37574 0.10543 0.44055 0.0
C4302 C 0.33874 0.16414 0.5276 0.0
C4303 C 0.34698 0.15393 0.51703 0.0
C4304 C 0.3829 0.1473 0.4941 0.0
C4305 C 0.38466 0.10968 0.46819 0.0
C4306 C 0.3832 0.12021 0.48261 0.0
C4307 C 0.36393 0.15366 0.5168 0.0
C4308 C 0.37231 0.14204 0.50625 0.0
H4309 H 0.38103 0.06954 0.46 0.0
H4310 H 0.38979 0.08774 0.48158 0.0
H4311 H 0.39559 0.14091 0.47238 0.0
H4312 H 0.37128 0.18173 0.54582 0.0
H4313 H 0.38567 0.164 0.52693 0.0
C4314 C 0.34657 0.36259 0.80602 0.0
C4315 C 0.35282 0.37332 0.81765 0.0
C4316 C 0.35633 0.35698 0.79347 0.0
C4317 C 0.37122 0.36652 0.76229 0.0
H4318 H 0.41797 0.36767 0.75993 0.0
C4319 C 0.40285 0.40295 0.71401 0.0
C4320 C 0.41632 0.3964 0.7061 0.0
C4321 C 0.39638 0.39529 0.72752 0.0
C4322 C 0.4049 0.36708 0.76033 0.0
H4323 H 0.37492 0.38393 0.82693 0.0
H4324 H 0.39158 0.3752 0.8045 0.0
H4325 H 0.40479 0.35887 0.78489 0.0
H4326 H 0.43396 0.37696 0.70641 0.0
H4327 H 0.42252 0.36352 0.73012 0.0
H4328 H 0.37127 0.37514 0.738 0.0
C4329 C 0.37921 0.37102 0.80499 0.0
C4330 C 0.39736 0.36211 0.77463 0.0
C4331 C 0.36953 0.37633 0.81775 0.0
C4332 C 0.42357 0.38233 0.71231 0.0
C4333 C 0.41703 0.3746 0.72584 0.0
C4334 C 0.37873 0.37139 0.74807 0.0
C4335 C 0.37237 0.36236 0.79206 0.0
C4336 C 0.38042 0.36258 0.77602 0.0
C4337 C 0.40318 0.38085 0.73335 0.0
C4338 C 0.3956 0.37254 0.74724 0.0
H4339 H 0.33383 0.35974 0.80558 0.0
H4340 H 0.35085 0.3498 0.78401 0.0
H4341 H 0.35817 0.3672 0.76281 0.0
H4342 H 0.39713 0.41388 0.70964 0.0
H4343 H 0.38596 0.40065 0.73337 0.0
C4344 C 0.12499 0.90724 0.96025 0.0
C4345 C 0.12687 0.90609 0.94347 0.0
C4346 C 0.12004 0.8938 0.96911 0.0
C4347 C 0.12928 0.85243 0.96811 0.0
H4348 H 0.1052 0.85165 0.00827 0.0
C4349 C 0.14898 0.81106 0.02003 0.0
C4350 C 0.14948 0.81897 0.03498 0.0
C4351 C 0.14045 0.81787 0.00715 0.0
C4352 C 0.11195 0.85162 0.99706 0.0
H4353 H 0.12393 0.89064 0.92253 0.0
H4354 H 0.11578 0.86687 0.93817 0.0
H4355 H 0.09864 0.87177 0.9877 0.0
H4356 H 0.14197 0.84006 0.04843 0.0
H4357 H 0.12763 0.85235 0.02595 0.0
H4358 H 0.14374 0.83354 0.97794 0.0
C4359 C 0.11785 0.8782 0.9444 0.0
C4360 C 0.10806 0.86302 0.98525 0.0
C4361 C 0.12252 0.89175 0.9355 0.0
C4362 C 0.14143 0.83368 0.03702 0.0
C4363 C 0.13309 0.84059 0.02415 0.0
C4364 C 0.13335 0.84122 0.97999 0.0
C4365 C 0.11722 0.87896 0.96133 0.0
C4366 C 0.11728 0.86405 0.97108 0.0
C4367 C 0.13254 0.83283 0.00902 0.0
C4368 C 0.12535 0.84134 0.99498 0.0
H4369 H 0.12821 0.91824 0.96658 0.0
H4370 H 0.11982 0.89466 0.98218 0.0
H4371 H 0.13666 0.85304 0.95731 0.0
H4372 H 0.1551 0.7996 0.01836 0.0
H4373 H 0.14021 0.81153 0.99571 0.0
C4374 C 0.84457 0.12938 0.20244 0.0
C4375 C 0.84657 0.1243 0.18641 0.0
C4376 C 0.85807 0.1329 0.21187 0.0
C4377 C 0.89092 0.11066 0.21826 0.0
H4378 H 0.90734 0.14236 0.2485 0.0
C4379 C 0.92739 0.08943 0.27278 0.0
C4380 C 0.92482 0.09774 0.2873 0.0
C4381 C 0.92214 0.09604 0.25819 0.0
C4382 C 0.90279 0.13331 0.24024 0.0
H4383 H 0.86368 0.12061 0.16698 0.0
H4384 H 0.88743 0.12602 0.18376 0.0
H4385 H 0.88978 0.15101 0.22634 0.0
H4386 H 0.91504 0.11946 0.29811 0.0
H4387 H 0.90458 0.13034 0.27304 0.0
H4388 H 0.90192 0.09268 0.23278 0.0
C4389 C 0.8755 0.12775 0.18887 0.0
C4390 C 0.89299 0.13836 0.22743 0.0
C4391 C 0.86197 0.12457 0.17935 0.0
C4392 C 0.9171 0.11281 0.28704 0.0
C4393 C 0.91133 0.11916 0.27256 0.0
C4394 C 0.90021 0.10554 0.23127 0.0
C4395 C 0.87363 0.13097 0.20541 0.0
C4396 C 0.88678 0.12697 0.21658 0.0
C4397 C 0.91364 0.11081 0.2579 0.0
C4398 C 0.90594 0.11672 0.24273 0.0
H4399 H 0.83274 0.12921 0.20804 0.0
H4400 H 0.85642 0.13518 0.22466 0.0
H4401 H 0.88591 0.10164 0.21018 0.0
H4402 H 0.93366 0.07794 0.27269 0.0
H4403 H 0.92465 0.08943 0.24719 0.0
C4404 C 0.37476 0.90321 0.04358 0.0
C4405 C 0.37028 0.90033 0.05961 0.0
C4406 C 0.38043 0.89058 0.03402 0.0
C4407 C 0.37014 0.84969 0.02836 0.0
H4408 H 0.39861 0.85502 0.99156 0.0
C4409 C 0.3595 0.81852 0.96628 0.0
C4410 C 0.3598 0.8298 0.95356 0.0
C4411 C 0.36509 0.82282 0.98164 0.0
C4412 C 0.39075 0.85319 0.00187 0.0
H4413 H 0.36911 0.88257 0.07877 0.0
H4414 H 0.37854 0.86012 0.06175 0.0
H4415 H 0.40343 0.87064 0.01611 0.0
H4416 H 0.36538 0.8546 0.94715 0.0
H4417 H 0.37484 0.86212 0.97387 0.0
H4418 H 0.35661 0.83332 0.01361 0.0
C4419 C 0.37794 0.87217 0.05669 0.0
C4420 C 0.39359 0.86202 0.01592 0.0
C4421 C 0.37255 0.88494 0.06636 0.0
C4422 C 0.3652 0.84557 0.95662 0.0
C4423 C 0.37081 0.84983 0.97188 0.0
C4424 C 0.36728 0.84086 0.01427 0.0
C4425 C 0.38138 0.87481 0.04028 0.0
C4426 C 0.38262 0.8612 0.02882 0.0
C4427 C 0.37113 0.83842 0.98444 0.0
C4428 C 0.37692 0.84344 0.00056 0.0
H4429 H 0.37311 0.91505 0.03823 0.0
H4430 H 0.38276 0.89294 0.02136 0.0
H4431 H 0.36149 0.84882 0.03815 0.0
H4432 H 0.35536 0.80626 0.96428 0.0
H4433 H 0.36501 0.8139 0.9912 0.0
C4434 C 0.63789 0.6767 0.95994 0.0
C4435 C 0.6324 0.6693 0.9457 0.0
C4436 C 0.63329 0.67066 0.97502 0.0
C4437 C 0.6188 0.63289 0.99365 0.0
H4438 H 0.61549 0.65979 0.03192 0.0
C4439 C 0.61602 0.60292 0.05448 0.0
C4440 C 0.63034 0.60672 0.06269 0.0
C4441 C 0.61027 0.61321 0.04242 0.0
C4442 C 0.61612 0.65218 0.02128 0.0
H4443 H 0.61727 0.65019 0.93604 0.0
H4444 H 0.60895 0.63993 0.96225 0.0
H4445 H 0.61745 0.67244 0.00525 0.0
H4446 H 0.64873 0.6249 0.06646 0.0
H4447 H 0.63858 0.64303 0.04553 0.0
H4448 H 0.61788 0.61268 0.00963 0.0
C4449 C 0.61713 0.65013 0.96185 0.0
C4450 C 0.61743 0.65938 0.00605 0.0
C4451 C 0.62187 0.65604 0.94681 0.0
C4452 C 0.63772 0.62175 0.06012 0.0
C4453 C 0.63184 0.63214 0.04825 0.0
C4454 C 0.61725 0.62574 0.00879 0.0
C4455 C 0.62297 0.65719 0.97616 0.0
C4456 C 0.6193 0.6498 0.9921 0.0
C4457 C 0.61869 0.62746 0.03863 0.0
C4458 C 0.61638 0.63529 0.02278 0.0
H4459 H 0.64603 0.68694 0.95946 0.0
H4460 H 0.63826 0.67624 0.98576 0.0
H4461 H 0.62053 0.62508 0.98329 0.0
H4462 H 0.61015 0.59136 0.05632 0.0
H4463 H 0.60004 0.60942 0.03519 0.0
C4464 C 0.21858 0.21389 0.44776 0.0
C4465 C 0.20257 0.21936 0.44943 0.0
C4466 C 0.22986 0.21625 0.46008 0.0
C4467 C 0.23318 0.22404 0.50396 0.0
H4468 H 0.27785 0.23321 0.49318 0.0
C4469 C 0.28162 0.23352 0.55347 0.0
C4470 C 0.29643 0.22547 0.55115 0.0
C4471 C 0.27034 0.23471 0.54091 0.0
C4472 C 0.26545 0.23055 0.49641 0.0
H4473 H 0.186 0.23183 0.46541 0.0
H4474 H 0.20579 0.23611 0.48696 0.0
H4475 H 0.2577 0.23174 0.47178 0.0
H4476 H 0.31108 0.21296 0.53331 0.0
H4477 H 0.29154 0.21503 0.51158 0.0
H4478 H 0.24099 0.22269 0.52859 0.0
C4479 C 0.20953 0.22978 0.47613 0.0
C4480 C 0.25388 0.22969 0.48412 0.0
C4481 C 0.19818 0.22737 0.46377 0.0
C4482 C 0.29993 0.21933 0.53566 0.0
C4483 C 0.28866 0.22052 0.52312 0.0
C4484 C 0.24476 0.22494 0.51627 0.0
C4485 C 0.22552 0.2242 0.47445 0.0
C4486 C 0.23761 0.22622 0.4877 0.0
C4487 C 0.27358 0.22795 0.52565 0.0
C4488 C 0.26109 0.22802 0.51264 0.0
H4489 H 0.22236 0.20732 0.4371 0.0
H4490 H 0.24192 0.21144 0.45846 0.0
H4491 H 0.22084 0.22113 0.50718 0.0
H4492 H 0.27858 0.23869 0.56509 0.0
H4493 H 0.259 0.24083 0.54321 0.0
C4494 C 0.47899 0.53694 0.80004 0.0
C4495 C 0.46501 0.54631 0.80207 0.0
C4496 C 0.47995 0.52541 0.78766 0.0
C4497 C 0.45893 0.51194 0.74963 0.0
H4498 H 0.48476 0.47336 0.75592 0.0
C4499 C 0.45438 0.45406 0.71008 0.0
C4500 C 0.46889 0.44942 0.70255 0.0
C4501 C 0.45431 0.46597 0.72209 0.0
C4502 C 0.47757 0.48412 0.754 0.0
H4503 H 0.44091 0.55072 0.79305 0.0
H4504 H 0.44213 0.53017 0.77203 0.0
H4505 H 0.48353 0.49373 0.77721 0.0
H4506 H 0.4947 0.45338 0.70187 0.0
H4507 H 0.49468 0.47389 0.72342 0.0
H4508 H 0.4524 0.50173 0.72669 0.0
C4509 C 0.45272 0.53207 0.77944 0.0
C4510 C 0.47693 0.49592 0.76615 0.0
C4511 C 0.45193 0.54384 0.79157 0.0
C4512 C 0.48338 0.45676 0.70748 0.0
C4513 C 0.48337 0.46841 0.7198 0.0
C4514 C 0.45928 0.49996 0.73767 0.0
C4515 C 0.46678 0.52267 0.77721 0.0
C4516 C 0.4676 0.51006 0.76417 0.0
C4517 C 0.4688 0.47324 0.72709 0.0
C4518 C 0.46862 0.48597 0.73973 0.0
H4519 H 0.48928 0.53872 0.8079 0.0
H4520 H 0.49113 0.51879 0.78624 0.0
H4521 H 0.45192 0.52273 0.74732 0.0
H4522 H 0.44302 0.44873 0.70638 0.0
H4523 H 0.44294 0.46947 0.72755 0.0
C4524 C 0.70243 0.26807 0.53609 0.0
C4525 C 0.70379 0.27983 0.54824 0.0
C4526 C 0.71414 0.26702 0.52382 0.0
C4527 C 0.75632 0.27998 0.51449 0.0
H4528 H 0.74469 0.27043 0.47017 0.0
C4529 C 0.80094 0.29022 0.46188 0.0
C4530 C 0.80076 0.27952 0.44868 0.0
C4531 C 0.78926 0.28914 0.47407 0.0
C4532 C 0.74821 0.27289 0.48252 0.0
H4533 H 0.71773 0.30022 0.55669 0.0
H4534 H 0.7378 0.29882 0.53519 0.0
H4535 H 0.72383 0.27066 0.49102 0.0
H4536 H 0.78836 0.25899 0.43823 0.0
H4537 H 0.76816 0.25684 0.45969 0.0
H4538 H 0.78062 0.28232 0.50607 0.0
C4539 C 0.7282 0.28993 0.53535 0.0
C4540 C 0.73621 0.27303 0.49451 0.0
C4541 C 0.71669 0.2908 0.54766 0.0
C4542 C 0.78876 0.26749 0.44816 0.0
C4543 C 0.77713 0.26633 0.46044 0.0
C4544 C 0.76828 0.27984 0.50255 0.0
C4545 C 0.72727 0.27789 0.52337 0.0
C4546 C 0.74007 0.27679 0.51064 0.0
C4547 C 0.77712 0.27724 0.4735 0.0
C4548 C 0.7644 0.2765 0.48635 0.0
H4549 H 0.69252 0.25955 0.53631 0.0
H4550 H 0.71305 0.25754 0.51487 0.0
H4551 H 0.75986 0.28254 0.52682 0.0
H4552 H 0.80978 0.29982 0.46255 0.0
H4553 H 0.78952 0.29798 0.48372 0.0
C4554 C 0.52891 0.02994 0.69225 0.0
C4555 C 0.5283 0.04662 0.69559 0.0
C4556 C 0.52887 0.01859 0.70479 0.0
C4557 C 0.51906 0.01344 0.74834 0.0
H4558 H 0.54724 0.97616 0.74487 0.0
C4559 C 0.53087 0.97026 0.80212 0.0
C4560 C 0.53154 0.95355 0.79892 0.0
C4561 C 0.53018 0.9815 0.78951 0.0
C4562 C 0.53916 0.98639 0.74596 0.0
H4563 H 0.52674 0.06428 0.7149 0.0
H4564 H 0.52693 0.04453 0.73673 0.0
H4565 H 0.54647 0.99592 0.72304 0.0
H4566 H 0.5318 0.93571 0.77971 0.0
H4567 H 0.53068 0.9553 0.75774 0.0
H4568 H 0.51185 0.00395 0.77132 0.0
C4569 C 0.52732 0.04022 0.72438 0.0
C4570 C 0.5387 0.99775 0.73342 0.0
C4571 C 0.52738 0.05158 0.71183 0.0
C4572 C 0.5315 0.94844 0.7827 0.0
C4573 C 0.53087 0.9597 0.77007 0.0
C4574 C 0.51955 0.0021 0.76089 0.0
C4575 C 0.5282 0.02356 0.72104 0.0
C4576 C 0.52863 0.01143 0.73442 0.0
C4577 C 0.5302 0.97638 0.77331 0.0
C4578 C 0.5296 0.98842 0.75987 0.0
H4579 H 0.5298 0.02561 0.67995 0.0
H4580 H 0.52934 0.00587 0.70172 0.0
H4581 H 0.51099 0.02368 0.74945 0.0
H4582 H 0.53118 0.97476 0.81439 0.0
H4583 H 0.52995 0.99425 0.79247 0.0
C4584 C 0.20201 0.77034 0.0397 0.0
C4585 C 0.20585 0.77949 0.05349 0.0
C4586 C 0.21273 0.76963 0.02655 0.0
C4587 C 0.25565 0.77814 0.01545 0.0
H4588 H 0.23914 0.77967 0.97167 0.0
C4589 C 0.29649 0.79346 0.96114 0.0
C4590 C 0.29444 0.78452 0.94683 0.0
C4591 C 0.28555 0.79191 0.97393 0.0
C4592 C 0.24394 0.77906 0.98382 0.0
H4593 H 0.22373 0.79553 0.06396 0.0
H4594 H 0.24211 0.79449 0.04124 0.0
H4595 H 0.2203 0.77828 0.99435 0.0
H4596 H 0.27927 0.76681 0.93489 0.0
H4597 H 0.26017 0.76413 0.95722 0.0
H4598 H 0.27925 0.77924 0.00496 0.0
C4599 C 0.23116 0.78737 0.04067 0.0
C4600 C 0.23313 0.77822 0.99684 0.0
C4601 C 0.22057 0.78795 0.05378 0.0
C4602 C 0.28112 0.77402 0.94564 0.0
C4603 C 0.27016 0.77249 0.95845 0.0
C4604 C 0.26641 0.77908 0.00247 0.0
C4605 C 0.22744 0.77819 0.02686 0.0
C4606 C 0.23885 0.77795 0.01286 0.0
C4607 C 0.27226 0.78138 0.97277 0.0
C4608 C 0.26071 0.77973 0.9865 0.0
H4609 H 0.19075 0.76373 0.03911 0.0
H4610 H 0.20951 0.76232 0.01619 0.0
H4611 H 0.26055 0.77757 0.02756 0.0
H4612 H 0.3064 0.80189 0.96238 0.0
H4613 H 0.28738 0.79917 0.98467 0.0
C4614 C 0.01865 0.45006 0.28608 0.0
C4615 C 0.02147 0.45454 0.30223 0.0
C4616 C 0.01829 0.46172 0.27382 0.0
C4617 C 0.03401 0.50197 0.26381 0.0
H4618 H 0.00146 0.50171 0.23019 0.0
C4619 C 0.03224 0.55182 0.21484 0.0
C4620 C 0.0282 0.54724 0.19896 0.0
C4621 C 0.03035 0.54102 0.22774 0.0
C4622 C 0.01079 0.50187 0.23934 0.0
H4623 H 0.02602 0.47485 0.31813 0.0
H4624 H 0.02541 0.4952 0.29674 0.0
H4625 H 0.00019 0.48181 0.25188 0.0
H4626 H 0.01836 0.52763 0.18455 0.0
H4627 H 0.0157 0.50876 0.20676 0.0
H4628 H 0.04494 0.52165 0.25112 0.0
C4629 C 0.02345 0.48264 0.29358 0.0
C4630 C 0.01 0.49047 0.25183 0.0
C4631 C 0.02361 0.47101 0.30586 0.0
C4632 C 0.02184 0.53164 0.19649 0.0
C4633 C 0.0201 0.5208 0.20935 0.0
C4634 C 0.03491 0.51325 0.25123 0.0
C4635 C 0.02095 0.47812 0.27739 0.0
C4636 C 0.02159 0.4904 0.26422 0.0
C4637 C 0.02449 0.52525 0.22517 0.0
C4638 C 0.02331 0.51339 0.23879 0.0
H4639 H 0.01694 0.43748 0.28292 0.0
H4640 H 0.01643 0.45782 0.26146 0.0
H4641 H 0.04328 0.50208 0.27304 0.0
H4642 H 0.03728 0.5636 0.21737 0.0
H4643 H 0.03359 0.54506 0.23976 0.0
C4644 C 0.70562 0.70311 0.95816 0.0
C4645 C 0.69714 0.71756 0.95535 0.0
C4646 C 0.71752 0.70234 0.97019 0.0
C4647 C 0.73052 0.72162 0.00803 0.0
H4648 H 0.77292 0.70455 0.99786 0.0
C4649 C 0.78358 0.72815 0.05285 0.0
C4650 C 0.79489 0.71555 0.05377 0.0
C4651 C 0.77184 0.72828 0.04066 0.0
C4652 C 0.76109 0.70913 0.00104 0.0
H4653 H 0.69418 0.74235 0.96322 0.0
H4654 H 0.71472 0.74097 0.9843 0.0
H4655 H 0.75177 0.70422 0.97735 0.0
H4656 H 0.8026 0.69305 0.04284 0.0
H4657 H 0.78192 0.69293 0.02195 0.0
H4658 H 0.73954 0.72622 0.03177 0.0
C4659 C 0.71226 0.73027 0.97716 0.0
C4660 C 0.74898 0.70897 0.98923 0.0
C4661 C 0.70058 0.73109 0.96502 0.0
C4662 C 0.79422 0.70307 0.04226 0.0
C4663 C 0.78235 0.70305 0.03024 0.0
C4664 C 0.74254 0.72159 0.0199 0.0
C4665 C 0.72095 0.71593 0.97983 0.0
C4666 C 0.73361 0.71534 0.99256 0.0
C4667 C 0.77094 0.71564 0.02926 0.0
C4668 C 0.75806 0.71547 0.01657 0.0
H4669 H 0.70334 0.69253 0.9508 0.0
H4670 H 0.72397 0.69111 0.97204 0.0
H4671 H 0.71872 0.72644 0.01101 0.0
H4672 H 0.78392 0.73798 0.06148 0.0
H4673 H 0.76355 0.73838 0.04015 0.0
C4674 C 0.97447 0.04902 0.2875 0.0
C4675 C 0.96576 0.04493 0.30149 0.0
C4676 C 0.97583 0.03799 0.27463 0.0
C4677 C 0.97024 0.99396 0.26529 0.0
H4678 H 0.97053 0.00828 0.22072 0.0
C4679 C 0.95935 0.95038 0.2118 0.0
C4680 C 0.96948 0.95178 0.19817 0.0
C4681 C 0.95984 0.96186 0.22422 0.0
C4682 C 0.97061 0.00411 0.23312 0.0
H4683 H 0.95087 0.02644 0.31251 0.0
H4684 H 0.9528 0.00757 0.29021 0.0
H4685 H 0.96951 0.02825 0.24248 0.0
H4686 H 0.9883 0.96653 0.18735 0.0
H4687 H 0.98887 0.98665 0.20888 0.0
H4688 H 0.97087 0.96984 0.25591 0.0
C4689 C 0.95925 0.01891 0.28929 0.0
C4690 C 0.97008 0.01556 0.24563 0.0
C4691 C 0.95809 0.02979 0.30214 0.0
C4692 C 0.98014 0.96505 0.19745 0.0
C4693 C 0.9805 0.97663 0.20982 0.0
C4694 C 0.97057 0.98256 0.25282 0.0
C4695 C 0.9683 0.0227 0.2754 0.0
C4696 C 0.96971 0.01065 0.26192 0.0
C4697 C 0.97035 0.97518 0.22336 0.0
C4698 C 0.97063 0.98745 0.23657 0.0
H4699 H 0.98046 0.06062 0.28665 0.0
H4700 H 0.98299 0.04135 0.26422 0.0
H4701 H 0.97043 0.98963 0.27763 0.0
H4702 H 0.95075 0.94061 0.21282 0.0
H4703 H 0.95171 0.96048 0.23439 0.0
C4704 C 0.4634 0.19909 0.22466 0.0
C4705 C 0.44988 0.2033 0.21533 0.0
C4706 C 0.47609 0.21015 0.22687 0.0
C4707 C 0.48569 0.25419 0.22236 0.0
H4708 H 0.53018 0.23965 0.22321 0.0
C4709 C 0.53918 0.29745 0.21162 0.0
C4710 C 0.55325 0.29557 0.22098 0.0
C4711 C 0.52659 0.28622 0.21255 0.0
C4712 C 0.5178 0.2439 0.2232 0.0
H4713 H 0.43936 0.222 0.20042 0.0
H4714 H 0.46149 0.24095 0.20371 0.0
H4715 H 0.50839 0.21982 0.22169 0.0
H4716 H 0.5648 0.28046 0.23896 0.0
H4717 H 0.54276 0.26081 0.24058 0.0
H4718 H 0.49511 0.27825 0.22341 0.0
C4719 C 0.46216 0.22949 0.20996 0.0
C4720 C 0.50528 0.23251 0.22235 0.0
C4721 C 0.44945 0.21859 0.20799 0.0
C4722 C 0.55424 0.28222 0.23147 0.0
C4723 C 0.54162 0.27094 0.23238 0.0
C4724 C 0.49818 0.26553 0.22306 0.0
C4725 C 0.47562 0.22555 0.21957 0.0
C4726 C 0.48903 0.2375 0.22166 0.0
C4727 C 0.52768 0.27276 0.22285 0.0
C4728 C 0.51441 0.26056 0.22327 0.0
H4729 H 0.46399 0.18738 0.23045 0.0
H4730 H 0.48616 0.2067 0.23446 0.0
H4731 H 0.47336 0.25856 0.22231 0.0
H4732 H 0.53804 0.30732 0.20314 0.0
H4733 H 0.51617 0.28787 0.20483 0.0
C4734 C 0.46298 0.297 0.0176 0.0
C4735 C 0.45043 0.29719 0.02913 0.0
C4736 C 0.47419 0.28436 0.01714 0.0
C4737 C 0.47998 0.24181 0.02765 0.0
H4738 H 0.52566 0.2519 0.02604 0.0
C4739 C 0.52872 0.19192 0.03322 0.0
C4740 C 0.54355 0.19409 0.02529 0.0
C4741 C 0.51719 0.20429 0.03343 0.0
C4742 C 0.51297 0.24878 0.02617 0.0
H4743 H 0.44011 0.28373 0.04922 0.0
H4744 H 0.45937 0.26158 0.04802 0.0
H4745 H 0.50594 0.27372 0.0268 0.0
H4746 H 0.55785 0.21059 0.01103 0.0
H4747 H 0.53744 0.23191 0.01049 0.0
H4748 H 0.48681 0.21693 0.02651 0.0
C4749 C 0.46045 0.27135 0.03938 0.0
C4750 C 0.50166 0.26135 0.02672 0.0
C4751 C 0.44935 0.28411 0.04001 0.0
C4752 C 0.54648 0.20868 0.01721 0.0
C4753 C 0.53482 0.22094 0.0171 0.0
C4754 C 0.49126 0.22923 0.02682 0.0
C4755 C 0.47306 0.2714 0.02802 0.0
C4756 C 0.48505 0.25801 0.0275 0.0
C4757 C 0.52008 0.21905 0.02545 0.0
C4758 C 0.50796 0.2325 0.0261 0.0
H4759 H 0.4642 0.30657 0.00881 0.0
H4760 H 0.48366 0.28461 0.0081 0.0
H4761 H 0.46723 0.23888 0.02808 0.0
H4762 H 0.52633 0.1809 0.03985 0.0
H4763 H 0.50622 0.20239 0.04029 0.0
C4764 C 0.54176 0.70518 0.26596 0.0
C4765 C 0.54724 0.69842 0.28054 0.0
C4766 C 0.53008 0.71743 0.266 0.0
C4767 C 0.51447 0.7511 0.28907 0.0
H4768 H 0.47429 0.74495 0.26592 0.0
C4769 C 0.46201 0.7974 0.29415 0.0
C4770 C 0.45093 0.79877 0.28138 0.0
C4771 C 0.47412 0.78557 0.29383 0.0
C4772 C 0.48554 0.74714 0.27218 0.0
H4773 H 0.54504 0.69944 0.30659 0.0
H4774 H 0.52491 0.72125 0.30668 0.0
H4775 H 0.49466 0.72374 0.26562 0.0
H4776 H 0.44424 0.78934 0.25799 0.0
H4777 H 0.46591 0.76942 0.2568 0.0
H4778 H 0.50589 0.7747 0.29509 0.0
C4779 C 0.5295 0.71684 0.29523 0.0
C4780 C 0.49717 0.73484 0.27211 0.0
C4781 C 0.5409 0.7043 0.29518 0.0
C4782 C 0.45257 0.78845 0.26803 0.0
C4783 C 0.46493 0.77689 0.26749 0.0
C4784 C 0.50302 0.76359 0.28883 0.0
C4785 C 0.52393 0.72348 0.28064 0.0
C4786 C 0.51169 0.73664 0.28064 0.0
C4787 C 0.47574 0.77498 0.28054 0.0
C4788 C 0.48828 0.76181 0.28046 0.0
H4789 H 0.54643 0.70085 0.25453 0.0
H4790 H 0.52602 0.72238 0.25459 0.0
H4791 H 0.52566 0.75285 0.29562 0.0
H4792 H 0.46085 0.80506 0.3047 0.0
H4793 H 0.48186 0.78445 0.30429 0.0
C4794 C 0.0498 0.28594 0.95705 0.0
C4795 C 0.04812 0.29899 0.96787 0.0
C4796 C 0.03864 0.27321 0.95705 0.0
C4797 C 0.99673 0.26329 0.96788 0.0
H4798 H 0.01145 0.21885 0.96685 0.0
C4799 C 0.95181 0.20985 0.97393 0.0
C4800 C 0.9554 0.19543 0.96578 0.0
C4801 C 0.96315 0.22242 0.97454 0.0
C4802 C 0.00704 0.23116 0.96685 0.0
H4803 H 0.03344 0.30844 0.98747 0.0
H4804 H 0.01391 0.28644 0.9872 0.0
H4805 H 0.03111 0.24071 0.96684 0.0
H4806 H 0.97324 0.18299 0.95133 0.0
H4807 H 0.99273 0.20504 0.95163 0.0
H4808 H 0.97268 0.25391 0.96737 0.0
C4809 C 0.02382 0.28618 0.97864 0.0
C4810 C 0.01838 0.24371 0.96693 0.0
C4811 C 0.03504 0.29882 0.97877 0.0
C4812 C 0.97037 0.19389 0.95799 0.0
C4813 C 0.98155 0.20655 0.95826 0.0
C4814 C 0.98536 0.25075 0.96753 0.0
C4815 C 0.02544 0.27325 0.96775 0.0
C4816 C 0.01337 0.25991 0.96751 0.0
C4817 C 0.9782 0.221 0.96664 0.0
C4818 C 0.99033 0.23446 0.96705 0.0
H4819 H 0.0595 0.28567 0.9483 0.0
H4820 H 0.04014 0.2635 0.94839 0.0
H4821 H 0.99248 0.27567 0.96812 0.0
H4822 H 0.94031 0.21126 0.98002 0.0
H4823 H 0.96014 0.23317 0.98137 0.0
C4824 C 0.21104 0.4429 0.22204 0.0
C4825 C 0.21621 0.44413 0.20588 0.0
C4826 C 0.21158 0.45624 0.23237 0.0
C4827 C 0.23018 0.49596 0.23934 0.0
H4828 H 0.19177 0.5034 0.26514 0.0
C4829 C 0.22267 0.55226 0.28097 0.0
C4830 C 0.21469 0.55003 0.29585 0.0
C4831 C 0.22326 0.53984 0.26945 0.0
C4832 C 0.20269 0.50142 0.25821 0.0
H4833 H 0.22659 0.46041 0.18818 0.0
H4834 H 0.2276 0.48381 0.20636 0.0
H4835 H 0.19247 0.48096 0.24616 0.0
H4836 H 0.20111 0.53264 0.31008 0.0
H4837 H 0.20265 0.51102 0.29042 0.0
H4838 H 0.24053 0.51627 0.25164 0.0
C4839 C 0.22309 0.47241 0.21094 0.0
C4840 C 0.20306 0.48856 0.24727 0.0
C4841 C 0.22243 0.45903 0.2005 0.0
C4842 C 0.20753 0.53491 0.29893 0.0
C4843 C 0.2082 0.5225 0.28747 0.0
C4844 C 0.22987 0.5088 0.25042 0.0
C4845 C 0.21736 0.47122 0.2269 0.0
C4846 C 0.21687 0.48553 0.23784 0.0
C4847 C 0.21593 0.5248 0.2725 0.0
C4848 C 0.21618 0.51159 0.26016 0.0
H4849 H 0.20596 0.43178 0.22666 0.0
H4850 H 0.20728 0.45484 0.24465 0.0
H4851 H 0.24102 0.4939 0.2323 0.0
H4852 H 0.22848 0.56362 0.27815 0.0
H4853 H 0.22922 0.54215 0.25804 0.0
C4854 C 0.71283 0.54183 0.04653 0.0
C4855 C 0.69814 0.53368 0.04389 0.0
C4856 C 0.72553 0.54059 0.03542 0.0
C4857 C 0.73446 0.53172 0.99279 0.0
H4858 H 0.7781 0.52489 0.00824 0.0
C4859 C 0.78804 0.52275 0.94842 0.0
C4860 C 0.80319 0.52879 0.95301 0.0
C4861 C 0.77516 0.52257 0.95944 0.0
C4862 C 0.76605 0.52706 0.00366 0.0
H4863 H 0.68553 0.51764 0.02743 0.0
H4864 H 0.70763 0.51567 0.00799 0.0
H4865 H 0.75591 0.52631 0.02747 0.0
H4866 H 0.81668 0.53986 0.97243 0.0
H4867 H 0.79421 0.54028 0.99142 0.0
H4868 H 0.74456 0.53298 0.96903 0.0
C4869 C 0.70922 0.5231 0.01865 0.0
C4870 C 0.7533 0.52779 0.01473 0.0
C4871 C 0.69654 0.52425 0.02981 0.0
C4872 C 0.80519 0.53483 0.96872 0.0
C4873 C 0.79227 0.53499 0.97962 0.0
C4874 C 0.74725 0.53121 0.9817 0.0
C4875 C 0.72386 0.53127 0.02132 0.0
C4876 C 0.73736 0.53016 0.00945 0.0
C4877 C 0.77705 0.52877 0.9752 0.0
C4878 C 0.76328 0.52893 0.98696 0.0
H4879 H 0.71447 0.54948 0.057 0.0
H4880 H 0.73656 0.54723 0.03773 0.0
H4881 H 0.72233 0.53373 0.98834 0.0
H4882 H 0.78625 0.51798 0.93637 0.0
H4883 H 0.76378 0.51742 0.95559 0.0
C4884 C 0.78726 0.03771 0.19955 0.0
C4885 C 0.77702 0.05125 0.20092 0.0
C4886 C 0.78677 0.02529 0.21099 0.0
C4887 C 0.77565 0.01616 0.25302 0.0
H4888 H 0.7764 0.97172 0.23823 0.0
C4889 C 0.7719 0.96186 0.29761 0.0
C4890 C 0.781 0.94807 0.29371 0.0
C4891 C 0.77037 0.97457 0.28648 0.0
C4892 C 0.77641 0.98404 0.24264 0.0
H4893 H 0.75818 0.06211 0.21557 0.0
H4894 H 0.75752 0.04048 0.23566 0.0
H4895 H 0.77591 0.99356 0.21859 0.0
H4896 H 0.79617 0.93708 0.27543 0.0
H4897 H 0.79398 0.95923 0.25635 0.0
H4898 H 0.77661 0.00668 0.27708 0.0
C4899 C 0.76595 0.03959 0.22569 0.0
C4900 C 0.77606 0.99658 0.23133 0.0
C4901 C 0.76634 0.05199 0.21415 0.0
C4902 C 0.78874 0.94737 0.27862 0.0
C4903 C 0.78743 0.9601 0.26764 0.0
C4904 C 0.77618 0.0036 0.26437 0.0
C4905 C 0.77614 0.02607 0.22421 0.0
C4906 C 0.77581 0.01279 0.23636 0.0
C4907 C 0.77812 0.97386 0.27131 0.0
C4908 C 0.77673 0.98734 0.25934 0.0
H4909 H 0.79595 0.03678 0.18984 0.0
H4910 H 0.79498 0.01518 0.20965 0.0
H4911 H 0.7756 0.02854 0.25728 0.0
H4912 H 0.76579 0.96268 0.30915 0.0
H4913 H 0.76295 0.98485 0.28972 0.0
C4914 C 0.70941 0.4798 0.4628 0.0
C4915 C 0.70772 0.46683 0.45188 0.0
C4916 C 0.72241 0.48046 0.47354 0.0
C4917 C 0.76378 0.46712 0.48024 0.0
H4918 H 0.75394 0.47259 0.52572 0.0
C4919 C 0.81276 0.46022 0.52957 0.0
C4920 C 0.81115 0.46903 0.54397 0.0
C4921 C 0.80058 0.46061 0.51788 0.0
C4922 C 0.75702 0.4714 0.51306 0.0
H4923 H 0.71906 0.44456 0.44365 0.0
H4924 H 0.74191 0.44608 0.46206 0.0
H4925 H 0.73211 0.47216 0.50606 0.0
H4926 H 0.796 0.4856 0.55729 0.0
H4927 H 0.77509 0.48716 0.53653 0.0
H4928 H 0.78868 0.46686 0.48703 0.0
C4929 C 0.73297 0.45564 0.46229 0.0
C4930 C 0.74444 0.47103 0.50181 0.0
C4931 C 0.71981 0.45482 0.45169 0.0
C4932 C 0.79742 0.47868 0.54627 0.0
C4933 C 0.7854 0.47939 0.53442 0.0
C4934 C 0.77641 0.4678 0.49146 0.0
C4935 C 0.73425 0.46834 0.47347 0.0
C4936 C 0.74769 0.46882 0.48531 0.0
C4937 C 0.78663 0.4701 0.52018 0.0
C4938 C 0.77322 0.46987 0.50807 0.0
H4939 H 0.7007 0.48952 0.46319 0.0
H4940 H 0.72325 0.49052 0.48188 0.0
H4941 H 0.76661 0.46554 0.46755 0.0
H4942 H 0.82312 0.45246 0.52769 0.0
H4943 H 0.80192 0.45303 0.50731 0.0
C4944 C 0.27956 0.5343 0.69836 0.0
C4945 C 0.27903 0.55057 0.70334 0.0
C4946 C 0.27935 0.52175 0.70969 0.0
C4947 C 0.26844 0.51177 0.75186 0.0
H4948 H 0.29847 0.47632 0.74585 0.0
C4949 C 0.27833 0.46151 0.80014 0.0
C4950 C 0.28116 0.44564 0.79458 0.0
C4951 C 0.27747 0.47451 0.7893 0.0
C4952 C 0.28983 0.48599 0.74763 0.0
H4953 H 0.27774 0.56616 0.72444 0.0
H4954 H 0.27712 0.54429 0.74408 0.0
H4955 H 0.29795 0.49839 0.72643 0.0
H4956 H 0.28478 0.43135 0.77279 0.0
H4957 H 0.28281 0.45369 0.75419 0.0
H4958 H 0.26022 0.49928 0.77301 0.0
C4959 C 0.27762 0.54129 0.73135 0.0
C4960 C 0.28957 0.49868 0.73648 0.0
C4961 C 0.27794 0.55386 0.72002 0.0
C4962 C 0.28256 0.4432 0.77778 0.0
C4963 C 0.28165 0.45616 0.76699 0.0
C4964 C 0.26864 0.499 0.763 0.0
C4965 C 0.2785 0.52508 0.72634 0.0
C4966 C 0.27881 0.51169 0.73839 0.0
C4967 C 0.27936 0.47204 0.77259 0.0
C4968 C 0.27927 0.48588 0.76098 0.0
H4969 H 0.28011 0.53119 0.68568 0.0
H4970 H 0.27977 0.50939 0.7054 0.0
H4971 H 0.25992 0.52155 0.75363 0.0
H4972 H 0.27697 0.46404 0.81288 0.0
H4973 H 0.27576 0.48657 0.7941 0.0
C4974 C 0.21208 0.04782 0.54276 0.0
C4975 C 0.20414 0.03393 0.54852 0.0
C4976 C 0.22416 0.04663 0.53098 0.0
C4977 C 0.24011 0.01902 0.49922 0.0
H4978 H 0.27739 0.04733 0.50098 0.0
C4979 C 0.29599 0.01216 0.45705 0.0
C4980 C 0.30086 0.02642 0.44928 0.0
C4981 C 0.28443 0.01268 0.46944 0.0
C4982 C 0.26701 0.03939 0.50031 0.0
H4983 H 0.20301 0.00783 0.54643 0.0
H4984 H 0.22406 0.00574 0.526 0.0
H4985 H 0.25685 0.04894 0.5221 0.0
H4986 H 0.29802 0.05241 0.44866 0.0
H4987 H 0.27814 0.05341 0.47053 0.0
H4988 H 0.25049 0.00936 0.4775 0.0
C4989 C 0.22076 0.01762 0.53039 0.0
C4990 C 0.25518 0.04035 0.51237 0.0
C4991 C 0.20865 0.01881 0.54216 0.0
C4992 C 0.29427 0.04123 0.45433 0.0
C4993 C 0.28302 0.0418 0.46692 0.0
C4994 C 0.25204 0.01795 0.48726 0.0
C4995 C 0.22868 0.03151 0.52461 0.0
C4996 C 0.2415 0.03025 0.51194 0.0
C4997 C 0.27787 0.02753 0.47454 0.0
C4998 C 0.26555 0.0282 0.48761 0.0
H4999 H 0.2088 0.0597 0.54712 0.0
H5000 H 0.22976 0.05764 0.52665 0.0
H5001 H 0.22964 0.01124 0.4983 0.0
H5002 H 0.30095 0.00062 0.45335 0.0
H5003 H 0.28075 0.0015 0.47516 0.0
C5004 C 0.03737 0.797 0.73102 0.0
C5005 C 0.04989 0.79501 0.71976 0.0
C5006 C 0.02467 0.78575 0.73178 0.0
C5007 C 0.01428 0.7437 0.71869 0.0
H5008 H 0.97039 0.75668 0.72855 0.0
C5009 C 0.96002 0.70073 0.70949 0.0
C5010 C 0.94774 0.70072 0.72126 0.0
C5011 C 0.97237 0.71228 0.70989 0.0
C5012 C 0.98262 0.75283 0.72594 0.0
H5013 H 0.05858 0.78042 0.69991 0.0
H5014 H 0.03633 0.76124 0.7007 0.0
H5015 H 0.99183 0.77695 0.72809 0.0
H5016 H 0.93909 0.7128 0.74285 0.0
H5017 H 0.96067 0.73292 0.74356 0.0
H5018 H 0.00505 0.71966 0.7163 0.0
C5019 C 0.0365 0.77093 0.70949 0.0
C5020 C 0.99495 0.76446 0.7257 0.0
C5021 C 0.04924 0.78197 0.70894 0.0
C5022 C 0.94823 0.71254 0.7335 0.0
C5023 C 0.96059 0.72411 0.73389 0.0
C5024 C 0.00197 0.73213 0.71882 0.0
C5025 C 0.02414 0.77246 0.72108 0.0
C5026 C 0.01095 0.76009 0.72194 0.0
C5027 C 0.97281 0.72416 0.72206 0.0
C5028 C 0.98595 0.73653 0.72234 0.0
H5029 H 0.03765 0.80702 0.73944 0.0
H5030 H 0.01547 0.7873 0.74094 0.0
H5031 H 0.02647 0.73972 0.71615 0.0
H5032 H 0.95989 0.69207 0.6997 0.0
H5033 H 0.98141 0.71209 0.70043 0.0
C5034 C 0.04798 0.71277 0.54083 0.0
C5035 C 0.04625 0.69894 0.53106 0.0
C5036 C 0.03661 0.72529 0.54025 0.0
C5037 C 0.99427 0.73389 0.52966 0.0
H5038 H 0.0084 0.77851 0.52839 0.0
C5039 C 0.94851 0.78645 0.5222 0.0
C5040 C 0.95201 0.80123 0.52969 0.0
C5041 C 0.96002 0.77402 0.52186 0.0
C5042 C 0.00415 0.76616 0.52902 0.0
H5043 H 0.03122 0.68777 0.51272 0.0
H5044 H 0.01133 0.70951 0.51187 0.0
H5045 H 0.02834 0.75693 0.52902 0.0
H5046 H 0.96994 0.81453 0.54322 0.0
H5047 H 0.98975 0.79274 0.54342 0.0
H5048 H 0.9701 0.74299 0.53017 0.0
C5049 C 0.02145 0.71055 0.5201 0.0
C5050 C 0.01566 0.75376 0.52929 0.0
C5051 C 0.03288 0.69808 0.5206 0.0
C5052 C 0.96711 0.80332 0.53708 0.0
C5053 C 0.97848 0.79081 0.5371 0.0
C5054 C 0.98274 0.74629 0.52963 0.0
C5055 C 0.02314 0.72429 0.52995 0.0
C5056 C 0.01087 0.73747 0.52959 0.0
C5057 C 0.97519 0.77597 0.52938 0.0
C5058 C 0.98749 0.76265 0.52929 0.0
H5059 H 0.0579 0.71381 0.54926 0.0
H5060 H 0.03817 0.73561 0.54815 0.0
H5061 H 0.99017 0.72147 0.5301 0.0
H5062 H 0.93693 0.78463 0.5164 0.0
H5063 H 0.95705 0.76297 0.51553 0.0
C5064 C 0.03946 0.20172 0.76808 0.0
C5065 C 0.05443 0.20625 0.77464 0.0
C5066 C 0.02693 0.21299 0.76656 0.0
C5067 C 0.01795 0.25737 0.7678 0.0
H5068 H 0.9744 0.2425 0.77641 0.0
C5069 C 0.96405 0.30077 0.77986 0.0
C5070 C 0.94875 0.29642 0.77381 0.0
C5071 C 0.97724 0.29025 0.77844 0.0
C5072 C 0.98645 0.24684 0.77375 0.0
H5073 H 0.06796 0.22622 0.78478 0.0
H5074 H 0.04609 0.2458 0.78249 0.0
H5075 H 0.99665 0.22333 0.77697 0.0
H5076 H 0.93577 0.27791 0.76057 0.0
H5077 H 0.95874 0.25963 0.75807 0.0
H5078 H 0.00767 0.281 0.76499 0.0
C5079 C 0.04408 0.23365 0.77807 0.0
C5080 C -0.00073 0.23581 0.77404 0.0
C5081 C 0.05667 0.22241 0.77941 0.0
C5082 C 0.94724 0.28156 0.76566 0.0
C5083 C 0.96043 0.27105 0.76425 0.0
C5084 C 0.00512 0.26844 0.76762 0.0
C5085 C 0.02895 0.22909 0.77177 0.0
C5086 C 0.01523 0.24089 0.77108 0.0
C5087 C 0.97552 0.2751 0.77091 0.0
C5088 C 0.9892 0.26332 0.7706 0.0
H5089 H 0.03743 0.18939 0.76419 0.0
H5090 H 0.01562 0.20904 0.76132 0.0
H5091 H 0.03 0.26176 0.76521 0.0
H5092 H 0.96576 0.312 0.78632 0.0
H5093 H 0.98863 0.29374 0.78382 0.0
C5094 C 0.46484 0.69861 0.47709 0.0
C5095 C 0.45038 0.69994 0.46828 0.0
C5096 C 0.47542 0.71175 0.4784 0.0
C5097 C 0.4787 0.75631 0.47278 0.0
H5098 H 0.52426 0.74692 0.46724 0.0
C5099 C 0.52567 0.80641 0.45974 0.0
C5100 C 0.54122 0.80506 0.46649 0.0
C5101 C 0.51447 0.79384 0.46117 0.0
C5102 C 0.51163 0.74978 0.46906 0.0
H5103 H 0.43561 0.71639 0.45424 0.0
H5104 H 0.45402 0.73926 0.45651 0.0
H5105 H 0.50483 0.72486 0.46784 0.0
H5106 H 0.55698 0.78942 0.4803 0.0
H5107 H 0.53736 0.7675 0.48299 0.0
H5108 H 0.48551 0.78125 0.47388 0.0
C5109 C 0.45711 0.7281 0.46259 0.0
C5110 C 0.50044 0.73709 0.4694 0.0
C5111 C 0.4465 0.71496 0.46131 0.0
C5112 C 0.54519 0.79081 0.47484 0.0
C5113 C 0.53393 0.77822 0.47633 0.0
C5114 C 0.4899 0.76901 0.47247 0.0
C5115 C 0.47187 0.72659 0.4709 0.0
C5116 C 0.48381 0.74016 0.47117 0.0
C5117 C 0.51842 0.77953 0.46944 0.0
C5118 C 0.50653 0.76594 0.47049 0.0
H5119 H 0.4681 0.68731 0.4828 0.0
H5120 H 0.48649 0.71021 0.48519 0.0
H5121 H 0.46604 0.75914 0.47439 0.0
H5122 H 0.52226 0.81702 0.45293 0.0
H5123 H 0.50281 0.7952 0.45541 0.0
C5124 C 0.72058 0.96346 0.70039 0.0
C5125 C 0.72002 0.94725 0.70563 0.0
C5126 C 0.721 0.97624 0.71153 0.0
C5127 C 0.71213 0.98587 0.75468 0.0
H5128 H 0.73765 0.02418 0.74604 0.0
C5129 C 0.72162 0.03598 0.80286 0.0
C5130 C 0.72068 0.05213 0.79759 0.0
C5131 C 0.72199 0.02319 0.79172 0.0
C5132 C 0.73033 0.01363 0.74859 0.0
H5133 H 0.7197 0.93218 0.72716 0.0
H5134 H 0.72094 0.95425 0.74629 0.0
H5135 H 0.7374 0.00211 0.72651 0.0
H5136 H 0.71938 0.06726 0.7762 0.0
H5137 H 0.72019 0.04512 0.75695 0.0
H5138 H 0.70512 0.9974 0.7768 0.0
C5139 C 0.72071 0.9571 0.73352 0.0
C5140 C 0.73016 0.00096 0.73735 0.0
C5141 C 0.72023 0.94433 0.72242 0.0
C5142 C 0.72042 0.05509 0.78083 0.0
C5143 C 0.72084 0.04233 0.76971 0.0
C5144 C 0.71235 0.99853 0.76594 0.0
C5145 C 0.72096 0.97326 0.72827 0.0
C5146 C 0.72108 0.98687 0.74022 0.0
C5147 C 0.72151 0.02619 0.77499 0.0
C5148 C 0.72145 0.01259 0.76307 0.0
H5149 H 0.72057 0.96641 0.68767 0.0
H5150 H 0.72103 0.98851 0.70697 0.0
H5151 H 0.70473 0.9754 0.75722 0.0
H5152 H 0.72204 0.03316 0.81562 0.0
H5153 H 0.72276 0.01094 0.79624 0.0
C5154 C 0.28744 0.95701 0.04659 0.0
C5155 C 0.29756 0.97034 0.0494 0.0
C5156 C 0.27551 0.9576 0.0346 0.0
C5157 C 0.26292 0.98154 0.99812 0.0
H5158 H 0.22357 0.95655 0.00265 0.0
C5159 C 0.20647 0.98795 0.95634 0.0
C5160 C 0.20112 0.97342 0.94938 0.0
C5161 C 0.21829 0.98783 0.96847 0.0
C5162 C 0.23454 0.96355 0.00122 0.0
H5163 H 0.30283 0.99488 0.04217 0.0
H5164 H 0.28161 0.9963 0.02181 0.0
H5165 H 0.24356 0.95625 0.02428 0.0
H5166 H 0.20361 0.94738 0.94987 0.0
H5167 H 0.22393 0.94713 0.97143 0.0
H5168 H 0.25342 0.98924 0.97524 0.0
C5169 C 0.28317 0.9851 0.02838 0.0
C5170 C 0.2461 0.96331 0.01357 0.0
C5171 C 0.29529 0.98438 0.04017 0.0
C5172 C 0.20768 0.95876 0.9549 0.0
C5173 C 0.21919 0.95861 0.96729 0.0
C5174 C 0.25119 0.98202 0.98593 0.0
C5175 C 0.27317 0.97166 0.02525 0.0
C5176 C 0.26057 0.97221 0.0122 0.0
C5177 C 0.22466 0.97315 0.97417 0.0
C5178 C 0.23694 0.97294 0.9873 0.0
H5179 H 0.28909 0.94592 0.05333 0.0
H5180 H 0.26841 0.94684 0.03244 0.0
H5181 H 0.27397 0.98829 0.99631 0.0
H5182 H 0.20157 -0.00062 0.95229 0.0
H5183 H 0.22225 0.9992 0.97361 0.0
loop_
_geom_bond_atom_site_label_1
_geom_bond_atom_site_label_2
_geom_bond_distance
_geom_bond_site_symmetry_2
_ccdc_geom_bond_type
C0 C1 1.351 . S
C0 N3 1.368 . S
C0 H5 0.931 . S
C1 C0 1.351 . S
C1 N2 1.373 . S
C1 H29 0.930 . S
N2 C1 1.373 . S
N2 C4 1.340 . S
N3 C0 1.368 . S
N3 C4 1.321 . S
N3 Co6 2.135 . S
C4 N2 1.340 . S
C4 N3 1.321 . S
C4 H28 0.930 . S
H5 C0 0.931 . S
Co6 N3 2.135 . S
Co6 N9 2.121 . S
Co6 O14 2.055 . S
Co6 O17 2.039 . S
Co6 N20 2.140 . S
C7 O8 1.227 . S
C7 O17 1.265 . S
O8 C7 1.227 . S
N9 Co6 2.121 . S
N9 C11 1.375 . S
N9 C12 1.313 . S
C10 C11 1.338 . S
C10 N13 1.377 . S
C10 H30 0.930 . S
C11 N9 1.375 . S
C11 C10 1.338 . S
C11 H15 0.931 . S
C12 N9 1.313 . S
C12 N13 1.344 . S
C12 H16 0.930 . S
N13 C10 1.377 . S
N13 C12 1.344 . S
O14 Co6 2.055 . S
O14 C18 1.253 . S
H15 C11 0.931 . S
H16 C12 0.930 . S
O17 Co6 2.039 . S
O17 C7 1.265 . S
C18 O14 1.253 . S
C18 O19 1.227 . S
O19 C18 1.227 . S
N20 Co6 2.140 . S
N20 C23 1.346 . S
N20 C24 1.345 . S
C21 C22 1.387 . S
C21 C25 1.391 . S
C22 C21 1.387 . S
C22 C23 1.369 . S
C22 H31 0.929 . S
C23 N20 1.346 . S
C23 C22 1.369 . S
C23 H26 0.928 . S
C24 N20 1.345 . S
C24 C25 1.371 . S
C24 H27 0.931 . S
C25 C21 1.391 . S
C25 C24 1.371 . S
C25 H32 0.930 . S
H26 C23 0.928 . S
H27 C24 0.931 . S
H28 C4 0.930 . S
H29 C1 0.930 . S
H30 C10 0.930 . S
H31 C22 0.929 . S
H32 C25 0.930 . S
C33 C34 1.351 . S
C33 N36 1.368 . S
C33 H38 0.931 . S
C34 C33 1.351 . S
C34 N35 1.373 . S
C34 H62 0.930 . S
N35 C34 1.373 . S
N35 C37 1.340 . S
N36 C33 1.368 . S
N36 C37 1.321 . S
N36 Co39 2.135 . S
C37 N35 1.340 . S
C37 N36 1.321 . S
C37 H61 0.930 . S
H38 C33 0.931 . S
Co39 N36 2.135 . S
Co39 N42 2.121 . S
Co39 O47 2.055 . S
Co39 O50 2.039 . S
Co39 N53 2.140 . S
C40 O41 1.227 . S
C40 O50 1.265 . S
O41 C40 1.227 . S
N42 Co39 2.121 . S
N42 C44 1.375 . S
N42 C45 1.313 . S
C43 C44 1.338 . S
C43 N46 1.377 . S
C43 H63 0.930 . S
C44 N42 1.375 . S
C44 C43 1.338 . S
C44 H48 0.931 . S
C45 N42 1.313 . S
C45 N46 1.344 . S
C45 H49 0.930 . S
N46 C43 1.377 . S
N46 C45 1.344 . S
O47 Co39 2.055 . S
O47 C51 1.253 . S
H48 C44 0.931 . S
H49 C45 0.930 . S
O50 Co39 2.039 . S
O50 C40 1.265 . S
C51 O47 1.253 . S
C51 O52 1.227 . S
O52 C51 1.227 . S
N53 Co39 2.140 . S
N53 C56 1.346 . S
N53 C57 1.345 . S
C54 C55 1.387 . S
C54 C58 1.391 . S
C55 C54 1.387 . S
C55 C56 1.369 . S
C55 H64 0.929 . S
C56 N53 1.346 . S
C56 C55 1.369 . S
C56 H59 0.928 . S
C57 N53 1.345 . S
C57 C58 1.371 . S
C57 H60 0.931 . S
C58 C54 1.391 . S
C58 C57 1.371 . S
C58 H65 0.930 . S
H59 C56 0.928 . S
H60 C57 0.931 . S
H61 C37 0.930 . S
H62 C34 0.930 . S
H63 C43 0.930 . S
H64 C55 0.929 . S
H65 C58 0.930 . S
C66 C67 1.351 . S
C66 N69 1.368 . S
C66 H71 0.931 . S
C67 C66 1.351 . S
C67 N68 1.373 . S
C67 H95 0.930 . S
N68 C67 1.373 . S
N68 C70 1.340 . S
N69 C66 1.368 . S
N69 C70 1.321 . S
N69 Co72 2.135 . S
C70 N68 1.340 . S
C70 N69 1.321 . S
C70 H94 0.930 . S
H71 C66 0.931 . S
Co72 N69 2.135 . S
Co72 N75 2.121 . S
Co72 O80 2.055 . S
Co72 O83 2.039 . S
Co72 N86 2.140 . S
C73 O74 1.227 . S
C73 O83 1.265 . S
O74 C73 1.227 . S
N75 Co72 2.121 . S
N75 C77 1.375 . S
N75 C78 1.313 . S
C76 C77 1.338 . S
C76 N79 1.377 . S
C76 H96 0.930 . S
C77 N75 1.375 . S
C77 C76 1.338 . S
C77 H81 0.931 . S
C78 N75 1.313 . S
C78 N79 1.344 . S
C78 H82 0.930 . S
N79 C76 1.377 . S
N79 C78 1.344 . S
O80 Co72 2.055 . S
O80 C84 1.253 . S
H81 C77 0.931 . S
H82 C78 0.930 . S
O83 Co72 2.039 . S
O83 C73 1.265 . S
C84 O80 1.253 . S
C84 O85 1.227 . S
O85 C84 1.227 . S
N86 Co72 2.140 . S
N86 C89 1.346 . S
N86 C90 1.345 . S
C87 C88 1.387 . S
C87 C91 1.391 . S
C88 C87 1.387 . S
C88 C89 1.369 . S
C88 H97 0.929 . S
C89 N86 1.346 . S
C89 C88 1.369 . S
C89 H92 0.928 . S
C90 N86 1.345 . S
C90 C91 1.371 . S
C90 H93 0.931 . S
C91 C87 1.391 . S
C91 C90 1.371 . S
C91 H98 0.930 . S
H92 C89 0.928 . S
H93 C90 0.931 . S
H94 C70 0.930 . S
H95 C67 0.930 . S
H96 C76 0.930 . S
H97 C88 0.929 . S
H98 C91 0.930 . S
C99 C100 1.351 . S
C99 N102 1.368 . S
C99 H104 0.931 . S
C100 C99 1.351 . S
C100 N101 1.373 . S
C100 H128 0.930 . S
N101 C100 1.373 . S
N101 C103 1.340 . S
N102 C99 1.368 . S
N102 C103 1.321 . S
N102 Co105 2.135 . S
C103 N101 1.340 . S
C103 N102 1.321 . S
C103 H127 0.930 . S
H104 C99 0.931 . S
Co105 N102 2.135 . S
Co105 N108 2.121 . S
Co105 O113 2.055 . S
Co105 O116 2.039 . S
Co105 N119 2.140 . S
C106 O107 1.227 . S
C106 O116 1.265 . S
O107 C106 1.227 . S
N108 Co105 2.121 . S
N108 C110 1.375 . S
N108 C111 1.313 . S
C109 C110 1.338 . S
C109 N112 1.377 . S
C109 H129 0.930 . S
C110 N108 1.375 . S
C110 C109 1.338 . S
C110 H114 0.931 . S
C111 N108 1.313 . S
C111 N112 1.344 . S
C111 H115 0.930 . S
N112 C109 1.377 . S
N112 C111 1.344 . S
O113 Co105 2.055 . S
O113 C117 1.253 . S
H114 C110 0.931 . S
H115 C111 0.930 . S
O116 Co105 2.039 . S
O116 C106 1.265 . S
C117 O113 1.253 . S
C117 O118 1.227 . S
O118 C117 1.227 . S
N119 Co105 2.140 . S
N119 C122 1.346 . S
N119 C123 1.345 . S
C120 C121 1.387 . S
C120 C124 1.391 . S
C121 C120 1.387 . S
C121 C122 1.369 . S
C121 H130 0.929 . S
C122 N119 1.346 . S
C122 C121 1.369 . S
C122 H125 0.928 . S
C123 N119 1.345 . S
C123 C124 1.371 . S
C123 H126 0.931 . S
C124 C120 1.391 . S
C124 C123 1.371 . S
C124 H131 0.930 . S
H125 C122 0.928 . S
H126 C123 0.931 . S
H127 C103 0.930 . S
H128 C100 0.930 . S
H129 C109 0.930 . S
H130 C121 0.929 . S
H131 C124 0.930 . S
C132 C133 1.351 . S
C132 N135 1.368 . S
C132 H137 0.931 . S
C133 C132 1.351 . S
C133 N134 1.373 . S
C133 H161 0.930 . S
N134 C133 1.373 . S
N134 C136 1.340 . S
N135 C132 1.368 . S
N135 C136 1.321 . S
N135 Co138 2.135 . S
C136 N134 1.340 . S
C136 N135 1.321 . S
C136 H160 0.930 . S
H137 C132 0.931 . S
Co138 N135 2.135 . S
Co138 N141 2.121 . S
Co138 O146 2.055 . S
Co138 O149 2.039 . S
Co138 N152 2.140 . S
C139 O140 1.227 . S
C139 O149 1.265 . S
O140 C139 1.227 . S
N141 Co138 2.121 . S
N141 C143 1.375 . S
N141 C144 1.313 . S
C142 C143 1.338 . S
C142 N145 1.377 . S
C142 H162 0.930 . S
C143 N141 1.375 . S
C143 C142 1.338 . S
C143 H147 0.931 . S
C144 N141 1.313 . S
C144 N145 1.344 . S
C144 H148 0.930 . S
N145 C142 1.377 . S
N145 C144 1.344 . S
O146 Co138 2.055 . S
O146 C150 1.253 . S
H147 C143 0.931 . S
H148 C144 0.930 . S
O149 Co138 2.039 . S
O149 C139 1.265 . S
C150 O146 1.253 . S
C150 O151 1.227 . S
O151 C150 1.227 . S
N152 Co138 2.140 . S
N152 C155 1.346 . S
N152 C156 1.345 . S
C153 C154 1.387 . S
C153 C157 1.391 . S
C154 C153 1.387 . S
C154 C155 1.369 . S
C154 H163 0.929 . S
C155 N152 1.346 . S
C155 C154 1.369 . S
C155 H158 0.928 . S
C156 N152 1.345 . S
C156 C157 1.371 . S
C156 H159 0.931 . S
C157 C153 1.391 . S
C157 C156 1.371 . S
C157 H164 0.930 . S
H158 C155 0.928 . S
H159 C156 0.931 . S
H160 C136 0.930 . S
H161 C133 0.930 . S
H162 C142 0.930 . S
H163 C154 0.929 . S
H164 C157 0.930 . S
C165 C166 1.351 . S
C165 N168 1.368 . S
C165 H170 0.931 . S
C166 C165 1.351 . S
C166 N167 1.373 . S
C166 H194 0.930 . S
N167 C166 1.373 . S
N167 C169 1.340 . S
N168 C165 1.368 . S
N168 C169 1.321 . S
N168 Co171 2.135 . S
C169 N167 1.340 . S
C169 N168 1.321 . S
C169 H193 0.930 . S
H170 C165 0.931 . S
Co171 N168 2.135 . S
Co171 N174 2.121 . S
Co171 O179 2.055 . S
Co171 O182 2.039 . S
Co171 N185 2.140 . S
C172 O173 1.227 . S
C172 O182 1.265 . S
O173 C172 1.227 . S
N174 Co171 2.121 . S
N174 C176 1.375 . S
N174 C177 1.313 . S
C175 C176 1.338 . S
C175 N178 1.377 . S
C175 H195 0.930 . S
C176 N174 1.375 . S
C176 C175 1.338 . S
C176 H180 0.931 . S
C177 N174 1.313 . S
C177 N178 1.344 . S
C177 H181 0.930 . S
N178 C175 1.377 . S
N178 C177 1.344 . S
O179 Co171 2.055 . S
O179 C183 1.253 . S
H180 C176 0.931 . S
H181 C177 0.930 . S
O182 Co171 2.039 . S
O182 C172 1.265 . S
C183 O179 1.253 . S
C183 O184 1.227 . S
O184 C183 1.227 . S
N185 Co171 2.140 . S
N185 C188 1.346 . S
N185 C189 1.345 . S
C186 C187 1.387 . S
C186 C190 1.391 . S
C187 C186 1.387 . S
C187 C188 1.369 . S
C187 H196 0.929 . S
C188 N185 1.346 . S
C188 C187 1.369 . S
C188 H191 0.928 . S
C189 N185 1.345 . S
C189 C190 1.371 . S
C189 H192 0.931 . S
C190 C186 1.391 . S
C190 C189 1.371 . S
C190 H197 0.930 . S
H191 C188 0.928 . S
H192 C189 0.931 . S
H193 C169 0.930 . S
H194 C166 0.930 . S
H195 C175 0.930 . S
H196 C187 0.929 . S
H197 C190 0.930 . S
C198 C199 1.351 . S
C198 N201 1.368 . S
C198 H203 0.931 . S
C199 C198 1.351 . S
C199 N200 1.373 . S
C199 H227 0.930 . S
N200 C199 1.373 . S
N200 C202 1.340 . S
N201 C198 1.368 . S
N201 C202 1.321 . S
N201 Co204 2.135 . S
C202 N200 1.340 . S
C202 N201 1.321 . S
C202 H226 0.930 . S
H203 C198 0.931 . S
Co204 N201 2.135 . S
Co204 N207 2.121 . S
Co204 O212 2.055 . S
Co204 O215 2.039 . S
Co204 N218 2.140 . S
C205 O206 1.227 . S
C205 O215 1.265 . S
O206 C205 1.227 . S
N207 Co204 2.121 . S
N207 C209 1.375 . S
N207 C210 1.313 . S
C208 C209 1.338 . S
C208 N211 1.377 . S
C208 H228 0.930 . S
C209 N207 1.375 . S
C209 C208 1.338 . S
C209 H213 0.931 . S
C210 N207 1.313 . S
C210 N211 1.344 . S
C210 H214 0.930 . S
N211 C208 1.377 . S
N211 C210 1.344 . S
O212 Co204 2.055 . S
O212 C216 1.253 . S
H213 C209 0.931 . S
H214 C210 0.930 . S
O215 Co204 2.039 . S
O215 C205 1.265 . S
C216 O212 1.253 . S
C216 O217 1.227 . S
O217 C216 1.227 . S
N218 Co204 2.140 . S
N218 C221 1.346 . S
N218 C222 1.345 . S
C219 C220 1.387 . S
C219 C223 1.391 . S
C220 C219 1.387 . S
C220 C221 1.369 . S
C220 H229 0.929 . S
C221 N218 1.346 . S
C221 C220 1.369 . S
C221 H224 0.928 . S
C222 N218 1.345 . S
C222 C223 1.371 . S
C222 H225 0.931 . S
C223 C219 1.391 . S
C223 C222 1.371 . S
C223 H230 0.930 . S
H224 C221 0.928 . S
H225 C222 0.931 . S
H226 C202 0.930 . S
H227 C199 0.930 . S
H228 C208 0.930 . S
H229 C220 0.929 . S
H230 C223 0.930 . S
C231 C232 1.351 . S
C231 N234 1.368 . S
C231 H236 0.931 . S
C232 C231 1.351 . S
C232 N233 1.373 . S
C232 H260 0.930 . S
N233 C232 1.373 . S
N233 C235 1.340 . S
N234 C231 1.368 . S
N234 C235 1.321 . S
N234 Co237 2.135 . S
C235 N233 1.340 . S
C235 N234 1.321 . S
C235 H259 0.930 . S
H236 C231 0.931 . S
Co237 N234 2.135 . S
Co237 N240 2.121 . S
Co237 O245 2.055 . S
Co237 O248 2.039 . S
Co237 N251 2.140 . S
C238 O239 1.227 . S
C238 O248 1.265 . S
O239 C238 1.227 . S
N240 Co237 2.121 . S
N240 C242 1.375 . S
N240 C243 1.313 . S
C241 C242 1.338 . S
C241 N244 1.377 . S
C241 H261 0.930 . S
C242 N240 1.375 . S
C242 C241 1.338 . S
C242 H246 0.931 . S
C243 N240 1.313 . S
C243 N244 1.344 . S
C243 H247 0.930 . S
N244 C241 1.377 . S
N244 C243 1.344 . S
O245 Co237 2.055 . S
O245 C249 1.253 . S
H246 C242 0.931 . S
H247 C243 0.930 . S
O248 Co237 2.039 . S
O248 C238 1.265 . S
C249 O245 1.253 . S
C249 O250 1.227 . S
O250 C249 1.227 . S
N251 Co237 2.140 . S
N251 C254 1.346 . S
N251 C255 1.345 . S
C252 C253 1.387 . S
C252 C256 1.391 . S
C253 C252 1.387 . S
C253 C254 1.369 . S
C253 H262 0.929 . S
C254 N251 1.346 . S
C254 C253 1.369 . S
C254 H257 0.928 . S
C255 N251 1.345 . S
C255 C256 1.371 . S
C255 H258 0.931 . S
C256 C252 1.391 . S
C256 C255 1.371 . S
C256 H263 0.930 . S
H257 C254 0.928 . S
H258 C255 0.931 . S
H259 C235 0.930 . S
H260 C232 0.930 . S
H261 C241 0.930 . S
H262 C253 0.929 . S
H263 C256 0.930 . S
C264 C265 1.351 . S
C264 N267 1.368 . S
C264 H269 0.931 . S
C265 C264 1.351 . S
C265 N266 1.373 . S
C265 H293 0.930 . S
N266 C265 1.373 . S
N266 C268 1.340 . S
N267 C264 1.368 . S
N267 C268 1.321 . S
N267 Co270 2.135 . S
C268 N266 1.340 . S
C268 N267 1.321 . S
C268 H292 0.930 . S
H269 C264 0.931 . S
Co270 N267 2.135 . S
Co270 N273 2.121 . S
Co270 O278 2.055 . S
Co270 O281 2.039 . S
Co270 N284 2.140 . S
C271 O272 1.227 . S
C271 O281 1.265 . S
O272 C271 1.227 . S
N273 Co270 2.121 . S
N273 C275 1.375 . S
N273 C276 1.313 . S
C274 C275 1.338 . S
C274 N277 1.377 . S
C274 H294 0.930 . S
C275 N273 1.375 . S
C275 C274 1.338 . S
C275 H279 0.931 . S
C276 N273 1.313 . S
C276 N277 1.344 . S
C276 H280 0.930 . S
N277 C274 1.377 . S
N277 C276 1.344 . S
O278 Co270 2.055 . S
O278 C282 1.253 . S
H279 C275 0.931 . S
H280 C276 0.930 . S
O281 Co270 2.039 . S
O281 C271 1.265 . S
C282 O278 1.253 . S
C282 O283 1.227 . S
O283 C282 1.227 . S
N284 Co270 2.140 . S
N284 C287 1.346 . S
N284 C288 1.345 . S
C285 C286 1.387 . S
C285 C289 1.391 . S
C286 C285 1.387 . S
C286 C287 1.369 . S
C286 H295 0.929 . S
C287 N284 1.346 . S
C287 C286 1.369 . S
C287 H290 0.928 . S
C288 N284 1.345 . S
C288 C289 1.371 . S
C288 H291 0.931 . S
C289 C285 1.391 . S
C289 C288 1.371 . S
C289 H296 0.930 . S
H290 C287 0.928 . S
H291 C288 0.931 . S
H292 C268 0.930 . S
H293 C265 0.930 . S
H294 C274 0.930 . S
H295 C286 0.929 . S
H296 C289 0.930 . S
C297 C298 1.351 . S
C297 N300 1.368 . S
C297 H302 0.931 . S
C298 C297 1.351 . S
C298 N299 1.373 . S
C298 H326 0.930 . S
N299 C298 1.373 . S
N299 C301 1.340 . S
N300 C297 1.368 . S
N300 C301 1.321 . S
N300 Co303 2.135 . S
C301 N299 1.340 . S
C301 N300 1.321 . S
C301 H325 0.930 . S
H302 C297 0.931 . S
Co303 N300 2.135 . S
Co303 N306 2.121 . S
Co303 O311 2.055 . S
Co303 O314 2.039 . S
Co303 N317 2.140 . S
C304 O305 1.227 . S
C304 O314 1.265 . S
O305 C304 1.227 . S
N306 Co303 2.121 . S
N306 C308 1.375 . S
N306 C309 1.313 . S
C307 C308 1.338 . S
C307 N310 1.377 . S
C307 H327 0.930 . S
C308 N306 1.375 . S
C308 C307 1.338 . S
C308 H312 0.931 . S
C309 N306 1.313 . S
C309 N310 1.344 . S
C309 H313 0.930 . S
N310 C307 1.377 . S
N310 C309 1.344 . S
O311 Co303 2.055 . S
O311 C315 1.253 . S
H312 C308 0.931 . S
H313 C309 0.930 . S
O314 Co303 2.039 . S
O314 C304 1.265 . S
C315 O311 1.253 . S
C315 O316 1.227 . S
O316 C315 1.227 . S
N317 Co303 2.140 . S
N317 C320 1.346 . S
N317 C321 1.345 . S
C318 C319 1.387 . S
C318 C322 1.391 . S
C319 C318 1.387 . S
C319 C320 1.369 . S
C319 H328 0.929 . S
C320 N317 1.346 . S
C320 C319 1.369 . S
C320 H323 0.928 . S
C321 N317 1.345 . S
C321 C322 1.371 . S
C321 H324 0.931 . S
C322 C318 1.391 . S
C322 C321 1.371 . S
C322 H329 0.930 . S
H323 C320 0.928 . S
H324 C321 0.931 . S
H325 C301 0.930 . S
H326 C298 0.930 . S
H327 C307 0.930 . S
H328 C319 0.929 . S
H329 C322 0.930 . S
C330 C331 1.351 . S
C330 N333 1.368 . S
C330 H335 0.931 . S
C331 C330 1.351 . S
C331 N332 1.373 . S
C331 H359 0.930 . S
N332 C331 1.373 . S
N332 C334 1.340 . S
N333 C330 1.368 . S
N333 C334 1.321 . S
N333 Co336 2.135 . S
C334 N332 1.340 . S
C334 N333 1.321 . S
C334 H358 0.930 . S
H335 C330 0.931 . S
Co336 N333 2.135 . S
Co336 N339 2.121 . S
Co336 O344 2.055 . S
Co336 O347 2.039 . S
Co336 N350 2.140 . S
C337 O338 1.227 . S
C337 O347 1.265 . S
O338 C337 1.227 . S
N339 Co336 2.121 . S
N339 C341 1.375 . S
N339 C342 1.313 . S
C340 C341 1.338 . S
C340 N343 1.377 . S
C340 H360 0.930 . S
C341 N339 1.375 . S
C341 C340 1.338 . S
C341 H345 0.931 . S
C342 N339 1.313 . S
C342 N343 1.344 . S
C342 H346 0.930 . S
N343 C340 1.377 . S
N343 C342 1.344 . S
O344 Co336 2.055 . S
O344 C348 1.253 . S
H345 C341 0.931 . S
H346 C342 0.930 . S
O347 Co336 2.039 . S
O347 C337 1.265 . S
C348 O344 1.253 . S
C348 O349 1.227 . S
O349 C348 1.227 . S
N350 Co336 2.140 . S
N350 C353 1.346 . S
N350 C354 1.345 . S
C351 C352 1.387 . S
C351 C355 1.391 . S
C352 C351 1.387 . S
C352 C353 1.369 . S
C352 H361 0.929 . S
C353 N350 1.346 . S
C353 C352 1.369 . S
C353 H356 0.928 . S
C354 N350 1.345 . S
C354 C355 1.371 . S
C354 H357 0.931 . S
C355 C351 1.391 . S
C355 C354 1.371 . S
C355 H362 0.930 . S
H356 C353 0.928 . S
H357 C354 0.931 . S
H358 C334 0.930 . S
H359 C331 0.930 . S
H360 C340 0.930 . S
H361 C352 0.929 . S
H362 C355 0.930 . S
C363 C364 1.351 . S
C363 N366 1.368 . S
C363 H368 0.931 . S
C364 C363 1.351 . S
C364 N365 1.373 . S
C364 H392 0.930 . S
N365 C364 1.373 . S
N365 C367 1.340 . S
N366 C363 1.368 . S
N366 C367 1.321 . S
N366 Co369 2.135 . S
C367 N365 1.340 . S
C367 N366 1.321 . S
C367 H391 0.930 . S
H368 C363 0.931 . S
Co369 N366 2.135 . S
Co369 N372 2.121 . S
Co369 O377 2.055 . S
Co369 O380 2.039 . S
Co369 N383 2.140 . S
C370 O371 1.227 . S
C370 O380 1.265 . S
O371 C370 1.227 . S
N372 Co369 2.121 . S
N372 C374 1.375 . S
N372 C375 1.313 . S
C373 C374 1.338 . S
C373 N376 1.377 . S
C373 H393 0.930 . S
C374 N372 1.375 . S
C374 C373 1.338 . S
C374 H378 0.931 . S
C375 N372 1.313 . S
C375 N376 1.344 . S
C375 H379 0.930 . S
N376 C373 1.377 . S
N376 C375 1.344 . S
O377 Co369 2.055 . S
O377 C381 1.253 . S
H378 C374 0.931 . S
H379 C375 0.930 . S
O380 Co369 2.039 . S
O380 C370 1.265 . S
C381 O377 1.253 . S
C381 O382 1.227 . S
O382 C381 1.227 . S
N383 Co369 2.140 . S
N383 C386 1.346 . S
N383 C387 1.345 . S
C384 C385 1.387 . S
C384 C388 1.391 . S
C385 C384 1.387 . S
C385 C386 1.369 . S
C385 H394 0.929 . S
C386 N383 1.346 . S
C386 C385 1.369 . S
C386 H389 0.928 . S
C387 N383 1.345 . S
C387 C388 1.371 . S
C387 H390 0.931 . S
C388 C384 1.391 . S
C388 C387 1.371 . S
C388 H395 0.930 . S
H389 C386 0.928 . S
H390 C387 0.931 . S
H391 C367 0.930 . S
H392 C364 0.930 . S
H393 C373 0.930 . S
H394 C385 0.929 . S
H395 C388 0.930 . S
C396 C397 1.351 . S
C396 N399 1.368 . S
C396 H401 0.931 . S
C397 C396 1.351 . S
C397 N398 1.373 . S
C397 H425 0.930 . S
N398 C397 1.373 . S
N398 C400 1.340 . S
N399 C396 1.368 . S
N399 C400 1.321 . S
N399 Co402 2.135 . S
C400 N398 1.340 . S
C400 N399 1.321 . S
C400 H424 0.930 . S
H401 C396 0.931 . S
Co402 N399 2.135 . S
Co402 N405 2.121 . S
Co402 O410 2.055 . S
Co402 O413 2.039 . S
Co402 N416 2.140 . S
C403 O404 1.227 . S
C403 O413 1.265 . S
O404 C403 1.227 . S
N405 Co402 2.121 . S
N405 C407 1.375 . S
N405 C408 1.313 . S
C406 C407 1.338 . S
C406 N409 1.377 . S
C406 H426 0.930 . S
C407 N405 1.375 . S
C407 C406 1.338 . S
C407 H411 0.931 . S
C408 N405 1.313 . S
C408 N409 1.344 . S
C408 H412 0.930 . S
N409 C406 1.377 . S
N409 C408 1.344 . S
O410 Co402 2.055 . S
O410 C414 1.253 . S
H411 C407 0.931 . S
H412 C408 0.930 . S
O413 Co402 2.039 . S
O413 C403 1.265 . S
C414 O410 1.253 . S
C414 O415 1.227 . S
O415 C414 1.227 . S
N416 Co402 2.140 . S
N416 C419 1.346 . S
N416 C420 1.345 . S
C417 C418 1.387 . S
C417 C421 1.391 . S
C418 C417 1.387 . S
C418 C419 1.369 . S
C418 H427 0.929 . S
C419 N416 1.346 . S
C419 C418 1.369 . S
C419 H422 0.928 . S
C420 N416 1.345 . S
C420 C421 1.371 . S
C420 H423 0.931 . S
C421 C417 1.391 . S
C421 C420 1.371 . S
C421 H428 0.930 . S
H422 C419 0.928 . S
H423 C420 0.931 . S
H424 C400 0.930 . S
H425 C397 0.930 . S
H426 C406 0.930 . S
H427 C418 0.929 . S
H428 C421 0.930 . S
C429 C430 1.351 . S
C429 N432 1.368 . S
C429 H434 0.931 . S
C430 C429 1.351 . S
C430 N431 1.373 . S
C430 H458 0.930 . S
N431 C430 1.373 . S
N431 C433 1.340 . S
N432 C429 1.368 . S
N432 C433 1.321 . S
N432 Co435 2.135 . S
C433 N431 1.340 . S
C433 N432 1.321 . S
C433 H457 0.930 . S
H434 C429 0.931 . S
Co435 N432 2.135 . S
Co435 N438 2.121 . S
Co435 O443 2.055 . S
Co435 O446 2.039 . S
Co435 N449 2.140 . S
C436 O437 1.227 . S
C436 O446 1.265 . S
O437 C436 1.227 . S
N438 Co435 2.121 . S
N438 C440 1.375 . S
N438 C441 1.313 . S
C439 C440 1.338 . S
C439 N442 1.377 . S
C439 H459 0.930 . S
C440 N438 1.375 . S
C440 C439 1.338 . S
C440 H444 0.931 . S
C441 N438 1.313 . S
C441 N442 1.344 . S
C441 H445 0.930 . S
N442 C439 1.377 . S
N442 C441 1.344 . S
O443 Co435 2.055 . S
O443 C447 1.253 . S
H444 C440 0.931 . S
H445 C441 0.930 . S
O446 Co435 2.039 . S
O446 C436 1.265 . S
C447 O443 1.253 . S
C447 O448 1.227 . S
O448 C447 1.227 . S
N449 Co435 2.140 . S
N449 C452 1.346 . S
N449 C453 1.345 . S
C450 C451 1.387 . S
C450 C454 1.391 . S
C451 C450 1.387 . S
C451 C452 1.369 . S
C451 H460 0.929 . S
C452 N449 1.346 . S
C452 C451 1.369 . S
C452 H455 0.928 . S
C453 N449 1.345 . S
C453 C454 1.371 . S
C453 H456 0.931 . S
C454 C450 1.391 . S
C454 C453 1.371 . S
C454 H461 0.930 . S
H455 C452 0.928 . S
H456 C453 0.931 . S
H457 C433 0.930 . S
H458 C430 0.930 . S
H459 C439 0.930 . S
H460 C451 0.929 . S
H461 C454 0.930 . S
C462 C463 1.351 . S
C462 N465 1.368 . S
C462 H467 0.931 . S
C463 C462 1.351 . S
C463 N464 1.373 . S
C463 H491 0.930 . S
N464 C463 1.373 . S
N464 C466 1.340 . S
N465 C462 1.368 . S
N465 C466 1.321 . S
N465 Co468 2.135 . S
C466 N464 1.340 . S
C466 N465 1.321 . S
C466 H490 0.930 . S
H467 C462 0.931 . S
Co468 N465 2.135 . S
Co468 N471 2.121 . S
Co468 O476 2.055 . S
Co468 O479 2.039 . S
Co468 N482 2.140 . S
C469 O470 1.227 . S
C469 O479 1.265 . S
O470 C469 1.227 . S
N471 Co468 2.121 . S
N471 C473 1.375 . S
N471 C474 1.313 . S
C472 C473 1.338 . S
C472 N475 1.377 . S
C472 H492 0.930 . S
C473 N471 1.375 . S
C473 C472 1.338 . S
C473 H477 0.931 . S
C474 N471 1.313 . S
C474 N475 1.344 . S
C474 H478 0.930 . S
N475 C472 1.377 . S
N475 C474 1.344 . S
O476 Co468 2.055 . S
O476 C480 1.253 . S
H477 C473 0.931 . S
H478 C474 0.930 . S
O479 Co468 2.039 . S
O479 C469 1.265 . S
C480 O476 1.253 . S
C480 O481 1.227 . S
O481 C480 1.227 . S
N482 Co468 2.140 . S
N482 C485 1.346 . S
N482 C486 1.345 . S
C483 C484 1.387 . S
C483 C487 1.391 . S
C484 C483 1.387 . S
C484 C485 1.369 . S
C484 H493 0.929 . S
C485 N482 1.346 . S
C485 C484 1.369 . S
C485 H488 0.928 . S
C486 N482 1.345 . S
C486 C487 1.371 . S
C486 H489 0.931 . S
C487 C483 1.391 . S
C487 C486 1.371 . S
C487 H494 0.930 . S
H488 C485 0.928 . S
H489 C486 0.931 . S
H490 C466 0.930 . S
H491 C463 0.930 . S
H492 C472 0.930 . S
H493 C484 0.929 . S
H494 C487 0.930 . S
C495 C496 1.351 . S
C495 N498 1.368 . S
C495 H500 0.931 . S
C496 C495 1.351 . S
C496 N497 1.373 . S
C496 H524 0.930 . S
N497 C496 1.373 . S
N497 C499 1.340 . S
N498 C495 1.368 . S
N498 C499 1.321 . S
N498 Co501 2.135 . S
C499 N497 1.340 . S
C499 N498 1.321 . S
C499 H523 0.930 . S
H500 C495 0.931 . S
Co501 N498 2.135 . S
Co501 N504 2.121 . S
Co501 O509 2.055 . S
Co501 O512 2.039 . S
Co501 N515 2.140 . S
C502 O503 1.227 . S
C502 O512 1.265 . S
O503 C502 1.227 . S
N504 Co501 2.121 . S
N504 C506 1.375 . S
N504 C507 1.313 . S
C505 C506 1.338 . S
C505 N508 1.377 . S
C505 H525 0.930 . S
C506 N504 1.375 . S
C506 C505 1.338 . S
C506 H510 0.931 . S
C507 N504 1.313 . S
C507 N508 1.344 . S
C507 H511 0.930 . S
N508 C505 1.377 . S
N508 C507 1.344 . S
O509 Co501 2.055 . S
O509 C513 1.253 . S
H510 C506 0.931 . S
H511 C507 0.930 . S
O512 Co501 2.039 . S
O512 C502 1.265 . S
C513 O509 1.253 . S
C513 O514 1.227 . S
O514 C513 1.227 . S
N515 Co501 2.140 . S
N515 C518 1.346 . S
N515 C519 1.345 . S
C516 C517 1.387 . S
C516 C520 1.391 . S
C517 C516 1.387 . S
C517 C518 1.369 . S
C517 H526 0.929 . S
C518 N515 1.346 . S
C518 C517 1.369 . S
C518 H521 0.928 . S
C519 N515 1.345 . S
C519 C520 1.371 . S
C519 H522 0.931 . S
C520 C516 1.391 . S
C520 C519 1.371 . S
C520 H527 0.930 . S
H521 C518 0.928 . S
H522 C519 0.931 . S
H523 C499 0.930 . S
H524 C496 0.930 . S
H525 C505 0.930 . S
H526 C517 0.929 . S
H527 C520 0.930 . S
C528 C529 1.351 . S
C528 N531 1.368 . S
C528 H533 0.931 . S
C529 C528 1.351 . S
C529 N530 1.373 . S
C529 H557 0.930 . S
N530 C529 1.373 . S
N530 C532 1.340 . S
N531 C528 1.368 . S
N531 C532 1.321 . S
N531 Co534 2.135 . S
C532 N530 1.340 . S
C532 N531 1.321 . S
C532 H556 0.930 . S
H533 C528 0.931 . S
Co534 N531 2.135 . S
Co534 N537 2.121 . S
Co534 O542 2.055 . S
Co534 O545 2.039 . S
Co534 N548 2.140 . S
C535 O536 1.227 . S
C535 O545 1.265 . S
O536 C535 1.227 . S
N537 Co534 2.121 . S
N537 C539 1.375 . S
N537 C540 1.313 . S
C538 C539 1.338 . S
C538 N541 1.377 . S
C538 H558 0.930 . S
C539 N537 1.375 . S
C539 C538 1.338 . S
C539 H543 0.931 . S
C540 N537 1.313 . S
C540 N541 1.344 . S
C540 H544 0.930 . S
N541 C538 1.377 . S
N541 C540 1.344 . S
O542 Co534 2.055 . S
O542 C546 1.253 . S
H543 C539 0.931 . S
H544 C540 0.930 . S
O545 Co534 2.039 . S
O545 C535 1.265 . S
C546 O542 1.253 . S
C546 O547 1.227 . S
O547 C546 1.227 . S
N548 Co534 2.140 . S
N548 C551 1.346 . S
N548 C552 1.345 . S
C549 C550 1.387 . S
C549 C553 1.391 . S
C550 C549 1.387 . S
C550 C551 1.369 . S
C550 H559 0.929 . S
C551 N548 1.346 . S
C551 C550 1.369 . S
C551 H554 0.928 . S
C552 N548 1.345 . S
C552 C553 1.371 . S
C552 H555 0.931 . S
C553 C549 1.391 . S
C553 C552 1.371 . S
C553 H560 0.930 . S
H554 C551 0.928 . S
H555 C552 0.931 . S
H556 C532 0.930 . S
H557 C529 0.930 . S
H558 C538 0.930 . S
H559 C550 0.929 . S
H560 C553 0.930 . S
C561 C562 1.351 . S
C561 N564 1.368 . S
C561 H566 0.931 . S
C562 C561 1.351 . S
C562 N563 1.373 . S
C562 H590 0.930 . S
N563 C562 1.373 . S
N563 C565 1.340 . S
N564 C561 1.368 . S
N564 C565 1.321 . S
N564 Co567 2.135 . S
C565 N563 1.340 . S
C565 N564 1.321 . S
C565 H589 0.930 . S
H566 C561 0.931 . S
Co567 N564 2.135 . S
Co567 N570 2.121 . S
Co567 O575 2.055 . S
Co567 O578 2.039 . S
Co567 N581 2.140 . S
C568 O569 1.227 . S
C568 O578 1.265 . S
O569 C568 1.227 . S
N570 Co567 2.121 . S
N570 C572 1.375 . S
N570 C573 1.313 . S
C571 C572 1.338 . S
C571 N574 1.377 . S
C571 H591 0.930 . S
C572 N570 1.375 . S
C572 C571 1.338 . S
C572 H576 0.931 . S
C573 N570 1.313 . S
C573 N574 1.344 . S
C573 H577 0.930 . S
N574 C571 1.377 . S
N574 C573 1.344 . S
O575 Co567 2.055 . S
O575 C579 1.253 . S
H576 C572 0.931 . S
H577 C573 0.930 . S
O578 Co567 2.039 . S
O578 C568 1.265 . S
C579 O575 1.253 . S
C579 O580 1.227 . S
O580 C579 1.227 . S
N581 Co567 2.140 . S
N581 C584 1.346 . S
N581 C585 1.345 . S
C582 C583 1.387 . S
C582 C586 1.391 . S
C583 C582 1.387 . S
C583 C584 1.369 . S
C583 H592 0.929 . S
C584 N581 1.346 . S
C584 C583 1.369 . S
C584 H587 0.928 . S
C585 N581 1.345 . S
C585 C586 1.371 . S
C585 H588 0.931 . S
C586 C582 1.391 . S
C586 C585 1.371 . S
C586 H593 0.930 . S
H587 C584 0.928 . S
H588 C585 0.931 . S
H589 C565 0.930 . S
H590 C562 0.930 . S
H591 C571 0.930 . S
H592 C583 0.929 . S
H593 C586 0.930 . S
C594 C595 1.351 . S
C594 N597 1.368 . S
C594 H599 0.931 . S
C595 C594 1.351 . S
C595 N596 1.373 . S
C595 H623 0.930 . S
N596 C595 1.373 . S
N596 C598 1.340 . S
N597 C594 1.368 . S
N597 C598 1.321 . S
N597 Co600 2.135 . S
C598 N596 1.340 . S
C598 N597 1.321 . S
C598 H622 0.930 . S
H599 C594 0.931 . S
Co600 N597 2.135 . S
Co600 N603 2.121 . S
Co600 O608 2.055 . S
Co600 O611 2.039 . S
Co600 N614 2.140 . S
C601 O602 1.227 . S
C601 O611 1.265 . S
O602 C601 1.227 . S
N603 Co600 2.121 . S
N603 C605 1.375 . S
N603 C606 1.313 . S
C604 C605 1.338 . S
C604 N607 1.377 . S
C604 H624 0.930 . S
C605 N603 1.375 . S
C605 C604 1.338 . S
C605 H609 0.931 . S
C606 N603 1.313 . S
C606 N607 1.344 . S
C606 H610 0.930 . S
N607 C604 1.377 . S
N607 C606 1.344 . S
O608 Co600 2.055 . S
O608 C612 1.253 . S
H609 C605 0.931 . S
H610 C606 0.930 . S
O611 Co600 2.039 . S
O611 C601 1.265 . S
C612 O608 1.253 . S
C612 O613 1.227 . S
O613 C612 1.227 . S
N614 Co600 2.140 . S
N614 C617 1.346 . S
N614 C618 1.345 . S
C615 C616 1.387 . S
C615 C619 1.391 . S
C616 C615 1.387 . S
C616 C617 1.369 . S
C616 H625 0.929 . S
C617 N614 1.346 . S
C617 C616 1.369 . S
C617 H620 0.928 . S
C618 N614 1.345 . S
C618 C619 1.371 . S
C618 H621 0.931 . S
C619 C615 1.391 . S
C619 C618 1.371 . S
C619 H626 0.930 . S
H620 C617 0.928 . S
H621 C618 0.931 . S
H622 C598 0.930 . S
H623 C595 0.930 . S
H624 C604 0.930 . S
H625 C616 0.929 . S
H626 C619 0.930 . S
C627 C628 1.351 . S
C627 N630 1.368 . S
C627 H632 0.931 . S
C628 C627 1.351 . S
C628 N629 1.373 . S
C628 H656 0.930 . S
N629 C628 1.373 . S
N629 C631 1.340 . S
N630 C627 1.368 . S
N630 C631 1.321 . S
N630 Co633 2.135 . S
C631 N629 1.340 . S
C631 N630 1.321 . S
C631 H655 0.930 . S
H632 C627 0.931 . S
Co633 N630 2.135 . S
Co633 N636 2.121 . S
Co633 O641 2.055 . S
Co633 O644 2.039 . S
Co633 N647 2.140 . S
C634 O635 1.227 . S
C634 O644 1.265 . S
O635 C634 1.227 . S
N636 Co633 2.121 . S
N636 C638 1.375 . S
N636 C639 1.313 . S
C637 C638 1.338 . S
C637 N640 1.377 . S
C637 H657 0.930 . S
C638 N636 1.375 . S
C638 C637 1.338 . S
C638 H642 0.931 . S
C639 N636 1.313 . S
C639 N640 1.344 . S
C639 H643 0.930 . S
N640 C637 1.377 . S
N640 C639 1.344 . S
O641 Co633 2.055 . S
O641 C645 1.253 . S
H642 C638 0.931 . S
H643 C639 0.930 . S
O644 Co633 2.039 . S
O644 C634 1.265 . S
C645 O641 1.253 . S
C645 O646 1.227 . S
O646 C645 1.227 . S
N647 Co633 2.140 . S
N647 C650 1.346 . S
N647 C651 1.345 . S
C648 C649 1.387 . S
C648 C652 1.391 . S
C649 C648 1.387 . S
C649 C650 1.369 . S
C649 H658 0.929 . S
C650 N647 1.346 . S
C650 C649 1.369 . S
C650 H653 0.928 . S
C651 N647 1.345 . S
C651 C652 1.371 . S
C651 H654 0.931 . S
C652 C648 1.391 . S
C652 C651 1.371 . S
C652 H659 0.930 . S
H653 C650 0.928 . S
H654 C651 0.931 . S
H655 C631 0.930 . S
H656 C628 0.930 . S
H657 C637 0.930 . S
H658 C649 0.929 . S
H659 C652 0.930 . S
C660 C661 1.351 . S
C660 N663 1.368 . S
C660 H665 0.931 . S
C661 C660 1.351 . S
C661 N662 1.373 . S
C661 H689 0.930 . S
N662 C661 1.373 . S
N662 C664 1.340 . S
N663 C660 1.368 . S
N663 C664 1.321 . S
N663 Co666 2.135 . S
C664 N662 1.340 . S
C664 N663 1.321 . S
C664 H688 0.930 . S
H665 C660 0.931 . S
Co666 N663 2.135 . S
Co666 N669 2.121 . S
Co666 O674 2.055 . S
Co666 O677 2.039 . S
Co666 N680 2.140 . S
C667 O668 1.227 . S
C667 O677 1.265 . S
O668 C667 1.227 . S
N669 Co666 2.121 . S
N669 C671 1.375 . S
N669 C672 1.313 . S
C670 C671 1.338 . S
C670 N673 1.377 . S
C670 H690 0.930 . S
C671 N669 1.375 . S
C671 C670 1.338 . S
C671 H675 0.931 . S
C672 N669 1.313 . S
C672 N673 1.344 . S
C672 H676 0.930 . S
N673 C670 1.377 . S
N673 C672 1.344 . S
O674 Co666 2.055 . S
O674 C678 1.253 . S
H675 C671 0.931 . S
H676 C672 0.930 . S
O677 Co666 2.039 . S
O677 C667 1.265 . S
C678 O674 1.253 . S
C678 O679 1.227 . S
O679 C678 1.227 . S
N680 Co666 2.140 . S
N680 C683 1.346 . S
N680 C684 1.345 . S
C681 C682 1.387 . S
C681 C685 1.391 . S
C682 C681 1.387 . S
C682 C683 1.369 . S
C682 H691 0.929 . S
C683 N680 1.346 . S
C683 C682 1.369 . S
C683 H686 0.928 . S
C684 N680 1.345 . S
C684 C685 1.371 . S
C684 H687 0.931 . S
C685 C681 1.391 . S
C685 C684 1.371 . S
C685 H692 0.930 . S
H686 C683 0.928 . S
H687 C684 0.931 . S
H688 C664 0.930 . S
H689 C661 0.930 . S
H690 C670 0.930 . S
H691 C682 0.929 . S
H692 C685 0.930 . S
C693 C694 1.351 . S
C693 N696 1.368 . S
C693 H698 0.931 . S
C694 C693 1.351 . S
C694 N695 1.373 . S
C694 H722 0.930 . S
N695 C694 1.373 . S
N695 C697 1.340 . S
N696 C693 1.368 . S
N696 C697 1.321 . S
N696 Co699 2.135 . S
C697 N695 1.340 . S
C697 N696 1.321 . S
C697 H721 0.930 . S
H698 C693 0.931 . S
Co699 N696 2.135 . S
Co699 N702 2.121 . S
Co699 O707 2.055 . S
Co699 O710 2.039 . S
Co699 N713 2.140 . S
C700 O701 1.227 . S
C700 O710 1.265 . S
O701 C700 1.227 . S
N702 Co699 2.121 . S
N702 C704 1.375 . S
N702 C705 1.313 . S
C703 C704 1.338 . S
C703 N706 1.377 . S
C703 H723 0.930 . S
C704 N702 1.375 . S
C704 C703 1.338 . S
C704 H708 0.931 . S
C705 N702 1.313 . S
C705 N706 1.344 . S
C705 H709 0.930 . S
N706 C703 1.377 . S
N706 C705 1.344 . S
O707 Co699 2.055 . S
O707 C711 1.253 . S
H708 C704 0.931 . S
H709 C705 0.930 . S
O710 Co699 2.039 . S
O710 C700 1.265 . S
C711 O707 1.253 . S
C711 O712 1.227 . S
O712 C711 1.227 . S
N713 Co699 2.140 . S
N713 C716 1.346 . S
N713 C717 1.345 . S
C714 C715 1.387 . S
C714 C718 1.391 . S
C715 C714 1.387 . S
C715 C716 1.369 . S
C715 H724 0.929 . S
C716 N713 1.346 . S
C716 C715 1.369 . S
C716 H719 0.928 . S
C717 N713 1.345 . S
C717 C718 1.371 . S
C717 H720 0.931 . S
C718 C714 1.391 . S
C718 C717 1.371 . S
C718 H725 0.930 . S
H719 C716 0.928 . S
H720 C717 0.931 . S
H721 C697 0.930 . S
H722 C694 0.930 . S
H723 C703 0.930 . S
H724 C715 0.929 . S
H725 C718 0.930 . S
C726 C727 1.351 . S
C726 N729 1.368 . S
C726 H731 0.931 . S
C727 C726 1.351 . S
C727 N728 1.373 . S
C727 H755 0.930 . S
N728 C727 1.373 . S
N728 C730 1.340 . S
N729 C726 1.368 . S
N729 C730 1.321 . S
N729 Co732 2.135 . S
C730 N728 1.340 . S
C730 N729 1.321 . S
C730 H754 0.930 . S
H731 C726 0.931 . S
Co732 N729 2.135 . S
Co732 N735 2.121 . S
Co732 O740 2.055 . S
Co732 O743 2.039 . S
Co732 N746 2.140 . S
C733 O734 1.227 . S
C733 O743 1.265 . S
O734 C733 1.227 . S
N735 Co732 2.121 . S
N735 C737 1.375 . S
N735 C738 1.313 . S
C736 C737 1.338 . S
C736 N739 1.377 . S
C736 H756 0.930 . S
C737 N735 1.375 . S
C737 C736 1.338 . S
C737 H741 0.931 . S
C738 N735 1.313 . S
C738 N739 1.344 . S
C738 H742 0.930 . S
N739 C736 1.377 . S
N739 C738 1.344 . S
O740 Co732 2.055 . S
O740 C744 1.253 . S
H741 C737 0.931 . S
H742 C738 0.930 . S
O743 Co732 2.039 . S
O743 C733 1.265 . S
C744 O740 1.253 . S
C744 O745 1.227 . S
O745 C744 1.227 . S
N746 Co732 2.140 . S
N746 C749 1.346 . S
N746 C750 1.345 . S
C747 C748 1.387 . S
C747 C751 1.391 . S
C748 C747 1.387 . S
C748 C749 1.369 . S
C748 H757 0.929 . S
C749 N746 1.346 . S
C749 C748 1.369 . S
C749 H752 0.928 . S
C750 N746 1.345 . S
C750 C751 1.371 . S
C750 H753 0.931 . S
C751 C747 1.391 . S
C751 C750 1.371 . S
C751 H758 0.930 . S
H752 C749 0.928 . S
H753 C750 0.931 . S
H754 C730 0.930 . S
H755 C727 0.930 . S
H756 C736 0.930 . S
H757 C748 0.929 . S
H758 C751 0.930 . S
C759 C760 1.351 . S
C759 N762 1.368 . S
C759 H764 0.931 . S
C760 C759 1.351 . S
C760 N761 1.373 . S
C760 H788 0.930 . S
N761 C760 1.373 . S
N761 C763 1.340 . S
N762 C759 1.368 . S
N762 C763 1.321 . S
N762 Co765 2.135 . S
C763 N761 1.340 . S
C763 N762 1.321 . S
C763 H787 0.930 . S
H764 C759 0.931 . S
Co765 N762 2.135 . S
Co765 N768 2.121 . S
Co765 O773 2.055 . S
Co765 O776 2.039 . S
Co765 N779 2.140 . S
C766 O767 1.227 . S
C766 O776 1.265 . S
O767 C766 1.227 . S
N768 Co765 2.121 . S
N768 C770 1.375 . S
N768 C771 1.313 . S
C769 C770 1.338 . S
C769 N772 1.377 . S
C769 H789 0.930 . S
C770 N768 1.375 . S
C770 C769 1.338 . S
C770 H774 0.931 . S
C771 N768 1.313 . S
C771 N772 1.344 . S
C771 H775 0.930 . S
N772 C769 1.377 . S
N772 C771 1.344 . S
O773 Co765 2.055 . S
O773 C777 1.253 . S
H774 C770 0.931 . S
H775 C771 0.930 . S
O776 Co765 2.039 . S
O776 C766 1.265 . S
C777 O773 1.253 . S
C777 O778 1.227 . S
O778 C777 1.227 . S
N779 Co765 2.140 . S
N779 C782 1.346 . S
N779 C783 1.345 . S
C780 C781 1.387 . S
C780 C784 1.391 . S
C781 C780 1.387 . S
C781 C782 1.369 . S
C781 H790 0.929 . S
C782 N779 1.346 . S
C782 C781 1.369 . S
C782 H785 0.928 . S
C783 N779 1.345 . S
C783 C784 1.371 . S
C783 H786 0.931 . S
C784 C780 1.391 . S
C784 C783 1.371 . S
C784 H791 0.930 . S
H785 C782 0.928 . S
H786 C783 0.931 . S
H787 C763 0.930 . S
H788 C760 0.930 . S
H789 C769 0.930 . S
H790 C781 0.929 . S
H791 C784 0.930 . S
C792 C793 1.351 . S
C792 N795 1.368 . S
C792 H797 0.931 . S
C793 C792 1.351 . S
C793 N794 1.373 . S
C793 H821 0.930 . S
N794 C793 1.373 . S
N794 C796 1.340 . S
N795 C792 1.368 . S
N795 C796 1.321 . S
N795 Co798 2.135 . S
C796 N794 1.340 . S
C796 N795 1.321 . S
C796 H820 0.930 . S
H797 C792 0.931 . S
Co798 N795 2.135 . S
Co798 N801 2.121 . S
Co798 O806 2.055 . S
Co798 O809 2.039 . S
Co798 N812 2.140 . S
C799 O800 1.227 . S
C799 O809 1.265 . S
O800 C799 1.227 . S
N801 Co798 2.121 . S
N801 C803 1.375 . S
N801 C804 1.313 . S
C802 C803 1.338 . S
C802 N805 1.377 . S
C802 H822 0.930 . S
C803 N801 1.375 . S
C803 C802 1.338 . S
C803 H807 0.931 . S
C804 N801 1.313 . S
C804 N805 1.344 . S
C804 H808 0.930 . S
N805 C802 1.377 . S
N805 C804 1.344 . S
O806 Co798 2.055 . S
O806 C810 1.253 . S
H807 C803 0.931 . S
H808 C804 0.930 . S
O809 Co798 2.039 . S
O809 C799 1.265 . S
C810 O806 1.253 . S
C810 O811 1.227 . S
O811 C810 1.227 . S
N812 Co798 2.140 . S
N812 C815 1.346 . S
N812 C816 1.345 . S
C813 C814 1.387 . S
C813 C817 1.391 . S
C814 C813 1.387 . S
C814 C815 1.369 . S
C814 H823 0.929 . S
C815 N812 1.346 . S
C815 C814 1.369 . S
C815 H818 0.928 . S
C816 N812 1.345 . S
C816 C817 1.371 . S
C816 H819 0.931 . S
C817 C813 1.391 . S
C817 C816 1.371 . S
C817 H824 0.930 . S
H818 C815 0.928 . S
H819 C816 0.931 . S
H820 C796 0.930 . S
H821 C793 0.930 . S
H822 C802 0.930 . S
H823 C814 0.929 . S
H824 C817 0.930 . S
C825 C826 1.351 . S
C825 N828 1.368 . S
C825 H830 0.931 . S
C826 C825 1.351 . S
C826 N827 1.373 . S
C826 H854 0.930 . S
N827 C826 1.373 . S
N827 C829 1.340 . S
N828 C825 1.368 . S
N828 C829 1.321 . S
N828 Co831 2.135 . S
C829 N827 1.340 . S
C829 N828 1.321 . S
C829 H853 0.930 . S
H830 C825 0.931 . S
Co831 N828 2.135 . S
Co831 N834 2.121 . S
Co831 O839 2.055 . S
Co831 O842 2.039 . S
Co831 N845 2.140 . S
C832 O833 1.227 . S
C832 O842 1.265 . S
O833 C832 1.227 . S
N834 Co831 2.121 . S
N834 C836 1.375 . S
N834 C837 1.313 . S
C835 C836 1.338 . S
C835 N838 1.377 . S
C835 H855 0.930 . S
C836 N834 1.375 . S
C836 C835 1.338 . S
C836 H840 0.931 . S
C837 N834 1.313 . S
C837 N838 1.344 . S
C837 H841 0.930 . S
N838 C835 1.377 . S
N838 C837 1.344 . S
O839 Co831 2.055 . S
O839 C843 1.253 . S
H840 C836 0.931 . S
H841 C837 0.930 . S
O842 Co831 2.039 . S
O842 C832 1.265 . S
C843 O839 1.253 . S
C843 O844 1.227 . S
O844 C843 1.227 . S
N845 Co831 2.140 . S
N845 C848 1.346 . S
N845 C849 1.345 . S
C846 C847 1.387 . S
C846 C850 1.391 . S
C847 C846 1.387 . S
C847 C848 1.369 . S
C847 H856 0.929 . S
C848 N845 1.346 . S
C848 C847 1.369 . S
C848 H851 0.928 . S
C849 N845 1.345 . S
C849 C850 1.371 . S
C849 H852 0.931 . S
C850 C846 1.391 . S
C850 C849 1.371 . S
C850 H857 0.930 . S
H851 C848 0.928 . S
H852 C849 0.931 . S
H853 C829 0.930 . S
H854 C826 0.930 . S
H855 C835 0.930 . S
H856 C847 0.929 . S
H857 C850 0.930 . S
C858 C859 1.351 . S
C858 N861 1.368 . S
C858 H863 0.931 . S
C859 C858 1.351 . S
C859 N860 1.373 . S
C859 H887 0.930 . S
N860 C859 1.373 . S
N860 C862 1.340 . S
N861 C858 1.368 . S
N861 C862 1.321 . S
N861 Co864 2.135 . S
C862 N860 1.340 . S
C862 N861 1.321 . S
C862 H886 0.930 . S
H863 C858 0.931 . S
Co864 N861 2.135 . S
Co864 N867 2.121 . S
Co864 O872 2.055 . S
Co864 O875 2.039 . S
Co864 N878 2.140 . S
C865 O866 1.227 . S
C865 O875 1.265 . S
O866 C865 1.227 . S
N867 Co864 2.121 . S
N867 C869 1.375 . S
N867 C870 1.313 . S
C868 C869 1.338 . S
C868 N871 1.377 . S
C868 H888 0.930 . S
C869 N867 1.375 . S
C869 C868 1.338 . S
C869 H873 0.931 . S
C870 N867 1.313 . S
C870 N871 1.344 . S
C870 H874 0.930 . S
N871 C868 1.377 . S
N871 C870 1.344 . S
O872 Co864 2.055 . S
O872 C876 1.253 . S
H873 C869 0.931 . S
H874 C870 0.930 . S
O875 Co864 2.039 . S
O875 C865 1.265 . S
C876 O872 1.253 . S
C876 O877 1.227 . S
O877 C876 1.227 . S
N878 Co864 2.140 . S
N878 C881 1.346 . S
N878 C882 1.345 . S
C879 C880 1.387 . S
C879 C883 1.391 . S
C880 C879 1.387 . S
C880 C881 1.369 . S
C880 H889 0.929 . S
C881 N878 1.346 . S
C881 C880 1.369 . S
C881 H884 0.928 . S
C882 N878 1.345 . S
C882 C883 1.371 . S
C882 H885 0.931 . S
C883 C879 1.391 . S
C883 C882 1.371 . S
C883 H890 0.930 . S
H884 C881 0.928 . S
H885 C882 0.931 . S
H886 C862 0.930 . S
H887 C859 0.930 . S
H888 C868 0.930 . S
H889 C880 0.929 . S
H890 C883 0.930 . S
C891 C892 1.351 . S
C891 N894 1.368 . S
C891 H896 0.931 . S
C892 C891 1.351 . S
C892 N893 1.373 . S
C892 H920 0.930 . S
N893 C892 1.373 . S
N893 C895 1.340 . S
N894 C891 1.368 . S
N894 C895 1.321 . S
N894 Co897 2.135 . S
C895 N893 1.340 . S
C895 N894 1.321 . S
C895 H919 0.930 . S
H896 C891 0.931 . S
Co897 N894 2.135 . S
Co897 N900 2.121 . S
Co897 O905 2.055 . S
Co897 O908 2.039 . S
Co897 N911 2.140 . S
C898 O899 1.227 . S
C898 O908 1.265 . S
O899 C898 1.227 . S
N900 Co897 2.121 . S
N900 C902 1.375 . S
N900 C903 1.313 . S
C901 C902 1.338 . S
C901 N904 1.377 . S
C901 H921 0.930 . S
C902 N900 1.375 . S
C902 C901 1.338 . S
C902 H906 0.931 . S
C903 N900 1.313 . S
C903 N904 1.344 . S
C903 H907 0.930 . S
N904 C901 1.377 . S
N904 C903 1.344 . S
O905 Co897 2.055 . S
O905 C909 1.253 . S
H906 C902 0.931 . S
H907 C903 0.930 . S
O908 Co897 2.039 . S
O908 C898 1.265 . S
C909 O905 1.253 . S
C909 O910 1.227 . S
O910 C909 1.227 . S
N911 Co897 2.140 . S
N911 C914 1.346 . S
N911 C915 1.345 . S
C912 C913 1.387 . S
C912 C916 1.391 . S
C913 C912 1.387 . S
C913 C914 1.369 . S
C913 H922 0.929 . S
C914 N911 1.346 . S
C914 C913 1.369 . S
C914 H917 0.928 . S
C915 N911 1.345 . S
C915 C916 1.371 . S
C915 H918 0.931 . S
C916 C912 1.391 . S
C916 C915 1.371 . S
C916 H923 0.930 . S
H917 C914 0.928 . S
H918 C915 0.931 . S
H919 C895 0.930 . S
H920 C892 0.930 . S
H921 C901 0.930 . S
H922 C913 0.929 . S
H923 C916 0.930 . S
C924 C925 1.351 . S
C924 N927 1.368 . S
C924 H929 0.931 . S
C925 C924 1.351 . S
C925 N926 1.373 . S
C925 H953 0.930 . S
N926 C925 1.373 . S
N926 C928 1.340 . S
N927 C924 1.368 . S
N927 C928 1.321 . S
N927 Co930 2.135 . S
C928 N926 1.340 . S
C928 N927 1.321 . S
C928 H952 0.930 . S
H929 C924 0.931 . S
Co930 N927 2.135 . S
Co930 N933 2.121 . S
Co930 O938 2.055 . S
Co930 O941 2.039 . S
Co930 N944 2.140 . S
C931 O932 1.227 . S
C931 O941 1.265 . S
O932 C931 1.227 . S
N933 Co930 2.121 . S
N933 C935 1.375 . S
N933 C936 1.313 . S
C934 C935 1.338 . S
C934 N937 1.377 . S
C934 H954 0.930 . S
C935 N933 1.375 . S
C935 C934 1.338 . S
C935 H939 0.931 . S
C936 N933 1.313 . S
C936 N937 1.344 . S
C936 H940 0.930 . S
N937 C934 1.377 . S
N937 C936 1.344 . S
O938 Co930 2.055 . S
O938 C942 1.253 . S
H939 C935 0.931 . S
H940 C936 0.930 . S
O941 Co930 2.039 . S
O941 C931 1.265 . S
C942 O938 1.253 . S
C942 O943 1.227 . S
O943 C942 1.227 . S
N944 Co930 2.140 . S
N944 C947 1.346 . S
N944 C948 1.345 . S
C945 C946 1.387 . S
C945 C949 1.391 . S
C946 C945 1.387 . S
C946 C947 1.369 . S
C946 H955 0.929 . S
C947 N944 1.346 . S
C947 C946 1.369 . S
C947 H950 0.928 . S
C948 N944 1.345 . S
C948 C949 1.371 . S
C948 H951 0.931 . S
C949 C945 1.391 . S
C949 C948 1.371 . S
C949 H956 0.930 . S
H950 C947 0.928 . S
H951 C948 0.931 . S
H952 C928 0.930 . S
H953 C925 0.930 . S
H954 C934 0.930 . S
H955 C946 0.929 . S
H956 C949 0.930 . S
C957 C958 1.351 . S
C957 N960 1.368 . S
C957 H962 0.931 . S
C958 C957 1.351 . S
C958 N959 1.373 . S
C958 H986 0.930 . S
N959 C958 1.373 . S
N959 C961 1.340 . S
N960 C957 1.368 . S
N960 C961 1.321 . S
N960 Co963 2.135 . S
C961 N959 1.340 . S
C961 N960 1.321 . S
C961 H985 0.930 . S
H962 C957 0.931 . S
Co963 N960 2.135 . S
Co963 N966 2.121 . S
Co963 O971 2.055 . S
Co963 O974 2.039 . S
Co963 N977 2.140 . S
C964 O965 1.227 . S
C964 O974 1.265 . S
O965 C964 1.227 . S
N966 Co963 2.121 . S
N966 C968 1.375 . S
N966 C969 1.313 . S
C967 C968 1.338 . S
C967 N970 1.377 . S
C967 H987 0.930 . S
C968 N966 1.375 . S
C968 C967 1.338 . S
C968 H972 0.931 . S
C969 N966 1.313 . S
C969 N970 1.344 . S
C969 H973 0.930 . S
N970 C967 1.377 . S
N970 C969 1.344 . S
O971 Co963 2.055 . S
O971 C975 1.253 . S
H972 C968 0.931 . S
H973 C969 0.930 . S
O974 Co963 2.039 . S
O974 C964 1.265 . S
C975 O971 1.253 . S
C975 O976 1.227 . S
O976 C975 1.227 . S
N977 Co963 2.140 . S
N977 C980 1.346 . S
N977 C981 1.345 . S
C978 C979 1.387 . S
C978 C982 1.391 . S
C979 C978 1.387 . S
C979 C980 1.369 . S
C979 H988 0.929 . S
C980 N977 1.346 . S
C980 C979 1.369 . S
C980 H983 0.928 . S
C981 N977 1.345 . S
C981 C982 1.371 . S
C981 H984 0.931 . S
C982 C978 1.391 . S
C982 C981 1.371 . S
C982 H989 0.930 . S
H983 C980 0.928 . S
H984 C981 0.931 . S
H985 C961 0.930 . S
H986 C958 0.930 . S
H987 C967 0.930 . S
H988 C979 0.929 . S
H989 C982 0.930 . S
C990 C991 1.351 . S
C990 N993 1.368 . S
C990 H995 0.931 . S
C991 C990 1.351 . S
C991 N992 1.373 . S
C991 H1019 0.930 . S
N992 C991 1.373 . S
N992 C994 1.340 . S
N993 C990 1.368 . S
N993 C994 1.321 . S
N993 Co996 2.135 . S
C994 N992 1.340 . S
C994 N993 1.321 . S
C994 H1018 0.930 . S
H995 C990 0.931 . S
Co996 N993 2.135 . S
Co996 N999 2.121 . S
Co996 O1004 2.055 . S
Co996 O1007 2.039 . S
Co996 N1010 2.140 . S
C997 O998 1.227 . S
C997 O1007 1.265 . S
O998 C997 1.227 . S
N999 Co996 2.121 . S
N999 C1001 1.375 . S
N999 C1002 1.313 . S
C1000 C1001 1.338 . S
C1000 N1003 1.377 . S
C1000 H1020 0.930 . S
C1001 N999 1.375 . S
C1001 C1000 1.338 . S
C1001 H1005 0.931 . S
C1002 N999 1.313 . S
C1002 N1003 1.344 . S
C1002 H1006 0.930 . S
N1003 C1000 1.377 . S
N1003 C1002 1.344 . S
O1004 Co996 2.055 . S
O1004 C1008 1.253 . S
H1005 C1001 0.931 . S
H1006 C1002 0.930 . S
O1007 Co996 2.039 . S
O1007 C997 1.265 . S
C1008 O1004 1.253 . S
C1008 O1009 1.227 . S
O1009 C1008 1.227 . S
N1010 Co996 2.140 . S
N1010 C1013 1.346 . S
N1010 C1014 1.345 . S
C1011 C1012 1.387 . S
C1011 C1015 1.391 . S
C1012 C1011 1.387 . S
C1012 C1013 1.369 . S
C1012 H1021 0.929 . S
C1013 N1010 1.346 . S
C1013 C1012 1.369 . S
C1013 H1016 0.928 . S
C1014 N1010 1.345 . S
C1014 C1015 1.371 . S
C1014 H1017 0.931 . S
C1015 C1011 1.391 . S
C1015 C1014 1.371 . S
C1015 H1022 0.930 . S
H1016 C1013 0.928 . S
H1017 C1014 0.931 . S
H1018 C994 0.930 . S
H1019 C991 0.930 . S
H1020 C1000 0.930 . S
H1021 C1012 0.929 . S
H1022 C1015 0.930 . S
C1023 C1024 1.351 . S
C1023 N1026 1.368 . S
C1023 H1028 0.931 . S
C1024 C1023 1.351 . S
C1024 N1025 1.373 . S
C1024 H1052 0.930 . S
N1025 C1024 1.373 . S
N1025 C1027 1.340 . S
N1026 C1023 1.368 . S
N1026 C1027 1.321 . S
N1026 Co1029 2.135 . S
C1027 N1025 1.340 . S
C1027 N1026 1.321 . S
C1027 H1051 0.930 . S
H1028 C1023 0.931 . S
Co1029 N1026 2.135 . S
Co1029 N1032 2.121 . S
Co1029 O1037 2.055 . S
Co1029 O1040 2.039 . S
Co1029 N1043 2.140 . S
C1030 O1031 1.227 . S
C1030 O1040 1.265 . S
O1031 C1030 1.227 . S
N1032 Co1029 2.121 . S
N1032 C1034 1.375 . S
N1032 C1035 1.313 . S
C1033 C1034 1.338 . S
C1033 N1036 1.377 . S
C1033 H1053 0.930 . S
C1034 N1032 1.375 . S
C1034 C1033 1.338 . S
C1034 H1038 0.931 . S
C1035 N1032 1.313 . S
C1035 N1036 1.344 . S
C1035 H1039 0.930 . S
N1036 C1033 1.377 . S
N1036 C1035 1.344 . S
O1037 Co1029 2.055 . S
O1037 C1041 1.253 . S
H1038 C1034 0.931 . S
H1039 C1035 0.930 . S
O1040 Co1029 2.039 . S
O1040 C1030 1.265 . S
C1041 O1037 1.253 . S
C1041 O1042 1.227 . S
O1042 C1041 1.227 . S
N1043 Co1029 2.140 . S
N1043 C1046 1.346 . S
N1043 C1047 1.345 . S
C1044 C1045 1.387 . S
C1044 C1048 1.391 . S
C1045 C1044 1.387 . S
C1045 C1046 1.369 . S
C1045 H1054 0.929 . S
C1046 N1043 1.346 . S
C1046 C1045 1.369 . S
C1046 H1049 0.928 . S
C1047 N1043 1.345 . S
C1047 C1048 1.371 . S
C1047 H1050 0.931 . S
C1048 C1044 1.391 . S
C1048 C1047 1.371 . S
C1048 H1055 0.930 . S
H1049 C1046 0.928 . S
H1050 C1047 0.931 . S
H1051 C1027 0.930 . S
H1052 C1024 0.930 . S
H1053 C1033 0.930 . S
H1054 C1045 0.929 . S
H1055 C1048 0.930 . S
C1056 C1057 1.351 . S
C1056 N1059 1.368 . S
C1056 H1061 0.931 . S
C1057 C1056 1.351 . S
C1057 N1058 1.373 . S
C1057 H1085 0.930 . S
N1058 C1057 1.373 . S
N1058 C1060 1.340 . S
N1059 C1056 1.368 . S
N1059 C1060 1.321 . S
N1059 Co1062 2.135 . S
C1060 N1058 1.340 . S
C1060 N1059 1.321 . S
C1060 H1084 0.930 . S
H1061 C1056 0.931 . S
Co1062 N1059 2.135 . S
Co1062 N1065 2.121 . S
Co1062 O1070 2.055 . S
Co1062 O1073 2.039 . S
Co1062 N1076 2.140 . S
C1063 O1064 1.227 . S
C1063 O1073 1.265 . S
O1064 C1063 1.227 . S
N1065 Co1062 2.121 . S
N1065 C1067 1.375 . S
N1065 C1068 1.313 . S
C1066 C1067 1.338 . S
C1066 N1069 1.377 . S
C1066 H1086 0.930 . S
C1067 N1065 1.375 . S
C1067 C1066 1.338 . S
C1067 H1071 0.931 . S
C1068 N1065 1.313 . S
C1068 N1069 1.344 . S
C1068 H1072 0.930 . S
N1069 C1066 1.377 . S
N1069 C1068 1.344 . S
O1070 Co1062 2.055 . S
O1070 C1074 1.253 . S
H1071 C1067 0.931 . S
H1072 C1068 0.930 . S
O1073 Co1062 2.039 . S
O1073 C1063 1.265 . S
C1074 O1070 1.253 . S
C1074 O1075 1.227 . S
O1075 C1074 1.227 . S
N1076 Co1062 2.140 . S
N1076 C1079 1.346 . S
N1076 C1080 1.345 . S
C1077 C1078 1.387 . S
C1077 C1081 1.391 . S
C1078 C1077 1.387 . S
C1078 C1079 1.369 . S
C1078 H1087 0.929 . S
C1079 N1076 1.346 . S
C1079 C1078 1.369 . S
C1079 H1082 0.928 . S
C1080 N1076 1.345 . S
C1080 C1081 1.371 . S
C1080 H1083 0.931 . S
C1081 C1077 1.391 . S
C1081 C1080 1.371 . S
C1081 H1088 0.930 . S
H1082 C1079 0.928 . S
H1083 C1080 0.931 . S
H1084 C1060 0.930 . S
H1085 C1057 0.930 . S
H1086 C1066 0.930 . S
H1087 C1078 0.929 . S
H1088 C1081 0.930 . S
C1089 C1090 1.351 . S
C1089 N1092 1.368 . S
C1089 H1094 0.931 . S
C1090 C1089 1.351 . S
C1090 N1091 1.373 . S
C1090 H1118 0.930 . S
N1091 C1090 1.373 . S
N1091 C1093 1.340 . S
N1092 C1089 1.368 . S
N1092 C1093 1.321 . S
N1092 Co1095 2.135 . S
C1093 N1091 1.340 . S
C1093 N1092 1.321 . S
C1093 H1117 0.930 . S
H1094 C1089 0.931 . S
Co1095 N1092 2.135 . S
Co1095 N1098 2.121 . S
Co1095 O1103 2.055 . S
Co1095 O1106 2.039 . S
Co1095 N1109 2.140 . S
C1096 O1097 1.227 . S
C1096 O1106 1.265 . S
O1097 C1096 1.227 . S
N1098 Co1095 2.121 . S
N1098 C1100 1.375 . S
N1098 C1101 1.313 . S
C1099 C1100 1.338 . S
C1099 N1102 1.377 . S
C1099 H1119 0.930 . S
C1100 N1098 1.375 . S
C1100 C1099 1.338 . S
C1100 H1104 0.931 . S
C1101 N1098 1.313 . S
C1101 N1102 1.344 . S
C1101 H1105 0.930 . S
N1102 C1099 1.377 . S
N1102 C1101 1.344 . S
O1103 Co1095 2.055 . S
O1103 C1107 1.253 . S
H1104 C1100 0.931 . S
H1105 C1101 0.930 . S
O1106 Co1095 2.039 . S
O1106 C1096 1.265 . S
C1107 O1103 1.253 . S
C1107 O1108 1.227 . S
O1108 C1107 1.227 . S
N1109 Co1095 2.140 . S
N1109 C1112 1.346 . S
N1109 C1113 1.345 . S
C1110 C1111 1.387 . S
C1110 C1114 1.391 . S
C1111 C1110 1.387 . S
C1111 C1112 1.369 . S
C1111 H1120 0.929 . S
C1112 N1109 1.346 . S
C1112 C1111 1.369 . S
C1112 H1115 0.928 . S
C1113 N1109 1.345 . S
C1113 C1114 1.371 . S
C1113 H1116 0.931 . S
C1114 C1110 1.391 . S
C1114 C1113 1.371 . S
C1114 H1121 0.930 . S
H1115 C1112 0.928 . S
H1116 C1113 0.931 . S
H1117 C1093 0.930 . S
H1118 C1090 0.930 . S
H1119 C1099 0.930 . S
H1120 C1111 0.929 . S
H1121 C1114 0.930 . S
C1122 C1123 1.351 . S
C1122 N1125 1.368 . S
C1122 H1127 0.931 . S
C1123 C1122 1.351 . S
C1123 N1124 1.373 . S
C1123 H1151 0.930 . S
N1124 C1123 1.373 . S
N1124 C1126 1.340 . S
N1125 C1122 1.368 . S
N1125 C1126 1.321 . S
N1125 Co1128 2.135 . S
C1126 N1124 1.340 . S
C1126 N1125 1.321 . S
C1126 H1150 0.930 . S
H1127 C1122 0.931 . S
Co1128 N1125 2.135 . S
Co1128 N1131 2.121 . S
Co1128 O1136 2.055 . S
Co1128 O1139 2.039 . S
Co1128 N1142 2.140 . S
C1129 O1130 1.227 . S
C1129 O1139 1.265 . S
O1130 C1129 1.227 . S
N1131 Co1128 2.121 . S
N1131 C1133 1.375 . S
N1131 C1134 1.313 . S
C1132 C1133 1.338 . S
C1132 N1135 1.377 . S
C1132 H1152 0.930 . S
C1133 N1131 1.375 . S
C1133 C1132 1.338 . S
C1133 H1137 0.931 . S
C1134 N1131 1.313 . S
C1134 N1135 1.344 . S
C1134 H1138 0.930 . S
N1135 C1132 1.377 . S
N1135 C1134 1.344 . S
O1136 Co1128 2.055 . S
O1136 C1140 1.253 . S
H1137 C1133 0.931 . S
H1138 C1134 0.930 . S
O1139 Co1128 2.039 . S
O1139 C1129 1.265 . S
C1140 O1136 1.253 . S
C1140 O1141 1.227 . S
O1141 C1140 1.227 . S
N1142 Co1128 2.140 . S
N1142 C1145 1.346 . S
N1142 C1146 1.345 . S
C1143 C1144 1.387 . S
C1143 C1147 1.391 . S
C1144 C1143 1.387 . S
C1144 C1145 1.369 . S
C1144 H1153 0.929 . S
C1145 N1142 1.346 . S
C1145 C1144 1.369 . S
C1145 H1148 0.928 . S
C1146 N1142 1.345 . S
C1146 C1147 1.371 . S
C1146 H1149 0.931 . S
C1147 C1143 1.391 . S
C1147 C1146 1.371 . S
C1147 H1154 0.930 . S
H1148 C1145 0.928 . S
H1149 C1146 0.931 . S
H1150 C1126 0.930 . S
H1151 C1123 0.930 . S
H1152 C1132 0.930 . S
H1153 C1144 0.929 . S
H1154 C1147 0.930 . S
C1155 C1156 1.351 . S
C1155 N1158 1.368 . S
C1155 H1160 0.931 . S
C1156 C1155 1.351 . S
C1156 N1157 1.373 . S
C1156 H1184 0.930 . S
N1157 C1156 1.373 . S
N1157 C1159 1.340 . S
N1158 C1155 1.368 . S
N1158 C1159 1.321 . S
N1158 Co1161 2.135 . S
C1159 N1157 1.340 . S
C1159 N1158 1.321 . S
C1159 H1183 0.930 . S
H1160 C1155 0.931 . S
Co1161 N1158 2.135 . S
Co1161 N1164 2.121 . S
Co1161 O1169 2.055 . S
Co1161 O1172 2.039 . S
Co1161 N1175 2.140 . S
C1162 O1163 1.227 . S
C1162 O1172 1.265 . S
O1163 C1162 1.227 . S
N1164 Co1161 2.121 . S
N1164 C1166 1.375 . S
N1164 C1167 1.313 . S
C1165 C1166 1.338 . S
C1165 N1168 1.377 . S
C1165 H1185 0.930 . S
C1166 N1164 1.375 . S
C1166 C1165 1.338 . S
C1166 H1170 0.931 . S
C1167 N1164 1.313 . S
C1167 N1168 1.344 . S
C1167 H1171 0.930 . S
N1168 C1165 1.377 . S
N1168 C1167 1.344 . S
O1169 Co1161 2.055 . S
O1169 C1173 1.253 . S
H1170 C1166 0.931 . S
H1171 C1167 0.930 . S
O1172 Co1161 2.039 . S
O1172 C1162 1.265 . S
C1173 O1169 1.253 . S
C1173 O1174 1.227 . S
O1174 C1173 1.227 . S
N1175 Co1161 2.140 . S
N1175 C1178 1.346 . S
N1175 C1179 1.345 . S
C1176 C1177 1.387 . S
C1176 C1180 1.391 . S
C1177 C1176 1.387 . S
C1177 C1178 1.369 . S
C1177 H1186 0.929 . S
C1178 N1175 1.346 . S
C1178 C1177 1.369 . S
C1178 H1181 0.928 . S
C1179 N1175 1.345 . S
C1179 C1180 1.371 . S
C1179 H1182 0.931 . S
C1180 C1176 1.391 . S
C1180 C1179 1.371 . S
C1180 H1187 0.930 . S
H1181 C1178 0.928 . S
H1182 C1179 0.931 . S
H1183 C1159 0.930 . S
H1184 C1156 0.930 . S
H1185 C1165 0.930 . S
H1186 C1177 0.929 . S
H1187 C1180 0.930 . S
C1188 C1189 1.351 . S
C1188 N1191 1.368 . S
C1188 H1193 0.931 . S
C1189 C1188 1.351 . S
C1189 N1190 1.373 . S
C1189 H1217 0.930 . S
N1190 C1189 1.373 . S
N1190 C1192 1.340 . S
N1191 C1188 1.368 . S
N1191 C1192 1.321 . S
N1191 Co1194 2.135 . S
C1192 N1190 1.340 . S
C1192 N1191 1.321 . S
C1192 H1216 0.930 . S
H1193 C1188 0.931 . S
Co1194 N1191 2.135 . S
Co1194 N1197 2.121 . S
Co1194 O1202 2.055 . S
Co1194 O1205 2.039 . S
Co1194 N1208 2.140 . S
C1195 O1196 1.227 . S
C1195 O1205 1.265 . S
O1196 C1195 1.227 . S
N1197 Co1194 2.121 . S
N1197 C1199 1.375 . S
N1197 C1200 1.313 . S
C1198 C1199 1.338 . S
C1198 N1201 1.377 . S
C1198 H1218 0.930 . S
C1199 N1197 1.375 . S
C1199 C1198 1.338 . S
C1199 H1203 0.931 . S
C1200 N1197 1.313 . S
C1200 N1201 1.344 . S
C1200 H1204 0.930 . S
N1201 C1198 1.377 . S
N1201 C1200 1.344 . S
O1202 Co1194 2.055 . S
O1202 C1206 1.253 . S
H1203 C1199 0.931 . S
H1204 C1200 0.930 . S
O1205 Co1194 2.039 . S
O1205 C1195 1.265 . S
C1206 O1202 1.253 . S
C1206 O1207 1.227 . S
O1207 C1206 1.227 . S
N1208 Co1194 2.140 . S
N1208 C1211 1.346 . S
N1208 C1212 1.345 . S
C1209 C1210 1.387 . S
C1209 C1213 1.391 . S
C1210 C1209 1.387 . S
C1210 C1211 1.369 . S
C1210 H1219 0.929 . S
C1211 N1208 1.346 . S
C1211 C1210 1.369 . S
C1211 H1214 0.928 . S
C1212 N1208 1.345 . S
C1212 C1213 1.371 . S
C1212 H1215 0.931 . S
C1213 C1209 1.391 . S
C1213 C1212 1.371 . S
C1213 H1220 0.930 . S
H1214 C1211 0.928 . S
H1215 C1212 0.931 . S
H1216 C1192 0.930 . S
H1217 C1189 0.930 . S
H1218 C1198 0.930 . S
H1219 C1210 0.929 . S
H1220 C1213 0.930 . S
C1221 C1222 1.351 . S
C1221 N1224 1.368 . S
C1221 H1226 0.931 . S
C1222 C1221 1.351 . S
C1222 N1223 1.373 . S
C1222 H1250 0.930 . S
N1223 C1222 1.373 . S
N1223 C1225 1.340 . S
N1224 C1221 1.368 . S
N1224 C1225 1.321 . S
N1224 Co1227 2.135 . S
C1225 N1223 1.340 . S
C1225 N1224 1.321 . S
C1225 H1249 0.930 . S
H1226 C1221 0.931 . S
Co1227 N1224 2.135 . S
Co1227 N1230 2.121 . S
Co1227 O1235 2.055 . S
Co1227 O1238 2.039 . S
Co1227 N1241 2.140 . S
C1228 O1229 1.227 . S
C1228 O1238 1.265 . S
O1229 C1228 1.227 . S
N1230 Co1227 2.121 . S
N1230 C1232 1.375 . S
N1230 C1233 1.313 . S
C1231 C1232 1.338 . S
C1231 N1234 1.377 . S
C1231 H1251 0.930 . S
C1232 N1230 1.375 . S
C1232 C1231 1.338 . S
C1232 H1236 0.931 . S
C1233 N1230 1.313 . S
C1233 N1234 1.344 . S
C1233 H1237 0.930 . S
N1234 C1231 1.377 . S
N1234 C1233 1.344 . S
O1235 Co1227 2.055 . S
O1235 C1239 1.253 . S
H1236 C1232 0.931 . S
H1237 C1233 0.930 . S
O1238 Co1227 2.039 . S
O1238 C1228 1.265 . S
C1239 O1235 1.253 . S
C1239 O1240 1.227 . S
O1240 C1239 1.227 . S
N1241 Co1227 2.140 . S
N1241 C1244 1.346 . S
N1241 C1245 1.345 . S
C1242 C1243 1.387 . S
C1242 C1246 1.391 . S
C1243 C1242 1.387 . S
C1243 C1244 1.369 . S
C1243 H1252 0.929 . S
C1244 N1241 1.346 . S
C1244 C1243 1.369 . S
C1244 H1247 0.928 . S
C1245 N1241 1.345 . S
C1245 C1246 1.371 . S
C1245 H1248 0.931 . S
C1246 C1242 1.391 . S
C1246 C1245 1.371 . S
C1246 H1253 0.930 . S
H1247 C1244 0.928 . S
H1248 C1245 0.931 . S
H1249 C1225 0.930 . S
H1250 C1222 0.930 . S
H1251 C1231 0.930 . S
H1252 C1243 0.929 . S
H1253 C1246 0.930 . S
C1254 C1255 1.351 . S
C1254 N1257 1.368 . S
C1254 H1259 0.931 . S
C1255 C1254 1.351 . S
C1255 N1256 1.373 . S
C1255 H1283 0.930 . S
N1256 C1255 1.373 . S
N1256 C1258 1.340 . S
N1257 C1254 1.368 . S
N1257 C1258 1.321 . S
N1257 Co1260 2.135 . S
C1258 N1256 1.340 . S
C1258 N1257 1.321 . S
C1258 H1282 0.930 . S
H1259 C1254 0.931 . S
Co1260 N1257 2.135 . S
Co1260 N1263 2.121 . S
Co1260 O1268 2.055 . S
Co1260 O1271 2.039 . S
Co1260 N1274 2.140 . S
C1261 O1262 1.227 . S
C1261 O1271 1.265 . S
O1262 C1261 1.227 . S
N1263 Co1260 2.121 . S
N1263 C1265 1.375 . S
N1263 C1266 1.313 . S
C1264 C1265 1.338 . S
C1264 N1267 1.377 . S
C1264 H1284 0.930 . S
C1265 N1263 1.375 . S
C1265 C1264 1.338 . S
C1265 H1269 0.931 . S
C1266 N1263 1.313 . S
C1266 N1267 1.344 . S
C1266 H1270 0.930 . S
N1267 C1264 1.377 . S
N1267 C1266 1.344 . S
O1268 Co1260 2.055 . S
O1268 C1272 1.253 . S
H1269 C1265 0.931 . S
H1270 C1266 0.930 . S
O1271 Co1260 2.039 . S
O1271 C1261 1.265 . S
C1272 O1268 1.253 . S
C1272 O1273 1.227 . S
O1273 C1272 1.227 . S
N1274 Co1260 2.140 . S
N1274 C1277 1.346 . S
N1274 C1278 1.345 . S
C1275 C1276 1.387 . S
C1275 C1279 1.391 . S
C1276 C1275 1.387 . S
C1276 C1277 1.369 . S
C1276 H1285 0.929 . S
C1277 N1274 1.346 . S
C1277 C1276 1.369 . S
C1277 H1280 0.928 . S
C1278 N1274 1.345 . S
C1278 C1279 1.371 . S
C1278 H1281 0.931 . S
C1279 C1275 1.391 . S
C1279 C1278 1.371 . S
C1279 H1286 0.930 . S
H1280 C1277 0.928 . S
H1281 C1278 0.931 . S
H1282 C1258 0.930 . S
H1283 C1255 0.930 . S
H1284 C1264 0.930 . S
H1285 C1276 0.929 . S
H1286 C1279 0.930 . S
C1287 C1288 1.351 . S
C1287 N1290 1.368 . S
C1287 H1292 0.931 . S
C1288 C1287 1.351 . S
C1288 N1289 1.373 . S
C1288 H1316 0.930 . S
N1289 C1288 1.373 . S
N1289 C1291 1.340 . S
N1290 C1287 1.368 . S
N1290 C1291 1.321 . S
N1290 Co1293 2.135 . S
C1291 N1289 1.340 . S
C1291 N1290 1.321 . S
C1291 H1315 0.930 . S
H1292 C1287 0.931 . S
Co1293 N1290 2.135 . S
Co1293 N1296 2.121 . S
Co1293 O1301 2.055 . S
Co1293 O1304 2.039 . S
Co1293 N1307 2.140 . S
C1294 O1295 1.227 . S
C1294 O1304 1.265 . S
O1295 C1294 1.227 . S
N1296 Co1293 2.121 . S
N1296 C1298 1.375 . S
N1296 C1299 1.313 . S
C1297 C1298 1.338 . S
C1297 N1300 1.377 . S
C1297 H1317 0.930 . S
C1298 N1296 1.375 . S
C1298 C1297 1.338 . S
C1298 H1302 0.931 . S
C1299 N1296 1.313 . S
C1299 N1300 1.344 . S
C1299 H1303 0.930 . S
N1300 C1297 1.377 . S
N1300 C1299 1.344 . S
O1301 Co1293 2.055 . S
O1301 C1305 1.253 . S
H1302 C1298 0.931 . S
H1303 C1299 0.930 . S
O1304 Co1293 2.039 . S
O1304 C1294 1.265 . S
C1305 O1301 1.253 . S
C1305 O1306 1.227 . S
O1306 C1305 1.227 . S
N1307 Co1293 2.140 . S
N1307 C1310 1.346 . S
N1307 C1311 1.345 . S
C1308 C1309 1.387 . S
C1308 C1312 1.391 . S
C1309 C1308 1.387 . S
C1309 C1310 1.369 . S
C1309 H1318 0.929 . S
C1310 N1307 1.346 . S
C1310 C1309 1.369 . S
C1310 H1313 0.928 . S
C1311 N1307 1.345 . S
C1311 C1312 1.371 . S
C1311 H1314 0.931 . S
C1312 C1308 1.391 . S
C1312 C1311 1.371 . S
C1312 H1319 0.930 . S
H1313 C1310 0.928 . S
H1314 C1311 0.931 . S
H1315 C1291 0.930 . S
H1316 C1288 0.930 . S
H1317 C1297 0.930 . S
H1318 C1309 0.929 . S
H1319 C1312 0.930 . S
C1320 C1321 1.351 . S
C1320 N1323 1.368 . S
C1320 H1325 0.931 . S
C1321 C1320 1.351 . S
C1321 N1322 1.373 . S
C1321 H1349 0.930 . S
N1322 C1321 1.373 . S
N1322 C1324 1.340 . S
N1323 C1320 1.368 . S
N1323 C1324 1.321 . S
N1323 Co1326 2.135 . S
C1324 N1322 1.340 . S
C1324 N1323 1.321 . S
C1324 H1348 0.930 . S
H1325 C1320 0.931 . S
Co1326 N1323 2.135 . S
Co1326 N1329 2.121 . S
Co1326 O1334 2.055 . S
Co1326 O1337 2.039 . S
Co1326 N1340 2.140 . S
C1327 O1328 1.227 . S
C1327 O1337 1.265 . S
O1328 C1327 1.227 . S
N1329 Co1326 2.121 . S
N1329 C1331 1.375 . S
N1329 C1332 1.313 . S
C1330 C1331 1.338 . S
C1330 N1333 1.377 . S
C1330 H1350 0.930 . S
C1331 N1329 1.375 . S
C1331 C1330 1.338 . S
C1331 H1335 0.931 . S
C1332 N1329 1.313 . S
C1332 N1333 1.344 . S
C1332 H1336 0.930 . S
N1333 C1330 1.377 . S
N1333 C1332 1.344 . S
O1334 Co1326 2.055 . S
O1334 C1338 1.253 . S
H1335 C1331 0.931 . S
H1336 C1332 0.930 . S
O1337 Co1326 2.039 . S
O1337 C1327 1.265 . S
C1338 O1334 1.253 . S
C1338 O1339 1.227 . S
O1339 C1338 1.227 . S
N1340 Co1326 2.140 . S
N1340 C1343 1.346 . S
N1340 C1344 1.345 . S
C1341 C1342 1.387 . S
C1341 C1345 1.391 . S
C1342 C1341 1.387 . S
C1342 C1343 1.369 . S
C1342 H1351 0.929 . S
C1343 N1340 1.346 . S
C1343 C1342 1.369 . S
C1343 H1346 0.928 . S
C1344 N1340 1.345 . S
C1344 C1345 1.371 . S
C1344 H1347 0.931 . S
C1345 C1341 1.391 . S
C1345 C1344 1.371 . S
C1345 H1352 0.930 . S
H1346 C1343 0.928 . S
H1347 C1344 0.931 . S
H1348 C1324 0.930 . S
H1349 C1321 0.930 . S
H1350 C1330 0.930 . S
H1351 C1342 0.929 . S
H1352 C1345 0.930 . S
C1353 C1354 1.351 . S
C1353 N1356 1.368 . S
C1353 H1358 0.931 . S
C1354 C1353 1.351 . S
C1354 N1355 1.373 . S
C1354 H1382 0.930 . S
N1355 C1354 1.373 . S
N1355 C1357 1.340 . S
N1356 C1353 1.368 . S
N1356 C1357 1.321 . S
N1356 Co1359 2.135 . S
C1357 N1355 1.340 . S
C1357 N1356 1.321 . S
C1357 H1381 0.930 . S
H1358 C1353 0.931 . S
Co1359 N1356 2.135 . S
Co1359 N1362 2.121 . S
Co1359 O1367 2.055 . S
Co1359 O1370 2.039 . S
Co1359 N1373 2.140 . S
C1360 O1361 1.227 . S
C1360 O1370 1.265 . S
O1361 C1360 1.227 . S
N1362 Co1359 2.121 . S
N1362 C1364 1.375 . S
N1362 C1365 1.313 . S
C1363 C1364 1.338 . S
C1363 N1366 1.377 . S
C1363 H1383 0.930 . S
C1364 N1362 1.375 . S
C1364 C1363 1.338 . S
C1364 H1368 0.931 . S
C1365 N1362 1.313 . S
C1365 N1366 1.344 . S
C1365 H1369 0.930 . S
N1366 C1363 1.377 . S
N1366 C1365 1.344 . S
O1367 Co1359 2.055 . S
O1367 C1371 1.253 . S
H1368 C1364 0.931 . S
H1369 C1365 0.930 . S
O1370 Co1359 2.039 . S
O1370 C1360 1.265 . S
C1371 O1367 1.253 . S
C1371 O1372 1.227 . S
O1372 C1371 1.227 . S
N1373 Co1359 2.140 . S
N1373 C1376 1.346 . S
N1373 C1377 1.345 . S
C1374 C1375 1.387 . S
C1374 C1378 1.391 . S
C1375 C1374 1.387 . S
C1375 C1376 1.369 . S
C1375 H1384 0.929 . S
C1376 N1373 1.346 . S
C1376 C1375 1.369 . S
C1376 H1379 0.928 . S
C1377 N1373 1.345 . S
C1377 C1378 1.371 . S
C1377 H1380 0.931 . S
C1378 C1374 1.391 . S
C1378 C1377 1.371 . S
C1378 H1385 0.930 . S
H1379 C1376 0.928 . S
H1380 C1377 0.931 . S
H1381 C1357 0.930 . S
H1382 C1354 0.930 . S
H1383 C1363 0.930 . S
H1384 C1375 0.929 . S
H1385 C1378 0.930 . S
C1386 C1387 1.351 . S
C1386 N1389 1.368 . S
C1386 H1391 0.931 . S
C1387 C1386 1.351 . S
C1387 N1388 1.373 . S
C1387 H1415 0.930 . S
N1388 C1387 1.373 . S
N1388 C1390 1.340 . S
N1389 C1386 1.368 . S
N1389 C1390 1.321 . S
N1389 Co1392 2.135 . S
C1390 N1388 1.340 . S
C1390 N1389 1.321 . S
C1390 H1414 0.930 . S
H1391 C1386 0.931 . S
Co1392 N1389 2.135 . S
Co1392 N1395 2.121 . S
Co1392 O1400 2.055 . S
Co1392 O1403 2.039 . S
Co1392 N1406 2.140 . S
C1393 O1394 1.227 . S
C1393 O1403 1.265 . S
O1394 C1393 1.227 . S
N1395 Co1392 2.121 . S
N1395 C1397 1.375 . S
N1395 C1398 1.313 . S
C1396 C1397 1.338 . S
C1396 N1399 1.377 . S
C1396 H1416 0.930 . S
C1397 N1395 1.375 . S
C1397 C1396 1.338 . S
C1397 H1401 0.931 . S
C1398 N1395 1.313 . S
C1398 N1399 1.344 . S
C1398 H1402 0.930 . S
N1399 C1396 1.377 . S
N1399 C1398 1.344 . S
O1400 Co1392 2.055 . S
O1400 C1404 1.253 . S
H1401 C1397 0.931 . S
H1402 C1398 0.930 . S
O1403 Co1392 2.039 . S
O1403 C1393 1.265 . S
C1404 O1400 1.253 . S
C1404 O1405 1.227 . S
O1405 C1404 1.227 . S
N1406 Co1392 2.140 . S
N1406 C1409 1.346 . S
N1406 C1410 1.345 . S
C1407 C1408 1.387 . S
C1407 C1411 1.391 . S
C1408 C1407 1.387 . S
C1408 C1409 1.369 . S
C1408 H1417 0.929 . S
C1409 N1406 1.346 . S
C1409 C1408 1.369 . S
C1409 H1412 0.928 . S
C1410 N1406 1.345 . S
C1410 C1411 1.371 . S
C1410 H1413 0.931 . S
C1411 C1407 1.391 . S
C1411 C1410 1.371 . S
C1411 H1418 0.930 . S
H1412 C1409 0.928 . S
H1413 C1410 0.931 . S
H1414 C1390 0.930 . S
H1415 C1387 0.930 . S
H1416 C1396 0.930 . S
H1417 C1408 0.929 . S
H1418 C1411 0.930 . S
C1419 C1420 1.351 . S
C1419 N1422 1.368 . S
C1419 H1424 0.931 . S
C1420 C1419 1.351 . S
C1420 N1421 1.373 . S
C1420 H1448 0.930 . S
N1421 C1420 1.373 . S
N1421 C1423 1.340 . S
N1422 C1419 1.368 . S
N1422 C1423 1.321 . S
N1422 Co1425 2.135 . S
C1423 N1421 1.340 . S
C1423 N1422 1.321 . S
C1423 H1447 0.930 . S
H1424 C1419 0.931 . S
Co1425 N1422 2.135 . S
Co1425 N1428 2.121 . S
Co1425 O1433 2.055 . S
Co1425 O1436 2.039 . S
Co1425 N1439 2.140 . S
C1426 O1427 1.227 . S
C1426 O1436 1.265 . S
O1427 C1426 1.227 . S
N1428 Co1425 2.121 . S
N1428 C1430 1.375 . S
N1428 C1431 1.313 . S
C1429 C1430 1.338 . S
C1429 N1432 1.377 . S
C1429 H1449 0.930 . S
C1430 N1428 1.375 . S
C1430 C1429 1.338 . S
C1430 H1434 0.931 . S
C1431 N1428 1.313 . S
C1431 N1432 1.344 . S
C1431 H1435 0.930 . S
N1432 C1429 1.377 . S
N1432 C1431 1.344 . S
O1433 Co1425 2.055 . S
O1433 C1437 1.253 . S
H1434 C1430 0.931 . S
H1435 C1431 0.930 . S
O1436 Co1425 2.039 . S
O1436 C1426 1.265 . S
C1437 O1433 1.253 . S
C1437 O1438 1.227 . S
O1438 C1437 1.227 . S
N1439 Co1425 2.140 . S
N1439 C1442 1.346 . S
N1439 C1443 1.345 . S
C1440 C1441 1.387 . S
C1440 C1444 1.391 . S
C1441 C1440 1.387 . S
C1441 C1442 1.369 . S
C1441 H1450 0.929 . S
C1442 N1439 1.346 . S
C1442 C1441 1.369 . S
C1442 H1445 0.928 . S
C1443 N1439 1.345 . S
C1443 C1444 1.371 . S
C1443 H1446 0.931 . S
C1444 C1440 1.391 . S
C1444 C1443 1.371 . S
C1444 H1451 0.930 . S
H1445 C1442 0.928 . S
H1446 C1443 0.931 . S
H1447 C1423 0.930 . S
H1448 C1420 0.930 . S
H1449 C1429 0.930 . S
H1450 C1441 0.929 . S
H1451 C1444 0.930 . S
C1452 C1453 1.351 . S
C1452 N1455 1.368 . S
C1452 H1457 0.931 . S
C1453 C1452 1.351 . S
C1453 N1454 1.373 . S
C1453 H1481 0.930 . S
N1454 C1453 1.373 . S
N1454 C1456 1.340 . S
N1455 C1452 1.368 . S
N1455 C1456 1.321 . S
N1455 Co1458 2.135 . S
C1456 N1454 1.340 . S
C1456 N1455 1.321 . S
C1456 H1480 0.930 . S
H1457 C1452 0.931 . S
Co1458 N1455 2.135 . S
Co1458 N1461 2.121 . S
Co1458 O1466 2.055 . S
Co1458 O1469 2.039 . S
Co1458 N1472 2.140 . S
C1459 O1460 1.227 . S
C1459 O1469 1.265 . S
O1460 C1459 1.227 . S
N1461 Co1458 2.121 . S
N1461 C1463 1.375 . S
N1461 C1464 1.313 . S
C1462 C1463 1.338 . S
C1462 N1465 1.377 . S
C1462 H1482 0.930 . S
C1463 N1461 1.375 . S
C1463 C1462 1.338 . S
C1463 H1467 0.931 . S
C1464 N1461 1.313 . S
C1464 N1465 1.344 . S
C1464 H1468 0.930 . S
N1465 C1462 1.377 . S
N1465 C1464 1.344 . S
O1466 Co1458 2.055 . S
O1466 C1470 1.253 . S
H1467 C1463 0.931 . S
H1468 C1464 0.930 . S
O1469 Co1458 2.039 . S
O1469 C1459 1.265 . S
C1470 O1466 1.253 . S
C1470 O1471 1.227 . S
O1471 C1470 1.227 . S
N1472 Co1458 2.140 . S
N1472 C1475 1.346 . S
N1472 C1476 1.345 . S
C1473 C1474 1.387 . S
C1473 C1477 1.391 . S
C1474 C1473 1.387 . S
C1474 C1475 1.369 . S
C1474 H1483 0.929 . S
C1475 N1472 1.346 . S
C1475 C1474 1.369 . S
C1475 H1478 0.928 . S
C1476 N1472 1.345 . S
C1476 C1477 1.371 . S
C1476 H1479 0.931 . S
C1477 C1473 1.391 . S
C1477 C1476 1.371 . S
C1477 H1484 0.930 . S
H1478 C1475 0.928 . S
H1479 C1476 0.931 . S
H1480 C1456 0.930 . S
H1481 C1453 0.930 . S
H1482 C1462 0.930 . S
H1483 C1474 0.929 . S
H1484 C1477 0.930 . S
C1485 C1486 1.351 . S
C1485 N1488 1.368 . S
C1485 H1490 0.931 . S
C1486 C1485 1.351 . S
C1486 N1487 1.373 . S
C1486 H1514 0.930 . S
N1487 C1486 1.373 . S
N1487 C1489 1.340 . S
N1488 C1485 1.368 . S
N1488 C1489 1.321 . S
N1488 Co1491 2.135 . S
C1489 N1487 1.340 . S
C1489 N1488 1.321 . S
C1489 H1513 0.930 . S
H1490 C1485 0.931 . S
Co1491 N1488 2.135 . S
Co1491 N1494 2.121 . S
Co1491 O1499 2.055 . S
Co1491 O1502 2.039 . S
Co1491 N1505 2.140 . S
C1492 O1493 1.227 . S
C1492 O1502 1.265 . S
O1493 C1492 1.227 . S
N1494 Co1491 2.121 . S
N1494 C1496 1.375 . S
N1494 C1497 1.313 . S
C1495 C1496 1.338 . S
C1495 N1498 1.377 . S
C1495 H1515 0.930 . S
C1496 N1494 1.375 . S
C1496 C1495 1.338 . S
C1496 H1500 0.931 . S
C1497 N1494 1.313 . S
C1497 N1498 1.344 . S
C1497 H1501 0.930 . S
N1498 C1495 1.377 . S
N1498 C1497 1.344 . S
O1499 Co1491 2.055 . S
O1499 C1503 1.253 . S
H1500 C1496 0.931 . S
H1501 C1497 0.930 . S
O1502 Co1491 2.039 . S
O1502 C1492 1.265 . S
C1503 O1499 1.253 . S
C1503 O1504 1.227 . S
O1504 C1503 1.227 . S
N1505 Co1491 2.140 . S
N1505 C1508 1.346 . S
N1505 C1509 1.345 . S
C1506 C1507 1.387 . S
C1506 C1510 1.391 . S
C1507 C1506 1.387 . S
C1507 C1508 1.369 . S
C1507 H1516 0.929 . S
C1508 N1505 1.346 . S
C1508 C1507 1.369 . S
C1508 H1511 0.928 . S
C1509 N1505 1.345 . S
C1509 C1510 1.371 . S
C1509 H1512 0.931 . S
C1510 C1506 1.391 . S
C1510 C1509 1.371 . S
C1510 H1517 0.930 . S
H1511 C1508 0.928 . S
H1512 C1509 0.931 . S
H1513 C1489 0.930 . S
H1514 C1486 0.930 . S
H1515 C1495 0.930 . S
H1516 C1507 0.929 . S
H1517 C1510 0.930 . S
C1518 C1519 1.351 . S
C1518 N1521 1.368 . S
C1518 H1523 0.931 . S
C1519 C1518 1.351 . S
C1519 N1520 1.373 . S
C1519 H1547 0.930 . S
N1520 C1519 1.373 . S
N1520 C1522 1.340 . S
N1521 C1518 1.368 . S
N1521 C1522 1.321 . S
N1521 Co1524 2.135 . S
C1522 N1520 1.340 . S
C1522 N1521 1.321 . S
C1522 H1546 0.930 . S
H1523 C1518 0.931 . S
Co1524 N1521 2.135 . S
Co1524 N1527 2.121 . S
Co1524 O1532 2.055 . S
Co1524 O1535 2.039 . S
Co1524 N1538 2.140 . S
C1525 O1526 1.227 . S
C1525 O1535 1.265 . S
O1526 C1525 1.227 . S
N1527 Co1524 2.121 . S
N1527 C1529 1.375 . S
N1527 C1530 1.313 . S
C1528 C1529 1.338 . S
C1528 N1531 1.377 . S
C1528 H1548 0.930 . S
C1529 N1527 1.375 . S
C1529 C1528 1.338 . S
C1529 H1533 0.931 . S
C1530 N1527 1.313 . S
C1530 N1531 1.344 . S
C1530 H1534 0.930 . S
N1531 C1528 1.377 . S
N1531 C1530 1.344 . S
O1532 Co1524 2.055 . S
O1532 C1536 1.253 . S
H1533 C1529 0.931 . S
H1534 C1530 0.930 . S
O1535 Co1524 2.039 . S
O1535 C1525 1.265 . S
C1536 O1532 1.253 . S
C1536 O1537 1.227 . S
O1537 C1536 1.227 . S
N1538 Co1524 2.140 . S
N1538 C1541 1.346 . S
N1538 C1542 1.345 . S
C1539 C1540 1.387 . S
C1539 C1543 1.391 . S
C1540 C1539 1.387 . S
C1540 C1541 1.369 . S
C1540 H1549 0.929 . S
C1541 N1538 1.346 . S
C1541 C1540 1.369 . S
C1541 H1544 0.928 . S
C1542 N1538 1.345 . S
C1542 C1543 1.371 . S
C1542 H1545 0.931 . S
C1543 C1539 1.391 . S
C1543 C1542 1.371 . S
C1543 H1550 0.930 . S
H1544 C1541 0.928 . S
H1545 C1542 0.931 . S
H1546 C1522 0.930 . S
H1547 C1519 0.930 . S
H1548 C1528 0.930 . S
H1549 C1540 0.929 . S
H1550 C1543 0.930 . S
C1551 C1552 1.351 . S
C1551 N1554 1.368 . S
C1551 H1556 0.931 . S
C1552 C1551 1.351 . S
C1552 N1553 1.373 . S
C1552 H1580 0.930 . S
N1553 C1552 1.373 . S
N1553 C1555 1.340 . S
N1554 C1551 1.368 . S
N1554 C1555 1.321 . S
N1554 Co1557 2.135 . S
C1555 N1553 1.340 . S
C1555 N1554 1.321 . S
C1555 H1579 0.930 . S
H1556 C1551 0.931 . S
Co1557 N1554 2.135 . S
Co1557 N1560 2.121 . S
Co1557 O1565 2.055 . S
Co1557 O1568 2.039 . S
Co1557 N1571 2.140 . S
C1558 O1559 1.227 . S
C1558 O1568 1.265 . S
O1559 C1558 1.227 . S
N1560 Co1557 2.121 . S
N1560 C1562 1.375 . S
N1560 C1563 1.313 . S
C1561 C1562 1.338 . S
C1561 N1564 1.377 . S
C1561 H1581 0.930 . S
C1562 N1560 1.375 . S
C1562 C1561 1.338 . S
C1562 H1566 0.931 . S
C1563 N1560 1.313 . S
C1563 N1564 1.344 . S
C1563 H1567 0.930 . S
N1564 C1561 1.377 . S
N1564 C1563 1.344 . S
O1565 Co1557 2.055 . S
O1565 C1569 1.253 . S
H1566 C1562 0.931 . S
H1567 C1563 0.930 . S
O1568 Co1557 2.039 . S
O1568 C1558 1.265 . S
C1569 O1565 1.253 . S
C1569 O1570 1.227 . S
O1570 C1569 1.227 . S
N1571 Co1557 2.140 . S
N1571 C1574 1.346 . S
N1571 C1575 1.345 . S
C1572 C1573 1.387 . S
C1572 C1576 1.391 . S
C1573 C1572 1.387 . S
C1573 C1574 1.369 . S
C1573 H1582 0.929 . S
C1574 N1571 1.346 . S
C1574 C1573 1.369 . S
C1574 H1577 0.928 . S
C1575 N1571 1.345 . S
C1575 C1576 1.371 . S
C1575 H1578 0.931 . S
C1576 C1572 1.391 . S
C1576 C1575 1.371 . S
C1576 H1583 0.930 . S
H1577 C1574 0.928 . S
H1578 C1575 0.931 . S
H1579 C1555 0.930 . S
H1580 C1552 0.930 . S
H1581 C1561 0.930 . S
H1582 C1573 0.929 . S
H1583 C1576 0.930 . S
C1584 C1585 1.349 . S
C1584 C1586 1.327 . S
C1584 H1609 0.950 . S
C1585 C1584 1.349 . S
C1585 C1601 1.349 . S
C1586 C1584 1.327 . S
C1586 C1605 1.429 . S
C1586 H1610 0.950 . S
C1587 C1604 1.574 . S
C1587 C1606 1.368 . S
C1587 H1611 0.949 . S
H1588 C1592 0.949 . S
C1589 C1590 1.349 . S
C1589 C1591 1.327 . S
C1589 H1612 0.950 . S
C1590 C1589 1.349 . S
C1590 C1602 1.349 . S
C1591 C1589 1.327 . S
C1591 C1607 1.429 . S
C1591 H1613 0.950 . S
C1592 H1588 0.949 . S
C1592 C1600 1.574 . S
C1592 C1608 1.368 . S
H1593 C1601 0.950 . S
H1594 C1599 0.950 . S
H1595 C1600 0.949 . S
H1596 C1602 0.950 . S
H1597 C1603 0.950 . S
H1598 C1604 0.949 . S
C1599 H1594 0.950 . S
C1599 C1601 1.327 . S
C1599 C1605 1.429 . S
C1600 C1592 1.574 . S
C1600 H1595 0.949 . S
C1600 C1606 1.368 . S
C1601 C1585 1.349 . S
C1601 H1593 0.950 . S
C1601 C1599 1.327 . S
C1602 C1590 1.349 . S
C1602 H1596 0.950 . S
C1602 C1603 1.327 . S
C1603 H1597 0.950 . S
C1603 C1602 1.327 . S
C1603 C1607 1.429 . S
C1604 C1587 1.574 . S
C1604 H1598 0.949 . S
C1604 C1608 1.368 . S
C1605 C1586 1.429 . S
C1605 C1599 1.429 . S
C1605 C1606 1.523 . S
C1606 C1587 1.368 . S
C1606 C1600 1.368 . S
C1606 C1605 1.523 . S
C1607 C1591 1.429 . S
C1607 C1603 1.429 . S
C1607 C1608 1.523 . S
C1608 C1592 1.368 . S
C1608 C1604 1.368 . S
C1608 C1607 1.523 . S
H1609 C1584 0.950 . S
H1610 C1586 0.950 . S
H1611 C1587 0.949 . S
H1612 C1589 0.950 . S
H1613 C1591 0.950 . S
C1614 C1615 1.349 . S
C1614 C1616 1.327 . S
C1614 H1639 0.950 . S
C1615 C1614 1.349 . S
C1615 C1631 1.349 . S
C1616 C1614 1.327 . S
C1616 C1635 1.429 . S
C1616 H1640 0.950 . S
C1617 C1634 1.574 . S
C1617 C1636 1.368 . S
C1617 H1641 0.949 . S
H1618 C1622 0.949 . S
C1619 C1620 1.349 . S
C1619 C1621 1.327 . S
C1619 H1642 0.950 . S
C1620 C1619 1.349 . S
C1620 C1632 1.349 . S
C1621 C1619 1.327 . S
C1621 C1637 1.429 . S
C1621 H1643 0.950 . S
C1622 H1618 0.949 . S
C1622 C1630 1.574 . S
C1622 C1638 1.368 . S
H1623 C1631 0.950 . S
H1624 C1629 0.950 . S
H1625 C1630 0.949 . S
H1626 C1632 0.950 . S
H1627 C1633 0.950 . S
H1628 C1634 0.949 . S
C1629 H1624 0.950 . S
C1629 C1631 1.327 . S
C1629 C1635 1.429 . S
C1630 C1622 1.574 . S
C1630 H1625 0.949 . S
C1630 C1636 1.368 . S
C1631 C1615 1.349 . S
C1631 H1623 0.950 . S
C1631 C1629 1.327 . S
C1632 C1620 1.349 . S
C1632 H1626 0.950 . S
C1632 C1633 1.327 . S
C1633 H1627 0.950 . S
C1633 C1632 1.327 . S
C1633 C1637 1.429 . S
C1634 C1617 1.574 . S
C1634 H1628 0.949 . S
C1634 C1638 1.368 . S
C1635 C1616 1.429 . S
C1635 C1629 1.429 . S
C1635 C1636 1.523 . S
C1636 C1617 1.368 . S
C1636 C1630 1.368 . S
C1636 C1635 1.523 . S
C1637 C1621 1.429 . S
C1637 C1633 1.429 . S
C1637 C1638 1.523 . S
C1638 C1622 1.368 . S
C1638 C1634 1.368 . S
C1638 C1637 1.523 . S
H1639 C1614 0.950 . S
H1640 C1616 0.950 . S
H1641 C1617 0.949 . S
H1642 C1619 0.950 . S
H1643 C1621 0.950 . S
C1644 C1645 1.349 . S
C1644 C1646 1.327 . S
C1644 H1669 0.950 . S
C1645 C1644 1.349 . S
C1645 C1661 1.349 . S
C1646 C1644 1.327 . S
C1646 C1665 1.429 . S
C1646 H1670 0.950 . S
C1647 C1664 1.574 . S
C1647 C1666 1.368 . S
C1647 H1671 0.949 . S
H1648 C1652 0.949 . S
C1649 C1650 1.349 . S
C1649 C1651 1.327 . S
C1649 H1672 0.950 . S
C1650 C1649 1.349 . S
C1650 C1662 1.349 . S
C1651 C1649 1.327 . S
C1651 C1667 1.429 . S
C1651 H1673 0.950 . S
C1652 H1648 0.949 . S
C1652 C1660 1.574 . S
C1652 C1668 1.368 . S
H1653 C1661 0.950 . S
H1654 C1659 0.950 . S
H1655 C1660 0.949 . S
H1656 C1662 0.950 . S
H1657 C1663 0.950 . S
H1658 C1664 0.949 . S
C1659 H1654 0.950 . S
C1659 C1661 1.327 . S
C1659 C1665 1.429 . S
C1660 C1652 1.574 . S
C1660 H1655 0.949 . S
C1660 C1666 1.368 . S
C1661 C1645 1.349 . S
C1661 H1653 0.950 . S
C1661 C1659 1.327 . S
C1662 C1650 1.349 . S
C1662 H1656 0.950 . S
C1662 C1663 1.327 . S
C1663 H1657 0.950 . S
C1663 C1662 1.327 . S
C1663 C1667 1.429 . S
C1664 C1647 1.574 . S
C1664 H1658 0.949 . S
C1664 C1668 1.368 . S
C1665 C1646 1.429 . S
C1665 C1659 1.429 . S
C1665 C1666 1.523 . S
C1666 C1647 1.368 . S
C1666 C1660 1.368 . S
C1666 C1665 1.523 . S
C1667 C1651 1.429 . S
C1667 C1663 1.429 . S
C1667 C1668 1.523 . S
C1668 C1652 1.368 . S
C1668 C1664 1.368 . S
C1668 C1667 1.523 . S
H1669 C1644 0.950 . S
H1670 C1646 0.950 . S
H1671 C1647 0.949 . S
H1672 C1649 0.950 . S
H1673 C1651 0.950 . S
C1674 C1675 1.349 . S
C1674 C1676 1.327 . S
C1674 H1699 0.950 . S
C1675 C1674 1.349 . S
C1675 C1691 1.349 . S
C1676 C1674 1.327 . S
C1676 C1695 1.429 . S
C1676 H1700 0.950 . S
C1677 C1694 1.574 . S
C1677 C1696 1.368 . S
C1677 H1701 0.949 . S
H1678 C1682 0.949 . S
C1679 C1680 1.349 . S
C1679 C1681 1.327 . S
C1679 H1702 0.950 . S
C1680 C1679 1.349 . S
C1680 C1692 1.349 . S
C1681 C1679 1.327 . S
C1681 C1697 1.429 . S
C1681 H1703 0.950 . S
C1682 H1678 0.949 . S
C1682 C1690 1.574 . S
C1682 C1698 1.368 . S
H1683 C1691 0.950 . S
H1684 C1689 0.950 . S
H1685 C1690 0.949 . S
H1686 C1692 0.950 . S
H1687 C1693 0.950 . S
H1688 C1694 0.949 . S
C1689 H1684 0.950 . S
C1689 C1691 1.327 . S
C1689 C1695 1.429 . S
C1690 C1682 1.574 . S
C1690 H1685 0.949 . S
C1690 C1696 1.368 . S
C1691 C1675 1.349 . S
C1691 H1683 0.950 . S
C1691 C1689 1.327 . S
C1692 C1680 1.349 . S
C1692 H1686 0.950 . S
C1692 C1693 1.327 . S
C1693 H1687 0.950 . S
C1693 C1692 1.327 . S
C1693 C1697 1.429 . S
C1694 C1677 1.574 . S
C1694 H1688 0.949 . S
C1694 C1698 1.368 . S
C1695 C1676 1.429 . S
C1695 C1689 1.429 . S
C1695 C1696 1.523 . S
C1696 C1677 1.368 . S
C1696 C1690 1.368 . S
C1696 C1695 1.523 . S
C1697 C1681 1.429 . S
C1697 C1693 1.429 . S
C1697 C1698 1.523 . S
C1698 C1682 1.368 . S
C1698 C1694 1.368 . S
C1698 C1697 1.523 . S
H1699 C1674 0.950 . S
H1700 C1676 0.950 . S
H1701 C1677 0.949 . S
H1702 C1679 0.950 . S
H1703 C1681 0.950 . S
C1704 C1705 1.349 . S
C1704 C1706 1.327 . S
C1704 H1729 0.950 . S
C1705 C1704 1.349 . S
C1705 C1721 1.349 . S
C1706 C1704 1.327 . S
C1706 C1725 1.429 . S
C1706 H1730 0.950 . S
C1707 C1724 1.574 . S
C1707 C1726 1.368 . S
C1707 H1731 0.949 . S
H1708 C1712 0.949 . S
C1709 C1710 1.349 . S
C1709 C1711 1.327 . S
C1709 H1732 0.950 . S
C1710 C1709 1.349 . S
C1710 C1722 1.349 . S
C1711 C1709 1.327 . S
C1711 C1727 1.429 . S
C1711 H1733 0.950 . S
C1712 H1708 0.949 . S
C1712 C1720 1.574 . S
C1712 C1728 1.368 . S
H1713 C1721 0.950 . S
H1714 C1719 0.950 . S
H1715 C1720 0.949 . S
H1716 C1722 0.950 . S
H1717 C1723 0.950 . S
H1718 C1724 0.949 . S
C1719 H1714 0.950 . S
C1719 C1721 1.327 . S
C1719 C1725 1.429 . S
C1720 C1712 1.574 . S
C1720 H1715 0.949 . S
C1720 C1726 1.368 . S
C1721 C1705 1.349 . S
C1721 H1713 0.950 . S
C1721 C1719 1.327 . S
C1722 C1710 1.349 . S
C1722 H1716 0.950 . S
C1722 C1723 1.327 . S
C1723 H1717 0.950 . S
C1723 C1722 1.327 . S
C1723 C1727 1.429 . S
C1724 C1707 1.574 . S
C1724 H1718 0.949 . S
C1724 C1728 1.368 . S
C1725 C1706 1.429 . S
C1725 C1719 1.429 . S
C1725 C1726 1.523 . S
C1726 C1707 1.368 . S
C1726 C1720 1.368 . S
C1726 C1725 1.523 . S
C1727 C1711 1.429 . S
C1727 C1723 1.429 . S
C1727 C1728 1.523 . S
C1728 C1712 1.368 . S
C1728 C1724 1.368 . S
C1728 C1727 1.523 . S
H1729 C1704 0.950 . S
H1730 C1706 0.950 . S
H1731 C1707 0.949 . S
H1732 C1709 0.950 . S
H1733 C1711 0.950 . S
C1734 C1735 1.349 . S
C1734 C1736 1.327 . S
C1734 H1759 0.950 . S
C1735 C1734 1.349 . S
C1735 C1751 1.349 . S
C1736 C1734 1.327 . S
C1736 C1755 1.429 . S
C1736 H1760 0.950 . S
C1737 C1754 1.574 . S
C1737 C1756 1.368 . S
C1737 H1761 0.949 . S
H1738 C1742 0.949 . S
C1739 C1740 1.349 . S
C1739 C1741 1.327 . S
C1739 H1762 0.950 . S
C1740 C1739 1.349 . S
C1740 C1752 1.349 . S
C1741 C1739 1.327 . S
C1741 C1757 1.429 1_455 S
C1741 H1763 0.950 . S
C1742 H1738 0.949 . S
C1742 C1750 1.574 . S
C1742 C1758 1.368 . S
H1743 C1751 0.950 . S
H1744 C1749 0.950 . S
H1745 C1750 0.949 . S
H1746 C1752 0.950 . S
H1747 C1753 0.950 . S
H1748 C1754 0.949 . S
C1749 H1744 0.950 . S
C1749 C1751 1.327 . S
C1749 C1755 1.429 . S
C1750 C1742 1.574 . S
C1750 H1745 0.949 . S
C1750 C1756 1.368 . S
C1751 C1735 1.349 . S
C1751 H1743 0.950 . S
C1751 C1749 1.327 . S
C1752 C1740 1.349 . S
C1752 H1746 0.950 . S
C1752 C1753 1.327 1_455 S
C1753 H1747 0.950 . S
C1753 C1752 1.327 1_655 S
C1753 C1757 1.429 . S
C1754 C1737 1.574 . S
C1754 H1748 0.949 . S
C1754 C1758 1.368 . S
C1755 C1736 1.429 . S
C1755 C1749 1.429 . S
C1755 C1756 1.523 . S
C1756 C1737 1.368 . S
C1756 C1750 1.368 . S
C1756 C1755 1.523 . S
C1757 C1741 1.429 1_655 S
C1757 C1753 1.429 . S
C1757 C1758 1.523 . S
C1758 C1742 1.368 . S
C1758 C1754 1.368 . S
C1758 C1757 1.523 . S
H1759 C1734 0.950 . S
H1760 C1736 0.950 . S
H1761 C1737 0.949 . S
H1762 C1739 0.950 . S
H1763 C1741 0.950 . S
C1764 C1765 1.349 . S
C1764 C1766 1.327 . S
C1764 H1789 0.950 . S
C1765 C1764 1.349 . S
C1765 C1781 1.349 . S
C1766 C1764 1.327 . S
C1766 C1785 1.429 . S
C1766 H1790 0.950 . S
C1767 C1784 1.574 . S
C1767 C1786 1.368 . S
C1767 H1791 0.949 . S
H1768 C1772 0.949 . S
C1769 C1770 1.349 . S
C1769 C1771 1.327 . S
C1769 H1792 0.950 . S
C1770 C1769 1.349 . S
C1770 C1782 1.349 . S
C1771 C1769 1.327 . S
C1771 C1787 1.429 . S
C1771 H1793 0.950 . S
C1772 H1768 0.949 . S
C1772 C1780 1.574 . S
C1772 C1788 1.368 . S
H1773 C1781 0.950 . S
H1774 C1779 0.950 . S
H1775 C1780 0.949 . S
H1776 C1782 0.950 . S
H1777 C1783 0.950 . S
H1778 C1784 0.949 . S
C1779 H1774 0.950 . S
C1779 C1781 1.327 . S
C1779 C1785 1.429 . S
C1780 C1772 1.574 . S
C1780 H1775 0.949 . S
C1780 C1786 1.368 . S
C1781 C1765 1.349 . S
C1781 H1773 0.950 . S
C1781 C1779 1.327 . S
C1782 C1770 1.349 . S
C1782 H1776 0.950 . S
C1782 C1783 1.327 . S
C1783 H1777 0.950 . S
C1783 C1782 1.327 . S
C1783 C1787 1.429 . S
C1784 C1767 1.574 . S
C1784 H1778 0.949 . S
C1784 C1788 1.368 . S
C1785 C1766 1.429 . S
C1785 C1779 1.429 . S
C1785 C1786 1.523 . S
C1786 C1767 1.368 . S
C1786 C1780 1.368 . S
C1786 C1785 1.523 . S
C1787 C1771 1.429 . S
C1787 C1783 1.429 . S
C1787 C1788 1.523 . S
C1788 C1772 1.368 . S
C1788 C1784 1.368 . S
C1788 C1787 1.523 . S
H1789 C1764 0.950 . S
H1790 C1766 0.950 . S
H1791 C1767 0.949 . S
H1792 C1769 0.950 . S
H1793 C1771 0.950 . S
C1794 C1795 1.349 . S
C1794 C1796 1.327 . S
C1794 H1819 0.950 . S
C1795 C1794 1.349 . S
C1795 C1811 1.349 . S
C1796 C1794 1.327 . S
C1796 C1815 1.429 1_655 S
C1796 H1820 0.950 . S
C1797 C1814 1.574 . S
C1797 C1816 1.368 . S
C1797 H1821 0.949 . S
H1798 C1802 0.949 . S
C1799 C1800 1.349 . S
C1799 C1801 1.327 . S
C1799 H1822 0.950 . S
C1800 C1799 1.349 . S
C1800 C1812 1.349 . S
C1801 C1799 1.327 . S
C1801 C1817 1.429 . S
C1801 H1823 0.950 . S
C1802 H1798 0.949 . S
C1802 C1810 1.574 . S
C1802 C1818 1.368 . S
H1803 C1811 0.950 . S
H1804 C1809 0.950 . S
H1805 C1810 0.949 . S
H1806 C1812 0.950 . S
H1807 C1813 0.950 . S
H1808 C1814 0.949 . S
C1809 H1804 0.950 . S
C1809 C1811 1.327 1_455 S
C1809 C1815 1.429 . S
C1810 C1802 1.574 . S
C1810 H1805 0.949 . S
C1810 C1816 1.368 . S
C1811 C1795 1.349 . S
C1811 H1803 0.950 . S
C1811 C1809 1.327 1_655 S
C1812 C1800 1.349 . S
C1812 H1806 0.950 . S
C1812 C1813 1.327 . S
C1813 H1807 0.950 . S
C1813 C1812 1.327 . S
C1813 C1817 1.429 . S
C1814 C1797 1.574 . S
C1814 H1808 0.949 . S
C1814 C1818 1.368 . S
C1815 C1796 1.429 1_455 S
C1815 C1809 1.429 . S
C1815 C1816 1.523 . S
C1816 C1797 1.368 . S
C1816 C1810 1.368 . S
C1816 C1815 1.523 . S
C1817 C1801 1.429 . S
C1817 C1813 1.429 . S
C1817 C1818 1.523 . S
C1818 C1802 1.368 . S
C1818 C1814 1.368 . S
C1818 C1817 1.523 . S
H1819 C1794 0.950 . S
H1820 C1796 0.950 . S
H1821 C1797 0.949 . S
H1822 C1799 0.950 . S
H1823 C1801 0.950 . S
C1824 C1825 1.349 . S
C1824 C1826 1.327 . S
C1824 H1849 0.950 . S
C1825 C1824 1.349 . S
C1825 C1841 1.349 . S
C1826 C1824 1.327 . S
C1826 C1845 1.429 . S
C1826 H1850 0.950 . S
C1827 C1844 1.574 . S
C1827 C1846 1.368 . S
C1827 H1851 0.949 . S
H1828 C1832 0.949 . S
C1829 C1830 1.349 . S
C1829 C1831 1.327 . S
C1829 H1852 0.950 . S
C1830 C1829 1.349 . S
C1830 C1842 1.349 . S
C1831 C1829 1.327 . S
C1831 C1847 1.429 . S
C1831 H1853 0.950 . S
C1832 H1828 0.949 . S
C1832 C1840 1.574 . S
C1832 C1848 1.368 . S
H1833 C1841 0.950 . S
H1834 C1839 0.950 . S
H1835 C1840 0.949 . S
H1836 C1842 0.950 . S
H1837 C1843 0.950 . S
H1838 C1844 0.949 . S
C1839 H1834 0.950 . S
C1839 C1841 1.327 . S
C1839 C1845 1.429 . S
C1840 C1832 1.574 . S
C1840 H1835 0.949 . S
C1840 C1846 1.368 . S
C1841 C1825 1.349 . S
C1841 H1833 0.950 . S
C1841 C1839 1.327 . S
C1842 C1830 1.349 . S
C1842 H1836 0.950 . S
C1842 C1843 1.327 . S
C1843 H1837 0.950 . S
C1843 C1842 1.327 . S
C1843 C1847 1.429 . S
C1844 C1827 1.574 . S
C1844 H1838 0.949 . S
C1844 C1848 1.368 . S
C1845 C1826 1.429 . S
C1845 C1839 1.429 . S
C1845 C1846 1.523 . S
C1846 C1827 1.368 . S
C1846 C1840 1.368 . S
C1846 C1845 1.523 . S
C1847 C1831 1.429 . S
C1847 C1843 1.429 . S
C1847 C1848 1.523 . S
C1848 C1832 1.368 . S
C1848 C1844 1.368 . S
C1848 C1847 1.523 . S
H1849 C1824 0.950 . S
H1850 C1826 0.950 . S
H1851 C1827 0.949 . S
H1852 C1829 0.950 . S
H1853 C1831 0.950 . S
C1854 C1855 1.349 . S
C1854 C1856 1.327 . S
C1854 H1879 0.950 . S
C1855 C1854 1.349 . S
C1855 C1871 1.349 . S
C1856 C1854 1.327 . S
C1856 C1875 1.429 1_554 S
C1856 H1880 0.950 . S
C1857 C1874 1.574 . S
C1857 C1876 1.368 . S
C1857 H1881 0.949 . S
H1858 C1862 0.949 . S
C1859 C1860 1.349 . S
C1859 C1861 1.327 . S
C1859 H1882 0.950 . S
C1860 C1859 1.349 . S
C1860 C1872 1.349 . S
C1861 C1859 1.327 . S
C1861 C1877 1.429 . S
C1861 H1883 0.950 . S
C1862 H1858 0.949 . S
C1862 C1870 1.574 . S
C1862 C1878 1.368 . S
H1863 C1871 0.950 . S
H1864 C1869 0.952 . S
H1865 C1870 0.949 . S
H1866 C1872 0.950 . S
H1867 C1873 0.950 . S
H1868 C1874 0.949 . S
C1869 H1864 0.952 . S
C1869 C1871 1.324 1_556 S
C1869 C1875 1.429 . S
C1870 C1862 1.574 . S
C1870 H1865 0.949 . S
C1870 C1876 1.368 . S
C1871 C1855 1.349 . S
C1871 H1863 0.950 . S
C1871 C1869 1.324 1_554 S
C1872 C1860 1.349 . S
C1872 H1866 0.950 . S
C1872 C1873 1.327 . S
C1873 H1867 0.950 . S
C1873 C1872 1.327 . S
C1873 C1877 1.429 . S
C1874 C1857 1.574 . S
C1874 H1868 0.949 . S
C1874 C1878 1.368 . S
C1875 C1856 1.429 1_556 S
C1875 C1869 1.429 . S
C1875 C1876 1.523 . S
C1876 C1857 1.368 . S
C1876 C1870 1.368 . S
C1876 C1875 1.523 . S
C1877 C1861 1.429 . S
C1877 C1873 1.429 . S
C1877 C1878 1.523 . S
C1878 C1862 1.368 . S
C1878 C1874 1.368 . S
C1878 C1877 1.523 . S
H1879 C1854 0.950 . S
H1880 C1856 0.950 . S
H1881 C1857 0.949 . S
H1882 C1859 0.950 . S
H1883 C1861 0.950 . S
C1884 C1885 1.349 . S
C1884 C1886 1.327 . S
C1884 H1909 0.950 . S
C1885 C1884 1.349 . S
C1885 C1901 1.349 . S
C1886 C1884 1.327 . S
C1886 C1905 1.429 . S
C1886 H1910 0.950 . S
C1887 C1904 1.574 . S
C1887 C1906 1.368 . S
C1887 H1911 0.949 . S
H1888 C1892 0.949 . S
C1889 C1890 1.349 . S
C1889 C1891 1.327 . S
C1889 H1912 0.950 . S
C1890 C1889 1.349 . S
C1890 C1902 1.349 . S
C1891 C1889 1.327 . S
C1891 C1907 1.429 . S
C1891 H1913 0.950 . S
C1892 H1888 0.949 . S
C1892 C1900 1.574 . S
C1892 C1908 1.368 . S
H1893 C1901 0.950 . S
H1894 C1899 0.950 . S
H1895 C1900 0.949 . S
H1896 C1902 0.950 . S
H1897 C1903 0.950 . S
H1898 C1904 0.949 . S
C1899 H1894 0.950 . S
C1899 C1901 1.327 . S
C1899 C1905 1.429 . S
C1900 C1892 1.574 . S
C1900 H1895 0.949 . S
C1900 C1906 1.368 . S
C1901 C1885 1.349 . S
C1901 H1893 0.950 . S
C1901 C1899 1.327 . S
C1902 C1890 1.349 . S
C1902 H1896 0.950 . S
C1902 C1903 1.327 . S
C1903 H1897 0.950 . S
C1903 C1902 1.327 . S
C1903 C1907 1.429 . S
C1904 C1887 1.574 . S
C1904 H1898 0.949 . S
C1904 C1908 1.368 . S
C1905 C1886 1.429 . S
C1905 C1899 1.429 . S
C1905 C1906 1.523 . S
C1906 C1887 1.368 . S
C1906 C1900 1.368 . S
C1906 C1905 1.523 . S
C1907 C1891 1.429 . S
C1907 C1903 1.429 . S
C1907 C1908 1.523 . S
C1908 C1892 1.368 . S
C1908 C1904 1.368 . S
C1908 C1907 1.523 . S
H1909 C1884 0.950 . S
H1910 C1886 0.950 . S
H1911 C1887 0.949 . S
H1912 C1889 0.950 . S
H1913 C1891 0.950 . S
C1914 C1915 1.349 . S
C1914 C1916 1.327 . S
C1914 H1939 0.950 . S
C1915 C1914 1.349 . S
C1915 C1931 1.349 . S
C1916 C1914 1.327 . S
C1916 C1935 1.429 . S
C1916 H1940 0.950 . S
C1917 C1934 1.574 . S
C1917 C1936 1.368 . S
C1917 H1941 0.949 . S
H1918 C1922 0.949 . S
C1919 C1920 1.349 . S
C1919 C1921 1.327 1_554 S
C1919 H1942 0.950 . S
C1920 C1919 1.349 . S
C1920 C1932 1.349 . S
C1921 C1919 1.327 1_556 S
C1921 C1937 1.429 . S
C1921 H1943 0.950 . S
C1922 H1918 0.949 . S
C1922 C1930 1.574 . S
C1922 C1938 1.368 . S
H1923 C1931 0.950 . S
H1924 C1929 0.950 . S
H1925 C1930 0.949 . S
H1926 C1932 0.950 . S
H1927 C1933 0.950 . S
H1928 C1934 0.949 . S
C1929 H1924 0.950 . S
C1929 C1931 1.327 . S
C1929 C1935 1.429 . S
C1930 C1922 1.574 . S
C1930 H1925 0.949 . S
C1930 C1936 1.368 . S
C1931 C1915 1.349 . S
C1931 H1923 0.950 . S
C1931 C1929 1.327 . S
C1932 C1920 1.349 . S
C1932 H1926 0.950 . S
C1932 C1933 1.327 . S
C1933 H1927 0.950 . S
C1933 C1932 1.327 . S
C1933 C1937 1.429 1_554 S
C1934 C1917 1.574 . S
C1934 H1928 0.949 . S
C1934 C1938 1.368 . S
C1935 C1916 1.429 . S
C1935 C1929 1.429 . S
C1935 C1936 1.523 . S
C1936 C1917 1.368 . S
C1936 C1930 1.368 . S
C1936 C1935 1.523 . S
C1937 C1921 1.429 . S
C1937 C1933 1.429 1_556 S
C1937 C1938 1.523 . S
C1938 C1922 1.368 . S
C1938 C1934 1.368 . S
C1938 C1937 1.523 . S
H1939 C1914 0.950 . S
H1940 C1916 0.950 . S
H1941 C1917 0.949 . S
H1942 C1919 0.950 . S
H1943 C1921 0.950 . S
C1944 C1945 1.349 . S
C1944 C1946 1.327 . S
C1944 H1969 0.950 . S
C1945 C1944 1.349 . S
C1945 C1961 1.349 . S
C1946 C1944 1.327 . S
C1946 C1965 1.429 . S
C1946 H1970 0.950 . S
C1947 C1964 1.574 . S
C1947 C1966 1.368 . S
C1947 H1971 0.949 . S
H1948 C1952 0.949 . S
C1949 C1950 1.349 . S
C1949 C1951 1.327 . S
C1949 H1972 0.950 . S
C1950 C1949 1.349 . S
C1950 C1962 1.349 . S
C1951 C1949 1.327 . S
C1951 C1967 1.429 . S
C1951 H1973 0.950 . S
C1952 H1948 0.949 . S
C1952 C1960 1.574 . S
C1952 C1968 1.368 . S
H1953 C1961 0.950 . S
H1954 C1959 0.950 . S
H1955 C1960 0.949 . S
H1956 C1962 0.950 . S
H1957 C1963 0.950 . S
H1958 C1964 0.949 . S
C1959 H1954 0.950 . S
C1959 C1961 1.327 . S
C1959 C1965 1.429 . S
C1960 C1952 1.574 . S
C1960 H1955 0.949 . S
C1960 C1966 1.368 . S
C1961 C1945 1.349 . S
C1961 H1953 0.950 . S
C1961 C1959 1.327 . S
C1962 C1950 1.349 . S
C1962 H1956 0.950 . S
C1962 C1963 1.327 . S
C1963 H1957 0.950 . S
C1963 C1962 1.327 . S
C1963 C1967 1.429 . S
C1964 C1947 1.574 . S
C1964 H1958 0.949 . S
C1964 C1968 1.368 . S
C1965 C1946 1.429 . S
C1965 C1959 1.429 . S
C1965 C1966 1.523 . S
C1966 C1947 1.368 . S
C1966 C1960 1.368 . S
C1966 C1965 1.523 . S
C1967 C1951 1.429 . S
C1967 C1963 1.429 . S
C1967 C1968 1.523 . S
C1968 C1952 1.368 . S
C1968 C1964 1.368 . S
C1968 C1967 1.523 . S
H1969 C1944 0.950 . S
H1970 C1946 0.950 . S
H1971 C1947 0.949 . S
H1972 C1949 0.950 . S
H1973 C1951 0.950 . S
C1974 C1975 1.349 . S
C1974 C1976 1.327 . S
C1974 H1999 0.950 . S
C1975 C1974 1.349 . S
C1975 C1991 1.349 . S
C1976 C1974 1.327 . S
C1976 C1995 1.429 . S
C1976 H2000 0.950 . S
C1977 C1994 1.574 . S
C1977 C1996 1.368 . S
C1977 H2001 0.949 . S
H1978 C1982 0.949 . S
C1979 C1980 1.349 . S
C1979 C1981 1.327 1_556 S
C1979 H2002 0.950 . S
C1980 C1979 1.349 . S
C1980 C1992 1.349 . S
C1981 C1979 1.327 1_554 S
C1981 C1997 1.429 . S
C1981 H2003 0.950 . S
C1982 H1978 0.949 . S
C1982 C1990 1.574 . S
C1982 C1998 1.368 . S
H1983 C1991 0.950 . S
H1984 C1989 0.950 . S
H1985 C1990 0.949 . S
H1986 C1992 0.950 . S
H1987 C1993 0.950 . S
H1988 C1994 0.949 . S
C1989 H1984 0.950 . S
C1989 C1991 1.327 . S
C1989 C1995 1.429 . S
C1990 C1982 1.574 . S
C1990 H1985 0.949 . S
C1990 C1996 1.368 . S
C1991 C1975 1.349 . S
C1991 H1983 0.950 . S
C1991 C1989 1.327 . S
C1992 C1980 1.349 . S
C1992 H1986 0.950 . S
C1992 C1993 1.327 . S
C1993 H1987 0.950 . S
C1993 C1992 1.327 . S
C1993 C1997 1.429 1_556 S
C1994 C1977 1.574 . S
C1994 H1988 0.949 . S
C1994 C1998 1.368 . S
C1995 C1976 1.429 . S
C1995 C1989 1.429 . S
C1995 C1996 1.523 . S
C1996 C1977 1.368 . S
C1996 C1990 1.368 . S
C1996 C1995 1.523 . S
C1997 C1981 1.429 . S
C1997 C1993 1.429 1_554 S
C1997 C1998 1.523 . S
C1998 C1982 1.368 . S
C1998 C1994 1.368 . S
C1998 C1997 1.523 . S
H1999 C1974 0.950 . S
H2000 C1976 0.950 . S
H2001 C1977 0.949 . S
H2002 C1979 0.950 . S
H2003 C1981 0.950 . S
C2004 C2005 1.349 . S
C2004 C2006 1.327 . S
C2004 H2029 0.950 . S
C2005 C2004 1.349 . S
C2005 C2021 1.349 . S
C2006 C2004 1.327 . S
C2006 C2025 1.429 . S
C2006 H2030 0.950 . S
C2007 C2024 1.574 . S
C2007 C2026 1.368 . S
C2007 H2031 0.949 . S
H2008 C2012 0.949 . S
C2009 C2010 1.349 . S
C2009 C2011 1.327 . S
C2009 H2032 0.950 . S
C2010 C2009 1.349 . S
C2010 C2022 1.349 . S
C2011 C2009 1.327 . S
C2011 C2027 1.429 . S
C2011 H2033 0.950 . S
C2012 H2008 0.949 . S
C2012 C2020 1.574 . S
C2012 C2028 1.368 . S
H2013 C2021 0.950 . S
H2014 C2019 0.950 . S
H2015 C2020 0.949 . S
H2016 C2022 0.950 . S
H2017 C2023 0.950 . S
H2018 C2024 0.949 . S
C2019 H2014 0.950 . S
C2019 C2021 1.327 . S
C2019 C2025 1.429 . S
C2020 C2012 1.574 . S
C2020 H2015 0.949 . S
C2020 C2026 1.368 . S
C2021 C2005 1.349 . S
C2021 H2013 0.950 . S
C2021 C2019 1.327 . S
C2022 C2010 1.349 . S
C2022 H2016 0.950 . S
C2022 C2023 1.327 . S
C2023 H2017 0.950 . S
C2023 C2022 1.327 . S
C2023 C2027 1.429 . S
C2024 C2007 1.574 . S
C2024 H2018 0.949 . S
C2024 C2028 1.368 . S
C2025 C2006 1.429 . S
C2025 C2019 1.429 . S
C2025 C2026 1.523 . S
C2026 C2007 1.368 . S
C2026 C2020 1.368 . S
C2026 C2025 1.523 . S
C2027 C2011 1.429 . S
C2027 C2023 1.429 . S
C2027 C2028 1.523 . S
C2028 C2012 1.368 . S
C2028 C2024 1.368 . S
C2028 C2027 1.523 . S
H2029 C2004 0.950 . S
H2030 C2006 0.950 . S
H2031 C2007 0.949 . S
H2032 C2009 0.950 . S
H2033 C2011 0.950 . S
C2034 C2035 1.349 . S
C2034 C2036 1.390 . S
C2034 H2059 0.950 . S
C2035 C2034 1.349 . S
C2035 C2051 1.349 . S
C2036 C2034 1.390 . S
C2036 C2055 1.407 1_556 S
C2036 H2060 0.912 1_556 S
C2037 C2054 1.574 . S
C2037 C2056 1.368 . S
C2037 H2061 0.949 . S
H2038 C2042 0.949 . S
C2039 C2040 1.349 . S
C2039 C2041 1.327 . S
C2039 H2062 0.950 . S
C2040 C2039 1.349 . S
C2040 C2052 1.349 . S
C2041 C2039 1.327 . S
C2041 C2057 1.429 . S
C2041 H2063 0.950 . S
C2042 H2038 0.949 . S
C2042 C2050 1.574 . S
C2042 C2058 1.368 . S
H2043 C2051 0.950 . S
H2044 C2049 0.950 . S
H2045 C2050 0.949 . S
H2046 C2052 0.950 . S
H2047 C2053 0.950 . S
H2048 C2054 0.949 . S
C2049 H2044 0.950 . S
C2049 C2051 1.327 . S
C2049 C2055 1.429 1_556 S
C2050 C2042 1.574 . S
C2050 H2045 0.949 . S
C2050 C2056 1.368 . S
C2051 C2035 1.349 . S
C2051 H2043 0.950 . S
C2051 C2049 1.327 . S
C2052 C2040 1.349 . S
C2052 H2046 0.950 . S
C2052 C2053 1.327 . S
C2053 H2047 0.950 . S
C2053 C2052 1.327 . S
C2053 C2057 1.429 . S
C2054 C2037 1.574 . S
C2054 H2048 0.949 . S
C2054 C2058 1.368 . S
C2055 C2036 1.407 1_554 S
C2055 C2049 1.429 1_554 S
C2055 C2056 1.523 . S
C2056 C2037 1.368 . S
C2056 C2050 1.368 . S
C2056 C2055 1.523 . S
C2057 C2041 1.429 . S
C2057 C2053 1.429 . S
C2057 C2058 1.523 . S
C2058 C2042 1.368 . S
C2058 C2054 1.368 . S
C2058 C2057 1.523 . S
H2059 C2034 0.950 . S
H2060 C2036 0.912 1_554 S
H2061 C2037 0.949 . S
H2062 C2039 0.950 . S
H2063 C2041 0.950 . S
C2064 C2065 1.349 . S
C2064 C2066 1.327 . S
C2064 H2089 0.950 . S
C2065 C2064 1.349 . S
C2065 C2081 1.349 . S
C2066 C2064 1.327 . S
C2066 C2085 1.429 . S
C2066 H2090 0.950 . S
C2067 C2084 1.574 . S
C2067 C2086 1.368 . S
C2067 H2091 0.949 . S
H2068 C2072 0.949 . S
C2069 C2070 1.349 . S
C2069 C2071 1.327 . S
C2069 H2092 0.950 . S
C2070 C2069 1.349 . S
C2070 C2082 1.349 . S
C2071 C2069 1.327 . S
C2071 C2087 1.429 . S
C2071 H2093 0.950 . S
C2072 H2068 0.949 . S
C2072 C2080 1.574 . S
C2072 C2088 1.368 . S
H2073 C2081 0.950 . S
H2074 C2079 0.950 . S
H2075 C2080 0.949 . S
H2076 C2082 0.950 . S
H2077 C2083 0.950 . S
H2078 C2084 0.949 . S
C2079 H2074 0.950 . S
C2079 C2081 1.327 . S
C2079 C2085 1.429 . S
C2080 C2072 1.574 . S
C2080 H2075 0.949 . S
C2080 C2086 1.368 . S
C2081 C2065 1.349 . S
C2081 H2073 0.950 . S
C2081 C2079 1.327 . S
C2082 C2070 1.349 . S
C2082 H2076 0.950 . S
C2082 C2083 1.327 . S
C2083 H2077 0.950 . S
C2083 C2082 1.327 . S
C2083 C2087 1.429 . S
C2084 C2067 1.574 . S
C2084 H2078 0.949 . S
C2084 C2088 1.368 . S
C2085 C2066 1.429 . S
C2085 C2079 1.429 . S
C2085 C2086 1.523 . S
C2086 C2067 1.368 . S
C2086 C2080 1.368 . S
C2086 C2085 1.523 . S
C2087 C2071 1.429 . S
C2087 C2083 1.429 . S
C2087 C2088 1.523 . S
C2088 C2072 1.368 . S
C2088 C2084 1.368 . S
C2088 C2087 1.523 . S
H2089 C2064 0.950 . S
H2090 C2066 0.950 . S
H2091 C2067 0.949 . S
H2092 C2069 0.950 . S
H2093 C2071 0.950 . S
C2094 C2095 1.349 . S
C2094 C2096 1.327 . S
C2094 H2119 0.950 . S
C2095 C2094 1.349 . S
C2095 C2111 1.349 . S
C2096 C2094 1.327 . S
C2096 C2115 1.429 . S
C2096 H2120 0.950 . S
C2097 C2114 1.574 . S
C2097 C2116 1.368 . S
C2097 H2121 0.949 . S
H2098 C2102 0.949 . S
C2099 C2100 1.349 . S
C2099 C2101 1.327 . S
C2099 H2122 0.950 . S
C2100 C2099 1.349 . S
C2100 C2112 1.349 . S
C2101 C2099 1.327 . S
C2101 C2117 1.429 . S
C2101 H2123 0.950 . S
C2102 H2098 0.949 . S
C2102 C2110 1.574 . S
C2102 C2118 1.368 . S
H2103 C2111 0.950 . S
H2104 C2109 0.950 . S
H2105 C2110 0.949 . S
H2106 C2112 0.950 . S
H2107 C2113 0.950 . S
H2108 C2114 0.949 . S
C2109 H2104 0.950 . S
C2109 C2111 1.327 . S
C2109 C2115 1.429 . S
C2110 C2102 1.574 . S
C2110 H2105 0.949 . S
C2110 C2116 1.368 . S
C2111 C2095 1.349 . S
C2111 H2103 0.950 . S
C2111 C2109 1.327 . S
C2112 C2100 1.349 . S
C2112 H2106 0.950 . S
C2112 C2113 1.327 . S
C2113 H2107 0.950 . S
C2113 C2112 1.327 . S
C2113 C2117 1.429 . S
C2114 C2097 1.574 . S
C2114 H2108 0.949 . S
C2114 C2118 1.368 . S
C2115 C2096 1.429 . S
C2115 C2109 1.429 . S
C2115 C2116 1.523 . S
C2116 C2097 1.368 . S
C2116 C2110 1.368 . S
C2116 C2115 1.523 . S
C2117 C2101 1.429 . S
C2117 C2113 1.429 . S
C2117 C2118 1.523 . S
C2118 C2102 1.368 . S
C2118 C2114 1.368 . S
C2118 C2117 1.523 . S
H2119 C2094 0.950 . S
H2120 C2096 0.950 . S
H2121 C2097 0.949 . S
H2122 C2099 0.950 . S
H2123 C2101 0.950 . S
C2124 C2125 1.349 . S
C2124 C2126 1.327 . S
C2124 H2149 0.950 . S
C2125 C2124 1.349 . S
C2125 C2141 1.349 . S
C2126 C2124 1.327 . S
C2126 C2145 1.429 . S
C2126 H2150 0.950 . S
C2127 C2144 1.574 . S
C2127 C2146 1.368 . S
C2127 H2151 0.949 . S
H2128 C2132 0.949 . S
C2129 C2130 1.349 . S
C2129 C2131 1.327 . S
C2129 H2152 0.950 . S
C2130 C2129 1.349 . S
C2130 C2142 1.349 . S
C2131 C2129 1.327 . S
C2131 C2147 1.429 . S
C2131 H2153 0.950 . S
C2132 H2128 0.949 . S
C2132 C2140 1.574 . S
C2132 C2148 1.368 . S
H2133 C2141 0.950 . S
H2134 C2139 0.950 . S
H2135 C2140 0.949 . S
H2136 C2142 0.950 . S
H2137 C2143 0.950 . S
H2138 C2144 0.949 . S
C2139 H2134 0.950 . S
C2139 C2141 1.327 . S
C2139 C2145 1.429 . S
C2140 C2132 1.574 . S
C2140 H2135 0.949 . S
C2140 C2146 1.368 . S
C2141 C2125 1.349 . S
C2141 H2133 0.950 . S
C2141 C2139 1.327 . S
C2142 C2130 1.349 . S
C2142 H2136 0.950 . S
C2142 C2143 1.327 . S
C2143 H2137 0.950 . S
C2143 C2142 1.327 . S
C2143 C2147 1.429 . S
C2144 C2127 1.574 . S
C2144 H2138 0.949 . S
C2144 C2148 1.368 . S
C2145 C2126 1.429 . S
C2145 C2139 1.429 . S
C2145 C2146 1.523 . S
C2146 C2127 1.368 . S
C2146 C2140 1.368 . S
C2146 C2145 1.523 . S
C2147 C2131 1.429 . S
C2147 C2143 1.429 . S
C2147 C2148 1.523 . S
C2148 C2132 1.368 . S
C2148 C2144 1.368 . S
C2148 C2147 1.523 . S
H2149 C2124 0.950 . S
H2150 C2126 0.950 . S
H2151 C2127 0.949 . S
H2152 C2129 0.950 . S
H2153 C2131 0.950 . S
C2154 C2155 1.349 . S
C2154 C2156 1.327 . S
C2154 H2179 0.950 . S
C2155 C2154 1.349 . S
C2155 C2171 1.349 . S
C2156 C2154 1.327 . S
C2156 C2175 1.429 . S
C2156 H2180 0.950 . S
C2157 C2174 1.574 . S
C2157 C2176 1.368 . S
C2157 H2181 0.949 . S
H2158 C2162 0.949 . S
C2159 C2160 1.349 . S
C2159 C2161 1.327 . S
C2159 H2182 0.950 . S
C2160 C2159 1.349 . S
C2160 C2172 1.349 . S
C2161 C2159 1.327 . S
C2161 C2177 1.429 . S
C2161 H2183 0.950 . S
C2162 H2158 0.949 . S
C2162 C2170 1.574 . S
C2162 C2178 1.368 . S
H2163 C2171 0.950 . S
H2164 C2169 0.950 . S
H2165 C2170 0.949 . S
H2166 C2172 0.950 . S
H2167 C2173 0.950 . S
H2168 C2174 0.949 . S
C2169 H2164 0.950 . S
C2169 C2171 1.327 . S
C2169 C2175 1.429 . S
C2170 C2162 1.574 . S
C2170 H2165 0.949 . S
C2170 C2176 1.368 . S
C2171 C2155 1.349 . S
C2171 H2163 0.950 . S
C2171 C2169 1.327 . S
C2172 C2160 1.349 . S
C2172 H2166 0.950 . S
C2172 C2173 1.327 . S
C2173 H2167 0.950 . S
C2173 C2172 1.327 . S
C2173 C2177 1.429 . S
C2174 C2157 1.574 . S
C2174 H2168 0.949 . S
C2174 C2178 1.368 . S
C2175 C2156 1.429 . S
C2175 C2169 1.429 . S
C2175 C2176 1.523 . S
C2176 C2157 1.368 . S
C2176 C2170 1.368 . S
C2176 C2175 1.523 . S
C2177 C2161 1.429 . S
C2177 C2173 1.429 . S
C2177 C2178 1.523 . S
C2178 C2162 1.368 . S
C2178 C2174 1.368 . S
C2178 C2177 1.523 . S
H2179 C2154 0.950 . S
H2180 C2156 0.950 . S
H2181 C2157 0.949 . S
H2182 C2159 0.950 . S
H2183 C2161 0.950 . S
C2184 C2185 1.349 . S
C2184 C2186 1.327 . S
C2184 H2209 0.950 . S
C2185 C2184 1.349 . S
C2185 C2201 1.349 . S
C2186 C2184 1.327 . S
C2186 C2205 1.429 . S
C2186 H2210 0.950 . S
C2187 C2204 1.574 . S
C2187 C2206 1.368 . S
C2187 H2211 0.949 . S
H2188 C2192 0.949 . S
C2189 C2190 1.349 . S
C2189 C2191 1.327 . S
C2189 H2212 0.950 . S
C2190 C2189 1.349 . S
C2190 C2202 1.349 . S
C2191 C2189 1.327 . S
C2191 C2207 1.429 . S
C2191 H2213 0.950 . S
C2192 H2188 0.949 . S
C2192 C2200 1.574 . S
C2192 C2208 1.368 . S
H2193 C2201 0.950 . S
H2194 C2199 0.950 . S
H2195 C2200 0.949 . S
H2196 C2202 0.950 . S
H2197 C2203 0.950 . S
H2198 C2204 0.949 . S
C2199 H2194 0.950 . S
C2199 C2201 1.327 . S
C2199 C2205 1.429 . S
C2200 C2192 1.574 . S
C2200 H2195 0.949 . S
C2200 C2206 1.368 . S
C2201 C2185 1.349 . S
C2201 H2193 0.950 . S
C2201 C2199 1.327 . S
C2202 C2190 1.349 . S
C2202 H2196 0.950 . S
C2202 C2203 1.327 . S
C2203 H2197 0.950 . S
C2203 C2202 1.327 . S
C2203 C2207 1.429 . S
C2204 C2187 1.574 . S
C2204 H2198 0.949 . S
C2204 C2208 1.368 . S
C2205 C2186 1.429 . S
C2205 C2199 1.429 . S
C2205 C2206 1.523 . S
C2206 C2187 1.368 . S
C2206 C2200 1.368 . S
C2206 C2205 1.523 . S
C2207 C2191 1.429 . S
C2207 C2203 1.429 . S
C2207 C2208 1.523 . S
C2208 C2192 1.368 . S
C2208 C2204 1.368 . S
C2208 C2207 1.523 . S
H2209 C2184 0.950 . S
H2210 C2186 0.950 . S
H2211 C2187 0.949 . S
H2212 C2189 0.950 . S
H2213 C2191 0.950 . S
C2214 C2215 1.349 . S
C2214 C2216 1.327 . S
C2214 H2239 0.950 . S
C2215 C2214 1.349 . S
C2215 C2231 1.349 . S
C2216 C2214 1.327 . S
C2216 C2235 1.429 . S
C2216 H2240 0.950 . S
C2217 C2234 1.574 . S
C2217 C2236 1.368 . S
C2217 H2241 0.949 . S
H2218 C2222 0.949 . S
C2219 C2220 1.349 . S
C2219 C2221 1.327 . S
C2219 H2242 0.950 . S
C2220 C2219 1.349 . S
C2220 C2232 1.349 . S
C2221 C2219 1.327 . S
C2221 C2237 1.429 . S
C2221 H2243 0.950 . S
C2222 H2218 0.949 . S
C2222 C2230 1.574 . S
C2222 C2238 1.368 . S
H2223 C2231 0.950 . S
H2224 C2229 0.950 . S
H2225 C2230 0.949 . S
H2226 C2232 0.950 . S
H2227 C2233 0.950 . S
H2228 C2234 0.949 . S
C2229 H2224 0.950 . S
C2229 C2231 1.327 . S
C2229 C2235 1.429 . S
C2230 C2222 1.574 . S
C2230 H2225 0.949 . S
C2230 C2236 1.368 . S
C2231 C2215 1.349 . S
C2231 H2223 0.950 . S
C2231 C2229 1.327 . S
C2232 C2220 1.349 . S
C2232 H2226 0.950 . S
C2232 C2233 1.327 . S
C2233 H2227 0.950 . S
C2233 C2232 1.327 . S
C2233 C2237 1.429 . S
C2234 C2217 1.574 . S
C2234 H2228 0.949 . S
C2234 C2238 1.368 . S
C2235 C2216 1.429 . S
C2235 C2229 1.429 . S
C2235 C2236 1.523 . S
C2236 C2217 1.368 . S
C2236 C2230 1.368 . S
C2236 C2235 1.523 . S
C2237 C2221 1.429 . S
C2237 C2233 1.429 . S
C2237 C2238 1.523 . S
C2238 C2222 1.368 . S
C2238 C2234 1.368 . S
C2238 C2237 1.523 . S
H2239 C2214 0.950 . S
H2240 C2216 0.950 . S
H2241 C2217 0.949 . S
H2242 C2219 0.950 . S
H2243 C2221 0.950 . S
C2244 C2245 1.349 . S
C2244 C2246 1.327 . S
C2244 H2269 0.950 . S
C2245 C2244 1.349 . S
C2245 C2261 1.349 . S
C2246 C2244 1.327 . S
C2246 C2265 1.429 . S
C2246 H2270 0.950 . S
C2247 C2264 1.574 . S
C2247 C2266 1.368 . S
C2247 H2271 0.949 . S
H2248 C2252 0.949 . S
C2249 C2250 1.349 . S
C2249 C2251 1.327 . S
C2249 H2272 0.950 . S
C2250 C2249 1.349 . S
C2250 C2262 1.349 . S
C2251 C2249 1.327 . S
C2251 C2267 1.429 . S
C2251 H2273 0.950 . S
C2252 H2248 0.949 . S
C2252 C2260 1.574 . S
C2252 C2268 1.368 . S
H2253 C2261 0.950 . S
H2254 C2259 0.950 . S
H2255 C2260 0.949 . S
H2256 C2262 0.950 . S
H2257 C2263 0.950 . S
H2258 C2264 0.949 . S
C2259 H2254 0.950 . S
C2259 C2261 1.327 . S
C2259 C2265 1.429 . S
C2260 C2252 1.574 . S
C2260 H2255 0.949 . S
C2260 C2266 1.368 . S
C2261 C2245 1.349 . S
C2261 H2253 0.950 . S
C2261 C2259 1.327 . S
C2262 C2250 1.349 . S
C2262 H2256 0.950 . S
C2262 C2263 1.327 . S
C2263 H2257 0.950 . S
C2263 C2262 1.327 . S
C2263 C2267 1.429 . S
C2264 C2247 1.574 . S
C2264 H2258 0.949 . S
C2264 C2268 1.368 . S
C2265 C2246 1.429 . S
C2265 C2259 1.429 . S
C2265 C2266 1.523 . S
C2266 C2247 1.368 . S
C2266 C2260 1.368 . S
C2266 C2265 1.523 . S
C2267 C2251 1.429 . S
C2267 C2263 1.429 . S
C2267 C2268 1.523 . S
C2268 C2252 1.368 . S
C2268 C2264 1.368 . S
C2268 C2267 1.523 . S
H2269 C2244 0.950 . S
H2270 C2246 0.950 . S
H2271 C2247 0.949 . S
H2272 C2249 0.950 . S
H2273 C2251 0.950 . S
C2274 C2275 1.349 . S
C2274 C2276 1.327 1_545 S
C2274 H2299 0.950 . S
C2275 C2274 1.349 . S
C2275 C2291 1.349 . S
C2276 C2274 1.327 1_565 S
C2276 C2295 1.429 . S
C2276 H2300 0.950 . S
C2277 C2294 1.574 . S
C2277 C2296 1.368 . S
C2277 H2301 0.949 . S
H2278 C2282 0.949 . S
C2279 C2280 1.349 . S
C2279 C2281 1.327 . S
C2279 H2302 0.950 . S
C2280 C2279 1.349 . S
C2280 C2292 1.349 . S
C2281 C2279 1.327 . S
C2281 C2297 1.429 . S
C2281 H2303 0.950 . S
C2282 H2278 0.949 . S
C2282 C2290 1.574 . S
C2282 C2298 1.368 . S
H2283 C2291 0.950 . S
H2284 C2289 0.950 . S
H2285 C2290 0.949 . S
H2286 C2292 0.950 . S
H2287 C2293 0.950 . S
H2288 C2294 0.949 . S
C2289 H2284 0.950 . S
C2289 C2291 1.327 . S
C2289 C2295 1.429 1_545 S
C2290 C2282 1.574 . S
C2290 H2285 0.949 . S
C2290 C2296 1.368 . S
C2291 C2275 1.349 . S
C2291 H2283 0.950 . S
C2291 C2289 1.327 . S
C2292 C2280 1.349 . S
C2292 H2286 0.950 . S
C2292 C2293 1.327 . S
C2293 H2287 0.950 . S
C2293 C2292 1.327 . S
C2293 C2297 1.429 . S
C2294 C2277 1.574 . S
C2294 H2288 0.949 . S
C2294 C2298 1.368 . S
C2295 C2276 1.429 . S
C2295 C2289 1.429 1_565 S
C2295 C2296 1.523 . S
C2296 C2277 1.368 . S
C2296 C2290 1.368 . S
C2296 C2295 1.523 . S
C2297 C2281 1.429 . S
C2297 C2293 1.429 . S
C2297 C2298 1.523 . S
C2298 C2282 1.368 . S
C2298 C2294 1.368 . S
C2298 C2297 1.523 . S
H2299 C2274 0.950 . S
H2300 C2276 0.950 . S
H2301 C2277 0.949 . S
H2302 C2279 0.950 . S
H2303 C2281 0.950 . S
C2304 C2305 1.349 . S
C2304 C2306 1.327 . S
C2304 H2329 0.950 . S
C2305 C2304 1.349 . S
C2305 C2321 1.349 . S
C2306 C2304 1.327 . S
C2306 C2325 1.429 . S
C2306 H2330 0.950 . S
C2307 C2324 1.574 . S
C2307 C2326 1.368 . S
C2307 H2331 0.949 . S
H2308 C2312 0.949 . S
C2309 C2310 1.349 . S
C2309 C2311 1.327 . S
C2309 H2332 0.950 . S
C2310 C2309 1.349 . S
C2310 C2322 1.349 . S
C2311 C2309 1.327 . S
C2311 C2327 1.429 . S
C2311 H2333 0.950 . S
C2312 H2308 0.949 . S
C2312 C2320 1.574 . S
C2312 C2328 1.368 . S
H2313 C2321 0.950 . S
H2314 C2319 0.950 . S
H2315 C2320 0.949 . S
H2316 C2322 0.950 . S
H2317 C2323 0.950 . S
H2318 C2324 0.949 . S
C2319 H2314 0.950 . S
C2319 C2321 1.327 . S
C2319 C2325 1.429 . S
C2320 C2312 1.574 . S
C2320 H2315 0.949 . S
C2320 C2326 1.368 . S
C2321 C2305 1.349 . S
C2321 H2313 0.950 . S
C2321 C2319 1.327 . S
C2322 C2310 1.349 . S
C2322 H2316 0.950 . S
C2322 C2323 1.327 . S
C2323 H2317 0.950 . S
C2323 C2322 1.327 . S
C2323 C2327 1.429 . S
C2324 C2307 1.574 . S
C2324 H2318 0.949 . S
C2324 C2328 1.368 . S
C2325 C2306 1.429 . S
C2325 C2319 1.429 . S
C2325 C2326 1.523 . S
C2326 C2307 1.368 . S
C2326 C2320 1.368 . S
C2326 C2325 1.523 . S
C2327 C2311 1.429 . S
C2327 C2323 1.429 . S
C2327 C2328 1.523 . S
C2328 C2312 1.368 . S
C2328 C2324 1.368 . S
C2328 C2327 1.523 . S
H2329 C2304 0.950 . S
H2330 C2306 0.950 . S
H2331 C2307 0.949 . S
H2332 C2309 0.950 . S
H2333 C2311 0.950 . S
C2334 C2335 1.349 . S
C2334 C2336 1.327 . S
C2334 H2359 0.950 . S
C2335 C2334 1.349 . S
C2335 C2351 1.349 . S
C2336 C2334 1.327 . S
C2336 C2355 1.429 1_655 S
C2336 H2360 0.950 . S
C2337 C2354 1.574 . S
C2337 C2356 1.368 . S
C2337 H2361 0.949 . S
H2338 C2342 0.949 . S
C2339 C2340 1.349 . S
C2339 C2341 1.327 . S
C2339 H2362 0.950 . S
C2340 C2339 1.349 . S
C2340 C2352 1.349 . S
C2341 C2339 1.327 . S
C2341 C2357 1.429 . S
C2341 H2363 0.950 . S
C2342 H2338 0.949 . S
C2342 C2350 1.574 . S
C2342 C2358 1.368 . S
H2343 C2351 0.950 . S
H2344 C2349 0.950 . S
H2345 C2350 0.949 . S
H2346 C2352 0.950 . S
H2347 C2353 0.950 . S
H2348 C2354 0.949 . S
C2349 H2344 0.950 . S
C2349 C2351 1.327 1_455 S
C2349 C2355 1.429 . S
C2350 C2342 1.574 . S
C2350 H2345 0.949 . S
C2350 C2356 1.368 . S
C2351 C2335 1.349 . S
C2351 H2343 0.950 . S
C2351 C2349 1.327 1_655 S
C2352 C2340 1.349 . S
C2352 H2346 0.950 . S
C2352 C2353 1.327 . S
C2353 H2347 0.950 . S
C2353 C2352 1.327 . S
C2353 C2357 1.429 . S
C2354 C2337 1.574 . S
C2354 H2348 0.949 . S
C2354 C2358 1.368 . S
C2355 C2336 1.429 1_455 S
C2355 C2349 1.429 . S
C2355 C2356 1.523 . S
C2356 C2337 1.368 . S
C2356 C2350 1.368 . S
C2356 C2355 1.523 . S
C2357 C2341 1.429 . S
C2357 C2353 1.429 . S
C2357 C2358 1.523 . S
C2358 C2342 1.368 . S
C2358 C2354 1.368 . S
C2358 C2357 1.523 . S
H2359 C2334 0.950 . S
H2360 C2336 0.950 . S
H2361 C2337 0.949 . S
H2362 C2339 0.950 . S
H2363 C2341 0.950 . S
C2364 C2365 1.349 . S
C2364 C2366 1.327 . S
C2364 H2389 0.950 . S
C2365 C2364 1.349 . S
C2365 C2381 1.349 . S
C2366 C2364 1.327 . S
C2366 C2385 1.429 . S
C2366 H2390 0.950 . S
C2367 C2384 1.574 . S
C2367 C2386 1.368 . S
C2367 H2391 0.949 . S
H2368 C2372 0.949 . S
C2369 C2370 1.349 . S
C2369 C2371 1.327 . S
C2369 H2392 0.950 . S
C2370 C2369 1.349 . S
C2370 C2382 1.349 . S
C2371 C2369 1.327 . S
C2371 C2387 1.429 . S
C2371 H2393 0.950 . S
C2372 H2368 0.949 . S
C2372 C2380 1.574 . S
C2372 C2388 1.368 . S
H2373 C2381 0.950 . S
H2374 C2379 0.950 . S
H2375 C2380 0.949 . S
H2376 C2382 0.950 . S
H2377 C2383 0.950 . S
H2378 C2384 0.949 . S
C2379 H2374 0.950 . S
C2379 C2381 1.327 . S
C2379 C2385 1.429 . S
C2380 C2372 1.574 . S
C2380 H2375 0.949 . S
C2380 C2386 1.368 . S
C2381 C2365 1.349 . S
C2381 H2373 0.950 . S
C2381 C2379 1.327 . S
C2382 C2370 1.349 . S
C2382 H2376 0.950 . S
C2382 C2383 1.327 . S
C2383 H2377 0.950 . S
C2383 C2382 1.327 . S
C2383 C2387 1.429 . S
C2384 C2367 1.574 . S
C2384 H2378 0.949 . S
C2384 C2388 1.368 . S
C2385 C2366 1.429 . S
C2385 C2379 1.429 . S
C2385 C2386 1.523 . S
C2386 C2367 1.368 . S
C2386 C2380 1.368 . S
C2386 C2385 1.523 . S
C2387 C2371 1.429 . S
C2387 C2383 1.429 . S
C2387 C2388 1.523 . S
C2388 C2372 1.368 . S
C2388 C2384 1.368 . S
C2388 C2387 1.523 . S
H2389 C2364 0.950 . S
H2390 C2366 0.950 . S
H2391 C2367 0.949 . S
H2392 C2369 0.950 . S
H2393 C2371 0.950 . S
C2394 C2395 1.349 . S
C2394 C2396 1.327 . S
C2394 H2419 0.950 . S
C2395 C2394 1.349 . S
C2395 C2411 1.349 . S
C2396 C2394 1.327 . S
C2396 C2415 1.429 . S
C2396 H2420 0.950 . S
C2397 C2414 1.574 . S
C2397 C2416 1.368 . S
C2397 H2421 0.949 . S
H2398 C2402 0.949 . S
C2399 C2400 1.349 . S
C2399 C2401 1.327 . S
C2399 H2422 0.950 . S
C2400 C2399 1.349 . S
C2400 C2412 1.349 . S
C2401 C2399 1.327 . S
C2401 C2417 1.429 1_455 S
C2401 H2423 0.950 . S
C2402 H2398 0.949 . S
C2402 C2410 1.574 . S
C2402 C2418 1.368 . S
H2403 C2411 0.950 . S
H2404 C2409 0.950 . S
H2405 C2410 0.949 . S
H2406 C2412 0.950 . S
H2407 C2413 0.950 . S
H2408 C2414 0.949 . S
C2409 H2404 0.950 . S
C2409 C2411 1.327 . S
C2409 C2415 1.429 . S
C2410 C2402 1.574 . S
C2410 H2405 0.949 . S
C2410 C2416 1.368 . S
C2411 C2395 1.349 . S
C2411 H2403 0.950 . S
C2411 C2409 1.327 . S
C2412 C2400 1.349 . S
C2412 H2406 0.950 . S
C2412 C2413 1.327 1_455 S
C2413 H2407 0.950 . S
C2413 C2412 1.327 1_655 S
C2413 C2417 1.429 . S
C2414 C2397 1.574 . S
C2414 H2408 0.949 . S
C2414 C2418 1.368 . S
C2415 C2396 1.429 . S
C2415 C2409 1.429 . S
C2415 C2416 1.523 . S
C2416 C2397 1.368 . S
C2416 C2410 1.368 . S
C2416 C2415 1.523 . S
C2417 C2401 1.429 1_655 S
C2417 C2413 1.429 . S
C2417 C2418 1.523 . S
C2418 C2402 1.368 . S
C2418 C2414 1.368 . S
C2418 C2417 1.523 . S
H2419 C2394 0.950 . S
H2420 C2396 0.950 . S
H2421 C2397 0.949 . S
H2422 C2399 0.950 . S
H2423 C2401 0.950 . S
C2424 C2425 1.349 . S
C2424 C2426 1.327 . S
C2424 H2449 0.950 . S
C2425 C2424 1.349 . S
C2425 C2441 1.349 . S
C2426 C2424 1.327 . S
C2426 C2445 1.429 . S
C2426 H2450 0.950 . S
C2427 C2444 1.574 . S
C2427 C2446 1.368 . S
C2427 H2451 0.949 . S
H2428 C2432 0.949 . S
C2429 C2430 1.349 . S
C2429 C2431 1.327 . S
C2429 H2452 0.950 . S
C2430 C2429 1.349 . S
C2430 C2442 1.349 . S
C2431 C2429 1.327 . S
C2431 C2447 1.429 . S
C2431 H2453 0.950 . S
C2432 H2428 0.949 . S
C2432 C2440 1.574 . S
C2432 C2448 1.368 . S
H2433 C2441 0.950 . S
H2434 C2439 0.950 . S
H2435 C2440 0.949 . S
H2436 C2442 0.950 . S
H2437 C2443 0.950 . S
H2438 C2444 0.949 . S
C2439 H2434 0.950 . S
C2439 C2441 1.327 . S
C2439 C2445 1.429 . S
C2440 C2432 1.574 . S
C2440 H2435 0.949 . S
C2440 C2446 1.368 . S
C2441 C2425 1.349 . S
C2441 H2433 0.950 . S
C2441 C2439 1.327 . S
C2442 C2430 1.349 . S
C2442 H2436 0.950 . S
C2442 C2443 1.327 . S
C2443 H2437 0.950 . S
C2443 C2442 1.327 . S
C2443 C2447 1.429 . S
C2444 C2427 1.574 . S
C2444 H2438 0.949 . S
C2444 C2448 1.368 . S
C2445 C2426 1.429 . S
C2445 C2439 1.429 . S
C2445 C2446 1.523 . S
C2446 C2427 1.368 . S
C2446 C2440 1.368 . S
C2446 C2445 1.523 . S
C2447 C2431 1.429 . S
C2447 C2443 1.429 . S
C2447 C2448 1.523 . S
C2448 C2432 1.368 . S
C2448 C2444 1.368 . S
C2448 C2447 1.523 . S
H2449 C2424 0.950 . S
H2450 C2426 0.950 . S
H2451 C2427 0.949 . S
H2452 C2429 0.950 . S
H2453 C2431 0.950 . S
C2454 C2455 1.349 . S
C2454 C2456 1.327 . S
C2454 H2479 0.950 . S
C2455 C2454 1.349 . S
C2455 C2471 1.349 . S
C2456 C2454 1.327 . S
C2456 C2475 1.429 . S
C2456 H2480 0.950 . S
C2457 C2474 1.574 . S
C2457 C2476 1.368 . S
C2457 H2481 0.949 . S
H2458 C2462 0.949 . S
C2459 C2460 1.349 . S
C2459 C2461 1.327 . S
C2459 H2482 0.950 . S
C2460 C2459 1.349 . S
C2460 C2472 1.349 . S
C2461 C2459 1.327 . S
C2461 C2477 1.429 . S
C2461 H2483 0.950 . S
C2462 H2458 0.949 . S
C2462 C2470 1.574 . S
C2462 C2478 1.368 . S
H2463 C2471 0.950 . S
H2464 C2469 0.950 . S
H2465 C2470 0.949 . S
H2466 C2472 0.950 . S
H2467 C2473 0.950 . S
H2468 C2474 0.949 . S
C2469 H2464 0.950 . S
C2469 C2471 1.327 . S
C2469 C2475 1.429 . S
C2470 C2462 1.574 . S
C2470 H2465 0.949 . S
C2470 C2476 1.368 . S
C2471 C2455 1.349 . S
C2471 H2463 0.950 . S
C2471 C2469 1.327 . S
C2472 C2460 1.349 . S
C2472 H2466 0.950 . S
C2472 C2473 1.327 . S
C2473 H2467 0.950 . S
C2473 C2472 1.327 . S
C2473 C2477 1.429 . S
C2474 C2457 1.574 . S
C2474 H2468 0.949 . S
C2474 C2478 1.368 . S
C2475 C2456 1.429 . S
C2475 C2469 1.429 . S
C2475 C2476 1.523 . S
C2476 C2457 1.368 . S
C2476 C2470 1.368 . S
C2476 C2475 1.523 . S
C2477 C2461 1.429 . S
C2477 C2473 1.429 . S
C2477 C2478 1.523 . S
C2478 C2462 1.368 . S
C2478 C2474 1.368 . S
C2478 C2477 1.523 . S
H2479 C2454 0.950 . S
H2480 C2456 0.950 . S
H2481 C2457 0.949 . S
H2482 C2459 0.950 . S
H2483 C2461 0.950 . S
C2484 C2485 1.349 . S
C2484 C2486 1.327 . S
C2484 H2509 0.950 . S
C2485 C2484 1.349 . S
C2485 C2501 1.349 . S
C2486 C2484 1.327 . S
C2486 C2505 1.429 . S
C2486 H2510 0.950 . S
C2487 C2504 1.574 . S
C2487 C2506 1.368 . S
C2487 H2511 0.949 . S
H2488 C2492 0.949 . S
C2489 C2490 1.349 . S
C2489 C2491 1.327 . S
C2489 H2512 0.950 . S
C2490 C2489 1.349 . S
C2490 C2502 1.349 . S
C2491 C2489 1.327 . S
C2491 C2507 1.429 . S
C2491 H2513 0.950 . S
C2492 H2488 0.949 . S
C2492 C2500 1.574 . S
C2492 C2508 1.368 . S
H2493 C2501 0.950 . S
H2494 C2499 0.950 . S
H2495 C2500 0.949 . S
H2496 C2502 0.950 . S
H2497 C2503 0.950 . S
H2498 C2504 0.949 . S
C2499 H2494 0.950 . S
C2499 C2501 1.327 . S
C2499 C2505 1.429 . S
C2500 C2492 1.574 . S
C2500 H2495 0.949 . S
C2500 C2506 1.368 . S
C2501 C2485 1.349 . S
C2501 H2493 0.950 . S
C2501 C2499 1.327 . S
C2502 C2490 1.349 . S
C2502 H2496 0.950 . S
C2502 C2503 1.327 . S
C2503 H2497 0.950 . S
C2503 C2502 1.327 . S
C2503 C2507 1.429 . S
C2504 C2487 1.574 . S
C2504 H2498 0.949 . S
C2504 C2508 1.368 . S
C2505 C2486 1.429 . S
C2505 C2499 1.429 . S
C2505 C2506 1.523 . S
C2506 C2487 1.368 . S
C2506 C2500 1.368 . S
C2506 C2505 1.523 . S
C2507 C2491 1.429 . S
C2507 C2503 1.429 . S
C2507 C2508 1.523 . S
C2508 C2492 1.368 . S
C2508 C2504 1.368 . S
C2508 C2507 1.523 . S
H2509 C2484 0.950 . S
H2510 C2486 0.950 . S
H2511 C2487 0.949 . S
H2512 C2489 0.950 . S
H2513 C2491 0.950 . S
C2514 C2515 1.349 . S
C2514 C2516 1.327 . S
C2514 H2539 0.950 . S
C2515 C2514 1.349 . S
C2515 C2531 1.349 . S
C2516 C2514 1.327 . S
C2516 C2535 1.429 . S
C2516 H2540 0.950 . S
C2517 C2534 1.574 . S
C2517 C2536 1.368 . S
C2517 H2541 0.949 . S
H2518 C2522 0.949 . S
C2519 C2520 1.349 . S
C2519 C2521 1.327 . S
C2519 H2542 0.950 . S
C2520 C2519 1.349 . S
C2520 C2532 1.349 . S
C2521 C2519 1.327 . S
C2521 C2537 1.429 . S
C2521 H2543 0.950 . S
C2522 H2518 0.949 . S
C2522 C2530 1.574 . S
C2522 C2538 1.368 . S
H2523 C2531 0.950 . S
H2524 C2529 0.950 . S
H2525 C2530 0.949 . S
H2526 C2532 0.950 . S
H2527 C2533 0.950 . S
H2528 C2534 0.949 . S
C2529 H2524 0.950 . S
C2529 C2531 1.327 . S
C2529 C2535 1.429 . S
C2530 C2522 1.574 . S
C2530 H2525 0.949 . S
C2530 C2536 1.368 . S
C2531 C2515 1.349 . S
C2531 H2523 0.950 . S
C2531 C2529 1.327 . S
C2532 C2520 1.349 . S
C2532 H2526 0.950 . S
C2532 C2533 1.327 . S
C2533 H2527 0.950 . S
C2533 C2532 1.327 . S
C2533 C2537 1.429 . S
C2534 C2517 1.574 . S
C2534 H2528 0.949 . S
C2534 C2538 1.368 . S
C2535 C2516 1.429 . S
C2535 C2529 1.429 . S
C2535 C2536 1.523 . S
C2536 C2517 1.368 . S
C2536 C2530 1.368 . S
C2536 C2535 1.523 . S
C2537 C2521 1.429 . S
C2537 C2533 1.429 . S
C2537 C2538 1.523 . S
C2538 C2522 1.368 . S
C2538 C2534 1.368 . S
C2538 C2537 1.523 . S
H2539 C2514 0.950 . S
H2540 C2516 0.950 . S
H2541 C2517 0.949 . S
H2542 C2519 0.950 . S
H2543 C2521 0.950 . S
C2544 C2545 1.349 . S
C2544 C2546 1.327 . S
C2544 H2569 0.950 . S
C2545 C2544 1.349 . S
C2545 C2561 1.349 . S
C2546 C2544 1.327 . S
C2546 C2565 1.429 . S
C2546 H2570 0.950 . S
C2547 C2564 1.574 . S
C2547 C2566 1.368 . S
C2547 H2571 0.949 . S
H2548 C2552 0.949 . S
C2549 C2550 1.349 . S
C2549 C2551 1.327 . S
C2549 H2572 0.950 . S
C2550 C2549 1.349 . S
C2550 C2562 1.349 . S
C2551 C2549 1.327 . S
C2551 C2567 1.429 . S
C2551 H2573 0.950 . S
C2552 H2548 0.949 . S
C2552 C2560 1.574 . S
C2552 C2568 1.368 . S
H2553 C2561 0.950 . S
H2554 C2559 0.950 . S
H2555 C2560 0.949 . S
H2556 C2562 0.950 . S
H2557 C2563 0.950 . S
H2558 C2564 0.949 . S
C2559 H2554 0.950 . S
C2559 C2561 1.327 . S
C2559 C2565 1.429 . S
C2560 C2552 1.574 . S
C2560 H2555 0.949 . S
C2560 C2566 1.368 . S
C2561 C2545 1.349 . S
C2561 H2553 0.950 . S
C2561 C2559 1.327 . S
C2562 C2550 1.349 . S
C2562 H2556 0.950 . S
C2562 C2563 1.327 . S
C2563 H2557 0.950 . S
C2563 C2562 1.327 . S
C2563 C2567 1.429 . S
C2564 C2547 1.574 . S
C2564 H2558 0.949 . S
C2564 C2568 1.368 . S
C2565 C2546 1.429 . S
C2565 C2559 1.429 . S
C2565 C2566 1.523 . S
C2566 C2547 1.368 . S
C2566 C2560 1.368 . S
C2566 C2565 1.523 . S
C2567 C2551 1.429 . S
C2567 C2563 1.429 . S
C2567 C2568 1.523 . S
C2568 C2552 1.368 . S
C2568 C2564 1.368 . S
C2568 C2567 1.523 . S
H2569 C2544 0.950 . S
H2570 C2546 0.950 . S
H2571 C2547 0.949 . S
H2572 C2549 0.950 . S
H2573 C2551 0.950 . S
C2574 C2575 1.349 . S
C2574 C2576 1.327 . S
C2574 H2599 0.950 . S
C2575 C2574 1.349 . S
C2575 C2591 1.349 . S
C2576 C2574 1.327 . S
C2576 C2595 1.429 . S
C2576 H2600 0.950 . S
C2577 C2594 1.574 . S
C2577 C2596 1.368 . S
C2577 H2601 0.949 . S
H2578 C2582 0.949 . S
C2579 C2580 1.349 . S
C2579 C2581 1.327 . S
C2579 H2602 0.950 . S
C2580 C2579 1.349 . S
C2580 C2592 1.349 . S
C2581 C2579 1.327 . S
C2581 C2597 1.429 . S
C2581 H2603 0.950 . S
C2582 H2578 0.949 . S
C2582 C2590 1.574 . S
C2582 C2598 1.368 . S
H2583 C2591 0.950 . S
H2584 C2589 0.950 . S
H2585 C2590 0.949 . S
H2586 C2592 0.950 . S
H2587 C2593 0.950 . S
H2588 C2594 0.949 . S
C2589 H2584 0.950 . S
C2589 C2591 1.327 . S
C2589 C2595 1.429 . S
C2590 C2582 1.574 . S
C2590 H2585 0.949 . S
C2590 C2596 1.368 . S
C2591 C2575 1.349 . S
C2591 H2583 0.950 . S
C2591 C2589 1.327 . S
C2592 C2580 1.349 . S
C2592 H2586 0.950 . S
C2592 C2593 1.327 . S
C2593 H2587 0.950 . S
C2593 C2592 1.327 . S
C2593 C2597 1.429 . S
C2594 C2577 1.574 . S
C2594 H2588 0.949 . S
C2594 C2598 1.368 . S
C2595 C2576 1.429 . S
C2595 C2589 1.429 . S
C2595 C2596 1.523 . S
C2596 C2577 1.368 . S
C2596 C2590 1.368 . S
C2596 C2595 1.523 . S
C2597 C2581 1.429 . S
C2597 C2593 1.429 . S
C2597 C2598 1.523 . S
C2598 C2582 1.368 . S
C2598 C2594 1.368 . S
C2598 C2597 1.523 . S
H2599 C2574 0.950 . S
H2600 C2576 0.950 . S
H2601 C2577 0.949 . S
H2602 C2579 0.950 . S
H2603 C2581 0.950 . S
C2604 C2605 1.349 . S
C2604 C2606 1.327 . S
C2604 H2629 0.950 . S
C2605 C2604 1.349 . S
C2605 C2621 1.349 . S
C2606 C2604 1.327 . S
C2606 C2625 1.429 . S
C2606 H2630 0.950 . S
C2607 C2624 1.574 . S
C2607 C2626 1.368 . S
C2607 H2631 0.949 . S
H2608 C2612 0.949 . S
C2609 C2610 1.349 . S
C2609 C2611 1.327 . S
C2609 H2632 0.950 . S
C2610 C2609 1.349 . S
C2610 C2622 1.349 . S
C2611 C2609 1.327 . S
C2611 C2627 1.429 . S
C2611 H2633 0.950 . S
C2612 H2608 0.949 . S
C2612 C2620 1.574 . S
C2612 C2628 1.368 . S
H2613 C2621 0.950 . S
H2614 C2619 0.950 . S
H2615 C2620 0.949 . S
H2616 C2622 0.950 . S
H2617 C2623 0.950 . S
H2618 C2624 0.949 . S
C2619 H2614 0.950 . S
C2619 C2621 1.327 . S
C2619 C2625 1.429 . S
C2620 C2612 1.574 . S
C2620 H2615 0.949 . S
C2620 C2626 1.368 . S
C2621 C2605 1.349 . S
C2621 H2613 0.950 . S
C2621 C2619 1.327 . S
C2622 C2610 1.349 . S
C2622 H2616 0.950 . S
C2622 C2623 1.327 . S
C2623 H2617 0.950 . S
C2623 C2622 1.327 . S
C2623 C2627 1.429 . S
C2624 C2607 1.574 . S
C2624 H2618 0.949 . S
C2624 C2628 1.368 . S
C2625 C2606 1.429 . S
C2625 C2619 1.429 . S
C2625 C2626 1.523 . S
C2626 C2607 1.368 . S
C2626 C2620 1.368 . S
C2626 C2625 1.523 . S
C2627 C2611 1.429 . S
C2627 C2623 1.429 . S
C2627 C2628 1.523 . S
C2628 C2612 1.368 . S
C2628 C2624 1.368 . S
C2628 C2627 1.523 . S
H2629 C2604 0.950 . S
H2630 C2606 0.950 . S
H2631 C2607 0.949 . S
H2632 C2609 0.950 . S
H2633 C2611 0.950 . S
C2634 C2635 1.349 . S
C2634 C2636 1.327 . S
C2634 H2659 0.950 . S
C2635 C2634 1.349 . S
C2635 C2651 1.349 . S
C2636 C2634 1.327 . S
C2636 C2655 1.429 . S
C2636 H2660 0.950 . S
C2637 C2654 1.574 . S
C2637 C2656 1.368 . S
C2637 H2661 0.949 . S
H2638 C2642 0.949 . S
C2639 C2640 1.349 . S
C2639 C2641 1.327 . S
C2639 H2662 0.950 . S
C2640 C2639 1.349 . S
C2640 C2652 1.349 . S
C2641 C2639 1.327 . S
C2641 C2657 1.429 . S
C2641 H2663 0.950 . S
C2642 H2638 0.949 . S
C2642 C2650 1.574 . S
C2642 C2658 1.368 . S
H2643 C2651 0.950 . S
H2644 C2649 0.950 . S
H2645 C2650 0.949 . S
H2646 C2652 0.950 . S
H2647 C2653 0.950 . S
H2648 C2654 0.949 . S
C2649 H2644 0.950 . S
C2649 C2651 1.327 . S
C2649 C2655 1.429 . S
C2650 C2642 1.574 . S
C2650 H2645 0.949 . S
C2650 C2656 1.368 . S
C2651 C2635 1.349 . S
C2651 H2643 0.950 . S
C2651 C2649 1.327 . S
C2652 C2640 1.349 . S
C2652 H2646 0.950 . S
C2652 C2653 1.327 . S
C2653 H2647 0.950 . S
C2653 C2652 1.327 . S
C2653 C2657 1.429 . S
C2654 C2637 1.574 . S
C2654 H2648 0.949 . S
C2654 C2658 1.368 . S
C2655 C2636 1.429 . S
C2655 C2649 1.429 . S
C2655 C2656 1.523 . S
C2656 C2637 1.368 . S
C2656 C2650 1.368 . S
C2656 C2655 1.523 . S
C2657 C2641 1.429 . S
C2657 C2653 1.429 . S
C2657 C2658 1.523 . S
C2658 C2642 1.368 . S
C2658 C2654 1.368 . S
C2658 C2657 1.523 . S
H2659 C2634 0.950 . S
H2660 C2636 0.950 . S
H2661 C2637 0.949 . S
H2662 C2639 0.950 . S
H2663 C2641 0.950 . S
C2664 C2665 1.349 . S
C2664 C2666 1.327 . S
C2664 H2689 0.950 . S
C2665 C2664 1.349 . S
C2665 C2681 1.349 . S
C2666 C2664 1.327 . S
C2666 C2685 1.429 . S
C2666 H2690 0.950 . S
C2667 C2684 1.574 . S
C2667 C2686 1.368 . S
C2667 H2691 0.949 . S
H2668 C2672 0.949 . S
C2669 C2670 1.349 . S
C2669 C2671 1.327 . S
C2669 H2692 0.950 . S
C2670 C2669 1.349 . S
C2670 C2682 1.349 . S
C2671 C2669 1.327 . S
C2671 C2687 1.429 . S
C2671 H2693 0.950 . S
C2672 H2668 0.949 . S
C2672 C2680 1.574 . S
C2672 C2688 1.368 . S
H2673 C2681 0.950 . S
H2674 C2679 0.950 . S
H2675 C2680 0.949 . S
H2676 C2682 0.950 . S
H2677 C2683 0.950 . S
H2678 C2684 0.949 . S
C2679 H2674 0.950 . S
C2679 C2681 1.327 . S
C2679 C2685 1.429 . S
C2680 C2672 1.574 . S
C2680 H2675 0.949 . S
C2680 C2686 1.368 . S
C2681 C2665 1.349 . S
C2681 H2673 0.950 . S
C2681 C2679 1.327 . S
C2682 C2670 1.349 . S
C2682 H2676 0.950 . S
C2682 C2683 1.327 . S
C2683 H2677 0.950 . S
C2683 C2682 1.327 . S
C2683 C2687 1.429 . S
C2684 C2667 1.574 . S
C2684 H2678 0.949 . S
C2684 C2688 1.368 . S
C2685 C2666 1.429 . S
C2685 C2679 1.429 . S
C2685 C2686 1.523 . S
C2686 C2667 1.368 . S
C2686 C2680 1.368 . S
C2686 C2685 1.523 . S
C2687 C2671 1.429 . S
C2687 C2683 1.429 . S
C2687 C2688 1.523 . S
C2688 C2672 1.368 . S
C2688 C2684 1.368 . S
C2688 C2687 1.523 . S
H2689 C2664 0.950 . S
H2690 C2666 0.950 . S
H2691 C2667 0.949 . S
H2692 C2669 0.950 . S
H2693 C2671 0.950 . S
C2694 C2695 1.349 . S
C2694 C2696 1.327 . S
C2694 H2719 0.950 . S
C2695 C2694 1.349 . S
C2695 C2711 1.349 . S
C2696 C2694 1.327 . S
C2696 C2715 1.429 . S
C2696 H2720 0.950 . S
C2697 C2714 1.574 . S
C2697 C2716 1.368 . S
C2697 H2721 0.949 . S
H2698 C2702 0.949 . S
C2699 C2700 1.349 . S
C2699 C2701 1.327 . S
C2699 H2722 0.950 . S
C2700 C2699 1.349 . S
C2700 C2712 1.349 . S
C2701 C2699 1.327 . S
C2701 C2717 1.429 . S
C2701 H2723 0.950 . S
C2702 H2698 0.949 . S
C2702 C2710 1.574 . S
C2702 C2718 1.368 . S
H2703 C2711 0.950 . S
H2704 C2709 0.950 . S
H2705 C2710 0.949 . S
H2706 C2712 0.950 . S
H2707 C2713 0.950 . S
H2708 C2714 0.949 . S
C2709 H2704 0.950 . S
C2709 C2711 1.327 . S
C2709 C2715 1.429 . S
C2710 C2702 1.574 . S
C2710 H2705 0.949 . S
C2710 C2716 1.368 . S
C2711 C2695 1.349 . S
C2711 H2703 0.950 . S
C2711 C2709 1.327 . S
C2712 C2700 1.349 . S
C2712 H2706 0.950 . S
C2712 C2713 1.327 . S
C2713 H2707 0.950 . S
C2713 C2712 1.327 . S
C2713 C2717 1.429 . S
C2714 C2697 1.574 . S
C2714 H2708 0.949 . S
C2714 C2718 1.368 . S
C2715 C2696 1.429 . S
C2715 C2709 1.429 . S
C2715 C2716 1.523 . S
C2716 C2697 1.368 . S
C2716 C2710 1.368 . S
C2716 C2715 1.523 . S
C2717 C2701 1.429 . S
C2717 C2713 1.429 . S
C2717 C2718 1.523 . S
C2718 C2702 1.368 . S
C2718 C2714 1.368 . S
C2718 C2717 1.523 . S
H2719 C2694 0.950 . S
H2720 C2696 0.950 . S
H2721 C2697 0.949 . S
H2722 C2699 0.950 . S
H2723 C2701 0.950 . S
C2724 C2725 1.349 . S
C2724 C2726 1.327 . S
C2724 H2749 0.950 . S
C2725 C2724 1.349 . S
C2725 C2741 1.349 . S
C2726 C2724 1.327 . S
C2726 C2745 1.429 . S
C2726 H2750 0.950 . S
C2727 C2744 1.574 . S
C2727 C2746 1.368 . S
C2727 H2751 0.949 . S
H2728 C2732 0.949 . S
C2729 C2730 1.349 . S
C2729 C2731 1.327 . S
C2729 H2752 0.950 . S
C2730 C2729 1.349 . S
C2730 C2742 1.349 . S
C2731 C2729 1.327 . S
C2731 C2747 1.429 . S
C2731 H2753 0.950 . S
C2732 H2728 0.949 . S
C2732 C2740 1.574 . S
C2732 C2748 1.368 . S
H2733 C2741 0.950 . S
H2734 C2739 0.950 . S
H2735 C2740 0.949 . S
H2736 C2742 0.950 . S
H2737 C2743 0.950 . S
H2738 C2744 0.949 . S
C2739 H2734 0.950 . S
C2739 C2741 1.327 . S
C2739 C2745 1.429 . S
C2740 C2732 1.574 . S
C2740 H2735 0.949 . S
C2740 C2746 1.368 . S
C2741 C2725 1.349 . S
C2741 H2733 0.950 . S
C2741 C2739 1.327 . S
C2742 C2730 1.349 . S
C2742 H2736 0.950 . S
C2742 C2743 1.327 . S
C2743 H2737 0.950 . S
C2743 C2742 1.327 . S
C2743 C2747 1.429 . S
C2744 C2727 1.574 . S
C2744 H2738 0.949 . S
C2744 C2748 1.368 . S
C2745 C2726 1.429 . S
C2745 C2739 1.429 . S
C2745 C2746 1.523 . S
C2746 C2727 1.368 . S
C2746 C2740 1.368 . S
C2746 C2745 1.523 . S
C2747 C2731 1.429 . S
C2747 C2743 1.429 . S
C2747 C2748 1.523 . S
C2748 C2732 1.368 . S
C2748 C2744 1.368 . S
C2748 C2747 1.523 . S
H2749 C2724 0.950 . S
H2750 C2726 0.950 . S
H2751 C2727 0.949 . S
H2752 C2729 0.950 . S
H2753 C2731 0.950 . S
C2754 C2755 1.349 . S
C2754 C2756 1.327 . S
C2754 H2779 0.950 . S
C2755 C2754 1.349 . S
C2755 C2771 1.349 . S
C2756 C2754 1.327 . S
C2756 C2775 1.429 . S
C2756 H2780 0.950 . S
C2757 C2774 1.574 . S
C2757 C2776 1.368 . S
C2757 H2781 0.949 . S
H2758 C2762 0.949 . S
C2759 C2760 1.349 . S
C2759 C2761 1.327 . S
C2759 H2782 0.950 . S
C2760 C2759 1.349 . S
C2760 C2772 1.349 . S
C2761 C2759 1.327 . S
C2761 C2777 1.429 . S
C2761 H2783 0.950 . S
C2762 H2758 0.949 . S
C2762 C2770 1.574 . S
C2762 C2778 1.368 . S
H2763 C2771 0.950 . S
H2764 C2769 0.950 . S
H2765 C2770 0.949 . S
H2766 C2772 0.950 . S
H2767 C2773 0.950 . S
H2768 C2774 0.949 . S
C2769 H2764 0.950 . S
C2769 C2771 1.327 . S
C2769 C2775 1.429 . S
C2770 C2762 1.574 . S
C2770 H2765 0.949 . S
C2770 C2776 1.368 . S
C2771 C2755 1.349 . S
C2771 H2763 0.950 . S
C2771 C2769 1.327 . S
C2772 C2760 1.349 . S
C2772 H2766 0.950 . S
C2772 C2773 1.327 . S
C2773 H2767 0.950 . S
C2773 C2772 1.327 . S
C2773 C2777 1.429 . S
C2774 C2757 1.574 . S
C2774 H2768 0.949 . S
C2774 C2778 1.368 . S
C2775 C2756 1.429 . S
C2775 C2769 1.429 . S
C2775 C2776 1.523 . S
C2776 C2757 1.368 . S
C2776 C2770 1.368 . S
C2776 C2775 1.523 . S
C2777 C2761 1.429 . S
C2777 C2773 1.429 . S
C2777 C2778 1.523 . S
C2778 C2762 1.368 . S
C2778 C2774 1.368 . S
C2778 C2777 1.523 . S
H2779 C2754 0.950 . S
H2780 C2756 0.950 . S
H2781 C2757 0.949 . S
H2782 C2759 0.950 . S
H2783 C2761 0.950 . S
C2784 C2785 1.349 . S
C2784 C2786 1.327 . S
C2784 H2809 0.950 . S
C2785 C2784 1.349 . S
C2785 C2801 1.349 . S
C2786 C2784 1.327 . S
C2786 C2805 1.429 . S
C2786 H2810 0.950 . S
C2787 C2804 1.574 . S
C2787 C2806 1.368 . S
C2787 H2811 0.949 . S
H2788 C2792 0.949 . S
C2789 C2790 1.349 . S
C2789 C2791 1.327 . S
C2789 H2812 0.950 . S
C2790 C2789 1.349 . S
C2790 C2802 1.349 . S
C2791 C2789 1.327 . S
C2791 C2807 1.429 . S
C2791 H2813 0.950 . S
C2792 H2788 0.949 . S
C2792 C2800 1.574 . S
C2792 C2808 1.368 . S
H2793 C2801 0.950 . S
H2794 C2799 0.950 . S
H2795 C2800 0.949 . S
H2796 C2802 0.950 . S
H2797 C2803 0.950 . S
H2798 C2804 0.949 . S
C2799 H2794 0.950 . S
C2799 C2801 1.327 . S
C2799 C2805 1.429 . S
C2800 C2792 1.574 . S
C2800 H2795 0.949 . S
C2800 C2806 1.368 . S
C2801 C2785 1.349 . S
C2801 H2793 0.950 . S
C2801 C2799 1.327 . S
C2802 C2790 1.349 . S
C2802 H2796 0.950 . S
C2802 C2803 1.327 . S
C2803 H2797 0.950 . S
C2803 C2802 1.327 . S
C2803 C2807 1.429 . S
C2804 C2787 1.574 . S
C2804 H2798 0.949 . S
C2804 C2808 1.368 . S
C2805 C2786 1.429 . S
C2805 C2799 1.429 . S
C2805 C2806 1.523 . S
C2806 C2787 1.368 . S
C2806 C2800 1.368 . S
C2806 C2805 1.523 . S
C2807 C2791 1.429 . S
C2807 C2803 1.429 . S
C2807 C2808 1.523 . S
C2808 C2792 1.368 . S
C2808 C2804 1.368 . S
C2808 C2807 1.523 . S
H2809 C2784 0.950 . S
H2810 C2786 0.950 . S
H2811 C2787 0.949 . S
H2812 C2789 0.950 . S
H2813 C2791 0.950 . S
C2814 C2815 1.349 . S
C2814 C2816 1.327 . S
C2814 H2839 0.950 . S
C2815 C2814 1.349 . S
C2815 C2831 1.349 . S
C2816 C2814 1.327 . S
C2816 C2835 1.429 . S
C2816 H2840 0.950 . S
C2817 C2834 1.574 . S
C2817 C2836 1.368 . S
C2817 H2841 0.949 . S
H2818 C2822 0.949 . S
C2819 C2820 1.349 . S
C2819 C2821 1.327 . S
C2819 H2842 0.950 . S
C2820 C2819 1.349 . S
C2820 C2832 1.349 . S
C2821 C2819 1.327 . S
C2821 C2837 1.429 . S
C2821 H2843 0.950 . S
C2822 H2818 0.949 . S
C2822 C2830 1.574 . S
C2822 C2838 1.368 . S
H2823 C2831 0.950 . S
H2824 C2829 0.950 . S
H2825 C2830 0.949 . S
H2826 C2832 0.950 . S
H2827 C2833 0.950 . S
H2828 C2834 0.949 . S
C2829 H2824 0.950 . S
C2829 C2831 1.327 . S
C2829 C2835 1.429 . S
C2830 C2822 1.574 . S
C2830 H2825 0.949 . S
C2830 C2836 1.368 . S
C2831 C2815 1.349 . S
C2831 H2823 0.950 . S
C2831 C2829 1.327 . S
C2832 C2820 1.349 . S
C2832 H2826 0.950 . S
C2832 C2833 1.327 . S
C2833 H2827 0.950 . S
C2833 C2832 1.327 . S
C2833 C2837 1.429 . S
C2834 C2817 1.574 . S
C2834 H2828 0.949 . S
C2834 C2838 1.368 . S
C2835 C2816 1.429 . S
C2835 C2829 1.429 . S
C2835 C2836 1.523 . S
C2836 C2817 1.368 . S
C2836 C2830 1.368 . S
C2836 C2835 1.523 . S
C2837 C2821 1.429 . S
C2837 C2833 1.429 . S
C2837 C2838 1.523 . S
C2838 C2822 1.368 . S
C2838 C2834 1.368 . S
C2838 C2837 1.523 . S
H2839 C2814 0.950 . S
H2840 C2816 0.950 . S
H2841 C2817 0.949 . S
H2842 C2819 0.950 . S
H2843 C2821 0.950 . S
C2844 C2845 1.349 . S
C2844 C2846 1.327 1_545 S
C2844 H2869 0.950 . S
C2845 C2844 1.349 . S
C2845 C2861 1.349 . S
C2846 C2844 1.327 1_565 S
C2846 C2865 1.429 . S
C2846 H2870 0.950 . S
C2847 C2864 1.574 . S
C2847 C2866 1.368 . S
C2847 H2871 0.949 . S
H2848 C2852 0.949 . S
C2849 C2850 1.349 . S
C2849 C2851 1.327 . S
C2849 H2872 0.950 . S
C2850 C2849 1.349 . S
C2850 C2862 1.349 . S
C2851 C2849 1.327 . S
C2851 C2867 1.429 . S
C2851 H2873 0.950 . S
C2852 H2848 0.949 . S
C2852 C2860 1.574 . S
C2852 C2868 1.368 . S
H2853 C2861 0.950 . S
H2854 C2859 0.950 . S
H2855 C2860 0.949 . S
H2856 C2862 0.950 . S
H2857 C2863 0.950 . S
H2858 C2864 0.949 . S
C2859 H2854 0.950 . S
C2859 C2861 1.327 . S
C2859 C2865 1.429 1_545 S
C2860 C2852 1.574 . S
C2860 H2855 0.949 . S
C2860 C2866 1.368 . S
C2861 C2845 1.349 . S
C2861 H2853 0.950 . S
C2861 C2859 1.327 . S
C2862 C2850 1.349 . S
C2862 H2856 0.950 . S
C2862 C2863 1.327 . S
C2863 H2857 0.950 . S
C2863 C2862 1.327 . S
C2863 C2867 1.429 . S
C2864 C2847 1.574 . S
C2864 H2858 0.949 . S
C2864 C2868 1.368 . S
C2865 C2846 1.429 . S
C2865 C2859 1.429 1_565 S
C2865 C2866 1.523 . S
C2866 C2847 1.368 . S
C2866 C2860 1.368 . S
C2866 C2865 1.523 . S
C2867 C2851 1.429 . S
C2867 C2863 1.429 . S
C2867 C2868 1.523 . S
C2868 C2852 1.368 . S
C2868 C2864 1.368 . S
C2868 C2867 1.523 . S
H2869 C2844 0.950 . S
H2870 C2846 0.950 . S
H2871 C2847 0.949 . S
H2872 C2849 0.950 . S
H2873 C2851 0.950 . S
C2874 C2875 1.349 . S
C2874 C2876 1.327 . S
C2874 H2899 0.950 . S
C2875 C2874 1.349 . S
C2875 C2891 1.349 . S
C2876 C2874 1.327 . S
C2876 C2895 1.429 . S
C2876 H2900 0.950 . S
C2877 C2894 1.574 . S
C2877 C2896 1.368 . S
C2877 H2901 0.949 . S
H2878 C2882 0.949 . S
C2879 C2880 1.349 . S
C2879 C2881 1.327 . S
C2879 H2902 0.950 . S
C2880 C2879 1.349 . S
C2880 C2892 1.349 . S
C2881 C2879 1.327 . S
C2881 C2897 1.429 . S
C2881 H2903 0.950 . S
C2882 H2878 0.949 . S
C2882 C2890 1.574 . S
C2882 C2898 1.368 . S
H2883 C2891 0.950 . S
H2884 C2889 0.950 . S
H2885 C2890 0.949 . S
H2886 C2892 0.950 . S
H2887 C2893 0.950 . S
H2888 C2894 0.949 . S
C2889 H2884 0.950 . S
C2889 C2891 1.327 . S
C2889 C2895 1.429 . S
C2890 C2882 1.574 . S
C2890 H2885 0.949 . S
C2890 C2896 1.368 . S
C2891 C2875 1.349 . S
C2891 H2883 0.950 . S
C2891 C2889 1.327 . S
C2892 C2880 1.349 . S
C2892 H2886 0.950 . S
C2892 C2893 1.327 . S
C2893 H2887 0.950 . S
C2893 C2892 1.327 . S
C2893 C2897 1.429 . S
C2894 C2877 1.574 . S
C2894 H2888 0.949 . S
C2894 C2898 1.368 . S
C2895 C2876 1.429 . S
C2895 C2889 1.429 . S
C2895 C2896 1.523 . S
C2896 C2877 1.368 . S
C2896 C2890 1.368 . S
C2896 C2895 1.523 . S
C2897 C2881 1.429 . S
C2897 C2893 1.429 . S
C2897 C2898 1.523 . S
C2898 C2882 1.368 . S
C2898 C2894 1.368 . S
C2898 C2897 1.523 . S
H2899 C2874 0.950 . S
H2900 C2876 0.950 . S
H2901 C2877 0.949 . S
H2902 C2879 0.950 . S
H2903 C2881 0.950 . S
C2904 C2905 1.349 . S
C2904 C2906 1.327 1_565 S
C2904 H2929 0.950 . S
C2905 C2904 1.349 . S
C2905 C2921 1.349 . S
C2906 C2904 1.327 1_545 S
C2906 C2925 1.429 . S
C2906 H2930 0.950 . S
C2907 C2924 1.574 . S
C2907 C2926 1.368 . S
C2907 H2931 0.949 . S
H2908 C2912 0.949 . S
C2909 C2910 1.349 . S
C2909 C2911 1.327 . S
C2909 H2932 0.950 . S
C2910 C2909 1.349 . S
C2910 C2922 1.349 . S
C2911 C2909 1.327 . S
C2911 C2927 1.429 . S
C2911 H2933 0.950 . S
C2912 H2908 0.949 . S
C2912 C2920 1.574 . S
C2912 C2928 1.368 . S
H2913 C2921 0.950 . S
H2914 C2919 0.950 . S
H2915 C2920 0.949 . S
H2916 C2922 0.950 . S
H2917 C2923 0.950 . S
H2918 C2924 0.949 . S
C2919 H2914 0.950 . S
C2919 C2921 1.327 . S
C2919 C2925 1.429 1_565 S
C2920 C2912 1.574 . S
C2920 H2915 0.949 . S
C2920 C2926 1.368 . S
C2921 C2905 1.349 . S
C2921 H2913 0.950 . S
C2921 C2919 1.327 . S
C2922 C2910 1.349 . S
C2922 H2916 0.950 . S
C2922 C2923 1.327 . S
C2923 H2917 0.950 . S
C2923 C2922 1.327 . S
C2923 C2927 1.429 . S
C2924 C2907 1.574 . S
C2924 H2918 0.949 . S
C2924 C2928 1.368 . S
C2925 C2906 1.429 . S
C2925 C2919 1.429 1_545 S
C2925 C2926 1.523 . S
C2926 C2907 1.368 . S
C2926 C2920 1.368 . S
C2926 C2925 1.523 . S
C2927 C2911 1.429 . S
C2927 C2923 1.429 . S
C2927 C2928 1.523 . S
C2928 C2912 1.368 . S
C2928 C2924 1.368 . S
C2928 C2927 1.523 . S
H2929 C2904 0.950 . S
H2930 C2906 0.950 . S
H2931 C2907 0.949 . S
H2932 C2909 0.950 . S
H2933 C2911 0.950 . S
C2934 C2935 1.349 . S
C2934 C2936 1.327 . S
C2934 H2959 0.950 . S
C2935 C2934 1.349 . S
C2935 C2951 1.349 . S
C2936 C2934 1.327 . S
C2936 C2955 1.429 . S
C2936 H2960 0.950 . S
C2937 C2954 1.574 . S
C2937 C2956 1.368 . S
C2937 H2961 0.949 . S
H2938 C2942 0.949 . S
C2939 C2940 1.349 . S
C2939 C2941 1.327 . S
C2939 H2962 0.950 . S
C2940 C2939 1.349 . S
C2940 C2952 1.349 . S
C2941 C2939 1.327 . S
C2941 C2957 1.429 . S
C2941 H2963 0.950 . S
C2942 H2938 0.949 . S
C2942 C2950 1.574 . S
C2942 C2958 1.368 . S
H2943 C2951 0.950 . S
H2944 C2949 0.950 . S
H2945 C2950 0.949 . S
H2946 C2952 0.950 . S
H2947 C2953 0.950 . S
H2948 C2954 0.949 . S
C2949 H2944 0.950 . S
C2949 C2951 1.327 . S
C2949 C2955 1.429 . S
C2950 C2942 1.574 . S
C2950 H2945 0.949 . S
C2950 C2956 1.368 . S
C2951 C2935 1.349 . S
C2951 H2943 0.950 . S
C2951 C2949 1.327 . S
C2952 C2940 1.349 . S
C2952 H2946 0.950 . S
C2952 C2953 1.327 . S
C2953 H2947 0.950 . S
C2953 C2952 1.327 . S
C2953 C2957 1.429 . S
C2954 C2937 1.574 . S
C2954 H2948 0.949 . S
C2954 C2958 1.368 . S
C2955 C2936 1.429 . S
C2955 C2949 1.429 . S
C2955 C2956 1.523 . S
C2956 C2937 1.368 . S
C2956 C2950 1.368 . S
C2956 C2955 1.523 . S
C2957 C2941 1.429 . S
C2957 C2953 1.429 . S
C2957 C2958 1.523 . S
C2958 C2942 1.368 . S
C2958 C2954 1.368 . S
C2958 C2957 1.523 . S
H2959 C2934 0.950 . S
H2960 C2936 0.950 . S
H2961 C2937 0.949 . S
H2962 C2939 0.950 . S
H2963 C2941 0.950 . S
C2964 C2965 1.349 . S
C2964 C2966 1.327 . S
C2964 H2989 0.950 . S
C2965 C2964 1.349 . S
C2965 C2981 1.349 . S
C2966 C2964 1.327 . S
C2966 C2985 1.429 . S
C2966 H2990 0.950 . S
C2967 C2984 1.574 . S
C2967 C2986 1.368 . S
C2967 H2991 0.949 . S
H2968 C2972 0.949 . S
C2969 C2970 1.349 . S
C2969 C2971 1.327 . S
C2969 H2992 0.950 . S
C2970 C2969 1.349 . S
C2970 C2982 1.349 . S
C2971 C2969 1.327 . S
C2971 C2987 1.429 1_565 S
C2971 H2993 0.950 . S
C2972 H2968 0.949 . S
C2972 C2980 1.574 . S
C2972 C2988 1.368 . S
H2973 C2981 0.950 . S
H2974 C2979 0.950 . S
H2975 C2980 0.949 . S
H2976 C2982 0.950 . S
H2977 C2983 0.950 . S
H2978 C2984 0.949 . S
C2979 H2974 0.950 . S
C2979 C2981 1.327 . S
C2979 C2985 1.429 . S
C2980 C2972 1.574 . S
C2980 H2975 0.949 . S
C2980 C2986 1.368 . S
C2981 C2965 1.349 . S
C2981 H2973 0.950 . S
C2981 C2979 1.327 . S
C2982 C2970 1.349 . S
C2982 H2976 0.950 . S
C2982 C2983 1.327 1_565 S
C2983 H2977 0.950 . S
C2983 C2982 1.327 1_545 S
C2983 C2987 1.429 . S
C2984 C2967 1.574 . S
C2984 H2978 0.949 . S
C2984 C2988 1.368 . S
C2985 C2966 1.429 . S
C2985 C2979 1.429 . S
C2985 C2986 1.523 . S
C2986 C2967 1.368 . S
C2986 C2980 1.368 . S
C2986 C2985 1.523 . S
C2987 C2971 1.429 1_545 S
C2987 C2983 1.429 . S
C2987 C2988 1.523 . S
C2988 C2972 1.368 . S
C2988 C2984 1.368 . S
C2988 C2987 1.523 . S
H2989 C2964 0.950 . S
H2990 C2966 0.950 . S
H2991 C2967 0.949 . S
H2992 C2969 0.950 . S
H2993 C2971 0.950 . S
C2994 C2995 1.349 . S
C2994 C2996 1.327 . S
C2994 H3019 0.950 . S
C2995 C2994 1.349 . S
C2995 C3011 1.349 . S
C2996 C2994 1.327 . S
C2996 C3015 1.429 . S
C2996 H3020 0.950 . S
C2997 C3014 1.574 . S
C2997 C3016 1.368 . S
C2997 H3021 0.949 . S
H2998 C3002 0.949 . S
C2999 C3000 1.349 . S
C2999 C3001 1.327 . S
C2999 H3022 0.950 . S
C3000 C2999 1.349 . S
C3000 C3012 1.349 . S
C3001 C2999 1.327 . S
C3001 C3017 1.429 . S
C3001 H3023 0.950 . S
C3002 H2998 0.949 . S
C3002 C3010 1.574 . S
C3002 C3018 1.368 . S
H3003 C3011 0.950 . S
H3004 C3009 0.950 . S
H3005 C3010 0.949 . S
H3006 C3012 0.950 . S
H3007 C3013 0.950 . S
H3008 C3014 0.949 . S
C3009 H3004 0.950 . S
C3009 C3011 1.327 . S
C3009 C3015 1.429 . S
C3010 C3002 1.574 . S
C3010 H3005 0.949 . S
C3010 C3016 1.368 . S
C3011 C2995 1.349 . S
C3011 H3003 0.950 . S
C3011 C3009 1.327 . S
C3012 C3000 1.349 . S
C3012 H3006 0.950 . S
C3012 C3013 1.327 . S
C3013 H3007 0.950 . S
C3013 C3012 1.327 . S
C3013 C3017 1.429 . S
C3014 C2997 1.574 . S
C3014 H3008 0.949 . S
C3014 C3018 1.368 . S
C3015 C2996 1.429 . S
C3015 C3009 1.429 . S
C3015 C3016 1.523 . S
C3016 C2997 1.368 . S
C3016 C3010 1.368 . S
C3016 C3015 1.523 . S
C3017 C3001 1.429 . S
C3017 C3013 1.429 . S
C3017 C3018 1.523 . S
C3018 C3002 1.368 . S
C3018 C3014 1.368 . S
C3018 C3017 1.523 . S
H3019 C2994 0.950 . S
H3020 C2996 0.950 . S
H3021 C2997 0.949 . S
H3022 C2999 0.950 . S
H3023 C3001 0.950 . S
C3024 C3025 1.349 . S
C3024 C3026 1.327 . S
C3024 H3049 0.950 . S
C3025 C3024 1.349 . S
C3025 C3041 1.349 . S
C3026 C3024 1.327 . S
C3026 C3045 1.429 . S
C3026 H3050 0.950 . S
C3027 C3044 1.574 . S
C3027 C3046 1.368 . S
C3027 H3051 0.949 . S
H3028 C3032 0.949 . S
C3029 C3030 1.349 . S
C3029 C3031 1.327 . S
C3029 H3052 0.950 . S
C3030 C3029 1.349 . S
C3030 C3042 1.349 . S
C3031 C3029 1.327 . S
C3031 C3047 1.429 . S
C3031 H3053 0.950 . S
C3032 H3028 0.949 . S
C3032 C3040 1.574 . S
C3032 C3048 1.368 . S
H3033 C3041 0.950 . S
H3034 C3039 0.950 . S
H3035 C3040 0.949 . S
H3036 C3042 0.950 . S
H3037 C3043 0.950 . S
H3038 C3044 0.949 . S
C3039 H3034 0.950 . S
C3039 C3041 1.327 . S
C3039 C3045 1.429 . S
C3040 C3032 1.574 . S
C3040 H3035 0.949 . S
C3040 C3046 1.368 . S
C3041 C3025 1.349 . S
C3041 H3033 0.950 . S
C3041 C3039 1.327 . S
C3042 C3030 1.349 . S
C3042 H3036 0.950 . S
C3042 C3043 1.327 . S
C3043 H3037 0.950 . S
C3043 C3042 1.327 . S
C3043 C3047 1.429 . S
C3044 C3027 1.574 . S
C3044 H3038 0.949 . S
C3044 C3048 1.368 . S
C3045 C3026 1.429 . S
C3045 C3039 1.429 . S
C3045 C3046 1.523 . S
C3046 C3027 1.368 . S
C3046 C3040 1.368 . S
C3046 C3045 1.523 . S
C3047 C3031 1.429 . S
C3047 C3043 1.429 . S
C3047 C3048 1.523 . S
C3048 C3032 1.368 . S
C3048 C3044 1.368 . S
C3048 C3047 1.523 . S
H3049 C3024 0.950 . S
H3050 C3026 0.950 . S
H3051 C3027 0.949 . S
H3052 C3029 0.950 . S
H3053 C3031 0.950 . S
C3054 C3055 1.349 . S
C3054 C3056 1.327 . S
C3054 H3079 0.950 . S
C3055 C3054 1.349 . S
C3055 C3071 1.349 . S
C3056 C3054 1.327 . S
C3056 C3075 1.429 . S
C3056 H3080 0.950 . S
C3057 C3074 1.574 . S
C3057 C3076 1.368 . S
C3057 H3081 0.949 . S
H3058 C3062 0.949 . S
C3059 C3060 1.349 . S
C3059 C3061 1.327 . S
C3059 H3082 0.950 . S
C3060 C3059 1.349 . S
C3060 C3072 1.349 . S
C3061 C3059 1.327 . S
C3061 C3077 1.429 . S
C3061 H3083 0.950 . S
C3062 H3058 0.949 . S
C3062 C3070 1.574 . S
C3062 C3078 1.368 . S
H3063 C3071 0.950 . S
H3064 C3069 0.950 . S
H3065 C3070 0.949 . S
H3066 C3072 0.950 . S
H3067 C3073 0.950 . S
H3068 C3074 0.949 . S
C3069 H3064 0.950 . S
C3069 C3071 1.327 . S
C3069 C3075 1.429 . S
C3070 C3062 1.574 . S
C3070 H3065 0.949 . S
C3070 C3076 1.368 . S
C3071 C3055 1.349 . S
C3071 H3063 0.950 . S
C3071 C3069 1.327 . S
C3072 C3060 1.349 . S
C3072 H3066 0.950 . S
C3072 C3073 1.327 . S
C3073 H3067 0.950 . S
C3073 C3072 1.327 . S
C3073 C3077 1.429 . S
C3074 C3057 1.574 . S
C3074 H3068 0.949 . S
C3074 C3078 1.368 . S
C3075 C3056 1.429 . S
C3075 C3069 1.429 . S
C3075 C3076 1.523 . S
C3076 C3057 1.368 . S
C3076 C3070 1.368 . S
C3076 C3075 1.523 . S
C3077 C3061 1.429 . S
C3077 C3073 1.429 . S
C3077 C3078 1.523 . S
C3078 C3062 1.368 . S
C3078 C3074 1.368 . S
C3078 C3077 1.523 . S
H3079 C3054 0.950 . S
H3080 C3056 0.950 . S
H3081 C3057 0.949 . S
H3082 C3059 0.950 . S
H3083 C3061 0.950 . S
C3084 C3085 1.349 . S
C3084 C3086 1.327 . S
C3084 H3109 0.950 . S
C3085 C3084 1.349 . S
C3085 C3101 1.349 . S
C3086 C3084 1.327 . S
C3086 C3105 1.429 . S
C3086 H3110 0.950 . S
C3087 C3104 1.574 . S
C3087 C3106 1.368 . S
C3087 H3111 0.949 . S
H3088 C3092 0.949 . S
C3089 C3090 1.349 . S
C3089 C3091 1.327 . S
C3089 H3112 0.950 . S
C3090 C3089 1.349 . S
C3090 C3102 1.349 . S
C3091 C3089 1.327 . S
C3091 C3107 1.429 . S
C3091 H3113 0.950 . S
C3092 H3088 0.949 . S
C3092 C3100 1.574 . S
C3092 C3108 1.368 . S
H3093 C3101 0.950 . S
H3094 C3099 0.950 . S
H3095 C3100 0.949 . S
H3096 C3102 0.950 . S
H3097 C3103 0.950 . S
H3098 C3104 0.949 . S
C3099 H3094 0.950 . S
C3099 C3101 1.327 . S
C3099 C3105 1.429 . S
C3100 C3092 1.574 . S
C3100 H3095 0.949 . S
C3100 C3106 1.368 . S
C3101 C3085 1.349 . S
C3101 H3093 0.950 . S
C3101 C3099 1.327 . S
C3102 C3090 1.349 . S
C3102 H3096 0.950 . S
C3102 C3103 1.327 . S
C3103 H3097 0.950 . S
C3103 C3102 1.327 . S
C3103 C3107 1.429 . S
C3104 C3087 1.574 . S
C3104 H3098 0.949 . S
C3104 C3108 1.368 . S
C3105 C3086 1.429 . S
C3105 C3099 1.429 . S
C3105 C3106 1.523 . S
C3106 C3087 1.368 . S
C3106 C3100 1.368 . S
C3106 C3105 1.523 . S
C3107 C3091 1.429 . S
C3107 C3103 1.429 . S
C3107 C3108 1.523 . S
C3108 C3092 1.368 . S
C3108 C3104 1.368 . S
C3108 C3107 1.523 . S
H3109 C3084 0.950 . S
H3110 C3086 0.950 . S
H3111 C3087 0.949 . S
H3112 C3089 0.950 . S
H3113 C3091 0.950 . S
C3114 C3115 1.349 . S
C3114 C3116 1.327 . S
C3114 H3139 0.950 . S
C3115 C3114 1.349 . S
C3115 C3131 1.349 . S
C3116 C3114 1.327 . S
C3116 C3135 1.429 . S
C3116 H3140 0.950 . S
C3117 C3134 1.588 . S
C3117 C3136 1.365 1_565 S
C3117 H3141 0.938 1_565 S
H3118 C3122 0.949 . S
C3119 C3120 1.349 . S
C3119 C3121 1.327 . S
C3119 H3142 0.950 . S
C3120 C3119 1.349 . S
C3120 C3132 1.349 . S
C3121 C3119 1.327 . S
C3121 C3137 1.429 . S
C3121 H3143 0.950 . S
C3122 H3118 0.949 . S
C3122 C3130 1.574 . S
C3122 C3138 1.368 . S
H3123 C3131 0.950 . S
H3124 C3129 0.950 . S
H3125 C3130 0.949 . S
H3126 C3132 0.950 . S
H3127 C3133 0.950 . S
H3128 C3134 0.949 . S
C3129 H3124 0.950 . S
C3129 C3131 1.327 . S
C3129 C3135 1.429 . S
C3130 C3122 1.574 . S
C3130 H3125 0.949 . S
C3130 C3136 1.329 1_565 S
C3131 C3115 1.349 . S
C3131 H3123 0.950 . S
C3131 C3129 1.327 . S
C3132 C3120 1.349 . S
C3132 H3126 0.950 . S
C3132 C3133 1.327 . S
C3133 H3127 0.950 . S
C3133 C3132 1.327 . S
C3133 C3137 1.429 . S
C3134 C3117 1.588 . S
C3134 H3128 0.949 . S
C3134 C3138 1.368 . S
C3135 C3116 1.429 . S
C3135 C3129 1.429 . S
C3135 C3136 1.583 . S
C3136 C3117 1.365 1_545 S
C3136 C3130 1.329 1_545 S
C3136 C3135 1.583 . S
C3137 C3121 1.429 . S
C3137 C3133 1.429 . S
C3137 C3138 1.523 . S
C3138 C3122 1.368 . S
C3138 C3134 1.368 . S
C3138 C3137 1.523 . S
H3139 C3114 0.950 . S
H3140 C3116 0.950 . S
H3141 C3117 0.938 1_545 S
H3142 C3119 0.950 . S
H3143 C3121 0.950 . S
C3144 C3145 1.349 . S
C3144 C3146 1.327 . S
C3144 H3169 0.950 . S
C3145 C3144 1.349 . S
C3145 C3161 1.349 . S
C3146 C3144 1.327 . S
C3146 C3165 1.429 . S
C3146 H3170 0.950 . S
C3147 C3164 1.574 . S
C3147 C3166 1.368 . S
C3147 H3171 0.949 . S
H3148 C3152 0.949 . S
C3149 C3150 1.349 . S
C3149 C3151 1.327 . S
C3149 H3172 0.950 . S
C3150 C3149 1.349 . S
C3150 C3162 1.349 . S
C3151 C3149 1.327 . S
C3151 C3167 1.429 . S
C3151 H3173 0.950 . S
C3152 H3148 0.949 . S
C3152 C3160 1.574 . S
C3152 C3168 1.368 . S
H3153 C3161 0.950 . S
H3154 C3159 0.950 . S
H3155 C3160 0.949 . S
H3156 C3162 0.950 . S
H3157 C3163 0.950 . S
H3158 C3164 0.949 . S
C3159 H3154 0.950 . S
C3159 C3161 1.327 . S
C3159 C3165 1.429 . S
C3160 C3152 1.574 . S
C3160 H3155 0.949 . S
C3160 C3166 1.368 . S
C3161 C3145 1.349 . S
C3161 H3153 0.950 . S
C3161 C3159 1.327 . S
C3162 C3150 1.349 . S
C3162 H3156 0.950 . S
C3162 C3163 1.327 . S
C3163 H3157 0.950 . S
C3163 C3162 1.327 . S
C3163 C3167 1.429 . S
C3164 C3147 1.574 . S
C3164 H3158 0.949 . S
C3164 C3168 1.368 . S
C3165 C3146 1.429 . S
C3165 C3159 1.429 . S
C3165 C3166 1.523 . S
C3166 C3147 1.368 . S
C3166 C3160 1.368 . S
C3166 C3165 1.523 . S
C3167 C3151 1.429 . S
C3167 C3163 1.429 . S
C3167 C3168 1.523 . S
C3168 C3152 1.368 . S
C3168 C3164 1.368 . S
C3168 C3167 1.523 . S
H3169 C3144 0.950 . S
H3170 C3146 0.950 . S
H3171 C3147 0.949 . S
H3172 C3149 0.950 . S
H3173 C3151 0.950 . S
C3174 C3175 1.349 . S
C3174 C3176 1.327 . S
C3174 H3199 0.950 . S
C3175 C3174 1.349 . S
C3175 C3191 1.349 . S
C3176 C3174 1.327 . S
C3176 C3195 1.429 . S
C3176 H3200 0.950 . S
C3177 C3194 1.574 . S
C3177 C3196 1.368 . S
C3177 H3201 0.949 . S
H3178 C3182 0.949 . S
C3179 C3180 1.349 . S
C3179 C3181 1.327 . S
C3179 H3202 0.950 . S
C3180 C3179 1.349 . S
C3180 C3192 1.349 . S
C3181 C3179 1.327 . S
C3181 C3197 1.429 . S
C3181 H3203 0.950 . S
C3182 H3178 0.949 . S
C3182 C3190 1.574 . S
C3182 C3198 1.368 . S
H3183 C3191 0.950 . S
H3184 C3189 0.950 . S
H3185 C3190 0.949 . S
H3186 C3192 0.950 . S
H3187 C3193 0.950 . S
H3188 C3194 0.949 . S
C3189 H3184 0.950 . S
C3189 C3191 1.327 . S
C3189 C3195 1.429 . S
C3190 C3182 1.574 . S
C3190 H3185 0.949 . S
C3190 C3196 1.368 . S
C3191 C3175 1.349 . S
C3191 H3183 0.950 . S
C3191 C3189 1.327 . S
C3192 C3180 1.349 . S
C3192 H3186 0.950 . S
C3192 C3193 1.327 . S
C3193 H3187 0.950 . S
C3193 C3192 1.327 . S
C3193 C3197 1.429 . S
C3194 C3177 1.574 . S
C3194 H3188 0.949 . S
C3194 C3198 1.368 . S
C3195 C3176 1.429 . S
C3195 C3189 1.429 . S
C3195 C3196 1.523 . S
C3196 C3177 1.368 . S
C3196 C3190 1.368 . S
C3196 C3195 1.523 . S
C3197 C3181 1.429 . S
C3197 C3193 1.429 . S
C3197 C3198 1.523 . S
C3198 C3182 1.368 . S
C3198 C3194 1.368 . S
C3198 C3197 1.523 . S
H3199 C3174 0.950 . S
H3200 C3176 0.950 . S
H3201 C3177 0.949 . S
H3202 C3179 0.950 . S
H3203 C3181 0.950 . S
C3204 C3205 1.349 . S
C3204 C3206 1.327 . S
C3204 H3229 0.950 . S
C3205 C3204 1.349 . S
C3205 C3221 1.349 . S
C3206 C3204 1.327 . S
C3206 C3225 1.429 . S
C3206 H3230 0.950 . S
C3207 C3224 1.574 . S
C3207 C3226 1.368 . S
C3207 H3231 0.949 . S
H3208 C3212 0.949 . S
C3209 C3210 1.349 . S
C3209 C3211 1.327 . S
C3209 H3232 0.950 . S
C3210 C3209 1.349 . S
C3210 C3222 1.349 . S
C3211 C3209 1.327 . S
C3211 C3227 1.429 . S
C3211 H3233 0.950 . S
C3212 H3208 0.949 . S
C3212 C3220 1.574 . S
C3212 C3228 1.368 . S
H3213 C3221 0.950 . S
H3214 C3219 0.950 . S
H3215 C3220 0.949 . S
H3216 C3222 0.950 . S
H3217 C3223 0.950 . S
H3218 C3224 0.949 . S
C3219 H3214 0.950 . S
C3219 C3221 1.327 . S
C3219 C3225 1.429 . S
C3220 C3212 1.574 . S
C3220 H3215 0.949 . S
C3220 C3226 1.368 . S
C3221 C3205 1.349 . S
C3221 H3213 0.950 . S
C3221 C3219 1.327 . S
C3222 C3210 1.349 . S
C3222 H3216 0.950 . S
C3222 C3223 1.327 . S
C3223 H3217 0.950 . S
C3223 C3222 1.327 . S
C3223 C3227 1.429 . S
C3224 C3207 1.574 . S
C3224 H3218 0.949 . S
C3224 C3228 1.368 . S
C3225 C3206 1.429 . S
C3225 C3219 1.429 . S
C3225 C3226 1.523 . S
C3226 C3207 1.368 . S
C3226 C3220 1.368 . S
C3226 C3225 1.523 . S
C3227 C3211 1.429 . S
C3227 C3223 1.429 . S
C3227 C3228 1.523 . S
C3228 C3212 1.368 . S
C3228 C3224 1.368 . S
C3228 C3227 1.523 . S
H3229 C3204 0.950 . S
H3230 C3206 0.950 . S
H3231 C3207 0.949 . S
H3232 C3209 0.950 . S
H3233 C3211 0.950 . S
C3234 C3235 1.349 . S
C3234 C3236 1.327 . S
C3234 H3259 0.950 . S
C3235 C3234 1.349 . S
C3235 C3251 1.349 . S
C3236 C3234 1.327 . S
C3236 C3255 1.429 . S
C3236 H3260 0.950 . S
C3237 C3254 1.565 1_565 S
C3237 C3256 1.368 . S
C3237 H3261 0.949 . S
H3238 C3242 0.949 . S
C3239 C3240 1.349 . S
C3239 C3241 1.327 . S
C3239 H3262 0.950 . S
C3240 C3239 1.349 . S
C3240 C3252 1.349 . S
C3241 C3239 1.327 . S
C3241 C3257 1.429 . S
C3241 H3263 0.950 . S
C3242 H3238 0.949 . S
C3242 C3250 1.574 . S
C3242 C3258 1.326 1_565 S
H3243 C3251 0.950 . S
H3244 C3249 0.950 . S
H3245 C3250 0.949 . S
H3246 C3252 0.950 . S
H3247 C3253 0.950 . S
H3248 C3254 0.956 . S
C3249 H3244 0.950 . S
C3249 C3251 1.327 . S
C3249 C3255 1.429 . S
C3250 C3242 1.574 . S
C3250 H3245 0.949 . S
C3250 C3256 1.368 . S
C3251 C3235 1.349 . S
C3251 H3243 0.950 . S
C3251 C3249 1.327 . S
C3252 C3240 1.349 . S
C3252 H3246 0.950 . S
C3252 C3253 1.327 . S
C3253 H3247 0.950 . S
C3253 C3252 1.327 . S
C3253 C3257 1.429 . S
C3254 C3237 1.565 1_545 S
C3254 H3248 0.956 . S
C3254 C3258 1.367 . S
C3255 C3236 1.429 . S
C3255 C3249 1.429 . S
C3255 C3256 1.523 . S
C3256 C3237 1.368 . S
C3256 C3250 1.368 . S
C3256 C3255 1.523 . S
C3257 C3241 1.429 . S
C3257 C3253 1.429 . S
C3257 C3258 1.583 . S
C3258 C3242 1.326 1_545 S
C3258 C3254 1.367 . S
C3258 C3257 1.583 . S
H3259 C3234 0.950 . S
H3260 C3236 0.950 . S
H3261 C3237 0.949 . S
H3262 C3239 0.950 . S
H3263 C3241 0.950 . S
C3264 C3265 1.349 . S
C3264 C3266 1.327 . S
C3264 H3289 0.950 . S
C3265 C3264 1.349 . S
C3265 C3281 1.349 . S
C3266 C3264 1.327 . S
C3266 C3285 1.429 . S
C3266 H3290 0.950 . S
C3267 C3284 1.574 . S
C3267 C3286 1.368 . S
C3267 H3291 0.949 . S
H3268 C3272 0.949 . S
C3269 C3270 1.349 . S
C3269 C3271 1.327 . S
C3269 H3292 0.950 . S
C3270 C3269 1.349 . S
C3270 C3282 1.349 . S
C3271 C3269 1.327 . S
C3271 C3287 1.429 . S
C3271 H3293 0.950 . S
C3272 H3268 0.949 . S
C3272 C3280 1.574 . S
C3272 C3288 1.368 . S
H3273 C3281 0.950 . S
H3274 C3279 0.950 . S
H3275 C3280 0.949 . S
H3276 C3282 0.950 . S
H3277 C3283 0.950 . S
H3278 C3284 0.949 . S
C3279 H3274 0.950 . S
C3279 C3281 1.327 . S
C3279 C3285 1.429 . S
C3280 C3272 1.574 . S
C3280 H3275 0.949 . S
C3280 C3286 1.368 . S
C3281 C3265 1.349 . S
C3281 H3273 0.950 . S
C3281 C3279 1.327 . S
C3282 C3270 1.349 . S
C3282 H3276 0.950 . S
C3282 C3283 1.327 . S
C3283 H3277 0.950 . S
C3283 C3282 1.327 . S
C3283 C3287 1.429 . S
C3284 C3267 1.574 . S
C3284 H3278 0.949 . S
C3284 C3288 1.368 . S
C3285 C3266 1.429 . S
C3285 C3279 1.429 . S
C3285 C3286 1.523 . S
C3286 C3267 1.368 . S
C3286 C3280 1.368 . S
C3286 C3285 1.523 . S
C3287 C3271 1.429 . S
C3287 C3283 1.429 . S
C3287 C3288 1.523 . S
C3288 C3272 1.368 . S
C3288 C3284 1.368 . S
C3288 C3287 1.523 . S
H3289 C3264 0.950 . S
H3290 C3266 0.950 . S
H3291 C3267 0.949 . S
H3292 C3269 0.950 . S
H3293 C3271 0.950 . S
C3294 C3295 1.349 . S
C3294 C3296 1.327 . S
C3294 H3319 0.950 . S
C3295 C3294 1.349 . S
C3295 C3311 1.349 . S
C3296 C3294 1.327 . S
C3296 C3315 1.429 . S
C3296 H3320 0.950 . S
C3297 C3314 1.574 . S
C3297 C3316 1.368 . S
C3297 H3321 0.949 . S
H3298 C3302 0.949 . S
C3299 C3300 1.349 . S
C3299 C3301 1.327 . S
C3299 H3322 0.950 . S
C3300 C3299 1.349 . S
C3300 C3312 1.349 . S
C3301 C3299 1.327 . S
C3301 C3317 1.429 . S
C3301 H3323 0.950 . S
C3302 H3298 0.949 . S
C3302 C3310 1.574 . S
C3302 C3318 1.368 . S
H3303 C3311 0.950 . S
H3304 C3309 0.950 . S
H3305 C3310 0.949 . S
H3306 C3312 0.950 . S
H3307 C3313 0.950 . S
H3308 C3314 0.949 . S
C3309 H3304 0.950 . S
C3309 C3311 1.327 . S
C3309 C3315 1.429 . S
C3310 C3302 1.574 . S
C3310 H3305 0.949 . S
C3310 C3316 1.368 . S
C3311 C3295 1.349 . S
C3311 H3303 0.950 . S
C3311 C3309 1.327 . S
C3312 C3300 1.349 . S
C3312 H3306 0.950 . S
C3312 C3313 1.327 . S
C3313 H3307 0.950 . S
C3313 C3312 1.327 . S
C3313 C3317 1.429 . S
C3314 C3297 1.574 . S
C3314 H3308 0.949 . S
C3314 C3318 1.368 . S
C3315 C3296 1.429 . S
C3315 C3309 1.429 . S
C3315 C3316 1.523 . S
C3316 C3297 1.368 . S
C3316 C3310 1.368 . S
C3316 C3315 1.523 . S
C3317 C3301 1.429 . S
C3317 C3313 1.429 . S
C3317 C3318 1.523 . S
C3318 C3302 1.368 . S
C3318 C3314 1.368 . S
C3318 C3317 1.523 . S
H3319 C3294 0.950 . S
H3320 C3296 0.950 . S
H3321 C3297 0.949 . S
H3322 C3299 0.950 . S
H3323 C3301 0.950 . S
C3324 C3325 1.349 . S
C3324 C3326 1.327 . S
C3324 H3349 0.950 . S
C3325 C3324 1.349 . S
C3325 C3341 1.349 . S
C3326 C3324 1.327 . S
C3326 C3345 1.429 . S
C3326 H3350 0.950 . S
C3327 C3344 1.574 . S
C3327 C3346 1.368 . S
C3327 H3351 0.949 . S
H3328 C3332 0.949 . S
C3329 C3330 1.349 . S
C3329 C3331 1.327 . S
C3329 H3352 0.950 . S
C3330 C3329 1.349 . S
C3330 C3342 1.349 . S
C3331 C3329 1.327 . S
C3331 C3347 1.429 . S
C3331 H3353 0.950 . S
C3332 H3328 0.949 . S
C3332 C3340 1.574 . S
C3332 C3348 1.368 . S
H3333 C3341 0.950 . S
H3334 C3339 0.950 . S
H3335 C3340 0.949 . S
H3336 C3342 0.950 . S
H3337 C3343 0.950 . S
H3338 C3344 0.949 . S
C3339 H3334 0.950 . S
C3339 C3341 1.327 . S
C3339 C3345 1.429 . S
C3340 C3332 1.574 . S
C3340 H3335 0.949 . S
C3340 C3346 1.368 . S
C3341 C3325 1.349 . S
C3341 H3333 0.950 . S
C3341 C3339 1.327 . S
C3342 C3330 1.349 . S
C3342 H3336 0.950 . S
C3342 C3343 1.327 . S
C3343 H3337 0.950 . S
C3343 C3342 1.327 . S
C3343 C3347 1.429 . S
C3344 C3327 1.574 . S
C3344 H3338 0.949 . S
C3344 C3348 1.368 . S
C3345 C3326 1.429 . S
C3345 C3339 1.429 . S
C3345 C3346 1.523 . S
C3346 C3327 1.368 . S
C3346 C3340 1.368 . S
C3346 C3345 1.523 . S
C3347 C3331 1.429 . S
C3347 C3343 1.429 . S
C3347 C3348 1.523 . S
C3348 C3332 1.368 . S
C3348 C3344 1.368 . S
C3348 C3347 1.523 . S
H3349 C3324 0.950 . S
H3350 C3326 0.950 . S
H3351 C3327 0.949 . S
H3352 C3329 0.950 . S
H3353 C3331 0.950 . S
C3354 C3355 1.349 . S
C3354 C3356 1.327 . S
C3354 H3379 0.950 . S
C3355 C3354 1.349 . S
C3355 C3371 1.349 . S
C3356 C3354 1.327 . S
C3356 C3375 1.429 . S
C3356 H3380 0.950 . S
C3357 C3374 1.574 . S
C3357 C3376 1.368 . S
C3357 H3381 0.949 . S
H3358 C3362 0.949 . S
C3359 C3360 1.349 . S
C3359 C3361 1.327 . S
C3359 H3382 0.950 . S
C3360 C3359 1.349 . S
C3360 C3372 1.349 . S
C3361 C3359 1.327 . S
C3361 C3377 1.429 . S
C3361 H3383 0.950 . S
C3362 H3358 0.949 . S
C3362 C3370 1.574 . S
C3362 C3378 1.368 . S
H3363 C3371 0.950 . S
H3364 C3369 0.950 . S
H3365 C3370 0.949 . S
H3366 C3372 0.950 . S
H3367 C3373 0.950 . S
H3368 C3374 0.949 . S
C3369 H3364 0.950 . S
C3369 C3371 1.327 . S
C3369 C3375 1.429 . S
C3370 C3362 1.574 . S
C3370 H3365 0.949 . S
C3370 C3376 1.368 . S
C3371 C3355 1.349 . S
C3371 H3363 0.950 . S
C3371 C3369 1.327 . S
C3372 C3360 1.349 . S
C3372 H3366 0.950 . S
C3372 C3373 1.327 . S
C3373 H3367 0.950 . S
C3373 C3372 1.327 . S
C3373 C3377 1.429 . S
C3374 C3357 1.574 . S
C3374 H3368 0.949 . S
C3374 C3378 1.368 . S
C3375 C3356 1.429 . S
C3375 C3369 1.429 . S
C3375 C3376 1.523 . S
C3376 C3357 1.368 . S
C3376 C3370 1.368 . S
C3376 C3375 1.523 . S
C3377 C3361 1.429 . S
C3377 C3373 1.429 . S
C3377 C3378 1.523 . S
C3378 C3362 1.368 . S
C3378 C3374 1.368 . S
C3378 C3377 1.523 . S
H3379 C3354 0.950 . S
H3380 C3356 0.950 . S
H3381 C3357 0.949 . S
H3382 C3359 0.950 . S
H3383 C3361 0.950 . S
C3384 C3385 1.349 . S
C3384 C3386 1.327 . S
C3384 H3409 0.950 . S
C3385 C3384 1.349 . S
C3385 C3401 1.349 . S
C3386 C3384 1.327 . S
C3386 C3405 1.429 . S
C3386 H3410 0.950 . S
C3387 C3404 1.574 . S
C3387 C3406 1.368 . S
C3387 H3411 0.949 . S
H3388 C3392 0.949 . S
C3389 C3390 1.349 . S
C3389 C3391 1.327 . S
C3389 H3412 0.950 . S
C3390 C3389 1.349 . S
C3390 C3402 1.349 . S
C3391 C3389 1.327 . S
C3391 C3407 1.429 . S
C3391 H3413 0.950 . S
C3392 H3388 0.949 . S
C3392 C3400 1.574 . S
C3392 C3408 1.368 . S
H3393 C3401 0.950 . S
H3394 C3399 0.950 . S
H3395 C3400 0.949 . S
H3396 C3402 0.950 . S
H3397 C3403 0.950 . S
H3398 C3404 0.949 . S
C3399 H3394 0.950 . S
C3399 C3401 1.327 . S
C3399 C3405 1.429 . S
C3400 C3392 1.574 . S
C3400 H3395 0.949 . S
C3400 C3406 1.368 . S
C3401 C3385 1.349 . S
C3401 H3393 0.950 . S
C3401 C3399 1.327 . S
C3402 C3390 1.349 . S
C3402 H3396 0.950 . S
C3402 C3403 1.327 . S
C3403 H3397 0.950 . S
C3403 C3402 1.327 . S
C3403 C3407 1.429 . S
C3404 C3387 1.574 . S
C3404 H3398 0.949 . S
C3404 C3408 1.368 . S
C3405 C3386 1.429 . S
C3405 C3399 1.429 . S
C3405 C3406 1.523 . S
C3406 C3387 1.368 . S
C3406 C3400 1.368 . S
C3406 C3405 1.523 . S
C3407 C3391 1.429 . S
C3407 C3403 1.429 . S
C3407 C3408 1.523 . S
C3408 C3392 1.368 . S
C3408 C3404 1.368 . S
C3408 C3407 1.523 . S
H3409 C3384 0.950 . S
H3410 C3386 0.950 . S
H3411 C3387 0.949 . S
H3412 C3389 0.950 . S
H3413 C3391 0.950 . S
C3414 C3415 1.349 . S
C3414 C3416 1.327 . S
C3414 H3439 0.950 . S
C3415 C3414 1.349 . S
C3415 C3431 1.349 . S
C3416 C3414 1.327 . S
C3416 C3435 1.429 . S
C3416 H3440 0.950 . S
C3417 C3434 1.574 . S
C3417 C3436 1.329 1_455 S
C3417 H3441 0.949 . S
H3418 C3422 0.949 . S
C3419 C3420 1.349 . S
C3419 C3421 1.327 . S
C3419 H3442 0.950 . S
C3420 C3419 1.349 . S
C3420 C3432 1.349 . S
C3421 C3419 1.327 . S
C3421 C3437 1.429 . S
C3421 H3443 0.950 . S
C3422 H3418 0.949 . S
C3422 C3430 1.587 . S
C3422 C3438 1.368 . S
H3423 C3431 0.950 . S
H3424 C3429 0.950 . S
H3425 C3430 0.938 1_655 S
H3426 C3432 0.950 . S
H3427 C3433 0.950 . S
H3428 C3434 0.949 . S
C3429 H3424 0.950 . S
C3429 C3431 1.327 . S
C3429 C3435 1.429 . S
C3430 C3422 1.587 . S
C3430 H3425 0.938 1_455 S
C3430 C3436 1.365 1_455 S
C3431 C3415 1.349 . S
C3431 H3423 0.950 . S
C3431 C3429 1.327 . S
C3432 C3420 1.349 . S
C3432 H3426 0.950 . S
C3432 C3433 1.327 . S
C3433 H3427 0.950 . S
C3433 C3432 1.327 . S
C3433 C3437 1.429 . S
C3434 C3417 1.574 . S
C3434 H3428 0.949 . S
C3434 C3438 1.368 . S
C3435 C3416 1.429 . S
C3435 C3429 1.429 . S
C3435 C3436 1.583 . S
C3436 C3417 1.329 1_655 S
C3436 C3430 1.365 1_655 S
C3436 C3435 1.583 . S
C3437 C3421 1.429 . S
C3437 C3433 1.429 . S
C3437 C3438 1.523 . S
C3438 C3422 1.368 . S
C3438 C3434 1.368 . S
C3438 C3437 1.523 . S
H3439 C3414 0.950 . S
H3440 C3416 0.950 . S
H3441 C3417 0.949 . S
H3442 C3419 0.950 . S
H3443 C3421 0.950 . S
C3444 C3445 1.349 . S
C3444 C3446 1.327 . S
C3444 H3469 0.950 . S
C3445 C3444 1.349 . S
C3445 C3461 1.349 . S
C3446 C3444 1.327 . S
C3446 C3465 1.429 . S
C3446 H3470 0.950 . S
C3447 C3464 1.574 . S
C3447 C3466 1.368 . S
C3447 H3471 0.949 . S
H3448 C3452 0.949 . S
C3449 C3450 1.349 . S
C3449 C3451 1.327 . S
C3449 H3472 0.950 . S
C3450 C3449 1.349 . S
C3450 C3462 1.349 . S
C3451 C3449 1.327 . S
C3451 C3467 1.429 . S
C3451 H3473 0.950 . S
C3452 H3448 0.949 . S
C3452 C3460 1.574 . S
C3452 C3468 1.368 . S
H3453 C3461 0.950 . S
H3454 C3459 0.950 . S
H3455 C3460 0.949 . S
H3456 C3462 0.950 . S
H3457 C3463 0.950 . S
H3458 C3464 0.949 . S
C3459 H3454 0.950 . S
C3459 C3461 1.327 . S
C3459 C3465 1.429 . S
C3460 C3452 1.574 . S
C3460 H3455 0.949 . S
C3460 C3466 1.368 . S
C3461 C3445 1.349 . S
C3461 H3453 0.950 . S
C3461 C3459 1.327 . S
C3462 C3450 1.349 . S
C3462 H3456 0.950 . S
C3462 C3463 1.327 . S
C3463 H3457 0.950 . S
C3463 C3462 1.327 . S
C3463 C3467 1.429 . S
C3464 C3447 1.574 . S
C3464 H3458 0.949 . S
C3464 C3468 1.368 . S
C3465 C3446 1.429 . S
C3465 C3459 1.429 . S
C3465 C3466 1.523 . S
C3466 C3447 1.368 . S
C3466 C3460 1.368 . S
C3466 C3465 1.523 . S
C3467 C3451 1.429 . S
C3467 C3463 1.429 . S
C3467 C3468 1.523 . S
C3468 C3452 1.368 . S
C3468 C3464 1.368 . S
C3468 C3467 1.523 . S
H3469 C3444 0.950 . S
H3470 C3446 0.950 . S
H3471 C3447 0.949 . S
H3472 C3449 0.950 . S
H3473 C3451 0.950 . S
C3474 C3475 1.349 . S
C3474 C3476 1.327 . S
C3474 H3499 0.950 . S
C3475 C3474 1.349 . S
C3475 C3491 1.349 . S
C3476 C3474 1.327 . S
C3476 C3495 1.429 . S
C3476 H3500 0.950 . S
C3477 C3494 1.574 1_655 S
C3477 C3496 1.368 . S
C3477 H3501 0.949 . S
H3478 C3482 0.949 . S
C3479 C3480 1.349 . S
C3479 C3481 1.327 . S
C3479 H3502 0.950 . S
C3480 C3479 1.349 . S
C3480 C3492 1.349 . S
C3481 C3479 1.327 . S
C3481 C3497 1.429 . S
C3481 H3503 0.950 . S
C3482 H3478 0.949 . S
C3482 C3490 1.574 . S
C3482 C3498 1.323 1_655 S
H3483 C3491 0.950 . S
H3484 C3489 0.950 . S
H3485 C3490 0.949 . S
H3486 C3492 0.950 . S
H3487 C3493 0.950 . S
H3488 C3494 0.949 . S
C3489 H3484 0.950 . S
C3489 C3491 1.327 . S
C3489 C3495 1.429 . S
C3490 C3482 1.574 . S
C3490 H3485 0.949 . S
C3490 C3496 1.368 . S
C3491 C3475 1.349 . S
C3491 H3483 0.950 . S
C3491 C3489 1.327 . S
C3492 C3480 1.349 . S
C3492 H3486 0.950 . S
C3492 C3493 1.327 . S
C3493 H3487 0.950 . S
C3493 C3492 1.327 . S
C3493 C3497 1.429 . S
C3494 C3477 1.574 1_455 S
C3494 H3488 0.949 . S
C3494 C3498 1.371 . S
C3495 C3476 1.429 . S
C3495 C3489 1.429 . S
C3495 C3496 1.523 . S
C3496 C3477 1.368 . S
C3496 C3490 1.368 . S
C3496 C3495 1.523 . S
C3497 C3481 1.429 . S
C3497 C3493 1.429 . S
C3497 C3498 1.583 . S
C3498 C3482 1.323 1_455 S
C3498 C3494 1.371 . S
C3498 C3497 1.583 . S
H3499 C3474 0.950 . S
H3500 C3476 0.950 . S
H3501 C3477 0.949 . S
H3502 C3479 0.950 . S
H3503 C3481 0.950 . S
C3504 C3505 1.349 . S
C3504 C3506 1.327 . S
C3504 H3529 0.950 . S
C3505 C3504 1.349 . S
C3505 C3521 1.349 . S
C3506 C3504 1.327 . S
C3506 C3525 1.429 . S
C3506 H3530 0.950 . S
C3507 C3524 1.574 . S
C3507 C3526 1.368 . S
C3507 H3531 0.949 . S
H3508 C3512 0.949 . S
C3509 C3510 1.349 . S
C3509 C3511 1.327 . S
C3509 H3532 0.950 . S
C3510 C3509 1.349 . S
C3510 C3522 1.349 . S
C3511 C3509 1.327 . S
C3511 C3527 1.429 . S
C3511 H3533 0.950 . S
C3512 H3508 0.949 . S
C3512 C3520 1.574 . S
C3512 C3528 1.368 . S
H3513 C3521 0.950 . S
H3514 C3519 0.950 . S
H3515 C3520 0.949 . S
H3516 C3522 0.950 . S
H3517 C3523 0.950 . S
H3518 C3524 0.949 . S
C3519 H3514 0.950 . S
C3519 C3521 1.327 . S
C3519 C3525 1.429 . S
C3520 C3512 1.574 . S
C3520 H3515 0.949 . S
C3520 C3526 1.368 . S
C3521 C3505 1.349 . S
C3521 H3513 0.950 . S
C3521 C3519 1.327 . S
C3522 C3510 1.349 . S
C3522 H3516 0.950 . S
C3522 C3523 1.327 . S
C3523 H3517 0.950 . S
C3523 C3522 1.327 . S
C3523 C3527 1.429 . S
C3524 C3507 1.574 . S
C3524 H3518 0.949 . S
C3524 C3528 1.368 . S
C3525 C3506 1.429 . S
C3525 C3519 1.429 . S
C3525 C3526 1.523 . S
C3526 C3507 1.368 . S
C3526 C3520 1.368 . S
C3526 C3525 1.523 . S
C3527 C3511 1.429 . S
C3527 C3523 1.429 . S
C3527 C3528 1.523 . S
C3528 C3512 1.368 . S
C3528 C3524 1.368 . S
C3528 C3527 1.523 . S
H3529 C3504 0.950 . S
H3530 C3506 0.950 . S
H3531 C3507 0.949 . S
H3532 C3509 0.950 . S
H3533 C3511 0.950 . S
C3534 C3535 1.349 . S
C3534 C3536 1.327 . S
C3534 H3559 0.950 . S
C3535 C3534 1.349 . S
C3535 C3551 1.349 . S
C3536 C3534 1.327 . S
C3536 C3555 1.429 . S
C3536 H3560 0.950 . S
C3537 C3554 1.574 . S
C3537 C3556 1.368 . S
C3537 H3561 0.949 . S
H3538 C3542 0.949 . S
C3539 C3540 1.349 . S
C3539 C3541 1.327 . S
C3539 H3562 0.950 . S
C3540 C3539 1.349 . S
C3540 C3552 1.349 . S
C3541 C3539 1.327 . S
C3541 C3557 1.429 . S
C3541 H3563 0.950 . S
C3542 H3538 0.949 . S
C3542 C3550 1.574 . S
C3542 C3558 1.368 . S
H3543 C3551 0.950 . S
H3544 C3549 0.950 . S
H3545 C3550 0.949 . S
H3546 C3552 0.950 . S
H3547 C3553 0.950 . S
H3548 C3554 0.949 . S
C3549 H3544 0.950 . S
C3549 C3551 1.327 . S
C3549 C3555 1.429 . S
C3550 C3542 1.574 . S
C3550 H3545 0.949 . S
C3550 C3556 1.368 . S
C3551 C3535 1.349 . S
C3551 H3543 0.950 . S
C3551 C3549 1.327 . S
C3552 C3540 1.349 . S
C3552 H3546 0.950 . S
C3552 C3553 1.327 . S
C3553 H3547 0.950 . S
C3553 C3552 1.327 . S
C3553 C3557 1.429 . S
C3554 C3537 1.574 . S
C3554 H3548 0.949 . S
C3554 C3558 1.368 . S
C3555 C3536 1.429 . S
C3555 C3549 1.429 . S
C3555 C3556 1.523 . S
C3556 C3537 1.368 . S
C3556 C3550 1.368 . S
C3556 C3555 1.523 . S
C3557 C3541 1.429 . S
C3557 C3553 1.429 . S
C3557 C3558 1.523 . S
C3558 C3542 1.368 . S
C3558 C3554 1.368 . S
C3558 C3557 1.523 . S
H3559 C3534 0.950 . S
H3560 C3536 0.950 . S
H3561 C3537 0.949 . S
H3562 C3539 0.950 . S
H3563 C3541 0.950 . S
C3564 C3565 1.349 . S
C3564 C3566 1.327 . S
C3564 H3589 0.950 . S
C3565 C3564 1.349 . S
C3565 C3581 1.349 . S
C3566 C3564 1.327 . S
C3566 C3585 1.429 . S
C3566 H3590 0.950 . S
C3567 C3584 1.574 1_554 S
C3567 C3586 1.380 . S
C3567 H3591 0.949 . S
H3568 C3572 0.949 . S
C3569 C3570 1.349 . S
C3569 C3571 1.327 . S
C3569 H3592 0.950 . S
C3570 C3569 1.349 . S
C3570 C3582 1.349 . S
C3571 C3569 1.327 . S
C3571 C3587 1.429 . S
C3571 H3593 0.950 . S
C3572 H3568 0.949 . S
C3572 C3580 1.574 . S
C3572 C3588 1.368 . S
H3573 C3581 0.950 . S
H3574 C3579 0.950 . S
H3575 C3580 0.949 . S
H3576 C3582 0.950 . S
H3577 C3583 0.950 . S
H3578 C3584 0.949 . S
C3579 H3574 0.950 . S
C3579 C3581 1.327 . S
C3579 C3585 1.429 . S
C3580 C3572 1.574 . S
C3580 H3575 0.949 . S
C3580 C3586 1.312 1_556 S
C3581 C3565 1.349 . S
C3581 H3573 0.950 . S
C3581 C3579 1.327 . S
C3582 C3570 1.349 . S
C3582 H3576 0.950 . S
C3582 C3583 1.327 . S
C3583 H3577 0.950 . S
C3583 C3582 1.327 . S
C3583 C3587 1.429 . S
C3584 C3567 1.574 1_556 S
C3584 H3578 0.949 . S
C3584 C3588 1.368 . S
C3585 C3566 1.429 . S
C3585 C3579 1.429 . S
C3585 C3586 1.583 . S
C3586 C3567 1.380 . S
C3586 C3580 1.312 1_554 S
C3586 C3585 1.583 . S
C3587 C3571 1.429 . S
C3587 C3583 1.429 . S
C3587 C3588 1.523 . S
C3588 C3572 1.368 . S
C3588 C3584 1.368 . S
C3588 C3587 1.523 . S
H3589 C3564 0.950 . S
H3590 C3566 0.950 . S
H3591 C3567 0.949 . S
H3592 C3569 0.950 . S
H3593 C3571 0.950 . S
C3594 C3595 1.349 . S
C3594 C3596 1.327 . S
C3594 H3619 0.950 . S
C3595 C3594 1.349 . S
C3595 C3611 1.349 . S
C3596 C3594 1.327 . S
C3596 C3615 1.429 . S
C3596 H3620 0.950 . S
C3597 C3614 1.574 . S
C3597 C3616 1.368 . S
C3597 H3621 0.949 . S
H3598 C3602 0.949 . S
C3599 C3600 1.349 . S
C3599 C3601 1.327 . S
C3599 H3622 0.950 . S
C3600 C3599 1.349 . S
C3600 C3612 1.349 . S
C3601 C3599 1.327 . S
C3601 C3617 1.429 . S
C3601 H3623 0.950 . S
C3602 H3598 0.949 . S
C3602 C3610 1.574 . S
C3602 C3618 1.368 . S
H3603 C3611 0.950 . S
H3604 C3609 0.950 . S
H3605 C3610 0.949 . S
H3606 C3612 0.950 . S
H3607 C3613 0.950 . S
H3608 C3614 0.949 . S
C3609 H3604 0.950 . S
C3609 C3611 1.327 . S
C3609 C3615 1.429 . S
C3610 C3602 1.574 . S
C3610 H3605 0.949 . S
C3610 C3616 1.368 . S
C3611 C3595 1.349 . S
C3611 H3603 0.950 . S
C3611 C3609 1.327 . S
C3612 C3600 1.349 . S
C3612 H3606 0.950 . S
C3612 C3613 1.327 . S
C3613 H3607 0.950 . S
C3613 C3612 1.327 . S
C3613 C3617 1.429 . S
C3614 C3597 1.574 . S
C3614 H3608 0.949 . S
C3614 C3618 1.368 . S
C3615 C3596 1.429 . S
C3615 C3609 1.429 . S
C3615 C3616 1.523 . S
C3616 C3597 1.368 . S
C3616 C3610 1.368 . S
C3616 C3615 1.523 . S
C3617 C3601 1.429 . S
C3617 C3613 1.429 . S
C3617 C3618 1.523 . S
C3618 C3602 1.368 . S
C3618 C3614 1.368 . S
C3618 C3617 1.523 . S
H3619 C3594 0.950 . S
H3620 C3596 0.950 . S
H3621 C3597 0.949 . S
H3622 C3599 0.950 . S
H3623 C3601 0.950 . S
C3624 C3625 1.349 . S
C3624 C3626 1.327 . S
C3624 H3649 0.950 . S
C3625 C3624 1.349 . S
C3625 C3641 1.349 . S
C3626 C3624 1.327 . S
C3626 C3645 1.429 . S
C3626 H3650 0.950 . S
C3627 C3644 1.574 . S
C3627 C3646 1.368 . S
C3627 H3651 0.949 . S
H3628 C3632 0.949 . S
C3629 C3630 1.349 . S
C3629 C3631 1.327 . S
C3629 H3652 0.950 . S
C3630 C3629 1.349 . S
C3630 C3642 1.349 . S
C3631 C3629 1.327 . S
C3631 C3647 1.429 . S
C3631 H3653 0.950 . S
C3632 H3628 0.949 . S
C3632 C3640 1.574 . S
C3632 C3648 1.368 . S
H3633 C3641 0.950 . S
H3634 C3639 0.950 . S
H3635 C3640 0.949 . S
H3636 C3642 0.950 . S
H3637 C3643 0.950 . S
H3638 C3644 0.949 . S
C3639 H3634 0.950 . S
C3639 C3641 1.327 . S
C3639 C3645 1.429 . S
C3640 C3632 1.574 . S
C3640 H3635 0.949 . S
C3640 C3646 1.368 . S
C3641 C3625 1.349 . S
C3641 H3633 0.950 . S
C3641 C3639 1.327 . S
C3642 C3630 1.349 . S
C3642 H3636 0.950 . S
C3642 C3643 1.327 . S
C3643 H3637 0.950 . S
C3643 C3642 1.327 . S
C3643 C3647 1.429 . S
C3644 C3627 1.574 . S
C3644 H3638 0.949 . S
C3644 C3648 1.368 . S
C3645 C3626 1.429 . S
C3645 C3639 1.429 . S
C3645 C3646 1.523 . S
C3646 C3627 1.368 . S
C3646 C3640 1.368 . S
C3646 C3645 1.523 . S
C3647 C3631 1.429 . S
C3647 C3643 1.429 . S
C3647 C3648 1.523 . S
C3648 C3632 1.368 . S
C3648 C3644 1.368 . S
C3648 C3647 1.523 . S
H3649 C3624 0.950 . S
H3650 C3626 0.950 . S
H3651 C3627 0.949 . S
H3652 C3629 0.950 . S
H3653 C3631 0.950 . S
C3654 C3655 1.349 . S
C3654 C3656 1.327 . S
C3654 H3679 0.950 . S
C3655 C3654 1.349 . S
C3655 C3671 1.349 . S
C3656 C3654 1.327 . S
C3656 C3675 1.429 . S
C3656 H3680 0.950 . S
C3657 C3674 1.574 . S
C3657 C3676 1.368 . S
C3657 H3681 0.949 . S
H3658 C3662 0.949 . S
C3659 C3660 1.349 . S
C3659 C3661 1.327 . S
C3659 H3682 0.950 . S
C3660 C3659 1.349 . S
C3660 C3672 1.349 . S
C3661 C3659 1.327 . S
C3661 C3677 1.429 . S
C3661 H3683 0.950 . S
C3662 H3658 0.949 . S
C3662 C3670 1.574 . S
C3662 C3678 1.368 . S
H3663 C3671 0.950 . S
H3664 C3669 0.950 . S
H3665 C3670 0.949 . S
H3666 C3672 0.950 . S
H3667 C3673 0.950 . S
H3668 C3674 0.949 . S
C3669 H3664 0.950 . S
C3669 C3671 1.327 . S
C3669 C3675 1.429 . S
C3670 C3662 1.574 . S
C3670 H3665 0.949 . S
C3670 C3676 1.368 . S
C3671 C3655 1.349 . S
C3671 H3663 0.950 . S
C3671 C3669 1.327 . S
C3672 C3660 1.349 . S
C3672 H3666 0.950 . S
C3672 C3673 1.327 . S
C3673 H3667 0.950 . S
C3673 C3672 1.327 . S
C3673 C3677 1.429 . S
C3674 C3657 1.574 . S
C3674 H3668 0.949 . S
C3674 C3678 1.368 . S
C3675 C3656 1.429 . S
C3675 C3669 1.429 . S
C3675 C3676 1.523 . S
C3676 C3657 1.368 . S
C3676 C3670 1.368 . S
C3676 C3675 1.523 . S
C3677 C3661 1.429 . S
C3677 C3673 1.429 . S
C3677 C3678 1.523 . S
C3678 C3662 1.368 . S
C3678 C3674 1.368 . S
C3678 C3677 1.523 . S
H3679 C3654 0.950 . S
H3680 C3656 0.950 . S
H3681 C3657 0.949 . S
H3682 C3659 0.950 . S
H3683 C3661 0.950 . S
C3684 C3685 1.349 . S
C3684 C3686 1.327 . S
C3684 H3709 0.950 . S
C3685 C3684 1.349 . S
C3685 C3701 1.349 . S
C3686 C3684 1.327 . S
C3686 C3705 1.429 . S
C3686 H3710 0.950 . S
C3687 C3704 1.574 . S
C3687 C3706 1.368 . S
C3687 H3711 0.949 . S
H3688 C3692 0.949 . S
C3689 C3690 1.349 . S
C3689 C3691 1.327 . S
C3689 H3712 0.950 . S
C3690 C3689 1.349 . S
C3690 C3702 1.349 . S
C3691 C3689 1.327 . S
C3691 C3707 1.429 . S
C3691 H3713 0.950 . S
C3692 H3688 0.949 . S
C3692 C3700 1.574 . S
C3692 C3708 1.368 . S
H3693 C3701 0.950 . S
H3694 C3699 0.950 . S
H3695 C3700 0.949 . S
H3696 C3702 0.950 . S
H3697 C3703 0.950 . S
H3698 C3704 0.949 . S
C3699 H3694 0.950 . S
C3699 C3701 1.327 . S
C3699 C3705 1.429 . S
C3700 C3692 1.574 . S
C3700 H3695 0.949 . S
C3700 C3706 1.368 . S
C3701 C3685 1.349 . S
C3701 H3693 0.950 . S
C3701 C3699 1.327 . S
C3702 C3690 1.349 . S
C3702 H3696 0.950 . S
C3702 C3703 1.327 . S
C3703 H3697 0.950 . S
C3703 C3702 1.327 . S
C3703 C3707 1.429 . S
C3704 C3687 1.574 . S
C3704 H3698 0.949 . S
C3704 C3708 1.368 . S
C3705 C3686 1.429 . S
C3705 C3699 1.429 . S
C3705 C3706 1.523 . S
C3706 C3687 1.368 . S
C3706 C3700 1.368 . S
C3706 C3705 1.523 . S
C3707 C3691 1.429 . S
C3707 C3703 1.429 . S
C3707 C3708 1.523 . S
C3708 C3692 1.368 . S
C3708 C3704 1.368 . S
C3708 C3707 1.523 . S
H3709 C3684 0.950 . S
H3710 C3686 0.950 . S
H3711 C3687 0.949 . S
H3712 C3689 0.950 . S
H3713 C3691 0.950 . S
C3714 C3715 1.349 . S
C3714 C3716 1.327 . S
C3714 H3739 0.950 . S
C3715 C3714 1.349 . S
C3715 C3731 1.349 . S
C3716 C3714 1.327 . S
C3716 C3735 1.429 . S
C3716 H3740 0.950 . S
C3717 C3734 1.574 . S
C3717 C3736 1.368 . S
C3717 H3741 0.949 . S
H3718 C3722 0.949 . S
C3719 C3720 1.349 . S
C3719 C3721 1.327 . S
C3719 H3742 0.950 . S
C3720 C3719 1.349 . S
C3720 C3732 1.349 . S
C3721 C3719 1.327 . S
C3721 C3737 1.429 . S
C3721 H3743 0.950 . S
C3722 H3718 0.949 . S
C3722 C3730 1.574 . S
C3722 C3738 1.368 . S
H3723 C3731 0.950 . S
H3724 C3729 0.950 . S
H3725 C3730 0.949 . S
H3726 C3732 0.950 . S
H3727 C3733 0.950 . S
H3728 C3734 0.949 . S
C3729 H3724 0.950 . S
C3729 C3731 1.327 . S
C3729 C3735 1.429 . S
C3730 C3722 1.574 . S
C3730 H3725 0.949 . S
C3730 C3736 1.368 . S
C3731 C3715 1.349 . S
C3731 H3723 0.950 . S
C3731 C3729 1.327 . S
C3732 C3720 1.349 . S
C3732 H3726 0.950 . S
C3732 C3733 1.327 . S
C3733 H3727 0.950 . S
C3733 C3732 1.327 . S
C3733 C3737 1.429 . S
C3734 C3717 1.574 . S
C3734 H3728 0.949 . S
C3734 C3738 1.368 . S
C3735 C3716 1.429 . S
C3735 C3729 1.429 . S
C3735 C3736 1.523 . S
C3736 C3717 1.368 . S
C3736 C3730 1.368 . S
C3736 C3735 1.523 . S
C3737 C3721 1.429 . S
C3737 C3733 1.429 . S
C3737 C3738 1.523 . S
C3738 C3722 1.368 . S
C3738 C3734 1.368 . S
C3738 C3737 1.523 . S
H3739 C3714 0.950 . S
H3740 C3716 0.950 . S
H3741 C3717 0.949 . S
H3742 C3719 0.950 . S
H3743 C3721 0.950 . S
C3744 C3745 1.349 . S
C3744 C3746 1.327 . S
C3744 H3769 0.950 . S
C3745 C3744 1.349 . S
C3745 C3761 1.349 . S
C3746 C3744 1.327 . S
C3746 C3765 1.429 . S
C3746 H3770 0.950 . S
C3747 C3764 1.574 . S
C3747 C3766 1.368 . S
C3747 H3771 0.949 . S
H3748 C3752 0.949 . S
C3749 C3750 1.349 . S
C3749 C3751 1.327 . S
C3749 H3772 0.950 . S
C3750 C3749 1.349 . S
C3750 C3762 1.349 . S
C3751 C3749 1.327 . S
C3751 C3767 1.429 . S
C3751 H3773 0.950 . S
C3752 H3748 0.949 . S
C3752 C3760 1.574 . S
C3752 C3768 1.368 . S
H3753 C3761 0.950 . S
H3754 C3759 0.950 . S
H3755 C3760 0.949 . S
H3756 C3762 0.950 . S
H3757 C3763 0.950 . S
H3758 C3764 0.949 . S
C3759 H3754 0.950 . S
C3759 C3761 1.327 . S
C3759 C3765 1.429 . S
C3760 C3752 1.574 . S
C3760 H3755 0.949 . S
C3760 C3766 1.368 . S
C3761 C3745 1.349 . S
C3761 H3753 0.950 . S
C3761 C3759 1.327 . S
C3762 C3750 1.349 . S
C3762 H3756 0.950 . S
C3762 C3763 1.327 . S
C3763 H3757 0.950 . S
C3763 C3762 1.327 . S
C3763 C3767 1.429 . S
C3764 C3747 1.574 . S
C3764 H3758 0.949 . S
C3764 C3768 1.368 . S
C3765 C3746 1.429 . S
C3765 C3759 1.429 . S
C3765 C3766 1.523 . S
C3766 C3747 1.368 . S
C3766 C3760 1.368 . S
C3766 C3765 1.523 . S
C3767 C3751 1.429 . S
C3767 C3763 1.429 . S
C3767 C3768 1.523 . S
C3768 C3752 1.368 . S
C3768 C3764 1.368 . S
C3768 C3767 1.523 . S
H3769 C3744 0.950 . S
H3770 C3746 0.950 . S
H3771 C3747 0.949 . S
H3772 C3749 0.950 . S
H3773 C3751 0.950 . S
C3774 C3775 1.349 . S
C3774 C3776 1.327 . S
C3774 H3799 0.950 . S
C3775 C3774 1.349 . S
C3775 C3791 1.349 . S
C3776 C3774 1.327 . S
C3776 C3795 1.429 . S
C3776 H3800 0.950 . S
C3777 C3794 1.572 . S
C3777 C3796 1.366 1_545 S
C3777 H3801 0.950 1_545 S
H3778 C3782 0.949 . S
C3779 C3780 1.349 . S
C3779 C3781 1.327 . S
C3779 H3802 0.950 . S
C3780 C3779 1.349 . S
C3780 C3792 1.349 . S
C3781 C3779 1.327 . S
C3781 C3797 1.429 . S
C3781 H3803 0.950 . S
C3782 H3778 0.949 . S
C3782 C3790 1.574 . S
C3782 C3798 1.368 . S
H3783 C3791 0.950 . S
H3784 C3789 0.950 . S
H3785 C3790 0.949 . S
H3786 C3792 0.950 . S
H3787 C3793 0.950 . S
H3788 C3794 0.949 . S
C3789 H3784 0.950 . S
C3789 C3791 1.327 . S
C3789 C3795 1.429 . S
C3790 C3782 1.574 . S
C3790 H3785 0.949 . S
C3790 C3796 1.328 1_545 S
C3791 C3775 1.349 . S
C3791 H3783 0.950 . S
C3791 C3789 1.327 . S
C3792 C3780 1.349 . S
C3792 H3786 0.950 . S
C3792 C3793 1.327 . S
C3793 H3787 0.950 . S
C3793 C3792 1.327 . S
C3793 C3797 1.429 . S
C3794 C3777 1.572 . S
C3794 H3788 0.949 . S
C3794 C3798 1.368 . S
C3795 C3776 1.429 . S
C3795 C3789 1.429 . S
C3795 C3796 1.583 . S
C3796 C3777 1.366 1_565 S
C3796 C3790 1.328 1_565 S
C3796 C3795 1.583 . S
C3797 C3781 1.429 . S
C3797 C3793 1.429 . S
C3797 C3798 1.523 . S
C3798 C3782 1.368 . S
C3798 C3794 1.368 . S
C3798 C3797 1.523 . S
H3799 C3774 0.950 . S
H3800 C3776 0.950 . S
H3801 C3777 0.950 1_565 S
H3802 C3779 0.950 . S
H3803 C3781 0.950 . S
C3804 C3805 1.349 . S
C3804 C3806 1.327 . S
C3804 H3829 0.950 . S
C3805 C3804 1.349 . S
C3805 C3821 1.349 . S
C3806 C3804 1.327 . S
C3806 C3825 1.429 . S
C3806 H3830 0.950 . S
C3807 C3824 1.574 . S
C3807 C3826 1.368 . S
C3807 H3831 0.949 . S
H3808 C3812 0.949 . S
C3809 C3810 1.349 . S
C3809 C3811 1.327 . S
C3809 H3832 0.950 . S
C3810 C3809 1.349 . S
C3810 C3822 1.349 . S
C3811 C3809 1.327 . S
C3811 C3827 1.429 . S
C3811 H3833 0.950 . S
C3812 H3808 0.949 . S
C3812 C3820 1.574 . S
C3812 C3828 1.368 . S
H3813 C3821 0.950 . S
H3814 C3819 0.950 . S
H3815 C3820 0.949 . S
H3816 C3822 0.950 . S
H3817 C3823 0.950 . S
H3818 C3824 0.949 . S
C3819 H3814 0.950 . S
C3819 C3821 1.327 . S
C3819 C3825 1.429 . S
C3820 C3812 1.574 . S
C3820 H3815 0.949 . S
C3820 C3826 1.368 . S
C3821 C3805 1.349 . S
C3821 H3813 0.950 . S
C3821 C3819 1.327 . S
C3822 C3810 1.349 . S
C3822 H3816 0.950 . S
C3822 C3823 1.327 . S
C3823 H3817 0.950 . S
C3823 C3822 1.327 . S
C3823 C3827 1.429 . S
C3824 C3807 1.574 . S
C3824 H3818 0.949 . S
C3824 C3828 1.368 . S
C3825 C3806 1.429 . S
C3825 C3819 1.429 . S
C3825 C3826 1.523 . S
C3826 C3807 1.368 . S
C3826 C3820 1.368 . S
C3826 C3825 1.523 . S
C3827 C3811 1.429 . S
C3827 C3823 1.429 . S
C3827 C3828 1.523 . S
C3828 C3812 1.368 . S
C3828 C3824 1.368 . S
C3828 C3827 1.523 . S
H3829 C3804 0.950 . S
H3830 C3806 0.950 . S
H3831 C3807 0.949 . S
H3832 C3809 0.950 . S
H3833 C3811 0.950 . S
C3834 C3835 1.349 . S
C3834 C3836 1.327 . S
C3834 H3859 0.950 . S
C3835 C3834 1.349 . S
C3835 C3851 1.349 . S
C3836 C3834 1.327 . S
C3836 C3855 1.429 . S
C3836 H3860 0.950 . S
C3837 C3854 1.574 . S
C3837 C3856 1.368 . S
C3837 H3861 0.949 . S
H3838 C3842 0.949 . S
C3839 C3840 1.349 . S
C3839 C3841 1.327 . S
C3839 H3862 0.950 . S
C3840 C3839 1.349 . S
C3840 C3852 1.349 . S
C3841 C3839 1.327 . S
C3841 C3857 1.429 . S
C3841 H3863 0.950 . S
C3842 H3838 0.949 . S
C3842 C3850 1.574 . S
C3842 C3858 1.368 . S
H3843 C3851 0.950 . S
H3844 C3849 0.950 . S
H3845 C3850 0.949 . S
H3846 C3852 0.950 . S
H3847 C3853 0.950 . S
H3848 C3854 0.949 . S
C3849 H3844 0.950 . S
C3849 C3851 1.327 . S
C3849 C3855 1.429 . S
C3850 C3842 1.574 . S
C3850 H3845 0.949 . S
C3850 C3856 1.368 . S
C3851 C3835 1.349 . S
C3851 H3843 0.950 . S
C3851 C3849 1.327 . S
C3852 C3840 1.349 . S
C3852 H3846 0.950 . S
C3852 C3853 1.327 . S
C3853 H3847 0.950 . S
C3853 C3852 1.327 . S
C3853 C3857 1.429 . S
C3854 C3837 1.574 . S
C3854 H3848 0.949 . S
C3854 C3858 1.368 . S
C3855 C3836 1.429 . S
C3855 C3849 1.429 . S
C3855 C3856 1.523 . S
C3856 C3837 1.368 . S
C3856 C3850 1.368 . S
C3856 C3855 1.523 . S
C3857 C3841 1.429 . S
C3857 C3853 1.429 . S
C3857 C3858 1.523 . S
C3858 C3842 1.368 . S
C3858 C3854 1.368 . S
C3858 C3857 1.523 . S
H3859 C3834 0.950 . S
H3860 C3836 0.950 . S
H3861 C3837 0.949 . S
H3862 C3839 0.950 . S
H3863 C3841 0.950 . S
C3864 C3865 1.349 . S
C3864 C3866 1.327 . S
C3864 H3889 0.950 . S
C3865 C3864 1.349 . S
C3865 C3881 1.349 . S
C3866 C3864 1.327 . S
C3866 C3885 1.429 . S
C3866 H3890 0.950 . S
C3867 C3884 1.574 . S
C3867 C3886 1.368 . S
C3867 H3891 0.949 . S
H3868 C3872 0.949 . S
C3869 C3870 1.349 . S
C3869 C3871 1.327 . S
C3869 H3892 0.950 . S
C3870 C3869 1.349 . S
C3870 C3882 1.349 . S
C3871 C3869 1.327 . S
C3871 C3887 1.429 . S
C3871 H3893 0.950 . S
C3872 H3868 0.949 . S
C3872 C3880 1.574 . S
C3872 C3888 1.368 . S
H3873 C3881 0.950 . S
H3874 C3879 0.950 . S
H3875 C3880 0.949 . S
H3876 C3882 0.950 . S
H3877 C3883 0.950 . S
H3878 C3884 0.949 . S
C3879 H3874 0.950 . S
C3879 C3881 1.327 . S
C3879 C3885 1.429 . S
C3880 C3872 1.574 . S
C3880 H3875 0.949 . S
C3880 C3886 1.368 . S
C3881 C3865 1.349 . S
C3881 H3873 0.950 . S
C3881 C3879 1.327 . S
C3882 C3870 1.349 . S
C3882 H3876 0.950 . S
C3882 C3883 1.327 . S
C3883 H3877 0.950 . S
C3883 C3882 1.327 . S
C3883 C3887 1.429 . S
C3884 C3867 1.574 . S
C3884 H3878 0.949 . S
C3884 C3888 1.368 . S
C3885 C3866 1.429 . S
C3885 C3879 1.429 . S
C3885 C3886 1.523 . S
C3886 C3867 1.368 . S
C3886 C3880 1.368 . S
C3886 C3885 1.523 . S
C3887 C3871 1.429 . S
C3887 C3883 1.429 . S
C3887 C3888 1.523 . S
C3888 C3872 1.368 . S
C3888 C3884 1.368 . S
C3888 C3887 1.523 . S
H3889 C3864 0.950 . S
H3890 C3866 0.950 . S
H3891 C3867 0.949 . S
H3892 C3869 0.950 . S
H3893 C3871 0.950 . S
C3894 C3895 1.349 . S
C3894 C3896 1.327 . S
C3894 H3919 0.950 . S
C3895 C3894 1.349 . S
C3895 C3911 1.349 . S
C3896 C3894 1.327 . S
C3896 C3915 1.429 . S
C3896 H3920 0.950 . S
C3897 C3914 1.574 . S
C3897 C3916 1.328 1_545 S
C3897 H3921 0.949 . S
H3898 C3902 0.949 . S
C3899 C3900 1.349 . S
C3899 C3901 1.327 . S
C3899 H3922 0.950 . S
C3900 C3899 1.349 . S
C3900 C3912 1.349 . S
C3901 C3899 1.327 . S
C3901 C3917 1.429 . S
C3901 H3923 0.950 . S
C3902 H3898 0.949 . S
C3902 C3910 1.581 . S
C3902 C3918 1.368 . S
H3903 C3911 0.950 . S
H3904 C3909 0.950 . S
H3905 C3910 0.943 1_565 S
H3906 C3912 0.950 . S
H3907 C3913 0.950 . S
H3908 C3914 0.949 . S
C3909 H3904 0.950 . S
C3909 C3911 1.327 . S
C3909 C3915 1.429 . S
C3910 C3902 1.581 . S
C3910 H3905 0.943 1_545 S
C3910 C3916 1.365 1_545 S
C3911 C3895 1.349 . S
C3911 H3903 0.950 . S
C3911 C3909 1.327 . S
C3912 C3900 1.349 . S
C3912 H3906 0.950 . S
C3912 C3913 1.327 . S
C3913 H3907 0.950 . S
C3913 C3912 1.327 . S
C3913 C3917 1.429 . S
C3914 C3897 1.574 . S
C3914 H3908 0.949 . S
C3914 C3918 1.368 . S
C3915 C3896 1.429 . S
C3915 C3909 1.429 . S
C3915 C3916 1.583 . S
C3916 C3897 1.328 1_565 S
C3916 C3910 1.365 1_565 S
C3916 C3915 1.583 . S
C3917 C3901 1.429 . S
C3917 C3913 1.429 . S
C3917 C3918 1.523 . S
C3918 C3902 1.368 . S
C3918 C3914 1.368 . S
C3918 C3917 1.523 . S
H3919 C3894 0.950 . S
H3920 C3896 0.950 . S
H3921 C3897 0.949 . S
H3922 C3899 0.950 . S
H3923 C3901 0.950 . S
C3924 C3925 1.349 . S
C3924 C3926 1.327 . S
C3924 H3949 0.950 . S
C3925 C3924 1.349 . S
C3925 C3941 1.349 . S
C3926 C3924 1.327 . S
C3926 C3945 1.429 . S
C3926 H3950 0.950 . S
C3927 C3944 1.574 . S
C3927 C3946 1.368 . S
C3927 H3951 0.949 . S
H3928 C3932 0.949 . S
C3929 C3930 1.349 . S
C3929 C3931 1.327 . S
C3929 H3952 0.950 . S
C3930 C3929 1.349 . S
C3930 C3942 1.349 . S
C3931 C3929 1.327 . S
C3931 C3947 1.429 . S
C3931 H3953 0.950 . S
C3932 H3928 0.949 . S
C3932 C3940 1.574 . S
C3932 C3948 1.368 . S
H3933 C3941 0.950 . S
H3934 C3939 0.950 . S
H3935 C3940 0.949 . S
H3936 C3942 0.950 . S
H3937 C3943 0.950 . S
H3938 C3944 0.949 . S
C3939 H3934 0.950 . S
C3939 C3941 1.327 . S
C3939 C3945 1.429 . S
C3940 C3932 1.574 . S
C3940 H3935 0.949 . S
C3940 C3946 1.368 . S
C3941 C3925 1.349 . S
C3941 H3933 0.950 . S
C3941 C3939 1.327 . S
C3942 C3930 1.349 . S
C3942 H3936 0.950 . S
C3942 C3943 1.327 . S
C3943 H3937 0.950 . S
C3943 C3942 1.327 . S
C3943 C3947 1.429 . S
C3944 C3927 1.574 . S
C3944 H3938 0.949 . S
C3944 C3948 1.368 . S
C3945 C3926 1.429 . S
C3945 C3939 1.429 . S
C3945 C3946 1.523 . S
C3946 C3927 1.368 . S
C3946 C3940 1.368 . S
C3946 C3945 1.523 . S
C3947 C3931 1.429 . S
C3947 C3943 1.429 . S
C3947 C3948 1.523 . S
C3948 C3932 1.368 . S
C3948 C3944 1.368 . S
C3948 C3947 1.523 . S
H3949 C3924 0.950 . S
H3950 C3926 0.950 . S
H3951 C3927 0.949 . S
H3952 C3929 0.950 . S
H3953 C3931 0.950 . S
C3954 C3955 1.349 . S
C3954 C3956 1.327 . S
C3954 H3979 0.950 . S
C3955 C3954 1.349 . S
C3955 C3971 1.349 . S
C3956 C3954 1.327 . S
C3956 C3975 1.429 . S
C3956 H3980 0.950 . S
C3957 C3974 1.574 . S
C3957 C3976 1.368 . S
C3957 H3981 0.949 . S
H3958 C3962 0.949 . S
C3959 C3960 1.349 . S
C3959 C3961 1.327 . S
C3959 H3982 0.950 . S
C3960 C3959 1.349 . S
C3960 C3972 1.349 . S
C3961 C3959 1.327 . S
C3961 C3977 1.429 . S
C3961 H3983 0.950 . S
C3962 H3958 0.949 . S
C3962 C3970 1.574 . S
C3962 C3978 1.368 . S
H3963 C3971 0.950 . S
H3964 C3969 0.950 . S
H3965 C3970 0.949 . S
H3966 C3972 0.950 . S
H3967 C3973 0.950 . S
H3968 C3974 0.949 . S
C3969 H3964 0.950 . S
C3969 C3971 1.327 . S
C3969 C3975 1.429 . S
C3970 C3962 1.574 . S
C3970 H3965 0.949 . S
C3970 C3976 1.368 . S
C3971 C3955 1.349 . S
C3971 H3963 0.950 . S
C3971 C3969 1.327 . S
C3972 C3960 1.349 . S
C3972 H3966 0.950 . S
C3972 C3973 1.327 . S
C3973 H3967 0.950 . S
C3973 C3972 1.327 . S
C3973 C3977 1.429 . S
C3974 C3957 1.574 . S
C3974 H3968 0.949 . S
C3974 C3978 1.368 . S
C3975 C3956 1.429 . S
C3975 C3969 1.429 . S
C3975 C3976 1.523 . S
C3976 C3957 1.368 . S
C3976 C3970 1.368 . S
C3976 C3975 1.523 . S
C3977 C3961 1.429 . S
C3977 C3973 1.429 . S
C3977 C3978 1.523 . S
C3978 C3962 1.368 . S
C3978 C3974 1.368 . S
C3978 C3977 1.523 . S
H3979 C3954 0.950 . S
H3980 C3956 0.950 . S
H3981 C3957 0.949 . S
H3982 C3959 0.950 . S
H3983 C3961 0.950 . S
C3984 C3985 1.349 . S
C3984 C3986 1.327 . S
C3984 H4009 0.950 . S
C3985 C3984 1.349 . S
C3985 C4001 1.349 . S
C3986 C3984 1.327 . S
C3986 C4005 1.429 . S
C3986 H4010 0.950 . S
C3987 C4004 1.574 . S
C3987 C4006 1.368 . S
C3987 H4011 0.949 . S
H3988 C3992 0.949 . S
C3989 C3990 1.349 . S
C3989 C3991 1.327 . S
C3989 H4012 0.950 . S
C3990 C3989 1.349 . S
C3990 C4002 1.349 . S
C3991 C3989 1.327 . S
C3991 C4007 1.429 . S
C3991 H4013 0.950 . S
C3992 H3988 0.949 . S
C3992 C4000 1.574 . S
C3992 C4008 1.368 . S
H3993 C4001 0.950 . S
H3994 C3999 0.950 . S
H3995 C4000 0.949 . S
H3996 C4002 0.950 . S
H3997 C4003 0.950 . S
H3998 C4004 0.949 . S
C3999 H3994 0.950 . S
C3999 C4001 1.327 . S
C3999 C4005 1.429 . S
C4000 C3992 1.574 . S
C4000 H3995 0.949 . S
C4000 C4006 1.368 . S
C4001 C3985 1.349 . S
C4001 H3993 0.950 . S
C4001 C3999 1.327 . S
C4002 C3990 1.349 . S
C4002 H3996 0.950 . S
C4002 C4003 1.327 . S
C4003 H3997 0.950 . S
C4003 C4002 1.327 . S
C4003 C4007 1.429 . S
C4004 C3987 1.574 . S
C4004 H3998 0.949 . S
C4004 C4008 1.368 . S
C4005 C3986 1.429 . S
C4005 C3999 1.429 . S
C4005 C4006 1.523 . S
C4006 C3987 1.368 . S
C4006 C4000 1.368 . S
C4006 C4005 1.523 . S
C4007 C3991 1.429 . S
C4007 C4003 1.429 . S
C4007 C4008 1.523 . S
C4008 C3992 1.368 . S
C4008 C4004 1.368 . S
C4008 C4007 1.523 . S
H4009 C3984 0.950 . S
H4010 C3986 0.950 . S
H4011 C3987 0.949 . S
H4012 C3989 0.950 . S
H4013 C3991 0.950 . S
C4014 C4015 1.349 . S
C4014 C4016 1.327 . S
C4014 H4039 0.950 . S
C4015 C4014 1.349 . S
C4015 C4031 1.349 . S
C4016 C4014 1.327 . S
C4016 C4035 1.429 . S
C4016 H4040 0.950 . S
C4017 C4034 1.572 . S
C4017 C4036 1.366 1_655 S
C4017 H4041 0.951 1_655 S
H4018 C4022 0.949 . S
C4019 C4020 1.349 . S
C4019 C4021 1.327 . S
C4019 H4042 0.950 . S
C4020 C4019 1.349 . S
C4020 C4032 1.349 . S
C4021 C4019 1.327 . S
C4021 C4037 1.429 . S
C4021 H4043 0.950 . S
C4022 H4018 0.949 . S
C4022 C4030 1.574 . S
C4022 C4038 1.368 . S
H4023 C4031 0.950 . S
H4024 C4029 0.950 . S
H4025 C4030 0.949 . S
H4026 C4032 0.950 . S
H4027 C4033 0.950 . S
H4028 C4034 0.949 . S
C4029 H4024 0.950 . S
C4029 C4031 1.327 . S
C4029 C4035 1.429 . S
C4030 C4022 1.574 . S
C4030 H4025 0.949 . S
C4030 C4036 1.328 1_655 S
C4031 C4015 1.349 . S
C4031 H4023 0.950 . S
C4031 C4029 1.327 . S
C4032 C4020 1.349 . S
C4032 H4026 0.950 . S
C4032 C4033 1.327 . S
C4033 H4027 0.950 . S
C4033 C4032 1.327 . S
C4033 C4037 1.429 . S
C4034 C4017 1.572 . S
C4034 H4028 0.949 . S
C4034 C4038 1.368 . S
C4035 C4016 1.429 . S
C4035 C4029 1.429 . S
C4035 C4036 1.583 . S
C4036 C4017 1.366 1_455 S
C4036 C4030 1.328 1_455 S
C4036 C4035 1.583 . S
C4037 C4021 1.429 . S
C4037 C4033 1.429 . S
C4037 C4038 1.523 . S
C4038 C4022 1.368 . S
C4038 C4034 1.368 . S
C4038 C4037 1.523 . S
H4039 C4014 0.950 . S
H4040 C4016 0.950 . S
H4041 C4017 0.951 1_455 S
H4042 C4019 0.950 . S
H4043 C4021 0.950 . S
C4044 C4045 1.349 . S
C4044 C4046 1.327 . S
C4044 H4069 0.950 . S
C4045 C4044 1.349 . S
C4045 C4061 1.349 . S
C4046 C4044 1.327 . S
C4046 C4065 1.429 . S
C4046 H4070 0.950 . S
C4047 C4064 1.574 . S
C4047 C4066 1.368 . S
C4047 H4071 0.949 . S
H4048 C4052 0.949 . S
C4049 C4050 1.349 . S
C4049 C4051 1.327 . S
C4049 H4072 0.950 . S
C4050 C4049 1.349 . S
C4050 C4062 1.349 . S
C4051 C4049 1.327 . S
C4051 C4067 1.429 . S
C4051 H4073 0.950 . S
C4052 H4048 0.949 . S
C4052 C4060 1.574 . S
C4052 C4068 1.368 . S
H4053 C4061 0.950 . S
H4054 C4059 0.950 . S
H4055 C4060 0.949 . S
H4056 C4062 0.950 . S
H4057 C4063 0.950 . S
H4058 C4064 0.949 . S
C4059 H4054 0.950 . S
C4059 C4061 1.327 . S
C4059 C4065 1.429 . S
C4060 C4052 1.574 . S
C4060 H4055 0.949 . S
C4060 C4066 1.368 . S
C4061 C4045 1.349 . S
C4061 H4053 0.950 . S
C4061 C4059 1.327 . S
C4062 C4050 1.349 . S
C4062 H4056 0.950 . S
C4062 C4063 1.327 . S
C4063 H4057 0.950 . S
C4063 C4062 1.327 . S
C4063 C4067 1.429 . S
C4064 C4047 1.574 . S
C4064 H4058 0.949 . S
C4064 C4068 1.368 . S
C4065 C4046 1.429 . S
C4065 C4059 1.429 . S
C4065 C4066 1.523 . S
C4066 C4047 1.368 . S
C4066 C4060 1.368 . S
C4066 C4065 1.523 . S
C4067 C4051 1.429 . S
C4067 C4063 1.429 . S
C4067 C4068 1.523 . S
C4068 C4052 1.368 . S
C4068 C4064 1.368 . S
C4068 C4067 1.523 . S
H4069 C4044 0.950 . S
H4070 C4046 0.950 . S
H4071 C4047 0.949 . S
H4072 C4049 0.950 . S
H4073 C4051 0.950 . S
C4074 C4075 1.349 . S
C4074 C4076 1.327 . S
C4074 H4099 0.950 . S
C4075 C4074 1.349 . S
C4075 C4091 1.349 . S
C4076 C4074 1.327 . S
C4076 C4095 1.429 . S
C4076 H4100 0.950 . S
C4077 C4094 1.574 . S
C4077 C4096 1.368 . S
C4077 H4101 0.949 . S
H4078 C4082 0.966 . S
C4079 C4080 1.349 . S
C4079 C4081 1.327 . S
C4079 H4102 0.950 . S
C4080 C4079 1.349 . S
C4080 C4092 1.349 . S
C4081 C4079 1.327 . S
C4081 C4097 1.429 . S
C4081 H4103 0.950 . S
C4082 H4078 0.966 . S
C4082 C4090 1.554 1_655 S
C4082 C4098 1.368 . S
H4083 C4091 0.950 . S
H4084 C4089 0.950 . S
H4085 C4090 0.949 . S
H4086 C4092 0.950 . S
H4087 C4093 0.950 . S
H4088 C4094 0.949 . S
C4089 H4084 0.950 . S
C4089 C4091 1.327 . S
C4089 C4095 1.429 . S
C4090 C4082 1.554 1_455 S
C4090 H4085 0.949 . S
C4090 C4096 1.368 . S
C4091 C4075 1.349 . S
C4091 H4083 0.950 . S
C4091 C4089 1.327 . S
C4092 C4080 1.349 . S
C4092 H4086 0.950 . S
C4092 C4093 1.327 . S
C4093 H4087 0.950 . S
C4093 C4092 1.327 . S
C4093 C4097 1.429 . S
C4094 C4077 1.574 . S
C4094 H4088 0.949 . S
C4094 C4098 1.326 1_455 S
C4095 C4076 1.429 . S
C4095 C4089 1.429 . S
C4095 C4096 1.523 . S
C4096 C4077 1.368 . S
C4096 C4090 1.368 . S
C4096 C4095 1.523 . S
C4097 C4081 1.429 . S
C4097 C4093 1.429 . S
C4097 C4098 1.583 . S
C4098 C4082 1.368 . S
C4098 C4094 1.326 1_655 S
C4098 C4097 1.583 . S
H4099 C4074 0.950 . S
H4100 C4076 0.950 . S
H4101 C4077 0.949 . S
H4102 C4079 0.950 . S
H4103 C4081 0.950 . S
C4104 C4105 1.349 . S
C4104 C4106 1.327 . S
C4104 H4129 0.950 . S
C4105 C4104 1.349 . S
C4105 C4121 1.349 . S
C4106 C4104 1.327 . S
C4106 C4125 1.429 . S
C4106 H4130 0.950 . S
C4107 C4124 1.574 . S
C4107 C4126 1.368 . S
C4107 H4131 0.949 . S
H4108 C4112 0.949 . S
C4109 C4110 1.349 . S
C4109 C4111 1.327 . S
C4109 H4132 0.950 . S
C4110 C4109 1.349 . S
C4110 C4122 1.349 . S
C4111 C4109 1.327 . S
C4111 C4127 1.429 . S
C4111 H4133 0.950 . S
C4112 H4108 0.949 . S
C4112 C4120 1.574 . S
C4112 C4128 1.368 . S
H4113 C4121 0.950 . S
H4114 C4119 0.950 . S
H4115 C4120 0.949 . S
H4116 C4122 0.950 . S
H4117 C4123 0.950 . S
H4118 C4124 0.949 . S
C4119 H4114 0.950 . S
C4119 C4121 1.327 . S
C4119 C4125 1.429 . S
C4120 C4112 1.574 . S
C4120 H4115 0.949 . S
C4120 C4126 1.368 . S
C4121 C4105 1.349 . S
C4121 H4113 0.950 . S
C4121 C4119 1.327 . S
C4122 C4110 1.349 . S
C4122 H4116 0.950 . S
C4122 C4123 1.327 . S
C4123 H4117 0.950 . S
C4123 C4122 1.327 . S
C4123 C4127 1.429 . S
C4124 C4107 1.574 . S
C4124 H4118 0.949 . S
C4124 C4128 1.368 . S
C4125 C4106 1.429 . S
C4125 C4119 1.429 . S
C4125 C4126 1.523 . S
C4126 C4107 1.368 . S
C4126 C4120 1.368 . S
C4126 C4125 1.523 . S
C4127 C4111 1.429 . S
C4127 C4123 1.429 . S
C4127 C4128 1.523 . S
C4128 C4112 1.368 . S
C4128 C4124 1.368 . S
C4128 C4127 1.523 . S
H4129 C4104 0.950 . S
H4130 C4106 0.950 . S
H4131 C4107 0.949 . S
H4132 C4109 0.950 . S
H4133 C4111 0.950 . S
C4134 C4135 1.349 . S
C4134 C4136 1.327 . S
C4134 H4159 0.950 . S
C4135 C4134 1.349 . S
C4135 C4151 1.349 . S
C4136 C4134 1.327 . S
C4136 C4155 1.429 . S
C4136 H4160 0.950 . S
C4137 C4154 1.574 . S
C4137 C4156 1.368 . S
C4137 H4161 0.949 . S
H4138 C4142 0.949 . S
C4139 C4140 1.349 . S
C4139 C4141 1.327 . S
C4139 H4162 0.950 . S
C4140 C4139 1.349 . S
C4140 C4152 1.349 . S
C4141 C4139 1.327 . S
C4141 C4157 1.429 . S
C4141 H4163 0.950 . S
C4142 H4138 0.949 . S
C4142 C4150 1.574 . S
C4142 C4158 1.368 . S
H4143 C4151 0.950 . S
H4144 C4149 0.950 . S
H4145 C4150 0.949 . S
H4146 C4152 0.950 . S
H4147 C4153 0.950 . S
H4148 C4154 0.949 . S
C4149 H4144 0.950 . S
C4149 C4151 1.327 . S
C4149 C4155 1.429 . S
C4150 C4142 1.574 . S
C4150 H4145 0.949 . S
C4150 C4156 1.368 . S
C4151 C4135 1.349 . S
C4151 H4143 0.950 . S
C4151 C4149 1.327 . S
C4152 C4140 1.349 . S
C4152 H4146 0.950 . S
C4152 C4153 1.327 . S
C4153 H4147 0.950 . S
C4153 C4152 1.327 . S
C4153 C4157 1.429 . S
C4154 C4137 1.574 . S
C4154 H4148 0.949 . S
C4154 C4158 1.368 . S
C4155 C4136 1.429 . S
C4155 C4149 1.429 . S
C4155 C4156 1.523 . S
C4156 C4137 1.368 . S
C4156 C4150 1.368 . S
C4156 C4155 1.523 . S
C4157 C4141 1.429 . S
C4157 C4153 1.429 . S
C4157 C4158 1.523 . S
C4158 C4142 1.368 . S
C4158 C4154 1.368 . S
C4158 C4157 1.523 . S
H4159 C4134 0.950 . S
H4160 C4136 0.950 . S
H4161 C4137 0.949 . S
H4162 C4139 0.950 . S
H4163 C4141 0.950 . S
C4164 C4165 1.349 . S
C4164 C4166 1.327 . S
C4164 H4189 0.950 . S
C4165 C4164 1.349 . S
C4165 C4181 1.349 . S
C4166 C4164 1.327 . S
C4166 C4185 1.429 . S
C4166 H4190 0.950 . S
C4167 C4184 1.574 . S
C4167 C4186 1.368 . S
C4167 H4191 0.949 . S
H4168 C4172 0.949 . S
C4169 C4170 1.349 . S
C4169 C4171 1.327 . S
C4169 H4192 0.950 . S
C4170 C4169 1.349 . S
C4170 C4182 1.349 . S
C4171 C4169 1.327 . S
C4171 C4187 1.429 . S
C4171 H4193 0.950 . S
C4172 H4168 0.949 . S
C4172 C4180 1.574 . S
C4172 C4188 1.368 . S
H4173 C4181 0.950 . S
H4174 C4179 0.950 . S
H4175 C4180 0.949 . S
H4176 C4182 0.950 . S
H4177 C4183 0.950 . S
H4178 C4184 0.949 . S
C4179 H4174 0.950 . S
C4179 C4181 1.327 . S
C4179 C4185 1.429 . S
C4180 C4172 1.574 . S
C4180 H4175 0.949 . S
C4180 C4186 1.368 . S
C4181 C4165 1.349 . S
C4181 H4173 0.950 . S
C4181 C4179 1.327 . S
C4182 C4170 1.349 . S
C4182 H4176 0.950 . S
C4182 C4183 1.327 . S
C4183 H4177 0.950 . S
C4183 C4182 1.327 . S
C4183 C4187 1.429 . S
C4184 C4167 1.574 . S
C4184 H4178 0.949 . S
C4184 C4188 1.368 . S
C4185 C4166 1.429 . S
C4185 C4179 1.429 . S
C4185 C4186 1.523 . S
C4186 C4167 1.368 . S
C4186 C4180 1.368 . S
C4186 C4185 1.523 . S
C4187 C4171 1.429 . S
C4187 C4183 1.429 . S
C4187 C4188 1.523 . S
C4188 C4172 1.368 . S
C4188 C4184 1.368 . S
C4188 C4187 1.523 . S
H4189 C4164 0.950 . S
H4190 C4166 0.950 . S
H4191 C4167 0.949 . S
H4192 C4169 0.950 . S
H4193 C4171 0.950 . S
C4194 C4195 1.349 . S
C4194 C4196 1.327 . S
C4194 H4219 0.950 . S
C4195 C4194 1.349 . S
C4195 C4211 1.349 . S
C4196 C4194 1.327 . S
C4196 C4215 1.429 . S
C4196 H4220 0.950 . S
C4197 C4214 1.574 . S
C4197 C4216 1.368 . S
C4197 H4221 0.949 . S
H4198 C4202 0.949 . S
C4199 C4200 1.349 . S
C4199 C4201 1.327 . S
C4199 H4222 0.950 . S
C4200 C4199 1.349 . S
C4200 C4212 1.349 . S
C4201 C4199 1.327 . S
C4201 C4217 1.429 . S
C4201 H4223 0.950 . S
C4202 H4198 0.949 . S
C4202 C4210 1.574 . S
C4202 C4218 1.368 . S
H4203 C4211 0.950 . S
H4204 C4209 0.950 . S
H4205 C4210 0.949 . S
H4206 C4212 0.950 . S
H4207 C4213 0.950 . S
H4208 C4214 0.949 . S
C4209 H4204 0.950 . S
C4209 C4211 1.327 . S
C4209 C4215 1.429 . S
C4210 C4202 1.574 . S
C4210 H4205 0.949 . S
C4210 C4216 1.368 . S
C4211 C4195 1.349 . S
C4211 H4203 0.950 . S
C4211 C4209 1.327 . S
C4212 C4200 1.349 . S
C4212 H4206 0.950 . S
C4212 C4213 1.327 . S
C4213 H4207 0.950 . S
C4213 C4212 1.327 . S
C4213 C4217 1.429 . S
C4214 C4197 1.574 . S
C4214 H4208 0.949 . S
C4214 C4218 1.368 . S
C4215 C4196 1.429 . S
C4215 C4209 1.429 . S
C4215 C4216 1.523 . S
C4216 C4197 1.368 . S
C4216 C4210 1.368 . S
C4216 C4215 1.523 . S
C4217 C4201 1.429 . S
C4217 C4213 1.429 . S
C4217 C4218 1.523 . S
C4218 C4202 1.368 . S
C4218 C4214 1.368 . S
C4218 C4217 1.523 . S
H4219 C4194 0.950 . S
H4220 C4196 0.950 . S
H4221 C4197 0.949 . S
H4222 C4199 0.950 . S
H4223 C4201 0.950 . S
C4224 C4225 1.349 . S
C4224 C4226 1.327 . S
C4224 H4249 0.950 . S
C4225 C4224 1.349 . S
C4225 C4241 1.349 . S
C4226 C4224 1.327 . S
C4226 C4245 1.429 . S
C4226 H4250 0.950 . S
C4227 C4244 1.574 . S
C4227 C4246 1.368 . S
C4227 H4251 0.949 . S
H4228 C4232 0.949 . S
C4229 C4230 1.349 . S
C4229 C4231 1.327 . S
C4229 H4252 0.950 . S
C4230 C4229 1.349 . S
C4230 C4242 1.349 . S
C4231 C4229 1.327 . S
C4231 C4247 1.429 . S
C4231 H4253 0.950 . S
C4232 H4228 0.949 . S
C4232 C4240 1.574 . S
C4232 C4248 1.368 . S
H4233 C4241 0.950 . S
H4234 C4239 0.950 . S
H4235 C4240 0.949 . S
H4236 C4242 0.950 . S
H4237 C4243 0.950 . S
H4238 C4244 0.949 . S
C4239 H4234 0.950 . S
C4239 C4241 1.327 . S
C4239 C4245 1.429 . S
C4240 C4232 1.574 . S
C4240 H4235 0.949 . S
C4240 C4246 1.368 . S
C4241 C4225 1.349 . S
C4241 H4233 0.950 . S
C4241 C4239 1.327 . S
C4242 C4230 1.349 . S
C4242 H4236 0.950 . S
C4242 C4243 1.327 . S
C4243 H4237 0.950 . S
C4243 C4242 1.327 . S
C4243 C4247 1.429 . S
C4244 C4227 1.574 . S
C4244 H4238 0.949 . S
C4244 C4248 1.368 . S
C4245 C4226 1.429 . S
C4245 C4239 1.429 . S
C4245 C4246 1.523 . S
C4246 C4227 1.368 . S
C4246 C4240 1.368 . S
C4246 C4245 1.523 . S
C4247 C4231 1.429 . S
C4247 C4243 1.429 . S
C4247 C4248 1.523 . S
C4248 C4232 1.368 . S
C4248 C4244 1.368 . S
C4248 C4247 1.523 . S
H4249 C4224 0.950 . S
H4250 C4226 0.950 . S
H4251 C4227 0.949 . S
H4252 C4229 0.950 . S
H4253 C4231 0.950 . S
C4254 C4255 1.349 . S
C4254 C4256 1.327 . S
C4254 H4279 0.950 . S
C4255 C4254 1.349 . S
C4255 C4271 1.349 . S
C4256 C4254 1.327 . S
C4256 C4275 1.429 . S
C4256 H4280 0.950 . S
C4257 C4274 1.574 . S
C4257 C4276 1.368 . S
C4257 H4281 0.949 . S
H4258 C4262 0.949 . S
C4259 C4260 1.349 . S
C4259 C4261 1.327 . S
C4259 H4282 0.950 . S
C4260 C4259 1.349 . S
C4260 C4272 1.349 . S
C4261 C4259 1.327 . S
C4261 C4277 1.429 . S
C4261 H4283 0.950 . S
C4262 H4258 0.949 . S
C4262 C4270 1.574 . S
C4262 C4278 1.368 . S
H4263 C4271 0.950 . S
H4264 C4269 0.950 . S
H4265 C4270 0.949 . S
H4266 C4272 0.950 . S
H4267 C4273 0.950 . S
H4268 C4274 0.949 . S
C4269 H4264 0.950 . S
C4269 C4271 1.327 . S
C4269 C4275 1.429 . S
C4270 C4262 1.574 . S
C4270 H4265 0.949 . S
C4270 C4276 1.368 . S
C4271 C4255 1.349 . S
C4271 H4263 0.950 . S
C4271 C4269 1.327 . S
C4272 C4260 1.349 . S
C4272 H4266 0.950 . S
C4272 C4273 1.327 . S
C4273 H4267 0.950 . S
C4273 C4272 1.327 . S
C4273 C4277 1.429 . S
C4274 C4257 1.574 . S
C4274 H4268 0.949 . S
C4274 C4278 1.368 . S
C4275 C4256 1.429 . S
C4275 C4269 1.429 . S
C4275 C4276 1.523 . S
C4276 C4257 1.368 . S
C4276 C4270 1.368 . S
C4276 C4275 1.523 . S
C4277 C4261 1.429 . S
C4277 C4273 1.429 . S
C4277 C4278 1.523 . S
C4278 C4262 1.368 . S
C4278 C4274 1.368 . S
C4278 C4277 1.523 . S
H4279 C4254 0.950 . S
H4280 C4256 0.950 . S
H4281 C4257 0.949 . S
H4282 C4259 0.950 . S
H4283 C4261 0.950 . S
C4284 C4285 1.349 . S
C4284 C4286 1.327 . S
C4284 H4309 0.950 . S
C4285 C4284 1.349 . S
C4285 C4301 1.349 . S
C4286 C4284 1.327 . S
C4286 C4305 1.429 . S
C4286 H4310 0.950 . S
C4287 C4304 1.574 . S
C4287 C4306 1.368 . S
C4287 H4311 0.949 . S
H4288 C4292 0.949 . S
C4289 C4290 1.349 . S
C4289 C4291 1.327 . S
C4289 H4312 0.950 . S
C4290 C4289 1.349 . S
C4290 C4302 1.349 . S
C4291 C4289 1.327 . S
C4291 C4307 1.429 . S
C4291 H4313 0.950 . S
C4292 H4288 0.949 . S
C4292 C4300 1.574 . S
C4292 C4308 1.368 . S
H4293 C4301 0.950 . S
H4294 C4299 0.950 . S
H4295 C4300 0.949 . S
H4296 C4302 0.950 . S
H4297 C4303 0.950 . S
H4298 C4304 0.949 . S
C4299 H4294 0.950 . S
C4299 C4301 1.327 . S
C4299 C4305 1.429 . S
C4300 C4292 1.574 . S
C4300 H4295 0.949 . S
C4300 C4306 1.368 . S
C4301 C4285 1.349 . S
C4301 H4293 0.950 . S
C4301 C4299 1.327 . S
C4302 C4290 1.349 . S
C4302 H4296 0.950 . S
C4302 C4303 1.327 . S
C4303 H4297 0.950 . S
C4303 C4302 1.327 . S
C4303 C4307 1.429 . S
C4304 C4287 1.574 . S
C4304 H4298 0.949 . S
C4304 C4308 1.368 . S
C4305 C4286 1.429 . S
C4305 C4299 1.429 . S
C4305 C4306 1.523 . S
C4306 C4287 1.368 . S
C4306 C4300 1.368 . S
C4306 C4305 1.523 . S
C4307 C4291 1.429 . S
C4307 C4303 1.429 . S
C4307 C4308 1.523 . S
C4308 C4292 1.368 . S
C4308 C4304 1.368 . S
C4308 C4307 1.523 . S
H4309 C4284 0.950 . S
H4310 C4286 0.950 . S
H4311 C4287 0.949 . S
H4312 C4289 0.950 . S
H4313 C4291 0.950 . S
C4314 C4315 1.349 . S
C4314 C4316 1.327 . S
C4314 H4339 0.950 . S
C4315 C4314 1.349 . S
C4315 C4331 1.349 . S
C4316 C4314 1.327 . S
C4316 C4335 1.429 . S
C4316 H4340 0.950 . S
C4317 C4334 1.574 . S
C4317 C4336 1.368 . S
C4317 H4341 0.949 . S
H4318 C4322 0.949 . S
C4319 C4320 1.349 . S
C4319 C4321 1.327 . S
C4319 H4342 0.950 . S
C4320 C4319 1.349 . S
C4320 C4332 1.349 . S
C4321 C4319 1.327 . S
C4321 C4337 1.429 . S
C4321 H4343 0.950 . S
C4322 H4318 0.949 . S
C4322 C4330 1.574 . S
C4322 C4338 1.368 . S
H4323 C4331 0.950 . S
H4324 C4329 0.950 . S
H4325 C4330 0.949 . S
H4326 C4332 0.950 . S
H4327 C4333 0.950 . S
H4328 C4334 0.949 . S
C4329 H4324 0.950 . S
C4329 C4331 1.327 . S
C4329 C4335 1.429 . S
C4330 C4322 1.574 . S
C4330 H4325 0.949 . S
C4330 C4336 1.368 . S
C4331 C4315 1.349 . S
C4331 H4323 0.950 . S
C4331 C4329 1.327 . S
C4332 C4320 1.349 . S
C4332 H4326 0.950 . S
C4332 C4333 1.327 . S
C4333 H4327 0.950 . S
C4333 C4332 1.327 . S
C4333 C4337 1.429 . S
C4334 C4317 1.574 . S
C4334 H4328 0.949 . S
C4334 C4338 1.368 . S
C4335 C4316 1.429 . S
C4335 C4329 1.429 . S
C4335 C4336 1.523 . S
C4336 C4317 1.368 . S
C4336 C4330 1.368 . S
C4336 C4335 1.523 . S
C4337 C4321 1.429 . S
C4337 C4333 1.429 . S
C4337 C4338 1.523 . S
C4338 C4322 1.368 . S
C4338 C4334 1.368 . S
C4338 C4337 1.523 . S
H4339 C4314 0.950 . S
H4340 C4316 0.950 . S
H4341 C4317 0.949 . S
H4342 C4319 0.950 . S
H4343 C4321 0.950 . S
C4344 C4345 1.349 . S
C4344 C4346 1.327 . S
C4344 H4369 0.950 . S
C4345 C4344 1.349 . S
C4345 C4361 1.349 . S
C4346 C4344 1.327 . S
C4346 C4365 1.429 . S
C4346 H4370 0.950 . S
C4347 C4364 1.574 . S
C4347 C4366 1.368 . S
C4347 H4371 0.949 . S
H4348 C4352 0.949 . S
C4349 C4350 1.349 . S
C4349 C4351 1.327 . S
C4349 H4372 0.950 . S
C4350 C4349 1.349 . S
C4350 C4362 1.349 . S
C4351 C4349 1.327 . S
C4351 C4367 1.429 . S
C4351 H4373 0.950 . S
C4352 H4348 0.949 . S
C4352 C4360 1.574 1_554 S
C4352 C4368 1.377 . S
H4353 C4361 0.950 . S
H4354 C4359 0.950 . S
H4355 C4360 0.949 . S
H4356 C4362 0.950 . S
H4357 C4363 0.950 . S
H4358 C4364 0.949 . S
C4359 H4354 0.950 . S
C4359 C4361 1.327 . S
C4359 C4365 1.429 . S
C4360 C4352 1.574 1_556 S
C4360 H4355 0.949 . S
C4360 C4366 1.368 . S
C4361 C4345 1.349 . S
C4361 H4353 0.950 . S
C4361 C4359 1.327 . S
C4362 C4350 1.349 . S
C4362 H4356 0.950 . S
C4362 C4363 1.327 . S
C4363 H4357 0.950 . S
C4363 C4362 1.327 . S
C4363 C4367 1.429 . S
C4364 C4347 1.574 . S
C4364 H4358 0.949 . S
C4364 C4368 1.316 1_556 S
C4365 C4346 1.429 . S
C4365 C4359 1.429 . S
C4365 C4366 1.523 . S
C4366 C4347 1.368 . S
C4366 C4360 1.368 . S
C4366 C4365 1.523 . S
C4367 C4351 1.429 . S
C4367 C4363 1.429 . S
C4367 C4368 1.583 . S
C4368 C4352 1.377 . S
C4368 C4364 1.316 1_554 S
C4368 C4367 1.583 . S
H4369 C4344 0.950 . S
H4370 C4346 0.950 . S
H4371 C4347 0.949 . S
H4372 C4349 0.950 . S
H4373 C4351 0.950 . S
C4374 C4375 1.349 . S
C4374 C4376 1.327 . S
C4374 H4399 0.950 . S
C4375 C4374 1.349 . S
C4375 C4391 1.349 . S
C4376 C4374 1.327 . S
C4376 C4395 1.429 . S
C4376 H4400 0.950 . S
C4377 C4394 1.574 . S
C4377 C4396 1.368 . S
C4377 H4401 0.949 . S
H4378 C4382 0.949 . S
C4379 C4380 1.349 . S
C4379 C4381 1.327 . S
C4379 H4402 0.950 . S
C4380 C4379 1.349 . S
C4380 C4392 1.349 . S
C4381 C4379 1.327 . S
C4381 C4397 1.429 . S
C4381 H4403 0.950 . S
C4382 H4378 0.949 . S
C4382 C4390 1.574 . S
C4382 C4398 1.368 . S
H4383 C4391 0.950 . S
H4384 C4389 0.950 . S
H4385 C4390 0.949 . S
H4386 C4392 0.950 . S
H4387 C4393 0.950 . S
H4388 C4394 0.949 . S
C4389 H4384 0.950 . S
C4389 C4391 1.327 . S
C4389 C4395 1.429 . S
C4390 C4382 1.574 . S
C4390 H4385 0.949 . S
C4390 C4396 1.368 . S
C4391 C4375 1.349 . S
C4391 H4383 0.950 . S
C4391 C4389 1.327 . S
C4392 C4380 1.349 . S
C4392 H4386 0.950 . S
C4392 C4393 1.327 . S
C4393 H4387 0.950 . S
C4393 C4392 1.327 . S
C4393 C4397 1.429 . S
C4394 C4377 1.574 . S
C4394 H4388 0.949 . S
C4394 C4398 1.368 . S
C4395 C4376 1.429 . S
C4395 C4389 1.429 . S
C4395 C4396 1.523 . S
C4396 C4377 1.368 . S
C4396 C4390 1.368 . S
C4396 C4395 1.523 . S
C4397 C4381 1.429 . S
C4397 C4393 1.429 . S
C4397 C4398 1.523 . S
C4398 C4382 1.368 . S
C4398 C4394 1.368 . S
C4398 C4397 1.523 . S
H4399 C4374 0.950 . S
H4400 C4376 0.950 . S
H4401 C4377 0.949 . S
H4402 C4379 0.950 . S
H4403 C4381 0.950 . S
C4404 C4405 1.349 . S
C4404 C4406 1.327 . S
C4404 H4429 0.950 . S
C4405 C4404 1.349 . S
C4405 C4421 1.349 . S
C4406 C4404 1.327 . S
C4406 C4425 1.429 . S
C4406 H4430 0.950 . S
C4407 C4424 1.574 . S
C4407 C4426 1.368 . S
C4407 H4431 0.949 . S
H4408 C4412 0.949 . S
C4409 C4410 1.349 . S
C4409 C4411 1.327 . S
C4409 H4432 0.950 . S
C4410 C4409 1.349 . S
C4410 C4422 1.349 . S
C4411 C4409 1.327 . S
C4411 C4427 1.429 . S
C4411 H4433 0.950 . S
C4412 H4408 0.949 . S
C4412 C4420 1.574 1_556 S
C4412 C4428 1.371 . S
H4413 C4421 0.950 . S
H4414 C4419 0.950 . S
H4415 C4420 0.949 . S
H4416 C4422 0.950 . S
H4417 C4423 0.950 . S
H4418 C4424 0.949 . S
C4419 H4414 0.950 . S
C4419 C4421 1.327 . S
C4419 C4425 1.429 . S
C4420 C4412 1.574 1_554 S
C4420 H4415 0.949 . S
C4420 C4426 1.368 . S
C4421 C4405 1.349 . S
C4421 H4413 0.950 . S
C4421 C4419 1.327 . S
C4422 C4410 1.349 . S
C4422 H4416 0.950 . S
C4422 C4423 1.327 . S
C4423 H4417 0.950 . S
C4423 C4422 1.327 . S
C4423 C4427 1.429 . S
C4424 C4407 1.574 . S
C4424 H4418 0.949 . S
C4424 C4428 1.323 1_554 S
C4425 C4406 1.429 . S
C4425 C4419 1.429 . S
C4425 C4426 1.523 . S
C4426 C4407 1.368 . S
C4426 C4420 1.368 . S
C4426 C4425 1.523 . S
C4427 C4411 1.429 . S
C4427 C4423 1.429 . S
C4427 C4428 1.583 . S
C4428 C4412 1.371 . S
C4428 C4424 1.323 1_556 S
C4428 C4427 1.583 . S
H4429 C4404 0.950 . S
H4430 C4406 0.950 . S
H4431 C4407 0.949 . S
H4432 C4409 0.950 . S
H4433 C4411 0.950 . S
C4434 C4435 1.349 . S
C4434 C4436 1.327 . S
C4434 H4459 0.950 . S
C4435 C4434 1.349 . S
C4435 C4451 1.349 . S
C4436 C4434 1.327 . S
C4436 C4455 1.429 . S
C4436 H4460 0.950 . S
C4437 C4454 1.574 1_556 S
C4437 C4456 1.380 . S
C4437 H4461 0.949 . S
H4438 C4442 0.949 . S
C4439 C4440 1.349 . S
C4439 C4441 1.327 . S
C4439 H4462 0.950 . S
C4440 C4439 1.349 . S
C4440 C4452 1.349 . S
C4441 C4439 1.327 . S
C4441 C4457 1.429 . S
C4441 H4463 0.950 . S
C4442 H4438 0.949 . S
C4442 C4450 1.574 . S
C4442 C4458 1.368 . S
H4443 C4451 0.950 . S
H4444 C4449 0.950 . S
H4445 C4450 0.949 . S
H4446 C4452 0.950 . S
H4447 C4453 0.950 . S
H4448 C4454 0.949 . S
C4449 H4444 0.950 . S
C4449 C4451 1.327 . S
C4449 C4455 1.429 . S
C4450 C4442 1.574 . S
C4450 H4445 0.949 . S
C4450 C4456 1.313 1_554 S
C4451 C4435 1.349 . S
C4451 H4443 0.950 . S
C4451 C4449 1.327 . S
C4452 C4440 1.349 . S
C4452 H4446 0.950 . S
C4452 C4453 1.327 . S
C4453 H4447 0.950 . S
C4453 C4452 1.327 . S
C4453 C4457 1.429 . S
C4454 C4437 1.574 1_554 S
C4454 H4448 0.949 . S
C4454 C4458 1.368 . S
C4455 C4436 1.429 . S
C4455 C4449 1.429 . S
C4455 C4456 1.583 . S
C4456 C4437 1.380 . S
C4456 C4450 1.313 1_556 S
C4456 C4455 1.583 . S
C4457 C4441 1.429 . S
C4457 C4453 1.429 . S
C4457 C4458 1.523 . S
C4458 C4442 1.368 . S
C4458 C4454 1.368 . S
C4458 C4457 1.523 . S
H4459 C4434 0.950 . S
H4460 C4436 0.950 . S
H4461 C4437 0.949 . S
H4462 C4439 0.950 . S
H4463 C4441 0.950 . S
C4464 C4465 1.349 . S
C4464 C4466 1.327 . S
C4464 H4489 0.950 . S
C4465 C4464 1.349 . S
C4465 C4481 1.349 . S
C4466 C4464 1.327 . S
C4466 C4485 1.429 . S
C4466 H4490 0.950 . S
C4467 C4484 1.574 . S
C4467 C4486 1.368 . S
C4467 H4491 0.949 . S
H4468 C4472 0.949 . S
C4469 C4470 1.349 . S
C4469 C4471 1.327 . S
C4469 H4492 0.950 . S
C4470 C4469 1.349 . S
C4470 C4482 1.349 . S
C4471 C4469 1.327 . S
C4471 C4487 1.429 . S
C4471 H4493 0.950 . S
C4472 H4468 0.949 . S
C4472 C4480 1.574 . S
C4472 C4488 1.368 . S
H4473 C4481 0.950 . S
H4474 C4479 0.950 . S
H4475 C4480 0.949 . S
H4476 C4482 0.950 . S
H4477 C4483 0.950 . S
H4478 C4484 0.949 . S
C4479 H4474 0.950 . S
C4479 C4481 1.327 . S
C4479 C4485 1.429 . S
C4480 C4472 1.574 . S
C4480 H4475 0.949 . S
C4480 C4486 1.368 . S
C4481 C4465 1.349 . S
C4481 H4473 0.950 . S
C4481 C4479 1.327 . S
C4482 C4470 1.349 . S
C4482 H4476 0.950 . S
C4482 C4483 1.327 . S
C4483 H4477 0.950 . S
C4483 C4482 1.327 . S
C4483 C4487 1.429 . S
C4484 C4467 1.574 . S
C4484 H4478 0.949 . S
C4484 C4488 1.368 . S
C4485 C4466 1.429 . S
C4485 C4479 1.429 . S
C4485 C4486 1.523 . S
C4486 C4467 1.368 . S
C4486 C4480 1.368 . S
C4486 C4485 1.523 . S
C4487 C4471 1.429 . S
C4487 C4483 1.429 . S
C4487 C4488 1.523 . S
C4488 C4472 1.368 . S
C4488 C4484 1.368 . S
C4488 C4487 1.523 . S
H4489 C4464 0.950 . S
H4490 C4466 0.950 . S
H4491 C4467 0.949 . S
H4492 C4469 0.950 . S
H4493 C4471 0.950 . S
C4494 C4495 1.349 . S
C4494 C4496 1.327 . S
C4494 H4519 0.950 . S
C4495 C4494 1.349 . S
C4495 C4511 1.349 . S
C4496 C4494 1.327 . S
C4496 C4515 1.429 . S
C4496 H4520 0.950 . S
C4497 C4514 1.574 . S
C4497 C4516 1.368 . S
C4497 H4521 0.949 . S
H4498 C4502 0.949 . S
C4499 C4500 1.349 . S
C4499 C4501 1.327 . S
C4499 H4522 0.950 . S
C4500 C4499 1.349 . S
C4500 C4512 1.349 . S
C4501 C4499 1.327 . S
C4501 C4517 1.429 . S
C4501 H4523 0.950 . S
C4502 H4498 0.949 . S
C4502 C4510 1.574 . S
C4502 C4518 1.368 . S
H4503 C4511 0.950 . S
H4504 C4509 0.950 . S
H4505 C4510 0.949 . S
H4506 C4512 0.950 . S
H4507 C4513 0.950 . S
H4508 C4514 0.949 . S
C4509 H4504 0.950 . S
C4509 C4511 1.327 . S
C4509 C4515 1.429 . S
C4510 C4502 1.574 . S
C4510 H4505 0.949 . S
C4510 C4516 1.368 . S
C4511 C4495 1.349 . S
C4511 H4503 0.950 . S
C4511 C4509 1.327 . S
C4512 C4500 1.349 . S
C4512 H4506 0.950 . S
C4512 C4513 1.327 . S
C4513 H4507 0.950 . S
C4513 C4512 1.327 . S
C4513 C4517 1.429 . S
C4514 C4497 1.574 . S
C4514 H4508 0.949 . S
C4514 C4518 1.368 . S
C4515 C4496 1.429 . S
C4515 C4509 1.429 . S
C4515 C4516 1.523 . S
C4516 C4497 1.368 . S
C4516 C4510 1.368 . S
C4516 C4515 1.523 . S
C4517 C4501 1.429 . S
C4517 C4513 1.429 . S
C4517 C4518 1.523 . S
C4518 C4502 1.368 . S
C4518 C4514 1.368 . S
C4518 C4517 1.523 . S
H4519 C4494 0.950 . S
H4520 C4496 0.950 . S
H4521 C4497 0.949 . S
H4522 C4499 0.950 . S
H4523 C4501 0.950 . S
C4524 C4525 1.349 . S
C4524 C4526 1.327 . S
C4524 H4549 0.950 . S
C4525 C4524 1.349 . S
C4525 C4541 1.349 . S
C4526 C4524 1.327 . S
C4526 C4545 1.429 . S
C4526 H4550 0.950 . S
C4527 C4544 1.574 . S
C4527 C4546 1.368 . S
C4527 H4551 0.949 . S
H4528 C4532 0.949 . S
C4529 C4530 1.349 . S
C4529 C4531 1.327 . S
C4529 H4552 0.950 . S
C4530 C4529 1.349 . S
C4530 C4542 1.349 . S
C4531 C4529 1.327 . S
C4531 C4547 1.429 . S
C4531 H4553 0.950 . S
C4532 H4528 0.949 . S
C4532 C4540 1.574 . S
C4532 C4548 1.368 . S
H4533 C4541 0.950 . S
H4534 C4539 0.950 . S
H4535 C4540 0.949 . S
H4536 C4542 0.950 . S
H4537 C4543 0.950 . S
H4538 C4544 0.949 . S
C4539 H4534 0.950 . S
C4539 C4541 1.327 . S
C4539 C4545 1.429 . S
C4540 C4532 1.574 . S
C4540 H4535 0.949 . S
C4540 C4546 1.368 . S
C4541 C4525 1.349 . S
C4541 H4533 0.950 . S
C4541 C4539 1.327 . S
C4542 C4530 1.349 . S
C4542 H4536 0.950 . S
C4542 C4543 1.327 . S
C4543 H4537 0.950 . S
C4543 C4542 1.327 . S
C4543 C4547 1.429 . S
C4544 C4527 1.574 . S
C4544 H4538 0.949 . S
C4544 C4548 1.368 . S
C4545 C4526 1.429 . S
C4545 C4539 1.429 . S
C4545 C4546 1.523 . S
C4546 C4527 1.368 . S
C4546 C4540 1.368 . S
C4546 C4545 1.523 . S
C4547 C4531 1.429 . S
C4547 C4543 1.429 . S
C4547 C4548 1.523 . S
C4548 C4532 1.368 . S
C4548 C4544 1.368 . S
C4548 C4547 1.523 . S
H4549 C4524 0.950 . S
H4550 C4526 0.950 . S
H4551 C4527 0.949 . S
H4552 C4529 0.950 . S
H4553 C4531 0.950 . S
C4554 C4555 1.349 . S
C4554 C4556 1.327 . S
C4554 H4579 0.950 . S
C4555 C4554 1.349 . S
C4555 C4571 1.349 . S
C4556 C4554 1.327 . S
C4556 C4575 1.429 . S
C4556 H4580 0.950 . S
C4557 C4574 1.574 1_545 S
C4557 C4576 1.368 . S
C4557 H4581 0.949 . S
H4558 C4562 0.949 . S
C4559 C4560 1.349 . S
C4559 C4561 1.327 . S
C4559 H4582 0.950 . S
C4560 C4559 1.349 . S
C4560 C4572 1.349 . S
C4561 C4559 1.327 . S
C4561 C4577 1.429 . S
C4561 H4583 0.950 . S
C4562 H4558 0.949 . S
C4562 C4570 1.574 1_565 S
C4562 C4578 1.368 . S
H4563 C4571 0.950 . S
H4564 C4569 0.950 . S
H4565 C4570 0.949 . S
H4566 C4572 0.950 . S
H4567 C4573 0.950 . S
H4568 C4574 0.949 . S
C4569 H4564 0.950 . S
C4569 C4571 1.327 . S
C4569 C4575 1.429 . S
C4570 C4562 1.574 1_545 S
C4570 H4565 0.949 . S
C4570 C4576 1.368 . S
C4571 C4555 1.349 . S
C4571 H4563 0.950 . S
C4571 C4569 1.327 . S
C4572 C4560 1.349 . S
C4572 H4566 0.950 . S
C4572 C4573 1.327 . S
C4573 H4567 0.950 . S
C4573 C4572 1.327 . S
C4573 C4577 1.429 . S
C4574 C4557 1.574 1_565 S
C4574 H4568 0.949 . S
C4574 C4578 1.368 . S
C4575 C4556 1.429 . S
C4575 C4569 1.429 . S
C4575 C4576 1.523 . S
C4576 C4557 1.368 . S
C4576 C4570 1.368 . S
C4576 C4575 1.523 . S
C4577 C4561 1.429 . S
C4577 C4573 1.429 . S
C4577 C4578 1.523 . S
C4578 C4562 1.368 . S
C4578 C4574 1.368 . S
C4578 C4577 1.523 . S
H4579 C4554 0.950 . S
H4580 C4556 0.950 . S
H4581 C4557 0.949 . S
H4582 C4559 0.950 . S
H4583 C4561 0.950 . S
C4584 C4585 1.349 . S
C4584 C4586 1.327 . S
C4584 H4609 0.950 . S
C4585 C4584 1.349 . S
C4585 C4601 1.349 . S
C4586 C4584 1.327 . S
C4586 C4605 1.429 . S
C4586 H4610 0.950 . S
C4587 C4604 1.574 . S
C4587 C4606 1.368 . S
C4587 H4611 0.949 . S
H4588 C4592 0.949 . S
C4589 C4590 1.349 . S
C4589 C4591 1.327 . S
C4589 H4612 0.950 . S
C4590 C4589 1.349 . S
C4590 C4602 1.349 . S
C4591 C4589 1.327 . S
C4591 C4607 1.429 . S
C4591 H4613 0.950 . S
C4592 H4588 0.949 . S
C4592 C4600 1.574 . S
C4592 C4608 1.368 . S
H4593 C4601 0.950 . S
H4594 C4599 0.950 . S
H4595 C4600 0.949 . S
H4596 C4602 0.950 . S
H4597 C4603 0.950 . S
H4598 C4604 0.949 . S
C4599 H4594 0.950 . S
C4599 C4601 1.327 . S
C4599 C4605 1.429 . S
C4600 C4592 1.574 . S
C4600 H4595 0.949 . S
C4600 C4606 1.368 1_556 S
C4601 C4585 1.349 . S
C4601 H4593 0.950 . S
C4601 C4599 1.327 . S
C4602 C4590 1.349 . S
C4602 H4596 0.950 . S
C4602 C4603 1.327 . S
C4603 H4597 0.950 . S
C4603 C4602 1.327 . S
C4603 C4607 1.429 . S
C4604 C4587 1.574 . S
C4604 H4598 0.949 . S
C4604 C4608 1.368 1_554 S
C4605 C4586 1.429 . S
C4605 C4599 1.429 . S
C4605 C4606 1.523 . S
C4606 C4587 1.368 . S
C4606 C4600 1.368 1_554 S
C4606 C4605 1.523 . S
C4607 C4591 1.429 . S
C4607 C4603 1.429 . S
C4607 C4608 1.523 . S
C4608 C4592 1.368 . S
C4608 C4604 1.368 1_556 S
C4608 C4607 1.523 . S
H4609 C4584 0.950 . S
H4610 C4586 0.950 . S
H4611 C4587 0.949 . S
H4612 C4589 0.950 . S
H4613 C4591 0.950 . S
C4614 C4615 1.349 . S
C4614 C4616 1.327 . S
C4614 H4639 0.950 . S
C4615 C4614 1.349 . S
C4615 C4631 1.349 . S
C4616 C4614 1.327 . S
C4616 C4635 1.429 . S
C4616 H4640 0.950 . S
C4617 C4634 1.574 . S
C4617 C4636 1.368 . S
C4617 H4641 0.949 . S
H4618 C4622 0.949 . S
C4619 C4620 1.349 . S
C4619 C4621 1.327 . S
C4619 H4642 0.950 . S
C4620 C4619 1.349 . S
C4620 C4632 1.349 . S
C4621 C4619 1.327 . S
C4621 C4637 1.429 . S
C4621 H4643 0.950 . S
C4622 H4618 0.949 . S
C4622 C4630 1.574 . S
C4622 C4638 1.368 . S
H4623 C4631 0.950 . S
H4624 C4629 0.950 . S
H4625 C4630 0.949 . S
H4626 C4632 0.950 . S
H4627 C4633 0.950 . S
H4628 C4634 0.949 . S
C4629 H4624 0.950 . S
C4629 C4631 1.327 . S
C4629 C4635 1.429 . S
C4630 C4622 1.574 . S
C4630 H4625 0.949 . S
C4630 C4636 1.368 . S
C4631 C4615 1.349 . S
C4631 H4623 0.950 . S
C4631 C4629 1.327 . S
C4632 C4620 1.349 . S
C4632 H4626 0.950 . S
C4632 C4633 1.327 . S
C4633 H4627 0.950 . S
C4633 C4632 1.327 . S
C4633 C4637 1.429 . S
C4634 C4617 1.574 . S
C4634 H4628 0.949 . S
C4634 C4638 1.368 . S
C4635 C4616 1.429 . S
C4635 C4629 1.429 . S
C4635 C4636 1.523 . S
C4636 C4617 1.368 . S
C4636 C4630 1.368 . S
C4636 C4635 1.523 . S
C4637 C4621 1.429 . S
C4637 C4633 1.429 . S
C4637 C4638 1.523 . S
C4638 C4622 1.368 . S
C4638 C4634 1.368 . S
C4638 C4637 1.523 . S
H4639 C4614 0.950 . S
H4640 C4616 0.950 . S
H4641 C4617 0.949 . S
H4642 C4619 0.950 . S
H4643 C4621 0.950 . S
C4644 C4645 1.349 . S
C4644 C4646 1.327 . S
C4644 H4669 0.950 . S
C4645 C4644 1.349 . S
C4645 C4661 1.349 . S
C4646 C4644 1.327 . S
C4646 C4665 1.429 . S
C4646 H4670 0.950 . S
C4647 C4664 1.574 . S
C4647 C4666 1.368 1_554 S
C4647 H4671 0.949 . S
H4648 C4652 0.949 . S
C4649 C4650 1.349 . S
C4649 C4651 1.327 . S
C4649 H4672 0.950 . S
C4650 C4649 1.349 . S
C4650 C4662 1.349 . S
C4651 C4649 1.327 . S
C4651 C4667 1.429 . S
C4651 H4673 0.950 . S
C4652 H4648 0.949 . S
C4652 C4660 1.574 . S
C4652 C4668 1.368 1_556 S
H4653 C4661 0.950 . S
H4654 C4659 0.950 . S
H4655 C4660 0.949 . S
H4656 C4662 0.950 . S
H4657 C4663 0.950 . S
H4658 C4664 0.949 . S
C4659 H4654 0.950 . S
C4659 C4661 1.327 . S
C4659 C4665 1.429 . S
C4660 C4652 1.574 . S
C4660 H4655 0.949 . S
C4660 C4666 1.368 . S
C4661 C4645 1.349 . S
C4661 H4653 0.950 . S
C4661 C4659 1.327 . S
C4662 C4650 1.349 . S
C4662 H4656 0.950 . S
C4662 C4663 1.327 . S
C4663 H4657 0.950 . S
C4663 C4662 1.327 . S
C4663 C4667 1.429 . S
C4664 C4647 1.574 . S
C4664 H4658 0.949 . S
C4664 C4668 1.368 . S
C4665 C4646 1.429 . S
C4665 C4659 1.429 . S
C4665 C4666 1.523 . S
C4666 C4647 1.368 1_556 S
C4666 C4660 1.368 . S
C4666 C4665 1.523 . S
C4667 C4651 1.429 . S
C4667 C4663 1.429 . S
C4667 C4668 1.523 . S
C4668 C4652 1.368 1_554 S
C4668 C4664 1.368 . S
C4668 C4667 1.523 . S
H4669 C4644 0.950 . S
H4670 C4646 0.950 . S
H4671 C4647 0.949 . S
H4672 C4649 0.950 . S
H4673 C4651 0.950 . S
C4674 C4675 1.349 . S
C4674 C4676 1.327 . S
C4674 H4699 0.950 . S
C4675 C4674 1.349 . S
C4675 C4691 1.349 . S
C4676 C4674 1.327 . S
C4676 C4695 1.429 . S
C4676 H4700 0.950 . S
C4677 C4694 1.574 1_545 S
C4677 C4696 1.368 . S
C4677 H4701 0.949 . S
H4678 C4682 0.949 . S
C4679 C4680 1.349 . S
C4679 C4681 1.327 . S
C4679 H4702 0.950 . S
C4680 C4679 1.349 . S
C4680 C4692 1.349 . S
C4681 C4679 1.327 . S
C4681 C4697 1.429 . S
C4681 H4703 0.950 . S
C4682 H4678 0.949 . S
C4682 C4690 1.574 1_565 S
C4682 C4698 1.368 . S
H4683 C4691 0.950 . S
H4684 C4689 0.950 . S
H4685 C4690 0.949 . S
H4686 C4692 0.950 . S
H4687 C4693 0.950 . S
H4688 C4694 0.949 . S
C4689 H4684 0.950 . S
C4689 C4691 1.327 . S
C4689 C4695 1.429 . S
C4690 C4682 1.574 1_545 S
C4690 H4685 0.949 . S
C4690 C4696 1.368 . S
C4691 C4675 1.349 . S
C4691 H4683 0.950 . S
C4691 C4689 1.327 . S
C4692 C4680 1.349 . S
C4692 H4686 0.950 . S
C4692 C4693 1.327 . S
C4693 H4687 0.950 . S
C4693 C4692 1.327 . S
C4693 C4697 1.429 . S
C4694 C4677 1.574 1_565 S
C4694 H4688 0.949 . S
C4694 C4698 1.368 . S
C4695 C4676 1.429 . S
C4695 C4689 1.429 . S
C4695 C4696 1.523 . S
C4696 C4677 1.368 . S
C4696 C4690 1.368 . S
C4696 C4695 1.523 . S
C4697 C4681 1.429 . S
C4697 C4693 1.429 . S
C4697 C4698 1.523 . S
C4698 C4682 1.368 . S
C4698 C4694 1.368 . S
C4698 C4697 1.523 . S
H4699 C4674 0.950 . S
H4700 C4676 0.950 . S
H4701 C4677 0.949 . S
H4702 C4679 0.950 . S
H4703 C4681 0.950 . S
C4704 C4705 1.349 . S
C4704 C4706 1.327 . S
C4704 H4729 0.950 . S
C4705 C4704 1.349 . S
C4705 C4721 1.349 . S
C4706 C4704 1.327 . S
C4706 C4725 1.429 . S
C4706 H4730 0.950 . S
C4707 C4724 1.574 . S
C4707 C4726 1.368 . S
C4707 H4731 0.949 . S
H4708 C4712 0.949 . S
C4709 C4710 1.349 . S
C4709 C4711 1.327 . S
C4709 H4732 0.950 . S
C4710 C4709 1.349 . S
C4710 C4722 1.349 . S
C4711 C4709 1.327 . S
C4711 C4727 1.429 . S
C4711 H4733 0.950 . S
C4712 H4708 0.949 . S
C4712 C4720 1.574 . S
C4712 C4728 1.368 . S
H4713 C4721 0.950 . S
H4714 C4719 0.950 . S
H4715 C4720 0.949 . S
H4716 C4722 0.950 . S
H4717 C4723 0.950 . S
H4718 C4724 0.949 . S
C4719 H4714 0.950 . S
C4719 C4721 1.327 . S
C4719 C4725 1.429 . S
C4720 C4712 1.574 . S
C4720 H4715 0.949 . S
C4720 C4726 1.368 . S
C4721 C4705 1.349 . S
C4721 H4713 0.950 . S
C4721 C4719 1.327 . S
C4722 C4710 1.349 . S
C4722 H4716 0.950 . S
C4722 C4723 1.327 . S
C4723 H4717 0.950 . S
C4723 C4722 1.327 . S
C4723 C4727 1.429 . S
C4724 C4707 1.574 . S
C4724 H4718 0.949 . S
C4724 C4728 1.368 . S
C4725 C4706 1.429 . S
C4725 C4719 1.429 . S
C4725 C4726 1.523 . S
C4726 C4707 1.368 . S
C4726 C4720 1.368 . S
C4726 C4725 1.523 . S
C4727 C4711 1.429 . S
C4727 C4723 1.429 . S
C4727 C4728 1.523 . S
C4728 C4712 1.368 . S
C4728 C4724 1.368 . S
C4728 C4727 1.523 . S
H4729 C4704 0.950 . S
H4730 C4706 0.950 . S
H4731 C4707 0.949 . S
H4732 C4709 0.950 . S
H4733 C4711 0.950 . S
C4734 C4735 1.349 . S
C4734 C4736 1.327 . S
C4734 H4759 0.950 . S
C4735 C4734 1.349 . S
C4735 C4751 1.349 . S
C4736 C4734 1.327 . S
C4736 C4755 1.429 . S
C4736 H4760 0.950 . S
C4737 C4754 1.574 . S
C4737 C4756 1.368 . S
C4737 H4761 0.949 . S
H4738 C4742 0.949 . S
C4739 C4740 1.349 . S
C4739 C4741 1.327 . S
C4739 H4762 0.950 . S
C4740 C4739 1.349 . S
C4740 C4752 1.349 . S
C4741 C4739 1.327 . S
C4741 C4757 1.429 . S
C4741 H4763 0.950 . S
C4742 H4738 0.949 . S
C4742 C4750 1.574 . S
C4742 C4758 1.368 . S
H4743 C4751 0.950 . S
H4744 C4749 0.950 . S
H4745 C4750 0.949 . S
H4746 C4752 0.950 . S
H4747 C4753 0.950 . S
H4748 C4754 0.949 . S
C4749 H4744 0.950 . S
C4749 C4751 1.327 . S
C4749 C4755 1.429 . S
C4750 C4742 1.574 . S
C4750 H4745 0.949 . S
C4750 C4756 1.368 . S
C4751 C4735 1.349 . S
C4751 H4743 0.950 . S
C4751 C4749 1.327 . S
C4752 C4740 1.349 . S
C4752 H4746 0.950 . S
C4752 C4753 1.327 . S
C4753 H4747 0.950 . S
C4753 C4752 1.327 . S
C4753 C4757 1.429 . S
C4754 C4737 1.574 . S
C4754 H4748 0.949 . S
C4754 C4758 1.368 . S
C4755 C4736 1.429 . S
C4755 C4749 1.429 . S
C4755 C4756 1.523 . S
C4756 C4737 1.368 . S
C4756 C4750 1.368 . S
C4756 C4755 1.523 . S
C4757 C4741 1.429 . S
C4757 C4753 1.429 . S
C4757 C4758 1.523 . S
C4758 C4742 1.368 . S
C4758 C4754 1.368 . S
C4758 C4757 1.523 . S
H4759 C4734 0.950 . S
H4760 C4736 0.950 . S
H4761 C4737 0.949 . S
H4762 C4739 0.950 . S
H4763 C4741 0.950 . S
C4764 C4765 1.349 . S
C4764 C4766 1.327 . S
C4764 H4789 0.950 . S
C4765 C4764 1.349 . S
C4765 C4781 1.349 . S
C4766 C4764 1.327 . S
C4766 C4785 1.429 . S
C4766 H4790 0.950 . S
C4767 C4784 1.574 . S
C4767 C4786 1.368 . S
C4767 H4791 0.949 . S
H4768 C4772 0.949 . S
C4769 C4770 1.349 . S
C4769 C4771 1.327 . S
C4769 H4792 0.950 . S
C4770 C4769 1.349 . S
C4770 C4782 1.349 . S
C4771 C4769 1.327 . S
C4771 C4787 1.429 . S
C4771 H4793 0.950 . S
C4772 H4768 0.949 . S
C4772 C4780 1.574 . S
C4772 C4788 1.368 . S
H4773 C4781 0.950 . S
H4774 C4779 0.950 . S
H4775 C4780 0.949 . S
H4776 C4782 0.950 . S
H4777 C4783 0.950 . S
H4778 C4784 0.949 . S
C4779 H4774 0.950 . S
C4779 C4781 1.327 . S
C4779 C4785 1.429 . S
C4780 C4772 1.574 . S
C4780 H4775 0.949 . S
C4780 C4786 1.368 . S
C4781 C4765 1.349 . S
C4781 H4773 0.950 . S
C4781 C4779 1.327 . S
C4782 C4770 1.349 . S
C4782 H4776 0.950 . S
C4782 C4783 1.327 . S
C4783 H4777 0.950 . S
C4783 C4782 1.327 . S
C4783 C4787 1.429 . S
C4784 C4767 1.574 . S
C4784 H4778 0.949 . S
C4784 C4788 1.368 . S
C4785 C4766 1.429 . S
C4785 C4779 1.429 . S
C4785 C4786 1.523 . S
C4786 C4767 1.368 . S
C4786 C4780 1.368 . S
C4786 C4785 1.523 . S
C4787 C4771 1.429 . S
C4787 C4783 1.429 . S
C4787 C4788 1.523 . S
C4788 C4772 1.368 . S
C4788 C4784 1.368 . S
C4788 C4787 1.523 . S
H4789 C4764 0.950 . S
H4790 C4766 0.950 . S
H4791 C4767 0.949 . S
H4792 C4769 0.950 . S
H4793 C4771 0.950 . S
C4794 C4795 1.349 . S
C4794 C4796 1.327 . S
C4794 H4819 0.950 . S
C4795 C4794 1.349 . S
C4795 C4811 1.349 . S
C4796 C4794 1.327 . S
C4796 C4815 1.429 . S
C4796 H4820 0.950 . S
C4797 C4814 1.574 1_455 S
C4797 C4816 1.368 . S
C4797 H4821 0.949 . S
H4798 C4802 0.949 . S
C4799 C4800 1.349 . S
C4799 C4801 1.327 . S
C4799 H4822 0.950 . S
C4800 C4799 1.349 . S
C4800 C4812 1.349 . S
C4801 C4799 1.327 . S
C4801 C4817 1.429 . S
C4801 H4823 0.950 . S
C4802 H4798 0.949 . S
C4802 C4810 1.574 1_655 S
C4802 C4818 1.368 . S
H4803 C4811 0.950 . S
H4804 C4809 0.950 . S
H4805 C4810 0.949 . S
H4806 C4812 0.950 . S
H4807 C4813 0.950 . S
H4808 C4814 0.949 . S
C4809 H4804 0.950 . S
C4809 C4811 1.327 . S
C4809 C4815 1.429 . S
C4810 C4802 1.574 1_455 S
C4810 H4805 0.949 . S
C4810 C4816 1.368 . S
C4811 C4795 1.349 . S
C4811 H4803 0.950 . S
C4811 C4809 1.327 . S
C4812 C4800 1.349 . S
C4812 H4806 0.950 . S
C4812 C4813 1.327 . S
C4813 H4807 0.950 . S
C4813 C4812 1.327 . S
C4813 C4817 1.429 . S
C4814 C4797 1.574 1_655 S
C4814 H4808 0.949 . S
C4814 C4818 1.368 . S
C4815 C4796 1.429 . S
C4815 C4809 1.429 . S
C4815 C4816 1.523 . S
C4816 C4797 1.368 . S
C4816 C4810 1.368 . S
C4816 C4815 1.523 . S
C4817 C4801 1.429 . S
C4817 C4813 1.429 . S
C4817 C4818 1.523 . S
C4818 C4802 1.368 . S
C4818 C4814 1.368 . S
C4818 C4817 1.523 . S
H4819 C4794 0.950 . S
H4820 C4796 0.950 . S
H4821 C4797 0.949 . S
H4822 C4799 0.950 . S
H4823 C4801 0.950 . S
C4824 C4825 1.349 . S
C4824 C4826 1.327 . S
C4824 H4849 0.950 . S
C4825 C4824 1.349 . S
C4825 C4841 1.349 . S
C4826 C4824 1.327 . S
C4826 C4845 1.429 . S
C4826 H4850 0.950 . S
C4827 C4844 1.574 . S
C4827 C4846 1.368 . S
C4827 H4851 0.949 . S
H4828 C4832 0.949 . S
C4829 C4830 1.349 . S
C4829 C4831 1.327 . S
C4829 H4852 0.950 . S
C4830 C4829 1.349 . S
C4830 C4842 1.349 . S
C4831 C4829 1.327 . S
C4831 C4847 1.429 . S
C4831 H4853 0.950 . S
C4832 H4828 0.949 . S
C4832 C4840 1.574 . S
C4832 C4848 1.368 . S
H4833 C4841 0.950 . S
H4834 C4839 0.950 . S
H4835 C4840 0.949 . S
H4836 C4842 0.950 . S
H4837 C4843 0.950 . S
H4838 C4844 0.949 . S
C4839 H4834 0.950 . S
C4839 C4841 1.327 . S
C4839 C4845 1.429 . S
C4840 C4832 1.574 . S
C4840 H4835 0.949 . S
C4840 C4846 1.368 . S
C4841 C4825 1.349 . S
C4841 H4833 0.950 . S
C4841 C4839 1.327 . S
C4842 C4830 1.349 . S
C4842 H4836 0.950 . S
C4842 C4843 1.327 . S
C4843 H4837 0.950 . S
C4843 C4842 1.327 . S
C4843 C4847 1.429 . S
C4844 C4827 1.574 . S
C4844 H4838 0.949 . S
C4844 C4848 1.368 . S
C4845 C4826 1.429 . S
C4845 C4839 1.429 . S
C4845 C4846 1.523 . S
C4846 C4827 1.368 . S
C4846 C4840 1.368 . S
C4846 C4845 1.523 . S
C4847 C4831 1.429 . S
C4847 C4843 1.429 . S
C4847 C4848 1.523 . S
C4848 C4832 1.368 . S
C4848 C4844 1.368 . S
C4848 C4847 1.523 . S
H4849 C4824 0.950 . S
H4850 C4826 0.950 . S
H4851 C4827 0.949 . S
H4852 C4829 0.950 . S
H4853 C4831 0.950 . S
C4854 C4855 1.349 . S
C4854 C4856 1.327 . S
C4854 H4879 0.950 . S
C4855 C4854 1.349 . S
C4855 C4871 1.349 . S
C4856 C4854 1.327 . S
C4856 C4875 1.429 . S
C4856 H4880 0.950 . S
C4857 C4874 1.574 1_554 S
C4857 C4876 1.368 . S
C4857 H4881 0.949 . S
H4858 C4862 0.949 . S
C4859 C4860 1.349 . S
C4859 C4861 1.327 . S
C4859 H4882 0.950 . S
C4860 C4859 1.349 . S
C4860 C4872 1.349 . S
C4861 C4859 1.327 . S
C4861 C4877 1.429 . S
C4861 H4883 0.950 . S
C4862 H4858 0.949 . S
C4862 C4870 1.574 1_556 S
C4862 C4878 1.368 . S
H4863 C4871 0.950 . S
H4864 C4869 0.950 . S
H4865 C4870 0.949 . S
H4866 C4872 0.950 . S
H4867 C4873 0.950 . S
H4868 C4874 0.949 . S
C4869 H4864 0.950 . S
C4869 C4871 1.327 . S
C4869 C4875 1.429 . S
C4870 C4862 1.574 1_554 S
C4870 H4865 0.949 . S
C4870 C4876 1.368 . S
C4871 C4855 1.349 . S
C4871 H4863 0.950 . S
C4871 C4869 1.327 . S
C4872 C4860 1.349 . S
C4872 H4866 0.950 . S
C4872 C4873 1.327 . S
C4873 H4867 0.950 . S
C4873 C4872 1.327 . S
C4873 C4877 1.429 . S
C4874 C4857 1.574 1_556 S
C4874 H4868 0.949 . S
C4874 C4878 1.368 . S
C4875 C4856 1.429 . S
C4875 C4869 1.429 . S
C4875 C4876 1.523 . S
C4876 C4857 1.368 . S
C4876 C4870 1.368 . S
C4876 C4875 1.523 . S
C4877 C4861 1.429 . S
C4877 C4873 1.429 . S
C4877 C4878 1.523 . S
C4878 C4862 1.368 . S
C4878 C4874 1.368 . S
C4878 C4877 1.523 . S
H4879 C4854 0.950 . S
H4880 C4856 0.950 . S
H4881 C4857 0.949 . S
H4882 C4859 0.950 . S
H4883 C4861 0.950 . S
C4884 C4885 1.349 . S
C4884 C4886 1.327 . S
C4884 H4909 0.950 . S
C4885 C4884 1.349 . S
C4885 C4901 1.349 . S
C4886 C4884 1.327 . S
C4886 C4905 1.429 . S
C4886 H4910 0.950 . S
C4887 C4904 1.574 . S
C4887 C4906 1.368 . S
C4887 H4911 0.949 . S
H4888 C4892 0.949 . S
C4889 C4890 1.349 . S
C4889 C4891 1.327 . S
C4889 H4912 0.950 . S
C4890 C4889 1.349 . S
C4890 C4902 1.349 . S
C4891 C4889 1.327 . S
C4891 C4907 1.429 . S
C4891 H4913 0.950 . S
C4892 H4888 0.949 . S
C4892 C4900 1.574 . S
C4892 C4908 1.368 . S
H4893 C4901 0.950 . S
H4894 C4899 0.950 . S
H4895 C4900 0.949 . S
H4896 C4902 0.950 . S
H4897 C4903 0.950 . S
H4898 C4904 0.949 . S
C4899 H4894 0.950 . S
C4899 C4901 1.327 . S
C4899 C4905 1.429 . S
C4900 C4892 1.574 . S
C4900 H4895 0.949 . S
C4900 C4906 1.368 1_565 S
C4901 C4885 1.349 . S
C4901 H4893 0.950 . S
C4901 C4899 1.327 . S
C4902 C4890 1.349 . S
C4902 H4896 0.950 . S
C4902 C4903 1.327 . S
C4903 H4897 0.950 . S
C4903 C4902 1.327 . S
C4903 C4907 1.429 . S
C4904 C4887 1.574 . S
C4904 H4898 0.949 . S
C4904 C4908 1.368 1_545 S
C4905 C4886 1.429 . S
C4905 C4899 1.429 . S
C4905 C4906 1.523 . S
C4906 C4887 1.368 . S
C4906 C4900 1.368 1_545 S
C4906 C4905 1.523 . S
C4907 C4891 1.429 . S
C4907 C4903 1.429 . S
C4907 C4908 1.523 . S
C4908 C4892 1.368 . S
C4908 C4904 1.368 1_565 S
C4908 C4907 1.523 . S
H4909 C4884 0.950 . S
H4910 C4886 0.950 . S
H4911 C4887 0.949 . S
H4912 C4889 0.950 . S
H4913 C4891 0.950 . S
C4914 C4915 1.349 . S
C4914 C4916 1.327 . S
C4914 H4939 0.950 . S
C4915 C4914 1.349 . S
C4915 C4931 1.349 . S
C4916 C4914 1.327 . S
C4916 C4935 1.429 . S
C4916 H4940 0.950 . S
C4917 C4934 1.574 . S
C4917 C4936 1.368 . S
C4917 H4941 0.949 . S
H4918 C4922 0.949 . S
C4919 C4920 1.349 . S
C4919 C4921 1.327 . S
C4919 H4942 0.950 . S
C4920 C4919 1.349 . S
C4920 C4932 1.349 . S
C4921 C4919 1.327 . S
C4921 C4937 1.429 . S
C4921 H4943 0.950 . S
C4922 H4918 0.949 . S
C4922 C4930 1.574 . S
C4922 C4938 1.368 . S
H4923 C4931 0.950 . S
H4924 C4929 0.950 . S
H4925 C4930 0.949 . S
H4926 C4932 0.950 . S
H4927 C4933 0.950 . S
H4928 C4934 0.949 . S
C4929 H4924 0.950 . S
C4929 C4931 1.327 . S
C4929 C4935 1.429 . S
C4930 C4922 1.574 . S
C4930 H4925 0.949 . S
C4930 C4936 1.368 . S
C4931 C4915 1.349 . S
C4931 H4923 0.950 . S
C4931 C4929 1.327 . S
C4932 C4920 1.349 . S
C4932 H4926 0.950 . S
C4932 C4933 1.327 . S
C4933 H4927 0.950 . S
C4933 C4932 1.327 . S
C4933 C4937 1.429 . S
C4934 C4917 1.574 . S
C4934 H4928 0.949 . S
C4934 C4938 1.368 . S
C4935 C4916 1.429 . S
C4935 C4929 1.429 . S
C4935 C4936 1.523 . S
C4936 C4917 1.368 . S
C4936 C4930 1.368 . S
C4936 C4935 1.523 . S
C4937 C4921 1.429 . S
C4937 C4933 1.429 . S
C4937 C4938 1.523 . S
C4938 C4922 1.368 . S
C4938 C4934 1.368 . S
C4938 C4937 1.523 . S
H4939 C4914 0.950 . S
H4940 C4916 0.950 . S
H4941 C4917 0.949 . S
H4942 C4919 0.950 . S
H4943 C4921 0.950 . S
C4944 C4945 1.349 . S
C4944 C4946 1.327 . S
C4944 H4969 0.950 . S
C4945 C4944 1.349 . S
C4945 C4961 1.349 . S
C4946 C4944 1.327 . S
C4946 C4965 1.429 . S
C4946 H4970 0.950 . S
C4947 C4964 1.574 . S
C4947 C4966 1.368 . S
C4947 H4971 0.949 . S
H4948 C4952 0.949 . S
C4949 C4950 1.349 . S
C4949 C4951 1.327 . S
C4949 H4972 0.950 . S
C4950 C4949 1.349 . S
C4950 C4962 1.349 . S
C4951 C4949 1.327 . S
C4951 C4967 1.429 . S
C4951 H4973 0.950 . S
C4952 H4948 0.949 . S
C4952 C4960 1.574 . S
C4952 C4968 1.368 . S
H4953 C4961 0.950 . S
H4954 C4959 0.950 . S
H4955 C4960 0.949 . S
H4956 C4962 0.950 . S
H4957 C4963 0.950 . S
H4958 C4964 0.949 . S
C4959 H4954 0.950 . S
C4959 C4961 1.327 . S
C4959 C4965 1.429 . S
C4960 C4952 1.574 . S
C4960 H4955 0.949 . S
C4960 C4966 1.368 . S
C4961 C4945 1.349 . S
C4961 H4953 0.950 . S
C4961 C4959 1.327 . S
C4962 C4950 1.349 . S
C4962 H4956 0.950 . S
C4962 C4963 1.327 . S
C4963 H4957 0.950 . S
C4963 C4962 1.327 . S
C4963 C4967 1.429 . S
C4964 C4947 1.574 . S
C4964 H4958 0.949 . S
C4964 C4968 1.368 . S
C4965 C4946 1.429 . S
C4965 C4959 1.429 . S
C4965 C4966 1.523 . S
C4966 C4947 1.368 . S
C4966 C4960 1.368 . S
C4966 C4965 1.523 . S
C4967 C4951 1.429 . S
C4967 C4963 1.429 . S
C4967 C4968 1.523 . S
C4968 C4952 1.368 . S
C4968 C4964 1.368 . S
C4968 C4967 1.523 . S
H4969 C4944 0.950 . S
H4970 C4946 0.950 . S
H4971 C4947 0.949 . S
H4972 C4949 0.950 . S
H4973 C4951 0.950 . S
C4974 C4975 1.349 . S
C4974 C4976 1.327 . S
C4974 H4999 0.950 . S
C4975 C4974 1.349 . S
C4975 C4991 1.349 . S
C4976 C4974 1.327 . S
C4976 C4995 1.429 . S
C4976 H5000 0.950 . S
C4977 C4994 1.574 . S
C4977 C4996 1.368 . S
C4977 H5001 0.949 . S
H4978 C4982 0.949 . S
C4979 C4980 1.349 . S
C4979 C4981 1.327 . S
C4979 H5002 0.950 . S
C4980 C4979 1.349 . S
C4980 C4992 1.349 . S
C4981 C4979 1.327 . S
C4981 C4997 1.429 . S
C4981 H5003 0.950 . S
C4982 H4978 0.949 . S
C4982 C4990 1.574 . S
C4982 C4998 1.368 . S
H4983 C4991 0.950 . S
H4984 C4989 0.950 . S
H4985 C4990 0.949 . S
H4986 C4992 0.950 . S
H4987 C4993 0.950 . S
H4988 C4994 0.949 . S
C4989 H4984 0.950 . S
C4989 C4991 1.327 . S
C4989 C4995 1.429 . S
C4990 C4982 1.574 . S
C4990 H4985 0.949 . S
C4990 C4996 1.368 . S
C4991 C4975 1.349 . S
C4991 H4983 0.950 . S
C4991 C4989 1.327 . S
C4992 C4980 1.349 . S
C4992 H4986 0.950 . S
C4992 C4993 1.327 . S
C4993 H4987 0.950 . S
C4993 C4992 1.327 . S
C4993 C4997 1.429 . S
C4994 C4977 1.574 . S
C4994 H4988 0.949 . S
C4994 C4998 1.368 . S
C4995 C4976 1.429 . S
C4995 C4989 1.429 . S
C4995 C4996 1.523 . S
C4996 C4977 1.368 . S
C4996 C4990 1.368 . S
C4996 C4995 1.523 . S
C4997 C4981 1.429 . S
C4997 C4993 1.429 . S
C4997 C4998 1.523 . S
C4998 C4982 1.368 . S
C4998 C4994 1.368 . S
C4998 C4997 1.523 . S
H4999 C4974 0.950 . S
H5000 C4976 0.950 . S
H5001 C4977 0.949 . S
H5002 C4979 0.950 . S
H5003 C4981 0.950 . S
C5004 C5005 1.349 . S
C5004 C5006 1.327 . S
C5004 H5029 0.950 . S
C5005 C5004 1.349 . S
C5005 C5021 1.349 . S
C5006 C5004 1.327 . S
C5006 C5025 1.429 . S
C5006 H5030 0.950 . S
C5007 C5024 1.574 . S
C5007 C5026 1.368 . S
C5007 H5031 0.949 . S
H5008 C5012 0.949 . S
C5009 C5010 1.349 . S
C5009 C5011 1.327 . S
C5009 H5032 0.950 . S
C5010 C5009 1.349 . S
C5010 C5022 1.349 . S
C5011 C5009 1.327 . S
C5011 C5027 1.429 . S
C5011 H5033 0.950 . S
C5012 H5008 0.949 . S
C5012 C5020 1.574 . S
C5012 C5028 1.368 . S
H5013 C5021 0.950 . S
H5014 C5019 0.950 . S
H5015 C5020 0.949 . S
H5016 C5022 0.950 . S
H5017 C5023 0.950 . S
H5018 C5024 0.949 . S
C5019 H5014 0.950 . S
C5019 C5021 1.327 . S
C5019 C5025 1.429 . S
C5020 C5012 1.574 . S
C5020 H5015 0.949 . S
C5020 C5026 1.368 1_655 S
C5021 C5005 1.349 . S
C5021 H5013 0.950 . S
C5021 C5019 1.327 . S
C5022 C5010 1.349 . S
C5022 H5016 0.950 . S
C5022 C5023 1.327 . S
C5023 H5017 0.950 . S
C5023 C5022 1.327 . S
C5023 C5027 1.429 . S
C5024 C5007 1.574 . S
C5024 H5018 0.949 . S
C5024 C5028 1.368 1_455 S
C5025 C5006 1.429 . S
C5025 C5019 1.429 . S
C5025 C5026 1.523 . S
C5026 C5007 1.368 . S
C5026 C5020 1.368 1_455 S
C5026 C5025 1.523 . S
C5027 C5011 1.429 . S
C5027 C5023 1.429 . S
C5027 C5028 1.523 . S
C5028 C5012 1.368 . S
C5028 C5024 1.368 1_655 S
C5028 C5027 1.523 . S
H5029 C5004 0.950 . S
H5030 C5006 0.950 . S
H5031 C5007 0.949 . S
H5032 C5009 0.950 . S
H5033 C5011 0.950 . S
C5034 C5035 1.349 . S
C5034 C5036 1.327 . S
C5034 H5059 0.950 . S
C5035 C5034 1.349 . S
C5035 C5051 1.349 . S
C5036 C5034 1.327 . S
C5036 C5055 1.429 . S
C5036 H5060 0.950 . S
C5037 C5054 1.574 1_455 S
C5037 C5056 1.368 . S
C5037 H5061 0.949 . S
H5038 C5042 0.949 . S
C5039 C5040 1.349 . S
C5039 C5041 1.327 . S
C5039 H5062 0.950 . S
C5040 C5039 1.349 . S
C5040 C5052 1.349 . S
C5041 C5039 1.327 . S
C5041 C5057 1.429 . S
C5041 H5063 0.950 . S
C5042 H5038 0.949 . S
C5042 C5050 1.574 1_655 S
C5042 C5058 1.368 . S
H5043 C5051 0.950 . S
H5044 C5049 0.950 . S
H5045 C5050 0.949 . S
H5046 C5052 0.950 . S
H5047 C5053 0.950 . S
H5048 C5054 0.949 . S
C5049 H5044 0.950 . S
C5049 C5051 1.327 . S
C5049 C5055 1.429 . S
C5050 C5042 1.574 1_455 S
C5050 H5045 0.949 . S
C5050 C5056 1.368 . S
C5051 C5035 1.349 . S
C5051 H5043 0.950 . S
C5051 C5049 1.327 . S
C5052 C5040 1.349 . S
C5052 H5046 0.950 . S
C5052 C5053 1.327 . S
C5053 H5047 0.950 . S
C5053 C5052 1.327 . S
C5053 C5057 1.429 . S
C5054 C5037 1.574 1_655 S
C5054 H5048 0.949 . S
C5054 C5058 1.368 . S
C5055 C5036 1.429 . S
C5055 C5049 1.429 . S
C5055 C5056 1.523 . S
C5056 C5037 1.368 . S
C5056 C5050 1.368 . S
C5056 C5055 1.523 . S
C5057 C5041 1.429 . S
C5057 C5053 1.429 . S
C5057 C5058 1.523 . S
C5058 C5042 1.368 . S
C5058 C5054 1.368 . S
C5058 C5057 1.523 . S
H5059 C5034 0.950 . S
H5060 C5036 0.950 . S
H5061 C5037 0.949 . S
H5062 C5039 0.950 . S
H5063 C5041 0.950 . S
C5064 C5065 1.349 . S
C5064 C5066 1.327 . S
C5064 H5089 0.950 . S
C5065 C5064 1.349 . S
C5065 C5081 1.349 . S
C5066 C5064 1.327 . S
C5066 C5085 1.429 . S
C5066 H5090 0.950 . S
C5067 C5084 1.574 . S
C5067 C5086 1.368 . S
C5067 H5091 0.949 . S
H5068 C5072 0.949 . S
C5069 C5070 1.349 . S
C5069 C5071 1.327 . S
C5069 H5092 0.950 . S
C5070 C5069 1.349 . S
C5070 C5082 1.349 . S
C5071 C5069 1.327 . S
C5071 C5087 1.429 . S
C5071 H5093 0.950 . S
C5072 H5068 0.949 . S
C5072 C5080 1.574 . S
C5072 C5088 1.368 . S
H5073 C5081 0.950 . S
H5074 C5079 0.950 . S
H5075 C5080 0.949 . S
H5076 C5082 0.950 . S
H5077 C5083 0.950 . S
H5078 C5084 0.949 . S
C5079 H5074 0.950 . S
C5079 C5081 1.327 . S
C5079 C5085 1.429 . S
C5080 C5072 1.574 . S
C5080 H5075 0.949 . S
C5080 C5086 1.368 1_655 S
C5081 C5065 1.349 . S
C5081 H5073 0.950 . S
C5081 C5079 1.327 . S
C5082 C5070 1.349 . S
C5082 H5076 0.950 . S
C5082 C5083 1.327 . S
C5083 H5077 0.950 . S
C5083 C5082 1.327 . S
C5083 C5087 1.429 . S
C5084 C5067 1.574 . S
C5084 H5078 0.949 . S
C5084 C5088 1.368 1_455 S
C5085 C5066 1.429 . S
C5085 C5079 1.429 . S
C5085 C5086 1.523 . S
C5086 C5067 1.368 . S
C5086 C5080 1.368 1_455 S
C5086 C5085 1.523 . S
C5087 C5071 1.429 . S
C5087 C5083 1.429 . S
C5087 C5088 1.523 . S
C5088 C5072 1.368 . S
C5088 C5084 1.368 1_655 S
C5088 C5087 1.523 . S
H5089 C5064 0.950 . S
H5090 C5066 0.950 . S
H5091 C5067 0.949 . S
H5092 C5069 0.950 . S
H5093 C5071 0.950 . S
C5094 C5095 1.349 . S
C5094 C5096 1.327 . S
C5094 H5119 0.950 . S
C5095 C5094 1.349 . S
C5095 C5111 1.349 . S
C5096 C5094 1.327 . S
C5096 C5115 1.429 . S
C5096 H5120 0.950 . S
C5097 C5114 1.574 . S
C5097 C5116 1.368 . S
C5097 H5121 0.949 . S
H5098 C5102 0.949 . S
C5099 C5100 1.349 . S
C5099 C5101 1.327 . S
C5099 H5122 0.950 . S
C5100 C5099 1.349 . S
C5100 C5112 1.349 . S
C5101 C5099 1.327 . S
C5101 C5117 1.429 . S
C5101 H5123 0.950 . S
C5102 H5098 0.949 . S
C5102 C5110 1.574 . S
C5102 C5118 1.368 . S
H5103 C5111 0.950 . S
H5104 C5109 0.950 . S
H5105 C5110 0.949 . S
H5106 C5112 0.950 . S
H5107 C5113 0.950 . S
H5108 C5114 0.949 . S
C5109 H5104 0.950 . S
C5109 C5111 1.327 . S
C5109 C5115 1.429 . S
C5110 C5102 1.574 . S
C5110 H5105 0.949 . S
C5110 C5116 1.368 . S
C5111 C5095 1.349 . S
C5111 H5103 0.950 . S
C5111 C5109 1.327 . S
C5112 C5100 1.349 . S
C5112 H5106 0.950 . S
C5112 C5113 1.327 . S
C5113 H5107 0.950 . S
C5113 C5112 1.327 . S
C5113 C5117 1.429 . S
C5114 C5097 1.574 . S
C5114 H5108 0.949 . S
C5114 C5118 1.368 . S
C5115 C5096 1.429 . S
C5115 C5109 1.429 . S
C5115 C5116 1.523 . S
C5116 C5097 1.368 . S
C5116 C5110 1.368 . S
C5116 C5115 1.523 . S
C5117 C5101 1.429 . S
C5117 C5113 1.429 . S
C5117 C5118 1.523 . S
C5118 C5102 1.368 . S
C5118 C5114 1.368 . S
C5118 C5117 1.523 . S
H5119 C5094 0.950 . S
H5120 C5096 0.950 . S
H5121 C5097 0.949 . S
H5122 C5099 0.950 . S
H5123 C5101 0.950 . S
C5124 C5125 1.349 . S
C5124 C5126 1.327 . S
C5124 H5149 0.950 . S
C5125 C5124 1.349 . S
C5125 C5141 1.349 . S
C5126 C5124 1.327 . S
C5126 C5145 1.429 . S
C5126 H5150 0.950 . S
C5127 C5144 1.574 . S
C5127 C5146 1.368 . S
C5127 H5151 0.949 . S
H5128 C5132 0.949 . S
C5129 C5130 1.349 . S
C5129 C5131 1.327 . S
C5129 H5152 0.950 . S
C5130 C5129 1.349 . S
C5130 C5142 1.349 . S
C5131 C5129 1.327 . S
C5131 C5147 1.429 . S
C5131 H5153 0.950 . S
C5132 H5128 0.949 . S
C5132 C5140 1.574 . S
C5132 C5148 1.368 . S
H5133 C5141 0.950 . S
H5134 C5139 0.950 . S
H5135 C5140 0.949 . S
H5136 C5142 0.950 . S
H5137 C5143 0.950 . S
H5138 C5144 0.949 . S
C5139 H5134 0.950 . S
C5139 C5141 1.327 . S
C5139 C5145 1.429 . S
C5140 C5132 1.574 . S
C5140 H5135 0.949 . S
C5140 C5146 1.368 1_545 S
C5141 C5125 1.349 . S
C5141 H5133 0.950 . S
C5141 C5139 1.327 . S
C5142 C5130 1.349 . S
C5142 H5136 0.950 . S
C5142 C5143 1.327 . S
C5143 H5137 0.950 . S
C5143 C5142 1.327 . S
C5143 C5147 1.429 . S
C5144 C5127 1.574 . S
C5144 H5138 0.949 . S
C5144 C5148 1.368 1_565 S
C5145 C5126 1.429 . S
C5145 C5139 1.429 . S
C5145 C5146 1.523 . S
C5146 C5127 1.368 . S
C5146 C5140 1.368 1_565 S
C5146 C5145 1.523 . S
C5147 C5131 1.429 . S
C5147 C5143 1.429 . S
C5147 C5148 1.523 . S
C5148 C5132 1.368 . S
C5148 C5144 1.368 1_545 S
C5148 C5147 1.523 . S
H5149 C5124 0.950 . S
H5150 C5126 0.950 . S
H5151 C5127 0.949 . S
H5152 C5129 0.950 . S
H5153 C5131 0.950 . S
C5154 C5155 1.349 . S
C5154 C5156 1.327 . S
C5154 H5179 0.950 . S
C5155 C5154 1.349 . S
C5155 C5171 1.349 . S
C5156 C5154 1.327 . S
C5156 C5175 1.429 . S
C5156 H5180 0.950 . S
C5157 C5174 1.574 1_554 S
C5157 C5176 1.368 . S
C5157 H5181 0.949 . S
H5158 C5162 0.949 . S
C5159 C5160 1.349 . S
C5159 C5161 1.327 . S
C5159 H5182 0.950 . S
C5160 C5159 1.349 . S
C5160 C5172 1.349 . S
C5161 C5159 1.327 . S
C5161 C5177 1.429 . S
C5161 H5183 0.950 . S
C5162 H5158 0.949 . S
C5162 C5170 1.574 1_556 S
C5162 C5178 1.368 . S
H5163 C5171 0.950 . S
H5164 C5169 0.950 . S
H5165 C5170 0.949 . S
H5166 C5172 0.950 . S
H5167 C5173 0.950 . S
H5168 C5174 0.949 . S
C5169 H5164 0.950 . S
C5169 C5171 1.327 . S
C5169 C5175 1.429 . S
C5170 C5162 1.574 1_554 S
C5170 H5165 0.949 . S
C5170 C5176 1.368 . S
C5171 C5155 1.349 . S
C5171 H5163 0.950 . S
C5171 C5169 1.327 . S
C5172 C5160 1.349 . S
C5172 H5166 0.950 . S
C5172 C5173 1.327 . S
C5173 H5167 0.950 . S
C5173 C5172 1.327 . S
C5173 C5177 1.429 . S
C5174 C5157 1.574 1_556 S
C5174 H5168 0.949 . S
C5174 C5178 1.368 . S
C5175 C5156 1.429 . S
C5175 C5169 1.429 . S
C5175 C5176 1.523 . S
C5176 C5157 1.368 . S
C5176 C5170 1.368 . S
C5176 C5175 1.523 . S
C5177 C5161 1.429 . S
C5177 C5173 1.429 . S
C5177 C5178 1.523 . S
C5178 C5162 1.368 . S
C5178 C5174 1.368 . S
C5178 C5177 1.523 . S
H5179 C5154 0.950 . S
H5180 C5156 0.950 . S
H5181 C5157 0.949 . S
H5182 C5159 0.950 . S
H5183 C5161 0.950 . S
C1585 N904 1.184 . S
C1590 C18 1.223 . S
C1615 C51 1.223 . S
C1620 N805 1.184 . S
C1645 C84 1.223 . S
C1650 N838 1.184 . S
C1675 N871 1.184 . S
C1680 C117 1.223 . S
C1705 C150 1.223 . S
C1710 N178 1.184 . S
C1735 N211 1.184 . S
C1740 C183 1.223 . S
C1765 N244 1.184 . S
C1770 C216 1.223 . S
C1795 C249 1.223 . S
C1800 N145 1.184 . S
C1825 C282 1.223 . S
C1830 N1399 1.184 . S
C1855 C315 1.223 . S
C1860 N1432 1.184 . S
C1885 C348 1.223 . S
C1890 N673 1.184 . S
C1915 N1366 1.184 . S
C1920 C381 1.223 . S
C1945 N1531 1.184 . S
C1950 C414 1.223 . S
C1975 N541 1.184 . S
C1980 C447 1.223 . S
C2005 C480 1.223 . S
C2010 N1564 1.184 . S
C2035 C513 1.223 . S
C2040 N1498 1.184 . S
C2065 N310 1.184 . S
C2070 C546 1.223 . S
C2095 N1300 1.184 . S
C2100 C579 1.223 . S
C2125 N1201 1.184 . S
C2130 C612 1.223 . S
C2155 N1234 1.184 . S
C2160 C645 1.223 . S
C2185 C678 1.223 . S
C2190 N475 1.184 . S
C2215 C711 1.223 . S
C2220 N1168 1.184 . S
C2245 N1069 1.184 . S
C2250 C744 1.223 . S
C2275 C777 1.223 . S
C2280 N1135 1.184 . S
C2305 C810 1.223 . S
C2310 N112 1.184 . S
C2335 C843 1.223 . S
C2340 N13 1.184 . S
C2365 N46 1.184 . S
C2370 C876 1.223 . S
C2395 N79 1.184 . S
C2400 C909 1.223 . S
C2425 N970 1.184 . S
C2430 C942 1.223 . S
C2455 N1003 1.184 . S
C2460 C975 1.223 . S
C2485 C1008 1.223 . S
C2490 N1036 1.184 . S
C2515 C1041 1.223 . S
C2520 N937 1.184 . S
C2545 C1074 1.223 . S
C2550 N607 1.184 . S
C2575 N640 1.184 . S
C2580 C1107 1.223 . S
C2605 N1465 1.184 . S
C2610 C1140 1.223 . S
C2635 C1173 1.223 . S
C2640 N574 1.184 . S
C2665 N739 1.184 . S
C2670 C1206 1.223 . S
C2695 C1239 1.223 . S
C2700 N1333 1.184 . S
C2725 C1272 1.223 . S
C2730 N772 1.184 . S
C2755 N706 1.184 . S
C2760 C1305 1.223 . S
C2785 N1102 1.184 . S
C2790 C1338 1.223 . S
C2815 N508 1.184 . S
C2820 C1371 1.223 . S
C2845 C1404 1.223 . S
C2850 N409 1.184 . S
C2875 N442 1.184 . S
C2880 C1437 1.223 . S
C2905 C1470 1.223 . S
C2910 N1267 1.184 . S
C2935 C1503 1.223 . S
C2940 N376 1.184 . S
C2965 N277 1.184 . S
C2970 C1536 1.223 . S
C2995 N343 1.184 . S
C3000 C1569 1.223 . S
C3025 C1393 0.372 . S
C3030 C21 0.468 . S
C3055 C1426 0.372 . S
C3060 C54 0.468 . S
C3085 C667 0.372 . S
C3090 C87 0.468 . S
C3115 C1360 0.372 . S
C3120 C120 0.468 . S
C3145 C153 0.468 . S
C3150 C1525 0.372 . S
C3175 C535 0.372 . S
C3180 C186 0.468 . S
C3205 C1558 0.372 . S
C3210 C219 0.468 . S
C3235 C252 0.468 . S
C3240 C1492 0.372 . S
C3265 C285 0.468 . S
C3270 C304 0.372 . S
C3295 C337 0.372 . S
C3300 C318 0.468 . S
C3325 C370 0.372 . S
C3330 C351 0.468 . S
C3355 C271 0.372 . S
C3360 C384 0.468 . S
C3385 C1294 0.372 . S
C3390 C417 0.468 . S
C3415 C1195 0.372 . S
C3420 C450 0.468 . S
C3445 C1228 0.372 . S
C3450 C483 0.468 . S
C3475 C516 0.468 . S
C3480 C1261 0.372 . S
C3505 C898 0.372 . S
C3510 C549 0.468 . S
C3535 C582 0.468 . S
C3540 C172 0.372 . S
C3565 C205 0.372 . S
C3570 C615 0.468 . S
C3595 C238 0.372 . S
C3600 C648 0.468 . S
C3625 C681 0.468 . S
C3630 C931 0.372 . S
C3655 C40 0.372 . S
C3660 C714 0.468 . S
C3685 C747 0.468 . S
C3690 C73 0.372 . S
C3715 C780 0.468 . S
C3720 C7 0.372 . S
C3745 C601 0.372 . S
C3750 C813 0.468 . S
C3775 C634 0.372 . S
C3780 C846 0.468 . S
C3805 C879 0.468 . S
C3810 C1459 0.372 . S
C3835 C912 0.468 . S
C3840 C568 0.372 . S
C3865 C733 0.372 . S
C3870 C945 0.468 . S
C3895 C1327 0.372 . S
C3900 C978 0.468 . S
C3925 C766 0.372 . S
C3930 C1011 0.468 . S
C3955 C1044 0.468 . S
C3960 C700 0.372 . S
C3985 C1077 0.468 . S
C3990 C1096 0.372 . S
C4015 C1129 0.372 . S
C4020 C1110 0.468 . S
C4045 C1143 0.468 . S
C4050 C1162 0.372 . S
C4075 C1176 0.468 . S
C4080 C1063 0.372 . S
C4105 C1209 0.468 . S
C4110 C502 0.372 . S
C4135 C403 0.372 . S
C4140 C1242 0.468 . S
C4165 C436 0.372 . S
C4170 C1275 0.468 . S
C4195 C469 0.372 . S
C4200 C1308 0.468 . S
C4225 C106 0.372 . S
C4230 C1341 0.468 . S
C4255 C964 0.372 . S
C4260 C1374 0.468 . S
C4285 C1407 0.468 . S
C4290 C997 0.372 . S
C4315 C1440 0.468 . S
C4320 C1030 0.372 . S
C4345 C1473 0.468 . S
C4350 C139 0.372 . S
C4375 C1506 0.468 . S
C4380 C832 0.372 . S
C4405 C1539 0.468 . S
C4410 C865 0.372 . S
C4435 C799 0.372 . S
C4440 C1572 0.468 . S
C4465 N2 0.948 . S
C4470 N992 0.948 . S
C4495 N35 0.948 . S
C4500 N1025 0.948 . S
C4525 N926 0.948 . S
C4530 N68 0.948 . S
C4555 N959 0.948 . S
C4560 N101 0.948 . S
C4585 N134 0.948 . S
C4590 N860 0.948 . S
C4615 N893 0.948 . S
C4620 N167 0.948 . S
C4645 N794 0.948 . S
C4650 N200 0.948 . S
C4675 N827 0.948 . S
C4680 N233 0.948 . S
C4705 N266 0.948 . S
C4710 N332 0.948 . S
C4735 N299 0.948 . S
C4740 N365 0.948 . S
C4765 N464 0.948 . S
C4770 N398 0.948 . S
C4795 N431 0.948 . S
C4800 N497 0.948 . S
C4825 N530 0.948 . S
C4830 N563 0.948 . S
C4855 N1553 0.948 . S
C4860 N596 0.948 . S
C4885 N1487 0.948 . S
C4890 N629 0.948 . S
C4915 N662 0.948 . S
C4920 N728 0.948 . S
C4945 N695 0.948 . S
C4950 N1421 0.948 . S
C4975 N761 0.948 . S
C4980 N1388 0.948 . S
C5005 N1124 0.948 . S
C5010 N1058 0.948 . S
C5035 N1157 0.948 . S
C5040 N1091 0.948 . S
C5065 N1256 0.948 . S
C5070 N1190 0.948 . S
C5095 N1289 0.948 . S
C5100 N1223 0.948 . S
C5125 N1322 0.948 . S
C5130 N1355 0.948 . S
C5155 N1520 0.948 . S
C5160 N1454 0.948 . S
