# Generated by pormake.
# Topology qtz-e, (6)-cn, num edge types: 1
# Building blocks:
#     Node 0, Type 0, BuildingBlock: UKALOJ_clean_sbu_0, # of connection points: 6
#     Node 1, Type 0, BuildingBlock: UKALOJ_clean_sbu_0, # of connection points: 6
#     Node 2, Type 0, BuildingBlock: UKALOJ_clean_sbu_0, # of connection points: 6
#     Node 3, Type 0, BuildingBlock: UKALOJ_clean_sbu_0, # of connection points: 6
#     Node 4, Type 0, BuildingBlock: UKALOJ_clean_sbu_0, # of connection points: 6
#     Node 5, Type 0, BuildingBlock: UKALOJ_clean_sbu_0, # of connection points: 6
#     Edge 6, Type (0, 0), BuildingBlock: CIFDUS_clean_linker_0, # of connection points: 2
#     Edge 7, Type (0, 0), BuildingBlock: CIFDUS_clean_linker_0, # of connection points: 2
#     Edge 8, Type (0, 0), BuildingBlock: CIFDUS_clean_linker_0, # of connection points: 2
#     Edge 9, Type (0, 0), BuildingBlock: CIFDUS_clean_linker_0, # of connection points: 2
#     Edge 10, Type (0, 0), BuildingBlock: CIFDUS_clean_linker_0, # of connection points: 2
#     Edge 11, Type (0, 0), BuildingBlock: CIFDUS_clean_linker_0, # of connection points: 2
#     Edge 12, Type (0, 0), BuildingBlock: CIFDUS_clean_linker_0, # of connection points: 2
#     Edge 13, Type (0, 0), BuildingBlock: CIFDUS_clean_linker_0, # of connection points: 2
#     Edge 14, Type (0, 0), BuildingBlock: CIFDUS_clean_linker_0, # of connection points: 2
#     Edge 15, Type (0, 0), BuildingBlock: CIFDUS_clean_linker_0, # of connection points: 2
#     Edge 16, Type (0, 0), BuildingBlock: CIFDUS_clean_linker_0, # of connection points: 2
#     Edge 17, Type (0, 0), BuildingBlock: CIFDUS_clean_linker_0, # of connection points: 2
#     Edge 18, Type (0, 0), BuildingBlock: CIFDUS_clean_linker_0, # of connection points: 2
#     Edge 19, Type (0, 0), BuildingBlock: CIFDUS_clean_linker_0, # of connection points: 2
#     Edge 20, Type (0, 0), BuildingBlock: CIFDUS_clean_linker_0, # of connection points: 2
#     Edge 21, Type (0, 0), BuildingBlock: CIFDUS_clean_linker_0, # of connection points: 2
#     Edge 22, Type (0, 0), BuildingBlock: CIFDUS_clean_linker_0, # of connection points: 2
#     Edge 23, Type (0, 0), BuildingBlock: CIFDUS_clean_linker_0, # of connection points: 2
# Relax obj value: 0.473
# Max RMSD: 0.265
# Mean RMSD: 0.265
data_MOF--net-qtz-e--node1-UKALOJ_clean_sbu_0--edge1-CIFDUS_clean_linker_0
_symmetry_space_group_name_H-M    P1
_symmetry_Int_Tables_number       1
_symmetry_cell_setting            triclinic
loop_
_symmetry_equiv_pos_as_xyz
'x, y, z'
_cell_length_a     24.324587
_cell_length_b     24.351037
_cell_length_c     34.077551
_cell_angle_alpha  90.150105
_cell_angle_beta   89.832881
_cell_angle_gamma 119.95693
loop_
_atom_site_label
_atom_site_type_symbol
_atom_site_fract_x
_atom_site_fract_y
_atom_site_fract_z
_atom_type_partial_charge
Zn0 Zn 0.20994 0.44338 -0.01202 0.0
O1 O 0.13131 0.45005 0.98291 0.0
C2 C 0.15066 0.34213 0.04789 0.0
Zn3 Zn 0.16422 0.3479 0.96102 0.0
C4 C 0.07978 0.40599 0.9693 0.0
O5 O 0.07589 0.35362 0.95855 0.0
C6 C 0.30078 0.39846 0.98128 0.0
O7 O 0.18688 0.38726 0.90552 0.0
O8 O 0.23631 0.48197 0.93163 0.0
N9 N 0.12265 0.25963 0.93477 0.0
C10 C 0.14904 0.23724 0.90901 0.0
C11 C 0.05328 0.16392 0.91755 0.0
N12 N 0.06297 0.21402 0.93992 0.0
N13 N 0.10684 0.17772 0.89805 0.0
C14 C 0.25026 0.56694 0.03507 0.0
C15 C 0.34563 0.62359 0.01466 0.0
N16 N 0.26065 0.53251 0.00841 0.0
N17 N 0.31963 0.56796 -0.00451 0.0
N18 N 0.30275 0.62422 0.03928 0.0
H19 H 0.15909 0.49148 0.05522 0.0
H20 H 0.16447 0.56717 0.0483 0.0
H21 H 0.202 0.55516 0.09003 0.0
C22 C 0.19045 0.54325 0.05856 0.0
C23 C 0.21628 0.27269 0.89417 0.0
H24 H 0.23591 0.32442 0.89412 0.0
H25 H 0.21932 0.25765 0.86385 0.0
H26 H 0.24632 0.26143 0.91314 0.0
O27 O 0.25631 0.34957 0.96468 0.0
O28 O 0.28972 0.44059 -0.00645 0.0
C29 C 0.21849 0.44666 0.90154 0.0
O30 O 0.18147 0.40231 0.0446 0.0
O31 O 0.13852 0.30766 0.01743 0.0
Zn32 Zn 0.83777 0.20845 0.32195 0.0
O33 O 0.80366 0.24866 0.28336 0.0
C34 C 0.94071 0.33983 0.34491 0.0
Zn35 Zn 0.81444 0.25145 0.3721 0.0
C36 C 0.78207 0.28346 0.29518 0.0
O37 O 0.7829 0.29574 0.33144 0.0
C38 C 0.86449 0.16869 0.39917 0.0
O39 O 0.72379 0.17256 0.37059 0.0
O40 O 0.74409 0.12782 0.32071 0.0
N41 N 0.78954 0.29066 0.41592 0.0
C42 C 0.75039 0.26552 0.44682 0.0
C43 C 0.77699 0.36323 0.44379 0.0
N44 N 0.80662 0.35149 0.41431 0.0
N45 N 0.742 0.31015 0.46475 0.0
C46 C 0.90852 0.20761 0.24665 0.0
C47 C 0.88666 0.11152 0.24167 0.0
N48 N 0.86798 0.17512 0.27607 0.0
N49 N 0.85436 0.11537 0.27288 0.0
N50 N 0.92173 0.16904 0.22512 0.0
H51 H 0.90164 0.29331 0.24887 0.0
H52 H 0.93881 0.28491 0.20556 0.0
H53 H 0.98036 0.30545 0.25156 0.0
C54 C 0.93321 0.27651 0.23769 0.0
C55 C 0.71486 0.19628 0.45671 0.0
H56 H 0.66602 0.17492 0.44478 0.0
H57 H 0.71109 0.18937 0.48894 0.0
H58 H 0.73839 0.17132 0.44418 0.0
O59 O 0.84513 0.20511 0.41232 0.0
O60 O 0.86842 0.16347 0.36227 0.0
C61 C 0.70479 0.12878 0.34515 0.0
O62 O 0.92881 0.29393 0.32204 0.0
O63 O 0.90207 0.33202 0.37208 0.0
Zn64 Zn 0.52739 0.74705 0.65337 0.0
O65 O 0.52199 0.66132 0.6496 0.0
C66 C 0.63691 0.79424 0.70805 0.0
Zn67 Zn 0.61912 0.78911 0.62181 0.0
C68 C 0.56418 0.65096 0.63564 0.0
O69 O 0.61581 0.69708 0.6221 0.0
C70 C 0.5708 0.87893 0.64021 0.0
O71 O 0.56978 0.76321 0.56846 0.0
O72 O 0.48 0.72876 0.59992 0.0
N73 N 0.70439 0.83634 0.5918 0.0
C74 C 0.72217 0.88288 0.56487 0.0
C75 C 0.8054 0.88033 0.5809 0.0
N76 N 0.75626 0.83458 0.60152 0.0
N77 N 0.78481 0.91089 0.55761 0.0
C78 C 0.41402 0.66534 0.70743 0.0
C79 C 0.35182 0.70082 0.69364 0.0
N80 N 0.4423 0.70939 0.6795 0.0
N81 N 0.4035 0.73105 0.67067 0.0
N82 N 0.35715 0.65886 0.71649 0.0
H83 H 0.49525 0.65538 0.72248 0.0
H84 H 0.42186 0.58255 0.71579 0.0
H85 H 0.43408 0.62848 0.75953 0.0
C86 C 0.4435 0.63154 0.7275 0.0
C87 C 0.68032 0.9056 0.54745 0.0
H88 H 0.62949 0.87022 0.5493 0.0
H89 H 0.6931 0.91845 0.51619 0.0
H90 H 0.68868 0.94916 0.56305 0.0
O91 O 0.61678 0.87825 0.62287 0.0
O92 O 0.52927 0.8298 0.65703 0.0
C93 C 0.51003 0.7391 0.56788 0.0
O94 O 0.57656 0.76617 0.70746 0.0
O95 O 0.66764 0.81179 0.67594 0.0
Zn96 Zn 0.76074 0.56662 0.02819 0.0
O97 O 0.83595 0.54899 0.01958 0.0
C98 C 0.84303 0.69999 0.05299 0.0
Zn99 Zn 0.79689 0.63027 0.97766 0.0
C100 C 0.88053 0.57932 -0.00488 0.0
O101 O 0.88184 0.62459 0.97551 0.0
C102 C 0.66848 0.6016 0.00771 0.0
O103 O 0.75743 0.55284 0.9406 0.0
O104 O 0.70599 0.49003 -0.01007 0.0
N105 N 0.82449 0.69096 0.9306 0.0
C106 C 0.7893 0.69581 0.90173 0.0
C107 C 0.88395 0.77216 0.8944 0.0
N108 N 0.88334 0.73836 0.92593 0.0
N109 N 0.82527 0.74683 0.87907 0.0
C110 C 0.75204 0.50588 0.10867 0.0
C111 C 0.65479 0.43305 0.1096 0.0
N112 N 0.7266 0.50722 0.074 0.0
N113 N 0.66614 0.46226 0.07465 0.0
N114 N 0.70765 0.46036 0.1317 0.0
H115 H 0.85053 0.56646 0.09255 0.0
H116 H 0.83773 0.5194 0.13606 0.0
H117 H 0.82636 0.58685 0.13764 0.0
C118 C 0.82074 0.54685 0.11909 0.0
C119 C 0.72042 0.64915 0.89442 0.0
H120 H 0.70684 0.60153 0.90555 0.0
H121 H 0.70974 0.64537 0.86257 0.0
H122 H 0.69074 0.66559 0.90947 0.0
O123 O 0.70641 0.6272 0.97911 0.0
O124 O 0.68504 0.58006 0.03605 0.0
C125 C 0.71836 0.49827 0.95352 0.0
O126 O 0.81499 0.64347 0.0657 0.0
O127 O 0.84063 0.70982 0.01656 0.0
Zn128 Zn 0.271 0.80814 0.30292 0.0
O129 O 0.34539 0.89647 0.30327 0.0
C130 C 0.21527 0.85333 0.36472 0.0
Zn131 Zn 0.21354 0.84713 0.27845 0.0
C132 C 0.3476 0.94557 0.28955 0.0
O133 O 0.29812 0.94216 0.27413 0.0
C134 C 0.14298 0.70521 0.29464 0.0
O135 O 0.23196 0.82706 0.22228 0.0
O136 O 0.29491 0.79526 0.2458 0.0
N137 N 0.1549 0.87625 0.25416 0.0
C138 C 0.10434 0.84327 0.23058 0.0
C139 C 0.11332 0.9341 0.23941 0.0
N140 N 0.1606 0.93286 0.25952 0.0
N141 N 0.07751 0.87819 0.22123 0.0
C142 C 0.36107 0.7875 0.35613 0.0
C143 C 0.37112 0.71727 0.32446 0.0
N144 N 0.32697 0.77524 0.32312 0.0
N145 N 0.33361 0.73199 0.30325 0.0
N146 N 0.38909 0.75191 0.35755 0.0
H147 H 0.41217 0.85187 0.40349 0.0
H148 H 0.32719 0.80999 0.40821 0.0
H149 H 0.36522 0.87462 0.37397 0.0
C150 C 0.36703 0.83402 0.38711 0.0
C151 C 0.08042 0.77673 0.21618 0.0
H152 H 0.05876 0.77003 0.18667 0.0
H153 H 0.04305 0.7432 0.23651 0.0
H154 H 0.11843 0.76464 0.21446 0.0
O155 O 0.13271 0.75 0.2853 0.0
O156 O 0.19859 0.71804 0.30283 0.0
C157 C 0.26968 0.80629 0.21663 0.0
O158 O 0.2453 0.82315 0.36072 0.0
O159 O 0.1964 0.86933 0.33444 0.0
Zn160 Zn 0.3452 0.14672 0.6497 0.0
O161 O 0.42808 0.1854 0.615 0.0
C162 C 0.37371 0.04631 0.67637 0.0
Zn163 Zn 0.40679 0.17179 0.70164 0.0
C164 C 0.48185 0.20182 0.62997 0.0
O165 O 0.48676 0.19857 0.66676 0.0
C166 C 0.27051 0.1191 0.72312 0.0
O167 O 0.42265 0.26526 0.69544 0.0
O168 O 0.35223 0.23693 0.64803 0.0
N169 N 0.46179 0.19375 0.74945 0.0
C170 C 0.46487 0.22371 0.78324 0.0
C171 C 0.53442 0.19492 0.78591 0.0
N172 N 0.50451 0.17528 0.75131 0.0
N173 N 0.50978 0.22459 0.80673 0.0
C174 C 0.28764 0.07822 0.57107 0.0
C175 C 0.21006 0.09419 0.56216 0.0
N176 N 0.28897 0.11611 0.60052 0.0
N177 N 0.24074 0.12602 0.59489 0.0
N178 N 0.238 0.06297 0.54706 0.0
H179 H 0.38192 0.0903 0.57869 0.0
H180 H 0.34474 0.0559 0.5328 0.0
H181 H 0.31847 0.01021 0.5772 0.0
C182 C 0.33624 0.05809 0.56463 0.0
C183 C 0.42626 0.25458 0.79248 0.0
H184 H 0.3993 0.25555 0.76671 0.0
H185 H 0.45763 0.30365 0.80318 0.0
H186 H 0.39209 0.2277 0.81625 0.0
O187 O 0.32626 0.14404 0.73701 0.0
O188 O 0.26248 0.11126 0.6862 0.0
C189 C 0.39424 0.27995 0.66983 0.0
O190 O 0.34413 0.05865 0.65047 0.0
O191 O 0.39638 0.0827 0.70563 0.0
H192 H 0.3593 0.77903 0.19271 0.0
H193 H 0.19943 0.79402 0.15175 0.0
H194 H 0.20089 0.74501 0.0896 0.0
H195 H 0.23801 0.68424 0.05114 0.0
H196 H 0.39561 0.66707 0.09253 0.0
H197 H 0.40582 0.73178 0.15021 0.0
C198 C 0.32548 0.77247 0.16991 0.0
C199 C 0.27852 0.78862 0.17697 0.0
C200 C 0.32602 0.74361 0.13457 0.0
C201 C 0.23569 0.78123 0.14704 0.0
C202 C 0.23626 0.75302 0.11159 0.0
C203 C 0.27489 0.69571 0.07271 0.0
C204 C 0.31519 0.6706 0.06867 0.0
C205 C 0.27961 0.73184 0.10573 0.0
C206 C 0.36409 0.6862 0.09575 0.0
C207 C 0.36958 0.72265 0.12862 0.0
H208 H 0.49818 0.25186 0.55757 0.0
H209 H 0.59094 0.20121 0.64645 0.0
H210 H 0.6827 0.23413 0.60338 0.0
H211 H 0.73433 0.27316 0.53906 0.0
H212 H 0.64198 0.32458 0.45098 0.0
H213 H 0.55221 0.2966 0.49527 0.0
C214 C 0.53857 0.24816 0.56747 0.0
C215 C 0.53793 0.22386 0.60481 0.0
C216 C 0.59107 0.2676 0.54282 0.0
C217 C 0.59068 0.21998 0.6177 0.0
C218 C 0.64299 0.23863 0.59314 0.0
C219 C 0.6945 0.27844 0.53004 0.0
C220 C 0.6936 0.30017 0.49224 0.0
C221 C 0.6434 0.26195 0.55553 0.0
C222 C 0.64284 0.30794 0.48029 0.0
C223 C 0.5917 0.29162 0.5054 0.0
H224 H 0.24339 0.56341 0.88109 0.0
H225 H 0.22625 0.39057 0.8344 0.0
H226 H 0.25955 0.43954 0.76977 0.0
H227 H 0.30427 0.53517 0.72887 0.0
H228 H 0.32319 0.70792 0.77574 0.0
H229 H 0.2762 0.65493 0.83804 0.0
C230 C 0.24675 0.53654 0.85666 0.0
C231 C 0.23396 0.47431 0.86233 0.0
C232 C 0.2655 0.56472 0.81981 0.0
C233 C 0.2367 0.439 0.83052 0.0
C234 C 0.25558 0.46681 0.79368 0.0
C235 C 0.29677 0.56034 0.75269 0.0
C236 C 0.31742 0.62484 0.74866 0.0
C237 C 0.27151 0.53005 0.78831 0.0
C238 C 0.30719 0.6579 0.77883 0.0
C239 C 0.28115 0.62791 0.81435 0.0
H240 H 0.79536 0.4005 0.28984 0.0
H241 H 0.70479 0.21488 0.23665 0.0
H242 H 0.6661 0.25246 0.18305 0.0
H243 H 0.66894 0.34042 0.14761 0.0
H244 H 0.76472 0.52809 0.19708 0.0
H245 H 0.7908 0.48804 0.25608 0.0
C246 C 0.7662 0.36844 0.26677 0.0
C247 C 0.75309 0.30553 0.26659 0.0
C248 C 0.74601 0.39094 0.23533 0.0
C249 C 0.71578 0.26385 0.23675 0.0
C250 C 0.6937 0.28518 0.20623 0.0
C251 C 0.69446 0.37205 0.17174 0.0
C252 C 0.71608 0.43681 0.16818 0.0
C253 C 0.71017 0.34896 0.20465 0.0
C254 C 0.74915 0.47808 0.19923 0.0
C255 C 0.76374 0.45519 0.23283 0.0
H256 H 0.56086 0.761 0.49474 0.0
H257 H 0.38328 0.69032 0.55715 0.0
H258 H 0.32869 0.682 0.49574 0.0
H259 H 0.33344 0.70472 0.42551 0.0
H260 H 0.50975 0.77762 0.36286 0.0
H261 H 0.56347 0.77452 0.42322 0.0
C262 C 0.5101 0.74304 0.49484 0.0
C263 C 0.47627 0.7271 0.5304 0.0
C264 C 0.47912 0.73905 0.45953 0.0
C265 C 0.41045 0.70344 0.53013 0.0
C266 C 0.37918 0.6987 0.4951 0.0
C267 C 0.38343 0.71899 0.42535 0.0
C268 C 0.4184 0.74192 0.39071 0.0
C269 C 0.41336 0.71787 0.4599 0.0
C270 C 0.48274 0.75995 0.38975 0.0
C271 C 0.51313 0.75845 0.42409 0.0
H272 H 0.598 0.39938 0.95493 0.0
H273 H 0.77439 0.48057 0.89058 0.0
H274 H 0.72563 0.39786 0.84088 0.0
H275 H 0.63154 0.30815 0.81333 0.0
H276 H 0.45276 0.22918 0.87403 0.0
H277 H 0.50327 0.30545 0.9279 0.0
C278 C 0.6256 0.39805 0.93025 0.0
C279 C 0.68928 0.4454 0.92603 0.0
C280 C 0.59677 0.35144 0.90122 0.0
C281 C 0.72499 0.44445 0.89393 0.0
C282 C 0.6973 0.39732 0.86565 0.0
C283 C 0.60414 0.30718 0.83876 0.0
C284 C 0.53902 0.26411 0.84005 0.0
C285 C 0.63309 0.35144 0.86867 0.0
C286 C 0.50306 0.26301 0.87259 0.0
C287 C 0.5319 0.30627 0.90324 0.0
H288 H 0.37904 0.46021 0.03974 0.0
H289 H 0.37322 0.37875 0.92635 0.0
H290 H 0.48985 0.44241 0.92211 0.0
H291 H 0.59238 0.52816 0.94929 0.0
H292 H 0.59254 0.61347 0.06037 0.0
H293 H 0.47772 0.54486 0.06554 0.0
C294 C 0.40338 0.45534 0.01434 0.0
C295 C 0.36775 0.41464 0.9835 0.0
C296 C 0.4687 0.49571 0.01072 0.0
C297 C 0.39969 0.40871 0.95083 0.0
C298 C 0.46609 0.44646 0.94798 0.0
C299 C 0.56664 0.53325 0.97377 0.0
C300 C 0.6002 0.57734 0.00384 0.0
C301 C 0.50073 0.49193 0.97713 0.0
C302 C 0.56716 0.58149 0.03639 0.0
C303 C 0.50193 0.54129 0.03974 0.0
H304 H 0.1553 0.60322 0.28184 0.0
H305 H 0.01902 0.65807 0.31715 0.0
H306 H 0.94505 0.54848 0.3372 0.0
H307 H 0.9236 0.44012 0.34918 0.0
H308 H 0.0581 0.38426 0.31149 0.0
H309 H 0.12995 0.49269 0.28846 0.0
C310 C 0.10898 0.59098 0.29347 0.0
C311 C 0.09259 0.63852 0.29848 0.0
C312 C 0.06767 0.52861 0.30537 0.0
C313 C 0.03234 0.62214 0.31292 0.0
C314 C 0.9906 0.55981 0.32481 0.0
C315 C 0.96917 0.45194 0.33648 0.0
C316 C 0.98697 0.40516 0.3333 0.0
C317 C 0.0087 0.51331 0.32222 0.0
C318 C 0.04449 0.42009 0.31513 0.0
C319 C 0.08505 0.48172 0.30171 0.0
H320 H 0.49035 0.06894 0.69541 0.0
H321 H 0.32297 0.94022 0.63003 0.0
H322 H 0.37802 0.88618 0.60474 0.0
H323 H 0.47081 0.87179 0.60517 0.0
H324 H 0.6358 0.9969 0.67304 0.0
H325 H 0.58595 0.05949 0.69173 0.0
C326 C 0.46533 0.02823 0.67623 0.0
C327 C 0.40182 0.00704 0.66557 0.0
C328 C 0.49776 -0.00118 0.66117 0.0
C329 C 0.37117 0.95617 0.63935 0.0
C330 C 0.40291 0.92599 0.62454 0.0
C331 C 0.4967 0.91438 0.6228 0.0
C332 C 0.55704 0.9307 0.63737 0.0
C333 C 0.46604 0.9469 0.63539 0.0
C334 C 0.59005 0.98476 0.66079 0.0
C335 C 0.56081 0.01931 0.67222 0.0
H336 H 0.45227 0.55139 0.61778 0.0
H337 H 0.64022 0.60139 0.65623 0.0
H338 H 0.6027 0.48946 0.67186 0.0
H339 H 0.51381 0.37901 0.67891 0.0
H340 H 0.3266 0.33131 0.63957 0.0
H341 H 0.3661 0.44172 0.62089 0.0
C342 C 0.4854 0.53757 0.62888 0.0
C343 C 0.54896 0.58425 0.63572 0.0
C344 C 0.46307 0.47413 0.63865 0.0
C345 C 0.59142 0.56605 0.6501 0.0
C346 C 0.56962 0.50233 0.65962 0.0
C347 C 0.48158 0.39305 0.66665 0.0
C348 C 0.41697 0.34742 0.66136 0.0
C349 C 0.50511 0.45632 0.65499 0.0
C350 C 0.37616 0.36573 0.64438 0.0
C351 C 0.39885 0.42865 0.63346 0.0
H352 H 0.09007 0.51373 0.94345 0.0
H353 H 0.95488 0.33202 -0.00832 0.0
H354 H 0.88071 0.37111 0.00436 0.0
H355 H 0.85993 0.46051 0.00747 0.0
H356 H -0.00294 0.6425 0.95981 0.0
H357 H 0.06624 0.6001 0.94195 0.0
C358 C 0.04361 0.48216 0.95588 0.0
C359 C 0.02756 0.42 0.96649 0.0
C360 C 0.00284 0.50571 0.96425 0.0
C361 C 0.96763 0.37955 0.98266 0.0
C362 C 0.92591 0.40238 -0.00949 0.0
C363 C 0.90521 0.49112 -0.00657 0.0
C364 C 0.92409 0.55516 0.98573 0.0
C365 C 0.94403 0.466 0.9826 0.0
C366 C 0.98196 0.59352 0.96653 0.0
C367 C 0.02121 0.56914 0.95611 0.0
H368 H 0.40885 0.99429 0.35579 0.0
H369 H 0.42685 0.01862 0.23052 0.0
H370 H 0.5431 0.075 0.23642 0.0
H371 H 0.63883 0.1051 0.27721 0.0
H372 H 0.61702 0.07124 0.40192 0.0
H373 H 0.50247 0.02701 0.3962 0.0
C374 C 0.43845 0.01437 0.32995 0.0
C375 C 0.40963 0.00347 0.29287 0.0
C376 C 0.50422 0.04121 0.33336 0.0
C377 C 0.44804 0.02818 0.25945 0.0
C378 C 0.51438 0.05855 0.26279 0.0
C379 C 0.60857 0.08641 0.30285 0.0
C380 C 0.63579 0.0894 0.33981 0.0
C381 C 0.54277 0.06254 0.29943 0.0
C382 C 0.5967 0.06772 0.37313 0.0
C383 C 0.53151 0.04357 0.36995 0.0
H384 H 0.25991 0.08934 0.80008 0.0
H385 H 0.16418 0.12555 0.70603 0.0
H386 H 0.09344 0.13493 0.75344 0.0
H387 H 0.07399 0.15364 0.82246 0.0
H388 H 0.17208 0.11989 0.91562 0.0
H389 H 0.22587 0.0872 0.86807 0.0
C390 C 0.22237 0.09753 0.78991 0.0
C391 C 0.2178 0.10771 0.74976 0.0
C392 C 0.18257 0.10359 0.81732 0.0
C393 C 0.16864 0.11762 0.73683 0.0
C394 C 0.12852 0.12348 0.76397 0.0
C395 C 0.10487 0.13615 0.83213 0.0
C396 C 0.11905 0.13846 0.87223 0.0
C397 C 0.13696 0.11936 0.8044 0.0
C398 C 0.16016 0.11736 0.88482 0.0
C399 C 0.19144 0.09962 0.85763 0.0
H400 H 0.04026 0.2679 0.21876 0.0
H401 H 0.89729 0.10453 0.15706 0.0
H402 H 0.96131 0.13993 0.09688 0.0
H403 H 0.05079 0.22439 0.06034 0.0
H404 H 0.18734 0.3939 0.12092 0.0
H405 H 0.13242 0.35 0.18306 0.0
C406 C 0.02294 0.24053 0.19199 0.0
C407 C 0.96325 0.18502 0.19173 0.0
C408 C 0.05857 0.26272 0.15739 0.0
C409 C 0.94277 0.14789 0.1576 0.0
C410 C 0.97914 0.16837 0.12326 0.0
C411 C 0.0692 0.25129 0.08725 0.0
C412 C 0.12296 0.31242 0.08606 0.0
C413 C 0.03608 0.22677 0.12254 0.0
C414 C 0.14591 0.3469 0.12109 0.0
C415 C 0.1145 0.32186 0.15658 0.0
H416 H 0.83193 0.92679 0.48484 0.0
H417 H 0.81549 0.02566 0.58474 0.0
H418 H 0.84836 0.12072 0.54489 0.0
H419 H 0.86389 0.16828 0.47932 0.0
H420 H 0.88007 0.06875 0.37891 0.0
H421 H 0.8667 0.98225 0.42106 0.0
C422 C 0.8382 0.97016 0.49795 0.0
C423 C 0.82186 0.96994 0.53745 0.0
C424 C 0.85594 0.02407 0.47457 0.0
C425 C 0.82873 0.02563 0.55437 0.0
C426 C 0.84676 0.07953 0.5315 0.0
C427 C 0.86608 0.12843 0.46677 0.0
C428 C 0.87183 0.12469 0.42589 0.0
C429 C 0.85782 0.07834 0.49118 0.0
C430 C 0.87518 0.07286 0.41023 0.0
C431 C 0.86721 0.02302 0.43431 0.0
H432 H 0.7564 0.81393 0.71659 0.0
H433 H 0.59175 0.78331 0.78267 0.0
H434 H 0.64022 0.77383 0.84306 0.0
H435 H 0.72442 0.7636 0.87577 0.0
H436 H 0.88423 0.78432 0.80914 0.0
H437 H 0.84394 0.81053 0.75033 0.0
C438 C 0.73162 0.8064 0.74431 0.0
C439 C 0.6704 0.79902 0.74513 0.0
C440 C 0.75883 0.79885 0.77869 0.0
C441 C 0.63877 0.78887 0.78125 0.0
C442 C 0.66637 0.78327 0.81576 0.0
C443 C 0.75002 0.77341 0.84825 0.0
C444 C 0.80593 0.77001 0.84619 0.0
C445 C 0.72541 0.78619 0.81458 0.0
C446 C 0.8406 0.78591 0.81104 0.0
C447 C 0.81739 0.8005 0.77751 0.0
H448 H 0.07232 0.91075 0.14705 0.0
H449 H 0.95915 0.79596 0.24333 0.0
H450 H 0.8698 0.73446 0.1991 0.0
H451 H 0.83217 0.70208 0.13185 0.0
H452 H 0.94606 0.81454 0.0345 0.0
H453 H 0.02647 0.8892 0.08004 0.0
C454 C 0.02701 0.87404 0.15828 0.0
C455 C 0.02149 0.85773 0.19813 0.0
C456 C 0.97672 0.83782 0.13235 0.0
C457 C 0.96347 0.80933 0.21271 0.0
C458 C 0.91292 0.77385 0.18737 0.0
C459 C 0.87396 0.74372 0.12064 0.0
C460 C 0.88377 0.75225 0.07993 0.0
C461 C 0.92016 0.78582 0.14692 0.0
C462 C 0.93758 0.80682 0.06576 0.0
C463 C 0.98377 0.84931 0.09178 0.0
H464 H 0.23081 0.94936 0.53825 0.0
H465 H 0.2003 0.08739 0.4784 0.0
H466 H 0.18168 0.02851 0.41682 0.0
H467 H 0.18727 0.94587 0.37904 0.0
H468 H 0.23035 0.81476 0.43746 0.0
H469 H 0.23282 0.86392 0.50071 0.0
C470 C 0.22123 0.9671 0.51158 0.0
C471 C 0.21947 0.02399 0.51236 0.0
C472 C 0.21352 0.9346 0.47616 0.0
C473 C 0.20282 0.04423 0.47821 0.0
C474 C 0.19261 0.01082 0.44307 0.0
C475 C 0.19628 0.92729 0.40564 0.0
C476 C 0.20887 0.87682 0.40355 0.0
C477 C 0.19979 0.9571 0.44152 0.0
C478 C 0.22083 0.85371 0.43828 0.0
C479 C 0.2223 0.88184 0.4744 0.0
loop_
_geom_bond_atom_site_label_1
_geom_bond_atom_site_label_2
_geom_bond_distance
_geom_bond_site_symmetry_2
_ccdc_geom_bond_type
Zn0 O1 2.055 . S
Zn0 O8 2.046 1_554 S
Zn0 N16 2.036 . S
Zn0 O28 2.053 . S
Zn0 O30 2.066 . S
O1 Zn0 2.055 . S
O1 C4 1.259 1_554 S
C2 O30 1.256 . S
C2 O31 1.244 . S
Zn3 O5 2.046 . S
Zn3 O7 2.055 . S
Zn3 N9 2.036 . S
Zn3 O27 2.066 . S
Zn3 O31 2.053 1_556 S
C4 O1 1.259 1_556 S
C4 O5 1.254 . S
O5 Zn3 2.046 . S
O5 C4 1.254 . S
C6 O27 1.256 1_554 S
C6 O28 1.244 . S
O7 Zn3 2.055 . S
O7 C29 1.259 . S
O8 Zn0 2.046 1_556 S
O8 C29 1.254 . S
N9 Zn3 2.036 . S
N9 C10 1.298 . S
N9 N12 1.398 . S
C10 N9 1.298 . S
C10 N13 1.367 . S
C10 C23 1.481 . S
C11 N12 1.299 . S
C11 N13 1.379 . S
N12 N9 1.398 . S
N12 C11 1.299 . S
N13 C10 1.367 . S
N13 C11 1.379 . S
C14 N16 1.298 . S
C14 N18 1.367 . S
C14 C22 1.481 . S
C15 N17 1.299 . S
C15 N18 1.379 . S
N16 Zn0 2.036 . S
N16 C14 1.298 . S
N16 N17 1.398 . S
N17 C15 1.299 . S
N17 N16 1.398 . S
N18 C14 1.367 . S
N18 C15 1.379 . S
H19 C22 0.980 . S
H20 C22 0.981 . S
H21 C22 0.981 . S
C22 C14 1.481 . S
C22 H19 0.980 . S
C22 H20 0.981 . S
C22 H21 0.981 . S
C23 C10 1.481 . S
C23 H24 0.980 . S
C23 H25 0.981 . S
C23 H26 0.981 . S
H24 C23 0.980 . S
H25 C23 0.981 . S
H26 C23 0.981 . S
O27 Zn3 2.066 . S
O27 C6 1.256 1_556 S
O28 Zn0 2.053 . S
O28 C6 1.244 . S
C29 O7 1.259 . S
C29 O8 1.254 . S
O30 Zn0 2.066 . S
O30 C2 1.256 . S
O31 C2 1.244 . S
O31 Zn3 2.053 1_554 S
Zn32 O33 2.055 . S
Zn32 O40 2.046 . S
Zn32 N48 2.036 . S
Zn32 O60 2.053 . S
Zn32 O62 2.066 . S
O33 Zn32 2.055 . S
O33 C36 1.259 . S
C34 O62 1.256 . S
C34 O63 1.244 . S
Zn35 O37 2.046 . S
Zn35 O39 2.055 . S
Zn35 N41 2.036 . S
Zn35 O59 2.066 . S
Zn35 O63 2.053 . S
C36 O33 1.259 . S
C36 O37 1.254 . S
O37 Zn35 2.046 . S
O37 C36 1.254 . S
C38 O59 1.256 . S
C38 O60 1.244 . S
O39 Zn35 2.055 . S
O39 C61 1.259 . S
O40 Zn32 2.046 . S
O40 C61 1.254 . S
N41 Zn35 2.036 . S
N41 C42 1.298 . S
N41 N44 1.398 . S
C42 N41 1.298 . S
C42 N45 1.367 . S
C42 C55 1.481 . S
C43 N44 1.299 . S
C43 N45 1.379 . S
N44 N41 1.398 . S
N44 C43 1.299 . S
N45 C42 1.367 . S
N45 C43 1.379 . S
C46 N48 1.298 . S
C46 N50 1.367 . S
C46 C54 1.481 . S
C47 N49 1.299 . S
C47 N50 1.379 . S
N48 Zn32 2.036 . S
N48 C46 1.298 . S
N48 N49 1.398 . S
N49 C47 1.299 . S
N49 N48 1.398 . S
N50 C46 1.367 . S
N50 C47 1.379 . S
H51 C54 0.980 . S
H52 C54 0.981 . S
H53 C54 0.981 . S
C54 C46 1.481 . S
C54 H51 0.980 . S
C54 H52 0.981 . S
C54 H53 0.981 . S
C55 C42 1.481 . S
C55 H56 0.980 . S
C55 H57 0.981 . S
C55 H58 0.981 . S
H56 C55 0.980 . S
H57 C55 0.981 . S
H58 C55 0.981 . S
O59 Zn35 2.066 . S
O59 C38 1.256 . S
O60 Zn32 2.053 . S
O60 C38 1.244 . S
C61 O39 1.259 . S
C61 O40 1.254 . S
O62 Zn32 2.066 . S
O62 C34 1.256 . S
O63 C34 1.244 . S
O63 Zn35 2.053 . S
Zn64 O65 2.055 . S
Zn64 O72 2.046 . S
Zn64 N80 2.036 . S
Zn64 O92 2.053 . S
Zn64 O94 2.066 . S
O65 Zn64 2.055 . S
O65 C68 1.259 . S
C66 O94 1.256 . S
C66 O95 1.244 . S
Zn67 O69 2.046 . S
Zn67 O71 2.055 . S
Zn67 N73 2.036 . S
Zn67 O91 2.066 . S
Zn67 O95 2.053 . S
C68 O65 1.259 . S
C68 O69 1.254 . S
O69 Zn67 2.046 . S
O69 C68 1.254 . S
C70 O91 1.256 . S
C70 O92 1.244 . S
O71 Zn67 2.055 . S
O71 C93 1.259 . S
O72 Zn64 2.046 . S
O72 C93 1.254 . S
N73 Zn67 2.036 . S
N73 C74 1.298 . S
N73 N76 1.398 . S
C74 N73 1.298 . S
C74 N77 1.367 . S
C74 C87 1.481 . S
C75 N76 1.299 . S
C75 N77 1.379 . S
N76 N73 1.398 . S
N76 C75 1.299 . S
N77 C74 1.367 . S
N77 C75 1.379 . S
C78 N80 1.298 . S
C78 N82 1.367 . S
C78 C86 1.481 . S
C79 N81 1.299 . S
C79 N82 1.379 . S
N80 Zn64 2.036 . S
N80 C78 1.298 . S
N80 N81 1.398 . S
N81 C79 1.299 . S
N81 N80 1.398 . S
N82 C78 1.367 . S
N82 C79 1.379 . S
H83 C86 0.980 . S
H84 C86 0.981 . S
H85 C86 0.981 . S
C86 C78 1.481 . S
C86 H83 0.980 . S
C86 H84 0.981 . S
C86 H85 0.981 . S
C87 C74 1.481 . S
C87 H88 0.980 . S
C87 H89 0.981 . S
C87 H90 0.981 . S
H88 C87 0.980 . S
H89 C87 0.981 . S
H90 C87 0.981 . S
O91 Zn67 2.066 . S
O91 C70 1.256 . S
O92 Zn64 2.053 . S
O92 C70 1.244 . S
C93 O71 1.259 . S
C93 O72 1.254 . S
O94 Zn64 2.066 . S
O94 C66 1.256 . S
O95 C66 1.244 . S
O95 Zn67 2.053 . S
Zn96 O97 2.055 . S
Zn96 O104 2.046 1_554 S
Zn96 N112 2.036 . S
Zn96 O124 2.053 . S
Zn96 O126 2.066 . S
O97 Zn96 2.055 . S
O97 C100 1.259 1_554 S
C98 O126 1.256 . S
C98 O127 1.244 . S
Zn99 O101 2.046 . S
Zn99 O103 2.055 . S
Zn99 N105 2.036 . S
Zn99 O123 2.066 . S
Zn99 O127 2.053 1_556 S
C100 O97 1.259 1_556 S
C100 O101 1.254 . S
O101 Zn99 2.046 . S
O101 C100 1.254 . S
C102 O123 1.256 1_554 S
C102 O124 1.244 . S
O103 Zn99 2.055 . S
O103 C125 1.259 . S
O104 Zn96 2.046 1_556 S
O104 C125 1.254 . S
N105 Zn99 2.036 . S
N105 C106 1.298 . S
N105 N108 1.398 . S
C106 N105 1.298 . S
C106 N109 1.367 . S
C106 C119 1.481 . S
C107 N108 1.299 . S
C107 N109 1.379 . S
N108 N105 1.398 . S
N108 C107 1.299 . S
N109 C106 1.367 . S
N109 C107 1.379 . S
C110 N112 1.298 . S
C110 N114 1.367 . S
C110 C118 1.481 . S
C111 N113 1.299 . S
C111 N114 1.379 . S
N112 Zn96 2.036 . S
N112 C110 1.298 . S
N112 N113 1.398 . S
N113 C111 1.299 . S
N113 N112 1.398 . S
N114 C110 1.367 . S
N114 C111 1.379 . S
H115 C118 0.980 . S
H116 C118 0.981 . S
H117 C118 0.981 . S
C118 C110 1.481 . S
C118 H115 0.980 . S
C118 H116 0.981 . S
C118 H117 0.981 . S
C119 C106 1.481 . S
C119 H120 0.980 . S
C119 H121 0.981 . S
C119 H122 0.981 . S
H120 C119 0.980 . S
H121 C119 0.981 . S
H122 C119 0.981 . S
O123 Zn99 2.066 . S
O123 C102 1.256 1_556 S
O124 Zn96 2.053 . S
O124 C102 1.244 . S
C125 O103 1.259 . S
C125 O104 1.254 . S
O126 Zn96 2.066 . S
O126 C98 1.256 . S
O127 C98 1.244 . S
O127 Zn99 2.053 1_554 S
Zn128 O129 2.055 . S
Zn128 O136 2.046 . S
Zn128 N144 2.036 . S
Zn128 O156 2.053 . S
Zn128 O158 2.066 . S
O129 Zn128 2.055 . S
O129 C132 1.259 . S
C130 O158 1.256 . S
C130 O159 1.244 . S
Zn131 O133 2.046 . S
Zn131 O135 2.055 . S
Zn131 N137 2.036 . S
Zn131 O155 2.066 . S
Zn131 O159 2.053 . S
C132 O129 1.259 . S
C132 O133 1.254 . S
O133 Zn131 2.046 . S
O133 C132 1.254 . S
C134 O155 1.256 . S
C134 O156 1.244 . S
O135 Zn131 2.055 . S
O135 C157 1.259 . S
O136 Zn128 2.046 . S
O136 C157 1.254 . S
N137 Zn131 2.036 . S
N137 C138 1.298 . S
N137 N140 1.398 . S
C138 N137 1.298 . S
C138 N141 1.367 . S
C138 C151 1.481 . S
C139 N140 1.299 . S
C139 N141 1.379 . S
N140 N137 1.398 . S
N140 C139 1.299 . S
N141 C138 1.367 . S
N141 C139 1.379 . S
C142 N144 1.298 . S
C142 N146 1.367 . S
C142 C150 1.481 . S
C143 N145 1.299 . S
C143 N146 1.379 . S
N144 Zn128 2.036 . S
N144 C142 1.298 . S
N144 N145 1.398 . S
N145 C143 1.299 . S
N145 N144 1.398 . S
N146 C142 1.367 . S
N146 C143 1.379 . S
H147 C150 0.980 . S
H148 C150 0.981 . S
H149 C150 0.981 . S
C150 C142 1.481 . S
C150 H147 0.980 . S
C150 H148 0.981 . S
C150 H149 0.981 . S
C151 C138 1.481 . S
C151 H152 0.980 . S
C151 H153 0.981 . S
C151 H154 0.981 . S
H152 C151 0.980 . S
H153 C151 0.981 . S
H154 C151 0.981 . S
O155 Zn131 2.066 . S
O155 C134 1.256 . S
O156 Zn128 2.053 . S
O156 C134 1.244 . S
C157 O135 1.259 . S
C157 O136 1.254 . S
O158 Zn128 2.066 . S
O158 C130 1.256 . S
O159 C130 1.244 . S
O159 Zn131 2.053 . S
Zn160 O161 2.055 . S
Zn160 O168 2.046 . S
Zn160 N176 2.036 . S
Zn160 O188 2.053 . S
Zn160 O190 2.066 . S
O161 Zn160 2.055 . S
O161 C164 1.259 . S
C162 O190 1.256 . S
C162 O191 1.244 . S
Zn163 O165 2.046 . S
Zn163 O167 2.055 . S
Zn163 N169 2.036 . S
Zn163 O187 2.066 . S
Zn163 O191 2.053 . S
C164 O161 1.259 . S
C164 O165 1.254 . S
O165 Zn163 2.046 . S
O165 C164 1.254 . S
C166 O187 1.256 . S
C166 O188 1.244 . S
O167 Zn163 2.055 . S
O167 C189 1.259 . S
O168 Zn160 2.046 . S
O168 C189 1.254 . S
N169 Zn163 2.036 . S
N169 C170 1.298 . S
N169 N172 1.398 . S
C170 N169 1.298 . S
C170 N173 1.367 . S
C170 C183 1.481 . S
C171 N172 1.299 . S
C171 N173 1.379 . S
N172 N169 1.398 . S
N172 C171 1.299 . S
N173 C170 1.367 . S
N173 C171 1.379 . S
C174 N176 1.298 . S
C174 N178 1.367 . S
C174 C182 1.481 . S
C175 N177 1.299 . S
C175 N178 1.379 . S
N176 Zn160 2.036 . S
N176 C174 1.298 . S
N176 N177 1.398 . S
N177 C175 1.299 . S
N177 N176 1.398 . S
N178 C174 1.367 . S
N178 C175 1.379 . S
H179 C182 0.980 . S
H180 C182 0.981 . S
H181 C182 0.981 . S
C182 C174 1.481 . S
C182 H179 0.980 . S
C182 H180 0.981 . S
C182 H181 0.981 . S
C183 C170 1.481 . S
C183 H184 0.980 . S
C183 H185 0.981 . S
C183 H186 0.981 . S
H184 C183 0.980 . S
H185 C183 0.981 . S
H186 C183 0.981 . S
O187 Zn163 2.066 . S
O187 C166 1.256 . S
O188 Zn160 2.053 . S
O188 C166 1.244 . S
C189 O167 1.259 . S
C189 O168 1.254 . S
O190 Zn160 2.066 . S
O190 C162 1.256 . S
O191 C162 1.244 . S
O191 Zn163 2.053 . S
H192 C198 0.930 . S
H193 C201 0.930 . S
H194 C202 0.930 . S
H195 C203 0.930 . S
H196 C206 0.930 . S
H197 C207 0.930 . S
C198 H192 0.930 . S
C198 C199 1.355 . S
C198 C200 1.415 . S
C199 C198 1.355 . S
C199 C201 1.419 . S
C200 C198 1.415 . S
C200 C205 1.425 . S
C200 C207 1.409 . S
C201 H193 0.930 . S
C201 C199 1.419 . S
C201 C202 1.362 . S
C202 H194 0.930 . S
C202 C201 1.362 . S
C202 C205 1.409 . S
C203 H195 0.930 . S
C203 C204 1.355 . S
C203 C205 1.415 . S
C204 C203 1.355 . S
C204 C206 1.419 . S
C205 C200 1.425 . S
C205 C202 1.409 . S
C205 C203 1.415 . S
C206 H196 0.930 . S
C206 C204 1.419 . S
C206 C207 1.362 . S
C207 H197 0.930 . S
C207 C200 1.409 . S
C207 C206 1.362 . S
H208 C214 0.930 . S
H209 C217 0.930 . S
H210 C218 0.930 . S
H211 C219 0.930 . S
H212 C222 0.930 . S
H213 C223 0.930 . S
C214 H208 0.930 . S
C214 C215 1.355 . S
C214 C216 1.415 . S
C215 C214 1.355 . S
C215 C217 1.419 . S
C216 C214 1.415 . S
C216 C221 1.425 . S
C216 C223 1.409 . S
C217 H209 0.930 . S
C217 C215 1.419 . S
C217 C218 1.362 . S
C218 H210 0.930 . S
C218 C217 1.362 . S
C218 C221 1.409 . S
C219 H211 0.930 . S
C219 C220 1.355 . S
C219 C221 1.415 . S
C220 C219 1.355 . S
C220 C222 1.419 . S
C221 C216 1.425 . S
C221 C218 1.409 . S
C221 C219 1.415 . S
C222 H212 0.930 . S
C222 C220 1.419 . S
C222 C223 1.362 . S
C223 H213 0.930 . S
C223 C216 1.409 . S
C223 C222 1.362 . S
H224 C230 0.930 . S
H225 C233 0.930 . S
H226 C234 0.930 . S
H227 C235 0.930 . S
H228 C238 0.930 . S
H229 C239 0.930 . S
C230 H224 0.930 . S
C230 C231 1.355 . S
C230 C232 1.415 . S
C231 C230 1.355 . S
C231 C233 1.419 . S
C232 C230 1.415 . S
C232 C237 1.425 . S
C232 C239 1.409 . S
C233 H225 0.930 . S
C233 C231 1.419 . S
C233 C234 1.362 . S
C234 H226 0.930 . S
C234 C233 1.362 . S
C234 C237 1.409 . S
C235 H227 0.930 . S
C235 C236 1.355 . S
C235 C237 1.415 . S
C236 C235 1.355 . S
C236 C238 1.419 . S
C237 C232 1.425 . S
C237 C234 1.409 . S
C237 C235 1.415 . S
C238 H228 0.930 . S
C238 C236 1.419 . S
C238 C239 1.362 . S
C239 H229 0.930 . S
C239 C232 1.409 . S
C239 C238 1.362 . S
H240 C246 0.930 . S
H241 C249 0.930 . S
H242 C250 0.930 . S
H243 C251 0.930 . S
H244 C254 0.930 . S
H245 C255 0.930 . S
C246 H240 0.930 . S
C246 C247 1.355 . S
C246 C248 1.415 . S
C247 C246 1.355 . S
C247 C249 1.419 . S
C248 C246 1.415 . S
C248 C253 1.425 . S
C248 C255 1.409 . S
C249 H241 0.930 . S
C249 C247 1.419 . S
C249 C250 1.362 . S
C250 H242 0.930 . S
C250 C249 1.362 . S
C250 C253 1.409 . S
C251 H243 0.930 . S
C251 C252 1.355 . S
C251 C253 1.415 . S
C252 C251 1.355 . S
C252 C254 1.419 . S
C253 C248 1.425 . S
C253 C250 1.409 . S
C253 C251 1.415 . S
C254 H244 0.930 . S
C254 C252 1.419 . S
C254 C255 1.362 . S
C255 H245 0.930 . S
C255 C248 1.409 . S
C255 C254 1.362 . S
H256 C262 0.930 . S
H257 C265 0.930 . S
H258 C266 0.930 . S
H259 C267 0.930 . S
H260 C270 0.930 . S
H261 C271 0.930 . S
C262 H256 0.930 . S
C262 C263 1.355 . S
C262 C264 1.415 . S
C263 C262 1.355 . S
C263 C265 1.419 . S
C264 C262 1.415 . S
C264 C269 1.425 . S
C264 C271 1.409 . S
C265 H257 0.930 . S
C265 C263 1.419 . S
C265 C266 1.362 . S
C266 H258 0.930 . S
C266 C265 1.362 . S
C266 C269 1.409 . S
C267 H259 0.930 . S
C267 C268 1.355 . S
C267 C269 1.415 . S
C268 C267 1.355 . S
C268 C270 1.419 . S
C269 C264 1.425 . S
C269 C266 1.409 . S
C269 C267 1.415 . S
C270 H260 0.930 . S
C270 C268 1.419 . S
C270 C271 1.362 . S
C271 H261 0.930 . S
C271 C264 1.409 . S
C271 C270 1.362 . S
H272 C278 0.930 . S
H273 C281 0.930 . S
H274 C282 0.930 . S
H275 C283 0.930 . S
H276 C286 0.930 . S
H277 C287 0.930 . S
C278 H272 0.930 . S
C278 C279 1.355 . S
C278 C280 1.415 . S
C279 C278 1.355 . S
C279 C281 1.419 . S
C280 C278 1.415 . S
C280 C285 1.425 . S
C280 C287 1.409 . S
C281 H273 0.930 . S
C281 C279 1.419 . S
C281 C282 1.362 . S
C282 H274 0.930 . S
C282 C281 1.362 . S
C282 C285 1.409 . S
C283 H275 0.930 . S
C283 C284 1.355 . S
C283 C285 1.415 . S
C284 C283 1.355 . S
C284 C286 1.419 . S
C285 C280 1.425 . S
C285 C282 1.409 . S
C285 C283 1.415 . S
C286 H276 0.930 . S
C286 C284 1.419 . S
C286 C287 1.362 . S
C287 H277 0.930 . S
C287 C280 1.409 . S
C287 C286 1.362 . S
H288 C294 0.930 . S
H289 C297 0.930 . S
H290 C298 0.930 . S
H291 C299 0.930 . S
H292 C302 0.930 . S
H293 C303 0.930 . S
C294 H288 0.930 . S
C294 C295 1.355 . S
C294 C296 1.415 . S
C295 C294 1.355 . S
C295 C297 1.419 . S
C296 C294 1.415 . S
C296 C301 1.425 . S
C296 C303 1.409 . S
C297 H289 0.930 . S
C297 C295 1.419 . S
C297 C298 1.362 . S
C298 H290 0.930 . S
C298 C297 1.362 . S
C298 C301 1.409 . S
C299 H291 0.930 . S
C299 C300 1.355 . S
C299 C301 1.415 . S
C300 C299 1.355 . S
C300 C302 1.419 . S
C301 C296 1.425 . S
C301 C298 1.409 . S
C301 C299 1.415 . S
C302 H292 0.930 . S
C302 C300 1.419 . S
C302 C303 1.362 . S
C303 H293 0.930 . S
C303 C296 1.409 . S
C303 C302 1.362 . S
H304 C310 0.930 . S
H305 C313 0.930 . S
H306 C314 0.930 . S
H307 C315 0.930 . S
H308 C318 0.930 . S
H309 C319 0.930 . S
C310 H304 0.930 . S
C310 C311 1.355 . S
C310 C312 1.415 . S
C311 C310 1.355 . S
C311 C313 1.419 . S
C312 C310 1.415 . S
C312 C317 1.425 1_455 S
C312 C319 1.409 . S
C313 H305 0.930 . S
C313 C311 1.419 . S
C313 C314 1.362 1_455 S
C314 H306 0.930 . S
C314 C313 1.362 1_655 S
C314 C317 1.409 . S
C315 H307 0.930 . S
C315 C316 1.355 . S
C315 C317 1.415 . S
C316 C315 1.355 . S
C316 C318 1.419 . S
C317 C312 1.425 1_655 S
C317 C314 1.409 . S
C317 C315 1.415 . S
C318 H308 0.930 . S
C318 C316 1.419 . S
C318 C319 1.362 1_655 S
C319 H309 0.930 . S
C319 C312 1.409 . S
C319 C318 1.362 1_455 S
H320 C326 0.930 . S
H321 C329 0.930 . S
H322 C330 0.930 . S
H323 C331 0.930 . S
H324 C334 0.930 . S
H325 C335 0.930 . S
C326 H320 0.930 . S
C326 C327 1.355 . S
C326 C328 1.415 . S
C327 C326 1.355 . S
C327 C329 1.419 1_545 S
C328 C326 1.415 . S
C328 C333 1.425 1_545 S
C328 C335 1.409 . S
C329 H321 0.930 . S
C329 C327 1.419 1_565 S
C329 C330 1.362 . S
C330 H322 0.930 . S
C330 C329 1.362 . S
C330 C333 1.409 . S
C331 H323 0.930 . S
C331 C332 1.355 . S
C331 C333 1.415 . S
C332 C331 1.355 . S
C332 C334 1.419 1_565 S
C333 C328 1.425 1_565 S
C333 C330 1.409 . S
C333 C331 1.415 . S
C334 H324 0.930 . S
C334 C332 1.419 1_545 S
C334 C335 1.362 . S
C335 H325 0.930 . S
C335 C328 1.409 . S
C335 C334 1.362 . S
H336 C342 0.930 . S
H337 C345 0.930 . S
H338 C346 0.930 . S
H339 C347 0.930 . S
H340 C350 0.930 . S
H341 C351 0.930 . S
C342 H336 0.930 . S
C342 C343 1.355 . S
C342 C344 1.415 . S
C343 C342 1.355 . S
C343 C345 1.419 . S
C344 C342 1.415 . S
C344 C349 1.425 . S
C344 C351 1.409 . S
C345 H337 0.930 . S
C345 C343 1.419 . S
C345 C346 1.362 . S
C346 H338 0.930 . S
C346 C345 1.362 . S
C346 C349 1.409 . S
C347 H339 0.930 . S
C347 C348 1.355 . S
C347 C349 1.415 . S
C348 C347 1.355 . S
C348 C350 1.419 . S
C349 C344 1.425 . S
C349 C346 1.409 . S
C349 C347 1.415 . S
C350 H340 0.930 . S
C350 C348 1.419 . S
C350 C351 1.362 . S
C351 H341 0.930 . S
C351 C344 1.409 . S
C351 C350 1.362 . S
H352 C358 0.930 1_554 S
H353 C361 0.930 . S
H354 C362 0.930 . S
H355 C363 0.930 . S
H356 C366 0.930 . S
H357 C367 0.930 . S
C358 H352 0.930 1_556 S
C358 C359 1.355 . S
C358 C360 1.415 . S
C359 C358 1.355 . S
C359 C361 1.419 1_455 S
C360 C358 1.415 . S
C360 C365 1.425 1_455 S
C360 C367 1.409 1_556 S
C361 H353 0.930 . S
C361 C359 1.419 1_655 S
C361 C362 1.362 . S
C362 H354 0.930 . S
C362 C361 1.362 . S
C362 C365 1.409 . S
C363 H355 0.930 . S
C363 C364 1.355 . S
C363 C365 1.415 . S
C364 C363 1.355 . S
C364 C366 1.419 1_656 S
C365 C360 1.425 1_655 S
C365 C362 1.409 . S
C365 C363 1.415 . S
C366 H356 0.930 . S
C366 C364 1.419 1_454 S
C366 C367 1.362 . S
C367 H357 0.930 . S
C367 C360 1.409 1_554 S
C367 C366 1.362 . S
H368 C374 0.930 . S
H369 C377 0.930 . S
H370 C378 0.930 . S
H371 C379 0.930 . S
H372 C382 0.930 . S
H373 C383 0.930 . S
C374 H368 0.930 . S
C374 C375 1.355 1_545 S
C374 C376 1.415 . S
C375 C374 1.355 1_565 S
C375 C377 1.419 . S
C376 C374 1.415 . S
C376 C381 1.425 1_545 S
C376 C383 1.409 . S
C377 H369 0.930 . S
C377 C375 1.419 . S
C377 C378 1.362 . S
C378 H370 0.930 . S
C378 C377 1.362 . S
C378 C381 1.409 . S
C379 H371 0.930 . S
C379 C380 1.355 1_565 S
C379 C381 1.415 . S
C380 C379 1.355 1_545 S
C380 C382 1.419 . S
C381 C376 1.425 1_565 S
C381 C378 1.409 . S
C381 C379 1.415 . S
C382 H372 0.930 . S
C382 C380 1.419 . S
C382 C383 1.362 . S
C383 H373 0.930 . S
C383 C376 1.409 . S
C383 C382 1.362 . S
H384 C390 0.930 . S
H385 C393 0.930 . S
H386 C394 0.930 . S
H387 C395 0.930 . S
H388 C398 0.930 . S
H389 C399 0.930 . S
C390 H384 0.930 . S
C390 C391 1.355 . S
C390 C392 1.415 . S
C391 C390 1.355 . S
C391 C393 1.419 . S
C392 C390 1.415 . S
C392 C397 1.425 . S
C392 C399 1.409 . S
C393 H385 0.930 . S
C393 C391 1.419 . S
C393 C394 1.362 . S
C394 H386 0.930 . S
C394 C393 1.362 . S
C394 C397 1.409 . S
C395 H387 0.930 . S
C395 C396 1.355 . S
C395 C397 1.415 . S
C396 C395 1.355 . S
C396 C398 1.419 . S
C397 C392 1.425 . S
C397 C394 1.409 . S
C397 C395 1.415 . S
C398 H388 0.930 . S
C398 C396 1.419 . S
C398 C399 1.362 . S
C399 H389 0.930 . S
C399 C392 1.409 . S
C399 C398 1.362 . S
H400 C406 0.930 . S
H401 C409 0.930 . S
H402 C410 0.930 . S
H403 C411 0.930 . S
H404 C414 0.930 . S
H405 C415 0.930 . S
C406 H400 0.930 . S
C406 C407 1.355 1_455 S
C406 C408 1.415 . S
C407 C406 1.355 1_655 S
C407 C409 1.419 . S
C408 C406 1.415 . S
C408 C413 1.425 . S
C408 C415 1.409 . S
C409 H401 0.930 . S
C409 C407 1.419 . S
C409 C410 1.362 . S
C410 H402 0.930 . S
C410 C409 1.362 . S
C410 C413 1.409 1_655 S
C411 H403 0.930 . S
C411 C412 1.355 . S
C411 C413 1.415 . S
C412 C411 1.355 . S
C412 C414 1.419 . S
C413 C408 1.425 . S
C413 C410 1.409 1_455 S
C413 C411 1.415 . S
C414 H404 0.930 . S
C414 C412 1.419 . S
C414 C415 1.362 . S
C415 H405 0.930 . S
C415 C408 1.409 . S
C415 C414 1.362 . S
H416 C422 0.930 . S
H417 C425 0.930 . S
H418 C426 0.930 . S
H419 C427 0.930 . S
H420 C430 0.930 . S
H421 C431 0.930 1_565 S
C422 H416 0.930 . S
C422 C423 1.355 . S
C422 C424 1.415 1_565 S
C423 C422 1.355 . S
C423 C425 1.419 1_565 S
C424 C422 1.415 1_545 S
C424 C429 1.425 . S
C424 C431 1.409 . S
C425 H417 0.930 . S
C425 C423 1.419 1_545 S
C425 C426 1.362 . S
C426 H418 0.930 . S
C426 C425 1.362 . S
C426 C429 1.409 . S
C427 H419 0.930 . S
C427 C428 1.355 . S
C427 C429 1.415 . S
C428 C427 1.355 . S
C428 C430 1.419 . S
C429 C424 1.425 . S
C429 C426 1.409 . S
C429 C427 1.415 . S
C430 H420 0.930 . S
C430 C428 1.419 . S
C430 C431 1.362 . S
C431 H421 0.930 1_545 S
C431 C424 1.409 . S
C431 C430 1.362 . S
H432 C438 0.930 . S
H433 C441 0.930 . S
H434 C442 0.930 . S
H435 C443 0.930 . S
H436 C446 0.930 . S
H437 C447 0.930 . S
C438 H432 0.930 . S
C438 C439 1.355 . S
C438 C440 1.415 . S
C439 C438 1.355 . S
C439 C441 1.419 . S
C440 C438 1.415 . S
C440 C445 1.425 . S
C440 C447 1.409 . S
C441 H433 0.930 . S
C441 C439 1.419 . S
C441 C442 1.362 . S
C442 H434 0.930 . S
C442 C441 1.362 . S
C442 C445 1.409 . S
C443 H435 0.930 . S
C443 C444 1.355 . S
C443 C445 1.415 . S
C444 C443 1.355 . S
C444 C446 1.419 . S
C445 C440 1.425 . S
C445 C442 1.409 . S
C445 C443 1.415 . S
C446 H436 0.930 . S
C446 C444 1.419 . S
C446 C447 1.362 . S
C447 H437 0.930 . S
C447 C440 1.409 . S
C447 C446 1.362 . S
H448 C454 0.930 . S
H449 C457 0.930 . S
H450 C458 0.930 . S
H451 C459 0.930 . S
H452 C462 0.930 . S
H453 C463 0.930 1_455 S
C454 H448 0.930 . S
C454 C455 1.355 . S
C454 C456 1.415 1_455 S
C455 C454 1.355 . S
C455 C457 1.419 1_455 S
C456 C454 1.415 1_655 S
C456 C461 1.425 . S
C456 C463 1.409 . S
C457 H449 0.930 . S
C457 C455 1.419 1_655 S
C457 C458 1.362 . S
C458 H450 0.930 . S
C458 C457 1.362 . S
C458 C461 1.409 . S
C459 H451 0.930 . S
C459 C460 1.355 . S
C459 C461 1.415 . S
C460 C459 1.355 . S
C460 C462 1.419 . S
C461 C456 1.425 . S
C461 C458 1.409 . S
C461 C459 1.415 . S
C462 H452 0.930 . S
C462 C460 1.419 . S
C462 C463 1.362 . S
C463 H453 0.930 1_655 S
C463 C456 1.409 . S
C463 C462 1.362 . S
H464 C470 0.930 1_545 S
H465 C473 0.930 . S
H466 C474 0.930 . S
H467 C475 0.930 . S
H468 C478 0.930 . S
H469 C479 0.930 . S
C470 H464 0.930 1_565 S
C470 C471 1.355 1_565 S
C470 C472 1.415 . S
C471 C470 1.355 1_545 S
C471 C473 1.419 1_545 S
C472 C470 1.415 . S
C472 C477 1.425 . S
C472 C479 1.409 . S
C473 H465 0.930 . S
C473 C471 1.419 1_565 S
C473 C474 1.362 . S
C474 H466 0.930 . S
C474 C473 1.362 . S
C474 C477 1.409 . S
C475 H467 0.930 . S
C475 C476 1.355 . S
C475 C477 1.415 . S
C476 C475 1.355 . S
C476 C478 1.419 . S
C477 C472 1.425 . S
C477 C474 1.409 . S
C477 C475 1.415 . S
C478 H468 0.930 . S
C478 C476 1.419 . S
C478 C479 1.362 . S
C479 H469 0.930 . S
C479 C472 1.409 . S
C479 C478 1.362 . S
C199 C157 0.766 . S
C204 N18 0.749 . S
C215 C164 0.801 . S
C220 N45 0.751 . S
C231 C29 0.736 . S
C236 N82 0.784 . S
C247 C36 0.735 . S
C252 N114 0.792 . S
C263 C93 0.800 . S
C268 N146 0.741 . S
C279 C125 0.735 . S
C284 N173 0.791 . S
C295 C6 1.650 . S
C300 C102 1.641 . S
C311 C134 1.698 . S
C316 C34 1.681 . S
C327 C162 1.701 . S
C332 C70 1.706 . S
C343 C68 1.615 . S
C348 C189 1.623 . S
C359 C4 1.646 . S
C364 C100 1.643 . S
C375 C132 1.563 . S
C380 C61 1.561 . S
C391 C166 1.091 . S
C396 N13 1.052 . S
C407 N50 1.014 . S
C412 C2 1.056 . S
C423 N77 1.093 . S
C428 C38 1.063 . S
C439 C66 1.041 . S
C444 N109 1.038 . S
C455 N141 1.084 . S
C460 C98 1.084 . S
C471 N178 1.073 . S
C476 C130 1.044 . S
