# Generated by pormake.
# Topology wkj, (6)-cn, num edge types: 1
# Building blocks:
#     Node 0, Type 0, BuildingBlock: GEDQOX_clean_sbu_0, # of connection points: 6
#     Node 1, Type 0, BuildingBlock: GEDQOX_clean_sbu_0, # of connection points: 6
#     Node 2, Type 0, BuildingBlock: GEDQOX_clean_sbu_0, # of connection points: 6
#     Node 3, Type 0, BuildingBlock: GEDQOX_clean_sbu_0, # of connection points: 6
#     Node 4, Type 0, BuildingBlock: GEDQOX_clean_sbu_0, # of connection points: 6
#     Node 5, Type 0, BuildingBlock: GEDQOX_clean_sbu_0, # of connection points: 6
#     Node 6, Type 0, BuildingBlock: GEDQOX_clean_sbu_0, # of connection points: 6
#     Node 7, Type 0, BuildingBlock: GEDQOX_clean_sbu_0, # of connection points: 6
#     Node 8, Type 0, BuildingBlock: GEDQOX_clean_sbu_0, # of connection points: 6
#     Node 9, Type 0, BuildingBlock: GEDQOX_clean_sbu_0, # of connection points: 6
#     Node 10, Type 0, BuildingBlock: GEDQOX_clean_sbu_0, # of connection points: 6
#     Node 11, Type 0, BuildingBlock: GEDQOX_clean_sbu_0, # of connection points: 6
#     Edge 12, Type (0, 0), BuildingBlock: UVAHIK_clean_linker_0, # of connection points: 2
#     Edge 13, Type (0, 0), BuildingBlock: UVAHIK_clean_linker_0, # of connection points: 2
#     Edge 14, Type (0, 0), BuildingBlock: UVAHIK_clean_linker_0, # of connection points: 2
#     Edge 15, Type (0, 0), BuildingBlock: UVAHIK_clean_linker_0, # of connection points: 2
#     Edge 16, Type (0, 0), BuildingBlock: UVAHIK_clean_linker_0, # of connection points: 2
#     Edge 17, Type (0, 0), BuildingBlock: UVAHIK_clean_linker_0, # of connection points: 2
#     Edge 18, Type (0, 0), BuildingBlock: UVAHIK_clean_linker_0, # of connection points: 2
#     Edge 19, Type (0, 0), BuildingBlock: UVAHIK_clean_linker_0, # of connection points: 2
#     Edge 20, Type (0, 0), BuildingBlock: UVAHIK_clean_linker_0, # of connection points: 2
#     Edge 21, Type (0, 0), BuildingBlock: UVAHIK_clean_linker_0, # of connection points: 2
#     Edge 22, Type (0, 0), BuildingBlock: UVAHIK_clean_linker_0, # of connection points: 2
#     Edge 23, Type (0, 0), BuildingBlock: UVAHIK_clean_linker_0, # of connection points: 2
#     Edge 24, Type (0, 0), BuildingBlock: UVAHIK_clean_linker_0, # of connection points: 2
#     Edge 25, Type (0, 0), BuildingBlock: UVAHIK_clean_linker_0, # of connection points: 2
#     Edge 26, Type (0, 0), BuildingBlock: UVAHIK_clean_linker_0, # of connection points: 2
#     Edge 27, Type (0, 0), BuildingBlock: UVAHIK_clean_linker_0, # of connection points: 2
#     Edge 28, Type (0, 0), BuildingBlock: UVAHIK_clean_linker_0, # of connection points: 2
#     Edge 29, Type (0, 0), BuildingBlock: UVAHIK_clean_linker_0, # of connection points: 2
#     Edge 30, Type (0, 0), BuildingBlock: UVAHIK_clean_linker_0, # of connection points: 2
#     Edge 31, Type (0, 0), BuildingBlock: UVAHIK_clean_linker_0, # of connection points: 2
#     Edge 32, Type (0, 0), BuildingBlock: UVAHIK_clean_linker_0, # of connection points: 2
#     Edge 33, Type (0, 0), BuildingBlock: UVAHIK_clean_linker_0, # of connection points: 2
#     Edge 34, Type (0, 0), BuildingBlock: UVAHIK_clean_linker_0, # of connection points: 2
#     Edge 35, Type (0, 0), BuildingBlock: UVAHIK_clean_linker_0, # of connection points: 2
#     Edge 36, Type (0, 0), BuildingBlock: UVAHIK_clean_linker_0, # of connection points: 2
#     Edge 37, Type (0, 0), BuildingBlock: UVAHIK_clean_linker_0, # of connection points: 2
#     Edge 38, Type (0, 0), BuildingBlock: UVAHIK_clean_linker_0, # of connection points: 2
#     Edge 39, Type (0, 0), BuildingBlock: UVAHIK_clean_linker_0, # of connection points: 2
#     Edge 40, Type (0, 0), BuildingBlock: UVAHIK_clean_linker_0, # of connection points: 2
#     Edge 41, Type (0, 0), BuildingBlock: UVAHIK_clean_linker_0, # of connection points: 2
#     Edge 42, Type (0, 0), BuildingBlock: UVAHIK_clean_linker_0, # of connection points: 2
#     Edge 43, Type (0, 0), BuildingBlock: UVAHIK_clean_linker_0, # of connection points: 2
#     Edge 44, Type (0, 0), BuildingBlock: UVAHIK_clean_linker_0, # of connection points: 2
#     Edge 45, Type (0, 0), BuildingBlock: UVAHIK_clean_linker_0, # of connection points: 2
#     Edge 46, Type (0, 0), BuildingBlock: UVAHIK_clean_linker_0, # of connection points: 2
#     Edge 47, Type (0, 0), BuildingBlock: UVAHIK_clean_linker_0, # of connection points: 2
# Relax obj value: 0.543
# Max RMSD: 0.169
# Mean RMSD: 0.169
data_MOF--net-wkj--node1-GEDQOX_clean_sbu_0--edge1-UVAHIK_clean_linker_0
_symmetry_space_group_name_H-M    P1
_symmetry_Int_Tables_number       1
_symmetry_cell_setting            triclinic
loop_
_symmetry_equiv_pos_as_xyz
'x, y, z'
_cell_length_a     60.252212
_cell_length_b     60.056847
_cell_length_c     38.355708
_cell_angle_alpha  89.763037
_cell_angle_beta   90.461778
_cell_angle_gamma 120.03671
loop_
_atom_site_label
_atom_site_type_symbol
_atom_site_fract_x
_atom_site_fract_y
_atom_site_fract_z
_atom_type_partial_charge
Nd0 Nd 0.49879 0.11314 0.35657 0.0
Nd1 Nd 0.44752 0.08998 0.33591 0.0
C2 C 0.5486 0.1302 0.36141 0.0
C3 C 0.56842 0.12589 0.37672 0.0
C4 C 0.56327 0.10925 0.40505 0.0
C5 C 0.58325 0.10744 0.42102 0.0
C6 C 0.60855 0.12231 0.40887 0.0
C7 C 0.61321 0.13776 0.37917 0.0
C8 C 0.59326 0.1395 0.36323 0.0
C9 C 0.4829 0.14933 0.34561 0.0
C10 C 0.46036 0.08369 0.42186 0.0
C11 C 0.39945 0.07929 0.329 0.0
C12 C 0.38083 0.07883 0.30365 0.0
C13 C 0.38708 0.09903 0.28011 0.0
C14 C 0.36941 0.09673 0.25445 0.0
C15 C 0.34535 0.07409 0.25173 0.0
C16 C 0.33893 0.05444 0.27644 0.0
C17 C 0.35646 0.05687 0.30216 0.0
C18 C 0.46123 0.05368 0.33555 0.0
C19 C 0.48733 0.10354 0.27086 0.0
O20 O 0.53373 0.1137 0.33793 0.0
O21 O 0.53644 0.13761 0.38224 0.0
O22 O 0.49651 0.14968 0.37215 0.0
O23 O 0.47817 0.13044 0.32677 0.0
O24 O 0.48457 0.09472 0.41182 0.0
O25 O 0.44305 0.08156 0.39797 0.0
O26 O 0.41802 0.10167 0.33965 0.0
O27 O 0.40683 0.06249 0.32397 0.0
O28 O 0.45032 0.05828 0.30937 0.0
O29 O 0.46775 0.07065 0.35927 0.0
O30 O 0.46338 0.09748 0.27827 0.0
O31 O 0.50355 0.10826 0.29701 0.0
H32 H 0.54408 0.09847 0.41554 0.0
H33 H 0.57914 0.09566 0.44417 0.0
H34 H 0.63248 0.14932 0.36922 0.0
H35 H 0.59741 0.15222 0.34107 0.0
H36 H 0.40577 0.11624 0.28091 0.0
H37 H 0.37487 0.11237 0.23613 0.0
H38 H 0.32088 0.03653 0.2749 0.0
H39 H 0.35129 0.04109 0.32018 0.0
Nd40 Nd 0.42406 0.52114 0.68743 0.0
Nd41 Nd 0.39095 0.46949 0.66774 0.0
C42 C 0.46351 0.56804 0.6951 0.0
C43 C 0.48749 0.57621 0.71418 0.0
C44 C 0.49348 0.55748 0.72477 0.0
C45 C 0.51263 0.56336 0.74946 0.0
C46 C 0.52607 0.58811 0.76427 0.0
C47 C 0.52216 0.60764 0.75017 0.0
C48 C 0.50269 0.60162 0.72555 0.0
C49 C 0.37323 0.50979 0.67609 0.0
C50 C 0.41311 0.48151 0.75268 0.0
C51 C 0.34862 0.42451 0.66012 0.0
C52 C 0.32992 0.412 0.63192 0.0
C53 C 0.30832 0.38769 0.63691 0.0
C54 C 0.29232 0.3744 0.60865 0.0
C55 C 0.29792 0.38522 0.57498 0.0
C56 C 0.31896 0.41026 0.57078 0.0
C57 C 0.33471 0.42352 0.59899 0.0
C58 C 0.43912 0.47813 0.66526 0.0
C59 C 0.4198 0.50925 0.6025 0.0
O60 O 0.46022 0.55374 0.66783 0.0
O61 O 0.44303 0.55884 0.71458 0.0
O62 O 0.38736 0.52379 0.70187 0.0
O63 O 0.38625 0.50328 0.65813 0.0
O64 O 0.42683 0.50567 0.74233 0.0
O65 O 0.39684 0.46434 0.7294 0.0
O66 O 0.34899 0.4444 0.67463 0.0
O67 O 0.37157 0.42832 0.65378 0.0
O68 O 0.42252 0.46754 0.6401 0.0
O69 O 0.43075 0.48667 0.68917 0.0
O70 O 0.40042 0.48594 0.61025 0.0
O71 O 0.43282 0.5252 0.62814 0.0
H72 H 0.48196 0.53773 0.71604 0.0
H73 H 0.51475 0.54765 0.7595 0.0
H74 H 0.53258 0.62704 0.76037 0.0
H75 H 0.49846 0.61636 0.71721 0.0
H76 H 0.30433 0.37862 0.66234 0.0
H77 H 0.27613 0.35535 0.61298 0.0
H78 H 0.32433 0.41916 0.54532 0.0
H79 H 0.35135 0.44232 0.59474 0.0
Nd80 Nd 0.91892 0.41655 1.02686 0.0
Nd81 Nd 0.94277 0.38951 1.00781 0.0
C82 C 0.89396 0.44161 1.03762 0.0
C83 C 0.86859 0.43137 1.05364 0.0
C84 C 0.86579 0.44488 1.08132 0.0
C85 C 0.84672 0.43177 0.10611 0.0
C86 C 0.83042 0.40498 0.10354 0.0
C87 C 0.83085 0.39231 1.07313 0.0
C88 C 0.84987 0.40543 1.04831 0.0
C89 C 0.88431 0.36332 1.02083 0.0
C90 C 0.95151 0.41162 1.09181 0.0
C91 C 0.95401 0.35241 1.0005 0.0
C92 C 0.95227 0.33359 0.97454 0.0
C93 C 0.92935 0.31738 0.95661 0.0
C94 C 0.92915 0.30198 0.92923 0.0
C95 C 0.95187 0.30256 0.91935 0.0
C96 C 0.97438 0.31763 0.93884 0.0
C97 C 0.97454 0.33296 0.96617 0.0
C98 C 0.97842 0.43966 1.00287 0.0
C99 C 0.9296 0.4171 0.94346 0.0
O100 O 0.91145 0.44268 1.0589 0.0
O101 O 0.89466 0.43228 1.00725 0.0
O102 O 0.88536 0.37695 1.04754 0.0
O103 O 0.90172 0.3775 1.00024 0.0
O104 O 0.93908 0.42328 1.08102 0.0
O105 O 0.95348 0.39574 1.06928 0.0
O106 O 0.93273 0.34879 1.0146 0.0
O107 O 0.96991 0.37651 0.99318 0.0
O108 O 0.97334 0.42295 0.97832 0.0
O109 O 0.96209 0.43022 1.02737 0.0
O110 O 0.93195 0.39669 0.95107 0.0
O111 O 0.92888 0.43101 0.96962 0.0
H112 H 0.88002 0.46485 1.08592 0.0
H113 H 0.84651 0.44202 0.12917 0.0
H114 H 0.81854 0.37169 1.07048 0.0
H115 H 0.85157 0.39452 1.02711 0.0
H116 H 0.91181 0.31716 0.96292 0.0
H117 H 0.91144 0.29035 0.91497 0.0
H118 H 0.99231 0.31885 0.93169 0.0
H119 H 0.99239 0.34521 0.97984 0.0
Nd120 Nd 0.51762 0.91376 0.36171 0.0
Nd121 Nd 0.56239 0.95807 0.33773 0.0
C122 C 0.47047 0.87483 0.37083 0.0
C123 C 0.44618 0.86574 0.38894 0.0
C124 C 0.44508 0.8763 0.42091 0.0
C125 C 0.42173 0.8665 0.43818 0.0
C126 C 0.39944 0.84573 0.424 0.0
C127 C 0.40049 0.83538 0.39185 0.0
C128 C 0.42375 0.84556 0.3742 0.0
C129 C 0.55298 0.89959 0.34168 0.0
C130 C 0.55327 0.9546 0.42533 0.0
C131 C 0.6116 0.9897 0.32659 0.0
C132 C 0.63065 0.99254 0.30074 0.0
C133 C 0.65536 0.99886 0.31189 0.0
C134 C 0.6731 0.99942 0.28813 0.0
C135 C 0.66635 0.99363 0.2528 0.0
C136 C 0.64162 0.98771 0.24176 0.0
C137 C 0.62388 0.98696 0.26553 0.0
C138 C 0.52181 0.96579 0.35104 0.0
C139 C 0.52085 0.93247 0.27639 0.0
O140 O 0.47639 0.89268 0.34738 0.0
O141 O 0.4902 0.87804 0.38926 0.0
O142 O 0.54144 0.89423 0.37141 0.0
O143 O 0.54837 0.91535 0.32543 0.0
O144 O 0.53038 0.93421 0.41766 0.0
O145 O 0.56934 0.96585 0.3989 0.0
O146 O 0.60289 0.96905 0.34597 0.0
O147 O 0.59368 0.99467 0.31643 0.0
O148 O 0.53658 0.97584 0.32409 0.0
O149 O 0.53037 0.95461 0.36941 0.0
O150 O 0.54557 0.9483 0.28197 0.0
O151 O 0.50634 0.91851 0.30309 0.0
H152 H 0.46226 0.89186 0.43261 0.0
H153 H 0.42125 0.87439 0.46334 0.0
H154 H 0.38353 0.81908 0.38091 0.0
H155 H 0.42439 0.83721 0.3495 0.0
H156 H 0.66076 1.00289 0.33914 0.0
H157 H 0.69189 1.00392 0.29751 0.0
H158 H 0.63594 0.98378 0.2146 0.0
H159 H 0.60482 0.98176 0.25643 0.0
Nd160 Nd 0.63522 0.52183 0.69866 0.0
Nd161 Nd 0.63308 0.56569 0.67498 0.0
C162 C 0.63145 0.4764 0.70923 0.0
C163 C 0.62163 0.45436 0.73279 0.0
C164 C 0.61049 0.45446 0.76462 0.0
C165 C 0.60573 0.43556 0.78949 0.0
C166 C 0.61233 0.41653 0.78293 0.0
C167 C 0.62179 0.41554 0.74998 0.0
C168 C 0.62643 0.43438 0.7251 0.0
C169 C 0.68387 0.56001 0.67992 0.0
C170 C 0.6278 0.55579 0.76233 0.0
C171 C 0.64702 0.61425 0.66326 0.0
C172 C 0.66234 0.63386 0.63732 0.0
C173 C 0.68046 0.63157 0.61728 0.0
C174 C 0.69513 0.65041 0.59279 0.0
C175 C 0.69174 0.67174 0.5877 0.0
C176 C 0.67376 0.67407 0.60826 0.0
C177 C 0.6592 0.65527 0.63291 0.0
C178 C 0.58595 0.52284 0.68712 0.0
C179 C 0.62141 0.52573 0.61277 0.0
O180 O 0.61491 0.47944 0.69067 0.0
O181 O 0.65008 0.49801 0.72144 0.0
O182 O 0.67786 0.54879 0.71002 0.0
O183 O 0.6634 0.55407 0.66304 0.0
O184 O 0.62632 0.53335 0.7546 0.0
O185 O 0.6323 0.57207 0.73608 0.0
O186 O 0.6599 0.60697 0.68339 0.0
O187 O 0.62504 0.5951 0.65251 0.0
O188 O 0.59007 0.53811 0.66073 0.0
O189 O 0.60545 0.5321 0.70602 0.0
O190 O 0.62918 0.55017 0.61905 0.0
O191 O 0.62058 0.5108 0.63934 0.0
H192 H 0.60664 0.46979 0.77083 0.0
H193 H 0.59798 0.43652 0.81446 0.0
H194 H 0.62721 0.40127 0.74422 0.0
H195 H 0.63512 0.43416 0.70057 0.0
H196 H 0.6832 0.61516 0.6205 0.0
H197 H 0.70897 0.64816 0.57763 0.0
H198 H 0.67034 0.68999 0.60456 0.0
H199 H 0.64531 0.6573 0.64828 0.0
Nd200 Nd 0.12685 0.6255 1.0327 0.0
Nd201 Nd 0.08158 0.62564 1.00737 0.0
C202 C 0.16631 0.61855 1.04488 0.0
C203 C 0.1747 0.60339 1.06522 0.0
C204 C 0.16107 0.58927 1.0945 0.0
C205 C 0.1706 0.57656 0.11494 0.0
C206 C 0.19413 0.57832 0.10672 0.0
C207 C 0.20732 0.59188 1.07683 0.0
C208 C 0.19755 0.60417 1.05608 0.0
C209 C 0.13854 0.6752 1.0156 0.0
C210 C 0.08399 0.61656 1.094 0.0
C211 C 0.04891 0.64174 0.99421 0.0
C212 C 0.04695 0.65843 0.96787 0.0
C213 C 0.06883 0.67657 0.94994 0.0
C214 C 0.06687 0.69214 0.92444 0.0
C215 C 0.04294 0.68964 0.91614 0.0
C216 C 0.02116 0.67179 0.93477 0.0
C217 C 0.02319 0.65633 0.96047 0.0
C218 C 0.076 0.5775 1.01554 0.0
C219 C 0.11176 0.61573 0.94625 0.0
O220 O 0.14941 0.60658 1.02026 0.0
O221 O 0.16221 0.63487 1.06209 0.0
O222 O 0.14449 0.66853 1.04479 0.0
O223 O 0.12397 0.65511 0.99829 0.0
O224 O 0.10415 0.61389 1.08647 0.0
O225 O 0.07365 0.62335 1.06823 0.0
O226 O 0.06833 0.65334 1.01586 0.0
O227 O 0.04533 0.61953 0.9832 0.0
O228 O 0.06539 0.58314 0.98987 0.0
O229 O 0.08608 0.59606 1.03615 0.0
O230 O 0.09554 0.62403 0.95216 0.0
O231 O 0.12467 0.61324 0.97305 0.0
H232 H 0.1434 0.58854 0.1019 0.0
H233 H 0.16028 0.5665 0.13817 0.0
H234 H 0.22553 0.59355 1.0701 0.0
H235 H 0.20827 0.61502 1.0335 0.0
H236 H 0.08739 0.67852 0.95543 0.0
H237 H 0.08404 0.70586 0.91083 0.0
H238 H 1.00239 0.66907 0.92862 0.0
H239 H 1.00614 0.64242 0.97415 0.0
Nd240 Nd 0.90403 0.50005 0.49907 0.0
Nd241 Nd 0.94687 0.54814 0.52037 0.0
C242 C 0.86643 0.45196 0.49004 0.0
C243 C 0.85557 0.42894 0.46774 0.0
C244 C 0.86885 0.41585 0.46044 0.0
C245 C 0.85779 0.39423 0.43867 0.0
C246 C 0.83333 0.38543 0.42381 0.0
C247 C 0.81987 0.39818 0.43228 0.0
C248 C 0.83083 0.41958 0.4541 0.0
C249 C 0.88904 0.53616 0.51243 0.0
C250 C 0.94392 0.53513 0.43518 0.0
C251 C 0.97544 0.59842 0.52848 0.0
C252 C 0.97615 0.61797 0.55202 0.0
C253 C 0.95354 0.61475 0.56694 0.0
C254 C 0.95446 0.63291 0.59036 0.0
C255 C 0.97806 0.65455 0.59945 0.0
C256 C 1.00058 0.65807 0.58358 0.0
C257 C 0.9996 0.6399 0.56004 0.0
C258 C 0.95963 0.51039 0.51751 0.0
C259 C 0.92071 0.5095 0.58487 0.0
O260 O 0.88719 0.45811 0.50809 0.0
O261 O 0.86588 0.47196 0.4777 0.0
O262 O 0.88344 0.52246 0.48431 0.0
O263 O 0.9044 0.53238 0.53081 0.0
O264 O 0.92497 0.51168 0.44375 0.0
O265 O 0.95368 0.5528 0.45998 0.0
O266 O 0.95561 0.58749 0.50742 0.0
O267 O 0.9815 0.58212 0.54213 0.0
O268 O 0.96974 0.52949 0.53933 0.0
O269 O 0.9455 0.51313 0.49544 0.0
O270 O 0.936 0.53403 0.57718 0.0
O271 O 0.90715 0.49316 0.55944 0.0
H272 H 0.88785 0.42248 0.47108 0.0
H273 H 0.86858 0.38472 0.43295 0.0
H274 H 0.80127 0.3924 0.42085 0.0
H275 H 0.82011 0.42921 0.45975 0.0
H276 H 0.93522 0.598 0.56087 0.0
H277 H 0.93677 0.62976 0.60192 0.0
H278 H 0.0191 0.67429 0.59046 0.0
H279 H 0.01722 0.64268 0.54868 0.0
Nd280 Nd 0.40951 0.92765 0.8404 0.0
Nd281 Nd 0.38599 0.95396 0.8646 0.0
C282 C 0.43297 0.90284 0.8205 0.0
C283 C 0.42571 0.88614 0.78939 0.0
C284 C 0.42601 0.89654 0.75636 0.0
C285 C 0.41081 0.88067 0.7294 0.0
C286 C 0.39536 0.85414 0.73477 0.0
C287 C 0.39721 0.84326 0.76626 0.0
C288 C 0.41236 0.85922 0.7935 0.0
C289 C 0.35701 0.89518 0.85161 0.0
C290 C 0.39794 0.95689 0.77667 0.0
C291 C 0.35132 0.96793 0.87513 0.0
C292 C 0.33281 0.96731 0.90026 0.0
C293 C 0.31996 0.9469 0.92376 0.0
C294 C 0.30364 0.94784 0.94874 0.0
C295 C 0.30018 0.96932 0.95077 0.0
C296 C 0.31257 0.98928 0.92632 0.0
C297 C 0.32865 0.98821 0.90129 0.0
C298 C 0.43623 0.98861 0.85958 0.0
C299 C 0.41501 0.93951 0.92546 0.0
O300 O 0.44243 0.92744 0.81491 0.0
O301 O 0.41576 0.89434 0.84498 0.0
O302 O 0.36851 0.89548 0.82302 0.0
O303 O 0.37278 0.91242 0.87164 0.0
O304 O 0.40731 0.94167 0.78407 0.0
O305 O 0.38801 0.96351 0.80305 0.0
O306 O 0.34608 0.94629 0.86008 0.0
O307 O 0.37554 0.98231 0.88331 0.0
O308 O 0.42309 0.9847 0.88788 0.0
O309 O 0.42374 0.97086 0.83738 0.0
O310 O 0.39616 0.94466 0.92023 0.0
O311 O 0.42578 0.9357 0.89777 0.0
H312 H 0.43614 0.91713 0.75205 0.0
H313 H 0.40988 0.88932 0.70497 0.0
H314 H 0.38553 0.82275 0.77066 0.0
H315 H 0.41179 0.85071 0.81868 0.0
H316 H 0.32295 0.93059 0.92335 0.0
H317 H 0.29423 0.93203 0.96695 0.0
H318 H 0.31087 1.00638 0.92745 0.0
H319 H 0.33847 1.00415 0.88333 0.0
Nd320 Nd 0.52869 0.4201 0.16574 0.0
Nd321 Nd 0.48688 0.42511 0.18875 0.0
C322 C 0.57159 0.41983 0.15212 0.0
C323 C 0.57687 0.40358 0.12906 0.0
C324 C 0.56462 0.39598 1.09652 0.0
C325 C 0.56812 0.37911 1.07565 0.0
C326 C 0.58359 0.369 1.08702 0.0
C327 C 0.59574 0.37653 0.1198 0.0
C328 C 0.59237 0.39369 0.14067 0.0
C329 C 0.48813 0.37197 0.18055 0.0
C330 C 0.49344 0.42653 0.10216 0.0
C331 C 0.43933 0.41414 0.20033 0.0
C332 C 0.41896 0.40071 0.22627 0.0
C333 C 0.39506 0.38043 0.21542 0.0
C334 C 0.37546 0.36715 0.2395 0.0
C335 C 0.37938 0.37402 0.27493 0.0
C336 C 0.40336 0.3945 0.28566 0.0
C337 C 0.42299 0.40762 0.26163 0.0
C338 C 0.53094 0.47216 0.18107 0.0
C339 C 0.52474 0.43238 0.25174 0.0
O340 O 0.56541 0.43557 0.13716 0.0
O341 O 0.55698 0.40788 0.17851 0.0
O342 O 0.50027 0.37826 0.15112 0.0
O343 O 0.49493 0.39209 0.19855 0.0
O344 O 0.51396 0.42408 0.10882 0.0
O345 O 0.47982 0.42658 0.12896 0.0
O346 O 0.4451 0.39955 0.18168 0.0
O347 O 0.45944 0.43598 0.20951 0.0
O348 O 0.51423 0.46685 0.20553 0.0
O349 O 0.52323 0.45358 0.16029 0.0
O350 O 0.50056 0.42513 0.24499 0.0
O351 O 0.53977 0.43422 0.22513 0.0
H352 H 0.55222 0.403 1.08719 0.0
H353 H 0.55902 0.37443 1.0502 0.0
H354 H 0.60771 0.3691 0.12941 0.0
H355 H 0.60161 0.39901 0.16603 0.0
H356 H 0.39157 0.37477 0.18824 0.0
H357 H 0.35736 0.35134 0.2304 0.0
H358 H 0.40691 0.40068 0.31261 0.0
H359 H 0.44125 0.42318 0.27077 0.0
Nd360 Nd 0.13004 0.53372 0.50113 0.0
Nd361 Nd 0.08841 0.48676 0.52426 0.0
C362 C 0.16916 0.57974 0.48659 0.0
C363 C 0.19403 0.58585 0.47172 0.0
C364 C 0.20311 0.60187 0.44244 0.0
C365 C 0.2213 0.60112 0.42087 0.0
C366 C 0.23062 0.58426 0.42825 0.0
C367 C 0.22376 0.5706 0.45987 0.0
C368 C 0.20552 0.57129 0.48136 0.0
C369 C 0.14658 0.49865 0.5134 0.0
C370 C 0.08916 0.49684 0.43856 0.0
C371 C 0.05787 0.43699 0.53491 0.0
C372 C 0.05288 0.41675 0.5603 0.0
C373 C 0.07222 0.4186 0.58275 0.0
C374 C 0.06686 0.39904 0.60685 0.0
C375 C 0.04206 0.37744 0.60897 0.0
C376 C 0.02289 0.37566 0.58605 0.0
C377 C 0.02829 0.39514 0.56192 0.0
C378 C 0.07644 0.52513 0.52579 0.0
C379 C 0.11636 0.52629 0.58699 0.0
O380 O 0.14969 0.5672 0.46558 0.0
O381 O 0.16433 0.5702 0.51801 0.0
O382 O 0.15046 0.51159 0.4848 0.0
O383 O 0.13124 0.50188 0.53209 0.0
O384 O 0.10895 0.52005 0.44585 0.0
O385 O 0.07922 0.48022 0.46444 0.0
O386 O 0.07947 0.44658 0.51784 0.0
O387 O 0.05207 0.45436 0.54432 0.0
O388 O 0.06779 0.50616 0.54776 0.0
O389 O 0.08874 0.52219 0.5014 0.0
O390 O 0.10279 0.5014 0.58013 0.0
O391 O 0.12681 0.5427 0.56051 0.0
H392 H 0.19441 0.6131 0.43443 0.0
H393 H 0.22597 0.61179 0.39663 0.0
H394 H 0.23089 0.55776 0.46656 0.0
H395 H 0.19886 0.55873 0.50388 0.0
H396 H 0.09136 0.43518 0.58177 0.0
H397 H 0.08209 0.40091 0.62396 0.0
H398 H 1.00348 0.35959 0.58742 0.0
H399 H 1.01316 0.39348 0.54474 0.0
Nd400 Nd 0.61935 0.12825 0.83862 0.0
Nd401 Nd 0.61392 0.08124 0.86471 0.0
C402 C 0.62127 0.1705 0.81517 0.0
C403 C 0.62871 0.18028 0.77926 0.0
C404 C 0.61379 0.16506 0.7511 0.0
C405 C 0.62521 0.16664 0.71908 0.0
C406 C 0.65148 0.1837 0.71461 0.0
C407 C 0.66548 0.20156 0.74079 0.0
C408 C 0.65405 0.20001 0.77297 0.0
C409 C 0.66611 0.13618 0.8621 0.0
C410 C 0.61533 0.08696 0.77657 0.0
C411 C 0.62707 0.04642 0.87929 0.0
C412 C 0.64292 0.0426 0.90528 0.0
C413 C 0.66245 0.03821 0.89376 0.0
C414 C 0.67966 0.03729 0.91752 0.0
C415 C 0.67753 0.0406 0.95333 0.0
C416 C 0.65738 0.0442 0.96484 0.0
C417 C 0.64036 0.0454 0.94104 0.0
C418 C 0.56856 0.07814 0.84436 0.0
C419 C 0.59864 0.1099 0.92208 0.0
O420 O 0.59974 0.14886 0.81877 0.0
O421 O 0.63965 0.17073 0.83362 0.0
O422 O 0.66157 0.14063 0.83047 0.0
O423 O 0.64491 0.12289 0.87777 0.0
O424 O 0.61667 0.10952 0.78257 0.0
O425 O 0.61489 0.07326 0.80421 0.0
O426 O 0.63996 0.0658 0.85815 0.0
O427 O 0.60534 0.04431 0.88949 0.0
O428 O 0.5703 0.06663 0.87226 0.0
O429 O 0.58939 0.0883 0.82871 0.0
O430 O 0.60644 0.09301 0.91845 0.0
O431 O 0.60005 0.12449 0.89465 0.0
H432 H 0.59414 0.1499 0.75476 0.0
H433 H 0.6141 0.15288 0.69886 0.0
H434 H 0.68577 0.21494 0.73759 0.0
H435 H 0.66591 0.21213 0.79413 0.0
H436 H 0.66484 0.0362 0.86618 0.0
H437 H 0.695 0.03465 0.90773 0.0
H438 H 0.65475 0.04617 0.99232 0.0
H439 H 0.62555 0.04895 0.95059 0.0
Nd440 Nd 0.50836 0.61739 0.16636 0.0
Nd441 Nd 0.56099 0.63521 0.19034 0.0
C442 C 0.4591 0.58921 0.1519 0.0
C443 C 0.44641 0.56611 0.12944 0.0
C444 C 0.44815 0.54413 0.13749 0.0
C445 C 0.44523 0.52676 0.11127 0.0
C446 C 0.44099 0.53132 1.07653 0.0
C447 C 0.43532 0.55107 1.06985 0.0
C448 C 0.43788 0.5682 1.09614 0.0
C449 C 0.5357 0.67074 0.17628 0.0
C450 C 0.54889 0.61729 0.10645 0.0
C451 C 0.61074 0.66591 0.19988 0.0
C452 C 0.62878 0.6849 0.22497 0.0
C453 C 0.62354 0.7027 0.24106 0.0
C454 C 0.64039 0.71976 0.26603 0.0
C455 C 0.66274 0.71924 0.27542 0.0
C456 C 0.66835 0.70199 0.25828 0.0
C457 C 0.65149 0.68498 0.23327 0.0
C458 C 0.53035 0.58338 0.19584 0.0
C459 C 0.51958 0.61904 0.25317 0.0
O460 O 0.46924 0.58688 0.181 0.0
O461 O 0.47428 0.61071 0.13555 0.0
O462 O 0.52025 0.65926 0.15022 0.0
O463 O 0.53652 0.65397 0.19537 0.0
O464 O 0.52441 0.60847 0.11469 0.0
O465 O 0.56664 0.63039 0.13046 0.0
O466 O 0.59626 0.67246 0.18198 0.0
O467 O 0.59855 0.64188 0.21011 0.0
O468 O 0.54955 0.59698 0.21674 0.0
O469 O 0.53007 0.59664 0.17024 0.0
O470 O 0.54449 0.63085 0.24628 0.0
O471 O 0.50262 0.61248 0.22716 0.0
H472 H 0.45414 0.54156 0.16317 0.0
H473 H 0.44878 0.51122 0.11765 0.0
H474 H 0.43184 0.55532 1.0436 0.0
H475 H 0.43601 0.58473 1.08936 0.0
H476 H 0.60623 0.70314 0.23481 0.0
H477 H 0.63564 0.73295 0.27858 0.0
H478 H 0.68515 0.70077 0.26531 0.0
H479 H 0.6559 0.67144 0.221 0.0
C480 C 0.49573 0.19673 0.3456 0.0
C481 C 0.48049 0.17164 0.33249 0.0
C482 C 0.49473 0.21772 0.33048 0.0
C483 C 0.47138 0.23598 0.2488 0.0
H484 H 0.489 0.29758 0.30142 0.0
C485 C 0.48566 0.32867 0.17931 0.0
C486 C 0.48183 0.34681 0.19745 0.0
C487 C 0.48394 0.30705 0.19626 0.0
C488 C 0.48363 0.28048 0.28619 0.0
H489 H 0.45159 0.14903 0.29389 0.0
H490 H 0.44873 0.18477 0.26897 0.0
H491 H 0.48841 0.2612 0.33037 0.0
H492 H 0.47219 0.3555 0.24791 0.0
H493 H 0.46795 0.31729 0.27713 0.0
H494 H 0.46549 0.25465 0.20505 0.0
C495 C 0.46234 0.18885 0.28995 0.0
C496 C 0.48373 0.25952 0.30286 0.0
C497 C 0.46369 0.16806 0.30463 0.0
C498 C 0.4752 0.34199 0.23293 0.0
C499 C 0.47315 0.32012 0.24987 0.0
C500 C 0.47096 0.25674 0.23229 0.0
C501 C 0.47818 0.21426 0.30203 0.0
C502 C 0.47772 0.23682 0.28449 0.0
C503 C 0.47793 0.30238 0.23204 0.0
C504 C 0.47729 0.27958 0.25047 0.0
H505 H 0.50906 0.20031 0.36684 0.0
H506 H 0.50756 0.23676 0.34062 0.0
H507 H 0.46706 0.21937 0.23307 0.0
H508 H 0.49108 0.33169 0.1521 0.0
H509 H 0.48828 0.2945 0.18127 0.0
C510 C 0.33804 0.5219 0.67579 0.0
C511 C 0.34833 0.50704 0.66303 0.0
C512 C 0.31564 0.52006 0.6607 0.0
C513 C 0.27422 0.49593 0.57908 0.0
H514 H 0.22681 0.50767 0.63252 0.0
C515 C 0.19065 0.50291 0.51123 0.0
C516 C 0.16776 0.49546 0.52946 0.0
C517 C 0.21195 0.50355 0.52774 0.0
C518 C 0.23958 0.504 0.61706 0.0
H519 H 0.34231 0.47794 0.625 0.0
H520 H 0.30344 0.47406 0.59992 0.0
H521 H 0.26415 0.50995 0.6612 0.0
H522 H 0.14947 0.48208 0.57955 0.0
H523 H 0.18602 0.48223 0.60794 0.0
H524 H 0.2494 0.48919 0.53523 0.0
C525 C 0.31282 0.48785 0.62071 0.0
C526 C 0.26144 0.50572 0.63358 0.0
C527 C 0.33518 0.48987 0.63549 0.0
C528 C 0.16666 0.48786 0.56451 0.0
C529 C 0.18792 0.48831 0.581 0.0
C530 C 0.25236 0.49408 0.56264 0.0
C531 C 0.30272 0.50319 0.6325 0.0
C532 C 0.27923 0.50167 0.61496 0.0
C533 C 0.21119 0.49653 0.56313 0.0
C534 C 0.23454 0.49811 0.58119 0.0
H535 H 0.34764 0.53543 0.69681 0.0
H536 H 0.30888 0.53243 0.67064 0.0
H537 H 0.28738 0.49308 0.56324 0.0
H538 H 0.19249 0.50919 0.48436 0.0
H539 H 0.22933 0.5104 0.51281 0.0
C540 C 0.86525 0.32464 0.98172 0.0
C541 C 0.86207 0.33779 1.0097 0.0
C542 C 0.84474 0.30168 0.96854 0.0
C543 C 0.77473 0.25066 0.98398 0.0
H544 H 0.7803 0.23456 0.88803 0.0
C545 C 0.69349 0.15629 0.91684 0.0
C546 C 0.69003 0.15635 0.88045 0.0
C547 C 0.71458 0.17714 0.93382 0.0
C548 C 0.77785 0.23863 0.9147 0.0
H549 H 0.83408 0.33686 1.04552 0.0
H550 H 0.7978 0.29754 1.02156 0.0
H551 H 0.8144 0.2728 0.91404 0.0
H552 H 0.7066 0.17896 0.83376 0.0
H553 H 0.74191 0.215 0.86269 0.0
H554 H 0.73716 0.21715 0.9835 0.0
C555 C 0.81653 0.30434 1.01038 0.0
C556 C 0.79812 0.26072 0.93024 0.0
C557 C 0.83742 0.32713 1.02424 0.0
C558 C 0.70854 0.17778 0.86171 0.0
C559 C 0.72921 0.1987 0.87861 0.0
C560 C 0.75411 0.22873 0.96811 0.0
C561 C 0.81967 0.29119 0.98187 0.0
C562 C 0.79725 0.26728 0.96536 0.0
C563 C 0.73281 0.19904 0.91511 0.0
C564 C 0.75516 0.2222 0.933 0.0
H565 H 0.88379 0.33238 0.96954 0.0
H566 H 0.84887 0.29232 0.94762 0.0
H567 H 0.7729 0.25437 1.01107 0.0
H568 H 0.67964 0.14028 0.93232 0.0
H569 H 0.71645 0.17598 0.96175 0.0
C570 C 0.55596 0.70689 0.22062 0.0
C571 C 0.54121 0.69654 0.19013 0.0
C572 C 0.55978 0.73009 0.23524 0.0
C573 C 0.54829 0.78662 0.21863 0.0
H574 H 0.56381 0.79769 0.31721 0.0
C575 C 0.56238 0.8804 0.28798 0.0
C576 C 0.55654 0.87922 0.32369 0.0
C577 C 0.5626 0.85956 0.27105 0.0
C578 C 0.55906 0.79506 0.28973 0.0
H579 H 0.51863 0.7029 0.15145 0.0
H580 H 0.52403 0.74228 0.1774 0.0
H581 H 0.55878 0.75936 0.29009 0.0
H582 H 0.54652 0.85467 0.36926 0.0
H583 H 0.5458 0.81873 0.34027 0.0
H584 H 0.54696 0.82166 0.21897 0.0
C585 C 0.53369 0.73323 0.18973 0.0
C586 C 0.55669 0.77288 0.27367 0.0
C587 C 0.53038 0.71028 0.1747 0.0
C588 C 0.55137 0.85668 0.34186 0.0
C589 C 0.55114 0.83581 0.32496 0.0
C590 C 0.55017 0.80861 0.23489 0.0
C591 C 0.54837 0.74368 0.22056 0.0
C592 C 0.55124 0.76801 0.23768 0.0
C593 C 0.55661 0.83656 0.28907 0.0
C594 C 0.55549 0.81335 0.27094 0.0
H595 H 0.56437 0.69682 0.23359 0.0
H596 H 0.57179 0.73721 0.25825 0.0
H597 H 0.54457 0.78443 0.19088 0.0
H598 H 0.56639 0.89729 0.27292 0.0
H599 H 0.56743 0.86162 0.24368 0.0
C600 C 0.71335 0.57097 0.62722 0.0
C601 C 0.70795 0.5639 0.66252 0.0
C602 C 0.7344 0.57131 0.61051 0.0
C603 C 0.79322 0.56403 0.62921 0.0
H604 H 0.79099 0.55466 0.52937 0.0
C605 C 0.87547 0.55645 0.55979 0.0
C606 C 0.87063 0.54358 0.52764 0.0
C607 C 0.8572 0.56155 0.57502 0.0
C608 C 0.79203 0.55682 0.55739 0.0
H609 H 0.72112 0.55181 0.70768 0.0
H610 H 0.75613 0.55105 0.67896 0.0
H611 H 0.75693 0.55768 0.55756 0.0
H612 H 0.84216 0.52575 0.48668 0.0
H613 H 0.81013 0.53303 0.51356 0.0
H614 H 0.8272 0.56129 0.62955 0.0
C615 C 0.74512 0.5574 0.66384 0.0
C616 C 0.77238 0.55915 0.57377 0.0
C617 C 0.72457 0.55764 0.68059 0.0
C618 C 0.84689 0.536 0.51125 0.0
C619 C 0.82836 0.54046 0.52684 0.0
C620 C 0.81248 0.56105 0.61299 0.0
C621 C 0.75056 0.56406 0.6283 0.0
C622 C 0.77235 0.56266 0.61018 0.0
C623 C 0.83293 0.55327 0.55923 0.0
C624 C 0.8124 0.55726 0.57664 0.0
H625 H 0.70105 0.57587 0.61229 0.0
H626 H 0.73777 0.57717 0.58349 0.0
H627 H 0.79494 0.56742 0.65701 0.0
H628 H 0.89335 0.56237 0.57348 0.0
H629 H 0.86235 0.57201 0.59937 0.0
C630 C 0.32038 0.84874 0.84919 0.0
C631 C 0.33194 0.87343 0.86418 0.0
C632 C 0.29822 0.828 0.86401 0.0
C633 C 0.2591 0.8093 0.94738 0.0
H634 H 0.21204 0.74956 0.89342 0.0
C635 C 0.18031 0.71741 1.0161 0.0
C636 C 0.15767 0.69995 0.99834 0.0
C637 C 0.2002 0.73874 0.99904 0.0
C638 C 0.22465 0.76617 0.90905 0.0
H639 H 0.32857 0.89564 0.90582 0.0
H640 H 0.28955 0.86061 0.93004 0.0
H641 H 0.24782 0.7857 0.8647 0.0
H642 H 0.13816 0.69215 0.94844 0.0
H643 H 0.17217 0.73002 0.91904 0.0
H644 H 0.23538 0.79057 0.9913 0.0
C645 C 0.29787 0.85649 0.90786 0.0
C646 C 0.24571 0.78698 0.89248 0.0
C647 C 0.32023 0.87694 0.89356 0.0
C648 C 0.15522 0.70515 0.96311 0.0
C649 C 0.17506 0.72682 0.94606 0.0
C650 C 0.23788 0.78878 0.96376 0.0
C651 C 0.28662 0.83136 0.89398 0.0
C652 C 0.26353 0.80899 0.91133 0.0
C653 C 0.19819 0.7439 0.96354 0.0
C654 C 0.22029 0.76657 0.94514 0.0
H655 H 0.32899 0.84521 0.82676 0.0
H656 H 0.29072 0.80918 0.8524 0.0
H657 H 0.27225 0.82529 0.96354 0.0
H658 H 0.18318 0.71408 1.04311 0.0
H659 H 0.21757 0.75068 1.01375 0.0
C660 C 0.57844 0.09012 0.98107 0.0
C661 C 0.58654 0.11063 0.95695 0.0
C662 C 0.56682 0.08979 1.01327 0.0
C663 C 0.55986 0.13188 1.08024 0.0
H664 H 0.50323 0.06799 0.11464 0.0
C665 C 0.52359 0.11933 0.2262 0.0
C666 C 0.49701 0.10513 0.23343 0.0
C667 C 0.53344 0.12058 0.19229 0.0
C668 C 0.51896 0.08613 0.10566 0.0
H669 H 0.5882 0.14717 0.94954 0.0
H670 H 0.56883 0.14709 1.006 0.0
H671 H 0.52202 0.06922 1.05768 0.0
H672 H 0.46022 0.08078 0.20874 0.0
H673 H 0.47731 0.08229 0.15002 0.0
H674 H 0.55723 0.14863 0.12863 0.0
C675 C 0.57135 0.13094 0.99969 0.0
C676 C 0.53001 0.08682 1.0727 0.0
C677 C 0.58251 0.13099 0.96693 0.0
C678 C 0.48072 0.09208 0.20481 0.0
C679 C 0.49067 0.09284 0.17086 0.0
C680 C 0.5492 0.13105 0.11356 0.0
C681 C 0.56305 0.11021 1.02363 0.0
C682 C 0.55075 0.10971 1.05905 0.0
C683 C 0.51733 0.10721 0.1637 0.0
C684 C 0.52844 0.10817 0.12719 0.0
H685 H 0.58085 0.07387 0.97496 0.0
H686 H 0.56114 0.07349 1.03045 0.0
H687 H 0.57577 0.14995 1.07142 0.0
H688 H 0.53708 0.12971 0.24702 0.0
H689 H 0.55398 0.13171 0.1887 0.0
C690 C 0.52453 0.60505 0.31479 0.0
C691 C 0.50989 0.6099 0.29011 0.0
C692 C 0.51428 0.59351 0.34757 0.0
C693 C 0.46344 0.58213 0.41304 0.0
H694 H 0.47409 0.52777 0.44913 0.0
C695 C 0.44008 0.54556 0.55812 0.0
C696 C 0.42762 0.51887 0.56519 0.0
C697 C 0.4489 0.55559 0.52442 0.0
C698 C 0.47078 0.54285 0.43955 0.0
H699 H 0.47258 0.60616 0.28195 0.0
H700 H 0.45531 0.58741 0.33919 0.0
H701 H 0.4922 0.54767 0.3925 0.0
H702 H 0.41522 0.48201 0.54083 0.0
H703 H 0.43134 0.49955 0.48218 0.0
H704 H 0.44262 0.57784 0.46038 0.0
C705 C 0.47475 0.59228 0.33311 0.0
C706 C 0.48143 0.55451 0.40695 0.0
C707 C 0.48476 0.60319 0.30002 0.0
C708 C 0.42445 0.50259 0.53679 0.0
C709 C 0.43393 0.51276 0.50302 0.0
C710 C 0.45334 0.57092 0.44595 0.0
C711 C 0.48913 0.58686 0.35752 0.0
C712 C 0.47794 0.57439 0.39287 0.0
C713 C 0.44632 0.53954 0.49608 0.0
C714 C 0.45669 0.55097 0.46 0.0
H715 H 0.54373 0.60936 0.30832 0.0
H716 H 0.52621 0.5899 0.36528 0.0
H717 H 0.46024 0.59732 0.40365 0.0
H718 H 0.44308 0.55896 0.5789 0.0
H719 H 0.45837 0.57622 0.52078 0.0
C720 C 0.92326 0.44558 0.89951 0.0
C721 C 0.92851 0.42548 0.90601 0.0
C722 C 0.92223 0.454 0.86531 0.0
C723 C 0.91954 0.43676 0.7685 0.0
H724 H 0.93353 0.50658 0.75588 0.0
C725 C 0.90573 0.47344 0.63068 0.0
C726 C 0.92016 0.49982 0.622 0.0
C727 C 0.90667 0.4643 0.66458 0.0
C728 C 0.92978 0.48705 0.75829 0.0
H729 H 0.93679 0.39865 0.87982 0.0
H730 H 0.93563 0.41352 0.82051 0.0
H731 H 0.93641 0.4916 0.8135 0.0
H732 H 0.94716 0.53702 0.64375 0.0
H733 H 0.9492 0.52143 0.70172 0.0
H734 H 0.91388 0.43261 0.71294 0.0
C735 C 0.93179 0.42268 0.842 0.0
C736 C 0.93102 0.47812 0.79215 0.0
C737 C 0.93263 0.4141 0.87643 0.0
C738 C 0.93541 0.51664 0.64895 0.0
C739 C 0.9365 0.50751 0.68275 0.0
C740 C 0.91845 0.44577 0.73452 0.0
C741 C 0.92663 0.44297 0.83548 0.0
C742 C 0.92579 0.45267 0.79836 0.0
C743 C 0.92219 0.48105 0.6916 0.0
C744 C 0.92346 0.47117 0.72842 0.0
H745 H 0.9197 0.45492 0.92108 0.0
H746 H 0.91754 0.4691 0.86252 0.0
H747 H 0.91508 0.41702 0.7712 0.0
H748 H 0.89378 0.45962 0.61105 0.0
H749 H 0.89489 0.4439 0.66949 0.0
C750 C 0.43828 0.92508 0.96871 0.0
C751 C 0.42476 0.93836 0.96226 0.0
C752 C 0.44751 0.92384 1.0025 0.0
C753 C 0.46739 0.9574 1.08975 0.0
H754 H 0.46069 0.89355 0.12412 0.0
C755 C 0.52234 0.95236 0.21629 0.0
C756 C 0.50913 0.93211 0.24046 0.0
C757 C 0.51153 0.95295 0.18345 0.0
C758 C 0.4628 0.91163 0.11521 0.0
H759 H 0.41108 0.96114 0.98808 0.0
H760 H 0.4279 0.95984 1.04631 0.0
H761 H 0.44354 0.89504 1.06639 0.0
H762 H 0.47345 0.89634 0.24729 0.0
H763 H 0.45515 0.89679 0.18981 0.0
H764 H 0.48731 0.97417 0.13812 0.0
C765 C 0.43106 0.94995 1.02508 0.0
C766 C 0.45299 0.91254 1.08164 0.0
C767 C 0.4212 0.95061 0.99139 0.0
C768 C 0.48456 0.91228 0.22985 0.0
C769 C 0.47399 0.91254 0.19653 0.0
C770 C 0.47779 0.95665 0.12292 0.0
C771 C 0.44435 0.9364 1.03158 0.0
C772 C 0.45491 0.93542 1.06804 0.0
C773 C 0.48713 0.93302 0.17254 0.0
C774 C 0.47569 0.93372 0.13664 0.0
H775 H 0.4416 0.9153 0.94747 0.0
H776 H 0.45765 0.91332 1.00567 0.0
H777 H 0.46961 0.97551 1.08077 0.0
H778 H 0.54114 0.96821 0.22294 0.0
H779 H 0.52262 0.96906 0.16625 0.0
C780 C 0.51991 0.44227 0.31549 0.0
C781 C 0.53512 0.44016 0.28917 0.0
C782 C 0.5295 0.45099 0.34969 0.0
C783 C 0.58174 0.46101 0.41489 0.0
H784 H 0.56086 0.50416 0.46268 0.0
C785 C 0.60633 0.4901 0.56531 0.0
C786 C 0.61223 0.51508 0.57573 0.0
C787 C 0.59755 0.48073 0.53083 0.0
C788 C 0.56713 0.4922 0.45002 0.0
H789 H 0.573 0.44575 0.28014 0.0
H790 H 0.5894 0.46013 0.33966 0.0
H791 H 0.54532 0.48905 0.4036 0.0
H792 H 0.61279 0.54929 0.55627 0.0
H793 H 0.59742 0.53314 0.49759 0.0
H794 H 0.60342 0.46407 0.4616 0.0
C795 C 0.56985 0.45511 0.33371 0.0
C796 C 0.55789 0.48321 0.41573 0.0
C797 C 0.56036 0.44677 0.29917 0.0
C798 C 0.6087 0.53003 0.55 0.0
C799 C 0.59958 0.52057 0.51589 0.0
C800 C 0.59065 0.46966 0.44951 0.0
C801 C 0.55473 0.45769 0.35984 0.0
C802 C 0.56498 0.46742 0.39709 0.0
C803 C 0.59375 0.49567 0.50523 0.0
C804 C 0.58371 0.48563 0.46799 0.0
H805 H 0.50047 0.43763 0.30953 0.0
H806 H 0.51682 0.45223 0.36841 0.0
H807 H 0.58777 0.44886 0.40223 0.0
H808 H 0.60851 0.47767 0.58384 0.0
H809 H 0.59326 0.46143 0.52448 0.0
C810 C 0.13311 0.60171 0.89967 0.0
C811 C 0.11394 0.60749 0.90931 0.0
C812 C 0.13435 0.59355 0.8653 0.0
C813 C 0.09412 0.56322 0.78442 0.0
H814 H 0.15883 0.58845 0.73681 0.0
C815 C 0.10201 0.51908 0.65083 0.0
C816 C 0.11779 0.53585 0.62432 0.0
C817 C 0.10194 0.52793 0.68502 0.0
C818 C 0.14049 0.58114 0.7495 0.0
H819 H 0.08076 0.60846 0.88896 0.0
H820 H 0.08258 0.59392 0.83023 0.0
H821 H 0.15807 0.60306 0.79627 0.0
H822 H 0.14634 0.5756 0.61466 0.0
H823 H 0.14691 0.59078 0.67426 0.0
H824 H 0.07654 0.54103 0.73798 0.0
C825 C 0.09692 0.59586 0.84908 0.0
C826 C 0.14007 0.58945 0.78404 0.0
C827 C 0.09598 0.60447 0.8831 0.0
C828 C 0.13394 0.56186 0.63392 0.0
C829 C 0.13428 0.57063 0.66843 0.0
C830 C 0.09459 0.55452 0.75024 0.0
C831 C 0.11613 0.59023 0.83923 0.0
C832 C 0.11684 0.58082 0.80227 0.0
C833 C 0.11808 0.55391 0.69475 0.0
C834 C 0.11776 0.56335 0.73182 0.0
H835 H 0.14726 0.60351 0.91873 0.0
H836 H 0.14939 0.58933 0.85935 0.0
H837 H 0.07576 0.55579 0.7971 0.0
H838 H 0.08914 0.49896 0.64501 0.0
H839 H 0.08927 0.51417 0.70408 0.0
C840 C 0.28993 0.96583 1.01435 0.0
C841 C 0.28643 0.97265 0.98051 0.0
C842 C 0.28214 0.9741 1.04328 0.0
C843 C 0.28039 0.03087 1.0669 0.0
H844 H 0.26563 0.99792 0.15752 0.0
C845 C 0.30151 0.05399 0.2239 0.0
C846 C 0.32834 0.06928 0.22098 0.0
C847 C 0.28611 0.04418 0.1941 0.0
C848 C 0.26911 1.00741 0.13243 0.0
H849 H 0.2692 0.99087 0.95045 0.0
H850 H 0.25622 1.00594 1.00123 0.0
H851 H 0.2539 0.9717 0.10498 0.0
H852 H 0.35958 0.08826 0.18418 0.0
H853 H 0.33287 0.07171 0.13269 0.0
H854 H 0.29725 0.06667 1.09442 0.0
C855 C 0.26521 0.99437 1.00523 0.0
C856 C 0.26256 0.99236 0.10234 0.0
C857 C 0.27279 0.98587 0.97622 0.0
C858 C 0.33904 0.07675 0.1876 0.0
C859 C 0.32364 0.06721 0.15791 0.0
C860 C 0.28699 0.04592 1.097 0.0
C861 C 0.27083 0.98951 1.03905 0.0
C862 C 0.26957 1.00405 1.06939 0.0
C863 C 0.29722 0.04982 0.16086 0.0
C864 C 0.28283 0.0344 0.13004 0.0
H865 H 0.30053 0.95589 1.01879 0.0
H866 H 0.28705 0.97026 1.06897 0.0
H867 H 0.28608 0.04049 1.0419 0.0
H868 H 0.29255 0.04841 0.24923 0.0
H869 H 0.26575 0.03108 0.19711 0.0
C870 C 0.36431 0.35581 0.33456 0.0
C871 C 0.35853 0.36037 0.30069 0.0
C872 C 0.34547 0.34582 0.3601 0.0
C873 C 0.28518 0.34392 0.38158 0.0
H874 H 0.29603 0.31469 0.46566 0.0
C875 C 0.28204 0.38164 0.51344 0.0
C876 C 0.28446 0.36964 0.54358 0.0
C877 C 0.27734 0.36949 0.48112 0.0
C878 C 0.29184 0.3222 0.4424 0.0
H879 H 0.32782 0.35627 0.26648 0.0
H880 H 0.29463 0.33787 0.31081 0.0
H881 H 0.31457 0.31168 0.41177 0.0
H882 H 0.27919 0.33355 0.56415 0.0
H883 H 0.26899 0.31171 0.50839 0.0
H884 H 0.26199 0.35398 0.41204 0.0
C885 C 0.31397 0.3427 0.31789 0.0
C886 C 0.30304 0.32088 0.41137 0.0
C887 C 0.33298 0.35303 0.29234 0.0
C888 C 0.27794 0.34367 0.54148 0.0
C889 C 0.27251 0.33122 0.50921 0.0
C890 C 0.27333 0.34458 0.41243 0.0
C891 C 0.32014 0.33971 0.3524 0.0
C892 C 0.30157 0.33355 0.38131 0.0
C893 C 0.27424 0.34469 0.47827 0.0
C894 C 0.27825 0.33562 0.44391 0.0
H895 H 0.38365 0.36065 0.3417 0.0
H896 H 0.35125 0.34424 0.38635 0.0
H897 H 0.28316 0.35355 0.35889 0.0
H898 H 0.28587 0.40128 0.5143 0.0
H899 H 0.27861 0.3807 0.45831 0.0
C900 C 0.0182 0.33163 0.63013 0.0
C901 C 0.03552 0.35782 0.63667 0.0
C902 C 1.00921 0.31385 0.65749 0.0
C903 C 0.97765 0.28982 0.72271 0.0
H904 H 0.01742 0.30018 0.80713 0.0
C905 C 0.94193 0.29423 0.85587 0.0
C906 C 0.95329 0.29086 0.88604 0.0
C907 C 0.94847 0.28955 0.82304 0.0
C908 C 1.00592 0.29627 0.78369 0.0
H909 H 0.05794 0.38555 0.67682 0.0
H910 H 0.0424 0.35479 0.7242 0.0
H911 H 0.0393 0.31719 0.75228 0.0
H912 H 0.97783 0.27678 0.90571 0.0
H913 H 0.98927 0.26852 0.84815 0.0
H914 H 0.94425 0.26974 0.75441 0.0
C915 C 0.03597 0.34778 0.69798 0.0
C916 C 0.01854 0.30636 0.75226 0.0
C917 C 0.04487 0.36551 0.67074 0.0
C918 C 0.96921 0.28009 0.88284 0.0
C919 C 0.97574 0.27534 0.8499 0.0
C920 C 0.965 0.27953 0.75413 0.0
C921 C 0.01747 0.32189 0.69187 0.0
C922 C 1.00455 0.30467 0.72193 0.0
C923 C 0.96652 0.28136 0.8196 0.0
C924 C 0.97902 0.28412 0.78536 0.0
H925 H 1.011 0.32502 0.60402 0.0
H926 H 0.99517 0.29399 0.65191 0.0
H927 H 0.96625 0.28803 0.6998 0.0
H928 H 0.92974 0.30268 0.85729 0.0
H929 H 0.94113 0.29467 0.8004 0.0
C930 C 0.67642 0.97687 0.1993 0.0
C931 C 0.68499 0.99448 0.22698 0.0
C932 C 0.69213 0.98081 0.17082 0.0
C933 C 0.74353 0.03754 0.12696 0.0
H934 H 0.71638 0.987 1.05298 0.0
C935 C 0.7038 0.05666 1.00789 0.0
C936 C 0.69606 0.0403 0.97884 0.0
C937 C 0.71796 0.05394 1.03469 0.0
C938 C 0.72504 1.00164 1.07292 0.0
H939 H 0.71816 0.02792 0.24896 0.0
H940 H 0.74615 0.03407 0.20009 0.0
H941 H 0.71486 0.97307 0.11237 0.0
H942 H 0.69966 1.01008 0.95332 0.0
H943 H 0.72544 1.00608 0.99943 0.0
H944 H 0.75454 0.06616 1.08741 0.0
C945 C 0.72677 0.0179 0.19939 0.0
C946 C 0.72369 0.99351 0.10739 0.0
C947 C 0.71078 0.01422 0.22771 0.0
C948 C 0.70505 0.02284 0.97557 0.0
C949 C 0.71967 0.02039 1.00224 0.0
C950 C 0.74591 0.04574 1.09241 0.0
C951 C 0.7171 1.0023 0.16947 0.0
C952 C 0.73004 0.0111 0.13499 0.0
C953 C 0.72524 0.03502 1.03299 0.0
C954 C 0.73393 0.02772 1.06543 0.0
H955 H 0.65694 0.96084 0.19858 0.0
H956 H 0.68359 0.9681 0.14875 0.0
H957 H 0.74967 0.05204 0.14709 0.0
H958 H 0.69798 0.07095 1.01071 0.0
H959 H 0.72147 0.06557 1.05776 0.0
C960 C 0.70746 0.6812 0.5264 0.0
C961 C 0.70521 0.69027 0.55909 0.0
C962 C 0.71663 0.69772 0.49789 0.0
C963 C 0.7391 0.7356 0.43979 0.0
H964 H 0.70018 0.77075 0.43079 0.0
C965 C 0.70524 0.74504 0.30599 0.0
C966 C 0.67844 0.73413 0.30583 0.0
C967 C 0.7192 0.75398 0.3371 0.0
C968 C 0.71146 0.76131 0.43288 0.0
H969 H 0.71285 0.72431 0.58818 0.0
H970 H 0.72876 0.75331 0.53803 0.0
H971 H 0.70671 0.75755 0.48806 0.0
H972 H 0.64561 0.72607 0.33755 0.0
H973 H 0.66952 0.74105 0.39134 0.0
H974 H 0.74125 0.73658 0.38437 0.0
C975 C 0.72312 0.73328 0.53447 0.0
C976 C 0.71549 0.754 0.46587 0.0
C977 C 0.71391 0.71666 0.56312 0.0
C978 C 0.66624 0.73452 0.33665 0.0
C979 C 0.68011 0.7433 0.36766 0.0
C980 C 0.73471 0.74253 0.40679 0.0
C981 C 0.7238 0.7238 0.50128 0.0
C982 C 0.72774 0.73939 0.46933 0.0
C983 C 0.70656 0.75197 0.36864 0.0
C984 C 0.71919 0.75375 0.40281 0.0
H985 H 0.70062 0.66095 0.5222 0.0
H986 H 0.71631 0.68952 0.47268 0.0
H987 H 0.74936 0.72511 0.44176 0.0
H988 H 0.71523 0.74548 0.28241 0.0
H989 H 0.73962 0.76103 0.33678 0.0
C990 C 0.02309 0.71306 0.88654 0.0
C991 C 0.04024 0.70361 0.88589 0.0
C992 C 0.01771 0.72246 0.85609 0.0
C993 C 0.99287 0.71457 0.7848 0.0
H994 H 0.03932 0.73648 0.70648 0.0
C995 C 0.96588 0.66093 0.659 0.0
C996 C 0.97964 0.6717 0.62825 0.0
C997 C 0.97077 0.67599 0.6887 0.0
C998 C 0.02597 0.73103 0.72786 0.0
H999 H 0.06623 0.69796 0.85319 0.0
H1000 H 0.05679 0.71384 0.80061 0.0
H1001 H 0.05651 0.74608 0.76527 0.0
H1002 H 1.00736 0.70725 0.60337 0.0
H1003 H 0.01587 0.73377 0.65543 0.0
H1004 H 0.96232 0.69901 0.74739 0.0
C1005 C 0.04779 0.71467 0.82451 0.0
C1006 C 0.0359 0.73626 0.76173 0.0
C1007 C 0.05317 0.70538 0.85481 0.0
C1008 C 0.99685 0.69834 0.62697 0.0
C1009 C 1.00167 0.71351 0.65675 0.0
C1010 C 0.98294 0.70978 0.75091 0.0
C1011 C 0.02933 0.72249 0.82441 0.0
C1012 C 0.01946 0.72615 0.79049 0.0
C1013 C 0.98952 0.70226 0.68842 0.0
C1014 C 0.99936 0.716 0.72217 0.0
H1015 H 1.01317 0.71238 0.9103 0.0
H1016 H 1.00365 0.72865 0.85703 0.0
H1017 H 0.97955 0.70678 0.80626 0.0
H1018 H 0.95269 0.64044 0.66103 0.0
H1019 H 0.96128 0.66639 0.71257 0.0
C1020 C 0.44846 1.00943 0.3192 0.0
C1021 C 0.44906 0.02641 0.34443 0.0
C1022 C 0.43035 0.98338 0.32108 0.0
C1023 C 0.39527 0.9346 0.38466 0.0
H1024 H 0.39987 0.90258 0.30044 0.0
C1025 C 0.48118 0.94565 0.38278 0.0
C1026 C 0.49397 0.95549 0.35121 0.0
C1027 C 0.45475 0.92968 0.38357 0.0
C1028 C 0.39806 0.9109 0.3245 0.0
H1029 H 0.43111 0.02978 0.39134 0.0
H1030 H 0.39972 0.98402 0.39525 0.0
H1031 H 0.38734 0.93529 0.29716 0.0
H1032 H 0.48913 0.95643 0.29544 0.0
H1033 H 0.44293 0.92948 0.2963 0.0
H1034 H 0.40517 0.90943 0.41098 0.0
C1035 C 0.4132 0.99075 0.37392 0.0
C1036 C 0.39069 0.92959 0.3226 0.0
C1037 C 0.43163 0.01685 0.37221 0.0
C1038 C 0.47967 0.94956 0.32028 0.0
C1039 C 0.45301 0.93336 0.32094 0.0
C1040 C 0.40144 0.91506 0.38577 0.0
C1041 C 0.41203 0.97367 0.34805 0.0
C1042 C 0.39526 0.94539 0.35201 0.0
C1043 C 0.43986 0.92313 0.35277 0.0
C1044 C 0.41105 0.91043 0.35491 0.0
H1045 H 0.46127 0.01652 0.29708 0.0
H1046 H 0.43105 0.97093 0.30134 0.0
H1047 H 0.39562 0.94403 0.40882 0.0
H1048 H 0.49185 0.94955 0.40705 0.0
H1049 H 0.4462 0.92288 0.40882 0.0
C1050 C 0.44385 0.44731 0.70299 0.0
C1051 C 0.45225 0.46394 0.67411 0.0
C1052 C 0.44905 0.42717 0.70548 0.0
C1053 C 0.48172 0.39777 0.65538 0.0
H1054 H 0.51654 0.41082 0.74375 0.0
C1055 C 0.55619 0.48198 0.65572 0.0
C1056 C 0.56907 0.49475 0.68619 0.0
C1057 C 0.54269 0.45511 0.65464 0.0
C1058 C 0.50701 0.40667 0.71862 0.0
H1059 H 0.47272 0.47285 0.62543 0.0
H1060 H 0.48415 0.43964 0.63108 0.0
H1061 H 0.47511 0.40722 0.74112 0.0
H1062 H 0.5795 0.48963 0.73866 0.0
H1063 H 0.55689 0.4432 0.73655 0.0
H1064 H 0.5156 0.4009 0.63326 0.0
C1065 C 0.47233 0.44094 0.65114 0.0
C1066 C 0.4828 0.40437 0.71724 0.0
C1067 C 0.4667 0.46071 0.64841 0.0
C1068 C 0.56909 0.48025 0.71503 0.0
C1069 C 0.55632 0.4535 0.71366 0.0
C1070 C 0.5063 0.4008 0.65736 0.0
C1071 C 0.46318 0.42352 0.67941 0.0
C1072 C 0.47259 0.40506 0.6844 0.0
C1073 C 0.54177 0.44031 0.68412 0.0
C1074 C 0.52102 0.41272 0.68737 0.0
H1075 H 0.4318 0.44876 0.7225 0.0
H1076 H 0.4418 0.41437 0.72769 0.0
H1077 H 0.47279 0.39525 0.62998 0.0
H1078 H 0.55654 0.49271 0.63275 0.0
H1079 H 0.53198 0.4462 0.63107 0.0
C1080 C 0.02208 0.47022 0.98433 0.0
C1081 C 1.00582 0.45457 1.01068 0.0
C1082 C 0.04734 0.47552 0.9831 0.0
C1083 C 0.09907 0.48131 1.03782 0.0
H1084 H 0.12895 0.512 0.94968 0.0
C1085 C 0.09967 0.5578 1.04136 0.0
C1086 C 0.08771 0.56123 1.01201 0.0
C1087 C 0.11495 0.5466 1.03838 0.0
C1088 C 0.12105 0.50329 0.97466 0.0
H1089 H 1.00335 0.43291 1.05733 0.0
H1090 H 0.04774 0.44266 1.0557 0.0
H1091 H 0.08815 0.4716 0.95066 0.0
H1092 H 0.0833 0.55673 0.95604 0.0
H1093 H 0.10889 0.53618 0.95047 0.0
H1094 H 0.13284 0.51283 1.0598 0.0
C1095 C 0.04098 0.45068 1.03573 0.0
C1096 C 0.09764 0.48009 0.97516 0.0
C1097 C 0.01572 0.44568 1.0372 0.0
C1098 C 0.09157 0.55348 0.97933 0.0
C1099 C 0.10692 0.54218 0.97623 0.0
C1100 C 0.12296 0.50385 1.03573 0.0
C1101 C 0.05686 0.46493 1.00796 0.0
C1102 C 0.0843 0.47213 1.00704 0.0
C1103 C 0.11818 0.53754 1.00601 0.0
C1104 C 0.12761 0.51846 1.00499 0.0
H1105 H 1.01471 0.4768 0.96323 0.0
H1106 H 0.05924 0.48775 0.96222 0.0
H1107 H 0.09094 0.47422 1.06329 0.0
H1108 H 0.09764 0.56431 1.06683 0.0
H1109 H 0.12329 0.54415 1.06207 0.0
C1110 C 0.08918 0.56326 0.56151 0.0
C1111 C 0.07453 0.54825 0.53301 0.0
C1112 C 0.07667 0.56429 0.59153 0.0
C1113 C 0.03869 0.51361 0.62355 0.0
H1114 H 0.97061 0.50396 0.62122 0.0
C1115 C 0.98438 0.48846 0.52184 0.0
C1116 C 0.96038 0.4866 0.52449 0.0
C1117 C 0.99386 0.4806 0.5498 0.0
C1118 C 0.98939 0.50593 0.62372 0.0
H1119 H 0.03868 0.53525 0.50612 0.0
H1120 H 0.01714 0.53993 0.55625 0.0
H1121 H 1.00684 0.54689 0.62505 0.0
H1122 H 0.92391 0.46548 0.55062 0.0
H1123 H 0.94114 0.45482 0.60124 0.0
H1124 H 0.02139 0.47325 0.61386 0.0
C1125 C 0.0376 0.5475 0.55814 0.0
C1126 C 1.01036 0.53089 0.62612 0.0
C1127 C 0.04995 0.54486 0.52905 0.0
C1128 C 0.94345 0.46972 0.54972 0.0
C1129 C 0.95315 0.46284 0.57851 0.0
C1130 C 0.01772 0.48874 0.61974 0.0
C1131 C 0.0499 0.55277 0.59103 0.0
C1132 C 0.03495 0.53488 0.61956 0.0
C1133 C 0.9796 0.47213 0.5809 0.0
C1134 C 0.9934 0.48571 0.61328 0.0
H1135 H 0.10939 0.56995 0.5633 0.0
H1136 H 0.08716 0.57006 0.61599 0.0
H1137 H 0.0576 0.516 0.62057 0.0
H1138 H 0.99739 0.50002 0.50141 0.0
H1139 H 1.01406 0.48657 0.54966 0.0
C1140 C 0.46167 0.03481 0.87342 0.0
C1141 C 0.44932 0.01562 0.8482 0.0
C1142 C 0.46558 0.05942 0.86773 0.0
C1143 C 0.47495 0.10298 0.79617 0.0
H1144 H 0.50694 0.14235 0.8789 0.0
C1145 C 0.55194 0.10051 0.80807 0.0
C1146 C 0.5522 0.08971 0.84047 0.0
C1147 C 0.54188 0.11682 0.80459 0.0
C1148 C 0.49795 0.13196 0.85512 0.0
H1149 H 0.43303 1.00774 0.79612 0.0
H1150 H 0.43955 0.05043 0.78605 0.0
H1151 H 0.46375 0.10536 0.88212 0.0
H1152 H 0.54249 0.08778 0.89493 0.0
H1153 H 0.52302 0.11442 0.88895 0.0
H1154 H 0.50898 0.13036 0.77024 0.0
C1155 C 0.44598 0.04659 0.81059 0.0
C1156 C 0.47314 0.11062 0.85703 0.0
C1157 C 0.44256 0.02207 0.81613 0.0
C1158 C 0.54179 0.0952 0.8694 0.0
C1159 C 0.53126 0.11125 0.86589 0.0
C1160 C 0.49922 0.12502 0.79504 0.0
C1161 C 0.45717 0.06561 0.83655 0.0
C1162 C 0.46455 0.09286 0.82916 0.0
C1163 C 0.53046 0.1219 0.83308 0.0
C1164 C 0.51302 0.13281 0.82673 0.0
H1165 H 0.4669 0.03034 0.89851 0.0
H1166 H 0.47538 0.07351 0.88804 0.0
H1167 H 0.46737 0.09194 0.77247 0.0
H1168 H 0.56064 0.09722 0.78549 0.0
H1169 H 0.54258 0.12489 0.77909 0.0
C1170 C 0.49714 0.55689 0.23808 0.0
C1171 C 0.50939 0.5578 0.20655 0.0
C1172 C 0.49979 0.54394 0.26677 0.0
C1173 C 0.55403 0.55494 0.28686 0.0
H1174 H 0.55575 0.49189 0.2848 0.0
C1175 C 0.56148 0.51858 0.18196 0.0
C1176 C 0.55763 0.49367 0.18426 0.0
C1177 C 0.57582 0.53655 0.20783 0.0
C1178 C 0.5561 0.50996 0.2867 0.0
H1179 H 0.52107 0.5361 0.17492 0.0
H1180 H 0.52138 0.50981 0.22318 0.0
H1181 H 0.51565 0.49037 0.2955 0.0
H1182 H 0.57509 0.47219 0.20401 0.0
H1183 H 0.59698 0.50167 0.25225 0.0
H1184 H 0.59291 0.57364 0.26951 0.0
C1185 C 0.51382 0.5224 0.22768 0.0
C1186 C 0.53285 0.50901 0.29329 0.0
C1187 C 0.51346 0.53732 0.19982 0.0
C1188 C 0.57488 0.49001 0.20497 0.0
C1189 C 0.58836 0.50745 0.23185 0.0
C1190 C 0.57695 0.55562 0.27846 0.0
C1191 C 0.51134 0.529 0.26207 0.0
C1192 C 0.53102 0.53104 0.28723 0.0
C1193 C 0.58483 0.52866 0.23681 0.0
C1194 C 0.57638 0.53236 0.27174 0.0
H1195 H 0.48944 0.5693 0.24242 0.0
H1196 H 0.49604 0.54827 0.29271 0.0
H1197 H 0.55346 0.57263 0.28424 0.0
H1198 H 0.54996 0.52265 0.16415 0.0
H1199 H 0.57445 0.55384 0.20896 0.0
C1200 C 0.40769 0.95865 0.7103 0.0
C1201 C 0.40173 0.96901 0.73963 0.0
C1202 C 0.41285 0.97054 0.67662 0.0
C1203 C 0.43474 0.03451 0.62974 0.0
H1204 H 0.40955 0.99372 0.54554 0.0
C1205 C 0.47044 0.07921 0.48685 0.0
C1206 C 0.45259 0.07135 0.45878 0.0
C1207 C 0.46386 0.0673 0.52049 0.0
C1208 C 0.41688 1.0057 0.56854 0.0
H1209 H 0.39715 1.00125 0.7543 0.0
H1210 H 0.40696 0.0222 0.69679 0.0
H1211 H 0.39935 0.97265 0.6029 0.0
H1212 H 0.41322 0.04334 0.44613 0.0
H1213 H 0.40213 0.02221 0.50358 0.0
H1214 H 0.45293 0.0675 0.59536 0.0
C1215 C 0.40727 1.00443 0.69966 0.0
C1216 C 0.41106 0.9934 0.60199 0.0
C1217 C 0.40138 0.99213 0.73312 0.0
C1218 C 0.42777 0.05055 0.46639 0.0
C1219 C 0.42138 0.03813 0.49979 0.0
C1220 C 0.44116 0.04675 0.59627 0.0
C1221 C 0.41314 0.994 0.67026 0.0
C1222 C 0.41965 1.00741 0.63373 0.0
C1223 C 0.43919 0.04618 0.52801 0.0
C1224 C 0.4323 0.03277 0.56454 0.0
H1225 H 0.40849 0.94113 0.71333 0.0
H1226 H 0.4173 0.9615 0.65557 0.0
H1227 H 0.44214 0.04649 0.65274 0.0
H1228 H 0.48982 0.09485 0.48288 0.0
H1229 H 0.47853 0.07441 0.54058 0.0
C1230 C 0.49794 0.43126 1.03373 0.0
C1231 C 0.48534 0.43073 1.06508 0.0
C1232 C 0.48984 0.43572 1.00032 0.0
C1233 C 0.44619 0.459 0.95717 0.0
H1234 H 0.45988 0.43427 0.87157 0.0
C1235 C 0.43086 0.49242 0.81598 0.0
C1236 C 0.41887 0.47389 0.78908 0.0
C1237 C 0.43799 0.48645 0.84884 0.0
C1238 C 0.45577 0.44144 0.89506 0.0
H1239 H 0.45367 0.43488 1.08353 0.0
H1240 H 0.43989 0.44222 1.02724 0.0
H1241 H 0.47409 0.42579 0.92772 0.0
H1242 H 0.40589 0.43394 0.77762 0.0
H1243 H 0.41912 0.42388 0.83378 0.0
H1244 H 0.42841 0.47515 0.92432 0.0
C1245 C 0.45634 0.43952 1.02778 0.0
C1246 C 0.46425 0.43669 0.92785 0.0
C1247 C 0.4643 0.43497 1.06086 0.0
C1248 C 0.41471 0.44899 0.79702 0.0
C1249 C 0.42258 0.4432 0.82961 0.0
C1250 C 0.4383 0.46426 0.92438 0.0
C1251 C 0.46876 0.44011 0.99624 0.0
C1252 C 0.45977 0.44532 0.96013 0.0
C1253 C 0.43436 0.46174 0.8566 0.0
C1254 C 0.44279 0.45564 0.89227 0.0
H1255 H 0.51424 0.42832 1.03489 0.0
H1256 H 0.50057 0.43612 0.97763 0.0
H1257 H 0.44203 0.46639 0.98033 0.0
H1258 H 0.43488 0.51192 0.81165 0.0
H1259 H 0.44705 0.50162 0.86807 0.0
C1260 C 0.96515 0.43826 0.14884 0.0
C1261 C 0.9655 0.41908 0.12772 0.0
C1262 C 0.97886 0.44663 0.18107 0.0
C1263 C 1.01383 0.42953 0.25168 0.0
H1264 H 0.03811 0.49915 0.28348 0.0
C1265 C 0.05771 0.463 0.39449 0.0
C1266 C 0.0767 0.48884 0.40172 0.0
C1267 C 0.04522 0.45501 0.36141 0.0
C1268 C 0.03174 0.47962 0.27536 0.0
H1269 H 0.98171 0.39408 0.12615 0.0
H1270 H 1.00512 0.4082 0.18191 0.0
H1271 H 0.01549 0.48472 0.22771 0.0
H1272 H 0.09662 0.52634 0.37733 0.0
H1273 H 0.075 0.51268 0.32026 0.0
H1274 H 0.03017 0.42446 0.29924 0.0
C1275 C 0.99396 0.41687 0.1736 0.0
C1276 C 0.01824 0.47106 0.24289 0.0
C1277 C 0.98036 0.40862 0.14105 0.0
C1278 C 0.0824 0.50628 0.37364 0.0
C1279 C 0.06963 0.4983 0.34049 0.0
C1280 C 0.02709 0.438 0.28431 0.0
C1281 C 0.99379 0.4363 0.1946 0.0
C1282 C 1.00879 0.4457 0.22993 0.0
C1283 C 0.05062 0.47234 0.33327 0.0
C1284 C 0.03649 0.46333 0.29731 0.0
H1285 H 0.95428 0.4472 0.1403 0.0
H1286 H 0.97738 0.46122 0.19563 0.0
H1287 H 1.00712 0.40987 0.24385 0.0
H1288 H 0.05225 0.4486 0.41472 0.0
H1289 H 0.03075 0.43498 0.3583 0.0
C1290 C 0.60953 0.08734 0.7087 0.0
C1291 C 0.61057 0.07477 0.73957 0.0
C1292 C 0.60388 0.07506 0.67519 0.0
C1293 C 0.57602 1.00816 0.63117 0.0
H1294 H 0.60173 0.04728 0.54602 0.0
C1295 C 0.54338 0.95737 0.49104 0.0
C1296 C 0.55986 0.96756 0.46192 0.0
C1297 C 0.5494 0.97021 0.52412 0.0
C1298 C 0.5943 0.03565 0.56925 0.0
H1299 H 0.60605 0.03842 0.75718 0.0
H1300 H 0.59637 0.0175 0.70035 0.0
H1301 H 0.61245 0.06932 0.60227 0.0
H1302 H 0.59612 1.00041 0.44688 0.0
H1303 H 0.60642 0.0223 0.5032 0.0
H1304 H 0.55799 0.97448 0.59829 0.0
C1305 C 0.59974 0.03694 0.70156 0.0
C1306 C 0.60038 0.04862 0.60219 0.0
C1307 C 0.60563 0.04927 0.73482 0.0
C1308 C 0.58264 0.99138 0.46794 0.0
C1309 C 0.58855 1.0043 0.50082 0.0
C1310 C 0.56976 0.99522 0.59825 0.0
C1311 C 0.5985 0.04929 0.67056 0.0
C1312 C 0.59158 0.03531 0.63435 0.0
C1313 C 0.57216 0.99421 0.53012 0.0
C1314 C 0.57876 1.00847 0.56611 0.0
H1315 H 0.61286 0.10677 0.71037 0.0
H1316 H 0.60318 0.08581 0.65291 0.0
H1317 H 0.5682 0.99654 0.65432 0.0
H1318 H 0.52554 0.93936 0.4883 0.0
H1319 H 0.5357 0.96132 0.54494 0.0
C1320 C 0.54234 0.58686 1.05433 0.0
C1321 C 0.55683 0.611 1.07103 0.0
C1322 C 0.55075 0.58056 1.02299 0.0
C1323 C 0.59775 0.61105 0.9456 0.0
H1324 H 0.57474 0.54035 0.92096 0.0
C1325 C 0.62067 0.58492 0.80528 0.0
C1326 C 0.62097 0.56181 0.79891 0.0
C1327 C 0.61341 0.59052 0.83803 0.0
C1328 C 0.58184 0.56038 0.92702 0.0
H1329 H 0.59221 0.64723 1.06585 0.0
H1330 H 0.60574 0.63712 1.01093 0.0
H1331 H 0.56219 0.55032 0.97638 0.0
H1332 H 0.61305 0.52644 0.82454 0.0
H1333 H 0.60092 0.53609 0.88104 0.0
H1334 H 0.61761 0.62119 0.89657 0.0
C1335 C 0.58784 0.6226 1.02209 0.0
C1336 C 0.57421 0.56622 0.95944 0.0
C1337 C 0.58001 0.62853 1.05422 0.0
C1338 C 0.61346 0.54456 0.82754 0.0
C1339 C 0.60617 0.55017 0.86046 0.0
C1340 C 0.60533 0.60521 0.91322 0.0
C1341 C 0.57345 0.59836 1.00524 0.0
C1342 C 0.58194 0.5918 0.96995 0.0
C1343 C 0.6059 0.5734 0.86691 0.0
C1344 C 0.5977 0.57967 0.90268 0.0
H1345 H 0.52467 0.57234 1.06609 0.0
H1346 H 0.53907 0.56152 1.01248 0.0
H1347 H 0.60421 0.63102 0.95116 0.0
H1348 H 0.62583 0.5989 0.78453 0.0
H1349 H 0.61321 0.60836 0.84015 0.0
C1350 C 0.07582 0.59458 0.15495 0.0
C1351 C 0.07053 0.6087 0.12981 0.0
C1352 C 0.06202 0.58605 0.18697 0.0
C1353 C 0.01797 0.59696 0.24789 0.0
H1354 H 1.00414 0.53281 0.29076 0.0
C1355 C 0.97324 0.56815 0.38946 0.0
C1356 C 0.95644 0.54212 0.39869 0.0
C1357 C 0.98629 0.57543 0.35702 0.0
C1358 C 1.00757 0.55077 0.27938 0.0
H1359 H 0.04568 0.62456 0.12058 0.0
H1360 H 0.02241 0.61043 0.17555 0.0
H1361 H 0.02801 0.54679 0.23597 0.0
H1362 H 0.94112 0.50343 0.37888 0.0
H1363 H 0.9639 0.51593 0.32279 0.0
H1364 H 0.99766 0.60105 0.29113 0.0
C1365 C 0.03735 0.60583 0.17083 0.0
C1366 C 0.02172 0.55906 0.24761 0.0
C1367 C 0.05086 0.61402 0.13871 0.0
C1368 C 0.9535 0.52368 0.37339 0.0
C1369 C 0.96694 0.53098 0.34092 0.0
C1370 C 1.00417 0.58887 0.2798 0.0
C1371 C 0.04236 0.59146 0.19594 0.0
C1372 C 0.02729 0.5824 0.23079 0.0
C1373 C 0.98373 0.55714 0.33174 0.0
C1374 C 0.99848 0.56552 0.2966 0.0
H1375 H 0.09049 0.58968 0.14968 0.0
H1376 H 0.06708 0.57535 0.20496 0.0
H1377 H 0.02165 0.6151 0.23687 0.0
H1378 H 0.97653 0.58327 0.40764 0.0
H1379 H 0.999 0.59571 0.35219 0.0
C1380 C 0.64981 0.14985 0.43969 0.0
C1381 C 0.63017 0.12509 0.43062 0.0
C1382 C 0.66617 0.15336 0.46757 0.0
C1383 C 0.65794 0.11985 0.54987 0.0
H1384 H 0.71558 0.18672 0.57367 0.0
C1385 C 0.66625 0.15653 0.68662 0.0
C1386 C 0.66467 0.17905 0.68599 0.0
C1387 C 0.67441 0.14908 0.65731 0.0
C1388 C 0.69975 0.16777 0.56743 0.0
H1389 H 0.61466 0.08439 0.4399 0.0
H1390 H 0.64394 0.09037 0.48801 0.0
H1391 H 0.70882 0.17213 0.51316 0.0
H1392 H 0.67224 0.21266 0.65608 0.0
H1393 H 0.68619 0.19949 0.60411 0.0
H1394 H 0.64823 0.11593 0.60368 0.0
C1395 C 0.64605 0.10721 0.47457 0.0
C1396 C 0.69576 0.15941 0.53279 0.0
C1397 C 0.62931 0.10372 0.44697 0.0
C1398 C 0.67332 0.1952 0.65684 0.0
C1399 C 0.6815 0.18773 0.62736 0.0
C1400 C 0.66221 0.12798 0.58444 0.0
C1401 C 0.66337 0.13213 0.4869 0.0
C1402 C 0.67361 0.13626 0.52324 0.0
C1403 C 0.68102 0.16402 0.62686 0.0
C1404 C 0.6821 0.15273 0.59315 0.0
H1405 H 0.65095 0.16673 0.42761 0.0
H1406 H 0.67906 0.1729 0.476 0.0
H1407 H 0.64066 0.10191 0.54401 0.0
H1408 H 0.65991 0.14403 0.70924 0.0
H1409 H 0.67402 0.13084 0.65772 0.0
C1410 C 0.54782 0.57525 0.80973 0.0
C1411 C 0.53774 0.59097 0.79945 0.0
C1412 C 0.54691 0.56818 0.84467 0.0
C1413 C 0.52456 0.57667 0.93239 0.0
H1414 H 0.49036 0.50217 0.93364 0.0
C1415 C 0.43836 0.51874 1.01354 0.0
C1416 C 0.4488 0.52065 1.04709 0.0
C1417 C 0.45254 0.52024 0.98411 0.0
C1418 C 0.49979 0.5229 0.93351 0.0
H1419 H 0.52416 0.61596 0.81893 0.0
H1420 H 0.52331 0.6045 0.87867 0.0
H1421 H 0.51583 0.52558 0.88323 0.0
H1422 H 0.47992 0.52008 1.07566 0.0
H1423 H 0.5036 0.52124 1.02428 0.0
H1424 H 0.50603 0.57356 0.98092 0.0
C1425 C 0.53118 0.59673 0.86026 0.0
C1426 C 0.51489 0.5365 0.90499 0.0
C1427 C 0.53177 0.60351 0.82545 0.0
C1428 C 0.47123 0.51892 1.05043 0.0
C1429 C 0.48509 0.51985 1.02093 0.0
C1430 C 0.50875 0.56305 0.96007 0.0
C1431 C 0.53664 0.57734 0.8699 0.0
C1432 C 0.52669 0.56357 0.9035 0.0
C1433 C 0.47685 0.52275 0.98792 0.0
C1434 C 0.49585 0.53612 0.96046 0.0
H1435 H 0.55365 0.56611 0.79043 0.0
H1436 H 0.55214 0.55387 0.85132 0.0
H1437 H 0.53401 0.59746 0.93286 0.0
H1438 H 0.42066 0.51903 1.00995 0.0
H1439 H 0.44577 0.52221 0.95865 0.0
C1440 C 0.79337 0.36839 0.1351 0.0
C1441 C 0.81842 0.38973 0.1353 0.0
C1442 C 0.78396 0.35245 0.16455 0.0
C1443 C 0.77558 0.34525 0.24901 0.0
H1444 H 0.81805 0.31754 0.28135 0.0
C1445 C 0.83954 0.36574 0.37016 0.0
C1446 C 0.82308 0.36541 0.39613 0.0
C1447 C 0.82957 0.35223 0.33916 0.0
C1448 C 0.80548 0.32452 0.27263 0.0
H1449 H 0.85334 0.41068 0.16593 0.0
H1450 H 0.837 0.38305 0.2167 0.0
H1451 H 0.81677 0.32639 0.21942 0.0
H1452 H 0.7833 0.34749 0.41206 0.0
H1453 H 0.76588 0.32442 0.35728 0.0
H1454 H 0.76683 0.34662 0.30246 0.0
C1455 C 0.82461 0.37877 0.19408 0.0
C1456 C 0.80461 0.32938 0.23718 0.0
C1457 C 0.83377 0.39481 0.16524 0.0
C1458 C 0.79649 0.34878 0.39207 0.0
C1459 C 0.78648 0.33541 0.36083 0.0
C1460 C 0.77656 0.34054 0.28452 0.0
C1461 C 0.79982 0.35737 0.19388 0.0
C1462 C 0.79115 0.34153 0.22562 0.0
C1463 C 0.80292 0.33821 0.33331 0.0
C1464 C 0.79322 0.33214 0.2969 0.0
H1465 H 0.7813 0.36395 0.11215 0.0
H1466 H 0.76464 0.33613 0.16423 0.0
H1467 H 0.76523 0.35479 0.24058 0.0
H1468 H 0.86009 0.37833 0.3722 0.0
H1469 H 0.84287 0.35505 0.31848 0.0
C1470 C 0.37179 0.81081 0.4642 0.0
C1471 C 0.3764 0.83278 0.44559 0.0
C1472 C 0.35528 0.80264 0.49259 0.0
C1473 C 0.33873 0.83634 0.55729 0.0
H1474 H 0.32271 0.77457 0.6091 0.0
C1475 C 0.35664 0.84528 0.70089 0.0
C1476 C 0.37552 0.83883 0.70868 0.0
C1477 C 0.34109 0.83509 0.67146 0.0
C1478 C 0.32665 0.79179 0.59492 0.0
H1479 H 0.36525 0.86154 0.43829 0.0
H1480 H 0.33488 0.8463 0.48656 0.0
H1481 H 0.32055 0.7732 0.54549 0.0
H1482 H 0.39157 0.81506 0.6944 0.0
H1483 H 0.36486 0.79766 0.64205 0.0
H1484 H 0.34583 0.85519 0.60632 0.0
C1485 C 0.34485 0.836 0.48058 0.0
C1486 C 0.32559 0.79112 0.55846 0.0
C1487 C 0.362 0.84464 0.45274 0.0
C1488 C 0.3771 0.82025 0.68865 0.0
C1489 C 0.36165 0.81018 0.65893 0.0
C1490 C 0.33926 0.83686 0.59354 0.0
C1491 C 0.34287 0.81621 0.50261 0.0
C1492 C 0.3337 0.81392 0.53918 0.0
C1493 C 0.34446 0.81858 0.6491 0.0
C1494 C 0.33502 0.81509 0.61263 0.0
H1495 H 0.38284 0.80148 0.45893 0.0
H1496 H 0.35454 0.7874 0.50856 0.0
H1497 H 0.34511 0.85442 0.54392 0.0
H1498 H 0.35499 0.8594 0.71643 0.0
H1499 H 0.32781 0.84166 0.66475 0.0
C1500 C 0.60472 0.37394 0.8064 0.0
C1501 C 0.61257 0.40006 0.81166 0.0
C1502 C 0.60643 0.3592 0.83361 0.0
C1503 C 0.63685 0.36662 0.92095 0.0
H1504 H 0.57387 0.30486 0.94519 0.0
C1505 C 0.61313 0.3561 1.05919 0.0
C1506 C 0.58837 0.3525 1.063 0.0
C1507 C 0.61929 0.34686 1.02953 0.0
C1508 C 0.59169 0.32211 0.939 0.0
H1509 H 0.62904 0.4313 0.84912 0.0
H1510 H 0.63122 0.40574 0.89636 0.0
H1511 H 0.57949 0.32187 0.88632 0.0
H1512 H 0.54948 0.33165 1.04287 0.0
H1513 H 0.56032 0.31775 0.99041 0.0
H1514 H 0.64802 0.36924 0.97381 0.0
C1515 C 0.62415 0.39656 0.87128 0.0
C1516 C 0.59505 0.33161 0.9049 0.0
C1517 C 0.62235 0.41114 0.84436 0.0
C1518 C 0.5691 0.336 1.03966 0.0
C1519 C 0.57539 0.32753 1.00956 0.0
C1520 C 0.63322 0.35761 0.95511 0.0
C1521 C 0.61636 0.37047 0.86629 0.0
C1522 C 0.61676 0.35521 0.89654 0.0
C1523 C 0.6011 0.33492 1.0025 0.0
C1524 C 0.60949 0.33665 0.96543 0.0
H1525 H 0.59711 0.36491 0.7814 0.0
H1526 H 0.60009 0.33909 0.8291 0.0
H1527 H 0.65436 0.38424 0.9147 0.0
H1528 H 0.62838 0.36805 1.07723 0.0
H1529 H 0.63896 0.35145 1.02638 0.0
C1530 C 0.2328 0.55065 0.39276 0.0
C1531 C 0.24233 0.57689 0.39986 0.0
C1532 C 0.23653 0.54287 0.36016 0.0
C1533 C 0.26504 0.5654 0.27228 0.0
H1534 H 0.19405 0.52653 0.24233 0.0
C1535 C 0.23068 0.5864 0.14542 0.0
C1536 C 0.20639 0.56904 0.13184 0.0
C1537 C 0.24041 0.57967 0.17413 0.0
C1538 C 0.21411 0.53663 0.24971 0.0
H1539 H 0.26665 0.61558 0.38047 0.0
H1540 H 0.27281 0.60201 0.32333 0.0
H1541 H 0.20438 0.52876 0.30336 0.0
H1542 H 0.1743 0.53021 0.13492 0.0
H1543 H 0.19182 0.51776 0.18406 0.0
H1544 H 0.27466 0.57395 0.21846 0.0
C1545 C 0.26238 0.58742 0.34285 0.0
C1546 C 0.22005 0.53795 0.28507 0.0
C1547 C 0.25864 0.59523 0.37549 0.0
C1548 C 0.19296 0.54402 0.14537 0.0
C1549 C 0.20298 0.53702 0.17364 0.0
C1550 C 0.25915 0.56366 0.23667 0.0
C1551 C 0.24984 0.56117 0.33411 0.0
C1552 C 0.24538 0.55354 0.29689 0.0
C1553 C 0.22622 0.55522 0.18961 0.0
C1554 C 0.23342 0.55061 0.22513 0.0
H1555 H 0.22015 0.53593 0.41086 0.0
H1556 H 0.22694 0.52251 0.35423 0.0
H1557 H 0.28478 0.57727 0.28069 0.0
H1558 H 0.24133 0.60589 0.13551 0.0
H1559 H 0.25814 0.59445 0.18564 0.0
loop_
_geom_bond_atom_site_label_1
_geom_bond_atom_site_label_2
_geom_bond_distance
_geom_bond_site_symmetry_2
_ccdc_geom_bond_type
Nd0 C2 2.836 . S
Nd0 O20 2.500 . S
Nd0 O21 2.492 . S
Nd0 O22 2.487 . S
Nd0 O23 2.682 . S
Nd0 O24 2.410 . S
Nd0 O29 2.414 . S
Nd0 O31 2.424 . S
Nd1 C11 2.836 . S
Nd1 O23 2.414 . S
Nd1 O25 2.424 . S
Nd1 O26 2.500 . S
Nd1 O27 2.492 . S
Nd1 O28 2.487 . S
Nd1 O29 2.682 . S
Nd1 O30 2.410 . S
C2 Nd0 2.836 . S
C2 C3 1.498 . S
C2 O20 1.258 . S
C2 O21 1.239 . S
C3 C2 1.498 . S
C3 C4 1.366 . S
C3 C8 1.407 . S
C4 C3 1.366 . S
C4 C5 1.392 . S
C4 H32 0.930 . S
C5 C4 1.392 . S
C5 C6 1.398 . S
C5 H33 0.929 . S
C6 C5 1.398 . S
C6 C7 1.352 . S
C7 C6 1.352 . S
C7 C8 1.384 . S
C7 H34 0.930 . S
C8 C3 1.407 . S
C8 C7 1.384 . S
C8 H35 0.929 . S
C9 O22 1.241 . S
C9 O23 1.273 . S
C10 O24 1.251 . S
C10 O25 1.268 . S
C11 Nd1 2.836 . S
C11 C12 1.498 . S
C11 O26 1.258 . S
C11 O27 1.239 . S
C12 C11 1.498 . S
C12 C13 1.366 . S
C12 C17 1.407 . S
C13 C12 1.366 . S
C13 C14 1.392 . S
C13 H36 0.930 . S
C14 C13 1.392 . S
C14 C15 1.398 . S
C14 H37 0.929 . S
C15 C14 1.398 . S
C15 C16 1.352 . S
C16 C15 1.352 . S
C16 C17 1.384 . S
C16 H38 0.930 . S
C17 C12 1.407 . S
C17 C16 1.384 . S
C17 H39 0.929 . S
C18 O28 1.241 . S
C18 O29 1.273 . S
C19 O30 1.251 . S
C19 O31 1.268 . S
O20 Nd0 2.500 . S
O20 C2 1.258 . S
O21 Nd0 2.492 . S
O21 C2 1.239 . S
O22 Nd0 2.487 . S
O22 C9 1.241 . S
O23 Nd0 2.682 . S
O23 Nd1 2.414 . S
O23 C9 1.273 . S
O24 Nd0 2.410 . S
O24 C10 1.251 . S
O25 Nd1 2.424 . S
O25 C10 1.268 . S
O26 Nd1 2.500 . S
O26 C11 1.258 . S
O27 Nd1 2.492 . S
O27 C11 1.239 . S
O28 Nd1 2.487 . S
O28 C18 1.241 . S
O29 Nd0 2.414 . S
O29 Nd1 2.682 . S
O29 C18 1.273 . S
O30 Nd1 2.410 . S
O30 C19 1.251 . S
O31 Nd0 2.424 . S
O31 C19 1.268 . S
H32 C4 0.930 . S
H33 C5 0.929 . S
H34 C7 0.930 . S
H35 C8 0.929 . S
H36 C13 0.930 . S
H37 C14 0.929 . S
H38 C16 0.930 . S
H39 C17 0.929 . S
Nd40 C42 2.836 . S
Nd40 O60 2.500 . S
Nd40 O61 2.492 . S
Nd40 O62 2.487 . S
Nd40 O63 2.682 . S
Nd40 O64 2.410 . S
Nd40 O69 2.414 . S
Nd40 O71 2.424 . S
Nd41 C51 2.836 . S
Nd41 O63 2.414 . S
Nd41 O65 2.424 . S
Nd41 O66 2.500 . S
Nd41 O67 2.492 . S
Nd41 O68 2.487 . S
Nd41 O69 2.682 . S
Nd41 O70 2.410 . S
C42 Nd40 2.836 . S
C42 C43 1.498 . S
C42 O60 1.258 . S
C42 O61 1.239 . S
C43 C42 1.498 . S
C43 C44 1.366 . S
C43 C48 1.407 . S
C44 C43 1.366 . S
C44 C45 1.392 . S
C44 H72 0.930 . S
C45 C44 1.392 . S
C45 C46 1.398 . S
C45 H73 0.929 . S
C46 C45 1.398 . S
C46 C47 1.352 . S
C47 C46 1.352 . S
C47 C48 1.384 . S
C47 H74 0.930 . S
C48 C43 1.407 . S
C48 C47 1.384 . S
C48 H75 0.929 . S
C49 O62 1.241 . S
C49 O63 1.273 . S
C50 O64 1.251 . S
C50 O65 1.268 . S
C51 Nd41 2.836 . S
C51 C52 1.498 . S
C51 O66 1.258 . S
C51 O67 1.239 . S
C52 C51 1.498 . S
C52 C53 1.366 . S
C52 C57 1.407 . S
C53 C52 1.366 . S
C53 C54 1.392 . S
C53 H76 0.930 . S
C54 C53 1.392 . S
C54 C55 1.398 . S
C54 H77 0.929 . S
C55 C54 1.398 . S
C55 C56 1.352 . S
C56 C55 1.352 . S
C56 C57 1.384 . S
C56 H78 0.930 . S
C57 C52 1.407 . S
C57 C56 1.384 . S
C57 H79 0.929 . S
C58 O68 1.241 . S
C58 O69 1.273 . S
C59 O70 1.251 . S
C59 O71 1.268 . S
O60 Nd40 2.500 . S
O60 C42 1.258 . S
O61 Nd40 2.492 . S
O61 C42 1.239 . S
O62 Nd40 2.487 . S
O62 C49 1.241 . S
O63 Nd40 2.682 . S
O63 Nd41 2.414 . S
O63 C49 1.273 . S
O64 Nd40 2.410 . S
O64 C50 1.251 . S
O65 Nd41 2.424 . S
O65 C50 1.268 . S
O66 Nd41 2.500 . S
O66 C51 1.258 . S
O67 Nd41 2.492 . S
O67 C51 1.239 . S
O68 Nd41 2.487 . S
O68 C58 1.241 . S
O69 Nd40 2.414 . S
O69 Nd41 2.682 . S
O69 C58 1.273 . S
O70 Nd41 2.410 . S
O70 C59 1.251 . S
O71 Nd40 2.424 . S
O71 C59 1.268 . S
H72 C44 0.930 . S
H73 C45 0.929 . S
H74 C47 0.930 . S
H75 C48 0.929 . S
H76 C53 0.930 . S
H77 C54 0.929 . S
H78 C56 0.930 . S
H79 C57 0.929 . S
Nd80 C82 2.836 . S
Nd80 O100 2.500 . S
Nd80 O101 2.492 . S
Nd80 O102 2.487 . S
Nd80 O103 2.682 . S
Nd80 O104 2.410 . S
Nd80 O109 2.414 . S
Nd80 O111 2.424 . S
Nd81 C91 2.836 . S
Nd81 O103 2.414 . S
Nd81 O105 2.424 . S
Nd81 O106 2.500 . S
Nd81 O107 2.492 . S
Nd81 O108 2.487 . S
Nd81 O109 2.682 . S
Nd81 O110 2.410 . S
C82 Nd80 2.836 . S
C82 C83 1.498 1_556 S
C82 O100 1.258 . S
C82 O101 1.239 . S
C83 C82 1.498 1_554 S
C83 C84 1.366 . S
C83 C88 1.407 . S
C84 C83 1.366 . S
C84 C85 1.392 . S
C84 H112 0.930 . S
C85 C84 1.392 . S
C85 C86 1.398 . S
C85 H113 0.929 . S
C86 C85 1.398 . S
C86 C87 1.352 . S
C87 C86 1.352 . S
C87 C88 1.384 . S
C87 H114 0.930 . S
C88 C83 1.407 . S
C88 C87 1.384 . S
C88 H115 0.929 . S
C89 O102 1.241 . S
C89 O103 1.273 . S
C90 O104 1.251 . S
C90 O105 1.268 . S
C91 Nd81 2.836 . S
C91 C92 1.498 . S
C91 O106 1.258 . S
C91 O107 1.239 . S
C92 C91 1.498 . S
C92 C93 1.366 . S
C92 C97 1.407 . S
C93 C92 1.366 . S
C93 C94 1.392 . S
C93 H116 0.930 . S
C94 C93 1.392 . S
C94 C95 1.398 . S
C94 H117 0.929 . S
C95 C94 1.398 . S
C95 C96 1.352 . S
C96 C95 1.352 . S
C96 C97 1.384 . S
C96 H118 0.930 . S
C97 C92 1.407 . S
C97 C96 1.384 . S
C97 H119 0.929 . S
C98 O108 1.241 . S
C98 O109 1.273 . S
C99 O110 1.251 . S
C99 O111 1.268 . S
O100 Nd80 2.500 . S
O100 C82 1.258 . S
O101 Nd80 2.492 . S
O101 C82 1.239 . S
O102 Nd80 2.487 . S
O102 C89 1.241 . S
O103 Nd80 2.682 . S
O103 Nd81 2.414 . S
O103 C89 1.273 . S
O104 Nd80 2.410 . S
O104 C90 1.251 . S
O105 Nd81 2.424 . S
O105 C90 1.268 . S
O106 Nd81 2.500 . S
O106 C91 1.258 . S
O107 Nd81 2.492 . S
O107 C91 1.239 . S
O108 Nd81 2.487 . S
O108 C98 1.241 . S
O109 Nd80 2.414 . S
O109 Nd81 2.682 . S
O109 C98 1.273 . S
O110 Nd81 2.410 . S
O110 C99 1.251 . S
O111 Nd80 2.424 . S
O111 C99 1.268 . S
H112 C84 0.930 . S
H113 C85 0.929 . S
H114 C87 0.930 . S
H115 C88 0.929 . S
H116 C93 0.930 . S
H117 C94 0.929 . S
H118 C96 0.930 . S
H119 C97 0.929 . S
Nd120 C122 2.836 . S
Nd120 O140 2.500 . S
Nd120 O141 2.492 . S
Nd120 O142 2.487 . S
Nd120 O143 2.682 . S
Nd120 O144 2.410 . S
Nd120 O149 2.414 . S
Nd120 O151 2.424 . S
Nd121 C131 2.836 . S
Nd121 O143 2.414 . S
Nd121 O145 2.424 . S
Nd121 O146 2.500 . S
Nd121 O147 2.492 . S
Nd121 O148 2.487 . S
Nd121 O149 2.682 . S
Nd121 O150 2.410 . S
C122 Nd120 2.836 . S
C122 C123 1.498 . S
C122 O140 1.258 . S
C122 O141 1.239 . S
C123 C122 1.498 . S
C123 C124 1.366 . S
C123 C128 1.407 . S
C124 C123 1.366 . S
C124 C125 1.392 . S
C124 H152 0.930 . S
C125 C124 1.392 . S
C125 C126 1.398 . S
C125 H153 0.929 . S
C126 C125 1.398 . S
C126 C127 1.352 . S
C127 C126 1.352 . S
C127 C128 1.384 . S
C127 H154 0.930 . S
C128 C123 1.407 . S
C128 C127 1.384 . S
C128 H155 0.929 . S
C129 O142 1.241 . S
C129 O143 1.273 . S
C130 O144 1.251 . S
C130 O145 1.268 . S
C131 Nd121 2.836 . S
C131 C132 1.498 . S
C131 O146 1.258 . S
C131 O147 1.239 . S
C132 C131 1.498 . S
C132 C133 1.366 . S
C132 C137 1.407 . S
C133 C132 1.366 . S
C133 C134 1.392 . S
C133 H156 0.930 . S
C134 C133 1.392 . S
C134 C135 1.398 . S
C134 H157 0.929 . S
C135 C134 1.398 . S
C135 C136 1.352 . S
C136 C135 1.352 . S
C136 C137 1.384 . S
C136 H158 0.930 . S
C137 C132 1.407 . S
C137 C136 1.384 . S
C137 H159 0.929 . S
C138 O148 1.241 . S
C138 O149 1.273 . S
C139 O150 1.251 . S
C139 O151 1.268 . S
O140 Nd120 2.500 . S
O140 C122 1.258 . S
O141 Nd120 2.492 . S
O141 C122 1.239 . S
O142 Nd120 2.487 . S
O142 C129 1.241 . S
O143 Nd120 2.682 . S
O143 Nd121 2.414 . S
O143 C129 1.273 . S
O144 Nd120 2.410 . S
O144 C130 1.251 . S
O145 Nd121 2.424 . S
O145 C130 1.268 . S
O146 Nd121 2.500 . S
O146 C131 1.258 . S
O147 Nd121 2.492 . S
O147 C131 1.239 . S
O148 Nd121 2.487 . S
O148 C138 1.241 . S
O149 Nd120 2.414 . S
O149 Nd121 2.682 . S
O149 C138 1.273 . S
O150 Nd121 2.410 . S
O150 C139 1.251 . S
O151 Nd120 2.424 . S
O151 C139 1.268 . S
H152 C124 0.930 . S
H153 C125 0.929 . S
H154 C127 0.930 . S
H155 C128 0.929 . S
H156 C133 0.930 . S
H157 C134 0.929 . S
H158 C136 0.930 . S
H159 C137 0.929 . S
Nd160 C162 2.836 . S
Nd160 O180 2.500 . S
Nd160 O181 2.492 . S
Nd160 O182 2.487 . S
Nd160 O183 2.682 . S
Nd160 O184 2.410 . S
Nd160 O189 2.414 . S
Nd160 O191 2.424 . S
Nd161 C171 2.836 . S
Nd161 O183 2.414 . S
Nd161 O185 2.424 . S
Nd161 O186 2.500 . S
Nd161 O187 2.492 . S
Nd161 O188 2.487 . S
Nd161 O189 2.682 . S
Nd161 O190 2.410 . S
C162 Nd160 2.836 . S
C162 C163 1.498 . S
C162 O180 1.258 . S
C162 O181 1.239 . S
C163 C162 1.498 . S
C163 C164 1.366 . S
C163 C168 1.407 . S
C164 C163 1.366 . S
C164 C165 1.392 . S
C164 H192 0.930 . S
C165 C164 1.392 . S
C165 C166 1.398 . S
C165 H193 0.929 . S
C166 C165 1.398 . S
C166 C167 1.352 . S
C167 C166 1.352 . S
C167 C168 1.384 . S
C167 H194 0.930 . S
C168 C163 1.407 . S
C168 C167 1.384 . S
C168 H195 0.929 . S
C169 O182 1.241 . S
C169 O183 1.273 . S
C170 O184 1.251 . S
C170 O185 1.268 . S
C171 Nd161 2.836 . S
C171 C172 1.498 . S
C171 O186 1.258 . S
C171 O187 1.239 . S
C172 C171 1.498 . S
C172 C173 1.366 . S
C172 C177 1.407 . S
C173 C172 1.366 . S
C173 C174 1.392 . S
C173 H196 0.930 . S
C174 C173 1.392 . S
C174 C175 1.398 . S
C174 H197 0.929 . S
C175 C174 1.398 . S
C175 C176 1.352 . S
C176 C175 1.352 . S
C176 C177 1.384 . S
C176 H198 0.930 . S
C177 C172 1.407 . S
C177 C176 1.384 . S
C177 H199 0.929 . S
C178 O188 1.241 . S
C178 O189 1.273 . S
C179 O190 1.251 . S
C179 O191 1.268 . S
O180 Nd160 2.500 . S
O180 C162 1.258 . S
O181 Nd160 2.492 . S
O181 C162 1.239 . S
O182 Nd160 2.487 . S
O182 C169 1.241 . S
O183 Nd160 2.682 . S
O183 Nd161 2.414 . S
O183 C169 1.273 . S
O184 Nd160 2.410 . S
O184 C170 1.251 . S
O185 Nd161 2.424 . S
O185 C170 1.268 . S
O186 Nd161 2.500 . S
O186 C171 1.258 . S
O187 Nd161 2.492 . S
O187 C171 1.239 . S
O188 Nd161 2.487 . S
O188 C178 1.241 . S
O189 Nd160 2.414 . S
O189 Nd161 2.682 . S
O189 C178 1.273 . S
O190 Nd161 2.410 . S
O190 C179 1.251 . S
O191 Nd160 2.424 . S
O191 C179 1.268 . S
H192 C164 0.930 . S
H193 C165 0.929 . S
H194 C167 0.930 . S
H195 C168 0.929 . S
H196 C173 0.930 . S
H197 C174 0.929 . S
H198 C176 0.930 . S
H199 C177 0.929 . S
Nd200 C202 2.836 . S
Nd200 O220 2.500 . S
Nd200 O221 2.492 . S
Nd200 O222 2.487 . S
Nd200 O223 2.682 . S
Nd200 O224 2.410 . S
Nd200 O229 2.414 . S
Nd200 O231 2.424 . S
Nd201 C211 2.836 . S
Nd201 O223 2.414 . S
Nd201 O225 2.424 . S
Nd201 O226 2.500 . S
Nd201 O227 2.492 . S
Nd201 O228 2.487 . S
Nd201 O229 2.682 . S
Nd201 O230 2.410 . S
C202 Nd200 2.836 . S
C202 C203 1.498 1_556 S
C202 O220 1.258 . S
C202 O221 1.239 . S
C203 C202 1.498 1_554 S
C203 C204 1.366 . S
C203 C208 1.407 . S
C204 C203 1.366 . S
C204 C205 1.392 . S
C204 H232 0.930 . S
C205 C204 1.392 . S
C205 C206 1.398 . S
C205 H233 0.929 . S
C206 C205 1.398 . S
C206 C207 1.352 . S
C207 C206 1.352 . S
C207 C208 1.384 . S
C207 H234 0.930 . S
C208 C203 1.407 . S
C208 C207 1.384 . S
C208 H235 0.929 . S
C209 O222 1.241 . S
C209 O223 1.273 . S
C210 O224 1.251 . S
C210 O225 1.268 . S
C211 Nd201 2.836 . S
C211 C212 1.498 . S
C211 O226 1.258 . S
C211 O227 1.239 . S
C212 C211 1.498 . S
C212 C213 1.366 . S
C212 C217 1.407 . S
C213 C212 1.366 . S
C213 C214 1.392 . S
C213 H236 0.930 . S
C214 C213 1.392 . S
C214 C215 1.398 . S
C214 H237 0.929 . S
C215 C214 1.398 . S
C215 C216 1.352 . S
C216 C215 1.352 . S
C216 C217 1.384 . S
C216 H238 0.930 . S
C217 C212 1.407 . S
C217 C216 1.384 . S
C217 H239 0.929 . S
C218 O228 1.241 . S
C218 O229 1.273 . S
C219 O230 1.251 . S
C219 O231 1.268 . S
O220 Nd200 2.500 . S
O220 C202 1.258 . S
O221 Nd200 2.492 . S
O221 C202 1.239 . S
O222 Nd200 2.487 . S
O222 C209 1.241 . S
O223 Nd200 2.682 . S
O223 Nd201 2.414 . S
O223 C209 1.273 . S
O224 Nd200 2.410 . S
O224 C210 1.251 . S
O225 Nd201 2.424 . S
O225 C210 1.268 . S
O226 Nd201 2.500 . S
O226 C211 1.258 . S
O227 Nd201 2.492 . S
O227 C211 1.239 . S
O228 Nd201 2.487 . S
O228 C218 1.241 . S
O229 Nd200 2.414 . S
O229 Nd201 2.682 . S
O229 C218 1.273 . S
O230 Nd201 2.410 . S
O230 C219 1.251 . S
O231 Nd200 2.424 . S
O231 C219 1.268 . S
H232 C204 0.930 . S
H233 C205 0.929 . S
H234 C207 0.930 . S
H235 C208 0.929 . S
H236 C213 0.930 . S
H237 C214 0.929 . S
H238 C216 0.930 . S
H239 C217 0.929 . S
Nd240 C242 2.836 . S
Nd240 O260 2.500 . S
Nd240 O261 2.492 . S
Nd240 O262 2.487 . S
Nd240 O263 2.682 . S
Nd240 O264 2.410 . S
Nd240 O269 2.414 . S
Nd240 O271 2.424 . S
Nd241 C251 2.836 . S
Nd241 O263 2.414 . S
Nd241 O265 2.424 . S
Nd241 O266 2.500 . S
Nd241 O267 2.492 . S
Nd241 O268 2.487 . S
Nd241 O269 2.682 . S
Nd241 O270 2.410 . S
C242 Nd240 2.836 . S
C242 C243 1.498 . S
C242 O260 1.258 . S
C242 O261 1.239 . S
C243 C242 1.498 . S
C243 C244 1.366 . S
C243 C248 1.407 . S
C244 C243 1.366 . S
C244 C245 1.392 . S
C244 H272 0.930 . S
C245 C244 1.392 . S
C245 C246 1.398 . S
C245 H273 0.929 . S
C246 C245 1.398 . S
C246 C247 1.352 . S
C247 C246 1.352 . S
C247 C248 1.384 . S
C247 H274 0.930 . S
C248 C243 1.407 . S
C248 C247 1.384 . S
C248 H275 0.929 . S
C249 O262 1.241 . S
C249 O263 1.273 . S
C250 O264 1.251 . S
C250 O265 1.268 . S
C251 Nd241 2.836 . S
C251 C252 1.498 . S
C251 O266 1.258 . S
C251 O267 1.239 . S
C252 C251 1.498 . S
C252 C253 1.366 . S
C252 C257 1.407 . S
C253 C252 1.366 . S
C253 C254 1.392 . S
C253 H276 0.930 . S
C254 C253 1.392 . S
C254 C255 1.398 . S
C254 H277 0.929 . S
C255 C254 1.398 . S
C255 C256 1.352 . S
C256 C255 1.352 . S
C256 C257 1.384 . S
C256 H278 0.930 . S
C257 C252 1.407 . S
C257 C256 1.384 . S
C257 H279 0.929 . S
C258 O268 1.241 . S
C258 O269 1.273 . S
C259 O270 1.251 . S
C259 O271 1.268 . S
O260 Nd240 2.500 . S
O260 C242 1.258 . S
O261 Nd240 2.492 . S
O261 C242 1.239 . S
O262 Nd240 2.487 . S
O262 C249 1.241 . S
O263 Nd240 2.682 . S
O263 Nd241 2.414 . S
O263 C249 1.273 . S
O264 Nd240 2.410 . S
O264 C250 1.251 . S
O265 Nd241 2.424 . S
O265 C250 1.268 . S
O266 Nd241 2.500 . S
O266 C251 1.258 . S
O267 Nd241 2.492 . S
O267 C251 1.239 . S
O268 Nd241 2.487 . S
O268 C258 1.241 . S
O269 Nd240 2.414 . S
O269 Nd241 2.682 . S
O269 C258 1.273 . S
O270 Nd241 2.410 . S
O270 C259 1.251 . S
O271 Nd240 2.424 . S
O271 C259 1.268 . S
H272 C244 0.930 . S
H273 C245 0.929 . S
H274 C247 0.930 . S
H275 C248 0.929 . S
H276 C253 0.930 . S
H277 C254 0.929 . S
H278 C256 0.930 . S
H279 C257 0.929 . S
Nd280 C282 2.836 . S
Nd280 O300 2.500 . S
Nd280 O301 2.492 . S
Nd280 O302 2.487 . S
Nd280 O303 2.682 . S
Nd280 O304 2.410 . S
Nd280 O309 2.414 . S
Nd280 O311 2.424 . S
Nd281 C291 2.836 . S
Nd281 O303 2.414 . S
Nd281 O305 2.424 . S
Nd281 O306 2.500 . S
Nd281 O307 2.492 . S
Nd281 O308 2.487 . S
Nd281 O309 2.682 . S
Nd281 O310 2.410 . S
C282 Nd280 2.836 . S
C282 C283 1.498 . S
C282 O300 1.258 . S
C282 O301 1.239 . S
C283 C282 1.498 . S
C283 C284 1.366 . S
C283 C288 1.407 . S
C284 C283 1.366 . S
C284 C285 1.392 . S
C284 H312 0.930 . S
C285 C284 1.392 . S
C285 C286 1.398 . S
C285 H313 0.929 . S
C286 C285 1.398 . S
C286 C287 1.352 . S
C287 C286 1.352 . S
C287 C288 1.384 . S
C287 H314 0.930 . S
C288 C283 1.407 . S
C288 C287 1.384 . S
C288 H315 0.929 . S
C289 O302 1.241 . S
C289 O303 1.273 . S
C290 O304 1.251 . S
C290 O305 1.268 . S
C291 Nd281 2.836 . S
C291 C292 1.498 . S
C291 O306 1.258 . S
C291 O307 1.239 . S
C292 C291 1.498 . S
C292 C293 1.366 . S
C292 C297 1.407 . S
C293 C292 1.366 . S
C293 C294 1.392 . S
C293 H316 0.930 . S
C294 C293 1.392 . S
C294 C295 1.398 . S
C294 H317 0.929 . S
C295 C294 1.398 . S
C295 C296 1.352 . S
C296 C295 1.352 . S
C296 C297 1.384 . S
C296 H318 0.930 . S
C297 C292 1.407 . S
C297 C296 1.384 . S
C297 H319 0.929 . S
C298 O308 1.241 . S
C298 O309 1.273 . S
C299 O310 1.251 . S
C299 O311 1.268 . S
O300 Nd280 2.500 . S
O300 C282 1.258 . S
O301 Nd280 2.492 . S
O301 C282 1.239 . S
O302 Nd280 2.487 . S
O302 C289 1.241 . S
O303 Nd280 2.682 . S
O303 Nd281 2.414 . S
O303 C289 1.273 . S
O304 Nd280 2.410 . S
O304 C290 1.251 . S
O305 Nd281 2.424 . S
O305 C290 1.268 . S
O306 Nd281 2.500 . S
O306 C291 1.258 . S
O307 Nd281 2.492 . S
O307 C291 1.239 . S
O308 Nd281 2.487 . S
O308 C298 1.241 . S
O309 Nd280 2.414 . S
O309 Nd281 2.682 . S
O309 C298 1.273 . S
O310 Nd281 2.410 . S
O310 C299 1.251 . S
O311 Nd280 2.424 . S
O311 C299 1.268 . S
H312 C284 0.930 . S
H313 C285 0.929 . S
H314 C287 0.930 . S
H315 C288 0.929 . S
H316 C293 0.930 . S
H317 C294 0.929 . S
H318 C296 0.930 . S
H319 C297 0.929 . S
Nd320 C322 2.836 . S
Nd320 O340 2.500 . S
Nd320 O341 2.492 . S
Nd320 O342 2.487 . S
Nd320 O343 2.682 . S
Nd320 O344 2.410 . S
Nd320 O349 2.414 . S
Nd320 O351 2.424 . S
Nd321 C331 2.836 . S
Nd321 O343 2.414 . S
Nd321 O345 2.424 . S
Nd321 O346 2.500 . S
Nd321 O347 2.492 . S
Nd321 O348 2.487 . S
Nd321 O349 2.682 . S
Nd321 O350 2.410 . S
C322 Nd320 2.836 . S
C322 C323 1.498 1_554 S
C322 O340 1.258 . S
C322 O341 1.239 . S
C323 C322 1.498 1_556 S
C323 C324 1.366 . S
C323 C328 1.407 . S
C324 C323 1.366 . S
C324 C325 1.392 . S
C324 H352 0.930 . S
C325 C324 1.392 . S
C325 C326 1.398 . S
C325 H353 0.929 . S
C326 C325 1.398 . S
C326 C327 1.352 . S
C327 C326 1.352 . S
C327 C328 1.384 . S
C327 H354 0.930 . S
C328 C323 1.407 . S
C328 C327 1.384 . S
C328 H355 0.929 . S
C329 O342 1.241 . S
C329 O343 1.273 . S
C330 O344 1.251 . S
C330 O345 1.268 . S
C331 Nd321 2.836 . S
C331 C332 1.498 . S
C331 O346 1.258 . S
C331 O347 1.239 . S
C332 C331 1.498 . S
C332 C333 1.366 . S
C332 C337 1.407 . S
C333 C332 1.366 . S
C333 C334 1.392 . S
C333 H356 0.930 . S
C334 C333 1.392 . S
C334 C335 1.398 . S
C334 H357 0.929 . S
C335 C334 1.398 . S
C335 C336 1.352 . S
C336 C335 1.352 . S
C336 C337 1.384 . S
C336 H358 0.930 . S
C337 C332 1.407 . S
C337 C336 1.384 . S
C337 H359 0.929 . S
C338 O348 1.241 . S
C338 O349 1.273 . S
C339 O350 1.251 . S
C339 O351 1.268 . S
O340 Nd320 2.500 . S
O340 C322 1.258 . S
O341 Nd320 2.492 . S
O341 C322 1.239 . S
O342 Nd320 2.487 . S
O342 C329 1.241 . S
O343 Nd320 2.682 . S
O343 Nd321 2.414 . S
O343 C329 1.273 . S
O344 Nd320 2.410 . S
O344 C330 1.251 . S
O345 Nd321 2.424 . S
O345 C330 1.268 . S
O346 Nd321 2.500 . S
O346 C331 1.258 . S
O347 Nd321 2.492 . S
O347 C331 1.239 . S
O348 Nd321 2.487 . S
O348 C338 1.241 . S
O349 Nd320 2.414 . S
O349 Nd321 2.682 . S
O349 C338 1.273 . S
O350 Nd321 2.410 . S
O350 C339 1.251 . S
O351 Nd320 2.424 . S
O351 C339 1.268 . S
H352 C324 0.930 . S
H353 C325 0.929 . S
H354 C327 0.930 . S
H355 C328 0.929 . S
H356 C333 0.930 . S
H357 C334 0.929 . S
H358 C336 0.930 . S
H359 C337 0.929 . S
Nd360 C362 2.836 . S
Nd360 O380 2.500 . S
Nd360 O381 2.492 . S
Nd360 O382 2.487 . S
Nd360 O383 2.682 . S
Nd360 O384 2.410 . S
Nd360 O389 2.414 . S
Nd360 O391 2.424 . S
Nd361 C371 2.836 . S
Nd361 O383 2.414 . S
Nd361 O385 2.424 . S
Nd361 O386 2.500 . S
Nd361 O387 2.492 . S
Nd361 O388 2.487 . S
Nd361 O389 2.682 . S
Nd361 O390 2.410 . S
C362 Nd360 2.836 . S
C362 C363 1.498 . S
C362 O380 1.258 . S
C362 O381 1.239 . S
C363 C362 1.498 . S
C363 C364 1.366 . S
C363 C368 1.407 . S
C364 C363 1.366 . S
C364 C365 1.392 . S
C364 H392 0.930 . S
C365 C364 1.392 . S
C365 C366 1.398 . S
C365 H393 0.929 . S
C366 C365 1.398 . S
C366 C367 1.352 . S
C367 C366 1.352 . S
C367 C368 1.384 . S
C367 H394 0.930 . S
C368 C363 1.407 . S
C368 C367 1.384 . S
C368 H395 0.929 . S
C369 O382 1.241 . S
C369 O383 1.273 . S
C370 O384 1.251 . S
C370 O385 1.268 . S
C371 Nd361 2.836 . S
C371 C372 1.498 . S
C371 O386 1.258 . S
C371 O387 1.239 . S
C372 C371 1.498 . S
C372 C373 1.366 . S
C372 C377 1.407 . S
C373 C372 1.366 . S
C373 C374 1.392 . S
C373 H396 0.930 . S
C374 C373 1.392 . S
C374 C375 1.398 . S
C374 H397 0.929 . S
C375 C374 1.398 . S
C375 C376 1.352 . S
C376 C375 1.352 . S
C376 C377 1.384 . S
C376 H398 0.930 . S
C377 C372 1.407 . S
C377 C376 1.384 . S
C377 H399 0.929 . S
C378 O388 1.241 . S
C378 O389 1.273 . S
C379 O390 1.251 . S
C379 O391 1.268 . S
O380 Nd360 2.500 . S
O380 C362 1.258 . S
O381 Nd360 2.492 . S
O381 C362 1.239 . S
O382 Nd360 2.487 . S
O382 C369 1.241 . S
O383 Nd360 2.682 . S
O383 Nd361 2.414 . S
O383 C369 1.273 . S
O384 Nd360 2.410 . S
O384 C370 1.251 . S
O385 Nd361 2.424 . S
O385 C370 1.268 . S
O386 Nd361 2.500 . S
O386 C371 1.258 . S
O387 Nd361 2.492 . S
O387 C371 1.239 . S
O388 Nd361 2.487 . S
O388 C378 1.241 . S
O389 Nd360 2.414 . S
O389 Nd361 2.682 . S
O389 C378 1.273 . S
O390 Nd361 2.410 . S
O390 C379 1.251 . S
O391 Nd360 2.424 . S
O391 C379 1.268 . S
H392 C364 0.930 . S
H393 C365 0.929 . S
H394 C367 0.930 . S
H395 C368 0.929 . S
H396 C373 0.930 . S
H397 C374 0.929 . S
H398 C376 0.930 . S
H399 C377 0.929 . S
Nd400 C402 2.836 . S
Nd400 O420 2.500 . S
Nd400 O421 2.492 . S
Nd400 O422 2.487 . S
Nd400 O423 2.682 . S
Nd400 O424 2.410 . S
Nd400 O429 2.414 . S
Nd400 O431 2.424 . S
Nd401 C411 2.836 . S
Nd401 O423 2.414 . S
Nd401 O425 2.424 . S
Nd401 O426 2.500 . S
Nd401 O427 2.492 . S
Nd401 O428 2.487 . S
Nd401 O429 2.682 . S
Nd401 O430 2.410 . S
C402 Nd400 2.836 . S
C402 C403 1.498 . S
C402 O420 1.258 . S
C402 O421 1.239 . S
C403 C402 1.498 . S
C403 C404 1.366 . S
C403 C408 1.407 . S
C404 C403 1.366 . S
C404 C405 1.392 . S
C404 H432 0.930 . S
C405 C404 1.392 . S
C405 C406 1.398 . S
C405 H433 0.929 . S
C406 C405 1.398 . S
C406 C407 1.352 . S
C407 C406 1.352 . S
C407 C408 1.384 . S
C407 H434 0.930 . S
C408 C403 1.407 . S
C408 C407 1.384 . S
C408 H435 0.929 . S
C409 O422 1.241 . S
C409 O423 1.273 . S
C410 O424 1.251 . S
C410 O425 1.268 . S
C411 Nd401 2.836 . S
C411 C412 1.498 . S
C411 O426 1.258 . S
C411 O427 1.239 . S
C412 C411 1.498 . S
C412 C413 1.366 . S
C412 C417 1.407 . S
C413 C412 1.366 . S
C413 C414 1.392 . S
C413 H436 0.930 . S
C414 C413 1.392 . S
C414 C415 1.398 . S
C414 H437 0.929 . S
C415 C414 1.398 . S
C415 C416 1.352 . S
C416 C415 1.352 . S
C416 C417 1.384 . S
C416 H438 0.930 . S
C417 C412 1.407 . S
C417 C416 1.384 . S
C417 H439 0.929 . S
C418 O428 1.241 . S
C418 O429 1.273 . S
C419 O430 1.251 . S
C419 O431 1.268 . S
O420 Nd400 2.500 . S
O420 C402 1.258 . S
O421 Nd400 2.492 . S
O421 C402 1.239 . S
O422 Nd400 2.487 . S
O422 C409 1.241 . S
O423 Nd400 2.682 . S
O423 Nd401 2.414 . S
O423 C409 1.273 . S
O424 Nd400 2.410 . S
O424 C410 1.251 . S
O425 Nd401 2.424 . S
O425 C410 1.268 . S
O426 Nd401 2.500 . S
O426 C411 1.258 . S
O427 Nd401 2.492 . S
O427 C411 1.239 . S
O428 Nd401 2.487 . S
O428 C418 1.241 . S
O429 Nd400 2.414 . S
O429 Nd401 2.682 . S
O429 C418 1.273 . S
O430 Nd401 2.410 . S
O430 C419 1.251 . S
O431 Nd400 2.424 . S
O431 C419 1.268 . S
H432 C404 0.930 . S
H433 C405 0.929 . S
H434 C407 0.930 . S
H435 C408 0.929 . S
H436 C413 0.930 . S
H437 C414 0.929 . S
H438 C416 0.930 . S
H439 C417 0.929 . S
Nd440 C442 2.836 . S
Nd440 O460 2.500 . S
Nd440 O461 2.492 . S
Nd440 O462 2.487 . S
Nd440 O463 2.682 . S
Nd440 O464 2.410 . S
Nd440 O469 2.414 . S
Nd440 O471 2.424 . S
Nd441 C451 2.836 . S
Nd441 O463 2.414 . S
Nd441 O465 2.424 . S
Nd441 O466 2.500 . S
Nd441 O467 2.492 . S
Nd441 O468 2.487 . S
Nd441 O469 2.682 . S
Nd441 O470 2.410 . S
C442 Nd440 2.836 . S
C442 C443 1.498 1_554 S
C442 O460 1.258 . S
C442 O461 1.239 . S
C443 C442 1.498 1_556 S
C443 C444 1.366 . S
C443 C448 1.407 . S
C444 C443 1.366 . S
C444 C445 1.392 . S
C444 H472 0.930 . S
C445 C444 1.392 . S
C445 C446 1.398 . S
C445 H473 0.929 . S
C446 C445 1.398 . S
C446 C447 1.352 . S
C447 C446 1.352 . S
C447 C448 1.384 . S
C447 H474 0.930 . S
C448 C443 1.407 . S
C448 C447 1.384 . S
C448 H475 0.929 . S
C449 O462 1.241 . S
C449 O463 1.273 . S
C450 O464 1.251 . S
C450 O465 1.268 . S
C451 Nd441 2.836 . S
C451 C452 1.498 . S
C451 O466 1.258 . S
C451 O467 1.239 . S
C452 C451 1.498 . S
C452 C453 1.366 . S
C452 C457 1.407 . S
C453 C452 1.366 . S
C453 C454 1.392 . S
C453 H476 0.930 . S
C454 C453 1.392 . S
C454 C455 1.398 . S
C454 H477 0.929 . S
C455 C454 1.398 . S
C455 C456 1.352 . S
C456 C455 1.352 . S
C456 C457 1.384 . S
C456 H478 0.930 . S
C457 C452 1.407 . S
C457 C456 1.384 . S
C457 H479 0.929 . S
C458 O468 1.241 . S
C458 O469 1.273 . S
C459 O470 1.251 . S
C459 O471 1.268 . S
O460 Nd440 2.500 . S
O460 C442 1.258 . S
O461 Nd440 2.492 . S
O461 C442 1.239 . S
O462 Nd440 2.487 . S
O462 C449 1.241 . S
O463 Nd440 2.682 . S
O463 Nd441 2.414 . S
O463 C449 1.273 . S
O464 Nd440 2.410 . S
O464 C450 1.251 . S
O465 Nd441 2.424 . S
O465 C450 1.268 . S
O466 Nd441 2.500 . S
O466 C451 1.258 . S
O467 Nd441 2.492 . S
O467 C451 1.239 . S
O468 Nd441 2.487 . S
O468 C458 1.241 . S
O469 Nd440 2.414 . S
O469 Nd441 2.682 . S
O469 C458 1.273 . S
O470 Nd441 2.410 . S
O470 C459 1.251 . S
O471 Nd440 2.424 . S
O471 C459 1.268 . S
H472 C444 0.930 . S
H473 C445 0.929 . S
H474 C447 0.930 . S
H475 C448 0.929 . S
H476 C453 0.930 . S
H477 C454 0.929 . S
H478 C456 0.930 . S
H479 C457 0.929 . S
C480 C481 1.349 . S
C480 C482 1.327 . S
C480 H505 0.950 . S
C481 C480 1.349 . S
C481 C497 1.349 . S
C482 C480 1.327 . S
C482 C501 1.429 . S
C482 H506 0.950 . S
C483 C500 1.574 . S
C483 C502 1.368 . S
C483 H507 0.949 . S
H484 C488 0.949 . S
C485 C486 1.349 . S
C485 C487 1.327 . S
C485 H508 0.950 . S
C486 C485 1.349 . S
C486 C498 1.349 . S
C487 C485 1.327 . S
C487 C503 1.429 . S
C487 H509 0.950 . S
C488 H484 0.949 . S
C488 C496 1.574 . S
C488 C504 1.368 . S
H489 C497 0.950 . S
H490 C495 0.950 . S
H491 C496 0.949 . S
H492 C498 0.950 . S
H493 C499 0.950 . S
H494 C500 0.949 . S
C495 H490 0.950 . S
C495 C497 1.327 . S
C495 C501 1.429 . S
C496 C488 1.574 . S
C496 H491 0.949 . S
C496 C502 1.368 . S
C497 C481 1.349 . S
C497 H489 0.950 . S
C497 C495 1.327 . S
C498 C486 1.349 . S
C498 H492 0.950 . S
C498 C499 1.327 . S
C499 H493 0.950 . S
C499 C498 1.327 . S
C499 C503 1.429 . S
C500 C483 1.574 . S
C500 H494 0.949 . S
C500 C504 1.368 . S
C501 C482 1.429 . S
C501 C495 1.429 . S
C501 C502 1.523 . S
C502 C483 1.368 . S
C502 C496 1.368 . S
C502 C501 1.523 . S
C503 C487 1.429 . S
C503 C499 1.429 . S
C503 C504 1.523 . S
C504 C488 1.368 . S
C504 C500 1.368 . S
C504 C503 1.523 . S
H505 C480 0.950 . S
H506 C482 0.950 . S
H507 C483 0.949 . S
H508 C485 0.950 . S
H509 C487 0.950 . S
C510 C511 1.349 . S
C510 C512 1.327 . S
C510 H535 0.950 . S
C511 C510 1.349 . S
C511 C527 1.349 . S
C512 C510 1.327 . S
C512 C531 1.429 . S
C512 H536 0.950 . S
C513 C530 1.574 . S
C513 C532 1.368 . S
C513 H537 0.949 . S
H514 C518 0.949 . S
C515 C516 1.349 . S
C515 C517 1.327 . S
C515 H538 0.950 . S
C516 C515 1.349 . S
C516 C528 1.349 . S
C517 C515 1.327 . S
C517 C533 1.429 . S
C517 H539 0.950 . S
C518 H514 0.949 . S
C518 C526 1.574 . S
C518 C534 1.368 . S
H519 C527 0.950 . S
H520 C525 0.950 . S
H521 C526 0.949 . S
H522 C528 0.950 . S
H523 C529 0.950 . S
H524 C530 0.949 . S
C525 H520 0.950 . S
C525 C527 1.327 . S
C525 C531 1.429 . S
C526 C518 1.574 . S
C526 H521 0.949 . S
C526 C532 1.368 . S
C527 C511 1.349 . S
C527 H519 0.950 . S
C527 C525 1.327 . S
C528 C516 1.349 . S
C528 H522 0.950 . S
C528 C529 1.327 . S
C529 H523 0.950 . S
C529 C528 1.327 . S
C529 C533 1.429 . S
C530 C513 1.574 . S
C530 H524 0.949 . S
C530 C534 1.368 . S
C531 C512 1.429 . S
C531 C525 1.429 . S
C531 C532 1.523 . S
C532 C513 1.368 . S
C532 C526 1.368 . S
C532 C531 1.523 . S
C533 C517 1.429 . S
C533 C529 1.429 . S
C533 C534 1.523 . S
C534 C518 1.368 . S
C534 C530 1.368 . S
C534 C533 1.523 . S
H535 C510 0.950 . S
H536 C512 0.950 . S
H537 C513 0.949 . S
H538 C515 0.950 . S
H539 C517 0.950 . S
C540 C541 1.349 . S
C540 C542 1.327 . S
C540 H565 0.950 . S
C541 C540 1.349 . S
C541 C557 1.349 . S
C542 C540 1.327 . S
C542 C561 1.429 . S
C542 H566 0.950 . S
C543 C560 1.574 . S
C543 C562 1.368 . S
C543 H567 0.949 . S
H544 C548 0.949 . S
C545 C546 1.349 . S
C545 C547 1.327 . S
C545 H568 0.950 . S
C546 C545 1.349 . S
C546 C558 1.349 . S
C547 C545 1.327 . S
C547 C563 1.429 . S
C547 H569 0.950 . S
C548 H544 0.949 . S
C548 C556 1.574 . S
C548 C564 1.368 . S
H549 C557 0.950 . S
H550 C555 0.950 . S
H551 C556 0.949 . S
H552 C558 0.950 . S
H553 C559 0.950 . S
H554 C560 0.949 . S
C555 H550 0.950 . S
C555 C557 1.327 . S
C555 C561 1.429 . S
C556 C548 1.574 . S
C556 H551 0.949 . S
C556 C562 1.368 . S
C557 C541 1.349 . S
C557 H549 0.950 . S
C557 C555 1.327 . S
C558 C546 1.349 . S
C558 H552 0.950 . S
C558 C559 1.327 . S
C559 H553 0.950 . S
C559 C558 1.327 . S
C559 C563 1.429 . S
C560 C543 1.574 . S
C560 H554 0.949 . S
C560 C564 1.368 . S
C561 C542 1.429 . S
C561 C555 1.429 . S
C561 C562 1.523 . S
C562 C543 1.368 . S
C562 C556 1.368 . S
C562 C561 1.523 . S
C563 C547 1.429 . S
C563 C559 1.429 . S
C563 C564 1.523 . S
C564 C548 1.368 . S
C564 C560 1.368 . S
C564 C563 1.523 . S
H565 C540 0.950 . S
H566 C542 0.950 . S
H567 C543 0.949 . S
H568 C545 0.950 . S
H569 C547 0.950 . S
C570 C571 1.349 . S
C570 C572 1.327 . S
C570 H595 0.950 . S
C571 C570 1.349 . S
C571 C587 1.349 . S
C572 C570 1.327 . S
C572 C591 1.429 . S
C572 H596 0.950 . S
C573 C590 1.574 . S
C573 C592 1.368 . S
C573 H597 0.949 . S
H574 C578 0.949 . S
C575 C576 1.349 . S
C575 C577 1.327 . S
C575 H598 0.950 . S
C576 C575 1.349 . S
C576 C588 1.349 . S
C577 C575 1.327 . S
C577 C593 1.429 . S
C577 H599 0.950 . S
C578 H574 0.949 . S
C578 C586 1.574 . S
C578 C594 1.368 . S
H579 C587 0.950 . S
H580 C585 0.950 . S
H581 C586 0.949 . S
H582 C588 0.950 . S
H583 C589 0.950 . S
H584 C590 0.949 . S
C585 H580 0.950 . S
C585 C587 1.327 . S
C585 C591 1.429 . S
C586 C578 1.574 . S
C586 H581 0.949 . S
C586 C592 1.368 . S
C587 C571 1.349 . S
C587 H579 0.950 . S
C587 C585 1.327 . S
C588 C576 1.349 . S
C588 H582 0.950 . S
C588 C589 1.327 . S
C589 H583 0.950 . S
C589 C588 1.327 . S
C589 C593 1.429 . S
C590 C573 1.574 . S
C590 H584 0.949 . S
C590 C594 1.368 . S
C591 C572 1.429 . S
C591 C585 1.429 . S
C591 C592 1.523 . S
C592 C573 1.368 . S
C592 C586 1.368 . S
C592 C591 1.523 . S
C593 C577 1.429 . S
C593 C589 1.429 . S
C593 C594 1.523 . S
C594 C578 1.368 . S
C594 C590 1.368 . S
C594 C593 1.523 . S
H595 C570 0.950 . S
H596 C572 0.950 . S
H597 C573 0.949 . S
H598 C575 0.950 . S
H599 C577 0.950 . S
C600 C601 1.349 . S
C600 C602 1.327 . S
C600 H625 0.950 . S
C601 C600 1.349 . S
C601 C617 1.349 . S
C602 C600 1.327 . S
C602 C621 1.429 . S
C602 H626 0.950 . S
C603 C620 1.574 . S
C603 C622 1.368 . S
C603 H627 0.949 . S
H604 C608 0.949 . S
C605 C606 1.349 . S
C605 C607 1.327 . S
C605 H628 0.950 . S
C606 C605 1.349 . S
C606 C618 1.349 . S
C607 C605 1.327 . S
C607 C623 1.429 . S
C607 H629 0.950 . S
C608 H604 0.949 . S
C608 C616 1.574 . S
C608 C624 1.368 . S
H609 C617 0.950 . S
H610 C615 0.950 . S
H611 C616 0.949 . S
H612 C618 0.950 . S
H613 C619 0.950 . S
H614 C620 0.949 . S
C615 H610 0.950 . S
C615 C617 1.327 . S
C615 C621 1.429 . S
C616 C608 1.574 . S
C616 H611 0.949 . S
C616 C622 1.368 . S
C617 C601 1.349 . S
C617 H609 0.950 . S
C617 C615 1.327 . S
C618 C606 1.349 . S
C618 H612 0.950 . S
C618 C619 1.327 . S
C619 H613 0.950 . S
C619 C618 1.327 . S
C619 C623 1.429 . S
C620 C603 1.574 . S
C620 H614 0.949 . S
C620 C624 1.368 . S
C621 C602 1.429 . S
C621 C615 1.429 . S
C621 C622 1.523 . S
C622 C603 1.368 . S
C622 C616 1.368 . S
C622 C621 1.523 . S
C623 C607 1.429 . S
C623 C619 1.429 . S
C623 C624 1.523 . S
C624 C608 1.368 . S
C624 C620 1.368 . S
C624 C623 1.523 . S
H625 C600 0.950 . S
H626 C602 0.950 . S
H627 C603 0.949 . S
H628 C605 0.950 . S
H629 C607 0.950 . S
C630 C631 1.349 . S
C630 C632 1.327 . S
C630 H655 0.950 . S
C631 C630 1.349 . S
C631 C647 1.349 . S
C632 C630 1.327 . S
C632 C651 1.429 . S
C632 H656 0.950 . S
C633 C650 1.574 . S
C633 C652 1.368 . S
C633 H657 0.949 . S
H634 C638 0.949 . S
C635 C636 1.349 . S
C635 C637 1.327 . S
C635 H658 0.950 . S
C636 C635 1.349 . S
C636 C648 1.349 . S
C637 C635 1.327 . S
C637 C653 1.429 . S
C637 H659 0.950 . S
C638 H634 0.949 . S
C638 C646 1.574 . S
C638 C654 1.368 . S
H639 C647 0.950 . S
H640 C645 0.950 . S
H641 C646 0.949 . S
H642 C648 0.950 . S
H643 C649 0.950 . S
H644 C650 0.949 . S
C645 H640 0.950 . S
C645 C647 1.327 . S
C645 C651 1.429 . S
C646 C638 1.574 . S
C646 H641 0.949 . S
C646 C652 1.368 . S
C647 C631 1.349 . S
C647 H639 0.950 . S
C647 C645 1.327 . S
C648 C636 1.349 . S
C648 H642 0.950 . S
C648 C649 1.327 . S
C649 H643 0.950 . S
C649 C648 1.327 . S
C649 C653 1.429 . S
C650 C633 1.574 . S
C650 H644 0.949 . S
C650 C654 1.368 . S
C651 C632 1.429 . S
C651 C645 1.429 . S
C651 C652 1.523 . S
C652 C633 1.368 . S
C652 C646 1.368 . S
C652 C651 1.523 . S
C653 C637 1.429 . S
C653 C649 1.429 . S
C653 C654 1.523 . S
C654 C638 1.368 . S
C654 C650 1.368 . S
C654 C653 1.523 . S
H655 C630 0.950 . S
H656 C632 0.950 . S
H657 C633 0.949 . S
H658 C635 0.950 . S
H659 C637 0.950 . S
C660 C661 1.349 . S
C660 C662 1.327 . S
C660 H685 0.950 . S
C661 C660 1.349 . S
C661 C677 1.349 . S
C662 C660 1.327 . S
C662 C681 1.429 . S
C662 H686 0.950 . S
C663 C680 1.574 1_556 S
C663 C682 1.368 . S
C663 H687 0.949 . S
H664 C668 0.949 . S
C665 C666 1.349 . S
C665 C667 1.327 . S
C665 H688 0.950 . S
C666 C665 1.349 . S
C666 C678 1.349 . S
C667 C665 1.327 . S
C667 C683 1.429 . S
C667 H689 0.950 . S
C668 H664 0.949 . S
C668 C676 1.574 1_554 S
C668 C684 1.368 . S
H669 C677 0.950 . S
H670 C675 0.950 . S
H671 C676 0.949 . S
H672 C678 0.950 . S
H673 C679 0.950 . S
H674 C680 0.949 . S
C675 H670 0.950 . S
C675 C677 1.327 . S
C675 C681 1.429 . S
C676 C668 1.574 1_556 S
C676 H671 0.949 . S
C676 C682 1.368 . S
C677 C661 1.349 . S
C677 H669 0.950 . S
C677 C675 1.327 . S
C678 C666 1.349 . S
C678 H672 0.950 . S
C678 C679 1.327 . S
C679 H673 0.950 . S
C679 C678 1.327 . S
C679 C683 1.429 . S
C680 C663 1.574 1_554 S
C680 H674 0.949 . S
C680 C684 1.368 . S
C681 C662 1.429 . S
C681 C675 1.429 . S
C681 C682 1.523 . S
C682 C663 1.368 . S
C682 C676 1.368 . S
C682 C681 1.523 . S
C683 C667 1.429 . S
C683 C679 1.429 . S
C683 C684 1.523 . S
C684 C668 1.368 . S
C684 C680 1.368 . S
C684 C683 1.523 . S
H685 C660 0.950 . S
H686 C662 0.950 . S
H687 C663 0.949 . S
H688 C665 0.950 . S
H689 C667 0.950 . S
C690 C691 1.349 . S
C690 C692 1.327 . S
C690 H715 0.950 . S
C691 C690 1.349 . S
C691 C707 1.349 . S
C692 C690 1.327 . S
C692 C711 1.429 . S
C692 H716 0.950 . S
C693 C710 1.574 . S
C693 C712 1.368 . S
C693 H717 0.949 . S
H694 C698 0.949 . S
C695 C696 1.349 . S
C695 C697 1.327 . S
C695 H718 0.950 . S
C696 C695 1.349 . S
C696 C708 1.349 . S
C697 C695 1.327 . S
C697 C713 1.429 . S
C697 H719 0.950 . S
C698 H694 0.949 . S
C698 C706 1.574 . S
C698 C714 1.368 . S
H699 C707 0.950 . S
H700 C705 0.950 . S
H701 C706 0.949 . S
H702 C708 0.950 . S
H703 C709 0.950 . S
H704 C710 0.949 . S
C705 H700 0.950 . S
C705 C707 1.327 . S
C705 C711 1.429 . S
C706 C698 1.574 . S
C706 H701 0.949 . S
C706 C712 1.368 . S
C707 C691 1.349 . S
C707 H699 0.950 . S
C707 C705 1.327 . S
C708 C696 1.349 . S
C708 H702 0.950 . S
C708 C709 1.327 . S
C709 H703 0.950 . S
C709 C708 1.327 . S
C709 C713 1.429 . S
C710 C693 1.574 . S
C710 H704 0.949 . S
C710 C714 1.368 . S
C711 C692 1.429 . S
C711 C705 1.429 . S
C711 C712 1.523 . S
C712 C693 1.368 . S
C712 C706 1.368 . S
C712 C711 1.523 . S
C713 C697 1.429 . S
C713 C709 1.429 . S
C713 C714 1.523 . S
C714 C698 1.368 . S
C714 C710 1.368 . S
C714 C713 1.523 . S
H715 C690 0.950 . S
H716 C692 0.950 . S
H717 C693 0.949 . S
H718 C695 0.950 . S
H719 C697 0.950 . S
C720 C721 1.349 . S
C720 C722 1.327 . S
C720 H745 0.950 . S
C721 C720 1.349 . S
C721 C737 1.349 . S
C722 C720 1.327 . S
C722 C741 1.429 . S
C722 H746 0.950 . S
C723 C740 1.574 . S
C723 C742 1.368 . S
C723 H747 0.949 . S
H724 C728 0.949 . S
C725 C726 1.349 . S
C725 C727 1.327 . S
C725 H748 0.950 . S
C726 C725 1.349 . S
C726 C738 1.349 . S
C727 C725 1.327 . S
C727 C743 1.429 . S
C727 H749 0.950 . S
C728 H724 0.949 . S
C728 C736 1.574 . S
C728 C744 1.368 . S
H729 C737 0.950 . S
H730 C735 0.950 . S
H731 C736 0.949 . S
H732 C738 0.950 . S
H733 C739 0.950 . S
H734 C740 0.949 . S
C735 H730 0.950 . S
C735 C737 1.327 . S
C735 C741 1.429 . S
C736 C728 1.574 . S
C736 H731 0.949 . S
C736 C742 1.368 . S
C737 C721 1.349 . S
C737 H729 0.950 . S
C737 C735 1.327 . S
C738 C726 1.349 . S
C738 H732 0.950 . S
C738 C739 1.327 . S
C739 H733 0.950 . S
C739 C738 1.327 . S
C739 C743 1.429 . S
C740 C723 1.574 . S
C740 H734 0.949 . S
C740 C744 1.368 . S
C741 C722 1.429 . S
C741 C735 1.429 . S
C741 C742 1.523 . S
C742 C723 1.368 . S
C742 C736 1.368 . S
C742 C741 1.523 . S
C743 C727 1.429 . S
C743 C739 1.429 . S
C743 C744 1.523 . S
C744 C728 1.368 . S
C744 C740 1.368 . S
C744 C743 1.523 . S
H745 C720 0.950 . S
H746 C722 0.950 . S
H747 C723 0.949 . S
H748 C725 0.950 . S
H749 C727 0.950 . S
C750 C751 1.349 . S
C750 C752 1.327 . S
C750 H775 0.950 . S
C751 C750 1.349 . S
C751 C767 1.349 . S
C752 C750 1.327 . S
C752 C771 1.429 . S
C752 H776 0.950 . S
C753 C770 1.574 1_556 S
C753 C772 1.368 . S
C753 H777 0.949 . S
H754 C758 0.949 . S
C755 C756 1.349 . S
C755 C757 1.327 . S
C755 H778 0.950 . S
C756 C755 1.349 . S
C756 C768 1.349 . S
C757 C755 1.327 . S
C757 C773 1.429 . S
C757 H779 0.950 . S
C758 H754 0.949 . S
C758 C766 1.574 1_554 S
C758 C774 1.368 . S
H759 C767 0.950 . S
H760 C765 0.950 . S
H761 C766 0.949 . S
H762 C768 0.950 . S
H763 C769 0.950 . S
H764 C770 0.949 . S
C765 H760 0.950 . S
C765 C767 1.327 . S
C765 C771 1.429 . S
C766 C758 1.574 1_556 S
C766 H761 0.949 . S
C766 C772 1.368 . S
C767 C751 1.349 . S
C767 H759 0.950 . S
C767 C765 1.327 . S
C768 C756 1.349 . S
C768 H762 0.950 . S
C768 C769 1.327 . S
C769 H763 0.950 . S
C769 C768 1.327 . S
C769 C773 1.429 . S
C770 C753 1.574 1_554 S
C770 H764 0.949 . S
C770 C774 1.368 . S
C771 C752 1.429 . S
C771 C765 1.429 . S
C771 C772 1.523 . S
C772 C753 1.368 . S
C772 C766 1.368 . S
C772 C771 1.523 . S
C773 C757 1.429 . S
C773 C769 1.429 . S
C773 C774 1.523 . S
C774 C758 1.368 . S
C774 C770 1.368 . S
C774 C773 1.523 . S
H775 C750 0.950 . S
H776 C752 0.950 . S
H777 C753 0.949 . S
H778 C755 0.950 . S
H779 C757 0.950 . S
C780 C781 1.349 . S
C780 C782 1.327 . S
C780 H805 0.950 . S
C781 C780 1.349 . S
C781 C797 1.349 . S
C782 C780 1.327 . S
C782 C801 1.429 . S
C782 H806 0.950 . S
C783 C800 1.574 . S
C783 C802 1.368 . S
C783 H807 0.949 . S
H784 C788 0.949 . S
C785 C786 1.349 . S
C785 C787 1.327 . S
C785 H808 0.950 . S
C786 C785 1.349 . S
C786 C798 1.349 . S
C787 C785 1.327 . S
C787 C803 1.429 . S
C787 H809 0.950 . S
C788 H784 0.949 . S
C788 C796 1.574 . S
C788 C804 1.368 . S
H789 C797 0.950 . S
H790 C795 0.950 . S
H791 C796 0.949 . S
H792 C798 0.950 . S
H793 C799 0.950 . S
H794 C800 0.949 . S
C795 H790 0.950 . S
C795 C797 1.327 . S
C795 C801 1.429 . S
C796 C788 1.574 . S
C796 H791 0.949 . S
C796 C802 1.368 . S
C797 C781 1.349 . S
C797 H789 0.950 . S
C797 C795 1.327 . S
C798 C786 1.349 . S
C798 H792 0.950 . S
C798 C799 1.327 . S
C799 H793 0.950 . S
C799 C798 1.327 . S
C799 C803 1.429 . S
C800 C783 1.574 . S
C800 H794 0.949 . S
C800 C804 1.368 . S
C801 C782 1.429 . S
C801 C795 1.429 . S
C801 C802 1.523 . S
C802 C783 1.368 . S
C802 C796 1.368 . S
C802 C801 1.523 . S
C803 C787 1.429 . S
C803 C799 1.429 . S
C803 C804 1.523 . S
C804 C788 1.368 . S
C804 C800 1.368 . S
C804 C803 1.523 . S
H805 C780 0.950 . S
H806 C782 0.950 . S
H807 C783 0.949 . S
H808 C785 0.950 . S
H809 C787 0.950 . S
C810 C811 1.349 . S
C810 C812 1.327 . S
C810 H835 0.950 . S
C811 C810 1.349 . S
C811 C827 1.349 . S
C812 C810 1.327 . S
C812 C831 1.429 . S
C812 H836 0.950 . S
C813 C830 1.574 . S
C813 C832 1.368 . S
C813 H837 0.949 . S
H814 C818 0.949 . S
C815 C816 1.349 . S
C815 C817 1.327 . S
C815 H838 0.950 . S
C816 C815 1.349 . S
C816 C828 1.349 . S
C817 C815 1.327 . S
C817 C833 1.429 . S
C817 H839 0.950 . S
C818 H814 0.949 . S
C818 C826 1.574 . S
C818 C834 1.368 . S
H819 C827 0.950 . S
H820 C825 0.950 . S
H821 C826 0.949 . S
H822 C828 0.950 . S
H823 C829 0.950 . S
H824 C830 0.949 . S
C825 H820 0.950 . S
C825 C827 1.327 . S
C825 C831 1.429 . S
C826 C818 1.574 . S
C826 H821 0.949 . S
C826 C832 1.368 . S
C827 C811 1.349 . S
C827 H819 0.950 . S
C827 C825 1.327 . S
C828 C816 1.349 . S
C828 H822 0.950 . S
C828 C829 1.327 . S
C829 H823 0.950 . S
C829 C828 1.327 . S
C829 C833 1.429 . S
C830 C813 1.574 . S
C830 H824 0.949 . S
C830 C834 1.368 . S
C831 C812 1.429 . S
C831 C825 1.429 . S
C831 C832 1.523 . S
C832 C813 1.368 . S
C832 C826 1.368 . S
C832 C831 1.523 . S
C833 C817 1.429 . S
C833 C829 1.429 . S
C833 C834 1.523 . S
C834 C818 1.368 . S
C834 C830 1.368 . S
C834 C833 1.523 . S
H835 C810 0.950 . S
H836 C812 0.950 . S
H837 C813 0.949 . S
H838 C815 0.950 . S
H839 C817 0.950 . S
C840 C841 1.349 . S
C840 C842 1.327 . S
C840 H865 0.950 . S
C841 C840 1.349 . S
C841 C857 1.349 . S
C842 C840 1.327 . S
C842 C861 1.429 . S
C842 H866 0.950 . S
C843 C860 1.545 1_556 S
C843 C862 1.368 1_545 S
C843 H867 0.949 . S
H844 C848 0.949 . S
C845 C846 1.349 . S
C845 C847 1.327 . S
C845 H868 0.950 . S
C846 C845 1.349 . S
C846 C858 1.349 . S
C847 C845 1.327 . S
C847 C863 1.429 . S
C847 H869 0.950 . S
C848 H844 0.949 . S
C848 C856 1.546 1_554 S
C848 C864 1.368 1_565 S
H849 C857 0.950 . S
H850 C855 0.950 . S
H851 C856 0.951 . S
H852 C858 0.950 . S
H853 C859 0.950 . S
H854 C860 0.952 . S
C855 H850 0.950 . S
C855 C857 1.327 . S
C855 C861 1.429 . S
C856 C848 1.546 1_556 S
C856 H851 0.951 . S
C856 C862 1.394 . S
C857 C841 1.349 . S
C857 H849 0.950 . S
C857 C855 1.327 . S
C858 C846 1.349 . S
C858 H852 0.950 . S
C858 C859 1.327 . S
C859 H853 0.950 . S
C859 C858 1.327 . S
C859 C863 1.429 . S
C860 C843 1.545 1_554 S
C860 H854 0.952 . S
C860 C864 1.395 . S
C861 C842 1.429 . S
C861 C855 1.429 . S
C861 C862 1.523 . S
C862 C843 1.368 1_565 S
C862 C856 1.394 . S
C862 C861 1.523 . S
C863 C847 1.429 . S
C863 C859 1.429 . S
C863 C864 1.523 . S
C864 C848 1.368 1_545 S
C864 C860 1.395 . S
C864 C863 1.523 . S
H865 C840 0.950 . S
H866 C842 0.950 . S
H867 C843 0.949 . S
H868 C845 0.950 . S
H869 C847 0.950 . S
C870 C871 1.349 . S
C870 C872 1.327 . S
C870 H895 0.950 . S
C871 C870 1.349 . S
C871 C887 1.349 . S
C872 C870 1.327 . S
C872 C891 1.429 . S
C872 H896 0.950 . S
C873 C890 1.574 . S
C873 C892 1.368 . S
C873 H897 0.949 . S
H874 C878 0.949 . S
C875 C876 1.349 . S
C875 C877 1.327 . S
C875 H898 0.950 . S
C876 C875 1.349 . S
C876 C888 1.349 . S
C877 C875 1.327 . S
C877 C893 1.429 . S
C877 H899 0.950 . S
C878 H874 0.949 . S
C878 C886 1.574 . S
C878 C894 1.368 . S
H879 C887 0.950 . S
H880 C885 0.950 . S
H881 C886 0.949 . S
H882 C888 0.950 . S
H883 C889 0.950 . S
H884 C890 0.949 . S
C885 H880 0.950 . S
C885 C887 1.327 . S
C885 C891 1.429 . S
C886 C878 1.574 . S
C886 H881 0.949 . S
C886 C892 1.368 . S
C887 C871 1.349 . S
C887 H879 0.950 . S
C887 C885 1.327 . S
C888 C876 1.349 . S
C888 H882 0.950 . S
C888 C889 1.327 . S
C889 H883 0.950 . S
C889 C888 1.327 . S
C889 C893 1.429 . S
C890 C873 1.574 . S
C890 H884 0.949 . S
C890 C894 1.368 . S
C891 C872 1.429 . S
C891 C885 1.429 . S
C891 C892 1.523 . S
C892 C873 1.368 . S
C892 C886 1.368 . S
C892 C891 1.523 . S
C893 C877 1.429 . S
C893 C889 1.429 . S
C893 C894 1.523 . S
C894 C878 1.368 . S
C894 C890 1.368 . S
C894 C893 1.523 . S
H895 C870 0.950 . S
H896 C872 0.950 . S
H897 C873 0.949 . S
H898 C875 0.950 . S
H899 C877 0.950 . S
C900 C901 1.349 . S
C900 C902 1.327 . S
C900 H925 0.950 . S
C901 C900 1.349 . S
C901 C917 1.349 . S
C902 C900 1.327 . S
C902 C921 1.429 . S
C902 H926 0.950 . S
C903 C920 1.574 1_455 S
C903 C922 1.368 . S
C903 H927 0.949 . S
H904 C908 0.949 . S
C905 C906 1.349 . S
C905 C907 1.327 . S
C905 H928 0.950 . S
C906 C905 1.349 . S
C906 C918 1.349 . S
C907 C905 1.327 . S
C907 C923 1.429 . S
C907 H929 0.950 . S
C908 H904 0.949 . S
C908 C916 1.574 1_655 S
C908 C924 1.368 . S
H909 C917 0.950 . S
H910 C915 0.950 . S
H911 C916 0.949 . S
H912 C918 0.950 . S
H913 C919 0.950 . S
H914 C920 0.949 . S
C915 H910 0.950 . S
C915 C917 1.327 . S
C915 C921 1.429 . S
C916 C908 1.574 1_455 S
C916 H911 0.949 . S
C916 C922 1.368 . S
C917 C901 1.349 . S
C917 H909 0.950 . S
C917 C915 1.327 . S
C918 C906 1.349 . S
C918 H912 0.950 . S
C918 C919 1.327 . S
C919 H913 0.950 . S
C919 C918 1.327 . S
C919 C923 1.429 . S
C920 C903 1.574 1_655 S
C920 H914 0.949 . S
C920 C924 1.368 . S
C921 C902 1.429 . S
C921 C915 1.429 . S
C921 C922 1.523 . S
C922 C903 1.368 . S
C922 C916 1.368 . S
C922 C921 1.523 . S
C923 C907 1.429 . S
C923 C919 1.429 . S
C923 C924 1.523 . S
C924 C908 1.368 . S
C924 C920 1.368 . S
C924 C923 1.523 . S
H925 C900 0.950 . S
H926 C902 0.950 . S
H927 C903 0.949 . S
H928 C905 0.950 . S
H929 C907 0.950 . S
C930 C931 1.349 . S
C930 C932 1.327 . S
C930 H955 0.950 . S
C931 C930 1.349 . S
C931 C947 1.349 . S
C932 C930 1.327 . S
C932 C951 1.429 . S
C932 H956 0.950 . S
C933 C950 1.574 . S
C933 C952 1.368 1_545 S
C933 H957 0.949 . S
H934 C938 0.949 . S
C935 C936 1.349 . S
C935 C937 1.327 . S
C935 H958 0.950 . S
C936 C935 1.349 . S
C936 C948 1.349 . S
C937 C935 1.327 . S
C937 C953 1.429 . S
C937 H959 0.950 . S
C938 H934 0.949 . S
C938 C946 1.574 . S
C938 C954 1.368 1_565 S
H939 C947 0.950 . S
H940 C945 0.950 . S
H941 C946 0.949 . S
H942 C948 0.950 . S
H943 C949 0.950 . S
H944 C950 0.949 . S
C945 H940 0.950 . S
C945 C947 1.327 . S
C945 C951 1.429 . S
C946 C938 1.574 . S
C946 H941 0.949 . S
C946 C952 1.368 1_556 S
C947 C931 1.349 . S
C947 H939 0.950 . S
C947 C945 1.327 . S
C948 C936 1.349 . S
C948 H942 0.950 . S
C948 C949 1.327 . S
C949 H943 0.950 . S
C949 C948 1.327 . S
C949 C953 1.429 . S
C950 C933 1.574 . S
C950 H944 0.949 . S
C950 C954 1.368 1_554 S
C951 C932 1.429 . S
C951 C945 1.429 . S
C951 C952 1.523 . S
C952 C933 1.368 1_565 S
C952 C946 1.368 1_554 S
C952 C951 1.523 . S
C953 C937 1.429 . S
C953 C949 1.429 . S
C953 C954 1.523 . S
C954 C938 1.368 1_545 S
C954 C950 1.368 1_556 S
C954 C953 1.523 . S
H955 C930 0.950 . S
H956 C932 0.950 . S
H957 C933 0.949 . S
H958 C935 0.950 . S
H959 C937 0.950 . S
C960 C961 1.349 . S
C960 C962 1.327 . S
C960 H985 0.950 . S
C961 C960 1.349 . S
C961 C977 1.349 . S
C962 C960 1.327 . S
C962 C981 1.429 . S
C962 H986 0.950 . S
C963 C980 1.574 . S
C963 C982 1.368 . S
C963 H987 0.949 . S
H964 C968 0.949 . S
C965 C966 1.349 . S
C965 C967 1.327 . S
C965 H988 0.950 . S
C966 C965 1.349 . S
C966 C978 1.349 . S
C967 C965 1.327 . S
C967 C983 1.429 . S
C967 H989 0.950 . S
C968 H964 0.949 . S
C968 C976 1.574 . S
C968 C984 1.368 . S
H969 C977 0.950 . S
H970 C975 0.950 . S
H971 C976 0.949 . S
H972 C978 0.950 . S
H973 C979 0.950 . S
H974 C980 0.949 . S
C975 H970 0.950 . S
C975 C977 1.327 . S
C975 C981 1.429 . S
C976 C968 1.574 . S
C976 H971 0.949 . S
C976 C982 1.368 . S
C977 C961 1.349 . S
C977 H969 0.950 . S
C977 C975 1.327 . S
C978 C966 1.349 . S
C978 H972 0.950 . S
C978 C979 1.327 . S
C979 H973 0.950 . S
C979 C978 1.327 . S
C979 C983 1.429 . S
C980 C963 1.574 . S
C980 H974 0.949 . S
C980 C984 1.368 . S
C981 C962 1.429 . S
C981 C975 1.429 . S
C981 C982 1.523 . S
C982 C963 1.368 . S
C982 C976 1.368 . S
C982 C981 1.523 . S
C983 C967 1.429 . S
C983 C979 1.429 . S
C983 C984 1.523 . S
C984 C968 1.368 . S
C984 C980 1.368 . S
C984 C983 1.523 . S
H985 C960 0.950 . S
H986 C962 0.950 . S
H987 C963 0.949 . S
H988 C965 0.950 . S
H989 C967 0.950 . S
C990 C991 1.349 . S
C990 C992 1.327 . S
C990 H1015 0.950 . S
C991 C990 1.349 . S
C991 C1007 1.349 . S
C992 C990 1.327 . S
C992 C1011 1.429 . S
C992 H1016 0.950 . S
C993 C1010 1.574 . S
C993 C1012 1.368 1_655 S
C993 H1017 0.949 . S
H994 C998 0.949 . S
C995 C996 1.349 . S
C995 C997 1.327 . S
C995 H1018 0.950 . S
C996 C995 1.349 . S
C996 C1008 1.349 . S
C997 C995 1.327 . S
C997 C1013 1.429 . S
C997 H1019 0.950 . S
C998 H994 0.949 . S
C998 C1006 1.574 . S
C998 C1014 1.368 1_455 S
H999 C1007 0.950 . S
H1000 C1005 0.950 . S
H1001 C1006 0.949 . S
H1002 C1008 0.950 . S
H1003 C1009 0.950 . S
H1004 C1010 0.949 . S
C1005 H1000 0.950 . S
C1005 C1007 1.327 . S
C1005 C1011 1.429 . S
C1006 C998 1.574 . S
C1006 H1001 0.949 . S
C1006 C1012 1.368 . S
C1007 C991 1.349 . S
C1007 H999 0.950 . S
C1007 C1005 1.327 . S
C1008 C996 1.349 . S
C1008 H1002 0.950 . S
C1008 C1009 1.327 . S
C1009 H1003 0.950 . S
C1009 C1008 1.327 . S
C1009 C1013 1.429 . S
C1010 C993 1.574 . S
C1010 H1004 0.949 . S
C1010 C1014 1.368 . S
C1011 C992 1.429 . S
C1011 C1005 1.429 . S
C1011 C1012 1.523 . S
C1012 C993 1.368 1_455 S
C1012 C1006 1.368 . S
C1012 C1011 1.523 . S
C1013 C997 1.429 . S
C1013 C1009 1.429 . S
C1013 C1014 1.523 . S
C1014 C998 1.368 1_655 S
C1014 C1010 1.368 . S
C1014 C1013 1.523 . S
H1015 C990 0.950 . S
H1016 C992 0.950 . S
H1017 C993 0.949 . S
H1018 C995 0.950 . S
H1019 C997 0.950 . S
C1020 C1021 1.349 . S
C1020 C1022 1.327 . S
C1020 H1045 0.950 . S
C1021 C1020 1.349 . S
C1021 C1037 1.349 . S
C1022 C1020 1.327 . S
C1022 C1041 1.429 . S
C1022 H1046 0.950 . S
C1023 C1040 1.574 . S
C1023 C1042 1.368 1_565 S
C1023 H1047 0.949 . S
H1024 C1028 0.949 . S
C1025 C1026 1.349 . S
C1025 C1027 1.327 . S
C1025 H1048 0.950 . S
C1026 C1025 1.349 . S
C1026 C1038 1.349 . S
C1027 C1025 1.327 . S
C1027 C1043 1.429 . S
C1027 H1049 0.950 . S
C1028 H1024 0.949 . S
C1028 C1036 1.574 . S
C1028 C1044 1.368 1_545 S
H1029 C1037 0.950 . S
H1030 C1035 0.950 . S
H1031 C1036 0.949 . S
H1032 C1038 0.950 . S
H1033 C1039 0.950 . S
H1034 C1040 0.949 . S
C1035 H1030 0.950 . S
C1035 C1037 1.327 . S
C1035 C1041 1.429 . S
C1036 C1028 1.574 . S
C1036 H1031 0.949 . S
C1036 C1042 1.368 . S
C1037 C1021 1.349 . S
C1037 H1029 0.950 . S
C1037 C1035 1.327 . S
C1038 C1026 1.349 . S
C1038 H1032 0.950 . S
C1038 C1039 1.327 . S
C1039 H1033 0.950 . S
C1039 C1038 1.327 . S
C1039 C1043 1.429 . S
C1040 C1023 1.574 . S
C1040 H1034 0.949 . S
C1040 C1044 1.368 . S
C1041 C1022 1.429 . S
C1041 C1035 1.429 . S
C1041 C1042 1.523 . S
C1042 C1023 1.368 1_545 S
C1042 C1036 1.368 . S
C1042 C1041 1.523 . S
C1043 C1027 1.429 . S
C1043 C1039 1.429 . S
C1043 C1044 1.523 . S
C1044 C1028 1.368 1_565 S
C1044 C1040 1.368 . S
C1044 C1043 1.523 . S
H1045 C1020 0.950 . S
H1046 C1022 0.950 . S
H1047 C1023 0.949 . S
H1048 C1025 0.950 . S
H1049 C1027 0.950 . S
C1050 C1051 1.349 . S
C1050 C1052 1.327 . S
C1050 H1075 0.950 . S
C1051 C1050 1.349 . S
C1051 C1067 1.349 . S
C1052 C1050 1.327 . S
C1052 C1071 1.429 . S
C1052 H1076 0.950 . S
C1053 C1070 1.574 . S
C1053 C1072 1.368 . S
C1053 H1077 0.949 . S
H1054 C1058 0.949 . S
C1055 C1056 1.349 . S
C1055 C1057 1.327 . S
C1055 H1078 0.950 . S
C1056 C1055 1.349 . S
C1056 C1068 1.349 . S
C1057 C1055 1.327 . S
C1057 C1073 1.429 . S
C1057 H1079 0.950 . S
C1058 H1054 0.949 . S
C1058 C1066 1.574 . S
C1058 C1074 1.368 . S
H1059 C1067 0.950 . S
H1060 C1065 0.950 . S
H1061 C1066 0.949 . S
H1062 C1068 0.950 . S
H1063 C1069 0.950 . S
H1064 C1070 0.949 . S
C1065 H1060 0.950 . S
C1065 C1067 1.327 . S
C1065 C1071 1.429 . S
C1066 C1058 1.574 . S
C1066 H1061 0.949 . S
C1066 C1072 1.368 . S
C1067 C1051 1.349 . S
C1067 H1059 0.950 . S
C1067 C1065 1.327 . S
C1068 C1056 1.349 . S
C1068 H1062 0.950 . S
C1068 C1069 1.327 . S
C1069 H1063 0.950 . S
C1069 C1068 1.327 . S
C1069 C1073 1.429 . S
C1070 C1053 1.574 . S
C1070 H1064 0.949 . S
C1070 C1074 1.368 . S
C1071 C1052 1.429 . S
C1071 C1065 1.429 . S
C1071 C1072 1.523 . S
C1072 C1053 1.368 . S
C1072 C1066 1.368 . S
C1072 C1071 1.523 . S
C1073 C1057 1.429 . S
C1073 C1069 1.429 . S
C1073 C1074 1.523 . S
C1074 C1058 1.368 . S
C1074 C1070 1.368 . S
C1074 C1073 1.523 . S
H1075 C1050 0.950 . S
H1076 C1052 0.950 . S
H1077 C1053 0.949 . S
H1078 C1055 0.950 . S
H1079 C1057 0.950 . S
C1080 C1081 1.349 . S
C1080 C1082 1.327 . S
C1080 H1105 0.950 . S
C1081 C1080 1.349 . S
C1081 C1097 1.349 . S
C1082 C1080 1.327 . S
C1082 C1101 1.429 . S
C1082 H1106 0.950 . S
C1083 C1100 1.574 . S
C1083 C1102 1.368 1_455 S
C1083 H1107 0.949 . S
H1084 C1088 0.949 . S
C1085 C1086 1.349 . S
C1085 C1087 1.327 . S
C1085 H1108 0.950 . S
C1086 C1085 1.349 . S
C1086 C1098 1.349 . S
C1087 C1085 1.327 . S
C1087 C1103 1.429 . S
C1087 H1109 0.950 . S
C1088 H1084 0.949 . S
C1088 C1096 1.574 . S
C1088 C1104 1.368 1_655 S
H1089 C1097 0.950 . S
H1090 C1095 0.950 . S
H1091 C1096 0.949 . S
H1092 C1098 0.950 . S
H1093 C1099 0.950 . S
H1094 C1100 0.949 . S
C1095 H1090 0.950 . S
C1095 C1097 1.327 . S
C1095 C1101 1.429 . S
C1096 C1088 1.574 . S
C1096 H1091 0.949 . S
C1096 C1102 1.368 . S
C1097 C1081 1.349 . S
C1097 H1089 0.950 . S
C1097 C1095 1.327 . S
C1098 C1086 1.349 . S
C1098 H1092 0.950 . S
C1098 C1099 1.327 . S
C1099 H1093 0.950 . S
C1099 C1098 1.327 . S
C1099 C1103 1.429 . S
C1100 C1083 1.574 . S
C1100 H1094 0.949 . S
C1100 C1104 1.368 . S
C1101 C1082 1.429 . S
C1101 C1095 1.429 . S
C1101 C1102 1.523 . S
C1102 C1083 1.368 1_655 S
C1102 C1096 1.368 . S
C1102 C1101 1.523 . S
C1103 C1087 1.429 . S
C1103 C1099 1.429 . S
C1103 C1104 1.523 . S
C1104 C1088 1.368 1_455 S
C1104 C1100 1.368 . S
C1104 C1103 1.523 . S
H1105 C1080 0.950 . S
H1106 C1082 0.950 . S
H1107 C1083 0.949 . S
H1108 C1085 0.950 . S
H1109 C1087 0.950 . S
C1110 C1111 1.349 . S
C1110 C1112 1.327 . S
C1110 H1135 0.950 . S
C1111 C1110 1.349 . S
C1111 C1127 1.349 . S
C1112 C1110 1.327 . S
C1112 C1131 1.429 . S
C1112 H1136 0.950 . S
C1113 C1130 1.574 . S
C1113 C1132 1.368 1_655 S
C1113 H1137 0.949 . S
H1114 C1118 0.949 . S
C1115 C1116 1.349 . S
C1115 C1117 1.327 . S
C1115 H1138 0.950 . S
C1116 C1115 1.349 . S
C1116 C1128 1.349 . S
C1117 C1115 1.327 . S
C1117 C1133 1.429 . S
C1117 H1139 0.950 . S
C1118 H1114 0.949 . S
C1118 C1126 1.574 . S
C1118 C1134 1.368 1_455 S
H1119 C1127 0.950 . S
H1120 C1125 0.950 . S
H1121 C1126 0.949 . S
H1122 C1128 0.950 . S
H1123 C1129 0.950 . S
H1124 C1130 0.949 . S
C1125 H1120 0.950 . S
C1125 C1127 1.327 . S
C1125 C1131 1.429 . S
C1126 C1118 1.574 . S
C1126 H1121 0.949 . S
C1126 C1132 1.368 . S
C1127 C1111 1.349 . S
C1127 H1119 0.950 . S
C1127 C1125 1.327 . S
C1128 C1116 1.349 . S
C1128 H1122 0.950 . S
C1128 C1129 1.327 . S
C1129 H1123 0.950 . S
C1129 C1128 1.327 . S
C1129 C1133 1.429 . S
C1130 C1113 1.574 . S
C1130 H1124 0.949 . S
C1130 C1134 1.368 . S
C1131 C1112 1.429 . S
C1131 C1125 1.429 . S
C1131 C1132 1.523 . S
C1132 C1113 1.368 1_455 S
C1132 C1126 1.368 . S
C1132 C1131 1.523 . S
C1133 C1117 1.429 . S
C1133 C1129 1.429 . S
C1133 C1134 1.523 . S
C1134 C1118 1.368 1_655 S
C1134 C1130 1.368 . S
C1134 C1133 1.523 . S
H1135 C1110 0.950 . S
H1136 C1112 0.950 . S
H1137 C1113 0.949 . S
H1138 C1115 0.950 . S
H1139 C1117 0.950 . S
C1140 C1141 1.349 . S
C1140 C1142 1.327 . S
C1140 H1165 0.950 . S
C1141 C1140 1.349 . S
C1141 C1157 1.349 . S
C1142 C1140 1.327 . S
C1142 C1161 1.429 . S
C1142 H1166 0.950 . S
C1143 C1160 1.574 . S
C1143 C1162 1.368 1_545 S
C1143 H1167 0.949 . S
H1144 C1148 0.949 . S
C1145 C1146 1.349 . S
C1145 C1147 1.327 . S
C1145 H1168 0.950 . S
C1146 C1145 1.349 . S
C1146 C1158 1.349 . S
C1147 C1145 1.327 . S
C1147 C1163 1.429 . S
C1147 H1169 0.950 . S
C1148 H1144 0.949 . S
C1148 C1156 1.574 . S
C1148 C1164 1.368 1_565 S
H1149 C1157 0.950 . S
H1150 C1155 0.950 . S
H1151 C1156 0.949 . S
H1152 C1158 0.950 . S
H1153 C1159 0.950 . S
H1154 C1160 0.949 . S
C1155 H1150 0.950 . S
C1155 C1157 1.327 . S
C1155 C1161 1.429 . S
C1156 C1148 1.574 . S
C1156 H1151 0.949 . S
C1156 C1162 1.368 . S
C1157 C1141 1.349 . S
C1157 H1149 0.950 . S
C1157 C1155 1.327 . S
C1158 C1146 1.349 . S
C1158 H1152 0.950 . S
C1158 C1159 1.327 . S
C1159 H1153 0.950 . S
C1159 C1158 1.327 . S
C1159 C1163 1.429 . S
C1160 C1143 1.574 . S
C1160 H1154 0.949 . S
C1160 C1164 1.368 . S
C1161 C1142 1.429 . S
C1161 C1155 1.429 . S
C1161 C1162 1.523 . S
C1162 C1143 1.368 1_565 S
C1162 C1156 1.368 . S
C1162 C1161 1.523 . S
C1163 C1147 1.429 . S
C1163 C1159 1.429 . S
C1163 C1164 1.523 . S
C1164 C1148 1.368 1_545 S
C1164 C1160 1.368 . S
C1164 C1163 1.523 . S
H1165 C1140 0.950 . S
H1166 C1142 0.950 . S
H1167 C1143 0.949 . S
H1168 C1145 0.950 . S
H1169 C1147 0.950 . S
C1170 C1171 1.349 . S
C1170 C1172 1.327 . S
C1170 H1195 0.950 . S
C1171 C1170 1.349 . S
C1171 C1187 1.349 . S
C1172 C1170 1.327 . S
C1172 C1191 1.429 . S
C1172 H1196 0.950 . S
C1173 C1190 1.574 . S
C1173 C1192 1.368 . S
C1173 H1197 0.949 . S
H1174 C1178 0.949 . S
C1175 C1176 1.349 . S
C1175 C1177 1.327 . S
C1175 H1198 0.950 . S
C1176 C1175 1.349 . S
C1176 C1188 1.349 . S
C1177 C1175 1.327 . S
C1177 C1193 1.429 . S
C1177 H1199 0.950 . S
C1178 H1174 0.949 . S
C1178 C1186 1.574 . S
C1178 C1194 1.368 . S
H1179 C1187 0.950 . S
H1180 C1185 0.950 . S
H1181 C1186 0.949 . S
H1182 C1188 0.950 . S
H1183 C1189 0.950 . S
H1184 C1190 0.949 . S
C1185 H1180 0.950 . S
C1185 C1187 1.327 . S
C1185 C1191 1.429 . S
C1186 C1178 1.574 . S
C1186 H1181 0.949 . S
C1186 C1192 1.368 . S
C1187 C1171 1.349 . S
C1187 H1179 0.950 . S
C1187 C1185 1.327 . S
C1188 C1176 1.349 . S
C1188 H1182 0.950 . S
C1188 C1189 1.327 . S
C1189 H1183 0.950 . S
C1189 C1188 1.327 . S
C1189 C1193 1.429 . S
C1190 C1173 1.574 . S
C1190 H1184 0.949 . S
C1190 C1194 1.368 . S
C1191 C1172 1.429 . S
C1191 C1185 1.429 . S
C1191 C1192 1.523 . S
C1192 C1173 1.368 . S
C1192 C1186 1.368 . S
C1192 C1191 1.523 . S
C1193 C1177 1.429 . S
C1193 C1189 1.429 . S
C1193 C1194 1.523 . S
C1194 C1178 1.368 . S
C1194 C1190 1.368 . S
C1194 C1193 1.523 . S
H1195 C1170 0.950 . S
H1196 C1172 0.950 . S
H1197 C1173 0.949 . S
H1198 C1175 0.950 . S
H1199 C1177 0.950 . S
C1200 C1201 1.349 . S
C1200 C1202 1.327 . S
C1200 H1225 0.950 . S
C1201 C1200 1.349 . S
C1201 C1217 1.349 . S
C1202 C1200 1.327 . S
C1202 C1221 1.429 . S
C1202 H1226 0.950 . S
C1203 C1220 1.574 . S
C1203 C1222 1.368 1_545 S
C1203 H1227 0.949 . S
H1204 C1208 0.949 . S
C1205 C1206 1.349 . S
C1205 C1207 1.327 . S
C1205 H1228 0.950 . S
C1206 C1205 1.349 . S
C1206 C1218 1.349 . S
C1207 C1205 1.327 . S
C1207 C1223 1.429 . S
C1207 H1229 0.950 . S
C1208 H1204 0.949 . S
C1208 C1216 1.574 . S
C1208 C1224 1.368 1_565 S
H1209 C1217 0.950 . S
H1210 C1215 0.950 1_545 S
H1211 C1216 0.949 . S
H1212 C1218 0.950 . S
H1213 C1219 0.950 1_565 S
H1214 C1220 0.949 . S
C1215 H1210 0.950 1_565 S
C1215 C1217 1.327 . S
C1215 C1221 1.429 . S
C1216 C1208 1.574 . S
C1216 H1211 0.949 . S
C1216 C1222 1.368 . S
C1217 C1201 1.349 . S
C1217 H1209 0.950 . S
C1217 C1215 1.327 . S
C1218 C1206 1.349 . S
C1218 H1212 0.950 . S
C1218 C1219 1.327 . S
C1219 H1213 0.950 1_545 S
C1219 C1218 1.327 . S
C1219 C1223 1.429 . S
C1220 C1203 1.574 . S
C1220 H1214 0.949 . S
C1220 C1224 1.368 . S
C1221 C1202 1.429 . S
C1221 C1215 1.429 . S
C1221 C1222 1.523 . S
C1222 C1203 1.368 1_565 S
C1222 C1216 1.368 . S
C1222 C1221 1.523 . S
C1223 C1207 1.429 . S
C1223 C1219 1.429 . S
C1223 C1224 1.523 . S
C1224 C1208 1.368 1_545 S
C1224 C1220 1.368 . S
C1224 C1223 1.523 . S
H1225 C1200 0.950 . S
H1226 C1202 0.950 . S
H1227 C1203 0.949 . S
H1228 C1205 0.950 . S
H1229 C1207 0.950 . S
C1230 C1231 1.349 . S
C1230 C1232 1.327 . S
C1230 H1255 0.950 . S
C1231 C1230 1.349 . S
C1231 C1247 1.349 . S
C1232 C1230 1.327 . S
C1232 C1251 1.429 . S
C1232 H1256 0.950 . S
C1233 C1250 1.574 . S
C1233 C1252 1.368 . S
C1233 H1257 0.949 . S
H1234 C1238 0.949 . S
C1235 C1236 1.349 . S
C1235 C1237 1.327 . S
C1235 H1258 0.950 . S
C1236 C1235 1.349 . S
C1236 C1248 1.349 . S
C1237 C1235 1.327 . S
C1237 C1253 1.429 . S
C1237 H1259 0.950 . S
C1238 H1234 0.949 . S
C1238 C1246 1.574 . S
C1238 C1254 1.368 . S
H1239 C1247 0.950 . S
H1240 C1245 0.950 . S
H1241 C1246 0.949 . S
H1242 C1248 0.950 . S
H1243 C1249 0.950 . S
H1244 C1250 0.949 . S
C1245 H1240 0.950 . S
C1245 C1247 1.327 . S
C1245 C1251 1.429 . S
C1246 C1238 1.574 . S
C1246 H1241 0.949 . S
C1246 C1252 1.368 . S
C1247 C1231 1.349 . S
C1247 H1239 0.950 . S
C1247 C1245 1.327 . S
C1248 C1236 1.349 . S
C1248 H1242 0.950 . S
C1248 C1249 1.327 . S
C1249 H1243 0.950 . S
C1249 C1248 1.327 . S
C1249 C1253 1.429 . S
C1250 C1233 1.574 . S
C1250 H1244 0.949 . S
C1250 C1254 1.368 . S
C1251 C1232 1.429 . S
C1251 C1245 1.429 . S
C1251 C1252 1.523 . S
C1252 C1233 1.368 . S
C1252 C1246 1.368 . S
C1252 C1251 1.523 . S
C1253 C1237 1.429 . S
C1253 C1249 1.429 . S
C1253 C1254 1.523 . S
C1254 C1238 1.368 . S
C1254 C1250 1.368 . S
C1254 C1253 1.523 . S
H1255 C1230 0.950 . S
H1256 C1232 0.950 . S
H1257 C1233 0.949 . S
H1258 C1235 0.950 . S
H1259 C1237 0.950 . S
C1260 C1261 1.349 . S
C1260 C1262 1.327 . S
C1260 H1285 0.950 . S
C1261 C1260 1.349 . S
C1261 C1277 1.349 . S
C1262 C1260 1.327 . S
C1262 C1281 1.429 . S
C1262 H1286 0.950 . S
C1263 C1280 1.574 1_655 S
C1263 C1282 1.368 . S
C1263 H1287 0.949 . S
H1264 C1268 0.949 . S
C1265 C1266 1.349 . S
C1265 C1267 1.327 . S
C1265 H1288 0.950 . S
C1266 C1265 1.349 . S
C1266 C1278 1.349 . S
C1267 C1265 1.327 . S
C1267 C1283 1.429 . S
C1267 H1289 0.950 . S
C1268 H1264 0.949 . S
C1268 C1276 1.574 1_455 S
C1268 C1284 1.368 . S
H1269 C1277 0.950 . S
H1270 C1275 0.950 . S
H1271 C1276 0.949 . S
H1272 C1278 0.950 . S
H1273 C1279 0.950 . S
H1274 C1280 0.949 . S
C1275 H1270 0.950 . S
C1275 C1277 1.327 . S
C1275 C1281 1.429 . S
C1276 C1268 1.574 1_655 S
C1276 H1271 0.949 . S
C1276 C1282 1.368 . S
C1277 C1261 1.349 . S
C1277 H1269 0.950 . S
C1277 C1275 1.327 . S
C1278 C1266 1.349 . S
C1278 H1272 0.950 . S
C1278 C1279 1.327 . S
C1279 H1273 0.950 . S
C1279 C1278 1.327 . S
C1279 C1283 1.429 . S
C1280 C1263 1.574 1_455 S
C1280 H1274 0.949 . S
C1280 C1284 1.368 . S
C1281 C1262 1.429 . S
C1281 C1275 1.429 . S
C1281 C1282 1.523 . S
C1282 C1263 1.368 . S
C1282 C1276 1.368 . S
C1282 C1281 1.523 . S
C1283 C1267 1.429 . S
C1283 C1279 1.429 . S
C1283 C1284 1.523 . S
C1284 C1268 1.368 . S
C1284 C1280 1.368 . S
C1284 C1283 1.523 . S
H1285 C1260 0.950 . S
H1286 C1262 0.950 . S
H1287 C1263 0.949 . S
H1288 C1265 0.950 . S
H1289 C1267 0.950 . S
C1290 C1291 1.349 . S
C1290 C1292 1.327 . S
C1290 H1315 0.950 . S
C1291 C1290 1.349 . S
C1291 C1307 1.349 . S
C1292 C1290 1.327 . S
C1292 C1311 1.429 . S
C1292 H1316 0.950 . S
C1293 C1310 1.574 . S
C1293 C1312 1.368 1_565 S
C1293 H1317 0.949 . S
H1294 C1298 0.949 . S
C1295 C1296 1.349 . S
C1295 C1297 1.327 . S
C1295 H1318 0.950 . S
C1296 C1295 1.349 . S
C1296 C1308 1.349 . S
C1297 C1295 1.327 . S
C1297 C1313 1.429 . S
C1297 H1319 0.950 . S
C1298 H1294 0.949 . S
C1298 C1306 1.574 . S
C1298 C1314 1.368 1_545 S
H1299 C1307 0.950 . S
H1300 C1305 0.950 1_565 S
H1301 C1306 0.949 . S
H1302 C1308 0.950 . S
H1303 C1309 0.950 1_545 S
H1304 C1310 0.949 . S
C1305 H1300 0.950 1_545 S
C1305 C1307 1.327 . S
C1305 C1311 1.429 . S
C1306 C1298 1.574 . S
C1306 H1301 0.949 . S
C1306 C1312 1.368 . S
C1307 C1291 1.349 . S
C1307 H1299 0.950 . S
C1307 C1305 1.327 . S
C1308 C1296 1.349 . S
C1308 H1302 0.950 . S
C1308 C1309 1.327 . S
C1309 H1303 0.950 1_565 S
C1309 C1308 1.327 . S
C1309 C1313 1.429 . S
C1310 C1293 1.574 . S
C1310 H1304 0.949 . S
C1310 C1314 1.368 . S
C1311 C1292 1.429 . S
C1311 C1305 1.429 . S
C1311 C1312 1.523 . S
C1312 C1293 1.368 1_545 S
C1312 C1306 1.368 . S
C1312 C1311 1.523 . S
C1313 C1297 1.429 . S
C1313 C1309 1.429 . S
C1313 C1314 1.523 . S
C1314 C1298 1.368 1_565 S
C1314 C1310 1.368 . S
C1314 C1313 1.523 . S
H1315 C1290 0.950 . S
H1316 C1292 0.950 . S
H1317 C1293 0.949 . S
H1318 C1295 0.950 . S
H1319 C1297 0.950 . S
C1320 C1321 1.349 . S
C1320 C1322 1.327 . S
C1320 H1345 0.950 . S
C1321 C1320 1.349 . S
C1321 C1337 1.349 . S
C1322 C1320 1.327 . S
C1322 C1341 1.429 . S
C1322 H1346 0.950 . S
C1323 C1340 1.574 . S
C1323 C1342 1.368 . S
C1323 H1347 0.949 . S
H1324 C1328 0.949 . S
C1325 C1326 1.349 . S
C1325 C1327 1.327 . S
C1325 H1348 0.950 . S
C1326 C1325 1.349 . S
C1326 C1338 1.349 . S
C1327 C1325 1.327 . S
C1327 C1343 1.429 . S
C1327 H1349 0.950 . S
C1328 H1324 0.949 . S
C1328 C1336 1.574 . S
C1328 C1344 1.368 . S
H1329 C1337 0.950 . S
H1330 C1335 0.950 . S
H1331 C1336 0.949 . S
H1332 C1338 0.950 . S
H1333 C1339 0.950 . S
H1334 C1340 0.949 . S
C1335 H1330 0.950 . S
C1335 C1337 1.327 . S
C1335 C1341 1.429 . S
C1336 C1328 1.574 . S
C1336 H1331 0.949 . S
C1336 C1342 1.368 . S
C1337 C1321 1.349 . S
C1337 H1329 0.950 . S
C1337 C1335 1.327 . S
C1338 C1326 1.349 . S
C1338 H1332 0.950 . S
C1338 C1339 1.327 . S
C1339 H1333 0.950 . S
C1339 C1338 1.327 . S
C1339 C1343 1.429 . S
C1340 C1323 1.574 . S
C1340 H1334 0.949 . S
C1340 C1344 1.368 . S
C1341 C1322 1.429 . S
C1341 C1335 1.429 . S
C1341 C1342 1.523 . S
C1342 C1323 1.368 . S
C1342 C1336 1.368 . S
C1342 C1341 1.523 . S
C1343 C1327 1.429 . S
C1343 C1339 1.429 . S
C1343 C1344 1.523 . S
C1344 C1328 1.368 . S
C1344 C1340 1.368 . S
C1344 C1343 1.523 . S
H1345 C1320 0.950 . S
H1346 C1322 0.950 . S
H1347 C1323 0.949 . S
H1348 C1325 0.950 . S
H1349 C1327 0.950 . S
C1350 C1351 1.349 . S
C1350 C1352 1.327 . S
C1350 H1375 0.950 . S
C1351 C1350 1.349 . S
C1351 C1367 1.349 . S
C1352 C1350 1.327 . S
C1352 C1371 1.429 . S
C1352 H1376 0.950 . S
C1353 C1370 1.571 1_455 S
C1353 C1372 1.373 . S
C1353 H1377 0.958 . S
H1354 C1358 0.958 . S
C1355 C1356 1.349 . S
C1355 C1357 1.327 . S
C1355 H1378 0.950 . S
C1356 C1355 1.349 . S
C1356 C1368 1.349 . S
C1357 C1355 1.327 . S
C1357 C1373 1.429 . S
C1357 H1379 0.950 . S
C1358 H1354 0.958 . S
C1358 C1366 1.571 1_655 S
C1358 C1374 1.375 . S
H1359 C1367 0.950 . S
H1360 C1365 0.950 . S
H1361 C1366 0.949 . S
H1362 C1368 0.950 . S
H1363 C1369 0.950 . S
H1364 C1370 0.949 . S
C1365 H1360 0.950 . S
C1365 C1367 1.327 . S
C1365 C1371 1.429 . S
C1366 C1358 1.571 1_455 S
C1366 H1361 0.949 . S
C1366 C1372 1.368 . S
C1367 C1351 1.349 . S
C1367 H1359 0.950 . S
C1367 C1365 1.327 . S
C1368 C1356 1.349 . S
C1368 H1362 0.950 . S
C1368 C1369 1.327 . S
C1369 H1363 0.950 . S
C1369 C1368 1.327 . S
C1369 C1373 1.429 . S
C1370 C1353 1.571 1_655 S
C1370 H1364 0.949 . S
C1370 C1374 1.368 . S
C1371 C1352 1.429 . S
C1371 C1365 1.429 . S
C1371 C1372 1.523 . S
C1372 C1353 1.373 . S
C1372 C1366 1.368 . S
C1372 C1371 1.523 . S
C1373 C1357 1.429 . S
C1373 C1369 1.429 . S
C1373 C1374 1.523 . S
C1374 C1358 1.375 . S
C1374 C1370 1.368 . S
C1374 C1373 1.523 . S
H1375 C1350 0.950 . S
H1376 C1352 0.950 . S
H1377 C1353 0.958 . S
H1378 C1355 0.950 . S
H1379 C1357 0.950 . S
C1380 C1381 1.349 . S
C1380 C1382 1.327 . S
C1380 H1405 0.950 . S
C1381 C1380 1.349 . S
C1381 C1397 1.349 . S
C1382 C1380 1.327 . S
C1382 C1401 1.429 . S
C1382 H1406 0.950 . S
C1383 C1400 1.574 . S
C1383 C1402 1.368 . S
C1383 H1407 0.949 . S
H1384 C1388 0.949 . S
C1385 C1386 1.349 . S
C1385 C1387 1.327 . S
C1385 H1408 0.950 . S
C1386 C1385 1.349 . S
C1386 C1398 1.349 . S
C1387 C1385 1.327 . S
C1387 C1403 1.429 . S
C1387 H1409 0.950 . S
C1388 H1384 0.949 . S
C1388 C1396 1.574 . S
C1388 C1404 1.368 . S
H1389 C1397 0.950 . S
H1390 C1395 0.950 . S
H1391 C1396 0.949 . S
H1392 C1398 0.950 . S
H1393 C1399 0.950 . S
H1394 C1400 0.949 . S
C1395 H1390 0.950 . S
C1395 C1397 1.327 . S
C1395 C1401 1.429 . S
C1396 C1388 1.574 . S
C1396 H1391 0.949 . S
C1396 C1402 1.368 . S
C1397 C1381 1.349 . S
C1397 H1389 0.950 . S
C1397 C1395 1.327 . S
C1398 C1386 1.349 . S
C1398 H1392 0.950 . S
C1398 C1399 1.327 . S
C1399 H1393 0.950 . S
C1399 C1398 1.327 . S
C1399 C1403 1.429 . S
C1400 C1383 1.574 . S
C1400 H1394 0.949 . S
C1400 C1404 1.368 . S
C1401 C1382 1.429 . S
C1401 C1395 1.429 . S
C1401 C1402 1.523 . S
C1402 C1383 1.368 . S
C1402 C1396 1.368 . S
C1402 C1401 1.523 . S
C1403 C1387 1.429 . S
C1403 C1399 1.429 . S
C1403 C1404 1.523 . S
C1404 C1388 1.368 . S
C1404 C1400 1.368 . S
C1404 C1403 1.523 . S
H1405 C1380 0.950 . S
H1406 C1382 0.950 . S
H1407 C1383 0.949 . S
H1408 C1385 0.950 . S
H1409 C1387 0.950 . S
C1410 C1411 1.349 . S
C1410 C1412 1.327 . S
C1410 H1435 0.950 . S
C1411 C1410 1.349 . S
C1411 C1427 1.349 . S
C1412 C1410 1.327 . S
C1412 C1431 1.429 . S
C1412 H1436 0.950 . S
C1413 C1430 1.574 . S
C1413 C1432 1.368 . S
C1413 H1437 0.949 . S
H1414 C1418 0.949 . S
C1415 C1416 1.349 . S
C1415 C1417 1.327 . S
C1415 H1438 0.950 . S
C1416 C1415 1.349 . S
C1416 C1428 1.349 . S
C1417 C1415 1.327 . S
C1417 C1433 1.429 . S
C1417 H1439 0.950 . S
C1418 H1414 0.949 . S
C1418 C1426 1.574 . S
C1418 C1434 1.368 . S
H1419 C1427 0.950 . S
H1420 C1425 0.950 . S
H1421 C1426 0.949 . S
H1422 C1428 0.950 . S
H1423 C1429 0.950 . S
H1424 C1430 0.949 . S
C1425 H1420 0.950 . S
C1425 C1427 1.327 . S
C1425 C1431 1.429 . S
C1426 C1418 1.574 . S
C1426 H1421 0.949 . S
C1426 C1432 1.368 . S
C1427 C1411 1.349 . S
C1427 H1419 0.950 . S
C1427 C1425 1.327 . S
C1428 C1416 1.349 . S
C1428 H1422 0.950 . S
C1428 C1429 1.327 . S
C1429 H1423 0.950 . S
C1429 C1428 1.327 . S
C1429 C1433 1.429 . S
C1430 C1413 1.574 . S
C1430 H1424 0.949 . S
C1430 C1434 1.368 . S
C1431 C1412 1.429 . S
C1431 C1425 1.429 . S
C1431 C1432 1.523 . S
C1432 C1413 1.368 . S
C1432 C1426 1.368 . S
C1432 C1431 1.523 . S
C1433 C1417 1.429 . S
C1433 C1429 1.429 . S
C1433 C1434 1.523 . S
C1434 C1418 1.368 . S
C1434 C1430 1.368 . S
C1434 C1433 1.523 . S
H1435 C1410 0.950 . S
H1436 C1412 0.950 . S
H1437 C1413 0.949 . S
H1438 C1415 0.950 . S
H1439 C1417 0.950 . S
C1440 C1441 1.349 . S
C1440 C1442 1.327 . S
C1440 H1465 0.950 . S
C1441 C1440 1.349 . S
C1441 C1457 1.349 . S
C1442 C1440 1.327 . S
C1442 C1461 1.429 . S
C1442 H1466 0.950 . S
C1443 C1460 1.574 . S
C1443 C1462 1.368 . S
C1443 H1467 0.949 . S
H1444 C1448 0.949 . S
C1445 C1446 1.349 . S
C1445 C1447 1.327 . S
C1445 H1468 0.950 . S
C1446 C1445 1.349 . S
C1446 C1458 1.349 . S
C1447 C1445 1.327 . S
C1447 C1463 1.429 . S
C1447 H1469 0.950 . S
C1448 H1444 0.949 . S
C1448 C1456 1.574 . S
C1448 C1464 1.368 . S
H1449 C1457 0.950 . S
H1450 C1455 0.950 . S
H1451 C1456 0.949 . S
H1452 C1458 0.950 . S
H1453 C1459 0.950 . S
H1454 C1460 0.949 . S
C1455 H1450 0.950 . S
C1455 C1457 1.327 . S
C1455 C1461 1.429 . S
C1456 C1448 1.574 . S
C1456 H1451 0.949 . S
C1456 C1462 1.368 . S
C1457 C1441 1.349 . S
C1457 H1449 0.950 . S
C1457 C1455 1.327 . S
C1458 C1446 1.349 . S
C1458 H1452 0.950 . S
C1458 C1459 1.327 . S
C1459 H1453 0.950 . S
C1459 C1458 1.327 . S
C1459 C1463 1.429 . S
C1460 C1443 1.574 . S
C1460 H1454 0.949 . S
C1460 C1464 1.368 . S
C1461 C1442 1.429 . S
C1461 C1455 1.429 . S
C1461 C1462 1.523 . S
C1462 C1443 1.368 . S
C1462 C1456 1.368 . S
C1462 C1461 1.523 . S
C1463 C1447 1.429 . S
C1463 C1459 1.429 . S
C1463 C1464 1.523 . S
C1464 C1448 1.368 . S
C1464 C1460 1.368 . S
C1464 C1463 1.523 . S
H1465 C1440 0.950 . S
H1466 C1442 0.950 . S
H1467 C1443 0.949 . S
H1468 C1445 0.950 . S
H1469 C1447 0.950 . S
C1470 C1471 1.349 . S
C1470 C1472 1.327 . S
C1470 H1495 0.950 . S
C1471 C1470 1.349 . S
C1471 C1487 1.349 . S
C1472 C1470 1.327 . S
C1472 C1491 1.429 . S
C1472 H1496 0.950 . S
C1473 C1490 1.574 . S
C1473 C1492 1.368 . S
C1473 H1497 0.949 . S
H1474 C1478 0.949 . S
C1475 C1476 1.349 . S
C1475 C1477 1.327 . S
C1475 H1498 0.950 . S
C1476 C1475 1.349 . S
C1476 C1488 1.349 . S
C1477 C1475 1.327 . S
C1477 C1493 1.429 . S
C1477 H1499 0.950 . S
C1478 H1474 0.949 . S
C1478 C1486 1.574 . S
C1478 C1494 1.368 . S
H1479 C1487 0.950 . S
H1480 C1485 0.950 . S
H1481 C1486 0.949 . S
H1482 C1488 0.950 . S
H1483 C1489 0.950 . S
H1484 C1490 0.949 . S
C1485 H1480 0.950 . S
C1485 C1487 1.327 . S
C1485 C1491 1.429 . S
C1486 C1478 1.574 . S
C1486 H1481 0.949 . S
C1486 C1492 1.368 . S
C1487 C1471 1.349 . S
C1487 H1479 0.950 . S
C1487 C1485 1.327 . S
C1488 C1476 1.349 . S
C1488 H1482 0.950 . S
C1488 C1489 1.327 . S
C1489 H1483 0.950 . S
C1489 C1488 1.327 . S
C1489 C1493 1.429 . S
C1490 C1473 1.574 . S
C1490 H1484 0.949 . S
C1490 C1494 1.368 . S
C1491 C1472 1.429 . S
C1491 C1485 1.429 . S
C1491 C1492 1.523 . S
C1492 C1473 1.368 . S
C1492 C1486 1.368 . S
C1492 C1491 1.523 . S
C1493 C1477 1.429 . S
C1493 C1489 1.429 . S
C1493 C1494 1.523 . S
C1494 C1478 1.368 . S
C1494 C1490 1.368 . S
C1494 C1493 1.523 . S
H1495 C1470 0.950 . S
H1496 C1472 0.950 . S
H1497 C1473 0.949 . S
H1498 C1475 0.950 . S
H1499 C1477 0.950 . S
C1500 C1501 1.349 . S
C1500 C1502 1.327 . S
C1500 H1525 0.950 . S
C1501 C1500 1.349 . S
C1501 C1517 1.349 . S
C1502 C1500 1.327 . S
C1502 C1521 1.429 . S
C1502 H1526 0.950 . S
C1503 C1520 1.574 . S
C1503 C1522 1.368 . S
C1503 H1527 0.949 . S
H1504 C1508 0.949 . S
C1505 C1506 1.349 . S
C1505 C1507 1.327 . S
C1505 H1528 0.950 . S
C1506 C1505 1.349 . S
C1506 C1518 1.349 . S
C1507 C1505 1.327 . S
C1507 C1523 1.429 . S
C1507 H1529 0.950 . S
C1508 H1504 0.949 . S
C1508 C1516 1.574 . S
C1508 C1524 1.368 . S
H1509 C1517 0.950 . S
H1510 C1515 0.950 . S
H1511 C1516 0.949 . S
H1512 C1518 0.950 . S
H1513 C1519 0.950 . S
H1514 C1520 0.949 . S
C1515 H1510 0.950 . S
C1515 C1517 1.327 . S
C1515 C1521 1.429 . S
C1516 C1508 1.574 . S
C1516 H1511 0.949 . S
C1516 C1522 1.368 . S
C1517 C1501 1.349 . S
C1517 H1509 0.950 . S
C1517 C1515 1.327 . S
C1518 C1506 1.349 . S
C1518 H1512 0.950 . S
C1518 C1519 1.327 . S
C1519 H1513 0.950 . S
C1519 C1518 1.327 . S
C1519 C1523 1.429 . S
C1520 C1503 1.574 . S
C1520 H1514 0.949 . S
C1520 C1524 1.368 . S
C1521 C1502 1.429 . S
C1521 C1515 1.429 . S
C1521 C1522 1.523 . S
C1522 C1503 1.368 . S
C1522 C1516 1.368 . S
C1522 C1521 1.523 . S
C1523 C1507 1.429 . S
C1523 C1519 1.429 . S
C1523 C1524 1.523 . S
C1524 C1508 1.368 . S
C1524 C1520 1.368 . S
C1524 C1523 1.523 . S
H1525 C1500 0.950 . S
H1526 C1502 0.950 . S
H1527 C1503 0.949 . S
H1528 C1505 0.950 . S
H1529 C1507 0.950 . S
C1530 C1531 1.349 . S
C1530 C1532 1.327 . S
C1530 H1555 0.950 . S
C1531 C1530 1.349 . S
C1531 C1547 1.349 . S
C1532 C1530 1.327 . S
C1532 C1551 1.429 . S
C1532 H1556 0.950 . S
C1533 C1550 1.574 . S
C1533 C1552 1.368 . S
C1533 H1557 0.949 . S
H1534 C1538 0.949 . S
C1535 C1536 1.349 . S
C1535 C1537 1.327 . S
C1535 H1558 0.950 . S
C1536 C1535 1.349 . S
C1536 C1548 1.349 . S
C1537 C1535 1.327 . S
C1537 C1553 1.429 . S
C1537 H1559 0.950 . S
C1538 H1534 0.949 . S
C1538 C1546 1.574 . S
C1538 C1554 1.368 . S
H1539 C1547 0.950 . S
H1540 C1545 0.950 . S
H1541 C1546 0.949 . S
H1542 C1548 0.950 . S
H1543 C1549 0.950 . S
H1544 C1550 0.949 . S
C1545 H1540 0.950 . S
C1545 C1547 1.327 . S
C1545 C1551 1.429 . S
C1546 C1538 1.574 . S
C1546 H1541 0.949 . S
C1546 C1552 1.368 . S
C1547 C1531 1.349 . S
C1547 H1539 0.950 . S
C1547 C1545 1.327 . S
C1548 C1536 1.349 . S
C1548 H1542 0.950 . S
C1548 C1549 1.327 . S
C1549 H1543 0.950 . S
C1549 C1548 1.327 . S
C1549 C1553 1.429 . S
C1550 C1533 1.574 . S
C1550 H1544 0.949 . S
C1550 C1554 1.368 . S
C1551 C1532 1.429 . S
C1551 C1545 1.429 . S
C1551 C1552 1.523 . S
C1552 C1533 1.368 . S
C1552 C1546 1.368 . S
C1552 C1551 1.523 . S
C1553 C1537 1.429 . S
C1553 C1549 1.429 . S
C1553 C1554 1.523 . S
C1554 C1538 1.368 . S
C1554 C1550 1.368 . S
C1554 C1553 1.523 . S
H1555 C1530 0.950 . S
H1556 C1532 0.950 . S
H1557 C1533 0.949 . S
H1558 C1535 0.950 . S
H1559 C1537 0.950 . S
C481 C9 0.999 . S
C486 C329 0.999 . S
C511 C49 0.999 . S
C516 C369 0.999 . S
C541 C89 1.000 . S
C546 C409 1.000 . S
C571 C449 0.999 . S
C576 C129 0.999 . S
C601 C169 0.999 . S
C606 C249 0.999 . S
C631 C289 1.000 . S
C636 C209 1.000 . S
C661 C419 4.284 . S
C666 C19 4.284 . S
C691 C459 4.284 . S
C696 C59 4.284 . S
C721 C99 4.284 . S
C726 C259 4.284 . S
C751 C299 4.284 . S
C756 C139 4.284 . S
C781 C339 4.284 . S
C786 C179 4.284 . S
C811 C219 4.284 . S
C816 C379 4.284 . S
C841 C295 1.490 . S
C846 C15 1.490 . S
C871 C335 1.490 . S
C876 C55 1.490 . S
C901 C375 1.490 . S
C906 C95 1.490 . S
C931 C135 1.490 . S
C936 C415 1.490 . S
C961 C175 1.490 . S
C966 C455 1.490 . S
C991 C215 1.490 . S
C996 C255 1.490 . S
C1021 C18 0.692 . S
C1026 C138 0.692 . S
C1051 C58 0.692 . S
C1056 C178 0.692 . S
C1081 C98 0.692 . S
C1086 C218 0.692 . S
C1111 C378 0.692 . S
C1116 C258 0.692 . S
C1141 C298 0.692 . S
C1146 C418 0.692 . S
C1171 C458 0.692 . S
C1176 C338 0.692 . S
C1201 C290 4.599 . S
C1206 C10 4.599 . S
C1231 C330 4.599 1_556 S
C1236 C50 4.599 . S
C1261 C90 4.599 1_554 S
C1266 C370 4.599 . S
C1291 C410 4.599 . S
C1296 C130 4.599 . S
C1321 C450 4.599 1_556 S
C1326 C170 4.599 . S
C1351 C210 4.599 1_554 S
C1356 C250 4.599 . S
C1381 C6 0.788 . S
C1386 C406 0.788 . S
C1411 C46 0.788 . S
C1416 C446 0.788 . S
C1441 C86 0.788 . S
C1446 C246 0.788 . S
C1471 C126 0.788 . S
C1476 C286 0.788 . S
C1501 C166 0.788 . S
C1506 C326 0.788 . S
C1531 C366 0.788 . S
C1536 C206 0.788 . S
