# Generated by pormake.
# Topology swf, (7)-cn, num edge types: 1
# Building blocks:
#     Node 0, Type 0, BuildingBlock: HICVOG_clean_sbu_0, # of connection points: 7
#     Node 1, Type 0, BuildingBlock: HICVOG_clean_sbu_0, # of connection points: 7
#     Node 2, Type 0, BuildingBlock: HICVOG_clean_sbu_0, # of connection points: 7
#     Node 3, Type 0, BuildingBlock: HICVOG_clean_sbu_0, # of connection points: 7
#     Node 4, Type 0, BuildingBlock: HICVOG_clean_sbu_0, # of connection points: 7
#     Node 5, Type 0, BuildingBlock: HICVOG_clean_sbu_0, # of connection points: 7
#     Node 6, Type 0, BuildingBlock: HICVOG_clean_sbu_0, # of connection points: 7
#     Node 7, Type 0, BuildingBlock: HICVOG_clean_sbu_0, # of connection points: 7
#     Node 8, Type 0, BuildingBlock: HICVOG_clean_sbu_0, # of connection points: 7
#     Node 9, Type 0, BuildingBlock: HICVOG_clean_sbu_0, # of connection points: 7
#     Node 10, Type 0, BuildingBlock: HICVOG_clean_sbu_0, # of connection points: 7
#     Node 11, Type 0, BuildingBlock: HICVOG_clean_sbu_0, # of connection points: 7
#     Edge 12, Type (0, 0), BuildingBlock: OJICUG_clean_linker_0, # of connection points: 2
#     Edge 13, Type (0, 0), BuildingBlock: OJICUG_clean_linker_0, # of connection points: 2
#     Edge 14, Type (0, 0), BuildingBlock: OJICUG_clean_linker_0, # of connection points: 2
#     Edge 15, Type (0, 0), BuildingBlock: OJICUG_clean_linker_0, # of connection points: 2
#     Edge 16, Type (0, 0), BuildingBlock: OJICUG_clean_linker_0, # of connection points: 2
#     Edge 17, Type (0, 0), BuildingBlock: OJICUG_clean_linker_0, # of connection points: 2
#     Edge 18, Type (0, 0), BuildingBlock: OJICUG_clean_linker_0, # of connection points: 2
#     Edge 19, Type (0, 0), BuildingBlock: OJICUG_clean_linker_0, # of connection points: 2
#     Edge 20, Type (0, 0), BuildingBlock: OJICUG_clean_linker_0, # of connection points: 2
#     Edge 21, Type (0, 0), BuildingBlock: OJICUG_clean_linker_0, # of connection points: 2
#     Edge 22, Type (0, 0), BuildingBlock: OJICUG_clean_linker_0, # of connection points: 2
#     Edge 23, Type (0, 0), BuildingBlock: OJICUG_clean_linker_0, # of connection points: 2
#     Edge 24, Type (0, 0), BuildingBlock: OJICUG_clean_linker_0, # of connection points: 2
#     Edge 25, Type (0, 0), BuildingBlock: OJICUG_clean_linker_0, # of connection points: 2
#     Edge 26, Type (0, 0), BuildingBlock: OJICUG_clean_linker_0, # of connection points: 2
#     Edge 27, Type (0, 0), BuildingBlock: OJICUG_clean_linker_0, # of connection points: 2
#     Edge 28, Type (0, 0), BuildingBlock: OJICUG_clean_linker_0, # of connection points: 2
#     Edge 29, Type (0, 0), BuildingBlock: OJICUG_clean_linker_0, # of connection points: 2
#     Edge 30, Type (0, 0), BuildingBlock: OJICUG_clean_linker_0, # of connection points: 2
#     Edge 31, Type (0, 0), BuildingBlock: OJICUG_clean_linker_0, # of connection points: 2
#     Edge 32, Type (0, 0), BuildingBlock: OJICUG_clean_linker_0, # of connection points: 2
#     Edge 33, Type (0, 0), BuildingBlock: OJICUG_clean_linker_0, # of connection points: 2
#     Edge 34, Type (0, 0), BuildingBlock: OJICUG_clean_linker_0, # of connection points: 2
#     Edge 35, Type (0, 0), BuildingBlock: OJICUG_clean_linker_0, # of connection points: 2
#     Edge 36, Type (0, 0), BuildingBlock: OJICUG_clean_linker_0, # of connection points: 2
#     Edge 37, Type (0, 0), BuildingBlock: OJICUG_clean_linker_0, # of connection points: 2
#     Edge 38, Type (0, 0), BuildingBlock: OJICUG_clean_linker_0, # of connection points: 2
#     Edge 39, Type (0, 0), BuildingBlock: OJICUG_clean_linker_0, # of connection points: 2
#     Edge 40, Type (0, 0), BuildingBlock: OJICUG_clean_linker_0, # of connection points: 2
#     Edge 41, Type (0, 0), BuildingBlock: OJICUG_clean_linker_0, # of connection points: 2
#     Edge 42, Type (0, 0), BuildingBlock: OJICUG_clean_linker_0, # of connection points: 2
#     Edge 43, Type (0, 0), BuildingBlock: OJICUG_clean_linker_0, # of connection points: 2
#     Edge 44, Type (0, 0), BuildingBlock: OJICUG_clean_linker_0, # of connection points: 2
#     Edge 45, Type (0, 0), BuildingBlock: OJICUG_clean_linker_0, # of connection points: 2
#     Edge 46, Type (0, 0), BuildingBlock: OJICUG_clean_linker_0, # of connection points: 2
#     Edge 47, Type (0, 0), BuildingBlock: OJICUG_clean_linker_0, # of connection points: 2
#     Edge 48, Type (0, 0), BuildingBlock: OJICUG_clean_linker_0, # of connection points: 2
#     Edge 49, Type (0, 0), BuildingBlock: OJICUG_clean_linker_0, # of connection points: 2
#     Edge 50, Type (0, 0), BuildingBlock: OJICUG_clean_linker_0, # of connection points: 2
#     Edge 51, Type (0, 0), BuildingBlock: OJICUG_clean_linker_0, # of connection points: 2
#     Edge 52, Type (0, 0), BuildingBlock: OJICUG_clean_linker_0, # of connection points: 2
#     Edge 53, Type (0, 0), BuildingBlock: OJICUG_clean_linker_0, # of connection points: 2
# Relax obj value: 0.426
# Max RMSD: 0.203
# Mean RMSD: 0.203
data_MOF--net-swf--node1-HICVOG_clean_sbu_0--edge1-OJICUG_clean_linker_0
_symmetry_space_group_name_H-M    P1
_symmetry_Int_Tables_number       1
_symmetry_cell_setting            triclinic
loop_
_symmetry_equiv_pos_as_xyz
'x, y, z'
_cell_length_a     35.715929
_cell_length_b     35.772542
_cell_length_c     16.567815
_cell_angle_alpha  89.812446
_cell_angle_beta   90.955571
_cell_angle_gamma 119.89695
loop_
_atom_site_label
_atom_site_type_symbol
_atom_site_fract_x
_atom_site_fract_y
_atom_site_fract_z
_atom_type_partial_charge
Zn0 Zn 0.40655 0.06805 1.04808 0.0
C1 C 0.44617 0.16679 0.20777 0.0
N2 N 0.44721 0.19015 1.13958 0.0
C3 C 0.43951 0.16288 1.074 0.0
N4 N 0.43287 0.12426 1.10361 0.0
N5 N 0.43944 0.12746 0.18302 0.0
C6 C 0.39031 0.05276 0.33777 0.0
O7 O 0.37281 0.06068 0.27444 0.0
O8 O 0.44099 0.08726 0.94781 0.0
Zn9 Zn 0.45732 0.08953 0.23791 0.0
N10 N 0.34577 0.04859 1.06342 0.0
C11 C 0.29242 0.06396 1.11283 0.0
C12 C 0.33079 0.07672 1.0719 0.0
C13 C 0.32429 0.00883 1.09655 0.0
N14 N 0.27127 0.02419 1.14657 0.0
C15 C 0.28674 -0.0036 1.14133 0.0
O16 O 0.44391 0.03021 0.19835 0.0
C17 C 0.43057 0.00479 1.1383 0.0
O18 O 0.41577 0.01465 1.07634 0.0
H19 H 0.34955 0.1097 1.05249 0.0
H20 H 0.33734 0.98759 1.08978 0.0
C21 C 0.53921 0.15521 0.18998 0.0
C22 C 0.58362 0.17506 0.17455 0.0
C23 C 0.58335 0.11299 0.22811 0.0
C24 C 0.5402 0.0956 0.24922 0.0
N25 N 0.51917 0.11743 0.23055 0.0
N26 N 0.60418 0.15246 0.19308 0.0
H27 H 0.52106 0.17059 0.17265 0.0
C28 C 0.47764 0.09838 0.98149 0.0
O29 O 0.4794 0.08932 1.05774 0.0
O30 O 0.43123 0.07262 0.34529 0.0
H31 H 0.52311 0.06425 0.27727 0.0
H32 H 0.28025 0.08603 1.11983 0.0
H33 H 0.60052 0.09586 0.24151 0.0
Zn34 Zn 0.30617 0.42525 1.01169 0.0
C35 C 0.23551 0.45049 0.16275 0.0
N36 N 0.21092 0.44896 1.09547 0.0
C37 C 0.23259 0.44639 1.02866 0.0
N38 N 0.26927 0.44666 1.05632 0.0
N39 N 0.2719 0.45099 1.13642 0.0
C40 C 0.35294 0.41268 0.26121 0.0
O41 O 0.37021 0.42009 0.18963 0.0
O42 O 0.2979 0.41759 0.89275 0.0
Zn43 Zn 0.32886 0.47314 0.19483 0.0
N44 N 0.28769 0.37138 1.06743 0.0
C45 C 0.2393 0.3169 0.15667 0.0
C46 C 0.25014 0.35294 1.10901 0.0
C47 C 0.31415 0.35443 1.06989 0.0
N48 N 0.26584 0.29995 0.15926 0.0
C49 C 0.30326 0.31785 1.11742 0.0
O50 O 0.38782 0.49774 1.13466 0.0
C51 C 0.40185 0.49051 1.06968 0.0
O52 O 0.37453 0.46343 1.01896 0.0
H53 H 0.22877 0.36611 1.10591 0.0
H54 H 0.34301 0.36928 1.03405 0.0
C55 C 0.32946 0.53027 0.3166 0.0
C56 C 0.33278 0.5691 0.34265 0.0
C57 C 0.34867 0.59607 0.20941 0.0
C58 C 0.34451 0.55715 0.1836 0.0
N59 N 0.33555 0.52537 0.23804 0.0
N60 N 0.34327 0.60139 0.28857 0.0
H61 H 0.32361 0.50467 0.35831 0.0
C62 C 0.30734 0.45483 0.86828 0.0
O63 O 0.31188 0.48376 0.92215 0.0
O64 O 0.33152 0.43119 0.28024 0.0
H65 H 0.34842 0.55215 1.12065 0.0
H66 H 0.20972 0.30214 0.19047 0.0
H67 H 0.35633 0.62189 0.16708 0.0
Zn68 Zn 0.85282 0.32906 1.05239 0.0
C69 C 0.76199 0.25066 0.20123 0.0
N70 N 0.74342 0.22512 1.13254 0.0
C71 C 0.76495 0.25126 1.06725 0.0
N72 N 0.79635 0.2901 1.09755 0.0
N73 N 0.79304 0.29069 0.17707 0.0
C74 C 0.89432 0.34857 0.29102 0.0
O75 O 0.88847 0.33121 0.21904 0.0
O76 O 0.84201 0.34831 0.94695 0.0
Zn77 Zn 0.81846 0.34696 0.23536 0.0
N78 N 0.8835 0.29721 1.05393 0.0
C79 C 0.88758 0.23497 1.09128 0.0
C80 C 0.86323 0.25458 1.07305 0.0
C81 C 0.92716 0.32085 1.05207 0.0
N82 N 0.93126 0.25861 1.08908 0.0
C83 C 0.95208 0.30131 1.07036 0.0
O84 O 0.85529 0.40555 0.1787 0.0
C85 C 0.8908 0.41762 1.14301 0.0
O86 O 0.89602 0.38985 1.10406 0.0
H87 H 0.82865 0.23602 1.07706 0.0
H88 H 0.94175 0.35448 1.0361 0.0
C89 C 0.75332 0.34539 0.34404 0.0
C90 C 0.71291 0.34196 0.35805 0.0
C91 C 0.70488 0.35044 0.21836 0.0
C92 C 0.74384 0.35166 0.20443 0.0
N93 N 0.7675 0.3493 0.26742 0.0
N94 N 0.69037 0.34574 0.29487 0.0
H95 H 0.77345 0.34534 0.39346 0.0
C96 C 0.82352 0.36941 0.96716 0.0
O97 O 0.81054 0.36704 1.04136 0.0
O98 O 0.86492 0.35479 0.31943 0.0
H99 H 0.75491 0.354 1.14355 0.0
H100 H 0.8719 0.2012 1.10713 0.0
H101 H 0.68603 0.35265 0.16872 0.0
Zn102 Zn 0.50116 0.8155 0.27506 0.0
C103 C 0.53252 0.75152 1.113 0.0
N104 N 0.53183 0.7278 0.18024 0.0
C105 C 0.52849 0.74973 0.24653 0.0
N106 N 0.52574 0.78438 0.21878 0.0
N107 N 0.52891 0.78569 1.13883 0.0
C108 C 0.48152 0.7898 0.96146 0.0
O109 O 0.46523 0.76562 1.02539 0.0
O110 O 0.54057 0.86096 0.358 0.0
Zn111 Zn 0.54109 0.83697 1.07803 0.0
N112 N 0.44931 0.76875 0.3136 0.0
C113 C 0.38158 0.70872 0.27543 0.0
C114 C 0.42091 0.74399 0.2546 0.0
C115 C 0.44083 0.75933 0.3925 0.0
N116 N 0.37224 0.69986 0.35455 0.0
C117 C 0.40112 0.72382 0.41389 0.0
O118 O 0.5106 0.87311 1.0999 0.0
C119 C 0.48557 0.87389 0.15298 0.0
O120 O 0.47815 0.85108 0.21605 0.0
H121 H 0.42883 0.75195 0.19182 0.0
H122 H 0.46408 0.78043 0.43739 0.0
C123 C 0.62493 0.9047 1.03717 0.0
C124 C 0.66931 0.93221 1.04938 0.0
C125 C 0.66757 0.89491 0.16811 0.0
C126 C 0.6233 0.8675 0.1561 0.0
N127 N 0.60275 0.8732 1.09113 0.0
N128 N 0.68969 0.92705 1.11475 0.0
H129 H 0.60792 0.90886 0.98632 0.0
C130 C 0.56588 0.89719 0.32545 0.0
O131 O 0.56942 0.89866 0.24664 0.0
O132 O 0.52071 0.81996 0.9644 0.0
H133 H 0.60561 0.84252 0.19944 0.0
H134 H 0.35842 0.68903 0.22921 0.0
H135 H 0.68409 0.89097 0.21993 0.0
Zn136 Zn 0.67121 0.56871 0.94753 0.0
C137 C 0.74399 0.56044 1.13223 0.0
N138 N 0.76704 0.55775 1.06757 0.0
C139 C 0.74662 0.56132 0.99835 0.0
N140 N 0.7123 0.56523 1.02161 0.0
N141 N 0.71025 0.56488 1.10193 0.0
C142 C 0.69168 0.63632 0.25762 0.0
O143 O 0.7075 0.65732 0.1904 0.0
O144 O 0.66282 0.52652 0.86143 0.0
Zn145 Zn 0.65873 0.56363 0.15345 0.0
N146 N 0.69938 0.62836 0.91938 0.0
C147 C 0.73887 0.69142 0.84148 0.0
C148 C 0.71761 0.64656 0.84814 0.0
C149 C 0.70195 0.65273 0.98388 0.0
N150 N 0.73831 0.7155 0.90445 0.0
C151 C 0.71958 0.69733 0.97606 0.0
O152 O 0.61793 0.58239 1.09563 0.0
C153 C 0.59196 0.5602 1.03836 0.0
O154 O 0.60676 0.54778 0.98118 0.0
H155 H 0.71622 0.62661 0.79797 0.0
H156 H 0.68851 0.63656 1.03964 0.0
C157 C 0.61671 0.47078 0.14931 0.0
C158 C 0.57927 0.42994 0.15193 0.0
C159 C 0.53956 0.46283 0.19703 0.0
C160 C 0.57723 0.50256 0.19914 0.0
N161 N 0.61467 0.50588 0.17319 0.0
N162 N 0.54158 0.42755 0.17458 0.0
H163 H 0.64719 0.47485 1.12945 0.0
C164 C 0.64798 0.49167 0.90153 0.0
O165 O 0.64104 0.49251 0.97877 0.0
O166 O 0.67377 0.59551 0.25789 0.0
H167 H 0.57632 0.53109 0.21724 0.0
H168 H 0.75408 0.70685 0.78565 0.0
H169 H 0.50914 0.4598 0.21471 0.0
Zn170 Zn 0.10068 0.65777 0.28352 0.0
C171 C 0.18365 0.75152 1.13333 0.0
N172 N 0.20793 0.77189 0.20231 0.0
C173 C 0.18283 0.74819 0.26718 0.0
N174 N 0.14525 0.71408 0.2368 0.0
N175 N 0.14634 0.71667 0.1567 0.0
C176 C 0.1472 0.66248 0.98883 0.0
O177 O 0.16051 0.6611 1.06226 0.0
O178 O 0.1004 0.6665 0.40363 0.0
Zn179 Zn 0.09791 0.67843 1.08897 0.0
N180 N 0.12067 0.61782 0.26263 0.0
C181 C 0.10363 0.54568 0.23727 0.0
C182 C 0.09326 0.57485 0.27128 0.0
C183 C 0.15885 0.63283 0.22493 0.0
N184 N 0.1416 0.56077 0.1984 0.0
C185 C 0.17017 0.60386 0.19137 0.0
O186 O 0.06122 0.61403 1.11679 0.0
C187 C 0.03219 0.599 0.16998 0.0
O188 O 0.03747 0.62196 0.23283 0.0
H189 H 0.06259 0.56341 0.30037 0.0
H190 H 0.17987 0.66713 0.22056 0.0
C191 C 0.04808 0.7144 1.0245 0.0
C192 C 0.02263 0.73405 1.02983 0.0
C193 C 0.02596 0.73164 0.17235 0.0
C194 C 0.05148 0.71237 0.16679 0.0
N195 N 0.06151 0.70364 1.0929 0.0
N196 N 0.01158 0.74156 1.10371 0.0
H197 H 0.05629 0.7066 0.96673 0.0
C198 C 0.06905 0.66335 0.44399 0.0
O199 O 0.0755 0.6761 0.51969 0.0
O200 O 0.11917 0.67425 0.97916 0.0
H201 H 0.06327 0.70451 0.22103 0.0
H202 H 0.08172 0.51132 0.24169 0.0
H203 H 0.01729 0.73826 0.23069 0.0
Zn204 Zn 0.86291 0.54213 0.47422 0.0
C205 C 0.78481 0.55864 0.63235 0.0
N206 N 0.76269 0.56031 0.56386 0.0
C207 C 0.78491 0.55709 0.4982 0.0
N208 N 0.81959 0.55416 0.52712 0.0
N209 N 0.81912 0.5552 0.60733 0.0
C210 C 0.8265 0.49694 0.75726 0.0
O211 O 0.8155 0.48672 0.68143 0.0
O212 O 0.8641 0.55784 0.35638 0.0
Zn213 Zn 0.86867 0.56391 0.67002 0.0
N214 N 0.84053 0.48105 0.4861 0.0
C215 C 0.85474 0.42338 0.50498 0.0
C216 C 0.86708 0.46447 0.47607 0.0
C217 C 0.80142 0.45758 0.52044 0.0
N218 N 0.81585 0.40018 0.54072 0.0
C219 C 0.78825 0.41587 0.54944 0.0
O220 O 0.90448 0.53487 0.63927 0.0
C221 C 0.93186 0.54653 0.58339 0.0
O222 O 0.92647 0.56493 0.5215 0.0
H223 H 0.89852 0.48387 0.44979 0.0
H224 H 0.78138 0.47198 0.52686 0.0
C225 C 0.91713 0.64895 0.73646 0.0
C226 C 0.94276 0.69398 0.73176 0.0
C227 C 0.94207 0.68896 0.58925 0.0
C228 C 0.91669 0.64425 0.59423 0.0
N229 N 0.90537 0.62519 0.66783 0.0
N230 N 0.95512 0.71282 0.65818 0.0
H231 H 0.90773 0.63262 0.79394 0.0
C232 C 0.89614 0.58557 0.3168 0.0
O233 O 0.88998 0.59511 0.243 0.0
O234 O 0.8486 0.5366 0.77706 0.0
H235 H 0.90584 0.62491 0.5398 0.0
H236 H 0.87589 0.41003 0.49924 0.0
H237 H 0.95174 0.70452 0.53118 0.0
Zn238 Zn 0.32173 0.86182 0.61417 0.0
C239 C 0.22526 0.7869 0.76806 0.0
N240 N 0.20081 0.76653 0.69921 0.0
C241 C 0.22729 0.7874 0.63398 0.0
N242 N 0.2661 0.81992 0.6637 0.0
N243 N 0.26446 0.81945 0.74401 0.0
C244 C 0.34277 0.80956 0.84725 0.0
O245 O 0.31575 0.7855 0.79007 0.0
O246 O 0.315 0.86573 0.4966 0.0
Zn247 Zn 0.30791 0.86441 0.8161 0.0
N248 N 0.36461 0.84516 0.63871 0.0
C249 C 0.43462 0.86238 0.6865 0.0
C250 C 0.40588 0.87529 0.65908 0.0
C251 C 0.35204 0.8027 0.63847 0.0
N252 N 0.42195 0.81987 0.68684 0.0
C253 C 0.38151 0.78916 0.66242 0.0
O254 O 0.36121 0.92201 0.77541 0.0
C255 C 0.37422 0.94337 0.71005 0.0
O256 O 0.35295 0.92661 0.64495 0.0
H257 H 0.41684 0.90907 0.65379 0.0
H258 H 0.31931 0.78035 0.61955 0.0
C259 C 0.26545 0.87104 0.96034 0.0
C260 C 0.23045 0.87243 0.99592 0.0
C261 C 0.20932 0.88506 0.86615 0.0
C262 C 0.24461 0.88516 0.83234 0.0
N263 N 0.27145 0.87744 0.87957 0.0
N264 N 0.20332 0.87902 0.94659 0.0
H265 H 0.28724 0.86428 0.99503 0.0
C266 C 0.29469 0.88557 0.48011 0.0
O267 O 0.26442 0.8814 0.52942 0.0
O268 O 0.33996 0.84076 0.87688 0.0
H269 H 0.24935 0.8889 0.76786 0.0
H270 H 0.46721 0.88598 0.70486 0.0
H271 H 0.18695 0.88996 0.82903 0.0
Zn272 Zn 0.45135 0.28726 0.75352 0.0
C273 C 0.44891 0.20912 0.57203 0.0
N274 N 0.44674 0.18356 0.63748 0.0
C275 C 0.44871 0.20686 0.70594 0.0
N276 N 0.4518 0.24476 0.68124 0.0
N277 N 0.45174 0.24633 0.60084 0.0
C278 C 0.40054 0.31674 0.48455 0.0
O279 O 0.39576 0.32 0.56215 0.0
O280 O 0.506 0.31364 0.81761 0.0
Zn281 Zn 0.46996 0.301 0.54106 0.0
N282 N 0.40324 0.25347 0.8213 0.0
C283 C 0.33656 0.18899 0.84006 0.0
C284 C 0.36931 0.2171 0.78972 0.0
C285 C 0.40531 0.26366 0.90047 0.0
N286 N 0.33765 0.19999 0.91858 0.0
C287 C 0.37067 0.23711 0.95076 0.0
O288 O 0.49156 0.35947 0.6029 0.0
C289 C 0.47879 0.3721 0.66325 0.0
O290 O 0.45364 0.34445 0.71464 0.0
H291 H 0.36846 0.20929 0.7265 0.0
H292 H 0.4333 0.29279 0.92175 0.0
C293 C 0.52332 0.31539 0.40244 0.0
C294 C 0.5609 0.32153 0.36439 0.0
C295 C 0.58819 0.31337 0.49038 0.0
C296 C 0.54975 0.30398 0.52611 0.0
N297 N 0.51905 0.30753 0.48284 0.0
N298 N 0.59284 0.3216 0.41031 0.0
H299 H 0.49835 0.31814 0.36969 0.0
C300 C 0.53774 0.33122 0.77043 0.0
O301 O 0.53002 0.32532 0.69299 0.0
O302 O 0.42611 0.30361 0.4619 0.0
H303 H 0.54446 0.29324 0.58748 0.0
H304 H 0.30985 0.1593 0.81656 0.0
H305 H 0.61351 0.31251 0.52553 0.0
Zn306 Zn 0.14114 0.49872 0.49559 0.0
C307 C 0.19411 0.4537 0.66083 0.0
N308 N 0.21114 0.44437 0.59389 0.0
C309 C 0.19327 0.45355 0.52644 0.0
N310 N 0.16611 0.46756 0.55328 0.0
N311 N 0.16666 0.46737 0.63354 0.0
C312 C 0.15934 0.55591 0.74938 0.0
O313 O 0.15757 0.56183 0.67175 0.0
O314 O 0.09543 0.46028 0.41126 0.0
Zn315 Zn 0.12212 0.46881 0.69756 0.0
N316 N 0.19373 0.54991 0.46331 0.0
C317 C 0.26279 0.60456 0.5116 0.0
C318 C 0.22171 0.57012 0.526 0.0
C319 C 0.20596 0.5621 0.38625 0.0
N320 N 0.27516 0.61664 0.43447 0.0
C321 C 0.24832 0.59542 0.3712 0.0
O322 O 0.06975 0.47297 0.64685 0.0
C323 C 0.07105 0.50137 0.59806 0.0
O324 O 0.1029 0.52035 0.55048 0.0
H325 H 0.21269 0.55863 0.58677 0.0
H326 H 0.18313 0.54562 0.33734 0.0
C327 C 0.09709 0.41153 0.8335 0.0
C328 C 0.0855 0.3716 0.86968 0.0
C329 C 0.08517 0.34273 0.74021 0.0
C330 C 0.09397 0.38137 0.70474 0.0
N331 N 0.10021 0.41502 0.75206 0.0
N332 N 0.08056 0.33862 0.82121 0.0
H333 H 0.10339 0.4396 0.8682 0.0
C334 C 0.06334 0.42854 0.44445 0.0
O335 O 0.06694 0.42038 0.5206 0.0
O336 O 0.14816 0.5184 0.77568 0.0
H337 H 0.09762 0.3852 0.64009 0.0
H338 H 0.28508 0.62075 0.56131 0.0
H339 H 0.08112 0.3159 0.70373 0.0
Zn340 Zn 0.65314 0.12826 0.74213 0.0
C341 C 0.72136 0.20883 0.5643 0.0
N342 N 0.74788 0.23246 0.6293 0.0
C343 C 0.72633 0.21065 0.69802 0.0
N344 N 0.68834 0.17571 0.67368 0.0
N345 N 0.68424 0.17483 0.5937 0.0
C346 C 0.62005 0.05641 0.50114 0.0
O347 O 0.61872 0.05549 0.58027 0.0
O348 O 0.65275 0.15721 0.84202 0.0
Zn349 Zn 0.62644 0.13616 0.54073 0.0
N350 N 0.68421 0.09701 0.74413 0.0
C351 C 0.73038 0.07891 0.67241 0.0
C352 C 0.7052 0.09848 0.67522 0.0
C353 C 0.68731 0.07647 0.8105 0.0
N354 N 0.73314 0.05794 0.73833 0.0
C355 C 0.71245 0.05629 0.80757 0.0
O356 O 0.57064 0.09685 0.60489 0.0
C357 C 0.55815 0.0785 0.67285 0.0
O358 O 0.58637 0.08595 0.72796 0.0
H359 H 0.7025 0.11464 0.62232 0.0
H360 H 0.6696 0.07516 0.8638 0.0
C361 C 0.62203 0.19451 0.42274 0.0
C362 C 0.6122 0.22666 0.40046 0.0
C363 C 0.5763 0.21689 0.52429 0.0
C364 C 0.58827 0.18698 0.54785 0.0
N365 N 0.6103 0.17583 0.49616 0.0
N366 N 0.58825 0.23574 0.45097 0.0
H367 H 0.63756 0.1835 0.38157 0.0
C368 C 0.63771 0.18246 0.82914 0.0
O369 O 0.64158 0.19956 0.75738 0.0
O370 O 0.62583 0.09047 0.46508 0.0
H371 H 0.58012 0.17276 0.60718 0.0
H372 H 0.74713 0.07986 0.61797 0.0
H373 H 0.55782 0.22521 0.56406 0.0
Zn374 Zn 0.52955 0.62308 0.58715 0.0
C375 C 0.53137 0.71193 0.74652 0.0
N376 N 0.53373 0.73526 0.67768 0.0
C377 C 0.53243 0.71003 0.61252 0.0
N378 N 0.53101 0.67346 0.64233 0.0
N379 N 0.52868 0.67416 0.72235 0.0
C380 C 0.43965 0.59736 0.8056 0.0
O381 O 0.44515 0.62583 0.7503 0.0
O382 O 0.56525 0.64435 0.48909 0.0
Zn383 Zn 0.52596 0.6293 0.79325 0.0
N384 N 0.47036 0.58077 0.5686 0.0
C385 C 0.41443 0.50767 0.55919 0.0
C386 C 0.458 0.53873 0.55477 0.0
C387 C 0.44123 0.59308 0.58525 0.0
N388 N 0.38506 0.52033 0.57327 0.0
C389 C 0.39709 0.5626 0.58561 0.0
O390 O 0.51919 0.57102 0.75267 0.0
C391 C 0.53267 0.55803 0.69453 0.0
O392 O 0.55131 0.58377 0.63649 0.0
H393 H 0.48183 0.52931 0.54322 0.0
H394 H 0.45281 0.62667 0.59665 0.0
C395 C 0.58833 0.68505 0.91684 0.0
C396 C 0.62935 0.72209 0.92817 0.0
C397 C 0.65026 0.7093 0.79995 0.0
C398 C 0.61062 0.67213 0.79092 0.0
N399 N 0.58006 0.66159 0.84771 0.0
N400 N 0.65857 0.7332 0.86781 0.0
H401 H 0.56318 0.67596 0.96068 0.0
C402 C 0.60533 0.66556 0.50666 0.0
O403 O 0.61762 0.67337 0.58279 0.0
O404 O 0.4711 0.60369 0.85209 0.0
H405 H 0.60251 0.65393 0.73528 0.0
H406 H 0.40393 0.47391 0.54989 0.0
H407 H 0.67427 0.71925 0.75351 0.0
C408 C 0.38668 0.98877 0.40342 0.0
C409 C 0.36546 0.01081 0.37717 0.0
H410 H 0.3808 0.93118 0.45272 0.0
C411 C 0.32016 -0.01008 0.37879 0.0
H412 H 0.42151 0.00356 0.40092 0.0
C413 C 0.29657 0.94808 0.40899 0.0
C414 C 0.31797 0.92628 0.43581 0.0
H415 H 0.30306 0.00597 0.35697 0.0
H416 H 0.26175 0.93298 0.4123 0.0
C417 C 0.36319 0.9468 0.43144 0.0
C418 C 0.38683 0.36747 0.29304 0.0
C419 C 0.36117 0.38493 0.31808 0.0
H420 H 0.41825 0.33162 0.32396 0.0
C421 C 0.34575 0.37687 0.39736 0.0
H422 H 0.40013 0.3736 0.23325 0.0
C423 C 0.35691 0.35305 0.45058 0.0
C424 C 0.38343 0.33645 0.42553 0.0
H425 H 0.32606 0.38986 0.41892 0.0
H426 H 0.34568 0.34864 0.51206 0.0
C427 C 0.39745 0.34332 0.34547 0.0
C428 C 0.98298 0.39165 0.45142 0.0
C429 C 0.02026 0.40634 0.40456 0.0
H430 H 0.9139 0.36253 0.45226 0.0
C431 C 0.01566 0.40111 0.32049 0.0
H432 H -0.0144 0.39587 0.5164 0.0
C433 C 0.97448 0.38103 0.28414 0.0
C434 C 0.93727 0.36701 0.33098 0.0
H435 H 0.04381 0.41239 0.28301 0.0
H436 H 0.97188 0.37757 0.21902 0.0
C437 C 0.94194 0.37274 0.4149 0.0
C438 C 0.58195 0.93857 0.45612 0.0
C439 C 0.58436 0.93833 0.37172 0.0
H440 H 0.59186 0.976 0.56294 0.0
C441 C 0.60133 0.9779 0.33042 0.0
H442 H 0.56903 0.90878 0.48975 0.0
C443 C 0.61386 0.01649 0.37215 0.0
C444 C 0.6103 0.01653 0.45634 0.0
H445 H 0.60354 0.979 0.26525 0.0
H446 H 0.62554 0.04609 0.3383 0.0
C447 C 0.59504 0.97724 0.49795 0.0
C448 C 0.65403 0.67381 0.30473 0.0
C449 C 0.68085 0.65648 0.32259 0.0
H450 H 0.6079 0.68973 0.35056 0.0
C451 C 0.68819 0.64942 0.40296 0.0
H452 H 0.64728 0.6786 0.24287 0.0
C453 C 0.66666 0.65697 0.46462 0.0
C454 C 0.63637 0.66995 0.44581 0.0
H455 H 0.70823 0.63539 0.41747 0.0
H456 H 0.67067 0.64874 0.52594 0.0
C457 C 0.63129 0.67986 0.366 0.0
C458 C 0.95991 0.58096 0.36298 0.0
C459 C 0.93996 0.6058 0.35114 0.0
H460 H 0.01785 0.58072 0.39726 0.0
C461 C 0.96307 0.6502 0.36761 0.0
H462 H 0.94242 0.54659 0.35095 0.0
C463 C 0.00551 0.66933 0.39777 0.0
C464 C 0.02564 0.6445 0.40806 0.0
H465 H 0.94811 0.66984 0.35826 0.0
H466 H 0.02271 0.70343 0.41236 0.0
C467 C 0.00276 0.60035 0.38966 0.0
C468 C 0.71011 0.03944 0.95448 0.0
C469 C 0.71217 0.02887 0.87371 0.0
H470 H 0.69553 0.01601 1.07566 0.0
C471 C 0.70873 -0.01097 0.85496 0.0
H472 H 0.71368 0.07041 0.97047 0.0
C473 C 0.69847 0.95828 0.91477 0.0
C474 C 0.69254 0.96755 0.99385 0.0
H475 H 0.71036 0.98024 0.79312 0.0
H476 H 0.69211 0.9263 0.89833 0.0
C477 C 0.70036 0.00876 1.01454 0.0
C478 C 0.66851 0.69919 1.07589 0.0
C479 C 0.70759 0.72193 1.03282 0.0
H480 H 0.60535 0.69085 1.08848 0.0
C481 C 0.7207 0.76524 1.01391 0.0
H482 H 0.65741 0.66751 1.10014 0.0
C483 C 0.68867 0.77713 1.00781 0.0
C484 C 0.6455 0.74313 1.00892 0.0
H485 H 0.75201 0.78617 0.98809 0.0
H486 H 0.69653 0.8068 0.97682 0.0
C487 C 0.63794 0.71266 1.06893 0.0
C488 C 0.95772 0.72009 0.9512 0.0
C489 C 0.00284 0.73995 0.95641 0.0
H490 H 0.9023 0.68992 0.87255 0.0
C491 C 0.02737 0.75573 0.88636 0.0
H492 H 0.9383 0.70805 1.00476 0.0
C493 C 0.00684 0.74561 0.81096 0.0
C494 C 0.96184 0.71926 0.80566 0.0
H495 H 0.06233 0.77181 0.88962 0.0
H496 H 0.0264 0.75381 0.75747 0.0
C497 C 0.93719 0.70954 0.87577 0.0
C498 C 0.28065 0.92612 0.17804 0.0
C499 C 0.26068 0.95136 0.16938 0.0
H500 H 0.28346 0.87298 1.12687 0.0
C501 C 0.21643 0.92993 0.14986 0.0
H502 H 0.31333 0.94015 0.20208 0.0
C503 C 0.19869 0.89039 1.10942 0.0
C504 C 0.2269 0.87588 1.0848 0.0
H505 H 0.19845 0.94697 0.14947 0.0
H506 H 0.16732 0.8783 1.08035 0.0
C507 C 0.26352 0.88758 1.13432 0.0
C508 C 0.39008 0.29622 1.0529 0.0
C509 C 0.36376 0.25285 1.02901 0.0
H510 H 0.39088 0.35206 1.09923 0.0
C511 C 0.32337 0.22871 1.06589 0.0
H512 H 0.42287 0.31566 1.03292 0.0
C513 C 0.30532 0.24981 1.10652 0.0
C514 C 0.32785 0.29496 1.11123 0.0
H515 H 0.30304 0.19456 1.05358 0.0
H516 H 0.27181 0.23131 1.12388 0.0
C517 C 0.37184 0.3174 1.09228 0.0
C518 C 0.05355 0.31855 0.98031 0.0
C519 C 0.06957 0.36115 0.9536 0.0
H520 H 0.00207 0.26526 1.03956 0.0
C521 C 0.05792 0.38768 0.99639 0.0
H522 H 0.06388 0.29774 0.95316 0.0
C523 C 0.0228 0.36904 1.04782 0.0
C524 C -0.00092 0.32395 1.05561 0.0
H525 H 0.07168 0.42159 0.98353 0.0
H526 H 0.01151 0.38939 1.07334 0.0
C527 C 0.01796 0.29979 1.03043 0.0
C528 C 0.45376 0.91671 0.21542 0.0
C529 C 0.46773 0.90458 1.14606 0.0
H530 H 0.43148 0.95701 0.26746 0.0
C531 C 0.46591 0.9236 1.0722 0.0
H532 H 0.45469 0.90335 0.27368 0.0
C533 C 0.45123 0.95389 1.0683 0.0
C534 C 0.43889 0.96712 1.13848 0.0
H535 H 0.4764 0.91554 1.01735 0.0
H536 H 0.45147 0.96846 1.01076 0.0
C537 C 0.44023 0.94766 0.21187 0.0
C538 C 0.48108 0.54094 1.11369 0.0
C539 C 0.45075 0.51099 1.05739 0.0
H540 H 0.54771 0.57998 0.15197 0.0
C541 C 0.46808 0.49933 0.99226 0.0
H542 H 0.46987 0.5511 0.16495 0.0
C543 C 0.51332 0.51599 0.98499 0.0
C544 C 0.54355 0.54524 1.04228 0.0
H545 H 0.44653 0.4764 0.94743 0.0
H546 H 0.52458 0.50504 0.93498 0.0
C547 C 0.52626 0.55771 1.1062 0.0
C548 C 0.95295 0.54058 0.18318 0.0
C549 C -0.00445 0.55282 0.16223 0.0
H550 H 0.8871 0.48938 0.19501 0.0
C551 C 0.00276 0.52034 1.13079 0.0
H552 H 0.94549 0.56488 0.20245 0.0
C553 C 0.96907 0.47701 1.12392 0.0
C554 C 0.92663 0.46441 0.14772 0.0
H555 H 0.03484 0.52834 1.11226 0.0
H556 H 0.97651 0.45322 1.10075 0.0
C557 C 0.91922 0.49716 0.17722 0.0
C558 C 0.01011 0.56449 0.56585 0.0
C559 C 0.96762 0.53515 0.58853 0.0
H560 H 0.07516 0.57732 0.54887 0.0
C561 C 0.95996 0.49496 0.61877 0.0
H562 H 0.01798 0.59654 0.54837 0.0
C563 C -0.00682 0.48415 0.62284 0.0
C564 C 0.0354 0.51303 0.59646 0.0
H565 H 0.92794 0.47149 0.63852 0.0
H566 H -0.01448 0.45273 0.64547 0.0
C567 C 0.04315 0.55353 0.56805 0.0
C568 C 0.43546 0.00461 0.63165 0.0
C569 C 0.4197 0.98254 0.7052 0.0
H570 H 0.48973 0.05106 0.56382 0.0
C571 C 0.45004 -0.00556 0.76983 0.0
H572 H 0.41386 -0.00329 0.57996 0.0
C573 C 0.49428 0.02583 0.76033 0.0
C574 C 0.51021 0.04673 0.68577 0.0
H575 H 0.43997 0.97828 0.82736 0.0
H576 H 0.51625 0.03304 0.8113 0.0
C577 C 0.47953 0.03596 0.62222 0.0
C578 C 0.49562 0.48049 0.7481 0.0
C579 C 0.52163 0.51099 0.68968 0.0
H580 H 0.46178 0.41414 0.7863 0.0
C581 C 0.53386 0.49498 0.62334 0.0
H582 H 0.48512 0.49083 0.80001 0.0
C583 C 0.52022 0.45055 0.61523 0.0
C584 C 0.49357 0.41994 0.67292 0.0
H585 H 0.55352 0.51678 0.57646 0.0
H586 H 0.53038 0.44014 0.5628 0.0
C587 C 0.4819 0.43602 0.73994 0.0
C588 C 0.58926 0.24532 0.19098 0.0
C589 C 0.6097 0.22305 0.16217 0.0
H590 H 0.56469 0.25167 0.30436 0.0
C591 C 0.65191 0.24005 0.19296 0.0
H592 H 0.56234 0.24406 0.15749 0.0
C593 C 0.65686 0.24754 0.27645 0.0
C594 C 0.62224 0.24574 0.31929 0.0
H595 H 0.67477 0.234 0.16207 0.0
H596 H 0.68419 0.24925 0.30822 0.0
C597 C 0.59105 0.25081 0.27501 0.0
C598 C 0.30703 0.54337 0.48143 0.0
C599 C 0.33253 0.57724 0.42913 0.0
H600 H 0.30706 0.51365 0.59283 0.0
C601 C 0.36545 0.61579 0.46229 0.0
H602 H 0.27972 0.51462 0.45852 0.0
C603 C 0.37778 0.61649 0.54258 0.0
C604 C 0.36411 0.5764 0.57963 0.0
H605 H 0.38573 0.64261 0.42428 0.0
H606 H 0.40598 0.64534 0.5644 0.0
C607 C 0.32217 0.54359 0.55953 0.0
C608 C 0.70937 0.31949 0.50046 0.0
C609 C 0.69866 0.34099 0.44103 0.0
H610 H 0.74752 0.33012 0.60755 0.0
C611 C 0.69335 0.37555 0.46577 0.0
H612 H 0.70969 0.29022 0.48581 0.0
C613 C 0.71195 0.39561 0.53945 0.0
C614 C 0.74256 0.38608 0.57363 0.0
H615 H 0.68195 0.39125 0.42415 0.0
H616 H 0.71271 0.42549 0.55375 0.0
C617 C 0.73041 0.34217 0.57099 0.0
C618 C 0.33815 0.71884 0.59237 0.0
C619 C 0.3738 0.74538 0.64245 0.0
H620 H 0.32116 0.69734 0.47068 0.0
C621 C 0.4109 0.74146 0.63537 0.0
H622 H 0.30664 0.71513 0.60235 0.0
C623 C 0.41877 0.72859 0.56131 0.0
C624 C 0.38796 0.71687 0.49852 0.0
H625 H 0.43759 0.75714 0.67823 0.0
H626 H 0.45054 0.73303 0.55022 0.0
C627 C 0.34605 0.70749 0.51703 0.0
C628 C 0.61134 0.36557 0.25788 0.0
C629 C 0.56928 0.3347 0.27937 0.0
H630 H 0.64982 0.41909 0.18424 0.0
C631 C 0.53537 0.32369 0.22336 0.0
H632 H 0.63835 0.37422 0.29862 0.0
C633 C 0.54188 0.35087 0.15804 0.0
C634 C 0.58146 0.38972 0.15291 0.0
H635 H 0.50299 0.29778 0.23532 0.0
H636 H 0.51384 0.34644 1.12373 0.0
C637 C 0.61775 0.39175 0.1915 0.0
C638 C 0.2252 0.58527 0.1595 0.0
C639 C 0.21527 0.61856 0.16496 0.0
H640 H 0.24463 0.54904 0.23513 0.0
C641 C 0.24768 0.6568 0.20176 0.0
H642 H 0.2061 0.55767 1.12059 0.0
C643 C 0.26821 0.65204 0.2703 0.0
C644 C 0.261 0.61068 0.28853 0.0
H645 H 0.24797 0.68699 0.19387 0.0
H646 H 0.28227 0.67784 0.31466 0.0
C647 C 0.24678 0.57997 0.22575 0.0
C648 C 0.41973 0.84081 0.88614 0.0
C649 C 0.37969 0.80427 0.8684 0.0
H650 H 0.48524 0.86486 0.92353 0.0
C651 C 0.37612 0.76344 0.86622 0.0
H652 H 0.42345 0.87279 0.88549 0.0
C653 C 0.41143 0.75885 0.88862 0.0
C654 C 0.45082 0.79522 0.91077 0.0
H655 H 0.34564 0.735 0.85079 0.0
H656 H 0.40731 0.72679 0.89332 0.0
C657 C 0.4553 0.83639 0.90569 0.0
C658 C 0.58893 0.37248 0.88066 0.0
C659 C 0.57793 0.36836 0.79861 0.0
H660 H 0.62206 0.41587 0.97764 0.0
C661 C 0.59981 0.40391 0.74706 0.0
H662 H 0.57306 0.34521 0.92095 0.0
C663 C 0.62697 0.44471 0.77958 0.0
C664 C 0.6327 0.44966 0.86337 0.0
H665 H 0.59222 0.40127 0.683 0.0
H666 H 0.63988 0.47248 0.74022 0.0
C667 C 0.61671 0.41298 0.91283 0.0
C668 C 0.1792 0.58993 0.88492 0.0
C669 C 0.16481 0.58976 0.80588 0.0
H670 H 0.18612 0.61438 1.00416 0.0
C671 C 0.1505 0.61868 0.78412 0.0
H672 H 0.1907 0.56817 0.90274 0.0
C673 C 0.14692 0.64467 0.84274 0.0
C674 C 0.15844 0.6425 0.92318 0.0
H675 H 0.13922 0.61907 0.72317 0.0
H676 H 0.13333 0.6648 0.82595 0.0
C677 C 0.17657 0.61651 0.94283 0.0
C678 C 0.56286 0.16916 0.83443 0.0
C679 C 0.59989 0.1735 0.87497 0.0
H680 H 0.49382 0.1402 0.83568 0.0
C681 C 0.59664 0.15717 0.95252 0.0
H682 H 0.56467 0.18142 0.77388 0.0
C683 C 0.55647 0.13224 0.98524 0.0
C684 C 0.51892 0.12495 0.9429 0.0
H685 H 0.62473 0.16012 0.98455 0.0
H686 H 0.555 0.11714 1.04269 0.0
C687 C 0.5223 0.14476 0.86846 0.0
C688 C 0.36326 0.54786 0.76723 0.0
C689 C 0.40324 0.55391 0.79458 0.0
H690 H 0.29622 0.50293 0.75249 0.0
C691 C 0.40868 0.51799 0.80544 0.0
H692 H 0.35888 0.57517 0.75427 0.0
C693 C 0.37289 0.47664 0.80102 0.0
C694 C 0.33165 0.47217 0.7951 0.0
H695 H 0.4399 0.52191 0.82164 0.0
H696 H 0.37687 0.44988 0.82072 0.0
C697 C 0.32777 0.50637 0.76279 0.0
C698 C 0.81921 0.39438 0.82975 0.0
C699 C 0.82087 0.40015 0.91318 0.0
H700 H 0.81888 0.42071 0.71486 0.0
C701 C 0.82161 0.43679 0.946 0.0
H702 H 0.81841 0.36625 0.80362 0.0
C703 C 0.82243 0.4683 0.89552 0.0
C704 C 0.82156 0.46289 0.81198 0.0
H705 H 0.82312 0.44186 1.0107 0.0
H706 H 0.82434 0.49697 0.92154 0.0
C707 C 0.81909 0.42538 0.7794 0.0
C708 C 0.46927 0.16717 0.36162 0.0
C709 C 0.45028 0.18097 0.30025 0.0
H710 H 0.48303 0.16273 0.48892 0.0
C711 C 0.43212 0.20538 0.33148 0.0
H712 H 0.48575 0.15025 0.34354 0.0
C713 C 0.43175 0.21387 0.41682 0.0
C714 C 0.44947 0.19887 0.47842 0.0
H715 H 0.41676 0.21716 0.28977 0.0
H716 H 0.41597 0.23142 0.43488 0.0
C717 C 0.46827 0.17506 0.44709 0.0
C718 C 0.2302 0.43468 0.40421 0.0
C719 C 0.20299 0.4503 0.43291 0.0
H720 H 0.26028 0.42144 0.30356 0.0
C721 C 0.18549 0.46375 0.36841 0.0
H722 H 0.24482 0.42298 0.44774 0.0
C723 C 0.19488 0.46335 0.28393 0.0
C724 C 0.22355 0.44979 0.25565 0.0
H725 H 0.16444 0.47559 0.38301 0.0
H726 H 0.17985 0.47466 0.24048 0.0
C727 C 0.23993 0.43445 0.31936 0.0
C728 C 0.76418 0.25893 0.44211 0.0
C729 C 0.73223 0.21833 0.47108 0.0
H730 H 0.79701 0.2995 0.34223 0.0
C731 C 0.71173 0.18693 0.40807 0.0
H732 H 0.78228 0.28479 0.48505 0.0
C733 C 0.72042 0.19613 0.32278 0.0
C734 C 0.75127 0.23762 0.29383 0.0
H735 H 0.68838 0.15462 0.42448 0.0
H736 H 0.70248 0.17044 0.27951 0.0
C737 C 0.77303 0.26778 0.3576 0.0
C738 C 0.54512 0.77108 0.40187 0.0
C739 C 0.52897 0.73867 0.3401 0.0
H740 H 0.55901 0.78923 0.52895 0.0
C741 C 0.51364 0.69642 0.37128 0.0
H742 H 0.55867 0.80426 0.38396 0.0
C743 C 0.51407 0.68755 0.45674 0.0
C744 C 0.53078 0.72009 0.51854 0.0
H745 H 0.50042 0.6695 0.3294 0.0
H746 H 0.50048 0.65428 0.47421 0.0
C747 C 0.54579 0.76227 0.4872 0.0
C748 C 0.76491 0.58848 0.36894 0.0
C749 C 0.77297 0.55683 0.40472 0.0
H750 H 0.7539 0.61663 0.2611 0.0
C751 C 0.77159 0.52631 0.34738 0.0
H752 H 0.76634 0.61365 0.40717 0.0
C753 C 0.76289 0.52742 0.26167 0.0
C754 C 0.75458 0.55904 0.22606 0.0
H755 H 0.77731 0.50094 0.3689 0.0
H756 H 0.76229 0.50276 0.22308 0.0
C757 C 0.75677 0.58982 0.2833 0.0
C758 C 0.16506 0.75782 0.41874 0.0
C759 C 0.1947 0.75835 0.36116 0.0
H760 H 0.1502 0.76505 0.54296 0.0
C761 C 0.23537 0.76846 0.39676 0.0
H762 H 0.13368 0.75155 0.39712 0.0
C763 C 0.24508 0.77645 0.48256 0.0
C764 C 0.21545 0.77604 0.54017 0.0
H765 H 0.26003 0.76954 0.35813 0.0
H766 H 0.2765 0.78285 0.50395 0.0
C767 C 0.1748 0.7659 0.50447 0.0
C768 C 0.56598 0.76146 0.87934 0.0
C769 C 0.5314 0.72477 0.83948 0.0
H770 H 0.59439 0.79842 0.99044 0.0
C771 C 0.49779 0.69821 0.89369 0.0
H772 H 0.59309 0.78399 0.84385 0.0
C773 C 0.49953 0.7052 0.97982 0.0
C774 C 0.5343 0.74099 1.02 0.0
H775 H 0.46832 0.67229 0.86962 0.0
H776 H 0.47197 0.68307 1.01489 0.0
C777 C 0.56713 0.76946 0.96581 0.0
C778 C 0.78566 0.59809 0.77042 0.0
C779 C 0.77351 0.55953 0.72551 0.0
H780 H 0.78795 0.62947 0.88468 0.0
C781 C 0.75396 0.5218 0.7748 0.0
H782 H 0.80136 0.62855 0.73891 0.0
C783 C 0.74763 0.52251 0.86109 0.0
C784 C 0.75905 0.56094 0.90577 0.0
H785 H 0.74351 0.49086 0.74641 0.0
H786 H 0.73243 0.49207 0.89275 0.0
C787 C 0.77825 0.59866 0.85641 0.0
C788 C 0.17589 0.77461 0.89756 0.0
C789 C 0.21235 0.77566 0.86108 0.0
H790 H 0.13925 0.76818 1.00589 0.0
C791 C 0.23873 0.76886 0.91846 0.0
H792 H 0.15366 0.77934 0.85962 0.0
C793 C 0.2312 0.76372 1.00426 0.0
C794 C 0.19546 0.7635 1.04089 0.0
H795 H 0.26504 0.76564 0.89723 0.0
H796 H 0.25295 0.75806 1.04186 0.0
C797 C 0.16774 0.76859 0.98374 0.0
C798 C 0.47871 0.22072 0.85838 0.0
C799 C 0.44731 0.19356 0.79915 0.0
H800 H 0.50112 0.2348 0.98381 0.0
C801 C 0.41332 0.15533 0.83363 0.0
H802 H 0.5076 0.24856 0.83779 0.0
C803 C 0.41049 0.146 0.91951 0.0
C804 C 0.44097 0.17422 0.97943 0.0
H805 H 0.38795 0.13229 0.79397 0.0
H806 H 0.38389 0.11555 0.93817 0.0
C807 C 0.47533 0.21205 0.94447 0.0
C808 C 0.20267 0.41397 0.793 0.0
C809 C 0.20382 0.4505 0.75501 0.0
H810 H 0.20839 0.38272 0.90244 0.0
C811 C 0.21258 0.48424 0.81131 0.0
H812 H 0.1958 0.38639 0.7558 0.0
C813 C 0.21985 0.48212 0.89722 0.0
C814 C 0.21923 0.44597 0.93531 0.0
H815 H 0.21547 0.51382 0.7882 0.0
H816 H 0.2274 0.51005 0.93397 0.0
C817 C 0.20963 0.41166 0.87944 0.0
C818 C 0.74331 0.2598 0.83004 0.0
C819 C 0.74075 0.22302 0.79115 0.0
H820 H 0.74955 0.29556 0.9401 0.0
C821 C 0.74635 0.19536 0.847 0.0
H822 H 0.73832 0.2822 0.79368 0.0
C823 C 0.75327 0.20342 0.93364 0.0
C824 C 0.75569 0.24022 0.97237 0.0
H825 H 0.74511 0.16663 0.82368 0.0
H826 H 0.75715 0.18048 0.97044 0.0
C827 C 0.75013 0.26777 0.91645 0.0
loop_
_geom_bond_atom_site_label_1
_geom_bond_atom_site_label_2
_geom_bond_distance
_geom_bond_site_symmetry_2
_ccdc_geom_bond_type
Zn0 N4 2.020 . S
Zn0 O8 2.019 . S
Zn0 N10 2.119 . S
Zn0 O18 1.975 . S
C1 N2 1.334 . S
C1 N5 1.336 . S
N2 C1 1.334 . S
N2 C3 1.333 1_554 S
C3 N2 1.333 1_556 S
C3 N4 1.336 . S
N4 Zn0 2.020 . S
N4 C3 1.336 . S
N4 N5 1.354 1_556 S
N5 C1 1.336 . S
N5 N4 1.354 1_554 S
N5 Zn9 2.020 . S
C6 O7 1.244 . S
C6 O30 1.257 . S
O7 C6 1.244 . S
O8 Zn0 2.019 . S
O8 C28 1.257 . S
Zn9 N5 2.020 . S
Zn9 O16 1.975 . S
Zn9 N25 2.119 . S
Zn9 O30 2.019 . S
N10 Zn0 2.119 . S
N10 C12 1.334 . S
N10 C13 1.328 . S
C11 C12 1.391 . S
C11 N14 1.329 . S
C11 H32 0.930 1_545 S
C12 N10 1.334 . S
C12 C11 1.391 . S
C12 H19 0.930 . S
C13 N10 1.328 . S
C13 C15 1.392 . S
C13 H20 0.930 . S
N14 C11 1.329 . S
N14 C15 1.331 . S
C15 C13 1.392 . S
C15 N14 1.331 . S
O16 Zn9 1.975 . S
O16 C17 1.252 . S
C17 O16 1.252 . S
C17 O18 1.252 1_554 S
O18 Zn0 1.975 . S
O18 C17 1.252 1_556 S
H19 C12 0.930 . S
H20 C13 0.930 . S
C21 C22 1.392 . S
C21 N25 1.328 . S
C21 H27 0.930 . S
C22 C21 1.392 . S
C22 N26 1.331 . S
C23 C24 1.391 . S
C23 N26 1.329 . S
C23 H33 0.930 . S
C24 C23 1.391 . S
C24 N25 1.334 . S
C24 H31 0.930 . S
N25 Zn9 2.119 . S
N25 C21 1.328 . S
N25 C24 1.334 . S
N26 C22 1.331 . S
N26 C23 1.329 . S
H27 C21 0.930 . S
C28 O8 1.257 . S
C28 O29 1.244 . S
O29 C28 1.244 . S
O30 C6 1.257 . S
O30 Zn9 2.019 . S
H31 C24 0.930 . S
H32 C11 0.930 1_565 S
H33 C23 0.930 . S
Zn34 N38 2.020 . S
Zn34 O42 2.019 . S
Zn34 N44 2.119 . S
Zn34 O52 1.975 . S
C35 N36 1.334 . S
C35 N39 1.336 . S
N36 C35 1.334 . S
N36 C37 1.333 1_554 S
C37 N36 1.333 1_556 S
C37 N38 1.336 . S
N38 Zn34 2.020 . S
N38 C37 1.336 . S
N38 N39 1.354 1_556 S
N39 C35 1.336 . S
N39 N38 1.354 1_554 S
N39 Zn43 2.020 . S
C40 O41 1.244 . S
C40 O64 1.257 . S
O41 C40 1.244 . S
O42 Zn34 2.019 . S
O42 C62 1.257 . S
Zn43 N39 2.020 . S
Zn43 O50 1.975 . S
Zn43 N59 2.119 . S
Zn43 O64 2.019 . S
N44 Zn34 2.119 . S
N44 C46 1.334 . S
N44 C47 1.328 . S
C45 C46 1.391 . S
C45 N48 1.329 . S
C45 H66 0.930 . S
C46 N44 1.334 . S
C46 C45 1.391 . S
C46 H53 0.930 . S
C47 N44 1.328 . S
C47 C49 1.392 . S
C47 H54 0.930 . S
N48 C45 1.329 . S
N48 C49 1.331 . S
C49 C47 1.392 . S
C49 N48 1.331 . S
O50 Zn43 1.975 . S
O50 C51 1.252 . S
C51 O50 1.252 . S
C51 O52 1.252 1_554 S
O52 Zn34 1.975 . S
O52 C51 1.252 1_556 S
H53 C46 0.930 . S
H54 C47 0.930 . S
C55 C56 1.392 . S
C55 N59 1.328 . S
C55 H61 0.930 . S
C56 C55 1.392 . S
C56 N60 1.331 . S
C57 C58 1.391 . S
C57 N60 1.329 . S
C57 H67 0.930 . S
C58 C57 1.391 . S
C58 N59 1.334 . S
C58 H65 0.930 . S
N59 Zn43 2.119 . S
N59 C55 1.328 . S
N59 C58 1.334 . S
N60 C56 1.331 . S
N60 C57 1.329 . S
H61 C55 0.930 . S
C62 O42 1.257 . S
C62 O63 1.244 . S
O63 C62 1.244 . S
O64 C40 1.257 . S
O64 Zn43 2.019 . S
H65 C58 0.930 . S
H66 C45 0.930 . S
H67 C57 0.930 . S
Zn68 N72 2.020 . S
Zn68 O76 2.019 . S
Zn68 N78 2.119 . S
Zn68 O86 1.975 . S
C69 N70 1.334 . S
C69 N73 1.336 . S
N70 C69 1.334 . S
N70 C71 1.333 1_554 S
C71 N70 1.333 1_556 S
C71 N72 1.336 . S
N72 Zn68 2.020 . S
N72 C71 1.336 . S
N72 N73 1.354 1_556 S
N73 C69 1.336 . S
N73 N72 1.354 1_554 S
N73 Zn77 2.020 . S
C74 O75 1.244 . S
C74 O98 1.257 . S
O75 C74 1.244 . S
O76 Zn68 2.019 . S
O76 C96 1.257 . S
Zn77 N73 2.020 . S
Zn77 O84 1.975 . S
Zn77 N93 2.119 . S
Zn77 O98 2.019 . S
N78 Zn68 2.119 . S
N78 C80 1.334 . S
N78 C81 1.328 . S
C79 C80 1.391 . S
C79 N82 1.329 . S
C79 H100 0.930 1_655 S
C80 N78 1.334 . S
C80 C79 1.391 . S
C80 H87 0.930 . S
C81 N78 1.328 . S
C81 C83 1.392 . S
C81 H88 0.930 . S
N82 C79 1.329 . S
N82 C83 1.331 . S
C83 C81 1.392 . S
C83 N82 1.331 . S
O84 Zn77 1.975 . S
O84 C85 1.252 . S
C85 O84 1.252 . S
C85 O86 1.252 1_554 S
O86 Zn68 1.975 . S
O86 C85 1.252 1_556 S
H87 C80 0.930 . S
H88 C81 0.930 . S
C89 C90 1.392 . S
C89 N93 1.328 . S
C89 H95 0.930 . S
C90 C89 1.392 . S
C90 N94 1.331 . S
C91 C92 1.391 . S
C91 N94 1.329 . S
C91 H101 0.930 . S
C92 C91 1.391 . S
C92 N93 1.334 . S
C92 H99 0.930 . S
N93 Zn77 2.119 . S
N93 C89 1.328 . S
N93 C92 1.334 . S
N94 C90 1.331 . S
N94 C91 1.329 . S
H95 C89 0.930 . S
C96 O76 1.257 . S
C96 O97 1.244 . S
O97 C96 1.244 . S
O98 C74 1.257 . S
O98 Zn77 2.019 . S
H99 C92 0.930 . S
H100 C79 0.930 1_455 S
H101 C91 0.930 . S
Zn102 N106 2.020 . S
Zn102 O110 2.019 . S
Zn102 N112 2.119 . S
Zn102 O120 1.975 . S
C103 N104 1.333 1_556 S
C103 N107 1.336 . S
N104 C103 1.333 1_554 S
N104 C105 1.334 . S
C105 N104 1.334 . S
C105 N106 1.336 . S
N106 Zn102 2.020 . S
N106 C105 1.336 . S
N106 N107 1.354 1_554 S
N107 C103 1.336 . S
N107 N106 1.354 1_556 S
N107 Zn111 2.020 . S
C108 O109 1.244 . S
C108 O132 1.257 . S
O109 C108 1.244 . S
O110 Zn102 2.019 . S
O110 C130 1.257 . S
Zn111 N107 2.020 . S
Zn111 O118 1.975 . S
Zn111 N127 2.119 . S
Zn111 O132 2.019 . S
N112 Zn102 2.119 . S
N112 C114 1.334 . S
N112 C115 1.328 . S
C113 C114 1.391 . S
C113 N116 1.329 . S
C113 H134 0.930 . S
C114 N112 1.334 . S
C114 C113 1.391 . S
C114 H121 0.930 . S
C115 N112 1.328 . S
C115 C117 1.392 . S
C115 H122 0.930 . S
N116 C113 1.329 . S
N116 C117 1.331 . S
C117 C115 1.392 . S
C117 N116 1.331 . S
O118 Zn111 1.975 . S
O118 C119 1.252 1_556 S
C119 O118 1.252 1_554 S
C119 O120 1.252 . S
O120 Zn102 1.975 . S
O120 C119 1.252 . S
H121 C114 0.930 . S
H122 C115 0.930 . S
C123 C124 1.392 . S
C123 N127 1.328 . S
C123 H129 0.930 . S
C124 C123 1.392 . S
C124 N128 1.331 . S
C125 C126 1.391 . S
C125 N128 1.329 . S
C125 H135 0.930 1_565 S
C126 C125 1.391 . S
C126 N127 1.334 . S
C126 H133 0.930 . S
N127 Zn111 2.119 . S
N127 C123 1.328 . S
N127 C126 1.334 . S
N128 C124 1.331 . S
N128 C125 1.329 . S
H129 C123 0.930 . S
C130 O110 1.257 . S
C130 O131 1.244 . S
O131 C130 1.244 . S
O132 C108 1.257 . S
O132 Zn111 2.019 . S
H133 C126 0.930 . S
H134 C113 0.930 . S
H135 C125 0.930 1_545 S
Zn136 N140 2.020 . S
Zn136 O144 2.019 . S
Zn136 N146 2.119 . S
Zn136 O154 1.975 . S
C137 N138 1.334 . S
C137 N141 1.336 . S
N138 C137 1.334 . S
N138 C139 1.333 1_554 S
C139 N138 1.333 1_556 S
C139 N140 1.336 . S
N140 Zn136 2.020 . S
N140 C139 1.336 . S
N140 N141 1.354 1_556 S
N141 C137 1.336 . S
N141 N140 1.354 1_554 S
N141 Zn145 2.020 . S
C142 O143 1.244 . S
C142 O166 1.257 . S
O143 C142 1.244 . S
O144 Zn136 2.019 . S
O144 C164 1.257 . S
Zn145 N141 2.020 . S
Zn145 O152 1.975 . S
Zn145 N161 2.119 . S
Zn145 O166 2.019 . S
N146 Zn136 2.119 . S
N146 C148 1.334 . S
N146 C149 1.328 . S
C147 C148 1.391 . S
C147 N150 1.329 . S
C147 H168 0.930 . S
C148 N146 1.334 . S
C148 C147 1.391 . S
C148 H155 0.930 . S
C149 N146 1.328 . S
C149 C151 1.392 . S
C149 H156 0.930 . S
N150 C147 1.329 . S
N150 C151 1.331 . S
C151 C149 1.392 . S
C151 N150 1.331 . S
O152 Zn145 1.975 . S
O152 C153 1.252 . S
C153 O152 1.252 . S
C153 O154 1.252 1_554 S
O154 Zn136 1.975 . S
O154 C153 1.252 1_556 S
H155 C148 0.930 . S
H156 C149 0.930 . S
C157 C158 1.392 . S
C157 N161 1.328 . S
C157 H163 0.930 . S
C158 C157 1.392 . S
C158 N162 1.331 . S
C159 C160 1.391 . S
C159 N162 1.329 . S
C159 H169 0.930 . S
C160 C159 1.391 . S
C160 N161 1.334 . S
C160 H167 0.930 . S
N161 Zn145 2.119 . S
N161 C157 1.328 . S
N161 C160 1.334 . S
N162 C158 1.331 . S
N162 C159 1.329 . S
H163 C157 0.930 . S
C164 O144 1.257 . S
C164 O165 1.244 . S
O165 C164 1.244 . S
O166 C142 1.257 . S
O166 Zn145 2.019 . S
H167 C160 0.930 . S
H168 C147 0.930 . S
H169 C159 0.930 . S
Zn170 N174 2.020 . S
Zn170 O178 2.019 . S
Zn170 N180 2.119 . S
Zn170 O188 1.975 . S
C171 N172 1.333 1_556 S
C171 N175 1.336 . S
N172 C171 1.333 1_554 S
N172 C173 1.334 . S
C173 N172 1.334 . S
C173 N174 1.336 . S
N174 Zn170 2.020 . S
N174 C173 1.336 . S
N174 N175 1.354 1_554 S
N175 C171 1.336 . S
N175 N174 1.354 1_556 S
N175 Zn179 2.020 . S
C176 O177 1.244 . S
C176 O200 1.257 . S
O177 C176 1.244 . S
O178 Zn170 2.019 . S
O178 C198 1.257 . S
Zn179 N175 2.020 . S
Zn179 O186 1.975 . S
Zn179 N195 2.119 . S
Zn179 O200 2.019 . S
N180 Zn170 2.119 . S
N180 C182 1.334 . S
N180 C183 1.328 . S
C181 C182 1.391 . S
C181 N184 1.329 . S
C181 H202 0.930 . S
C182 N180 1.334 . S
C182 C181 1.391 . S
C182 H189 0.930 . S
C183 N180 1.328 . S
C183 C185 1.392 . S
C183 H190 0.930 . S
N184 C181 1.329 . S
N184 C185 1.331 . S
C185 C183 1.392 . S
C185 N184 1.331 . S
O186 Zn179 1.975 . S
O186 C187 1.252 1_556 S
C187 O186 1.252 1_554 S
C187 O188 1.252 . S
O188 Zn170 1.975 . S
O188 C187 1.252 . S
H189 C182 0.930 . S
H190 C183 0.930 . S
C191 C192 1.392 . S
C191 N195 1.328 . S
C191 H197 0.930 . S
C192 C191 1.392 . S
C192 N196 1.331 . S
C193 C194 1.391 . S
C193 N196 1.329 . S
C193 H203 0.930 1_455 S
C194 C193 1.391 . S
C194 N195 1.334 . S
C194 H201 0.930 . S
N195 Zn179 2.119 . S
N195 C191 1.328 . S
N195 C194 1.334 . S
N196 C192 1.331 . S
N196 C193 1.329 . S
H197 C191 0.930 . S
C198 O178 1.257 . S
C198 O199 1.244 . S
O199 C198 1.244 . S
O200 C176 1.257 . S
O200 Zn179 2.019 . S
H201 C194 0.930 . S
H202 C181 0.930 . S
H203 C193 0.930 1_655 S
Zn204 N208 2.020 . S
Zn204 O212 2.019 . S
Zn204 N214 2.119 . S
Zn204 O222 1.975 . S
C205 N206 1.334 . S
C205 N209 1.336 . S
N206 C205 1.334 . S
N206 C207 1.334 . S
C207 N206 1.334 . S
C207 N208 1.336 . S
N208 Zn204 2.020 . S
N208 C207 1.336 . S
N208 N209 1.354 . S
N209 C205 1.336 . S
N209 N208 1.354 . S
N209 Zn213 2.020 . S
C210 O211 1.244 . S
C210 O234 1.257 . S
O211 C210 1.244 . S
O212 Zn204 2.019 . S
O212 C232 1.257 . S
Zn213 N209 2.020 . S
Zn213 O220 1.975 . S
Zn213 N229 2.119 . S
Zn213 O234 2.019 . S
N214 Zn204 2.119 . S
N214 C216 1.334 . S
N214 C217 1.328 . S
C215 C216 1.391 . S
C215 N218 1.329 . S
C215 H236 0.930 . S
C216 N214 1.334 . S
C216 C215 1.391 . S
C216 H223 0.930 . S
C217 N214 1.328 . S
C217 C219 1.392 . S
C217 H224 0.930 . S
N218 C215 1.329 . S
N218 C219 1.331 . S
C219 C217 1.392 . S
C219 N218 1.331 . S
O220 Zn213 1.975 . S
O220 C221 1.252 . S
C221 O220 1.252 . S
C221 O222 1.252 . S
O222 Zn204 1.975 . S
O222 C221 1.252 . S
H223 C216 0.930 . S
H224 C217 0.930 . S
C225 C226 1.392 . S
C225 N229 1.328 . S
C225 H231 0.930 . S
C226 C225 1.392 . S
C226 N230 1.331 . S
C227 C228 1.391 . S
C227 N230 1.329 . S
C227 H237 0.930 1_655 S
C228 C227 1.391 . S
C228 N229 1.334 . S
C228 H235 0.930 . S
N229 Zn213 2.119 . S
N229 C225 1.328 . S
N229 C228 1.334 . S
N230 C226 1.331 . S
N230 C227 1.329 . S
H231 C225 0.930 . S
C232 O212 1.257 . S
C232 O233 1.244 . S
O233 C232 1.244 . S
O234 C210 1.257 . S
O234 Zn213 2.019 . S
H235 C228 0.930 . S
H236 C215 0.930 . S
H237 C227 0.930 1_455 S
Zn238 N242 2.020 . S
Zn238 O246 2.019 . S
Zn238 N248 2.119 . S
Zn238 O256 1.975 . S
C239 N240 1.334 . S
C239 N243 1.336 . S
N240 C239 1.334 . S
N240 C241 1.334 . S
C241 N240 1.334 . S
C241 N242 1.336 . S
N242 Zn238 2.020 . S
N242 C241 1.336 . S
N242 N243 1.354 . S
N243 C239 1.336 . S
N243 N242 1.354 . S
N243 Zn247 2.020 . S
C244 O245 1.244 . S
C244 O268 1.257 . S
O245 C244 1.244 . S
O246 Zn238 2.019 . S
O246 C266 1.257 . S
Zn247 N243 2.020 . S
Zn247 O254 1.975 . S
Zn247 N263 2.119 . S
Zn247 O268 2.019 . S
N248 Zn238 2.119 . S
N248 C250 1.334 . S
N248 C251 1.328 . S
C249 C250 1.391 . S
C249 N252 1.329 . S
C249 H270 0.930 . S
C250 N248 1.334 . S
C250 C249 1.391 . S
C250 H257 0.930 . S
C251 N248 1.328 . S
C251 C253 1.392 . S
C251 H258 0.930 . S
N252 C249 1.329 . S
N252 C253 1.331 . S
C253 C251 1.392 . S
C253 N252 1.331 . S
O254 Zn247 1.975 . S
O254 C255 1.252 . S
C255 O254 1.252 . S
C255 O256 1.252 . S
O256 Zn238 1.975 . S
O256 C255 1.252 . S
H257 C250 0.930 . S
H258 C251 0.930 . S
C259 C260 1.392 . S
C259 N263 1.328 . S
C259 H265 0.930 . S
C260 C259 1.392 . S
C260 N264 1.331 . S
C261 C262 1.391 . S
C261 N264 1.329 . S
C261 H271 0.930 1_565 S
C262 C261 1.391 . S
C262 N263 1.334 . S
C262 H269 0.930 . S
N263 Zn247 2.119 . S
N263 C259 1.328 . S
N263 C262 1.334 . S
N264 C260 1.331 . S
N264 C261 1.329 . S
H265 C259 0.930 . S
C266 O246 1.257 . S
C266 O267 1.244 . S
O267 C266 1.244 . S
O268 C244 1.257 . S
O268 Zn247 2.019 . S
H269 C262 0.930 . S
H270 C249 0.930 . S
H271 C261 0.930 1_545 S
Zn272 N276 2.020 . S
Zn272 O280 2.019 . S
Zn272 N282 2.119 . S
Zn272 O290 1.975 . S
C273 N274 1.334 . S
C273 N277 1.336 . S
N274 C273 1.334 . S
N274 C275 1.334 . S
C275 N274 1.334 . S
C275 N276 1.336 . S
N276 Zn272 2.020 . S
N276 C275 1.336 . S
N276 N277 1.354 . S
N277 C273 1.336 . S
N277 N276 1.354 . S
N277 Zn281 2.020 . S
C278 O279 1.244 . S
C278 O302 1.257 . S
O279 C278 1.244 . S
O280 Zn272 2.019 . S
O280 C300 1.257 . S
Zn281 N277 2.020 . S
Zn281 O288 1.975 . S
Zn281 N297 2.119 . S
Zn281 O302 2.019 . S
N282 Zn272 2.119 . S
N282 C284 1.334 . S
N282 C285 1.328 . S
C283 C284 1.391 . S
C283 N286 1.329 . S
C283 H304 0.930 . S
C284 N282 1.334 . S
C284 C283 1.391 . S
C284 H291 0.930 . S
C285 N282 1.328 . S
C285 C287 1.392 . S
C285 H292 0.930 . S
N286 C283 1.329 . S
N286 C287 1.331 . S
C287 C285 1.392 . S
C287 N286 1.331 . S
O288 Zn281 1.975 . S
O288 C289 1.252 . S
C289 O288 1.252 . S
C289 O290 1.252 . S
O290 Zn272 1.975 . S
O290 C289 1.252 . S
H291 C284 0.930 . S
H292 C285 0.930 . S
C293 C294 1.392 . S
C293 N297 1.328 . S
C293 H299 0.930 . S
C294 C293 1.392 . S
C294 N298 1.331 . S
C295 C296 1.391 . S
C295 N298 1.329 . S
C295 H305 0.930 . S
C296 C295 1.391 . S
C296 N297 1.334 . S
C296 H303 0.930 . S
N297 Zn281 2.119 . S
N297 C293 1.328 . S
N297 C296 1.334 . S
N298 C294 1.331 . S
N298 C295 1.329 . S
H299 C293 0.930 . S
C300 O280 1.257 . S
C300 O301 1.244 . S
O301 C300 1.244 . S
O302 C278 1.257 . S
O302 Zn281 2.019 . S
H303 C296 0.930 . S
H304 C283 0.930 . S
H305 C295 0.930 . S
Zn306 N310 2.020 . S
Zn306 O314 2.019 . S
Zn306 N316 2.119 . S
Zn306 O324 1.975 . S
C307 N308 1.334 . S
C307 N311 1.336 . S
N308 C307 1.334 . S
N308 C309 1.334 . S
C309 N308 1.334 . S
C309 N310 1.336 . S
N310 Zn306 2.020 . S
N310 C309 1.336 . S
N310 N311 1.354 . S
N311 C307 1.336 . S
N311 N310 1.354 . S
N311 Zn315 2.020 . S
C312 O313 1.244 . S
C312 O336 1.257 . S
O313 C312 1.244 . S
O314 Zn306 2.019 . S
O314 C334 1.257 . S
Zn315 N311 2.020 . S
Zn315 O322 1.975 . S
Zn315 N331 2.119 . S
Zn315 O336 2.019 . S
N316 Zn306 2.119 . S
N316 C318 1.334 . S
N316 C319 1.328 . S
C317 C318 1.391 . S
C317 N320 1.329 . S
C317 H338 0.930 . S
C318 N316 1.334 . S
C318 C317 1.391 . S
C318 H325 0.930 . S
C319 N316 1.328 . S
C319 C321 1.392 . S
C319 H326 0.930 . S
N320 C317 1.329 . S
N320 C321 1.331 . S
C321 C319 1.392 . S
C321 N320 1.331 . S
O322 Zn315 1.975 . S
O322 C323 1.252 . S
C323 O322 1.252 . S
C323 O324 1.252 . S
O324 Zn306 1.975 . S
O324 C323 1.252 . S
H325 C318 0.930 . S
H326 C319 0.930 . S
C327 C328 1.392 . S
C327 N331 1.328 . S
C327 H333 0.930 . S
C328 C327 1.392 . S
C328 N332 1.331 . S
C329 C330 1.391 . S
C329 N332 1.329 . S
C329 H339 0.930 1_455 S
C330 C329 1.391 . S
C330 N331 1.334 . S
C330 H337 0.930 . S
N331 Zn315 2.119 . S
N331 C327 1.328 . S
N331 C330 1.334 . S
N332 C328 1.331 . S
N332 C329 1.329 . S
H333 C327 0.930 . S
C334 O314 1.257 . S
C334 O335 1.244 . S
O335 C334 1.244 . S
O336 C312 1.257 . S
O336 Zn315 2.019 . S
H337 C330 0.930 . S
H338 C317 0.930 . S
H339 C329 0.930 1_655 S
Zn340 N344 2.020 . S
Zn340 O348 2.019 . S
Zn340 N350 2.119 . S
Zn340 O358 1.975 . S
C341 N342 1.334 . S
C341 N345 1.336 . S
N342 C341 1.334 . S
N342 C343 1.334 . S
C343 N342 1.334 . S
C343 N344 1.336 . S
N344 Zn340 2.020 . S
N344 C343 1.336 . S
N344 N345 1.354 . S
N345 C341 1.336 . S
N345 N344 1.354 . S
N345 Zn349 2.020 . S
C346 O347 1.244 . S
C346 O370 1.257 . S
O347 C346 1.244 . S
O348 Zn340 2.019 . S
O348 C368 1.257 . S
Zn349 N345 2.020 . S
Zn349 O356 1.975 . S
Zn349 N365 2.119 . S
Zn349 O370 2.019 . S
N350 Zn340 2.119 . S
N350 C352 1.334 . S
N350 C353 1.328 . S
C351 C352 1.391 . S
C351 N354 1.329 . S
C351 H372 0.930 1_545 S
C352 N350 1.334 . S
C352 C351 1.391 . S
C352 H359 0.930 . S
C353 N350 1.328 . S
C353 C355 1.392 . S
C353 H360 0.930 . S
N354 C351 1.329 . S
N354 C355 1.331 . S
C355 C353 1.392 . S
C355 N354 1.331 . S
O356 Zn349 1.975 . S
O356 C357 1.252 . S
C357 O356 1.252 . S
C357 O358 1.252 . S
O358 Zn340 1.975 . S
O358 C357 1.252 . S
H359 C352 0.930 . S
H360 C353 0.930 . S
C361 C362 1.392 . S
C361 N365 1.328 . S
C361 H367 0.930 . S
C362 C361 1.392 . S
C362 N366 1.331 . S
C363 C364 1.391 . S
C363 N366 1.329 . S
C363 H373 0.930 . S
C364 C363 1.391 . S
C364 N365 1.334 . S
C364 H371 0.930 . S
N365 Zn349 2.119 . S
N365 C361 1.328 . S
N365 C364 1.334 . S
N366 C362 1.331 . S
N366 C363 1.329 . S
H367 C361 0.930 . S
C368 O348 1.257 . S
C368 O369 1.244 . S
O369 C368 1.244 . S
O370 C346 1.257 . S
O370 Zn349 2.019 . S
H371 C364 0.930 . S
H372 C351 0.930 1_565 S
H373 C363 0.930 . S
Zn374 N378 2.020 . S
Zn374 O382 2.019 . S
Zn374 N384 2.119 . S
Zn374 O392 1.975 . S
C375 N376 1.334 . S
C375 N379 1.336 . S
N376 C375 1.334 . S
N376 C377 1.334 . S
C377 N376 1.334 . S
C377 N378 1.336 . S
N378 Zn374 2.020 . S
N378 C377 1.336 . S
N378 N379 1.354 . S
N379 C375 1.336 . S
N379 N378 1.354 . S
N379 Zn383 2.020 . S
C380 O381 1.244 . S
C380 O404 1.257 . S
O381 C380 1.244 . S
O382 Zn374 2.019 . S
O382 C402 1.257 . S
Zn383 N379 2.020 . S
Zn383 O390 1.975 . S
Zn383 N399 2.119 . S
Zn383 O404 2.019 . S
N384 Zn374 2.119 . S
N384 C386 1.334 . S
N384 C387 1.328 . S
C385 C386 1.391 . S
C385 N388 1.329 . S
C385 H406 0.930 . S
C386 N384 1.334 . S
C386 C385 1.391 . S
C386 H393 0.930 . S
C387 N384 1.328 . S
C387 C389 1.392 . S
C387 H394 0.930 . S
N388 C385 1.329 . S
N388 C389 1.331 . S
C389 C387 1.392 . S
C389 N388 1.331 . S
O390 Zn383 1.975 . S
O390 C391 1.252 . S
C391 O390 1.252 . S
C391 O392 1.252 . S
O392 Zn374 1.975 . S
O392 C391 1.252 . S
H393 C386 0.930 . S
H394 C387 0.930 . S
C395 C396 1.392 . S
C395 N399 1.328 . S
C395 H401 0.930 . S
C396 C395 1.392 . S
C396 N400 1.331 . S
C397 C398 1.391 . S
C397 N400 1.329 . S
C397 H407 0.930 . S
C398 C397 1.391 . S
C398 N399 1.334 . S
C398 H405 0.930 . S
N399 Zn383 2.119 . S
N399 C395 1.328 . S
N399 C398 1.334 . S
N400 C396 1.331 . S
N400 C397 1.329 . S
H401 C395 0.930 . S
C402 O382 1.257 . S
C402 O403 1.244 . S
O403 C402 1.244 . S
O404 C380 1.257 . S
O404 Zn383 2.019 . S
H405 C398 0.930 . S
H406 C385 0.930 . S
H407 C397 0.930 . S
C408 C409 1.387 . S
C408 H412 0.950 . S
C408 C417 1.390 1_545 S
C409 C408 1.387 . S
C409 C411 1.387 . S
H410 C417 0.950 . S
C411 C409 1.387 . S
C411 C413 1.390 1_545 S
C411 H415 0.950 . S
H412 C408 0.950 . S
C413 C411 1.390 1_565 S
C413 C414 1.387 . S
C413 H416 0.950 . S
C414 C413 1.387 . S
C414 C417 1.387 . S
H415 C411 0.950 . S
H416 C413 0.950 . S
C417 C408 1.390 1_565 S
C417 H410 0.950 . S
C417 C414 1.387 . S
C418 C419 1.387 . S
C418 H422 0.950 . S
C418 C427 1.390 . S
C419 C418 1.387 . S
C419 C421 1.387 . S
H420 C427 0.950 . S
C421 C419 1.387 . S
C421 C423 1.390 . S
C421 H425 0.950 . S
H422 C418 0.950 . S
C423 C421 1.390 . S
C423 C424 1.387 . S
C423 H426 0.950 . S
C424 C423 1.387 . S
C424 C427 1.387 . S
H425 C421 0.950 . S
H426 C423 0.950 . S
C427 C418 1.390 . S
C427 H420 0.950 . S
C427 C424 1.387 . S
C428 C429 1.387 . S
C428 H432 0.950 . S
C428 C437 1.390 1_455 S
C429 C428 1.387 . S
C429 C431 1.387 . S
H430 C437 0.950 . S
C431 C429 1.387 . S
C431 C433 1.390 1_455 S
C431 H435 0.950 . S
H432 C428 0.950 . S
C433 C431 1.390 1_655 S
C433 C434 1.387 . S
C433 H436 0.950 . S
C434 C433 1.387 . S
C434 C437 1.387 . S
H435 C431 0.950 . S
H436 C433 0.950 . S
C437 C428 1.390 1_655 S
C437 H430 0.950 . S
C437 C434 1.387 . S
C438 C439 1.387 . S
C438 H442 0.950 . S
C438 C447 1.390 1_565 S
C439 C438 1.387 . S
C439 C441 1.387 . S
H440 C447 0.950 . S
C441 C439 1.387 . S
C441 C443 1.390 1_565 S
C441 H445 0.950 . S
H442 C438 0.950 . S
C443 C441 1.390 1_545 S
C443 C444 1.387 . S
C443 H446 0.950 . S
C444 C443 1.387 . S
C444 C447 1.387 . S
H445 C441 0.950 . S
H446 C443 0.950 . S
C447 C438 1.390 1_545 S
C447 H440 0.950 . S
C447 C444 1.387 . S
C448 C449 1.387 . S
C448 H452 0.950 . S
C448 C457 1.390 . S
C449 C448 1.387 . S
C449 C451 1.387 . S
H450 C457 0.950 . S
C451 C449 1.387 . S
C451 C453 1.390 . S
C451 H455 0.950 . S
H452 C448 0.950 . S
C453 C451 1.390 . S
C453 C454 1.387 . S
C453 H456 0.950 . S
C454 C453 1.387 . S
C454 C457 1.387 . S
H455 C451 0.950 . S
H456 C453 0.950 . S
C457 C448 1.390 . S
C457 H450 0.950 . S
C457 C454 1.387 . S
C458 C459 1.387 . S
C458 H462 0.950 . S
C458 C467 1.390 1_655 S
C459 C458 1.387 . S
C459 C461 1.387 . S
H460 C467 0.950 . S
C461 C459 1.387 . S
C461 C463 1.390 1_655 S
C461 H465 0.950 . S
H462 C458 0.950 . S
C463 C461 1.390 1_455 S
C463 C464 1.387 . S
C463 H466 0.950 . S
C464 C463 1.387 . S
C464 C467 1.387 . S
H465 C461 0.950 . S
H466 C463 0.950 . S
C467 C458 1.390 1_455 S
C467 H460 0.950 . S
C467 C464 1.387 . S
C468 C469 1.387 . S
C468 H472 0.950 . S
C468 C477 1.390 1_545 S
C469 C468 1.387 . S
C469 C471 1.387 . S
H470 C477 0.950 . S
C471 C469 1.387 . S
C471 C473 1.390 1_545 S
C471 H475 0.950 . S
H472 C468 0.950 . S
C473 C471 1.390 1_565 S
C473 C474 1.387 . S
C473 H476 0.950 . S
C474 C473 1.387 . S
C474 C477 1.387 . S
H475 C471 0.950 . S
H476 C473 0.950 . S
C477 C468 1.390 1_565 S
C477 H470 0.950 . S
C477 C474 1.387 . S
C478 C479 1.387 . S
C478 H482 0.950 . S
C478 C487 1.390 . S
C479 C478 1.387 . S
C479 C481 1.387 . S
H480 C487 0.950 . S
C481 C479 1.387 . S
C481 C483 1.390 . S
C481 H485 0.950 . S
H482 C478 0.950 . S
C483 C481 1.390 . S
C483 C484 1.387 . S
C483 H486 0.950 . S
C484 C483 1.387 . S
C484 C487 1.387 . S
H485 C481 0.950 . S
H486 C483 0.950 . S
C487 C478 1.390 . S
C487 H480 0.950 . S
C487 C484 1.387 . S
C488 C489 1.387 . S
C488 H492 0.950 . S
C488 C497 1.390 1_455 S
C489 C488 1.387 . S
C489 C491 1.387 . S
H490 C497 0.950 . S
C491 C489 1.387 . S
C491 C493 1.390 1_455 S
C491 H495 0.950 . S
H492 C488 0.950 . S
C493 C491 1.390 1_655 S
C493 C494 1.387 . S
C493 H496 0.950 . S
C494 C493 1.387 . S
C494 C497 1.387 . S
H495 C491 0.950 . S
H496 C493 0.950 . S
C497 C488 1.390 1_655 S
C497 H490 0.950 . S
C497 C494 1.387 . S
C498 C499 1.387 . S
C498 H502 0.950 . S
C498 C507 1.390 1_545 S
C499 C498 1.387 . S
C499 C501 1.387 . S
H500 C507 0.950 . S
C501 C499 1.387 . S
C501 C503 1.390 1_545 S
C501 H505 0.950 . S
H502 C498 0.950 . S
C503 C501 1.390 1_565 S
C503 C504 1.387 . S
C503 H506 0.950 . S
C504 C503 1.387 . S
C504 C507 1.387 . S
H505 C501 0.950 . S
H506 C503 0.950 . S
C507 C498 1.390 1_565 S
C507 H500 0.950 . S
C507 C504 1.387 . S
C508 C509 1.387 . S
C508 H512 0.950 . S
C508 C517 1.390 . S
C509 C508 1.387 . S
C509 C511 1.387 . S
H510 C517 0.950 . S
C511 C509 1.387 . S
C511 C513 1.390 . S
C511 H515 0.950 . S
H512 C508 0.950 . S
C513 C511 1.390 . S
C513 C514 1.387 . S
C513 H516 0.950 . S
C514 C513 1.387 . S
C514 C517 1.387 . S
H515 C511 0.950 . S
H516 C513 0.950 . S
C517 C508 1.390 . S
C517 H510 0.950 . S
C517 C514 1.387 . S
C518 C519 1.387 . S
C518 H522 0.950 . S
C518 C527 1.390 1_455 S
C519 C518 1.387 . S
C519 C521 1.387 . S
H520 C527 0.950 . S
C521 C519 1.387 . S
C521 C523 1.390 1_455 S
C521 H525 0.950 . S
H522 C518 0.950 . S
C523 C521 1.390 1_655 S
C523 C524 1.387 . S
C523 H526 0.950 . S
C524 C523 1.387 . S
C524 C527 1.387 . S
H525 C521 0.950 . S
H526 C523 0.950 . S
C527 C518 1.390 1_655 S
C527 H520 0.950 . S
C527 C524 1.387 . S
C528 C529 1.387 . S
C528 H532 0.950 . S
C528 C537 1.390 1_565 S
C529 C528 1.387 . S
C529 C531 1.388 1_554 S
H530 C537 0.950 . S
C531 C529 1.388 1_556 S
C531 C533 1.390 1_565 S
C531 H535 0.950 . S
H532 C528 0.950 . S
C533 C531 1.390 1_545 S
C533 C534 1.388 1_556 S
C533 H536 0.950 . S
C534 C533 1.388 1_554 S
C534 C537 1.387 . S
H535 C531 0.950 . S
H536 C533 0.950 . S
C537 C528 1.390 1_545 S
C537 H530 0.950 . S
C537 C534 1.387 . S
C538 C539 1.387 . S
C538 H542 0.950 . S
C538 C547 1.390 . S
C539 C538 1.387 . S
C539 C541 1.388 1_554 S
H540 C547 0.950 . S
C541 C539 1.388 1_556 S
C541 C543 1.390 . S
C541 H545 0.950 . S
H542 C538 0.950 . S
C543 C541 1.390 . S
C543 C544 1.388 1_556 S
C543 H546 0.950 . S
C544 C543 1.388 1_554 S
C544 C547 1.387 . S
H545 C541 0.950 . S
H546 C543 0.950 . S
C547 C538 1.390 . S
C547 H540 0.950 . S
C547 C544 1.387 . S
C548 C549 1.387 . S
C548 H552 0.950 . S
C548 C557 1.390 1_455 S
C549 C548 1.387 . S
C549 C551 1.388 1_554 S
H550 C557 0.950 . S
C551 C549 1.388 1_556 S
C551 C553 1.390 1_455 S
C551 H555 0.950 . S
H552 C548 0.950 . S
C553 C551 1.390 1_655 S
C553 C554 1.388 1_556 S
C553 H556 0.950 . S
C554 C553 1.388 1_554 S
C554 C557 1.387 . S
H555 C551 0.950 . S
H556 C553 0.950 . S
C557 C548 1.390 1_655 S
C557 H550 0.950 . S
C557 C554 1.387 . S
C558 C559 1.387 . S
C558 H562 0.950 . S
C558 C567 1.390 1_655 S
C559 C558 1.387 . S
C559 C561 1.387 . S
H560 C567 0.950 . S
C561 C559 1.387 . S
C561 C563 1.390 1_655 S
C561 H565 0.950 . S
H562 C558 0.950 . S
C563 C561 1.390 1_455 S
C563 C564 1.387 . S
C563 H566 0.950 . S
C564 C563 1.387 . S
C564 C567 1.387 . S
H565 C561 0.950 . S
H566 C563 0.950 . S
C567 C558 1.390 1_455 S
C567 H560 0.950 . S
C567 C564 1.387 . S
C568 C569 1.387 . S
C568 H572 0.950 . S
C568 C577 1.390 1_565 S
C569 C568 1.387 . S
C569 C571 1.387 . S
H570 C577 0.950 . S
C571 C569 1.387 . S
C571 C573 1.390 1_565 S
C571 H575 0.950 . S
H572 C568 0.950 . S
C573 C571 1.390 1_545 S
C573 C574 1.387 . S
C573 H576 0.950 . S
C574 C573 1.387 . S
C574 C577 1.387 . S
H575 C571 0.950 . S
H576 C573 0.950 . S
C577 C568 1.390 1_545 S
C577 H570 0.950 . S
C577 C574 1.387 . S
C578 C579 1.387 . S
C578 H582 0.950 . S
C578 C587 1.390 . S
C579 C578 1.387 . S
C579 C581 1.387 . S
H580 C587 0.950 . S
C581 C579 1.387 . S
C581 C583 1.390 . S
C581 H585 0.950 . S
H582 C578 0.950 . S
C583 C581 1.390 . S
C583 C584 1.387 . S
C583 H586 0.950 . S
C584 C583 1.387 . S
C584 C587 1.387 . S
H585 C581 0.950 . S
H586 C583 0.950 . S
C587 C578 1.390 . S
C587 H580 0.950 . S
C587 C584 1.387 . S
C588 C589 1.387 . S
C588 H592 0.950 . S
C588 C597 1.390 . S
C589 C588 1.387 . S
C589 C591 1.387 . S
H590 C597 0.950 . S
C591 C589 1.387 . S
C591 C593 1.390 . S
C591 H595 0.950 . S
H592 C588 0.950 . S
C593 C591 1.390 . S
C593 C594 1.387 . S
C593 H596 0.950 . S
C594 C593 1.387 . S
C594 C597 1.387 . S
H595 C591 0.950 . S
H596 C593 0.950 . S
C597 C588 1.390 . S
C597 H590 0.950 . S
C597 C594 1.387 . S
C598 C599 1.387 . S
C598 H602 0.950 . S
C598 C607 1.390 . S
C599 C598 1.387 . S
C599 C601 1.387 . S
H600 C607 0.950 . S
C601 C599 1.387 . S
C601 C603 1.390 . S
C601 H605 0.950 . S
H602 C598 0.950 . S
C603 C601 1.390 . S
C603 C604 1.387 . S
C603 H606 0.950 . S
C604 C603 1.387 . S
C604 C607 1.387 . S
H605 C601 0.950 . S
H606 C603 0.950 . S
C607 C598 1.390 . S
C607 H600 0.950 . S
C607 C604 1.387 . S
C608 C609 1.387 . S
C608 H612 0.950 . S
C608 C617 1.390 . S
C609 C608 1.387 . S
C609 C611 1.387 . S
H610 C617 0.950 . S
C611 C609 1.387 . S
C611 C613 1.390 . S
C611 H615 0.950 . S
H612 C608 0.950 . S
C613 C611 1.390 . S
C613 C614 1.387 . S
C613 H616 0.950 . S
C614 C613 1.387 . S
C614 C617 1.387 . S
H615 C611 0.950 . S
H616 C613 0.950 . S
C617 C608 1.390 . S
C617 H610 0.950 . S
C617 C614 1.387 . S
C618 C619 1.387 . S
C618 H622 0.950 . S
C618 C627 1.390 . S
C619 C618 1.387 . S
C619 C621 1.387 . S
H620 C627 0.950 . S
C621 C619 1.387 . S
C621 C623 1.390 . S
C621 H625 0.950 . S
H622 C618 0.950 . S
C623 C621 1.390 . S
C623 C624 1.387 . S
C623 H626 0.950 . S
C624 C623 1.387 . S
C624 C627 1.387 . S
H625 C621 0.950 . S
H626 C623 0.950 . S
C627 C618 1.390 . S
C627 H620 0.950 . S
C627 C624 1.387 . S
C628 C629 1.387 . S
C628 H632 0.950 . S
C628 C637 1.390 . S
C629 C628 1.387 . S
C629 C631 1.387 . S
H630 C637 0.950 . S
C631 C629 1.387 . S
C631 C633 1.390 . S
C631 H635 0.950 . S
H632 C628 0.950 . S
C633 C631 1.390 . S
C633 C634 1.387 . S
C633 H636 0.950 . S
C634 C633 1.387 . S
C634 C637 1.387 . S
H635 C631 0.950 . S
H636 C633 0.950 . S
C637 C628 1.390 . S
C637 H630 0.950 . S
C637 C634 1.387 . S
C638 C639 1.387 . S
C638 H642 0.950 . S
C638 C647 1.390 . S
C639 C638 1.387 . S
C639 C641 1.387 . S
H640 C647 0.950 . S
C641 C639 1.387 . S
C641 C643 1.390 . S
C641 H645 0.950 . S
H642 C638 0.950 . S
C643 C641 1.390 . S
C643 C644 1.387 . S
C643 H646 0.950 . S
C644 C643 1.387 . S
C644 C647 1.387 . S
H645 C641 0.950 . S
H646 C643 0.950 . S
C647 C638 1.390 . S
C647 H640 0.950 . S
C647 C644 1.387 . S
C648 C649 1.387 . S
C648 H652 0.950 . S
C648 C657 1.390 . S
C649 C648 1.387 . S
C649 C651 1.387 . S
H650 C657 0.950 . S
C651 C649 1.387 . S
C651 C653 1.390 . S
C651 H655 0.950 . S
H652 C648 0.950 . S
C653 C651 1.390 . S
C653 C654 1.387 . S
C653 H656 0.950 . S
C654 C653 1.387 . S
C654 C657 1.387 . S
H655 C651 0.950 . S
H656 C653 0.950 . S
C657 C648 1.390 . S
C657 H650 0.950 . S
C657 C654 1.387 . S
C658 C659 1.387 . S
C658 H662 0.950 . S
C658 C667 1.390 . S
C659 C658 1.387 . S
C659 C661 1.387 . S
H660 C667 0.950 . S
C661 C659 1.387 . S
C661 C663 1.390 . S
C661 H665 0.950 . S
H662 C658 0.950 . S
C663 C661 1.390 . S
C663 C664 1.387 . S
C663 H666 0.950 . S
C664 C663 1.387 . S
C664 C667 1.387 . S
H665 C661 0.950 . S
H666 C663 0.950 . S
C667 C658 1.390 . S
C667 H660 0.950 . S
C667 C664 1.387 . S
C668 C669 1.387 . S
C668 H672 0.950 . S
C668 C677 1.390 . S
C669 C668 1.387 . S
C669 C671 1.387 . S
H670 C677 0.950 . S
C671 C669 1.387 . S
C671 C673 1.390 . S
C671 H675 0.950 . S
H672 C668 0.950 . S
C673 C671 1.390 . S
C673 C674 1.387 . S
C673 H676 0.950 . S
C674 C673 1.387 . S
C674 C677 1.387 . S
H675 C671 0.950 . S
H676 C673 0.950 . S
C677 C668 1.390 . S
C677 H670 0.950 . S
C677 C674 1.387 . S
C678 C679 1.387 . S
C678 H682 0.950 . S
C678 C687 1.390 . S
C679 C678 1.387 . S
C679 C681 1.387 . S
H680 C687 0.950 . S
C681 C679 1.387 . S
C681 C683 1.390 . S
C681 H685 0.950 . S
H682 C678 0.950 . S
C683 C681 1.390 . S
C683 C684 1.387 . S
C683 H686 0.950 . S
C684 C683 1.387 . S
C684 C687 1.387 . S
H685 C681 0.950 . S
H686 C683 0.950 . S
C687 C678 1.390 . S
C687 H680 0.950 . S
C687 C684 1.387 . S
C688 C689 1.387 . S
C688 H692 0.950 . S
C688 C697 1.390 . S
C689 C688 1.387 . S
C689 C691 1.387 . S
H690 C697 0.950 . S
C691 C689 1.387 . S
C691 C693 1.390 . S
C691 H695 0.950 . S
H692 C688 0.950 . S
C693 C691 1.390 . S
C693 C694 1.387 . S
C693 H696 0.950 . S
C694 C693 1.387 . S
C694 C697 1.387 . S
H695 C691 0.950 . S
H696 C693 0.950 . S
C697 C688 1.390 . S
C697 H690 0.950 . S
C697 C694 1.387 . S
C698 C699 1.387 . S
C698 H702 0.950 . S
C698 C707 1.390 . S
C699 C698 1.387 . S
C699 C701 1.387 . S
H700 C707 0.950 . S
C701 C699 1.387 . S
C701 C703 1.390 . S
C701 H705 0.950 . S
H702 C698 0.950 . S
C703 C701 1.390 . S
C703 C704 1.387 . S
C703 H706 0.950 . S
C704 C703 1.387 . S
C704 C707 1.387 . S
H705 C701 0.950 . S
H706 C703 0.950 . S
C707 C698 1.390 . S
C707 H700 0.950 . S
C707 C704 1.387 . S
C708 C709 1.387 . S
C708 H712 0.950 . S
C708 C717 1.390 . S
C709 C708 1.387 . S
C709 C711 1.387 . S
H710 C717 0.950 . S
C711 C709 1.387 . S
C711 C713 1.390 . S
C711 H715 0.950 . S
H712 C708 0.950 . S
C713 C711 1.390 . S
C713 C714 1.387 . S
C713 H716 0.950 . S
C714 C713 1.387 . S
C714 C717 1.387 . S
H715 C711 0.950 . S
H716 C713 0.950 . S
C717 C708 1.390 . S
C717 H710 0.950 . S
C717 C714 1.387 . S
C718 C719 1.387 . S
C718 H722 0.950 . S
C718 C727 1.390 . S
C719 C718 1.387 . S
C719 C721 1.387 . S
H720 C727 0.950 . S
C721 C719 1.387 . S
C721 C723 1.390 . S
C721 H725 0.950 . S
H722 C718 0.950 . S
C723 C721 1.390 . S
C723 C724 1.387 . S
C723 H726 0.950 . S
C724 C723 1.387 . S
C724 C727 1.387 . S
H725 C721 0.950 . S
H726 C723 0.950 . S
C727 C718 1.390 . S
C727 H720 0.950 . S
C727 C724 1.387 . S
C728 C729 1.387 . S
C728 H732 0.950 . S
C728 C737 1.390 . S
C729 C728 1.387 . S
C729 C731 1.387 . S
H730 C737 0.950 . S
C731 C729 1.387 . S
C731 C733 1.390 . S
C731 H735 0.950 . S
H732 C728 0.950 . S
C733 C731 1.390 . S
C733 C734 1.387 . S
C733 H736 0.950 . S
C734 C733 1.387 . S
C734 C737 1.387 . S
H735 C731 0.950 . S
H736 C733 0.950 . S
C737 C728 1.390 . S
C737 H730 0.950 . S
C737 C734 1.387 . S
C738 C739 1.387 . S
C738 H742 0.950 . S
C738 C747 1.390 . S
C739 C738 1.387 . S
C739 C741 1.387 . S
H740 C747 0.950 . S
C741 C739 1.387 . S
C741 C743 1.390 . S
C741 H745 0.950 . S
H742 C738 0.950 . S
C743 C741 1.390 . S
C743 C744 1.387 . S
C743 H746 0.950 . S
C744 C743 1.387 . S
C744 C747 1.387 . S
H745 C741 0.950 . S
H746 C743 0.950 . S
C747 C738 1.390 . S
C747 H740 0.950 . S
C747 C744 1.387 . S
C748 C749 1.387 . S
C748 H752 0.950 . S
C748 C757 1.390 . S
C749 C748 1.387 . S
C749 C751 1.387 . S
H750 C757 0.950 . S
C751 C749 1.387 . S
C751 C753 1.390 . S
C751 H755 0.950 . S
H752 C748 0.950 . S
C753 C751 1.390 . S
C753 C754 1.387 . S
C753 H756 0.950 . S
C754 C753 1.387 . S
C754 C757 1.387 . S
H755 C751 0.950 . S
H756 C753 0.950 . S
C757 C748 1.390 . S
C757 H750 0.950 . S
C757 C754 1.387 . S
C758 C759 1.387 . S
C758 H762 0.950 . S
C758 C767 1.390 . S
C759 C758 1.387 . S
C759 C761 1.387 . S
H760 C767 0.950 . S
C761 C759 1.387 . S
C761 C763 1.390 . S
C761 H765 0.950 . S
H762 C758 0.950 . S
C763 C761 1.390 . S
C763 C764 1.387 . S
C763 H766 0.950 . S
C764 C763 1.387 . S
C764 C767 1.387 . S
H765 C761 0.950 . S
H766 C763 0.950 . S
C767 C758 1.390 . S
C767 H760 0.950 . S
C767 C764 1.387 . S
C768 C769 1.387 . S
C768 H772 0.950 . S
C768 C777 1.390 . S
C769 C768 1.387 . S
C769 C771 1.387 . S
H770 C777 0.950 . S
C771 C769 1.387 . S
C771 C773 1.390 . S
C771 H775 0.950 . S
H772 C768 0.950 . S
C773 C771 1.390 . S
C773 C774 1.387 . S
C773 H776 0.950 . S
C774 C773 1.387 . S
C774 C777 1.387 . S
H775 C771 0.950 . S
H776 C773 0.950 . S
C777 C768 1.390 . S
C777 H770 0.950 . S
C777 C774 1.387 . S
C778 C779 1.387 . S
C778 H782 0.950 . S
C778 C787 1.390 . S
C779 C778 1.387 . S
C779 C781 1.387 . S
H780 C787 0.950 . S
C781 C779 1.387 . S
C781 C783 1.390 . S
C781 H785 0.950 . S
H782 C778 0.950 . S
C783 C781 1.390 . S
C783 C784 1.387 . S
C783 H786 0.950 . S
C784 C783 1.387 . S
C784 C787 1.387 . S
H785 C781 0.950 . S
H786 C783 0.950 . S
C787 C778 1.390 . S
C787 H780 0.950 . S
C787 C784 1.387 . S
C788 C789 1.387 . S
C788 H792 0.950 . S
C788 C797 1.390 . S
C789 C788 1.387 . S
C789 C791 1.387 . S
H790 C797 0.950 . S
C791 C789 1.387 . S
C791 C793 1.390 . S
C791 H795 0.950 . S
H792 C788 0.950 . S
C793 C791 1.390 . S
C793 C794 1.387 . S
C793 H796 0.950 . S
C794 C793 1.387 . S
C794 C797 1.387 . S
H795 C791 0.950 . S
H796 C793 0.950 . S
C797 C788 1.390 . S
C797 H790 0.950 . S
C797 C794 1.387 . S
C798 C799 1.387 . S
C798 H802 0.950 . S
C798 C807 1.390 . S
C799 C798 1.387 . S
C799 C801 1.387 . S
H800 C807 0.950 . S
C801 C799 1.387 . S
C801 C803 1.390 . S
C801 H805 0.950 . S
H802 C798 0.950 . S
C803 C801 1.390 . S
C803 C804 1.387 . S
C803 H806 0.950 . S
C804 C803 1.387 . S
C804 C807 1.387 . S
H805 C801 0.950 . S
H806 C803 0.950 . S
C807 C798 1.390 . S
C807 H800 0.950 . S
C807 C804 1.387 . S
C808 C809 1.387 . S
C808 H812 0.950 . S
C808 C817 1.390 . S
C809 C808 1.387 . S
C809 C811 1.387 . S
H810 C817 0.950 . S
C811 C809 1.387 . S
C811 C813 1.390 . S
C811 H815 0.950 . S
H812 C808 0.950 . S
C813 C811 1.390 . S
C813 C814 1.387 . S
C813 H816 0.950 . S
C814 C813 1.387 . S
C814 C817 1.387 . S
H815 C811 0.950 . S
H816 C813 0.950 . S
C817 C808 1.390 . S
C817 H810 0.950 . S
C817 C814 1.387 . S
C818 C819 1.387 . S
C818 H822 0.950 . S
C818 C827 1.390 . S
C819 C818 1.387 . S
C819 C821 1.387 . S
H820 C827 0.950 . S
C821 C819 1.387 . S
C821 C823 1.390 . S
C821 H825 0.950 . S
H822 C818 0.950 . S
C823 C821 1.390 . S
C823 C824 1.387 . S
C823 H826 0.950 . S
C824 C823 1.387 . S
C824 C827 1.387 . S
H825 C821 0.950 . S
H826 C823 0.950 . S
C827 C818 1.390 . S
C827 H820 0.950 . S
C827 C824 1.387 . S
C409 C6 1.259 . S
C414 C266 1.258 . S
C419 C40 1.261 . S
C424 C278 1.257 . S
C429 C334 1.261 . S
C434 C74 1.257 . S
C439 C130 1.262 . S
C444 C346 1.260 . S
C449 C142 1.262 . S
C454 C402 1.260 . S
C459 C232 1.259 . S
C464 C198 1.259 . S
C469 C355 0.681 . S
C474 C124 0.683 . S
C479 C151 0.672 . S
C484 C396 0.676 . S
C489 C192 0.675 . S
C494 C226 0.678 . S
C499 C15 0.681 . S
C504 C260 0.683 . S
C509 C287 0.672 . S
C514 C49 0.673 . S
C519 C328 0.671 . S
C524 C83 0.674 . S
C529 C119 1.651 . S
C534 C17 1.651 . S
C539 C51 1.651 . S
C544 C153 1.651 . S
C549 C187 1.651 . S
C554 C85 1.651 . S
C559 C221 1.651 . S
C564 C323 1.651 . S
C569 C255 1.651 . S
C574 C357 1.651 . S
C579 C391 1.652 . S
C584 C289 1.652 . S
C589 C22 0.661 . S
C594 C362 0.659 . S
C599 C56 0.671 . S
C604 C389 0.668 . S
C609 C90 0.665 . S
C614 C219 0.662 . S
C619 C253 0.672 . S
C624 C117 0.670 . S
C629 C294 0.669 . S
C634 C158 0.668 . S
C639 C185 0.667 . S
C644 C321 0.667 . S
C649 C244 1.258 . S
C654 C108 1.260 . S
C659 C300 1.259 . S
C664 C164 1.263 . S
C669 C312 1.259 . S
C674 C176 1.263 . S
C679 C368 1.261 . S
C684 C28 1.262 . S
C689 C380 1.261 . S
C694 C62 1.262 . S
C699 C96 1.258 . S
C704 C210 1.262 . S
C709 C1 3.065 . S
C714 C273 3.062 . S
C719 C309 3.065 . S
C724 C35 3.062 . S
C729 C341 3.064 . S
C734 C69 3.063 . S
C739 C105 3.065 . S
C744 C377 3.062 . S
C749 C207 3.065 . S
C754 C137 3.062 . S
C759 C173 3.065 . S
C764 C241 3.062 . S
C769 C375 3.050 . S
C774 C103 3.053 . S
C779 C205 3.050 . S
C784 C139 3.052 . S
C789 C239 3.050 . S
C794 C171 3.052 . S
C799 C275 3.051 . S
C804 C3 3.053 . S
C809 C307 3.050 . S
C814 C37 3.052 . S
C819 C343 3.051 . S
C824 C71 3.053 . S
