# Generated by pormake.
# Topology dft, (4)-cn, num edge types: 1
# Building blocks:
#     Node 0, Type 0, BuildingBlock: QUQFOY_clean_sbu_1, # of connection points: 4
#     Node 1, Type 0, BuildingBlock: QUQFOY_clean_sbu_1, # of connection points: 4
#     Node 2, Type 0, BuildingBlock: QUQFOY_clean_sbu_1, # of connection points: 4
#     Node 3, Type 0, BuildingBlock: QUQFOY_clean_sbu_1, # of connection points: 4
#     Node 4, Type 0, BuildingBlock: QUQFOY_clean_sbu_1, # of connection points: 4
#     Node 5, Type 0, BuildingBlock: QUQFOY_clean_sbu_1, # of connection points: 4
#     Node 6, Type 0, BuildingBlock: QUQFOY_clean_sbu_1, # of connection points: 4
#     Node 7, Type 0, BuildingBlock: QUQFOY_clean_sbu_1, # of connection points: 4
#     Edge 8, Type (0, 0), BuildingBlock: FUNLAD_clean_linker_0, # of connection points: 2
#     Edge 9, Type (0, 0), BuildingBlock: FUNLAD_clean_linker_0, # of connection points: 2
#     Edge 10, Type (0, 0), BuildingBlock: FUNLAD_clean_linker_0, # of connection points: 2
#     Edge 11, Type (0, 0), BuildingBlock: FUNLAD_clean_linker_0, # of connection points: 2
#     Edge 12, Type (0, 0), BuildingBlock: FUNLAD_clean_linker_0, # of connection points: 2
#     Edge 13, Type (0, 0), BuildingBlock: FUNLAD_clean_linker_0, # of connection points: 2
#     Edge 14, Type (0, 0), BuildingBlock: FUNLAD_clean_linker_0, # of connection points: 2
#     Edge 15, Type (0, 0), BuildingBlock: FUNLAD_clean_linker_0, # of connection points: 2
#     Edge 16, Type (0, 0), BuildingBlock: FUNLAD_clean_linker_0, # of connection points: 2
#     Edge 17, Type (0, 0), BuildingBlock: FUNLAD_clean_linker_0, # of connection points: 2
#     Edge 18, Type (0, 0), BuildingBlock: FUNLAD_clean_linker_0, # of connection points: 2
#     Edge 19, Type (0, 0), BuildingBlock: FUNLAD_clean_linker_0, # of connection points: 2
#     Edge 20, Type (0, 0), BuildingBlock: FUNLAD_clean_linker_0, # of connection points: 2
#     Edge 21, Type (0, 0), BuildingBlock: FUNLAD_clean_linker_0, # of connection points: 2
#     Edge 22, Type (0, 0), BuildingBlock: FUNLAD_clean_linker_0, # of connection points: 2
#     Edge 23, Type (0, 0), BuildingBlock: FUNLAD_clean_linker_0, # of connection points: 2
# Relax obj value: 0.207
# Max RMSD: 0.223
# Mean RMSD: 0.223
data_MOF--net-dft--node1-QUQFOY_clean_sbu_1--edge1-FUNLAD_clean_linker_0
_symmetry_space_group_name_H-M    P1
_symmetry_Int_Tables_number       1
_symmetry_cell_setting            triclinic
loop_
_symmetry_equiv_pos_as_xyz
'x, y, z'
_cell_length_a     42.452964
_cell_length_b     42.466896
_cell_length_c     46.439177
_cell_angle_alpha  90.078891
_cell_angle_beta   90.006418
_cell_angle_gamma 89.952273
loop_
_atom_site_label
_atom_site_type_symbol
_atom_site_fract_x
_atom_site_fract_y
_atom_site_fract_z
_atom_type_partial_charge
O0 O 0.35644 0.0536 0.13603 0.0
Cd1 Cd 0.35422 0.06374 0.17941 0.0
Cd2 Cd 0.30567 0.01762 0.17707 0.0
O3 O 0.3224 0.01439 0.13547 0.0
O4 O 0.39362 0.08762 0.18713 0.0
O5 O 0.38366 0.04108 0.20638 0.0
C6 C 0.4027 0.06453 0.20309 0.0
C7 C 0.28825 0.97039 0.19762 0.0
C8 C 0.34225 0.03174 0.12259 0.0
C9 C 0.28912 0.08446 0.19586 0.0
O10 O 0.28002 0.05683 0.18935 0.0
O11 O 0.31806 0.09184 0.19422 0.0
O12 O 0.27302 0.98405 0.1772 0.0
O13 O 0.31399 0.98341 0.20645 0.0
O14 O 0.00499 0.35743 0.6437 0.0
Cd15 Cd 0.99958 0.35635 0.68779 0.0
Cd16 Cd 0.04353 0.30708 0.68377 0.0
O17 O 0.04313 0.3222 0.64158 0.0
O18 O 0.97935 0.39701 0.6982 0.0
O19 O 0.02739 0.3838 0.71228 0.0
C20 C 0.00482 0.40425 0.71181 0.0
C21 C 0.09249 0.28987 0.70088 0.0
C22 C 0.02521 0.34201 0.62926 0.0
C23 C 0.97837 0.29278 0.70763 0.0
O24 O 0.0052 0.28259 0.69974 0.0
O25 O 0.97163 0.32182 0.70537 0.0
O26 O 0.07667 0.274 0.68224 0.0
O27 O 0.08058 0.31603 0.71001 0.0
O28 O 0.73065 0.01281 0.15175 0.0
Cd29 Cd 0.73124 0.01246 0.19632 0.0
Cd30 Cd 0.78128 0.05376 0.18675 0.0
O31 O 0.76337 0.05252 0.14566 0.0
O32 O 0.69099 0.99135 0.20662 0.0
O33 O 0.70105 0.04108 0.21733 0.0
C34 C 0.68164 0.01765 0.21755 0.0
C35 C 0.79941 0.10243 0.2036 0.0
C36 C 0.74417 0.03256 0.13536 0.0
C37 C 0.79523 0.99123 0.21484 0.0
O38 O 0.80597 0.01507 0.20157 0.0
O39 O 0.76573 0.98709 0.21737 0.0
O40 O 0.8142 0.08692 0.18397 0.0
O41 O 0.7737 0.09047 0.21365 0.0
O42 O 0.0658 0.72746 0.65104 0.0
Cd43 Cd 0.06667 0.7296 0.69557 0.0
Cd44 Cd 0.02382 0.77712 0.68584 0.0
O45 O 0.02465 0.75842 0.64501 0.0
O46 O 0.08774 0.68984 0.70737 0.0
O47 O 0.03787 0.70047 0.71727 0.0
C48 C 0.06128 0.68102 0.71831 0.0
C49 C 0.97484 0.79231 0.70419 0.0
C50 C 0.04511 0.73971 0.63474 0.0
C51 C 0.08615 0.79452 0.71243 0.0
O52 O 0.06166 0.80401 0.69929 0.0
O53 O 0.0914 0.76527 0.71553 0.0
O54 O 0.98855 0.80787 0.68399 0.0
O55 O 0.98884 0.76751 0.71397 0.0
O56 O 0.35165 0.01432 0.84364 0.0
Cd57 Cd 0.3496 0.01206 0.79914 0.0
Cd58 Cd 0.30158 0.05553 0.80754 0.0
O59 O 0.32095 0.05593 0.84807 0.0
O60 O 0.38966 0.99141 0.78744 0.0
O61 O 0.37807 0.04086 0.77675 0.0
C62 C 0.3979 0.01775 0.77591 0.0
C63 C 0.28397 0.10403 0.7899 0.0
C64 C 0.33953 0.03586 0.85911 0.0
C65 C 0.28477 0.9921 0.78245 0.0
O66 O 0.27518 0.01705 0.79479 0.0
O67 O 0.31405 0.98665 0.77974 0.0
O68 O 0.26956 0.08959 0.81037 0.0
O69 O 0.30894 0.09102 0.77934 0.0
O70 O 0.08054 0.35347 0.35048 0.0
Cd71 Cd 0.08294 0.35327 0.30616 0.0
Cd72 Cd 0.04092 0.30416 0.31106 0.0
O73 O 0.04158 0.31933 0.3533 0.0
O74 O 0.09828 0.39568 0.29485 0.0
O75 O 0.05045 0.37814 0.28455 0.0
C76 C 0.07083 0.40075 0.28384 0.0
C77 C 0.99206 0.28707 0.29367 0.0
C78 C 0.06038 0.33854 0.36533 0.0
C79 C 0.10543 0.29092 0.28526 0.0
O80 O 0.07948 0.28016 0.29473 0.0
O81 O 0.11122 0.32024 0.2865 0.0
O82 O 0.00781 0.27107 0.31227 0.0
O83 O 0.00395 0.31331 0.28483 0.0
O84 O 0.72363 0.06939 0.85486 0.0
Cd85 Cd 0.72467 0.07267 0.81061 0.0
Cd86 Cd 0.77128 0.02611 0.81658 0.0
O87 O 0.75564 0.02865 0.8586 0.0
O88 O 0.6851 0.09486 0.79997 0.0
O89 O 0.69513 0.04551 0.78758 0.0
C90 C 0.67601 0.06923 0.78759 0.0
C91 C 0.78665 0.97624 0.80013 0.0
C92 C 0.73727 0.04866 0.87013 0.0
C93 C 0.78944 0.08936 0.79065 0.0
O94 O 0.79798 0.06257 0.80003 0.0
O95 O 0.76073 0.0977 0.79188 0.0
O96 O 0.80273 0.99147 0.81903 0.0
O97 O 0.76109 0.9891 0.79066 0.0
O98 O 0.00953 0.72445 0.35365 0.0
Cd99 Cd 0.00978 0.72707 0.30913 0.0
Cd100 Cd 0.05078 0.77487 0.31912 0.0
O101 O 0.04969 0.75654 0.36003 0.0
O102 O 0.99362 0.6859 0.29503 0.0
O103 O 0.04262 0.70204 0.28802 0.0
C104 C 0.02145 0.6804 0.28506 0.0
C105 C 0.09969 0.79021 0.30085 0.0
C106 C 0.02962 0.73737 0.37016 0.0
C107 C 0.98843 0.79116 0.29208 0.0
O108 O 0.01272 0.80114 0.30521 0.0
O109 O 0.98375 0.76179 0.2891 0.0
O110 O 0.08574 0.80594 0.32085 0.0
O111 O 0.086 0.76512 0.29129 0.0
C112 C 0.36713 0.04815 0.07598 0.0
C113 C 0.3481 0.02701 0.09144 0.0
C114 C 0.371 0.04478 0.04625 0.0
C115 C 0.35587 0.0202 0.03135 0.0
C116 C 0.33804 0.9983 0.04698 0.0
C117 C 0.33401 0.00175 0.07667 0.0
C118 C 0.35742 0.0172 -0.00047 0.0
C119 C 0.3598 0.04237 0.98208 0.0
C120 C 0.35646 0.04033 0.95034 0.0
C121 C 0.34368 0.06616 0.93563 0.0
C122 C 0.33848 0.06473 0.906 0.0
C123 C 0.34648 0.03757 0.89029 0.0
H124 H 0.37602 0.99336 0.94514 0.0
C125 C 0.36042 0.01208 0.90479 0.0
C126 C 0.36529 0.01339 0.93458 0.0
H127 H 0.36706 0.99092 0.89324 0.0
H128 H 0.37864 0.06764 0.08673 0.0
H129 H 0.38578 0.06151 0.03503 0.0
H130 H 0.3264 0.97897 0.03607 0.0
H131 H 0.31946 0.98484 0.08795 0.0
H132 H 0.35309 0.99408 0.9903 0.0
H133 H 0.36091 0.06581 0.99143 0.0
H134 H 0.33694 0.08729 0.94721 0.0
H135 H 0.328 0.08492 0.89545 0.0
C136 C 0.05294 0.33334 0.58237 0.0
C137 C 0.02755 0.34641 0.59772 0.0
C138 C 0.05456 0.33611 0.55245 0.0
C139 C 0.03076 0.35199 0.53719 0.0
C140 C 0.00548 0.36518 0.55252 0.0
C141 C 0.00401 0.36269 0.58251 0.0
C142 C 0.03051 0.35306 0.50526 0.0
C143 C 0.05694 0.35217 0.48924 0.0
C144 C 0.05651 0.3501 0.45735 0.0
C145 C 0.08203 0.3621 0.44161 0.0
C146 C 0.08307 0.35894 0.41164 0.0
C147 C 0.05885 0.34314 0.3969 0.0
H148 H 0.01256 0.32415 0.45406 0.0
C149 C 0.03333 0.33108 0.4127 0.0
C150 C 0.03214 0.33454 0.44258 0.0
H151 H 0.01432 0.31869 0.40202 0.0
H152 H 0.07144 0.32057 0.59341 0.0
H153 H 0.07395 0.32485 0.54134 0.0
H154 H 0.98669 0.37726 0.54123 0.0
H155 H 0.98405 0.3729 0.59368 0.0
H156 H 0.00775 0.35502 0.4947 0.0
H157 H 0.07978 0.35347 0.49972 0.0
H158 H 0.10126 0.37389 0.45253 0.0
H159 H 0.10313 0.36837 0.40012 0.0
C160 C 0.74466 0.02351 0.91841 0.0
C161 C 0.73264 0.04836 0.90173 0.0
C162 C 0.74188 0.02397 0.94838 0.0
C163 C 0.72699 0.04936 0.96234 0.0
C164 C 0.71473 0.07403 0.94567 0.0
C165 C 0.71727 0.07345 0.91566 0.0
C166 C 0.7262 0.052 0.99421 0.0
C167 C 0.72699 0.02691 0.01189 0.0
C168 C 0.72967 0.02982 0.04366 0.0
C169 C 0.71817 0.00552 0.0612 0.0
C170 C 0.72216 0.00669 0.09108 0.0
C171 C 0.73825 0.03198 0.10395 0.0
H172 H 0.75547 0.07402 0.04372 0.0
C173 C 0.74966 0.05635 0.08637 0.0
C174 C 0.74543 0.05531 0.05658 0.0
H175 H 0.76226 0.07613 0.09556 0.0
H176 H 0.75671 0.00386 0.90838 0.0
H177 H 0.75244 0.00495 0.9605 0.0
H178 H 0.70342 0.09401 0.95591 0.0
H179 H 0.70785 0.09304 0.90347 0.0
H180 H 0.72465 0.07554 0.00331 0.0
H181 H 0.7253 0.00332 0.00295 0.0
H182 H 0.70624 0.98546 0.05175 0.0
H183 H 0.71322 0.98746 0.104 0.0
C184 C 0.05401 0.74199 0.41898 0.0
C185 C 0.02932 0.731 0.40149 0.0
C186 C 0.05311 0.7378 0.44876 0.0
C187 C 0.02747 0.72246 0.46179 0.0
C188 C 0.00295 0.71116 0.44431 0.0
C189 C 0.00396 0.71513 0.41442 0.0
C190 C 0.02443 0.72043 0.49359 0.0
C191 C 0.04941 0.72053 0.5115 0.0
C192 C 0.04652 0.72316 0.54327 0.0
C193 C 0.07127 0.71237 0.56072 0.0
C194 C 0.07052 0.71695 0.59054 0.0
C195 C 0.04517 0.73292 0.60346 0.0
H196 H 0.00178 0.74814 0.54353 0.0
C197 C 0.02023 0.74342 0.58601 0.0
C198 C 0.02087 0.73862 0.55627 0.0
H199 H 1.00036 0.75586 0.59524 0.0
H200 H 0.07387 0.75438 0.40974 0.0
H201 H 0.07201 0.74771 0.46151 0.0
H202 H 0.98277 0.69955 0.45384 0.0
H203 H 0.98451 0.70649 0.40156 0.0
H204 H 0.00078 0.71896 0.50241 0.0
H205 H 0.07303 0.71876 0.50266 0.0
H206 H 0.09146 0.70068 0.55121 0.0
H207 H 0.09016 0.70865 0.60335 0.0
C208 C 0.44601 0.03831 0.23114 0.0
C209 C 0.43486 0.06429 0.21544 0.0
C210 C 0.47761 0.03674 0.23971 0.0
C211 C 0.49877 0.06106 0.23246 0.0
C212 C 0.48701 0.08779 0.21832 0.0
C213 C 0.45551 0.08939 0.20985 0.0
C214 C 0.53342 0.05902 0.23745 0.0
C215 C 0.54898 0.03171 0.24173 0.0
C216 C 0.58388 0.02857 0.23965 0.0
C217 C 0.60467 0.05433 0.24207 0.0
C218 C 0.63681 0.05061 0.23612 0.0
C219 C 0.64882 0.02111 0.22787 0.0
H220 H 0.58115 0.97841 0.23161 0.0
C221 C 0.62842 0.99507 0.22736 0.0
C222 C 0.59641 0.99877 0.23328 0.0
H223 H 0.63693 0.97191 0.2214 0.0
H224 H 0.43056 0.01878 0.23613 0.0
H225 H 0.48523 0.01621 0.25156 0.0
H226 H 0.50255 0.10707 0.21271 0.0
H227 H 0.44766 0.10993 0.19805 0.0
H228 H 0.54676 0.08044 0.23398 0.0
H229 H 0.53576 0.00994 0.24332 0.0
H230 H 0.59633 0.0775 0.24802 0.0
H231 H 0.65202 0.07105 0.23707 0.0
C232 C 0.0378 0.44636 0.73486 0.0
C233 C 0.00839 0.43584 0.72488 0.0
C234 C 0.04174 0.47759 0.74386 0.0
C235 C 0.01628 0.49888 0.74297 0.0
C236 C 0.9865 0.48769 0.73481 0.0
C237 C 0.98261 0.45661 0.72569 0.0
C238 C 0.01997 0.53319 0.74855 0.0
C239 C 0.04693 0.54881 0.743 0.0
C240 C 0.04986 0.58378 0.7416 0.0
C241 C 0.07996 0.59656 0.73716 0.0
C242 C 0.08379 0.62851 0.73109 0.0
C243 C 0.05754 0.64857 0.72935 0.0
H244 H 0.99995 0.59582 0.74455 0.0
C245 C 0.02756 0.63636 0.73549 0.0
C246 C 0.02368 0.60429 0.74147 0.0
H247 H 0.00687 0.65124 0.73432 0.0
H248 H 0.05803 0.4308 0.73484 0.0
H249 H 0.06482 0.485 0.75104 0.0
H250 H 0.9664 0.50343 0.73423 0.0
H251 H 0.95953 0.44915 0.71847 0.0
H252 H 0.99887 0.54604 0.75439 0.0
H253 H 0.06765 0.53546 0.73673 0.0
H254 H 0.1006 0.58152 0.7372 0.0
H255 H 0.10728 0.6372 0.72668 0.0
C256 C 0.63136 0.03754 0.76721 0.0
C257 C 0.64376 0.06677 0.77569 0.0
C258 C 0.59955 0.03473 0.75966 0.0
C259 C 0.57951 0.06125 0.76026 0.0
C260 C 0.59248 0.09066 0.76735 0.0
C261 C 0.62416 0.09342 0.77496 0.0
C262 C 0.54465 0.05913 0.75678 0.0
C263 C 0.52909 0.03338 0.7475 0.0
C264 C 0.49438 0.02988 0.7505 0.0
C265 C 0.48208 0.99967 0.75517 0.0
C266 C 0.45036 0.99562 0.76216 0.0
C267 C 0.4301 0.02172 0.76427 0.0
H268 H 0.48201 0.07935 0.74609 0.0
C269 C 0.44181 0.05175 0.75752 0.0
C270 C 0.47366 0.05582 0.75067 0.0
H271 H 0.4267 0.07228 0.75861 0.0
H272 H 0.64587 0.01655 0.76758 0.0
H273 H 0.59079 0.01147 0.75474 0.0
H274 H 0.57777 0.11152 0.76801 0.0
H275 H 0.633 0.11636 0.7812 0.0
H276 H 0.53118 0.07924 0.76436 0.0
H277 H 0.54207 0.01287 0.74024 0.0
H278 H 0.49738 0.97923 0.75482 0.0
H279 H 0.44199 0.9721 0.76689 0.0
C280 C 0.08528 0.45632 0.27207 0.0
C281 C 0.06242 0.43242 0.27301 0.0
C282 C 0.07677 0.48738 0.26597 0.0
C283 C 0.04511 0.49527 0.26051 0.0
C284 C 0.02252 0.47109 0.26018 0.0
C285 C 0.03107 0.43996 0.26621 0.0
C286 C 0.03423 0.52855 0.25869 0.0
C287 C 0.05326 0.55308 0.25249 0.0
C288 C 0.04404 0.58664 0.25682 0.0
C289 C 0.06794 0.6092 0.26039 0.0
C290 C 0.06063 0.64018 0.26823 0.0
C291 C 0.02918 0.64923 0.27264 0.0
H292 H 0.99313 0.58033 0.25545 0.0
C293 C 0.00514 0.62728 0.26724 0.0
C294 C 0.01243 0.5964 0.25921 0.0
H295 H 0.98062 0.6337 0.26992 0.0
H296 H 0.10966 0.45131 0.27725 0.0
H297 H 0.09491 0.50519 0.26719 0.0
H298 H 0.99794 0.47646 0.25621 0.0
H299 H 0.01288 0.42211 0.26679 0.0
H300 H 0.00989 0.53276 0.26461 0.0
H301 H 0.07749 0.54862 0.24626 0.0
H302 H 0.09249 0.60254 0.25835 0.0
H303 H 0.07969 0.6566 0.27204 0.0
C304 C 0.12329 0.23642 0.27233 0.0
C305 C 0.12936 0.26894 0.27349 0.0
C306 C 0.14618 0.21547 0.26225 0.0
C307 C 0.17568 0.22659 0.25287 0.0
C308 C 0.18174 0.25906 0.25409 0.0
C309 C 0.15882 0.28004 0.26414 0.0
C310 C 0.20113 0.20499 0.24302 0.0
C311 C 0.19554 0.1762 0.23181 0.0
C312 C 0.22046 0.15351 0.2227 0.0
C313 C 0.21152 0.12232 0.21683 0.0
C314 C 0.23376 0.09995 0.20824 0.0
C315 C 0.26563 0.10823 0.20521 0.0
H316 H 0.2605 0.18567 0.22303 0.0
C317 C 0.27468 0.13946 0.21089 0.0
C318 C 0.25239 0.16189 0.21944 0.0
H319 H 0.299 0.14671 0.20855 0.0
H320 H 0.10097 0.22699 0.2796 0.0
H321 H 0.14084 0.19058 0.26264 0.0
H322 H 0.20433 0.26827 0.24725 0.0
H323 H 0.16436 0.30492 0.26485 0.0
H324 H 0.22505 0.21356 0.24507 0.0
H325 H 0.17134 0.16843 0.2293 0.0
H326 H 0.18716 0.1151 0.21901 0.0
H327 H 0.22589 0.07614 0.204 0.0
C328 C 0.96205 0.23849 0.72265 0.0
C329 C 0.95461 0.27049 0.71902 0.0
C330 C 0.93946 0.21729 0.73277 0.0
C331 C 0.90872 0.2276 0.73927 0.0
C332 C 0.90152 0.2597 0.73615 0.0
C333 C 0.92413 0.2809 0.72608 0.0
C334 C 0.88371 0.20601 0.74993 0.0
C335 C 0.88443 0.17447 0.74656 0.0
C336 C 0.85942 0.15319 0.75755 0.0
C337 C 0.86736 0.12199 0.7643 0.0
C338 C 0.84465 0.10125 0.77494 0.0
C339 C 0.81331 0.11117 0.77871 0.0
H340 H 0.82062 0.18654 0.7549 0.0
C341 C 0.80516 0.14221 0.77128 0.0
C342 C 0.82793 0.16301 0.7608 0.0
H343 H 0.78118 0.15055 0.77368 0.0
H344 H 0.98541 0.22972 0.71773 0.0
H345 H 0.94652 0.19307 0.73578 0.0
H346 H 0.87818 0.26841 0.74125 0.0
H347 H 0.9176 0.30541 0.72366 0.0
H348 H 0.86377 0.21679 0.76079 0.0
H349 H 0.9043 0.16337 0.73595 0.0
H350 H 0.89134 0.1137 0.76171 0.0
H351 H 0.85173 0.07745 0.78025 0.0
C352 C 0.96231 0.84391 0.29302 0.0
C353 C 0.96542 0.81394 0.28046 0.0
C354 C 0.94045 0.86549 0.28221 0.0
C355 C 0.92173 0.85769 0.25829 0.0
C356 C 0.92522 0.82799 0.24542 0.0
C357 C 0.94652 0.80608 0.25668 0.0
C358 C 0.8994 0.8807 0.24578 0.0
C359 C 0.88148 0.89967 0.26224 0.0
C360 C 0.85942 0.92289 0.24966 0.0
C361 C 0.82983 0.9276 0.2624 0.0
C362 C 0.80873 0.94954 0.25088 0.0
C363 C 0.81732 0.96787 0.22698 0.0
H364 H 0.89095 0.93841 0.2158 0.0
C365 C 0.84725 0.96363 0.21463 0.0
C366 C 0.868 0.94113 0.22569 0.0
H367 H 0.85449 0.97744 0.19619 0.0
H368 H 0.97659 0.85059 0.31137 0.0
H369 H 0.93869 0.88849 0.2922 0.0
H370 H 0.9112 0.82162 0.2268 0.0
H371 H 0.9486 0.78323 0.24647 0.0
H372 H 0.89657 0.88099 0.22251 0.0
H373 H 0.88182 0.89706 0.28552 0.0
H374 H 0.82288 0.91398 0.28106 0.0
H375 H 0.78589 0.95248 0.26093 0.0
C376 C 0.11199 0.84734 0.7106 0.0
C377 C 0.10892 0.81771 0.72373 0.0
C378 C 0.13404 0.86906 0.72082 0.0
C379 C 0.15295 0.86177 0.74474 0.0
C380 C 0.14936 0.8325 0.7583 0.0
C381 C 0.1279 0.81043 0.74761 0.0
C382 C 0.17587 0.88476 0.75634 0.0
C383 C 0.19425 0.90232 0.7391 0.0
C384 C 0.21737 0.92511 0.75068 0.0
C385 C 0.24697 0.92796 0.73752 0.0
C386 C 0.26912 0.94941 0.7481 0.0
C387 C 0.26161 0.96912 0.77144 0.0
H388 H 0.18697 0.9434 0.78431 0.0
C389 C 0.2317 0.96673 0.78421 0.0
C390 C 0.20988 0.9447 0.77412 0.0
H391 H 0.22529 0.98164 0.80223 0.0
H392 H 0.09766 0.85357 0.69216 0.0
H393 H 0.13593 0.89174 0.71031 0.0
H394 H 0.16354 0.82653 0.77692 0.0
H395 H 0.12585 0.78784 0.75825 0.0
H396 H 0.17893 0.88596 0.77956 0.0
H397 H 0.19358 0.89865 0.71594 0.0
H398 H 0.25311 0.91325 0.71927 0.0
H399 H 0.29192 0.95094 0.73772 0.0
C400 C 0.82406 0.93103 0.80232 0.0
C401 C 0.7986 0.94599 0.78867 0.0
C402 C 0.83854 0.90488 0.7898 0.0
C403 C 0.82784 0.89297 0.76324 0.0
C404 C 0.8015 0.90712 0.75022 0.0
C405 C 0.78685 0.93326 0.7629 0.0
C406 C 0.84615 0.86895 0.74693 0.0
C407 C 0.86718 0.84934 0.75928 0.0
C408 C 0.89156 0.83173 0.74279 0.0
C409 C 0.90716 0.80631 0.75594 0.0
C410 C 0.93341 0.79234 0.74283 0.0
C411 C 0.94483 0.80387 0.7165 0.0
H412 H 0.89162 0.8623 0.7052 0.0
C413 C 0.92854 0.82849 0.70285 0.0
C414 C 0.90227 0.84229 0.71579 0.0
H415 H 0.93671 0.83792 0.68251 0.0
H416 H 0.83366 0.94024 0.82223 0.0
H417 H 0.85919 0.89537 0.80029 0.0
H418 H 0.79292 0.89864 0.72965 0.0
H419 H 0.76731 0.94433 0.75184 0.0
H420 H 0.84331 0.86876 0.72369 0.0
H421 H 0.86783 0.84718 0.78257 0.0
H422 H 0.89963 0.79789 0.77684 0.0
H423 H 0.94551 0.77343 0.75391 0.0
C424 C 0.24978 0.92607 0.19821 0.0
C425 C 0.27539 0.9416 0.21109 0.0
C426 C 0.23495 0.90104 0.2121 0.0
C427 C 0.24543 0.8908 0.23927 0.0
C428 C 0.27173 0.90564 0.25171 0.0
C429 C 0.28675 0.93066 0.23767 0.0
C430 C 0.22708 0.86772 0.25652 0.0
C431 C 0.20672 0.84696 0.24479 0.0
C432 C 0.18249 0.82968 0.26167 0.0
C433 C 0.16759 0.80341 0.24926 0.0
C434 C 0.1415 0.78948 0.26259 0.0
C435 C 0.12957 0.80188 0.28843 0.0
H436 H 0.18139 0.86181 0.29823 0.0
C437 C 0.14518 0.82738 0.3014 0.0
C438 C 0.17128 0.84116 0.28821 0.0
H439 H 0.13659 0.83749 0.32134 0.0
H440 H 0.24045 0.93391 0.17773 0.0
H441 H 0.21429 0.891 0.20203 0.0
H442 H 0.28012 0.89847 0.27274 0.0
H443 H 0.30639 0.94221 0.24816 0.0
H444 H 0.22949 0.86902 0.27977 0.0
H445 H 0.20663 0.84343 0.22163 0.0
H446 H 0.17553 0.79423 0.22872 0.0
H447 H 0.12995 0.76987 0.25204 0.0
C448 C 0.13693 0.25158 0.69823 0.0
C449 C 0.12267 0.27739 0.71199 0.0
C450 C 0.16356 0.23726 0.70999 0.0
C451 C 0.17665 0.24846 0.73588 0.0
C452 C 0.16299 0.27492 0.74916 0.0
C453 C 0.13639 0.28945 0.73722 0.0
C454 C 0.2017 0.23063 0.75124 0.0
C455 C 0.22136 0.21028 0.73797 0.0
C456 C 0.2404 0.18632 0.75356 0.0
C457 C 0.2657 0.17163 0.73933 0.0
C458 C 0.28102 0.14572 0.75165 0.0
C459 C 0.27097 0.13374 0.77828 0.0
H460 H 0.21149 0.18503 0.79225 0.0
C461 C 0.24647 0.14914 0.79299 0.0
C462 C 0.23134 0.17508 0.78082 0.0
H463 H 0.23819 0.14051 0.81358 0.0
H464 H 0.12696 0.24173 0.67872 0.0
H465 H 0.17266 0.21645 0.69943 0.0
H466 H 0.17238 0.28384 0.76928 0.0
H467 H 0.12587 0.30927 0.74834 0.0
H468 H 0.20279 0.23333 0.77447 0.0
H469 H 0.2225 0.20992 0.71462 0.0
H470 H 0.27298 0.1796 0.7182 0.0
H471 H 0.2998 0.13431 0.73978 0.0
C472 C 0.94752 0.24891 0.29586 0.0
C473 C 0.96201 0.27462 0.28225 0.0
C474 C 0.92103 0.23463 0.28378 0.0
C475 C 0.90835 0.24574 0.25771 0.0
C476 C 0.92225 0.27209 0.24456 0.0
C477 C 0.94868 0.2866 0.25683 0.0
C478 C 0.88344 0.22795 0.24211 0.0
C479 C 0.86325 0.20814 0.25529 0.0
C480 C 0.84403 0.18435 0.23964 0.0
C481 C 0.818 0.17065 0.2535 0.0
C482 C 0.80233 0.14492 0.24119 0.0
C483 C 0.81279 0.13209 0.21499 0.0
H484 H 0.87393 0.18149 0.20166 0.0
C485 C 0.83807 0.14651 0.20063 0.0
C486 C 0.85353 0.1723 0.21276 0.0
H487 H 0.84669 0.13721 0.18037 0.0
H488 H 0.95719 0.23912 0.31549 0.0
H489 H 0.91171 0.21389 0.29425 0.0
H490 H 0.91318 0.28094 0.22432 0.0
H491 H 0.95939 0.30634 0.24581 0.0
H492 H 0.88282 0.23029 0.21884 0.0
H493 H 0.86168 0.20817 0.27863 0.0
H494 H 0.81037 0.17925 0.27434 0.0
H495 H 0.78296 0.13426 0.25281 0.0
loop_
_geom_bond_atom_site_label_1
_geom_bond_atom_site_label_2
_geom_bond_distance
_geom_bond_site_symmetry_2
_ccdc_geom_bond_type
O0 Cd1 2.223 . S
O0 C8 1.315 . S
Cd1 O0 2.223 . S
Cd1 O4 2.297 . S
Cd1 O5 2.439 . S
Cd1 O11 2.240 . S
Cd2 O3 2.240 . S
Cd2 O10 2.223 . S
Cd2 O12 2.297 1_545 S
Cd2 O13 2.439 1_545 S
O3 Cd2 2.240 . S
O3 C8 1.279 . S
O4 Cd1 2.297 . S
O4 C6 1.247 . S
O5 Cd1 2.439 . S
O5 C6 1.208 . S
C6 O4 1.247 . S
C6 O5 1.208 . S
C7 O12 1.247 . S
C7 O13 1.208 . S
C8 O0 1.315 . S
C8 O3 1.279 . S
C9 O10 1.315 . S
C9 O11 1.279 . S
O10 Cd2 2.223 . S
O10 C9 1.315 . S
O11 Cd1 2.240 . S
O11 C9 1.279 . S
O12 Cd2 2.297 1_565 S
O12 C7 1.247 . S
O13 Cd2 2.439 1_565 S
O13 C7 1.208 . S
O14 Cd15 2.223 . S
O14 C22 1.315 . S
Cd15 O14 2.223 . S
Cd15 O18 2.297 . S
Cd15 O19 2.439 . S
Cd15 O25 2.240 . S
Cd16 O17 2.240 . S
Cd16 O24 2.223 . S
Cd16 O26 2.297 . S
Cd16 O27 2.439 . S
O17 Cd16 2.240 . S
O17 C22 1.279 . S
O18 Cd15 2.297 . S
O18 C20 1.247 . S
O19 Cd15 2.439 . S
O19 C20 1.208 . S
C20 O18 1.247 . S
C20 O19 1.208 . S
C21 O26 1.247 . S
C21 O27 1.208 . S
C22 O14 1.315 . S
C22 O17 1.279 . S
C23 O24 1.315 . S
C23 O25 1.279 . S
O24 Cd16 2.223 . S
O24 C23 1.315 . S
O25 Cd15 2.240 . S
O25 C23 1.279 . S
O26 Cd16 2.297 . S
O26 C21 1.247 . S
O27 Cd16 2.439 . S
O27 C21 1.208 . S
O28 Cd29 2.223 . S
O28 C36 1.315 . S
Cd29 O28 2.223 . S
Cd29 O32 2.297 . S
Cd29 O33 2.439 . S
Cd29 O39 2.240 . S
Cd30 O31 2.240 . S
Cd30 O38 2.223 . S
Cd30 O40 2.297 . S
Cd30 O41 2.439 . S
O31 Cd30 2.240 . S
O31 C36 1.279 . S
O32 Cd29 2.297 . S
O32 C34 1.247 . S
O33 Cd29 2.439 . S
O33 C34 1.208 . S
C34 O32 1.247 . S
C34 O33 1.208 . S
C35 O40 1.247 . S
C35 O41 1.208 . S
C36 O28 1.315 . S
C36 O31 1.279 . S
C37 O38 1.315 . S
C37 O39 1.279 . S
O38 Cd30 2.223 . S
O38 C37 1.315 . S
O39 Cd29 2.240 . S
O39 C37 1.279 . S
O40 Cd30 2.297 . S
O40 C35 1.247 . S
O41 Cd30 2.439 . S
O41 C35 1.208 . S
O42 Cd43 2.223 . S
O42 C50 1.315 . S
Cd43 O42 2.223 . S
Cd43 O46 2.297 . S
Cd43 O47 2.439 . S
Cd43 O53 2.240 . S
Cd44 O45 2.240 . S
Cd44 O52 2.223 . S
Cd44 O54 2.297 1_455 S
Cd44 O55 2.439 1_455 S
O45 Cd44 2.240 . S
O45 C50 1.279 . S
O46 Cd43 2.297 . S
O46 C48 1.247 . S
O47 Cd43 2.439 . S
O47 C48 1.208 . S
C48 O46 1.247 . S
C48 O47 1.208 . S
C49 O54 1.247 . S
C49 O55 1.208 . S
C50 O42 1.315 . S
C50 O45 1.279 . S
C51 O52 1.315 . S
C51 O53 1.279 . S
O52 Cd44 2.223 . S
O52 C51 1.315 . S
O53 Cd43 2.240 . S
O53 C51 1.279 . S
O54 Cd44 2.297 1_655 S
O54 C49 1.247 . S
O55 Cd44 2.439 1_655 S
O55 C49 1.208 . S
O56 Cd57 2.223 . S
O56 C64 1.315 . S
Cd57 O56 2.223 . S
Cd57 O60 2.297 . S
Cd57 O61 2.439 . S
Cd57 O67 2.240 . S
Cd58 O59 2.240 . S
Cd58 O66 2.223 . S
Cd58 O68 2.297 . S
Cd58 O69 2.439 . S
O59 Cd58 2.240 . S
O59 C64 1.279 . S
O60 Cd57 2.297 . S
O60 C62 1.247 . S
O61 Cd57 2.439 . S
O61 C62 1.208 . S
C62 O60 1.247 . S
C62 O61 1.208 . S
C63 O68 1.247 . S
C63 O69 1.208 . S
C64 O56 1.315 . S
C64 O59 1.279 . S
C65 O66 1.315 . S
C65 O67 1.279 . S
O66 Cd58 2.223 . S
O66 C65 1.315 . S
O67 Cd57 2.240 . S
O67 C65 1.279 . S
O68 Cd58 2.297 . S
O68 C63 1.247 . S
O69 Cd58 2.439 . S
O69 C63 1.208 . S
O70 Cd71 2.223 . S
O70 C78 1.315 . S
Cd71 O70 2.223 . S
Cd71 O74 2.297 . S
Cd71 O75 2.439 . S
Cd71 O81 2.240 . S
Cd72 O73 2.240 . S
Cd72 O80 2.223 . S
Cd72 O82 2.297 1_455 S
Cd72 O83 2.439 1_455 S
O73 Cd72 2.240 . S
O73 C78 1.279 . S
O74 Cd71 2.297 . S
O74 C76 1.247 . S
O75 Cd71 2.439 . S
O75 C76 1.208 . S
C76 O74 1.247 . S
C76 O75 1.208 . S
C77 O82 1.247 . S
C77 O83 1.208 . S
C78 O70 1.315 . S
C78 O73 1.279 . S
C79 O80 1.315 . S
C79 O81 1.279 . S
O80 Cd72 2.223 . S
O80 C79 1.315 . S
O81 Cd71 2.240 . S
O81 C79 1.279 . S
O82 Cd72 2.297 1_655 S
O82 C77 1.247 . S
O83 Cd72 2.439 1_655 S
O83 C77 1.208 . S
O84 Cd85 2.223 . S
O84 C92 1.315 . S
Cd85 O84 2.223 . S
Cd85 O88 2.297 . S
Cd85 O89 2.439 . S
Cd85 O95 2.240 . S
Cd86 O87 2.240 . S
Cd86 O94 2.223 . S
Cd86 O96 2.297 1_545 S
Cd86 O97 2.439 1_545 S
O87 Cd86 2.240 . S
O87 C92 1.279 . S
O88 Cd85 2.297 . S
O88 C90 1.247 . S
O89 Cd85 2.439 . S
O89 C90 1.208 . S
C90 O88 1.247 . S
C90 O89 1.208 . S
C91 O96 1.247 . S
C91 O97 1.208 . S
C92 O84 1.315 . S
C92 O87 1.279 . S
C93 O94 1.315 . S
C93 O95 1.279 . S
O94 Cd86 2.223 . S
O94 C93 1.315 . S
O95 Cd85 2.240 . S
O95 C93 1.279 . S
O96 Cd86 2.297 1_565 S
O96 C91 1.247 . S
O97 Cd86 2.439 1_565 S
O97 C91 1.208 . S
O98 Cd99 2.223 . S
O98 C106 1.315 . S
Cd99 O98 2.223 . S
Cd99 O102 2.297 . S
Cd99 O103 2.439 . S
Cd99 O109 2.240 . S
Cd100 O101 2.240 . S
Cd100 O108 2.223 . S
Cd100 O110 2.297 . S
Cd100 O111 2.439 . S
O101 Cd100 2.240 . S
O101 C106 1.279 . S
O102 Cd99 2.297 . S
O102 C104 1.247 . S
O103 Cd99 2.439 . S
O103 C104 1.208 . S
C104 O102 1.247 . S
C104 O103 1.208 . S
C105 O110 1.247 . S
C105 O111 1.208 . S
C106 O98 1.315 . S
C106 O101 1.279 . S
C107 O108 1.315 . S
C107 O109 1.279 . S
O108 Cd100 2.223 . S
O108 C107 1.315 . S
O109 Cd99 2.240 . S
O109 C107 1.279 . S
O110 Cd100 2.297 . S
O110 C105 1.247 . S
O111 Cd100 2.439 . S
O111 C105 1.208 . S
C112 C113 1.386 . S
C112 C114 1.383 . S
C112 H128 0.951 . S
C113 C112 1.386 . S
C113 C117 1.383 . S
C114 C112 1.383 . S
C114 C115 1.402 . S
C114 H129 0.951 . S
C115 C114 1.402 . S
C115 C116 1.375 . S
C115 C118 1.481 . S
C116 C115 1.375 . S
C116 C117 1.367 . S
C116 H130 0.951 . S
C117 C113 1.383 . S
C117 C116 1.367 . S
C117 H131 0.950 . S
C118 C115 1.481 . S
C118 C119 1.297 1_554 S
C118 H132 0.950 . S
C119 C118 1.297 1_556 S
C119 C120 1.479 . S
C119 H133 0.950 . S
C120 C119 1.479 . S
C120 C121 1.375 . S
C120 C126 1.404 . S
C121 C120 1.375 . S
C121 C122 1.369 . S
C121 H134 0.950 . S
C122 C121 1.369 . S
C122 C123 1.392 . S
C122 H135 0.951 . S
C123 C122 1.392 . S
C123 C125 1.384 . S
H124 C126 0.949 1_565 S
C125 C123 1.384 . S
C125 C126 1.385 . S
C125 H127 0.950 1_545 S
C126 C120 1.404 . S
C126 H124 0.949 1_545 S
C126 C125 1.385 . S
H127 C125 0.950 1_565 S
H128 C112 0.951 . S
H129 C114 0.951 . S
H130 C116 0.951 . S
H131 C117 0.950 . S
H132 C118 0.950 . S
H133 C119 0.950 . S
H134 C121 0.950 . S
H135 C122 0.951 . S
C136 C137 1.386 . S
C136 C138 1.383 . S
C136 H152 0.951 . S
C137 C136 1.386 . S
C137 C141 1.383 . S
C138 C136 1.383 . S
C138 C139 1.402 . S
C138 H153 0.951 . S
C139 C138 1.402 . S
C139 C140 1.375 . S
C139 C142 1.481 . S
C140 C139 1.375 . S
C140 C141 1.367 . S
C140 H154 0.951 1_455 S
C141 C137 1.383 . S
C141 C140 1.367 . S
C141 H155 0.950 1_455 S
C142 C139 1.481 . S
C142 C143 1.297 . S
C142 H156 0.950 . S
C143 C142 1.297 . S
C143 C144 1.479 . S
C143 H157 0.950 . S
C144 C143 1.479 . S
C144 C145 1.375 . S
C144 C150 1.404 . S
C145 C144 1.375 . S
C145 C146 1.369 . S
C145 H158 0.950 . S
C146 C145 1.369 . S
C146 C147 1.392 . S
C146 H159 0.951 . S
C147 C146 1.392 . S
C147 C149 1.384 . S
H148 C150 0.948 . S
C149 C147 1.384 . S
C149 C150 1.385 . S
C149 H151 0.950 . S
C150 C144 1.404 . S
C150 H148 0.948 . S
C150 C149 1.385 . S
H151 C149 0.950 . S
H152 C136 0.951 . S
H153 C138 0.951 . S
H154 C140 0.951 1_655 S
H155 C141 0.950 1_655 S
H156 C142 0.950 . S
H157 C143 0.950 . S
H158 C145 0.950 . S
H159 C146 0.951 . S
C160 C161 1.386 . S
C160 C162 1.383 . S
C160 H176 0.951 . S
C161 C160 1.386 . S
C161 C165 1.383 . S
C162 C160 1.383 . S
C162 C163 1.402 . S
C162 H177 0.951 . S
C163 C162 1.402 . S
C163 C164 1.375 . S
C163 C166 1.481 . S
C164 C163 1.375 . S
C164 C165 1.367 . S
C164 H178 0.951 . S
C165 C161 1.383 . S
C165 C164 1.367 . S
C165 H179 0.950 . S
C166 C163 1.481 . S
C166 C167 1.297 1_556 S
C166 H180 0.950 . S
C167 C166 1.297 1_554 S
C167 C168 1.479 . S
C167 H181 0.950 . S
C168 C167 1.479 . S
C168 C169 1.375 . S
C168 C174 1.404 . S
C169 C168 1.375 . S
C169 C170 1.369 . S
C169 H182 0.950 . S
C170 C169 1.369 . S
C170 C171 1.392 . S
C170 H183 0.951 . S
C171 C170 1.392 . S
C171 C173 1.384 . S
H172 C174 0.949 . S
C173 C171 1.384 . S
C173 C174 1.385 . S
C173 H175 0.950 . S
C174 C168 1.404 . S
C174 H172 0.949 . S
C174 C173 1.385 . S
H175 C173 0.950 . S
H176 C160 0.951 . S
H177 C162 0.951 . S
H178 C164 0.951 . S
H179 C165 0.950 . S
H180 C166 0.950 . S
H181 C167 0.950 . S
H182 C169 0.950 . S
H183 C170 0.951 . S
C184 C185 1.386 . S
C184 C186 1.383 . S
C184 H200 0.951 . S
C185 C184 1.386 . S
C185 C189 1.383 . S
C186 C184 1.383 . S
C186 C187 1.402 . S
C186 H201 0.951 . S
C187 C186 1.402 . S
C187 C188 1.375 . S
C187 C190 1.481 . S
C188 C187 1.375 . S
C188 C189 1.367 . S
C188 H202 0.938 1_455 S
C189 C185 1.383 . S
C189 C188 1.367 . S
C189 H203 0.951 . S
C190 C187 1.481 . S
C190 C191 1.297 . S
C190 H204 0.950 . S
C191 C190 1.297 . S
C191 C192 1.479 . S
C191 H205 0.950 . S
C192 C191 1.479 . S
C192 C193 1.375 . S
C192 C198 1.404 . S
C193 C192 1.375 . S
C193 C194 1.369 . S
C193 H206 0.950 . S
C194 C193 1.369 . S
C194 C195 1.392 . S
C194 H207 0.951 . S
C195 C194 1.392 . S
C195 C197 1.384 . S
H196 C198 0.949 . S
C197 C195 1.384 . S
C197 C198 1.385 . S
C197 H199 0.950 . S
C198 C192 1.404 . S
C198 H196 0.949 . S
C198 C197 1.385 . S
H199 C197 0.950 . S
H200 C184 0.951 . S
H201 C186 0.951 . S
H202 C188 0.938 1_655 S
H203 C189 0.951 . S
H204 C190 0.950 . S
H205 C191 0.950 . S
H206 C193 0.950 . S
H207 C194 0.951 . S
C208 C209 1.386 . S
C208 C210 1.383 . S
C208 H224 0.951 . S
C209 C208 1.386 . S
C209 C213 1.383 . S
C210 C208 1.383 . S
C210 C211 1.402 . S
C210 H225 0.951 . S
C211 C210 1.402 . S
C211 C212 1.375 . S
C211 C214 1.481 . S
C212 C211 1.375 . S
C212 C213 1.367 . S
C212 H226 0.951 . S
C213 C209 1.383 . S
C213 C212 1.367 . S
C213 H227 0.950 . S
C214 C211 1.481 . S
C214 C215 1.297 . S
C214 H228 0.950 . S
C215 C214 1.297 . S
C215 C216 1.479 . S
C215 H229 0.950 . S
C216 C215 1.479 . S
C216 C217 1.375 . S
C216 C222 1.404 . S
C217 C216 1.375 . S
C217 C218 1.369 . S
C217 H230 0.950 . S
C218 C217 1.369 . S
C218 C219 1.392 . S
C218 H231 0.951 . S
C219 C218 1.392 . S
C219 C221 1.384 . S
H220 C222 0.949 . S
C221 C219 1.384 . S
C221 C222 1.385 . S
C221 H223 0.950 . S
C222 C216 1.404 . S
C222 H220 0.949 . S
C222 C221 1.385 . S
H223 C221 0.950 . S
H224 C208 0.951 . S
H225 C210 0.951 . S
H226 C212 0.951 . S
H227 C213 0.950 . S
H228 C214 0.950 . S
H229 C215 0.950 . S
H230 C217 0.950 . S
H231 C218 0.951 . S
C232 C233 1.386 . S
C232 C234 1.383 . S
C232 H248 0.951 . S
C233 C232 1.386 . S
C233 C237 1.383 . S
C234 C232 1.383 . S
C234 C235 1.402 . S
C234 H249 0.951 . S
C235 C234 1.402 . S
C235 C236 1.375 . S
C235 C238 1.481 . S
C236 C235 1.375 . S
C236 C237 1.367 . S
C236 H250 0.984 . S
C237 C233 1.383 . S
C237 C236 1.367 . S
C237 H251 0.950 . S
C238 C235 1.481 . S
C238 C239 1.297 . S
C238 H252 0.950 . S
C239 C238 1.297 . S
C239 C240 1.479 . S
C239 H253 0.950 . S
C240 C239 1.479 . S
C240 C241 1.375 . S
C240 C246 1.404 . S
C241 C240 1.375 . S
C241 C242 1.369 . S
C241 H254 0.950 . S
C242 C241 1.369 . S
C242 C243 1.392 . S
C242 H255 0.951 . S
C243 C242 1.392 . S
C243 C245 1.384 . S
H244 C246 0.949 . S
C245 C243 1.384 . S
C245 C246 1.385 . S
C245 H247 0.950 1_455 S
C246 C240 1.404 . S
C246 H244 0.949 . S
C246 C245 1.385 . S
H247 C245 0.950 1_655 S
H248 C232 0.951 . S
H249 C234 0.951 . S
H250 C236 0.984 . S
H251 C237 0.950 . S
H252 C238 0.950 . S
H253 C239 0.950 . S
H254 C241 0.950 . S
H255 C242 0.951 . S
C256 C257 1.386 . S
C256 C258 1.383 . S
C256 H272 0.938 1_545 S
C257 C256 1.386 . S
C257 C261 1.383 . S
C258 C256 1.383 . S
C258 C259 1.402 . S
C258 H273 0.951 . S
C259 C258 1.402 . S
C259 C260 1.375 . S
C259 C262 1.481 . S
C260 C259 1.375 . S
C260 C261 1.367 . S
C260 H274 0.951 . S
C261 C257 1.383 . S
C261 C260 1.367 . S
C261 H275 0.950 . S
C262 C259 1.481 . S
C262 C263 1.297 . S
C262 H276 0.950 . S
C263 C262 1.297 . S
C263 C264 1.479 . S
C263 H277 0.950 . S
C264 C263 1.479 . S
C264 C265 1.375 . S
C264 C270 1.404 . S
C265 C264 1.375 . S
C265 C266 1.369 . S
C265 H278 0.950 . S
C266 C265 1.369 . S
C266 C267 1.392 . S
C266 H279 0.951 . S
C267 C266 1.392 . S
C267 C269 1.384 . S
H268 C270 0.949 . S
C269 C267 1.384 . S
C269 C270 1.385 . S
C269 H271 0.950 . S
C270 C264 1.404 . S
C270 H268 0.949 . S
C270 C269 1.385 . S
H271 C269 0.950 . S
H272 C256 0.938 1_565 S
H273 C258 0.951 . S
H274 C260 0.951 . S
H275 C261 0.950 . S
H276 C262 0.950 . S
H277 C263 0.950 . S
H278 C265 0.950 . S
H279 C266 0.951 . S
C280 C281 1.386 . S
C280 C282 1.383 . S
C280 H296 0.951 . S
C281 C280 1.386 . S
C281 C285 1.383 . S
C282 C280 1.383 . S
C282 C283 1.402 . S
C282 H297 0.951 . S
C283 C282 1.402 . S
C283 C284 1.375 . S
C283 C286 1.481 . S
C284 C283 1.375 . S
C284 C285 1.367 . S
C284 H298 0.951 . S
C285 C281 1.383 . S
C285 C284 1.367 . S
C285 H299 0.950 . S
C286 C283 1.481 . S
C286 C287 1.297 . S
C286 H300 0.950 . S
C287 C286 1.297 . S
C287 C288 1.479 . S
C287 H301 0.950 . S
C288 C287 1.479 . S
C288 C289 1.375 . S
C288 C294 1.404 . S
C289 C288 1.375 . S
C289 C290 1.369 . S
C289 H302 0.950 . S
C290 C289 1.369 . S
C290 C291 1.392 . S
C290 H303 0.951 . S
C291 C290 1.392 . S
C291 C293 1.384 . S
H292 C294 0.949 . S
C293 C291 1.384 . S
C293 C294 1.385 . S
C293 H295 0.950 . S
C294 C288 1.404 . S
C294 H292 0.949 . S
C294 C293 1.385 . S
H295 C293 0.950 . S
H296 C280 0.951 . S
H297 C282 0.951 . S
H298 C284 0.951 . S
H299 C285 0.950 . S
H300 C286 0.950 . S
H301 C287 0.950 . S
H302 C289 0.950 . S
H303 C290 0.951 . S
C304 C305 1.386 . S
C304 C306 1.383 . S
C304 H320 0.951 . S
C305 C304 1.386 . S
C305 C309 1.383 . S
C306 C304 1.383 . S
C306 C307 1.402 . S
C306 H321 0.951 . S
C307 C306 1.402 . S
C307 C308 1.375 . S
C307 C310 1.481 . S
C308 C307 1.375 . S
C308 C309 1.367 . S
C308 H322 0.951 . S
C309 C305 1.383 . S
C309 C308 1.367 . S
C309 H323 0.950 . S
C310 C307 1.481 . S
C310 C311 1.297 . S
C310 H324 0.950 . S
C311 C310 1.297 . S
C311 C312 1.479 . S
C311 H325 0.950 . S
C312 C311 1.479 . S
C312 C313 1.375 . S
C312 C318 1.404 . S
C313 C312 1.375 . S
C313 C314 1.369 . S
C313 H326 0.950 . S
C314 C313 1.369 . S
C314 C315 1.392 . S
C314 H327 0.951 . S
C315 C314 1.392 . S
C315 C317 1.384 . S
H316 C318 0.949 . S
C317 C315 1.384 . S
C317 C318 1.385 . S
C317 H319 0.950 . S
C318 C312 1.404 . S
C318 H316 0.949 . S
C318 C317 1.385 . S
H319 C317 0.950 . S
H320 C304 0.951 . S
H321 C306 0.951 . S
H322 C308 0.951 . S
H323 C309 0.950 . S
H324 C310 0.950 . S
H325 C311 0.950 . S
H326 C313 0.950 . S
H327 C314 0.951 . S
C328 C329 1.386 . S
C328 C330 1.383 . S
C328 H344 0.951 . S
C329 C328 1.386 . S
C329 C333 1.383 . S
C330 C328 1.383 . S
C330 C331 1.402 . S
C330 H345 0.951 . S
C331 C330 1.402 . S
C331 C332 1.375 . S
C331 C334 1.481 . S
C332 C331 1.375 . S
C332 C333 1.367 . S
C332 H346 0.951 . S
C333 C329 1.383 . S
C333 C332 1.367 . S
C333 H347 0.950 . S
C334 C331 1.481 . S
C334 C335 1.297 . S
C334 H348 0.950 . S
C335 C334 1.297 . S
C335 C336 1.479 . S
C335 H349 0.950 . S
C336 C335 1.479 . S
C336 C337 1.375 . S
C336 C342 1.404 . S
C337 C336 1.375 . S
C337 C338 1.369 . S
C337 H350 0.950 . S
C338 C337 1.369 . S
C338 C339 1.392 . S
C338 H351 0.951 . S
C339 C338 1.392 . S
C339 C341 1.384 . S
H340 C342 0.949 . S
C341 C339 1.384 . S
C341 C342 1.385 . S
C341 H343 0.950 . S
C342 C336 1.404 . S
C342 H340 0.949 . S
C342 C341 1.385 . S
H343 C341 0.950 . S
H344 C328 0.951 . S
H345 C330 0.951 . S
H346 C332 0.951 . S
H347 C333 0.950 . S
H348 C334 0.950 . S
H349 C335 0.950 . S
H350 C337 0.950 . S
H351 C338 0.951 . S
C352 C353 1.386 . S
C352 C354 1.383 . S
C352 H368 0.951 . S
C353 C352 1.386 . S
C353 C357 1.383 . S
C354 C352 1.383 . S
C354 C355 1.402 . S
C354 H369 0.951 . S
C355 C354 1.402 . S
C355 C356 1.375 . S
C355 C358 1.481 . S
C356 C355 1.375 . S
C356 C357 1.367 . S
C356 H370 0.951 . S
C357 C353 1.383 . S
C357 C356 1.367 . S
C357 H371 0.950 . S
C358 C355 1.481 . S
C358 C359 1.297 . S
C358 H372 0.950 . S
C359 C358 1.297 . S
C359 C360 1.479 . S
C359 H373 0.950 . S
C360 C359 1.479 . S
C360 C361 1.375 . S
C360 C366 1.404 . S
C361 C360 1.375 . S
C361 C362 1.369 . S
C361 H374 0.950 . S
C362 C361 1.369 . S
C362 C363 1.392 . S
C362 H375 0.951 . S
C363 C362 1.392 . S
C363 C365 1.384 . S
H364 C366 0.949 . S
C365 C363 1.384 . S
C365 C366 1.385 . S
C365 H367 0.950 . S
C366 C360 1.404 . S
C366 H364 0.949 . S
C366 C365 1.385 . S
H367 C365 0.950 . S
H368 C352 0.951 . S
H369 C354 0.951 . S
H370 C356 0.951 . S
H371 C357 0.950 . S
H372 C358 0.950 . S
H373 C359 0.950 . S
H374 C361 0.950 . S
H375 C362 0.951 . S
C376 C377 1.386 . S
C376 C378 1.383 . S
C376 H392 0.951 . S
C377 C376 1.386 . S
C377 C381 1.383 . S
C378 C376 1.383 . S
C378 C379 1.402 . S
C378 H393 0.951 . S
C379 C378 1.402 . S
C379 C380 1.375 . S
C379 C382 1.481 . S
C380 C379 1.375 . S
C380 C381 1.367 . S
C380 H394 0.951 . S
C381 C377 1.383 . S
C381 C380 1.367 . S
C381 H395 0.950 . S
C382 C379 1.481 . S
C382 C383 1.297 . S
C382 H396 0.950 . S
C383 C382 1.297 . S
C383 C384 1.479 . S
C383 H397 0.950 . S
C384 C383 1.479 . S
C384 C385 1.375 . S
C384 C390 1.404 . S
C385 C384 1.375 . S
C385 C386 1.369 . S
C385 H398 0.950 . S
C386 C385 1.369 . S
C386 C387 1.392 . S
C386 H399 0.951 . S
C387 C386 1.392 . S
C387 C389 1.384 . S
H388 C390 0.949 . S
C389 C387 1.384 . S
C389 C390 1.385 . S
C389 H391 0.950 . S
C390 C384 1.404 . S
C390 H388 0.949 . S
C390 C389 1.385 . S
H391 C389 0.950 . S
H392 C376 0.951 . S
H393 C378 0.951 . S
H394 C380 0.951 . S
H395 C381 0.950 . S
H396 C382 0.950 . S
H397 C383 0.950 . S
H398 C385 0.950 . S
H399 C386 0.951 . S
C400 C401 1.386 . S
C400 C402 1.383 . S
C400 H416 0.951 . S
C401 C400 1.386 . S
C401 C405 1.383 . S
C402 C400 1.383 . S
C402 C403 1.402 . S
C402 H417 0.951 . S
C403 C402 1.402 . S
C403 C404 1.375 . S
C403 C406 1.481 . S
C404 C403 1.375 . S
C404 C405 1.367 . S
C404 H418 0.951 . S
C405 C401 1.383 . S
C405 C404 1.367 . S
C405 H419 0.950 . S
C406 C403 1.481 . S
C406 C407 1.297 . S
C406 H420 0.950 . S
C407 C406 1.297 . S
C407 C408 1.479 . S
C407 H421 0.950 . S
C408 C407 1.479 . S
C408 C409 1.375 . S
C408 C414 1.404 . S
C409 C408 1.375 . S
C409 C410 1.369 . S
C409 H422 0.950 . S
C410 C409 1.369 . S
C410 C411 1.392 . S
C410 H423 0.951 . S
C411 C410 1.392 . S
C411 C413 1.384 . S
H412 C414 0.949 . S
C413 C411 1.384 . S
C413 C414 1.385 . S
C413 H415 0.950 . S
C414 C408 1.404 . S
C414 H412 0.949 . S
C414 C413 1.385 . S
H415 C413 0.950 . S
H416 C400 0.951 . S
H417 C402 0.951 . S
H418 C404 0.951 . S
H419 C405 0.950 . S
H420 C406 0.950 . S
H421 C407 0.950 . S
H422 C409 0.950 . S
H423 C410 0.951 . S
C424 C425 1.386 . S
C424 C426 1.383 . S
C424 H440 0.951 . S
C425 C424 1.386 . S
C425 C429 1.383 . S
C426 C424 1.383 . S
C426 C427 1.402 . S
C426 H441 0.951 . S
C427 C426 1.402 . S
C427 C428 1.375 . S
C427 C430 1.481 . S
C428 C427 1.375 . S
C428 C429 1.367 . S
C428 H442 0.951 . S
C429 C425 1.383 . S
C429 C428 1.367 . S
C429 H443 0.950 . S
C430 C427 1.481 . S
C430 C431 1.297 . S
C430 H444 0.950 . S
C431 C430 1.297 . S
C431 C432 1.479 . S
C431 H445 0.950 . S
C432 C431 1.479 . S
C432 C433 1.375 . S
C432 C438 1.404 . S
C433 C432 1.375 . S
C433 C434 1.369 . S
C433 H446 0.950 . S
C434 C433 1.369 . S
C434 C435 1.392 . S
C434 H447 0.951 . S
C435 C434 1.392 . S
C435 C437 1.384 . S
H436 C438 0.949 . S
C437 C435 1.384 . S
C437 C438 1.385 . S
C437 H439 0.950 . S
C438 C432 1.404 . S
C438 H436 0.949 . S
C438 C437 1.385 . S
H439 C437 0.950 . S
H440 C424 0.951 . S
H441 C426 0.951 . S
H442 C428 0.951 . S
H443 C429 0.950 . S
H444 C430 0.950 . S
H445 C431 0.950 . S
H446 C433 0.950 . S
H447 C434 0.951 . S
C448 C449 1.386 . S
C448 C450 1.383 . S
C448 H464 0.951 . S
C449 C448 1.386 . S
C449 C453 1.383 . S
C450 C448 1.383 . S
C450 C451 1.402 . S
C450 H465 0.951 . S
C451 C450 1.402 . S
C451 C452 1.375 . S
C451 C454 1.481 . S
C452 C451 1.375 . S
C452 C453 1.367 . S
C452 H466 0.951 . S
C453 C449 1.383 . S
C453 C452 1.367 . S
C453 H467 0.950 . S
C454 C451 1.481 . S
C454 C455 1.297 . S
C454 H468 0.950 . S
C455 C454 1.297 . S
C455 C456 1.479 . S
C455 H469 0.950 . S
C456 C455 1.479 . S
C456 C457 1.375 . S
C456 C462 1.404 . S
C457 C456 1.375 . S
C457 C458 1.369 . S
C457 H470 0.950 . S
C458 C457 1.369 . S
C458 C459 1.392 . S
C458 H471 0.951 . S
C459 C458 1.392 . S
C459 C461 1.384 . S
H460 C462 0.949 . S
C461 C459 1.384 . S
C461 C462 1.385 . S
C461 H463 0.950 . S
C462 C456 1.404 . S
C462 H460 0.949 . S
C462 C461 1.385 . S
H463 C461 0.950 . S
H464 C448 0.951 . S
H465 C450 0.951 . S
H466 C452 0.951 . S
H467 C453 0.950 . S
H468 C454 0.950 . S
H469 C455 0.950 . S
H470 C457 0.950 . S
H471 C458 0.951 . S
C472 C473 1.386 . S
C472 C474 1.383 . S
C472 H488 0.951 . S
C473 C472 1.386 . S
C473 C477 1.383 . S
C474 C472 1.383 . S
C474 C475 1.402 . S
C474 H489 0.951 . S
C475 C474 1.402 . S
C475 C476 1.375 . S
C475 C478 1.481 . S
C476 C475 1.375 . S
C476 C477 1.367 . S
C476 H490 0.951 . S
C477 C473 1.383 . S
C477 C476 1.367 . S
C477 H491 0.950 . S
C478 C475 1.481 . S
C478 C479 1.297 . S
C478 H492 0.950 . S
C479 C478 1.297 . S
C479 C480 1.479 . S
C479 H493 0.950 . S
C480 C479 1.479 . S
C480 C481 1.375 . S
C480 C486 1.404 . S
C481 C480 1.375 . S
C481 C482 1.369 . S
C481 H494 0.950 . S
C482 C481 1.369 . S
C482 C483 1.392 . S
C482 H495 0.951 . S
C483 C482 1.392 . S
C483 C485 1.384 . S
H484 C486 0.949 . S
C485 C483 1.384 . S
C485 C486 1.385 . S
C485 H487 0.950 . S
C486 C480 1.404 . S
C486 H484 0.949 . S
C486 C485 1.385 . S
H487 C485 0.950 . S
H488 C472 0.951 . S
H489 C474 0.951 . S
H490 C476 0.951 . S
H491 C477 0.950 . S
H492 C478 0.950 . S
H493 C479 0.950 . S
H494 C481 0.950 . S
H495 C482 0.951 . S
C113 C8 1.691 . S
C123 C64 1.681 . S
C137 C22 1.700 . S
C147 C78 1.694 . S
C161 C92 1.697 . S
C171 C36 1.690 . S
C185 C106 1.696 . S
C195 C50 1.689 . S
C209 C6 1.276 . S
C219 C34 1.186 . S
C233 C20 1.238 . S
C243 C48 1.209 . S
C257 C90 1.258 . S
C267 C62 1.189 . S
C281 C76 1.282 . S
C291 C104 1.190 . S
C305 C79 2.129 . S
C315 C9 2.129 . S
C329 C23 2.111 1_655 S
C339 C93 2.096 . S
C353 C107 2.098 1_655 S
C363 C37 2.077 1_565 S
C377 C51 2.103 . S
C387 C65 2.084 1_565 S
C401 C91 0.779 . S
C411 C49 0.912 . S
C425 C7 0.883 . S
C435 C105 0.868 . S
C449 C21 0.882 . S
C459 C63 0.809 . S
C473 C77 0.879 . S
C483 C35 0.793 . S
