# Generated by pormake.
# Topology whk, (6)-cn, num edge types: 1
# Building blocks:
#     Node 0, Type 0, BuildingBlock: VOLQOD_clean_sbu_1, # of connection points: 6
#     Node 1, Type 0, BuildingBlock: VOLQOD_clean_sbu_1, # of connection points: 6
#     Node 2, Type 0, BuildingBlock: VOLQOD_clean_sbu_1, # of connection points: 6
#     Node 3, Type 0, BuildingBlock: VOLQOD_clean_sbu_1, # of connection points: 6
#     Node 4, Type 0, BuildingBlock: VOLQOD_clean_sbu_1, # of connection points: 6
#     Node 5, Type 0, BuildingBlock: VOLQOD_clean_sbu_1, # of connection points: 6
#     Node 6, Type 0, BuildingBlock: VOLQOD_clean_sbu_1, # of connection points: 6
#     Node 7, Type 0, BuildingBlock: VOLQOD_clean_sbu_1, # of connection points: 6
#     Node 8, Type 0, BuildingBlock: VOLQOD_clean_sbu_1, # of connection points: 6
#     Node 9, Type 0, BuildingBlock: VOLQOD_clean_sbu_1, # of connection points: 6
#     Node 10, Type 0, BuildingBlock: VOLQOD_clean_sbu_1, # of connection points: 6
#     Node 11, Type 0, BuildingBlock: VOLQOD_clean_sbu_1, # of connection points: 6
#     Node 12, Type 0, BuildingBlock: VOLQOD_clean_sbu_1, # of connection points: 6
#     Node 13, Type 0, BuildingBlock: VOLQOD_clean_sbu_1, # of connection points: 6
#     Node 14, Type 0, BuildingBlock: VOLQOD_clean_sbu_1, # of connection points: 6
#     Node 15, Type 0, BuildingBlock: VOLQOD_clean_sbu_1, # of connection points: 6
#     Edge 16, Type (0, 0), BuildingBlock: CIFDUS_clean_linker_0, # of connection points: 2
#     Edge 17, Type (0, 0), BuildingBlock: CIFDUS_clean_linker_0, # of connection points: 2
#     Edge 18, Type (0, 0), BuildingBlock: CIFDUS_clean_linker_0, # of connection points: 2
#     Edge 19, Type (0, 0), BuildingBlock: CIFDUS_clean_linker_0, # of connection points: 2
#     Edge 20, Type (0, 0), BuildingBlock: CIFDUS_clean_linker_0, # of connection points: 2
#     Edge 21, Type (0, 0), BuildingBlock: CIFDUS_clean_linker_0, # of connection points: 2
#     Edge 22, Type (0, 0), BuildingBlock: CIFDUS_clean_linker_0, # of connection points: 2
#     Edge 23, Type (0, 0), BuildingBlock: CIFDUS_clean_linker_0, # of connection points: 2
#     Edge 24, Type (0, 0), BuildingBlock: CIFDUS_clean_linker_0, # of connection points: 2
#     Edge 25, Type (0, 0), BuildingBlock: CIFDUS_clean_linker_0, # of connection points: 2
#     Edge 26, Type (0, 0), BuildingBlock: CIFDUS_clean_linker_0, # of connection points: 2
#     Edge 27, Type (0, 0), BuildingBlock: CIFDUS_clean_linker_0, # of connection points: 2
#     Edge 28, Type (0, 0), BuildingBlock: CIFDUS_clean_linker_0, # of connection points: 2
#     Edge 29, Type (0, 0), BuildingBlock: CIFDUS_clean_linker_0, # of connection points: 2
#     Edge 30, Type (0, 0), BuildingBlock: CIFDUS_clean_linker_0, # of connection points: 2
#     Edge 31, Type (0, 0), BuildingBlock: CIFDUS_clean_linker_0, # of connection points: 2
#     Edge 32, Type (0, 0), BuildingBlock: CIFDUS_clean_linker_0, # of connection points: 2
#     Edge 33, Type (0, 0), BuildingBlock: CIFDUS_clean_linker_0, # of connection points: 2
#     Edge 34, Type (0, 0), BuildingBlock: CIFDUS_clean_linker_0, # of connection points: 2
#     Edge 35, Type (0, 0), BuildingBlock: CIFDUS_clean_linker_0, # of connection points: 2
#     Edge 36, Type (0, 0), BuildingBlock: CIFDUS_clean_linker_0, # of connection points: 2
#     Edge 37, Type (0, 0), BuildingBlock: CIFDUS_clean_linker_0, # of connection points: 2
#     Edge 38, Type (0, 0), BuildingBlock: CIFDUS_clean_linker_0, # of connection points: 2
#     Edge 39, Type (0, 0), BuildingBlock: CIFDUS_clean_linker_0, # of connection points: 2
#     Edge 40, Type (0, 0), BuildingBlock: CIFDUS_clean_linker_0, # of connection points: 2
#     Edge 41, Type (0, 0), BuildingBlock: CIFDUS_clean_linker_0, # of connection points: 2
#     Edge 42, Type (0, 0), BuildingBlock: CIFDUS_clean_linker_0, # of connection points: 2
#     Edge 43, Type (0, 0), BuildingBlock: CIFDUS_clean_linker_0, # of connection points: 2
#     Edge 44, Type (0, 0), BuildingBlock: CIFDUS_clean_linker_0, # of connection points: 2
#     Edge 45, Type (0, 0), BuildingBlock: CIFDUS_clean_linker_0, # of connection points: 2
#     Edge 46, Type (0, 0), BuildingBlock: CIFDUS_clean_linker_0, # of connection points: 2
#     Edge 47, Type (0, 0), BuildingBlock: CIFDUS_clean_linker_0, # of connection points: 2
#     Edge 48, Type (0, 0), BuildingBlock: CIFDUS_clean_linker_0, # of connection points: 2
#     Edge 49, Type (0, 0), BuildingBlock: CIFDUS_clean_linker_0, # of connection points: 2
#     Edge 50, Type (0, 0), BuildingBlock: CIFDUS_clean_linker_0, # of connection points: 2
#     Edge 51, Type (0, 0), BuildingBlock: CIFDUS_clean_linker_0, # of connection points: 2
#     Edge 52, Type (0, 0), BuildingBlock: CIFDUS_clean_linker_0, # of connection points: 2
#     Edge 53, Type (0, 0), BuildingBlock: CIFDUS_clean_linker_0, # of connection points: 2
#     Edge 54, Type (0, 0), BuildingBlock: CIFDUS_clean_linker_0, # of connection points: 2
#     Edge 55, Type (0, 0), BuildingBlock: CIFDUS_clean_linker_0, # of connection points: 2
#     Edge 56, Type (0, 0), BuildingBlock: CIFDUS_clean_linker_0, # of connection points: 2
#     Edge 57, Type (0, 0), BuildingBlock: CIFDUS_clean_linker_0, # of connection points: 2
#     Edge 58, Type (0, 0), BuildingBlock: CIFDUS_clean_linker_0, # of connection points: 2
#     Edge 59, Type (0, 0), BuildingBlock: CIFDUS_clean_linker_0, # of connection points: 2
#     Edge 60, Type (0, 0), BuildingBlock: CIFDUS_clean_linker_0, # of connection points: 2
#     Edge 61, Type (0, 0), BuildingBlock: CIFDUS_clean_linker_0, # of connection points: 2
#     Edge 62, Type (0, 0), BuildingBlock: CIFDUS_clean_linker_0, # of connection points: 2
#     Edge 63, Type (0, 0), BuildingBlock: CIFDUS_clean_linker_0, # of connection points: 2
# Relax obj value: 0.404
# Max RMSD: 0.246
# Mean RMSD: 0.242
data_MOF--net-whk--node1-VOLQOD_clean_sbu_1--edge1-CIFDUS_clean_linker_0
_symmetry_space_group_name_H-M    P1
_symmetry_Int_Tables_number       1
_symmetry_cell_setting            triclinic
loop_
_symmetry_equiv_pos_as_xyz
'x, y, z'
_cell_length_a     33.438483
_cell_length_b     33.274078
_cell_length_c     48.702021
_cell_angle_alpha  89.857948
_cell_angle_beta   90.214945
_cell_angle_gamma 89.922551
loop_
_atom_site_label
_atom_site_type_symbol
_atom_site_fract_x
_atom_site_fract_y
_atom_site_fract_z
_atom_type_partial_charge
O0 O 0.5749 0.22106 0.44604 0.0
Zn1 Zn 0.57197 0.2073 0.4063 0.0
O2 O 0.55058 0.15496 0.40027 0.0
Zn3 Zn 0.59165 0.11886 0.38788 0.0
Zn4 Zn 0.52909 0.13661 0.43483 0.0
Zn5 Zn 0.51156 0.15863 0.37106 0.0
O6 O 0.57448 0.08817 0.35425 0.0
O7 O 0.53297 0.13315 0.33583 0.0
O8 O 0.62404 0.21374 0.38729 0.0
O9 O 0.63763 0.15111 0.37468 0.0
O10 O 0.61281 0.08471 0.41918 0.0
O11 O 0.56822 0.09695 0.45186 0.0
O12 O 0.47469 0.11176 0.42728 0.0
O13 O 0.5342 0.2483 0.3929 0.0
O14 O 0.46521 0.12592 0.38291 0.0
O15 O 0.49042 0.21618 0.36673 0.0
C16 C 0.54945 0.21281 0.4646 0.0
C17 C 0.55524 0.10202 0.33358 0.0
C18 C 0.60035 0.08 0.4437 0.0
C19 C 0.64639 0.18823 0.37538 0.0
C20 C 0.45375 0.10983 0.40527 0.0
C21 C 0.5029 0.24833 0.37814 0.0
O22 O 0.52552 0.18312 0.46222 0.0
O23 O 0.2698 0.57472 0.44068 0.0
Zn24 Zn 0.27933 0.56605 0.40123 0.0
O25 O 0.33233 0.5472 0.39669 0.0
Zn26 Zn 0.36449 0.59096 0.38445 0.0
Zn27 Zn 0.35046 0.52753 0.43192 0.0
Zn28 Zn 0.3311 0.50631 0.36918 0.0
O29 O 0.39839 0.57306 0.3533 0.0
O30 O 0.35705 0.52818 0.3346 0.0
O31 O 0.26823 0.61589 0.37931 0.0
O32 O 0.32987 0.63511 0.36904 0.0
O33 O 0.39556 0.61473 0.41586 0.0
O34 O 0.38402 0.57158 0.44987 0.0
O35 O 0.38184 0.47499 0.4258 0.0
O36 O 0.24086 0.52292 0.39177 0.0
O37 O 0.36621 0.46224 0.38216 0.0
O38 O 0.27521 0.48139 0.36523 0.0
C39 C 0.27252 0.54559 0.45756 0.0
C40 C 0.38721 0.55176 0.33296 0.0
C41 C 0.39929 0.60432 0.44094 0.0
C42 C 0.29221 0.64054 0.36802 0.0
C43 C 0.38427 0.45294 0.40432 0.0
C44 C 0.24294 0.49108 0.37754 0.0
O45 O 0.30061 0.51966 0.45569 0.0
O46 O 0.91999 0.24627 0.44084 0.0
Zn47 Zn 0.92727 0.2617 0.40179 0.0
O48 O 0.95186 0.31306 0.39893 0.0
Zn49 Zn 0.91316 0.35272 0.38684 0.0
Zn50 Zn 0.97334 0.32552 0.43475 0.0
Zn51 Zn -0.00727 0.30879 0.37173 0.0
O52 O 0.93131 0.38061 0.35168 0.0
O53 O 0.97189 0.3328 0.33582 0.0
O54 O 0.87581 0.26007 0.38165 0.0
O55 O 0.86392 0.32476 0.37409 0.0
O56 O 0.89419 0.38658 0.41936 0.0
O57 O 0.93313 0.3628 0.4529 0.0
O58 O 0.02774 0.35383 0.42885 0.0
O59 O 0.96303 0.21854 0.38866 0.0
O60 O 0.0381 0.34261 0.3843 0.0
O61 O 0.01347 0.25096 0.36942 0.0
C62 C 0.94729 0.24681 0.45913 0.0
C63 C 0.95017 0.36406 0.33183 0.0
C64 C 0.90383 0.3846 0.44477 0.0
C65 C 0.85377 0.28811 0.37228 0.0
C66 C 0.04877 0.35812 0.40705 0.0
C67 C -0.00274 0.21831 0.37754 0.0
O68 O 0.97507 0.27334 0.45854 0.0
O69 O 0.14267 0.94623 0.33546 0.0
Zn70 Zn 0.18943 0.93962 0.36163 0.0
O71 O 0.16971 0.93102 0.3989 0.0
Zn72 Zn 0.18065 0.97574 0.42244 0.0
Zn73 Zn 0.11277 0.92133 0.39837 0.0
Zn74 Zn 0.1988 0.88846 0.41495 0.0
O75 O 0.20441 0.96161 0.46012 0.0
O76 O 0.2355 0.90745 0.44444 0.0
O77 O 0.23062 0.98479 0.36171 0.0
O78 O 0.22502 0.00444 0.40512 0.0
O79 O 0.13375 0.01285 0.42185 0.0
O80 O 0.08369 0.97328 0.4084 0.0
O81 O 0.09857 0.87089 0.42102 0.0
O82 O 0.21825 0.88981 0.3479 0.0
O83 O 0.16041 0.84923 0.42965 0.0
O84 O 0.2301 0.8587 0.38746 0.0
C85 C 0.10937 0.92747 0.33663 0.0
C86 C 0.23191 0.93512 0.46222 0.0
C87 C 0.09714 0.00771 0.41545 0.0
C88 C 0.24228 0.00612 0.38198 0.0
C89 C 0.12271 0.8446 0.43083 0.0
C90 C 0.23402 0.86135 0.36165 0.0
O91 O 0.09685 0.91194 0.35899 0.0
O92 O 0.02802 0.8479 0.18338 0.0
Zn93 Zn 0.03384 0.80649 0.15322 0.0
O94 O 0.04009 0.8346 0.118 0.0
Zn95 Zn 0.00058 0.81709 0.09151 0.0
Zn96 Zn 0.03721 0.89225 0.1222 0.0
Zn97 Zn 0.09088 0.82205 0.1035 0.0
O98 O 0.02448 0.79291 0.05689 0.0
O99 O 0.08483 0.78112 0.07425 0.0
O100 O 0.98896 0.76507 0.1514 0.0
O101 O 0.97169 0.77037 0.10746 0.0
O102 O 0.95857 0.85998 0.08612 0.0
O103 O 0.98057 0.90923 0.11319 0.0
O104 O 0.0796 0.92173 0.09876 0.0
O105 O 0.08453 0.7759 0.16384 0.0
O106 O 0.11855 0.86972 0.08851 0.0
O107 O 0.12574 0.79922 0.13194 0.0
C108 C 0.03882 0.88474 0.18406 0.0
C109 C 0.05798 0.77453 0.05627 0.0
C110 C 0.95337 0.89359 0.09819 0.0
C111 C 0.96878 0.75308 0.13067 0.0
C112 C 0.1111 0.9071 0.08783 0.0
C113 C 0.11949 0.77991 0.15398 0.0
O114 O 0.04653 0.90437 0.16216 0.0
O115 O 0.63396 0.03374 0.17555 0.0
Zn116 Zn 0.67606 0.04355 0.14664 0.0
O117 O 0.65204 0.04627 0.11045 0.0
Zn118 Zn 0.66464 -0.0012 0.08994 0.0
Zn119 Zn 0.59514 0.053 0.11446 0.0
Zn120 Zn 0.67568 0.08903 0.09059 0.0
O121 O 0.68142 0.01054 0.05035 0.0
O122 O 0.7112 0.06822 0.06084 0.0
O123 O 0.72412 0.00561 0.14614 0.0
O124 O 0.71474 0.97624 0.10574 0.0
O125 O 0.61975 0.95924 0.09463 0.0
O126 O 0.56929 -0.0014 0.10793 0.0
O127 O 0.57438 0.09779 0.08846 0.0
O128 O 0.69745 0.0978 0.15669 0.0
O129 O 0.63248 0.12235 0.07384 0.0
O130 O 0.70608 0.1251 0.11544 0.0
C131 C 0.60033 0.05204 0.17649 0.0
C132 C 0.70663 0.03823 0.04496 0.0
C133 C 0.58338 0.96404 0.10179 0.0
C134 C 0.73569 0.98174 0.12724 0.0
C135 C 0.59441 0.12328 0.07437 0.0
C136 C 0.70999 0.12597 0.14138 0.0
O137 O 0.58396 0.06613 0.15469 0.0
O138 O 0.40522 0.72568 0.06605 0.0
Zn139 Zn 0.40771 0.71503 0.10602 0.0
O140 O 0.4264 0.66202 0.11287 0.0
Zn141 Zn 0.38285 0.63132 0.12757 0.0
Zn142 Zn 0.44485 0.63802 0.07882 0.0
Zn143 Zn 0.46766 0.66504 0.14055 0.0
O144 O 0.40214 0.59831 0.15881 0.0
O145 O 0.44833 0.63933 0.17607 0.0
O146 O 0.35664 0.72656 0.12537 0.0
O147 O 0.33987 0.6673 0.14277 0.0
O148 O 0.3575 0.59745 0.09848 0.0
O149 O 0.40129 0.60084 0.06437 0.0
O150 O 0.4975 0.60746 0.0865 0.0
O151 O 0.44699 0.75495 0.11874 0.0
O152 O 0.51163 0.62975 0.1285 0.0
O153 O 0.49118 0.72172 0.14404 0.0
C154 C 0.42838 0.71382 0.04701 0.0
C155 C 0.4252 0.60889 0.17834 0.0
C156 C 0.36816 0.58838 0.07421 0.0
C157 C 0.33365 0.70479 0.13987 0.0
C158 C 0.52022 0.60839 0.10774 0.0
C159 C 0.47867 0.75433 0.13311 0.0
O160 O 0.45009 0.68232 0.04958 0.0
O161 O 0.74202 0.41501 0.07978 0.0
Zn162 Zn 0.76128 0.41847 0.1186 0.0
O163 O 0.81197 0.44533 0.12063 0.0
Zn164 Zn 0.8539 0.40809 0.13098 0.0
Zn165 Zn 0.8215 0.46924 0.08499 0.0
Zn166 Zn 0.80903 0.48562 0.14853 0.0
O167 O 0.88119 0.42375 0.16709 0.0
O168 O 0.83499 0.46528 0.18371 0.0
O169 O 0.76336 0.36344 0.13565 0.0
O170 O 0.82906 0.35566 0.14012 0.0
O171 O 0.88846 0.39449 0.09797 0.0
O172 O 0.86032 0.43259 0.06552 0.0
O173 O 0.84538 0.52534 0.09044 0.0
O174 O 0.71861 0.45275 0.13444 0.0
O175 O 0.83991 0.53322 0.13569 0.0
O176 O 0.75149 0.50417 0.15263 0.0
C177 C 0.74298 0.44213 0.06127 0.0
C178 C 0.86589 0.4431 0.18719 0.0
C179 C 0.88464 0.40487 0.0728 0.0
C180 C 0.7937 0.34215 0.14206 0.0
C181 C 0.85138 0.54583 0.1123 0.0
C182 C 0.71886 0.48731 0.14547 0.0
O183 O 0.76977 0.46955 0.06161 0.0
O184 O 0.40035 0.7561 0.58377 0.0
Zn185 Zn 0.4176 0.76563 0.62192 0.0
O186 O 0.4353 0.81894 0.6259 0.0
Zn187 Zn 0.39292 0.85011 0.64139 0.0
Zn188 Zn 0.45065 0.83599 0.58945 0.0
Zn189 Zn 0.47903 0.81713 0.65105 0.0
O190 O 0.41221 0.87886 0.67536 0.0
O191 O 0.46185 0.83805 0.68816 0.0
O192 O 0.37385 0.75212 0.64742 0.0
O193 O 0.34968 0.81315 0.65501 0.0
O194 O 0.36821 0.88558 0.61199 0.0
O195 O 0.40681 0.87332 0.57571 0.0
O196 O 0.50438 0.86588 0.59252 0.0
O197 O 0.46249 0.72829 0.62669 0.0
O198 O 0.5193 0.85436 0.6365 0.0
O199 O 0.50642 0.76255 0.6514 0.0
C200 C 0.42509 0.75848 0.56408 0.0
C201 C 0.43692 0.8661 0.69349 0.0
C202 C 0.37643 0.89033 0.58659 0.0
C203 C 0.34752 0.77512 0.65764 0.0
C204 C 0.52714 0.87061 0.61348 0.0
C205 C 0.49604 0.73073 0.63873 0.0
O206 O 0.45177 0.78608 0.5638 0.0
O207 O 0.7304 0.40846 0.56671 0.0
Zn208 Zn 0.71259 0.41209 0.60577 0.0
O209 O 0.66154 0.43731 0.60949 0.0
Zn210 Zn 0.62179 0.39983 0.62355 0.0
Zn211 Zn 0.64679 0.4584 0.57368 0.0
Zn212 Zn 0.66694 0.47901 0.63627 0.0
O213 O 0.59514 0.41982 0.6588 0.0
O214 O 0.64191 0.46311 0.67209 0.0
O215 O 0.71309 0.35934 0.62439 0.0
O216 O 0.64955 0.34989 0.63599 0.0
O217 O 0.58539 0.38152 0.59245 0.0
O218 O 0.60611 0.42017 0.5579 0.0
O219 O 0.62223 0.51438 0.57862 0.0
O220 O 0.75512 0.44569 0.62161 0.0
O221 O 0.63715 0.52581 0.62252 0.0
O222 O 0.72389 0.49675 0.64117 0.0
C223 C 0.72415 0.43234 0.54666 0.0
C224 C 0.61114 0.44187 0.67732 0.0
C225 C 0.58456 0.39153 0.5671 0.0
C226 C 0.68579 0.33842 0.63556 0.0
C227 C 0.62127 0.53671 0.59996 0.0
C228 C 0.75592 0.47923 0.63387 0.0
O229 O 0.69489 0.45721 0.54695 0.0
O230 O 0.084 0.68618 0.5495 0.0
Zn231 Zn 0.07312 0.69068 0.58948 0.0
O232 O 0.0518 0.6428 0.6034 0.0
Zn233 Zn 0.09325 0.61483 0.62171 0.0
Zn234 Zn 0.03402 0.61502 0.57148 0.0
Zn235 Zn 0.0107 0.65371 0.62933 0.0
O236 O 0.07059 0.58633 0.65364 0.0
O237 O 0.02838 0.63391 0.66745 0.0
O238 O 0.11945 0.70836 0.61161 0.0
O239 O 0.13295 0.65432 0.63681 0.0
O240 O 0.12077 0.57788 0.59562 0.0
O241 O 0.07842 0.57703 0.56027 0.0
O242 O 0.98284 0.58626 0.58086 0.0
O243 O 0.0328 0.73308 0.59283 0.0
O244 O 0.96558 0.61784 0.61939 0.0
O245 O -0.00826 0.71234 0.62568 0.0
C246 C 0.05512 0.67879 0.5332 0.0
C247 C 0.04877 0.60194 0.67214 0.0
C248 C 0.11117 0.56599 0.57164 0.0
C249 C 0.13918 0.69093 0.63054 0.0
C250 C 0.9587 0.59196 0.60075 0.0
C251 C 0.003 0.73898 0.60835 0.0
O252 O 0.02655 0.65574 0.54041 0.0
O253 O 0.7655 0.0633 0.56797 0.0
Zn254 Zn 0.77518 0.05834 0.60798 0.0
O255 O 0.82708 0.0371 0.61606 0.0
Zn256 Zn 0.86137 0.07763 0.63208 0.0
Zn257 Zn 0.84928 0.01725 0.58186 0.0
Zn258 Zn 0.82 -0.00336 0.64377 0.0
O259 O 0.88665 0.05994 0.66809 0.0
O260 O 0.841 0.01514 0.68065 0.0
O261 O 0.76694 0.11005 0.62713 0.0
O262 O 0.82757 0.12403 0.64323 0.0
O263 O 0.89945 0.09966 0.60359 0.0
O264 O 0.8895 0.05905 0.56799 0.0
O265 O 0.87379 0.96141 0.58971 0.0
O266 O 0.7324 0.02062 0.61892 0.0
O267 O 0.85176 0.94995 0.63223 0.0
O268 O 0.76299 0.97684 0.64607 0.0
C269 C 0.77533 0.03876 0.54917 0.0
C270 C 0.87024 0.03821 0.68654 0.0
C271 C 0.90587 0.09013 0.57862 0.0
C272 C 0.79073 0.1326 0.64046 0.0
C273 C 0.87099 0.93895 0.61107 0.0
C274 C 0.73164 0.98941 0.63386 0.0
O275 O 0.805 0.0148 0.55215 0.0
O276 O 0.90023 0.23703 0.94666 0.0
Zn277 Zn 0.90609 0.22136 0.90733 0.0
O278 O 0.9285 0.1688 0.90298 0.0
Zn279 Zn 0.88966 0.13091 0.88847 0.0
Zn280 Zn 0.94784 0.15193 0.93871 0.0
Zn281 Zn 0.97029 0.17303 0.87615 0.0
O282 O 0.90892 0.10304 0.8537 0.0
O283 O 0.95432 0.14758 0.84026 0.0
O284 O 0.85502 0.22526 0.8867 0.0
O285 O 0.84225 0.16181 0.87537 0.0
O286 O 0.86972 0.09376 0.91865 0.0
O287 O 0.90999 0.10987 0.95341 0.0
O288 O 0.0037 0.12899 0.93442 0.0
O289 O 0.94338 0.26319 0.89416 0.0
O290 O 0.01647 0.14296 0.89056 0.0
O291 O 0.98971 0.22988 0.87115 0.0
C292 C 0.92319 0.22883 0.96683 0.0
C293 C 0.93182 0.11753 0.83521 0.0
C294 C 0.88057 0.08995 0.9437 0.0
C295 C 0.83314 0.19891 0.87517 0.0
C296 C 0.02668 0.12785 0.91354 0.0
C297 C 0.97565 0.26256 0.8806 0.0
O298 O 0.94683 0.19864 0.96619 0.0
O299 O 0.25457 0.92551 0.95244 0.0
Zn300 Zn 0.26422 0.93625 0.91316 0.0
O301 O 0.31744 0.9517 0.90625 0.0
Zn302 Zn 0.34566 0.90651 0.89133 0.0
Zn303 Zn 0.33766 0.96978 0.94135 0.0
Zn304 Zn 0.31613 -0.00673 0.87908 0.0
O305 O 0.37594 0.92249 0.85719 0.0
O306 O 0.33686 0.97263 0.84292 0.0
O307 O 0.24756 0.8905 0.89039 0.0
O308 O 0.30605 0.86549 0.87759 0.0
O309 O 0.37975 0.88143 0.92126 0.0
O310 O 0.37387 0.92549 0.95551 0.0
O311 O 0.36898 0.02205 0.93535 0.0
O312 O 0.22878 0.98127 0.90505 0.0
O313 O 0.3537 0.03477 0.89162 0.0
O314 O 0.26203 0.02075 0.87646 0.0
C315 C 0.26113 0.95173 0.97083 0.0
C316 C 0.36406 0.94652 0.83835 0.0
C317 C 0.38752 0.89255 0.9458 0.0
C318 C 0.26796 0.86439 0.87767 0.0
C319 C 0.37207 0.04366 0.91368 0.0
C320 C 0.23075 0.01248 0.8902 0.0
O321 O 0.29049 0.97619 0.96869 0.0
O322 O 0.574 0.28667 0.94616 0.0
Zn323 Zn 0.56182 0.29145 0.90619 0.0
O324 O 0.53841 0.34196 0.89791 0.0
Zn325 Zn 0.57725 0.37813 0.88217 0.0
Zn326 Zn 0.51832 0.36082 0.93248 0.0
Zn327 Zn 0.49743 0.3338 0.87127 0.0
O328 O 0.55742 0.40288 0.84622 0.0
O329 O 0.51532 0.35416 0.83422 0.0
O330 O 0.61047 0.28363 0.88382 0.0
O331 O 0.62374 0.34565 0.86959 0.0
O332 O 0.59934 0.41514 0.91193 0.0
O333 O 0.55912 0.40056 0.9469 0.0
O334 O 0.46323 0.38571 0.92577 0.0
O335 O 0.52324 0.24762 0.89877 0.0
O336 O 0.45097 0.36638 0.88274 0.0
O337 O 0.479 0.27602 0.87074 0.0
C338 C 0.54847 0.29225 0.96508 0.0
C339 C 0.53672 0.38459 0.82796 0.0
C340 C 0.58974 0.41858 0.93722 0.0
C341 C 0.63214 0.30843 0.87068 0.0
C342 C 0.44071 0.38485 0.90444 0.0
C343 C 0.49183 0.24564 0.88413 0.0
O344 O 0.51843 0.31548 0.96145 0.0
O345 O 0.21633 0.58562 0.93551 0.0
Zn346 Zn 0.20275 0.57544 0.89675 0.0
O347 O 0.14992 0.55726 0.893 0.0
Zn348 Zn 0.11792 0.60166 0.88097 0.0
Zn349 Zn 0.13532 0.538 0.92892 0.0
Zn350 Zn 0.14956 0.51607 0.86562 0.0
O351 O 0.08403 0.58542 0.84922 0.0
O352 O 0.12256 0.5377 0.83106 0.0
O353 O 0.21426 0.62272 0.87389 0.0
O354 O 0.15309 0.64588 0.86621 0.0
O355 O 0.08653 0.62411 0.91257 0.0
O356 O 0.10173 0.58137 0.94637 0.0
O357 O 0.10391 0.48573 0.92428 0.0
O358 O 0.23918 0.53247 0.88696 0.0
O359 O 0.11454 0.47328 0.87993 0.0
O360 O 0.20491 0.48995 0.86111 0.0
C361 C 0.21398 0.55819 0.95365 0.0
C362 C 0.09371 0.56295 0.82915 0.0
C363 C 0.08456 0.61329 0.93766 0.0
C364 C 0.19087 0.64888 0.86372 0.0
C365 C 0.09879 0.46413 0.90284 0.0
C366 C 0.23722 0.50036 0.87317 0.0
O367 O 0.18603 0.53201 0.95281 0.0
H368 H 0.52262 0.12367 0.2839 0.0
H369 H 0.60453 0.0391 0.32135 0.0
H370 H 0.6233 0.0142 0.27628 0.0
H371 H 0.62099 0.02003 0.22615 0.0
H372 H 0.53924 0.10415 0.18824 0.0
H373 H 0.51577 0.12506 0.23343 0.0
C374 C 0.54421 0.09946 0.28225 0.0
C375 C 0.56237 0.08373 0.30615 0.0
C376 C 0.55519 0.08523 0.2561 0.0
C377 C 0.59013 0.05212 0.30346 0.0
C378 C 0.60104 0.03782 0.27761 0.0
C379 C 0.59772 0.04264 0.2277 0.0
C380 C 0.58228 0.06071 0.20373 0.0
C381 C 0.58446 0.05474 0.25378 0.0
C382 C 0.55181 0.08969 0.20626 0.0
C383 C 0.53844 0.10185 0.23216 0.0
H384 H 0.46201 0.62649 0.22688 0.0
H385 H 0.38027 0.54245 0.18919 0.0
H386 H 0.36536 0.5134 0.23381 0.0
H387 H 0.36857 0.51777 0.28384 0.0
H388 H 0.44922 0.6026 0.32178 0.0
H389 H 0.47189 0.62468 0.27679 0.0
C390 C 0.44142 0.60143 0.22837 0.0
C391 C 0.42165 0.58739 0.2048 0.0
C392 C 0.43247 0.58506 0.25419 0.0
C393 C 0.39545 0.55445 0.20706 0.0
C394 C 0.38683 0.53772 0.2326 0.0
C395 C 0.3916 0.54059 0.28231 0.0
C396 C 0.40643 0.55906 0.30614 0.0
C397 C 0.40408 0.55373 0.25637 0.0
C398 C 0.43675 0.5882 0.30376 0.0
C399 C 0.44972 0.60101 0.27802 0.0
H400 H 0.90095 0.42498 0.31441 0.0
H401 H 0.98408 0.33609 0.28439 0.0
H402 H 0.96757 0.35453 0.23718 0.0
H403 H 0.92581 0.39226 0.2042 0.0
H404 H 0.84204 0.48043 0.2344 0.0
H405 H 0.86278 0.46602 0.28143 0.0
C406 C 0.9159 0.40992 0.2976 0.0
C407 C 0.94361 0.37893 0.30319 0.0
C408 C 0.90594 0.42036 0.27034 0.0
C409 C 0.96255 0.35993 0.28092 0.0
C410 C 0.95304 0.37039 0.2538 0.0
C411 C 0.91239 0.40872 0.22101 0.0
C412 C 0.88211 0.43725 0.21554 0.0
C413 C 0.92419 0.40001 0.24823 0.0
C414 C 0.86522 0.45817 0.23778 0.0
C415 C 0.87703 0.44991 0.26481 0.0
H416 H 0.11659 0.9661 0.28747 0.0
H417 H 0.05085 0.87181 0.32827 0.0
H418 H 0.01978 0.85284 0.2849 0.0
H419 H 0.01676 0.85826 0.23472 0.0
H420 H 0.08177 0.95301 0.19387 0.0
H421 H 0.10697 0.97684 0.23793 0.0
C422 C 0.09513 0.94171 0.28692 0.0
C423 C 0.0866 0.92006 0.31102 0.0
C424 C 0.07727 0.93086 0.26187 0.0
C425 C 0.05819 0.88892 0.31003 0.0
C426 C 0.04045 0.8779 0.28519 0.0
C427 C 0.03596 0.88448 0.23547 0.0
C428 C 0.0478 0.90337 0.21097 0.0
C429 C 0.0506 0.89795 0.26088 0.0
C430 C 0.07225 0.93771 0.21237 0.0
C431 C 0.08692 0.95127 0.23758 0.0
H432 H 0.42203 0.89498 0.82072 0.0
H433 H 0.34018 0.98661 0.79205 0.0
H434 H 0.35843 0.97222 0.7447 0.0
H435 H 0.39255 0.92941 0.71133 0.0
H436 H 0.47386 0.83721 0.73977 0.0
H437 H 0.46117 0.85649 0.78726 0.0
C438 C 0.40849 0.91216 0.80416 0.0
C439 C 0.37934 0.94146 0.81002 0.0
C440 C 0.41883 0.9035 0.77688 0.0
C441 C 0.36248 0.96368 0.78823 0.0
C442 C 0.37282 0.95541 0.76108 0.0
C443 C 0.40788 0.91376 0.72787 0.0
C444 C 0.4337 0.88153 0.72193 0.0
C445 C 0.40016 0.9247 0.75515 0.0
C446 C 0.45366 0.862 0.74368 0.0
C447 C 0.44631 0.8729 0.77089 0.0
H448 H 0.58394 0.4431 0.80551 0.0
H449 H 0.49875 0.351 0.78376 0.0
H450 H 0.51178 0.36262 0.7352 0.0
H451 H 0.55174 0.39465 0.69885 0.0
H452 H 0.63723 0.48638 0.72086 0.0
H453 H 0.61939 0.47928 0.76902 0.0
C454 C 0.56777 0.42592 0.79019 0.0
C455 C 0.54069 0.39593 0.79849 0.0
C456 C 0.57568 0.43242 0.76215 0.0
C457 C 0.51997 0.37414 0.77816 0.0
C458 C 0.52747 0.38067 0.75027 0.0
C459 C 0.56611 0.41348 0.71411 0.0
C460 C 0.59614 0.44068 0.70607 0.0
C461 C 0.55596 0.40907 0.74202 0.0
C462 C 0.61425 0.46489 0.72628 0.0
C463 C 0.60411 0.46086 0.75395 0.0
H464 H 0.02112 0.63364 0.72018 0.0
H465 H 0.08258 0.53057 0.6868 0.0
H466 H 0.09823 0.50688 0.73282 0.0
H467 H 0.10195 0.51967 0.78217 0.0
H468 H 0.041 0.6228 0.81584 0.0
H469 H 0.01734 0.64161 0.77027 0.0
C470 C 0.03728 0.60564 0.72299 0.0
C471 C 0.05136 0.58449 0.70005 0.0
C472 C 0.04671 0.59224 0.74961 0.0
C473 C 0.07195 0.54797 0.70408 0.0
C474 C 0.08101 0.53429 0.73042 0.0
C475 C 0.08303 0.54593 0.77962 0.0
C476 C 0.07399 0.57011 0.80234 0.0
C477 C 0.06978 0.55692 0.7533 0.0
C478 C 0.04886 0.60374 0.79869 0.0
C479 C 0.03534 0.61468 0.77258 0.0
H480 H 0.92897 0.08642 0.70747 0.0
H481 H 0.83833 0.00122 0.73168 0.0
H482 H 0.85152 0.01582 0.7799 0.0
H483 H 0.88448 0.05715 0.81515 0.0
H484 H 0.9747 0.14272 0.79072 0.0
H485 H 0.96608 0.12328 0.7429 0.0
C486 C 0.91242 0.0706 0.72326 0.0
C487 C 0.88239 0.04304 0.71578 0.0
C488 C 0.91984 0.07942 0.75105 0.0
C489 C 0.86149 0.02275 0.73668 0.0
C490 C 0.86891 0.03117 0.76435 0.0
C491 C 0.90265 0.07123 0.79944 0.0
C492 C 0.92989 0.10171 0.80667 0.0
C493 C 0.89735 0.06015 0.77178 0.0
C494 C 0.95327 0.11937 0.7859 0.0
C495 C 0.94834 0.10833 0.75844 0.0
H496 H 0.40786 0.09065 0.36111 0.0
H497 H 0.41138 0.08379 0.44974 0.0
H498 H 0.34511 0.0532 0.44984 0.0
H499 H 0.28714 0.02862 0.42512 0.0
H500 H 0.28363 0.03215 0.33647 0.0
H501 H 0.34944 0.06476 0.33607 0.0
C502 C 0.39417 0.08252 0.38049 0.0
C503 C 0.4145 0.08964 0.40543 0.0
C504 C 0.35619 0.06486 0.38039 0.0
C505 C 0.39646 0.07857 0.43029 0.0
C506 C 0.35853 0.06127 0.43037 0.0
C507 C 0.30033 0.03696 0.4056 0.0
C508 C 0.28026 0.02852 0.3808 0.0
C509 C 0.33819 0.0545 0.40557 0.0
C510 C 0.29837 0.03866 0.35579 0.0
C511 C 0.33596 0.0571 0.35559 0.0
H512 H 0.3818 0.39295 0.36682 0.0
H513 H 0.44223 0.42961 0.44119 0.0
H514 H 0.48529 0.37016 0.43859 0.0
H515 H 0.50582 0.30872 0.41505 0.0
H516 H 0.44375 0.27045 0.34174 0.0
H517 H 0.40126 0.33046 0.3439 0.0
C518 C 0.40439 0.38807 0.38252 0.0
C519 C 0.40894 0.41591 0.40414 0.0
C520 C 0.42884 0.35391 0.38091 0.0
C521 C 0.43803 0.4087 0.42442 0.0
C522 C 0.46276 0.37485 0.42284 0.0
C523 C 0.48332 0.31361 0.39929 0.0
C524 C 0.47834 0.28538 0.37795 0.0
C525 C 0.45855 0.34749 0.40107 0.0
C526 C 0.44839 0.29182 0.35818 0.0
C527 C 0.42406 0.32603 0.35949 0.0
H528 H 0.10682 0.36023 0.36818 0.0
H529 H 0.07283 0.41334 0.44551 0.0
H530 H 0.12951 0.45961 0.44251 0.0
H531 H 0.18707 0.48604 0.41732 0.0
H532 H 0.22252 0.43193 0.34075 0.0
H533 H 0.1663 0.38488 0.34396 0.0
C534 C 0.11181 0.38179 0.3845 0.0
C535 C 0.08534 0.38342 0.40701 0.0
C536 C 0.14434 0.40829 0.38259 0.0
C537 C 0.09268 0.41128 0.42804 0.0
C538 C 0.12494 0.43792 0.42623 0.0
C539 C 0.18233 0.46428 0.40113 0.0
C540 C 0.20855 0.46302 0.37851 0.0
C541 C 0.15058 0.43698 0.40344 0.0
C542 C 0.2026 0.43379 0.35819 0.0
C543 C 0.17054 0.40687 0.36008 0.0
H544 H 0.12252 0.07995 0.39765 0.0
H545 H 0.0158 0.0156 0.42059 0.0
H546 H 0.97501 0.07448 0.40854 0.0
H547 H 0.97023 0.14416 0.39207 0.0
H548 H 0.07716 0.20733 0.36755 0.0
H549 H 0.11736 0.14813 0.37879 0.0
C550 C 0.09035 0.07896 0.4004 0.0
C551 C 0.0722 0.04382 0.41065 0.0
C552 C 0.06718 0.11226 0.39254 0.0
C553 C 0.03043 0.04252 0.41317 0.0
C554 C 0.00717 0.07603 0.40608 0.0
C555 C 0.00228 0.14492 0.38878 0.0
C556 C 0.02062 0.18038 0.379 0.0
C557 C 0.02527 0.11099 0.39566 0.0
C558 C 0.06217 0.18054 0.37485 0.0
C559 C 0.08524 0.14681 0.38157 0.0
H560 H 0.91907 0.93781 0.13859 0.0
H561 H 0.89586 0.88676 0.05873 0.0
H562 H 0.82588 0.9075 0.06167 0.0
H563 H 0.77143 0.93835 0.08715 0.0
H564 H 0.79345 0.98901 0.16738 0.0
H565 H 0.86379 0.96904 0.16436 0.0
C566 C 0.89884 0.93187 0.12162 0.0
C567 C 0.91273 0.91118 0.0983 0.0
C568 C 0.85836 0.94285 0.12381 0.0
C569 C 0.88595 0.90287 0.07678 0.0
C570 C 0.84591 0.91445 0.07855 0.0
C571 C 0.79134 0.94475 0.10422 0.0
C572 C 0.77691 0.96502 0.12758 0.0
C573 C 0.83172 0.93392 0.10212 0.0
C574 C 0.80352 0.97317 0.14927 0.0
C575 C 0.84386 0.96209 0.14743 0.0
H576 H 0.45399 0.82969 0.12082 0.0
H577 H 0.55875 0.76199 0.14474 0.0
H578 H 0.60069 0.82094 0.13604 0.0
H579 H 0.60777 0.89047 0.119 0.0
H580 H 0.50249 0.95801 0.09618 0.0
H581 H 0.46048 0.89976 0.10644 0.0
C582 C 0.48597 0.82785 0.12448 0.0
C583 C 0.50323 0.79136 0.13331 0.0
C584 C 0.50982 0.86151 0.119 0.0
C585 C 0.54465 0.78972 0.13815 0.0
C586 C 0.56867 0.82329 0.13285 0.0
C587 C 0.57566 0.89225 0.11601 0.0
C588 C 0.55824 0.92819 0.10634 0.0
C589 C 0.55165 0.85902 0.12268 0.0
C590 C 0.51654 0.93052 0.1033 0.0
C591 C 0.49256 0.89734 0.10931 0.0
H592 H 0.57948 0.61432 0.14549 0.0
H593 H 0.54197 0.54422 0.07546 0.0
H594 H 0.59871 0.49863 0.08269 0.0
H595 H 0.65837 0.47892 0.10903 0.0
H596 H 0.69718 0.55093 0.17774 0.0
H597 H 0.63936 0.5953 0.17129 0.0
C598 C 0.58359 0.58912 0.13169 0.0
C599 C 0.55633 0.58264 0.10996 0.0
C600 C 0.61597 0.56311 0.13607 0.0
C601 C 0.56253 0.55004 0.09222 0.0
C602 C 0.59476 0.52382 0.0965 0.0
C603 C 0.65381 0.50388 0.12296 0.0
C604 C 0.68163 0.51124 0.14423 0.0
C605 C 0.6214 0.52992 0.11851 0.0
C606 C 0.67593 0.5444 0.16151 0.0
C607 C 0.64309 0.56986 0.15767 0.0
H608 H 0.93872 0.71004 0.08818 0.0
H609 H 0.94456 0.71222 0.17678 0.0
H610 H 0.90798 0.64859 0.17869 0.0
H611 H 0.87642 0.59172 0.15517 0.0
H612 H 0.87296 0.58863 0.0665 0.0
H613 H 0.90696 0.65355 0.06473 0.0
C614 C 0.9317 0.69693 0.108 0.0
C615 C 0.94424 0.71608 0.13236 0.0
C616 C 0.91145 0.66009 0.1089 0.0
C617 C 0.93524 0.69822 0.15775 0.0
C618 C 0.91441 0.66181 0.15883 0.0
C619 C 0.88293 0.6052 0.13539 0.0
C620 C 0.87207 0.5852 0.11096 0.0
C621 C 0.90273 0.64234 0.13453 0.0
C622 C 0.88103 0.60319 0.0856 0.0
C623 C 0.90039 0.64037 0.08458 0.0
H624 H 0.67065 0.9912 0.59703 0.0
H625 H 0.71021 0.93288 0.67171 0.0
H626 H 0.65054 0.89058 0.67123 0.0
H627 H 0.58827 0.87008 0.64964 0.0
H628 H 0.54858 0.92645 0.57433 0.0
H629 H 0.6081 0.96954 0.57477 0.0
C630 C 0.66602 0.96953 0.61338 0.0
C631 C 0.69459 0.96542 0.63459 0.0
C632 C 0.6321 0.94483 0.61267 0.0
C633 C 0.68858 0.93669 0.65528 0.0
C634 C 0.65458 0.91248 0.65496 0.0
C635 C 0.59241 0.89181 0.63326 0.0
C636 C 0.56383 0.89527 0.61205 0.0
C637 C 0.62634 0.91624 0.63372 0.0
C638 C 0.57014 0.92317 0.59084 0.0
C639 C 0.60401 0.9479 0.59119 0.0
H640 H 0.62928 0.59732 0.63622 0.0
H641 H 0.56199 0.56121 0.56457 0.0
H642 H 0.51733 0.6189 0.57051 0.0
H643 H 0.49491 0.67603 0.598 0.0
H644 H 0.56215 0.7121 0.6697 0.0
H645 H 0.60943 0.657 0.66198 0.0
C646 C 0.60504 0.60219 0.62172 0.0
C647 C 0.59861 0.57478 0.60014 0.0
C648 C 0.57925 0.63477 0.62558 0.0
C649 C 0.56757 0.5819 0.58128 0.0
C650 C 0.54185 0.61461 0.58485 0.0
C651 C 0.51975 0.67173 0.61212 0.0
C652 C 0.52464 0.69754 0.63479 0.0
C653 C 0.54689 0.64054 0.60732 0.0
C654 C 0.55756 0.6923 0.65236 0.0
C655 C 0.58459 0.66096 0.64787 0.0
H656 H 0.8985 0.60123 0.63723 0.0
H657 H 0.93893 0.52518 0.57103 0.0
H658 H 0.8814 0.48122 0.57782 0.0
H659 H 0.81957 0.46559 0.60163 0.0
H660 H 0.77674 0.54334 0.66608 0.0
H661 H 0.83652 0.58522 0.66135 0.0
C662 C 0.89482 0.57505 0.62424 0.0
C663 C 0.92294 0.56651 0.60361 0.0
C664 C 0.86179 0.55005 0.62822 0.0
C665 C 0.91759 0.53257 0.58693 0.0
C666 C 0.88489 0.5073 0.59092 0.0
C667 C 0.82355 0.49126 0.61506 0.0
C668 C 0.79402 0.50123 0.6344 0.0
C669 C 0.85693 0.51581 0.6115 0.0
C670 C 0.79926 0.53502 0.6512 0.0
C671 C 0.8332 0.55904 0.64835 0.0
H672 H 0.93137 0.90964 0.57912 0.0
H673 H 0.85298 0.87798 0.646 0.0
H674 H 0.88624 0.81344 0.65106 0.0
H675 H 0.93904 0.76638 0.63766 0.0
H676 H 0.018 0.79823 0.57107 0.0
H677 H 0.98323 0.86171 0.56493 0.0
C678 C 0.9214 0.88846 0.5946 0.0
C679 C 0.88997 0.89883 0.6122 0.0
C680 C 0.94097 0.8513 0.5977 0.0
C681 C 0.87745 0.87103 0.63228 0.0
C682 C 0.89641 0.83398 0.63525 0.0
C683 C 0.94863 0.78719 0.62183 0.0
C684 C 0.98126 0.77749 0.6051 0.0
C685 C 0.92853 0.82394 0.61831 0.0
C686 C -0.00685 0.80487 0.58452 0.0
C687 C 0.97321 0.84129 0.58085 0.0
H688 H 0.08598 0.13102 0.87598 0.0
H689 H 0.0551 0.07911 0.95454 0.0
H690 H 0.11726 0.04044 0.95443 0.0
H691 H 0.1774 0.01874 0.93082 0.0
H692 H 0.20831 0.06915 0.85198 0.0
H693 H 0.14847 0.11186 0.85348 0.0
C694 C 0.09282 0.11137 0.89318 0.0
C695 C 0.06572 0.10748 0.91511 0.0
C696 C 0.12822 0.08905 0.89281 0.0
C697 C 0.07538 0.08247 0.93741 0.0
C698 C 0.11078 0.0603 0.9373 0.0
C699 C 0.171 0.03886 0.91384 0.0
C700 C 0.19659 0.04024 0.891 0.0
C701 C 0.13687 0.06285 0.91486 0.0
C702 C 0.18873 0.06741 0.86961 0.0
C703 C 0.1546 0.09166 0.87048 0.0
H704 H 0.37207 0.10134 0.87476 0.0
H705 H 0.42896 0.06774 0.95123 0.0
H706 H 0.47249 0.12683 0.94801 0.0
H707 H 0.49405 0.18754 0.92321 0.0
H708 H 0.43521 0.22108 0.84742 0.0
H709 H 0.39281 0.16154 0.85048 0.0
C710 C 0.39402 0.1067 0.89079 0.0
C711 C 0.39742 0.08 0.91317 0.0
C712 C 0.41869 0.14039 0.88876 0.0
C713 C 0.4257 0.08785 0.93384 0.0
C714 C 0.45067 0.12148 0.93192 0.0
C715 C 0.47225 0.18159 0.90719 0.0
C716 C 0.46796 0.20846 0.88494 0.0
C717 C 0.4475 0.14778 0.90938 0.0
C718 C 0.43911 0.20078 0.86465 0.0
C719 C 0.41485 0.16685 0.86644 0.0
H720 H 0.38206 0.37948 0.8659 0.0
H721 H 0.41299 0.43961 0.94164 0.0
H722 H 0.352 0.47982 0.93832 0.0
H723 H 0.2923 0.4995 0.91323 0.0
H724 H 0.25993 0.43993 0.8377 0.0
H725 H 0.31981 0.39731 0.84168 0.0
C726 C 0.37548 0.40129 0.88177 0.0
C727 C 0.4023 0.40683 0.9039 0.0
C728 C 0.34053 0.42436 0.87965 0.0
C729 C 0.39297 0.4348 0.92442 0.0
C730 C 0.35822 0.45787 0.92247 0.0
C731 C 0.29835 0.47744 0.8974 0.0
C732 C 0.27221 0.4734 0.87481 0.0
C733 C 0.33225 0.45324 0.89999 0.0
C734 C 0.27985 0.44381 0.85507 0.0
C735 C 0.31399 0.41956 0.85739 0.0
H736 H 0.09835 0.40362 0.86612 0.0
H737 H 0.04219 0.44337 0.94103 0.0
H738 H -0.00274 0.38529 0.93954 0.0
H739 H 0.97416 0.32384 0.91675 0.0
H740 H 0.03255 0.28295 0.84297 0.0
H741 H 0.0763 0.34185 0.84393 0.0
C742 C 0.07628 0.3997 0.88217 0.0
C743 C 0.07342 0.42789 0.9036 0.0
C744 C 0.05081 0.36647 0.88116 0.0
C745 C 0.04506 0.42201 0.9244 0.0
C746 C 0.01925 0.38901 0.92344 0.0
C747 C -0.00392 0.3281 0.90064 0.0
C748 C -0.00017 0.29947 0.87954 0.0
C749 C 0.02174 0.36127 0.9018 0.0
C750 C 0.02899 0.30479 0.85924 0.0
C751 C 0.05404 0.33829 0.85988 0.0
H752 H 0.67082 0.26465 0.36661 0.0
H753 H 0.70865 0.14095 0.35921 0.0
H754 H 0.77718 0.16258 0.35136 0.0
H755 H 0.8273 0.21529 0.35625 0.0
H756 H 0.78998 0.33866 0.3663 0.0
H757 H 0.72011 0.31852 0.36268 0.0
C758 C 0.69395 0.24247 0.3628 0.0
C759 C 0.6851 0.20134 0.36447 0.0
C760 C 0.73336 0.255 0.35898 0.0
C761 C 0.71495 0.17287 0.35861 0.0
C762 C 0.75416 0.18516 0.35419 0.0
C763 C 0.80387 0.23786 0.35707 0.0
C764 C 0.8135 0.27806 0.36249 0.0
C765 C 0.76392 0.22598 0.35585 0.0
C766 C 0.78315 0.30731 0.36263 0.0
C767 C 0.7432 0.29582 0.36073 0.0
H768 H 0.33366 0.70805 0.35485 0.0
H769 H 0.21474 0.65759 0.35443 0.0
H770 H 0.18656 0.72352 0.34397 0.0
H771 H 0.19478 0.79657 0.34506 0.0
H772 H 0.31253 0.8477 0.35143 0.0
H773 H 0.34245 0.7806 0.34841 0.0
C774 C 0.30167 0.71126 0.3518 0.0
C775 C 0.27624 0.67816 0.35605 0.0
C776 C 0.28555 0.74953 0.3468 0.0
C777 C 0.23489 0.68277 0.35182 0.0
C778 C 0.21874 0.72045 0.3458 0.0
C779 C 0.22703 0.79293 0.34438 0.0
C780 C 0.25164 0.82657 0.34805 0.0
C781 C 0.24362 0.75427 0.34462 0.0
C782 C 0.29329 0.82199 0.34804 0.0
C783 C 0.31025 0.78364 0.34681 0.0
H784 H 0.26486 0.66817 0.15637 0.0
H785 H 0.32328 0.78365 0.15176 0.0
H786 H 0.26126 0.81714 0.16427 0.0
H787 H 0.18868 0.81444 0.16647 0.0
H788 H 0.12815 0.70038 0.16651 0.0
H789 H 0.19269 0.66522 0.16705 0.0
C790 C 0.26415 0.70056 0.15875 0.0
C791 C 0.29821 0.72354 0.15242 0.0
C792 C 0.22797 0.71979 0.16515 0.0
C793 C 0.29712 0.76543 0.15583 0.0
C794 C 0.26174 0.78461 0.16309 0.0
C795 C 0.18981 0.78187 0.16779 0.0
C796 C 0.15422 0.75983 0.16622 0.0
C797 C 0.22667 0.76224 0.16639 0.0
C798 C 0.15545 0.71777 0.1679 0.0
C799 C 0.19231 0.69777 0.16769 0.0
H800 H 0.72967 0.30649 0.16603 0.0
H801 H 0.84627 0.28204 0.13213 0.0
H802 H 0.8331 0.21015 0.13363 0.0
H803 H 0.78385 0.15581 0.13666 0.0
H804 H 0.66796 0.17913 0.17139 0.0
H805 H 0.68556 0.24989 0.17813 0.0
C806 C 0.75239 0.28528 0.15953 0.0
C807 C 0.78839 0.29935 0.14842 0.0
C808 C 0.74472 0.24392 0.16054 0.0
C809 C 0.81812 0.27181 0.14057 0.0
C810 C 0.81061 0.2307 0.1413 0.0
C811 C 0.76321 0.17623 0.14666 0.0
C812 C 0.72487 0.16301 0.15349 0.0
C813 C 0.77341 0.21662 0.15014 0.0
C814 C 0.69785 0.18915 0.16627 0.0
C815 C 0.70773 0.22954 0.1698 0.0
H816 H 0.20374 0.66084 0.65745 0.0
H817 H 0.14512 0.77196 0.63519 0.0
H818 H 0.20343 0.81 0.65009 0.0
H819 H 0.27489 0.81013 0.65934 0.0
H820 H 0.33614 0.69851 0.67624 0.0
H821 H 0.27269 0.66239 0.67478 0.0
C822 C 0.20346 0.69342 0.65649 0.0
C823 C 0.17089 0.71357 0.64452 0.0
C824 C 0.23764 0.71499 0.66409 0.0
C825 C 0.17048 0.75579 0.64366 0.0
C826 C 0.2037 0.77757 0.65226 0.0
C827 C 0.27421 0.77813 0.66368 0.0
C828 C 0.31006 0.75676 0.66708 0.0
C829 C 0.23816 0.75731 0.66104 0.0
C830 C 0.3088 0.71541 0.67301 0.0
C831 C 0.27262 0.6947 0.67193 0.0
H832 H 0.71366 0.15542 0.64626 0.0
H833 H 0.83507 0.1969 0.65704 0.0
H834 H 0.81122 0.26566 0.66217 0.0
H835 H 0.75783 0.31435 0.65393 0.0
H836 H 0.63694 0.27334 0.64055 0.0
H837 H 0.65855 0.20375 0.64669 0.0
C838 C 0.73482 0.17942 0.65024 0.0
C839 C 0.77605 0.1715 0.6503 0.0
C840 C 0.72106 0.21889 0.65242 0.0
C841 C 0.80316 0.20248 0.65637 0.0
C842 C 0.7896 0.24181 0.65919 0.0
C843 C 0.73614 0.29016 0.6529 0.0
C844 C 0.69627 0.29849 0.64596 0.0
C845 C 0.7489 0.25047 0.6557 0.0
C846 C 0.668 0.26735 0.6455 0.0
C847 C 0.68035 0.22763 0.64884 0.0
H848 H 0.81205 0.27358 0.85907 0.0
H849 H 0.768 0.15196 0.86505 0.0
H850 H 0.69986 0.17569 0.85733 0.0
H851 H 0.65289 0.23182 0.8596 0.0
H852 H 0.69695 0.35369 0.85672 0.0
H853 H 0.76515 0.32895 0.85168 0.0
C854 C 0.78758 0.25223 0.85814 0.0
C855 C 0.79456 0.21143 0.86363 0.0
C856 C 0.74856 0.26614 0.85449 0.0
C857 C 0.76307 0.18372 0.86142 0.0
C858 C 0.72413 0.19725 0.85712 0.0
C859 C 0.67736 0.25293 0.85725 0.0
C860 C 0.67034 0.29434 0.8596 0.0
C861 C 0.71644 0.23857 0.85532 0.0
C862 C 0.70186 0.32155 0.85555 0.0
C863 C 0.74086 0.30746 0.85284 0.0
H864 H 0.3006 0.79666 0.8563 0.0
H865 H 0.18752 0.85588 0.87043 0.0
H866 H 0.15198 0.79399 0.86 0.0
H867 H 0.15421 0.72082 0.8573 0.0
H868 H 0.26759 0.66071 0.84684 0.0
H869 H 0.30163 0.72532 0.84447 0.0
C870 C 0.26816 0.79628 0.85648 0.0
C871 C 0.24681 0.83028 0.86509 0.0
C872 C 0.24792 0.76031 0.85132 0.0
C873 C 0.20474 0.82966 0.86463 0.0
C874 C 0.18433 0.79431 0.85864 0.0
C875 C 0.18617 0.72188 0.85361 0.0
C876 C 0.20857 0.68624 0.85318 0.0
C877 C 0.20576 0.75897 0.85354 0.0
C878 C 0.24986 0.68794 0.84794 0.0
C879 C 0.26939 0.72483 0.84672 0.0
H880 H 0.67944 0.05929 0.43858 0.0
H881 H 0.58117 0.05774 0.49593 0.0
H882 H 0.62702 0.04049 0.5331 0.0
H883 H 0.69552 0.03525 0.55046 0.0
H884 H 0.79469 0.03697 0.49429 0.0
H885 H 0.74801 0.04449 0.45541 0.0
C886 C 0.66787 0.05424 0.45907 0.0
C887 C 0.62681 0.06044 0.46443 0.0
C888 C 0.69466 0.04502 0.48062 0.0
C889 C 0.61253 0.05365 0.49117 0.0
C890 C 0.63879 0.04394 0.51252 0.0
C891 C 0.70685 0.03668 0.52962 0.0
C892 C 0.74837 0.03618 0.52513 0.0
C893 C 0.67998 0.04113 0.50765 0.0
C894 C 0.76281 0.03738 0.49814 0.0
C895 C 0.73612 0.04189 0.476 0.0
H896 H 0.44638 0.75865 0.50928 0.0
H897 H 0.40498 0.68183 0.57481 0.0
H898 H 0.39883 0.62586 0.54327 0.0
H899 H 0.39842 0.60009 0.49664 0.0
H900 H 0.4364 0.67619 0.4298 0.0
H901 H 0.45127 0.73027 0.46213 0.0
C902 C 0.43643 0.72953 0.51658 0.0
C903 C 0.42537 0.72476 0.54424 0.0
C904 C 0.43221 0.69713 0.49808 0.0
C905 C 0.41276 0.68671 0.55348 0.0
C906 C 0.40941 0.65447 0.53549 0.0
C907 C 0.41069 0.62817 0.48909 0.0
C908 C 0.41591 0.63397 0.46075 0.0
C909 C 0.41804 0.65955 0.50765 0.0
C910 C 0.43184 0.67078 0.45151 0.0
C911 C 0.44017 0.70192 0.46999 0.0
H912 H 0.82716 0.41389 0.43847 0.0
H913 H 0.91955 0.39432 0.4993 0.0
H914 H 0.87245 0.40976 0.53576 0.0
H915 H 0.80376 0.42155 0.55088 0.0
H916 H 0.71056 0.44252 0.4912 0.0
H917 H 0.75913 0.43395 0.45386 0.0
C918 C 0.83726 0.41387 0.45965 0.0
C919 C 0.87701 0.40246 0.46598 0.0
C920 C 0.80965 0.42235 0.4808 0.0
C921 C 0.88927 0.4026 0.49366 0.0
C922 C 0.86224 0.41125 0.51463 0.0
C923 C 0.79408 0.42452 0.52968 0.0
C924 C 0.75347 0.43195 0.52378 0.0
C925 C 0.82213 0.41986 0.5085 0.0
C926 C 0.74159 0.43662 0.49626 0.0
C927 C 0.76938 0.43159 0.47494 0.0
H928 H 0.10846 0.68105 0.49271 0.0
H929 H -0.00232 0.73328 0.51969 0.0
H930 H 0.00585 0.78905 0.4871 0.0
H931 H 0.05116 0.82835 0.45669 0.0
H932 H 0.16255 0.77433 0.43128 0.0
H933 H 0.1473 0.71389 0.45698 0.0
C934 C 0.08543 0.70389 0.4906 0.0
C935 C 0.05255 0.70326 0.50821 0.0
C936 C 0.09091 0.73607 0.47248 0.0
C937 C 0.02294 0.73305 0.50582 0.0
C938 C 0.02795 0.76519 0.48751 0.0
C939 C 0.07156 0.803 0.45639 0.0
C940 C 0.10845 0.80637 0.44281 0.0
C941 C 0.0628 0.76796 0.47159 0.0
C942 C 0.13446 0.77305 0.44228 0.0
C943 C 0.12576 0.73828 0.45687 0.0
H944 H 0.26716 0.95434 0.02714 0.0
H945 H 0.18312 0.96039 0.95997 0.0
H946 H 0.12726 0.95717 0.99178 0.0
H947 H 0.10255 0.93976 0.03758 0.0
H948 H 0.18586 0.92617 0.10445 0.0
H949 H 0.24126 0.94579 0.07453 0.0
C950 C 0.23659 0.95608 0.0197 0.0
C951 C 0.22918 0.95761 0.99132 0.0
C952 C 0.20431 0.95245 0.03819 0.0
C953 C 0.18946 0.95929 0.98179 0.0
C954 C 0.15746 0.95725 0.99996 0.0
C955 C 0.1326 0.94295 0.04578 0.0
C956 C 0.14017 0.93237 0.07317 0.0
C957 C 0.16447 0.95213 0.02808 0.0
C958 C 0.17938 0.93506 0.08348 0.0
C959 C 0.21112 0.94572 0.06627 0.0
H960 H 0.62448 0.19585 0.06177 0.0
H961 H 0.51961 0.12254 0.0501 0.0
H962 H 0.49259 0.17228 0.01751 0.0
H963 H 0.50342 0.2328 0.98804 0.0
H964 H 0.61042 0.30298 0.99937 0.0
H965 H 0.63182 0.25868 0.03669 0.0
C966 C 0.59546 0.19085 0.05233 0.0
C967 C 0.57437 0.15522 0.05799 0.0
C968 C 0.58056 0.21917 0.03356 0.0
C969 C 0.5365 0.14963 0.04601 0.0
C970 C 0.52117 0.178 0.02729 0.0
C971 C 0.53071 0.23893 0.99938 0.0
C972 C 0.55521 0.27126 0.99134 0.0
C973 C 0.54347 0.2124 0.02033 0.0
C974 C 0.59103 0.2785 1.00553 0.0
C975 C 0.60338 0.25301 0.02668 0.0
H976 H 0.21249 0.54165 0.0089 0.0
H977 H 0.29158 0.56676 0.94127 0.0
H978 H 0.34833 0.57105 0.97251 0.0
H979 H 0.37374 0.57741 0.01914 0.0
H980 H 0.29491 0.55703 0.08773 0.0
H981 H 0.24039 0.54048 0.05625 0.0
C982 C 0.24231 0.5473 1.00112 0.0
C983 C 0.24784 0.5545 0.97297 0.0
C984 C 0.27491 0.55097 0.01941 0.0
C985 C 0.28657 0.5618 0.96299 0.0
C986 C 0.31907 0.56422 0.98081 0.0
C987 C 0.34494 0.56847 0.02731 0.0
C988 C 0.33841 0.56912 0.05577 0.0
C989 C 0.31337 0.56033 0.00913 0.0
C990 C 0.3008 0.55722 0.06588 0.0
C991 C 0.26944 0.54794 0.04787 0.0
H992 H 0.91285 0.32774 0.07718 0.0
H993 H 0.89446 0.42405 0.01885 0.0
H994 H 0.90696 0.37796 0.98104 0.0
H995 H 0.91499 0.30919 0.96431 0.0
H996 H 0.93403 0.21216 0.02168 0.0
H997 H 0.92933 0.25961 0.06014 0.0
C998 C 0.91265 0.33893 0.05625 0.0
C999 C 0.90234 0.37939 0.05094 0.0
C1000 C 0.91906 0.31193 0.03441 0.0
C1001 C 0.90203 0.39313 0.0236 0.0
C1002 C 0.9089 0.3667 1.00191 0.0
C1003 C 0.91827 0.29843 0.98526 0.0
C1004 C 0.92396 0.25715 0.99025 0.0
C1005 C 0.91593 0.32583 0.00705 0.0
C1006 C 0.92926 0.24376 0.01739 0.0
C1007 C 0.92655 0.2709 0.03933 0.0
H1008 H 0.38592 0.91102 0.53305 0.0
H1009 H 0.30013 0.91504 0.59896 0.0
H1010 H 0.24773 0.93507 0.56656 0.0
H1011 H 0.22427 0.94177 0.51819 0.0
H1012 H 0.31068 0.93404 0.45294 0.0
H1013 H 0.36461 0.92569 0.48624 0.0
C1014 C 0.35596 0.91696 0.54049 0.0
C1015 C 0.347 0.91087 0.56837 0.0
C1016 C 0.32579 0.92749 0.5217 0.0
C1017 C 0.30799 0.91925 0.57759 0.0
C1018 C 0.27784 0.93049 0.55902 0.0
C1019 C 0.25505 0.93922 0.51146 0.0
C1020 C 0.2636 0.93811 0.48324 0.0
C1021 C 0.28604 0.93327 0.53083 0.0
C1022 C 0.30349 0.93454 0.47462 0.0
C1023 C 0.33433 0.9297 0.49363 0.0
H1024 H 0.56213 0.31299 0.57363 0.0
H1025 H 0.56394 0.40982 0.51442 0.0
H1026 H 0.54944 0.36256 0.4776 0.0
H1027 H 0.54662 0.29307 0.46141 0.0
H1028 H 0.54442 0.19544 0.5196 0.0
H1029 H 0.5487 0.2436 0.55773 0.0
C1030 C 0.55817 0.32394 0.55281 0.0
C1031 C 0.56472 0.36492 0.54679 0.0
C1032 C 0.55071 0.29633 0.5315 0.0
C1033 C 0.5595 0.37847 0.51963 0.0
C1034 C 0.55147 0.35141 0.4985 0.0
C1035 C 0.54655 0.28244 0.4825 0.0
C1036 C 0.546 0.24094 0.48784 0.0
C1037 C 0.54882 0.31017 0.50406 0.0
C1038 C 0.54509 0.22733 0.51512 0.0
C1039 C 0.54764 0.25486 0.53684 0.0
H1040 H 0.27189 0.52649 0.51229 0.0
H1041 H 0.19566 0.5496 0.44239 0.0
H1042 H 0.13676 0.548 0.47146 0.0
H1043 H 0.10838 0.55181 0.51703 0.0
H1044 H 0.18417 0.53648 0.58823 0.0
H1045 H 0.24126 0.52231 0.5586 0.0
C1046 C 0.24225 0.53035 0.50356 0.0
C1047 C 0.23794 0.53855 0.47543 0.0
C1048 C 0.2084 0.53118 0.52067 0.0
C1049 C 0.19955 0.54363 0.46412 0.0
C1050 C 0.16586 0.54275 0.4807 0.0
C1051 C 0.13709 0.54436 0.52618 0.0
C1052 C 0.14209 0.54605 0.55477 0.0
C1053 C 0.17008 0.53826 0.50911 0.0
C1054 C 0.17954 0.53592 0.56621 0.0
C1055 C 0.21234 0.5281 0.54927 0.0
H1056 H 0.91627 0.08609 0.52317 0.0
H1057 H 0.94058 0.16206 0.59292 0.0
H1058 H 0.96018 0.21672 0.56223 0.0
H1059 H 0.96192 0.24607 0.51509 0.0
H1060 H 0.93448 0.16955 0.44622 0.0
H1061 H 0.92513 0.11248 0.47683 0.0
C1062 C 0.92667 0.11424 0.53178 0.0
C1063 C 0.92642 0.11978 0.56042 0.0
C1064 C 0.93691 0.146 0.51401 0.0
C1065 C 0.94017 0.15672 0.57099 0.0
C1066 C 0.9512 0.18825 0.55341 0.0
C1067 C 0.95466 0.21671 0.50688 0.0
C1068 C 0.94833 0.21224 0.47846 0.0
C1069 C 0.94838 0.18376 0.52481 0.0
C1070 C 0.93885 0.17397 0.46807 0.0
C1071 C 0.93353 0.14121 0.48556 0.0
H1072 H 0.80306 0.06528 0.93658 0.0
H1073 H 0.90035 0.06453 0.99518 0.0
H1074 H 0.85493 0.04261 0.03117 0.0
H1075 H 0.78626 0.03449 0.04758 0.0
H1076 H 0.68811 0.03627 0.99015 0.0
H1077 H 0.73505 0.04655 0.95203 0.0
C1078 C 0.81455 0.05927 0.95704 0.0
C1079 C 0.85504 0.06723 0.96321 0.0
C1080 C 0.78795 0.04744 0.97793 0.0
C1081 C 0.86931 0.0592 0.98988 0.0
C1082 C 0.84331 0.0468 0.01055 0.0
C1083 C 0.77536 0.03614 0.02658 0.0
C1084 C 0.73404 0.03487 0.02149 0.0
C1085 C 0.80238 0.04253 1.00506 0.0
C1086 C 0.71993 0.03695 0.99437 0.0
C1087 C 0.74675 0.04314 0.97268 0.0
H1088 H 0.40111 0.81208 0.9388 0.0
H1089 H 0.41947 0.90953 0.99594 0.0
H1090 H 0.43952 0.86183 0.03138 0.0
H1091 H 0.44164 0.79267 0.04811 0.0
H1092 H 0.42187 0.6943 0.99241 0.0
H1093 H 0.41308 0.74208 0.95421 0.0
C1094 C 0.41043 0.82296 0.95879 0.0
C1095 C 0.40807 0.86436 0.96482 0.0
C1096 C 0.42117 0.79517 0.97939 0.0
C1097 C 0.4204 0.87788 0.99083 0.0
C1098 C 0.4318 0.8506 0.01117 0.0
C1099 C 0.43624 0.78174 0.02744 0.0
C1100 C 0.43193 0.74032 0.02292 0.0
C1101 C 0.43067 0.80923 1.00598 0.0
C1102 C 0.42535 0.72618 0.9962 0.0
C1103 C 0.42003 0.7535 0.97449 0.0
H1104 H 0.74319 0.46512 1.00662 0.0
H1105 H 0.66661 0.42176 0.07136 0.0
H1106 H 0.61074 0.41732 0.03949 0.0
H1107 H 0.58513 0.41871 0.99285 0.0
H1108 H 0.66133 0.45666 0.92636 0.0
H1109 H 0.7151 0.47108 0.95917 0.0
C1110 C 0.71413 0.45515 0.01369 0.0
C1111 C 0.70931 0.44324 0.04128 0.0
C1112 C 0.6819 0.45163 0.99491 0.0
C1113 C 0.67142 0.43041 0.05016 0.0
C1114 C 0.63929 0.428 0.03196 0.0
C1115 C 0.61314 0.43092 0.9854 0.0
C1116 C 0.61897 0.43632 0.95701 0.0
C1117 C 0.6444 0.43754 1.00419 0.0
C1118 C 0.65576 0.45215 0.94805 0.0
C1119 C 0.68675 0.46009 0.96682 0.0
H1120 H 0.02195 0.76128 1.00623 0.0
H1121 H 0.1086 0.71209 0.06319 0.0
H1122 H 0.11989 0.65534 0.0331 0.0
H1123 H 0.1083 0.62112 0.99002 0.0
H1124 H 0.0273 0.67165 0.93009 0.0
H1125 H 0.01005 0.72584 0.96205 0.0
C1126 C 0.04326 0.7381 0.01195 0.0
C1127 C 0.06464 0.74121 0.03679 0.0
C1128 C 0.05037 0.70553 0.99416 0.0
C1129 C 0.09217 0.71091 0.04399 0.0
C1130 C 0.09849 0.67816 0.0269 0.0
C1131 C 0.0862 0.64347 0.98411 0.0
C1132 C 0.06874 0.64215 0.9579 0.0
C1133 C 0.07804 0.67532 1.00191 0.0
C1134 C 0.04091 0.67193 0.9503 0.0
C1135 C 0.03129 0.70303 0.96848 0.0
loop_
_geom_bond_atom_site_label_1
_geom_bond_atom_site_label_2
_geom_bond_distance
_geom_bond_site_symmetry_2
_ccdc_geom_bond_type
O0 Zn1 1.953 . S
O0 C16 1.225 . S
Zn1 O0 1.953 . S
Zn1 O2 1.949 . S
Zn1 O8 1.919 . S
Zn1 O13 1.924 . S
O2 Zn1 1.949 . S
O2 Zn3 1.923 . S
O2 Zn4 1.950 . S
O2 Zn5 1.945 . S
Zn3 O2 1.923 . S
Zn3 O6 1.933 . S
Zn3 O9 1.941 . S
Zn3 O10 1.965 . S
Zn4 O2 1.950 . S
Zn4 O11 1.938 . S
Zn4 O12 1.906 . S
Zn4 O22 1.953 . S
Zn5 O2 1.945 . S
Zn5 O7 1.932 . S
Zn5 O14 1.977 . S
Zn5 O15 1.910 . S
O6 Zn3 1.933 . S
O6 C17 1.226 . S
O7 Zn5 1.932 . S
O7 C17 1.307 . S
O8 Zn1 1.919 . S
O8 C19 1.253 . S
O9 Zn3 1.941 . S
O9 C19 1.283 . S
O10 Zn3 1.965 . S
O10 C18 1.303 . S
O11 Zn4 1.938 . S
O11 C18 1.247 . S
O12 Zn4 1.906 . S
O12 C20 1.304 . S
O13 Zn1 1.924 . S
O13 C21 1.311 . S
O14 Zn5 1.977 . S
O14 C20 1.272 . S
O15 Zn5 1.910 . S
O15 C21 1.231 . S
C16 O0 1.225 . S
C16 O22 1.298 . S
C17 O6 1.226 . S
C17 O7 1.307 . S
C18 O10 1.303 . S
C18 O11 1.247 . S
C19 O8 1.253 . S
C19 O9 1.283 . S
C20 O12 1.304 . S
C20 O14 1.272 . S
C21 O13 1.311 . S
C21 O15 1.231 . S
O22 Zn4 1.953 . S
O22 C16 1.298 . S
O23 Zn24 1.953 . S
O23 C39 1.225 . S
Zn24 O23 1.953 . S
Zn24 O25 1.949 . S
Zn24 O31 1.919 . S
Zn24 O36 1.924 . S
O25 Zn24 1.949 . S
O25 Zn26 1.923 . S
O25 Zn27 1.950 . S
O25 Zn28 1.945 . S
Zn26 O25 1.923 . S
Zn26 O29 1.933 . S
Zn26 O32 1.941 . S
Zn26 O33 1.965 . S
Zn27 O25 1.950 . S
Zn27 O34 1.938 . S
Zn27 O35 1.906 . S
Zn27 O45 1.953 . S
Zn28 O25 1.945 . S
Zn28 O30 1.932 . S
Zn28 O37 1.977 . S
Zn28 O38 1.910 . S
O29 Zn26 1.933 . S
O29 C40 1.226 . S
O30 Zn28 1.932 . S
O30 C40 1.307 . S
O31 Zn24 1.919 . S
O31 C42 1.253 . S
O32 Zn26 1.941 . S
O32 C42 1.283 . S
O33 Zn26 1.965 . S
O33 C41 1.303 . S
O34 Zn27 1.938 . S
O34 C41 1.247 . S
O35 Zn27 1.906 . S
O35 C43 1.304 . S
O36 Zn24 1.924 . S
O36 C44 1.311 . S
O37 Zn28 1.977 . S
O37 C43 1.272 . S
O38 Zn28 1.910 . S
O38 C44 1.231 . S
C39 O23 1.225 . S
C39 O45 1.298 . S
C40 O29 1.226 . S
C40 O30 1.307 . S
C41 O33 1.303 . S
C41 O34 1.247 . S
C42 O31 1.253 . S
C42 O32 1.283 . S
C43 O35 1.304 . S
C43 O37 1.272 . S
C44 O36 1.311 . S
C44 O38 1.231 . S
O45 Zn27 1.953 . S
O45 C39 1.298 . S
O46 Zn47 1.953 . S
O46 C62 1.225 . S
Zn47 O46 1.953 . S
Zn47 O48 1.949 . S
Zn47 O54 1.919 . S
Zn47 O59 1.924 . S
O48 Zn47 1.949 . S
O48 Zn49 1.923 . S
O48 Zn50 1.950 . S
O48 Zn51 1.945 . S
Zn49 O48 1.923 . S
Zn49 O52 1.933 . S
Zn49 O55 1.941 . S
Zn49 O56 1.965 . S
Zn50 O48 1.950 . S
Zn50 O57 1.938 . S
Zn50 O58 1.906 1_655 S
Zn50 O68 1.953 . S
Zn51 O48 1.945 . S
Zn51 O53 1.932 . S
Zn51 O60 1.977 1_655 S
Zn51 O61 1.910 . S
O52 Zn49 1.933 . S
O52 C63 1.226 . S
O53 Zn51 1.932 . S
O53 C63 1.307 . S
O54 Zn47 1.919 . S
O54 C65 1.253 . S
O55 Zn49 1.941 . S
O55 C65 1.283 . S
O56 Zn49 1.965 . S
O56 C64 1.303 . S
O57 Zn50 1.938 . S
O57 C64 1.247 . S
O58 Zn50 1.906 1_455 S
O58 C66 1.304 . S
O59 Zn47 1.924 . S
O59 C67 1.311 . S
O60 Zn51 1.977 1_455 S
O60 C66 1.272 . S
O61 Zn51 1.910 . S
O61 C67 1.231 . S
C62 O46 1.225 . S
C62 O68 1.298 . S
C63 O52 1.226 . S
C63 O53 1.307 . S
C64 O56 1.303 . S
C64 O57 1.247 . S
C65 O54 1.253 . S
C65 O55 1.283 . S
C66 O58 1.304 . S
C66 O60 1.272 . S
C67 O59 1.311 . S
C67 O61 1.231 . S
O68 Zn50 1.953 . S
O68 C62 1.298 . S
O69 Zn70 1.953 . S
O69 C85 1.225 . S
Zn70 O69 1.953 . S
Zn70 O71 1.949 . S
Zn70 O77 1.919 . S
Zn70 O82 1.924 . S
O71 Zn70 1.949 . S
O71 Zn72 1.923 . S
O71 Zn73 1.950 . S
O71 Zn74 1.945 . S
Zn72 O71 1.923 . S
Zn72 O75 1.933 . S
Zn72 O78 1.941 1_565 S
Zn72 O79 1.965 1_565 S
Zn73 O71 1.950 . S
Zn73 O80 1.938 . S
Zn73 O81 1.906 . S
Zn73 O91 1.953 . S
Zn74 O71 1.945 . S
Zn74 O76 1.932 . S
Zn74 O83 1.977 . S
Zn74 O84 1.910 . S
O75 Zn72 1.933 . S
O75 C86 1.226 . S
O76 Zn74 1.932 . S
O76 C86 1.307 . S
O77 Zn70 1.919 . S
O77 C88 1.253 . S
O78 Zn72 1.941 1_545 S
O78 C88 1.283 1_545 S
O79 Zn72 1.965 1_545 S
O79 C87 1.303 . S
O80 Zn73 1.938 . S
O80 C87 1.247 1_565 S
O81 Zn73 1.906 . S
O81 C89 1.304 . S
O82 Zn70 1.924 . S
O82 C90 1.311 . S
O83 Zn74 1.977 . S
O83 C89 1.272 . S
O84 Zn74 1.910 . S
O84 C90 1.231 . S
C85 O69 1.225 . S
C85 O91 1.298 . S
C86 O75 1.226 . S
C86 O76 1.307 . S
C87 O79 1.303 . S
C87 O80 1.247 1_545 S
C88 O77 1.253 . S
C88 O78 1.283 1_565 S
C89 O81 1.304 . S
C89 O83 1.272 . S
C90 O82 1.311 . S
C90 O84 1.231 . S
O91 Zn73 1.953 . S
O91 C85 1.298 . S
O92 Zn93 1.953 . S
O92 C108 1.225 . S
Zn93 O92 1.953 . S
Zn93 O94 1.949 . S
Zn93 O100 1.919 . S
Zn93 O105 1.924 . S
O94 Zn93 1.949 . S
O94 Zn95 1.923 . S
O94 Zn96 1.950 . S
O94 Zn97 1.945 . S
Zn95 O94 1.923 . S
Zn95 O98 1.933 . S
Zn95 O101 1.941 1_455 S
Zn95 O102 1.965 1_455 S
Zn96 O94 1.950 . S
Zn96 O103 1.938 . S
Zn96 O104 1.906 . S
Zn96 O114 1.953 . S
Zn97 O94 1.945 . S
Zn97 O99 1.932 . S
Zn97 O106 1.977 . S
Zn97 O107 1.910 . S
O98 Zn95 1.933 . S
O98 C109 1.226 . S
O99 Zn97 1.932 . S
O99 C109 1.307 . S
O100 Zn93 1.919 . S
O100 C111 1.253 . S
O101 Zn95 1.941 1_655 S
O101 C111 1.283 1_655 S
O102 Zn95 1.965 1_655 S
O102 C110 1.303 . S
O103 Zn96 1.938 . S
O103 C110 1.247 1_455 S
O104 Zn96 1.906 . S
O104 C112 1.304 . S
O105 Zn93 1.924 . S
O105 C113 1.311 . S
O106 Zn97 1.977 . S
O106 C112 1.272 . S
O107 Zn97 1.910 . S
O107 C113 1.231 . S
C108 O92 1.225 . S
C108 O114 1.298 . S
C109 O98 1.226 . S
C109 O99 1.307 . S
C110 O102 1.303 . S
C110 O103 1.247 1_655 S
C111 O100 1.253 . S
C111 O101 1.283 1_455 S
C112 O104 1.304 . S
C112 O106 1.272 . S
C113 O105 1.311 . S
C113 O107 1.231 . S
O114 Zn96 1.953 . S
O114 C108 1.298 . S
O115 Zn116 1.953 . S
O115 C131 1.225 . S
Zn116 O115 1.953 . S
Zn116 O117 1.949 . S
Zn116 O123 1.919 . S
Zn116 O128 1.924 . S
O117 Zn116 1.949 . S
O117 Zn118 1.923 . S
O117 Zn119 1.950 . S
O117 Zn120 1.945 . S
Zn118 O117 1.923 . S
Zn118 O121 1.933 . S
Zn118 O124 1.941 1_545 S
Zn118 O125 1.965 1_545 S
Zn119 O117 1.950 . S
Zn119 O126 1.938 . S
Zn119 O127 1.906 . S
Zn119 O137 1.953 . S
Zn120 O117 1.945 . S
Zn120 O122 1.932 . S
Zn120 O129 1.977 . S
Zn120 O130 1.910 . S
O121 Zn118 1.933 . S
O121 C132 1.226 . S
O122 Zn120 1.932 . S
O122 C132 1.307 . S
O123 Zn116 1.919 . S
O123 C134 1.253 . S
O124 Zn118 1.941 1_565 S
O124 C134 1.283 1_565 S
O125 Zn118 1.965 1_565 S
O125 C133 1.303 . S
O126 Zn119 1.938 . S
O126 C133 1.247 1_545 S
O127 Zn119 1.906 . S
O127 C135 1.304 . S
O128 Zn116 1.924 . S
O128 C136 1.311 . S
O129 Zn120 1.977 . S
O129 C135 1.272 . S
O130 Zn120 1.910 . S
O130 C136 1.231 . S
C131 O115 1.225 . S
C131 O137 1.298 . S
C132 O121 1.226 . S
C132 O122 1.307 . S
C133 O125 1.303 . S
C133 O126 1.247 1_565 S
C134 O123 1.253 . S
C134 O124 1.283 1_545 S
C135 O127 1.304 . S
C135 O129 1.272 . S
C136 O128 1.311 . S
C136 O130 1.231 . S
O137 Zn119 1.953 . S
O137 C131 1.298 . S
O138 Zn139 1.953 . S
O138 C154 1.225 . S
Zn139 O138 1.953 . S
Zn139 O140 1.949 . S
Zn139 O146 1.919 . S
Zn139 O151 1.924 . S
O140 Zn139 1.949 . S
O140 Zn141 1.923 . S
O140 Zn142 1.950 . S
O140 Zn143 1.945 . S
Zn141 O140 1.923 . S
Zn141 O144 1.933 . S
Zn141 O147 1.941 . S
Zn141 O148 1.965 . S
Zn142 O140 1.950 . S
Zn142 O149 1.938 . S
Zn142 O150 1.906 . S
Zn142 O160 1.953 . S
Zn143 O140 1.945 . S
Zn143 O145 1.932 . S
Zn143 O152 1.977 . S
Zn143 O153 1.910 . S
O144 Zn141 1.933 . S
O144 C155 1.226 . S
O145 Zn143 1.932 . S
O145 C155 1.307 . S
O146 Zn139 1.919 . S
O146 C157 1.253 . S
O147 Zn141 1.941 . S
O147 C157 1.283 . S
O148 Zn141 1.965 . S
O148 C156 1.303 . S
O149 Zn142 1.938 . S
O149 C156 1.247 . S
O150 Zn142 1.906 . S
O150 C158 1.304 . S
O151 Zn139 1.924 . S
O151 C159 1.311 . S
O152 Zn143 1.977 . S
O152 C158 1.272 . S
O153 Zn143 1.910 . S
O153 C159 1.231 . S
C154 O138 1.225 . S
C154 O160 1.298 . S
C155 O144 1.226 . S
C155 O145 1.307 . S
C156 O148 1.303 . S
C156 O149 1.247 . S
C157 O146 1.253 . S
C157 O147 1.283 . S
C158 O150 1.304 . S
C158 O152 1.272 . S
C159 O151 1.311 . S
C159 O153 1.231 . S
O160 Zn142 1.953 . S
O160 C154 1.298 . S
O161 Zn162 1.953 . S
O161 C177 1.225 . S
Zn162 O161 1.953 . S
Zn162 O163 1.949 . S
Zn162 O169 1.919 . S
Zn162 O174 1.924 . S
O163 Zn162 1.949 . S
O163 Zn164 1.923 . S
O163 Zn165 1.950 . S
O163 Zn166 1.945 . S
Zn164 O163 1.923 . S
Zn164 O167 1.933 . S
Zn164 O170 1.941 . S
Zn164 O171 1.965 . S
Zn165 O163 1.950 . S
Zn165 O172 1.938 . S
Zn165 O173 1.906 . S
Zn165 O183 1.953 . S
Zn166 O163 1.945 . S
Zn166 O168 1.932 . S
Zn166 O175 1.977 . S
Zn166 O176 1.910 . S
O167 Zn164 1.933 . S
O167 C178 1.226 . S
O168 Zn166 1.932 . S
O168 C178 1.307 . S
O169 Zn162 1.919 . S
O169 C180 1.253 . S
O170 Zn164 1.941 . S
O170 C180 1.283 . S
O171 Zn164 1.965 . S
O171 C179 1.303 . S
O172 Zn165 1.938 . S
O172 C179 1.247 . S
O173 Zn165 1.906 . S
O173 C181 1.304 . S
O174 Zn162 1.924 . S
O174 C182 1.311 . S
O175 Zn166 1.977 . S
O175 C181 1.272 . S
O176 Zn166 1.910 . S
O176 C182 1.231 . S
C177 O161 1.225 . S
C177 O183 1.298 . S
C178 O167 1.226 . S
C178 O168 1.307 . S
C179 O171 1.303 . S
C179 O172 1.247 . S
C180 O169 1.253 . S
C180 O170 1.283 . S
C181 O173 1.304 . S
C181 O175 1.272 . S
C182 O174 1.311 . S
C182 O176 1.231 . S
O183 Zn165 1.953 . S
O183 C177 1.298 . S
O184 Zn185 1.953 . S
O184 C200 1.225 . S
Zn185 O184 1.953 . S
Zn185 O186 1.949 . S
Zn185 O192 1.919 . S
Zn185 O197 1.924 . S
O186 Zn185 1.949 . S
O186 Zn187 1.923 . S
O186 Zn188 1.950 . S
O186 Zn189 1.945 . S
Zn187 O186 1.923 . S
Zn187 O190 1.933 . S
Zn187 O193 1.941 . S
Zn187 O194 1.965 . S
Zn188 O186 1.950 . S
Zn188 O195 1.938 . S
Zn188 O196 1.906 . S
Zn188 O206 1.953 . S
Zn189 O186 1.945 . S
Zn189 O191 1.932 . S
Zn189 O198 1.977 . S
Zn189 O199 1.910 . S
O190 Zn187 1.933 . S
O190 C201 1.226 . S
O191 Zn189 1.932 . S
O191 C201 1.307 . S
O192 Zn185 1.919 . S
O192 C203 1.253 . S
O193 Zn187 1.941 . S
O193 C203 1.283 . S
O194 Zn187 1.965 . S
O194 C202 1.303 . S
O195 Zn188 1.938 . S
O195 C202 1.247 . S
O196 Zn188 1.906 . S
O196 C204 1.304 . S
O197 Zn185 1.924 . S
O197 C205 1.311 . S
O198 Zn189 1.977 . S
O198 C204 1.272 . S
O199 Zn189 1.910 . S
O199 C205 1.231 . S
C200 O184 1.225 . S
C200 O206 1.298 . S
C201 O190 1.226 . S
C201 O191 1.307 . S
C202 O194 1.303 . S
C202 O195 1.247 . S
C203 O192 1.253 . S
C203 O193 1.283 . S
C204 O196 1.304 . S
C204 O198 1.272 . S
C205 O197 1.311 . S
C205 O199 1.231 . S
O206 Zn188 1.953 . S
O206 C200 1.298 . S
O207 Zn208 1.953 . S
O207 C223 1.225 . S
Zn208 O207 1.953 . S
Zn208 O209 1.949 . S
Zn208 O215 1.919 . S
Zn208 O220 1.924 . S
O209 Zn208 1.949 . S
O209 Zn210 1.923 . S
O209 Zn211 1.950 . S
O209 Zn212 1.945 . S
Zn210 O209 1.923 . S
Zn210 O213 1.933 . S
Zn210 O216 1.941 . S
Zn210 O217 1.965 . S
Zn211 O209 1.950 . S
Zn211 O218 1.938 . S
Zn211 O219 1.906 . S
Zn211 O229 1.953 . S
Zn212 O209 1.945 . S
Zn212 O214 1.932 . S
Zn212 O221 1.977 . S
Zn212 O222 1.910 . S
O213 Zn210 1.933 . S
O213 C224 1.226 . S
O214 Zn212 1.932 . S
O214 C224 1.307 . S
O215 Zn208 1.919 . S
O215 C226 1.253 . S
O216 Zn210 1.941 . S
O216 C226 1.283 . S
O217 Zn210 1.965 . S
O217 C225 1.303 . S
O218 Zn211 1.938 . S
O218 C225 1.247 . S
O219 Zn211 1.906 . S
O219 C227 1.304 . S
O220 Zn208 1.924 . S
O220 C228 1.311 . S
O221 Zn212 1.977 . S
O221 C227 1.272 . S
O222 Zn212 1.910 . S
O222 C228 1.231 . S
C223 O207 1.225 . S
C223 O229 1.298 . S
C224 O213 1.226 . S
C224 O214 1.307 . S
C225 O217 1.303 . S
C225 O218 1.247 . S
C226 O215 1.253 . S
C226 O216 1.283 . S
C227 O219 1.304 . S
C227 O221 1.272 . S
C228 O220 1.311 . S
C228 O222 1.231 . S
O229 Zn211 1.953 . S
O229 C223 1.298 . S
O230 Zn231 1.953 . S
O230 C246 1.225 . S
Zn231 O230 1.953 . S
Zn231 O232 1.949 . S
Zn231 O238 1.919 . S
Zn231 O243 1.924 . S
O232 Zn231 1.949 . S
O232 Zn233 1.923 . S
O232 Zn234 1.950 . S
O232 Zn235 1.945 . S
Zn233 O232 1.923 . S
Zn233 O236 1.933 . S
Zn233 O239 1.941 . S
Zn233 O240 1.965 . S
Zn234 O232 1.950 . S
Zn234 O241 1.938 . S
Zn234 O242 1.906 1_455 S
Zn234 O252 1.953 . S
Zn235 O232 1.945 . S
Zn235 O237 1.932 . S
Zn235 O244 1.977 1_455 S
Zn235 O245 1.918 . S
O236 Zn233 1.933 . S
O236 C247 1.226 . S
O237 Zn235 1.932 . S
O237 C247 1.307 . S
O238 Zn231 1.919 . S
O238 C249 1.253 . S
O239 Zn233 1.941 . S
O239 C249 1.283 . S
O240 Zn233 1.965 . S
O240 C248 1.303 . S
O241 Zn234 1.938 . S
O241 C248 1.247 . S
O242 Zn234 1.906 1_655 S
O242 C250 1.304 . S
O243 Zn231 1.924 . S
O243 C251 1.311 . S
O244 Zn235 1.977 1_655 S
O244 C250 1.272 . S
O245 Zn235 1.918 . S
O245 C251 1.236 . S
C246 O230 1.225 . S
C246 O252 1.298 . S
C247 O236 1.226 . S
C247 O237 1.307 . S
C248 O240 1.303 . S
C248 O241 1.247 . S
C249 O238 1.253 . S
C249 O239 1.283 . S
C250 O242 1.304 . S
C250 O244 1.272 . S
C251 O243 1.311 . S
C251 O245 1.236 . S
O252 Zn234 1.953 . S
O252 C246 1.298 . S
O253 Zn254 1.953 . S
O253 C269 1.225 . S
Zn254 O253 1.953 . S
Zn254 O255 1.949 . S
Zn254 O261 1.919 . S
Zn254 O266 1.924 . S
O255 Zn254 1.949 . S
O255 Zn256 1.923 . S
O255 Zn257 1.950 . S
O255 Zn258 1.945 . S
Zn256 O255 1.923 . S
Zn256 O259 1.933 . S
Zn256 O262 1.941 . S
Zn256 O263 1.965 . S
Zn257 O255 1.950 . S
Zn257 O264 1.938 . S
Zn257 O265 1.906 1_545 S
Zn257 O275 1.953 . S
Zn258 O255 1.945 . S
Zn258 O260 1.932 . S
Zn258 O267 1.977 1_545 S
Zn258 O268 1.921 . S
O259 Zn256 1.933 . S
O259 C270 1.226 . S
O260 Zn258 1.932 . S
O260 C270 1.307 . S
O261 Zn254 1.919 . S
O261 C272 1.253 . S
O262 Zn256 1.941 . S
O262 C272 1.283 . S
O263 Zn256 1.965 . S
O263 C271 1.303 . S
O264 Zn257 1.938 . S
O264 C271 1.247 . S
O265 Zn257 1.906 1_565 S
O265 C273 1.304 . S
O266 Zn254 1.924 . S
O266 C274 1.311 . S
O267 Zn258 1.977 1_565 S
O267 C273 1.272 . S
O268 Zn258 1.921 . S
O268 C274 1.239 . S
C269 O253 1.225 . S
C269 O275 1.298 . S
C270 O259 1.226 . S
C270 O260 1.307 . S
C271 O263 1.303 . S
C271 O264 1.247 . S
C272 O261 1.253 . S
C272 O262 1.283 . S
C273 O265 1.304 . S
C273 O267 1.272 . S
C274 O266 1.311 . S
C274 O268 1.239 . S
O275 Zn257 1.953 . S
O275 C269 1.298 . S
O276 Zn277 1.953 . S
O276 C292 1.225 . S
Zn277 O276 1.953 . S
Zn277 O278 1.949 . S
Zn277 O284 1.919 . S
Zn277 O289 1.924 . S
O278 Zn277 1.949 . S
O278 Zn279 1.923 . S
O278 Zn280 1.950 . S
O278 Zn281 1.945 . S
Zn279 O278 1.923 . S
Zn279 O282 1.933 . S
Zn279 O285 1.941 . S
Zn279 O286 1.965 . S
Zn280 O278 1.950 . S
Zn280 O287 1.938 . S
Zn280 O288 1.906 1_655 S
Zn280 O298 1.953 . S
Zn281 O278 1.945 . S
Zn281 O283 1.932 . S
Zn281 O290 1.977 1_655 S
Zn281 O291 1.911 . S
O282 Zn279 1.933 . S
O282 C293 1.226 . S
O283 Zn281 1.932 . S
O283 C293 1.307 . S
O284 Zn277 1.919 . S
O284 C295 1.253 . S
O285 Zn279 1.941 . S
O285 C295 1.283 . S
O286 Zn279 1.965 . S
O286 C294 1.303 . S
O287 Zn280 1.938 . S
O287 C294 1.247 . S
O288 Zn280 1.906 1_455 S
O288 C296 1.304 . S
O289 Zn277 1.924 . S
O289 C297 1.311 . S
O290 Zn281 1.977 1_455 S
O290 C296 1.272 . S
O291 Zn281 1.911 . S
O291 C297 1.231 . S
C292 O276 1.225 . S
C292 O298 1.298 . S
C293 O282 1.226 . S
C293 O283 1.307 . S
C294 O286 1.303 . S
C294 O287 1.247 . S
C295 O284 1.253 . S
C295 O285 1.283 . S
C296 O288 1.304 . S
C296 O290 1.272 . S
C297 O289 1.311 . S
C297 O291 1.231 . S
O298 Zn280 1.953 . S
O298 C292 1.298 . S
O299 Zn300 1.953 . S
O299 C315 1.225 . S
Zn300 O299 1.953 . S
Zn300 O301 1.949 . S
Zn300 O307 1.919 . S
Zn300 O312 1.924 . S
O301 Zn300 1.949 . S
O301 Zn302 1.923 . S
O301 Zn303 1.950 . S
O301 Zn304 1.945 . S
Zn302 O301 1.923 . S
Zn302 O305 1.933 . S
Zn302 O308 1.941 . S
Zn302 O309 1.965 . S
Zn303 O301 1.950 . S
Zn303 O310 1.938 . S
Zn303 O311 1.906 1_565 S
Zn303 O321 1.953 . S
Zn304 O301 1.945 . S
Zn304 O306 1.932 . S
Zn304 O313 1.977 1_565 S
Zn304 O314 1.918 . S
O305 Zn302 1.933 . S
O305 C316 1.226 . S
O306 Zn304 1.932 . S
O306 C316 1.307 . S
O307 Zn300 1.919 . S
O307 C318 1.253 . S
O308 Zn302 1.941 . S
O308 C318 1.283 . S
O309 Zn302 1.965 . S
O309 C317 1.303 . S
O310 Zn303 1.938 . S
O310 C317 1.247 . S
O311 Zn303 1.906 1_545 S
O311 C319 1.304 . S
O312 Zn300 1.924 . S
O312 C320 1.311 . S
O313 Zn304 1.977 1_545 S
O313 C319 1.272 . S
O314 Zn304 1.918 . S
O314 C320 1.236 . S
C315 O299 1.225 . S
C315 O321 1.298 . S
C316 O305 1.226 . S
C316 O306 1.307 . S
C317 O309 1.303 . S
C317 O310 1.247 . S
C318 O307 1.253 . S
C318 O308 1.283 . S
C319 O311 1.304 . S
C319 O313 1.272 . S
C320 O312 1.311 . S
C320 O314 1.236 . S
O321 Zn303 1.953 . S
O321 C315 1.298 . S
O322 Zn323 1.953 . S
O322 C338 1.225 . S
Zn323 O322 1.953 . S
Zn323 O324 1.949 . S
Zn323 O330 1.919 . S
Zn323 O335 1.924 . S
O324 Zn323 1.949 . S
O324 Zn325 1.923 . S
O324 Zn326 1.950 . S
O324 Zn327 1.945 . S
Zn325 O324 1.923 . S
Zn325 O328 1.933 . S
Zn325 O331 1.941 . S
Zn325 O332 1.965 . S
Zn326 O324 1.950 . S
Zn326 O333 1.938 . S
Zn326 O334 1.906 . S
Zn326 O344 1.953 . S
Zn327 O324 1.945 . S
Zn327 O329 1.932 . S
Zn327 O336 1.977 . S
Zn327 O337 1.910 . S
O328 Zn325 1.933 . S
O328 C339 1.226 . S
O329 Zn327 1.932 . S
O329 C339 1.307 . S
O330 Zn323 1.919 . S
O330 C341 1.253 . S
O331 Zn325 1.941 . S
O331 C341 1.283 . S
O332 Zn325 1.965 . S
O332 C340 1.303 . S
O333 Zn326 1.938 . S
O333 C340 1.247 . S
O334 Zn326 1.906 . S
O334 C342 1.304 . S
O335 Zn323 1.924 . S
O335 C343 1.311 . S
O336 Zn327 1.977 . S
O336 C342 1.272 . S
O337 Zn327 1.910 . S
O337 C343 1.231 . S
C338 O322 1.225 . S
C338 O344 1.298 . S
C339 O328 1.226 . S
C339 O329 1.307 . S
C340 O332 1.303 . S
C340 O333 1.247 . S
C341 O330 1.253 . S
C341 O331 1.283 . S
C342 O334 1.304 . S
C342 O336 1.272 . S
C343 O335 1.311 . S
C343 O337 1.231 . S
O344 Zn326 1.953 . S
O344 C338 1.298 . S
O345 Zn346 1.953 . S
O345 C361 1.225 . S
Zn346 O345 1.953 . S
Zn346 O347 1.949 . S
Zn346 O353 1.919 . S
Zn346 O358 1.924 . S
O347 Zn346 1.949 . S
O347 Zn348 1.923 . S
O347 Zn349 1.950 . S
O347 Zn350 1.945 . S
Zn348 O347 1.923 . S
Zn348 O351 1.933 . S
Zn348 O354 1.941 . S
Zn348 O355 1.965 . S
Zn349 O347 1.950 . S
Zn349 O356 1.938 . S
Zn349 O357 1.906 . S
Zn349 O367 1.953 . S
Zn350 O347 1.945 . S
Zn350 O352 1.932 . S
Zn350 O359 1.977 . S
Zn350 O360 1.910 . S
O351 Zn348 1.933 . S
O351 C362 1.226 . S
O352 Zn350 1.932 . S
O352 C362 1.307 . S
O353 Zn346 1.919 . S
O353 C364 1.253 . S
O354 Zn348 1.941 . S
O354 C364 1.283 . S
O355 Zn348 1.965 . S
O355 C363 1.303 . S
O356 Zn349 1.938 . S
O356 C363 1.247 . S
O357 Zn349 1.906 . S
O357 C365 1.304 . S
O358 Zn346 1.924 . S
O358 C366 1.311 . S
O359 Zn350 1.977 . S
O359 C365 1.272 . S
O360 Zn350 1.910 . S
O360 C366 1.231 . S
C361 O345 1.225 . S
C361 O367 1.298 . S
C362 O351 1.226 . S
C362 O352 1.307 . S
C363 O355 1.303 . S
C363 O356 1.247 . S
C364 O353 1.253 . S
C364 O354 1.283 . S
C365 O357 1.304 . S
C365 O359 1.272 . S
C366 O358 1.311 . S
C366 O360 1.231 . S
O367 Zn349 1.953 . S
O367 C361 1.298 . S
H368 C374 0.930 . S
H369 C377 0.930 . S
H370 C378 0.930 . S
H371 C379 0.930 . S
H372 C382 0.930 . S
H373 C383 0.930 . S
C374 H368 0.930 . S
C374 C375 1.355 . S
C374 C376 1.415 . S
C375 C374 1.355 . S
C375 C377 1.419 . S
C376 C374 1.415 . S
C376 C381 1.425 . S
C376 C383 1.409 . S
C377 H369 0.930 . S
C377 C375 1.419 . S
C377 C378 1.362 . S
C378 H370 0.930 . S
C378 C377 1.362 . S
C378 C381 1.409 . S
C379 H371 0.930 . S
C379 C380 1.355 . S
C379 C381 1.415 . S
C380 C379 1.355 . S
C380 C382 1.419 . S
C381 C376 1.425 . S
C381 C378 1.409 . S
C381 C379 1.415 . S
C382 H372 0.930 . S
C382 C380 1.419 . S
C382 C383 1.362 . S
C383 H373 0.930 . S
C383 C376 1.409 . S
C383 C382 1.362 . S
H384 C390 0.930 . S
H385 C393 0.930 . S
H386 C394 0.930 . S
H387 C395 0.930 . S
H388 C398 0.930 . S
H389 C399 0.930 . S
C390 H384 0.930 . S
C390 C391 1.355 . S
C390 C392 1.415 . S
C391 C390 1.355 . S
C391 C393 1.419 . S
C392 C390 1.415 . S
C392 C397 1.425 . S
C392 C399 1.409 . S
C393 H385 0.930 . S
C393 C391 1.419 . S
C393 C394 1.362 . S
C394 H386 0.930 . S
C394 C393 1.362 . S
C394 C397 1.409 . S
C395 H387 0.930 . S
C395 C396 1.355 . S
C395 C397 1.415 . S
C396 C395 1.355 . S
C396 C398 1.419 . S
C397 C392 1.425 . S
C397 C394 1.409 . S
C397 C395 1.415 . S
C398 H388 0.930 . S
C398 C396 1.419 . S
C398 C399 1.362 . S
C399 H389 0.930 . S
C399 C392 1.409 . S
C399 C398 1.362 . S
H400 C406 0.930 . S
H401 C409 0.930 . S
H402 C410 0.930 . S
H403 C411 0.930 . S
H404 C414 0.930 . S
H405 C415 0.930 . S
C406 H400 0.930 . S
C406 C407 1.355 . S
C406 C408 1.415 . S
C407 C406 1.355 . S
C407 C409 1.419 . S
C408 C406 1.415 . S
C408 C413 1.425 . S
C408 C415 1.409 . S
C409 H401 0.930 . S
C409 C407 1.419 . S
C409 C410 1.362 . S
C410 H402 0.930 . S
C410 C409 1.362 . S
C410 C413 1.409 . S
C411 H403 0.930 . S
C411 C412 1.355 . S
C411 C413 1.415 . S
C412 C411 1.355 . S
C412 C414 1.419 . S
C413 C408 1.425 . S
C413 C410 1.409 . S
C413 C411 1.415 . S
C414 H404 0.930 . S
C414 C412 1.419 . S
C414 C415 1.362 . S
C415 H405 0.930 . S
C415 C408 1.409 . S
C415 C414 1.362 . S
H416 C422 0.930 . S
H417 C425 0.930 . S
H418 C426 0.930 . S
H419 C427 0.930 . S
H420 C430 0.930 . S
H421 C431 0.930 . S
C422 H416 0.930 . S
C422 C423 1.355 . S
C422 C424 1.415 . S
C423 C422 1.355 . S
C423 C425 1.419 . S
C424 C422 1.415 . S
C424 C429 1.425 . S
C424 C431 1.409 . S
C425 H417 0.930 . S
C425 C423 1.419 . S
C425 C426 1.362 . S
C426 H418 0.930 . S
C426 C425 1.362 . S
C426 C429 1.409 . S
C427 H419 0.930 . S
C427 C428 1.355 . S
C427 C429 1.415 . S
C428 C427 1.355 . S
C428 C430 1.419 . S
C429 C424 1.425 . S
C429 C426 1.409 . S
C429 C427 1.415 . S
C430 H420 0.930 . S
C430 C428 1.419 . S
C430 C431 1.362 . S
C431 H421 0.930 . S
C431 C424 1.409 . S
C431 C430 1.362 . S
H432 C438 0.930 . S
H433 C441 0.930 . S
H434 C442 0.930 . S
H435 C443 0.930 . S
H436 C446 0.930 . S
H437 C447 0.930 . S
C438 H432 0.930 . S
C438 C439 1.355 . S
C438 C440 1.415 . S
C439 C438 1.355 . S
C439 C441 1.419 . S
C440 C438 1.415 . S
C440 C445 1.425 . S
C440 C447 1.409 . S
C441 H433 0.930 . S
C441 C439 1.419 . S
C441 C442 1.362 . S
C442 H434 0.930 . S
C442 C441 1.362 . S
C442 C445 1.409 . S
C443 H435 0.930 . S
C443 C444 1.355 . S
C443 C445 1.415 . S
C444 C443 1.355 . S
C444 C446 1.419 . S
C445 C440 1.425 . S
C445 C442 1.409 . S
C445 C443 1.415 . S
C446 H436 0.930 . S
C446 C444 1.419 . S
C446 C447 1.362 . S
C447 H437 0.930 . S
C447 C440 1.409 . S
C447 C446 1.362 . S
H448 C454 0.930 . S
H449 C457 0.930 . S
H450 C458 0.930 . S
H451 C459 0.930 . S
H452 C462 0.930 . S
H453 C463 0.930 . S
C454 H448 0.930 . S
C454 C455 1.355 . S
C454 C456 1.415 . S
C455 C454 1.355 . S
C455 C457 1.419 . S
C456 C454 1.415 . S
C456 C461 1.425 . S
C456 C463 1.409 . S
C457 H449 0.930 . S
C457 C455 1.419 . S
C457 C458 1.362 . S
C458 H450 0.930 . S
C458 C457 1.362 . S
C458 C461 1.409 . S
C459 H451 0.930 . S
C459 C460 1.355 . S
C459 C461 1.415 . S
C460 C459 1.355 . S
C460 C462 1.419 . S
C461 C456 1.425 . S
C461 C458 1.409 . S
C461 C459 1.415 . S
C462 H452 0.930 . S
C462 C460 1.419 . S
C462 C463 1.362 . S
C463 H453 0.930 . S
C463 C456 1.409 . S
C463 C462 1.362 . S
H464 C470 0.930 . S
H465 C473 0.930 . S
H466 C474 0.930 . S
H467 C475 0.930 . S
H468 C478 0.930 . S
H469 C479 0.930 . S
C470 H464 0.930 . S
C470 C471 1.355 . S
C470 C472 1.415 . S
C471 C470 1.355 . S
C471 C473 1.419 . S
C472 C470 1.415 . S
C472 C477 1.425 . S
C472 C479 1.409 . S
C473 H465 0.930 . S
C473 C471 1.419 . S
C473 C474 1.362 . S
C474 H466 0.930 . S
C474 C473 1.362 . S
C474 C477 1.409 . S
C475 H467 0.930 . S
C475 C476 1.355 . S
C475 C477 1.415 . S
C476 C475 1.355 . S
C476 C478 1.419 . S
C477 C472 1.425 . S
C477 C474 1.409 . S
C477 C475 1.415 . S
C478 H468 0.930 . S
C478 C476 1.419 . S
C478 C479 1.362 . S
C479 H469 0.930 . S
C479 C472 1.409 . S
C479 C478 1.362 . S
H480 C486 0.930 . S
H481 C489 0.930 . S
H482 C490 0.930 . S
H483 C491 0.930 . S
H484 C494 0.930 . S
H485 C495 0.930 . S
C486 H480 0.930 . S
C486 C487 1.355 . S
C486 C488 1.415 . S
C487 C486 1.355 . S
C487 C489 1.419 . S
C488 C486 1.415 . S
C488 C493 1.425 . S
C488 C495 1.409 . S
C489 H481 0.930 . S
C489 C487 1.419 . S
C489 C490 1.362 . S
C490 H482 0.930 . S
C490 C489 1.362 . S
C490 C493 1.409 . S
C491 H483 0.930 . S
C491 C492 1.355 . S
C491 C493 1.415 . S
C492 C491 1.355 . S
C492 C494 1.419 . S
C493 C488 1.425 . S
C493 C490 1.409 . S
C493 C491 1.415 . S
C494 H484 0.930 . S
C494 C492 1.419 . S
C494 C495 1.362 . S
C495 H485 0.930 . S
C495 C488 1.409 . S
C495 C494 1.362 . S
H496 C502 0.930 . S
H497 C505 0.930 . S
H498 C506 0.930 . S
H499 C507 0.930 . S
H500 C510 0.930 . S
H501 C511 0.930 . S
C502 H496 0.930 . S
C502 C503 1.355 . S
C502 C504 1.415 . S
C503 C502 1.355 . S
C503 C505 1.419 . S
C504 C502 1.415 . S
C504 C509 1.425 . S
C504 C511 1.409 . S
C505 H497 0.930 . S
C505 C503 1.419 . S
C505 C506 1.362 . S
C506 H498 0.930 . S
C506 C505 1.362 . S
C506 C509 1.409 . S
C507 H499 0.930 . S
C507 C508 1.355 . S
C507 C509 1.415 . S
C508 C507 1.355 . S
C508 C510 1.419 . S
C509 C504 1.425 . S
C509 C506 1.409 . S
C509 C507 1.415 . S
C510 H500 0.930 . S
C510 C508 1.419 . S
C510 C511 1.362 . S
C511 H501 0.930 . S
C511 C504 1.409 . S
C511 C510 1.362 . S
H512 C518 0.930 . S
H513 C521 0.930 . S
H514 C522 0.930 . S
H515 C523 0.930 . S
H516 C526 0.930 . S
H517 C527 0.930 . S
C518 H512 0.930 . S
C518 C519 1.355 . S
C518 C520 1.415 . S
C519 C518 1.355 . S
C519 C521 1.419 . S
C520 C518 1.415 . S
C520 C525 1.425 . S
C520 C527 1.409 . S
C521 H513 0.930 . S
C521 C519 1.419 . S
C521 C522 1.362 . S
C522 H514 0.930 . S
C522 C521 1.362 . S
C522 C525 1.409 . S
C523 H515 0.930 . S
C523 C524 1.355 . S
C523 C525 1.415 . S
C524 C523 1.355 . S
C524 C526 1.419 . S
C525 C520 1.425 . S
C525 C522 1.409 . S
C525 C523 1.415 . S
C526 H516 0.930 . S
C526 C524 1.419 . S
C526 C527 1.362 . S
C527 H517 0.930 . S
C527 C520 1.409 . S
C527 C526 1.362 . S
H528 C534 0.930 . S
H529 C537 0.930 . S
H530 C538 0.930 . S
H531 C539 0.930 . S
H532 C542 0.930 . S
H533 C543 0.930 . S
C534 H528 0.930 . S
C534 C535 1.355 . S
C534 C536 1.415 . S
C535 C534 1.355 . S
C535 C537 1.419 . S
C536 C534 1.415 . S
C536 C541 1.425 . S
C536 C543 1.409 . S
C537 H529 0.930 . S
C537 C535 1.419 . S
C537 C538 1.362 . S
C538 H530 0.930 . S
C538 C537 1.362 . S
C538 C541 1.409 . S
C539 H531 0.930 . S
C539 C540 1.355 . S
C539 C541 1.415 . S
C540 C539 1.355 . S
C540 C542 1.419 . S
C541 C536 1.425 . S
C541 C538 1.409 . S
C541 C539 1.415 . S
C542 H532 0.930 . S
C542 C540 1.419 . S
C542 C543 1.362 . S
C543 H533 0.930 . S
C543 C536 1.409 . S
C543 C542 1.362 . S
H544 C550 0.930 . S
H545 C553 0.930 . S
H546 C554 0.930 . S
H547 C555 0.930 1_655 S
H548 C558 0.930 . S
H549 C559 0.930 . S
C550 H544 0.930 . S
C550 C551 1.355 . S
C550 C552 1.415 . S
C551 C550 1.355 . S
C551 C553 1.419 . S
C552 C550 1.415 . S
C552 C557 1.425 . S
C552 C559 1.409 . S
C553 H545 0.930 . S
C553 C551 1.419 . S
C553 C554 1.362 . S
C554 H546 0.930 . S
C554 C553 1.362 . S
C554 C557 1.409 . S
C555 H547 0.930 1_455 S
C555 C556 1.355 . S
C555 C557 1.415 . S
C556 C555 1.355 . S
C556 C558 1.419 . S
C557 C552 1.425 . S
C557 C554 1.409 . S
C557 C555 1.415 . S
C558 H548 0.930 . S
C558 C556 1.419 . S
C558 C559 1.362 . S
C559 H549 0.930 . S
C559 C552 1.409 . S
C559 C558 1.362 . S
H560 C566 0.930 . S
H561 C569 0.930 . S
H562 C570 0.930 . S
H563 C571 0.930 . S
H564 C574 0.930 . S
H565 C575 0.930 1_545 S
C566 H560 0.930 . S
C566 C567 1.355 . S
C566 C568 1.415 . S
C567 C566 1.355 . S
C567 C569 1.419 . S
C568 C566 1.415 . S
C568 C573 1.425 . S
C568 C575 1.409 . S
C569 H561 0.930 . S
C569 C567 1.419 . S
C569 C570 1.362 . S
C570 H562 0.930 . S
C570 C569 1.362 . S
C570 C573 1.409 . S
C571 H563 0.930 . S
C571 C572 1.355 . S
C571 C573 1.415 . S
C572 C571 1.355 . S
C572 C574 1.419 1_565 S
C573 C568 1.425 . S
C573 C570 1.409 . S
C573 C571 1.415 . S
C574 H564 0.930 . S
C574 C572 1.419 1_545 S
C574 C575 1.362 1_545 S
C575 H565 0.930 1_565 S
C575 C568 1.409 . S
C575 C574 1.362 1_565 S
H576 C582 0.930 . S
H577 C585 0.930 . S
H578 C586 0.930 . S
H579 C587 0.930 . S
H580 C590 0.930 . S
H581 C591 0.930 . S
C582 H576 0.930 . S
C582 C583 1.355 . S
C582 C584 1.415 . S
C583 C582 1.355 . S
C583 C585 1.419 . S
C584 C582 1.415 . S
C584 C589 1.425 . S
C584 C591 1.409 . S
C585 H577 0.930 . S
C585 C583 1.419 . S
C585 C586 1.362 . S
C586 H578 0.930 . S
C586 C585 1.362 . S
C586 C589 1.409 . S
C587 H579 0.930 . S
C587 C588 1.355 . S
C587 C589 1.415 . S
C588 C587 1.355 . S
C588 C590 1.419 . S
C589 C584 1.425 . S
C589 C586 1.409 . S
C589 C587 1.415 . S
C590 H580 0.930 . S
C590 C588 1.419 . S
C590 C591 1.362 . S
C591 H581 0.930 . S
C591 C584 1.409 . S
C591 C590 1.362 . S
H592 C598 0.930 . S
H593 C601 0.930 . S
H594 C602 0.930 . S
H595 C603 0.930 . S
H596 C606 0.930 . S
H597 C607 0.930 . S
C598 H592 0.930 . S
C598 C599 1.355 . S
C598 C600 1.415 . S
C599 C598 1.355 . S
C599 C601 1.419 . S
C600 C598 1.415 . S
C600 C605 1.425 . S
C600 C607 1.409 . S
C601 H593 0.930 . S
C601 C599 1.419 . S
C601 C602 1.362 . S
C602 H594 0.930 . S
C602 C601 1.362 . S
C602 C605 1.409 . S
C603 H595 0.930 . S
C603 C604 1.355 . S
C603 C605 1.415 . S
C604 C603 1.355 . S
C604 C606 1.419 . S
C605 C600 1.425 . S
C605 C602 1.409 . S
C605 C603 1.415 . S
C606 H596 0.930 . S
C606 C604 1.419 . S
C606 C607 1.362 . S
C607 H597 0.930 . S
C607 C600 1.409 . S
C607 C606 1.362 . S
H608 C614 0.930 1_455 S
H609 C617 0.930 . S
H610 C618 0.930 . S
H611 C619 0.930 . S
H612 C622 0.930 . S
H613 C623 0.930 . S
C614 H608 0.930 1_655 S
C614 C615 1.355 . S
C614 C616 1.415 . S
C615 C614 1.355 . S
C615 C617 1.419 . S
C616 C614 1.415 . S
C616 C621 1.425 . S
C616 C623 1.409 . S
C617 H609 0.930 . S
C617 C615 1.419 . S
C617 C618 1.362 . S
C618 H610 0.930 . S
C618 C617 1.362 . S
C618 C621 1.409 . S
C619 H611 0.930 . S
C619 C620 1.355 . S
C619 C621 1.415 . S
C620 C619 1.355 . S
C620 C622 1.419 . S
C621 C616 1.425 . S
C621 C618 1.409 . S
C621 C619 1.415 . S
C622 H612 0.930 . S
C622 C620 1.419 . S
C622 C623 1.362 . S
C623 H613 0.930 . S
C623 C616 1.409 . S
C623 C622 1.362 . S
H624 C630 0.930 1_545 S
H625 C633 0.930 . S
H626 C634 0.930 . S
H627 C635 0.930 . S
H628 C638 0.930 . S
H629 C639 0.930 . S
C630 H624 0.930 1_565 S
C630 C631 1.355 . S
C630 C632 1.415 . S
C631 C630 1.355 . S
C631 C633 1.419 . S
C632 C630 1.415 . S
C632 C637 1.425 . S
C632 C639 1.409 . S
C633 H625 0.930 . S
C633 C631 1.419 . S
C633 C634 1.362 . S
C634 H626 0.930 . S
C634 C633 1.362 . S
C634 C637 1.409 . S
C635 H627 0.930 . S
C635 C636 1.355 . S
C635 C637 1.415 . S
C636 C635 1.355 . S
C636 C638 1.419 . S
C637 C632 1.425 . S
C637 C634 1.409 . S
C637 C635 1.415 . S
C638 H628 0.930 . S
C638 C636 1.419 . S
C638 C639 1.362 . S
C639 H629 0.930 . S
C639 C632 1.409 . S
C639 C638 1.362 . S
H640 C646 0.930 . S
H641 C649 0.930 . S
H642 C650 0.930 . S
H643 C651 0.930 . S
H644 C654 0.930 . S
H645 C655 0.930 . S
C646 H640 0.930 . S
C646 C647 1.355 . S
C646 C648 1.415 . S
C647 C646 1.355 . S
C647 C649 1.419 . S
C648 C646 1.415 . S
C648 C653 1.425 . S
C648 C655 1.409 . S
C649 H641 0.930 . S
C649 C647 1.419 . S
C649 C650 1.362 . S
C650 H642 0.930 . S
C650 C649 1.362 . S
C650 C653 1.409 . S
C651 H643 0.930 . S
C651 C652 1.355 . S
C651 C653 1.415 . S
C652 C651 1.355 . S
C652 C654 1.419 . S
C653 C648 1.425 . S
C653 C650 1.409 . S
C653 C651 1.415 . S
C654 H644 0.930 . S
C654 C652 1.419 . S
C654 C655 1.362 . S
C655 H645 0.930 . S
C655 C648 1.409 . S
C655 C654 1.362 . S
H656 C662 0.930 . S
H657 C665 0.930 . S
H658 C666 0.930 . S
H659 C667 0.930 . S
H660 C670 0.930 . S
H661 C671 0.930 . S
C662 H656 0.930 . S
C662 C663 1.355 . S
C662 C664 1.415 . S
C663 C662 1.355 . S
C663 C665 1.419 . S
C664 C662 1.415 . S
C664 C669 1.425 . S
C664 C671 1.409 . S
C665 H657 0.930 . S
C665 C663 1.419 . S
C665 C666 1.362 . S
C666 H658 0.930 . S
C666 C665 1.362 . S
C666 C669 1.409 . S
C667 H659 0.930 . S
C667 C668 1.355 . S
C667 C669 1.415 . S
C668 C667 1.355 . S
C668 C670 1.419 . S
C669 C664 1.425 . S
C669 C666 1.409 . S
C669 C667 1.415 . S
C670 H660 0.930 . S
C670 C668 1.419 . S
C670 C671 1.362 . S
C671 H661 0.930 . S
C671 C664 1.409 . S
C671 C670 1.362 . S
H672 C678 0.930 . S
H673 C681 0.930 . S
H674 C682 0.930 . S
H675 C683 0.930 . S
H676 C686 0.930 . S
H677 C687 0.930 1_455 S
C678 H672 0.930 . S
C678 C679 1.355 . S
C678 C680 1.415 . S
C679 C678 1.355 . S
C679 C681 1.419 . S
C680 C678 1.415 . S
C680 C685 1.425 . S
C680 C687 1.409 . S
C681 H673 0.930 . S
C681 C679 1.419 . S
C681 C682 1.362 . S
C682 H674 0.930 . S
C682 C681 1.362 . S
C682 C685 1.409 . S
C683 H675 0.930 . S
C683 C684 1.355 . S
C683 C685 1.415 . S
C684 C683 1.355 . S
C684 C686 1.419 1_655 S
C685 C680 1.425 . S
C685 C682 1.409 . S
C685 C683 1.415 . S
C686 H676 0.930 . S
C686 C684 1.419 1_455 S
C686 C687 1.362 1_455 S
C687 H677 0.930 1_655 S
C687 C680 1.409 . S
C687 C686 1.362 1_655 S
H688 C694 0.930 . S
H689 C697 0.930 . S
H690 C698 0.930 . S
H691 C699 0.930 1_565 S
H692 C702 0.930 . S
H693 C703 0.930 . S
C694 H688 0.930 . S
C694 C695 1.355 . S
C694 C696 1.415 . S
C695 C694 1.355 . S
C695 C697 1.419 . S
C696 C694 1.415 . S
C696 C701 1.425 . S
C696 C703 1.409 . S
C697 H689 0.930 . S
C697 C695 1.419 . S
C697 C698 1.362 . S
C698 H690 0.930 . S
C698 C697 1.362 . S
C698 C701 1.409 . S
C699 H691 0.930 1_545 S
C699 C700 1.355 . S
C699 C701 1.415 . S
C700 C699 1.355 . S
C700 C702 1.419 . S
C701 C696 1.425 . S
C701 C698 1.409 . S
C701 C699 1.415 . S
C702 H692 0.930 . S
C702 C700 1.419 . S
C702 C703 1.362 . S
C703 H693 0.930 . S
C703 C696 1.409 . S
C703 C702 1.362 . S
H704 C710 0.930 . S
H705 C713 0.930 . S
H706 C714 0.930 . S
H707 C715 0.930 . S
H708 C718 0.930 . S
H709 C719 0.930 . S
C710 H704 0.930 . S
C710 C711 1.355 . S
C710 C712 1.415 . S
C711 C710 1.355 . S
C711 C713 1.419 . S
C712 C710 1.415 . S
C712 C717 1.425 . S
C712 C719 1.409 . S
C713 H705 0.930 . S
C713 C711 1.419 . S
C713 C714 1.362 . S
C714 H706 0.930 . S
C714 C713 1.362 . S
C714 C717 1.409 . S
C715 H707 0.930 . S
C715 C716 1.355 . S
C715 C717 1.415 . S
C716 C715 1.355 . S
C716 C718 1.419 . S
C717 C712 1.425 . S
C717 C714 1.409 . S
C717 C715 1.415 . S
C718 H708 0.930 . S
C718 C716 1.419 . S
C718 C719 1.362 . S
C719 H709 0.930 . S
C719 C712 1.409 . S
C719 C718 1.362 . S
H720 C726 0.930 . S
H721 C729 0.930 . S
H722 C730 0.930 . S
H723 C731 0.930 . S
H724 C734 0.930 . S
H725 C735 0.930 . S
C726 H720 0.930 . S
C726 C727 1.355 . S
C726 C728 1.415 . S
C727 C726 1.355 . S
C727 C729 1.419 . S
C728 C726 1.415 . S
C728 C733 1.425 . S
C728 C735 1.409 . S
C729 H721 0.930 . S
C729 C727 1.419 . S
C729 C730 1.362 . S
C730 H722 0.930 . S
C730 C729 1.362 . S
C730 C733 1.409 . S
C731 H723 0.930 . S
C731 C732 1.355 . S
C731 C733 1.415 . S
C732 C731 1.355 . S
C732 C734 1.419 . S
C733 C728 1.425 . S
C733 C730 1.409 . S
C733 C731 1.415 . S
C734 H724 0.930 . S
C734 C732 1.419 . S
C734 C735 1.362 . S
C735 H725 0.930 . S
C735 C728 1.409 . S
C735 C734 1.362 . S
H736 C742 0.930 . S
H737 C745 0.930 . S
H738 C746 0.930 . S
H739 C747 0.930 . S
H740 C750 0.930 . S
H741 C751 0.930 1_655 S
C742 H736 0.930 . S
C742 C743 1.355 . S
C742 C744 1.415 . S
C743 C742 1.355 . S
C743 C745 1.419 . S
C744 C742 1.415 . S
C744 C749 1.425 . S
C744 C751 1.409 . S
C745 H737 0.930 . S
C745 C743 1.419 . S
C745 C746 1.362 . S
C746 H738 0.930 . S
C746 C745 1.362 . S
C746 C749 1.409 . S
C747 H739 0.930 . S
C747 C748 1.355 . S
C747 C749 1.415 . S
C748 C747 1.355 . S
C748 C750 1.419 1_455 S
C749 C744 1.425 . S
C749 C746 1.409 . S
C749 C747 1.415 . S
C750 H740 0.930 . S
C750 C748 1.419 1_655 S
C750 C751 1.362 1_655 S
C751 H741 0.930 1_455 S
C751 C744 1.409 . S
C751 C750 1.362 1_455 S
H752 C758 0.930 . S
H753 C761 0.930 . S
H754 C762 0.930 . S
H755 C763 0.930 . S
H756 C766 0.930 . S
H757 C767 0.930 . S
C758 H752 0.930 . S
C758 C759 1.355 . S
C758 C760 1.415 . S
C759 C758 1.355 . S
C759 C761 1.419 . S
C760 C758 1.415 . S
C760 C765 1.425 . S
C760 C767 1.409 . S
C761 H753 0.930 . S
C761 C759 1.419 . S
C761 C762 1.362 . S
C762 H754 0.930 . S
C762 C761 1.362 . S
C762 C765 1.409 . S
C763 H755 0.930 . S
C763 C764 1.355 . S
C763 C765 1.415 . S
C764 C763 1.355 . S
C764 C766 1.419 . S
C765 C760 1.425 . S
C765 C762 1.409 . S
C765 C763 1.415 . S
C766 H756 0.930 . S
C766 C764 1.419 . S
C766 C767 1.362 . S
C767 H757 0.930 . S
C767 C760 1.409 . S
C767 C766 1.362 . S
H768 C774 0.930 . S
H769 C777 0.930 . S
H770 C778 0.930 . S
H771 C779 0.930 . S
H772 C782 0.930 . S
H773 C783 0.930 . S
C774 H768 0.930 . S
C774 C775 1.355 . S
C774 C776 1.415 . S
C775 C774 1.355 . S
C775 C777 1.419 . S
C776 C774 1.415 . S
C776 C781 1.425 . S
C776 C783 1.409 . S
C777 H769 0.930 . S
C777 C775 1.419 . S
C777 C778 1.362 . S
C778 H770 0.930 . S
C778 C777 1.362 . S
C778 C781 1.409 . S
C779 H771 0.930 . S
C779 C780 1.355 . S
C779 C781 1.415 . S
C780 C779 1.355 . S
C780 C782 1.419 . S
C781 C776 1.425 . S
C781 C778 1.409 . S
C781 C779 1.415 . S
C782 H772 0.930 . S
C782 C780 1.419 . S
C782 C783 1.362 . S
C783 H773 0.930 . S
C783 C776 1.409 . S
C783 C782 1.362 . S
H784 C790 0.930 . S
H785 C793 0.930 . S
H786 C794 0.930 . S
H787 C795 0.930 . S
H788 C798 0.930 . S
H789 C799 0.930 . S
C790 H784 0.930 . S
C790 C791 1.355 . S
C790 C792 1.415 . S
C791 C790 1.355 . S
C791 C793 1.419 . S
C792 C790 1.415 . S
C792 C797 1.425 . S
C792 C799 1.409 . S
C793 H785 0.930 . S
C793 C791 1.419 . S
C793 C794 1.362 . S
C794 H786 0.930 . S
C794 C793 1.362 . S
C794 C797 1.409 . S
C795 H787 0.930 . S
C795 C796 1.355 . S
C795 C797 1.415 . S
C796 C795 1.355 . S
C796 C798 1.419 . S
C797 C792 1.425 . S
C797 C794 1.409 . S
C797 C795 1.415 . S
C798 H788 0.930 . S
C798 C796 1.419 . S
C798 C799 1.362 . S
C799 H789 0.930 . S
C799 C792 1.409 . S
C799 C798 1.362 . S
H800 C806 0.930 . S
H801 C809 0.930 . S
H802 C810 0.930 . S
H803 C811 0.930 . S
H804 C814 0.930 . S
H805 C815 0.930 . S
C806 H800 0.930 . S
C806 C807 1.355 . S
C806 C808 1.415 . S
C807 C806 1.355 . S
C807 C809 1.419 . S
C808 C806 1.415 . S
C808 C813 1.425 . S
C808 C815 1.409 . S
C809 H801 0.930 . S
C809 C807 1.419 . S
C809 C810 1.362 . S
C810 H802 0.930 . S
C810 C809 1.362 . S
C810 C813 1.409 . S
C811 H803 0.930 . S
C811 C812 1.355 . S
C811 C813 1.415 . S
C812 C811 1.355 . S
C812 C814 1.419 . S
C813 C808 1.425 . S
C813 C810 1.409 . S
C813 C811 1.415 . S
C814 H804 0.930 . S
C814 C812 1.419 . S
C814 C815 1.362 . S
C815 H805 0.930 . S
C815 C808 1.409 . S
C815 C814 1.362 . S
H816 C822 0.930 . S
H817 C825 0.930 . S
H818 C826 0.930 . S
H819 C827 0.930 . S
H820 C830 0.930 . S
H821 C831 0.930 . S
C822 H816 0.930 . S
C822 C823 1.355 . S
C822 C824 1.415 . S
C823 C822 1.355 . S
C823 C825 1.419 . S
C824 C822 1.415 . S
C824 C829 1.425 . S
C824 C831 1.409 . S
C825 H817 0.930 . S
C825 C823 1.419 . S
C825 C826 1.362 . S
C826 H818 0.930 . S
C826 C825 1.362 . S
C826 C829 1.409 . S
C827 H819 0.930 . S
C827 C828 1.355 . S
C827 C829 1.415 . S
C828 C827 1.355 . S
C828 C830 1.419 . S
C829 C824 1.425 . S
C829 C826 1.409 . S
C829 C827 1.415 . S
C830 H820 0.930 . S
C830 C828 1.419 . S
C830 C831 1.362 . S
C831 H821 0.930 . S
C831 C824 1.409 . S
C831 C830 1.362 . S
H832 C838 0.930 . S
H833 C841 0.930 . S
H834 C842 0.930 . S
H835 C843 0.930 . S
H836 C846 0.930 . S
H837 C847 0.930 . S
C838 H832 0.930 . S
C838 C839 1.355 . S
C838 C840 1.415 . S
C839 C838 1.355 . S
C839 C841 1.419 . S
C840 C838 1.415 . S
C840 C845 1.425 . S
C840 C847 1.409 . S
C841 H833 0.930 . S
C841 C839 1.419 . S
C841 C842 1.362 . S
C842 H834 0.930 . S
C842 C841 1.362 . S
C842 C845 1.409 . S
C843 H835 0.930 . S
C843 C844 1.355 . S
C843 C845 1.415 . S
C844 C843 1.355 . S
C844 C846 1.419 . S
C845 C840 1.425 . S
C845 C842 1.409 . S
C845 C843 1.415 . S
C846 H836 0.930 . S
C846 C844 1.419 . S
C846 C847 1.362 . S
C847 H837 0.930 . S
C847 C840 1.409 . S
C847 C846 1.362 . S
H848 C854 0.930 . S
H849 C857 0.930 . S
H850 C858 0.930 . S
H851 C859 0.930 . S
H852 C862 0.930 . S
H853 C863 0.930 . S
C854 H848 0.930 . S
C854 C855 1.355 . S
C854 C856 1.415 . S
C855 C854 1.355 . S
C855 C857 1.419 . S
C856 C854 1.415 . S
C856 C861 1.425 . S
C856 C863 1.409 . S
C857 H849 0.930 . S
C857 C855 1.419 . S
C857 C858 1.362 . S
C858 H850 0.930 . S
C858 C857 1.362 . S
C858 C861 1.409 . S
C859 H851 0.930 . S
C859 C860 1.355 . S
C859 C861 1.415 . S
C860 C859 1.355 . S
C860 C862 1.419 . S
C861 C856 1.425 . S
C861 C858 1.409 . S
C861 C859 1.415 . S
C862 H852 0.930 . S
C862 C860 1.419 . S
C862 C863 1.362 . S
C863 H853 0.930 . S
C863 C856 1.409 . S
C863 C862 1.362 . S
H864 C870 0.930 . S
H865 C873 0.930 . S
H866 C874 0.930 . S
H867 C875 0.930 . S
H868 C878 0.930 . S
H869 C879 0.930 . S
C870 H864 0.930 . S
C870 C871 1.355 . S
C870 C872 1.415 . S
C871 C870 1.355 . S
C871 C873 1.419 . S
C872 C870 1.415 . S
C872 C877 1.425 . S
C872 C879 1.409 . S
C873 H865 0.930 . S
C873 C871 1.419 . S
C873 C874 1.362 . S
C874 H866 0.930 . S
C874 C873 1.362 . S
C874 C877 1.409 . S
C875 H867 0.930 . S
C875 C876 1.355 . S
C875 C877 1.415 . S
C876 C875 1.355 . S
C876 C878 1.419 . S
C877 C872 1.425 . S
C877 C874 1.409 . S
C877 C875 1.415 . S
C878 H868 0.930 . S
C878 C876 1.419 . S
C878 C879 1.362 . S
C879 H869 0.930 . S
C879 C872 1.409 . S
C879 C878 1.362 . S
H880 C886 0.930 . S
H881 C889 0.930 . S
H882 C890 0.930 . S
H883 C891 0.930 . S
H884 C894 0.930 . S
H885 C895 0.930 . S
C886 H880 0.930 . S
C886 C887 1.355 . S
C886 C888 1.415 . S
C887 C886 1.355 . S
C887 C889 1.419 . S
C888 C886 1.415 . S
C888 C893 1.425 . S
C888 C895 1.409 . S
C889 H881 0.930 . S
C889 C887 1.419 . S
C889 C890 1.362 . S
C890 H882 0.930 . S
C890 C889 1.362 . S
C890 C893 1.409 . S
C891 H883 0.930 . S
C891 C892 1.355 . S
C891 C893 1.415 . S
C892 C891 1.355 . S
C892 C894 1.419 . S
C893 C888 1.425 . S
C893 C890 1.409 . S
C893 C891 1.415 . S
C894 H884 0.930 . S
C894 C892 1.419 . S
C894 C895 1.362 . S
C895 H885 0.930 . S
C895 C888 1.409 . S
C895 C894 1.362 . S
H896 C902 0.930 . S
H897 C905 0.930 . S
H898 C906 0.930 . S
H899 C907 0.930 . S
H900 C910 0.930 . S
H901 C911 0.930 . S
C902 H896 0.930 . S
C902 C903 1.355 . S
C902 C904 1.415 . S
C903 C902 1.355 . S
C903 C905 1.419 . S
C904 C902 1.415 . S
C904 C909 1.425 . S
C904 C911 1.409 . S
C905 H897 0.930 . S
C905 C903 1.419 . S
C905 C906 1.362 . S
C906 H898 0.930 . S
C906 C905 1.362 . S
C906 C909 1.409 . S
C907 H899 0.930 . S
C907 C908 1.355 . S
C907 C909 1.415 . S
C908 C907 1.355 . S
C908 C910 1.419 . S
C909 C904 1.425 . S
C909 C906 1.409 . S
C909 C907 1.415 . S
C910 H900 0.930 . S
C910 C908 1.419 . S
C910 C911 1.362 . S
C911 H901 0.930 . S
C911 C904 1.409 . S
C911 C910 1.362 . S
H912 C918 0.930 . S
H913 C921 0.930 . S
H914 C922 0.930 . S
H915 C923 0.930 . S
H916 C926 0.930 . S
H917 C927 0.930 . S
C918 H912 0.930 . S
C918 C919 1.355 . S
C918 C920 1.415 . S
C919 C918 1.355 . S
C919 C921 1.419 . S
C920 C918 1.415 . S
C920 C925 1.425 . S
C920 C927 1.409 . S
C921 H913 0.930 . S
C921 C919 1.419 . S
C921 C922 1.362 . S
C922 H914 0.930 . S
C922 C921 1.362 . S
C922 C925 1.409 . S
C923 H915 0.930 . S
C923 C924 1.355 . S
C923 C925 1.415 . S
C924 C923 1.355 . S
C924 C926 1.419 . S
C925 C920 1.425 . S
C925 C922 1.409 . S
C925 C923 1.415 . S
C926 H916 0.930 . S
C926 C924 1.419 . S
C926 C927 1.362 . S
C927 H917 0.930 . S
C927 C920 1.409 . S
C927 C926 1.362 . S
H928 C934 0.930 . S
H929 C937 0.930 1_655 S
H930 C938 0.930 . S
H931 C939 0.930 . S
H932 C942 0.930 . S
H933 C943 0.930 . S
C934 H928 0.930 . S
C934 C935 1.355 . S
C934 C936 1.415 . S
C935 C934 1.355 . S
C935 C937 1.419 . S
C936 C934 1.415 . S
C936 C941 1.425 . S
C936 C943 1.409 . S
C937 H929 0.930 1_455 S
C937 C935 1.419 . S
C937 C938 1.362 . S
C938 H930 0.930 . S
C938 C937 1.362 . S
C938 C941 1.409 . S
C939 H931 0.930 . S
C939 C940 1.355 . S
C939 C941 1.415 . S
C940 C939 1.355 . S
C940 C942 1.419 . S
C941 C936 1.425 . S
C941 C938 1.409 . S
C941 C939 1.415 . S
C942 H932 0.930 . S
C942 C940 1.419 . S
C942 C943 1.362 . S
C943 H933 0.930 . S
C943 C936 1.409 . S
C943 C942 1.362 . S
H944 C950 0.930 . S
H945 C953 0.930 . S
H946 C954 0.930 . S
H947 C955 0.930 . S
H948 C958 0.930 . S
H949 C959 0.930 . S
C950 H944 0.930 . S
C950 C951 1.355 1_554 S
C950 C952 1.415 . S
C951 C950 1.355 1_556 S
C951 C953 1.419 . S
C952 C950 1.415 . S
C952 C957 1.425 . S
C952 C959 1.409 . S
C953 H945 0.930 . S
C953 C951 1.419 . S
C953 C954 1.362 . S
C954 H946 0.930 . S
C954 C953 1.362 . S
C954 C957 1.409 1_556 S
C955 H947 0.930 . S
C955 C956 1.355 . S
C955 C957 1.415 . S
C956 C955 1.355 . S
C956 C958 1.419 . S
C957 C952 1.425 . S
C957 C954 1.409 1_554 S
C957 C955 1.415 . S
C958 H948 0.930 . S
C958 C956 1.419 . S
C958 C959 1.362 . S
C959 H949 0.930 . S
C959 C952 1.409 . S
C959 C958 1.362 . S
H960 C966 0.930 . S
H961 C969 0.930 . S
H962 C970 0.930 . S
H963 C971 0.930 . S
H964 C974 0.930 . S
H965 C975 0.928 1_554 S
C966 H960 0.930 . S
C966 C967 1.355 . S
C966 C968 1.415 . S
C967 C966 1.355 . S
C967 C969 1.419 . S
C968 C966 1.415 . S
C968 C973 1.425 . S
C968 C975 1.401 1_554 S
C969 H961 0.930 . S
C969 C967 1.419 . S
C969 C970 1.362 . S
C970 H962 0.930 . S
C970 C969 1.362 . S
C970 C973 1.409 . S
C971 H963 0.930 . S
C971 C972 1.355 . S
C971 C973 1.415 1_556 S
C972 C971 1.355 . S
C972 C974 1.419 . S
C973 C968 1.425 . S
C973 C970 1.409 . S
C973 C971 1.415 1_554 S
C974 H964 0.930 . S
C974 C972 1.419 . S
C974 C975 1.373 . S
C975 H965 0.928 1_556 S
C975 C968 1.401 1_556 S
C975 C974 1.373 . S
H976 C982 0.930 . S
H977 C985 0.930 . S
H978 C986 0.930 . S
H979 C987 0.930 . S
H980 C990 0.930 . S
H981 C991 0.930 . S
C982 H976 0.930 . S
C982 C983 1.355 1_554 S
C982 C984 1.415 . S
C983 C982 1.355 1_556 S
C983 C985 1.419 . S
C984 C982 1.415 . S
C984 C989 1.425 . S
C984 C991 1.409 . S
C985 H977 0.930 . S
C985 C983 1.419 . S
C985 C986 1.362 . S
C986 H978 0.930 . S
C986 C985 1.362 . S
C986 C989 1.409 1_556 S
C987 H979 0.930 . S
C987 C988 1.355 . S
C987 C989 1.415 . S
C988 C987 1.355 . S
C988 C990 1.419 . S
C989 C984 1.425 . S
C989 C986 1.409 1_554 S
C989 C987 1.415 . S
C990 H980 0.930 . S
C990 C988 1.419 . S
C990 C991 1.362 . S
C991 H981 0.930 . S
C991 C984 1.409 . S
C991 C990 1.362 . S
H992 C998 0.930 . S
H993 C1001 0.930 . S
H994 C1002 0.930 . S
H995 C1003 0.930 . S
H996 C1006 0.930 . S
H997 C1007 0.930 . S
C998 H992 0.930 . S
C998 C999 1.355 . S
C998 C1000 1.415 . S
C999 C998 1.355 . S
C999 C1001 1.419 . S
C1000 C998 1.415 . S
C1000 C1005 1.425 . S
C1000 C1007 1.409 . S
C1001 H993 0.930 . S
C1001 C999 1.419 . S
C1001 C1002 1.362 . S
C1002 H994 0.930 . S
C1002 C1001 1.362 . S
C1002 C1005 1.409 . S
C1003 H995 0.930 . S
C1003 C1004 1.355 . S
C1003 C1005 1.415 1_556 S
C1004 C1003 1.355 . S
C1004 C1006 1.419 . S
C1005 C1000 1.425 . S
C1005 C1002 1.409 . S
C1005 C1003 1.415 1_554 S
C1006 H996 0.930 . S
C1006 C1004 1.419 . S
C1006 C1007 1.362 1_556 S
C1007 H997 0.930 . S
C1007 C1000 1.409 . S
C1007 C1006 1.362 1_554 S
H1008 C1014 0.930 . S
H1009 C1017 0.930 . S
H1010 C1018 0.930 . S
H1011 C1019 0.930 . S
H1012 C1022 0.930 . S
H1013 C1023 0.930 . S
C1014 H1008 0.930 . S
C1014 C1015 1.355 . S
C1014 C1016 1.415 . S
C1015 C1014 1.355 . S
C1015 C1017 1.419 . S
C1016 C1014 1.415 . S
C1016 C1021 1.425 . S
C1016 C1023 1.409 . S
C1017 H1009 0.930 . S
C1017 C1015 1.419 . S
C1017 C1018 1.362 . S
C1018 H1010 0.930 . S
C1018 C1017 1.362 . S
C1018 C1021 1.409 . S
C1019 H1011 0.930 . S
C1019 C1020 1.355 . S
C1019 C1021 1.415 . S
C1020 C1019 1.355 . S
C1020 C1022 1.419 . S
C1021 C1016 1.425 . S
C1021 C1018 1.409 . S
C1021 C1019 1.415 . S
C1022 H1012 0.930 . S
C1022 C1020 1.419 . S
C1022 C1023 1.362 . S
C1023 H1013 0.930 . S
C1023 C1016 1.409 . S
C1023 C1022 1.362 . S
H1024 C1030 0.930 . S
H1025 C1033 0.930 . S
H1026 C1034 0.930 . S
H1027 C1035 0.930 . S
H1028 C1038 0.930 . S
H1029 C1039 0.930 . S
C1030 H1024 0.930 . S
C1030 C1031 1.355 . S
C1030 C1032 1.415 . S
C1031 C1030 1.355 . S
C1031 C1033 1.419 . S
C1032 C1030 1.415 . S
C1032 C1037 1.425 . S
C1032 C1039 1.409 . S
C1033 H1025 0.930 . S
C1033 C1031 1.419 . S
C1033 C1034 1.362 . S
C1034 H1026 0.930 . S
C1034 C1033 1.362 . S
C1034 C1037 1.409 . S
C1035 H1027 0.930 . S
C1035 C1036 1.355 . S
C1035 C1037 1.415 . S
C1036 C1035 1.355 . S
C1036 C1038 1.419 . S
C1037 C1032 1.425 . S
C1037 C1034 1.409 . S
C1037 C1035 1.415 . S
C1038 H1028 0.930 . S
C1038 C1036 1.419 . S
C1038 C1039 1.362 . S
C1039 H1029 0.930 . S
C1039 C1032 1.409 . S
C1039 C1038 1.362 . S
H1040 C1046 0.930 . S
H1041 C1049 0.930 . S
H1042 C1050 0.930 . S
H1043 C1051 0.930 . S
H1044 C1054 0.930 . S
H1045 C1055 0.930 . S
C1046 H1040 0.930 . S
C1046 C1047 1.355 . S
C1046 C1048 1.415 . S
C1047 C1046 1.355 . S
C1047 C1049 1.419 . S
C1048 C1046 1.415 . S
C1048 C1053 1.425 . S
C1048 C1055 1.409 . S
C1049 H1041 0.930 . S
C1049 C1047 1.419 . S
C1049 C1050 1.362 . S
C1050 H1042 0.930 . S
C1050 C1049 1.362 . S
C1050 C1053 1.409 . S
C1051 H1043 0.930 . S
C1051 C1052 1.355 . S
C1051 C1053 1.415 . S
C1052 C1051 1.355 . S
C1052 C1054 1.419 . S
C1053 C1048 1.425 . S
C1053 C1050 1.409 . S
C1053 C1051 1.415 . S
C1054 H1044 0.930 . S
C1054 C1052 1.419 . S
C1054 C1055 1.362 . S
C1055 H1045 0.930 . S
C1055 C1048 1.409 . S
C1055 C1054 1.362 . S
H1056 C1062 0.930 . S
H1057 C1065 0.930 . S
H1058 C1066 0.930 . S
H1059 C1067 0.930 . S
H1060 C1070 0.930 . S
H1061 C1071 0.930 . S
C1062 H1056 0.930 . S
C1062 C1063 1.355 . S
C1062 C1064 1.415 . S
C1063 C1062 1.355 . S
C1063 C1065 1.419 . S
C1064 C1062 1.415 . S
C1064 C1069 1.425 . S
C1064 C1071 1.409 . S
C1065 H1057 0.930 . S
C1065 C1063 1.419 . S
C1065 C1066 1.362 . S
C1066 H1058 0.930 . S
C1066 C1065 1.362 . S
C1066 C1069 1.409 . S
C1067 H1059 0.930 . S
C1067 C1068 1.355 . S
C1067 C1069 1.415 . S
C1068 C1067 1.355 . S
C1068 C1070 1.419 . S
C1069 C1064 1.425 . S
C1069 C1066 1.409 . S
C1069 C1067 1.415 . S
C1070 H1060 0.930 . S
C1070 C1068 1.419 . S
C1070 C1071 1.362 . S
C1071 H1061 0.930 . S
C1071 C1064 1.409 . S
C1071 C1070 1.362 . S
H1072 C1078 0.930 . S
H1073 C1081 0.930 . S
H1074 C1082 0.930 1_554 S
H1075 C1083 0.930 . S
H1076 C1086 0.930 . S
H1077 C1087 0.930 . S
C1078 H1072 0.930 . S
C1078 C1079 1.355 . S
C1078 C1080 1.415 . S
C1079 C1078 1.355 . S
C1079 C1081 1.419 . S
C1080 C1078 1.415 . S
C1080 C1085 1.425 . S
C1080 C1087 1.409 . S
C1081 H1073 0.930 . S
C1081 C1079 1.419 . S
C1081 C1082 1.362 . S
C1082 H1074 0.930 1_556 S
C1082 C1081 1.362 . S
C1082 C1085 1.409 . S
C1083 H1075 0.930 . S
C1083 C1084 1.355 . S
C1083 C1085 1.415 1_554 S
C1084 C1083 1.355 . S
C1084 C1086 1.419 1_554 S
C1085 C1080 1.425 . S
C1085 C1082 1.409 . S
C1085 C1083 1.415 1_556 S
C1086 H1076 0.930 . S
C1086 C1084 1.419 1_556 S
C1086 C1087 1.362 . S
C1087 H1077 0.930 . S
C1087 C1080 1.409 . S
C1087 C1086 1.362 . S
H1088 C1094 0.930 . S
H1089 C1097 0.930 . S
H1090 C1098 0.958 . S
H1091 C1099 0.930 . S
H1092 C1102 0.930 . S
H1093 C1103 0.930 . S
C1094 H1088 0.930 . S
C1094 C1095 1.355 . S
C1094 C1096 1.415 . S
C1095 C1094 1.355 . S
C1095 C1097 1.419 . S
C1096 C1094 1.415 . S
C1096 C1101 1.428 . S
C1096 C1103 1.409 . S
C1097 H1089 0.930 . S
C1097 C1095 1.419 . S
C1097 C1098 1.337 1_556 S
C1098 H1090 0.958 . S
C1098 C1097 1.337 1_554 S
C1098 C1101 1.408 1_554 S
C1099 H1091 0.930 . S
C1099 C1100 1.355 . S
C1099 C1101 1.413 1_554 S
C1100 C1099 1.355 . S
C1100 C1102 1.419 1_554 S
C1101 C1096 1.428 . S
C1101 C1098 1.408 1_556 S
C1101 C1099 1.413 1_556 S
C1102 H1092 0.930 . S
C1102 C1100 1.419 1_556 S
C1102 C1103 1.362 . S
C1103 H1093 0.930 . S
C1103 C1096 1.409 . S
C1103 C1102 1.362 . S
H1104 C1110 0.930 . S
H1105 C1113 0.930 . S
H1106 C1114 0.932 . S
H1107 C1115 0.930 . S
H1108 C1118 0.930 . S
H1109 C1119 0.930 . S
C1110 H1104 0.930 . S
C1110 C1111 1.355 . S
C1110 C1112 1.415 1_554 S
C1111 C1110 1.355 . S
C1111 C1113 1.419 . S
C1112 C1110 1.415 1_556 S
C1112 C1117 1.425 . S
C1112 C1119 1.409 . S
C1113 H1105 0.930 . S
C1113 C1111 1.419 . S
C1113 C1114 1.362 . S
C1114 H1106 0.932 . S
C1114 C1113 1.362 . S
C1114 C1117 1.409 1_554 S
C1115 H1107 0.930 . S
C1115 C1116 1.355 . S
C1115 C1117 1.415 . S
C1116 C1115 1.355 . S
C1116 C1118 1.419 . S
C1117 C1112 1.425 . S
C1117 C1114 1.409 1_556 S
C1117 C1115 1.415 . S
C1118 H1108 0.930 . S
C1118 C1116 1.419 . S
C1118 C1119 1.362 . S
C1119 H1109 0.930 . S
C1119 C1112 1.409 . S
C1119 C1118 1.362 . S
H1120 C1126 0.930 . S
H1121 C1129 0.930 . S
H1122 C1130 0.930 . S
H1123 C1131 0.930 . S
H1124 C1134 0.930 . S
H1125 C1135 0.930 . S
C1126 H1120 0.930 . S
C1126 C1127 1.355 1_556 S
C1126 C1128 1.415 . S
C1127 C1126 1.355 1_554 S
C1127 C1129 1.419 . S
C1128 C1126 1.415 . S
C1128 C1133 1.425 . S
C1128 C1135 1.409 . S
C1129 H1121 0.930 . S
C1129 C1127 1.419 . S
C1129 C1130 1.362 . S
C1130 H1122 0.930 . S
C1130 C1129 1.362 . S
C1130 C1133 1.409 1_554 S
C1131 H1123 0.930 . S
C1131 C1132 1.355 . S
C1131 C1133 1.415 . S
C1132 C1131 1.355 . S
C1132 C1134 1.419 . S
C1133 C1128 1.425 . S
C1133 C1130 1.409 1_556 S
C1133 C1131 1.415 . S
C1134 H1124 0.930 . S
C1134 C1132 1.419 . S
C1134 C1135 1.362 . S
C1135 H1125 0.930 . S
C1135 C1128 1.409 . S
C1135 C1134 1.362 . S
C375 C17 1.692 . S
C380 C131 1.671 . S
C391 C155 1.665 . S
C396 C40 1.640 . S
C407 C63 1.669 . S
C412 C178 1.646 . S
C423 C85 1.713 . S
C428 C108 1.700 . S
C439 C316 1.679 . S
C444 C201 1.685 . S
C455 C339 1.683 . S
C460 C224 1.680 . S
C471 C247 1.689 . S
C476 C362 1.670 . S
C487 C270 1.675 . S
C492 C293 1.680 . S
C503 C20 1.564 . S
C508 C88 1.578 1_545 S
C519 C43 1.521 . S
C524 C21 1.530 . S
C535 C66 1.543 . S
C540 C44 1.540 . S
C551 C87 1.556 . S
C556 C67 1.583 1_455 S
C567 C110 1.609 . S
C572 C134 1.602 1_565 S
C583 C159 1.585 . S
C588 C133 1.592 . S
C599 C158 1.520 . S
C604 C182 1.534 . S
C615 C111 1.550 1_655 S
C620 C181 1.575 . S
C631 C274 1.547 1_565 S
C636 C204 1.555 . S
C647 C227 1.551 . S
C652 C205 1.544 . S
C663 C250 1.555 . S
C668 C228 1.548 . S
C679 C273 1.523 . S
C684 C251 1.538 1_655 S
C695 C296 1.535 . S
C700 C320 1.530 1_545 S
C711 C319 1.523 . S
C716 C343 1.541 . S
C727 C342 1.548 . S
C732 C366 1.539 . S
C743 C365 1.521 . S
C748 C297 1.537 1_455 S
C759 C19 0.690 . S
C764 C65 0.685 . S
C775 C42 0.609 . S
C780 C90 0.759 . S
C791 C157 0.799 . S
C796 C113 0.647 . S
C807 C180 0.737 . S
C812 C136 0.655 . S
C823 C249 0.730 . S
C828 C203 0.765 . S
C839 C272 0.609 . S
C844 C226 0.783 . S
C855 C295 0.761 . S
C860 C341 0.620 . S
C871 C318 0.798 . S
C876 C364 0.660 . S
C887 C18 1.291 . S
C892 C269 1.219 . S
C903 C200 1.194 . S
C908 C41 1.277 . S
C919 C64 1.285 . S
C924 C223 1.279 . S
C935 C246 1.229 . S
C940 C89 1.183 . S
C951 C315 1.199 . S
C956 C112 1.214 . S
C967 C135 1.193 . S
C972 C338 1.254 . S
C983 C361 1.212 . S
C988 C156 1.292 . S
C999 C179 1.281 . S
C1004 C292 1.212 . S
C1015 C202 1.264 . S
C1020 C86 1.206 . S
C1031 C225 1.277 . S
C1036 C16 1.220 . S
C1047 C39 1.253 . S
C1052 C248 1.288 . S
C1063 C271 1.281 . S
C1068 C62 1.213 . S
C1079 C294 1.250 . S
C1084 C132 1.251 . S
C1095 C317 1.283 . S
C1100 C154 1.289 . S
C1111 C177 1.270 . S
C1116 C340 1.282 . S
C1127 C109 1.209 . S
C1132 C363 1.259 . S
