# Generated by pormake.
# Topology irl, (4)-cn, num edge types: 1
# Building blocks:
#     Node 0, Type 0, BuildingBlock: CEKHIL_clean_sbu_0, # of connection points: 4
#     Node 1, Type 0, BuildingBlock: CEKHIL_clean_sbu_0, # of connection points: 4
#     Node 2, Type 0, BuildingBlock: CEKHIL_clean_sbu_0, # of connection points: 4
#     Node 3, Type 0, BuildingBlock: CEKHIL_clean_sbu_0, # of connection points: 4
#     Node 4, Type 0, BuildingBlock: CEKHIL_clean_sbu_0, # of connection points: 4
#     Node 5, Type 0, BuildingBlock: CEKHIL_clean_sbu_0, # of connection points: 4
#     Node 6, Type 0, BuildingBlock: CEKHIL_clean_sbu_0, # of connection points: 4
#     Node 7, Type 0, BuildingBlock: CEKHIL_clean_sbu_0, # of connection points: 4
#     Edge 8, Type (0, 0), BuildingBlock: KIFKEQ_clean_linker_1, # of connection points: 2
#     Edge 9, Type (0, 0), BuildingBlock: KIFKEQ_clean_linker_1, # of connection points: 2
#     Edge 10, Type (0, 0), BuildingBlock: KIFKEQ_clean_linker_1, # of connection points: 2
#     Edge 11, Type (0, 0), BuildingBlock: KIFKEQ_clean_linker_1, # of connection points: 2
#     Edge 12, Type (0, 0), BuildingBlock: KIFKEQ_clean_linker_1, # of connection points: 2
#     Edge 13, Type (0, 0), BuildingBlock: KIFKEQ_clean_linker_1, # of connection points: 2
#     Edge 14, Type (0, 0), BuildingBlock: KIFKEQ_clean_linker_1, # of connection points: 2
#     Edge 15, Type (0, 0), BuildingBlock: KIFKEQ_clean_linker_1, # of connection points: 2
#     Edge 16, Type (0, 0), BuildingBlock: KIFKEQ_clean_linker_1, # of connection points: 2
#     Edge 17, Type (0, 0), BuildingBlock: KIFKEQ_clean_linker_1, # of connection points: 2
#     Edge 18, Type (0, 0), BuildingBlock: KIFKEQ_clean_linker_1, # of connection points: 2
#     Edge 19, Type (0, 0), BuildingBlock: KIFKEQ_clean_linker_1, # of connection points: 2
#     Edge 20, Type (0, 0), BuildingBlock: KIFKEQ_clean_linker_1, # of connection points: 2
#     Edge 21, Type (0, 0), BuildingBlock: KIFKEQ_clean_linker_1, # of connection points: 2
#     Edge 22, Type (0, 0), BuildingBlock: KIFKEQ_clean_linker_1, # of connection points: 2
#     Edge 23, Type (0, 0), BuildingBlock: KIFKEQ_clean_linker_1, # of connection points: 2
# Relax obj value: 0.066
# Max RMSD: 0.129
# Mean RMSD: 0.129
data_MOF--net-irl--node1-CEKHIL_clean_sbu_0--edge1-KIFKEQ_clean_linker_1
_symmetry_space_group_name_H-M    P1
_symmetry_Int_Tables_number       1
_symmetry_cell_setting            triclinic
loop_
_symmetry_equiv_pos_as_xyz
'x, y, z'
_cell_length_a     33.273575
_cell_length_b     46.356047
_cell_length_c     28.256179
_cell_angle_alpha  90.005368
_cell_angle_beta   89.986443
_cell_angle_gamma 90.023723
loop_
_atom_site_label
_atom_site_type_symbol
_atom_site_fract_x
_atom_site_fract_y
_atom_site_fract_z
_atom_type_partial_charge
Co0 Co 0.06795 0.16975 -0.00178 0.0
O1 O 0.09437 0.20647 -0.00353 0.0
O2 O 0.12135 0.16718 0.027 0.0
C3 C 0.04724 0.17054 0.92246 0.0
O4 O 0.04772 0.12773 0.00359 0.0
Co5 Co 0.97551 0.17028 0.98496 0.0
O6 O 0.98341 0.12819 0.97847 0.0
C7 C 0.00906 0.18663 0.07701 0.0
C8 C 0.12475 0.19459 0.0172 0.0
C9 C 0.01479 0.11463 0.99171 0.0
O10 O 0.0441 0.17988 0.06149 0.0
O11 O 0.97743 0.18592 0.05127 0.0
O12 O 0.08334 0.16218 0.93308 0.0
O13 O 0.02657 0.1811 0.95718 0.0
Co14 Co 0.92911 0.84193 0.99413 0.0
O15 O 0.90196 0.80539 0.99521 0.0
O16 O 0.87578 0.84602 0.02227 0.0
C17 C 0.95005 0.83913 0.91851 0.0
O18 O 0.95008 0.88374 -0.00286 0.0
Co19 Co 0.02153 0.84028 0.98139 0.0
O20 O 0.01499 0.88255 0.9743 0.0
C21 C 0.98711 0.82526 0.07364 0.0
C22 C 0.87194 0.81837 0.01495 0.0
C23 C 0.98348 0.89647 0.98611 0.0
O24 O 0.95264 0.83331 0.05807 0.0
O25 O 0.01848 0.82412 0.04744 0.0
O26 O 0.91404 0.84798 0.92846 0.0
O27 O 0.97044 0.82923 0.95398 0.0
Co28 Co 0.07265 0.84342 0.50673 0.0
O29 O 0.10039 0.80714 0.50594 0.0
O30 O 0.12616 0.84799 0.47918 0.0
C31 C 0.05122 0.84044 0.58215 0.0
O32 O 0.05092 0.88503 0.5036 0.0
Co33 Co 0.98019 0.84057 0.51839 0.0
O34 O 0.9855 0.883 0.52422 0.0
C35 C 0.01571 0.82583 0.42668 0.0
C36 C 0.13035 0.82037 0.48653 0.0
C37 C 0.01693 0.89731 0.51333 0.0
O38 O 0.04978 0.83456 0.44252 0.0
O39 O 0.98424 0.82413 0.45262 0.0
O40 O 0.08714 0.84964 0.57254 0.0
O41 O 0.03129 0.83029 0.54649 0.0
Co42 Co 0.93121 0.17065 0.50847 0.0
O43 O 0.90504 0.20746 0.50973 0.0
O44 O 0.87806 0.16818 0.47908 0.0
C45 C 0.95129 0.17153 0.58445 0.0
O46 O 0.95115 0.12856 0.50349 0.0
Co47 Co 0.02352 0.17065 0.52289 0.0
O48 O 0.01476 0.12873 0.53093 0.0
C49 C 0.99099 0.18696 0.43029 0.0
C50 C 0.87474 0.19561 0.48873 0.0
C51 C 0.98352 0.11529 0.51688 0.0
O52 O 0.9557 0.18059 0.44548 0.0
O53 O 0.02243 0.18597 0.45633 0.0
O54 O 0.91521 0.16327 0.57346 0.0
O55 O 0.97237 0.18191 0.54991 0.0
Co56 Co 0.5692 0.66911 -0.00208 0.0
O57 O 0.59621 0.70571 -0.00201 0.0
O58 O 0.62237 0.66547 0.02657 0.0
C59 C 0.54882 0.67103 0.9221 0.0
O60 O 0.5485 0.62719 0.00202 0.0
Co61 Co 0.47688 0.66978 0.98391 0.0
O62 O 0.48431 0.62768 0.97657 0.0
C63 C 0.51013 0.68554 0.07652 0.0
C64 C 0.62618 0.69301 0.0183 0.0
C65 C 0.51566 0.6141 0.98983 0.0
O66 O 0.5452 0.67865 0.06129 0.0
O67 O 0.47866 0.6851 0.05048 0.0
O68 O 0.58476 0.66229 0.93267 0.0
O69 O 0.52804 0.68123 0.95704 0.0
Co70 Co 0.43222 0.34075 -0.00175 0.0
O71 O 0.40579 0.30404 0.99578 0.0
O72 O 0.37891 0.34308 0.0273 0.0
C73 C 0.45279 0.34059 0.92239 0.0
O74 O 0.45246 0.38271 0.00456 0.0
Co75 Co 0.52462 0.34033 0.98475 0.0
O76 O 0.51686 0.38251 0.97973 0.0
C77 C 0.49125 0.32346 0.07665 0.0
C78 C 0.37547 0.31575 0.01693 0.0
C79 C 0.48546 0.39593 0.99327 0.0
O80 O 0.45617 0.33015 0.06123 0.0
O81 O 0.52288 0.32441 0.0509 0.0
O82 O 0.4167 0.34886 0.93335 0.0
O83 O 0.47354 0.32974 0.9568 0.0
Co84 Co 0.5679 0.34188 0.50792 0.0
O85 O 0.59405 0.30506 0.50973 0.0
O86 O 0.62112 0.34418 0.47865 0.0
C87 C 0.54762 0.34135 0.58386 0.0
O88 O 0.54808 0.38397 0.50233 0.0
Co89 Co 0.47561 0.34214 0.52193 0.0
O90 O 0.4844 0.38409 0.52956 0.0
C91 C 0.50837 0.32518 0.42974 0.0
C92 C 0.62439 0.3168 0.48863 0.0
C93 C 0.51575 0.39738 0.51546 0.0
O94 O 0.5436 0.33164 0.44498 0.0
O95 O 0.47685 0.32638 0.45564 0.0
O96 O 0.58373 0.34956 0.57286 0.0
O97 O 0.5266 0.33084 0.54937 0.0
Co98 Co 0.43255 0.6706 0.50806 0.0
O99 O 0.40581 0.70728 0.50833 0.0
O100 O 0.37941 0.66727 0.47916 0.0
C101 C 0.45282 0.67211 0.58397 0.0
O102 O 0.45306 0.62865 0.50351 0.0
Co103 Co 0.52491 0.67137 0.5222 0.0
O104 O 0.51783 0.62911 0.52695 0.0
C105 C 0.4918 0.68721 0.42964 0.0
C106 C 0.37581 0.69481 0.48768 0.0
C107 C 0.4863 0.61557 0.51412 0.0
O108 O 0.45671 0.6803 0.44482 0.0
O109 O 0.52323 0.68681 0.45574 0.0
O110 O 0.41683 0.66354 0.57321 0.0
O111 O 0.47367 0.68246 0.5492 0.0
H112 H 0.9287 0.93643 0.01968 0.0
H113 H 0.04726 0.92949 0.95818 0.0
H114 H 0.93738 0.98875 0.02538 0.0
H115 H 0.05546 0.98132 0.9631 0.0
H116 H 0.07292 0.074 0.01467 0.0
H117 H 0.06507 0.02139 0.01679 0.0
H118 H 0.94089 0.03026 0.97487 0.0
H119 H 0.94825 0.08205 0.97362 0.0
C120 C 0.95644 0.94597 0.00713 0.0
C121 C 0.98713 0.92854 0.98842 0.0
C122 C 0.96148 0.97601 0.01036 0.0
C123 C 0.9973 0.98938 0.9949 0.0
C124 C 0.02784 0.97189 0.97622 0.0
C125 C 0.02285 0.94202 0.97301 0.0
C126 C 0.04396 0.06469 0.00611 0.0
C127 C 0.0114 0.0825 0.99386 0.0
C128 C 0.03943 0.03451 0.00714 0.0
C129 C 0.00221 0.02146 -0.00388 0.0
C130 C 0.96976 0.03937 0.98437 0.0
C131 C 0.97425 0.06929 0.98324 0.0
H132 H 0.94839 0.92885 0.52603 0.0
H133 H 0.07493 0.93874 0.49528 0.0
H134 H 0.9398 0.98069 0.52418 0.0
H135 H 0.06596 0.99115 0.49263 0.0
H136 H 0.04438 0.08191 0.55111 0.0
H137 H 0.05248 0.03018 0.54689 0.0
H138 H 0.93895 0.02302 0.47382 0.0
H139 H 0.93034 0.0755 0.47857 0.0
C140 C 0.97453 0.94203 0.51863 0.0
C141 C 0.01258 0.92936 0.51113 0.0
C142 C 0.96937 0.97193 0.51713 0.0
C143 C 0.00206 0.99026 0.50821 0.0
C144 C 0.04011 0.9777 0.50014 0.0
C145 C 0.0453 0.94762 0.50151 0.0
C146 C 0.02093 0.06953 0.53395 0.0
C147 C 0.98658 0.08316 0.51506 0.0
C148 C 0.02589 0.03968 0.53122 0.0
C149 C 0.99669 0.02229 0.50958 0.0
C150 C 0.96203 0.03573 0.491 0.0
C151 C 0.95703 0.06583 0.49368 0.0
H152 H 0.57001 0.57449 0.02572 0.0
H153 H 0.45301 0.58066 0.96002 0.0
H154 H 0.56168 0.5221 0.0314 0.0
H155 H 0.44518 0.52885 0.96498 0.0
H156 H 0.42681 0.43634 0.01525 0.0
H157 H 0.43448 0.48893 0.01846 0.0
H158 H 0.55974 0.48043 0.9809 0.0
H159 H 0.55252 0.42861 0.97862 0.0
C160 C 0.54269 0.56478 0.01229 0.0
C161 C 0.51233 0.58201 0.99239 0.0
C162 C 0.53785 0.53471 0.01551 0.0
C163 C 0.50256 0.52114 -0.00112 0.0
C164 C 0.47236 0.53844 0.97904 0.0
C165 C 0.47716 0.56831 0.97582 0.0
C166 C 0.45597 0.44572 0.00793 0.0
C167 C 0.48885 0.42801 -0.00353 0.0
C168 C 0.46041 0.47589 0.00958 0.0
C169 C 0.49785 0.48904 -1e-05 0.0
C170 C 0.53066 0.47123 0.98925 0.0
C171 C 0.52626 0.44131 0.9875 0.0
H172 H 0.45574 0.43121 0.55064 0.0
H173 H 0.56866 0.43669 0.47549 0.0
H174 H 0.44822 0.48301 0.54624 0.0
H175 H 0.56063 0.48918 0.47048 0.0
H176 H 0.55428 0.58314 0.5235 0.0
H177 H 0.56159 0.53128 0.52073 0.0
H178 H 0.43457 0.52247 0.49286 0.0
H179 H 0.42689 0.57501 0.49653 0.0
C180 C 0.47904 0.44341 0.53284 0.0
C181 C 0.51294 0.42951 0.51336 0.0
C182 C 0.47441 0.47329 0.53 0.0
C183 C 0.50351 0.49042 0.50762 0.0
C184 C 0.53766 0.47669 0.48829 0.0
C185 C 0.54233 0.44657 0.49113 0.0
C186 C 0.52766 0.57034 0.51672 0.0
C187 C 0.48977 0.58352 0.51065 0.0
C188 C 0.53209 0.54041 0.51465 0.0
C189 C 0.4988 0.52252 0.50653 0.0
C190 C 0.46088 0.53557 0.49971 0.0
C191 C 0.45643 0.56572 0.50162 0.0
H192 H 0.06714 0.2074 0.13604 0.0
H193 H 0.94259 0.18121 0.13306 0.0
H194 H 0.06323 0.21373 0.22144 0.0
H195 H 0.93906 0.18607 0.2186 0.0
H196 H 0.93409 0.20914 0.37119 0.0
H197 H 0.93842 0.21533 0.28579 0.0
H198 H 0.06117 0.18466 0.28888 0.0
H199 H 0.05729 0.17996 0.37446 0.0
C200 C 0.03885 0.20309 0.15368 0.0
C201 C 0.00523 0.19363 0.12788 0.0
C202 C 0.03666 0.20652 0.20273 0.0
C203 C 0.00099 0.20008 0.2273 0.0
C204 C 0.96693 0.19166 0.20108 0.0
C205 C 0.96894 0.18871 0.15191 0.0
C206 C 0.96218 0.20415 0.3536 0.0
C207 C 0.99528 0.19389 0.37946 0.0
C208 C 0.9646 0.20749 0.30455 0.0
C209 C 0.99996 0.20015 0.28006 0.0
C210 C 0.03357 0.19095 0.30635 0.0
C211 C 0.03135 0.18809 0.35553 0.0
H212 H 0.07275 0.83436 0.35858 0.0
H213 H 0.95165 0.80269 0.37834 0.0
H214 H 0.06567 0.82904 0.27374 0.0
H215 H 0.94512 0.79628 0.29303 0.0
H216 H 0.05267 0.80432 0.12192 0.0
H217 H 0.0597 0.79821 0.20725 0.0
H218 H 0.9372 0.82689 0.22665 0.0
H219 H 0.92969 0.83189 0.14184 0.0
C220 C 0.04479 0.82575 0.34493 0.0
C221 C 0.01255 0.81932 0.3754 0.0
C222 C 0.04086 0.82246 0.29607 0.0
C223 C 0.00473 0.81238 0.27631 0.0
C224 C 0.97312 0.80463 0.30693 0.0
C225 C 0.97693 0.80817 0.35591 0.0
C226 C 0.02709 0.80895 0.14438 0.0
C227 C 0.99076 0.81888 0.12492 0.0
C228 C 0.03118 0.80559 0.19336 0.0
C229 C 0.99913 0.81229 0.22402 0.0
C230 C 0.96238 0.82113 0.20429 0.0
C231 C 0.95819 0.82425 0.15544 0.0
H232 H 0.97717 0.82289 0.61345 0.0
H233 H 0.09033 0.85807 0.6614 0.0
H234 H 0.95296 0.82202 0.69524 0.0
H235 H 0.06607 0.85754 0.74264 0.0
H236 H 0.02448 0.82288 0.88679 0.0
H237 H 0.04853 0.82266 0.80495 0.0
H238 H 0.93414 0.85623 0.75812 0.0
H239 H 0.91005 0.8561 0.83947 0.0
C240 C 0.99676 0.83053 0.64139 0.0
C241 C 0.03561 0.84051 0.63106 0.0
C242 C 0.9829 0.83013 0.68816 0.0
C243 C 0.00771 0.83961 0.72541 0.0
C244 C 0.04648 0.84969 0.71487 0.0
C245 C 0.06023 0.85018 0.66824 0.0
C246 C 0.00457 0.83021 0.85897 0.0
C247 C 0.96543 0.83948 0.8695 0.0
C248 C 0.01833 0.83019 0.81217 0.0
C249 C 0.99315 0.83935 0.77507 0.0
C250 C 0.95405 0.84866 0.78578 0.0
C251 C 0.94038 0.84877 0.83247 0.0
H252 H 0.97343 0.18697 0.88925 0.0
H253 H 0.08748 0.15159 0.84478 0.0
H254 H 0.95049 0.18684 0.80702 0.0
H255 H 0.06444 0.15113 0.76301 0.0
H256 H 0.02542 0.18684 0.61805 0.0
H257 H 0.04816 0.18618 0.70033 0.0
H258 H 0.9329 0.15238 0.74384 0.0
H259 H 0.91008 0.15337 0.66198 0.0
C260 C 0.99345 0.17902 0.86198 0.0
C261 C 0.03224 0.16938 0.87338 0.0
C262 C 0.98031 0.17884 0.81497 0.0
C263 C 0.00578 0.1691 0.77855 0.0
C264 C 0.04438 0.15917 0.79017 0.0
C265 C 0.05743 0.15926 0.83707 0.0
C266 C 0.00506 0.17921 0.64522 0.0
C267 C 0.966 0.17022 0.63364 0.0
C268 C 0.01808 0.17872 0.69226 0.0
C269 C 0.99223 0.16932 0.72855 0.0
C270 C 0.9533 0.16012 0.71678 0.0
C271 C 0.94036 0.16051 0.66982 0.0
H272 H 0.56766 0.70715 0.13533 0.0
H273 H 0.44375 0.67947 0.1325 0.0
H274 H 0.56349 0.71389 0.22063 0.0
H275 H 0.43999 0.68471 0.218 0.0
H276 H 0.43439 0.70844 0.3703 0.0
H277 H 0.43861 0.71428 0.28482 0.0
H278 H 0.56209 0.68517 0.28838 0.0
H279 H 0.55829 0.68083 0.37399 0.0
C280 C 0.53946 0.70258 0.15301 0.0
C281 C 0.50609 0.69259 0.12731 0.0
C282 C 0.53713 0.70625 0.20199 0.0
C283 C 0.50158 0.69951 0.22658 0.0
C284 C 0.46775 0.69054 0.20044 0.0
C285 C 0.46989 0.68737 0.15132 0.0
C286 C 0.4626 0.70372 0.35278 0.0
C287 C 0.49595 0.69399 0.37877 0.0
C288 C 0.46496 0.70686 0.3037 0.0
C289 C 0.50051 0.69984 0.27932 0.0
C290 C 0.53434 0.69119 0.30574 0.0
C291 C 0.53217 0.68855 0.35494 0.0
H292 H 0.56559 0.30272 0.37134 0.0
H293 H 0.44222 0.33156 0.37347 0.0
H294 H 0.5616 0.29584 0.28607 0.0
H295 H 0.43866 0.32614 0.28797 0.0
H296 H 0.43332 0.30241 0.13563 0.0
H297 H 0.43707 0.29648 0.22112 0.0
H298 H 0.56101 0.32466 0.21831 0.0
H299 H 0.55765 0.32914 0.13271 0.0
C300 C 0.53753 0.30749 0.35353 0.0
C301 C 0.50428 0.31787 0.37904 0.0
C302 C 0.53531 0.30374 0.30455 0.0
C303 C 0.5 0.31077 0.27975 0.0
C304 C 0.46623 0.32009 0.3057 0.0
C305 C 0.46826 0.32336 0.35482 0.0
C306 C 0.46154 0.30688 0.1533 0.0
C307 C 0.49514 0.31642 0.12749 0.0
C308 C 0.46363 0.3037 0.2024 0.0
C309 C 0.49917 0.31045 0.22699 0.0
C310 C 0.53325 0.31885 0.20077 0.0
C311 C 0.53133 0.32157 0.15156 0.0
H312 H 0.41219 0.35993 0.84526 0.0
H313 H 0.52655 0.32454 0.88848 0.0
H314 H 0.43489 0.36092 0.76336 0.0
H315 H 0.54917 0.32522 0.8061 0.0
H316 H 0.58889 0.35948 0.66134 0.0
H317 H 0.56633 0.36011 0.74332 0.0
H318 H 0.45109 0.32621 0.70004 0.0
H319 H 0.47358 0.3259 0.61763 0.0
C320 C 0.44224 0.35238 0.83725 0.0
C321 C 0.46761 0.3421 0.87324 0.0
C322 C 0.4551 0.35277 0.79027 0.0
C323 C 0.4937 0.343 0.77825 0.0
C324 C 0.51935 0.3331 0.81436 0.0
C325 C 0.50639 0.33261 0.86145 0.0
C326 C 0.55867 0.35225 0.66925 0.0
C327 C 0.53297 0.34259 0.6331 0.0
C328 C 0.54588 0.35243 0.71628 0.0
C329 C 0.50704 0.34308 0.72816 0.0
C330 C 0.48111 0.33377 0.69189 0.0
C331 C 0.49399 0.33348 0.64477 0.0
H332 H 0.475 0.68758 0.88903 0.0
H333 H 0.58946 0.65316 0.84403 0.0
H334 H 0.45212 0.68788 0.80676 0.0
H335 H 0.5665 0.65312 0.76224 0.0
H336 H 0.52672 0.68828 0.61735 0.0
H337 H 0.54956 0.68805 0.69963 0.0
H338 H 0.43492 0.65339 0.74355 0.0
H339 H 0.412 0.65395 0.66174 0.0
C340 C 0.49515 0.67997 0.86163 0.0
C341 C 0.53399 0.67041 0.87291 0.0
C342 C 0.48204 0.68003 0.81459 0.0
C343 C 0.50761 0.67063 0.77803 0.0
C344 C 0.54634 0.66089 0.78951 0.0
C345 C 0.55935 0.66073 0.83643 0.0
C346 C 0.50651 0.68057 0.64462 0.0
C347 C 0.4676 0.67119 0.63316 0.0
C348 C 0.51959 0.68034 0.69166 0.0
C349 C 0.49394 0.6708 0.72806 0.0
C350 C 0.45515 0.66125 0.71641 0.0
C351 C 0.44216 0.66139 0.66948 0.0
H352 H 0.30243 0.33306 0.05388 0.0
H353 H 0.36634 0.25826 0.00256 0.0
H354 H 0.24194 0.30345 0.06399 0.0
H355 H 0.30638 0.22918 0.01128 0.0
H356 H 0.13363 0.25225 0.00463 0.0
H357 H 0.19368 0.28125 0.01314 0.0
H358 H 0.25881 0.20642 0.06242 0.0
H359 H 0.1982 0.17691 0.0525 0.0
C360 C 0.30367 0.31034 0.04508 0.0
C361 C 0.33912 0.29816 0.02701 0.0
C362 C 0.269 0.29335 0.05064 0.0
C363 C 0.26909 0.26382 0.03827 0.0
C364 C 0.3051 0.25161 0.02186 0.0
C365 C 0.33953 0.26849 0.01638 0.0
C366 C 0.16062 0.24188 0.01766 0.0
C367 C 0.16117 0.21209 0.02737 0.0
C368 C 0.19511 0.25871 0.02303 0.0
C369 C 0.23133 0.24632 0.03838 0.0
C370 C 0.23158 0.21666 0.04988 0.0
C371 C 0.19684 0.19972 0.04444 0.0
H372 H 0.7049 0.67629 0.01136 0.0
H373 H 0.62931 0.74805 0.04972 0.0
H374 H 0.76399 0.70727 0.01681 0.0
H375 H 0.68812 0.77871 0.05871 0.0
H376 H 0.79311 0.83503 0.00835 0.0
H377 H 0.73405 0.80414 0.01555 0.0
H378 H 0.81028 0.73317 0.05855 0.0
H379 H 0.869 0.76367 0.04782 0.0
C380 C 0.70116 0.69851 0.02242 0.0
C381 C 0.66264 0.70982 0.02988 0.0
C382 C 0.73506 0.71642 0.02575 0.0
C383 C 0.73125 0.74591 0.03776 0.0
C384 C 0.69257 0.75653 0.04796 0.0
C385 C 0.65876 0.73884 0.0434 0.0
C386 C 0.79695 0.81294 0.01999 0.0
C387 C 0.83553 0.80169 0.02727 0.0
C388 C 0.76306 0.79509 0.02434 0.0
C389 C 0.76697 0.76573 0.0372 0.0
C390 C 0.80573 0.75521 0.04716 0.0
C391 C 0.83951 0.77283 0.0416 0.0
H392 H 0.20896 0.83701 0.49641 0.0
H393 H 0.13412 0.76624 0.45147 0.0
H394 H 0.26816 0.80616 0.49046 0.0
H395 H 0.19307 0.73582 0.44201 0.0
H396 H 0.29679 0.67822 0.49157 0.0
H397 H 0.238 0.70938 0.48495 0.0
H398 H 0.31524 0.78116 0.44829 0.0
H399 H 0.37365 0.75029 0.45836 0.0
C400 C 0.20543 0.81509 0.48379 0.0
C401 C 0.16707 0.80396 0.47461 0.0
C402 C 0.23939 0.79726 0.48019 0.0
C403 C 0.23579 0.76807 0.46622 0.0
C404 C 0.19733 0.75772 0.4543 0.0
C405 C 0.16344 0.77529 0.45911 0.0
C406 C 0.30093 0.70056 0.48144 0.0
C407 C 0.33967 0.71188 0.47574 0.0
C408 C 0.2672 0.71858 0.47743 0.0
C409 C 0.27144 0.7482 0.4665 0.0
C410 C 0.31041 0.75887 0.45815 0.0
C411 C 0.34402 0.74106 0.46335 0.0
H412 H 0.69743 0.33415 0.45172 0.0
H413 H 0.63334 0.25924 0.50239 0.0
H414 H 0.75786 0.30455 0.44142 0.0
H415 H 0.69325 0.23016 0.49353 0.0
H416 H 0.80147 0.17796 0.45287 0.0
H417 H 0.74096 0.20749 0.4426 0.0
H418 H 0.80601 0.28232 0.49221 0.0
H419 H 0.86598 0.2533 0.50105 0.0
C420 C 0.69614 0.31141 0.46033 0.0
C421 C 0.66066 0.29919 0.47829 0.0
C422 C 0.73078 0.29442 0.45467 0.0
C423 C 0.73064 0.26487 0.46685 0.0
C424 C 0.69459 0.25261 0.4831 0.0
C425 C 0.66018 0.26949 0.48867 0.0
C426 C 0.80284 0.20079 0.46091 0.0
C427 C 0.83845 0.21314 0.47821 0.0
C428 C 0.76815 0.21773 0.45528 0.0
C429 C 0.7684 0.24738 0.46681 0.0
C430 C 0.80458 0.25977 0.48231 0.0
C431 C 0.83903 0.24294 0.48787 0.0
loop_
_geom_bond_atom_site_label_1
_geom_bond_atom_site_label_2
_geom_bond_distance
_geom_bond_site_symmetry_2
_ccdc_geom_bond_type
Co0 O1 2.216 1_556 S
Co0 O2 2.090 1_556 S
Co0 O4 2.005 . S
Co0 O10 2.010 1_556 S
Co0 O12 2.148 . S
Co0 O13 2.249 . S
O1 Co0 2.216 1_554 S
O1 C8 1.247 . S
O2 Co0 2.090 1_554 S
O2 C8 1.261 . S
C3 O12 1.247 . S
C3 O13 1.272 . S
O4 Co0 2.005 . S
O4 C9 1.259 1_556 S
Co5 O6 2.061 . S
Co5 O11 2.052 . S
Co5 O13 2.135 1_654 S
O6 Co5 2.061 . S
O6 C9 1.235 1_655 S
C7 O10 1.238 . S
C7 O11 1.241 1_455 S
C8 O1 1.247 . S
C8 O2 1.261 . S
C9 O4 1.259 1_554 S
C9 O6 1.235 1_455 S
O10 Co0 2.010 1_554 S
O10 C7 1.238 . S
O11 Co5 2.052 . S
O11 C7 1.241 1_655 S
O12 Co0 2.148 . S
O12 C3 1.247 . S
O13 Co0 2.249 . S
O13 C3 1.272 . S
O13 Co5 2.135 1_456 S
Co14 O15 2.216 1_556 S
Co14 O16 2.090 1_556 S
Co14 O18 2.005 . S
Co14 O24 2.010 1_556 S
Co14 O26 2.148 . S
Co14 O27 2.249 . S
O15 Co14 2.216 1_554 S
O15 C22 1.247 . S
O16 Co14 2.090 1_554 S
O16 C22 1.261 . S
C17 O26 1.247 . S
C17 O27 1.272 . S
O18 Co14 2.005 . S
O18 C23 1.259 1_556 S
Co19 O20 2.061 . S
Co19 O25 2.052 . S
Co19 O27 2.135 1_454 S
O20 Co19 2.061 . S
O20 C23 1.235 1_455 S
C21 O24 1.238 . S
C21 O25 1.241 1_655 S
C22 O15 1.247 . S
C22 O16 1.261 . S
C23 O18 1.259 1_554 S
C23 O20 1.235 1_655 S
O24 Co14 2.010 1_554 S
O24 C21 1.238 . S
O25 Co19 2.052 . S
O25 C21 1.241 1_455 S
O26 Co14 2.148 . S
O26 C17 1.247 . S
O27 Co14 2.249 . S
O27 C17 1.272 . S
O27 Co19 2.135 1_656 S
Co28 O29 2.216 . S
Co28 O30 2.091 . S
Co28 O32 2.004 . S
Co28 O38 2.021 . S
Co28 O40 2.137 . S
Co28 O41 2.244 . S
O29 Co28 2.216 . S
O29 C36 1.247 . S
O30 Co28 2.091 . S
O30 C36 1.261 . S
C31 O40 1.247 . S
C31 O41 1.272 . S
O32 Co28 2.004 . S
O32 C37 1.259 . S
Co33 O34 2.061 . S
Co33 O39 2.052 . S
Co33 O41 2.135 1_655 S
O34 Co33 2.061 . S
O34 C37 1.235 1_655 S
C35 O38 1.238 . S
C35 O39 1.241 1_455 S
C36 O29 1.247 . S
C36 O30 1.261 . S
C37 O32 1.259 . S
C37 O34 1.235 1_455 S
O38 Co28 2.021 . S
O38 C35 1.238 . S
O39 Co33 2.052 . S
O39 C35 1.241 1_655 S
O40 Co28 2.137 . S
O40 C31 1.247 . S
O41 Co28 2.244 . S
O41 C31 1.272 . S
O41 Co33 2.135 1_455 S
Co42 O43 2.216 . S
Co42 O44 2.091 . S
Co42 O46 2.004 . S
Co42 O52 2.021 . S
Co42 O54 2.137 . S
Co42 O55 2.244 . S
O43 Co42 2.216 . S
O43 C50 1.247 . S
O44 Co42 2.091 . S
O44 C50 1.261 . S
C45 O54 1.247 . S
C45 O55 1.272 . S
O46 Co42 2.004 . S
O46 C51 1.259 . S
Co47 O48 2.061 . S
Co47 O53 2.052 . S
Co47 O55 2.135 1_455 S
O48 Co47 2.061 . S
O48 C51 1.235 1_455 S
C49 O52 1.238 . S
C49 O53 1.241 1_655 S
C50 O43 1.247 . S
C50 O44 1.261 . S
C51 O46 1.259 . S
C51 O48 1.235 1_655 S
O52 Co42 2.021 . S
O52 C49 1.238 . S
O53 Co47 2.052 . S
O53 C49 1.241 1_455 S
O54 Co42 2.137 . S
O54 C45 1.247 . S
O55 Co42 2.244 . S
O55 C45 1.272 . S
O55 Co47 2.135 1_655 S
Co56 O57 2.216 1_556 S
Co56 O58 2.090 1_556 S
Co56 O60 2.005 . S
Co56 O66 2.010 1_556 S
Co56 O68 2.148 . S
Co56 O69 2.249 . S
O57 Co56 2.216 1_554 S
O57 C64 1.247 . S
O58 Co56 2.090 1_554 S
O58 C64 1.261 . S
C59 O68 1.247 . S
C59 O69 1.272 . S
O60 Co56 2.005 . S
O60 C65 1.259 1_556 S
Co61 O62 2.061 . S
Co61 O67 2.052 . S
Co61 O69 2.135 1_554 S
O62 Co61 2.061 . S
O62 C65 1.235 . S
C63 O66 1.238 . S
C63 O67 1.241 . S
C64 O57 1.247 . S
C64 O58 1.261 . S
C65 O60 1.259 1_554 S
C65 O62 1.235 . S
O66 Co56 2.010 1_554 S
O66 C63 1.238 . S
O67 Co61 2.052 . S
O67 C63 1.241 . S
O68 Co56 2.148 . S
O68 C59 1.247 . S
O69 Co56 2.249 . S
O69 C59 1.272 . S
O69 Co61 2.135 1_556 S
Co70 O71 2.216 1_556 S
Co70 O72 2.090 1_556 S
Co70 O74 2.005 . S
Co70 O80 2.010 1_556 S
Co70 O82 2.148 . S
Co70 O83 2.249 . S
O71 Co70 2.216 1_554 S
O71 C78 1.247 . S
O72 Co70 2.090 1_554 S
O72 C78 1.261 . S
C73 O82 1.247 . S
C73 O83 1.272 . S
O74 Co70 2.005 . S
O74 C79 1.259 1_556 S
Co75 O76 2.061 . S
Co75 O81 2.052 . S
Co75 O83 2.135 1_554 S
O76 Co75 2.061 . S
O76 C79 1.235 . S
C77 O80 1.238 . S
C77 O81 1.241 . S
C78 O71 1.247 . S
C78 O72 1.261 . S
C79 O74 1.259 1_554 S
C79 O76 1.235 . S
O80 Co70 2.010 1_554 S
O80 C77 1.238 . S
O81 Co75 2.052 . S
O81 C77 1.241 . S
O82 Co70 2.148 . S
O82 C73 1.247 . S
O83 Co70 2.249 . S
O83 C73 1.272 . S
O83 Co75 2.135 1_556 S
Co84 O85 2.216 . S
Co84 O86 2.091 . S
Co84 O88 2.004 . S
Co84 O94 2.021 . S
Co84 O96 2.137 . S
Co84 O97 2.244 . S
O85 Co84 2.216 . S
O85 C92 1.247 . S
O86 Co84 2.091 . S
O86 C92 1.261 . S
C87 O96 1.247 . S
C87 O97 1.272 . S
O88 Co84 2.004 . S
O88 C93 1.259 . S
Co89 O90 2.061 . S
Co89 O95 2.052 . S
Co89 O97 2.135 . S
O90 Co89 2.061 . S
O90 C93 1.235 . S
C91 O94 1.238 . S
C91 O95 1.241 . S
C92 O85 1.247 . S
C92 O86 1.261 . S
C93 O88 1.259 . S
C93 O90 1.235 . S
O94 Co84 2.021 . S
O94 C91 1.238 . S
O95 Co89 2.052 . S
O95 C91 1.241 . S
O96 Co84 2.137 . S
O96 C87 1.247 . S
O97 Co84 2.244 . S
O97 C87 1.272 . S
O97 Co89 2.135 . S
Co98 O99 2.216 . S
Co98 O100 2.091 . S
Co98 O102 2.004 . S
Co98 O108 2.021 . S
Co98 O110 2.137 . S
Co98 O111 2.244 . S
O99 Co98 2.216 . S
O99 C106 1.247 . S
O100 Co98 2.091 . S
O100 C106 1.261 . S
C101 O110 1.247 . S
C101 O111 1.272 . S
O102 Co98 2.004 . S
O102 C107 1.259 . S
Co103 O104 2.061 . S
Co103 O109 2.052 . S
Co103 O111 2.135 . S
O104 Co103 2.061 . S
O104 C107 1.235 . S
C105 O108 1.238 . S
C105 O109 1.241 . S
C106 O99 1.247 . S
C106 O100 1.261 . S
C107 O102 1.259 . S
C107 O104 1.235 . S
O108 Co98 2.021 . S
O108 C105 1.238 . S
O109 Co103 2.052 . S
O109 C105 1.241 . S
O110 Co98 2.137 . S
O110 C101 1.247 . S
O111 Co98 2.244 . S
O111 C101 1.272 . S
O111 Co103 2.135 . S
H112 C120 0.950 . S
H113 C125 0.950 . S
H114 C122 0.950 . S
H115 C124 0.950 . S
H116 C126 0.950 . S
H117 C128 0.950 . S
H118 C130 0.950 . S
H119 C131 0.950 . S
C120 H112 0.950 . S
C120 C121 1.386 . S
C120 C122 1.391 . S
C121 C120 1.386 . S
C121 C125 1.393 1_654 S
C122 H114 0.950 . S
C122 C120 1.391 . S
C122 C123 1.400 . S
C123 C122 1.400 . S
C123 C124 1.398 1_654 S
C123 C129 1.491 1_665 S
C124 H115 0.950 . S
C124 C123 1.398 1_456 S
C124 C125 1.391 . S
C125 H113 0.950 . S
C125 C121 1.393 1_456 S
C125 C124 1.391 . S
C126 H116 0.950 . S
C126 C127 1.386 1_556 S
C126 C128 1.391 . S
C127 C126 1.386 1_554 S
C127 C131 1.393 1_455 S
C128 H117 0.950 . S
C128 C126 1.391 . S
C128 C129 1.400 1_556 S
C129 C123 1.491 1_445 S
C129 C128 1.400 1_554 S
C129 C130 1.398 1_455 S
C130 H118 0.950 . S
C130 C129 1.398 1_655 S
C130 C131 1.391 . S
C131 H119 0.950 . S
C131 C127 1.393 1_655 S
C131 C130 1.391 . S
H132 C140 0.950 . S
H133 C145 0.950 . S
H134 C142 0.950 . S
H135 C144 0.950 . S
H136 C146 0.950 . S
H137 C148 0.950 . S
H138 C150 0.950 . S
H139 C151 0.950 . S
C140 H132 0.950 . S
C140 C141 1.386 1_655 S
C140 C142 1.391 . S
C141 C140 1.386 1_455 S
C141 C145 1.393 . S
C142 H134 0.950 . S
C142 C140 1.391 . S
C142 C143 1.400 1_655 S
C143 C142 1.400 1_455 S
C143 C144 1.398 . S
C143 C149 1.491 1_465 S
C144 H135 0.950 . S
C144 C143 1.398 . S
C144 C145 1.391 . S
C145 H133 0.950 . S
C145 C141 1.393 . S
C145 C144 1.391 . S
C146 H136 0.950 . S
C146 C147 1.386 1_455 S
C146 C148 1.391 . S
C147 C146 1.386 1_655 S
C147 C151 1.393 . S
C148 H137 0.950 . S
C148 C146 1.391 . S
C148 C149 1.400 1_455 S
C149 C143 1.491 1_645 S
C149 C148 1.400 1_655 S
C149 C150 1.398 . S
C150 H138 0.950 . S
C150 C149 1.398 . S
C150 C151 1.391 . S
C151 H139 0.950 . S
C151 C147 1.393 . S
C151 C150 1.391 . S
H152 C160 0.950 . S
H153 C165 0.950 . S
H154 C162 0.950 . S
H155 C164 0.950 . S
H156 C166 0.950 . S
H157 C168 0.950 . S
H158 C170 0.950 . S
H159 C171 0.950 . S
C160 H152 0.950 . S
C160 C161 1.386 . S
C160 C162 1.391 . S
C161 C160 1.386 . S
C161 C165 1.393 1_554 S
C162 H154 0.950 . S
C162 C160 1.391 . S
C162 C163 1.400 . S
C163 C162 1.400 . S
C163 C164 1.398 1_554 S
C163 C169 1.491 . S
C164 H155 0.950 . S
C164 C163 1.398 1_556 S
C164 C165 1.391 . S
C165 H153 0.950 . S
C165 C161 1.393 1_556 S
C165 C164 1.391 . S
C166 H156 0.950 . S
C166 C167 1.386 1_556 S
C166 C168 1.391 . S
C167 C166 1.386 1_554 S
C167 C171 1.393 . S
C168 H157 0.950 . S
C168 C166 1.391 . S
C168 C169 1.400 1_556 S
C169 C163 1.491 . S
C169 C168 1.400 1_554 S
C169 C170 1.398 . S
C170 H158 0.950 . S
C170 C169 1.398 . S
C170 C171 1.391 . S
C171 H159 0.950 . S
C171 C167 1.393 . S
C171 C170 1.391 . S
H172 C180 0.950 . S
H173 C185 0.950 . S
H174 C182 0.950 . S
H175 C184 0.950 . S
H176 C186 0.950 . S
H177 C188 0.950 . S
H178 C190 0.950 . S
H179 C191 0.950 . S
C180 H172 0.950 . S
C180 C181 1.386 . S
C180 C182 1.391 . S
C181 C180 1.386 . S
C181 C185 1.393 . S
C182 H174 0.950 . S
C182 C180 1.391 . S
C182 C183 1.400 . S
C183 C182 1.400 . S
C183 C184 1.398 . S
C183 C189 1.491 . S
C184 H175 0.950 . S
C184 C183 1.398 . S
C184 C185 1.391 . S
C185 H173 0.950 . S
C185 C181 1.393 . S
C185 C184 1.391 . S
C186 H176 0.950 . S
C186 C187 1.386 . S
C186 C188 1.391 . S
C187 C186 1.386 . S
C187 C191 1.393 . S
C188 H177 0.950 . S
C188 C186 1.391 . S
C188 C189 1.400 . S
C189 C183 1.491 . S
C189 C188 1.400 . S
C189 C190 1.398 . S
C190 H178 0.950 . S
C190 C189 1.398 . S
C190 C191 1.391 . S
C191 H179 0.950 . S
C191 C187 1.393 . S
C191 C190 1.391 . S
H192 C200 0.950 . S
H193 C205 0.950 . S
H194 C202 0.950 . S
H195 C204 0.950 . S
H196 C206 0.950 . S
H197 C208 0.950 . S
H198 C210 0.950 . S
H199 C211 0.950 . S
C200 H192 0.950 . S
C200 C201 1.386 . S
C200 C202 1.391 . S
C201 C200 1.386 . S
C201 C205 1.393 1_455 S
C202 H194 0.950 . S
C202 C200 1.391 . S
C202 C203 1.400 . S
C203 C202 1.400 . S
C203 C204 1.398 1_455 S
C203 C209 1.491 1_455 S
C204 H195 0.950 . S
C204 C203 1.398 1_655 S
C204 C205 1.391 . S
C205 H193 0.950 . S
C205 C201 1.393 1_655 S
C205 C204 1.391 . S
C206 H196 0.950 . S
C206 C207 1.386 . S
C206 C208 1.391 . S
C207 C206 1.386 . S
C207 C211 1.393 1_655 S
C208 H197 0.950 . S
C208 C206 1.391 . S
C208 C209 1.400 . S
C209 C203 1.491 1_655 S
C209 C208 1.400 . S
C209 C210 1.398 1_655 S
C210 H198 0.950 . S
C210 C209 1.398 1_455 S
C210 C211 1.391 . S
C211 H199 0.950 . S
C211 C207 1.393 1_455 S
C211 C210 1.391 . S
H212 C220 0.950 . S
H213 C225 0.950 . S
H214 C222 0.950 . S
H215 C224 0.950 . S
H216 C226 0.950 . S
H217 C228 0.950 . S
H218 C230 0.950 . S
H219 C231 0.950 . S
C220 H212 0.950 . S
C220 C221 1.386 . S
C220 C222 1.391 . S
C221 C220 1.386 . S
C221 C225 1.393 . S
C222 H214 0.950 . S
C222 C220 1.391 . S
C222 C223 1.400 . S
C223 C222 1.400 . S
C223 C224 1.398 . S
C223 C229 1.491 1_455 S
C224 H215 0.950 . S
C224 C223 1.398 . S
C224 C225 1.391 . S
C225 H213 0.950 . S
C225 C221 1.393 . S
C225 C224 1.391 . S
C226 H216 0.950 . S
C226 C227 1.386 . S
C226 C228 1.391 . S
C227 C226 1.386 . S
C227 C231 1.393 . S
C228 H217 0.950 . S
C228 C226 1.391 . S
C228 C229 1.400 . S
C229 C223 1.491 1_655 S
C229 C228 1.400 . S
C229 C230 1.398 . S
C230 H218 0.950 . S
C230 C229 1.398 . S
C230 C231 1.391 . S
C231 H219 0.950 . S
C231 C227 1.393 . S
C231 C230 1.391 . S
H232 C240 0.950 . S
H233 C245 0.950 . S
H234 C242 0.950 . S
H235 C244 0.950 . S
H236 C246 0.950 . S
H237 C248 0.950 . S
H238 C250 0.950 . S
H239 C251 0.950 . S
C240 H232 0.950 . S
C240 C241 1.386 1_655 S
C240 C242 1.391 . S
C241 C240 1.386 1_455 S
C241 C245 1.393 . S
C242 H234 0.950 . S
C242 C240 1.391 . S
C242 C243 1.400 1_655 S
C243 C242 1.400 1_455 S
C243 C244 1.398 . S
C243 C249 1.491 1_455 S
C244 H235 0.950 . S
C244 C243 1.398 . S
C244 C245 1.391 . S
C245 H233 0.950 . S
C245 C241 1.393 . S
C245 C244 1.391 . S
C246 H236 0.950 . S
C246 C247 1.386 1_455 S
C246 C248 1.391 . S
C247 C246 1.386 1_655 S
C247 C251 1.393 . S
C248 H237 0.950 . S
C248 C246 1.391 . S
C248 C249 1.400 1_455 S
C249 C243 1.491 1_655 S
C249 C248 1.400 1_655 S
C249 C250 1.398 . S
C250 H238 0.950 . S
C250 C249 1.398 . S
C250 C251 1.391 . S
C251 H239 0.950 . S
C251 C247 1.393 . S
C251 C250 1.391 . S
H252 C260 0.950 . S
H253 C265 0.950 . S
H254 C262 0.950 . S
H255 C264 0.950 . S
H256 C266 0.950 . S
H257 C268 0.950 . S
H258 C270 0.950 . S
H259 C271 0.950 . S
C260 H252 0.950 . S
C260 C261 1.386 1_655 S
C260 C262 1.391 . S
C261 C260 1.386 1_455 S
C261 C265 1.393 . S
C262 H254 0.950 . S
C262 C260 1.391 . S
C262 C263 1.400 1_655 S
C263 C262 1.400 1_455 S
C263 C264 1.398 . S
C263 C269 1.491 1_455 S
C264 H255 0.950 . S
C264 C263 1.398 . S
C264 C265 1.391 . S
C265 H253 0.950 . S
C265 C261 1.393 . S
C265 C264 1.391 . S
C266 H256 0.950 . S
C266 C267 1.386 1_455 S
C266 C268 1.391 . S
C267 C266 1.386 1_655 S
C267 C271 1.393 . S
C268 H257 0.950 . S
C268 C266 1.391 . S
C268 C269 1.400 1_455 S
C269 C263 1.491 1_655 S
C269 C268 1.400 1_655 S
C269 C270 1.398 . S
C270 H258 0.950 . S
C270 C269 1.398 . S
C270 C271 1.391 . S
C271 H259 0.950 . S
C271 C267 1.393 . S
C271 C270 1.391 . S
H272 C280 0.950 . S
H273 C285 0.950 . S
H274 C282 0.950 . S
H275 C284 0.950 . S
H276 C286 0.950 . S
H277 C288 0.950 . S
H278 C290 0.950 . S
H279 C291 0.950 . S
C280 H272 0.950 . S
C280 C281 1.386 . S
C280 C282 1.391 . S
C281 C280 1.386 . S
C281 C285 1.393 . S
C282 H274 0.950 . S
C282 C280 1.391 . S
C282 C283 1.400 . S
C283 C282 1.400 . S
C283 C284 1.398 . S
C283 C289 1.491 . S
C284 H275 0.950 . S
C284 C283 1.398 . S
C284 C285 1.391 . S
C285 H273 0.950 . S
C285 C281 1.393 . S
C285 C284 1.391 . S
C286 H276 0.950 . S
C286 C287 1.386 . S
C286 C288 1.391 . S
C287 C286 1.386 . S
C287 C291 1.393 . S
C288 H277 0.950 . S
C288 C286 1.391 . S
C288 C289 1.400 . S
C289 C283 1.491 . S
C289 C288 1.400 . S
C289 C290 1.398 . S
C290 H278 0.950 . S
C290 C289 1.398 . S
C290 C291 1.391 . S
C291 H279 0.950 . S
C291 C287 1.393 . S
C291 C290 1.391 . S
H292 C300 0.950 . S
H293 C305 0.950 . S
H294 C302 0.950 . S
H295 C304 0.950 . S
H296 C306 0.950 . S
H297 C308 0.950 . S
H298 C310 0.950 . S
H299 C311 0.950 . S
C300 H292 0.950 . S
C300 C301 1.386 . S
C300 C302 1.391 . S
C301 C300 1.386 . S
C301 C305 1.393 . S
C302 H294 0.950 . S
C302 C300 1.391 . S
C302 C303 1.400 . S
C303 C302 1.400 . S
C303 C304 1.398 . S
C303 C309 1.491 . S
C304 H295 0.950 . S
C304 C303 1.398 . S
C304 C305 1.391 . S
C305 H293 0.950 . S
C305 C301 1.393 . S
C305 C304 1.391 . S
C306 H296 0.950 . S
C306 C307 1.386 . S
C306 C308 1.391 . S
C307 C306 1.386 . S
C307 C311 1.393 . S
C308 H297 0.950 . S
C308 C306 1.391 . S
C308 C309 1.400 . S
C309 C303 1.491 . S
C309 C308 1.400 . S
C309 C310 1.398 . S
C310 H298 0.950 . S
C310 C309 1.398 . S
C310 C311 1.391 . S
C311 H299 0.950 . S
C311 C307 1.393 . S
C311 C310 1.391 . S
H312 C320 0.950 . S
H313 C325 0.950 . S
H314 C322 0.950 . S
H315 C324 0.950 . S
H316 C326 0.950 . S
H317 C328 0.950 . S
H318 C330 0.950 . S
H319 C331 0.950 . S
C320 H312 0.950 . S
C320 C321 1.386 . S
C320 C322 1.391 . S
C321 C320 1.386 . S
C321 C325 1.393 . S
C322 H314 0.950 . S
C322 C320 1.391 . S
C322 C323 1.400 . S
C323 C322 1.400 . S
C323 C324 1.398 . S
C323 C329 1.491 . S
C324 H315 0.950 . S
C324 C323 1.398 . S
C324 C325 1.391 . S
C325 H313 0.950 . S
C325 C321 1.393 . S
C325 C324 1.391 . S
C326 H316 0.950 . S
C326 C327 1.386 . S
C326 C328 1.391 . S
C327 C326 1.386 . S
C327 C331 1.393 . S
C328 H317 0.950 . S
C328 C326 1.391 . S
C328 C329 1.400 . S
C329 C323 1.491 . S
C329 C328 1.400 . S
C329 C330 1.398 . S
C330 H318 0.950 . S
C330 C329 1.398 . S
C330 C331 1.391 . S
C331 H319 0.950 . S
C331 C327 1.393 . S
C331 C330 1.391 . S
H332 C340 0.950 . S
H333 C345 0.950 . S
H334 C342 0.950 . S
H335 C344 0.950 . S
H336 C346 0.950 . S
H337 C348 0.950 . S
H338 C350 0.950 . S
H339 C351 0.950 . S
C340 H332 0.950 . S
C340 C341 1.386 . S
C340 C342 1.391 . S
C341 C340 1.386 . S
C341 C345 1.393 . S
C342 H334 0.950 . S
C342 C340 1.391 . S
C342 C343 1.400 . S
C343 C342 1.400 . S
C343 C344 1.398 . S
C343 C349 1.491 . S
C344 H335 0.950 . S
C344 C343 1.398 . S
C344 C345 1.391 . S
C345 H333 0.950 . S
C345 C341 1.393 . S
C345 C344 1.391 . S
C346 H336 0.950 . S
C346 C347 1.386 . S
C346 C348 1.391 . S
C347 C346 1.386 . S
C347 C351 1.393 . S
C348 H337 0.950 . S
C348 C346 1.391 . S
C348 C349 1.400 . S
C349 C343 1.491 . S
C349 C348 1.400 . S
C349 C350 1.398 . S
C350 H338 0.950 . S
C350 C349 1.398 . S
C350 C351 1.391 . S
C351 H339 0.950 . S
C351 C347 1.393 . S
C351 C350 1.391 . S
H352 C360 0.950 . S
H353 C365 0.950 . S
H354 C362 0.950 . S
H355 C364 0.950 . S
H356 C366 0.950 . S
H357 C368 0.950 . S
H358 C370 0.950 . S
H359 C371 0.950 . S
C360 H352 0.950 . S
C360 C361 1.386 . S
C360 C362 1.391 . S
C361 C360 1.386 . S
C361 C365 1.393 1_554 S
C362 H354 0.950 . S
C362 C360 1.391 . S
C362 C363 1.400 . S
C363 C362 1.400 . S
C363 C364 1.398 1_554 S
C363 C369 1.491 . S
C364 H355 0.950 . S
C364 C363 1.398 1_556 S
C364 C365 1.391 . S
C365 H353 0.950 . S
C365 C361 1.393 1_556 S
C365 C364 1.391 . S
C366 H356 0.950 . S
C366 C367 1.386 1_556 S
C366 C368 1.391 . S
C367 C366 1.386 1_554 S
C367 C371 1.393 . S
C368 H357 0.950 . S
C368 C366 1.391 . S
C368 C369 1.400 1_556 S
C369 C363 1.491 . S
C369 C368 1.400 1_554 S
C369 C370 1.398 . S
C370 H358 0.950 . S
C370 C369 1.398 . S
C370 C371 1.391 . S
C371 H359 0.950 . S
C371 C367 1.393 . S
C371 C370 1.391 . S
H372 C380 0.950 . S
H373 C385 0.950 . S
H374 C382 0.950 . S
H375 C384 0.950 . S
H376 C386 0.950 . S
H377 C388 0.950 . S
H378 C390 0.950 . S
H379 C391 0.950 . S
C380 H372 0.950 . S
C380 C381 1.386 1_556 S
C380 C382 1.391 . S
C381 C380 1.386 1_554 S
C381 C385 1.393 . S
C382 H374 0.950 . S
C382 C380 1.391 . S
C382 C383 1.400 1_556 S
C383 C382 1.400 1_554 S
C383 C384 1.398 . S
C383 C389 1.491 . S
C384 H375 0.950 . S
C384 C383 1.398 . S
C384 C385 1.391 . S
C385 H373 0.950 . S
C385 C381 1.393 . S
C385 C384 1.391 . S
C386 H376 0.950 . S
C386 C387 1.386 . S
C386 C388 1.391 . S
C387 C386 1.386 . S
C387 C391 1.393 1_554 S
C388 H377 0.950 . S
C388 C386 1.391 . S
C388 C389 1.400 . S
C389 C383 1.491 . S
C389 C388 1.400 . S
C389 C390 1.398 1_554 S
C390 H378 0.950 . S
C390 C389 1.398 1_556 S
C390 C391 1.391 . S
C391 H379 0.950 . S
C391 C387 1.393 1_556 S
C391 C390 1.391 . S
H392 C400 0.950 . S
H393 C405 0.950 . S
H394 C402 0.950 . S
H395 C404 0.950 . S
H396 C406 0.950 . S
H397 C408 0.950 . S
H398 C410 0.950 . S
H399 C411 0.950 . S
C400 H392 0.950 . S
C400 C401 1.386 . S
C400 C402 1.391 . S
C401 C400 1.386 . S
C401 C405 1.393 . S
C402 H394 0.950 . S
C402 C400 1.391 . S
C402 C403 1.400 . S
C403 C402 1.400 . S
C403 C404 1.398 . S
C403 C409 1.491 . S
C404 H395 0.950 . S
C404 C403 1.398 . S
C404 C405 1.391 . S
C405 H393 0.950 . S
C405 C401 1.393 . S
C405 C404 1.391 . S
C406 H396 0.950 . S
C406 C407 1.386 . S
C406 C408 1.391 . S
C407 C406 1.386 . S
C407 C411 1.393 . S
C408 H397 0.950 . S
C408 C406 1.391 . S
C408 C409 1.400 . S
C409 C403 1.491 . S
C409 C408 1.400 . S
C409 C410 1.398 . S
C410 H398 0.950 . S
C410 C409 1.398 . S
C410 C411 1.391 . S
C411 H399 0.950 . S
C411 C407 1.393 . S
C411 C410 1.391 . S
H412 C420 0.950 . S
H413 C425 0.950 . S
H414 C422 0.950 . S
H415 C424 0.950 . S
H416 C426 0.950 . S
H417 C428 0.950 . S
H418 C430 0.950 . S
H419 C431 0.950 . S
C420 H412 0.950 . S
C420 C421 1.386 . S
C420 C422 1.391 . S
C421 C420 1.386 . S
C421 C425 1.393 . S
C422 H414 0.950 . S
C422 C420 1.391 . S
C422 C423 1.400 . S
C423 C422 1.400 . S
C423 C424 1.398 . S
C423 C429 1.491 . S
C424 H415 0.950 . S
C424 C423 1.398 . S
C424 C425 1.391 . S
C425 H413 0.950 . S
C425 C421 1.393 . S
C425 C424 1.391 . S
C426 H416 0.950 . S
C426 C427 1.386 . S
C426 C428 1.391 . S
C427 C426 1.386 . S
C427 C431 1.393 . S
C428 H417 0.950 . S
C428 C426 1.391 . S
C428 C429 1.400 . S
C429 C423 1.491 . S
C429 C428 1.400 . S
C429 C430 1.398 . S
C430 H418 0.950 . S
C430 C429 1.398 . S
C430 C431 1.391 . S
C431 H419 0.950 . S
C431 C427 1.393 . S
C431 C430 1.391 . S
C121 C23 1.481 . S
C127 C9 1.479 . S
C141 C37 1.479 . S
C147 C51 1.481 . S
C161 C65 1.479 . S
C167 C79 1.477 . S
C181 C93 1.491 . S
C187 C107 1.491 . S
C201 C7 1.276 . S
C207 C49 1.263 . S
C221 C35 1.271 . S
C227 C21 1.269 . S
C241 C31 1.268 . S
C247 C17 1.257 . S
C261 C3 1.254 . S
C267 C45 1.243 . S
C281 C63 1.276 . S
C287 C105 1.263 . S
C301 C91 1.276 . S
C307 C77 1.263 . S
C321 C73 1.268 . S
C327 C87 1.267 . S
C341 C59 1.270 . S
C347 C101 1.263 . S
C361 C78 1.503 . S
C367 C8 1.504 . S
C381 C64 1.509 . S
C387 C22 1.510 . S
C401 C36 1.509 . S
C407 C106 1.510 . S
C421 C92 1.503 . S
C427 C50 1.507 . S
