# Generated by pormake.
# Topology ukc, (4)-cn, num edge types: 1
# Building blocks:
#     Node 0, Type 0, BuildingBlock: NAHDIM_clean_sbu_0, # of connection points: 4
#     Node 1, Type 0, BuildingBlock: NAHDIM_clean_sbu_0, # of connection points: 4
#     Node 2, Type 0, BuildingBlock: NAHDIM_clean_sbu_0, # of connection points: 4
#     Node 3, Type 0, BuildingBlock: NAHDIM_clean_sbu_0, # of connection points: 4
#     Node 4, Type 0, BuildingBlock: NAHDIM_clean_sbu_0, # of connection points: 4
#     Node 5, Type 0, BuildingBlock: NAHDIM_clean_sbu_0, # of connection points: 4
#     Node 6, Type 0, BuildingBlock: NAHDIM_clean_sbu_0, # of connection points: 4
#     Node 7, Type 0, BuildingBlock: NAHDIM_clean_sbu_0, # of connection points: 4
#     Node 8, Type 0, BuildingBlock: NAHDIM_clean_sbu_0, # of connection points: 4
#     Node 9, Type 0, BuildingBlock: NAHDIM_clean_sbu_0, # of connection points: 4
#     Node 10, Type 0, BuildingBlock: NAHDIM_clean_sbu_0, # of connection points: 4
#     Node 11, Type 0, BuildingBlock: NAHDIM_clean_sbu_0, # of connection points: 4
#     Node 12, Type 0, BuildingBlock: NAHDIM_clean_sbu_0, # of connection points: 4
#     Node 13, Type 0, BuildingBlock: NAHDIM_clean_sbu_0, # of connection points: 4
#     Node 14, Type 0, BuildingBlock: NAHDIM_clean_sbu_0, # of connection points: 4
#     Node 15, Type 0, BuildingBlock: NAHDIM_clean_sbu_0, # of connection points: 4
#     Node 16, Type 0, BuildingBlock: NAHDIM_clean_sbu_0, # of connection points: 4
#     Node 17, Type 0, BuildingBlock: NAHDIM_clean_sbu_0, # of connection points: 4
#     Node 18, Type 0, BuildingBlock: NAHDIM_clean_sbu_0, # of connection points: 4
#     Node 19, Type 0, BuildingBlock: NAHDIM_clean_sbu_0, # of connection points: 4
#     Node 20, Type 0, BuildingBlock: NAHDIM_clean_sbu_0, # of connection points: 4
#     Node 21, Type 0, BuildingBlock: NAHDIM_clean_sbu_0, # of connection points: 4
#     Node 22, Type 0, BuildingBlock: NAHDIM_clean_sbu_0, # of connection points: 4
#     Node 23, Type 0, BuildingBlock: NAHDIM_clean_sbu_0, # of connection points: 4
#     Node 24, Type 0, BuildingBlock: NAHDIM_clean_sbu_0, # of connection points: 4
#     Node 25, Type 0, BuildingBlock: NAHDIM_clean_sbu_0, # of connection points: 4
#     Node 26, Type 0, BuildingBlock: NAHDIM_clean_sbu_0, # of connection points: 4
#     Node 27, Type 0, BuildingBlock: NAHDIM_clean_sbu_0, # of connection points: 4
#     Node 28, Type 0, BuildingBlock: NAHDIM_clean_sbu_0, # of connection points: 4
#     Node 29, Type 0, BuildingBlock: NAHDIM_clean_sbu_0, # of connection points: 4
#     Node 30, Type 0, BuildingBlock: NAHDIM_clean_sbu_0, # of connection points: 4
#     Node 31, Type 0, BuildingBlock: NAHDIM_clean_sbu_0, # of connection points: 4
#     Edge 32, Type (0, 0), BuildingBlock: UVAHIK_clean_linker_0, # of connection points: 2
#     Edge 33, Type (0, 0), BuildingBlock: UVAHIK_clean_linker_0, # of connection points: 2
#     Edge 34, Type (0, 0), BuildingBlock: UVAHIK_clean_linker_0, # of connection points: 2
#     Edge 35, Type (0, 0), BuildingBlock: UVAHIK_clean_linker_0, # of connection points: 2
#     Edge 36, Type (0, 0), BuildingBlock: UVAHIK_clean_linker_0, # of connection points: 2
#     Edge 37, Type (0, 0), BuildingBlock: UVAHIK_clean_linker_0, # of connection points: 2
#     Edge 38, Type (0, 0), BuildingBlock: UVAHIK_clean_linker_0, # of connection points: 2
#     Edge 39, Type (0, 0), BuildingBlock: UVAHIK_clean_linker_0, # of connection points: 2
#     Edge 40, Type (0, 0), BuildingBlock: UVAHIK_clean_linker_0, # of connection points: 2
#     Edge 41, Type (0, 0), BuildingBlock: UVAHIK_clean_linker_0, # of connection points: 2
#     Edge 42, Type (0, 0), BuildingBlock: UVAHIK_clean_linker_0, # of connection points: 2
#     Edge 43, Type (0, 0), BuildingBlock: UVAHIK_clean_linker_0, # of connection points: 2
#     Edge 44, Type (0, 0), BuildingBlock: UVAHIK_clean_linker_0, # of connection points: 2
#     Edge 45, Type (0, 0), BuildingBlock: UVAHIK_clean_linker_0, # of connection points: 2
#     Edge 46, Type (0, 0), BuildingBlock: UVAHIK_clean_linker_0, # of connection points: 2
#     Edge 47, Type (0, 0), BuildingBlock: UVAHIK_clean_linker_0, # of connection points: 2
#     Edge 48, Type (0, 0), BuildingBlock: UVAHIK_clean_linker_0, # of connection points: 2
#     Edge 49, Type (0, 0), BuildingBlock: UVAHIK_clean_linker_0, # of connection points: 2
#     Edge 50, Type (0, 0), BuildingBlock: UVAHIK_clean_linker_0, # of connection points: 2
#     Edge 51, Type (0, 0), BuildingBlock: UVAHIK_clean_linker_0, # of connection points: 2
#     Edge 52, Type (0, 0), BuildingBlock: UVAHIK_clean_linker_0, # of connection points: 2
#     Edge 53, Type (0, 0), BuildingBlock: UVAHIK_clean_linker_0, # of connection points: 2
#     Edge 54, Type (0, 0), BuildingBlock: UVAHIK_clean_linker_0, # of connection points: 2
#     Edge 55, Type (0, 0), BuildingBlock: UVAHIK_clean_linker_0, # of connection points: 2
#     Edge 56, Type (0, 0), BuildingBlock: UVAHIK_clean_linker_0, # of connection points: 2
#     Edge 57, Type (0, 0), BuildingBlock: UVAHIK_clean_linker_0, # of connection points: 2
#     Edge 58, Type (0, 0), BuildingBlock: UVAHIK_clean_linker_0, # of connection points: 2
#     Edge 59, Type (0, 0), BuildingBlock: UVAHIK_clean_linker_0, # of connection points: 2
#     Edge 60, Type (0, 0), BuildingBlock: UVAHIK_clean_linker_0, # of connection points: 2
#     Edge 61, Type (0, 0), BuildingBlock: UVAHIK_clean_linker_0, # of connection points: 2
#     Edge 62, Type (0, 0), BuildingBlock: UVAHIK_clean_linker_0, # of connection points: 2
#     Edge 63, Type (0, 0), BuildingBlock: UVAHIK_clean_linker_0, # of connection points: 2
#     Edge 64, Type (0, 0), BuildingBlock: UVAHIK_clean_linker_0, # of connection points: 2
#     Edge 65, Type (0, 0), BuildingBlock: UVAHIK_clean_linker_0, # of connection points: 2
#     Edge 66, Type (0, 0), BuildingBlock: UVAHIK_clean_linker_0, # of connection points: 2
#     Edge 67, Type (0, 0), BuildingBlock: UVAHIK_clean_linker_0, # of connection points: 2
#     Edge 68, Type (0, 0), BuildingBlock: UVAHIK_clean_linker_0, # of connection points: 2
#     Edge 69, Type (0, 0), BuildingBlock: UVAHIK_clean_linker_0, # of connection points: 2
#     Edge 70, Type (0, 0), BuildingBlock: UVAHIK_clean_linker_0, # of connection points: 2
#     Edge 71, Type (0, 0), BuildingBlock: UVAHIK_clean_linker_0, # of connection points: 2
#     Edge 72, Type (0, 0), BuildingBlock: UVAHIK_clean_linker_0, # of connection points: 2
#     Edge 73, Type (0, 0), BuildingBlock: UVAHIK_clean_linker_0, # of connection points: 2
#     Edge 74, Type (0, 0), BuildingBlock: UVAHIK_clean_linker_0, # of connection points: 2
#     Edge 75, Type (0, 0), BuildingBlock: UVAHIK_clean_linker_0, # of connection points: 2
#     Edge 76, Type (0, 0), BuildingBlock: UVAHIK_clean_linker_0, # of connection points: 2
#     Edge 77, Type (0, 0), BuildingBlock: UVAHIK_clean_linker_0, # of connection points: 2
#     Edge 78, Type (0, 0), BuildingBlock: UVAHIK_clean_linker_0, # of connection points: 2
#     Edge 79, Type (0, 0), BuildingBlock: UVAHIK_clean_linker_0, # of connection points: 2
#     Edge 80, Type (0, 0), BuildingBlock: UVAHIK_clean_linker_0, # of connection points: 2
#     Edge 81, Type (0, 0), BuildingBlock: UVAHIK_clean_linker_0, # of connection points: 2
#     Edge 82, Type (0, 0), BuildingBlock: UVAHIK_clean_linker_0, # of connection points: 2
#     Edge 83, Type (0, 0), BuildingBlock: UVAHIK_clean_linker_0, # of connection points: 2
#     Edge 84, Type (0, 0), BuildingBlock: UVAHIK_clean_linker_0, # of connection points: 2
#     Edge 85, Type (0, 0), BuildingBlock: UVAHIK_clean_linker_0, # of connection points: 2
#     Edge 86, Type (0, 0), BuildingBlock: UVAHIK_clean_linker_0, # of connection points: 2
#     Edge 87, Type (0, 0), BuildingBlock: UVAHIK_clean_linker_0, # of connection points: 2
#     Edge 88, Type (0, 0), BuildingBlock: UVAHIK_clean_linker_0, # of connection points: 2
#     Edge 89, Type (0, 0), BuildingBlock: UVAHIK_clean_linker_0, # of connection points: 2
#     Edge 90, Type (0, 0), BuildingBlock: UVAHIK_clean_linker_0, # of connection points: 2
#     Edge 91, Type (0, 0), BuildingBlock: UVAHIK_clean_linker_0, # of connection points: 2
#     Edge 92, Type (0, 0), BuildingBlock: UVAHIK_clean_linker_0, # of connection points: 2
#     Edge 93, Type (0, 0), BuildingBlock: UVAHIK_clean_linker_0, # of connection points: 2
#     Edge 94, Type (0, 0), BuildingBlock: UVAHIK_clean_linker_0, # of connection points: 2
#     Edge 95, Type (0, 0), BuildingBlock: UVAHIK_clean_linker_0, # of connection points: 2
# Relax obj value: 0.062
# Max RMSD: 0.091
# Mean RMSD: 0.091
data_MOF--net-ukc--node1-NAHDIM_clean_sbu_0--edge1-UVAHIK_clean_linker_0
_symmetry_space_group_name_H-M    P1
_symmetry_Int_Tables_number       1
_symmetry_cell_setting            triclinic
loop_
_symmetry_equiv_pos_as_xyz
'x, y, z'
_cell_length_a     59.177642
_cell_length_b     59.178331
_cell_length_c     108.136
_cell_angle_alpha  90.029794
_cell_angle_beta   90.021839
_cell_angle_gamma 89.993968
loop_
_atom_site_label
_atom_site_type_symbol
_atom_site_fract_x
_atom_site_fract_y
_atom_site_fract_z
_atom_type_partial_charge
C0 C 0.13546 0.40239 0.0138 0.0
O1 O 0.12778 0.42046 0.01948 0.0
O2 O 0.1036 0.38612 0.04184 0.0
Zn3 Zn 0.09519 0.3844 0.02389 0.0
O4 O 0.07625 0.41097 0.01874 0.0
C5 C 0.08759 0.3366 0.02236 0.0
O6 O 0.10897 0.33589 0.02563 0.0
O7 O 0.12391 0.38432 0.01414 0.0
C8 C 0.05481 0.40986 0.01852 0.0
O9 O 0.04478 0.39119 0.02213 0.0
C10 C 0.08893 0.38585 0.0504 0.0
O11 O 0.06739 0.38519 0.04747 0.0
O12 O 0.07812 0.35567 0.02089 0.0
C13 C 0.8451 0.87661 0.26766 0.0
O14 O 0.82624 0.86656 0.27093 0.0
O15 O 0.86482 0.84867 0.29892 0.0
Zn16 Zn 0.8641 0.83973 0.28105 0.0
O17 O 0.83661 0.8213 0.27718 0.0
C18 C 0.91008 0.82616 0.28323 0.0
O19 O 0.91043 0.84364 0.29072 0.0
O20 O 0.86388 0.86795 0.27082 0.0
C21 C 0.83557 0.80022 0.27926 0.0
O22 O 0.85283 0.79003 0.28448 0.0
C23 C 0.84801 0.85507 0.30532 0.0
O24 O 0.82781 0.85554 0.30028 0.0
O25 O 0.89191 0.8214 0.27754 0.0
C26 C 0.34694 0.60209 0.52903 0.0
O27 O 0.35598 0.58311 0.53294 0.0
O28 O 0.38681 0.62655 0.55536 0.0
Zn29 Zn 0.38936 0.62011 0.5372 0.0
O30 O 0.40364 0.58979 0.53426 0.0
C31 C 0.42495 0.64103 0.52243 0.0
O32 O 0.43071 0.62015 0.51981 0.0
O33 O 0.35822 0.6203 0.52985 0.0
C34 C 0.42223 0.58378 0.53912 0.0
O35 O 0.43268 0.59768 0.54668 0.0
C36 C 0.37853 0.61228 0.56286 0.0
O37 O 0.37202 0.59245 0.55871 0.0
O38 O 0.40799 0.64475 0.52935 0.0
C39 C 0.64082 0.10786 0.77061 0.0
O40 O 0.6599 0.11552 0.7752 0.0
O41 O 0.62789 0.14126 0.79929 0.0
Zn42 Zn 0.62624 0.14871 0.78121 0.0
O43 O 0.65417 0.16479 0.7754 0.0
C44 C 0.60192 0.18943 0.78231 0.0
O45 O 0.6209 0.19533 0.78773 0.0
O46 O 0.623 0.11961 0.77185 0.0
C47 C 0.65475 0.17079 0.76413 0.0
O48 O 0.63748 0.16594 0.75696 0.0
C49 C 0.64143 0.1504 0.80691 0.0
O50 O 0.6558 0.16571 0.80298 0.0
O51 O 0.59973 0.16926 0.77844 0.0
C52 C 0.13245 0.60469 0.46712 0.0
O53 O 0.12445 0.58576 0.4625 0.0
O54 O 0.11021 0.61888 0.43527 0.0
Zn55 Zn 0.09711 0.62177 0.45233 0.0
O56 O 0.07799 0.59483 0.45688 0.0
C57 C 0.06744 0.65675 0.44395 0.0
O58 O 0.06883 0.64506 0.43364 0.0
O59 O 0.1231 0.62325 0.46418 0.0
C60 C 0.05663 0.5942 0.45577 0.0
O61 O 0.04597 0.61159 0.451 0.0
C62 C 0.10464 0.60391 0.42742 0.0
O63 O 0.08925 0.58884 0.43035 0.0
O64 O 0.07847 0.65018 0.45337 0.0
C65 C 0.64252 0.88398 0.71889 0.0
O66 O 0.66163 0.87612 0.71443 0.0
O67 O 0.63124 0.85107 0.69046 0.0
Zn68 Zn 0.62728 0.84302 0.70842 0.0
O69 O 0.654 0.8255 0.71503 0.0
C70 C 0.59213 0.81182 0.7018 0.0
O71 O 0.6039 0.81098 0.69153 0.0
O72 O 0.62469 0.87223 0.7177 0.0
C73 C 0.65472 0.80404 0.71461 0.0
O74 O 0.63794 0.79296 0.70947 0.0
C75 C 0.64337 0.84025 0.68279 0.0
O76 O 0.65492 0.82259 0.68656 0.0
O77 O 0.59869 0.82471 0.71051 0.0
C78 C 0.36477 0.40178 0.97025 0.0
O79 O 0.37629 0.42073 0.96979 0.0
O80 O 0.40686 0.38279 0.9428 0.0
Zn81 Zn 0.40652 0.38282 0.96134 0.0
O82 O 0.42353 0.40929 0.96827 0.0
C83 C 0.4126 0.33531 0.96379 0.0
O84 O 0.39347 0.33523 0.95761 0.0
O85 O 0.37434 0.3834 0.96717 0.0
C86 C 0.4448 0.40851 0.96982 0.0
O87 O 0.45591 0.39033 0.9664 0.0
C88 C 0.39508 0.3961 0.93622 0.0
O89 O 0.38271 0.41165 0.94164 0.0
O90 O 0.42133 0.3541 0.96684 0.0
C91 C 0.84132 0.10224 0.2195 0.0
O92 O 0.82298 0.11159 0.21494 0.0
O93 O 0.85165 0.14548 0.19639 0.0
Zn94 Zn 0.85813 0.14601 0.21463 0.0
O95 O 0.8342 0.16257 0.2241 0.0
C96 C 0.90509 0.153 0.21124 0.0
O97 O 0.90218 0.1355 0.20392 0.0
O98 O 0.85916 0.11402 0.22047 0.0
C99 C 0.83425 0.18394 0.22516 0.0
O100 O 0.85007 0.19573 0.21959 0.0
C101 C 0.85838 0.16121 0.1893 0.0
O102 O 0.86821 0.17905 0.19414 0.0
O103 O 0.88833 0.16052 0.21731 0.0
C104 C 0.84666 0.5975 0.96517 0.0
O105 O 0.85419 0.57848 0.96043 0.0
O106 O 0.87865 0.60818 0.93636 0.0
Zn107 Zn 0.88697 0.61303 0.95416 0.0
O108 O 0.90517 0.58686 0.96063 0.0
C109 C 0.90466 0.65734 0.94806 0.0
O110 O 0.89113 0.65561 0.93848 0.0
O111 O 0.85827 0.61538 0.96382 0.0
C112 C 0.92661 0.58777 0.96105 0.0
O113 O 0.93697 0.60583 0.95685 0.0
C114 C 0.89319 0.60407 0.92802 0.0
O115 O 0.9146 0.60234 0.9311 0.0
O116 O 0.90514 0.64155 0.95601 0.0
C117 C 0.11873 0.10145 0.71395 0.0
O118 O 0.10376 0.10581 0.70529 0.0
O119 O 0.13879 0.13475 0.68793 0.0
Zn120 Zn 0.13725 0.14355 0.70581 0.0
O121 O 0.16485 0.16057 0.71117 0.0
C122 C 0.11171 0.1839 0.70473 0.0
O123 O 0.1306 0.19086 0.69961 0.0
O124 O 0.1345 0.11552 0.71596 0.0
C125 C 0.16519 0.16754 0.72228 0.0
O126 O 0.14808 0.16271 0.72956 0.0
C127 C 0.1516 0.14425 0.68008 0.0
O128 O 0.16511 0.16059 0.68369 0.0
O129 O 0.11024 0.16351 0.70831 0.0
C130 C 0.62365 0.40113 0.47588 0.0
O131 O 0.61366 0.41938 0.47164 0.0
O132 O 0.58361 0.38824 0.45083 0.0
Zn133 Zn 0.58145 0.3824 0.46911 0.0
O134 O 0.56303 0.40611 0.47772 0.0
C135 C 0.57513 0.33523 0.46555 0.0
O136 O 0.59268 0.33827 0.4583 0.0
O137 O 0.61284 0.38259 0.47594 0.0
C138 C 0.5416 0.40511 0.478 0.0
O139 O 0.53125 0.38848 0.47227 0.0
C140 C 0.56834 0.38153 0.44343 0.0
O141 O 0.55001 0.37208 0.44792 0.0
O142 O 0.56744 0.3519 0.47163 0.0
C143 C 0.34656 0.88597 0.21719 0.0
O144 O 0.33093 0.88115 0.20896 0.0
O145 O 0.36378 0.85641 0.19026 0.0
Zn146 Zn 0.36249 0.84507 0.20774 0.0
O147 O 0.33412 0.82762 0.21123 0.0
C148 C 0.39897 0.81542 0.20189 0.0
O149 O 0.39096 0.81875 0.19071 0.0
O150 O 0.36282 0.87224 0.21873 0.0
C151 C 0.33215 0.80674 0.20872 0.0
O152 O 0.34877 0.79625 0.20308 0.0
C153 C 0.34832 0.85486 0.18216 0.0
O154 O 0.32909 0.84509 0.18501 0.0
O155 O 0.38957 0.82523 0.21099 0.0
C156 C 0.85476 0.40887 0.51679 0.0
O157 O 0.86417 0.42835 0.51954 0.0
O158 O 0.89206 0.39852 0.54477 0.0
Zn159 Zn 0.89624 0.39275 0.5266 0.0
O160 O 0.91376 0.41783 0.51861 0.0
C161 C 0.90755 0.34632 0.53085 0.0
O162 O 0.89061 0.34784 0.53867 0.0
O163 O 0.86561 0.39075 0.51886 0.0
C164 C 0.93517 0.41715 0.5178 0.0
O165 O 0.94612 0.39992 0.52257 0.0
C166 C 0.90772 0.3943 0.55246 0.0
O167 O 0.9274 0.38727 0.54836 0.0
O168 O 0.91277 0.36341 0.52435 0.0
C169 C 0.35129 0.10432 0.27512 0.0
O170 O 0.33918 0.10896 0.28498 0.0
O171 O 0.36763 0.14417 0.29733 0.0
Zn172 Zn 0.36515 0.14962 0.27905 0.0
O173 O 0.3373 0.16695 0.27438 0.0
C174 C 0.40935 0.15854 0.26816 0.0
O175 O 0.40957 0.13677 0.26577 0.0
O176 O 0.36403 0.1195 0.27062 0.0
C177 C 0.3365 0.18836 0.27517 0.0
O178 O 0.35382 0.19929 0.27987 0.0
C179 C 0.35219 0.14784 0.30523 0.0
O180 O 0.33288 0.15657 0.30162 0.0
O181 O 0.39234 0.16716 0.27356 0.0
C182 C 0.63382 0.59903 0.02916 0.0
O183 O 0.62615 0.57984 0.0336 0.0
O184 O 0.60706 0.6111 0.05987 0.0
Zn185 Zn 0.59598 0.61492 0.04245 0.0
O186 O 0.57763 0.58811 0.03674 0.0
C187 C 0.5645 0.64917 0.04993 0.0
O188 O 0.56318 0.63624 0.05977 0.0
O189 O 0.62331 0.6172 0.03162 0.0
C190 C 0.55643 0.58886 0.03488 0.0
O191 O 0.54538 0.60762 0.03722 0.0
C192 C 0.59872 0.59757 0.06775 0.0
O193 O 0.58153 0.58474 0.06461 0.0
O194 O 0.57772 0.64354 0.04119 0.0
C195 C 0.12705 0.89013 0.7792 0.0
O196 O 0.14416 0.88655 0.78669 0.0
O197 O 0.11584 0.85774 0.80659 0.0
Zn198 Zn 0.11545 0.84766 0.78883 0.0
O199 O 0.14446 0.8323 0.78393 0.0
C200 C 0.08296 0.8134 0.7947 0.0
O201 O 0.09283 0.81474 0.80556 0.0
O202 O 0.11172 0.8752 0.77831 0.0
C203 C 0.14931 0.81242 0.78749 0.0
O204 O 0.13545 0.80178 0.79496 0.0
C205 C 0.13342 0.85853 0.81333 0.0
O206 O 0.15293 0.85209 0.80874 0.0
O207 O 0.08951 0.82629 0.78602 0.0
C208 C 0.63266 0.88787 0.52182 0.0
O209 O 0.62324 0.90516 0.52744 0.0
O210 O 0.59585 0.86512 0.54708 0.0
Zn211 Zn 0.59117 0.86744 0.52873 0.0
O212 O 0.57341 0.89508 0.52401 0.0
C213 C 0.55907 0.83908 0.51533 0.0
O214 O 0.55163 0.85825 0.51077 0.0
O215 O 0.62179 0.86943 0.52099 0.0
C216 C 0.55348 0.8993 0.52771 0.0
O217 O 0.54358 0.8853 0.53543 0.0
C218 C 0.59521 0.8816 0.5546 0.0
O219 O 0.59031 0.90191 0.55051 0.0
O220 O 0.57561 0.83915 0.52283 0.0
C221 C 0.34267 0.38476 0.76999 0.0
O222 O 0.32409 0.37428 0.77334 0.0
O223 O 0.36168 0.35325 0.7999 0.0
Zn224 Zn 0.36321 0.34659 0.78171 0.0
O225 O 0.33786 0.32626 0.7765 0.0
C226 C 0.4113 0.33913 0.78117 0.0
O227 O 0.4118 0.35892 0.78667 0.0
O228 O 0.36168 0.37587 0.77246 0.0
C229 C 0.33804 0.31923 0.7654 0.0
O230 O 0.35436 0.32582 0.758 0.0
C231 C 0.36994 0.33948 0.80769 0.0
O232 O 0.37857 0.32033 0.80373 0.0
O233 O 0.39239 0.3308 0.778 0.0
C234 C 0.86232 0.10293 0.02625 0.0
O235 O 0.87158 0.08318 0.02848 0.0
O236 O 0.90237 0.12105 0.05421 0.0
Zn237 Zn 0.90476 0.11807 0.03576 0.0
O238 O 0.91812 0.08821 0.03062 0.0
C239 C 0.94597 0.14123 0.03073 0.0
O240 O 0.95419 0.12258 0.03552 0.0
O241 O 0.87353 0.12079 0.02852 0.0
C242 C 0.93098 0.07585 0.03715 0.0
O243 O 0.93651 0.08232 0.04837 0.0
C244 C 0.88998 0.10831 0.06079 0.0
O245 O 0.87896 0.09162 0.05552 0.0
O246 O 0.92468 0.1433 0.02963 0.0
C247 C 0.11402 0.59724 0.26901 0.0
O248 O 0.1019 0.59996 0.27908 0.0
O249 O 0.13752 0.63101 0.29327 0.0
Zn250 Zn 0.13089 0.6408 0.27585 0.0
O251 O 0.15629 0.65921 0.26861 0.0
C252 C 0.0968 0.67085 0.28496 0.0
O253 O 0.11026 0.67096 0.29461 0.0
O254 O 0.12732 0.6129 0.26563 0.0
C255 C 0.15662 0.68066 0.26917 0.0
O256 O 0.14033 0.69128 0.27501 0.0
C257 C 0.15249 0.63957 0.30028 0.0
O258 O 0.1654 0.6559 0.29607 0.0
O259 O 0.10198 0.65883 0.27563 0.0
C260 C 0.63984 0.10386 0.9734 0.0
O261 O 0.63311 0.08489 0.96826 0.0
O262 O 0.60907 0.11972 0.94378 0.0
Zn263 Zn 0.59993 0.11897 0.96165 0.0
O264 O 0.58367 0.09018 0.96584 0.0
C265 C 0.55856 0.14282 0.96132 0.0
O266 O 0.55246 0.12416 0.95565 0.0
O267 O 0.62792 0.12153 0.972 0.0
C268 C 0.57614 0.08822 0.97678 0.0
O269 O 0.57987 0.10459 0.98474 0.0
C270 C 0.59972 0.10782 0.93545 0.0
O271 O 0.58331 0.09394 0.9385 0.0
O272 O 0.57889 0.1449 0.96494 0.0
C273 C 0.13472 0.38101 0.20956 0.0
O274 O 0.1506 0.3783 0.2012 0.0
O275 O 0.12731 0.34305 0.1848 0.0
Zn276 Zn 0.1272 0.33559 0.20292 0.0
O277 O 0.1564 0.32186 0.20891 0.0
C278 C 0.09584 0.30012 0.19777 0.0
O279 O 0.10668 0.30029 0.18717 0.0
O280 O 0.12197 0.36443 0.21218 0.0
C281 C 0.16084 0.30106 0.2073 0.0
O282 O 0.14678 0.28853 0.20088 0.0
C283 C 0.14402 0.34343 0.17744 0.0
O284 O 0.16429 0.33839 0.18156 0.0
O285 O 0.10156 0.31403 0.20617 0.0
C286 C 0.85672 0.90121 0.47122 0.0
O287 O 0.8657 0.92092 0.46854 0.0
O288 O 0.88707 0.89287 0.4405 0.0
Zn289 Zn 0.89543 0.8863 0.45811 0.0
O290 O 0.91389 0.91168 0.46517 0.0
C291 C 0.91013 0.84162 0.45112 0.0
O292 O 0.89431 0.84383 0.44269 0.0
O293 O 0.86678 0.88331 0.4678 0.0
C294 C 0.93532 0.91093 0.46573 0.0
O295 O 0.94598 0.8932 0.46133 0.0
C296 C 0.90193 0.89435 0.43208 0.0
O297 O 0.92337 0.89239 0.43505 0.0
O298 O 0.91324 0.85741 0.4589 0.0
C299 C 0.33674 0.61231 0.72381 0.0
O300 O 0.31814 0.62148 0.71947 0.0
O301 O 0.34762 0.65276 0.69884 0.0
Zn302 Zn 0.35358 0.65528 0.71709 0.0
O303 O 0.32899 0.67265 0.72561 0.0
C304 C 0.40026 0.66453 0.71324 0.0
O305 O 0.39804 0.64724 0.70571 0.0
O306 O 0.35479 0.62393 0.72396 0.0
C307 C 0.32882 0.69412 0.7257 0.0
O308 O 0.34487 0.70519 0.71991 0.0
C309 C 0.3529 0.66848 0.69137 0.0
O310 O 0.36126 0.68742 0.69576 0.0
O311 O 0.38334 0.67087 0.71958 0.0
C312 C 0.35576 0.09517 0.46661 0.0
O313 O 0.36203 0.07631 0.46118 0.0
O314 O 0.39068 0.10453 0.44 0.0
Zn315 Zn 0.39876 0.10738 0.45799 0.0
O316 O 0.41417 0.07958 0.46474 0.0
C317 C 0.43237 0.14073 0.45208 0.0
O318 O 0.43324 0.12911 0.44174 0.0
O319 O 0.36943 0.1117 0.46687 0.0
C320 C 0.4354 0.07677 0.46387 0.0
O321 O 0.44754 0.09188 0.45796 0.0
C322 C 0.40042 0.09267 0.43179 0.0
O323 O 0.41788 0.08013 0.43483 0.0
O324 O 0.41862 0.13473 0.46049 0.0
C325 C 0.6394 0.59814 0.23221 0.0
O326 O 0.65828 0.60581 0.22739 0.0
O327 O 0.62908 0.6262 0.20259 0.0
Zn328 Zn 0.62392 0.63685 0.22002 0.0
O329 O 0.65007 0.65521 0.22632 0.0
C330 C 0.58836 0.6649 0.2109 0.0
O331 O 0.60006 0.66253 0.20066 0.0
O332 O 0.62125 0.60917 0.23051 0.0
C333 C 0.65104 0.67658 0.22539 0.0
O334 O 0.63462 0.68745 0.21979 0.0
C335 C 0.645 0.63256 0.19553 0.0
O336 O 0.66009 0.64698 0.19967 0.0
O337 O 0.59524 0.65527 0.22071 0.0
C338 C 0.12978 0.89094 0.97651 0.0
O339 O 0.12079 0.91014 0.97289 0.0
O340 O 0.09984 0.88599 0.94779 0.0
Zn341 Zn 0.09037 0.87642 0.96488 0.0
O342 O 0.0714 0.89999 0.97338 0.0
C343 C 0.06192 0.84231 0.95424 0.0
O344 O 0.06266 0.85628 0.94482 0.0
O345 O 0.11915 0.87268 0.97442 0.0
C346 C 0.05025 0.90186 0.97162 0.0
O347 O 0.04021 0.88845 0.96365 0.0
C348 C 0.08966 0.89958 0.94061 0.0
O349 O 0.07085 0.90928 0.94426 0.0
O350 O 0.07293 0.84709 0.964 0.0
C351 C 0.84701 0.36976 0.71569 0.0
O352 O 0.82814 0.35868 0.71365 0.0
O353 O 0.86854 0.33747 0.68513 0.0
Zn354 Zn 0.86716 0.33145 0.70336 0.0
O355 O 0.84075 0.31191 0.70793 0.0
C356 C 0.91458 0.32465 0.70554 0.0
O357 O 0.91477 0.34486 0.70051 0.0
O358 O 0.86566 0.36118 0.71225 0.0
C359 C 0.83997 0.30496 0.71903 0.0
O360 O 0.85615 0.31091 0.7267 0.0
C361 C 0.85474 0.35017 0.67942 0.0
O362 O 0.83765 0.35907 0.68544 0.0
O363 O 0.89573 0.31539 0.70795 0.0
C364 C 0.35975 0.89798 0.01893 0.0
O365 O 0.36735 0.91703 0.0236 0.0
O366 O 0.39104 0.88838 0.04753 0.0
Zn367 Zn 0.40007 0.8827 0.02995 0.0
O368 O 0.41939 0.90816 0.02386 0.0
C369 C 0.41318 0.83792 0.03673 0.0
O370 O 0.3961 0.84031 0.04438 0.0
O371 O 0.37161 0.88022 0.02006 0.0
C372 C 0.42778 0.90761 0.01306 0.0
O373 O 0.4232 0.89037 0.00581 0.0
C374 C 0.40493 0.8953 0.05564 0.0
O375 O 0.42585 0.89972 0.05238 0.0
O376 O 0.41784 0.85383 0.02928 0.0
C377 C 0.84462 0.59548 0.76508 0.0
O378 O 0.8264 0.60367 0.77039 0.0
O379 O 0.86098 0.63049 0.79228 0.0
Zn380 Zn 0.86222 0.63679 0.77407 0.0
O381 O 0.83564 0.65515 0.76846 0.0
C382 C 0.90842 0.6482 0.77692 0.0
O383 O 0.90752 0.63028 0.78407 0.0
O384 O 0.86266 0.60711 0.76521 0.0
C385 C 0.83482 0.6763 0.77042 0.0
O386 O 0.85139 0.68606 0.7765 0.0
C387 C 0.84375 0.63057 0.79927 0.0
O388 O 0.82381 0.6354 0.79463 0.0
O389 O 0.89085 0.65405 0.77097 0.0
C390 C 0.12986 0.10886 0.51402 0.0
O391 O 0.12141 0.08968 0.51801 0.0
O392 O 0.10424 0.12184 0.54497 0.0
Zn393 Zn 0.09255 0.1248 0.52763 0.0
O394 O 0.0746 0.09734 0.52252 0.0
C395 C 0.06087 0.15803 0.53558 0.0
O396 O 0.06106 0.14507 0.54544 0.0
O397 O 0.11982 0.1272 0.5167 0.0
C398 C 0.05314 0.09663 0.52223 0.0
O399 O 0.04148 0.11443 0.52567 0.0
C400 C 0.09773 0.10735 0.55286 0.0
O401 O 0.08204 0.09266 0.54981 0.0
O402 O 0.0734 0.15289 0.52645 0.0
C403 C 0.64182 0.37333 0.28198 0.0
O404 O 0.66125 0.36348 0.28433 0.0
O405 O 0.61772 0.33418 0.30951 0.0
Zn406 Zn 0.62367 0.33153 0.29133 0.0
O407 O 0.65344 0.31646 0.28805 0.0
C408 C 0.60141 0.29956 0.27484 0.0
O409 O 0.62167 0.29679 0.27012 0.0
O410 O 0.62357 0.36271 0.2841 0.0
C411 C 0.65758 0.29644 0.29161 0.0
O412 O 0.64226 0.28549 0.29803 0.0
C413 C 0.63033 0.34598 0.31649 0.0
O414 O 0.64827 0.35581 0.31178 0.0
O415 O 0.59856 0.31344 0.28368 0.0
C416 C 0.92866 0.55001 0.97146 0.0
C417 C 0.93969 0.56915 0.9667 0.0
C418 C 0.941 0.5328 0.97717 0.0
C419 C -0.00152 0.50896 0.97958 0.0
H420 H 0.97561 0.48223 0.00983 0.0
C421 C 0.05221 0.44838 0.00907 0.0
C422 C 0.04141 0.42886 0.01351 0.0
C423 C 0.03967 0.46578 0.00369 0.0
C424 C 0.98211 0.48938 0.00133 0.0
H425 H 0.97234 0.58516 0.96411 0.0
H426 H 0.99381 0.55523 0.97415 0.0
H427 H 0.95391 0.51178 -0.00049 0.0
H428 H 0.00891 0.4125 0.01603 0.0
H429 H 0.98706 0.44284 0.00656 0.0
H430 H 0.02667 0.48658 0.98139 0.0
C431 C 0.97566 0.5534 0.97335 0.0
C432 C 0.96967 0.50628 -0.00459 0.0
C433 C 0.96333 0.57061 0.96765 0.0
C434 C 0.01775 0.42733 0.0127 0.0
C435 C 0.00521 0.44476 0.00733 0.0
C436 C 0.01091 0.49209 0.9855 0.0
C437 C 0.96463 0.53435 0.97823 0.0
C438 C 0.97773 0.51627 0.98447 0.0
C439 C 0.01606 0.46406 0.00265 0.0
C440 C 0.00288 0.48213 -0.00355 0.0
H441 H 0.91047 0.54834 0.97085 0.0
H442 H 0.93204 0.51819 0.98068 0.0
H443 H 0.00498 0.51606 0.97106 0.0
H444 H 0.0704 0.45014 0.0096 0.0
H445 H 0.04849 0.48061 0.00034 0.0
C446 C 0.6875 0.67732 0.23711 0.0
C447 C 0.67012 0.68904 0.23099 0.0
C448 C 0.70519 0.68906 0.24274 0.0
C449 C 0.72009 0.74495 0.25534 0.0
H450 H 0.78166 0.72327 0.25211 0.0
C451 C 0.79747 0.79826 0.26931 0.0
C452 C 0.8157 0.78718 0.27504 0.0
C453 C 0.77928 0.78594 0.26463 0.0
C454 C 0.76452 0.72936 0.25324 0.0
H455 H 0.65783 0.72228 0.22585 0.0
H456 H 0.68887 0.74277 0.23558 0.0
H457 H 0.75095 0.70255 0.24223 0.0
H458 H 0.82885 0.75452 0.28062 0.0
H459 H 0.79693 0.733 0.27251 0.0
H460 H 0.73369 0.77184 0.26628 0.0
C461 C 0.68862 0.7245 0.23617 0.0
C462 C 0.74694 0.71752 0.24757 0.0
C463 C 0.67092 0.71275 0.23052 0.0
C464 C 0.81511 0.76355 0.27622 0.0
C465 C 0.7969 0.75121 0.27151 0.0
C466 C 0.73767 0.7568 0.26101 0.0
C467 C 0.70589 0.71278 0.24238 0.0
C468 C 0.72455 0.72524 0.2485 0.0
C469 C 0.7789 0.76226 0.26556 0.0
C470 C 0.76009 0.74919 0.25998 0.0
H471 H 0.68737 0.65905 0.23766 0.0
H472 H 0.71811 0.67956 0.24756 0.0
H473 H 0.70297 0.75112 0.2564 0.0
H474 H 0.7974 0.81646 0.26824 0.0
H475 H 0.76581 0.79494 0.25997 0.0
C476 C 0.5397 0.43823 0.49236 0.0
C477 C 0.52854 0.42214 0.48499 0.0
C478 C 0.5274 0.45417 0.49909 0.0
C479 C 0.47295 0.48344 0.49964 0.0
H480 H 0.48909 0.49768 0.53353 0.0
C481 C 0.42096 0.54685 0.52795 0.0
C482 C 0.43317 0.56266 0.53498 0.0
C483 C 0.43175 0.52804 0.52288 0.0
C484 C 0.48449 0.49403 0.52404 0.0
H485 H 0.49571 0.41018 0.4789 0.0
H486 H 0.47424 0.43816 0.49062 0.0
H487 H 0.50974 0.46825 0.52244 0.0
H488 H 0.4661 0.57071 0.5426 0.0
H489 H 0.48507 0.5381 0.53354 0.0
H490 H 0.44813 0.5095 0.50106 0.0
C491 C 0.49251 0.43842 0.49115 0.0
C492 C 0.4963 0.47717 0.51771 0.0
C493 C 0.50481 0.42236 0.48448 0.0
C494 C 0.45622 0.5588 0.53724 0.0
C495 C 0.46707 0.54005 0.53208 0.0
C496 C 0.46125 0.50038 0.50594 0.0
C497 C 0.50369 0.45447 0.49853 0.0
C498 C 0.49071 0.47179 0.50542 0.0
C499 C 0.45504 0.52469 0.52464 0.0
C500 C 0.46693 0.50595 0.5182 0.0
H501 H 0.55797 0.4385 0.49297 0.0
H502 H 0.53647 0.46651 0.50458 0.0
H503 H 0.46849 0.47988 0.49012 0.0
H504 H 0.4031 0.54923 0.52615 0.0
H505 H 0.42187 0.51628 0.51743 0.0
C506 C 0.80356 0.28443 0.71526 0.0
C507 C 0.82114 0.29056 0.72333 0.0
C508 C 0.78576 0.2709 0.7194 0.0
C509 C 0.7703 0.23042 0.74395 0.0
H510 H 0.70886 0.24552 0.7346 0.0
C511 C 0.69249 0.18928 0.76692 0.0
C512 C 0.67425 0.18354 0.75921 0.0
C513 C 0.71065 0.20177 0.7623 0.0
C514 C 0.72594 0.24092 0.73717 0.0
H515 H 0.83381 0.28729 0.74209 0.0
H516 H 0.80268 0.26387 0.74931 0.0
H517 H 0.74011 0.26839 0.72692 0.0
H518 H 0.66089 0.18617 0.74057 0.0
H519 H 0.69267 0.20777 0.73251 0.0
H520 H 0.75612 0.203 0.75425 0.0
C521 C 0.80279 0.26929 0.73974 0.0
C522 C 0.74384 0.25402 0.73277 0.0
C523 C 0.82057 0.28283 0.73562 0.0
C524 C 0.67464 0.19038 0.74677 0.0
C525 C 0.69279 0.20288 0.74216 0.0
C526 C 0.7524 0.21732 0.74835 0.0
C527 C 0.78518 0.26318 0.73169 0.0
C528 C 0.76621 0.24896 0.73615 0.0
C529 C 0.71096 0.20879 0.74989 0.0
C530 C 0.73002 0.22246 0.74505 0.0
H531 H 0.80353 0.29008 0.70573 0.0
H532 H 0.77256 0.26627 0.71293 0.0
H533 H 0.78737 0.22588 0.74657 0.0
H534 H 0.69267 0.18431 0.77656 0.0
H535 H 0.72427 0.20629 0.76853 0.0
C536 C 0.93561 0.45299 0.50553 0.0
C537 C 0.94747 0.43519 0.51118 0.0
C538 C 0.94716 0.46977 0.49903 0.0
C539 C 0.00135 0.48143 0.48339 0.0
H540 H 0.98311 0.54402 0.48705 0.0
C541 C 0.0552 0.55634 0.46605 0.0
C542 C 0.04381 0.57475 0.4607 0.0
C543 C 0.0431 0.53869 0.47148 0.0
C544 C 0.98821 0.52659 0.4858 0.0
H545 H 0.98079 0.42114 0.51451 0.0
H546 H 0.00097 0.45062 0.50329 0.0
H547 H 0.96281 0.51464 0.49824 0.0
H548 H 0.01078 0.58872 0.45651 0.0
H549 H 0.98968 0.5578 0.46592 0.0
H550 H 0.02691 0.49347 0.47104 0.0
C551 C 0.9827 0.4514 0.50374 0.0
C552 C 0.9766 0.50976 0.49222 0.0
C553 C 0.97115 0.4346 0.51024 0.0
C554 C 0.02007 0.57484 0.4606 0.0
C555 C 0.00797 0.5572 0.46606 0.0
C556 C 0.01299 0.49829 0.47698 0.0
C557 C 0.97083 0.46915 0.49804 0.0
C558 C 0.98307 0.487 0.49112 0.0
C559 C 0.01936 0.53908 0.47169 0.0
C560 C 0.00658 0.52105 0.47815 0.0
H561 H 0.91735 0.4539 0.50604 0.0
H562 H 0.93749 0.48306 0.49462 0.0
H563 H 0.00652 0.46401 0.4822 0.0
H564 H 0.07349 0.55575 0.46628 0.0
H565 H 0.05236 0.52507 0.47585 0.0
C566 C 0.67476 0.7679 0.71941 0.0
C567 C 0.67393 0.79159 0.72009 0.0
C568 C 0.69257 0.75601 0.72482 0.0
C569 C 0.73651 0.76068 0.74878 0.0
H570 H 0.76299 0.7097 0.73151 0.0
C571 C 0.81592 0.71353 0.76651 0.0
C572 C 0.81603 0.68988 0.76531 0.0
C573 C 0.79868 0.72638 0.76115 0.0
C574 C 0.75561 0.72374 0.73652 0.0
H575 H 0.69127 0.82143 0.7269 0.0
H576 H 0.72248 0.8006 0.7363 0.0
H577 H 0.73307 0.73146 0.72164 0.0
H578 H 0.79783 0.66113 0.75781 0.0
H579 H 0.76769 0.68351 0.74862 0.0
H580 H 0.759 0.75285 0.76369 0.0
C581 C 0.7092 0.79124 0.73168 0.0
C582 C 0.73849 0.73622 0.73085 0.0
C583 C 0.69139 0.80316 0.72623 0.0
C584 C 0.79833 0.67933 0.75884 0.0
C585 C 0.78112 0.69217 0.7535 0.0
C586 C 0.75364 0.74816 0.75446 0.0
C587 C 0.70995 0.76753 0.73105 0.0
C588 C 0.72865 0.75475 0.73694 0.0
C589 C 0.78121 0.71585 0.75449 0.0
C590 C 0.76328 0.72946 0.74842 0.0
H591 H 0.66156 0.75846 0.71478 0.0
H592 H 0.69252 0.73772 0.72431 0.0
H593 H 0.72906 0.7747 0.75377 0.0
H594 H 0.82932 0.72218 0.77142 0.0
H595 H 0.79934 0.74461 0.76199 0.0
C596 C 0.44457 0.44653 0.97997 0.0
C597 C 0.45662 0.42734 0.97607 0.0
C598 C 0.45549 0.46388 0.98636 0.0
C599 C 0.50574 0.47533 0.00544 0.0
H600 H 0.49201 0.53798 -0.0019 0.0
C601 C 0.55675 0.55 0.02569 0.0
C602 C 0.54466 0.5694 0.02921 0.0
C603 C 0.54589 0.53227 0.01956 0.0
C604 C 0.49581 0.52056 0.00037 0.0
H605 H 0.48966 0.41147 0.97567 0.0
H606 H 0.50876 0.44189 0.98674 0.0
H607 H 0.47359 0.50806 0.98634 0.0
H608 H 0.51153 0.58512 0.0294 0.0
H609 H 0.49255 0.55408 0.01885 0.0
H610 H 0.52797 0.48786 0.01948 0.0
C611 C 0.4908 0.44335 0.98498 0.0
C612 C 0.48529 0.50343 0.99362 0.0
C613 C 0.47989 0.426 0.97856 0.0
C614 C 0.52137 0.57046 0.02675 0.0
C615 C 0.51051 0.55274 0.02063 0.0
C616 C 0.51626 0.49248 0.01221 0.0
C617 C 0.47869 0.46242 0.98901 0.0
C618 C 0.49012 0.48062 -0.00392 0.0
C619 C 0.5227 0.53358 0.01683 0.0
C620 C 0.51139 0.51529 0.00976 0.0
H621 H 0.42661 0.44807 0.97822 0.0
H622 H 0.44564 0.47823 0.98946 0.0
H623 H 0.50956 0.45791 0.00769 0.0
H624 H 0.57473 0.54866 0.02743 0.0
H625 H 0.5558 0.51783 0.01665 0.0
C626 C 0.80186 0.1824 0.23999 0.0
C627 C 0.81708 0.19526 0.23292 0.0
C628 C 0.78579 0.19298 0.24745 0.0
C629 C 0.77207 0.24762 0.26239 0.0
H630 H 0.71137 0.223 0.26324 0.0
C631 C 0.69464 0.29682 0.2805 0.0
C632 C 0.67819 0.28484 0.28721 0.0
C633 C 0.71295 0.28553 0.27521 0.0
C634 C 0.72833 0.22988 0.26326 0.0
H635 H 0.82733 0.22933 0.22812 0.0
H636 H 0.79894 0.24783 0.24096 0.0
H637 H 0.74037 0.20413 0.25107 0.0
H638 H 0.66857 0.25176 0.29406 0.0
H639 H 0.70064 0.23205 0.28482 0.0
H640 H 0.75977 0.27369 0.27438 0.0
C641 C 0.79971 0.22954 0.24091 0.0
C642 C 0.74496 0.21908 0.25627 0.0
C643 C 0.81588 0.21894 0.23348 0.0
C644 C 0.68091 0.26146 0.28891 0.0
C645 C 0.69919 0.25015 0.28356 0.0
C646 C 0.75539 0.25849 0.26934 0.0
C647 C 0.78447 0.21668 0.24797 0.0
C648 C 0.767 0.22789 0.2557 0.0
C649 C 0.71517 0.26201 0.27647 0.0
C650 C 0.73331 0.2498 0.26978 0.0
H651 H 0.80243 0.1641 0.23984 0.0
H652 H 0.77454 0.18256 0.25291 0.0
H653 H 0.78898 0.25464 0.26231 0.0
H654 H 0.69307 0.31486 0.27905 0.0
H655 H 0.72488 0.29511 0.26972 0.0
C656 C 0.30298 0.29636 0.76881 0.0
C657 C 0.32042 0.30352 0.76092 0.0
C658 C 0.28656 0.28123 0.7646 0.0
C659 C 0.26052 0.2591 0.73608 0.0
H660 H 0.24087 0.21026 0.75742 0.0
C661 C 0.20166 0.18808 0.71885 0.0
C662 C 0.18395 0.1818 0.7268 0.0
C663 C 0.21887 0.20233 0.72302 0.0
C664 C 0.24604 0.22393 0.7514 0.0
H665 H 0.3343 0.30047 0.74242 0.0
H666 H 0.30577 0.27396 0.73513 0.0
H667 H 0.26965 0.23662 0.76469 0.0
H668 H 0.17057 0.18531 0.74538 0.0
H669 H 0.2005 0.21028 0.7526 0.0
H670 H 0.23687 0.24646 0.72281 0.0
C671 C 0.30463 0.28022 0.74452 0.0
C672 C 0.2625 0.23904 0.75557 0.0
C673 C 0.32105 0.29534 0.74872 0.0
C674 C 0.18399 0.1898 0.73903 0.0
C675 C 0.20121 0.20402 0.7432 0.0
C676 C 0.24407 0.24399 0.73192 0.0
C677 C 0.28724 0.27297 0.75242 0.0
C678 C 0.26987 0.25682 0.74797 0.0
C679 C 0.21876 0.21056 0.73521 0.0
C680 C 0.23661 0.22628 0.73954 0.0
H681 H 0.30198 0.30241 0.77825 0.0
H682 H 0.2732 0.2762 0.77086 0.0
H683 H 0.26561 0.27282 0.73008 0.0
H684 H 0.20214 0.18216 0.70938 0.0
H685 H 0.23233 0.20685 0.7167 0.0
C686 C 0.1746 0.71731 0.26319 0.0
C687 C 0.17461 0.69358 0.26286 0.0
C688 C 0.19115 0.72958 0.25691 0.0
C689 C 0.23232 0.72503 0.23146 0.0
H690 H 0.25965 0.77721 0.24718 0.0
C691 C 0.31148 0.77036 0.21221 0.0
C692 C 0.31234 0.79401 0.21327 0.0
C693 C 0.29379 0.75818 0.21758 0.0
C694 C 0.25196 0.76287 0.24259 0.0
H695 H 0.19215 0.66408 0.25577 0.0
H696 H 0.22118 0.68553 0.2449 0.0
H697 H 0.23092 0.75569 0.25817 0.0
H698 H 0.29475 0.82353 0.2203 0.0
H699 H 0.26379 0.80232 0.22951 0.0
H700 H 0.25348 0.7322 0.21588 0.0
C701 C 0.20818 0.69464 0.24989 0.0
C702 C 0.23553 0.75052 0.2489 0.0
C703 C 0.19163 0.68236 0.25618 0.0
C704 C 0.2947 0.8053 0.21941 0.0
C705 C 0.27702 0.79314 0.22475 0.0
C706 C 0.24877 0.73741 0.22513 0.0
C707 C 0.20807 0.71838 0.25015 0.0
C708 C 0.22554 0.73146 0.24341 0.0
C709 C 0.27659 0.76943 0.2241 0.0
C710 C 0.25877 0.75647 0.23063 0.0
H711 H 0.16168 0.72648 0.26821 0.0
H712 H 0.19046 0.74786 0.25717 0.0
H713 H 0.2247 0.7106 0.22692 0.0
H714 H 0.32482 0.76115 0.20755 0.0
H715 H 0.29402 0.73991 0.21698 0.0
C716 C 0.31662 0.22456 0.27 0.0
C717 C 0.31727 0.20083 0.26972 0.0
C718 C 0.29937 0.23632 0.26394 0.0
C719 C 0.24245 0.22899 0.25006 0.0
H720 H 0.25905 0.28169 0.23077 0.0
C721 C 0.183 0.26695 0.21357 0.0
C722 C 0.18022 0.29053 0.21374 0.0
C723 C 0.19999 0.25674 0.22056 0.0
C724 C 0.25414 0.26713 0.23621 0.0
H725 H 0.29998 0.17081 0.26311 0.0
H726 H 0.2702 0.19124 0.25243 0.0
H727 H 0.2876 0.26263 0.2433 0.0
H728 H 0.19364 0.32196 0.22104 0.0
H729 H 0.22345 0.30405 0.23321 0.0
H730 H 0.20909 0.23328 0.2428 0.0
C731 C 0.2828 0.20083 0.25746 0.0
C732 C 0.27045 0.25625 0.24342 0.0
C733 C 0.29998 0.18909 0.26354 0.0
C734 C 0.19531 0.30374 0.22073 0.0
C735 C 0.21242 0.29351 0.22766 0.0
C736 C 0.2262 0.23978 0.24281 0.0
C737 C 0.28243 0.22458 0.25746 0.0
C738 C 0.26483 0.23694 0.25035 0.0
C739 C 0.21468 0.26988 0.22781 0.0
C740 C 0.23192 0.25884 0.23572 0.0
H741 H 0.32964 0.23411 0.27472 0.0
H742 H 0.29938 0.25461 0.26427 0.0
H743 H 0.23745 0.21442 0.25546 0.0
H744 H 0.17171 0.25628 0.20827 0.0
H745 H 0.20157 0.23851 0.22034 0.0
C746 C 0.18485 0.81242 0.77492 0.0
C747 C 0.16949 0.80082 0.78253 0.0
C748 C 0.20305 0.80104 0.76954 0.0
C749 C 0.2201 0.74446 0.75961 0.0
H750 H 0.2802 0.77036 0.75785 0.0
C751 C 0.29548 0.69462 0.73991 0.0
C752 C 0.31098 0.70643 0.7325 0.0
C753 C 0.27875 0.70621 0.74644 0.0
C754 C 0.26345 0.76302 0.75814 0.0
H755 H 0.16157 0.76834 0.79077 0.0
H756 H 0.19335 0.74851 0.78137 0.0
H757 H 0.2503 0.7906 0.76878 0.0
H758 H 0.32102 0.73965 0.72605 0.0
H759 H 0.2915 0.75984 0.73724 0.0
H760 H 0.23299 0.71711 0.7488 0.0
C761 C 0.19116 0.76635 0.77948 0.0
C762 C 0.24636 0.77458 0.76443 0.0
C763 C 0.17304 0.77775 0.78491 0.0
C764 C 0.30938 0.73007 0.73173 0.0
C765 C 0.29255 0.74166 0.7382 0.0
C766 C 0.23712 0.73297 0.75326 0.0
C767 C 0.20618 0.77782 0.77162 0.0
C768 C 0.22452 0.76541 0.76522 0.0
C769 C 0.27704 0.72986 0.74564 0.0
C770 C 0.259 0.7421 0.75245 0.0
H771 H 0.18261 0.83021 0.77292 0.0
H772 H 0.21427 0.81027 0.76346 0.0
H773 H 0.20332 0.73716 0.75989 0.0
H774 H 0.29635 0.6764 0.74077 0.0
H775 H 0.26731 0.69662 0.75223 0.0
C776 C 0.51759 0.92102 0.52431 0.0
C777 C 0.54091 0.91848 0.52228 0.0
C778 C 0.50548 0.93805 0.51826 0.0
C779 C 0.50865 0.97429 0.49055 0.0
H780 H 0.46176 0.0091 0.50681 0.0
C781 C 0.46996 0.05424 0.46889 0.0
C782 C 0.44653 0.05745 0.47004 0.0
C783 C 0.48073 0.03667 0.47516 0.0
C784 C 0.47462 -0.00069 0.50211 0.0
H785 H 0.56999 0.93242 0.51273 0.0
H786 H 0.549 0.96224 0.50237 0.0
H787 H 0.48216 0.9801 0.51838 0.0
H788 H 0.41596 0.04451 0.47856 0.0
H789 H 0.43482 0.01371 0.48948 0.0
H790 H 0.50126 0.99357 0.47432 0.0
C791 C 0.53994 0.95078 0.5084 0.0
C792 C 0.48631 0.98273 0.50873 0.0
C793 C 0.55199 0.93377 0.51441 0.0
C794 C 0.43405 0.04251 0.47749 0.0
C795 C 0.44485 0.02496 0.48381 0.0
C796 C 0.49701 0.99087 0.48395 0.0
C797 C 0.51649 0.95289 0.51008 0.0
C798 C 0.5036 0.97017 0.50305 0.0
C799 C 0.46833 0.02193 0.48276 0.0
C800 C 0.47999 0.00368 0.48967 0.0
H801 H 0.50855 0.90948 0.5303 0.0
H802 H 0.48741 0.93916 0.51969 0.0
H803 H 0.52153 0.96458 0.48582 0.0
H804 H 0.48008 0.06547 0.46325 0.0
H805 H 0.49887 0.03493 0.47427 0.0
C806 C 0.04672 0.92984 0.98886 0.0
C807 C 0.03705 0.91869 0.97867 0.0
C808 C 0.03418 0.94551 -0.00434 0.0
C809 C 0.98678 0.98454 0.99303 0.0
H810 H 0.98629 0.98281 0.02889 0.0
C811 C 0.93163 0.04593 0.02089 0.0
C812 C 0.9411 0.05541 0.03161 0.0
C813 C 0.94212 0.02778 0.01498 0.0
C814 C 0.98644 0.9837 0.01889 0.0
H815 H 0.00669 0.91528 0.96758 0.0
H816 H 0.98489 0.94295 0.97937 0.0
H817 H 0.00736 0.95425 0.01736 0.0
H818 H 0.96867 0.053 0.04474 0.0
H819 H 0.98742 0.02174 0.03423 0.0
H820 H 0.96656 0.01429 0.99445 0.0
C821 C 0.00216 0.93947 0.98209 0.0
C822 C -0.00155 0.9673 0.0123 0.0
C823 C 0.01461 0.92359 0.97538 0.0
C824 C 0.96094 0.04597 0.03652 0.0
C825 C 0.97162 0.02797 0.03051 0.0
C826 C 0.975 0.00107 -0.0004 0.0
C827 C 0.01181 0.95053 0.99231 0.0
C828 C -0.00126 0.96759 -0.00068 0.0
C829 C 0.96252 0.01889 0.01955 0.0
C830 C 0.97466 0.00088 0.01262 0.0
H831 H 0.06397 0.92639 0.99165 0.0
H832 H 0.04209 0.95397 0.00342 0.0
H833 H 0.98699 0.98533 0.98302 0.0
H834 H 0.91619 0.05268 0.01697 0.0
H835 H 0.93431 0.02087 0.00675 0.0
C836 C 0.55783 0.05112 0.97179 0.0
C837 C 0.56248 0.06837 0.98037 0.0
C838 C 0.54418 0.03282 0.9751 0.0
C839 C 0.52145 0.00234 0.00223 0.0
H840 H 0.47557 0.98192 0.97917 0.0
C841 C 0.44898 0.94349 0.01696 0.0
C842 C 0.4432 0.92575 0.00891 0.0
C843 C 0.46405 0.96028 0.01322 0.0
C844 C 0.48847 0.98725 0.98565 0.0
H845 H 0.55664 0.07983 -0.00084 0.0
H846 H 0.53268 0.04809 0.00486 0.0
H847 H 0.5014 0.0121 0.97314 0.0
H848 H 0.44855 0.91185 0.99057 0.0
H849 H 0.47496 0.94121 0.98406 0.0
H850 H 0.50837 0.97768 0.01479 0.0
C851 C 0.5398 0.04853 -0.00436 0.0
C852 C 0.50329 0.00451 0.98219 0.0
C853 C 0.55344 0.0668 0.99234 0.0
C854 C 0.45264 0.9253 -0.00301 0.0
C855 C 0.46769 0.94216 0.99323 0.0
C856 C 0.50662 0.98513 0.00569 0.0
C857 C 0.53491 0.03139 0.98704 0.0
C858 C 0.51982 0.01237 0.99049 0.0
C859 C 0.47365 0.95975 0.00134 0.0
C860 C 0.48985 0.97752 -0.00252 0.0
H861 H 0.5646 0.05181 0.96249 0.0
H862 H 0.54095 0.01975 0.96831 0.0
H863 H 0.53426 0.00774 0.00875 0.0
H864 H 0.44196 0.94437 0.0262 0.0
H865 H 0.46804 0.9738 0.01961 0.0
C866 C 0.01777 0.07572 0.51676 0.0
C867 C 0.04147 0.07634 0.51746 0.0
C868 C 0.00677 0.05698 0.51173 0.0
C869 C 0.0161 0.00925 0.49055 0.0
H870 H 0.96072 0.98627 0.505 0.0
C871 C 0.97165 0.92866 0.47261 0.0
C872 C 0.94798 0.92953 0.47166 0.0
C873 C 0.98352 0.94605 0.47848 0.0
C874 C 0.97606 0.99263 0.5008 0.0
H875 H 0.07221 0.05755 0.51367 0.0
H876 H 0.05296 0.02478 0.50497 0.0
H877 H 0.98065 0.01735 0.51503 0.0
H878 H 0.91821 0.94943 0.47603 0.0
H879 H 0.93893 0.97981 0.48613 0.0
H880 H 0.01142 0.98465 0.47627 0.0
C881 C 0.04291 0.03892 0.50817 0.0
C882 C 0.98748 0.01041 0.50654 0.0
C883 C 0.05392 0.05765 0.51322 0.0
C884 C 0.93645 0.9482 0.47663 0.0
C885 C 0.9483 0.96555 0.4825 0.0
C886 C 0.00468 0.99146 0.4848 0.0
C887 C 0.01923 0.03846 0.50728 0.0
C888 C 0.00754 0.01901 0.50144 0.0
C889 C 0.97195 0.96463 0.48353 0.0
C890 C 0.98445 0.98307 0.48982 0.0
H891 H 0.00768 0.08985 0.51994 0.0
H892 H 0.98851 0.05724 0.51104 0.0
H893 H 0.03135 0.01572 0.4863 0.0
H894 H 0.98104 0.91448 0.4689 0.0
H895 H 0.00172 0.94476 0.47923 0.0
C896 C 0.9527 0.18111 0.02379 0.0
C897 C 0.96131 0.16003 0.02748 0.0
C898 C 0.96728 0.19928 0.02164 0.0
C899 C 0.0237 0.2197 0.03042 0.0
H900 H 0.01408 0.26339 0.00423 0.0
C901 C 0.08447 0.29441 0.02302 0.0
C902 C 0.07432 0.31557 0.02106 0.0
C903 C 0.07159 0.27465 0.02248 0.0
C904 C 0.01689 0.25139 0.01163 0.0
H905 H 0.99202 0.14122 0.03129 0.0
H906 H 0.01739 0.17279 0.02742 0.0
H907 H 0.98974 0.23014 0.00558 0.0
H908 H 0.04278 0.33254 0.0167 0.0
H909 H 0.02032 0.29811 0.01592 0.0
H910 H 0.05056 0.24104 0.03661 0.0
C911 C -0.00064 0.17542 0.02641 0.0
C912 C 0.00296 0.23237 0.01241 0.0
C913 C 0.98481 0.15729 0.02857 0.0
C914 C 0.05113 0.3165 0.01826 0.0
C915 C 0.03827 0.29675 0.01773 0.0
C916 C 0.0376 0.23869 0.02965 0.0
C917 C 0.99075 0.19671 0.02313 0.0
C918 C 0.00612 0.2164 0.02187 0.0
C919 C 0.04829 0.27562 0.01998 0.0
C920 C 0.03426 0.25484 0.02031 0.0
H921 H 0.93467 0.18376 0.02286 0.0
H922 H 0.9601 0.21552 0.01923 0.0
H923 H 0.02633 0.20794 0.03795 0.0
H924 H 0.10231 0.2931 0.02513 0.0
H925 H 0.07987 0.25859 0.0241 0.0
C926 C 0.07373 0.70218 0.29388 0.0
C927 C 0.07683 0.68582 0.28463 0.0
C928 C 0.05542 0.717 0.29339 0.0
C929 C 0.01311 0.74078 0.27178 0.0
H930 H 0.98358 0.75914 0.30219 0.0
C931 C 0.9303 0.79324 0.27372 0.0
C932 C 0.9299 0.81107 0.28232 0.0
C933 C 0.94838 0.77805 0.2735 0.0
C934 C 0.9918 0.75429 0.29363 0.0
H935 H 0.06295 0.67187 0.2677 0.0
H936 H 0.03058 0.69739 0.26701 0.0
H937 H 0.01412 0.73159 0.30294 0.0
H938 H 0.94838 0.82723 0.29724 0.0
H939 H 0.97982 0.80062 0.29689 0.0
H940 H 0.99036 0.76332 0.26251 0.0
C941 C 0.0426 0.6991 0.27451 0.0
C942 C 0.00932 0.73854 0.29405 0.0
C943 C 0.06106 0.68438 0.27495 0.0
C944 C 0.94816 0.81367 0.29051 0.0
C945 C 0.96609 0.79837 0.29037 0.0
C946 C -0.0046 0.75639 0.27136 0.0
C947 C 0.03963 0.71568 0.2837 0.0
C948 C 0.02035 0.73174 0.28315 0.0
C949 C 0.96626 0.78028 0.28196 0.0
C950 C 0.98473 0.76343 0.2823 0.0
H951 H 0.08567 0.70385 0.30142 0.0
H952 H 0.05392 0.7298 0.30051 0.0
H953 H 0.02142 0.73618 0.26323 0.0
H954 H 0.91649 0.79081 0.26728 0.0
H955 H 0.94806 0.76418 0.26696 0.0
C956 C 0.46189 0.6564 0.51504 0.0
C957 C 0.43917 0.66003 0.51825 0.0
C958 C 0.47597 0.67467 0.51229 0.0
C959 C 0.47747 0.73359 0.50244 0.0
H960 H 0.52931 0.73919 0.52415 0.0
C961 C 0.52424 0.81802 0.50927 0.0
C962 C 0.54713 0.81777 0.51264 0.0
C963 C 0.51229 0.7978 0.50797 0.0
C964 C 0.51529 0.73775 0.51777 0.0
H965 H 0.41305 0.68542 0.5205 0.0
H966 H 0.43761 0.71731 0.51539 0.0
H967 H 0.50616 0.70532 0.52497 0.0
H968 H 0.57592 0.7963 0.51653 0.0
H969 H 0.55547 0.76098 0.51365 0.0
H970 H 0.48662 0.76583 0.49509 0.0
C971 C 0.4445 0.70036 0.51512 0.0
C972 C 0.50196 0.71834 0.51831 0.0
C973 C 0.43052 0.68215 0.51811 0.0
C974 C 0.55817 0.79695 0.51408 0.0
C975 C 0.54637 0.77672 0.51252 0.0
C976 C 0.49107 0.75286 0.50171 0.0
C977 C 0.46743 0.6968 0.51245 0.0
C978 C 0.48272 0.71629 0.51083 0.0
C979 C 0.52312 0.77686 0.50976 0.0
C980 C 0.50991 0.75542 0.50956 0.0
H981 H 0.46902 0.63954 0.5151 0.0
H982 H 0.49361 0.67156 0.51023 0.0
H983 H 0.46276 0.73226 0.49652 0.0
H984 H 0.51527 0.83385 0.50817 0.0
H985 H 0.49437 0.79871 0.50604 0.0
C986 C 0.56275 0.19975 0.7755 0.0
C987 C 0.58336 0.20597 0.78098 0.0
C988 C 0.54509 0.21535 0.77457 0.0
C989 C 0.5239 0.26773 0.78879 0.0
H990 H 0.48626 0.27092 0.75948 0.0
C991 C 0.453 0.33389 0.784 0.0
C992 C 0.43221 0.32578 0.77956 0.0
C993 C 0.47241 0.3205 0.78326 0.0
C994 C 0.49654 0.27012 0.76776 0.0
H995 H 0.60176 0.23356 0.78958 0.0
H996 H 0.57104 0.26074 0.78787 0.0
H997 H 0.5183 0.24494 0.75998 0.0
H998 H 0.41562 0.29751 0.77054 0.0
H999 H 0.44938 0.27414 0.76936 0.0
H1000 H 0.50203 0.29265 0.79665 0.0
C1001 C 0.56841 0.24374 0.78444 0.0
C1002 C 0.51486 0.25523 0.76805 0.0
C1003 C 0.58605 0.22818 0.78536 0.0
C1004 C 0.43137 0.30427 0.77405 0.0
C1005 C 0.45076 0.29091 0.7733 0.0
C1006 C 0.5056 0.2826 0.78851 0.0
C1007 C 0.54768 0.23747 0.77911 0.0
C1008 C 0.52865 0.25377 0.7786 0.0
C1009 C 0.47144 0.29875 0.77804 0.0
C1010 C 0.49161 0.28385 0.77802 0.0
H1011 H 0.56014 0.18277 0.77204 0.0
H1012 H 0.52923 0.20992 0.77054 0.0
H1013 H 0.53399 0.26676 0.79713 0.0
H1014 H 0.45424 0.35042 0.78825 0.0
H1015 H 0.48817 0.32713 0.78684 0.0
C1016 C 0.94096 0.81844 0.46063 0.0
C1017 C 0.92519 0.82169 0.45108 0.0
C1018 C 0.95597 0.80024 0.46027 0.0
C1019 C 0.96575 0.7448 0.44517 0.0
H1020 H 0.02784 0.75508 0.45522 0.0
C1021 C 0.03709 0.6812 0.43501 0.0
C1022 C 0.05189 0.67624 0.44481 0.0
C1023 C 0.02164 0.69892 0.436 0.0
C1024 C 0.01051 0.75192 0.45249 0.0
H1025 H 0.91266 0.80828 0.43371 0.0
H1026 H 0.93912 0.77681 0.43295 0.0
H1027 H 0.00048 0.78579 0.45663 0.0
H1028 H 0.06235 0.68623 0.46325 0.0
H1029 H 0.0354 0.71734 0.46493 0.0
H1030 H 0.97597 0.711 0.44083 0.0
C1031 C 0.93964 0.78806 0.44085 0.0
C1032 C 0.99481 0.76947 0.45333 0.0
C1033 C 0.92453 0.80618 0.44125 0.0
C1034 C 0.05117 0.68963 0.45554 0.0
C1035 C 0.03581 0.70749 0.45649 0.0
C1036 C 0.9815 0.7273 0.44425 0.0
C1037 C 0.95565 0.78496 0.45031 0.0
C1038 C 0.97224 0.76614 0.44966 0.0
C1039 C 0.02076 0.71218 0.44677 0.0
C1040 C 0.00404 0.7307 0.44788 0.0
H1041 H 0.94182 0.83003 0.46837 0.0
H1042 H 0.96781 0.79813 0.46782 0.0
H1043 H 0.94844 0.74152 0.44246 0.0
H1044 H 0.03722 0.67121 0.42661 0.0
H1045 H 0.01042 0.70234 0.42831 0.0
C1046 C 0.5678 0.77992 0.69468 0.0
C1047 C 0.57237 0.79685 0.70343 0.0
C1048 C 0.54951 0.76535 0.69624 0.0
C1049 C 0.50964 0.74366 0.71982 0.0
H1050 H 0.47535 0.72536 0.69092 0.0
C1051 C 0.42419 0.69574 0.72182 0.0
C1052 C 0.42132 0.67793 0.71334 0.0
C1053 C 0.44328 0.70959 0.72122 0.0
C1054 C 0.48492 0.73014 0.69906 0.0
H1055 H 0.56122 0.81192 0.72067 0.0
H1056 H 0.52884 0.78681 0.72325 0.0
H1057 H 0.50673 0.75158 0.6886 0.0
H1058 H 0.43652 0.6603 0.69784 0.0
H1059 H 0.46975 0.68458 0.69677 0.0
H1060 H 0.48734 0.72244 0.73027 0.0
C1061 C 0.5397 0.7845 0.7153 0.0
C1062 C 0.50293 0.74515 0.69773 0.0
C1063 C 0.55816 0.79899 0.71378 0.0
C1064 C 0.4382 0.67389 0.70449 0.0
C1065 C 0.45717 0.68786 0.70382 0.0
C1066 C 0.49146 0.72877 0.72115 0.0
C1067 C 0.53518 0.76748 0.70654 0.0
C1068 C 0.51562 0.75198 0.70808 0.0
C1069 C 0.45973 0.70603 0.71207 0.0
C1070 C 0.47903 0.72177 0.71076 0.0
H1071 H 0.57853 0.77768 0.68666 0.0
H1072 H 0.54681 0.75219 0.68944 0.0
H1073 H 0.51924 0.74832 0.72795 0.0
H1074 H 0.41149 0.69926 0.72877 0.0
H1075 H 0.44478 0.72356 0.72765 0.0
C1076 C 0.51955 0.15863 0.95929 0.0
C1077 C 0.54203 0.16123 0.96323 0.0
C1078 C 0.50404 0.17621 0.9607 0.0
C1079 C 0.49372 0.22969 0.97749 0.0
H1080 H 0.45526 0.24316 0.9494 0.0
C1081 C 0.4465 0.31434 0.97154 0.0
C1082 C 0.425 0.31401 0.96601 0.0
C1083 C 0.45919 0.29453 0.97252 0.0
C1084 C 0.46558 0.23941 0.95742 0.0
H1085 H 0.56577 0.18419 0.97196 0.0
H1086 H 0.53872 0.21501 0.97427 0.0
H1087 H 0.48057 0.21081 0.94856 0.0
H1088 H 0.39951 0.29243 0.95772 0.0
H1089 H 0.4216 0.25781 0.95956 0.0
H1090 H 0.47893 0.25858 0.98626 0.0
C1091 C 0.53304 0.19926 0.97022 0.0
C1092 C 0.48012 0.22087 0.95692 0.0
C1093 C 0.54857 0.18166 0.96882 0.0
C1094 C 0.41609 0.29329 0.96194 0.0
C1095 C 0.42879 0.27347 0.96293 0.0
C1096 C 0.47915 0.24826 0.97799 0.0
C1097 C 0.51066 0.1968 0.96607 0.0
C1098 C 0.49449 0.21591 0.96691 0.0
C1099 C 0.45066 0.27396 0.96801 0.0
C1100 C 0.46505 0.25342 0.96791 0.0
H1101 H 0.51392 0.14305 0.95503 0.0
H1102 H 0.48684 0.17367 0.95757 0.0
H1103 H 0.50437 0.2261 0.9854 0.0
H1104 H 0.45385 0.33003 0.97478 0.0
H1105 H 0.47606 0.29553 0.97637 0.0
C1106 C 0.07412 0.26578 0.19156 0.0
C1107 C 0.07754 0.28361 0.19992 0.0
C1108 C 0.05674 0.25024 0.19344 0.0
C1109 C 0.01697 0.22865 0.2172 0.0
H1110 H 0.98322 0.20858 0.18847 0.0
C1111 C 0.93029 0.18342 0.21953 0.0
C1112 C 0.92681 0.16528 0.21134 0.0
C1113 C 0.95003 0.19631 0.21885 0.0
C1114 C 0.99267 0.21381 0.19656 0.0
H1115 H 0.06553 0.29911 0.21686 0.0
H1116 H 0.03475 0.27232 0.21999 0.0
H1117 H 0.01474 0.23449 0.18582 0.0
H1118 H 0.94163 0.14595 0.19634 0.0
H1119 H 0.97601 0.16857 0.19514 0.0
H1120 H 0.9943 0.20832 0.22794 0.0
C1121 C 0.04579 0.27005 0.2121 0.0
C1122 C 0.01077 0.22864 0.19506 0.0
C1123 C 0.06333 0.2855 0.21027 0.0
C1124 C 0.94377 0.15985 0.20275 0.0
C1125 C 0.9634 0.17286 0.20202 0.0
C1126 C -0.0013 0.21394 0.21871 0.0
C1127 C 0.04222 0.25229 0.20367 0.0
C1128 C 0.02315 0.23626 0.20535 0.0
C1129 C 0.96655 0.19142 0.20993 0.0
C1130 C 0.98639 0.20639 0.2084 0.0
H1131 H 0.08493 0.26372 0.18355 0.0
H1132 H 0.05477 0.23652 0.18689 0.0
H1133 H 0.02634 0.23392 0.22531 0.0
H1134 H 0.91756 0.188 0.22627 0.0
H1135 H 0.95196 0.21063 0.22501 0.0
C1136 C 0.9344 0.67882 0.95961 0.0
C1137 C 0.92031 0.6767 0.9492 0.0
C1138 C 0.94999 0.69648 0.96042 0.0
C1139 C 0.98213 0.73593 0.94102 0.0
H1140 H 0.99005 0.76966 0.97147 0.0
C1141 C 0.03391 0.81807 0.94316 0.0
C1142 C 0.04723 0.82213 0.95369 0.0
C1143 C 0.01919 0.79968 0.94276 0.0
C1144 C 0.98828 0.76018 0.96295 0.0
H1145 H 0.91131 0.69166 0.93156 0.0
H1146 H 0.93851 0.72251 0.93299 0.0
H1147 H 0.96234 0.73916 0.97058 0.0
H1148 H 0.05586 0.80979 0.97198 0.0
H1149 H 0.03034 0.77739 0.9712 0.0
H1150 H 0.00808 0.75682 0.93338 0.0
C1151 C 0.93761 0.71038 0.94047 0.0
C1152 C 0.97236 0.74277 0.96244 0.0
C1153 C 0.92193 0.69279 0.93969 0.0
C1154 C 0.04577 0.80716 0.96375 0.0
C1155 C 0.03105 0.78869 0.96333 0.0
C1156 C -0.00191 0.75326 0.94154 0.0
C1157 C 0.95191 0.71231 0.9508 0.0
C1158 C 0.96901 0.73058 0.95144 0.0
C1159 C 0.01749 0.78483 0.95285 0.0
C1160 C 0.00124 0.76571 0.95249 0.0
H1161 H 0.93359 0.66669 0.9671 0.0
H1162 H 0.96091 0.69743 0.96844 0.0
H1163 H 0.9802 0.72655 0.93248 0.0
H1164 H 0.03455 0.82931 0.93527 0.0
H1165 H 0.00876 0.7974 0.93462 0.0
C1166 C 0.95665 0.32157 0.70387 0.0
C1167 C 0.93589 0.3121 0.70745 0.0
C1168 C 0.97658 0.30902 0.70477 0.0
C1169 C 0.00186 0.25835 0.7193 0.0
H1170 H 0.04138 0.25954 0.69072 0.0
C1171 C 0.07181 0.19197 0.71109 0.0
C1172 C 0.0924 0.19953 0.70613 0.0
C1173 C 0.05342 0.20667 0.7121 0.0
C1174 C 0.03072 0.25925 0.69885 0.0
H1175 H 0.91985 0.28229 0.71517 0.0
H1176 H 0.95457 0.26036 0.71663 0.0
H1177 H 0.0082 0.28382 0.69123 0.0
H1178 H 0.11001 0.22857 0.69857 0.0
H1179 H 0.07802 0.25423 0.70044 0.0
H1180 H 0.02429 0.23354 0.72686 0.0
C1181 C 0.95549 0.27754 0.71323 0.0
C1182 C 0.0117 0.27318 0.69915 0.0
C1183 C 0.93557 0.29008 0.71232 0.0
C1184 C 0.09433 0.22217 0.70236 0.0
C1185 C 0.07597 0.23686 0.70338 0.0
C1186 C 0.02091 0.24441 0.71901 0.0
C1187 C 0.97616 0.28675 0.70929 0.0
C1188 C -0.00302 0.27278 0.70934 0.0
C1189 C 0.05526 0.22924 0.70817 0.0
C1190 C 0.03546 0.2446 0.70874 0.0
H1191 H 0.9575 0.33853 0.70015 0.0
H1192 H 0.9923 0.31668 0.70183 0.0
H1193 H 0.99097 0.25787 0.72735 0.0
H1194 H 0.06977 0.17461 0.71407 0.0
H1195 H 0.03761 0.2002 0.7157 0.0
C1196 C 0.56852 0.29658 0.45693 0.0
C1197 C 0.56294 0.31344 0.46556 0.0
C1198 C 0.55561 0.27689 0.45611 0.0
C1199 C 0.51478 0.24122 0.47272 0.0
H1200 H 0.4949 0.22454 0.43978 0.0
C1201 C 0.44521 0.17444 0.46424 0.0
C1202 C 0.44783 0.16 0.45403 0.0
C1203 C 0.4599 0.19265 0.46599 0.0
C1204 C 0.50055 0.22871 0.44903 0.0
H1205 H 0.54003 0.3225 0.48042 0.0
H1206 H 0.51759 0.28799 0.47902 0.0
H1207 H 0.52021 0.25656 0.44247 0.0
H1208 H 0.46815 0.15307 0.43776 0.0
H1209 H 0.49402 0.18443 0.44096 0.0
H1210 H 0.49525 0.21327 0.47928 0.0
C1211 C 0.53194 0.29004 0.47291 0.0
C1212 C 0.51504 0.24709 0.45056 0.0
C1213 C 0.54473 0.30983 0.47366 0.0
C1214 C 0.46554 0.16401 0.44567 0.0
C1215 C 0.48032 0.18208 0.44747 0.0
C1216 C 0.50041 0.22269 0.47118 0.0
C1217 C 0.537 0.27358 0.46396 0.0
C1218 C 0.52225 0.25357 0.46241 0.0
C1219 C 0.47762 0.19671 0.45761 0.0
C1220 C 0.49307 0.21625 0.45931 0.0
H1221 H 0.58247 0.29883 0.45057 0.0
H1222 H 0.56004 0.26433 0.44923 0.0
H1223 H 0.52023 0.24577 0.48195 0.0
H1224 H 0.43167 0.17182 0.47083 0.0
H1225 H 0.45713 0.20377 0.47381 0.0
C1226 C 0.42907 0.79014 0.19354 0.0
C1227 C 0.41807 0.79971 0.20379 0.0
C1228 C 0.44666 0.77477 0.1952 0.0
C1229 C 0.48891 0.75503 0.2178 0.0
H1230 H 0.49244 0.70368 0.19558 0.0
C1231 C 0.55697 0.68477 0.2221 0.0
C1232 C 0.56777 0.67902 0.21095 0.0
C1233 C 0.53779 0.6986 0.22203 0.0
C1234 C 0.49172 0.71799 0.20182 0.0
H1235 H 0.41702 0.80081 0.22383 0.0
H1236 H 0.44769 0.77367 0.22673 0.0
H1237 H 0.46063 0.72965 0.19406 0.0
H1238 H 0.56685 0.68308 0.19101 0.0
H1239 H 0.53347 0.70706 0.19091 0.0
H1240 H 0.52015 0.74328 0.22551 0.0
C1241 C 0.44282 0.77827 0.21741 0.0
C1242 C 0.47355 0.7329 0.20093 0.0
C1243 C 0.42521 0.79375 0.21575 0.0
C1244 C 0.55892 0.68718 0.19976 0.0
C1245 C 0.53971 0.70081 0.19969 0.0
C1246 C 0.50708 0.74001 0.21873 0.0
C1247 C 0.45363 0.76849 0.20714 0.0
C1248 C 0.47214 0.75183 0.20876 0.0
C1249 C 0.52897 0.70671 0.21081 0.0
C1250 C 0.50884 0.72158 0.21059 0.0
H1251 H 0.42411 0.79448 0.1842 0.0
H1252 H 0.45494 0.76792 0.18709 0.0
H1253 H 0.48841 0.76955 0.2239 0.0
H1254 H 0.56342 0.67876 0.23088 0.0
H1255 H 0.52975 0.7028 0.23073 0.0
C1256 C 0.93885 0.32352 0.52154 0.0
C1257 C 0.92167 0.32574 0.53043 0.0
C1258 C 0.95321 0.30478 0.52167 0.0
C1259 C 0.97634 0.26249 0.54277 0.0
H1260 H 0.99289 0.23036 0.51285 0.0
C1261 C 0.02895 0.18078 0.54416 0.0
C1262 C 0.04521 0.17744 0.53488 0.0
C1263 C 0.0137 0.1987 0.54341 0.0
C1264 C 0.98868 0.23934 0.52127 0.0
H1265 H 0.90575 0.30982 0.54626 0.0
H1266 H 0.93091 0.27715 0.5465 0.0
H1267 H 0.9661 0.26166 0.51174 0.0
H1268 H 0.05841 0.19045 0.51758 0.0
H1269 H 0.03211 0.22212 0.51641 0.0
H1270 H -0.00086 0.24057 0.5523 0.0
C1271 C 0.93331 0.28998 0.53948 0.0
C1272 C 0.97327 0.2572 0.52063 0.0
C1273 C 0.91884 0.30862 0.53929 0.0
C1274 C 0.04602 0.19253 0.52486 0.0
C1275 C 0.03084 0.21059 0.52415 0.0
C1276 C 0.99186 0.24477 0.5434 0.0
C1277 C 0.95078 0.288 0.53075 0.0
C1278 C 0.9669 0.26889 0.53138 0.0
C1279 C 0.01446 0.21385 0.53341 0.0
C1280 C -0.00183 0.23292 0.53267 0.0
H1281 H 0.94146 0.33642 0.51458 0.0
H1282 H 0.96663 0.30376 0.51488 0.0
H1283 H 0.97202 0.27146 0.55118 0.0
H1284 H 0.02777 0.16936 0.55196 0.0
H1285 H 0.00108 0.20047 0.5506 0.0
C1286 C 0.42882 0.19598 0.26813 0.0
C1287 C 0.4291 0.17285 0.2652 0.0
C1288 C 0.44783 0.20936 0.26608 0.0
C1289 C 0.50945 0.20524 0.26337 0.0
H1290 H 0.50389 0.26857 0.25465 0.0
C1291 C 0.58589 0.26616 0.26338 0.0
C1292 C 0.58222 0.28577 0.27045 0.0
C1293 C 0.56776 0.25224 0.26008 0.0
C1294 C 0.50569 0.25089 0.25705 0.0
H1295 H 0.44934 0.14578 0.25742 0.0
H1296 H 0.48259 0.1693 0.25373 0.0
H1297 H 0.47085 0.244 0.2534 0.0
H1298 H 0.55664 0.30666 0.27916 0.0
H1299 H 0.52508 0.2825 0.27334 0.0
H1300 H 0.54422 0.21232 0.26726 0.0
C1301 C 0.4677 0.17697 0.25777 0.0
C1302 C 0.4868 0.23684 0.25638 0.0
C1303 C 0.44863 0.16353 0.25984 0.0
C1304 C 0.56003 0.29161 0.27376 0.0
C1305 C 0.54193 0.27787 0.27034 0.0
C1306 C 0.5284 0.21928 0.26396 0.0
C1307 C 0.46759 0.19999 0.26101 0.0
C1308 C 0.4883 0.21401 0.25989 0.0
C1309 C 0.54564 0.25788 0.26364 0.0
C1310 C 0.52653 0.24238 0.26116 0.0
H1311 H 0.41406 0.20372 0.27227 0.0
H1312 H 0.44726 0.22693 0.26888 0.0
H1313 H 0.51116 0.1878 0.26626 0.0
H1314 H 0.60282 0.26122 0.2607 0.0
H1315 H 0.57105 0.23696 0.25487 0.0
C1316 C 0.4247 0.80174 0.04689 0.0
C1317 C 0.42778 0.81769 0.03742 0.0
C1318 C 0.43935 0.78336 0.04803 0.0
C1319 C 0.48035 0.74868 0.03094 0.0
H1320 H 0.50375 0.73481 0.06358 0.0
C1321 C 0.55163 0.68357 0.03841 0.0
C1322 C 0.54962 0.66909 0.04865 0.0
C1323 C 0.537 0.70193 0.03702 0.0
C1324 C 0.49717 0.73827 0.05442 0.0
H1325 H 0.44833 0.82657 0.02153 0.0
H1326 H 0.47386 0.79438 0.02351 0.0
H1327 H 0.47712 0.76586 0.061 0.0
H1328 H 0.53075 0.66258 0.06548 0.0
H1329 H 0.50504 0.69431 0.06293 0.0
H1330 H 0.50018 0.72095 0.02437 0.0
C1331 C 0.46007 0.79611 0.03003 0.0
C1332 C 0.48193 0.75607 0.05295 0.0
C1333 C 0.4455 0.81458 0.02893 0.0
C1334 C 0.53283 0.67347 0.05751 0.0
C1335 C 0.51814 0.69175 0.05608 0.0
C1336 C 0.4955 0.73078 0.03242 0.0
C1337 C 0.45729 0.78046 0.03968 0.0
C1338 C 0.47335 0.76145 0.0412 0.0
C1339 C 0.51999 0.70615 0.04579 0.0
C1340 C 0.50408 0.72535 0.04418 0.0
H1341 H 0.41119 0.80362 0.05357 0.0
H1342 H 0.43664 0.7714 0.05547 0.0
H1343 H 0.47382 0.7523 0.0218 0.0
H1344 H 0.56446 0.68071 0.03145 0.0
H1345 H 0.53913 0.71289 0.02909 0.0
C1346 C 0.94567 0.65944 0.78589 0.0
C1347 C 0.92855 0.66298 0.77709 0.0
C1348 C 0.96338 0.67485 0.78708 0.0
C1349 C 0.99441 0.7203 0.77158 0.0
H1350 H 0.00474 0.74228 0.8049 0.0
C1351 C 0.05204 0.79695 0.78168 0.0
C1352 C 0.06533 0.79622 0.79244 0.0
C1353 C 0.03565 0.78042 0.77949 0.0
C1354 C 0.00238 0.73611 0.79556 0.0
H1355 H 0.91717 0.68484 0.76223 0.0
H1356 H 0.94837 0.71165 0.76425 0.0
H1357 H 0.97661 0.71303 0.80129 0.0
H1358 H 0.07214 0.77743 0.80924 0.0
H1359 H 0.0441 0.74831 0.80528 0.0
H1360 H 0.02042 0.7431 0.76584 0.0
C1361 C 0.94796 0.69699 0.77024 0.0
C1362 C 0.98621 0.71938 0.7935 0.0
C1363 C 0.93008 0.68168 0.76912 0.0
C1364 C 0.062 0.7786 0.80093 0.0
C1365 C 0.04582 0.76194 0.79868 0.0
C1366 C 0.01081 0.73689 0.77365 0.0
C1367 C 0.96447 0.69397 0.77943 0.0
C1368 C 0.98205 0.71133 0.7815 0.0
C1369 C 0.03238 0.76266 0.78795 0.0
C1370 C 0.01497 0.74502 0.78567 0.0
H1371 H 0.94503 0.64517 0.79215 0.0
H1372 H 0.97607 0.67201 0.79414 0.0
H1373 H 0.9916 0.71427 0.76224 0.0
H1374 H 0.05417 0.81039 0.77498 0.0
H1375 H 0.02537 0.78173 0.77124 0.0
C1376 C 0.33037 0.42196 0.97798 0.0
C1377 C 0.3408 0.40185 0.97409 0.0
C1378 C 0.3077 0.42201 0.98157 0.0
C1379 C 0.26249 0.38414 0.99256 0.0
H1380 H 0.22316 0.43373 0.98323 0.0
C1381 C 0.16704 0.38279 0.00275 0.0
C1382 C 0.15792 0.40266 0.00783 0.0
C1383 C 0.18885 0.38272 -0.00218 0.0
C1384 C 0.23399 0.41985 0.98598 0.0
H1385 H 0.33558 0.36604 0.97081 0.0
H1386 H 0.29599 0.36619 0.97694 0.0
H1387 H 0.2624 0.4335 0.97628 0.0
H1388 H 0.16428 0.43817 0.01143 0.0
H1389 H 0.20238 0.43799 0.00287 0.0
H1390 H 0.23413 0.37053 0.00229 0.0
C1391 C 0.30541 0.38186 0.97739 0.0
C1392 C 0.25646 0.41973 0.98202 0.0
C1393 C 0.32808 0.3818 0.97382 0.0
C1394 C 0.17083 0.42258 0.00759 0.0
C1395 C 0.19261 0.42251 0.00263 0.0
C1396 C 0.24003 0.38423 -0.00351 0.0
C1397 C 0.29497 0.40195 0.98133 0.0
C1398 C 0.27098 0.40192 0.98531 0.0
C1399 C 0.20195 0.40251 -0.00216 0.0
C1400 C 0.22557 0.40213 0.99328 0.0
H1401 H 0.33972 0.43768 0.97831 0.0
H1402 H 0.30024 0.4377 0.98472 0.0
H1403 H 0.27333 0.37036 -0.00457 0.0
H1404 H 0.1575 0.36717 0.00274 0.0
H1405 H 0.19549 0.36712 0.99404 0.0
C1406 C 0.86136 0.0678 0.22721 0.0
C1407 C 0.84125 0.07831 0.22337 0.0
C1408 C 0.86131 0.0452 0.23089 0.0
C1409 C 0.82408 0.00131 0.24324 0.0
H1410 H 0.87183 0.96056 0.23291 0.0
C1411 C 0.82373 0.90741 0.257 0.0
C1412 C 0.84443 0.89836 0.26098 0.0
C1413 C 0.82291 0.92856 0.25131 0.0
C1414 C 0.85848 0.97178 0.23596 0.0
H1415 H 0.80535 0.07334 0.2203 0.0
H1416 H 0.80529 0.03386 0.22678 0.0
H1417 H 0.87121 -0.00073 0.22513 0.0
H1418 H 0.8806 0.90419 0.2619 0.0
H1419 H 0.87914 0.94125 0.25218 0.0
H1420 H 0.81159 0.97409 0.25427 0.0
C1421 C 0.82104 0.04317 0.22699 0.0
C1422 C 0.85813 0.99392 0.23149 0.0
C1423 C 0.82111 0.06574 0.22324 0.0
C1424 C 0.86437 0.91067 0.25892 0.0
C1425 C 0.86355 0.93187 0.25327 0.0
C1426 C 0.82449 0.97923 0.24775 0.0
C1427 C 0.84114 0.03269 0.23087 0.0
C1428 C 0.84101 0.00894 0.23517 0.0
C1429 C 0.84278 0.94116 0.24953 0.0
C1430 C 0.84178 0.96426 0.24423 0.0
H1431 H 0.87717 0.07702 0.2274 0.0
H1432 H 0.87699 0.03763 0.23398 0.0
H1433 H 0.81085 0.01261 0.24636 0.0
H1434 H 0.80807 0.89826 0.25838 0.0
H1435 H 0.80669 0.93508 0.24834 0.0
C1436 C 0.16358 0.6246 0.47842 0.0
C1437 C 0.1528 0.60437 0.47502 0.0
C1438 C 0.18364 0.62413 0.48523 0.0
C1439 C 0.23161 0.58656 0.4922 0.0
H1440 H 0.24495 0.63093 0.51758 0.0
C1441 C 0.31204 0.58191 0.52209 0.0
C1442 C 0.32397 0.60223 0.52369 0.0
C1443 C 0.29048 0.58197 0.51685 0.0
C1444 C 0.24149 0.61853 0.51045 0.0
H1445 H 0.15412 0.56783 0.4765 0.0
H1446 H 0.18886 0.56704 0.48855 0.0
H1447 H 0.20812 0.63131 0.50739 0.0
H1448 H 0.32252 0.63859 0.5212 0.0
H1449 H 0.28489 0.63865 0.51199 0.0
H1450 H 0.26497 0.57382 0.49523 0.0
C1451 C 0.1821 0.58325 0.48573 0.0
C1452 C 0.22043 0.61876 0.50461 0.0
C1453 C 0.16212 0.58371 0.47888 0.0
C1454 C 0.31378 0.62264 0.52008 0.0
C1455 C 0.29217 0.6227 0.51488 0.0
C1456 C 0.25261 0.58629 0.49807 0.0
C1457 C 0.19327 0.60343 0.48883 0.0
C1458 C 0.2153 0.60283 0.49538 0.0
C1459 C 0.28037 0.60235 0.51314 0.0
C1460 C 0.25781 0.60233 0.50721 0.0
H1461 H 0.15683 0.6408 0.47558 0.0
H1462 H 0.19194 0.63998 0.48736 0.0
H1463 H 0.22837 0.57432 0.48496 0.0
H1464 H 0.31939 0.5659 0.52481 0.0
H1465 H 0.28167 0.56605 0.51574 0.0
C1466 C 0.61936 0.07539 0.76143 0.0
C1467 C 0.64009 0.08551 0.76452 0.0
C1468 C 0.61881 0.05382 0.75615 0.0
C1469 C 0.65359 0.01302 0.73895 0.0
H1470 H 0.61257 0.96823 0.75239 0.0
C1471 C 0.66162 0.91892 0.7266 0.0
C1472 C 0.64163 0.90669 0.72456 0.0
C1473 C 0.66081 0.94078 0.73143 0.0
C1474 C 0.62391 0.98061 0.74842 0.0
H1475 H 0.6765 0.08116 0.76429 0.0
H1476 H 0.67551 0.04364 0.75504 0.0
H1477 H 0.61196 0.00675 0.76047 0.0
H1478 H 0.60509 0.9077 0.7261 0.0
H1479 H 0.60365 0.94603 0.73434 0.0
H1480 H 0.6655 0.98705 0.72686 0.0
C1481 C 0.6597 0.05238 0.75667 0.0
C1482 C 0.62356 0.00266 0.75305 0.0
C1483 C 0.66025 0.07382 0.76203 0.0
C1484 C 0.62081 0.91666 0.72761 0.0
C1485 C 0.61999 0.9386 0.73238 0.0
C1486 C 0.65386 0.99104 0.73427 0.0
C1487 C 0.63899 0.04209 0.75375 0.0
C1488 C 0.63854 0.01902 0.74844 0.0
C1489 C 0.63998 0.95098 0.73426 0.0
C1490 C 0.63918 0.97451 0.73903 0.0
H1491 H 0.60353 0.08397 0.76323 0.0
H1492 H 0.60261 0.04636 0.75389 0.0
H1493 H 0.6651 0.02538 0.73509 0.0
H1494 H 0.67795 0.91166 0.72443 0.0
H1495 H 0.67656 0.94967 0.73299 0.0
C1496 C 0.66537 0.57922 0.01827 0.0
C1497 C 0.65483 0.5995 0.02179 0.0
C1498 C 0.68561 0.57958 0.01166 0.0
C1499 C 0.73511 0.61502 0.00572 0.0
H1500 H 0.74467 0.57451 0.97801 0.0
C1501 C 0.81535 0.61885 0.97546 0.0
C1502 C 0.82471 0.59817 0.97165 0.0
C1503 C 0.79434 0.61948 0.98133 0.0
C1504 C 0.74236 0.58575 0.98582 0.0
H1505 H 0.6571 0.63607 0.02102 0.0
H1506 H 0.69253 0.63666 0.00947 0.0
H1507 H 0.70825 0.5748 0.98856 0.0
H1508 H 0.81953 0.56188 0.97116 0.0
H1509 H 0.78312 0.56293 0.98161 0.0
H1510 H 0.7693 0.62573 0.00314 0.0
C1511 C 0.68516 0.62051 0.01191 0.0
C1512 C 0.72149 0.58594 0.99183 0.0
C1513 C 0.66482 0.62015 0.01846 0.0
C1514 C 0.81272 0.57811 0.97392 0.0
C1515 C 0.79178 0.57872 0.97984 0.0
C1516 C 0.75603 0.61475 -0.00025 0.0
C1517 C 0.6958 0.60022 0.00849 0.0
C1518 C 0.71769 0.60052 0.00187 0.0
C1519 C 0.78229 0.59942 0.98356 0.0
C1520 C 0.75993 0.60003 0.98977 0.0
H1521 H 0.65809 0.56302 0.0207 0.0
H1522 H 0.69355 0.56368 0.00925 0.0
H1523 H 0.73274 0.62622 0.01354 0.0
H1524 H 0.82412 0.63462 0.97379 0.0
H1525 H 0.78738 0.63572 0.98394 0.0
C1526 C 0.10756 0.91518 0.76385 0.0
C1527 C 0.12557 0.91136 0.77207 0.0
C1528 C 0.10618 0.93539 0.75722 0.0
C1529 C 0.14099 0.98339 0.74664 0.0
H1530 H 0.08345 0.01424 0.7434 0.0
C1531 C 0.13494 0.0749 0.72956 0.0
C1532 C 0.1181 0.07988 0.72081 0.0
C1533 C 0.13513 0.05412 0.73562 0.0
C1534 C 0.09958 0.00568 0.74412 0.0
H1535 H 0.15619 0.92577 0.77981 0.0
H1536 H 0.15363 0.96105 0.76837 0.0
H1537 H 0.08528 0.97806 0.75421 0.0
H1538 H 0.08794 0.06714 0.71177 0.0
H1539 H 0.08832 0.03072 0.72239 0.0
H1540 H 0.15533 0.01106 0.73666 0.0
C1541 C 0.14076 0.94832 0.7669 0.0
C1542 C 0.10063 0.98497 0.75029 0.0
C1543 C 0.14215 0.92813 0.77351 0.0
C1544 C 0.10115 0.0638 0.71845 0.0
C1545 C 0.10131 0.04299 0.72457 0.0
C1546 C 0.13994 0.00408 0.74051 0.0
C1547 C 0.12278 0.95217 0.75868 0.0
C1548 C 0.12139 0.9737 0.75171 0.0
C1549 C 0.11846 0.03787 0.73311 0.0
C1550 C 0.11927 0.01554 0.73928 0.0
H1551 H 0.09453 0.90255 0.76252 0.0
H1552 H 0.09225 0.93777 0.75085 0.0
H1553 H 0.15716 0.97491 0.74737 0.0
H1554 H 0.14818 0.08696 0.73164 0.0
H1555 H 0.14835 0.05079 0.74231 0.0
C1556 C 0.8205 0.38717 0.51023 0.0
C1557 C 0.83148 0.40801 0.51187 0.0
C1558 C 0.79818 0.3864 0.50607 0.0
C1559 C 0.75495 0.41929 0.48958 0.0
H1560 H 0.71294 0.37973 0.50656 0.0
C1561 C 0.6589 0.42269 0.48076 0.0
C1562 C 0.64733 0.40199 0.48017 0.0
C1563 C 0.68143 0.42345 0.48459 0.0
C1564 C 0.72451 0.39066 0.50162 0.0
H1565 H 0.82781 0.44437 0.51022 0.0
H1566 H 0.78881 0.44298 0.50294 0.0
H1567 H 0.75239 0.38082 0.51301 0.0
H1568 H 0.65032 0.36584 0.48309 0.0
H1569 H 0.68969 0.36713 0.48959 0.0
H1570 H 0.72713 0.42904 0.47813 0.0
C1571 C 0.79753 0.42726 0.50483 0.0
C1572 C 0.74709 0.39129 0.50532 0.0
C1573 C 0.81982 0.42804 0.50906 0.0
C1574 C 0.65872 0.38208 0.48351 0.0
C1575 C 0.68127 0.38283 0.48729 0.0
C1576 C 0.73237 0.4186 0.48583 0.0
C1577 C 0.78643 0.40643 0.5034 0.0
C1578 C 0.76253 0.40562 0.49935 0.0
C1579 C 0.69289 0.40352 0.48786 0.0
C1580 C 0.71689 0.40429 0.49183 0.0
H1581 H 0.82904 0.37142 0.51229 0.0
H1582 H 0.79013 0.37009 0.5049 0.0
H1583 H 0.76654 0.4303 0.48471 0.0
H1584 H 0.65057 0.43835 0.47829 0.0
H1585 H 0.6898 0.4397 0.4851 0.0
C1586 C 0.3379 0.06423 0.27509 0.0
C1587 C 0.35026 0.08166 0.26942 0.0
C1588 C 0.33705 0.04275 0.26975 0.0
C1589 C 0.34371 0.01332 0.24014 0.0
H1590 H 0.35184 0.95995 0.26049 0.0
C1591 C 0.329 0.92362 0.22129 0.0
C1592 C 0.34579 0.90757 0.22401 0.0
C1593 C 0.32888 0.94455 0.22724 0.0
C1594 C 0.34962 0.97472 0.2547 0.0
H1595 H 0.37141 0.09026 0.25372 0.0
H1596 H 0.36987 0.05276 0.24441 0.0
H1597 H 0.35333 -0.00258 0.27 0.0
H1598 H 0.37529 0.90067 0.23532 0.0
H1599 H 0.37504 0.9373 0.24572 0.0
H1600 H 0.34025 0.99069 0.22482 0.0
C1601 C 0.36074 0.05577 0.25294 0.0
C1602 C 0.35027 -0.00388 0.26015 0.0
C1603 C 0.3617 0.0772 0.2583 0.0
C1604 C 0.36215 0.91269 0.23301 0.0
C1605 C 0.36195 0.9336 0.23901 0.0
C1606 C 0.3429 0.99194 0.23471 0.0
C1607 C 0.34843 0.03833 0.25862 0.0
C1608 C 0.34742 0.01562 0.2529 0.0
C1609 C 0.34546 0.94983 0.23607 0.0
C1610 C 0.34591 0.97244 0.24193 0.0
H1611 H 0.3289 0.06713 0.28366 0.0
H1612 H 0.32726 0.02968 0.27426 0.0
H1613 H 0.34125 0.02805 0.23435 0.0
H1614 H 0.31611 0.92017 0.21443 0.0
H1615 H 0.3158 0.95663 0.22491 0.0
C1616 C 0.82354 0.87912 0.47893 0.0
C1617 C 0.83465 0.89995 0.47755 0.0
C1618 C 0.80216 0.8781 0.48435 0.0
C1619 C 0.75231 0.91358 0.49085 0.0
H1620 H 0.73554 0.86388 0.51233 0.0
C1621 C 0.66738 0.91038 0.51709 0.0
C1622 C 0.65585 0.88963 0.51688 0.0
C1623 C 0.68945 0.91194 0.51261 0.0
C1624 C 0.73995 0.87776 0.50627 0.0
H1625 H 0.83232 0.93597 0.48108 0.0
H1626 H 0.79518 0.93413 0.49074 0.0
H1627 H 0.77398 0.86613 0.50428 0.0
H1628 H 0.65841 0.85424 0.51178 0.0
H1629 H 0.69694 0.85701 0.50396 0.0
H1630 H 0.71826 0.92522 0.49288 0.0
C1631 C 0.8028 0.91864 0.4874 0.0
C1632 C 0.76194 0.87904 0.50165 0.0
C1633 C 0.82414 0.91968 0.48193 0.0
C1634 C 0.66683 0.87048 0.51208 0.0
C1635 C 0.68894 0.87202 0.50767 0.0
C1636 C 0.73035 0.91235 0.49551 0.0
C1637 C 0.79146 0.89788 0.48855 0.0
C1638 C 0.76833 0.8969 0.49383 0.0
C1639 C 0.70048 0.89275 0.50791 0.0
C1640 C 0.72392 0.89435 0.5032 0.0
H1641 H 0.83116 0.86362 0.47561 0.0
H1642 H 0.79378 0.86187 0.48495 0.0
H1643 H 0.75656 0.92734 0.48468 0.0
H1644 H 0.65939 0.92544 0.52074 0.0
H1645 H 0.69802 0.92811 0.513 0.0
C1646 C 0.35713 0.57808 0.73159 0.0
C1647 C 0.3368 0.58864 0.72815 0.0
C1648 C 0.35723 0.55558 0.73546 0.0
C1649 C 0.32085 0.51158 0.74865 0.0
H1650 H 0.36719 0.47079 0.73661 0.0
C1651 C 0.3206 0.41676 0.76086 0.0
C1652 C 0.34154 0.40717 0.76401 0.0
C1653 C 0.31951 0.43838 0.75572 0.0
C1654 C 0.35426 0.48202 0.74014 0.0
H1655 H 0.30062 0.5839 0.72613 0.0
H1656 H 0.30083 0.54459 0.73293 0.0
H1657 H 0.36633 0.50977 0.72931 0.0
H1658 H 0.37781 0.41262 0.76406 0.0
H1659 H 0.37589 0.45042 0.75529 0.0
H1660 H 0.30899 0.48401 0.75964 0.0
C1661 C 0.31665 0.55379 0.73267 0.0
C1662 C 0.35377 0.50432 0.73596 0.0
C1663 C 0.31656 0.57626 0.72874 0.0
C1664 C 0.3614 0.41949 0.76171 0.0
C1665 C 0.3603 0.44113 0.75661 0.0
C1666 C 0.3214 0.4893 0.75288 0.0
C1667 C 0.337 0.5432 0.73604 0.0
C1668 C 0.33714 0.51937 0.74022 0.0
C1669 C 0.33934 0.4509 0.75364 0.0
C1670 C 0.3382 0.4743 0.74874 0.0
H1671 H 0.37301 0.58716 0.73124 0.0
H1672 H 0.37312 0.54794 0.73814 0.0
H1673 H 0.30799 0.52288 0.7522 0.0
H1674 H 0.30499 0.40764 0.76245 0.0
H1675 H 0.30312 0.44529 0.75335 0.0
C1676 C 0.82813 0.1252 0.01996 0.0
C1677 C 0.83896 0.10424 0.02147 0.0
C1678 C 0.8059 0.12623 0.01562 0.0
C1679 C 0.75448 0.09126 0.0119 0.0
H1680 H 0.73791 0.13624 0.98745 0.0
C1681 C 0.6738 0.08489 0.98239 0.0
C1682 C 0.66145 0.10477 0.98023 0.0
C1683 C 0.69468 0.08575 0.98837 0.0
C1684 C 0.7422 0.12379 0.99441 0.0
H1685 H 0.83504 0.06796 0.01949 0.0
H1686 H 0.79651 0.06979 0.01175 0.0
H1687 H 0.77608 0.13609 -0.00401 0.0
H1688 H 0.66115 0.14114 0.98282 0.0
H1689 H 0.69772 0.14261 0.99327 0.0
H1690 H 0.72072 0.07869 0.01012 0.0
C1691 C 0.80499 0.08541 0.01414 0.0
C1692 C 0.76406 0.1237 -0.0007 0.0
C1693 C 0.82716 0.08438 0.01849 0.0
C1694 C 0.67028 0.12552 0.98433 0.0
C1695 C 0.69125 0.12639 0.99026 0.0
C1696 C 0.73267 0.0913 0.00698 0.0
C1697 C 0.79407 0.10633 0.01269 0.0
C1698 C 0.77052 0.10726 0.00799 0.0
C1699 C 0.70372 0.10652 0.99227 0.0
C1700 C 0.72639 0.1074 -0.00192 0.0
H1701 H 0.83675 0.14081 0.02221 0.0
H1702 H 0.79788 0.1426 0.01471 0.0
H1703 H 0.75878 0.07866 0.01876 0.0
H1704 H 0.66747 0.06864 0.97935 0.0
H1705 H 0.70401 0.07018 0.98967 0.0
C1706 C 0.12791 0.57229 0.25198 0.0
C1707 C 0.11372 0.57554 0.26225 0.0
C1708 C 0.12902 0.55132 0.24613 0.0
C1709 C 0.0992 0.4973 0.24195 0.0
H1710 H 0.15916 0.47474 0.23436 0.0
C1711 C 0.11551 0.4059 0.2251 0.0
C1712 C 0.13164 0.40312 0.21568 0.0
C1713 C 0.11269 0.42688 0.23084 0.0
C1714 C 0.14228 0.48089 0.23628 0.0
H1715 H 0.08898 0.5595 0.27417 0.0
H1716 H 0.09097 0.52276 0.26392 0.0
H1717 H 0.1549 0.51167 0.24399 0.0
H1718 H 0.15728 0.42021 0.20481 0.0
H1719 H 0.15215 0.45677 0.21469 0.0
H1720 H 0.08659 0.46651 0.23416 0.0
C1721 C 0.10117 0.53652 0.2604 0.0
C1722 C 0.13985 0.50205 0.2418 0.0
C1723 C 0.10011 0.55753 0.26629 0.0
C1724 C 0.1448 0.42174 0.21209 0.0
C1725 C 0.14194 0.44269 0.2178 0.0
C1726 C 0.10163 0.47612 0.23637 0.0
C1727 C 0.11592 0.53313 0.25039 0.0
C1728 C 0.1183 0.51053 0.24463 0.0
C1729 C 0.12592 0.44549 0.22727 0.0
C1730 C 0.12321 0.46774 0.23342 0.0
H1731 H 0.13852 0.58584 0.24858 0.0
H1732 H 0.14026 0.5493 0.23831 0.0
H1733 H 0.08237 0.50351 0.24394 0.0
H1734 H 0.10513 0.39186 0.22809 0.0
H1735 H 0.10038 0.42842 0.23821 0.0
C1736 C 0.16154 0.08869 0.5035 0.0
C1737 C 0.1517 0.10908 0.50742 0.0
C1738 C 0.18298 0.08856 0.49813 0.0
C1739 C 0.23569 0.12049 0.49777 0.0
H1740 H 0.24995 0.08272 0.46952 0.0
C1741 C 0.3245 0.11867 0.47548 0.0
C1742 C 0.3326 0.09754 0.47153 0.0
C1743 C 0.30216 0.12108 0.47946 0.0
C1744 C 0.2463 0.09317 0.4775 0.0
H1745 H 0.15634 0.1454 0.50848 0.0
H1746 H 0.19393 0.14511 0.49912 0.0
H1747 H 0.21099 0.08543 0.47669 0.0
H1748 H 0.32382 0.06226 0.46897 0.0
H1749 H 0.28509 0.06634 0.47617 0.0
H1750 H 0.27103 0.12784 0.49878 0.0
C1751 C 0.18504 0.12925 0.50028 0.0
C1752 C 0.22398 0.09478 0.48156 0.0
C1753 C 0.16349 0.12942 0.50556 0.0
C1754 C 0.31806 0.0788 0.47188 0.0
C1755 C 0.29579 0.08118 0.47591 0.0
C1756 C 0.25805 0.11878 0.49375 0.0
C1757 C 0.19508 0.10879 0.49664 0.0
C1758 C 0.21848 0.10829 0.49181 0.0
C1759 C 0.28751 0.10239 0.47963 0.0
C1760 C 0.26365 0.10492 0.48365 0.0
H1761 H 0.15287 0.07275 0.50478 0.0
H1762 H 0.19038 0.07251 0.49551 0.0
H1763 H 0.23197 0.1308 0.5058 0.0
H1764 H 0.33526 0.13347 0.47527 0.0
H1765 H 0.29626 0.13769 0.48215 0.0
C1766 C 0.62034 0.40786 0.27565 0.0
C1767 C 0.64112 0.39676 0.2773 0.0
C1768 C 0.61967 0.43014 0.27145 0.0
C1769 C 0.6548 0.48144 0.26855 0.0
H1770 H 0.61003 0.49879 0.24413 0.0
C1771 C 0.65942 0.56456 0.24092 0.0
C1772 C 0.63915 0.5763 0.2388 0.0
C1773 C 0.65917 0.5433 0.24649 0.0
C1774 C 0.62243 0.49428 0.25108 0.0
H1775 H 0.6775 0.40029 0.27575 0.0
H1776 H 0.67632 0.43908 0.26823 0.0
H1777 H 0.61065 0.46016 0.25191 0.0
H1778 H 0.60274 0.57521 0.24115 0.0
H1779 H 0.60235 0.53803 0.25091 0.0
H1780 H 0.66677 0.51552 0.26755 0.0
C1781 C 0.66055 0.43067 0.27038 0.0
C1782 C 0.6228 0.47215 0.25553 0.0
C1783 C 0.66122 0.40839 0.27461 0.0
C1784 C 0.61865 0.56655 0.24262 0.0
C1785 C 0.6184 0.54522 0.24814 0.0
C1786 C 0.65447 0.50355 0.26406 0.0
C1787 C 0.63977 0.4418 0.26878 0.0
C1788 C 0.63907 0.46545 0.26426 0.0
C1789 C 0.63864 0.5333 0.25002 0.0
C1790 C 0.63836 0.51016 0.25523 0.0
H1791 H 0.60454 0.3994 0.27769 0.0
H1792 H 0.60341 0.43834 0.27045 0.0
H1793 H 0.6673 0.47691 0.27543 0.0
H1794 H 0.6755 0.57161 0.2381 0.0
H1795 H 0.67502 0.53441 0.2477 0.0
C1796 C 0.1636 0.91106 0.98483 0.0
C1797 C 0.15265 0.89064 0.98199 0.0
C1798 C 0.18577 0.91105 0.98922 0.0
C1799 C 0.23755 0.87716 0.98896 0.0
H1800 H 0.25596 0.91748 0.01538 0.0
C1801 C 0.32717 0.87589 0.01039 0.0
C1802 C 0.33678 0.89682 0.0136 0.0
C1803 C 0.30477 0.87465 0.00638 0.0
C1804 C 0.25115 0.90633 0.00788 0.0
H1805 H 0.1562 0.85415 0.98175 0.0
H1806 H 0.19503 0.85416 0.98946 0.0
H1807 H 0.21636 0.91584 0.00927 0.0
H1808 H 0.3307 0.93292 0.01467 0.0
H1809 H 0.29178 0.93078 0.00745 0.0
H1810 H 0.27239 0.86783 0.98747 0.0
C1811 C 0.18645 0.87017 0.98819 0.0
C1812 C 0.22846 0.90534 0.00442 0.0
C1813 C 0.16419 0.87016 0.98386 0.0
C1814 C 0.32375 0.91652 0.01235 0.0
C1815 C 0.30139 0.91528 0.0083 0.0
C1816 C 0.26029 0.8782 0.99239 0.0
C1817 C 0.19752 0.89063 0.99081 0.0
C1818 C 0.22144 0.89085 0.99488 0.0
C1819 C 0.29152 0.8943 0.00545 0.0
C1820 C 0.26736 0.89292 0.00184 0.0
H1821 H 0.15519 0.92713 0.9835 0.0
H1822 H 0.19393 0.92709 0.99105 0.0
H1823 H 0.23267 0.86605 0.98145 0.0
H1824 H 0.33676 0.86039 0.01128 0.0
H1825 H 0.29763 0.8582 0.00435 0.0
C1826 C 0.86653 0.40508 0.72258 0.0
C1827 C 0.84653 0.39246 0.72139 0.0
C1828 C 0.86602 0.42687 0.72753 0.0
C1829 C 0.82747 0.47478 0.73308 0.0
H1830 H 0.87526 0.49512 0.75497 0.0
C1831 C 0.82432 0.55996 0.75921 0.0
C1832 C 0.84442 0.5726 0.7596 0.0
C1833 C 0.82429 0.538 0.75447 0.0
C1834 C 0.86192 0.48974 0.74877 0.0
H1835 H 0.81036 0.39265 0.72465 0.0
H1836 H 0.80953 0.43058 0.73346 0.0
H1837 H 0.87564 0.45643 0.74723 0.0
H1838 H 0.88019 0.57222 0.75519 0.0
H1839 H 0.88009 0.5339 0.74689 0.0
H1840 H 0.81373 0.50812 0.73469 0.0
C1841 C 0.82555 0.42376 0.73037 0.0
C1842 C 0.86213 0.46759 0.74434 0.0
C1843 C 0.82605 0.40198 0.72539 0.0
C1844 C 0.86443 0.56291 0.75504 0.0
C1845 C 0.86442 0.54092 0.75036 0.0
C1846 C 0.82723 0.49692 0.73756 0.0
C1847 C 0.84551 0.4365 0.73143 0.0
C1848 C 0.84496 0.45988 0.7364 0.0
C1849 C 0.84438 0.52819 0.75009 0.0
C1850 C 0.8445 0.50466 0.7454 0.0
H1851 H 0.88259 0.39828 0.71954 0.0
H1852 H 0.88165 0.43633 0.72806 0.0
H1853 H 0.81418 0.46948 0.72683 0.0
H1854 H 0.80862 0.56694 0.76266 0.0
H1855 H 0.80864 0.52852 0.75448 0.0
C1856 C 0.0801 0.38493 0.07305 0.0
C1857 C 0.09616 0.38483 0.06349 0.0
C1858 C 0.08691 0.38275 0.08537 0.0
C1859 C 0.13304 0.36013 0.10437 0.0
H1860 H 0.10457 0.39484 0.13049 0.0
C1861 C 0.15837 0.35067 0.15592 0.0
C1862 C 0.14034 0.34977 0.16436 0.0
C1863 C 0.15453 0.35667 0.14357 0.0
C1864 C 0.11258 0.3849 0.12331 0.0
H1865 H 0.13202 0.38285 0.05938 0.0
H1866 H 0.14383 0.37907 0.08088 0.0
H1867 H 0.09483 0.40245 0.10898 0.0
H1868 H 0.10412 0.35442 0.16643 0.0
H1869 H 0.09747 0.36452 0.145 0.0
H1870 H 0.15044 0.34225 0.11871 0.0
C1871 C 0.12598 0.38064 0.07883 0.0
C1872 C 0.107 0.38928 0.11099 0.0
C1873 C 0.1192 0.38293 0.06652 0.0
C1874 C 0.11844 0.35502 0.1602 0.0
C1875 C 0.11463 0.361 0.14791 0.0
C1876 C 0.13858 0.3557 0.1167 0.0
C1877 C 0.1099 0.38033 0.08838 0.0
C1878 C 0.11694 0.37674 0.1014 0.0
C1879 C 0.13259 0.36191 0.13944 0.0
C1880 C 0.12816 0.36781 0.12632 0.0
H1881 H 0.06224 0.38637 0.07103 0.0
H1882 H 0.07409 0.38234 0.09251 0.0
H1883 H 0.14081 0.35001 0.09719 0.0
H1884 H 0.17544 0.34677 0.15884 0.0
H1885 H 0.16875 0.35738 0.13728 0.0
C1886 C 0.91114 0.89468 0.40948 0.0
C1887 C 0.89497 0.89585 0.41897 0.0
C1888 C 0.9044 0.89398 0.39711 0.0
C1889 C 0.85594 0.8775 0.37786 0.0
H1890 H 0.89078 0.90573 0.35173 0.0
C1891 C 0.83324 0.86782 0.32596 0.0
C1892 C 0.85158 0.86241 0.31825 0.0
C1893 C 0.83693 0.87465 0.33819 0.0
C1894 C 0.88092 0.89771 0.35893 0.0
H1895 H 0.85907 0.89823 0.42288 0.0
H1896 H 0.84736 0.89728 0.40128 0.0
H1897 H 0.90022 0.91344 0.37329 0.0
H1898 H 0.88817 0.86013 0.3173 0.0
H1899 H 0.89452 0.87189 0.33853 0.0
H1900 H 0.83691 0.86145 0.36348 0.0
C1901 C 0.86523 0.8965 0.40342 0.0
C1902 C 0.88634 0.9021 0.37127 0.0
C1903 C 0.87196 0.89716 0.4158 0.0
C1904 C 0.87364 0.86416 0.32298 0.0
C1905 C 0.87732 0.87109 0.33513 0.0
C1906 C 0.85048 0.87315 0.36551 0.0
C1907 C 0.88135 0.89451 0.39395 0.0
C1908 C 0.8742 0.89169 0.38087 0.0
C1909 C 0.85903 0.87637 0.34288 0.0
C1910 C 0.86322 0.88285 0.35593 0.0
H1911 H 0.92899 0.89362 0.41161 0.0
H1912 H 0.91725 0.89219 0.39005 0.0
H1913 H 0.84643 0.86898 0.38502 0.0
H1914 H 0.81605 0.86668 0.32258 0.0
H1915 H 0.82253 0.87871 0.34395 0.0
C1916 C 0.34458 0.64357 0.67321 0.0
C1917 C 0.35216 0.6644 0.67788 0.0
C1918 C 0.34592 0.63887 0.66057 0.0
C1919 C 0.37806 0.65518 0.63294 0.0
H1920 H 0.33143 0.62211 0.6154 0.0
C1921 C 0.38188 0.63982 0.58034 0.0
C1922 C 0.37546 0.61835 0.57602 0.0
C1923 C 0.37844 0.64585 0.59268 0.0
C1924 C 0.34469 0.63115 0.62021 0.0
H1925 H 0.36629 0.69698 0.67289 0.0
H1926 H 0.36843 0.68883 0.65082 0.0
H1927 H 0.32559 0.63254 0.637 0.0
H1928 H 0.36055 0.58629 0.58132 0.0
H1929 H 0.35479 0.59674 0.60291 0.0
H1930 H 0.39726 0.65365 0.61621 0.0
C1931 C 0.36177 0.67601 0.65696 0.0
C1932 C 0.34133 0.63717 0.63257 0.0
C1933 C 0.3604 0.68072 0.6696 0.0
C1934 C 0.36565 0.60298 0.58434 0.0
C1935 C 0.3622 0.60902 0.5967 0.0
C1936 C 0.38143 0.64917 0.6206 0.0
C1937 C 0.3549 0.65489 0.65234 0.0
C1938 C 0.358 0.6492 0.63908 0.0
C1939 C 0.36851 0.63054 0.60099 0.0
C1940 C 0.36482 0.63703 0.6141 0.0
H1941 H 0.33814 0.63062 0.67934 0.0
H1942 H 0.34066 0.62237 0.65732 0.0
H1943 H 0.39141 0.66409 0.63776 0.0
H1944 H 0.38942 0.6521 0.57417 0.0
H1945 H 0.38325 0.66265 0.59566 0.0
C1946 C 0.62486 0.12787 0.82424 0.0
C1947 C 0.64024 0.14437 0.82017 0.0
C1948 C 0.62292 0.12276 0.83679 0.0
C1949 C 0.63269 0.14725 0.86751 0.0
H1950 H 0.62306 0.08573 0.8787 0.0
C1951 C 0.62423 0.12528 0.9192 0.0
C1952 C 0.60673 0.11032 0.9224 0.0
C1953 C 0.63026 0.12843 0.90684 0.0
C1954 C 0.62557 0.10301 0.87571 0.0
H1955 H 0.66603 0.16808 0.82608 0.0
H1956 H 0.66272 0.15903 0.84804 0.0
H1957 H 0.63053 0.09302 0.85687 0.0
H1958 H 0.58212 0.08661 0.91512 0.0
H1959 H 0.59252 0.09229 0.89353 0.0
H1960 H 0.62742 0.15729 0.88629 0.0
C1961 C 0.65199 0.15025 0.8415 0.0
C1962 C 0.62987 0.10719 0.86321 0.0
C1963 C 0.65396 0.15535 0.82892 0.0
C1964 C 0.59568 0.09825 0.91297 0.0
C1965 C 0.60173 0.10141 0.9006 0.0
C1966 C 0.6284 0.14307 0.88 0.0
C1967 C 0.63632 0.13401 0.84557 0.0
C1968 C 0.63325 0.12938 0.85896 0.0
C1969 C 0.61895 0.1167 0.89739 0.0
C1970 C 0.62458 0.12093 0.88422 0.0
H1971 H 0.61403 0.11908 0.81775 0.0
H1972 H 0.61048 0.11039 0.83963 0.0
H1973 H 0.63488 0.16456 0.86451 0.0
H1974 H 0.63318 0.13476 0.92624 0.0
H1975 H 0.64382 0.14009 0.90469 0.0
C1976 C 0.13986 0.61495 0.31773 0.0
C1977 C 0.1536 0.63263 0.3134 0.0
C1978 C 0.1391 0.60974 0.33031 0.0
C1979 C 0.14687 0.63671 0.36038 0.0
H1980 H 0.1398 0.57571 0.37289 0.0
C1981 C 0.13183 0.6199 0.41204 0.0
C1982 C 0.11453 0.60447 0.41487 0.0
C1983 C 0.14018 0.62161 0.40001 0.0
C1984 C 0.14165 0.59284 0.36953 0.0
H1985 H 0.17812 0.65803 0.31881 0.0
H1986 H 0.17683 0.64885 0.34082 0.0
H1987 H 0.14868 0.58167 0.35108 0.0
H1988 H 0.09293 0.57822 0.40736 0.0
H1989 H 0.10724 0.58148 0.38629 0.0
H1990 H 0.13922 0.64796 0.37868 0.0
C1991 C 0.16646 0.63921 0.33447 0.0
C1992 C 0.14678 0.59625 0.35705 0.0
C1993 C 0.16727 0.64439 0.32186 0.0
C1994 C 0.10625 0.59028 0.40548 0.0
C1995 C 0.11457 0.59205 0.39342 0.0
C1996 C 0.14172 0.63331 0.37283 0.0
C1997 C 0.15204 0.6221 0.33885 0.0
C1998 C 0.14909 0.61825 0.35231 0.0
C1999 C 0.13137 0.608 0.39051 0.0
C2000 C 0.1387 0.61135 0.37751 0.0
H2001 H 0.12917 0.60549 0.31146 0.0
H2002 H 0.12764 0.59663 0.33338 0.0
H2003 H 0.14817 0.65388 0.35698 0.0
H2004 H 0.13874 0.63093 0.41908 0.0
H2005 H 0.1534 0.63379 0.39812 0.0
C2006 C 0.65014 0.83083 0.66051 0.0
C2007 C 0.64223 0.84603 0.66951 0.0
C2008 C 0.6469 0.83532 0.64794 0.0
C2009 C 0.63439 0.8804 0.62549 0.0
H2010 H 0.60788 0.83193 0.6062 0.0
C2011 C 0.59773 0.89504 0.57657 0.0
C2012 C 0.60102 0.87792 0.56775 0.0
C2013 C 0.60357 0.89148 0.58895 0.0
C2014 C 0.6156 0.84556 0.61138 0.0
H2015 H 0.62567 0.87833 0.67238 0.0
H2016 H 0.62021 0.88621 0.65045 0.0
H2017 H 0.61809 0.82529 0.6277 0.0
H2018 H 0.61333 0.84374 0.56498 0.0
H2019 H 0.62398 0.83775 0.58641 0.0
H2020 H 0.63208 0.90066 0.60916 0.0
C2021 C 0.62885 0.87082 0.65312 0.0
C2022 C 0.62143 0.84174 0.62371 0.0
C2023 C 0.63188 0.86624 0.66567 0.0
C2024 C 0.61036 0.85723 0.57156 0.0
C2025 C 0.61638 0.85374 0.58388 0.0
C2026 C 0.62874 0.88419 0.61311 0.0
C2027 C 0.63593 0.85521 0.64414 0.0
C2028 C 0.63079 0.85913 0.6309 0.0
C2029 C 0.613 0.87078 0.59275 0.0
C2030 C 0.61919 0.86683 0.60591 0.0
H2031 H 0.6582 0.81513 0.66316 0.0
H2032 H 0.65275 0.82311 0.6412 0.0
H2033 H 0.64174 0.89406 0.63082 0.0
H2034 H 0.5905 0.91115 0.57393 0.0
H2035 H 0.60042 0.90486 0.59557 0.0
C2036 C 0.38363 0.33214 0.82921 0.0
C2037 C 0.37141 0.34571 0.8209 0.0
C2038 C 0.38622 0.33872 0.84153 0.0
C2039 C 0.3618 0.37456 0.86584 0.0
H2040 H 0.42137 0.36962 0.88056 0.0
C2041 C 0.3806 0.4069 0.91523 0.0
C2042 C 0.39392 0.39272 0.92268 0.0
C2043 C 0.37842 0.40267 0.90256 0.0
C2044 C 0.40458 0.37092 0.87663 0.0
H2045 H 0.35187 0.37658 0.81909 0.0
H2046 H 0.35634 0.38798 0.84065 0.0
H2047 H 0.41577 0.35861 0.85906 0.0
H2048 H 0.41571 0.36321 0.92263 0.0
H2049 H 0.41164 0.35567 0.90067 0.0
H2050 H 0.35049 0.38647 0.88347 0.0
C2051 C 0.36388 0.37225 0.83761 0.0
C2052 C 0.40139 0.36461 0.86432 0.0
C2053 C 0.3614 0.36575 0.82526 0.0
C2054 C 0.40537 0.37453 0.91716 0.0
C2055 C 0.40314 0.37026 0.90453 0.0
C2056 C 0.36496 0.38075 0.8782 0.0
C2057 C 0.37654 0.35893 0.84583 0.0
C2058 C 0.37994 0.36618 0.85882 0.0
C2059 C 0.38949 0.38415 0.89709 0.0
C2060 C 0.38636 0.37882 0.88377 0.0
H2061 H 0.39152 0.3166 0.82616 0.0
H2062 H 0.3958 0.32795 0.84771 0.0
H2063 H 0.34503 0.37577 0.86188 0.0
H2064 H 0.37162 0.42111 0.91919 0.0
H2065 H 0.36803 0.41388 0.89705 0.0
C2066 C 0.86951 0.17309 0.16795 0.0
C2067 C 0.85812 0.15791 0.17575 0.0
C2068 C 0.87166 0.16853 0.15533 0.0
C2069 C 0.84892 0.13413 0.12969 0.0
H2070 H 0.90914 0.14108 0.11607 0.0
C2071 C 0.87306 0.09954 0.0815 0.0
C2072 C 0.88683 0.11333 0.07408 0.0
C2073 C 0.86924 0.10502 0.0939 0.0
C2074 C 0.89216 0.1393 0.11967 0.0
H2075 H 0.83912 0.12655 0.17631 0.0
H2076 H 0.84286 0.11865 0.15428 0.0
H2077 H 0.90195 0.1517 0.13747 0.0
H2078 H 0.90754 0.1436 0.07391 0.0
H2079 H 0.90065 0.15328 0.09542 0.0
H2080 H 0.83911 0.1218 0.11188 0.0
C2081 C 0.8501 0.13408 0.15793 0.0
C2082 C 0.88804 0.14541 0.13193 0.0
C2083 C 0.84805 0.13858 0.17056 0.0
C2084 C 0.89692 0.13254 0.07937 0.0
C2085 C 0.89305 0.13805 0.09174 0.0
C2086 C 0.85302 0.12811 0.1174 0.0
C2087 C 0.86235 0.14876 0.15023 0.0
C2088 C 0.86639 0.14289 0.13708 0.0
C2089 C 0.87908 0.12443 0.09914 0.0
C2090 C 0.8747 0.1306 0.11225 0.0
H2091 H 0.87741 0.18817 0.17164 0.0
H2092 H 0.8809 0.18032 0.14958 0.0
H2093 H 0.83202 0.13218 0.13338 0.0
H2094 H 0.86509 0.08458 0.07771 0.0
H2095 H 0.85867 0.09398 0.0994 0.0
C2096 C 0.86796 0.61944 0.81718 0.0
C2097 C 0.84652 0.62523 0.81255 0.0
C2098 C 0.87096 0.61466 0.82969 0.0
C2099 C 0.8463 0.62535 0.86021 0.0
H2100 H 0.88715 0.57758 0.87042 0.0
C2101 C 0.86336 0.6059 0.91163 0.0
C2102 C 0.88617 0.60295 0.91491 0.0
C2103 C 0.85686 0.6063 0.89922 0.0
C2104 C 0.87579 0.59105 0.86771 0.0
H2105 H 0.81135 0.63033 0.81744 0.0
H2106 H 0.81662 0.6219 0.8394 0.0
H2107 H 0.87841 0.5825 0.84854 0.0
H2108 H 0.91995 0.59752 0.90773 0.0
H2109 H 0.90864 0.59838 0.88606 0.0
H2110 H 0.844 0.63417 0.87936 0.0
C2111 C 0.83111 0.62123 0.8333 0.0
C2112 C 0.87077 0.59386 0.85518 0.0
C2113 C 0.82808 0.62598 0.82072 0.0
C2114 C 0.90225 0.59982 0.90551 0.0
C2115 C 0.89574 0.60018 0.89309 0.0
C2116 C 0.85131 0.62253 0.87274 0.0
C2117 C 0.85261 0.61555 0.83791 0.0
C2118 C 0.85627 0.61128 0.85128 0.0
C2119 C 0.87301 0.6037 0.88981 0.0
C2120 C 0.86639 0.60557 0.87661 0.0
H2121 H 0.88256 0.61874 0.81115 0.0
H2122 H 0.8878 0.61073 0.83297 0.0
H2123 H 0.83528 0.63909 0.85749 0.0
H2124 H 0.85051 0.60826 0.91865 0.0
H2125 H 0.83918 0.60873 0.89698 0.0
C2126 C 0.1245 0.12316 0.5685 0.0
C2127 C 0.10688 0.10815 0.56558 0.0
C2128 C 0.13225 0.12516 0.58063 0.0
C2129 C 0.13197 0.09753 0.61132 0.0
H2130 H 0.14053 0.15875 0.62326 0.0
C2131 C 0.13529 0.12063 0.6631 0.0
C2132 C 0.15018 0.1378 0.66689 0.0
C2133 C 0.13271 0.11549 0.65058 0.0
C2134 C 0.1386 0.14153 0.62003 0.0
H2135 H 0.08405 0.08294 0.57304 0.0
H2136 H 0.0974 0.08668 0.5943 0.0
H2137 H 0.13091 0.1524 0.60167 0.0
H2138 H 0.17465 0.16249 0.66055 0.0
H2139 H 0.17023 0.1534 0.63866 0.0
H2140 H 0.13926 0.08675 0.6298 0.0
C2141 C 0.10538 0.09672 0.58716 0.0
C2142 C 0.13307 0.13788 0.60765 0.0
C2143 C 0.09764 0.09466 0.57499 0.0
C2144 C 0.16294 0.14927 0.65792 0.0
C2145 C 0.16034 0.14413 0.64538 0.0
C2146 C 0.13751 0.10119 0.62373 0.0
C2147 C 0.12253 0.11226 0.59014 0.0
C2148 C 0.1295 0.11586 0.60317 0.0
C2149 C 0.14495 0.12741 0.64157 0.0
C2150 C 0.14068 0.12326 0.62824 0.0
H2151 H 0.13216 0.13364 0.56144 0.0
H2152 H 0.14577 0.13698 0.58258 0.0
H2153 H 0.12963 0.08035 0.60811 0.0
H2154 H 0.12522 0.11143 0.66978 0.0
H2155 H 0.12053 0.1027 0.64795 0.0
C2156 C 0.59269 0.39067 0.42516 0.0
C2157 C 0.57262 0.38146 0.42995 0.0
C2158 C 0.59795 0.38832 0.41264 0.0
C2159 C 0.5866 0.35081 0.3864 0.0
H2160 H 0.61426 0.39838 0.36696 0.0
C2161 C 0.60371 0.34087 0.33424 0.0
C2162 C 0.62401 0.34974 0.32956 0.0
C2163 C 0.59715 0.34524 0.3464 0.0
C2164 C 0.60679 0.38484 0.37231 0.0
H2165 H 0.54186 0.36345 0.42524 0.0
H2166 H 0.55101 0.35948 0.40336 0.0
H2167 H 0.60255 0.40608 0.38819 0.0
H2168 H 0.65353 0.36987 0.33405 0.0
H2169 H 0.64227 0.37715 0.35538 0.0
H2170 H 0.59108 0.32946 0.37064 0.0
C2171 C 0.56281 0.36824 0.40934 0.0
C2172 C 0.60002 0.38929 0.38445 0.0
C2173 C 0.55751 0.37065 0.42186 0.0
C2174 C 0.63776 0.36284 0.33737 0.0
C2175 C 0.63122 0.36715 0.34956 0.0
C2176 C 0.59343 0.34634 0.37429 0.0
C2177 C 0.58329 0.37667 0.40465 0.0
C2178 C 0.58985 0.37231 0.39162 0.0
C2179 C 0.61078 0.35849 0.3542 0.0
C2180 C 0.60362 0.36329 0.3671 0.0
H2181 H 0.60469 0.39912 0.43115 0.0
H2182 H 0.61392 0.39488 0.40931 0.0
H2183 H 0.5792 0.33725 0.39177 0.0
H2184 H 0.59266 0.3308 0.32845 0.0
H2185 H 0.58117 0.33855 0.34963 0.0
C2186 C 0.37618 0.8895 0.07229 0.0
C2187 C 0.398 0.89634 0.06876 0.0
C2188 C 0.37017 0.88853 0.08475 0.0
C2189 C 0.39606 0.88182 0.11536 0.0
H2190 H 0.33594 0.89625 0.12727 0.0
C2191 C 0.37317 0.87402 0.16672 0.0
C2192 C 0.35266 0.86315 0.16948 0.0
C2193 C 0.37805 0.88075 0.15466 0.0
C2194 C 0.35275 0.89203 0.12405 0.0
H2195 H 0.43029 0.90851 0.07554 0.0
H2196 H 0.41968 0.90708 0.09732 0.0
H2197 H 0.34584 0.904 0.10574 0.0
H2198 H 0.3209 0.85142 0.16179 0.0
H2199 H 0.32957 0.86299 0.14063 0.0
H2200 H 0.40292 0.86958 0.13356 0.0
C2201 C 0.40736 0.90207 0.09044 0.0
C2202 C 0.35843 0.89648 0.11174 0.0
C2203 C 0.4134 0.90301 0.07795 0.0
C2204 C 0.33685 0.85973 0.15996 0.0
C2205 C 0.34177 0.86647 0.14786 0.0
C2206 C 0.3904 0.87743 0.12764 0.0
C2207 C 0.38581 0.89442 0.09398 0.0
C2208 C 0.38011 0.89125 0.10724 0.0
C2209 C 0.36258 0.87674 0.14506 0.0
C2210 C 0.36865 0.88233 0.13211 0.0
H2211 H 0.36389 0.88426 0.06544 0.0
H2212 H 0.35353 0.88233 0.08717 0.0
H2213 H 0.41275 0.87717 0.11214 0.0
H2214 H 0.38565 0.87711 0.17385 0.0
H2215 H 0.39406 0.88897 0.15283 0.0
C2216 C 0.84355 0.36931 0.65963 0.0
C2217 C 0.85908 0.35619 0.66636 0.0
C2218 C 0.84831 0.37576 0.64746 0.0
C2219 C 0.8958 0.38441 0.62605 0.0
H2220 H 0.85094 0.37689 0.60025 0.0
C2221 C 0.91857 0.38565 0.57432 0.0
C2222 C 0.9029 0.39459 0.56588 0.0
C2223 C 0.9131 0.38373 0.58683 0.0
C2224 C 0.86355 0.37951 0.60737 0.0
H2225 H 0.89167 0.33939 0.66555 0.0
H2226 H 0.89988 0.35063 0.64438 0.0
H2227 H 0.84117 0.36799 0.6216 0.0
H2228 H 0.86956 0.4095 0.56405 0.0
H2229 H 0.8602 0.40656 0.58594 0.0
H2230 H 0.91823 0.39586 0.61187 0.0
C2231 C 0.88414 0.35609 0.64854 0.0
C2232 C 0.85794 0.37433 0.61959 0.0
C2233 C 0.87933 0.3495 0.66063 0.0
C2234 C 0.88196 0.40238 0.5703 0.0
C2235 C 0.87653 0.40056 0.58284 0.0
C2236 C 0.90137 0.38973 0.61385 0.0
C2237 C 0.86876 0.36938 0.64185 0.0
C2238 C 0.87413 0.37638 0.62902 0.0
C2239 C 0.89187 0.39082 0.59121 0.0
C2240 C 0.88542 0.387 0.60433 0.0
H2241 H 0.82781 0.37475 0.66378 0.0
H2242 H 0.83618 0.38608 0.64252 0.0
H2243 H 0.9085 0.38652 0.63318 0.0
H2244 H 0.93482 0.37943 0.57121 0.0
H2245 H 0.92523 0.37589 0.59298 0.0
C2246 C 0.37552 0.12964 0.32174 0.0
C2247 C 0.35579 0.1413 0.31829 0.0
C2248 C 0.3789 0.123 0.33398 0.0
C2249 C 0.36227 0.13646 0.36576 0.0
H2250 H 0.38629 0.07695 0.3731 0.0
C2251 C 0.37304 0.10614 0.41584 0.0
C2252 C 0.39327 0.09489 0.41875 0.0
C2253 C 0.36706 0.11013 0.40356 0.0
C2254 C 0.37977 0.09369 0.3712 0.0
H2255 H 0.32416 0.15516 0.325 0.0
H2256 H 0.33015 0.14361 0.34645 0.0
H2257 H 0.37852 0.08751 0.3517 0.0
H2258 H 0.42278 0.07838 0.41103 0.0
H2259 H 0.41254 0.0857 0.38953 0.0
H2260 H 0.36392 0.1429 0.38518 0.0
C2261 C 0.343 0.1397 0.33965 0.0
C2262 C 0.37529 0.09972 0.35895 0.0
C2263 C 0.33955 0.14624 0.32737 0.0
C2264 C 0.40705 0.08705 0.40908 0.0
C2265 C 0.40113 0.09118 0.39676 0.0
C2266 C 0.36685 0.13048 0.378 0.0
C2267 C 0.3627 0.12796 0.34307 0.0
C2268 C 0.36661 0.12121 0.3561 0.0
C2269 C 0.38124 0.10311 0.39387 0.0
C2270 C 0.37574 0.10906 0.38087 0.0
H2271 H 0.38838 0.12554 0.31498 0.0
H2272 H 0.39438 0.11425 0.33637 0.0
H2273 H 0.35589 0.15325 0.36384 0.0
H2274 H 0.36191 0.11218 0.42308 0.0
H2275 H 0.35138 0.11891 0.40166 0.0
C2276 C 0.62892 0.60971 0.17819 0.0
C2277 C 0.64515 0.62521 0.18246 0.0
C2278 C 0.62762 0.60418 0.16566 0.0
C2279 C 0.64046 0.62804 0.1353 0.0
H2280 H 0.62485 0.56809 0.12355 0.0
C2281 C 0.62671 0.61034 0.08361 0.0
C2282 C 0.60752 0.59749 0.08055 0.0
C2283 C 0.63424 0.61161 0.09582 0.0
C2284 C 0.6291 0.58494 0.1267 0.0
H2285 H 0.67336 0.64636 0.17699 0.0
H2286 H 0.67114 0.6366 0.15507 0.0
H2287 H 0.63339 0.57394 0.14543 0.0
H2288 H 0.58158 0.57534 0.08788 0.0
H2289 H 0.59451 0.57787 0.10926 0.0
H2290 H 0.63563 0.63921 0.1167 0.0
C2291 C 0.65926 0.62894 0.16143 0.0
C2292 C 0.63402 0.58828 0.13922 0.0
C2293 C 0.6606 0.63444 0.17399 0.0
C2294 C 0.59642 0.58538 0.08993 0.0
C2295 C 0.60392 0.58673 0.10217 0.0
C2296 C 0.63552 0.62471 0.12281 0.0
C2297 C 0.6425 0.61404 0.15711 0.0
C2298 C 0.63945 0.60993 0.14367 0.0
C2299 C 0.6227 0.60015 0.10528 0.0
C2300 C 0.62949 0.60319 0.11839 0.0
H2301 H 0.61679 0.60223 0.18447 0.0
H2302 H 0.61436 0.59285 0.16263 0.0
H2303 H 0.64421 0.645 0.13847 0.0
H2304 H 0.6358 0.6197 0.07659 0.0
H2305 H 0.64899 0.62178 0.09787 0.0
C2306 C 0.15024 0.86498 0.83431 0.0
C2307 C 0.13172 0.8666 0.82623 0.0
C2308 C 0.14826 0.87197 0.84662 0.0
C2309 C 0.11368 0.90677 0.86775 0.0
H2310 H 0.13403 0.86452 0.89276 0.0
C2311 C 0.08278 0.90926 0.91838 0.0
C2312 C 0.09752 0.90182 0.92771 0.0
C2313 C 0.08932 0.90831 0.90596 0.0
C2314 C 0.12866 0.87678 0.88593 0.0
H2315 H 0.09677 0.87738 0.82463 0.0
H2316 H 0.09335 0.8895 0.84606 0.0
H2317 H 0.14137 0.8566 0.87107 0.0
H2318 H 0.13122 0.88915 0.93146 0.0
H2319 H 0.14286 0.88812 0.90989 0.0
H2320 H 0.10073 0.92685 0.88262 0.0
C2321 C 0.10943 0.88296 0.84288 0.0
C2322 C 0.13283 0.87218 0.87349 0.0
C2323 C 0.11135 0.87583 0.83062 0.0
C2324 C 0.11937 0.89471 0.92446 0.0
C2325 C 0.12599 0.89399 0.91208 0.0
C2326 C 0.10962 0.91147 0.88022 0.0
C2327 C 0.12778 0.8809 0.85104 0.0
C2328 C 0.12509 0.88693 0.86426 0.0
C2329 C 0.11082 0.90012 0.90266 0.0
C2330 C 0.11677 0.89635 0.88946 0.0
H2331 H 0.16618 0.85802 0.8312 0.0
H2332 H 0.16273 0.87034 0.85269 0.0
H2333 H 0.10775 0.91858 0.86082 0.0
H2334 H 0.06581 0.91479 0.9206 0.0
H2335 H 0.07713 0.91299 0.89895 0.0
loop_
_geom_bond_atom_site_label_1
_geom_bond_atom_site_label_2
_geom_bond_distance
_geom_bond_site_symmetry_2
_ccdc_geom_bond_type
C0 O1 1.160 . S
C0 O7 1.185 . S
O1 C0 1.160 . S
O2 Zn3 1.899 . S
O2 C10 1.284 . S
Zn3 O2 1.899 . S
Zn3 O4 2.032 . S
Zn3 O7 2.086 . S
Zn3 O12 1.977 . S
O4 Zn3 2.032 . S
O4 C8 1.278 . S
C5 O6 1.203 . S
C5 O12 1.267 . S
O6 C5 1.203 . S
O7 C0 1.185 . S
O7 Zn3 2.086 . S
C8 O4 1.278 . S
C8 O9 1.211 . S
O9 C8 1.211 . S
C10 O2 1.284 . S
C10 O11 1.273 . S
O11 C10 1.273 . S
O12 Zn3 1.977 . S
O12 C5 1.267 . S
C13 O14 1.160 . S
C13 O20 1.185 . S
O14 C13 1.160 . S
O15 Zn16 1.899 . S
O15 C23 1.284 . S
Zn16 O15 1.899 . S
Zn16 O17 2.032 . S
Zn16 O20 2.086 . S
Zn16 O25 1.977 . S
O17 Zn16 2.032 . S
O17 C21 1.278 . S
C18 O19 1.203 . S
C18 O25 1.267 . S
O19 C18 1.203 . S
O20 C13 1.185 . S
O20 Zn16 2.086 . S
C21 O17 1.278 . S
C21 O22 1.211 . S
O22 C21 1.211 . S
C23 O15 1.284 . S
C23 O24 1.273 . S
O24 C23 1.273 . S
O25 Zn16 1.977 . S
O25 C18 1.267 . S
C26 O27 1.160 . S
C26 O33 1.185 . S
O27 C26 1.160 . S
O28 Zn29 1.899 . S
O28 C36 1.284 . S
Zn29 O28 1.899 . S
Zn29 O30 2.032 . S
Zn29 O33 2.086 . S
Zn29 O38 1.977 . S
O30 Zn29 2.032 . S
O30 C34 1.278 . S
C31 O32 1.203 . S
C31 O38 1.267 . S
O32 C31 1.203 . S
O33 C26 1.185 . S
O33 Zn29 2.086 . S
C34 O30 1.278 . S
C34 O35 1.211 . S
O35 C34 1.211 . S
C36 O28 1.284 . S
C36 O37 1.273 . S
O37 C36 1.273 . S
O38 Zn29 1.977 . S
O38 C31 1.267 . S
C39 O40 1.160 . S
C39 O46 1.185 . S
O40 C39 1.160 . S
O41 Zn42 1.899 . S
O41 C49 1.284 . S
Zn42 O41 1.899 . S
Zn42 O43 2.032 . S
Zn42 O46 2.086 . S
Zn42 O51 1.977 . S
O43 Zn42 2.032 . S
O43 C47 1.278 . S
C44 O45 1.203 . S
C44 O51 1.267 . S
O45 C44 1.203 . S
O46 C39 1.185 . S
O46 Zn42 2.086 . S
C47 O43 1.278 . S
C47 O48 1.211 . S
O48 C47 1.211 . S
C49 O41 1.284 . S
C49 O50 1.273 . S
O50 C49 1.273 . S
O51 Zn42 1.977 . S
O51 C44 1.267 . S
C52 O53 1.160 . S
C52 O59 1.185 . S
O53 C52 1.160 . S
O54 Zn55 1.899 . S
O54 C62 1.284 . S
Zn55 O54 1.899 . S
Zn55 O56 2.032 . S
Zn55 O59 2.086 . S
Zn55 O64 1.977 . S
O56 Zn55 2.032 . S
O56 C60 1.278 . S
C57 O58 1.203 . S
C57 O64 1.267 . S
O58 C57 1.203 . S
O59 C52 1.185 . S
O59 Zn55 2.086 . S
C60 O56 1.278 . S
C60 O61 1.211 . S
O61 C60 1.211 . S
C62 O54 1.284 . S
C62 O63 1.273 . S
O63 C62 1.273 . S
O64 Zn55 1.977 . S
O64 C57 1.267 . S
C65 O66 1.160 . S
C65 O72 1.185 . S
O66 C65 1.160 . S
O67 Zn68 1.899 . S
O67 C75 1.284 . S
Zn68 O67 1.899 . S
Zn68 O69 2.032 . S
Zn68 O72 2.086 . S
Zn68 O77 1.977 . S
O69 Zn68 2.032 . S
O69 C73 1.278 . S
C70 O71 1.203 . S
C70 O77 1.267 . S
O71 C70 1.203 . S
O72 C65 1.185 . S
O72 Zn68 2.086 . S
C73 O69 1.278 . S
C73 O74 1.211 . S
O74 C73 1.211 . S
C75 O67 1.284 . S
C75 O76 1.273 . S
O76 C75 1.273 . S
O77 Zn68 1.977 . S
O77 C70 1.267 . S
C78 O79 1.160 . S
C78 O85 1.185 . S
O79 C78 1.160 . S
O80 Zn81 1.899 . S
O80 C88 1.284 . S
Zn81 O80 1.899 . S
Zn81 O82 2.032 . S
Zn81 O85 2.086 . S
Zn81 O90 1.977 . S
O82 Zn81 2.032 . S
O82 C86 1.278 . S
C83 O84 1.203 . S
C83 O90 1.267 . S
O84 C83 1.203 . S
O85 C78 1.185 . S
O85 Zn81 2.086 . S
C86 O82 1.278 . S
C86 O87 1.211 . S
O87 C86 1.211 . S
C88 O80 1.284 . S
C88 O89 1.273 . S
O89 C88 1.273 . S
O90 Zn81 1.977 . S
O90 C83 1.267 . S
C91 O92 1.160 . S
C91 O98 1.185 . S
O92 C91 1.160 . S
O93 Zn94 1.899 . S
O93 C101 1.284 . S
Zn94 O93 1.899 . S
Zn94 O95 2.032 . S
Zn94 O98 2.086 . S
Zn94 O103 1.977 . S
O95 Zn94 2.032 . S
O95 C99 1.278 . S
C96 O97 1.203 . S
C96 O103 1.267 . S
O97 C96 1.203 . S
O98 C91 1.185 . S
O98 Zn94 2.086 . S
C99 O95 1.278 . S
C99 O100 1.211 . S
O100 C99 1.211 . S
C101 O93 1.284 . S
C101 O102 1.273 . S
O102 C101 1.273 . S
O103 Zn94 1.977 . S
O103 C96 1.267 . S
C104 O105 1.160 . S
C104 O111 1.185 . S
O105 C104 1.160 . S
O106 Zn107 1.899 . S
O106 C114 1.284 . S
Zn107 O106 1.899 . S
Zn107 O108 2.032 . S
Zn107 O111 2.086 . S
Zn107 O116 1.977 . S
O108 Zn107 2.032 . S
O108 C112 1.278 . S
C109 O110 1.203 . S
C109 O116 1.267 . S
O110 C109 1.203 . S
O111 C104 1.185 . S
O111 Zn107 2.086 . S
C112 O108 1.278 . S
C112 O113 1.211 . S
O113 C112 1.211 . S
C114 O106 1.284 . S
C114 O115 1.273 . S
O115 C114 1.273 . S
O116 Zn107 1.977 . S
O116 C109 1.267 . S
C117 O118 1.160 . S
C117 O124 1.185 . S
O118 C117 1.160 . S
O119 Zn120 1.899 . S
O119 C127 1.284 . S
Zn120 O119 1.899 . S
Zn120 O121 2.032 . S
Zn120 O124 2.086 . S
Zn120 O129 1.977 . S
O121 Zn120 2.032 . S
O121 C125 1.278 . S
C122 O123 1.203 . S
C122 O129 1.267 . S
O123 C122 1.203 . S
O124 C117 1.185 . S
O124 Zn120 2.086 . S
C125 O121 1.278 . S
C125 O126 1.211 . S
O126 C125 1.211 . S
C127 O119 1.284 . S
C127 O128 1.273 . S
O128 C127 1.273 . S
O129 Zn120 1.977 . S
O129 C122 1.267 . S
C130 O131 1.160 . S
C130 O137 1.185 . S
O131 C130 1.160 . S
O132 Zn133 1.899 . S
O132 C140 1.284 . S
Zn133 O132 1.899 . S
Zn133 O134 2.032 . S
Zn133 O137 2.086 . S
Zn133 O142 1.977 . S
O134 Zn133 2.032 . S
O134 C138 1.278 . S
C135 O136 1.203 . S
C135 O142 1.267 . S
O136 C135 1.203 . S
O137 C130 1.185 . S
O137 Zn133 2.086 . S
C138 O134 1.278 . S
C138 O139 1.211 . S
O139 C138 1.211 . S
C140 O132 1.284 . S
C140 O141 1.273 . S
O141 C140 1.273 . S
O142 Zn133 1.977 . S
O142 C135 1.267 . S
C143 O144 1.160 . S
C143 O150 1.185 . S
O144 C143 1.160 . S
O145 Zn146 1.899 . S
O145 C153 1.284 . S
Zn146 O145 1.899 . S
Zn146 O147 2.032 . S
Zn146 O150 2.086 . S
Zn146 O155 1.977 . S
O147 Zn146 2.032 . S
O147 C151 1.278 . S
C148 O149 1.203 . S
C148 O155 1.267 . S
O149 C148 1.203 . S
O150 C143 1.185 . S
O150 Zn146 2.086 . S
C151 O147 1.278 . S
C151 O152 1.211 . S
O152 C151 1.211 . S
C153 O145 1.284 . S
C153 O154 1.273 . S
O154 C153 1.273 . S
O155 Zn146 1.977 . S
O155 C148 1.267 . S
C156 O157 1.160 . S
C156 O163 1.185 . S
O157 C156 1.160 . S
O158 Zn159 1.899 . S
O158 C166 1.284 . S
Zn159 O158 1.899 . S
Zn159 O160 2.032 . S
Zn159 O163 2.086 . S
Zn159 O168 1.977 . S
O160 Zn159 2.032 . S
O160 C164 1.278 . S
C161 O162 1.203 . S
C161 O168 1.267 . S
O162 C161 1.203 . S
O163 C156 1.185 . S
O163 Zn159 2.086 . S
C164 O160 1.278 . S
C164 O165 1.211 . S
O165 C164 1.211 . S
C166 O158 1.284 . S
C166 O167 1.273 . S
O167 C166 1.273 . S
O168 Zn159 1.977 . S
O168 C161 1.267 . S
C169 O170 1.160 . S
C169 O176 1.185 . S
O170 C169 1.160 . S
O171 Zn172 1.899 . S
O171 C179 1.284 . S
Zn172 O171 1.899 . S
Zn172 O173 2.032 . S
Zn172 O176 2.086 . S
Zn172 O181 1.977 . S
O173 Zn172 2.032 . S
O173 C177 1.278 . S
C174 O175 1.203 . S
C174 O181 1.267 . S
O175 C174 1.203 . S
O176 C169 1.185 . S
O176 Zn172 2.086 . S
C177 O173 1.278 . S
C177 O178 1.211 . S
O178 C177 1.211 . S
C179 O171 1.284 . S
C179 O180 1.273 . S
O180 C179 1.273 . S
O181 Zn172 1.977 . S
O181 C174 1.267 . S
C182 O183 1.160 . S
C182 O189 1.185 . S
O183 C182 1.160 . S
O184 Zn185 1.899 . S
O184 C192 1.284 . S
Zn185 O184 1.899 . S
Zn185 O186 2.032 . S
Zn185 O189 2.086 . S
Zn185 O194 1.977 . S
O186 Zn185 2.032 . S
O186 C190 1.278 . S
C187 O188 1.203 . S
C187 O194 1.267 . S
O188 C187 1.203 . S
O189 C182 1.185 . S
O189 Zn185 2.086 . S
C190 O186 1.278 . S
C190 O191 1.211 . S
O191 C190 1.211 . S
C192 O184 1.284 . S
C192 O193 1.273 . S
O193 C192 1.273 . S
O194 Zn185 1.977 . S
O194 C187 1.267 . S
C195 O196 1.160 . S
C195 O202 1.185 . S
O196 C195 1.160 . S
O197 Zn198 1.899 . S
O197 C205 1.284 . S
Zn198 O197 1.899 . S
Zn198 O199 2.032 . S
Zn198 O202 2.086 . S
Zn198 O207 1.977 . S
O199 Zn198 2.032 . S
O199 C203 1.278 . S
C200 O201 1.203 . S
C200 O207 1.267 . S
O201 C200 1.203 . S
O202 C195 1.185 . S
O202 Zn198 2.086 . S
C203 O199 1.278 . S
C203 O204 1.211 . S
O204 C203 1.211 . S
C205 O197 1.284 . S
C205 O206 1.273 . S
O206 C205 1.273 . S
O207 Zn198 1.977 . S
O207 C200 1.267 . S
C208 O209 1.160 . S
C208 O215 1.185 . S
O209 C208 1.160 . S
O210 Zn211 1.899 . S
O210 C218 1.284 . S
Zn211 O210 1.899 . S
Zn211 O212 2.032 . S
Zn211 O215 2.086 . S
Zn211 O220 1.977 . S
O212 Zn211 2.032 . S
O212 C216 1.278 . S
C213 O214 1.203 . S
C213 O220 1.267 . S
O214 C213 1.203 . S
O215 C208 1.185 . S
O215 Zn211 2.086 . S
C216 O212 1.278 . S
C216 O217 1.211 . S
O217 C216 1.211 . S
C218 O210 1.284 . S
C218 O219 1.273 . S
O219 C218 1.273 . S
O220 Zn211 1.977 . S
O220 C213 1.267 . S
C221 O222 1.160 . S
C221 O228 1.185 . S
O222 C221 1.160 . S
O223 Zn224 1.899 . S
O223 C231 1.284 . S
Zn224 O223 1.899 . S
Zn224 O225 2.032 . S
Zn224 O228 2.086 . S
Zn224 O233 1.977 . S
O225 Zn224 2.032 . S
O225 C229 1.278 . S
C226 O227 1.203 . S
C226 O233 1.267 . S
O227 C226 1.203 . S
O228 C221 1.185 . S
O228 Zn224 2.086 . S
C229 O225 1.278 . S
C229 O230 1.211 . S
O230 C229 1.211 . S
C231 O223 1.284 . S
C231 O232 1.273 . S
O232 C231 1.273 . S
O233 Zn224 1.977 . S
O233 C226 1.267 . S
C234 O235 1.160 . S
C234 O241 1.185 . S
O235 C234 1.160 . S
O236 Zn237 1.899 . S
O236 C244 1.284 . S
Zn237 O236 1.899 . S
Zn237 O238 2.032 . S
Zn237 O241 2.086 . S
Zn237 O246 1.977 . S
O238 Zn237 2.032 . S
O238 C242 1.278 . S
C239 O240 1.203 . S
C239 O246 1.267 . S
O240 C239 1.203 . S
O241 C234 1.185 . S
O241 Zn237 2.086 . S
C242 O238 1.278 . S
C242 O243 1.211 . S
O243 C242 1.211 . S
C244 O236 1.284 . S
C244 O245 1.273 . S
O245 C244 1.273 . S
O246 Zn237 1.977 . S
O246 C239 1.267 . S
C247 O248 1.160 . S
C247 O254 1.185 . S
O248 C247 1.160 . S
O249 Zn250 1.899 . S
O249 C257 1.284 . S
Zn250 O249 1.899 . S
Zn250 O251 2.032 . S
Zn250 O254 2.086 . S
Zn250 O259 1.977 . S
O251 Zn250 2.032 . S
O251 C255 1.278 . S
C252 O253 1.203 . S
C252 O259 1.267 . S
O253 C252 1.203 . S
O254 C247 1.185 . S
O254 Zn250 2.086 . S
C255 O251 1.278 . S
C255 O256 1.211 . S
O256 C255 1.211 . S
C257 O249 1.284 . S
C257 O258 1.273 . S
O258 C257 1.273 . S
O259 Zn250 1.977 . S
O259 C252 1.267 . S
C260 O261 1.160 . S
C260 O267 1.185 . S
O261 C260 1.160 . S
O262 Zn263 1.899 . S
O262 C270 1.284 . S
Zn263 O262 1.899 . S
Zn263 O264 2.032 . S
Zn263 O267 2.086 . S
Zn263 O272 1.977 . S
O264 Zn263 2.032 . S
O264 C268 1.278 . S
C265 O266 1.203 . S
C265 O272 1.267 . S
O266 C265 1.203 . S
O267 C260 1.185 . S
O267 Zn263 2.086 . S
C268 O264 1.278 . S
C268 O269 1.211 . S
O269 C268 1.211 . S
C270 O262 1.284 . S
C270 O271 1.273 . S
O271 C270 1.273 . S
O272 Zn263 1.977 . S
O272 C265 1.267 . S
C273 O274 1.160 . S
C273 O280 1.185 . S
O274 C273 1.160 . S
O275 Zn276 1.899 . S
O275 C283 1.284 . S
Zn276 O275 1.899 . S
Zn276 O277 2.032 . S
Zn276 O280 2.086 . S
Zn276 O285 1.977 . S
O277 Zn276 2.032 . S
O277 C281 1.278 . S
C278 O279 1.203 . S
C278 O285 1.267 . S
O279 C278 1.203 . S
O280 C273 1.185 . S
O280 Zn276 2.086 . S
C281 O277 1.278 . S
C281 O282 1.211 . S
O282 C281 1.211 . S
C283 O275 1.284 . S
C283 O284 1.273 . S
O284 C283 1.273 . S
O285 Zn276 1.977 . S
O285 C278 1.267 . S
C286 O287 1.160 . S
C286 O293 1.185 . S
O287 C286 1.160 . S
O288 Zn289 1.899 . S
O288 C296 1.284 . S
Zn289 O288 1.899 . S
Zn289 O290 2.032 . S
Zn289 O293 2.086 . S
Zn289 O298 1.977 . S
O290 Zn289 2.032 . S
O290 C294 1.278 . S
C291 O292 1.203 . S
C291 O298 1.267 . S
O292 C291 1.203 . S
O293 C286 1.185 . S
O293 Zn289 2.086 . S
C294 O290 1.278 . S
C294 O295 1.211 . S
O295 C294 1.211 . S
C296 O288 1.284 . S
C296 O297 1.273 . S
O297 C296 1.273 . S
O298 Zn289 1.977 . S
O298 C291 1.267 . S
C299 O300 1.160 . S
C299 O306 1.185 . S
O300 C299 1.160 . S
O301 Zn302 1.899 . S
O301 C309 1.284 . S
Zn302 O301 1.899 . S
Zn302 O303 2.032 . S
Zn302 O306 2.086 . S
Zn302 O311 1.977 . S
O303 Zn302 2.032 . S
O303 C307 1.278 . S
C304 O305 1.203 . S
C304 O311 1.267 . S
O305 C304 1.203 . S
O306 C299 1.185 . S
O306 Zn302 2.086 . S
C307 O303 1.278 . S
C307 O308 1.211 . S
O308 C307 1.211 . S
C309 O301 1.284 . S
C309 O310 1.273 . S
O310 C309 1.273 . S
O311 Zn302 1.977 . S
O311 C304 1.267 . S
C312 O313 1.160 . S
C312 O319 1.185 . S
O313 C312 1.160 . S
O314 Zn315 1.899 . S
O314 C322 1.284 . S
Zn315 O314 1.899 . S
Zn315 O316 2.032 . S
Zn315 O319 2.086 . S
Zn315 O324 1.977 . S
O316 Zn315 2.032 . S
O316 C320 1.278 . S
C317 O318 1.203 . S
C317 O324 1.267 . S
O318 C317 1.203 . S
O319 C312 1.185 . S
O319 Zn315 2.086 . S
C320 O316 1.278 . S
C320 O321 1.211 . S
O321 C320 1.211 . S
C322 O314 1.284 . S
C322 O323 1.273 . S
O323 C322 1.273 . S
O324 Zn315 1.977 . S
O324 C317 1.267 . S
C325 O326 1.160 . S
C325 O332 1.185 . S
O326 C325 1.160 . S
O327 Zn328 1.899 . S
O327 C335 1.284 . S
Zn328 O327 1.899 . S
Zn328 O329 2.032 . S
Zn328 O332 2.086 . S
Zn328 O337 1.977 . S
O329 Zn328 2.032 . S
O329 C333 1.278 . S
C330 O331 1.203 . S
C330 O337 1.267 . S
O331 C330 1.203 . S
O332 C325 1.185 . S
O332 Zn328 2.086 . S
C333 O329 1.278 . S
C333 O334 1.211 . S
O334 C333 1.211 . S
C335 O327 1.284 . S
C335 O336 1.273 . S
O336 C335 1.273 . S
O337 Zn328 1.977 . S
O337 C330 1.267 . S
C338 O339 1.160 . S
C338 O345 1.185 . S
O339 C338 1.160 . S
O340 Zn341 1.899 . S
O340 C348 1.284 . S
Zn341 O340 1.899 . S
Zn341 O342 2.032 . S
Zn341 O345 2.086 . S
Zn341 O350 1.977 . S
O342 Zn341 2.032 . S
O342 C346 1.278 . S
C343 O344 1.203 . S
C343 O350 1.267 . S
O344 C343 1.203 . S
O345 C338 1.185 . S
O345 Zn341 2.086 . S
C346 O342 1.278 . S
C346 O347 1.211 . S
O347 C346 1.211 . S
C348 O340 1.284 . S
C348 O349 1.273 . S
O349 C348 1.273 . S
O350 Zn341 1.977 . S
O350 C343 1.267 . S
C351 O352 1.160 . S
C351 O358 1.185 . S
O352 C351 1.160 . S
O353 Zn354 1.899 . S
O353 C361 1.284 . S
Zn354 O353 1.899 . S
Zn354 O355 2.032 . S
Zn354 O358 2.086 . S
Zn354 O363 1.977 . S
O355 Zn354 2.032 . S
O355 C359 1.278 . S
C356 O357 1.203 . S
C356 O363 1.267 . S
O357 C356 1.203 . S
O358 C351 1.185 . S
O358 Zn354 2.086 . S
C359 O355 1.278 . S
C359 O360 1.211 . S
O360 C359 1.211 . S
C361 O353 1.284 . S
C361 O362 1.273 . S
O362 C361 1.273 . S
O363 Zn354 1.977 . S
O363 C356 1.267 . S
C364 O365 1.160 . S
C364 O371 1.185 . S
O365 C364 1.160 . S
O366 Zn367 1.899 . S
O366 C374 1.284 . S
Zn367 O366 1.899 . S
Zn367 O368 2.032 . S
Zn367 O371 2.086 . S
Zn367 O376 1.977 . S
O368 Zn367 2.032 . S
O368 C372 1.278 . S
C369 O370 1.203 . S
C369 O376 1.267 . S
O370 C369 1.203 . S
O371 C364 1.185 . S
O371 Zn367 2.086 . S
C372 O368 1.278 . S
C372 O373 1.211 . S
O373 C372 1.211 . S
C374 O366 1.284 . S
C374 O375 1.273 . S
O375 C374 1.273 . S
O376 Zn367 1.977 . S
O376 C369 1.267 . S
C377 O378 1.160 . S
C377 O384 1.185 . S
O378 C377 1.160 . S
O379 Zn380 1.899 . S
O379 C387 1.284 . S
Zn380 O379 1.899 . S
Zn380 O381 2.032 . S
Zn380 O384 2.086 . S
Zn380 O389 1.977 . S
O381 Zn380 2.032 . S
O381 C385 1.278 . S
C382 O383 1.203 . S
C382 O389 1.267 . S
O383 C382 1.203 . S
O384 C377 1.185 . S
O384 Zn380 2.086 . S
C385 O381 1.278 . S
C385 O386 1.211 . S
O386 C385 1.211 . S
C387 O379 1.284 . S
C387 O388 1.273 . S
O388 C387 1.273 . S
O389 Zn380 1.977 . S
O389 C382 1.267 . S
C390 O391 1.160 . S
C390 O397 1.185 . S
O391 C390 1.160 . S
O392 Zn393 1.899 . S
O392 C400 1.284 . S
Zn393 O392 1.899 . S
Zn393 O394 2.032 . S
Zn393 O397 2.086 . S
Zn393 O402 1.977 . S
O394 Zn393 2.032 . S
O394 C398 1.278 . S
C395 O396 1.203 . S
C395 O402 1.267 . S
O396 C395 1.203 . S
O397 C390 1.185 . S
O397 Zn393 2.086 . S
C398 O394 1.278 . S
C398 O399 1.211 . S
O399 C398 1.211 . S
C400 O392 1.284 . S
C400 O401 1.273 . S
O401 C400 1.273 . S
O402 Zn393 1.977 . S
O402 C395 1.267 . S
C403 O404 1.160 . S
C403 O410 1.185 . S
O404 C403 1.160 . S
O405 Zn406 1.899 . S
O405 C413 1.284 . S
Zn406 O405 1.899 . S
Zn406 O407 2.032 . S
Zn406 O410 2.086 . S
Zn406 O415 1.977 . S
O407 Zn406 2.032 . S
O407 C411 1.278 . S
C408 O409 1.203 . S
C408 O415 1.267 . S
O409 C408 1.203 . S
O410 C403 1.185 . S
O410 Zn406 2.086 . S
C411 O407 1.278 . S
C411 O412 1.211 . S
O412 C411 1.211 . S
C413 O405 1.284 . S
C413 O414 1.273 . S
O414 C413 1.273 . S
O415 Zn406 1.977 . S
O415 C408 1.267 . S
C416 C417 1.349 . S
C416 C418 1.327 . S
C416 H441 0.950 . S
C417 C416 1.349 . S
C417 C433 1.349 . S
C418 C416 1.327 . S
C418 C437 1.429 . S
C418 H442 0.950 1_556 S
C419 C436 1.574 1_655 S
C419 C438 1.368 . S
C419 H443 0.949 . S
H420 C424 0.949 . S
C421 C422 1.349 . S
C421 C423 1.327 . S
C421 H444 0.950 . S
C422 C421 1.349 . S
C422 C434 1.349 . S
C423 C421 1.327 . S
C423 C439 1.429 . S
C423 H445 0.950 1_554 S
C424 H420 0.949 . S
C424 C432 1.574 1_455 S
C424 C440 1.368 . S
H425 C433 0.950 . S
H426 C431 0.950 . S
H427 C432 0.949 . S
H428 C434 0.950 . S
H429 C435 0.950 . S
H430 C436 0.949 . S
C431 H426 0.950 . S
C431 C433 1.327 . S
C431 C437 1.429 . S
C432 C424 1.574 1_655 S
C432 H427 0.949 . S
C432 C438 1.368 1_554 S
C433 C417 1.349 . S
C433 H425 0.950 . S
C433 C431 1.327 . S
C434 C422 1.349 . S
C434 H428 0.950 . S
C434 C435 1.327 . S
C435 H429 0.950 . S
C435 C434 1.327 . S
C435 C439 1.429 . S
C436 C419 1.574 1_455 S
C436 H430 0.949 . S
C436 C440 1.368 1_556 S
C437 C418 1.429 . S
C437 C431 1.429 . S
C437 C438 1.523 . S
C438 C419 1.368 . S
C438 C432 1.368 1_556 S
C438 C437 1.523 . S
C439 C423 1.429 . S
C439 C435 1.429 . S
C439 C440 1.523 . S
C440 C424 1.368 . S
C440 C436 1.368 1_554 S
C440 C439 1.523 . S
H441 C416 0.950 . S
H442 C418 0.950 1_554 S
H443 C419 0.949 . S
H444 C421 0.950 . S
H445 C423 0.950 1_556 S
C446 C447 1.349 . S
C446 C448 1.327 . S
C446 H471 0.950 . S
C447 C446 1.349 . S
C447 C463 1.349 . S
C448 C446 1.327 . S
C448 C467 1.429 . S
C448 H472 0.950 . S
C449 C466 1.574 . S
C449 C468 1.368 . S
C449 H473 0.949 . S
H450 C454 0.949 . S
C451 C452 1.349 . S
C451 C453 1.327 . S
C451 H474 0.950 . S
C452 C451 1.349 . S
C452 C464 1.349 . S
C453 C451 1.327 . S
C453 C469 1.429 . S
C453 H475 0.950 . S
C454 H450 0.949 . S
C454 C462 1.574 . S
C454 C470 1.368 . S
H455 C463 0.950 . S
H456 C461 0.950 . S
H457 C462 0.949 . S
H458 C464 0.950 . S
H459 C465 0.950 . S
H460 C466 0.949 . S
C461 H456 0.950 . S
C461 C463 1.327 . S
C461 C467 1.429 . S
C462 C454 1.574 . S
C462 H457 0.949 . S
C462 C468 1.368 . S
C463 C447 1.349 . S
C463 H455 0.950 . S
C463 C461 1.327 . S
C464 C452 1.349 . S
C464 H458 0.950 . S
C464 C465 1.327 . S
C465 H459 0.950 . S
C465 C464 1.327 . S
C465 C469 1.429 . S
C466 C449 1.574 . S
C466 H460 0.949 . S
C466 C470 1.368 . S
C467 C448 1.429 . S
C467 C461 1.429 . S
C467 C468 1.523 . S
C468 C449 1.368 . S
C468 C462 1.368 . S
C468 C467 1.523 . S
C469 C453 1.429 . S
C469 C465 1.429 . S
C469 C470 1.523 . S
C470 C454 1.368 . S
C470 C466 1.368 . S
C470 C469 1.523 . S
H471 C446 0.950 . S
H472 C448 0.950 . S
H473 C449 0.949 . S
H474 C451 0.950 . S
H475 C453 0.950 . S
C476 C477 1.349 . S
C476 C478 1.327 . S
C476 H501 0.950 . S
C477 C476 1.349 . S
C477 C493 1.349 . S
C478 C476 1.327 . S
C478 C497 1.429 . S
C478 H502 0.950 . S
C479 C496 1.574 . S
C479 C498 1.368 . S
C479 H503 0.949 . S
H480 C484 0.949 . S
C481 C482 1.349 . S
C481 C483 1.327 . S
C481 H504 0.950 . S
C482 C481 1.349 . S
C482 C494 1.349 . S
C483 C481 1.327 . S
C483 C499 1.429 . S
C483 H505 0.950 . S
C484 H480 0.949 . S
C484 C492 1.574 . S
C484 C500 1.368 . S
H485 C493 0.950 . S
H486 C491 0.950 . S
H487 C492 0.949 . S
H488 C494 0.950 . S
H489 C495 0.950 . S
H490 C496 0.949 . S
C491 H486 0.950 . S
C491 C493 1.327 . S
C491 C497 1.429 . S
C492 C484 1.574 . S
C492 H487 0.949 . S
C492 C498 1.368 . S
C493 C477 1.349 . S
C493 H485 0.950 . S
C493 C491 1.327 . S
C494 C482 1.349 . S
C494 H488 0.950 . S
C494 C495 1.327 . S
C495 H489 0.950 . S
C495 C494 1.327 . S
C495 C499 1.429 . S
C496 C479 1.574 . S
C496 H490 0.949 . S
C496 C500 1.368 . S
C497 C478 1.429 . S
C497 C491 1.429 . S
C497 C498 1.523 . S
C498 C479 1.368 . S
C498 C492 1.368 . S
C498 C497 1.523 . S
C499 C483 1.429 . S
C499 C495 1.429 . S
C499 C500 1.523 . S
C500 C484 1.368 . S
C500 C496 1.368 . S
C500 C499 1.523 . S
H501 C476 0.950 . S
H502 C478 0.950 . S
H503 C479 0.949 . S
H504 C481 0.950 . S
H505 C483 0.950 . S
C506 C507 1.349 . S
C506 C508 1.327 . S
C506 H531 0.950 . S
C507 C506 1.349 . S
C507 C523 1.349 . S
C508 C506 1.327 . S
C508 C527 1.429 . S
C508 H532 0.950 . S
C509 C526 1.574 . S
C509 C528 1.368 . S
C509 H533 0.949 . S
H510 C514 0.949 . S
C511 C512 1.349 . S
C511 C513 1.327 . S
C511 H534 0.950 . S
C512 C511 1.349 . S
C512 C524 1.349 . S
C513 C511 1.327 . S
C513 C529 1.429 . S
C513 H535 0.950 . S
C514 H510 0.949 . S
C514 C522 1.574 . S
C514 C530 1.368 . S
H515 C523 0.950 . S
H516 C521 0.950 . S
H517 C522 0.949 . S
H518 C524 0.950 . S
H519 C525 0.950 . S
H520 C526 0.949 . S
C521 H516 0.950 . S
C521 C523 1.327 . S
C521 C527 1.429 . S
C522 C514 1.574 . S
C522 H517 0.949 . S
C522 C528 1.368 . S
C523 C507 1.349 . S
C523 H515 0.950 . S
C523 C521 1.327 . S
C524 C512 1.349 . S
C524 H518 0.950 . S
C524 C525 1.327 . S
C525 H519 0.950 . S
C525 C524 1.327 . S
C525 C529 1.429 . S
C526 C509 1.574 . S
C526 H520 0.949 . S
C526 C530 1.368 . S
C527 C508 1.429 . S
C527 C521 1.429 . S
C527 C528 1.523 . S
C528 C509 1.368 . S
C528 C522 1.368 . S
C528 C527 1.523 . S
C529 C513 1.429 . S
C529 C525 1.429 . S
C529 C530 1.523 . S
C530 C514 1.368 . S
C530 C526 1.368 . S
C530 C529 1.523 . S
H531 C506 0.950 . S
H532 C508 0.950 . S
H533 C509 0.949 . S
H534 C511 0.950 . S
H535 C513 0.950 . S
C536 C537 1.349 . S
C536 C538 1.327 . S
C536 H561 0.950 . S
C537 C536 1.349 . S
C537 C553 1.349 . S
C538 C536 1.327 . S
C538 C557 1.429 . S
C538 H562 0.950 . S
C539 C556 1.574 . S
C539 C558 1.368 1_455 S
C539 H563 0.949 . S
H540 C544 0.949 . S
C541 C542 1.349 . S
C541 C543 1.327 . S
C541 H564 0.950 . S
C542 C541 1.349 . S
C542 C554 1.349 . S
C543 C541 1.327 . S
C543 C559 1.429 . S
C543 H565 0.950 . S
C544 H540 0.949 . S
C544 C552 1.574 . S
C544 C560 1.368 1_655 S
H545 C553 0.950 . S
H546 C551 0.950 . S
H547 C552 0.949 . S
H548 C554 0.950 . S
H549 C555 0.950 . S
H550 C556 0.949 . S
C551 H546 0.950 . S
C551 C553 1.327 . S
C551 C557 1.429 . S
C552 C544 1.574 . S
C552 H547 0.949 . S
C552 C558 1.368 . S
C553 C537 1.349 . S
C553 H545 0.950 . S
C553 C551 1.327 . S
C554 C542 1.349 . S
C554 H548 0.950 . S
C554 C555 1.327 . S
C555 H549 0.950 . S
C555 C554 1.327 . S
C555 C559 1.429 . S
C556 C539 1.574 . S
C556 H550 0.949 . S
C556 C560 1.368 . S
C557 C538 1.429 . S
C557 C551 1.429 . S
C557 C558 1.523 . S
C558 C539 1.368 1_655 S
C558 C552 1.368 . S
C558 C557 1.523 . S
C559 C543 1.429 . S
C559 C555 1.429 . S
C559 C560 1.523 . S
C560 C544 1.368 1_455 S
C560 C556 1.368 . S
C560 C559 1.523 . S
H561 C536 0.950 . S
H562 C538 0.950 . S
H563 C539 0.949 . S
H564 C541 0.950 . S
H565 C543 0.950 . S
C566 C567 1.349 . S
C566 C568 1.327 . S
C566 H591 0.950 . S
C567 C566 1.349 . S
C567 C583 1.349 . S
C568 C566 1.327 . S
C568 C587 1.429 . S
C568 H592 0.950 . S
C569 C586 1.574 . S
C569 C588 1.368 . S
C569 H593 0.949 . S
H570 C574 0.949 . S
C571 C572 1.349 . S
C571 C573 1.327 . S
C571 H594 0.950 . S
C572 C571 1.349 . S
C572 C584 1.349 . S
C573 C571 1.327 . S
C573 C589 1.429 . S
C573 H595 0.950 . S
C574 H570 0.949 . S
C574 C582 1.574 . S
C574 C590 1.368 . S
H575 C583 0.950 . S
H576 C581 0.950 . S
H577 C582 0.949 . S
H578 C584 0.950 . S
H579 C585 0.950 . S
H580 C586 0.949 . S
C581 H576 0.950 . S
C581 C583 1.327 . S
C581 C587 1.429 . S
C582 C574 1.574 . S
C582 H577 0.949 . S
C582 C588 1.368 . S
C583 C567 1.349 . S
C583 H575 0.950 . S
C583 C581 1.327 . S
C584 C572 1.349 . S
C584 H578 0.950 . S
C584 C585 1.327 . S
C585 H579 0.950 . S
C585 C584 1.327 . S
C585 C589 1.429 . S
C586 C569 1.574 . S
C586 H580 0.949 . S
C586 C590 1.368 . S
C587 C568 1.429 . S
C587 C581 1.429 . S
C587 C588 1.523 . S
C588 C569 1.368 . S
C588 C582 1.368 . S
C588 C587 1.523 . S
C589 C573 1.429 . S
C589 C585 1.429 . S
C589 C590 1.523 . S
C590 C574 1.368 . S
C590 C586 1.368 . S
C590 C589 1.523 . S
H591 C566 0.950 . S
H592 C568 0.950 . S
H593 C569 0.949 . S
H594 C571 0.950 . S
H595 C573 0.950 . S
C596 C597 1.349 . S
C596 C598 1.327 . S
C596 H621 0.950 . S
C597 C596 1.349 . S
C597 C613 1.349 . S
C598 C596 1.327 . S
C598 C617 1.429 . S
C598 H622 0.950 . S
C599 C616 1.574 . S
C599 C618 1.368 . S
C599 H623 0.949 . S
H600 C604 0.949 . S
C601 C602 1.349 . S
C601 C603 1.327 . S
C601 H624 0.950 . S
C602 C601 1.349 . S
C602 C614 1.349 . S
C603 C601 1.327 . S
C603 C619 1.429 . S
C603 H625 0.950 . S
C604 H600 0.949 . S
C604 C612 1.574 . S
C604 C620 1.368 . S
H605 C613 0.950 . S
H606 C611 0.950 . S
H607 C612 0.949 . S
H608 C614 0.950 . S
H609 C615 0.950 . S
H610 C616 0.949 . S
C611 H606 0.950 . S
C611 C613 1.327 . S
C611 C617 1.429 . S
C612 C604 1.574 . S
C612 H607 0.949 . S
C612 C618 1.368 1_554 S
C613 C597 1.349 . S
C613 H605 0.950 . S
C613 C611 1.327 . S
C614 C602 1.349 . S
C614 H608 0.950 . S
C614 C615 1.327 . S
C615 H609 0.950 . S
C615 C614 1.327 . S
C615 C619 1.429 . S
C616 C599 1.574 . S
C616 H610 0.949 . S
C616 C620 1.368 1_556 S
C617 C598 1.429 . S
C617 C611 1.429 . S
C617 C618 1.523 . S
C618 C599 1.368 . S
C618 C612 1.368 1_556 S
C618 C617 1.523 . S
C619 C603 1.429 . S
C619 C615 1.429 . S
C619 C620 1.523 . S
C620 C604 1.368 . S
C620 C616 1.368 1_554 S
C620 C619 1.523 . S
H621 C596 0.950 . S
H622 C598 0.950 . S
H623 C599 0.949 . S
H624 C601 0.950 . S
H625 C603 0.950 . S
C626 C627 1.349 . S
C626 C628 1.327 . S
C626 H651 0.950 . S
C627 C626 1.349 . S
C627 C643 1.349 . S
C628 C626 1.327 . S
C628 C647 1.429 . S
C628 H652 0.950 . S
C629 C646 1.574 . S
C629 C648 1.368 . S
C629 H653 0.949 . S
H630 C634 0.949 . S
C631 C632 1.349 . S
C631 C633 1.327 . S
C631 H654 0.950 . S
C632 C631 1.349 . S
C632 C644 1.349 . S
C633 C631 1.327 . S
C633 C649 1.429 . S
C633 H655 0.950 . S
C634 H630 0.949 . S
C634 C642 1.574 . S
C634 C650 1.368 . S
H635 C643 0.950 . S
H636 C641 0.950 . S
H637 C642 0.949 . S
H638 C644 0.950 . S
H639 C645 0.950 . S
H640 C646 0.949 . S
C641 H636 0.950 . S
C641 C643 1.327 . S
C641 C647 1.429 . S
C642 C634 1.574 . S
C642 H637 0.949 . S
C642 C648 1.368 . S
C643 C627 1.349 . S
C643 H635 0.950 . S
C643 C641 1.327 . S
C644 C632 1.349 . S
C644 H638 0.950 . S
C644 C645 1.327 . S
C645 H639 0.950 . S
C645 C644 1.327 . S
C645 C649 1.429 . S
C646 C629 1.574 . S
C646 H640 0.949 . S
C646 C650 1.368 . S
C647 C628 1.429 . S
C647 C641 1.429 . S
C647 C648 1.523 . S
C648 C629 1.368 . S
C648 C642 1.368 . S
C648 C647 1.523 . S
C649 C633 1.429 . S
C649 C645 1.429 . S
C649 C650 1.523 . S
C650 C634 1.368 . S
C650 C646 1.368 . S
C650 C649 1.523 . S
H651 C626 0.950 . S
H652 C628 0.950 . S
H653 C629 0.949 . S
H654 C631 0.950 . S
H655 C633 0.950 . S
C656 C657 1.349 . S
C656 C658 1.327 . S
C656 H681 0.950 . S
C657 C656 1.349 . S
C657 C673 1.349 . S
C658 C656 1.327 . S
C658 C677 1.429 . S
C658 H682 0.950 . S
C659 C676 1.574 . S
C659 C678 1.368 . S
C659 H683 0.949 . S
H660 C664 0.949 . S
C661 C662 1.349 . S
C661 C663 1.327 . S
C661 H684 0.950 . S
C662 C661 1.349 . S
C662 C674 1.349 . S
C663 C661 1.327 . S
C663 C679 1.429 . S
C663 H685 0.950 . S
C664 H660 0.949 . S
C664 C672 1.574 . S
C664 C680 1.368 . S
H665 C673 0.950 . S
H666 C671 0.950 . S
H667 C672 0.949 . S
H668 C674 0.950 . S
H669 C675 0.950 . S
H670 C676 0.949 . S
C671 H666 0.950 . S
C671 C673 1.327 . S
C671 C677 1.429 . S
C672 C664 1.574 . S
C672 H667 0.949 . S
C672 C678 1.368 . S
C673 C657 1.349 . S
C673 H665 0.950 . S
C673 C671 1.327 . S
C674 C662 1.349 . S
C674 H668 0.950 . S
C674 C675 1.327 . S
C675 H669 0.950 . S
C675 C674 1.327 . S
C675 C679 1.429 . S
C676 C659 1.574 . S
C676 H670 0.949 . S
C676 C680 1.368 . S
C677 C658 1.429 . S
C677 C671 1.429 . S
C677 C678 1.523 . S
C678 C659 1.368 . S
C678 C672 1.368 . S
C678 C677 1.523 . S
C679 C663 1.429 . S
C679 C675 1.429 . S
C679 C680 1.523 . S
C680 C664 1.368 . S
C680 C676 1.368 . S
C680 C679 1.523 . S
H681 C656 0.950 . S
H682 C658 0.950 . S
H683 C659 0.949 . S
H684 C661 0.950 . S
H685 C663 0.950 . S
C686 C687 1.349 . S
C686 C688 1.327 . S
C686 H711 0.950 . S
C687 C686 1.349 . S
C687 C703 1.349 . S
C688 C686 1.327 . S
C688 C707 1.429 . S
C688 H712 0.950 . S
C689 C706 1.574 . S
C689 C708 1.368 . S
C689 H713 0.949 . S
H690 C694 0.949 . S
C691 C692 1.349 . S
C691 C693 1.327 . S
C691 H714 0.950 . S
C692 C691 1.349 . S
C692 C704 1.349 . S
C693 C691 1.327 . S
C693 C709 1.429 . S
C693 H715 0.950 . S
C694 H690 0.949 . S
C694 C702 1.574 . S
C694 C710 1.368 . S
H695 C703 0.950 . S
H696 C701 0.950 . S
H697 C702 0.949 . S
H698 C704 0.950 . S
H699 C705 0.950 . S
H700 C706 0.949 . S
C701 H696 0.950 . S
C701 C703 1.327 . S
C701 C707 1.429 . S
C702 C694 1.574 . S
C702 H697 0.949 . S
C702 C708 1.368 . S
C703 C687 1.349 . S
C703 H695 0.950 . S
C703 C701 1.327 . S
C704 C692 1.349 . S
C704 H698 0.950 . S
C704 C705 1.327 . S
C705 H699 0.950 . S
C705 C704 1.327 . S
C705 C709 1.429 . S
C706 C689 1.574 . S
C706 H700 0.949 . S
C706 C710 1.368 . S
C707 C688 1.429 . S
C707 C701 1.429 . S
C707 C708 1.523 . S
C708 C689 1.368 . S
C708 C702 1.368 . S
C708 C707 1.523 . S
C709 C693 1.429 . S
C709 C705 1.429 . S
C709 C710 1.523 . S
C710 C694 1.368 . S
C710 C706 1.368 . S
C710 C709 1.523 . S
H711 C686 0.950 . S
H712 C688 0.950 . S
H713 C689 0.949 . S
H714 C691 0.950 . S
H715 C693 0.950 . S
C716 C717 1.349 . S
C716 C718 1.327 . S
C716 H741 0.950 . S
C717 C716 1.349 . S
C717 C733 1.349 . S
C718 C716 1.327 . S
C718 C737 1.429 . S
C718 H742 0.950 . S
C719 C736 1.574 . S
C719 C738 1.368 . S
C719 H743 0.949 . S
H720 C724 0.949 . S
C721 C722 1.349 . S
C721 C723 1.327 . S
C721 H744 0.950 . S
C722 C721 1.349 . S
C722 C734 1.349 . S
C723 C721 1.327 . S
C723 C739 1.429 . S
C723 H745 0.950 . S
C724 H720 0.949 . S
C724 C732 1.574 . S
C724 C740 1.368 . S
H725 C733 0.950 . S
H726 C731 0.950 . S
H727 C732 0.949 . S
H728 C734 0.950 . S
H729 C735 0.950 . S
H730 C736 0.949 . S
C731 H726 0.950 . S
C731 C733 1.327 . S
C731 C737 1.429 . S
C732 C724 1.574 . S
C732 H727 0.949 . S
C732 C738 1.368 . S
C733 C717 1.349 . S
C733 H725 0.950 . S
C733 C731 1.327 . S
C734 C722 1.349 . S
C734 H728 0.950 . S
C734 C735 1.327 . S
C735 H729 0.950 . S
C735 C734 1.327 . S
C735 C739 1.429 . S
C736 C719 1.574 . S
C736 H730 0.949 . S
C736 C740 1.368 . S
C737 C718 1.429 . S
C737 C731 1.429 . S
C737 C738 1.523 . S
C738 C719 1.368 . S
C738 C732 1.368 . S
C738 C737 1.523 . S
C739 C723 1.429 . S
C739 C735 1.429 . S
C739 C740 1.523 . S
C740 C724 1.368 . S
C740 C736 1.368 . S
C740 C739 1.523 . S
H741 C716 0.950 . S
H742 C718 0.950 . S
H743 C719 0.949 . S
H744 C721 0.950 . S
H745 C723 0.950 . S
C746 C747 1.349 . S
C746 C748 1.327 . S
C746 H771 0.950 . S
C747 C746 1.349 . S
C747 C763 1.349 . S
C748 C746 1.327 . S
C748 C767 1.429 . S
C748 H772 0.950 . S
C749 C766 1.574 . S
C749 C768 1.368 . S
C749 H773 0.949 . S
H750 C754 0.949 . S
C751 C752 1.349 . S
C751 C753 1.327 . S
C751 H774 0.950 . S
C752 C751 1.349 . S
C752 C764 1.349 . S
C753 C751 1.327 . S
C753 C769 1.429 . S
C753 H775 0.950 . S
C754 H750 0.949 . S
C754 C762 1.574 . S
C754 C770 1.368 . S
H755 C763 0.950 . S
H756 C761 0.950 . S
H757 C762 0.949 . S
H758 C764 0.950 . S
H759 C765 0.950 . S
H760 C766 0.949 . S
C761 H756 0.950 . S
C761 C763 1.327 . S
C761 C767 1.429 . S
C762 C754 1.574 . S
C762 H757 0.949 . S
C762 C768 1.368 . S
C763 C747 1.349 . S
C763 H755 0.950 . S
C763 C761 1.327 . S
C764 C752 1.349 . S
C764 H758 0.950 . S
C764 C765 1.327 . S
C765 H759 0.950 . S
C765 C764 1.327 . S
C765 C769 1.429 . S
C766 C749 1.574 . S
C766 H760 0.949 . S
C766 C770 1.368 . S
C767 C748 1.429 . S
C767 C761 1.429 . S
C767 C768 1.523 . S
C768 C749 1.368 . S
C768 C762 1.368 . S
C768 C767 1.523 . S
C769 C753 1.429 . S
C769 C765 1.429 . S
C769 C770 1.523 . S
C770 C754 1.368 . S
C770 C766 1.368 . S
C770 C769 1.523 . S
H771 C746 0.950 . S
H772 C748 0.950 . S
H773 C749 0.949 . S
H774 C751 0.950 . S
H775 C753 0.950 . S
C776 C777 1.349 . S
C776 C778 1.327 . S
C776 H801 0.950 . S
C777 C776 1.349 . S
C777 C793 1.349 . S
C778 C776 1.327 . S
C778 C797 1.429 . S
C778 H802 0.950 . S
C779 C796 1.576 . S
C779 C798 1.368 . S
C779 H803 0.949 . S
H780 C784 0.949 . S
C781 C782 1.349 . S
C781 C783 1.327 . S
C781 H804 0.950 . S
C782 C781 1.349 . S
C782 C794 1.349 . S
C783 C781 1.327 . S
C783 C799 1.429 . S
C783 H805 0.950 . S
C784 H780 0.949 . S
C784 C792 1.576 . S
C784 C800 1.368 . S
H785 C793 0.950 . S
H786 C791 0.950 . S
H787 C792 0.949 1_565 S
H788 C794 0.950 . S
H789 C795 0.950 . S
H790 C796 0.949 1_545 S
C791 H786 0.950 . S
C791 C793 1.327 . S
C791 C797 1.429 . S
C792 C784 1.576 . S
C792 H787 0.949 1_545 S
C792 C798 1.366 1_545 S
C793 C777 1.349 . S
C793 H785 0.950 . S
C793 C791 1.327 . S
C794 C782 1.349 . S
C794 H788 0.950 . S
C794 C795 1.327 . S
C795 H789 0.950 . S
C795 C794 1.327 . S
C795 C799 1.429 . S
C796 C779 1.576 . S
C796 H790 0.949 1_565 S
C796 C800 1.366 1_565 S
C797 C778 1.429 . S
C797 C791 1.429 . S
C797 C798 1.523 . S
C798 C779 1.368 . S
C798 C792 1.366 1_565 S
C798 C797 1.523 . S
C799 C783 1.429 . S
C799 C795 1.429 . S
C799 C800 1.523 . S
C800 C784 1.368 . S
C800 C796 1.366 1_545 S
C800 C799 1.523 . S
H801 C776 0.950 . S
H802 C778 0.950 . S
H803 C779 0.949 . S
H804 C781 0.950 . S
H805 C783 0.950 . S
C806 C807 1.349 . S
C806 C808 1.327 . S
C806 H831 0.950 . S
C807 C806 1.349 . S
C807 C823 1.349 . S
C808 C806 1.327 . S
C808 C827 1.429 . S
C808 H832 0.950 1_556 S
C809 C826 1.585 1_565 S
C809 C828 1.357 1_655 S
C809 H833 0.949 . S
H810 C814 0.949 . S
C811 C812 1.349 . S
C811 C813 1.327 . S
C811 H834 0.950 . S
C812 C811 1.349 . S
C812 C824 1.349 . S
C813 C811 1.327 . S
C813 C829 1.429 . S
C813 H835 0.950 1_554 S
C814 H810 0.949 . S
C814 C822 1.585 1_545 S
C814 C830 1.357 1_455 S
H815 C823 0.950 . S
H816 C821 0.950 . S
H817 C822 0.949 . S
H818 C824 0.950 . S
H819 C825 0.950 . S
H820 C826 0.949 . S
C821 H816 0.950 . S
C821 C823 1.327 . S
C821 C827 1.429 . S
C822 C814 1.585 1_565 S
C822 H817 0.949 . S
C822 C828 1.368 1_554 S
C823 C807 1.349 . S
C823 H815 0.950 . S
C823 C821 1.327 . S
C824 C812 1.349 . S
C824 H818 0.950 . S
C824 C825 1.327 . S
C825 H819 0.950 . S
C825 C824 1.327 . S
C825 C829 1.429 . S
C826 C809 1.585 1_545 S
C826 H820 0.949 . S
C826 C830 1.368 1_556 S
C827 C808 1.429 . S
C827 C821 1.429 . S
C827 C828 1.523 . S
C828 C809 1.357 1_455 S
C828 C822 1.368 1_556 S
C828 C827 1.523 . S
C829 C813 1.429 . S
C829 C825 1.429 . S
C829 C830 1.523 . S
C830 C814 1.357 1_655 S
C830 C826 1.368 1_554 S
C830 C829 1.523 . S
H831 C806 0.950 . S
H832 C808 0.950 1_554 S
H833 C809 0.949 . S
H834 C811 0.950 . S
H835 C813 0.950 1_556 S
C836 C837 1.349 . S
C836 C838 1.327 . S
C836 H861 0.950 . S
C837 C836 1.349 . S
C837 C853 1.349 . S
C838 C836 1.327 . S
C838 C857 1.429 . S
C838 H862 0.950 . S
C839 C856 1.574 . S
C839 C858 1.368 1_554 S
C839 H863 0.949 . S
H840 C844 0.949 . S
C841 C842 1.349 . S
C841 C843 1.327 . S
C841 H864 0.950 . S
C842 C841 1.349 . S
C842 C854 1.349 . S
C843 C841 1.327 . S
C843 C859 1.429 . S
C843 H865 0.950 . S
C844 H840 0.949 . S
C844 C852 1.574 . S
C844 C860 1.368 1_556 S
H845 C853 0.950 . S
H846 C851 0.950 . S
H847 C852 0.949 . S
H848 C854 0.950 . S
H849 C855 0.950 . S
H850 C856 0.949 . S
C851 H846 0.950 . S
C851 C853 1.327 . S
C851 C857 1.429 . S
C852 C844 1.574 . S
C852 H847 0.949 . S
C852 C858 1.368 1_565 S
C853 C837 1.349 . S
C853 H845 0.950 . S
C853 C851 1.327 . S
C854 C842 1.349 . S
C854 H848 0.950 . S
C854 C855 1.327 . S
C855 H849 0.950 . S
C855 C854 1.327 . S
C855 C859 1.429 . S
C856 C839 1.574 . S
C856 H850 0.949 . S
C856 C860 1.368 1_545 S
C857 C838 1.429 . S
C857 C851 1.429 . S
C857 C858 1.523 . S
C858 C839 1.368 1_556 S
C858 C852 1.368 1_545 S
C858 C857 1.523 . S
C859 C843 1.429 . S
C859 C855 1.429 . S
C859 C860 1.523 . S
C860 C844 1.368 1_554 S
C860 C856 1.368 1_565 S
C860 C859 1.523 . S
H861 C836 0.950 . S
H862 C838 0.950 . S
H863 C839 0.949 . S
H864 C841 0.950 . S
H865 C843 0.950 . S
C866 C867 1.349 . S
C866 C868 1.327 . S
C866 H891 0.950 . S
C867 C866 1.349 . S
C867 C883 1.349 . S
C868 C866 1.327 . S
C868 C887 1.429 . S
C868 H892 0.950 . S
C869 C886 1.574 1_545 S
C869 C888 1.368 . S
C869 H893 0.949 . S
H870 C874 0.949 . S
C871 C872 1.349 . S
C871 C873 1.327 . S
C871 H894 0.950 . S
C872 C871 1.349 . S
C872 C884 1.349 . S
C873 C871 1.327 . S
C873 C889 1.429 . S
C873 H895 0.950 . S
C874 H870 0.949 . S
C874 C882 1.574 1_565 S
C874 C890 1.368 . S
H875 C883 0.950 . S
H876 C881 0.950 . S
H877 C882 0.949 . S
H878 C884 0.950 . S
H879 C885 0.950 . S
H880 C886 0.949 . S
C881 H876 0.950 . S
C881 C883 1.327 . S
C881 C887 1.429 . S
C882 C874 1.574 1_545 S
C882 H877 0.949 . S
C882 C888 1.368 1_655 S
C883 C867 1.349 . S
C883 H875 0.950 . S
C883 C881 1.327 . S
C884 C872 1.349 . S
C884 H878 0.950 . S
C884 C885 1.327 . S
C885 H879 0.950 . S
C885 C884 1.327 . S
C885 C889 1.429 . S
C886 C869 1.574 1_565 S
C886 H880 0.949 . S
C886 C890 1.368 1_455 S
C887 C868 1.429 . S
C887 C881 1.429 . S
C887 C888 1.523 . S
C888 C869 1.368 . S
C888 C882 1.368 1_455 S
C888 C887 1.523 . S
C889 C873 1.429 . S
C889 C885 1.429 . S
C889 C890 1.523 . S
C890 C874 1.368 . S
C890 C886 1.368 1_655 S
C890 C889 1.523 . S
H891 C866 0.950 . S
H892 C868 0.950 . S
H893 C869 0.949 . S
H894 C871 0.950 . S
H895 C873 0.950 . S
C896 C897 1.349 . S
C896 C898 1.327 . S
C896 H921 0.950 . S
C897 C896 1.349 . S
C897 C913 1.349 . S
C898 C896 1.327 . S
C898 C917 1.429 . S
C898 H922 0.950 . S
C899 C916 1.574 . S
C899 C918 1.368 1_455 S
C899 H923 0.949 . S
H900 C904 0.949 . S
C901 C902 1.349 . S
C901 C903 1.327 . S
C901 H924 0.950 . S
C902 C901 1.349 . S
C902 C914 1.349 . S
C903 C901 1.327 . S
C903 C919 1.429 . S
C903 H925 0.950 . S
C904 H900 0.949 . S
C904 C912 1.574 . S
C904 C920 1.368 1_655 S
H905 C913 0.950 . S
H906 C911 0.950 . S
H907 C912 0.949 . S
H908 C914 0.950 . S
H909 C915 0.950 . S
H910 C916 0.949 . S
C911 H906 0.950 . S
C911 C913 1.327 . S
C911 C917 1.429 . S
C912 C904 1.574 . S
C912 H907 0.949 . S
C912 C918 1.368 . S
C913 C897 1.349 . S
C913 H905 0.950 . S
C913 C911 1.327 . S
C914 C902 1.349 . S
C914 H908 0.950 . S
C914 C915 1.327 . S
C915 H909 0.950 . S
C915 C914 1.327 . S
C915 C919 1.429 . S
C916 C899 1.574 . S
C916 H910 0.949 . S
C916 C920 1.368 . S
C917 C898 1.429 . S
C917 C911 1.429 . S
C917 C918 1.523 . S
C918 C899 1.368 1_655 S
C918 C912 1.368 . S
C918 C917 1.523 . S
C919 C903 1.429 . S
C919 C915 1.429 . S
C919 C920 1.523 . S
C920 C904 1.368 1_455 S
C920 C916 1.368 . S
C920 C919 1.523 . S
H921 C896 0.950 . S
H922 C898 0.950 . S
H923 C899 0.949 . S
H924 C901 0.950 . S
H925 C903 0.950 . S
C926 C927 1.349 . S
C926 C928 1.327 . S
C926 H951 0.950 . S
C927 C926 1.349 . S
C927 C943 1.349 . S
C928 C926 1.327 . S
C928 C947 1.429 . S
C928 H952 0.950 . S
C929 C946 1.574 1_455 S
C929 C948 1.368 . S
C929 H953 0.949 . S
H930 C934 0.949 . S
C931 C932 1.349 . S
C931 C933 1.327 . S
C931 H954 0.950 . S
C932 C931 1.349 . S
C932 C944 1.349 . S
C933 C931 1.327 . S
C933 C949 1.429 . S
C933 H955 0.950 . S
C934 H930 0.949 . S
C934 C942 1.574 1_655 S
C934 C950 1.368 . S
H935 C943 0.950 . S
H936 C941 0.950 . S
H937 C942 0.949 . S
H938 C944 0.950 . S
H939 C945 0.950 . S
H940 C946 0.949 . S
C941 H936 0.950 . S
C941 C943 1.327 . S
C941 C947 1.429 . S
C942 C934 1.574 1_455 S
C942 H937 0.949 . S
C942 C948 1.368 . S
C943 C927 1.349 . S
C943 H935 0.950 . S
C943 C941 1.327 . S
C944 C932 1.349 . S
C944 H938 0.950 . S
C944 C945 1.327 . S
C945 H939 0.950 . S
C945 C944 1.327 . S
C945 C949 1.429 . S
C946 C929 1.574 1_655 S
C946 H940 0.949 . S
C946 C950 1.368 . S
C947 C928 1.429 . S
C947 C941 1.429 . S
C947 C948 1.523 . S
C948 C929 1.368 . S
C948 C942 1.368 . S
C948 C947 1.523 . S
C949 C933 1.429 . S
C949 C945 1.429 . S
C949 C950 1.523 . S
C950 C934 1.368 . S
C950 C946 1.368 . S
C950 C949 1.523 . S
H951 C926 0.950 . S
H952 C928 0.950 . S
H953 C929 0.949 . S
H954 C931 0.950 . S
H955 C933 0.950 . S
C956 C957 1.349 . S
C956 C958 1.327 . S
C956 H981 0.950 . S
C957 C956 1.349 . S
C957 C973 1.349 . S
C958 C956 1.327 . S
C958 C977 1.429 . S
C958 H982 0.950 . S
C959 C976 1.574 . S
C959 C978 1.368 . S
C959 H983 0.949 . S
H960 C964 0.949 . S
C961 C962 1.349 . S
C961 C963 1.327 . S
C961 H984 0.950 . S
C962 C961 1.349 . S
C962 C974 1.349 . S
C963 C961 1.327 . S
C963 C979 1.429 . S
C963 H985 0.950 . S
C964 H960 0.949 . S
C964 C972 1.574 . S
C964 C980 1.368 . S
H965 C973 0.950 . S
H966 C971 0.950 . S
H967 C972 0.949 . S
H968 C974 0.950 . S
H969 C975 0.950 . S
H970 C976 0.949 . S
C971 H966 0.950 . S
C971 C973 1.327 . S
C971 C977 1.429 . S
C972 C964 1.574 . S
C972 H967 0.949 . S
C972 C978 1.368 . S
C973 C957 1.349 . S
C973 H965 0.950 . S
C973 C971 1.327 . S
C974 C962 1.349 . S
C974 H968 0.950 . S
C974 C975 1.327 . S
C975 H969 0.950 . S
C975 C974 1.327 . S
C975 C979 1.429 . S
C976 C959 1.574 . S
C976 H970 0.949 . S
C976 C980 1.368 . S
C977 C958 1.429 . S
C977 C971 1.429 . S
C977 C978 1.523 . S
C978 C959 1.368 . S
C978 C972 1.368 . S
C978 C977 1.523 . S
C979 C963 1.429 . S
C979 C975 1.429 . S
C979 C980 1.523 . S
C980 C964 1.368 . S
C980 C976 1.368 . S
C980 C979 1.523 . S
H981 C956 0.950 . S
H982 C958 0.950 . S
H983 C959 0.949 . S
H984 C961 0.950 . S
H985 C963 0.950 . S
C986 C987 1.349 . S
C986 C988 1.327 . S
C986 H1011 0.950 . S
C987 C986 1.349 . S
C987 C1003 1.349 . S
C988 C986 1.327 . S
C988 C1007 1.429 . S
C988 H1012 0.950 . S
C989 C1006 1.574 . S
C989 C1008 1.368 . S
C989 H1013 0.949 . S
H990 C994 0.949 . S
C991 C992 1.349 . S
C991 C993 1.327 . S
C991 H1014 0.950 . S
C992 C991 1.349 . S
C992 C1004 1.349 . S
C993 C991 1.327 . S
C993 C1009 1.429 . S
C993 H1015 0.950 . S
C994 H990 0.949 . S
C994 C1002 1.574 . S
C994 C1010 1.368 . S
H995 C1003 0.950 . S
H996 C1001 0.950 . S
H997 C1002 0.949 . S
H998 C1004 0.950 . S
H999 C1005 0.950 . S
H1000 C1006 0.949 . S
C1001 H996 0.950 . S
C1001 C1003 1.327 . S
C1001 C1007 1.429 . S
C1002 C994 1.574 . S
C1002 H997 0.949 . S
C1002 C1008 1.368 . S
C1003 C987 1.349 . S
C1003 H995 0.950 . S
C1003 C1001 1.327 . S
C1004 C992 1.349 . S
C1004 H998 0.950 . S
C1004 C1005 1.327 . S
C1005 H999 0.950 . S
C1005 C1004 1.327 . S
C1005 C1009 1.429 . S
C1006 C989 1.574 . S
C1006 H1000 0.949 . S
C1006 C1010 1.368 . S
C1007 C988 1.429 . S
C1007 C1001 1.429 . S
C1007 C1008 1.523 . S
C1008 C989 1.368 . S
C1008 C1002 1.368 . S
C1008 C1007 1.523 . S
C1009 C993 1.429 . S
C1009 C1005 1.429 . S
C1009 C1010 1.523 . S
C1010 C994 1.368 . S
C1010 C1006 1.368 . S
C1010 C1009 1.523 . S
H1011 C986 0.950 . S
H1012 C988 0.950 . S
H1013 C989 0.949 . S
H1014 C991 0.950 . S
H1015 C993 0.950 . S
C1016 C1017 1.349 . S
C1016 C1018 1.327 . S
C1016 H1041 0.950 . S
C1017 C1016 1.349 . S
C1017 C1033 1.349 . S
C1018 C1016 1.327 . S
C1018 C1037 1.429 . S
C1018 H1042 0.950 . S
C1019 C1036 1.574 . S
C1019 C1038 1.368 1_455 S
C1019 H1043 0.949 . S
H1020 C1024 0.949 . S
C1021 C1022 1.349 . S
C1021 C1023 1.327 . S
C1021 H1044 0.950 . S
C1022 C1021 1.349 . S
C1022 C1034 1.349 . S
C1023 C1021 1.327 . S
C1023 C1039 1.429 . S
C1023 H1045 0.950 . S
C1024 H1020 0.949 . S
C1024 C1032 1.574 . S
C1024 C1040 1.368 1_655 S
H1025 C1033 0.950 . S
H1026 C1031 0.950 . S
H1027 C1032 0.949 . S
H1028 C1034 0.950 . S
H1029 C1035 0.950 . S
H1030 C1036 0.949 . S
C1031 H1026 0.950 . S
C1031 C1033 1.327 . S
C1031 C1037 1.429 . S
C1032 C1024 1.574 . S
C1032 H1027 0.949 . S
C1032 C1038 1.368 . S
C1033 C1017 1.349 . S
C1033 H1025 0.950 . S
C1033 C1031 1.327 . S
C1034 C1022 1.349 . S
C1034 H1028 0.950 . S
C1034 C1035 1.327 . S
C1035 H1029 0.950 . S
C1035 C1034 1.327 . S
C1035 C1039 1.429 . S
C1036 C1019 1.574 . S
C1036 H1030 0.949 . S
C1036 C1040 1.368 . S
C1037 C1018 1.429 . S
C1037 C1031 1.429 . S
C1037 C1038 1.523 . S
C1038 C1019 1.368 1_655 S
C1038 C1032 1.368 . S
C1038 C1037 1.523 . S
C1039 C1023 1.429 . S
C1039 C1035 1.429 . S
C1039 C1040 1.523 . S
C1040 C1024 1.368 1_455 S
C1040 C1036 1.368 . S
C1040 C1039 1.523 . S
H1041 C1016 0.950 . S
H1042 C1018 0.950 . S
H1043 C1019 0.949 . S
H1044 C1021 0.950 . S
H1045 C1023 0.950 . S
C1046 C1047 1.349 . S
C1046 C1048 1.327 . S
C1046 H1071 0.950 . S
C1047 C1046 1.349 . S
C1047 C1063 1.349 . S
C1048 C1046 1.327 . S
C1048 C1067 1.429 . S
C1048 H1072 0.950 . S
C1049 C1066 1.574 . S
C1049 C1068 1.368 . S
C1049 H1073 0.949 . S
H1050 C1054 0.949 . S
C1051 C1052 1.349 . S
C1051 C1053 1.327 . S
C1051 H1074 0.950 . S
C1052 C1051 1.349 . S
C1052 C1064 1.349 . S
C1053 C1051 1.327 . S
C1053 C1069 1.429 . S
C1053 H1075 0.950 . S
C1054 H1050 0.949 . S
C1054 C1062 1.574 . S
C1054 C1070 1.368 . S
H1055 C1063 0.950 . S
H1056 C1061 0.950 . S
H1057 C1062 0.949 . S
H1058 C1064 0.950 . S
H1059 C1065 0.950 . S
H1060 C1066 0.949 . S
C1061 H1056 0.950 . S
C1061 C1063 1.327 . S
C1061 C1067 1.429 . S
C1062 C1054 1.574 . S
C1062 H1057 0.949 . S
C1062 C1068 1.368 . S
C1063 C1047 1.349 . S
C1063 H1055 0.950 . S
C1063 C1061 1.327 . S
C1064 C1052 1.349 . S
C1064 H1058 0.950 . S
C1064 C1065 1.327 . S
C1065 H1059 0.950 . S
C1065 C1064 1.327 . S
C1065 C1069 1.429 . S
C1066 C1049 1.574 . S
C1066 H1060 0.949 . S
C1066 C1070 1.368 . S
C1067 C1048 1.429 . S
C1067 C1061 1.429 . S
C1067 C1068 1.523 . S
C1068 C1049 1.368 . S
C1068 C1062 1.368 . S
C1068 C1067 1.523 . S
C1069 C1053 1.429 . S
C1069 C1065 1.429 . S
C1069 C1070 1.523 . S
C1070 C1054 1.368 . S
C1070 C1066 1.368 . S
C1070 C1069 1.523 . S
H1071 C1046 0.950 . S
H1072 C1048 0.950 . S
H1073 C1049 0.949 . S
H1074 C1051 0.950 . S
H1075 C1053 0.950 . S
C1076 C1077 1.349 . S
C1076 C1078 1.327 . S
C1076 H1101 0.950 . S
C1077 C1076 1.349 . S
C1077 C1093 1.349 . S
C1078 C1076 1.327 . S
C1078 C1097 1.429 . S
C1078 H1102 0.950 . S
C1079 C1096 1.574 . S
C1079 C1098 1.368 . S
C1079 H1103 0.949 . S
H1080 C1084 0.949 . S
C1081 C1082 1.349 . S
C1081 C1083 1.327 . S
C1081 H1104 0.950 . S
C1082 C1081 1.349 . S
C1082 C1094 1.349 . S
C1083 C1081 1.327 . S
C1083 C1099 1.429 . S
C1083 H1105 0.950 . S
C1084 H1080 0.949 . S
C1084 C1092 1.574 . S
C1084 C1100 1.368 . S
H1085 C1093 0.950 . S
H1086 C1091 0.950 . S
H1087 C1092 0.949 . S
H1088 C1094 0.950 . S
H1089 C1095 0.950 . S
H1090 C1096 0.949 . S
C1091 H1086 0.950 . S
C1091 C1093 1.327 . S
C1091 C1097 1.429 . S
C1092 C1084 1.574 . S
C1092 H1087 0.949 . S
C1092 C1098 1.368 . S
C1093 C1077 1.349 . S
C1093 H1085 0.950 . S
C1093 C1091 1.327 . S
C1094 C1082 1.349 . S
C1094 H1088 0.950 . S
C1094 C1095 1.327 . S
C1095 H1089 0.950 . S
C1095 C1094 1.327 . S
C1095 C1099 1.429 . S
C1096 C1079 1.574 . S
C1096 H1090 0.949 . S
C1096 C1100 1.368 . S
C1097 C1078 1.429 . S
C1097 C1091 1.429 . S
C1097 C1098 1.523 . S
C1098 C1079 1.368 . S
C1098 C1092 1.368 . S
C1098 C1097 1.523 . S
C1099 C1083 1.429 . S
C1099 C1095 1.429 . S
C1099 C1100 1.523 . S
C1100 C1084 1.368 . S
C1100 C1096 1.368 . S
C1100 C1099 1.523 . S
H1101 C1076 0.950 . S
H1102 C1078 0.950 . S
H1103 C1079 0.949 . S
H1104 C1081 0.950 . S
H1105 C1083 0.950 . S
C1106 C1107 1.349 . S
C1106 C1108 1.327 . S
C1106 H1131 0.950 . S
C1107 C1106 1.349 . S
C1107 C1123 1.349 . S
C1108 C1106 1.327 . S
C1108 C1127 1.429 . S
C1108 H1132 0.950 . S
C1109 C1126 1.574 1_455 S
C1109 C1128 1.368 . S
C1109 H1133 0.949 . S
H1110 C1114 0.949 . S
C1111 C1112 1.349 . S
C1111 C1113 1.327 . S
C1111 H1134 0.950 . S
C1112 C1111 1.349 . S
C1112 C1124 1.349 . S
C1113 C1111 1.327 . S
C1113 C1129 1.429 . S
C1113 H1135 0.950 . S
C1114 H1110 0.949 . S
C1114 C1122 1.574 1_655 S
C1114 C1130 1.368 . S
H1115 C1123 0.950 . S
H1116 C1121 0.950 . S
H1117 C1122 0.949 . S
H1118 C1124 0.950 . S
H1119 C1125 0.950 . S
H1120 C1126 0.949 . S
C1121 H1116 0.950 . S
C1121 C1123 1.327 . S
C1121 C1127 1.429 . S
C1122 C1114 1.574 1_455 S
C1122 H1117 0.949 . S
C1122 C1128 1.368 . S
C1123 C1107 1.349 . S
C1123 H1115 0.950 . S
C1123 C1121 1.327 . S
C1124 C1112 1.349 . S
C1124 H1118 0.950 . S
C1124 C1125 1.327 . S
C1125 H1119 0.950 . S
C1125 C1124 1.327 . S
C1125 C1129 1.429 . S
C1126 C1109 1.574 1_655 S
C1126 H1120 0.949 . S
C1126 C1130 1.368 . S
C1127 C1108 1.429 . S
C1127 C1121 1.429 . S
C1127 C1128 1.523 . S
C1128 C1109 1.368 . S
C1128 C1122 1.368 . S
C1128 C1127 1.523 . S
C1129 C1113 1.429 . S
C1129 C1125 1.429 . S
C1129 C1130 1.523 . S
C1130 C1114 1.368 . S
C1130 C1126 1.368 . S
C1130 C1129 1.523 . S
H1131 C1106 0.950 . S
H1132 C1108 0.950 . S
H1133 C1109 0.949 . S
H1134 C1111 0.950 . S
H1135 C1113 0.950 . S
C1136 C1137 1.349 . S
C1136 C1138 1.327 . S
C1136 H1161 0.950 . S
C1137 C1136 1.349 . S
C1137 C1153 1.349 . S
C1138 C1136 1.327 . S
C1138 C1157 1.429 . S
C1138 H1162 0.950 . S
C1139 C1156 1.574 . S
C1139 C1158 1.368 . S
C1139 H1163 0.949 . S
H1140 C1144 0.949 . S
C1141 C1142 1.349 . S
C1141 C1143 1.327 . S
C1141 H1164 0.950 . S
C1142 C1141 1.349 . S
C1142 C1154 1.349 . S
C1143 C1141 1.327 . S
C1143 C1159 1.429 . S
C1143 H1165 0.950 . S
C1144 H1140 0.949 . S
C1144 C1152 1.574 . S
C1144 C1160 1.368 . S
H1145 C1153 0.950 . S
H1146 C1151 0.950 . S
H1147 C1152 0.949 . S
H1148 C1154 0.950 . S
H1149 C1155 0.950 . S
H1150 C1156 0.949 . S
C1151 H1146 0.950 . S
C1151 C1153 1.327 . S
C1151 C1157 1.429 . S
C1152 C1144 1.574 . S
C1152 H1147 0.949 . S
C1152 C1158 1.368 1_455 S
C1153 C1137 1.349 . S
C1153 H1145 0.950 . S
C1153 C1151 1.327 . S
C1154 C1142 1.349 . S
C1154 H1148 0.950 . S
C1154 C1155 1.327 . S
C1155 H1149 0.950 . S
C1155 C1154 1.327 . S
C1155 C1159 1.429 . S
C1156 C1139 1.574 . S
C1156 H1150 0.949 . S
C1156 C1160 1.368 1_655 S
C1157 C1138 1.429 . S
C1157 C1151 1.429 . S
C1157 C1158 1.523 . S
C1158 C1139 1.368 . S
C1158 C1152 1.368 1_655 S
C1158 C1157 1.523 . S
C1159 C1143 1.429 . S
C1159 C1155 1.429 . S
C1159 C1160 1.523 . S
C1160 C1144 1.368 . S
C1160 C1156 1.368 1_455 S
C1160 C1159 1.523 . S
H1161 C1136 0.950 . S
H1162 C1138 0.950 . S
H1163 C1139 0.949 . S
H1164 C1141 0.950 . S
H1165 C1143 0.950 . S
C1166 C1167 1.349 . S
C1166 C1168 1.327 . S
C1166 H1191 0.950 . S
C1167 C1166 1.349 . S
C1167 C1183 1.349 . S
C1168 C1166 1.327 . S
C1168 C1187 1.429 . S
C1168 H1192 0.950 . S
C1169 C1186 1.574 1_655 S
C1169 C1188 1.368 . S
C1169 H1193 0.949 . S
H1170 C1174 0.949 . S
C1171 C1172 1.349 . S
C1171 C1173 1.327 . S
C1171 H1194 0.950 . S
C1172 C1171 1.349 . S
C1172 C1184 1.349 . S
C1173 C1171 1.327 . S
C1173 C1189 1.429 . S
C1173 H1195 0.950 . S
C1174 H1170 0.949 . S
C1174 C1182 1.574 1_455 S
C1174 C1190 1.368 . S
H1175 C1183 0.950 . S
H1176 C1181 0.950 . S
H1177 C1182 0.949 . S
H1178 C1184 0.950 . S
H1179 C1185 0.950 . S
H1180 C1186 0.949 . S
C1181 H1176 0.950 . S
C1181 C1183 1.327 . S
C1181 C1187 1.429 . S
C1182 C1174 1.574 1_655 S
C1182 H1177 0.949 . S
C1182 C1188 1.368 . S
C1183 C1167 1.349 . S
C1183 H1175 0.950 . S
C1183 C1181 1.327 . S
C1184 C1172 1.349 . S
C1184 H1178 0.950 . S
C1184 C1185 1.327 . S
C1185 H1179 0.950 . S
C1185 C1184 1.327 . S
C1185 C1189 1.429 . S
C1186 C1169 1.574 1_455 S
C1186 H1180 0.949 . S
C1186 C1190 1.368 . S
C1187 C1168 1.429 . S
C1187 C1181 1.429 . S
C1187 C1188 1.523 . S
C1188 C1169 1.368 . S
C1188 C1182 1.368 . S
C1188 C1187 1.523 . S
C1189 C1173 1.429 . S
C1189 C1185 1.429 . S
C1189 C1190 1.523 . S
C1190 C1174 1.368 . S
C1190 C1186 1.368 . S
C1190 C1189 1.523 . S
H1191 C1166 0.950 . S
H1192 C1168 0.950 . S
H1193 C1169 0.949 . S
H1194 C1171 0.950 . S
H1195 C1173 0.950 . S
C1196 C1197 1.349 . S
C1196 C1198 1.327 . S
C1196 H1221 0.950 . S
C1197 C1196 1.349 . S
C1197 C1213 1.349 . S
C1198 C1196 1.327 . S
C1198 C1217 1.429 . S
C1198 H1222 0.950 . S
C1199 C1216 1.574 . S
C1199 C1218 1.368 . S
C1199 H1223 0.949 . S
H1200 C1204 0.949 . S
C1201 C1202 1.349 . S
C1201 C1203 1.327 . S
C1201 H1224 0.950 . S
C1202 C1201 1.349 . S
C1202 C1214 1.349 . S
C1203 C1201 1.327 . S
C1203 C1219 1.429 . S
C1203 H1225 0.950 . S
C1204 H1200 0.949 . S
C1204 C1212 1.574 . S
C1204 C1220 1.368 . S
H1205 C1213 0.950 . S
H1206 C1211 0.950 . S
H1207 C1212 0.949 . S
H1208 C1214 0.950 . S
H1209 C1215 0.950 . S
H1210 C1216 0.949 . S
C1211 H1206 0.950 . S
C1211 C1213 1.327 . S
C1211 C1217 1.429 . S
C1212 C1204 1.574 . S
C1212 H1207 0.949 . S
C1212 C1218 1.368 . S
C1213 C1197 1.349 . S
C1213 H1205 0.950 . S
C1213 C1211 1.327 . S
C1214 C1202 1.349 . S
C1214 H1208 0.950 . S
C1214 C1215 1.327 . S
C1215 H1209 0.950 . S
C1215 C1214 1.327 . S
C1215 C1219 1.429 . S
C1216 C1199 1.574 . S
C1216 H1210 0.949 . S
C1216 C1220 1.368 . S
C1217 C1198 1.429 . S
C1217 C1211 1.429 . S
C1217 C1218 1.523 . S
C1218 C1199 1.368 . S
C1218 C1212 1.368 . S
C1218 C1217 1.523 . S
C1219 C1203 1.429 . S
C1219 C1215 1.429 . S
C1219 C1220 1.523 . S
C1220 C1204 1.368 . S
C1220 C1216 1.368 . S
C1220 C1219 1.523 . S
H1221 C1196 0.950 . S
H1222 C1198 0.950 . S
H1223 C1199 0.949 . S
H1224 C1201 0.950 . S
H1225 C1203 0.950 . S
C1226 C1227 1.349 . S
C1226 C1228 1.327 . S
C1226 H1251 0.950 . S
C1227 C1226 1.349 . S
C1227 C1243 1.349 . S
C1228 C1226 1.327 . S
C1228 C1247 1.429 . S
C1228 H1252 0.950 . S
C1229 C1246 1.574 . S
C1229 C1248 1.368 . S
C1229 H1253 0.949 . S
H1230 C1234 0.949 . S
C1231 C1232 1.349 . S
C1231 C1233 1.327 . S
C1231 H1254 0.950 . S
C1232 C1231 1.349 . S
C1232 C1244 1.349 . S
C1233 C1231 1.327 . S
C1233 C1249 1.429 . S
C1233 H1255 0.950 . S
C1234 H1230 0.949 . S
C1234 C1242 1.574 . S
C1234 C1250 1.368 . S
H1235 C1243 0.950 . S
H1236 C1241 0.950 . S
H1237 C1242 0.949 . S
H1238 C1244 0.950 . S
H1239 C1245 0.950 . S
H1240 C1246 0.949 . S
C1241 H1236 0.950 . S
C1241 C1243 1.327 . S
C1241 C1247 1.429 . S
C1242 C1234 1.574 . S
C1242 H1237 0.949 . S
C1242 C1248 1.368 . S
C1243 C1227 1.349 . S
C1243 H1235 0.950 . S
C1243 C1241 1.327 . S
C1244 C1232 1.349 . S
C1244 H1238 0.950 . S
C1244 C1245 1.327 . S
C1245 H1239 0.950 . S
C1245 C1244 1.327 . S
C1245 C1249 1.429 . S
C1246 C1229 1.574 . S
C1246 H1240 0.949 . S
C1246 C1250 1.368 . S
C1247 C1228 1.429 . S
C1247 C1241 1.429 . S
C1247 C1248 1.523 . S
C1248 C1229 1.368 . S
C1248 C1242 1.368 . S
C1248 C1247 1.523 . S
C1249 C1233 1.429 . S
C1249 C1245 1.429 . S
C1249 C1250 1.523 . S
C1250 C1234 1.368 . S
C1250 C1246 1.368 . S
C1250 C1249 1.523 . S
H1251 C1226 0.950 . S
H1252 C1228 0.950 . S
H1253 C1229 0.949 . S
H1254 C1231 0.950 . S
H1255 C1233 0.950 . S
C1256 C1257 1.349 . S
C1256 C1258 1.327 . S
C1256 H1281 0.950 . S
C1257 C1256 1.349 . S
C1257 C1273 1.349 . S
C1258 C1256 1.327 . S
C1258 C1277 1.429 . S
C1258 H1282 0.950 . S
C1259 C1276 1.574 . S
C1259 C1278 1.368 . S
C1259 H1283 0.949 . S
H1260 C1264 0.949 . S
C1261 C1262 1.349 . S
C1261 C1263 1.327 . S
C1261 H1284 0.950 . S
C1262 C1261 1.349 . S
C1262 C1274 1.349 . S
C1263 C1261 1.327 . S
C1263 C1279 1.429 . S
C1263 H1285 0.950 . S
C1264 H1260 0.949 . S
C1264 C1272 1.574 . S
C1264 C1280 1.368 . S
H1265 C1273 0.950 . S
H1266 C1271 0.950 . S
H1267 C1272 0.949 . S
H1268 C1274 0.950 . S
H1269 C1275 0.950 . S
H1270 C1276 0.949 . S
C1271 H1266 0.950 . S
C1271 C1273 1.327 . S
C1271 C1277 1.429 . S
C1272 C1264 1.574 . S
C1272 H1267 0.949 . S
C1272 C1278 1.368 1_455 S
C1273 C1257 1.349 . S
C1273 H1265 0.950 . S
C1273 C1271 1.327 . S
C1274 C1262 1.349 . S
C1274 H1268 0.950 . S
C1274 C1275 1.327 . S
C1275 H1269 0.950 . S
C1275 C1274 1.327 . S
C1275 C1279 1.429 . S
C1276 C1259 1.574 . S
C1276 H1270 0.949 . S
C1276 C1280 1.368 1_655 S
C1277 C1258 1.429 . S
C1277 C1271 1.429 . S
C1277 C1278 1.523 . S
C1278 C1259 1.368 . S
C1278 C1272 1.368 1_655 S
C1278 C1277 1.523 . S
C1279 C1263 1.429 . S
C1279 C1275 1.429 . S
C1279 C1280 1.523 . S
C1280 C1264 1.368 . S
C1280 C1276 1.368 1_455 S
C1280 C1279 1.523 . S
H1281 C1256 0.950 . S
H1282 C1258 0.950 . S
H1283 C1259 0.949 . S
H1284 C1261 0.950 . S
H1285 C1263 0.950 . S
C1286 C1287 1.349 . S
C1286 C1288 1.327 . S
C1286 H1311 0.950 . S
C1287 C1286 1.349 . S
C1287 C1303 1.349 . S
C1288 C1286 1.327 . S
C1288 C1307 1.429 . S
C1288 H1312 0.950 . S
C1289 C1306 1.574 . S
C1289 C1308 1.368 . S
C1289 H1313 0.949 . S
H1290 C1294 0.949 . S
C1291 C1292 1.349 . S
C1291 C1293 1.327 . S
C1291 H1314 0.950 . S
C1292 C1291 1.349 . S
C1292 C1304 1.349 . S
C1293 C1291 1.327 . S
C1293 C1309 1.429 . S
C1293 H1315 0.950 . S
C1294 H1290 0.949 . S
C1294 C1302 1.574 . S
C1294 C1310 1.368 . S
H1295 C1303 0.950 . S
H1296 C1301 0.950 . S
H1297 C1302 0.949 . S
H1298 C1304 0.950 . S
H1299 C1305 0.950 . S
H1300 C1306 0.949 . S
C1301 H1296 0.950 . S
C1301 C1303 1.327 . S
C1301 C1307 1.429 . S
C1302 C1294 1.574 . S
C1302 H1297 0.949 . S
C1302 C1308 1.368 . S
C1303 C1287 1.349 . S
C1303 H1295 0.950 . S
C1303 C1301 1.327 . S
C1304 C1292 1.349 . S
C1304 H1298 0.950 . S
C1304 C1305 1.327 . S
C1305 H1299 0.950 . S
C1305 C1304 1.327 . S
C1305 C1309 1.429 . S
C1306 C1289 1.574 . S
C1306 H1300 0.949 . S
C1306 C1310 1.368 . S
C1307 C1288 1.429 . S
C1307 C1301 1.429 . S
C1307 C1308 1.523 . S
C1308 C1289 1.368 . S
C1308 C1302 1.368 . S
C1308 C1307 1.523 . S
C1309 C1293 1.429 . S
C1309 C1305 1.429 . S
C1309 C1310 1.523 . S
C1310 C1294 1.368 . S
C1310 C1306 1.368 . S
C1310 C1309 1.523 . S
H1311 C1286 0.950 . S
H1312 C1288 0.950 . S
H1313 C1289 0.949 . S
H1314 C1291 0.950 . S
H1315 C1293 0.950 . S
C1316 C1317 1.349 . S
C1316 C1318 1.327 . S
C1316 H1341 0.950 . S
C1317 C1316 1.349 . S
C1317 C1333 1.349 . S
C1318 C1316 1.327 . S
C1318 C1337 1.429 . S
C1318 H1342 0.950 . S
C1319 C1336 1.574 . S
C1319 C1338 1.368 . S
C1319 H1343 0.949 . S
H1320 C1324 0.949 . S
C1321 C1322 1.349 . S
C1321 C1323 1.327 . S
C1321 H1344 0.950 . S
C1322 C1321 1.349 . S
C1322 C1334 1.349 . S
C1323 C1321 1.327 . S
C1323 C1339 1.429 . S
C1323 H1345 0.950 . S
C1324 H1320 0.949 . S
C1324 C1332 1.574 . S
C1324 C1340 1.368 . S
H1325 C1333 0.950 . S
H1326 C1331 0.950 . S
H1327 C1332 0.949 . S
H1328 C1334 0.950 . S
H1329 C1335 0.950 . S
H1330 C1336 0.949 . S
C1331 H1326 0.950 . S
C1331 C1333 1.327 . S
C1331 C1337 1.429 . S
C1332 C1324 1.574 . S
C1332 H1327 0.949 . S
C1332 C1338 1.368 . S
C1333 C1317 1.349 . S
C1333 H1325 0.950 . S
C1333 C1331 1.327 . S
C1334 C1322 1.349 . S
C1334 H1328 0.950 . S
C1334 C1335 1.327 . S
C1335 H1329 0.950 . S
C1335 C1334 1.327 . S
C1335 C1339 1.429 . S
C1336 C1319 1.574 . S
C1336 H1330 0.949 . S
C1336 C1340 1.368 . S
C1337 C1318 1.429 . S
C1337 C1331 1.429 . S
C1337 C1338 1.523 . S
C1338 C1319 1.368 . S
C1338 C1332 1.368 . S
C1338 C1337 1.523 . S
C1339 C1323 1.429 . S
C1339 C1335 1.429 . S
C1339 C1340 1.523 . S
C1340 C1324 1.368 . S
C1340 C1336 1.368 . S
C1340 C1339 1.523 . S
H1341 C1316 0.950 . S
H1342 C1318 0.950 . S
H1343 C1319 0.949 . S
H1344 C1321 0.950 . S
H1345 C1323 0.950 . S
C1346 C1347 1.349 . S
C1346 C1348 1.327 . S
C1346 H1371 0.950 . S
C1347 C1346 1.349 . S
C1347 C1363 1.349 . S
C1348 C1346 1.327 . S
C1348 C1367 1.429 . S
C1348 H1372 0.950 . S
C1349 C1366 1.574 1_655 S
C1349 C1368 1.368 . S
C1349 H1373 0.949 . S
H1350 C1354 0.949 . S
C1351 C1352 1.349 . S
C1351 C1353 1.327 . S
C1351 H1374 0.950 . S
C1352 C1351 1.349 . S
C1352 C1364 1.349 . S
C1353 C1351 1.327 . S
C1353 C1369 1.429 . S
C1353 H1375 0.950 . S
C1354 H1350 0.949 . S
C1354 C1362 1.574 1_455 S
C1354 C1370 1.368 . S
H1355 C1363 0.950 . S
H1356 C1361 0.950 . S
H1357 C1362 0.949 . S
H1358 C1364 0.950 . S
H1359 C1365 0.950 . S
H1360 C1366 0.949 . S
C1361 H1356 0.950 . S
C1361 C1363 1.327 . S
C1361 C1367 1.429 . S
C1362 C1354 1.574 1_655 S
C1362 H1357 0.949 . S
C1362 C1368 1.368 . S
C1363 C1347 1.349 . S
C1363 H1355 0.950 . S
C1363 C1361 1.327 . S
C1364 C1352 1.349 . S
C1364 H1358 0.950 . S
C1364 C1365 1.327 . S
C1365 H1359 0.950 . S
C1365 C1364 1.327 . S
C1365 C1369 1.429 . S
C1366 C1349 1.574 1_455 S
C1366 H1360 0.949 . S
C1366 C1370 1.368 . S
C1367 C1348 1.429 . S
C1367 C1361 1.429 . S
C1367 C1368 1.523 . S
C1368 C1349 1.368 . S
C1368 C1362 1.368 . S
C1368 C1367 1.523 . S
C1369 C1353 1.429 . S
C1369 C1365 1.429 . S
C1369 C1370 1.523 . S
C1370 C1354 1.368 . S
C1370 C1366 1.368 . S
C1370 C1369 1.523 . S
H1371 C1346 0.950 . S
H1372 C1348 0.950 . S
H1373 C1349 0.949 . S
H1374 C1351 0.950 . S
H1375 C1353 0.950 . S
C1376 C1377 1.349 . S
C1376 C1378 1.327 . S
C1376 H1401 0.950 . S
C1377 C1376 1.349 . S
C1377 C1393 1.349 . S
C1378 C1376 1.327 . S
C1378 C1397 1.429 . S
C1378 H1402 0.950 . S
C1379 C1396 1.574 . S
C1379 C1398 1.368 1_554 S
C1379 H1403 0.949 . S
H1380 C1384 0.949 . S
C1381 C1382 1.349 . S
C1381 C1383 1.327 . S
C1381 H1404 0.950 . S
C1382 C1381 1.349 . S
C1382 C1394 1.349 . S
C1383 C1381 1.327 . S
C1383 C1399 1.429 . S
C1383 H1405 0.950 . S
C1384 H1380 0.949 . S
C1384 C1392 1.574 . S
C1384 C1400 1.368 1_556 S
H1385 C1393 0.950 . S
H1386 C1391 0.971 . S
H1387 C1392 0.949 . S
H1388 C1394 0.950 . S
H1389 C1395 0.971 . S
H1390 C1396 0.949 . S
C1391 H1386 0.971 . S
C1391 C1393 1.327 . S
C1391 C1397 1.429 . S
C1392 C1384 1.574 . S
C1392 H1387 0.949 . S
C1392 C1398 1.368 . S
C1393 C1377 1.349 . S
C1393 H1385 0.950 . S
C1393 C1391 1.327 . S
C1394 C1382 1.349 . S
C1394 H1388 0.950 . S
C1394 C1395 1.327 . S
C1395 H1389 0.971 . S
C1395 C1394 1.327 . S
C1395 C1399 1.429 . S
C1396 C1379 1.574 . S
C1396 H1390 0.949 . S
C1396 C1400 1.368 . S
C1397 C1378 1.429 . S
C1397 C1391 1.429 . S
C1397 C1398 1.523 . S
C1398 C1379 1.368 1_556 S
C1398 C1392 1.368 . S
C1398 C1397 1.523 . S
C1399 C1383 1.429 . S
C1399 C1395 1.429 . S
C1399 C1400 1.523 . S
C1400 C1384 1.368 1_554 S
C1400 C1396 1.368 . S
C1400 C1399 1.523 . S
H1401 C1376 0.950 . S
H1402 C1378 0.950 . S
H1403 C1379 0.949 . S
H1404 C1381 0.950 . S
H1405 C1383 0.950 . S
C1406 C1407 1.349 . S
C1406 C1408 1.327 . S
C1406 H1431 0.950 . S
C1407 C1406 1.349 . S
C1407 C1423 1.349 . S
C1408 C1406 1.327 . S
C1408 C1427 1.429 . S
C1408 H1432 0.950 . S
C1409 C1426 1.574 1_545 S
C1409 C1428 1.368 . S
C1409 H1433 0.949 . S
H1410 C1414 0.949 . S
C1411 C1412 1.349 . S
C1411 C1413 1.327 . S
C1411 H1434 0.950 . S
C1412 C1411 1.349 . S
C1412 C1424 1.349 . S
C1413 C1411 1.327 . S
C1413 C1429 1.429 . S
C1413 H1435 0.950 . S
C1414 H1410 0.949 . S
C1414 C1422 1.574 1_565 S
C1414 C1430 1.368 . S
H1415 C1423 0.950 . S
H1416 C1421 0.950 . S
H1417 C1422 0.949 . S
H1418 C1424 0.950 . S
H1419 C1425 0.950 . S
H1420 C1426 0.949 . S
C1421 H1416 0.950 . S
C1421 C1423 1.327 . S
C1421 C1427 1.429 . S
C1422 C1414 1.574 1_545 S
C1422 H1417 0.949 . S
C1422 C1428 1.368 . S
C1423 C1407 1.349 . S
C1423 H1415 0.950 . S
C1423 C1421 1.327 . S
C1424 C1412 1.349 . S
C1424 H1418 0.950 . S
C1424 C1425 1.327 . S
C1425 H1419 0.950 . S
C1425 C1424 1.327 . S
C1425 C1429 1.429 . S
C1426 C1409 1.574 1_565 S
C1426 H1420 0.949 . S
C1426 C1430 1.368 . S
C1427 C1408 1.429 . S
C1427 C1421 1.429 . S
C1427 C1428 1.523 . S
C1428 C1409 1.368 . S
C1428 C1422 1.368 . S
C1428 C1427 1.523 . S
C1429 C1413 1.429 . S
C1429 C1425 1.429 . S
C1429 C1430 1.523 . S
C1430 C1414 1.368 . S
C1430 C1426 1.368 . S
C1430 C1429 1.523 . S
H1431 C1406 0.950 . S
H1432 C1408 0.950 . S
H1433 C1409 0.949 . S
H1434 C1411 0.950 . S
H1435 C1413 0.950 . S
C1436 C1437 1.349 . S
C1436 C1438 1.327 . S
C1436 H1461 0.950 . S
C1437 C1436 1.349 . S
C1437 C1453 1.349 . S
C1438 C1436 1.327 . S
C1438 C1457 1.429 . S
C1438 H1462 0.950 . S
C1439 C1456 1.574 . S
C1439 C1458 1.368 . S
C1439 H1463 0.949 . S
H1440 C1444 0.949 . S
C1441 C1442 1.349 . S
C1441 C1443 1.327 . S
C1441 H1464 0.950 . S
C1442 C1441 1.349 . S
C1442 C1454 1.349 . S
C1443 C1441 1.327 . S
C1443 C1459 1.429 . S
C1443 H1465 0.950 . S
C1444 H1440 0.949 . S
C1444 C1452 1.574 . S
C1444 C1460 1.368 . S
H1445 C1453 0.950 . S
H1446 C1451 0.950 . S
H1447 C1452 0.949 . S
H1448 C1454 0.950 . S
H1449 C1455 0.950 . S
H1450 C1456 0.949 . S
C1451 H1446 0.950 . S
C1451 C1453 1.327 . S
C1451 C1457 1.429 . S
C1452 C1444 1.574 . S
C1452 H1447 0.949 . S
C1452 C1458 1.368 . S
C1453 C1437 1.349 . S
C1453 H1445 0.950 . S
C1453 C1451 1.327 . S
C1454 C1442 1.349 . S
C1454 H1448 0.950 . S
C1454 C1455 1.327 . S
C1455 H1449 0.950 . S
C1455 C1454 1.327 . S
C1455 C1459 1.429 . S
C1456 C1439 1.574 . S
C1456 H1450 0.949 . S
C1456 C1460 1.368 . S
C1457 C1438 1.429 . S
C1457 C1451 1.429 . S
C1457 C1458 1.523 . S
C1458 C1439 1.368 . S
C1458 C1452 1.368 . S
C1458 C1457 1.523 . S
C1459 C1443 1.429 . S
C1459 C1455 1.429 . S
C1459 C1460 1.523 . S
C1460 C1444 1.368 . S
C1460 C1456 1.368 . S
C1460 C1459 1.523 . S
H1461 C1436 0.950 . S
H1462 C1438 0.950 . S
H1463 C1439 0.949 . S
H1464 C1441 0.950 . S
H1465 C1443 0.950 . S
C1466 C1467 1.349 . S
C1466 C1468 1.327 . S
C1466 H1491 0.950 . S
C1467 C1466 1.349 . S
C1467 C1483 1.349 . S
C1468 C1466 1.327 . S
C1468 C1487 1.429 . S
C1468 H1492 0.950 . S
C1469 C1486 1.574 1_545 S
C1469 C1488 1.368 . S
C1469 H1493 0.949 . S
H1470 C1474 0.949 . S
C1471 C1472 1.349 . S
C1471 C1473 1.327 . S
C1471 H1494 0.950 . S
C1472 C1471 1.349 . S
C1472 C1484 1.349 . S
C1473 C1471 1.327 . S
C1473 C1489 1.429 . S
C1473 H1495 0.950 . S
C1474 H1470 0.949 . S
C1474 C1482 1.574 1_565 S
C1474 C1490 1.368 . S
H1475 C1483 0.950 . S
H1476 C1481 0.950 . S
H1477 C1482 0.949 . S
H1478 C1484 0.950 . S
H1479 C1485 0.950 . S
H1480 C1486 0.949 . S
C1481 H1476 0.950 . S
C1481 C1483 1.327 . S
C1481 C1487 1.429 . S
C1482 C1474 1.574 1_545 S
C1482 H1477 0.949 . S
C1482 C1488 1.368 . S
C1483 C1467 1.349 . S
C1483 H1475 0.950 . S
C1483 C1481 1.327 . S
C1484 C1472 1.349 . S
C1484 H1478 0.950 . S
C1484 C1485 1.327 . S
C1485 H1479 0.950 . S
C1485 C1484 1.327 . S
C1485 C1489 1.429 . S
C1486 C1469 1.574 1_565 S
C1486 H1480 0.949 . S
C1486 C1490 1.368 . S
C1487 C1468 1.429 . S
C1487 C1481 1.429 . S
C1487 C1488 1.523 . S
C1488 C1469 1.368 . S
C1488 C1482 1.368 . S
C1488 C1487 1.523 . S
C1489 C1473 1.429 . S
C1489 C1485 1.429 . S
C1489 C1490 1.523 . S
C1490 C1474 1.368 . S
C1490 C1486 1.368 . S
C1490 C1489 1.523 . S
H1491 C1466 0.950 . S
H1492 C1468 0.950 . S
H1493 C1469 0.949 . S
H1494 C1471 0.950 . S
H1495 C1473 0.950 . S
C1496 C1497 1.349 . S
C1496 C1498 1.327 . S
C1496 H1521 0.950 . S
C1497 C1496 1.349 . S
C1497 C1513 1.349 . S
C1498 C1496 1.327 . S
C1498 C1517 1.429 . S
C1498 H1522 0.970 . S
C1499 C1516 1.574 . S
C1499 C1518 1.368 . S
C1499 H1523 0.949 . S
H1500 C1504 0.949 . S
C1501 C1502 1.349 . S
C1501 C1503 1.327 . S
C1501 H1524 0.950 . S
C1502 C1501 1.349 . S
C1502 C1514 1.349 . S
C1503 C1501 1.327 . S
C1503 C1519 1.429 . S
C1503 H1525 0.970 . S
C1504 H1500 0.949 . S
C1504 C1512 1.574 . S
C1504 C1520 1.368 . S
H1505 C1513 0.950 . S
H1506 C1511 0.950 . S
H1507 C1512 0.949 . S
H1508 C1514 0.950 . S
H1509 C1515 0.950 . S
H1510 C1516 0.949 . S
C1511 H1506 0.950 . S
C1511 C1513 1.327 . S
C1511 C1517 1.429 . S
C1512 C1504 1.574 . S
C1512 H1507 0.949 . S
C1512 C1518 1.368 1_556 S
C1513 C1497 1.349 . S
C1513 H1505 0.950 . S
C1513 C1511 1.327 . S
C1514 C1502 1.349 . S
C1514 H1508 0.950 . S
C1514 C1515 1.327 . S
C1515 H1509 0.950 . S
C1515 C1514 1.327 . S
C1515 C1519 1.429 . S
C1516 C1499 1.574 . S
C1516 H1510 0.949 . S
C1516 C1520 1.368 1_554 S
C1517 C1498 1.429 . S
C1517 C1511 1.429 . S
C1517 C1518 1.523 . S
C1518 C1499 1.368 . S
C1518 C1512 1.368 1_554 S
C1518 C1517 1.523 . S
C1519 C1503 1.429 . S
C1519 C1515 1.429 . S
C1519 C1520 1.523 . S
C1520 C1504 1.368 . S
C1520 C1516 1.368 1_556 S
C1520 C1519 1.523 . S
H1521 C1496 0.950 . S
H1522 C1498 0.970 . S
H1523 C1499 0.949 . S
H1524 C1501 0.950 . S
H1525 C1503 0.970 . S
C1526 C1527 1.349 . S
C1526 C1528 1.327 . S
C1526 H1551 0.950 . S
C1527 C1526 1.349 . S
C1527 C1543 1.349 . S
C1528 C1526 1.327 . S
C1528 C1547 1.429 . S
C1528 H1552 0.950 . S
C1529 C1546 1.574 1_565 S
C1529 C1548 1.368 . S
C1529 H1553 0.949 . S
H1530 C1534 0.949 . S
C1531 C1532 1.349 . S
C1531 C1533 1.327 . S
C1531 H1554 0.950 . S
C1532 C1531 1.349 . S
C1532 C1544 1.349 . S
C1533 C1531 1.327 . S
C1533 C1549 1.429 . S
C1533 H1555 0.950 . S
C1534 H1530 0.949 . S
C1534 C1542 1.574 1_545 S
C1534 C1550 1.368 . S
H1535 C1543 0.950 . S
H1536 C1541 0.950 . S
H1537 C1542 0.949 . S
H1538 C1544 0.950 . S
H1539 C1545 0.950 . S
H1540 C1546 0.949 . S
C1541 H1536 0.950 . S
C1541 C1543 1.327 . S
C1541 C1547 1.429 . S
C1542 C1534 1.574 1_565 S
C1542 H1537 0.949 . S
C1542 C1548 1.368 . S
C1543 C1527 1.349 . S
C1543 H1535 0.950 . S
C1543 C1541 1.327 . S
C1544 C1532 1.349 . S
C1544 H1538 0.950 . S
C1544 C1545 1.327 . S
C1545 H1539 0.950 . S
C1545 C1544 1.327 . S
C1545 C1549 1.429 . S
C1546 C1529 1.574 1_545 S
C1546 H1540 0.949 . S
C1546 C1550 1.368 . S
C1547 C1528 1.429 . S
C1547 C1541 1.429 . S
C1547 C1548 1.523 . S
C1548 C1529 1.368 . S
C1548 C1542 1.368 . S
C1548 C1547 1.523 . S
C1549 C1533 1.429 . S
C1549 C1545 1.429 . S
C1549 C1550 1.523 . S
C1550 C1534 1.368 . S
C1550 C1546 1.368 . S
C1550 C1549 1.523 . S
H1551 C1526 0.950 . S
H1552 C1528 0.950 . S
H1553 C1529 0.949 . S
H1554 C1531 0.950 . S
H1555 C1533 0.950 . S
C1556 C1557 1.349 . S
C1556 C1558 1.327 . S
C1556 H1581 0.950 . S
C1557 C1556 1.349 . S
C1557 C1573 1.349 . S
C1558 C1556 1.327 . S
C1558 C1577 1.429 . S
C1558 H1582 0.950 . S
C1559 C1576 1.574 . S
C1559 C1578 1.368 . S
C1559 H1583 0.949 . S
H1560 C1564 0.949 . S
C1561 C1562 1.349 . S
C1561 C1563 1.327 . S
C1561 H1584 0.950 . S
C1562 C1561 1.349 . S
C1562 C1574 1.349 . S
C1563 C1561 1.327 . S
C1563 C1579 1.429 . S
C1563 H1585 0.950 . S
C1564 H1560 0.949 . S
C1564 C1572 1.574 . S
C1564 C1580 1.368 . S
H1565 C1573 0.950 . S
H1566 C1571 0.950 . S
H1567 C1572 0.949 . S
H1568 C1574 0.950 . S
H1569 C1575 0.950 . S
H1570 C1576 0.949 . S
C1571 H1566 0.950 . S
C1571 C1573 1.327 . S
C1571 C1577 1.429 . S
C1572 C1564 1.574 . S
C1572 H1567 0.949 . S
C1572 C1578 1.368 . S
C1573 C1557 1.349 . S
C1573 H1565 0.950 . S
C1573 C1571 1.327 . S
C1574 C1562 1.349 . S
C1574 H1568 0.950 . S
C1574 C1575 1.327 . S
C1575 H1569 0.950 . S
C1575 C1574 1.327 . S
C1575 C1579 1.429 . S
C1576 C1559 1.574 . S
C1576 H1570 0.949 . S
C1576 C1580 1.368 . S
C1577 C1558 1.429 . S
C1577 C1571 1.429 . S
C1577 C1578 1.523 . S
C1578 C1559 1.368 . S
C1578 C1572 1.368 . S
C1578 C1577 1.523 . S
C1579 C1563 1.429 . S
C1579 C1575 1.429 . S
C1579 C1580 1.523 . S
C1580 C1564 1.368 . S
C1580 C1576 1.368 . S
C1580 C1579 1.523 . S
H1581 C1556 0.950 . S
H1582 C1558 0.950 . S
H1583 C1559 0.949 . S
H1584 C1561 0.950 . S
H1585 C1563 0.950 . S
C1586 C1587 1.349 . S
C1586 C1588 1.327 . S
C1586 H1611 0.950 . S
C1587 C1586 1.349 . S
C1587 C1603 1.349 . S
C1588 C1586 1.327 . S
C1588 C1607 1.429 . S
C1588 H1612 0.950 . S
C1589 C1606 1.574 1_545 S
C1589 C1608 1.368 . S
C1589 H1613 0.949 . S
H1590 C1594 0.949 . S
C1591 C1592 1.349 . S
C1591 C1593 1.327 . S
C1591 H1614 0.950 . S
C1592 C1591 1.349 . S
C1592 C1604 1.349 . S
C1593 C1591 1.327 . S
C1593 C1609 1.429 . S
C1593 H1615 0.950 . S
C1594 H1590 0.949 . S
C1594 C1602 1.574 1_565 S
C1594 C1610 1.368 . S
H1595 C1603 0.950 . S
H1596 C1601 0.950 . S
H1597 C1602 0.949 . S
H1598 C1604 0.950 . S
H1599 C1605 0.950 . S
H1600 C1606 0.949 . S
C1601 H1596 0.950 . S
C1601 C1603 1.327 . S
C1601 C1607 1.429 . S
C1602 C1594 1.574 1_545 S
C1602 H1597 0.949 . S
C1602 C1608 1.368 . S
C1603 C1587 1.349 . S
C1603 H1595 0.950 . S
C1603 C1601 1.327 . S
C1604 C1592 1.349 . S
C1604 H1598 0.950 . S
C1604 C1605 1.327 . S
C1605 H1599 0.950 . S
C1605 C1604 1.327 . S
C1605 C1609 1.429 . S
C1606 C1589 1.574 1_565 S
C1606 H1600 0.949 . S
C1606 C1610 1.368 . S
C1607 C1588 1.429 . S
C1607 C1601 1.429 . S
C1607 C1608 1.523 . S
C1608 C1589 1.368 . S
C1608 C1602 1.368 . S
C1608 C1607 1.523 . S
C1609 C1593 1.429 . S
C1609 C1605 1.429 . S
C1609 C1610 1.523 . S
C1610 C1594 1.368 . S
C1610 C1606 1.368 . S
C1610 C1609 1.523 . S
H1611 C1586 0.950 . S
H1612 C1588 0.950 . S
H1613 C1589 0.949 . S
H1614 C1591 0.950 . S
H1615 C1593 0.950 . S
C1616 C1617 1.349 . S
C1616 C1618 1.327 . S
C1616 H1641 0.950 . S
C1617 C1616 1.349 . S
C1617 C1633 1.349 . S
C1618 C1616 1.327 . S
C1618 C1637 1.429 . S
C1618 H1642 0.950 . S
C1619 C1636 1.574 . S
C1619 C1638 1.368 . S
C1619 H1643 0.949 . S
H1620 C1624 0.949 . S
C1621 C1622 1.349 . S
C1621 C1623 1.327 . S
C1621 H1644 0.950 . S
C1622 C1621 1.349 . S
C1622 C1634 1.349 . S
C1623 C1621 1.327 . S
C1623 C1639 1.429 . S
C1623 H1645 0.950 . S
C1624 H1620 0.949 . S
C1624 C1632 1.574 . S
C1624 C1640 1.368 . S
H1625 C1633 0.950 . S
H1626 C1631 0.950 . S
H1627 C1632 0.949 . S
H1628 C1634 0.950 . S
H1629 C1635 0.950 . S
H1630 C1636 0.949 . S
C1631 H1626 0.950 . S
C1631 C1633 1.327 . S
C1631 C1637 1.429 . S
C1632 C1624 1.574 . S
C1632 H1627 0.949 . S
C1632 C1638 1.368 . S
C1633 C1617 1.349 . S
C1633 H1625 0.950 . S
C1633 C1631 1.327 . S
C1634 C1622 1.349 . S
C1634 H1628 0.950 . S
C1634 C1635 1.327 . S
C1635 H1629 0.950 . S
C1635 C1634 1.327 . S
C1635 C1639 1.429 . S
C1636 C1619 1.574 . S
C1636 H1630 0.949 . S
C1636 C1640 1.368 . S
C1637 C1618 1.429 . S
C1637 C1631 1.429 . S
C1637 C1638 1.523 . S
C1638 C1619 1.368 . S
C1638 C1632 1.368 . S
C1638 C1637 1.523 . S
C1639 C1623 1.429 . S
C1639 C1635 1.429 . S
C1639 C1640 1.523 . S
C1640 C1624 1.368 . S
C1640 C1636 1.368 . S
C1640 C1639 1.523 . S
H1641 C1616 0.950 . S
H1642 C1618 0.950 . S
H1643 C1619 0.949 . S
H1644 C1621 0.950 . S
H1645 C1623 0.950 . S
C1646 C1647 1.349 . S
C1646 C1648 1.327 . S
C1646 H1671 0.950 . S
C1647 C1646 1.349 . S
C1647 C1663 1.349 . S
C1648 C1646 1.327 . S
C1648 C1667 1.429 . S
C1648 H1672 0.950 . S
C1649 C1666 1.574 . S
C1649 C1668 1.368 . S
C1649 H1673 0.949 . S
H1650 C1654 0.949 . S
C1651 C1652 1.349 . S
C1651 C1653 1.327 . S
C1651 H1674 0.950 . S
C1652 C1651 1.349 . S
C1652 C1664 1.349 . S
C1653 C1651 1.327 . S
C1653 C1669 1.429 . S
C1653 H1675 0.950 . S
C1654 H1650 0.949 . S
C1654 C1662 1.574 . S
C1654 C1670 1.368 . S
H1655 C1663 0.950 . S
H1656 C1661 0.950 . S
H1657 C1662 0.949 . S
H1658 C1664 0.950 . S
H1659 C1665 0.950 . S
H1660 C1666 0.949 . S
C1661 H1656 0.950 . S
C1661 C1663 1.327 . S
C1661 C1667 1.429 . S
C1662 C1654 1.574 . S
C1662 H1657 0.949 . S
C1662 C1668 1.368 . S
C1663 C1647 1.349 . S
C1663 H1655 0.950 . S
C1663 C1661 1.327 . S
C1664 C1652 1.349 . S
C1664 H1658 0.950 . S
C1664 C1665 1.327 . S
C1665 H1659 0.950 . S
C1665 C1664 1.327 . S
C1665 C1669 1.429 . S
C1666 C1649 1.574 . S
C1666 H1660 0.949 . S
C1666 C1670 1.368 . S
C1667 C1648 1.429 . S
C1667 C1661 1.429 . S
C1667 C1668 1.523 . S
C1668 C1649 1.368 . S
C1668 C1662 1.368 . S
C1668 C1667 1.523 . S
C1669 C1653 1.429 . S
C1669 C1665 1.429 . S
C1669 C1670 1.523 . S
C1670 C1654 1.368 . S
C1670 C1666 1.368 . S
C1670 C1669 1.523 . S
H1671 C1646 0.950 . S
H1672 C1648 0.950 . S
H1673 C1649 0.949 . S
H1674 C1651 0.950 . S
H1675 C1653 0.950 . S
C1676 C1677 1.349 . S
C1676 C1678 1.327 . S
C1676 H1701 0.950 . S
C1677 C1676 1.349 . S
C1677 C1693 1.349 . S
C1678 C1676 1.327 . S
C1678 C1697 1.429 . S
C1678 H1702 0.971 . S
C1679 C1696 1.574 . S
C1679 C1698 1.368 . S
C1679 H1703 0.949 . S
H1680 C1684 0.949 . S
C1681 C1682 1.349 . S
C1681 C1683 1.327 . S
C1681 H1704 0.950 . S
C1682 C1681 1.349 . S
C1682 C1694 1.349 . S
C1683 C1681 1.327 . S
C1683 C1699 1.429 . S
C1683 H1705 0.971 . S
C1684 H1680 0.949 . S
C1684 C1692 1.574 . S
C1684 C1700 1.368 . S
H1685 C1693 0.950 . S
H1686 C1691 0.950 . S
H1687 C1692 0.949 . S
H1688 C1694 0.950 . S
H1689 C1695 0.950 . S
H1690 C1696 0.949 . S
C1691 H1686 0.950 . S
C1691 C1693 1.327 . S
C1691 C1697 1.429 . S
C1692 C1684 1.574 . S
C1692 H1687 0.949 . S
C1692 C1698 1.368 1_556 S
C1693 C1677 1.349 . S
C1693 H1685 0.950 . S
C1693 C1691 1.327 . S
C1694 C1682 1.349 . S
C1694 H1688 0.950 . S
C1694 C1695 1.327 . S
C1695 H1689 0.950 . S
C1695 C1694 1.327 . S
C1695 C1699 1.429 . S
C1696 C1679 1.574 . S
C1696 H1690 0.949 . S
C1696 C1700 1.368 1_554 S
C1697 C1678 1.429 . S
C1697 C1691 1.429 . S
C1697 C1698 1.523 . S
C1698 C1679 1.368 . S
C1698 C1692 1.368 1_554 S
C1698 C1697 1.523 . S
C1699 C1683 1.429 . S
C1699 C1695 1.429 . S
C1699 C1700 1.523 . S
C1700 C1684 1.368 . S
C1700 C1696 1.368 1_556 S
C1700 C1699 1.523 . S
H1701 C1676 0.950 . S
H1702 C1678 0.971 . S
H1703 C1679 0.949 . S
H1704 C1681 0.950 . S
H1705 C1683 0.971 . S
C1706 C1707 1.349 . S
C1706 C1708 1.327 . S
C1706 H1731 0.950 . S
C1707 C1706 1.349 . S
C1707 C1723 1.349 . S
C1708 C1706 1.327 . S
C1708 C1727 1.429 . S
C1708 H1732 0.950 . S
C1709 C1726 1.574 . S
C1709 C1728 1.368 . S
C1709 H1733 0.949 . S
H1710 C1714 0.949 . S
C1711 C1712 1.349 . S
C1711 C1713 1.327 . S
C1711 H1734 0.950 . S
C1712 C1711 1.349 . S
C1712 C1724 1.349 . S
C1713 C1711 1.327 . S
C1713 C1729 1.429 . S
C1713 H1735 0.950 . S
C1714 H1710 0.949 . S
C1714 C1722 1.574 . S
C1714 C1730 1.368 . S
H1715 C1723 0.950 . S
H1716 C1721 0.950 . S
H1717 C1722 0.949 . S
H1718 C1724 0.950 . S
H1719 C1725 0.950 . S
H1720 C1726 0.949 . S
C1721 H1716 0.950 . S
C1721 C1723 1.327 . S
C1721 C1727 1.429 . S
C1722 C1714 1.574 . S
C1722 H1717 0.949 . S
C1722 C1728 1.368 . S
C1723 C1707 1.349 . S
C1723 H1715 0.950 . S
C1723 C1721 1.327 . S
C1724 C1712 1.349 . S
C1724 H1718 0.950 . S
C1724 C1725 1.327 . S
C1725 H1719 0.950 . S
C1725 C1724 1.327 . S
C1725 C1729 1.429 . S
C1726 C1709 1.574 . S
C1726 H1720 0.949 . S
C1726 C1730 1.368 . S
C1727 C1708 1.429 . S
C1727 C1721 1.429 . S
C1727 C1728 1.523 . S
C1728 C1709 1.368 . S
C1728 C1722 1.368 . S
C1728 C1727 1.523 . S
C1729 C1713 1.429 . S
C1729 C1725 1.429 . S
C1729 C1730 1.523 . S
C1730 C1714 1.368 . S
C1730 C1726 1.368 . S
C1730 C1729 1.523 . S
H1731 C1706 0.950 . S
H1732 C1708 0.950 . S
H1733 C1709 0.949 . S
H1734 C1711 0.950 . S
H1735 C1713 0.950 . S
C1736 C1737 1.349 . S
C1736 C1738 1.327 . S
C1736 H1761 0.950 . S
C1737 C1736 1.349 . S
C1737 C1753 1.349 . S
C1738 C1736 1.327 . S
C1738 C1757 1.429 . S
C1738 H1762 0.950 . S
C1739 C1756 1.574 . S
C1739 C1758 1.368 . S
C1739 H1763 0.949 . S
H1740 C1744 0.949 . S
C1741 C1742 1.349 . S
C1741 C1743 1.327 . S
C1741 H1764 0.950 . S
C1742 C1741 1.349 . S
C1742 C1754 1.349 . S
C1743 C1741 1.327 . S
C1743 C1759 1.429 . S
C1743 H1765 0.950 . S
C1744 H1740 0.949 . S
C1744 C1752 1.574 . S
C1744 C1760 1.368 . S
H1745 C1753 0.950 . S
H1746 C1751 0.950 . S
H1747 C1752 0.949 . S
H1748 C1754 0.950 . S
H1749 C1755 0.950 . S
H1750 C1756 0.949 . S
C1751 H1746 0.950 . S
C1751 C1753 1.327 . S
C1751 C1757 1.429 . S
C1752 C1744 1.574 . S
C1752 H1747 0.949 . S
C1752 C1758 1.368 . S
C1753 C1737 1.349 . S
C1753 H1745 0.950 . S
C1753 C1751 1.327 . S
C1754 C1742 1.349 . S
C1754 H1748 0.950 . S
C1754 C1755 1.327 . S
C1755 H1749 0.950 . S
C1755 C1754 1.327 . S
C1755 C1759 1.429 . S
C1756 C1739 1.574 . S
C1756 H1750 0.949 . S
C1756 C1760 1.368 . S
C1757 C1738 1.429 . S
C1757 C1751 1.429 . S
C1757 C1758 1.523 . S
C1758 C1739 1.368 . S
C1758 C1752 1.368 . S
C1758 C1757 1.523 . S
C1759 C1743 1.429 . S
C1759 C1755 1.429 . S
C1759 C1760 1.523 . S
C1760 C1744 1.368 . S
C1760 C1756 1.368 . S
C1760 C1759 1.523 . S
H1761 C1736 0.950 . S
H1762 C1738 0.950 . S
H1763 C1739 0.949 . S
H1764 C1741 0.950 . S
H1765 C1743 0.950 . S
C1766 C1767 1.349 . S
C1766 C1768 1.327 . S
C1766 H1791 0.950 . S
C1767 C1766 1.349 . S
C1767 C1783 1.349 . S
C1768 C1766 1.327 . S
C1768 C1787 1.429 . S
C1768 H1792 0.950 . S
C1769 C1786 1.574 . S
C1769 C1788 1.368 . S
C1769 H1793 0.949 . S
H1770 C1774 0.949 . S
C1771 C1772 1.349 . S
C1771 C1773 1.327 . S
C1771 H1794 0.950 . S
C1772 C1771 1.349 . S
C1772 C1784 1.349 . S
C1773 C1771 1.327 . S
C1773 C1789 1.429 . S
C1773 H1795 0.950 . S
C1774 H1770 0.949 . S
C1774 C1782 1.574 . S
C1774 C1790 1.368 . S
H1775 C1783 0.950 . S
H1776 C1781 0.950 . S
H1777 C1782 0.949 . S
H1778 C1784 0.950 . S
H1779 C1785 0.950 . S
H1780 C1786 0.949 . S
C1781 H1776 0.950 . S
C1781 C1783 1.327 . S
C1781 C1787 1.429 . S
C1782 C1774 1.574 . S
C1782 H1777 0.949 . S
C1782 C1788 1.368 . S
C1783 C1767 1.349 . S
C1783 H1775 0.950 . S
C1783 C1781 1.327 . S
C1784 C1772 1.349 . S
C1784 H1778 0.950 . S
C1784 C1785 1.327 . S
C1785 H1779 0.950 . S
C1785 C1784 1.327 . S
C1785 C1789 1.429 . S
C1786 C1769 1.574 . S
C1786 H1780 0.949 . S
C1786 C1790 1.368 . S
C1787 C1768 1.429 . S
C1787 C1781 1.429 . S
C1787 C1788 1.523 . S
C1788 C1769 1.368 . S
C1788 C1782 1.368 . S
C1788 C1787 1.523 . S
C1789 C1773 1.429 . S
C1789 C1785 1.429 . S
C1789 C1790 1.523 . S
C1790 C1774 1.368 . S
C1790 C1786 1.368 . S
C1790 C1789 1.523 . S
H1791 C1766 0.950 . S
H1792 C1768 0.950 . S
H1793 C1769 0.949 . S
H1794 C1771 0.950 . S
H1795 C1773 0.950 . S
C1796 C1797 1.349 . S
C1796 C1798 1.327 . S
C1796 H1821 0.950 . S
C1797 C1796 1.349 . S
C1797 C1813 1.349 . S
C1798 C1796 1.327 . S
C1798 C1817 1.429 . S
C1798 H1822 0.971 . S
C1799 C1816 1.574 . S
C1799 C1818 1.368 . S
C1799 H1823 0.949 . S
H1800 C1804 0.949 . S
C1801 C1802 1.349 . S
C1801 C1803 1.327 . S
C1801 H1824 0.950 . S
C1802 C1801 1.349 . S
C1802 C1814 1.349 . S
C1803 C1801 1.327 . S
C1803 C1819 1.429 . S
C1803 H1825 0.971 . S
C1804 H1800 0.949 . S
C1804 C1812 1.574 . S
C1804 C1820 1.368 . S
H1805 C1813 0.950 . S
H1806 C1811 0.950 . S
H1807 C1812 0.949 . S
H1808 C1814 0.950 . S
H1809 C1815 0.950 . S
H1810 C1816 0.949 . S
C1811 H1806 0.950 . S
C1811 C1813 1.327 . S
C1811 C1817 1.429 . S
C1812 C1804 1.574 . S
C1812 H1807 0.949 . S
C1812 C1818 1.368 1_554 S
C1813 C1797 1.349 . S
C1813 H1805 0.950 . S
C1813 C1811 1.327 . S
C1814 C1802 1.349 . S
C1814 H1808 0.950 . S
C1814 C1815 1.327 . S
C1815 H1809 0.950 . S
C1815 C1814 1.327 . S
C1815 C1819 1.429 . S
C1816 C1799 1.574 . S
C1816 H1810 0.949 . S
C1816 C1820 1.368 1_556 S
C1817 C1798 1.429 . S
C1817 C1811 1.429 . S
C1817 C1818 1.523 . S
C1818 C1799 1.368 . S
C1818 C1812 1.368 1_556 S
C1818 C1817 1.523 . S
C1819 C1803 1.429 . S
C1819 C1815 1.429 . S
C1819 C1820 1.523 . S
C1820 C1804 1.368 . S
C1820 C1816 1.368 1_554 S
C1820 C1819 1.523 . S
H1821 C1796 0.950 . S
H1822 C1798 0.971 . S
H1823 C1799 0.949 . S
H1824 C1801 0.950 . S
H1825 C1803 0.971 . S
C1826 C1827 1.349 . S
C1826 C1828 1.327 . S
C1826 H1851 0.950 . S
C1827 C1826 1.349 . S
C1827 C1843 1.349 . S
C1828 C1826 1.327 . S
C1828 C1847 1.429 . S
C1828 H1852 0.950 . S
C1829 C1846 1.574 . S
C1829 C1848 1.368 . S
C1829 H1853 0.949 . S
H1830 C1834 0.949 . S
C1831 C1832 1.349 . S
C1831 C1833 1.327 . S
C1831 H1854 0.950 . S
C1832 C1831 1.349 . S
C1832 C1844 1.349 . S
C1833 C1831 1.327 . S
C1833 C1849 1.429 . S
C1833 H1855 0.950 . S
C1834 H1830 0.949 . S
C1834 C1842 1.574 . S
C1834 C1850 1.368 . S
H1835 C1843 0.950 . S
H1836 C1841 0.950 . S
H1837 C1842 0.949 . S
H1838 C1844 0.950 . S
H1839 C1845 0.950 . S
H1840 C1846 0.949 . S
C1841 H1836 0.950 . S
C1841 C1843 1.327 . S
C1841 C1847 1.429 . S
C1842 C1834 1.574 . S
C1842 H1837 0.949 . S
C1842 C1848 1.368 . S
C1843 C1827 1.349 . S
C1843 H1835 0.950 . S
C1843 C1841 1.327 . S
C1844 C1832 1.349 . S
C1844 H1838 0.950 . S
C1844 C1845 1.327 . S
C1845 H1839 0.950 . S
C1845 C1844 1.327 . S
C1845 C1849 1.429 . S
C1846 C1829 1.574 . S
C1846 H1840 0.949 . S
C1846 C1850 1.368 . S
C1847 C1828 1.429 . S
C1847 C1841 1.429 . S
C1847 C1848 1.523 . S
C1848 C1829 1.368 . S
C1848 C1842 1.368 . S
C1848 C1847 1.523 . S
C1849 C1833 1.429 . S
C1849 C1845 1.429 . S
C1849 C1850 1.523 . S
C1850 C1834 1.368 . S
C1850 C1846 1.368 . S
C1850 C1849 1.523 . S
H1851 C1826 0.950 . S
H1852 C1828 0.950 . S
H1853 C1829 0.949 . S
H1854 C1831 0.950 . S
H1855 C1833 0.950 . S
C1856 C1857 1.349 . S
C1856 C1858 1.327 . S
C1856 H1881 0.950 . S
C1857 C1856 1.349 . S
C1857 C1873 1.349 . S
C1858 C1856 1.327 . S
C1858 C1877 1.429 . S
C1858 H1882 0.950 . S
C1859 C1876 1.574 . S
C1859 C1878 1.368 . S
C1859 H1883 0.949 . S
H1860 C1864 0.949 . S
C1861 C1862 1.349 . S
C1861 C1863 1.327 . S
C1861 H1884 0.950 . S
C1862 C1861 1.349 . S
C1862 C1874 1.349 . S
C1863 C1861 1.327 . S
C1863 C1879 1.429 . S
C1863 H1885 0.950 . S
C1864 H1860 0.949 . S
C1864 C1872 1.574 . S
C1864 C1880 1.368 . S
H1865 C1873 0.950 . S
H1866 C1871 0.950 . S
H1867 C1872 0.949 . S
H1868 C1874 0.950 . S
H1869 C1875 0.950 . S
H1870 C1876 0.949 . S
C1871 H1866 0.950 . S
C1871 C1873 1.327 . S
C1871 C1877 1.429 . S
C1872 C1864 1.574 . S
C1872 H1867 0.949 . S
C1872 C1878 1.368 . S
C1873 C1857 1.349 . S
C1873 H1865 0.950 . S
C1873 C1871 1.327 . S
C1874 C1862 1.349 . S
C1874 H1868 0.950 . S
C1874 C1875 1.327 . S
C1875 H1869 0.950 . S
C1875 C1874 1.327 . S
C1875 C1879 1.429 . S
C1876 C1859 1.574 . S
C1876 H1870 0.949 . S
C1876 C1880 1.368 . S
C1877 C1858 1.429 . S
C1877 C1871 1.429 . S
C1877 C1878 1.523 . S
C1878 C1859 1.368 . S
C1878 C1872 1.368 . S
C1878 C1877 1.523 . S
C1879 C1863 1.429 . S
C1879 C1875 1.429 . S
C1879 C1880 1.523 . S
C1880 C1864 1.368 . S
C1880 C1876 1.368 . S
C1880 C1879 1.523 . S
H1881 C1856 0.950 . S
H1882 C1858 0.950 . S
H1883 C1859 0.949 . S
H1884 C1861 0.950 . S
H1885 C1863 0.950 . S
C1886 C1887 1.349 . S
C1886 C1888 1.327 . S
C1886 H1911 0.950 . S
C1887 C1886 1.349 . S
C1887 C1903 1.349 . S
C1888 C1886 1.327 . S
C1888 C1907 1.429 . S
C1888 H1912 0.950 . S
C1889 C1906 1.574 . S
C1889 C1908 1.368 . S
C1889 H1913 0.949 . S
H1890 C1894 0.949 . S
C1891 C1892 1.349 . S
C1891 C1893 1.327 . S
C1891 H1914 0.950 . S
C1892 C1891 1.349 . S
C1892 C1904 1.349 . S
C1893 C1891 1.327 . S
C1893 C1909 1.429 . S
C1893 H1915 0.950 . S
C1894 H1890 0.949 . S
C1894 C1902 1.574 . S
C1894 C1910 1.368 . S
H1895 C1903 0.950 . S
H1896 C1901 0.950 . S
H1897 C1902 0.949 . S
H1898 C1904 0.950 . S
H1899 C1905 0.950 . S
H1900 C1906 0.949 . S
C1901 H1896 0.950 . S
C1901 C1903 1.327 . S
C1901 C1907 1.429 . S
C1902 C1894 1.574 . S
C1902 H1897 0.949 . S
C1902 C1908 1.368 . S
C1903 C1887 1.349 . S
C1903 H1895 0.950 . S
C1903 C1901 1.327 . S
C1904 C1892 1.349 . S
C1904 H1898 0.950 . S
C1904 C1905 1.327 . S
C1905 H1899 0.950 . S
C1905 C1904 1.327 . S
C1905 C1909 1.429 . S
C1906 C1889 1.574 . S
C1906 H1900 0.949 . S
C1906 C1910 1.368 . S
C1907 C1888 1.429 . S
C1907 C1901 1.429 . S
C1907 C1908 1.523 . S
C1908 C1889 1.368 . S
C1908 C1902 1.368 . S
C1908 C1907 1.523 . S
C1909 C1893 1.429 . S
C1909 C1905 1.429 . S
C1909 C1910 1.523 . S
C1910 C1894 1.368 . S
C1910 C1906 1.368 . S
C1910 C1909 1.523 . S
H1911 C1886 0.950 . S
H1912 C1888 0.950 . S
H1913 C1889 0.949 . S
H1914 C1891 0.950 . S
H1915 C1893 0.950 . S
C1916 C1917 1.349 . S
C1916 C1918 1.327 . S
C1916 H1941 0.950 . S
C1917 C1916 1.349 . S
C1917 C1933 1.349 . S
C1918 C1916 1.327 . S
C1918 C1937 1.429 . S
C1918 H1942 0.950 . S
C1919 C1936 1.574 . S
C1919 C1938 1.368 . S
C1919 H1943 0.949 . S
H1920 C1924 0.949 . S
C1921 C1922 1.349 . S
C1921 C1923 1.327 . S
C1921 H1944 0.950 . S
C1922 C1921 1.349 . S
C1922 C1934 1.349 . S
C1923 C1921 1.327 . S
C1923 C1939 1.429 . S
C1923 H1945 0.950 . S
C1924 H1920 0.949 . S
C1924 C1932 1.574 . S
C1924 C1940 1.368 . S
H1925 C1933 0.950 . S
H1926 C1931 0.950 . S
H1927 C1932 0.949 . S
H1928 C1934 0.950 . S
H1929 C1935 0.950 . S
H1930 C1936 0.949 . S
C1931 H1926 0.950 . S
C1931 C1933 1.327 . S
C1931 C1937 1.429 . S
C1932 C1924 1.574 . S
C1932 H1927 0.949 . S
C1932 C1938 1.368 . S
C1933 C1917 1.349 . S
C1933 H1925 0.950 . S
C1933 C1931 1.327 . S
C1934 C1922 1.349 . S
C1934 H1928 0.950 . S
C1934 C1935 1.327 . S
C1935 H1929 0.950 . S
C1935 C1934 1.327 . S
C1935 C1939 1.429 . S
C1936 C1919 1.574 . S
C1936 H1930 0.949 . S
C1936 C1940 1.368 . S
C1937 C1918 1.429 . S
C1937 C1931 1.429 . S
C1937 C1938 1.523 . S
C1938 C1919 1.368 . S
C1938 C1932 1.368 . S
C1938 C1937 1.523 . S
C1939 C1923 1.429 . S
C1939 C1935 1.429 . S
C1939 C1940 1.523 . S
C1940 C1924 1.368 . S
C1940 C1936 1.368 . S
C1940 C1939 1.523 . S
H1941 C1916 0.950 . S
H1942 C1918 0.950 . S
H1943 C1919 0.949 . S
H1944 C1921 0.950 . S
H1945 C1923 0.950 . S
C1946 C1947 1.349 . S
C1946 C1948 1.327 . S
C1946 H1971 0.950 . S
C1947 C1946 1.349 . S
C1947 C1963 1.349 . S
C1948 C1946 1.327 . S
C1948 C1967 1.429 . S
C1948 H1972 0.950 . S
C1949 C1966 1.574 . S
C1949 C1968 1.368 . S
C1949 H1973 0.949 . S
H1950 C1954 0.949 . S
C1951 C1952 1.349 . S
C1951 C1953 1.327 . S
C1951 H1974 0.950 . S
C1952 C1951 1.349 . S
C1952 C1964 1.349 . S
C1953 C1951 1.327 . S
C1953 C1969 1.429 . S
C1953 H1975 0.950 . S
C1954 H1950 0.949 . S
C1954 C1962 1.574 . S
C1954 C1970 1.368 . S
H1955 C1963 0.950 . S
H1956 C1961 0.950 . S
H1957 C1962 0.949 . S
H1958 C1964 0.950 . S
H1959 C1965 0.950 . S
H1960 C1966 0.949 . S
C1961 H1956 0.950 . S
C1961 C1963 1.327 . S
C1961 C1967 1.429 . S
C1962 C1954 1.574 . S
C1962 H1957 0.949 . S
C1962 C1968 1.368 . S
C1963 C1947 1.349 . S
C1963 H1955 0.950 . S
C1963 C1961 1.327 . S
C1964 C1952 1.349 . S
C1964 H1958 0.950 . S
C1964 C1965 1.327 . S
C1965 H1959 0.950 . S
C1965 C1964 1.327 . S
C1965 C1969 1.429 . S
C1966 C1949 1.574 . S
C1966 H1960 0.949 . S
C1966 C1970 1.368 . S
C1967 C1948 1.429 . S
C1967 C1961 1.429 . S
C1967 C1968 1.523 . S
C1968 C1949 1.368 . S
C1968 C1962 1.368 . S
C1968 C1967 1.523 . S
C1969 C1953 1.429 . S
C1969 C1965 1.429 . S
C1969 C1970 1.523 . S
C1970 C1954 1.368 . S
C1970 C1966 1.368 . S
C1970 C1969 1.523 . S
H1971 C1946 0.950 . S
H1972 C1948 0.950 . S
H1973 C1949 0.949 . S
H1974 C1951 0.950 . S
H1975 C1953 0.950 . S
C1976 C1977 1.349 . S
C1976 C1978 1.327 . S
C1976 H2001 0.950 . S
C1977 C1976 1.349 . S
C1977 C1993 1.349 . S
C1978 C1976 1.327 . S
C1978 C1997 1.429 . S
C1978 H2002 0.950 . S
C1979 C1996 1.574 . S
C1979 C1998 1.368 . S
C1979 H2003 0.949 . S
H1980 C1984 0.949 . S
C1981 C1982 1.349 . S
C1981 C1983 1.327 . S
C1981 H2004 0.950 . S
C1982 C1981 1.349 . S
C1982 C1994 1.349 . S
C1983 C1981 1.327 . S
C1983 C1999 1.429 . S
C1983 H2005 0.950 . S
C1984 H1980 0.949 . S
C1984 C1992 1.574 . S
C1984 C2000 1.368 . S
H1985 C1993 0.950 . S
H1986 C1991 0.950 . S
H1987 C1992 0.949 . S
H1988 C1994 0.950 . S
H1989 C1995 0.950 . S
H1990 C1996 0.949 . S
C1991 H1986 0.950 . S
C1991 C1993 1.327 . S
C1991 C1997 1.429 . S
C1992 C1984 1.574 . S
C1992 H1987 0.949 . S
C1992 C1998 1.368 . S
C1993 C1977 1.349 . S
C1993 H1985 0.950 . S
C1993 C1991 1.327 . S
C1994 C1982 1.349 . S
C1994 H1988 0.950 . S
C1994 C1995 1.327 . S
C1995 H1989 0.950 . S
C1995 C1994 1.327 . S
C1995 C1999 1.429 . S
C1996 C1979 1.574 . S
C1996 H1990 0.949 . S
C1996 C2000 1.368 . S
C1997 C1978 1.429 . S
C1997 C1991 1.429 . S
C1997 C1998 1.523 . S
C1998 C1979 1.368 . S
C1998 C1992 1.368 . S
C1998 C1997 1.523 . S
C1999 C1983 1.429 . S
C1999 C1995 1.429 . S
C1999 C2000 1.523 . S
C2000 C1984 1.368 . S
C2000 C1996 1.368 . S
C2000 C1999 1.523 . S
H2001 C1976 0.950 . S
H2002 C1978 0.950 . S
H2003 C1979 0.949 . S
H2004 C1981 0.950 . S
H2005 C1983 0.950 . S
C2006 C2007 1.349 . S
C2006 C2008 1.327 . S
C2006 H2031 0.950 . S
C2007 C2006 1.349 . S
C2007 C2023 1.349 . S
C2008 C2006 1.327 . S
C2008 C2027 1.429 . S
C2008 H2032 0.950 . S
C2009 C2026 1.574 . S
C2009 C2028 1.368 . S
C2009 H2033 0.949 . S
H2010 C2014 0.949 . S
C2011 C2012 1.349 . S
C2011 C2013 1.327 . S
C2011 H2034 0.950 . S
C2012 C2011 1.349 . S
C2012 C2024 1.349 . S
C2013 C2011 1.327 . S
C2013 C2029 1.429 . S
C2013 H2035 0.950 . S
C2014 H2010 0.949 . S
C2014 C2022 1.574 . S
C2014 C2030 1.368 . S
H2015 C2023 0.950 . S
H2016 C2021 0.950 . S
H2017 C2022 0.949 . S
H2018 C2024 0.950 . S
H2019 C2025 0.950 . S
H2020 C2026 0.949 . S
C2021 H2016 0.950 . S
C2021 C2023 1.327 . S
C2021 C2027 1.429 . S
C2022 C2014 1.574 . S
C2022 H2017 0.949 . S
C2022 C2028 1.368 . S
C2023 C2007 1.349 . S
C2023 H2015 0.950 . S
C2023 C2021 1.327 . S
C2024 C2012 1.349 . S
C2024 H2018 0.950 . S
C2024 C2025 1.327 . S
C2025 H2019 0.950 . S
C2025 C2024 1.327 . S
C2025 C2029 1.429 . S
C2026 C2009 1.574 . S
C2026 H2020 0.949 . S
C2026 C2030 1.368 . S
C2027 C2008 1.429 . S
C2027 C2021 1.429 . S
C2027 C2028 1.523 . S
C2028 C2009 1.368 . S
C2028 C2022 1.368 . S
C2028 C2027 1.523 . S
C2029 C2013 1.429 . S
C2029 C2025 1.429 . S
C2029 C2030 1.523 . S
C2030 C2014 1.368 . S
C2030 C2026 1.368 . S
C2030 C2029 1.523 . S
H2031 C2006 0.950 . S
H2032 C2008 0.950 . S
H2033 C2009 0.949 . S
H2034 C2011 0.950 . S
H2035 C2013 0.950 . S
C2036 C2037 1.349 . S
C2036 C2038 1.327 . S
C2036 H2061 0.950 . S
C2037 C2036 1.349 . S
C2037 C2053 1.349 . S
C2038 C2036 1.327 . S
C2038 C2057 1.429 . S
C2038 H2062 0.950 . S
C2039 C2056 1.574 . S
C2039 C2058 1.368 . S
C2039 H2063 0.949 . S
H2040 C2044 0.949 . S
C2041 C2042 1.349 . S
C2041 C2043 1.327 . S
C2041 H2064 0.950 . S
C2042 C2041 1.349 . S
C2042 C2054 1.349 . S
C2043 C2041 1.327 . S
C2043 C2059 1.429 . S
C2043 H2065 0.950 . S
C2044 H2040 0.949 . S
C2044 C2052 1.574 . S
C2044 C2060 1.368 . S
H2045 C2053 0.950 . S
H2046 C2051 0.950 . S
H2047 C2052 0.949 . S
H2048 C2054 0.950 . S
H2049 C2055 0.950 . S
H2050 C2056 0.949 . S
C2051 H2046 0.950 . S
C2051 C2053 1.327 . S
C2051 C2057 1.429 . S
C2052 C2044 1.574 . S
C2052 H2047 0.949 . S
C2052 C2058 1.368 . S
C2053 C2037 1.349 . S
C2053 H2045 0.950 . S
C2053 C2051 1.327 . S
C2054 C2042 1.349 . S
C2054 H2048 0.950 . S
C2054 C2055 1.327 . S
C2055 H2049 0.950 . S
C2055 C2054 1.327 . S
C2055 C2059 1.429 . S
C2056 C2039 1.574 . S
C2056 H2050 0.949 . S
C2056 C2060 1.368 . S
C2057 C2038 1.429 . S
C2057 C2051 1.429 . S
C2057 C2058 1.523 . S
C2058 C2039 1.368 . S
C2058 C2052 1.368 . S
C2058 C2057 1.523 . S
C2059 C2043 1.429 . S
C2059 C2055 1.429 . S
C2059 C2060 1.523 . S
C2060 C2044 1.368 . S
C2060 C2056 1.368 . S
C2060 C2059 1.523 . S
H2061 C2036 0.950 . S
H2062 C2038 0.950 . S
H2063 C2039 0.949 . S
H2064 C2041 0.950 . S
H2065 C2043 0.950 . S
C2066 C2067 1.349 . S
C2066 C2068 1.327 . S
C2066 H2091 0.950 . S
C2067 C2066 1.349 . S
C2067 C2083 1.349 . S
C2068 C2066 1.327 . S
C2068 C2087 1.429 . S
C2068 H2092 0.950 . S
C2069 C2086 1.574 . S
C2069 C2088 1.368 . S
C2069 H2093 0.949 . S
H2070 C2074 0.949 . S
C2071 C2072 1.349 . S
C2071 C2073 1.327 . S
C2071 H2094 0.950 . S
C2072 C2071 1.349 . S
C2072 C2084 1.349 . S
C2073 C2071 1.327 . S
C2073 C2089 1.429 . S
C2073 H2095 0.950 . S
C2074 H2070 0.949 . S
C2074 C2082 1.574 . S
C2074 C2090 1.368 . S
H2075 C2083 0.950 . S
H2076 C2081 0.950 . S
H2077 C2082 0.949 . S
H2078 C2084 0.950 . S
H2079 C2085 0.950 . S
H2080 C2086 0.949 . S
C2081 H2076 0.950 . S
C2081 C2083 1.327 . S
C2081 C2087 1.429 . S
C2082 C2074 1.574 . S
C2082 H2077 0.949 . S
C2082 C2088 1.368 . S
C2083 C2067 1.349 . S
C2083 H2075 0.950 . S
C2083 C2081 1.327 . S
C2084 C2072 1.349 . S
C2084 H2078 0.950 . S
C2084 C2085 1.327 . S
C2085 H2079 0.950 . S
C2085 C2084 1.327 . S
C2085 C2089 1.429 . S
C2086 C2069 1.574 . S
C2086 H2080 0.949 . S
C2086 C2090 1.368 . S
C2087 C2068 1.429 . S
C2087 C2081 1.429 . S
C2087 C2088 1.523 . S
C2088 C2069 1.368 . S
C2088 C2082 1.368 . S
C2088 C2087 1.523 . S
C2089 C2073 1.429 . S
C2089 C2085 1.429 . S
C2089 C2090 1.523 . S
C2090 C2074 1.368 . S
C2090 C2086 1.368 . S
C2090 C2089 1.523 . S
H2091 C2066 0.950 . S
H2092 C2068 0.950 . S
H2093 C2069 0.949 . S
H2094 C2071 0.950 . S
H2095 C2073 0.950 . S
C2096 C2097 1.349 . S
C2096 C2098 1.327 . S
C2096 H2121 0.950 . S
C2097 C2096 1.349 . S
C2097 C2113 1.349 . S
C2098 C2096 1.327 . S
C2098 C2117 1.429 . S
C2098 H2122 0.950 . S
C2099 C2116 1.574 . S
C2099 C2118 1.368 . S
C2099 H2123 0.949 . S
H2100 C2104 0.949 . S
C2101 C2102 1.349 . S
C2101 C2103 1.327 . S
C2101 H2124 0.950 . S
C2102 C2101 1.349 . S
C2102 C2114 1.349 . S
C2103 C2101 1.327 . S
C2103 C2119 1.429 . S
C2103 H2125 0.950 . S
C2104 H2100 0.949 . S
C2104 C2112 1.574 . S
C2104 C2120 1.368 . S
H2105 C2113 0.950 . S
H2106 C2111 0.950 . S
H2107 C2112 0.949 . S
H2108 C2114 0.950 . S
H2109 C2115 0.950 . S
H2110 C2116 0.949 . S
C2111 H2106 0.950 . S
C2111 C2113 1.327 . S
C2111 C2117 1.429 . S
C2112 C2104 1.574 . S
C2112 H2107 0.949 . S
C2112 C2118 1.368 . S
C2113 C2097 1.349 . S
C2113 H2105 0.950 . S
C2113 C2111 1.327 . S
C2114 C2102 1.349 . S
C2114 H2108 0.950 . S
C2114 C2115 1.327 . S
C2115 H2109 0.950 . S
C2115 C2114 1.327 . S
C2115 C2119 1.429 . S
C2116 C2099 1.574 . S
C2116 H2110 0.949 . S
C2116 C2120 1.368 . S
C2117 C2098 1.429 . S
C2117 C2111 1.429 . S
C2117 C2118 1.523 . S
C2118 C2099 1.368 . S
C2118 C2112 1.368 . S
C2118 C2117 1.523 . S
C2119 C2103 1.429 . S
C2119 C2115 1.429 . S
C2119 C2120 1.523 . S
C2120 C2104 1.368 . S
C2120 C2116 1.368 . S
C2120 C2119 1.523 . S
H2121 C2096 0.950 . S
H2122 C2098 0.950 . S
H2123 C2099 0.949 . S
H2124 C2101 0.950 . S
H2125 C2103 0.950 . S
C2126 C2127 1.349 . S
C2126 C2128 1.327 . S
C2126 H2151 0.950 . S
C2127 C2126 1.349 . S
C2127 C2143 1.349 . S
C2128 C2126 1.327 . S
C2128 C2147 1.429 . S
C2128 H2152 0.950 . S
C2129 C2146 1.574 . S
C2129 C2148 1.368 . S
C2129 H2153 0.949 . S
H2130 C2134 0.949 . S
C2131 C2132 1.349 . S
C2131 C2133 1.327 . S
C2131 H2154 0.950 . S
C2132 C2131 1.349 . S
C2132 C2144 1.349 . S
C2133 C2131 1.327 . S
C2133 C2149 1.429 . S
C2133 H2155 0.950 . S
C2134 H2130 0.949 . S
C2134 C2142 1.574 . S
C2134 C2150 1.368 . S
H2135 C2143 0.950 . S
H2136 C2141 0.950 . S
H2137 C2142 0.949 . S
H2138 C2144 0.950 . S
H2139 C2145 0.950 . S
H2140 C2146 0.949 . S
C2141 H2136 0.950 . S
C2141 C2143 1.327 . S
C2141 C2147 1.429 . S
C2142 C2134 1.574 . S
C2142 H2137 0.949 . S
C2142 C2148 1.368 . S
C2143 C2127 1.349 . S
C2143 H2135 0.950 . S
C2143 C2141 1.327 . S
C2144 C2132 1.349 . S
C2144 H2138 0.950 . S
C2144 C2145 1.327 . S
C2145 H2139 0.950 . S
C2145 C2144 1.327 . S
C2145 C2149 1.429 . S
C2146 C2129 1.574 . S
C2146 H2140 0.949 . S
C2146 C2150 1.368 . S
C2147 C2128 1.429 . S
C2147 C2141 1.429 . S
C2147 C2148 1.523 . S
C2148 C2129 1.368 . S
C2148 C2142 1.368 . S
C2148 C2147 1.523 . S
C2149 C2133 1.429 . S
C2149 C2145 1.429 . S
C2149 C2150 1.523 . S
C2150 C2134 1.368 . S
C2150 C2146 1.368 . S
C2150 C2149 1.523 . S
H2151 C2126 0.950 . S
H2152 C2128 0.950 . S
H2153 C2129 0.949 . S
H2154 C2131 0.950 . S
H2155 C2133 0.950 . S
C2156 C2157 1.349 . S
C2156 C2158 1.327 . S
C2156 H2181 0.950 . S
C2157 C2156 1.349 . S
C2157 C2173 1.349 . S
C2158 C2156 1.327 . S
C2158 C2177 1.429 . S
C2158 H2182 0.950 . S
C2159 C2176 1.574 . S
C2159 C2178 1.368 . S
C2159 H2183 0.949 . S
H2160 C2164 0.949 . S
C2161 C2162 1.349 . S
C2161 C2163 1.327 . S
C2161 H2184 0.950 . S
C2162 C2161 1.349 . S
C2162 C2174 1.349 . S
C2163 C2161 1.327 . S
C2163 C2179 1.429 . S
C2163 H2185 0.950 . S
C2164 H2160 0.949 . S
C2164 C2172 1.574 . S
C2164 C2180 1.368 . S
H2165 C2173 0.950 . S
H2166 C2171 0.950 . S
H2167 C2172 0.949 . S
H2168 C2174 0.950 . S
H2169 C2175 0.950 . S
H2170 C2176 0.949 . S
C2171 H2166 0.950 . S
C2171 C2173 1.327 . S
C2171 C2177 1.429 . S
C2172 C2164 1.574 . S
C2172 H2167 0.949 . S
C2172 C2178 1.368 . S
C2173 C2157 1.349 . S
C2173 H2165 0.950 . S
C2173 C2171 1.327 . S
C2174 C2162 1.349 . S
C2174 H2168 0.950 . S
C2174 C2175 1.327 . S
C2175 H2169 0.950 . S
C2175 C2174 1.327 . S
C2175 C2179 1.429 . S
C2176 C2159 1.574 . S
C2176 H2170 0.949 . S
C2176 C2180 1.368 . S
C2177 C2158 1.429 . S
C2177 C2171 1.429 . S
C2177 C2178 1.523 . S
C2178 C2159 1.368 . S
C2178 C2172 1.368 . S
C2178 C2177 1.523 . S
C2179 C2163 1.429 . S
C2179 C2175 1.429 . S
C2179 C2180 1.523 . S
C2180 C2164 1.368 . S
C2180 C2176 1.368 . S
C2180 C2179 1.523 . S
H2181 C2156 0.950 . S
H2182 C2158 0.950 . S
H2183 C2159 0.949 . S
H2184 C2161 0.950 . S
H2185 C2163 0.950 . S
C2186 C2187 1.349 . S
C2186 C2188 1.327 . S
C2186 H2211 0.950 . S
C2187 C2186 1.349 . S
C2187 C2203 1.349 . S
C2188 C2186 1.327 . S
C2188 C2207 1.429 . S
C2188 H2212 0.950 . S
C2189 C2206 1.574 . S
C2189 C2208 1.368 . S
C2189 H2213 0.949 . S
H2190 C2194 0.949 . S
C2191 C2192 1.349 . S
C2191 C2193 1.327 . S
C2191 H2214 0.950 . S
C2192 C2191 1.349 . S
C2192 C2204 1.349 . S
C2193 C2191 1.327 . S
C2193 C2209 1.429 . S
C2193 H2215 0.950 . S
C2194 H2190 0.949 . S
C2194 C2202 1.574 . S
C2194 C2210 1.368 . S
H2195 C2203 0.950 . S
H2196 C2201 0.950 . S
H2197 C2202 0.949 . S
H2198 C2204 0.950 . S
H2199 C2205 0.950 . S
H2200 C2206 0.949 . S
C2201 H2196 0.950 . S
C2201 C2203 1.327 . S
C2201 C2207 1.429 . S
C2202 C2194 1.574 . S
C2202 H2197 0.949 . S
C2202 C2208 1.368 . S
C2203 C2187 1.349 . S
C2203 H2195 0.950 . S
C2203 C2201 1.327 . S
C2204 C2192 1.349 . S
C2204 H2198 0.950 . S
C2204 C2205 1.327 . S
C2205 H2199 0.950 . S
C2205 C2204 1.327 . S
C2205 C2209 1.429 . S
C2206 C2189 1.574 . S
C2206 H2200 0.949 . S
C2206 C2210 1.368 . S
C2207 C2188 1.429 . S
C2207 C2201 1.429 . S
C2207 C2208 1.523 . S
C2208 C2189 1.368 . S
C2208 C2202 1.368 . S
C2208 C2207 1.523 . S
C2209 C2193 1.429 . S
C2209 C2205 1.429 . S
C2209 C2210 1.523 . S
C2210 C2194 1.368 . S
C2210 C2206 1.368 . S
C2210 C2209 1.523 . S
H2211 C2186 0.950 . S
H2212 C2188 0.950 . S
H2213 C2189 0.949 . S
H2214 C2191 0.950 . S
H2215 C2193 0.950 . S
C2216 C2217 1.349 . S
C2216 C2218 1.327 . S
C2216 H2241 0.950 . S
C2217 C2216 1.349 . S
C2217 C2233 1.349 . S
C2218 C2216 1.327 . S
C2218 C2237 1.429 . S
C2218 H2242 0.950 . S
C2219 C2236 1.574 . S
C2219 C2238 1.368 . S
C2219 H2243 0.949 . S
H2220 C2224 0.949 . S
C2221 C2222 1.349 . S
C2221 C2223 1.327 . S
C2221 H2244 0.950 . S
C2222 C2221 1.349 . S
C2222 C2234 1.349 . S
C2223 C2221 1.327 . S
C2223 C2239 1.429 . S
C2223 H2245 0.950 . S
C2224 H2220 0.949 . S
C2224 C2232 1.574 . S
C2224 C2240 1.368 . S
H2225 C2233 0.950 . S
H2226 C2231 0.950 . S
H2227 C2232 0.949 . S
H2228 C2234 0.950 . S
H2229 C2235 0.950 . S
H2230 C2236 0.949 . S
C2231 H2226 0.950 . S
C2231 C2233 1.327 . S
C2231 C2237 1.429 . S
C2232 C2224 1.574 . S
C2232 H2227 0.949 . S
C2232 C2238 1.368 . S
C2233 C2217 1.349 . S
C2233 H2225 0.950 . S
C2233 C2231 1.327 . S
C2234 C2222 1.349 . S
C2234 H2228 0.950 . S
C2234 C2235 1.327 . S
C2235 H2229 0.950 . S
C2235 C2234 1.327 . S
C2235 C2239 1.429 . S
C2236 C2219 1.574 . S
C2236 H2230 0.949 . S
C2236 C2240 1.368 . S
C2237 C2218 1.429 . S
C2237 C2231 1.429 . S
C2237 C2238 1.523 . S
C2238 C2219 1.368 . S
C2238 C2232 1.368 . S
C2238 C2237 1.523 . S
C2239 C2223 1.429 . S
C2239 C2235 1.429 . S
C2239 C2240 1.523 . S
C2240 C2224 1.368 . S
C2240 C2236 1.368 . S
C2240 C2239 1.523 . S
H2241 C2216 0.950 . S
H2242 C2218 0.950 . S
H2243 C2219 0.949 . S
H2244 C2221 0.950 . S
H2245 C2223 0.950 . S
C2246 C2247 1.349 . S
C2246 C2248 1.327 . S
C2246 H2271 0.950 . S
C2247 C2246 1.349 . S
C2247 C2263 1.349 . S
C2248 C2246 1.327 . S
C2248 C2267 1.429 . S
C2248 H2272 0.950 . S
C2249 C2266 1.574 . S
C2249 C2268 1.368 . S
C2249 H2273 0.949 . S
H2250 C2254 0.949 . S
C2251 C2252 1.349 . S
C2251 C2253 1.327 . S
C2251 H2274 0.950 . S
C2252 C2251 1.349 . S
C2252 C2264 1.349 . S
C2253 C2251 1.327 . S
C2253 C2269 1.429 . S
C2253 H2275 0.950 . S
C2254 H2250 0.949 . S
C2254 C2262 1.574 . S
C2254 C2270 1.368 . S
H2255 C2263 0.950 . S
H2256 C2261 0.950 . S
H2257 C2262 0.949 . S
H2258 C2264 0.950 . S
H2259 C2265 0.950 . S
H2260 C2266 0.949 . S
C2261 H2256 0.950 . S
C2261 C2263 1.327 . S
C2261 C2267 1.429 . S
C2262 C2254 1.574 . S
C2262 H2257 0.949 . S
C2262 C2268 1.368 . S
C2263 C2247 1.349 . S
C2263 H2255 0.950 . S
C2263 C2261 1.327 . S
C2264 C2252 1.349 . S
C2264 H2258 0.950 . S
C2264 C2265 1.327 . S
C2265 H2259 0.950 . S
C2265 C2264 1.327 . S
C2265 C2269 1.429 . S
C2266 C2249 1.574 . S
C2266 H2260 0.949 . S
C2266 C2270 1.368 . S
C2267 C2248 1.429 . S
C2267 C2261 1.429 . S
C2267 C2268 1.523 . S
C2268 C2249 1.368 . S
C2268 C2262 1.368 . S
C2268 C2267 1.523 . S
C2269 C2253 1.429 . S
C2269 C2265 1.429 . S
C2269 C2270 1.523 . S
C2270 C2254 1.368 . S
C2270 C2266 1.368 . S
C2270 C2269 1.523 . S
H2271 C2246 0.950 . S
H2272 C2248 0.950 . S
H2273 C2249 0.949 . S
H2274 C2251 0.950 . S
H2275 C2253 0.950 . S
C2276 C2277 1.349 . S
C2276 C2278 1.327 . S
C2276 H2301 0.950 . S
C2277 C2276 1.349 . S
C2277 C2293 1.349 . S
C2278 C2276 1.327 . S
C2278 C2297 1.429 . S
C2278 H2302 0.950 . S
C2279 C2296 1.574 . S
C2279 C2298 1.368 . S
C2279 H2303 0.949 . S
H2280 C2284 0.949 . S
C2281 C2282 1.349 . S
C2281 C2283 1.327 . S
C2281 H2304 0.950 . S
C2282 C2281 1.349 . S
C2282 C2294 1.349 . S
C2283 C2281 1.327 . S
C2283 C2299 1.429 . S
C2283 H2305 0.950 . S
C2284 H2280 0.949 . S
C2284 C2292 1.574 . S
C2284 C2300 1.368 . S
H2285 C2293 0.950 . S
H2286 C2291 0.950 . S
H2287 C2292 0.949 . S
H2288 C2294 0.950 . S
H2289 C2295 0.950 . S
H2290 C2296 0.949 . S
C2291 H2286 0.950 . S
C2291 C2293 1.327 . S
C2291 C2297 1.429 . S
C2292 C2284 1.574 . S
C2292 H2287 0.949 . S
C2292 C2298 1.368 . S
C2293 C2277 1.349 . S
C2293 H2285 0.950 . S
C2293 C2291 1.327 . S
C2294 C2282 1.349 . S
C2294 H2288 0.950 . S
C2294 C2295 1.327 . S
C2295 H2289 0.950 . S
C2295 C2294 1.327 . S
C2295 C2299 1.429 . S
C2296 C2279 1.574 . S
C2296 H2290 0.949 . S
C2296 C2300 1.368 . S
C2297 C2278 1.429 . S
C2297 C2291 1.429 . S
C2297 C2298 1.523 . S
C2298 C2279 1.368 . S
C2298 C2292 1.368 . S
C2298 C2297 1.523 . S
C2299 C2283 1.429 . S
C2299 C2295 1.429 . S
C2299 C2300 1.523 . S
C2300 C2284 1.368 . S
C2300 C2296 1.368 . S
C2300 C2299 1.523 . S
H2301 C2276 0.950 . S
H2302 C2278 0.950 . S
H2303 C2279 0.949 . S
H2304 C2281 0.950 . S
H2305 C2283 0.950 . S
C2306 C2307 1.349 . S
C2306 C2308 1.327 . S
C2306 H2331 0.950 . S
C2307 C2306 1.349 . S
C2307 C2323 1.349 . S
C2308 C2306 1.327 . S
C2308 C2327 1.429 . S
C2308 H2332 0.950 . S
C2309 C2326 1.574 . S
C2309 C2328 1.368 . S
C2309 H2333 0.949 . S
H2310 C2314 0.949 . S
C2311 C2312 1.349 . S
C2311 C2313 1.327 . S
C2311 H2334 0.950 . S
C2312 C2311 1.349 . S
C2312 C2324 1.349 . S
C2313 C2311 1.327 . S
C2313 C2329 1.429 . S
C2313 H2335 0.950 . S
C2314 H2310 0.949 . S
C2314 C2322 1.574 . S
C2314 C2330 1.368 . S
H2315 C2323 0.950 . S
H2316 C2321 0.950 . S
H2317 C2322 0.949 . S
H2318 C2324 0.950 . S
H2319 C2325 0.950 . S
H2320 C2326 0.949 . S
C2321 H2316 0.950 . S
C2321 C2323 1.327 . S
C2321 C2327 1.429 . S
C2322 C2314 1.574 . S
C2322 H2317 0.949 . S
C2322 C2328 1.368 . S
C2323 C2307 1.349 . S
C2323 H2315 0.950 . S
C2323 C2321 1.327 . S
C2324 C2312 1.349 . S
C2324 H2318 0.950 . S
C2324 C2325 1.327 . S
C2325 H2319 0.950 . S
C2325 C2324 1.327 . S
C2325 C2329 1.429 . S
C2326 C2309 1.574 . S
C2326 H2320 0.949 . S
C2326 C2330 1.368 . S
C2327 C2308 1.429 . S
C2327 C2321 1.429 . S
C2327 C2328 1.523 . S
C2328 C2309 1.368 . S
C2328 C2322 1.368 . S
C2328 C2327 1.523 . S
C2329 C2313 1.429 . S
C2329 C2325 1.429 . S
C2329 C2330 1.523 . S
C2330 C2314 1.368 . S
C2330 C2326 1.368 . S
C2330 C2329 1.523 . S
H2331 C2306 0.950 . S
H2332 C2308 0.950 . S
H2333 C2309 0.949 . S
H2334 C2311 0.950 . S
H2335 C2313 0.950 . S
C417 C112 1.658 . S
C422 C8 1.658 . S
C447 C333 1.658 . S
C452 C21 1.658 . S
C477 C138 1.658 . S
C482 C34 1.658 . S
C507 C359 1.658 . S
C512 C47 1.658 . S
C537 C164 1.658 . S
C542 C60 1.658 . S
C567 C73 1.658 . S
C572 C385 1.658 . S
C597 C86 1.658 . S
C602 C190 1.658 . S
C627 C99 1.658 . S
C632 C411 1.658 . S
C657 C229 1.658 . S
C662 C125 1.658 . S
C687 C255 1.658 . S
C692 C151 1.658 . S
C717 C177 1.658 . S
C722 C281 1.658 . S
C747 C203 1.658 . S
C752 C307 1.658 . S
C777 C216 1.658 . S
C782 C320 1.658 . S
C807 C346 1.658 . S
C812 C242 1.658 . S
C837 C268 1.658 . S
C842 C372 1.658 . S
C867 C398 1.658 . S
C872 C294 1.658 . S
C897 C239 1.099 . S
C902 C5 1.099 . S
C927 C252 1.099 . S
C932 C18 1.099 . S
C957 C31 1.099 . S
C962 C213 1.099 . S
C987 C44 1.099 . S
C992 C226 1.099 . S
C1017 C291 1.099 . S
C1022 C57 1.099 . S
C1047 C70 1.099 . S
C1052 C304 1.099 . S
C1077 C265 1.099 . S
C1082 C83 1.099 . S
C1107 C278 1.099 . S
C1112 C96 1.099 . S
C1137 C109 1.099 . S
C1142 C343 1.099 . S
C1167 C356 1.099 . S
C1172 C122 1.099 . S
C1197 C135 1.099 . S
C1202 C317 1.099 . S
C1227 C148 1.099 . S
C1232 C330 1.099 . S
C1257 C161 1.099 . S
C1262 C395 1.099 . S
C1287 C174 1.099 . S
C1292 C408 1.099 . S
C1317 C369 1.099 . S
C1322 C187 1.099 . S
C1347 C382 1.099 . S
C1352 C200 1.099 . S
C1377 C78 1.224 . S
C1382 C0 1.224 . S
C1407 C91 1.224 . S
C1412 C13 1.224 . S
C1437 C52 1.224 . S
C1442 C26 1.224 . S
C1467 C39 1.224 . S
C1472 C65 1.224 . S
C1497 C182 1.224 . S
C1502 C104 1.224 . S
C1527 C195 1.224 . S
C1532 C117 1.224 . S
C1557 C156 1.224 . S
C1562 C130 1.224 . S
C1587 C169 1.224 . S
C1592 C143 1.224 . S
C1617 C286 1.224 . S
C1622 C208 1.224 . S
C1647 C299 1.224 . S
C1652 C221 1.224 . S
C1677 C234 1.224 . S
C1682 C260 1.224 . S
C1707 C247 1.224 . S
C1712 C273 1.224 . S
C1737 C390 1.224 . S
C1742 C312 1.224 . S
C1767 C403 1.224 . S
C1772 C325 1.224 . S
C1797 C338 1.224 . S
C1802 C364 1.224 . S
C1827 C351 1.224 . S
C1832 C377 1.224 . S
C1857 C10 1.454 . S
C1862 C283 1.454 . S
C1887 C296 1.454 . S
C1892 C23 1.454 . S
C1917 C309 1.454 . S
C1922 C36 1.454 . S
C1947 C49 1.454 . S
C1952 C270 1.454 . S
C1977 C257 1.454 . S
C1982 C62 1.454 . S
C2007 C75 1.454 . S
C2012 C218 1.454 . S
C2037 C231 1.454 . S
C2042 C88 1.454 . S
C2067 C101 1.454 . S
C2072 C244 1.454 . S
C2097 C387 1.454 . S
C2102 C114 1.454 . S
C2127 C400 1.454 . S
C2132 C127 1.454 . S
C2157 C140 1.454 . S
C2162 C413 1.454 . S
C2187 C374 1.454 . S
C2192 C153 1.454 . S
C2217 C361 1.454 . S
C2222 C166 1.454 . S
C2247 C179 1.454 . S
C2252 C322 1.454 . S
C2277 C335 1.454 . S
C2282 C192 1.454 . S
C2307 C205 1.454 . S
C2312 C348 1.454 . S
