# Generated by pormake.
# Topology vcu, (8)-cn, num edge types: 1
# Building blocks:
#     Node 0, Type 0, BuildingBlock: TAGTUT_clean_sbu_3, # of connection points: 8
#     Node 1, Type 0, BuildingBlock: TAGTUT_clean_sbu_3, # of connection points: 8
#     Node 2, Type 0, BuildingBlock: TAGTUT_clean_sbu_3, # of connection points: 8
#     Node 3, Type 0, BuildingBlock: TAGTUT_clean_sbu_3, # of connection points: 8
#     Node 4, Type 0, BuildingBlock: TAGTUT_clean_sbu_3, # of connection points: 8
#     Node 5, Type 0, BuildingBlock: TAGTUT_clean_sbu_3, # of connection points: 8
#     Node 6, Type 0, BuildingBlock: TAGTUT_clean_sbu_3, # of connection points: 8
#     Node 7, Type 0, BuildingBlock: TAGTUT_clean_sbu_3, # of connection points: 8
#     Edge 8, Type (0, 0), BuildingBlock: MIFKUJ_clean_linker_0, # of connection points: 2
#     Edge 9, Type (0, 0), BuildingBlock: MIFKUJ_clean_linker_0, # of connection points: 2
#     Edge 10, Type (0, 0), BuildingBlock: MIFKUJ_clean_linker_0, # of connection points: 2
#     Edge 11, Type (0, 0), BuildingBlock: MIFKUJ_clean_linker_0, # of connection points: 2
#     Edge 12, Type (0, 0), BuildingBlock: MIFKUJ_clean_linker_0, # of connection points: 2
#     Edge 13, Type (0, 0), BuildingBlock: MIFKUJ_clean_linker_0, # of connection points: 2
#     Edge 14, Type (0, 0), BuildingBlock: MIFKUJ_clean_linker_0, # of connection points: 2
#     Edge 15, Type (0, 0), BuildingBlock: MIFKUJ_clean_linker_0, # of connection points: 2
#     Edge 16, Type (0, 0), BuildingBlock: MIFKUJ_clean_linker_0, # of connection points: 2
#     Edge 17, Type (0, 0), BuildingBlock: MIFKUJ_clean_linker_0, # of connection points: 2
#     Edge 18, Type (0, 0), BuildingBlock: MIFKUJ_clean_linker_0, # of connection points: 2
#     Edge 19, Type (0, 0), BuildingBlock: MIFKUJ_clean_linker_0, # of connection points: 2
#     Edge 20, Type (0, 0), BuildingBlock: MIFKUJ_clean_linker_0, # of connection points: 2
#     Edge 21, Type (0, 0), BuildingBlock: MIFKUJ_clean_linker_0, # of connection points: 2
#     Edge 22, Type (0, 0), BuildingBlock: MIFKUJ_clean_linker_0, # of connection points: 2
#     Edge 23, Type (0, 0), BuildingBlock: MIFKUJ_clean_linker_0, # of connection points: 2
#     Edge 24, Type (0, 0), BuildingBlock: MIFKUJ_clean_linker_0, # of connection points: 2
#     Edge 25, Type (0, 0), BuildingBlock: MIFKUJ_clean_linker_0, # of connection points: 2
#     Edge 26, Type (0, 0), BuildingBlock: MIFKUJ_clean_linker_0, # of connection points: 2
#     Edge 27, Type (0, 0), BuildingBlock: MIFKUJ_clean_linker_0, # of connection points: 2
#     Edge 28, Type (0, 0), BuildingBlock: MIFKUJ_clean_linker_0, # of connection points: 2
#     Edge 29, Type (0, 0), BuildingBlock: MIFKUJ_clean_linker_0, # of connection points: 2
#     Edge 30, Type (0, 0), BuildingBlock: MIFKUJ_clean_linker_0, # of connection points: 2
#     Edge 31, Type (0, 0), BuildingBlock: MIFKUJ_clean_linker_0, # of connection points: 2
#     Edge 32, Type (0, 0), BuildingBlock: MIFKUJ_clean_linker_0, # of connection points: 2
#     Edge 33, Type (0, 0), BuildingBlock: MIFKUJ_clean_linker_0, # of connection points: 2
#     Edge 34, Type (0, 0), BuildingBlock: MIFKUJ_clean_linker_0, # of connection points: 2
#     Edge 35, Type (0, 0), BuildingBlock: MIFKUJ_clean_linker_0, # of connection points: 2
#     Edge 36, Type (0, 0), BuildingBlock: MIFKUJ_clean_linker_0, # of connection points: 2
#     Edge 37, Type (0, 0), BuildingBlock: MIFKUJ_clean_linker_0, # of connection points: 2
#     Edge 38, Type (0, 0), BuildingBlock: MIFKUJ_clean_linker_0, # of connection points: 2
#     Edge 39, Type (0, 0), BuildingBlock: MIFKUJ_clean_linker_0, # of connection points: 2
# Relax obj value: 0.241
# Max RMSD: 0.292
# Mean RMSD: 0.290
data_MOF--net-vcu--node1-TAGTUT_clean_sbu_3--edge1-MIFKUJ_clean_linker_0
_symmetry_space_group_name_H-M    P1
_symmetry_Int_Tables_number       1
_symmetry_cell_setting            triclinic
loop_
_symmetry_equiv_pos_as_xyz
'x, y, z'
_cell_length_a     23.270999
_cell_length_b     41.600697
_cell_length_c     63.628265
_cell_angle_alpha  89.860236
_cell_angle_beta   89.967712
_cell_angle_gamma 90.033196
loop_
_atom_site_label
_atom_site_type_symbol
_atom_site_fract_x
_atom_site_fract_y
_atom_site_fract_z
_atom_type_partial_charge
C0 C 0.40049 0.38685 0.35398 0.0
C1 C 0.55779 0.3528 0.40837 0.0
C2 C 0.41533 0.32224 0.44589 0.0
Mg3 Mg 0.27175 0.40977 0.36074 0.0
Mg4 Mg 0.22976 0.44354 0.40496 0.0
O5 O 0.26216 0.40739 0.3922 0.0
Mg6 Mg 0.34278 0.39655 0.39994 0.0
O7 O 0.42414 0.38321 0.40518 0.0
Mg8 Mg 0.4219 0.33844 0.39344 0.0
Mg9 Mg 0.45765 0.38725 0.43155 0.0
C10 C 0.2703 0.4032 0.44445 0.0
O11 O 0.36691 0.44778 0.41146 0.0
O12 O 0.17253 0.41477 0.35973 0.0
O13 O 0.43576 0.43705 0.43562 0.0
O14 O 0.28406 0.46613 0.36052 0.0
O15 O 0.14739 0.43877 0.39005 0.0
O16 O 0.27513 0.48433 0.39335 0.0
O17 O 0.32396 0.34569 0.3903 0.0
O18 O 0.26724 0.35334 0.36236 0.0
C19 C 0.29384 0.3345 0.37518 0.0
C20 C 0.13437 0.42598 0.37236 0.0
O21 O 0.30865 0.38839 0.43356 0.0
O22 O 0.5211 0.33781 0.39691 0.0
O23 O 0.24085 0.42679 0.43706 0.0
O24 O 0.4149 0.31491 0.42637 0.0
O25 O 0.54266 0.37311 0.42244 0.0
O26 O 0.42384 0.35105 0.45189 0.0
O27 O 0.36844 0.40407 0.36581 0.0
O28 O 0.4275 0.36245 0.36128 0.0
C29 C 0.28858 0.48867 0.37415 0.0
C30 C 0.40222 0.45654 0.4259 0.0
C31 C 0.1418 0.04749 0.91247 0.0
C32 C 0.29569 1.00067 0.86579 0.0
C33 C 0.37334 0.09741 0.86704 0.0
Mg34 Mg 0.08515 0.11584 0.91587 0.0
Mg35 Mg 0.08024 0.16732 0.87703 0.0
O36 O 0.12722 0.14193 0.89411 0.0
Mg37 Mg 0.17794 0.10761 0.88193 0.0
O38 O 0.22778 0.07105 0.87282 0.0
Mg39 Mg 0.27338 0.06263 0.89893 0.0
Mg40 Mg 0.26625 0.06783 0.84719 0.0
C41 C 0.20108 0.17383 0.85396 0.0
O42 O 0.1253 0.09947 0.85166 0.0
O43 O 0.04916 0.16389 0.92828 0.0
O44 O 0.19197 0.08107 0.82862 0.0
O45 O 0.00274 0.11017 0.89536 0.0
O46 O 0.04827 0.19899 0.90132 0.0
O47 O 0.00935 0.13956 0.8662 0.0
O48 O 0.23634 0.11195 0.91053 0.0
O49 O 0.16899 0.12117 0.93494 0.0
C50 C 0.22186 0.11786 0.92955 0.0
C51 C 0.03898 0.19193 0.92067 0.0
O52 O 0.22347 0.14919 0.86328 0.0
O53 O 0.29742 0.01311 0.88427 0.0
O54 O 0.14788 0.18166 0.85576 0.0
O55 O 0.35372 0.08682 0.88452 0.0
O56 O 0.28482 0.01741 0.84936 0.0
O57 O 0.34475 0.09488 0.85 0.0
O58 O 0.12637 0.07146 0.90125 0.0
O59 O 0.19437 0.03892 0.91323 0.0
C60 C 0.98249 0.11941 0.87765 0.0
C61 C 0.14067 0.09022 0.83319 0.0
C62 C 0.77367 0.17627 0.61828 0.0
C63 C 0.62091 0.0814 0.61542 0.0
C64 C 0.7773 0.0217 0.61635 0.0
Mg65 Mg 0.90598 0.1757 0.60461 0.0
Mg66 Mg 0.95132 0.13056 0.56584 0.0
O67 O 0.91298 0.13191 0.59143 0.0
Mg68 Mg 0.83197 0.1165 0.59391 0.0
O69 O 0.75077 0.10355 0.5991 0.0
Mg70 Mg 0.75437 0.09974 0.63067 0.0
Mg71 Mg 0.72292 0.06761 0.58472 0.0
C72 C 0.89999 0.05971 0.56801 0.0
O73 O 0.80494 0.12578 0.5597 0.0
O74 O 0.00571 0.17693 0.60479 0.0
O75 O 0.74046 0.08641 0.55343 0.0
O76 O 0.90707 0.20208 0.57252 0.0
O77 O 0.0329 0.1447 0.57818 0.0
O78 O 0.92123 0.16836 0.54596 0.0
O79 O 0.85083 0.10716 0.62836 0.0
O80 O 0.90443 0.14995 0.63606 0.0
C81 C 0.87813 0.12433 0.64163 0.0
C82 C 0.04468 0.16315 0.59369 0.0
O83 O 0.86182 0.06664 0.58191 0.0
O84 O 0.65624 0.09215 0.62922 0.0
O85 O 0.93343 0.08064 0.55957 0.0
O86 O 0.77025 0.04401 0.63 0.0
O87 O 0.63742 0.07062 0.59753 0.0
O88 O 0.76674 0.02641 0.59692 0.0
O89 O 0.80798 0.16643 0.604 0.0
O90 O 0.74603 0.15631 0.63007 0.0
C91 C 0.91196 0.19664 0.55282 0.0
C92 C 0.77008 0.11088 0.5474 0.0
C93 C 0.73279 0.37626 0.0683 0.0
C94 C 0.55875 0.29645 0.07193 0.0
C95 C 0.48782 0.36312 0.11661 0.0
Mg96 Mg 0.77665 0.43078 0.10086 0.0
Mg97 Mg 0.76483 0.42385 0.1527 0.0
O98 O 0.72999 0.41974 0.12626 0.0
Mg99 Mg 0.68379 0.38266 0.11559 0.0
O100 O 0.63684 0.3478 0.10197 0.0
Mg101 Mg 0.59452 0.3737 0.08028 0.0
Mg102 Mg 0.59164 0.31857 0.11691 0.0
C103 C 0.63872 0.39746 0.16399 0.0
O104 O 0.73054 0.34147 0.13425 0.0
O105 O 0.79352 0.48007 0.11647 0.0
O106 O 0.65795 0.30564 0.13898 0.0
O107 O 0.85759 0.40914 0.11617 0.0
O108 O 0.77656 0.47537 0.15113 0.0
O109 O 0.848 0.4 0.15056 0.0
O110 O 0.63042 0.41833 0.09638 0.0
O111 O 0.6973 0.45285 0.08604 0.0
C112 C 0.64528 0.44328 0.086 0.0
C113 C 0.7875 0.49243 0.13482 0.0
O114 O 0.62738 0.3887 0.14504 0.0
O115 O 0.56438 0.32574 0.06587 0.0
O116 O 0.68866 0.40748 0.16982 0.0
O117 O 0.50925 0.37543 0.09986 0.0
O118 O 0.56883 0.28766 0.0909 0.0
O119 O 0.51516 0.34212 0.12724 0.0
O120 O 0.74573 0.3809 0.08764 0.0
O121 O 0.68055 0.37222 0.06234 0.0
C122 C 0.8779 0.39911 0.13369 0.0
C123 C 0.70938 0.31555 0.1424 0.0
C124 C 0.76925 0.63621 0.56765 0.0
C125 C 0.60199 0.7191 0.57713 0.0
C126 C 0.53653 0.65253 0.62283 0.0
Mg127 Mg 0.8185 0.58177 0.59891 0.0
Mg128 Mg 0.81566 0.58617 0.65117 0.0
O129 O 0.77804 0.59357 0.62568 0.0
Mg130 Mg 0.73217 0.63185 0.61651 0.0
O131 O 0.68341 0.66725 0.60439 0.0
Mg132 Mg 0.63576 0.64145 0.58422 0.0
Mg133 Mg 0.64178 0.69632 0.62105 0.0
C134 C 0.70017 0.6204 0.66691 0.0
O135 O 0.78541 0.67317 0.63221 0.0
O136 O 0.83802 0.53171 0.61367 0.0
O137 O 0.71521 0.70902 0.64044 0.0
O138 O 0.90434 0.60255 0.61226 0.0
O139 O 0.82374 0.53443 0.64852 0.0
O140 O 0.89885 0.60812 0.64716 0.0
O141 O 0.67258 0.59678 0.59983 0.0
O142 O 0.73353 0.56168 0.586 0.0
C143 C 0.68248 0.57249 0.58824 0.0
C144 C 0.8342 0.51825 0.63182 0.0
O145 O 0.68489 0.6288 0.64822 0.0
O146 O 0.60647 0.69002 0.57073 0.0
O147 O 0.74846 0.60666 0.671 0.0
O148 O 0.55589 0.64021 0.60587 0.0
O149 O 0.61381 0.72767 0.59597 0.0
O150 O 0.56476 0.67393 0.63277 0.0
O151 O 0.78655 0.63174 0.58654 0.0
O152 O 0.7162 0.6414 0.56341 0.0
C153 C 0.92661 0.61081 0.62989 0.0
C154 C 0.76777 0.69939 0.64099 0.0
C155 C 0.70576 0.89174 0.06461 0.0
C156 C 0.89243 0.81614 0.06519 0.0
C157 C 0.94961 0.87946 0.11378 0.0
Mg158 Mg 0.66181 0.94108 0.10161 0.0
Mg159 Mg 0.67449 0.92249 0.15239 0.0
O160 O 0.70873 0.92469 0.12574 0.0
Mg161 Mg 0.75461 0.89034 0.11183 0.0
O162 O 0.80262 0.85872 0.09565 0.0
Mg163 Mg 0.84487 0.88949 0.07654 0.0
Mg164 Mg 0.8524 0.83238 0.11104 0.0
C165 C 0.79622 0.88903 0.16065 0.0
O166 O 0.70931 0.84553 0.12714 0.0
O167 O 0.64605 0.98655 0.12205 0.0
O168 O 0.78655 0.81286 0.13127 0.0
O169 O 0.5804 0.91655 0.11489 0.0
O170 O 0.66613 0.97408 0.15571 0.0
O171 O 0.59016 0.90123 0.14829 0.0
O172 O 0.80657 0.92989 0.09583 0.0
O173 O 0.74043 0.9662 0.08813 0.0
C174 C 0.79214 0.95634 0.08717 0.0
C175 C 0.65408 0.99469 0.14133 0.0
O176 O 0.81026 0.88898 0.14113 0.0
O177 O 0.87971 0.84478 0.05922 0.0
O178 O 0.74633 0.89734 0.16751 0.0
O179 O 0.92959 0.89032 0.09643 0.0
O180 O 0.886 0.80676 0.08425 0.0
O181 O 0.92164 0.85897 0.12457 0.0
O182 O 0.69285 0.89403 0.08415 0.0
O183 O 0.75828 0.88897 0.05848 0.0
C184 C 0.56015 0.90348 0.13154 0.0
C185 C 0.73336 0.81971 0.13429 0.0
C186 C 0.27186 0.87132 0.42482 0.0
C187 C 0.09768 0.78932 0.41427 0.0
C188 C 0.03369 0.86047 0.37264 0.0
Mg189 Mg 0.31698 0.92737 0.39395 0.0
Mg190 Mg 0.31268 0.92324 0.34189 0.0
O191 O 0.27446 0.91654 0.36738 0.0
Mg192 Mg 0.22952 0.87761 0.37658 0.0
O193 O 0.18221 0.84157 0.38875 0.0
Mg194 Mg 0.13682 0.86619 0.41033 0.0
Mg195 Mg 0.13675 0.8166 0.37069 0.0
C196 C 0.19635 0.88912 0.32659 0.0
O197 O 0.28123 0.83686 0.3597 0.0
O198 O 0.33783 0.97735 0.37939 0.0
O199 O 0.20863 0.80307 0.35068 0.0
O200 O 0.4012 0.90639 0.38015 0.0
O201 O 0.32391 0.97485 0.3445 0.0
O202 O 0.39494 0.89998 0.34539 0.0
O203 O 0.17163 0.91175 0.39474 0.0
O204 O 0.23296 0.94753 0.40764 0.0
C205 C 0.18201 0.93627 0.40608 0.0
C206 C 0.33526 0.99082 0.36121 0.0
O207 O 0.18062 0.8808 0.34525 0.0
O208 O 0.10698 0.81687 0.42268 0.0
O209 O 0.24452 0.90303 0.3225 0.0
O210 O 0.05445 0.86865 0.3904 0.0
O211 O 0.10537 0.784 0.39463 0.0
O212 O 0.06226 0.84288 0.36004 0.0
O213 O 0.28552 0.87729 0.40575 0.0
O214 O 0.21984 0.86491 0.43002 0.0
C215 C 0.42292 0.89752 0.3626 0.0
C216 C 0.26198 0.81138 0.3504 0.0
C217 C 0.30743 0.5495 0.91179 0.0
C218 C 0.16841 0.50027 0.86131 0.0
C219 C 0.06851 0.59034 0.86726 0.0
Mg220 Mg 0.35152 0.62055 0.91901 0.0
Mg221 Mg 0.35273 0.67227 0.88067 0.0
O222 O 0.30665 0.64627 0.89793 0.0
Mg223 Mg 0.26182 0.61084 0.88418 0.0
O224 O 0.21914 0.57321 0.87252 0.0
Mg225 Mg 0.17475 0.55891 0.89785 0.0
Mg226 Mg 0.18263 0.57115 0.84623 0.0
C227 C 0.23017 0.67693 0.85868 0.0
O228 O 0.31557 0.61089 0.85399 0.0
O229 O 0.3799 0.66954 0.93275 0.0
O230 O 0.25106 0.59634 0.82904 0.0
O231 O 0.43574 0.61951 0.89947 0.0
O232 O 0.38057 0.70415 0.90545 0.0
O233 O 0.42811 0.64731 0.86978 0.0
O234 O 0.20144 0.60874 0.9124 0.0
O235 O 0.26594 0.62074 0.93722 0.0
C236 C 0.21398 0.6148 0.9316 0.0
C237 C 0.38829 0.69772 0.92498 0.0
O238 O 0.21017 0.65148 0.86771 0.0
O239 O 0.16197 0.51075 0.88016 0.0
O240 O 0.2832 0.68546 0.8597 0.0
O241 O 0.09049 0.5795 0.88427 0.0
O242 O 0.17728 0.51905 0.8456 0.0
O243 O 0.09744 0.59141 0.85019 0.0
O244 O 0.31888 0.57569 0.9022 0.0
O245 O 0.25673 0.53797 0.91149 0.0
C246 C 0.45666 0.62889 0.88193 0.0
C247 C 0.30021 0.60771 0.83468 0.0
H248 H 0.0419 0.4527 0.39187 0.0
H249 H 0.94439 0.43144 0.39237 0.0
H250 H 0.98959 0.36237 0.34477 0.0
H251 H 0.08804 0.38338 0.34417 0.0
H252 H 0.86787 0.3939 0.3439 0.0
H253 H 0.99673 0.32967 0.38673 0.0
H254 H 0.07701 0.32413 0.41179 0.0
H255 H 0.98416 0.37983 0.45723 0.0
H256 H 0.90307 0.38537 0.43254 0.0
H257 H 0.60901 0.31835 0.37668 0.0
H258 H 0.71038 0.3201 0.36641 0.0
H259 H 0.74735 0.38089 0.41958 0.0
H260 H 0.6472 0.37871 0.43019 0.0
H261 H 0.83381 0.34126 0.41297 0.0
H262 H 0.71368 0.4121 0.37043 0.0
H263 H 0.63409 0.42332 0.34588 0.0
H264 H 0.71021 0.3606 0.30017 0.0
H265 H 0.78991 0.34871 0.32459 0.0
C266 C 0.03093 0.43358 0.38106 0.0
C267 C 0.07301 0.41935 0.36825 0.0
C268 C 0.97518 0.42148 0.38138 0.0
C269 C 0.96049 0.39506 0.36888 0.0
C270 C 0.00053 0.38274 0.35457 0.0
C271 C 0.05664 0.39484 0.35424 0.0
C272 C 0.90586 0.37826 0.37299 0.0
C273 C 0.86052 0.38158 0.35871 0.0
C274 C 0.89663 0.36262 0.39245 0.0
C275 C 0.94398 0.358 0.40776 0.0
C276 C 0.99341 0.34065 0.4021 0.0
C277 C 0.03897 0.33743 0.41626 0.0
C278 C 0.0356 0.35151 0.43614 0.0
C279 C 0.98652 0.36869 0.44192 0.0
C280 C 0.94062 0.37176 0.42788 0.0
C281 C 0.63897 0.33155 0.38641 0.0
C282 C 0.6198 0.34895 0.40401 0.0
C283 C 0.69681 0.33259 0.38048 0.0
C284 C 0.73606 0.3512 0.39198 0.0
C285 C 0.71774 0.36652 0.4104 0.0
C286 C 0.66025 0.36539 0.41638 0.0
C287 C 0.79483 0.35754 0.3841 0.0
C288 C 0.84121 0.35244 0.39778 0.0
C289 C 0.80475 0.37179 0.36415 0.0
C290 C 0.75729 0.37922 0.34941 0.0
C291 C 0.71322 0.40057 0.35519 0.0
C292 C 0.66813 0.40705 0.3413 0.0
C293 C 0.66699 0.39259 0.3215 0.0
C294 C 0.71108 0.37172 0.31553 0.0
C295 C 0.75621 0.3651 0.32938 0.0
H296 H 0.63203 0.39763 0.31078 0.0
H297 H 0.07111 0.34916 0.44701 0.0
H298 H 0.44357 0.10133 0.83267 0.0
H299 H 0.54817 0.10698 0.83278 0.0
H300 H 0.54544 0.1226 0.89973 0.0
H301 H 0.44085 0.11672 0.89986 0.0
H302 H 0.62828 0.16125 0.87715 0.0
H303 H 0.566 0.05117 0.8854 0.0
H304 H 0.51149 0.00276 0.87533 0.0
H305 H 0.60069 0.99973 0.81627 0.0
H306 H 0.65506 0.04849 0.82586 0.0
H307 H 0.91157 0.07541 0.89677 0.0
H308 H 0.80713 0.07151 0.89281 0.0
H309 H 0.81261 0.14175 0.84293 0.0
H310 H 0.91676 0.14531 0.84632 0.0
H311 H 0.72815 0.05964 0.85878 0.0
H312 H 0.70818 0.19795 0.85664 0.0
H313 H 0.76311 0.24554 0.86814 0.0
H314 H 0.83972 0.1903 0.91784 0.0
H315 H 0.78449 0.14259 0.90688 0.0
C316 C 0.46495 0.10686 0.84734 0.0
C317 C 0.43393 0.10822 0.86629 0.0
C318 C 0.52476 0.10992 0.84737 0.0
C319 C 0.5544 0.11475 0.8663 0.0
C320 C 0.52326 0.11879 0.88498 0.0
C321 C 0.46351 0.11535 0.88501 0.0
C322 C 0.61782 0.11228 0.86695 0.0
C323 C 0.65018 0.13917 0.87294 0.0
C324 C 0.64622 0.0832 0.86191 0.0
C325 C 0.61406 0.05369 0.85624 0.0
C326 C 0.57361 0.04035 0.87019 0.0
C327 C 0.5428 0.01282 0.86458 0.0
C328 C 0.55248 0.99824 0.84514 0.0
C329 C 0.59314 0.01109 0.8313 0.0
C330 C 0.62397 0.03867 0.83682 0.0
C331 C 0.89078 0.08938 0.88456 0.0
C332 C 0.92247 0.11108 0.87211 0.0
C333 C 0.8311 0.08713 0.88235 0.0
C334 C 0.80227 0.10686 0.86789 0.0
C335 C 0.83416 0.12667 0.85438 0.0
C336 C 0.89378 0.12855 0.85631 0.0
C337 C 0.73882 0.10896 0.86814 0.0
C338 C 0.70641 0.08192 0.86256 0.0
C339 C 0.71042 0.13783 0.87369 0.0
C340 C 0.74267 0.16662 0.88077 0.0
C341 C 0.73653 0.19602 0.87008 0.0
C342 C 0.76773 0.22301 0.87651 0.0
C343 C 0.80503 0.22091 0.89366 0.0
C344 C 0.81097 0.19187 0.90451 0.0
C345 C 0.77977 0.16484 0.89818 0.0
H346 H 0.82924 0.24181 0.89858 0.0
H347 H 0.52859 0.97692 0.84083 0.0
H348 H 0.08653 0.17208 0.63349 0.0
H349 H 0.18435 0.15929 0.64533 0.0
H350 H 0.23562 0.14328 0.58105 0.0
H351 H 0.13879 0.15602 0.56914 0.0
H352 H 0.24678 0.08912 0.60937 0.0
H353 H 0.28816 0.20462 0.60471 0.0
H354 H 0.27275 0.26106 0.61505 0.0
H355 H 0.30863 0.23688 0.67937 0.0
H356 H 0.32357 0.18017 0.66941 0.0
H357 H 0.53426 0.0738 0.58717 0.0
H358 H 0.4335 0.08641 0.59197 0.0
H359 H 0.46446 0.10897 0.65717 0.0
H360 H 0.56678 0.09729 0.65231 0.0
H361 H 0.40401 0.15485 0.63963 0.0
H362 H 0.38317 0.04191 0.64319 0.0
H363 H 0.39871 0.98525 0.63344 0.0
H364 H 0.32175 0.00248 0.57315 0.0
H365 H 0.30639 0.05933 0.5824 0.0
C366 C 0.11927 0.16699 0.62186 0.0
C367 C 0.10509 0.16461 0.60042 0.0
C368 C 0.17488 0.15951 0.62866 0.0
C369 C 0.2165 0.14986 0.61403 0.0
C370 C 0.20362 0.15032 0.59253 0.0
C371 C 0.14842 0.15769 0.58576 0.0
C372 C 0.27151 0.13578 0.62079 0.0
C373 C 0.28134 0.10337 0.61601 0.0
C374 C 0.31508 0.15407 0.63047 0.0
C375 C 0.30624 0.18813 0.63637 0.0
C376 C 0.29221 0.21129 0.62108 0.0
C377 C 0.2837 0.24334 0.62687 0.0
C378 C 0.2895 0.25253 0.64787 0.0
C379 C 0.30402 0.22971 0.66312 0.0
C380 C 0.31256 0.19763 0.65741 0.0
C381 C 0.51974 0.0808 0.60268 0.0
C382 C 0.55865 0.08453 0.61936 0.0
C383 C 0.46184 0.08787 0.60543 0.0
C384 C 0.44121 0.09814 0.62503 0.0
C385 C 0.4795 0.10093 0.64195 0.0
C386 C 0.53784 0.09417 0.63914 0.0
C387 C 0.38065 0.10854 0.62695 0.0
C388 C 0.36931 0.14014 0.63355 0.0
C389 C 0.3353 0.08935 0.61911 0.0
C390 C 0.34369 0.05498 0.61352 0.0
C391 C 0.36975 0.03367 0.62782 0.0
C392 C 0.37851 0.00149 0.62238 0.0
C393 C 0.36122 0.99027 0.60269 0.0
C394 C 0.33501 0.01119 0.58841 0.0
C395 C 0.32613 0.04338 0.59378 0.0
H396 H 0.36813 0.96537 0.59849 0.0
H397 H 0.2829 0.27735 0.65232 0.0
H398 H 0.95632 0.40506 0.10221 0.0
H399 H 0.05882 0.39598 0.10356 0.0
H400 H 0.04427 0.36261 0.1676 0.0
H401 H 0.94035 0.3733 0.16671 0.0
H402 H 0.13493 0.39882 0.16482 0.0
H403 H 0.07301 0.30945 0.12596 0.0
H404 H 0.01785 0.2793 0.09946 0.0
H405 H 0.10258 0.33145 0.05004 0.0
H406 H 0.15803 0.36207 0.07623 0.0
H407 H 0.42984 0.34443 0.15213 0.0
H408 H 0.32668 0.34837 0.15882 0.0
H409 H 0.3049 0.40104 0.10092 0.0
H410 H 0.40803 0.39726 0.09405 0.0
H411 H 0.23329 0.34688 0.1046 0.0
H412 H 0.28872 0.43924 0.14805 0.0
H413 H 0.34427 0.46395 0.17679 0.0
H414 H 0.27445 0.39553 0.22054 0.0
H415 H 0.2182 0.37049 0.19202 0.0
C416 C 0.97434 0.39543 0.1166 0.0
C417 C 0.9396 0.38974 0.13434 0.0
C418 C 0.03339 0.39007 0.1173 0.0
C419 C 0.0596 0.37795 0.13553 0.0
C420 C 0.02516 0.37184 0.15329 0.0
C421 C 0.96568 0.37774 0.15272 0.0
C422 C 0.12312 0.37287 0.13581 0.0
C423 C 0.15627 0.38691 0.15184 0.0
C424 C 0.15155 0.3571 0.11903 0.0
C425 C 0.11944 0.33821 0.10309 0.0
C426 C 0.07978 0.31456 0.10944 0.0
C427 C 0.0485 0.29735 0.09447 0.0
C428 C 0.05667 0.30345 0.07309 0.0
C429 C 0.0964 0.32666 0.06661 0.0
C430 C 0.12789 0.3439 0.08152 0.0
C431 C 0.40336 0.35738 0.14098 0.0
C432 C 0.42734 0.37032 0.12245 0.0
C433 C 0.34431 0.35963 0.14487 0.0
C434 C 0.30803 0.37484 0.13032 0.0
C435 C 0.33212 0.38903 0.1123 0.0
C436 C 0.3912 0.387 0.10846 0.0
C437 C 0.2446 0.37406 0.13303 0.0
C438 C 0.21167 0.35857 0.11762 0.0
C439 C 0.2167 0.38746 0.15072 0.0
C440 C 0.24949 0.40294 0.16791 0.0
C441 C 0.28532 0.42944 0.1638 0.0
C442 C 0.31687 0.44351 0.18005 0.0
C443 C 0.31292 0.4313 0.20048 0.0
C444 C 0.27732 0.40501 0.20472 0.0
C445 C 0.24543 0.39095 0.18853 0.0
H446 H 0.33721 0.44227 0.21306 0.0
H447 H 0.03215 0.29017 0.06157 0.0
H448 H 0.47265 0.60001 0.6118 0.0
H449 H 0.36906 0.59278 0.61644 0.0
H450 H 0.36119 0.68043 0.6523 0.0
H451 H 0.46501 0.68759 0.6481 0.0
H452 H 0.29009 0.59109 0.65165 0.0
H453 H 0.24755 0.72296 0.6284 0.0
H454 H 0.29587 0.76679 0.60901 0.0
H455 H 0.38621 0.6976 0.57148 0.0
H456 H 0.33765 0.65344 0.59036 0.0
H457 H 0.99317 0.62242 0.66462 0.0
H458 H 0.09702 0.63073 0.66584 0.0
H459 H 0.10417 0.62868 0.59815 0.0
H460 H 0.00017 0.62051 0.59671 0.0
H461 H 0.17628 0.67448 0.61438 0.0
H462 H 0.13439 0.56232 0.62556 0.0
H463 H 0.08824 0.51607 0.64308 0.0
H464 H 0.1689 0.54169 0.70137 0.0
H465 H 0.21489 0.58838 0.68426 0.0
C466 C 0.44916 0.61736 0.62111 0.0
C467 C 0.47698 0.64461 0.62935 0.0
C468 C 0.38997 0.61314 0.62378 0.0
C469 C 0.35742 0.63635 0.6344 0.0
C470 C 0.38557 0.66241 0.64388 0.0
C471 C 0.44495 0.66638 0.64152 0.0
C472 C 0.29374 0.63499 0.63375 0.0
C473 C 0.26519 0.60952 0.64375 0.0
C474 C 0.26133 0.65851 0.62286 0.0
C475 C 0.28951 0.68492 0.611 0.0
C476 C 0.27753 0.71713 0.61595 0.0
C477 C 0.30497 0.74202 0.60505 0.0
C478 C 0.34428 0.73498 0.58909 0.0
C479 C 0.35595 0.70303 0.58391 0.0
C480 C 0.32851 0.67807 0.59472 0.0
C481 C 0.01653 0.62421 0.64995 0.0
C482 C 0.98815 0.62046 0.63056 0.0
C483 C 0.07605 0.62883 0.65069 0.0
C484 C 0.10852 0.62981 0.6321 0.0
C485 C 0.08002 0.62787 0.6127 0.0
C486 C 0.02049 0.62313 0.61192 0.0
C487 C 0.17236 0.63108 0.63289 0.0
C488 C 0.20106 0.6564 0.6227 0.0
C489 C 0.20497 0.60719 0.64342 0.0
C490 C 0.17753 0.57905 0.65369 0.0
C491 C 0.14189 0.55825 0.64216 0.0
C492 C 0.11584 0.53193 0.652 0.0
C493 C 0.12549 0.526 0.67334 0.0
C494 C 0.16137 0.54634 0.68485 0.0
C495 C 0.18745 0.57273 0.67509 0.0
H496 H 0.10529 0.50561 0.68093 0.0
H497 H 0.3656 0.75428 0.58071 0.0
H498 H 0.4847 0.90447 0.09867 0.0
H499 H 0.38039 0.9003 0.1002 0.0
H500 H 0.38917 0.8794 0.1665 0.0
H501 H 0.49431 0.88377 0.16523 0.0
H502 H 0.30483 0.8423 0.14363 0.0
H503 H 0.36041 0.95208 0.15416 0.0
H504 H 0.41275 0.00212 0.14595 0.0
H505 H 0.32786 0.00783 0.08616 0.0
H506 H 0.2757 0.95752 0.09386 0.0
H507 H 0.0037 0.86678 0.15128 0.0
H508 H 0.10606 0.87248 0.15915 0.0
H509 H 0.13403 0.91363 0.09764 0.0
H510 H 0.03172 0.90952 0.09013 0.0
H511 H 0.20085 0.9419 0.1236 0.0
H512 H 0.15254 0.83052 0.11082 0.0
H513 H 0.10131 0.77963 0.11763 0.0
H514 H 0.17349 0.77548 0.17968 0.0
H515 H 0.22499 0.82637 0.17322 0.0
C516 C 0.46482 0.89851 0.11358 0.0
C517 C 0.49811 0.89487 0.1319 0.0
C518 C 0.40502 0.89622 0.11441 0.0
C519 C 0.37701 0.89016 0.13353 0.0
C520 C 0.41001 0.88431 0.1516 0.0
C521 C 0.47011 0.88677 0.15083 0.0
C522 C 0.31333 0.89194 0.13464 0.0
C523 C 0.28193 0.86418 0.13962 0.0
C524 C 0.28362 0.92041 0.12912 0.0
C525 C 0.31449 0.95087 0.12453 0.0
C526 C 0.35323 0.96387 0.13919 0.0
C527 C 0.38282 0.9923 0.13464 0.0
C528 C 0.37373 0.00811 0.11553 0.0
C529 C 0.33491 0.99555 0.10095 0.0
C530 C 0.30527 0.96709 0.10541 0.0
C531 C 0.03147 0.87767 0.1396 0.0
C532 C 0.00946 0.88742 0.11999 0.0
C533 C 0.09018 0.88063 0.14405 0.0
C534 C 0.1283 0.89262 0.12877 0.0
C535 C 0.10578 0.90407 0.10967 0.0
C536 C 0.04706 0.90168 0.10538 0.0
C537 C 0.19179 0.89194 0.13198 0.0
C538 C 0.22341 0.92002 0.12786 0.0
C539 C 0.22162 0.86362 0.13806 0.0
C540 C 0.19164 0.83262 0.14171 0.0
C541 C 0.15714 0.81887 0.12597 0.0
C542 C 0.12817 0.78998 0.12974 0.0
C543 C 0.13386 0.77442 0.14912 0.0
C544 C 0.16887 0.78761 0.16471 0.0
C545 C 0.19795 0.81649 0.16101 0.0
H546 H 0.11135 0.75207 0.15201 0.0
H547 H 0.39669 0.03012 0.11204 0.0
H548 H 0.97289 0.85205 0.33582 0.0
H549 H 0.86829 0.8568 0.3312 0.0
H550 H 0.85137 0.88816 0.39542 0.0
H551 H 0.95492 0.88447 0.40006 0.0
H552 H 0.7801 0.83365 0.38336 0.0
H553 H 0.83491 0.93985 0.36249 0.0
H554 H 0.88638 0.98074 0.34169 0.0
H555 H 0.80219 0.94824 0.28568 0.0
H556 H 0.75129 0.90635 0.30608 0.0
H557 H 0.49688 0.89147 0.39578 0.0
H558 H 0.60008 0.88211 0.39455 0.0
H559 H 0.59172 0.87123 0.32722 0.0
H560 H 0.48818 0.88133 0.32822 0.0
H561 H 0.6764 0.91122 0.33783 0.0
H562 H 0.61624 0.80644 0.36024 0.0
H563 H 0.56409 0.76723 0.38226 0.0
H564 H 0.65654 0.79926 0.4367 0.0
H565 H 0.70866 0.83904 0.41508 0.0
C566 C 0.94696 0.86051 0.34882 0.0
C567 C 0.97237 0.86771 0.36833 0.0
C568 C 0.88729 0.86309 0.34618 0.0
C569 C 0.85225 0.87244 0.36308 0.0
C570 C 0.87769 0.88063 0.38227 0.0
C571 C 0.93708 0.87869 0.38481 0.0
C572 C 0.78878 0.87262 0.36126 0.0
C573 C 0.75728 0.85066 0.37347 0.0
C574 C 0.75939 0.89446 0.34807 0.0
C575 C 0.79034 0.91939 0.33573 0.0
C576 C 0.82819 0.94092 0.34567 0.0
C577 C 0.85713 0.96435 0.33396 0.0
C578 C 0.848 0.96682 0.31233 0.0
C579 C 0.80968 0.94597 0.30238 0.0
C580 C 0.78086 0.92235 0.314 0.0
C581 C 0.51665 0.88665 0.3807 0.0
C582 C 0.48404 0.88729 0.36208 0.0
C583 C 0.57583 0.88117 0.38004 0.0
C584 C 0.60375 0.87575 0.3608 0.0
C585 C 0.57113 0.87538 0.34224 0.0
C586 C 0.51184 0.88099 0.34287 0.0
C587 C 0.66734 0.87232 0.36005 0.0
C588 C 0.69902 0.89375 0.34743 0.0
C589 C 0.69696 0.85009 0.373 0.0
C590 C 0.66612 0.82591 0.38603 0.0
C591 C 0.62522 0.80528 0.37693 0.0
C592 C 0.59568 0.78293 0.38934 0.0
C593 C 0.60692 0.7808 0.41087 0.0
C594 C 0.64786 0.80095 0.42002 0.0
C595 C 0.67747 0.82338 0.40769 0.0
H596 H 0.58399 0.7635 0.42045 0.0
H597 H 0.87028 0.98505 0.30329 0.0
H598 H 0.99309 0.58666 0.90011 0.0
H599 H 0.88904 0.59289 0.89918 0.0
H600 H 0.89754 0.61855 0.83358 0.0
H601 H 0.00235 0.61205 0.83422 0.0
H602 H 0.82056 0.65717 0.85846 0.0
H603 H 0.86106 0.54581 0.8447 0.0
H604 H 0.90569 0.49315 0.85175 0.0
H605 H 0.81801 0.48762 0.91105 0.0
H606 H 0.77358 0.54052 0.90452 0.0
H607 H 0.51748 0.64207 0.84575 0.0
H608 H 0.62087 0.63426 0.83988 0.0
H609 H 0.63682 0.59152 0.90135 0.0
H610 H 0.53404 0.59776 0.907 0.0
H611 H 0.70237 0.56106 0.87498 0.0
H612 H 0.66484 0.67099 0.89102 0.0
H613 H 0.62544 0.72566 0.88747 0.0
H614 H 0.71132 0.73691 0.82817 0.0
H615 H 0.74963 0.68182 0.83098 0.0
C616 C 0.9732 0.59394 0.88547 0.0
C617 C 0.00631 0.59854 0.86716 0.0
C618 C 0.91354 0.59738 0.88498 0.0
C619 C 0.88551 0.60564 0.86623 0.0
C620 C 0.9184 0.61194 0.84818 0.0
C621 C 0.97829 0.60824 0.84859 0.0
C622 C 0.82175 0.60666 0.86553 0.0
C623 C 0.79444 0.63609 0.86162 0.0
C624 C 0.78808 0.57926 0.87031 0.0
C625 C 0.81444 0.54731 0.8742 0.0
C626 C 0.85168 0.53351 0.85933 0.0
C627 C 0.87688 0.50359 0.86322 0.0
C628 C 0.86482 0.48709 0.88186 0.0
C629 C 0.82739 0.50045 0.89663 0.0
C630 C 0.80216 0.5304 0.89283 0.0
C631 C 0.5429 0.63063 0.85789 0.0
C632 C 0.51741 0.6209 0.87695 0.0
C633 C 0.60203 0.62653 0.85459 0.0
C634 C 0.63693 0.61329 0.87041 0.0
C635 C 0.61103 0.6021 0.88897 0.0
C636 C 0.55202 0.60575 0.89217 0.0
C637 C 0.70057 0.61177 0.86805 0.0
C638 C 0.72806 0.58218 0.87146 0.0
C639 C 0.73437 0.63923 0.86316 0.0
C640 C 0.70929 0.67193 0.86104 0.0
C641 C 0.67448 0.68483 0.87702 0.0
C642 C 0.65247 0.71597 0.87517 0.0
C643 C 0.66578 0.73473 0.85759 0.0
C644 C 0.70106 0.72236 0.84179 0.0
C645 C 0.72266 0.6911 0.84345 0.0
H646 H 0.6488 0.75886 0.85622 0.0
H647 H 0.88436 0.46392 0.88484 0.0
H648 H 0.52414 0.38445 0.15782 0.0
H649 H 0.44552 0.39058 0.18314 0.0
H650 H 0.56704 0.42209 0.22994 0.0
H651 H 0.64529 0.41565 0.20508 0.0
H652 H 0.43045 0.35979 0.22003 0.0
H653 H 0.50864 0.48217 0.25932 0.0
H654 H 0.53737 0.53627 0.2476 0.0
H655 H 0.46466 0.5185 0.18676 0.0
H656 H 0.43478 0.46444 0.1981 0.0
H657 H 0.46182 0.35366 0.32489 0.0
H658 H 0.46176 0.36056 0.28713 0.0
H659 H 0.33918 0.43792 0.29261 0.0
H660 H 0.33999 0.43162 0.33093 0.0
H661 H 0.42091 0.45451 0.26712 0.0
H662 H 0.29752 0.36732 0.26892 0.0
H663 H 0.25641 0.3156 0.28047 0.0
H664 H 0.40439 0.2659 0.25674 0.0
H665 H 0.4472 0.31726 0.24562 0.0
C666 C 0.53413 0.39236 0.17355 0.0
C667 C 0.59119 0.39916 0.17943 0.0
C668 C 0.48908 0.3962 0.18789 0.0
C669 C 0.50041 0.40743 0.20822 0.0
C670 C 0.5572 0.41416 0.21413 0.0
C671 C 0.60207 0.41005 0.19994 0.0
C672 C 0.45484 0.40923 0.22433 0.0
C673 C 0.42742 0.38059 0.23021 0.0
C674 C 0.44809 0.43704 0.23684 0.0
C675 C 0.46887 0.46911 0.22966 0.0
C676 C 0.49834 0.48976 0.24347 0.0
C677 C 0.51495 0.52048 0.23688 0.0
C678 C 0.50238 0.5309 0.21652 0.0
C679 C 0.47412 0.51044 0.20257 0.0
C680 C 0.45743 0.47971 0.20906 0.0
C681 C 0.43449 0.37209 0.31819 0.0
C682 C 0.40071 0.39203 0.331 0.0
C683 C 0.4339 0.37572 0.29649 0.0
C684 C 0.39908 0.3991 0.28697 0.0
C685 C 0.36559 0.41935 0.29964 0.0
C686 C 0.36631 0.4158 0.32152 0.0
C687 C 0.40348 0.40397 0.26399 0.0
C688 C 0.42237 0.43397 0.25668 0.0
C689 C 0.40133 0.3776 0.24998 0.0
C690 C 0.37555 0.34631 0.25635 0.0
C691 C 0.32147 0.34539 0.26625 0.0
C692 C 0.2979 0.31609 0.27278 0.0
C693 C 0.32777 0.28746 0.26937 0.0
C694 C 0.38125 0.28807 0.25939 0.0
C695 C 0.40518 0.3173 0.25294 0.0
H696 H 0.30947 0.26481 0.27444 0.0
H697 H 0.51448 0.55485 0.21155 0.0
H698 H 0.04236 0.12576 0.82755 0.0
H699 H 0.97486 0.12198 0.798 0.0
H700 H 0.07339 0.04337 0.7724 0.0
H701 H 0.14071 0.04731 0.80147 0.0
H702 H 0.06162 0.08914 0.7447 0.0
H703 H 0.94025 0.03142 0.79102 0.0
H704 H 0.88547 0.0202 0.82335 0.0
H705 H 0.77761 0.10188 0.81138 0.0
H706 H 0.83277 0.11418 0.77921 0.0
H707 H 0.85945 0.06522 0.65948 0.0
H708 H 0.87708 0.0506 0.69634 0.0
H709 H 0.91026 0.15004 0.71094 0.0
H710 H 0.89321 0.1648 0.67444 0.0
H711 H 0.84837 0.08445 0.74385 0.0
H712 H 0.05259 0.14236 0.7155 0.0
H713 H 0.10622 0.15142 0.68246 0.0
H714 H 0.04841 0.06024 0.65905 0.0
H715 H 0.99517 0.05054 0.69203 0.0
C716 C 0.04886 0.10742 0.81577 0.0
C717 C 0.09715 0.08724 0.81656 0.0
C718 C 0.01025 0.10514 0.79899 0.0
C719 C 0.0193 0.08238 0.78304 0.0
C720 C 0.06589 0.06121 0.78448 0.0
C721 C 0.10454 0.06369 0.80101 0.0
C722 C 0.98508 0.08309 0.76352 0.0
C723 C 0.01506 0.08752 0.74461 0.0
C724 C 0.92433 0.08097 0.76336 0.0
C725 C 0.89109 0.07391 0.78276 0.0
C726 C 0.90531 0.04726 0.79538 0.0
C727 C 0.87415 0.04067 0.81367 0.0
C728 C 0.82821 0.06035 0.81941 0.0
C729 C 0.81331 0.08669 0.8069 0.0
C730 C 0.84456 0.0935 0.78864 0.0
C731 C 0.86866 0.08403 0.67073 0.0
C732 C 0.87673 0.11597 0.66408 0.0
C733 C 0.878 0.0757 0.69176 0.0
C734 C 0.89496 0.09932 0.70617 0.0
C735 C 0.89685 0.1316 0.69997 0.0
C736 C 0.88806 0.13987 0.67906 0.0
C737 C 0.92538 0.09029 0.7255 0.0
C738 C 0.89495 0.08505 0.74421 0.0
C739 C 0.98599 0.09073 0.72562 0.0
C740 C 0.01969 0.09586 0.70611 0.0
C741 C 0.0517 0.1242 0.70333 0.0
C742 C 0.08192 0.12946 0.68462 0.0
C743 C 0.08061 0.10644 0.66865 0.0
C744 C 0.04928 0.07808 0.6714 0.0
C745 C 0.01907 0.0727 0.69008 0.0
H746 H 0.10395 0.11054 0.65418 0.0
H747 H 0.80413 0.05509 0.83353 0.0
H748 H 0.71761 0.60923 0.70894 0.0
H749 H 0.64834 0.61597 0.73746 0.0
H750 H 0.52366 0.65269 0.69338 0.0
H751 H 0.59153 0.64465 0.66482 0.0
H752 H 0.58746 0.66808 0.75314 0.0
H753 H 0.39471 0.62601 0.70631 0.0
H754 H 0.3734 0.59531 0.67416 0.0
H755 H 0.52182 0.53619 0.68471 0.0
H756 H 0.54381 0.56645 0.71705 0.0
H757 H 0.27434 0.6314 0.79593 0.0
H758 H 0.3414 0.64517 0.76768 0.0
H759 H 0.48384 0.61926 0.8077 0.0
H760 H 0.41716 0.60656 0.83612 0.0
H761 H 0.40719 0.60469 0.74852 0.0
H762 H 0.58235 0.64867 0.80157 0.0
H763 H 0.60193 0.68838 0.82946 0.0
H764 H 0.48352 0.75433 0.80109 0.0
H765 H 0.46024 0.71419 0.7738 0.0
C766 C 0.67551 0.61882 0.70529 0.0
C767 C 0.65997 0.62632 0.68448 0.0
C768 C 0.63618 0.62287 0.72164 0.0
C769 C 0.5808 0.63448 0.71745 0.0
C770 C 0.566 0.64329 0.69689 0.0
C771 C 0.60501 0.63889 0.68056 0.0
C772 C 0.5374 0.63538 0.73436 0.0
C773 C 0.54828 0.65399 0.75225 0.0
C774 C 0.48523 0.6181 0.73277 0.0
C775 C 0.47095 0.59855 0.71402 0.0
C776 C 0.42248 0.60626 0.70186 0.0
C777 C 0.4104 0.58902 0.68357 0.0
C778 C 0.44626 0.56385 0.67735 0.0
C779 C 0.49412 0.55574 0.68951 0.0
C780 C 0.50644 0.57293 0.70783 0.0
C781 C 0.32006 0.62912 0.79875 0.0
C782 C 0.34069 0.61783 0.81814 0.0
C783 C 0.3583 0.63718 0.78268 0.0
C784 C 0.41775 0.63381 0.78566 0.0
C785 C 0.43839 0.62322 0.80523 0.0
C786 C 0.4002 0.61561 0.82141 0.0
C787 C 0.45751 0.63701 0.76761 0.0
C788 C 0.44607 0.61902 0.74944 0.0
C789 C 0.5084 0.65547 0.7687 0.0
C790 C 0.51907 0.67838 0.78592 0.0
C791 C 0.55987 0.67147 0.80152 0.0
C792 C 0.57141 0.69396 0.81724 0.0
C793 C 0.54382 0.72377 0.81713 0.0
C794 C 0.50421 0.73105 0.80134 0.0
C795 C 0.49115 0.70828 0.78594 0.0
H796 H 0.5533 0.74125 0.82921 0.0
H797 H 0.43693 0.55064 0.66312 0.0
H798 H 0.78466 0.84701 0.19301 0.0
H799 H 0.85673 0.83411 0.21982 0.0
H800 H 0.97646 0.89903 0.18972 0.0
H801 H 0.90607 0.90979 0.16213 0.0
H802 H 0.03314 0.85242 0.20483 0.0
H803 H 0.88045 0.92003 0.2321 0.0
H804 H 0.77883 0.93178 0.24 0.0
H805 H 0.77102 0.84958 0.28085 0.0
H806 H 0.87227 0.83691 0.27281 0.0
H807 H 0.19416 0.91829 0.28821 0.0
H808 H 0.12947 0.90696 0.25898 0.0
H809 H 0.04781 0.83211 0.29537 0.0
H810 H 0.11306 0.84307 0.3246 0.0
H811 H 0.9711 0.87327 0.27816 0.0
H812 H 0.13408 0.81296 0.25409 0.0
H813 H 0.23573 0.80396 0.24487 0.0
H814 H 0.22631 0.87834 0.19809 0.0
H815 H 0.12478 0.88796 0.20711 0.0
C816 C 0.82672 0.85812 0.19213 0.0
C817 C 0.83998 0.87978 0.17594 0.0
C818 C 0.86772 0.85084 0.20739 0.0
C819 C 0.92137 0.86636 0.20715 0.0
C820 C 0.93528 0.88689 0.19033 0.0
C821 C 0.89505 0.89324 0.17468 0.0
C822 C 0.96155 0.86342 0.22507 0.0
C823 C 0.01965 0.8571 0.22086 0.0
C824 C 0.94367 0.86882 0.24607 0.0
C825 C 0.88359 0.87723 0.25158 0.0
C826 C 0.85694 0.90436 0.24267 0.0
C827 C 0.79936 0.9111 0.2471 0.0
C828 C 0.76832 0.89123 0.26073 0.0
C829 C 0.79498 0.86476 0.27013 0.0
C830 C 0.85243 0.85778 0.26564 0.0
C831 C 0.16272 0.89925 0.28994 0.0
C832 C 0.15784 0.88194 0.30884 0.0
C833 C 0.12607 0.89268 0.27319 0.0
C834 C 0.08437 0.86847 0.27497 0.0
C835 C 0.07981 0.85087 0.29372 0.0
C836 C 0.11654 0.85743 0.31049 0.0
C837 C 0.04288 0.86329 0.2578 0.0
C838 C 0.98447 0.86804 0.26219 0.0
C839 C 0.06074 0.85721 0.23693 0.0
C840 C 0.12186 0.85134 0.23142 0.0
C841 C 0.15378 0.82755 0.24194 0.0
C842 C 0.21137 0.82229 0.23671 0.0
C843 C 0.2375 0.84062 0.22094 0.0
C844 C 0.20607 0.86421 0.21034 0.0
C845 C 0.14843 0.86949 0.21545 0.0
H846 H 0.28207 0.83649 0.2169 0.0
H847 H 0.72379 0.89654 0.26418 0.0
H848 H 0.79305 0.17257 0.53501 0.0
H849 H 0.72842 0.20485 0.51357 0.0
H850 H 0.63785 0.11936 0.49456 0.0
H851 H 0.70229 0.08665 0.516 0.0
H852 H 0.64052 0.17823 0.46413 0.0
H853 H 0.58556 0.14317 0.53601 0.0
H854 H 0.61468 0.13495 0.57295 0.0
H855 H 0.66078 0.23461 0.57773 0.0
H856 H 0.63164 0.24342 0.5408 0.0
H857 H 0.39034 0.25818 0.4413 0.0
H858 H 0.44266 0.21492 0.45889 0.0
H859 H 0.51756 0.28377 0.50147 0.0
H860 H 0.46291 0.32653 0.48495 0.0
H861 H 0.52063 0.22908 0.51953 0.0
H862 H 0.57863 0.26742 0.4509 0.0
H863 H 0.56339 0.27961 0.41336 0.0
H864 H 0.52606 0.18026 0.40136 0.0
H865 H 0.541 0.16748 0.4389 0.0
C866 C 0.76137 0.16031 0.52549 0.0
C867 C 0.75137 0.12714 0.52787 0.0
C868 C 0.7243 0.1789 0.51325 0.0
C869 C 0.67756 0.16445 0.50306 0.0
C870 C 0.67341 0.13089 0.50255 0.0
C871 C 0.71029 0.11226 0.51487 0.0
C872 C 0.62718 0.18413 0.49732 0.0
C873 C 0.61368 0.189 0.47615 0.0
C874 C 0.59311 0.19856 0.51311 0.0
C875 C 0.60634 0.19394 0.53572 0.0
C876 C 0.60151 0.16336 0.54501 0.0
C877 C 0.61805 0.1586 0.56592 0.0
C878 C 0.63939 0.18429 0.57769 0.0
C879 C 0.64382 0.21483 0.56862 0.0
C880 C 0.62709 0.21974 0.54774 0.0
C881 C 0.41574 0.26384 0.45507 0.0
C882 C 0.42413 0.29594 0.46124 0.0
C883 C 0.44623 0.23914 0.46496 0.0
C884 C 0.48654 0.2464 0.4807 0.0
C885 C 0.48779 0.27761 0.48902 0.0
C886 C 0.45622 0.30216 0.47952 0.0
C887 C 0.53326 0.22347 0.48612 0.0
C888 C 0.54652 0.21799 0.50736 0.0
C889 C 0.56799 0.20913 0.47032 0.0
C890 C 0.56041 0.21655 0.44769 0.0
C891 C 0.5671 0.2482 0.44025 0.0
C892 C 0.55848 0.25522 0.41899 0.0
C893 C 0.54351 0.23077 0.405 0.0
C894 C 0.53755 0.19918 0.41223 0.0
C895 C 0.54621 0.19201 0.43348 0.0
H896 H 0.53667 0.23628 0.38855 0.0
H897 H 0.65257 0.18052 0.59382 0.0
H898 H 0.7313 0.39004 0.02657 0.0
H899 H 0.79583 0.36837 -0.00018 0.0
H900 H 0.89956 0.32479 0.04835 0.0
H901 H 0.83672 0.34792 0.0752 0.0
H902 H 0.96539 0.33817 0.01615 0.0
H903 H 0.78651 0.28425 0.02586 0.0
H904 H 0.68115 0.27903 0.02849 0.0
H905 H 0.66362 0.3098 0.96435 0.0
H906 H 0.76889 0.31571 0.96145 0.0
H907 H 0.04346 0.19331 0.96347 0.0
H908 H 0.00078 0.23311 0.98694 0.0
H909 H 0.93679 0.28595 0.93347 0.0
H910 H 0.97987 0.24632 0.90976 0.0
H911 H 0.85388 0.27104 0.96625 0.0
H912 H 0.04439 0.31603 0.95799 0.0
H913 H 0.14987 0.3109 0.9584 0.0
H914 H 0.14554 0.28681 0.02398 0.0
H915 H 0.03967 0.29048 0.02377 0.0
C916 C 0.76892 0.37668 0.03151 0.0
C917 C 0.77863 0.37017 0.05287 0.0
C918 C 0.80559 0.36418 0.01624 0.0
C919 C 0.85132 0.34401 0.02206 0.0
C920 C 0.86422 0.34002 0.04347 0.0
C921 C 0.82828 0.35323 0.05881 0.0
C922 C 0.88068 0.32402 0.00602 0.0
C923 C 0.941 0.32351 0.00526 0.0
C924 C 0.8489 0.30456 0.9919 0.0
C925 C 0.78554 0.3008 0.99352 0.0
C926 C 0.76016 0.29013 0.01237 0.0
C927 C 0.70046 0.28702 0.01391 0.0
C928 C 0.6657 0.29417 0.99662 0.0
C929 C 0.6906 0.30434 0.97774 0.0
C930 C 0.75028 0.30758 0.97614 0.0
C931 C 0.02056 0.21347 0.95667 0.0
C932 C 0.01503 0.21671 0.93476 0.0
C933 C 0.99647 0.23624 0.9701 0.0
C934 C 0.96609 0.26249 0.96188 0.0
C935 C 0.9604 0.26587 0.94005 0.0
C936 C 0.98517 0.24331 0.92656 0.0
C937 C 0.93824 0.2856 0.97623 0.0
C938 C 0.87812 0.28634 0.97683 0.0
C939 C 0.97025 0.30431 0.99061 0.0
C940 C 0.03404 0.30351 0.99089 0.0
C941 C 0.06585 0.30955 0.9725 0.0
C942 C 0.12572 0.3069 0.97267 0.0
C943 C 0.15443 0.29878 0.99121 0.0
C944 C 0.12327 0.29322 0.00964 0.0
C945 C 0.06332 0.29554 0.0095 0.0
H946 H 0.20077 0.29669 0.99126 0.0
H947 H 0.6195 0.29174 0.99785 0.0
H948 H 0.90065 0.26097 0.5614 0.0
H949 H 0.95633 0.30375 0.54451 0.0
H950 H 0.0105 0.2377 0.49639 0.0
H951 H 0.95437 0.19497 0.51275 0.0
H952 H 0.09813 0.26793 0.52954 0.0
H953 H 0.95699 0.28862 0.47455 0.0
H954 H 0.86134 0.30302 0.46074 0.0
H955 H 0.86524 0.39128 0.49556 0.0
H956 H 0.96088 0.37726 0.50966 0.0
H957 H 0.28323 0.34081 0.45663 0.0
H958 H 0.21844 0.31174 0.4797 0.0
H959 H 0.14147 0.40116 0.49935 0.0
H960 H 0.205 0.43045 0.47544 0.0
H961 H 0.06193 0.36432 0.48558 0.0
H962 H 0.21326 0.34795 0.53436 0.0
H963 H 0.31106 0.33438 0.5463 0.0
H964 H 0.28996 0.23787 0.52382 0.0
H965 H 0.19232 0.25095 0.51145 0.0
C966 C 0.92231 0.25584 0.54671 0.0
C967 C 0.92425 0.22427 0.53875 0.0
C968 C 0.95427 0.28033 0.53713 0.0
C969 C 0.9882 0.27356 0.5195 0.0
C970 C 0.98475 0.2432 0.51011 0.0
C971 C 0.95231 0.21884 0.51947 0.0
C972 C 0.03444 0.29585 0.51314 0.0
C973 C 0.0906 0.28892 0.51977 0.0
C974 C 0.02379 0.32374 0.50119 0.0
C975 C 0.96556 0.33167 0.4934 0.0
C976 C 0.93703 0.31086 0.4795 0.0
C977 C 0.88298 0.31903 0.47154 0.0
C978 C 0.8571 0.34798 0.47735 0.0
C979 C 0.88525 0.36882 0.49113 0.0
C980 C 0.93938 0.36078 0.4991 0.0
C981 C 0.25423 0.3545 0.46647 0.0
C982 C 0.24853 0.38791 0.46389 0.0
C983 C 0.21694 0.33776 0.47974 0.0
C984 C 0.17448 0.35418 0.49119 0.0
C985 C 0.17332 0.38791 0.49048 0.0
C986 C 0.21 0.40465 0.47693 0.0
C987 C 0.12683 0.33595 0.50127 0.0
C988 C 0.07001 0.34365 0.49556 0.0
C989 C 0.13701 0.3087 0.51411 0.0
C990 C 0.19543 0.30051 0.52188 0.0
C991 C 0.22953 0.32387 0.53186 0.0
C992 C 0.28496 0.31626 0.53871 0.0
C993 C 0.30673 0.2853 0.53579 0.0
C994 C 0.27303 0.26184 0.52608 0.0
C995 C 0.21757 0.26933 0.51918 0.0
H996 H 0.3497 0.27947 0.54108 0.0
H997 H 0.81536 0.35432 0.4711 0.0
H998 H 0.5146 0.30801 0.0329 0.0
H999 H 0.46769 0.26972 0.00956 0.0
H1000 H 0.50611 0.19264 0.05269 0.0
H1001 H 0.55266 0.2309 0.07648 0.0
H1002 H 0.52059 0.17971 0.00574 0.0
H1003 H 0.38587 0.21684 0.05848 0.0
H1004 H 0.33582 0.25821 0.07928 0.0
H1005 H 0.2691 0.30038 0.0227 0.0
H1006 H 0.3195 0.25951 0.00151 0.0
H1007 H 0.21376 0.11462 0.97221 0.0
H1008 H 0.28242 0.13554 0.9978 0.0
H1009 H 0.39807 0.16117 0.94737 0.0
H1010 H 0.33092 0.13886 0.92188 0.0
H1011 H 0.30946 0.19493 0.00105 0.0
H1012 H 0.53207 0.17213 0.96433 0.0
H1013 H 0.58 0.1314 0.94234 0.0
H1014 H 0.46878 0.05827 0.96729 0.0
H1015 H 0.4205 0.09851 0.98957 0.0
C1016 C 0.51388 0.28288 0.03737 0.0
C1017 C 0.5367 0.27259 0.05673 0.0
C1018 C 0.48715 0.26106 0.02397 0.0
C1019 C 0.4833 0.22853 0.02953 0.0
C1020 C 0.50887 0.21772 0.04819 0.0
C1021 C 0.53507 0.23964 0.06179 0.0
C1022 C 0.44769 0.20665 0.01679 0.0
C1023 C 0.47437 0.18273 0.00475 0.0
C1024 C 0.38751 0.21071 0.01571 0.0
C1025 C 0.35703 0.23532 0.0284 0.0
C1026 C 0.36102 0.23513 0.05046 0.0
C1027 C 0.33245 0.25844 0.06232 0.0
C1028 C 0.29937 0.28194 0.05231 0.0
C1029 C 0.29474 0.28215 0.03042 0.0
C1030 C 0.32329 0.25891 0.01848 0.0
C1031 C 0.25452 0.12396 0.96666 0.0
C1032 C 0.26689 0.12528 0.94508 0.0
C1033 C 0.29365 0.13598 0.98127 0.0
C1034 C 0.3455 0.14994 0.97456 0.0
C1035 C 0.359 0.14996 0.95303 0.0
C1036 C 0.32037 0.13732 0.93844 0.0
C1037 C 0.38197 0.16762 0.98977 0.0
C1038 C 0.35551 0.19122 0.00219 0.0
C1039 C 0.44221 0.16309 0.99118 0.0
C1040 C 0.47251 0.13839 0.97855 0.0
C1041 C 0.51817 0.14731 0.96526 0.0
C1042 C 0.54527 0.12433 0.95269 0.0
C1043 C 0.52736 0.09228 0.95338 0.0
C1044 C 0.48251 0.08312 0.96673 0.0
C1045 C 0.45521 0.10601 0.97931 0.0
H1046 H 0.54827 0.07455 0.94358 0.0
H1047 H 0.27723 0.29994 0.06152 0.0
H1048 H 0.25877 0.86677 0.46737 0.0
H1049 H 0.33297 0.85393 0.4931 0.0
H1050 H 0.46209 0.85823 0.44448 0.0
H1051 H 0.38809 0.87093 0.41857 0.0
H1052 H 0.45763 0.80042 0.46455 0.0
H1053 H 0.46829 0.91061 0.48439 0.0
H1054 H 0.43129 0.96367 0.49498 0.0
H1055 H 0.35994 0.9224 0.55114 0.0
H1056 H 0.39565 0.86896 0.54074 0.0
H1057 H 0.64547 0.7318 0.53858 0.0
H1058 H 0.60758 0.76941 0.51241 0.0
H1059 H 0.471 0.79532 0.55522 0.0
H1060 H 0.51228 0.75985 0.58197 0.0
H1061 H 0.49658 0.84506 0.53531 0.0
H1062 H 0.45505 0.73626 0.51121 0.0
H1063 H 0.47635 0.68086 0.49985 0.0
H1064 H 0.5923 0.71694 0.45284 0.0
H1065 H 0.57081 0.77261 0.46371 0.0
C1066 C 0.30309 0.86566 0.46221 0.0
C1067 C 0.31745 0.86934 0.44088 0.0
C1068 C 0.34554 0.85864 0.47699 0.0
C1069 C 0.40299 0.85523 0.47068 0.0
C1070 C 0.41797 0.8609 0.44964 0.0
C1071 C 0.37557 0.86811 0.43486 0.0
C1072 C 0.44502 0.84068 0.48525 0.0
C1073 C 0.46746 0.81056 0.47984 0.0
C1074 C 0.4561 0.85353 0.50538 0.0
C1075 C 0.43449 0.88569 0.51171 0.0
C1076 C 0.44432 0.91277 0.49892 0.0
C1077 C 0.42363 0.94294 0.5049 0.0
C1078 C 0.39323 0.9464 0.52371 0.0
C1079 C 0.3835 0.91969 0.53658 0.0
C1080 C 0.40405 0.88945 0.53065 0.0
C1081 C 0.60798 0.74607 0.5424 0.0
C1082 C 0.58159 0.74323 0.56212 0.0
C1083 C 0.58593 0.76724 0.52741 0.0
C1084 C 0.53542 0.78464 0.53156 0.0
C1085 C 0.51003 0.78228 0.55158 0.0
C1086 C 0.53339 0.762 0.56685 0.0
C1087 C 0.50734 0.80416 0.5149 0.0
C1088 C 0.48774 0.8352 0.51988 0.0
C1089 C 0.4973 0.79185 0.49448 0.0
C1090 C 0.51187 0.75847 0.48843 0.0
C1091 C 0.48538 0.73232 0.49856 0.0
C1092 C 0.49727 0.70091 0.49213 0.0
C1093 C 0.53589 0.69537 0.47571 0.0
C1094 C 0.56245 0.72126 0.46558 0.0
C1095 C 0.55024 0.75274 0.47179 0.0
H1096 H 0.5451 0.67102 0.4708 0.0
H1097 H 0.37728 0.96978 0.52832 0.0
H1098 H 0.9138 0.82612 0.02325 0.0
H1099 H 0.95539 0.78804 -0.00177 0.0
H1100 H 0.96595 0.71628 0.04712 0.0
H1101 H 0.92449 0.75386 0.07215 0.0
H1102 H 0.06106 0.75909 -0.0 0.0
H1103 H 0.94203 0.64309 0.02598 0.0
H1104 H 0.84808 0.62839 0.0412 0.0
H1105 H 0.77132 0.7118 0.01301 0.0
H1106 H 0.86452 0.72674 0.99732 0.0
H1107 H 0.22335 0.62735 0.9735 0.0
H1108 H 0.15441 0.65677 0.99492 0.0
H1109 H 0.03056 0.65275 0.94464 0.0
H1110 H 0.09934 0.62321 0.92293 0.0
H1111 H 0.9824 0.64977 0.98744 0.0
H1112 H 0.10677 0.71453 0.94363 0.0
H1113 H 0.20062 0.73056 0.92891 0.0
H1114 H 0.26243 0.75214 0.99086 0.0
H1115 H 0.16899 0.73602 0.00598 0.0
C1116 C 0.92473 0.8022 0.02866 0.0
C1117 C 0.91588 0.79309 0.04973 0.0
C1118 C 0.94849 0.78051 0.01435 0.0
C1119 C 0.96325 0.74932 0.02081 0.0
C1120 C 0.95407 0.74011 0.04175 0.0
C1121 C 0.93056 0.76173 0.05606 0.0
C1122 C 0.99068 0.72667 0.00601 0.0
C1123 C 0.04358 0.73533 0.9971 0.0
C1124 C 0.96743 0.69579 0.0021 0.0
C1125 C 0.91046 0.68611 0.01057 0.0
C1126 C 0.90501 0.65813 0.02285 0.0
C1127 C 0.85189 0.6498 0.0316 0.0
C1128 C 0.80381 0.6692 0.02812 0.0
C1129 C 0.80864 0.69686 0.01574 0.0
C1130 C 0.86161 0.70526 0.00692 0.0
C1131 C 0.18092 0.63184 0.96716 0.0
C1132 C 0.16737 0.62361 0.94632 0.0
C1133 C 0.14158 0.64866 0.97944 0.0
C1134 C 0.08808 0.65747 0.97113 0.0
C1135 C 0.07189 0.64628 0.95123 0.0
C1136 C 0.11133 0.62941 0.93886 0.0
C1137 C 0.05329 0.68202 0.98199 0.0
C1138 C 0.99928 0.67371 0.99014 0.0
C1139 C 0.07508 0.71345 0.98503 0.0
C1140 C 0.13097 0.72386 0.97595 0.0
C1141 C 0.14044 0.72256 0.95413 0.0
C1142 C 0.19354 0.73172 0.94571 0.0
C1143 C 0.23745 0.74239 0.95895 0.0
C1144 C 0.22831 0.74397 0.98063 0.0
C1145 C 0.17525 0.73488 0.98912 0.0
H1146 H 0.27852 0.74948 0.95241 0.0
H1147 H 0.76281 0.66279 0.035 0.0
H1148 H 0.1112 0.7817 0.45652 0.0
H1149 H 0.06363 0.74223 0.47916 0.0
H1150 H 0.98361 0.69928 0.42493 0.0
H1151 H 0.03178 0.73844 0.40208 0.0
H1152 H 0.90757 0.72104 0.45804 0.0
H1153 H 0.07396 0.65588 0.44801 0.0
H1154 H 0.17801 0.64504 0.4468 0.0
H1155 H 0.19184 0.66637 0.5126 0.0
H1156 H 0.08802 0.67799 0.51413 0.0
H1157 H 0.75092 0.6232 0.52632 0.0
H1158 H 0.81468 0.63584 0.49693 0.0
H1159 H 0.94433 0.66839 0.54052 0.0
H1160 H 0.88174 0.65421 0.56998 0.0
H1161 H 0.99535 0.64399 0.50825 0.0
H1162 H 0.8422 0.72097 0.51735 0.0
H1163 H 0.74237 0.74051 0.5198 0.0
H1164 H 0.70714 0.70419 0.45804 0.0
H1165 H 0.80685 0.68431 0.45525 0.0
C1166 C 0.08407 0.76359 0.44939 0.0
C1167 C 0.07461 0.76332 0.42759 0.0
C1168 C 0.05735 0.74094 0.46231 0.0
C1169 C 0.02035 0.7179 0.45364 0.0
C1170 C 0.0123 0.71685 0.43182 0.0
C1171 C 0.03984 0.73917 0.41884 0.0
C1172 C 0.98546 0.69743 0.46768 0.0
C1173 C 0.92636 0.70351 0.46866 0.0
C1174 C 0.01075 0.67551 0.48191 0.0
C1175 C 0.07313 0.66802 0.48115 0.0
C1176 C 0.09921 0.65851 0.4622 0.0
C1177 C 0.15818 0.65219 0.46146 0.0
C1178 C 0.19153 0.65505 0.47961 0.0
C1179 C 0.16594 0.66417 0.49855 0.0
C1180 C 0.10701 0.67059 0.49936 0.0
C1181 C 0.79354 0.6324 0.52961 0.0
C1182 C 0.81118 0.63825 0.55036 0.0
C1183 C 0.82983 0.63974 0.51282 0.0
C1184 C 0.8836 0.654 0.51649 0.0
C1185 C 0.90289 0.6576 0.53728 0.0
C1186 C 0.86708 0.64956 0.55411 0.0
C1187 C 0.91729 0.66799 0.4989 0.0
C1188 C 0.97617 0.66087 0.4973 0.0
C1189 C 0.89212 0.68969 0.48435 0.0
C1190 C 0.83176 0.70086 0.48619 0.0
C1191 C 0.81303 0.71693 0.50437 0.0
C1192 C 0.75654 0.72817 0.50578 0.0
C1193 C 0.71849 0.72366 0.48906 0.0
C1194 C 0.73674 0.70774 0.47094 0.0
C1195 C 0.79323 0.69651 0.46943 0.0
H1196 H 0.6748 0.73238 0.4902 0.0
H1197 H 0.23718 0.65016 0.479 0.0
H1198 H 0.37538 0.70313 0.96754 0.0
H1199 H 0.41895 0.7436 0.99058 0.0
H1200 H 0.49657 0.78951 0.93677 0.0
H1201 H 0.45218 0.74976 0.91359 0.0
H1202 H 0.57257 0.76921 0.9732 0.0
H1203 H 0.39814 0.82758 0.95557 0.0
H1204 H 0.29275 0.83223 0.9531 0.0
H1205 H 0.27808 0.81867 0.0198 0.0
H1206 H 0.3834 0.8133 0.02262 0.0
H1207 H 0.71162 0.89485 0.02184 0.0
H1208 H 0.64578 0.86949 0.99704 0.0
H1209 H 0.53179 0.84461 0.04805 0.0
H1210 H 0.5965 0.87083 0.07289 0.0
H1211 H 0.47105 0.85445 0.01312 0.0
H1212 H 0.63322 0.79227 0.03299 0.0
H1213 H 0.73553 0.78017 0.03913 0.0
H1214 H 0.77052 0.79184 0.9733 0.0
H1215 H 0.66842 0.80456 0.96679 0.0
C1216 C 0.40132 0.72203 0.96062 0.0
C1217 C 0.41064 0.72325 0.9388 0.0
C1218 C 0.42591 0.74512 0.97376 0.0
C1219 C 0.46088 0.76937 0.96529 0.0
C1220 C 0.46957 0.77093 0.94352 0.0
C1221 C 0.44406 0.74829 0.93034 0.0
C1222 C 0.49126 0.79199 0.97923 0.0
C1223 C 0.55069 0.78826 0.98165 0.0
C1224 C 0.46186 0.81569 0.99091 0.0
C1225 C 0.39867 0.81976 0.98928 0.0
C1226 C 0.37244 0.82534 0.9697 0.0
C1227 C 0.31271 0.82816 0.96823 0.0
C1228 C 0.27875 0.82574 0.98628 0.0
C1229 C 0.30446 0.82058 0.00584 0.0
C1230 C 0.36418 0.81765 0.00738 0.0
C1231 C 0.67174 0.8848 0.0277 0.0
C1232 C 0.65985 0.88424 0.04935 0.0
C1233 C 0.63425 0.87021 0.01353 0.0
C1234 C 0.58484 0.85429 0.02081 0.0
C1235 C 0.56997 0.85649 0.04213 0.0
C1236 C 0.6071 0.8715 0.05631 0.0
C1237 C 0.55294 0.83229 0.00671 0.0
C1238 C 0.4932 0.83576 0.00446 0.0
C1239 C 0.58173 0.80749 0.99566 0.0
C1240 C 0.64324 0.79977 -0.00056 0.0
C1241 C 0.6628 0.79254 0.01984 0.0
C1242 C 0.72075 0.78553 0.02339 0.0
C1243 C 0.75956 0.78536 0.00663 0.0
C1244 C 0.74042 0.79208 0.98628 0.0
C1245 C 0.6825 0.79919 0.98264 0.0
H1246 H 0.8044 0.77991 0.00942 0.0
H1247 H 0.2325 0.82783 0.98511 0.0
H1248 H 0.36681 0.03246 0.3924 0.0
H1249 H 0.36067 0.09097 0.39199 0.0
H1250 H 0.3059 0.08876 0.32728 0.0
H1251 H 0.31278 0.03006 0.3274 0.0
H1252 H 0.37787 0.13956 0.33478 0.0
H1253 H 0.20746 0.09505 0.36564 0.0
H1254 H 0.15243 0.06064 0.39002 0.0
H1255 H 0.22503 0.11064 0.44267 0.0
H1256 H 0.28122 0.14503 0.41859 0.0
H1257 H 0.264 0.3004 0.3397 0.0
H1258 H 0.27004 0.24192 0.33471 0.0
H1259 H 0.33039 0.23089 0.39841 0.0
H1260 H 0.32393 0.28868 0.40357 0.0
H1261 H 0.24919 0.18657 0.3888 0.0
H1262 H 0.42249 0.22961 0.35791 0.0
H1263 H 0.47679 0.26436 0.33352 0.0
H1264 H 0.39811 0.21727 0.28088 0.0
H1265 H 0.34222 0.18282 0.30497 0.0
C1266 C 0.35421 0.04433 0.37796 0.0
C1267 C 0.33962 0.02642 0.36 0.0
C1268 C 0.35053 0.07785 0.37778 0.0
C1269 C 0.33159 0.09421 0.35975 0.0
C1270 C 0.32026 0.07662 0.34141 0.0
C1271 C 0.3242 0.04303 0.34153 0.0
C1272 C 0.32045 0.12937 0.36052 0.0
C1273 C 0.3491 0.14982 0.34638 0.0
C1274 C 0.28324 0.14282 0.37578 0.0
C1275 C 0.24892 0.12244 0.3903 0.0
C1276 C 0.21197 0.09857 0.38242 0.0
C1277 C 0.18055 0.07908 0.39618 0.0
C1278 C 0.18533 0.0834 0.41788 0.0
C1279 C 0.22142 0.1073 0.42585 0.0
C1280 C 0.25303 0.12681 0.41215 0.0
C1281 C 0.27804 0.28543 0.35267 0.0
C1282 C 0.29378 0.29923 0.37199 0.0
C1283 C 0.28179 0.25208 0.34976 0.0
C1284 C 0.3011 0.23208 0.36616 0.0
C1285 C 0.31541 0.24581 0.38555 0.0
C1286 C 0.31198 0.27895 0.38842 0.0
C1287 C 0.30735 0.19683 0.36332 0.0
C1288 C 0.27762 0.17632 0.37708 0.0
C1289 C 0.34347 0.18343 0.34772 0.0
C1290 C 0.37762 0.2039 0.33324 0.0
C1291 C 0.41634 0.22689 0.34113 0.0
C1292 C 0.44741 0.24655 0.32736 0.0
C1293 C 0.4407 0.24316 0.30566 0.0
C1294 C 0.40308 0.22001 0.29769 0.0
C1295 C 0.37164 0.20043 0.31139 0.0
H1296 H 0.4648 0.2584 0.29502 0.0
H1297 H 0.16099 0.06827 0.42851 0.0
H1298 H 0.18458 0.20605 0.81739 0.0
H1299 H 0.20541 0.26319 0.8138 0.0
H1300 H 0.31612 0.2583 0.86804 0.0
H1301 H 0.29529 0.20095 0.87161 0.0
H1302 H 0.21884 0.29295 0.87489 0.0
H1303 H 0.36511 0.29063 0.82235 0.0
H1304 H 0.41034 0.27503 0.78886 0.0
H1305 H 0.27278 0.31966 0.75463 0.0
H1306 H 0.22621 0.33515 0.78792 0.0
H1307 H 0.21996 0.45964 0.88849 0.0
H1308 H 0.24676 0.40395 0.8829 0.0
H1309 H 0.16367 0.40553 0.82224 0.0
H1310 H 0.14073 0.46272 0.82719 0.0
H1311 H 0.2562 0.37291 0.8186 0.0
H1312 H 0.10101 0.36506 0.86917 0.0
H1313 H 0.0496 0.37909 0.90184 0.0
H1314 H 0.19759 0.35247 0.93822 0.0
H1315 H 0.24924 0.3376 0.90582 0.0
C1316 C 0.21646 0.21669 0.82767 0.0
C1317 C 0.23773 0.19923 0.84494 0.0
C1318 C 0.2281 0.24951 0.82569 0.0
C1319 C 0.26139 0.26521 0.84092 0.0
C1320 C 0.28997 0.24668 0.85619 0.0
C1321 C 0.27864 0.21374 0.85807 0.0
C1322 C 0.25425 0.3004 0.84395 0.0
C1323 C 0.22841 0.31052 0.86274 0.0
C1324 C 0.26402 0.32311 0.82775 0.0
C1325 C 0.29194 0.31387 0.80767 0.0
C1326 C 0.34421 0.2969 0.80769 0.0
C1327 C 0.37016 0.28812 0.78874 0.0
C1328 C 0.3444 0.2963 0.76963 0.0
C1329 C 0.29269 0.31334 0.76944 0.0
C1330 C 0.26654 0.32217 0.78836 0.0
C1331 C 0.20645 0.44803 0.87409 0.0
C1332 C 0.17704 0.46534 0.85847 0.0
C1333 C 0.22177 0.41603 0.8709 0.0
C1334 C 0.20586 0.39996 0.8524 0.0
C1335 C 0.17622 0.41721 0.83673 0.0
C1336 C 0.16255 0.44976 0.83963 0.0
C1337 C 0.22071 0.36535 0.84954 0.0
C1338 C 0.24737 0.35534 0.8308 0.0
C1339 C 0.21065 0.34236 0.86559 0.0
C1340 C 0.17898 0.35037 0.88511 0.0
C1341 C 0.1224 0.36209 0.88417 0.0
C1342 C 0.09315 0.37006 0.90264 0.0
C1343 C 0.12017 0.36651 0.92212 0.0
C1344 C 0.17642 0.35487 0.92316 0.0
C1345 C 0.20558 0.34649 0.90477 0.0
H1346 H 0.09758 0.37282 0.9364 0.0
H1347 H 0.36456 0.28948 0.75497 0.0
H1348 H 0.81433 0.47974 0.66623 0.0
H1349 H 0.80059 0.42148 0.66668 0.0
H1350 H 0.84011 0.41747 0.60051 0.0
H1351 H 0.85328 0.47562 0.59982 0.0
H1352 H 0.74289 0.38569 0.60891 0.0
H1353 H 0.93379 0.38927 0.63778 0.0
H1354 H 0.00931 0.4061 0.6626 0.0
H1355 H 0.91372 0.36522 0.71386 0.0
H1356 H 0.8372 0.34852 0.68936 0.0
H1357 H 0.79672 0.22296 0.58982 0.0
H1358 H 0.80091 0.28068 0.59538 0.0
H1359 H 0.74699 0.26759 0.65972 0.0
H1360 H 0.74326 0.20901 0.65426 0.0
H1361 H 0.84196 0.30801 0.65576 0.0
H1362 H 0.65443 0.30049 0.6258 0.0
H1363 H 0.58158 0.28245 0.60028 0.0
H1364 H 0.67316 0.32982 0.55046 0.0
H1365 H 0.74689 0.34792 0.57565 0.0
C1366 C 0.82109 0.46645 0.65183 0.0
C1367 C 0.83471 0.48253 0.63297 0.0
C1368 C 0.81318 0.43308 0.65213 0.0
C1369 C 0.81913 0.41506 0.63361 0.0
C1370 C 0.83487 0.43088 0.61496 0.0
C1371 C 0.84273 0.46418 0.61464 0.0
C1372 C 0.8063 0.38001 0.63331 0.0
C1373 C 0.76496 0.3687 0.61904 0.0
C1374 C 0.83358 0.35791 0.64701 0.0
C1375 C 0.87944 0.368 0.66177 0.0
C1376 C 0.92861 0.38414 0.65437 0.0
C1377 C 0.97165 0.39359 0.66837 0.0
C1378 C 0.96623 0.38683 0.6898 0.0
C1379 C 0.91781 0.37051 0.69726 0.0
C1380 C 0.8746 0.36103 0.68332 0.0
C1381 C 0.78536 0.23226 0.60516 0.0
C1382 C 0.76988 0.21139 0.62165 0.0
C1383 C 0.78745 0.26535 0.60827 0.0
C1384 C 0.7739 0.27851 0.62792 0.0
C1385 C 0.75748 0.25788 0.64441 0.0
C1386 C 0.75499 0.22452 0.64125 0.0
C1387 C 0.77946 0.31374 0.6311 0.0
C1388 C 0.81935 0.3251 0.64587 0.0
C1389 C 0.751 0.33593 0.61782 0.0
C1390 C 0.70633 0.32546 0.60262 0.0
C1391 C 0.65917 0.30696 0.60939 0.0
C1392 C 0.61764 0.29679 0.59499 0.0
C1393 C 0.62271 0.30501 0.57377 0.0
C1394 C 0.66924 0.32351 0.56691 0.0
C1395 C 0.71083 0.33382 0.58126 0.0
H1396 H 0.59063 0.29701 0.56264 0.0
H1397 H 0.99961 0.39415 0.70062 0.0
H1398 H 0.65293 0.02379 0.18011 0.0
H1399 H 0.6793 0.07963 0.18808 0.0
H1400 H 0.69957 0.09913 0.12195 0.0
H1401 H 0.67207 0.04397 0.11376 0.0
H1402 H 0.79805 0.11686 0.1506 0.0
H1403 H 0.59016 0.12765 0.14109 0.0
H1404 H 0.48953 0.11434 0.14965 0.0
H1405 H 0.51743 0.14225 0.21377 0.0
H1406 H 0.61855 0.1553 0.20563 0.0
H1407 H 0.7877 0.27887 0.12311 0.0
H1408 H 0.79839 0.22244 0.13174 0.0
H1409 H 0.72197 0.23931 0.1926 0.0
H1410 H 0.70715 0.2956 0.18303 0.0
H1411 H 0.66043 0.19969 0.17493 0.0
H1412 H 0.86155 0.20016 0.18373 0.0
H1413 H 0.96304 0.21329 0.17664 0.0
H1414 H 0.95387 0.16382 0.1176 0.0
H1415 H 0.85209 0.15079 0.12415 0.0
C1416 C 0.66192 0.04014 0.16725 0.0
C1417 C 0.66009 0.02938 0.14629 0.0
C1418 C 0.67738 0.07192 0.17185 0.0
C1419 C 0.69217 0.09324 0.1556 0.0
C1420 C 0.68887 0.08288 0.1347 0.0
C1421 C 0.6724 0.0514 0.13006 0.0
C1422 C 0.71113 0.1265 0.16016 0.0
C1423 C 0.76827 0.13518 0.15591 0.0
C1424 C 0.67276 0.14981 0.16797 0.0
C1425 C 0.61205 0.142 0.17282 0.0
C1426 C 0.57499 0.13062 0.15706 0.0
C1427 C 0.51784 0.1232 0.16182 0.0
C1428 C 0.49715 0.12733 0.18226 0.0
C1429 C 0.53354 0.13898 0.19796 0.0
C1430 C 0.59076 0.1464 0.19328 0.0
C1431 C 0.77671 0.27099 0.13886 0.0
C1432 C 0.74653 0.29151 0.15238 0.0
C1433 C 0.78249 0.2384 0.14382 0.0
C1434 C 0.76019 0.22612 0.16279 0.0
C1435 C 0.73872 0.24792 0.17773 0.0
C1436 C 0.73131 0.28033 0.17246 0.0
C1437 C 0.74786 0.19098 0.16484 0.0
C1438 C 0.6915 0.18166 0.17024 0.0
C1439 C 0.78748 0.16703 0.15844 0.0
C1440 C 0.84895 0.17458 0.15443 0.0
C1441 C 0.88103 0.19223 0.16917 0.0
C1442 C 0.93866 0.19964 0.16525 0.0
C1443 C 0.96486 0.18942 0.14668 0.0
C1444 C 0.93352 0.1717 0.132 0.0
C1445 C 0.87587 0.16423 0.13583 0.0
H1446 H 0.00947 0.19522 0.14367 0.0
H1447 H 0.45288 0.12159 0.18592 0.0
H1448 H 0.85069 0.72589 0.61699 0.0
H1449 H 0.87958 0.78191 0.6197 0.0
H1450 H 0.80462 0.78676 0.68171 0.0
H1451 H 0.77216 0.73115 0.67822 0.0
H1452 H 0.75545 0.82762 0.65951 0.0
H1453 H 0.95398 0.80597 0.66919 0.0
H1454 H 0.04798 0.78051 0.66278 0.0
H1455 H 0.05221 0.82074 0.60059 0.0
H1456 H 0.95783 0.84606 0.60649 0.0
H1457 H 0.78196 0.99726 0.65643 0.0
H1458 H 0.80631 0.94227 0.66702 0.0
H1459 H 0.84229 0.91814 0.60248 0.0
H1460 H 0.81795 0.97291 0.59173 0.0
H1461 H 0.92063 0.88966 0.63149 0.0
H1462 H 0.71513 0.90158 0.62062 0.0
H1463 H 0.62046 0.92648 0.62679 0.0
H1464 H 0.6321 0.90337 0.69247 0.0
H1465 H 0.72728 0.87871 0.6867 0.0
C1466 C 0.8434 0.73834 0.6317 0.0
C1467 C 0.80924 0.72423 0.64741 0.0
C1468 C 0.85976 0.77064 0.63324 0.0
C1469 C 0.8438 0.78902 0.65084 0.0
C1470 C 0.81688 0.77336 0.66783 0.0
C1471 C 0.79909 0.74137 0.66601 0.0
C1472 C 0.84422 0.82493 0.6497 0.0
C1473 C 0.79246 0.84111 0.65402 0.0
C1474 C 0.89155 0.84285 0.64188 0.0
C1475 C 0.94856 0.8278 0.63827 0.0
C1476 C 0.97473 0.80922 0.65409 0.0
C1477 C 0.02814 0.79484 0.65055 0.0
C1478 C 0.05601 0.79897 0.63128 0.0
C1479 C 0.03058 0.81756 0.61552 0.0
C1480 C 0.97716 0.83199 0.61897 0.0
C1481 C 0.79572 0.98039 0.64451 0.0
C1482 C 0.79709 0.98938 0.62319 0.0
C1483 C 0.80973 0.94898 0.6506 0.0
C1484 C 0.82578 0.92605 0.63552 0.0
C1485 C 0.83015 0.93544 0.61439 0.0
C1486 C 0.81566 0.96671 0.60826 0.0
C1487 C 0.83226 0.89161 0.64133 0.0
C1488 C 0.88472 0.87592 0.63763 0.0
C1489 C 0.7858 0.87397 0.64983 0.0
C1490 C 0.72857 0.8887 0.65328 0.0
C1491 C 0.6977 0.90207 0.6364 0.0
C1492 C 0.64393 0.91609 0.63982 0.0
C1493 C 0.62036 0.91661 0.66002 0.0
C1494 C 0.65047 0.90302 0.67684 0.0
C1495 C 0.70431 0.88902 0.67351 0.0
H1496 H 0.57871 0.92746 0.66263 0.0
H1497 H 0.09734 0.78779 0.62857 0.0
H1498 H 0.80731 0.5317 0.16876 0.0
H1499 H 0.78053 0.58846 0.17208 0.0
H1500 H 0.71744 0.58781 0.10825 0.0
H1501 H 0.74799 0.53237 0.10444 0.0
H1502 H 0.76466 0.63983 0.11336 0.0
H1503 H 0.62953 0.58215 0.15619 0.0
H1504 H 0.60179 0.54449 0.1844 0.0
H1505 H 0.68148 0.6056 0.23023 0.0
H1506 H 0.7109 0.64327 0.20222 0.0
H1507 H 0.64408 0.78892 0.11586 0.0
H1508 H 0.62812 0.73114 0.12013 0.0
H1509 H 0.73496 0.73122 0.17546 0.0
H1510 H 0.75102 0.78883 0.17116 0.0
H1511 H 0.65383 0.67897 0.17484 0.0
H1512 H 0.80419 0.72719 0.13174 0.0
H1513 H 0.84081 0.76295 0.10424 0.0
H1514 H 0.73069 0.71787 0.05879 0.0
H1515 H 0.69325 0.68151 0.0864 0.0
C1516 C 0.78891 0.54401 0.15534 0.0
C1517 C 0.78033 0.52767 0.1363 0.0
C1518 C 0.77262 0.57629 0.15734 0.0
C1519 C 0.74522 0.59236 0.14062 0.0
C1520 C 0.73826 0.57616 0.12145 0.0
C1521 C 0.75617 0.54438 0.11923 0.0
C1522 C 0.72474 0.6262 0.14265 0.0
C1523 C 0.73906 0.64791 0.12659 0.0
C1524 C 0.69241 0.63739 0.16012 0.0
C1525 C 0.67285 0.6154 0.17707 0.0
C1526 C 0.64132 0.58751 0.17228 0.0
C1527 C 0.6254 0.56613 0.18823 0.0
C1528 C 0.64004 0.5726 0.20909 0.0
C1529 C 0.67029 0.60059 0.21406 0.0
C1530 C 0.68662 0.62196 0.19815 0.0
C1531 C 0.66076 0.77706 0.12976 0.0
C1532 C 0.69905 0.79321 0.14311 0.0
C1533 C 0.65218 0.7439 0.13206 0.0
C1534 C 0.68159 0.72676 0.14781 0.0
C1535 C 0.71202 0.74389 0.16316 0.0
C1536 C 0.72091 0.77693 0.16077 0.0
C1537 C 0.69289 0.69181 0.14535 0.0
C1538 C 0.67765 0.6702 0.16137 0.0
C1539 C 0.72381 0.68033 0.12774 0.0
C1540 C 0.7454 0.7021 0.11113 0.0
C1541 C 0.78744 0.7251 0.11592 0.0
C1542 C 0.80842 0.74545 0.10026 0.0
C1543 C 0.78786 0.74298 0.07968 0.0
C1544 C 0.74642 0.71988 0.07474 0.0
C1545 C 0.72535 0.69934 0.09039 0.0
H1546 H 0.80414 0.75883 0.06756 0.0
H1547 H 0.62791 0.55597 0.22142 0.0
H1548 H 0.27592 0.51916 0.33613 0.0
H1549 H 0.30046 0.57504 0.32777 0.0
H1550 H 0.37623 0.58587 0.38929 0.0
H1551 H 0.349 0.53084 0.39799 0.0
H1552 H 0.30816 0.63163 0.38367 0.0
H1553 H 0.45579 0.58743 0.34054 0.0
H1554 H 0.4972 0.55211 0.31341 0.0
H1555 H 0.39072 0.59639 0.26649 0.0
H1556 H 0.34799 0.63167 0.29339 0.0
H1557 H 0.36139 0.79273 0.36938 0.0
H1558 H 0.39818 0.73767 0.36868 0.0
H1559 H 0.28679 0.71588 0.31652 0.0
H1560 H 0.24965 0.77075 0.31726 0.0
H1561 H 0.38901 0.67653 0.31767 0.0
H1562 H 0.22749 0.70794 0.36167 0.0
H1563 H 0.17791 0.74022 0.38838 0.0
H1564 H 0.30982 0.71806 0.43329 0.0
H1565 H 0.3603 0.68534 0.40666 0.0
C1566 C 0.29857 0.5334 0.34771 0.0
C1567 C 0.30988 0.52081 0.36779 0.0
C1568 C 0.31307 0.56531 0.34287 0.0
C1569 C 0.34065 0.58487 0.35783 0.0
C1570 C 0.35472 0.57152 0.37748 0.0
C1571 C 0.33906 0.54001 0.38247 0.0
C1572 C 0.34867 0.62006 0.35413 0.0
C1573 C 0.3276 0.64122 0.36947 0.0
C1574 C 0.37227 0.63297 0.33534 0.0
C1575 C 0.39837 0.61207 0.31904 0.0
C1576 C 0.44092 0.58952 0.32447 0.0
C1577 C 0.46467 0.56951 0.30912 0.0
C1578 C 0.44651 0.57196 0.28826 0.0
C1579 C 0.40472 0.59451 0.28267 0.0
C1580 C 0.38078 0.61456 0.29796 0.0
C1581 C 0.34725 0.77682 0.35696 0.0
C1582 C 0.30212 0.78592 0.34353 0.0
C1583 C 0.36796 0.74519 0.35669 0.0
C1584 C 0.34425 0.72247 0.34284 0.0
C1585 C 0.30556 0.73292 0.32738 0.0
C1586 C 0.28445 0.76439 0.32778 0.0
C1587 C 0.34925 0.68747 0.34734 0.0
C1588 C 0.37174 0.66655 0.33211 0.0
C1589 C 0.3271 0.67448 0.36624 0.0
C1590 C 0.29801 0.69468 0.38213 0.0
C1591 C 0.24622 0.71025 0.37718 0.0
C1592 C 0.21788 0.72857 0.39233 0.0
C1593 C 0.24081 0.73149 0.41252 0.0
C1594 C 0.29218 0.71591 0.41762 0.0
C1595 C 0.32065 0.69742 0.40251 0.0
H1596 H 0.21863 0.74568 0.42424 0.0
H1597 H 0.46484 0.5564 0.27642 0.0
H1598 H 0.21941 0.70373 0.81983 0.0
H1599 H 0.20725 0.76175 0.81565 0.0
H1600 H 0.15325 0.76868 0.88032 0.0
H1601 H 0.16027 0.71052 0.88387 0.0
H1602 H 0.11958 0.82141 0.85921 0.0
H1603 H 0.31049 0.77168 0.87259 0.0
H1604 H 0.3802 0.72853 0.86487 0.0
H1605 H 0.37412 0.75242 0.79924 0.0
H1606 H 0.30676 0.79684 0.80676 0.0
H1607 H 0.27374 0.95617 0.89646 0.0
H1608 H 0.24753 0.89986 0.89119 0.0
H1609 H 0.2856 0.90868 0.82512 0.0
H1610 H 0.31167 0.96511 0.83016 0.0
H1611 H 0.32277 0.84992 0.84393 0.0
H1612 H 0.15211 0.9163 0.83957 0.0
H1613 H 0.08501 0.95723 0.85305 0.0
H1614 H 0.05101 0.89871 0.90733 0.0
H1615 H 0.11861 0.85762 0.89432 0.0
C1616 C 0.20048 0.71734 0.83258 0.0
C1617 C 0.19132 0.70281 0.85222 0.0
C1618 C 0.19485 0.75063 0.83037 0.0
C1619 C 0.18261 0.76968 0.84804 0.0
C1620 C 0.16376 0.75458 0.86655 0.0
C1621 C 0.1672 0.72115 0.8685 0.0
C1622 C 0.20177 0.80378 0.8488 0.0
C1623 C 0.16382 0.82771 0.85575 0.0
C1624 C 0.25981 0.81205 0.84466 0.0
C1625 C 0.3036 0.78728 0.84019 0.0
C1626 C 0.32471 0.76793 0.85656 0.0
C1627 C 0.36387 0.74336 0.85225 0.0
C1628 C 0.38109 0.7375 0.83158 0.0
C1629 C 0.36076 0.75696 0.81525 0.0
C1630 C 0.32272 0.78212 0.81955 0.0
C1631 C 0.27815 0.94596 0.8809 0.0
C1632 C 0.29449 0.96523 0.86369 0.0
C1633 C 0.26248 0.91386 0.87789 0.0
C1634 C 0.26336 0.90042 0.85769 0.0
C1635 C 0.28404 0.91877 0.84079 0.0
C1636 C 0.29914 0.95097 0.84373 0.0
C1637 C 0.24041 0.8677 0.85402 0.0
C1638 C 0.27807 0.84391 0.84683 0.0
C1639 C 0.18244 0.85962 0.85844 0.0
C1640 C 0.14076 0.88398 0.86603 0.0
C1641 C 0.13058 0.91223 0.85443 0.0
C1642 C 0.09243 0.93546 0.86199 0.0
C1643 C 0.06385 0.9306 0.88106 0.0
C1644 C 0.0732 0.90244 0.89257 0.0
C1645 C 0.11138 0.87916 0.8851 0.0
H1646 H 0.0344 0.94863 0.8869 0.0
H1647 H 0.41005 0.71783 0.82827 0.0
H1648 H 0.69802 0.54638 0.54938 0.0
H1649 H 0.62564 0.53983 0.52193 0.0
H1650 H 0.49367 0.57179 0.5646 0.0
H1651 H 0.56613 0.57853 0.59231 0.0
H1652 H 0.47412 0.51083 0.53574 0.0
H1653 H 0.50572 0.6273 0.53283 0.0
H1654 H 0.56982 0.67431 0.535 0.0
H1655 H 0.6766 0.63525 0.48638 0.0
H1656 H 0.6114 0.58851 0.48324 0.0
H1657 H 0.31805 0.48825 0.44679 0.0
H1658 H 0.33982 0.52667 0.47479 0.0
H1659 H 0.51348 0.53504 0.45157 0.0
H1660 H 0.49127 0.49746 0.42354 0.0
H1661 H 0.48908 0.58597 0.47516 0.0
H1662 H 0.47376 0.46821 0.4814 0.0
H1663 H 0.42005 0.41711 0.47904 0.0
H1664 H 0.2937 0.45327 0.52211 0.0
H1665 H 0.34664 0.50465 0.52464 0.0
C1666 C 0.65349 0.55134 0.55312 0.0
C1667 C 0.63773 0.56307 0.57299 0.0
C1668 C 0.61231 0.54787 0.53737 0.0
C1669 C 0.55468 0.55572 0.54126 0.0
C1670 C 0.53809 0.56582 0.56134 0.0
C1671 C 0.57945 0.56963 0.57709 0.0
C1672 C 0.51287 0.55415 0.52386 0.0
C1673 C 0.47569 0.52779 0.52277 0.0
C1674 C 0.51614 0.57594 0.50687 0.0
C1675 C 0.55394 0.60449 0.50787 0.0
C1676 C 0.54287 0.62878 0.5226 0.0
C1677 C 0.57948 0.65528 0.52407 0.0
C1678 C 0.62793 0.65745 0.51119 0.0
C1679 C 0.63915 0.63345 0.49642 0.0
C1680 C 0.60206 0.60711 0.49463 0.0
C1681 C 0.35949 0.50015 0.44682 0.0
C1682 C 0.40338 0.48976 0.43334 0.0
C1683 C 0.37217 0.5218 0.46297 0.0
C1684 C 0.42894 0.53262 0.46575 0.0
C1685 C 0.46959 0.52669 0.44994 0.0
C1686 C 0.45684 0.50527 0.43381 0.0
C1687 C 0.45028 0.54228 0.48678 0.0
C1688 C 0.48473 0.56987 0.48851 0.0
C1689 C 0.44514 0.52122 0.5043 0.0
C1690 C 0.41374 0.49028 0.50305 0.0
C1691 C 0.43445 0.46523 0.49033 0.0
C1692 C 0.40417 0.43626 0.48895 0.0
C1693 C 0.35344 0.43199 0.50038 0.0
C1694 C 0.33296 0.45665 0.51325 0.0
C1695 C 0.36309 0.48568 0.51468 0.0
H1696 H 0.33013 0.40953 0.49933 0.0
H1697 H 0.65649 0.67782 0.5126 0.0
H1698 H 0.90599 0.9437 0.08098 0.0
H1699 H 0.96462 0.95981 0.05112 0.0
H1700 H 0.82736 0.02091 0.02904 0.0
H1701 H 0.76707 0.00313 0.05823 0.0
H1702 H 0.8647 0.98543 -0.00182 0.0
H1703 H 0.95673 0.05123 0.05042 0.0
H1704 H 0.00415 0.06198 0.08434 0.0
H1705 H 0.13911 0.99595 0.06856 0.0
H1706 H 0.09222 0.98458 0.03461 0.0
H1707 H 0.02897 0.06332 0.91897 0.0
H1708 H 0.96935 0.04851 0.94888 0.0
H1709 H 0.10281 0.98509 0.97124 0.0
H1710 H 0.16388 1.00106 0.94187 0.0
H1711 H 0.06697 0.02262 0.00186 0.0
H1712 H 0.97509 0.95646 0.94989 0.0
H1713 H 0.92914 0.94628 0.91563 0.0
H1714 H 0.79476 0.01305 0.93078 0.0
H1715 H 0.84028 0.02389 0.96506 0.0
C1716 C 0.88827 0.96051 0.0698 0.0
C1717 C 0.83139 0.97135 0.07171 0.0
C1718 C 0.92214 0.9701 0.05284 0.0
C1719 C 0.90041 0.99161 0.0378 0.0
C1720 C 0.84484 0.00409 0.04037 0.0
C1721 C 0.81061 0.99407 0.05718 0.0
C1722 C 0.93414 0.99935 0.0187 0.0
C1723 C 0.90864 0.99408 -0.00101 0.0
C1724 C 0.99199 0.0097 0.01975 0.0
C1725 C 0.02073 0.01691 0.04003 0.0
C1726 C 0.99638 0.0389 0.05422 0.0
C1727 C 0.0232 0.04512 0.07345 0.0
C1728 C 0.07456 0.02961 0.07861 0.0
C1729 C 0.09934 0.00794 0.06453 0.0
C1730 C 0.07272 0.00166 0.04528 0.0
C1731 C 0.04564 0.04619 0.93016 0.0
C1732 C 0.10173 0.03407 0.92826 0.0
C1733 C 0.01124 0.03747 0.94719 0.0
C1734 C 0.03171 0.01573 0.96233 0.0
C1735 C 0.08641 0.00214 0.95983 0.0
C1736 C 0.12111 0.01118 0.94295 0.0
C1737 C 0.99755 0.00864 0.9814 0.0
C1738 C 0.02299 0.01403 0.00108 0.0
C1739 C 0.93971 0.99837 0.98032 0.0
C1740 C 0.9113 0.99113 0.95999 0.0
C1741 C 0.93583 0.96904 0.94589 0.0
C1742 C 0.90986 0.96315 0.92647 0.0
C1743 C 0.8591 0.97904 0.92102 0.0
C1744 C 0.83406 1.00074 0.93503 0.0
C1745 C 0.85987 0.00672 0.95447 0.0
H1746 H 0.83912 0.97451 0.90595 0.0
H1747 H 0.0952 0.03442 0.09352 0.0
H1748 H 0.99465 0.02294 0.56868 0.0
H1749 H 0.01808 0.98392 0.54164 0.0
H1750 H 0.84182 0.98492 0.52055 0.0
H1751 H 0.81857 0.02465 0.54769 0.0
H1752 H 0.99479 0.9294 0.52131 0.0
H1753 H 0.84485 0.00122 0.46877 0.0
H1754 H 0.78719 0.05109 0.4694 0.0
H1755 H 0.91022 0.09488 0.51068 0.0
H1756 H 0.96888 0.04546 0.51004 0.0
H1757 H 0.06547 0.93071 0.40262 0.0
H1758 H 0.99409 0.93836 0.4306 0.0
H1759 H 0.12811 0.97021 0.47244 0.0
H1760 H 0.19942 0.96284 0.44467 0.0
H1761 H 0.97161 0.99709 0.45747 0.0
H1762 H 0.10688 0.92523 0.51712 0.0
H1763 H 0.17594 0.88024 0.51697 0.0
H1764 H 0.09558 0.84156 0.46184 0.0
H1765 H 0.02575 0.88605 0.46176 0.0
C1766 C 0.96024 0.0134 0.55906 0.0
C1767 C 0.90516 0.02693 0.55995 0.0
C1768 C 0.97361 0.99108 0.54355 0.0
C1769 C 0.93211 0.98234 0.52863 0.0
C1770 C 0.87469 0.99183 0.53171 0.0
C1771 C 0.86126 0.01428 0.54732 0.0
C1772 C 0.95249 0.97069 0.50793 0.0
C1773 C 0.9889 0.94382 0.50725 0.0
C1774 C 0.94482 0.98951 0.4895 0.0
C1775 C 0.91075 0.0196 0.48952 0.0
C1776 C 0.85961 0.02157 0.47789 0.0
C1777 C 0.8268 0.04973 0.47826 0.0
C1778 C 0.84499 0.0761 0.4901 0.0
C1779 C 0.89616 0.07444 0.50153 0.0
C1780 C 0.92922 0.04639 0.50115 0.0
C1781 C 0.07949 0.93973 0.41772 0.0
C1782 C 0.13802 0.94601 0.42152 0.0
C1783 C 0.03874 0.9441 0.43362 0.0
C1784 C 0.0562 0.95432 0.45358 0.0
C1785 C 0.11411 0.96195 0.45714 0.0
C1786 C 0.15468 0.95801 0.44121 0.0
C1787 C 0.01483 0.95641 0.47113 0.0
C1788 C 0.97516 0.98168 0.4712 0.0
C1789 C 0.02045 0.93653 0.48907 0.0
C1790 C 0.06118 0.90907 0.48941 0.0
C1791 C 0.10366 0.90698 0.50506 0.0
C1792 C 0.14306 0.8816 0.50498 0.0
C1793 C 0.1402 0.85806 0.48938 0.0
C1794 C 0.09788 0.85983 0.47386 0.0
C1795 C 0.05843 0.88515 0.47386 0.0
H1796 H 0.17076 0.83845 0.48932 0.0
H1797 H 0.81957 0.09787 0.49035 0.0
H1798 H 0.66063 0.49847 0.06343 0.0
H1799 H 0.60261 0.51793 0.03416 0.0
H1800 H 0.48532 0.43855 0.04289 0.0
H1801 H 0.54015 0.42069 0.07312 0.0
H1802 H 0.58538 0.49162 -0.00148 0.0
H1803 H 0.35705 0.45243 0.02371 0.0
H1804 H 0.30083 0.44584 0.05634 0.0
H1805 H 0.40192 0.51899 0.08622 0.0
H1806 H 0.45842 0.5262 0.05373 0.0
H1807 H 0.29804 0.49299 0.93339 0.0
H1808 H 0.35871 0.47416 0.9621 0.0
H1809 H 0.46949 0.55648 0.9538 0.0
H1810 H 0.41129 0.57422 0.92436 0.0
H1811 H 0.37327 0.50291 -0.00209 0.0
H1812 H 0.60021 0.54349 0.97341 0.0
H1813 H 0.65689 0.55155 0.94103 0.0
H1814 H 0.55881 0.47824 0.91001 0.0
H1815 H 0.5019 0.46953 0.94226 0.0
C1816 C 0.6218 0.48551 0.05939 0.0
C1817 C 0.60576 0.45752 0.07038 0.0
C1818 C 0.58888 0.49658 0.04256 0.0
C1819 C 0.53963 0.47972 0.03625 0.0
C1820 C 0.52257 0.45236 0.04762 0.0
C1821 C 0.55456 0.44183 0.06481 0.0
C1822 C 0.50791 0.48975 0.01715 0.0
C1823 C 0.53906 0.49457 -0.00153 0.0
C1824 C 0.44737 0.49289 0.01694 0.0
C1825 C 0.4122 0.48968 0.03632 0.0
C1826 C 0.36699 0.46728 0.0372 0.0
C1827 C 0.33518 0.46337 0.05568 0.0
C1828 C 0.3479 0.48192 0.07336 0.0
C1829 C 0.39223 0.50456 0.07254 0.0
C1830 C 0.42421 0.50854 0.05411 0.0
C1831 C 0.33598 0.50678 0.93739 0.0
C1832 C 0.34906 0.53561 0.92682 0.0
C1833 C 0.37047 0.49602 0.95387 0.0
C1834 C 0.41851 0.51395 0.96018 0.0
C1835 C 0.43309 0.54197 0.94908 0.0
C1836 C 0.39926 0.55235 0.93232 0.0
C1837 C 0.45068 0.50456 0.97928 0.0
C1838 C 0.41959 0.49995 -0.00202 0.0
C1839 C 0.51128 0.50189 0.97952 0.0
C1840 C 0.54653 0.50604 0.96023 0.0
C1841 C 0.59101 0.52894 0.95973 0.0
C1842 C 0.62308 0.53367 0.94138 0.0
C1843 C 0.61136 0.51548 0.92346 0.0
C1844 C 0.56773 0.49239 0.92388 0.0
C1845 C 0.5355 0.48757 0.94218 0.0
H1846 H 0.63614 0.51926 0.90926 0.0
H1847 H 0.32336 0.47877 0.08767 0.0
loop_
_geom_bond_atom_site_label_1
_geom_bond_atom_site_label_2
_geom_bond_distance
_geom_bond_site_symmetry_2
_ccdc_geom_bond_type
C0 O27 1.312 . S
C0 O28 1.208 . S
C1 O22 1.331 . S
C1 O25 1.244 . S
C2 O24 1.264 . S
C2 O26 1.273 . S
Mg3 O5 1.936 . S
Mg3 O12 2.081 . S
Mg3 O14 2.023 . S
Mg3 O18 2.031 . S
Mg3 O27 2.291 . S
Mg4 O5 1.963 . S
Mg4 O15 1.942 . S
Mg4 O16 1.955 . S
Mg4 O23 1.986 . S
O5 Mg3 1.936 . S
O5 Mg4 1.963 . S
O5 Mg6 1.915 . S
Mg6 O5 1.915 . S
Mg6 O7 1.915 . S
Mg6 O11 2.013 . S
Mg6 O17 2.114 . S
Mg6 O21 2.013 . S
Mg6 O27 2.114 . S
O7 Mg6 1.915 . S
O7 Mg8 1.936 . S
O7 Mg9 1.963 . S
Mg8 O7 1.936 . S
Mg8 O17 2.291 . S
Mg8 O22 2.081 . S
Mg8 O24 2.023 . S
Mg8 O28 2.031 . S
Mg9 O7 1.963 . S
Mg9 O13 1.986 . S
Mg9 O25 1.942 . S
Mg9 O26 1.955 . S
C10 O21 1.191 . S
C10 O23 1.307 . S
O11 Mg6 2.013 . S
O11 C30 1.191 . S
O12 Mg3 2.081 . S
O12 C20 1.331 . S
O13 Mg9 1.986 . S
O13 C30 1.307 . S
O14 Mg3 2.023 . S
O14 C29 1.264 . S
O15 Mg4 1.942 . S
O15 C20 1.244 . S
O16 Mg4 1.955 . S
O16 C29 1.273 . S
O17 Mg6 2.114 . S
O17 Mg8 2.291 . S
O17 C19 1.312 . S
O18 Mg3 2.031 . S
O18 C19 1.208 . S
C19 O17 1.312 . S
C19 O18 1.208 . S
C20 O12 1.331 . S
C20 O15 1.244 . S
O21 Mg6 2.013 . S
O21 C10 1.191 . S
O22 C1 1.331 . S
O22 Mg8 2.081 . S
O23 Mg4 1.986 . S
O23 C10 1.307 . S
O24 C2 1.264 . S
O24 Mg8 2.023 . S
O25 C1 1.244 . S
O25 Mg9 1.942 . S
O26 C2 1.273 . S
O26 Mg9 1.955 . S
O27 C0 1.312 . S
O27 Mg3 2.291 . S
O27 Mg6 2.114 . S
O28 C0 1.208 . S
O28 Mg8 2.031 . S
C29 O14 1.264 . S
C29 O16 1.273 . S
C30 O11 1.191 . S
C30 O13 1.307 . S
C31 O58 1.312 . S
C31 O59 1.208 . S
C32 O53 1.331 . S
C32 O56 1.244 . S
C33 O55 1.264 . S
C33 O57 1.273 . S
Mg34 O36 1.936 . S
Mg34 O43 2.081 1_455 S
Mg34 O45 2.023 1_455 S
Mg34 O49 2.031 . S
Mg34 O58 2.291 . S
Mg35 O36 1.963 . S
Mg35 O46 1.942 1_455 S
Mg35 O47 1.955 1_455 S
Mg35 O54 1.986 . S
O36 Mg34 1.936 . S
O36 Mg35 1.963 . S
O36 Mg37 1.915 . S
Mg37 O36 1.915 . S
Mg37 O38 1.915 . S
Mg37 O42 2.013 . S
Mg37 O48 2.114 . S
Mg37 O52 2.013 . S
Mg37 O58 2.114 . S
O38 Mg37 1.915 . S
O38 Mg39 1.936 . S
O38 Mg40 1.963 . S
Mg39 O38 1.936 . S
Mg39 O48 2.291 . S
Mg39 O53 2.081 . S
Mg39 O55 2.023 . S
Mg39 O59 2.031 . S
Mg40 O38 1.963 . S
Mg40 O44 1.986 . S
Mg40 O56 1.942 . S
Mg40 O57 1.955 . S
C41 O52 1.191 . S
C41 O54 1.307 . S
O42 Mg37 2.013 . S
O42 C61 1.191 . S
O43 Mg34 2.081 1_655 S
O43 C51 1.331 . S
O44 Mg40 1.986 . S
O44 C61 1.307 . S
O45 Mg34 2.023 1_655 S
O45 C60 1.264 . S
O46 Mg35 1.942 1_655 S
O46 C51 1.244 . S
O47 Mg35 1.955 1_655 S
O47 C60 1.273 . S
O48 Mg37 2.114 . S
O48 Mg39 2.291 . S
O48 C50 1.312 . S
O49 Mg34 2.031 . S
O49 C50 1.208 . S
C50 O48 1.312 . S
C50 O49 1.208 . S
C51 O43 1.331 . S
C51 O46 1.244 . S
O52 Mg37 2.013 . S
O52 C41 1.191 . S
O53 C32 1.331 . S
O53 Mg39 2.081 . S
O54 Mg35 1.986 . S
O54 C41 1.307 . S
O55 C33 1.264 . S
O55 Mg39 2.023 . S
O56 C32 1.244 . S
O56 Mg40 1.942 . S
O57 C33 1.273 . S
O57 Mg40 1.955 . S
O58 C31 1.312 . S
O58 Mg34 2.291 . S
O58 Mg37 2.114 . S
O59 C31 1.208 . S
O59 Mg39 2.031 . S
C60 O45 1.264 . S
C60 O47 1.273 . S
C61 O42 1.191 . S
C61 O44 1.307 . S
C62 O89 1.312 . S
C62 O90 1.208 . S
C63 O84 1.331 . S
C63 O87 1.244 . S
C64 O86 1.264 . S
C64 O88 1.273 . S
Mg65 O67 1.936 . S
Mg65 O74 2.081 1_655 S
Mg65 O76 2.023 . S
Mg65 O80 2.031 . S
Mg65 O89 2.291 . S
Mg66 O67 1.963 1_455 S
Mg66 O77 1.942 . S
Mg66 O78 1.955 1_455 S
Mg66 O85 1.986 1_455 S
O67 Mg65 1.936 . S
O67 Mg66 1.963 1_655 S
O67 Mg68 1.915 . S
Mg68 O67 1.915 . S
Mg68 O69 1.915 . S
Mg68 O73 2.013 . S
Mg68 O79 2.114 . S
Mg68 O83 2.013 . S
Mg68 O89 2.114 . S
O69 Mg68 1.915 . S
O69 Mg70 1.936 . S
O69 Mg71 1.963 . S
Mg70 O69 1.936 . S
Mg70 O79 2.291 . S
Mg70 O84 2.081 . S
Mg70 O86 2.023 . S
Mg70 O90 2.031 . S
Mg71 O69 1.963 . S
Mg71 O75 1.986 . S
Mg71 O87 1.942 . S
Mg71 O88 1.955 . S
C72 O83 1.191 . S
C72 O85 1.307 . S
O73 Mg68 2.013 . S
O73 C92 1.191 . S
O74 Mg65 2.081 1_455 S
O74 C82 1.331 . S
O75 Mg71 1.986 . S
O75 C92 1.307 . S
O76 Mg65 2.023 . S
O76 C91 1.264 . S
O77 Mg66 1.942 . S
O77 C82 1.244 . S
O78 Mg66 1.955 1_655 S
O78 C91 1.273 . S
O79 Mg68 2.114 . S
O79 Mg70 2.291 . S
O79 C81 1.312 . S
O80 Mg65 2.031 . S
O80 C81 1.208 . S
C81 O79 1.312 . S
C81 O80 1.208 . S
C82 O74 1.331 . S
C82 O77 1.244 . S
O83 Mg68 2.013 . S
O83 C72 1.191 . S
O84 C63 1.331 . S
O84 Mg70 2.081 . S
O85 Mg66 1.986 1_655 S
O85 C72 1.307 . S
O86 C64 1.264 . S
O86 Mg70 2.023 . S
O87 C63 1.244 . S
O87 Mg71 1.942 . S
O88 C64 1.273 . S
O88 Mg71 1.955 . S
O89 C62 1.312 . S
O89 Mg65 2.291 . S
O89 Mg68 2.114 . S
O90 C62 1.208 . S
O90 Mg70 2.031 . S
C91 O76 1.264 . S
C91 O78 1.273 . S
C92 O73 1.191 . S
C92 O75 1.307 . S
C93 O120 1.312 . S
C93 O121 1.208 . S
C94 O115 1.331 . S
C94 O118 1.244 . S
C95 O117 1.264 . S
C95 O119 1.273 . S
Mg96 O98 1.936 . S
Mg96 O105 2.081 . S
Mg96 O107 2.023 . S
Mg96 O111 2.031 . S
Mg96 O120 2.291 . S
Mg97 O98 1.963 . S
Mg97 O108 1.942 . S
Mg97 O109 1.955 . S
Mg97 O116 1.986 . S
O98 Mg96 1.936 . S
O98 Mg97 1.963 . S
O98 Mg99 1.915 . S
Mg99 O98 1.915 . S
Mg99 O100 1.915 . S
Mg99 O104 2.013 . S
Mg99 O110 2.114 . S
Mg99 O114 2.013 . S
Mg99 O120 2.114 . S
O100 Mg99 1.915 . S
O100 Mg101 1.936 . S
O100 Mg102 1.963 . S
Mg101 O100 1.936 . S
Mg101 O110 2.291 . S
Mg101 O115 2.081 . S
Mg101 O117 2.023 . S
Mg101 O121 2.031 . S
Mg102 O100 1.963 . S
Mg102 O106 1.986 . S
Mg102 O118 1.942 . S
Mg102 O119 1.955 . S
C103 O114 1.191 . S
C103 O116 1.307 . S
O104 Mg99 2.013 . S
O104 C123 1.191 . S
O105 Mg96 2.081 . S
O105 C113 1.331 . S
O106 Mg102 1.986 . S
O106 C123 1.307 . S
O107 Mg96 2.023 . S
O107 C122 1.264 . S
O108 Mg97 1.942 . S
O108 C113 1.244 . S
O109 Mg97 1.955 . S
O109 C122 1.273 . S
O110 Mg99 2.114 . S
O110 Mg101 2.291 . S
O110 C112 1.312 . S
O111 Mg96 2.031 . S
O111 C112 1.208 . S
C112 O110 1.312 . S
C112 O111 1.208 . S
C113 O105 1.331 . S
C113 O108 1.244 . S
O114 Mg99 2.013 . S
O114 C103 1.191 . S
O115 C94 1.331 . S
O115 Mg101 2.081 . S
O116 Mg97 1.986 . S
O116 C103 1.307 . S
O117 C95 1.264 . S
O117 Mg101 2.023 . S
O118 C94 1.244 . S
O118 Mg102 1.942 . S
O119 C95 1.273 . S
O119 Mg102 1.955 . S
O120 C93 1.312 . S
O120 Mg96 2.291 . S
O120 Mg99 2.114 . S
O121 C93 1.208 . S
O121 Mg101 2.031 . S
C122 O107 1.264 . S
C122 O109 1.273 . S
C123 O104 1.191 . S
C123 O106 1.307 . S
C124 O151 1.312 . S
C124 O152 1.208 . S
C125 O146 1.331 . S
C125 O149 1.244 . S
C126 O148 1.264 . S
C126 O150 1.273 . S
Mg127 O129 1.936 . S
Mg127 O136 2.081 . S
Mg127 O138 2.023 . S
Mg127 O142 2.031 . S
Mg127 O151 2.291 . S
Mg128 O129 1.963 . S
Mg128 O139 1.942 . S
Mg128 O140 1.955 . S
Mg128 O147 1.986 . S
O129 Mg127 1.936 . S
O129 Mg128 1.963 . S
O129 Mg130 1.915 . S
Mg130 O129 1.915 . S
Mg130 O131 1.915 . S
Mg130 O135 2.013 . S
Mg130 O141 2.114 . S
Mg130 O145 2.013 . S
Mg130 O151 2.114 . S
O131 Mg130 1.915 . S
O131 Mg132 1.936 . S
O131 Mg133 1.963 . S
Mg132 O131 1.936 . S
Mg132 O141 2.291 . S
Mg132 O146 2.081 . S
Mg132 O148 2.023 . S
Mg132 O152 2.031 . S
Mg133 O131 1.963 . S
Mg133 O137 1.986 . S
Mg133 O149 1.942 . S
Mg133 O150 1.955 . S
C134 O145 1.191 . S
C134 O147 1.307 . S
O135 Mg130 2.013 . S
O135 C154 1.191 . S
O136 Mg127 2.081 . S
O136 C144 1.331 . S
O137 Mg133 1.986 . S
O137 C154 1.307 . S
O138 Mg127 2.023 . S
O138 C153 1.264 . S
O139 Mg128 1.942 . S
O139 C144 1.244 . S
O140 Mg128 1.955 . S
O140 C153 1.273 . S
O141 Mg130 2.114 . S
O141 Mg132 2.291 . S
O141 C143 1.312 . S
O142 Mg127 2.031 . S
O142 C143 1.208 . S
C143 O141 1.312 . S
C143 O142 1.208 . S
C144 O136 1.331 . S
C144 O139 1.244 . S
O145 Mg130 2.013 . S
O145 C134 1.191 . S
O146 C125 1.331 . S
O146 Mg132 2.081 . S
O147 Mg128 1.986 . S
O147 C134 1.307 . S
O148 C126 1.264 . S
O148 Mg132 2.023 . S
O149 C125 1.244 . S
O149 Mg133 1.942 . S
O150 C126 1.273 . S
O150 Mg133 1.955 . S
O151 C124 1.312 . S
O151 Mg127 2.291 . S
O151 Mg130 2.114 . S
O152 C124 1.208 . S
O152 Mg132 2.031 . S
C153 O138 1.264 . S
C153 O140 1.273 . S
C154 O135 1.191 . S
C154 O137 1.307 . S
C155 O182 1.312 . S
C155 O183 1.208 . S
C156 O177 1.331 . S
C156 O180 1.244 . S
C157 O179 1.264 . S
C157 O181 1.273 . S
Mg158 O160 1.936 . S
Mg158 O167 2.081 . S
Mg158 O169 2.023 . S
Mg158 O173 2.031 . S
Mg158 O182 2.291 . S
Mg159 O160 1.963 . S
Mg159 O170 1.942 . S
Mg159 O171 1.955 . S
Mg159 O178 1.986 . S
O160 Mg158 1.936 . S
O160 Mg159 1.963 . S
O160 Mg161 1.915 . S
Mg161 O160 1.915 . S
Mg161 O162 1.915 . S
Mg161 O166 2.013 . S
Mg161 O172 2.114 . S
Mg161 O176 2.013 . S
Mg161 O182 2.114 . S
O162 Mg161 1.915 . S
O162 Mg163 1.936 . S
O162 Mg164 1.963 . S
Mg163 O162 1.936 . S
Mg163 O172 2.291 . S
Mg163 O177 2.081 1_655 S
Mg163 O179 2.023 1_655 S
Mg163 O183 2.031 . S
Mg164 O162 1.963 . S
Mg164 O168 1.986 . S
Mg164 O180 1.942 1_655 S
Mg164 O181 1.955 1_655 S
C165 O176 1.191 . S
C165 O178 1.307 . S
O166 Mg161 2.013 . S
O166 C185 1.191 . S
O167 Mg158 2.081 . S
O167 C175 1.331 . S
O168 Mg164 1.986 . S
O168 C185 1.307 . S
O169 Mg158 2.023 . S
O169 C184 1.264 . S
O170 Mg159 1.942 . S
O170 C175 1.244 . S
O171 Mg159 1.955 . S
O171 C184 1.273 . S
O172 Mg161 2.114 . S
O172 Mg163 2.291 . S
O172 C174 1.312 . S
O173 Mg158 2.031 . S
O173 C174 1.208 . S
C174 O172 1.312 . S
C174 O173 1.208 . S
C175 O167 1.331 . S
C175 O170 1.244 . S
O176 Mg161 2.013 . S
O176 C165 1.191 . S
O177 C156 1.331 . S
O177 Mg163 2.081 1_455 S
O178 Mg159 1.986 . S
O178 C165 1.307 . S
O179 C157 1.264 . S
O179 Mg163 2.023 1_455 S
O180 C156 1.244 . S
O180 Mg164 1.942 1_455 S
O181 C157 1.273 . S
O181 Mg164 1.955 1_455 S
O182 C155 1.312 . S
O182 Mg158 2.291 . S
O182 Mg161 2.114 . S
O183 C155 1.208 . S
O183 Mg163 2.031 . S
C184 O169 1.264 . S
C184 O171 1.273 . S
C185 O166 1.191 . S
C185 O168 1.307 . S
C186 O213 1.312 . S
C186 O214 1.208 . S
C187 O208 1.331 . S
C187 O211 1.244 . S
C188 O210 1.264 . S
C188 O212 1.273 . S
Mg189 O191 1.936 . S
Mg189 O198 2.081 . S
Mg189 O200 2.023 . S
Mg189 O204 2.031 . S
Mg189 O213 2.291 . S
Mg190 O191 1.963 . S
Mg190 O201 1.942 . S
Mg190 O202 1.955 . S
Mg190 O209 1.986 . S
O191 Mg189 1.936 . S
O191 Mg190 1.963 . S
O191 Mg192 1.915 . S
Mg192 O191 1.915 . S
Mg192 O193 1.915 . S
Mg192 O197 2.013 . S
Mg192 O203 2.114 . S
Mg192 O207 2.013 . S
Mg192 O213 2.114 . S
O193 Mg192 1.915 . S
O193 Mg194 1.936 . S
O193 Mg195 1.963 . S
Mg194 O193 1.936 . S
Mg194 O203 2.291 . S
Mg194 O208 2.081 1_455 S
Mg194 O210 2.023 1_455 S
Mg194 O214 2.031 . S
Mg195 O193 1.963 . S
Mg195 O199 1.986 . S
Mg195 O211 1.942 1_455 S
Mg195 O212 1.955 1_455 S
C196 O207 1.191 . S
C196 O209 1.307 . S
O197 Mg192 2.013 . S
O197 C216 1.191 . S
O198 Mg189 2.081 . S
O198 C206 1.331 . S
O199 Mg195 1.986 . S
O199 C216 1.307 . S
O200 Mg189 2.023 . S
O200 C215 1.264 . S
O201 Mg190 1.942 . S
O201 C206 1.244 . S
O202 Mg190 1.955 . S
O202 C215 1.273 . S
O203 Mg192 2.114 . S
O203 Mg194 2.291 . S
O203 C205 1.312 . S
O204 Mg189 2.031 . S
O204 C205 1.208 . S
C205 O203 1.312 . S
C205 O204 1.208 . S
C206 O198 1.331 . S
C206 O201 1.244 . S
O207 Mg192 2.013 . S
O207 C196 1.191 . S
O208 C187 1.331 . S
O208 Mg194 2.081 1_655 S
O209 Mg190 1.986 . S
O209 C196 1.307 . S
O210 C188 1.264 . S
O210 Mg194 2.023 1_655 S
O211 C187 1.244 . S
O211 Mg195 1.942 1_655 S
O212 C188 1.273 . S
O212 Mg195 1.955 1_655 S
O213 C186 1.312 . S
O213 Mg189 2.291 . S
O213 Mg192 2.114 . S
O214 C186 1.208 . S
O214 Mg194 2.031 . S
C215 O200 1.264 . S
C215 O202 1.273 . S
C216 O197 1.191 . S
C216 O199 1.307 . S
C217 O244 1.312 . S
C217 O245 1.208 . S
C218 O239 1.331 . S
C218 O242 1.244 . S
C219 O241 1.264 . S
C219 O243 1.273 . S
Mg220 O222 1.936 . S
Mg220 O229 2.081 . S
Mg220 O231 2.023 . S
Mg220 O235 2.031 . S
Mg220 O244 2.291 . S
Mg221 O222 1.963 . S
Mg221 O232 1.942 . S
Mg221 O233 1.955 . S
Mg221 O240 1.986 . S
O222 Mg220 1.936 . S
O222 Mg221 1.963 . S
O222 Mg223 1.915 . S
Mg223 O222 1.915 . S
Mg223 O224 1.915 . S
Mg223 O228 2.013 . S
Mg223 O234 2.114 . S
Mg223 O238 2.013 . S
Mg223 O244 2.114 . S
O224 Mg223 1.915 . S
O224 Mg225 1.936 . S
O224 Mg226 1.963 . S
Mg225 O224 1.936 . S
Mg225 O234 2.291 . S
Mg225 O239 2.081 . S
Mg225 O241 2.023 . S
Mg225 O245 2.031 . S
Mg226 O224 1.963 . S
Mg226 O230 1.986 . S
Mg226 O242 1.942 . S
Mg226 O243 1.955 . S
C227 O238 1.191 . S
C227 O240 1.307 . S
O228 Mg223 2.013 . S
O228 C247 1.191 . S
O229 Mg220 2.081 . S
O229 C237 1.331 . S
O230 Mg226 1.986 . S
O230 C247 1.307 . S
O231 Mg220 2.023 . S
O231 C246 1.264 . S
O232 Mg221 1.942 . S
O232 C237 1.244 . S
O233 Mg221 1.955 . S
O233 C246 1.273 . S
O234 Mg223 2.114 . S
O234 Mg225 2.291 . S
O234 C236 1.312 . S
O235 Mg220 2.031 . S
O235 C236 1.208 . S
C236 O234 1.312 . S
C236 O235 1.208 . S
C237 O229 1.331 . S
C237 O232 1.244 . S
O238 Mg223 2.013 . S
O238 C227 1.191 . S
O239 C218 1.331 . S
O239 Mg225 2.081 . S
O240 Mg221 1.986 . S
O240 C227 1.307 . S
O241 C219 1.264 . S
O241 Mg225 2.023 . S
O242 C218 1.244 . S
O242 Mg226 1.942 . S
O243 C219 1.273 . S
O243 Mg226 1.955 . S
O244 C217 1.312 . S
O244 Mg220 2.291 . S
O244 Mg223 2.114 . S
O245 C217 1.208 . S
O245 Mg225 2.031 . S
C246 O231 1.264 . S
C246 O233 1.273 . S
C247 O228 1.191 . S
C247 O230 1.307 . S
H248 C266 0.951 . S
H249 C268 0.951 . S
H250 C270 0.950 . S
H251 C271 0.950 . S
H252 C273 0.950 . S
H253 C276 0.950 . S
H254 C277 0.950 . S
H255 C279 0.950 . S
H256 C280 0.950 . S
H257 C281 0.951 . S
H258 C283 0.951 . S
H259 C285 0.950 . S
H260 C286 0.950 . S
H261 C288 0.950 . S
H262 C291 0.950 . S
H263 C292 0.950 . S
H264 C294 0.950 . S
H265 C295 0.950 . S
C266 H248 0.951 . S
C266 C267 1.366 . S
C266 C268 1.388 . S
C267 C266 1.366 . S
C267 C271 1.385 . S
C268 H249 0.951 . S
C268 C266 1.388 . S
C268 C269 1.366 . S
C269 C268 1.366 . S
C269 C270 1.414 . S
C269 C272 1.499 1_455 S
C270 H250 0.950 . S
C270 C269 1.414 . S
C270 C271 1.374 . S
C271 H251 0.950 . S
C271 C267 1.385 . S
C271 C270 1.374 . S
C272 C269 1.499 1_655 S
C272 C273 1.373 . S
C272 C274 1.389 . S
C273 H252 0.950 . S
C273 C272 1.373 . S
C273 C289 1.377 . S
C274 C272 1.389 . S
C274 C275 1.524 . S
C274 C288 1.377 . S
C275 C274 1.524 . S
C275 C276 1.397 . S
C275 C280 1.363 . S
C276 H253 0.950 . S
C276 C275 1.397 . S
C276 C277 1.334 1_655 S
C277 H254 0.950 . S
C277 C276 1.334 1_455 S
C277 C278 1.287 . S
C278 C277 1.287 . S
C278 C279 1.524 1_455 S
C278 H297 0.913 . S
C279 H255 0.950 . S
C279 C278 1.524 1_655 S
C279 C280 1.415 . S
C280 H256 0.950 . S
C280 C275 1.363 . S
C280 C279 1.415 . S
C281 H257 0.951 . S
C281 C282 1.366 . S
C281 C283 1.388 . S
C282 C281 1.366 . S
C282 C286 1.385 . S
C283 H258 0.951 . S
C283 C281 1.388 . S
C283 C284 1.366 . S
C284 C283 1.366 . S
C284 C285 1.414 . S
C284 C287 1.499 . S
C285 H259 0.950 . S
C285 C284 1.414 . S
C285 C286 1.374 . S
C286 H260 0.950 . S
C286 C282 1.385 . S
C286 C285 1.374 . S
C287 C284 1.499 . S
C287 C288 1.373 . S
C287 C289 1.389 . S
C288 H261 0.950 . S
C288 C274 1.377 . S
C288 C287 1.373 . S
C289 C273 1.377 . S
C289 C287 1.389 . S
C289 C290 1.524 . S
C290 C289 1.524 . S
C290 C291 1.397 . S
C290 C295 1.363 . S
C291 H262 0.950 . S
C291 C290 1.397 . S
C291 C292 1.334 . S
C292 H263 0.950 . S
C292 C291 1.334 . S
C292 C293 1.287 . S
C293 C292 1.287 . S
C293 C294 1.524 . S
C293 H296 0.999 . S
C294 H264 0.950 . S
C294 C293 1.524 . S
C294 C295 1.415 . S
C295 H265 0.950 . S
C295 C290 1.363 . S
C295 C294 1.415 . S
H296 C293 0.999 . S
H297 C278 0.913 . S
H298 C316 0.951 . S
H299 C318 0.951 . S
H300 C320 0.950 . S
H301 C321 0.950 . S
H302 C323 0.950 . S
H303 C326 0.950 . S
H304 C327 0.950 . S
H305 C329 0.950 . S
H306 C330 0.950 . S
H307 C331 0.951 . S
H308 C333 0.951 . S
H309 C335 0.950 . S
H310 C336 0.950 . S
H311 C338 0.950 . S
H312 C341 0.950 . S
H313 C342 0.950 . S
H314 C344 0.950 . S
H315 C345 0.950 . S
C316 H298 0.951 . S
C316 C317 1.366 . S
C316 C318 1.388 . S
C317 C316 1.366 . S
C317 C321 1.385 . S
C318 H299 0.951 . S
C318 C316 1.388 . S
C318 C319 1.366 . S
C319 C318 1.366 . S
C319 C320 1.414 . S
C319 C322 1.499 . S
C320 H300 0.950 . S
C320 C319 1.414 . S
C320 C321 1.374 . S
C321 H301 0.950 . S
C321 C317 1.385 . S
C321 C320 1.374 . S
C322 C319 1.499 . S
C322 C323 1.373 . S
C322 C324 1.389 . S
C323 H302 0.950 . S
C323 C322 1.373 . S
C323 C339 1.377 . S
C324 C322 1.389 . S
C324 C325 1.524 . S
C324 C338 1.377 . S
C325 C324 1.524 . S
C325 C326 1.397 . S
C325 C330 1.363 . S
C326 H303 0.950 . S
C326 C325 1.397 . S
C326 C327 1.334 . S
C327 H304 0.950 . S
C327 C326 1.334 . S
C327 C328 1.287 . S
C328 C327 1.287 . S
C328 C329 1.524 . S
C328 H347 0.913 . S
C329 H305 0.950 . S
C329 C328 1.524 . S
C329 C330 1.415 . S
C330 H306 0.950 . S
C330 C325 1.363 . S
C330 C329 1.415 . S
C331 H307 0.951 . S
C331 C332 1.366 . S
C331 C333 1.388 . S
C332 C331 1.366 . S
C332 C336 1.385 . S
C333 H308 0.951 . S
C333 C331 1.388 . S
C333 C334 1.366 . S
C334 C333 1.366 . S
C334 C335 1.414 . S
C334 C337 1.499 . S
C335 H309 0.950 . S
C335 C334 1.414 . S
C335 C336 1.374 . S
C336 H310 0.950 . S
C336 C332 1.385 . S
C336 C335 1.374 . S
C337 C334 1.499 . S
C337 C338 1.373 . S
C337 C339 1.389 . S
C338 H311 0.950 . S
C338 C324 1.377 . S
C338 C337 1.373 . S
C339 C323 1.377 . S
C339 C337 1.389 . S
C339 C340 1.524 . S
C340 C339 1.524 . S
C340 C341 1.397 . S
C340 C345 1.363 . S
C341 H312 0.950 . S
C341 C340 1.397 . S
C341 C342 1.334 . S
C342 H313 0.950 . S
C342 C341 1.334 . S
C342 C343 1.287 . S
C343 C342 1.287 . S
C343 C344 1.524 . S
C343 H346 0.999 . S
C344 H314 0.950 . S
C344 C343 1.524 . S
C344 C345 1.415 . S
C345 H315 0.950 . S
C345 C340 1.363 . S
C345 C344 1.415 . S
H346 C343 0.999 . S
H347 C328 0.913 . S
H348 C366 0.951 . S
H349 C368 0.951 . S
H350 C370 0.950 . S
H351 C371 0.950 . S
H352 C373 0.950 . S
H353 C376 0.950 . S
H354 C377 0.950 . S
H355 C379 0.950 . S
H356 C380 0.950 . S
H357 C381 0.951 . S
H358 C383 0.951 . S
H359 C385 0.950 . S
H360 C386 0.950 . S
H361 C388 0.950 . S
H362 C391 0.950 . S
H363 C392 0.950 . S
H364 C394 0.950 . S
H365 C395 0.950 . S
C366 H348 0.951 . S
C366 C367 1.366 . S
C366 C368 1.388 . S
C367 C366 1.366 . S
C367 C371 1.385 . S
C368 H349 0.951 . S
C368 C366 1.388 . S
C368 C369 1.366 . S
C369 C368 1.366 . S
C369 C370 1.414 . S
C369 C372 1.499 . S
C370 H350 0.950 . S
C370 C369 1.414 . S
C370 C371 1.374 . S
C371 H351 0.950 . S
C371 C367 1.385 . S
C371 C370 1.374 . S
C372 C369 1.499 . S
C372 C373 1.373 . S
C372 C374 1.389 . S
C373 H352 0.950 . S
C373 C372 1.373 . S
C373 C389 1.377 . S
C374 C372 1.389 . S
C374 C375 1.524 . S
C374 C388 1.377 . S
C375 C374 1.524 . S
C375 C376 1.397 . S
C375 C380 1.363 . S
C376 H353 0.950 . S
C376 C375 1.397 . S
C376 C377 1.334 . S
C377 H354 0.950 . S
C377 C376 1.334 . S
C377 C378 1.287 . S
C378 C377 1.287 . S
C378 C379 1.524 . S
C378 H397 0.913 . S
C379 H355 0.950 . S
C379 C378 1.524 . S
C379 C380 1.415 . S
C380 H356 0.950 . S
C380 C375 1.363 . S
C380 C379 1.415 . S
C381 H357 0.951 . S
C381 C382 1.366 . S
C381 C383 1.388 . S
C382 C381 1.366 . S
C382 C386 1.385 . S
C383 H358 0.951 . S
C383 C381 1.388 . S
C383 C384 1.366 . S
C384 C383 1.366 . S
C384 C385 1.414 . S
C384 C387 1.499 . S
C385 H359 0.950 . S
C385 C384 1.414 . S
C385 C386 1.374 . S
C386 H360 0.950 . S
C386 C382 1.385 . S
C386 C385 1.374 . S
C387 C384 1.499 . S
C387 C388 1.373 . S
C387 C389 1.389 . S
C388 H361 0.950 . S
C388 C374 1.377 . S
C388 C387 1.373 . S
C389 C373 1.377 . S
C389 C387 1.389 . S
C389 C390 1.524 . S
C390 C389 1.524 . S
C390 C391 1.397 . S
C390 C395 1.363 . S
C391 H362 0.950 . S
C391 C390 1.397 . S
C391 C392 1.334 . S
C392 H363 0.950 . S
C392 C391 1.334 . S
C392 C393 1.287 . S
C393 C392 1.287 . S
C393 C394 1.524 . S
C393 H396 0.999 . S
C394 H364 0.950 . S
C394 C393 1.524 . S
C394 C395 1.415 . S
C395 H365 0.950 . S
C395 C390 1.363 . S
C395 C394 1.415 . S
H396 C393 0.999 . S
H397 C378 0.913 . S
H398 C416 0.951 . S
H399 C418 0.951 . S
H400 C420 0.950 . S
H401 C421 0.950 . S
H402 C423 0.950 . S
H403 C426 0.950 . S
H404 C427 0.950 . S
H405 C429 0.950 . S
H406 C430 0.950 . S
H407 C431 0.951 . S
H408 C433 0.951 . S
H409 C435 0.950 . S
H410 C436 0.950 . S
H411 C438 0.950 . S
H412 C441 0.950 . S
H413 C442 0.950 . S
H414 C444 0.950 . S
H415 C445 0.950 . S
C416 H398 0.951 . S
C416 C417 1.366 . S
C416 C418 1.388 . S
C417 C416 1.366 . S
C417 C421 1.385 . S
C418 H399 0.951 . S
C418 C416 1.388 . S
C418 C419 1.366 . S
C419 C418 1.366 . S
C419 C420 1.414 . S
C419 C422 1.499 1_655 S
C420 H400 0.950 . S
C420 C419 1.414 . S
C420 C421 1.374 . S
C421 H401 0.950 . S
C421 C417 1.385 . S
C421 C420 1.374 . S
C422 C419 1.499 1_455 S
C422 C423 1.373 . S
C422 C424 1.389 . S
C423 H402 0.950 . S
C423 C422 1.373 . S
C423 C439 1.377 . S
C424 C422 1.389 . S
C424 C425 1.524 . S
C424 C438 1.377 . S
C425 C424 1.524 . S
C425 C426 1.397 . S
C425 C430 1.363 . S
C426 H403 0.950 . S
C426 C425 1.397 . S
C426 C427 1.334 1_455 S
C427 H404 0.950 . S
C427 C426 1.334 1_655 S
C427 C428 1.287 1_655 S
C428 C427 1.287 1_455 S
C428 C429 1.524 . S
C428 H447 0.913 1_455 S
C429 H405 0.950 . S
C429 C428 1.524 . S
C429 C430 1.415 . S
C430 H406 0.950 . S
C430 C425 1.363 . S
C430 C429 1.415 . S
C431 H407 0.951 . S
C431 C432 1.366 . S
C431 C433 1.388 . S
C432 C431 1.366 . S
C432 C436 1.385 . S
C433 H408 0.951 . S
C433 C431 1.388 . S
C433 C434 1.366 . S
C434 C433 1.366 . S
C434 C435 1.414 . S
C434 C437 1.499 . S
C435 H409 0.950 . S
C435 C434 1.414 . S
C435 C436 1.374 . S
C436 H410 0.950 . S
C436 C432 1.385 . S
C436 C435 1.374 . S
C437 C434 1.499 . S
C437 C438 1.373 . S
C437 C439 1.389 . S
C438 H411 0.950 . S
C438 C424 1.377 . S
C438 C437 1.373 . S
C439 C423 1.377 . S
C439 C437 1.389 . S
C439 C440 1.524 . S
C440 C439 1.524 . S
C440 C441 1.397 . S
C440 C445 1.363 . S
C441 H412 0.950 . S
C441 C440 1.397 . S
C441 C442 1.334 . S
C442 H413 0.950 . S
C442 C441 1.334 . S
C442 C443 1.287 . S
C443 C442 1.287 . S
C443 C444 1.524 . S
C443 H446 0.999 . S
C444 H414 0.950 . S
C444 C443 1.524 . S
C444 C445 1.415 . S
C445 H415 0.950 . S
C445 C440 1.363 . S
C445 C444 1.415 . S
H446 C443 0.999 . S
H447 C428 0.913 1_655 S
H448 C466 0.951 . S
H449 C468 0.951 . S
H450 C470 0.950 . S
H451 C471 0.950 . S
H452 C473 0.950 . S
H453 C476 0.950 . S
H454 C477 0.950 . S
H455 C479 0.950 . S
H456 C480 0.950 . S
H457 C481 0.951 . S
H458 C483 0.951 . S
H459 C485 0.950 . S
H460 C486 0.950 . S
H461 C488 0.950 . S
H462 C491 0.950 . S
H463 C492 0.950 . S
H464 C494 0.950 . S
H465 C495 0.950 . S
C466 H448 0.951 . S
C466 C467 1.366 . S
C466 C468 1.388 . S
C467 C466 1.366 . S
C467 C471 1.385 . S
C468 H449 0.951 . S
C468 C466 1.388 . S
C468 C469 1.366 . S
C469 C468 1.366 . S
C469 C470 1.414 . S
C469 C472 1.499 . S
C470 H450 0.950 . S
C470 C469 1.414 . S
C470 C471 1.374 . S
C471 H451 0.950 . S
C471 C467 1.385 . S
C471 C470 1.374 . S
C472 C469 1.499 . S
C472 C473 1.373 . S
C472 C474 1.389 . S
C473 H452 0.950 . S
C473 C472 1.373 . S
C473 C489 1.377 . S
C474 C472 1.389 . S
C474 C475 1.524 . S
C474 C488 1.377 . S
C475 C474 1.524 . S
C475 C476 1.397 . S
C475 C480 1.363 . S
C476 H453 0.950 . S
C476 C475 1.397 . S
C476 C477 1.334 . S
C477 H454 0.950 . S
C477 C476 1.334 . S
C477 C478 1.287 . S
C478 C477 1.287 . S
C478 C479 1.524 . S
C478 H497 0.913 . S
C479 H455 0.950 . S
C479 C478 1.524 . S
C479 C480 1.415 . S
C480 H456 0.950 . S
C480 C475 1.363 . S
C480 C479 1.415 . S
C481 H457 0.951 . S
C481 C482 1.366 . S
C481 C483 1.388 . S
C482 C481 1.366 . S
C482 C486 1.385 . S
C483 H458 0.951 . S
C483 C481 1.388 . S
C483 C484 1.366 . S
C484 C483 1.366 . S
C484 C485 1.414 . S
C484 C487 1.499 1_655 S
C485 H459 0.950 . S
C485 C484 1.414 . S
C485 C486 1.374 . S
C486 H460 0.950 . S
C486 C482 1.385 . S
C486 C485 1.374 . S
C487 C484 1.499 1_455 S
C487 C488 1.373 . S
C487 C489 1.389 . S
C488 H461 0.950 . S
C488 C474 1.377 . S
C488 C487 1.373 . S
C489 C473 1.377 . S
C489 C487 1.389 . S
C489 C490 1.524 . S
C490 C489 1.524 . S
C490 C491 1.397 . S
C490 C495 1.363 . S
C491 H462 0.950 . S
C491 C490 1.397 . S
C491 C492 1.334 1_455 S
C492 H463 0.950 . S
C492 C491 1.334 1_655 S
C492 C493 1.287 1_655 S
C493 C492 1.287 1_455 S
C493 C494 1.524 . S
C493 H496 0.999 1_455 S
C494 H464 0.950 . S
C494 C493 1.524 . S
C494 C495 1.415 . S
C495 H465 0.950 . S
C495 C490 1.363 . S
C495 C494 1.415 . S
H496 C493 0.999 1_655 S
H497 C478 0.913 . S
H498 C516 0.951 . S
H499 C518 0.951 . S
H500 C520 0.950 . S
H501 C521 0.950 . S
H502 C523 0.950 . S
H503 C526 0.950 . S
H504 C527 0.950 . S
H505 C529 0.950 . S
H506 C530 0.950 . S
H507 C531 0.951 . S
H508 C533 0.951 . S
H509 C535 0.950 . S
H510 C536 0.950 . S
H511 C538 0.950 . S
H512 C541 0.950 . S
H513 C542 0.950 . S
H514 C544 0.950 . S
H515 C545 0.950 . S
C516 H498 0.951 . S
C516 C517 1.366 . S
C516 C518 1.388 . S
C517 C516 1.366 . S
C517 C521 1.385 . S
C518 H499 0.951 . S
C518 C516 1.388 . S
C518 C519 1.366 . S
C519 C518 1.366 . S
C519 C520 1.414 . S
C519 C522 1.499 . S
C520 H500 0.950 . S
C520 C519 1.414 . S
C520 C521 1.374 . S
C521 H501 0.950 . S
C521 C517 1.385 . S
C521 C520 1.374 . S
C522 C519 1.499 . S
C522 C523 1.373 . S
C522 C524 1.389 . S
C523 H502 0.950 . S
C523 C522 1.373 . S
C523 C539 1.377 . S
C524 C522 1.389 . S
C524 C525 1.524 . S
C524 C538 1.377 . S
C525 C524 1.524 . S
C525 C526 1.397 . S
C525 C530 1.363 . S
C526 H503 0.950 . S
C526 C525 1.397 . S
C526 C527 1.334 . S
C527 H504 0.950 . S
C527 C526 1.334 . S
C527 C528 1.287 . S
C528 C527 1.287 . S
C528 C529 1.524 . S
C528 H547 0.913 . S
C529 H505 0.950 . S
C529 C528 1.524 . S
C529 C530 1.415 . S
C530 H506 0.950 . S
C530 C525 1.363 . S
C530 C529 1.415 . S
C531 H507 0.951 . S
C531 C532 1.366 . S
C531 C533 1.388 . S
C532 C531 1.366 . S
C532 C536 1.385 . S
C533 H508 0.951 . S
C533 C531 1.388 . S
C533 C534 1.366 . S
C534 C533 1.366 . S
C534 C535 1.414 . S
C534 C537 1.499 . S
C535 H509 0.950 . S
C535 C534 1.414 . S
C535 C536 1.374 . S
C536 H510 0.950 . S
C536 C532 1.385 . S
C536 C535 1.374 . S
C537 C534 1.499 . S
C537 C538 1.373 . S
C537 C539 1.389 . S
C538 H511 0.950 . S
C538 C524 1.377 . S
C538 C537 1.373 . S
C539 C523 1.377 . S
C539 C537 1.389 . S
C539 C540 1.524 . S
C540 C539 1.524 . S
C540 C541 1.397 . S
C540 C545 1.363 . S
C541 H512 0.950 . S
C541 C540 1.397 . S
C541 C542 1.334 . S
C542 H513 0.950 . S
C542 C541 1.334 . S
C542 C543 1.287 . S
C543 C542 1.287 . S
C543 C544 1.524 . S
C543 H546 0.999 . S
C544 H514 0.950 . S
C544 C543 1.524 . S
C544 C545 1.415 . S
C545 H515 0.950 . S
C545 C540 1.363 . S
C545 C544 1.415 . S
H546 C543 0.999 . S
H547 C528 0.913 . S
H548 C566 0.951 . S
H549 C568 0.951 . S
H550 C570 0.950 . S
H551 C571 0.950 . S
H552 C573 0.950 . S
H553 C576 0.950 . S
H554 C577 0.950 . S
H555 C579 0.950 . S
H556 C580 0.950 . S
H557 C581 0.951 . S
H558 C583 0.951 . S
H559 C585 0.950 . S
H560 C586 0.950 . S
H561 C588 0.950 . S
H562 C591 0.950 . S
H563 C592 0.950 . S
H564 C594 0.950 . S
H565 C595 0.950 . S
C566 H548 0.951 . S
C566 C567 1.366 . S
C566 C568 1.388 . S
C567 C566 1.366 . S
C567 C571 1.385 . S
C568 H549 0.951 . S
C568 C566 1.388 . S
C568 C569 1.366 . S
C569 C568 1.366 . S
C569 C570 1.414 . S
C569 C572 1.499 . S
C570 H550 0.950 . S
C570 C569 1.414 . S
C570 C571 1.374 . S
C571 H551 0.950 . S
C571 C567 1.385 . S
C571 C570 1.374 . S
C572 C569 1.499 . S
C572 C573 1.373 . S
C572 C574 1.389 . S
C573 H552 0.950 . S
C573 C572 1.373 . S
C573 C589 1.377 . S
C574 C572 1.389 . S
C574 C575 1.524 . S
C574 C588 1.377 . S
C575 C574 1.524 . S
C575 C576 1.397 . S
C575 C580 1.363 . S
C576 H553 0.950 . S
C576 C575 1.397 . S
C576 C577 1.334 . S
C577 H554 0.950 . S
C577 C576 1.334 . S
C577 C578 1.287 . S
C578 C577 1.287 . S
C578 C579 1.524 . S
C578 H597 0.913 . S
C579 H555 0.950 . S
C579 C578 1.524 . S
C579 C580 1.415 . S
C580 H556 0.950 . S
C580 C575 1.363 . S
C580 C579 1.415 . S
C581 H557 0.951 . S
C581 C582 1.366 . S
C581 C583 1.388 . S
C582 C581 1.366 . S
C582 C586 1.385 . S
C583 H558 0.951 . S
C583 C581 1.388 . S
C583 C584 1.366 . S
C584 C583 1.366 . S
C584 C585 1.414 . S
C584 C587 1.499 . S
C585 H559 0.950 . S
C585 C584 1.414 . S
C585 C586 1.374 . S
C586 H560 0.950 . S
C586 C582 1.385 . S
C586 C585 1.374 . S
C587 C584 1.499 . S
C587 C588 1.373 . S
C587 C589 1.389 . S
C588 H561 0.950 . S
C588 C574 1.377 . S
C588 C587 1.373 . S
C589 C573 1.377 . S
C589 C587 1.389 . S
C589 C590 1.524 . S
C590 C589 1.524 . S
C590 C591 1.397 . S
C590 C595 1.363 . S
C591 H562 0.950 . S
C591 C590 1.397 . S
C591 C592 1.334 . S
C592 H563 0.950 . S
C592 C591 1.334 . S
C592 C593 1.287 . S
C593 C592 1.287 . S
C593 C594 1.524 . S
C593 H596 0.999 . S
C594 H564 0.950 . S
C594 C593 1.524 . S
C594 C595 1.415 . S
C595 H565 0.950 . S
C595 C590 1.363 . S
C595 C594 1.415 . S
H596 C593 0.999 . S
H597 C578 0.913 . S
H598 C616 0.951 . S
H599 C618 0.951 . S
H600 C620 0.950 . S
H601 C621 0.950 . S
H602 C623 0.950 . S
H603 C626 0.950 . S
H604 C627 0.950 . S
H605 C629 0.950 . S
H606 C630 0.950 . S
H607 C631 0.951 . S
H608 C633 0.951 . S
H609 C635 0.950 . S
H610 C636 0.950 . S
H611 C638 0.950 . S
H612 C641 0.950 . S
H613 C642 0.950 . S
H614 C644 0.950 . S
H615 C645 0.950 . S
C616 H598 0.951 . S
C616 C617 1.366 . S
C616 C618 1.388 . S
C617 C616 1.366 . S
C617 C621 1.385 . S
C618 H599 0.951 . S
C618 C616 1.388 . S
C618 C619 1.366 . S
C619 C618 1.366 . S
C619 C620 1.414 . S
C619 C622 1.499 1_455 S
C620 H600 0.950 . S
C620 C619 1.414 . S
C620 C621 1.374 . S
C621 H601 0.950 . S
C621 C617 1.385 . S
C621 C620 1.374 . S
C622 C619 1.499 1_655 S
C622 C623 1.373 . S
C622 C624 1.389 . S
C623 H602 0.950 . S
C623 C622 1.373 . S
C623 C639 1.377 . S
C624 C622 1.389 . S
C624 C625 1.524 . S
C624 C638 1.377 . S
C625 C624 1.524 . S
C625 C626 1.397 . S
C625 C630 1.363 . S
C626 H603 0.950 . S
C626 C625 1.397 . S
C626 C627 1.334 1_655 S
C627 H604 0.950 . S
C627 C626 1.334 1_455 S
C627 C628 1.291 . S
C628 C627 1.291 . S
C628 C629 1.514 1_455 S
C628 H647 0.922 . S
C629 H605 0.950 . S
C629 C628 1.514 1_655 S
C629 C630 1.415 . S
C630 H606 0.950 . S
C630 C625 1.363 . S
C630 C629 1.415 . S
C631 H607 0.951 . S
C631 C632 1.366 . S
C631 C633 1.388 . S
C632 C631 1.366 . S
C632 C636 1.385 . S
C633 H608 0.951 . S
C633 C631 1.388 . S
C633 C634 1.366 . S
C634 C633 1.366 . S
C634 C635 1.414 . S
C634 C637 1.499 . S
C635 H609 0.950 . S
C635 C634 1.414 . S
C635 C636 1.374 . S
C636 H610 0.950 . S
C636 C632 1.385 . S
C636 C635 1.374 . S
C637 C634 1.499 . S
C637 C638 1.373 . S
C637 C639 1.389 . S
C638 H611 0.950 . S
C638 C624 1.377 . S
C638 C637 1.373 . S
C639 C623 1.377 . S
C639 C637 1.389 . S
C639 C640 1.524 . S
C640 C639 1.524 . S
C640 C641 1.397 . S
C640 C645 1.363 . S
C641 H612 0.950 . S
C641 C640 1.397 . S
C641 C642 1.334 . S
C642 H613 0.950 . S
C642 C641 1.334 . S
C642 C643 1.287 . S
C643 C642 1.287 . S
C643 C644 1.524 . S
C643 H646 0.999 . S
C644 H614 0.950 . S
C644 C643 1.524 . S
C644 C645 1.415 . S
C645 H615 0.950 . S
C645 C640 1.363 . S
C645 C644 1.415 . S
H646 C643 0.999 . S
H647 C628 0.922 . S
H648 C666 0.951 . S
H649 C668 0.951 . S
H650 C670 0.950 . S
H651 C671 0.950 . S
H652 C673 0.950 . S
H653 C676 0.950 . S
H654 C677 0.950 . S
H655 C679 0.950 . S
H656 C680 0.950 . S
H657 C681 0.951 . S
H658 C683 0.951 . S
H659 C685 0.950 . S
H660 C686 0.950 . S
H661 C688 0.950 . S
H662 C691 0.950 . S
H663 C692 0.950 . S
H664 C694 0.950 . S
H665 C695 0.950 . S
C666 H648 0.951 . S
C666 C667 1.366 . S
C666 C668 1.388 . S
C667 C666 1.366 . S
C667 C671 1.385 . S
C668 H649 0.951 . S
C668 C666 1.388 . S
C668 C669 1.366 . S
C669 C668 1.366 . S
C669 C670 1.414 . S
C669 C672 1.499 . S
C670 H650 0.950 . S
C670 C669 1.414 . S
C670 C671 1.374 . S
C671 H651 0.950 . S
C671 C667 1.385 . S
C671 C670 1.374 . S
C672 C669 1.499 . S
C672 C673 1.373 . S
C672 C674 1.389 . S
C673 H652 0.950 . S
C673 C672 1.373 . S
C673 C689 1.377 . S
C674 C672 1.389 . S
C674 C675 1.524 . S
C674 C688 1.377 . S
C675 C674 1.524 . S
C675 C676 1.397 . S
C675 C680 1.363 . S
C676 H653 0.950 . S
C676 C675 1.397 . S
C676 C677 1.334 . S
C677 H654 0.950 . S
C677 C676 1.334 . S
C677 C678 1.287 . S
C678 C677 1.287 . S
C678 C679 1.524 . S
C678 H697 0.913 . S
C679 H655 0.950 . S
C679 C678 1.524 . S
C679 C680 1.415 . S
C680 H656 0.950 . S
C680 C675 1.363 . S
C680 C679 1.415 . S
C681 H657 0.951 . S
C681 C682 1.366 . S
C681 C683 1.388 . S
C682 C681 1.366 . S
C682 C686 1.385 . S
C683 H658 0.951 . S
C683 C681 1.388 . S
C683 C684 1.366 . S
C684 C683 1.366 . S
C684 C685 1.414 . S
C684 C687 1.499 . S
C685 H659 0.950 . S
C685 C684 1.414 . S
C685 C686 1.374 . S
C686 H660 0.950 . S
C686 C682 1.385 . S
C686 C685 1.374 . S
C687 C684 1.499 . S
C687 C688 1.373 . S
C687 C689 1.389 . S
C688 H661 0.950 . S
C688 C674 1.377 . S
C688 C687 1.373 . S
C689 C673 1.377 . S
C689 C687 1.389 . S
C689 C690 1.524 . S
C690 C689 1.524 . S
C690 C691 1.397 . S
C690 C695 1.363 . S
C691 H662 0.950 . S
C691 C690 1.397 . S
C691 C692 1.334 . S
C692 H663 0.950 . S
C692 C691 1.334 . S
C692 C693 1.287 . S
C693 C692 1.287 . S
C693 C694 1.524 . S
C693 H696 0.999 . S
C694 H664 0.950 . S
C694 C693 1.524 . S
C694 C695 1.415 . S
C695 H665 0.950 . S
C695 C690 1.363 . S
C695 C694 1.415 . S
H696 C693 0.999 . S
H697 C678 0.913 . S
H698 C716 0.951 1_655 S
H699 C718 0.951 . S
H700 C720 0.950 . S
H701 C721 0.950 . S
H702 C723 0.950 . S
H703 C726 0.950 . S
H704 C727 0.950 . S
H705 C729 0.950 . S
H706 C730 0.950 . S
H707 C731 0.951 1_455 S
H708 C733 0.947 1_455 S
H709 C735 0.950 . S
H710 C736 0.950 . S
H711 C738 0.950 . S
H712 C741 0.950 . S
H713 C742 0.950 . S
H714 C744 0.950 . S
H715 C745 0.950 . S
C716 H698 0.951 1_455 S
C716 C717 1.366 . S
C716 C718 1.388 1_455 S
C717 C716 1.366 . S
C717 C721 1.385 . S
C718 H699 0.951 . S
C718 C716 1.388 1_655 S
C718 C719 1.366 1_655 S
C719 C718 1.366 1_455 S
C719 C720 1.414 . S
C719 C722 1.499 . S
C720 H700 0.950 . S
C720 C719 1.414 . S
C720 C721 1.374 . S
C721 H701 0.950 . S
C721 C717 1.385 . S
C721 C720 1.374 . S
C722 C719 1.499 . S
C722 C723 1.373 . S
C722 C724 1.389 1_455 S
C723 H702 0.950 . S
C723 C722 1.373 . S
C723 C739 1.377 . S
C724 C722 1.389 1_655 S
C724 C725 1.524 . S
C724 C738 1.377 . S
C725 C724 1.524 . S
C725 C726 1.397 . S
C725 C730 1.363 . S
C726 H703 0.950 . S
C726 C725 1.397 . S
C726 C727 1.334 . S
C727 H704 0.950 . S
C727 C726 1.334 . S
C727 C728 1.287 . S
C728 C727 1.287 . S
C728 C729 1.524 . S
C728 H747 0.913 . S
C729 H705 0.950 . S
C729 C728 1.524 . S
C729 C730 1.415 . S
C730 H706 0.950 . S
C730 C725 1.363 . S
C730 C729 1.415 . S
C731 H707 0.951 1_655 S
C731 C732 1.366 . S
C731 C733 1.389 . S
C732 C731 1.366 . S
C732 C736 1.385 . S
C733 H708 0.947 1_655 S
C733 C731 1.389 . S
C733 C734 1.368 . S
C734 C733 1.368 . S
C734 C735 1.414 . S
C734 C737 1.499 . S
C735 H709 0.950 . S
C735 C734 1.414 . S
C735 C736 1.374 . S
C736 H710 0.950 . S
C736 C732 1.385 . S
C736 C735 1.374 . S
C737 C734 1.499 . S
C737 C738 1.373 . S
C737 C739 1.389 1_655 S
C738 H711 0.950 . S
C738 C724 1.377 . S
C738 C737 1.373 . S
C739 C723 1.377 . S
C739 C737 1.389 1_455 S
C739 C740 1.524 . S
C740 C739 1.524 . S
C740 C741 1.397 . S
C740 C745 1.363 . S
C741 H712 0.950 . S
C741 C740 1.397 . S
C741 C742 1.334 . S
C742 H713 0.950 . S
C742 C741 1.334 . S
C742 C743 1.287 . S
C743 C742 1.287 . S
C743 C744 1.524 . S
C743 H746 0.999 . S
C744 H714 0.950 . S
C744 C743 1.524 . S
C744 C745 1.415 . S
C745 H715 0.950 . S
C745 C740 1.363 . S
C745 C744 1.415 . S
H746 C743 0.999 . S
H747 C728 0.913 . S
H748 C766 0.951 . S
H749 C768 0.951 . S
H750 C770 0.950 . S
H751 C771 0.950 . S
H752 C773 0.950 . S
H753 C776 0.950 . S
H754 C777 0.950 . S
H755 C779 0.950 . S
H756 C780 0.950 . S
H757 C781 0.951 . S
H758 C783 0.951 . S
H759 C785 0.950 . S
H760 C786 0.950 . S
H761 C788 0.950 . S
H762 C791 0.950 . S
H763 C792 0.950 . S
H764 C794 0.950 . S
H765 C795 0.950 . S
C766 H748 0.951 . S
C766 C767 1.366 . S
C766 C768 1.388 . S
C767 C766 1.366 . S
C767 C771 1.385 . S
C768 H749 0.951 . S
C768 C766 1.388 . S
C768 C769 1.366 . S
C769 C768 1.366 . S
C769 C770 1.414 . S
C769 C772 1.499 . S
C770 H750 0.950 . S
C770 C769 1.414 . S
C770 C771 1.374 . S
C771 H751 0.950 . S
C771 C767 1.385 . S
C771 C770 1.374 . S
C772 C769 1.499 . S
C772 C773 1.373 . S
C772 C774 1.389 . S
C773 H752 0.950 . S
C773 C772 1.373 . S
C773 C789 1.377 . S
C774 C772 1.389 . S
C774 C775 1.524 . S
C774 C788 1.377 . S
C775 C774 1.524 . S
C775 C776 1.397 . S
C775 C780 1.363 . S
C776 H753 0.950 . S
C776 C775 1.397 . S
C776 C777 1.334 . S
C777 H754 0.950 . S
C777 C776 1.334 . S
C777 C778 1.287 . S
C778 C777 1.287 . S
C778 C779 1.524 . S
C778 H797 0.913 . S
C779 H755 0.950 . S
C779 C778 1.524 . S
C779 C780 1.415 . S
C780 H756 0.950 . S
C780 C775 1.363 . S
C780 C779 1.415 . S
C781 H757 0.951 . S
C781 C782 1.366 . S
C781 C783 1.388 . S
C782 C781 1.366 . S
C782 C786 1.385 . S
C783 H758 0.951 . S
C783 C781 1.388 . S
C783 C784 1.366 . S
C784 C783 1.366 . S
C784 C785 1.414 . S
C784 C787 1.499 . S
C785 H759 0.950 . S
C785 C784 1.414 . S
C785 C786 1.374 . S
C786 H760 0.950 . S
C786 C782 1.385 . S
C786 C785 1.374 . S
C787 C784 1.499 . S
C787 C788 1.373 . S
C787 C789 1.389 . S
C788 H761 0.950 . S
C788 C774 1.377 . S
C788 C787 1.373 . S
C789 C773 1.377 . S
C789 C787 1.389 . S
C789 C790 1.524 . S
C790 C789 1.524 . S
C790 C791 1.397 . S
C790 C795 1.363 . S
C791 H762 0.950 . S
C791 C790 1.397 . S
C791 C792 1.334 . S
C792 H763 0.950 . S
C792 C791 1.334 . S
C792 C793 1.287 . S
C793 C792 1.287 . S
C793 C794 1.524 . S
C793 H796 0.999 . S
C794 H764 0.950 . S
C794 C793 1.524 . S
C794 C795 1.415 . S
C795 H765 0.950 . S
C795 C790 1.363 . S
C795 C794 1.415 . S
H796 C793 0.999 . S
H797 C778 0.913 . S
H798 C816 0.951 . S
H799 C818 0.951 . S
H800 C820 0.950 1_455 S
H801 C821 0.950 . S
H802 C823 0.950 . S
H803 C826 0.950 . S
H804 C827 0.950 . S
H805 C829 0.950 . S
H806 C830 0.950 . S
H807 C831 0.951 . S
H808 C833 0.951 . S
H809 C835 0.950 1_655 S
H810 C836 0.950 . S
H811 C838 0.950 . S
H812 C841 0.950 . S
H813 C842 0.950 . S
H814 C844 0.950 . S
H815 C845 0.950 . S
C816 H798 0.951 . S
C816 C817 1.366 . S
C816 C818 1.388 . S
C817 C816 1.366 . S
C817 C821 1.385 . S
C818 H799 0.951 . S
C818 C816 1.388 . S
C818 C819 1.366 . S
C819 C818 1.366 . S
C819 C820 1.414 . S
C819 C822 1.499 . S
C820 H800 0.950 1_655 S
C820 C819 1.414 . S
C820 C821 1.374 . S
C821 H801 0.950 . S
C821 C817 1.385 . S
C821 C820 1.374 . S
C822 C819 1.499 . S
C822 C823 1.373 1_655 S
C822 C824 1.389 . S
C823 H802 0.950 . S
C823 C822 1.373 1_455 S
C823 C839 1.377 . S
C824 C822 1.389 . S
C824 C825 1.524 . S
C824 C838 1.377 . S
C825 C824 1.524 . S
C825 C826 1.397 . S
C825 C830 1.363 . S
C826 H803 0.950 . S
C826 C825 1.397 . S
C826 C827 1.334 . S
C827 H804 0.950 . S
C827 C826 1.334 . S
C827 C828 1.287 . S
C828 C827 1.287 . S
C828 C829 1.524 . S
C828 H847 0.913 . S
C829 H805 0.950 . S
C829 C828 1.524 . S
C829 C830 1.415 . S
C830 H806 0.950 . S
C830 C825 1.363 . S
C830 C829 1.415 . S
C831 H807 0.951 . S
C831 C832 1.366 . S
C831 C833 1.388 . S
C832 C831 1.366 . S
C832 C836 1.385 . S
C833 H808 0.951 . S
C833 C831 1.388 . S
C833 C834 1.366 . S
C834 C833 1.366 . S
C834 C835 1.414 . S
C834 C837 1.499 . S
C835 H809 0.950 1_455 S
C835 C834 1.414 . S
C835 C836 1.374 . S
C836 H810 0.950 . S
C836 C832 1.385 . S
C836 C835 1.374 . S
C837 C834 1.499 . S
C837 C838 1.373 1_455 S
C837 C839 1.389 . S
C838 H811 0.950 . S
C838 C824 1.377 . S
C838 C837 1.373 1_655 S
C839 C823 1.377 . S
C839 C837 1.389 . S
C839 C840 1.524 . S
C840 C839 1.524 . S
C840 C841 1.397 . S
C840 C845 1.363 . S
C841 H812 0.950 . S
C841 C840 1.397 . S
C841 C842 1.334 . S
C842 H813 0.950 . S
C842 C841 1.334 . S
C842 C843 1.287 . S
C843 C842 1.287 . S
C843 C844 1.524 . S
C843 H846 0.999 . S
C844 H814 0.950 . S
C844 C843 1.524 . S
C844 C845 1.415 . S
C845 H815 0.950 . S
C845 C840 1.363 . S
C845 C844 1.415 . S
H846 C843 0.999 . S
H847 C828 0.913 . S
H848 C866 0.951 . S
H849 C868 0.951 . S
H850 C870 0.950 . S
H851 C871 0.950 . S
H852 C873 0.950 . S
H853 C876 0.950 . S
H854 C877 0.950 . S
H855 C879 0.950 . S
H856 C880 0.950 . S
H857 C881 0.951 . S
H858 C883 0.951 . S
H859 C885 0.950 . S
H860 C886 0.950 . S
H861 C888 0.950 . S
H862 C891 0.950 . S
H863 C892 0.950 . S
H864 C894 0.950 . S
H865 C895 0.950 . S
C866 H848 0.951 . S
C866 C867 1.366 . S
C866 C868 1.388 . S
C867 C866 1.366 . S
C867 C871 1.385 . S
C868 H849 0.951 . S
C868 C866 1.388 . S
C868 C869 1.366 . S
C869 C868 1.366 . S
C869 C870 1.414 . S
C869 C872 1.499 . S
C870 H850 0.950 . S
C870 C869 1.414 . S
C870 C871 1.374 . S
C871 H851 0.950 . S
C871 C867 1.385 . S
C871 C870 1.374 . S
C872 C869 1.499 . S
C872 C873 1.373 . S
C872 C874 1.389 . S
C873 H852 0.950 . S
C873 C872 1.373 . S
C873 C889 1.377 . S
C874 C872 1.389 . S
C874 C875 1.524 . S
C874 C888 1.377 . S
C875 C874 1.524 . S
C875 C876 1.397 . S
C875 C880 1.363 . S
C876 H853 0.950 . S
C876 C875 1.397 . S
C876 C877 1.334 . S
C877 H854 0.950 . S
C877 C876 1.334 . S
C877 C878 1.287 . S
C878 C877 1.287 . S
C878 C879 1.524 . S
C878 H897 0.913 . S
C879 H855 0.950 . S
C879 C878 1.524 . S
C879 C880 1.415 . S
C880 H856 0.950 . S
C880 C875 1.363 . S
C880 C879 1.415 . S
C881 H857 0.951 . S
C881 C882 1.366 . S
C881 C883 1.388 . S
C882 C881 1.366 . S
C882 C886 1.385 . S
C883 H858 0.951 . S
C883 C881 1.388 . S
C883 C884 1.366 . S
C884 C883 1.366 . S
C884 C885 1.414 . S
C884 C887 1.499 . S
C885 H859 0.950 . S
C885 C884 1.414 . S
C885 C886 1.374 . S
C886 H860 0.950 . S
C886 C882 1.385 . S
C886 C885 1.374 . S
C887 C884 1.499 . S
C887 C888 1.373 . S
C887 C889 1.389 . S
C888 H861 0.950 . S
C888 C874 1.377 . S
C888 C887 1.373 . S
C889 C873 1.377 . S
C889 C887 1.389 . S
C889 C890 1.524 . S
C890 C889 1.524 . S
C890 C891 1.397 . S
C890 C895 1.363 . S
C891 H862 0.950 . S
C891 C890 1.397 . S
C891 C892 1.334 . S
C892 H863 0.950 . S
C892 C891 1.334 . S
C892 C893 1.287 . S
C893 C892 1.287 . S
C893 C894 1.524 . S
C893 H896 0.999 . S
C894 H864 0.950 . S
C894 C893 1.524 . S
C894 C895 1.415 . S
C895 H865 0.950 . S
C895 C890 1.363 . S
C895 C894 1.415 . S
H896 C893 0.999 . S
H897 C878 0.913 . S
H898 C916 0.951 . S
H899 C918 0.951 . S
H900 C920 0.950 . S
H901 C921 0.950 . S
H902 C923 0.950 . S
H903 C926 0.950 . S
H904 C927 0.950 . S
H905 C929 0.950 . S
H906 C930 0.950 . S
H907 C931 0.951 . S
H908 C933 0.951 . S
H909 C935 0.950 . S
H910 C936 0.950 . S
H911 C938 0.950 . S
H912 C941 0.950 1_556 S
H913 C942 0.950 . S
H914 C944 0.950 . S
H915 C945 0.950 . S
C916 H898 0.951 . S
C916 C917 1.366 . S
C916 C918 1.388 . S
C917 C916 1.366 . S
C917 C921 1.385 . S
C918 H899 0.951 . S
C918 C916 1.388 . S
C918 C919 1.366 . S
C919 C918 1.366 . S
C919 C920 1.414 . S
C919 C922 1.499 . S
C920 H900 0.950 . S
C920 C919 1.414 . S
C920 C921 1.374 . S
C921 H901 0.950 . S
C921 C917 1.385 . S
C921 C920 1.374 . S
C922 C919 1.499 . S
C922 C923 1.373 . S
C922 C924 1.389 1_554 S
C923 H902 0.950 . S
C923 C922 1.373 . S
C923 C939 1.377 . S
C924 C922 1.389 1_556 S
C924 C925 1.524 . S
C924 C938 1.377 . S
C925 C924 1.524 . S
C925 C926 1.397 . S
C925 C930 1.363 . S
C926 H903 0.950 . S
C926 C925 1.397 . S
C926 C927 1.334 . S
C927 H904 0.950 . S
C927 C926 1.334 . S
C927 C928 1.287 . S
C928 C927 1.287 . S
C928 C929 1.524 . S
C928 H947 0.913 . S
C929 H905 0.950 . S
C929 C928 1.524 . S
C929 C930 1.415 . S
C930 H906 0.950 . S
C930 C925 1.363 . S
C930 C929 1.415 . S
C931 H907 0.951 . S
C931 C932 1.366 . S
C931 C933 1.388 . S
C932 C931 1.366 . S
C932 C936 1.385 . S
C933 H908 0.951 . S
C933 C931 1.388 . S
C933 C934 1.366 . S
C934 C933 1.366 . S
C934 C935 1.414 . S
C934 C937 1.499 . S
C935 H909 0.950 . S
C935 C934 1.414 . S
C935 C936 1.374 . S
C936 H910 0.950 . S
C936 C932 1.385 . S
C936 C935 1.374 . S
C937 C934 1.499 . S
C937 C938 1.373 . S
C937 C939 1.389 1_556 S
C938 H911 0.950 . S
C938 C924 1.377 . S
C938 C937 1.373 . S
C939 C923 1.377 . S
C939 C937 1.389 1_554 S
C939 C940 1.524 . S
C940 C939 1.524 . S
C940 C941 1.397 . S
C940 C945 1.363 . S
C941 H912 0.950 1_554 S
C941 C940 1.397 . S
C941 C942 1.334 1_655 S
C942 H913 0.950 . S
C942 C941 1.334 1_455 S
C942 C943 1.287 . S
C943 C942 1.287 . S
C943 C944 1.524 1_455 S
C943 H946 0.999 . S
C944 H914 0.950 . S
C944 C943 1.524 1_655 S
C944 C945 1.415 . S
C945 H915 0.950 . S
C945 C940 1.363 . S
C945 C944 1.415 . S
H946 C943 0.999 . S
H947 C928 0.913 . S
H948 C966 0.951 . S
H949 C968 0.951 . S
H950 C970 0.950 . S
H951 C971 0.950 1_655 S
H952 C973 0.950 . S
H953 C976 0.950 . S
H954 C977 0.950 . S
H955 C979 0.950 . S
H956 C980 0.950 . S
H957 C981 0.951 . S
H958 C983 0.951 . S
H959 C985 0.950 . S
H960 C986 0.950 . S
H961 C988 0.950 . S
H962 C991 0.950 . S
H963 C992 0.950 . S
H964 C994 0.950 . S
H965 C995 0.950 . S
C966 H948 0.951 . S
C966 C967 1.366 1_455 S
C966 C968 1.388 . S
C967 C966 1.366 1_655 S
C967 C971 1.385 1_655 S
C968 H949 0.951 . S
C968 C966 1.388 . S
C968 C969 1.366 . S
C969 C968 1.366 . S
C969 C970 1.414 . S
C969 C972 1.499 . S
C970 H950 0.950 . S
C970 C969 1.414 . S
C970 C971 1.374 . S
C971 H951 0.950 1_455 S
C971 C967 1.385 1_455 S
C971 C970 1.374 . S
C972 C969 1.499 . S
C972 C973 1.373 . S
C972 C974 1.389 . S
C973 H952 0.950 . S
C973 C972 1.373 . S
C973 C989 1.377 . S
C974 C972 1.389 . S
C974 C975 1.524 . S
C974 C988 1.377 . S
C975 C974 1.524 . S
C975 C976 1.397 . S
C975 C980 1.363 . S
C976 H953 0.950 . S
C976 C975 1.397 . S
C976 C977 1.334 1_455 S
C977 H954 0.950 . S
C977 C976 1.334 1_655 S
C977 C978 1.287 . S
C978 C977 1.287 . S
C978 C979 1.524 1_655 S
C978 H997 0.913 . S
C979 H955 0.950 . S
C979 C978 1.524 1_455 S
C979 C980 1.415 . S
C980 H956 0.950 . S
C980 C975 1.363 . S
C980 C979 1.415 . S
C981 H957 0.951 . S
C981 C982 1.366 . S
C981 C983 1.388 . S
C982 C981 1.366 . S
C982 C986 1.385 . S
C983 H958 0.951 . S
C983 C981 1.388 . S
C983 C984 1.366 . S
C984 C983 1.366 . S
C984 C985 1.414 . S
C984 C987 1.499 . S
C985 H959 0.950 . S
C985 C984 1.414 . S
C985 C986 1.374 . S
C986 H960 0.950 . S
C986 C982 1.385 . S
C986 C985 1.374 . S
C987 C984 1.499 . S
C987 C988 1.373 . S
C987 C989 1.389 . S
C988 H961 0.950 . S
C988 C974 1.377 . S
C988 C987 1.373 . S
C989 C973 1.377 . S
C989 C987 1.389 . S
C989 C990 1.524 . S
C990 C989 1.524 . S
C990 C991 1.397 . S
C990 C995 1.363 . S
C991 H962 0.950 . S
C991 C990 1.397 . S
C991 C992 1.334 . S
C992 H963 0.950 . S
C992 C991 1.334 . S
C992 C993 1.287 . S
C993 C992 1.287 . S
C993 C994 1.524 . S
C993 H996 0.999 . S
C994 H964 0.950 . S
C994 C993 1.524 . S
C994 C995 1.415 . S
C995 H965 0.950 . S
C995 C990 1.363 . S
C995 C994 1.415 . S
H996 C993 0.999 . S
H997 C978 0.913 . S
H998 C1016 0.951 . S
H999 C1018 0.951 . S
H1000 C1020 0.950 . S
H1001 C1021 0.950 . S
H1002 C1023 0.950 . S
H1003 C1026 0.950 . S
H1004 C1027 0.950 . S
H1005 C1029 0.950 . S
H1006 C1030 0.950 1_556 S
H1007 C1031 0.951 . S
H1008 C1033 0.951 . S
H1009 C1035 0.950 . S
H1010 C1036 0.950 . S
H1011 C1038 0.950 . S
H1012 C1041 0.950 . S
H1013 C1042 0.950 . S
H1014 C1044 0.950 . S
H1015 C1045 0.950 1_554 S
C1016 H998 0.951 . S
C1016 C1017 1.366 . S
C1016 C1018 1.388 . S
C1017 C1016 1.366 . S
C1017 C1021 1.385 . S
C1018 H999 0.951 . S
C1018 C1016 1.388 . S
C1018 C1019 1.366 . S
C1019 C1018 1.366 . S
C1019 C1020 1.414 . S
C1019 C1022 1.499 . S
C1020 H1000 0.950 . S
C1020 C1019 1.414 . S
C1020 C1021 1.374 . S
C1021 H1001 0.950 . S
C1021 C1017 1.385 . S
C1021 C1020 1.374 . S
C1022 C1019 1.499 . S
C1022 C1023 1.373 . S
C1022 C1024 1.389 . S
C1023 H1002 0.950 . S
C1023 C1022 1.373 . S
C1023 C1039 1.377 1_554 S
C1024 C1022 1.389 . S
C1024 C1025 1.524 . S
C1024 C1038 1.377 1_554 S
C1025 C1024 1.524 . S
C1025 C1026 1.397 . S
C1025 C1030 1.363 . S
C1026 H1003 0.950 . S
C1026 C1025 1.397 . S
C1026 C1027 1.334 . S
C1027 H1004 0.950 . S
C1027 C1026 1.334 . S
C1027 C1028 1.287 . S
C1028 C1027 1.287 . S
C1028 C1029 1.524 . S
C1028 H1047 0.913 . S
C1029 H1005 0.950 . S
C1029 C1028 1.524 . S
C1029 C1030 1.415 . S
C1030 H1006 0.950 1_554 S
C1030 C1025 1.363 . S
C1030 C1029 1.415 . S
C1031 H1007 0.951 . S
C1031 C1032 1.366 . S
C1031 C1033 1.388 . S
C1032 C1031 1.366 . S
C1032 C1036 1.385 . S
C1033 H1008 0.951 . S
C1033 C1031 1.388 . S
C1033 C1034 1.366 . S
C1034 C1033 1.366 . S
C1034 C1035 1.414 . S
C1034 C1037 1.499 . S
C1035 H1009 0.950 . S
C1035 C1034 1.414 . S
C1035 C1036 1.374 . S
C1036 H1010 0.950 . S
C1036 C1032 1.385 . S
C1036 C1035 1.374 . S
C1037 C1034 1.499 . S
C1037 C1038 1.373 . S
C1037 C1039 1.389 . S
C1038 H1011 0.950 . S
C1038 C1024 1.377 1_556 S
C1038 C1037 1.373 . S
C1039 C1023 1.377 1_556 S
C1039 C1037 1.389 . S
C1039 C1040 1.524 . S
C1040 C1039 1.524 . S
C1040 C1041 1.397 . S
C1040 C1045 1.363 . S
C1041 H1012 0.950 . S
C1041 C1040 1.397 . S
C1041 C1042 1.334 . S
C1042 H1013 0.950 . S
C1042 C1041 1.334 . S
C1042 C1043 1.287 . S
C1043 C1042 1.287 . S
C1043 C1044 1.524 . S
C1043 H1046 0.999 . S
C1044 H1014 0.950 . S
C1044 C1043 1.524 . S
C1044 C1045 1.415 . S
C1045 H1015 0.950 1_556 S
C1045 C1040 1.363 . S
C1045 C1044 1.415 . S
H1046 C1043 0.999 . S
H1047 C1028 0.913 . S
H1048 C1066 0.951 . S
H1049 C1068 0.951 . S
H1050 C1070 0.950 . S
H1051 C1071 0.950 . S
H1052 C1073 0.950 . S
H1053 C1076 0.950 . S
H1054 C1077 0.950 . S
H1055 C1079 0.950 . S
H1056 C1080 0.950 . S
H1057 C1081 0.951 . S
H1058 C1083 0.951 . S
H1059 C1085 0.950 . S
H1060 C1086 0.950 . S
H1061 C1088 0.950 . S
H1062 C1091 0.950 . S
H1063 C1092 0.950 . S
H1064 C1094 0.950 . S
H1065 C1095 0.950 . S
C1066 H1048 0.951 . S
C1066 C1067 1.366 . S
C1066 C1068 1.388 . S
C1067 C1066 1.366 . S
C1067 C1071 1.385 . S
C1068 H1049 0.951 . S
C1068 C1066 1.388 . S
C1068 C1069 1.366 . S
C1069 C1068 1.366 . S
C1069 C1070 1.414 . S
C1069 C1072 1.499 . S
C1070 H1050 0.950 . S
C1070 C1069 1.414 . S
C1070 C1071 1.374 . S
C1071 H1051 0.950 . S
C1071 C1067 1.385 . S
C1071 C1070 1.374 . S
C1072 C1069 1.499 . S
C1072 C1073 1.373 . S
C1072 C1074 1.389 . S
C1073 H1052 0.950 . S
C1073 C1072 1.373 . S
C1073 C1089 1.377 . S
C1074 C1072 1.389 . S
C1074 C1075 1.524 . S
C1074 C1088 1.377 . S
C1075 C1074 1.524 . S
C1075 C1076 1.397 . S
C1075 C1080 1.363 . S
C1076 H1053 0.950 . S
C1076 C1075 1.397 . S
C1076 C1077 1.334 . S
C1077 H1054 0.950 . S
C1077 C1076 1.334 . S
C1077 C1078 1.287 . S
C1078 C1077 1.287 . S
C1078 C1079 1.524 . S
C1078 H1097 0.913 . S
C1079 H1055 0.950 . S
C1079 C1078 1.524 . S
C1079 C1080 1.415 . S
C1080 H1056 0.950 . S
C1080 C1075 1.363 . S
C1080 C1079 1.415 . S
C1081 H1057 0.951 . S
C1081 C1082 1.366 . S
C1081 C1083 1.388 . S
C1082 C1081 1.366 . S
C1082 C1086 1.385 . S
C1083 H1058 0.951 . S
C1083 C1081 1.388 . S
C1083 C1084 1.366 . S
C1084 C1083 1.366 . S
C1084 C1085 1.414 . S
C1084 C1087 1.499 . S
C1085 H1059 0.950 . S
C1085 C1084 1.414 . S
C1085 C1086 1.374 . S
C1086 H1060 0.950 . S
C1086 C1082 1.385 . S
C1086 C1085 1.374 . S
C1087 C1084 1.499 . S
C1087 C1088 1.373 . S
C1087 C1089 1.389 . S
C1088 H1061 0.950 . S
C1088 C1074 1.377 . S
C1088 C1087 1.373 . S
C1089 C1073 1.377 . S
C1089 C1087 1.389 . S
C1089 C1090 1.524 . S
C1090 C1089 1.524 . S
C1090 C1091 1.397 . S
C1090 C1095 1.363 . S
C1091 H1062 0.950 . S
C1091 C1090 1.397 . S
C1091 C1092 1.334 . S
C1092 H1063 0.950 . S
C1092 C1091 1.334 . S
C1092 C1093 1.287 . S
C1093 C1092 1.287 . S
C1093 C1094 1.524 . S
C1093 H1096 0.999 . S
C1094 H1064 0.950 . S
C1094 C1093 1.524 . S
C1094 C1095 1.415 . S
C1095 H1065 0.950 . S
C1095 C1090 1.363 . S
C1095 C1094 1.415 . S
H1096 C1093 0.999 . S
H1097 C1078 0.913 . S
H1098 C1116 0.951 . S
H1099 C1118 0.951 . S
H1100 C1120 0.950 . S
H1101 C1121 0.950 . S
H1102 C1123 0.950 . S
H1103 C1126 0.950 . S
H1104 C1127 0.950 . S
H1105 C1129 0.950 . S
H1106 C1130 0.950 1_556 S
H1107 C1131 0.951 . S
H1108 C1133 0.951 . S
H1109 C1135 0.950 . S
H1110 C1136 0.950 . S
H1111 C1138 0.966 . S
H1112 C1141 0.950 . S
H1113 C1142 0.950 . S
H1114 C1144 0.950 . S
H1115 C1145 0.950 1_554 S
C1116 H1098 0.951 . S
C1116 C1117 1.366 1_655 S
C1116 C1118 1.388 1_655 S
C1117 C1116 1.366 1_455 S
C1117 C1121 1.385 . S
C1118 H1099 0.951 . S
C1118 C1116 1.388 1_455 S
C1118 C1119 1.366 . S
C1119 C1118 1.366 . S
C1119 C1120 1.414 . S
C1119 C1122 1.499 . S
C1120 H1100 0.950 . S
C1120 C1119 1.414 . S
C1120 C1121 1.374 . S
C1121 H1101 0.950 . S
C1121 C1117 1.385 . S
C1121 C1120 1.374 . S
C1122 C1119 1.499 . S
C1122 C1123 1.373 . S
C1122 C1124 1.389 . S
C1123 H1102 0.950 . S
C1123 C1122 1.373 . S
C1123 C1139 1.377 1_554 S
C1124 C1122 1.389 . S
C1124 C1125 1.524 . S
C1124 C1138 1.340 1_554 S
C1125 C1124 1.524 . S
C1125 C1126 1.397 . S
C1125 C1130 1.363 . S
C1126 H1103 0.950 . S
C1126 C1125 1.397 . S
C1126 C1127 1.334 . S
C1127 H1104 0.950 . S
C1127 C1126 1.334 . S
C1127 C1128 1.287 . S
C1128 C1127 1.287 . S
C1128 C1129 1.524 . S
C1128 H1147 0.913 . S
C1129 H1105 0.950 . S
C1129 C1128 1.524 . S
C1129 C1130 1.415 . S
C1130 H1106 0.950 1_554 S
C1130 C1125 1.363 . S
C1130 C1129 1.415 . S
C1131 H1107 0.951 . S
C1131 C1132 1.366 . S
C1131 C1133 1.388 . S
C1132 C1131 1.366 . S
C1132 C1136 1.385 . S
C1133 H1108 0.951 . S
C1133 C1131 1.388 . S
C1133 C1134 1.366 . S
C1134 C1133 1.366 . S
C1134 C1135 1.414 . S
C1134 C1137 1.499 . S
C1135 H1109 0.950 . S
C1135 C1134 1.414 . S
C1135 C1136 1.374 . S
C1136 H1110 0.950 . S
C1136 C1132 1.385 . S
C1136 C1135 1.374 . S
C1137 C1134 1.499 . S
C1137 C1138 1.397 . S
C1137 C1139 1.389 . S
C1138 H1111 0.966 . S
C1138 C1124 1.340 1_556 S
C1138 C1137 1.397 . S
C1139 C1123 1.377 1_556 S
C1139 C1137 1.389 . S
C1139 C1140 1.524 . S
C1140 C1139 1.524 . S
C1140 C1141 1.397 . S
C1140 C1145 1.363 . S
C1141 H1112 0.950 . S
C1141 C1140 1.397 . S
C1141 C1142 1.334 . S
C1142 H1113 0.950 . S
C1142 C1141 1.334 . S
C1142 C1143 1.287 . S
C1143 C1142 1.287 . S
C1143 C1144 1.524 . S
C1143 H1146 0.999 . S
C1144 H1114 0.950 . S
C1144 C1143 1.524 . S
C1144 C1145 1.415 . S
C1145 H1115 0.950 1_556 S
C1145 C1140 1.363 . S
C1145 C1144 1.415 . S
H1146 C1143 0.999 . S
H1147 C1128 0.913 . S
H1148 C1166 0.951 . S
H1149 C1168 0.951 . S
H1150 C1170 0.950 . S
H1151 C1171 0.950 . S
H1152 C1173 0.950 . S
H1153 C1176 0.950 . S
H1154 C1177 0.950 . S
H1155 C1179 0.950 . S
H1156 C1180 0.950 . S
H1157 C1181 0.951 . S
H1158 C1183 0.951 . S
H1159 C1185 0.950 . S
H1160 C1186 0.950 . S
H1161 C1188 0.950 . S
H1162 C1191 0.950 . S
H1163 C1192 0.950 . S
H1164 C1194 0.950 . S
H1165 C1195 0.950 . S
C1166 H1148 0.951 . S
C1166 C1167 1.366 . S
C1166 C1168 1.388 . S
C1167 C1166 1.366 . S
C1167 C1171 1.385 . S
C1168 H1149 0.951 . S
C1168 C1166 1.388 . S
C1168 C1169 1.366 . S
C1169 C1168 1.366 . S
C1169 C1170 1.414 . S
C1169 C1172 1.499 . S
C1170 H1150 0.950 . S
C1170 C1169 1.414 . S
C1170 C1171 1.374 . S
C1171 H1151 0.950 . S
C1171 C1167 1.385 . S
C1171 C1170 1.374 . S
C1172 C1169 1.499 . S
C1172 C1173 1.373 . S
C1172 C1174 1.389 . S
C1173 H1152 0.950 . S
C1173 C1172 1.373 . S
C1173 C1189 1.377 . S
C1174 C1172 1.389 . S
C1174 C1175 1.524 . S
C1174 C1188 1.377 . S
C1175 C1174 1.524 . S
C1175 C1176 1.397 . S
C1175 C1180 1.363 . S
C1176 H1153 0.950 . S
C1176 C1175 1.397 . S
C1176 C1177 1.334 1_655 S
C1177 H1154 0.950 . S
C1177 C1176 1.334 1_455 S
C1177 C1178 1.287 . S
C1178 C1177 1.287 . S
C1178 C1179 1.524 1_455 S
C1178 H1197 0.913 . S
C1179 H1155 0.950 . S
C1179 C1178 1.524 1_655 S
C1179 C1180 1.415 . S
C1180 H1156 0.950 . S
C1180 C1175 1.363 . S
C1180 C1179 1.415 . S
C1181 H1157 0.951 . S
C1181 C1182 1.366 . S
C1181 C1183 1.388 . S
C1182 C1181 1.366 . S
C1182 C1186 1.385 . S
C1183 H1158 0.951 . S
C1183 C1181 1.388 . S
C1183 C1184 1.366 . S
C1184 C1183 1.366 . S
C1184 C1185 1.414 . S
C1184 C1187 1.499 . S
C1185 H1159 0.950 . S
C1185 C1184 1.414 . S
C1185 C1186 1.374 . S
C1186 H1160 0.950 . S
C1186 C1182 1.385 . S
C1186 C1185 1.374 . S
C1187 C1184 1.499 . S
C1187 C1188 1.373 . S
C1187 C1189 1.389 . S
C1188 H1161 0.950 . S
C1188 C1174 1.377 . S
C1188 C1187 1.373 . S
C1189 C1173 1.377 . S
C1189 C1187 1.389 . S
C1189 C1190 1.524 . S
C1190 C1189 1.524 . S
C1190 C1191 1.397 . S
C1190 C1195 1.363 . S
C1191 H1162 0.950 . S
C1191 C1190 1.397 . S
C1191 C1192 1.334 . S
C1192 H1163 0.950 . S
C1192 C1191 1.334 . S
C1192 C1193 1.287 . S
C1193 C1192 1.287 . S
C1193 C1194 1.524 . S
C1193 H1196 0.999 . S
C1194 H1164 0.950 . S
C1194 C1193 1.524 . S
C1194 C1195 1.415 . S
C1195 H1165 0.950 . S
C1195 C1190 1.363 . S
C1195 C1194 1.415 . S
H1196 C1193 0.999 . S
H1197 C1178 0.913 . S
H1198 C1216 0.951 . S
H1199 C1218 0.951 . S
H1200 C1220 0.950 . S
H1201 C1221 0.950 . S
H1202 C1223 0.950 . S
H1203 C1226 0.950 1_556 S
H1204 C1227 0.950 . S
H1205 C1229 0.950 . S
H1206 C1230 0.950 . S
H1207 C1231 0.951 . S
H1208 C1233 0.951 . S
H1209 C1235 0.950 . S
H1210 C1236 0.950 . S
H1211 C1238 0.950 . S
H1212 C1241 0.950 . S
H1213 C1242 0.950 . S
H1214 C1244 0.950 . S
H1215 C1245 0.950 . S
C1216 H1198 0.951 . S
C1216 C1217 1.366 . S
C1216 C1218 1.388 . S
C1217 C1216 1.366 . S
C1217 C1221 1.385 . S
C1218 H1199 0.951 . S
C1218 C1216 1.388 . S
C1218 C1219 1.366 . S
C1219 C1218 1.366 . S
C1219 C1220 1.414 . S
C1219 C1222 1.499 . S
C1220 H1200 0.950 . S
C1220 C1219 1.414 . S
C1220 C1221 1.374 . S
C1221 H1201 0.950 . S
C1221 C1217 1.385 . S
C1221 C1220 1.374 . S
C1222 C1219 1.499 . S
C1222 C1223 1.373 . S
C1222 C1224 1.389 1_556 S
C1223 H1202 0.950 . S
C1223 C1222 1.373 . S
C1223 C1239 1.377 . S
C1224 C1222 1.389 1_554 S
C1224 C1225 1.524 . S
C1224 C1238 1.377 . S
C1225 C1224 1.524 . S
C1225 C1226 1.397 . S
C1225 C1230 1.363 . S
C1226 H1203 0.950 1_554 S
C1226 C1225 1.397 . S
C1226 C1227 1.334 . S
C1227 H1204 0.950 . S
C1227 C1226 1.334 . S
C1227 C1228 1.287 . S
C1228 C1227 1.287 . S
C1228 C1229 1.524 . S
C1228 H1247 0.913 . S
C1229 H1205 0.950 . S
C1229 C1228 1.524 . S
C1229 C1230 1.415 . S
C1230 H1206 0.950 . S
C1230 C1225 1.363 . S
C1230 C1229 1.415 . S
C1231 H1207 0.951 . S
C1231 C1232 1.366 . S
C1231 C1233 1.388 . S
C1232 C1231 1.366 . S
C1232 C1236 1.385 . S
C1233 H1208 0.951 . S
C1233 C1231 1.388 . S
C1233 C1234 1.366 . S
C1234 C1233 1.366 . S
C1234 C1235 1.414 . S
C1234 C1237 1.499 . S
C1235 H1209 0.950 . S
C1235 C1234 1.414 . S
C1235 C1236 1.374 . S
C1236 H1210 0.950 . S
C1236 C1232 1.385 . S
C1236 C1235 1.374 . S
C1237 C1234 1.499 . S
C1237 C1238 1.373 . S
C1237 C1239 1.389 1_554 S
C1238 H1211 0.950 . S
C1238 C1224 1.377 . S
C1238 C1237 1.373 . S
C1239 C1223 1.377 . S
C1239 C1237 1.389 1_556 S
C1239 C1240 1.524 . S
C1240 C1239 1.524 . S
C1240 C1241 1.397 . S
C1240 C1245 1.363 . S
C1241 H1212 0.950 . S
C1241 C1240 1.397 . S
C1241 C1242 1.334 . S
C1242 H1213 0.950 . S
C1242 C1241 1.334 . S
C1242 C1243 1.287 . S
C1243 C1242 1.287 . S
C1243 C1244 1.524 . S
C1243 H1246 0.999 . S
C1244 H1214 0.950 . S
C1244 C1243 1.524 . S
C1244 C1245 1.415 . S
C1245 H1215 0.950 . S
C1245 C1240 1.363 . S
C1245 C1244 1.415 . S
H1246 C1243 0.999 . S
H1247 C1228 0.913 . S
H1248 C1266 0.951 1_565 S
H1249 C1268 0.951 . S
H1250 C1270 0.950 . S
H1251 C1271 0.950 . S
H1252 C1273 0.950 . S
H1253 C1276 0.950 . S
H1254 C1277 0.950 . S
H1255 C1279 0.950 . S
H1256 C1280 0.950 . S
H1257 C1281 0.951 . S
H1258 C1283 0.951 . S
H1259 C1285 0.950 . S
H1260 C1286 0.950 . S
H1261 C1288 0.950 . S
H1262 C1291 0.950 . S
H1263 C1292 0.950 . S
H1264 C1294 0.950 . S
H1265 C1295 0.950 . S
C1266 H1248 0.951 1_545 S
C1266 C1267 1.366 1_545 S
C1266 C1268 1.388 . S
C1267 C1266 1.366 1_565 S
C1267 C1271 1.385 1_565 S
C1268 H1249 0.951 . S
C1268 C1266 1.388 . S
C1268 C1269 1.366 . S
C1269 C1268 1.366 . S
C1269 C1270 1.414 . S
C1269 C1272 1.499 . S
C1270 H1250 0.950 . S
C1270 C1269 1.414 . S
C1270 C1271 1.374 . S
C1271 H1251 0.950 . S
C1271 C1267 1.385 1_545 S
C1271 C1270 1.374 . S
C1272 C1269 1.499 . S
C1272 C1273 1.373 . S
C1272 C1274 1.389 . S
C1273 H1252 0.950 . S
C1273 C1272 1.373 . S
C1273 C1289 1.377 . S
C1274 C1272 1.389 . S
C1274 C1275 1.524 . S
C1274 C1288 1.377 . S
C1275 C1274 1.524 . S
C1275 C1276 1.397 . S
C1275 C1280 1.363 . S
C1276 H1253 0.950 . S
C1276 C1275 1.397 . S
C1276 C1277 1.334 . S
C1277 H1254 0.950 . S
C1277 C1276 1.334 . S
C1277 C1278 1.287 . S
C1278 C1277 1.287 . S
C1278 C1279 1.524 . S
C1278 H1297 0.913 . S
C1279 H1255 0.950 . S
C1279 C1278 1.524 . S
C1279 C1280 1.415 . S
C1280 H1256 0.950 . S
C1280 C1275 1.363 . S
C1280 C1279 1.415 . S
C1281 H1257 0.951 . S
C1281 C1282 1.366 . S
C1281 C1283 1.388 . S
C1282 C1281 1.366 . S
C1282 C1286 1.385 . S
C1283 H1258 0.951 . S
C1283 C1281 1.388 . S
C1283 C1284 1.366 . S
C1284 C1283 1.366 . S
C1284 C1285 1.414 . S
C1284 C1287 1.499 . S
C1285 H1259 0.950 . S
C1285 C1284 1.414 . S
C1285 C1286 1.374 . S
C1286 H1260 0.950 . S
C1286 C1282 1.385 . S
C1286 C1285 1.374 . S
C1287 C1284 1.499 . S
C1287 C1288 1.373 . S
C1287 C1289 1.389 . S
C1288 H1261 0.950 . S
C1288 C1274 1.377 . S
C1288 C1287 1.373 . S
C1289 C1273 1.377 . S
C1289 C1287 1.389 . S
C1289 C1290 1.524 . S
C1290 C1289 1.524 . S
C1290 C1291 1.397 . S
C1290 C1295 1.363 . S
C1291 H1262 0.950 . S
C1291 C1290 1.397 . S
C1291 C1292 1.334 . S
C1292 H1263 0.950 . S
C1292 C1291 1.334 . S
C1292 C1293 1.287 . S
C1293 C1292 1.287 . S
C1293 C1294 1.524 . S
C1293 H1296 0.999 . S
C1294 H1264 0.950 . S
C1294 C1293 1.524 . S
C1294 C1295 1.415 . S
C1295 H1265 0.950 . S
C1295 C1290 1.363 . S
C1295 C1294 1.415 . S
H1296 C1293 0.999 . S
H1297 C1278 0.913 . S
H1298 C1316 0.951 . S
H1299 C1318 0.951 . S
H1300 C1320 0.950 . S
H1301 C1321 0.950 . S
H1302 C1323 0.950 . S
H1303 C1326 0.950 . S
H1304 C1327 0.950 . S
H1305 C1329 0.950 . S
H1306 C1330 0.950 . S
H1307 C1331 0.951 . S
H1308 C1333 0.951 . S
H1309 C1335 0.950 . S
H1310 C1336 0.950 . S
H1311 C1338 0.950 . S
H1312 C1341 0.950 . S
H1313 C1342 0.950 . S
H1314 C1344 0.950 . S
H1315 C1345 0.950 . S
C1316 H1298 0.951 . S
C1316 C1317 1.366 . S
C1316 C1318 1.388 . S
C1317 C1316 1.366 . S
C1317 C1321 1.385 . S
C1318 H1299 0.951 . S
C1318 C1316 1.388 . S
C1318 C1319 1.366 . S
C1319 C1318 1.366 . S
C1319 C1320 1.414 . S
C1319 C1322 1.499 . S
C1320 H1300 0.950 . S
C1320 C1319 1.414 . S
C1320 C1321 1.374 . S
C1321 H1301 0.950 . S
C1321 C1317 1.385 . S
C1321 C1320 1.374 . S
C1322 C1319 1.499 . S
C1322 C1323 1.373 . S
C1322 C1324 1.389 . S
C1323 H1302 0.950 . S
C1323 C1322 1.373 . S
C1323 C1339 1.377 . S
C1324 C1322 1.389 . S
C1324 C1325 1.524 . S
C1324 C1338 1.377 . S
C1325 C1324 1.524 . S
C1325 C1326 1.397 . S
C1325 C1330 1.363 . S
C1326 H1303 0.950 . S
C1326 C1325 1.397 . S
C1326 C1327 1.334 . S
C1327 H1304 0.950 . S
C1327 C1326 1.334 . S
C1327 C1328 1.287 . S
C1328 C1327 1.287 . S
C1328 C1329 1.524 . S
C1328 H1347 0.913 . S
C1329 H1305 0.950 . S
C1329 C1328 1.524 . S
C1329 C1330 1.415 . S
C1330 H1306 0.950 . S
C1330 C1325 1.363 . S
C1330 C1329 1.415 . S
C1331 H1307 0.951 . S
C1331 C1332 1.366 . S
C1331 C1333 1.388 . S
C1332 C1331 1.366 . S
C1332 C1336 1.385 . S
C1333 H1308 0.951 . S
C1333 C1331 1.388 . S
C1333 C1334 1.366 . S
C1334 C1333 1.366 . S
C1334 C1335 1.414 . S
C1334 C1337 1.499 . S
C1335 H1309 0.950 . S
C1335 C1334 1.414 . S
C1335 C1336 1.374 . S
C1336 H1310 0.950 . S
C1336 C1332 1.385 . S
C1336 C1335 1.374 . S
C1337 C1334 1.499 . S
C1337 C1338 1.373 . S
C1337 C1339 1.389 . S
C1338 H1311 0.950 . S
C1338 C1324 1.377 . S
C1338 C1337 1.373 . S
C1339 C1323 1.377 . S
C1339 C1337 1.389 . S
C1339 C1340 1.524 . S
C1340 C1339 1.524 . S
C1340 C1341 1.397 . S
C1340 C1345 1.363 . S
C1341 H1312 0.950 . S
C1341 C1340 1.397 . S
C1341 C1342 1.334 . S
C1342 H1313 0.950 . S
C1342 C1341 1.334 . S
C1342 C1343 1.287 . S
C1343 C1342 1.287 . S
C1343 C1344 1.524 . S
C1343 H1346 0.999 . S
C1344 H1314 0.950 . S
C1344 C1343 1.524 . S
C1344 C1345 1.415 . S
C1345 H1315 0.950 . S
C1345 C1340 1.363 . S
C1345 C1344 1.415 . S
H1346 C1343 0.999 . S
H1347 C1328 0.913 . S
H1348 C1366 0.951 . S
H1349 C1368 0.951 . S
H1350 C1370 0.950 . S
H1351 C1371 0.950 . S
H1352 C1373 0.950 . S
H1353 C1376 0.950 . S
H1354 C1377 0.950 . S
H1355 C1379 0.950 1_455 S
H1356 C1380 0.950 . S
H1357 C1381 0.951 . S
H1358 C1383 0.951 . S
H1359 C1385 0.950 . S
H1360 C1386 0.950 . S
H1361 C1388 0.950 . S
H1362 C1391 0.950 . S
H1363 C1392 0.950 . S
H1364 C1394 0.950 . S
H1365 C1395 0.950 . S
C1366 H1348 0.951 . S
C1366 C1367 1.366 . S
C1366 C1368 1.388 . S
C1367 C1366 1.366 . S
C1367 C1371 1.385 . S
C1368 H1349 0.951 . S
C1368 C1366 1.388 . S
C1368 C1369 1.366 . S
C1369 C1368 1.366 . S
C1369 C1370 1.414 . S
C1369 C1372 1.499 . S
C1370 H1350 0.950 . S
C1370 C1369 1.414 . S
C1370 C1371 1.374 . S
C1371 H1351 0.950 . S
C1371 C1367 1.385 . S
C1371 C1370 1.374 . S
C1372 C1369 1.499 . S
C1372 C1373 1.373 . S
C1372 C1374 1.389 . S
C1373 H1352 0.950 . S
C1373 C1372 1.373 . S
C1373 C1389 1.377 . S
C1374 C1372 1.389 . S
C1374 C1375 1.524 . S
C1374 C1388 1.377 . S
C1375 C1374 1.524 . S
C1375 C1376 1.397 . S
C1375 C1380 1.363 . S
C1376 H1353 0.950 . S
C1376 C1375 1.397 . S
C1376 C1377 1.334 . S
C1377 H1354 0.950 . S
C1377 C1376 1.334 . S
C1377 C1378 1.287 . S
C1378 C1377 1.287 . S
C1378 C1379 1.524 . S
C1378 H1397 0.913 1_655 S
C1379 H1355 0.950 1_655 S
C1379 C1378 1.524 . S
C1379 C1380 1.415 . S
C1380 H1356 0.950 . S
C1380 C1375 1.363 . S
C1380 C1379 1.415 . S
C1381 H1357 0.951 . S
C1381 C1382 1.366 . S
C1381 C1383 1.388 . S
C1382 C1381 1.366 . S
C1382 C1386 1.385 . S
C1383 H1358 0.951 . S
C1383 C1381 1.388 . S
C1383 C1384 1.366 . S
C1384 C1383 1.366 . S
C1384 C1385 1.414 . S
C1384 C1387 1.499 . S
C1385 H1359 0.950 . S
C1385 C1384 1.414 . S
C1385 C1386 1.374 . S
C1386 H1360 0.950 . S
C1386 C1382 1.385 . S
C1386 C1385 1.374 . S
C1387 C1384 1.499 . S
C1387 C1388 1.373 . S
C1387 C1389 1.389 . S
C1388 H1361 0.950 . S
C1388 C1374 1.377 . S
C1388 C1387 1.373 . S
C1389 C1373 1.377 . S
C1389 C1387 1.389 . S
C1389 C1390 1.524 . S
C1390 C1389 1.524 . S
C1390 C1391 1.397 . S
C1390 C1395 1.363 . S
C1391 H1362 0.950 . S
C1391 C1390 1.397 . S
C1391 C1392 1.334 . S
C1392 H1363 0.950 . S
C1392 C1391 1.334 . S
C1392 C1393 1.287 . S
C1393 C1392 1.287 . S
C1393 C1394 1.524 . S
C1393 H1396 0.999 . S
C1394 H1364 0.950 . S
C1394 C1393 1.524 . S
C1394 C1395 1.415 . S
C1395 H1365 0.950 . S
C1395 C1390 1.363 . S
C1395 C1394 1.415 . S
H1396 C1393 0.999 . S
H1397 C1378 0.913 1_455 S
H1398 C1416 0.951 . S
H1399 C1418 0.951 . S
H1400 C1420 0.950 . S
H1401 C1421 0.963 . S
H1402 C1423 0.950 . S
H1403 C1426 0.950 . S
H1404 C1427 0.950 . S
H1405 C1429 0.950 . S
H1406 C1430 0.950 . S
H1407 C1431 0.951 . S
H1408 C1433 0.951 . S
H1409 C1435 0.950 . S
H1410 C1436 0.950 . S
H1411 C1438 0.950 . S
H1412 C1441 0.950 . S
H1413 C1442 0.950 . S
H1414 C1444 0.950 . S
H1415 C1445 0.950 . S
C1416 H1398 0.951 . S
C1416 C1417 1.366 1_545 S
C1416 C1418 1.388 . S
C1417 C1416 1.366 1_565 S
C1417 C1421 1.385 1_565 S
C1418 H1399 0.951 . S
C1418 C1416 1.388 . S
C1418 C1419 1.366 . S
C1419 C1418 1.366 . S
C1419 C1420 1.414 . S
C1419 C1422 1.499 . S
C1420 H1400 0.950 . S
C1420 C1419 1.414 . S
C1420 C1421 1.374 . S
C1421 H1401 0.963 . S
C1421 C1417 1.385 1_545 S
C1421 C1420 1.374 . S
C1422 C1419 1.499 . S
C1422 C1423 1.373 . S
C1422 C1424 1.389 . S
C1423 H1402 0.950 . S
C1423 C1422 1.373 . S
C1423 C1439 1.377 . S
C1424 C1422 1.389 . S
C1424 C1425 1.524 . S
C1424 C1438 1.377 . S
C1425 C1424 1.524 . S
C1425 C1426 1.397 . S
C1425 C1430 1.363 . S
C1426 H1403 0.950 . S
C1426 C1425 1.397 . S
C1426 C1427 1.334 . S
C1427 H1404 0.950 . S
C1427 C1426 1.334 . S
C1427 C1428 1.287 . S
C1428 C1427 1.287 . S
C1428 C1429 1.524 . S
C1428 H1447 0.913 . S
C1429 H1405 0.950 . S
C1429 C1428 1.524 . S
C1429 C1430 1.415 . S
C1430 H1406 0.950 . S
C1430 C1425 1.363 . S
C1430 C1429 1.415 . S
C1431 H1407 0.951 . S
C1431 C1432 1.366 . S
C1431 C1433 1.388 . S
C1432 C1431 1.366 . S
C1432 C1436 1.385 . S
C1433 H1408 0.951 . S
C1433 C1431 1.388 . S
C1433 C1434 1.366 . S
C1434 C1433 1.366 . S
C1434 C1435 1.414 . S
C1434 C1437 1.499 . S
C1435 H1409 0.950 . S
C1435 C1434 1.414 . S
C1435 C1436 1.374 . S
C1436 H1410 0.950 . S
C1436 C1432 1.385 . S
C1436 C1435 1.374 . S
C1437 C1434 1.499 . S
C1437 C1438 1.373 . S
C1437 C1439 1.389 . S
C1438 H1411 0.950 . S
C1438 C1424 1.377 . S
C1438 C1437 1.373 . S
C1439 C1423 1.377 . S
C1439 C1437 1.389 . S
C1439 C1440 1.524 . S
C1440 C1439 1.524 . S
C1440 C1441 1.397 . S
C1440 C1445 1.363 . S
C1441 H1412 0.950 . S
C1441 C1440 1.397 . S
C1441 C1442 1.334 . S
C1442 H1413 0.950 . S
C1442 C1441 1.334 . S
C1442 C1443 1.287 . S
C1443 C1442 1.287 . S
C1443 C1444 1.524 . S
C1443 H1446 0.999 . S
C1444 H1414 0.950 . S
C1444 C1443 1.524 . S
C1444 C1445 1.415 . S
C1445 H1415 0.950 . S
C1445 C1440 1.363 . S
C1445 C1444 1.415 . S
H1446 C1443 0.999 . S
H1447 C1428 0.913 . S
H1448 C1466 0.951 . S
H1449 C1468 0.951 . S
H1450 C1470 0.950 . S
H1451 C1471 0.950 . S
H1452 C1473 0.950 . S
H1453 C1476 0.950 . S
H1454 C1477 0.950 . S
H1455 C1479 0.950 . S
H1456 C1480 0.950 . S
H1457 C1481 0.939 1_545 S
H1458 C1483 0.951 . S
H1459 C1485 0.950 . S
H1460 C1486 0.950 . S
H1461 C1488 0.950 . S
H1462 C1491 0.950 . S
H1463 C1492 0.950 . S
H1464 C1494 0.950 . S
H1465 C1495 0.950 . S
C1466 H1448 0.951 . S
C1466 C1467 1.366 . S
C1466 C1468 1.388 . S
C1467 C1466 1.366 . S
C1467 C1471 1.385 . S
C1468 H1449 0.951 . S
C1468 C1466 1.388 . S
C1468 C1469 1.366 . S
C1469 C1468 1.366 . S
C1469 C1470 1.414 . S
C1469 C1472 1.499 . S
C1470 H1450 0.950 . S
C1470 C1469 1.414 . S
C1470 C1471 1.374 . S
C1471 H1451 0.950 . S
C1471 C1467 1.385 . S
C1471 C1470 1.374 . S
C1472 C1469 1.499 . S
C1472 C1473 1.373 . S
C1472 C1474 1.389 . S
C1473 H1452 0.950 . S
C1473 C1472 1.373 . S
C1473 C1489 1.377 . S
C1474 C1472 1.389 . S
C1474 C1475 1.524 . S
C1474 C1488 1.377 . S
C1475 C1474 1.524 . S
C1475 C1476 1.397 . S
C1475 C1480 1.363 . S
C1476 H1453 0.950 . S
C1476 C1475 1.397 . S
C1476 C1477 1.334 . S
C1477 H1454 0.950 . S
C1477 C1476 1.334 . S
C1477 C1478 1.287 . S
C1478 C1477 1.287 . S
C1478 C1479 1.524 . S
C1478 H1497 0.913 . S
C1479 H1455 0.950 . S
C1479 C1478 1.524 . S
C1479 C1480 1.415 . S
C1480 H1456 0.950 . S
C1480 C1475 1.363 . S
C1480 C1479 1.415 . S
C1481 H1457 0.939 1_565 S
C1481 C1482 1.360 1_565 S
C1481 C1483 1.405 . S
C1482 C1481 1.360 1_545 S
C1482 C1486 1.385 1_545 S
C1483 H1458 0.951 . S
C1483 C1481 1.405 . S
C1483 C1484 1.366 . S
C1484 C1483 1.366 . S
C1484 C1485 1.414 . S
C1484 C1487 1.499 . S
C1485 H1459 0.950 . S
C1485 C1484 1.414 . S
C1485 C1486 1.374 . S
C1486 H1460 0.950 . S
C1486 C1482 1.385 1_565 S
C1486 C1485 1.374 . S
C1487 C1484 1.499 . S
C1487 C1488 1.373 . S
C1487 C1489 1.389 . S
C1488 H1461 0.950 . S
C1488 C1474 1.377 . S
C1488 C1487 1.373 . S
C1489 C1473 1.377 . S
C1489 C1487 1.389 . S
C1489 C1490 1.524 . S
C1490 C1489 1.524 . S
C1490 C1491 1.397 . S
C1490 C1495 1.363 . S
C1491 H1462 0.950 . S
C1491 C1490 1.397 . S
C1491 C1492 1.334 . S
C1492 H1463 0.950 . S
C1492 C1491 1.334 . S
C1492 C1493 1.287 . S
C1493 C1492 1.287 . S
C1493 C1494 1.524 . S
C1493 H1496 0.999 . S
C1494 H1464 0.950 . S
C1494 C1493 1.524 . S
C1494 C1495 1.415 . S
C1495 H1465 0.950 . S
C1495 C1490 1.363 . S
C1495 C1494 1.415 . S
H1496 C1493 0.999 . S
H1497 C1478 0.913 . S
H1498 C1516 0.951 . S
H1499 C1518 0.951 . S
H1500 C1520 0.950 . S
H1501 C1521 0.950 . S
H1502 C1523 0.950 . S
H1503 C1526 0.950 . S
H1504 C1527 0.950 . S
H1505 C1529 0.950 . S
H1506 C1530 0.950 . S
H1507 C1531 0.951 . S
H1508 C1533 0.951 . S
H1509 C1535 0.950 . S
H1510 C1536 0.950 . S
H1511 C1538 0.950 . S
H1512 C1541 0.950 . S
H1513 C1542 0.950 . S
H1514 C1544 0.950 . S
H1515 C1545 0.950 . S
C1516 H1498 0.951 . S
C1516 C1517 1.366 . S
C1516 C1518 1.388 . S
C1517 C1516 1.366 . S
C1517 C1521 1.385 . S
C1518 H1499 0.951 . S
C1518 C1516 1.388 . S
C1518 C1519 1.366 . S
C1519 C1518 1.366 . S
C1519 C1520 1.414 . S
C1519 C1522 1.499 . S
C1520 H1500 0.950 . S
C1520 C1519 1.414 . S
C1520 C1521 1.374 . S
C1521 H1501 0.950 . S
C1521 C1517 1.385 . S
C1521 C1520 1.374 . S
C1522 C1519 1.499 . S
C1522 C1523 1.373 . S
C1522 C1524 1.389 . S
C1523 H1502 0.950 . S
C1523 C1522 1.373 . S
C1523 C1539 1.377 . S
C1524 C1522 1.389 . S
C1524 C1525 1.524 . S
C1524 C1538 1.377 . S
C1525 C1524 1.524 . S
C1525 C1526 1.397 . S
C1525 C1530 1.363 . S
C1526 H1503 0.950 . S
C1526 C1525 1.397 . S
C1526 C1527 1.334 . S
C1527 H1504 0.950 . S
C1527 C1526 1.334 . S
C1527 C1528 1.287 . S
C1528 C1527 1.287 . S
C1528 C1529 1.524 . S
C1528 H1547 0.913 . S
C1529 H1505 0.950 . S
C1529 C1528 1.524 . S
C1529 C1530 1.415 . S
C1530 H1506 0.950 . S
C1530 C1525 1.363 . S
C1530 C1529 1.415 . S
C1531 H1507 0.951 . S
C1531 C1532 1.366 . S
C1531 C1533 1.388 . S
C1532 C1531 1.366 . S
C1532 C1536 1.385 . S
C1533 H1508 0.951 . S
C1533 C1531 1.388 . S
C1533 C1534 1.366 . S
C1534 C1533 1.366 . S
C1534 C1535 1.414 . S
C1534 C1537 1.499 . S
C1535 H1509 0.950 . S
C1535 C1534 1.414 . S
C1535 C1536 1.374 . S
C1536 H1510 0.950 . S
C1536 C1532 1.385 . S
C1536 C1535 1.374 . S
C1537 C1534 1.499 . S
C1537 C1538 1.373 . S
C1537 C1539 1.389 . S
C1538 H1511 0.950 . S
C1538 C1524 1.377 . S
C1538 C1537 1.373 . S
C1539 C1523 1.377 . S
C1539 C1537 1.389 . S
C1539 C1540 1.524 . S
C1540 C1539 1.524 . S
C1540 C1541 1.397 . S
C1540 C1545 1.363 . S
C1541 H1512 0.950 . S
C1541 C1540 1.397 . S
C1541 C1542 1.334 . S
C1542 H1513 0.950 . S
C1542 C1541 1.334 . S
C1542 C1543 1.287 . S
C1543 C1542 1.287 . S
C1543 C1544 1.524 . S
C1543 H1546 0.999 . S
C1544 H1514 0.950 . S
C1544 C1543 1.524 . S
C1544 C1545 1.415 . S
C1545 H1515 0.950 . S
C1545 C1540 1.363 . S
C1545 C1544 1.415 . S
H1546 C1543 0.999 . S
H1547 C1528 0.913 . S
H1548 C1566 0.951 . S
H1549 C1568 0.951 . S
H1550 C1570 0.950 . S
H1551 C1571 0.950 . S
H1552 C1573 0.950 . S
H1553 C1576 0.950 . S
H1554 C1577 0.950 . S
H1555 C1579 0.950 . S
H1556 C1580 0.950 . S
H1557 C1581 0.951 . S
H1558 C1583 0.951 . S
H1559 C1585 0.950 . S
H1560 C1586 0.950 . S
H1561 C1588 0.950 . S
H1562 C1591 0.950 . S
H1563 C1592 0.950 . S
H1564 C1594 0.950 . S
H1565 C1595 0.950 . S
C1566 H1548 0.951 . S
C1566 C1567 1.366 . S
C1566 C1568 1.388 . S
C1567 C1566 1.366 . S
C1567 C1571 1.385 . S
C1568 H1549 0.951 . S
C1568 C1566 1.388 . S
C1568 C1569 1.366 . S
C1569 C1568 1.366 . S
C1569 C1570 1.414 . S
C1569 C1572 1.499 . S
C1570 H1550 0.950 . S
C1570 C1569 1.414 . S
C1570 C1571 1.374 . S
C1571 H1551 0.950 . S
C1571 C1567 1.385 . S
C1571 C1570 1.374 . S
C1572 C1569 1.499 . S
C1572 C1573 1.373 . S
C1572 C1574 1.389 . S
C1573 H1552 0.950 . S
C1573 C1572 1.373 . S
C1573 C1589 1.377 . S
C1574 C1572 1.389 . S
C1574 C1575 1.524 . S
C1574 C1588 1.377 . S
C1575 C1574 1.524 . S
C1575 C1576 1.397 . S
C1575 C1580 1.363 . S
C1576 H1553 0.950 . S
C1576 C1575 1.397 . S
C1576 C1577 1.334 . S
C1577 H1554 0.950 . S
C1577 C1576 1.334 . S
C1577 C1578 1.287 . S
C1578 C1577 1.287 . S
C1578 C1579 1.524 . S
C1578 H1597 0.913 . S
C1579 H1555 0.950 . S
C1579 C1578 1.524 . S
C1579 C1580 1.415 . S
C1580 H1556 0.950 . S
C1580 C1575 1.363 . S
C1580 C1579 1.415 . S
C1581 H1557 0.951 . S
C1581 C1582 1.366 . S
C1581 C1583 1.388 . S
C1582 C1581 1.366 . S
C1582 C1586 1.385 . S
C1583 H1558 0.951 . S
C1583 C1581 1.388 . S
C1583 C1584 1.366 . S
C1584 C1583 1.366 . S
C1584 C1585 1.414 . S
C1584 C1587 1.499 . S
C1585 H1559 0.950 . S
C1585 C1584 1.414 . S
C1585 C1586 1.374 . S
C1586 H1560 0.950 . S
C1586 C1582 1.385 . S
C1586 C1585 1.374 . S
C1587 C1584 1.499 . S
C1587 C1588 1.373 . S
C1587 C1589 1.389 . S
C1588 H1561 0.950 . S
C1588 C1574 1.377 . S
C1588 C1587 1.373 . S
C1589 C1573 1.377 . S
C1589 C1587 1.389 . S
C1589 C1590 1.524 . S
C1590 C1589 1.524 . S
C1590 C1591 1.397 . S
C1590 C1595 1.363 . S
C1591 H1562 0.950 . S
C1591 C1590 1.397 . S
C1591 C1592 1.334 . S
C1592 H1563 0.950 . S
C1592 C1591 1.334 . S
C1592 C1593 1.287 . S
C1593 C1592 1.287 . S
C1593 C1594 1.524 . S
C1593 H1596 0.999 . S
C1594 H1564 0.950 . S
C1594 C1593 1.524 . S
C1594 C1595 1.415 . S
C1595 H1565 0.950 . S
C1595 C1590 1.363 . S
C1595 C1594 1.415 . S
H1596 C1593 0.999 . S
H1597 C1578 0.913 . S
H1598 C1616 0.951 . S
H1599 C1618 0.951 . S
H1600 C1620 0.950 . S
H1601 C1621 0.950 . S
H1602 C1623 0.950 . S
H1603 C1626 0.950 . S
H1604 C1627 0.950 . S
H1605 C1629 0.950 . S
H1606 C1630 0.950 . S
H1607 C1631 0.951 1_545 S
H1608 C1633 0.951 . S
H1609 C1635 0.950 . S
H1610 C1636 0.950 . S
H1611 C1638 0.950 . S
H1612 C1641 0.950 . S
H1613 C1642 0.950 . S
H1614 C1644 0.950 . S
H1615 C1645 0.950 . S
C1616 H1598 0.951 . S
C1616 C1617 1.366 . S
C1616 C1618 1.388 . S
C1617 C1616 1.366 . S
C1617 C1621 1.385 . S
C1618 H1599 0.951 . S
C1618 C1616 1.388 . S
C1618 C1619 1.366 . S
C1619 C1618 1.366 . S
C1619 C1620 1.414 . S
C1619 C1622 1.499 . S
C1620 H1600 0.950 . S
C1620 C1619 1.414 . S
C1620 C1621 1.374 . S
C1621 H1601 0.950 . S
C1621 C1617 1.385 . S
C1621 C1620 1.374 . S
C1622 C1619 1.499 . S
C1622 C1623 1.373 . S
C1622 C1624 1.389 . S
C1623 H1602 0.950 . S
C1623 C1622 1.373 . S
C1623 C1639 1.377 . S
C1624 C1622 1.389 . S
C1624 C1625 1.524 . S
C1624 C1638 1.377 . S
C1625 C1624 1.524 . S
C1625 C1626 1.397 . S
C1625 C1630 1.363 . S
C1626 H1603 0.950 . S
C1626 C1625 1.397 . S
C1626 C1627 1.334 . S
C1627 H1604 0.950 . S
C1627 C1626 1.334 . S
C1627 C1628 1.287 . S
C1628 C1627 1.287 . S
C1628 C1629 1.524 . S
C1628 H1647 0.913 . S
C1629 H1605 0.950 . S
C1629 C1628 1.524 . S
C1629 C1630 1.415 . S
C1630 H1606 0.950 . S
C1630 C1625 1.363 . S
C1630 C1629 1.415 . S
C1631 H1607 0.951 1_565 S
C1631 C1632 1.366 1_565 S
C1631 C1633 1.388 . S
C1632 C1631 1.366 1_545 S
C1632 C1636 1.385 1_545 S
C1633 H1608 0.951 . S
C1633 C1631 1.388 . S
C1633 C1634 1.366 . S
C1634 C1633 1.366 . S
C1634 C1635 1.414 . S
C1634 C1637 1.499 . S
C1635 H1609 0.950 . S
C1635 C1634 1.414 . S
C1635 C1636 1.374 . S
C1636 H1610 0.950 . S
C1636 C1632 1.385 1_565 S
C1636 C1635 1.374 . S
C1637 C1634 1.499 . S
C1637 C1638 1.373 . S
C1637 C1639 1.389 . S
C1638 H1611 0.950 . S
C1638 C1624 1.377 . S
C1638 C1637 1.373 . S
C1639 C1623 1.377 . S
C1639 C1637 1.389 . S
C1639 C1640 1.524 . S
C1640 C1639 1.524 . S
C1640 C1641 1.397 . S
C1640 C1645 1.363 . S
C1641 H1612 0.950 . S
C1641 C1640 1.397 . S
C1641 C1642 1.334 . S
C1642 H1613 0.950 . S
C1642 C1641 1.334 . S
C1642 C1643 1.287 . S
C1643 C1642 1.287 . S
C1643 C1644 1.524 . S
C1643 H1646 0.999 . S
C1644 H1614 0.950 . S
C1644 C1643 1.524 . S
C1644 C1645 1.415 . S
C1645 H1615 0.950 . S
C1645 C1640 1.363 . S
C1645 C1644 1.415 . S
H1646 C1643 0.999 . S
H1647 C1628 0.913 . S
H1648 C1666 0.951 . S
H1649 C1668 0.951 . S
H1650 C1670 0.950 . S
H1651 C1671 0.950 . S
H1652 C1673 0.950 . S
H1653 C1676 0.950 . S
H1654 C1677 0.950 . S
H1655 C1679 0.950 . S
H1656 C1680 0.950 . S
H1657 C1681 0.951 . S
H1658 C1683 0.951 . S
H1659 C1685 0.950 . S
H1660 C1686 0.950 . S
H1661 C1688 0.950 . S
H1662 C1691 0.950 . S
H1663 C1692 0.950 . S
H1664 C1694 0.950 . S
H1665 C1695 0.950 . S
C1666 H1648 0.951 . S
C1666 C1667 1.366 . S
C1666 C1668 1.388 . S
C1667 C1666 1.366 . S
C1667 C1671 1.385 . S
C1668 H1649 0.951 . S
C1668 C1666 1.388 . S
C1668 C1669 1.366 . S
C1669 C1668 1.366 . S
C1669 C1670 1.414 . S
C1669 C1672 1.499 . S
C1670 H1650 0.950 . S
C1670 C1669 1.414 . S
C1670 C1671 1.374 . S
C1671 H1651 0.950 . S
C1671 C1667 1.385 . S
C1671 C1670 1.374 . S
C1672 C1669 1.499 . S
C1672 C1673 1.373 . S
C1672 C1674 1.389 . S
C1673 H1652 0.950 . S
C1673 C1672 1.373 . S
C1673 C1689 1.377 . S
C1674 C1672 1.389 . S
C1674 C1675 1.524 . S
C1674 C1688 1.377 . S
C1675 C1674 1.524 . S
C1675 C1676 1.397 . S
C1675 C1680 1.363 . S
C1676 H1653 0.950 . S
C1676 C1675 1.397 . S
C1676 C1677 1.334 . S
C1677 H1654 0.950 . S
C1677 C1676 1.334 . S
C1677 C1678 1.287 . S
C1678 C1677 1.287 . S
C1678 C1679 1.524 . S
C1678 H1697 0.913 . S
C1679 H1655 0.950 . S
C1679 C1678 1.524 . S
C1679 C1680 1.415 . S
C1680 H1656 0.950 . S
C1680 C1675 1.363 . S
C1680 C1679 1.415 . S
C1681 H1657 0.951 . S
C1681 C1682 1.366 . S
C1681 C1683 1.388 . S
C1682 C1681 1.366 . S
C1682 C1686 1.385 . S
C1683 H1658 0.951 . S
C1683 C1681 1.388 . S
C1683 C1684 1.366 . S
C1684 C1683 1.366 . S
C1684 C1685 1.414 . S
C1684 C1687 1.499 . S
C1685 H1659 0.950 . S
C1685 C1684 1.414 . S
C1685 C1686 1.374 . S
C1686 H1660 0.950 . S
C1686 C1682 1.385 . S
C1686 C1685 1.374 . S
C1687 C1684 1.499 . S
C1687 C1688 1.373 . S
C1687 C1689 1.389 . S
C1688 H1661 0.950 . S
C1688 C1674 1.377 . S
C1688 C1687 1.373 . S
C1689 C1673 1.377 . S
C1689 C1687 1.389 . S
C1689 C1690 1.524 . S
C1690 C1689 1.524 . S
C1690 C1691 1.397 . S
C1690 C1695 1.363 . S
C1691 H1662 0.950 . S
C1691 C1690 1.397 . S
C1691 C1692 1.334 . S
C1692 H1663 0.950 . S
C1692 C1691 1.334 . S
C1692 C1693 1.287 . S
C1693 C1692 1.287 . S
C1693 C1694 1.524 . S
C1693 H1696 0.999 . S
C1694 H1664 0.950 . S
C1694 C1693 1.524 . S
C1694 C1695 1.415 . S
C1695 H1665 0.950 . S
C1695 C1690 1.363 . S
C1695 C1694 1.415 . S
H1696 C1693 0.999 . S
H1697 C1678 0.913 . S
H1698 C1716 0.951 . S
H1699 C1718 0.951 1_455 S
H1700 C1720 0.950 1_545 S
H1701 C1721 0.950 . S
H1702 C1723 0.950 . S
H1703 C1726 0.950 1_545 S
H1704 C1727 0.950 . S
H1705 C1729 0.950 . S
H1706 C1730 0.950 . S
H1707 C1731 0.951 . S
H1708 C1733 0.951 1_655 S
H1709 C1735 0.950 1_565 S
H1710 C1736 0.950 . S
H1711 C1738 0.950 . S
H1712 C1741 0.950 1_565 S
H1713 C1742 0.950 . S
H1714 C1744 0.950 . S
H1715 C1745 0.950 . S
C1716 H1698 0.951 . S
C1716 C1717 1.366 . S
C1716 C1718 1.388 . S
C1717 C1716 1.366 . S
C1717 C1721 1.385 . S
C1718 H1699 0.951 1_655 S
C1718 C1716 1.388 . S
C1718 C1719 1.366 . S
C1719 C1718 1.366 . S
C1719 C1720 1.414 . S
C1719 C1722 1.499 . S
C1720 H1700 0.950 1_565 S
C1720 C1719 1.414 . S
C1720 C1721 1.374 . S
C1721 H1701 0.950 . S
C1721 C1717 1.385 . S
C1721 C1720 1.374 . S
C1722 C1719 1.499 . S
C1722 C1723 1.373 . S
C1722 C1724 1.389 1_655 S
C1723 H1702 0.950 . S
C1723 C1722 1.373 . S
C1723 C1739 1.377 1_564 S
C1724 C1722 1.389 1_455 S
C1724 C1725 1.524 . S
C1724 C1738 1.377 1_564 S
C1725 C1724 1.524 . S
C1725 C1726 1.397 . S
C1725 C1730 1.363 . S
C1726 H1703 0.950 1_565 S
C1726 C1725 1.397 . S
C1726 C1727 1.334 . S
C1727 H1704 0.950 . S
C1727 C1726 1.334 . S
C1727 C1728 1.287 . S
C1728 C1727 1.287 . S
C1728 C1729 1.524 . S
C1728 H1747 0.913 . S
C1729 H1705 0.950 . S
C1729 C1728 1.524 . S
C1729 C1730 1.415 . S
C1730 H1706 0.950 . S
C1730 C1725 1.363 . S
C1730 C1729 1.415 . S
C1731 H1707 0.951 . S
C1731 C1732 1.366 . S
C1731 C1733 1.388 . S
C1732 C1731 1.366 . S
C1732 C1736 1.385 . S
C1733 H1708 0.951 1_455 S
C1733 C1731 1.388 . S
C1733 C1734 1.366 . S
C1734 C1733 1.366 . S
C1734 C1735 1.414 . S
C1734 C1737 1.499 . S
C1735 H1709 0.950 1_545 S
C1735 C1734 1.414 . S
C1735 C1736 1.374 . S
C1736 H1710 0.950 . S
C1736 C1732 1.385 . S
C1736 C1735 1.374 . S
C1737 C1734 1.499 . S
C1737 C1738 1.373 . S
C1737 C1739 1.389 1_455 S
C1738 H1711 0.950 . S
C1738 C1724 1.377 1_546 S
C1738 C1737 1.373 . S
C1739 C1723 1.377 1_546 S
C1739 C1737 1.389 1_655 S
C1739 C1740 1.524 . S
C1740 C1739 1.524 . S
C1740 C1741 1.397 . S
C1740 C1745 1.363 . S
C1741 H1712 0.950 1_545 S
C1741 C1740 1.397 . S
C1741 C1742 1.334 . S
C1742 H1713 0.950 . S
C1742 C1741 1.334 . S
C1742 C1743 1.287 . S
C1743 C1742 1.287 . S
C1743 C1744 1.524 . S
C1743 H1746 0.999 . S
C1744 H1714 0.950 . S
C1744 C1743 1.524 . S
C1744 C1745 1.415 . S
C1745 H1715 0.950 . S
C1745 C1740 1.363 . S
C1745 C1744 1.415 . S
H1746 C1743 0.999 . S
H1747 C1728 0.913 . S
H1748 C1766 0.951 . S
H1749 C1768 0.951 . S
H1750 C1770 0.950 1_565 S
H1751 C1771 0.950 . S
H1752 C1773 0.950 . S
H1753 C1776 0.950 . S
H1754 C1777 0.950 . S
H1755 C1779 0.950 . S
H1756 C1780 0.950 . S
H1757 C1781 0.951 . S
H1758 C1783 0.951 . S
H1759 C1785 0.950 1_545 S
H1760 C1786 0.950 . S
H1761 C1788 0.950 . S
H1762 C1791 0.950 . S
H1763 C1792 0.950 . S
H1764 C1794 0.950 . S
H1765 C1795 0.950 . S
C1766 H1748 0.951 . S
C1766 C1767 1.366 . S
C1766 C1768 1.388 . S
C1767 C1766 1.366 . S
C1767 C1771 1.385 . S
C1768 H1749 0.951 . S
C1768 C1766 1.388 . S
C1768 C1769 1.366 . S
C1769 C1768 1.366 . S
C1769 C1770 1.414 . S
C1769 C1772 1.499 . S
C1770 H1750 0.950 1_545 S
C1770 C1769 1.414 . S
C1770 C1771 1.374 . S
C1771 H1751 0.950 . S
C1771 C1767 1.385 . S
C1771 C1770 1.374 . S
C1772 C1769 1.499 . S
C1772 C1773 1.373 1_645 S
C1772 C1774 1.389 . S
C1773 H1752 0.950 . S
C1773 C1772 1.373 1_465 S
C1773 C1789 1.377 . S
C1774 C1772 1.389 . S
C1774 C1775 1.524 . S
C1774 C1788 1.377 . S
C1775 C1774 1.524 . S
C1775 C1776 1.397 . S
C1775 C1780 1.363 . S
C1776 H1753 0.950 . S
C1776 C1775 1.397 . S
C1776 C1777 1.334 . S
C1777 H1754 0.950 . S
C1777 C1776 1.334 . S
C1777 C1778 1.287 . S
C1778 C1777 1.287 . S
C1778 C1779 1.524 . S
C1778 H1797 0.913 . S
C1779 H1755 0.950 . S
C1779 C1778 1.524 . S
C1779 C1780 1.415 . S
C1780 H1756 0.950 . S
C1780 C1775 1.363 . S
C1780 C1779 1.415 . S
C1781 H1757 0.951 . S
C1781 C1782 1.366 . S
C1781 C1783 1.388 . S
C1782 C1781 1.366 . S
C1782 C1786 1.385 . S
C1783 H1758 0.951 . S
C1783 C1781 1.388 . S
C1783 C1784 1.366 . S
C1784 C1783 1.366 . S
C1784 C1785 1.414 . S
C1784 C1787 1.499 . S
C1785 H1759 0.950 1_565 S
C1785 C1784 1.414 . S
C1785 C1786 1.374 . S
C1786 H1760 0.950 . S
C1786 C1782 1.385 . S
C1786 C1785 1.374 . S
C1787 C1784 1.499 . S
C1787 C1788 1.373 1_465 S
C1787 C1789 1.389 . S
C1788 H1761 0.950 . S
C1788 C1774 1.377 . S
C1788 C1787 1.373 1_645 S
C1789 C1773 1.377 . S
C1789 C1787 1.389 . S
C1789 C1790 1.524 . S
C1790 C1789 1.524 . S
C1790 C1791 1.397 . S
C1790 C1795 1.363 . S
C1791 H1762 0.950 . S
C1791 C1790 1.397 . S
C1791 C1792 1.334 . S
C1792 H1763 0.950 . S
C1792 C1791 1.334 . S
C1792 C1793 1.287 . S
C1793 C1792 1.287 . S
C1793 C1794 1.524 . S
C1793 H1796 0.999 . S
C1794 H1764 0.950 . S
C1794 C1793 1.524 . S
C1794 C1795 1.415 . S
C1795 H1765 0.950 . S
C1795 C1790 1.363 . S
C1795 C1794 1.415 . S
H1796 C1793 0.999 . S
H1797 C1778 0.913 . S
H1798 C1816 0.951 . S
H1799 C1818 0.951 . S
H1800 C1820 0.950 . S
H1801 C1821 0.950 . S
H1802 C1823 0.950 . S
H1803 C1826 0.950 . S
H1804 C1827 0.950 . S
H1805 C1829 0.950 . S
H1806 C1830 0.950 . S
H1807 C1831 0.951 . S
H1808 C1833 0.951 . S
H1809 C1835 0.950 . S
H1810 C1836 0.950 . S
H1811 C1838 0.950 . S
H1812 C1841 0.950 . S
H1813 C1842 0.950 . S
H1814 C1844 0.950 . S
H1815 C1845 0.950 . S
C1816 H1798 0.951 . S
C1816 C1817 1.366 . S
C1816 C1818 1.388 . S
C1817 C1816 1.366 . S
C1817 C1821 1.385 . S
C1818 H1799 0.951 . S
C1818 C1816 1.388 . S
C1818 C1819 1.366 . S
C1819 C1818 1.366 . S
C1819 C1820 1.414 . S
C1819 C1822 1.499 . S
C1820 H1800 0.950 . S
C1820 C1819 1.414 . S
C1820 C1821 1.374 . S
C1821 H1801 0.950 . S
C1821 C1817 1.385 . S
C1821 C1820 1.374 . S
C1822 C1819 1.499 . S
C1822 C1823 1.373 . S
C1822 C1824 1.389 . S
C1823 H1802 0.950 . S
C1823 C1822 1.373 . S
C1823 C1839 1.377 1_554 S
C1824 C1822 1.389 . S
C1824 C1825 1.524 . S
C1824 C1838 1.377 1_554 S
C1825 C1824 1.524 . S
C1825 C1826 1.397 . S
C1825 C1830 1.363 . S
C1826 H1803 0.950 . S
C1826 C1825 1.397 . S
C1826 C1827 1.334 . S
C1827 H1804 0.950 . S
C1827 C1826 1.334 . S
C1827 C1828 1.287 . S
C1828 C1827 1.287 . S
C1828 C1829 1.524 . S
C1828 H1847 0.913 . S
C1829 H1805 0.950 . S
C1829 C1828 1.524 . S
C1829 C1830 1.415 . S
C1830 H1806 0.950 . S
C1830 C1825 1.363 . S
C1830 C1829 1.415 . S
C1831 H1807 0.951 . S
C1831 C1832 1.366 . S
C1831 C1833 1.388 . S
C1832 C1831 1.366 . S
C1832 C1836 1.385 . S
C1833 H1808 0.951 . S
C1833 C1831 1.388 . S
C1833 C1834 1.366 . S
C1834 C1833 1.366 . S
C1834 C1835 1.414 . S
C1834 C1837 1.499 . S
C1835 H1809 0.950 . S
C1835 C1834 1.414 . S
C1835 C1836 1.374 . S
C1836 H1810 0.950 . S
C1836 C1832 1.385 . S
C1836 C1835 1.374 . S
C1837 C1834 1.499 . S
C1837 C1838 1.373 . S
C1837 C1839 1.389 . S
C1838 H1811 0.950 . S
C1838 C1824 1.377 1_556 S
C1838 C1837 1.373 . S
C1839 C1823 1.377 1_556 S
C1839 C1837 1.389 . S
C1839 C1840 1.524 . S
C1840 C1839 1.524 . S
C1840 C1841 1.397 . S
C1840 C1845 1.363 . S
C1841 H1812 0.950 . S
C1841 C1840 1.397 . S
C1841 C1842 1.334 . S
C1842 H1813 0.950 . S
C1842 C1841 1.334 . S
C1842 C1843 1.287 . S
C1843 C1842 1.287 . S
C1843 C1844 1.524 . S
C1843 H1846 0.999 . S
C1844 H1814 0.950 . S
C1844 C1843 1.524 . S
C1844 C1845 1.415 . S
C1845 H1815 0.950 . S
C1845 C1840 1.363 . S
C1845 C1844 1.415 . S
H1846 C1843 0.999 . S
H1847 C1828 0.913 . S
C267 C20 1.162 . S
C282 C1 1.170 . S
C317 C33 1.697 . S
C332 C60 1.702 . S
C367 C82 1.171 . S
C382 C63 1.163 . S
C417 C122 1.696 . S
C432 C95 1.701 . S
C467 C126 1.701 . S
C482 C153 1.696 . S
C517 C184 1.697 . S
C532 C157 1.702 . S
C567 C188 1.700 . S
C582 C215 1.696 . S
C617 C219 1.697 . S
C632 C246 1.702 . S
C667 C103 1.308 . S
C682 C0 1.297 . S
C717 C61 1.307 . S
C732 C81 1.297 . S
C767 C134 1.203 . S
C782 C247 1.202 . S
C817 C165 1.203 . S
C832 C196 1.204 . S
C867 C92 0.882 . S
C882 C2 0.856 . S
C917 C93 0.804 . S
C932 C51 0.787 . S
C967 C91 0.855 . S
C982 C10 0.881 . S
C1017 C94 0.789 . S
C1032 C50 0.803 . S
C1067 C186 0.755 . S
C1082 C125 0.753 . S
C1117 C156 0.771 . S
C1132 C236 0.782 . S
C1167 C187 0.752 . S
C1182 C124 0.755 . S
C1217 C237 0.771 . S
C1232 C155 0.782 . S
C1267 C206 1.888 . S
C1282 C19 1.918 . S
C1317 C41 1.757 . S
C1332 C218 1.806 . S
C1367 C144 1.888 . S
C1382 C62 1.918 . S
C1417 C175 1.806 . S
C1432 C123 1.757 . S
C1467 C154 1.968 . S
C1482 C64 2.008 . S
C1517 C113 1.807 . S
C1532 C185 1.761 . S
C1567 C29 2.007 . S
C1582 C216 1.969 . S
C1617 C227 1.760 . S
C1632 C32 1.807 . S
C1667 C143 0.828 . S
C1682 C30 0.827 . S
C1717 C174 0.859 . S
C1732 C31 0.859 . S
C1767 C72 0.826 . S
C1782 C205 0.828 . S
C1817 C112 0.860 . S
C1832 C217 0.860 . S
