# Generated by pormake.
# Topology umq, (4)-cn, num edge types: 1
# Building blocks:
#     Node 0, Type 0, BuildingBlock: QUQFOY_clean_sbu_1, # of connection points: 4
#     Node 1, Type 0, BuildingBlock: QUQFOY_clean_sbu_1, # of connection points: 4
#     Node 2, Type 0, BuildingBlock: QUQFOY_clean_sbu_1, # of connection points: 4
#     Node 3, Type 0, BuildingBlock: QUQFOY_clean_sbu_1, # of connection points: 4
#     Node 4, Type 0, BuildingBlock: QUQFOY_clean_sbu_1, # of connection points: 4
#     Node 5, Type 0, BuildingBlock: QUQFOY_clean_sbu_1, # of connection points: 4
#     Node 6, Type 0, BuildingBlock: QUQFOY_clean_sbu_1, # of connection points: 4
#     Node 7, Type 0, BuildingBlock: QUQFOY_clean_sbu_1, # of connection points: 4
#     Node 8, Type 0, BuildingBlock: QUQFOY_clean_sbu_1, # of connection points: 4
#     Node 9, Type 0, BuildingBlock: QUQFOY_clean_sbu_1, # of connection points: 4
#     Node 10, Type 0, BuildingBlock: QUQFOY_clean_sbu_1, # of connection points: 4
#     Node 11, Type 0, BuildingBlock: QUQFOY_clean_sbu_1, # of connection points: 4
#     Node 12, Type 0, BuildingBlock: QUQFOY_clean_sbu_1, # of connection points: 4
#     Node 13, Type 0, BuildingBlock: QUQFOY_clean_sbu_1, # of connection points: 4
#     Node 14, Type 0, BuildingBlock: QUQFOY_clean_sbu_1, # of connection points: 4
#     Node 15, Type 0, BuildingBlock: QUQFOY_clean_sbu_1, # of connection points: 4
#     Node 16, Type 0, BuildingBlock: QUQFOY_clean_sbu_1, # of connection points: 4
#     Node 17, Type 0, BuildingBlock: QUQFOY_clean_sbu_1, # of connection points: 4
#     Node 18, Type 0, BuildingBlock: QUQFOY_clean_sbu_1, # of connection points: 4
#     Node 19, Type 0, BuildingBlock: QUQFOY_clean_sbu_1, # of connection points: 4
#     Node 20, Type 0, BuildingBlock: QUQFOY_clean_sbu_1, # of connection points: 4
#     Node 21, Type 0, BuildingBlock: QUQFOY_clean_sbu_1, # of connection points: 4
#     Node 22, Type 0, BuildingBlock: QUQFOY_clean_sbu_1, # of connection points: 4
#     Node 23, Type 0, BuildingBlock: QUQFOY_clean_sbu_1, # of connection points: 4
#     Node 24, Type 0, BuildingBlock: QUQFOY_clean_sbu_1, # of connection points: 4
#     Node 25, Type 0, BuildingBlock: QUQFOY_clean_sbu_1, # of connection points: 4
#     Node 26, Type 0, BuildingBlock: QUQFOY_clean_sbu_1, # of connection points: 4
#     Node 27, Type 0, BuildingBlock: QUQFOY_clean_sbu_1, # of connection points: 4
#     Node 28, Type 0, BuildingBlock: QUQFOY_clean_sbu_1, # of connection points: 4
#     Node 29, Type 0, BuildingBlock: QUQFOY_clean_sbu_1, # of connection points: 4
#     Node 30, Type 0, BuildingBlock: QUQFOY_clean_sbu_1, # of connection points: 4
#     Node 31, Type 0, BuildingBlock: QUQFOY_clean_sbu_1, # of connection points: 4
#     Edge 32, Type (0, 0), BuildingBlock: UVAHIK_clean_linker_0, # of connection points: 2
#     Edge 33, Type (0, 0), BuildingBlock: UVAHIK_clean_linker_0, # of connection points: 2
#     Edge 34, Type (0, 0), BuildingBlock: UVAHIK_clean_linker_0, # of connection points: 2
#     Edge 35, Type (0, 0), BuildingBlock: UVAHIK_clean_linker_0, # of connection points: 2
#     Edge 36, Type (0, 0), BuildingBlock: UVAHIK_clean_linker_0, # of connection points: 2
#     Edge 37, Type (0, 0), BuildingBlock: UVAHIK_clean_linker_0, # of connection points: 2
#     Edge 38, Type (0, 0), BuildingBlock: UVAHIK_clean_linker_0, # of connection points: 2
#     Edge 39, Type (0, 0), BuildingBlock: UVAHIK_clean_linker_0, # of connection points: 2
#     Edge 40, Type (0, 0), BuildingBlock: UVAHIK_clean_linker_0, # of connection points: 2
#     Edge 41, Type (0, 0), BuildingBlock: UVAHIK_clean_linker_0, # of connection points: 2
#     Edge 42, Type (0, 0), BuildingBlock: UVAHIK_clean_linker_0, # of connection points: 2
#     Edge 43, Type (0, 0), BuildingBlock: UVAHIK_clean_linker_0, # of connection points: 2
#     Edge 44, Type (0, 0), BuildingBlock: UVAHIK_clean_linker_0, # of connection points: 2
#     Edge 45, Type (0, 0), BuildingBlock: UVAHIK_clean_linker_0, # of connection points: 2
#     Edge 46, Type (0, 0), BuildingBlock: UVAHIK_clean_linker_0, # of connection points: 2
#     Edge 47, Type (0, 0), BuildingBlock: UVAHIK_clean_linker_0, # of connection points: 2
#     Edge 48, Type (0, 0), BuildingBlock: UVAHIK_clean_linker_0, # of connection points: 2
#     Edge 49, Type (0, 0), BuildingBlock: UVAHIK_clean_linker_0, # of connection points: 2
#     Edge 50, Type (0, 0), BuildingBlock: UVAHIK_clean_linker_0, # of connection points: 2
#     Edge 51, Type (0, 0), BuildingBlock: UVAHIK_clean_linker_0, # of connection points: 2
#     Edge 52, Type (0, 0), BuildingBlock: UVAHIK_clean_linker_0, # of connection points: 2
#     Edge 53, Type (0, 0), BuildingBlock: UVAHIK_clean_linker_0, # of connection points: 2
#     Edge 54, Type (0, 0), BuildingBlock: UVAHIK_clean_linker_0, # of connection points: 2
#     Edge 55, Type (0, 0), BuildingBlock: UVAHIK_clean_linker_0, # of connection points: 2
#     Edge 56, Type (0, 0), BuildingBlock: UVAHIK_clean_linker_0, # of connection points: 2
#     Edge 57, Type (0, 0), BuildingBlock: UVAHIK_clean_linker_0, # of connection points: 2
#     Edge 58, Type (0, 0), BuildingBlock: UVAHIK_clean_linker_0, # of connection points: 2
#     Edge 59, Type (0, 0), BuildingBlock: UVAHIK_clean_linker_0, # of connection points: 2
#     Edge 60, Type (0, 0), BuildingBlock: UVAHIK_clean_linker_0, # of connection points: 2
#     Edge 61, Type (0, 0), BuildingBlock: UVAHIK_clean_linker_0, # of connection points: 2
#     Edge 62, Type (0, 0), BuildingBlock: UVAHIK_clean_linker_0, # of connection points: 2
#     Edge 63, Type (0, 0), BuildingBlock: UVAHIK_clean_linker_0, # of connection points: 2
#     Edge 64, Type (0, 0), BuildingBlock: UVAHIK_clean_linker_0, # of connection points: 2
#     Edge 65, Type (0, 0), BuildingBlock: UVAHIK_clean_linker_0, # of connection points: 2
#     Edge 66, Type (0, 0), BuildingBlock: UVAHIK_clean_linker_0, # of connection points: 2
#     Edge 67, Type (0, 0), BuildingBlock: UVAHIK_clean_linker_0, # of connection points: 2
#     Edge 68, Type (0, 0), BuildingBlock: UVAHIK_clean_linker_0, # of connection points: 2
#     Edge 69, Type (0, 0), BuildingBlock: UVAHIK_clean_linker_0, # of connection points: 2
#     Edge 70, Type (0, 0), BuildingBlock: UVAHIK_clean_linker_0, # of connection points: 2
#     Edge 71, Type (0, 0), BuildingBlock: UVAHIK_clean_linker_0, # of connection points: 2
#     Edge 72, Type (0, 0), BuildingBlock: UVAHIK_clean_linker_0, # of connection points: 2
#     Edge 73, Type (0, 0), BuildingBlock: UVAHIK_clean_linker_0, # of connection points: 2
#     Edge 74, Type (0, 0), BuildingBlock: UVAHIK_clean_linker_0, # of connection points: 2
#     Edge 75, Type (0, 0), BuildingBlock: UVAHIK_clean_linker_0, # of connection points: 2
#     Edge 76, Type (0, 0), BuildingBlock: UVAHIK_clean_linker_0, # of connection points: 2
#     Edge 77, Type (0, 0), BuildingBlock: UVAHIK_clean_linker_0, # of connection points: 2
#     Edge 78, Type (0, 0), BuildingBlock: UVAHIK_clean_linker_0, # of connection points: 2
#     Edge 79, Type (0, 0), BuildingBlock: UVAHIK_clean_linker_0, # of connection points: 2
#     Edge 80, Type (0, 0), BuildingBlock: UVAHIK_clean_linker_0, # of connection points: 2
#     Edge 81, Type (0, 0), BuildingBlock: UVAHIK_clean_linker_0, # of connection points: 2
#     Edge 82, Type (0, 0), BuildingBlock: UVAHIK_clean_linker_0, # of connection points: 2
#     Edge 83, Type (0, 0), BuildingBlock: UVAHIK_clean_linker_0, # of connection points: 2
#     Edge 84, Type (0, 0), BuildingBlock: UVAHIK_clean_linker_0, # of connection points: 2
#     Edge 85, Type (0, 0), BuildingBlock: UVAHIK_clean_linker_0, # of connection points: 2
#     Edge 86, Type (0, 0), BuildingBlock: UVAHIK_clean_linker_0, # of connection points: 2
#     Edge 87, Type (0, 0), BuildingBlock: UVAHIK_clean_linker_0, # of connection points: 2
#     Edge 88, Type (0, 0), BuildingBlock: UVAHIK_clean_linker_0, # of connection points: 2
#     Edge 89, Type (0, 0), BuildingBlock: UVAHIK_clean_linker_0, # of connection points: 2
#     Edge 90, Type (0, 0), BuildingBlock: UVAHIK_clean_linker_0, # of connection points: 2
#     Edge 91, Type (0, 0), BuildingBlock: UVAHIK_clean_linker_0, # of connection points: 2
#     Edge 92, Type (0, 0), BuildingBlock: UVAHIK_clean_linker_0, # of connection points: 2
#     Edge 93, Type (0, 0), BuildingBlock: UVAHIK_clean_linker_0, # of connection points: 2
#     Edge 94, Type (0, 0), BuildingBlock: UVAHIK_clean_linker_0, # of connection points: 2
#     Edge 95, Type (0, 0), BuildingBlock: UVAHIK_clean_linker_0, # of connection points: 2
# Relax obj value: 0.037
# Max RMSD: 0.096
# Mean RMSD: 0.096
data_MOF--net-umq--node1-QUQFOY_clean_sbu_1--edge1-UVAHIK_clean_linker_0
_symmetry_space_group_name_H-M    P1
_symmetry_Int_Tables_number       1
_symmetry_cell_setting            triclinic
loop_
_symmetry_equiv_pos_as_xyz
'x, y, z'
_cell_length_a     84.768398
_cell_length_b     84.762627
_cell_length_c     64.965063
_cell_angle_alpha  89.999029
_cell_angle_beta   90.000315
_cell_angle_gamma 90.005733
loop_
_atom_site_label
_atom_site_type_symbol
_atom_site_fract_x
_atom_site_fract_y
_atom_site_fract_z
_atom_type_partial_charge
O0 O 0.21871 0.10694 0.19427 0.0
Cd1 Cd 0.23864 0.09691 0.1818 0.0
Cd2 Cd 0.22424 0.1098 0.14539 0.0
O3 O 0.20634 0.11456 0.1661 0.0
O4 O 0.24741 0.0858 0.2062 0.0
O5 O 0.23953 0.07326 0.17823 0.0
C6 C 0.24507 0.07267 0.19674 0.0
C7 C 0.21706 0.10281 0.11177 0.0
C8 C 0.20678 0.11305 0.18555 0.0
C9 C 0.25656 0.12179 0.15854 0.0
O10 O 0.24461 0.12316 0.14686 0.0
O11 O 0.25678 0.11153 0.1728 0.0
O12 O 0.21485 0.11681 0.11887 0.0
O13 O 0.22306 0.09242 0.12401 0.0
O14 O 0.89185 0.21923 0.19489 0.0
Cd15 Cd 0.90183 0.23915 0.18228 0.0
Cd16 Cd 0.88683 0.2253 0.14664 0.0
O17 O 0.88186 0.20755 0.16748 0.0
O18 O 0.91334 0.24753 0.20663 0.0
O19 O 0.92546 0.24005 0.17819 0.0
C20 C 0.92632 0.24535 0.19679 0.0
C21 C 0.89329 0.21832 0.11277 0.0
C22 C 0.88458 0.20773 0.18672 0.0
C23 C 0.87656 0.25793 0.16063 0.0
O24 O 0.87434 0.24613 0.14891 0.0
O25 O 0.88731 0.25767 0.17426 0.0
O26 O 0.87928 0.21647 0.12003 0.0
O27 O 0.90398 0.22378 0.12502 0.0
O28 O 0.77964 0.89166 0.1927 0.0
Cd29 Cd 0.75955 0.90161 0.18053 0.0
Cd30 Cd 0.77364 0.88861 0.14393 0.0
O31 O 0.79171 0.88382 0.1644 0.0
O32 O 0.75105 0.91285 0.20499 0.0
O33 O 0.75848 0.92523 0.17669 0.0
C34 C 0.75317 0.92592 0.19531 0.0
C35 C 0.78051 0.89564 0.11019 0.0
C36 C 0.79146 0.88544 0.18385 0.0
C37 C 0.74145 0.87662 0.15767 0.0
O38 O 0.75328 0.87527 0.14577 0.0
O39 O 0.74137 0.88689 0.17192 0.0
O40 O 0.78278 0.88164 0.11723 0.0
O41 O 0.77463 0.90602 0.12255 0.0
O42 O 0.10641 0.7767 0.19379 0.0
Cd43 Cd 0.09652 0.75734 0.17965 0.0
Cd44 Cd 0.10995 0.77317 0.14499 0.0
O45 O 0.11466 0.79023 0.16687 0.0
O46 O 0.08499 0.74768 0.20313 0.0
O47 O 0.07293 0.75675 0.17542 0.0
C48 C 0.07202 0.75052 0.19352 0.0
C49 C 0.10224 0.78124 0.11203 0.0
C50 C 0.11277 0.78894 0.1862 0.0
C51 C 0.12171 0.74036 0.15571 0.0
O52 O 0.12339 0.75286 0.14513 0.0
O53 O 0.11117 0.73951 0.16958 0.0
O54 O 0.11632 0.78354 0.11883 0.0
O55 O 0.09217 0.77468 0.12426 0.0
O56 O 0.218 0.89067 0.30953 0.0
Cd57 Cd 0.23812 0.90111 0.32089 0.0
Cd58 Cd 0.22556 0.88697 0.35793 0.0
O59 O 0.2073 0.88148 0.33808 0.0
O60 O 0.24566 0.91263 0.29611 0.0
O61 O 0.23883 0.92474 0.32485 0.0
C62 C 0.24365 0.92561 0.30602 0.0
C63 C 0.21905 0.89331 0.39201 0.0
C64 C 0.20683 0.8836 0.31873 0.0
C65 C 0.25787 0.87667 0.34257 0.0
O66 O 0.24651 0.87473 0.3551 0.0
O67 O 0.25701 0.88695 0.32839 0.0
O68 O 0.2174 0.87926 0.38482 0.0
O69 O 0.22411 0.9041 0.37963 0.0
O70 O 0.10614 0.21879 0.31012 0.0
Cd71 Cd 0.09674 0.23901 0.32265 0.0
Cd72 Cd 0.11076 0.22439 0.35847 0.0
O73 O 0.11517 0.2065 0.33765 0.0
O74 O 0.08596 0.24789 0.29805 0.0
O75 O 0.07307 0.24058 0.32598 0.0
C76 C 0.07272 0.24596 0.30739 0.0
C77 C 0.10379 0.21759 0.39222 0.0
C78 C 0.11274 0.20692 0.31835 0.0
C79 C 0.12249 0.25666 0.34495 0.0
O80 O 0.12415 0.24467 0.35649 0.0
O81 O 0.11182 0.25696 0.3312 0.0
O82 O 0.11774 0.21515 0.3851 0.0
O83 O 0.09342 0.22355 0.3799 0.0
O84 O 0.77858 0.10648 0.31077 0.0
Cd85 Cd 0.75888 0.09585 0.32308 0.0
Cd86 Cd 0.77274 0.10972 0.35955 0.0
O87 O 0.7905 0.11497 0.33886 0.0
O88 O 0.75041 0.08502 0.29827 0.0
O89 O 0.75832 0.0721 0.32591 0.0
C90 C 0.75286 0.07176 0.30736 0.0
C91 C 0.78009 0.1029 0.39316 0.0
C92 C 0.79021 0.11319 0.31944 0.0
C93 C 0.74007 0.12034 0.34616 0.0
O94 O 0.75195 0.12237 0.35782 0.0
O95 O 0.74029 0.10989 0.33213 0.0
O96 O 0.78187 0.11698 0.38612 0.0
O97 O 0.7744 0.09235 0.38089 0.0
O98 O 0.89283 0.77984 0.3081 0.0
Cd99 Cd 0.90231 0.75963 0.32056 0.0
Cd100 Cd 0.8882 0.77436 0.35661 0.0
O101 O 0.88362 0.79208 0.33558 0.0
O102 O 0.9128 0.75071 0.29576 0.0
O103 O 0.92601 0.75788 0.32349 0.0
C104 C 0.92614 0.7525 0.3049 0.0
C105 C 0.89482 0.7815 0.39039 0.0
C106 C 0.88609 0.79166 0.31629 0.0
C107 C 0.87674 0.74192 0.34318 0.0
O108 O 0.8751 0.75388 0.35479 0.0
O109 O 0.88727 0.7417 0.32927 0.0
O110 O 0.88088 0.78367 0.38306 0.0
O111 O 0.90537 0.77563 0.37826 0.0
O112 O 0.77883 0.89137 0.80828 0.0
Cd113 Cd 0.75886 0.90132 0.82075 0.0
Cd114 Cd 0.77342 0.88854 0.85717 0.0
O115 O 0.79128 0.88374 0.83639 0.0
O116 O 0.75007 0.91241 0.79634 0.0
O117 O 0.75773 0.92494 0.82443 0.0
C118 C 0.75222 0.92553 0.8059 0.0
C119 C 0.78057 0.89571 0.89076 0.0
C120 C 0.79078 0.88525 0.81693 0.0
C121 C 0.74108 0.87646 0.84421 0.0
O122 O 0.75306 0.87517 0.85585 0.0
O123 O 0.74081 0.88664 0.82986 0.0
O124 O 0.78285 0.8817 0.88376 0.0
O125 O 0.77455 0.90603 0.87843 0.0
O126 O 0.10566 0.77862 0.81153 0.0
Cd127 Cd 0.09595 0.75893 0.82509 0.0
Cd128 Cd 0.10962 0.77422 0.86017 0.0
O129 O 0.11431 0.79159 0.83872 0.0
O130 O 0.08466 0.74956 0.8012 0.0
O131 O 0.07233 0.75799 0.82905 0.0
C132 C 0.0716 0.75207 0.81075 0.0
C133 C 0.10207 0.78189 0.89336 0.0
C134 C 0.11218 0.79068 0.81939 0.0
C135 C 0.12135 0.74162 0.84838 0.0
O136 O 0.12303 0.75391 0.85939 0.0
O137 O 0.11076 0.74103 0.83455 0.0
O138 O 0.11614 0.78421 0.88653 0.0
O139 O 0.09194 0.77552 0.88106 0.0
O140 O 0.21792 0.10574 0.81061 0.0
Cd141 Cd 0.23768 0.09559 0.82342 0.0
Cd142 Cd 0.2236 0.11046 0.85888 0.0
O143 O 0.20595 0.11549 0.83795 0.0
O144 O 0.24631 0.08458 0.79886 0.0
O145 O 0.23847 0.07186 0.82667 0.0
C146 C 0.24394 0.07139 0.80813 0.0
C147 C 0.21645 0.10344 0.89246 0.0
C148 C 0.20632 0.11291 0.81869 0.0
C149 C 0.25629 0.12079 0.84557 0.0
O150 O 0.24434 0.12311 0.85699 0.0
O151 O 0.25617 0.10996 0.83204 0.0
O152 O 0.21448 0.11753 0.88552 0.0
O153 O 0.22216 0.09299 0.88006 0.0
O154 O 0.89101 0.21701 0.81005 0.0
Cd155 Cd 0.9014 0.2373 0.82094 0.0
Cd156 Cd 0.888 0.22428 0.8587 0.0
O157 O 0.88242 0.20608 0.83879 0.0
O158 O 0.9121 0.24498 0.79558 0.0
O159 O 0.92513 0.23838 0.82372 0.0
C160 C 0.92539 0.24315 0.80484 0.0
C161 C 0.89418 0.21768 0.89285 0.0
C162 C 0.88422 0.20572 0.81937 0.0
C163 C 0.87709 0.25658 0.84353 0.0
O164 O 0.87565 0.24518 0.85611 0.0
O165 O 0.88705 0.25594 0.82894 0.0
O166 O 0.88018 0.21603 0.88551 0.0
O167 O 0.90503 0.22275 0.88057 0.0
O168 O 0.77648 0.10605 0.694 0.0
Cd169 Cd 0.75721 0.09586 0.67999 0.0
Cd170 Cd 0.77243 0.11057 0.64546 0.0
O171 O 0.78957 0.11527 0.66723 0.0
O172 O 0.74775 0.08474 0.70394 0.0
O173 O 0.75668 0.07215 0.67659 0.0
C174 C 0.75054 0.07159 0.69477 0.0
C175 C 0.7803 0.10335 0.61224 0.0
C176 C 0.78848 0.11293 0.6865 0.0
C177 C 0.73943 0.1211 0.6569 0.0
O178 O 0.75181 0.12352 0.64633 0.0
O179 O 0.73901 0.11015 0.67025 0.0
O180 O 0.78238 0.11742 0.61921 0.0
O181 O 0.7741 0.09303 0.62443 0.0
O182 O 0.89315 0.78054 0.69224 0.0
Cd183 Cd 0.90318 0.76044 0.6802 0.0
Cd184 Cd 0.88812 0.77431 0.64398 0.0
O185 O 0.8831 0.79208 0.66475 0.0
O186 O 0.9135 0.75202 0.70541 0.0
O187 O 0.92696 0.75908 0.67785 0.0
C188 C 0.92693 0.7539 0.69655 0.0
C189 C 0.89456 0.78132 0.61011 0.0
C190 C 0.88586 0.79199 0.68398 0.0
C191 C 0.878 0.74165 0.65805 0.0
O192 O 0.87573 0.75343 0.64631 0.0
O193 O 0.88871 0.74198 0.67174 0.0
O194 O 0.88055 0.78312 0.61736 0.0
O195 O 0.90527 0.77587 0.62235 0.0
O196 O 0.21808 0.89038 0.69419 0.0
Cd197 Cd 0.2379 0.90082 0.68169 0.0
Cd198 Cd 0.22408 0.88658 0.64603 0.0
O199 O 0.20575 0.88245 0.66614 0.0
O200 O 0.2462 0.9122 0.70617 0.0
O201 O 0.23835 0.92449 0.67801 0.0
C202 C 0.24373 0.92525 0.69659 0.0
C203 C 0.21797 0.89315 0.61191 0.0
C204 C 0.20617 0.88414 0.68556 0.0
C205 C 0.25628 0.87547 0.66009 0.0
O206 O 0.24413 0.87298 0.64912 0.0
O207 O 0.25661 0.88676 0.67295 0.0
O208 O 0.2154 0.87928 0.61923 0.0
O209 O 0.22372 0.90366 0.6242 0.0
O210 O 0.10723 0.22019 0.69434 0.0
Cd211 Cd 0.09718 0.24005 0.6817 0.0
Cd212 Cd 0.11034 0.22591 0.64557 0.0
O213 O 0.11507 0.20793 0.66619 0.0
O214 O 0.08525 0.24856 0.7056 0.0
O215 O 0.07365 0.24058 0.67699 0.0
C216 C 0.07244 0.24605 0.69549 0.0
C217 C 0.10351 0.21892 0.61181 0.0
C218 C 0.11346 0.20832 0.68563 0.0
C219 C 0.12219 0.25819 0.65911 0.0
O220 O 0.12364 0.24629 0.64736 0.0
O221 O 0.11181 0.25835 0.67324 0.0
O222 O 0.11748 0.2167 0.61899 0.0
O223 O 0.09305 0.22481 0.62404 0.0
O224 O 0.72025 0.60697 0.69346 0.0
Cd225 Cd 0.73992 0.59677 0.68049 0.0
Cd226 Cd 0.72593 0.61176 0.64521 0.0
O227 O 0.70829 0.6168 0.66617 0.0
O228 O 0.74844 0.58529 0.70475 0.0
O229 O 0.74038 0.57309 0.67664 0.0
C230 C 0.74588 0.57227 0.69515 0.0
C231 C 0.71875 0.60487 0.6116 0.0
C232 C 0.70866 0.61419 0.68542 0.0
C233 C 0.75869 0.62191 0.65857 0.0
O234 O 0.74676 0.62429 0.64715 0.0
O235 O 0.75852 0.61106 0.67209 0.0
O236 O 0.71687 0.61896 0.61859 0.0
O237 O 0.72439 0.59435 0.62396 0.0
O238 O 0.39063 0.71596 0.69424 0.0
Cd239 Cd 0.40076 0.73664 0.68457 0.0
Cd240 Cd 0.38767 0.7249 0.64565 0.0
O241 O 0.38116 0.70657 0.66505 0.0
O242 O 0.41148 0.7436 0.71024 0.0
O243 O 0.42445 0.73812 0.68165 0.0
C244 C 0.42475 0.74228 0.70077 0.0
C245 C 0.39368 0.71829 0.61145 0.0
C246 C 0.38331 0.70532 0.68435 0.0
C247 C 0.37717 0.75697 0.66225 0.0
O248 O 0.37637 0.74642 0.64838 0.0
O249 O 0.38614 0.75529 0.67775 0.0
O250 O 0.37958 0.71732 0.61866 0.0
O251 O 0.40471 0.72271 0.62387 0.0
O252 O 0.28112 0.39228 0.69266 0.0
Cd253 Cd 0.26081 0.4023 0.68126 0.0
Cd254 Cd 0.27474 0.38909 0.6439 0.0
O255 O 0.29282 0.38409 0.66425 0.0
O256 O 0.25246 0.41235 0.7067 0.0
O257 O 0.25915 0.42605 0.67917 0.0
C258 C 0.25411 0.42585 0.69793 0.0
C259 C 0.28158 0.39572 0.60999 0.0
C260 C 0.29277 0.38585 0.68368 0.0
C261 C 0.2425 0.37745 0.65815 0.0
O262 O 0.25419 0.37608 0.64603 0.0
O263 O 0.24263 0.38761 0.67253 0.0
O264 O 0.28363 0.38174 0.61721 0.0
O265 O 0.27595 0.4063 0.62225 0.0
O266 O 0.60495 0.27796 0.69202 0.0
Cd267 Cd 0.59476 0.25851 0.67846 0.0
Cd268 Cd 0.60957 0.27349 0.64351 0.0
O269 O 0.61438 0.29072 0.6651 0.0
O270 O 0.5841 0.24919 0.70286 0.0
O271 O 0.571 0.25766 0.67568 0.0
C272 C 0.57078 0.25172 0.69398 0.0
C273 C 0.60252 0.28129 0.61019 0.0
C274 C 0.61194 0.28983 0.68437 0.0
C275 C 0.61997 0.24053 0.65544 0.0
O276 O 0.62239 0.2528 0.64464 0.0
O277 O 0.60907 0.24028 0.66886 0.0
O278 O 0.61658 0.28326 0.61723 0.0
O279 O 0.59211 0.27521 0.62236 0.0
O280 O 0.71814 0.39032 0.80783 0.0
Cd281 Cd 0.73832 0.40059 0.81923 0.0
Cd282 Cd 0.72503 0.38742 0.85654 0.0
O283 O 0.70688 0.382 0.83646 0.0
O284 O 0.74615 0.41196 0.79448 0.0
O285 O 0.73916 0.42422 0.82307 0.0
C286 C 0.74409 0.42499 0.80428 0.0
C287 C 0.71826 0.39385 0.89054 0.0
C288 C 0.7067 0.38372 0.81702 0.0
C289 C 0.75734 0.37621 0.84187 0.0
O290 O 0.74583 0.37485 0.85428 0.0
O291 O 0.75689 0.38618 0.82728 0.0
O292 O 0.71651 0.37983 0.88331 0.0
O293 O 0.72354 0.40459 0.87822 0.0
O294 O 0.60713 0.71898 0.81058 0.0
Cd295 Cd 0.59674 0.73853 0.82355 0.0
Cd296 Cd 0.60996 0.72433 0.85939 0.0
O297 O 0.61509 0.7066 0.83858 0.0
O298 O 0.58475 0.74713 0.79977 0.0
O299 O 0.5732 0.7387 0.8282 0.0
C300 C 0.57195 0.74436 0.80981 0.0
C301 C 0.6028 0.71702 0.8929 0.0
C302 C 0.61355 0.70714 0.81913 0.0
C303 C 0.62142 0.75684 0.84649 0.0
O304 O 0.62304 0.74486 0.85807 0.0
O305 O 0.61107 0.75696 0.83235 0.0
O306 O 0.61687 0.71495 0.88597 0.0
O307 O 0.59243 0.72293 0.88055 0.0
O308 O 0.27579 0.60546 0.80952 0.0
Cd309 Cd 0.25678 0.59559 0.82441 0.0
Cd310 Cd 0.27298 0.6095 0.85824 0.0
O311 O 0.28984 0.61384 0.83592 0.0
O312 O 0.24685 0.5838 0.80135 0.0
O313 O 0.25645 0.57201 0.82894 0.0
C314 C 0.24998 0.57092 0.811 0.0
C315 C 0.28122 0.60188 0.89118 0.0
C316 C 0.28819 0.61183 0.81665 0.0
C317 C 0.24008 0.62117 0.84789 0.0
O318 O 0.25273 0.62307 0.8581 0.0
O319 O 0.23904 0.61031 0.83447 0.0
O320 O 0.28362 0.6159 0.88424 0.0
O321 O 0.27449 0.59182 0.8791 0.0
O322 O 0.39181 0.27822 0.80889 0.0
Cd323 Cd 0.40151 0.25837 0.82203 0.0
Cd324 Cd 0.38674 0.27289 0.85718 0.0
O325 O 0.38212 0.29051 0.83602 0.0
O326 O 0.41267 0.24945 0.79775 0.0
O327 O 0.42516 0.25722 0.82579 0.0
C328 C 0.42578 0.25165 0.80731 0.0
C329 C 0.39388 0.28013 0.89068 0.0
C330 C 0.38481 0.29 0.81679 0.0
C331 C 0.37598 0.24025 0.84419 0.0
O332 O 0.37379 0.2523 0.85548 0.0
O333 O 0.38682 0.24016 0.83068 0.0
O334 O 0.37982 0.28229 0.88374 0.0
O335 O 0.40423 0.27417 0.87833 0.0
O336 O 0.27881 0.39252 0.30802 0.0
Cd337 Cd 0.25926 0.40245 0.32164 0.0
Cd338 Cd 0.27442 0.38849 0.3568 0.0
O339 O 0.29186 0.3841 0.3353 0.0
O340 O 0.24948 0.41369 0.29797 0.0
O341 O 0.25892 0.42614 0.32517 0.0
C342 C 0.25245 0.42679 0.30718 0.0
C343 C 0.28179 0.3955 0.39035 0.0
C344 C 0.29091 0.38611 0.31594 0.0
C345 C 0.24184 0.37696 0.34464 0.0
O346 O 0.25414 0.37505 0.35555 0.0
O347 O 0.24126 0.38778 0.33112 0.0
O348 O 0.28419 0.38156 0.38314 0.0
O349 O 0.27559 0.40584 0.3782 0.0
O350 O 0.60522 0.27737 0.30942 0.0
Cd351 Cd 0.59513 0.25784 0.3229 0.0
Cd352 Cd 0.61 0.27263 0.3579 0.0
O353 O 0.61483 0.28993 0.33639 0.0
O354 O 0.58413 0.24868 0.29865 0.0
O355 O 0.5714 0.25709 0.32616 0.0
C356 C 0.57094 0.25124 0.30782 0.0
C357 C 0.60298 0.28041 0.39124 0.0
C358 C 0.61229 0.28918 0.31714 0.0
C359 C 0.62039 0.23972 0.34562 0.0
O360 O 0.62274 0.25189 0.35664 0.0
O361 O 0.60954 0.23957 0.33213 0.0
O362 O 0.61705 0.28232 0.38422 0.0
O363 O 0.59255 0.27438 0.37906 0.0
O364 O 0.71869 0.607 0.30948 0.0
Cd365 Cd 0.73876 0.59698 0.32159 0.0
Cd366 Cd 0.72497 0.61014 0.35818 0.0
O367 O 0.70683 0.61495 0.33786 0.0
O368 O 0.74703 0.58535 0.29731 0.0
O369 O 0.73954 0.57341 0.32591 0.0
C370 C 0.74477 0.57242 0.30728 0.0
C371 C 0.71816 0.60351 0.39208 0.0
C372 C 0.70696 0.61329 0.31842 0.0
C373 C 0.75715 0.62191 0.34404 0.0
O374 O 0.7454 0.62333 0.35606 0.0
O375 O 0.75711 0.61162 0.32983 0.0
O376 O 0.71602 0.61747 0.38482 0.0
O377 O 0.72388 0.59295 0.37986 0.0
O378 O 0.3897 0.71649 0.30907 0.0
Cd379 Cd 0.40055 0.73655 0.31995 0.0
Cd380 Cd 0.38644 0.72417 0.35749 0.0
O381 O 0.38039 0.70604 0.33772 0.0
O382 O 0.41135 0.74395 0.29454 0.0
O383 O 0.42431 0.7372 0.32266 0.0
C384 C 0.42462 0.74194 0.30377 0.0
C385 C 0.39281 0.7176 0.39156 0.0
C386 C 0.38243 0.70549 0.31835 0.0
C387 C 0.37661 0.75666 0.34218 0.0
O388 O 0.37461 0.74536 0.35477 0.0
O389 O 0.38672 0.75562 0.32781 0.0
O390 O 0.37869 0.71624 0.38448 0.0
O391 O 0.40365 0.72236 0.37905 0.0
O392 O 0.27546 0.60542 0.19159 0.0
Cd393 Cd 0.25705 0.5948 0.17625 0.0
Cd394 Cd 0.27317 0.60869 0.14261 0.0
O395 O 0.28975 0.61335 0.16516 0.0
O396 O 0.24662 0.58272 0.19871 0.0
O397 O 0.25805 0.5712 0.17211 0.0
C398 C 0.25073 0.56994 0.18947 0.0
C399 C 0.28168 0.6011 0.10978 0.0
C400 C 0.28789 0.61177 0.18446 0.0
C401 C 0.24006 0.61984 0.15216 0.0
O402 O 0.25283 0.62208 0.14234 0.0
O403 O 0.23905 0.60888 0.16543 0.0
O404 O 0.28395 0.61514 0.11673 0.0
O405 O 0.27497 0.59099 0.12181 0.0
O406 O 0.39127 0.27998 0.19258 0.0
Cd407 Cd 0.40111 0.25974 0.18068 0.0
Cd408 Cd 0.38825 0.27374 0.14376 0.0
O409 O 0.38338 0.29183 0.16415 0.0
O410 O 0.41212 0.25126 0.20534 0.0
O411 O 0.42473 0.25838 0.17709 0.0
C412 C 0.42526 0.25315 0.19575 0.0
C413 C 0.39514 0.28068 0.11 0.0
C414 C 0.38503 0.29172 0.18359 0.0
C415 C 0.37619 0.24161 0.15766 0.0
O416 O 0.37497 0.25335 0.14559 0.0
O417 O 0.38631 0.24162 0.17209 0.0
O418 O 0.38115 0.28287 0.11712 0.0
O419 O 0.40559 0.27483 0.12229 0.0
O420 O 0.71702 0.39097 0.19288 0.0
Cd421 Cd 0.73706 0.4015 0.18142 0.0
Cd422 Cd 0.72412 0.38727 0.14445 0.0
O423 O 0.70594 0.38192 0.16449 0.0
O424 O 0.74486 0.41241 0.20654 0.0
O425 O 0.73783 0.42524 0.17845 0.0
C426 C 0.7428 0.42564 0.19723 0.0
C427 C 0.71759 0.39367 0.11039 0.0
C428 C 0.70571 0.38399 0.18387 0.0
C429 C 0.75653 0.37695 0.15942 0.0
O430 O 0.74501 0.37489 0.14719 0.0
O431 O 0.75587 0.38739 0.17343 0.0
O432 O 0.71583 0.37963 0.11759 0.0
O433 O 0.72273 0.40442 0.12277 0.0
O434 O 0.60594 0.71932 0.19405 0.0
Cd435 Cd 0.59625 0.73904 0.18059 0.0
Cd436 Cd 0.61022 0.72425 0.14556 0.0
O437 O 0.61485 0.70666 0.16676 0.0
O438 O 0.58434 0.74801 0.20421 0.0
O439 O 0.57273 0.73968 0.17578 0.0
C440 C 0.57152 0.74539 0.19415 0.0
C441 C 0.603 0.71693 0.11211 0.0
C442 C 0.61258 0.70737 0.18607 0.0
C443 C 0.62175 0.75677 0.1582 0.0
O444 O 0.6235 0.74464 0.14692 0.0
O445 O 0.61108 0.75715 0.17194 0.0
O446 O 0.61703 0.71464 0.11908 0.0
O447 O 0.59271 0.72305 0.12441 0.0
C448 C 0.35387 0.22799 0.13963 0.0
C449 C 0.36531 0.22805 0.15531 0.0
C450 C 0.34301 0.21565 0.13811 0.0
C451 C 0.33512 0.17463 0.15485 0.0
H452 H 0.29144 0.18626 0.14565 0.0
C453 C 0.28299 0.13212 0.16958 0.0
C454 C 0.2701 0.13267 0.15597 0.0
C455 C 0.2953 0.143 0.16788 0.0
C456 C 0.30361 0.18277 0.14791 0.0
H457 H 0.37452 0.21494 0.18137 0.0
H458 H 0.35546 0.19351 0.17881 0.0
H459 H 0.31172 0.20658 0.14551 0.0
H460 H 0.26035 0.14481 0.12943 0.0
H461 H 0.2819 0.16366 0.12637 0.0
H462 H 0.32692 0.15082 0.15751 0.0
C463 C 0.355 0.20293 0.16757 0.0
C464 C 0.31524 0.19443 0.14784 0.0
C465 C 0.36587 0.21528 0.16911 0.0
C466 C 0.27003 0.1441 0.14028 0.0
C467 C 0.28234 0.15497 0.13858 0.0
C468 C 0.32347 0.16296 0.15491 0.0
C469 C 0.34332 0.20308 0.15221 0.0
C470 C 0.33112 0.19052 0.15143 0.0
C471 C 0.29502 0.15468 0.15252 0.0
C472 C 0.30756 0.16691 0.15157 0.0
H473 H 0.35315 0.23757 0.12865 0.0
H474 H 0.33431 0.21599 0.1259 0.0
H475 H 0.34727 0.17122 0.1574 0.0
H476 H 0.28343 0.12347 0.18185 0.0
H477 H 0.30481 0.14256 0.179 0.0
C478 C 0.85403 0.27227 0.14404 0.0
C479 C 0.86616 0.27191 0.15881 0.0
C480 C 0.84367 0.28505 0.14303 0.0
C481 C 0.82745 0.31684 0.1751 0.0
H482 H 0.81197 0.33304 0.12305 0.0
C483 C 0.78337 0.36853 0.17144 0.0
C484 C 0.77062 0.36669 0.1578 0.0
C485 C 0.79625 0.35826 0.17065 0.0
C486 C 0.81611 0.32857 0.13771 0.0
H487 H 0.87715 0.28497 0.18371 0.0
H488 H 0.85911 0.30732 0.18183 0.0
H489 H 0.8324 0.31274 0.12328 0.0
H490 H 0.76162 0.3528 0.13229 0.0
H491 H 0.78398 0.3348 0.13111 0.0
H492 H 0.81099 0.33242 0.18955 0.0
C493 C 0.85751 0.29759 0.17121 0.0
C494 C 0.82781 0.31696 0.13784 0.0
C495 C 0.86789 0.28481 0.17222 0.0
C496 C 0.77123 0.35457 0.14303 0.0
C497 C 0.78411 0.3443 0.14226 0.0
C498 C 0.81575 0.32844 0.17497 0.0
C499 C 0.84517 0.29778 0.15676 0.0
C500 C 0.83349 0.31084 0.15654 0.0
C501 C 0.79668 0.34591 0.15622 0.0
C502 C 0.80982 0.33432 0.15628 0.0
H503 H 0.85234 0.26254 0.13346 0.0
H504 H 0.83418 0.28474 0.13187 0.0
H505 H 0.83138 0.31221 0.18977 0.0
H506 H 0.78333 0.37779 0.18293 0.0
H507 H 0.80585 0.35995 0.18143 0.0
C508 C 0.64434 0.77013 0.14043 0.0
C509 C 0.63264 0.77032 0.15578 0.0
C510 C 0.65522 0.78245 0.13887 0.0
C511 C 0.66289 0.82372 0.15483 0.0
H512 H 0.70663 0.81197 0.14644 0.0
C513 C 0.71504 0.86642 0.16897 0.0
C514 C 0.72791 0.86571 0.15535 0.0
C515 C 0.70272 0.85551 0.16751 0.0
C516 C 0.69445 0.81549 0.14849 0.0
H517 H 0.62299 0.78384 0.1812 0.0
H518 H 0.6421 0.80523 0.17861 0.0
H519 H 0.68636 0.79165 0.14657 0.0
H520 H 0.73765 0.85325 0.12906 0.0
H521 H 0.71612 0.83434 0.12643 0.0
H522 H 0.67108 0.84757 0.15704 0.0
C523 C 0.64274 0.79563 0.16764 0.0
C524 C 0.68282 0.80384 0.14856 0.0
C525 C 0.63184 0.78331 0.16919 0.0
C526 C 0.72798 0.85409 0.1399 0.0
C527 C 0.71567 0.84318 0.13845 0.0
C528 C 0.67455 0.8354 0.15478 0.0
C529 C 0.65468 0.79524 0.15262 0.0
C530 C 0.66691 0.80779 0.15182 0.0
C531 C 0.703 0.84364 0.1524 0.0
C532 C 0.69047 0.8314 0.1517 0.0
H533 H 0.64524 0.76037 0.12974 0.0
H534 H 0.66411 0.78192 0.12691 0.0
H535 H 0.65072 0.82718 0.15712 0.0
H536 H 0.71459 0.87521 0.18105 0.0
H537 H 0.69321 0.85609 0.17861 0.0
C538 C 0.22749 0.64291 0.1344 0.0
C539 C 0.22653 0.63063 0.14891 0.0
C540 C 0.21526 0.65386 0.1325 0.0
C541 C 0.17337 0.66133 0.146 0.0
H542 H 0.18602 0.70523 0.14285 0.0
C543 C 0.13127 0.71311 0.16428 0.0
C544 C 0.13249 0.72685 0.15226 0.0
C545 C 0.14198 0.70073 0.16174 0.0
C546 C 0.18226 0.69303 0.1434 0.0
H547 H 0.21169 0.61995 0.1723 0.0
H548 H 0.19048 0.63917 0.16914 0.0
H549 H 0.20602 0.68467 0.14196 0.0
H550 H 0.14569 0.73812 0.12767 0.0
H551 H 0.16428 0.71649 0.12318 0.0
H552 H 0.1496 0.66979 0.14784 0.0
C553 C 0.20061 0.64023 0.15908 0.0
C554 C 0.19373 0.68122 0.14287 0.0
C555 C 0.21283 0.62926 0.16097 0.0
C556 C 0.14445 0.72776 0.1373 0.0
C557 C 0.15516 0.71539 0.13477 0.0
C558 C 0.16188 0.67316 0.14655 0.0
C559 C 0.2018 0.65281 0.14506 0.0
C560 C 0.18945 0.66524 0.14435 0.0
C561 C 0.15417 0.70182 0.14713 0.0
C562 C 0.16622 0.68915 0.14543 0.0
H563 H 0.23782 0.64426 0.12475 0.0
H564 H 0.21643 0.66326 0.12131 0.0
H565 H 0.16967 0.64912 0.14689 0.0
H566 H 0.1222 0.712 0.17594 0.0
H567 H 0.141 0.6905 0.17165 0.0
C568 C 0.28446 0.86798 0.32994 0.0
C569 C 0.27201 0.86647 0.34412 0.0
C570 C 0.29738 0.85775 0.33071 0.0
C571 C 0.31804 0.82902 0.36423 0.0
H572 H 0.33182 0.81093 0.31245 0.0
C573 C 0.355 0.77205 0.35923 0.0
C574 C 0.36662 0.77095 0.34385 0.0
C575 C 0.34494 0.78508 0.36008 0.0
C576 C 0.32832 0.81605 0.32702 0.0
H577 H 0.26361 0.85326 0.37057 0.0
H578 H 0.28604 0.83536 0.37176 0.0
H579 H 0.3116 0.83131 0.31249 0.0
H580 H 0.37709 0.78297 0.31769 0.0
H581 H 0.35959 0.80576 0.31931 0.0
H582 H 0.33459 0.81353 0.37877 0.0
C583 C 0.2859 0.84455 0.36017 0.0
C584 C 0.31671 0.82774 0.32704 0.0
C585 C 0.27298 0.85476 0.3594 0.0
C586 C 0.36821 0.78339 0.32967 0.0
C587 C 0.35813 0.79642 0.33053 0.0
C588 C 0.32966 0.81733 0.36421 0.0
C589 C 0.29815 0.84581 0.34569 0.0
C590 C 0.3113 0.83422 0.34566 0.0
C591 C 0.34626 0.79732 0.34558 0.0
C592 C 0.33478 0.81057 0.34561 0.0
H593 H 0.28414 0.87692 0.31804 0.0
H594 H 0.30673 0.85915 0.31951 0.0
H595 H 0.31429 0.83396 0.37881 0.0
H596 H 0.35345 0.7627 0.37041 0.0
H597 H 0.3358 0.78532 0.37173 0.0
C598 C 0.21517 0.36699 0.33401 0.0
C599 C 0.22835 0.366 0.3471 0.0
C600 C 0.20294 0.35599 0.33546 0.0
C601 C 0.19527 0.31548 0.35328 0.0
H602 H 0.15133 0.32704 0.34624 0.0
C603 C 0.14542 0.2699 0.36212 0.0
C604 C 0.13347 0.27016 0.34711 0.0
C605 C 0.15632 0.28221 0.36349 0.0
C606 C 0.16356 0.32362 0.34808 0.0
H607 H 0.2387 0.35296 0.37249 0.0
H608 H 0.2173 0.33391 0.37515 0.0
H609 H 0.17158 0.34756 0.34635 0.0
H610 H 0.12341 0.2838 0.32206 0.0
H611 H 0.14254 0.30521 0.32434 0.0
H612 H 0.18733 0.29157 0.35479 0.0
C613 C 0.21656 0.34304 0.36351 0.0
C614 C 0.17515 0.33537 0.34815 0.0
C615 C 0.22879 0.35402 0.36206 0.0
C616 C 0.13246 0.28322 0.33381 0.0
C617 C 0.14338 0.29554 0.33519 0.0
C618 C 0.1837 0.30376 0.35323 0.0
C619 C 0.2036 0.34375 0.35004 0.0
C620 C 0.19115 0.33142 0.35067 0.0
C621 C 0.15554 0.29508 0.34988 0.0
C622 C 0.16772 0.30768 0.35055 0.0
H623 H 0.21444 0.37607 0.3223 0.0
H624 H 0.1932 0.35679 0.32472 0.0
H625 H 0.2075 0.31199 0.35487 0.0
H626 H 0.14649 0.26009 0.37271 0.0
H627 H 0.1654 0.28162 0.37519 0.0
C628 C 0.71283 0.12862 0.33568 0.0
C629 C 0.72609 0.1307 0.34839 0.0
C630 C 0.70006 0.13901 0.33686 0.0
C631 C 0.68167 0.16986 0.36951 0.0
H632 H 0.66462 0.18463 0.31759 0.0
C633 C 0.64335 0.22597 0.36213 0.0
C634 C 0.63081 0.22579 0.34796 0.0
C635 C 0.65377 0.21323 0.36341 0.0
C636 C 0.66906 0.18046 0.33224 0.0
H637 H 0.73612 0.1451 0.37273 0.0
H638 H 0.71395 0.16331 0.37458 0.0
H639 H 0.68493 0.16436 0.31767 0.0
H640 H 0.6191 0.21181 0.3245 0.0
H641 H 0.63722 0.18957 0.32687 0.0
H642 H 0.66595 0.18622 0.38403 0.0
C643 C 0.71334 0.15354 0.36386 0.0
C644 C 0.68071 0.16882 0.33229 0.0
C645 C 0.7261 0.14315 0.3627 0.0
C646 C 0.62869 0.2124 0.3355 0.0
C647 C 0.63912 0.19967 0.33677 0.0
C648 C 0.67001 0.18153 0.36946 0.0
C649 C 0.70026 0.15172 0.35076 0.0
C650 C 0.68725 0.16347 0.35091 0.0
C651 C 0.6519 0.20003 0.35054 0.0
C652 C 0.66366 0.18704 0.3508 0.0
H653 H 0.71237 0.1191 0.32458 0.0
H654 H 0.69006 0.13713 0.32678 0.0
H655 H 0.68631 0.16583 0.38413 0.0
H656 H 0.64533 0.23609 0.37198 0.0
H657 H 0.66359 0.21396 0.37404 0.0
C658 C 0.77084 0.64434 0.36172 0.0
C659 C 0.77073 0.6328 0.34618 0.0
C660 C 0.78315 0.65525 0.36301 0.0
C661 C 0.82404 0.66321 0.34592 0.0
H662 H 0.81224 0.70686 0.35494 0.0
C663 C 0.86656 0.71552 0.33177 0.0
C664 C 0.86586 0.72835 0.34546 0.0
C665 C 0.85567 0.70318 0.33322 0.0
C666 C 0.81578 0.6947 0.35271 0.0
H667 H 0.78373 0.62343 0.32012 0.0
H668 H 0.80513 0.64258 0.32228 0.0
H669 H 0.79201 0.68651 0.35512 0.0
H670 H 0.85347 0.73797 0.37188 0.0
H671 H 0.83464 0.71638 0.37452 0.0
H672 H 0.84784 0.67149 0.3433 0.0
C673 C 0.79575 0.64309 0.33358 0.0
C674 C 0.80417 0.68303 0.35281 0.0
C675 C 0.78343 0.63217 0.33228 0.0
C676 C 0.85429 0.72834 0.36097 0.0
C677 C 0.84343 0.716 0.36243 0.0
C678 C 0.83568 0.67491 0.34583 0.0
C679 C 0.79564 0.65489 0.34879 0.0
C680 C 0.80815 0.66715 0.34934 0.0
C681 C 0.84386 0.70338 0.34841 0.0
C682 C 0.83166 0.6908 0.34915 0.0
H683 H 0.7613 0.64512 0.37277 0.0
H684 H 0.78284 0.66403 0.37511 0.0
H685 H 0.82751 0.65105 0.34344 0.0
H686 H 0.87531 0.71514 0.31963 0.0
H687 H 0.85624 0.69371 0.32206 0.0
C688 C 0.71454 0.86618 0.83356 0.0
C689 C 0.72754 0.86561 0.84699 0.0
C690 C 0.70219 0.85536 0.83551 0.0
C691 C 0.6939 0.81569 0.85571 0.0
H692 H 0.65019 0.82742 0.84704 0.0
C693 C 0.64373 0.7705 0.8645 0.0
C694 C 0.63217 0.7705 0.84898 0.0
C695 C 0.65455 0.78287 0.86602 0.0
C696 C 0.66235 0.82396 0.84936 0.0
H697 H 0.73747 0.8535 0.87343 0.0
H698 H 0.71587 0.83475 0.87691 0.0
H699 H 0.67062 0.84774 0.84655 0.0
H700 H 0.62266 0.78377 0.82323 0.0
H701 H 0.64166 0.80525 0.82576 0.0
H702 H 0.68573 0.79191 0.85822 0.0
C703 C 0.71536 0.84341 0.86467 0.0
C704 C 0.67405 0.83559 0.84908 0.0
C705 C 0.7277 0.85422 0.86273 0.0
C706 C 0.63141 0.78338 0.83537 0.0
C707 C 0.64225 0.79575 0.83689 0.0
C708 C 0.68223 0.80408 0.85599 0.0
C709 C 0.70255 0.84373 0.85093 0.0
C710 C 0.68997 0.83156 0.85213 0.0
C711 C 0.65409 0.79552 0.85205 0.0
C712 C 0.66633 0.80805 0.85269 0.0
H713 H 0.71402 0.8748 0.82127 0.0
H714 H 0.69258 0.85582 0.82454 0.0
H715 H 0.70608 0.81215 0.85775 0.0
H716 H 0.64459 0.76083 0.87534 0.0
H717 H 0.66336 0.78247 0.87808 0.0
C718 C 0.14428 0.72877 0.86608 0.0
C719 C 0.13222 0.7281 0.85125 0.0
C720 C 0.1551 0.71643 0.86801 0.0
C721 C 0.162 0.67453 0.85464 0.0
H722 H 0.2061 0.6862 0.85917 0.0
C723 C 0.21304 0.63099 0.83885 0.0
C724 C 0.22669 0.63214 0.85105 0.0
C725 C 0.20086 0.64199 0.8409 0.0
C726 C 0.19383 0.68271 0.85825 0.0
H727 H 0.12184 0.71369 0.82718 0.0
H728 H 0.14081 0.69224 0.83044 0.0
H729 H 0.18597 0.70666 0.85916 0.0
H730 H 0.23797 0.64545 0.87552 0.0
H731 H 0.21665 0.6645 0.87922 0.0
H732 H 0.16992 0.65055 0.85345 0.0
C733 C 0.14181 0.70226 0.8407 0.0
C734 C 0.18228 0.69445 0.85823 0.0
C735 C 0.13098 0.71461 0.83876 0.0
C736 C 0.22767 0.64427 0.86576 0.0
C737 C 0.21549 0.65525 0.86782 0.0
C738 C 0.17357 0.66276 0.85467 0.0
C739 C 0.15411 0.70312 0.85517 0.0
C740 C 0.16625 0.69051 0.85625 0.0
C741 C 0.20203 0.65438 0.85521 0.0
C742 C 0.18962 0.66673 0.85631 0.0
H743 H 0.14553 0.73894 0.87606 0.0
H744 H 0.16431 0.71735 0.87951 0.0
H745 H 0.14973 0.6711 0.85338 0.0
H746 H 0.21188 0.6218 0.82736 0.0
H747 H 0.19073 0.64107 0.8308 0.0
C748 C 0.35297 0.22651 0.86056 0.0
C749 C 0.36547 0.22638 0.84633 0.0
C750 C 0.34254 0.21377 0.8618 0.0
C751 C 0.3272 0.18096 0.83069 0.0
H752 H 0.31021 0.16635 0.88273 0.0
C753 C 0.28349 0.12903 0.83477 0.0
C754 C 0.27026 0.13119 0.84753 0.0
C755 C 0.29625 0.13944 0.83575 0.0
C756 C 0.31478 0.17037 0.86807 0.0
H757 H 0.37707 0.21251 0.82267 0.0
H758 H 0.35895 0.19026 0.82498 0.0
H759 H 0.33055 0.18676 0.88245 0.0
H760 H 0.26031 0.14576 0.87175 0.0
H761 H 0.28248 0.16398 0.87327 0.0
H762 H 0.31129 0.16481 0.81627 0.0
C763 C 0.35709 0.20032 0.83497 0.0
C764 C 0.32642 0.18205 0.86791 0.0
C765 C 0.36752 0.21305 0.83372 0.0
C766 C 0.27029 0.14374 0.86168 0.0
C767 C 0.28306 0.15415 0.86265 0.0
C768 C 0.31557 0.1693 0.83085 0.0
C769 C 0.34437 0.20062 0.84885 0.0
C770 C 0.33266 0.18758 0.8492 0.0
C771 C 0.29609 0.15223 0.84951 0.0
C772 C 0.30912 0.16396 0.84953 0.0
H773 H 0.35104 0.23657 0.87052 0.0
H774 H 0.33277 0.21445 0.8725 0.0
H775 H 0.33156 0.18513 0.81599 0.0
H776 H 0.28391 0.11943 0.82378 0.0
H777 H 0.30622 0.1375 0.82563 0.0
C778 C 0.86668 0.28246 0.83052 0.0
C779 C 0.86655 0.27044 0.84545 0.0
C780 C 0.85594 0.29495 0.83162 0.0
C781 C 0.81697 0.30455 0.85313 0.0
H782 H 0.82798 0.34757 0.83877 0.0
C783 C 0.77203 0.35494 0.86056 0.0
C784 C 0.77115 0.36563 0.84405 0.0
C785 C 0.78451 0.34426 0.86199 0.0
C786 C 0.82471 0.33559 0.84268 0.0
H787 H 0.85542 0.26251 0.87371 0.0
H788 H 0.83686 0.28435 0.87573 0.0
H789 H 0.84841 0.32722 0.83909 0.0
H790 H 0.78299 0.37374 0.81639 0.0
H791 H 0.80469 0.35494 0.81876 0.0
H792 H 0.79328 0.31278 0.85646 0.0
C793 C 0.84507 0.28396 0.86295 0.0
C794 C 0.83641 0.32394 0.84286 0.0
C795 C 0.85577 0.27147 0.86184 0.0
C796 C 0.7833 0.36567 0.82931 0.0
C797 C 0.79579 0.35495 0.83072 0.0
C798 C 0.80531 0.31616 0.85294 0.0
C799 C 0.84485 0.29571 0.84769 0.0
C800 C 0.83264 0.30828 0.84805 0.0
C801 C 0.79641 0.34397 0.84693 0.0
C802 C 0.80902 0.33181 0.84767 0.0
H803 H 0.87482 0.28204 0.81768 0.0
H804 H 0.856 0.30374 0.81952 0.0
H805 H 0.8136 0.29255 0.8568 0.0
H806 H 0.76296 0.35467 0.8723 0.0
H807 H 0.78479 0.33614 0.87487 0.0
C808 C 0.64332 0.2271 0.63945 0.0
C809 C 0.63037 0.22661 0.65296 0.0
C810 C 0.65374 0.21436 0.63816 0.0
C811 C 0.66785 0.18072 0.66876 0.0
H812 H 0.68717 0.16761 0.61742 0.0
C813 C 0.71174 0.12901 0.66573 0.0
C814 C 0.72555 0.13152 0.65419 0.0
C815 C 0.69901 0.13941 0.66414 0.0
C816 C 0.68194 0.17121 0.63189 0.0
H817 H 0.61787 0.21206 0.6751 0.0
H818 H 0.63594 0.18981 0.67267 0.0
H819 H 0.66677 0.18796 0.61714 0.0
H820 H 0.73659 0.14669 0.63145 0.0
H821 H 0.71447 0.16491 0.62889 0.0
H822 H 0.68315 0.16421 0.68357 0.0
C823 C 0.6382 0.20016 0.66335 0.0
C824 C 0.67026 0.18286 0.63173 0.0
C825 C 0.6278 0.2129 0.66466 0.0
C826 C 0.72615 0.14441 0.64059 0.0
C827 C 0.71342 0.15481 0.63901 0.0
C828 C 0.6795 0.16909 0.66892 0.0
C829 C 0.65142 0.20083 0.65032 0.0
C830 C 0.66318 0.18784 0.65019 0.0
C831 C 0.69979 0.15255 0.65099 0.0
C832 C 0.68678 0.16429 0.65052 0.0
H833 H 0.64566 0.23747 0.6302 0.0
H834 H 0.6639 0.21533 0.62813 0.0
H835 H 0.66285 0.18447 0.6833 0.0
H836 H 0.71082 0.11914 0.67625 0.0
H837 H 0.68858 0.1372 0.67333 0.0
C838 C 0.78579 0.63025 0.66966 0.0
C839 C 0.77271 0.63225 0.65662 0.0
C840 C 0.79861 0.6406 0.66862 0.0
C841 C 0.8176 0.67082 0.63565 0.0
H842 H 0.8338 0.68669 0.68749 0.0
C843 C 0.85536 0.72728 0.64175 0.0
C844 C 0.86768 0.7276 0.65623 0.0
C845 C 0.84506 0.71442 0.64081 0.0
C846 C 0.82961 0.6822 0.67287 0.0
H847 H 0.76305 0.64647 0.63184 0.0
H848 H 0.78531 0.66456 0.63018 0.0
H849 H 0.81355 0.66633 0.68756 0.0
H850 H 0.87912 0.7144 0.68066 0.0
H851 H 0.86123 0.69193 0.67887 0.0
H852 H 0.8335 0.68691 0.62098 0.0
C853 C 0.78574 0.65491 0.64109 0.0
C854 C 0.81799 0.67052 0.67291 0.0
C855 C 0.77292 0.64458 0.64214 0.0
C856 C 0.8697 0.71459 0.6694 0.0
C857 C 0.8594 0.70174 0.66845 0.0
C858 C 0.82923 0.68251 0.63561 0.0
C859 C 0.79864 0.65316 0.65449 0.0
C860 C 0.81173 0.66482 0.65431 0.0
C861 C 0.84685 0.70159 0.65431 0.0
C862 C 0.83525 0.68846 0.65423 0.0
H863 H 0.78607 0.62083 0.68092 0.0
H864 H 0.80847 0.6388 0.67896 0.0
H865 H 0.81318 0.6665 0.62106 0.0
H866 H 0.85344 0.73709 0.63136 0.0
H867 H 0.83541 0.71477 0.62989 0.0
C868 C 0.28508 0.86968 0.66446 0.0
C869 C 0.26997 0.86477 0.65833 0.0
C870 C 0.29791 0.85935 0.6632 0.0
C871 C 0.32117 0.83296 0.67093 0.0
H872 H 0.32169 0.79981 0.62989 0.0
C873 C 0.36197 0.77892 0.67853 0.0
C874 C 0.36699 0.77105 0.66069 0.0
C875 C 0.35135 0.79148 0.6772 0.0
C876 C 0.32198 0.80913 0.64127 0.0
H877 H 0.2564 0.84518 0.64624 0.0
H878 H 0.27846 0.82697 0.645 0.0
H879 H 0.30143 0.81986 0.62851 0.0
H880 H 0.36552 0.77062 0.62741 0.0
H881 H 0.34769 0.79306 0.62493 0.0
H882 H 0.3422 0.82267 0.68306 0.0
C883 C 0.28067 0.83894 0.65004 0.0
C884 C 0.3101 0.82052 0.64071 0.0
C885 C 0.26794 0.84936 0.65089 0.0
C886 C 0.36168 0.77636 0.64144 0.0
C887 C 0.35135 0.78917 0.64006 0.0
C888 C 0.33326 0.82175 0.67122 0.0
C889 C 0.29586 0.84376 0.65618 0.0
C890 C 0.30931 0.83241 0.65579 0.0
C891 C 0.34577 0.79672 0.65795 0.0
C892 C 0.33367 0.80948 0.65665 0.0
H893 H 0.28702 0.88155 0.6701 0.0
H894 H 0.30944 0.86364 0.66769 0.0
H895 H 0.32095 0.8418 0.68295 0.0
H896 H 0.36578 0.775 0.6936 0.0
H897 H 0.34716 0.79672 0.69138 0.0
C898 C 0.13257 0.28451 0.67054 0.0
C899 C 0.13311 0.27172 0.65678 0.0
C900 C 0.14352 0.2968 0.66904 0.0
C901 C 0.18338 0.30505 0.64929 0.0
H902 H 0.17198 0.34876 0.65879 0.0
C903 C 0.22866 0.35514 0.64037 0.0
C904 C 0.22886 0.36664 0.65597 0.0
C905 C 0.21628 0.34432 0.63905 0.0
C906 C 0.17535 0.33659 0.65625 0.0
H907 H 0.1453 0.2621 0.6302 0.0
H908 H 0.16425 0.28357 0.62749 0.0
H909 H 0.15151 0.32846 0.65899 0.0
H910 H 0.21594 0.37601 0.6821 0.0
H911 H 0.19443 0.35701 0.6799 0.0
H912 H 0.2072 0.31309 0.64678 0.0
C913 C 0.15553 0.28398 0.63966 0.0
C914 C 0.16364 0.32497 0.65636 0.0
C915 C 0.1446 0.2717 0.64116 0.0
C916 C 0.21617 0.36731 0.66989 0.0
C917 C 0.20379 0.35647 0.66857 0.0
C918 C 0.19506 0.31665 0.64916 0.0
C919 C 0.15525 0.29656 0.65375 0.0
C920 C 0.16753 0.30905 0.65296 0.0
C921 C 0.20381 0.34472 0.6533 0.0
C922 C 0.19121 0.33254 0.65272 0.0
H923 H 0.12388 0.28491 0.68276 0.0
H924 H 0.14308 0.30624 0.68026 0.0
H925 H 0.18683 0.29287 0.64699 0.0
H926 H 0.23818 0.35434 0.62929 0.0
H927 H 0.21652 0.33556 0.62691 0.0
C928 C 0.20477 0.11016 0.07829 0.0
C929 C 0.21369 0.09938 0.08987 0.0
C930 C 0.20327 0.10839 0.05706 0.0
C931 C 0.20877 0.08138 0.01284 0.0
H932 H 0.21538 0.12072 0.9836 0.0
C933 C 0.21974 0.08668 0.92414 0.0
C934 C 0.21317 0.09994 0.91436 0.0
C935 C 0.21843 0.08484 0.94554 0.0
C936 C 0.21328 0.10965 0.99147 0.0
H937 H 0.2273 0.07776 0.08841 0.0
H938 H 0.22483 0.07476 0.051 0.0
H939 H 0.21549 0.12058 0.0209 0.0
H940 H 0.19906 0.12098 0.91903 0.0
H941 H 0.19649 0.11761 0.95601 0.0
H942 H 0.20672 0.0705 0.98308 0.0
C943 C 0.21892 0.08453 0.05847 0.0
C944 C 0.21335 0.10957 0.01291 0.0
C945 C 0.22036 0.08626 0.07987 0.0
C946 C 0.20446 0.11076 0.92614 0.0
C947 C 0.20306 0.10887 0.94737 0.0
C948 C 0.20869 0.08147 0.99123 0.0
C949 C 0.21075 0.09587 0.04678 0.0
C950 C 0.21091 0.0955 0.02389 0.0
C951 C 0.21047 0.0962 0.95744 0.0
C952 C 0.21076 0.09567 0.98033 0.0
H953 H 0.19929 0.12027 0.08556 0.0
H954 H 0.19655 0.11711 0.04858 0.0
H955 H 0.20686 0.07035 0.02088 0.0
H956 H 0.22653 0.07815 0.91545 0.0
H957 H 0.22428 0.07496 0.95284 0.0
C958 C 0.88559 0.2071 0.92683 0.0
C959 C 0.89715 0.21473 0.91498 0.0
C960 C 0.88715 0.20598 0.94814 0.0
C961 C 0.91457 0.20978 0.99219 0.0
H962 H 0.87593 0.2198 0.02137 0.0
C963 C 0.91009 0.221 0.08099 0.0
C964 C 0.89645 0.21521 0.09073 0.0
C965 C 0.9118 0.2198 0.05956 0.0
C966 C 0.88678 0.21677 0.01351 0.0
H967 H 0.91986 0.22647 0.91609 0.0
H968 H 0.92252 0.22465 0.95361 0.0
H969 H 0.87608 0.21973 0.98404 0.0
H970 H 0.87446 0.20266 0.08584 0.0
H971 H 0.87755 0.20035 0.0488 0.0
H972 H 0.92524 0.20696 0.02198 0.0
C973 C 0.91228 0.21946 0.9463 0.0
C974 C 0.88687 0.21673 0.99207 0.0
C975 C 0.91075 0.22053 0.92483 0.0
C976 C 0.88501 0.20744 0.07881 0.0
C977 C 0.88675 0.20619 0.05753 0.0
C978 C 0.91448 0.20983 0.0138 0.0
C979 C 0.90026 0.21256 0.95822 0.0
C980 C 0.90067 0.21302 0.98111 0.0
C981 C 0.8999 0.21277 0.04756 0.0
C982 C 0.9005 0.21311 0.02467 0.0
H983 H 0.87507 0.20232 0.91971 0.0
H984 H 0.87786 0.20023 0.9568 0.0
H985 H 0.92539 0.20688 0.98418 0.0
H986 H 0.9191 0.22705 0.08978 0.0
H987 H 0.92207 0.225 0.05232 0.0
C988 C 0.77701 0.91233 0.92255 0.0
C989 C 0.78383 0.89923 0.91267 0.0
C990 C 0.77832 0.91412 0.94396 0.0
C991 C 0.78387 0.88923 0.98971 0.0
H992 H 0.78992 0.92845 0.01942 0.0
C993 C 0.79256 0.88838 0.07653 0.0
C994 C 0.7837 0.89912 0.08825 0.0
C995 C 0.79394 0.89022 0.05529 0.0
C996 C 0.78811 0.91744 0.0113 0.0
H997 H 0.79834 0.87845 0.9172 0.0
H998 H 0.80086 0.88172 0.9542 0.0
H999 H 0.78997 0.92849 0.98162 0.0
H1000 H 0.77004 0.92071 0.08704 0.0
H1001 H 0.77227 0.92382 0.04962 0.0
H1002 H 0.78182 0.87813 0.01905 0.0
C1003 C 0.79413 0.89038 0.94562 0.0
C1004 C 0.78814 0.91746 0.98969 0.0
C1005 C 0.79275 0.88854 0.92438 0.0
C1006 C 0.77694 0.91224 0.07839 0.0
C1007 C 0.77824 0.91404 0.05698 0.0
C1008 C 0.78383 0.88921 0.01114 0.0
C1009 C 0.7865 0.90287 0.95578 0.0
C1010 C 0.78621 0.9033 0.97867 0.0
C1011 C 0.78638 0.90276 0.04514 0.0
C1012 C 0.78614 0.90324 0.02224 0.0
H1013 H 0.77006 0.92076 0.91392 0.0
H1014 H 0.7723 0.92387 0.95133 0.0
H1015 H 0.78188 0.87818 0.98175 0.0
H1016 H 0.79811 0.87826 0.08369 0.0
H1017 H 0.80064 0.88155 0.0467 0.0
C1018 C 0.10854 0.7951 0.92654 0.0
C1019 C 0.09829 0.7855 0.91508 0.0
C1020 C 0.10658 0.79679 0.94773 0.0
C1021 C 0.07975 0.78991 0.99196 0.0
H1022 H 0.11934 0.78573 0.02137 0.0
C1023 C 0.08555 0.77789 0.08031 0.0
C1024 C 0.09839 0.78503 0.09038 0.0
C1025 C 0.08362 0.77962 0.05899 0.0
C1026 C 0.10818 0.78717 0.01346 0.0
H1027 H 0.07737 0.77084 0.91665 0.0
H1028 H 0.07408 0.77358 0.95397 0.0
H1029 H 0.11933 0.78581 0.98409 0.0
H1030 H 0.11847 0.80058 0.08635 0.0
H1031 H 0.1149 0.80386 0.04949 0.0
H1032 H 0.06866 0.79101 0.02167 0.0
C1033 C 0.08356 0.77992 0.94645 0.0
C1034 C 0.10818 0.78721 0.99203 0.0
C1035 C 0.08546 0.77832 0.9251 0.0
C1036 C 0.1086 0.79473 0.079 0.0
C1037 C 0.1066 0.79655 0.05784 0.0
C1038 C 0.07976 0.78986 0.01357 0.0
C1039 C 0.09442 0.78877 0.95807 0.0
C1040 C 0.09401 0.78873 0.98097 0.0
C1041 C 0.09444 0.78857 0.04744 0.0
C1042 C 0.09402 0.78863 0.02454 0.0
H1043 H 0.11842 0.80097 0.91923 0.0
H1044 H 0.11491 0.80404 0.95613 0.0
H1045 H 0.06864 0.7911 0.98388 0.0
H1046 H 0.0775 0.77033 0.0887 0.0
H1047 H 0.07414 0.7733 0.05143 0.0
C1048 C 0.22201 0.90998 0.42387 0.0
C1049 C 0.21607 0.89642 0.41409 0.0
C1050 C 0.22089 0.91163 0.44531 0.0
C1051 C 0.21755 0.88646 0.49125 0.0
H1052 H 0.20828 0.92511 0.5208 0.0
C1053 C 0.20727 0.88511 0.57776 0.0
C1054 C 0.21526 0.89633 0.58978 0.0
C1055 C 0.2063 0.88682 0.55647 0.0
C1056 C 0.21101 0.91428 0.51272 0.0
H1057 H 0.20333 0.87453 0.4189 0.0
H1058 H 0.20111 0.87754 0.45595 0.0
H1059 H 0.20842 0.92511 0.483 0.0
H1060 H 0.2278 0.91861 0.58897 0.0
H1061 H 0.22622 0.92155 0.55146 0.0
H1062 H 0.22022 0.87558 0.52066 0.0
C1063 C 0.20703 0.8867 0.44726 0.0
C1064 C 0.21109 0.91428 0.49111 0.0
C1065 C 0.20823 0.88501 0.42598 0.0
C1066 C 0.22158 0.90976 0.5801 0.0
C1067 C 0.22065 0.91146 0.55865 0.0
C1068 C 0.21745 0.88646 0.51268 0.0
C1069 C 0.21377 0.89976 0.45728 0.0
C1070 C 0.21414 0.90028 0.48016 0.0
C1071 C 0.21338 0.89976 0.54657 0.0
C1072 C 0.21396 0.90028 0.52371 0.0
H1073 H 0.22812 0.91897 0.41509 0.0
H1074 H 0.2262 0.92182 0.45258 0.0
H1075 H 0.22041 0.87558 0.48333 0.0
H1076 H 0.20209 0.87472 0.58474 0.0
H1077 H 0.20029 0.87779 0.54766 0.0
C1078 C 0.11109 0.207 0.57818 0.0
C1079 C 0.10018 0.21569 0.58984 0.0
C1080 C 0.10934 0.20558 0.55693 0.0
C1081 C 0.08214 0.21081 0.51285 0.0
H1082 H 0.12134 0.21761 0.48337 0.0
C1083 C 0.08718 0.2213 0.42398 0.0
C1084 C 0.10037 0.21458 0.41422 0.0
C1085 C 0.08542 0.2202 0.44541 0.0
C1086 C 0.11031 0.21547 0.49131 0.0
H1087 H 0.07838 0.22903 0.58849 0.0
H1088 H 0.07542 0.22671 0.55106 0.0
H1089 H 0.1213 0.21788 0.52068 0.0
H1090 H 0.1214 0.20047 0.41902 0.0
H1091 H 0.11818 0.19832 0.45606 0.0
H1092 H 0.07119 0.20857 0.48315 0.0
C1093 C 0.08528 0.22091 0.55848 0.0
C1094 C 0.11029 0.21562 0.51275 0.0
C1095 C 0.08699 0.22226 0.57989 0.0
C1096 C 0.11122 0.20597 0.42609 0.0
C1097 C 0.10942 0.20481 0.44736 0.0
C1098 C 0.08217 0.21066 0.49124 0.0
C1099 C 0.09671 0.21293 0.54671 0.0
C1100 C 0.09628 0.2131 0.52382 0.0
C1101 C 0.0968 0.21233 0.45738 0.0
C1102 C 0.09632 0.21279 0.48026 0.0
H1103 H 0.12127 0.20161 0.5854 0.0
H1104 H 0.11815 0.19902 0.5484 0.0
H1105 H 0.07116 0.20883 0.52095 0.0
H1106 H 0.07862 0.228 0.41523 0.0
H1107 H 0.07557 0.22613 0.45268 0.0
C1108 C 0.77729 0.08663 0.58048 0.0
C1109 C 0.78395 0.09976 0.59046 0.0
C1110 C 0.77888 0.08479 0.55912 0.0
C1111 C 0.78482 0.10966 0.51348 0.0
H1112 H 0.79066 0.07037 0.48388 0.0
C1113 C 0.79257 0.11033 0.42649 0.0
C1114 C 0.78363 0.0995 0.41502 0.0
C1115 C 0.79427 0.10855 0.4477 0.0
C1116 C 0.78892 0.0814 0.49196 0.0
H1117 H 0.79851 0.12054 0.58619 0.0
H1118 H 0.80153 0.11718 0.54926 0.0
H1119 H 0.79077 0.07039 0.52167 0.0
H1120 H 0.77016 0.0778 0.41663 0.0
H1121 H 0.7729 0.07481 0.45399 0.0
H1122 H 0.78271 0.12071 0.48412 0.0
C1123 C 0.7947 0.10854 0.55772 0.0
C1124 C 0.78899 0.08142 0.51357 0.0
C1125 C 0.79304 0.11042 0.57893 0.0
C1126 C 0.77712 0.08634 0.42509 0.0
C1127 C 0.77872 0.08461 0.44646 0.0
C1128 C 0.78474 0.10965 0.49204 0.0
C1129 C 0.7872 0.09603 0.54744 0.0
C1130 C 0.78709 0.0956 0.52454 0.0
C1131 C 0.78693 0.09598 0.45807 0.0
C1132 C 0.78694 0.09558 0.48097 0.0
H1133 H 0.77022 0.07821 0.58898 0.0
H1134 H 0.77294 0.07504 0.55165 0.0
H1135 H 0.78286 0.12073 0.52141 0.0
H1136 H 0.79794 0.12048 0.41915 0.0
H1137 H 0.80102 0.11729 0.45609 0.0
C1138 C 0.88648 0.79268 0.57634 0.0
C1139 C 0.89773 0.78452 0.58809 0.0
C1140 C 0.88818 0.79405 0.55507 0.0
C1141 C 0.9157 0.78963 0.51111 0.0
H1142 H 0.87685 0.78142 0.48147 0.0
C1143 C 0.91135 0.77843 0.42234 0.0
C1144 C 0.89802 0.78471 0.4124 0.0
C1145 C 0.91298 0.7797 0.44377 0.0
C1146 C 0.88778 0.78395 0.48946 0.0
H1147 H 0.92005 0.77207 0.58687 0.0
H1148 H 0.92293 0.77428 0.54944 0.0
H1149 H 0.87676 0.78134 0.51878 0.0
H1150 H 0.87656 0.79821 0.4169 0.0
H1151 H 0.87953 0.80065 0.45394 0.0
H1152 H 0.92668 0.79205 0.48146 0.0
C1153 C 0.91284 0.77972 0.55679 0.0
C1154 C 0.88773 0.78392 0.5109 0.0
C1155 C 0.91118 0.77843 0.57821 0.0
C1156 C 0.88686 0.79305 0.4241 0.0
C1157 C 0.88852 0.79438 0.44538 0.0
C1158 C 0.91575 0.78966 0.4895 0.0
C1159 C 0.90111 0.78717 0.54493 0.0
C1160 C 0.90161 0.78694 0.52203 0.0
C1161 C 0.90132 0.78731 0.45557 0.0
C1162 C 0.90172 0.78701 0.47846 0.0
H1163 H 0.87609 0.7977 0.58351 0.0
H1164 H 0.87913 0.80022 0.54648 0.0
H1165 H 0.92659 0.79202 0.51925 0.0
H1166 H 0.92015 0.77193 0.41372 0.0
H1167 H 0.92297 0.77411 0.45118 0.0
C1168 C 0.70702 0.61243 0.57785 0.0
C1169 C 0.71546 0.60143 0.58968 0.0
C1170 C 0.70559 0.61054 0.55662 0.0
C1171 C 0.71043 0.58288 0.51291 0.0
H1172 H 0.71809 0.62171 0.48296 0.0
C1173 C 0.7215 0.58708 0.42407 0.0
C1174 C 0.71502 0.6003 0.4141 0.0
C1175 C 0.72026 0.58548 0.44551 0.0
C1176 C 0.71571 0.61078 0.49104 0.0
H1177 H 0.72832 0.57934 0.58866 0.0
H1178 H 0.72601 0.57613 0.55128 0.0
H1179 H 0.71817 0.62197 0.52027 0.0
H1180 H 0.7012 0.62157 0.41852 0.0
H1181 H 0.69881 0.61864 0.45557 0.0
H1182 H 0.70815 0.57173 0.48335 0.0
C1183 C 0.72039 0.58617 0.55855 0.0
C1184 C 0.71575 0.61093 0.51248 0.0
C1185 C 0.72175 0.58802 0.57993 0.0
C1186 C 0.70652 0.61136 0.42576 0.0
C1187 C 0.70522 0.60972 0.44704 0.0
C1188 C 0.7104 0.58273 0.49131 0.0
C1189 C 0.71269 0.59768 0.5466 0.0
C1190 C 0.71292 0.59706 0.52371 0.0
C1191 C 0.7125 0.59706 0.45727 0.0
C1192 C 0.71284 0.59675 0.48016 0.0
H1193 H 0.70184 0.62279 0.58492 0.0
H1194 H 0.69922 0.61941 0.54795 0.0
H1195 H 0.70821 0.57199 0.52114 0.0
H1196 H 0.72812 0.57836 0.41548 0.0
H1197 H 0.726 0.57559 0.45295 0.0
C1198 C 0.38425 0.70756 0.42582 0.0
C1199 C 0.39595 0.71468 0.41365 0.0
C1200 C 0.38603 0.70652 0.4471 0.0
C1201 C 0.41396 0.70935 0.49061 0.0
H1202 H 0.37613 0.72148 0.52022 0.0
C1203 C 0.41051 0.72042 0.5796 0.0
C1204 C 0.39661 0.71527 0.58934 0.0
C1205 C 0.41209 0.71931 0.55814 0.0
C1206 C 0.38675 0.71787 0.51223 0.0
H1207 H 0.41909 0.72556 0.41417 0.0
H1208 H 0.42214 0.72387 0.45167 0.0
H1209 H 0.376 0.72132 0.48289 0.0
H1210 H 0.37399 0.70391 0.58441 0.0
H1211 H 0.37684 0.70174 0.54735 0.0
H1212 H 0.42467 0.70598 0.52028 0.0
C1213 C 0.41162 0.71903 0.44461 0.0
C1214 C 0.38668 0.71778 0.4908 0.0
C1215 C 0.40987 0.72002 0.42316 0.0
C1216 C 0.38475 0.7082 0.57738 0.0
C1217 C 0.38635 0.70703 0.55609 0.0
C1218 C 0.41403 0.70943 0.51222 0.0
C1219 C 0.39949 0.71267 0.45684 0.0
C1220 C 0.40017 0.71329 0.4797 0.0
C1221 C 0.3998 0.713 0.54612 0.0
C1222 C 0.40032 0.71345 0.52324 0.0
H1223 H 0.37348 0.70312 0.41898 0.0
H1224 H 0.37663 0.70119 0.45603 0.0
H1225 H 0.42454 0.70585 0.48246 0.0
H1226 H 0.41985 0.72591 0.58843 0.0
H1227 H 0.42259 0.72401 0.55091 0.0
C1228 C 0.27845 0.41207 0.42221 0.0
C1229 C 0.28506 0.39889 0.41229 0.0
C1230 C 0.27974 0.4138 0.44362 0.0
C1231 C 0.28476 0.38881 0.48938 0.0
H1232 H 0.29156 0.42792 0.51905 0.0
C1233 C 0.29327 0.38794 0.5763 0.0
C1234 C 0.28475 0.39897 0.58798 0.0
C1235 C 0.29466 0.38965 0.55503 0.0
C1236 C 0.28953 0.41694 0.51095 0.0
H1237 H 0.29918 0.37783 0.41682 0.0
H1238 H 0.30165 0.38098 0.45385 0.0
H1239 H 0.29166 0.42793 0.48126 0.0
H1240 H 0.27167 0.42091 0.58664 0.0
H1241 H 0.2739 0.4238 0.5492 0.0
H1242 H 0.28242 0.37778 0.51873 0.0
C1243 C 0.2951 0.38977 0.44527 0.0
C1244 C 0.28959 0.41695 0.48934 0.0
C1245 C 0.29376 0.38801 0.42401 0.0
C1246 C 0.27831 0.41222 0.57803 0.0
C1247 C 0.27962 0.41389 0.55661 0.0
C1248 C 0.28468 0.3888 0.51082 0.0
C1249 C 0.28769 0.40239 0.45544 0.0
C1250 C 0.28739 0.40282 0.47834 0.0
C1251 C 0.28744 0.40235 0.54482 0.0
C1252 C 0.28725 0.4028 0.52191 0.0
H1253 H 0.27167 0.42065 0.41358 0.0
H1254 H 0.27388 0.42365 0.451 0.0
H1255 H 0.28256 0.3778 0.48142 0.0
H1256 H 0.29857 0.37771 0.58352 0.0
H1257 H 0.30112 0.38077 0.5465 0.0
C1258 C 0.60971 0.29406 0.57696 0.0
C1259 C 0.59902 0.28494 0.58839 0.0
C1260 C 0.60791 0.29575 0.55574 0.0
C1261 C 0.58098 0.2899 0.51138 0.0
H1262 H 0.62042 0.28388 0.4822 0.0
C1263 C 0.58631 0.2776 0.42307 0.0
C1264 C 0.59946 0.28415 0.41301 0.0
C1265 C 0.58449 0.27936 0.44441 0.0
C1266 C 0.60932 0.28584 0.49005 0.0
H1267 H 0.57751 0.27116 0.58674 0.0
H1268 H 0.57449 0.2739 0.5494 0.0
H1269 H 0.62031 0.28409 0.51948 0.0
H1270 H 0.62029 0.29867 0.41707 0.0
H1271 H 0.61693 0.30202 0.45395 0.0
H1272 H 0.57002 0.29142 0.48162 0.0
C1273 C 0.5842 0.27986 0.55694 0.0
C1274 C 0.60925 0.28596 0.51148 0.0
C1275 C 0.58594 0.27826 0.57831 0.0
C1276 C 0.61016 0.29328 0.42442 0.0
C1277 C 0.60828 0.29513 0.4456 0.0
C1278 C 0.58104 0.28979 0.48978 0.0
C1279 C 0.59547 0.28822 0.54535 0.0
C1280 C 0.59513 0.28812 0.52245 0.0
C1281 C 0.59574 0.28775 0.45598 0.0
C1282 C 0.59527 0.28789 0.47888 0.0
H1283 H 0.61978 0.29955 0.58431 0.0
H1284 H 0.61657 0.30261 0.54736 0.0
H1285 H 0.56991 0.29161 0.5194 0.0
H1286 H 0.57787 0.2705 0.41466 0.0
H1287 H 0.57471 0.27351 0.45196 0.0
C1288 C 0.70739 0.38554 0.92447 0.0
C1289 C 0.7152 0.39698 0.9126 0.0
C1290 C 0.70616 0.38721 0.94575 0.0
C1291 C 0.70992 0.41474 0.98965 0.0
H1292 H 0.71972 0.37616 0.01909 0.0
C1293 C 0.72053 0.41043 0.07861 0.0
C1294 C 0.71466 0.3968 0.0883 0.0
C1295 C 0.71948 0.41211 0.05716 0.0
C1296 C 0.71675 0.387 0.01115 0.0
H1297 H 0.72712 0.41959 0.91363 0.0
H1298 H 0.72512 0.42245 0.95112 0.0
H1299 H 0.71983 0.37621 0.98176 0.0
H1300 H 0.70214 0.37481 0.08331 0.0
H1301 H 0.70009 0.37786 0.04625 0.0
H1302 H 0.70695 0.42549 0.01936 0.0
C1303 C 0.71987 0.41222 0.94383 0.0
C1304 C 0.71682 0.38703 0.98971 0.0
C1305 C 0.72105 0.41057 0.92239 0.0
C1306 C 0.70698 0.38535 0.07631 0.0
C1307 C 0.70587 0.38706 0.05502 0.0
C1308 C 0.70985 0.41471 0.01126 0.0
C1309 C 0.71281 0.40031 0.95578 0.0
C1310 C 0.71318 0.40081 0.97866 0.0
C1311 C 0.71253 0.4002 0.0451 0.0
C1312 C 0.71304 0.40075 0.02222 0.0
H1313 H 0.70256 0.37503 0.91739 0.0
H1314 H 0.7003 0.37801 0.95444 0.0
H1315 H 0.70708 0.42554 0.98156 0.0
H1316 H 0.72651 0.41946 0.08746 0.0
H1317 H 0.72474 0.42237 0.04996 0.0
C1318 C 0.61005 0.70452 0.07859 0.0
C1319 C 0.59942 0.71355 0.09025 0.0
C1320 C 0.60816 0.70305 0.05736 0.0
C1321 C 0.58102 0.70902 0.01334 0.0
H1322 H 0.62032 0.71511 0.98383 0.0
C1323 C 0.58616 0.72039 0.92469 0.0
C1324 C 0.59926 0.71363 0.91476 0.0
C1325 C 0.58436 0.71897 0.94608 0.0
C1326 C 0.60925 0.71315 0.99178 0.0
H1327 H 0.57794 0.7274 0.08897 0.0
H1328 H 0.57475 0.72499 0.05159 0.0
H1329 H 0.62035 0.71508 0.02113 0.0
H1330 H 0.62003 0.69908 0.91917 0.0
H1331 H 0.61673 0.69635 0.95614 0.0
H1332 H 0.56996 0.70728 0.98365 0.0
C1333 C 0.58449 0.71896 0.05898 0.0
C1334 C 0.60927 0.71314 0.01321 0.0
C1335 C 0.58633 0.72037 0.08036 0.0
C1336 C 0.60994 0.70463 0.92639 0.0
C1337 C 0.60809 0.70313 0.94762 0.0
C1338 C 0.581 0.70903 0.99173 0.0
C1339 C 0.59568 0.71068 0.04718 0.0
C1340 C 0.59522 0.71089 0.02429 0.0
C1341 C 0.5956 0.71072 0.95784 0.0
C1342 C 0.59518 0.71091 0.98073 0.0
H1343 H 0.62014 0.69894 0.08577 0.0
H1344 H 0.61677 0.69624 0.04881 0.0
H1345 H 0.57 0.70726 0.02145 0.0
H1346 H 0.57774 0.72739 0.91611 0.0
H1347 H 0.57462 0.72497 0.9535 0.0
C1348 C 0.29542 0.60759 0.07694 0.0
C1349 C 0.28562 0.59736 0.08813 0.0
C1350 C 0.29732 0.60572 0.05576 0.0
C1351 C 0.29044 0.57919 0.01112 0.0
H1352 H 0.28678 0.61896 0.98202 0.0
C1353 C 0.27803 0.58526 0.92298 0.0
C1354 C 0.28513 0.59807 0.91282 0.0
C1355 C 0.27992 0.58331 0.94429 0.0
C1356 C 0.28809 0.60774 0.98984 0.0
H1357 H 0.27084 0.57655 0.08609 0.0
H1358 H 0.27395 0.57342 0.04883 0.0
H1359 H 0.28693 0.61878 0.01929 0.0
H1360 H 0.30075 0.61812 0.91665 0.0
H1361 H 0.30433 0.61452 0.95347 0.0
H1362 H 0.29132 0.5682 0.98134 0.0
C1363 C 0.28029 0.58281 0.05653 0.0
C1364 C 0.28818 0.60764 0.01128 0.0
C1365 C 0.27848 0.58462 0.07786 0.0
C1366 C 0.29494 0.60826 0.92408 0.0
C1367 C 0.29692 0.60624 0.94523 0.0
C1368 C 0.29036 0.57929 0.98952 0.0
C1369 C 0.28933 0.59368 0.04515 0.0
C1370 C 0.28945 0.5934 0.02224 0.0
C1371 C 0.289 0.59409 0.95573 0.0
C1372 C 0.28928 0.59361 0.97864 0.0
H1373 H 0.30126 0.6174 0.08444 0.0
H1374 H 0.30471 0.61405 0.04756 0.0
H1375 H 0.29146 0.56802 0.01911 0.0
H1376 H 0.2704 0.57722 0.9147 0.0
H1377 H 0.27364 0.57384 0.95191 0.0
C1378 C 0.41067 0.27685 0.92235 0.0
C1379 C 0.39746 0.28351 0.91254 0.0
C1380 C 0.41258 0.27829 0.94372 0.0
C1381 C 0.38796 0.284 0.9897 0.0
H1382 H 0.42739 0.29019 0.01886 0.0
C1383 C 0.38775 0.29285 0.07647 0.0
C1384 C 0.39852 0.28394 0.08806 0.0
C1385 C 0.38946 0.29426 0.05521 0.0
C1386 C 0.41632 0.28835 0.01089 0.0
H1387 H 0.3766 0.29788 0.91714 0.0
H1388 H 0.38008 0.30065 0.95407 0.0
H1389 H 0.42715 0.29012 0.98107 0.0
H1390 H 0.42007 0.27023 0.0866 0.0
H1391 H 0.42297 0.2725 0.04915 0.0
H1392 H 0.37709 0.28205 0.01919 0.0
C1393 C 0.38873 0.29393 0.94548 0.0
C1394 C 0.41618 0.28831 0.98929 0.0
C1395 C 0.38677 0.29241 0.92426 0.0
C1396 C 0.41158 0.27716 0.07805 0.0
C1397 C 0.41325 0.2785 0.05663 0.0
C1398 C 0.3881 0.28405 0.01113 0.0
C1399 C 0.40134 0.28646 0.95558 0.0
C1400 C 0.40193 0.28631 0.97847 0.0
C1401 C 0.40192 0.28667 0.04493 0.0
C1402 C 0.40222 0.2864 0.02203 0.0
H1403 H 0.41911 0.26991 0.9137 0.0
H1404 H 0.42242 0.27238 0.95105 0.0
H1405 H 0.37685 0.28197 0.9819 0.0
H1406 H 0.37768 0.29841 0.08375 0.0
H1407 H 0.38075 0.30098 0.04673 0.0
C1408 C 0.24624 0.04304 0.19715 0.0
C1409 C 0.24775 0.05753 0.20749 0.0
C1410 C 0.24761 0.02882 0.20797 0.0
C1411 C 0.24148 0.01252 0.25922 0.0
H1412 H 0.26675 0.97728 0.2403 0.0
C1413 C 0.24612 0.95513 0.30666 0.0
C1414 C 0.24615 0.94091 0.2956 0.0
C1415 C 0.24781 0.96955 0.29638 0.0
C1416 C 0.25947 0.98693 0.24569 0.0
H1417 H 0.25228 0.06844 0.23716 0.0
H1418 H 0.25445 0.04368 0.25593 0.0
H1419 H 0.26671 0.0019 0.22079 0.0
H1420 H 0.24803 0.93062 0.26511 0.0
H1421 H 0.25042 0.9556 0.24722 0.0
H1422 H 0.23374 0.99755 0.28365 0.0
C1423 C 0.25219 0.04333 0.23952 0.0
C1424 C 0.25951 0.00103 0.23452 0.0
C1425 C 0.25102 0.05749 0.22871 0.0
C1426 C 0.24807 0.94137 0.27413 0.0
C1427 C 0.24956 0.95574 0.26385 0.0
C1428 C 0.24126 0.99837 0.27023 0.0
C1429 C 0.2503 0.02886 0.22932 0.0
C1430 C 0.2505 0.01394 0.24118 0.0
C1431 C 0.24937 0.97004 0.27479 0.0
C1432 C 0.25021 0.98536 0.26358 0.0
H1433 H 0.24372 0.04269 0.18081 0.0
H1434 H 0.24604 0.0178 0.19977 0.0
H1435 H 0.23427 0.02225 0.26455 0.0
H1436 H 0.24475 0.95514 0.32324 0.0
H1437 H 0.24788 0.9803 0.30538 0.0
C1438 C 0.95588 0.24753 0.19619 0.0
C1439 C 0.94162 0.24807 0.20715 0.0
C1440 C 0.97029 0.24925 0.2065 0.0
C1441 C 0.98771 0.26166 0.25692 0.0
H1442 H 0.0225 0.23521 0.23935 0.0
C1443 C 0.04312 0.24785 0.30658 0.0
C1444 C 0.05771 0.24885 0.29639 0.0
C1445 C 0.02901 0.24939 0.29555 0.0
C1446 C 0.01292 0.24277 0.24431 0.0
H1447 H 0.93126 0.25096 0.23747 0.0
H1448 H 0.9562 0.25339 0.25541 0.0
H1449 H 0.99792 0.23491 0.21997 0.0
H1450 H 0.06894 0.25263 0.26675 0.0
H1451 H 0.04437 0.25509 0.2476 0.0
H1452 H 0.00269 0.269 0.28176 0.0
C1453 C 0.95639 0.2521 0.23883 0.0
C1454 C -0.00116 0.24268 0.23314 0.0
C1455 C 0.94204 0.25059 0.22852 0.0
C1456 C 0.05791 0.25178 0.27509 0.0
C1457 C 0.04385 0.25311 0.26407 0.0
C1458 C 0.00173 0.26156 0.26826 0.0
C1459 C 0.97073 0.25134 0.22802 0.0
C1460 C 0.98601 0.25208 0.23933 0.0
C1461 C 0.02927 0.25174 0.27412 0.0
C1462 C 0.01445 0.25209 0.26207 0.0
H1463 H 0.95593 0.24569 0.1797 0.0
H1464 H 0.98108 0.24887 0.19759 0.0
H1465 H 0.97822 0.26928 0.26195 0.0
H1466 H 0.0426 0.2456 0.32298 0.0
H1467 H 0.0179 0.24822 0.30364 0.0
C1468 C 0.74731 0.05704 0.2749 0.0
C1469 C 0.75027 0.05677 0.29619 0.0
C1470 C 0.74603 0.04303 0.26377 0.0
C1471 C 0.73755 0.00093 0.26775 0.0
H1472 H 0.76386 0.99727 0.21913 0.0
C1473 C 0.74799 0.94142 0.22724 0.0
C1474 C 0.75042 0.94114 0.20585 0.0
C1475 C 0.74656 0.9557 0.23773 0.0
C1476 C 0.75618 0.99815 0.2324 0.0
H1477 H 0.75369 0.04156 0.32265 0.0
H1478 H 0.75117 0.01693 0.30313 0.0
H1479 H 0.7638 0.02174 0.23874 0.0
H1480 H 0.75271 0.95563 0.17854 0.0
H1481 H 0.74967 0.98066 0.19674 0.0
H1482 H 0.72967 0.97748 0.2613 0.0
C1483 C 0.74993 0.02807 0.29512 0.0
C1484 C 0.75624 0.01216 0.24371 0.0
C1485 C 0.75143 0.04214 0.30626 0.0
C1486 C 0.75093 0.95548 0.19505 0.0
C1487 C 0.74931 0.96982 0.20553 0.0
C1488 C 0.73731 0.98697 0.25627 0.0
C1489 C 0.74749 0.02841 0.27372 0.0
C1490 C 0.74704 0.01364 0.26157 0.0
C1491 C 0.74734 0.97012 0.22707 0.0
C1492 C 0.74676 0.98533 0.23856 0.0
H1493 H 0.74635 0.06811 0.26665 0.0
H1494 H 0.74399 0.04362 0.24733 0.0
H1495 H 0.7302 0.00184 0.28134 0.0
H1496 H 0.74764 0.93058 0.23606 0.0
H1497 H 0.74536 0.9554 0.25431 0.0
C1498 C 0.05625 0.74439 0.22493 0.0
C1499 C 0.0567 0.74765 0.20373 0.0
C1500 C 0.04188 0.74305 0.23525 0.0
C1501 C -0.00016 0.75441 0.23027 0.0
H1502 H 0.99508 0.72728 0.27798 0.0
C1503 C 0.94063 0.74672 0.27235 0.0
C1504 C 0.94101 0.74937 0.29371 0.0
C1505 C 0.95458 0.74507 0.26119 0.0
C1506 C 0.9963 0.73494 0.26472 0.0
H1507 H 0.0424 0.75142 0.17653 0.0
H1508 H 0.01722 0.74847 0.19437 0.0
H1509 H 0.01942 0.72634 0.25792 0.0
H1510 H 0.95633 0.75181 0.32024 0.0
H1511 H 0.98085 0.7486 0.30065 0.0
H1512 H 0.97655 0.76275 0.23695 0.0
C1513 C 0.028 0.74743 0.20319 0.0
C1514 C 0.01025 0.73447 0.25324 0.0
C1515 C 0.04243 0.74899 0.1929 0.0
C1516 C 0.95567 0.74979 0.3038 0.0
C1517 C 0.96967 0.74791 0.29263 0.0
C1518 C 0.98583 0.7547 0.24156 0.0
C1519 C 0.02754 0.7447 0.22459 0.0
C1520 C 0.01228 0.74434 0.23598 0.0
C1521 C 0.96924 0.74582 0.27117 0.0
C1522 C 0.98398 0.74508 0.25899 0.0
H1523 H 0.06704 0.74339 0.23378 0.0
H1524 H 0.04209 0.74124 0.25174 0.0
H1525 H 0.00104 0.76242 0.21738 0.0
H1526 H 0.92954 0.74632 0.26408 0.0
H1527 H 0.95393 0.74331 0.24469 0.0
C1528 C 0.74935 0.95501 0.80614 0.0
C1529 C 0.74928 0.94068 0.79532 0.0
C1530 C 0.74747 0.96932 0.79565 0.0
C1531 C 0.73567 0.98621 0.74464 0.0
H1532 H 0.76089 0.02168 0.76299 0.0
C1533 C 0.74955 0.04195 0.69545 0.0
C1534 C 0.74773 0.05649 0.70556 0.0
C1535 C 0.74806 0.02778 0.70638 0.0
C1536 C 0.75369 0.0119 0.75779 0.0
H1537 H 0.74705 0.93007 0.76506 0.0
H1538 H 0.74439 0.95485 0.74678 0.0
H1539 H 0.76137 0.99717 0.78249 0.0
H1540 H 0.74252 0.06757 0.73494 0.0
H1541 H 0.74019 0.04292 0.75393 0.0
H1542 H 0.72855 0.00095 0.71942 0.0
C1543 C 0.74541 0.95517 0.76339 0.0
C1544 C 0.75386 0.99787 0.76904 0.0
C1545 C 0.74705 0.94091 0.77389 0.0
C1546 C 0.74402 0.05657 0.72666 0.0
C1547 C 0.74275 0.04248 0.7376 0.0
C1548 C 0.7357 0.0002 0.73321 0.0
C1549 C 0.74572 0.96959 0.77407 0.0
C1550 C 0.7449 0.9848 0.7626 0.0
C1551 C 0.74496 0.02797 0.72764 0.0
C1552 C 0.74472 0.01315 0.7397 0.0
H1553 H 0.75094 0.95519 0.82268 0.0
H1554 H 0.74747 0.98015 0.80447 0.0
H1555 H 0.72838 0.97653 0.73938 0.0
H1556 H 0.7524 0.04151 0.6792 0.0
H1557 H 0.74987 0.01672 0.69839 0.0
C1558 C 0.95646 0.75139 0.69828 0.0
C1559 C 0.94169 0.75104 0.70809 0.0
C1560 C 0.97034 0.7496 0.70974 0.0
C1561 C 0.98597 0.75652 0.76113 0.0
H1562 H 0.01961 0.72799 0.74545 0.0
C1563 C 0.042 0.75053 0.81086 0.0
C1564 C 0.05638 0.74921 0.80027 0.0
C1565 C 0.02768 0.74901 0.80031 0.0
C1566 C 0.01042 0.73616 0.74994 0.0
H1567 H 0.92989 0.74827 0.73755 0.0
H1568 H 0.95406 0.74541 0.75744 0.0
H1569 H 0.9955 0.72903 0.72493 0.0
H1570 H 0.06702 0.74501 0.77038 0.0
H1571 H 0.04225 0.74291 0.75199 0.0
H1572 H 0.00094 0.76417 0.78561 0.0
C1573 C 0.9549 0.74704 0.74093 0.0
C1574 C 0.99661 0.7367 0.73819 0.0
C1575 C 0.94107 0.7486 0.72949 0.0
C1576 C 0.05615 0.746 0.77905 0.0
C1577 C 0.04189 0.74469 0.76849 0.0
C1578 C -0.00015 0.75616 0.7727 0.0
C1579 C 0.96966 0.74767 0.73122 0.0
C1580 C 0.98427 0.7469 0.74367 0.0
C1581 C 0.02744 0.74634 0.7789 0.0
C1582 C 0.0123 0.74603 0.76723 0.0
H1583 H 0.9573 0.75324 0.68182 0.0
H1584 H 0.9816 0.75019 0.70192 0.0
H1585 H 0.97668 0.76462 0.76556 0.0
H1586 H 0.04181 0.75291 0.82724 0.0
H1587 H 0.0168 0.75005 0.80894 0.0
C1588 C 0.24558 0.95483 0.69643 0.0
C1589 C 0.24621 0.94048 0.70719 0.0
C1590 C 0.24709 0.96916 0.70694 0.0
C1591 C 0.25911 0.9863 0.75768 0.0
H1592 H 0.23269 0.02111 0.7401 0.0
C1593 C 0.2453 0.04176 0.80735 0.0
C1594 C 0.24655 0.05632 0.79715 0.0
C1595 C 0.24671 0.02762 0.79634 0.0
C1596 C 0.24022 0.01152 0.74509 0.0
H1597 H 0.24901 0.9299 0.73739 0.0
H1598 H 0.25108 0.95472 0.7557 0.0
H1599 H 0.23252 0.9966 0.72058 0.0
H1600 H 0.25057 0.06748 0.76752 0.0
H1601 H 0.25278 0.04288 0.74842 0.0
H1602 H 0.26631 0.00121 0.78267 0.0
C1603 C 0.24989 0.95503 0.73912 0.0
C1604 C 0.24021 0.99749 0.73383 0.0
C1605 C 0.24859 0.94075 0.7286 0.0
C1606 C 0.24954 0.05647 0.77586 0.0
C1607 C 0.25073 0.04239 0.76487 0.0
C1608 C 0.25893 0.00028 0.76911 0.0
C1609 C 0.24906 0.96946 0.72848 0.0
C1610 C 0.24963 0.98466 0.73999 0.0
C1611 C 0.24916 0.02784 0.77494 0.0
C1612 C 0.24948 0.01301 0.76291 0.0
H1613 H 0.24384 0.95498 0.67991 0.0
H1614 H 0.24668 0.98001 0.69816 0.0
H1615 H 0.26673 0.97681 0.76271 0.0
H1616 H 0.243 0.04128 0.82374 0.0
H1617 H 0.24539 0.01652 0.80444 0.0
C1618 C 0.95492 0.24571 0.8039 0.0
C1619 C 0.94034 0.24575 0.79361 0.0
C1620 C 0.969 0.24743 0.79284 0.0
C1621 C 0.98578 0.2402 0.74203 0.0
H1622 H 0.01874 0.26918 0.75877 0.0
C1623 C 0.04283 0.24701 0.69434 0.0
C1624 C 0.05695 0.24849 0.70547 0.0
C1625 C 0.02826 0.24825 0.70437 0.0
C1626 C 0.00974 0.26089 0.75399 0.0
H1627 H 0.92909 0.2478 0.7637 0.0
H1628 H 0.95361 0.25055 0.74451 0.0
H1629 H 0.9942 0.26796 0.77835 0.0
H1630 H 0.06687 0.25266 0.73578 0.0
H1631 H 0.04167 0.25431 0.75326 0.0
H1632 H 0.00139 0.23265 0.71816 0.0
C1633 C 0.95415 0.24922 0.76108 0.0
C1634 C 0.99568 0.26024 0.7652 0.0
C1635 C 0.94012 0.24773 0.77212 0.0
C1636 C 0.05621 0.25155 0.72671 0.0
C1637 C 0.0417 0.2526 0.73674 0.0
C1638 C -9e-05 0.24068 0.73098 0.0
C1639 C 0.96873 0.24898 0.7713 0.0
C1640 C 0.98359 0.24986 0.75935 0.0
C1641 C 0.02752 0.25082 0.72578 0.0
C1642 C 0.01212 0.25097 0.73686 0.0
H1643 H 0.95547 0.24422 0.82045 0.0
H1644 H 0.98011 0.24712 0.80107 0.0
H1645 H 0.9767 0.23196 0.73731 0.0
H1646 H 0.04302 0.24473 0.67794 0.0
H1647 H 0.01758 0.24709 0.69534 0.0
C1648 C 0.75146 0.55681 0.727 0.0
C1649 C 0.74827 0.55701 0.70575 0.0
C1650 C 0.75243 0.54257 0.73766 0.0
C1651 C 0.75953 0.50031 0.73234 0.0
H1652 H 0.73376 0.49674 0.78146 0.0
C1653 C 0.74646 0.45453 0.80471 0.0
C1654 C 0.74659 0.44025 0.79375 0.0
C1655 C 0.74804 0.46891 0.79432 0.0
C1656 C 0.74127 0.49758 0.76803 0.0
H1657 H 0.74414 0.54239 0.6789 0.0
H1658 H 0.74612 0.51735 0.69762 0.0
H1659 H 0.73424 0.52145 0.76237 0.0
H1660 H 0.74856 0.42984 0.76334 0.0
H1661 H 0.75076 0.45477 0.74526 0.0
H1662 H 0.76684 0.47658 0.73811 0.0
C1663 C 0.74777 0.5283 0.70594 0.0
C1664 C 0.74146 0.51173 0.75703 0.0
C1665 C 0.7466 0.54261 0.69526 0.0
C1666 C 0.74853 0.44064 0.77227 0.0
C1667 C 0.7499 0.45497 0.76189 0.0
C1668 C 0.75953 0.4862 0.7435 0.0
C1669 C 0.75042 0.52819 0.72731 0.0
C1670 C 0.75051 0.5132 0.73902 0.0
C1671 C 0.74958 0.46933 0.77272 0.0
C1672 C 0.75029 0.4846 0.76141 0.0
H1673 H 0.75282 0.56769 0.73556 0.0
H1674 H 0.75465 0.5428 0.75408 0.0
H1675 H 0.76674 0.50121 0.71862 0.0
H1676 H 0.74507 0.4546 0.82128 0.0
H1677 H 0.74802 0.4797 0.80324 0.0
C1678 C 0.54234 0.74502 0.81095 0.0
C1679 C 0.55645 0.74678 0.79987 0.0
C1680 C 0.52776 0.74629 0.80094 0.0
C1681 C 0.50915 0.75958 0.75171 0.0
H1682 H 0.47635 0.73012 0.76758 0.0
C1683 C 0.45426 0.74508 0.7016 0.0
C1684 C 0.43972 0.74476 0.71199 0.0
C1685 C 0.46836 0.74667 0.71262 0.0
C1686 C 0.48536 0.73851 0.7631 0.0
H1687 H 0.56635 0.75145 0.76966 0.0
H1688 H 0.54114 0.75317 0.75221 0.0
H1689 H 0.50106 0.73064 0.78668 0.0
H1690 H 0.42857 0.74604 0.74204 0.0
H1691 H 0.45314 0.7486 0.76116 0.0
H1692 H 0.4935 0.767 0.72764 0.0
C1693 C 0.54118 0.75121 0.76868 0.0
C1694 C 0.4995 0.73889 0.77412 0.0
C1695 C 0.55569 0.75012 0.7787 0.0
C1696 C 0.43956 0.74625 0.73354 0.0
C1697 C 0.45363 0.74763 0.74454 0.0
C1698 C 0.49507 0.75905 0.74053 0.0
C1699 C 0.52701 0.74917 0.7796 0.0
C1700 C 0.51162 0.74938 0.76853 0.0
C1701 C 0.46816 0.74774 0.73422 0.0
C1702 C 0.48306 0.74848 0.7461 0.0
H1703 H 0.54254 0.74252 0.8273 0.0
H1704 H 0.51709 0.74492 0.80993 0.0
H1705 H 0.51808 0.76802 0.74717 0.0
H1706 H 0.45474 0.74396 0.685 0.0
H1707 H 0.47944 0.74664 0.70432 0.0
C1708 C 0.25076 0.45528 0.69977 0.0
C1709 C 0.25109 0.44051 0.7096 0.0
C1710 C 0.24873 0.4691 0.71129 0.0
C1711 C 0.25613 0.48513 0.7623 0.0
H1712 H 0.22587 0.51751 0.74763 0.0
C1713 C 0.24937 0.54129 0.81166 0.0
C1714 C 0.24723 0.55551 0.80094 0.0
C1715 C 0.24806 0.52682 0.80139 0.0
C1716 C 0.23452 0.50868 0.75183 0.0
H1717 H 0.24936 0.42865 0.73914 0.0
H1718 H 0.24611 0.45274 0.75913 0.0
H1719 H 0.22739 0.49337 0.72723 0.0
H1720 H 0.24175 0.56572 0.77115 0.0
H1721 H 0.24001 0.54074 0.75322 0.0
H1722 H 0.26378 0.50053 0.78633 0.0
C1723 C 0.24736 0.45362 0.74257 0.0
C1724 C 0.23533 0.49485 0.74015 0.0
C1725 C 0.24915 0.43983 0.73108 0.0
C1726 C 0.24338 0.55497 0.77992 0.0
C1727 C 0.24227 0.54058 0.76962 0.0
C1728 C 0.2555 0.49905 0.77379 0.0
C1729 C 0.24726 0.46838 0.73282 0.0
C1730 C 0.24617 0.48298 0.74526 0.0
C1731 C 0.24478 0.5263 0.78013 0.0
C1732 C 0.24474 0.51106 0.76866 0.0
H1733 H 0.25222 0.45617 0.68325 0.0
H1734 H 0.24876 0.48037 0.70343 0.0
H1735 H 0.2647 0.4762 0.76644 0.0
H1736 H 0.25227 0.54133 0.8279 0.0
H1737 H 0.24976 0.51607 0.8101 0.0
C1738 C 0.44109 0.24625 0.77532 0.0
C1739 C 0.44093 0.24875 0.7967 0.0
C1740 C 0.45532 0.24474 0.76472 0.0
C1741 C 0.49782 0.25417 0.7697 0.0
H1742 H 0.50107 0.22841 0.72051 0.0
C1743 C 0.55631 0.24537 0.72635 0.0
C1744 C 0.55588 0.24878 0.70517 0.0
C1745 C 0.54238 0.24391 0.73761 0.0
C1746 C 0.50027 0.23569 0.73418 0.0
H1747 H 0.45555 0.25103 0.82388 0.0
H1748 H 0.48048 0.24778 0.80551 0.0
H1749 H 0.47687 0.22784 0.74087 0.0
H1750 H 0.54048 0.25276 0.67904 0.0
H1751 H 0.51599 0.2499 0.6988 0.0
H1752 H 0.52139 0.26174 0.76311 0.0
C1753 C 0.46959 0.24746 0.7968 0.0
C1754 C 0.48641 0.23542 0.74584 0.0
C1755 C 0.45531 0.2492 0.80738 0.0
C1756 C 0.54118 0.25015 0.69533 0.0
C1757 C 0.52719 0.24847 0.7066 0.0
C1758 C 0.51175 0.25423 0.75822 0.0
C1759 C 0.46978 0.24545 0.77526 0.0
C1760 C 0.48493 0.24482 0.76363 0.0
C1761 C 0.52771 0.24562 0.72791 0.0
C1762 C 0.51304 0.24511 0.74026 0.0
H1763 H 0.43021 0.24595 0.76658 0.0
H1764 H 0.45492 0.24351 0.74814 0.0
H1765 H 0.49706 0.26181 0.78302 0.0
H1766 H 0.56744 0.24423 0.73442 0.0
H1767 H 0.54309 0.24156 0.75398 0.0
C1768 C 0.23786 0.55341 0.21644 0.0
C1769 C 0.24804 0.5545 0.19944 0.0
C1770 C 0.23664 0.53939 0.22759 0.0
C1771 C 0.24627 0.49662 0.2263 0.0
H1772 H 0.24425 0.50087 0.2857 0.0
C1773 C 0.2403 0.44224 0.27859 0.0
C1774 C 0.24944 0.44194 0.29663 0.0
C1775 C 0.23877 0.4561 0.26717 0.0
C1776 C 0.24492 0.49946 0.26915 0.0
H1777 H 0.26456 0.54159 0.18034 0.0
H1778 H 0.26271 0.51714 0.20005 0.0
H1779 H 0.24441 0.52437 0.26423 0.0
H1780 H 0.26379 0.45607 0.31717 0.0
H1781 H 0.2614 0.48026 0.29702 0.0
H1782 H 0.24747 0.47173 0.23127 0.0
C1783 C 0.25545 0.52706 0.20461 0.0
C1784 C 0.24478 0.51295 0.25679 0.0
C1785 C 0.25655 0.54108 0.19332 0.0
C1786 C 0.2566 0.45595 0.30339 0.0
C1787 C 0.25518 0.46982 0.29184 0.0
C1788 C 0.24651 0.48313 0.23867 0.0
C1789 C 0.24571 0.52614 0.22214 0.0
C1790 C 0.24547 0.51171 0.2352 0.0
C1791 C 0.24647 0.46999 0.27338 0.0
C1792 C 0.24586 0.48437 0.26026 0.0
H1793 H 0.23103 0.56351 0.22143 0.0
H1794 H 0.22873 0.539 0.24066 0.0
H1795 H 0.24667 0.4952 0.20974 0.0
H1796 H 0.23451 0.43166 0.27306 0.0
H1797 H 0.23165 0.45586 0.25332 0.0
C1798 C 0.5413 0.25014 0.30693 0.0
C1799 C 0.55589 0.24847 0.29688 0.0
C1800 C 0.52718 0.24869 0.29588 0.0
C1801 C 0.51148 0.25455 0.24434 0.0
H1802 H 0.47604 0.22925 0.26251 0.0
C1803 C 0.45475 0.25022 0.19567 0.0
C1804 C 0.44038 0.25021 0.20643 0.0
C1805 C 0.46901 0.24834 0.20624 0.0
C1806 C 0.48575 0.23653 0.25732 0.0
H1807 H 0.56709 0.24358 0.2675 0.0
H1808 H 0.54253 0.2413 0.24832 0.0
H1809 H 0.50039 0.22936 0.28258 0.0
H1810 H 0.42969 0.24809 0.23665 0.0
H1811 H 0.45441 0.24539 0.25505 0.0
H1812 H 0.49684 0.26226 0.21957 0.0
C1813 C 0.54201 0.24372 0.26468 0.0
C1814 C 0.4997 0.23653 0.26881 0.0
C1815 C 0.55606 0.24496 0.27572 0.0
C1816 C 0.44055 0.24804 0.22787 0.0
C1817 C 0.45478 0.24638 0.23844 0.0
C1818 C 0.49749 0.25474 0.23302 0.0
C1819 C 0.52745 0.24577 0.27458 0.0
C1820 C 0.51268 0.24555 0.26242 0.0
C1821 C 0.46923 0.24663 0.22782 0.0
C1822 C 0.4844 0.24578 0.23937 0.0
H1823 H 0.54079 0.25284 0.32321 0.0
H1824 H 0.51608 0.25038 0.30384 0.0
H1825 H 0.52128 0.26176 0.23922 0.0
H1826 H 0.45498 0.25177 0.17913 0.0
H1827 H 0.47988 0.24829 0.19748 0.0
C1828 C 0.74986 0.5565 0.27567 0.0
C1829 C 0.74726 0.55704 0.29702 0.0
C1830 C 0.75099 0.54209 0.26543 0.0
C1831 C 0.74007 0.50002 0.27118 0.0
H1832 H 0.76654 0.49509 0.22288 0.0
C1833 C 0.74777 0.4405 0.22974 0.0
C1834 C 0.74534 0.44066 0.20832 0.0
C1835 C 0.74917 0.45457 0.24071 0.0
C1836 C 0.75905 0.49636 0.23628 0.0
H1837 H 0.74436 0.54287 0.32451 0.0
H1838 H 0.74685 0.5176 0.30674 0.0
H1839 H 0.76756 0.5196 0.24256 0.0
H1840 H 0.74292 0.45572 0.18154 0.0
H1841 H 0.74564 0.48045 0.2008 0.0
H1842 H 0.73179 0.47663 0.26501 0.0
C1843 C 0.74759 0.52835 0.29779 0.0
C1844 C 0.75958 0.5104 0.24756 0.0
C1845 C 0.74628 0.54283 0.30803 0.0
C1846 C 0.74477 0.45523 0.19802 0.0
C1847 C 0.74638 0.46935 0.20901 0.0
C1848 C 0.73971 0.48592 0.26007 0.0
C1849 C 0.74973 0.5278 0.27629 0.0
C1850 C 0.74997 0.51248 0.26504 0.0
C1851 C 0.74836 0.46913 0.2305 0.0
C1852 C 0.74909 0.484 0.24243 0.0
H1853 H 0.75058 0.56725 0.26669 0.0
H1854 H 0.75235 0.5422 0.24886 0.0
H1855 H 0.73227 0.50126 0.28428 0.0
H1856 H 0.74827 0.42948 0.23816 0.0
H1857 H 0.75085 0.45407 0.25723 0.0
C1858 C 0.45416 0.74438 0.30285 0.0
C1859 C 0.43959 0.7444 0.29254 0.0
C1860 C 0.46824 0.74611 0.29179 0.0
C1861 C 0.48509 0.73896 0.24101 0.0
H1862 H 0.51774 0.76836 0.25753 0.0
C1863 C 0.54191 0.74625 0.19306 0.0
C1864 C 0.55604 0.7479 0.20412 0.0
C1865 C 0.52735 0.74741 0.20314 0.0
C1866 C 0.50883 0.75995 0.25282 0.0
H1867 H 0.42834 0.74639 0.26262 0.0
H1868 H 0.45287 0.74915 0.24344 0.0
H1869 H 0.49326 0.76688 0.27722 0.0
H1870 H 0.566 0.75233 0.23435 0.0
H1871 H 0.54084 0.75384 0.25192 0.0
H1872 H 0.50072 0.73155 0.21711 0.0
C1873 C 0.4534 0.74783 0.26001 0.0
C1874 C 0.49481 0.75916 0.26409 0.0
C1875 C 0.43937 0.74633 0.27104 0.0
C1876 C 0.55532 0.75109 0.22533 0.0
C1877 C 0.54084 0.75206 0.23542 0.0
C1878 C 0.49919 0.73959 0.22991 0.0
C1879 C 0.46797 0.74765 0.27024 0.0
C1880 C 0.48283 0.74863 0.25831 0.0
C1881 C 0.52664 0.75007 0.22453 0.0
C1882 C 0.51129 0.75005 0.2357 0.0
H1883 H 0.45469 0.74293 0.3194 0.0
H1884 H 0.47935 0.74584 0.30003 0.0
H1885 H 0.47609 0.73062 0.23635 0.0
H1886 H 0.54208 0.74387 0.17668 0.0
H1887 H 0.51667 0.7461 0.19417 0.0
C1888 C 0.19439 0.11793 0.21996 0.0
C1889 C 0.19374 0.11927 0.1984 0.0
C1890 C 0.18295 0.12508 0.2323 0.0
C1891 C 0.15542 0.15836 0.23126 0.0
H1892 H 0.14062 0.14063 0.28281 0.0
C1893 C 0.11435 0.19367 0.28401 0.0
C1894 C 0.11851 0.19401 0.30496 0.0
C1895 C 0.12111 0.18265 0.27072 0.0
C1896 C 0.1447 0.14575 0.26849 0.0
H1897 H 0.18009 0.12855 0.17287 0.0
H1898 H 0.16004 0.14093 0.19444 0.0
H1899 H 0.15671 0.12456 0.25967 0.0
H1900 H 0.13249 0.1825 0.32855 0.0
H1901 H 0.14452 0.1634 0.30524 0.0
H1902 H 0.14384 0.17965 0.2402 0.0
C1903 C 0.16956 0.13453 0.20179 0.0
C1904 C 0.1539 0.13655 0.25524 0.0
C1905 C 0.18101 0.12738 0.18943 0.0
C1906 C 0.12904 0.18257 0.3125 0.0
C1907 C 0.13588 0.17157 0.29915 0.0
C1908 C 0.14625 0.16753 0.24448 0.0
C1909 C 0.17058 0.13373 0.22338 0.0
C1910 C 0.15954 0.14283 0.2366 0.0
C1911 C 0.13227 0.17174 0.27801 0.0
C1912 C 0.14094 0.16142 0.26337 0.0
H1913 H 0.204 0.11174 0.22741 0.0
H1914 H 0.1842 0.12436 0.24886 0.0
H1915 H 0.1598 0.16367 0.21722 0.0
H1916 H 0.10612 0.20218 0.27773 0.0
H1917 H 0.11783 0.18289 0.25461 0.0
C1918 C 0.86777 0.18371 0.19249 0.0
C1919 C 0.87841 0.195 0.20012 0.0
C1920 C 0.86067 0.17283 0.20579 0.0
C1921 C 0.84982 0.16883 0.2603 0.0
H1922 H 0.83983 0.12572 0.24523 0.0
C1923 C 0.81554 0.12828 0.31547 0.0
C1924 C 0.80304 0.11979 0.30655 0.0
C1925 C 0.8268 0.13571 0.30306 0.0
C1926 C 0.84249 0.13776 0.24962 0.0
H1927 H 0.89065 0.20309 0.22753 0.0
H1928 H 0.87845 0.18404 0.25055 0.0
H1929 H 0.85587 0.14187 0.22215 0.0
H1930 H 0.79299 0.11189 0.27757 0.0
H1931 H 0.81245 0.12498 0.25605 0.0
H1932 H 0.83617 0.16493 0.28747 0.0
C1933 C 0.87531 0.1838 0.23439 0.0
C1934 C 0.85167 0.147 0.2364 0.0
C1935 C 0.88236 0.19468 0.22115 0.0
C1936 C 0.80243 0.11837 0.28499 0.0
C1937 C 0.81367 0.12579 0.27261 0.0
C1938 C 0.84065 0.15962 0.27348 0.0
C1939 C 0.86411 0.17299 0.22697 0.0
C1940 C 0.85529 0.16271 0.24149 0.0
C1941 C 0.82581 0.13479 0.28148 0.0
C1942 C 0.83671 0.14403 0.26821 0.0
H1943 H 0.86447 0.18362 0.17638 0.0
H1944 H 0.852 0.16473 0.1996 0.0
H1945 H 0.85214 0.18097 0.26454 0.0
H1946 H 0.81643 0.12953 0.33202 0.0
H1947 H 0.83615 0.14236 0.31038 0.0
C1948 C 0.86975 0.81597 0.31041 0.0
C1949 C 0.8802 0.80449 0.30284 0.0
C1950 C 0.86281 0.82691 0.29705 0.0
C1951 C 0.85197 0.83071 0.2425 0.0
H1952 H 0.84201 0.87386 0.25739 0.0
C1953 C 0.81712 0.87087 0.1875 0.0
C1954 C 0.80456 0.87919 0.19656 0.0
C1955 C 0.82859 0.86366 0.19978 0.0
C1956 C 0.84467 0.86182 0.25304 0.0
H1957 H 0.89234 0.79613 0.2755 0.0
H1958 H 0.88044 0.81529 0.25236 0.0
H1959 H 0.85814 0.85779 0.28047 0.0
H1960 H 0.79465 0.88703 0.22564 0.0
H1961 H 0.81448 0.87432 0.24694 0.0
H1962 H 0.83823 0.83453 0.21539 0.0
C1963 C 0.8773 0.81563 0.26851 0.0
C1964 C 0.8539 0.85262 0.26627 0.0
C1965 C 0.88417 0.80469 0.28182 0.0
C1966 C 0.80412 0.88068 0.21812 0.0
C1967 C 0.81558 0.87348 0.23037 0.0
C1968 C 0.84277 0.83989 0.22931 0.0
C1969 C 0.86623 0.82661 0.27586 0.0
C1970 C 0.85749 0.83689 0.26125 0.0
C1971 C 0.82777 0.86461 0.22137 0.0
C1972 C 0.83882 0.85548 0.23454 0.0
H1973 H 0.86643 0.81615 0.32651 0.0
H1974 H 0.85424 0.83513 0.30319 0.0
H1975 H 0.85426 0.81856 0.23831 0.0
H1976 H 0.81788 0.86957 0.17095 0.0
H1977 H 0.83797 0.8571 0.19237 0.0
C1978 C 0.19322 0.87915 0.285 0.0
C1979 C 0.19367 0.87695 0.30646 0.0
C1980 C 0.1818 0.87162 0.27304 0.0
C1981 C 0.1569 0.83631 0.27369 0.0
H1982 H 0.13846 0.85489 0.22472 0.0
C1983 C 0.11571 0.80043 0.22149 0.0
C1984 C 0.11876 0.80135 0.20024 0.0
C1985 C 0.12252 0.81119 0.2351 0.0
C1986 C 0.14357 0.84953 0.2383 0.0
H1987 H 0.18195 0.86568 0.33225 0.0
H1988 H 0.16192 0.85261 0.31134 0.0
H1989 H 0.15437 0.8712 0.24777 0.0
H1990 H 0.13088 0.81473 0.17657 0.0
H1991 H 0.14297 0.8334 0.20039 0.0
H1992 H 0.14649 0.81458 0.26405 0.0
C1993 C 0.17058 0.86 0.30377 0.0
C1994 C 0.15266 0.85886 0.25151 0.0
C1995 C 0.18201 0.86756 0.31576 0.0
C1996 C 0.12829 0.81368 0.19284 0.0
C1997 C 0.13516 0.82444 0.2065 0.0
C1998 C 0.14783 0.827 0.26051 0.0
C1999 C 0.17054 0.8617 0.28223 0.0
C2000 C 0.15961 0.8523 0.26921 0.0
C2001 C 0.13261 0.82311 0.22782 0.0
C2002 C 0.14122 0.83343 0.24252 0.0
H2003 H 0.20199 0.88634 0.27731 0.0
H2004 H 0.18222 0.87306 0.25649 0.0
H2005 H 0.1623 0.8308 0.28698 0.0
H2006 H 0.10828 0.79119 0.22771 0.0
H2007 H 0.12008 0.81003 0.25139 0.0
C2008 C 0.86881 0.81585 0.68973 0.0
C2009 C 0.8797 0.80477 0.69731 0.0
C2010 C 0.8617 0.82672 0.70303 0.0
C2011 C 0.8514 0.83089 0.7577 0.0
H2012 H 0.84031 0.87365 0.74229 0.0
C2013 C 0.81655 0.87094 0.81287 0.0
C2014 C 0.80375 0.879 0.80399 0.0
C2015 C 0.82795 0.86377 0.80042 0.0
C2016 C 0.84328 0.86172 0.74678 0.0
H2017 H 0.89239 0.79709 0.72457 0.0
H2018 H 0.88018 0.81614 0.74758 0.0
H2019 H 0.85647 0.85769 0.71912 0.0
H2020 H 0.79331 0.88642 0.77504 0.0
H2021 H 0.81299 0.87377 0.75345 0.0
H2022 H 0.83794 0.83469 0.78506 0.0
C2023 C 0.87685 0.8162 0.73148 0.0
C2024 C 0.85253 0.85258 0.73351 0.0
C2025 C 0.8839 0.80532 0.71824 0.0
C2026 C 0.80297 0.88026 0.78242 0.0
C2027 C 0.81435 0.8731 0.77001 0.0
C2028 C 0.84217 0.84 0.77094 0.0
C2029 C 0.86538 0.82677 0.72415 0.0
C2030 C 0.85654 0.83699 0.73873 0.0
C2031 C 0.8268 0.8645 0.77883 0.0
C2032 C 0.83783 0.85545 0.76554 0.0
H2033 H 0.86532 0.81575 0.6737 0.0
H2034 H 0.85283 0.83463 0.69691 0.0
H2035 H 0.85403 0.81883 0.76205 0.0
H2036 H 0.81758 0.86982 0.82942 0.0
H2037 H 0.83753 0.85743 0.8077 0.0
C2038 C 0.18064 0.86944 0.68953 0.0
C2039 C 0.19316 0.8779 0.69845 0.0
C2040 C 0.16927 0.86219 0.70193 0.0
C2041 C 0.1532 0.86051 0.75511 0.0
H2042 H 0.14441 0.81694 0.74105 0.0
C2043 C 0.12831 0.81507 0.81308 0.0
C2044 C 0.11814 0.80328 0.80563 0.0
C2045 C 0.13522 0.82589 0.79955 0.0
C2046 C 0.14647 0.82918 0.74504 0.0
H2047 H 0.2031 0.886 0.72738 0.0
H2048 H 0.18341 0.87324 0.74892 0.0
H2049 H 0.16029 0.83295 0.71798 0.0
H2050 H 0.10651 0.79422 0.7783 0.0
H2051 H 0.11834 0.81321 0.75486 0.0
H2052 H 0.13962 0.85656 0.78245 0.0
C2053 C 0.18229 0.8723 0.73236 0.0
C2054 C 0.15559 0.83837 0.73178 0.0
C2055 C 0.19366 0.87953 0.71998 0.0
C2056 C 0.11445 0.80303 0.78453 0.0
C2057 C 0.12129 0.81387 0.77106 0.0
C2058 C 0.14404 0.8513 0.76839 0.0
C2059 C 0.17016 0.86327 0.7235 0.0
C2060 C 0.15924 0.85408 0.73677 0.0
C2061 C 0.13205 0.82519 0.77831 0.0
C2062 C 0.14073 0.83546 0.76362 0.0
H2063 H 0.17983 0.86803 0.67299 0.0
H2064 H 0.15993 0.8555 0.69463 0.0
H2065 H 0.15566 0.87264 0.75926 0.0
H2066 H 0.1314 0.81559 0.82924 0.0
H2067 H 0.14356 0.83437 0.80564 0.0
C2068 C 0.12795 0.18264 0.68953 0.0
C2069 C 0.11972 0.1953 0.69848 0.0
C2070 C 0.13513 0.1712 0.70191 0.0
C2071 C 0.13688 0.15538 0.75529 0.0
H2072 H 0.18002 0.14529 0.74057 0.0
C2073 C 0.18239 0.12979 0.81271 0.0
C2074 C 0.19368 0.11912 0.80517 0.0
C2075 C 0.17159 0.13692 0.79932 0.0
C2076 C 0.1679 0.14773 0.74475 0.0
H2077 H 0.112 0.20545 0.72748 0.0
H2078 H 0.12465 0.18568 0.74895 0.0
H2079 H 0.16421 0.16143 0.71757 0.0
H2080 H 0.20187 0.10684 0.77785 0.0
H2081 H 0.18295 0.11907 0.75466 0.0
H2082 H 0.14078 0.14195 0.78277 0.0
C2083 C 0.12545 0.18447 0.73239 0.0
C2084 C 0.15881 0.15699 0.73153 0.0
C2085 C 0.11829 0.19589 0.72004 0.0
C2086 C 0.19345 0.11516 0.78415 0.0
C2087 C 0.18265 0.12222 0.77082 0.0
C2088 C 0.14599 0.1461 0.76855 0.0
C2089 C 0.13422 0.17217 0.7235 0.0
C2090 C 0.14327 0.1611 0.73675 0.0
C2091 C 0.17185 0.13347 0.77814 0.0
C2092 C 0.16167 0.14233 0.76353 0.0
H2093 H 0.1292 0.18175 0.67298 0.0
H2094 H 0.1416 0.16173 0.69458 0.0
H2095 H 0.12486 0.15818 0.75963 0.0
H2096 H 0.18224 0.1331 0.82881 0.0
H2097 H 0.1635 0.14562 0.80544 0.0
C2098 C 0.86791 0.18106 0.81647 0.0
C2099 C 0.87744 0.1926 0.80715 0.0
C2100 C 0.86016 0.16975 0.80448 0.0
C2101 C 0.8587 0.15194 0.75215 0.0
H2102 H 0.81433 0.14642 0.76468 0.0
C2103 C 0.81319 0.12847 0.69331 0.0
C2104 C 0.80083 0.11893 0.70062 0.0
C2105 C 0.82397 0.13523 0.70703 0.0
C2106 C 0.82676 0.14758 0.76114 0.0
H2107 H 0.88692 0.20079 0.77799 0.0
H2108 H 0.87334 0.18123 0.75718 0.0
H2109 H 0.83081 0.16189 0.78771 0.0
H2110 H 0.79061 0.10839 0.72802 0.0
H2111 H 0.80948 0.12002 0.7518 0.0
H2112 H 0.85449 0.13792 0.72526 0.0
C2113 C 0.87191 0.18081 0.77374 0.0
C2114 C 0.83623 0.15645 0.77438 0.0
C2115 C 0.87962 0.19212 0.78569 0.0
C2116 C 0.79988 0.1158 0.72185 0.0
C2117 C 0.81066 0.12253 0.73553 0.0
C2118 C 0.84921 0.14306 0.73888 0.0
C2119 C 0.86183 0.1697 0.78293 0.0
C2120 C 0.85226 0.15893 0.7699 0.0
C2121 C 0.82264 0.13257 0.72833 0.0
C2122 C 0.83308 0.14096 0.74309 0.0
H2123 H 0.86603 0.18104 0.83296 0.0
H2124 H 0.85265 0.1612 0.81205 0.0
H2125 H 0.87106 0.15346 0.74841 0.0
H2126 H 0.81427 0.13111 0.67706 0.0
H2127 H 0.83298 0.14302 0.70099 0.0
C2128 C 0.6958 0.61634 0.71997 0.0
C2129 C 0.69601 0.62032 0.69896 0.0
C2130 C 0.68489 0.62325 0.73329 0.0
C2131 C 0.64781 0.64646 0.73547 0.0
H2132 H 0.66549 0.6618 0.78677 0.0
C2133 C 0.61876 0.69516 0.78455 0.0
C2134 C 0.62012 0.69438 0.80611 0.0
C2135 C 0.62625 0.68404 0.77206 0.0
C2136 C 0.66025 0.65735 0.77271 0.0
H2137 H 0.68444 0.63422 0.67532 0.0
H2138 H 0.66551 0.64646 0.69868 0.0
H2139 H 0.68175 0.64617 0.76368 0.0
H2140 H 0.62982 0.68081 0.83144 0.0
H2141 H 0.64279 0.66131 0.8096 0.0
H2142 H 0.62639 0.658 0.74439 0.0
C2143 C 0.6737 0.63786 0.7048 0.0
C2144 C 0.66959 0.64839 0.75944 0.0
C2145 C 0.68461 0.63089 0.69142 0.0
C2146 C 0.62861 0.68183 0.8149 0.0
C2147 C 0.63611 0.6707 0.80238 0.0
C2148 C 0.63845 0.65544 0.74878 0.0
C2149 C 0.67395 0.63436 0.72596 0.0
C2150 C 0.66355 0.64298 0.74056 0.0
C2151 C 0.63527 0.67186 0.78081 0.0
C2152 C 0.64463 0.66115 0.76744 0.0
H2153 H 0.70429 0.60811 0.72627 0.0
H2154 H 0.68519 0.62006 0.74943 0.0
H2155 H 0.64275 0.64229 0.72117 0.0
H2156 H 0.61228 0.70464 0.77723 0.0
H2157 H 0.62548 0.68539 0.75551 0.0
C2158 C 0.31332 0.6265 0.80916 0.0
C2159 C 0.30035 0.61767 0.80213 0.0
C2160 C 0.32395 0.63316 0.79515 0.0
C2161 C 0.32551 0.64697 0.74161 0.0
H2162 H 0.3704 0.65055 0.75203 0.0
C2163 C 0.36611 0.68119 0.68628 0.0
C2164 C 0.3764 0.69191 0.69589 0.0
C2165 C 0.35832 0.66964 0.69784 0.0
C2166 C 0.35787 0.64968 0.74893 0.0
H2167 H 0.28885 0.60829 0.77488 0.0
H2168 H 0.30742 0.61978 0.75059 0.0
H2169 H 0.35396 0.63494 0.77524 0.0
H2170 H 0.38716 0.69836 0.72504 0.0
H2171 H 0.37351 0.67844 0.74509 0.0
H2172 H 0.32927 0.66204 0.7157 0.0
C2173 C 0.30923 0.62179 0.76688 0.0
C2174 C 0.34846 0.64075 0.76224 0.0
C2175 C 0.29862 0.61515 0.78085 0.0
C2176 C 0.37927 0.69035 0.71712 0.0
C2177 C 0.37152 0.67882 0.72864 0.0
C2178 C 0.3349 0.6559 0.72835 0.0
C2179 C 0.32183 0.63112 0.77384 0.0
C2180 C 0.33213 0.6395 0.7589 0.0
C2181 C 0.36071 0.66854 0.71923 0.0
C2182 C 0.35115 0.65758 0.73203 0.0
H2183 H 0.31502 0.62867 0.82544 0.0
H2184 H 0.33346 0.64041 0.80101 0.0
H2185 H 0.31293 0.64645 0.73876 0.0
H2186 H 0.36369 0.68201 0.66994 0.0
H2187 H 0.35022 0.66174 0.69009 0.0
C2188 C 0.36886 0.31453 0.81053 0.0
C2189 C 0.37903 0.30273 0.8031 0.0
C2190 C 0.36222 0.32555 0.79703 0.0
C2191 C 0.35153 0.32949 0.74247 0.0
H2192 H 0.34337 0.3731 0.75693 0.0
C2193 C 0.31803 0.37058 0.68722 0.0
C2194 C 0.30583 0.37939 0.69629 0.0
C2195 C 0.32932 0.36306 0.69948 0.0
C2196 C 0.34553 0.36094 0.7527 0.0
H2197 H 0.39087 0.29382 0.77583 0.0
H2198 H 0.37946 0.3131 0.75246 0.0
H2199 H 0.35882 0.35651 0.78016 0.0
H2200 H 0.29642 0.38785 0.72536 0.0
H2201 H 0.31592 0.37463 0.74663 0.0
H2202 H 0.33793 0.3337 0.71533 0.0
C2203 C 0.37635 0.31365 0.76862 0.0
C2204 C 0.35436 0.35144 0.76601 0.0
C2205 C 0.38294 0.30263 0.78206 0.0
C2206 C 0.30561 0.38111 0.71783 0.0
C2207 C 0.31688 0.37361 0.73006 0.0
C2208 C 0.3427 0.33895 0.72919 0.0
C2209 C 0.36564 0.32501 0.77585 0.0
C2210 C 0.35729 0.33554 0.76116 0.0
C2211 C 0.32867 0.36421 0.72107 0.0
C2212 C 0.3394 0.35473 0.73427 0.0
H2213 H 0.36561 0.31495 0.82664 0.0
H2214 H 0.35391 0.33408 0.80308 0.0
H2215 H 0.35332 0.31722 0.73841 0.0
H2216 H 0.31861 0.36908 0.67067 0.0
H2217 H 0.3384 0.3561 0.69206 0.0
C2218 C 0.61471 0.30159 0.71953 0.0
C2219 C 0.61805 0.30223 0.69834 0.0
C2220 C 0.62164 0.31229 0.73313 0.0
C2221 C 0.64348 0.35014 0.73623 0.0
H2222 H 0.66137 0.33141 0.78544 0.0
C2223 C 0.6933 0.37915 0.7832 0.0
C2224 C 0.69354 0.37715 0.80469 0.0
C2225 C 0.68184 0.37171 0.7712 0.0
C2226 C 0.65621 0.33693 0.772 0.0
H2227 H 0.63081 0.31508 0.67474 0.0
H2228 H 0.64306 0.33367 0.69854 0.0
H2229 H 0.64543 0.31534 0.76247 0.0
H2230 H 0.68142 0.36633 0.8305 0.0
H2231 H 0.66131 0.35342 0.80952 0.0
H2232 H 0.65462 0.37166 0.7456 0.0
C2233 C 0.63495 0.32496 0.70461 0.0
C2234 C 0.64706 0.3277 0.75879 0.0
C2235 C 0.62799 0.31425 0.69096 0.0
C2236 C 0.68164 0.36805 0.81399 0.0
C2237 C 0.67017 0.36058 0.80195 0.0
C2238 C 0.65264 0.35939 0.74947 0.0
C2239 C 0.6321 0.32389 0.72589 0.0
C2240 C 0.64077 0.33413 0.74061 0.0
C2241 C 0.67032 0.36209 0.78039 0.0
C2242 C 0.65929 0.35282 0.76735 0.0
H2243 H 0.60699 0.29259 0.72574 0.0
H2244 H 0.61897 0.31133 0.74939 0.0
H2245 H 0.63861 0.3555 0.7225 0.0
H2246 H 0.70225 0.38611 0.77551 0.0
H2247 H 0.68242 0.373 0.75463 0.0
C2248 C 0.37015 0.31721 0.18695 0.0
C2249 C 0.37873 0.30489 0.19614 0.0
C2250 C 0.36284 0.3287 0.19911 0.0
C2251 C 0.36109 0.34538 0.25201 0.0
H2252 H 0.31743 0.35363 0.23789 0.0
C2253 C 0.31542 0.37014 0.30976 0.0
C2254 C 0.30354 0.38017 0.30222 0.0
C2255 C 0.3263 0.36325 0.29629 0.0
C2256 C 0.32969 0.35172 0.2419 0.0
H2257 H 0.38698 0.29544 0.22529 0.0
H2258 H 0.37411 0.31531 0.24639 0.0
H2259 H 0.33358 0.33773 0.21502 0.0
H2260 H 0.29438 0.39156 0.27479 0.0
H2261 H 0.31346 0.37977 0.25144 0.0
H2262 H 0.35702 0.35912 0.27919 0.0
C2263 C 0.37312 0.3162 0.22981 0.0
C2264 C 0.33896 0.3426 0.22874 0.0
C2265 C 0.38041 0.30472 0.21768 0.0
C2266 C 0.30325 0.38374 0.28109 0.0
C2267 C 0.31415 0.37692 0.26767 0.0
C2268 C 0.3518 0.35455 0.26519 0.0
C2269 C 0.36397 0.32812 0.2207 0.0
C2270 C 0.35471 0.33913 0.23377 0.0
C2271 C 0.32557 0.36631 0.27502 0.0
C2272 C 0.33592 0.35765 0.26041 0.0
H2273 H 0.3687 0.31776 0.17041 0.0
H2274 H 0.35605 0.33787 0.19162 0.0
H2275 H 0.37324 0.34308 0.25619 0.0
H2276 H 0.31598 0.36715 0.32595 0.0
H2277 H 0.33486 0.35503 0.30245 0.0
C2278 C 0.62835 0.3136 0.31064 0.0
C2279 C 0.61832 0.30167 0.30325 0.0
C2280 C 0.63521 0.32441 0.29704 0.0
C2281 C 0.64683 0.32756 0.24272 0.0
H2282 H 0.65445 0.37145 0.25623 0.0
C2283 C 0.68075 0.36819 0.18725 0.0
C2284 C 0.69268 0.37735 0.19638 0.0
C2285 C 0.66942 0.36066 0.19945 0.0
C2286 C 0.65245 0.3592 0.25227 0.0
H2287 H 0.60696 0.29229 0.27589 0.0
H2288 H 0.61877 0.3112 0.25233 0.0
H2289 H 0.63872 0.35512 0.27946 0.0
H2290 H 0.70158 0.38635 0.22545 0.0
H2291 H 0.68203 0.37308 0.2466 0.0
H2292 H 0.66085 0.33144 0.21587 0.0
C2293 C 0.62159 0.31202 0.26856 0.0
C2294 C 0.64345 0.34985 0.26558 0.0
C2295 C 0.61477 0.30121 0.28211 0.0
C2296 C 0.69261 0.37934 0.21788 0.0
C2297 C 0.6813 0.37182 0.23004 0.0
C2298 C 0.65582 0.33688 0.22945 0.0
C2299 C 0.63215 0.32353 0.27579 0.0
C2300 C 0.64071 0.33387 0.26107 0.0
C2301 C 0.66977 0.36213 0.22101 0.0
C2302 C 0.65893 0.35275 0.23419 0.0
H2303 H 0.63132 0.31429 0.32683 0.0
H2304 H 0.6434 0.33305 0.3031 0.0
H2305 H 0.64517 0.31522 0.23894 0.0
H2306 H 0.68039 0.36649 0.17074 0.0
H2307 H 0.66054 0.35346 0.192 0.0
C2308 C 0.69405 0.61797 0.28428 0.0
C2309 C 0.69382 0.6196 0.30583 0.0
C2310 C 0.68258 0.62524 0.27213 0.0
C2311 C 0.65594 0.65922 0.27323 0.0
H2312 H 0.63978 0.64122 0.22254 0.0
C2313 C 0.61476 0.69479 0.2208 0.0
C2314 C 0.6185 0.69468 0.19971 0.0
C2315 C 0.62157 0.68386 0.23419 0.0
C2316 C 0.64424 0.64642 0.23661 0.0
H2317 H 0.68082 0.6295 0.33155 0.0
H2318 H 0.6607 0.6421 0.31029 0.0
H2319 H 0.65583 0.62503 0.24557 0.0
H2320 H 0.63181 0.68251 0.17602 0.0
H2321 H 0.64391 0.66357 0.19948 0.0
H2322 H 0.64477 0.6807 0.26413 0.0
C2323 C 0.66994 0.63538 0.30281 0.0
C2324 C 0.65342 0.63715 0.24981 0.0
C2325 C 0.68143 0.6281 0.31499 0.0
C2326 C 0.62868 0.68293 0.19218 0.0
C2327 C 0.63556 0.67202 0.20562 0.0
C2328 C 0.64679 0.66847 0.26007 0.0
C2329 C 0.67058 0.6343 0.28122 0.0
C2330 C 0.65955 0.64352 0.26813 0.0
C2331 C 0.63234 0.6726 0.22685 0.0
C2332 C 0.641 0.66226 0.24147 0.0
H2333 H 0.70339 0.61147 0.27669 0.0
H2334 H 0.68352 0.62429 0.25555 0.0
H2335 H 0.6607 0.66459 0.28702 0.0
H2336 H 0.60681 0.70355 0.2271 0.0
H2337 H 0.61859 0.68443 0.25039 0.0
C2338 C 0.31263 0.62708 0.19181 0.0
C2339 C 0.29985 0.61803 0.19895 0.0
C2340 C 0.32311 0.63408 0.20571 0.0
C2341 C 0.32465 0.64796 0.25935 0.0
H2342 H 0.36938 0.65252 0.24842 0.0
C2343 C 0.37801 0.69166 0.28479 0.0
C2344 C 0.37543 0.69248 0.30615 0.0
C2345 C 0.37024 0.6804 0.27282 0.0
C2346 C 0.3569 0.65137 0.25165 0.0
H2347 H 0.28852 0.60864 0.22631 0.0
H2348 H 0.30688 0.62065 0.25045 0.0
H2349 H 0.35308 0.63677 0.2252 0.0
H2350 H 0.36316 0.6816 0.3318 0.0
H2351 H 0.34963 0.66187 0.31086 0.0
H2352 H 0.32835 0.6628 0.2855 0.0
C2353 C 0.30863 0.62261 0.23413 0.0
C2354 C 0.34756 0.64238 0.23834 0.0
C2355 C 0.29814 0.61566 0.22026 0.0
C2356 C 0.36536 0.68136 0.31538 0.0
C2357 C 0.35754 0.67011 0.30337 0.0
C2358 C 0.33397 0.65693 0.27264 0.0
C2359 C 0.32106 0.63214 0.22706 0.0
C2360 C 0.33128 0.64073 0.24189 0.0
C2361 C 0.35967 0.6697 0.28191 0.0
C2362 C 0.35016 0.65892 0.26881 0.0
H2363 H 0.31429 0.62915 0.1755 0.0
H2364 H 0.33247 0.64147 0.19975 0.0
H2365 H 0.31211 0.64716 0.26237 0.0
H2366 H 0.38573 0.7 0.27716 0.0
H2367 H 0.37203 0.68053 0.25632 0.0
loop_
_geom_bond_atom_site_label_1
_geom_bond_atom_site_label_2
_geom_bond_distance
_geom_bond_site_symmetry_2
_ccdc_geom_bond_type
O0 Cd1 2.223 . S
O0 C8 1.315 . S
Cd1 O0 2.223 . S
Cd1 O4 2.297 . S
Cd1 O5 2.439 . S
Cd1 O11 2.240 . S
Cd2 O3 2.240 . S
Cd2 O10 2.223 . S
Cd2 O12 2.297 . S
Cd2 O13 2.439 . S
O3 Cd2 2.240 . S
O3 C8 1.279 . S
O4 Cd1 2.297 . S
O4 C6 1.247 . S
O5 Cd1 2.439 . S
O5 C6 1.208 . S
C6 O4 1.247 . S
C6 O5 1.208 . S
C7 O12 1.247 . S
C7 O13 1.208 . S
C8 O0 1.315 . S
C8 O3 1.279 . S
C9 O10 1.315 . S
C9 O11 1.279 . S
O10 Cd2 2.223 . S
O10 C9 1.315 . S
O11 Cd1 2.240 . S
O11 C9 1.279 . S
O12 Cd2 2.297 . S
O12 C7 1.247 . S
O13 Cd2 2.439 . S
O13 C7 1.208 . S
O14 Cd15 2.223 . S
O14 C22 1.315 . S
Cd15 O14 2.223 . S
Cd15 O18 2.297 . S
Cd15 O19 2.439 . S
Cd15 O25 2.240 . S
Cd16 O17 2.240 . S
Cd16 O24 2.223 . S
Cd16 O26 2.297 . S
Cd16 O27 2.439 . S
O17 Cd16 2.240 . S
O17 C22 1.279 . S
O18 Cd15 2.297 . S
O18 C20 1.247 . S
O19 Cd15 2.439 . S
O19 C20 1.208 . S
C20 O18 1.247 . S
C20 O19 1.208 . S
C21 O26 1.247 . S
C21 O27 1.208 . S
C22 O14 1.315 . S
C22 O17 1.279 . S
C23 O24 1.315 . S
C23 O25 1.279 . S
O24 Cd16 2.223 . S
O24 C23 1.315 . S
O25 Cd15 2.240 . S
O25 C23 1.279 . S
O26 Cd16 2.297 . S
O26 C21 1.247 . S
O27 Cd16 2.439 . S
O27 C21 1.208 . S
O28 Cd29 2.223 . S
O28 C36 1.315 . S
Cd29 O28 2.223 . S
Cd29 O32 2.297 . S
Cd29 O33 2.439 . S
Cd29 O39 2.240 . S
Cd30 O31 2.240 . S
Cd30 O38 2.223 . S
Cd30 O40 2.297 . S
Cd30 O41 2.439 . S
O31 Cd30 2.240 . S
O31 C36 1.279 . S
O32 Cd29 2.297 . S
O32 C34 1.247 . S
O33 Cd29 2.439 . S
O33 C34 1.208 . S
C34 O32 1.247 . S
C34 O33 1.208 . S
C35 O40 1.247 . S
C35 O41 1.208 . S
C36 O28 1.315 . S
C36 O31 1.279 . S
C37 O38 1.315 . S
C37 O39 1.279 . S
O38 Cd30 2.223 . S
O38 C37 1.315 . S
O39 Cd29 2.240 . S
O39 C37 1.279 . S
O40 Cd30 2.297 . S
O40 C35 1.247 . S
O41 Cd30 2.439 . S
O41 C35 1.208 . S
O42 Cd43 2.223 . S
O42 C50 1.315 . S
Cd43 O42 2.223 . S
Cd43 O46 2.297 . S
Cd43 O47 2.439 . S
Cd43 O53 2.240 . S
Cd44 O45 2.240 . S
Cd44 O52 2.223 . S
Cd44 O54 2.297 . S
Cd44 O55 2.439 . S
O45 Cd44 2.240 . S
O45 C50 1.279 . S
O46 Cd43 2.297 . S
O46 C48 1.247 . S
O47 Cd43 2.439 . S
O47 C48 1.208 . S
C48 O46 1.247 . S
C48 O47 1.208 . S
C49 O54 1.247 . S
C49 O55 1.208 . S
C50 O42 1.315 . S
C50 O45 1.279 . S
C51 O52 1.315 . S
C51 O53 1.279 . S
O52 Cd44 2.223 . S
O52 C51 1.315 . S
O53 Cd43 2.240 . S
O53 C51 1.279 . S
O54 Cd44 2.297 . S
O54 C49 1.247 . S
O55 Cd44 2.439 . S
O55 C49 1.208 . S
O56 Cd57 2.223 . S
O56 C64 1.315 . S
Cd57 O56 2.223 . S
Cd57 O60 2.297 . S
Cd57 O61 2.439 . S
Cd57 O67 2.240 . S
Cd58 O59 2.240 . S
Cd58 O66 2.223 . S
Cd58 O68 2.297 . S
Cd58 O69 2.439 . S
O59 Cd58 2.240 . S
O59 C64 1.279 . S
O60 Cd57 2.297 . S
O60 C62 1.247 . S
O61 Cd57 2.439 . S
O61 C62 1.208 . S
C62 O60 1.247 . S
C62 O61 1.208 . S
C63 O68 1.247 . S
C63 O69 1.208 . S
C64 O56 1.315 . S
C64 O59 1.279 . S
C65 O66 1.315 . S
C65 O67 1.279 . S
O66 Cd58 2.223 . S
O66 C65 1.315 . S
O67 Cd57 2.240 . S
O67 C65 1.279 . S
O68 Cd58 2.297 . S
O68 C63 1.247 . S
O69 Cd58 2.439 . S
O69 C63 1.208 . S
O70 Cd71 2.223 . S
O70 C78 1.315 . S
Cd71 O70 2.223 . S
Cd71 O74 2.297 . S
Cd71 O75 2.439 . S
Cd71 O81 2.240 . S
Cd72 O73 2.240 . S
Cd72 O80 2.223 . S
Cd72 O82 2.297 . S
Cd72 O83 2.439 . S
O73 Cd72 2.240 . S
O73 C78 1.279 . S
O74 Cd71 2.297 . S
O74 C76 1.247 . S
O75 Cd71 2.439 . S
O75 C76 1.208 . S
C76 O74 1.247 . S
C76 O75 1.208 . S
C77 O82 1.247 . S
C77 O83 1.208 . S
C78 O70 1.315 . S
C78 O73 1.279 . S
C79 O80 1.315 . S
C79 O81 1.279 . S
O80 Cd72 2.223 . S
O80 C79 1.315 . S
O81 Cd71 2.240 . S
O81 C79 1.279 . S
O82 Cd72 2.297 . S
O82 C77 1.247 . S
O83 Cd72 2.439 . S
O83 C77 1.208 . S
O84 Cd85 2.223 . S
O84 C92 1.315 . S
Cd85 O84 2.223 . S
Cd85 O88 2.297 . S
Cd85 O89 2.439 . S
Cd85 O95 2.240 . S
Cd86 O87 2.240 . S
Cd86 O94 2.223 . S
Cd86 O96 2.297 . S
Cd86 O97 2.439 . S
O87 Cd86 2.240 . S
O87 C92 1.279 . S
O88 Cd85 2.297 . S
O88 C90 1.247 . S
O89 Cd85 2.439 . S
O89 C90 1.208 . S
C90 O88 1.247 . S
C90 O89 1.208 . S
C91 O96 1.247 . S
C91 O97 1.208 . S
C92 O84 1.315 . S
C92 O87 1.279 . S
C93 O94 1.315 . S
C93 O95 1.279 . S
O94 Cd86 2.223 . S
O94 C93 1.315 . S
O95 Cd85 2.240 . S
O95 C93 1.279 . S
O96 Cd86 2.297 . S
O96 C91 1.247 . S
O97 Cd86 2.439 . S
O97 C91 1.208 . S
O98 Cd99 2.223 . S
O98 C106 1.315 . S
Cd99 O98 2.223 . S
Cd99 O102 2.297 . S
Cd99 O103 2.439 . S
Cd99 O109 2.240 . S
Cd100 O101 2.240 . S
Cd100 O108 2.223 . S
Cd100 O110 2.297 . S
Cd100 O111 2.439 . S
O101 Cd100 2.240 . S
O101 C106 1.279 . S
O102 Cd99 2.297 . S
O102 C104 1.247 . S
O103 Cd99 2.439 . S
O103 C104 1.208 . S
C104 O102 1.247 . S
C104 O103 1.208 . S
C105 O110 1.247 . S
C105 O111 1.208 . S
C106 O98 1.315 . S
C106 O101 1.279 . S
C107 O108 1.315 . S
C107 O109 1.279 . S
O108 Cd100 2.223 . S
O108 C107 1.315 . S
O109 Cd99 2.240 . S
O109 C107 1.279 . S
O110 Cd100 2.297 . S
O110 C105 1.247 . S
O111 Cd100 2.439 . S
O111 C105 1.208 . S
O112 Cd113 2.223 . S
O112 C120 1.315 . S
Cd113 O112 2.223 . S
Cd113 O116 2.297 . S
Cd113 O117 2.439 . S
Cd113 O123 2.240 . S
Cd114 O115 2.240 . S
Cd114 O122 2.223 . S
Cd114 O124 2.297 . S
Cd114 O125 2.439 . S
O115 Cd114 2.240 . S
O115 C120 1.279 . S
O116 Cd113 2.297 . S
O116 C118 1.247 . S
O117 Cd113 2.439 . S
O117 C118 1.208 . S
C118 O116 1.247 . S
C118 O117 1.208 . S
C119 O124 1.247 . S
C119 O125 1.208 . S
C120 O112 1.315 . S
C120 O115 1.279 . S
C121 O122 1.315 . S
C121 O123 1.279 . S
O122 Cd114 2.223 . S
O122 C121 1.315 . S
O123 Cd113 2.240 . S
O123 C121 1.279 . S
O124 Cd114 2.297 . S
O124 C119 1.247 . S
O125 Cd114 2.439 . S
O125 C119 1.208 . S
O126 Cd127 2.223 . S
O126 C134 1.315 . S
Cd127 O126 2.223 . S
Cd127 O130 2.297 . S
Cd127 O131 2.439 . S
Cd127 O137 2.240 . S
Cd128 O129 2.240 . S
Cd128 O136 2.223 . S
Cd128 O138 2.297 . S
Cd128 O139 2.439 . S
O129 Cd128 2.240 . S
O129 C134 1.279 . S
O130 Cd127 2.297 . S
O130 C132 1.247 . S
O131 Cd127 2.439 . S
O131 C132 1.208 . S
C132 O130 1.247 . S
C132 O131 1.208 . S
C133 O138 1.247 . S
C133 O139 1.208 . S
C134 O126 1.315 . S
C134 O129 1.279 . S
C135 O136 1.315 . S
C135 O137 1.279 . S
O136 Cd128 2.223 . S
O136 C135 1.315 . S
O137 Cd127 2.240 . S
O137 C135 1.279 . S
O138 Cd128 2.297 . S
O138 C133 1.247 . S
O139 Cd128 2.439 . S
O139 C133 1.208 . S
O140 Cd141 2.223 . S
O140 C148 1.315 . S
Cd141 O140 2.223 . S
Cd141 O144 2.297 . S
Cd141 O145 2.439 . S
Cd141 O151 2.240 . S
Cd142 O143 2.240 . S
Cd142 O150 2.223 . S
Cd142 O152 2.297 . S
Cd142 O153 2.439 . S
O143 Cd142 2.240 . S
O143 C148 1.279 . S
O144 Cd141 2.297 . S
O144 C146 1.247 . S
O145 Cd141 2.439 . S
O145 C146 1.208 . S
C146 O144 1.247 . S
C146 O145 1.208 . S
C147 O152 1.247 . S
C147 O153 1.208 . S
C148 O140 1.315 . S
C148 O143 1.279 . S
C149 O150 1.315 . S
C149 O151 1.279 . S
O150 Cd142 2.223 . S
O150 C149 1.315 . S
O151 Cd141 2.240 . S
O151 C149 1.279 . S
O152 Cd142 2.297 . S
O152 C147 1.247 . S
O153 Cd142 2.439 . S
O153 C147 1.208 . S
O154 Cd155 2.223 . S
O154 C162 1.315 . S
Cd155 O154 2.223 . S
Cd155 O158 2.297 . S
Cd155 O159 2.439 . S
Cd155 O165 2.240 . S
Cd156 O157 2.240 . S
Cd156 O164 2.223 . S
Cd156 O166 2.297 . S
Cd156 O167 2.439 . S
O157 Cd156 2.240 . S
O157 C162 1.279 . S
O158 Cd155 2.297 . S
O158 C160 1.247 . S
O159 Cd155 2.439 . S
O159 C160 1.208 . S
C160 O158 1.247 . S
C160 O159 1.208 . S
C161 O166 1.247 . S
C161 O167 1.208 . S
C162 O154 1.315 . S
C162 O157 1.279 . S
C163 O164 1.315 . S
C163 O165 1.279 . S
O164 Cd156 2.223 . S
O164 C163 1.315 . S
O165 Cd155 2.240 . S
O165 C163 1.279 . S
O166 Cd156 2.297 . S
O166 C161 1.247 . S
O167 Cd156 2.439 . S
O167 C161 1.208 . S
O168 Cd169 2.223 . S
O168 C176 1.315 . S
Cd169 O168 2.223 . S
Cd169 O172 2.297 . S
Cd169 O173 2.439 . S
Cd169 O179 2.240 . S
Cd170 O171 2.240 . S
Cd170 O178 2.223 . S
Cd170 O180 2.297 . S
Cd170 O181 2.439 . S
O171 Cd170 2.240 . S
O171 C176 1.279 . S
O172 Cd169 2.297 . S
O172 C174 1.247 . S
O173 Cd169 2.439 . S
O173 C174 1.208 . S
C174 O172 1.247 . S
C174 O173 1.208 . S
C175 O180 1.247 . S
C175 O181 1.208 . S
C176 O168 1.315 . S
C176 O171 1.279 . S
C177 O178 1.315 . S
C177 O179 1.279 . S
O178 Cd170 2.223 . S
O178 C177 1.315 . S
O179 Cd169 2.240 . S
O179 C177 1.279 . S
O180 Cd170 2.297 . S
O180 C175 1.247 . S
O181 Cd170 2.439 . S
O181 C175 1.208 . S
O182 Cd183 2.223 . S
O182 C190 1.315 . S
Cd183 O182 2.223 . S
Cd183 O186 2.297 . S
Cd183 O187 2.439 . S
Cd183 O193 2.240 . S
Cd184 O185 2.240 . S
Cd184 O192 2.223 . S
Cd184 O194 2.297 . S
Cd184 O195 2.439 . S
O185 Cd184 2.240 . S
O185 C190 1.279 . S
O186 Cd183 2.297 . S
O186 C188 1.247 . S
O187 Cd183 2.439 . S
O187 C188 1.208 . S
C188 O186 1.247 . S
C188 O187 1.208 . S
C189 O194 1.247 . S
C189 O195 1.208 . S
C190 O182 1.315 . S
C190 O185 1.279 . S
C191 O192 1.315 . S
C191 O193 1.279 . S
O192 Cd184 2.223 . S
O192 C191 1.315 . S
O193 Cd183 2.240 . S
O193 C191 1.279 . S
O194 Cd184 2.297 . S
O194 C189 1.247 . S
O195 Cd184 2.439 . S
O195 C189 1.208 . S
O196 Cd197 2.223 . S
O196 C204 1.315 . S
Cd197 O196 2.223 . S
Cd197 O200 2.297 . S
Cd197 O201 2.439 . S
Cd197 O207 2.240 . S
Cd198 O199 2.240 . S
Cd198 O206 2.223 . S
Cd198 O208 2.297 . S
Cd198 O209 2.439 . S
O199 Cd198 2.240 . S
O199 C204 1.279 . S
O200 Cd197 2.297 . S
O200 C202 1.247 . S
O201 Cd197 2.439 . S
O201 C202 1.208 . S
C202 O200 1.247 . S
C202 O201 1.208 . S
C203 O208 1.247 . S
C203 O209 1.208 . S
C204 O196 1.315 . S
C204 O199 1.279 . S
C205 O206 1.315 . S
C205 O207 1.279 . S
O206 Cd198 2.223 . S
O206 C205 1.315 . S
O207 Cd197 2.240 . S
O207 C205 1.279 . S
O208 Cd198 2.297 . S
O208 C203 1.247 . S
O209 Cd198 2.439 . S
O209 C203 1.208 . S
O210 Cd211 2.223 . S
O210 C218 1.315 . S
Cd211 O210 2.223 . S
Cd211 O214 2.297 . S
Cd211 O215 2.439 . S
Cd211 O221 2.240 . S
Cd212 O213 2.240 . S
Cd212 O220 2.223 . S
Cd212 O222 2.297 . S
Cd212 O223 2.439 . S
O213 Cd212 2.240 . S
O213 C218 1.279 . S
O214 Cd211 2.297 . S
O214 C216 1.247 . S
O215 Cd211 2.439 . S
O215 C216 1.208 . S
C216 O214 1.247 . S
C216 O215 1.208 . S
C217 O222 1.247 . S
C217 O223 1.208 . S
C218 O210 1.315 . S
C218 O213 1.279 . S
C219 O220 1.315 . S
C219 O221 1.279 . S
O220 Cd212 2.223 . S
O220 C219 1.315 . S
O221 Cd211 2.240 . S
O221 C219 1.279 . S
O222 Cd212 2.297 . S
O222 C217 1.247 . S
O223 Cd212 2.439 . S
O223 C217 1.208 . S
O224 Cd225 2.223 . S
O224 C232 1.315 . S
Cd225 O224 2.223 . S
Cd225 O228 2.297 . S
Cd225 O229 2.439 . S
Cd225 O235 2.240 . S
Cd226 O227 2.240 . S
Cd226 O234 2.223 . S
Cd226 O236 2.297 . S
Cd226 O237 2.439 . S
O227 Cd226 2.240 . S
O227 C232 1.279 . S
O228 Cd225 2.297 . S
O228 C230 1.247 . S
O229 Cd225 2.439 . S
O229 C230 1.208 . S
C230 O228 1.247 . S
C230 O229 1.208 . S
C231 O236 1.247 . S
C231 O237 1.208 . S
C232 O224 1.315 . S
C232 O227 1.279 . S
C233 O234 1.315 . S
C233 O235 1.279 . S
O234 Cd226 2.223 . S
O234 C233 1.315 . S
O235 Cd225 2.240 . S
O235 C233 1.279 . S
O236 Cd226 2.297 . S
O236 C231 1.247 . S
O237 Cd226 2.439 . S
O237 C231 1.208 . S
O238 Cd239 2.223 . S
O238 C246 1.315 . S
Cd239 O238 2.223 . S
Cd239 O242 2.297 . S
Cd239 O243 2.439 . S
Cd239 O249 2.240 . S
Cd240 O241 2.240 . S
Cd240 O248 2.223 . S
Cd240 O250 2.297 . S
Cd240 O251 2.439 . S
O241 Cd240 2.240 . S
O241 C246 1.279 . S
O242 Cd239 2.297 . S
O242 C244 1.247 . S
O243 Cd239 2.439 . S
O243 C244 1.208 . S
C244 O242 1.247 . S
C244 O243 1.208 . S
C245 O250 1.247 . S
C245 O251 1.208 . S
C246 O238 1.315 . S
C246 O241 1.279 . S
C247 O248 1.315 . S
C247 O249 1.279 . S
O248 Cd240 2.223 . S
O248 C247 1.315 . S
O249 Cd239 2.240 . S
O249 C247 1.279 . S
O250 Cd240 2.297 . S
O250 C245 1.247 . S
O251 Cd240 2.439 . S
O251 C245 1.208 . S
O252 Cd253 2.223 . S
O252 C260 1.315 . S
Cd253 O252 2.223 . S
Cd253 O256 2.297 . S
Cd253 O257 2.439 . S
Cd253 O263 2.240 . S
Cd254 O255 2.240 . S
Cd254 O262 2.223 . S
Cd254 O264 2.297 . S
Cd254 O265 2.439 . S
O255 Cd254 2.240 . S
O255 C260 1.279 . S
O256 Cd253 2.297 . S
O256 C258 1.247 . S
O257 Cd253 2.439 . S
O257 C258 1.208 . S
C258 O256 1.247 . S
C258 O257 1.208 . S
C259 O264 1.247 . S
C259 O265 1.208 . S
C260 O252 1.315 . S
C260 O255 1.279 . S
C261 O262 1.315 . S
C261 O263 1.279 . S
O262 Cd254 2.223 . S
O262 C261 1.315 . S
O263 Cd253 2.240 . S
O263 C261 1.279 . S
O264 Cd254 2.297 . S
O264 C259 1.247 . S
O265 Cd254 2.439 . S
O265 C259 1.208 . S
O266 Cd267 2.223 . S
O266 C274 1.315 . S
Cd267 O266 2.223 . S
Cd267 O270 2.297 . S
Cd267 O271 2.439 . S
Cd267 O277 2.240 . S
Cd268 O269 2.240 . S
Cd268 O276 2.223 . S
Cd268 O278 2.297 . S
Cd268 O279 2.439 . S
O269 Cd268 2.240 . S
O269 C274 1.279 . S
O270 Cd267 2.297 . S
O270 C272 1.247 . S
O271 Cd267 2.439 . S
O271 C272 1.208 . S
C272 O270 1.247 . S
C272 O271 1.208 . S
C273 O278 1.247 . S
C273 O279 1.208 . S
C274 O266 1.315 . S
C274 O269 1.279 . S
C275 O276 1.315 . S
C275 O277 1.279 . S
O276 Cd268 2.223 . S
O276 C275 1.315 . S
O277 Cd267 2.240 . S
O277 C275 1.279 . S
O278 Cd268 2.297 . S
O278 C273 1.247 . S
O279 Cd268 2.439 . S
O279 C273 1.208 . S
O280 Cd281 2.223 . S
O280 C288 1.315 . S
Cd281 O280 2.223 . S
Cd281 O284 2.297 . S
Cd281 O285 2.439 . S
Cd281 O291 2.240 . S
Cd282 O283 2.240 . S
Cd282 O290 2.223 . S
Cd282 O292 2.297 . S
Cd282 O293 2.439 . S
O283 Cd282 2.240 . S
O283 C288 1.279 . S
O284 Cd281 2.297 . S
O284 C286 1.247 . S
O285 Cd281 2.439 . S
O285 C286 1.208 . S
C286 O284 1.247 . S
C286 O285 1.208 . S
C287 O292 1.247 . S
C287 O293 1.208 . S
C288 O280 1.315 . S
C288 O283 1.279 . S
C289 O290 1.315 . S
C289 O291 1.279 . S
O290 Cd282 2.223 . S
O290 C289 1.315 . S
O291 Cd281 2.240 . S
O291 C289 1.279 . S
O292 Cd282 2.297 . S
O292 C287 1.247 . S
O293 Cd282 2.439 . S
O293 C287 1.208 . S
O294 Cd295 2.223 . S
O294 C302 1.315 . S
Cd295 O294 2.223 . S
Cd295 O298 2.297 . S
Cd295 O299 2.439 . S
Cd295 O305 2.240 . S
Cd296 O297 2.240 . S
Cd296 O304 2.223 . S
Cd296 O306 2.297 . S
Cd296 O307 2.439 . S
O297 Cd296 2.240 . S
O297 C302 1.279 . S
O298 Cd295 2.297 . S
O298 C300 1.247 . S
O299 Cd295 2.439 . S
O299 C300 1.208 . S
C300 O298 1.247 . S
C300 O299 1.208 . S
C301 O306 1.247 . S
C301 O307 1.208 . S
C302 O294 1.315 . S
C302 O297 1.279 . S
C303 O304 1.315 . S
C303 O305 1.279 . S
O304 Cd296 2.223 . S
O304 C303 1.315 . S
O305 Cd295 2.240 . S
O305 C303 1.279 . S
O306 Cd296 2.297 . S
O306 C301 1.247 . S
O307 Cd296 2.439 . S
O307 C301 1.208 . S
O308 Cd309 2.223 . S
O308 C316 1.315 . S
Cd309 O308 2.223 . S
Cd309 O312 2.297 . S
Cd309 O313 2.439 . S
Cd309 O319 2.240 . S
Cd310 O311 2.240 . S
Cd310 O318 2.223 . S
Cd310 O320 2.297 . S
Cd310 O321 2.439 . S
O311 Cd310 2.240 . S
O311 C316 1.279 . S
O312 Cd309 2.297 . S
O312 C314 1.247 . S
O313 Cd309 2.439 . S
O313 C314 1.208 . S
C314 O312 1.247 . S
C314 O313 1.208 . S
C315 O320 1.247 . S
C315 O321 1.208 . S
C316 O308 1.315 . S
C316 O311 1.279 . S
C317 O318 1.315 . S
C317 O319 1.279 . S
O318 Cd310 2.223 . S
O318 C317 1.315 . S
O319 Cd309 2.240 . S
O319 C317 1.279 . S
O320 Cd310 2.297 . S
O320 C315 1.247 . S
O321 Cd310 2.439 . S
O321 C315 1.208 . S
O322 Cd323 2.223 . S
O322 C330 1.315 . S
Cd323 O322 2.223 . S
Cd323 O326 2.297 . S
Cd323 O327 2.439 . S
Cd323 O333 2.240 . S
Cd324 O325 2.240 . S
Cd324 O332 2.223 . S
Cd324 O334 2.297 . S
Cd324 O335 2.439 . S
O325 Cd324 2.240 . S
O325 C330 1.279 . S
O326 Cd323 2.297 . S
O326 C328 1.247 . S
O327 Cd323 2.439 . S
O327 C328 1.208 . S
C328 O326 1.247 . S
C328 O327 1.208 . S
C329 O334 1.247 . S
C329 O335 1.208 . S
C330 O322 1.315 . S
C330 O325 1.279 . S
C331 O332 1.315 . S
C331 O333 1.279 . S
O332 Cd324 2.223 . S
O332 C331 1.315 . S
O333 Cd323 2.240 . S
O333 C331 1.279 . S
O334 Cd324 2.297 . S
O334 C329 1.247 . S
O335 Cd324 2.439 . S
O335 C329 1.208 . S
O336 Cd337 2.223 . S
O336 C344 1.315 . S
Cd337 O336 2.223 . S
Cd337 O340 2.297 . S
Cd337 O341 2.439 . S
Cd337 O347 2.240 . S
Cd338 O339 2.240 . S
Cd338 O346 2.223 . S
Cd338 O348 2.297 . S
Cd338 O349 2.439 . S
O339 Cd338 2.240 . S
O339 C344 1.279 . S
O340 Cd337 2.297 . S
O340 C342 1.247 . S
O341 Cd337 2.439 . S
O341 C342 1.208 . S
C342 O340 1.247 . S
C342 O341 1.208 . S
C343 O348 1.247 . S
C343 O349 1.208 . S
C344 O336 1.315 . S
C344 O339 1.279 . S
C345 O346 1.315 . S
C345 O347 1.279 . S
O346 Cd338 2.223 . S
O346 C345 1.315 . S
O347 Cd337 2.240 . S
O347 C345 1.279 . S
O348 Cd338 2.297 . S
O348 C343 1.247 . S
O349 Cd338 2.439 . S
O349 C343 1.208 . S
O350 Cd351 2.223 . S
O350 C358 1.315 . S
Cd351 O350 2.223 . S
Cd351 O354 2.297 . S
Cd351 O355 2.439 . S
Cd351 O361 2.240 . S
Cd352 O353 2.240 . S
Cd352 O360 2.223 . S
Cd352 O362 2.297 . S
Cd352 O363 2.439 . S
O353 Cd352 2.240 . S
O353 C358 1.279 . S
O354 Cd351 2.297 . S
O354 C356 1.247 . S
O355 Cd351 2.439 . S
O355 C356 1.208 . S
C356 O354 1.247 . S
C356 O355 1.208 . S
C357 O362 1.247 . S
C357 O363 1.208 . S
C358 O350 1.315 . S
C358 O353 1.279 . S
C359 O360 1.315 . S
C359 O361 1.279 . S
O360 Cd352 2.223 . S
O360 C359 1.315 . S
O361 Cd351 2.240 . S
O361 C359 1.279 . S
O362 Cd352 2.297 . S
O362 C357 1.247 . S
O363 Cd352 2.439 . S
O363 C357 1.208 . S
O364 Cd365 2.223 . S
O364 C372 1.315 . S
Cd365 O364 2.223 . S
Cd365 O368 2.297 . S
Cd365 O369 2.439 . S
Cd365 O375 2.240 . S
Cd366 O367 2.240 . S
Cd366 O374 2.223 . S
Cd366 O376 2.297 . S
Cd366 O377 2.439 . S
O367 Cd366 2.240 . S
O367 C372 1.279 . S
O368 Cd365 2.297 . S
O368 C370 1.247 . S
O369 Cd365 2.439 . S
O369 C370 1.208 . S
C370 O368 1.247 . S
C370 O369 1.208 . S
C371 O376 1.247 . S
C371 O377 1.208 . S
C372 O364 1.315 . S
C372 O367 1.279 . S
C373 O374 1.315 . S
C373 O375 1.279 . S
O374 Cd366 2.223 . S
O374 C373 1.315 . S
O375 Cd365 2.240 . S
O375 C373 1.279 . S
O376 Cd366 2.297 . S
O376 C371 1.247 . S
O377 Cd366 2.439 . S
O377 C371 1.208 . S
O378 Cd379 2.223 . S
O378 C386 1.315 . S
Cd379 O378 2.223 . S
Cd379 O382 2.297 . S
Cd379 O383 2.439 . S
Cd379 O389 2.240 . S
Cd380 O381 2.240 . S
Cd380 O388 2.223 . S
Cd380 O390 2.297 . S
Cd380 O391 2.439 . S
O381 Cd380 2.240 . S
O381 C386 1.279 . S
O382 Cd379 2.297 . S
O382 C384 1.247 . S
O383 Cd379 2.439 . S
O383 C384 1.208 . S
C384 O382 1.247 . S
C384 O383 1.208 . S
C385 O390 1.247 . S
C385 O391 1.208 . S
C386 O378 1.315 . S
C386 O381 1.279 . S
C387 O388 1.315 . S
C387 O389 1.279 . S
O388 Cd380 2.223 . S
O388 C387 1.315 . S
O389 Cd379 2.240 . S
O389 C387 1.279 . S
O390 Cd380 2.297 . S
O390 C385 1.247 . S
O391 Cd380 2.439 . S
O391 C385 1.208 . S
O392 Cd393 2.223 . S
O392 C400 1.315 . S
Cd393 O392 2.223 . S
Cd393 O396 2.297 . S
Cd393 O397 2.439 . S
Cd393 O403 2.240 . S
Cd394 O395 2.240 . S
Cd394 O402 2.223 . S
Cd394 O404 2.297 . S
Cd394 O405 2.439 . S
O395 Cd394 2.240 . S
O395 C400 1.279 . S
O396 Cd393 2.297 . S
O396 C398 1.247 . S
O397 Cd393 2.439 . S
O397 C398 1.208 . S
C398 O396 1.247 . S
C398 O397 1.208 . S
C399 O404 1.247 . S
C399 O405 1.208 . S
C400 O392 1.315 . S
C400 O395 1.279 . S
C401 O402 1.315 . S
C401 O403 1.279 . S
O402 Cd394 2.223 . S
O402 C401 1.315 . S
O403 Cd393 2.240 . S
O403 C401 1.279 . S
O404 Cd394 2.297 . S
O404 C399 1.247 . S
O405 Cd394 2.439 . S
O405 C399 1.208 . S
O406 Cd407 2.223 . S
O406 C414 1.315 . S
Cd407 O406 2.223 . S
Cd407 O410 2.297 . S
Cd407 O411 2.439 . S
Cd407 O417 2.240 . S
Cd408 O409 2.240 . S
Cd408 O416 2.223 . S
Cd408 O418 2.297 . S
Cd408 O419 2.439 . S
O409 Cd408 2.240 . S
O409 C414 1.279 . S
O410 Cd407 2.297 . S
O410 C412 1.247 . S
O411 Cd407 2.439 . S
O411 C412 1.208 . S
C412 O410 1.247 . S
C412 O411 1.208 . S
C413 O418 1.247 . S
C413 O419 1.208 . S
C414 O406 1.315 . S
C414 O409 1.279 . S
C415 O416 1.315 . S
C415 O417 1.279 . S
O416 Cd408 2.223 . S
O416 C415 1.315 . S
O417 Cd407 2.240 . S
O417 C415 1.279 . S
O418 Cd408 2.297 . S
O418 C413 1.247 . S
O419 Cd408 2.439 . S
O419 C413 1.208 . S
O420 Cd421 2.223 . S
O420 C428 1.315 . S
Cd421 O420 2.223 . S
Cd421 O424 2.297 . S
Cd421 O425 2.439 . S
Cd421 O431 2.240 . S
Cd422 O423 2.240 . S
Cd422 O430 2.223 . S
Cd422 O432 2.297 . S
Cd422 O433 2.439 . S
O423 Cd422 2.240 . S
O423 C428 1.279 . S
O424 Cd421 2.297 . S
O424 C426 1.247 . S
O425 Cd421 2.439 . S
O425 C426 1.208 . S
C426 O424 1.247 . S
C426 O425 1.208 . S
C427 O432 1.247 . S
C427 O433 1.208 . S
C428 O420 1.315 . S
C428 O423 1.279 . S
C429 O430 1.315 . S
C429 O431 1.279 . S
O430 Cd422 2.223 . S
O430 C429 1.315 . S
O431 Cd421 2.240 . S
O431 C429 1.279 . S
O432 Cd422 2.297 . S
O432 C427 1.247 . S
O433 Cd422 2.439 . S
O433 C427 1.208 . S
O434 Cd435 2.223 . S
O434 C442 1.315 . S
Cd435 O434 2.223 . S
Cd435 O438 2.297 . S
Cd435 O439 2.439 . S
Cd435 O445 2.240 . S
Cd436 O437 2.240 . S
Cd436 O444 2.223 . S
Cd436 O446 2.297 . S
Cd436 O447 2.439 . S
O437 Cd436 2.240 . S
O437 C442 1.279 . S
O438 Cd435 2.297 . S
O438 C440 1.247 . S
O439 Cd435 2.439 . S
O439 C440 1.208 . S
C440 O438 1.247 . S
C440 O439 1.208 . S
C441 O446 1.247 . S
C441 O447 1.208 . S
C442 O434 1.315 . S
C442 O437 1.279 . S
C443 O444 1.315 . S
C443 O445 1.279 . S
O444 Cd436 2.223 . S
O444 C443 1.315 . S
O445 Cd435 2.240 . S
O445 C443 1.279 . S
O446 Cd436 2.297 . S
O446 C441 1.247 . S
O447 Cd436 2.439 . S
O447 C441 1.208 . S
C448 C449 1.349 . S
C448 C450 1.327 . S
C448 H473 0.950 . S
C449 C448 1.349 . S
C449 C465 1.349 . S
C450 C448 1.327 . S
C450 C469 1.429 . S
C450 H474 0.950 . S
C451 C468 1.574 . S
C451 C470 1.368 . S
C451 H475 0.949 . S
H452 C456 0.949 . S
C453 C454 1.349 . S
C453 C455 1.327 . S
C453 H476 0.950 . S
C454 C453 1.349 . S
C454 C466 1.349 . S
C455 C453 1.327 . S
C455 C471 1.429 . S
C455 H477 0.950 . S
C456 H452 0.949 . S
C456 C464 1.574 . S
C456 C472 1.368 . S
H457 C465 0.950 . S
H458 C463 0.950 . S
H459 C464 0.949 . S
H460 C466 0.950 . S
H461 C467 0.950 . S
H462 C468 0.949 . S
C463 H458 0.950 . S
C463 C465 1.327 . S
C463 C469 1.429 . S
C464 C456 1.574 . S
C464 H459 0.949 . S
C464 C470 1.368 . S
C465 C449 1.349 . S
C465 H457 0.950 . S
C465 C463 1.327 . S
C466 C454 1.349 . S
C466 H460 0.950 . S
C466 C467 1.327 . S
C467 H461 0.950 . S
C467 C466 1.327 . S
C467 C471 1.429 . S
C468 C451 1.574 . S
C468 H462 0.949 . S
C468 C472 1.368 . S
C469 C450 1.429 . S
C469 C463 1.429 . S
C469 C470 1.523 . S
C470 C451 1.368 . S
C470 C464 1.368 . S
C470 C469 1.523 . S
C471 C455 1.429 . S
C471 C467 1.429 . S
C471 C472 1.523 . S
C472 C456 1.368 . S
C472 C468 1.368 . S
C472 C471 1.523 . S
H473 C448 0.950 . S
H474 C450 0.950 . S
H475 C451 0.949 . S
H476 C453 0.950 . S
H477 C455 0.950 . S
C478 C479 1.349 . S
C478 C480 1.327 . S
C478 H503 0.950 . S
C479 C478 1.349 . S
C479 C495 1.349 . S
C480 C478 1.327 . S
C480 C499 1.429 . S
C480 H504 0.950 . S
C481 C498 1.574 . S
C481 C500 1.368 . S
C481 H505 0.949 . S
H482 C486 0.949 . S
C483 C484 1.349 . S
C483 C485 1.327 . S
C483 H506 0.950 . S
C484 C483 1.349 . S
C484 C496 1.349 . S
C485 C483 1.327 . S
C485 C501 1.429 . S
C485 H507 0.950 . S
C486 H482 0.949 . S
C486 C494 1.574 . S
C486 C502 1.368 . S
H487 C495 0.950 . S
H488 C493 0.950 . S
H489 C494 0.949 . S
H490 C496 0.950 . S
H491 C497 0.950 . S
H492 C498 0.949 . S
C493 H488 0.950 . S
C493 C495 1.327 . S
C493 C499 1.429 . S
C494 C486 1.574 . S
C494 H489 0.949 . S
C494 C500 1.368 . S
C495 C479 1.349 . S
C495 H487 0.950 . S
C495 C493 1.327 . S
C496 C484 1.349 . S
C496 H490 0.950 . S
C496 C497 1.327 . S
C497 H491 0.950 . S
C497 C496 1.327 . S
C497 C501 1.429 . S
C498 C481 1.574 . S
C498 H492 0.949 . S
C498 C502 1.368 . S
C499 C480 1.429 . S
C499 C493 1.429 . S
C499 C500 1.523 . S
C500 C481 1.368 . S
C500 C494 1.368 . S
C500 C499 1.523 . S
C501 C485 1.429 . S
C501 C497 1.429 . S
C501 C502 1.523 . S
C502 C486 1.368 . S
C502 C498 1.368 . S
C502 C501 1.523 . S
H503 C478 0.950 . S
H504 C480 0.950 . S
H505 C481 0.949 . S
H506 C483 0.950 . S
H507 C485 0.950 . S
C508 C509 1.349 . S
C508 C510 1.327 . S
C508 H533 0.950 . S
C509 C508 1.349 . S
C509 C525 1.349 . S
C510 C508 1.327 . S
C510 C529 1.429 . S
C510 H534 0.950 . S
C511 C528 1.574 . S
C511 C530 1.368 . S
C511 H535 0.949 . S
H512 C516 0.949 . S
C513 C514 1.349 . S
C513 C515 1.327 . S
C513 H536 0.950 . S
C514 C513 1.349 . S
C514 C526 1.349 . S
C515 C513 1.327 . S
C515 C531 1.429 . S
C515 H537 0.950 . S
C516 H512 0.949 . S
C516 C524 1.574 . S
C516 C532 1.368 . S
H517 C525 0.950 . S
H518 C523 0.950 . S
H519 C524 0.949 . S
H520 C526 0.950 . S
H521 C527 0.950 . S
H522 C528 0.949 . S
C523 H518 0.950 . S
C523 C525 1.327 . S
C523 C529 1.429 . S
C524 C516 1.574 . S
C524 H519 0.949 . S
C524 C530 1.368 . S
C525 C509 1.349 . S
C525 H517 0.950 . S
C525 C523 1.327 . S
C526 C514 1.349 . S
C526 H520 0.950 . S
C526 C527 1.327 . S
C527 H521 0.950 . S
C527 C526 1.327 . S
C527 C531 1.429 . S
C528 C511 1.574 . S
C528 H522 0.949 . S
C528 C532 1.368 . S
C529 C510 1.429 . S
C529 C523 1.429 . S
C529 C530 1.523 . S
C530 C511 1.368 . S
C530 C524 1.368 . S
C530 C529 1.523 . S
C531 C515 1.429 . S
C531 C527 1.429 . S
C531 C532 1.523 . S
C532 C516 1.368 . S
C532 C528 1.368 . S
C532 C531 1.523 . S
H533 C508 0.950 . S
H534 C510 0.950 . S
H535 C511 0.949 . S
H536 C513 0.950 . S
H537 C515 0.950 . S
C538 C539 1.349 . S
C538 C540 1.327 . S
C538 H563 0.950 . S
C539 C538 1.349 . S
C539 C555 1.349 . S
C540 C538 1.327 . S
C540 C559 1.429 . S
C540 H564 0.950 . S
C541 C558 1.574 . S
C541 C560 1.368 . S
C541 H565 0.949 . S
H542 C546 0.949 . S
C543 C544 1.349 . S
C543 C545 1.327 . S
C543 H566 0.950 . S
C544 C543 1.349 . S
C544 C556 1.349 . S
C545 C543 1.327 . S
C545 C561 1.429 . S
C545 H567 0.950 . S
C546 H542 0.949 . S
C546 C554 1.574 . S
C546 C562 1.368 . S
H547 C555 0.950 . S
H548 C553 0.950 . S
H549 C554 0.949 . S
H550 C556 0.950 . S
H551 C557 0.950 . S
H552 C558 0.949 . S
C553 H548 0.950 . S
C553 C555 1.327 . S
C553 C559 1.429 . S
C554 C546 1.574 . S
C554 H549 0.949 . S
C554 C560 1.368 . S
C555 C539 1.349 . S
C555 H547 0.950 . S
C555 C553 1.327 . S
C556 C544 1.349 . S
C556 H550 0.950 . S
C556 C557 1.327 . S
C557 H551 0.950 . S
C557 C556 1.327 . S
C557 C561 1.429 . S
C558 C541 1.574 . S
C558 H552 0.949 . S
C558 C562 1.368 . S
C559 C540 1.429 . S
C559 C553 1.429 . S
C559 C560 1.523 . S
C560 C541 1.368 . S
C560 C554 1.368 . S
C560 C559 1.523 . S
C561 C545 1.429 . S
C561 C557 1.429 . S
C561 C562 1.523 . S
C562 C546 1.368 . S
C562 C558 1.368 . S
C562 C561 1.523 . S
H563 C538 0.950 . S
H564 C540 0.950 . S
H565 C541 0.949 . S
H566 C543 0.950 . S
H567 C545 0.950 . S
C568 C569 1.349 . S
C568 C570 1.327 . S
C568 H593 0.950 . S
C569 C568 1.349 . S
C569 C585 1.349 . S
C570 C568 1.327 . S
C570 C589 1.429 . S
C570 H594 0.950 . S
C571 C588 1.574 . S
C571 C590 1.368 . S
C571 H595 0.949 . S
H572 C576 0.949 . S
C573 C574 1.349 . S
C573 C575 1.327 . S
C573 H596 0.950 . S
C574 C573 1.349 . S
C574 C586 1.349 . S
C575 C573 1.327 . S
C575 C591 1.429 . S
C575 H597 0.950 . S
C576 H572 0.949 . S
C576 C584 1.574 . S
C576 C592 1.368 . S
H577 C585 0.950 . S
H578 C583 0.950 . S
H579 C584 0.949 . S
H580 C586 0.950 . S
H581 C587 0.950 . S
H582 C588 0.949 . S
C583 H578 0.950 . S
C583 C585 1.327 . S
C583 C589 1.429 . S
C584 C576 1.574 . S
C584 H579 0.949 . S
C584 C590 1.368 . S
C585 C569 1.349 . S
C585 H577 0.950 . S
C585 C583 1.327 . S
C586 C574 1.349 . S
C586 H580 0.950 . S
C586 C587 1.327 . S
C587 H581 0.950 . S
C587 C586 1.327 . S
C587 C591 1.429 . S
C588 C571 1.574 . S
C588 H582 0.949 . S
C588 C592 1.368 . S
C589 C570 1.429 . S
C589 C583 1.429 . S
C589 C590 1.523 . S
C590 C571 1.368 . S
C590 C584 1.368 . S
C590 C589 1.523 . S
C591 C575 1.429 . S
C591 C587 1.429 . S
C591 C592 1.523 . S
C592 C576 1.368 . S
C592 C588 1.368 . S
C592 C591 1.523 . S
H593 C568 0.950 . S
H594 C570 0.950 . S
H595 C571 0.949 . S
H596 C573 0.950 . S
H597 C575 0.950 . S
C598 C599 1.349 . S
C598 C600 1.327 . S
C598 H623 0.950 . S
C599 C598 1.349 . S
C599 C615 1.349 . S
C600 C598 1.327 . S
C600 C619 1.429 . S
C600 H624 0.950 . S
C601 C618 1.574 . S
C601 C620 1.368 . S
C601 H625 0.949 . S
H602 C606 0.949 . S
C603 C604 1.349 . S
C603 C605 1.327 . S
C603 H626 0.950 . S
C604 C603 1.349 . S
C604 C616 1.349 . S
C605 C603 1.327 . S
C605 C621 1.429 . S
C605 H627 0.950 . S
C606 H602 0.949 . S
C606 C614 1.574 . S
C606 C622 1.368 . S
H607 C615 0.950 . S
H608 C613 0.950 . S
H609 C614 0.949 . S
H610 C616 0.950 . S
H611 C617 0.950 . S
H612 C618 0.949 . S
C613 H608 0.950 . S
C613 C615 1.327 . S
C613 C619 1.429 . S
C614 C606 1.574 . S
C614 H609 0.949 . S
C614 C620 1.368 . S
C615 C599 1.349 . S
C615 H607 0.950 . S
C615 C613 1.327 . S
C616 C604 1.349 . S
C616 H610 0.950 . S
C616 C617 1.327 . S
C617 H611 0.950 . S
C617 C616 1.327 . S
C617 C621 1.429 . S
C618 C601 1.574 . S
C618 H612 0.949 . S
C618 C622 1.368 . S
C619 C600 1.429 . S
C619 C613 1.429 . S
C619 C620 1.523 . S
C620 C601 1.368 . S
C620 C614 1.368 . S
C620 C619 1.523 . S
C621 C605 1.429 . S
C621 C617 1.429 . S
C621 C622 1.523 . S
C622 C606 1.368 . S
C622 C618 1.368 . S
C622 C621 1.523 . S
H623 C598 0.950 . S
H624 C600 0.950 . S
H625 C601 0.949 . S
H626 C603 0.950 . S
H627 C605 0.950 . S
C628 C629 1.349 . S
C628 C630 1.327 . S
C628 H653 0.950 . S
C629 C628 1.349 . S
C629 C645 1.349 . S
C630 C628 1.327 . S
C630 C649 1.429 . S
C630 H654 0.950 . S
C631 C648 1.574 . S
C631 C650 1.368 . S
C631 H655 0.949 . S
H632 C636 0.949 . S
C633 C634 1.349 . S
C633 C635 1.327 . S
C633 H656 0.950 . S
C634 C633 1.349 . S
C634 C646 1.349 . S
C635 C633 1.327 . S
C635 C651 1.429 . S
C635 H657 0.950 . S
C636 H632 0.949 . S
C636 C644 1.574 . S
C636 C652 1.368 . S
H637 C645 0.950 . S
H638 C643 0.950 . S
H639 C644 0.949 . S
H640 C646 0.950 . S
H641 C647 0.950 . S
H642 C648 0.949 . S
C643 H638 0.950 . S
C643 C645 1.327 . S
C643 C649 1.429 . S
C644 C636 1.574 . S
C644 H639 0.949 . S
C644 C650 1.368 . S
C645 C629 1.349 . S
C645 H637 0.950 . S
C645 C643 1.327 . S
C646 C634 1.349 . S
C646 H640 0.950 . S
C646 C647 1.327 . S
C647 H641 0.950 . S
C647 C646 1.327 . S
C647 C651 1.429 . S
C648 C631 1.574 . S
C648 H642 0.949 . S
C648 C652 1.368 . S
C649 C630 1.429 . S
C649 C643 1.429 . S
C649 C650 1.523 . S
C650 C631 1.368 . S
C650 C644 1.368 . S
C650 C649 1.523 . S
C651 C635 1.429 . S
C651 C647 1.429 . S
C651 C652 1.523 . S
C652 C636 1.368 . S
C652 C648 1.368 . S
C652 C651 1.523 . S
H653 C628 0.950 . S
H654 C630 0.950 . S
H655 C631 0.949 . S
H656 C633 0.950 . S
H657 C635 0.950 . S
C658 C659 1.349 . S
C658 C660 1.327 . S
C658 H683 0.950 . S
C659 C658 1.349 . S
C659 C675 1.349 . S
C660 C658 1.327 . S
C660 C679 1.429 . S
C660 H684 0.950 . S
C661 C678 1.574 . S
C661 C680 1.368 . S
C661 H685 0.949 . S
H662 C666 0.949 . S
C663 C664 1.349 . S
C663 C665 1.327 . S
C663 H686 0.950 . S
C664 C663 1.349 . S
C664 C676 1.349 . S
C665 C663 1.327 . S
C665 C681 1.429 . S
C665 H687 0.950 . S
C666 H662 0.949 . S
C666 C674 1.574 . S
C666 C682 1.368 . S
H667 C675 0.950 . S
H668 C673 0.950 . S
H669 C674 0.949 . S
H670 C676 0.950 . S
H671 C677 0.950 . S
H672 C678 0.949 . S
C673 H668 0.950 . S
C673 C675 1.327 . S
C673 C679 1.429 . S
C674 C666 1.574 . S
C674 H669 0.949 . S
C674 C680 1.368 . S
C675 C659 1.349 . S
C675 H667 0.950 . S
C675 C673 1.327 . S
C676 C664 1.349 . S
C676 H670 0.950 . S
C676 C677 1.327 . S
C677 H671 0.950 . S
C677 C676 1.327 . S
C677 C681 1.429 . S
C678 C661 1.574 . S
C678 H672 0.949 . S
C678 C682 1.368 . S
C679 C660 1.429 . S
C679 C673 1.429 . S
C679 C680 1.523 . S
C680 C661 1.368 . S
C680 C674 1.368 . S
C680 C679 1.523 . S
C681 C665 1.429 . S
C681 C677 1.429 . S
C681 C682 1.523 . S
C682 C666 1.368 . S
C682 C678 1.368 . S
C682 C681 1.523 . S
H683 C658 0.950 . S
H684 C660 0.950 . S
H685 C661 0.949 . S
H686 C663 0.950 . S
H687 C665 0.950 . S
C688 C689 1.349 . S
C688 C690 1.327 . S
C688 H713 0.950 . S
C689 C688 1.349 . S
C689 C705 1.349 . S
C690 C688 1.327 . S
C690 C709 1.429 . S
C690 H714 0.950 . S
C691 C708 1.574 . S
C691 C710 1.368 . S
C691 H715 0.949 . S
H692 C696 0.949 . S
C693 C694 1.349 . S
C693 C695 1.327 . S
C693 H716 0.950 . S
C694 C693 1.349 . S
C694 C706 1.349 . S
C695 C693 1.327 . S
C695 C711 1.429 . S
C695 H717 0.950 . S
C696 H692 0.949 . S
C696 C704 1.574 . S
C696 C712 1.368 . S
H697 C705 0.950 . S
H698 C703 0.950 . S
H699 C704 0.949 . S
H700 C706 0.950 . S
H701 C707 0.950 . S
H702 C708 0.949 . S
C703 H698 0.950 . S
C703 C705 1.327 . S
C703 C709 1.429 . S
C704 C696 1.574 . S
C704 H699 0.949 . S
C704 C710 1.368 . S
C705 C689 1.349 . S
C705 H697 0.950 . S
C705 C703 1.327 . S
C706 C694 1.349 . S
C706 H700 0.950 . S
C706 C707 1.327 . S
C707 H701 0.950 . S
C707 C706 1.327 . S
C707 C711 1.429 . S
C708 C691 1.574 . S
C708 H702 0.949 . S
C708 C712 1.368 . S
C709 C690 1.429 . S
C709 C703 1.429 . S
C709 C710 1.523 . S
C710 C691 1.368 . S
C710 C704 1.368 . S
C710 C709 1.523 . S
C711 C695 1.429 . S
C711 C707 1.429 . S
C711 C712 1.523 . S
C712 C696 1.368 . S
C712 C708 1.368 . S
C712 C711 1.523 . S
H713 C688 0.950 . S
H714 C690 0.950 . S
H715 C691 0.949 . S
H716 C693 0.950 . S
H717 C695 0.950 . S
C718 C719 1.349 . S
C718 C720 1.327 . S
C718 H743 0.950 . S
C719 C718 1.349 . S
C719 C735 1.349 . S
C720 C718 1.327 . S
C720 C739 1.429 . S
C720 H744 0.950 . S
C721 C738 1.574 . S
C721 C740 1.368 . S
C721 H745 0.949 . S
H722 C726 0.949 . S
C723 C724 1.349 . S
C723 C725 1.327 . S
C723 H746 0.950 . S
C724 C723 1.349 . S
C724 C736 1.349 . S
C725 C723 1.327 . S
C725 C741 1.429 . S
C725 H747 0.950 . S
C726 H722 0.949 . S
C726 C734 1.574 . S
C726 C742 1.368 . S
H727 C735 0.950 . S
H728 C733 0.950 . S
H729 C734 0.949 . S
H730 C736 0.950 . S
H731 C737 0.950 . S
H732 C738 0.949 . S
C733 H728 0.950 . S
C733 C735 1.327 . S
C733 C739 1.429 . S
C734 C726 1.574 . S
C734 H729 0.949 . S
C734 C740 1.368 . S
C735 C719 1.349 . S
C735 H727 0.950 . S
C735 C733 1.327 . S
C736 C724 1.349 . S
C736 H730 0.950 . S
C736 C737 1.327 . S
C737 H731 0.950 . S
C737 C736 1.327 . S
C737 C741 1.429 . S
C738 C721 1.574 . S
C738 H732 0.949 . S
C738 C742 1.368 . S
C739 C720 1.429 . S
C739 C733 1.429 . S
C739 C740 1.523 . S
C740 C721 1.368 . S
C740 C734 1.368 . S
C740 C739 1.523 . S
C741 C725 1.429 . S
C741 C737 1.429 . S
C741 C742 1.523 . S
C742 C726 1.368 . S
C742 C738 1.368 . S
C742 C741 1.523 . S
H743 C718 0.950 . S
H744 C720 0.950 . S
H745 C721 0.949 . S
H746 C723 0.950 . S
H747 C725 0.950 . S
C748 C749 1.349 . S
C748 C750 1.327 . S
C748 H773 0.950 . S
C749 C748 1.349 . S
C749 C765 1.349 . S
C750 C748 1.327 . S
C750 C769 1.429 . S
C750 H774 0.950 . S
C751 C768 1.574 . S
C751 C770 1.368 . S
C751 H775 0.949 . S
H752 C756 0.949 . S
C753 C754 1.349 . S
C753 C755 1.327 . S
C753 H776 0.950 . S
C754 C753 1.349 . S
C754 C766 1.349 . S
C755 C753 1.327 . S
C755 C771 1.429 . S
C755 H777 0.950 . S
C756 H752 0.949 . S
C756 C764 1.574 . S
C756 C772 1.368 . S
H757 C765 0.950 . S
H758 C763 0.950 . S
H759 C764 0.949 . S
H760 C766 0.950 . S
H761 C767 0.950 . S
H762 C768 0.949 . S
C763 H758 0.950 . S
C763 C765 1.327 . S
C763 C769 1.429 . S
C764 C756 1.574 . S
C764 H759 0.949 . S
C764 C770 1.368 . S
C765 C749 1.349 . S
C765 H757 0.950 . S
C765 C763 1.327 . S
C766 C754 1.349 . S
C766 H760 0.950 . S
C766 C767 1.327 . S
C767 H761 0.950 . S
C767 C766 1.327 . S
C767 C771 1.429 . S
C768 C751 1.574 . S
C768 H762 0.949 . S
C768 C772 1.368 . S
C769 C750 1.429 . S
C769 C763 1.429 . S
C769 C770 1.523 . S
C770 C751 1.368 . S
C770 C764 1.368 . S
C770 C769 1.523 . S
C771 C755 1.429 . S
C771 C767 1.429 . S
C771 C772 1.523 . S
C772 C756 1.368 . S
C772 C768 1.368 . S
C772 C771 1.523 . S
H773 C748 0.950 . S
H774 C750 0.950 . S
H775 C751 0.949 . S
H776 C753 0.950 . S
H777 C755 0.950 . S
C778 C779 1.349 . S
C778 C780 1.327 . S
C778 H803 0.950 . S
C779 C778 1.349 . S
C779 C795 1.349 . S
C780 C778 1.327 . S
C780 C799 1.429 . S
C780 H804 0.950 . S
C781 C798 1.574 . S
C781 C800 1.368 . S
C781 H805 0.949 . S
H782 C786 0.949 . S
C783 C784 1.349 . S
C783 C785 1.327 . S
C783 H806 0.950 . S
C784 C783 1.349 . S
C784 C796 1.349 . S
C785 C783 1.327 . S
C785 C801 1.429 . S
C785 H807 0.950 . S
C786 H782 0.949 . S
C786 C794 1.574 . S
C786 C802 1.368 . S
H787 C795 0.950 . S
H788 C793 0.950 . S
H789 C794 0.949 . S
H790 C796 0.950 . S
H791 C797 0.950 . S
H792 C798 0.949 . S
C793 H788 0.950 . S
C793 C795 1.327 . S
C793 C799 1.429 . S
C794 C786 1.574 . S
C794 H789 0.949 . S
C794 C800 1.368 . S
C795 C779 1.349 . S
C795 H787 0.950 . S
C795 C793 1.327 . S
C796 C784 1.349 . S
C796 H790 0.950 . S
C796 C797 1.327 . S
C797 H791 0.950 . S
C797 C796 1.327 . S
C797 C801 1.429 . S
C798 C781 1.574 . S
C798 H792 0.949 . S
C798 C802 1.368 . S
C799 C780 1.429 . S
C799 C793 1.429 . S
C799 C800 1.523 . S
C800 C781 1.368 . S
C800 C794 1.368 . S
C800 C799 1.523 . S
C801 C785 1.429 . S
C801 C797 1.429 . S
C801 C802 1.523 . S
C802 C786 1.368 . S
C802 C798 1.368 . S
C802 C801 1.523 . S
H803 C778 0.950 . S
H804 C780 0.950 . S
H805 C781 0.949 . S
H806 C783 0.950 . S
H807 C785 0.950 . S
C808 C809 1.349 . S
C808 C810 1.327 . S
C808 H833 0.950 . S
C809 C808 1.349 . S
C809 C825 1.349 . S
C810 C808 1.327 . S
C810 C829 1.429 . S
C810 H834 0.950 . S
C811 C828 1.574 . S
C811 C830 1.368 . S
C811 H835 0.949 . S
H812 C816 0.949 . S
C813 C814 1.349 . S
C813 C815 1.327 . S
C813 H836 0.950 . S
C814 C813 1.349 . S
C814 C826 1.349 . S
C815 C813 1.327 . S
C815 C831 1.429 . S
C815 H837 0.950 . S
C816 H812 0.949 . S
C816 C824 1.574 . S
C816 C832 1.368 . S
H817 C825 0.950 . S
H818 C823 0.950 . S
H819 C824 0.949 . S
H820 C826 0.950 . S
H821 C827 0.950 . S
H822 C828 0.949 . S
C823 H818 0.950 . S
C823 C825 1.327 . S
C823 C829 1.429 . S
C824 C816 1.574 . S
C824 H819 0.949 . S
C824 C830 1.368 . S
C825 C809 1.349 . S
C825 H817 0.950 . S
C825 C823 1.327 . S
C826 C814 1.349 . S
C826 H820 0.950 . S
C826 C827 1.327 . S
C827 H821 0.950 . S
C827 C826 1.327 . S
C827 C831 1.429 . S
C828 C811 1.574 . S
C828 H822 0.949 . S
C828 C832 1.368 . S
C829 C810 1.429 . S
C829 C823 1.429 . S
C829 C830 1.523 . S
C830 C811 1.368 . S
C830 C824 1.368 . S
C830 C829 1.523 . S
C831 C815 1.429 . S
C831 C827 1.429 . S
C831 C832 1.523 . S
C832 C816 1.368 . S
C832 C828 1.368 . S
C832 C831 1.523 . S
H833 C808 0.950 . S
H834 C810 0.950 . S
H835 C811 0.949 . S
H836 C813 0.950 . S
H837 C815 0.950 . S
C838 C839 1.349 . S
C838 C840 1.327 . S
C838 H863 0.950 . S
C839 C838 1.349 . S
C839 C855 1.349 . S
C840 C838 1.327 . S
C840 C859 1.429 . S
C840 H864 0.950 . S
C841 C858 1.574 . S
C841 C860 1.368 . S
C841 H865 0.949 . S
H842 C846 0.949 . S
C843 C844 1.349 . S
C843 C845 1.327 . S
C843 H866 0.950 . S
C844 C843 1.349 . S
C844 C856 1.349 . S
C845 C843 1.327 . S
C845 C861 1.429 . S
C845 H867 0.950 . S
C846 H842 0.949 . S
C846 C854 1.574 . S
C846 C862 1.368 . S
H847 C855 0.950 . S
H848 C853 0.950 . S
H849 C854 0.949 . S
H850 C856 0.950 . S
H851 C857 0.950 . S
H852 C858 0.949 . S
C853 H848 0.950 . S
C853 C855 1.327 . S
C853 C859 1.429 . S
C854 C846 1.574 . S
C854 H849 0.949 . S
C854 C860 1.368 . S
C855 C839 1.349 . S
C855 H847 0.950 . S
C855 C853 1.327 . S
C856 C844 1.349 . S
C856 H850 0.950 . S
C856 C857 1.327 . S
C857 H851 0.950 . S
C857 C856 1.327 . S
C857 C861 1.429 . S
C858 C841 1.574 . S
C858 H852 0.949 . S
C858 C862 1.368 . S
C859 C840 1.429 . S
C859 C853 1.429 . S
C859 C860 1.523 . S
C860 C841 1.368 . S
C860 C854 1.368 . S
C860 C859 1.523 . S
C861 C845 1.429 . S
C861 C857 1.429 . S
C861 C862 1.523 . S
C862 C846 1.368 . S
C862 C858 1.368 . S
C862 C861 1.523 . S
H863 C838 0.950 . S
H864 C840 0.950 . S
H865 C841 0.949 . S
H866 C843 0.950 . S
H867 C845 0.950 . S
C868 C869 1.349 . S
C868 C870 1.327 . S
C868 H893 0.950 . S
C869 C868 1.349 . S
C869 C885 1.349 . S
C870 C868 1.327 . S
C870 C889 1.429 . S
C870 H894 0.950 . S
C871 C888 1.574 . S
C871 C890 1.368 . S
C871 H895 0.949 . S
H872 C876 0.949 . S
C873 C874 1.349 . S
C873 C875 1.327 . S
C873 H896 0.950 . S
C874 C873 1.349 . S
C874 C886 1.349 . S
C875 C873 1.327 . S
C875 C891 1.429 . S
C875 H897 0.950 . S
C876 H872 0.949 . S
C876 C884 1.574 . S
C876 C892 1.368 . S
H877 C885 0.950 . S
H878 C883 0.950 . S
H879 C884 0.949 . S
H880 C886 0.950 . S
H881 C887 0.950 . S
H882 C888 0.949 . S
C883 H878 0.950 . S
C883 C885 1.327 . S
C883 C889 1.429 . S
C884 C876 1.574 . S
C884 H879 0.949 . S
C884 C890 1.368 . S
C885 C869 1.349 . S
C885 H877 0.950 . S
C885 C883 1.327 . S
C886 C874 1.349 . S
C886 H880 0.950 . S
C886 C887 1.327 . S
C887 H881 0.950 . S
C887 C886 1.327 . S
C887 C891 1.429 . S
C888 C871 1.574 . S
C888 H882 0.949 . S
C888 C892 1.368 . S
C889 C870 1.429 . S
C889 C883 1.429 . S
C889 C890 1.523 . S
C890 C871 1.368 . S
C890 C884 1.368 . S
C890 C889 1.523 . S
C891 C875 1.429 . S
C891 C887 1.429 . S
C891 C892 1.523 . S
C892 C876 1.368 . S
C892 C888 1.368 . S
C892 C891 1.523 . S
H893 C868 0.950 . S
H894 C870 0.950 . S
H895 C871 0.949 . S
H896 C873 0.950 . S
H897 C875 0.950 . S
C898 C899 1.349 . S
C898 C900 1.327 . S
C898 H923 0.950 . S
C899 C898 1.349 . S
C899 C915 1.349 . S
C900 C898 1.327 . S
C900 C919 1.429 . S
C900 H924 0.950 . S
C901 C918 1.574 . S
C901 C920 1.368 . S
C901 H925 0.949 . S
H902 C906 0.949 . S
C903 C904 1.349 . S
C903 C905 1.327 . S
C903 H926 0.950 . S
C904 C903 1.349 . S
C904 C916 1.349 . S
C905 C903 1.327 . S
C905 C921 1.429 . S
C905 H927 0.950 . S
C906 H902 0.949 . S
C906 C914 1.574 . S
C906 C922 1.368 . S
H907 C915 0.950 . S
H908 C913 0.950 . S
H909 C914 0.949 . S
H910 C916 0.950 . S
H911 C917 0.950 . S
H912 C918 0.949 . S
C913 H908 0.950 . S
C913 C915 1.327 . S
C913 C919 1.429 . S
C914 C906 1.574 . S
C914 H909 0.949 . S
C914 C920 1.368 . S
C915 C899 1.349 . S
C915 H907 0.950 . S
C915 C913 1.327 . S
C916 C904 1.349 . S
C916 H910 0.950 . S
C916 C917 1.327 . S
C917 H911 0.950 . S
C917 C916 1.327 . S
C917 C921 1.429 . S
C918 C901 1.574 . S
C918 H912 0.949 . S
C918 C922 1.368 . S
C919 C900 1.429 . S
C919 C913 1.429 . S
C919 C920 1.523 . S
C920 C901 1.368 . S
C920 C914 1.368 . S
C920 C919 1.523 . S
C921 C905 1.429 . S
C921 C917 1.429 . S
C921 C922 1.523 . S
C922 C906 1.368 . S
C922 C918 1.368 . S
C922 C921 1.523 . S
H923 C898 0.950 . S
H924 C900 0.950 . S
H925 C901 0.949 . S
H926 C903 0.950 . S
H927 C905 0.950 . S
C928 C929 1.349 . S
C928 C930 1.327 . S
C928 H953 0.950 . S
C929 C928 1.349 . S
C929 C945 1.349 . S
C930 C928 1.327 . S
C930 C949 1.429 . S
C930 H954 0.950 . S
C931 C948 1.574 1_554 S
C931 C950 1.368 . S
C931 H955 0.949 . S
H932 C936 0.949 . S
C933 C934 1.349 . S
C933 C935 1.327 . S
C933 H956 0.950 . S
C934 C933 1.349 . S
C934 C946 1.349 . S
C935 C933 1.327 . S
C935 C951 1.429 . S
C935 H957 0.950 . S
C936 H932 0.949 . S
C936 C944 1.574 1_556 S
C936 C952 1.368 . S
H937 C945 0.950 . S
H938 C943 0.950 . S
H939 C944 0.949 . S
H940 C946 0.950 . S
H941 C947 0.950 . S
H942 C948 0.949 . S
C943 H938 0.950 . S
C943 C945 1.327 . S
C943 C949 1.429 . S
C944 C936 1.574 1_554 S
C944 H939 0.949 . S
C944 C950 1.368 . S
C945 C929 1.349 . S
C945 H937 0.950 . S
C945 C943 1.327 . S
C946 C934 1.349 . S
C946 H940 0.950 . S
C946 C947 1.327 . S
C947 H941 0.950 . S
C947 C946 1.327 . S
C947 C951 1.429 . S
C948 C931 1.574 1_556 S
C948 H942 0.949 . S
C948 C952 1.368 . S
C949 C930 1.429 . S
C949 C943 1.429 . S
C949 C950 1.523 . S
C950 C931 1.368 . S
C950 C944 1.368 . S
C950 C949 1.523 . S
C951 C935 1.429 . S
C951 C947 1.429 . S
C951 C952 1.523 . S
C952 C936 1.368 . S
C952 C948 1.368 . S
C952 C951 1.523 . S
H953 C928 0.950 . S
H954 C930 0.950 . S
H955 C931 0.949 . S
H956 C933 0.950 . S
H957 C935 0.950 . S
C958 C959 1.349 . S
C958 C960 1.327 . S
C958 H983 0.950 . S
C959 C958 1.349 . S
C959 C975 1.349 . S
C960 C958 1.327 . S
C960 C979 1.429 . S
C960 H984 0.950 . S
C961 C978 1.574 1_556 S
C961 C980 1.368 . S
C961 H985 0.949 . S
H962 C966 0.949 . S
C963 C964 1.349 . S
C963 C965 1.327 . S
C963 H986 0.950 . S
C964 C963 1.349 . S
C964 C976 1.349 . S
C965 C963 1.327 . S
C965 C981 1.429 . S
C965 H987 0.950 . S
C966 H962 0.949 . S
C966 C974 1.574 1_554 S
C966 C982 1.368 . S
H967 C975 0.950 . S
H968 C973 0.950 . S
H969 C974 0.949 . S
H970 C976 0.950 . S
H971 C977 0.950 . S
H972 C978 0.949 . S
C973 H968 0.950 . S
C973 C975 1.327 . S
C973 C979 1.429 . S
C974 C966 1.574 1_556 S
C974 H969 0.949 . S
C974 C980 1.368 . S
C975 C959 1.349 . S
C975 H967 0.950 . S
C975 C973 1.327 . S
C976 C964 1.349 . S
C976 H970 0.950 . S
C976 C977 1.327 . S
C977 H971 0.950 . S
C977 C976 1.327 . S
C977 C981 1.429 . S
C978 C961 1.574 1_554 S
C978 H972 0.949 . S
C978 C982 1.368 . S
C979 C960 1.429 . S
C979 C973 1.429 . S
C979 C980 1.523 . S
C980 C961 1.368 . S
C980 C974 1.368 . S
C980 C979 1.523 . S
C981 C965 1.429 . S
C981 C977 1.429 . S
C981 C982 1.523 . S
C982 C966 1.368 . S
C982 C978 1.368 . S
C982 C981 1.523 . S
H983 C958 0.950 . S
H984 C960 0.950 . S
H985 C961 0.949 . S
H986 C963 0.950 . S
H987 C965 0.950 . S
C988 C989 1.349 . S
C988 C990 1.327 . S
C988 H1013 0.950 . S
C989 C988 1.349 . S
C989 C1005 1.349 . S
C990 C988 1.327 . S
C990 C1009 1.429 . S
C990 H1014 0.950 . S
C991 C1008 1.574 1_556 S
C991 C1010 1.368 . S
C991 H1015 0.949 . S
H992 C996 0.949 . S
C993 C994 1.349 . S
C993 C995 1.327 . S
C993 H1016 0.950 . S
C994 C993 1.349 . S
C994 C1006 1.349 . S
C995 C993 1.327 . S
C995 C1011 1.429 . S
C995 H1017 0.950 . S
C996 H992 0.949 . S
C996 C1004 1.574 1_554 S
C996 C1012 1.368 . S
H997 C1005 0.950 . S
H998 C1003 0.950 . S
H999 C1004 0.949 . S
H1000 C1006 0.950 . S
H1001 C1007 0.950 . S
H1002 C1008 0.949 . S
C1003 H998 0.950 . S
C1003 C1005 1.327 . S
C1003 C1009 1.429 . S
C1004 C996 1.574 1_556 S
C1004 H999 0.949 . S
C1004 C1010 1.368 . S
C1005 C989 1.349 . S
C1005 H997 0.950 . S
C1005 C1003 1.327 . S
C1006 C994 1.349 . S
C1006 H1000 0.950 . S
C1006 C1007 1.327 . S
C1007 H1001 0.950 . S
C1007 C1006 1.327 . S
C1007 C1011 1.429 . S
C1008 C991 1.574 1_554 S
C1008 H1002 0.949 . S
C1008 C1012 1.368 . S
C1009 C990 1.429 . S
C1009 C1003 1.429 . S
C1009 C1010 1.523 . S
C1010 C991 1.368 . S
C1010 C1004 1.368 . S
C1010 C1009 1.523 . S
C1011 C995 1.429 . S
C1011 C1007 1.429 . S
C1011 C1012 1.523 . S
C1012 C996 1.368 . S
C1012 C1008 1.368 . S
C1012 C1011 1.523 . S
H1013 C988 0.950 . S
H1014 C990 0.950 . S
H1015 C991 0.949 . S
H1016 C993 0.950 . S
H1017 C995 0.950 . S
C1018 C1019 1.349 . S
C1018 C1020 1.327 . S
C1018 H1043 0.950 . S
C1019 C1018 1.349 . S
C1019 C1035 1.349 . S
C1020 C1018 1.327 . S
C1020 C1039 1.429 . S
C1020 H1044 0.950 . S
C1021 C1038 1.574 1_556 S
C1021 C1040 1.368 . S
C1021 H1045 0.949 . S
H1022 C1026 0.949 . S
C1023 C1024 1.349 . S
C1023 C1025 1.327 . S
C1023 H1046 0.950 . S
C1024 C1023 1.349 . S
C1024 C1036 1.349 . S
C1025 C1023 1.327 . S
C1025 C1041 1.429 . S
C1025 H1047 0.950 . S
C1026 H1022 0.949 . S
C1026 C1034 1.574 1_554 S
C1026 C1042 1.368 . S
H1027 C1035 0.950 . S
H1028 C1033 0.950 . S
H1029 C1034 0.949 . S
H1030 C1036 0.950 . S
H1031 C1037 0.950 . S
H1032 C1038 0.949 . S
C1033 H1028 0.950 . S
C1033 C1035 1.327 . S
C1033 C1039 1.429 . S
C1034 C1026 1.574 1_556 S
C1034 H1029 0.949 . S
C1034 C1040 1.368 . S
C1035 C1019 1.349 . S
C1035 H1027 0.950 . S
C1035 C1033 1.327 . S
C1036 C1024 1.349 . S
C1036 H1030 0.950 . S
C1036 C1037 1.327 . S
C1037 H1031 0.950 . S
C1037 C1036 1.327 . S
C1037 C1041 1.429 . S
C1038 C1021 1.574 1_554 S
C1038 H1032 0.949 . S
C1038 C1042 1.368 . S
C1039 C1020 1.429 . S
C1039 C1033 1.429 . S
C1039 C1040 1.523 . S
C1040 C1021 1.368 . S
C1040 C1034 1.368 . S
C1040 C1039 1.523 . S
C1041 C1025 1.429 . S
C1041 C1037 1.429 . S
C1041 C1042 1.523 . S
C1042 C1026 1.368 . S
C1042 C1038 1.368 . S
C1042 C1041 1.523 . S
H1043 C1018 0.950 . S
H1044 C1020 0.950 . S
H1045 C1021 0.949 . S
H1046 C1023 0.950 . S
H1047 C1025 0.950 . S
C1048 C1049 1.349 . S
C1048 C1050 1.327 . S
C1048 H1073 0.950 . S
C1049 C1048 1.349 . S
C1049 C1065 1.349 . S
C1050 C1048 1.327 . S
C1050 C1069 1.429 . S
C1050 H1074 0.950 . S
C1051 C1068 1.574 . S
C1051 C1070 1.368 . S
C1051 H1075 0.949 . S
H1052 C1056 0.949 . S
C1053 C1054 1.349 . S
C1053 C1055 1.327 . S
C1053 H1076 0.950 . S
C1054 C1053 1.349 . S
C1054 C1066 1.349 . S
C1055 C1053 1.327 . S
C1055 C1071 1.429 . S
C1055 H1077 0.950 . S
C1056 H1052 0.949 . S
C1056 C1064 1.574 . S
C1056 C1072 1.368 . S
H1057 C1065 0.950 . S
H1058 C1063 0.950 . S
H1059 C1064 0.949 . S
H1060 C1066 0.950 . S
H1061 C1067 0.950 . S
H1062 C1068 0.949 . S
C1063 H1058 0.950 . S
C1063 C1065 1.327 . S
C1063 C1069 1.429 . S
C1064 C1056 1.574 . S
C1064 H1059 0.949 . S
C1064 C1070 1.368 . S
C1065 C1049 1.349 . S
C1065 H1057 0.950 . S
C1065 C1063 1.327 . S
C1066 C1054 1.349 . S
C1066 H1060 0.950 . S
C1066 C1067 1.327 . S
C1067 H1061 0.950 . S
C1067 C1066 1.327 . S
C1067 C1071 1.429 . S
C1068 C1051 1.574 . S
C1068 H1062 0.949 . S
C1068 C1072 1.368 . S
C1069 C1050 1.429 . S
C1069 C1063 1.429 . S
C1069 C1070 1.523 . S
C1070 C1051 1.368 . S
C1070 C1064 1.368 . S
C1070 C1069 1.523 . S
C1071 C1055 1.429 . S
C1071 C1067 1.429 . S
C1071 C1072 1.523 . S
C1072 C1056 1.368 . S
C1072 C1068 1.368 . S
C1072 C1071 1.523 . S
H1073 C1048 0.950 . S
H1074 C1050 0.950 . S
H1075 C1051 0.949 . S
H1076 C1053 0.950 . S
H1077 C1055 0.950 . S
C1078 C1079 1.349 . S
C1078 C1080 1.327 . S
C1078 H1103 0.950 . S
C1079 C1078 1.349 . S
C1079 C1095 1.349 . S
C1080 C1078 1.327 . S
C1080 C1099 1.429 . S
C1080 H1104 0.950 . S
C1081 C1098 1.574 . S
C1081 C1100 1.368 . S
C1081 H1105 0.949 . S
H1082 C1086 0.949 . S
C1083 C1084 1.349 . S
C1083 C1085 1.327 . S
C1083 H1106 0.950 . S
C1084 C1083 1.349 . S
C1084 C1096 1.349 . S
C1085 C1083 1.327 . S
C1085 C1101 1.429 . S
C1085 H1107 0.950 . S
C1086 H1082 0.949 . S
C1086 C1094 1.574 . S
C1086 C1102 1.368 . S
H1087 C1095 0.950 . S
H1088 C1093 0.950 . S
H1089 C1094 0.949 . S
H1090 C1096 0.950 . S
H1091 C1097 0.950 . S
H1092 C1098 0.949 . S
C1093 H1088 0.950 . S
C1093 C1095 1.327 . S
C1093 C1099 1.429 . S
C1094 C1086 1.574 . S
C1094 H1089 0.949 . S
C1094 C1100 1.368 . S
C1095 C1079 1.349 . S
C1095 H1087 0.950 . S
C1095 C1093 1.327 . S
C1096 C1084 1.349 . S
C1096 H1090 0.950 . S
C1096 C1097 1.327 . S
C1097 H1091 0.950 . S
C1097 C1096 1.327 . S
C1097 C1101 1.429 . S
C1098 C1081 1.574 . S
C1098 H1092 0.949 . S
C1098 C1102 1.368 . S
C1099 C1080 1.429 . S
C1099 C1093 1.429 . S
C1099 C1100 1.523 . S
C1100 C1081 1.368 . S
C1100 C1094 1.368 . S
C1100 C1099 1.523 . S
C1101 C1085 1.429 . S
C1101 C1097 1.429 . S
C1101 C1102 1.523 . S
C1102 C1086 1.368 . S
C1102 C1098 1.368 . S
C1102 C1101 1.523 . S
H1103 C1078 0.950 . S
H1104 C1080 0.950 . S
H1105 C1081 0.949 . S
H1106 C1083 0.950 . S
H1107 C1085 0.950 . S
C1108 C1109 1.349 . S
C1108 C1110 1.327 . S
C1108 H1133 0.950 . S
C1109 C1108 1.349 . S
C1109 C1125 1.349 . S
C1110 C1108 1.327 . S
C1110 C1129 1.429 . S
C1110 H1134 0.950 . S
C1111 C1128 1.574 . S
C1111 C1130 1.368 . S
C1111 H1135 0.949 . S
H1112 C1116 0.949 . S
C1113 C1114 1.349 . S
C1113 C1115 1.327 . S
C1113 H1136 0.950 . S
C1114 C1113 1.349 . S
C1114 C1126 1.349 . S
C1115 C1113 1.327 . S
C1115 C1131 1.429 . S
C1115 H1137 0.950 . S
C1116 H1112 0.949 . S
C1116 C1124 1.574 . S
C1116 C1132 1.368 . S
H1117 C1125 0.950 . S
H1118 C1123 0.950 . S
H1119 C1124 0.949 . S
H1120 C1126 0.950 . S
H1121 C1127 0.950 . S
H1122 C1128 0.949 . S
C1123 H1118 0.950 . S
C1123 C1125 1.327 . S
C1123 C1129 1.429 . S
C1124 C1116 1.574 . S
C1124 H1119 0.949 . S
C1124 C1130 1.368 . S
C1125 C1109 1.349 . S
C1125 H1117 0.950 . S
C1125 C1123 1.327 . S
C1126 C1114 1.349 . S
C1126 H1120 0.950 . S
C1126 C1127 1.327 . S
C1127 H1121 0.950 . S
C1127 C1126 1.327 . S
C1127 C1131 1.429 . S
C1128 C1111 1.574 . S
C1128 H1122 0.949 . S
C1128 C1132 1.368 . S
C1129 C1110 1.429 . S
C1129 C1123 1.429 . S
C1129 C1130 1.523 . S
C1130 C1111 1.368 . S
C1130 C1124 1.368 . S
C1130 C1129 1.523 . S
C1131 C1115 1.429 . S
C1131 C1127 1.429 . S
C1131 C1132 1.523 . S
C1132 C1116 1.368 . S
C1132 C1128 1.368 . S
C1132 C1131 1.523 . S
H1133 C1108 0.950 . S
H1134 C1110 0.950 . S
H1135 C1111 0.949 . S
H1136 C1113 0.950 . S
H1137 C1115 0.950 . S
C1138 C1139 1.349 . S
C1138 C1140 1.327 . S
C1138 H1163 0.950 . S
C1139 C1138 1.349 . S
C1139 C1155 1.349 . S
C1140 C1138 1.327 . S
C1140 C1159 1.429 . S
C1140 H1164 0.950 . S
C1141 C1158 1.574 . S
C1141 C1160 1.368 . S
C1141 H1165 0.949 . S
H1142 C1146 0.949 . S
C1143 C1144 1.349 . S
C1143 C1145 1.327 . S
C1143 H1166 0.950 . S
C1144 C1143 1.349 . S
C1144 C1156 1.349 . S
C1145 C1143 1.327 . S
C1145 C1161 1.429 . S
C1145 H1167 0.950 . S
C1146 H1142 0.949 . S
C1146 C1154 1.574 . S
C1146 C1162 1.368 . S
H1147 C1155 0.950 . S
H1148 C1153 0.950 . S
H1149 C1154 0.949 . S
H1150 C1156 0.950 . S
H1151 C1157 0.950 . S
H1152 C1158 0.949 . S
C1153 H1148 0.950 . S
C1153 C1155 1.327 . S
C1153 C1159 1.429 . S
C1154 C1146 1.574 . S
C1154 H1149 0.949 . S
C1154 C1160 1.368 . S
C1155 C1139 1.349 . S
C1155 H1147 0.950 . S
C1155 C1153 1.327 . S
C1156 C1144 1.349 . S
C1156 H1150 0.950 . S
C1156 C1157 1.327 . S
C1157 H1151 0.950 . S
C1157 C1156 1.327 . S
C1157 C1161 1.429 . S
C1158 C1141 1.574 . S
C1158 H1152 0.949 . S
C1158 C1162 1.368 . S
C1159 C1140 1.429 . S
C1159 C1153 1.429 . S
C1159 C1160 1.523 . S
C1160 C1141 1.368 . S
C1160 C1154 1.368 . S
C1160 C1159 1.523 . S
C1161 C1145 1.429 . S
C1161 C1157 1.429 . S
C1161 C1162 1.523 . S
C1162 C1146 1.368 . S
C1162 C1158 1.368 . S
C1162 C1161 1.523 . S
H1163 C1138 0.950 . S
H1164 C1140 0.950 . S
H1165 C1141 0.949 . S
H1166 C1143 0.950 . S
H1167 C1145 0.950 . S
C1168 C1169 1.349 . S
C1168 C1170 1.327 . S
C1168 H1193 0.950 . S
C1169 C1168 1.349 . S
C1169 C1185 1.349 . S
C1170 C1168 1.327 . S
C1170 C1189 1.429 . S
C1170 H1194 0.950 . S
C1171 C1188 1.574 . S
C1171 C1190 1.368 . S
C1171 H1195 0.949 . S
H1172 C1176 0.949 . S
C1173 C1174 1.349 . S
C1173 C1175 1.327 . S
C1173 H1196 0.950 . S
C1174 C1173 1.349 . S
C1174 C1186 1.349 . S
C1175 C1173 1.327 . S
C1175 C1191 1.429 . S
C1175 H1197 0.950 . S
C1176 H1172 0.949 . S
C1176 C1184 1.574 . S
C1176 C1192 1.368 . S
H1177 C1185 0.950 . S
H1178 C1183 0.950 . S
H1179 C1184 0.949 . S
H1180 C1186 0.950 . S
H1181 C1187 0.950 . S
H1182 C1188 0.949 . S
C1183 H1178 0.950 . S
C1183 C1185 1.327 . S
C1183 C1189 1.429 . S
C1184 C1176 1.574 . S
C1184 H1179 0.949 . S
C1184 C1190 1.368 . S
C1185 C1169 1.349 . S
C1185 H1177 0.950 . S
C1185 C1183 1.327 . S
C1186 C1174 1.349 . S
C1186 H1180 0.950 . S
C1186 C1187 1.327 . S
C1187 H1181 0.950 . S
C1187 C1186 1.327 . S
C1187 C1191 1.429 . S
C1188 C1171 1.574 . S
C1188 H1182 0.949 . S
C1188 C1192 1.368 . S
C1189 C1170 1.429 . S
C1189 C1183 1.429 . S
C1189 C1190 1.523 . S
C1190 C1171 1.368 . S
C1190 C1184 1.368 . S
C1190 C1189 1.523 . S
C1191 C1175 1.429 . S
C1191 C1187 1.429 . S
C1191 C1192 1.523 . S
C1192 C1176 1.368 . S
C1192 C1188 1.368 . S
C1192 C1191 1.523 . S
H1193 C1168 0.950 . S
H1194 C1170 0.950 . S
H1195 C1171 0.949 . S
H1196 C1173 0.950 . S
H1197 C1175 0.950 . S
C1198 C1199 1.349 . S
C1198 C1200 1.327 . S
C1198 H1223 0.950 . S
C1199 C1198 1.349 . S
C1199 C1215 1.349 . S
C1200 C1198 1.327 . S
C1200 C1219 1.429 . S
C1200 H1224 0.950 . S
C1201 C1218 1.574 . S
C1201 C1220 1.368 . S
C1201 H1225 0.949 . S
H1202 C1206 0.949 . S
C1203 C1204 1.349 . S
C1203 C1205 1.327 . S
C1203 H1226 0.950 . S
C1204 C1203 1.349 . S
C1204 C1216 1.349 . S
C1205 C1203 1.327 . S
C1205 C1221 1.429 . S
C1205 H1227 0.950 . S
C1206 H1202 0.949 . S
C1206 C1214 1.574 . S
C1206 C1222 1.368 . S
H1207 C1215 0.950 . S
H1208 C1213 0.950 . S
H1209 C1214 0.949 . S
H1210 C1216 0.950 . S
H1211 C1217 0.950 . S
H1212 C1218 0.949 . S
C1213 H1208 0.950 . S
C1213 C1215 1.327 . S
C1213 C1219 1.429 . S
C1214 C1206 1.574 . S
C1214 H1209 0.949 . S
C1214 C1220 1.368 . S
C1215 C1199 1.349 . S
C1215 H1207 0.950 . S
C1215 C1213 1.327 . S
C1216 C1204 1.349 . S
C1216 H1210 0.950 . S
C1216 C1217 1.327 . S
C1217 H1211 0.950 . S
C1217 C1216 1.327 . S
C1217 C1221 1.429 . S
C1218 C1201 1.574 . S
C1218 H1212 0.949 . S
C1218 C1222 1.368 . S
C1219 C1200 1.429 . S
C1219 C1213 1.429 . S
C1219 C1220 1.523 . S
C1220 C1201 1.368 . S
C1220 C1214 1.368 . S
C1220 C1219 1.523 . S
C1221 C1205 1.429 . S
C1221 C1217 1.429 . S
C1221 C1222 1.523 . S
C1222 C1206 1.368 . S
C1222 C1218 1.368 . S
C1222 C1221 1.523 . S
H1223 C1198 0.950 . S
H1224 C1200 0.950 . S
H1225 C1201 0.949 . S
H1226 C1203 0.950 . S
H1227 C1205 0.950 . S
C1228 C1229 1.349 . S
C1228 C1230 1.327 . S
C1228 H1253 0.950 . S
C1229 C1228 1.349 . S
C1229 C1245 1.349 . S
C1230 C1228 1.327 . S
C1230 C1249 1.429 . S
C1230 H1254 0.950 . S
C1231 C1248 1.574 . S
C1231 C1250 1.368 . S
C1231 H1255 0.949 . S
H1232 C1236 0.949 . S
C1233 C1234 1.349 . S
C1233 C1235 1.327 . S
C1233 H1256 0.950 . S
C1234 C1233 1.349 . S
C1234 C1246 1.349 . S
C1235 C1233 1.327 . S
C1235 C1251 1.429 . S
C1235 H1257 0.950 . S
C1236 H1232 0.949 . S
C1236 C1244 1.574 . S
C1236 C1252 1.368 . S
H1237 C1245 0.950 . S
H1238 C1243 0.950 . S
H1239 C1244 0.949 . S
H1240 C1246 0.950 . S
H1241 C1247 0.950 . S
H1242 C1248 0.949 . S
C1243 H1238 0.950 . S
C1243 C1245 1.327 . S
C1243 C1249 1.429 . S
C1244 C1236 1.574 . S
C1244 H1239 0.949 . S
C1244 C1250 1.368 . S
C1245 C1229 1.349 . S
C1245 H1237 0.950 . S
C1245 C1243 1.327 . S
C1246 C1234 1.349 . S
C1246 H1240 0.950 . S
C1246 C1247 1.327 . S
C1247 H1241 0.950 . S
C1247 C1246 1.327 . S
C1247 C1251 1.429 . S
C1248 C1231 1.574 . S
C1248 H1242 0.949 . S
C1248 C1252 1.368 . S
C1249 C1230 1.429 . S
C1249 C1243 1.429 . S
C1249 C1250 1.523 . S
C1250 C1231 1.368 . S
C1250 C1244 1.368 . S
C1250 C1249 1.523 . S
C1251 C1235 1.429 . S
C1251 C1247 1.429 . S
C1251 C1252 1.523 . S
C1252 C1236 1.368 . S
C1252 C1248 1.368 . S
C1252 C1251 1.523 . S
H1253 C1228 0.950 . S
H1254 C1230 0.950 . S
H1255 C1231 0.949 . S
H1256 C1233 0.950 . S
H1257 C1235 0.950 . S
C1258 C1259 1.349 . S
C1258 C1260 1.327 . S
C1258 H1283 0.950 . S
C1259 C1258 1.349 . S
C1259 C1275 1.349 . S
C1260 C1258 1.327 . S
C1260 C1279 1.429 . S
C1260 H1284 0.950 . S
C1261 C1278 1.574 . S
C1261 C1280 1.368 . S
C1261 H1285 0.949 . S
H1262 C1266 0.949 . S
C1263 C1264 1.349 . S
C1263 C1265 1.327 . S
C1263 H1286 0.950 . S
C1264 C1263 1.349 . S
C1264 C1276 1.349 . S
C1265 C1263 1.327 . S
C1265 C1281 1.429 . S
C1265 H1287 0.950 . S
C1266 H1262 0.949 . S
C1266 C1274 1.574 . S
C1266 C1282 1.368 . S
H1267 C1275 0.950 . S
H1268 C1273 0.950 . S
H1269 C1274 0.949 . S
H1270 C1276 0.950 . S
H1271 C1277 0.950 . S
H1272 C1278 0.949 . S
C1273 H1268 0.950 . S
C1273 C1275 1.327 . S
C1273 C1279 1.429 . S
C1274 C1266 1.574 . S
C1274 H1269 0.949 . S
C1274 C1280 1.368 . S
C1275 C1259 1.349 . S
C1275 H1267 0.950 . S
C1275 C1273 1.327 . S
C1276 C1264 1.349 . S
C1276 H1270 0.950 . S
C1276 C1277 1.327 . S
C1277 H1271 0.950 . S
C1277 C1276 1.327 . S
C1277 C1281 1.429 . S
C1278 C1261 1.574 . S
C1278 H1272 0.949 . S
C1278 C1282 1.368 . S
C1279 C1260 1.429 . S
C1279 C1273 1.429 . S
C1279 C1280 1.523 . S
C1280 C1261 1.368 . S
C1280 C1274 1.368 . S
C1280 C1279 1.523 . S
C1281 C1265 1.429 . S
C1281 C1277 1.429 . S
C1281 C1282 1.523 . S
C1282 C1266 1.368 . S
C1282 C1278 1.368 . S
C1282 C1281 1.523 . S
H1283 C1258 0.950 . S
H1284 C1260 0.950 . S
H1285 C1261 0.949 . S
H1286 C1263 0.950 . S
H1287 C1265 0.950 . S
C1288 C1289 1.349 . S
C1288 C1290 1.327 . S
C1288 H1313 0.950 . S
C1289 C1288 1.349 . S
C1289 C1305 1.349 . S
C1290 C1288 1.327 . S
C1290 C1309 1.429 . S
C1290 H1314 0.950 . S
C1291 C1308 1.574 1_556 S
C1291 C1310 1.368 . S
C1291 H1315 0.949 . S
H1292 C1296 0.949 . S
C1293 C1294 1.349 . S
C1293 C1295 1.327 . S
C1293 H1316 0.950 . S
C1294 C1293 1.349 . S
C1294 C1306 1.349 . S
C1295 C1293 1.327 . S
C1295 C1311 1.429 . S
C1295 H1317 0.950 . S
C1296 H1292 0.949 . S
C1296 C1304 1.574 1_554 S
C1296 C1312 1.368 . S
H1297 C1305 0.950 . S
H1298 C1303 0.950 . S
H1299 C1304 0.949 . S
H1300 C1306 0.950 . S
H1301 C1307 0.950 . S
H1302 C1308 0.949 . S
C1303 H1298 0.950 . S
C1303 C1305 1.327 . S
C1303 C1309 1.429 . S
C1304 C1296 1.574 1_556 S
C1304 H1299 0.949 . S
C1304 C1310 1.368 . S
C1305 C1289 1.349 . S
C1305 H1297 0.950 . S
C1305 C1303 1.327 . S
C1306 C1294 1.349 . S
C1306 H1300 0.950 . S
C1306 C1307 1.327 . S
C1307 H1301 0.950 . S
C1307 C1306 1.327 . S
C1307 C1311 1.429 . S
C1308 C1291 1.574 1_554 S
C1308 H1302 0.949 . S
C1308 C1312 1.368 . S
C1309 C1290 1.429 . S
C1309 C1303 1.429 . S
C1309 C1310 1.523 . S
C1310 C1291 1.368 . S
C1310 C1304 1.368 . S
C1310 C1309 1.523 . S
C1311 C1295 1.429 . S
C1311 C1307 1.429 . S
C1311 C1312 1.523 . S
C1312 C1296 1.368 . S
C1312 C1308 1.368 . S
C1312 C1311 1.523 . S
H1313 C1288 0.950 . S
H1314 C1290 0.950 . S
H1315 C1291 0.949 . S
H1316 C1293 0.950 . S
H1317 C1295 0.950 . S
C1318 C1319 1.349 . S
C1318 C1320 1.327 . S
C1318 H1343 0.950 . S
C1319 C1318 1.349 . S
C1319 C1335 1.349 . S
C1320 C1318 1.327 . S
C1320 C1339 1.429 . S
C1320 H1344 0.950 . S
C1321 C1338 1.574 1_554 S
C1321 C1340 1.368 . S
C1321 H1345 0.949 . S
H1322 C1326 0.949 . S
C1323 C1324 1.349 . S
C1323 C1325 1.327 . S
C1323 H1346 0.950 . S
C1324 C1323 1.349 . S
C1324 C1336 1.349 . S
C1325 C1323 1.327 . S
C1325 C1341 1.429 . S
C1325 H1347 0.950 . S
C1326 H1322 0.949 . S
C1326 C1334 1.574 1_556 S
C1326 C1342 1.368 . S
H1327 C1335 0.950 . S
H1328 C1333 0.950 . S
H1329 C1334 0.949 . S
H1330 C1336 0.950 . S
H1331 C1337 0.950 . S
H1332 C1338 0.949 . S
C1333 H1328 0.950 . S
C1333 C1335 1.327 . S
C1333 C1339 1.429 . S
C1334 C1326 1.574 1_554 S
C1334 H1329 0.949 . S
C1334 C1340 1.368 . S
C1335 C1319 1.349 . S
C1335 H1327 0.950 . S
C1335 C1333 1.327 . S
C1336 C1324 1.349 . S
C1336 H1330 0.950 . S
C1336 C1337 1.327 . S
C1337 H1331 0.950 . S
C1337 C1336 1.327 . S
C1337 C1341 1.429 . S
C1338 C1321 1.574 1_556 S
C1338 H1332 0.949 . S
C1338 C1342 1.368 . S
C1339 C1320 1.429 . S
C1339 C1333 1.429 . S
C1339 C1340 1.523 . S
C1340 C1321 1.368 . S
C1340 C1334 1.368 . S
C1340 C1339 1.523 . S
C1341 C1325 1.429 . S
C1341 C1337 1.429 . S
C1341 C1342 1.523 . S
C1342 C1326 1.368 . S
C1342 C1338 1.368 . S
C1342 C1341 1.523 . S
H1343 C1318 0.950 . S
H1344 C1320 0.950 . S
H1345 C1321 0.949 . S
H1346 C1323 0.950 . S
H1347 C1325 0.950 . S
C1348 C1349 1.349 . S
C1348 C1350 1.327 . S
C1348 H1373 0.950 . S
C1349 C1348 1.349 . S
C1349 C1365 1.349 . S
C1350 C1348 1.327 . S
C1350 C1369 1.429 . S
C1350 H1374 0.950 . S
C1351 C1368 1.574 1_554 S
C1351 C1370 1.368 . S
C1351 H1375 0.949 . S
H1352 C1356 0.949 . S
C1353 C1354 1.349 . S
C1353 C1355 1.327 . S
C1353 H1376 0.950 . S
C1354 C1353 1.349 . S
C1354 C1366 1.349 . S
C1355 C1353 1.327 . S
C1355 C1371 1.429 . S
C1355 H1377 0.950 . S
C1356 H1352 0.949 . S
C1356 C1364 1.574 1_556 S
C1356 C1372 1.368 . S
H1357 C1365 0.950 . S
H1358 C1363 0.950 . S
H1359 C1364 0.949 . S
H1360 C1366 0.950 . S
H1361 C1367 0.950 . S
H1362 C1368 0.949 . S
C1363 H1358 0.950 . S
C1363 C1365 1.327 . S
C1363 C1369 1.429 . S
C1364 C1356 1.574 1_554 S
C1364 H1359 0.949 . S
C1364 C1370 1.368 . S
C1365 C1349 1.349 . S
C1365 H1357 0.950 . S
C1365 C1363 1.327 . S
C1366 C1354 1.349 . S
C1366 H1360 0.950 . S
C1366 C1367 1.327 . S
C1367 H1361 0.950 . S
C1367 C1366 1.327 . S
C1367 C1371 1.429 . S
C1368 C1351 1.574 1_556 S
C1368 H1362 0.949 . S
C1368 C1372 1.368 . S
C1369 C1350 1.429 . S
C1369 C1363 1.429 . S
C1369 C1370 1.523 . S
C1370 C1351 1.368 . S
C1370 C1364 1.368 . S
C1370 C1369 1.523 . S
C1371 C1355 1.429 . S
C1371 C1367 1.429 . S
C1371 C1372 1.523 . S
C1372 C1356 1.368 . S
C1372 C1368 1.368 . S
C1372 C1371 1.523 . S
H1373 C1348 0.950 . S
H1374 C1350 0.950 . S
H1375 C1351 0.949 . S
H1376 C1353 0.950 . S
H1377 C1355 0.950 . S
C1378 C1379 1.349 . S
C1378 C1380 1.327 . S
C1378 H1403 0.950 . S
C1379 C1378 1.349 . S
C1379 C1395 1.349 . S
C1380 C1378 1.327 . S
C1380 C1399 1.429 . S
C1380 H1404 0.950 . S
C1381 C1398 1.574 1_556 S
C1381 C1400 1.368 . S
C1381 H1405 0.949 . S
H1382 C1386 0.949 . S
C1383 C1384 1.349 . S
C1383 C1385 1.327 . S
C1383 H1406 0.950 . S
C1384 C1383 1.349 . S
C1384 C1396 1.349 . S
C1385 C1383 1.327 . S
C1385 C1401 1.429 . S
C1385 H1407 0.950 . S
C1386 H1382 0.949 . S
C1386 C1394 1.574 1_554 S
C1386 C1402 1.368 . S
H1387 C1395 0.950 . S
H1388 C1393 0.950 . S
H1389 C1394 0.949 . S
H1390 C1396 0.950 . S
H1391 C1397 0.950 . S
H1392 C1398 0.949 . S
C1393 H1388 0.950 . S
C1393 C1395 1.327 . S
C1393 C1399 1.429 . S
C1394 C1386 1.574 1_556 S
C1394 H1389 0.949 . S
C1394 C1400 1.368 . S
C1395 C1379 1.349 . S
C1395 H1387 0.950 . S
C1395 C1393 1.327 . S
C1396 C1384 1.349 . S
C1396 H1390 0.950 . S
C1396 C1397 1.327 . S
C1397 H1391 0.950 . S
C1397 C1396 1.327 . S
C1397 C1401 1.429 . S
C1398 C1381 1.574 1_554 S
C1398 H1392 0.949 . S
C1398 C1402 1.368 . S
C1399 C1380 1.429 . S
C1399 C1393 1.429 . S
C1399 C1400 1.523 . S
C1400 C1381 1.368 . S
C1400 C1394 1.368 . S
C1400 C1399 1.523 . S
C1401 C1385 1.429 . S
C1401 C1397 1.429 . S
C1401 C1402 1.523 . S
C1402 C1386 1.368 . S
C1402 C1398 1.368 . S
C1402 C1401 1.523 . S
H1403 C1378 0.950 . S
H1404 C1380 0.950 . S
H1405 C1381 0.949 . S
H1406 C1383 0.950 . S
H1407 C1385 0.950 . S
C1408 C1409 1.349 . S
C1408 C1410 1.327 . S
C1408 H1433 0.950 . S
C1409 C1408 1.349 . S
C1409 C1425 1.349 . S
C1410 C1408 1.327 . S
C1410 C1429 1.429 . S
C1410 H1434 0.950 . S
C1411 C1428 1.524 1_545 S
C1411 C1430 1.368 . S
C1411 H1435 0.949 . S
H1412 C1416 0.949 . S
C1413 C1414 1.349 . S
C1413 C1415 1.327 . S
C1413 H1436 0.950 . S
C1414 C1413 1.349 . S
C1414 C1426 1.349 . S
C1415 C1413 1.327 . S
C1415 C1431 1.429 . S
C1415 H1437 0.950 . S
C1416 H1412 0.949 . S
C1416 C1424 1.524 1_565 S
C1416 C1432 1.368 . S
H1417 C1425 0.950 . S
H1418 C1423 0.950 . S
H1419 C1424 0.956 . S
H1420 C1426 0.950 . S
H1421 C1427 0.950 . S
H1422 C1428 0.956 . S
C1423 H1418 0.950 . S
C1423 C1425 1.327 . S
C1423 C1429 1.429 . S
C1424 C1416 1.524 1_545 S
C1424 H1419 0.956 . S
C1424 C1430 1.414 . S
C1425 C1409 1.349 . S
C1425 H1417 0.950 . S
C1425 C1423 1.327 . S
C1426 C1414 1.349 . S
C1426 H1420 0.950 . S
C1426 C1427 1.327 . S
C1427 H1421 0.950 . S
C1427 C1426 1.327 . S
C1427 C1431 1.429 . S
C1428 C1411 1.524 1_565 S
C1428 H1422 0.956 . S
C1428 C1432 1.414 . S
C1429 C1410 1.429 . S
C1429 C1423 1.429 . S
C1429 C1430 1.523 . S
C1430 C1411 1.368 . S
C1430 C1424 1.414 . S
C1430 C1429 1.523 . S
C1431 C1415 1.429 . S
C1431 C1427 1.429 . S
C1431 C1432 1.523 . S
C1432 C1416 1.368 . S
C1432 C1428 1.414 . S
C1432 C1431 1.523 . S
H1433 C1408 0.950 . S
H1434 C1410 0.950 . S
H1435 C1411 0.949 . S
H1436 C1413 0.950 . S
H1437 C1415 0.950 . S
C1438 C1439 1.349 . S
C1438 C1440 1.327 . S
C1438 H1463 0.950 . S
C1439 C1438 1.349 . S
C1439 C1455 1.349 . S
C1440 C1438 1.327 . S
C1440 C1459 1.429 . S
C1440 H1464 0.950 . S
C1441 C1458 1.574 1_655 S
C1441 C1460 1.368 . S
C1441 H1465 0.949 . S
H1442 C1446 0.949 . S
C1443 C1444 1.349 . S
C1443 C1445 1.327 . S
C1443 H1466 0.950 . S
C1444 C1443 1.349 . S
C1444 C1456 1.349 . S
C1445 C1443 1.327 . S
C1445 C1461 1.429 . S
C1445 H1467 0.950 . S
C1446 H1442 0.949 . S
C1446 C1454 1.574 1_455 S
C1446 C1462 1.368 . S
H1447 C1455 0.950 . S
H1448 C1453 0.950 . S
H1449 C1454 0.949 . S
H1450 C1456 0.950 . S
H1451 C1457 0.950 . S
H1452 C1458 0.949 . S
C1453 H1448 0.950 . S
C1453 C1455 1.327 . S
C1453 C1459 1.429 . S
C1454 C1446 1.574 1_655 S
C1454 H1449 0.949 . S
C1454 C1460 1.368 . S
C1455 C1439 1.349 . S
C1455 H1447 0.950 . S
C1455 C1453 1.327 . S
C1456 C1444 1.349 . S
C1456 H1450 0.950 . S
C1456 C1457 1.327 . S
C1457 H1451 0.950 . S
C1457 C1456 1.327 . S
C1457 C1461 1.429 . S
C1458 C1441 1.574 1_455 S
C1458 H1452 0.949 . S
C1458 C1462 1.368 . S
C1459 C1440 1.429 . S
C1459 C1453 1.429 . S
C1459 C1460 1.523 . S
C1460 C1441 1.368 . S
C1460 C1454 1.368 . S
C1460 C1459 1.523 . S
C1461 C1445 1.429 . S
C1461 C1457 1.429 . S
C1461 C1462 1.523 . S
C1462 C1446 1.368 . S
C1462 C1458 1.368 . S
C1462 C1461 1.523 . S
H1463 C1438 0.950 . S
H1464 C1440 0.950 . S
H1465 C1441 0.949 . S
H1466 C1443 0.950 . S
H1467 C1445 0.950 . S
C1468 C1469 1.349 . S
C1468 C1470 1.327 . S
C1468 H1493 0.950 . S
C1469 C1468 1.349 . S
C1469 C1485 1.349 . S
C1470 C1468 1.327 . S
C1470 C1489 1.429 . S
C1470 H1494 0.950 . S
C1471 C1488 1.569 1_545 S
C1471 C1490 1.372 . S
C1471 H1495 0.948 . S
H1472 C1476 0.948 . S
C1473 C1474 1.349 . S
C1473 C1475 1.327 . S
C1473 H1496 0.950 . S
C1474 C1473 1.349 . S
C1474 C1486 1.349 . S
C1475 C1473 1.327 . S
C1475 C1491 1.429 . S
C1475 H1497 0.950 . S
C1476 H1472 0.948 . S
C1476 C1484 1.569 1_565 S
C1476 C1492 1.372 . S
H1477 C1485 0.950 . S
H1478 C1483 0.950 . S
H1479 C1484 0.949 . S
H1480 C1486 0.950 . S
H1481 C1487 0.950 . S
H1482 C1488 0.949 . S
C1483 H1478 0.950 . S
C1483 C1485 1.327 . S
C1483 C1489 1.429 . S
C1484 C1476 1.569 1_545 S
C1484 H1479 0.949 . S
C1484 C1490 1.368 . S
C1485 C1469 1.349 . S
C1485 H1477 0.950 . S
C1485 C1483 1.327 . S
C1486 C1474 1.349 . S
C1486 H1480 0.950 . S
C1486 C1487 1.327 . S
C1487 H1481 0.950 . S
C1487 C1486 1.327 . S
C1487 C1491 1.429 . S
C1488 C1471 1.569 1_565 S
C1488 H1482 0.949 . S
C1488 C1492 1.368 . S
C1489 C1470 1.429 . S
C1489 C1483 1.429 . S
C1489 C1490 1.523 . S
C1490 C1471 1.372 . S
C1490 C1484 1.368 . S
C1490 C1489 1.523 . S
C1491 C1475 1.429 . S
C1491 C1487 1.429 . S
C1491 C1492 1.523 . S
C1492 C1476 1.372 . S
C1492 C1488 1.368 . S
C1492 C1491 1.523 . S
H1493 C1468 0.950 . S
H1494 C1470 0.950 . S
H1495 C1471 0.948 . S
H1496 C1473 0.950 . S
H1497 C1475 0.950 . S
C1498 C1499 1.349 . S
C1498 C1500 1.327 . S
C1498 H1523 0.950 . S
C1499 C1498 1.349 . S
C1499 C1515 1.349 . S
C1500 C1498 1.327 . S
C1500 C1519 1.429 . S
C1500 H1524 0.950 . S
C1501 C1518 1.574 1_455 S
C1501 C1520 1.368 . S
C1501 H1525 0.949 . S
H1502 C1506 0.949 . S
C1503 C1504 1.349 . S
C1503 C1505 1.327 . S
C1503 H1526 0.950 . S
C1504 C1503 1.349 . S
C1504 C1516 1.349 . S
C1505 C1503 1.327 . S
C1505 C1521 1.429 . S
C1505 H1527 0.950 . S
C1506 H1502 0.949 . S
C1506 C1514 1.574 1_655 S
C1506 C1522 1.368 . S
H1507 C1515 0.950 . S
H1508 C1513 0.950 . S
H1509 C1514 0.949 . S
H1510 C1516 0.950 . S
H1511 C1517 0.950 . S
H1512 C1518 0.949 . S
C1513 H1508 0.950 . S
C1513 C1515 1.327 . S
C1513 C1519 1.429 . S
C1514 C1506 1.574 1_455 S
C1514 H1509 0.949 . S
C1514 C1520 1.368 . S
C1515 C1499 1.349 . S
C1515 H1507 0.950 . S
C1515 C1513 1.327 . S
C1516 C1504 1.349 . S
C1516 H1510 0.950 . S
C1516 C1517 1.327 . S
C1517 H1511 0.950 . S
C1517 C1516 1.327 . S
C1517 C1521 1.429 . S
C1518 C1501 1.574 1_655 S
C1518 H1512 0.949 . S
C1518 C1522 1.368 . S
C1519 C1500 1.429 . S
C1519 C1513 1.429 . S
C1519 C1520 1.523 . S
C1520 C1501 1.368 . S
C1520 C1514 1.368 . S
C1520 C1519 1.523 . S
C1521 C1505 1.429 . S
C1521 C1517 1.429 . S
C1521 C1522 1.523 . S
C1522 C1506 1.368 . S
C1522 C1518 1.368 . S
C1522 C1521 1.523 . S
H1523 C1498 0.950 . S
H1524 C1500 0.950 . S
H1525 C1501 0.949 . S
H1526 C1503 0.950 . S
H1527 C1505 0.950 . S
C1528 C1529 1.349 . S
C1528 C1530 1.327 . S
C1528 H1553 0.950 . S
C1529 C1528 1.349 . S
C1529 C1545 1.349 . S
C1530 C1528 1.327 . S
C1530 C1549 1.429 . S
C1530 H1554 0.950 . S
C1531 C1548 1.552 1_565 S
C1531 C1550 1.368 . S
C1531 H1555 0.949 . S
H1532 C1536 0.949 . S
C1533 C1534 1.349 . S
C1533 C1535 1.327 . S
C1533 H1556 0.950 . S
C1534 C1533 1.349 . S
C1534 C1546 1.349 . S
C1535 C1533 1.327 . S
C1535 C1551 1.429 . S
C1535 H1557 0.950 . S
C1536 H1532 0.949 . S
C1536 C1544 1.552 1_545 S
C1536 C1552 1.368 . S
H1537 C1545 0.950 . S
H1538 C1543 0.950 . S
H1539 C1544 0.948 . S
H1540 C1546 0.950 . S
H1541 C1547 0.950 . S
H1542 C1548 0.948 . S
C1543 H1538 0.950 . S
C1543 C1545 1.327 . S
C1543 C1549 1.429 . S
C1544 C1536 1.552 1_565 S
C1544 H1539 0.948 . S
C1544 C1550 1.389 . S
C1545 C1529 1.349 . S
C1545 H1537 0.950 . S
C1545 C1543 1.327 . S
C1546 C1534 1.349 . S
C1546 H1540 0.950 . S
C1546 C1547 1.327 . S
C1547 H1541 0.950 . S
C1547 C1546 1.327 . S
C1547 C1551 1.429 . S
C1548 C1531 1.552 1_545 S
C1548 H1542 0.948 . S
C1548 C1552 1.389 . S
C1549 C1530 1.429 . S
C1549 C1543 1.429 . S
C1549 C1550 1.523 . S
C1550 C1531 1.368 . S
C1550 C1544 1.389 . S
C1550 C1549 1.523 . S
C1551 C1535 1.429 . S
C1551 C1547 1.429 . S
C1551 C1552 1.523 . S
C1552 C1536 1.368 . S
C1552 C1548 1.389 . S
C1552 C1551 1.523 . S
H1553 C1528 0.950 . S
H1554 C1530 0.950 . S
H1555 C1531 0.949 . S
H1556 C1533 0.950 . S
H1557 C1535 0.950 . S
C1558 C1559 1.349 . S
C1558 C1560 1.327 . S
C1558 H1583 0.950 . S
C1559 C1558 1.349 . S
C1559 C1575 1.349 . S
C1560 C1558 1.327 . S
C1560 C1579 1.429 . S
C1560 H1584 0.950 . S
C1561 C1578 1.574 1_655 S
C1561 C1580 1.368 . S
C1561 H1585 0.949 . S
H1562 C1566 0.949 . S
C1563 C1564 1.349 . S
C1563 C1565 1.327 . S
C1563 H1586 0.950 . S
C1564 C1563 1.349 . S
C1564 C1576 1.349 . S
C1565 C1563 1.327 . S
C1565 C1581 1.429 . S
C1565 H1587 0.950 . S
C1566 H1562 0.949 . S
C1566 C1574 1.574 1_455 S
C1566 C1582 1.368 . S
H1567 C1575 0.950 . S
H1568 C1573 0.950 . S
H1569 C1574 0.949 . S
H1570 C1576 0.950 . S
H1571 C1577 0.950 . S
H1572 C1578 0.949 . S
C1573 H1568 0.950 . S
C1573 C1575 1.327 . S
C1573 C1579 1.429 . S
C1574 C1566 1.574 1_655 S
C1574 H1569 0.949 . S
C1574 C1580 1.368 . S
C1575 C1559 1.349 . S
C1575 H1567 0.950 . S
C1575 C1573 1.327 . S
C1576 C1564 1.349 . S
C1576 H1570 0.950 . S
C1576 C1577 1.327 . S
C1577 H1571 0.950 . S
C1577 C1576 1.327 . S
C1577 C1581 1.429 . S
C1578 C1561 1.574 1_455 S
C1578 H1572 0.949 . S
C1578 C1582 1.368 . S
C1579 C1560 1.429 . S
C1579 C1573 1.429 . S
C1579 C1580 1.523 . S
C1580 C1561 1.368 . S
C1580 C1574 1.368 . S
C1580 C1579 1.523 . S
C1581 C1565 1.429 . S
C1581 C1577 1.429 . S
C1581 C1582 1.523 . S
C1582 C1566 1.368 . S
C1582 C1578 1.368 . S
C1582 C1581 1.523 . S
H1583 C1558 0.950 . S
H1584 C1560 0.950 . S
H1585 C1561 0.949 . S
H1586 C1563 0.950 . S
H1587 C1565 0.950 . S
C1588 C1589 1.349 . S
C1588 C1590 1.327 . S
C1588 H1613 0.950 . S
C1589 C1588 1.349 . S
C1589 C1605 1.349 . S
C1590 C1588 1.327 . S
C1590 C1609 1.429 . S
C1590 H1614 0.950 . S
C1591 C1608 1.531 1_565 S
C1591 C1610 1.368 . S
C1591 H1615 0.949 . S
H1592 C1596 0.949 . S
C1593 C1594 1.349 . S
C1593 C1595 1.327 . S
C1593 H1616 0.950 . S
C1594 C1593 1.349 . S
C1594 C1606 1.349 . S
C1595 C1593 1.327 . S
C1595 C1611 1.429 . S
C1595 H1617 0.950 . S
C1596 H1592 0.949 . S
C1596 C1604 1.531 1_545 S
C1596 C1612 1.368 . S
H1597 C1605 0.950 . S
H1598 C1603 0.950 . S
H1599 C1604 0.954 . S
H1600 C1606 0.950 . S
H1601 C1607 0.950 . S
H1602 C1608 0.954 . S
C1603 H1598 0.950 . S
C1603 C1605 1.327 . S
C1603 C1609 1.429 . S
C1604 C1596 1.531 1_565 S
C1604 H1599 0.954 . S
C1604 C1610 1.408 . S
C1605 C1589 1.349 . S
C1605 H1597 0.950 . S
C1605 C1603 1.327 . S
C1606 C1594 1.349 . S
C1606 H1600 0.950 . S
C1606 C1607 1.327 . S
C1607 H1601 0.950 . S
C1607 C1606 1.327 . S
C1607 C1611 1.429 . S
C1608 C1591 1.531 1_545 S
C1608 H1602 0.954 . S
C1608 C1612 1.408 . S
C1609 C1590 1.429 . S
C1609 C1603 1.429 . S
C1609 C1610 1.523 . S
C1610 C1591 1.368 . S
C1610 C1604 1.408 . S
C1610 C1609 1.523 . S
C1611 C1595 1.429 . S
C1611 C1607 1.429 . S
C1611 C1612 1.523 . S
C1612 C1596 1.368 . S
C1612 C1608 1.408 . S
C1612 C1611 1.523 . S
H1613 C1588 0.950 . S
H1614 C1590 0.950 . S
H1615 C1591 0.949 . S
H1616 C1593 0.950 . S
H1617 C1595 0.950 . S
C1618 C1619 1.349 . S
C1618 C1620 1.327 . S
C1618 H1643 0.950 . S
C1619 C1618 1.349 . S
C1619 C1635 1.349 . S
C1620 C1618 1.327 . S
C1620 C1639 1.429 . S
C1620 H1644 0.950 . S
C1621 C1638 1.574 1_655 S
C1621 C1640 1.368 . S
C1621 H1645 0.949 . S
H1622 C1626 0.949 . S
C1623 C1624 1.349 . S
C1623 C1625 1.327 . S
C1623 H1646 0.950 . S
C1624 C1623 1.349 . S
C1624 C1636 1.349 . S
C1625 C1623 1.327 . S
C1625 C1641 1.429 . S
C1625 H1647 0.950 . S
C1626 H1622 0.949 . S
C1626 C1634 1.574 1_455 S
C1626 C1642 1.368 . S
H1627 C1635 0.950 . S
H1628 C1633 0.950 . S
H1629 C1634 0.949 . S
H1630 C1636 0.950 . S
H1631 C1637 0.950 . S
H1632 C1638 0.949 . S
C1633 H1628 0.950 . S
C1633 C1635 1.327 . S
C1633 C1639 1.429 . S
C1634 C1626 1.574 1_655 S
C1634 H1629 0.949 . S
C1634 C1640 1.368 . S
C1635 C1619 1.349 . S
C1635 H1627 0.950 . S
C1635 C1633 1.327 . S
C1636 C1624 1.349 . S
C1636 H1630 0.950 . S
C1636 C1637 1.327 . S
C1637 H1631 0.950 . S
C1637 C1636 1.327 . S
C1637 C1641 1.429 . S
C1638 C1621 1.574 1_455 S
C1638 H1632 0.949 . S
C1638 C1642 1.368 . S
C1639 C1620 1.429 . S
C1639 C1633 1.429 . S
C1639 C1640 1.523 . S
C1640 C1621 1.368 . S
C1640 C1634 1.368 . S
C1640 C1639 1.523 . S
C1641 C1625 1.429 . S
C1641 C1637 1.429 . S
C1641 C1642 1.523 . S
C1642 C1626 1.368 . S
C1642 C1638 1.368 . S
C1642 C1641 1.523 . S
H1643 C1618 0.950 . S
H1644 C1620 0.950 . S
H1645 C1621 0.949 . S
H1646 C1623 0.950 . S
H1647 C1625 0.950 . S
C1648 C1649 1.349 . S
C1648 C1650 1.327 . S
C1648 H1673 0.950 . S
C1649 C1648 1.349 . S
C1649 C1665 1.349 . S
C1650 C1648 1.327 . S
C1650 C1669 1.429 . S
C1650 H1674 0.950 . S
C1651 C1668 1.574 . S
C1651 C1670 1.368 . S
C1651 H1675 0.949 . S
H1652 C1656 0.949 . S
C1653 C1654 1.349 . S
C1653 C1655 1.327 . S
C1653 H1676 0.950 . S
C1654 C1653 1.349 . S
C1654 C1666 1.349 . S
C1655 C1653 1.327 . S
C1655 C1671 1.429 . S
C1655 H1677 0.950 . S
C1656 H1652 0.949 . S
C1656 C1664 1.574 . S
C1656 C1672 1.368 . S
H1657 C1665 0.950 . S
H1658 C1663 0.950 . S
H1659 C1664 0.949 . S
H1660 C1666 0.950 . S
H1661 C1667 0.950 . S
H1662 C1668 0.949 . S
C1663 H1658 0.950 . S
C1663 C1665 1.327 . S
C1663 C1669 1.429 . S
C1664 C1656 1.574 . S
C1664 H1659 0.949 . S
C1664 C1670 1.368 . S
C1665 C1649 1.349 . S
C1665 H1657 0.950 . S
C1665 C1663 1.327 . S
C1666 C1654 1.349 . S
C1666 H1660 0.950 . S
C1666 C1667 1.327 . S
C1667 H1661 0.950 . S
C1667 C1666 1.327 . S
C1667 C1671 1.429 . S
C1668 C1651 1.574 . S
C1668 H1662 0.949 . S
C1668 C1672 1.368 . S
C1669 C1650 1.429 . S
C1669 C1663 1.429 . S
C1669 C1670 1.523 . S
C1670 C1651 1.368 . S
C1670 C1664 1.368 . S
C1670 C1669 1.523 . S
C1671 C1655 1.429 . S
C1671 C1667 1.429 . S
C1671 C1672 1.523 . S
C1672 C1656 1.368 . S
C1672 C1668 1.368 . S
C1672 C1671 1.523 . S
H1673 C1648 0.950 . S
H1674 C1650 0.950 . S
H1675 C1651 0.949 . S
H1676 C1653 0.950 . S
H1677 C1655 0.950 . S
C1678 C1679 1.349 . S
C1678 C1680 1.327 . S
C1678 H1703 0.950 . S
C1679 C1678 1.349 . S
C1679 C1695 1.349 . S
C1680 C1678 1.327 . S
C1680 C1699 1.429 . S
C1680 H1704 0.950 . S
C1681 C1698 1.574 . S
C1681 C1700 1.368 . S
C1681 H1705 0.949 . S
H1682 C1686 0.949 . S
C1683 C1684 1.349 . S
C1683 C1685 1.327 . S
C1683 H1706 0.950 . S
C1684 C1683 1.349 . S
C1684 C1696 1.349 . S
C1685 C1683 1.327 . S
C1685 C1701 1.429 . S
C1685 H1707 0.950 . S
C1686 H1682 0.949 . S
C1686 C1694 1.574 . S
C1686 C1702 1.368 . S
H1687 C1695 0.950 . S
H1688 C1693 0.950 . S
H1689 C1694 0.949 . S
H1690 C1696 0.950 . S
H1691 C1697 0.950 . S
H1692 C1698 0.949 . S
C1693 H1688 0.950 . S
C1693 C1695 1.327 . S
C1693 C1699 1.429 . S
C1694 C1686 1.574 . S
C1694 H1689 0.949 . S
C1694 C1700 1.368 . S
C1695 C1679 1.349 . S
C1695 H1687 0.950 . S
C1695 C1693 1.327 . S
C1696 C1684 1.349 . S
C1696 H1690 0.950 . S
C1696 C1697 1.327 . S
C1697 H1691 0.950 . S
C1697 C1696 1.327 . S
C1697 C1701 1.429 . S
C1698 C1681 1.574 . S
C1698 H1692 0.949 . S
C1698 C1702 1.368 . S
C1699 C1680 1.429 . S
C1699 C1693 1.429 . S
C1699 C1700 1.523 . S
C1700 C1681 1.368 . S
C1700 C1694 1.368 . S
C1700 C1699 1.523 . S
C1701 C1685 1.429 . S
C1701 C1697 1.429 . S
C1701 C1702 1.523 . S
C1702 C1686 1.368 . S
C1702 C1698 1.368 . S
C1702 C1701 1.523 . S
H1703 C1678 0.950 . S
H1704 C1680 0.950 . S
H1705 C1681 0.949 . S
H1706 C1683 0.950 . S
H1707 C1685 0.950 . S
C1708 C1709 1.349 . S
C1708 C1710 1.327 . S
C1708 H1733 0.950 . S
C1709 C1708 1.349 . S
C1709 C1725 1.349 . S
C1710 C1708 1.327 . S
C1710 C1729 1.429 . S
C1710 H1734 0.950 . S
C1711 C1728 1.574 . S
C1711 C1730 1.368 . S
C1711 H1735 0.949 . S
H1712 C1716 0.949 . S
C1713 C1714 1.349 . S
C1713 C1715 1.327 . S
C1713 H1736 0.950 . S
C1714 C1713 1.349 . S
C1714 C1726 1.349 . S
C1715 C1713 1.327 . S
C1715 C1731 1.429 . S
C1715 H1737 0.950 . S
C1716 H1712 0.949 . S
C1716 C1724 1.574 . S
C1716 C1732 1.368 . S
H1717 C1725 0.950 . S
H1718 C1723 0.950 . S
H1719 C1724 0.949 . S
H1720 C1726 0.950 . S
H1721 C1727 0.950 . S
H1722 C1728 0.949 . S
C1723 H1718 0.950 . S
C1723 C1725 1.327 . S
C1723 C1729 1.429 . S
C1724 C1716 1.574 . S
C1724 H1719 0.949 . S
C1724 C1730 1.368 . S
C1725 C1709 1.349 . S
C1725 H1717 0.950 . S
C1725 C1723 1.327 . S
C1726 C1714 1.349 . S
C1726 H1720 0.950 . S
C1726 C1727 1.327 . S
C1727 H1721 0.950 . S
C1727 C1726 1.327 . S
C1727 C1731 1.429 . S
C1728 C1711 1.574 . S
C1728 H1722 0.949 . S
C1728 C1732 1.368 . S
C1729 C1710 1.429 . S
C1729 C1723 1.429 . S
C1729 C1730 1.523 . S
C1730 C1711 1.368 . S
C1730 C1724 1.368 . S
C1730 C1729 1.523 . S
C1731 C1715 1.429 . S
C1731 C1727 1.429 . S
C1731 C1732 1.523 . S
C1732 C1716 1.368 . S
C1732 C1728 1.368 . S
C1732 C1731 1.523 . S
H1733 C1708 0.950 . S
H1734 C1710 0.950 . S
H1735 C1711 0.949 . S
H1736 C1713 0.950 . S
H1737 C1715 0.950 . S
C1738 C1739 1.349 . S
C1738 C1740 1.327 . S
C1738 H1763 0.950 . S
C1739 C1738 1.349 . S
C1739 C1755 1.349 . S
C1740 C1738 1.327 . S
C1740 C1759 1.429 . S
C1740 H1764 0.950 . S
C1741 C1758 1.574 . S
C1741 C1760 1.368 . S
C1741 H1765 0.949 . S
H1742 C1746 0.949 . S
C1743 C1744 1.349 . S
C1743 C1745 1.327 . S
C1743 H1766 0.950 . S
C1744 C1743 1.349 . S
C1744 C1756 1.349 . S
C1745 C1743 1.327 . S
C1745 C1761 1.429 . S
C1745 H1767 0.950 . S
C1746 H1742 0.949 . S
C1746 C1754 1.574 . S
C1746 C1762 1.368 . S
H1747 C1755 0.950 . S
H1748 C1753 0.950 . S
H1749 C1754 0.949 . S
H1750 C1756 0.950 . S
H1751 C1757 0.950 . S
H1752 C1758 0.949 . S
C1753 H1748 0.950 . S
C1753 C1755 1.327 . S
C1753 C1759 1.429 . S
C1754 C1746 1.574 . S
C1754 H1749 0.949 . S
C1754 C1760 1.368 . S
C1755 C1739 1.349 . S
C1755 H1747 0.950 . S
C1755 C1753 1.327 . S
C1756 C1744 1.349 . S
C1756 H1750 0.950 . S
C1756 C1757 1.327 . S
C1757 H1751 0.950 . S
C1757 C1756 1.327 . S
C1757 C1761 1.429 . S
C1758 C1741 1.574 . S
C1758 H1752 0.949 . S
C1758 C1762 1.368 . S
C1759 C1740 1.429 . S
C1759 C1753 1.429 . S
C1759 C1760 1.523 . S
C1760 C1741 1.368 . S
C1760 C1754 1.368 . S
C1760 C1759 1.523 . S
C1761 C1745 1.429 . S
C1761 C1757 1.429 . S
C1761 C1762 1.523 . S
C1762 C1746 1.368 . S
C1762 C1758 1.368 . S
C1762 C1761 1.523 . S
H1763 C1738 0.950 . S
H1764 C1740 0.950 . S
H1765 C1741 0.949 . S
H1766 C1743 0.950 . S
H1767 C1745 0.950 . S
C1768 C1769 1.349 . S
C1768 C1770 1.327 . S
C1768 H1793 0.950 . S
C1769 C1768 1.349 . S
C1769 C1785 1.349 . S
C1770 C1768 1.327 . S
C1770 C1789 1.429 . S
C1770 H1794 0.950 . S
C1771 C1788 1.574 . S
C1771 C1790 1.368 . S
C1771 H1795 0.949 . S
H1772 C1776 0.949 . S
C1773 C1774 1.349 . S
C1773 C1775 1.327 . S
C1773 H1796 0.950 . S
C1774 C1773 1.349 . S
C1774 C1786 1.349 . S
C1775 C1773 1.327 . S
C1775 C1791 1.429 . S
C1775 H1797 0.950 . S
C1776 H1772 0.949 . S
C1776 C1784 1.574 . S
C1776 C1792 1.368 . S
H1777 C1785 0.950 . S
H1778 C1783 0.950 . S
H1779 C1784 0.949 . S
H1780 C1786 0.950 . S
H1781 C1787 0.950 . S
H1782 C1788 0.949 . S
C1783 H1778 0.950 . S
C1783 C1785 1.327 . S
C1783 C1789 1.429 . S
C1784 C1776 1.574 . S
C1784 H1779 0.949 . S
C1784 C1790 1.368 . S
C1785 C1769 1.349 . S
C1785 H1777 0.950 . S
C1785 C1783 1.327 . S
C1786 C1774 1.349 . S
C1786 H1780 0.950 . S
C1786 C1787 1.327 . S
C1787 H1781 0.950 . S
C1787 C1786 1.327 . S
C1787 C1791 1.429 . S
C1788 C1771 1.574 . S
C1788 H1782 0.949 . S
C1788 C1792 1.368 . S
C1789 C1770 1.429 . S
C1789 C1783 1.429 . S
C1789 C1790 1.523 . S
C1790 C1771 1.368 . S
C1790 C1784 1.368 . S
C1790 C1789 1.523 . S
C1791 C1775 1.429 . S
C1791 C1787 1.429 . S
C1791 C1792 1.523 . S
C1792 C1776 1.368 . S
C1792 C1788 1.368 . S
C1792 C1791 1.523 . S
H1793 C1768 0.950 . S
H1794 C1770 0.950 . S
H1795 C1771 0.949 . S
H1796 C1773 0.950 . S
H1797 C1775 0.950 . S
C1798 C1799 1.349 . S
C1798 C1800 1.327 . S
C1798 H1823 0.950 . S
C1799 C1798 1.349 . S
C1799 C1815 1.349 . S
C1800 C1798 1.327 . S
C1800 C1819 1.429 . S
C1800 H1824 0.950 . S
C1801 C1818 1.574 . S
C1801 C1820 1.368 . S
C1801 H1825 0.949 . S
H1802 C1806 0.949 . S
C1803 C1804 1.349 . S
C1803 C1805 1.327 . S
C1803 H1826 0.950 . S
C1804 C1803 1.349 . S
C1804 C1816 1.349 . S
C1805 C1803 1.327 . S
C1805 C1821 1.429 . S
C1805 H1827 0.950 . S
C1806 H1802 0.949 . S
C1806 C1814 1.574 . S
C1806 C1822 1.368 . S
H1807 C1815 0.950 . S
H1808 C1813 0.950 . S
H1809 C1814 0.949 . S
H1810 C1816 0.950 . S
H1811 C1817 0.950 . S
H1812 C1818 0.949 . S
C1813 H1808 0.950 . S
C1813 C1815 1.327 . S
C1813 C1819 1.429 . S
C1814 C1806 1.574 . S
C1814 H1809 0.949 . S
C1814 C1820 1.368 . S
C1815 C1799 1.349 . S
C1815 H1807 0.950 . S
C1815 C1813 1.327 . S
C1816 C1804 1.349 . S
C1816 H1810 0.950 . S
C1816 C1817 1.327 . S
C1817 H1811 0.950 . S
C1817 C1816 1.327 . S
C1817 C1821 1.429 . S
C1818 C1801 1.574 . S
C1818 H1812 0.949 . S
C1818 C1822 1.368 . S
C1819 C1800 1.429 . S
C1819 C1813 1.429 . S
C1819 C1820 1.523 . S
C1820 C1801 1.368 . S
C1820 C1814 1.368 . S
C1820 C1819 1.523 . S
C1821 C1805 1.429 . S
C1821 C1817 1.429 . S
C1821 C1822 1.523 . S
C1822 C1806 1.368 . S
C1822 C1818 1.368 . S
C1822 C1821 1.523 . S
H1823 C1798 0.950 . S
H1824 C1800 0.950 . S
H1825 C1801 0.949 . S
H1826 C1803 0.950 . S
H1827 C1805 0.950 . S
C1828 C1829 1.349 . S
C1828 C1830 1.327 . S
C1828 H1853 0.950 . S
C1829 C1828 1.349 . S
C1829 C1845 1.349 . S
C1830 C1828 1.327 . S
C1830 C1849 1.429 . S
C1830 H1854 0.950 . S
C1831 C1848 1.574 . S
C1831 C1850 1.368 . S
C1831 H1855 0.949 . S
H1832 C1836 0.949 . S
C1833 C1834 1.349 . S
C1833 C1835 1.327 . S
C1833 H1856 0.950 . S
C1834 C1833 1.349 . S
C1834 C1846 1.349 . S
C1835 C1833 1.327 . S
C1835 C1851 1.429 . S
C1835 H1857 0.950 . S
C1836 H1832 0.949 . S
C1836 C1844 1.574 . S
C1836 C1852 1.368 . S
H1837 C1845 0.950 . S
H1838 C1843 0.950 . S
H1839 C1844 0.949 . S
H1840 C1846 0.950 . S
H1841 C1847 0.950 . S
H1842 C1848 0.949 . S
C1843 H1838 0.950 . S
C1843 C1845 1.327 . S
C1843 C1849 1.429 . S
C1844 C1836 1.574 . S
C1844 H1839 0.949 . S
C1844 C1850 1.368 . S
C1845 C1829 1.349 . S
C1845 H1837 0.950 . S
C1845 C1843 1.327 . S
C1846 C1834 1.349 . S
C1846 H1840 0.950 . S
C1846 C1847 1.327 . S
C1847 H1841 0.950 . S
C1847 C1846 1.327 . S
C1847 C1851 1.429 . S
C1848 C1831 1.574 . S
C1848 H1842 0.949 . S
C1848 C1852 1.368 . S
C1849 C1830 1.429 . S
C1849 C1843 1.429 . S
C1849 C1850 1.523 . S
C1850 C1831 1.368 . S
C1850 C1844 1.368 . S
C1850 C1849 1.523 . S
C1851 C1835 1.429 . S
C1851 C1847 1.429 . S
C1851 C1852 1.523 . S
C1852 C1836 1.368 . S
C1852 C1848 1.368 . S
C1852 C1851 1.523 . S
H1853 C1828 0.950 . S
H1854 C1830 0.950 . S
H1855 C1831 0.949 . S
H1856 C1833 0.950 . S
H1857 C1835 0.950 . S
C1858 C1859 1.349 . S
C1858 C1860 1.327 . S
C1858 H1883 0.950 . S
C1859 C1858 1.349 . S
C1859 C1875 1.349 . S
C1860 C1858 1.327 . S
C1860 C1879 1.429 . S
C1860 H1884 0.950 . S
C1861 C1878 1.574 . S
C1861 C1880 1.368 . S
C1861 H1885 0.949 . S
H1862 C1866 0.949 . S
C1863 C1864 1.349 . S
C1863 C1865 1.327 . S
C1863 H1886 0.950 . S
C1864 C1863 1.349 . S
C1864 C1876 1.349 . S
C1865 C1863 1.327 . S
C1865 C1881 1.429 . S
C1865 H1887 0.950 . S
C1866 H1862 0.949 . S
C1866 C1874 1.574 . S
C1866 C1882 1.368 . S
H1867 C1875 0.950 . S
H1868 C1873 0.950 . S
H1869 C1874 0.949 . S
H1870 C1876 0.950 . S
H1871 C1877 0.950 . S
H1872 C1878 0.949 . S
C1873 H1868 0.950 . S
C1873 C1875 1.327 . S
C1873 C1879 1.429 . S
C1874 C1866 1.574 . S
C1874 H1869 0.949 . S
C1874 C1880 1.368 . S
C1875 C1859 1.349 . S
C1875 H1867 0.950 . S
C1875 C1873 1.327 . S
C1876 C1864 1.349 . S
C1876 H1870 0.950 . S
C1876 C1877 1.327 . S
C1877 H1871 0.950 . S
C1877 C1876 1.327 . S
C1877 C1881 1.429 . S
C1878 C1861 1.574 . S
C1878 H1872 0.949 . S
C1878 C1882 1.368 . S
C1879 C1860 1.429 . S
C1879 C1873 1.429 . S
C1879 C1880 1.523 . S
C1880 C1861 1.368 . S
C1880 C1874 1.368 . S
C1880 C1879 1.523 . S
C1881 C1865 1.429 . S
C1881 C1877 1.429 . S
C1881 C1882 1.523 . S
C1882 C1866 1.368 . S
C1882 C1878 1.368 . S
C1882 C1881 1.523 . S
H1883 C1858 0.950 . S
H1884 C1860 0.950 . S
H1885 C1861 0.949 . S
H1886 C1863 0.950 . S
H1887 C1865 0.950 . S
C1888 C1889 1.349 . S
C1888 C1890 1.327 . S
C1888 H1913 0.950 . S
C1889 C1888 1.349 . S
C1889 C1905 1.349 . S
C1890 C1888 1.327 . S
C1890 C1909 1.429 . S
C1890 H1914 0.950 . S
C1891 C1908 1.574 . S
C1891 C1910 1.368 . S
C1891 H1915 0.949 . S
H1892 C1896 0.949 . S
C1893 C1894 1.349 . S
C1893 C1895 1.327 . S
C1893 H1916 0.950 . S
C1894 C1893 1.349 . S
C1894 C1906 1.349 . S
C1895 C1893 1.327 . S
C1895 C1911 1.429 . S
C1895 H1917 0.950 . S
C1896 H1892 0.949 . S
C1896 C1904 1.574 . S
C1896 C1912 1.368 . S
H1897 C1905 0.950 . S
H1898 C1903 0.950 . S
H1899 C1904 0.949 . S
H1900 C1906 0.950 . S
H1901 C1907 0.950 . S
H1902 C1908 0.949 . S
C1903 H1898 0.950 . S
C1903 C1905 1.327 . S
C1903 C1909 1.429 . S
C1904 C1896 1.574 . S
C1904 H1899 0.949 . S
C1904 C1910 1.368 . S
C1905 C1889 1.349 . S
C1905 H1897 0.950 . S
C1905 C1903 1.327 . S
C1906 C1894 1.349 . S
C1906 H1900 0.950 . S
C1906 C1907 1.327 . S
C1907 H1901 0.950 . S
C1907 C1906 1.327 . S
C1907 C1911 1.429 . S
C1908 C1891 1.574 . S
C1908 H1902 0.949 . S
C1908 C1912 1.368 . S
C1909 C1890 1.429 . S
C1909 C1903 1.429 . S
C1909 C1910 1.523 . S
C1910 C1891 1.368 . S
C1910 C1904 1.368 . S
C1910 C1909 1.523 . S
C1911 C1895 1.429 . S
C1911 C1907 1.429 . S
C1911 C1912 1.523 . S
C1912 C1896 1.368 . S
C1912 C1908 1.368 . S
C1912 C1911 1.523 . S
H1913 C1888 0.950 . S
H1914 C1890 0.950 . S
H1915 C1891 0.949 . S
H1916 C1893 0.950 . S
H1917 C1895 0.950 . S
C1918 C1919 1.349 . S
C1918 C1920 1.327 . S
C1918 H1943 0.950 . S
C1919 C1918 1.349 . S
C1919 C1935 1.349 . S
C1920 C1918 1.327 . S
C1920 C1939 1.429 . S
C1920 H1944 0.950 . S
C1921 C1938 1.574 . S
C1921 C1940 1.368 . S
C1921 H1945 0.949 . S
H1922 C1926 0.949 . S
C1923 C1924 1.349 . S
C1923 C1925 1.327 . S
C1923 H1946 0.950 . S
C1924 C1923 1.349 . S
C1924 C1936 1.349 . S
C1925 C1923 1.327 . S
C1925 C1941 1.429 . S
C1925 H1947 0.950 . S
C1926 H1922 0.949 . S
C1926 C1934 1.574 . S
C1926 C1942 1.368 . S
H1927 C1935 0.950 . S
H1928 C1933 0.950 . S
H1929 C1934 0.949 . S
H1930 C1936 0.950 . S
H1931 C1937 0.950 . S
H1932 C1938 0.949 . S
C1933 H1928 0.950 . S
C1933 C1935 1.327 . S
C1933 C1939 1.429 . S
C1934 C1926 1.574 . S
C1934 H1929 0.949 . S
C1934 C1940 1.368 . S
C1935 C1919 1.349 . S
C1935 H1927 0.950 . S
C1935 C1933 1.327 . S
C1936 C1924 1.349 . S
C1936 H1930 0.950 . S
C1936 C1937 1.327 . S
C1937 H1931 0.950 . S
C1937 C1936 1.327 . S
C1937 C1941 1.429 . S
C1938 C1921 1.574 . S
C1938 H1932 0.949 . S
C1938 C1942 1.368 . S
C1939 C1920 1.429 . S
C1939 C1933 1.429 . S
C1939 C1940 1.523 . S
C1940 C1921 1.368 . S
C1940 C1934 1.368 . S
C1940 C1939 1.523 . S
C1941 C1925 1.429 . S
C1941 C1937 1.429 . S
C1941 C1942 1.523 . S
C1942 C1926 1.368 . S
C1942 C1938 1.368 . S
C1942 C1941 1.523 . S
H1943 C1918 0.950 . S
H1944 C1920 0.950 . S
H1945 C1921 0.949 . S
H1946 C1923 0.950 . S
H1947 C1925 0.950 . S
C1948 C1949 1.349 . S
C1948 C1950 1.327 . S
C1948 H1973 0.950 . S
C1949 C1948 1.349 . S
C1949 C1965 1.349 . S
C1950 C1948 1.327 . S
C1950 C1969 1.429 . S
C1950 H1974 0.950 . S
C1951 C1968 1.574 . S
C1951 C1970 1.368 . S
C1951 H1975 0.949 . S
H1952 C1956 0.949 . S
C1953 C1954 1.349 . S
C1953 C1955 1.327 . S
C1953 H1976 0.950 . S
C1954 C1953 1.349 . S
C1954 C1966 1.349 . S
C1955 C1953 1.327 . S
C1955 C1971 1.429 . S
C1955 H1977 0.950 . S
C1956 H1952 0.949 . S
C1956 C1964 1.574 . S
C1956 C1972 1.368 . S
H1957 C1965 0.950 . S
H1958 C1963 0.950 . S
H1959 C1964 0.949 . S
H1960 C1966 0.950 . S
H1961 C1967 0.950 . S
H1962 C1968 0.949 . S
C1963 H1958 0.950 . S
C1963 C1965 1.327 . S
C1963 C1969 1.429 . S
C1964 C1956 1.574 . S
C1964 H1959 0.949 . S
C1964 C1970 1.368 . S
C1965 C1949 1.349 . S
C1965 H1957 0.950 . S
C1965 C1963 1.327 . S
C1966 C1954 1.349 . S
C1966 H1960 0.950 . S
C1966 C1967 1.327 . S
C1967 H1961 0.950 . S
C1967 C1966 1.327 . S
C1967 C1971 1.429 . S
C1968 C1951 1.574 . S
C1968 H1962 0.949 . S
C1968 C1972 1.368 . S
C1969 C1950 1.429 . S
C1969 C1963 1.429 . S
C1969 C1970 1.523 . S
C1970 C1951 1.368 . S
C1970 C1964 1.368 . S
C1970 C1969 1.523 . S
C1971 C1955 1.429 . S
C1971 C1967 1.429 . S
C1971 C1972 1.523 . S
C1972 C1956 1.368 . S
C1972 C1968 1.368 . S
C1972 C1971 1.523 . S
H1973 C1948 0.950 . S
H1974 C1950 0.950 . S
H1975 C1951 0.949 . S
H1976 C1953 0.950 . S
H1977 C1955 0.950 . S
C1978 C1979 1.349 . S
C1978 C1980 1.327 . S
C1978 H2003 0.950 . S
C1979 C1978 1.349 . S
C1979 C1995 1.349 . S
C1980 C1978 1.327 . S
C1980 C1999 1.429 . S
C1980 H2004 0.950 . S
C1981 C1998 1.574 . S
C1981 C2000 1.368 . S
C1981 H2005 0.949 . S
H1982 C1986 0.949 . S
C1983 C1984 1.349 . S
C1983 C1985 1.327 . S
C1983 H2006 0.950 . S
C1984 C1983 1.349 . S
C1984 C1996 1.349 . S
C1985 C1983 1.327 . S
C1985 C2001 1.429 . S
C1985 H2007 0.950 . S
C1986 H1982 0.949 . S
C1986 C1994 1.574 . S
C1986 C2002 1.368 . S
H1987 C1995 0.950 . S
H1988 C1993 0.950 . S
H1989 C1994 0.949 . S
H1990 C1996 0.950 . S
H1991 C1997 0.950 . S
H1992 C1998 0.949 . S
C1993 H1988 0.950 . S
C1993 C1995 1.327 . S
C1993 C1999 1.429 . S
C1994 C1986 1.574 . S
C1994 H1989 0.949 . S
C1994 C2000 1.368 . S
C1995 C1979 1.349 . S
C1995 H1987 0.950 . S
C1995 C1993 1.327 . S
C1996 C1984 1.349 . S
C1996 H1990 0.950 . S
C1996 C1997 1.327 . S
C1997 H1991 0.950 . S
C1997 C1996 1.327 . S
C1997 C2001 1.429 . S
C1998 C1981 1.574 . S
C1998 H1992 0.949 . S
C1998 C2002 1.368 . S
C1999 C1980 1.429 . S
C1999 C1993 1.429 . S
C1999 C2000 1.523 . S
C2000 C1981 1.368 . S
C2000 C1994 1.368 . S
C2000 C1999 1.523 . S
C2001 C1985 1.429 . S
C2001 C1997 1.429 . S
C2001 C2002 1.523 . S
C2002 C1986 1.368 . S
C2002 C1998 1.368 . S
C2002 C2001 1.523 . S
H2003 C1978 0.950 . S
H2004 C1980 0.950 . S
H2005 C1981 0.949 . S
H2006 C1983 0.950 . S
H2007 C1985 0.950 . S
C2008 C2009 1.349 . S
C2008 C2010 1.327 . S
C2008 H2033 0.950 . S
C2009 C2008 1.349 . S
C2009 C2025 1.349 . S
C2010 C2008 1.327 . S
C2010 C2029 1.429 . S
C2010 H2034 0.950 . S
C2011 C2028 1.574 . S
C2011 C2030 1.368 . S
C2011 H2035 0.949 . S
H2012 C2016 0.949 . S
C2013 C2014 1.349 . S
C2013 C2015 1.327 . S
C2013 H2036 0.950 . S
C2014 C2013 1.349 . S
C2014 C2026 1.349 . S
C2015 C2013 1.327 . S
C2015 C2031 1.429 . S
C2015 H2037 0.950 . S
C2016 H2012 0.949 . S
C2016 C2024 1.574 . S
C2016 C2032 1.368 . S
H2017 C2025 0.950 . S
H2018 C2023 0.950 . S
H2019 C2024 0.949 . S
H2020 C2026 0.950 . S
H2021 C2027 0.950 . S
H2022 C2028 0.949 . S
C2023 H2018 0.950 . S
C2023 C2025 1.327 . S
C2023 C2029 1.429 . S
C2024 C2016 1.574 . S
C2024 H2019 0.949 . S
C2024 C2030 1.368 . S
C2025 C2009 1.349 . S
C2025 H2017 0.950 . S
C2025 C2023 1.327 . S
C2026 C2014 1.349 . S
C2026 H2020 0.950 . S
C2026 C2027 1.327 . S
C2027 H2021 0.950 . S
C2027 C2026 1.327 . S
C2027 C2031 1.429 . S
C2028 C2011 1.574 . S
C2028 H2022 0.949 . S
C2028 C2032 1.368 . S
C2029 C2010 1.429 . S
C2029 C2023 1.429 . S
C2029 C2030 1.523 . S
C2030 C2011 1.368 . S
C2030 C2024 1.368 . S
C2030 C2029 1.523 . S
C2031 C2015 1.429 . S
C2031 C2027 1.429 . S
C2031 C2032 1.523 . S
C2032 C2016 1.368 . S
C2032 C2028 1.368 . S
C2032 C2031 1.523 . S
H2033 C2008 0.950 . S
H2034 C2010 0.950 . S
H2035 C2011 0.949 . S
H2036 C2013 0.950 . S
H2037 C2015 0.950 . S
C2038 C2039 1.349 . S
C2038 C2040 1.327 . S
C2038 H2063 0.950 . S
C2039 C2038 1.349 . S
C2039 C2055 1.349 . S
C2040 C2038 1.327 . S
C2040 C2059 1.429 . S
C2040 H2064 0.950 . S
C2041 C2058 1.574 . S
C2041 C2060 1.368 . S
C2041 H2065 0.949 . S
H2042 C2046 0.949 . S
C2043 C2044 1.349 . S
C2043 C2045 1.327 . S
C2043 H2066 0.950 . S
C2044 C2043 1.349 . S
C2044 C2056 1.349 . S
C2045 C2043 1.327 . S
C2045 C2061 1.429 . S
C2045 H2067 0.950 . S
C2046 H2042 0.949 . S
C2046 C2054 1.574 . S
C2046 C2062 1.368 . S
H2047 C2055 0.950 . S
H2048 C2053 0.950 . S
H2049 C2054 0.949 . S
H2050 C2056 0.950 . S
H2051 C2057 0.950 . S
H2052 C2058 0.949 . S
C2053 H2048 0.950 . S
C2053 C2055 1.327 . S
C2053 C2059 1.429 . S
C2054 C2046 1.574 . S
C2054 H2049 0.949 . S
C2054 C2060 1.368 . S
C2055 C2039 1.349 . S
C2055 H2047 0.950 . S
C2055 C2053 1.327 . S
C2056 C2044 1.349 . S
C2056 H2050 0.950 . S
C2056 C2057 1.327 . S
C2057 H2051 0.950 . S
C2057 C2056 1.327 . S
C2057 C2061 1.429 . S
C2058 C2041 1.574 . S
C2058 H2052 0.949 . S
C2058 C2062 1.368 . S
C2059 C2040 1.429 . S
C2059 C2053 1.429 . S
C2059 C2060 1.523 . S
C2060 C2041 1.368 . S
C2060 C2054 1.368 . S
C2060 C2059 1.523 . S
C2061 C2045 1.429 . S
C2061 C2057 1.429 . S
C2061 C2062 1.523 . S
C2062 C2046 1.368 . S
C2062 C2058 1.368 . S
C2062 C2061 1.523 . S
H2063 C2038 0.950 . S
H2064 C2040 0.950 . S
H2065 C2041 0.949 . S
H2066 C2043 0.950 . S
H2067 C2045 0.950 . S
C2068 C2069 1.349 . S
C2068 C2070 1.327 . S
C2068 H2093 0.950 . S
C2069 C2068 1.349 . S
C2069 C2085 1.349 . S
C2070 C2068 1.327 . S
C2070 C2089 1.429 . S
C2070 H2094 0.950 . S
C2071 C2088 1.574 . S
C2071 C2090 1.368 . S
C2071 H2095 0.949 . S
H2072 C2076 0.949 . S
C2073 C2074 1.349 . S
C2073 C2075 1.327 . S
C2073 H2096 0.950 . S
C2074 C2073 1.349 . S
C2074 C2086 1.349 . S
C2075 C2073 1.327 . S
C2075 C2091 1.429 . S
C2075 H2097 0.950 . S
C2076 H2072 0.949 . S
C2076 C2084 1.574 . S
C2076 C2092 1.368 . S
H2077 C2085 0.950 . S
H2078 C2083 0.950 . S
H2079 C2084 0.949 . S
H2080 C2086 0.950 . S
H2081 C2087 0.950 . S
H2082 C2088 0.949 . S
C2083 H2078 0.950 . S
C2083 C2085 1.327 . S
C2083 C2089 1.429 . S
C2084 C2076 1.574 . S
C2084 H2079 0.949 . S
C2084 C2090 1.368 . S
C2085 C2069 1.349 . S
C2085 H2077 0.950 . S
C2085 C2083 1.327 . S
C2086 C2074 1.349 . S
C2086 H2080 0.950 . S
C2086 C2087 1.327 . S
C2087 H2081 0.950 . S
C2087 C2086 1.327 . S
C2087 C2091 1.429 . S
C2088 C2071 1.574 . S
C2088 H2082 0.949 . S
C2088 C2092 1.368 . S
C2089 C2070 1.429 . S
C2089 C2083 1.429 . S
C2089 C2090 1.523 . S
C2090 C2071 1.368 . S
C2090 C2084 1.368 . S
C2090 C2089 1.523 . S
C2091 C2075 1.429 . S
C2091 C2087 1.429 . S
C2091 C2092 1.523 . S
C2092 C2076 1.368 . S
C2092 C2088 1.368 . S
C2092 C2091 1.523 . S
H2093 C2068 0.950 . S
H2094 C2070 0.950 . S
H2095 C2071 0.949 . S
H2096 C2073 0.950 . S
H2097 C2075 0.950 . S
C2098 C2099 1.349 . S
C2098 C2100 1.327 . S
C2098 H2123 0.950 . S
C2099 C2098 1.349 . S
C2099 C2115 1.349 . S
C2100 C2098 1.327 . S
C2100 C2119 1.429 . S
C2100 H2124 0.950 . S
C2101 C2118 1.574 . S
C2101 C2120 1.368 . S
C2101 H2125 0.949 . S
H2102 C2106 0.949 . S
C2103 C2104 1.349 . S
C2103 C2105 1.327 . S
C2103 H2126 0.950 . S
C2104 C2103 1.349 . S
C2104 C2116 1.349 . S
C2105 C2103 1.327 . S
C2105 C2121 1.429 . S
C2105 H2127 0.950 . S
C2106 H2102 0.949 . S
C2106 C2114 1.574 . S
C2106 C2122 1.368 . S
H2107 C2115 0.950 . S
H2108 C2113 0.950 . S
H2109 C2114 0.949 . S
H2110 C2116 0.950 . S
H2111 C2117 0.950 . S
H2112 C2118 0.949 . S
C2113 H2108 0.950 . S
C2113 C2115 1.327 . S
C2113 C2119 1.429 . S
C2114 C2106 1.574 . S
C2114 H2109 0.949 . S
C2114 C2120 1.368 . S
C2115 C2099 1.349 . S
C2115 H2107 0.950 . S
C2115 C2113 1.327 . S
C2116 C2104 1.349 . S
C2116 H2110 0.950 . S
C2116 C2117 1.327 . S
C2117 H2111 0.950 . S
C2117 C2116 1.327 . S
C2117 C2121 1.429 . S
C2118 C2101 1.574 . S
C2118 H2112 0.949 . S
C2118 C2122 1.368 . S
C2119 C2100 1.429 . S
C2119 C2113 1.429 . S
C2119 C2120 1.523 . S
C2120 C2101 1.368 . S
C2120 C2114 1.368 . S
C2120 C2119 1.523 . S
C2121 C2105 1.429 . S
C2121 C2117 1.429 . S
C2121 C2122 1.523 . S
C2122 C2106 1.368 . S
C2122 C2118 1.368 . S
C2122 C2121 1.523 . S
H2123 C2098 0.950 . S
H2124 C2100 0.950 . S
H2125 C2101 0.949 . S
H2126 C2103 0.950 . S
H2127 C2105 0.950 . S
C2128 C2129 1.349 . S
C2128 C2130 1.327 . S
C2128 H2153 0.950 . S
C2129 C2128 1.349 . S
C2129 C2145 1.349 . S
C2130 C2128 1.327 . S
C2130 C2149 1.429 . S
C2130 H2154 0.950 . S
C2131 C2148 1.574 . S
C2131 C2150 1.368 . S
C2131 H2155 0.949 . S
H2132 C2136 0.949 . S
C2133 C2134 1.349 . S
C2133 C2135 1.327 . S
C2133 H2156 0.950 . S
C2134 C2133 1.349 . S
C2134 C2146 1.349 . S
C2135 C2133 1.327 . S
C2135 C2151 1.429 . S
C2135 H2157 0.950 . S
C2136 H2132 0.949 . S
C2136 C2144 1.574 . S
C2136 C2152 1.368 . S
H2137 C2145 0.950 . S
H2138 C2143 0.950 . S
H2139 C2144 0.949 . S
H2140 C2146 0.950 . S
H2141 C2147 0.950 . S
H2142 C2148 0.949 . S
C2143 H2138 0.950 . S
C2143 C2145 1.327 . S
C2143 C2149 1.429 . S
C2144 C2136 1.574 . S
C2144 H2139 0.949 . S
C2144 C2150 1.368 . S
C2145 C2129 1.349 . S
C2145 H2137 0.950 . S
C2145 C2143 1.327 . S
C2146 C2134 1.349 . S
C2146 H2140 0.950 . S
C2146 C2147 1.327 . S
C2147 H2141 0.950 . S
C2147 C2146 1.327 . S
C2147 C2151 1.429 . S
C2148 C2131 1.574 . S
C2148 H2142 0.949 . S
C2148 C2152 1.368 . S
C2149 C2130 1.429 . S
C2149 C2143 1.429 . S
C2149 C2150 1.523 . S
C2150 C2131 1.368 . S
C2150 C2144 1.368 . S
C2150 C2149 1.523 . S
C2151 C2135 1.429 . S
C2151 C2147 1.429 . S
C2151 C2152 1.523 . S
C2152 C2136 1.368 . S
C2152 C2148 1.368 . S
C2152 C2151 1.523 . S
H2153 C2128 0.950 . S
H2154 C2130 0.950 . S
H2155 C2131 0.949 . S
H2156 C2133 0.950 . S
H2157 C2135 0.950 . S
C2158 C2159 1.349 . S
C2158 C2160 1.327 . S
C2158 H2183 0.950 . S
C2159 C2158 1.349 . S
C2159 C2175 1.349 . S
C2160 C2158 1.327 . S
C2160 C2179 1.429 . S
C2160 H2184 0.950 . S
C2161 C2178 1.574 . S
C2161 C2180 1.368 . S
C2161 H2185 0.949 . S
H2162 C2166 0.949 . S
C2163 C2164 1.349 . S
C2163 C2165 1.327 . S
C2163 H2186 0.950 . S
C2164 C2163 1.349 . S
C2164 C2176 1.349 . S
C2165 C2163 1.327 . S
C2165 C2181 1.429 . S
C2165 H2187 0.950 . S
C2166 H2162 0.949 . S
C2166 C2174 1.574 . S
C2166 C2182 1.368 . S
H2167 C2175 0.950 . S
H2168 C2173 0.950 . S
H2169 C2174 0.949 . S
H2170 C2176 0.950 . S
H2171 C2177 0.950 . S
H2172 C2178 0.949 . S
C2173 H2168 0.950 . S
C2173 C2175 1.327 . S
C2173 C2179 1.429 . S
C2174 C2166 1.574 . S
C2174 H2169 0.949 . S
C2174 C2180 1.368 . S
C2175 C2159 1.349 . S
C2175 H2167 0.950 . S
C2175 C2173 1.327 . S
C2176 C2164 1.349 . S
C2176 H2170 0.950 . S
C2176 C2177 1.327 . S
C2177 H2171 0.950 . S
C2177 C2176 1.327 . S
C2177 C2181 1.429 . S
C2178 C2161 1.574 . S
C2178 H2172 0.949 . S
C2178 C2182 1.368 . S
C2179 C2160 1.429 . S
C2179 C2173 1.429 . S
C2179 C2180 1.523 . S
C2180 C2161 1.368 . S
C2180 C2174 1.368 . S
C2180 C2179 1.523 . S
C2181 C2165 1.429 . S
C2181 C2177 1.429 . S
C2181 C2182 1.523 . S
C2182 C2166 1.368 . S
C2182 C2178 1.368 . S
C2182 C2181 1.523 . S
H2183 C2158 0.950 . S
H2184 C2160 0.950 . S
H2185 C2161 0.949 . S
H2186 C2163 0.950 . S
H2187 C2165 0.950 . S
C2188 C2189 1.349 . S
C2188 C2190 1.327 . S
C2188 H2213 0.950 . S
C2189 C2188 1.349 . S
C2189 C2205 1.349 . S
C2190 C2188 1.327 . S
C2190 C2209 1.429 . S
C2190 H2214 0.950 . S
C2191 C2208 1.574 . S
C2191 C2210 1.368 . S
C2191 H2215 0.949 . S
H2192 C2196 0.949 . S
C2193 C2194 1.349 . S
C2193 C2195 1.327 . S
C2193 H2216 0.950 . S
C2194 C2193 1.349 . S
C2194 C2206 1.349 . S
C2195 C2193 1.327 . S
C2195 C2211 1.429 . S
C2195 H2217 0.950 . S
C2196 H2192 0.949 . S
C2196 C2204 1.574 . S
C2196 C2212 1.368 . S
H2197 C2205 0.950 . S
H2198 C2203 0.950 . S
H2199 C2204 0.949 . S
H2200 C2206 0.950 . S
H2201 C2207 0.950 . S
H2202 C2208 0.949 . S
C2203 H2198 0.950 . S
C2203 C2205 1.327 . S
C2203 C2209 1.429 . S
C2204 C2196 1.574 . S
C2204 H2199 0.949 . S
C2204 C2210 1.368 . S
C2205 C2189 1.349 . S
C2205 H2197 0.950 . S
C2205 C2203 1.327 . S
C2206 C2194 1.349 . S
C2206 H2200 0.950 . S
C2206 C2207 1.327 . S
C2207 H2201 0.950 . S
C2207 C2206 1.327 . S
C2207 C2211 1.429 . S
C2208 C2191 1.574 . S
C2208 H2202 0.949 . S
C2208 C2212 1.368 . S
C2209 C2190 1.429 . S
C2209 C2203 1.429 . S
C2209 C2210 1.523 . S
C2210 C2191 1.368 . S
C2210 C2204 1.368 . S
C2210 C2209 1.523 . S
C2211 C2195 1.429 . S
C2211 C2207 1.429 . S
C2211 C2212 1.523 . S
C2212 C2196 1.368 . S
C2212 C2208 1.368 . S
C2212 C2211 1.523 . S
H2213 C2188 0.950 . S
H2214 C2190 0.950 . S
H2215 C2191 0.949 . S
H2216 C2193 0.950 . S
H2217 C2195 0.950 . S
C2218 C2219 1.349 . S
C2218 C2220 1.327 . S
C2218 H2243 0.950 . S
C2219 C2218 1.349 . S
C2219 C2235 1.349 . S
C2220 C2218 1.327 . S
C2220 C2239 1.429 . S
C2220 H2244 0.950 . S
C2221 C2238 1.574 . S
C2221 C2240 1.368 . S
C2221 H2245 0.949 . S
H2222 C2226 0.949 . S
C2223 C2224 1.349 . S
C2223 C2225 1.327 . S
C2223 H2246 0.950 . S
C2224 C2223 1.349 . S
C2224 C2236 1.349 . S
C2225 C2223 1.327 . S
C2225 C2241 1.429 . S
C2225 H2247 0.950 . S
C2226 H2222 0.949 . S
C2226 C2234 1.574 . S
C2226 C2242 1.368 . S
H2227 C2235 0.950 . S
H2228 C2233 0.950 . S
H2229 C2234 0.949 . S
H2230 C2236 0.950 . S
H2231 C2237 0.950 . S
H2232 C2238 0.949 . S
C2233 H2228 0.950 . S
C2233 C2235 1.327 . S
C2233 C2239 1.429 . S
C2234 C2226 1.574 . S
C2234 H2229 0.949 . S
C2234 C2240 1.368 . S
C2235 C2219 1.349 . S
C2235 H2227 0.950 . S
C2235 C2233 1.327 . S
C2236 C2224 1.349 . S
C2236 H2230 0.950 . S
C2236 C2237 1.327 . S
C2237 H2231 0.950 . S
C2237 C2236 1.327 . S
C2237 C2241 1.429 . S
C2238 C2221 1.574 . S
C2238 H2232 0.949 . S
C2238 C2242 1.368 . S
C2239 C2220 1.429 . S
C2239 C2233 1.429 . S
C2239 C2240 1.523 . S
C2240 C2221 1.368 . S
C2240 C2234 1.368 . S
C2240 C2239 1.523 . S
C2241 C2225 1.429 . S
C2241 C2237 1.429 . S
C2241 C2242 1.523 . S
C2242 C2226 1.368 . S
C2242 C2238 1.368 . S
C2242 C2241 1.523 . S
H2243 C2218 0.950 . S
H2244 C2220 0.950 . S
H2245 C2221 0.949 . S
H2246 C2223 0.950 . S
H2247 C2225 0.950 . S
C2248 C2249 1.349 . S
C2248 C2250 1.327 . S
C2248 H2273 0.950 . S
C2249 C2248 1.349 . S
C2249 C2265 1.349 . S
C2250 C2248 1.327 . S
C2250 C2269 1.429 . S
C2250 H2274 0.950 . S
C2251 C2268 1.574 . S
C2251 C2270 1.368 . S
C2251 H2275 0.949 . S
H2252 C2256 0.949 . S
C2253 C2254 1.349 . S
C2253 C2255 1.327 . S
C2253 H2276 0.950 . S
C2254 C2253 1.349 . S
C2254 C2266 1.349 . S
C2255 C2253 1.327 . S
C2255 C2271 1.429 . S
C2255 H2277 0.950 . S
C2256 H2252 0.949 . S
C2256 C2264 1.574 . S
C2256 C2272 1.368 . S
H2257 C2265 0.950 . S
H2258 C2263 0.950 . S
H2259 C2264 0.949 . S
H2260 C2266 0.950 . S
H2261 C2267 0.950 . S
H2262 C2268 0.949 . S
C2263 H2258 0.950 . S
C2263 C2265 1.327 . S
C2263 C2269 1.429 . S
C2264 C2256 1.574 . S
C2264 H2259 0.949 . S
C2264 C2270 1.368 . S
C2265 C2249 1.349 . S
C2265 H2257 0.950 . S
C2265 C2263 1.327 . S
C2266 C2254 1.349 . S
C2266 H2260 0.950 . S
C2266 C2267 1.327 . S
C2267 H2261 0.950 . S
C2267 C2266 1.327 . S
C2267 C2271 1.429 . S
C2268 C2251 1.574 . S
C2268 H2262 0.949 . S
C2268 C2272 1.368 . S
C2269 C2250 1.429 . S
C2269 C2263 1.429 . S
C2269 C2270 1.523 . S
C2270 C2251 1.368 . S
C2270 C2264 1.368 . S
C2270 C2269 1.523 . S
C2271 C2255 1.429 . S
C2271 C2267 1.429 . S
C2271 C2272 1.523 . S
C2272 C2256 1.368 . S
C2272 C2268 1.368 . S
C2272 C2271 1.523 . S
H2273 C2248 0.950 . S
H2274 C2250 0.950 . S
H2275 C2251 0.949 . S
H2276 C2253 0.950 . S
H2277 C2255 0.950 . S
C2278 C2279 1.349 . S
C2278 C2280 1.327 . S
C2278 H2303 0.950 . S
C2279 C2278 1.349 . S
C2279 C2295 1.349 . S
C2280 C2278 1.327 . S
C2280 C2299 1.429 . S
C2280 H2304 0.950 . S
C2281 C2298 1.574 . S
C2281 C2300 1.368 . S
C2281 H2305 0.949 . S
H2282 C2286 0.949 . S
C2283 C2284 1.349 . S
C2283 C2285 1.327 . S
C2283 H2306 0.950 . S
C2284 C2283 1.349 . S
C2284 C2296 1.349 . S
C2285 C2283 1.327 . S
C2285 C2301 1.429 . S
C2285 H2307 0.950 . S
C2286 H2282 0.949 . S
C2286 C2294 1.574 . S
C2286 C2302 1.368 . S
H2287 C2295 0.950 . S
H2288 C2293 0.950 . S
H2289 C2294 0.949 . S
H2290 C2296 0.950 . S
H2291 C2297 0.950 . S
H2292 C2298 0.949 . S
C2293 H2288 0.950 . S
C2293 C2295 1.327 . S
C2293 C2299 1.429 . S
C2294 C2286 1.574 . S
C2294 H2289 0.949 . S
C2294 C2300 1.368 . S
C2295 C2279 1.349 . S
C2295 H2287 0.950 . S
C2295 C2293 1.327 . S
C2296 C2284 1.349 . S
C2296 H2290 0.950 . S
C2296 C2297 1.327 . S
C2297 H2291 0.950 . S
C2297 C2296 1.327 . S
C2297 C2301 1.429 . S
C2298 C2281 1.574 . S
C2298 H2292 0.949 . S
C2298 C2302 1.368 . S
C2299 C2280 1.429 . S
C2299 C2293 1.429 . S
C2299 C2300 1.523 . S
C2300 C2281 1.368 . S
C2300 C2294 1.368 . S
C2300 C2299 1.523 . S
C2301 C2285 1.429 . S
C2301 C2297 1.429 . S
C2301 C2302 1.523 . S
C2302 C2286 1.368 . S
C2302 C2298 1.368 . S
C2302 C2301 1.523 . S
H2303 C2278 0.950 . S
H2304 C2280 0.950 . S
H2305 C2281 0.949 . S
H2306 C2283 0.950 . S
H2307 C2285 0.950 . S
C2308 C2309 1.349 . S
C2308 C2310 1.327 . S
C2308 H2333 0.950 . S
C2309 C2308 1.349 . S
C2309 C2325 1.349 . S
C2310 C2308 1.327 . S
C2310 C2329 1.429 . S
C2310 H2334 0.950 . S
C2311 C2328 1.574 . S
C2311 C2330 1.368 . S
C2311 H2335 0.949 . S
H2312 C2316 0.949 . S
C2313 C2314 1.349 . S
C2313 C2315 1.327 . S
C2313 H2336 0.950 . S
C2314 C2313 1.349 . S
C2314 C2326 1.349 . S
C2315 C2313 1.327 . S
C2315 C2331 1.429 . S
C2315 H2337 0.950 . S
C2316 H2312 0.949 . S
C2316 C2324 1.574 . S
C2316 C2332 1.368 . S
H2317 C2325 0.950 . S
H2318 C2323 0.950 . S
H2319 C2324 0.949 . S
H2320 C2326 0.950 . S
H2321 C2327 0.950 . S
H2322 C2328 0.949 . S
C2323 H2318 0.950 . S
C2323 C2325 1.327 . S
C2323 C2329 1.429 . S
C2324 C2316 1.574 . S
C2324 H2319 0.949 . S
C2324 C2330 1.368 . S
C2325 C2309 1.349 . S
C2325 H2317 0.950 . S
C2325 C2323 1.327 . S
C2326 C2314 1.349 . S
C2326 H2320 0.950 . S
C2326 C2327 1.327 . S
C2327 H2321 0.950 . S
C2327 C2326 1.327 . S
C2327 C2331 1.429 . S
C2328 C2311 1.574 . S
C2328 H2322 0.949 . S
C2328 C2332 1.368 . S
C2329 C2310 1.429 . S
C2329 C2323 1.429 . S
C2329 C2330 1.523 . S
C2330 C2311 1.368 . S
C2330 C2324 1.368 . S
C2330 C2329 1.523 . S
C2331 C2315 1.429 . S
C2331 C2327 1.429 . S
C2331 C2332 1.523 . S
C2332 C2316 1.368 . S
C2332 C2328 1.368 . S
C2332 C2331 1.523 . S
H2333 C2308 0.950 . S
H2334 C2310 0.950 . S
H2335 C2311 0.949 . S
H2336 C2313 0.950 . S
H2337 C2315 0.950 . S
C2338 C2339 1.349 . S
C2338 C2340 1.327 . S
C2338 H2363 0.950 . S
C2339 C2338 1.349 . S
C2339 C2355 1.349 . S
C2340 C2338 1.327 . S
C2340 C2359 1.429 . S
C2340 H2364 0.950 . S
C2341 C2358 1.574 . S
C2341 C2360 1.368 . S
C2341 H2365 0.949 . S
H2342 C2346 0.949 . S
C2343 C2344 1.349 . S
C2343 C2345 1.327 . S
C2343 H2366 0.950 . S
C2344 C2343 1.349 . S
C2344 C2356 1.349 . S
C2345 C2343 1.327 . S
C2345 C2361 1.429 . S
C2345 H2367 0.950 . S
C2346 H2342 0.949 . S
C2346 C2354 1.574 . S
C2346 C2362 1.368 . S
H2347 C2355 0.950 . S
H2348 C2353 0.950 . S
H2349 C2354 0.949 . S
H2350 C2356 0.950 . S
H2351 C2357 0.950 . S
H2352 C2358 0.949 . S
C2353 H2348 0.950 . S
C2353 C2355 1.327 . S
C2353 C2359 1.429 . S
C2354 C2346 1.574 . S
C2354 H2349 0.949 . S
C2354 C2360 1.368 . S
C2355 C2339 1.349 . S
C2355 H2347 0.950 . S
C2355 C2353 1.327 . S
C2356 C2344 1.349 . S
C2356 H2350 0.950 . S
C2356 C2357 1.327 . S
C2357 H2351 0.950 . S
C2357 C2356 1.327 . S
C2357 C2361 1.429 . S
C2358 C2341 1.574 . S
C2358 H2352 0.949 . S
C2358 C2362 1.368 . S
C2359 C2340 1.429 . S
C2359 C2353 1.429 . S
C2359 C2360 1.523 . S
C2360 C2341 1.368 . S
C2360 C2354 1.368 . S
C2360 C2359 1.523 . S
C2361 C2345 1.429 . S
C2361 C2357 1.429 . S
C2361 C2362 1.523 . S
C2362 C2346 1.368 . S
C2362 C2358 1.368 . S
C2362 C2361 1.523 . S
H2363 C2338 0.950 . S
H2364 C2340 0.950 . S
H2365 C2341 0.949 . S
H2366 C2343 0.950 . S
H2367 C2345 0.950 . S
C449 C415 1.690 . S
C454 C9 1.690 . S
C479 C23 1.690 . S
C484 C429 1.690 . S
C509 C443 1.690 . S
C514 C37 1.690 . S
C539 C401 1.690 . S
C544 C51 1.690 . S
C569 C65 1.690 . S
C574 C387 1.690 . S
C599 C345 1.690 . S
C604 C79 1.690 . S
C629 C93 1.690 . S
C634 C359 1.690 . S
C659 C373 1.690 . S
C664 C107 1.690 . S
C689 C121 1.690 . S
C694 C303 1.690 . S
C719 C135 1.690 . S
C724 C317 1.690 . S
C749 C331 1.690 . S
C754 C149 1.690 . S
C779 C163 1.690 . S
C784 C289 1.690 . S
C809 C275 1.690 . S
C814 C177 1.690 . S
C839 C233 1.690 . S
C844 C191 1.690 . S
C869 C205 1.690 . S
C874 C247 1.690 . S
C899 C219 1.690 . S
C904 C261 1.690 . S
C929 C7 1.412 . S
C934 C147 1.412 . S
C959 C161 1.412 . S
C964 C21 1.412 . S
C989 C119 1.412 . S
C994 C35 1.412 . S
C1019 C133 1.412 . S
C1024 C49 1.412 . S
C1049 C63 1.412 . S
C1054 C203 1.412 . S
C1079 C217 1.412 . S
C1084 C77 1.412 . S
C1109 C175 1.412 . S
C1114 C91 1.412 . S
C1139 C189 1.412 . S
C1144 C105 1.412 . S
C1169 C231 1.412 . S
C1174 C371 1.412 . S
C1199 C385 1.412 . S
C1204 C245 1.412 . S
C1229 C343 1.412 . S
C1234 C259 1.412 . S
C1259 C273 1.412 . S
C1264 C357 1.412 . S
C1289 C287 1.412 . S
C1294 C427 1.412 . S
C1319 C441 1.412 . S
C1324 C301 1.412 . S
C1349 C399 1.412 . S
C1354 C315 1.412 . S
C1379 C329 1.412 . S
C1384 C413 1.412 . S
C1409 C6 1.616 . S
C1414 C62 1.616 . S
C1439 C20 1.616 . S
C1444 C76 1.616 . S
C1469 C90 1.616 . S
C1474 C34 1.616 . S
C1499 C48 1.616 . S
C1504 C104 1.616 . S
C1529 C118 1.616 . S
C1534 C174 1.616 . S
C1559 C188 1.616 . S
C1564 C132 1.616 . S
C1589 C202 1.616 . S
C1594 C146 1.616 . S
C1619 C160 1.616 . S
C1624 C216 1.616 . S
C1649 C230 1.616 . S
C1654 C286 1.616 . S
C1679 C300 1.616 . S
C1684 C244 1.616 . S
C1709 C258 1.616 . S
C1714 C314 1.616 . S
C1739 C328 1.616 . S
C1744 C272 1.616 . S
C1769 C398 1.616 . S
C1774 C342 1.616 . S
C1799 C356 1.616 . S
C1804 C412 1.616 . S
C1829 C370 1.616 . S
C1834 C426 1.616 . S
C1859 C384 1.616 . S
C1864 C440 1.616 . S
C1889 C8 1.377 . S
C1894 C78 1.377 . S
C1919 C22 1.377 . S
C1924 C92 1.377 . S
C1949 C106 1.377 . S
C1954 C36 1.377 . S
C1979 C64 1.377 . S
C1984 C50 1.377 . S
C2009 C190 1.377 . S
C2014 C120 1.377 . S
C2039 C204 1.377 . S
C2044 C134 1.377 . S
C2069 C218 1.377 . S
C2074 C148 1.377 . S
C2099 C162 1.377 . S
C2104 C176 1.377 . S
C2129 C232 1.377 . S
C2134 C302 1.377 . S
C2159 C316 1.377 . S
C2164 C246 1.377 . S
C2189 C330 1.377 . S
C2194 C260 1.377 . S
C2219 C274 1.377 . S
C2224 C288 1.377 . S
C2249 C414 1.377 . S
C2254 C344 1.377 . S
C2279 C358 1.377 . S
C2284 C428 1.377 . S
C2309 C372 1.377 . S
C2314 C442 1.377 . S
C2339 C400 1.377 . S
C2344 C386 1.377 . S
