# Generated by pormake.
# Topology xbj, (5)-cn, num edge types: 1
# Building blocks:
#     Node 0, Type 0, BuildingBlock: BEQFEK_clean_sbu_0, # of connection points: 5
#     Node 1, Type 0, BuildingBlock: BEQFEK_clean_sbu_0, # of connection points: 5
#     Node 2, Type 0, BuildingBlock: BEQFEK_clean_sbu_0, # of connection points: 5
#     Node 3, Type 0, BuildingBlock: BEQFEK_clean_sbu_0, # of connection points: 5
#     Node 4, Type 0, BuildingBlock: BEQFEK_clean_sbu_0, # of connection points: 5
#     Node 5, Type 0, BuildingBlock: BEQFEK_clean_sbu_0, # of connection points: 5
#     Node 6, Type 0, BuildingBlock: BEQFEK_clean_sbu_0, # of connection points: 5
#     Node 7, Type 0, BuildingBlock: BEQFEK_clean_sbu_0, # of connection points: 5
#     Edge 8, Type (0, 0), BuildingBlock: UVAHIK_clean_linker_0, # of connection points: 2
#     Edge 9, Type (0, 0), BuildingBlock: UVAHIK_clean_linker_0, # of connection points: 2
#     Edge 10, Type (0, 0), BuildingBlock: UVAHIK_clean_linker_0, # of connection points: 2
#     Edge 11, Type (0, 0), BuildingBlock: UVAHIK_clean_linker_0, # of connection points: 2
#     Edge 12, Type (0, 0), BuildingBlock: UVAHIK_clean_linker_0, # of connection points: 2
#     Edge 13, Type (0, 0), BuildingBlock: UVAHIK_clean_linker_0, # of connection points: 2
#     Edge 14, Type (0, 0), BuildingBlock: UVAHIK_clean_linker_0, # of connection points: 2
#     Edge 15, Type (0, 0), BuildingBlock: UVAHIK_clean_linker_0, # of connection points: 2
#     Edge 16, Type (0, 0), BuildingBlock: UVAHIK_clean_linker_0, # of connection points: 2
#     Edge 17, Type (0, 0), BuildingBlock: UVAHIK_clean_linker_0, # of connection points: 2
#     Edge 18, Type (0, 0), BuildingBlock: UVAHIK_clean_linker_0, # of connection points: 2
#     Edge 19, Type (0, 0), BuildingBlock: UVAHIK_clean_linker_0, # of connection points: 2
#     Edge 20, Type (0, 0), BuildingBlock: UVAHIK_clean_linker_0, # of connection points: 2
#     Edge 21, Type (0, 0), BuildingBlock: UVAHIK_clean_linker_0, # of connection points: 2
#     Edge 22, Type (0, 0), BuildingBlock: UVAHIK_clean_linker_0, # of connection points: 2
#     Edge 23, Type (0, 0), BuildingBlock: UVAHIK_clean_linker_0, # of connection points: 2
#     Edge 24, Type (0, 0), BuildingBlock: UVAHIK_clean_linker_0, # of connection points: 2
#     Edge 25, Type (0, 0), BuildingBlock: UVAHIK_clean_linker_0, # of connection points: 2
#     Edge 26, Type (0, 0), BuildingBlock: UVAHIK_clean_linker_0, # of connection points: 2
#     Edge 27, Type (0, 0), BuildingBlock: UVAHIK_clean_linker_0, # of connection points: 2
# Relax obj value: 0.056
# Max RMSD: 0.117
# Mean RMSD: 0.113
data_MOF--net-xbj--node1-BEQFEK_clean_sbu_0--edge1-UVAHIK_clean_linker_0
_symmetry_space_group_name_H-M    P1
_symmetry_Int_Tables_number       1
_symmetry_cell_setting            triclinic
loop_
_symmetry_equiv_pos_as_xyz
'x, y, z'
_cell_length_a     24.099894
_cell_length_b     24.087027
_cell_length_c     141.47744
_cell_angle_alpha  91.181956
_cell_angle_beta   91.167081
_cell_angle_gamma 90.032528
loop_
_atom_site_label
_atom_site_type_symbol
_atom_site_fract_x
_atom_site_fract_y
_atom_site_fract_z
_atom_type_partial_charge
Co0 Co 0.23829 0.8229 0.04554 0.0
Co1 Co 0.10878 0.80271 0.04429 0.0
C2 C 0.16041 0.89825 0.03484 0.0
O3 O 0.20844 0.88411 0.03786 0.0
O4 O 0.11709 0.87108 0.03693 0.0
C5 C 0.34969 0.85596 0.04208 0.0
O6 O 0.32768 0.87107 0.03396 0.0
C7 C 0.98684 0.81661 0.04528 0.0
C8 C 0.96083 0.73075 0.04819 0.0
C9 C 0.94057 0.78391 0.0469 0.0
N10 N 0.03221 0.78407 0.04559 0.0
N11 N 0.01624 0.73278 0.04727 0.0
C12 C 0.98877 0.8782 0.04418 0.0
H13 H 0.02835 0.89507 0.04719 0.0
H14 H 0.95331 0.89859 0.04773 0.0
H15 H 0.98667 0.88776 0.03655 0.0
C16 C 0.21625 0.81541 0.06587 0.0
N17 N 0.19878 0.816 0.05678 0.0
N18 N 0.14461 0.80912 0.05635 0.0
C19 C 0.12572 0.80466 0.06519 0.0
C20 C 0.1705 0.80814 0.07151 0.0
C21 C 0.27607 0.81736 0.06892 0.0
H22 H 0.30023 0.78812 0.06446 0.0
H23 H 0.29247 0.85978 0.06785 0.0
H24 H 0.28197 0.80635 0.07645 0.0
O25 O 0.23269 0.7545 0.03777 0.0
O26 O 0.14159 0.74157 0.03667 0.0
H27 H 0.05202 0.75572 0.06587 0.0
H28 H 0.05875 0.80792 0.07517 0.0
C29 C 0.0658 0.79878 0.06757 0.0
H30 H 0.04047 0.82768 0.06329 0.0
H31 H 0.04334 0.69926 0.04793 0.0
O32 O 0.31849 0.83558 0.04827 0.0
C33 C 0.19083 0.72725 0.03461 0.0
Co34 Co 0.56601 0.74061 0.29427 0.0
Co35 Co 0.57449 0.60992 0.2938 0.0
C36 C 0.4669 0.66616 0.29021 0.0
O37 O 0.4899 0.71358 0.29139 0.0
O38 O 0.49437 0.62121 0.29106 0.0
C39 C 0.52491 0.8505 0.2995 0.0
O40 O 0.47947 0.82505 0.30202 0.0
C41 C 0.56294 0.48693 0.29508 0.0
C42 C 0.65107 0.46388 0.29714 0.0
C43 C 0.59806 0.44175 0.29644 0.0
N44 N 0.59401 0.53345 0.29515 0.0
N45 N 0.64658 0.51917 0.29632 0.0
C46 C 0.50184 0.48596 0.293 0.0
H47 H 0.49131 0.51714 0.28761 0.0
H48 H 0.4794 0.49694 0.29955 0.0
H49 H 0.48791 0.44453 0.29034 0.0
C50 C 0.61419 0.72514 0.31329 0.0
N51 N 0.59631 0.70485 0.30484 0.0
N52 N 0.59688 0.65027 0.30495 0.0
C53 C 0.61341 0.63402 0.31362 0.0
C54 C 0.62531 0.68096 0.31917 0.0
C55 C 0.62122 0.78575 0.31555 0.0
H56 H 0.63832 0.80711 0.30938 0.0
H57 H 0.58011 0.80412 0.31711 0.0
H58 H 0.64952 0.79274 0.32175 0.0
O59 O 0.61067 0.7266 0.28308 0.0
O60 O 0.61502 0.63466 0.28252 0.0
H61 H 0.65137 0.55453 0.31517 0.0
H62 H 0.60577 0.57357 0.32461 0.0
C63 C 0.61162 0.57527 0.31687 0.0
H64 H 0.57718 0.55242 0.31322 0.0
H65 H 0.67948 0.54738 0.29659 0.0
O66 O 0.565 0.82221 0.29626 0.0
C67 C 0.62613 0.6817 0.27907 0.0
Co68 Co 0.72959 0.30407 0.54105 0.0
Co69 Co 0.59956 0.2936 0.53923 0.0
C70 C 0.65471 0.40261 0.53752 0.0
O71 O 0.70202 0.38013 0.53886 0.0
O72 O 0.61003 0.37423 0.53754 0.0
C73 C 0.84111 0.34173 0.53996 0.0
O74 O 0.81888 0.37588 0.53383 0.0
C75 C 0.4776 0.30488 0.54101 0.0
C76 C 0.45188 0.21712 0.53919 0.0
C77 C 0.43152 0.27009 0.54084 0.0
N78 N 0.52299 0.27364 0.53952 0.0
N79 N 0.5072 0.22135 0.53838 0.0
C80 C 0.47936 0.36578 0.5433 0.0
H81 H 0.51841 0.37651 0.5472 0.0
H82 H 0.44338 0.37859 0.5476 0.0
H83 H 0.47834 0.38905 0.53661 0.0
C84 C 0.7079 0.25677 0.55963 0.0
N85 N 0.69079 0.2722 0.55097 0.0
N86 N 0.63632 0.26967 0.5504 0.0
C87 C 0.61685 0.25326 0.55875 0.0
C88 C 0.66163 0.2443 0.56487 0.0
C89 C 0.76736 0.25637 0.56289 0.0
H90 H 0.78219 0.2998 0.56384 0.0
H91 H 0.77279 0.23427 0.56965 0.0
H92 H 0.79301 0.23582 0.55742 0.0
O93 O 0.72044 0.2605 0.52918 0.0
O94 O 0.62871 0.25568 0.52784 0.0
H95 H 0.53585 0.21723 0.55781 0.0
H96 H 0.55047 0.25285 0.56892 0.0
C97 C 0.55665 0.25384 0.56119 0.0
H98 H 0.53682 0.29184 0.55842 0.0
H99 H 0.53439 0.18842 0.53718 0.0
O100 O 0.81006 0.30756 0.54408 0.0
C101 C 0.6767 0.24548 0.52464 0.0
Co102 Co 0.05056 0.22656 0.79434 0.0
Co103 Co 0.06703 0.09633 0.79248 0.0
C104 C 0.96573 0.15334 0.7847 0.0
O105 O 0.9825 0.20092 0.78765 0.0
O106 O 0.994 0.1095 0.78618 0.0
C107 C 0.00366 0.33643 0.79886 0.0
O108 O 0.95518 0.31184 0.79939 0.0
C109 C 0.05076 0.97378 0.79443 0.0
C110 C 0.13783 0.94594 0.79353 0.0
C111 C 0.08427 0.92651 0.79465 0.0
N112 N 0.08346 0.01856 0.79332 0.0
N113 N 0.13534 0.00136 0.79276 0.0
C114 C 0.98888 0.97652 0.79494 0.0
H115 H 0.97292 0.01541 0.79189 0.0
H116 H 0.97671 0.97572 0.80245 0.0
H117 H 0.9696 0.94049 0.79112 0.0
C118 C 0.07177 0.20204 0.81439 0.0
N119 N 0.06406 0.18546 0.80533 0.0
N120 N 0.07163 0.13139 0.80462 0.0
C121 C 0.08496 0.11199 0.81324 0.0
C122 C 0.08519 0.15605 0.81968 0.0
C123 C 0.07086 0.2614 0.81772 0.0
H124 H 0.02841 0.27825 0.81666 0.0
H125 H 0.08319 0.26599 0.82529 0.0
H126 H 0.09946 0.28606 0.81341 0.0
O127 O 0.11226 0.2182 0.78553 0.0
O128 O 0.12354 0.12708 0.7841 0.0
H129 H 0.13672 0.04077 0.81141 0.0
H130 H 0.10565 0.04625 0.82291 0.0
C131 C 0.09873 0.05279 0.81524 0.0
H132 H 0.06425 0.0257 0.81264 0.0
H133 H 0.16919 0.02763 0.79188 0.0
O134 O 0.04654 0.30757 0.79711 0.0
C135 C 0.13677 0.17631 0.78195 0.0
Co136 Co 0.15375 0.31277 0.94073 0.0
Co137 Co 0.28294 0.29009 0.94241 0.0
C138 C 0.23129 0.3903 0.95138 0.0
O139 O 0.18323 0.37633 0.94824 0.0
O140 O 0.27414 0.36129 0.94954 0.0
C141 C 0.04181 0.34983 0.94336 0.0
O142 O 0.06317 0.37215 0.95117 0.0
C143 C 0.40452 0.30448 0.94096 0.0
C144 C 0.43199 0.2171 0.9399 0.0
C145 C 0.45135 0.27128 0.93997 0.0
N146 N 0.35977 0.27127 0.94143 0.0
N147 N 0.37662 0.21914 0.94087 0.0
C148 C 0.40144 0.36644 0.94075 0.0
H149 H 0.36064 0.37963 0.93779 0.0
H150 H 0.43535 0.38357 0.93648 0.0
H151 H 0.40564 0.38339 0.94808 0.0
C152 C 0.17764 0.29751 0.92056 0.0
N153 N 0.19463 0.3019 0.92965 0.0
N154 N 0.2483 0.29199 0.93026 0.0
C155 C 0.267 0.28039 0.92153 0.0
C156 C 0.22292 0.28374 0.91513 0.0
C157 C 0.11821 0.30091 0.91735 0.0
H158 H 0.10125 0.34211 0.91943 0.0
H159 H 0.11339 0.2947 0.90959 0.0
H160 H 0.0938 0.26886 0.92097 0.0
O161 O 0.15824 0.24693 0.94876 0.0
O162 O 0.24891 0.23186 0.95005 0.0
H163 H 0.33428 0.22307 0.92261 0.0
H164 H 0.33172 0.26016 0.91164 0.0
C165 C 0.32524 0.2637 0.91937 0.0
H166 H 0.35451 0.29489 0.92248 0.0
H167 H 0.35013 0.1849 0.941 0.0
O168 O 0.0735 0.32395 0.9377 0.0
C169 C 0.19917 0.21952 0.95204 0.0
Co170 Co 0.05572 0.66553 0.19462 0.0
Co171 Co 0.06067 0.79608 0.19747 0.0
C172 C 0.95563 0.73293 0.19996 0.0
O173 O 0.97944 0.68709 0.19793 0.0
O174 O 0.98185 0.77896 0.19995 0.0
C175 C 0.01728 0.55612 0.1882 0.0
O176 O 0.97004 0.58072 0.18615 0.0
C177 C 0.04485 0.91893 0.19548 0.0
C178 C 0.12844 0.94745 0.20008 0.0
C179 C 0.07749 0.96651 0.1968 0.0
N180 N 0.07575 0.87431 0.19777 0.0
N181 N 0.12545 0.89194 0.20056 0.0
C182 C 0.98502 0.91573 0.19248 0.0
H183 H 0.966 0.87677 0.19487 0.0
H184 H 0.98177 0.91625 0.18465 0.0
H185 H 0.96176 0.95171 0.1954 0.0
C186 C 0.09584 0.69546 0.17579 0.0
N187 N 0.08133 0.70915 0.18468 0.0
N188 N 0.08317 0.76351 0.18582 0.0
C189 C 0.09907 0.78616 0.17769 0.0
C190 C 0.10741 0.74388 0.17107 0.0
C191 C 0.09303 0.63762 0.17174 0.0
H192 H 0.04986 0.62206 0.17217 0.0
H193 H 0.10582 0.63555 0.16426 0.0
H194 H 0.12003 0.61011 0.17603 0.0
O195 O 0.10289 0.675 0.20611 0.0
O196 O 0.1043 0.76643 0.20819 0.0
H197 H 0.1236 0.85616 0.16929 0.0
H198 H 0.0652 0.86795 0.1769 0.0
C199 C 0.10603 0.84717 0.17628 0.0
H200 H 0.13437 0.86459 0.18184 0.0
H201 H 0.15763 0.86587 0.20272 0.0
O202 O 0.05788 0.58491 0.19144 0.0
C203 C 0.11776 0.71809 0.21085 0.0
Co204 Co 0.64214 0.7887 0.44398 0.0
Co205 Co 0.77268 0.77949 0.44467 0.0
C206 C 0.71698 0.88847 0.44717 0.0
O207 O 0.66942 0.8655 0.4462 0.0
O208 O 0.76174 0.86039 0.44664 0.0
C209 C 0.53176 0.82937 0.43894 0.0
O210 O 0.55659 0.87559 0.43664 0.0
C211 C 0.89565 0.79015 0.44375 0.0
C212 C 0.91851 0.70198 0.44163 0.0
C213 C 0.94078 0.75492 0.44246 0.0
N214 N 0.84904 0.75925 0.44352 0.0
N215 N 0.86319 0.70663 0.44233 0.0
C216 C 0.89663 0.85117 0.44593 0.0
H217 H 0.86502 0.86144 0.45127 0.0
H218 H 0.88624 0.87404 0.4394 0.0
H219 H 0.93788 0.86485 0.44872 0.0
C220 C 0.65837 0.73955 0.42507 0.0
N221 N 0.67813 0.75568 0.43365 0.0
N222 N 0.7327 0.75454 0.43366 0.0
C223 C 0.74947 0.7392 0.42495 0.0
C224 C 0.70288 0.72889 0.41924 0.0
C225 C 0.59794 0.73682 0.42245 0.0
H226 H 0.57461 0.71796 0.42825 0.0
H227 H 0.58204 0.77954 0.42142 0.0
H228 H 0.59071 0.71195 0.41584 0.0
O229 O 0.65565 0.74734 0.45557 0.0
O230 O 0.74749 0.74276 0.45628 0.0
H231 H 0.82995 0.70349 0.42341 0.0
H232 H 0.81025 0.74935 0.41405 0.0
C233 C 0.80825 0.74283 0.42177 0.0
H234 H 0.83005 0.77757 0.42553 0.0
H235 H 0.83487 0.67382 0.44195 0.0
O236 O 0.56059 0.78902 0.44196 0.0
C237 C 0.70029 0.733 0.45977 0.0
Co238 Co 0.53563 0.15199 0.68971 0.0
Co239 Co 0.55615 0.28144 0.69128 0.0
C240 C 0.45514 0.22953 0.69915 0.0
O241 O 0.47036 0.18146 0.6963 0.0
O242 O 0.48391 0.27272 0.69758 0.0
C243 C 0.49853 0.04019 0.69217 0.0
O244 O 0.47454 0.06197 0.69963 0.0
C245 C 0.54151 0.40278 0.68946 0.0
C246 C 0.62883 0.43075 0.68932 0.0
C247 C 0.57465 0.44975 0.6888 0.0
N248 N 0.57475 0.35823 0.69032 0.0
N249 N 0.62684 0.37536 0.6903 0.0
C250 C 0.47962 0.39942 0.68868 0.0
H251 H 0.4668 0.35867 0.68554 0.0
H252 H 0.46273 0.43349 0.68431 0.0
H253 H 0.46212 0.40316 0.69586 0.0
C254 C 0.55172 0.17405 0.66961 0.0
N255 N 0.54812 0.19154 0.67866 0.0
N256 N 0.5562 0.24557 0.67919 0.0
C257 C 0.56521 0.26426 0.67044 0.0
C258 C 0.56279 0.21947 0.6641 0.0
C259 C 0.54341 0.11504 0.66636 0.0
H260 H 0.50425 0.09896 0.66926 0.0
H261 H 0.5415 0.11097 0.65854 0.0
H262 H 0.57801 0.08937 0.66916 0.0
O263 O 0.59949 0.15812 0.69857 0.0
O264 O 0.613 0.24912 0.69981 0.0
H265 H 0.58718 0.32903 0.66071 0.0
H266 H 0.54579 0.35087 0.67064 0.0
C267 C 0.57981 0.32307 0.66833 0.0
H268 H 0.618 0.33497 0.67237 0.0
H269 H 0.66109 0.34907 0.69084 0.0
O270 O 0.52566 0.07155 0.68681 0.0
C271 C 0.62547 0.1998 0.70212 0.0
C272 C 0.19537 0.84071 0.08791 0.0
C273 C 0.1699 0.80126 0.08182 0.0
C274 C 0.19396 0.83438 0.09769 0.0
C275 C 0.17083 0.73041 0.11603 0.0
H276 H 0.13395 0.85882 0.13164 0.0
C277 C 0.16396 0.72327 0.15683 0.0
C278 C 0.11848 0.74991 0.16095 0.0
C279 C 0.17446 0.72984 0.14724 0.0
C280 C 0.14415 0.82257 0.12737 0.0
H281 H 0.12397 0.724 0.08102 0.0
H282 H 0.12051 0.71324 0.09812 0.0
H283 H 0.14457 0.86925 0.11468 0.0
H284 H 0.04773 0.80328 0.15843 0.0
H285 H 0.06573 0.81476 0.14167 0.0
H286 H 0.16869 0.68342 0.12869 0.0
C287 C 0.14211 0.74872 0.09538 0.0
C288 C 0.15085 0.82866 0.11767 0.0
C289 C 0.14352 0.75513 0.08561 0.0
C290 C 0.08344 0.78291 0.15539 0.0
C291 C 0.09391 0.7896 0.14583 0.0
C292 C 0.16421 0.72433 0.12573 0.0
C293 C 0.16712 0.7884 0.10152 0.0
C294 C 0.16358 0.78252 0.11189 0.0
C295 C 0.1396 0.76327 0.14166 0.0
C296 C 0.15009 0.77023 0.13147 0.0
H297 H 0.21582 0.87669 0.08509 0.0
H298 H 0.21399 0.86536 0.10225 0.0
H299 H 0.18127 0.69423 0.11175 0.0
H300 H 0.19159 0.69787 0.16105 0.0
H301 H 0.21021 0.70941 0.14423 0.0
C302 C 0.66912 0.75647 0.4033 0.0
C303 C 0.70117 0.72082 0.40889 0.0
C304 C 0.66836 0.75039 0.39349 0.0
C305 C 0.69445 0.65048 0.37415 0.0
H306 H 0.68923 0.78354 0.35916 0.0
C307 C 0.68273 0.64959 0.333 0.0
C308 C 0.64052 0.68355 0.32932 0.0
C309 C 0.69685 0.65245 0.34263 0.0
C310 C 0.6907 0.74606 0.36327 0.0
H311 H 0.75799 0.65129 0.40874 0.0
H312 H 0.75732 0.64081 0.39144 0.0
H313 H 0.70292 0.79168 0.37624 0.0
H314 H 0.5787 0.74558 0.33279 0.0
H315 H 0.60418 0.75164 0.34953 0.0
H316 H 0.68169 0.60506 0.36109 0.0
C317 C 0.73218 0.67298 0.39467 0.0
C318 C 0.69834 0.75067 0.37303 0.0
C319 C 0.7328 0.67906 0.40452 0.0
C320 C 0.61235 0.72 0.33541 0.0
C321 C 0.62682 0.72334 0.34498 0.0
C322 C 0.68717 0.64586 0.36434 0.0
C323 C 0.70009 0.70882 0.38906 0.0
C324 C 0.69873 0.70306 0.37861 0.0
C325 C 0.66929 0.68977 0.34868 0.0
C326 C 0.68377 0.69374 0.35886 0.0
H327 H 0.64516 0.78963 0.4065 0.0
H328 H 0.64251 0.77811 0.38938 0.0
H329 H 0.6943 0.61308 0.37827 0.0
H330 H 0.70512 0.6213 0.32841 0.0
H331 H 0.7298 0.62622 0.34533 0.0
C332 C 0.68556 0.27287 0.58146 0.0
C333 C 0.65936 0.23531 0.57512 0.0
C334 C 0.67862 0.2681 0.59117 0.0
C335 C 0.63236 0.17318 0.60962 0.0
H336 H 0.60264 0.31062 0.62337 0.0
C337 C 0.61559 0.18517 0.65023 0.0
C338 C 0.57385 0.21931 0.65392 0.0
C339 C 0.62681 0.18541 0.6406 0.0
C340 C 0.61045 0.27185 0.61962 0.0
H341 H 0.60701 0.16246 0.57381 0.0
H342 H 0.59397 0.15436 0.59084 0.0
H343 H 0.62233 0.31302 0.60658 0.0
H344 H 0.51023 0.27952 0.65059 0.0
H345 H 0.52943 0.27993 0.63367 0.0
H346 H 0.61906 0.13194 0.62264 0.0
C347 C 0.62042 0.18709 0.58834 0.0
C348 C 0.6225 0.27328 0.61003 0.0
C349 C 0.62755 0.19182 0.57862 0.0
C350 C 0.54302 0.25334 0.64786 0.0
C351 C 0.55415 0.25361 0.63822 0.0
C352 C 0.62028 0.17175 0.61922 0.0
C353 C 0.64507 0.22584 0.5947 0.0
C354 C 0.6336 0.22399 0.60493 0.0
C355 C 0.59635 0.21982 0.6345 0.0
C356 C 0.6091 0.22109 0.62431 0.0
H357 H 0.70984 0.30709 0.5789 0.0
H358 H 0.69878 0.29808 0.59591 0.0
H359 H 0.64106 0.13456 0.60588 0.0
H360 H 0.64004 0.15889 0.65484 0.0
H361 H 0.66002 0.15948 0.63797 0.0
C362 C 0.21069 0.30334 0.89805 0.0
C363 C 0.22156 0.26524 0.90519 0.0
C364 C 0.20453 0.28487 0.88868 0.0
C365 C 0.15436 0.16771 0.875 0.0
H366 H 0.22601 0.23664 0.85391 0.0
C367 C 0.06702 0.16934 0.83678 0.0
C368 C 0.1041 0.15604 0.82959 0.0
C369 C 0.08606 0.17418 0.84613 0.0
C370 C 0.20622 0.21665 0.85974 0.0
H371 H 0.23537 0.17883 0.90838 0.0
H372 H 0.22322 0.14602 0.89192 0.0
H373 H 0.25386 0.26323 0.87013 0.0
H374 H 0.18927 0.1366 0.8263 0.0
H375 H 0.22321 0.14647 0.84274 0.0
H376 H 0.10492 0.12306 0.86462 0.0
C377 C 0.22017 0.19005 0.89355 0.0
C378 C 0.22189 0.23203 0.86898 0.0
C379 C 0.22727 0.20869 0.9029 0.0
C380 C 0.16018 0.1466 0.83182 0.0
C381 C 0.17947 0.1524 0.84116 0.0
C382 C 0.138 0.15307 0.86576 0.0
C383 C 0.20819 0.22797 0.88639 0.0
C384 C 0.19561 0.20813 0.87666 0.0
C385 C 0.14261 0.16677 0.84836 0.0
C386 C 0.16339 0.17793 0.85808 0.0
H387 H 0.20589 0.34711 0.89976 0.0
H388 H 0.19475 0.31472 0.88327 0.0
H389 H 0.13327 0.1491 0.88084 0.0
H390 H 0.02364 0.17703 0.83512 0.0
H391 H 0.05706 0.18584 0.85158 0.0
C392 C 0.25308 0.6665 0.02492 0.0
C393 C 0.19923 0.6827 0.02744 0.0
C394 C 0.26122 0.63148 0.01708 0.0
C395 C 0.18728 0.53799 -0.00023 0.0
H396 H 0.30372 0.58238 0.98293 0.0
C397 C 0.18708 0.46367 0.96138 0.0
C398 C 0.23536 0.4355 0.9586 0.0
C399 C 0.18724 0.49619 0.96963 0.0
C400 C 0.27133 0.56943 0.9876 0.0
H401 H 0.11157 0.67225 0.02403 0.0
H402 H 0.12572 0.61232 0.01031 0.0
H403 H 0.29526 0.62899 -0.00166 0.0
H404 H 0.32308 0.42401 0.96181 0.0
H405 H 0.32328 0.48192 0.97621 0.0
H406 H 0.16233 0.47975 0.98889 0.0
C407 C 0.16177 0.62596 0.01443 0.0
C408 C 0.26666 0.5957 -0.00355 0.0
C409 C 0.15362 0.6606 0.02229 0.0
C410 C 0.28509 0.44485 0.96378 0.0
C411 C 0.28528 0.4779 0.97203 0.0
C412 C 0.19157 0.5123 0.9909 0.0
C413 C 0.2157 0.61213 0.01158 0.0
C414 C 0.22406 0.58075 0.00259 0.0
C415 C 0.23575 0.50176 0.97521 0.0
C416 C 0.23309 0.52833 0.98469 0.0
H417 H 0.28913 0.68244 0.02879 0.0
H418 H 0.30323 0.62063 0.0152 0.0
H419 H 0.15478 0.52462 0.00438 0.0
H420 H 0.14819 0.45804 0.9575 0.0
H421 H 0.1488 0.51523 0.97186 0.0
C422 C 0.66016 0.63634 0.26419 0.0
C423 C 0.6536 0.68442 0.26985 0.0
C424 C 0.68193 0.63983 0.25514 0.0
C425 C 0.70927 0.74036 0.23623 0.0
H426 H 0.81801 0.63124 0.22839 0.0
C427 C 0.87936 0.77693 0.2092 0.0
C428 C 0.89977 0.73095 0.20407 0.0
C429 C 0.83541 0.77047 0.21537 0.0
C430 C 0.78673 0.66139 0.23035 0.0
H431 H 0.66597 0.77372 0.27053 0.0
H432 H 0.70534 0.77951 0.2549 0.0
H433 H 0.77152 0.62051 0.2433 0.0
H434 H 0.88513 0.64415 0.20038 0.0
H435 H 0.80813 0.63323 0.21106 0.0
H436 H 0.72662 0.78246 0.22341 0.0
C437 C 0.69226 0.73931 0.25733 0.0
C438 C 0.76017 0.65529 0.23893 0.0
C439 C 0.67024 0.73588 0.26634 0.0
C440 C 0.87111 0.68016 0.20437 0.0
C441 C 0.82714 0.67378 0.21052 0.0
C442 C 0.73609 0.7466 0.22765 0.0
C443 C 0.6979 0.69142 0.25159 0.0
C444 C 0.72201 0.6953 0.24206 0.0
C445 C 0.81101 0.71803 0.21646 0.0
C446 C 0.77588 0.7077 0.22472 0.0
H447 H 0.64732 0.59611 0.26664 0.0
H448 H 0.68537 0.6022 0.25087 0.0
H449 H 0.6792 0.77133 0.23836 0.0
H450 H 0.90017 0.81678 0.20907 0.0
H451 H 0.82386 0.80542 0.21984 0.0
C452 C 0.74454 0.70526 0.47512 0.0
C453 C 0.69709 0.70836 0.46922 0.0
C454 C 0.74062 0.68558 0.4843 0.0
C455 C 0.63867 0.65503 0.50292 0.0
H456 H 0.75221 0.5525 0.51136 0.0
C457 C 0.60688 0.47936 0.52899 0.0
C458 C 0.65325 0.46023 0.53415 0.0
C459 C 0.61161 0.5256 0.52326 0.0
C460 C 0.72077 0.58214 0.50925 0.0
H461 H 0.60845 0.69257 0.46827 0.0
H462 H 0.60202 0.65646 0.48413 0.0
H463 H 0.76297 0.59941 0.49653 0.0
H464 H 0.73809 0.47936 0.53853 0.0
H465 H 0.74592 0.56041 0.52864 0.0
H466 H 0.59519 0.63507 0.51548 0.0
C467 C 0.64197 0.67073 0.48179 0.0
C468 C 0.7269 0.60898 0.50071 0.0
C469 C 0.64579 0.69082 0.47265 0.0
C470 C 0.70197 0.4924 0.53446 0.0
C471 C 0.70657 0.53872 0.52878 0.0
C472 C 0.63236 0.62783 0.51146 0.0
C473 C 0.68927 0.66811 0.48774 0.0
C474 C 0.68535 0.64471 0.49732 0.0
C475 C 0.66262 0.55353 0.52267 0.0
C476 C 0.67284 0.59018 0.51461 0.0
H477 H 0.78457 0.71905 0.47273 0.0
H478 H 0.77777 0.68461 0.48873 0.0
H479 H 0.60642 0.68322 0.5006 0.0
H480 H 0.56857 0.45578 0.52866 0.0
H481 H 0.57691 0.53608 0.51865 0.0
C482 C 0.90277 0.10032 0.77345 0.0
C483 C 0.91701 0.15041 0.77818 0.0
C484 C 0.86493 0.10008 0.76584 0.0
C485 C 0.76203 0.18724 0.75294 0.0
H486 H 0.81413 0.10554 0.73093 0.0
C487 C 0.68478 0.2366 0.71553 0.0
C488 C 0.6657 0.19114 0.70998 0.0
C489 C 0.71491 0.22807 0.72389 0.0
C490 C 0.79886 0.12814 0.73704 0.0
H491 H 0.899 0.23866 0.77914 0.0
H492 H 0.83401 0.23831 0.76586 0.0
H493 H 0.86162 0.09478 0.74617 0.0
H494 H 0.66648 0.1012 0.70854 0.0
H495 H 0.71989 0.08656 0.72312 0.0
H496 H 0.7004 0.22191 0.74371 0.0
C497 C 0.8517 0.19912 0.76801 0.0
C498 C 0.82571 0.12171 0.74579 0.0
C499 C 0.8893 0.19936 0.77563 0.0
C500 C 0.68037 0.13712 0.71267 0.0
C501 C 0.71096 0.12866 0.72101 0.0
C502 C 0.73554 0.194 0.74419 0.0
C503 C 0.84061 0.14986 0.76282 0.0
C504 C 0.80807 0.1518 0.75381 0.0
C505 C 0.72703 0.17402 0.72683 0.0
C506 C 0.75421 0.16513 0.73613 0.0
H507 H 0.92297 0.06174 0.7753 0.0
H508 H 0.85627 0.06123 0.76211 0.0
H509 H 0.74685 0.21031 0.75901 0.0
H510 H 0.67443 0.27876 0.71365 0.0
H511 H 0.72778 0.26379 0.72818 0.0
C512 C 0.19363 0.23883 0.77204 0.0
C513 C 0.17678 0.18493 0.77433 0.0
C514 C 0.22497 0.24764 0.76401 0.0
C515 C 0.3087 0.17455 0.74586 0.0
H516 H 0.26543 0.29834 0.7302 0.0
C517 C 0.37885 0.185 0.70791 0.0
C518 C 0.40891 0.23316 0.70584 0.0
C519 C 0.34606 0.18355 0.71589 0.0
C520 C 0.27796 0.26382 0.73454 0.0
H521 H 0.18168 0.0978 0.77022 0.0
H522 H 0.23519 0.11319 0.75617 0.0
H523 H 0.22222 0.28668 0.74553 0.0
H524 H 0.42315 0.31944 0.70996 0.0
H525 H 0.36498 0.31682 0.7239 0.0
H526 H 0.36334 0.15097 0.73477 0.0
C527 C 0.225 0.14869 0.76062 0.0
C528 C 0.25365 0.25729 0.74334 0.0
C529 C 0.19408 0.13984 0.76868 0.0
C530 C 0.40082 0.28158 0.71138 0.0
C531 C 0.36762 0.28014 0.71937 0.0
C532 C 0.3324 0.18073 0.73705 0.0
C533 C 0.23986 0.20279 0.75808 0.0
C534 C 0.26839 0.21221 0.74906 0.0
C535 C 0.34222 0.23031 0.72191 0.0
C536 C 0.3168 0.22499 0.73126 0.0
H537 H 0.18135 0.27446 0.7763 0.0
H538 H 0.23674 0.2897 0.76237 0.0
H539 H 0.32194 0.14013 0.75016 0.0
H540 H 0.38342 0.1472 0.70372 0.0
H541 H 0.32581 0.14498 0.71761 0.0
C542 C 0.16629 0.65957 0.22293 0.0
C543 C 0.14761 0.71189 0.22001 0.0
C544 C 0.19155 0.65353 0.23183 0.0
C545 C 0.26356 0.73464 0.25076 0.0
H546 H 0.23882 0.60338 0.26556 0.0
C547 C 0.3784 0.71311 0.28568 0.0
C548 C 0.41023 0.6643 0.28602 0.0
C549 C 0.33351 0.71691 0.27935 0.0
C550 C 0.24586 0.64032 0.26151 0.0
H551 H 0.1405 0.79882 0.22418 0.0
H552 H 0.18363 0.7881 0.23969 0.0
H553 H 0.18806 0.61479 0.25057 0.0
H554 H 0.41562 0.57896 0.2809 0.0
H555 H 0.3377 0.58586 0.26979 0.0
H556 H 0.32194 0.75982 0.26154 0.0
C557 C 0.17973 0.75187 0.23506 0.0
C558 C 0.21716 0.64672 0.25291 0.0
C559 C 0.1549 0.758 0.22616 0.0
C560 C 0.3922 0.61728 0.28076 0.0
C561 C 0.34739 0.62121 0.27439 0.0
C562 C 0.29187 0.72842 0.25935 0.0
C563 C 0.19837 0.6996 0.23801 0.0
C564 C 0.22629 0.69366 0.24738 0.0
C565 C 0.31978 0.67207 0.27324 0.0
C566 C 0.28388 0.68095 0.26478 0.0
H567 H 0.16131 0.62321 0.21836 0.0
H568 H 0.20633 0.61286 0.23381 0.0
H569 H 0.27243 0.77078 0.24662 0.0
H570 H 0.39063 0.74977 0.28977 0.0
H571 H 0.31197 0.75621 0.27878 0.0
C572 C 0.67074 0.97896 0.45069 0.0
C573 C 0.71927 0.94663 0.45068 0.0
C574 C 0.66757 0.02652 0.45644 0.0
C575 C 0.74573 0.11946 0.47335 0.0
H576 H 0.61625 0.09806 0.4887 0.0
C577 C 0.73304 0.2002 0.51193 0.0
C578 C 0.68142 0.21864 0.51521 0.0
C579 C 0.73738 0.17631 0.50289 0.0
C580 C 0.65207 0.10564 0.48441 0.0
H581 H 0.8048 0.94283 0.45573 0.0
H582 H 0.79893 0.0252 0.46587 0.0
H583 H 0.62512 0.04554 0.47405 0.0
H584 H 0.59412 0.22774 0.51146 0.0
H585 H 0.60189 0.18707 0.49569 0.0
H586 H 0.77322 0.1787 0.48393 0.0
C587 C 0.76333 0.01395 0.46144 0.0
C588 C 0.6571 0.07556 0.47597 0.0
C589 C 0.76664 0.96652 0.45563 0.0
C590 C 0.6344 0.21327 0.50922 0.0
C591 C 0.63884 0.18991 0.50016 0.0
C592 C 0.74054 0.14993 0.48181 0.0
C593 C 0.71274 0.04241 0.46232 0.0
C594 C 0.7044 0.08131 0.47042 0.0
C595 C 0.69027 0.17075 0.49691 0.0
C596 C 0.6941 0.1425 0.48752 0.0
H597 H 0.63384 0.96533 0.4468 0.0
H598 H 0.62847 0.04857 0.4568 0.0
H599 H 0.78252 0.12489 0.46919 0.0
H600 H 0.77006 0.20381 0.51637 0.0
H601 H 0.77745 0.16114 0.50067 0.0
C602 C 0.20518 0.96603 0.02429 0.0
C603 C 0.1565 0.94115 0.02752 0.0
C604 C 0.20409 0.99646 0.01602 0.0
C605 C 0.11891 0.07101 -0.00102 0.0
H606 H 0.22771 0.01766 0.9811 0.0
C607 C 0.13499 0.16429 0.96194 0.0
C608 C 0.18924 0.17685 0.95918 0.0
C609 C 0.12614 0.13048 0.96968 0.0
C610 C 0.19737 0.03336 0.98602 0.0
H611 H 0.06754 0.93321 0.02508 0.0
H612 H 0.06579 0.98756 0.01066 0.0
H613 H 0.22155 0.97475 -0.00352 0.0
H614 H 0.27661 0.16129 0.96207 0.0
H615 H 0.26129 0.10349 0.97559 0.0
H616 H 0.09601 0.13102 0.98867 0.0
C617 C 0.10475 0.98255 0.0145 0.0
C618 C 0.19385 0.00877 -0.00518 0.0
C619 C 0.10584 0.95155 0.02275 0.0
C620 C 0.23426 0.15252 0.964 0.0
C621 C 0.22543 0.11905 0.97175 0.0
C622 C 0.12285 0.09617 0.9902 0.0
C623 C 0.15428 0.00323 0.01088 0.0
C624 C 0.15531 0.02801 0.00143 0.0
C625 C 0.17134 0.10866 0.97481 0.0
C626 C 0.16283 0.0782 0.98368 0.0
H627 H 0.24484 0.95947 0.02783 0.0
H628 H 0.24265 0.01305 0.01346 0.0
H629 H 0.0888 0.08641 0.00397 0.0
H630 H 0.09933 0.18206 0.95834 0.0
H631 H 0.08394 0.1224 0.97175 0.0
C632 C 0.8475 0.7754 0.05408 0.0
C633 C 0.88145 0.79997 0.04739 0.0
C634 C 0.79074 0.78686 0.05423 0.0
C635 C 0.68207 0.88316 0.04512 0.0
H636 H 0.58485 0.75916 0.05005 0.0
C637 C 0.44506 0.88208 0.03697 0.0
C638 C 0.41062 0.85786 0.04365 0.0
C639 C 0.50283 0.87985 0.03805 0.0
C640 C 0.61143 0.7944 0.04878 0.0
H641 H 0.88256 0.85515 0.0355 0.0
H642 H 0.78316 0.87461 0.03563 0.0
H643 H 0.68483 0.74595 0.05063 0.0
H644 H 0.40989 0.81396 0.05689 0.0
H645 H 0.51068 0.80987 0.05874 0.0
H646 H 0.60797 0.93102 0.04299 0.0
C647 C 0.80058 0.84773 0.04096 0.0
C648 C 0.66887 0.78691 0.04913 0.0
C649 C 0.85761 0.83666 0.04088 0.0
C650 C 0.43519 0.83284 0.05159 0.0
C651 C 0.49293 0.83023 0.05263 0.0
C652 C 0.62445 0.89051 0.04468 0.0
C653 C 0.76628 0.82244 0.04757 0.0
C654 C 0.70503 0.83117 0.04732 0.0
C655 C 0.52737 0.85299 0.0458 0.0
C656 C 0.58855 0.84618 0.04652 0.0
H657 H 0.86488 0.74708 0.0592 0.0
H658 H 0.76599 0.76751 0.05955 0.0
H659 H 0.70857 0.91837 0.0438 0.0
H660 H 0.42747 0.90181 0.03078 0.0
H661 H 0.52828 0.89745 0.03264 0.0
C662 C 0.53683 0.36309 0.30142 0.0
C663 C 0.58495 0.38185 0.29702 0.0
C664 C 0.52713 0.30615 0.30235 0.0
C665 C 0.60137 0.17309 0.30334 0.0
H666 H 0.4595 0.10596 0.29651 0.0
C667 C 0.57808 0.93823 0.29729 0.0
C668 C 0.52961 0.91175 0.30024 0.0
C669 C 0.58259 0.99595 0.29771 0.0
C670 C 0.49909 0.12417 0.29859 0.0
H671 H 0.66079 0.35576 0.29025 0.0
H672 H 0.64403 0.25678 0.29192 0.0
H673 H 0.47088 0.20663 0.29567 0.0
H674 H 0.44801 0.92528 0.30605 0.0
H675 H 0.45622 0.02647 0.30689 0.0
H676 H 0.62985 0.09111 0.30626 0.0
C677 C 0.61379 0.28593 0.29464 0.0
C678 C 0.5056 0.18179 0.29809 0.0
C679 C 0.62325 0.34261 0.29365 0.0
C680 C 0.48587 0.94442 0.3037 0.0
C681 C 0.49044 0.00239 0.30414 0.0
C682 C 0.59482 0.11571 0.3039 0.0
C683 C 0.56584 0.26704 0.29905 0.0
C684 C 0.55716 0.20665 0.30028 0.0
C685 C 0.53888 0.02881 0.30113 0.0
C686 C 0.54396 0.09037 0.30135 0.0
H687 H 0.50754 0.39224 0.30441 0.0
H688 H 0.49017 0.29275 0.3059 0.0
H689 H 0.64127 0.19123 0.30526 0.0
H690 H 0.61255 0.91443 0.29455 0.0
H691 H 0.6201 0.01487 0.29518 0.0
C692 C 0.34832 0.33087 0.53815 0.0
C693 C 0.37246 0.28381 0.54223 0.0
C694 C 0.2913 0.34057 0.53886 0.0
C695 C 0.16048 0.26519 0.54285 0.0
H696 H 0.09845 0.41296 0.54569 0.0
C697 C 0.92633 0.2998 0.54729 0.0
C698 C 0.90198 0.34032 0.54153 0.0
C699 C 0.984 0.29581 0.54821 0.0
C700 C 0.11524 0.37149 0.54485 0.0
H701 H 0.35648 0.2107 0.55041 0.0
H702 H 0.25745 0.22815 0.55186 0.0
H703 H 0.19916 0.40077 0.54583 0.0
H704 H 0.91906 0.40972 0.53249 0.0
H705 H 0.01977 0.40262 0.53409 0.0
H706 H 0.07676 0.2359 0.54185 0.0
C707 C 0.28207 0.2571 0.54795 0.0
C708 C 0.17288 0.3645 0.54491 0.0
C709 C 0.33885 0.24723 0.54717 0.0
C710 C 0.93651 0.37794 0.53696 0.0
C711 C 0.99421 0.3741 0.53792 0.0
C712 C 0.10301 0.27216 0.54285 0.0
C713 C 0.25737 0.30338 0.54367 0.0
C714 C 0.19618 0.31123 0.54388 0.0
C715 C 0.01857 0.33241 0.54343 0.0
C716 C 0.07973 0.32536 0.54381 0.0
H717 H 0.373 0.359 0.53409 0.0
H718 H 0.27355 0.37614 0.53535 0.0
H719 H 0.17687 0.22369 0.54184 0.0
H720 H 0.90092 0.27037 0.55095 0.0
H721 H 0.00159 0.26374 0.55261 0.0
C722 C 0.02288 0.84968 0.80064 0.0
C723 C 0.06964 0.86691 0.79566 0.0
C724 C 0.01187 0.79306 0.80176 0.0
C725 C 0.08167 0.65916 0.80298 0.0
H726 H 0.94067 0.59263 0.79544 0.0
C727 C 0.05897 0.42374 0.79768 0.0
C728 C 0.00864 0.39766 0.79977 0.0
C729 C 0.06373 0.48145 0.7981 0.0
C730 C 0.97995 0.61058 0.79776 0.0
H731 H 0.14176 0.83761 0.78808 0.0
H732 H 0.12321 0.73948 0.79025 0.0
H733 H 0.95309 0.69315 0.79449 0.0
H734 H 0.92402 0.41195 0.80413 0.0
H735 H 0.93273 0.51305 0.8051 0.0
H736 H 0.10874 0.57745 0.80637 0.0
C737 C 0.09482 0.76979 0.7932 0.0
C738 C 0.98704 0.66814 0.79717 0.0
C739 C 0.10532 0.82609 0.79195 0.0
C740 C 0.96333 0.43077 0.80244 0.0
C741 C 0.96825 0.48876 0.80294 0.0
C742 C 0.07442 0.60192 0.80369 0.0
C743 C 0.04812 0.75268 0.79813 0.0
C744 C 0.0384 0.69271 0.79958 0.0
C745 C 0.0185 0.51487 0.80072 0.0
C746 C 0.02393 0.57659 0.80087 0.0
H747 H 0.99564 0.87944 0.80396 0.0
H748 H 0.97594 0.78086 0.80571 0.0
H749 H 0.12141 0.67725 0.80503 0.0
H750 H 0.09466 0.39962 0.79554 0.0
H751 H 0.10273 0.49985 0.79613 0.0
C752 C 0.94603 0.3807 0.94768 0.0
C753 C 0.98092 0.35027 0.94164 0.0
C754 C 0.8883 0.37739 0.94656 0.0
C755 C 0.78031 0.28217 0.93761 0.0
H756 H 0.68256 0.40933 0.93992 0.0
C757 C 0.54427 0.2568 0.93292 0.0
C758 C 0.51019 0.28751 0.93902 0.0
C759 C 0.6009 0.26846 0.93246 0.0
C760 C 0.70921 0.37329 0.93936 0.0
H761 H 0.98241 0.294 0.92947 0.0
H762 H 0.88167 0.28803 0.92757 0.0
H763 H 0.7831 0.42295 0.9405 0.0
H764 H 0.50879 0.35418 0.94952 0.0
H765 H 0.60796 0.37407 0.94887 0.0
H766 H 0.70716 0.23217 0.93678 0.0
C767 C 0.89906 0.31415 0.93321 0.0
C768 C 0.76682 0.38117 0.93966 0.0
C769 C 0.95678 0.31781 0.93427 0.0
C770 C 0.53378 0.33066 0.94459 0.0
C771 C 0.59072 0.34197 0.94422 0.0
C772 C 0.72288 0.27423 0.9374 0.0
C773 C 0.86417 0.34324 0.93943 0.0
C774 C 0.80298 0.33565 0.93879 0.0
C775 C 0.62519 0.3105 0.93823 0.0
C776 C 0.68646 0.31964 0.93827 0.0
H777 H 0.96325 0.40622 0.95341 0.0
H778 H 0.86254 0.40002 0.9515 0.0
H779 H 0.80705 0.24614 0.9371 0.0
H780 H 0.5271 0.22344 0.92851 0.0
H781 H 0.62571 0.24412 0.92761 0.0
C782 C 0.02556 0.04304 0.18831 0.0
C783 C 0.06464 0.02601 0.19519 0.0
C784 C 0.01729 0.0996 0.1866 0.0
C785 C 0.09009 0.23183 0.18778 0.0
H786 H 0.94594 0.30233 0.18939 0.0
C787 C 0.06902 0.4683 0.19136 0.0
C788 C 0.02244 0.49492 0.18741 0.0
C789 C 0.07277 0.41049 0.19122 0.0
C790 C 0.98637 0.28324 0.18871 0.0
H791 H 0.12578 0.05555 0.20561 0.0
H792 H 0.11227 0.15353 0.20244 0.0
H793 H 0.95383 0.20183 0.19114 0.0
H794 H 0.94389 0.48161 0.17996 0.0
H795 H 0.95116 0.38045 0.17946 0.0
H796 H 0.12296 0.31234 0.18523 0.0
C797 C 0.08771 0.12313 0.19845 0.0
C798 C 0.99079 0.22571 0.18976 0.0
C799 C 0.0953 0.06693 0.20026 0.0
C800 C 0.98022 0.46234 0.18311 0.0
C801 C 0.98424 0.40431 0.18288 0.0
C802 C 0.08563 0.28903 0.18658 0.0
C803 C 0.04891 0.14001 0.19157 0.0
C804 C 0.04289 0.19978 0.18952 0.0
C805 C 0.03038 0.37759 0.18701 0.0
C806 C 0.03393 0.31581 0.18727 0.0
H807 H 0.00272 0.01313 0.18398 0.0
H808 H 0.98753 0.11168 0.18119 0.0
H809 H 0.13065 0.2126 0.18741 0.0
H810 H 0.10216 0.49205 0.19479 0.0
H811 H 0.1084 0.39166 0.19466 0.0
C812 C 0.03975 0.72942 0.44531 0.0
C813 C 0.00071 0.76795 0.44196 0.0
C814 C 0.09646 0.73883 0.44438 0.0
C815 C 0.20081 0.84711 0.44104 0.0
H816 H 0.29124 0.72314 0.43265 0.0
C817 C 0.43738 0.868 0.435 0.0
C818 C 0.47055 0.82422 0.43831 0.0
C819 C 0.37946 0.86311 0.43469 0.0
C820 C 0.26672 0.75808 0.43508 0.0
H821 H 0.99069 0.84572 0.43466 0.0
H822 H 0.09016 0.86297 0.43326 0.0
H823 H 0.19125 0.71153 0.43377 0.0
H824 H 0.46883 0.74085 0.44385 0.0
H825 H 0.36847 0.73276 0.44346 0.0
H826 H 0.27655 0.89332 0.44256 0.0
C827 C 0.07662 0.82589 0.43676 0.0
C828 C 0.20941 0.75142 0.43571 0.0
C829 C 0.01967 0.81624 0.43764 0.0
C830 C 0.44462 0.77536 0.44122 0.0
C831 C 0.38694 0.77054 0.44094 0.0
C832 C 0.25835 0.85372 0.44047 0.0
C833 C 0.11554 0.78695 0.44003 0.0
C834 C 0.17593 0.79556 0.43883 0.0
C835 C 0.35358 0.81432 0.43768 0.0
C836 C 0.29207 0.80898 0.43762 0.0
H837 H 0.02643 0.69174 0.44866 0.0
H838 H 0.12548 0.7084 0.44708 0.0
H839 H 0.17603 0.88177 0.44351 0.0
H840 H 0.45609 0.90615 0.43268 0.0
H841 H 0.355 0.89739 0.43206 0.0
C842 C 0.53075 0.9551 0.68339 0.0
C843 C 0.49807 0.97929 0.69049 0.0
C844 C 0.5341 0.89739 0.68233 0.0
C845 C 0.46595 0.76541 0.68809 0.0
H846 H 0.61463 0.7052 0.68638 0.0
C847 C 0.51511 0.53184 0.69302 0.0
C848 C 0.55838 0.50853 0.68776 0.0
C849 C 0.50397 0.58882 0.69264 0.0
C850 C 0.57267 0.72111 0.68668 0.0
H851 H 0.44151 0.96177 0.70179 0.0
H852 H 0.44726 0.86096 0.6999 0.0
H853 H 0.60131 0.80518 0.68678 0.0
H854 H 0.62277 0.52587 0.67778 0.0
H855 H 0.60236 0.62461 0.67686 0.0
H856 H 0.43726 0.6812 0.68795 0.0
C857 C 0.47024 0.88673 0.69516 0.0
C858 C 0.56511 0.77856 0.68693 0.0
C859 C 0.4672 0.94448 0.69627 0.0
C860 C 0.58931 0.54286 0.68194 0.0
C861 C 0.57781 0.59954 0.68148 0.0
C862 C 0.47346 0.70776 0.68775 0.0
C863 C 0.50453 0.86257 0.6883 0.0
C864 C 0.51174 0.80139 0.68767 0.0
C865 C 0.53575 0.62356 0.68696 0.0
C866 C 0.52699 0.68485 0.68707 0.0
H867 H 0.55486 0.98068 0.67878 0.0
H868 H 0.56032 0.87996 0.6769 0.0
H869 H 0.42427 0.78186 0.68859 0.0
H870 H 0.49143 0.50659 0.69773 0.0
H871 H 0.47183 0.60589 0.69708 0.0
loop_
_geom_bond_atom_site_label_1
_geom_bond_atom_site_label_2
_geom_bond_distance
_geom_bond_site_symmetry_2
_ccdc_geom_bond_type
Co0 O3 1.970 . S
Co0 N17 1.989 . S
Co0 O25 1.967 . S
Co0 O32 1.920 . S
Co1 O4 1.966 . S
Co1 N10 2.022 1_455 S
Co1 N18 1.993 . S
Co1 O26 1.941 . S
C2 O3 1.258 . S
C2 O4 1.263 . S
O3 Co0 1.970 . S
O3 C2 1.258 . S
O4 Co1 1.966 . S
O4 C2 1.263 . S
C5 O6 1.235 . S
C5 O32 1.289 . S
O6 C5 1.235 . S
C7 C9 1.400 . S
C7 N10 1.351 . S
C7 C12 1.501 . S
C8 C9 1.387 . S
C8 N11 1.341 . S
C9 C7 1.400 . S
C9 C8 1.387 . S
N10 Co1 2.022 1_655 S
N10 C7 1.351 . S
N10 N11 1.365 . S
N11 C8 1.341 . S
N11 N10 1.365 . S
N11 H31 0.862 . S
C12 C7 1.501 . S
C12 H13 0.961 . S
C12 H14 0.961 . S
C12 H15 0.960 . S
H13 C12 0.961 . S
H14 C12 0.961 . S
H15 C12 0.960 . S
C16 N17 1.342 . S
C16 C20 1.401 . S
C16 C21 1.499 . S
N17 Co0 1.989 . S
N17 C16 1.342 . S
N17 N18 1.388 . S
N18 Co1 1.993 . S
N18 N17 1.388 . S
N18 C19 1.346 . S
C19 N18 1.346 . S
C19 C20 1.396 . S
C19 C29 1.510 . S
C20 C16 1.401 . S
C20 C19 1.396 . S
C21 C16 1.499 . S
C21 H22 0.959 . S
C21 H23 0.960 . S
C21 H24 0.961 . S
H22 C21 0.959 . S
H23 C21 0.960 . S
H24 C21 0.961 . S
O25 Co0 1.967 . S
O25 C33 1.258 . S
O26 Co1 1.941 . S
O26 C33 1.266 . S
H27 C29 0.959 . S
H28 C29 0.961 . S
C29 C19 1.510 . S
C29 H27 0.959 . S
C29 H28 0.961 . S
C29 H30 0.960 1_455 S
H30 C29 0.960 1_655 S
H31 N11 0.862 . S
O32 Co0 1.920 . S
O32 C5 1.289 . S
C33 O25 1.258 . S
C33 O26 1.266 . S
Co34 O37 1.970 . S
Co34 N51 1.989 . S
Co34 O59 1.967 . S
Co34 O66 1.920 . S
Co35 O38 1.966 . S
Co35 N44 2.022 . S
Co35 N52 1.993 . S
Co35 O60 1.941 . S
C36 O37 1.258 . S
C36 O38 1.263 . S
O37 Co34 1.970 . S
O37 C36 1.258 . S
O38 Co35 1.966 . S
O38 C36 1.263 . S
C39 O40 1.235 . S
C39 O66 1.289 . S
O40 C39 1.235 . S
C41 C43 1.400 . S
C41 N44 1.351 . S
C41 C46 1.501 . S
C42 C43 1.387 . S
C42 N45 1.341 . S
C43 C41 1.400 . S
C43 C42 1.387 . S
N44 Co35 2.022 . S
N44 C41 1.351 . S
N44 N45 1.365 . S
N45 C42 1.341 . S
N45 N44 1.365 . S
N45 H65 0.862 . S
C46 C41 1.501 . S
C46 H47 0.961 . S
C46 H48 0.961 . S
C46 H49 0.960 . S
H47 C46 0.961 . S
H48 C46 0.961 . S
H49 C46 0.960 . S
C50 N51 1.342 . S
C50 C54 1.401 . S
C50 C55 1.499 . S
N51 Co34 1.989 . S
N51 C50 1.342 . S
N51 N52 1.388 . S
N52 Co35 1.993 . S
N52 N51 1.388 . S
N52 C53 1.346 . S
C53 N52 1.346 . S
C53 C54 1.396 . S
C53 C63 1.510 . S
C54 C50 1.401 . S
C54 C53 1.396 . S
C55 C50 1.499 . S
C55 H56 0.959 . S
C55 H57 0.960 . S
C55 H58 0.961 . S
H56 C55 0.959 . S
H57 C55 0.960 . S
H58 C55 0.961 . S
O59 Co34 1.967 . S
O59 C67 1.258 . S
O60 Co35 1.941 . S
O60 C67 1.266 . S
H61 C63 0.959 . S
H62 C63 0.961 . S
C63 C53 1.510 . S
C63 H61 0.959 . S
C63 H62 0.961 . S
C63 H64 0.960 . S
H64 C63 0.960 . S
H65 N45 0.862 . S
O66 Co34 1.920 . S
O66 C39 1.289 . S
C67 O59 1.258 . S
C67 O60 1.266 . S
Co68 O71 1.970 . S
Co68 N85 1.989 . S
Co68 O93 1.967 . S
Co68 O100 1.920 . S
Co69 O72 1.966 . S
Co69 N78 2.022 . S
Co69 N86 1.993 . S
Co69 O94 1.941 . S
C70 O71 1.258 . S
C70 O72 1.263 . S
O71 Co68 1.970 . S
O71 C70 1.258 . S
O72 Co69 1.966 . S
O72 C70 1.263 . S
C73 O74 1.235 . S
C73 O100 1.289 . S
O74 C73 1.235 . S
C75 C77 1.400 . S
C75 N78 1.351 . S
C75 C80 1.501 . S
C76 C77 1.387 . S
C76 N79 1.341 . S
C77 C75 1.400 . S
C77 C76 1.387 . S
N78 Co69 2.022 . S
N78 C75 1.351 . S
N78 N79 1.365 . S
N79 C76 1.341 . S
N79 N78 1.365 . S
N79 H99 0.862 . S
C80 C75 1.501 . S
C80 H81 0.961 . S
C80 H82 0.961 . S
C80 H83 0.960 . S
H81 C80 0.961 . S
H82 C80 0.961 . S
H83 C80 0.960 . S
C84 N85 1.342 . S
C84 C88 1.401 . S
C84 C89 1.499 . S
N85 Co68 1.989 . S
N85 C84 1.342 . S
N85 N86 1.388 . S
N86 Co69 1.993 . S
N86 N85 1.388 . S
N86 C87 1.346 . S
C87 N86 1.346 . S
C87 C88 1.396 . S
C87 C97 1.510 . S
C88 C84 1.401 . S
C88 C87 1.396 . S
C89 C84 1.499 . S
C89 H90 0.959 . S
C89 H91 0.960 . S
C89 H92 0.961 . S
H90 C89 0.959 . S
H91 C89 0.960 . S
H92 C89 0.961 . S
O93 Co68 1.967 . S
O93 C101 1.258 . S
O94 Co69 1.941 . S
O94 C101 1.266 . S
H95 C97 0.959 . S
H96 C97 0.961 . S
C97 C87 1.510 . S
C97 H95 0.959 . S
C97 H96 0.961 . S
C97 H98 0.960 . S
H98 C97 0.960 . S
H99 N79 0.862 . S
O100 Co68 1.920 . S
O100 C73 1.289 . S
C101 O93 1.258 . S
C101 O94 1.266 . S
Co102 O105 1.970 . S
Co102 N119 1.989 . S
Co102 O127 1.967 . S
Co102 O134 1.920 . S
Co103 O106 1.966 . S
Co103 N112 2.022 . S
Co103 N120 1.993 . S
Co103 O128 1.941 . S
C104 O105 1.258 . S
C104 O106 1.263 . S
O105 Co102 1.970 . S
O105 C104 1.258 . S
O106 Co103 1.966 . S
O106 C104 1.263 . S
C107 O108 1.235 . S
C107 O134 1.289 . S
O108 C107 1.235 . S
C109 C111 1.400 1_545 S
C109 N112 1.351 . S
C109 C114 1.501 . S
C110 C111 1.387 . S
C110 N113 1.341 1_565 S
C111 C109 1.400 1_565 S
C111 C110 1.387 . S
N112 Co103 2.022 . S
N112 C109 1.351 . S
N112 N113 1.365 . S
N113 C110 1.341 1_545 S
N113 N112 1.365 . S
N113 H133 0.862 . S
C114 C109 1.501 . S
C114 H115 0.961 . S
C114 H116 0.961 1_455 S
C114 H117 0.960 . S
H115 C114 0.961 . S
H116 C114 0.961 1_655 S
H117 C114 0.960 . S
C118 N119 1.342 . S
C118 C122 1.401 . S
C118 C123 1.499 . S
N119 Co102 1.989 . S
N119 C118 1.342 . S
N119 N120 1.388 . S
N120 Co103 1.993 . S
N120 N119 1.388 . S
N120 C121 1.346 . S
C121 N120 1.346 . S
C121 C122 1.396 . S
C121 C131 1.510 . S
C122 C118 1.401 . S
C122 C121 1.396 . S
C123 C118 1.499 . S
C123 H124 0.959 . S
C123 H125 0.960 . S
C123 H126 0.961 . S
H124 C123 0.959 . S
H125 C123 0.960 . S
H126 C123 0.961 . S
O127 Co102 1.967 . S
O127 C135 1.258 . S
O128 Co103 1.941 . S
O128 C135 1.266 . S
H129 C131 0.959 . S
H130 C131 0.961 . S
C131 C121 1.510 . S
C131 H129 0.959 . S
C131 H130 0.961 . S
C131 H132 0.960 . S
H132 C131 0.960 . S
H133 N113 0.862 . S
O134 Co102 1.920 . S
O134 C107 1.289 . S
C135 O127 1.258 . S
C135 O128 1.266 . S
Co136 O139 1.970 . S
Co136 N153 1.989 . S
Co136 O161 1.967 . S
Co136 O168 1.920 . S
Co137 O140 1.966 . S
Co137 N146 2.022 . S
Co137 N154 1.993 . S
Co137 O162 1.941 . S
C138 O139 1.258 . S
C138 O140 1.263 . S
O139 Co136 1.970 . S
O139 C138 1.258 . S
O140 Co137 1.966 . S
O140 C138 1.263 . S
C141 O142 1.235 1_655 S
C141 O168 1.289 1_655 S
O142 C141 1.235 1_455 S
C143 C145 1.400 . S
C143 N146 1.351 . S
C143 C148 1.501 . S
C144 C145 1.387 . S
C144 N147 1.341 . S
C145 C143 1.400 . S
C145 C144 1.387 . S
N146 Co137 2.022 . S
N146 C143 1.351 . S
N146 N147 1.365 . S
N147 C144 1.341 . S
N147 N146 1.365 . S
N147 H167 0.862 . S
C148 C143 1.501 . S
C148 H149 0.961 . S
C148 H150 0.961 . S
C148 H151 0.960 . S
H149 C148 0.961 . S
H150 C148 0.961 . S
H151 C148 0.960 . S
C152 N153 1.342 . S
C152 C156 1.401 . S
C152 C157 1.499 . S
N153 Co136 1.989 . S
N153 C152 1.342 . S
N153 N154 1.388 . S
N154 Co137 1.993 . S
N154 N153 1.388 . S
N154 C155 1.346 . S
C155 N154 1.346 . S
C155 C156 1.396 . S
C155 C165 1.510 . S
C156 C152 1.401 . S
C156 C155 1.396 . S
C157 C152 1.499 . S
C157 H158 0.959 . S
C157 H159 0.960 . S
C157 H160 0.961 . S
H158 C157 0.959 . S
H159 C157 0.960 . S
H160 C157 0.961 . S
O161 Co136 1.967 . S
O161 C169 1.258 . S
O162 Co137 1.941 . S
O162 C169 1.266 . S
H163 C165 0.959 . S
H164 C165 0.961 . S
C165 C155 1.510 . S
C165 H163 0.959 . S
C165 H164 0.961 . S
C165 H166 0.960 . S
H166 C165 0.960 . S
H167 N147 0.862 . S
O168 Co136 1.920 . S
O168 C141 1.289 1_455 S
C169 O161 1.258 . S
C169 O162 1.266 . S
Co170 O173 1.970 . S
Co170 N187 1.989 . S
Co170 O195 1.967 . S
Co170 O202 1.920 . S
Co171 O174 1.966 . S
Co171 N180 2.022 . S
Co171 N188 1.993 . S
Co171 O196 1.941 . S
C172 O173 1.258 . S
C172 O174 1.263 . S
O173 Co170 1.970 . S
O173 C172 1.258 . S
O174 Co171 1.966 . S
O174 C172 1.263 . S
C175 O176 1.235 . S
C175 O202 1.289 . S
O176 C175 1.235 . S
C177 C179 1.400 . S
C177 N180 1.351 . S
C177 C182 1.501 . S
C178 C179 1.387 . S
C178 N181 1.341 . S
C179 C177 1.400 . S
C179 C178 1.387 . S
N180 Co171 2.022 . S
N180 C177 1.351 . S
N180 N181 1.365 . S
N181 C178 1.341 . S
N181 N180 1.365 . S
N181 H201 0.862 . S
C182 C177 1.501 . S
C182 H183 0.961 . S
C182 H184 0.961 1_455 S
C182 H185 0.960 1_455 S
H183 C182 0.961 . S
H184 C182 0.961 1_655 S
H185 C182 0.960 1_655 S
C186 N187 1.342 . S
C186 C190 1.401 . S
C186 C191 1.499 . S
N187 Co170 1.989 . S
N187 C186 1.342 . S
N187 N188 1.388 . S
N188 Co171 1.993 . S
N188 N187 1.388 . S
N188 C189 1.346 . S
C189 N188 1.346 . S
C189 C190 1.396 . S
C189 C199 1.510 . S
C190 C186 1.401 . S
C190 C189 1.396 . S
C191 C186 1.499 . S
C191 H192 0.959 . S
C191 H193 0.960 . S
C191 H194 0.961 . S
H192 C191 0.959 . S
H193 C191 0.960 . S
H194 C191 0.961 . S
O195 Co170 1.967 . S
O195 C203 1.258 . S
O196 Co171 1.941 . S
O196 C203 1.266 . S
H197 C199 0.959 . S
H198 C199 0.961 . S
C199 C189 1.510 . S
C199 H197 0.959 . S
C199 H198 0.961 . S
C199 H200 0.960 . S
H200 C199 0.960 . S
H201 N181 0.862 . S
O202 Co170 1.920 . S
O202 C175 1.289 . S
C203 O195 1.258 . S
C203 O196 1.266 . S
Co204 O207 1.970 . S
Co204 N221 1.989 . S
Co204 O229 1.967 . S
Co204 O236 1.920 . S
Co205 O208 1.966 . S
Co205 N214 2.022 . S
Co205 N222 1.993 . S
Co205 O230 1.941 . S
C206 O207 1.258 . S
C206 O208 1.263 . S
O207 Co204 1.970 . S
O207 C206 1.258 . S
O208 Co205 1.966 . S
O208 C206 1.263 . S
C209 O210 1.235 . S
C209 O236 1.289 . S
O210 C209 1.235 . S
C211 C213 1.400 . S
C211 N214 1.351 . S
C211 C216 1.501 . S
C212 C213 1.387 . S
C212 N215 1.341 . S
C213 C211 1.400 . S
C213 C212 1.387 . S
N214 Co205 2.022 . S
N214 C211 1.351 . S
N214 N215 1.365 . S
N215 C212 1.341 . S
N215 N214 1.365 . S
N215 H235 0.862 . S
C216 C211 1.501 . S
C216 H217 0.961 . S
C216 H218 0.961 . S
C216 H219 0.960 . S
H217 C216 0.961 . S
H218 C216 0.961 . S
H219 C216 0.960 . S
C220 N221 1.342 . S
C220 C224 1.401 . S
C220 C225 1.499 . S
N221 Co204 1.989 . S
N221 C220 1.342 . S
N221 N222 1.388 . S
N222 Co205 1.993 . S
N222 N221 1.388 . S
N222 C223 1.346 . S
C223 N222 1.346 . S
C223 C224 1.396 . S
C223 C233 1.510 . S
C224 C220 1.401 . S
C224 C223 1.396 . S
C225 C220 1.499 . S
C225 H226 0.959 . S
C225 H227 0.960 . S
C225 H228 0.961 . S
H226 C225 0.959 . S
H227 C225 0.960 . S
H228 C225 0.961 . S
O229 Co204 1.967 . S
O229 C237 1.258 . S
O230 Co205 1.941 . S
O230 C237 1.266 . S
H231 C233 0.959 . S
H232 C233 0.961 . S
C233 C223 1.510 . S
C233 H231 0.959 . S
C233 H232 0.961 . S
C233 H234 0.960 . S
H234 C233 0.960 . S
H235 N215 0.862 . S
O236 Co204 1.920 . S
O236 C209 1.289 . S
C237 O229 1.258 . S
C237 O230 1.266 . S
Co238 O241 1.970 . S
Co238 N255 1.989 . S
Co238 O263 1.967 . S
Co238 O270 1.920 . S
Co239 O242 1.966 . S
Co239 N248 2.022 . S
Co239 N256 1.993 . S
Co239 O264 1.941 . S
C240 O241 1.258 . S
C240 O242 1.263 . S
O241 Co238 1.970 . S
O241 C240 1.258 . S
O242 Co239 1.966 . S
O242 C240 1.263 . S
C243 O244 1.235 . S
C243 O270 1.289 . S
O244 C243 1.235 . S
C245 C247 1.400 . S
C245 N248 1.351 . S
C245 C250 1.501 . S
C246 C247 1.387 . S
C246 N249 1.341 . S
C247 C245 1.400 . S
C247 C246 1.387 . S
N248 Co239 2.022 . S
N248 C245 1.351 . S
N248 N249 1.365 . S
N249 C246 1.341 . S
N249 N248 1.365 . S
N249 H269 0.862 . S
C250 C245 1.501 . S
C250 H251 0.961 . S
C250 H252 0.961 . S
C250 H253 0.960 . S
H251 C250 0.961 . S
H252 C250 0.961 . S
H253 C250 0.960 . S
C254 N255 1.342 . S
C254 C258 1.401 . S
C254 C259 1.499 . S
N255 Co238 1.989 . S
N255 C254 1.342 . S
N255 N256 1.388 . S
N256 Co239 1.993 . S
N256 N255 1.388 . S
N256 C257 1.346 . S
C257 N256 1.346 . S
C257 C258 1.396 . S
C257 C267 1.510 . S
C258 C254 1.401 . S
C258 C257 1.396 . S
C259 C254 1.499 . S
C259 H260 0.959 . S
C259 H261 0.960 . S
C259 H262 0.961 . S
H260 C259 0.959 . S
H261 C259 0.960 . S
H262 C259 0.961 . S
O263 Co238 1.967 . S
O263 C271 1.258 . S
O264 Co239 1.941 . S
O264 C271 1.266 . S
H265 C267 0.959 . S
H266 C267 0.961 . S
C267 C257 1.510 . S
C267 H265 0.959 . S
C267 H266 0.961 . S
C267 H268 0.960 . S
H268 C267 0.960 . S
H269 N249 0.862 . S
O270 Co238 1.920 . S
O270 C243 1.289 . S
C271 O263 1.258 . S
C271 O264 1.266 . S
C272 C273 1.349 . S
C272 C274 1.327 . S
C272 H297 0.950 . S
C273 C272 1.349 . S
C273 C289 1.349 . S
C274 C272 1.327 . S
C274 C293 1.429 . S
C274 H298 0.950 . S
C275 C292 1.574 . S
C275 C294 1.368 . S
C275 H299 0.949 . S
H276 C280 0.949 . S
C277 C278 1.349 . S
C277 C279 1.327 . S
C277 H300 0.950 . S
C278 C277 1.349 . S
C278 C290 1.349 . S
C279 C277 1.327 . S
C279 C295 1.429 . S
C279 H301 0.950 . S
C280 H276 0.949 . S
C280 C288 1.574 . S
C280 C296 1.368 . S
H281 C289 0.950 . S
H282 C287 0.950 . S
H283 C288 0.949 . S
H284 C290 0.950 . S
H285 C291 0.950 . S
H286 C292 0.949 . S
C287 H282 0.950 . S
C287 C289 1.327 . S
C287 C293 1.429 . S
C288 C280 1.574 . S
C288 H283 0.949 . S
C288 C294 1.368 . S
C289 C273 1.349 . S
C289 H281 0.950 . S
C289 C287 1.327 . S
C290 C278 1.349 . S
C290 H284 0.950 . S
C290 C291 1.327 . S
C291 H285 0.950 . S
C291 C290 1.327 . S
C291 C295 1.429 . S
C292 C275 1.574 . S
C292 H286 0.949 . S
C292 C296 1.368 . S
C293 C274 1.429 . S
C293 C287 1.429 . S
C293 C294 1.523 . S
C294 C275 1.368 . S
C294 C288 1.368 . S
C294 C293 1.523 . S
C295 C279 1.429 . S
C295 C291 1.429 . S
C295 C296 1.523 . S
C296 C280 1.368 . S
C296 C292 1.368 . S
C296 C295 1.523 . S
H297 C272 0.950 . S
H298 C274 0.950 . S
H299 C275 0.949 . S
H300 C277 0.950 . S
H301 C279 0.950 . S
C302 C303 1.349 . S
C302 C304 1.327 . S
C302 H327 0.950 . S
C303 C302 1.349 . S
C303 C319 1.349 . S
C304 C302 1.327 . S
C304 C323 1.429 . S
C304 H328 0.950 . S
C305 C322 1.574 . S
C305 C324 1.368 . S
C305 H329 0.949 . S
H306 C310 0.949 . S
C307 C308 1.349 . S
C307 C309 1.327 . S
C307 H330 0.950 . S
C308 C307 1.349 . S
C308 C320 1.349 . S
C309 C307 1.327 . S
C309 C325 1.429 . S
C309 H331 0.950 . S
C310 H306 0.949 . S
C310 C318 1.574 . S
C310 C326 1.368 . S
H311 C319 0.950 . S
H312 C317 0.950 . S
H313 C318 0.949 . S
H314 C320 0.950 . S
H315 C321 0.950 . S
H316 C322 0.949 . S
C317 H312 0.950 . S
C317 C319 1.327 . S
C317 C323 1.429 . S
C318 C310 1.574 . S
C318 H313 0.949 . S
C318 C324 1.368 . S
C319 C303 1.349 . S
C319 H311 0.950 . S
C319 C317 1.327 . S
C320 C308 1.349 . S
C320 H314 0.950 . S
C320 C321 1.327 . S
C321 H315 0.950 . S
C321 C320 1.327 . S
C321 C325 1.429 . S
C322 C305 1.574 . S
C322 H316 0.949 . S
C322 C326 1.368 . S
C323 C304 1.429 . S
C323 C317 1.429 . S
C323 C324 1.523 . S
C324 C305 1.368 . S
C324 C318 1.368 . S
C324 C323 1.523 . S
C325 C309 1.429 . S
C325 C321 1.429 . S
C325 C326 1.523 . S
C326 C310 1.368 . S
C326 C322 1.368 . S
C326 C325 1.523 . S
H327 C302 0.950 . S
H328 C304 0.950 . S
H329 C305 0.949 . S
H330 C307 0.950 . S
H331 C309 0.950 . S
C332 C333 1.349 . S
C332 C334 1.327 . S
C332 H357 0.950 . S
C333 C332 1.349 . S
C333 C349 1.349 . S
C334 C332 1.327 . S
C334 C353 1.429 . S
C334 H358 0.950 . S
C335 C352 1.574 . S
C335 C354 1.368 . S
C335 H359 0.949 . S
H336 C340 0.949 . S
C337 C338 1.349 . S
C337 C339 1.327 . S
C337 H360 0.950 . S
C338 C337 1.349 . S
C338 C350 1.349 . S
C339 C337 1.327 . S
C339 C355 1.429 . S
C339 H361 0.950 . S
C340 H336 0.949 . S
C340 C348 1.574 . S
C340 C356 1.368 . S
H341 C349 0.950 . S
H342 C347 0.950 . S
H343 C348 0.949 . S
H344 C350 0.950 . S
H345 C351 0.950 . S
H346 C352 0.949 . S
C347 H342 0.950 . S
C347 C349 1.327 . S
C347 C353 1.429 . S
C348 C340 1.574 . S
C348 H343 0.949 . S
C348 C354 1.368 . S
C349 C333 1.349 . S
C349 H341 0.950 . S
C349 C347 1.327 . S
C350 C338 1.349 . S
C350 H344 0.950 . S
C350 C351 1.327 . S
C351 H345 0.950 . S
C351 C350 1.327 . S
C351 C355 1.429 . S
C352 C335 1.574 . S
C352 H346 0.949 . S
C352 C356 1.368 . S
C353 C334 1.429 . S
C353 C347 1.429 . S
C353 C354 1.523 . S
C354 C335 1.368 . S
C354 C348 1.368 . S
C354 C353 1.523 . S
C355 C339 1.429 . S
C355 C351 1.429 . S
C355 C356 1.523 . S
C356 C340 1.368 . S
C356 C352 1.368 . S
C356 C355 1.523 . S
H357 C332 0.950 . S
H358 C334 0.950 . S
H359 C335 0.949 . S
H360 C337 0.950 . S
H361 C339 0.950 . S
C362 C363 1.349 . S
C362 C364 1.327 . S
C362 H387 0.950 . S
C363 C362 1.349 . S
C363 C379 1.349 . S
C364 C362 1.327 . S
C364 C383 1.429 . S
C364 H388 0.950 . S
C365 C382 1.574 . S
C365 C384 1.368 . S
C365 H389 0.949 . S
H366 C370 0.949 . S
C367 C368 1.349 . S
C367 C369 1.327 . S
C367 H390 0.950 . S
C368 C367 1.349 . S
C368 C380 1.349 . S
C369 C367 1.327 . S
C369 C385 1.429 . S
C369 H391 0.950 . S
C370 H366 0.949 . S
C370 C378 1.574 . S
C370 C386 1.368 . S
H371 C379 0.950 . S
H372 C377 0.950 . S
H373 C378 0.949 . S
H374 C380 0.950 . S
H375 C381 0.950 . S
H376 C382 0.949 . S
C377 H372 0.950 . S
C377 C379 1.327 . S
C377 C383 1.429 . S
C378 C370 1.574 . S
C378 H373 0.949 . S
C378 C384 1.368 . S
C379 C363 1.349 . S
C379 H371 0.950 . S
C379 C377 1.327 . S
C380 C368 1.349 . S
C380 H374 0.950 . S
C380 C381 1.327 . S
C381 H375 0.950 . S
C381 C380 1.327 . S
C381 C385 1.429 . S
C382 C365 1.574 . S
C382 H376 0.949 . S
C382 C386 1.368 . S
C383 C364 1.429 . S
C383 C377 1.429 . S
C383 C384 1.523 . S
C384 C365 1.368 . S
C384 C378 1.368 . S
C384 C383 1.523 . S
C385 C369 1.429 . S
C385 C381 1.429 . S
C385 C386 1.523 . S
C386 C370 1.368 . S
C386 C382 1.368 . S
C386 C385 1.523 . S
H387 C362 0.950 . S
H388 C364 0.950 . S
H389 C365 0.949 . S
H390 C367 0.950 . S
H391 C369 0.950 . S
C392 C393 1.349 . S
C392 C394 1.327 . S
C392 H417 0.950 . S
C393 C392 1.349 . S
C393 C409 1.349 . S
C394 C392 1.327 . S
C394 C413 1.429 . S
C394 H418 0.950 . S
C395 C412 1.607 . S
C395 C414 1.368 . S
C395 H419 0.949 . S
H396 C400 0.949 . S
C397 C398 1.349 . S
C397 C399 1.327 . S
C397 H420 0.950 . S
C398 C397 1.349 . S
C398 C410 1.349 . S
C399 C397 1.327 . S
C399 C415 1.429 . S
C399 H421 0.950 . S
C400 H396 0.949 . S
C400 C408 1.561 1_556 S
C400 C416 1.368 . S
H401 C409 0.950 . S
H402 C407 0.950 . S
H403 C408 0.949 . S
H404 C410 0.950 . S
H405 C411 0.950 . S
H406 C412 0.949 . S
C407 H402 0.950 . S
C407 C409 1.327 . S
C407 C413 1.429 . S
C408 C400 1.561 1_554 S
C408 H403 0.949 . S
C408 C414 1.381 . S
C409 C393 1.349 . S
C409 H401 0.950 . S
C409 C407 1.327 . S
C410 C398 1.349 . S
C410 H404 0.950 . S
C410 C411 1.327 . S
C411 H405 0.950 . S
C411 C410 1.327 . S
C411 C415 1.429 . S
C412 C395 1.607 . S
C412 H406 0.949 . S
C412 C416 1.335 1_554 S
C413 C394 1.429 . S
C413 C407 1.429 . S
C413 C414 1.523 . S
C414 C395 1.368 . S
C414 C408 1.381 . S
C414 C413 1.523 . S
C415 C399 1.429 . S
C415 C411 1.429 . S
C415 C416 1.523 . S
C416 C400 1.368 . S
C416 C412 1.335 1_556 S
C416 C415 1.523 . S
H417 C392 0.950 . S
H418 C394 0.950 . S
H419 C395 0.949 . S
H420 C397 0.950 . S
H421 C399 0.950 . S
C422 C423 1.349 . S
C422 C424 1.327 . S
C422 H447 0.950 . S
C423 C422 1.349 . S
C423 C439 1.349 . S
C424 C422 1.327 . S
C424 C443 1.429 . S
C424 H448 0.950 . S
C425 C442 1.574 . S
C425 C444 1.368 . S
C425 H449 0.949 . S
H426 C430 0.949 . S
C427 C428 1.349 . S
C427 C429 1.327 . S
C427 H450 0.950 1_655 S
C428 C427 1.349 . S
C428 C440 1.349 . S
C429 C427 1.327 . S
C429 C445 1.429 . S
C429 H451 0.950 . S
C430 H426 0.949 . S
C430 C438 1.574 . S
C430 C446 1.368 . S
H431 C439 0.950 . S
H432 C437 0.950 . S
H433 C438 0.949 . S
H434 C440 0.950 . S
H435 C441 0.950 . S
H436 C442 0.949 . S
C437 H432 0.950 . S
C437 C439 1.327 . S
C437 C443 1.429 . S
C438 C430 1.574 . S
C438 H433 0.949 . S
C438 C444 1.368 . S
C439 C423 1.349 . S
C439 H431 0.950 . S
C439 C437 1.327 . S
C440 C428 1.349 . S
C440 H434 0.950 . S
C440 C441 1.327 . S
C441 H435 0.950 . S
C441 C440 1.327 . S
C441 C445 1.429 . S
C442 C425 1.574 . S
C442 H436 0.949 . S
C442 C446 1.368 . S
C443 C424 1.429 . S
C443 C437 1.429 . S
C443 C444 1.523 . S
C444 C425 1.368 . S
C444 C438 1.368 . S
C444 C443 1.523 . S
C445 C429 1.429 . S
C445 C441 1.429 . S
C445 C446 1.523 . S
C446 C430 1.368 . S
C446 C442 1.368 . S
C446 C445 1.523 . S
H447 C422 0.950 . S
H448 C424 0.950 . S
H449 C425 0.949 . S
H450 C427 0.950 1_455 S
H451 C429 0.950 . S
C452 C453 1.349 . S
C452 C454 1.327 . S
C452 H477 0.950 . S
C453 C452 1.349 . S
C453 C469 1.349 . S
C454 C452 1.327 . S
C454 C473 1.429 . S
C454 H478 0.950 . S
C455 C472 1.574 . S
C455 C474 1.368 . S
C455 H479 0.949 . S
H456 C460 0.949 . S
C457 C458 1.349 . S
C457 C459 1.327 . S
C457 H480 0.950 . S
C458 C457 1.349 . S
C458 C470 1.349 . S
C459 C457 1.327 . S
C459 C475 1.429 . S
C459 H481 0.950 . S
C460 H456 0.949 . S
C460 C468 1.574 . S
C460 C476 1.368 . S
H461 C469 0.950 . S
H462 C467 0.950 . S
H463 C468 0.949 . S
H464 C470 0.950 . S
H465 C471 0.950 . S
H466 C472 0.949 . S
C467 H462 0.950 . S
C467 C469 1.327 . S
C467 C473 1.429 . S
C468 C460 1.574 . S
C468 H463 0.949 . S
C468 C474 1.368 . S
C469 C453 1.349 . S
C469 H461 0.950 . S
C469 C467 1.327 . S
C470 C458 1.349 . S
C470 H464 0.950 . S
C470 C471 1.327 . S
C471 H465 0.950 . S
C471 C470 1.327 . S
C471 C475 1.429 . S
C472 C455 1.574 . S
C472 H466 0.949 . S
C472 C476 1.368 . S
C473 C454 1.429 . S
C473 C467 1.429 . S
C473 C474 1.523 . S
C474 C455 1.368 . S
C474 C468 1.368 . S
C474 C473 1.523 . S
C475 C459 1.429 . S
C475 C471 1.429 . S
C475 C476 1.523 . S
C476 C460 1.368 . S
C476 C472 1.368 . S
C476 C475 1.523 . S
H477 C452 0.950 . S
H478 C454 0.950 . S
H479 C455 0.949 . S
H480 C457 0.950 . S
H481 C459 0.950 . S
C482 C483 1.350 1_655 S
C482 C484 1.327 . S
C482 H507 0.950 . S
C483 C482 1.350 1_455 S
C483 C499 1.349 . S
C484 C482 1.327 . S
C484 C503 1.429 . S
C484 H508 0.950 . S
C485 C502 1.574 . S
C485 C504 1.368 . S
C485 H509 0.949 . S
H486 C490 0.949 . S
C487 C488 1.349 . S
C487 C489 1.327 . S
C487 H510 0.950 . S
C488 C487 1.349 . S
C488 C500 1.349 . S
C489 C487 1.327 . S
C489 C505 1.429 . S
C489 H511 0.950 . S
C490 H486 0.949 . S
C490 C498 1.574 . S
C490 C506 1.368 . S
H491 C499 0.950 . S
H492 C497 0.950 . S
H493 C498 0.949 . S
H494 C500 0.950 . S
H495 C501 0.950 . S
H496 C502 0.949 . S
C497 H492 0.950 . S
C497 C499 1.327 1_655 S
C497 C503 1.429 . S
C498 C490 1.574 . S
C498 H493 0.949 . S
C498 C504 1.368 . S
C499 C483 1.349 . S
C499 H491 0.950 . S
C499 C497 1.327 1_455 S
C500 C488 1.349 . S
C500 H494 0.950 . S
C500 C501 1.327 . S
C501 H495 0.950 . S
C501 C500 1.327 . S
C501 C505 1.429 . S
C502 C485 1.574 . S
C502 H496 0.949 . S
C502 C506 1.368 . S
C503 C484 1.429 . S
C503 C497 1.429 . S
C503 C504 1.523 . S
C504 C485 1.368 . S
C504 C498 1.368 . S
C504 C503 1.523 . S
C505 C489 1.429 . S
C505 C501 1.429 . S
C505 C506 1.523 . S
C506 C490 1.368 . S
C506 C502 1.368 . S
C506 C505 1.523 . S
H507 C482 0.950 . S
H508 C484 0.950 . S
H509 C485 0.949 . S
H510 C487 0.950 . S
H511 C489 0.950 . S
C512 C513 1.349 . S
C512 C514 1.327 . S
C512 H537 0.950 . S
C513 C512 1.349 . S
C513 C529 1.349 . S
C514 C512 1.327 . S
C514 C533 1.429 . S
C514 H538 0.950 . S
C515 C532 1.574 . S
C515 C534 1.368 . S
C515 H539 0.949 . S
H516 C520 0.949 . S
C517 C518 1.349 . S
C517 C519 1.327 . S
C517 H540 0.950 . S
C518 C517 1.349 . S
C518 C530 1.349 . S
C519 C517 1.327 . S
C519 C535 1.429 . S
C519 H541 0.950 . S
C520 H516 0.949 . S
C520 C528 1.574 . S
C520 C536 1.368 . S
H521 C529 0.950 . S
H522 C527 0.950 . S
H523 C528 0.949 . S
H524 C530 0.950 . S
H525 C531 0.950 . S
H526 C532 0.949 . S
C527 H522 0.950 . S
C527 C529 1.327 . S
C527 C533 1.429 . S
C528 C520 1.574 . S
C528 H523 0.949 . S
C528 C534 1.368 . S
C529 C513 1.349 . S
C529 H521 0.950 . S
C529 C527 1.327 . S
C530 C518 1.349 . S
C530 H524 0.950 . S
C530 C531 1.327 . S
C531 H525 0.950 . S
C531 C530 1.327 . S
C531 C535 1.429 . S
C532 C515 1.574 . S
C532 H526 0.949 . S
C532 C536 1.368 . S
C533 C514 1.429 . S
C533 C527 1.429 . S
C533 C534 1.523 . S
C534 C515 1.368 . S
C534 C528 1.368 . S
C534 C533 1.523 . S
C535 C519 1.429 . S
C535 C531 1.429 . S
C535 C536 1.523 . S
C536 C520 1.368 . S
C536 C532 1.368 . S
C536 C535 1.523 . S
H537 C512 0.950 . S
H538 C514 0.950 . S
H539 C515 0.949 . S
H540 C517 0.950 . S
H541 C519 0.950 . S
C542 C543 1.349 . S
C542 C544 1.327 . S
C542 H567 0.950 . S
C543 C542 1.349 . S
C543 C559 1.349 . S
C544 C542 1.327 . S
C544 C563 1.429 . S
C544 H568 0.950 . S
C545 C562 1.574 . S
C545 C564 1.368 . S
C545 H569 0.949 . S
H546 C550 0.949 . S
C547 C548 1.349 . S
C547 C549 1.327 . S
C547 H570 0.950 . S
C548 C547 1.349 . S
C548 C560 1.349 . S
C549 C547 1.327 . S
C549 C565 1.429 . S
C549 H571 0.950 . S
C550 H546 0.949 . S
C550 C558 1.574 . S
C550 C566 1.368 . S
H551 C559 0.950 . S
H552 C557 0.950 . S
H553 C558 0.949 . S
H554 C560 0.950 . S
H555 C561 0.950 . S
H556 C562 0.949 . S
C557 H552 0.950 . S
C557 C559 1.327 . S
C557 C563 1.429 . S
C558 C550 1.574 . S
C558 H553 0.949 . S
C558 C564 1.368 . S
C559 C543 1.349 . S
C559 H551 0.950 . S
C559 C557 1.327 . S
C560 C548 1.349 . S
C560 H554 0.950 . S
C560 C561 1.327 . S
C561 H555 0.950 . S
C561 C560 1.327 . S
C561 C565 1.429 . S
C562 C545 1.574 . S
C562 H556 0.949 . S
C562 C566 1.368 . S
C563 C544 1.429 . S
C563 C557 1.429 . S
C563 C564 1.523 . S
C564 C545 1.368 . S
C564 C558 1.368 . S
C564 C563 1.523 . S
C565 C549 1.429 . S
C565 C561 1.429 . S
C565 C566 1.523 . S
C566 C550 1.368 . S
C566 C562 1.368 . S
C566 C565 1.523 . S
H567 C542 0.950 . S
H568 C544 0.950 . S
H569 C545 0.949 . S
H570 C547 0.950 . S
H571 C549 0.950 . S
C572 C573 1.349 . S
C572 C574 1.327 . S
C572 H597 0.950 . S
C573 C572 1.349 . S
C573 C589 1.349 . S
C574 C572 1.327 . S
C574 C593 1.429 . S
C574 H598 0.950 . S
C575 C592 1.574 . S
C575 C594 1.368 1_545 S
C575 H599 0.949 . S
H576 C580 0.950 . S
C577 C578 1.349 . S
C577 C579 1.327 . S
C577 H600 0.950 . S
C578 C577 1.349 . S
C578 C590 1.349 . S
C579 C577 1.327 . S
C579 C595 1.429 . S
C579 H601 0.950 . S
C580 H576 0.950 . S
C580 C588 1.575 . S
C580 C596 1.367 1_565 S
H581 C589 0.950 . S
H582 C587 0.950 . S
H583 C588 0.949 . S
H584 C590 0.950 . S
H585 C591 0.950 . S
H586 C592 0.949 . S
C587 H582 0.950 . S
C587 C589 1.327 . S
C587 C593 1.429 . S
C588 C580 1.575 . S
C588 H583 0.949 . S
C588 C594 1.368 . S
C589 C573 1.349 . S
C589 H581 0.950 . S
C589 C587 1.327 . S
C590 C578 1.349 . S
C590 H584 0.950 . S
C590 C591 1.327 . S
C591 H585 0.950 . S
C591 C590 1.327 . S
C591 C595 1.429 . S
C592 C575 1.574 . S
C592 H586 0.949 . S
C592 C596 1.368 . S
C593 C574 1.429 . S
C593 C587 1.429 . S
C593 C594 1.523 . S
C594 C575 1.368 1_565 S
C594 C588 1.368 . S
C594 C593 1.523 . S
C595 C579 1.429 . S
C595 C591 1.429 . S
C595 C596 1.523 . S
C596 C580 1.367 1_545 S
C596 C592 1.368 . S
C596 C595 1.523 . S
H597 C572 0.950 . S
H598 C574 0.950 . S
H599 C575 0.949 . S
H600 C577 0.950 . S
H601 C579 0.950 . S
C602 C603 1.349 . S
C602 C604 1.327 . S
C602 H627 0.950 . S
C603 C602 1.349 . S
C603 C619 1.349 . S
C604 C602 1.327 . S
C604 C623 1.429 . S
C604 H628 0.950 . S
C605 C622 1.564 1_554 S
C605 C624 1.368 1_545 S
C605 H629 0.949 . S
H606 C610 0.949 . S
C607 C608 1.349 . S
C607 C609 1.327 . S
C607 H630 0.950 . S
C608 C607 1.349 . S
C608 C620 1.349 . S
C609 C607 1.327 . S
C609 C625 1.429 . S
C609 H631 0.950 . S
C610 H606 0.949 . S
C610 C618 1.569 . S
C610 C626 1.368 1_565 S
H611 C619 0.950 . S
H612 C617 0.937 1_545 S
H613 C618 0.949 1_554 S
H614 C620 0.950 . S
H615 C621 0.950 . S
H616 C622 0.948 . S
C617 H612 0.937 1_565 S
C617 C619 1.327 . S
C617 C623 1.429 . S
C618 C610 1.569 . S
C618 H613 0.949 1_556 S
C618 C624 1.373 1_556 S
C619 C603 1.349 . S
C619 H611 0.950 . S
C619 C617 1.327 . S
C620 C608 1.349 . S
C620 H614 0.950 . S
C620 C621 1.327 . S
C621 H615 0.950 . S
C621 C620 1.327 . S
C621 C625 1.429 . S
C622 C605 1.564 1_556 S
C622 H616 0.948 . S
C622 C626 1.378 . S
C623 C604 1.429 . S
C623 C617 1.429 . S
C623 C624 1.523 . S
C624 C605 1.368 1_565 S
C624 C618 1.373 1_554 S
C624 C623 1.523 . S
C625 C609 1.429 . S
C625 C621 1.429 . S
C625 C626 1.523 . S
C626 C610 1.368 1_545 S
C626 C622 1.378 . S
C626 C625 1.523 . S
H627 C602 0.950 . S
H628 C604 0.950 . S
H629 C605 0.949 . S
H630 C607 0.950 . S
H631 C609 0.950 . S
C632 C633 1.349 . S
C632 C634 1.327 . S
C632 H657 0.950 . S
C633 C632 1.349 . S
C633 C649 1.349 . S
C634 C632 1.327 . S
C634 C653 1.429 . S
C634 H658 0.950 . S
C635 C652 1.574 . S
C635 C654 1.368 . S
C635 H659 0.949 . S
H636 C640 0.949 . S
C637 C638 1.349 . S
C637 C639 1.327 . S
C637 H660 0.950 . S
C638 C637 1.349 . S
C638 C650 1.349 . S
C639 C637 1.327 . S
C639 C655 1.429 . S
C639 H661 0.950 . S
C640 H636 0.949 . S
C640 C648 1.574 . S
C640 C656 1.368 . S
H641 C649 0.950 . S
H642 C647 0.950 . S
H643 C648 0.949 . S
H644 C650 0.950 . S
H645 C651 0.950 . S
H646 C652 0.949 . S
C647 H642 0.950 . S
C647 C649 1.327 . S
C647 C653 1.429 . S
C648 C640 1.574 . S
C648 H643 0.949 . S
C648 C654 1.368 . S
C649 C633 1.349 . S
C649 H641 0.950 . S
C649 C647 1.327 . S
C650 C638 1.349 . S
C650 H644 0.950 . S
C650 C651 1.327 . S
C651 H645 0.950 . S
C651 C650 1.327 . S
C651 C655 1.429 . S
C652 C635 1.574 . S
C652 H646 0.949 . S
C652 C656 1.368 . S
C653 C634 1.429 . S
C653 C647 1.429 . S
C653 C654 1.523 . S
C654 C635 1.368 . S
C654 C648 1.368 . S
C654 C653 1.523 . S
C655 C639 1.429 . S
C655 C651 1.429 . S
C655 C656 1.523 . S
C656 C640 1.368 . S
C656 C652 1.368 . S
C656 C655 1.523 . S
H657 C632 0.950 . S
H658 C634 0.950 . S
H659 C635 0.949 . S
H660 C637 0.950 . S
H661 C639 0.950 . S
C662 C663 1.349 . S
C662 C664 1.327 . S
C662 H687 0.950 . S
C663 C662 1.349 . S
C663 C679 1.349 . S
C664 C662 1.327 . S
C664 C683 1.429 . S
C664 H688 0.950 . S
C665 C682 1.574 . S
C665 C684 1.368 . S
C665 H689 0.949 . S
H666 C670 0.949 . S
C667 C668 1.349 . S
C667 C669 1.327 1_565 S
C667 H690 0.950 . S
C668 C667 1.349 . S
C668 C680 1.349 . S
C669 C667 1.327 1_545 S
C669 C685 1.429 . S
C669 H691 0.950 . S
C670 H666 0.949 . S
C670 C678 1.574 . S
C670 C686 1.368 . S
H671 C679 0.950 . S
H672 C677 0.950 . S
H673 C678 0.949 . S
H674 C680 0.950 . S
H675 C681 0.950 . S
H676 C682 0.949 . S
C677 H672 0.950 . S
C677 C679 1.327 . S
C677 C683 1.429 . S
C678 C670 1.574 . S
C678 H673 0.949 . S
C678 C684 1.368 . S
C679 C663 1.349 . S
C679 H671 0.950 . S
C679 C677 1.327 . S
C680 C668 1.349 . S
C680 H674 0.950 . S
C680 C681 1.327 1_565 S
C681 H675 0.950 . S
C681 C680 1.327 1_545 S
C681 C685 1.429 . S
C682 C665 1.574 . S
C682 H676 0.949 . S
C682 C686 1.368 . S
C683 C664 1.429 . S
C683 C677 1.429 . S
C683 C684 1.523 . S
C684 C665 1.368 . S
C684 C678 1.368 . S
C684 C683 1.523 . S
C685 C669 1.429 . S
C685 C681 1.429 . S
C685 C686 1.523 . S
C686 C670 1.368 . S
C686 C682 1.368 . S
C686 C685 1.523 . S
H687 C662 0.950 . S
H688 C664 0.950 . S
H689 C665 0.949 . S
H690 C667 0.950 . S
H691 C669 0.950 . S
C692 C693 1.349 . S
C692 C694 1.327 . S
C692 H717 0.950 . S
C693 C692 1.349 . S
C693 C709 1.349 . S
C694 C692 1.327 . S
C694 C713 1.429 . S
C694 H718 0.950 . S
C695 C712 1.574 . S
C695 C714 1.368 . S
C695 H719 0.949 . S
H696 C700 0.949 . S
C697 C698 1.349 . S
C697 C699 1.327 . S
C697 H720 0.950 . S
C698 C697 1.349 . S
C698 C710 1.349 . S
C699 C697 1.327 . S
C699 C715 1.429 . S
C699 H721 0.950 . S
C700 H696 0.949 . S
C700 C708 1.574 . S
C700 C716 1.368 . S
H701 C709 0.950 . S
H702 C707 0.950 . S
H703 C708 0.949 . S
H704 C710 0.950 . S
H705 C711 0.950 . S
H706 C712 0.949 . S
C707 H702 0.950 . S
C707 C709 1.327 . S
C707 C713 1.429 . S
C708 C700 1.574 . S
C708 H703 0.949 . S
C708 C714 1.368 . S
C709 C693 1.349 . S
C709 H701 0.950 . S
C709 C707 1.327 . S
C710 C698 1.349 . S
C710 H704 0.950 . S
C710 C711 1.327 . S
C711 H705 0.950 . S
C711 C710 1.327 . S
C711 C715 1.429 . S
C712 C695 1.574 . S
C712 H706 0.949 . S
C712 C716 1.368 . S
C713 C694 1.429 . S
C713 C707 1.429 . S
C713 C714 1.523 . S
C714 C695 1.368 . S
C714 C708 1.368 . S
C714 C713 1.523 . S
C715 C699 1.429 . S
C715 C711 1.429 . S
C715 C716 1.523 1_655 S
C716 C700 1.368 . S
C716 C712 1.368 . S
C716 C715 1.523 1_455 S
H717 C692 0.950 . S
H718 C694 0.950 . S
H719 C695 0.949 . S
H720 C697 0.950 . S
H721 C699 0.950 . S
C722 C723 1.349 . S
C722 C724 1.327 . S
C722 H747 0.950 . S
C723 C722 1.349 . S
C723 C739 1.349 . S
C724 C722 1.327 . S
C724 C743 1.429 . S
C724 H748 0.950 . S
C725 C742 1.574 . S
C725 C744 1.368 . S
C725 H749 0.949 . S
H726 C730 0.949 . S
C727 C728 1.349 . S
C727 C729 1.327 . S
C727 H750 0.950 . S
C728 C727 1.349 . S
C728 C740 1.349 . S
C729 C727 1.327 . S
C729 C745 1.429 . S
C729 H751 0.950 . S
C730 H726 0.949 . S
C730 C738 1.574 . S
C730 C746 1.368 . S
H731 C739 0.950 . S
H732 C737 0.950 . S
H733 C738 0.949 . S
H734 C740 0.950 . S
H735 C741 0.950 . S
H736 C742 0.949 . S
C737 H732 0.950 . S
C737 C739 1.327 . S
C737 C743 1.429 . S
C738 C730 1.574 . S
C738 H733 0.949 . S
C738 C744 1.368 . S
C739 C723 1.349 . S
C739 H731 0.950 . S
C739 C737 1.327 . S
C740 C728 1.349 . S
C740 H734 0.950 . S
C740 C741 1.327 . S
C741 H735 0.950 . S
C741 C740 1.327 . S
C741 C745 1.429 . S
C742 C725 1.574 . S
C742 H736 0.949 . S
C742 C746 1.368 . S
C743 C724 1.429 . S
C743 C737 1.429 . S
C743 C744 1.523 . S
C744 C725 1.368 . S
C744 C738 1.368 . S
C744 C743 1.523 . S
C745 C729 1.429 . S
C745 C741 1.429 . S
C745 C746 1.523 . S
C746 C730 1.368 . S
C746 C742 1.368 . S
C746 C745 1.523 . S
H747 C722 0.950 . S
H748 C724 0.950 . S
H749 C725 0.949 . S
H750 C727 0.950 . S
H751 C729 0.950 . S
C752 C753 1.349 . S
C752 C754 1.327 . S
C752 H777 0.950 . S
C753 C752 1.349 . S
C753 C769 1.349 . S
C754 C752 1.327 . S
C754 C773 1.429 . S
C754 H778 0.950 . S
C755 C772 1.574 . S
C755 C774 1.368 . S
C755 H779 0.949 . S
H756 C760 0.949 . S
C757 C758 1.349 . S
C757 C759 1.327 . S
C757 H780 0.950 . S
C758 C757 1.349 . S
C758 C770 1.349 . S
C759 C757 1.327 . S
C759 C775 1.429 . S
C759 H781 0.950 . S
C760 H756 0.949 . S
C760 C768 1.574 . S
C760 C776 1.368 . S
H761 C769 0.950 . S
H762 C767 0.950 . S
H763 C768 0.949 . S
H764 C770 0.950 . S
H765 C771 0.950 . S
H766 C772 0.949 . S
C767 H762 0.950 . S
C767 C769 1.327 . S
C767 C773 1.429 . S
C768 C760 1.574 . S
C768 H763 0.949 . S
C768 C774 1.368 . S
C769 C753 1.349 . S
C769 H761 0.950 . S
C769 C767 1.327 . S
C770 C758 1.349 . S
C770 H764 0.950 . S
C770 C771 1.327 . S
C771 H765 0.950 . S
C771 C770 1.327 . S
C771 C775 1.429 . S
C772 C755 1.574 . S
C772 H766 0.949 . S
C772 C776 1.368 . S
C773 C754 1.429 . S
C773 C767 1.429 . S
C773 C774 1.523 . S
C774 C755 1.368 . S
C774 C768 1.368 . S
C774 C773 1.523 . S
C775 C759 1.429 . S
C775 C771 1.429 . S
C775 C776 1.523 . S
C776 C760 1.368 . S
C776 C772 1.368 . S
C776 C775 1.523 . S
H777 C752 0.950 . S
H778 C754 0.950 . S
H779 C755 0.949 . S
H780 C757 0.950 . S
H781 C759 0.950 . S
C782 C783 1.349 . S
C782 C784 1.327 . S
C782 H807 0.950 . S
C783 C782 1.349 . S
C783 C799 1.349 . S
C784 C782 1.327 . S
C784 C803 1.429 . S
C784 H808 0.950 . S
C785 C802 1.574 . S
C785 C804 1.368 . S
C785 H809 0.949 . S
H786 C790 0.949 . S
C787 C788 1.349 . S
C787 C789 1.327 . S
C787 H810 0.950 . S
C788 C787 1.349 . S
C788 C800 1.349 . S
C789 C787 1.327 . S
C789 C805 1.429 . S
C789 H811 0.950 . S
C790 H786 0.949 . S
C790 C798 1.574 . S
C790 C806 1.368 . S
H791 C799 0.950 . S
H792 C797 0.950 . S
H793 C798 0.949 . S
H794 C800 0.950 . S
H795 C801 0.950 . S
H796 C802 0.949 . S
C797 H792 0.950 . S
C797 C799 1.327 . S
C797 C803 1.429 . S
C798 C790 1.574 . S
C798 H793 0.949 . S
C798 C804 1.368 . S
C799 C783 1.349 . S
C799 H791 0.950 . S
C799 C797 1.327 . S
C800 C788 1.349 . S
C800 H794 0.950 . S
C800 C801 1.327 . S
C801 H795 0.950 . S
C801 C800 1.327 . S
C801 C805 1.429 . S
C802 C785 1.574 . S
C802 H796 0.949 . S
C802 C806 1.368 . S
C803 C784 1.429 . S
C803 C797 1.429 . S
C803 C804 1.523 . S
C804 C785 1.368 . S
C804 C798 1.368 . S
C804 C803 1.523 . S
C805 C789 1.429 . S
C805 C801 1.429 . S
C805 C806 1.523 . S
C806 C790 1.368 . S
C806 C802 1.368 . S
C806 C805 1.523 . S
H807 C782 0.950 . S
H808 C784 0.950 . S
H809 C785 0.949 . S
H810 C787 0.950 . S
H811 C789 0.950 . S
C812 C813 1.349 . S
C812 C814 1.327 1_655 S
C812 H837 0.950 . S
C813 C812 1.349 . S
C813 C829 1.349 . S
C814 C812 1.327 1_455 S
C814 C833 1.429 . S
C814 H838 0.950 . S
C815 C832 1.574 . S
C815 C834 1.368 . S
C815 H839 0.949 . S
H816 C820 0.949 . S
C817 C818 1.349 . S
C817 C819 1.327 . S
C817 H840 0.950 . S
C818 C817 1.349 . S
C818 C830 1.349 . S
C819 C817 1.327 . S
C819 C835 1.429 . S
C819 H841 0.950 . S
C820 H816 0.949 . S
C820 C828 1.574 . S
C820 C836 1.368 . S
H821 C829 0.950 . S
H822 C827 0.950 . S
H823 C828 0.949 . S
H824 C830 0.950 . S
H825 C831 0.950 . S
H826 C832 0.949 . S
C827 H822 0.950 . S
C827 C829 1.327 1_455 S
C827 C833 1.429 . S
C828 C820 1.574 . S
C828 H823 0.949 . S
C828 C834 1.368 . S
C829 C813 1.349 . S
C829 H821 0.950 . S
C829 C827 1.327 1_655 S
C830 C818 1.349 . S
C830 H824 0.950 . S
C830 C831 1.327 . S
C831 H825 0.950 . S
C831 C830 1.327 . S
C831 C835 1.429 . S
C832 C815 1.574 . S
C832 H826 0.949 . S
C832 C836 1.368 . S
C833 C814 1.429 . S
C833 C827 1.429 . S
C833 C834 1.523 . S
C834 C815 1.368 . S
C834 C828 1.368 . S
C834 C833 1.523 . S
C835 C819 1.429 . S
C835 C831 1.429 . S
C835 C836 1.523 . S
C836 C820 1.368 . S
C836 C832 1.368 . S
C836 C835 1.523 . S
H837 C812 0.950 . S
H838 C814 0.950 . S
H839 C815 0.949 . S
H840 C817 0.950 . S
H841 C819 0.950 . S
C842 C843 1.349 1_565 S
C842 C844 1.327 . S
C842 H867 0.950 . S
C843 C842 1.349 1_545 S
C843 C859 1.349 1_545 S
C844 C842 1.327 . S
C844 C863 1.429 . S
C844 H868 0.950 . S
C845 C862 1.574 . S
C845 C864 1.368 . S
C845 H869 0.949 . S
H846 C850 0.949 . S
C847 C848 1.349 . S
C847 C849 1.327 . S
C847 H870 0.950 . S
C848 C847 1.349 . S
C848 C860 1.349 . S
C849 C847 1.327 . S
C849 C865 1.429 . S
C849 H871 0.950 . S
C850 H846 0.949 . S
C850 C858 1.574 . S
C850 C866 1.368 . S
H851 C859 0.950 1_545 S
H852 C857 0.950 . S
H853 C858 0.949 . S
H854 C860 0.950 . S
H855 C861 0.950 . S
H856 C862 0.949 . S
C857 H852 0.950 . S
C857 C859 1.327 . S
C857 C863 1.429 . S
C858 C850 1.574 . S
C858 H853 0.949 . S
C858 C864 1.368 . S
C859 C843 1.349 1_565 S
C859 H851 0.950 1_565 S
C859 C857 1.327 . S
C860 C848 1.349 . S
C860 H854 0.950 . S
C860 C861 1.327 . S
C861 H855 0.950 . S
C861 C860 1.327 . S
C861 C865 1.429 . S
C862 C845 1.574 . S
C862 H856 0.949 . S
C862 C866 1.368 . S
C863 C844 1.429 . S
C863 C857 1.429 . S
C863 C864 1.523 . S
C864 C845 1.368 . S
C864 C858 1.368 . S
C864 C863 1.523 . S
C865 C849 1.429 . S
C865 C861 1.429 . S
C865 C866 1.523 . S
C866 C850 1.368 . S
C866 C862 1.368 . S
C866 C865 1.523 . S
H867 C842 0.950 . S
H868 C844 0.950 . S
H869 C845 0.949 . S
H870 C847 0.950 . S
H871 C849 0.950 . S
C273 C20 1.413 . S
C278 C190 1.413 . S
C303 C224 1.443 . S
C308 C54 1.443 . S
C333 C88 1.413 . S
C338 C258 1.413 . S
C363 C156 1.442 . S
C368 C122 1.442 . S
C393 C33 0.946 . S
C398 C138 0.948 . S
C423 C67 0.940 . S
C428 C172 0.942 1_655 S
C453 C237 0.939 . S
C458 C70 0.942 . S
C483 C104 0.947 . S
C488 C271 0.945 . S
C513 C135 0.940 . S
C518 C240 0.942 . S
C543 C203 0.945 . S
C548 C36 0.948 . S
C573 C206 0.948 . S
C578 C101 0.945 . S
C603 C2 0.942 . S
C608 C169 0.939 . S
C633 C9 1.521 . S
C638 C5 1.615 . S
C663 C43 1.520 . S
C668 C39 1.617 . S
C693 C77 1.521 . S
C698 C73 1.615 . S
C723 C111 1.520 . S
C728 C107 1.617 . S
C753 C141 1.617 . S
C758 C145 1.520 . S
C783 C179 1.521 1_545 S
C788 C175 1.615 . S
C813 C213 1.520 . S
C818 C209 1.617 . S
C843 C243 1.615 . S
C848 C247 1.521 . S
