# Generated by pormake.
# Topology wiu, (6)-cn, num edge types: 1
# Building blocks:
#     Node 0, Type 0, BuildingBlock: PAMTUU_clean_sbu_0, # of connection points: 6
#     Node 1, Type 0, BuildingBlock: PAMTUU_clean_sbu_0, # of connection points: 6
#     Node 2, Type 0, BuildingBlock: PAMTUU_clean_sbu_0, # of connection points: 6
#     Node 3, Type 0, BuildingBlock: PAMTUU_clean_sbu_0, # of connection points: 6
#     Node 4, Type 0, BuildingBlock: PAMTUU_clean_sbu_0, # of connection points: 6
#     Node 5, Type 0, BuildingBlock: PAMTUU_clean_sbu_0, # of connection points: 6
#     Node 6, Type 0, BuildingBlock: PAMTUU_clean_sbu_0, # of connection points: 6
#     Node 7, Type 0, BuildingBlock: PAMTUU_clean_sbu_0, # of connection points: 6
#     Node 8, Type 0, BuildingBlock: PAMTUU_clean_sbu_0, # of connection points: 6
#     Node 9, Type 0, BuildingBlock: PAMTUU_clean_sbu_0, # of connection points: 6
#     Node 10, Type 0, BuildingBlock: PAMTUU_clean_sbu_0, # of connection points: 6
#     Node 11, Type 0, BuildingBlock: PAMTUU_clean_sbu_0, # of connection points: 6
#     Node 12, Type 0, BuildingBlock: PAMTUU_clean_sbu_0, # of connection points: 6
#     Node 13, Type 0, BuildingBlock: PAMTUU_clean_sbu_0, # of connection points: 6
#     Node 14, Type 0, BuildingBlock: PAMTUU_clean_sbu_0, # of connection points: 6
#     Node 15, Type 0, BuildingBlock: PAMTUU_clean_sbu_0, # of connection points: 6
#     Edge 16, Type (0, 0), BuildingBlock: XIVTED_clean_linker_0, # of connection points: 2
#     Edge 17, Type (0, 0), BuildingBlock: XIVTED_clean_linker_0, # of connection points: 2
#     Edge 18, Type (0, 0), BuildingBlock: XIVTED_clean_linker_0, # of connection points: 2
#     Edge 19, Type (0, 0), BuildingBlock: XIVTED_clean_linker_0, # of connection points: 2
#     Edge 20, Type (0, 0), BuildingBlock: XIVTED_clean_linker_0, # of connection points: 2
#     Edge 21, Type (0, 0), BuildingBlock: XIVTED_clean_linker_0, # of connection points: 2
#     Edge 22, Type (0, 0), BuildingBlock: XIVTED_clean_linker_0, # of connection points: 2
#     Edge 23, Type (0, 0), BuildingBlock: XIVTED_clean_linker_0, # of connection points: 2
#     Edge 24, Type (0, 0), BuildingBlock: XIVTED_clean_linker_0, # of connection points: 2
#     Edge 25, Type (0, 0), BuildingBlock: XIVTED_clean_linker_0, # of connection points: 2
#     Edge 26, Type (0, 0), BuildingBlock: XIVTED_clean_linker_0, # of connection points: 2
#     Edge 27, Type (0, 0), BuildingBlock: XIVTED_clean_linker_0, # of connection points: 2
#     Edge 28, Type (0, 0), BuildingBlock: XIVTED_clean_linker_0, # of connection points: 2
#     Edge 29, Type (0, 0), BuildingBlock: XIVTED_clean_linker_0, # of connection points: 2
#     Edge 30, Type (0, 0), BuildingBlock: XIVTED_clean_linker_0, # of connection points: 2
#     Edge 31, Type (0, 0), BuildingBlock: XIVTED_clean_linker_0, # of connection points: 2
#     Edge 32, Type (0, 0), BuildingBlock: XIVTED_clean_linker_0, # of connection points: 2
#     Edge 33, Type (0, 0), BuildingBlock: XIVTED_clean_linker_0, # of connection points: 2
#     Edge 34, Type (0, 0), BuildingBlock: XIVTED_clean_linker_0, # of connection points: 2
#     Edge 35, Type (0, 0), BuildingBlock: XIVTED_clean_linker_0, # of connection points: 2
#     Edge 36, Type (0, 0), BuildingBlock: XIVTED_clean_linker_0, # of connection points: 2
#     Edge 37, Type (0, 0), BuildingBlock: XIVTED_clean_linker_0, # of connection points: 2
#     Edge 38, Type (0, 0), BuildingBlock: XIVTED_clean_linker_0, # of connection points: 2
#     Edge 39, Type (0, 0), BuildingBlock: XIVTED_clean_linker_0, # of connection points: 2
#     Edge 40, Type (0, 0), BuildingBlock: XIVTED_clean_linker_0, # of connection points: 2
#     Edge 41, Type (0, 0), BuildingBlock: XIVTED_clean_linker_0, # of connection points: 2
#     Edge 42, Type (0, 0), BuildingBlock: XIVTED_clean_linker_0, # of connection points: 2
#     Edge 43, Type (0, 0), BuildingBlock: XIVTED_clean_linker_0, # of connection points: 2
#     Edge 44, Type (0, 0), BuildingBlock: XIVTED_clean_linker_0, # of connection points: 2
#     Edge 45, Type (0, 0), BuildingBlock: XIVTED_clean_linker_0, # of connection points: 2
#     Edge 46, Type (0, 0), BuildingBlock: XIVTED_clean_linker_0, # of connection points: 2
#     Edge 47, Type (0, 0), BuildingBlock: XIVTED_clean_linker_0, # of connection points: 2
#     Edge 48, Type (0, 0), BuildingBlock: XIVTED_clean_linker_0, # of connection points: 2
#     Edge 49, Type (0, 0), BuildingBlock: XIVTED_clean_linker_0, # of connection points: 2
#     Edge 50, Type (0, 0), BuildingBlock: XIVTED_clean_linker_0, # of connection points: 2
#     Edge 51, Type (0, 0), BuildingBlock: XIVTED_clean_linker_0, # of connection points: 2
#     Edge 52, Type (0, 0), BuildingBlock: XIVTED_clean_linker_0, # of connection points: 2
#     Edge 53, Type (0, 0), BuildingBlock: XIVTED_clean_linker_0, # of connection points: 2
#     Edge 54, Type (0, 0), BuildingBlock: XIVTED_clean_linker_0, # of connection points: 2
#     Edge 55, Type (0, 0), BuildingBlock: XIVTED_clean_linker_0, # of connection points: 2
#     Edge 56, Type (0, 0), BuildingBlock: XIVTED_clean_linker_0, # of connection points: 2
#     Edge 57, Type (0, 0), BuildingBlock: XIVTED_clean_linker_0, # of connection points: 2
#     Edge 58, Type (0, 0), BuildingBlock: XIVTED_clean_linker_0, # of connection points: 2
#     Edge 59, Type (0, 0), BuildingBlock: XIVTED_clean_linker_0, # of connection points: 2
#     Edge 60, Type (0, 0), BuildingBlock: XIVTED_clean_linker_0, # of connection points: 2
#     Edge 61, Type (0, 0), BuildingBlock: XIVTED_clean_linker_0, # of connection points: 2
#     Edge 62, Type (0, 0), BuildingBlock: XIVTED_clean_linker_0, # of connection points: 2
#     Edge 63, Type (0, 0), BuildingBlock: XIVTED_clean_linker_0, # of connection points: 2
# Relax obj value: 0.491
# Max RMSD: 0.303
# Mean RMSD: 0.303
data_MOF--net-wiu--node1-PAMTUU_clean_sbu_0--edge1-XIVTED_clean_linker_0
_symmetry_space_group_name_H-M    P1
_symmetry_Int_Tables_number       1
_symmetry_cell_setting            triclinic
loop_
_symmetry_equiv_pos_as_xyz
'x, y, z'
_cell_length_a     37.427543
_cell_length_b     37.393838
_cell_length_c     55.276608
_cell_angle_alpha  89.88037
_cell_angle_beta   89.800453
_cell_angle_gamma 89.965266
loop_
_atom_site_label
_atom_site_type_symbol
_atom_site_fract_x
_atom_site_fract_y
_atom_site_fract_z
_atom_type_partial_charge
Tb0 Tb 0.40199 0.11829 0.29777 0.0
Tb1 Tb 0.34746 0.17936 0.31574 0.0
C2 C 0.31831 0.10294 0.30392 0.0
C3 C 0.45078 0.04519 0.26651 0.0
C4 C 0.47476 1.0148 0.22322 0.0
C5 C 0.49223 1.007 0.24509 0.0
C6 C 0.4804 1.02238 0.26662 0.0
C7 C 0.43063 0.04936 0.24538 0.0
C8 C 0.44258 0.03425 0.22379 0.0
C9 C 0.44581 0.06985 0.28662 0.0
O10 O 0.36947 0.12622 0.26509 0.0
O11 O 0.34158 0.17882 0.27552 0.0
O12 O 0.40061 0.20488 0.31675 0.0
O13 O 0.43199 0.16812 0.29162 0.0
O14 O 0.3375 0.22476 0.3373 0.0
O15 O 0.29815 0.20563 0.31216 0.0
O16 O 0.35333 0.14397 0.34808 0.0
O17 O 0.40686 0.11939 0.33736 0.0
O18 O 0.34901 0.09424 0.29381 0.0
O19 O 0.3147 0.13174 0.31722 0.0
C20 C 0.34736 0.15262 0.2598 0.0
O21 O 0.44951 0.10343 0.28079 0.0
O22 O 0.4183 0.06454 0.30069 0.0
C23 C 0.42939 0.19821 0.30377 0.0
C24 C 0.30214 0.26794 0.31639 0.0
C25 C 0.29006 0.33447 0.29321 0.0
C26 C 0.32509 0.32217 0.29732 0.0
C27 C 0.33109 0.28909 0.30864 0.0
C28 C 0.26726 0.2806 0.31283 0.0
C29 C 0.26126 0.31341 0.30133 0.0
C30 C 0.30736 0.2316 0.32644 0.0
C31 C 0.3814 0.12393 0.35348 0.0
H32 H 0.51667 0.99147 0.24521 0.0
H33 H 0.49608 1.01885 0.2829 0.0
H34 H 0.40761 0.06694 0.2451 0.0
H35 H 0.42854 0.04084 0.20727 0.0
H36 H 0.34783 0.33761 0.29113 0.0
H37 H 0.35829 0.27977 0.31087 0.0
H38 H 0.24454 0.2647 0.31854 0.0
H39 H 0.23399 0.32228 0.29874 0.0
Tb40 Tb 0.698 0.64568 0.54635 0.0
Tb41 Tb 0.63647 0.59574 0.56811 0.0
C42 C 0.71005 0.56231 0.55368 0.0
C43 C 0.75543 0.69819 0.50497 0.0
C44 C 0.76225 0.7274 0.4586 0.0
C45 C 0.7786 0.74411 0.47845 0.0
C46 C 0.77501 0.72963 0.50157 0.0
C47 C 0.74212 0.67956 0.48497 0.0
C48 C 0.74549 0.6941 0.46186 0.0
C49 C 0.74275 0.68938 0.52916 0.0
O50 O 0.67384 0.62278 0.51327 0.0
O51 O 0.64189 0.57667 0.53034 0.0
O52 O 0.61015 0.64273 0.55197 0.0
O53 O 0.65491 0.68052 0.56037 0.0
O54 O 0.58971 0.59408 0.5894 0.0
O55 O 0.60897 0.5469 0.57132 0.0
O56 O 0.666 0.61508 0.60102 0.0
O57 O 0.71677 0.63756 0.58314 0.0
O58 O 0.71757 0.59125 0.54104 0.0
O59 O 0.68377 0.56184 0.56958 0.0
C60 C 0.65705 0.59174 0.51122 0.0
O61 O 0.70907 0.69646 0.53256 0.0
O62 O 0.75143 0.65816 0.53775 0.0
C63 C 0.62088 0.67556 0.55585 0.0
C64 C 0.54636 0.55514 0.57185 0.0
C65 C 0.48052 0.54188 0.54816 0.0
C66 C 0.49045 0.5769 0.55455 0.0
C67 C 0.52305 0.58349 0.56616 0.0
C68 C 0.536 0.5201 0.56604 0.0
C69 C 0.50359 0.51356 0.55427 0.0
C70 C 0.58214 0.56155 0.58261 0.0
C71 C 0.69925 0.6276 0.60263 0.0
H72 H 0.79236 0.7694 0.47631 0.0
H73 H 0.78534 0.74427 0.51693 0.0
H74 H 0.7268 0.65526 0.48744 0.0
H75 H 0.73256 0.68066 0.44694 0.0
H76 H 0.47346 0.59936 0.54997 0.0
H77 H 0.5302 0.61086 0.57027 0.0
H78 H 0.55333 0.49774 0.57026 0.0
H79 H 0.49657 0.48621 0.54996 0.0
Tb80 Tb 0.16893 0.95058 0.79378 0.0
Tb81 Tb 0.21892 0.88851 0.81676 0.0
C82 C 0.25135 0.96447 0.8057 0.0
C83 C 0.09524 0.98827 0.75903 0.0
C84 C 0.04122 0.9762 0.72482 0.0
C85 C 0.04942 1.01119 0.73235 0.0
C86 C 0.07633 1.01717 0.74933 0.0
C87 C 0.08615 0.95325 0.75238 0.0
C88 C 0.05932 0.94725 0.73543 0.0
C89 C 0.12567 0.99441 0.77506 0.0
O90 O 0.19212 0.92335 0.76183 0.0
O91 O 0.24006 0.89624 0.77978 0.0
O92 O 0.17219 0.86037 0.80157 0.0
O93 O 0.13231 0.90607 0.80169 0.0
O94 O 0.22149 0.84198 0.83832 0.0
O95 O 0.26801 0.86147 0.81955 0.0
O96 O 0.20015 0.91918 0.84916 0.0
O97 O 0.17639 0.96946 0.83102 0.0
O98 O 0.22232 0.97402 0.79389 0.0
O99 O 0.25247 0.93573 0.81949 0.0
C100 C 0.22467 0.90967 0.76035 0.0
O101 O 0.12229 0.98157 0.79682 0.0
O102 O 0.15669 0.98661 0.76582 0.0
C103 C 0.13891 0.87163 0.80112 0.0
C104 C 0.26113 0.79884 0.82085 0.0
C105 C 0.2764 0.73317 0.79728 0.0
C106 C 0.24087 0.74347 0.80198 0.0
C107 C 0.23329 0.77604 0.81351 0.0
C108 C 0.29658 0.78806 0.81677 0.0
C109 C 0.30414 0.75573 0.80507 0.0
C110 C 0.25403 0.83474 0.83131 0.0
C111 C 0.18657 0.95204 0.8506 0.0
H112 H 0.03629 1.03406 0.72424 0.0
H113 H 0.08312 0.04434 0.75429 0.0
H114 H 0.10053 0.93061 0.75977 0.0
H115 H 0.05339 0.92002 0.73013 0.0
H116 H 0.21886 0.72687 0.79608 0.0
H117 H 0.20564 0.78362 0.81622 0.0
H118 H 0.31854 0.80505 0.82224 0.0
H119 H 0.33181 0.74843 0.80208 0.0
Tb120 Tb 0.87135 0.42126 1.04791 0.0
Tb121 Tb 0.93396 0.47297 1.06726 0.0
C122 C 0.85905 0.50474 1.05518 0.0
C123 C 0.80303 0.37426 1.01112 0.0
C124 C 0.77553 0.351 0.96698 0.0
C125 C 0.76287 0.33623 0.98878 0.0
C126 C 0.77678 0.34768 1.01077 0.0
C127 C 0.81267 0.39195 0.98972 0.0
C128 C 0.799 0.38034 0.9677 0.0
C129 C 0.82414 0.37897 1.03293 0.0
O130 O 0.89252 0.4451 1.01395 0.0
O131 O 0.9268 0.49075 1.02934 0.0
O132 O 0.96029 0.4247 1.05267 0.0
O133 O 0.91512 0.38608 1.05979 0.0
O134 O 0.981 0.47658 1.08791 0.0
O135 O 0.96116 0.52211 1.06813 0.0
O136 O 0.9051 0.45732 1.10128 0.0
O137 O 0.85824 0.42419 1.08627 0.0
O138 O 0.85108 0.47558 1.04304 0.0
O139 O 0.88612 0.50563 1.07026 0.0
C140 C 0.91009 0.47559 1.01097 0.0
O141 O 0.8584 0.37397 1.03006 0.0
O142 O 0.8171 0.40707 1.046 0.0
C143 C 0.94926 0.39171 1.05595 0.0
C144 C 1.02372 0.51507 1.069 0.0
C145 C 0.08925 0.5288 1.04484 0.0
C146 C 0.07864 0.49351 1.05006 0.0
C147 C 0.04612 0.48669 1.06189 0.0
C148 C 0.03477 0.55029 1.06435 0.0
C149 C 0.06705 0.55709 1.05235 0.0
C150 C 0.98804 0.50873 1.07997 0.0
C151 C 0.8749 0.43912 1.10449 0.0
H152 H 0.74425 0.31406 0.98871 0.0
H153 H 0.76896 0.33405 1.02728 0.0
H154 H 0.83286 0.41271 0.98984 0.0
H155 H 0.80938 0.39219 0.95122 0.0
H156 H 0.09499 0.47112 1.04438 0.0
H157 H 0.03828 0.4592 1.06505 0.0
H158 H 1.01806 0.57263 1.06965 0.0
H159 H 0.07464 0.58459 1.04892 0.0
Tb160 Tb 0.72112 0.89009 0.95752 0.0
Tb161 Tb 0.67126 0.95323 0.97715 0.0
C162 C 0.64145 0.87583 0.9689 0.0
C163 C 0.76279 0.80015 0.95509 0.0
C164 C 0.77842 0.73483 0.97903 0.0
C165 C 0.74282 0.74587 0.97565 0.0
C166 C 0.73507 0.77825 0.96394 0.0
C167 C 0.79828 0.78885 0.95808 0.0
C168 C 0.80603 0.75667 0.96997 0.0
C169 C 0.75548 0.83547 0.94381 0.0
O170 O 0.70162 0.91825 0.92391 0.0
O171 O 0.68074 0.97072 0.94024 0.0
O172 O 0.72544 0.97279 0.9829 0.0
O173 O 0.75516 0.93724 0.95559 0.0
O174 O 0.62217 0.96335 0.99369 0.0
O175 O 0.65549 1.00694 0.9813 0.0
O176 O 0.69653 0.93378 1.01087 0.0
O177 O 0.7384 0.89442 0.99574 0.0
O178 O 0.67383 0.8651 0.97404 0.0
O179 O 0.63724 0.9096 0.96305 0.0
C180 C 0.69007 0.95179 0.9213 0.0
O181 O 0.77012 0.86285 0.95436 0.0
O182 O 0.72262 0.84234 0.93743 0.0
C183 C 0.75462 0.96417 0.9709 0.0
C184 C 0.61982 1.01557 1.01602 0.0
C185 C 0.5947 1.03151 1.06247 0.0
C186 C 0.57584 0.04333 1.04201 0.0
C187 C 0.58829 0.03521 1.01887 0.0
C188 C 0.64067 1.00707 1.03623 0.0
C189 C 0.62818 1.01502 1.05939 0.0
C190 C 0.62658 0.99792 0.99299 0.0
C191 C 0.72522 0.91345 1.01386 0.0
H192 H 0.72093 0.72988 0.98258 0.0
H193 H 0.7074 0.78631 0.96215 0.0
H194 H 0.82013 0.80519 0.95146 0.0
H195 H 0.83371 0.74879 0.97196 0.0
H196 H 0.55031 0.05671 1.04391 0.0
H197 H 0.57196 0.0419 1.00335 0.0
H198 H 0.66507 0.99175 1.03422 0.0
H199 H 0.64325 1.00547 1.07479 0.0
Tb200 Tb 0.42938 0.47366 0.70485 0.0
Tb201 Tb 0.36749 0.4199 0.72316 0.0
C202 C 0.44725 0.39131 0.71683 0.0
C203 C 0.51767 0.51934 0.70455 0.0
C204 C 0.58307 0.53302 0.72844 0.0
C205 C 0.57012 0.49783 0.72622 0.0
C206 C 0.53759 0.49107 0.71454 0.0
C207 C 0.53096 0.55429 0.70625 0.0
C208 C 0.56323 0.56109 0.71809 0.0
C209 C 0.48179 0.51357 0.69412 0.0
O210 O 0.39481 0.46768 0.6723 0.0
O211 O 0.36666 0.41596 0.68352 0.0
O212 O 0.34464 0.47332 0.72809 0.0
O213 O 0.38212 0.50722 0.70434 0.0
O214 O 0.35275 0.37147 0.73903 0.0
O215 O 0.31316 0.40524 0.72214 0.0
O216 O 0.37686 0.45151 0.75606 0.0
O217 O 0.42932 0.47927 0.74504 0.0
O218 O 0.4546 0.42023 0.70413 0.0
O219 O 0.41686 0.38892 0.72875 0.0
C220 C 0.37323 0.44067 0.66715 0.0
O221 O 0.45532 0.52322 0.70791 0.0
O222 O 0.47551 0.48292 0.68374 0.0
C223 C 0.35372 0.50407 0.71817 0.0
C224 C 0.29617 0.37079 0.75606 0.0
C225 C 0.27036 0.34572 0.8005 0.0
C226 C 0.26127 0.32808 0.77895 0.0
C227 C 0.27434 0.34047 0.75683 0.0
C228 C 0.30171 0.39089 0.77708 0.0
C229 C 0.28886 0.37841 0.79923 0.0
C230 C 0.31887 0.37652 0.73494 0.0
C231 C 0.40347 0.47345 0.76107 0.0
H232 H 0.58458 0.47565 0.73415 0.0
H233 H 0.52768 0.46388 0.71378 0.0
H234 H 0.51597 0.57652 0.69882 0.0
H235 H 0.57263 0.58843 0.71919 0.0
H236 H 0.24643 0.30322 0.7794 0.0
H237 H 0.26983 0.32477 0.74067 0.0
H238 H 0.31863 0.41439 0.77669 0.0
H239 H 0.29642 0.39258 0.81549 0.0
Tb240 Tb 0.85221 0.17811 0.45712 0.0
Tb241 Tb 0.90121 0.11555 0.47922 0.0
C242 C 0.93234 0.19199 0.46959 0.0
C243 C 0.81058 0.26804 0.45357 0.0
C244 C 0.79337 0.33309 0.4773 0.0
C245 C 0.82917 0.32206 0.4748 0.0
C246 C 0.83768 0.28981 0.46319 0.0
C247 C 0.77492 0.27936 0.45566 0.0
C248 C 0.76639 0.3114 0.46745 0.0
C249 C 0.81856 0.23273 0.44252 0.0
O250 O 0.8718 0.14864 0.42422 0.0
O251 O 0.89517 0.09792 0.44181 0.0
O252 O 0.84651 0.09662 0.48377 0.0
O253 O 0.81843 0.13082 0.45497 0.0
O254 O 0.94573 0.10372 0.5006 0.0
O255 O 0.91646 0.06163 0.48264 0.0
O256 O 0.87547 0.13873 0.51175 0.0
O257 O 0.83148 0.17318 0.49451 0.0
O258 O 0.8996 0.20312 0.47358 0.0
O259 O 0.93719 0.15777 0.46538 0.0
C260 C 0.88492 0.1156 0.42242 0.0
O261 O 0.80344 0.20537 0.4529 0.0
O262 O 0.85172 0.22585 0.43679 0.0
C263 C 0.81814 0.10445 0.47079 0.0
C264 C 0.93867 0.04913 0.5215 0.0
C265 C 0.93919 1.01114 0.56559 0.0
C266 C 0.94774 0.99384 0.54372 0.0
C267 C 0.94766 1.01277 0.52188 0.0
C268 C 0.92819 0.06599 0.54304 0.0
C269 C 0.92869 0.04728 0.56487 0.0
C270 C 0.94068 0.06929 0.49868 0.0
C271 C 0.84518 0.15685 0.51356 0.0
H272 H 0.85059 0.33793 0.48235 0.0
H273 H 0.86543 0.28172 0.46211 0.0
H274 H 0.75352 0.2631 0.44845 0.0
H275 H 0.7386 0.31927 0.46875 0.0
H276 H 0.95527 0.96588 0.5435 0.0
H277 H 0.95525 0.99917 0.50535 0.0
H278 H 0.92062 0.09395 0.54318 0.0
H279 H 0.92242 0.06178 0.58128 0.0
Tb280 Tb 0.14092 0.59795 0.20482 0.0
Tb281 Tb 0.2045 0.64971 0.22326 0.0
C282 C 0.12575 0.67929 0.2161 0.0
C283 C 0.05163 0.55452 0.20352 0.0
C284 C 0.9861 0.53928 0.2273 0.0
C285 C 0.99681 0.57486 0.22317 0.0
C286 C 1.02931 0.58242 0.21154 0.0
C287 C 0.04064 0.51904 0.20723 0.0
C288 C 1.00835 0.51149 0.21903 0.0
C289 C 0.08708 0.56157 0.1924 0.0
O290 O 0.16931 0.61363 0.17049 0.0
O291 O 0.21734 0.64561 0.18494 0.0
O292 O 0.22473 0.5955 0.22844 0.0
O293 O 0.18862 0.56506 0.20207 0.0
O294 O 0.21711 0.6972 0.24092 0.0
O295 O 0.25861 0.66477 0.2246 0.0
O296 O 0.18694 0.6236 0.25737 0.0
O297 O 0.14648 0.58205 0.24333 0.0
O298 O 0.11452 0.64631 0.21899 0.0
O299 O 0.15996 0.68497 0.21246 0.0
C300 C 0.19992 0.63109 0.16689 0.0
O301 O 0.09352 0.59392 0.18459 0.0
O302 O 0.11433 0.54847 0.20401 0.0
C303 C 0.21604 0.5661 0.21683 0.0
C304 C 0.27253 0.69773 0.25955 0.0
C305 C 0.29631 0.72193 0.30446 0.0
C306 C 0.30803 0.73873 0.28309 0.0
C307 C 0.29594 0.72679 0.26071 0.0
C308 C 0.26443 0.67817 0.28049 0.0
C309 C 0.27625 0.69023 0.30289 0.0
C310 C 0.2514 0.69274 0.23777 0.0
C311 C 0.16637 0.59518 0.26097 0.0
H312 H 0.98047 0.5969 0.22947 0.0
H313 H 0.03715 0.61008 0.20914 0.0
H314 H 0.05732 0.49706 0.20125 0.0
H315 H 1.00073 0.4838 0.2216 0.0
H316 H 0.32414 0.76276 0.28379 0.0
H317 H 0.30251 0.74197 0.24458 0.0
H318 H 0.24637 0.65557 0.27976 0.0
H319 H 0.2667 0.67672 0.31901 0.0
Tb320 Tb 0.8988 0.61668 0.79459 0.0
Tb321 Tb 0.84935 0.67879 0.81639 0.0
C322 C 0.81589 0.60481 0.8032 0.0
C323 C 0.95107 0.56222 0.75162 0.0
C324 C 0.97765 0.55933 0.70421 0.0
C325 C 0.99714 0.5442 0.72338 0.0
C326 C 0.98397 0.54581 0.74698 0.0
C327 C 0.93018 0.57466 0.73236 0.0
C328 C 0.94338 0.57323 0.70876 0.0
C329 C 0.94244 0.57276 0.77635 0.0
O330 O 0.87539 0.64135 0.7617 0.0
O331 O 0.8293 0.67286 0.77903 0.0
O332 O 0.89612 0.70462 0.79951 0.0
O333 O 0.93348 0.65967 0.80851 0.0
O334 O 0.84799 0.72641 0.83666 0.0
O335 O 0.80021 0.70551 0.8204 0.0
O336 O 0.86986 0.64978 0.84921 0.0
O337 O 0.89141 0.59823 0.83177 0.0
O338 O 0.84439 0.59704 0.79023 0.0
O339 O 0.81595 0.63123 0.81891 0.0
C340 C 0.84411 0.65777 0.75986 0.0
O341 O 0.94976 0.60604 0.78094 0.0
O342 O 0.91118 0.56367 0.78474 0.0
C343 C 0.92884 0.69364 0.80346 0.0
C344 C 0.80675 0.76823 0.81969 0.0
C345 C 0.78932 0.83311 0.79574 0.0
C346 C 0.82515 0.82216 0.79804 0.0
C347 C 0.83377 0.78999 0.80975 0.0
C348 C 0.77108 0.77949 0.81782 0.0
C349 C 0.76243 0.81145 0.80593 0.0
C350 C 0.81486 0.73297 0.83081 0.0
C351 C 0.88212 0.61642 0.85116 0.0
H352 H 1.0233 0.53264 0.7203 0.0
H353 H 1.00045 0.53628 0.76173 0.0
H354 H 0.90478 0.58763 0.73573 0.0
H355 H 0.92778 0.5852 0.6944 0.0
H356 H 0.8465 0.838 0.79023 0.0
H357 H 0.86153 0.78194 0.81067 0.0
H358 H 0.74975 0.76323 0.82528 0.0
H359 H 0.73462 0.81926 0.8048 0.0
Tb360 Tb 0.20572 0.15176 1.04561 0.0
Tb361 Tb 0.14214 0.10015 1.0649 0.0
C362 C 0.21701 0.06809 1.05192 0.0
C363 C 0.2708 0.20077 1.00713 0.0
C364 C 0.28971 0.22491 0.96092 0.0
C365 C 0.30158 0.24329 0.98154 0.0
C366 C 0.29196 0.23135 1.00455 0.0
C367 C 0.2624 0.18009 0.98682 0.0
C368 C 0.27182 0.19211 0.96378 0.0
C369 C 0.25163 0.19519 1.02981 0.0
O370 O 0.18725 0.12595 1.01181 0.0
O371 O 0.14654 0.08471 1.02625 0.0
O372 O 0.11574 0.14869 1.05109 0.0
O373 O 0.16155 0.18681 1.05743 0.0
O374 O 0.11544 0.05072 1.06617 0.0
O375 O 0.09511 0.0962 1.08576 0.0
O376 O 0.17119 0.11589 1.09883 0.0
O377 O 0.21949 0.14725 1.08377 0.0
O378 O 0.2257 0.09752 1.04023 0.0
O379 O 0.18975 0.06702 1.06697 0.0
C380 C 0.16625 0.09786 1.0084 0.0
O381 O 0.21719 0.19986 1.02817 0.0
O382 O 0.25974 0.16679 1.04237 0.0
C383 C 0.12726 0.1815 1.05406 0.0
C384 C 0.05276 0.05702 1.06739 0.0
C385 C 0.98672 0.04218 1.04449 0.0
C386 C 0.99762 0.0777 1.04852 0.0
C387 C 1.03037 0.08506 1.05972 0.0
C388 C 0.04161 1.02161 1.06376 0.0
C389 C 1.00907 1.01425 1.05239 0.0
C390 C 0.08843 0.0639 1.07807 0.0
C391 C 0.20206 0.13299 1.10207 0.0
H392 H 0.31604 0.26827 0.97982 0.0
H393 H 0.29864 0.24751 1.02015 0.0
H394 H 0.24597 0.15639 0.98861 0.0
H395 H 0.26222 0.1774 0.94825 0.0
H396 H 0.98122 0.09984 1.04249 0.0
H397 H 0.03833 0.11267 1.06205 0.0
H398 H 0.05835 0.99952 1.06948 0.0
H399 H 1.00131 0.98661 1.04988 0.0
Tb400 Tb 0.66951 0.45249 0.29593 0.0
Tb401 Tb 0.71969 0.38976 0.31583 0.0
C402 C 0.75282 0.46403 0.30179 0.0
C403 C 0.61858 0.51483 0.2568 0.0
C404 C 0.59713 0.53239 0.2098 0.0
C405 C 0.57499 0.54043 0.22967 0.0
C406 C 0.58568 0.5316 0.25304 0.0
C407 C 0.6422 0.50979 0.23737 0.0
C408 C 0.63155 0.51864 0.21396 0.0
C409 C 0.62462 0.49658 0.27973 0.0
O410 O 0.69568 0.43345 0.26237 0.0
O411 O 0.73727 0.39392 0.2776 0.0
O412 O 0.6728 0.36453 0.29919 0.0
O413 O 0.63569 0.40864 0.31009 0.0
O414 O 0.76882 0.36291 0.31931 0.0
O415 O 0.72105 0.34175 0.3358 0.0
O416 O 0.70009 0.41812 0.34938 0.0
O417 O 0.67846 0.47015 0.33278 0.0
O418 O 0.72349 0.4726 0.29004 0.0
O419 O 0.75369 0.43698 0.31708 0.0
C420 C 0.72434 0.41305 0.25945 0.0
O421 O 0.62103 0.46195 0.27858 0.0
O422 O 0.65272 0.50592 0.29206 0.0
C423 C 0.64025 0.37499 0.30418 0.0
C424 C 0.76207 0.30014 0.31828 0.0
C425 C 0.77901 0.23536 0.29412 0.0
C426 C 0.74321 0.24599 0.29728 0.0
C427 C 0.73482 0.27811 0.3091 0.0
C428 C 0.79775 0.28921 0.31552 0.0
C429 C 0.80614 0.25731 0.30353 0.0
C430 C 0.75413 0.33524 0.32964 0.0
C431 C 0.68814 0.45155 0.35181 0.0
H432 H 0.54822 0.55072 0.22708 0.0
H433 H 0.56713 0.53535 0.26792 0.0
H434 H 0.66772 0.49674 0.2401 0.0
H435 H 0.64935 0.51271 0.19899 0.0
H436 H 0.72167 0.22992 0.29009 0.0
H437 H 0.70704 0.28588 0.31071 0.0
H438 H 0.81926 0.30565 0.32239 0.0
H439 H 0.83396 0.24974 0.30171 0.0
Tb440 Tb 0.3672 0.91795 0.54563 0.0
Tb441 Tb 0.42978 0.96858 0.56524 0.0
C442 C 0.35555 1.00123 0.55142 0.0
C443 C 0.30095 0.8681 0.50883 0.0
C444 C 0.27707 0.84332 0.46408 0.0
C445 C 0.26536 0.82683 0.48557 0.0
C446 C 0.27749 0.83906 0.50786 0.0
C447 C 0.30926 0.88723 0.48775 0.0
C448 C 0.29739 0.87488 0.46543 0.0
C449 C 0.32153 0.87383 0.53077 0.0
O450 O 0.38592 0.94365 0.51178 0.0
O451 O 0.4257 0.98512 0.5267 0.0
O452 O 0.45616 0.92086 0.5503 0.0
O453 O 0.41096 0.88323 0.55884 0.0
O454 O 0.45598 1.01821 0.56754 0.0
O455 O 0.47707 0.97177 0.58566 0.0
O456 O 0.40138 0.94997 0.59907 0.0
O457 O 0.34993 0.92733 0.58258 0.0
O458 O 0.34751 0.97206 0.53933 0.0
O459 O 0.38203 1.00179 0.56701 0.0
C460 C 0.40651 0.97213 0.50863 0.0
O461 O 0.35596 0.87001 0.52805 0.0
O462 O 0.31345 0.90183 0.54364 0.0
C463 C 0.4451 0.88814 0.55435 0.0
C464 C 0.51871 1.0122 0.56759 0.0
C465 C 0.58403 1.02862 0.54387 0.0
C466 C 0.57283 0.9929 0.54661 0.0
C467 C 0.54045 0.98478 0.55821 0.0
C468 C 0.53013 0.04779 0.56521 0.0
C469 C 0.56232 0.05594 0.55344 0.0
C470 C 0.48337 1.00455 0.57869 0.0
C471 C 0.36812 0.93768 0.60154 0.0
H472 H 0.24909 0.80289 0.48502 0.0
H473 H 0.27074 0.82423 0.52411 0.0
H474 H 0.32737 0.9098 0.48834 0.0
H475 H 0.30696 0.88813 0.44922 0.0
H476 H 0.5887 0.97123 0.53926 0.0
H477 H 0.53224 0.95708 0.55952 0.0
H478 H 0.51385 0.06942 0.57222 0.0
H479 H 0.57031 0.08369 0.55195 0.0
Tb480 Tb 0.22306 0.39023 0.45553 0.0
Tb481 Tb 0.16915 0.45218 0.47354 0.0
C482 C 0.1408 0.3721 0.46788 0.0
C483 C 0.26834 0.3014 0.45459 0.0
C484 C 0.28084 0.23443 0.47711 0.0
C485 C 0.24573 0.24645 0.4729 0.0
C486 C 0.23952 0.27974 0.46191 0.0
C487 C 0.3033 0.28904 0.45827 0.0
C488 C 0.30951 0.25603 0.46945 0.0
C489 C 0.26293 0.33784 0.44473 0.0
O490 O 0.21719 0.42535 0.42305 0.0
O491 O 0.16437 0.45137 0.43392 0.0
O492 O 0.22249 0.47544 0.47769 0.0
O493 O 0.25638 0.43754 0.45429 0.0
O494 O 0.12288 0.46821 0.49163 0.0
O495 O 0.15275 0.50576 0.46963 0.0
O496 O 0.20163 0.44378 0.50619 0.0
O497 O 0.22921 0.391 0.4957 0.0
O498 O 0.16993 0.36445 0.4555 0.0
O499 O 0.13794 0.40294 0.47916 0.0
C500 C 0.18957 0.44606 0.4177 0.0
O501 O 0.27223 0.3637 0.45907 0.0
O502 O 0.23272 0.34477 0.43396 0.0
C503 C 0.25316 0.46627 0.46771 0.0
C504 C 0.12184 0.52782 0.50376 0.0
C505 C 0.09918 0.5656 0.54472 0.0
C506 C 0.08353 0.57236 0.52208 0.0
C507 C 0.09469 0.55336 0.50173 0.0
C508 C 0.14033 0.524 0.52561 0.0
C509 C 0.12904 0.54279 0.54602 0.0
C510 C 0.12611 0.50137 0.48459 0.0
C511 C 0.22357 0.41721 0.51143 0.0
H512 H 0.22308 0.23059 0.47875 0.0
H513 H 0.21225 0.2888 0.45956 0.0
H514 H 0.32593 0.30531 0.45287 0.0
H515 H 0.33684 0.2474 0.47211 0.0
H516 H 0.06094 0.59032 0.52048 0.0
H517 H 0.08036 0.5567 0.48487 0.0
H518 H 0.1615 0.50439 0.52738 0.0
H519 H 0.14161 0.53683 0.56318 0.0
Tb520 Tb 0.9338 0.97298 0.20547 0.0
Tb521 Tb 0.87159 0.92086 0.22561 0.0
C522 C 0.94982 0.89149 0.21708 0.0
C523 C 1.02344 1.01499 0.20269 0.0
C524 C 0.08913 1.02805 0.22644 0.0
C525 C 0.07861 0.99293 0.22081 0.0
C526 C 0.04601 0.98643 0.20918 0.0
C527 C 0.03444 0.05008 0.2077 0.0
C528 C 0.0668 0.05654 0.21951 0.0
C529 C 0.98759 1.00891 0.19211 0.0
O530 O 0.90432 0.95805 0.17177 0.0
O531 O 0.85893 0.92307 0.18715 0.0
O532 O 0.85078 0.975 0.23037 0.0
O533 O 0.886 1.00587 0.20338 0.0
O534 O 0.85793 0.87544 0.24561 0.0
O535 O 0.81777 0.90504 0.22567 0.0
O536 O 0.89156 0.94614 0.25932 0.0
O537 O 0.92755 0.99043 0.2435 0.0
O538 O 0.96078 0.92467 0.2195 0.0
O539 O 0.91556 0.88536 0.21437 0.0
C540 C 0.87473 0.93891 0.1688 0.0
O541 O 0.96094 1.02214 0.20436 0.0
O542 O 0.98035 0.9769 0.18412 0.0
C543 C 0.85882 1.00448 0.21849 0.0
C544 C 0.79956 0.87524 0.26103 0.0
C545 C 0.76093 0.85514 0.30226 0.0
C546 C 0.75058 0.84279 0.27934 0.0
C547 C 0.76998 0.85265 0.25884 0.0
C548 C 0.80761 0.89074 0.2834 0.0
C549 C 0.78841 0.88068 0.30395 0.0
C550 C 0.824 0.87879 0.24059 0.0
C551 C 0.91013 0.97609 0.26199 0.0
H552 H 0.09508 0.97039 0.22604 0.0
H553 H 0.03823 0.95904 0.20572 0.0
H554 H 1.01759 0.07255 0.20289 0.0
H555 H 0.07432 0.08393 0.22326 0.0
H556 H 0.7291 0.82359 0.27748 0.0
H557 H 0.76327 0.8409 0.24153 0.0
H558 H 0.83023 0.90859 0.28526 0.0
H559 H 0.7972 0.89057 0.32134 0.0
Tb560 Tb 0.34854 0.68103 0.95403 0.0
Tb561 Tb 0.40236 0.61934 0.97221 0.0
C562 C 0.43021 0.69937 0.96631 0.0
C563 C 0.30362 0.76984 0.95315 0.0
C564 C 0.29147 0.83643 0.97608 0.0
C565 C 0.32651 0.82404 0.97203 0.0
C566 C 0.33254 0.79092 0.96083 0.0
C567 C 0.26874 0.7826 0.95664 0.0
C568 C 0.2627 0.81544 0.96803 0.0
C569 C 0.30883 0.73349 0.94321 0.0
O570 O 0.35455 0.64593 0.92169 0.0
O571 O 0.40687 0.61891 0.93257 0.0
O572 O 0.34921 0.59571 0.97638 0.0
O573 O 0.31528 0.63367 0.95307 0.0
O574 O 0.45042 0.60519 0.98865 0.0
O575 O 0.41814 0.5653 0.97091 0.0
O576 O 0.36944 0.62758 1.00478 0.0
O577 O 0.34258 0.68068 0.99424 0.0
O578 O 0.4018 0.7063 0.95316 0.0
O579 O 0.43235 0.66914 0.97842 0.0
C580 C 0.38186 0.62474 0.91639 0.0
O581 O 0.33908 0.72653 0.93239 0.0
O582 O 0.29934 0.70756 0.95755 0.0
C583 C 0.3186 0.60478 0.9664 0.0
C584 C 0.45098 0.54856 1.00546 0.0
C585 C 0.4706 0.52446 1.05149 0.0
C586 C 0.49389 0.51992 1.03171 0.0
C587 C 0.48411 0.53203 1.00882 0.0
C588 C 0.42613 0.54959 1.02448 0.0
C589 C 0.43586 0.53743 1.0474 0.0
C590 C 0.4461 0.57127 0.98428 0.0
C591 C 0.34768 0.65432 1.00998 0.0
H592 H 0.34923 0.83943 0.97817 0.0
H593 H 0.35974 0.78152 0.95864 0.0
H594 H 0.24603 0.76676 0.95098 0.0
H595 H 0.23542 0.82439 0.97058 0.0
H596 H 0.5209 0.51026 1.03428 0.0
H597 H 0.5036 0.53132 0.99428 0.0
H598 H 0.4004 0.5624 1.02209 0.0
H599 H 0.4172 0.54066 1.06226 0.0
Tb600 Tb 0.63619 0.09781 0.70638 0.0
Tb601 Tb 0.69848 0.14786 0.72602 0.0
C602 C 0.62172 0.17784 0.71733 0.0
C603 C 0.54603 0.05726 0.70459 0.0
C604 C 0.48096 0.04331 0.72929 0.0
C605 C 0.49305 0.07863 0.72599 0.0
C606 C 0.52533 0.08553 0.71391 0.0
C607 C 0.53364 1.02209 0.70746 0.0
C608 C 0.50157 1.01516 0.71972 0.0
C609 C 0.58137 0.06364 0.69313 0.0
O610 O 0.66446 0.11644 0.67261 0.0
O611 O 0.7161 0.13841 0.68916 0.0
O612 O 0.7182 0.09368 0.73205 0.0
O613 O 0.68339 0.06373 0.70458 0.0
O614 O 0.70962 0.19689 0.74223 0.0
O615 O 0.75239 0.16271 0.72963 0.0
O616 O 0.67671 0.12461 0.75993 0.0
O617 O 0.6422 0.07942 0.74425 0.0
O618 O 0.61114 0.14538 0.72268 0.0
O619 O 0.65543 0.18208 0.71143 0.0
C620 C 0.69777 0.12847 0.67017 0.0
O621 O 0.58866 0.0962 0.68615 0.0
O622 O 0.6085 0.049 0.704 0.0
C623 C 0.71013 0.06444 0.72001 0.0
C624 C 0.76271 0.19865 0.7637 0.0
C625 C 0.78373 0.22483 0.80873 0.0
C626 C 0.79706 0.24043 0.78738 0.0
C627 C 0.78638 0.22748 0.76493 0.0
C628 C 0.75248 0.18055 0.78482 0.0
C629 C 0.76293 0.19361 0.80728 0.0
C630 C 0.74407 0.19192 0.74112 0.0
C631 C 0.65885 0.09425 0.76276 0.0
H632 H 0.47802 0.1009 0.73331 0.0
H633 H 0.53429 0.11296 0.71222 0.0
H634 H 0.5491 0.99983 0.7005 0.0
H635 H 0.49284 0.98769 0.72165 0.0
H636 H 0.81371 0.26409 0.78804 0.0
H637 H 0.79455 0.24153 0.74866 0.0
H638 H 0.73418 0.15815 0.78402 0.0
H639 H 0.75211 0.18109 0.8234 0.0
H640 H 0.43164 0.26729 0.32215 0.0
H641 H 0.63957 0.3039 0.28986 0.0
H642 H 0.4979 0.19108 0.28456 0.0
H643 H 0.56919 0.38551 0.31747 0.0
H644 H 0.58912 0.26187 0.28928 0.0
H645 H 0.48173 0.30976 0.32201 0.0
C646 C 0.45662 0.25931 0.31382 0.0
C647 C 0.46 0.22508 0.30332 0.0
C648 C 0.58458 0.28896 0.29546 0.0
C649 C 0.51851 0.27435 0.30329 0.0
C650 C 0.61358 0.31316 0.29582 0.0
C651 C 0.60913 0.34876 0.30371 0.0
C652 C 0.55034 0.29988 0.30321 0.0
C653 C 0.57436 0.3586 0.31119 0.0
C654 C 0.4854 0.28379 0.31375 0.0
C655 C 0.49352 0.21691 0.29285 0.0
N656 N 0.54667 0.3345 0.31083 0.0
N657 N 0.52116 0.24105 0.2932 0.0
H658 H 0.54681 0.67431 0.55243 0.0
H659 H 0.51923 0.88921 0.55132 0.0
H660 H 0.63409 0.74878 0.55839 0.0
H661 H 0.43172 0.81493 0.55745 0.0
H662 H 0.56122 0.83864 0.55173 0.0
H663 H 0.50475 0.72485 0.55211 0.0
C664 C 0.55733 0.70121 0.55365 0.0
C665 C 0.59454 0.70673 0.55549 0.0
C666 C 0.53286 0.83327 0.55299 0.0
C667 C 0.54564 0.76575 0.55496 0.0
C668 C 0.50864 0.86234 0.55272 0.0
C669 C 0.47138 0.8569 0.55439 0.0
C670 C 0.52023 0.79782 0.55472 0.0
C671 C 0.45994 0.82096 0.55617 0.0
C672 C 0.53308 0.73026 0.55349 0.0
C673 C 0.60591 0.7427 0.557 0.0
N674 N 0.484 0.79315 0.55621 0.0
N675 N 0.58182 0.77047 0.55662 0.0
H676 H 0.06641 0.88529 0.79644 0.0
H677 H 1.00128 0.67951 0.80881 0.0
H678 H 0.13962 0.79708 0.80434 0.0
H679 H 0.92912 0.76738 0.79632 0.0
H680 H 0.0517 0.72161 0.80766 0.0
H681 H 1.01641 0.84287 0.79665 0.0
C682 C 0.0722 0.85702 0.79819 0.0
C683 C 0.10789 0.84522 0.80039 0.0
C684 C 1.02488 0.73179 0.80515 0.0
C685 C 0.0496 0.79563 0.80077 0.0
C686 C 0.99584 0.70761 0.80582 0.0
C687 C 0.96033 0.71947 0.80268 0.0
C688 C 1.01895 0.76863 0.80137 0.0
C689 C 0.95567 0.75655 0.79885 0.0
C690 C 0.04336 0.83264 0.79831 0.0
C691 C 0.11293 0.80788 0.80255 0.0
N692 N 0.98431 0.77951 0.79836 0.0
N693 N 0.08441 0.78473 0.80275 0.0
H694 H 0.1417 0.25432 1.05582 0.0
H695 H 0.93521 0.31891 1.05802 0.0
H696 H 0.0529 0.18127 1.0522 0.0
H697 H 1.02361 0.39227 1.05255 0.0
H698 H 0.97758 0.26874 1.05728 0.0
H699 H 0.09942 0.30464 1.05599 0.0
C700 C 0.11336 0.24865 1.05507 0.0
C701 C 0.1013 0.21293 1.05399 0.0
C702 C 0.98783 0.29577 1.05622 0.0
C703 C 0.05194 0.27145 1.0543 0.0
C704 C 0.9635 0.32468 1.05667 0.0
C705 C 0.9754 0.36045 1.05534 0.0
C706 C 1.02491 0.30206 1.0546 0.0
C707 C 1.01274 0.36551 1.0536 0.0
C708 C 0.08908 0.27764 1.05514 0.0
C709 C 0.0639 0.20799 1.05302 0.0
N710 N 0.03587 0.33695 1.05336 0.0
N711 N 0.04086 0.2366 1.05327 0.0
H712 H 0.64009 0.80453 0.98293 0.0
H713 H 0.43323 0.76872 0.94818 0.0
H714 H 0.57081 0.88674 0.95496 0.0
H715 H 0.49811 0.69185 0.98617 0.0
H716 H 0.48336 0.81113 0.94905 0.0
H717 H 0.58956 0.7626 0.98276 0.0
C718 C 0.61432 0.81395 0.97673 0.0
C719 C 0.61022 0.8497 0.96898 0.0
C720 C 0.48672 0.78503 0.95724 0.0
C721 C 0.55132 0.80089 0.96858 0.0
C722 C 0.45792 0.76057 0.95674 0.0
C723 C 0.46088 0.72618 0.96713 0.0
C724 C 0.51945 0.7754 0.96802 0.0
C725 C 0.49404 0.71782 0.97793 0.0
C726 C 0.58527 0.7898 0.97666 0.0
C727 C 0.57571 0.85972 0.96117 0.0
N728 N 0.52172 0.74193 0.97799 0.0
N729 N 0.54797 0.83566 0.9611 0.0
H730 H 0.55045 0.17951 0.73157 0.0
H731 H 0.51666 0.38807 0.69879 0.0
H732 H 0.63296 0.2487 0.70372 0.0
H733 H 0.43895 0.32274 0.73584 0.0
H734 H 0.55847 0.33734 0.6991 0.0
H735 H 0.50895 0.23052 0.73186 0.0
C736 C 0.56002 0.20534 0.72548 0.0
C737 C 0.59573 0.20927 0.71762 0.0
C738 C 0.53231 0.334 0.70721 0.0
C739 C 0.54745 0.26875 0.7178 0.0
C740 C 0.5082 0.36316 0.70703 0.0
C741 C 0.47374 0.36027 0.71733 0.0
C742 C 0.52229 0.30098 0.71758 0.0
C743 C 0.46498 0.32679 0.7277 0.0
C744 C 0.53612 0.23468 0.72569 0.0
C745 C 0.60596 0.2439 0.70999 0.0
N746 N 0.48877 0.29879 0.72747 0.0
N747 N 0.58217 0.27191 0.71021 0.0
H748 H 0.07209 0.38094 0.48622 0.0
H749 H 1.00362 0.17994 0.45778 0.0
H750 H 0.13822 0.30166 0.45155 0.0
H751 H 0.93334 0.26432 0.4814 0.0
H752 H 0.05357 0.22267 0.45752 0.0
H753 H 1.02241 0.338 0.48678 0.0
C754 C 0.07641 0.35453 0.47877 0.0
C755 C 0.10998 0.34541 0.4688 0.0
C756 C 1.02726 0.23194 0.46279 0.0
C757 C 0.05217 0.2952 0.46949 0.0
C758 C 0.99851 0.20737 0.46299 0.0
C759 C 0.96367 0.21808 0.46963 0.0
C760 C 1.02177 0.26792 0.46947 0.0
C761 C 0.95939 0.25438 0.47612 0.0
C762 C 0.04775 0.32988 0.47905 0.0
C763 C 0.11318 0.3104 0.45941 0.0
N764 N 0.98779 0.27765 0.47594 0.0
N765 N 0.085 0.28686 0.46006 0.0
H766 H 0.0516 0.67806 0.21933 0.0
H767 H 1.02414 0.89309 0.21884 0.0
H768 H 0.13912 0.7525 0.21407 0.0
H769 H 0.93675 0.8183 0.21592 0.0
H770 H 0.06629 0.84259 0.21874 0.0
H771 H 1.00965 0.72865 0.21973 0.0
C772 C 0.06219 0.70495 0.2183 0.0
C773 C 0.09943 0.71045 0.21664 0.0
C774 C 0.0379 0.83712 0.21813 0.0
C775 C 0.05067 0.76953 0.21718 0.0
C776 C 1.01362 0.86615 0.21822 0.0
C777 C 0.97635 0.86051 0.21737 0.0
C778 C 1.02531 0.80158 0.21733 0.0
C779 C 0.96497 0.82449 0.21656 0.0
C780 C 0.03801 0.73404 0.21849 0.0
C781 C 0.1109 0.74643 0.21534 0.0
N782 N 0.98908 0.79677 0.21661 0.0
N783 N 0.08688 0.77423 0.21568 0.0
H784 H 0.44663 0.99355 0.17966 0.0
H785 H 0.62404 0.04645 1.10676 0.0
H786 H 0.54519 1.02606 0.21353 0.0
H787 H 0.52581 1.01354 1.07266 0.0
H788 H 0.59591 0.03764 0.1463 0.0
H789 H 0.47616 0.99736 0.1402 0.0
C790 C 0.4746 1.0009 0.17882 0.0
C791 C 0.49343 1.00951 0.1999 0.0
C792 C 0.58047 1.03252 1.13015 0.0
C793 C 0.52719 1.01442 0.15497 0.0
C794 C 0.59648 0.03768 1.10762 0.0
C795 C 0.57716 1.03096 1.08644 0.0
C796 C 0.54497 1.02043 1.13145 0.0
C797 C 0.54149 1.01972 1.08853 0.0
C798 C 0.49141 1.00321 0.15633 0.0
C799 C 0.52971 1.01867 0.19782 0.0
N800 N 0.52658 1.01471 1.11064 0.0
N801 N 0.54529 1.02121 0.17573 0.0
H802 H 0.74642 0.79786 0.45191 0.0
H803 H 0.7511 0.78355 0.30831 0.0
H804 H 0.76822 0.70048 0.41265 0.0
H805 H 0.74443 0.88388 0.34666 0.0
H806 H 0.74544 0.7518 0.34647 0.0
H807 H 0.73712 0.8289 0.41366 0.0
C808 C 0.74971 0.7831 0.43521 0.0
C809 C 0.75865 0.74664 0.43541 0.0
C810 C 0.74468 0.78075 0.34654 0.0
C811 C 0.74697 0.78178 0.39166 0.0
C812 C 0.74738 0.79898 0.32469 0.0
C813 C 0.74862 0.8365 0.32433 0.0
C814 C 0.74345 0.80015 0.36818 0.0
C815 C 0.74425 0.85494 0.34621 0.0
C816 C 0.74392 0.80075 0.41341 0.0
C817 C 0.76137 0.72859 0.41329 0.0
N818 N 0.74236 0.83654 0.36735 0.0
N819 N 0.75567 0.74642 0.39226 0.0
H820 H 0.9766 1.00824 0.71557 0.0
H821 H 0.99177 0.96324 0.57766 0.0
H822 H 0.05127 0.93139 0.68652 0.0
H823 H 0.90047 1.01828 0.6079 0.0
H824 H 1.00832 0.94382 0.61796 0.0
H825 H 0.94331 1.00609 0.67758 0.0
C826 C 0.98564 0.99051 0.70134 0.0
C827 C 1.01703 0.9704 0.70405 0.0
C828 C 0.98429 0.95964 0.6158 0.0
C829 C 0.97933 0.96793 0.66059 0.0
C830 C 0.97459 0.97058 0.59264 0.0
C831 C 0.94504 0.9932 0.58929 0.0
C832 C 0.96477 0.97192 0.63586 0.0
C833 C 0.92419 1.00193 0.60965 0.0
C834 C 0.96654 0.98913 0.67972 0.0
C835 C 1.02723 0.94739 0.68523 0.0
N836 N 0.93488 0.99193 0.63213 0.0
N837 N 1.00881 0.94727 0.66414 0.0
H838 H 0.77803 0.27914 0.95965 0.0
H839 H 0.77532 0.29631 0.816 0.0
H840 H 0.76283 0.37921 0.92188 0.0
H841 H 0.79548 0.19743 0.85411 0.0
H842 H 0.77018 0.32711 0.85454 0.0
H843 H 0.7804 0.24827 0.92108 0.0
C844 C 0.77428 0.29456 0.94325 0.0
C845 C 0.77016 0.33185 0.94397 0.0
C846 C 0.77598 0.29873 0.8545 0.0
C847 C 0.77417 0.29673 0.89969 0.0
C848 C 0.77945 0.28119 0.83249 0.0
C849 C 0.78604 0.24424 0.83187 0.0
C850 C 0.77895 0.27919 0.87605 0.0
C851 C 0.79015 0.22588 0.85381 0.0
C852 C 0.77621 0.27693 0.92119 0.0
C853 C 0.76636 0.35047 0.92209 0.0
N854 N 0.78638 0.24356 0.87507 0.0
N855 N 0.76871 0.3327 0.90078 0.0
H856 H 0.25121 0.37374 0.84462 0.0
H857 H 0.30428 0.19545 0.91647 0.0
H858 H 0.28376 0.27552 0.80996 0.0
H859 H 0.27432 0.29453 0.95105 0.0
H860 H 0.29607 0.22407 0.87704 0.0
H861 H 0.25685 0.34425 0.88394 0.0
C862 C 0.25904 0.34587 0.84528 0.0
C863 C 0.26698 0.32708 0.824 0.0
C864 C 0.29155 0.23959 0.89329 0.0
C865 C 0.27395 0.29334 0.86877 0.0
C866 C 0.29636 0.2233 0.91574 0.0
C867 C 0.29019 0.24268 0.93703 0.0
C868 C 0.28029 0.27542 0.89218 0.0
C869 C 0.28004 0.27873 0.93511 0.0
C870 C 0.2624 0.32908 0.86769 0.0
C871 C 0.27682 0.29093 0.82585 0.0
N872 N 0.27525 0.29388 0.91307 0.0
N873 N 0.28029 0.27532 0.84786 0.0
H874 H 0.28691 0.77221 0.45605 0.0
H875 H 0.28565 0.79288 0.31259 0.0
H876 H 0.26303 0.87121 0.41909 0.0
H877 H 0.30993 0.69393 0.34951 0.0
H878 H 0.27877 0.8223 0.35145 0.0
H879 H 0.29321 0.74262 0.41719 0.0
C880 C 0.28212 0.78758 0.43975 0.0
C881 C 0.27433 0.82428 0.4408 0.0
C882 C 0.2859 0.79423 0.35109 0.0
C883 C 0.28283 0.79074 0.39621 0.0
C884 C 0.29041 0.77749 0.32888 0.0
C885 C 0.29855 0.74087 0.32781 0.0
C886 C 0.28938 0.77421 0.37241 0.0
C887 C 0.30341 0.72214 0.34955 0.0
C888 C 0.28628 0.77073 0.41754 0.0
C889 C 0.26935 0.84296 0.41906 0.0
N890 N 0.29854 0.73901 0.37101 0.0
N891 N 0.27391 0.826 0.39761 0.0
H892 H 0.12807 0.58921 0.58753 0.0
H893 H 0.94706 0.5504 0.6596 0.0
H894 H 1.02754 0.56408 0.55345 0.0
H895 H 0.04608 0.57977 0.69411 0.0
H896 H 0.97506 0.56049 0.62021 0.0
H897 H 0.09723 0.59248 0.62655 0.0
C898 C 0.09945 0.58506 0.58819 0.0
C899 C 0.08045 0.57608 0.56724 0.0
C900 C 0.99065 0.56481 0.63641 0.0
C901 C 0.04512 0.57931 0.61169 0.0
C902 C 0.97467 0.55899 0.65887 0.0
C903 C 0.99439 0.56382 0.68013 0.0
C904 C 1.02662 0.57548 0.63521 0.0
C905 C 1.03013 0.57488 0.67815 0.0
C906 C 0.08186 0.58684 0.61044 0.0
C907 C 0.04331 0.57137 0.56905 0.0
N908 N 0.04514 0.58021 0.65608 0.0
N909 N 1.02696 0.57255 0.59094 0.0
H910 H 0.60486 0.48189 0.17465 0.0
H911 H 0.4596 0.57142 1.08833 0.0
H912 H 0.55379 0.5832 0.18924 0.0
H913 H 0.51562 0.47383 1.07075 0.0
H914 H 0.49133 0.57399 1.12657 0.0
H915 H 0.57249 0.47821 0.1366 0.0
C916 C 0.58741 0.50377 0.16961 0.0
C917 C 0.58204 0.53297 0.18513 0.0
C918 C 0.49651 0.55183 1.11447 0.0
C919 C 0.54403 0.52828 0.14197 0.0
C920 C 0.47796 0.55001 1.09276 0.0
C921 C 0.48492 0.52227 1.07633 0.0
C922 C 0.52229 0.52579 1.1198 0.0
C923 C 0.50968 0.49581 1.08283 0.0
C924 C 0.56855 0.50138 0.14803 0.0
C925 C 0.55844 0.56007 0.17792 0.0
N926 N 0.52767 0.49833 1.10404 0.0
N927 N 0.54013 0.55697 0.15689 0.0
H928 H 0.32355 0.39947 0.29884 0.0
H929 H 0.20201 0.49857 0.19991 0.0
H930 H 0.24131 0.34732 0.25738 0.0
H931 H 0.26887 0.55511 0.25055 0.0
H932 H 0.22325 0.44201 0.21667 0.0
H933 H 0.31026 0.45567 0.27767 0.0
C934 C 0.3029 0.39976 0.28517 0.0
C935 C 0.28332 0.36866 0.28004 0.0
C936 C 0.23357 0.46679 0.22396 0.0
C937 C 0.26805 0.43286 0.25567 0.0
C938 C 0.22162 0.49919 0.21427 0.0
C939 C 0.23352 0.53186 0.22383 0.0
C940 C 0.25768 0.46682 0.24339 0.0
C941 C 0.25891 0.5307 0.24253 0.0
C942 C 0.29523 0.43188 0.27316 0.0
C943 C 0.2567 0.37072 0.26223 0.0
N944 N 0.26992 0.49878 0.2518 0.0
N945 N 0.24986 0.40218 0.25074 0.0
H946 H 0.41378 0.57115 0.5557 0.0
H947 H 0.32142 0.45577 0.45091 0.0
H948 H 0.47007 0.49672 0.5098 0.0
H949 H 0.26136 0.51797 0.50271 0.0
H950 H 0.3767 0.47737 0.46893 0.0
H951 H 0.35851 0.55794 0.53372 0.0
C952 C 0.4146 0.55222 0.54091 0.0
C953 C 0.44667 0.53485 0.53473 0.0
C954 C 0.35145 0.48663 0.47622 0.0
C955 C 0.38343 0.51965 0.50943 0.0
C956 C 0.31975 0.47447 0.4658 0.0
C957 C 0.28646 0.48487 0.4753 0.0
C958 C 0.35012 0.50939 0.49639 0.0
C959 C 0.28629 0.50921 0.49469 0.0
C960 C 0.38299 0.5446 0.52842 0.0
C961 C 0.44596 0.51035 0.51549 0.0
N962 N 0.31757 0.52036 0.50472 0.0
N963 N 0.41496 0.50352 0.50359 0.0
H964 H 0.32554 0.72348 0.76101 0.0
H965 H 0.30029 0.51151 0.75224 0.0
H966 H 0.24611 0.66631 0.80248 0.0
H967 H 0.36621 0.57305 0.70329 0.0
H968 H 0.27856 0.56731 0.77015 0.0
H969 H 0.34014 0.66828 0.73962 0.0
C970 C 0.31122 0.69926 0.7657 0.0
C971 C 0.28471 0.69959 0.78374 0.0
C972 C 0.2974 0.56859 0.75526 0.0
C973 C 0.30122 0.63594 0.75907 0.0
C974 C 0.30969 0.53668 0.74488 0.0
C975 C 0.33523 0.53737 0.72615 0.0
C976 C 0.31086 0.60153 0.74701 0.0
C977 C 0.3466 0.57098 0.71766 0.0
C978 C 0.3194 0.66773 0.75332 0.0
C979 C 0.26663 0.6674 0.78865 0.0
N980 N 0.33463 0.60155 0.72827 0.0
N981 N 0.27539 0.63686 0.77654 0.0
H982 H 0.09913 0.57622 1.00764 0.0
H983 H 0.31091 0.55085 1.00005 0.0
H984 H 0.15578 0.49829 1.05052 0.0
H985 H 0.25014 0.61633 0.95063 0.0
H986 H 0.2549 0.52886 1.01757 0.0
H987 H 0.15446 0.58984 0.98603 0.0
C988 C 0.12327 0.56202 1.01256 0.0
C989 C 0.1228 0.53627 1.03109 0.0
C990 C 0.25385 0.54764 1.00266 0.0
C991 C 0.18656 0.55162 1.0062 0.0
C992 C 0.28587 0.56008 0.9925 0.0
C993 C 0.28542 0.5857 0.97385 0.0
C994 C 0.22107 0.561 0.99419 0.0
C995 C 0.252 0.59676 0.96502 0.0
C996 C 0.15487 0.56962 1.00007 0.0
C997 C 0.15485 0.51825 1.03632 0.0
N998 N 0.22131 0.58466 0.97542 0.0
N999 N 0.18547 0.52647 1.0241 0.0
H1000 H 0.87504 0.57273 1.07051 0.0
H1001 H 0.74575 0.6692 0.97493 0.0
H1002 H 0.80381 0.51519 1.02325 0.0
H1003 H 0.83028 0.72311 1.01315 0.0
H1004 H 0.76121 0.61363 0.99605 0.0
H1005 H 0.85286 0.62897 1.05373 0.0
C1006 C 0.85429 0.57183 1.05692 0.0
C1007 C 0.8414 0.53896 1.04829 0.0
C1008 C 0.7763 0.63765 0.99987 0.0
C1009 C 0.81615 0.60361 1.0287 0.0
C1010 C 0.76739 0.66944 0.98789 0.0
C1011 C 0.78686 0.70092 0.99214 0.0
C1012 C 0.80472 0.63728 1.01644 0.0
C1013 C 0.81486 0.69944 1.009 0.0
C1014 C 0.84182 0.60405 1.04719 0.0
C1015 C 0.81461 0.53976 1.0305 0.0
N1016 N 0.82291 0.66825 1.02049 0.0
N1017 N 0.80307 0.57148 1.02122 0.0
H1018 H 0.59545 0.58654 0.76116 0.0
H1019 H 0.80455 0.54794 0.77283 0.0
H1020 H 0.64725 0.49704 0.72657 0.0
H1021 H 0.74813 0.62422 0.81734 0.0
H1022 H 0.74743 0.52771 0.7565 0.0
H1023 H 0.65118 0.60027 0.78208 0.0
C1024 C 0.6186 0.56979 0.75791 0.0
C1025 C 0.61667 0.54073 0.74191 0.0
C1026 C 0.7475 0.54853 0.77008 0.0
C1027 C 0.68078 0.55624 0.766 0.0
C1028 C 0.78016 0.56005 0.77952 0.0
C1029 C 0.78132 0.58791 0.79653 0.0
C1030 C 0.71565 0.56521 0.77747 0.0
C1031 C 0.7487 0.6026 0.80435 0.0
C1032 C 0.65038 0.5775 0.77002 0.0
C1033 C 0.64742 0.51961 0.7388 0.0
N1034 N 0.71732 0.59137 0.79458 0.0
N1035 N 0.67824 0.52796 0.75056 0.0
H1036 H 0.82644 0.39871 0.47445 0.0
H1037 H 0.6922 0.49405 0.56782 0.0
H1038 H 0.73914 0.34445 0.51002 0.0
H1039 H 0.76639 0.55199 0.52244 0.0
H1040 H 0.71457 0.43796 0.55086 0.0
H1041 H 0.80978 0.45392 0.49548 0.0
C1042 C 0.80392 0.39831 0.4868 0.0
C1043 C 0.78407 0.36683 0.49033 0.0
C1044 C 0.7262 0.46294 0.54478 0.0
C1045 C 0.76481 0.43009 0.51454 0.0
C1046 C 0.71363 0.49505 0.55463 0.0
C1047 C 0.72735 0.52799 0.5466 0.0
C1048 C 0.75285 0.46357 0.52681 0.0
C1049 C 0.75492 0.52735 0.52923 0.0
C1050 C 0.79432 0.42991 0.49873 0.0
C1051 C 0.75492 0.36812 0.50643 0.0
N1052 N 0.7666 0.49576 0.51987 0.0
N1053 N 0.74622 0.39913 0.51791 0.0
H1054 H 0.76323 0.5182 0.26883 0.0
H1055 H 0.97466 0.48876 0.26253 0.0
H1056 H 0.82082 0.44822 0.31718 0.0
H1057 H 0.92011 0.57095 0.22208 0.0
H1058 H 0.9185 0.47413 0.28296 0.0
H1059 H 0.82013 0.53917 0.25228 0.0
C1060 C 0.78779 0.50766 0.27631 0.0
C1061 C 0.78704 0.48132 0.2945 0.0
C1062 C 0.91879 0.49549 0.2697 0.0
C1063 C 0.85253 0.5049 0.27521 0.0
C1064 C 0.95084 0.5037 0.25789 0.0
C1065 C 0.95215 0.531 0.24041 0.0
C1066 C 0.88752 0.51446 0.26393 0.0
C1067 C 0.92046 0.54984 0.2355 0.0
C1068 C 0.82034 0.51957 0.26673 0.0
C1069 C 0.8199 0.46856 0.30324 0.0
N1070 N 0.88945 0.54104 0.24704 0.0
N1071 N 0.85119 0.4802 0.29337 0.0
H1072 H 0.73484 0.84393 0.76341 0.0
H1073 H 0.76713 0.05453 0.75049 0.0
H1074 H 0.82229 0.89887 0.79776 0.0
H1075 H 0.69147 0.99597 0.70714 0.0
H1076 H 0.78861 0.99801 0.76734 0.0
H1077 H 0.71876 0.89941 0.74263 0.0
C1078 C 0.75062 0.86769 0.76666 0.0
C1079 C 0.77987 0.86668 0.78251 0.0
C1080 C 0.76761 0.99747 0.75392 0.0
C1081 C 0.76167 0.93052 0.75855 0.0
C1082 C 0.75538 1.0298 0.74418 0.0
C1083 C 0.72738 1.03019 0.72729 0.0
C1084 C 0.75154 0.96515 0.74696 0.0
C1085 C 0.71317 0.99714 0.72 0.0
C1086 C 0.74157 0.89935 0.75462 0.0
C1087 C 0.79968 0.89827 0.78562 0.0
N1088 N 0.72514 0.96609 0.73003 0.0
N1089 N 0.79008 0.92889 0.77391 0.0
H1090 H 0.82216 0.94884 0.95418 0.0
H1091 H 0.92106 0.07412 1.05078 0.0
H1092 H 0.76591 1.01754 1.00415 0.0
H1093 H 0.97416 0.992 1.00937 0.0
H1094 H 0.86487 0.05921 1.03051 0.0
H1095 H 0.87878 0.9704 0.97045 0.0
C1096 C 0.82161 0.96889 0.96829 0.0
C1097 C 0.78901 0.98129 0.97778 0.0
C1098 C 0.88885 0.04453 1.02581 0.0
C1099 C 0.8541 1.00584 0.99676 0.0
C1100 C 0.92099 0.05314 1.0373 0.0
C1101 C 0.95243 0.03415 1.0319 0.0
C1102 C 0.88808 1.01694 1.00858 0.0
C1103 C 0.95055 1.007 1.01441 0.0
C1104 C 0.85405 0.98102 0.9777 0.0
C1105 C 0.79026 1.00719 0.99619 0.0
N1106 N 0.91902 0.99924 1.00341 0.0
N1107 N 0.82219 1.01841 1.00515 0.0
H1108 H 0.80235 1.01378 0.24983 0.0
H1109 H 0.83203 0.22496 0.26043 0.0
H1110 H 0.87561 0.07309 0.20457 0.0
H1111 H 0.74688 0.16923 0.29733 0.0
H1112 H 0.84789 0.16952 0.23963 0.0
H1113 H 0.78043 0.07016 0.26662 0.0
C1114 C 0.81345 0.03862 0.24308 0.0
C1115 C 0.84097 0.03848 0.22569 0.0
C1116 C 0.82562 0.16939 0.25218 0.0
C1117 C 0.81631 0.10337 0.24528 0.0
C1118 C 0.8167 0.20103 0.26423 0.0
C1119 C 0.78819 0.20182 0.28082 0.0
C1120 C 0.80614 0.13799 0.25684 0.0
C1121 C 0.76893 0.17001 0.28462 0.0
C1122 C 0.80099 0.07087 0.25279 0.0
C1123 C 0.85434 0.07169 0.21785 0.0
N1124 N 0.77841 0.13939 0.27289 0.0
N1125 N 0.84217 0.10265 0.22785 0.0
H1126 H 0.80656 0.04752 0.50125 0.0
H1127 H 0.59617 0.08235 0.51091 0.0
H1128 H 0.75044 0.1238 0.45662 0.0
H1129 H 0.64933 0.99507 0.54712 0.0
H1130 H 0.65234 0.0975 0.49062 0.0
H1131 H 0.74933 1.02679 0.51736 0.0
C1132 C 0.78221 0.05955 0.49451 0.0
C1133 C 0.7835 0.08752 0.47749 0.0
C1134 C 0.65173 0.07492 0.50291 0.0
C1135 C 0.71762 0.06421 0.49631 0.0
C1136 C 0.61968 0.06641 0.51466 0.0
C1137 C 0.61797 0.03749 0.5309 0.0
C1138 C 0.68258 0.05461 0.50751 0.0
C1139 C 0.64926 1.01744 0.53467 0.0
C1140 C 0.74948 0.04775 0.50382 0.0
C1141 C 0.75091 0.10209 0.4696 0.0
N1142 N 0.68026 1.02652 0.52322 0.0
N1143 N 0.71942 0.09054 0.47924 0.0
H1144 H 0.24819 0.16923 0.4704 0.0
H1145 H 0.36918 0.06851 0.56894 0.0
H1146 H 0.32929 0.22106 0.51306 0.0
H1147 H 0.30379 1.01277 0.51705 0.0
H1148 H 0.34794 0.12534 0.55258 0.0
H1149 H 0.26194 0.11254 0.49083 0.0
C1150 C 0.26869 0.16876 0.48418 0.0
C1151 C 0.2878 0.19994 0.48987 0.0
C1152 C 0.33796 0.10068 0.54491 0.0
C1153 C 0.30361 0.13516 0.51339 0.0
C1154 C 0.34991 0.06811 0.55438 0.0
C1155 C 0.33838 0.03561 0.54438 0.0
C1156 C 0.31419 0.10096 0.52529 0.0
C1157 C 0.31344 0.03705 0.52541 0.0
C1158 C 0.27662 0.13637 0.49577 0.0
C1159 C 0.31425 0.19763 0.5078 0.0
N1160 N 0.30238 0.06912 0.5164 0.0
N1161 N 0.32134 0.1659 0.51887 0.0
H1162 H 0.09892 0.07396 0.26431 0.0
H1163 H 0.31088 0.05007 0.26967 0.0
H1164 H 0.15576 0.99812 0.21982 0.0
H1165 H 0.24998 0.11298 0.32065 0.0
H1166 H 0.25491 1.02813 0.25239 0.0
H1167 H 0.15429 0.08702 0.28573 0.0
C1168 C 0.12312 0.0601 0.259 0.0
C1169 C 0.1227 0.03513 0.24007 0.0
C1170 C 0.25383 0.04631 0.2676 0.0
C1171 C 0.18649 0.04983 0.26473 0.0
C1172 C 0.28583 0.05871 0.27761 0.0
C1173 C 0.28531 0.08365 0.29662 0.0
C1174 C 0.22101 0.059 0.27657 0.0
C1175 C 0.25189 0.09397 0.30595 0.0
C1176 C 0.15473 0.06737 0.27137 0.0
C1177 C 0.1548 1.01749 0.23433 0.0
N1178 N 0.22122 0.08193 0.29569 0.0
N1179 N 0.18545 1.0254 0.24645 0.0
H1180 H 0.20305 1.00055 1.06909 0.0
H1181 H 0.32504 0.90139 0.97017 0.0
H1182 H 0.26978 0.05714 1.01793 0.0
H1183 H 0.2425 0.84934 1.01194 0.0
H1184 H 0.3116 0.95764 0.99115 0.0
H1185 H 0.22439 0.94402 1.05244 0.0
C1186 C 0.22264 1.00119 1.05464 0.0
C1187 C 0.23447 1.03386 1.0449 0.0
C1188 C 0.29654 0.93386 0.99577 0.0
C1189 C 0.25877 0.96885 1.02547 0.0
C1190 C 0.30429 0.90172 0.98387 0.0
C1191 C 0.28467 0.87063 0.98915 0.0
C1192 C 0.26923 0.93487 1.01329 0.0
C1193 C 0.25792 0.87273 1.00699 0.0
C1194 C 0.23465 0.9688 1.04501 0.0
C1195 C 0.25986 1.03273 1.02608 0.0
N1196 N 0.25101 0.90421 1.01837 0.0
N1197 N 0.27095 1.00081 1.01688 0.0
H1198 H 0.41636 0.07828 0.7265 0.0
H1199 H 0.31897 0.94766 0.82125 0.0
H1200 H 0.46882 0.99111 0.76329 0.0
H1201 H 0.26221 1.02237 0.77575 0.0
H1202 H 0.37532 0.96997 0.80481 0.0
H1203 H 0.36106 0.06403 0.74838 0.0
C1204 C 0.41635 0.05632 0.73931 0.0
C1205 C 0.44729 0.03571 0.74291 0.0
C1206 C 0.35056 0.98179 0.79863 0.0
C1207 C 0.384 1.01927 0.76808 0.0
C1208 C 0.31826 0.96926 0.80818 0.0
C1209 C 0.28554 0.98295 0.79984 0.0
C1210 C 0.35037 1.00831 0.78058 0.0
C1211 C 0.28663 1.01087 0.78274 0.0
C1212 C 0.38472 0.04812 0.75174 0.0
C1213 C 0.44553 1.00738 0.75962 0.0
N1214 N 0.31843 1.02238 0.77355 0.0
N1215 N 0.4145 1.00001 0.77153 0.0
H1216 H 0.3306 0.09288 0.23275 0.0
H1217 H 0.2368 0.19145 1.12082 0.0
H1218 H 0.31317 0.20673 0.23316 0.0
H1219 H 0.20888 0.08343 0.14008 0.0
H1220 H 0.27033 0.19691 0.1588 0.0
H1221 H 0.29303 0.08809 0.1965 0.0
C1222 C 0.31931 0.11708 0.22516 0.0
C1223 C 0.32579 0.15041 0.23636 0.0
C1224 C 0.25669 0.17206 0.15492 0.0
C1225 C 0.28218 0.1449 0.19388 0.0
C1226 C 0.23733 0.16886 1.13311 0.0
C1227 C 0.2192 0.13702 1.12697 0.0
C1228 C 0.25946 0.14283 0.1709 0.0
C1229 C 0.22166 0.10874 0.14389 0.0
C1230 C 0.29746 0.11418 0.2044 0.0
C1231 C 0.30947 0.18044 0.22542 0.0
N1232 N 0.24164 0.11214 0.16469 0.0
N1233 N 0.28905 0.17702 0.20485 0.0
H1234 H 0.68785 0.52374 0.36015 0.0
H1235 H 0.64395 0.51964 0.50314 0.0
H1236 H 0.68151 0.42445 0.39962 0.0
H1237 H 0.67765 0.61449 0.46505 0.0
H1238 H 0.65281 0.48475 0.46588 0.0
H1239 H 0.68013 0.55657 0.39788 0.0
C1240 C 0.68488 0.50855 0.37674 0.0
C1241 C 0.68542 0.47075 0.37617 0.0
C1242 C 0.65809 0.51321 0.46558 0.0
C1243 C 0.67588 0.50937 0.42054 0.0
C1244 C 0.65271 0.53344 0.48693 0.0
C1245 C 0.6595 0.57065 0.4876 0.0
C1246 C 0.67008 0.52995 0.44418 0.0
C1247 C 0.67162 0.58621 0.46577 0.0
C1248 C 0.68047 0.52763 0.39849 0.0
C1249 C 0.68153 0.45336 0.39877 0.0
N1250 N 0.67622 0.56605 0.44522 0.0
N1251 N 0.67667 0.47266 0.4198 0.0
H1252 H 0.2974 0.89967 0.75323 0.0
H1253 H 0.29584 0.93602 0.60935 0.0
H1254 H 0.20242 0.92722 0.71352 0.0
H1255 H 0.39412 0.93389 0.64971 0.0
H1256 H 0.26224 0.92925 0.64692 0.0
H1257 H 0.33296 0.90786 0.71614 0.0
C1258 C 0.28373 0.907 0.73671 0.0
C1259 C 0.24628 0.91224 0.73688 0.0
C1260 C 0.29111 0.93031 0.64776 0.0
C1261 C 0.28779 0.92201 0.69361 0.0
C1262 C 0.31066 0.93416 0.6261 0.0
C1263 C 0.34842 0.93556 0.62582 0.0
C1264 C 0.30885 0.92722 0.67004 0.0
C1265 C 0.36527 0.93316 0.64863 0.0
C1266 C 0.30435 0.91197 0.71544 0.0
C1267 C 0.23089 0.92246 0.71463 0.0
N1268 N 0.34552 0.92885 0.66958 0.0
N1269 N 0.25147 0.92673 0.69416 0.0
H1270 H 0.88488 0.64408 0.89855 0.0
H1271 H 0.88967 0.45095 0.96544 0.0
H1272 H 0.88715 0.54403 0.86005 0.0
H1273 H 0.92304 0.54742 1.00132 0.0
H1274 H 0.88261 0.48528 0.92769 0.0
H1275 H 0.89241 0.61061 0.93689 0.0
C1276 C 0.88676 0.6152 0.89801 0.0
C1277 C 0.88545 0.59728 0.87557 0.0
C1278 C 0.89166 0.499 0.94377 0.0
C1279 C 0.89377 0.55823 0.92001 0.0
C1280 C 0.89582 0.47925 0.96548 0.0
C1281 C 0.90762 0.49577 0.98694 0.0
C1282 C 0.89845 0.53616 0.94317 0.0
C1283 C 0.91451 0.53297 0.98541 0.0
C1284 C 0.89123 0.59599 0.92003 0.0
C1285 C 0.88819 0.55952 0.87655 0.0
N1286 N 0.90964 0.55168 0.96422 0.0
N1287 N 0.89195 0.54159 0.89807 0.0
H1288 H 0.84818 0.87767 0.14813 0.0
H1289 H 0.73093 0.971 1.04496 0.0
H1290 H 0.85821 0.99035 1.1337 0.0
H1291 H 0.76997 0.86347 1.0361 0.0
H1292 H 0.76935 0.97775 1.08074 0.0
H1293 H 0.81309 0.87101 1.11084 0.0
C1294 C 0.84344 0.90105 0.137 0.0
C1295 C 0.85706 0.93457 0.14418 0.0
C1296 C 0.76939 0.95258 1.0711 0.0
C1297 C 0.81486 0.92724 1.10134 0.0
C1298 C 0.74703 0.94848 1.05069 0.0
C1299 C 0.74641 0.91633 1.03731 0.0
C1300 C 0.7911 0.92408 1.07899 0.0
C1301 C 0.76896 0.88865 1.04569 0.0
C1302 C 0.82318 0.89718 1.11563 0.0
C1303 C 0.84912 0.96383 1.1289 0.0
N1304 N 0.78978 0.89299 1.06595 0.0
N1305 N 0.82831 0.95959 1.10859 0.0
H1306 H 0.32852 0.60735 0.88311 0.0
H1307 H 0.45751 0.51086 0.78507 0.0
H1308 H 0.44184 0.59617 0.8941 0.0
H1309 H 0.34513 0.48732 0.79058 0.0
H1310 H 0.45242 0.54827 0.82165 0.0
H1311 H 0.33392 0.57081 0.84611 0.0
C1312 C 0.35464 0.59776 0.87768 0.0
C1313 C 0.38473 0.60539 0.89211 0.0
C1314 C 0.42886 0.53482 0.81493 0.0
C1315 C 0.39121 0.56296 0.84909 0.0
C1316 C 0.43179 0.51324 0.79394 0.0
C1317 C 0.4019 0.49502 0.78452 0.0
C1318 C 0.39555 0.53945 0.82662 0.0
C1319 C 0.36922 0.50005 0.79706 0.0
C1320 C 0.35768 0.57652 0.85652 0.0
C1321 C 0.41773 0.59136 0.88386 0.0
N1322 N 0.36693 0.52172 0.81706 0.0
N1323 N 0.42005 0.5713 0.86311 0.0
H1324 H 0.67095 0.13346 0.62248 0.0
H1325 H 0.86695 0.13605 0.55948 0.0
H1326 H 0.76998 0.12955 0.66194 0.0
H1327 H 0.77293 0.17068 0.52125 0.0
H1328 H 0.83055 0.12828 0.59615 0.0
H1329 H 0.70576 0.14123 0.58457 0.0
C1330 C 0.69984 0.13393 0.6233 0.0
C1331 C 0.71715 0.13091 0.64586 0.0
C1332 C 0.81778 0.13779 0.57981 0.0
C1333 C 0.75761 0.1397 0.60209 0.0
C1334 C 0.83875 0.14239 0.55873 0.0
C1335 C 0.82354 0.1547 0.53695 0.0
C1336 C 0.7807 0.14477 0.57948 0.0
C1337 C 0.78636 0.16179 0.5375 0.0
C1338 C 0.71981 0.1386 0.60156 0.0
C1339 C 0.75495 0.13197 0.64532 0.0
N1340 N 0.76641 0.15658 0.55815 0.0
N1341 N 0.77353 0.13607 0.62413 0.0
H1342 H 0.12836 0.46694 0.39359 0.0
H1343 H 0.22246 0.59268 0.29369 0.0
H1344 H 0.24281 0.47084 0.38604 0.0
H1345 H 0.11755 0.54849 0.28274 0.0
H1346 H 0.22889 0.55531 0.33018 0.0
H1347 H 0.12253 0.50227 0.35625 0.0
C1348 C 0.15241 0.47491 0.38406 0.0
C1349 C 0.18621 0.46511 0.39327 0.0
C1350 C 0.20434 0.55389 0.31992 0.0
C1351 C 0.17953 0.50743 0.35009 0.0
C1352 C 0.20042 0.57564 0.29906 0.0
C1353 C 0.16912 0.57453 0.28484 0.0
C1354 C 0.17653 0.53092 0.3274 0.0
C1355 C 0.1421 0.55087 0.29291 0.0
C1356 C 0.14897 0.49529 0.36259 0.0
C1357 C 0.21613 0.47699 0.37978 0.0
N1358 N 0.14626 0.53057 0.31352 0.0
N1359 N 0.21211 0.49765 0.35928 0.0
H1360 H 0.77175 0.63019 0.60949 0.0
H1361 H 0.77173 0.66957 0.75286 0.0
H1362 H 0.67408 0.632 0.65096 0.0
H1363 H 0.86598 0.63829 0.71325 0.0
H1364 H 0.73596 0.66094 0.7161 0.0
H1365 H 0.80586 0.6375 0.6467 0.0
C1366 C 0.75719 0.63212 0.6264 0.0
C1367 C 0.71944 0.63042 0.62657 0.0
C1368 C 0.76447 0.65613 0.71535 0.0
C1369 C 0.75953 0.63945 0.67029 0.0
C1370 C 0.78521 0.66138 0.73642 0.0
C1371 C 0.82251 0.65521 0.73651 0.0
C1372 C 0.78077 0.64495 0.69363 0.0
C1373 C 0.83764 0.64381 0.71439 0.0
C1374 C 0.77701 0.63626 0.64785 0.0
C1375 C 0.7029 0.63295 0.64954 0.0
N1376 N 0.81697 0.63937 0.69409 0.0
N1377 N 0.72288 0.63761 0.67025 0.0
H1378 H 0.12972 0.99218 0.86721 0.0
H1379 H 0.22509 0.08673 0.97897 0.0
H1380 H 0.23422 0.95738 0.8894 0.0
H1381 H 0.11326 0.06053 0.9833 0.0
H1382 H 0.23016 0.0498 0.9422 0.0
H1383 H 0.12403 1.02647 0.90507 0.0
C1384 C 0.1515 0.99151 0.88005 0.0
C1385 C 0.18237 0.97112 0.87487 0.0
C1386 C 0.20443 0.05228 0.95106 0.0
C1387 C 0.17645 1.01219 0.91851 0.0
C1388 C 0.20136 0.07378 0.97205 0.0
C1389 C 0.16852 0.07749 0.98449 0.0
C1390 C 0.17425 0.0348 0.94154 0.0
C1391 C 0.13911 0.059 0.97452 0.0
C1392 C 0.14817 1.01123 0.90178 0.0
C1393 C 0.20967 0.97202 0.89247 0.0
N1394 N 0.14255 0.03914 0.95368 0.0
N1395 N 0.2063 0.99244 0.9131 0.0
H1396 H 0.84946 0.37767 1.12568 0.0
H1397 H 0.73045 0.47073 0.22835 0.0
H1398 H 0.85778 0.49061 0.13928 0.0
H1399 H 0.76942 0.36317 0.23737 0.0
H1400 H 0.76932 0.47764 0.19262 0.0
H1401 H 0.81417 0.37087 0.16306 0.0
C1402 C 0.84435 0.40107 0.13669 0.0
C1403 C 0.85754 0.43471 1.12926 0.0
C1404 C 0.76926 0.45242 0.20229 0.0
C1405 C 0.81508 0.42722 0.17215 0.0
C1406 C 0.74663 0.44823 0.22266 0.0
C1407 C 0.74586 0.41603 0.23605 0.0
C1408 C 0.79108 0.42397 0.19446 0.0
C1409 C 0.76852 0.3884 0.22775 0.0
C1410 C 0.82396 0.39713 0.15808 0.0
C1411 C 0.84908 0.46401 0.14431 0.0
N1412 N 0.78962 0.39282 0.20753 0.0
N1413 N 0.82815 0.45968 0.16466 0.0
H1414 H 0.3511 0.97395 0.47552 0.0
H1415 H 0.44289 0.10464 0.37779 0.0
H1416 H 0.45455 1.0207 0.48786 0.0
H1417 H 0.32852 0.09713 0.3846 0.0
H1418 H 0.44932 0.06876 0.41484 0.0
H1419 H 0.34421 1.01206 0.43949 0.0
C1420 C 0.37275 0.99172 0.47054 0.0
C1421 C 0.40378 0.99331 0.485 0.0
C1422 C 0.42276 0.07508 0.4084 0.0
C1423 C 0.39581 0.03782 0.44298 0.0
C1424 C 0.41898 0.09577 0.38711 0.0
C1425 C 0.38501 0.1047 0.37779 0.0
C1426 C 0.39243 0.06177 0.42058 0.0
C1427 C 0.35529 0.09169 0.39098 0.0
C1428 C 0.36855 1.01389 0.44994 0.0
C1429 C 0.43027 1.01792 0.47746 0.0
N1430 N 0.35968 0.07075 0.4113 0.0
N1431 N 0.42585 0.03865 0.45708 0.0
H1432 H 0.35647 0.49376 0.63322 0.0
H1433 H 0.26125 0.36353 0.5359 0.0
H1434 H 0.34503 0.3805 0.6452 0.0
H1435 H 0.23714 0.47597 0.54046 0.0
H1436 H 0.29838 0.36913 0.57251 0.0
H1437 H 0.32046 0.48797 0.59606 0.0
C1438 C 0.34695 0.46757 0.62798 0.0
C1439 C 0.35432 0.43763 0.64274 0.0
C1440 C 0.28489 0.3926 0.56557 0.0
C1441 C 0.31251 0.43068 0.59954 0.0
C1442 C 0.26347 0.38938 0.54455 0.0
C1443 C 0.24518 0.41913 0.53485 0.0
C1444 C 0.28927 0.42607 0.577 0.0
C1445 C 0.24997 0.45197 0.54714 0.0
C1446 C 0.326 0.46431 0.60673 0.0
C1447 C 0.34039 0.40452 0.63471 0.0
N1448 N 0.27149 0.45454 0.56716 0.0
N1449 N 0.32064 0.40198 0.61388 0.0
H1450 H 0.88906 0.04311 0.41449 0.0
H1451 H 0.92464 0.0477 0.27059 0.0
H1452 H 0.88761 0.14205 0.37444 0.0
H1453 H 0.88932 0.95301 0.30815 0.0
H1454 H 0.91751 0.08205 0.30822 0.0
H1455 H 0.89503 1.01016 0.37652 0.0
C1456 C 0.89006 0.05819 0.39775 0.0
C1457 C 0.88778 0.09593 0.3982 0.0
C1458 C 0.91147 0.05374 0.30833 0.0
C1459 C 0.89526 0.05727 0.35361 0.0
C1460 C 0.91584 1.03381 0.28675 0.0
C1461 C 0.90809 0.99681 0.28581 0.0
C1462 C 0.89972 0.03689 0.32975 0.0
C1463 C 0.89604 0.98114 0.30764 0.0
C1464 C 0.8934 0.03905 0.37588 0.0
C1465 C 0.8891 0.11319 0.37541 0.0
N1466 N 0.89258 1.00098 0.32847 0.0
N1467 N 0.89304 0.09391 0.3543 0.0
H1468 H 0.20487 0.58182 1.12882 0.0
H1469 H 0.31432 0.70902 1.0362 0.0
H1470 H 0.23621 0.6888 0.14798 0.0
H1471 H 0.329 0.59478 1.03702 0.0
H1472 H 0.27691 0.70374 1.07294 0.0
H1473 H 0.24021 0.58747 1.09103 0.0
C1474 C 0.21848 0.60675 1.12497 0.0
C1475 C 0.21703 0.63491 0.14189 0.0
C1476 C 0.28835 0.6798 1.0651 0.0
C1477 C 0.25792 0.6417 1.09812 0.0
C1478 C 0.3099 0.68282 1.04403 0.0
C1479 C 0.3257 0.65244 1.03331 0.0
C1480 C 0.28115 0.64597 1.07546 0.0
C1481 C 0.31815 0.6192 1.04455 0.0
C1482 C 0.23906 0.60985 1.10341 0.0
C1483 C 0.23617 0.66628 0.1357 0.0
N1484 N 0.29643 0.61688 1.0646 0.0
N1485 N 0.25531 0.66886 1.11454 0.0
H1486 H 0.68381 0.92368 0.87401 0.0
H1487 H 0.68128 0.11774 0.80801 0.0
H1488 H 0.68933 1.02391 0.91213 0.0
H1489 H 0.64487 1.02247 0.77203 0.0
H1490 H 0.68969 0.08263 0.84522 0.0
H1491 H 0.67549 0.95743 0.83578 0.0
C1492 C 0.68359 0.95262 0.87447 0.0
C1493 C 0.68724 0.97057 0.89677 0.0
C1494 C 0.67966 0.06932 0.82925 0.0
C1495 C 0.67782 1.00985 0.85257 0.0
C1496 C 0.67469 0.08954 0.80786 0.0
C1497 C 0.66167 0.0736 0.78655 0.0
C1498 C 0.67237 1.03225 0.82967 0.0
C1499 C 0.65432 0.03648 0.78787 0.0
C1500 C 0.6786 0.97199 0.85255 0.0
C1501 C 0.68645 1.0084 0.89574 0.0
N1502 N 0.65991 1.01727 0.80878 0.0
N1503 N 0.68204 1.02641 0.87435 0.0
loop_
_geom_bond_atom_site_label_1
_geom_bond_atom_site_label_2
_geom_bond_distance
_geom_bond_site_symmetry_2
_ccdc_geom_bond_type
Tb0 C9 2.764 . S
Tb0 O10 2.325 . S
Tb0 O13 2.303 . S
Tb0 O17 2.322 . S
Tb0 O18 2.349 . S
Tb0 O21 2.415 . S
Tb0 O22 2.399 . S
Tb1 O11 2.322 . S
Tb1 O12 2.349 . S
Tb1 O14 2.415 . S
Tb1 O15 2.399 . S
Tb1 O16 2.325 . S
Tb1 O19 2.303 . S
Tb1 C30 2.764 . S
C2 O18 1.261 . S
C2 O19 1.257 . S
C3 C6 1.358 . S
C3 C7 1.332 . S
C3 C9 1.504 . S
C4 C5 1.373 1_545 S
C4 C8 1.308 . S
C5 C4 1.373 1_565 S
C5 C6 1.429 1_565 S
C5 H32 0.932 . S
C6 C3 1.358 . S
C6 C5 1.429 1_545 S
C6 H33 0.930 . S
C7 C3 1.332 . S
C7 C8 1.394 . S
C7 H34 0.932 . S
C8 C4 1.308 . S
C8 C7 1.394 . S
C8 H35 0.929 . S
C9 Tb0 2.764 . S
C9 C3 1.504 . S
C9 O21 1.239 . S
C9 O22 1.263 . S
O10 Tb0 2.325 . S
O10 C20 1.236 . S
O11 Tb1 2.322 . S
O11 C20 1.257 . S
O12 Tb1 2.349 . S
O12 C23 1.261 . S
O13 Tb0 2.303 . S
O13 C23 1.257 . S
O14 Tb1 2.415 . S
O14 C30 1.239 . S
O15 Tb1 2.399 . S
O15 C30 1.263 . S
O16 Tb1 2.325 . S
O16 C31 1.236 . S
O17 Tb0 2.322 . S
O17 C31 1.257 . S
O18 Tb0 2.349 . S
O18 C2 1.261 . S
O19 Tb1 2.303 . S
O19 C2 1.257 . S
C20 O10 1.236 . S
C20 O11 1.257 . S
O21 Tb0 2.415 . S
O21 C9 1.239 . S
O22 Tb0 2.399 . S
O22 C9 1.263 . S
C23 O12 1.261 . S
C23 O13 1.257 . S
C24 C27 1.358 . S
C24 C28 1.332 . S
C24 C30 1.504 . S
C25 C26 1.373 . S
C25 C29 1.308 . S
C26 C25 1.373 . S
C26 C27 1.429 . S
C26 H36 0.932 . S
C27 C24 1.358 . S
C27 C26 1.429 . S
C27 H37 0.930 . S
C28 C24 1.332 . S
C28 C29 1.394 . S
C28 H38 0.932 . S
C29 C25 1.308 . S
C29 C28 1.394 . S
C29 H39 0.929 . S
C30 Tb1 2.764 . S
C30 O14 1.239 . S
C30 O15 1.263 . S
C30 C24 1.504 . S
C31 O16 1.236 . S
C31 O17 1.257 . S
H32 C5 0.932 . S
H33 C6 0.930 . S
H34 C7 0.932 . S
H35 C8 0.929 . S
H36 C26 0.932 . S
H37 C27 0.930 . S
H38 C28 0.932 . S
H39 C29 0.929 . S
Tb40 C49 2.764 . S
Tb40 O50 2.325 . S
Tb40 O53 2.303 . S
Tb40 O57 2.322 . S
Tb40 O58 2.349 . S
Tb40 O61 2.415 . S
Tb40 O62 2.399 . S
Tb41 O51 2.322 . S
Tb41 O52 2.349 . S
Tb41 O54 2.415 . S
Tb41 O55 2.399 . S
Tb41 O56 2.325 . S
Tb41 O59 2.303 . S
Tb41 C70 2.764 . S
C42 O58 1.261 . S
C42 O59 1.257 . S
C43 C46 1.358 . S
C43 C47 1.332 . S
C43 C49 1.504 . S
C44 C45 1.373 . S
C44 C48 1.308 . S
C45 C44 1.373 . S
C45 C46 1.429 . S
C45 H72 0.932 . S
C46 C43 1.358 . S
C46 C45 1.429 . S
C46 H73 0.930 . S
C47 C43 1.332 . S
C47 C48 1.394 . S
C47 H74 0.932 . S
C48 C44 1.308 . S
C48 C47 1.394 . S
C48 H75 0.929 . S
C49 Tb40 2.764 . S
C49 C43 1.504 . S
C49 O61 1.239 . S
C49 O62 1.263 . S
O50 Tb40 2.325 . S
O50 C60 1.236 . S
O51 Tb41 2.322 . S
O51 C60 1.257 . S
O52 Tb41 2.349 . S
O52 C63 1.261 . S
O53 Tb40 2.303 . S
O53 C63 1.257 . S
O54 Tb41 2.415 . S
O54 C70 1.239 . S
O55 Tb41 2.399 . S
O55 C70 1.263 . S
O56 Tb41 2.325 . S
O56 C71 1.236 . S
O57 Tb40 2.322 . S
O57 C71 1.257 . S
O58 Tb40 2.349 . S
O58 C42 1.261 . S
O59 Tb41 2.303 . S
O59 C42 1.257 . S
C60 O50 1.236 . S
C60 O51 1.257 . S
O61 Tb40 2.415 . S
O61 C49 1.239 . S
O62 Tb40 2.399 . S
O62 C49 1.263 . S
C63 O52 1.261 . S
C63 O53 1.257 . S
C64 C67 1.358 . S
C64 C68 1.332 . S
C64 C70 1.504 . S
C65 C66 1.373 . S
C65 C69 1.308 . S
C66 C65 1.373 . S
C66 C67 1.429 . S
C66 H76 0.932 . S
C67 C64 1.358 . S
C67 C66 1.429 . S
C67 H77 0.930 . S
C68 C64 1.332 . S
C68 C69 1.394 . S
C68 H78 0.932 . S
C69 C65 1.308 . S
C69 C68 1.394 . S
C69 H79 0.929 . S
C70 Tb41 2.764 . S
C70 O54 1.239 . S
C70 O55 1.263 . S
C70 C64 1.504 . S
C71 O56 1.236 . S
C71 O57 1.257 . S
H72 C45 0.932 . S
H73 C46 0.930 . S
H74 C47 0.932 . S
H75 C48 0.929 . S
H76 C66 0.932 . S
H77 C67 0.930 . S
H78 C68 0.932 . S
H79 C69 0.929 . S
Tb80 C89 2.764 . S
Tb80 O90 2.325 . S
Tb80 O93 2.303 . S
Tb80 O97 2.322 . S
Tb80 O98 2.349 . S
Tb80 O101 2.415 . S
Tb80 O102 2.399 . S
Tb81 O91 2.322 . S
Tb81 O92 2.349 . S
Tb81 O94 2.415 . S
Tb81 O95 2.399 . S
Tb81 O96 2.325 . S
Tb81 O99 2.303 . S
Tb81 C110 2.764 . S
C82 O98 1.261 . S
C82 O99 1.257 . S
C83 C86 1.358 . S
C83 C87 1.332 . S
C83 C89 1.504 . S
C84 C85 1.373 1_565 S
C84 C88 1.308 . S
C85 C84 1.373 1_545 S
C85 C86 1.429 1_545 S
C85 H112 0.932 . S
C86 C83 1.358 . S
C86 C85 1.429 1_565 S
C86 H113 0.930 . S
C87 C83 1.332 . S
C87 C88 1.394 . S
C87 H114 0.932 . S
C88 C84 1.308 . S
C88 C87 1.394 . S
C88 H115 0.929 . S
C89 Tb80 2.764 . S
C89 C83 1.504 . S
C89 O101 1.239 . S
C89 O102 1.263 . S
O90 Tb80 2.325 . S
O90 C100 1.236 . S
O91 Tb81 2.322 . S
O91 C100 1.257 . S
O92 Tb81 2.349 . S
O92 C103 1.261 . S
O93 Tb80 2.303 . S
O93 C103 1.257 . S
O94 Tb81 2.415 . S
O94 C110 1.239 . S
O95 Tb81 2.399 . S
O95 C110 1.263 . S
O96 Tb81 2.325 . S
O96 C111 1.236 . S
O97 Tb80 2.322 . S
O97 C111 1.257 . S
O98 Tb80 2.349 . S
O98 C82 1.261 . S
O99 Tb81 2.303 . S
O99 C82 1.257 . S
C100 O90 1.236 . S
C100 O91 1.257 . S
O101 Tb80 2.415 . S
O101 C89 1.239 . S
O102 Tb80 2.399 . S
O102 C89 1.263 . S
C103 O92 1.261 . S
C103 O93 1.257 . S
C104 C107 1.358 . S
C104 C108 1.332 . S
C104 C110 1.504 . S
C105 C106 1.373 . S
C105 C109 1.308 . S
C106 C105 1.373 . S
C106 C107 1.429 . S
C106 H116 0.932 . S
C107 C104 1.358 . S
C107 C106 1.429 . S
C107 H117 0.930 . S
C108 C104 1.332 . S
C108 C109 1.394 . S
C108 H118 0.932 . S
C109 C105 1.308 . S
C109 C108 1.394 . S
C109 H119 0.929 . S
C110 Tb81 2.764 . S
C110 O94 1.239 . S
C110 O95 1.263 . S
C110 C104 1.504 . S
C111 O96 1.236 . S
C111 O97 1.257 . S
H112 C85 0.932 . S
H113 C86 0.930 . S
H114 C87 0.932 . S
H115 C88 0.929 . S
H116 C106 0.932 . S
H117 C107 0.930 . S
H118 C108 0.932 . S
H119 C109 0.929 . S
Tb120 C129 2.764 . S
Tb120 O130 2.325 . S
Tb120 O133 2.303 . S
Tb120 O137 2.322 . S
Tb120 O138 2.349 . S
Tb120 O141 2.415 . S
Tb120 O142 2.399 . S
Tb121 O131 2.322 . S
Tb121 O132 2.349 . S
Tb121 O134 2.415 . S
Tb121 O135 2.399 . S
Tb121 O136 2.325 . S
Tb121 O139 2.303 . S
Tb121 C150 2.764 . S
C122 O138 1.261 . S
C122 O139 1.257 . S
C123 C126 1.358 . S
C123 C127 1.332 . S
C123 C129 1.504 . S
C124 C125 1.373 . S
C124 C128 1.308 . S
C125 C124 1.373 . S
C125 C126 1.429 . S
C125 H152 0.932 . S
C126 C123 1.358 . S
C126 C125 1.429 . S
C126 H153 0.930 . S
C127 C123 1.332 . S
C127 C128 1.394 . S
C127 H154 0.932 . S
C128 C124 1.308 . S
C128 C127 1.394 . S
C128 H155 0.929 . S
C129 Tb120 2.764 . S
C129 C123 1.504 . S
C129 O141 1.239 . S
C129 O142 1.263 . S
O130 Tb120 2.325 . S
O130 C140 1.236 . S
O131 Tb121 2.322 . S
O131 C140 1.257 . S
O132 Tb121 2.349 . S
O132 C143 1.261 . S
O133 Tb120 2.303 . S
O133 C143 1.257 . S
O134 Tb121 2.415 . S
O134 C150 1.239 . S
O135 Tb121 2.399 . S
O135 C150 1.263 . S
O136 Tb121 2.325 . S
O136 C151 1.236 . S
O137 Tb120 2.322 . S
O137 C151 1.257 . S
O138 Tb120 2.349 . S
O138 C122 1.261 . S
O139 Tb121 2.303 . S
O139 C122 1.257 . S
C140 O130 1.236 . S
C140 O131 1.257 . S
O141 Tb120 2.415 . S
O141 C129 1.239 . S
O142 Tb120 2.399 . S
O142 C129 1.263 . S
C143 O132 1.261 . S
C143 O133 1.257 . S
C144 C147 1.358 . S
C144 C148 1.332 1_455 S
C144 C150 1.504 1_455 S
C145 C146 1.373 . S
C145 C149 1.308 . S
C146 C145 1.373 . S
C146 C147 1.429 . S
C146 H156 0.932 . S
C147 C144 1.358 . S
C147 C146 1.429 . S
C147 H157 0.930 . S
C148 C144 1.332 1_655 S
C148 C149 1.394 1_655 S
C148 H158 0.932 . S
C149 C145 1.308 . S
C149 C148 1.394 1_455 S
C149 H159 0.929 . S
C150 Tb121 2.764 . S
C150 O134 1.239 . S
C150 O135 1.263 . S
C150 C144 1.504 1_655 S
C151 O136 1.236 . S
C151 O137 1.257 . S
H152 C125 0.932 . S
H153 C126 0.930 . S
H154 C127 0.932 . S
H155 C128 0.929 . S
H156 C146 0.932 . S
H157 C147 0.930 . S
H158 C148 0.932 . S
H159 C149 0.929 . S
Tb160 C169 2.764 . S
Tb160 O170 2.325 . S
Tb160 O173 2.303 . S
Tb160 O177 2.322 . S
Tb160 O178 2.349 . S
Tb160 O181 2.415 . S
Tb160 O182 2.399 . S
Tb161 O171 2.322 . S
Tb161 O172 2.349 . S
Tb161 O174 2.415 . S
Tb161 O175 2.399 . S
Tb161 O176 2.325 . S
Tb161 O179 2.303 . S
Tb161 C190 2.764 . S
C162 O178 1.261 . S
C162 O179 1.257 . S
C163 C166 1.358 . S
C163 C167 1.332 . S
C163 C169 1.504 . S
C164 C165 1.373 . S
C164 C168 1.308 . S
C165 C164 1.373 . S
C165 C166 1.429 . S
C165 H192 0.932 . S
C166 C163 1.358 . S
C166 C165 1.429 . S
C166 H193 0.930 . S
C167 C163 1.332 . S
C167 C168 1.394 . S
C167 H194 0.932 . S
C168 C164 1.308 . S
C168 C167 1.394 . S
C168 H195 0.929 . S
C169 Tb160 2.764 . S
C169 C163 1.504 . S
C169 O181 1.239 . S
C169 O182 1.263 . S
O170 Tb160 2.325 . S
O170 C180 1.236 . S
O171 Tb161 2.322 . S
O171 C180 1.257 . S
O172 Tb161 2.349 . S
O172 C183 1.261 . S
O173 Tb160 2.303 . S
O173 C183 1.257 . S
O174 Tb161 2.415 . S
O174 C190 1.239 . S
O175 Tb161 2.399 . S
O175 C190 1.263 . S
O176 Tb161 2.325 . S
O176 C191 1.236 . S
O177 Tb160 2.322 . S
O177 C191 1.257 . S
O178 Tb160 2.349 . S
O178 C162 1.261 . S
O179 Tb161 2.303 . S
O179 C162 1.257 . S
C180 O170 1.236 . S
C180 O171 1.257 . S
O181 Tb160 2.415 . S
O181 C169 1.239 . S
O182 Tb160 2.399 . S
O182 C169 1.263 . S
C183 O172 1.261 . S
C183 O173 1.257 . S
C184 C187 1.358 . S
C184 C188 1.332 . S
C184 C190 1.504 . S
C185 C186 1.373 1_565 S
C185 C189 1.308 . S
C186 C185 1.373 1_545 S
C186 C187 1.429 1_545 S
C186 H196 0.932 . S
C187 C184 1.358 . S
C187 C186 1.429 1_565 S
C187 H197 0.930 . S
C188 C184 1.332 . S
C188 C189 1.394 . S
C188 H198 0.932 . S
C189 C185 1.308 . S
C189 C188 1.394 . S
C189 H199 0.929 . S
C190 Tb161 2.764 . S
C190 O174 1.239 . S
C190 O175 1.263 . S
C190 C184 1.504 . S
C191 O176 1.236 . S
C191 O177 1.257 . S
H192 C165 0.932 . S
H193 C166 0.930 . S
H194 C167 0.932 . S
H195 C168 0.929 . S
H196 C186 0.932 . S
H197 C187 0.930 . S
H198 C188 0.932 . S
H199 C189 0.929 . S
Tb200 C209 2.764 . S
Tb200 O210 2.325 . S
Tb200 O213 2.303 . S
Tb200 O217 2.322 . S
Tb200 O218 2.349 . S
Tb200 O221 2.415 . S
Tb200 O222 2.399 . S
Tb201 O211 2.322 . S
Tb201 O212 2.349 . S
Tb201 O214 2.415 . S
Tb201 O215 2.399 . S
Tb201 O216 2.325 . S
Tb201 O219 2.303 . S
Tb201 C230 2.764 . S
C202 O218 1.261 . S
C202 O219 1.257 . S
C203 C206 1.358 . S
C203 C207 1.332 . S
C203 C209 1.504 . S
C204 C205 1.373 . S
C204 C208 1.308 . S
C205 C204 1.373 . S
C205 C206 1.429 . S
C205 H232 0.932 . S
C206 C203 1.358 . S
C206 C205 1.429 . S
C206 H233 0.930 . S
C207 C203 1.332 . S
C207 C208 1.394 . S
C207 H234 0.932 . S
C208 C204 1.308 . S
C208 C207 1.394 . S
C208 H235 0.929 . S
C209 Tb200 2.764 . S
C209 C203 1.504 . S
C209 O221 1.239 . S
C209 O222 1.263 . S
O210 Tb200 2.325 . S
O210 C220 1.236 . S
O211 Tb201 2.322 . S
O211 C220 1.257 . S
O212 Tb201 2.349 . S
O212 C223 1.261 . S
O213 Tb200 2.303 . S
O213 C223 1.257 . S
O214 Tb201 2.415 . S
O214 C230 1.239 . S
O215 Tb201 2.399 . S
O215 C230 1.263 . S
O216 Tb201 2.325 . S
O216 C231 1.236 . S
O217 Tb200 2.322 . S
O217 C231 1.257 . S
O218 Tb200 2.349 . S
O218 C202 1.261 . S
O219 Tb201 2.303 . S
O219 C202 1.257 . S
C220 O210 1.236 . S
C220 O211 1.257 . S
O221 Tb200 2.415 . S
O221 C209 1.239 . S
O222 Tb200 2.399 . S
O222 C209 1.263 . S
C223 O212 1.261 . S
C223 O213 1.257 . S
C224 C227 1.358 . S
C224 C228 1.332 . S
C224 C230 1.504 . S
C225 C226 1.373 . S
C225 C229 1.308 . S
C226 C225 1.373 . S
C226 C227 1.429 . S
C226 H236 0.932 . S
C227 C224 1.358 . S
C227 C226 1.429 . S
C227 H237 0.930 . S
C228 C224 1.332 . S
C228 C229 1.394 . S
C228 H238 0.932 . S
C229 C225 1.308 . S
C229 C228 1.394 . S
C229 H239 0.929 . S
C230 Tb201 2.764 . S
C230 O214 1.239 . S
C230 O215 1.263 . S
C230 C224 1.504 . S
C231 O216 1.236 . S
C231 O217 1.257 . S
H232 C205 0.932 . S
H233 C206 0.930 . S
H234 C207 0.932 . S
H235 C208 0.929 . S
H236 C226 0.932 . S
H237 C227 0.930 . S
H238 C228 0.932 . S
H239 C229 0.929 . S
Tb240 C249 2.764 . S
Tb240 O250 2.325 . S
Tb240 O253 2.303 . S
Tb240 O257 2.322 . S
Tb240 O258 2.349 . S
Tb240 O261 2.415 . S
Tb240 O262 2.399 . S
Tb241 O251 2.322 . S
Tb241 O252 2.349 . S
Tb241 O254 2.415 . S
Tb241 O255 2.399 . S
Tb241 O256 2.325 . S
Tb241 O259 2.303 . S
Tb241 C270 2.764 . S
C242 O258 1.261 . S
C242 O259 1.257 . S
C243 C246 1.358 . S
C243 C247 1.332 . S
C243 C249 1.504 . S
C244 C245 1.373 . S
C244 C248 1.308 . S
C245 C244 1.373 . S
C245 C246 1.429 . S
C245 H272 0.932 . S
C246 C243 1.358 . S
C246 C245 1.429 . S
C246 H273 0.930 . S
C247 C243 1.332 . S
C247 C248 1.394 . S
C247 H274 0.932 . S
C248 C244 1.308 . S
C248 C247 1.394 . S
C248 H275 0.929 . S
C249 Tb240 2.764 . S
C249 C243 1.504 . S
C249 O261 1.239 . S
C249 O262 1.263 . S
O250 Tb240 2.325 . S
O250 C260 1.236 . S
O251 Tb241 2.322 . S
O251 C260 1.257 . S
O252 Tb241 2.349 . S
O252 C263 1.261 . S
O253 Tb240 2.303 . S
O253 C263 1.257 . S
O254 Tb241 2.415 . S
O254 C270 1.239 . S
O255 Tb241 2.399 . S
O255 C270 1.263 . S
O256 Tb241 2.325 . S
O256 C271 1.236 . S
O257 Tb240 2.322 . S
O257 C271 1.257 . S
O258 Tb240 2.349 . S
O258 C242 1.261 . S
O259 Tb241 2.303 . S
O259 C242 1.257 . S
C260 O250 1.236 . S
C260 O251 1.257 . S
O261 Tb240 2.415 . S
O261 C249 1.239 . S
O262 Tb240 2.399 . S
O262 C249 1.263 . S
C263 O252 1.261 . S
C263 O253 1.257 . S
C264 C267 1.358 . S
C264 C268 1.332 . S
C264 C270 1.504 . S
C265 C266 1.373 1_545 S
C265 C269 1.308 . S
C266 C265 1.373 1_565 S
C266 C267 1.429 1_565 S
C266 H276 0.932 . S
C267 C264 1.358 . S
C267 C266 1.429 1_545 S
C267 H277 0.930 . S
C268 C264 1.332 . S
C268 C269 1.394 . S
C268 H278 0.932 . S
C269 C265 1.308 . S
C269 C268 1.394 . S
C269 H279 0.929 . S
C270 Tb241 2.764 . S
C270 O254 1.239 . S
C270 O255 1.263 . S
C270 C264 1.504 . S
C271 O256 1.236 . S
C271 O257 1.257 . S
H272 C245 0.932 . S
H273 C246 0.930 . S
H274 C247 0.932 . S
H275 C248 0.929 . S
H276 C266 0.932 . S
H277 C267 0.930 . S
H278 C268 0.932 . S
H279 C269 0.929 . S
Tb280 C289 2.764 . S
Tb280 O290 2.325 . S
Tb280 O293 2.303 . S
Tb280 O297 2.322 . S
Tb280 O298 2.349 . S
Tb280 O301 2.415 . S
Tb280 O302 2.399 . S
Tb281 O291 2.322 . S
Tb281 O292 2.349 . S
Tb281 O294 2.415 . S
Tb281 O295 2.399 . S
Tb281 O296 2.325 . S
Tb281 O299 2.303 . S
Tb281 C310 2.764 . S
C282 O298 1.261 . S
C282 O299 1.257 . S
C283 C286 1.358 . S
C283 C287 1.332 1_655 S
C283 C289 1.504 1_655 S
C284 C285 1.373 . S
C284 C288 1.308 . S
C285 C284 1.373 . S
C285 C286 1.429 . S
C285 H312 0.932 . S
C286 C283 1.358 . S
C286 C285 1.429 . S
C286 H313 0.930 . S
C287 C283 1.332 1_455 S
C287 C288 1.394 1_455 S
C287 H314 0.932 . S
C288 C284 1.308 . S
C288 C287 1.394 1_655 S
C288 H315 0.929 . S
C289 Tb280 2.764 . S
C289 C283 1.504 1_455 S
C289 O301 1.239 . S
C289 O302 1.263 . S
O290 Tb280 2.325 . S
O290 C300 1.236 . S
O291 Tb281 2.322 . S
O291 C300 1.257 . S
O292 Tb281 2.349 . S
O292 C303 1.261 . S
O293 Tb280 2.303 . S
O293 C303 1.257 . S
O294 Tb281 2.415 . S
O294 C310 1.239 . S
O295 Tb281 2.399 . S
O295 C310 1.263 . S
O296 Tb281 2.325 . S
O296 C311 1.236 . S
O297 Tb280 2.322 . S
O297 C311 1.257 . S
O298 Tb280 2.349 . S
O298 C282 1.261 . S
O299 Tb281 2.303 . S
O299 C282 1.257 . S
C300 O290 1.236 . S
C300 O291 1.257 . S
O301 Tb280 2.415 . S
O301 C289 1.239 . S
O302 Tb280 2.399 . S
O302 C289 1.263 . S
C303 O292 1.261 . S
C303 O293 1.257 . S
C304 C307 1.358 . S
C304 C308 1.332 . S
C304 C310 1.504 . S
C305 C306 1.373 . S
C305 C309 1.308 . S
C306 C305 1.373 . S
C306 C307 1.429 . S
C306 H316 0.932 . S
C307 C304 1.358 . S
C307 C306 1.429 . S
C307 H317 0.930 . S
C308 C304 1.332 . S
C308 C309 1.394 . S
C308 H318 0.932 . S
C309 C305 1.308 . S
C309 C308 1.394 . S
C309 H319 0.929 . S
C310 Tb281 2.764 . S
C310 O294 1.239 . S
C310 O295 1.263 . S
C310 C304 1.504 . S
C311 O296 1.236 . S
C311 O297 1.257 . S
H312 C285 0.932 . S
H313 C286 0.930 . S
H314 C287 0.932 . S
H315 C288 0.929 . S
H316 C306 0.932 . S
H317 C307 0.930 . S
H318 C308 0.932 . S
H319 C309 0.929 . S
Tb320 C329 2.764 . S
Tb320 O330 2.325 . S
Tb320 O333 2.303 . S
Tb320 O337 2.322 . S
Tb320 O338 2.349 . S
Tb320 O341 2.415 . S
Tb320 O342 2.399 . S
Tb321 O331 2.322 . S
Tb321 O332 2.349 . S
Tb321 O334 2.415 . S
Tb321 O335 2.399 . S
Tb321 O336 2.325 . S
Tb321 O339 2.303 . S
Tb321 C350 2.764 . S
C322 O338 1.261 . S
C322 O339 1.257 . S
C323 C326 1.358 . S
C323 C327 1.332 . S
C323 C329 1.504 . S
C324 C325 1.373 . S
C324 C328 1.308 . S
C325 C324 1.373 . S
C325 C326 1.429 . S
C325 H352 0.932 . S
C326 C323 1.358 . S
C326 C325 1.429 . S
C326 H353 0.930 . S
C327 C323 1.332 . S
C327 C328 1.394 . S
C327 H354 0.932 . S
C328 C324 1.308 . S
C328 C327 1.394 . S
C328 H355 0.929 . S
C329 Tb320 2.764 . S
C329 C323 1.504 . S
C329 O341 1.239 . S
C329 O342 1.263 . S
O330 Tb320 2.325 . S
O330 C340 1.236 . S
O331 Tb321 2.322 . S
O331 C340 1.257 . S
O332 Tb321 2.349 . S
O332 C343 1.261 . S
O333 Tb320 2.303 . S
O333 C343 1.257 . S
O334 Tb321 2.415 . S
O334 C350 1.239 . S
O335 Tb321 2.399 . S
O335 C350 1.263 . S
O336 Tb321 2.325 . S
O336 C351 1.236 . S
O337 Tb320 2.322 . S
O337 C351 1.257 . S
O338 Tb320 2.349 . S
O338 C322 1.261 . S
O339 Tb321 2.303 . S
O339 C322 1.257 . S
C340 O330 1.236 . S
C340 O331 1.257 . S
O341 Tb320 2.415 . S
O341 C329 1.239 . S
O342 Tb320 2.399 . S
O342 C329 1.263 . S
C343 O332 1.261 . S
C343 O333 1.257 . S
C344 C347 1.358 . S
C344 C348 1.332 . S
C344 C350 1.504 . S
C345 C346 1.373 . S
C345 C349 1.308 . S
C346 C345 1.373 . S
C346 C347 1.429 . S
C346 H356 0.932 . S
C347 C344 1.358 . S
C347 C346 1.429 . S
C347 H357 0.930 . S
C348 C344 1.332 . S
C348 C349 1.394 . S
C348 H358 0.932 . S
C349 C345 1.308 . S
C349 C348 1.394 . S
C349 H359 0.929 . S
C350 Tb321 2.764 . S
C350 O334 1.239 . S
C350 O335 1.263 . S
C350 C344 1.504 . S
C351 O336 1.236 . S
C351 O337 1.257 . S
H352 C325 0.932 . S
H353 C326 0.930 . S
H354 C327 0.932 . S
H355 C328 0.929 . S
H356 C346 0.932 . S
H357 C347 0.930 . S
H358 C348 0.932 . S
H359 C349 0.929 . S
Tb360 C369 2.764 . S
Tb360 O370 2.325 . S
Tb360 O373 2.303 . S
Tb360 O377 2.322 . S
Tb360 O378 2.349 . S
Tb360 O381 2.415 . S
Tb360 O382 2.399 . S
Tb361 O371 2.322 . S
Tb361 O372 2.349 . S
Tb361 O374 2.415 1_545 S
Tb361 O375 2.399 . S
Tb361 O376 2.325 . S
Tb361 O379 2.303 . S
Tb361 C390 2.764 . S
C362 O378 1.261 . S
C362 O379 1.257 . S
C363 C366 1.358 . S
C363 C367 1.332 . S
C363 C369 1.504 . S
C364 C365 1.373 . S
C364 C368 1.308 . S
C365 C364 1.373 . S
C365 C366 1.429 . S
C365 H392 0.932 . S
C366 C363 1.358 . S
C366 C365 1.429 . S
C366 H393 0.930 . S
C367 C363 1.332 . S
C367 C368 1.394 . S
C367 H394 0.932 . S
C368 C364 1.308 . S
C368 C367 1.394 . S
C368 H395 0.929 . S
C369 Tb360 2.764 . S
C369 C363 1.504 . S
C369 O381 1.239 . S
C369 O382 1.263 . S
O370 Tb360 2.325 . S
O370 C380 1.236 . S
O371 Tb361 2.322 . S
O371 C380 1.257 . S
O372 Tb361 2.349 . S
O372 C383 1.261 . S
O373 Tb360 2.303 . S
O373 C383 1.257 . S
O374 Tb361 2.415 1_565 S
O374 C390 1.239 1_565 S
O375 Tb361 2.399 . S
O375 C390 1.263 . S
O376 Tb361 2.325 . S
O376 C391 1.236 . S
O377 Tb360 2.322 . S
O377 C391 1.257 . S
O378 Tb360 2.349 . S
O378 C362 1.261 . S
O379 Tb361 2.303 . S
O379 C362 1.257 . S
C380 O370 1.236 . S
C380 O371 1.257 . S
O381 Tb360 2.415 . S
O381 C369 1.239 . S
O382 Tb360 2.399 . S
O382 C369 1.263 . S
C383 O372 1.261 . S
C383 O373 1.257 . S
C384 C387 1.358 . S
C384 C388 1.332 1_655 S
C384 C390 1.504 1_665 S
C385 C386 1.373 . S
C385 C389 1.308 . S
C386 C385 1.373 . S
C386 C387 1.429 . S
C386 H396 0.932 . S
C387 C384 1.358 . S
C387 C386 1.429 . S
C387 H397 0.930 1_565 S
C388 C384 1.332 1_455 S
C388 C389 1.394 1_455 S
C388 H398 0.932 . S
C389 C385 1.308 . S
C389 C388 1.394 1_655 S
C389 H399 0.929 . S
C390 Tb361 2.764 . S
C390 O374 1.239 1_545 S
C390 O375 1.263 . S
C390 C384 1.504 1_445 S
C391 O376 1.236 . S
C391 O377 1.257 . S
H392 C365 0.932 . S
H393 C366 0.930 . S
H394 C367 0.932 . S
H395 C368 0.929 . S
H396 C386 0.932 . S
H397 C387 0.930 1_545 S
H398 C388 0.932 . S
H399 C389 0.929 . S
Tb400 C409 2.764 . S
Tb400 O410 2.325 . S
Tb400 O413 2.303 . S
Tb400 O417 2.322 . S
Tb400 O418 2.349 . S
Tb400 O421 2.415 . S
Tb400 O422 2.399 . S
Tb401 O411 2.322 . S
Tb401 O412 2.349 . S
Tb401 O414 2.415 . S
Tb401 O415 2.399 . S
Tb401 O416 2.325 . S
Tb401 O419 2.303 . S
Tb401 C430 2.764 . S
C402 O418 1.261 . S
C402 O419 1.257 . S
C403 C406 1.358 . S
C403 C407 1.332 . S
C403 C409 1.504 . S
C404 C405 1.373 . S
C404 C408 1.308 . S
C405 C404 1.373 . S
C405 C406 1.429 . S
C405 H432 0.932 . S
C406 C403 1.358 . S
C406 C405 1.429 . S
C406 H433 0.930 . S
C407 C403 1.332 . S
C407 C408 1.394 . S
C407 H434 0.932 . S
C408 C404 1.308 . S
C408 C407 1.394 . S
C408 H435 0.929 . S
C409 Tb400 2.764 . S
C409 C403 1.504 . S
C409 O421 1.239 . S
C409 O422 1.263 . S
O410 Tb400 2.325 . S
O410 C420 1.236 . S
O411 Tb401 2.322 . S
O411 C420 1.257 . S
O412 Tb401 2.349 . S
O412 C423 1.261 . S
O413 Tb400 2.303 . S
O413 C423 1.257 . S
O414 Tb401 2.415 . S
O414 C430 1.239 . S
O415 Tb401 2.399 . S
O415 C430 1.263 . S
O416 Tb401 2.325 . S
O416 C431 1.236 . S
O417 Tb400 2.322 . S
O417 C431 1.257 . S
O418 Tb400 2.349 . S
O418 C402 1.261 . S
O419 Tb401 2.303 . S
O419 C402 1.257 . S
C420 O410 1.236 . S
C420 O411 1.257 . S
O421 Tb400 2.415 . S
O421 C409 1.239 . S
O422 Tb400 2.399 . S
O422 C409 1.263 . S
C423 O412 1.261 . S
C423 O413 1.257 . S
C424 C427 1.358 . S
C424 C428 1.332 . S
C424 C430 1.504 . S
C425 C426 1.373 . S
C425 C429 1.308 . S
C426 C425 1.373 . S
C426 C427 1.429 . S
C426 H436 0.932 . S
C427 C424 1.358 . S
C427 C426 1.429 . S
C427 H437 0.930 . S
C428 C424 1.332 . S
C428 C429 1.394 . S
C428 H438 0.932 . S
C429 C425 1.308 . S
C429 C428 1.394 . S
C429 H439 0.929 . S
C430 Tb401 2.764 . S
C430 O414 1.239 . S
C430 O415 1.263 . S
C430 C424 1.504 . S
C431 O416 1.236 . S
C431 O417 1.257 . S
H432 C405 0.932 . S
H433 C406 0.930 . S
H434 C407 0.932 . S
H435 C408 0.929 . S
H436 C426 0.932 . S
H437 C427 0.930 . S
H438 C428 0.932 . S
H439 C429 0.929 . S
Tb440 C449 2.764 . S
Tb440 O450 2.325 . S
Tb440 O453 2.303 . S
Tb440 O457 2.322 . S
Tb440 O458 2.349 . S
Tb440 O461 2.415 . S
Tb440 O462 2.399 . S
Tb441 O451 2.322 . S
Tb441 O452 2.349 . S
Tb441 O454 2.415 1_565 S
Tb441 O455 2.399 . S
Tb441 O456 2.325 . S
Tb441 O459 2.303 . S
Tb441 C470 2.764 . S
C442 O458 1.261 . S
C442 O459 1.257 . S
C443 C446 1.358 . S
C443 C447 1.332 . S
C443 C449 1.504 . S
C444 C445 1.373 . S
C444 C448 1.308 . S
C445 C444 1.373 . S
C445 C446 1.429 . S
C445 H472 0.932 . S
C446 C443 1.358 . S
C446 C445 1.429 . S
C446 H473 0.930 . S
C447 C443 1.332 . S
C447 C448 1.394 . S
C447 H474 0.932 . S
C448 C444 1.308 . S
C448 C447 1.394 . S
C448 H475 0.929 . S
C449 Tb440 2.764 . S
C449 C443 1.504 . S
C449 O461 1.239 . S
C449 O462 1.263 . S
O450 Tb440 2.325 . S
O450 C460 1.236 . S
O451 Tb441 2.322 . S
O451 C460 1.257 . S
O452 Tb441 2.349 . S
O452 C463 1.261 . S
O453 Tb440 2.303 . S
O453 C463 1.257 . S
O454 Tb441 2.415 1_545 S
O454 C470 1.239 1_545 S
O455 Tb441 2.399 . S
O455 C470 1.263 . S
O456 Tb441 2.325 . S
O456 C471 1.236 . S
O457 Tb440 2.322 . S
O457 C471 1.257 . S
O458 Tb440 2.349 . S
O458 C442 1.261 . S
O459 Tb441 2.303 . S
O459 C442 1.257 . S
C460 O450 1.236 . S
C460 O451 1.257 . S
O461 Tb440 2.415 . S
O461 C449 1.239 . S
O462 Tb440 2.399 . S
O462 C449 1.263 . S
C463 O452 1.261 . S
C463 O453 1.257 . S
C464 C467 1.358 . S
C464 C468 1.332 . S
C464 C470 1.504 1_545 S
C465 C466 1.373 . S
C465 C469 1.308 . S
C466 C465 1.373 . S
C466 C467 1.429 . S
C466 H476 0.932 . S
C467 C464 1.358 . S
C467 C466 1.429 . S
C467 H477 0.930 1_545 S
C468 C464 1.332 . S
C468 C469 1.394 . S
C468 H478 0.932 . S
C469 C465 1.308 . S
C469 C468 1.394 . S
C469 H479 0.929 . S
C470 Tb441 2.764 . S
C470 O454 1.239 1_565 S
C470 O455 1.263 . S
C470 C464 1.504 1_565 S
C471 O456 1.236 . S
C471 O457 1.257 . S
H472 C445 0.932 . S
H473 C446 0.930 . S
H474 C447 0.932 . S
H475 C448 0.929 . S
H476 C466 0.932 . S
H477 C467 0.930 1_565 S
H478 C468 0.932 . S
H479 C469 0.929 . S
Tb480 C489 2.764 . S
Tb480 O490 2.325 . S
Tb480 O493 2.303 . S
Tb480 O497 2.322 . S
Tb480 O498 2.349 . S
Tb480 O501 2.415 . S
Tb480 O502 2.399 . S
Tb481 O491 2.322 . S
Tb481 O492 2.349 . S
Tb481 O494 2.415 . S
Tb481 O495 2.399 . S
Tb481 O496 2.325 . S
Tb481 O499 2.303 . S
Tb481 C510 2.764 . S
C482 O498 1.261 . S
C482 O499 1.257 . S
C483 C486 1.358 . S
C483 C487 1.332 . S
C483 C489 1.504 . S
C484 C485 1.373 . S
C484 C488 1.308 . S
C485 C484 1.373 . S
C485 C486 1.429 . S
C485 H512 0.932 . S
C486 C483 1.358 . S
C486 C485 1.429 . S
C486 H513 0.930 . S
C487 C483 1.332 . S
C487 C488 1.394 . S
C487 H514 0.932 . S
C488 C484 1.308 . S
C488 C487 1.394 . S
C488 H515 0.929 . S
C489 Tb480 2.764 . S
C489 C483 1.504 . S
C489 O501 1.239 . S
C489 O502 1.263 . S
O490 Tb480 2.325 . S
O490 C500 1.236 . S
O491 Tb481 2.322 . S
O491 C500 1.257 . S
O492 Tb481 2.349 . S
O492 C503 1.261 . S
O493 Tb480 2.303 . S
O493 C503 1.257 . S
O494 Tb481 2.415 . S
O494 C510 1.239 . S
O495 Tb481 2.399 . S
O495 C510 1.263 . S
O496 Tb481 2.325 . S
O496 C511 1.236 . S
O497 Tb480 2.322 . S
O497 C511 1.257 . S
O498 Tb480 2.349 . S
O498 C482 1.261 . S
O499 Tb481 2.303 . S
O499 C482 1.257 . S
C500 O490 1.236 . S
C500 O491 1.257 . S
O501 Tb480 2.415 . S
O501 C489 1.239 . S
O502 Tb480 2.399 . S
O502 C489 1.263 . S
C503 O492 1.261 . S
C503 O493 1.257 . S
C504 C507 1.358 . S
C504 C508 1.332 . S
C504 C510 1.504 . S
C505 C506 1.373 . S
C505 C509 1.308 . S
C506 C505 1.373 . S
C506 C507 1.429 . S
C506 H516 0.932 . S
C507 C504 1.358 . S
C507 C506 1.429 . S
C507 H517 0.930 . S
C508 C504 1.332 . S
C508 C509 1.394 . S
C508 H518 0.932 . S
C509 C505 1.308 . S
C509 C508 1.394 . S
C509 H519 0.929 . S
C510 Tb481 2.764 . S
C510 O494 1.239 . S
C510 O495 1.263 . S
C510 C504 1.504 . S
C511 O496 1.236 . S
C511 O497 1.257 . S
H512 C485 0.932 . S
H513 C486 0.930 . S
H514 C487 0.932 . S
H515 C488 0.929 . S
H516 C506 0.932 . S
H517 C507 0.930 . S
H518 C508 0.932 . S
H519 C509 0.929 . S
Tb520 C529 2.764 . S
Tb520 O530 2.325 . S
Tb520 O533 2.303 . S
Tb520 O537 2.322 . S
Tb520 O538 2.349 . S
Tb520 O541 2.415 1_565 S
Tb520 O542 2.399 . S
Tb521 O531 2.322 . S
Tb521 O532 2.349 . S
Tb521 O534 2.415 . S
Tb521 O535 2.399 . S
Tb521 O536 2.325 . S
Tb521 O539 2.303 . S
Tb521 C550 2.764 . S
C522 O538 1.261 . S
C522 O539 1.257 . S
C523 C526 1.358 . S
C523 C527 1.332 1_455 S
C523 C529 1.504 1_445 S
C524 C525 1.373 . S
C524 C528 1.308 . S
C525 C524 1.373 . S
C525 C526 1.429 . S
C525 H552 0.932 . S
C526 C523 1.358 . S
C526 C525 1.429 . S
C526 H553 0.930 1_545 S
C527 C523 1.332 1_655 S
C527 C528 1.394 1_655 S
C527 H554 0.932 . S
C528 C524 1.308 . S
C528 C527 1.394 1_455 S
C528 H555 0.929 . S
C529 Tb520 2.764 . S
C529 C523 1.504 1_665 S
C529 O541 1.239 1_565 S
C529 O542 1.263 . S
O530 Tb520 2.325 . S
O530 C540 1.236 . S
O531 Tb521 2.322 . S
O531 C540 1.257 . S
O532 Tb521 2.349 . S
O532 C543 1.261 . S
O533 Tb520 2.303 . S
O533 C543 1.257 . S
O534 Tb521 2.415 . S
O534 C550 1.239 . S
O535 Tb521 2.399 . S
O535 C550 1.263 . S
O536 Tb521 2.325 . S
O536 C551 1.236 . S
O537 Tb520 2.322 . S
O537 C551 1.257 . S
O538 Tb520 2.349 . S
O538 C522 1.261 . S
O539 Tb521 2.303 . S
O539 C522 1.257 . S
C540 O530 1.236 . S
C540 O531 1.257 . S
O541 Tb520 2.415 1_545 S
O541 C529 1.239 1_545 S
O542 Tb520 2.399 . S
O542 C529 1.263 . S
C543 O532 1.261 . S
C543 O533 1.257 . S
C544 C547 1.358 . S
C544 C548 1.332 . S
C544 C550 1.504 . S
C545 C546 1.373 . S
C545 C549 1.308 . S
C546 C545 1.373 . S
C546 C547 1.429 . S
C546 H556 0.932 . S
C547 C544 1.358 . S
C547 C546 1.429 . S
C547 H557 0.930 . S
C548 C544 1.332 . S
C548 C549 1.394 . S
C548 H558 0.932 . S
C549 C545 1.308 . S
C549 C548 1.394 . S
C549 H559 0.929 . S
C550 Tb521 2.764 . S
C550 O534 1.239 . S
C550 O535 1.263 . S
C550 C544 1.504 . S
C551 O536 1.236 . S
C551 O537 1.257 . S
H552 C525 0.932 . S
H553 C526 0.930 1_565 S
H554 C527 0.932 . S
H555 C528 0.929 . S
H556 C546 0.932 . S
H557 C547 0.930 . S
H558 C548 0.932 . S
H559 C549 0.929 . S
Tb560 C569 2.764 . S
Tb560 O570 2.325 . S
Tb560 O573 2.303 . S
Tb560 O577 2.322 . S
Tb560 O578 2.349 . S
Tb560 O581 2.415 . S
Tb560 O582 2.399 . S
Tb561 O571 2.322 . S
Tb561 O572 2.349 . S
Tb561 O574 2.415 . S
Tb561 O575 2.399 . S
Tb561 O576 2.325 . S
Tb561 O579 2.303 . S
Tb561 C590 2.764 . S
C562 O578 1.261 . S
C562 O579 1.257 . S
C563 C566 1.358 . S
C563 C567 1.332 . S
C563 C569 1.504 . S
C564 C565 1.373 . S
C564 C568 1.308 . S
C565 C564 1.373 . S
C565 C566 1.429 . S
C565 H592 0.932 . S
C566 C563 1.358 . S
C566 C565 1.429 . S
C566 H593 0.930 . S
C567 C563 1.332 . S
C567 C568 1.394 . S
C567 H594 0.932 . S
C568 C564 1.308 . S
C568 C567 1.394 . S
C568 H595 0.929 . S
C569 Tb560 2.764 . S
C569 C563 1.504 . S
C569 O581 1.239 . S
C569 O582 1.263 . S
O570 Tb560 2.325 . S
O570 C580 1.236 . S
O571 Tb561 2.322 . S
O571 C580 1.257 . S
O572 Tb561 2.349 . S
O572 C583 1.261 . S
O573 Tb560 2.303 . S
O573 C583 1.257 . S
O574 Tb561 2.415 . S
O574 C590 1.239 . S
O575 Tb561 2.399 . S
O575 C590 1.263 . S
O576 Tb561 2.325 . S
O576 C591 1.236 . S
O577 Tb560 2.322 . S
O577 C591 1.257 . S
O578 Tb560 2.349 . S
O578 C562 1.261 . S
O579 Tb561 2.303 . S
O579 C562 1.257 . S
C580 O570 1.236 . S
C580 O571 1.257 . S
O581 Tb560 2.415 . S
O581 C569 1.239 . S
O582 Tb560 2.399 . S
O582 C569 1.263 . S
C583 O572 1.261 . S
C583 O573 1.257 . S
C584 C587 1.358 . S
C584 C588 1.332 . S
C584 C590 1.504 . S
C585 C586 1.373 . S
C585 C589 1.308 . S
C586 C585 1.373 . S
C586 C587 1.429 . S
C586 H596 0.932 . S
C587 C584 1.358 . S
C587 C586 1.429 . S
C587 H597 0.930 . S
C588 C584 1.332 . S
C588 C589 1.394 . S
C588 H598 0.932 . S
C589 C585 1.308 . S
C589 C588 1.394 . S
C589 H599 0.929 . S
C590 Tb561 2.764 . S
C590 O574 1.239 . S
C590 O575 1.263 . S
C590 C584 1.504 . S
C591 O576 1.236 . S
C591 O577 1.257 . S
H592 C565 0.932 . S
H593 C566 0.930 . S
H594 C567 0.932 . S
H595 C568 0.929 . S
H596 C586 0.932 . S
H597 C587 0.930 . S
H598 C588 0.932 . S
H599 C589 0.929 . S
Tb600 C609 2.764 . S
Tb600 O610 2.325 . S
Tb600 O613 2.303 . S
Tb600 O617 2.322 . S
Tb600 O618 2.349 . S
Tb600 O621 2.415 1_545 S
Tb600 O622 2.399 . S
Tb601 O611 2.322 . S
Tb601 O612 2.349 . S
Tb601 O614 2.415 . S
Tb601 O615 2.399 . S
Tb601 O616 2.325 . S
Tb601 O619 2.303 . S
Tb601 C630 2.764 . S
C602 O618 1.261 . S
C602 O619 1.257 . S
C603 C606 1.358 . S
C603 C607 1.332 . S
C603 C609 1.504 1_565 S
C604 C605 1.373 . S
C604 C608 1.308 . S
C605 C604 1.373 . S
C605 C606 1.429 . S
C605 H632 0.932 . S
C606 C603 1.358 . S
C606 C605 1.429 . S
C606 H633 0.930 1_565 S
C607 C603 1.332 . S
C607 C608 1.394 . S
C607 H634 0.932 . S
C608 C604 1.308 . S
C608 C607 1.394 . S
C608 H635 0.929 . S
C609 Tb600 2.764 . S
C609 C603 1.504 1_545 S
C609 O621 1.239 1_545 S
C609 O622 1.263 . S
O610 Tb600 2.325 . S
O610 C620 1.236 . S
O611 Tb601 2.322 . S
O611 C620 1.257 . S
O612 Tb601 2.349 . S
O612 C623 1.261 . S
O613 Tb600 2.303 . S
O613 C623 1.257 . S
O614 Tb601 2.415 . S
O614 C630 1.239 . S
O615 Tb601 2.399 . S
O615 C630 1.263 . S
O616 Tb601 2.325 . S
O616 C631 1.236 . S
O617 Tb600 2.322 . S
O617 C631 1.257 . S
O618 Tb600 2.349 . S
O618 C602 1.261 . S
O619 Tb601 2.303 . S
O619 C602 1.257 . S
C620 O610 1.236 . S
C620 O611 1.257 . S
O621 Tb600 2.415 1_565 S
O621 C609 1.239 1_565 S
O622 Tb600 2.399 . S
O622 C609 1.263 . S
C623 O612 1.261 . S
C623 O613 1.257 . S
C624 C627 1.358 . S
C624 C628 1.332 . S
C624 C630 1.504 . S
C625 C626 1.373 . S
C625 C629 1.308 . S
C626 C625 1.373 . S
C626 C627 1.429 . S
C626 H636 0.932 . S
C627 C624 1.358 . S
C627 C626 1.429 . S
C627 H637 0.930 . S
C628 C624 1.332 . S
C628 C629 1.394 . S
C628 H638 0.932 . S
C629 C625 1.308 . S
C629 C628 1.394 . S
C629 H639 0.929 . S
C630 Tb601 2.764 . S
C630 O614 1.239 . S
C630 O615 1.263 . S
C630 C624 1.504 . S
C631 O616 1.236 . S
C631 O617 1.257 . S
H632 C605 0.932 . S
H633 C606 0.930 1_545 S
H634 C607 0.932 . S
H635 C608 0.929 . S
H636 C626 0.932 . S
H637 C627 0.930 . S
H638 C628 0.932 . S
H639 C629 0.929 . S
H640 C646 0.930 . S
H641 C650 0.930 . S
H642 C655 0.929 . S
H643 C653 0.929 . S
H644 C648 0.929 . S
H645 C654 0.929 . S
C646 H640 0.930 . S
C646 C647 1.367 . S
C646 C654 1.378 . S
C647 C646 1.367 . S
C647 C655 1.433 . S
C648 H644 0.929 . S
C648 C650 1.378 . S
C648 C652 1.350 . S
C649 C652 1.463 . S
C649 C654 1.350 . S
C649 N657 1.427 . S
C650 H641 0.930 . S
C650 C648 1.378 . S
C650 C651 1.367 . S
C651 C650 1.367 . S
C651 C653 1.433 . S
C652 C648 1.350 . S
C652 C649 1.463 . S
C652 N656 1.427 . S
C653 H643 0.929 . S
C653 C651 1.433 . S
C653 N656 1.384 . S
C654 H645 0.929 . S
C654 C646 1.378 . S
C654 C649 1.350 . S
C655 H642 0.929 . S
C655 C647 1.433 . S
C655 N657 1.384 . S
N656 C652 1.427 . S
N656 C653 1.384 . S
N657 C649 1.427 . S
N657 C655 1.384 . S
H658 C664 0.930 . S
H659 C668 0.930 . S
H660 C673 0.929 . S
H661 C671 0.929 . S
H662 C666 0.929 . S
H663 C672 0.929 . S
C664 H658 0.930 . S
C664 C665 1.367 . S
C664 C672 1.378 . S
C665 C664 1.367 . S
C665 C673 1.433 . S
C666 H662 0.929 . S
C666 C668 1.378 . S
C666 C670 1.350 . S
C667 C670 1.463 . S
C667 C672 1.350 . S
C667 N675 1.427 . S
C668 H659 0.930 . S
C668 C666 1.378 . S
C668 C669 1.367 . S
C669 C668 1.367 . S
C669 C671 1.433 . S
C670 C666 1.350 . S
C670 C667 1.463 . S
C670 N674 1.427 . S
C671 H661 0.929 . S
C671 C669 1.433 . S
C671 N674 1.384 . S
C672 H663 0.929 . S
C672 C664 1.378 . S
C672 C667 1.350 . S
C673 H660 0.929 . S
C673 C665 1.433 . S
C673 N675 1.384 . S
N674 C670 1.427 . S
N674 C671 1.384 . S
N675 C667 1.427 . S
N675 C673 1.384 . S
H676 C682 0.930 . S
H677 C686 0.930 . S
H678 C691 0.929 . S
H679 C689 0.929 . S
H680 C684 0.929 . S
H681 C690 0.929 . S
C682 H676 0.930 . S
C682 C683 1.367 . S
C682 C690 1.378 . S
C683 C682 1.367 . S
C683 C691 1.433 . S
C684 H680 0.929 . S
C684 C686 1.378 . S
C684 C688 1.350 . S
C685 C688 1.463 1_455 S
C685 C690 1.350 . S
C685 N693 1.427 . S
C686 H677 0.930 . S
C686 C684 1.378 . S
C686 C687 1.367 . S
C687 C686 1.367 . S
C687 C689 1.433 . S
C688 C684 1.350 . S
C688 C685 1.463 1_655 S
C688 N692 1.427 . S
C689 H679 0.929 . S
C689 C687 1.433 . S
C689 N692 1.384 . S
C690 H681 0.929 . S
C690 C682 1.378 . S
C690 C685 1.350 . S
C691 H678 0.929 . S
C691 C683 1.433 . S
C691 N693 1.384 . S
N692 C688 1.427 . S
N692 C689 1.384 . S
N693 C685 1.427 . S
N693 C691 1.384 . S
H694 C700 0.930 . S
H695 C704 0.930 . S
H696 C709 0.929 . S
H697 C707 0.929 . S
H698 C702 0.929 . S
H699 C708 0.929 . S
C700 H694 0.930 . S
C700 C701 1.367 . S
C700 C708 1.378 . S
C701 C700 1.367 . S
C701 C709 1.433 . S
C702 H698 0.929 . S
C702 C704 1.378 . S
C702 C706 1.350 . S
C703 C706 1.463 1_455 S
C703 C708 1.350 . S
C703 N711 1.420 1_455 S
C704 H695 0.930 . S
C704 C702 1.378 . S
C704 C705 1.367 . S
C705 C704 1.367 . S
C705 C707 1.433 . S
C706 C702 1.350 . S
C706 C703 1.463 1_655 S
C706 N710 1.420 1_655 S
C707 H697 0.929 . S
C707 C705 1.433 . S
C707 N710 1.372 1_655 S
C708 H699 0.929 . S
C708 C700 1.378 . S
C708 C703 1.350 . S
C709 H696 0.929 . S
C709 C701 1.433 . S
C709 N711 1.372 1_455 S
N710 C706 1.420 1_455 S
N710 C707 1.372 1_455 S
N711 C703 1.420 1_655 S
N711 C709 1.372 1_655 S
H712 C718 0.930 . S
H713 C722 0.930 . S
H714 C727 0.929 . S
H715 C725 0.929 . S
H716 C720 0.929 . S
H717 C726 0.929 . S
C718 H712 0.930 . S
C718 C719 1.367 . S
C718 C726 1.378 . S
C719 C718 1.367 . S
C719 C727 1.433 . S
C720 H716 0.929 . S
C720 C722 1.378 . S
C720 C724 1.350 . S
C721 C724 1.463 . S
C721 C726 1.350 . S
C721 N729 1.427 . S
C722 H713 0.930 . S
C722 C720 1.378 . S
C722 C723 1.367 . S
C723 C722 1.367 . S
C723 C725 1.433 . S
C724 C720 1.350 . S
C724 C721 1.463 . S
C724 N728 1.427 . S
C725 H715 0.929 . S
C725 C723 1.433 . S
C725 N728 1.384 . S
C726 H717 0.929 . S
C726 C718 1.378 . S
C726 C721 1.350 . S
C727 H714 0.929 . S
C727 C719 1.433 . S
C727 N729 1.384 . S
N728 C724 1.427 . S
N728 C725 1.384 . S
N729 C721 1.427 . S
N729 C727 1.384 . S
H730 C736 0.930 . S
H731 C740 0.930 . S
H732 C745 0.929 . S
H733 C743 0.929 . S
H734 C738 0.929 . S
H735 C744 0.929 . S
C736 H730 0.930 . S
C736 C737 1.367 . S
C736 C744 1.378 . S
C737 C736 1.367 . S
C737 C745 1.433 . S
C738 H734 0.929 . S
C738 C740 1.378 . S
C738 C742 1.350 . S
C739 C742 1.463 . S
C739 C744 1.350 . S
C739 N747 1.427 . S
C740 H731 0.930 . S
C740 C738 1.378 . S
C740 C741 1.367 . S
C741 C740 1.367 . S
C741 C743 1.433 . S
C742 C738 1.350 . S
C742 C739 1.463 . S
C742 N746 1.427 . S
C743 H733 0.929 . S
C743 C741 1.433 . S
C743 N746 1.384 . S
C744 H735 0.929 . S
C744 C736 1.378 . S
C744 C739 1.350 . S
C745 H732 0.929 . S
C745 C737 1.433 . S
C745 N747 1.384 . S
N746 C742 1.427 . S
N746 C743 1.384 . S
N747 C739 1.427 . S
N747 C745 1.384 . S
H748 C754 0.930 . S
H749 C758 0.930 . S
H750 C763 0.929 . S
H751 C761 0.929 . S
H752 C756 0.929 . S
H753 C762 0.929 . S
C754 H748 0.930 . S
C754 C755 1.367 . S
C754 C762 1.378 . S
C755 C754 1.367 . S
C755 C763 1.433 . S
C756 H752 0.929 . S
C756 C758 1.378 . S
C756 C760 1.350 . S
C757 C760 1.463 1_455 S
C757 C762 1.350 . S
C757 N765 1.427 . S
C758 H749 0.930 . S
C758 C756 1.378 . S
C758 C759 1.367 . S
C759 C758 1.367 . S
C759 C761 1.433 . S
C760 C756 1.350 . S
C760 C757 1.463 1_655 S
C760 N764 1.427 . S
C761 H751 0.929 . S
C761 C759 1.433 . S
C761 N764 1.384 . S
C762 H753 0.929 . S
C762 C754 1.378 . S
C762 C757 1.350 . S
C763 H750 0.929 . S
C763 C755 1.433 . S
C763 N765 1.384 . S
N764 C760 1.427 . S
N764 C761 1.384 . S
N765 C757 1.427 . S
N765 C763 1.384 . S
H766 C772 0.930 . S
H767 C776 0.930 . S
H768 C781 0.929 . S
H769 C779 0.929 . S
H770 C774 0.920 1_455 S
H771 C780 0.920 1_655 S
C772 H766 0.930 . S
C772 C773 1.367 . S
C772 C780 1.384 . S
C773 C772 1.367 . S
C773 C781 1.433 . S
C774 H770 0.920 1_655 S
C774 C776 1.384 . S
C774 C778 1.353 . S
C775 C778 1.463 1_455 S
C775 C780 1.353 . S
C775 N783 1.427 . S
C776 H767 0.930 . S
C776 C774 1.384 . S
C776 C777 1.367 . S
C777 C776 1.367 . S
C777 C779 1.433 . S
C778 C774 1.353 . S
C778 C775 1.463 1_655 S
C778 N782 1.427 . S
C779 H769 0.929 . S
C779 C777 1.433 . S
C779 N782 1.384 . S
C780 H771 0.920 1_455 S
C780 C772 1.384 . S
C780 C775 1.353 . S
C781 H768 0.929 . S
C781 C773 1.433 . S
C781 N783 1.384 . S
N782 C778 1.427 . S
N782 C779 1.384 . S
N783 C775 1.427 . S
N783 C781 1.384 . S
H784 C790 0.930 . S
H785 C794 0.930 . S
H786 C799 0.929 . S
H787 C797 0.929 . S
H788 C792 0.929 . S
H789 C798 0.929 . S
C790 H784 0.930 . S
C790 C791 1.367 1_546 S
C790 C798 1.378 . S
C791 C790 1.367 1_564 S
C791 C799 1.433 . S
C792 H788 0.929 . S
C792 C794 1.378 . S
C792 C796 1.350 1_564 S
C793 C796 1.463 1_564 S
C793 C798 1.350 1_564 S
C793 N801 1.427 . S
C794 H785 0.930 . S
C794 C792 1.378 . S
C794 C795 1.367 1_564 S
C795 C794 1.367 1_546 S
C795 C797 1.433 . S
C796 C792 1.350 1_546 S
C796 C793 1.463 1_546 S
C796 N800 1.427 . S
C797 H787 0.929 . S
C797 C795 1.433 . S
C797 N800 1.384 . S
C798 H789 0.929 . S
C798 C790 1.378 . S
C798 C793 1.350 1_546 S
C799 H786 0.929 . S
C799 C791 1.433 . S
C799 N801 1.384 . S
N800 C796 1.427 . S
N800 C797 1.384 . S
N801 C793 1.427 . S
N801 C799 1.384 . S
H802 C808 0.930 . S
H803 C812 0.930 . S
H804 C817 0.929 . S
H805 C815 0.929 . S
H806 C810 0.929 . S
H807 C816 0.929 . S
C808 H802 0.930 . S
C808 C809 1.367 . S
C808 C816 1.378 . S
C809 C808 1.367 . S
C809 C817 1.433 . S
C810 H806 0.929 . S
C810 C812 1.378 . S
C810 C814 1.350 . S
C811 C814 1.463 . S
C811 C816 1.350 . S
C811 N819 1.427 . S
C812 H803 0.930 . S
C812 C810 1.378 . S
C812 C813 1.367 . S
C813 C812 1.367 . S
C813 C815 1.433 . S
C814 C810 1.350 . S
C814 C811 1.463 . S
C814 N818 1.427 . S
C815 H805 0.929 . S
C815 C813 1.433 . S
C815 N818 1.384 . S
C816 H807 0.929 . S
C816 C808 1.378 . S
C816 C811 1.350 . S
C817 H804 0.929 . S
C817 C809 1.433 . S
C817 N819 1.384 . S
N818 C814 1.427 . S
N818 C815 1.384 . S
N819 C811 1.427 . S
N819 C817 1.384 . S
H820 C826 0.930 . S
H821 C830 0.930 . S
H822 C835 0.929 . S
H823 C833 0.929 . S
H824 C828 0.929 . S
H825 C834 0.929 . S
C826 H820 0.930 . S
C826 C827 1.367 1_565 S
C826 C834 1.378 . S
C827 C826 1.367 1_545 S
C827 C835 1.433 . S
C828 H824 0.929 . S
C828 C830 1.378 . S
C828 C832 1.350 1_545 S
C829 C832 1.463 1_445 S
C829 C834 1.350 1_545 S
C829 N837 1.427 . S
C830 H821 0.930 . S
C830 C828 1.378 . S
C830 C831 1.367 1_545 S
C831 C830 1.367 1_565 S
C831 C833 1.433 . S
C832 C828 1.350 1_565 S
C832 C829 1.463 1_665 S
C832 N836 1.427 . S
C833 H823 0.929 . S
C833 C831 1.433 . S
C833 N836 1.384 . S
C834 H825 0.929 . S
C834 C826 1.378 . S
C834 C829 1.350 1_565 S
C835 H822 0.929 . S
C835 C827 1.433 . S
C835 N837 1.384 . S
N836 C832 1.427 . S
N836 C833 1.384 . S
N837 C829 1.427 . S
N837 C835 1.384 . S
H838 C844 0.930 . S
H839 C848 0.930 . S
H840 C853 0.929 . S
H841 C851 0.929 . S
H842 C846 0.929 . S
H843 C852 0.929 . S
C844 H838 0.930 . S
C844 C845 1.367 . S
C844 C852 1.378 . S
C845 C844 1.367 . S
C845 C853 1.433 . S
C846 H842 0.929 . S
C846 C848 1.378 . S
C846 C850 1.350 . S
C847 C850 1.463 . S
C847 C852 1.350 . S
C847 N855 1.427 . S
C848 H839 0.930 . S
C848 C846 1.378 . S
C848 C849 1.367 . S
C849 C848 1.367 . S
C849 C851 1.433 . S
C850 C846 1.350 . S
C850 C847 1.463 . S
C850 N854 1.427 . S
C851 H841 0.929 . S
C851 C849 1.433 . S
C851 N854 1.384 . S
C852 H843 0.929 . S
C852 C844 1.378 . S
C852 C847 1.350 . S
C853 H840 0.929 . S
C853 C845 1.433 . S
C853 N855 1.384 . S
N854 C850 1.427 . S
N854 C851 1.384 . S
N855 C847 1.427 . S
N855 C853 1.384 . S
H856 C862 0.930 . S
H857 C866 0.930 . S
H858 C871 0.929 . S
H859 C869 0.929 . S
H860 C864 0.929 . S
H861 C870 0.929 . S
C862 H856 0.930 . S
C862 C863 1.367 . S
C862 C870 1.378 . S
C863 C862 1.367 . S
C863 C871 1.433 . S
C864 H860 0.929 . S
C864 C866 1.378 . S
C864 C868 1.350 . S
C865 C868 1.463 . S
C865 C870 1.350 . S
C865 N873 1.427 . S
C866 H857 0.930 . S
C866 C864 1.378 . S
C866 C867 1.367 . S
C867 C866 1.367 . S
C867 C869 1.433 . S
C868 C864 1.350 . S
C868 C865 1.463 . S
C868 N872 1.427 . S
C869 H859 0.929 . S
C869 C867 1.433 . S
C869 N872 1.384 . S
C870 H861 0.929 . S
C870 C862 1.378 . S
C870 C865 1.350 . S
C871 H858 0.929 . S
C871 C863 1.433 . S
C871 N873 1.384 . S
N872 C868 1.427 . S
N872 C869 1.384 . S
N873 C865 1.427 . S
N873 C871 1.384 . S
H874 C880 0.930 . S
H875 C884 0.930 . S
H876 C889 0.929 . S
H877 C887 0.929 . S
H878 C882 0.929 . S
H879 C888 0.929 . S
C880 H874 0.930 . S
C880 C881 1.367 . S
C880 C888 1.378 . S
C881 C880 1.367 . S
C881 C889 1.433 . S
C882 H878 0.929 . S
C882 C884 1.378 . S
C882 C886 1.350 . S
C883 C886 1.463 . S
C883 C888 1.350 . S
C883 N891 1.427 . S
C884 H875 0.930 . S
C884 C882 1.378 . S
C884 C885 1.367 . S
C885 C884 1.367 . S
C885 C887 1.433 . S
C886 C882 1.350 . S
C886 C883 1.463 . S
C886 N890 1.427 . S
C887 H877 0.929 . S
C887 C885 1.433 . S
C887 N890 1.384 . S
C888 H879 0.929 . S
C888 C880 1.378 . S
C888 C883 1.350 . S
C889 H876 0.929 . S
C889 C881 1.433 . S
C889 N891 1.384 . S
N890 C886 1.427 . S
N890 C887 1.384 . S
N891 C883 1.427 . S
N891 C889 1.384 . S
H892 C898 0.930 . S
H893 C902 0.930 . S
H894 C907 0.929 . S
H895 C905 0.929 . S
H896 C900 0.929 . S
H897 C906 0.929 . S
C898 H892 0.930 . S
C898 C899 1.367 . S
C898 C906 1.378 . S
C899 C898 1.367 . S
C899 C907 1.433 . S
C900 H896 0.929 . S
C900 C902 1.378 . S
C900 C904 1.350 . S
C901 C904 1.463 1_455 S
C901 C906 1.350 . S
C901 N909 1.427 . S
C902 H893 0.930 . S
C902 C900 1.378 . S
C902 C903 1.367 . S
C903 C902 1.367 . S
C903 C905 1.433 . S
C904 C900 1.350 . S
C904 C901 1.463 1_655 S
C904 N908 1.427 . S
C905 H895 0.929 . S
C905 C903 1.433 . S
C905 N908 1.384 . S
C906 H897 0.929 . S
C906 C898 1.378 . S
C906 C901 1.350 . S
C907 H894 0.929 . S
C907 C899 1.433 . S
C907 N909 1.384 . S
N908 C904 1.427 . S
N908 C905 1.384 . S
N909 C901 1.427 . S
N909 C907 1.384 . S
H910 C916 0.930 . S
H911 C920 0.930 . S
H912 C925 0.929 . S
H913 C923 0.929 . S
H914 C918 0.929 . S
H915 C924 0.929 . S
C916 H910 0.930 . S
C916 C917 1.367 . S
C916 C924 1.378 . S
C917 C916 1.367 . S
C917 C925 1.433 . S
C918 H914 0.929 . S
C918 C920 1.378 . S
C918 C922 1.350 . S
C919 C922 1.463 1_554 S
C919 C924 1.350 . S
C919 N927 1.427 . S
C920 H911 0.930 . S
C920 C918 1.378 . S
C920 C921 1.367 . S
C921 C920 1.367 . S
C921 C923 1.433 . S
C922 C918 1.350 . S
C922 C919 1.463 1_556 S
C922 N926 1.427 . S
C923 H913 0.929 . S
C923 C921 1.433 . S
C923 N926 1.384 . S
C924 H915 0.929 . S
C924 C916 1.378 . S
C924 C919 1.350 . S
C925 H912 0.929 . S
C925 C917 1.433 . S
C925 N927 1.384 . S
N926 C922 1.427 . S
N926 C923 1.384 . S
N927 C919 1.427 . S
N927 C925 1.384 . S
H928 C934 0.930 . S
H929 C938 0.930 . S
H930 C943 0.929 . S
H931 C941 0.929 . S
H932 C936 0.929 . S
H933 C942 0.929 . S
C934 H928 0.930 . S
C934 C935 1.367 . S
C934 C942 1.378 . S
C935 C934 1.367 . S
C935 C943 1.433 . S
C936 H932 0.929 . S
C936 C938 1.378 . S
C936 C940 1.350 . S
C937 C940 1.463 . S
C937 C942 1.350 . S
C937 N945 1.427 . S
C938 H929 0.930 . S
C938 C936 1.378 . S
C938 C939 1.367 . S
C939 C938 1.367 . S
C939 C941 1.433 . S
C940 C936 1.350 . S
C940 C937 1.463 . S
C940 N944 1.427 . S
C941 H931 0.929 . S
C941 C939 1.433 . S
C941 N944 1.384 . S
C942 H933 0.929 . S
C942 C934 1.378 . S
C942 C937 1.350 . S
C943 H930 0.929 . S
C943 C935 1.433 . S
C943 N945 1.384 . S
N944 C940 1.427 . S
N944 C941 1.384 . S
N945 C937 1.427 . S
N945 C943 1.384 . S
H946 C952 0.930 . S
H947 C956 0.930 . S
H948 C961 0.929 . S
H949 C959 0.929 . S
H950 C954 0.929 . S
H951 C960 0.929 . S
C952 H946 0.930 . S
C952 C953 1.367 . S
C952 C960 1.378 . S
C953 C952 1.367 . S
C953 C961 1.433 . S
C954 H950 0.929 . S
C954 C956 1.378 . S
C954 C958 1.350 . S
C955 C958 1.463 . S
C955 C960 1.350 . S
C955 N963 1.427 . S
C956 H947 0.930 . S
C956 C954 1.378 . S
C956 C957 1.367 . S
C957 C956 1.367 . S
C957 C959 1.433 . S
C958 C954 1.350 . S
C958 C955 1.463 . S
C958 N962 1.427 . S
C959 H949 0.929 . S
C959 C957 1.433 . S
C959 N962 1.384 . S
C960 H951 0.929 . S
C960 C952 1.378 . S
C960 C955 1.350 . S
C961 H948 0.929 . S
C961 C953 1.433 . S
C961 N963 1.384 . S
N962 C958 1.427 . S
N962 C959 1.384 . S
N963 C955 1.427 . S
N963 C961 1.384 . S
H964 C970 0.930 . S
H965 C974 0.930 . S
H966 C979 0.929 . S
H967 C977 0.929 . S
H968 C972 0.929 . S
H969 C978 0.929 . S
C970 H964 0.930 . S
C970 C971 1.367 . S
C970 C978 1.378 . S
C971 C970 1.367 . S
C971 C979 1.433 . S
C972 H968 0.929 . S
C972 C974 1.378 . S
C972 C976 1.350 . S
C973 C976 1.463 . S
C973 C978 1.350 . S
C973 N981 1.427 . S
C974 H965 0.930 . S
C974 C972 1.378 . S
C974 C975 1.367 . S
C975 C974 1.367 . S
C975 C977 1.433 . S
C976 C972 1.350 . S
C976 C973 1.463 . S
C976 N980 1.427 . S
C977 H967 0.929 . S
C977 C975 1.433 . S
C977 N980 1.384 . S
C978 H969 0.929 . S
C978 C970 1.378 . S
C978 C973 1.350 . S
C979 H966 0.929 . S
C979 C971 1.433 . S
C979 N981 1.384 . S
N980 C976 1.427 . S
N980 C977 1.384 . S
N981 C973 1.427 . S
N981 C979 1.384 . S
H982 C988 0.930 . S
H983 C992 0.930 . S
H984 C997 0.929 . S
H985 C995 0.929 . S
H986 C990 0.929 . S
H987 C996 0.929 . S
C988 H982 0.930 . S
C988 C989 1.367 . S
C988 C996 1.378 . S
C989 C988 1.367 . S
C989 C997 1.433 . S
C990 H986 0.929 . S
C990 C992 1.378 . S
C990 C994 1.350 . S
C991 C994 1.463 . S
C991 C996 1.350 . S
C991 N999 1.427 . S
C992 H983 0.930 . S
C992 C990 1.378 . S
C992 C993 1.367 . S
C993 C992 1.367 . S
C993 C995 1.433 . S
C994 C990 1.350 . S
C994 C991 1.463 . S
C994 N998 1.427 . S
C995 H985 0.929 . S
C995 C993 1.433 . S
C995 N998 1.384 . S
C996 H987 0.929 . S
C996 C988 1.378 . S
C996 C991 1.350 . S
C997 H984 0.929 . S
C997 C989 1.433 . S
C997 N999 1.384 . S
N998 C994 1.427 . S
N998 C995 1.384 . S
N999 C991 1.427 . S
N999 C997 1.384 . S
H1000 C1006 0.930 . S
H1001 C1010 0.930 . S
H1002 C1015 0.929 . S
H1003 C1013 0.929 . S
H1004 C1008 0.929 . S
H1005 C1014 0.929 . S
C1006 H1000 0.930 . S
C1006 C1007 1.367 . S
C1006 C1014 1.378 . S
C1007 C1006 1.367 . S
C1007 C1015 1.433 . S
C1008 H1004 0.929 . S
C1008 C1010 1.378 . S
C1008 C1012 1.350 . S
C1009 C1012 1.463 . S
C1009 C1014 1.350 . S
C1009 N1017 1.427 . S
C1010 H1001 0.930 . S
C1010 C1008 1.378 . S
C1010 C1011 1.367 . S
C1011 C1010 1.367 . S
C1011 C1013 1.433 . S
C1012 C1008 1.350 . S
C1012 C1009 1.463 . S
C1012 N1016 1.427 . S
C1013 H1003 0.929 . S
C1013 C1011 1.433 . S
C1013 N1016 1.384 . S
C1014 H1005 0.929 . S
C1014 C1006 1.378 . S
C1014 C1009 1.350 . S
C1015 H1002 0.929 . S
C1015 C1007 1.433 . S
C1015 N1017 1.384 . S
N1016 C1012 1.427 . S
N1016 C1013 1.384 . S
N1017 C1009 1.427 . S
N1017 C1015 1.384 . S
H1018 C1024 0.930 . S
H1019 C1028 0.930 . S
H1020 C1033 0.929 . S
H1021 C1031 0.929 . S
H1022 C1026 0.929 . S
H1023 C1032 0.929 . S
C1024 H1018 0.930 . S
C1024 C1025 1.367 . S
C1024 C1032 1.378 . S
C1025 C1024 1.367 . S
C1025 C1033 1.433 . S
C1026 H1022 0.929 . S
C1026 C1028 1.378 . S
C1026 C1030 1.350 . S
C1027 C1030 1.463 . S
C1027 C1032 1.350 . S
C1027 N1035 1.427 . S
C1028 H1019 0.930 . S
C1028 C1026 1.378 . S
C1028 C1029 1.367 . S
C1029 C1028 1.367 . S
C1029 C1031 1.433 . S
C1030 C1026 1.350 . S
C1030 C1027 1.463 . S
C1030 N1034 1.427 . S
C1031 H1021 0.929 . S
C1031 C1029 1.433 . S
C1031 N1034 1.384 . S
C1032 H1023 0.929 . S
C1032 C1024 1.378 . S
C1032 C1027 1.350 . S
C1033 H1020 0.929 . S
C1033 C1025 1.433 . S
C1033 N1035 1.384 . S
N1034 C1030 1.427 . S
N1034 C1031 1.384 . S
N1035 C1027 1.427 . S
N1035 C1033 1.384 . S
H1036 C1042 0.930 . S
H1037 C1046 0.930 . S
H1038 C1051 0.929 . S
H1039 C1049 0.929 . S
H1040 C1044 0.929 . S
H1041 C1050 0.929 . S
C1042 H1036 0.930 . S
C1042 C1043 1.367 . S
C1042 C1050 1.378 . S
C1043 C1042 1.367 . S
C1043 C1051 1.433 . S
C1044 H1040 0.929 . S
C1044 C1046 1.378 . S
C1044 C1048 1.350 . S
C1045 C1048 1.463 . S
C1045 C1050 1.350 . S
C1045 N1053 1.427 . S
C1046 H1037 0.930 . S
C1046 C1044 1.378 . S
C1046 C1047 1.367 . S
C1047 C1046 1.367 . S
C1047 C1049 1.433 . S
C1048 C1044 1.350 . S
C1048 C1045 1.463 . S
C1048 N1052 1.427 . S
C1049 H1039 0.929 . S
C1049 C1047 1.433 . S
C1049 N1052 1.384 . S
C1050 H1041 0.929 . S
C1050 C1042 1.378 . S
C1050 C1045 1.350 . S
C1051 H1038 0.929 . S
C1051 C1043 1.433 . S
C1051 N1053 1.384 . S
N1052 C1048 1.427 . S
N1052 C1049 1.384 . S
N1053 C1045 1.427 . S
N1053 C1051 1.384 . S
H1054 C1060 0.930 . S
H1055 C1064 0.930 . S
H1056 C1069 0.929 . S
H1057 C1067 0.929 . S
H1058 C1062 0.929 . S
H1059 C1068 0.929 . S
C1060 H1054 0.930 . S
C1060 C1061 1.367 . S
C1060 C1068 1.378 . S
C1061 C1060 1.367 . S
C1061 C1069 1.433 . S
C1062 H1058 0.929 . S
C1062 C1064 1.378 . S
C1062 C1066 1.350 . S
C1063 C1066 1.463 . S
C1063 C1068 1.350 . S
C1063 N1071 1.427 . S
C1064 H1055 0.930 . S
C1064 C1062 1.378 . S
C1064 C1065 1.367 . S
C1065 C1064 1.367 . S
C1065 C1067 1.433 . S
C1066 C1062 1.350 . S
C1066 C1063 1.463 . S
C1066 N1070 1.427 . S
C1067 H1057 0.929 . S
C1067 C1065 1.433 . S
C1067 N1070 1.384 . S
C1068 H1059 0.929 . S
C1068 C1060 1.378 . S
C1068 C1063 1.350 . S
C1069 H1056 0.929 . S
C1069 C1061 1.433 . S
C1069 N1071 1.384 . S
N1070 C1066 1.427 . S
N1070 C1067 1.384 . S
N1071 C1063 1.427 . S
N1071 C1069 1.384 . S
H1072 C1078 0.930 . S
H1073 C1082 0.930 . S
H1074 C1087 0.929 . S
H1075 C1085 0.929 . S
H1076 C1080 0.929 . S
H1077 C1086 0.929 . S
C1078 H1072 0.930 . S
C1078 C1079 1.367 . S
C1078 C1086 1.378 . S
C1079 C1078 1.367 . S
C1079 C1087 1.433 . S
C1080 H1076 0.929 . S
C1080 C1082 1.378 . S
C1080 C1084 1.350 . S
C1081 C1084 1.463 . S
C1081 C1086 1.350 . S
C1081 N1089 1.427 . S
C1082 H1073 0.930 . S
C1082 C1080 1.378 . S
C1082 C1083 1.367 . S
C1083 C1082 1.367 . S
C1083 C1085 1.433 . S
C1084 C1080 1.350 . S
C1084 C1081 1.463 . S
C1084 N1088 1.427 . S
C1085 H1075 0.929 . S
C1085 C1083 1.433 . S
C1085 N1088 1.384 . S
C1086 H1077 0.929 . S
C1086 C1078 1.378 . S
C1086 C1081 1.350 . S
C1087 H1074 0.929 . S
C1087 C1079 1.433 . S
C1087 N1089 1.384 . S
N1088 C1084 1.427 . S
N1088 C1085 1.384 . S
N1089 C1081 1.427 . S
N1089 C1087 1.384 . S
H1090 C1096 0.930 . S
H1091 C1100 0.930 . S
H1092 C1105 0.929 . S
H1093 C1103 0.929 . S
H1094 C1098 0.929 . S
H1095 C1104 0.929 . S
C1096 H1090 0.930 . S
C1096 C1097 1.367 . S
C1096 C1104 1.378 . S
C1097 C1096 1.367 . S
C1097 C1105 1.433 . S
C1098 H1094 0.929 . S
C1098 C1100 1.378 . S
C1098 C1102 1.350 . S
C1099 C1102 1.463 . S
C1099 C1104 1.350 . S
C1099 N1107 1.427 . S
C1100 H1091 0.930 . S
C1100 C1098 1.378 . S
C1100 C1101 1.367 . S
C1101 C1100 1.367 . S
C1101 C1103 1.433 . S
C1102 C1098 1.350 . S
C1102 C1099 1.463 . S
C1102 N1106 1.427 . S
C1103 H1093 0.929 . S
C1103 C1101 1.433 . S
C1103 N1106 1.384 . S
C1104 H1095 0.929 . S
C1104 C1096 1.378 . S
C1104 C1099 1.350 . S
C1105 H1092 0.929 . S
C1105 C1097 1.433 . S
C1105 N1107 1.384 . S
N1106 C1102 1.427 . S
N1106 C1103 1.384 . S
N1107 C1099 1.427 . S
N1107 C1105 1.384 . S
H1108 C1114 0.930 . S
H1109 C1118 0.930 . S
H1110 C1123 0.929 . S
H1111 C1121 0.929 . S
H1112 C1116 0.929 . S
H1113 C1122 0.929 . S
C1114 H1108 0.930 . S
C1114 C1115 1.367 . S
C1114 C1122 1.378 . S
C1115 C1114 1.367 . S
C1115 C1123 1.433 . S
C1116 H1112 0.929 . S
C1116 C1118 1.378 . S
C1116 C1120 1.350 . S
C1117 C1120 1.463 . S
C1117 C1122 1.350 . S
C1117 N1125 1.427 . S
C1118 H1109 0.930 . S
C1118 C1116 1.378 . S
C1118 C1119 1.367 . S
C1119 C1118 1.367 . S
C1119 C1121 1.433 . S
C1120 C1116 1.350 . S
C1120 C1117 1.463 . S
C1120 N1124 1.427 . S
C1121 H1111 0.929 . S
C1121 C1119 1.433 . S
C1121 N1124 1.384 . S
C1122 H1113 0.929 . S
C1122 C1114 1.378 . S
C1122 C1117 1.350 . S
C1123 H1110 0.929 . S
C1123 C1115 1.433 . S
C1123 N1125 1.384 . S
N1124 C1120 1.427 . S
N1124 C1121 1.384 . S
N1125 C1117 1.427 . S
N1125 C1123 1.384 . S
H1126 C1132 0.930 . S
H1127 C1136 0.930 . S
H1128 C1141 0.929 . S
H1129 C1139 0.929 . S
H1130 C1134 0.929 . S
H1131 C1140 0.929 . S
C1132 H1126 0.930 . S
C1132 C1133 1.367 . S
C1132 C1140 1.378 . S
C1133 C1132 1.367 . S
C1133 C1141 1.433 . S
C1134 H1130 0.929 . S
C1134 C1136 1.378 . S
C1134 C1138 1.350 . S
C1135 C1138 1.463 . S
C1135 C1140 1.350 . S
C1135 N1143 1.427 . S
C1136 H1127 0.930 . S
C1136 C1134 1.378 . S
C1136 C1137 1.367 . S
C1137 C1136 1.367 . S
C1137 C1139 1.433 . S
C1138 C1134 1.350 . S
C1138 C1135 1.463 . S
C1138 N1142 1.427 . S
C1139 H1129 0.929 . S
C1139 C1137 1.433 . S
C1139 N1142 1.384 . S
C1140 H1131 0.929 . S
C1140 C1132 1.378 . S
C1140 C1135 1.350 . S
C1141 H1128 0.929 . S
C1141 C1133 1.433 . S
C1141 N1143 1.384 . S
N1142 C1138 1.427 . S
N1142 C1139 1.384 . S
N1143 C1135 1.427 . S
N1143 C1141 1.384 . S
H1144 C1150 0.930 . S
H1145 C1154 0.930 . S
H1146 C1159 0.929 . S
H1147 C1157 0.929 . S
H1148 C1152 0.929 . S
H1149 C1158 0.929 . S
C1150 H1144 0.930 . S
C1150 C1151 1.367 . S
C1150 C1158 1.378 . S
C1151 C1150 1.367 . S
C1151 C1159 1.433 . S
C1152 H1148 0.929 . S
C1152 C1154 1.378 . S
C1152 C1156 1.350 . S
C1153 C1156 1.463 . S
C1153 C1158 1.350 . S
C1153 N1161 1.427 . S
C1154 H1145 0.930 . S
C1154 C1152 1.378 . S
C1154 C1155 1.367 . S
C1155 C1154 1.367 . S
C1155 C1157 1.433 . S
C1156 C1152 1.350 . S
C1156 C1153 1.463 . S
C1156 N1160 1.427 . S
C1157 H1147 0.929 . S
C1157 C1155 1.433 . S
C1157 N1160 1.384 . S
C1158 H1149 0.929 . S
C1158 C1150 1.378 . S
C1158 C1153 1.350 . S
C1159 H1146 0.929 . S
C1159 C1151 1.433 . S
C1159 N1161 1.384 . S
N1160 C1156 1.427 . S
N1160 C1157 1.384 . S
N1161 C1153 1.427 . S
N1161 C1159 1.384 . S
H1162 C1168 0.930 . S
H1163 C1172 0.930 . S
H1164 C1177 0.929 . S
H1165 C1175 0.929 . S
H1166 C1170 0.929 . S
H1167 C1176 0.929 . S
C1168 H1162 0.930 . S
C1168 C1169 1.367 . S
C1168 C1176 1.378 . S
C1169 C1168 1.367 . S
C1169 C1177 1.433 . S
C1170 H1166 0.929 . S
C1170 C1172 1.378 . S
C1170 C1174 1.350 . S
C1171 C1174 1.463 . S
C1171 C1176 1.350 . S
C1171 N1179 1.427 . S
C1172 H1163 0.930 . S
C1172 C1170 1.378 . S
C1172 C1173 1.367 . S
C1173 C1172 1.367 . S
C1173 C1175 1.433 . S
C1174 C1170 1.350 . S
C1174 C1171 1.463 . S
C1174 N1178 1.427 . S
C1175 H1165 0.929 . S
C1175 C1173 1.433 . S
C1175 N1178 1.384 . S
C1176 H1167 0.929 . S
C1176 C1168 1.378 . S
C1176 C1171 1.350 . S
C1177 H1164 0.929 . S
C1177 C1169 1.433 . S
C1177 N1179 1.384 . S
N1178 C1174 1.427 . S
N1178 C1175 1.384 . S
N1179 C1171 1.427 . S
N1179 C1177 1.384 . S
H1180 C1186 0.930 . S
H1181 C1190 0.930 . S
H1182 C1195 0.929 . S
H1183 C1193 0.929 . S
H1184 C1188 0.929 . S
H1185 C1194 0.929 . S
C1186 H1180 0.930 . S
C1186 C1187 1.367 . S
C1186 C1194 1.378 . S
C1187 C1186 1.367 . S
C1187 C1195 1.433 . S
C1188 H1184 0.929 . S
C1188 C1190 1.378 . S
C1188 C1192 1.350 . S
C1189 C1192 1.463 . S
C1189 C1194 1.350 . S
C1189 N1197 1.427 . S
C1190 H1181 0.930 . S
C1190 C1188 1.378 . S
C1190 C1191 1.367 . S
C1191 C1190 1.367 . S
C1191 C1193 1.433 . S
C1192 C1188 1.350 . S
C1192 C1189 1.463 . S
C1192 N1196 1.427 . S
C1193 H1183 0.929 . S
C1193 C1191 1.433 . S
C1193 N1196 1.384 . S
C1194 H1185 0.929 . S
C1194 C1186 1.378 . S
C1194 C1189 1.350 . S
C1195 H1182 0.929 . S
C1195 C1187 1.433 . S
C1195 N1197 1.384 . S
N1196 C1192 1.427 . S
N1196 C1193 1.384 . S
N1197 C1189 1.427 . S
N1197 C1195 1.384 . S
H1198 C1204 0.930 . S
H1199 C1208 0.930 . S
H1200 C1213 0.929 . S
H1201 C1211 0.929 . S
H1202 C1206 0.929 . S
H1203 C1212 0.929 . S
C1204 H1198 0.930 . S
C1204 C1205 1.367 . S
C1204 C1212 1.378 . S
C1205 C1204 1.367 . S
C1205 C1213 1.433 . S
C1206 H1202 0.929 . S
C1206 C1208 1.378 . S
C1206 C1210 1.350 . S
C1207 C1210 1.463 . S
C1207 C1212 1.350 . S
C1207 N1215 1.427 . S
C1208 H1199 0.930 . S
C1208 C1206 1.378 . S
C1208 C1209 1.367 . S
C1209 C1208 1.367 . S
C1209 C1211 1.433 . S
C1210 C1206 1.350 . S
C1210 C1207 1.463 . S
C1210 N1214 1.427 . S
C1211 H1201 0.929 . S
C1211 C1209 1.433 . S
C1211 N1214 1.384 . S
C1212 H1203 0.929 . S
C1212 C1204 1.378 . S
C1212 C1207 1.350 . S
C1213 H1200 0.929 . S
C1213 C1205 1.433 . S
C1213 N1215 1.384 . S
N1214 C1210 1.427 . S
N1214 C1211 1.384 . S
N1215 C1207 1.427 . S
N1215 C1213 1.384 . S
H1216 C1222 0.930 . S
H1217 C1226 0.930 . S
H1218 C1231 0.929 . S
H1219 C1229 0.929 . S
H1220 C1224 0.929 . S
H1221 C1230 0.929 . S
C1222 H1216 0.930 . S
C1222 C1223 1.367 . S
C1222 C1230 1.378 1_554 S
C1223 C1222 1.367 . S
C1223 C1231 1.433 1_554 S
C1224 H1220 0.929 . S
C1224 C1226 1.378 . S
C1224 C1228 1.350 . S
C1225 C1228 1.463 . S
C1225 C1230 1.350 . S
C1225 N1233 1.427 . S
C1226 H1217 0.930 . S
C1226 C1224 1.378 . S
C1226 C1227 1.367 . S
C1227 C1226 1.367 . S
C1227 C1229 1.433 . S
C1228 C1224 1.350 . S
C1228 C1225 1.463 . S
C1228 N1232 1.427 . S
C1229 H1219 0.929 . S
C1229 C1227 1.433 . S
C1229 N1232 1.384 . S
C1230 H1221 0.929 . S
C1230 C1222 1.378 1_556 S
C1230 C1225 1.350 . S
C1231 H1218 0.929 . S
C1231 C1223 1.433 1_556 S
C1231 N1233 1.384 . S
N1232 C1228 1.427 . S
N1232 C1229 1.384 . S
N1233 C1225 1.427 . S
N1233 C1231 1.384 . S
H1234 C1240 0.930 . S
H1235 C1244 0.930 . S
H1236 C1249 0.929 . S
H1237 C1247 0.929 . S
H1238 C1242 0.929 . S
H1239 C1248 0.929 . S
C1240 H1234 0.930 . S
C1240 C1241 1.367 . S
C1240 C1248 1.378 . S
C1241 C1240 1.367 . S
C1241 C1249 1.433 . S
C1242 H1238 0.929 . S
C1242 C1244 1.378 . S
C1242 C1246 1.350 . S
C1243 C1246 1.463 . S
C1243 C1248 1.350 . S
C1243 N1251 1.427 . S
C1244 H1235 0.930 . S
C1244 C1242 1.378 . S
C1244 C1245 1.367 . S
C1245 C1244 1.367 . S
C1245 C1247 1.433 . S
C1246 C1242 1.350 . S
C1246 C1243 1.463 . S
C1246 N1250 1.427 . S
C1247 H1237 0.929 . S
C1247 C1245 1.433 . S
C1247 N1250 1.384 . S
C1248 H1239 0.929 . S
C1248 C1240 1.378 . S
C1248 C1243 1.350 . S
C1249 H1236 0.929 . S
C1249 C1241 1.433 . S
C1249 N1251 1.384 . S
N1250 C1246 1.427 . S
N1250 C1247 1.384 . S
N1251 C1243 1.427 . S
N1251 C1249 1.384 . S
H1252 C1258 0.930 . S
H1253 C1262 0.930 . S
H1254 C1267 0.929 . S
H1255 C1265 0.929 . S
H1256 C1260 0.929 . S
H1257 C1266 0.929 . S
C1258 H1252 0.930 . S
C1258 C1259 1.367 . S
C1258 C1266 1.378 . S
C1259 C1258 1.367 . S
C1259 C1267 1.433 . S
C1260 H1256 0.929 . S
C1260 C1262 1.378 . S
C1260 C1264 1.350 . S
C1261 C1264 1.463 . S
C1261 C1266 1.350 . S
C1261 N1269 1.427 . S
C1262 H1253 0.930 . S
C1262 C1260 1.378 . S
C1262 C1263 1.367 . S
C1263 C1262 1.367 . S
C1263 C1265 1.433 . S
C1264 C1260 1.350 . S
C1264 C1261 1.463 . S
C1264 N1268 1.427 . S
C1265 H1255 0.929 . S
C1265 C1263 1.433 . S
C1265 N1268 1.384 . S
C1266 H1257 0.929 . S
C1266 C1258 1.378 . S
C1266 C1261 1.350 . S
C1267 H1254 0.929 . S
C1267 C1259 1.433 . S
C1267 N1269 1.384 . S
N1268 C1264 1.427 . S
N1268 C1265 1.384 . S
N1269 C1261 1.427 . S
N1269 C1267 1.384 . S
H1270 C1276 0.930 . S
H1271 C1280 0.930 . S
H1272 C1285 0.929 . S
H1273 C1283 0.929 . S
H1274 C1278 0.929 . S
H1275 C1284 0.929 . S
C1276 H1270 0.930 . S
C1276 C1277 1.367 . S
C1276 C1284 1.378 . S
C1277 C1276 1.367 . S
C1277 C1285 1.433 . S
C1278 H1274 0.929 . S
C1278 C1280 1.378 . S
C1278 C1282 1.350 . S
C1279 C1282 1.463 . S
C1279 C1284 1.350 . S
C1279 N1287 1.427 . S
C1280 H1271 0.930 . S
C1280 C1278 1.378 . S
C1280 C1281 1.367 . S
C1281 C1280 1.367 . S
C1281 C1283 1.433 . S
C1282 C1278 1.350 . S
C1282 C1279 1.463 . S
C1282 N1286 1.427 . S
C1283 H1273 0.929 . S
C1283 C1281 1.433 . S
C1283 N1286 1.384 . S
C1284 H1275 0.929 . S
C1284 C1276 1.378 . S
C1284 C1279 1.350 . S
C1285 H1272 0.929 . S
C1285 C1277 1.433 . S
C1285 N1287 1.384 . S
N1286 C1282 1.427 . S
N1286 C1283 1.384 . S
N1287 C1279 1.427 . S
N1287 C1285 1.384 . S
H1288 C1294 0.930 . S
H1289 C1298 0.930 . S
H1290 C1303 0.929 . S
H1291 C1301 0.929 . S
H1292 C1296 0.929 . S
H1293 C1302 0.929 . S
C1294 H1288 0.930 . S
C1294 C1295 1.367 . S
C1294 C1302 1.378 . S
C1295 C1294 1.367 . S
C1295 C1303 1.433 . S
C1296 H1292 0.929 . S
C1296 C1298 1.378 1_554 S
C1296 C1300 1.350 . S
C1297 C1300 1.463 . S
C1297 C1302 1.350 . S
C1297 N1305 1.427 . S
C1298 H1289 0.930 . S
C1298 C1296 1.378 1_556 S
C1298 C1299 1.367 . S
C1299 C1298 1.367 . S
C1299 C1301 1.433 1_556 S
C1300 C1296 1.350 . S
C1300 C1297 1.463 . S
C1300 N1304 1.427 . S
C1301 H1291 0.929 . S
C1301 C1299 1.433 1_554 S
C1301 N1304 1.384 . S
C1302 H1293 0.929 . S
C1302 C1294 1.378 . S
C1302 C1297 1.350 . S
C1303 H1290 0.929 . S
C1303 C1295 1.433 . S
C1303 N1305 1.384 . S
N1304 C1300 1.427 . S
N1304 C1301 1.384 . S
N1305 C1297 1.427 . S
N1305 C1303 1.384 . S
H1306 C1312 0.930 . S
H1307 C1316 0.930 . S
H1308 C1321 0.929 . S
H1309 C1319 0.929 . S
H1310 C1314 0.929 . S
H1311 C1320 0.929 . S
C1312 H1306 0.930 . S
C1312 C1313 1.367 . S
C1312 C1320 1.378 . S
C1313 C1312 1.367 . S
C1313 C1321 1.433 . S
C1314 H1310 0.929 . S
C1314 C1316 1.378 . S
C1314 C1318 1.350 . S
C1315 C1318 1.463 . S
C1315 C1320 1.350 . S
C1315 N1323 1.427 . S
C1316 H1307 0.930 . S
C1316 C1314 1.378 . S
C1316 C1317 1.367 . S
C1317 C1316 1.367 . S
C1317 C1319 1.433 . S
C1318 C1314 1.350 . S
C1318 C1315 1.463 . S
C1318 N1322 1.427 . S
C1319 H1309 0.929 . S
C1319 C1317 1.433 . S
C1319 N1322 1.384 . S
C1320 H1311 0.929 . S
C1320 C1312 1.378 . S
C1320 C1315 1.350 . S
C1321 H1308 0.929 . S
C1321 C1313 1.433 . S
C1321 N1323 1.384 . S
N1322 C1318 1.427 . S
N1322 C1319 1.384 . S
N1323 C1315 1.427 . S
N1323 C1321 1.384 . S
H1324 C1330 0.930 . S
H1325 C1334 0.930 . S
H1326 C1339 0.929 . S
H1327 C1337 0.929 . S
H1328 C1332 0.929 . S
H1329 C1338 0.929 . S
C1330 H1324 0.930 . S
C1330 C1331 1.367 . S
C1330 C1338 1.378 . S
C1331 C1330 1.367 . S
C1331 C1339 1.433 . S
C1332 H1328 0.929 . S
C1332 C1334 1.378 . S
C1332 C1336 1.350 . S
C1333 C1336 1.463 . S
C1333 C1338 1.350 . S
C1333 N1341 1.427 . S
C1334 H1325 0.930 . S
C1334 C1332 1.378 . S
C1334 C1335 1.367 . S
C1335 C1334 1.367 . S
C1335 C1337 1.433 . S
C1336 C1332 1.350 . S
C1336 C1333 1.463 . S
C1336 N1340 1.427 . S
C1337 H1327 0.929 . S
C1337 C1335 1.433 . S
C1337 N1340 1.384 . S
C1338 H1329 0.929 . S
C1338 C1330 1.378 . S
C1338 C1333 1.350 . S
C1339 H1326 0.929 . S
C1339 C1331 1.433 . S
C1339 N1341 1.384 . S
N1340 C1336 1.427 . S
N1340 C1337 1.384 . S
N1341 C1333 1.427 . S
N1341 C1339 1.384 . S
H1342 C1348 0.930 . S
H1343 C1352 0.930 . S
H1344 C1357 0.929 . S
H1345 C1355 0.929 . S
H1346 C1350 0.929 . S
H1347 C1356 0.929 . S
C1348 H1342 0.930 . S
C1348 C1349 1.367 . S
C1348 C1356 1.378 . S
C1349 C1348 1.367 . S
C1349 C1357 1.433 . S
C1350 H1346 0.929 . S
C1350 C1352 1.378 . S
C1350 C1354 1.350 . S
C1351 C1354 1.463 . S
C1351 C1356 1.350 . S
C1351 N1359 1.427 . S
C1352 H1343 0.930 . S
C1352 C1350 1.378 . S
C1352 C1353 1.367 . S
C1353 C1352 1.367 . S
C1353 C1355 1.433 . S
C1354 C1350 1.350 . S
C1354 C1351 1.463 . S
C1354 N1358 1.427 . S
C1355 H1345 0.929 . S
C1355 C1353 1.433 . S
C1355 N1358 1.384 . S
C1356 H1347 0.929 . S
C1356 C1348 1.378 . S
C1356 C1351 1.350 . S
C1357 H1344 0.929 . S
C1357 C1349 1.433 . S
C1357 N1359 1.384 . S
N1358 C1354 1.427 . S
N1358 C1355 1.384 . S
N1359 C1351 1.427 . S
N1359 C1357 1.384 . S
H1360 C1366 0.930 . S
H1361 C1370 0.930 . S
H1362 C1375 0.929 . S
H1363 C1373 0.929 . S
H1364 C1368 0.929 . S
H1365 C1374 0.929 . S
C1366 H1360 0.930 . S
C1366 C1367 1.367 . S
C1366 C1374 1.378 . S
C1367 C1366 1.367 . S
C1367 C1375 1.433 . S
C1368 H1364 0.929 . S
C1368 C1370 1.378 . S
C1368 C1372 1.350 . S
C1369 C1372 1.463 . S
C1369 C1374 1.350 . S
C1369 N1377 1.427 . S
C1370 H1361 0.930 . S
C1370 C1368 1.378 . S
C1370 C1371 1.367 . S
C1371 C1370 1.367 . S
C1371 C1373 1.433 . S
C1372 C1368 1.350 . S
C1372 C1369 1.463 . S
C1372 N1376 1.427 . S
C1373 H1363 0.929 . S
C1373 C1371 1.433 . S
C1373 N1376 1.384 . S
C1374 H1365 0.929 . S
C1374 C1366 1.378 . S
C1374 C1369 1.350 . S
C1375 H1362 0.929 . S
C1375 C1367 1.433 . S
C1375 N1377 1.384 . S
N1376 C1372 1.427 . S
N1376 C1373 1.384 . S
N1377 C1369 1.427 . S
N1377 C1375 1.384 . S
H1378 C1384 0.930 . S
H1379 C1388 0.930 . S
H1380 C1393 0.929 . S
H1381 C1391 0.929 . S
H1382 C1386 0.929 . S
H1383 C1392 0.929 . S
C1384 H1378 0.930 . S
C1384 C1385 1.367 . S
C1384 C1392 1.378 . S
C1385 C1384 1.367 . S
C1385 C1393 1.433 . S
C1386 H1382 0.929 . S
C1386 C1388 1.378 . S
C1386 C1390 1.350 . S
C1387 C1390 1.463 . S
C1387 C1392 1.350 . S
C1387 N1395 1.427 . S
C1388 H1379 0.930 . S
C1388 C1386 1.378 . S
C1388 C1389 1.367 . S
C1389 C1388 1.367 . S
C1389 C1391 1.433 1_565 S
C1390 C1386 1.350 . S
C1390 C1387 1.463 . S
C1390 N1394 1.427 . S
C1391 H1381 0.929 . S
C1391 C1389 1.433 1_545 S
C1391 N1394 1.384 1_545 S
C1392 H1383 0.929 . S
C1392 C1384 1.378 . S
C1392 C1387 1.350 . S
C1393 H1380 0.929 . S
C1393 C1385 1.433 . S
C1393 N1395 1.384 . S
N1394 C1390 1.427 . S
N1394 C1391 1.384 1_565 S
N1395 C1387 1.427 . S
N1395 C1393 1.384 . S
H1396 C1402 0.930 . S
H1397 C1406 0.930 1_554 S
H1398 C1411 0.929 . S
H1399 C1409 0.929 . S
H1400 C1404 0.929 . S
H1401 C1410 0.929 . S
C1402 H1396 0.930 . S
C1402 C1403 1.367 . S
C1402 C1410 1.378 . S
C1403 C1402 1.367 . S
C1403 C1411 1.433 . S
C1404 H1400 0.929 . S
C1404 C1406 1.378 . S
C1404 C1408 1.350 . S
C1405 C1408 1.463 . S
C1405 C1410 1.350 . S
C1405 N1413 1.427 . S
C1406 H1397 0.930 1_556 S
C1406 C1404 1.378 . S
C1406 C1407 1.367 1_556 S
C1407 C1406 1.367 1_554 S
C1407 C1409 1.433 1_554 S
C1408 C1404 1.350 . S
C1408 C1405 1.463 . S
C1408 N1412 1.427 . S
C1409 H1399 0.929 . S
C1409 C1407 1.433 1_556 S
C1409 N1412 1.384 . S
C1410 H1401 0.929 . S
C1410 C1402 1.378 . S
C1410 C1405 1.350 . S
C1411 H1398 0.929 . S
C1411 C1403 1.433 . S
C1411 N1413 1.384 . S
N1412 C1408 1.427 . S
N1412 C1409 1.384 . S
N1413 C1405 1.427 . S
N1413 C1411 1.384 . S
H1414 C1420 0.930 1_565 S
H1415 C1424 0.930 . S
H1416 C1429 0.929 . S
H1417 C1427 0.929 . S
H1418 C1422 0.929 . S
H1419 C1428 0.929 . S
C1420 H1414 0.930 1_545 S
C1420 C1421 1.367 . S
C1420 C1428 1.378 . S
C1421 C1420 1.367 . S
C1421 C1429 1.433 . S
C1422 H1418 0.929 . S
C1422 C1424 1.378 . S
C1422 C1426 1.350 . S
C1423 C1426 1.463 . S
C1423 C1428 1.350 . S
C1423 N1431 1.427 . S
C1424 H1415 0.930 . S
C1424 C1422 1.378 . S
C1424 C1425 1.367 . S
C1425 C1424 1.367 . S
C1425 C1427 1.433 . S
C1426 C1422 1.350 . S
C1426 C1423 1.463 . S
C1426 N1430 1.427 . S
C1427 H1417 0.929 . S
C1427 C1425 1.433 . S
C1427 N1430 1.384 . S
C1428 H1419 0.929 . S
C1428 C1420 1.378 . S
C1428 C1423 1.350 . S
C1429 H1416 0.929 . S
C1429 C1421 1.433 . S
C1429 N1431 1.384 . S
N1430 C1426 1.427 . S
N1430 C1427 1.384 . S
N1431 C1423 1.427 . S
N1431 C1429 1.384 . S
H1432 C1438 0.930 . S
H1433 C1442 0.930 . S
H1434 C1447 0.929 . S
H1435 C1445 0.929 . S
H1436 C1440 0.929 . S
H1437 C1446 0.929 . S
C1438 H1432 0.930 . S
C1438 C1439 1.367 . S
C1438 C1446 1.378 . S
C1439 C1438 1.367 . S
C1439 C1447 1.433 . S
C1440 H1436 0.929 . S
C1440 C1442 1.378 . S
C1440 C1444 1.350 . S
C1441 C1444 1.463 . S
C1441 C1446 1.350 . S
C1441 N1449 1.427 . S
C1442 H1433 0.930 . S
C1442 C1440 1.378 . S
C1442 C1443 1.367 . S
C1443 C1442 1.367 . S
C1443 C1445 1.433 . S
C1444 C1440 1.350 . S
C1444 C1441 1.463 . S
C1444 N1448 1.427 . S
C1445 H1435 0.929 . S
C1445 C1443 1.433 . S
C1445 N1448 1.384 . S
C1446 H1437 0.929 . S
C1446 C1438 1.378 . S
C1446 C1441 1.350 . S
C1447 H1434 0.929 . S
C1447 C1439 1.433 . S
C1447 N1449 1.384 . S
N1448 C1444 1.427 . S
N1448 C1445 1.384 . S
N1449 C1441 1.427 . S
N1449 C1447 1.384 . S
H1450 C1456 0.930 . S
H1451 C1460 0.930 . S
H1452 C1465 0.929 . S
H1453 C1463 0.929 . S
H1454 C1458 0.929 . S
H1455 C1464 0.929 . S
C1456 H1450 0.930 . S
C1456 C1457 1.367 . S
C1456 C1464 1.378 . S
C1457 C1456 1.367 . S
C1457 C1465 1.433 . S
C1458 H1454 0.929 . S
C1458 C1460 1.378 . S
C1458 C1462 1.350 . S
C1459 C1462 1.463 . S
C1459 C1464 1.350 . S
C1459 N1467 1.427 . S
C1460 H1451 0.930 . S
C1460 C1458 1.378 . S
C1460 C1461 1.367 . S
C1461 C1460 1.367 . S
C1461 C1463 1.433 1_545 S
C1462 C1458 1.350 . S
C1462 C1459 1.463 . S
C1462 N1466 1.427 . S
C1463 H1453 0.929 . S
C1463 C1461 1.433 1_565 S
C1463 N1466 1.384 1_565 S
C1464 H1455 0.929 . S
C1464 C1456 1.378 . S
C1464 C1459 1.350 . S
C1465 H1452 0.929 . S
C1465 C1457 1.433 . S
C1465 N1467 1.384 . S
N1466 C1462 1.427 . S
N1466 C1463 1.384 1_545 S
N1467 C1459 1.427 . S
N1467 C1465 1.384 . S
H1468 C1474 0.930 . S
H1469 C1478 0.935 . S
H1470 C1483 0.929 . S
H1471 C1481 0.929 . S
H1472 C1476 0.929 . S
H1473 C1482 0.929 . S
C1474 H1468 0.930 . S
C1474 C1475 1.367 . S
C1474 C1482 1.378 . S
C1475 C1474 1.367 . S
C1475 C1483 1.433 . S
C1476 H1472 0.929 . S
C1476 C1478 1.378 . S
C1476 C1480 1.350 . S
C1477 C1480 1.463 . S
C1477 C1482 1.350 . S
C1477 N1485 1.427 . S
C1478 H1469 0.935 . S
C1478 C1476 1.378 . S
C1478 C1479 1.367 1_554 S
C1479 C1478 1.367 1_556 S
C1479 C1481 1.433 1_556 S
C1480 C1476 1.350 . S
C1480 C1477 1.463 . S
C1480 N1484 1.427 . S
C1481 H1471 0.929 . S
C1481 C1479 1.433 1_554 S
C1481 N1484 1.384 . S
C1482 H1473 0.929 . S
C1482 C1474 1.378 . S
C1482 C1477 1.350 . S
C1483 H1470 0.929 . S
C1483 C1475 1.433 . S
C1483 N1485 1.384 . S
N1484 C1480 1.427 . S
N1484 C1481 1.384 . S
N1485 C1477 1.427 . S
N1485 C1483 1.384 . S
H1486 C1492 0.930 . S
H1487 C1496 0.930 . S
H1488 C1501 0.929 . S
H1489 C1499 0.929 . S
H1490 C1494 0.929 1_545 S
H1491 C1500 0.929 . S
C1492 H1486 0.930 . S
C1492 C1493 1.367 . S
C1492 C1500 1.378 . S
C1493 C1492 1.367 . S
C1493 C1501 1.433 . S
C1494 H1490 0.929 1_565 S
C1494 C1496 1.378 1_565 S
C1494 C1498 1.350 . S
C1495 C1498 1.463 . S
C1495 C1500 1.350 . S
C1495 N1503 1.427 . S
C1496 H1487 0.930 . S
C1496 C1494 1.378 1_545 S
C1496 C1497 1.367 1_545 S
C1497 C1496 1.367 1_565 S
C1497 C1499 1.433 . S
C1498 C1494 1.350 . S
C1498 C1495 1.463 . S
C1498 N1502 1.427 . S
C1499 H1489 0.929 . S
C1499 C1497 1.433 . S
C1499 N1502 1.384 . S
C1500 H1491 0.929 . S
C1500 C1492 1.378 . S
C1500 C1495 1.350 . S
C1501 H1488 0.929 . S
C1501 C1493 1.433 . S
C1501 N1503 1.384 . S
N1502 C1498 1.427 . S
N1502 C1499 1.384 . S
N1503 C1495 1.427 . S
N1503 C1501 1.384 . S
C647 C23 2.779 . S
C651 C423 2.783 . S
C665 C63 2.779 . S
C669 C463 2.783 . S
C683 C103 2.780 . S
C687 C343 2.785 . S
C701 C383 2.781 . S
C705 C143 2.786 . S
C719 C162 2.779 . S
C723 C562 2.782 . S
C737 C602 2.779 . S
C741 C202 2.782 . S
C755 C482 2.786 . S
C759 C242 2.782 . S
C773 C282 2.779 . S
C777 C522 2.783 . S
C791 C4 0.784 1_565 S
C795 C185 0.784 1_545 S
C809 C44 0.789 . S
C813 C545 0.789 . S
C827 C84 0.764 1_545 S
C831 C265 0.764 1_565 S
C845 C124 0.801 . S
C849 C625 0.801 . S
C863 C225 0.770 . S
C867 C364 0.770 . S
C881 C444 0.780 . S
C885 C305 0.780 . S
C899 C505 0.766 . S
C903 C324 0.766 . S
C917 C404 0.765 . S
C921 C585 0.765 . S
C935 C25 1.004 . S
C939 C303 1.041 . S
C953 C65 1.018 . S
C957 C503 1.045 . S
C971 C105 0.992 . S
C975 C223 1.029 . S
C989 C145 1.012 . S
C993 C583 1.034 . S
C1007 C122 1.045 . S
C1011 C164 1.017 . S
C1025 C204 0.993 . S
C1029 C322 1.032 . S
C1043 C244 1.001 . S
C1047 C42 1.039 . S
C1061 C402 1.027 . S
C1065 C284 0.992 . S
C1079 C345 1.000 . S
C1083 C623 1.027 1_565 S
C1097 C183 1.041 . S
C1101 C385 1.019 . S
C1115 C543 1.033 1_545 S
C1119 C425 0.994 . S
C1133 C263 1.032 . S
C1137 C465 0.993 . S
C1151 C484 1.019 . S
C1155 C442 1.043 1_545 S
C1169 C524 0.992 . S
C1173 C2 1.027 . S
C1187 C362 1.045 1_565 S
C1191 C564 1.017 . S
C1205 C604 1.015 . S
C1209 C82 1.045 . S
C1223 C20 4.014 . S
C1227 C391 4.052 . S
C1241 C431 4.052 . S
C1245 C60 4.014 . S
C1259 C100 4.014 . S
C1263 C471 4.052 . S
C1277 C351 4.058 . S
C1281 C140 4.020 . S
C1295 C540 4.053 . S
C1299 C191 4.014 . S
C1313 C580 4.055 . S
C1317 C231 4.017 . S
C1331 C620 4.055 . S
C1335 C271 4.017 . S
C1349 C500 4.053 . S
C1353 C311 4.015 . S
C1367 C71 4.053 . S
C1371 C340 4.015 . S
C1385 C111 4.052 . S
C1389 C380 4.014 1_565 S
C1403 C151 4.053 . S
C1407 C420 4.015 . S
C1421 C460 4.016 1_545 S
C1425 C31 4.054 . S
C1439 C220 4.057 . S
C1443 C511 4.020 . S
C1457 C260 4.053 . S
C1461 C551 4.016 1_545 S
C1475 C300 4.055 . S
C1479 C591 4.017 . S
C1493 C180 4.056 . S
C1497 C631 4.019 1_565 S
