# Generated by pormake.
# Topology afi, (4)-cn, num edge types: 1
# Building blocks:
#     Node 0, Type 0, BuildingBlock: CEKHIL_clean_sbu_0, # of connection points: 4
#     Node 1, Type 0, BuildingBlock: CEKHIL_clean_sbu_0, # of connection points: 4
#     Node 2, Type 0, BuildingBlock: CEKHIL_clean_sbu_0, # of connection points: 4
#     Node 3, Type 0, BuildingBlock: CEKHIL_clean_sbu_0, # of connection points: 4
#     Node 4, Type 0, BuildingBlock: CEKHIL_clean_sbu_0, # of connection points: 4
#     Node 5, Type 0, BuildingBlock: CEKHIL_clean_sbu_0, # of connection points: 4
#     Node 6, Type 0, BuildingBlock: CEKHIL_clean_sbu_0, # of connection points: 4
#     Node 7, Type 0, BuildingBlock: CEKHIL_clean_sbu_0, # of connection points: 4
#     Node 8, Type 0, BuildingBlock: CEKHIL_clean_sbu_0, # of connection points: 4
#     Node 9, Type 0, BuildingBlock: CEKHIL_clean_sbu_0, # of connection points: 4
#     Node 10, Type 0, BuildingBlock: CEKHIL_clean_sbu_0, # of connection points: 4
#     Node 11, Type 0, BuildingBlock: CEKHIL_clean_sbu_0, # of connection points: 4
#     Node 12, Type 0, BuildingBlock: CEKHIL_clean_sbu_0, # of connection points: 4
#     Node 13, Type 0, BuildingBlock: CEKHIL_clean_sbu_0, # of connection points: 4
#     Node 14, Type 0, BuildingBlock: CEKHIL_clean_sbu_0, # of connection points: 4
#     Node 15, Type 0, BuildingBlock: CEKHIL_clean_sbu_0, # of connection points: 4
#     Node 16, Type 0, BuildingBlock: CEKHIL_clean_sbu_0, # of connection points: 4
#     Node 17, Type 0, BuildingBlock: CEKHIL_clean_sbu_0, # of connection points: 4
#     Node 18, Type 0, BuildingBlock: CEKHIL_clean_sbu_0, # of connection points: 4
#     Node 19, Type 0, BuildingBlock: CEKHIL_clean_sbu_0, # of connection points: 4
#     Node 20, Type 0, BuildingBlock: CEKHIL_clean_sbu_0, # of connection points: 4
#     Node 21, Type 0, BuildingBlock: CEKHIL_clean_sbu_0, # of connection points: 4
#     Node 22, Type 0, BuildingBlock: CEKHIL_clean_sbu_0, # of connection points: 4
#     Node 23, Type 0, BuildingBlock: CEKHIL_clean_sbu_0, # of connection points: 4
#     Edge 24, Type (0, 0), BuildingBlock: AJUNOK_clean_linker_0, # of connection points: 2
#     Edge 25, Type (0, 0), BuildingBlock: AJUNOK_clean_linker_0, # of connection points: 2
#     Edge 26, Type (0, 0), BuildingBlock: AJUNOK_clean_linker_0, # of connection points: 2
#     Edge 27, Type (0, 0), BuildingBlock: AJUNOK_clean_linker_0, # of connection points: 2
#     Edge 28, Type (0, 0), BuildingBlock: AJUNOK_clean_linker_0, # of connection points: 2
#     Edge 29, Type (0, 0), BuildingBlock: AJUNOK_clean_linker_0, # of connection points: 2
#     Edge 30, Type (0, 0), BuildingBlock: AJUNOK_clean_linker_0, # of connection points: 2
#     Edge 31, Type (0, 0), BuildingBlock: AJUNOK_clean_linker_0, # of connection points: 2
#     Edge 32, Type (0, 0), BuildingBlock: AJUNOK_clean_linker_0, # of connection points: 2
#     Edge 33, Type (0, 0), BuildingBlock: AJUNOK_clean_linker_0, # of connection points: 2
#     Edge 34, Type (0, 0), BuildingBlock: AJUNOK_clean_linker_0, # of connection points: 2
#     Edge 35, Type (0, 0), BuildingBlock: AJUNOK_clean_linker_0, # of connection points: 2
#     Edge 36, Type (0, 0), BuildingBlock: AJUNOK_clean_linker_0, # of connection points: 2
#     Edge 37, Type (0, 0), BuildingBlock: AJUNOK_clean_linker_0, # of connection points: 2
#     Edge 38, Type (0, 0), BuildingBlock: AJUNOK_clean_linker_0, # of connection points: 2
#     Edge 39, Type (0, 0), BuildingBlock: AJUNOK_clean_linker_0, # of connection points: 2
#     Edge 40, Type (0, 0), BuildingBlock: AJUNOK_clean_linker_0, # of connection points: 2
#     Edge 41, Type (0, 0), BuildingBlock: AJUNOK_clean_linker_0, # of connection points: 2
#     Edge 42, Type (0, 0), BuildingBlock: AJUNOK_clean_linker_0, # of connection points: 2
#     Edge 43, Type (0, 0), BuildingBlock: AJUNOK_clean_linker_0, # of connection points: 2
#     Edge 44, Type (0, 0), BuildingBlock: AJUNOK_clean_linker_0, # of connection points: 2
#     Edge 45, Type (0, 0), BuildingBlock: AJUNOK_clean_linker_0, # of connection points: 2
#     Edge 46, Type (0, 0), BuildingBlock: AJUNOK_clean_linker_0, # of connection points: 2
#     Edge 47, Type (0, 0), BuildingBlock: AJUNOK_clean_linker_0, # of connection points: 2
#     Edge 48, Type (0, 0), BuildingBlock: AJUNOK_clean_linker_0, # of connection points: 2
#     Edge 49, Type (0, 0), BuildingBlock: AJUNOK_clean_linker_0, # of connection points: 2
#     Edge 50, Type (0, 0), BuildingBlock: AJUNOK_clean_linker_0, # of connection points: 2
#     Edge 51, Type (0, 0), BuildingBlock: AJUNOK_clean_linker_0, # of connection points: 2
#     Edge 52, Type (0, 0), BuildingBlock: AJUNOK_clean_linker_0, # of connection points: 2
#     Edge 53, Type (0, 0), BuildingBlock: AJUNOK_clean_linker_0, # of connection points: 2
#     Edge 54, Type (0, 0), BuildingBlock: AJUNOK_clean_linker_0, # of connection points: 2
#     Edge 55, Type (0, 0), BuildingBlock: AJUNOK_clean_linker_0, # of connection points: 2
#     Edge 56, Type (0, 0), BuildingBlock: AJUNOK_clean_linker_0, # of connection points: 2
#     Edge 57, Type (0, 0), BuildingBlock: AJUNOK_clean_linker_0, # of connection points: 2
#     Edge 58, Type (0, 0), BuildingBlock: AJUNOK_clean_linker_0, # of connection points: 2
#     Edge 59, Type (0, 0), BuildingBlock: AJUNOK_clean_linker_0, # of connection points: 2
#     Edge 60, Type (0, 0), BuildingBlock: AJUNOK_clean_linker_0, # of connection points: 2
#     Edge 61, Type (0, 0), BuildingBlock: AJUNOK_clean_linker_0, # of connection points: 2
#     Edge 62, Type (0, 0), BuildingBlock: AJUNOK_clean_linker_0, # of connection points: 2
#     Edge 63, Type (0, 0), BuildingBlock: AJUNOK_clean_linker_0, # of connection points: 2
#     Edge 64, Type (0, 0), BuildingBlock: AJUNOK_clean_linker_0, # of connection points: 2
#     Edge 65, Type (0, 0), BuildingBlock: AJUNOK_clean_linker_0, # of connection points: 2
#     Edge 66, Type (0, 0), BuildingBlock: AJUNOK_clean_linker_0, # of connection points: 2
#     Edge 67, Type (0, 0), BuildingBlock: AJUNOK_clean_linker_0, # of connection points: 2
#     Edge 68, Type (0, 0), BuildingBlock: AJUNOK_clean_linker_0, # of connection points: 2
#     Edge 69, Type (0, 0), BuildingBlock: AJUNOK_clean_linker_0, # of connection points: 2
#     Edge 70, Type (0, 0), BuildingBlock: AJUNOK_clean_linker_0, # of connection points: 2
#     Edge 71, Type (0, 0), BuildingBlock: AJUNOK_clean_linker_0, # of connection points: 2
# Relax obj value: 0.097
# Max RMSD: 0.106
# Mean RMSD: 0.106
data_MOF--net-afi--node1-CEKHIL_clean_sbu_0--edge1-AJUNOK_clean_linker_0
_symmetry_space_group_name_H-M    P1
_symmetry_Int_Tables_number       1
_symmetry_cell_setting            triclinic
loop_
_symmetry_equiv_pos_as_xyz
'x, y, z'
_cell_length_a     49.227692
_cell_length_b     49.250559
_cell_length_c     28.470294
_cell_angle_alpha  90.00204
_cell_angle_beta   90.005236
_cell_angle_gamma 120.00992
loop_
_atom_site_label
_atom_site_type_symbol
_atom_site_fract_x
_atom_site_fract_y
_atom_site_fract_z
_atom_type_partial_charge
Co0 Co 0.4839 0.14268 0.20203 0.0
O1 O 0.50364 0.18784 0.20002 0.0
O2 O 0.45727 0.15652 0.2316 0.0
C3 C 0.52751 0.14178 0.22571 0.0
O4 O 0.45674 0.09531 0.21417 0.0
Co5 Co 0.50649 0.10597 0.13935 0.0
O6 O 0.47654 0.06896 0.17601 0.0
C7 C 0.47104 0.13372 0.09754 0.0
C8 C 0.47935 0.18498 0.22231 0.0
C9 C 0.45681 0.06978 0.20401 0.0
O10 O 0.46387 0.13964 0.13834 0.0
O11 O 0.48972 0.12308 0.09111 0.0
O12 O 0.51007 0.14578 0.25609 0.0
O13 O 0.51921 0.14057 0.18252 0.0
Co14 Co 0.35434 0.47785 0.20112 0.0
O15 O 0.32969 0.4983 0.19811 0.0
O16 O 0.31384 0.4523 0.23143 0.0
C17 C 0.39927 0.52132 0.22388 0.0
O18 O 0.37396 0.4503 0.21435 0.0
Co19 Co 0.41319 0.49881 0.13806 0.0
O20 O 0.42009 0.46937 0.17631 0.0
C21 C 0.34968 0.46354 0.09709 0.0
C22 C 0.30816 0.47477 0.22153 0.0
C23 C 0.39955 0.45018 0.20485 0.0
O24 O 0.33681 0.45711 0.13805 0.0
O25 O 0.37903 0.48174 0.09016 0.0
O26 O 0.3778 0.5044 0.25452 0.0
O27 O 0.39202 0.51262 0.18083 0.0
Co28 Co 0.88923 0.34669 0.20168 0.0
O29 O 0.84411 0.32224 0.19913 0.0
O30 O 0.87426 0.30618 0.23195 0.0
C31 C 0.89097 0.3917 0.22468 0.0
O32 O 0.93649 0.36616 0.21421 0.0
Co33 Co 0.92679 0.40549 0.13829 0.0
O34 O 0.96347 0.41199 0.17537 0.0
C35 C 0.89821 0.34195 0.09748 0.0
C36 C 0.84609 0.30066 0.22239 0.0
C37 C 0.96226 0.39146 0.20379 0.0
O38 O 0.8921 0.32913 0.13847 0.0
O39 O 0.90922 0.37126 0.09054 0.0
O40 O 0.88652 0.37025 0.25528 0.0
O41 O 0.89215 0.38438 0.1816 0.0
Co42 Co 0.55605 0.88248 0.20256 0.0
O43 O 0.53653 0.83736 0.2004 0.0
O44 O 0.58256 0.86878 0.23284 0.0
C45 C 0.51216 0.8831 0.22539 0.0
O46 O 0.58292 0.92985 0.2149 0.0
Co47 Co 0.5336 0.919 0.13915 0.0
O48 O 0.56317 0.95604 0.17613 0.0
C49 C 0.5697 0.89166 0.09832 0.0
C50 C 0.56066 0.84029 0.22326 0.0
C51 C 0.58277 0.9553 0.20453 0.0
O52 O 0.57663 0.88575 0.13931 0.0
O53 O 0.55093 0.90212 0.09141 0.0
O54 O 0.52947 0.87918 0.2561 0.0
O55 O 0.52075 0.88439 0.18233 0.0
Co56 Co 0.68565 0.54795 0.20095 0.0
O57 O 0.71028 0.52748 0.1975 0.0
O58 O 0.72617 0.57333 0.23133 0.0
C59 C 0.64074 0.50439 0.22343 0.0
O60 O 0.66611 0.57551 0.21479 0.0
Co61 Co 0.62666 0.52736 0.13834 0.0
O62 O 0.61986 0.55665 0.17712 0.0
C63 C 0.69011 0.56279 0.09711 0.0
C64 C 0.73181 0.55087 0.22114 0.0
C65 C 0.64051 0.57572 0.20565 0.0
O66 O 0.70312 0.56891 0.13798 0.0
O67 O 0.66071 0.54474 0.09032 0.0
O68 O 0.66221 0.52117 0.25415 0.0
O69 O 0.64794 0.51331 0.18046 0.0
Co70 Co 0.15016 0.67807 0.20151 0.0
O71 O 0.19532 0.70242 0.19857 0.0
O72 O 0.16541 0.71876 0.23132 0.0
C73 C 0.14826 0.63306 0.22492 0.0
O74 O 0.10301 0.65891 0.21465 0.0
Co75 Co 0.11174 0.61886 0.13926 0.0
O76 O 0.07551 0.61261 0.17722 0.0
C77 C 0.14053 0.68208 0.09729 0.0
C78 C 0.19352 0.72417 0.22165 0.0
C79 C 0.07711 0.63344 0.20537 0.0
O80 O 0.14712 0.69529 0.13804 0.0
O81 O 0.12912 0.65266 0.09091 0.0
O82 O 0.15301 0.65471 0.25531 0.0
O83 O 0.14686 0.64015 0.18178 0.0
Co84 Co 0.88716 0.54707 0.30681 0.0
O85 O 0.84202 0.52631 0.30916 0.0
O86 O 0.87222 0.57334 0.27894 0.0
C87 C 0.88924 0.50472 0.28022 0.0
O88 O 0.93444 0.57514 0.29479 0.0
Co89 Co 0.92449 0.52412 0.36743 0.0
O90 O 0.96113 0.55491 0.33088 0.0
C91 C 0.8964 0.55853 0.4117 0.0
C92 C 0.84403 0.55041 0.2875 0.0
C93 C 0.96007 0.57504 0.30407 0.0
O94 O 0.88991 0.56584 0.37142 0.0
O95 O 0.90755 0.5402 0.41704 0.0
O96 O 0.88467 0.52245 0.25128 0.0
O97 O 0.89009 0.51177 0.324 0.0
Co98 Co 0.35291 0.87966 0.30651 0.0
O99 O 0.32841 0.83454 0.3094 0.0
O100 O 0.31168 0.86466 0.27857 0.0
C101 C 0.39728 0.88146 0.28025 0.0
O102 O 0.37224 0.92684 0.2938 0.0
Co103 Co 0.4133 0.9173 0.36685 0.0
O104 O 0.41936 0.95367 0.32935 0.0
C105 C 0.35082 0.8892 0.41125 0.0
C106 C 0.30635 0.8365 0.28751 0.0
C107 C 0.39818 0.95246 0.30233 0.0
O108 O 0.33698 0.88281 0.371 0.0
O109 O 0.38029 0.90025 0.41651 0.0
O110 O 0.37498 0.87678 0.25119 0.0
O111 O 0.39111 0.88259 0.32396 0.0
Co112 Co 0.48489 0.34529 0.30491 0.0
O113 O 0.50455 0.3198 0.30684 0.0
O114 O 0.45752 0.30428 0.27738 0.0
C115 C 0.52779 0.3892 0.27818 0.0
O116 O 0.45773 0.36551 0.29328 0.0
Co117 Co 0.50939 0.40581 0.36549 0.0
O118 O 0.47875 0.41238 0.32969 0.0
C119 C 0.47439 0.34345 0.40994 0.0
C120 C 0.47979 0.29802 0.28589 0.0
C121 C 0.45834 0.39144 0.30284 0.0
O122 O 0.46619 0.32969 0.36969 0.0
O123 O 0.4935 0.37279 0.41511 0.0
O124 O 0.50966 0.36707 0.24922 0.0
O125 O 0.52077 0.38303 0.32195 0.0
Co126 Co 0.15223 0.47765 0.30631 0.0
O127 O 0.19735 0.49851 0.30904 0.0
O128 O 0.16736 0.45167 0.27802 0.0
C129 C 0.15 0.52004 0.28038 0.0
O130 O 0.10504 0.44961 0.2938 0.0
Co131 Co 0.11457 0.49988 0.36748 0.0
O132 O 0.07817 0.46962 0.32994 0.0
C133 C 0.14298 0.46555 0.411 0.0
C134 C 0.19549 0.47459 0.28702 0.0
C135 C 0.07939 0.44979 0.30262 0.0
O136 O 0.14933 0.45839 0.37053 0.0
O137 O 0.1318 0.48383 0.41676 0.0
O138 O 0.1548 0.50258 0.25119 0.0
O139 O 0.14911 0.51277 0.32409 0.0
Co140 Co 0.68678 0.14533 0.30728 0.0
O141 O 0.71129 0.19041 0.31017 0.0
O142 O 0.72788 0.16026 0.27897 0.0
C143 C 0.6423 0.14344 0.28141 0.0
O144 O 0.66737 0.09815 0.29457 0.0
Co145 Co 0.62685 0.10785 0.36839 0.0
O146 O 0.62045 0.07144 0.33069 0.0
C147 C 0.68958 0.13586 0.41191 0.0
C148 C 0.73328 0.18843 0.2881 0.0
C149 C 0.64145 0.07258 0.30332 0.0
O150 O 0.70309 0.14222 0.37143 0.0
O151 O 0.66014 0.12481 0.4177 0.0
O152 O 0.66454 0.14816 0.25223 0.0
O153 O 0.64862 0.14243 0.32511 0.0
Co154 Co 0.55506 0.68015 0.30648 0.0
O155 O 0.53527 0.70551 0.3081 0.0
O156 O 0.58247 0.72118 0.27913 0.0
C157 C 0.51232 0.63618 0.27951 0.0
O158 O 0.58238 0.66005 0.29515 0.0
Co159 Co 0.53065 0.61969 0.36706 0.0
O160 O 0.56119 0.61305 0.33115 0.0
C161 C 0.56573 0.68205 0.41157 0.0
C162 C 0.56011 0.72734 0.28741 0.0
C163 C 0.58171 0.63407 0.30453 0.0
O164 O 0.57355 0.69584 0.37133 0.0
O165 O 0.5469 0.65266 0.41679 0.0
O166 O 0.53052 0.65835 0.25066 0.0
O167 O 0.51918 0.64232 0.32335 0.0
Co168 Co 0.55569 0.88253 0.80863 0.0
O169 O 0.53614 0.8374 0.8107 0.0
O170 O 0.58224 0.86886 0.77843 0.0
C171 C 0.51185 0.88325 0.78575 0.0
O172 O 0.58257 0.92987 0.79625 0.0
Co173 Co 0.5334 0.91914 0.87207 0.0
O174 O 0.56292 0.95614 0.83499 0.0
C175 C 0.56949 0.89179 0.91286 0.0
C176 C 0.56032 0.84037 0.78795 0.0
C177 C 0.58246 0.95535 0.80655 0.0
O178 O 0.57628 0.88577 0.87186 0.0
O179 O 0.55081 0.90234 0.91984 0.0
O180 O 0.52913 0.87927 0.75508 0.0
O181 O 0.5204 0.8845 0.82883 0.0
Co182 Co 0.68573 0.54823 0.80729 0.0
O183 O 0.7113 0.52865 0.80961 0.0
O184 O 0.72601 0.57472 0.77722 0.0
C185 C 0.64115 0.50445 0.78437 0.0
O186 O 0.66534 0.57512 0.79464 0.0
Co187 Co 0.62672 0.52612 0.87043 0.0
O188 O 0.61915 0.55534 0.83269 0.0
C189 C 0.69013 0.56196 0.91151 0.0
C190 C 0.73256 0.55281 0.78688 0.0
C191 C 0.63954 0.57481 0.80424 0.0
O192 O 0.703 0.56883 0.87055 0.0
O193 O 0.66086 0.5433 0.91836 0.0
O194 O 0.66249 0.52166 0.75373 0.0
O195 O 0.64841 0.51302 0.82745 0.0
Co196 Co 0.151 0.67982 0.80576 0.0
O197 O 0.19612 0.70526 0.80757 0.0
O198 O 0.16463 0.72068 0.77775 0.0
C199 C 0.14996 0.63583 0.77947 0.0
O200 O 0.10357 0.65947 0.79429 0.0
Co201 Co 0.11528 0.61977 0.86725 0.0
O202 O 0.07795 0.61283 0.83138 0.0
C203 C 0.14279 0.68242 0.91075 0.0
C204 C 0.19315 0.72693 0.78633 0.0
C205 C 0.07832 0.63353 0.80418 0.0
O206 O 0.14804 0.69581 0.87026 0.0
O207 O 0.13266 0.65314 0.91643 0.0
O208 O 0.15388 0.65784 0.75034 0.0
O209 O 0.14922 0.64217 0.82321 0.0
Co210 Co 0.48367 0.14466 0.80606 0.0
O211 O 0.50315 0.18975 0.8082 0.0
O212 O 0.45636 0.15819 0.77799 0.0
C213 C 0.52684 0.14398 0.77994 0.0
O214 O 0.45679 0.09728 0.79408 0.0
Co215 Co 0.50801 0.10878 0.86718 0.0
O216 O 0.4781 0.0717 0.8305 0.0
C217 C 0.47216 0.13548 0.91092 0.0
C218 C 0.47853 0.18672 0.78675 0.0
C219 C 0.45772 0.0721 0.80343 0.0
O220 O 0.46449 0.14138 0.8705 0.0
O221 O 0.49119 0.12519 0.91653 0.0
O222 O 0.50876 0.14789 0.75077 0.0
O223 O 0.51961 0.143 0.82366 0.0
Co224 Co 0.35312 0.47855 0.80768 0.0
O225 O 0.32835 0.49887 0.81103 0.0
O226 O 0.3126 0.45298 0.77739 0.0
C227 C 0.39795 0.52216 0.78509 0.0
O228 O 0.37292 0.45117 0.79414 0.0
Co229 Co 0.41219 0.49979 0.87064 0.0
O230 O 0.41894 0.47017 0.8326 0.0
C231 C 0.34871 0.46426 0.91165 0.0
C232 C 0.30686 0.47539 0.78749 0.0
C233 C 0.39842 0.45095 0.80404 0.0
O234 O 0.33578 0.45763 0.87071 0.0
O235 O 0.37803 0.48273 0.91849 0.0
O236 O 0.3765 0.50531 0.75437 0.0
O237 O 0.39071 0.51331 0.82806 0.0
Co238 Co 0.88818 0.34656 0.80817 0.0
O239 O 0.84304 0.3221 0.81121 0.0
O240 O 0.87301 0.30604 0.77782 0.0
C241 C 0.88988 0.3916 0.78551 0.0
O242 O 0.93537 0.36599 0.79496 0.0
Co243 Co 0.92622 0.40536 0.87138 0.0
O244 O 0.96266 0.41181 0.83376 0.0
C245 C 0.89779 0.34183 0.91216 0.0
C246 C 0.84489 0.30051 0.78775 0.0
C247 C 0.96123 0.39127 0.80515 0.0
O248 O 0.89139 0.32898 0.87118 0.0
O249 O 0.90891 0.37116 0.91914 0.0
O250 O 0.88518 0.37012 0.75483 0.0
O251 O 0.89129 0.38429 0.82853 0.0
Co252 Co 0.15105 0.47825 0.70146 0.0
O253 O 0.1962 0.49893 0.69855 0.0
O254 O 0.16616 0.45276 0.73147 0.0
C255 C 0.14932 0.5215 0.72449 0.0
O256 O 0.10387 0.45042 0.71456 0.0
Co257 Co 0.11285 0.4991 0.63881 0.0
O258 O 0.07655 0.46934 0.67689 0.0
C259 C 0.14178 0.46467 0.59731 0.0
C260 C 0.1943 0.47536 0.72172 0.0
C261 C 0.07803 0.45012 0.70522 0.0
O262 O 0.14799 0.45784 0.63815 0.0
O263 O 0.13058 0.48284 0.59072 0.0
O264 O 0.15397 0.50462 0.75507 0.0
O265 O 0.1479 0.51288 0.68143 0.0
Co266 Co 0.68566 0.14514 0.70226 0.0
O267 O 0.71036 0.19024 0.69898 0.0
O268 O 0.72627 0.16011 0.73223 0.0
C269 C 0.64081 0.14374 0.72519 0.0
O270 O 0.66607 0.09801 0.71578 0.0
Co271 Co 0.62643 0.10696 0.63984 0.0
O272 O 0.61973 0.07077 0.67829 0.0
C273 C 0.68976 0.13536 0.59821 0.0
C274 C 0.73196 0.18826 0.72224 0.0
C275 C 0.64042 0.07225 0.70665 0.0
O276 O 0.70286 0.1417 0.63902 0.0
O277 O 0.66038 0.12428 0.59167 0.0
O278 O 0.66235 0.14841 0.75578 0.0
O279 O 0.64795 0.14213 0.68216 0.0
Co280 Co 0.55475 0.68038 0.70402 0.0
O281 O 0.53523 0.70598 0.70204 0.0
O282 O 0.58216 0.7213 0.73176 0.0
C283 C 0.51169 0.63659 0.7305 0.0
O284 O 0.58172 0.65995 0.71579 0.0
Co285 Co 0.5302 0.61992 0.64334 0.0
O286 O 0.56037 0.61296 0.67969 0.0
C287 C 0.56567 0.68233 0.59907 0.0
C288 C 0.55997 0.72765 0.72318 0.0
C289 C 0.58085 0.63386 0.70651 0.0
O290 O 0.57359 0.69608 0.63936 0.0
O291 O 0.54664 0.65299 0.59378 0.0
O292 O 0.52985 0.65862 0.75956 0.0
O293 O 0.5188 0.64275 0.68675 0.0
Co294 Co 0.88757 0.54782 0.70413 0.0
O295 O 0.8424 0.52803 0.70207 0.0
O296 O 0.87378 0.57501 0.73178 0.0
C297 C 0.88872 0.50501 0.73064 0.0
O298 O 0.93493 0.57508 0.71607 0.0
Co299 Co 0.92406 0.52391 0.64361 0.0
O300 O 0.96093 0.5539 0.68061 0.0
C301 C 0.89651 0.55876 0.59918 0.0
C302 C 0.8453 0.55271 0.72314 0.0
C303 C 0.96025 0.57423 0.70746 0.0
O304 O 0.89058 0.5666 0.63945 0.0
O305 O 0.90714 0.53999 0.59394 0.0
O306 O 0.88462 0.52302 0.75968 0.0
O307 O 0.88963 0.5121 0.68687 0.0
Co308 Co 0.3535 0.88152 0.70375 0.0
O309 O 0.328 0.8364 0.70193 0.0
O310 O 0.31256 0.86797 0.73137 0.0
C311 C 0.39744 0.88256 0.7304 0.0
O312 O 0.37371 0.92887 0.71537 0.0
Co313 Co 0.41386 0.91768 0.64309 0.0
O314 O 0.42077 0.95477 0.67954 0.0
C315 C 0.35141 0.88987 0.59874 0.0
C316 C 0.30626 0.83945 0.72287 0.0
C317 C 0.39982 0.95417 0.70646 0.0
O318 O 0.33774 0.88444 0.63904 0.0
O319 O 0.38078 0.90027 0.59348 0.0
O320 O 0.37534 0.87862 0.75938 0.0
O321 O 0.39127 0.8834 0.6866 0.0
Co322 Co 0.48403 0.3466 0.70248 0.0
O323 O 0.50364 0.32108 0.70079 0.0
O324 O 0.45664 0.30572 0.73025 0.0
C325 C 0.52699 0.39051 0.72904 0.0
O326 O 0.45687 0.36682 0.71408 0.0
Co327 Co 0.50815 0.40691 0.64185 0.0
O328 O 0.47812 0.41394 0.67849 0.0
C329 C 0.47331 0.34448 0.59749 0.0
C330 C 0.47887 0.29941 0.72187 0.0
C331 C 0.45774 0.39297 0.70533 0.0
O332 O 0.46532 0.33078 0.63779 0.0
O333 O 0.49216 0.37386 0.59221 0.0
O334 O 0.5088 0.36846 0.75805 0.0
O335 O 0.51994 0.38434 0.68525 0.0
C336 C 0.43375 0.03919 0.27755 0.0
C337 C 0.43495 0.04017 0.22823 0.0
C338 C 0.41972 1.01041 0.30161 0.0
C339 C 0.40563 0.98168 0.27717 0.0
H340 H 0.44581 0.06071 0.29766 0.0
H341 H 0.42125 1.01064 0.33959 0.0
S342 S 0.39951 0.97168 0.14794 0.0
N343 N 0.41891 1.01007 0.15579 0.0
N344 N 0.39158 0.95608 0.20105 0.0
C345 C 0.40453 0.9824 0.22795 0.0
C346 C 0.41948 1.01165 0.20346 0.0
C347 C 0.43545 0.39925 0.22947 0.0
C348 C 0.43644 0.39919 0.27878 0.0
C349 C 0.42146 0.41408 0.20553 0.0
C350 C 0.40726 0.42858 0.23006 0.0
H351 H 0.44762 0.38993 0.2093 0.0
H352 H 0.42308 0.41551 0.16756 0.0
S353 S 0.40051 0.43155 0.35934 0.0
N354 N 0.42008 0.41274 0.35133 0.0
N355 N 0.39279 0.43955 0.3063 0.0
C356 C 0.40595 0.42646 0.27927 0.0
C357 C 0.42086 0.41207 0.30365 0.0
C358 C 0.99262 0.3989 0.27755 0.0
C359 C 0.99174 0.39898 0.22823 0.0
C360 C 0.02137 0.41361 0.30173 0.0
C361 C 0.05016 0.42807 0.27741 0.0
H362 H 0.97106 0.38962 0.29755 0.0
H363 H 0.02108 0.41503 0.33969 0.0
S364 S 0.06039 0.43143 0.14824 0.0
N365 N 0.02197 0.41262 0.15593 0.0
N366 N 0.0759 0.43923 0.20142 0.0
C367 C 0.04952 0.42606 0.22821 0.0
C368 C 0.02031 0.4118 0.20359 0.0
C369 C 0.60572 0.98586 0.27817 0.0
C370 C 0.60444 0.98495 0.22885 0.0
C371 C 0.61975 0.0146 0.30233 0.0
C372 C 0.63379 0.04336 0.27799 0.0
H373 H 0.59375 0.9643 0.29821 0.0
H374 H 0.61832 0.01433 0.34032 0.0
S375 S 0.63963 0.05355 0.14879 0.0
N376 N 0.6203 0.01516 0.1565 0.0
N377 N 0.64764 0.06908 0.20195 0.0
C378 C 0.63477 0.04272 0.22876 0.0
C379 C 0.6198 0.01351 0.20417 0.0
C380 C 0.60528 0.62709 0.23122 0.0
C381 C 0.60366 0.62637 0.28051 0.0
C382 C 0.61928 0.61238 0.20703 0.0
C383 C 0.63292 0.59723 0.23132 0.0
H384 H 0.59355 0.63694 0.21117 0.0
H385 H 0.6181 0.61153 0.16901 0.0
S386 S 0.63793 0.59202 0.36053 0.0
N387 N 0.61884 0.61134 0.35284 0.0
N388 N 0.64619 0.58475 0.30736 0.0
C389 C 0.63362 0.59855 0.28058 0.0
C390 C 0.61868 0.61282 0.30519 0.0
C391 C 1.01914 0.61193 0.2063 0.0
C392 C 0.04794 0.62614 0.23064 0.0
C393 C 0.9904 0.59805 0.23045 0.0
C394 C 0.98951 0.59718 0.27977 0.0
H395 H 1.01884 0.61016 0.16835 0.0
H396 H 0.96884 0.58578 0.21045 0.0
S397 S 0.05811 0.63325 0.35982 0.0
N398 N 0.07366 0.64081 0.30667 0.0
N399 N 1.0197 0.61374 0.35208 0.0
C400 C 1.01807 0.61286 0.30442 0.0
C401 C 0.0473 0.62764 0.27983 0.0
C402 C 0.60466 0.98559 0.73253 0.0
C403 C 0.60396 0.98488 0.78186 0.0
C404 C 0.61847 0.01423 0.70814 0.0
C405 C 0.63282 0.04311 0.73223 0.0
H406 H 0.59243 0.96396 0.7127 0.0
H407 H 0.61664 0.01379 0.67019 0.0
S408 S 0.64037 0.05376 0.86132 0.0
N409 N 0.62079 0.01533 0.85392 0.0
N410 N 0.64773 0.0691 0.80803 0.0
C411 C 0.63441 0.04264 0.78143 0.0
C412 C 0.61967 0.01352 0.80627 0.0
C413 C 0.61705 0.61044 0.80386 0.0
C414 C 0.63152 0.59625 0.77924 0.0
C415 C 0.60317 0.62541 0.78 0.0
C416 C 0.60256 0.62592 0.73069 0.0
H417 H 0.6152 0.60872 0.84179 0.0
H418 H 0.59083 0.63453 0.80018 0.0
S419 S 0.63907 0.59424 0.64998 0.0
N420 N 0.64651 0.58589 0.70297 0.0
N421 N 0.61939 0.61293 0.65809 0.0
C422 C 0.61831 0.61325 0.70577 0.0
C423 C 0.63312 0.59873 0.73007 0.0
C424 C 1.01832 0.61025 0.70733 0.0
C425 C 0.98973 0.59591 0.73216 0.0
C426 C 0.04725 0.62522 0.73099 0.0
C427 C 0.04854 0.62553 0.7803 0.0
H428 H 1.0183 0.60861 0.66937 0.0
H429 H 0.06866 0.63447 0.71062 0.0
S430 S 0.98056 0.59322 0.86151 0.0
N431 N 0.9646 0.58507 0.80862 0.0
N432 N 1.01891 0.61211 0.85314 0.0
C433 C 0.02018 0.61267 0.80545 0.0
C434 C 0.99076 0.59817 0.78135 0.0
C435 C 0.43617 0.04123 0.72983 0.0
C436 C 0.43617 0.04246 0.77913 0.0
C437 C 0.42248 1.01232 0.70614 0.0
C438 C 0.40759 0.98372 0.73091 0.0
H439 H 0.44885 0.06264 0.70962 0.0
H440 H 0.4248 1.01233 0.66829 0.0
S441 S 0.39856 0.97449 0.86008 0.0
N442 N 0.41843 1.01283 0.85179 0.0
N443 N 0.39166 0.95857 0.8072 0.0
C444 C 0.40542 0.98473 0.77998 0.0
C445 C 0.42003 0.01411 0.80413 0.0
C446 C 0.4078 0.43009 0.7297 0.0
C447 C 0.40615 0.42938 0.77899 0.0
C448 C 0.42286 0.41638 0.70564 0.0
C449 C 0.436 0.40077 0.72996 0.0
H450 H 0.39956 0.44335 0.70988 0.0
H451 H 0.42552 0.41926 0.66788 0.0
S452 S 0.4348 0.38961 0.8588 0.0
N453 N 0.4169 0.41008 0.85108 0.0
N454 N 0.44414 0.38335 0.80575 0.0
C455 C 0.43234 0.39786 0.77893 0.0
C456 C 0.41771 0.41246 0.80348 0.0
C457 C 1.0199 0.41444 0.70646 0.0
C458 C 0.0488 0.42837 0.73052 0.0
C459 C 0.99123 0.39954 0.73083 0.0
C460 C 0.99053 0.39881 0.78015 0.0
H461 H 1.01945 0.41641 0.66859 0.0
H462 H 0.96962 0.39074 0.7111 0.0
S463 S 0.0594 0.42931 0.85947 0.0
N464 N 0.07476 0.43795 0.80622 0.0
N465 N 0.02097 0.41097 0.85209 0.0
C466 C 1.01917 0.41101 0.80446 0.0
C467 C 0.0483 0.4255 0.77962 0.0
C468 C 0.50635 0.24143 0.24567 0.0
C469 C 0.47813 0.21311 0.23834 0.0
C470 C 0.50646 0.26841 0.26172 0.0
C471 C 0.47834 0.26852 0.27013 0.0
H472 H 0.5287 0.24272 0.23959 0.0
H473 H 0.52888 0.28954 0.2669 0.0
S474 S 0.39797 0.20063 0.25574 0.0
N475 N 0.42119 0.18677 0.24094 0.0
N476 N 0.42138 0.23783 0.26968 0.0
C477 C 0.44988 0.24048 0.2625 0.0
C478 C 0.44978 0.2127 0.24707 0.0
C479 C 0.22423 0.44639 0.26264 0.0
C480 C 0.22424 0.47463 0.2707 0.0
C481 C 0.25148 0.44645 0.24723 0.0
C482 C 0.27946 0.47472 0.23809 0.0
H483 H 0.20314 0.42412 0.26881 0.0
H484 H 0.25051 0.4242 0.24185 0.0
S485 S 0.29166 0.555 0.25291 0.0
N486 N 0.25478 0.53158 0.26825 0.0
N487 N 0.30537 0.53166 0.23845 0.0
C488 C 0.27961 0.50304 0.24563 0.0
C489 C 0.25219 0.503 0.26214 0.0
C490 C 0.79015 0.21679 0.26328 0.0
C491 C 0.76211 0.21709 0.27187 0.0
C492 C 0.81744 0.24394 0.24783 0.0
C493 C 0.81741 0.27209 0.23918 0.0
H494 H 0.79113 0.19556 0.26901 0.0
H495 H 0.83856 0.24274 0.24198 0.0
S496 S 0.74992 0.28509 0.25566 0.0
N497 N 0.73618 0.24811 0.27056 0.0
N498 N 0.78686 0.2985 0.2407 0.0
C499 C 0.78944 0.27254 0.24732 0.0
C500 C 0.76197 0.24523 0.26387 0.0
C501 C 0.53376 0.78329 0.2435 0.0
C502 C 0.56187 0.81217 0.23948 0.0
C503 C 0.53358 0.7563 0.25967 0.0
C504 C 0.56155 0.75678 0.27152 0.0
H505 H 0.51152 0.78152 0.23468 0.0
H506 H 0.51126 0.73472 0.26223 0.0
S507 S 0.64157 0.82626 0.26729 0.0
N508 N 0.61854 0.83965 0.24932 0.0
N509 N 0.61823 0.78857 0.2783 0.0
C510 C 0.58991 0.78536 0.26733 0.0
C511 C 0.59005 0.81313 0.25176 0.0
C512 C 0.78835 0.57893 0.24762 0.0
C513 C 0.76042 0.55075 0.23779 0.0
C514 C 0.81548 0.57883 0.2633 0.0
C515 C 0.81539 0.55053 0.27095 0.0
H516 H 0.78937 0.60123 0.24261 0.0
H517 H 0.83653 0.60105 0.26999 0.0
S518 S 0.74809 0.47034 0.25129 0.0
N519 N 0.7345 0.49381 0.23703 0.0
N520 N 0.78485 0.4936 0.26734 0.0
C521 C 0.7875 0.52225 0.26169 0.0
C522 C 0.76021 0.52236 0.24489 0.0
C523 C 0.22211 0.78081 0.24755 0.0
C524 C 0.22229 0.7528 0.23821 0.0
C525 C 0.24937 0.80797 0.2631 0.0
C526 C 0.27755 0.80783 0.27112 0.0
H527 H 0.20088 0.78189 0.24224 0.0
H528 H 0.24826 0.82908 0.26941 0.0
S529 S 0.29023 0.7403 0.25276 0.0
N530 N 0.25319 0.72675 0.23829 0.0
N531 N 0.3038 0.77714 0.26836 0.0
C532 C 0.27786 0.77985 0.26234 0.0
C533 C 0.25042 0.75253 0.24567 0.0
C534 C 0.53327 0.75713 0.74779 0.0
C535 C 0.5614 0.75709 0.7392 0.0
C536 C 0.53335 0.78403 0.76415 0.0
C537 C 0.56156 0.81233 0.7716 0.0
H538 H 0.51086 0.73601 0.74254 0.0
H539 H 0.511 0.7827 0.77038 0.0
S540 S 0.64175 0.82497 0.75379 0.0
N541 N 0.61836 0.78781 0.73959 0.0
N542 N 0.61851 0.83875 0.7689 0.0
C543 C 0.58993 0.81281 0.76267 0.0
C544 C 0.58985 0.78511 0.74694 0.0
C545 C 0.76212 0.52592 0.76358 0.0
C546 C 0.76192 0.55408 0.77079 0.0
C547 C 0.78903 0.52589 0.74747 0.0
C548 C 0.81718 0.55404 0.7389 0.0
H549 H 0.74112 0.50356 0.76981 0.0
H550 H 0.78783 0.50351 0.74239 0.0
S551 S 0.82937 0.63429 0.75289 0.0
N552 N 0.79233 0.611 0.76787 0.0
N553 N 0.84328 0.61097 0.73902 0.0
C554 C 0.81749 0.58244 0.74639 0.0
C555 C 0.78978 0.58246 0.76187 0.0
C556 C 0.27648 0.78312 0.74653 0.0
C557 C 0.27671 0.81144 0.7386 0.0
C558 C 0.24948 0.75627 0.76253 0.0
C559 C 0.22126 0.75629 0.77035 0.0
H560 H 0.29752 0.78173 0.741 0.0
H561 H 0.25069 0.73515 0.76821 0.0
S562 S 0.2091 0.82423 0.75424 0.0
N563 N 0.24625 0.83793 0.73993 0.0
N564 N 0.19512 0.78708 0.76867 0.0
C565 C 0.22096 0.78432 0.7621 0.0
C566 C 0.24877 0.81198 0.74666 0.0
C567 C 0.50554 0.26987 0.74629 0.0
C568 C 0.47741 0.26998 0.73799 0.0
C569 C 0.50544 0.24299 0.76271 0.0
C570 C 0.47723 0.21476 0.77057 0.0
H571 H 0.52796 0.29092 0.74073 0.0
H572 H 0.5278 0.24428 0.76863 0.0
S573 S 0.39705 0.20231 0.75366 0.0
N574 N 0.42044 0.2394 0.7391 0.0
N575 N 0.42027 0.18849 0.76858 0.0
C576 C 0.44886 0.21435 0.76198 0.0
C577 C 0.44895 0.24204 0.74614 0.0
C578 C 0.22285 0.44712 0.74676 0.0
C579 C 0.223 0.47538 0.73822 0.0
C580 C 0.25008 0.44712 0.76219 0.0
C581 C 0.27817 0.47538 0.77091 0.0
H582 H 0.20168 0.42486 0.74092 0.0
H583 H 0.24901 0.42486 0.76793 0.0
S584 S 0.29074 0.5557 0.75474 0.0
N585 N 0.25378 0.53232 0.73973 0.0
N586 N 0.30433 0.53233 0.76965 0.0
C587 C 0.27845 0.50372 0.76292 0.0
C588 C 0.25106 0.50372 0.74634 0.0
C589 C 0.81611 0.24373 0.76264 0.0
C590 C 0.81613 0.27192 0.77115 0.0
C591 C 0.78878 0.21658 0.74728 0.0
C592 C 0.76077 0.21691 0.73859 0.0
H593 H 0.83721 0.24251 0.76851 0.0
H594 H 0.78972 0.19531 0.74161 0.0
S595 S 0.74869 0.28498 0.75454 0.0
N596 N 0.78562 0.29838 0.76954 0.0
N597 N 0.7349 0.24797 0.73973 0.0
C598 C 0.76067 0.24507 0.74648 0.0
C599 C 0.78816 0.27239 0.763 0.0
C600 C 0.4369 0.113 0.02843 0.0
C601 C 0.45832 0.13942 0.05434 0.0
C602 C 0.43731 0.11343 0.97915 0.0
C603 C 0.45914 0.14031 0.95452 0.0
H604 H 0.42291 0.09071 0.04604 0.0
H605 H 0.4236 0.09147 0.96059 0.0
S606 S 0.51497 0.21736 0.00618 0.0
N607 N 0.49768 0.19459 0.05202 0.0
N608 N 0.49847 0.1954 0.95931 0.0
C609 C 0.47715 0.16807 0.97996 0.0
C610 C 0.47671 0.16764 0.03011 0.0
C611 C 0.32154 0.46958 0.98032 0.0
C612 C 0.33016 0.45071 0.95451 0.0
C613 C 0.32189 0.46943 0.02967 0.0
C614 C 0.33087 0.45043 0.0543 0.0
H615 H 0.31905 0.4877 0.96263 0.0
H616 H 0.31961 0.48743 0.04817 0.0
S617 S 0.34789 0.39157 1.00283 0.0
N618 N 0.34173 0.40835 0.95697 0.0
N619 N 0.34244 0.40812 0.04963 0.0
C620 C 0.3345 0.42804 0.02893 0.0
C621 C 0.33411 0.42816 0.97883 0.0
C622 C 0.86477 0.31443 0.98028 0.0
C623 C 0.89243 0.3231 0.95492 0.0
C624 C 0.86489 0.31448 0.02962 0.0
C625 C 0.89267 0.3232 0.05469 0.0
H626 H 0.84431 0.31211 0.96228 0.0
H627 H 0.84451 0.3122 0.04782 0.0
S628 S 0.96889 0.34027 0.00441 0.0
N629 N 0.94632 0.33448 0.95819 0.0
N630 N 0.94654 0.33458 0.05086 0.0
C631 C 0.91885 0.32686 0.02972 0.0
C632 C 0.91873 0.3268 0.97962 0.0
C633 C 0.60465 0.91291 0.03021 0.0
C634 C 0.58298 0.88627 0.05546 0.0
C635 C 0.60456 0.91295 0.98092 0.0
C636 C 0.58281 0.88636 0.95566 0.0
H637 H 0.6185 0.93503 0.04831 0.0
H638 H 0.61835 0.93512 0.96288 0.0
S639 S 0.52674 0.80878 0.00549 0.0
N640 N 0.54371 0.83111 0.05187 0.0
N641 N 0.54355 0.83119 0.95915 0.0
C642 C 0.56473 0.85832 0.98044 0.0
C643 C 0.56482 0.85827 0.0306 0.0
C644 C 0.70408 0.59746 0.02858 0.0
C645 C 0.70881 0.57576 0.05419 0.0
C646 C 0.70408 0.59722 0.97929 0.0
C647 C 0.70879 0.57527 0.95439 0.0
H648 H 0.69591 0.61149 0.04639 0.0
H649 H 0.69592 0.61109 0.96097 0.0
S650 S 0.72961 0.51896 0.00526 0.0
N651 N 0.72432 0.5362 0.05133 0.0
N652 N 0.72427 0.53572 0.95861 0.0
C653 C 0.71849 0.55711 0.97955 0.0
C654 C 0.71852 0.55737 0.0297 0.0
C655 C 0.17492 0.70871 0.98034 0.0
C656 C 0.14758 0.70031 0.95428 0.0
C657 C 0.17439 0.7089 0.02967 0.0
C658 C 0.14646 0.70053 0.05407 0.0
H659 H 0.19549 0.71087 0.96292 0.0
H660 H 0.19455 0.71112 0.04848 0.0
S661 S 0.07082 0.6837 1.0017 0.0
N662 N 0.09376 0.68921 0.95608 0.0
N663 N 0.0927 0.68939 0.04874 0.0
C664 C 0.12053 0.69686 0.02831 0.0
C665 C 0.1211 0.69675 0.97822 0.0
C666 C 0.91772 0.59282 0.52999 0.0
C667 C 0.89114 0.57112 0.55532 0.0
C668 C 0.91768 0.59275 0.48071 0.0
C669 C 0.89107 0.57099 0.45549 0.0
H670 H 0.93983 0.60688 0.54806 0.0
H671 H 0.93977 0.60677 0.46257 0.0
S672 S 0.81378 0.51421 0.50556 0.0
N673 N 0.83612 0.53132 0.55188 0.0
N674 N 0.83606 0.5312 0.45915 0.0
C675 C 0.86314 0.55254 0.48037 0.0
C676 C 0.86318 0.55261 0.53053 0.0
C677 C 0.32542 0.85676 0.52988 0.0
C678 C 0.33361 0.88441 0.55492 0.0
C679 C 0.32515 0.85654 0.48054 0.0
C680 C 0.33312 0.88399 0.45509 0.0
H681 H 0.32343 0.83653 0.54814 0.0
H682 H 0.323 0.83617 0.46254 0.0
S683 S 0.34956 0.96022 0.5045 0.0
N684 N 0.34438 0.93806 0.551 0.0
N685 N 0.34391 0.93767 0.45831 0.0
C686 C 0.33674 0.91025 0.4798 0.0
C687 C 0.337 0.91046 0.52991 0.0
C688 C 0.48043 0.3181 0.52916 0.0
C689 C 0.46106 0.32667 0.55367 0.0
C690 C 0.48069 0.31777 0.47983 0.0
C691 C 0.46156 0.32596 0.45384 0.0
H692 H 0.49842 0.31589 0.54783 0.0
H693 H 0.49888 0.31533 0.46224 0.0
S694 S 0.40214 0.34347 0.50174 0.0
N695 N 0.41866 0.33812 0.54867 0.0
N696 N 0.41909 0.33742 0.456 0.0
C697 C 0.43898 0.32996 0.47802 0.0
C698 C 0.43875 0.33035 0.52812 0.0
C699 C 0.17541 0.47161 0.52942 0.0
C700 C 0.14768 0.452 0.55424 0.0
C701 C 0.17567 0.47201 0.48009 0.0
C702 C 0.14823 0.45273 0.45445 0.0
H703 H 0.19558 0.48979 0.5479 0.0
H704 H 0.19604 0.49044 0.46234 0.0
S705 S 0.07203 0.39227 0.50308 0.0
N706 N 0.09412 0.40893 0.54978 0.0
N707 N 0.09462 0.40962 0.4571 0.0
C708 C 0.122 0.42977 0.47883 0.0
C709 C 0.12174 0.42939 0.52892 0.0
C710 C 0.7162 0.16868 0.48073 0.0
C711 C 0.70769 0.14109 0.45533 0.0
C712 C 0.71652 0.16862 0.53007 0.0
C713 C 0.70823 0.14094 0.55511 0.0
H714 H 0.7183 0.18906 0.46282 0.0
H715 H 0.71877 0.18894 0.54838 0.0
S716 S 0.69143 0.0649 0.50456 0.0
N717 N 0.6967 0.08735 0.4584 0.0
N718 N 0.69723 0.08722 0.55108 0.0
C719 C 0.70456 0.11481 0.53 0.0
C720 C 0.70425 0.11487 0.4799 0.0
C721 C 0.59976 0.69461 0.48078 0.0
C722 C 0.57823 0.69974 0.45542 0.0
C723 C 0.59979 0.69475 0.53006 0.0
C724 C 0.57828 0.7 0.55524 0.0
H725 H 0.61359 0.68628 0.46276 0.0
H726 H 0.61363 0.6865 0.54826 0.0
S727 S 0.52209 0.72125 0.50504 0.0
N728 N 0.53892 0.7156 0.45875 0.0
N729 N 0.53897 0.71584 0.55148 0.0
C730 C 0.56005 0.7097 0.53029 0.0
C731 C 0.56002 0.70957 0.48014 0.0
C732 C 0.56411 0.14142 0.28668 0.0
C733 C 0.55572 0.13991 0.23914 0.0
C734 C 0.59173 0.14173 0.3 0.0
C735 C 0.61218 0.14074 0.26629 0.0
H736 H 0.54952 0.14287 0.31391 0.0
H737 H 0.5974 0.14348 0.33703 0.0
S738 S 0.60007 0.13454 0.13724 0.0
N739 N 0.5695 0.13585 0.15826 0.0
N740 N 0.62126 0.13652 0.18341 0.0
C741 C 0.60366 0.13835 0.21873 0.0
C742 C 0.57549 0.13791 0.20513 0.0
C743 C 0.46384 0.58532 0.2978 0.0
C744 C 0.48489 0.60616 0.26406 0.0
C745 C 0.43661 0.55768 0.28454 0.0
C746 C 0.42935 0.5496 0.23699 0.0
H747 H 0.46805 0.59065 0.3349 0.0
H748 H 0.42092 0.54277 0.31186 0.0
S749 S 0.4777 0.59516 0.13482 0.0
N750 N 0.49727 0.61609 0.18098 0.0
N751 N 0.44626 0.56416 0.15594 0.0
C752 C 0.45066 0.56977 0.20286 0.0
C753 C 0.47835 0.59802 0.21641 0.0
C754 C 0.89175 0.45634 0.29866 0.0
C755 C 0.89198 0.47737 0.2649 0.0
C756 C 0.89211 0.42908 0.2854 0.0
C757 C 0.89291 0.42181 0.23785 0.0
H758 H 0.89059 0.46054 0.33575 0.0
H759 H 0.89125 0.41335 0.31272 0.0
S760 S 0.89589 0.47024 0.13566 0.0
N761 N 0.89454 0.48979 0.18183 0.0
N762 N 0.89537 0.43877 0.1568 0.0
C763 C 0.89414 0.44316 0.20371 0.0
C764 C 0.89362 0.47085 0.21726 0.0
C765 C 0.47561 0.88389 0.28591 0.0
C766 C 0.48386 0.88489 0.23842 0.0
C767 C 0.44798 0.88359 0.29901 0.0
C768 C 0.42736 0.88408 0.26512 0.0
H769 H 0.49035 0.88287 0.31331 0.0
H770 H 0.44246 0.88229 0.33605 0.0
S771 S 0.43897 0.88865 0.13601 0.0
N772 N 0.46973 0.88782 0.1573 0.0
N773 N 0.41789 0.88715 0.18205 0.0
C774 C 0.4357 0.88591 0.21756 0.0
C775 C 0.46391 0.88635 0.20417 0.0
C776 C 0.60345 0.4677 0.28381 0.0
C777 C 0.61069 0.47602 0.23634 0.0
C778 C 0.57624 0.43997 0.29685 0.0
C779 C 0.55522 0.41928 0.26295 0.0
H780 H 0.61913 0.48249 0.31125 0.0
H781 H 0.57204 0.43445 0.3339 0.0
S782 S 0.56234 0.43094 0.13384 0.0
N783 N 0.59376 0.46186 0.1552 0.0
N784 N 0.54281 0.40975 0.17983 0.0
C785 C 0.56173 0.42765 0.21539 0.0
C786 C 0.58938 0.456 0.20205 0.0
C787 C 0.14796 0.59612 0.28578 0.0
C788 C 0.14619 0.6029 0.23827 0.0
C789 C 0.14832 0.56885 0.29904 0.0
C790 C 0.14712 0.54735 0.26531 0.0
H791 H 0.14962 0.61225 0.31301 0.0
H792 H 0.1503 0.56504 0.33604 0.0
S793 S 0.14003 0.55288 0.13639 0.0
N794 N 0.14152 0.58482 0.15743 0.0
N795 N 0.14232 0.53379 0.18248 0.0
C796 C 0.1444 0.55332 0.2178 0.0
C797 C 0.14389 0.58102 0.20425 0.0
C798 C 0.47535 0.88405 0.72511 0.0
C799 C 0.48363 0.88519 0.77262 0.0
C800 C 0.44784 0.88396 0.71191 0.0
C801 C 0.42736 0.88483 0.74569 0.0
H802 H 0.48997 0.88277 0.69778 0.0
H803 H 0.44231 0.88255 0.67485 0.0
S804 S 0.43909 0.88986 0.8748 0.0
N805 N 0.46967 0.88862 0.85364 0.0
N806 N 0.41805 0.88836 0.8287 0.0
C807 C 0.43572 0.88677 0.79327 0.0
C808 C 0.46381 0.88699 0.80677 0.0
C809 C 0.60361 0.46821 0.72371 0.0
C810 C 0.61091 0.47635 0.77124 0.0
C811 C 0.57607 0.44082 0.71051 0.0
C812 C 0.55475 0.42033 0.74431 0.0
H813 H 0.61949 0.48287 0.69637 0.0
H814 H 0.57183 0.4354 0.67344 0.0
S815 S 0.56187 0.43171 0.87348 0.0
N816 N 0.59371 0.46224 0.85229 0.0
N817 N 0.54213 0.41086 0.82736 0.0
C818 C 0.56133 0.42856 0.79191 0.0
C819 C 0.58933 0.45652 0.8054 0.0
C820 C 0.14827 0.58535 0.7982 0.0
C821 C 0.14761 0.60588 0.76433 0.0
C822 C 0.14817 0.55783 0.78509 0.0
C823 C 0.14721 0.5496 0.73759 0.0
H824 H 0.14954 0.59084 0.83526 0.0
H825 H 0.14931 0.54315 0.81247 0.0
S826 S 0.1432 0.59433 0.63519 0.0
N827 N 0.14453 0.61532 0.68124 0.0
N828 N 0.1442 0.56367 0.65649 0.0
C829 C 0.1456 0.56946 0.70336 0.0
C830 C 0.14585 0.59756 0.71676 0.0
C831 C 0.60326 0.14253 0.78572 0.0
C832 C 0.61058 0.14162 0.73824 0.0
C833 C 0.57577 0.14253 0.79878 0.0
C834 C 0.55456 0.1418 0.76487 0.0
H835 H 0.61908 0.14371 0.81313 0.0
H836 H 0.57149 0.14376 0.83582 0.0
S837 S 0.56183 0.13748 0.63574 0.0
N838 N 0.59354 0.13859 0.6571 0.0
N839 N 0.54209 0.13872 0.68175 0.0
C840 C 0.56117 0.14009 0.7173 0.0
C841 C 0.5891 0.13995 0.70396 0.0
C842 C 0.43543 0.55865 0.72471 0.0
C843 C 0.42813 0.55035 0.77218 0.0
C844 C 0.46285 0.58619 0.7117 0.0
C845 C 0.48403 0.60668 0.74564 0.0
H846 H 0.41964 0.54401 0.69727 0.0
H847 H 0.4671 0.59172 0.67467 0.0
S848 S 0.47679 0.59496 0.87473 0.0
N849 N 0.44514 0.56432 0.85334 0.0
N850 N 0.49649 0.61603 0.82876 0.0
C851 C 0.47744 0.59831 0.79319 0.0
C852 C 0.44957 0.57018 0.80649 0.0
C853 C 0.89029 0.42873 0.72505 0.0
C854 C 0.89193 0.42179 0.7725 0.0
C855 C 0.89004 0.45606 0.71196 0.0
C856 C 0.89122 0.4775 0.7458 0.0
H857 H 0.88869 0.4127 0.69769 0.0
H858 H 0.88821 0.46 0.67496 0.0
S859 S 0.89779 0.47144 0.87471 0.0
N860 N 0.89633 0.43955 0.85348 0.0
N861 N 0.89572 0.49074 0.82873 0.0
C862 C 0.89373 0.47133 0.7933 0.0
C863 C 0.89413 0.44355 0.80668 0.0
loop_
_geom_bond_atom_site_label_1
_geom_bond_atom_site_label_2
_geom_bond_distance
_geom_bond_site_symmetry_2
_ccdc_geom_bond_type
Co0 O1 2.216 . S
Co0 O2 2.091 . S
Co0 O4 2.004 . S
Co0 O10 2.021 . S
Co0 O12 2.137 . S
Co0 O13 2.244 . S
O1 Co0 2.216 . S
O1 C8 1.247 . S
O2 Co0 2.091 . S
O2 C8 1.261 . S
C3 O12 1.247 . S
C3 O13 1.272 . S
O4 Co0 2.004 . S
O4 C9 1.259 . S
Co5 O6 2.061 . S
Co5 O11 2.052 . S
Co5 O13 2.135 . S
O6 Co5 2.061 . S
O6 C9 1.235 . S
C7 O10 1.238 . S
C7 O11 1.241 . S
C8 O1 1.247 . S
C8 O2 1.261 . S
C9 O4 1.259 . S
C9 O6 1.235 . S
O10 Co0 2.021 . S
O10 C7 1.238 . S
O11 Co5 2.052 . S
O11 C7 1.241 . S
O12 Co0 2.137 . S
O12 C3 1.247 . S
O13 Co0 2.244 . S
O13 C3 1.272 . S
O13 Co5 2.135 . S
Co14 O15 2.216 . S
Co14 O16 2.091 . S
Co14 O18 2.004 . S
Co14 O24 2.021 . S
Co14 O26 2.137 . S
Co14 O27 2.244 . S
O15 Co14 2.216 . S
O15 C22 1.247 . S
O16 Co14 2.091 . S
O16 C22 1.261 . S
C17 O26 1.247 . S
C17 O27 1.272 . S
O18 Co14 2.004 . S
O18 C23 1.259 . S
Co19 O20 2.061 . S
Co19 O25 2.052 . S
Co19 O27 2.135 . S
O20 Co19 2.061 . S
O20 C23 1.235 . S
C21 O24 1.238 . S
C21 O25 1.241 . S
C22 O15 1.247 . S
C22 O16 1.261 . S
C23 O18 1.259 . S
C23 O20 1.235 . S
O24 Co14 2.021 . S
O24 C21 1.238 . S
O25 Co19 2.052 . S
O25 C21 1.241 . S
O26 Co14 2.137 . S
O26 C17 1.247 . S
O27 Co14 2.244 . S
O27 C17 1.272 . S
O27 Co19 2.135 . S
Co28 O29 2.216 . S
Co28 O30 2.091 . S
Co28 O32 2.004 . S
Co28 O38 2.021 . S
Co28 O40 2.137 . S
Co28 O41 2.244 . S
O29 Co28 2.216 . S
O29 C36 1.247 . S
O30 Co28 2.091 . S
O30 C36 1.261 . S
C31 O40 1.247 . S
C31 O41 1.272 . S
O32 Co28 2.004 . S
O32 C37 1.259 . S
Co33 O34 2.061 . S
Co33 O39 2.052 . S
Co33 O41 2.135 . S
O34 Co33 2.061 . S
O34 C37 1.235 . S
C35 O38 1.238 . S
C35 O39 1.241 . S
C36 O29 1.247 . S
C36 O30 1.261 . S
C37 O32 1.259 . S
C37 O34 1.235 . S
O38 Co28 2.021 . S
O38 C35 1.238 . S
O39 Co33 2.052 . S
O39 C35 1.241 . S
O40 Co28 2.137 . S
O40 C31 1.247 . S
O41 Co28 2.244 . S
O41 C31 1.272 . S
O41 Co33 2.135 . S
Co42 O43 2.216 . S
Co42 O44 2.091 . S
Co42 O46 2.004 . S
Co42 O52 2.021 . S
Co42 O54 2.137 . S
Co42 O55 2.244 . S
O43 Co42 2.216 . S
O43 C50 1.247 . S
O44 Co42 2.091 . S
O44 C50 1.261 . S
C45 O54 1.247 . S
C45 O55 1.272 . S
O46 Co42 2.004 . S
O46 C51 1.259 . S
Co47 O48 2.061 . S
Co47 O53 2.052 . S
Co47 O55 2.135 . S
O48 Co47 2.061 . S
O48 C51 1.235 . S
C49 O52 1.238 . S
C49 O53 1.241 . S
C50 O43 1.247 . S
C50 O44 1.261 . S
C51 O46 1.259 . S
C51 O48 1.235 . S
O52 Co42 2.021 . S
O52 C49 1.238 . S
O53 Co47 2.052 . S
O53 C49 1.241 . S
O54 Co42 2.137 . S
O54 C45 1.247 . S
O55 Co42 2.244 . S
O55 C45 1.272 . S
O55 Co47 2.135 . S
Co56 O57 2.216 . S
Co56 O58 2.091 . S
Co56 O60 2.004 . S
Co56 O66 2.021 . S
Co56 O68 2.137 . S
Co56 O69 2.244 . S
O57 Co56 2.216 . S
O57 C64 1.247 . S
O58 Co56 2.091 . S
O58 C64 1.261 . S
C59 O68 1.247 . S
C59 O69 1.272 . S
O60 Co56 2.004 . S
O60 C65 1.259 . S
Co61 O62 2.061 . S
Co61 O67 2.052 . S
Co61 O69 2.135 . S
O62 Co61 2.061 . S
O62 C65 1.235 . S
C63 O66 1.238 . S
C63 O67 1.241 . S
C64 O57 1.247 . S
C64 O58 1.261 . S
C65 O60 1.259 . S
C65 O62 1.235 . S
O66 Co56 2.021 . S
O66 C63 1.238 . S
O67 Co61 2.052 . S
O67 C63 1.241 . S
O68 Co56 2.137 . S
O68 C59 1.247 . S
O69 Co56 2.244 . S
O69 C59 1.272 . S
O69 Co61 2.135 . S
Co70 O71 2.216 . S
Co70 O72 2.091 . S
Co70 O74 2.004 . S
Co70 O80 2.021 . S
Co70 O82 2.137 . S
Co70 O83 2.244 . S
O71 Co70 2.216 . S
O71 C78 1.247 . S
O72 Co70 2.091 . S
O72 C78 1.261 . S
C73 O82 1.247 . S
C73 O83 1.272 . S
O74 Co70 2.004 . S
O74 C79 1.259 . S
Co75 O76 2.061 . S
Co75 O81 2.052 . S
Co75 O83 2.135 . S
O76 Co75 2.061 . S
O76 C79 1.235 . S
C77 O80 1.238 . S
C77 O81 1.241 . S
C78 O71 1.247 . S
C78 O72 1.261 . S
C79 O74 1.259 . S
C79 O76 1.235 . S
O80 Co70 2.021 . S
O80 C77 1.238 . S
O81 Co75 2.052 . S
O81 C77 1.241 . S
O82 Co70 2.137 . S
O82 C73 1.247 . S
O83 Co70 2.244 . S
O83 C73 1.272 . S
O83 Co75 2.135 . S
Co84 O85 2.216 . S
Co84 O86 2.091 . S
Co84 O88 2.004 . S
Co84 O94 2.021 . S
Co84 O96 2.137 . S
Co84 O97 2.244 . S
O85 Co84 2.216 . S
O85 C92 1.247 . S
O86 Co84 2.091 . S
O86 C92 1.261 . S
C87 O96 1.247 . S
C87 O97 1.272 . S
O88 Co84 2.004 . S
O88 C93 1.259 . S
Co89 O90 2.061 . S
Co89 O95 2.052 . S
Co89 O97 2.135 . S
O90 Co89 2.061 . S
O90 C93 1.235 . S
C91 O94 1.238 . S
C91 O95 1.241 . S
C92 O85 1.247 . S
C92 O86 1.261 . S
C93 O88 1.259 . S
C93 O90 1.235 . S
O94 Co84 2.021 . S
O94 C91 1.238 . S
O95 Co89 2.052 . S
O95 C91 1.241 . S
O96 Co84 2.137 . S
O96 C87 1.247 . S
O97 Co84 2.244 . S
O97 C87 1.272 . S
O97 Co89 2.135 . S
Co98 O99 2.216 . S
Co98 O100 2.091 . S
Co98 O102 2.004 . S
Co98 O108 2.021 . S
Co98 O110 2.137 . S
Co98 O111 2.244 . S
O99 Co98 2.216 . S
O99 C106 1.247 . S
O100 Co98 2.091 . S
O100 C106 1.261 . S
C101 O110 1.247 . S
C101 O111 1.272 . S
O102 Co98 2.004 . S
O102 C107 1.259 . S
Co103 O104 2.061 . S
Co103 O109 2.052 . S
Co103 O111 2.135 . S
O104 Co103 2.061 . S
O104 C107 1.235 . S
C105 O108 1.238 . S
C105 O109 1.241 . S
C106 O99 1.247 . S
C106 O100 1.261 . S
C107 O102 1.259 . S
C107 O104 1.235 . S
O108 Co98 2.021 . S
O108 C105 1.238 . S
O109 Co103 2.052 . S
O109 C105 1.241 . S
O110 Co98 2.137 . S
O110 C101 1.247 . S
O111 Co98 2.244 . S
O111 C101 1.272 . S
O111 Co103 2.135 . S
Co112 O113 2.216 . S
Co112 O114 2.091 . S
Co112 O116 2.004 . S
Co112 O122 2.021 . S
Co112 O124 2.137 . S
Co112 O125 2.244 . S
O113 Co112 2.216 . S
O113 C120 1.247 . S
O114 Co112 2.091 . S
O114 C120 1.261 . S
C115 O124 1.247 . S
C115 O125 1.272 . S
O116 Co112 2.004 . S
O116 C121 1.259 . S
Co117 O118 2.061 . S
Co117 O123 2.052 . S
Co117 O125 2.135 . S
O118 Co117 2.061 . S
O118 C121 1.235 . S
C119 O122 1.238 . S
C119 O123 1.241 . S
C120 O113 1.247 . S
C120 O114 1.261 . S
C121 O116 1.259 . S
C121 O118 1.235 . S
O122 Co112 2.021 . S
O122 C119 1.238 . S
O123 Co117 2.052 . S
O123 C119 1.241 . S
O124 Co112 2.137 . S
O124 C115 1.247 . S
O125 Co112 2.244 . S
O125 C115 1.272 . S
O125 Co117 2.135 . S
Co126 O127 2.216 . S
Co126 O128 2.091 . S
Co126 O130 2.004 . S
Co126 O136 2.021 . S
Co126 O138 2.137 . S
Co126 O139 2.244 . S
O127 Co126 2.216 . S
O127 C134 1.247 . S
O128 Co126 2.091 . S
O128 C134 1.261 . S
C129 O138 1.247 . S
C129 O139 1.272 . S
O130 Co126 2.004 . S
O130 C135 1.259 . S
Co131 O132 2.061 . S
Co131 O137 2.052 . S
Co131 O139 2.135 . S
O132 Co131 2.061 . S
O132 C135 1.235 . S
C133 O136 1.238 . S
C133 O137 1.241 . S
C134 O127 1.247 . S
C134 O128 1.261 . S
C135 O130 1.259 . S
C135 O132 1.235 . S
O136 Co126 2.021 . S
O136 C133 1.238 . S
O137 Co131 2.052 . S
O137 C133 1.241 . S
O138 Co126 2.137 . S
O138 C129 1.247 . S
O139 Co126 2.244 . S
O139 C129 1.272 . S
O139 Co131 2.135 . S
Co140 O141 2.216 . S
Co140 O142 2.091 . S
Co140 O144 2.004 . S
Co140 O150 2.021 . S
Co140 O152 2.137 . S
Co140 O153 2.244 . S
O141 Co140 2.216 . S
O141 C148 1.247 . S
O142 Co140 2.091 . S
O142 C148 1.261 . S
C143 O152 1.247 . S
C143 O153 1.272 . S
O144 Co140 2.004 . S
O144 C149 1.259 . S
Co145 O146 2.061 . S
Co145 O151 2.052 . S
Co145 O153 2.135 . S
O146 Co145 2.061 . S
O146 C149 1.235 . S
C147 O150 1.238 . S
C147 O151 1.241 . S
C148 O141 1.247 . S
C148 O142 1.261 . S
C149 O144 1.259 . S
C149 O146 1.235 . S
O150 Co140 2.021 . S
O150 C147 1.238 . S
O151 Co145 2.052 . S
O151 C147 1.241 . S
O152 Co140 2.137 . S
O152 C143 1.247 . S
O153 Co140 2.244 . S
O153 C143 1.272 . S
O153 Co145 2.135 . S
Co154 O155 2.216 . S
Co154 O156 2.091 . S
Co154 O158 2.004 . S
Co154 O164 2.021 . S
Co154 O166 2.137 . S
Co154 O167 2.244 . S
O155 Co154 2.216 . S
O155 C162 1.247 . S
O156 Co154 2.091 . S
O156 C162 1.261 . S
C157 O166 1.247 . S
C157 O167 1.272 . S
O158 Co154 2.004 . S
O158 C163 1.259 . S
Co159 O160 2.061 . S
Co159 O165 2.052 . S
Co159 O167 2.135 . S
O160 Co159 2.061 . S
O160 C163 1.235 . S
C161 O164 1.238 . S
C161 O165 1.241 . S
C162 O155 1.247 . S
C162 O156 1.261 . S
C163 O158 1.259 . S
C163 O160 1.235 . S
O164 Co154 2.021 . S
O164 C161 1.238 . S
O165 Co159 2.052 . S
O165 C161 1.241 . S
O166 Co154 2.137 . S
O166 C157 1.247 . S
O167 Co154 2.244 . S
O167 C157 1.272 . S
O167 Co159 2.135 . S
Co168 O169 2.216 . S
Co168 O170 2.091 . S
Co168 O172 2.004 . S
Co168 O178 2.021 . S
Co168 O180 2.137 . S
Co168 O181 2.244 . S
O169 Co168 2.216 . S
O169 C176 1.247 . S
O170 Co168 2.091 . S
O170 C176 1.261 . S
C171 O180 1.247 . S
C171 O181 1.272 . S
O172 Co168 2.004 . S
O172 C177 1.259 . S
Co173 O174 2.061 . S
Co173 O179 2.052 . S
Co173 O181 2.135 . S
O174 Co173 2.061 . S
O174 C177 1.235 . S
C175 O178 1.238 . S
C175 O179 1.241 . S
C176 O169 1.247 . S
C176 O170 1.261 . S
C177 O172 1.259 . S
C177 O174 1.235 . S
O178 Co168 2.021 . S
O178 C175 1.238 . S
O179 Co173 2.052 . S
O179 C175 1.241 . S
O180 Co168 2.137 . S
O180 C171 1.247 . S
O181 Co168 2.244 . S
O181 C171 1.272 . S
O181 Co173 2.135 . S
Co182 O183 2.216 . S
Co182 O184 2.091 . S
Co182 O186 2.004 . S
Co182 O192 2.021 . S
Co182 O194 2.137 . S
Co182 O195 2.244 . S
O183 Co182 2.216 . S
O183 C190 1.247 . S
O184 Co182 2.091 . S
O184 C190 1.261 . S
C185 O194 1.247 . S
C185 O195 1.272 . S
O186 Co182 2.004 . S
O186 C191 1.259 . S
Co187 O188 2.061 . S
Co187 O193 2.052 . S
Co187 O195 2.135 . S
O188 Co187 2.061 . S
O188 C191 1.235 . S
C189 O192 1.238 . S
C189 O193 1.241 . S
C190 O183 1.247 . S
C190 O184 1.261 . S
C191 O186 1.259 . S
C191 O188 1.235 . S
O192 Co182 2.021 . S
O192 C189 1.238 . S
O193 Co187 2.052 . S
O193 C189 1.241 . S
O194 Co182 2.137 . S
O194 C185 1.247 . S
O195 Co182 2.244 . S
O195 C185 1.272 . S
O195 Co187 2.135 . S
Co196 O197 2.216 . S
Co196 O198 2.091 . S
Co196 O200 2.004 . S
Co196 O206 2.021 . S
Co196 O208 2.137 . S
Co196 O209 2.244 . S
O197 Co196 2.216 . S
O197 C204 1.247 . S
O198 Co196 2.091 . S
O198 C204 1.261 . S
C199 O208 1.247 . S
C199 O209 1.272 . S
O200 Co196 2.004 . S
O200 C205 1.259 . S
Co201 O202 2.061 . S
Co201 O207 2.052 . S
Co201 O209 2.135 . S
O202 Co201 2.061 . S
O202 C205 1.235 . S
C203 O206 1.238 . S
C203 O207 1.241 . S
C204 O197 1.247 . S
C204 O198 1.261 . S
C205 O200 1.259 . S
C205 O202 1.235 . S
O206 Co196 2.021 . S
O206 C203 1.238 . S
O207 Co201 2.052 . S
O207 C203 1.241 . S
O208 Co196 2.137 . S
O208 C199 1.247 . S
O209 Co196 2.244 . S
O209 C199 1.272 . S
O209 Co201 2.135 . S
Co210 O211 2.216 . S
Co210 O212 2.091 . S
Co210 O214 2.004 . S
Co210 O220 2.021 . S
Co210 O222 2.137 . S
Co210 O223 2.244 . S
O211 Co210 2.216 . S
O211 C218 1.247 . S
O212 Co210 2.091 . S
O212 C218 1.261 . S
C213 O222 1.247 . S
C213 O223 1.272 . S
O214 Co210 2.004 . S
O214 C219 1.259 . S
Co215 O216 2.061 . S
Co215 O221 2.052 . S
Co215 O223 2.135 . S
O216 Co215 2.061 . S
O216 C219 1.235 . S
C217 O220 1.238 . S
C217 O221 1.241 . S
C218 O211 1.247 . S
C218 O212 1.261 . S
C219 O214 1.259 . S
C219 O216 1.235 . S
O220 Co210 2.021 . S
O220 C217 1.238 . S
O221 Co215 2.052 . S
O221 C217 1.241 . S
O222 Co210 2.137 . S
O222 C213 1.247 . S
O223 Co210 2.244 . S
O223 C213 1.272 . S
O223 Co215 2.135 . S
Co224 O225 2.216 . S
Co224 O226 2.091 . S
Co224 O228 2.004 . S
Co224 O234 2.021 . S
Co224 O236 2.137 . S
Co224 O237 2.244 . S
O225 Co224 2.216 . S
O225 C232 1.247 . S
O226 Co224 2.091 . S
O226 C232 1.261 . S
C227 O236 1.247 . S
C227 O237 1.272 . S
O228 Co224 2.004 . S
O228 C233 1.259 . S
Co229 O230 2.061 . S
Co229 O235 2.052 . S
Co229 O237 2.135 . S
O230 Co229 2.061 . S
O230 C233 1.235 . S
C231 O234 1.238 . S
C231 O235 1.241 . S
C232 O225 1.247 . S
C232 O226 1.261 . S
C233 O228 1.259 . S
C233 O230 1.235 . S
O234 Co224 2.021 . S
O234 C231 1.238 . S
O235 Co229 2.052 . S
O235 C231 1.241 . S
O236 Co224 2.137 . S
O236 C227 1.247 . S
O237 Co224 2.244 . S
O237 C227 1.272 . S
O237 Co229 2.135 . S
Co238 O239 2.216 . S
Co238 O240 2.091 . S
Co238 O242 2.004 . S
Co238 O248 2.021 . S
Co238 O250 2.137 . S
Co238 O251 2.244 . S
O239 Co238 2.216 . S
O239 C246 1.247 . S
O240 Co238 2.091 . S
O240 C246 1.261 . S
C241 O250 1.247 . S
C241 O251 1.272 . S
O242 Co238 2.004 . S
O242 C247 1.259 . S
Co243 O244 2.061 . S
Co243 O249 2.052 . S
Co243 O251 2.135 . S
O244 Co243 2.061 . S
O244 C247 1.235 . S
C245 O248 1.238 . S
C245 O249 1.241 . S
C246 O239 1.247 . S
C246 O240 1.261 . S
C247 O242 1.259 . S
C247 O244 1.235 . S
O248 Co238 2.021 . S
O248 C245 1.238 . S
O249 Co243 2.052 . S
O249 C245 1.241 . S
O250 Co238 2.137 . S
O250 C241 1.247 . S
O251 Co238 2.244 . S
O251 C241 1.272 . S
O251 Co243 2.135 . S
Co252 O253 2.216 . S
Co252 O254 2.091 . S
Co252 O256 2.004 . S
Co252 O262 2.021 . S
Co252 O264 2.137 . S
Co252 O265 2.244 . S
O253 Co252 2.216 . S
O253 C260 1.247 . S
O254 Co252 2.091 . S
O254 C260 1.261 . S
C255 O264 1.247 . S
C255 O265 1.272 . S
O256 Co252 2.004 . S
O256 C261 1.259 . S
Co257 O258 2.061 . S
Co257 O263 2.052 . S
Co257 O265 2.135 . S
O258 Co257 2.061 . S
O258 C261 1.235 . S
C259 O262 1.238 . S
C259 O263 1.241 . S
C260 O253 1.247 . S
C260 O254 1.261 . S
C261 O256 1.259 . S
C261 O258 1.235 . S
O262 Co252 2.021 . S
O262 C259 1.238 . S
O263 Co257 2.052 . S
O263 C259 1.241 . S
O264 Co252 2.137 . S
O264 C255 1.247 . S
O265 Co252 2.244 . S
O265 C255 1.272 . S
O265 Co257 2.135 . S
Co266 O267 2.216 . S
Co266 O268 2.091 . S
Co266 O270 2.004 . S
Co266 O276 2.021 . S
Co266 O278 2.137 . S
Co266 O279 2.244 . S
O267 Co266 2.216 . S
O267 C274 1.247 . S
O268 Co266 2.091 . S
O268 C274 1.261 . S
C269 O278 1.247 . S
C269 O279 1.272 . S
O270 Co266 2.004 . S
O270 C275 1.259 . S
Co271 O272 2.061 . S
Co271 O277 2.052 . S
Co271 O279 2.135 . S
O272 Co271 2.061 . S
O272 C275 1.235 . S
C273 O276 1.238 . S
C273 O277 1.241 . S
C274 O267 1.247 . S
C274 O268 1.261 . S
C275 O270 1.259 . S
C275 O272 1.235 . S
O276 Co266 2.021 . S
O276 C273 1.238 . S
O277 Co271 2.052 . S
O277 C273 1.241 . S
O278 Co266 2.137 . S
O278 C269 1.247 . S
O279 Co266 2.244 . S
O279 C269 1.272 . S
O279 Co271 2.135 . S
Co280 O281 2.216 . S
Co280 O282 2.091 . S
Co280 O284 2.004 . S
Co280 O290 2.021 . S
Co280 O292 2.137 . S
Co280 O293 2.244 . S
O281 Co280 2.216 . S
O281 C288 1.247 . S
O282 Co280 2.091 . S
O282 C288 1.261 . S
C283 O292 1.247 . S
C283 O293 1.272 . S
O284 Co280 2.004 . S
O284 C289 1.259 . S
Co285 O286 2.061 . S
Co285 O291 2.052 . S
Co285 O293 2.135 . S
O286 Co285 2.061 . S
O286 C289 1.235 . S
C287 O290 1.238 . S
C287 O291 1.241 . S
C288 O281 1.247 . S
C288 O282 1.261 . S
C289 O284 1.259 . S
C289 O286 1.235 . S
O290 Co280 2.021 . S
O290 C287 1.238 . S
O291 Co285 2.052 . S
O291 C287 1.241 . S
O292 Co280 2.137 . S
O292 C283 1.247 . S
O293 Co280 2.244 . S
O293 C283 1.272 . S
O293 Co285 2.135 . S
Co294 O295 2.216 . S
Co294 O296 2.091 . S
Co294 O298 2.004 . S
Co294 O304 2.021 . S
Co294 O306 2.137 . S
Co294 O307 2.244 . S
O295 Co294 2.216 . S
O295 C302 1.247 . S
O296 Co294 2.091 . S
O296 C302 1.261 . S
C297 O306 1.247 . S
C297 O307 1.272 . S
O298 Co294 2.004 . S
O298 C303 1.259 . S
Co299 O300 2.061 . S
Co299 O305 2.052 . S
Co299 O307 2.135 . S
O300 Co299 2.061 . S
O300 C303 1.235 . S
C301 O304 1.238 . S
C301 O305 1.241 . S
C302 O295 1.247 . S
C302 O296 1.261 . S
C303 O298 1.259 . S
C303 O300 1.235 . S
O304 Co294 2.021 . S
O304 C301 1.238 . S
O305 Co299 2.052 . S
O305 C301 1.241 . S
O306 Co294 2.137 . S
O306 C297 1.247 . S
O307 Co294 2.244 . S
O307 C297 1.272 . S
O307 Co299 2.135 . S
Co308 O309 2.216 . S
Co308 O310 2.091 . S
Co308 O312 2.004 . S
Co308 O318 2.021 . S
Co308 O320 2.137 . S
Co308 O321 2.244 . S
O309 Co308 2.216 . S
O309 C316 1.247 . S
O310 Co308 2.091 . S
O310 C316 1.261 . S
C311 O320 1.247 . S
C311 O321 1.272 . S
O312 Co308 2.004 . S
O312 C317 1.259 . S
Co313 O314 2.061 . S
Co313 O319 2.052 . S
Co313 O321 2.135 . S
O314 Co313 2.061 . S
O314 C317 1.235 . S
C315 O318 1.238 . S
C315 O319 1.241 . S
C316 O309 1.247 . S
C316 O310 1.261 . S
C317 O312 1.259 . S
C317 O314 1.235 . S
O318 Co308 2.021 . S
O318 C315 1.238 . S
O319 Co313 2.052 . S
O319 C315 1.241 . S
O320 Co308 2.137 . S
O320 C311 1.247 . S
O321 Co308 2.244 . S
O321 C311 1.272 . S
O321 Co313 2.135 . S
Co322 O323 2.216 . S
Co322 O324 2.091 . S
Co322 O326 2.004 . S
Co322 O332 2.021 . S
Co322 O334 2.137 . S
Co322 O335 2.244 . S
O323 Co322 2.216 . S
O323 C330 1.247 . S
O324 Co322 2.091 . S
O324 C330 1.261 . S
C325 O334 1.247 . S
C325 O335 1.272 . S
O326 Co322 2.004 . S
O326 C331 1.259 . S
Co327 O328 2.061 . S
Co327 O333 2.052 . S
Co327 O335 2.135 . S
O328 Co327 2.061 . S
O328 C331 1.235 . S
C329 O332 1.238 . S
C329 O333 1.241 . S
C330 O323 1.247 . S
C330 O324 1.261 . S
C331 O326 1.259 . S
C331 O328 1.235 . S
O332 Co322 2.021 . S
O332 C329 1.238 . S
O333 Co327 2.052 . S
O333 C329 1.241 . S
O334 Co322 2.137 . S
O334 C325 1.247 . S
O335 Co322 2.244 . S
O335 C325 1.272 . S
O335 Co327 2.135 . S
C336 C337 1.369 . S
C336 C338 1.419 1_545 S
C336 H340 0.930 . S
C337 C336 1.369 . S
C337 C346 1.429 . S
C338 C336 1.419 1_565 S
C338 C339 1.363 . S
C338 H341 0.929 . S
C339 C338 1.363 . S
C339 C345 1.428 . S
H340 C336 0.930 . S
H341 C338 0.929 . S
S342 N343 1.613 1_565 S
S342 N344 1.610 . S
N343 S342 1.613 1_545 S
N343 C346 1.350 . S
N344 S342 1.610 . S
N344 C345 1.351 . S
C345 C339 1.428 . S
C345 N344 1.351 . S
C345 C346 1.434 1_565 S
C346 C337 1.429 . S
C346 N343 1.350 . S
C346 C345 1.434 1_545 S
C347 C348 1.369 . S
C347 C349 1.419 . S
C347 H351 0.930 . S
C348 C347 1.369 . S
C348 C357 1.429 . S
C349 C347 1.419 . S
C349 C350 1.363 . S
C349 H352 0.929 . S
C350 C349 1.363 . S
C350 C356 1.428 . S
H351 C347 0.930 . S
H352 C349 0.929 . S
S353 N354 1.613 . S
S353 N355 1.610 . S
N354 S353 1.613 . S
N354 C357 1.350 . S
N355 S353 1.610 . S
N355 C356 1.351 . S
C356 C350 1.428 . S
C356 N355 1.351 . S
C356 C357 1.434 . S
C357 C348 1.429 . S
C357 N354 1.350 . S
C357 C356 1.434 . S
C358 C359 1.369 . S
C358 C360 1.419 1_655 S
C358 H362 0.930 . S
C359 C358 1.369 . S
C359 C368 1.429 . S
C360 C358 1.419 1_455 S
C360 C361 1.363 . S
C360 H363 0.929 . S
C361 C360 1.363 . S
C361 C367 1.428 . S
H362 C358 0.930 . S
H363 C360 0.929 . S
S364 N365 1.613 1_455 S
S364 N366 1.610 . S
N365 S364 1.613 1_655 S
N365 C368 1.350 . S
N366 S364 1.610 . S
N366 C367 1.351 . S
C367 C361 1.428 . S
C367 N366 1.351 . S
C367 C368 1.434 1_455 S
C368 C359 1.429 . S
C368 N365 1.350 . S
C368 C367 1.434 1_655 S
C369 C370 1.369 . S
C369 C371 1.419 1_565 S
C369 H373 0.930 . S
C370 C369 1.369 . S
C370 C379 1.429 . S
C371 C369 1.419 1_545 S
C371 C372 1.363 . S
C371 H374 0.929 . S
C372 C371 1.363 . S
C372 C378 1.428 . S
H373 C369 0.930 . S
H374 C371 0.929 . S
S375 N376 1.613 1_545 S
S375 N377 1.610 . S
N376 S375 1.613 1_565 S
N376 C379 1.350 . S
N377 S375 1.610 . S
N377 C378 1.351 . S
C378 C372 1.428 . S
C378 N377 1.351 . S
C378 C379 1.434 1_545 S
C379 C370 1.429 . S
C379 N376 1.350 . S
C379 C378 1.434 1_565 S
C380 C381 1.369 . S
C380 C382 1.419 . S
C380 H384 0.930 . S
C381 C380 1.369 . S
C381 C390 1.429 . S
C382 C380 1.419 . S
C382 C383 1.363 . S
C382 H385 0.929 . S
C383 C382 1.363 . S
C383 C389 1.428 . S
H384 C380 0.930 . S
H385 C382 0.929 . S
S386 N387 1.613 . S
S386 N388 1.610 . S
N387 S386 1.613 . S
N387 C390 1.350 . S
N388 S386 1.610 . S
N388 C389 1.351 . S
C389 C383 1.428 . S
C389 N388 1.351 . S
C389 C390 1.434 . S
C390 C381 1.429 . S
C390 N387 1.350 . S
C390 C389 1.434 . S
C391 C392 1.369 . S
C391 C393 1.419 1_455 S
C391 H395 0.930 . S
C392 C391 1.369 . S
C392 C401 1.429 . S
C393 C391 1.419 1_655 S
C393 C394 1.363 . S
C393 H396 0.929 . S
C394 C393 1.363 . S
C394 C400 1.428 . S
H395 C391 0.930 . S
H396 C393 0.929 . S
S397 N398 1.613 . S
S397 N399 1.610 1_455 S
N398 S397 1.613 . S
N398 C401 1.350 . S
N399 S397 1.610 1_655 S
N399 C400 1.351 . S
C400 C394 1.428 . S
C400 N399 1.351 . S
C400 C401 1.434 1_655 S
C401 C392 1.429 . S
C401 N398 1.350 . S
C401 C400 1.434 1_455 S
C402 C403 1.369 . S
C402 C404 1.419 1_565 S
C402 H406 0.930 . S
C403 C402 1.369 . S
C403 C412 1.429 . S
C404 C402 1.419 1_545 S
C404 C405 1.363 . S
C404 H407 0.929 . S
C405 C404 1.363 . S
C405 C411 1.428 . S
H406 C402 0.930 . S
H407 C404 0.929 . S
S408 N409 1.613 1_545 S
S408 N410 1.610 . S
N409 S408 1.613 1_565 S
N409 C412 1.350 . S
N410 S408 1.610 . S
N410 C411 1.351 . S
C411 C405 1.428 . S
C411 N410 1.351 . S
C411 C412 1.434 1_545 S
C412 C403 1.429 . S
C412 N409 1.350 . S
C412 C411 1.434 1_565 S
C413 C414 1.369 . S
C413 C415 1.419 . S
C413 H417 0.930 . S
C414 C413 1.369 . S
C414 C423 1.429 . S
C415 C413 1.419 . S
C415 C416 1.363 . S
C415 H418 0.929 . S
C416 C415 1.363 . S
C416 C422 1.428 . S
H417 C413 0.930 . S
H418 C415 0.929 . S
S419 N420 1.613 . S
S419 N421 1.610 . S
N420 S419 1.613 . S
N420 C423 1.350 . S
N421 S419 1.610 . S
N421 C422 1.351 . S
C422 C416 1.428 . S
C422 N421 1.351 . S
C422 C423 1.434 . S
C423 C414 1.429 . S
C423 N420 1.350 . S
C423 C422 1.434 . S
C424 C425 1.369 . S
C424 C426 1.419 1_655 S
C424 H428 0.930 . S
C425 C424 1.369 . S
C425 C434 1.429 . S
C426 C424 1.419 1_455 S
C426 C427 1.363 . S
C426 H429 0.929 . S
C427 C426 1.363 . S
C427 C433 1.428 . S
H428 C424 0.930 . S
H429 C426 0.929 . S
S430 N431 1.613 . S
S430 N432 1.610 1_655 S
N431 S430 1.613 . S
N431 C434 1.350 . S
N432 S430 1.610 1_455 S
N432 C433 1.351 . S
C433 C427 1.428 . S
C433 N432 1.351 . S
C433 C434 1.434 1_455 S
C434 C425 1.429 . S
C434 N431 1.350 . S
C434 C433 1.434 1_655 S
C435 C436 1.369 . S
C435 C437 1.419 1_545 S
C435 H439 0.930 . S
C436 C435 1.369 . S
C436 C445 1.429 . S
C437 C435 1.419 1_565 S
C437 C438 1.363 . S
C437 H440 0.929 . S
C438 C437 1.363 . S
C438 C444 1.428 . S
H439 C435 0.930 . S
H440 C437 0.929 . S
S441 N442 1.613 1_565 S
S441 N443 1.610 . S
N442 S441 1.613 1_545 S
N442 C445 1.350 . S
N443 S441 1.610 . S
N443 C444 1.351 . S
C444 C438 1.428 . S
C444 N443 1.351 . S
C444 C445 1.434 1_565 S
C445 C436 1.429 . S
C445 N442 1.350 . S
C445 C444 1.434 1_545 S
C446 C447 1.369 . S
C446 C448 1.419 . S
C446 H450 0.930 . S
C447 C446 1.369 . S
C447 C456 1.429 . S
C448 C446 1.419 . S
C448 C449 1.363 . S
C448 H451 0.929 . S
C449 C448 1.363 . S
C449 C455 1.428 . S
H450 C446 0.930 . S
H451 C448 0.929 . S
S452 N453 1.613 . S
S452 N454 1.610 . S
N453 S452 1.613 . S
N453 C456 1.350 . S
N454 S452 1.610 . S
N454 C455 1.351 . S
C455 C449 1.428 . S
C455 N454 1.351 . S
C455 C456 1.434 . S
C456 C447 1.429 . S
C456 N453 1.350 . S
C456 C455 1.434 . S
C457 C458 1.369 . S
C457 C459 1.419 1_455 S
C457 H461 0.930 . S
C458 C457 1.369 . S
C458 C467 1.429 . S
C459 C457 1.419 1_655 S
C459 C460 1.363 . S
C459 H462 0.929 . S
C460 C459 1.363 . S
C460 C466 1.428 . S
H461 C457 0.930 . S
H462 C459 0.929 . S
S463 N464 1.613 . S
S463 N465 1.610 1_455 S
N464 S463 1.613 . S
N464 C467 1.350 . S
N465 S463 1.610 1_655 S
N465 C466 1.351 . S
C466 C460 1.428 . S
C466 N465 1.351 . S
C466 C467 1.434 1_655 S
C467 C458 1.429 . S
C467 N464 1.350 . S
C467 C466 1.434 1_455 S
C468 C469 1.369 . S
C468 C470 1.419 . S
C468 H472 0.930 . S
C469 C468 1.369 . S
C469 C478 1.429 . S
C470 C468 1.419 . S
C470 C471 1.363 . S
C470 H473 0.929 . S
C471 C470 1.363 . S
C471 C477 1.428 . S
H472 C468 0.930 . S
H473 C470 0.929 . S
S474 N475 1.613 . S
S474 N476 1.610 . S
N475 S474 1.613 . S
N475 C478 1.350 . S
N476 S474 1.610 . S
N476 C477 1.351 . S
C477 C471 1.428 . S
C477 N476 1.351 . S
C477 C478 1.434 . S
C478 C469 1.429 . S
C478 N475 1.350 . S
C478 C477 1.434 . S
C479 C480 1.369 . S
C479 C481 1.419 . S
C479 H483 0.930 . S
C480 C479 1.369 . S
C480 C489 1.429 . S
C481 C479 1.419 . S
C481 C482 1.363 . S
C481 H484 0.929 . S
C482 C481 1.363 . S
C482 C488 1.428 . S
H483 C479 0.930 . S
H484 C481 0.929 . S
S485 N486 1.613 . S
S485 N487 1.610 . S
N486 S485 1.613 . S
N486 C489 1.350 . S
N487 S485 1.610 . S
N487 C488 1.351 . S
C488 C482 1.428 . S
C488 N487 1.351 . S
C488 C489 1.434 . S
C489 C480 1.429 . S
C489 N486 1.350 . S
C489 C488 1.434 . S
C490 C491 1.369 . S
C490 C492 1.419 . S
C490 H494 0.930 . S
C491 C490 1.369 . S
C491 C500 1.429 . S
C492 C490 1.419 . S
C492 C493 1.363 . S
C492 H495 0.929 . S
C493 C492 1.363 . S
C493 C499 1.428 . S
H494 C490 0.930 . S
H495 C492 0.929 . S
S496 N497 1.613 . S
S496 N498 1.610 . S
N497 S496 1.613 . S
N497 C500 1.350 . S
N498 S496 1.610 . S
N498 C499 1.351 . S
C499 C493 1.428 . S
C499 N498 1.351 . S
C499 C500 1.434 . S
C500 C491 1.429 . S
C500 N497 1.350 . S
C500 C499 1.434 . S
C501 C502 1.369 . S
C501 C503 1.419 . S
C501 H505 0.930 . S
C502 C501 1.369 . S
C502 C511 1.429 . S
C503 C501 1.419 . S
C503 C504 1.363 . S
C503 H506 0.929 . S
C504 C503 1.363 . S
C504 C510 1.428 . S
H505 C501 0.930 . S
H506 C503 0.929 . S
S507 N508 1.613 . S
S507 N509 1.610 . S
N508 S507 1.613 . S
N508 C511 1.350 . S
N509 S507 1.610 . S
N509 C510 1.351 . S
C510 C504 1.428 . S
C510 N509 1.351 . S
C510 C511 1.434 . S
C511 C502 1.429 . S
C511 N508 1.350 . S
C511 C510 1.434 . S
C512 C513 1.369 . S
C512 C514 1.419 . S
C512 H516 0.930 . S
C513 C512 1.369 . S
C513 C522 1.429 . S
C514 C512 1.419 . S
C514 C515 1.363 . S
C514 H517 0.929 . S
C515 C514 1.363 . S
C515 C521 1.428 . S
H516 C512 0.930 . S
H517 C514 0.929 . S
S518 N519 1.613 . S
S518 N520 1.610 . S
N519 S518 1.613 . S
N519 C522 1.350 . S
N520 S518 1.610 . S
N520 C521 1.351 . S
C521 C515 1.428 . S
C521 N520 1.351 . S
C521 C522 1.434 . S
C522 C513 1.429 . S
C522 N519 1.350 . S
C522 C521 1.434 . S
C523 C524 1.369 . S
C523 C525 1.419 . S
C523 H527 0.930 . S
C524 C523 1.369 . S
C524 C533 1.429 . S
C525 C523 1.419 . S
C525 C526 1.363 . S
C525 H528 0.929 . S
C526 C525 1.363 . S
C526 C532 1.428 . S
H527 C523 0.930 . S
H528 C525 0.929 . S
S529 N530 1.613 . S
S529 N531 1.610 . S
N530 S529 1.613 . S
N530 C533 1.350 . S
N531 S529 1.610 . S
N531 C532 1.351 . S
C532 C526 1.428 . S
C532 N531 1.351 . S
C532 C533 1.434 . S
C533 C524 1.429 . S
C533 N530 1.350 . S
C533 C532 1.434 . S
C534 C535 1.369 . S
C534 C536 1.419 . S
C534 H538 0.930 . S
C535 C534 1.369 . S
C535 C544 1.429 . S
C536 C534 1.419 . S
C536 C537 1.363 . S
C536 H539 0.929 . S
C537 C536 1.363 . S
C537 C543 1.428 . S
H538 C534 0.930 . S
H539 C536 0.929 . S
S540 N541 1.613 . S
S540 N542 1.610 . S
N541 S540 1.613 . S
N541 C544 1.350 . S
N542 S540 1.610 . S
N542 C543 1.351 . S
C543 C537 1.428 . S
C543 N542 1.351 . S
C543 C544 1.434 . S
C544 C535 1.429 . S
C544 N541 1.350 . S
C544 C543 1.434 . S
C545 C546 1.369 . S
C545 C547 1.419 . S
C545 H549 0.930 . S
C546 C545 1.369 . S
C546 C555 1.429 . S
C547 C545 1.419 . S
C547 C548 1.363 . S
C547 H550 0.929 . S
C548 C547 1.363 . S
C548 C554 1.428 . S
H549 C545 0.930 . S
H550 C547 0.929 . S
S551 N552 1.613 . S
S551 N553 1.610 . S
N552 S551 1.613 . S
N552 C555 1.350 . S
N553 S551 1.610 . S
N553 C554 1.351 . S
C554 C548 1.428 . S
C554 N553 1.351 . S
C554 C555 1.434 . S
C555 C546 1.429 . S
C555 N552 1.350 . S
C555 C554 1.434 . S
C556 C557 1.369 . S
C556 C558 1.419 . S
C556 H560 0.930 . S
C557 C556 1.369 . S
C557 C566 1.429 . S
C558 C556 1.419 . S
C558 C559 1.363 . S
C558 H561 0.929 . S
C559 C558 1.363 . S
C559 C565 1.428 . S
H560 C556 0.930 . S
H561 C558 0.929 . S
S562 N563 1.613 . S
S562 N564 1.610 . S
N563 S562 1.613 . S
N563 C566 1.350 . S
N564 S562 1.610 . S
N564 C565 1.351 . S
C565 C559 1.428 . S
C565 N564 1.351 . S
C565 C566 1.434 . S
C566 C557 1.429 . S
C566 N563 1.350 . S
C566 C565 1.434 . S
C567 C568 1.369 . S
C567 C569 1.419 . S
C567 H571 0.930 . S
C568 C567 1.369 . S
C568 C577 1.429 . S
C569 C567 1.419 . S
C569 C570 1.363 . S
C569 H572 0.929 . S
C570 C569 1.363 . S
C570 C576 1.428 . S
H571 C567 0.930 . S
H572 C569 0.929 . S
S573 N574 1.613 . S
S573 N575 1.610 . S
N574 S573 1.613 . S
N574 C577 1.350 . S
N575 S573 1.610 . S
N575 C576 1.351 . S
C576 C570 1.428 . S
C576 N575 1.351 . S
C576 C577 1.434 . S
C577 C568 1.429 . S
C577 N574 1.350 . S
C577 C576 1.434 . S
C578 C579 1.369 . S
C578 C580 1.419 . S
C578 H582 0.930 . S
C579 C578 1.369 . S
C579 C588 1.429 . S
C580 C578 1.419 . S
C580 C581 1.363 . S
C580 H583 0.929 . S
C581 C580 1.363 . S
C581 C587 1.428 . S
H582 C578 0.930 . S
H583 C580 0.929 . S
S584 N585 1.613 . S
S584 N586 1.610 . S
N585 S584 1.613 . S
N585 C588 1.350 . S
N586 S584 1.610 . S
N586 C587 1.351 . S
C587 C581 1.428 . S
C587 N586 1.351 . S
C587 C588 1.434 . S
C588 C579 1.429 . S
C588 N585 1.350 . S
C588 C587 1.434 . S
C589 C590 1.369 . S
C589 C591 1.419 . S
C589 H593 0.930 . S
C590 C589 1.369 . S
C590 C599 1.429 . S
C591 C589 1.419 . S
C591 C592 1.363 . S
C591 H594 0.929 . S
C592 C591 1.363 . S
C592 C598 1.428 . S
H593 C589 0.930 . S
H594 C591 0.929 . S
S595 N596 1.613 . S
S595 N597 1.610 . S
N596 S595 1.613 . S
N596 C599 1.350 . S
N597 S595 1.610 . S
N597 C598 1.351 . S
C598 C592 1.428 . S
C598 N597 1.351 . S
C598 C599 1.434 . S
C599 C590 1.429 . S
C599 N596 1.350 . S
C599 C598 1.434 . S
C600 C601 1.369 . S
C600 C602 1.419 1_554 S
C600 H604 0.930 . S
C601 C600 1.369 . S
C601 C610 1.429 . S
C602 C600 1.419 1_556 S
C602 C603 1.363 . S
C602 H605 0.929 . S
C603 C602 1.363 . S
C603 C609 1.428 . S
H604 C600 0.930 . S
H605 C602 0.929 . S
S606 N607 1.615 1_556 S
S606 N608 1.609 . S
N607 S606 1.615 1_554 S
N607 C610 1.350 . S
N608 S606 1.609 . S
N608 C609 1.351 . S
C609 C603 1.428 . S
C609 N608 1.351 . S
C609 C610 1.434 1_556 S
C610 C601 1.429 . S
C610 N607 1.350 . S
C610 C609 1.434 1_554 S
C611 C612 1.369 . S
C611 C613 1.419 1_556 S
C611 H615 0.930 . S
C612 C611 1.369 . S
C612 C621 1.429 . S
C613 C611 1.419 1_554 S
C613 C614 1.363 . S
C613 H616 0.929 . S
C614 C613 1.363 . S
C614 C620 1.428 . S
H615 C611 0.930 . S
H616 C613 0.929 . S
S617 N618 1.615 1_554 S
S617 N619 1.609 . S
N618 S617 1.615 1_556 S
N618 C621 1.350 . S
N619 S617 1.609 . S
N619 C620 1.351 . S
C620 C614 1.428 . S
C620 N619 1.351 . S
C620 C621 1.434 1_554 S
C621 C612 1.429 . S
C621 N618 1.350 . S
C621 C620 1.434 1_556 S
C622 C623 1.369 . S
C622 C624 1.419 1_556 S
C622 H626 0.930 . S
C623 C622 1.369 . S
C623 C632 1.429 . S
C624 C622 1.419 1_554 S
C624 C625 1.363 . S
C624 H627 0.929 . S
C625 C624 1.363 . S
C625 C631 1.428 . S
H626 C622 0.930 . S
H627 C624 0.929 . S
S628 N629 1.615 1_554 S
S628 N630 1.609 . S
N629 S628 1.615 1_556 S
N629 C632 1.350 . S
N630 S628 1.609 . S
N630 C631 1.351 . S
C631 C625 1.428 . S
C631 N630 1.351 . S
C631 C632 1.434 1_554 S
C632 C623 1.429 . S
C632 N629 1.350 . S
C632 C631 1.434 1_556 S
C633 C634 1.369 . S
C633 C635 1.419 1_554 S
C633 H637 0.930 . S
C634 C633 1.369 . S
C634 C643 1.429 . S
C635 C633 1.419 1_556 S
C635 C636 1.363 . S
C635 H638 0.929 . S
C636 C635 1.363 . S
C636 C642 1.428 . S
H637 C633 0.930 . S
H638 C635 0.929 . S
S639 N640 1.615 1_556 S
S639 N641 1.609 . S
N640 S639 1.615 1_554 S
N640 C643 1.350 . S
N641 S639 1.609 . S
N641 C642 1.351 . S
C642 C636 1.428 . S
C642 N641 1.351 . S
C642 C643 1.434 1_556 S
C643 C634 1.429 . S
C643 N640 1.350 . S
C643 C642 1.434 1_554 S
C644 C645 1.369 . S
C644 C646 1.419 1_554 S
C644 H648 0.930 . S
C645 C644 1.369 . S
C645 C654 1.429 . S
C646 C644 1.419 1_556 S
C646 C647 1.363 . S
C646 H649 0.929 . S
C647 C646 1.363 . S
C647 C653 1.428 . S
H648 C644 0.930 . S
H649 C646 0.929 . S
S650 N651 1.615 1_556 S
S650 N652 1.609 . S
N651 S650 1.615 1_554 S
N651 C654 1.350 . S
N652 S650 1.609 . S
N652 C653 1.351 . S
C653 C647 1.428 . S
C653 N652 1.351 . S
C653 C654 1.434 1_556 S
C654 C645 1.429 . S
C654 N651 1.350 . S
C654 C653 1.434 1_554 S
C655 C656 1.369 . S
C655 C657 1.419 1_556 S
C655 H659 0.930 . S
C656 C655 1.369 . S
C656 C665 1.429 . S
C657 C655 1.419 1_554 S
C657 C658 1.363 . S
C657 H660 0.929 . S
C658 C657 1.363 . S
C658 C664 1.428 . S
H659 C655 0.930 . S
H660 C657 0.929 . S
S661 N662 1.615 1_554 S
S661 N663 1.609 . S
N662 S661 1.615 1_556 S
N662 C665 1.350 . S
N663 S661 1.609 . S
N663 C664 1.351 . S
C664 C658 1.428 . S
C664 N663 1.351 . S
C664 C665 1.434 1_554 S
C665 C656 1.429 . S
C665 N662 1.350 . S
C665 C664 1.434 1_556 S
C666 C667 1.369 . S
C666 C668 1.419 . S
C666 H670 0.930 . S
C667 C666 1.369 . S
C667 C676 1.429 . S
C668 C666 1.419 . S
C668 C669 1.363 . S
C668 H671 0.929 . S
C669 C668 1.363 . S
C669 C675 1.428 . S
H670 C666 0.930 . S
H671 C668 0.929 . S
S672 N673 1.613 . S
S672 N674 1.610 . S
N673 S672 1.613 . S
N673 C676 1.350 . S
N674 S672 1.610 . S
N674 C675 1.351 . S
C675 C669 1.428 . S
C675 N674 1.351 . S
C675 C676 1.434 . S
C676 C667 1.429 . S
C676 N673 1.350 . S
C676 C675 1.434 . S
C677 C678 1.369 . S
C677 C679 1.419 . S
C677 H681 0.930 . S
C678 C677 1.369 . S
C678 C687 1.429 . S
C679 C677 1.419 . S
C679 C680 1.363 . S
C679 H682 0.929 . S
C680 C679 1.363 . S
C680 C686 1.428 . S
H681 C677 0.930 . S
H682 C679 0.929 . S
S683 N684 1.613 . S
S683 N685 1.610 . S
N684 S683 1.613 . S
N684 C687 1.350 . S
N685 S683 1.610 . S
N685 C686 1.351 . S
C686 C680 1.428 . S
C686 N685 1.351 . S
C686 C687 1.434 . S
C687 C678 1.429 . S
C687 N684 1.350 . S
C687 C686 1.434 . S
C688 C689 1.369 . S
C688 C690 1.419 . S
C688 H692 0.930 . S
C689 C688 1.369 . S
C689 C698 1.429 . S
C690 C688 1.419 . S
C690 C691 1.363 . S
C690 H693 0.929 . S
C691 C690 1.363 . S
C691 C697 1.428 . S
H692 C688 0.930 . S
H693 C690 0.929 . S
S694 N695 1.613 . S
S694 N696 1.610 . S
N695 S694 1.613 . S
N695 C698 1.350 . S
N696 S694 1.610 . S
N696 C697 1.351 . S
C697 C691 1.428 . S
C697 N696 1.351 . S
C697 C698 1.434 . S
C698 C689 1.429 . S
C698 N695 1.350 . S
C698 C697 1.434 . S
C699 C700 1.369 . S
C699 C701 1.419 . S
C699 H703 0.930 . S
C700 C699 1.369 . S
C700 C709 1.429 . S
C701 C699 1.419 . S
C701 C702 1.363 . S
C701 H704 0.929 . S
C702 C701 1.363 . S
C702 C708 1.428 . S
H703 C699 0.930 . S
H704 C701 0.929 . S
S705 N706 1.613 . S
S705 N707 1.610 . S
N706 S705 1.613 . S
N706 C709 1.350 . S
N707 S705 1.610 . S
N707 C708 1.351 . S
C708 C702 1.428 . S
C708 N707 1.351 . S
C708 C709 1.434 . S
C709 C700 1.429 . S
C709 N706 1.350 . S
C709 C708 1.434 . S
C710 C711 1.369 . S
C710 C712 1.419 . S
C710 H714 0.930 . S
C711 C710 1.369 . S
C711 C720 1.429 . S
C712 C710 1.419 . S
C712 C713 1.363 . S
C712 H715 0.929 . S
C713 C712 1.363 . S
C713 C719 1.428 . S
H714 C710 0.930 . S
H715 C712 0.929 . S
S716 N717 1.613 . S
S716 N718 1.610 . S
N717 S716 1.613 . S
N717 C720 1.350 . S
N718 S716 1.610 . S
N718 C719 1.351 . S
C719 C713 1.428 . S
C719 N718 1.351 . S
C719 C720 1.434 . S
C720 C711 1.429 . S
C720 N717 1.350 . S
C720 C719 1.434 . S
C721 C722 1.369 . S
C721 C723 1.419 . S
C721 H725 0.930 . S
C722 C721 1.369 . S
C722 C731 1.429 . S
C723 C721 1.419 . S
C723 C724 1.363 . S
C723 H726 0.929 . S
C724 C723 1.363 . S
C724 C730 1.428 . S
H725 C721 0.930 . S
H726 C723 0.929 . S
S727 N728 1.613 . S
S727 N729 1.610 . S
N728 S727 1.613 . S
N728 C731 1.350 . S
N729 S727 1.610 . S
N729 C730 1.351 . S
C730 C724 1.428 . S
C730 N729 1.351 . S
C730 C731 1.434 . S
C731 C722 1.429 . S
C731 N728 1.350 . S
C731 C730 1.434 . S
C732 C733 1.369 . S
C732 C734 1.419 . S
C732 H736 0.930 . S
C733 C732 1.369 . S
C733 C742 1.429 . S
C734 C732 1.419 . S
C734 C735 1.363 . S
C734 H737 0.929 . S
C735 C734 1.363 . S
C735 C741 1.428 . S
H736 C732 0.930 . S
H737 C734 0.929 . S
S738 N739 1.613 . S
S738 N740 1.610 . S
N739 S738 1.613 . S
N739 C742 1.350 . S
N740 S738 1.610 . S
N740 C741 1.351 . S
C741 C735 1.428 . S
C741 N740 1.351 . S
C741 C742 1.434 . S
C742 C733 1.429 . S
C742 N739 1.350 . S
C742 C741 1.434 . S
C743 C744 1.369 . S
C743 C745 1.419 . S
C743 H747 0.930 . S
C744 C743 1.369 . S
C744 C753 1.429 . S
C745 C743 1.419 . S
C745 C746 1.363 . S
C745 H748 0.929 . S
C746 C745 1.363 . S
C746 C752 1.428 . S
H747 C743 0.930 . S
H748 C745 0.929 . S
S749 N750 1.613 . S
S749 N751 1.610 . S
N750 S749 1.613 . S
N750 C753 1.350 . S
N751 S749 1.610 . S
N751 C752 1.351 . S
C752 C746 1.428 . S
C752 N751 1.351 . S
C752 C753 1.434 . S
C753 C744 1.429 . S
C753 N750 1.350 . S
C753 C752 1.434 . S
C754 C755 1.369 . S
C754 C756 1.419 . S
C754 H758 0.930 . S
C755 C754 1.369 . S
C755 C764 1.429 . S
C756 C754 1.419 . S
C756 C757 1.363 . S
C756 H759 0.929 . S
C757 C756 1.363 . S
C757 C763 1.428 . S
H758 C754 0.930 . S
H759 C756 0.929 . S
S760 N761 1.613 . S
S760 N762 1.610 . S
N761 S760 1.613 . S
N761 C764 1.350 . S
N762 S760 1.610 . S
N762 C763 1.351 . S
C763 C757 1.428 . S
C763 N762 1.351 . S
C763 C764 1.434 . S
C764 C755 1.429 . S
C764 N761 1.350 . S
C764 C763 1.434 . S
C765 C766 1.369 . S
C765 C767 1.419 . S
C765 H769 0.930 . S
C766 C765 1.369 . S
C766 C775 1.429 . S
C767 C765 1.419 . S
C767 C768 1.363 . S
C767 H770 0.929 . S
C768 C767 1.363 . S
C768 C774 1.428 . S
H769 C765 0.930 . S
H770 C767 0.929 . S
S771 N772 1.613 . S
S771 N773 1.610 . S
N772 S771 1.613 . S
N772 C775 1.350 . S
N773 S771 1.610 . S
N773 C774 1.351 . S
C774 C768 1.428 . S
C774 N773 1.351 . S
C774 C775 1.434 . S
C775 C766 1.429 . S
C775 N772 1.350 . S
C775 C774 1.434 . S
C776 C777 1.369 . S
C776 C778 1.419 . S
C776 H780 0.930 . S
C777 C776 1.369 . S
C777 C786 1.429 . S
C778 C776 1.419 . S
C778 C779 1.363 . S
C778 H781 0.929 . S
C779 C778 1.363 . S
C779 C785 1.428 . S
H780 C776 0.930 . S
H781 C778 0.929 . S
S782 N783 1.613 . S
S782 N784 1.610 . S
N783 S782 1.613 . S
N783 C786 1.350 . S
N784 S782 1.610 . S
N784 C785 1.351 . S
C785 C779 1.428 . S
C785 N784 1.351 . S
C785 C786 1.434 . S
C786 C777 1.429 . S
C786 N783 1.350 . S
C786 C785 1.434 . S
C787 C788 1.369 . S
C787 C789 1.419 . S
C787 H791 0.930 . S
C788 C787 1.369 . S
C788 C797 1.429 . S
C789 C787 1.419 . S
C789 C790 1.363 . S
C789 H792 0.929 . S
C790 C789 1.363 . S
C790 C796 1.428 . S
H791 C787 0.930 . S
H792 C789 0.929 . S
S793 N794 1.613 . S
S793 N795 1.610 . S
N794 S793 1.613 . S
N794 C797 1.350 . S
N795 S793 1.610 . S
N795 C796 1.351 . S
C796 C790 1.428 . S
C796 N795 1.351 . S
C796 C797 1.434 . S
C797 C788 1.429 . S
C797 N794 1.350 . S
C797 C796 1.434 . S
C798 C799 1.369 . S
C798 C800 1.419 . S
C798 H802 0.930 . S
C799 C798 1.369 . S
C799 C808 1.429 . S
C800 C798 1.419 . S
C800 C801 1.363 . S
C800 H803 0.929 . S
C801 C800 1.363 . S
C801 C807 1.428 . S
H802 C798 0.930 . S
H803 C800 0.929 . S
S804 N805 1.613 . S
S804 N806 1.610 . S
N805 S804 1.613 . S
N805 C808 1.350 . S
N806 S804 1.610 . S
N806 C807 1.351 . S
C807 C801 1.428 . S
C807 N806 1.351 . S
C807 C808 1.434 . S
C808 C799 1.429 . S
C808 N805 1.350 . S
C808 C807 1.434 . S
C809 C810 1.369 . S
C809 C811 1.419 . S
C809 H813 0.930 . S
C810 C809 1.369 . S
C810 C819 1.429 . S
C811 C809 1.419 . S
C811 C812 1.363 . S
C811 H814 0.929 . S
C812 C811 1.363 . S
C812 C818 1.428 . S
H813 C809 0.930 . S
H814 C811 0.929 . S
S815 N816 1.613 . S
S815 N817 1.610 . S
N816 S815 1.613 . S
N816 C819 1.350 . S
N817 S815 1.610 . S
N817 C818 1.351 . S
C818 C812 1.428 . S
C818 N817 1.351 . S
C818 C819 1.434 . S
C819 C810 1.429 . S
C819 N816 1.350 . S
C819 C818 1.434 . S
C820 C821 1.369 . S
C820 C822 1.419 . S
C820 H824 0.930 . S
C821 C820 1.369 . S
C821 C830 1.429 . S
C822 C820 1.419 . S
C822 C823 1.363 . S
C822 H825 0.929 . S
C823 C822 1.363 . S
C823 C829 1.428 . S
H824 C820 0.930 . S
H825 C822 0.929 . S
S826 N827 1.613 . S
S826 N828 1.610 . S
N827 S826 1.613 . S
N827 C830 1.350 . S
N828 S826 1.610 . S
N828 C829 1.351 . S
C829 C823 1.428 . S
C829 N828 1.351 . S
C829 C830 1.434 . S
C830 C821 1.429 . S
C830 N827 1.350 . S
C830 C829 1.434 . S
C831 C832 1.369 . S
C831 C833 1.419 . S
C831 H835 0.930 . S
C832 C831 1.369 . S
C832 C841 1.429 . S
C833 C831 1.419 . S
C833 C834 1.363 . S
C833 H836 0.929 . S
C834 C833 1.363 . S
C834 C840 1.428 . S
H835 C831 0.930 . S
H836 C833 0.929 . S
S837 N838 1.613 . S
S837 N839 1.610 . S
N838 S837 1.613 . S
N838 C841 1.350 . S
N839 S837 1.610 . S
N839 C840 1.351 . S
C840 C834 1.428 . S
C840 N839 1.351 . S
C840 C841 1.434 . S
C841 C832 1.429 . S
C841 N838 1.350 . S
C841 C840 1.434 . S
C842 C843 1.369 . S
C842 C844 1.419 . S
C842 H846 0.930 . S
C843 C842 1.369 . S
C843 C852 1.429 . S
C844 C842 1.419 . S
C844 C845 1.363 . S
C844 H847 0.929 . S
C845 C844 1.363 . S
C845 C851 1.428 . S
H846 C842 0.930 . S
H847 C844 0.929 . S
S848 N849 1.613 . S
S848 N850 1.610 . S
N849 S848 1.613 . S
N849 C852 1.350 . S
N850 S848 1.610 . S
N850 C851 1.351 . S
C851 C845 1.428 . S
C851 N850 1.351 . S
C851 C852 1.434 . S
C852 C843 1.429 . S
C852 N849 1.350 . S
C852 C851 1.434 . S
C853 C854 1.369 . S
C853 C855 1.419 . S
C853 H857 0.930 . S
C854 C853 1.369 . S
C854 C863 1.429 . S
C855 C853 1.419 . S
C855 C856 1.363 . S
C855 H858 0.929 . S
C856 C855 1.363 . S
C856 C862 1.428 . S
H857 C853 0.930 . S
H858 C855 0.929 . S
S859 N860 1.613 . S
S859 N861 1.610 . S
N860 S859 1.613 . S
N860 C863 1.350 . S
N861 S859 1.610 . S
N861 C862 1.351 . S
C862 C856 1.428 . S
C862 N861 1.351 . S
C862 C863 1.434 . S
C863 C854 1.429 . S
C863 N860 1.350 . S
C863 C862 1.434 . S
C337 C9 1.536 . S
C339 C107 1.535 . S
C348 C121 1.539 . S
C350 C23 1.539 . S
C359 C37 1.534 . S
C361 C135 1.534 . S
C370 C51 1.534 . S
C372 C149 1.534 . S
C381 C163 1.537 . S
C383 C65 1.536 . S
C392 C79 1.533 . S
C394 C93 1.534 . S
C403 C177 1.539 . S
C405 C275 1.538 . S
C414 C191 1.539 . S
C416 C289 1.539 . S
C425 C303 1.536 . S
C427 C205 1.537 . S
C436 C219 1.538 . S
C438 C317 1.537 . S
C447 C233 1.537 . S
C449 C331 1.536 . S
C458 C261 1.539 . S
C460 C247 1.539 . S
C469 C8 1.421 . S
C471 C120 1.422 . S
C480 C134 1.421 . S
C482 C22 1.422 . S
C491 C148 1.423 . S
C493 C36 1.421 . S
C502 C50 1.420 . S
C504 C162 1.423 . S
C513 C64 1.422 . S
C515 C92 1.422 . S
C524 C78 1.420 . S
C526 C106 1.423 . S
C535 C288 1.420 . S
C537 C176 1.423 . S
C546 C190 1.420 . S
C548 C302 1.423 . S
C557 C316 1.421 . S
C559 C204 1.422 . S
C568 C330 1.420 . S
C570 C218 1.423 . S
C579 C260 1.423 . S
C581 C232 1.421 . S
C590 C246 1.421 . S
C592 C274 1.423 . S
C601 C7 1.525 . S
C603 C217 1.525 . S
C612 C231 1.525 . S
C614 C21 1.525 . S
C623 C245 1.521 . S
C625 C35 1.522 . S
C634 C49 1.527 . S
C636 C175 1.526 . S
C645 C63 1.523 . S
C647 C189 1.524 . S
C656 C203 1.529 . S
C658 C77 1.528 . S
C667 C301 1.523 . S
C669 C91 1.523 . S
C678 C315 1.529 . S
C680 C105 1.528 . S
C689 C329 1.529 . S
C691 C119 1.528 . S
C700 C259 1.526 . S
C702 C133 1.526 . S
C711 C147 1.523 . S
C713 C273 1.524 . S
C722 C161 1.529 . S
C724 C287 1.528 . S
C733 C3 1.484 . S
C735 C143 1.488 . S
C744 C157 1.488 . S
C746 C17 1.486 . S
C755 C87 1.488 . S
C757 C31 1.485 . S
C766 C45 1.484 . S
C768 C101 1.488 . S
C777 C59 1.485 . S
C779 C115 1.485 . S
C788 C73 1.484 . S
C790 C129 1.488 . S
C799 C171 1.485 . S
C801 C311 1.488 . S
C810 C185 1.485 . S
C812 C325 1.488 . S
C821 C199 1.488 . S
C823 C255 1.484 . S
C832 C269 1.484 . S
C834 C213 1.488 . S
C843 C227 1.484 . S
C845 C283 1.488 . S
C854 C241 1.484 . S
C856 C297 1.486 . S
