# Generated by pormake.
# Topology lon, (4)-cn, num edge types: 1
# Building blocks:
#     Node 0, Type 0, BuildingBlock: UXUYUI_clean_sbu_0, # of connection points: 4
#     Node 1, Type 0, BuildingBlock: UXUYUI_clean_sbu_0, # of connection points: 4
#     Node 2, Type 0, BuildingBlock: UXUYUI_clean_sbu_0, # of connection points: 4
#     Node 3, Type 0, BuildingBlock: UXUYUI_clean_sbu_0, # of connection points: 4
#     Edge 4, Type (0, 0), BuildingBlock: XUDNAN_clean_linker_2, # of connection points: 2
#     Edge 5, Type (0, 0), BuildingBlock: XUDNAN_clean_linker_2, # of connection points: 2
#     Edge 6, Type (0, 0), BuildingBlock: XUDNAN_clean_linker_2, # of connection points: 2
#     Edge 7, Type (0, 0), BuildingBlock: XUDNAN_clean_linker_2, # of connection points: 2
#     Edge 8, Type (0, 0), BuildingBlock: XUDNAN_clean_linker_2, # of connection points: 2
#     Edge 9, Type (0, 0), BuildingBlock: XUDNAN_clean_linker_2, # of connection points: 2
#     Edge 10, Type (0, 0), BuildingBlock: XUDNAN_clean_linker_2, # of connection points: 2
#     Edge 11, Type (0, 0), BuildingBlock: XUDNAN_clean_linker_2, # of connection points: 2
# Relax obj value: 0.000
# Max RMSD: 0.004
# Mean RMSD: 0.003
data_MOF--net-lon--node1-UXUYUI_clean_sbu_0--edge1-XUDNAN_clean_linker_2
_symmetry_space_group_name_H-M    P1
_symmetry_Int_Tables_number       1
_symmetry_cell_setting            triclinic
loop_
_symmetry_equiv_pos_as_xyz
'x, y, z'
_cell_length_a     36.160703
_cell_length_b     36.112528
_cell_length_c     58.995911
_cell_angle_alpha  90.180785
_cell_angle_beta   89.963457
_cell_angle_gamma 119.92609
loop_
_atom_site_label
_atom_site_type_symbol
_atom_site_fract_x
_atom_site_fract_y
_atom_site_fract_z
_atom_type_partial_charge
Li0 Li 0.35848 0.6869 0.10075 0.0
Li1 Li 0.37686 0.66338 0.06689 0.0
Li2 Li 0.3685 0.72555 0.06428 0.0
Li3 Li 0.307 0.65273 0.07043 0.0
C4 C 0.4396 0.75766 0.09153 0.0
N5 N 0.49612 0.83577 0.11063 0.0
C6 C 0.48347 0.77287 0.09065 0.0
C7 C 0.42445 0.78226 0.10207 0.0
C8 C 0.51154 0.81242 0.10043 0.0
C9 C 0.45355 0.82164 0.11163 0.0
C10 C 0.34738 0.60622 0.10308 0.0
C11 C 0.33379 0.54452 0.12508 0.0
N12 N 0.37593 0.56373 0.13049 0.0
C13 C 0.39057 0.62537 0.10887 0.0
C14 C 0.31874 0.5655 0.11124 0.0
C15 C 0.40436 0.60336 0.12274 0.0
C16 C 0.32993 0.67924 0.14612 0.0
N17 N 0.36535 0.69288 0.13305 0.0
C18 C 0.41003 0.71677 0.16592 0.0
C19 C 0.40482 0.71024 0.14255 0.0
C20 C 0.37421 0.70466 0.17977 0.0
C21 C 0.33362 0.68487 0.16965 0.0
H22 H 0.2988 0.66423 0.13823 0.0
H23 H 0.43245 0.71926 0.13202 0.0
C24 C 0.44842 0.66729 0.04555 0.0
N25 N 0.40971 0.63982 0.05461 0.0
C26 C 0.47254 0.65172 0.035 0.0
C27 C 0.41689 0.57988 0.04373 0.0
C28 C 0.39376 0.59683 0.05401 0.0
C29 C 0.4567 0.60743 0.03386 0.0
H30 H 0.46016 0.70131 0.04615 0.0
H31 H 0.36256 0.57563 0.06101 0.0
C32 C 0.28478 0.70844 0.08478 0.0
N33 N 0.20886 0.70853 0.07966 0.0
C34 C 0.27072 0.7117 0.06319 0.0
C35 C 0.26037 0.70556 0.10377 0.0
C36 C 0.23221 0.71157 0.06095 0.0
C37 C 0.22206 0.70561 0.10082 0.0
C38 C 0.35134 0.65753 0.02508 0.0
C39 C 0.38207 0.68293 1.0091 0.0
C40 C 0.32893 0.61313 0.0224 0.0
C41 C 0.39022 0.66342 0.99079 0.0
C42 C 0.33797 0.59484 1.00384 0.0
N43 N 0.36822 0.62015 0.98857 0.0
C44 C 0.42394 0.79723 0.0375 0.0
C45 C 0.36992 0.80387 0.05665 0.0
C46 C 0.43975 0.83772 0.02788 0.0
N47 N 0.38915 0.78087 0.05126 0.0
C48 C 0.38449 0.84428 0.04735 0.0
C49 C 0.41959 0.86158 0.03256 0.0
H50 H 0.43954 0.77889 0.0341 0.0
H51 H 0.34351 0.79112 0.06836 0.0
C52 C 0.22023 0.59922 0.08194 0.0
N53 N 0.24764 0.61645 0.06425 0.0
C54 C 0.1764 0.57392 0.07804 0.0
C55 C 0.18998 0.58395 0.03779 0.0
C56 C 0.23342 0.60962 0.04249 0.0
C57 C 0.16062 0.56572 0.05568 0.0
H58 H 0.23242 0.60573 0.0991 0.0
H59 H 0.25578 0.62433 0.02873 0.0
O60 O 0.41194 0.7191 0.08184 0.0
O61 O 0.33282 0.627 0.08958 0.0
O62 O 0.32188 0.70737 0.0872 0.0
O63 O 0.34374 0.67591 0.04349 0.0
H64 H 0.49568 0.75424 0.08251 0.0
H65 H 0.39066 0.77113 0.10294 0.0
H66 H 0.54558 0.82455 0.0999 0.0
H67 H 0.44228 0.84096 0.11986 0.0
H68 H 0.31196 0.51297 0.13151 0.0
H69 H 0.41329 0.6568 0.10271 0.0
H70 H 0.28519 0.55028 0.10693 0.0
H71 H 0.43769 0.61779 0.12734 0.0
H72 H 0.44181 0.73114 0.1731 0.0
H73 H 0.30515 0.67488 0.17973 0.0
H74 H 0.50326 0.67412 0.02782 0.0
H75 H 0.40321 0.54553 0.04295 0.0
H76 H 0.28917 0.7138 0.0483 0.0
H77 H 0.27089 0.70344 0.12061 0.0
H78 H 0.22082 0.71377 0.04434 0.0
H79 H 0.20282 0.70333 0.11537 0.0
H80 H 0.39959 0.71729 1.01085 0.0
H81 H 0.30539 0.59295 0.03476 0.0
H82 H 0.4141 0.68268 0.97836 0.0
H83 H 0.32113 0.56052 1.00166 0.0
H84 H 0.467 0.8499 0.01664 0.0
H85 H 0.3687 0.86203 0.05192 0.0
H86 H 0.15517 0.5615 0.09245 0.0
H87 H 0.17971 0.57824 0.02027 0.0
Li88 Li 0.66279 0.36692 0.56608 0.0
Li89 Li 0.7338 0.36826 0.56812 0.0
Li90 Li 0.66631 0.30212 0.57127 0.0
Li91 Li 0.69046 0.35088 0.60274 0.0
C92 C 0.67546 0.31496 0.52734 0.0
N93 N 0.64946 0.25635 0.49231 0.0
C94 C 0.70116 0.29821 0.52047 0.0
C95 C 0.6367 0.30217 0.51634 0.0
C96 C 0.68739 0.26852 0.50275 0.0
C97 C 0.6241 0.27246 0.49867 0.0
C98 C 0.74657 0.44648 0.58477 0.0
C99 C 0.81348 0.50331 0.5991 0.0
N100 N 0.81072 0.53103 0.5846 0.0
C101 C 0.74418 0.47563 0.57017 0.0
C102 C 0.78128 0.46049 0.59952 0.0
C103 C 0.77701 0.51821 0.57027 0.0
C104 C 0.60318 0.39687 0.5638 0.0
N105 N 0.63407 0.39327 0.55256 0.0
C106 C 0.62505 0.42675 0.51984 0.0
C107 C 0.64545 0.40797 0.53107 0.0
C108 C 0.59229 0.4302 0.53074 0.0
C109 C 0.58168 0.41526 0.55314 0.0
H110 H 0.59488 0.38498 0.58094 0.0
H111 H 0.67044 0.40501 0.52265 0.0
C112 C 0.80966 0.37 0.55582 0.0
N113 N 0.79006 0.3938 0.55555 0.0
C114 C 0.84985 0.38552 0.54602 0.0
C115 C 0.84919 0.44989 0.53574 0.0
C116 C 0.80875 0.4329 0.54554 0.0
C117 C 0.8701 0.42595 0.53576 0.0
H118 H 0.79374 0.33858 0.56339 0.0
H119 H 0.79201 0.45058 0.54469 0.0
C120 C 0.5942 0.28497 0.59282 0.0
N121 N 0.51786 0.21044 0.59988 0.0
C122 C 0.59273 0.25311 0.60681 0.0
C123 C 0.55684 0.27906 0.58251 0.0
C124 C 0.55383 0.2156 0.61012 0.0
C125 C 0.51855 0.24113 0.58629 0.0
C126 C 0.7421 0.3165 0.6061 0.0
C127 C 0.72703 0.27747 0.61724 0.0
C128 C 0.78141 0.35132 0.61235 0.0
C129 C 0.75135 0.27411 0.63465 0.0
C130 C 0.80481 0.34669 0.62983 0.0
N131 N 0.7894 0.30851 0.64054 0.0
C132 C 0.66261 0.22304 0.56548 0.0
C133 C 0.59905 0.22115 0.55385 0.0
C134 C 0.6452 0.17974 0.56038 0.0
N135 N 0.63916 0.24263 0.56268 0.0
C136 C 0.58028 0.17768 0.54855 0.0
C137 C 0.60322 0.15622 0.55214 0.0
H138 H 0.69502 0.24112 0.57162 0.0
H139 H 0.58145 0.23762 0.551 0.0
C140 C 0.70564 0.39821 0.64337 0.0
N141 N 0.69351 0.35863 0.63504 0.0
C142 C 0.71078 0.40607 0.66668 0.0
C143 C 0.68962 0.33198 0.67258 0.0
C144 C 0.68456 0.32551 0.64917 0.0
C145 C 0.70339 0.37285 0.68167 0.0
H146 H 0.71154 0.42384 0.63189 0.0
H147 H 0.67404 0.29409 0.64232 0.0
O148 O 0.68786 0.34319 0.54502 0.0
O149 O 0.71471 0.40466 0.58485 0.0
O150 O 0.63198 0.32182 0.58927 0.0
O151 O 0.71848 0.32049 0.58915 0.0
H152 H 0.73116 0.30768 0.52891 0.0
H153 H 0.61633 0.31465 0.5216 0.0
H154 H 0.7068 0.25506 0.49732 0.0
H155 H 0.59406 0.26206 0.49008 0.0
H156 H 0.84059 0.51453 0.61037 0.0
H157 H 0.71742 0.46547 0.55877 0.0
H158 H 0.78322 0.43865 0.61128 0.0
H159 H 0.7757 0.54104 0.55896 0.0
H160 H 0.635 0.43857 0.50279 0.0
H161 H 0.55642 0.41686 0.56215 0.0
H162 H 0.86491 0.36606 0.54645 0.0
H163 H 0.86336 0.48085 0.52762 0.0
H164 H 0.62144 0.25696 0.61466 0.0
H165 H 0.55746 0.30333 0.57155 0.0
H166 H 0.55228 0.19052 0.62076 0.0
H167 H 0.4894 0.23603 0.57835 0.0
H168 H 0.6965 0.25023 0.61278 0.0
H169 H 0.79383 0.38155 0.60373 0.0
H170 H 0.7399 0.24419 0.64353 0.0
H171 H 0.83524 0.37343 0.63486 0.0
H172 H 0.66456 0.16489 0.56279 0.0
H173 H 0.54787 0.16093 0.54219 0.0
H174 H 0.72038 0.43787 0.67287 0.0
H175 H 0.68375 0.30537 0.68335 0.0
Li176 Li 0.37759 0.72352 0.46321 0.0
Li177 Li 0.35832 0.68883 0.42515 0.0
Li178 Li 0.30864 0.65952 0.45783 0.0
Li179 Li 0.37351 0.65514 0.4565 0.0
C180 C 0.30981 0.73622 0.45083 0.0
N181 N 0.26846 0.77743 0.46753 0.0
C182 C 0.29511 0.75612 0.436 0.0
C183 C 0.30349 0.73723 0.47415 0.0
C184 C 0.27427 0.77681 0.44477 0.0
C185 C 0.28252 0.75824 0.48226 0.0
C186 C 0.4525 0.71624 0.44469 0.0
C187 C 0.50748 0.70094 0.43304 0.0
N188 N 0.53232 0.72498 0.45059 0.0
C189 C 0.47871 0.74104 0.46252 0.0
C190 C 0.46713 0.69629 0.42972 0.0
C191 C 0.51892 0.745 0.46524 0.0
C192 C 0.40589 0.77997 0.5009 0.0
N193 N 0.40681 0.77769 0.47794 0.0
C194 C 0.45133 0.85354 0.47541 0.0
C195 C 0.42865 0.81337 0.4651 0.0
C196 C 0.45148 0.85695 0.49916 0.0
C197 C 0.42802 0.81944 0.51191 0.0
H198 H 0.388 0.75109 0.51065 0.0
H199 H 0.42882 0.81049 0.44684 0.0
C200 C 0.32772 0.68207 0.38004 0.0
N201 N 0.36313 0.69854 0.39334 0.0
C202 C 0.33162 0.68836 0.35657 0.0
C203 C 0.40828 0.72829 0.36107 0.0
C204 C 0.40289 0.72134 0.38439 0.0
C205 C 0.37238 0.71183 0.34678 0.0
H206 H 0.29648 0.66392 0.38767 0.0
H207 H 0.43048 0.73386 0.39537 0.0
C208 C 0.33403 0.63922 0.49821 0.0
N209 N 0.30066 0.57287 0.52902 0.0
C210 C 0.30933 0.59697 0.49071 0.0
C211 C 0.34185 0.64763 0.52138 0.0
C212 C 0.29272 0.56391 0.50656 0.0
C213 C 0.32467 0.61367 0.53669 0.0
C214 C 0.31686 0.59795 0.41991 0.0
C215 C 0.27824 0.55931 0.42021 0.0
C216 C 0.3479 0.60423 0.40387 0.0
C217 C 0.27123 0.52765 0.40434 0.0
C218 C 0.33967 0.57184 0.38826 0.0
N219 N 0.30182 0.53454 0.38881 0.0
C220 C 0.22115 0.60843 0.44898 0.0
C221 C 0.23647 0.63009 0.48741 0.0
C222 C 0.17778 0.58319 0.45391 0.0
N223 N 0.24955 0.63042 0.46574 0.0
C224 C 0.1933 0.60551 0.49307 0.0
C225 C 0.16345 0.58097 0.47627 0.0
H226 H 0.23238 0.60983 0.43184 0.0
H227 H 0.25962 0.64811 0.50043 0.0
C228 C 0.43059 0.6362 0.48032 0.0
N229 N 0.3985 0.62055 0.46476 0.0
C230 C 0.45143 0.61351 0.48572 0.0
C231 C 0.40373 0.55745 0.4603 0.0
C232 C 0.38415 0.58134 0.45528 0.0
C233 C 0.43853 0.57382 0.47531 0.0
H234 H 0.44045 0.66667 0.48835 0.0
H235 H 0.35744 0.56824 0.44382 0.0
O236 O 0.3302 0.71581 0.44246 0.0
O237 O 0.41286 0.71168 0.44187 0.0
O238 O 0.35087 0.6723 0.48307 0.0
O239 O 0.32414 0.62926 0.43534 0.0
H240 H 0.29975 0.75556 0.4179 0.0
H241 H 0.31462 0.72196 0.48587 0.0
H242 H 0.2627 0.79237 0.43349 0.0
H243 H 0.27741 0.75927 0.50026 0.0
H244 H 0.51906 0.68545 0.42166 0.0
H245 H 0.46802 0.75666 0.47433 0.0
H246 H 0.44754 0.67727 0.41572 0.0
H247 H 0.5394 0.76387 0.47904 0.0
H248 H 0.4693 0.88147 0.46491 0.0
H249 H 0.42661 0.82054 0.53022 0.0
H250 H 0.30305 0.67543 0.34627 0.0
H251 H 0.44032 0.74589 0.3543 0.0
H252 H 0.30287 0.58962 0.47291 0.0
H253 H 0.36102 0.68007 0.52749 0.0
H254 H 0.27351 0.53112 0.50098 0.0
H255 H 0.33045 0.61976 0.55467 0.0
H256 H 0.25406 0.55363 0.4327 0.0
H257 H 0.37804 0.6337 0.4035 0.0
H258 H 0.2415 0.49758 0.40439 0.0
H259 H 0.36341 0.57633 0.37573 0.0
H260 H 0.15573 0.56532 0.44038 0.0
H261 H 0.18363 0.60454 0.51054 0.0
H262 H 0.47797 0.62743 0.49747 0.0
H263 H 0.39161 0.52637 0.45245 0.0
Li264 Li 0.6582 0.30224 0.9583 0.0
Li265 Li 0.66594 0.37274 0.96129 0.0
Li266 Li 0.6911 0.35206 0.92755 0.0
Li267 Li 0.73089 0.36741 0.96413 0.0
C268 C 0.59137 0.29531 0.93649 0.0
N269 N 0.50877 0.22784 0.93307 0.0
C270 C 0.55863 0.29568 0.94893 0.0
C271 C 0.58205 0.26077 0.92221 0.0
C272 C 0.51708 0.26124 0.94697 0.0
C273 C 0.54011 0.22691 0.92076 0.0
C274 C 0.68149 0.35448 1.00657 0.0
C275 C 0.71683 0.40444 0.03715 0.0
N276 N 0.68458 0.37865 0.05136 0.0
C277 C 0.64883 0.32838 0.02151 0.0
C278 C 0.71588 0.39276 0.01447 0.0
C279 C 0.65091 0.34121 0.04407 0.0
C280 C 0.63362 0.21388 0.96004 0.0
N281 N 0.62303 0.24358 0.96651 0.0
C282 C 0.55985 0.18999 0.98467 0.0
C283 C 0.5873 0.23255 0.97887 0.0
C284 C 0.56956 0.15845 0.97797 0.0
C285 C 0.60724 0.17087 0.96569 0.0
H286 H 0.66245 0.22354 0.95041 0.0
H287 H 0.57987 0.25683 0.98405 0.0
C288 C 0.61872 0.41307 0.95292 0.0
N289 N 0.63857 0.40473 0.97008 0.0
C290 C 0.59967 0.43796 0.95674 0.0
C291 C 0.62075 0.44451 0.99603 0.0
C292 C 0.63965 0.41971 0.99141 0.0
C293 C 0.60073 0.45424 0.97852 0.0
H294 H 0.61815 0.40072 0.93612 0.0
H295 H 0.65559 0.41317 1.00486 0.0
C296 C 0.73247 0.30883 0.92583 0.0
N297 N 0.77189 0.29302 0.88999 0.0
C298 C 0.77687 0.33203 0.92373 0.0
C299 C 0.70814 0.27737 0.90983 0.0
C300 C 0.7962 0.32358 0.90546 0.0
C301 C 0.72866 0.26994 0.89179 0.0
C302 C 0.72313 0.4449 0.94237 0.0
C303 C 0.70982 0.45457 0.9221 0.0
C304 C 0.73625 0.47387 0.96044 0.0
C305 C 0.70958 0.49303 0.92031 0.0
C306 C 0.73545 0.51193 0.95799 0.0
N307 N 0.72223 0.52063 0.93815 0.0
C308 C 0.66362 0.34301 0.8817 0.0
C309 C 0.73857 0.38076 0.8869 0.0
C310 C 0.66856 0.34914 0.85827 0.0
N311 N 0.69839 0.35867 0.89545 0.0
C312 C 0.74502 0.38731 0.86358 0.0
C313 C 0.70973 0.37168 0.84887 0.0
H314 H 0.632 0.32647 0.88894 0.0
H315 H 0.76566 0.3936 0.89826 0.0
C316 C 0.79433 0.36035 0.98818 0.0
N317 N 0.78545 0.38856 0.97783 0.0
C318 C 0.83362 0.37468 0.99891 0.0
C319 C 0.85379 0.44686 0.98817 0.0
C320 C 0.81434 0.43104 0.97737 0.0
C321 C 0.86395 0.4186 0.99924 0.0
H322 H 0.7708 0.32668 0.9881 0.0
H323 H 0.80649 0.45273 0.96892 0.0
O324 O 0.63237 0.32841 0.93843 0.0
O325 O 0.68024 0.34203 0.98452 0.0
O326 O 0.71292 0.31709 0.94339 0.0
O327 O 0.72233 0.40682 0.94469 0.0
H328 H 0.56527 0.32196 0.9602 0.0
H329 H 0.60701 0.25991 0.91252 0.0
H330 H 0.49147 0.26098 0.95659 0.0
H331 H 0.5325 0.19984 0.90989 0.0
H332 H 0.74313 0.43408 0.04344 0.0
H333 H 0.62215 0.29851 0.01579 0.0
H334 H 0.74121 0.41359 1.00319 0.0
H335 H 0.62578 0.32135 0.05579 0.0
H336 H 0.53146 0.1819 0.99445 0.0
H337 H 0.61579 0.14751 0.96015 0.0
H338 H 0.58414 0.44424 0.94279 0.0
H339 H 0.62271 0.45679 1.01302 0.0
H340 H 0.79618 0.35657 0.93593 0.0
H341 H 0.67376 0.25914 0.91123 0.0
H342 H 0.83051 0.34142 0.90354 0.0
H343 H 0.71021 0.24587 0.8792 0.0
H344 H 0.69926 0.43244 0.908 0.0
H345 H 0.74631 0.46678 0.9763 0.0
H346 H 0.69913 0.50082 0.90478 0.0
H347 H 0.74518 0.53447 0.9719 0.0
H348 H 0.64038 0.33724 0.84773 0.0
H349 H 0.77736 0.40443 0.85718 0.0
H350 H 0.84014 0.35146 1.00673 0.0
H351 H 0.87567 0.48098 0.98817 0.0
H352 H 0.32752 0.65167 0.21488 0.0
H353 H 0.43292 0.77854 0.20047 0.0
H354 H 0.44276 0.79448 0.24145 0.0
H355 H 0.28449 0.68186 0.26242 0.0
H356 H 0.27071 0.63419 0.27836 0.0
H357 H 0.27128 0.63283 0.24783 0.0
H358 H 0.32422 0.6042 0.24903 0.0
H359 H 0.32374 0.60539 0.27954 0.0
H360 H 0.3736 0.63362 0.26447 0.0
H361 H 0.44125 0.79691 0.28375 0.0
H362 H 0.43004 0.78498 0.32489 0.0
H363 H 0.32676 0.6558 0.31219 0.0
C364 C 0.35242 0.68291 0.22037 0.0
C365 C 0.37953 0.71387 0.20449 0.0
C366 C 0.41212 0.75418 0.21234 0.0
C367 C 0.41778 0.76363 0.23557 0.0
C368 C 0.39066 0.73241 0.25076 0.0
C369 C 0.35871 0.69281 0.24354 0.0
C370 C 0.33469 0.66466 0.26351 0.0
C371 C 0.28749 0.65269 0.26299 0.0
C372 C 0.33936 0.6246 0.26417 0.0
C373 C 0.35819 0.69464 0.28305 0.0
C374 C 0.39021 0.7336 0.27528 0.0
C375 C 0.4164 0.76646 0.29005 0.0
C376 C 0.40994 0.75924 0.31342 0.0
C377 C 0.3777 0.71935 0.32188 0.0
C378 C 0.35138 0.6868 0.30635 0.0
H379 H 0.6571 0.31972 0.71695 0.0
H380 H 0.76692 0.44417 0.7028 0.0
H381 H 0.77971 0.45767 0.74381 0.0
H382 H 0.62103 0.34987 0.76664 0.0
H383 H 0.60581 0.30073 0.78144 0.0
H384 H 0.60444 0.30117 0.75093 0.0
H385 H 0.65411 0.26867 0.74929 0.0
H386 H 0.65555 0.26803 0.77979 0.0
H387 H 0.7046 0.29507 0.76395 0.0
H388 H 0.78072 0.45778 0.78637 0.0
H389 H 0.77038 0.44417 0.82742 0.0
H390 H 0.66255 0.31791 0.81385 0.0
C391 C 0.68406 0.34972 0.7224 0.0
C392 C 0.7108 0.38098 0.7065 0.0
C393 C 0.74538 0.42 0.71453 0.0
C394 C 0.75315 0.42788 0.73783 0.0
C395 C 0.72623 0.39637 0.75296 0.0
C396 C 0.69246 0.35801 0.74559 0.0
C397 C 0.66871 0.32925 0.76539 0.0
C398 C 0.62225 0.31971 0.76613 0.0
C399 C 0.67089 0.28781 0.76455 0.0
C400 C 0.69441 0.35747 0.78504 0.0
C401 C 0.72736 0.39607 0.7775 0.0
C402 C 0.7552 0.42753 0.79248 0.0
C403 C 0.74924 0.41932 0.81581 0.0
C404 C 0.71582 0.37982 0.82401 0.0
C405 C 0.68815 0.3486 0.80826 0.0
H406 H 0.46885 0.54138 0.04726 0.0
H407 H 0.49936 0.63396 0.99349 0.0
H408 H 0.53952 0.60498 0.97353 0.0
H409 H 0.56933 0.54384 0.04749 0.0
H410 H 0.5461 0.48741 0.05272 0.0
H411 H 0.51975 0.51545 0.06279 0.0
H412 H 0.45096 0.46209 0.04129 0.0
H413 H 0.47707 0.43385 0.03118 0.0
H414 H 0.45353 0.45393 1.0113 0.0
H415 H 0.5757 0.5654 0.95921 0.0
H416 H 0.60674 0.51911 0.95199 0.0
H417 H 0.55202 0.45186 0.0149 0.0
C418 C 0.48376 0.5554 0.03122 0.0
C419 C 0.48106 0.59005 0.02197 0.0
C420 C 0.50148 0.60781 1.00107 0.0
C421 C 0.52414 0.5914 0.98953 0.0
C422 C 0.52616 0.55724 0.99912 0.0
C423 C 0.5066 0.53949 0.01951 0.0
C424 C 0.51384 0.50312 0.02621 0.0
C425 C 0.53875 0.51307 0.04863 0.0
C426 C 0.47132 0.46074 0.02757 0.0
C427 C 0.54055 0.50321 1.0064 0.0
C428 C 0.54716 0.53457 0.99092 0.0
C429 C 0.57067 0.54069 0.97118 0.0
C430 C 0.58796 0.51408 0.96717 0.0
C431 C 0.58175 0.48182 0.98285 0.0
C432 C 0.55769 0.47649 1.0027 0.0
H433 H 0.11159 0.59692 0.504 0.0
H434 H 0.11288 0.49853 0.46213 0.0
H435 H 0.03798 0.44866 0.4725 0.0
H436 H 0.04756 0.528 0.54897 0.0
H437 H 1.01857 0.55592 0.55379 0.0
H438 H 0.07215 0.58425 0.54282 0.0
H439 H 0.04576 0.60911 0.50838 0.0
H440 H 0.9921 0.58086 0.51925 0.0
H441 H 1.00312 0.56988 0.49099 0.0
H442 H 0.96397 0.40874 0.48827 0.0
H443 H 0.89441 0.3822 0.50726 0.0
H444 H 0.94044 0.50647 0.53863 0.0
C445 C 0.09609 0.56486 0.49705 0.0
C446 C 0.11803 0.55164 0.48218 0.0
C447 C 0.09653 0.50953 0.4733 0.0
C448 C 0.05408 0.48089 0.47919 0.0
C449 C 0.03343 0.49488 0.4939 0.0
C450 C 0.05356 0.53591 0.50263 0.0
C451 C 0.02394 0.54282 0.51803 0.0
C452 C 0.04162 0.55336 0.54234 0.0
C453 C 1.01575 0.57774 0.50859 0.0
C454 C 0.98415 0.49917 0.51671 0.0
C455 C 0.99041 0.47198 0.50276 0.0
C456 C 0.95863 0.42975 0.4992 0.0
C457 C 0.91934 0.4149 0.51015 0.0
C458 C 0.91205 0.44224 0.52443 0.0
C459 C 0.94496 0.48497 0.52764 0.0
H460 H 0.58993 0.09983 0.99475 0.0
H461 H 0.48271 0.1144 0.97415 0.0
H462 H 0.43308 0.03951 0.98479 0.0
H463 H 0.54648 0.98987 0.97545 0.0
H464 H 0.5675 0.97496 0.99923 0.0
H465 H 0.59482 0.02927 0.98919 0.0
H466 H 0.59085 0.05612 0.02941 0.0
H467 H 0.5635 1.00192 0.03955 0.0
H468 H 0.53974 0.03515 0.04314 0.0
H469 H 0.39505 0.96405 0.9985 0.0
H470 H 0.37079 0.89267 0.01469 0.0
H471 H 0.50246 0.92679 0.02682 0.0
C472 C 0.55604 0.08704 0.99221 0.0
C473 C 0.54014 0.11292 0.98364 0.0
C474 C 0.49553 0.09526 0.9809 0.0
C475 C 0.46713 0.05272 0.98678 0.0
C476 C 0.4838 0.02821 0.99538 0.0
C477 C 0.52718 0.04463 0.9981 0.0
C478 C 0.53655 1.01177 1.00842 0.0
C479 C 0.5629 1.00082 0.99209 0.0
C480 C 0.55898 0.02717 0.0315 0.0
C481 C 0.49165 0.97439 1.01113 0.0
C482 C 0.46175 0.98458 1.00344 0.0
C483 C 0.41815 0.95567 1.00457 0.0
C484 C 0.40468 0.9153 1.01392 0.0
C485 C 0.43468 0.90414 0.02209 0.0
C486 C 0.47877 0.93414 0.02048 0.0
H487 H 0.56307 0.48243 0.54771 0.0
H488 H 0.56787 0.41865 0.48614 0.0
H489 H 0.53056 0.44949 0.46546 0.0
H490 H 0.45711 0.46616 0.5382 0.0
H491 H 0.4695 0.51729 0.54984 0.0
H492 H 0.49744 0.49089 0.55985 0.0
H493 H 0.56962 0.55792 0.54999 0.0
H494 H 0.54189 0.58445 0.53985 0.0
H495 H 0.57877 0.57884 0.52157 0.0
H496 H 0.49354 0.48744 0.45123 0.0
H497 H 0.45712 0.52859 0.44452 0.0
H498 H 0.47267 0.5652 0.51561 0.0
C499 C 0.55599 0.47463 0.52993 0.0
C500 C 0.56889 0.44835 0.51855 0.0
C501 C 0.55924 0.43937 0.49518 0.0
C502 C 0.53776 0.45651 0.48329 0.0
C503 C 0.52583 0.48244 0.49497 0.0
C504 C 0.53435 0.49135 0.51777 0.0
C505 C 0.51755 0.51988 0.52627 0.0
C506 C 0.48336 0.49719 0.54462 0.0
C507 C 0.55415 0.56282 0.53493 0.0
C508 C 0.49828 0.52556 0.50464 0.0
C509 C 0.50357 0.50376 0.48681 0.0
C510 C 0.48887 0.50436 0.4651 0.0
C511 C 0.46792 0.52763 0.46151 0.0
C512 C 0.4615 0.54987 0.47956 0.0
C513 C 0.47721 0.54886 0.50139 0.0
H514 H 0.11342 0.57364 0.02114 0.0
H515 H 0.10168 0.49524 0.07946 0.0
H516 H 0.02472 0.45043 0.07192 0.0
H517 H 1.01292 0.56934 0.02637 0.0
H518 H 1.00293 0.56543 0.99629 0.0
H519 H 0.05695 0.59252 1.00674 0.0
H520 H 0.07395 0.54289 0.98251 0.0
H521 H 1.02004 0.51577 0.9719 0.0
H522 H 0.04137 0.48577 0.98547 0.0
H523 H 0.94863 0.41438 0.05822 0.0
H524 H 0.87985 0.38823 0.03864 0.0
H525 H 0.94272 0.48623 0.98732 0.0
C526 C 0.09497 0.54683 0.03226 0.0
C527 C 0.11399 0.53838 0.05104 0.0
C528 C 0.08805 0.50319 0.06526 0.0
C529 C 0.04423 0.47725 0.06102 0.0
C530 C 0.02673 0.48652 0.04235 0.0
C531 C 0.05134 0.52026 0.0281 0.0
C532 C 0.02493 0.5227 1.00885 0.0
C533 C 0.02441 0.56501 1.00962 0.0
C534 C 0.04103 0.51639 0.98582 0.0
C535 C 0.98156 0.48511 0.01455 0.0
C536 C 0.98323 0.46482 0.03401 0.0
C537 C 0.94702 0.42974 0.04283 0.0
C538 C 0.90808 0.4149 0.03143 0.0
C539 C 0.90557 0.43479 1.01123 0.0
C540 C 0.9431 0.47041 1.0028 0.0
H541 H 0.5506 0.10917 0.51672 0.0
H542 H 0.61069 0.09733 0.57786 0.0
H543 H 0.57885 0.02006 0.5708 0.0
H544 H 0.45164 1.00928 0.52306 0.0
H545 H 0.44559 0.99769 0.49312 0.0
H546 H 0.47344 0.05232 0.50283 0.0
H547 H 0.53948 0.06633 0.4791 0.0
H548 H 0.51189 1.01172 0.46937 0.0
H549 H 0.56297 0.03299 0.48319 0.0
H550 H 0.54086 0.94426 0.55722 0.0
H551 H 0.49904 0.87472 0.53798 0.0
H552 H 0.46152 0.93486 0.48624 0.0
C553 C 0.5568 0.09029 0.52873 0.0
C554 C 0.58343 0.1095 0.54779 0.0
C555 C 0.59106 0.08361 0.56293 0.0
C556 C 0.57288 0.03959 0.55915 0.0
C557 C 0.54699 0.02177 0.54019 0.0
C558 C 0.53885 0.04622 0.52523 0.0
C559 C 0.50984 0.019 0.50614 0.0
C560 C 0.46762 0.01961 0.50631 0.0
C561 C 0.53241 0.03337 0.48309 0.0
C562 C 0.50302 0.97547 0.51273 0.0
C563 C 0.52473 0.97784 0.53243 0.0
C564 C 0.52351 0.94194 0.54184 0.0
C565 C 0.49941 0.9025 0.53085 0.0
C566 C 0.47671 0.89912 0.51064 0.0
C567 C 0.47874 0.93631 0.50153 0.0
loop_
_geom_bond_atom_site_label_1
_geom_bond_atom_site_label_2
_geom_bond_distance
_geom_bond_site_symmetry_2
_ccdc_geom_bond_type
Li0 N17 1.990 . S
Li0 O60 1.956 . S
Li0 O61 1.970 . S
Li0 O62 1.961 . S
Li1 N25 1.990 . S
Li1 O60 1.970 . S
Li1 O61 1.956 . S
Li1 O63 1.961 . S
Li2 N47 1.990 . S
Li2 O60 1.961 . S
Li2 O62 1.956 . S
Li2 O63 1.970 . S
Li3 N53 1.990 . S
Li3 O61 1.961 . S
Li3 O62 1.970 . S
Li3 O63 1.956 . S
C4 C6 1.348 . S
C4 C7 1.356 . S
C4 O60 1.325 . S
N5 C8 1.314 . S
N5 C9 1.279 . S
C6 C4 1.348 . S
C6 C8 1.353 . S
C6 H64 0.929 . S
C7 C4 1.356 . S
C7 C9 1.358 . S
C7 H65 0.930 . S
C8 N5 1.314 . S
C8 C6 1.353 . S
C8 H66 0.930 . S
C9 N5 1.279 . S
C9 C7 1.358 . S
C9 H67 0.930 . S
C10 C13 1.348 . S
C10 C14 1.356 . S
C10 O61 1.325 . S
C11 N12 1.279 . S
C11 C14 1.358 . S
C11 H68 0.930 . S
N12 C11 1.279 . S
N12 C15 1.314 . S
C13 C10 1.348 . S
C13 C15 1.353 . S
C13 H69 0.929 . S
C14 C10 1.356 . S
C14 C11 1.358 . S
C14 H70 0.930 . S
C15 N12 1.314 . S
C15 C13 1.353 . S
C15 H71 0.930 . S
C16 N17 1.314 . S
C16 C21 1.353 . S
C16 H22 0.930 . S
N17 Li0 1.990 . S
N17 C16 1.314 . S
N17 C19 1.279 . S
C18 C19 1.358 . S
C18 C20 1.356 . S
C18 H72 0.930 . S
C19 N17 1.279 . S
C19 C18 1.358 . S
C19 H23 0.930 . S
C20 C18 1.356 . S
C20 C21 1.348 . S
C21 C16 1.353 . S
C21 C20 1.348 . S
C21 H73 0.929 . S
H22 C16 0.930 . S
H23 C19 0.930 . S
C24 N25 1.314 . S
C24 C26 1.353 . S
C24 H30 0.930 . S
N25 Li1 1.990 . S
N25 C24 1.314 . S
N25 C28 1.279 . S
C26 C24 1.353 . S
C26 C29 1.348 . S
C26 H74 0.929 . S
C27 C28 1.358 . S
C27 C29 1.356 . S
C27 H75 0.930 . S
C28 N25 1.279 . S
C28 C27 1.358 . S
C28 H31 0.930 . S
C29 C26 1.348 . S
C29 C27 1.356 . S
H30 C24 0.930 . S
H31 C28 0.930 . S
C32 C34 1.348 . S
C32 C35 1.356 . S
C32 O62 1.325 . S
N33 C36 1.314 . S
N33 C37 1.279 . S
C34 C32 1.348 . S
C34 C36 1.353 . S
C34 H76 0.929 . S
C35 C32 1.356 . S
C35 C37 1.358 . S
C35 H77 0.930 . S
C36 N33 1.314 . S
C36 C34 1.353 . S
C36 H78 0.930 . S
C37 N33 1.279 . S
C37 C35 1.358 . S
C37 H79 0.930 . S
C38 C39 1.330 1_554 S
C38 C40 1.355 1_554 S
C38 O63 1.325 . S
C39 C38 1.330 1_556 S
C39 C41 1.385 . S
C39 H80 0.916 1_556 S
C40 C38 1.355 1_556 S
C40 C42 1.360 . S
C40 H81 0.929 1_556 S
C41 C39 1.385 . S
C41 N43 1.314 . S
C41 H82 0.930 . S
C42 C40 1.360 . S
C42 N43 1.279 . S
C42 H83 0.930 . S
N43 C41 1.314 . S
N43 C42 1.279 . S
C44 C46 1.353 . S
C44 N47 1.314 . S
C44 H50 0.930 . S
C45 N47 1.279 . S
C45 C48 1.358 . S
C45 H51 0.930 . S
C46 C44 1.353 . S
C46 C49 1.348 . S
C46 H84 0.929 . S
N47 Li2 1.990 . S
N47 C44 1.314 . S
N47 C45 1.279 . S
C48 C45 1.358 . S
C48 C49 1.356 . S
C48 H85 0.930 . S
C49 C46 1.348 . S
C49 C48 1.356 . S
H50 C44 0.930 . S
H51 C45 0.930 . S
C52 N53 1.314 . S
C52 C54 1.353 . S
C52 H58 0.930 . S
N53 Li3 1.990 . S
N53 C52 1.314 . S
N53 C56 1.279 . S
C54 C52 1.353 . S
C54 C57 1.348 . S
C54 H86 0.929 . S
C55 C56 1.358 . S
C55 C57 1.356 . S
C55 H87 0.930 1_554 S
C56 N53 1.279 . S
C56 C55 1.358 . S
C56 H59 0.930 . S
C57 C54 1.348 . S
C57 C55 1.356 . S
H58 C52 0.930 . S
H59 C56 0.930 . S
O60 Li0 1.956 . S
O60 Li1 1.970 . S
O60 Li2 1.961 . S
O60 C4 1.325 . S
O61 Li0 1.970 . S
O61 Li1 1.956 . S
O61 Li3 1.961 . S
O61 C10 1.325 . S
O62 Li0 1.961 . S
O62 Li2 1.956 . S
O62 Li3 1.970 . S
O62 C32 1.325 . S
O63 Li1 1.961 . S
O63 Li2 1.970 . S
O63 Li3 1.956 . S
O63 C38 1.325 . S
H64 C6 0.929 . S
H65 C7 0.930 . S
H66 C8 0.930 . S
H67 C9 0.930 . S
H68 C11 0.930 . S
H69 C13 0.929 . S
H70 C14 0.930 . S
H71 C15 0.930 . S
H72 C18 0.930 . S
H73 C21 0.929 . S
H74 C26 0.929 . S
H75 C27 0.930 . S
H76 C34 0.929 . S
H77 C35 0.930 . S
H78 C36 0.930 . S
H79 C37 0.930 . S
H80 C39 0.916 1_554 S
H81 C40 0.929 1_554 S
H82 C41 0.930 . S
H83 C42 0.930 . S
H84 C46 0.929 . S
H85 C48 0.930 . S
H86 C54 0.929 . S
H87 C55 0.930 1_556 S
Li88 N105 1.990 . S
Li88 O148 1.956 . S
Li88 O149 1.970 . S
Li88 O150 1.961 . S
Li89 N113 1.990 . S
Li89 O148 1.970 . S
Li89 O149 1.956 . S
Li89 O151 1.961 . S
Li90 N135 1.990 . S
Li90 O148 1.961 . S
Li90 O150 1.956 . S
Li90 O151 1.970 . S
Li91 N141 1.990 . S
Li91 O149 1.961 . S
Li91 O150 1.970 . S
Li91 O151 1.956 . S
C92 C94 1.348 . S
C92 C95 1.356 . S
C92 O148 1.325 . S
N93 C96 1.314 . S
N93 C97 1.279 . S
C94 C92 1.348 . S
C94 C96 1.353 . S
C94 H152 0.929 . S
C95 C92 1.356 . S
C95 C97 1.358 . S
C95 H153 0.930 . S
C96 N93 1.314 . S
C96 C94 1.353 . S
C96 H154 0.930 . S
C97 N93 1.279 . S
C97 C95 1.358 . S
C97 H155 0.930 . S
C98 C101 1.348 . S
C98 C102 1.356 . S
C98 O149 1.325 . S
C99 N100 1.279 . S
C99 C102 1.358 . S
C99 H156 0.930 . S
N100 C99 1.279 . S
N100 C103 1.314 . S
C101 C98 1.348 . S
C101 C103 1.353 . S
C101 H157 0.929 . S
C102 C98 1.356 . S
C102 C99 1.358 . S
C102 H158 0.930 . S
C103 N100 1.314 . S
C103 C101 1.353 . S
C103 H159 0.930 . S
C104 N105 1.314 . S
C104 C109 1.353 . S
C104 H110 0.930 . S
N105 Li88 1.990 . S
N105 C104 1.314 . S
N105 C107 1.279 . S
C106 C107 1.358 . S
C106 C108 1.356 . S
C106 H160 0.930 . S
C107 N105 1.279 . S
C107 C106 1.358 . S
C107 H111 0.930 . S
C108 C106 1.356 . S
C108 C109 1.348 . S
C109 C104 1.353 . S
C109 C108 1.348 . S
C109 H161 0.929 . S
H110 C104 0.930 . S
H111 C107 0.930 . S
C112 N113 1.314 . S
C112 C114 1.353 . S
C112 H118 0.930 . S
N113 Li89 1.990 . S
N113 C112 1.314 . S
N113 C116 1.279 . S
C114 C112 1.353 . S
C114 C117 1.348 . S
C114 H162 0.929 . S
C115 C116 1.358 . S
C115 C117 1.356 . S
C115 H163 0.930 . S
C116 N113 1.279 . S
C116 C115 1.358 . S
C116 H119 0.930 . S
C117 C114 1.348 . S
C117 C115 1.356 . S
H118 C112 0.930 . S
H119 C116 0.930 . S
C120 C122 1.348 . S
C120 C123 1.356 . S
C120 O150 1.325 . S
N121 C124 1.314 . S
N121 C125 1.279 . S
C122 C120 1.348 . S
C122 C124 1.353 . S
C122 H164 0.929 . S
C123 C120 1.356 . S
C123 C125 1.358 . S
C123 H165 0.930 . S
C124 N121 1.314 . S
C124 C122 1.353 . S
C124 H166 0.930 . S
C125 N121 1.279 . S
C125 C123 1.358 . S
C125 H167 0.930 . S
C126 C127 1.348 . S
C126 C128 1.356 . S
C126 O151 1.325 . S
C127 C126 1.348 . S
C127 C129 1.353 . S
C127 H168 0.929 . S
C128 C126 1.356 . S
C128 C130 1.358 . S
C128 H169 0.930 . S
C129 C127 1.353 . S
C129 N131 1.314 . S
C129 H170 0.930 . S
C130 C128 1.358 . S
C130 N131 1.279 . S
C130 H171 0.930 . S
N131 C129 1.314 . S
N131 C130 1.279 . S
C132 C134 1.353 . S
C132 N135 1.314 . S
C132 H138 0.930 . S
C133 N135 1.279 . S
C133 C136 1.358 . S
C133 H139 0.930 . S
C134 C132 1.353 . S
C134 C137 1.348 . S
C134 H172 0.929 . S
N135 Li90 1.990 . S
N135 C132 1.314 . S
N135 C133 1.279 . S
C136 C133 1.358 . S
C136 C137 1.356 . S
C136 H173 0.930 . S
C137 C134 1.348 . S
C137 C136 1.356 . S
H138 C132 0.930 . S
H139 C133 0.930 . S
C140 N141 1.314 . S
C140 C142 1.353 . S
C140 H146 0.930 . S
N141 Li91 1.990 . S
N141 C140 1.314 . S
N141 C144 1.279 . S
C142 C140 1.353 . S
C142 C145 1.348 . S
C142 H174 0.929 . S
C143 C144 1.358 . S
C143 C145 1.356 . S
C143 H175 0.930 . S
C144 N141 1.279 . S
C144 C143 1.358 . S
C144 H147 0.930 . S
C145 C142 1.348 . S
C145 C143 1.356 . S
H146 C140 0.930 . S
H147 C144 0.930 . S
O148 Li88 1.956 . S
O148 Li89 1.970 . S
O148 Li90 1.961 . S
O148 C92 1.325 . S
O149 Li88 1.970 . S
O149 Li89 1.956 . S
O149 Li91 1.961 . S
O149 C98 1.325 . S
O150 Li88 1.961 . S
O150 Li90 1.956 . S
O150 Li91 1.970 . S
O150 C120 1.325 . S
O151 Li89 1.961 . S
O151 Li90 1.970 . S
O151 Li91 1.956 . S
O151 C126 1.325 . S
H152 C94 0.929 . S
H153 C95 0.930 . S
H154 C96 0.930 . S
H155 C97 0.930 . S
H156 C99 0.930 . S
H157 C101 0.929 . S
H158 C102 0.930 . S
H159 C103 0.930 . S
H160 C106 0.930 . S
H161 C109 0.929 . S
H162 C114 0.929 . S
H163 C115 0.930 . S
H164 C122 0.929 . S
H165 C123 0.930 . S
H166 C124 0.930 . S
H167 C125 0.930 . S
H168 C127 0.929 . S
H169 C128 0.930 . S
H170 C129 0.930 . S
H171 C130 0.930 . S
H172 C134 0.929 . S
H173 C136 0.930 . S
H174 C142 0.929 . S
H175 C143 0.930 . S
Li176 N193 1.990 . S
Li176 O236 1.956 . S
Li176 O237 1.970 . S
Li176 O238 1.961 . S
Li177 N201 1.990 . S
Li177 O236 1.970 . S
Li177 O237 1.956 . S
Li177 O239 1.961 . S
Li178 N223 1.990 . S
Li178 O236 1.961 . S
Li178 O238 1.956 . S
Li178 O239 1.970 . S
Li179 N229 1.990 . S
Li179 O237 1.961 . S
Li179 O238 1.970 . S
Li179 O239 1.956 . S
C180 C182 1.348 . S
C180 C183 1.356 . S
C180 O236 1.325 . S
N181 C184 1.314 . S
N181 C185 1.279 . S
C182 C180 1.348 . S
C182 C184 1.353 . S
C182 H240 0.929 . S
C183 C180 1.356 . S
C183 C185 1.358 . S
C183 H241 0.930 . S
C184 N181 1.314 . S
C184 C182 1.353 . S
C184 H242 0.930 . S
C185 N181 1.279 . S
C185 C183 1.358 . S
C185 H243 0.930 . S
C186 C189 1.348 . S
C186 C190 1.356 . S
C186 O237 1.325 . S
C187 N188 1.279 . S
C187 C190 1.358 . S
C187 H244 0.930 . S
N188 C187 1.279 . S
N188 C191 1.314 . S
C189 C186 1.348 . S
C189 C191 1.353 . S
C189 H245 0.929 . S
C190 C186 1.356 . S
C190 C187 1.358 . S
C190 H246 0.930 . S
C191 N188 1.314 . S
C191 C189 1.353 . S
C191 H247 0.930 . S
C192 N193 1.314 . S
C192 C197 1.353 . S
C192 H198 0.930 . S
N193 Li176 1.990 . S
N193 C192 1.314 . S
N193 C195 1.279 . S
C194 C195 1.358 . S
C194 C196 1.356 . S
C194 H248 0.930 . S
C195 N193 1.279 . S
C195 C194 1.358 . S
C195 H199 0.930 . S
C196 C194 1.356 . S
C196 C197 1.348 . S
C197 C192 1.353 . S
C197 C196 1.348 . S
C197 H249 0.929 . S
H198 C192 0.930 . S
H199 C195 0.930 . S
C200 N201 1.314 . S
C200 C202 1.353 . S
C200 H206 0.930 . S
N201 Li177 1.990 . S
N201 C200 1.314 . S
N201 C204 1.279 . S
C202 C200 1.353 . S
C202 C205 1.348 . S
C202 H250 0.929 . S
C203 C204 1.358 . S
C203 C205 1.356 . S
C203 H251 0.930 . S
C204 N201 1.279 . S
C204 C203 1.358 . S
C204 H207 0.930 . S
C205 C202 1.348 . S
C205 C203 1.356 . S
H206 C200 0.930 . S
H207 C204 0.930 . S
C208 C210 1.348 . S
C208 C211 1.356 . S
C208 O238 1.325 . S
N209 C212 1.314 . S
N209 C213 1.279 . S
C210 C208 1.348 . S
C210 C212 1.353 . S
C210 H252 0.929 . S
C211 C208 1.356 . S
C211 C213 1.358 . S
C211 H253 0.930 . S
C212 N209 1.314 . S
C212 C210 1.353 . S
C212 H254 0.930 . S
C213 N209 1.279 . S
C213 C211 1.358 . S
C213 H255 0.930 . S
C214 C215 1.348 . S
C214 C216 1.356 . S
C214 O239 1.325 . S
C215 C214 1.348 . S
C215 C217 1.353 . S
C215 H256 0.929 . S
C216 C214 1.356 . S
C216 C218 1.358 . S
C216 H257 0.930 . S
C217 C215 1.353 . S
C217 N219 1.314 . S
C217 H258 0.930 . S
C218 C216 1.358 . S
C218 N219 1.279 . S
C218 H259 0.930 . S
N219 C217 1.314 . S
N219 C218 1.279 . S
C220 C222 1.353 . S
C220 N223 1.314 . S
C220 H226 0.930 . S
C221 N223 1.279 . S
C221 C224 1.358 . S
C221 H227 0.930 . S
C222 C220 1.353 . S
C222 C225 1.348 . S
C222 H260 0.929 . S
N223 Li178 1.990 . S
N223 C220 1.314 . S
N223 C221 1.279 . S
C224 C221 1.358 . S
C224 C225 1.356 . S
C224 H261 0.930 . S
C225 C222 1.348 . S
C225 C224 1.356 . S
H226 C220 0.930 . S
H227 C221 0.930 . S
C228 N229 1.314 . S
C228 C230 1.353 . S
C228 H234 0.930 . S
N229 Li179 1.990 . S
N229 C228 1.314 . S
N229 C232 1.279 . S
C230 C228 1.353 . S
C230 C233 1.348 . S
C230 H262 0.929 . S
C231 C232 1.358 . S
C231 C233 1.356 . S
C231 H263 0.930 . S
C232 N229 1.279 . S
C232 C231 1.358 . S
C232 H235 0.930 . S
C233 C230 1.348 . S
C233 C231 1.356 . S
H234 C228 0.930 . S
H235 C232 0.930 . S
O236 Li176 1.956 . S
O236 Li177 1.970 . S
O236 Li178 1.961 . S
O236 C180 1.325 . S
O237 Li176 1.970 . S
O237 Li177 1.956 . S
O237 Li179 1.961 . S
O237 C186 1.325 . S
O238 Li176 1.961 . S
O238 Li178 1.956 . S
O238 Li179 1.970 . S
O238 C208 1.325 . S
O239 Li177 1.961 . S
O239 Li178 1.970 . S
O239 Li179 1.956 . S
O239 C214 1.325 . S
H240 C182 0.929 . S
H241 C183 0.930 . S
H242 C184 0.930 . S
H243 C185 0.930 . S
H244 C187 0.930 . S
H245 C189 0.929 . S
H246 C190 0.930 . S
H247 C191 0.930 . S
H248 C194 0.930 . S
H249 C197 0.929 . S
H250 C202 0.929 . S
H251 C203 0.930 . S
H252 C210 0.929 . S
H253 C211 0.930 . S
H254 C212 0.930 . S
H255 C213 0.930 . S
H256 C215 0.929 . S
H257 C216 0.930 . S
H258 C217 0.930 . S
H259 C218 0.930 . S
H260 C222 0.929 . S
H261 C224 0.930 . S
H262 C230 0.929 . S
H263 C231 0.930 . S
Li264 N281 1.990 . S
Li264 O324 1.956 . S
Li264 O325 1.970 . S
Li264 O326 1.961 . S
Li265 N289 1.990 . S
Li265 O324 1.970 . S
Li265 O325 1.956 . S
Li265 O327 1.961 . S
Li266 N311 1.990 . S
Li266 O324 1.961 . S
Li266 O326 1.956 . S
Li266 O327 1.970 . S
Li267 N317 1.990 . S
Li267 O325 1.961 . S
Li267 O326 1.970 . S
Li267 O327 1.956 . S
C268 C270 1.348 . S
C268 C271 1.356 . S
C268 O324 1.325 . S
N269 C272 1.314 . S
N269 C273 1.279 . S
C270 C268 1.348 . S
C270 C272 1.353 . S
C270 H328 0.929 . S
C271 C268 1.356 . S
C271 C273 1.358 . S
C271 H329 0.930 . S
C272 N269 1.314 . S
C272 C270 1.353 . S
C272 H330 0.930 . S
C273 N269 1.279 . S
C273 C271 1.358 . S
C273 H331 0.930 . S
C274 C277 1.330 1_556 S
C274 C278 1.355 1_556 S
C274 O325 1.325 . S
C275 N276 1.279 . S
C275 C278 1.360 . S
C275 H332 0.930 . S
N276 C275 1.279 . S
N276 C279 1.314 . S
C277 C274 1.330 1_554 S
C277 C279 1.385 . S
C277 H333 0.916 1_554 S
C278 C274 1.355 1_554 S
C278 C275 1.360 . S
C278 H334 0.929 1_554 S
C279 N276 1.314 . S
C279 C277 1.385 . S
C279 H335 0.930 . S
C280 N281 1.314 . S
C280 C285 1.353 . S
C280 H286 0.930 . S
N281 Li264 1.990 . S
N281 C280 1.314 . S
N281 C283 1.279 . S
C282 C283 1.358 . S
C282 C284 1.356 . S
C282 H336 0.930 . S
C283 N281 1.279 . S
C283 C282 1.358 . S
C283 H287 0.930 . S
C284 C282 1.356 . S
C284 C285 1.348 . S
C285 C280 1.353 . S
C285 C284 1.348 . S
C285 H337 0.929 . S
H286 C280 0.930 . S
H287 C283 0.930 . S
C288 N289 1.314 . S
C288 C290 1.353 . S
C288 H294 0.930 . S
N289 Li265 1.990 . S
N289 C288 1.314 . S
N289 C292 1.279 . S
C290 C288 1.353 . S
C290 C293 1.348 . S
C290 H338 0.929 . S
C291 C292 1.358 . S
C291 C293 1.356 . S
C291 H339 0.930 1_556 S
C292 N289 1.279 . S
C292 C291 1.358 . S
C292 H295 0.930 . S
C293 C290 1.348 . S
C293 C291 1.356 . S
H294 C288 0.930 . S
H295 C292 0.930 . S
C296 C298 1.348 . S
C296 C299 1.356 . S
C296 O326 1.325 . S
N297 C300 1.314 . S
N297 C301 1.279 . S
C298 C296 1.348 . S
C298 C300 1.353 . S
C298 H340 0.929 . S
C299 C296 1.356 . S
C299 C301 1.358 . S
C299 H341 0.930 . S
C300 N297 1.314 . S
C300 C298 1.353 . S
C300 H342 0.930 . S
C301 N297 1.279 . S
C301 C299 1.358 . S
C301 H343 0.930 . S
C302 C303 1.348 . S
C302 C304 1.356 . S
C302 O327 1.325 . S
C303 C302 1.348 . S
C303 C305 1.353 . S
C303 H344 0.929 . S
C304 C302 1.356 . S
C304 C306 1.358 . S
C304 H345 0.930 . S
C305 C303 1.353 . S
C305 N307 1.314 . S
C305 H346 0.930 . S
C306 C304 1.358 . S
C306 N307 1.279 . S
C306 H347 0.930 . S
N307 C305 1.314 . S
N307 C306 1.279 . S
C308 C310 1.353 . S
C308 N311 1.314 . S
C308 H314 0.930 . S
C309 N311 1.279 . S
C309 C312 1.358 . S
C309 H315 0.930 . S
C310 C308 1.353 . S
C310 C313 1.348 . S
C310 H348 0.929 . S
N311 Li266 1.990 . S
N311 C308 1.314 . S
N311 C309 1.279 . S
C312 C309 1.358 . S
C312 C313 1.356 . S
C312 H349 0.930 . S
C313 C310 1.348 . S
C313 C312 1.356 . S
H314 C308 0.930 . S
H315 C309 0.930 . S
C316 N317 1.314 . S
C316 C318 1.353 . S
C316 H322 0.930 . S
N317 Li267 1.990 . S
N317 C316 1.314 . S
N317 C320 1.279 . S
C318 C316 1.353 . S
C318 C321 1.348 . S
C318 H350 0.929 . S
C319 C320 1.358 . S
C319 C321 1.356 . S
C319 H351 0.930 . S
C320 N317 1.279 . S
C320 C319 1.358 . S
C320 H323 0.930 . S
C321 C318 1.348 . S
C321 C319 1.356 . S
H322 C316 0.930 . S
H323 C320 0.930 . S
O324 Li264 1.956 . S
O324 Li265 1.970 . S
O324 Li266 1.961 . S
O324 C268 1.325 . S
O325 Li264 1.970 . S
O325 Li265 1.956 . S
O325 Li267 1.961 . S
O325 C274 1.325 . S
O326 Li264 1.961 . S
O326 Li266 1.956 . S
O326 Li267 1.970 . S
O326 C296 1.325 . S
O327 Li265 1.961 . S
O327 Li266 1.970 . S
O327 Li267 1.956 . S
O327 C302 1.325 . S
H328 C270 0.929 . S
H329 C271 0.930 . S
H330 C272 0.930 . S
H331 C273 0.930 . S
H332 C275 0.930 . S
H333 C277 0.916 1_556 S
H334 C278 0.929 1_556 S
H335 C279 0.930 . S
H336 C282 0.930 . S
H337 C285 0.929 . S
H338 C290 0.929 . S
H339 C291 0.930 1_554 S
H340 C298 0.929 . S
H341 C299 0.930 . S
H342 C300 0.930 . S
H343 C301 0.930 . S
H344 C303 0.929 . S
H345 C304 0.930 . S
H346 C305 0.930 . S
H347 C306 0.930 . S
H348 C310 0.929 . S
H349 C312 0.930 . S
H350 C318 0.929 . S
H351 C319 0.930 . S
H352 C364 0.930 . S
H353 C366 0.930 . S
H354 C367 0.930 . S
H355 C371 0.959 . S
H356 C371 0.959 . S
H357 C371 0.961 . S
H358 C372 0.960 . S
H359 C372 0.961 . S
H360 C372 0.959 . S
H361 C375 0.929 . S
H362 C376 0.931 . S
H363 C378 0.930 . S
C364 H352 0.930 . S
C364 C365 1.399 . S
C364 C369 1.399 . S
C365 C364 1.399 . S
C365 C366 1.376 . S
C366 H353 0.930 . S
C366 C365 1.376 . S
C366 C367 1.388 . S
C367 H354 0.930 . S
C367 C366 1.388 . S
C367 C368 1.390 . S
C368 C367 1.390 . S
C368 C369 1.394 . S
C368 C374 1.465 . S
C369 C364 1.399 . S
C369 C368 1.394 . S
C369 C370 1.516 . S
C370 C369 1.516 . S
C370 C371 1.502 . S
C370 C372 1.561 . S
C370 C373 1.526 . S
C371 H355 0.959 . S
C371 H356 0.959 . S
C371 H357 0.961 . S
C371 C370 1.502 . S
C372 H358 0.960 . S
C372 H359 0.961 . S
C372 H360 0.959 . S
C372 C370 1.561 . S
C373 C370 1.526 . S
C373 C374 1.396 . S
C373 C378 1.390 . S
C374 C368 1.465 . S
C374 C373 1.396 . S
C374 C375 1.399 . S
C375 H361 0.929 . S
C375 C374 1.399 . S
C375 C376 1.385 . S
C376 H362 0.931 . S
C376 C375 1.385 . S
C376 C377 1.389 . S
C377 C376 1.389 . S
C377 C378 1.387 . S
C378 H363 0.930 . S
C378 C373 1.390 . S
C378 C377 1.387 . S
H379 C391 0.930 . S
H380 C393 0.930 . S
H381 C394 0.930 . S
H382 C398 0.959 . S
H383 C398 0.959 . S
H384 C398 0.961 . S
H385 C399 0.960 . S
H386 C399 0.961 . S
H387 C399 0.959 . S
H388 C402 0.929 . S
H389 C403 0.931 . S
H390 C405 0.930 . S
C391 H379 0.930 . S
C391 C392 1.399 . S
C391 C396 1.399 . S
C392 C391 1.399 . S
C392 C393 1.376 . S
C393 H380 0.930 . S
C393 C392 1.376 . S
C393 C394 1.388 . S
C394 H381 0.930 . S
C394 C393 1.388 . S
C394 C395 1.390 . S
C395 C394 1.390 . S
C395 C396 1.394 . S
C395 C401 1.465 . S
C396 C391 1.399 . S
C396 C395 1.394 . S
C396 C397 1.516 . S
C397 C396 1.516 . S
C397 C398 1.502 . S
C397 C399 1.561 . S
C397 C400 1.526 . S
C398 H382 0.959 . S
C398 H383 0.959 . S
C398 H384 0.961 . S
C398 C397 1.502 . S
C399 H385 0.960 . S
C399 H386 0.961 . S
C399 H387 0.959 . S
C399 C397 1.561 . S
C400 C397 1.526 . S
C400 C401 1.396 . S
C400 C405 1.390 . S
C401 C395 1.465 . S
C401 C400 1.396 . S
C401 C402 1.399 . S
C402 H388 0.929 . S
C402 C401 1.399 . S
C402 C403 1.385 . S
C403 H389 0.931 . S
C403 C402 1.385 . S
C403 C404 1.389 . S
C404 C403 1.389 . S
C404 C405 1.387 . S
C405 H390 0.930 . S
C405 C400 1.390 . S
C405 C404 1.387 . S
H406 C418 0.930 . S
H407 C420 0.930 . S
H408 C421 0.930 . S
H409 C425 0.959 . S
H410 C425 0.959 . S
H411 C425 0.961 . S
H412 C426 0.960 . S
H413 C426 0.961 . S
H414 C426 0.959 . S
H415 C429 0.929 . S
H416 C430 0.931 . S
H417 C432 0.930 1_554 S
C418 H406 0.930 . S
C418 C419 1.399 . S
C418 C423 1.399 . S
C419 C418 1.399 . S
C419 C420 1.376 1_554 S
C420 H407 0.930 . S
C420 C419 1.376 1_556 S
C420 C421 1.388 . S
C421 H408 0.930 . S
C421 C420 1.388 . S
C421 C422 1.390 . S
C422 C421 1.390 . S
C422 C423 1.394 1_556 S
C422 C428 1.465 . S
C423 C418 1.399 . S
C423 C422 1.394 1_554 S
C423 C424 1.516 . S
C424 C423 1.516 . S
C424 C425 1.502 . S
C424 C426 1.561 . S
C424 C427 1.558 . S
C425 H409 0.959 . S
C425 H410 0.959 . S
C425 H411 0.961 . S
C425 C424 1.502 . S
C426 H412 0.960 . S
C426 H413 0.961 . S
C426 H414 0.959 . S
C426 C424 1.561 . S
C427 C424 1.558 . S
C427 C428 1.368 1_554 S
C427 C432 1.384 1_554 S
C428 C422 1.465 . S
C428 C427 1.368 1_556 S
C428 C429 1.399 . S
C429 H415 0.929 . S
C429 C428 1.399 . S
C429 C430 1.385 . S
C430 H416 0.931 . S
C430 C429 1.385 . S
C430 C431 1.389 . S
C431 C430 1.389 . S
C431 C432 1.387 . S
C432 H417 0.930 1_556 S
C432 C427 1.384 1_556 S
C432 C431 1.387 . S
H433 C445 0.930 . S
H434 C447 0.930 . S
H435 C448 0.930 . S
H436 C452 0.959 . S
H437 C452 0.959 . S
H438 C452 0.961 . S
H439 C453 0.960 . S
H440 C453 0.961 1_655 S
H441 C453 0.959 1_655 S
H442 C456 0.929 . S
H443 C457 0.931 . S
H444 C459 0.930 . S
C445 H433 0.930 . S
C445 C446 1.399 . S
C445 C450 1.399 . S
C446 C445 1.399 . S
C446 C447 1.376 . S
C447 H434 0.930 . S
C447 C446 1.376 . S
C447 C448 1.388 . S
C448 H435 0.930 . S
C448 C447 1.388 . S
C448 C449 1.390 . S
C449 C448 1.390 . S
C449 C450 1.394 . S
C449 C455 1.465 1_455 S
C450 C445 1.399 . S
C450 C449 1.394 . S
C450 C451 1.516 . S
C451 C450 1.516 . S
C451 C452 1.502 . S
C451 C453 1.561 . S
C451 C454 1.526 1_455 S
C452 H436 0.959 . S
C452 H437 0.959 . S
C452 H438 0.961 . S
C452 C451 1.502 . S
C453 H439 0.960 . S
C453 H440 0.961 1_455 S
C453 H441 0.959 1_455 S
C453 C451 1.561 . S
C454 C451 1.526 1_655 S
C454 C455 1.396 . S
C454 C459 1.390 . S
C455 C449 1.465 1_655 S
C455 C454 1.396 . S
C455 C456 1.399 . S
C456 H442 0.929 . S
C456 C455 1.399 . S
C456 C457 1.385 . S
C457 H443 0.931 . S
C457 C456 1.385 . S
C457 C458 1.389 . S
C458 C457 1.389 . S
C458 C459 1.387 . S
C459 H444 0.930 . S
C459 C454 1.390 . S
C459 C458 1.387 . S
H460 C472 0.919 1_554 S
H461 C474 0.930 . S
H462 C475 0.930 . S
H463 C479 0.959 1_566 S
H464 C479 0.959 1_565 S
H465 C479 0.961 . S
H466 C480 0.960 . S
H467 C480 0.961 . S
H468 C480 0.959 . S
H469 C483 0.929 . S
H470 C484 0.942 . S
H471 C486 0.930 . S
C472 H460 0.919 1_556 S
C472 C473 1.399 . S
C472 C477 1.389 1_556 S
C473 C472 1.399 . S
C473 C474 1.376 . S
C474 H461 0.930 . S
C474 C473 1.376 . S
C474 C475 1.388 . S
C475 H462 0.930 . S
C475 C474 1.388 . S
C475 C476 1.390 . S
C476 C475 1.390 . S
C476 C477 1.378 1_556 S
C476 C482 1.473 1_545 S
C477 C472 1.389 1_554 S
C477 C476 1.378 1_554 S
C477 C478 1.544 . S
C478 C477 1.544 . S
C478 C479 1.502 . S
C478 C480 1.561 . S
C478 C481 1.526 1_545 S
C479 H463 0.959 1_544 S
C479 H464 0.959 1_545 S
C479 H465 0.961 . S
C479 C478 1.502 . S
C480 H466 0.960 . S
C480 H467 0.961 . S
C480 H468 0.959 . S
C480 C478 1.561 . S
C481 C478 1.526 1_565 S
C481 C482 1.382 1_554 S
C481 C486 1.390 . S
C482 C476 1.473 1_565 S
C482 C481 1.382 1_556 S
C482 C483 1.404 . S
C483 H469 0.929 . S
C483 C482 1.404 . S
C483 C484 1.385 1_556 S
C484 H470 0.942 . S
C484 C483 1.385 1_554 S
C484 C485 1.389 . S
C485 C484 1.389 . S
C485 C486 1.387 . S
C486 H471 0.930 . S
C486 C481 1.390 . S
C486 C485 1.387 . S
H487 C499 0.930 . S
H488 C501 0.930 . S
H489 C502 0.930 . S
H490 C506 0.959 . S
H491 C506 0.959 . S
H492 C506 0.961 . S
H493 C507 0.960 . S
H494 C507 0.961 . S
H495 C507 0.959 . S
H496 C510 0.929 . S
H497 C511 0.931 . S
H498 C513 0.930 . S
C499 H487 0.930 . S
C499 C500 1.399 . S
C499 C504 1.399 . S
C500 C499 1.399 . S
C500 C501 1.376 . S
C501 H488 0.930 . S
C501 C500 1.376 . S
C501 C502 1.388 . S
C502 H489 0.930 . S
C502 C501 1.388 . S
C502 C503 1.390 . S
C503 C502 1.390 . S
C503 C504 1.394 . S
C503 C509 1.465 . S
C504 C499 1.399 . S
C504 C503 1.394 . S
C504 C505 1.516 . S
C505 C504 1.516 . S
C505 C506 1.502 . S
C505 C507 1.561 . S
C505 C508 1.526 . S
C506 H490 0.959 . S
C506 H491 0.959 . S
C506 H492 0.961 . S
C506 C505 1.502 . S
C507 H493 0.960 . S
C507 H494 0.961 . S
C507 H495 0.959 . S
C507 C505 1.561 . S
C508 C505 1.526 . S
C508 C509 1.396 . S
C508 C513 1.390 . S
C509 C503 1.465 . S
C509 C508 1.396 . S
C509 C510 1.399 . S
C510 H496 0.929 . S
C510 C509 1.399 . S
C510 C511 1.385 . S
C511 H497 0.931 . S
C511 C510 1.385 . S
C511 C512 1.389 . S
C512 C511 1.389 . S
C512 C513 1.387 . S
C513 H498 0.930 . S
C513 C508 1.390 . S
C513 C512 1.387 . S
H514 C526 0.930 1_556 S
H515 C528 0.930 . S
H516 C529 0.930 . S
H517 C533 0.959 . S
H518 C533 0.959 1_655 S
H519 C533 0.961 . S
H520 C534 0.960 . S
H521 C534 0.961 . S
H522 C534 0.959 . S
H523 C537 0.929 . S
H524 C538 0.939 . S
H525 C540 0.930 . S
C526 H514 0.930 1_554 S
C526 C527 1.399 . S
C526 C531 1.399 1_554 S
C527 C526 1.399 . S
C527 C528 1.376 . S
C528 H515 0.930 . S
C528 C527 1.376 . S
C528 C529 1.388 . S
C529 H516 0.930 . S
C529 C528 1.388 . S
C529 C530 1.390 . S
C530 C529 1.390 . S
C530 C531 1.394 1_554 S
C530 C536 1.465 1_455 S
C531 C526 1.399 1_556 S
C531 C530 1.394 1_556 S
C531 C532 1.516 . S
C532 C531 1.516 . S
C532 C533 1.502 . S
C532 C534 1.561 . S
C532 C535 1.526 1_455 S
C533 H517 0.959 . S
C533 H518 0.959 1_455 S
C533 H519 0.961 . S
C533 C532 1.502 . S
C534 H520 0.960 . S
C534 H521 0.961 . S
C534 H522 0.959 . S
C534 C532 1.561 . S
C535 C532 1.526 1_655 S
C535 C536 1.396 1_556 S
C535 C540 1.390 . S
C536 C530 1.465 1_655 S
C536 C535 1.396 1_554 S
C536 C537 1.399 . S
C537 H523 0.929 . S
C537 C536 1.399 . S
C537 C538 1.396 . S
C538 H524 0.939 . S
C538 C537 1.396 . S
C538 C539 1.370 1_554 S
C539 C538 1.370 1_556 S
C539 C540 1.387 . S
C540 H525 0.930 . S
C540 C535 1.390 . S
C540 C539 1.387 . S
H541 C553 0.930 . S
H542 C555 0.930 . S
H543 C556 0.930 . S
H544 C560 0.959 1_565 S
H545 C560 0.959 1_565 S
H546 C560 0.961 . S
H547 C561 0.960 . S
H548 C561 0.961 . S
H549 C561 0.959 . S
H550 C564 0.929 . S
H551 C565 0.931 . S
H552 C567 0.930 . S
C553 H541 0.930 . S
C553 C554 1.399 . S
C553 C558 1.399 . S
C554 C553 1.399 . S
C554 C555 1.376 . S
C555 H542 0.930 . S
C555 C554 1.376 . S
C555 C556 1.388 . S
C556 H543 0.930 . S
C556 C555 1.388 . S
C556 C557 1.390 . S
C557 C556 1.390 . S
C557 C558 1.394 . S
C557 C563 1.465 1_545 S
C558 C553 1.399 . S
C558 C557 1.394 . S
C558 C559 1.516 . S
C559 C558 1.516 . S
C559 C560 1.502 . S
C559 C561 1.561 . S
C559 C562 1.526 1_545 S
C560 H544 0.959 1_545 S
C560 H545 0.959 1_545 S
C560 H546 0.961 . S
C560 C559 1.502 . S
C561 H547 0.960 . S
C561 H548 0.961 . S
C561 H549 0.959 . S
C561 C559 1.561 . S
C562 C559 1.526 1_565 S
C562 C563 1.396 . S
C562 C567 1.390 . S
C563 C557 1.465 1_565 S
C563 C562 1.396 . S
C563 C564 1.399 . S
C564 H550 0.929 . S
C564 C563 1.399 . S
C564 C565 1.385 . S
C565 H551 0.931 . S
C565 C564 1.385 . S
C565 C566 1.389 . S
C566 C565 1.389 . S
C566 C567 1.387 . S
C567 H552 0.930 . S
C567 C562 1.390 . S
C567 C566 1.387 . S
C365 C20 1.490 . S
C377 C205 1.492 . S
C392 C145 1.490 . S
C404 C313 1.494 . S
C419 C29 1.486 . S
C431 C293 1.488 . S
C446 C225 1.502 . S
C458 C117 1.501 . S
C473 C284 1.503 . S
C485 C49 1.505 . S
C500 C108 1.495 . S
C512 C233 1.497 . S
C527 C57 1.486 . S
C539 C321 1.489 . S
C554 C137 1.484 . S
C566 C196 1.484 . S
