# Generated by pormake.
# Topology rkf, (6)-cn, num edge types: 1
# Building blocks:
#     Node 0, Type 0, BuildingBlock: INOVEN_clean_sbu_0, # of connection points: 6
#     Node 1, Type 0, BuildingBlock: INOVEN_clean_sbu_0, # of connection points: 6
#     Node 2, Type 0, BuildingBlock: INOVEN_clean_sbu_0, # of connection points: 6
#     Node 3, Type 0, BuildingBlock: INOVEN_clean_sbu_0, # of connection points: 6
#     Node 4, Type 0, BuildingBlock: INOVEN_clean_sbu_0, # of connection points: 6
#     Node 5, Type 0, BuildingBlock: INOVEN_clean_sbu_0, # of connection points: 6
#     Edge 6, Type (0, 0), BuildingBlock: ZUJKAS_clean_linker_0, # of connection points: 2
#     Edge 7, Type (0, 0), BuildingBlock: ZUJKAS_clean_linker_0, # of connection points: 2
#     Edge 8, Type (0, 0), BuildingBlock: ZUJKAS_clean_linker_0, # of connection points: 2
#     Edge 9, Type (0, 0), BuildingBlock: ZUJKAS_clean_linker_0, # of connection points: 2
#     Edge 10, Type (0, 0), BuildingBlock: ZUJKAS_clean_linker_0, # of connection points: 2
#     Edge 11, Type (0, 0), BuildingBlock: ZUJKAS_clean_linker_0, # of connection points: 2
#     Edge 12, Type (0, 0), BuildingBlock: ZUJKAS_clean_linker_0, # of connection points: 2
#     Edge 13, Type (0, 0), BuildingBlock: ZUJKAS_clean_linker_0, # of connection points: 2
#     Edge 14, Type (0, 0), BuildingBlock: ZUJKAS_clean_linker_0, # of connection points: 2
#     Edge 15, Type (0, 0), BuildingBlock: ZUJKAS_clean_linker_0, # of connection points: 2
#     Edge 16, Type (0, 0), BuildingBlock: ZUJKAS_clean_linker_0, # of connection points: 2
#     Edge 17, Type (0, 0), BuildingBlock: ZUJKAS_clean_linker_0, # of connection points: 2
#     Edge 18, Type (0, 0), BuildingBlock: ZUJKAS_clean_linker_0, # of connection points: 2
#     Edge 19, Type (0, 0), BuildingBlock: ZUJKAS_clean_linker_0, # of connection points: 2
#     Edge 20, Type (0, 0), BuildingBlock: ZUJKAS_clean_linker_0, # of connection points: 2
#     Edge 21, Type (0, 0), BuildingBlock: ZUJKAS_clean_linker_0, # of connection points: 2
#     Edge 22, Type (0, 0), BuildingBlock: ZUJKAS_clean_linker_0, # of connection points: 2
#     Edge 23, Type (0, 0), BuildingBlock: ZUJKAS_clean_linker_0, # of connection points: 2
# Relax obj value: 0.516
# Max RMSD: 0.252
# Mean RMSD: 0.252
data_MOF--net-rkf--node1-INOVEN_clean_sbu_0--edge1-ZUJKAS_clean_linker_0
_symmetry_space_group_name_H-M    P1
_symmetry_Int_Tables_number       1
_symmetry_cell_setting            triclinic
loop_
_symmetry_equiv_pos_as_xyz
'x, y, z'
_cell_length_a     32.056652
_cell_length_b     31.950844
_cell_length_c     58.345215
_cell_angle_alpha  90.233015
_cell_angle_beta   89.704076
_cell_angle_gamma 119.90996
loop_
_atom_site_label
_atom_site_type_symbol
_atom_site_fract_x
_atom_site_fract_y
_atom_site_fract_z
_atom_type_partial_charge
Gd0 Gd 0.28584 0.09886 0.12558 0.0
Gd1 Gd 0.35819 0.19971 0.11244 0.0
C2 C 0.32256 0.18236 0.16542 0.0
C3 C 0.2444 0.01302 0.14263 0.0
C4 C 0.24814 -0.01136 0.1633 0.0
C5 C 0.21155 0.97192 0.17988 0.0
C6 C 0.2868 0.98001 0.16627 0.0
C7 C 0.25201 0.93846 0.20207 0.0
C8 C 0.28859 0.95497 0.18547 0.0
C9 C 0.21356 0.94727 0.19912 0.0
C10 C 0.24698 0.14915 0.10763 0.0
C11 C 0.30561 0.11569 1.07158 0.0
C12 C 0.41174 0.2863 1.09667 0.0
C13 C 0.41853 0.31438 1.07585 0.0
C14 C 0.45047 0.36425 1.07612 0.0
C15 C 0.39136 0.29256 1.05621 0.0
C16 C 0.42516 0.37117 1.03776 0.0
C17 C 0.39428 0.3207 1.0374 0.0
C18 C 0.45404 0.39245 1.05718 0.0
C19 C 0.39606 0.14906 0.1317 0.0
O20 O 0.30554 0.13586 0.16084 0.0
O21 O 0.34097 0.21462 0.14864 0.0
O22 O 0.2275 0.04258 0.14537 0.0
O23 O 0.28037 0.02907 0.12813 0.0
O24 O 0.22823 0.10283 0.1053 0.0
O25 O 0.2823 0.1657 0.12093 0.0
O26 O 0.33175 0.16249 1.0769 0.0
O27 O 0.28767 0.08297 1.088 0.0
O28 O 0.42367 0.25275 1.0955 0.0
O29 O 0.3712 0.27228 0.1076 0.0
O30 O 0.41019 0.19386 0.13619 0.0
O31 O 0.36298 0.13347 0.11699 0.0
H32 H 0.18107 0.97746 0.17786 0.0
H33 H 0.31553 -0.00778 0.15372 0.0
H34 H 0.31863 0.94869 0.18739 0.0
H35 H 0.18439 0.93414 0.21147 0.0
H36 H 0.47193 0.38154 1.09119 0.0
H37 H 0.36704 0.254 1.05564 0.0
H38 H 0.37088 0.30295 1.02297 0.0
H39 H 0.47882 0.43096 1.05792 0.0
Gd40 Gd 0.26863 0.29405 0.45624 0.0
Gd41 Gd 0.23247 0.3603 0.44428 0.0
C42 C 0.21279 0.32044 0.4965 0.0
C43 C 0.31995 0.25898 0.47188 0.0
C44 C 0.34745 0.26102 0.49243 0.0
C45 C 0.32434 0.23923 0.51307 0.0
C46 C 0.39785 0.28355 0.49103 0.0
C47 C 0.40163 0.26125 0.53038 0.0
C48 C 0.42472 0.28385 0.50984 0.0
C49 C 0.35116 0.23926 0.53184 0.0
C50 C 0.18378 0.24931 0.43438 0.0
C51 C 0.27344 0.31849 0.40266 0.0
C52 C 0.19405 0.40924 0.42899 0.0
C53 C 0.17184 0.41463 0.40822 0.0
C54 C 0.16723 0.45569 0.40562 0.0
C55 C 0.15349 0.37845 0.39143 0.0
C56 C 0.12401 0.42355 0.36992 0.0
C57 C 0.12961 0.38279 0.37246 0.0
C58 C 0.14351 0.46019 0.38659 0.0
C59 C 0.32068 0.40388 0.46416 0.0
O60 O 0.24333 0.30481 0.49169 0.0
O61 O 0.19961 0.34009 0.48011 0.0
O62 O 0.27283 0.23618 0.47332 0.0
O63 O 0.33772 0.2988 0.4599 0.0
O64 O 0.21577 0.2359 0.43309 0.0
O65 O 0.19526 0.28208 0.44923 0.0
O66 O 0.24903 0.34087 0.40826 0.0
O67 O 0.28937 0.30129 0.41887 0.0
O68 O 0.24019 0.42464 0.42793 0.0
O69 O 0.16987 0.36801 0.43971 0.0
O70 O 0.28714 0.4137 0.46918 0.0
O71 O 0.30578 0.37177 0.4489 0.0
H72 H 0.28553 0.22136 0.51466 0.0
H73 H 0.41651 0.30046 0.47524 0.0
H74 H 0.4635 0.30144 0.50822 0.0
H75 H 0.3321 0.22066 0.54726 0.0
H76 H 0.1814 0.48398 0.41847 0.0
H77 H 0.15674 0.34647 0.39325 0.0
H78 H 0.11436 0.35351 0.36014 0.0
H79 H 0.14031 0.49223 0.38498 0.0
Gd80 Gd 0.03808 0.27111 0.78722 0.0
Gd81 Gd 0.93682 0.22209 0.77369 0.0
C82 C 0.96451 0.21491 0.82803 0.0
C83 C 0.12655 0.33665 0.79428 0.0
C84 C 0.15449 0.36777 0.81331 0.0
C85 C 0.20454 0.39617 0.81124 0.0
C86 C 0.13187 0.36728 0.834 0.0
C87 C 0.20993 0.41975 0.85125 0.0
C88 C 0.15942 0.39315 0.85285 0.0
C89 C 0.23215 0.42212 0.83008 0.0
C90 C 0.00436 0.17831 0.77289 0.0
C91 C 0.01362 0.26794 0.73167 0.0
C92 C 0.84593 0.16351 0.7673 0.0
C93 C 0.81163 0.13901 0.74876 0.0
C94 C 0.76281 0.12339 0.75245 0.0
C95 C 0.82684 0.13062 0.72757 0.0
C96 C 0.74401 0.08953 0.71403 0.0
C97 C 0.79327 0.1059 0.71037 0.0
C98 C 0.72918 0.09882 0.73522 0.0
C99 C -0.02668 0.31669 0.78242 0.0
O100 O 0.00854 0.25048 0.82349 0.0
O101 O 0.93284 0.19593 0.81106 0.0
O102 O 0.11037 0.29049 0.79721 0.0
O103 O 0.09458 0.34583 0.78539 0.0
O104 O 0.03418 0.19836 0.78979 0.0
O105 O -0.00501 0.20885 0.76479 0.0
O106 O 0.96814 0.23578 0.73701 0.0
O107 O 0.04521 0.2892 0.74854 0.0
O108 O 0.86501 0.21037 0.76818 0.0
O109 O 0.87695 0.14913 0.77129 0.0
O110 O 0.94463 0.29383 0.7656 0.0
O111 O -0.01928 0.28817 0.79451 0.0
H112 H 0.2224 0.39686 0.79531 0.0
H113 H 0.09313 0.34563 0.83578 0.0
H114 H 0.14136 0.39104 0.86891 0.0
H115 H 0.27098 0.44179 0.82841 0.0
H116 H 0.75066 0.12992 0.76874 0.0
H117 H 0.8645 0.14259 0.72445 0.0
H118 H 0.80583 0.09859 0.6944 0.0
H119 H 0.69166 0.08712 0.73848 0.0
Gd120 Gd 0.85477 0.05843 0.12221 0.0
Gd121 Gd 0.79874 0.95556 0.10967 0.0
C122 C 0.83556 -0.01366 0.16375 0.0
C123 C 0.87982 0.14817 0.1278 0.0
C124 C 0.87533 0.17779 0.14573 0.0
C125 C 0.90029 0.22809 0.14356 0.0
C126 C 0.84804 0.15634 0.1655 0.0
C127 C 0.8745 0.23581 0.18184 0.0
C128 C 0.84742 0.18515 0.18339 0.0
C129 C 0.8999 0.25698 0.16148 0.0
C130 C 0.91008 0.01991 0.10879 0.0
C131 C 0.83167 0.03068 1.06667 0.0
C132 C 0.76353 0.86345 0.10481 0.0
C133 C 0.74306 0.82558 1.08735 0.0
C134 C 0.73978 0.78101 1.0918 0.0
C135 C 0.72734 0.83345 1.06628 0.0
C136 C 0.70777 0.75302 1.05366 0.0
C137 C 0.70964 0.79731 1.04956 0.0
C138 C 0.72234 0.74496 1.07507 0.0
C139 C 0.74444 -0.00338 0.11715 0.0
O140 O 0.84449 0.03044 0.15875 0.0
O141 O 0.82283 0.95381 0.14699 0.0
O142 O 0.90802 0.13068 0.13258 0.0
O143 O 0.83957 0.11666 0.11799 0.0
O144 O 0.92189 0.05181 0.12505 0.0
O145 O 0.87065 0.01173 0.10077 0.0
O146 O 0.81307 -0.01572 1.07245 0.0
O147 O 0.8468 0.06405 1.08314 0.0
O148 O 0.73774 0.88317 0.1105 0.0
O149 O 0.80946 0.89481 0.10288 0.0
O150 O 0.73708 0.96627 0.10072 0.0
O151 O 0.77965 0.00308 0.12944 0.0
H152 H 0.92147 0.24507 0.12833 0.0
H153 H 0.82851 0.11743 0.16737 0.0
H154 H 0.82716 0.16782 0.19877 0.0
H155 H 0.92166 0.29583 0.15988 0.0
H156 H 0.75159 0.77442 0.10808 0.0
H157 H 0.72973 0.86781 1.06262 0.0
H158 H 0.69948 0.80483 1.03306 0.0
H159 H 0.72122 0.71117 1.07866 0.0
Gd160 Gd 0.87354 0.88166 0.45972 0.0
Gd161 Gd 0.90873 0.81364 0.448 0.0
C162 C 0.9222 0.85012 0.50098 0.0
C163 C 0.82071 0.91641 0.47415 0.0
C164 C 0.78693 0.90703 0.49298 0.0
C165 C 0.75953 0.93005 0.49317 0.0
C166 C 0.77997 0.87348 0.5101 0.0
C167 C 0.7197 0.88781 0.52821 0.0
C168 C 0.74668 0.86405 0.52767 0.0
C169 C 0.72611 0.92053 0.51065 0.0
C170 C 0.96357 0.92643 0.44287 0.0
C171 C 0.87751 0.86239 0.40544 0.0
C172 C 0.94765 0.76329 0.43501 0.0
C173 C 0.96928 0.75222 0.4155 0.0
C174 C -0.01721 0.71704 0.41807 0.0
C175 C -0.02064 0.77812 0.39499 0.0
C176 C 0.01955 0.73585 0.38026 0.0
C177 C 0.00442 0.77007 0.37749 0.0
C178 C 0.00771 0.70883 0.40058 0.0
C179 C 0.8186 0.77156 0.46594 0.0
O180 O 0.89169 0.86548 0.49574 0.0
O181 O 0.93798 0.83251 0.48457 0.0
O182 O 0.86619 0.93511 0.47961 0.0
O183 O 0.80629 0.88153 0.4591 0.0
O184 O 0.9341 0.94287 0.4407 0.0
O185 O 0.94618 0.89038 0.45595 0.0
O186 O 0.89663 0.83531 0.41161 0.0
O187 O 0.86279 0.88191 0.42131 0.0
O188 O 0.90137 0.74717 0.43419 0.0
O189 O 0.97208 0.80708 0.44329 0.0
O190 O 0.8507 0.76026 0.47161 0.0
O191 O 0.83579 0.80438 0.45104 0.0
H192 H 0.76421 0.95564 0.47987 0.0
H193 H 0.80036 0.85476 0.50991 0.0
H194 H 0.74228 0.83851 0.54092 0.0
H195 H 0.70644 0.93996 0.51082 0.0
H196 H -0.02492 0.6967 0.43387 0.0
H197 H 0.96905 0.80538 0.39278 0.0
H198 H 0.01357 0.79202 0.36219 0.0
H199 H 0.01837 0.68191 0.40311 0.0
Gd200 Gd 0.07516 0.88478 0.79478 0.0
Gd201 Gd 0.17463 0.90762 0.78256 0.0
C202 C 0.15554 0.92582 0.83575 0.0
C203 C -0.01334 0.8416 0.8084 0.0
C204 C 0.95409 0.80833 0.82599 0.0
C205 C 0.95948 0.82066 0.84932 0.0
C206 C 0.91523 0.76392 0.81897 0.0
C207 C 0.88582 0.74558 0.85814 0.0
C208 C 0.88153 0.73275 0.83488 0.0
C209 C 0.92557 0.78956 0.86525 0.0
C210 C 0.13082 0.97534 0.77887 0.0
C211 C 0.09582 0.8871 0.74051 0.0
C212 C 0.2618 0.93756 0.7685 0.0
C213 C 0.29438 0.96492 0.74974 0.0
C214 C 0.34415 -0.01357 0.75313 0.0
C215 C 0.27682 0.97348 0.72941 0.0
C216 C 0.35875 0.02848 0.71691 0.0
C217 C 0.30883 0.00541 0.71317 0.0
C218 C 0.37624 0.01779 0.73671 0.0
C219 C 0.11966 0.81836 0.80079 0.0
O220 O 0.10899 0.9 0.83067 0.0
O221 O 0.18833 0.93702 0.81932 0.0
O222 O 0.01807 0.88595 0.8144 0.0
O223 O 0.00375 0.82291 0.79369 0.0
O224 O 0.08453 0.95084 0.77622 0.0
O225 O 0.14443 0.95282 0.79146 0.0
O226 O 0.14137 0.90207 0.74639 0.0
O227 O 0.06258 0.875 0.75657 0.0
O228 O 0.22567 0.8948 0.76364 0.0
O229 O 0.24971 0.9625 0.78198 0.0
O230 O 0.16445 0.84705 0.80558 0.0
O231 O 0.10613 0.8382 0.78623 0.0
H232 H -0.01088 0.8547 0.85521 0.0
H233 H 0.91041 0.75368 0.80104 0.0
H234 H 0.85168 0.69896 0.8289 0.0
H235 H 0.92956 0.80089 0.88301 0.0
H236 H 0.35816 0.98015 0.76881 0.0
H237 H 0.23851 0.95651 0.72637 0.0
H238 H 0.29462 0.01268 0.69783 0.0
H239 H 0.41456 0.03526 0.73993 0.0
H240 H 0.89675 -0.01154 1.06447 0.0
H241 H 0.95898 0.01935 1.03491 0.0
H242 H 0.06787 0.08065 1.08723 0.0
H243 H 0.00568 0.05386 0.11688 0.0
H244 H 0.02839 0.13569 1.04302 0.0
H245 H 0.11548 0.02731 1.0259 0.0
H246 H 0.0516 0.00067 1.03179 0.0
H247 H 0.0942 0.02068 1.05496 0.0
C248 C 0.93399 0.00756 1.0698 0.0
C249 C 0.94647 0.0206 1.09297 0.0
C250 C 0.96941 0.02474 1.05279 0.0
C251 C 0.0177 0.05267 1.05893 0.0
C252 C 0.03048 0.05926 1.08224 0.0
H253 H 0.16786 0.15657 0.11476 0.0
H254 H 0.12385 0.16909 1.08442 0.0
C255 C -0.00496 0.04386 0.09921 0.0
C256 C 0.05399 0.08474 1.04221 0.0
H257 H 0.16986 0.11394 1.03398 0.0
C258 C 0.05907 0.1308 1.03982 0.0
C259 C 0.09309 0.07813 1.03669 0.0
C260 C 0.08822 0.02879 1.03719 0.0
C261 C 0.10513 0.17157 1.03859 0.0
C262 C 0.14522 0.16481 1.04008 0.0
C263 C 0.13884 0.11905 1.03453 0.0
C264 C 0.18003 0.18933 1.05878 0.0
C265 C 0.11082 0.22099 1.04118 0.0
C266 C 0.22848 0.20309 1.05543 0.0
C267 C 0.25439 0.19808 1.07333 0.0
C268 C 0.23148 0.17765 1.09423 0.0
C269 C 0.18611 0.17196 1.09869 0.0
C270 C 0.16108 0.17942 1.08123 0.0
H271 H 0.0836 0.22395 1.03068 0.0
H272 H 0.10473 0.22688 1.05937 0.0
H273 H 0.14749 0.24956 1.03602 0.0
H274 H 0.24405 0.21117 1.03837 0.0
H275 H 0.28999 0.20457 1.06975 0.0
H276 H -0.01911 0.88357 0.40597 0.0
H277 H 0.02376 0.93136 0.37243 0.0
H278 H 0.09242 0.05854 0.41512 0.0
H279 H 0.04433 0.01206 0.44761 0.0
H280 H -0.0088 0.00526 0.36926 0.0
H281 H 0.18635 0.0901 0.35775 0.0
H282 H 0.14866 0.02699 0.36537 0.0
H283 H 0.17122 0.07313 0.38722 0.0
C284 C 0.00593 0.92139 0.40829 0.0
C285 C 0.00746 0.94475 0.42899 0.0
C286 C 0.03124 0.94851 0.38913 0.0
C287 C 0.0607 -0.00141 0.39117 0.0
C288 C 0.06988 0.0198 0.41311 0.0
H289 H 0.1765 0.27769 0.39113 0.0
H290 H 0.13098 0.21991 0.36141 0.0
C291 C 0.04245 -0.00676 0.43181 0.0
C292 C 0.06728 0.03062 0.3717 0.0
H293 H 0.15524 0.14717 0.36679 0.0
C294 C 0.02715 0.03608 0.36731 0.0
C295 C 0.11355 0.06991 0.36743 0.0
C296 C 0.15739 0.0645 0.36941 0.0
C297 C 0.03263 0.08244 0.36681 0.0
C298 C 0.07917 0.12261 0.36938 0.0
C299 C 0.11915 0.11621 0.36601 0.0
C300 C 0.08721 0.16248 0.38499 0.0
C301 C -0.01132 0.0879 0.36778 0.0
C302 C 0.07505 0.15076 0.40824 0.0
C303 C 0.10247 0.18348 0.42539 0.0
C304 C 0.14135 0.22854 0.41945 0.0
C305 C 0.14742 0.24309 0.39637 0.0
C306 C 0.12088 0.21008 0.37917 0.0
H307 H 0.95958 0.06008 0.35694 0.0
H308 H -0.02488 0.08251 0.38569 0.0
H309 H -0.00294 0.12441 0.36205 0.0
H310 H 0.04952 0.11403 0.41323 0.0
H311 H 0.09735 0.17113 0.44299 0.0
H312 H 0.1948 -0.01266 0.74484 0.0
H313 H 0.20643 0.03837 0.71163 0.0
H314 H 0.15625 0.11832 0.75189 0.0
H315 H 0.13724 0.06228 0.7833 0.0
H316 H 0.10893 0.0138 0.70325 0.0
H317 H 0.21618 0.20966 0.69691 0.0
H318 H 0.24224 0.17223 0.70386 0.0
H319 H 0.21827 0.19368 0.72615 0.0
C320 C 0.18717 0.01635 0.7466 0.0
C321 C 0.16221 0.01913 0.76584 0.0
C322 C 0.19517 0.04647 0.72779 0.0
C323 C 0.18051 0.08108 0.72889 0.0
C324 C 0.16693 0.09116 0.75032 0.0
H325 H 0.03761 0.11637 0.78244 0.0
H326 H 0.06761 0.08105 0.75413 0.0
C327 C 0.15577 0.05899 0.76841 0.0
C328 C 0.15835 0.08974 0.70861 0.0
H329 H 0.12751 0.17669 0.70872 0.0
C330 C 0.11335 0.04976 0.70304 0.0
C331 C 0.1644 0.13623 0.70585 0.0
C332 C 0.21325 0.18039 0.7082 0.0
C333 C 0.07198 0.05409 0.70449 0.0
C334 C 0.07757 0.09994 0.709 0.0
C335 C 0.12326 0.14107 0.70636 0.0
C336 C 0.04413 0.10489 0.72468 0.0
C337 C 0.02322 0.00923 0.70522 0.0
C338 C 0.01789 0.1265 0.71743 0.0
C339 C -0.0011 0.14474 0.73364 0.0
C340 C 0.00833 0.14403 0.75721 0.0
C341 C 0.03034 0.11798 0.76445 0.0
C342 C 0.04754 0.09794 0.74825 0.0
H343 H 0.02254 0.98035 0.69427 0.0
H344 H 0.01516 -0.00436 0.72311 0.0
H345 H -0.00526 0.01697 0.69954 0.0
H346 H 0.01499 0.13223 0.69935 0.0
H347 H -0.01912 0.16344 0.72747 0.0
H348 H 0.43371 0.46117 1.04014 0.0
H349 H 0.42007 0.50453 1.00944 0.0
H350 H 0.39743 0.3914 0.96187 0.0
H351 H 0.41514 0.35005 0.99186 0.0
H352 H 0.43916 0.4766 0.94097 0.0
H353 H 0.28319 0.45647 0.99251 0.0
H354 H 0.34177 0.49312 1.00471 0.0
H355 H 0.31799 0.42923 1.00123 0.0
C356 C 0.42742 0.44622 1.02299 0.0
C357 C 0.42437 0.40136 1.01862 0.0
C358 C 0.41894 0.47084 1.00551 0.0
C359 C 0.40607 0.45041 0.98356 0.0
C360 C 0.40673 0.40765 0.97877 0.0
H361 H 0.19571 0.3748 0.89216 0.0
H362 H 0.2497 0.40034 0.92476 0.0
C363 C 0.41618 0.38361 0.99605 0.0
C364 C 0.3867 0.46963 0.96607 0.0
H365 H 0.2859 0.47589 0.95406 0.0
C366 C 0.40618 0.47755 0.94386 0.0
C367 C 0.34384 0.47121 0.97001 0.0
C368 C 0.32016 0.46181 0.99333 0.0
C369 C 0.38136 0.4817 0.92507 0.0
C370 C 0.33668 0.47957 0.92882 0.0
C371 C 0.32005 0.47725 0.95132 0.0
C372 C 0.30209 0.46886 0.90994 0.0
C373 C 0.40094 0.4837 0.90126 0.0
C374 C 0.31284 0.49954 0.89098 0.0
C375 C 0.28192 0.48467 0.87208 0.0
C376 C 0.23953 0.43936 0.87213 0.0
C377 C 0.22769 0.41017 0.89171 0.0
C378 C 0.25867 0.42472 0.91036 0.0
H379 H 0.43292 0.47883 0.90131 0.0
H380 H 0.37296 0.45529 0.89021 0.0
H381 H 0.41171 0.5193 0.89346 0.0
H382 H 0.34565 0.5342 0.89052 0.0
H383 H 0.29161 0.50804 0.85726 0.0
H384 H 0.05933 0.45623 0.37008 0.0
H385 H 0.00717 0.45212 0.3386 0.0
H386 H 0.07217 0.39135 0.29468 0.0
H387 H 0.12601 0.39788 0.32546 0.0
H388 H 0.05234 0.45417 0.2718 0.0
H389 H 0.89302 0.32199 0.32261 0.0
H390 H 0.92944 0.38176 0.33404 0.0
H391 H 0.95352 0.34174 0.33199 0.0
C392 C 0.06332 0.44314 0.35353 0.0
C393 C 0.09624 0.42654 0.35036 0.0
C394 C 0.03314 0.44039 0.33565 0.0
C395 C 0.0351 0.42049 0.31448 0.0
C396 C 0.06988 0.40665 0.31093 0.0
H397 H 0.89054 0.21789 0.22533 0.0
H398 H 0.91747 0.27309 0.25761 0.0
C399 C 0.10025 0.40981 0.32863 0.0
C400 C -0.00134 0.40917 0.29645 0.0
H401 H 0.88402 0.32277 0.28313 0.0
C402 C 0.01505 0.42645 0.27426 0.0
C403 C 0.94993 0.37345 0.29989 0.0
C404 C 0.93018 0.35334 0.32335 0.0
C405 C -0.01411 0.40467 0.25508 0.0
C406 C 0.93869 0.36549 0.2584 0.0
C407 C 0.92035 0.35262 0.28074 0.0
C408 C 0.9133 0.33027 0.23982 0.0
C409 C 0.00763 0.42029 0.23148 0.0
C410 C 0.90013 0.34331 0.2193 0.0
C411 C 0.8848 0.31156 0.2006 0.0
C412 C 0.88189 0.26623 0.20234 0.0
C413 C 0.89174 0.25219 0.22346 0.0
C414 C 0.90731 0.28387 0.24197 0.0
H415 H 0.04622 0.44862 0.23209 0.0
H416 H 0.00449 0.38894 0.22172 0.0
H417 H -0.01208 0.43498 0.22195 0.0
H418 H 0.90359 0.37861 0.21745 0.0
H419 H 0.87678 0.32304 0.18458 0.0
H420 H 0.75278 0.10528 0.66792 0.0
H421 H 0.70234 0.05071 0.63814 0.0
H422 H 0.60243 0.95576 0.68928 0.0
H423 H 0.65491 0.00915 0.71944 0.0
H424 H 0.62425 0.90597 0.66376 0.0
H425 H 0.58328 0.01069 0.60396 0.0
H426 H 0.64616 0.04747 0.60958 0.0
H427 H 0.60323 0.03218 0.63275 0.0
C428 C 0.71979 0.07311 0.67287 0.0
C429 C 0.70838 0.06113 0.69604 0.0
C430 C 0.69021 0.04231 0.65575 0.0
C431 C 0.64789 -0.0007 0.66135 0.0
C432 C 0.63462 -0.01111 0.68449 0.0
H433 H 0.62905 0.8767 0.52821 0.0
H434 H 0.5852 0.88296 0.5614 0.0
C435 C 0.66463 0.01955 0.70172 0.0
C436 C 0.6239 0.96206 0.6433 0.0
H437 H 0.61373 0.95861 0.58529 0.0
C438 C 0.61994 0.9167 0.64673 0.0
C439 C 0.61549 0.97417 0.62119 0.0
C440 C 0.61169 0.01864 0.61685 0.0
C441 C 0.61643 0.88741 0.62807 0.0
C442 C 0.61887 0.90495 0.6056 0.0
C443 C 0.61401 0.94588 0.60246 0.0
C444 C 0.63799 0.88923 0.58624 0.0
C445 C 0.614 0.83982 0.63261 0.0
C446 C 0.68165 0.88954 0.58915 0.0
C447 C 0.70644 0.88574 0.57035 0.0
C448 C 0.68862 0.88244 0.54812 0.0
C449 C 0.64374 0.8796 0.54519 0.0
C450 C 0.61857 0.88291 0.56413 0.0
H451 H 0.58946 0.82123 0.64727 0.0
H452 H 0.60122 0.81566 0.61741 0.0
H453 H 0.6502 0.84639 0.6375 0.0
H454 H 0.69859 0.89629 0.6058 0.0
H455 H 0.7413 0.88892 0.57312 0.0
H456 H 0.63353 0.72019 1.02294 0.0
H457 H 0.62709 0.67795 0.98684 0.0
H458 H 0.75238 0.66838 1.00517 0.0
H459 H 0.75794 0.7089 1.04116 0.0
H460 H 0.69341 0.72196 0.95725 0.0
H461 H 0.68422 0.54772 0.9693 0.0
H462 H 0.6678 0.5756 0.99195 0.0
H463 H 0.72954 0.58995 0.98822 0.0
C464 C 0.65856 0.70744 1.01952 0.0
C465 C 0.69651 0.71818 1.03469 0.0
C466 C 0.65467 0.68304 0.999 0.0
C467 C 0.68897 0.66951 0.99328 0.0
C468 C 0.7245 0.6769 1.00935 0.0
H469 H 0.89561 0.72405 0.90243 0.0
H470 H 0.8324 0.68837 0.93152 0.0
C471 C 0.72799 0.70064 1.02993 0.0
C472 C 0.69555 0.65927 0.96914 0.0
H473 H 0.73998 0.59947 0.938 0.0
C474 C 0.70164 0.6939 0.95273 0.0
C475 C 0.70603 0.62255 0.9631 0.0
C476 C 0.69596 0.58164 0.97911 0.0
C477 C 0.72367 0.6966 0.9316 0.0
C478 C 0.73931 0.66322 0.92667 0.0
C479 C 0.72848 0.62538 0.94199 0.0
C480 C 0.77435 0.67297 0.90807 0.0
C481 C 0.73445 0.73816 0.91577 0.0
C482 C 0.76228 0.67415 0.88512 0.0
C483 C 0.79846 0.69542 0.86854 0.0
C484 C 0.84717 0.71536 0.87467 0.0
C485 C 0.85856 0.71005 0.8973 0.0
C486 C 0.82243 0.68908 0.91386 0.0
H487 H 0.72425 0.76375 0.92339 0.0
H488 H 0.77339 0.75847 0.91146 0.0
H489 H 0.71412 0.72397 0.89959 0.0
H490 H 0.72527 0.66151 0.88034 0.0
H491 H 0.78841 0.69898 0.85128 0.0
H492 H 0.01079 0.73573 0.33375 0.0
H493 H 0.07022 0.74476 0.3053 0.0
H494 H 0.15746 0.73292 0.35818 0.0
H495 H 0.09902 0.72651 0.38703 0.0
H496 H 0.20875 0.81054 0.33584 0.0
H497 H 0.11898 0.67169 0.27041 0.0
H498 H 0.07995 0.69554 0.27602 0.0
H499 H 0.09314 0.66544 0.29867 0.0
C500 C 0.04222 0.73424 0.3393 0.0
C501 C 0.05053 0.73118 0.36266 0.0
C502 C 0.07584 0.73839 0.32293 0.0
C503 C 0.11814 0.73874 0.32949 0.0
C504 C 0.12491 0.73226 0.35268 0.0
H505 H 0.2692 0.86268 0.20296 0.0
H506 H 0.25701 0.80933 0.23555 0.0
C507 C 0.09136 0.72847 0.36914 0.0
C508 C 0.15835 0.75559 0.31282 0.0
H509 H 0.17303 0.75613 0.25504 0.0
C510 C 0.20178 0.79745 0.31831 0.0
C511 C 0.15087 0.7378 0.2901 0.0
C512 C 0.10833 0.68974 0.28363 0.0
C513 C 0.23372 0.82606 0.30106 0.0
C514 C 0.221 0.81306 0.2779 0.0
C515 C 0.18203 0.76719 0.27277 0.0
C516 C 0.23919 0.84991 0.25956 0.0
C517 C 0.27865 0.872 0.30773 0.0
C518 C 0.23403 0.8908 0.26234 0.0
C519 C 0.24093 0.92106 0.2439 0.0
C520 C 0.25262 0.91082 0.22219 0.0
C521 C 0.26044 0.87148 0.2196 0.0
C522 C 0.25346 0.841 0.23815 0.0
H523 H 0.29457 0.86622 0.32343 0.0
H524 H 0.30602 0.8852 0.29381 0.0
H525 H 0.26928 0.90031 0.31176 0.0
H526 H 0.22162 0.89776 0.27844 0.0
H527 H 0.23511 0.95139 0.2464 0.0
H528 H 0.43819 0.03457 0.69598 0.0
H529 H 0.4884 0.09267 0.66626 0.0
H530 H 0.40396 0.16334 0.67223 0.0
H531 H 0.35409 0.10573 0.70158 0.0
H532 H 0.44619 0.09813 0.62569 0.0
H533 H 0.54102 0.27787 0.66589 0.0
H534 H 0.52013 0.22267 0.68203 0.0
H535 H 0.47984 0.2451 0.67569 0.0
C536 C 0.43123 0.06324 0.69119 0.0
C537 C 0.3921 0.06557 0.70074 0.0
C538 C 0.45997 0.09642 0.67439 0.0
C539 C 0.45049 0.13285 0.66742 0.0
C540 C 0.41274 0.13634 0.67779 0.0
H541 H 0.38821 0.2698 0.57604 0.0
H542 H 0.42227 0.2479 0.60786 0.0
C543 C 0.38377 0.10298 0.69426 0.0
C544 C 0.47315 0.16179 0.64668 0.0
H545 H 0.51125 0.27518 0.62664 0.0
C546 C 0.4623 0.13712 0.62571 0.0
C547 C 0.49467 0.21258 0.64688 0.0
C548 C 0.51005 0.24107 0.66889 0.0
C549 C 0.46563 0.161 0.60511 0.0
C550 C 0.4815 0.21109 0.60565 0.0
C551 C 0.49853 0.23672 0.62629 0.0
C552 C 0.46997 0.23423 0.58672 0.0
C553 C 0.44682 0.13132 0.58349 0.0
C554 C 0.48706 0.23595 0.56437 0.0
C555 C 0.4666 0.24725 0.54601 0.0
C556 C 0.42933 0.25773 0.54983 0.0
C557 C 0.41581 0.26051 0.57247 0.0
C558 C 0.43577 0.24866 0.59071 0.0
H559 H 0.43108 0.09203 0.58669 0.0
H560 H 0.41879 0.13725 0.57555 0.0
H561 H 0.47669 0.14248 0.57099 0.0
H562 H 0.51417 0.22592 0.56099 0.0
H563 H 0.47798 0.24491 0.52878 0.0
H564 H 0.39126 0.06918 0.11164 0.0
H565 H 0.44982 0.04161 0.115 0.0
H566 H 0.52845 0.1525 0.16534 0.0
H567 H 0.4708 0.18106 0.16148 0.0
H568 H 0.58716 0.15394 0.13286 0.0
H569 H 0.47441 0.96528 0.16183 0.0
H570 H 0.45101 0.9768 0.13628 0.0
H571 H 0.4532 0.00806 0.16241 0.0
C572 C 0.42054 0.08706 0.12373 0.0
C573 C 0.42664 0.12742 0.13621 0.0
C574 C 0.45389 0.0711 0.12575 0.0
C575 C 0.49343 0.09463 0.14062 0.0
C576 C 0.49832 0.13372 0.15378 0.0
H577 H 0.74769 0.05542 0.1526 0.0
H578 H 0.68857 0.08131 0.16113 0.0
C579 C 0.46527 0.14993 0.1516 0.0
C580 C 0.53185 0.08132 0.14091 0.0
H581 H 0.55116 -0.01433 0.14514 0.0
C582 C 0.5794 0.11729 0.13595 0.0
C583 C 0.52189 0.03356 0.14502 0.0
C584 C 0.47244 -0.00613 0.15192 0.0
C585 C 0.61665 0.10636 0.1339 0.0
C586 C 0.60618 0.05824 0.13701 0.0
C587 C 0.55906 0.02256 0.14271 0.0
C588 C 0.64252 0.04337 0.13237 0.0
C589 C 0.66651 0.14585 0.12741 0.0
C590 C 0.63611 0.01347 0.11352 0.0
C591 C 0.66969 -0.00099 0.10861 0.0
C592 C 0.7103 0.01375 0.12257 0.0
C593 C 0.71684 0.04371 0.14152 0.0
C594 C 0.68316 0.05849 0.14638 0.0
H595 H 0.66723 0.17982 0.12261 0.0
H596 H 0.69109 0.1536 0.14214 0.0
H597 H 0.68064 0.13409 0.11282 0.0
H598 H 0.60513 0.00151 0.10247 0.0
H599 H 0.66361 0.97596 1.09387 0.0
H600 H 0.39834 0.41167 0.44088 0.0
H601 H 0.48248 0.47463 0.44495 0.0
H602 H 0.44396 0.53581 0.50171 0.0
H603 H 0.35924 0.47413 0.49687 0.0
H604 H 0.50032 0.60455 0.47455 0.0
H605 H 0.58416 0.49209 0.48836 0.0
H606 H 0.55111 0.47591 0.46207 0.0
H607 H 0.51981 0.46709 0.48896 0.0
C608 C 0.40794 0.43814 0.45444 0.0
C609 C 0.37225 0.438 0.46858 0.0
C610 C 0.4562 0.47402 0.45687 0.0
C611 C 0.47004 0.50977 0.47391 0.0
C612 C 0.43442 0.50873 0.48846 0.0
H613 H 0.77659 0.70433 0.49953 0.0
H614 H 0.69127 0.64409 0.50378 0.0
C615 C 0.38602 0.47334 0.48576 0.0
C616 C 0.52097 0.54988 0.47559 0.0
H617 H 0.63746 0.57411 0.47694 0.0
C618 C 0.53026 0.5978 0.47535 0.0
C619 C 0.5603 0.54148 0.47705 0.0
C620 C 0.5533 0.49134 0.47939 0.0
C621 C 0.57747 0.63728 0.4759 0.0
C622 C 0.61685 0.62881 0.47582 0.0
C623 C 0.60753 0.58091 0.47669 0.0
C624 C 0.66797 0.66873 0.47457 0.0
C625 C 0.58438 0.68755 0.47697 0.0
C626 C 0.68358 0.70341 0.45699 0.0
C627 C 0.73226 0.73857 0.45488 0.0
C628 C 0.76653 0.73893 0.46992 0.0
C629 C 0.75093 0.70485 0.4877 0.0
C630 C 0.70217 0.67029 0.49007 0.0
H631 H 0.55283 0.68746 0.485 0.0
H632 H 0.61706 0.71246 0.48683 0.0
H633 H 0.5881 0.70176 0.45931 0.0
H634 H 0.65844 0.70237 0.44438 0.0
H635 H 0.74333 0.76409 0.44087 0.0
H636 H 0.03314 0.3743 0.81706 0.0
H637 H 0.05596 0.45882 0.82545 0.0
H638 H 0.96985 0.45751 0.76863 0.0
H639 H 0.94725 0.37415 0.76023 0.0
H640 H 0.10205 0.54091 0.79471 0.0
H641 H 0.92236 0.50708 0.8226 0.0
H642 H 0.93808 0.46009 0.82162 0.0
H643 H 0.92177 0.47894 0.7958 0.0
C644 C 0.019 0.39212 0.80649 0.0
C645 C -0.01187 0.36748 0.7881 0.0
C646 C 0.032 0.44029 0.81128 0.0
C647 C 0.01378 0.46415 0.79793 0.0
C648 C -0.01655 0.43958 0.77948 0.0
H649 H 0.04404 0.74535 0.77732 0.0
H650 H 0.01757 0.65878 0.77888 0.0
C651 C 0.9708 0.39191 0.77463 0.0
C652 C 0.02752 0.51533 0.80238 0.0
H653 H -0.02004 0.58853 0.81284 0.0
C654 C 0.07557 0.55138 0.79904 0.0
C655 C -0.00721 0.52892 0.8078 0.0
C656 C 0.94092 0.49174 0.81237 0.0
C657 C 0.0895 0.60065 0.80004 0.0
C658 C 0.05457 0.61431 0.80506 0.0
C659 C 0.0067 0.57817 0.80893 0.0
C660 C 0.06699 0.66589 0.80579 0.0
C661 C 0.14113 0.63757 0.79468 0.0
C662 C 0.102 0.69837 0.82104 0.0
C663 C 0.11725 0.74767 0.82008 0.0
C664 C 0.0974 0.76552 0.80405 0.0
C665 C 0.06007 0.73266 0.78981 0.0
C666 C 0.04503 0.68323 0.79066 0.0
H667 H 0.15995 0.62125 0.78543 0.0
H668 H 0.14328 0.66741 0.78411 0.0
H669 H 0.16066 0.65317 0.81094 0.0
H670 H 0.11848 0.68576 0.83331 0.0
H671 H 0.14572 0.77208 0.83145 0.0
H672 H 0.3021 0.13065 0.20603 0.0
H673 H 0.2945 0.15562 0.24502 0.0
H674 H 0.32577 0.29447 0.21945 0.0
H675 H 0.33437 0.27014 0.18048 0.0
H676 H 0.3692 0.24611 0.27144 0.0
H677 H 0.19469 0.23993 0.25828 0.0
H678 H 0.21329 0.20536 0.24071 0.0
H679 H 0.2407 0.26932 0.23674 0.0
C680 C 0.30758 0.16664 0.20858 0.0
C681 C 0.31906 0.19818 0.1897 0.0
C682 C 0.30315 0.18096 0.23108 0.0
C683 C 0.30904 0.22702 0.23556 0.0
C684 C 0.32052 0.25861 0.21677 0.0
H685 H 0.26248 0.35829 0.36194 0.0
H686 H 0.27242 0.33831 0.32217 0.0
C687 C 0.32571 0.2446 0.19432 0.0
C688 C 0.30392 0.24216 0.25978 0.0
H689 H 0.23114 0.26634 0.29438 0.0
C690 C 0.3389 0.2504 0.2764 0.0
C691 C 0.26496 0.24872 0.26659 0.0
C692 C 0.22594 0.24023 0.2498 0.0
C693 C 0.33643 0.26531 0.29914 0.0
C694 C 0.29655 0.27045 0.3063 0.0
C695 C 0.26174 0.26252 0.2895 0.0
C696 C 0.2901 0.28315 0.33098 0.0
C697 C 0.37804 0.27713 0.31491 0.0
C698 C 0.29537 0.25876 0.34987 0.0
C699 C 0.29077 0.27099 0.37266 0.0
C700 C 0.2793 0.30737 0.3778 0.0
C701 C 0.27204 0.33064 0.35897 0.0
C702 C 0.27755 0.31891 0.33603 0.0
H703 H 0.41184 0.28871 0.30508 0.0
H704 H 0.38418 0.30628 0.32718 0.0
H705 H 0.37042 0.24433 0.32468 0.0
H706 H 0.30266 0.22951 0.34709 0.0
H707 H 0.29544 0.25097 0.38637 0.0
H708 H 0.2286 0.27973 0.53528 0.0
H709 H 0.19489 0.2709 0.57397 0.0
H710 H 0.11583 0.33986 0.55204 0.0
H711 H 0.14998 0.3494 0.51343 0.0
H712 H 0.15115 0.37306 0.59343 0.0
H713 H 0.0657 0.17447 0.59871 0.0
H714 H 0.1292 0.20321 0.59335 0.0
H715 H 0.09024 0.2068 0.57229 0.0
C716 C 0.20395 0.29301 0.53855 0.0
C717 C 0.19228 0.31522 0.52072 0.0
C718 C 0.18412 0.28749 0.56089 0.0
C719 C 0.15147 0.30367 0.56643 0.0
C720 C 0.14043 0.32655 0.5487 0.0
H721 H 0.96579 0.21891 0.6919 0.0
H722 H -0.00212 0.22782 0.65271 0.0
C723 C 0.16016 0.33199 0.52636 0.0
C724 C 0.12972 0.29786 0.59053 0.0
H725 H 0.06782 0.21526 0.63328 0.0
C726 C 0.13294 0.33837 0.602 0.0
C727 C 0.10485 0.25275 0.60219 0.0
C728 C 0.09677 0.20672 0.59095 0.0
C729 C 0.11344 0.3354 0.62432 0.0
C730 C 0.09002 0.29063 0.6363 0.0
C731 C 0.08591 0.2499 0.62466 0.0
C732 C 0.06974 0.28542 0.66067 0.0
C733 C 0.11724 0.38055 0.63461 0.0
C734 C 0.09868 0.31413 0.67896 0.0
C735 C 0.08021 0.30912 0.70152 0.0
C736 C 0.03188 0.27506 0.70694 0.0
C737 C 0.00289 0.24609 0.68869 0.0
C738 C 0.0215 0.251 0.66608 0.0
H739 H 0.12204 0.40717 0.62118 0.0
H740 H 0.08477 0.37222 0.64489 0.0
H741 H 0.14908 0.39778 0.64601 0.0
H742 H 0.13621 0.34015 0.67594 0.0
H743 H 0.10433 0.33186 0.71485 0.0
H744 H 0.88396 0.13088 0.84321 0.0
H745 H 0.86146 0.09923 0.88241 0.0
H746 H -0.01074 0.22254 0.90831 0.0
H747 H 0.01242 0.25397 0.86911 0.0
H748 H 0.91586 0.07631 0.9169 0.0
H749 H 0.87805 0.21798 0.94864 0.0
H750 H 0.87955 0.206 0.91844 0.0
H751 H 0.93466 0.23873 0.93414 0.0
C752 C 0.90746 0.15154 0.85716 0.0
C753 C 0.95023 0.19548 0.8525 0.0
C754 C 0.89447 0.13313 0.8798 0.0
C755 C 0.92309 0.15823 0.89889 0.0
C756 C 0.96579 0.20216 0.89429 0.0
H757 H 0.89102 0.1226 1.0499 0.0
H758 H 0.91239 0.15037 1.01042 0.0
C759 C -0.02079 0.22021 0.87162 0.0
C760 C 0.90852 0.13856 0.92336 0.0
H761 H 0.87418 0.16177 0.97574 0.0
C762 C 0.9066 0.09505 0.92971 0.0
C763 C 0.89664 0.16249 0.94059 0.0
C764 C 0.89688 0.20873 0.93524 0.0
C765 C 0.89462 0.07588 0.95239 0.0
C766 C 0.88176 0.09934 0.96964 0.0
C767 C 0.88356 0.14286 0.96311 0.0
C768 C 0.86786 0.08069 0.99447 0.0
C769 C 0.89816 0.03161 0.95769 0.0
C770 C 0.83485 0.03173 0.99984 0.0
C771 C 0.823 0.01531 1.02288 0.0
C772 C 0.84252 0.04732 1.04166 0.0
C773 C 0.87457 0.09634 1.03627 0.0
C774 C 0.88699 0.11252 1.01334 0.0
H775 H 0.92333 0.028 0.94577 0.0
H776 H 0.91068 0.03256 0.97549 0.0
H777 H 0.86223 -0.00099 0.95559 0.0
H778 H 0.81752 0.00582 0.98619 0.0
H779 H 0.79806 0.97741 1.02596 0.0
H780 H 0.83527 0.90451 0.18041 0.0
H781 H 0.84327 0.88378 0.22008 0.0
H782 H 0.85457 0.01681 0.24366 0.0
H783 H 0.84713 0.03796 0.20405 0.0
H784 H 0.91822 0.93241 0.25382 0.0
H785 H 0.74834 0.91718 0.28599 0.0
H786 H 0.76086 0.91732 0.25577 0.0
H787 H 0.78805 0.97291 0.27169 0.0
C788 C 0.83935 0.92952 0.19395 0.0
C789 C 0.84024 0.97311 0.1885 0.0
C790 C 0.8441 0.91754 0.21688 0.0
C791 C 0.84905 0.94809 0.23552 0.0
C792 C 0.85008 -0.0083 0.23009 0.0
H793 H 0.85813 0.93076 0.3873 0.0
H794 H 0.85364 0.95073 0.34736 0.0
C795 C 0.846 0.00401 0.20714 0.0
C796 C 0.85335 0.93464 0.26036 0.0
H797 H 0.79922 0.91209 0.31356 0.0
C798 C 0.89195 0.92779 0.2668 0.0
C799 C 0.81979 0.92872 0.27788 0.0
C800 C 0.77665 0.93397 0.27258 0.0
C801 C 0.89847 0.91673 0.28976 0.0
C802 C 0.86444 0.91004 0.3073 0.0
C803 C 0.82573 0.91676 0.30072 0.0
C804 C 0.86854 0.89739 0.33244 0.0
C805 C 0.94335 0.91455 0.29501 0.0
C806 C 0.87835 0.86021 0.33855 0.0
C807 C 0.88172 0.84901 0.36184 0.0
C808 C 0.87424 0.87363 0.38018 0.0
C809 C 0.86387 0.91031 0.37405 0.0
C810 C 0.86119 0.9219 0.35086 0.0
H811 H 0.97252 0.93589 0.28248 0.0
H812 H 0.95692 0.9284 0.31247 0.0
H813 H 0.93518 0.87653 0.29383 0.0
H814 H 0.88277 0.83897 0.3253 0.0
H815 H 0.8896 0.82046 0.36546 0.0
H816 H 0.8888 0.87012 0.54154 0.0
H817 H 0.91905 0.87693 0.58087 0.0
H818 H 0.02782 0.84633 0.55623 0.0
H819 H -0.00255 0.83889 0.51704 0.0
H820 H 0.92914 0.80867 0.60923 0.0
H821 H 0.10836 0.96958 0.59471 0.0
H822 H 0.05902 0.95189 0.57503 0.0
H823 H 0.09249 0.92054 0.57502 0.0
C824 C 0.9192 0.86481 0.54437 0.0
C825 C 0.94032 0.85392 0.5256 0.0
C826 C 0.93664 0.86872 0.5671 0.0
C827 C -0.02338 0.86295 0.57207 0.0
C828 C -0.00237 0.85194 0.55334 0.0
H829 H 0.14399 0.88982 0.69961 0.0
H830 H 0.11577 0.88329 0.65981 0.0
C831 C -0.0202 0.84732 0.53069 0.0
C832 C -0.00441 0.86742 0.59662 0.0
H833 H 0.09537 0.93164 0.63082 0.0
C834 C 0.96547 0.83581 0.61386 0.0
C835 C 0.04327 0.9022 0.60323 0.0
C836 C 0.07772 0.93833 0.58615 0.0
C837 C -0.01857 0.83725 0.63678 0.0
C838 C 0.02891 0.87277 0.64361 0.0
C839 C 0.05908 0.90431 0.62627 0.0
C840 C 0.04742 0.87793 0.66841 0.0
C841 C 0.94725 0.79888 0.65315 0.0
C842 C 0.02007 0.87868 0.68731 0.0
C843 C 0.03593 0.88161 0.71018 0.0
C844 C 0.08062 0.88515 0.71548 0.0
C845 C 0.10921 0.88662 0.69661 0.0
C846 C 0.0929 0.88296 0.6736 0.0
H847 H 0.92102 0.76573 0.64386 0.0
H848 H 0.96674 0.78882 0.66565 0.0
H849 H 0.92641 0.81257 0.66266 0.0
H850 H -0.01391 0.87731 0.68449 0.0
H851 H 0.01289 0.8815 0.72384 0.0
H852 H 0.09942 0.9168 0.87401 0.0
H853 H 0.12505 0.94968 0.91271 0.0
H854 H 0.27338 0.012 0.89213 0.0
H855 H 0.24794 0.97878 0.85345 0.0
H856 H 0.26273 0.97409 0.93411 0.0
H857 H 0.17395 0.0845 0.93616 0.0
H858 H 0.13274 0.0218 0.93074 0.0
H859 H 0.17924 0.05667 0.91017 0.0
C860 C 0.13759 0.93747 0.87759 0.0
C861 C 0.17131 0.94482 0.86011 0.0
C862 C 0.15239 0.95689 0.89993 0.0
C863 C 0.20158 -0.0153 0.90582 0.0
C864 C 0.23524 -0.00878 0.88848 0.0
H865 H 0.31787 0.16881 1.03154 0.0
H866 H 0.2941 0.13876 0.99205 0.0
C867 C 0.22049 0.97199 0.86612 0.0
C868 C 0.21798 0.00604 0.92989 0.0
H869 H 0.20652 0.07686 0.97144 0.0
C870 C 0.25029 -0.00341 0.94211 0.0
C871 C 0.20299 0.03636 0.94082 0.0
C872 C 0.17072 0.05091 0.92875 0.0
C873 C 0.26675 0.01515 0.96452 0.0
C874 C 0.25053 0.04414 0.97575 0.0
C875 C 0.21908 0.05453 0.96336 0.0
C876 C 0.26532 0.06324 1.00025 0.0
C877 C 0.30238 0.0041 0.97579 0.0
C878 C 0.25699 0.03159 1.0187 0.0
C879 C 0.27058 0.04878 1.04137 0.0
C880 C 0.29327 0.09856 1.04677 0.0
C881 C 0.30129 0.13039 1.02835 0.0
C882 C 0.2873 0.11302 1.00559 0.0
H883 H 0.32203 -0.00542 0.96296 0.0
H884 H 0.32904 0.03527 0.98606 0.0
H885 H 0.28282 0.97276 0.98742 0.0
H886 H 0.23921 -0.00695 1.01568 0.0
H887 H 0.26295 0.02259 1.05479 0.0
loop_
_geom_bond_atom_site_label_1
_geom_bond_atom_site_label_2
_geom_bond_distance
_geom_bond_site_symmetry_2
_ccdc_geom_bond_type
Gd0 C3 2.818 . S
Gd0 O20 2.377 . S
Gd0 O22 2.448 . S
Gd0 O23 2.506 . S
Gd0 O24 2.435 . S
Gd0 O25 2.717 . S
Gd0 O27 2.395 1_554 S
Gd0 O31 2.327 . S
Gd1 C12 2.818 1_554 S
Gd1 O21 2.395 . S
Gd1 O25 2.327 . S
Gd1 O26 2.377 1_554 S
Gd1 O28 2.448 1_554 S
Gd1 O29 2.506 1_554 S
Gd1 O30 2.435 . S
Gd1 O31 2.717 . S
C2 O20 1.240 . S
C2 O21 1.240 . S
C3 Gd0 2.818 . S
C3 C4 1.510 . S
C3 O22 1.249 . S
C3 O23 1.252 . S
C4 C3 1.510 . S
C4 C5 1.404 . S
C4 C6 1.352 . S
C5 C4 1.404 . S
C5 C9 1.389 . S
C5 H32 0.930 . S
C6 C4 1.352 . S
C6 C8 1.374 . S
C6 H33 0.931 . S
C7 C8 1.359 . S
C7 C9 1.364 . S
C8 C6 1.374 . S
C8 C7 1.359 . S
C8 H34 0.931 . S
C9 C5 1.389 . S
C9 C7 1.364 . S
C9 H35 0.931 . S
C10 O24 1.256 . S
C10 O25 1.257 . S
C11 O26 1.240 . S
C11 O27 1.240 . S
C12 Gd1 2.818 1_556 S
C12 C13 1.510 . S
C12 O28 1.249 . S
C12 O29 1.252 . S
C13 C12 1.510 . S
C13 C14 1.404 . S
C13 C15 1.352 . S
C14 C13 1.404 . S
C14 C18 1.389 . S
C14 H36 0.930 . S
C15 C13 1.352 . S
C15 C17 1.374 . S
C15 H37 0.931 . S
C16 C17 1.359 . S
C16 C18 1.364 . S
C17 C15 1.374 . S
C17 C16 1.359 . S
C17 H38 0.931 . S
C18 C14 1.389 . S
C18 C16 1.364 . S
C18 H39 0.931 . S
C19 O30 1.256 . S
C19 O31 1.257 . S
O20 Gd0 2.377 . S
O20 C2 1.240 . S
O21 Gd1 2.395 . S
O21 C2 1.240 . S
O22 Gd0 2.448 . S
O22 C3 1.249 . S
O23 Gd0 2.506 . S
O23 C3 1.252 . S
O24 Gd0 2.435 . S
O24 C10 1.256 . S
O25 Gd0 2.717 . S
O25 Gd1 2.327 . S
O25 C10 1.257 . S
O26 Gd1 2.377 1_556 S
O26 C11 1.240 . S
O27 Gd0 2.395 1_556 S
O27 C11 1.240 . S
O28 Gd1 2.448 1_556 S
O28 C12 1.249 . S
O29 Gd1 2.506 1_556 S
O29 C12 1.252 . S
O30 Gd1 2.435 . S
O30 C19 1.256 . S
O31 Gd0 2.327 . S
O31 Gd1 2.717 . S
O31 C19 1.257 . S
H32 C5 0.930 . S
H33 C6 0.931 . S
H34 C8 0.931 . S
H35 C9 0.931 . S
H36 C14 0.930 . S
H37 C15 0.931 . S
H38 C17 0.931 . S
H39 C18 0.931 . S
Gd40 C43 2.818 . S
Gd40 O60 2.377 . S
Gd40 O62 2.448 . S
Gd40 O63 2.506 . S
Gd40 O64 2.435 . S
Gd40 O65 2.717 . S
Gd40 O67 2.395 . S
Gd40 O71 2.327 . S
Gd41 C52 2.818 . S
Gd41 O61 2.395 . S
Gd41 O65 2.327 . S
Gd41 O66 2.377 . S
Gd41 O68 2.448 . S
Gd41 O69 2.506 . S
Gd41 O70 2.435 . S
Gd41 O71 2.717 . S
C42 O60 1.240 . S
C42 O61 1.240 . S
C43 Gd40 2.818 . S
C43 C44 1.510 . S
C43 O62 1.249 . S
C43 O63 1.252 . S
C44 C43 1.510 . S
C44 C45 1.404 . S
C44 C46 1.352 . S
C45 C44 1.404 . S
C45 C49 1.389 . S
C45 H72 0.930 . S
C46 C44 1.352 . S
C46 C48 1.374 . S
C46 H73 0.931 . S
C47 C48 1.359 . S
C47 C49 1.364 . S
C48 C46 1.374 . S
C48 C47 1.359 . S
C48 H74 0.931 . S
C49 C45 1.389 . S
C49 C47 1.364 . S
C49 H75 0.931 . S
C50 O64 1.256 . S
C50 O65 1.257 . S
C51 O66 1.240 . S
C51 O67 1.240 . S
C52 Gd41 2.818 . S
C52 C53 1.510 . S
C52 O68 1.249 . S
C52 O69 1.252 . S
C53 C52 1.510 . S
C53 C54 1.404 . S
C53 C55 1.352 . S
C54 C53 1.404 . S
C54 C58 1.389 . S
C54 H76 0.930 . S
C55 C53 1.352 . S
C55 C57 1.374 . S
C55 H77 0.931 . S
C56 C57 1.359 . S
C56 C58 1.364 . S
C57 C55 1.374 . S
C57 C56 1.359 . S
C57 H78 0.931 . S
C58 C54 1.389 . S
C58 C56 1.364 . S
C58 H79 0.931 . S
C59 O70 1.256 . S
C59 O71 1.257 . S
O60 Gd40 2.377 . S
O60 C42 1.240 . S
O61 Gd41 2.395 . S
O61 C42 1.240 . S
O62 Gd40 2.448 . S
O62 C43 1.249 . S
O63 Gd40 2.506 . S
O63 C43 1.252 . S
O64 Gd40 2.435 . S
O64 C50 1.256 . S
O65 Gd40 2.717 . S
O65 Gd41 2.327 . S
O65 C50 1.257 . S
O66 Gd41 2.377 . S
O66 C51 1.240 . S
O67 Gd40 2.395 . S
O67 C51 1.240 . S
O68 Gd41 2.448 . S
O68 C52 1.249 . S
O69 Gd41 2.506 . S
O69 C52 1.252 . S
O70 Gd41 2.435 . S
O70 C59 1.256 . S
O71 Gd40 2.327 . S
O71 Gd41 2.717 . S
O71 C59 1.257 . S
H72 C45 0.930 . S
H73 C46 0.931 . S
H74 C48 0.931 . S
H75 C49 0.931 . S
H76 C54 0.930 . S
H77 C55 0.931 . S
H78 C57 0.931 . S
H79 C58 0.931 . S
Gd80 C83 2.818 . S
Gd80 O100 2.377 1_455 S
Gd80 O102 2.448 . S
Gd80 O103 2.506 . S
Gd80 O104 2.435 . S
Gd80 O105 2.717 1_455 S
Gd80 O107 2.395 . S
Gd80 O111 2.327 . S
Gd81 C92 2.818 . S
Gd81 O101 2.395 . S
Gd81 O105 2.327 . S
Gd81 O106 2.377 1_655 S
Gd81 O108 2.448 . S
Gd81 O109 2.506 . S
Gd81 O110 2.435 . S
Gd81 O111 2.717 1_655 S
C82 O100 1.240 . S
C82 O101 1.240 . S
C83 Gd80 2.818 . S
C83 C84 1.510 . S
C83 O102 1.249 . S
C83 O103 1.252 . S
C84 C83 1.510 . S
C84 C85 1.404 . S
C84 C86 1.352 . S
C85 C84 1.404 . S
C85 C89 1.389 . S
C85 H112 0.930 . S
C86 C84 1.352 . S
C86 C88 1.374 . S
C86 H113 0.931 . S
C87 C88 1.359 . S
C87 C89 1.364 . S
C88 C86 1.374 . S
C88 C87 1.359 . S
C88 H114 0.931 . S
C89 C85 1.389 . S
C89 C87 1.364 . S
C89 H115 0.931 . S
C90 O104 1.256 . S
C90 O105 1.257 1_455 S
C91 O106 1.240 . S
C91 O107 1.240 . S
C92 Gd81 2.818 . S
C92 C93 1.510 . S
C92 O108 1.249 . S
C92 O109 1.252 . S
C93 C92 1.510 . S
C93 C94 1.404 . S
C93 C95 1.352 . S
C94 C93 1.404 . S
C94 C98 1.389 . S
C94 H116 0.930 . S
C95 C93 1.352 . S
C95 C97 1.374 . S
C95 H117 0.931 . S
C96 C97 1.359 . S
C96 C98 1.364 . S
C97 C95 1.374 . S
C97 C96 1.359 . S
C97 H118 0.931 . S
C98 C94 1.389 . S
C98 C96 1.364 . S
C98 H119 0.931 . S
C99 O110 1.256 . S
C99 O111 1.257 1_655 S
O100 Gd80 2.377 1_655 S
O100 C82 1.240 . S
O101 Gd81 2.395 . S
O101 C82 1.240 . S
O102 Gd80 2.448 . S
O102 C83 1.249 . S
O103 Gd80 2.506 . S
O103 C83 1.252 . S
O104 Gd80 2.435 . S
O104 C90 1.256 . S
O105 Gd80 2.717 1_655 S
O105 Gd81 2.327 . S
O105 C90 1.257 1_655 S
O106 Gd81 2.377 1_455 S
O106 C91 1.240 . S
O107 Gd80 2.395 . S
O107 C91 1.240 . S
O108 Gd81 2.448 . S
O108 C92 1.249 . S
O109 Gd81 2.506 . S
O109 C92 1.252 . S
O110 Gd81 2.435 . S
O110 C99 1.256 . S
O111 Gd80 2.327 . S
O111 Gd81 2.717 1_455 S
O111 C99 1.257 1_455 S
H112 C85 0.930 . S
H113 C86 0.931 . S
H114 C88 0.931 . S
H115 C89 0.931 . S
H116 C94 0.930 . S
H117 C95 0.931 . S
H118 C97 0.931 . S
H119 C98 0.931 . S
Gd120 C123 2.818 . S
Gd120 O140 2.379 1_545 S
Gd120 O142 2.448 . S
Gd120 O143 2.506 . S
Gd120 O144 2.435 . S
Gd120 O145 2.717 1_545 S
Gd120 O147 2.395 1_554 S
Gd120 O151 2.327 . S
Gd121 C132 2.818 1_554 S
Gd121 O141 2.395 . S
Gd121 O145 2.327 . S
Gd121 O146 2.377 1_564 S
Gd121 O148 2.448 1_554 S
Gd121 O149 2.506 1_554 S
Gd121 O150 2.435 . S
Gd121 O151 2.717 1_565 S
C122 O140 1.239 . S
C122 O141 1.240 . S
C123 Gd120 2.818 . S
C123 C124 1.510 . S
C123 O142 1.249 . S
C123 O143 1.252 . S
C124 C123 1.510 . S
C124 C125 1.404 . S
C124 C126 1.352 . S
C125 C124 1.404 . S
C125 C129 1.389 . S
C125 H152 0.930 . S
C126 C124 1.352 . S
C126 C128 1.374 . S
C126 H153 0.931 . S
C127 C128 1.359 . S
C127 C129 1.364 . S
C128 C126 1.374 . S
C128 C127 1.359 . S
C128 H154 0.931 . S
C129 C125 1.389 . S
C129 C127 1.364 . S
C129 H155 0.931 . S
C130 O144 1.256 . S
C130 O145 1.257 1_545 S
C131 O146 1.240 . S
C131 O147 1.240 . S
C132 Gd121 2.818 1_556 S
C132 C133 1.510 . S
C132 O148 1.249 . S
C132 O149 1.252 . S
C133 C132 1.510 . S
C133 C134 1.404 . S
C133 C135 1.352 . S
C134 C133 1.404 . S
C134 C138 1.389 . S
C134 H156 0.930 . S
C135 C133 1.352 . S
C135 C137 1.374 . S
C135 H157 0.931 . S
C136 C137 1.359 . S
C136 C138 1.364 . S
C137 C135 1.374 . S
C137 C136 1.359 . S
C137 H158 0.931 . S
C138 C134 1.389 . S
C138 C136 1.364 . S
C138 H159 0.931 . S
C139 O150 1.256 . S
C139 O151 1.257 1_565 S
O140 Gd120 2.379 1_565 S
O140 C122 1.239 . S
O141 Gd121 2.395 . S
O141 C122 1.240 . S
O142 Gd120 2.448 . S
O142 C123 1.249 . S
O143 Gd120 2.506 . S
O143 C123 1.252 . S
O144 Gd120 2.435 . S
O144 C130 1.256 . S
O145 Gd120 2.717 1_565 S
O145 Gd121 2.327 . S
O145 C130 1.257 1_565 S
O146 Gd121 2.377 1_546 S
O146 C131 1.240 . S
O147 Gd120 2.395 1_556 S
O147 C131 1.240 . S
O148 Gd121 2.448 1_556 S
O148 C132 1.249 . S
O149 Gd121 2.506 1_556 S
O149 C132 1.252 . S
O150 Gd121 2.435 . S
O150 C139 1.256 . S
O151 Gd120 2.327 . S
O151 Gd121 2.717 1_545 S
O151 C139 1.257 1_545 S
H152 C125 0.930 . S
H153 C126 0.931 . S
H154 C128 0.931 . S
H155 C129 0.931 . S
H156 C134 0.930 . S
H157 C135 0.931 . S
H158 C137 0.931 . S
H159 C138 0.931 . S
Gd160 C163 2.818 . S
Gd160 O180 2.377 . S
Gd160 O182 2.448 . S
Gd160 O183 2.506 . S
Gd160 O184 2.435 . S
Gd160 O185 2.717 . S
Gd160 O187 2.395 . S
Gd160 O191 2.327 . S
Gd161 C172 2.818 . S
Gd161 O181 2.395 . S
Gd161 O185 2.327 . S
Gd161 O186 2.377 . S
Gd161 O188 2.448 . S
Gd161 O189 2.506 . S
Gd161 O190 2.435 . S
Gd161 O191 2.717 . S
C162 O180 1.240 . S
C162 O181 1.240 . S
C163 Gd160 2.818 . S
C163 C164 1.510 . S
C163 O182 1.249 . S
C163 O183 1.252 . S
C164 C163 1.510 . S
C164 C165 1.404 . S
C164 C166 1.352 . S
C165 C164 1.404 . S
C165 C169 1.389 . S
C165 H192 0.930 . S
C166 C164 1.352 . S
C166 C168 1.374 . S
C166 H193 0.931 . S
C167 C168 1.359 . S
C167 C169 1.364 . S
C168 C166 1.374 . S
C168 C167 1.359 . S
C168 H194 0.931 . S
C169 C165 1.389 . S
C169 C167 1.364 . S
C169 H195 0.931 . S
C170 O184 1.256 . S
C170 O185 1.257 . S
C171 O186 1.240 . S
C171 O187 1.240 . S
C172 Gd161 2.818 . S
C172 C173 1.510 . S
C172 O188 1.249 . S
C172 O189 1.252 . S
C173 C172 1.510 . S
C173 C174 1.404 . S
C173 C175 1.352 1_655 S
C174 C173 1.404 . S
C174 C178 1.389 . S
C174 H196 0.930 . S
C175 C173 1.352 1_455 S
C175 C177 1.374 . S
C175 H197 0.931 . S
C176 C177 1.359 . S
C176 C178 1.364 1_455 S
C177 C175 1.374 . S
C177 C176 1.359 . S
C177 H198 0.931 . S
C178 C174 1.389 . S
C178 C176 1.364 1_655 S
C178 H199 0.931 . S
C179 O190 1.256 . S
C179 O191 1.257 . S
O180 Gd160 2.377 . S
O180 C162 1.240 . S
O181 Gd161 2.395 . S
O181 C162 1.240 . S
O182 Gd160 2.448 . S
O182 C163 1.249 . S
O183 Gd160 2.506 . S
O183 C163 1.252 . S
O184 Gd160 2.435 . S
O184 C170 1.256 . S
O185 Gd160 2.717 . S
O185 Gd161 2.327 . S
O185 C170 1.257 . S
O186 Gd161 2.377 . S
O186 C171 1.240 . S
O187 Gd160 2.395 . S
O187 C171 1.240 . S
O188 Gd161 2.448 . S
O188 C172 1.249 . S
O189 Gd161 2.506 . S
O189 C172 1.252 . S
O190 Gd161 2.435 . S
O190 C179 1.256 . S
O191 Gd160 2.327 . S
O191 Gd161 2.717 . S
O191 C179 1.257 . S
H192 C165 0.930 . S
H193 C166 0.931 . S
H194 C168 0.931 . S
H195 C169 0.931 . S
H196 C174 0.930 . S
H197 C175 0.931 . S
H198 C177 0.931 . S
H199 C178 0.931 . S
Gd200 C203 2.818 . S
Gd200 O220 2.377 . S
Gd200 O222 2.448 . S
Gd200 O223 2.506 . S
Gd200 O224 2.435 . S
Gd200 O225 2.717 . S
Gd200 O227 2.395 . S
Gd200 O231 2.327 . S
Gd201 C212 2.818 . S
Gd201 O221 2.395 . S
Gd201 O225 2.327 . S
Gd201 O226 2.377 . S
Gd201 O228 2.448 . S
Gd201 O229 2.512 . S
Gd201 O230 2.435 . S
Gd201 O231 2.717 . S
C202 O220 1.240 . S
C202 O221 1.240 . S
C203 Gd200 2.818 . S
C203 C204 1.510 . S
C203 O222 1.249 . S
C203 O223 1.252 . S
C204 C203 1.510 . S
C204 C205 1.404 . S
C204 C206 1.352 . S
C205 C204 1.404 . S
C205 C209 1.389 . S
C205 H232 0.930 . S
C206 C204 1.352 . S
C206 C208 1.374 . S
C206 H233 0.931 . S
C207 C208 1.359 . S
C207 C209 1.364 . S
C208 C206 1.374 . S
C208 C207 1.359 . S
C208 H234 0.931 . S
C209 C205 1.389 . S
C209 C207 1.364 . S
C209 H235 0.931 . S
C210 O224 1.256 . S
C210 O225 1.257 . S
C211 O226 1.240 . S
C211 O227 1.240 . S
C212 Gd201 2.818 . S
C212 C213 1.510 . S
C212 O228 1.249 . S
C212 O229 1.260 . S
C213 C212 1.510 . S
C213 C214 1.404 . S
C213 C215 1.352 1_565 S
C214 C213 1.404 . S
C214 C218 1.389 . S
C214 H236 0.930 . S
C215 C213 1.352 1_545 S
C215 C217 1.374 . S
C215 H237 0.931 . S
C216 C217 1.359 . S
C216 C218 1.364 1_545 S
C217 C215 1.374 . S
C217 C216 1.359 . S
C217 H238 0.931 . S
C218 C214 1.389 . S
C218 C216 1.364 1_565 S
C218 H239 0.931 . S
C219 O230 1.256 . S
C219 O231 1.257 . S
O220 Gd200 2.377 . S
O220 C202 1.240 . S
O221 Gd201 2.395 . S
O221 C202 1.240 . S
O222 Gd200 2.448 . S
O222 C203 1.249 . S
O223 Gd200 2.506 . S
O223 C203 1.252 . S
O224 Gd200 2.435 . S
O224 C210 1.256 . S
O225 Gd200 2.717 . S
O225 Gd201 2.327 . S
O225 C210 1.257 . S
O226 Gd201 2.377 . S
O226 C211 1.240 . S
O227 Gd200 2.395 . S
O227 C211 1.240 . S
O228 Gd201 2.448 . S
O228 C212 1.249 . S
O229 Gd201 2.512 . S
O229 C212 1.260 . S
O230 Gd201 2.435 . S
O230 C219 1.256 . S
O231 Gd200 2.327 . S
O231 Gd201 2.717 . S
O231 C219 1.257 . S
H232 C205 0.930 . S
H233 C206 0.931 . S
H234 C208 0.931 . S
H235 C209 0.931 . S
H236 C214 0.930 . S
H237 C215 0.931 . S
H238 C217 0.931 . S
H239 C218 0.931 . S
H240 C248 0.929 . S
H241 C250 0.930 . S
H242 C252 0.930 . S
H243 C255 0.929 . S
H244 C258 0.930 . S
H245 C260 0.960 . S
H246 C260 0.960 1_565 S
H247 C260 0.960 . S
C248 H240 0.929 . S
C248 C249 1.377 1_556 S
C248 C250 1.384 1_565 S
C249 C248 1.377 1_554 S
C249 C255 1.390 1_565 S
C250 H241 0.930 . S
C250 C248 1.384 1_545 S
C250 C251 1.372 1_556 S
C251 C250 1.372 1_554 S
C251 C252 1.400 . S
C251 C256 1.490 1_655 S
C252 H242 0.930 . S
C252 C251 1.400 . S
C252 C255 1.386 . S
H253 C269 0.930 . S
H254 C270 0.931 . S
C255 H243 0.929 . S
C255 C249 1.390 1_545 S
C255 C252 1.386 . S
C256 C251 1.490 1_455 S
C256 C258 1.395 1_554 S
C256 C259 1.403 . S
H257 C263 0.930 . S
C258 H244 0.930 . S
C258 C256 1.395 1_556 S
C258 C261 1.403 . S
C259 C256 1.403 . S
C259 C260 1.524 . S
C259 C263 1.400 . S
C260 H245 0.960 . S
C260 H246 0.960 1_545 S
C260 H247 0.960 . S
C260 C259 1.524 . S
C261 C258 1.403 . S
C261 C262 1.392 1_556 S
C261 C265 1.495 . S
C262 C261 1.392 1_554 S
C262 C263 1.385 . S
C262 C264 1.478 . S
C263 H257 0.930 . S
C263 C259 1.400 . S
C263 C262 1.385 . S
C264 C262 1.478 . S
C264 C266 1.381 1_554 S
C264 C270 1.383 . S
C265 C261 1.495 . S
C265 H271 0.959 . S
C265 H272 0.961 . S
C265 H273 0.960 . S
C266 C264 1.381 1_556 S
C266 C267 1.394 . S
C266 H274 0.930 . S
C267 C266 1.394 . S
C267 C268 1.383 1_556 S
C267 H275 0.929 . S
C268 C267 1.383 1_554 S
C268 C269 1.377 . S
C269 H253 0.930 . S
C269 C268 1.377 . S
C269 C270 1.379 . S
C270 H254 0.931 . S
C270 C264 1.383 . S
C270 C269 1.379 . S
H271 C265 0.959 . S
H272 C265 0.961 . S
H273 C265 0.960 . S
H274 C266 0.930 . S
H275 C267 0.929 . S
H276 C284 0.929 . S
H277 C286 0.930 . S
H278 C288 0.930 . S
H279 C291 0.929 . S
H280 C294 0.930 . S
H281 C296 0.960 . S
H282 C296 0.960 . S
H283 C296 0.960 . S
C284 H276 0.929 . S
C284 C285 1.377 . S
C284 C286 1.384 . S
C285 C284 1.377 . S
C285 C291 1.390 1_655 S
C286 H277 0.930 . S
C286 C284 1.384 . S
C286 C287 1.372 1_655 S
C287 C286 1.372 1_455 S
C287 C288 1.400 . S
C287 C292 1.490 1_565 S
C288 H278 0.930 . S
C288 C287 1.400 . S
C288 C291 1.386 . S
H289 C305 0.930 . S
H290 C306 0.931 . S
C291 H279 0.929 . S
C291 C285 1.390 1_455 S
C291 C288 1.386 . S
C292 C287 1.490 1_545 S
C292 C294 1.395 . S
C292 C295 1.403 . S
H293 C299 0.930 . S
C294 H280 0.930 . S
C294 C292 1.395 . S
C294 C297 1.403 . S
C295 C292 1.403 . S
C295 C296 1.524 . S
C295 C299 1.400 . S
C296 H281 0.960 . S
C296 H282 0.960 . S
C296 H283 0.960 . S
C296 C295 1.524 . S
C297 C294 1.403 . S
C297 C298 1.392 . S
C297 C301 1.495 . S
C298 C297 1.392 . S
C298 C299 1.385 . S
C298 C300 1.478 . S
C299 H293 0.930 . S
C299 C295 1.400 . S
C299 C298 1.385 . S
C300 C298 1.478 . S
C300 C302 1.381 . S
C300 C306 1.383 . S
C301 C297 1.495 . S
C301 H307 0.959 . S
C301 H308 0.961 . S
C301 H309 0.960 . S
C302 C300 1.381 . S
C302 C303 1.394 . S
C302 H310 0.930 . S
C303 C302 1.394 . S
C303 C304 1.383 . S
C303 H311 0.929 . S
C304 C303 1.383 . S
C304 C305 1.377 . S
C305 H289 0.930 . S
C305 C304 1.377 . S
C305 C306 1.379 . S
C306 H290 0.931 . S
C306 C300 1.383 . S
C306 C305 1.379 . S
H307 C301 0.959 . S
H308 C301 0.961 . S
H309 C301 0.960 . S
H310 C302 0.930 . S
H311 C303 0.929 . S
H312 C320 0.929 . S
H313 C322 0.930 . S
H314 C324 0.930 . S
H315 C327 0.929 . S
H316 C330 0.930 . S
H317 C332 0.960 . S
H318 C332 0.960 . S
H319 C332 0.960 . S
C320 H312 0.929 . S
C320 C321 1.377 . S
C320 C322 1.384 1_565 S
C321 C320 1.377 . S
C321 C327 1.390 1_565 S
C322 H313 0.930 . S
C322 C320 1.384 1_545 S
C322 C323 1.372 . S
C323 C322 1.372 . S
C323 C324 1.400 . S
C323 C328 1.490 . S
C324 H314 0.930 . S
C324 C323 1.400 . S
C324 C327 1.386 . S
H325 C341 0.930 . S
H326 C342 0.931 . S
C327 H315 0.929 . S
C327 C321 1.390 1_545 S
C327 C324 1.386 . S
C328 C323 1.490 . S
C328 C330 1.395 . S
C328 C331 1.403 . S
H329 C335 0.930 . S
C330 H316 0.930 . S
C330 C328 1.395 . S
C330 C333 1.403 . S
C331 C328 1.403 . S
C331 C332 1.524 . S
C331 C335 1.400 . S
C332 H317 0.960 . S
C332 H318 0.960 . S
C332 H319 0.960 . S
C332 C331 1.524 . S
C333 C330 1.403 . S
C333 C334 1.392 . S
C333 C337 1.495 1_455 S
C334 C333 1.392 . S
C334 C335 1.385 . S
C334 C336 1.478 . S
C335 H329 0.930 . S
C335 C331 1.400 . S
C335 C334 1.385 . S
C336 C334 1.478 . S
C336 C338 1.381 . S
C336 C342 1.383 . S
C337 C333 1.495 1_655 S
C337 H343 0.959 1_545 S
C337 H344 0.961 . S
C337 H345 0.960 . S
C338 C336 1.381 . S
C338 C339 1.394 1_455 S
C338 H346 0.930 . S
C339 C338 1.394 1_655 S
C339 C340 1.383 . S
C339 H347 0.929 . S
C340 C339 1.383 . S
C340 C341 1.377 1_655 S
C341 H325 0.930 . S
C341 C340 1.377 1_455 S
C341 C342 1.379 . S
C342 H326 0.931 . S
C342 C336 1.383 . S
C342 C341 1.379 . S
H343 C337 0.959 1_565 S
H344 C337 0.961 . S
H345 C337 0.960 . S
H346 C338 0.930 . S
H347 C339 0.929 . S
H348 C356 0.929 . S
H349 C358 0.930 . S
H350 C360 0.930 . S
H351 C363 0.929 . S
H352 C366 0.930 . S
H353 C368 0.960 . S
H354 C368 0.960 . S
H355 C368 0.960 . S
C356 H348 0.929 . S
C356 C357 1.377 . S
C356 C358 1.384 . S
C357 C356 1.377 . S
C357 C363 1.390 . S
C358 H349 0.930 . S
C358 C356 1.384 . S
C358 C359 1.372 . S
C359 C358 1.372 . S
C359 C360 1.400 . S
C359 C364 1.490 . S
C360 H350 0.930 . S
C360 C359 1.400 . S
C360 C363 1.386 . S
H361 C377 0.930 . S
H362 C378 0.931 . S
C363 H351 0.929 . S
C363 C357 1.390 . S
C363 C360 1.386 . S
C364 C359 1.490 . S
C364 C366 1.395 . S
C364 C367 1.403 . S
H365 C371 0.930 . S
C366 H352 0.930 . S
C366 C364 1.395 . S
C366 C369 1.403 . S
C367 C364 1.403 . S
C367 C368 1.524 . S
C367 C371 1.400 . S
C368 H353 0.960 . S
C368 H354 0.960 . S
C368 H355 0.960 . S
C368 C367 1.524 . S
C369 C366 1.403 . S
C369 C370 1.392 . S
C369 C373 1.495 . S
C370 C369 1.392 . S
C370 C371 1.385 . S
C370 C372 1.478 . S
C371 H365 0.930 . S
C371 C367 1.400 . S
C371 C370 1.385 . S
C372 C370 1.478 . S
C372 C374 1.381 . S
C372 C378 1.383 . S
C373 C369 1.495 . S
C373 H379 0.959 . S
C373 H380 0.961 . S
C373 H381 0.960 . S
C374 C372 1.381 . S
C374 C375 1.394 . S
C374 H382 0.930 . S
C375 C374 1.394 . S
C375 C376 1.383 . S
C375 H383 0.929 . S
C376 C375 1.383 . S
C376 C377 1.377 . S
C377 H361 0.930 . S
C377 C376 1.377 . S
C377 C378 1.379 . S
C378 H362 0.931 . S
C378 C372 1.383 . S
C378 C377 1.379 . S
H379 C373 0.959 . S
H380 C373 0.961 . S
H381 C373 0.960 . S
H382 C374 0.930 . S
H383 C375 0.929 . S
H384 C392 0.929 . S
H385 C394 0.930 . S
H386 C396 0.930 . S
H387 C399 0.929 . S
H388 C402 0.930 . S
H389 C404 0.960 . S
H390 C404 0.960 . S
H391 C404 0.960 . S
C392 H384 0.929 . S
C392 C393 1.377 . S
C392 C394 1.384 . S
C393 C392 1.377 . S
C393 C399 1.390 . S
C394 H385 0.930 . S
C394 C392 1.384 . S
C394 C395 1.372 . S
C395 C394 1.372 . S
C395 C396 1.400 . S
C395 C400 1.490 . S
C396 H386 0.930 . S
C396 C395 1.400 . S
C396 C399 1.386 . S
H397 C413 0.930 . S
H398 C414 0.931 . S
C399 H387 0.929 . S
C399 C393 1.390 . S
C399 C396 1.386 . S
C400 C395 1.490 . S
C400 C402 1.395 . S
C400 C403 1.403 . S
H401 C407 0.930 . S
C402 H388 0.930 . S
C402 C400 1.395 . S
C402 C405 1.393 1_455 S
C403 C400 1.403 . S
C403 C404 1.524 . S
C403 C407 1.400 1_455 S
C404 H389 0.960 . S
C404 H390 0.960 . S
C404 H391 0.960 . S
C404 C403 1.524 . S
C405 C402 1.393 1_655 S
C405 C406 1.390 . S
C405 C409 1.508 . S
C406 C405 1.390 . S
C406 C407 1.385 . S
C406 C408 1.478 . S
C407 H401 0.930 . S
C407 C403 1.400 1_655 S
C407 C406 1.385 . S
C408 C406 1.478 . S
C408 C410 1.381 . S
C408 C414 1.383 . S
C409 C405 1.508 . S
C409 H415 0.959 1_655 S
C409 H416 0.961 . S
C409 H417 0.960 . S
C410 C408 1.381 . S
C410 C411 1.394 . S
C410 H418 0.930 . S
C411 C410 1.394 . S
C411 C412 1.383 . S
C411 H419 0.929 . S
C412 C411 1.383 . S
C412 C413 1.377 . S
C413 H397 0.930 . S
C413 C412 1.377 . S
C413 C414 1.379 . S
C414 H398 0.931 . S
C414 C408 1.383 . S
C414 C413 1.379 . S
H415 C409 0.959 1_455 S
H416 C409 0.961 . S
H417 C409 0.960 . S
H418 C410 0.930 . S
H419 C411 0.929 . S
H420 C428 0.929 . S
H421 C430 0.930 . S
H422 C432 0.930 . S
H423 C435 0.929 . S
H424 C438 0.930 . S
H425 C440 0.960 . S
H426 C440 0.960 . S
H427 C440 0.960 . S
C428 H420 0.929 . S
C428 C429 1.377 . S
C428 C430 1.384 . S
C429 C428 1.377 . S
C429 C435 1.390 . S
C430 H421 0.930 . S
C430 C428 1.384 . S
C430 C431 1.372 . S
C431 C430 1.372 . S
C431 C432 1.400 . S
C431 C436 1.490 . S
C432 H422 0.930 . S
C432 C431 1.400 . S
C432 C435 1.386 . S
H433 C449 0.930 . S
H434 C450 0.931 . S
C435 H423 0.929 . S
C435 C429 1.390 . S
C435 C432 1.386 . S
C436 C431 1.490 . S
C436 C438 1.395 . S
C436 C439 1.403 . S
H437 C443 0.930 1_565 S
C438 H424 0.930 . S
C438 C436 1.395 . S
C438 C441 1.403 1_545 S
C439 C436 1.403 . S
C439 C440 1.524 . S
C439 C443 1.400 . S
C440 H425 0.960 . S
C440 H426 0.960 . S
C440 H427 0.960 . S
C440 C439 1.524 . S
C441 C438 1.403 1_565 S
C441 C442 1.392 . S
C441 C445 1.495 . S
C442 C441 1.392 . S
C442 C443 1.385 1_565 S
C442 C444 1.478 . S
C443 H437 0.930 1_545 S
C443 C439 1.400 . S
C443 C442 1.385 1_545 S
C444 C442 1.478 . S
C444 C446 1.381 . S
C444 C450 1.383 . S
C445 C441 1.495 . S
C445 H451 0.959 . S
C445 H452 0.961 . S
C445 H453 0.960 . S
C446 C444 1.381 . S
C446 C447 1.394 . S
C446 H454 0.930 . S
C447 C446 1.394 . S
C447 C448 1.383 . S
C447 H455 0.929 . S
C448 C447 1.383 . S
C448 C449 1.377 . S
C449 H433 0.930 . S
C449 C448 1.377 . S
C449 C450 1.379 . S
C450 H434 0.931 . S
C450 C444 1.383 . S
C450 C449 1.379 . S
H451 C445 0.959 . S
H452 C445 0.961 . S
H453 C445 0.960 . S
H454 C446 0.930 . S
H455 C447 0.929 . S
H456 C464 0.929 . S
H457 C466 0.930 . S
H458 C468 0.930 . S
H459 C471 0.929 . S
H460 C474 0.930 . S
H461 C476 0.960 . S
H462 C476 0.960 . S
H463 C476 0.960 . S
C464 H456 0.929 . S
C464 C465 1.377 . S
C464 C466 1.384 . S
C465 C464 1.377 . S
C465 C471 1.390 . S
C466 H457 0.930 . S
C466 C464 1.384 . S
C466 C467 1.372 . S
C467 C466 1.372 . S
C467 C468 1.400 . S
C467 C472 1.490 . S
C468 H458 0.930 . S
C468 C467 1.400 . S
C468 C471 1.386 . S
H469 C485 0.930 . S
H470 C486 0.931 . S
C471 H459 0.929 . S
C471 C465 1.390 . S
C471 C468 1.386 . S
C472 C467 1.490 . S
C472 C474 1.395 . S
C472 C475 1.403 . S
H473 C479 0.930 . S
C474 H460 0.930 . S
C474 C472 1.395 . S
C474 C477 1.403 . S
C475 C472 1.403 . S
C475 C476 1.524 . S
C475 C479 1.400 . S
C476 H461 0.960 . S
C476 H462 0.960 . S
C476 H463 0.960 . S
C476 C475 1.524 . S
C477 C474 1.403 . S
C477 C478 1.392 . S
C477 C481 1.495 . S
C478 C477 1.392 . S
C478 C479 1.385 . S
C478 C480 1.478 . S
C479 H473 0.930 . S
C479 C475 1.400 . S
C479 C478 1.385 . S
C480 C478 1.478 . S
C480 C482 1.381 . S
C480 C486 1.383 1_655 S
C481 C477 1.495 . S
C481 H487 0.959 . S
C481 H488 0.961 1_655 S
C481 H489 0.960 . S
C482 C480 1.381 . S
C482 C483 1.394 1_655 S
C482 H490 0.930 . S
C483 C482 1.394 1_455 S
C483 C484 1.383 . S
C483 H491 0.929 . S
C484 C483 1.383 . S
C484 C485 1.377 . S
C485 H469 0.930 . S
C485 C484 1.377 . S
C485 C486 1.379 . S
C486 H470 0.931 . S
C486 C480 1.383 1_455 S
C486 C485 1.379 . S
H487 C481 0.959 . S
H488 C481 0.961 1_455 S
H489 C481 0.960 . S
H490 C482 0.930 . S
H491 C483 0.929 . S
H492 C500 0.929 1_655 S
H493 C502 0.930 . S
H494 C504 0.930 . S
H495 C507 0.929 . S
H496 C510 0.930 . S
H497 C512 0.960 . S
H498 C512 0.960 . S
H499 C512 0.960 . S
C500 H492 0.929 1_455 S
C500 C501 1.377 . S
C500 C502 1.384 . S
C501 C500 1.377 . S
C501 C507 1.390 . S
C502 H493 0.930 . S
C502 C500 1.384 . S
C502 C503 1.372 . S
C503 C502 1.372 . S
C503 C504 1.400 . S
C503 C508 1.490 . S
C504 H494 0.930 . S
C504 C503 1.400 . S
C504 C507 1.386 . S
H505 C521 0.930 . S
H506 C522 0.931 . S
C507 H495 0.929 . S
C507 C501 1.390 . S
C507 C504 1.386 . S
C508 C503 1.490 . S
C508 C510 1.395 . S
C508 C511 1.403 . S
H509 C515 0.930 . S
C510 H496 0.930 . S
C510 C508 1.395 . S
C510 C513 1.403 . S
C511 C508 1.403 . S
C511 C512 1.524 . S
C511 C515 1.400 . S
C512 H497 0.960 . S
C512 H498 0.960 . S
C512 H499 0.960 . S
C512 C511 1.524 . S
C513 C510 1.403 . S
C513 C514 1.392 . S
C513 C517 1.495 1_565 S
C514 C513 1.392 . S
C514 C515 1.385 . S
C514 C516 1.478 . S
C515 H509 0.930 . S
C515 C511 1.400 . S
C515 C514 1.385 . S
C516 C514 1.478 . S
C516 C518 1.381 1_565 S
C516 C522 1.383 . S
C517 C513 1.495 1_545 S
C517 H523 0.959 . S
C517 H524 0.961 . S
C517 H525 0.960 . S
C518 C516 1.381 1_545 S
C518 C519 1.394 . S
C518 H526 0.930 . S
C519 C518 1.394 . S
C519 C520 1.383 . S
C519 H527 0.929 . S
C520 C519 1.383 . S
C520 C521 1.377 1_545 S
C521 H505 0.930 . S
C521 C520 1.377 1_565 S
C521 C522 1.379 . S
C522 H506 0.931 . S
C522 C516 1.383 . S
C522 C521 1.379 . S
H523 C517 0.959 . S
H524 C517 0.961 . S
H525 C517 0.960 . S
H526 C518 0.930 . S
H527 C519 0.929 . S
H528 C536 0.929 . S
H529 C538 0.930 . S
H530 C540 0.930 . S
H531 C543 0.929 . S
H532 C546 0.930 . S
H533 C548 0.960 . S
H534 C548 0.960 . S
H535 C548 0.960 . S
C536 H528 0.929 . S
C536 C537 1.377 . S
C536 C538 1.384 . S
C537 C536 1.377 . S
C537 C543 1.390 . S
C538 H529 0.930 . S
C538 C536 1.384 . S
C538 C539 1.372 . S
C539 C538 1.372 . S
C539 C540 1.400 . S
C539 C544 1.490 . S
C540 H530 0.930 . S
C540 C539 1.400 . S
C540 C543 1.386 . S
H541 C557 0.930 . S
H542 C558 0.931 . S
C543 H531 0.929 . S
C543 C537 1.390 . S
C543 C540 1.386 . S
C544 C539 1.490 . S
C544 C546 1.395 . S
C544 C547 1.403 . S
H545 C551 0.930 . S
C546 H532 0.930 . S
C546 C544 1.395 . S
C546 C549 1.403 . S
C547 C544 1.403 . S
C547 C548 1.524 . S
C547 C551 1.400 . S
C548 H533 0.960 . S
C548 H534 0.960 . S
C548 H535 0.960 . S
C548 C547 1.524 . S
C549 C546 1.403 . S
C549 C550 1.392 . S
C549 C553 1.495 . S
C550 C549 1.392 . S
C550 C551 1.385 . S
C550 C552 1.478 . S
C551 H545 0.930 . S
C551 C547 1.400 . S
C551 C550 1.385 . S
C552 C550 1.478 . S
C552 C554 1.381 . S
C552 C558 1.383 . S
C553 C549 1.495 . S
C553 H559 0.959 . S
C553 H560 0.961 . S
C553 H561 0.960 . S
C554 C552 1.381 . S
C554 C555 1.394 . S
C554 H562 0.930 . S
C555 C554 1.394 . S
C555 C556 1.383 . S
C555 H563 0.929 . S
C556 C555 1.383 . S
C556 C557 1.377 . S
C557 H541 0.930 . S
C557 C556 1.377 . S
C557 C558 1.379 . S
C558 H542 0.931 . S
C558 C552 1.383 . S
C558 C557 1.379 . S
H559 C553 0.959 . S
H560 C553 0.961 . S
H561 C553 0.960 . S
H562 C554 0.930 . S
H563 C555 0.929 . S
H564 C572 0.929 . S
H565 C574 0.930 . S
H566 C576 0.930 . S
H567 C579 0.929 . S
H568 C582 0.930 . S
H569 C584 0.960 1_556 S
H570 C584 0.960 1_556 S
H571 C584 0.960 . S
C572 H564 0.929 . S
C572 C573 1.377 . S
C572 C574 1.384 . S
C573 C572 1.377 . S
C573 C579 1.390 . S
C574 H565 0.930 . S
C574 C572 1.384 . S
C574 C575 1.372 . S
C575 C574 1.372 . S
C575 C576 1.400 . S
C575 C580 1.490 . S
C576 H566 0.930 . S
C576 C575 1.400 . S
C576 C579 1.386 . S
H577 C593 0.930 . S
H578 C594 0.930 . S
C579 H567 0.929 . S
C579 C573 1.390 . S
C579 C576 1.386 . S
C580 C575 1.490 . S
C580 C582 1.395 . S
C580 C583 1.403 . S
H581 C587 0.930 . S
C582 H568 0.930 . S
C582 C580 1.395 . S
C582 C585 1.403 . S
C583 C580 1.403 . S
C583 C584 1.524 . S
C583 C587 1.400 . S
C584 H569 0.960 1_554 S
C584 H570 0.960 1_554 S
C584 H571 0.960 . S
C584 C583 1.524 . S
C585 C582 1.403 . S
C585 C586 1.392 . S
C585 C589 1.495 . S
C586 C585 1.392 . S
C586 C587 1.385 . S
C586 C588 1.478 . S
C587 H581 0.930 . S
C587 C583 1.400 . S
C587 C586 1.385 . S
C588 C586 1.478 . S
C588 C590 1.381 . S
C588 C594 1.383 . S
C589 C585 1.495 . S
C589 H595 0.959 . S
C589 H596 0.961 . S
C589 H597 0.960 . S
C590 C588 1.381 . S
C590 C591 1.394 . S
C590 H598 0.930 . S
C591 C590 1.394 . S
C591 C592 1.402 . S
C591 H599 0.929 1_554 S
C592 C591 1.402 . S
C592 C593 1.380 1_545 S
C593 H577 0.930 . S
C593 C592 1.380 1_565 S
C593 C594 1.379 1_565 S
C594 H578 0.930 . S
C594 C588 1.383 . S
C594 C593 1.379 1_545 S
H595 C589 0.959 . S
H596 C589 0.961 . S
H597 C589 0.960 . S
H598 C590 0.930 . S
H599 C591 0.929 1_556 S
H600 C608 0.929 . S
H601 C610 0.930 . S
H602 C612 0.930 . S
H603 C615 0.929 . S
H604 C618 0.930 . S
H605 C620 0.960 . S
H606 C620 0.960 . S
H607 C620 0.960 . S
C608 H600 0.929 . S
C608 C609 1.377 . S
C608 C610 1.384 . S
C609 C608 1.377 . S
C609 C615 1.390 . S
C610 H601 0.930 . S
C610 C608 1.384 . S
C610 C611 1.372 . S
C611 C610 1.372 . S
C611 C612 1.400 . S
C611 C616 1.490 . S
C612 H602 0.930 . S
C612 C611 1.400 . S
C612 C615 1.386 . S
H613 C629 0.930 . S
H614 C630 0.931 . S
C615 H603 0.929 . S
C615 C609 1.390 . S
C615 C612 1.386 . S
C616 C611 1.490 . S
C616 C618 1.395 . S
C616 C619 1.403 . S
H617 C623 0.930 . S
C618 H604 0.930 . S
C618 C616 1.395 . S
C618 C621 1.403 . S
C619 C616 1.403 . S
C619 C620 1.524 . S
C619 C623 1.400 . S
C620 H605 0.960 . S
C620 H606 0.960 . S
C620 H607 0.960 . S
C620 C619 1.524 . S
C621 C618 1.403 . S
C621 C622 1.392 . S
C621 C625 1.495 . S
C622 C621 1.392 . S
C622 C623 1.385 . S
C622 C624 1.478 . S
C623 H617 0.930 . S
C623 C619 1.400 . S
C623 C622 1.385 . S
C624 C622 1.478 . S
C624 C626 1.381 . S
C624 C630 1.383 . S
C625 C621 1.495 . S
C625 H631 0.959 . S
C625 H632 0.961 . S
C625 H633 0.960 . S
C626 C624 1.381 . S
C626 C627 1.394 . S
C626 H634 0.930 . S
C627 C626 1.394 . S
C627 C628 1.383 . S
C627 H635 0.929 . S
C628 C627 1.383 . S
C628 C629 1.377 . S
C629 H613 0.930 . S
C629 C628 1.377 . S
C629 C630 1.379 . S
C630 H614 0.931 . S
C630 C624 1.383 . S
C630 C629 1.379 . S
H631 C625 0.959 . S
H632 C625 0.961 . S
H633 C625 0.960 . S
H634 C626 0.930 . S
H635 C627 0.929 . S
H636 C644 0.932 . S
H637 C646 0.930 . S
H638 C648 0.930 . S
H639 C651 0.929 . S
H640 C654 0.930 . S
H641 C656 0.960 . S
H642 C656 0.960 1_655 S
H643 C656 0.960 . S
C644 H636 0.932 . S
C644 C645 1.374 . S
C644 C646 1.385 1_655 S
C645 C644 1.374 . S
C645 C651 1.390 1_655 S
C646 H637 0.930 . S
C646 C644 1.385 1_455 S
C646 C647 1.372 . S
C647 C646 1.372 . S
C647 C648 1.400 . S
C647 C652 1.490 . S
C648 H638 0.930 . S
C648 C647 1.400 . S
C648 C651 1.386 . S
H649 C665 0.930 . S
H650 C666 0.931 . S
C651 H639 0.929 . S
C651 C645 1.390 1_455 S
C651 C648 1.386 . S
C652 C647 1.490 . S
C652 C654 1.395 . S
C652 C655 1.403 . S
H653 C659 0.930 . S
C654 H640 0.930 . S
C654 C652 1.395 . S
C654 C657 1.403 . S
C655 C652 1.403 . S
C655 C656 1.524 . S
C655 C659 1.400 . S
C656 H641 0.960 . S
C656 H642 0.960 1_455 S
C656 H643 0.960 . S
C656 C655 1.524 . S
C657 C654 1.403 . S
C657 C658 1.392 . S
C657 C661 1.495 . S
C658 C657 1.392 . S
C658 C659 1.385 . S
C658 C660 1.478 . S
C659 H653 0.930 . S
C659 C655 1.400 . S
C659 C658 1.385 . S
C660 C658 1.478 . S
C660 C662 1.381 . S
C660 C666 1.383 . S
C661 C657 1.495 . S
C661 H667 0.959 . S
C661 H668 0.961 . S
C661 H669 0.960 . S
C662 C660 1.381 . S
C662 C663 1.394 . S
C662 H670 0.930 . S
C663 C662 1.394 . S
C663 C664 1.383 . S
C663 H671 0.929 . S
C664 C663 1.383 . S
C664 C665 1.377 . S
C665 H649 0.930 . S
C665 C664 1.377 . S
C665 C666 1.379 . S
C666 H650 0.931 . S
C666 C660 1.383 . S
C666 C665 1.379 . S
H667 C661 0.959 . S
H668 C661 0.961 . S
H669 C661 0.960 . S
H670 C662 0.930 . S
H671 C663 0.929 . S
H672 C680 0.929 . S
H673 C682 0.930 . S
H674 C684 0.930 . S
H675 C687 0.929 . S
H676 C690 0.930 . S
H677 C692 0.960 . S
H678 C692 0.960 . S
H679 C692 0.960 . S
C680 H672 0.929 . S
C680 C681 1.377 . S
C680 C682 1.384 . S
C681 C680 1.377 . S
C681 C687 1.390 . S
C682 H673 0.930 . S
C682 C680 1.384 . S
C682 C683 1.372 . S
C683 C682 1.372 . S
C683 C684 1.400 . S
C683 C688 1.490 . S
C684 H674 0.930 . S
C684 C683 1.400 . S
C684 C687 1.386 . S
H685 C701 0.930 . S
H686 C702 0.931 . S
C687 H675 0.929 . S
C687 C681 1.390 . S
C687 C684 1.386 . S
C688 C683 1.490 . S
C688 C690 1.395 . S
C688 C691 1.403 . S
H689 C695 0.930 . S
C690 H676 0.930 . S
C690 C688 1.395 . S
C690 C693 1.403 . S
C691 C688 1.403 . S
C691 C692 1.524 . S
C691 C695 1.400 . S
C692 H677 0.960 . S
C692 H678 0.960 . S
C692 H679 0.960 . S
C692 C691 1.524 . S
C693 C690 1.403 . S
C693 C694 1.392 . S
C693 C697 1.495 . S
C694 C693 1.392 . S
C694 C695 1.385 . S
C694 C696 1.478 . S
C695 H689 0.930 . S
C695 C691 1.400 . S
C695 C694 1.385 . S
C696 C694 1.478 . S
C696 C698 1.381 . S
C696 C702 1.383 . S
C697 C693 1.495 . S
C697 H703 0.959 . S
C697 H704 0.961 . S
C697 H705 0.960 . S
C698 C696 1.381 . S
C698 C699 1.394 . S
C698 H706 0.930 . S
C699 C698 1.394 . S
C699 C700 1.383 . S
C699 H707 0.929 . S
C700 C699 1.383 . S
C700 C701 1.377 . S
C701 H685 0.930 . S
C701 C700 1.377 . S
C701 C702 1.379 . S
C702 H686 0.931 . S
C702 C696 1.383 . S
C702 C701 1.379 . S
H703 C697 0.959 . S
H704 C697 0.961 . S
H705 C697 0.960 . S
H706 C698 0.930 . S
H707 C699 0.929 . S
H708 C716 0.929 . S
H709 C718 0.930 . S
H710 C720 0.930 . S
H711 C723 0.929 . S
H712 C726 0.930 . S
H713 C728 0.960 . S
H714 C728 0.960 . S
H715 C728 0.960 . S
C716 H708 0.929 . S
C716 C717 1.377 . S
C716 C718 1.384 . S
C717 C716 1.377 . S
C717 C723 1.390 . S
C718 H709 0.930 . S
C718 C716 1.384 . S
C718 C719 1.372 . S
C719 C718 1.372 . S
C719 C720 1.400 . S
C719 C724 1.490 . S
C720 H710 0.930 . S
C720 C719 1.400 . S
C720 C723 1.386 . S
H721 C737 0.930 . S
H722 C738 0.931 . S
C723 H711 0.929 . S
C723 C717 1.390 . S
C723 C720 1.386 . S
C724 C719 1.490 . S
C724 C726 1.395 . S
C724 C727 1.403 . S
H725 C731 0.930 . S
C726 H712 0.930 . S
C726 C724 1.395 . S
C726 C729 1.403 . S
C727 C724 1.403 . S
C727 C728 1.524 . S
C727 C731 1.400 . S
C728 H713 0.960 . S
C728 H714 0.960 . S
C728 H715 0.960 . S
C728 C727 1.524 . S
C729 C726 1.403 . S
C729 C730 1.392 . S
C729 C733 1.495 . S
C730 C729 1.392 . S
C730 C731 1.385 . S
C730 C732 1.478 . S
C731 H725 0.930 . S
C731 C727 1.400 . S
C731 C730 1.385 . S
C732 C730 1.478 . S
C732 C734 1.381 . S
C732 C738 1.383 . S
C733 C729 1.495 . S
C733 H739 0.959 . S
C733 H740 0.961 . S
C733 H741 0.960 . S
C734 C732 1.381 . S
C734 C735 1.394 . S
C734 H742 0.930 . S
C735 C734 1.394 . S
C735 C736 1.383 . S
C735 H743 0.929 . S
C736 C735 1.383 . S
C736 C737 1.377 . S
C737 H721 0.930 . S
C737 C736 1.377 . S
C737 C738 1.379 . S
C738 H722 0.931 . S
C738 C732 1.383 . S
C738 C737 1.379 . S
H739 C733 0.959 . S
H740 C733 0.961 . S
H741 C733 0.960 . S
H742 C734 0.930 . S
H743 C735 0.929 . S
H744 C752 0.929 . S
H745 C754 0.930 . S
H746 C756 0.930 . S
H747 C759 0.929 . S
H748 C762 0.930 . S
H749 C764 0.960 . S
H750 C764 0.960 . S
H751 C764 0.960 . S
C752 H744 0.929 . S
C752 C753 1.377 . S
C752 C754 1.384 . S
C753 C752 1.377 . S
C753 C759 1.390 . S
C754 H745 0.930 . S
C754 C752 1.384 . S
C754 C755 1.372 . S
C755 C754 1.372 . S
C755 C756 1.400 . S
C755 C760 1.490 . S
C756 H746 0.930 . S
C756 C755 1.400 . S
C756 C759 1.386 . S
H757 C773 0.930 . S
H758 C774 0.931 . S
C759 H747 0.929 . S
C759 C753 1.390 . S
C759 C756 1.386 . S
C760 C755 1.490 . S
C760 C762 1.395 . S
C760 C763 1.403 . S
H761 C767 0.930 . S
C762 H748 0.930 . S
C762 C760 1.395 . S
C762 C765 1.403 . S
C763 C760 1.403 . S
C763 C764 1.524 . S
C763 C767 1.400 . S
C764 H749 0.960 . S
C764 H750 0.960 . S
C764 H751 0.960 . S
C764 C763 1.524 . S
C765 C762 1.403 . S
C765 C766 1.392 . S
C765 C769 1.495 . S
C766 C765 1.392 . S
C766 C767 1.385 . S
C766 C768 1.478 . S
C767 H761 0.930 . S
C767 C763 1.400 . S
C767 C766 1.385 . S
C768 C766 1.478 . S
C768 C770 1.381 . S
C768 C774 1.383 . S
C769 C765 1.495 . S
C769 H775 0.959 . S
C769 H776 0.961 . S
C769 H777 0.960 . S
C770 C768 1.381 . S
C770 C771 1.394 . S
C770 H778 0.930 . S
C771 C770 1.394 . S
C771 C772 1.383 . S
C771 H779 0.929 . S
C772 C771 1.383 . S
C772 C773 1.377 . S
C773 H757 0.930 . S
C773 C772 1.377 . S
C773 C774 1.379 . S
C774 H758 0.931 . S
C774 C768 1.383 . S
C774 C773 1.379 . S
H775 C769 0.959 . S
H776 C769 0.961 . S
H777 C769 0.960 . S
H778 C770 0.930 . S
H779 C771 0.929 . S
H780 C788 0.929 . S
H781 C790 0.930 . S
H782 C792 0.930 . S
H783 C795 0.929 . S
H784 C798 0.930 . S
H785 C800 0.960 . S
H786 C800 0.960 . S
H787 C800 0.960 . S
C788 H780 0.929 . S
C788 C789 1.377 . S
C788 C790 1.384 . S
C789 C788 1.377 . S
C789 C795 1.390 . S
C790 H781 0.930 . S
C790 C788 1.384 . S
C790 C791 1.372 . S
C791 C790 1.372 . S
C791 C792 1.400 . S
C791 C796 1.490 . S
C792 H782 0.930 . S
C792 C791 1.400 . S
C792 C795 1.386 . S
H793 C809 0.930 . S
H794 C810 0.931 . S
C795 H783 0.929 . S
C795 C789 1.390 . S
C795 C792 1.386 . S
C796 C791 1.490 . S
C796 C798 1.395 . S
C796 C799 1.403 . S
H797 C803 0.930 . S
C798 H784 0.930 . S
C798 C796 1.395 . S
C798 C801 1.403 . S
C799 C796 1.403 . S
C799 C800 1.524 . S
C799 C803 1.400 . S
C800 H785 0.960 . S
C800 H786 0.960 . S
C800 H787 0.960 . S
C800 C799 1.524 . S
C801 C798 1.403 . S
C801 C802 1.392 . S
C801 C805 1.495 . S
C802 C801 1.392 . S
C802 C803 1.385 . S
C802 C804 1.478 . S
C803 H797 0.930 . S
C803 C799 1.400 . S
C803 C802 1.385 . S
C804 C802 1.478 . S
C804 C806 1.381 . S
C804 C810 1.383 . S
C805 C801 1.495 . S
C805 H811 0.959 . S
C805 H812 0.961 . S
C805 H813 0.960 . S
C806 C804 1.381 . S
C806 C807 1.394 . S
C806 H814 0.930 . S
C807 C806 1.394 . S
C807 C808 1.383 . S
C807 H815 0.929 . S
C808 C807 1.383 . S
C808 C809 1.377 . S
C809 H793 0.930 . S
C809 C808 1.377 . S
C809 C810 1.379 . S
C810 H794 0.931 . S
C810 C804 1.383 . S
C810 C809 1.379 . S
H811 C805 0.959 . S
H812 C805 0.961 . S
H813 C805 0.960 . S
H814 C806 0.930 . S
H815 C807 0.929 . S
H816 C824 0.929 . S
H817 C826 0.930 . S
H818 C828 0.930 . S
H819 C831 0.929 . S
H820 C834 0.930 . S
H821 C836 0.960 . S
H822 C836 0.960 . S
H823 C836 0.960 . S
C824 H816 0.929 . S
C824 C825 1.377 . S
C824 C826 1.384 1_655 S
C825 C824 1.377 . S
C825 C831 1.390 . S
C826 H817 0.930 . S
C826 C824 1.384 1_455 S
C826 C827 1.372 . S
C827 C826 1.372 . S
C827 C828 1.400 . S
C827 C832 1.490 . S
C828 H818 0.930 . S
C828 C827 1.400 . S
C828 C831 1.386 1_455 S
H829 C845 0.930 . S
H830 C846 0.931 . S
C831 H819 0.929 . S
C831 C825 1.390 . S
C831 C828 1.386 1_655 S
C832 C827 1.490 . S
C832 C834 1.395 1_455 S
C832 C835 1.403 . S
H833 C839 0.930 . S
C834 H820 0.930 . S
C834 C832 1.395 1_655 S
C834 C837 1.400 1_655 S
C835 C832 1.403 . S
C835 C836 1.524 . S
C835 C839 1.400 . S
C836 H821 0.960 . S
C836 H822 0.960 . S
C836 H823 0.960 . S
C836 C835 1.524 . S
C837 C834 1.400 1_455 S
C837 C838 1.412 . S
C837 C841 1.479 1_455 S
C838 C837 1.412 . S
C838 C839 1.385 . S
C838 C840 1.478 . S
C839 H833 0.930 . S
C839 C835 1.400 . S
C839 C838 1.385 . S
C840 C838 1.478 . S
C840 C842 1.381 . S
C840 C846 1.383 . S
C841 C837 1.479 1_655 S
C841 H847 0.959 . S
C841 H848 0.961 . S
C841 H849 0.960 . S
C842 C840 1.381 . S
C842 C843 1.394 . S
C842 H850 0.930 . S
C843 C842 1.394 . S
C843 C844 1.383 . S
C843 H851 0.929 . S
C844 C843 1.383 . S
C844 C845 1.377 . S
C845 H829 0.930 . S
C845 C844 1.377 . S
C845 C846 1.379 . S
C846 H830 0.931 . S
C846 C840 1.383 . S
C846 C845 1.379 . S
H847 C841 0.959 . S
H848 C841 0.961 . S
H849 C841 0.960 . S
H850 C842 0.930 . S
H851 C843 0.929 . S
H852 C860 0.929 . S
H853 C862 0.930 . S
H854 C864 0.930 . S
H855 C867 0.929 . S
H856 C870 0.930 . S
H857 C872 0.960 . S
H858 C872 0.960 . S
H859 C872 0.960 . S
C860 H852 0.929 . S
C860 C861 1.377 . S
C860 C862 1.384 . S
C861 C860 1.377 . S
C861 C867 1.390 1_565 S
C862 H853 0.930 . S
C862 C860 1.384 . S
C862 C863 1.372 1_565 S
C863 C862 1.372 1_545 S
C863 C864 1.400 . S
C863 C868 1.490 . S
C864 H854 0.930 . S
C864 C863 1.400 . S
C864 C867 1.386 . S
H865 C881 0.930 . S
H866 C882 0.931 . S
C867 H855 0.929 . S
C867 C861 1.390 1_545 S
C867 C864 1.386 . S
C868 C863 1.490 . S
C868 C870 1.395 . S
C868 C871 1.403 . S
H869 C875 0.930 . S
C870 H856 0.930 . S
C870 C868 1.395 . S
C870 C873 1.403 . S
C871 C868 1.403 . S
C871 C872 1.524 . S
C871 C875 1.400 . S
C872 H857 0.960 . S
C872 H858 0.960 . S
C872 H859 0.960 . S
C872 C871 1.524 . S
C873 C870 1.403 . S
C873 C874 1.392 . S
C873 C877 1.495 . S
C874 C873 1.392 . S
C874 C875 1.385 . S
C874 C876 1.478 . S
C875 H869 0.930 . S
C875 C871 1.400 . S
C875 C874 1.385 . S
C876 C874 1.478 . S
C876 C878 1.381 . S
C876 C882 1.383 . S
C877 C873 1.495 . S
C877 H883 0.959 . S
C877 H884 0.961 . S
C877 H885 0.960 . S
C878 C876 1.381 . S
C878 C879 1.394 . S
C878 H886 0.923 1_545 S
C879 C878 1.394 . S
C879 C880 1.383 . S
C879 H887 0.929 . S
C880 C879 1.383 . S
C880 C881 1.377 . S
C881 H865 0.930 . S
C881 C880 1.377 . S
C881 C882 1.379 . S
C882 H866 0.931 . S
C882 C876 1.383 . S
C882 C881 1.379 . S
H883 C877 0.959 . S
H884 C877 0.961 . S
H885 C877 0.960 . S
H886 C878 0.923 1_565 S
H887 C879 0.929 . S
C249 C130 1.119 1_565 S
C268 C10 1.166 . S
C285 C170 1.104 . S
C304 C50 1.114 . S
C321 C210 1.116 . S
C340 C90 1.164 1_655 S
C357 C16 0.580 . S
C376 C87 0.533 . S
C393 C56 0.581 . S
C412 C127 0.521 . S
C429 C96 0.608 . S
C448 C167 0.577 . S
C465 C136 0.616 . S
C484 C207 0.503 . S
C501 C176 0.601 . S
C520 C7 0.599 . S
C537 C216 0.607 . S
C556 C47 0.450 . S
C573 C19 1.113 . S
C592 C139 1.098 1_545 S
C609 C59 1.114 . S
C628 C179 1.097 . S
C645 C99 1.122 . S
C664 C219 1.137 . S
C681 C2 3.888 . S
C700 C51 3.933 . S
C717 C42 3.889 . S
C736 C91 3.931 . S
C753 C82 3.892 . S
C772 C131 3.930 . S
C789 C122 3.891 . S
C808 C171 3.933 . S
C825 C162 3.889 . S
C844 C211 3.936 . S
C861 C202 3.890 . S
C880 C11 3.931 . S
