# Generated by pormake.
# Topology umm, (4)-cn, num edge types: 1
# Building blocks:
#     Node 0, Type 0, BuildingBlock: ICAMEG_clean_sbu_1, # of connection points: 4
#     Node 1, Type 0, BuildingBlock: ICAMEG_clean_sbu_1, # of connection points: 4
#     Node 2, Type 0, BuildingBlock: ICAMEG_clean_sbu_1, # of connection points: 4
#     Node 3, Type 0, BuildingBlock: ICAMEG_clean_sbu_1, # of connection points: 4
#     Node 4, Type 0, BuildingBlock: ICAMEG_clean_sbu_1, # of connection points: 4
#     Node 5, Type 0, BuildingBlock: ICAMEG_clean_sbu_1, # of connection points: 4
#     Node 6, Type 0, BuildingBlock: ICAMEG_clean_sbu_1, # of connection points: 4
#     Node 7, Type 0, BuildingBlock: ICAMEG_clean_sbu_1, # of connection points: 4
#     Node 8, Type 0, BuildingBlock: ICAMEG_clean_sbu_1, # of connection points: 4
#     Node 9, Type 0, BuildingBlock: ICAMEG_clean_sbu_1, # of connection points: 4
#     Node 10, Type 0, BuildingBlock: ICAMEG_clean_sbu_1, # of connection points: 4
#     Node 11, Type 0, BuildingBlock: ICAMEG_clean_sbu_1, # of connection points: 4
#     Edge 12, Type (0, 0), BuildingBlock: EZIPEK_clean_linker_0, # of connection points: 2
#     Edge 13, Type (0, 0), BuildingBlock: EZIPEK_clean_linker_0, # of connection points: 2
#     Edge 14, Type (0, 0), BuildingBlock: EZIPEK_clean_linker_0, # of connection points: 2
#     Edge 15, Type (0, 0), BuildingBlock: EZIPEK_clean_linker_0, # of connection points: 2
#     Edge 16, Type (0, 0), BuildingBlock: EZIPEK_clean_linker_0, # of connection points: 2
#     Edge 17, Type (0, 0), BuildingBlock: EZIPEK_clean_linker_0, # of connection points: 2
#     Edge 18, Type (0, 0), BuildingBlock: EZIPEK_clean_linker_0, # of connection points: 2
#     Edge 19, Type (0, 0), BuildingBlock: EZIPEK_clean_linker_0, # of connection points: 2
#     Edge 20, Type (0, 0), BuildingBlock: EZIPEK_clean_linker_0, # of connection points: 2
#     Edge 21, Type (0, 0), BuildingBlock: EZIPEK_clean_linker_0, # of connection points: 2
#     Edge 22, Type (0, 0), BuildingBlock: EZIPEK_clean_linker_0, # of connection points: 2
#     Edge 23, Type (0, 0), BuildingBlock: EZIPEK_clean_linker_0, # of connection points: 2
#     Edge 24, Type (0, 0), BuildingBlock: EZIPEK_clean_linker_0, # of connection points: 2
#     Edge 25, Type (0, 0), BuildingBlock: EZIPEK_clean_linker_0, # of connection points: 2
#     Edge 26, Type (0, 0), BuildingBlock: EZIPEK_clean_linker_0, # of connection points: 2
#     Edge 27, Type (0, 0), BuildingBlock: EZIPEK_clean_linker_0, # of connection points: 2
#     Edge 28, Type (0, 0), BuildingBlock: EZIPEK_clean_linker_0, # of connection points: 2
#     Edge 29, Type (0, 0), BuildingBlock: EZIPEK_clean_linker_0, # of connection points: 2
#     Edge 30, Type (0, 0), BuildingBlock: EZIPEK_clean_linker_0, # of connection points: 2
#     Edge 31, Type (0, 0), BuildingBlock: EZIPEK_clean_linker_0, # of connection points: 2
#     Edge 32, Type (0, 0), BuildingBlock: EZIPEK_clean_linker_0, # of connection points: 2
#     Edge 33, Type (0, 0), BuildingBlock: EZIPEK_clean_linker_0, # of connection points: 2
#     Edge 34, Type (0, 0), BuildingBlock: EZIPEK_clean_linker_0, # of connection points: 2
#     Edge 35, Type (0, 0), BuildingBlock: EZIPEK_clean_linker_0, # of connection points: 2
# Relax obj value: 0.059
# Max RMSD: 0.165
# Mean RMSD: 0.164
data_MOF--net-umm--node1-ICAMEG_clean_sbu_1--edge1-EZIPEK_clean_linker_0
_symmetry_space_group_name_H-M    P1
_symmetry_Int_Tables_number       1
_symmetry_cell_setting            triclinic
loop_
_symmetry_equiv_pos_as_xyz
'x, y, z'
_cell_length_a     45.163204
_cell_length_b     45.248425
_cell_length_c     22.589104
_cell_angle_alpha  89.959356
_cell_angle_beta   90.047718
_cell_angle_gamma 119.95423
loop_
_atom_site_label
_atom_site_type_symbol
_atom_site_fract_x
_atom_site_fract_y
_atom_site_fract_z
_atom_type_partial_charge
Co0 Co 0.37879 0.49013 0.0184 0.0
Co1 Co 0.43812 0.5693 0.07536 0.0
O2 O 0.39289 0.52836 0.0735 0.0
C3 C 0.32838 0.5131 0.005 0.0
O4 O 0.35409 0.54431 0.00955 0.0
C5 C 0.41762 0.54864 0.20337 0.0
O6 O 0.38883 0.5222 0.18645 0.0
O7 O 0.46011 0.54058 0.07605 0.0
O8 O 0.42398 0.4918 0.02848 0.0
H9 H 0.56111 0.64178 0.01489 0.0
H10 H 0.33097 0.48018 0.11691 0.0
O11 O 0.33336 0.48776 0.0074 0.0
H12 H 0.36618 0.3944 0.14948 0.0
H13 H 0.29488 0.37521 0.93416 0.0
H14 H 0.41012 0.47537 0.91531 0.0
H15 H 0.38757 0.4329 0.06339 0.0
H16 H 0.31443 0.42372 0.003 0.0
O17 O 0.4388 0.56925 0.16524 0.0
H18 H 0.50361 0.59097 0.01298 0.0
H19 H 0.46998 0.63394 0.14524 0.0
H20 H 0.39194 0.42733 0.84594 0.0
H21 H 0.30835 0.44164 0.20278 0.0
H22 H 0.33386 0.37672 0.85516 0.0
H23 H 0.32622 0.39857 0.2199 0.0
O24 O 0.39724 0.52175 0.94925 0.0
H25 H 0.35136 0.60276 0.13609 0.0
H26 H 0.44947 0.63013 0.00634 0.0
H27 H 0.42192 0.66527 0.00139 0.0
H28 H 0.3726 0.65182 0.06685 0.0
H29 H 0.37923 0.568 0.13884 0.0
H30 H 0.52724 0.68507 0.14951 0.0
H31 H 0.57326 0.68936 0.08365 0.0
O32 O 0.43955 0.57096 0.98643 0.0
C33 C 0.45252 0.51167 0.05386 0.0
C34 C 0.54121 0.64037 0.04345 0.0
C35 C 0.52223 0.66462 0.11908 0.0
N36 N 0.4832 0.60972 0.07787 0.0
C37 C 0.50851 0.61172 0.04216 0.0
C38 C 0.48984 0.63556 0.11652 0.0
C39 C 0.54803 0.66701 0.08212 0.0
C40 C 0.3385 0.46121 0.12345 0.0
N41 N 0.36079 0.45906 0.08527 0.0
C42 C 0.32576 0.43957 0.17243 0.0
C43 C 0.33585 0.41546 0.18207 0.0
C44 C 0.35832 0.41316 0.14265 0.0
C45 C 0.37054 0.43523 0.09416 0.0
C46 C 0.32036 0.39698 0.92999 0.0
C47 C 0.38517 0.45324 0.9203 0.0
C48 C 0.3316 0.42451 0.96891 0.0
N49 N 0.36383 0.452 0.96421 0.0
C50 C 0.37484 0.4262 0.88056 0.0
C51 C 0.34223 0.39785 0.88567 0.0
C52 C 0.42189 0.55224 0.94314 0.0
C53 C 0.37307 0.60912 0.10779 0.0
C54 C 0.42808 0.62409 0.03514 0.0
C55 C 0.41258 0.64412 0.0321 0.0
C56 C 0.38492 0.63657 0.06882 0.0
N57 N 0.4166 0.5974 0.07401 0.0
C58 C 0.38922 0.58965 0.10957 0.0
Co59 Co 0.87484 0.36866 0.37528 0.0
Co60 Co 0.86911 0.43753 0.42679 0.0
O61 O 0.85576 0.3892 0.42812 0.0
C62 C 0.79978 0.32496 0.36212 0.0
O63 O 0.79819 0.35311 0.36369 0.0
C64 C 0.87943 0.42407 0.5499 0.0
O65 O 0.89467 0.4081 0.52899 0.0
O66 O 0.9184 0.45132 0.43004 0.0
O67 O 0.92189 0.41013 0.38132 0.0
H68 H 0.93848 0.55936 0.35994 0.0
H69 H 0.83732 0.33478 0.48499 0.0
O70 O 0.82855 0.32634 0.36725 0.0
H71 H 0.94879 0.34052 0.50358 0.0
H72 H 0.88843 0.27206 0.29605 0.0
H73 H 0.92036 0.39257 0.27034 0.0
H74 H 0.93517 0.36338 0.41508 0.0
H75 H 0.86665 0.29923 0.36457 0.0
O76 O 0.86744 0.43766 0.51527 0.0
H77 H 0.92009 0.49806 0.35993 0.0
H78 H 0.84737 0.48002 0.49459 0.0
H79 H 0.94279 0.36652 0.20087 0.0
H80 H 0.84951 0.31098 0.57383 0.0
H81 H 0.92693 0.30583 0.21364 0.0
H82 H 0.90569 0.31386 0.58362 0.0
O83 O 0.86463 0.38869 0.3052 0.0
H84 H 0.74606 0.37092 0.48961 0.0
H85 H 0.82783 0.45775 0.35152 0.0
H86 H 0.76672 0.44022 0.34507 0.0
H87 H 0.72537 0.39654 0.41454 0.0
H88 H 0.80734 0.38886 0.49389 0.0
H89 H 0.8651 0.54117 0.49629 0.0
H90 H 0.9109 0.58128 0.42849 0.0
O91 O 0.87107 0.43853 0.33849 0.0
C92 C 0.93587 0.43923 0.40679 0.0
C93 C 0.91839 0.54212 0.38951 0.0
C94 C 0.87724 0.53191 0.46611 0.0
N95 N 0.88246 0.48545 0.4268 0.0
C96 C 0.90779 0.50736 0.38957 0.0
C97 C 0.86733 0.49733 0.46499 0.0
C98 C 0.90294 0.5544 0.42804 0.0
C99 C 0.86139 0.33523 0.48817 0.0
N100 N 0.88504 0.34949 0.44402 0.0
C101 C 0.86834 0.3221 0.53892 0.0
C102 C 0.89991 0.32385 0.54448 0.0
C103 C 0.9241 0.33882 0.49961 0.0
C104 C 0.91624 0.35173 0.44955 0.0
C105 C 0.89571 0.29859 0.29025 0.0
C106 C 0.91351 0.36624 0.27639 0.0
C107 C 0.8835 0.31412 0.32895 0.0
N108 N 0.89283 0.3477 0.32221 0.0
C109 C 0.92622 0.35159 0.23683 0.0
C110 C 0.91729 0.31754 0.24399 0.0
C111 C 0.86686 0.41762 0.29718 0.0
C112 C 0.76384 0.39004 0.4592 0.0
C113 C 0.80999 0.43866 0.3818 0.0
C114 C 0.77542 0.42889 0.37802 0.0
C115 C 0.75224 0.4044 0.41702 0.0
N116 N 0.82116 0.42439 0.42319 0.0
C117 C 0.79859 0.40042 0.46165 0.0
Co118 Co 0.50972 0.8836 0.6889 0.0
Co119 Co 0.42788 0.85968 0.73979 0.0
O120 O 0.47059 0.85823 0.7419 0.0
C121 C 0.49014 0.8113 0.67289 0.0
O122 O 0.45839 0.80455 0.67641 0.0
C123 C 0.44973 0.86721 0.8677 0.0
O124 O 0.47663 0.86509 0.85316 0.0
O125 O 0.45373 0.91035 0.73357 0.0
O126 O 0.50627 0.92608 0.69873 0.0
H127 H 0.34909 0.89858 0.66 0.0
H128 H 0.51743 0.84685 0.79121 0.0
O129 O 0.51448 0.84198 0.67748 0.0
H130 H 0.60269 0.96787 0.82339 0.0
H131 H 0.62932 0.92246 0.61751 0.0
H132 H 0.52247 0.92248 0.57531 0.0
H133 H 0.5656 0.95011 0.73519 0.0
H134 H 0.57966 0.89238 0.68343 0.0
O135 O 0.42812 0.8646 0.82863 0.0
H136 H 0.40187 0.89513 0.6637 0.0
H137 H 0.36386 0.82864 0.81178 0.0
H138 H 0.57152 0.95334 0.50895 0.0
H139 H 0.5549 0.86327 0.87895 0.0
H140 H 0.62567 0.95366 0.52987 0.0
H141 H 0.59767 0.92427 0.89582 0.0
O142 O 0.47868 0.8697 0.61887 0.0
H143 H 0.40234 0.74473 0.81752 0.0
H144 H 0.36765 0.80501 0.67649 0.0
H145 H 0.33552 0.74224 0.67999 0.0
H146 H 0.35268 0.71162 0.75113 0.0
H147 H 0.43395 0.80731 0.81205 0.0
H148 H 0.31083 0.83163 0.81015 0.0
H149 H 0.30312 0.86669 0.73364 0.0
O150 O 0.42621 0.85561 0.65205 0.0
C151 C 0.48355 0.93304 0.71681 0.0
C152 C 0.35211 0.88314 0.69345 0.0
C153 C 0.33066 0.84561 0.77778 0.0
N154 N 0.38586 0.86152 0.73767 0.0
C155 C 0.38189 0.881 0.69565 0.0
C156 C 0.3608 0.8441 0.77863 0.0
C157 C 0.32634 0.86527 0.73482 0.0
C158 C 0.53675 0.87325 0.79725 0.0
N159 N 0.53968 0.89731 0.75755 0.0
C160 C 0.55756 0.88249 0.84746 0.0
C161 C 0.58145 0.91672 0.85702 0.0
C162 C 0.58422 0.9412 0.81646 0.0
C163 C 0.56299 0.93098 0.76675 0.0
C164 C 0.60617 0.92326 0.60871 0.0
C165 C 0.54616 0.92365 0.5865 0.0
C166 C 0.57799 0.90653 0.64627 0.0
N167 N 0.54875 0.90777 0.63609 0.0
C168 C 0.57379 0.94066 0.54791 0.0
C169 C 0.60409 0.94068 0.55948 0.0
C170 C 0.44709 0.85972 0.61086 0.0
C171 C 0.39438 0.75778 0.78676 0.0
C172 C 0.37521 0.79198 0.70791 0.0
C173 C 0.35692 0.75637 0.70956 0.0
C174 C 0.36657 0.73921 0.74942 0.0
N175 N 0.40224 0.81011 0.7452 0.0
C176 C 0.41208 0.79337 0.78382 0.0
Co177 Co 0.63416 0.50362 0.04487 0.0
Co178 Co 0.58035 0.42446 0.10598 0.0
O179 O 0.62384 0.46747 0.10217 0.0
C180 C 0.6882 0.48607 0.02741 0.0
O181 O 0.66371 0.45408 0.02761 0.0
C182 C 0.59408 0.45305 0.22701 0.0
O183 O 0.60218 0.48224 0.20189 0.0
O184 O 0.55417 0.44939 0.10525 0.0
O185 O 0.58734 0.49767 0.05403 0.0
H186 H 0.45797 0.34309 0.05236 0.0
H187 H 0.68281 0.51888 0.14415 0.0
O188 O 0.68127 0.50995 0.03402 0.0
H189 H 0.64163 0.60079 0.16491 0.0
H190 H 0.70986 0.6165 0.94578 0.0
H191 H 0.59678 0.51207 0.94434 0.0
H192 H 0.62084 0.55889 0.08355 0.0
H193 H 0.69521 0.57162 0.02083 0.0
O194 O 0.58232 0.42658 0.19459 0.0
H195 H 0.5134 0.39644 0.04547 0.0
H196 H 0.55437 0.36171 0.1801 0.0
H197 H 0.61032 0.55626 0.86858 0.0
H198 H 0.70521 0.56117 0.2249 0.0
H199 H 0.66722 0.60896 0.869 0.0
H200 H 0.68436 0.60231 0.236 0.0
O201 O 0.61702 0.47039 0.97917 0.0
H202 H 0.67461 0.40373 0.17309 0.0
H203 H 0.57472 0.36387 0.04182 0.0
H204 H 0.6077 0.33397 0.0414 0.0
H205 H 0.658 0.35377 0.10767 0.0
H206 H 0.64121 0.43325 0.17121 0.0
H207 H 0.49936 0.30807 0.18872 0.0
H208 H 0.45071 0.2984 0.12431 0.0
O209 O 0.57727 0.42077 0.01715 0.0
C210 C 0.55941 0.47678 0.07971 0.0
C211 C 0.47901 0.34692 0.08047 0.0
C212 C 0.50225 0.32726 0.15699 0.0
N213 N 0.53726 0.38195 0.11163 0.0
C214 C 0.51048 0.37705 0.0767 0.0
C215 C 0.53334 0.3577 0.15192 0.0
C216 C 0.47496 0.32187 0.12087 0.0
C217 C 0.67404 0.53704 0.14811 0.0
N218 N 0.65071 0.53653 0.10897 0.0
C219 C 0.68671 0.56085 0.19406 0.0
C220 C 0.67493 0.58387 0.20035 0.0
C221 C 0.65091 0.58299 0.16055 0.0
C222 C 0.63908 0.55906 0.11477 0.0
C223 C 0.68493 0.59372 0.94529 0.0
C224 C 0.62148 0.53506 0.94517 0.0
C225 C 0.6765 0.56824 0.98767 0.0
N226 N 0.64504 0.53946 0.98738 0.0
C227 C 0.62905 0.55994 0.90201 0.0
C228 C 0.661 0.58947 0.90221 0.0
C229 C 0.59385 0.43929 0.97307 0.0
C230 C 0.65271 0.39481 0.14408 0.0
C231 C 0.5967 0.3729 0.07025 0.0
C232 C 0.61522 0.35574 0.07009 0.0
C233 C 0.64342 0.36682 0.10731 0.0
N234 N 0.60588 0.40029 0.10655 0.0
C235 C 0.63359 0.41135 0.14298 0.0
Co236 Co 0.12561 0.62335 0.35356 0.0
Co237 Co 0.14981 0.56358 0.38858 0.0
O238 O 0.15269 0.60783 0.39724 0.0
C239 C 0.19815 0.67268 0.32761 0.0
O240 O 0.20264 0.64638 0.32269 0.0
C241 C 0.1328 0.5673 0.51262 0.0
O242 O 0.1143 0.58009 0.49301 0.0
O243 O 0.09906 0.5396 0.3893 0.0
O244 O 0.08257 0.57801 0.36782 0.0
H245 H 0.1083 0.44758 0.29939 0.0
H246 H 0.16973 0.66298 0.45445 0.0
O247 O 0.16868 0.6685 0.33948 0.0
H248 H 0.05455 0.64152 0.50511 0.0
H249 H 0.09874 0.71346 0.28568 0.0
H250 H 0.06264 0.59139 0.27737 0.0
H251 H 0.06486 0.62059 0.41097 0.0
H252 H 0.13038 0.69121 0.34088 0.0
O253 O 0.14956 0.55933 0.47707 0.0
H254 H 0.11275 0.50389 0.30864 0.0
H255 H 0.18129 0.52867 0.45314 0.0
H256 H 0.03039 0.61253 0.22152 0.0
H257 H 0.16067 0.68431 0.54915 0.0
H258 H 0.04836 0.67408 0.22523 0.0
H259 H 0.10265 0.67353 0.5751 0.0
O260 O 0.13329 0.60575 0.27717 0.0
H261 H 0.26749 0.64782 0.46162 0.0
H262 H 0.2015 0.55889 0.31336 0.0
H263 H 0.26451 0.58862 0.31089 0.0
H264 H 0.29794 0.63347 0.38543 0.0
H265 H 0.20448 0.61756 0.46203 0.0
H266 H 0.1775 0.47252 0.44572 0.0
H267 H 0.14085 0.43154 0.36831 0.0
O268 O 0.14943 0.56722 0.3002 0.0
C269 C 0.07614 0.54775 0.38072 0.0
C270 C 0.12435 0.46519 0.33334 0.0
C271 C 0.16314 0.47918 0.41549 0.0
N272 N 0.14713 0.51955 0.38144 0.0
C273 C 0.12694 0.49715 0.33877 0.0
C274 C 0.16507 0.51089 0.41963 0.0
C275 C 0.1426 0.45621 0.37203 0.0
C276 C 0.14454 0.6584 0.46522 0.0
N277 N 0.11793 0.64062 0.42714 0.0
C278 C 0.1395 0.67046 0.51899 0.0
C279 C 0.10695 0.66438 0.53354 0.0
C280 C 0.07996 0.64644 0.49429 0.0
C281 C 0.08597 0.63472 0.44097 0.0
C282 C 0.09094 0.68666 0.28298 0.0
C283 C 0.0713 0.61821 0.27835 0.0
C284 C 0.10902 0.6739 0.3137 0.0
N285 N 0.09942 0.64007 0.31061 0.0
C286 C 0.05261 0.63006 0.247 0.0
C287 C 0.06265 0.66456 0.24918 0.0
C288 C 0.14216 0.5839 0.26286 0.0
C289 C 0.25323 0.62828 0.42898 0.0
C290 C 0.21589 0.57836 0.34594 0.0
C291 C 0.25155 0.59509 0.34435 0.0
C292 C 0.27029 0.62025 0.38618 0.0
N293 N 0.19935 0.58651 0.38786 0.0
C294 C 0.21754 0.61099 0.42918 0.0
Co295 Co 0.49374 0.12774 0.7009 0.0
Co296 Co 0.56825 0.1427 0.76987 0.0
O297 O 0.52885 0.14915 0.76173 0.0
C298 C 0.51768 0.20121 0.69422 0.0
O299 O 0.54847 0.20602 0.70269 0.0
C300 C 0.53488 0.12561 0.88666 0.0
O301 O 0.50587 0.10752 0.85866 0.0
O302 O 0.53796 0.09222 0.76746 0.0
O303 O 0.49453 0.0838 0.70744 0.0
H304 H 0.63767 0.0851 0.73612 0.0
H305 H 0.48119 0.16083 0.80355 0.0
O306 O 0.49205 0.17112 0.69287 0.0
H307 H 0.38976 0.04037 0.81113 0.0
H308 H 0.38523 0.1034 0.5969 0.0
H309 H 0.48414 0.08535 0.59441 0.0
H310 H 0.43253 0.0609 0.73101 0.0
H311 H 0.429 0.12774 0.67534 0.0
O312 O 0.56287 0.14184 0.85821 0.0
H313 H 0.58856 0.0939 0.72243 0.0
H314 H 0.63008 0.17492 0.84681 0.0
H315 H 0.44096 0.06036 0.51531 0.0
H316 H 0.43871 0.14149 0.88403 0.0
H317 H 0.39101 0.06935 0.5162 0.0
H318 H 0.39265 0.08081 0.88832 0.0
O319 O 0.52937 0.14367 0.63808 0.0
H320 H 0.60515 0.26181 0.83928 0.0
H321 H 0.63157 0.19211 0.7053 0.0
H322 H 0.66849 0.25464 0.70503 0.0
H323 H 0.65547 0.28995 0.77259 0.0
H324 H 0.56851 0.19927 0.83687 0.0
H325 H 0.67949 0.16671 0.8627 0.0
H326 H 0.68371 0.12175 0.80669 0.0
O327 O 0.57439 0.14351 0.68104 0.0
C328 C 0.51154 0.07303 0.73664 0.0
C329 C 0.6365 0.10526 0.75989 0.0
C330 C 0.65992 0.15099 0.83102 0.0
N331 N 0.60728 0.13615 0.7811 0.0
C332 C 0.60895 0.1107 0.75154 0.0
C333 C 0.63195 0.15565 0.82151 0.0
C334 C 0.66225 0.12573 0.79966 0.0
C335 C 0.46096 0.13451 0.80464 0.0
N336 N 0.45922 0.11209 0.76242 0.0
C337 C 0.43708 0.12365 0.85052 0.0
C338 C 0.41129 0.08959 0.85296 0.0
C339 C 0.40967 0.06688 0.80969 0.0
C340 C 0.434 0.07864 0.7645 0.0
C341 C 0.40677 0.09913 0.5962 0.0
C342 C 0.46231 0.08897 0.5956 0.0
C343 C 0.43162 0.11282 0.64053 0.0
N344 N 0.45883 0.10744 0.64009 0.0
C345 C 0.438 0.07493 0.55047 0.0
C346 C 0.41003 0.08003 0.55093 0.0
C347 C 0.55871 0.14595 0.63558 0.0
C348 C 0.61118 0.24671 0.80981 0.0
C349 C 0.62549 0.20727 0.73441 0.0
C350 C 0.64663 0.24269 0.73429 0.0
C351 C 0.63935 0.26248 0.77227 0.0
N352 N 0.59785 0.19196 0.77133 0.0
C353 C 0.59063 0.21123 0.80867 0.0
Co354 Co 0.51359 0.63716 0.60791 0.0
Co355 Co 0.42959 0.57537 0.57961 0.0
O356 O 0.47023 0.6197 0.56579 0.0
C357 C 0.49037 0.68635 0.6304 0.0
O358 O 0.45991 0.65996 0.63919 0.0
C359 C 0.44748 0.57672 0.45351 0.0
O360 O 0.47959 0.59404 0.46959 0.0
O361 O 0.4571 0.55216 0.58207 0.0
O362 O 0.51174 0.59208 0.60056 0.0
H363 H 0.3605 0.4631 0.68363 0.0
H364 H 0.5101 0.67639 0.50538 0.0
O365 O 0.51557 0.68233 0.61699 0.0
H366 H 0.59654 0.64496 0.45156 0.0
H367 H 0.63339 0.72797 0.6599 0.0
H368 H 0.54232 0.60966 0.69679 0.0
H369 H 0.56746 0.62825 0.54829 0.0
H370 H 0.57825 0.70407 0.60749 0.0
O371 O 0.42366 0.56717 0.49171 0.0
H372 H 0.41123 0.5195 0.66583 0.0
H373 H 0.36156 0.53615 0.52054 0.0
H374 H 0.59716 0.63229 0.74946 0.0
H375 H 0.53883 0.69401 0.4085 0.0
H376 H 0.64317 0.69196 0.73136 0.0
H377 H 0.5823 0.67812 0.38092 0.0
O378 O 0.48982 0.62258 0.68556 0.0
H379 H 0.3941 0.65598 0.49605 0.0
H380 H 0.37184 0.57064 0.65114 0.0
H381 H 0.3376 0.59935 0.64866 0.0
H382 H 0.34869 0.64242 0.57068 0.0
H383 H 0.42784 0.62683 0.50062 0.0
H384 H 0.31047 0.47974 0.53627 0.0
H385 H 0.30965 0.44288 0.61854 0.0
O386 O 0.43515 0.58307 0.66785 0.0
C387 C 0.48835 0.56133 0.59111 0.0
C388 C 0.36049 0.47899 0.64779 0.0
C389 C 0.33244 0.4883 0.56501 0.0
N390 N 0.38922 0.53124 0.59261 0.0
C391 C 0.38908 0.511 0.63766 0.0
C392 C 0.36148 0.52017 0.5562 0.0
C393 C 0.33199 0.46764 0.6112 0.0
C394 C 0.52929 0.6698 0.49405 0.0
N395 N 0.53716 0.65144 0.53255 0.0
C396 C 0.54536 0.67968 0.43898 0.0
C397 C 0.56968 0.67069 0.42349 0.0
C398 C 0.57766 0.65205 0.46308 0.0
C399 C 0.56104 0.64258 0.51773 0.0
C400 C 0.61352 0.70195 0.66824 0.0
C401 C 0.56226 0.63547 0.68813 0.0
C402 C 0.58217 0.68832 0.6389 0.0
N403 N 0.55699 0.65546 0.6491 0.0
C404 C 0.59325 0.64824 0.71835 0.0
C405 C 0.61902 0.68172 0.70826 0.0
C406 C 0.45965 0.60175 0.70333 0.0
C407 C 0.38907 0.63733 0.53035 0.0
C408 C 0.37697 0.58953 0.6174 0.0
C409 C 0.35741 0.6056 0.61604 0.0
C410 C 0.36362 0.62973 0.57225 0.0
N411 N 0.40212 0.59738 0.57657 0.0
C412 C 0.40809 0.62073 0.53313 0.0
Co413 Co 0.88814 0.5116 0.96 0.0
Co414 Co 0.86186 0.42657 0.92817 0.0
O415 O 0.85965 0.46844 0.91824 0.0
C416 C 0.81608 0.49132 0.98721 0.0
O417 O 0.80982 0.45978 0.98762 0.0
C418 C 0.87523 0.4442 0.80155 0.0
O419 O 0.89071 0.47615 0.81859 0.0
O420 O 0.91266 0.45259 0.92569 0.0
O421 O 0.93027 0.50807 0.94321 0.0
H422 H 0.90179 0.35178 0.02251 0.0
H423 H 0.84248 0.50525 0.86034 0.0
O424 O 0.84636 0.51565 0.97753 0.0
H425 H 0.95641 0.59912 0.80422 0.0
H426 H 0.9206 0.63082 0.02309 0.0
H427 H 0.95099 0.54058 0.03537 0.0
H428 H 0.94784 0.56902 0.89919 0.0
H429 H 0.88654 0.57657 0.97015 0.0
O430 O 0.86152 0.42052 0.83992 0.0
H431 H 0.89816 0.40395 0.01036 0.0
H432 H 0.82917 0.35916 0.86683 0.0
H433 H 0.98569 0.59435 0.08896 0.0
H434 H 0.84983 0.53476 0.76508 0.0
H435 H 0.97059 0.64004 0.08316 0.0
H436 H 0.90717 0.582 0.73635 0.0
O437 O 0.8814 0.48724 0.03706 0.0
H438 H 0.74408 0.39623 0.85981 0.0
H439 H 0.8102 0.37092 0.00457 0.0
H440 H 0.74722 0.33887 0.00878 0.0
H441 H 0.71371 0.35142 0.93594 0.0
H442 H 0.80712 0.42788 0.85765 0.0
H443 H 0.83209 0.30646 0.87724 0.0
H444 H 0.86857 0.30248 0.95559 0.0
O445 O 0.8628 0.4319 0.01601 0.0
C446 C 0.93606 0.48372 0.93122 0.0
C447 C 0.88589 0.35322 0.98806 0.0
C448 C 0.84681 0.32781 0.90651 0.0
N449 N 0.86383 0.38488 0.93758 0.0
C450 C 0.88382 0.3828 0.9809 0.0
C451 C 0.84541 0.35783 0.90063 0.0
C452 C 0.86725 0.32558 0.95051 0.0
C453 C 0.86742 0.52604 0.8485 0.0
N454 N 0.89461 0.5356 0.88561 0.0
C455 C 0.87146 0.54255 0.79435 0.0
C456 C 0.90364 0.56903 0.77824 0.0
C457 C 0.93126 0.57867 0.81631 0.0
C458 C 0.92623 0.56158 0.87013 0.0
C459 C 0.92722 0.61096 0.02653 0.0
C460 C 0.94377 0.55987 0.03329 0.0
C461 C 0.90781 0.57997 -0.00296 0.0
N462 N 0.91599 0.5547 0.00101 0.0
C463 C 0.96375 0.59051 0.06345 0.0
C464 C 0.9553 0.61615 0.06012 0.0
C465 C 0.87129 0.45643 0.05239 0.0
C466 C 0.75837 0.39036 0.89155 0.0
C467 C 0.79579 0.37637 0.97249 0.0
C468 C 0.76013 0.35819 0.97517 0.0
C469 C 0.74136 0.36526 0.93432 0.0
N470 N 0.8123 0.40088 0.93028 0.0
C471 C 0.79406 0.40804 0.89028 0.0
Co472 Co 0.36846 0.8757 0.28498 0.0
Co473 Co 0.43567 0.86501 0.23882 0.0
O474 O 0.38887 0.85649 0.23248 0.0
C475 C 0.32253 0.80108 0.29134 0.0
O476 O 0.35028 0.79881 0.29409 0.0
C477 C 0.42713 0.8803 0.11518 0.0
O478 O 0.40886 0.89346 0.13447 0.0
O479 O 0.45388 0.91528 0.24328 0.0
O480 O 0.41195 0.92186 0.28394 0.0
H481 H 0.55492 0.92008 0.32138 0.0
H482 H 0.33223 0.84114 0.17466 0.0
O483 O 0.32464 0.83019 0.2868 0.0
H484 H 0.35353 0.95865 0.15712 0.0
H485 H 0.2734 0.89569 0.351 0.0
H486 H 0.38678 0.91226 0.40097 0.0
H487 H 0.37206 0.9405 0.2459 0.0
H488 H 0.30148 0.87365 0.28538 0.0
O489 O 0.4399 0.86794 0.15081 0.0
H490 H 0.49554 0.90838 0.31495 0.0
H491 H 0.476 0.84049 0.17148 0.0
H492 H 0.36008 0.93527 0.46727 0.0
H493 H 0.31242 0.85778 0.08561 0.0
H494 H 0.30289 0.92713 0.44241 0.0
H495 H 0.32328 0.91709 0.0763 0.0
O496 O 0.38499 0.86186 0.35607 0.0
H497 H 0.36238 0.74729 0.15551 0.0
H498 H 0.44628 0.81534 0.30974 0.0
H499 H 0.42246 0.75304 0.30708 0.0
H500 H 0.38025 0.71858 0.22945 0.0
H501 H 0.38646 0.80957 0.16029 0.0
H502 H 0.53528 0.85165 0.17594 0.0
H503 H 0.57516 0.8916 0.25148 0.0
O504 O 0.43273 0.86204 0.32676 0.0
C505 C 0.44263 0.93399 0.26466 0.0
C506 C 0.53775 0.90249 0.28845 0.0
C507 C 0.52674 0.86413 0.20678 0.0
N508 N 0.48218 0.87347 0.24343 0.0
C509 C 0.50404 0.89567 0.28478 0.0
C510 C 0.49321 0.85794 0.20443 0.0
C511 C 0.5491 0.88654 0.24917 0.0
C512 C 0.33623 0.8666 0.17148 0.0
N513 N 0.35279 0.88953 0.21576 0.0
C514 C 0.32532 0.87606 0.12071 0.0
C515 C 0.33153 0.90937 0.11543 0.0
C516 C 0.34855 0.93271 0.16071 0.0
C517 C 0.35911 0.9223 0.21078 0.0
C518 C 0.29862 0.90001 0.36174 0.0
C519 C 0.36265 0.90974 0.38854 0.0
C520 C 0.31479 0.88779 0.32452 0.0
N521 N 0.34685 0.89352 0.33728 0.0
C522 C 0.34729 0.92231 0.42687 0.0
C523 C 0.31515 0.9176 0.41305 0.0
C524 C 0.41143 0.85931 0.36623 0.0
C525 C 0.38086 0.76204 0.18939 0.0
C526 C 0.42785 0.80053 0.27591 0.0
C527 C 0.41451 0.76526 0.27455 0.0
C528 C 0.39085 0.74594 0.23097 0.0
N529 N 0.41793 0.81614 0.23499 0.0
C530 C 0.39475 0.79736 0.1921 0.0
Co531 Co 0.49406 0.37744 0.63574 0.0
Co532 Co 0.57791 0.43778 0.60176 0.0
O533 O 0.53685 0.3933 0.59199 0.0
C534 C 0.51704 0.32733 0.65886 0.0
O535 O 0.54829 0.35304 0.65471 0.0
C536 C 0.56077 0.43297 0.47472 0.0
O537 O 0.5284 0.41714 0.48931 0.0
O538 O 0.55016 0.4609 0.59851 0.0
O539 O 0.49573 0.42181 0.62116 0.0
H540 H 0.64642 0.55905 0.67372 0.0
H541 H 0.49932 0.33783 0.5357 0.0
O542 O 0.49177 0.33234 0.65243 0.0
H543 H 0.40723 0.36097 0.48023 0.0
H544 H 0.37446 0.29048 0.69688 0.0
H545 H 0.46876 0.40859 0.72307 0.0
H546 H 0.43734 0.3813 0.57559 0.0
H547 H 0.42837 0.31147 0.64145 0.0
O548 O 0.58398 0.44288 0.51399 0.0
H549 H 0.59483 0.50283 0.66262 0.0
H550 H 0.64828 0.46996 0.55109 0.0
H551 H 0.41521 0.38876 0.779 0.0
H552 H 0.46965 0.31666 0.44022 0.0
H553 H 0.3676 0.32931 0.76605 0.0
H554 H 0.42327 0.32828 0.41188 0.0
O555 O 0.51872 0.39539 0.7118 0.0
H556 H 0.61551 0.3567 0.5288 0.0
H557 H 0.6307 0.43967 0.68414 0.0
H558 H 0.6636 0.40969 0.68943 0.0
H559 H 0.65622 0.36797 0.61125 0.0
H560 H 0.58257 0.38669 0.5259 0.0
H561 H 0.70041 0.52609 0.56 0.0
H562 H 0.69988 0.57103 0.62228 0.0
O563 O 0.5731 0.43344 0.69017 0.0
C564 C 0.5189 0.45195 0.60738 0.0
C565 C 0.64725 0.53943 0.64758 0.0
C566 C 0.67751 0.52096 0.58369 0.0
N567 N 0.61896 0.4822 0.60959 0.0
C568 C 0.61817 0.50726 0.64201 0.0
C569 C 0.64792 0.48909 0.57922 0.0
C570 C 0.67717 0.54619 0.61852 0.0
C571 C 0.47873 0.3424 0.52418 0.0
N572 N 0.46955 0.36007 0.56178 0.0
C573 C 0.46219 0.33059 0.46985 0.0
C574 C 0.43624 0.33719 0.45392 0.0
C575 C 0.42722 0.35552 0.49226 0.0
C576 C 0.44432 0.36692 0.54623 0.0
C577 C 0.395 0.31646 0.70281 0.0
C578 C 0.44806 0.38275 0.7169 0.0
C579 C 0.4256 0.32846 0.67165 0.0
N580 N 0.45155 0.36129 0.67867 0.0
C581 C 0.41785 0.37164 0.74883 0.0
C582 C 0.39116 0.33826 0.74159 0.0
C583 C 0.54932 0.41597 0.72745 0.0
C584 C 0.61904 0.37491 0.56302 0.0
C585 C 0.62708 0.42133 0.65019 0.0
C586 C 0.64593 0.40456 0.65328 0.0
C587 C 0.64182 0.38119 0.60936 0.0
N588 N 0.60477 0.41505 0.60457 0.0
C589 C 0.60062 0.39217 0.56135 0.0
Co590 Co 0.128 0.48668 0.9387 0.0
Co591 Co 0.1467 0.56697 0.88932 0.0
O592 O 0.15272 0.52693 0.88815 0.0
C593 C 0.20134 0.51037 0.96036 0.0
O594 O 0.20654 0.54155 0.95762 0.0
C595 C 0.13477 0.54296 0.76411 0.0
O596 O 0.12353 0.51206 0.78441 0.0
O597 O 0.09604 0.5378 0.88987 0.0
O598 O 0.084 0.48682 0.92504 0.0
H599 H 0.09568 0.63683 0.9615 0.0
H600 H 0.16973 0.48744 0.83706 0.0
O601 O 0.17125 0.48514 0.95399 0.0
H602 H 0.05459 0.38998 0.80006 0.0
H603 H 0.09882 0.37105 0.01749 0.0
H604 H 0.07696 0.46705 0.03496 0.0
H605 H 0.06639 0.42529 0.88938 0.0
H606 H 0.12848 0.42127 0.95231 0.0
O607 O 0.14576 0.56797 0.80009 0.0
H608 H 0.10451 0.58726 0.96021 0.0
H609 H 0.17558 0.63138 0.81917 0.0
H610 H 0.04664 0.41734 0.10089 0.0
H611 H 0.15942 0.45222 0.74787 0.0
H612 H 0.05744 0.36879 0.09226 0.0
H613 H 0.10139 0.40321 0.72864 0.0
O614 O 0.13747 0.51598 0.01011 0.0
H615 H 0.26652 0.60113 0.82713 0.0
H616 H 0.19598 0.6287 0.95703 0.0
H617 H 0.25873 0.6646 0.96019 0.0
H618 H 0.29447 0.65102 0.89463 0.0
H619 H 0.20369 0.56568 0.82601 0.0
H620 H 0.16731 0.68131 0.81864 0.0
H621 H 0.12722 0.68431 0.89034 0.0
O622 O 0.14708 0.56716 0.97743 0.0
C623 C 0.07459 0.50726 0.90496 0.0
C624 C 0.11332 0.63589 0.9302 0.0
C625 C 0.15348 0.66082 0.84994 0.0
N626 N 0.14076 0.60658 0.89002 0.0
C627 C 0.11851 0.60794 0.92939 0.0
C628 C 0.15799 0.63245 0.85036 0.0
C629 C 0.13099 0.66249 0.89021 0.0
C630 C 0.14465 0.46564 0.8298 0.0
N631 N 0.11884 0.45815 0.86906 0.0
C632 C 0.13886 0.44602 0.77885 0.0
C633 C 0.10628 0.4186 0.768 0.0
C634 C 0.08001 0.4112 0.808 0.0
C635 C 0.08679 0.4314 0.85848 0.0
C636 C 0.09376 0.39195 0.02148 0.0
C637 C 0.08166 0.44599 0.03075 0.0
C638 C 0.11046 0.42046 0.98468 0.0
N639 N 0.10399 0.44684 0.98913 0.0
C640 C 0.06447 0.41792 0.06828 0.0
C641 C 0.07056 0.39071 0.06344 0.0
C642 C 0.14378 0.54647 0.01855 0.0
C643 C 0.25123 0.60759 0.85534 0.0
C644 C 0.21132 0.62282 0.9279 0.0
C645 C 0.24686 0.64317 0.93007 0.0
C646 C 0.26689 0.63552 0.89334 0.0
N647 N 0.1961 0.59578 0.88983 0.0
C648 C 0.21561 0.58781 0.85444 0.0
Co649 Co 0.62209 0.13103 0.28804 0.0
Co650 Co 0.558 0.15113 0.26477 0.0
O651 O 0.60281 0.15608 0.24872 0.0
C652 C 0.67013 0.20393 0.31262 0.0
O653 O 0.64339 0.20754 0.3203 0.0
C654 C 0.55732 0.13447 0.1382 0.0
O655 O 0.57463 0.11958 0.15398 0.0
O656 O 0.53592 0.1003 0.26618 0.0
O657 O 0.5776 0.08701 0.27804 0.0
H658 H 0.44731 0.10905 0.37537 0.0
H659 H 0.65764 0.17612 0.18589 0.0
O660 O 0.66658 0.17499 0.29903 0.0
H661 H 0.63727 0.06246 0.12785 0.0
H662 H 0.71776 0.10853 0.33812 0.0
H663 H 0.59585 0.07019 0.36763 0.0
H664 H 0.61906 0.07152 0.22584 0.0
H665 H 0.69138 0.13813 0.28854 0.0
O666 O 0.54845 0.14892 0.17713 0.0
H667 H 0.50384 0.11553 0.35597 0.0
H668 H 0.51677 0.17786 0.20666 0.0
H669 H 0.62113 0.0399 0.41801 0.0
H670 H 0.67647 0.16832 0.08757 0.0
H671 H 0.68261 0.05903 0.40353 0.0
H672 H 0.66615 0.11108 0.05789 0.0
O673 O 0.60687 0.13787 0.36717 0.0
H674 H 0.63808 0.26869 0.18645 0.0
H675 H 0.55254 0.20254 0.33961 0.0
H676 H 0.57993 0.26527 0.33916 0.0
H677 H 0.62298 0.29879 0.26204 0.0
H678 H 0.61019 0.20595 0.18879 0.0
H679 H 0.46022 0.17192 0.2242 0.0
H680 H 0.42506 0.13736 0.30915 0.0
O681 O 0.5667 0.15291 0.35226 0.0
C682 C 0.54624 0.07875 0.27111 0.0
C683 C 0.4623 0.12402 0.338 0.0
C684 C 0.46953 0.15927 0.25316 0.0
N685 N 0.51351 0.14657 0.27973 0.0
C686 C 0.49435 0.12767 0.32668 0.0
C687 C 0.50146 0.16233 0.24321 0.0
C688 C 0.44984 0.13992 0.30086 0.0
C689 C 0.65333 0.15125 0.17346 0.0
N690 N 0.63728 0.12433 0.21152 0.0
C691 C 0.66395 0.14694 0.11767 0.0
C692 C 0.65813 0.11481 0.10103 0.0
C693 C 0.64193 0.08752 0.14025 0.0
C694 C 0.63168 0.09281 0.19567 0.0
C695 C 0.69102 0.10016 0.34531 0.0
C696 C 0.62262 0.07912 0.36174 0.0
C697 C 0.67595 0.11702 0.31771 0.0
N698 N 0.64217 0.10664 0.32648 0.0
C699 C 0.63681 0.06165 0.3901 0.0
C700 C 0.67129 0.07237 0.38191 0.0
C701 C 0.58563 0.14658 0.38599 0.0
C702 C 0.61912 0.25436 0.21994 0.0
C703 C 0.571 0.21691 0.30556 0.0
C704 C 0.58652 0.25245 0.30567 0.0
C705 C 0.6107 0.27124 0.26244 0.0
N706 N 0.57919 0.2005 0.26344 0.0
C707 C 0.60307 0.2188 0.22124 0.0
C708 C 0.4342 0.5884 0.29098 0.0
C709 C 0.42473 0.5556 0.26788 0.0
C710 C 0.42622 0.53559 0.36862 0.0
C711 C 0.43906 0.56925 0.39007 0.0
N712 N 0.45992 0.62893 0.37107 0.0
N713 N 0.41661 0.49912 0.28391 0.0
C714 C 0.44466 0.59605 0.35097 0.0
C715 C 0.42183 0.52939 0.30654 0.0
N716 N 0.431 0.61162 0.25692 0.0
N717 N 0.41827 0.50951 0.40757 0.0
H718 H 0.41333 0.49327 0.23899 0.0
H719 H 0.41839 0.48076 0.30898 0.0
H720 H 0.42285 0.51326 0.45297 0.0
H721 H 0.40496 0.48388 0.39558 0.0
H722 H 0.43397 0.63446 0.27327 0.0
H723 H 0.42168 0.60659 0.21389 0.0
H724 H 0.46875 0.64996 0.34307 0.0
H725 H 0.46601 0.63551 0.41542 0.0
C726 C 0.90469 0.45686 0.64256 0.0
C727 C 0.87793 0.42811 0.61425 0.0
C728 C 0.84742 0.40934 0.70841 0.0
C729 C 0.87625 0.43622 0.73787 0.0
N730 N 0.93683 0.47684 0.73299 0.0
N731 N 0.82687 0.37311 0.62149 0.0
C732 C 0.90628 0.4575 0.70496 0.0
C733 C 0.85031 0.40297 0.64764 0.0
N734 N 0.92819 0.48394 0.61023 0.0
N735 N 0.81677 0.39116 0.73667 0.0
H736 H 0.82795 0.36794 0.57679 0.0
H737 H 0.80823 0.35245 0.64529 0.0
H738 H 0.81268 0.39555 0.78017 0.0
H739 H 0.79436 0.37388 0.71497 0.0
H740 H 0.94671 0.50659 0.62972 0.0
H741 H 0.9266 0.48513 0.56432 0.0
H742 H 0.9598 0.49099 0.71022 0.0
H743 H 0.93981 0.47476 0.77829 0.0
C744 C 0.41159 0.84882 0.95709 0.0
C745 C 0.44375 0.8713 0.93085 0.0
C746 C 0.4655 0.89893 0.02695 0.0
C747 C 0.43239 0.8787 0.05128 0.0
N748 N 0.37253 0.8377 0.03837 0.0
N749 N 0.49979 0.92164 0.93869 0.0
C750 C 0.40492 0.85496 0.01578 0.0
C751 C 0.47036 0.89743 0.96519 0.0
N752 N 0.38835 0.82005 0.92781 0.0
N753 N 0.49248 0.91923 0.06296 0.0
H754 H 0.50487 0.92169 0.89375 0.0
H755 H 0.51812 0.94351 0.96029 0.0
H756 H 0.48986 0.92226 0.10805 0.0
H757 H 0.51785 0.93119 0.04909 0.0
H758 H 0.36601 0.80096 0.94713 0.0
H759 H 0.39304 0.81317 0.88643 0.0
H760 H 0.35095 0.8233 0.01235 0.0
H761 H 0.36681 0.83967 0.08236 0.0
C762 C 0.58163 0.41709 0.31978 0.0
C763 C 0.59329 0.44959 0.29332 0.0
C764 C 0.58701 0.47194 0.38852 0.0
C765 C 0.57088 0.43843 0.41197 0.0
N766 N 0.55052 0.37834 0.39984 0.0
N767 N 0.62434 0.51009 0.31293 0.0
C768 C 0.56751 0.41076 0.37759 0.0
C769 C 0.60091 0.47785 0.3305 0.0
N770 N 0.58762 0.39365 0.29256 0.0
N771 N 0.58799 0.49792 0.42095 0.0
H772 H 0.63964 0.51462 0.27577 0.0
H773 H 0.63273 0.53156 0.33965 0.0
H774 H 0.57812 0.49456 0.46375 0.0
H775 H 0.5958 0.52205 0.40359 0.0
H776 H 0.58201 0.37044 0.31151 0.0
H777 H 0.60322 0.39963 0.25543 0.0
H778 H 0.54351 0.35672 0.37415 0.0
H779 H 0.54104 0.37274 0.44292 0.0
C780 C 0.15895 0.58611 0.61251 0.0
C781 C 0.1331 0.56104 0.57645 0.0
C782 C 0.10576 0.52578 0.66368 0.0
C783 C 0.13426 0.54881 0.69906 0.0
N784 N 0.19215 0.59689 0.70129 0.0
N785 N 0.0842 0.50486 0.56507 0.0
C786 C 0.16199 0.57799 0.67195 0.0
C787 C 0.10728 0.53014 0.60121 0.0
N788 N 0.18033 0.61796 0.5904 0.0
N789 N 0.07638 0.50097 0.68934 0.0
H790 H 0.08377 0.5076 0.51924 0.0
H791 H 0.06727 0.48028 0.57998 0.0
H792 H 0.07296 0.49711 0.73474 0.0
H793 H 0.05383 0.48629 0.66581 0.0
H794 H 0.19735 0.63831 0.61675 0.0
H795 H 0.1786 0.62494 0.54708 0.0
H796 H 0.21402 0.61633 0.68129 0.0
H797 H 0.19676 0.59056 0.74303 0.0
C798 C 0.55066 0.16041 0.04259 0.0
C799 C 0.54585 0.13151 0.07557 0.0
C800 C 0.53103 0.09771 0.98441 0.0
C801 C 0.53536 0.12637 0.95197 0.0
N802 N 0.5371 0.18037 0.95255 0.0
N803 N 0.51883 0.07018 0.08015 0.0
C804 C 0.54139 0.15634 0.98181 0.0
C805 C 0.53217 0.09933 0.04711 0.0
N806 N 0.56544 0.19198 0.06789 0.0
N807 N 0.52682 0.06934 0.95553 0.0
H808 H 0.51665 0.07043 0.12609 0.0
H809 H 0.50615 0.04581 0.06177 0.0
H810 H 0.52568 0.06716 0.90952 0.0
H811 H 0.52714 0.04914 0.97713 0.0
H812 H 0.57318 0.21426 0.04362 0.0
H813 H 0.57232 0.19641 0.11217 0.0
H814 H 0.53835 0.2015 0.97337 0.0
H815 H 0.5281 0.17683 0.90912 0.0
C816 C 0.27475 0.49232 0.94495 0.0
C817 C 0.29342 0.50769 -0.00265 0.0
C818 C 0.24886 0.52006 0.02979 0.0
C819 C 0.23032 0.50503 0.9769 0.0
N820 N 0.22048 0.46736 0.89409 0.0
N821 N 0.29503 0.52878 0.09583 0.0
C822 C 0.24155 0.48805 0.9377 0.0
C823 C 0.27953 0.51947 0.04162 0.0
N824 N 0.2894 0.48345 0.90054 0.0
N825 N 0.23686 0.53461 0.06899 0.0
H826 H 0.31695 0.5277 0.10637 0.0
H827 H 0.2848 0.53476 0.13206 0.0
H828 H 0.21246 0.5316 0.0658 0.0
H829 H 0.2512 0.55025 0.10387 0.0
H830 H 0.27888 0.47633 0.85836 0.0
H831 H 0.31351 0.48581 0.90396 0.0
H832 H 0.22606 0.45178 0.86805 0.0
H833 H 0.19568 0.46254 0.88835 0.0
C834 C 0.75117 0.28993 0.29258 0.0
C835 C 0.7685 0.29217 0.34655 0.0
C836 C 0.72213 0.23544 0.37604 0.0
C837 C 0.70464 0.23351 0.32277 0.0
N838 N 0.70264 0.2563 0.22756 0.0
N839 N 0.77416 0.26438 0.43367 0.0
C840 C 0.7192 0.26011 0.28023 0.0
C841 C 0.75516 0.26403 0.38632 0.0
N842 N 0.76586 0.31617 0.25272 0.0
N843 N 0.70629 0.21071 0.4183 0.0
H844 H 0.7978 0.28511 0.44412 0.0
H845 H 0.76788 0.24321 0.4601 0.0
H846 H 0.68236 0.18909 0.41216 0.0
H847 H 0.71552 0.21259 0.46117 0.0
H848 H 0.75369 0.31857 0.21549 0.0
H849 H 0.79099 0.33608 0.25671 0.0
H850 H 0.71221 0.27339 0.19247 0.0
H851 H 0.67921 0.23488 0.21753 0.0
C852 C 0.48093 0.76411 0.60391 0.0
C853 C 0.49688 0.78342 0.65568 0.0
C854 C 0.51252 0.741 0.68661 0.0
C855 C 0.49522 0.721 0.63643 0.0
N856 N 0.46843 0.71532 0.54174 0.0
N857 N 0.53705 0.79579 0.73551 0.0
C858 C 0.48104 0.73314 0.5933 0.0
C859 C 0.51569 0.77369 0.69359 0.0
N860 N 0.46601 0.7758 0.56473 0.0
N861 N 0.52438 0.72799 0.72922 0.0
H862 H 0.54102 0.82028 0.74072 0.0
H863 H 0.55382 0.79143 0.76064 0.0
H864 H 0.52312 0.70442 0.72532 0.0
H865 H 0.53322 0.73931 0.77042 0.0
H866 H 0.45025 0.76156 0.52996 0.0
H867 H 0.46942 0.80034 0.56727 0.0
H868 H 0.45985 0.72356 0.50613 0.0
H869 H 0.46835 0.69268 0.53279 0.0
C870 C 0.74298 0.50961 0.96968 0.0
C871 C 0.72417 0.49403 0.02189 0.0
C872 C 0.76996 0.48427 0.05724 0.0
C873 C 0.78794 0.49799 0.00341 0.0
N874 N 0.79683 0.53306 0.91716 0.0
N875 N 0.72298 0.47492 0.12167 0.0
C876 C 0.77622 0.5138 0.96249 0.0
C877 C 0.73868 0.48386 0.06765 0.0
N878 N 0.72842 0.51888 0.92567 0.0
N879 N 0.78299 0.47164 0.09837 0.0
H880 H 0.70055 0.47531 0.13085 0.0
H881 H 0.73331 0.46985 0.15885 0.0
H882 H 0.80771 0.47543 0.09551 0.0
H883 H 0.76935 0.45698 0.13463 0.0
H884 H 0.73863 0.52596 0.88332 0.0
H885 H 0.70487 0.51766 0.93025 0.0
H886 H 0.79109 0.54781 0.88922 0.0
H887 H 0.82143 0.53734 0.91103 0.0
C888 C 0.23437 0.72353 0.26403 0.0
C889 C 0.22797 0.70736 0.32007 0.0
C890 C 0.28056 0.75579 0.35909 0.0
C891 C 0.28898 0.76993 0.30135 0.0
N892 N 0.27692 0.76431 0.19673 0.0
N893 N 0.24699 0.70549 0.41912 0.0
C894 C 0.26658 0.75318 0.2532 0.0
C895 C 0.2516 0.72279 0.3672 0.0
N896 N 0.20981 0.71037 0.22103 0.0
N897 N 0.29991 0.7742 0.40635 0.0
H898 H 0.22587 0.68153 0.42708 0.0
H899 H 0.26533 0.71364 0.45248 0.0
H900 H 0.32119 0.79854 0.40206 0.0
H901 H 0.29319 0.76675 0.45019 0.0
H902 H 0.21158 0.72293 0.1814 0.0
H903 H 0.1863 0.68818 0.22696 0.0
H904 H 0.26322 0.75121 0.15926 0.0
H905 H 0.30093 0.78491 0.1871 0.0
C906 C 0.5263 0.25651 0.73342 0.0
C907 C 0.51293 0.23119 0.68885 0.0
C908 C 0.49294 0.26474 0.63418 0.0
C909 C 0.51196 0.29284 0.673 0.0
N910 N 0.54942 0.31578 0.75835 0.0
N911 N 0.48745 0.21299 0.59219 0.0
C912 C 0.5294 0.28881 0.72229 0.0
C913 C 0.49696 0.23556 0.63821 0.0
N914 N 0.53491 0.24927 0.78737 0.0
N915 N 0.47111 0.2656 0.59328 0.0
H916 H 0.49051 0.19163 0.5926 0.0
H917 H 0.47951 0.21716 0.55128 0.0
H918 H 0.46685 0.28597 0.58843 0.0
H919 H 0.45429 0.24443 0.56834 0.0
H920 H 0.54162 0.26555 0.82369 0.0
H921 H 0.53167 0.22537 0.79783 0.0
H922 H 0.56608 0.31519 0.78963 0.0
H923 H 0.55126 0.33954 0.75492 0.0
C924 C 0.49053 0.49066 0.01056 0.0
C925 C 0.47804 0.50006 0.06071 0.0
C926 C 0.51956 0.49478 0.12381 0.0
C927 C 0.53043 0.48336 0.07441 0.0
N928 N 0.52118 0.46322 0.97357 0.0
N929 N 0.47502 0.50272 0.1671 0.0
C930 C 0.51431 0.47907 0.01864 0.0
C931 C 0.49095 0.4997 0.11799 0.0
N932 N 0.48117 0.49445 0.95486 0.0
N933 N 0.53729 0.50215 0.1758 0.0
H934 H 0.45334 0.50522 0.16468 0.0
H935 H 0.48107 0.49922 0.21008 0.0
H936 H 0.55832 0.49887 0.1816 0.0
H937 H 0.53299 0.51423 0.21127 0.0
H938 H 0.49254 0.49192 0.91655 0.0
H939 H 0.46421 0.50317 0.94688 0.0
H940 H 0.50751 0.45599 0.934 0.0
H941 H 0.53843 0.45438 0.97774 0.0
C942 C 0.98961 0.48782 0.44982 0.0
C943 C 0.97422 0.46214 0.40598 0.0
C944 C 0.02685 0.49174 0.34689 0.0
C945 C 0.04008 0.51966 0.38706 0.0
N946 N 0.03243 0.5454 0.47498 0.0
N947 N 0.98642 0.43213 0.3301 0.0
C948 C 0.021 0.51801 0.43801 0.0
C949 C 0.99495 0.46185 0.35886 0.0
N950 N 0.97596 0.48149 0.50532 0.0
N951 N 0.04455 0.49401 0.2965 0.0
H952 H 0.96803 0.40854 0.34622 0.0
H953 H 1.00131 0.42979 0.29735 0.0
H954 H 0.06872 0.51453 0.28784 0.0
H955 H 0.03433 0.47697 0.26132 0.0
H956 H 0.98785 0.4974 0.54141 0.0
H957 H 0.95534 0.45782 0.51681 0.0
H958 H 0.01763 0.54701 0.5088 0.0
H959 H 0.05552 0.56774 0.46869 0.0
C960 C 0.48825 0.01405 0.7786 0.0
C961 C 0.50227 0.03672 0.73017 0.0
C962 C 0.50544 0.99234 0.67253 0.0
C963 C 0.49209 0.96958 0.72165 0.0
N964 N 0.47852 0.96202 0.82601 0.0
N965 N 0.51782 0.04578 0.62718 0.0
C966 C 0.48541 0.9813 0.77587 0.0
C967 C 0.50916 0.0254 0.67617 0.0
N968 N 0.47564 0.02308 0.82588 0.0
N969 N 0.51596 0.98311 0.6229 0.0
H970 H 0.52269 0.07077 0.62851 0.0
H971 H 0.51784 0.03741 0.58429 0.0
H972 H 0.51181 0.95881 0.61623 0.0
H973 H 0.53081 1.0 0.58973 0.0
H974 H 0.46174 0.0065 0.86007 0.0
H975 H 0.47581 0.04616 0.82763 0.0
H976 H 0.47732 0.97069 0.86813 0.0
H977 H 0.47757 0.93858 0.82674 0.0
C978 C 0.49755 0.51645 0.54361 0.0
C979 C 0.49722 0.53401 0.59535 0.0
C980 C 0.5117 0.49783 0.65549 0.0
C981 C 0.50937 0.47875 0.60414 0.0
N982 N 0.49135 0.46427 0.5028 0.0
N983 N 0.49696 0.53702 0.70205 0.0
C984 C 0.49969 0.48637 0.54916 0.0
C985 C 0.50242 0.52355 0.65185 0.0
N986 N 0.49697 0.52911 0.48907 0.0
N987 N 0.52295 0.4915 0.70758 0.0
H988 H 0.48955 0.55545 0.70119 0.0
H989 H 0.49687 0.52789 0.74443 0.0
H990 H 0.52825 0.47169 0.71262 0.0
H991 H 0.52903 0.50715 0.74467 0.0
H992 H 0.50039 0.51917 0.44974 0.0
H993 H 0.4968 0.55181 0.4836 0.0
H994 H 0.48113 0.46695 0.46315 0.0
H995 H 0.49083 0.4411 0.50664 0.0
C996 C 0.01342 0.47229 0.94448 0.0
C997 C 0.03701 0.49677 0.90378 0.0
C998 C 0.99309 0.51215 0.87754 0.0
C999 C 0.97199 0.49101 0.92409 0.0
N1000 N 0.96618 0.45732 0.01056 0.0
N1001 N 0.04365 0.53056 0.81677 0.0
C1002 C 0.98348 0.4731 0.96007 0.0
C1003 C 0.0254 0.51449 0.86648 0.0
N1004 N 0.01721 0.4458 0.96385 0.0
N1005 N 0.9822 0.52993 0.84376 0.0
H1006 H 0.06499 0.52927 0.80332 0.0
H1007 H 0.03595 0.54191 0.7849 0.0
H1008 H 0.95738 0.52566 0.84567 0.0
H1009 H 0.99773 0.54958 0.81501 0.0
H1010 H 0.99941 0.42631 0.99077 0.0
H1011 H 0.03393 0.43933 0.94433 0.0
H1012 H 0.97569 0.44738 0.04212 0.0
H1013 H 0.94421 0.45744 0.02387 0.0
C1014 C 0.48828 0.98799 0.2159 0.0
C1015 C 0.46703 0.97202 0.26591 0.0
C1016 C 0.49584 0.02765 0.31717 0.0
C1017 C 0.51979 0.04184 0.2702 0.0
N1018 N 0.54186 0.03342 0.17843 0.0
N1019 N 0.45412 0.97713 0.36819 0.0
C1020 C 0.51711 0.02127 0.22098 0.0
C1021 C 0.47151 0.99208 0.31746 0.0
N1022 N 0.47947 0.97245 0.16192 0.0
N1023 N 0.49646 0.04808 0.36221 0.0
H1024 H 0.43618 0.95154 0.37101 0.0
H1025 H 0.45963 0.98938 0.40908 0.0
H1026 H 0.51573 0.07332 0.36685 0.0
H1027 H 0.47683 0.04062 0.39298 0.0
H1028 H 0.49206 0.98419 0.12278 0.0
H1029 H 0.45683 0.94972 0.15518 0.0
H1030 H 0.54327 0.01803 0.14552 0.0
H1031 H 0.56222 0.05832 0.17818 0.0
C1032 C 0.47715 0.59888 0.80973 0.0
C1033 C 0.45256 0.59735 0.76881 0.0
C1034 C 0.40805 0.57019 0.84496 0.0
C1035 C 0.4317 0.56684 0.88221 0.0
N1036 N 0.4875 0.57258 0.89384 0.0
N1037 N 0.40003 0.59769 0.75902 0.0
C1038 C 0.46592 0.57982 0.86293 0.0
C1039 C 0.4193 0.5873 0.78957 0.0
N1040 N 0.51114 0.62112 0.80144 0.0
N1041 N 0.37473 0.55658 0.86167 0.0
H1042 H 0.41004 0.61426 0.72304 0.0
H1043 H 0.37653 0.59404 0.77332 0.0
H1044 H 0.36571 0.54546 0.9027 0.0
H1045 H 0.35545 0.55423 0.83341 0.0
H1046 H 0.52982 0.62441 0.83205 0.0
H1047 H 0.52008 0.64083 0.77072 0.0
H1048 H 0.51138 0.57804 0.87797 0.0
H1049 H 0.48009 0.55783 0.93207 0.0
C1050 C 0.89975 0.45013 0.20844 0.0
C1051 C 0.86772 0.42909 0.23584 0.0
C1052 C 0.83789 0.42659 0.14385 0.0
C1053 C 0.8699 0.44845 0.11646 0.0
N1054 N 0.93107 0.48483 0.12454 0.0
N1055 N 0.80648 0.40318 0.2351 0.0
C1056 C 0.90075 0.46151 0.14949 0.0
C1057 C 0.8368 0.41895 0.2051 0.0
N1058 N 0.92928 0.4583 0.23824 0.0
N1059 N 0.8085 0.41282 0.11124 0.0
H1060 H 0.80486 0.39715 0.27994 0.0
H1061 H 0.78331 0.3985 0.21711 0.0
H1062 H 0.80778 0.41982 0.06766 0.0
H1063 H 0.78508 0.39325 0.12631 0.0
H1064 H 0.95332 0.46968 0.2186 0.0
H1065 H 0.92969 0.4518 0.28237 0.0
H1066 H 0.9537 0.49878 0.14815 0.0
H1067 H 0.93333 0.49172 0.08028 0.0
C1068 C 0.44569 0.88903 0.51954 0.0
C1069 C 0.43529 0.85802 0.54949 0.0
C1070 C 0.4063 0.8264 0.45961 0.0
C1071 C 0.42056 0.85786 0.42848 0.0
N1072 N 0.46186 0.91807 0.42607 0.0
N1073 N 0.40586 0.79666 0.54984 0.0
C1074 C 0.44269 0.88886 0.45757 0.0
C1075 C 0.41544 0.82639 0.52013 0.0
N1076 N 0.45664 0.91852 0.55066 0.0
N1077 N 0.3844 0.79677 0.43121 0.0
H1078 H 0.41117 0.79611 0.59462 0.0
H1079 H 0.39418 0.77274 0.52992 0.0
H1080 H 0.37949 0.7959 0.38603 0.0
H1081 H 0.37022 0.77338 0.45241 0.0
H1082 H 0.46171 0.94142 0.53091 0.0
H1083 H 0.45637 0.9189 0.59678 0.0
H1084 H 0.48083 0.94054 0.44536 0.0
H1085 H 0.46132 0.91886 0.38006 0.0
C1086 C 0.58806 0.44909 0.81157 0.0
C1087 C 0.55846 0.41918 0.79222 0.0
C1088 C 0.55189 0.39735 0.89464 0.0
C1089 C 0.58389 0.42641 0.9104 0.0
N1090 N 0.63865 0.46823 0.86989 0.0
N1091 N 0.51608 0.36019 0.8168 0.0
C1092 C 0.60412 0.44828 0.86418 0.0
C1093 C 0.54119 0.39193 0.83403 0.0
N1094 N 0.5995 0.47926 0.78279 0.0
N1095 N 0.53176 0.37412 0.93614 0.0
H1096 H 0.50768 0.35302 0.77374 0.0
H1097 H 0.50595 0.33907 0.84479 0.0
H1098 H 0.54123 0.37014 0.97525 0.0
H1099 H 0.50568 0.35755 0.92981 0.0
H1100 H 0.62054 0.5019 0.79751 0.0
H1101 H 0.58424 0.48225 0.75165 0.0
H1102 H 0.65397 0.48381 0.83555 0.0
H1103 H 0.65184 0.46528 0.90524 0.0
C1104 C 0.17512 0.57721 0.11041 0.0
C1105 C 0.14384 0.55757 0.07994 0.0
C1106 C 0.11207 0.55997 0.16589 0.0
C1107 C 0.14305 0.57645 0.19888 0.0
N1108 N 0.20411 0.59954 0.20372 0.0
N1109 N 0.08236 0.52936 0.0771 0.0
C1110 C 0.1746 0.5847 0.17142 0.0
C1111 C 0.11227 0.54884 0.10719 0.0
N1112 N 0.20531 0.58965 0.08041 0.0
N1113 N 0.0824 0.55519 0.19046 0.0
H1114 H 0.08149 0.52288 0.0326 0.0
H1115 H 0.05829 0.518 0.09661 0.0
H1116 H 0.08059 0.56048 0.2345 0.0
H1117 H 0.05996 0.54769 0.16684 0.0
H1118 H 0.22896 0.60726 0.09797 0.0
H1119 H 0.20654 0.58434 0.0359 0.0
H1120 H 0.22705 0.60195 0.18898 0.0
H1121 H 0.20534 0.60802 0.24686 0.0
C1122 C 0.57853 0.12459 0.54981 0.0
C1123 C 0.57436 0.15083 0.57545 0.0
C1124 C 0.5859 0.17871 0.47791 0.0
C1125 C 0.58237 0.14868 0.45126 0.0
N1126 N 0.56803 0.08994 0.46319 0.0
N1127 N 0.57641 0.20474 0.56404 0.0
C1128 C 0.57698 0.12086 0.48759 0.0
C1129 C 0.57867 0.17845 0.53935 0.0
N1130 N 0.5846 0.10346 0.58417 0.0
N1131 N 0.59782 0.20793 0.44545 0.0
H1132 H 0.57612 0.20764 0.60965 0.0
H1133 H 0.57431 0.22308 0.5394 0.0
H1134 H 0.605 0.20945 0.40133 0.0
H1135 H 0.60387 0.23144 0.46357 0.0
H1136 H 0.59077 0.0859 0.56667 0.0
H1137 H 0.58724 0.10615 0.62966 0.0
H1138 H 0.56072 0.06805 0.48842 0.0
H1139 H 0.56376 0.08526 0.4181 0.0
loop_
_geom_bond_atom_site_label_1
_geom_bond_atom_site_label_2
_geom_bond_distance
_geom_bond_site_symmetry_2
_ccdc_geom_bond_type
Co0 O2 2.143 . S
Co0 O8 2.074 . S
Co0 O11 2.093 . S
Co0 O24 2.097 1_554 S
Co0 N41 2.151 . S
Co0 N49 2.214 1_554 S
Co1 O2 2.160 . S
Co1 O7 2.058 . S
Co1 O17 2.057 . S
Co1 O32 2.037 1_554 S
Co1 N36 2.145 . S
Co1 N57 2.257 . S
O2 Co0 2.143 . S
O2 Co1 2.160 . S
C3 O4 1.278 . S
C3 O11 1.224 . S
O4 C3 1.278 . S
C5 O6 1.245 . S
C5 O17 1.232 . S
O6 C5 1.245 . S
O7 Co1 2.058 . S
O7 C33 1.269 . S
O8 Co0 2.074 . S
O8 C33 1.257 . S
H9 C34 0.945 . S
H10 C40 0.930 . S
O11 Co0 2.093 . S
O11 C3 1.224 . S
H12 C44 0.929 . S
H13 C46 0.930 . S
H14 C47 0.930 . S
H15 C45 0.929 . S
H16 C48 0.928 . S
O17 Co1 2.057 . S
O17 C5 1.232 . S
H18 C37 0.929 1_556 S
H19 C38 0.929 . S
H20 C50 0.931 . S
H21 C42 0.929 . S
H22 C51 0.930 . S
H23 C43 0.931 . S
O24 Co0 2.097 1_556 S
O24 C52 1.214 . S
H25 C53 0.929 . S
H26 C54 0.929 1_556 S
H27 C55 0.930 1_556 S
H28 C56 0.929 . S
H29 C58 0.930 . S
H30 C35 0.930 . S
H31 C39 0.930 . S
O32 Co1 2.037 1_556 S
O32 C52 1.234 . S
C33 O7 1.269 . S
C33 O8 1.257 . S
C34 H9 0.945 . S
C34 C37 1.388 . S
C34 C39 1.418 . S
C35 H30 0.930 . S
C35 C38 1.404 . S
C35 C39 1.353 . S
N36 Co1 2.145 . S
N36 C37 1.397 . S
N36 C38 1.334 . S
C37 H18 0.929 1_554 S
C37 C34 1.388 . S
C37 N36 1.397 . S
C38 H19 0.929 . S
C38 C35 1.404 . S
C38 N36 1.334 . S
C39 H31 0.930 . S
C39 C34 1.418 . S
C39 C35 1.353 . S
C40 H10 0.930 . S
C40 N41 1.330 . S
C40 C42 1.446 . S
N41 Co0 2.151 . S
N41 C40 1.330 . S
N41 C45 1.418 . S
C42 H21 0.929 . S
C42 C40 1.446 . S
C42 C43 1.332 . S
C43 H23 0.931 . S
C43 C42 1.332 . S
C43 C44 1.267 . S
C44 H12 0.929 . S
C44 C43 1.267 . S
C44 C45 1.251 . S
C45 H15 0.929 . S
C45 N41 1.418 . S
C45 C44 1.251 . S
C46 H13 0.930 . S
C46 C48 1.406 . S
C46 C51 1.261 . S
C47 H14 0.930 . S
C47 N49 1.325 . S
C47 C50 1.357 . S
C48 H16 0.928 . S
C48 C46 1.406 . S
C48 N49 1.261 . S
N49 Co0 2.214 1_556 S
N49 C47 1.325 . S
N49 C48 1.261 . S
C50 H20 0.931 . S
C50 C47 1.357 . S
C50 C51 1.312 . S
C51 H22 0.930 . S
C51 C46 1.261 . S
C51 C50 1.312 . S
C52 O24 1.214 . S
C52 O32 1.234 . S
C53 H25 0.929 . S
C53 C56 1.391 . S
C53 C58 1.391 . S
C54 H26 0.929 1_554 S
C54 C55 1.390 . S
C54 N57 1.391 . S
C55 H27 0.930 1_554 S
C55 C54 1.390 . S
C55 C56 1.392 . S
C56 H28 0.929 . S
C56 C53 1.391 . S
C56 C55 1.392 . S
N57 Co1 2.257 . S
N57 C54 1.391 . S
N57 C58 1.388 . S
C58 H29 0.930 . S
C58 C53 1.391 . S
C58 N57 1.388 . S
Co59 O61 2.143 . S
Co59 O67 2.074 . S
Co59 O70 2.093 . S
Co59 O83 2.097 . S
Co59 N100 2.151 . S
Co59 N108 2.214 . S
Co60 O61 2.160 . S
Co60 O66 2.058 . S
Co60 O76 2.057 . S
Co60 O91 2.037 . S
Co60 N95 2.145 . S
Co60 N116 2.257 . S
O61 Co59 2.143 . S
O61 Co60 2.160 . S
C62 O63 1.278 . S
C62 O70 1.224 . S
O63 C62 1.278 . S
C64 O65 1.245 . S
C64 O76 1.232 . S
O65 C64 1.245 . S
O66 Co60 2.058 . S
O66 C92 1.269 . S
O67 Co59 2.074 . S
O67 C92 1.257 . S
H68 C93 0.930 . S
H69 C99 0.930 . S
O70 Co59 2.093 . S
O70 C62 1.224 . S
H71 C103 0.929 . S
H72 C105 0.930 . S
H73 C106 0.930 . S
H74 C104 0.929 . S
H75 C107 0.928 . S
O76 Co60 2.057 . S
O76 C64 1.232 . S
H77 C96 0.929 . S
H78 C97 0.929 . S
H79 C109 0.931 . S
H80 C101 0.929 . S
H81 C110 0.930 . S
H82 C102 0.931 . S
O83 Co59 2.097 . S
O83 C111 1.214 . S
H84 C112 0.929 . S
H85 C113 0.929 . S
H86 C114 0.930 . S
H87 C115 0.929 . S
H88 C117 0.930 . S
H89 C94 0.930 . S
H90 C98 0.930 . S
O91 Co60 2.037 . S
O91 C111 1.234 . S
C92 O66 1.269 . S
C92 O67 1.257 . S
C93 H68 0.930 . S
C93 C96 1.388 . S
C93 C98 1.418 . S
C94 H89 0.930 . S
C94 C97 1.404 . S
C94 C98 1.353 . S
N95 Co60 2.145 . S
N95 C96 1.397 . S
N95 C97 1.334 . S
C96 H77 0.929 . S
C96 C93 1.388 . S
C96 N95 1.397 . S
C97 H78 0.929 . S
C97 C94 1.404 . S
C97 N95 1.334 . S
C98 H90 0.930 . S
C98 C93 1.418 . S
C98 C94 1.353 . S
C99 H69 0.930 . S
C99 N100 1.330 . S
C99 C101 1.446 . S
N100 Co59 2.151 . S
N100 C99 1.330 . S
N100 C104 1.418 . S
C101 H80 0.929 . S
C101 C99 1.446 . S
C101 C102 1.332 . S
C102 H82 0.931 . S
C102 C101 1.332 . S
C102 C103 1.267 . S
C103 H71 0.929 . S
C103 C102 1.267 . S
C103 C104 1.251 . S
C104 H74 0.929 . S
C104 N100 1.418 . S
C104 C103 1.251 . S
C105 H72 0.930 . S
C105 C107 1.406 . S
C105 C110 1.261 . S
C106 H73 0.930 . S
C106 N108 1.325 . S
C106 C109 1.357 . S
C107 H75 0.928 . S
C107 C105 1.406 . S
C107 N108 1.261 . S
N108 Co59 2.214 . S
N108 C106 1.325 . S
N108 C107 1.261 . S
C109 H79 0.931 . S
C109 C106 1.357 . S
C109 C110 1.312 . S
C110 H81 0.930 . S
C110 C105 1.261 . S
C110 C109 1.312 . S
C111 O83 1.214 . S
C111 O91 1.234 . S
C112 H84 0.929 . S
C112 C115 1.391 . S
C112 C117 1.391 . S
C113 H85 0.929 . S
C113 C114 1.390 . S
C113 N116 1.391 . S
C114 H86 0.930 . S
C114 C113 1.390 . S
C114 C115 1.392 . S
C115 H87 0.929 . S
C115 C112 1.391 . S
C115 C114 1.392 . S
N116 Co60 2.257 . S
N116 C113 1.391 . S
N116 C117 1.388 . S
C117 H88 0.930 . S
C117 C112 1.391 . S
C117 N116 1.388 . S
Co118 O120 2.143 . S
Co118 O126 2.074 . S
Co118 O129 2.093 . S
Co118 O142 2.097 . S
Co118 N159 2.151 . S
Co118 N167 2.214 . S
Co119 O120 2.160 . S
Co119 O125 2.058 . S
Co119 O135 2.057 . S
Co119 O150 2.037 . S
Co119 N154 2.145 . S
Co119 N175 2.257 . S
O120 Co118 2.143 . S
O120 Co119 2.160 . S
C121 O122 1.278 . S
C121 O129 1.224 . S
O122 C121 1.278 . S
C123 O124 1.245 . S
C123 O135 1.232 . S
O124 C123 1.245 . S
O125 Co119 2.058 . S
O125 C151 1.269 . S
O126 Co118 2.074 . S
O126 C151 1.257 . S
H127 C152 0.930 . S
H128 C158 0.930 . S
O129 Co118 2.093 . S
O129 C121 1.224 . S
H130 C162 0.929 . S
H131 C164 0.930 . S
H132 C165 0.930 . S
H133 C163 0.929 . S
H134 C166 0.928 . S
O135 Co119 2.057 . S
O135 C123 1.232 . S
H136 C155 0.929 . S
H137 C156 0.929 . S
H138 C168 0.931 . S
H139 C160 0.929 . S
H140 C169 0.930 . S
H141 C161 0.931 . S
O142 Co118 2.097 . S
O142 C170 1.214 . S
H143 C171 0.929 . S
H144 C172 0.929 . S
H145 C173 0.930 . S
H146 C174 0.929 . S
H147 C176 0.930 . S
H148 C153 0.930 . S
H149 C157 0.930 . S
O150 Co119 2.037 . S
O150 C170 1.234 . S
C151 O125 1.269 . S
C151 O126 1.257 . S
C152 H127 0.930 . S
C152 C155 1.388 . S
C152 C157 1.418 . S
C153 H148 0.930 . S
C153 C156 1.404 . S
C153 C157 1.353 . S
N154 Co119 2.145 . S
N154 C155 1.397 . S
N154 C156 1.334 . S
C155 H136 0.929 . S
C155 C152 1.388 . S
C155 N154 1.397 . S
C156 H137 0.929 . S
C156 C153 1.404 . S
C156 N154 1.334 . S
C157 H149 0.930 . S
C157 C152 1.418 . S
C157 C153 1.353 . S
C158 H128 0.930 . S
C158 N159 1.330 . S
C158 C160 1.446 . S
N159 Co118 2.151 . S
N159 C158 1.330 . S
N159 C163 1.418 . S
C160 H139 0.929 . S
C160 C158 1.446 . S
C160 C161 1.332 . S
C161 H141 0.931 . S
C161 C160 1.332 . S
C161 C162 1.267 . S
C162 H130 0.929 . S
C162 C161 1.267 . S
C162 C163 1.251 . S
C163 H133 0.929 . S
C163 N159 1.418 . S
C163 C162 1.251 . S
C164 H131 0.930 . S
C164 C166 1.406 . S
C164 C169 1.261 . S
C165 H132 0.930 . S
C165 N167 1.325 . S
C165 C168 1.357 . S
C166 H134 0.928 . S
C166 C164 1.406 . S
C166 N167 1.261 . S
N167 Co118 2.214 . S
N167 C165 1.325 . S
N167 C166 1.261 . S
C168 H138 0.931 . S
C168 C165 1.357 . S
C168 C169 1.312 . S
C169 H140 0.930 . S
C169 C164 1.261 . S
C169 C168 1.312 . S
C170 O142 1.214 . S
C170 O150 1.234 . S
C171 H143 0.929 . S
C171 C174 1.391 . S
C171 C176 1.391 . S
C172 H144 0.929 . S
C172 C173 1.390 . S
C172 N175 1.391 . S
C173 H145 0.930 . S
C173 C172 1.390 . S
C173 C174 1.392 . S
C174 H146 0.929 . S
C174 C171 1.391 . S
C174 C173 1.392 . S
N175 Co119 2.257 . S
N175 C172 1.391 . S
N175 C176 1.388 . S
C176 H147 0.930 . S
C176 C171 1.391 . S
C176 N175 1.388 . S
Co177 O179 2.143 . S
Co177 O185 2.074 . S
Co177 O188 2.093 . S
Co177 O201 2.097 1_554 S
Co177 N218 2.151 . S
Co177 N226 2.214 1_554 S
Co178 O179 2.160 . S
Co178 O184 2.058 . S
Co178 O194 2.057 . S
Co178 O209 2.037 1_554 S
Co178 N213 2.145 . S
Co178 N234 2.257 . S
O179 Co177 2.143 . S
O179 Co178 2.160 . S
C180 O181 1.278 . S
C180 O188 1.224 . S
O181 C180 1.278 . S
C182 O183 1.245 . S
C182 O194 1.232 . S
O183 C182 1.245 . S
O184 Co178 2.058 . S
O184 C210 1.269 . S
O185 Co177 2.074 . S
O185 C210 1.257 . S
H186 C211 0.945 . S
H187 C217 0.930 . S
O188 Co177 2.093 . S
O188 C180 1.224 . S
H189 C221 0.929 . S
H190 C223 0.930 . S
H191 C224 0.930 . S
H192 C222 0.929 . S
H193 C225 0.928 . S
O194 Co178 2.057 . S
O194 C182 1.232 . S
H195 C214 0.929 1_556 S
H196 C215 0.929 . S
H197 C227 0.931 . S
H198 C219 0.929 . S
H199 C228 0.930 . S
H200 C220 0.931 . S
O201 Co177 2.097 1_556 S
O201 C229 1.214 . S
H202 C230 0.929 . S
H203 C231 0.929 1_556 S
H204 C232 0.930 1_556 S
H205 C233 0.929 . S
H206 C235 0.930 . S
H207 C212 0.930 . S
H208 C216 0.930 . S
O209 Co178 2.037 1_556 S
O209 C229 1.234 . S
C210 O184 1.269 . S
C210 O185 1.257 . S
C211 H186 0.945 . S
C211 C214 1.388 . S
C211 C216 1.418 . S
C212 H207 0.930 . S
C212 C215 1.404 . S
C212 C216 1.353 . S
N213 Co178 2.145 . S
N213 C214 1.397 . S
N213 C215 1.334 . S
C214 H195 0.929 1_554 S
C214 C211 1.388 . S
C214 N213 1.397 . S
C215 H196 0.929 . S
C215 C212 1.404 . S
C215 N213 1.334 . S
C216 H208 0.930 . S
C216 C211 1.418 . S
C216 C212 1.353 . S
C217 H187 0.930 . S
C217 N218 1.330 . S
C217 C219 1.446 . S
N218 Co177 2.151 . S
N218 C217 1.330 . S
N218 C222 1.418 . S
C219 H198 0.929 . S
C219 C217 1.446 . S
C219 C220 1.332 . S
C220 H200 0.931 . S
C220 C219 1.332 . S
C220 C221 1.267 . S
C221 H189 0.929 . S
C221 C220 1.267 . S
C221 C222 1.251 . S
C222 H192 0.929 . S
C222 N218 1.418 . S
C222 C221 1.251 . S
C223 H190 0.930 . S
C223 C225 1.406 . S
C223 C228 1.261 . S
C224 H191 0.930 . S
C224 N226 1.325 . S
C224 C227 1.357 . S
C225 H193 0.928 . S
C225 C223 1.406 . S
C225 N226 1.261 . S
N226 Co177 2.214 1_556 S
N226 C224 1.325 . S
N226 C225 1.261 . S
C227 H197 0.931 . S
C227 C224 1.357 . S
C227 C228 1.312 . S
C228 H199 0.930 . S
C228 C223 1.261 . S
C228 C227 1.312 . S
C229 O201 1.214 . S
C229 O209 1.234 . S
C230 H202 0.929 . S
C230 C233 1.391 . S
C230 C235 1.391 . S
C231 H203 0.929 1_554 S
C231 C232 1.390 . S
C231 N234 1.391 . S
C232 H204 0.930 1_554 S
C232 C231 1.390 . S
C232 C233 1.392 . S
C233 H205 0.929 . S
C233 C230 1.391 . S
C233 C232 1.392 . S
N234 Co178 2.257 . S
N234 C231 1.391 . S
N234 C235 1.388 . S
C235 H206 0.930 . S
C235 C230 1.391 . S
C235 N234 1.388 . S
Co236 O238 2.143 . S
Co236 O244 2.074 . S
Co236 O247 2.093 . S
Co236 O260 2.097 . S
Co236 N277 2.151 . S
Co236 N285 2.214 . S
Co237 O238 2.160 . S
Co237 O243 2.058 . S
Co237 O253 2.057 . S
Co237 O268 2.037 . S
Co237 N272 2.145 . S
Co237 N293 2.257 . S
O238 Co236 2.143 . S
O238 Co237 2.160 . S
C239 O240 1.278 . S
C239 O247 1.224 . S
O240 C239 1.278 . S
C241 O242 1.245 . S
C241 O253 1.232 . S
O242 C241 1.245 . S
O243 Co237 2.058 . S
O243 C269 1.269 . S
O244 Co236 2.074 . S
O244 C269 1.257 . S
H245 C270 0.930 . S
H246 C276 0.930 . S
O247 Co236 2.093 . S
O247 C239 1.224 . S
H248 C280 0.929 . S
H249 C282 0.930 . S
H250 C283 0.930 . S
H251 C281 0.929 . S
H252 C284 0.928 . S
O253 Co237 2.057 . S
O253 C241 1.232 . S
H254 C273 0.929 . S
H255 C274 0.929 . S
H256 C286 0.931 . S
H257 C278 0.929 . S
H258 C287 0.930 . S
H259 C279 0.931 . S
O260 Co236 2.097 . S
O260 C288 1.214 . S
H261 C289 0.929 . S
H262 C290 0.929 . S
H263 C291 0.930 . S
H264 C292 0.929 . S
H265 C294 0.930 . S
H266 C271 0.930 . S
H267 C275 0.930 . S
O268 Co237 2.037 . S
O268 C288 1.234 . S
C269 O243 1.269 . S
C269 O244 1.257 . S
C270 H245 0.930 . S
C270 C273 1.388 . S
C270 C275 1.418 . S
C271 H266 0.930 . S
C271 C274 1.404 . S
C271 C275 1.353 . S
N272 Co237 2.145 . S
N272 C273 1.397 . S
N272 C274 1.334 . S
C273 H254 0.929 . S
C273 C270 1.388 . S
C273 N272 1.397 . S
C274 H255 0.929 . S
C274 C271 1.404 . S
C274 N272 1.334 . S
C275 H267 0.930 . S
C275 C270 1.418 . S
C275 C271 1.353 . S
C276 H246 0.930 . S
C276 N277 1.330 . S
C276 C278 1.446 . S
N277 Co236 2.151 . S
N277 C276 1.330 . S
N277 C281 1.418 . S
C278 H257 0.929 . S
C278 C276 1.446 . S
C278 C279 1.332 . S
C279 H259 0.931 . S
C279 C278 1.332 . S
C279 C280 1.267 . S
C280 H248 0.929 . S
C280 C279 1.267 . S
C280 C281 1.251 . S
C281 H251 0.929 . S
C281 N277 1.418 . S
C281 C280 1.251 . S
C282 H249 0.930 . S
C282 C284 1.406 . S
C282 C287 1.261 . S
C283 H250 0.930 . S
C283 N285 1.325 . S
C283 C286 1.357 . S
C284 H252 0.928 . S
C284 C282 1.406 . S
C284 N285 1.261 . S
N285 Co236 2.214 . S
N285 C283 1.325 . S
N285 C284 1.261 . S
C286 H256 0.931 . S
C286 C283 1.357 . S
C286 C287 1.312 . S
C287 H258 0.930 . S
C287 C282 1.261 . S
C287 C286 1.312 . S
C288 O260 1.214 . S
C288 O268 1.234 . S
C289 H261 0.929 . S
C289 C292 1.391 . S
C289 C294 1.391 . S
C290 H262 0.929 . S
C290 C291 1.390 . S
C290 N293 1.391 . S
C291 H263 0.930 . S
C291 C290 1.390 . S
C291 C292 1.392 . S
C292 H264 0.929 . S
C292 C289 1.391 . S
C292 C291 1.392 . S
N293 Co237 2.257 . S
N293 C290 1.391 . S
N293 C294 1.388 . S
C294 H265 0.930 . S
C294 C289 1.391 . S
C294 N293 1.388 . S
Co295 O297 2.143 . S
Co295 O303 2.074 . S
Co295 O306 2.093 . S
Co295 O319 2.097 . S
Co295 N336 2.151 . S
Co295 N344 2.214 . S
Co296 O297 2.160 . S
Co296 O302 2.058 . S
Co296 O312 2.057 . S
Co296 O327 2.037 . S
Co296 N331 2.145 . S
Co296 N352 2.257 . S
O297 Co295 2.143 . S
O297 Co296 2.160 . S
C298 O299 1.278 . S
C298 O306 1.224 . S
O299 C298 1.278 . S
C300 O301 1.245 . S
C300 O312 1.232 . S
O301 C300 1.245 . S
O302 Co296 2.058 . S
O302 C328 1.269 . S
O303 Co295 2.074 . S
O303 C328 1.257 . S
H304 C329 0.930 . S
H305 C335 0.930 . S
O306 Co295 2.093 . S
O306 C298 1.224 . S
H307 C339 0.929 . S
H308 C341 0.930 . S
H309 C342 0.930 . S
H310 C340 0.929 . S
H311 C343 0.928 . S
O312 Co296 2.057 . S
O312 C300 1.232 . S
H313 C332 0.929 . S
H314 C333 0.929 . S
H315 C345 0.931 . S
H316 C337 0.929 . S
H317 C346 0.930 . S
H318 C338 0.931 . S
O319 Co295 2.097 . S
O319 C347 1.214 . S
H320 C348 0.929 . S
H321 C349 0.929 . S
H322 C350 0.930 . S
H323 C351 0.929 . S
H324 C353 0.930 . S
H325 C330 0.930 . S
H326 C334 0.930 . S
O327 Co296 2.037 . S
O327 C347 1.234 . S
C328 O302 1.269 . S
C328 O303 1.257 . S
C329 H304 0.930 . S
C329 C332 1.388 . S
C329 C334 1.418 . S
C330 H325 0.930 . S
C330 C333 1.404 . S
C330 C334 1.353 . S
N331 Co296 2.145 . S
N331 C332 1.397 . S
N331 C333 1.334 . S
C332 H313 0.929 . S
C332 C329 1.388 . S
C332 N331 1.397 . S
C333 H314 0.929 . S
C333 C330 1.404 . S
C333 N331 1.334 . S
C334 H326 0.930 . S
C334 C329 1.418 . S
C334 C330 1.353 . S
C335 H305 0.930 . S
C335 N336 1.330 . S
C335 C337 1.446 . S
N336 Co295 2.151 . S
N336 C335 1.330 . S
N336 C340 1.418 . S
C337 H316 0.929 . S
C337 C335 1.446 . S
C337 C338 1.332 . S
C338 H318 0.931 . S
C338 C337 1.332 . S
C338 C339 1.267 . S
C339 H307 0.929 . S
C339 C338 1.267 . S
C339 C340 1.251 . S
C340 H310 0.929 . S
C340 N336 1.418 . S
C340 C339 1.251 . S
C341 H308 0.930 . S
C341 C343 1.406 . S
C341 C346 1.261 . S
C342 H309 0.930 . S
C342 N344 1.325 . S
C342 C345 1.357 . S
C343 H311 0.928 . S
C343 C341 1.406 . S
C343 N344 1.261 . S
N344 Co295 2.214 . S
N344 C342 1.325 . S
N344 C343 1.261 . S
C345 H315 0.931 . S
C345 C342 1.357 . S
C345 C346 1.312 . S
C346 H317 0.930 . S
C346 C341 1.261 . S
C346 C345 1.312 . S
C347 O319 1.214 . S
C347 O327 1.234 . S
C348 H320 0.929 . S
C348 C351 1.391 . S
C348 C353 1.391 . S
C349 H321 0.929 . S
C349 C350 1.390 . S
C349 N352 1.391 . S
C350 H322 0.930 . S
C350 C349 1.390 . S
C350 C351 1.392 . S
C351 H323 0.929 . S
C351 C348 1.391 . S
C351 C350 1.392 . S
N352 Co296 2.257 . S
N352 C349 1.391 . S
N352 C353 1.388 . S
C353 H324 0.930 . S
C353 C348 1.391 . S
C353 N352 1.388 . S
Co354 O356 2.143 . S
Co354 O362 2.074 . S
Co354 O365 2.093 . S
Co354 O378 2.097 . S
Co354 N395 2.151 . S
Co354 N403 2.214 . S
Co355 O356 2.160 . S
Co355 O361 2.058 . S
Co355 O371 2.057 . S
Co355 O386 2.037 . S
Co355 N390 2.145 . S
Co355 N411 2.257 . S
O356 Co354 2.143 . S
O356 Co355 2.160 . S
C357 O358 1.278 . S
C357 O365 1.224 . S
O358 C357 1.278 . S
C359 O360 1.245 . S
C359 O371 1.232 . S
O360 C359 1.245 . S
O361 Co355 2.058 . S
O361 C387 1.269 . S
O362 Co354 2.074 . S
O362 C387 1.257 . S
H363 C388 0.930 . S
H364 C394 0.930 . S
O365 Co354 2.093 . S
O365 C357 1.224 . S
H366 C398 0.929 . S
H367 C400 0.930 . S
H368 C401 0.930 . S
H369 C399 0.929 . S
H370 C402 0.928 . S
O371 Co355 2.057 . S
O371 C359 1.232 . S
H372 C391 0.929 . S
H373 C392 0.929 . S
H374 C404 0.931 . S
H375 C396 0.929 . S
H376 C405 0.930 . S
H377 C397 0.931 . S
O378 Co354 2.097 . S
O378 C406 1.214 . S
H379 C407 0.929 . S
H380 C408 0.929 . S
H381 C409 0.930 . S
H382 C410 0.929 . S
H383 C412 0.930 . S
H384 C389 0.930 . S
H385 C393 0.930 . S
O386 Co355 2.037 . S
O386 C406 1.234 . S
C387 O361 1.269 . S
C387 O362 1.257 . S
C388 H363 0.930 . S
C388 C391 1.388 . S
C388 C393 1.418 . S
C389 H384 0.930 . S
C389 C392 1.404 . S
C389 C393 1.353 . S
N390 Co355 2.145 . S
N390 C391 1.397 . S
N390 C392 1.334 . S
C391 H372 0.929 . S
C391 C388 1.388 . S
C391 N390 1.397 . S
C392 H373 0.929 . S
C392 C389 1.404 . S
C392 N390 1.334 . S
C393 H385 0.930 . S
C393 C388 1.418 . S
C393 C389 1.353 . S
C394 H364 0.930 . S
C394 N395 1.330 . S
C394 C396 1.446 . S
N395 Co354 2.151 . S
N395 C394 1.330 . S
N395 C399 1.418 . S
C396 H375 0.929 . S
C396 C394 1.446 . S
C396 C397 1.332 . S
C397 H377 0.931 . S
C397 C396 1.332 . S
C397 C398 1.267 . S
C398 H366 0.929 . S
C398 C397 1.267 . S
C398 C399 1.251 . S
C399 H369 0.929 . S
C399 N395 1.418 . S
C399 C398 1.251 . S
C400 H367 0.930 . S
C400 C402 1.406 . S
C400 C405 1.261 . S
C401 H368 0.930 . S
C401 N403 1.325 . S
C401 C404 1.357 . S
C402 H370 0.928 . S
C402 C400 1.406 . S
C402 N403 1.261 . S
N403 Co354 2.214 . S
N403 C401 1.325 . S
N403 C402 1.261 . S
C404 H374 0.931 . S
C404 C401 1.357 . S
C404 C405 1.312 . S
C405 H376 0.930 . S
C405 C400 1.261 . S
C405 C404 1.312 . S
C406 O378 1.214 . S
C406 O386 1.234 . S
C407 H379 0.929 . S
C407 C410 1.391 . S
C407 C412 1.391 . S
C408 H380 0.929 . S
C408 C409 1.390 . S
C408 N411 1.391 . S
C409 H381 0.930 . S
C409 C408 1.390 . S
C409 C410 1.392 . S
C410 H382 0.929 . S
C410 C407 1.391 . S
C410 C409 1.392 . S
N411 Co355 2.257 . S
N411 C408 1.391 . S
N411 C412 1.388 . S
C412 H383 0.930 . S
C412 C407 1.391 . S
C412 N411 1.388 . S
Co413 O415 2.143 . S
Co413 O421 2.074 . S
Co413 O424 2.093 . S
Co413 O437 2.097 1_556 S
Co413 N454 2.151 . S
Co413 N462 2.214 1_556 S
Co414 O415 2.160 . S
Co414 O420 2.058 . S
Co414 O430 2.057 . S
Co414 O445 2.037 1_556 S
Co414 N449 2.145 . S
Co414 N470 2.257 . S
O415 Co413 2.143 . S
O415 Co414 2.160 . S
C416 O417 1.278 . S
C416 O424 1.224 . S
O417 C416 1.278 . S
C418 O419 1.245 . S
C418 O430 1.232 . S
O419 C418 1.245 . S
O420 Co414 2.058 . S
O420 C446 1.269 . S
O421 Co413 2.074 . S
O421 C446 1.257 . S
H422 C447 0.930 . S
H423 C453 0.930 . S
O424 Co413 2.093 . S
O424 C416 1.224 . S
H425 C457 0.929 . S
H426 C459 0.930 . S
H427 C460 0.930 . S
H428 C458 0.929 . S
H429 C461 0.928 . S
O430 Co414 2.057 . S
O430 C418 1.232 . S
H431 C450 0.929 1_554 S
H432 C451 0.929 . S
H433 C463 0.931 . S
H434 C455 0.929 . S
H435 C464 0.930 . S
H436 C456 0.931 . S
O437 Co413 2.097 1_554 S
O437 C465 1.214 . S
H438 C466 0.929 . S
H439 C467 0.929 1_554 S
H440 C468 0.930 1_554 S
H441 C469 0.929 . S
H442 C471 0.930 . S
H443 C448 0.930 . S
H444 C452 0.930 . S
O445 Co414 2.037 1_554 S
O445 C465 1.234 . S
C446 O420 1.269 . S
C446 O421 1.257 . S
C447 H422 0.930 . S
C447 C450 1.388 . S
C447 C452 1.418 . S
C448 H443 0.930 . S
C448 C451 1.404 . S
C448 C452 1.353 . S
N449 Co414 2.145 . S
N449 C450 1.397 . S
N449 C451 1.334 . S
C450 H431 0.929 1_556 S
C450 C447 1.388 . S
C450 N449 1.397 . S
C451 H432 0.929 . S
C451 C448 1.404 . S
C451 N449 1.334 . S
C452 H444 0.930 . S
C452 C447 1.418 . S
C452 C448 1.353 . S
C453 H423 0.930 . S
C453 N454 1.330 . S
C453 C455 1.446 . S
N454 Co413 2.151 . S
N454 C453 1.330 . S
N454 C458 1.418 . S
C455 H434 0.929 . S
C455 C453 1.446 . S
C455 C456 1.332 . S
C456 H436 0.931 . S
C456 C455 1.332 . S
C456 C457 1.267 . S
C457 H425 0.929 . S
C457 C456 1.267 . S
C457 C458 1.251 . S
C458 H428 0.929 . S
C458 N454 1.418 . S
C458 C457 1.251 . S
C459 H426 0.930 . S
C459 C461 1.406 . S
C459 C464 1.261 . S
C460 H427 0.930 . S
C460 N462 1.325 . S
C460 C463 1.357 . S
C461 H429 0.928 . S
C461 C459 1.406 . S
C461 N462 1.261 . S
N462 Co413 2.214 1_554 S
N462 C460 1.325 . S
N462 C461 1.261 . S
C463 H433 0.931 . S
C463 C460 1.357 . S
C463 C464 1.312 . S
C464 H435 0.930 . S
C464 C459 1.261 . S
C464 C463 1.312 . S
C465 O437 1.214 . S
C465 O445 1.234 . S
C466 H438 0.929 . S
C466 C469 1.391 . S
C466 C471 1.391 . S
C467 H439 0.929 1_556 S
C467 C468 1.390 . S
C467 N470 1.391 . S
C468 H440 0.930 1_556 S
C468 C467 1.390 . S
C468 C469 1.392 . S
C469 H441 0.929 . S
C469 C466 1.391 . S
C469 C468 1.392 . S
N470 Co414 2.257 . S
N470 C467 1.391 . S
N470 C471 1.388 . S
C471 H442 0.930 . S
C471 C466 1.391 . S
C471 N470 1.388 . S
Co472 O474 2.143 . S
Co472 O480 2.074 . S
Co472 O483 2.093 . S
Co472 O496 2.097 . S
Co472 N513 2.151 . S
Co472 N521 2.214 . S
Co473 O474 2.160 . S
Co473 O479 2.058 . S
Co473 O489 2.057 . S
Co473 O504 2.037 . S
Co473 N508 2.145 . S
Co473 N529 2.257 . S
O474 Co472 2.143 . S
O474 Co473 2.160 . S
C475 O476 1.278 . S
C475 O483 1.224 . S
O476 C475 1.278 . S
C477 O478 1.245 . S
C477 O489 1.232 . S
O478 C477 1.245 . S
O479 Co473 2.058 . S
O479 C505 1.269 . S
O480 Co472 2.074 . S
O480 C505 1.257 . S
H481 C506 0.930 . S
H482 C512 0.930 . S
O483 Co472 2.093 . S
O483 C475 1.224 . S
H484 C516 0.929 . S
H485 C518 0.930 . S
H486 C519 0.930 . S
H487 C517 0.929 . S
H488 C520 0.928 . S
O489 Co473 2.057 . S
O489 C477 1.232 . S
H490 C509 0.929 . S
H491 C510 0.929 . S
H492 C522 0.931 . S
H493 C514 0.929 . S
H494 C523 0.930 . S
H495 C515 0.931 . S
O496 Co472 2.097 . S
O496 C524 1.214 . S
H497 C525 0.929 . S
H498 C526 0.929 . S
H499 C527 0.930 . S
H500 C528 0.929 . S
H501 C530 0.930 . S
H502 C507 0.930 . S
H503 C511 0.930 . S
O504 Co473 2.037 . S
O504 C524 1.234 . S
C505 O479 1.269 . S
C505 O480 1.257 . S
C506 H481 0.930 . S
C506 C509 1.388 . S
C506 C511 1.418 . S
C507 H502 0.930 . S
C507 C510 1.404 . S
C507 C511 1.353 . S
N508 Co473 2.145 . S
N508 C509 1.397 . S
N508 C510 1.334 . S
C509 H490 0.929 . S
C509 C506 1.388 . S
C509 N508 1.397 . S
C510 H491 0.929 . S
C510 C507 1.404 . S
C510 N508 1.334 . S
C511 H503 0.930 . S
C511 C506 1.418 . S
C511 C507 1.353 . S
C512 H482 0.930 . S
C512 N513 1.330 . S
C512 C514 1.446 . S
N513 Co472 2.151 . S
N513 C512 1.330 . S
N513 C517 1.418 . S
C514 H493 0.929 . S
C514 C512 1.446 . S
C514 C515 1.332 . S
C515 H495 0.931 . S
C515 C514 1.332 . S
C515 C516 1.267 . S
C516 H484 0.929 . S
C516 C515 1.267 . S
C516 C517 1.251 . S
C517 H487 0.929 . S
C517 N513 1.418 . S
C517 C516 1.251 . S
C518 H485 0.930 . S
C518 C520 1.406 . S
C518 C523 1.261 . S
C519 H486 0.930 . S
C519 N521 1.325 . S
C519 C522 1.357 . S
C520 H488 0.928 . S
C520 C518 1.406 . S
C520 N521 1.261 . S
N521 Co472 2.214 . S
N521 C519 1.325 . S
N521 C520 1.261 . S
C522 H492 0.931 . S
C522 C519 1.357 . S
C522 C523 1.312 . S
C523 H494 0.930 . S
C523 C518 1.261 . S
C523 C522 1.312 . S
C524 O496 1.214 . S
C524 O504 1.234 . S
C525 H497 0.929 . S
C525 C528 1.391 . S
C525 C530 1.391 . S
C526 H498 0.929 . S
C526 C527 1.390 . S
C526 N529 1.391 . S
C527 H499 0.930 . S
C527 C526 1.390 . S
C527 C528 1.392 . S
C528 H500 0.929 . S
C528 C525 1.391 . S
C528 C527 1.392 . S
N529 Co473 2.257 . S
N529 C526 1.391 . S
N529 C530 1.388 . S
C530 H501 0.930 . S
C530 C525 1.391 . S
C530 N529 1.388 . S
Co531 O533 2.143 . S
Co531 O539 2.074 . S
Co531 O542 2.093 . S
Co531 O555 2.097 . S
Co531 N572 2.151 . S
Co531 N580 2.214 . S
Co532 O533 2.160 . S
Co532 O538 2.058 . S
Co532 O548 2.057 . S
Co532 O563 2.037 . S
Co532 N567 2.145 . S
Co532 N588 2.257 . S
O533 Co531 2.143 . S
O533 Co532 2.160 . S
C534 O535 1.278 . S
C534 O542 1.224 . S
O535 C534 1.278 . S
C536 O537 1.245 . S
C536 O548 1.232 . S
O537 C536 1.245 . S
O538 Co532 2.058 . S
O538 C564 1.269 . S
O539 Co531 2.074 . S
O539 C564 1.257 . S
H540 C565 0.930 . S
H541 C571 0.930 . S
O542 Co531 2.093 . S
O542 C534 1.224 . S
H543 C575 0.929 . S
H544 C577 0.930 . S
H545 C578 0.930 . S
H546 C576 0.929 . S
H547 C579 0.928 . S
O548 Co532 2.057 . S
O548 C536 1.232 . S
H549 C568 0.929 . S
H550 C569 0.929 . S
H551 C581 0.931 . S
H552 C573 0.929 . S
H553 C582 0.930 . S
H554 C574 0.931 . S
O555 Co531 2.097 . S
O555 C583 1.214 . S
H556 C584 0.929 . S
H557 C585 0.929 . S
H558 C586 0.930 . S
H559 C587 0.929 . S
H560 C589 0.930 . S
H561 C566 0.930 . S
H562 C570 0.930 . S
O563 Co532 2.037 . S
O563 C583 1.234 . S
C564 O538 1.269 . S
C564 O539 1.257 . S
C565 H540 0.930 . S
C565 C568 1.388 . S
C565 C570 1.418 . S
C566 H561 0.930 . S
C566 C569 1.404 . S
C566 C570 1.353 . S
N567 Co532 2.145 . S
N567 C568 1.397 . S
N567 C569 1.334 . S
C568 H549 0.929 . S
C568 C565 1.388 . S
C568 N567 1.397 . S
C569 H550 0.929 . S
C569 C566 1.404 . S
C569 N567 1.334 . S
C570 H562 0.930 . S
C570 C565 1.418 . S
C570 C566 1.353 . S
C571 H541 0.930 . S
C571 N572 1.330 . S
C571 C573 1.446 . S
N572 Co531 2.151 . S
N572 C571 1.330 . S
N572 C576 1.418 . S
C573 H552 0.929 . S
C573 C571 1.446 . S
C573 C574 1.332 . S
C574 H554 0.931 . S
C574 C573 1.332 . S
C574 C575 1.267 . S
C575 H543 0.929 . S
C575 C574 1.267 . S
C575 C576 1.251 . S
C576 H546 0.929 . S
C576 N572 1.418 . S
C576 C575 1.251 . S
C577 H544 0.930 . S
C577 C579 1.406 . S
C577 C582 1.261 . S
C578 H545 0.930 . S
C578 N580 1.325 . S
C578 C581 1.357 . S
C579 H547 0.928 . S
C579 C577 1.406 . S
C579 N580 1.261 . S
N580 Co531 2.214 . S
N580 C578 1.325 . S
N580 C579 1.261 . S
C581 H551 0.931 . S
C581 C578 1.357 . S
C581 C582 1.312 . S
C582 H553 0.930 . S
C582 C577 1.261 . S
C582 C581 1.312 . S
C583 O555 1.214 . S
C583 O563 1.234 . S
C584 H556 0.929 . S
C584 C587 1.391 . S
C584 C589 1.391 . S
C585 H557 0.929 . S
C585 C586 1.390 . S
C585 N588 1.391 . S
C586 H558 0.930 . S
C586 C585 1.390 . S
C586 C587 1.392 . S
C587 H559 0.929 . S
C587 C584 1.391 . S
C587 C586 1.392 . S
N588 Co532 2.257 . S
N588 C585 1.391 . S
N588 C589 1.388 . S
C589 H560 0.930 . S
C589 C584 1.391 . S
C589 N588 1.388 . S
Co590 O592 2.143 . S
Co590 O598 2.074 . S
Co590 O601 2.093 . S
Co590 O614 2.097 1_556 S
Co590 N631 2.151 . S
Co590 N639 2.214 1_556 S
Co591 O592 2.160 . S
Co591 O597 2.058 . S
Co591 O607 2.057 . S
Co591 O622 2.037 1_556 S
Co591 N626 2.145 . S
Co591 N647 2.257 . S
O592 Co590 2.143 . S
O592 Co591 2.160 . S
C593 O594 1.278 . S
C593 O601 1.224 . S
O594 C593 1.278 . S
C595 O596 1.245 . S
C595 O607 1.232 . S
O596 C595 1.245 . S
O597 Co591 2.058 . S
O597 C623 1.269 . S
O598 Co590 2.074 . S
O598 C623 1.257 . S
H599 C624 0.930 . S
H600 C630 0.930 . S
O601 Co590 2.093 . S
O601 C593 1.224 . S
H602 C634 0.929 . S
H603 C636 0.930 . S
H604 C637 0.930 . S
H605 C635 0.929 . S
H606 C638 0.928 . S
O607 Co591 2.057 . S
O607 C595 1.232 . S
H608 C627 0.929 1_554 S
H609 C628 0.929 . S
H610 C640 0.931 . S
H611 C632 0.929 . S
H612 C641 0.930 . S
H613 C633 0.931 . S
O614 Co590 2.097 1_554 S
O614 C642 1.214 . S
H615 C643 0.929 . S
H616 C644 0.929 1_554 S
H617 C645 0.930 1_554 S
H618 C646 0.929 . S
H619 C648 0.930 . S
H620 C625 0.930 . S
H621 C629 0.930 . S
O622 Co591 2.037 1_554 S
O622 C642 1.234 . S
C623 O597 1.269 . S
C623 O598 1.257 . S
C624 H599 0.930 . S
C624 C627 1.388 . S
C624 C629 1.418 . S
C625 H620 0.930 . S
C625 C628 1.404 . S
C625 C629 1.353 . S
N626 Co591 2.145 . S
N626 C627 1.397 . S
N626 C628 1.334 . S
C627 H608 0.929 1_556 S
C627 C624 1.388 . S
C627 N626 1.397 . S
C628 H609 0.929 . S
C628 C625 1.404 . S
C628 N626 1.334 . S
C629 H621 0.930 . S
C629 C624 1.418 . S
C629 C625 1.353 . S
C630 H600 0.930 . S
C630 N631 1.330 . S
C630 C632 1.446 . S
N631 Co590 2.151 . S
N631 C630 1.330 . S
N631 C635 1.418 . S
C632 H611 0.929 . S
C632 C630 1.446 . S
C632 C633 1.332 . S
C633 H613 0.931 . S
C633 C632 1.332 . S
C633 C634 1.267 . S
C634 H602 0.929 . S
C634 C633 1.267 . S
C634 C635 1.251 . S
C635 H605 0.929 . S
C635 N631 1.418 . S
C635 C634 1.251 . S
C636 H603 0.930 . S
C636 C638 1.406 . S
C636 C641 1.261 . S
C637 H604 0.930 . S
C637 N639 1.325 . S
C637 C640 1.357 . S
C638 H606 0.928 . S
C638 C636 1.406 . S
C638 N639 1.261 . S
N639 Co590 2.214 1_554 S
N639 C637 1.325 . S
N639 C638 1.261 . S
C640 H610 0.931 . S
C640 C637 1.357 . S
C640 C641 1.312 . S
C641 H612 0.930 . S
C641 C636 1.261 . S
C641 C640 1.312 . S
C642 O614 1.214 . S
C642 O622 1.234 . S
C643 H615 0.929 . S
C643 C646 1.391 . S
C643 C648 1.391 . S
C644 H616 0.929 1_556 S
C644 C645 1.390 . S
C644 N647 1.391 . S
C645 H617 0.930 1_556 S
C645 C644 1.390 . S
C645 C646 1.392 . S
C646 H618 0.929 . S
C646 C643 1.391 . S
C646 C645 1.392 . S
N647 Co591 2.257 . S
N647 C644 1.391 . S
N647 C648 1.388 . S
C648 H619 0.930 . S
C648 C643 1.391 . S
C648 N647 1.388 . S
Co649 O651 2.143 . S
Co649 O657 2.074 . S
Co649 O660 2.093 . S
Co649 O673 2.097 . S
Co649 N690 2.151 . S
Co649 N698 2.214 . S
Co650 O651 2.160 . S
Co650 O656 2.058 . S
Co650 O666 2.057 . S
Co650 O681 2.037 . S
Co650 N685 2.145 . S
Co650 N706 2.257 . S
O651 Co649 2.143 . S
O651 Co650 2.160 . S
C652 O653 1.278 . S
C652 O660 1.224 . S
O653 C652 1.278 . S
C654 O655 1.245 . S
C654 O666 1.232 . S
O655 C654 1.245 . S
O656 Co650 2.058 . S
O656 C682 1.269 . S
O657 Co649 2.074 . S
O657 C682 1.257 . S
H658 C683 0.930 . S
H659 C689 0.930 . S
O660 Co649 2.093 . S
O660 C652 1.224 . S
H661 C693 0.929 . S
H662 C695 0.930 . S
H663 C696 0.930 . S
H664 C694 0.929 . S
H665 C697 0.928 . S
O666 Co650 2.057 . S
O666 C654 1.232 . S
H667 C686 0.929 . S
H668 C687 0.929 . S
H669 C699 0.931 . S
H670 C691 0.929 . S
H671 C700 0.930 . S
H672 C692 0.931 . S
O673 Co649 2.097 . S
O673 C701 1.214 . S
H674 C702 0.929 . S
H675 C703 0.929 . S
H676 C704 0.930 . S
H677 C705 0.929 . S
H678 C707 0.930 . S
H679 C684 0.930 . S
H680 C688 0.930 . S
O681 Co650 2.037 . S
O681 C701 1.234 . S
C682 O656 1.269 . S
C682 O657 1.257 . S
C683 H658 0.930 . S
C683 C686 1.388 . S
C683 C688 1.418 . S
C684 H679 0.930 . S
C684 C687 1.404 . S
C684 C688 1.353 . S
N685 Co650 2.145 . S
N685 C686 1.397 . S
N685 C687 1.334 . S
C686 H667 0.929 . S
C686 C683 1.388 . S
C686 N685 1.397 . S
C687 H668 0.929 . S
C687 C684 1.404 . S
C687 N685 1.334 . S
C688 H680 0.930 . S
C688 C683 1.418 . S
C688 C684 1.353 . S
C689 H659 0.930 . S
C689 N690 1.330 . S
C689 C691 1.446 . S
N690 Co649 2.151 . S
N690 C689 1.330 . S
N690 C694 1.418 . S
C691 H670 0.929 . S
C691 C689 1.446 . S
C691 C692 1.332 . S
C692 H672 0.931 . S
C692 C691 1.332 . S
C692 C693 1.267 . S
C693 H661 0.929 . S
C693 C692 1.267 . S
C693 C694 1.251 . S
C694 H664 0.929 . S
C694 N690 1.418 . S
C694 C693 1.251 . S
C695 H662 0.930 . S
C695 C697 1.406 . S
C695 C700 1.261 . S
C696 H663 0.930 . S
C696 N698 1.325 . S
C696 C699 1.357 . S
C697 H665 0.928 . S
C697 C695 1.406 . S
C697 N698 1.261 . S
N698 Co649 2.214 . S
N698 C696 1.325 . S
N698 C697 1.261 . S
C699 H669 0.931 . S
C699 C696 1.357 . S
C699 C700 1.312 . S
C700 H671 0.930 . S
C700 C695 1.261 . S
C700 C699 1.312 . S
C701 O673 1.214 . S
C701 O681 1.234 . S
C702 H674 0.929 . S
C702 C705 1.391 . S
C702 C707 1.391 . S
C703 H675 0.929 . S
C703 C704 1.390 . S
C703 N706 1.391 . S
C704 H676 0.930 . S
C704 C703 1.390 . S
C704 C705 1.392 . S
C705 H677 0.929 . S
C705 C702 1.391 . S
C705 C704 1.392 . S
N706 Co650 2.257 . S
N706 C703 1.391 . S
N706 C707 1.388 . S
C707 H678 0.930 . S
C707 C702 1.391 . S
C707 N706 1.388 . S
C708 C709 1.363 . S
C708 C714 1.379 . S
C708 N716 1.356 . S
C709 C708 1.363 . S
C709 C715 1.363 . S
C710 C711 1.363 . S
C710 C715 1.379 . S
C710 N717 1.356 . S
C711 C710 1.363 . S
C711 C714 1.363 . S
N712 C714 1.356 . S
N712 H724 0.984 . S
N712 H725 0.985 . S
N713 C715 1.356 . S
N713 H718 0.984 . S
N713 H719 0.985 . S
C714 C708 1.379 . S
C714 C711 1.363 . S
C714 N712 1.356 . S
C715 C709 1.363 . S
C715 C710 1.379 . S
C715 N713 1.356 . S
N716 C708 1.356 . S
N716 H722 0.984 . S
N716 H723 0.984 . S
N717 C710 1.356 . S
N717 H720 0.984 . S
N717 H721 0.985 . S
H718 N713 0.984 . S
H719 N713 0.985 . S
H720 N717 0.984 . S
H721 N717 0.985 . S
H722 N716 0.984 . S
H723 N716 0.984 . S
H724 N712 0.984 . S
H725 N712 0.985 . S
C726 C727 1.363 . S
C726 C732 1.379 . S
C726 N734 1.356 . S
C727 C726 1.363 . S
C727 C733 1.363 . S
C728 C729 1.363 . S
C728 C733 1.379 . S
C728 N735 1.356 . S
C729 C728 1.363 . S
C729 C732 1.363 . S
N730 C732 1.356 . S
N730 H742 0.984 . S
N730 H743 0.985 . S
N731 C733 1.356 . S
N731 H736 0.984 . S
N731 H737 0.985 . S
C732 C726 1.379 . S
C732 C729 1.363 . S
C732 N730 1.356 . S
C733 C727 1.363 . S
C733 C728 1.379 . S
C733 N731 1.356 . S
N734 C726 1.356 . S
N734 H740 0.984 . S
N734 H741 0.984 . S
N735 C728 1.356 . S
N735 H738 0.984 . S
N735 H739 0.985 . S
H736 N731 0.984 . S
H737 N731 0.985 . S
H738 N735 0.984 . S
H739 N735 0.985 . S
H740 N734 0.984 . S
H741 N734 0.984 . S
H742 N730 0.984 . S
H743 N730 0.985 . S
C744 C745 1.363 . S
C744 C750 1.379 1_556 S
C744 N752 1.356 . S
C745 C744 1.363 . S
C745 C751 1.363 . S
C746 C747 1.363 . S
C746 C751 1.379 1_554 S
C746 N753 1.356 . S
C747 C746 1.363 . S
C747 C750 1.363 . S
N748 C750 1.356 . S
N748 H760 0.984 . S
N748 H761 0.985 . S
N749 C751 1.356 . S
N749 H754 0.984 . S
N749 H755 0.985 . S
C750 C744 1.379 1_554 S
C750 C747 1.363 . S
C750 N748 1.356 . S
C751 C745 1.363 . S
C751 C746 1.379 1_556 S
C751 N749 1.356 . S
N752 C744 1.356 . S
N752 H758 0.984 . S
N752 H759 0.984 . S
N753 C746 1.356 . S
N753 H756 0.984 . S
N753 H757 0.985 . S
H754 N749 0.984 . S
H755 N749 0.985 . S
H756 N753 0.984 . S
H757 N753 0.985 . S
H758 N752 0.984 . S
H759 N752 0.984 . S
H760 N748 0.984 . S
H761 N748 0.985 . S
C762 C763 1.363 . S
C762 C768 1.379 . S
C762 N770 1.356 . S
C763 C762 1.363 . S
C763 C769 1.363 . S
C764 C765 1.363 . S
C764 C769 1.379 . S
C764 N771 1.356 . S
C765 C764 1.363 . S
C765 C768 1.363 . S
N766 C768 1.356 . S
N766 H778 0.984 . S
N766 H779 0.985 . S
N767 C769 1.356 . S
N767 H772 0.984 . S
N767 H773 0.985 . S
C768 C762 1.379 . S
C768 C765 1.363 . S
C768 N766 1.356 . S
C769 C763 1.363 . S
C769 C764 1.379 . S
C769 N767 1.356 . S
N770 C762 1.356 . S
N770 H776 0.984 . S
N770 H777 0.984 . S
N771 C764 1.356 . S
N771 H774 0.984 . S
N771 H775 0.985 . S
H772 N767 0.984 . S
H773 N767 0.985 . S
H774 N771 0.984 . S
H775 N771 0.985 . S
H776 N770 0.984 . S
H777 N770 0.984 . S
H778 N766 0.984 . S
H779 N766 0.985 . S
C780 C781 1.363 . S
C780 C786 1.379 . S
C780 N788 1.356 . S
C781 C780 1.363 . S
C781 C787 1.363 . S
C782 C783 1.363 . S
C782 C787 1.379 . S
C782 N789 1.356 . S
C783 C782 1.363 . S
C783 C786 1.363 . S
N784 C786 1.356 . S
N784 H796 0.984 . S
N784 H797 0.985 . S
N785 C787 1.356 . S
N785 H790 0.984 . S
N785 H791 0.985 . S
C786 C780 1.379 . S
C786 C783 1.363 . S
C786 N784 1.356 . S
C787 C781 1.363 . S
C787 C782 1.379 . S
C787 N785 1.356 . S
N788 C780 1.356 . S
N788 H794 0.984 . S
N788 H795 0.984 . S
N789 C782 1.356 . S
N789 H792 0.984 . S
N789 H793 0.985 . S
H790 N785 0.984 . S
H791 N785 0.985 . S
H792 N789 0.984 . S
H793 N789 0.985 . S
H794 N788 0.984 . S
H795 N788 0.984 . S
H796 N784 0.984 . S
H797 N784 0.985 . S
C798 C799 1.363 . S
C798 C804 1.379 1_554 S
C798 N806 1.356 . S
C799 C798 1.363 . S
C799 C805 1.363 . S
C800 C801 1.363 . S
C800 C805 1.379 1_556 S
C800 N807 1.356 . S
C801 C800 1.363 . S
C801 C804 1.363 . S
N802 C804 1.356 . S
N802 H814 0.984 . S
N802 H815 0.985 . S
N803 C805 1.356 . S
N803 H808 0.984 . S
N803 H809 0.985 . S
C804 C798 1.379 1_556 S
C804 C801 1.363 . S
C804 N802 1.356 . S
C805 C799 1.363 . S
C805 C800 1.379 1_554 S
C805 N803 1.356 . S
N806 C798 1.356 . S
N806 H812 0.984 . S
N806 H813 0.984 . S
N807 C800 1.356 . S
N807 H810 0.984 . S
N807 H811 0.985 . S
H808 N803 0.984 . S
H809 N803 0.985 . S
H810 N807 0.984 . S
H811 N807 0.985 . S
H812 N806 0.984 . S
H813 N806 0.984 . S
H814 N802 0.984 . S
H815 N802 0.985 . S
C816 C817 1.363 1_556 S
C816 C822 1.379 . S
C816 N824 1.356 . S
C817 C816 1.363 1_554 S
C817 C823 1.363 . S
C818 C819 1.363 1_554 S
C818 C823 1.379 . S
C818 N825 1.356 . S
C819 C818 1.363 1_556 S
C819 C822 1.363 . S
N820 C822 1.356 . S
N820 H832 0.984 . S
N820 H833 0.985 . S
N821 C823 1.356 . S
N821 H826 0.984 . S
N821 H827 0.985 . S
C822 C816 1.379 . S
C822 C819 1.363 . S
C822 N820 1.356 . S
C823 C817 1.363 . S
C823 C818 1.379 . S
C823 N821 1.356 . S
N824 C816 1.356 . S
N824 H830 0.984 . S
N824 H831 0.984 . S
N825 C818 1.356 . S
N825 H828 0.984 . S
N825 H829 0.985 . S
H826 N821 0.984 . S
H827 N821 0.985 . S
H828 N825 0.984 . S
H829 N825 0.985 . S
H830 N824 0.984 . S
H831 N824 0.984 . S
H832 N820 0.984 . S
H833 N820 0.985 . S
C834 C835 1.363 . S
C834 C840 1.379 . S
C834 N842 1.356 . S
C835 C834 1.363 . S
C835 C841 1.363 . S
C836 C837 1.363 . S
C836 C841 1.379 . S
C836 N843 1.356 . S
C837 C836 1.363 . S
C837 C840 1.363 . S
N838 C840 1.356 . S
N838 H850 0.984 . S
N838 H851 0.985 . S
N839 C841 1.356 . S
N839 H844 0.984 . S
N839 H845 0.985 . S
C840 C834 1.379 . S
C840 C837 1.363 . S
C840 N838 1.356 . S
C841 C835 1.363 . S
C841 C836 1.379 . S
C841 N839 1.356 . S
N842 C834 1.356 . S
N842 H848 0.984 . S
N842 H849 0.984 . S
N843 C836 1.356 . S
N843 H846 0.984 . S
N843 H847 0.985 . S
H844 N839 0.984 . S
H845 N839 0.985 . S
H846 N843 0.984 . S
H847 N843 0.985 . S
H848 N842 0.984 . S
H849 N842 0.984 . S
H850 N838 0.984 . S
H851 N838 0.985 . S
C852 C853 1.363 . S
C852 C858 1.379 . S
C852 N860 1.356 . S
C853 C852 1.363 . S
C853 C859 1.363 . S
C854 C855 1.363 . S
C854 C859 1.379 . S
C854 N861 1.356 . S
C855 C854 1.363 . S
C855 C858 1.363 . S
N856 C858 1.356 . S
N856 H868 0.984 . S
N856 H869 0.985 . S
N857 C859 1.356 . S
N857 H862 0.984 . S
N857 H863 0.985 . S
C858 C852 1.379 . S
C858 C855 1.363 . S
C858 N856 1.356 . S
C859 C853 1.363 . S
C859 C854 1.379 . S
C859 N857 1.356 . S
N860 C852 1.356 . S
N860 H866 0.984 . S
N860 H867 0.984 . S
N861 C854 1.356 . S
N861 H864 0.984 . S
N861 H865 0.985 . S
H862 N857 0.984 . S
H863 N857 0.985 . S
H864 N861 0.984 . S
H865 N861 0.985 . S
H866 N860 0.984 . S
H867 N860 0.984 . S
H868 N856 0.984 . S
H869 N856 0.985 . S
C870 C871 1.363 1_556 S
C870 C876 1.379 . S
C870 N878 1.356 . S
C871 C870 1.363 1_554 S
C871 C877 1.363 . S
C872 C873 1.363 1_554 S
C872 C877 1.379 . S
C872 N879 1.356 . S
C873 C872 1.363 1_556 S
C873 C876 1.363 . S
N874 C876 1.356 . S
N874 H886 0.984 . S
N874 H887 0.985 . S
N875 C877 1.356 . S
N875 H880 0.984 . S
N875 H881 0.985 . S
C876 C870 1.379 . S
C876 C873 1.363 . S
C876 N874 1.356 . S
C877 C871 1.363 . S
C877 C872 1.379 . S
C877 N875 1.356 . S
N878 C870 1.356 . S
N878 H884 0.984 . S
N878 H885 0.984 . S
N879 C872 1.356 . S
N879 H882 0.984 . S
N879 H883 0.985 . S
H880 N875 0.984 . S
H881 N875 0.985 . S
H882 N879 0.984 . S
H883 N879 0.985 . S
H884 N878 0.984 . S
H885 N878 0.984 . S
H886 N874 0.984 . S
H887 N874 0.985 . S
C888 C889 1.363 . S
C888 C894 1.379 . S
C888 N896 1.356 . S
C889 C888 1.363 . S
C889 C895 1.363 . S
C890 C891 1.363 . S
C890 C895 1.379 . S
C890 N897 1.356 . S
C891 C890 1.363 . S
C891 C894 1.363 . S
N892 C894 1.356 . S
N892 H904 0.984 . S
N892 H905 0.985 . S
N893 C895 1.356 . S
N893 H898 0.984 . S
N893 H899 0.985 . S
C894 C888 1.379 . S
C894 C891 1.363 . S
C894 N892 1.356 . S
C895 C889 1.363 . S
C895 C890 1.379 . S
C895 N893 1.356 . S
N896 C888 1.356 . S
N896 H902 0.984 . S
N896 H903 0.984 . S
N897 C890 1.356 . S
N897 H900 0.984 . S
N897 H901 0.985 . S
H898 N893 0.984 . S
H899 N893 0.985 . S
H900 N897 0.984 . S
H901 N897 0.985 . S
H902 N896 0.984 . S
H903 N896 0.984 . S
H904 N892 0.984 . S
H905 N892 0.985 . S
C906 C907 1.363 . S
C906 C912 1.379 . S
C906 N914 1.356 . S
C907 C906 1.363 . S
C907 C913 1.363 . S
C908 C909 1.363 . S
C908 C913 1.379 . S
C908 N915 1.356 . S
C909 C908 1.363 . S
C909 C912 1.363 . S
N910 C912 1.356 . S
N910 H922 0.984 . S
N910 H923 0.985 . S
N911 C913 1.356 . S
N911 H916 0.984 . S
N911 H917 0.985 . S
C912 C906 1.379 . S
C912 C909 1.363 . S
C912 N910 1.356 . S
C913 C907 1.363 . S
C913 C908 1.379 . S
C913 N911 1.356 . S
N914 C906 1.356 . S
N914 H920 0.984 . S
N914 H921 0.984 . S
N915 C908 1.356 . S
N915 H918 0.984 . S
N915 H919 0.985 . S
H916 N911 0.984 . S
H917 N911 0.985 . S
H918 N915 0.984 . S
H919 N915 0.985 . S
H920 N914 0.984 . S
H921 N914 0.984 . S
H922 N910 0.984 . S
H923 N910 0.985 . S
C924 C925 1.363 . S
C924 C930 1.379 . S
C924 N932 1.356 1_554 S
C925 C924 1.363 . S
C925 C931 1.363 . S
C926 C927 1.363 . S
C926 C931 1.379 . S
C926 N933 1.356 . S
C927 C926 1.363 . S
C927 C930 1.363 . S
N928 C930 1.356 1_556 S
N928 H940 0.984 . S
N928 H941 0.985 . S
N929 C931 1.356 . S
N929 H934 0.984 . S
N929 H935 0.985 . S
C930 C924 1.379 . S
C930 C927 1.363 . S
C930 N928 1.356 1_554 S
C931 C925 1.363 . S
C931 C926 1.379 . S
C931 N929 1.356 . S
N932 C924 1.356 1_556 S
N932 H938 0.984 . S
N932 H939 0.984 . S
N933 C926 1.356 . S
N933 H936 0.984 . S
N933 H937 0.985 . S
H934 N929 0.984 . S
H935 N929 0.985 . S
H936 N933 0.984 . S
H937 N933 0.985 . S
H938 N932 0.984 . S
H939 N932 0.984 . S
H940 N928 0.984 . S
H941 N928 0.985 . S
C942 C943 1.363 . S
C942 C948 1.379 1_655 S
C942 N950 1.356 . S
C943 C942 1.363 . S
C943 C949 1.363 . S
C944 C945 1.363 . S
C944 C949 1.379 1_455 S
C944 N951 1.356 . S
C945 C944 1.363 . S
C945 C948 1.363 . S
N946 C948 1.356 . S
N946 H958 0.984 . S
N946 H959 0.985 . S
N947 C949 1.356 . S
N947 H952 0.984 . S
N947 H953 0.985 . S
C948 C942 1.379 1_455 S
C948 C945 1.363 . S
C948 N946 1.356 . S
C949 C943 1.363 . S
C949 C944 1.379 1_655 S
C949 N947 1.356 . S
N950 C942 1.356 . S
N950 H956 0.984 . S
N950 H957 0.984 . S
N951 C944 1.356 . S
N951 H954 0.984 . S
N951 H955 0.985 . S
H952 N947 0.984 . S
H953 N947 0.985 . S
H954 N951 0.984 . S
H955 N951 0.985 . S
H956 N950 0.984 . S
H957 N950 0.984 . S
H958 N946 0.984 . S
H959 N946 0.985 . S
C960 C961 1.363 . S
C960 C966 1.379 1_545 S
C960 N968 1.356 . S
C961 C960 1.363 . S
C961 C967 1.363 . S
C962 C963 1.363 . S
C962 C967 1.379 1_565 S
C962 N969 1.356 . S
C963 C962 1.363 . S
C963 C966 1.363 . S
N964 C966 1.356 . S
N964 H976 0.984 . S
N964 H977 0.985 . S
N965 C967 1.356 . S
N965 H970 0.984 . S
N965 H971 0.985 . S
C966 C960 1.379 1_565 S
C966 C963 1.363 . S
C966 N964 1.356 . S
C967 C961 1.363 . S
C967 C962 1.379 1_545 S
C967 N965 1.356 . S
N968 C960 1.356 . S
N968 H974 0.984 . S
N968 H975 0.984 . S
N969 C962 1.356 . S
N969 H972 0.984 . S
N969 H973 0.985 . S
H970 N965 0.984 . S
H971 N965 0.985 . S
H972 N969 0.984 . S
H973 N969 0.985 . S
H974 N968 0.984 . S
H975 N968 0.984 . S
H976 N964 0.984 . S
H977 N964 0.985 . S
C978 C979 1.363 . S
C978 C984 1.379 . S
C978 N986 1.356 . S
C979 C978 1.363 . S
C979 C985 1.363 . S
C980 C981 1.363 . S
C980 C985 1.379 . S
C980 N987 1.356 . S
C981 C980 1.363 . S
C981 C984 1.363 . S
N982 C984 1.356 . S
N982 H994 0.984 . S
N982 H995 0.985 . S
N983 C985 1.356 . S
N983 H988 0.984 . S
N983 H989 0.985 . S
C984 C978 1.379 . S
C984 C981 1.363 . S
C984 N982 1.356 . S
C985 C979 1.363 . S
C985 C980 1.379 . S
C985 N983 1.356 . S
N986 C978 1.356 . S
N986 H992 0.984 . S
N986 H993 0.984 . S
N987 C980 1.356 . S
N987 H990 0.984 . S
N987 H991 0.985 . S
H988 N983 0.984 . S
H989 N983 0.985 . S
H990 N987 0.984 . S
H991 N987 0.985 . S
H992 N986 0.984 . S
H993 N986 0.984 . S
H994 N982 0.984 . S
H995 N982 0.985 . S
C996 C997 1.363 . S
C996 C1002 1.379 1_455 S
C996 N1004 1.356 1_556 S
C997 C996 1.363 . S
C997 C1003 1.363 . S
C998 C999 1.363 . S
C998 C1003 1.379 1_655 S
C998 N1005 1.356 . S
C999 C998 1.363 . S
C999 C1002 1.363 . S
N1000 C1002 1.356 1_554 S
N1000 H1012 0.984 . S
N1000 H1013 0.985 . S
N1001 C1003 1.356 . S
N1001 H1006 0.984 . S
N1001 H1007 0.985 . S
C1002 C996 1.379 1_655 S
C1002 C999 1.363 . S
C1002 N1000 1.356 1_556 S
C1003 C997 1.363 . S
C1003 C998 1.379 1_455 S
C1003 N1001 1.356 . S
N1004 C996 1.356 1_554 S
N1004 H1010 0.984 . S
N1004 H1011 0.984 . S
N1005 C998 1.356 . S
N1005 H1008 0.984 . S
N1005 H1009 0.985 . S
H1006 N1001 0.984 . S
H1007 N1001 0.985 . S
H1008 N1005 0.984 . S
H1009 N1005 0.985 . S
H1010 N1004 0.984 . S
H1011 N1004 0.984 . S
H1012 N1000 0.984 . S
H1013 N1000 0.985 . S
C1014 C1015 1.363 . S
C1014 C1020 1.379 1_565 S
C1014 N1022 1.356 . S
C1015 C1014 1.363 . S
C1015 C1021 1.363 . S
C1016 C1017 1.363 . S
C1016 C1021 1.379 1_545 S
C1016 N1023 1.356 . S
C1017 C1016 1.363 . S
C1017 C1020 1.363 . S
N1018 C1020 1.356 . S
N1018 H1030 0.984 . S
N1018 H1031 0.985 . S
N1019 C1021 1.356 . S
N1019 H1024 0.984 . S
N1019 H1025 0.985 . S
C1020 C1014 1.379 1_545 S
C1020 C1017 1.363 . S
C1020 N1018 1.356 . S
C1021 C1015 1.363 . S
C1021 C1016 1.379 1_565 S
C1021 N1019 1.356 . S
N1022 C1014 1.356 . S
N1022 H1028 0.984 . S
N1022 H1029 0.984 . S
N1023 C1016 1.356 . S
N1023 H1026 0.984 . S
N1023 H1027 0.985 . S
H1024 N1019 0.984 . S
H1025 N1019 0.985 . S
H1026 N1023 0.984 . S
H1027 N1023 0.985 . S
H1028 N1022 0.984 . S
H1029 N1022 0.984 . S
H1030 N1018 0.984 . S
H1031 N1018 0.985 . S
C1032 C1033 1.363 . S
C1032 C1038 1.379 . S
C1032 N1040 1.356 . S
C1033 C1032 1.363 . S
C1033 C1039 1.363 . S
C1034 C1035 1.363 . S
C1034 C1039 1.379 . S
C1034 N1041 1.356 . S
C1035 C1034 1.363 . S
C1035 C1038 1.363 . S
N1036 C1038 1.356 . S
N1036 H1048 0.984 . S
N1036 H1049 0.985 . S
N1037 C1039 1.356 . S
N1037 H1042 0.984 . S
N1037 H1043 0.985 . S
C1038 C1032 1.379 . S
C1038 C1035 1.363 . S
C1038 N1036 1.356 . S
C1039 C1033 1.363 . S
C1039 C1034 1.379 . S
C1039 N1037 1.356 . S
N1040 C1032 1.356 . S
N1040 H1046 0.984 . S
N1040 H1047 0.984 . S
N1041 C1034 1.356 . S
N1041 H1044 0.984 . S
N1041 H1045 0.985 . S
H1042 N1037 0.984 . S
H1043 N1037 0.985 . S
H1044 N1041 0.984 . S
H1045 N1041 0.985 . S
H1046 N1040 0.984 . S
H1047 N1040 0.984 . S
H1048 N1036 0.984 . S
H1049 N1036 0.985 . S
C1050 C1051 1.363 . S
C1050 C1056 1.379 . S
C1050 N1058 1.356 . S
C1051 C1050 1.363 . S
C1051 C1057 1.363 . S
C1052 C1053 1.363 . S
C1052 C1057 1.379 . S
C1052 N1059 1.356 . S
C1053 C1052 1.363 . S
C1053 C1056 1.363 . S
N1054 C1056 1.356 . S
N1054 H1066 0.984 . S
N1054 H1067 0.985 . S
N1055 C1057 1.356 . S
N1055 H1060 0.984 . S
N1055 H1061 0.985 . S
C1056 C1050 1.379 . S
C1056 C1053 1.363 . S
C1056 N1054 1.356 . S
C1057 C1051 1.363 . S
C1057 C1052 1.379 . S
C1057 N1055 1.356 . S
N1058 C1050 1.356 . S
N1058 H1064 0.984 . S
N1058 H1065 0.984 . S
N1059 C1052 1.356 . S
N1059 H1062 0.984 . S
N1059 H1063 0.985 . S
H1060 N1055 0.984 . S
H1061 N1055 0.985 . S
H1062 N1059 0.984 . S
H1063 N1059 0.985 . S
H1064 N1058 0.984 . S
H1065 N1058 0.984 . S
H1066 N1054 0.984 . S
H1067 N1054 0.985 . S
C1068 C1069 1.363 . S
C1068 C1074 1.379 . S
C1068 N1076 1.356 . S
C1069 C1068 1.363 . S
C1069 C1075 1.363 . S
C1070 C1071 1.363 . S
C1070 C1075 1.379 . S
C1070 N1077 1.356 . S
C1071 C1070 1.363 . S
C1071 C1074 1.363 . S
N1072 C1074 1.356 . S
N1072 H1084 0.984 . S
N1072 H1085 0.985 . S
N1073 C1075 1.356 . S
N1073 H1078 0.984 . S
N1073 H1079 0.985 . S
C1074 C1068 1.379 . S
C1074 C1071 1.363 . S
C1074 N1072 1.356 . S
C1075 C1069 1.363 . S
C1075 C1070 1.379 . S
C1075 N1073 1.356 . S
N1076 C1068 1.356 . S
N1076 H1082 0.984 . S
N1076 H1083 0.984 . S
N1077 C1070 1.356 . S
N1077 H1080 0.984 . S
N1077 H1081 0.985 . S
H1078 N1073 0.984 . S
H1079 N1073 0.985 . S
H1080 N1077 0.984 . S
H1081 N1077 0.985 . S
H1082 N1076 0.984 . S
H1083 N1076 0.984 . S
H1084 N1072 0.984 . S
H1085 N1072 0.985 . S
C1086 C1087 1.363 . S
C1086 C1092 1.379 . S
C1086 N1094 1.356 . S
C1087 C1086 1.363 . S
C1087 C1093 1.363 . S
C1088 C1089 1.363 . S
C1088 C1093 1.379 . S
C1088 N1095 1.356 . S
C1089 C1088 1.363 . S
C1089 C1092 1.363 . S
N1090 C1092 1.356 . S
N1090 H1102 0.984 . S
N1090 H1103 0.985 . S
N1091 C1093 1.356 . S
N1091 H1096 0.984 . S
N1091 H1097 0.985 . S
C1092 C1086 1.379 . S
C1092 C1089 1.363 . S
C1092 N1090 1.356 . S
C1093 C1087 1.363 . S
C1093 C1088 1.379 . S
C1093 N1091 1.356 . S
N1094 C1086 1.356 . S
N1094 H1100 0.984 . S
N1094 H1101 0.984 . S
N1095 C1088 1.356 . S
N1095 H1098 0.984 . S
N1095 H1099 0.985 . S
H1096 N1091 0.984 . S
H1097 N1091 0.985 . S
H1098 N1095 0.984 . S
H1099 N1095 0.985 . S
H1100 N1094 0.984 . S
H1101 N1094 0.984 . S
H1102 N1090 0.984 . S
H1103 N1090 0.985 . S
C1104 C1105 1.363 . S
C1104 C1110 1.379 . S
C1104 N1112 1.356 . S
C1105 C1104 1.363 . S
C1105 C1111 1.363 . S
C1106 C1107 1.363 . S
C1106 C1111 1.379 . S
C1106 N1113 1.356 . S
C1107 C1106 1.363 . S
C1107 C1110 1.363 . S
N1108 C1110 1.356 . S
N1108 H1120 0.984 . S
N1108 H1121 0.985 . S
N1109 C1111 1.356 . S
N1109 H1114 0.984 . S
N1109 H1115 0.985 . S
C1110 C1104 1.379 . S
C1110 C1107 1.363 . S
C1110 N1108 1.356 . S
C1111 C1105 1.363 . S
C1111 C1106 1.379 . S
C1111 N1109 1.356 . S
N1112 C1104 1.356 . S
N1112 H1118 0.984 . S
N1112 H1119 0.984 . S
N1113 C1106 1.356 . S
N1113 H1116 0.984 . S
N1113 H1117 0.985 . S
H1114 N1109 0.984 . S
H1115 N1109 0.985 . S
H1116 N1113 0.984 . S
H1117 N1113 0.985 . S
H1118 N1112 0.984 . S
H1119 N1112 0.984 . S
H1120 N1108 0.984 . S
H1121 N1108 0.985 . S
C1122 C1123 1.363 . S
C1122 C1128 1.379 . S
C1122 N1130 1.356 . S
C1123 C1122 1.363 . S
C1123 C1129 1.363 . S
C1124 C1125 1.363 . S
C1124 C1129 1.379 . S
C1124 N1131 1.356 . S
C1125 C1124 1.363 . S
C1125 C1128 1.363 . S
N1126 C1128 1.356 . S
N1126 H1138 0.984 . S
N1126 H1139 0.985 . S
N1127 C1129 1.356 . S
N1127 H1132 0.984 . S
N1127 H1133 0.985 . S
C1128 C1122 1.379 . S
C1128 C1125 1.363 . S
C1128 N1126 1.356 . S
C1129 C1123 1.363 . S
C1129 C1124 1.379 . S
C1129 N1127 1.356 . S
N1130 C1122 1.356 . S
N1130 H1136 0.984 . S
N1130 H1137 0.984 . S
N1131 C1124 1.356 . S
N1131 H1134 0.984 . S
N1131 H1135 0.985 . S
H1132 N1127 0.984 . S
H1133 N1127 0.985 . S
H1134 N1131 0.984 . S
H1135 N1131 0.985 . S
H1136 N1130 0.984 . S
H1137 N1130 0.984 . S
H1138 N1126 0.984 . S
H1139 N1126 0.985 . S
C709 C5 1.565 . S
C711 C359 1.565 . S
C727 C64 1.565 . S
C729 C418 1.565 . S
C745 C123 1.565 . S
C747 C477 1.565 . S
C763 C182 1.565 . S
C765 C536 1.565 . S
C781 C241 1.565 . S
C783 C595 1.565 . S
C799 C654 1.565 . S
C801 C300 1.565 . S
C817 C3 1.424 . S
C819 C593 1.424 . S
C835 C62 1.425 . S
C837 C652 1.425 . S
C853 C121 1.425 . S
C855 C357 1.425 . S
C871 C180 1.424 . S
C873 C416 1.424 . S
C889 C239 1.425 . S
C891 C475 1.425 . S
C907 C298 1.425 . S
C909 C534 1.425 . S
C925 C33 1.452 . S
C927 C210 1.452 . S
C943 C92 1.455 . S
C945 C269 1.455 . S
C961 C328 1.454 . S
C963 C151 1.454 . S
C979 C387 1.456 . S
C981 C564 1.456 . S
C997 C623 1.453 . S
C999 C446 1.453 . S
C1015 C505 1.454 . S
C1017 C682 1.454 . S
C1033 C406 1.108 . S
C1035 C52 1.108 . S
C1051 C111 1.108 . S
C1053 C465 1.108 . S
C1069 C170 1.108 . S
C1071 C524 1.108 . S
C1087 C583 1.108 . S
C1089 C229 1.108 . S
C1105 C642 1.108 . S
C1107 C288 1.108 . S
C1123 C347 1.108 . S
C1125 C701 1.108 . S
