# Generated by pormake.
# Topology fcu, (12)-cn, num edge types: 1
# Building blocks:
#     Node 0, Type 0, BuildingBlock: ZALLEG_clean_sbu_0, # of connection points: 12
#     Node 1, Type 0, BuildingBlock: ZALLEG_clean_sbu_0, # of connection points: 12
#     Node 2, Type 0, BuildingBlock: ZALLEG_clean_sbu_0, # of connection points: 12
#     Node 3, Type 0, BuildingBlock: ZALLEG_clean_sbu_0, # of connection points: 12
#     Edge 4, Type (0, 0), BuildingBlock: EZIPEK_clean_linker_0, # of connection points: 2
#     Edge 5, Type (0, 0), BuildingBlock: EZIPEK_clean_linker_0, # of connection points: 2
#     Edge 6, Type (0, 0), BuildingBlock: EZIPEK_clean_linker_0, # of connection points: 2
#     Edge 7, Type (0, 0), BuildingBlock: EZIPEK_clean_linker_0, # of connection points: 2
#     Edge 8, Type (0, 0), BuildingBlock: EZIPEK_clean_linker_0, # of connection points: 2
#     Edge 9, Type (0, 0), BuildingBlock: EZIPEK_clean_linker_0, # of connection points: 2
#     Edge 10, Type (0, 0), BuildingBlock: EZIPEK_clean_linker_0, # of connection points: 2
#     Edge 11, Type (0, 0), BuildingBlock: EZIPEK_clean_linker_0, # of connection points: 2
#     Edge 12, Type (0, 0), BuildingBlock: EZIPEK_clean_linker_0, # of connection points: 2
#     Edge 13, Type (0, 0), BuildingBlock: EZIPEK_clean_linker_0, # of connection points: 2
#     Edge 14, Type (0, 0), BuildingBlock: EZIPEK_clean_linker_0, # of connection points: 2
#     Edge 15, Type (0, 0), BuildingBlock: EZIPEK_clean_linker_0, # of connection points: 2
#     Edge 16, Type (0, 0), BuildingBlock: EZIPEK_clean_linker_0, # of connection points: 2
#     Edge 17, Type (0, 0), BuildingBlock: EZIPEK_clean_linker_0, # of connection points: 2
#     Edge 18, Type (0, 0), BuildingBlock: EZIPEK_clean_linker_0, # of connection points: 2
#     Edge 19, Type (0, 0), BuildingBlock: EZIPEK_clean_linker_0, # of connection points: 2
#     Edge 20, Type (0, 0), BuildingBlock: EZIPEK_clean_linker_0, # of connection points: 2
#     Edge 21, Type (0, 0), BuildingBlock: EZIPEK_clean_linker_0, # of connection points: 2
#     Edge 22, Type (0, 0), BuildingBlock: EZIPEK_clean_linker_0, # of connection points: 2
#     Edge 23, Type (0, 0), BuildingBlock: EZIPEK_clean_linker_0, # of connection points: 2
#     Edge 24, Type (0, 0), BuildingBlock: EZIPEK_clean_linker_0, # of connection points: 2
#     Edge 25, Type (0, 0), BuildingBlock: EZIPEK_clean_linker_0, # of connection points: 2
#     Edge 26, Type (0, 0), BuildingBlock: EZIPEK_clean_linker_0, # of connection points: 2
#     Edge 27, Type (0, 0), BuildingBlock: EZIPEK_clean_linker_0, # of connection points: 2
# Relax obj value: 0.000
# Max RMSD: 0.000
# Mean RMSD: 0.000
data_MOF--net-fcu--node1-ZALLEG_clean_sbu_0--edge1-EZIPEK_clean_linker_0
_symmetry_space_group_name_H-M    P1
_symmetry_Int_Tables_number       1
_symmetry_cell_setting            triclinic
loop_
_symmetry_equiv_pos_as_xyz
'x, y, z'
_cell_length_a     20.746104
_cell_length_b     20.903876
_cell_length_c     20.89414
_cell_angle_alpha  89.970247
_cell_angle_beta   90.167711
_cell_angle_gamma 90.071157
loop_
_atom_site_label
_atom_site_type_symbol
_atom_site_fract_x
_atom_site_fract_y
_atom_site_fract_z
_atom_type_partial_charge
H0 H 0.9319 0.928 0.92891 0.0
O1 O 0.95987 0.955 0.95606 0.0
Tb2 Tb 0.90314 0.01427 0.01472 0.0
Tb3 Tb 0.01832 0.89796 0.01527 0.0
Tb4 Tb 0.02024 1.0122 0.89879 0.0
O5 O 0.95955 0.95502 0.07381 0.0
O6 O 0.96095 0.07127 0.9552 0.0
O7 O 0.96087 0.07296 0.07317 0.0
O8 O 0.07799 0.95429 0.07421 0.0
O9 O 0.07921 0.0715 0.95549 0.0
O10 O 0.07853 0.95324 0.95616 0.0
H11 H 0.9321 0.92752 0.10083 0.0
H12 H 0.93309 0.09815 0.92793 0.0
Tb13 Tb 0.01916 1.01383 0.13062 0.0
Tb14 Tb 0.02013 0.12866 1.01334 0.0
H15 H 0.93381 0.10066 0.10026 0.0
H16 H 0.1058 0.92699 0.10119 0.0
Tb17 Tb 0.13522 1.01218 0.01528 0.0
H18 H 0.10659 0.09906 0.92842 0.0
H19 H 0.10577 0.92583 0.92894 0.0
O20 O 0.07841 0.07183 0.07326 0.0
H21 H 0.10584 0.09919 0.1006 0.0
O22 O 0.84722 0.92381 0.01533 0.0
O23 O 0.19349 0.09925 0.01675 0.0
O24 O 0.18934 0.92115 1.01397 0.0
O25 O 0.84853 0.10502 0.01729 0.0
O26 O 1.0127 0.84242 0.92577 0.0
O27 O 0.01977 0.18566 0.10184 0.0
O28 O 1.01231 0.18176 0.92247 0.0
O29 O 0.0205 0.84364 0.10562 0.0
O30 O 0.92867 1.0135 0.84424 0.0
O31 O 0.10949 1.01334 0.1862 0.0
O32 O 0.92808 1.00635 0.18409 0.0
O33 O 0.11205 1.00999 0.84513 0.0
O34 O 0.9283 0.84293 0.01666 0.0
O35 O 0.11358 0.18122 1.01307 0.0
O36 O 0.93015 0.18466 1.00997 0.0
O37 O 0.10733 0.84114 1.01408 0.0
O38 O 0.8484 0.02087 0.10425 0.0
O39 O 0.19164 0.01765 0.92696 0.0
O40 O 0.19041 1.01298 0.10526 0.0
O41 O 0.84724 0.01471 0.92497 0.0
O42 O 0.02044 0.92426 0.18647 0.0
O43 O 0.02491 0.10165 0.84311 0.0
O44 O 0.02171 0.9216 0.84444 0.0
O45 O 0.0186 0.10621 0.18403 0.0
C46 C 0.8669 0.86252 0.01566 0.0
C47 C 0.17501 0.1604 0.01546 0.0
C48 C 0.16894 0.86018 1.01351 0.0
C49 C 0.86831 0.16617 1.01387 0.0
C50 C 1.0169 0.86065 0.86435 0.0
C51 C 0.01888 0.16732 0.16333 0.0
C52 C 1.01783 0.16271 0.86134 0.0
C53 C 0.02103 0.86312 0.16684 0.0
C54 C 0.86704 0.01444 0.86393 0.0
C55 C 0.17091 1.01314 0.16637 0.0
C56 C 0.86664 1.01366 0.16521 0.0
C57 C 0.17346 1.01373 0.86562 0.0
H58 H 0.93091 0.42556 0.43007 0.0
O59 O 0.95814 0.45348 0.45704 0.0
Tb60 Tb 0.90099 0.51172 0.51644 0.0
Tb61 Tb 0.01904 0.39778 0.5151 0.0
Tb62 Tb 1.01539 0.51294 0.39917 0.0
O63 O 0.95986 0.45434 0.57412 0.0
O64 O 0.95616 0.5712 0.45585 0.0
O65 O 0.95756 0.57247 0.57346 0.0
O66 O 0.07785 0.45639 0.5728 0.0
O67 O 0.07459 0.57314 0.4547 0.0
O68 O 0.07637 0.45504 0.45527 0.0
H69 H 0.93252 0.42718 0.60158 0.0
H70 H 0.92858 0.59792 0.42811 0.0
Tb71 Tb 0.01886 0.515 0.62943 0.0
Tb72 Tb 1.01505 0.62962 0.51333 0.0
H73 H 0.92966 0.59937 0.60055 0.0
H74 H 0.10566 0.42979 0.60038 0.0
Tb75 Tb 0.13332 0.51544 0.51283 0.0
H76 H 0.10201 0.60042 0.42743 0.0
H77 H 0.10382 0.4278 0.42808 0.0
O78 O 0.0763 0.57418 0.57191 0.0
H79 H 0.10355 0.60163 0.59935 0.0
O80 O 0.84737 0.42068 0.51543 0.0
O81 O 0.18726 0.6063 0.51435 0.0
O82 O 0.19016 0.42646 0.5099 0.0
O83 O 0.84379 0.59987 0.51072 0.0
O84 O 0.01892 0.3436 0.42262 0.0
O85 O 1.01532 0.6856 0.60284 0.0
O86 O 1.01308 0.68333 0.42185 0.0
O87 O 0.02205 0.34449 0.60658 0.0
O88 O 0.92167 0.51235 0.34722 0.0
O89 O 0.11127 0.51472 0.68278 0.0
O90 O 0.93171 0.51436 0.68804 0.0
O91 O 0.1051 0.51186 0.34303 0.0
O92 O 0.92969 0.34109 0.5181 0.0
O93 O 0.10481 0.68591 0.51272 0.0
O94 O 0.9229 0.68245 0.51514 0.0
O95 O 0.1106 0.34502 0.5202 0.0
O96 O 0.84835 0.51228 0.60926 0.0
O97 O 0.18775 0.51647 0.42249 0.0
O98 O 0.19112 0.51484 0.6009 0.0
O99 O 0.8423 0.50929 0.42969 0.0
O100 O 1.01394 0.42638 0.68518 0.0
O101 O 0.02017 0.60152 0.34303 0.0
O102 O 1.01599 0.42494 0.34242 0.0
O103 O 1.01619 0.60509 0.68376 0.0
C104 C 0.86787 0.3598 0.51677 0.0
C105 C 0.16664 0.66712 0.51382 0.0
C106 C 0.17189 0.36517 0.51574 0.0
C107 C 0.86168 0.66144 0.51292 0.0
C108 C 1.01773 0.36382 0.3612 0.0
C109 C 1.01514 0.66618 0.66411 0.0
C110 C 1.01677 0.66292 0.36089 0.0
C111 C 0.01863 0.36505 0.66751 0.0
C112 C 0.86046 0.50998 0.36844 0.0
C113 C 0.17253 0.51428 0.66214 0.0
C114 C 0.86986 0.51298 0.67016 0.0
C115 C 0.16698 0.51376 0.36174 0.0
H116 H 0.43065 0.92951 0.42824 0.0
O117 O 0.45893 0.95606 0.45543 0.0
Tb118 Tb 0.40175 0.0145 0.51339 0.0
Tb119 Tb 0.5163 0.8981 0.5146 0.0
Tb120 Tb 0.51989 0.01439 0.39959 0.0
O121 O 0.45795 0.9554 0.573 0.0
O122 O 0.45948 0.07317 0.45501 0.0
O123 O 0.45935 0.07237 0.57291 0.0
O124 O 0.57622 0.95375 0.57427 0.0
O125 O 0.5791 0.07213 0.45655 0.0
O126 O 0.57684 0.954 0.4564 0.0
H127 H 0.4301 0.92827 0.59999 0.0
H128 H 0.4325 0.10115 0.42787 0.0
Tb129 Tb 0.51785 1.01339 0.63052 0.0
Tb130 Tb 0.51891 0.12834 0.51442 0.0
H131 H 0.43235 0.10006 0.60008 0.0
H132 H 0.60338 0.92625 0.60171 0.0
Tb133 Tb 0.63413 1.01211 0.51602 0.0
H134 H 0.60706 0.09909 0.4295 0.0
H135 H 0.60327 0.92611 0.42883 0.0
O136 O 0.57744 0.07127 0.57398 0.0
H137 H 0.60547 0.09793 0.60135 0.0
O138 O 0.34429 0.92608 0.51298 0.0
O139 O 0.68885 0.10374 0.5157 0.0
O140 O 0.68827 0.92155 0.51664 0.0
O141 O 0.34637 0.10331 0.5173 0.0
O142 O 0.51358 0.84408 0.42386 0.0
O143 O 0.52656 0.18241 0.60337 0.0
O144 O 0.52099 0.1841 0.42511 0.0
O145 O 0.51667 0.84287 0.60473 0.0
O146 O 0.43248 0.01533 0.34138 0.0
O147 O 0.61046 1.01303 0.6849 0.0
O148 O 0.42724 0.01477 0.68446 0.0
O149 O 0.61204 0.0161 0.34697 0.0
O150 O 0.42445 0.84435 0.51456 0.0
O151 O 0.60758 0.18447 0.51435 0.0
O152 O 0.42787 0.18372 0.51575 0.0
O153 O 0.60568 0.84199 0.51329 0.0
O154 O 0.34603 0.01414 0.60312 0.0
O155 O 0.69063 1.00499 0.42884 0.0
O156 O 0.69137 1.01217 0.60395 0.0
O157 O 0.3493 0.01583 0.4202 0.0
O158 O 0.51493 0.92341 0.68566 0.0
O159 O 0.5202 0.10413 0.34394 0.0
O160 O 0.51714 0.92473 0.34515 0.0
O161 O 0.51392 0.10442 0.68434 0.0
C162 C 0.3631 0.86481 0.51406 0.0
C163 C 0.66886 0.16503 0.51572 0.0
C164 C 0.66745 0.86082 0.51451 0.0
C165 C 0.36605 0.16428 0.51662 0.0
C166 C 0.5105 0.86353 0.36281 0.0
C167 C 0.52063 0.1653 0.66448 0.0
C168 C 0.5211 0.16515 0.3638 0.0
C169 C 0.51575 0.86222 0.66604 0.0
C170 C 0.3708 0.01583 0.35938 0.0
C171 C 0.67219 1.01244 0.6649 0.0
C172 C 0.36577 0.01491 0.66437 0.0
C173 C 0.67321 1.01101 0.36773 0.0
H174 H 0.43031 0.42744 0.92975 0.0
O175 O 0.45812 0.45494 0.95655 0.0
Tb176 Tb 0.40093 0.51538 1.01332 0.0
Tb177 Tb 0.51591 0.39886 0.01765 0.0
Tb178 Tb 0.51916 0.51171 0.89941 0.0
O179 O 0.45719 0.45745 0.07436 0.0
O180 O 0.45945 0.57198 0.95386 0.0
O181 O 0.45803 0.57442 0.0718 0.0
O182 O 0.57528 0.45639 0.07526 0.0
O183 O 0.57828 0.57154 0.95547 0.0
O184 O 0.57673 0.45371 0.9585 0.0
H185 H 0.43 0.43062 0.10226 0.0
H186 H 0.4323 0.59865 0.92562 0.0
Tb187 Tb 0.5163 0.51675 0.13054 0.0
Tb188 Tb 0.51876 0.62921 1.01237 0.0
H189 H 0.43002 0.60169 0.0984 0.0
H190 H 0.6025 0.42892 0.1026 0.0
Tb191 Tb 0.63396 0.51335 0.01631 0.0
H192 H 0.6061 0.59854 0.92829 0.0
H193 H 0.60445 0.42594 0.93216 0.0
O194 O 0.57698 0.57384 0.07351 0.0
H195 H 0.60424 0.60136 0.10086 0.0
O196 O 0.34466 0.42576 0.01787 0.0
O197 O 0.69068 0.60245 0.01656 0.0
O198 O 0.68849 0.42314 0.01708 0.0
O199 O 0.34853 0.6083 1.01171 0.0
O200 O 0.50876 0.34299 0.92865 0.0
O201 O 0.5115 0.68601 0.10028 0.0
O202 O 0.51679 0.68213 0.92103 0.0
O203 O 0.51444 0.3462 0.11002 0.0
O204 O 0.42816 0.51003 0.84362 0.0
O205 O 0.60623 0.51653 0.18669 0.0
O206 O 0.42295 0.51593 0.18326 0.0
O207 O 0.60991 0.51083 0.84487 0.0
O208 O 0.42523 0.34451 0.01845 0.0
O209 O 0.61004 0.6837 0.01426 0.0
O210 O 0.4316 0.68735 1.01022 0.0
O211 O 0.60636 0.34296 0.01689 0.0
O212 O 0.34311 0.51485 0.10081 0.0
O213 O 0.69028 0.51254 0.92678 0.0
O214 O 0.68834 0.51121 0.10704 0.0
O215 O 0.3458 0.51269 0.92314 0.0
O216 O 0.52105 0.42882 0.18798 0.0
O217 O 0.52204 0.60019 0.84203 0.0
O218 O 0.52672 0.42013 0.84793 0.0
O219 O 0.51857 0.60836 0.18293 0.0
C220 C 0.36384 0.36444 0.01886 0.0
C221 C 0.67147 0.66367 0.01564 0.0
C222 C 0.66822 0.36217 0.01704 0.0
C223 C 0.36993 0.66918 1.01057 0.0
C224 C 0.51752 0.35967 0.86748 0.0
C225 C 0.51421 0.669 0.16197 0.0
C226 C 0.51896 0.66169 0.86016 0.0
C227 C 0.51785 0.36715 0.17091 0.0
C228 C 0.36623 0.51041 0.86238 0.0
C229 C 0.66791 0.51316 0.16788 0.0
C230 C 0.3614 0.51582 0.16228 0.0
C231 C 0.67126 0.51145 0.86529 0.0
C232 C 0.07628 0.25239 0.22772 0.0
C233 C 0.01829 0.21964 0.2121 0.0
C234 C 0.95907 0.29273 0.28284 0.0
C235 C 0.0181 0.31529 0.30866 0.0
N236 N 0.13345 0.32377 0.29982 0.0
N237 N 0.90264 0.21205 0.2214 0.0
C238 C 0.07697 0.2971 0.27934 0.0
C239 C 0.95915 0.24066 0.23893 0.0
N240 N 0.12969 0.24362 0.19071 0.0
N241 N 0.90333 0.32456 0.29619 0.0
H242 H 0.89985 0.17795 0.18509 0.0
H243 H 0.8591 0.21988 0.24484 0.0
H244 H 0.90232 0.3645 0.32595 0.0
H245 H 0.85968 0.31547 0.27317 0.0
H246 H 0.17151 0.27088 0.19479 0.0
H247 H 0.13032 0.2123 0.15196 0.0
H248 H 0.17877 0.30698 0.28674 0.0
H249 H 0.13478 0.36119 0.3327 0.0
C250 C 0.82976 0.04516 0.2764 0.0
C251 C 0.81587 0.01476 0.2165 0.0
C252 C 0.71396 0.97499 0.26147 0.0
C253 C 0.72509 1.00944 0.31861 0.0
N254 N 0.8017 0.06606 0.38616 0.0
N255 N 0.73179 0.96651 0.14902 0.0
C256 C 0.78523 0.04108 0.32785 0.0
C257 C 0.75434 0.98467 0.20784 0.0
N258 N 0.88246 0.0841 0.28273 0.0
N259 N 0.66817 0.9278 0.25997 0.0
H260 H 0.75748 0.96668 0.10669 0.0
H261 H 0.68369 0.95394 0.14139 0.0
H262 H 0.64185 0.9141 0.30015 0.0
H263 H 0.66299 0.89612 0.22179 0.0
H264 H 0.89003 0.11517 0.32093 0.0
H265 H 0.91595 0.09213 0.24713 0.0
H266 H 0.84914 0.0747 0.40015 0.0
H267 H 0.76949 0.07651 0.4224 0.0
C268 C 0.07104 0.80898 0.26316 0.0
C269 C 0.02104 0.81219 0.21669 0.0
C270 C 0.97651 0.71114 0.25677 0.0
C271 C 0.02055 0.71236 0.30915 0.0
N272 N 0.11275 0.76126 0.3606 0.0
N273 N 0.91966 0.77219 0.17662 0.0
C274 C 0.06837 0.76137 0.31214 0.0
C275 C 0.97227 0.76473 0.21539 0.0
N276 N 0.12303 0.84895 0.25823 0.0
N277 N 0.93943 0.6585 0.24467 0.0
H278 H 0.91402 0.81109 0.1461 0.0
H279 H 0.87877 0.74332 0.17946 0.0
H280 H 0.93732 0.61857 0.274 0.0
H281 H 0.91432 0.65217 0.20186 0.0
H282 H 0.16464 0.8447 0.28583 0.0
H283 H 0.1272 0.88338 0.22244 0.0
H284 H 0.14269 0.79987 0.37113 0.0
H285 H 0.11894 0.72267 0.39146 0.0
C286 C 0.30852 0.95752 0.27401 0.0
C287 C 0.32266 0.01505 0.30701 0.0
C288 C 0.23531 0.06928 0.25107 0.0
C289 C 0.22211 1.01285 0.2159 0.0
N290 N 0.25709 0.90805 0.1825 0.0
N291 N 0.32056 0.1298 0.30142 0.0
C292 C 0.26211 0.95829 0.22383 0.0
C293 C 0.2922 0.07241 0.28837 0.0
N294 N 0.33958 0.90235 0.29031 0.0
N295 N 0.19406 0.11996 0.24905 0.0
H296 H 0.36474 0.133 0.32517 0.0
H297 H 0.30308 0.17309 0.28365 0.0
H298 H 0.15152 0.1194 0.22249 0.0
H299 H 0.20026 0.16058 0.27734 0.0
H300 H 0.32636 0.85743 0.27315 0.0
H301 H 0.37729 0.90152 0.32326 0.0
H302 H 0.29017 0.87067 0.18097 0.0
H303 H 0.22272 0.90644 0.14619 0.0
C304 C 0.96877 0.81291 0.76324 0.0
C305 C 1.01467 0.80942 0.81415 0.0
C306 C 0.06324 0.71516 0.76307 0.0
C307 C 1.01499 0.71616 0.7149 0.0
N308 N 0.91385 0.75814 0.67641 0.0
N309 N 0.09709 0.74723 0.86854 0.0
C310 C 0.96572 0.76312 0.7167 0.0
C311 C 0.05898 0.75739 0.81611 0.0
N312 N 0.92715 0.86332 0.75954 0.0
N313 N 0.11547 0.67598 0.75665 0.0
H314 H 0.09998 0.77813 0.90719 0.0
H315 H 0.12297 0.70517 0.87592 0.0
H316 H 0.12118 0.64498 0.71816 0.0
H317 H 0.15615 0.67884 0.78584 0.0
H318 H 0.89955 0.87355 0.7191 0.0
H319 H 0.92189 0.89671 0.79593 0.0
H320 H 0.87252 0.78605 0.68045 0.0
H321 H 0.90912 0.72199 0.64243 0.0
C322 C 0.22196 0.06401 0.76696 0.0
C323 C 0.22519 0.0169 0.81618 0.0
C324 C 0.31697 0.96661 0.76225 0.0
C325 C 0.31576 0.015 0.71487 0.0
N326 N 0.27563 0.11694 0.67843 0.0
N327 N 0.29019 0.93628 0.86977 0.0
C328 C 0.27024 0.06552 0.71857 0.0
C329 C 0.27701 0.97224 0.81679 0.0
N330 N 0.17406 0.10883 0.76765 0.0
N331 N 0.35449 0.91347 0.75413 0.0
H332 H 0.26269 0.93651 0.91108 0.0
H333 H 0.3324 0.90972 0.87484 0.0
H334 H 0.384 0.90671 0.71447 0.0
H335 H 0.35122 0.87313 0.78328 0.0
H336 H 0.16303 0.13817 0.72887 0.0
H337 H 0.14423 0.11606 0.80695 0.0
H338 H 0.24872 0.15868 0.68292 0.0
H339 H 0.31106 0.12037 0.64344 0.0
C340 C 0.05235 0.32283 0.77705 0.0
C341 C 1.01662 0.3155 0.71917 0.0
C342 C 0.98298 0.20776 0.7526 0.0
C343 C 0.01849 0.21427 0.81095 0.0
N344 N 0.09388 0.27602 0.87448 0.0
N345 N 0.92774 0.26259 0.66688 0.0
C346 C 0.05386 0.27194 0.82253 0.0
C347 C 0.97672 0.26105 0.71089 0.0
N348 N 0.08499 0.37847 0.78916 0.0
N349 N 0.95523 0.15098 0.73544 0.0
H350 H 0.91705 0.30302 0.63972 0.0
H351 H 0.89214 0.2275 0.66366 0.0
H352 H 0.9514 0.11126 0.76481 0.0
H353 H 0.93827 0.14208 0.68927 0.0
H354 H 0.10053 0.39296 0.83421 0.0
H355 H 0.09529 0.41275 0.7549 0.0
H356 H 0.12326 0.31466 0.88549 0.0
H357 H 0.10315 0.23814 0.90501 0.0
C358 C 0.74916 0.0732 0.73609 0.0
C359 C 0.72422 1.0139 0.71388 0.0
C360 C 0.78894 0.95666 0.79298 0.0
C361 C 0.8164 0.01516 0.81372 0.0
N362 N 0.82855 0.12916 0.80118 0.0
N363 N 0.74144 0.90052 0.70362 0.0
C364 C 0.79826 0.07362 0.78404 0.0
C365 C 0.7502 0.95588 0.73712 0.0
N366 N 0.72662 0.12885 0.71032 0.0
N367 N 0.79838 0.90197 0.82741 0.0
H368 H 0.71562 0.89898 0.66075 0.0
H369 H 0.76478 0.85793 0.71536 0.0
H370 H 0.82534 0.90117 0.86956 0.0
H371 H 0.77497 0.85905 0.81692 0.0
H372 H 0.73664 0.17407 0.72855 0.0
H373 H 0.69488 0.1293 0.67165 0.0
H374 H 0.82205 0.17278 0.77812 0.0
H375 H 0.86352 0.13116 0.83707 0.0
C376 C 0.27314 0.30378 0.96711 0.0
C377 C 0.3136 0.31369 0.02099 0.0
C378 C 0.26452 0.21975 0.07265 0.0
C379 C 0.22719 0.209 0.01663 0.0
N380 N 0.22261 0.22238 0.9026 0.0
N381 N 0.35461 0.27526 0.12238 0.0
C382 C 0.23908 0.2456 0.96139 0.0
C383 C 0.31161 0.26963 0.07299 0.0
N384 N 0.26571 0.3499 0.9217 0.0
N385 N 0.25482 0.18257 0.12541 0.0
H386 H 0.38706 0.31308 0.1262 0.0
H387 H 0.36072 0.24089 0.15793 0.0
H388 H 0.22332 0.14377 0.12538 0.0
H389 H 0.27503 0.1922 0.16998 0.0
H390 H 0.23288 0.34545 0.88409 0.0
H391 H 0.28685 0.39485 0.92526 0.0
H392 H 0.23602 0.24498 0.86012 0.0
H393 H 0.20104 0.1776 0.89672 0.0
C394 C 0.30351 0.75206 0.95338 0.0
C395 C 0.3215 0.72118 1.01108 0.0
C396 C 0.23858 0.77987 0.06944 0.0
C397 C 0.21903 0.80977 1.01176 0.0
N398 N 0.22484 0.81646 0.89677 0.0
N399 N 0.32635 0.72886 0.12585 0.0
C400 C 0.24958 0.79406 0.9531 0.0
C401 C 0.29477 0.74146 0.06983 0.0
N402 N 0.34116 0.74534 0.90027 0.0
N403 N 0.20189 0.78559 0.12329 0.0
H404 H 0.36938 0.7031 0.12751 0.0
H405 H 0.31278 0.74855 0.16961 0.0
H406 H 0.15916 0.81179 0.12434 0.0
H407 H 0.21132 0.76041 0.16533 0.0
H408 H 0.33516 0.77214 0.85867 0.0
H409 H 0.38239 0.71687 0.89972 0.0
H410 H 0.23935 0.80018 0.85198 0.0
H411 H 0.18653 0.84865 0.89482 0.0
C412 C 0.76602 0.31017 0.0654 0.0
C413 C 0.71893 0.312 0.01628 0.0
C414 C 0.76625 0.21589 0.96834 0.0
C415 C 0.81754 0.21737 1.01397 0.0
N416 N 0.87239 0.27747 0.09755 0.0
N417 N 0.68555 0.2771 0.91149 0.0
C418 C 0.8195 0.26809 0.05975 0.0
C419 C 0.72199 0.26766 0.96521 0.0
N420 N 0.75858 0.34689 0.119 0.0
N421 N 0.75932 0.16554 0.92732 0.0
H422 H 0.6534 0.31507 0.90667 0.0
H423 H 0.69192 0.25112 0.86941 0.0
H424 H 0.79226 0.12845 0.92386 0.0
H425 H 0.71827 0.15868 0.89925 0.0
H426 H 0.78719 0.34188 0.15978 0.0
H427 H 0.71986 0.37792 0.12526 0.0
H428 H 0.87903 0.31839 0.12529 0.0
H429 H 0.91204 0.24743 0.0981 0.0
C430 C 0.77892 0.80137 0.07142 0.0
C431 C 0.81691 0.8115 0.01581 0.0
C432 C 0.76117 0.72314 0.96112 0.0
C433 C 0.72267 0.71348 0.01636 0.0
N434 N 0.69963 0.736 0.12689 0.0
N435 N 0.85235 0.77631 0.91167 0.0
C436 C 0.73274 0.75078 0.07231 0.0
C437 C 0.81043 0.7706 0.96182 0.0
N438 N 0.7883 0.83938 0.12386 0.0
N439 N 0.74911 0.68813 0.90715 0.0
H440 H 0.8866 0.81259 0.90844 0.0
H441 H 0.85594 0.74343 0.8745 0.0
H442 H 0.71555 0.65109 0.9058 0.0
H443 H 0.76912 0.69795 0.86263 0.0
H444 H 0.76054 0.83796 0.16512 0.0
H445 H 0.82405 0.87435 0.12615 0.0
H446 H 0.70714 0.75709 0.17129 0.0
H447 H 0.66558 0.69937 0.129 0.0
C448 C 0.76243 0.45643 0.80771 0.0
C449 C 0.72266 0.51125 0.81578 0.0
C450 C 0.78905 0.56975 0.73867 0.0
C451 C 0.82157 0.51256 0.72262 0.0
N452 N 0.84292 0.40126 0.74386 0.0
N453 N 0.6927 0.61774 0.78168 0.0
C454 C 0.80949 0.45575 0.75797 0.0
C455 C 0.73415 0.56711 0.77888 0.0
N456 N 0.7556 0.4054 0.84804 0.0
N457 N 0.81355 0.62726 0.71955 0.0
H458 H 0.65271 0.61882 0.8117 0.0
H459 H 0.69583 0.65692 0.75095 0.0
H460 H 0.8554 0.63088 0.69224 0.0
H461 H 0.79582 0.67101 0.73567 0.0
H462 H 0.78706 0.36671 0.84956 0.0
H463 H 0.72028 0.4035 0.88326 0.0
H464 H 0.83175 0.35633 0.76225 0.0
H465 H 0.88025 0.40021 0.7106 0.0
C466 C 0.25247 0.56966 0.73279 0.0
C467 C 0.22423 0.51201 0.71114 0.0
C468 C 0.2945 0.45166 0.78407 0.0
C469 C 0.31597 0.51009 0.81151 0.0
N470 N 0.3016 0.62387 0.82228 0.0
N471 N 0.21491 0.39721 0.71852 0.0
C472 C 0.29087 0.56888 0.78891 0.0
C473 C 0.24423 0.45261 0.7375 0.0
N474 N 0.24471 0.62483 0.69864 0.0
N475 N 0.32248 0.39538 0.80194 0.0
H476 H 0.18034 0.39574 0.68223 0.0
H477 H 0.22188 0.35333 0.74111 0.0
H478 H 0.35643 0.3925 0.83871 0.0
H479 H 0.31483 0.35218 0.77827 0.0
H480 H 0.26927 0.66701 0.70954 0.0
H481 H 0.21829 0.62668 0.65614 0.0
H482 H 0.27917 0.66702 0.81087 0.0
H483 H 0.32817 0.6245 0.86463 0.0
C484 C 0.22044 0.56734 0.26842 0.0
C485 C 0.21628 0.51411 0.31043 0.0
C486 C 0.29958 0.45868 0.2486 0.0
C487 C 0.30883 0.51423 0.21095 0.0
N488 N 0.26233 0.61151 0.17004 0.0
N489 N 0.25725 0.41174 0.34553 0.0
C490 C 0.26485 0.56593 0.21664 0.0
C491 C 0.25738 0.46054 0.30199 0.0
N492 N 0.1844 0.62085 0.28006 0.0
N493 N 0.32571 0.40213 0.22909 0.0
H494 H 0.22579 0.40984 0.38424 0.0
H495 H 0.29133 0.37518 0.34558 0.0
H496 H 0.35488 0.3988 0.18874 0.0
H497 H 0.31373 0.35805 0.24916 0.0
H498 H 0.19126 0.66435 0.25674 0.0
H499 H 0.15093 0.62371 0.31701 0.0
H500 H 0.22516 0.64463 0.16593 0.0
H501 H 0.29362 0.61213 0.13135 0.0
C502 C 0.75759 0.56473 0.22969 0.0
C503 C 0.71753 0.51079 0.21909 0.0
C504 C 0.76951 0.4554 0.30946 0.0
C505 C 0.80799 0.51062 0.32029 0.0
N506 N 0.81781 0.6246 0.30841 0.0
N507 N 0.67925 0.40705 0.25283 0.0
C508 C 0.79616 0.56731 0.28549 0.0
C509 C 0.72141 0.4568 0.26049 0.0
N510 N 0.75984 0.61332 0.18617 0.0
N511 N 0.77929 0.40179 0.34569 0.0
H512 H 0.64677 0.40449 0.21485 0.0
H513 H 0.67433 0.36943 0.28505 0.0
H514 H 0.81154 0.40046 0.38399 0.0
H515 H 0.75794 0.35767 0.33652 0.0
H516 H 0.79275 0.6509 0.18929 0.0
H517 H 0.73334 0.61281 0.14386 0.0
H518 H 0.8044 0.66843 0.28863 0.0
H519 H 0.84421 0.62842 0.35079 0.0
C520 C 0.27125 0.80763 0.56821 0.0
C521 C 0.31152 0.8154 0.51387 0.0
C522 C 0.25837 0.72469 0.46087 0.0
C523 C 0.21653 0.71809 0.51414 0.0
N524 N 0.17865 0.75555 0.6166 0.0
N525 N 0.3345 0.79114 0.40378 0.0
C526 C 0.22149 0.7605 0.56717 0.0
C527 C 0.30279 0.7764 0.45902 0.0
N528 N 0.28203 0.84404 0.62156 0.0
N529 N 0.25591 0.68137 0.41189 0.0
H530 H 0.36807 0.82804 0.40111 0.0
H531 H 0.32462 0.77001 0.35972 0.0
H532 H 0.22117 0.64555 0.4088 0.0
H533 H 0.29052 0.67844 0.37602 0.0
H534 H 0.26007 0.83625 0.66557 0.0
H535 H 0.31643 0.88032 0.62317 0.0
H536 H 0.17422 0.7891 0.65306 0.0
H537 H 0.14504 0.7187 0.62017 0.0
C538 C 0.21631 0.2617 0.47247 0.0
C539 C 0.22288 0.31472 0.51484 0.0
C540 C 0.31626 0.26233 0.56495 0.0
C541 C 0.31491 0.21418 0.5175 0.0
N542 N 0.26411 0.16809 0.42441 0.0
N543 N 0.28704 0.36927 0.59555 0.0
C544 C 0.26459 0.21349 0.47129 0.0
C545 C 0.27538 0.31642 0.55898 0.0
N546 N 0.1644 0.25776 0.43222 0.0
N547 N 0.35282 0.25398 0.61878 0.0
H548 H 0.25749 0.40921 0.59628 0.0
H549 H 0.32917 0.37518 0.62224 0.0
H550 H 0.38117 0.21349 0.62635 0.0
H551 H 0.34944 0.28353 0.6588 0.0
H552 H 0.15001 0.21606 0.40901 0.0
H553 H 0.13365 0.29584 0.42335 0.0
H554 H 0.23211 0.16779 0.38613 0.0
H555 H 0.29844 0.13225 0.42099 0.0
C556 C 0.76004 0.7105 0.55804 0.0
C557 C 0.80961 0.71055 0.51099 0.0
C558 C 0.76029 0.80546 0.46115 0.0
C559 C 0.71675 0.80976 0.51323 0.0
N560 N 0.68132 0.77227 0.61649 0.0
N561 N 0.85684 0.75826 0.41657 0.0
C562 C 0.71813 0.76378 0.56293 0.0
C563 C 0.80999 0.75848 0.46247 0.0
N564 N 0.75136 0.65917 0.59748 0.0
N565 N 0.75172 0.84374 0.40867 0.0
H566 H 0.88897 0.72057 0.4104 0.0
H567 H 0.86528 0.79642 0.38566 0.0
H568 H 0.71472 0.87723 0.4052 0.0
H569 H 0.77727 0.83867 0.36618 0.0
H570 H 0.71043 0.65317 0.62567 0.0
H571 H 0.78185 0.61995 0.59895 0.0
H572 H 0.68657 0.74482 0.65782 0.0
H573 H 0.64973 0.81054 0.62224 0.0
C574 C 0.7245 0.25778 0.5694 0.0
C575 C 0.71835 0.21616 0.51598 0.0
C576 C 0.81235 0.26545 0.46579 0.0
C577 C 0.81751 0.30915 0.51763 0.0
N578 N 0.77413 0.35212 0.61572 0.0
N579 N 0.7412 0.19702 0.40483 0.0
C580 C 0.77201 0.30702 0.56843 0.0
C581 C 0.7581 0.22445 0.46181 0.0
N582 N 0.68561 0.24959 0.62148 0.0
N583 N 0.85912 0.26258 0.42013 0.0
H584 H 0.70015 0.16864 0.39952 0.0
H585 H 0.76425 0.20739 0.36179 0.0
H586 H 0.8986 0.2932 0.41926 0.0
H587 H 0.8611 0.22636 0.38592 0.0
H588 H 0.69216 0.27296 0.66497 0.0
H589 H 0.64832 0.21631 0.62277 0.0
H590 H 0.7379 0.35876 0.64939 0.0
H591 H 0.81104 0.38558 0.61968 0.0
C592 C 0.49254 0.32375 0.75426 0.0
C593 C 0.51655 0.30844 0.81661 0.0
C594 C 0.54995 0.203 0.77545 0.0
C595 C 0.52322 0.21716 0.71435 0.0
N596 N 0.48827 0.30264 0.64189 0.0
N597 N 0.55386 0.22301 0.8881 0.0
C598 C 0.50046 0.28061 0.70247 0.0
C599 C 0.54069 0.24523 0.82785 0.0
N600 N 0.45542 0.377 0.74472 0.0
N601 N 0.59123 0.15245 0.78234 0.0
H602 H 0.55773 0.25017 0.92928 0.0
H603 H 0.55885 0.17435 0.89799 0.0
H604 H 0.60566 0.12386 0.74441 0.0
H605 H 0.61882 0.14448 0.82333 0.0
H606 H 0.4284 0.38506 0.70337 0.0
H607 H 0.44376 0.40957 0.77997 0.0
H608 H 0.48808 0.35132 0.63089 0.0
H609 H 0.47962 0.27533 0.60154 0.0
C610 C 0.56629 0.80978 0.76297 0.0
C611 C 0.51622 0.8114 0.71634 0.0
C612 C 0.47116 0.71176 0.76027 0.0
C613 C 0.51924 0.71179 0.80906 0.0
N614 N 0.61266 0.76064 0.85782 0.0
N615 N 0.41456 0.77094 0.67768 0.0
C616 C 0.5665 0.76115 0.81089 0.0
C617 C 0.46722 0.76397 0.7166 0.0
N618 N 0.61551 0.85306 0.75951 0.0
N619 N 0.42897 0.6618 0.75527 0.0
H620 H 0.40936 0.8088 0.6457 0.0
H621 H 0.37321 0.74288 0.68095 0.0
H622 H 0.42554 0.62559 0.78912 0.0
H623 H 0.39958 0.65409 0.71553 0.0
H624 H 0.65637 0.85207 0.7883 0.0
H625 H 0.61774 0.88861 0.72482 0.0
H626 H 0.64262 0.79907 0.86867 0.0
H627 H 0.6204 0.72167 0.88786 0.0
C628 C 0.47471 0.70698 0.26942 0.0
C629 C 0.50713 0.72056 0.21123 0.0
C630 C 0.51085 0.83216 0.24507 0.0
C631 C 0.49996 0.81456 0.31024 0.0
N632 N 0.46673 0.72701 0.38176 0.0
N633 N 0.56424 0.80118 0.14856 0.0
C634 C 0.48127 0.74946 0.32212 0.0
C635 C 0.52828 0.78441 0.20053 0.0
N636 N 0.4321 0.65718 0.27289 0.0
N637 N 0.49833 0.8924 0.22297 0.0
H638 H 0.58002 0.76934 0.114 0.0
H639 H 0.58383 0.84692 0.14348 0.0
H640 H 0.4705 0.92519 0.24812 0.0
H641 H 0.50383 0.90496 0.17495 0.0
H642 H 0.40317 0.6488 0.31277 0.0
H643 H 0.41817 0.63094 0.2328 0.0
H644 H 0.46308 0.6781 0.39122 0.0
H645 H 0.45687 0.75489 0.42146 0.0
C646 C 0.47362 0.26484 0.31648 0.0
C647 C 0.52125 0.21643 0.31429 0.0
C648 C 0.56853 0.26767 0.21916 0.0
C649 C 0.52212 0.31786 0.22319 0.0
N650 N 0.44585 0.37347 0.29166 0.0
N651 N 0.62254 0.1791 0.27221 0.0
C652 C 0.47946 0.31948 0.27658 0.0
C653 C 0.57092 0.21955 0.26772 0.0
N654 N 0.42081 0.25775 0.35492 0.0
N655 N 0.61209 0.26714 0.17024 0.0
H656 H 0.62682 0.14436 0.30773 0.0
H657 H 0.66393 0.18335 0.2445 0.0
H658 H 0.61921 0.306 0.1399 0.0
H659 H 0.6405 0.22772 0.15895 0.0
H660 H 0.38088 0.28789 0.35245 0.0
H661 H 0.41364 0.21821 0.38444 0.0
H662 H 0.42129 0.37874 0.3348 0.0
H663 H 0.44634 0.41526 0.26498 0.0
loop_
_geom_bond_atom_site_label_1
_geom_bond_atom_site_label_2
_geom_bond_distance
_geom_bond_site_symmetry_2
_ccdc_geom_bond_type
H0 O1 0.850 . S
O1 H0 0.850 . S
O1 Tb2 2.341 1_566 S
O1 Tb3 2.341 1_656 S
O1 Tb4 2.341 1_665 S
Tb2 O1 2.341 1_544 S
Tb2 O5 2.341 1_545 S
Tb2 O6 2.341 1_554 S
Tb2 O7 2.341 . S
Tb2 O22 2.344 1_545 S
Tb2 O25 2.344 . S
Tb2 O38 2.344 . S
Tb2 O41 2.344 1_554 S
Tb3 O1 2.341 1_454 S
Tb3 O5 2.341 1_455 S
Tb3 O8 2.341 . S
Tb3 O10 2.341 1_554 S
Tb3 O26 2.344 1_554 S
Tb3 O29 2.344 . S
Tb3 O34 2.344 1_455 S
Tb3 O37 2.344 . S
Tb4 O1 2.341 1_445 S
Tb4 O6 2.341 1_455 S
Tb4 O9 2.341 . S
Tb4 O10 2.341 1_545 S
Tb4 O30 2.344 1_455 S
Tb4 O33 2.344 . S
Tb4 O43 2.344 . S
Tb4 O44 2.344 1_545 S
O5 Tb2 2.341 1_565 S
O5 Tb3 2.341 1_655 S
O5 H11 0.850 . S
O5 Tb13 2.341 1_665 S
O6 Tb2 2.341 1_556 S
O6 Tb4 2.341 1_655 S
O6 H12 0.850 . S
O6 Tb14 2.341 1_656 S
O7 Tb2 2.341 . S
O7 Tb13 2.341 1_655 S
O7 Tb14 2.341 1_655 S
O7 H15 0.850 . S
O8 Tb3 2.341 . S
O8 Tb13 2.341 1_565 S
O8 H16 0.850 . S
O8 Tb17 2.341 1_565 S
O9 Tb4 2.341 . S
O9 Tb14 2.341 1_556 S
O9 Tb17 2.341 1_556 S
O9 H18 0.850 . S
O10 Tb3 2.341 1_556 S
O10 Tb4 2.341 1_565 S
O10 Tb17 2.341 1_566 S
O10 H19 0.850 . S
H11 O5 0.850 . S
H12 O6 0.850 . S
Tb13 O5 2.341 1_445 S
Tb13 O7 2.341 1_455 S
Tb13 O8 2.341 1_545 S
Tb13 O20 2.341 . S
Tb13 O31 2.344 . S
Tb13 O32 2.344 1_455 S
Tb13 O42 2.344 1_545 S
Tb13 O45 2.344 . S
Tb14 O6 2.341 1_454 S
Tb14 O7 2.341 1_455 S
Tb14 O9 2.341 1_554 S
Tb14 O20 2.341 . S
Tb14 O27 2.344 . S
Tb14 O28 2.344 1_554 S
Tb14 O35 2.344 . S
Tb14 O36 2.344 1_455 S
H15 O7 0.850 . S
H16 O8 0.850 . S
Tb17 O8 2.341 1_545 S
Tb17 O9 2.341 1_554 S
Tb17 O10 2.341 1_544 S
Tb17 O20 2.341 . S
Tb17 O23 2.344 . S
Tb17 O24 2.344 1_545 S
Tb17 O39 2.344 1_554 S
Tb17 O40 2.344 . S
H18 O9 0.850 . S
H19 O10 0.850 . S
O20 Tb13 2.341 . S
O20 Tb14 2.341 . S
O20 Tb17 2.341 . S
O20 H21 0.850 . S
H21 O20 0.850 . S
O22 Tb2 2.344 1_565 S
O22 C46 1.272 . S
O23 Tb17 2.344 . S
O23 C47 1.272 . S
O24 Tb17 2.344 1_565 S
O24 C48 1.272 . S
O25 Tb2 2.344 . S
O25 C49 1.272 . S
O26 Tb3 2.344 1_556 S
O26 C50 1.272 . S
O27 Tb14 2.344 . S
O27 C51 1.272 . S
O28 Tb14 2.344 1_556 S
O28 C52 1.272 . S
O29 Tb3 2.344 . S
O29 C53 1.272 . S
O30 Tb4 2.344 1_655 S
O30 C54 1.272 . S
O31 Tb13 2.344 . S
O31 C55 1.272 . S
O32 Tb13 2.344 1_655 S
O32 C56 1.272 . S
O33 Tb4 2.344 . S
O33 C57 1.272 . S
O34 Tb3 2.344 1_655 S
O34 C46 1.272 . S
O35 Tb14 2.344 . S
O35 C47 1.272 . S
O36 Tb14 2.344 1_655 S
O36 C49 1.272 . S
O37 Tb3 2.344 . S
O37 C48 1.272 . S
O38 Tb2 2.344 . S
O38 C56 1.272 . S
O39 Tb17 2.344 1_556 S
O39 C57 1.272 . S
O40 Tb17 2.344 . S
O40 C55 1.272 . S
O41 Tb2 2.344 1_556 S
O41 C54 1.272 . S
O42 Tb13 2.344 1_565 S
O42 C53 1.272 . S
O43 Tb4 2.344 . S
O43 C52 1.272 . S
O44 Tb4 2.344 1_565 S
O44 C50 1.272 . S
O45 Tb13 2.344 . S
O45 C51 1.272 . S
C46 O22 1.272 . S
C46 O34 1.272 . S
C47 O23 1.272 . S
C47 O35 1.272 . S
C48 O24 1.272 . S
C48 O37 1.272 . S
C49 O25 1.272 . S
C49 O36 1.272 . S
C50 O26 1.272 . S
C50 O44 1.272 . S
C51 O27 1.272 . S
C51 O45 1.272 . S
C52 O28 1.272 . S
C52 O43 1.272 . S
C53 O29 1.272 . S
C53 O42 1.272 . S
C54 O30 1.272 . S
C54 O41 1.272 . S
C55 O31 1.272 . S
C55 O40 1.272 . S
C56 O32 1.272 . S
C56 O38 1.272 . S
C57 O33 1.272 . S
C57 O39 1.272 . S
H58 O59 0.850 . S
O59 H58 0.850 . S
O59 Tb60 2.341 . S
O59 Tb61 2.341 1_655 S
O59 Tb62 2.341 1_655 S
Tb60 O59 2.341 . S
Tb60 O63 2.341 . S
Tb60 O64 2.341 . S
Tb60 O65 2.341 . S
Tb60 O80 2.344 . S
Tb60 O83 2.344 . S
Tb60 O96 2.344 . S
Tb60 O99 2.344 . S
Tb61 O59 2.341 1_455 S
Tb61 O63 2.341 1_455 S
Tb61 O66 2.341 . S
Tb61 O68 2.341 . S
Tb61 O84 2.344 . S
Tb61 O87 2.344 . S
Tb61 O92 2.344 1_455 S
Tb61 O95 2.344 . S
Tb62 O59 2.341 1_455 S
Tb62 O64 2.341 1_455 S
Tb62 O67 2.341 . S
Tb62 O68 2.341 . S
Tb62 O88 2.344 1_455 S
Tb62 O91 2.344 . S
Tb62 O101 2.344 . S
Tb62 O102 2.344 . S
O63 Tb60 2.341 . S
O63 Tb61 2.341 1_655 S
O63 H69 0.850 . S
O63 Tb71 2.341 1_655 S
O64 Tb60 2.341 . S
O64 Tb62 2.341 1_655 S
O64 H70 0.850 . S
O64 Tb72 2.341 1_655 S
O65 Tb60 2.341 . S
O65 Tb71 2.341 1_655 S
O65 Tb72 2.341 1_655 S
O65 H73 0.850 . S
O66 Tb61 2.341 . S
O66 Tb71 2.341 . S
O66 H74 0.850 . S
O66 Tb75 2.341 . S
O67 Tb62 2.341 . S
O67 Tb72 2.341 . S
O67 Tb75 2.341 . S
O67 H76 0.850 . S
O68 Tb61 2.341 . S
O68 Tb62 2.341 . S
O68 Tb75 2.341 . S
O68 H77 0.850 . S
H69 O63 0.850 . S
H70 O64 0.850 . S
Tb71 O63 2.341 1_455 S
Tb71 O65 2.341 1_455 S
Tb71 O66 2.341 . S
Tb71 O78 2.341 . S
Tb71 O89 2.344 . S
Tb71 O90 2.344 1_455 S
Tb71 O100 2.344 . S
Tb71 O103 2.344 . S
Tb72 O64 2.341 1_455 S
Tb72 O65 2.341 1_455 S
Tb72 O67 2.341 . S
Tb72 O78 2.341 . S
Tb72 O85 2.344 . S
Tb72 O86 2.344 . S
Tb72 O93 2.344 . S
Tb72 O94 2.344 1_455 S
H73 O65 0.850 . S
H74 O66 0.850 . S
Tb75 O66 2.341 . S
Tb75 O67 2.341 . S
Tb75 O68 2.341 . S
Tb75 O78 2.341 . S
Tb75 O81 2.344 . S
Tb75 O82 2.344 . S
Tb75 O97 2.344 . S
Tb75 O98 2.344 . S
H76 O67 0.850 . S
H77 O68 0.850 . S
O78 Tb71 2.341 . S
O78 Tb72 2.341 . S
O78 Tb75 2.341 . S
O78 H79 0.850 . S
H79 O78 0.850 . S
O80 Tb60 2.344 . S
O80 C104 1.272 . S
O81 Tb75 2.344 . S
O81 C105 1.272 . S
O82 Tb75 2.344 . S
O82 C106 1.272 . S
O83 Tb60 2.344 . S
O83 C107 1.272 . S
O84 Tb61 2.344 . S
O84 C108 1.272 . S
O85 Tb72 2.344 . S
O85 C109 1.272 . S
O86 Tb72 2.344 . S
O86 C110 1.272 . S
O87 Tb61 2.344 . S
O87 C111 1.272 . S
O88 Tb62 2.344 1_655 S
O88 C112 1.272 . S
O89 Tb71 2.344 . S
O89 C113 1.272 . S
O90 Tb71 2.344 1_655 S
O90 C114 1.272 . S
O91 Tb62 2.344 . S
O91 C115 1.272 . S
O92 Tb61 2.344 1_655 S
O92 C104 1.272 . S
O93 Tb72 2.344 . S
O93 C105 1.272 . S
O94 Tb72 2.344 1_655 S
O94 C107 1.272 . S
O95 Tb61 2.344 . S
O95 C106 1.272 . S
O96 Tb60 2.344 . S
O96 C114 1.272 . S
O97 Tb75 2.344 . S
O97 C115 1.272 . S
O98 Tb75 2.344 . S
O98 C113 1.272 . S
O99 Tb60 2.344 . S
O99 C112 1.272 . S
O100 Tb71 2.344 . S
O100 C111 1.272 . S
O101 Tb62 2.344 . S
O101 C110 1.272 . S
O102 Tb62 2.344 . S
O102 C108 1.272 . S
O103 Tb71 2.344 . S
O103 C109 1.272 . S
C104 O80 1.272 . S
C104 O92 1.272 . S
C105 O81 1.272 . S
C105 O93 1.272 . S
C106 O82 1.272 . S
C106 O95 1.272 . S
C107 O83 1.272 . S
C107 O94 1.272 . S
C108 O84 1.272 . S
C108 O102 1.272 . S
C109 O85 1.272 . S
C109 O103 1.272 . S
C110 O86 1.272 . S
C110 O101 1.272 . S
C111 O87 1.272 . S
C111 O100 1.272 . S
C112 O88 1.272 . S
C112 O99 1.272 . S
C113 O89 1.272 . S
C113 O98 1.272 . S
C114 O90 1.272 . S
C114 O96 1.272 . S
C115 O91 1.272 . S
C115 O97 1.272 . S
H116 O117 0.850 . S
O117 H116 0.850 . S
O117 Tb118 2.341 1_565 S
O117 Tb119 2.341 . S
O117 Tb120 2.341 1_565 S
Tb118 O117 2.341 1_545 S
Tb118 O121 2.341 1_545 S
Tb118 O122 2.341 . S
Tb118 O123 2.341 . S
Tb118 O138 2.344 1_545 S
Tb118 O141 2.344 . S
Tb118 O154 2.344 . S
Tb118 O157 2.344 . S
Tb119 O117 2.341 . S
Tb119 O121 2.341 . S
Tb119 O124 2.341 . S
Tb119 O126 2.341 . S
Tb119 O142 2.344 . S
Tb119 O145 2.344 . S
Tb119 O150 2.344 . S
Tb119 O153 2.344 . S
Tb120 O117 2.341 1_545 S
Tb120 O122 2.341 . S
Tb120 O125 2.341 . S
Tb120 O126 2.341 1_545 S
Tb120 O146 2.344 . S
Tb120 O149 2.344 . S
Tb120 O159 2.344 . S
Tb120 O160 2.344 1_545 S
O121 Tb118 2.341 1_565 S
O121 Tb119 2.341 . S
O121 H127 0.850 . S
O121 Tb129 2.341 1_565 S
O122 Tb118 2.341 . S
O122 Tb120 2.341 . S
O122 H128 0.850 . S
O122 Tb130 2.341 . S
O123 Tb118 2.341 . S
O123 Tb129 2.341 . S
O123 Tb130 2.341 . S
O123 H131 0.850 . S
O124 Tb119 2.341 . S
O124 Tb129 2.341 1_565 S
O124 H132 0.850 . S
O124 Tb133 2.341 1_565 S
O125 Tb120 2.341 . S
O125 Tb130 2.341 . S
O125 Tb133 2.341 . S
O125 H134 0.850 . S
O126 Tb119 2.341 . S
O126 Tb120 2.341 1_565 S
O126 Tb133 2.341 1_565 S
O126 H135 0.850 . S
H127 O121 0.850 . S
H128 O122 0.850 . S
Tb129 O121 2.341 1_545 S
Tb129 O123 2.341 . S
Tb129 O124 2.341 1_545 S
Tb129 O136 2.341 . S
Tb129 O147 2.344 . S
Tb129 O148 2.344 . S
Tb129 O158 2.344 1_545 S
Tb129 O161 2.344 . S
Tb130 O122 2.341 . S
Tb130 O123 2.341 . S
Tb130 O125 2.341 . S
Tb130 O136 2.341 . S
Tb130 O143 2.344 . S
Tb130 O144 2.344 . S
Tb130 O151 2.344 . S
Tb130 O152 2.344 . S
H131 O123 0.850 . S
H132 O124 0.850 . S
Tb133 O124 2.341 1_545 S
Tb133 O125 2.341 . S
Tb133 O126 2.341 1_545 S
Tb133 O136 2.341 . S
Tb133 O139 2.344 . S
Tb133 O140 2.344 1_545 S
Tb133 O155 2.344 . S
Tb133 O156 2.344 . S
H134 O125 0.850 . S
H135 O126 0.850 . S
O136 Tb129 2.341 . S
O136 Tb130 2.341 . S
O136 Tb133 2.341 . S
O136 H137 0.850 . S
H137 O136 0.850 . S
O138 Tb118 2.344 1_565 S
O138 C162 1.272 . S
O139 Tb133 2.344 . S
O139 C163 1.272 . S
O140 Tb133 2.344 1_565 S
O140 C164 1.272 . S
O141 Tb118 2.344 . S
O141 C165 1.272 . S
O142 Tb119 2.344 . S
O142 C166 1.272 . S
O143 Tb130 2.344 . S
O143 C167 1.272 . S
O144 Tb130 2.344 . S
O144 C168 1.272 . S
O145 Tb119 2.344 . S
O145 C169 1.272 . S
O146 Tb120 2.344 . S
O146 C170 1.272 . S
O147 Tb129 2.344 . S
O147 C171 1.272 . S
O148 Tb129 2.344 . S
O148 C172 1.272 . S
O149 Tb120 2.344 . S
O149 C173 1.272 . S
O150 Tb119 2.344 . S
O150 C162 1.272 . S
O151 Tb130 2.344 . S
O151 C163 1.272 . S
O152 Tb130 2.344 . S
O152 C165 1.272 . S
O153 Tb119 2.344 . S
O153 C164 1.272 . S
O154 Tb118 2.344 . S
O154 C172 1.272 . S
O155 Tb133 2.344 . S
O155 C173 1.272 . S
O156 Tb133 2.344 . S
O156 C171 1.272 . S
O157 Tb118 2.344 . S
O157 C170 1.272 . S
O158 Tb129 2.344 1_565 S
O158 C169 1.272 . S
O159 Tb120 2.344 . S
O159 C168 1.272 . S
O160 Tb120 2.344 1_565 S
O160 C166 1.272 . S
O161 Tb129 2.344 . S
O161 C167 1.272 . S
C162 O138 1.272 . S
C162 O150 1.272 . S
C163 O139 1.272 . S
C163 O151 1.272 . S
C164 O140 1.272 . S
C164 O153 1.272 . S
C165 O141 1.272 . S
C165 O152 1.272 . S
C166 O142 1.272 . S
C166 O160 1.272 . S
C167 O143 1.272 . S
C167 O161 1.272 . S
C168 O144 1.272 . S
C168 O159 1.272 . S
C169 O145 1.272 . S
C169 O158 1.272 . S
C170 O146 1.272 . S
C170 O157 1.272 . S
C171 O147 1.272 . S
C171 O156 1.272 . S
C172 O148 1.272 . S
C172 O154 1.272 . S
C173 O149 1.272 . S
C173 O155 1.272 . S
H174 O175 0.850 . S
O175 H174 0.850 . S
O175 Tb176 2.341 1_556 S
O175 Tb177 2.341 1_556 S
O175 Tb178 2.341 . S
Tb176 O175 2.341 1_554 S
Tb176 O179 2.341 . S
Tb176 O180 2.341 1_554 S
Tb176 O181 2.341 . S
Tb176 O196 2.344 . S
Tb176 O199 2.344 . S
Tb176 O212 2.344 . S
Tb176 O215 2.344 1_554 S
Tb177 O175 2.341 1_554 S
Tb177 O179 2.341 . S
Tb177 O182 2.341 . S
Tb177 O184 2.341 1_554 S
Tb177 O200 2.344 1_554 S
Tb177 O203 2.344 . S
Tb177 O208 2.344 . S
Tb177 O211 2.344 . S
Tb178 O175 2.341 . S
Tb178 O180 2.341 . S
Tb178 O183 2.341 . S
Tb178 O184 2.341 . S
Tb178 O204 2.344 . S
Tb178 O207 2.344 . S
Tb178 O217 2.344 . S
Tb178 O218 2.344 . S
O179 Tb176 2.341 . S
O179 Tb177 2.341 . S
O179 H185 0.850 . S
O179 Tb187 2.341 . S
O180 Tb176 2.341 1_556 S
O180 Tb178 2.341 . S
O180 H186 0.850 . S
O180 Tb188 2.341 1_556 S
O181 Tb176 2.341 . S
O181 Tb187 2.341 . S
O181 Tb188 2.341 . S
O181 H189 0.850 . S
O182 Tb177 2.341 . S
O182 Tb187 2.341 . S
O182 H190 0.850 . S
O182 Tb191 2.341 . S
O183 Tb178 2.341 . S
O183 Tb188 2.341 1_556 S
O183 Tb191 2.341 1_556 S
O183 H192 0.850 . S
O184 Tb177 2.341 1_556 S
O184 Tb178 2.341 . S
O184 Tb191 2.341 1_556 S
O184 H193 0.850 . S
H185 O179 0.850 . S
H186 O180 0.850 . S
Tb187 O179 2.341 . S
Tb187 O181 2.341 . S
Tb187 O182 2.341 . S
Tb187 O194 2.341 . S
Tb187 O205 2.344 . S
Tb187 O206 2.344 . S
Tb187 O216 2.344 . S
Tb187 O219 2.344 . S
Tb188 O180 2.341 1_554 S
Tb188 O181 2.341 . S
Tb188 O183 2.341 1_554 S
Tb188 O194 2.341 . S
Tb188 O201 2.344 . S
Tb188 O202 2.344 1_554 S
Tb188 O209 2.344 . S
Tb188 O210 2.344 . S
H189 O181 0.850 . S
H190 O182 0.850 . S
Tb191 O182 2.341 . S
Tb191 O183 2.341 1_554 S
Tb191 O184 2.341 1_554 S
Tb191 O194 2.341 . S
Tb191 O197 2.344 . S
Tb191 O198 2.344 . S
Tb191 O213 2.344 1_554 S
Tb191 O214 2.344 . S
H192 O183 0.850 . S
H193 O184 0.850 . S
O194 Tb187 2.341 . S
O194 Tb188 2.341 . S
O194 Tb191 2.341 . S
O194 H195 0.850 . S
H195 O194 0.850 . S
O196 Tb176 2.344 . S
O196 C220 1.272 . S
O197 Tb191 2.344 . S
O197 C221 1.272 . S
O198 Tb191 2.344 . S
O198 C222 1.272 . S
O199 Tb176 2.344 . S
O199 C223 1.272 . S
O200 Tb177 2.344 1_556 S
O200 C224 1.272 . S
O201 Tb188 2.344 . S
O201 C225 1.272 . S
O202 Tb188 2.344 1_556 S
O202 C226 1.272 . S
O203 Tb177 2.344 . S
O203 C227 1.272 . S
O204 Tb178 2.344 . S
O204 C228 1.272 . S
O205 Tb187 2.344 . S
O205 C229 1.272 . S
O206 Tb187 2.344 . S
O206 C230 1.272 . S
O207 Tb178 2.344 . S
O207 C231 1.272 . S
O208 Tb177 2.344 . S
O208 C220 1.272 . S
O209 Tb188 2.344 . S
O209 C221 1.272 . S
O210 Tb188 2.344 . S
O210 C223 1.272 . S
O211 Tb177 2.344 . S
O211 C222 1.272 . S
O212 Tb176 2.344 . S
O212 C230 1.272 . S
O213 Tb191 2.344 1_556 S
O213 C231 1.272 . S
O214 Tb191 2.344 . S
O214 C229 1.272 . S
O215 Tb176 2.344 1_556 S
O215 C228 1.272 . S
O216 Tb187 2.344 . S
O216 C227 1.272 . S
O217 Tb178 2.344 . S
O217 C226 1.272 . S
O218 Tb178 2.344 . S
O218 C224 1.272 . S
O219 Tb187 2.344 . S
O219 C225 1.272 . S
C220 O196 1.272 . S
C220 O208 1.272 . S
C221 O197 1.272 . S
C221 O209 1.272 . S
C222 O198 1.272 . S
C222 O211 1.272 . S
C223 O199 1.272 . S
C223 O210 1.272 . S
C224 O200 1.272 . S
C224 O218 1.272 . S
C225 O201 1.272 . S
C225 O219 1.272 . S
C226 O202 1.272 . S
C226 O217 1.272 . S
C227 O203 1.272 . S
C227 O216 1.272 . S
C228 O204 1.272 . S
C228 O215 1.272 . S
C229 O205 1.272 . S
C229 O214 1.272 . S
C230 O206 1.272 . S
C230 O212 1.272 . S
C231 O207 1.272 . S
C231 O213 1.272 . S
C232 C233 1.363 . S
C232 C238 1.379 . S
C232 N240 1.356 . S
C233 C232 1.363 . S
C233 C239 1.363 1_455 S
C234 C235 1.363 1_655 S
C234 C239 1.379 . S
C234 N241 1.356 . S
C235 C234 1.363 1_455 S
C235 C238 1.363 . S
N236 C238 1.356 . S
N236 H248 0.984 . S
N236 H249 0.985 . S
N237 C239 1.356 . S
N237 H242 0.984 . S
N237 H243 0.985 . S
C238 C232 1.379 . S
C238 C235 1.363 . S
C238 N236 1.356 . S
C239 C233 1.363 1_655 S
C239 C234 1.379 . S
C239 N237 1.356 . S
N240 C232 1.356 . S
N240 H246 0.984 . S
N240 H247 0.984 . S
N241 C234 1.356 . S
N241 H244 0.984 . S
N241 H245 0.985 . S
H242 N237 0.984 . S
H243 N237 0.985 . S
H244 N241 0.984 . S
H245 N241 0.985 . S
H246 N240 0.984 . S
H247 N240 0.984 . S
H248 N236 0.984 . S
H249 N236 0.985 . S
C250 C251 1.363 . S
C250 C256 1.379 . S
C250 N258 1.356 . S
C251 C250 1.363 . S
C251 C257 1.363 1_545 S
C252 C253 1.363 1_565 S
C252 C257 1.379 . S
C252 N259 1.356 . S
C253 C252 1.363 1_545 S
C253 C256 1.363 . S
N254 C256 1.356 . S
N254 H266 0.984 . S
N254 H267 0.985 . S
N255 C257 1.356 . S
N255 H260 0.984 . S
N255 H261 0.985 . S
C256 C250 1.379 . S
C256 C253 1.363 . S
C256 N254 1.356 . S
C257 C251 1.363 1_565 S
C257 C252 1.379 . S
C257 N255 1.356 . S
N258 C250 1.356 . S
N258 H264 0.984 . S
N258 H265 0.984 . S
N259 C252 1.356 . S
N259 H262 0.984 . S
N259 H263 0.985 . S
H260 N255 0.984 . S
H261 N255 0.985 . S
H262 N259 0.984 . S
H263 N259 0.985 . S
H264 N258 0.984 . S
H265 N258 0.984 . S
H266 N254 0.984 . S
H267 N254 0.985 . S
C268 C269 1.363 . S
C268 C274 1.379 . S
C268 N276 1.356 . S
C269 C268 1.363 . S
C269 C275 1.363 1_455 S
C270 C271 1.363 1_655 S
C270 C275 1.379 . S
C270 N277 1.356 . S
C271 C270 1.363 1_455 S
C271 C274 1.363 . S
N272 C274 1.356 . S
N272 H284 0.984 . S
N272 H285 0.985 . S
N273 C275 1.356 . S
N273 H278 0.984 . S
N273 H279 0.985 . S
C274 C268 1.379 . S
C274 C271 1.363 . S
C274 N272 1.356 . S
C275 C269 1.363 1_655 S
C275 C270 1.379 . S
C275 N273 1.356 . S
N276 C268 1.356 . S
N276 H282 0.984 . S
N276 H283 0.984 . S
N277 C270 1.356 . S
N277 H280 0.984 . S
N277 H281 0.985 . S
H278 N273 0.984 . S
H279 N273 0.985 . S
H280 N277 0.984 . S
H281 N277 0.985 . S
H282 N276 0.984 . S
H283 N276 0.984 . S
H284 N272 0.984 . S
H285 N272 0.985 . S
C286 C287 1.363 1_565 S
C286 C292 1.379 . S
C286 N294 1.356 . S
C287 C286 1.363 1_545 S
C287 C293 1.363 . S
C288 C289 1.363 . S
C288 C293 1.379 . S
C288 N295 1.356 . S
C289 C288 1.363 . S
C289 C292 1.363 1_545 S
N290 C292 1.356 . S
N290 H302 0.984 . S
N290 H303 0.985 . S
N291 C293 1.356 . S
N291 H296 0.984 . S
N291 H297 0.985 . S
C292 C286 1.379 . S
C292 C289 1.363 1_565 S
C292 N290 1.356 . S
C293 C287 1.363 . S
C293 C288 1.379 . S
C293 N291 1.356 . S
N294 C286 1.356 . S
N294 H300 0.984 . S
N294 H301 0.984 . S
N295 C288 1.356 . S
N295 H298 0.984 . S
N295 H299 0.985 . S
H296 N291 0.984 . S
H297 N291 0.985 . S
H298 N295 0.984 . S
H299 N295 0.985 . S
H300 N294 0.984 . S
H301 N294 0.984 . S
H302 N290 0.984 . S
H303 N290 0.985 . S
C304 C305 1.363 1_655 S
C304 C310 1.379 . S
C304 N312 1.356 . S
C305 C304 1.363 1_455 S
C305 C311 1.363 . S
C306 C307 1.363 . S
C306 C311 1.379 . S
C306 N313 1.356 . S
C307 C306 1.363 . S
C307 C310 1.363 1_455 S
N308 C310 1.356 . S
N308 H320 0.984 . S
N308 H321 0.985 . S
N309 C311 1.356 . S
N309 H314 0.984 . S
N309 H315 0.985 . S
C310 C304 1.379 . S
C310 C307 1.363 1_655 S
C310 N308 1.356 . S
C311 C305 1.363 . S
C311 C306 1.379 . S
C311 N309 1.356 . S
N312 C304 1.356 . S
N312 H318 0.984 . S
N312 H319 0.984 . S
N313 C306 1.356 . S
N313 H316 0.984 . S
N313 H317 0.985 . S
H314 N309 0.984 . S
H315 N309 0.985 . S
H316 N313 0.984 . S
H317 N313 0.985 . S
H318 N312 0.984 . S
H319 N312 0.984 . S
H320 N308 0.984 . S
H321 N308 0.985 . S
C322 C323 1.363 . S
C322 C328 1.379 . S
C322 N330 1.356 . S
C323 C322 1.363 . S
C323 C329 1.363 1_545 S
C324 C325 1.363 1_565 S
C324 C329 1.379 . S
C324 N331 1.356 . S
C325 C324 1.363 1_545 S
C325 C328 1.363 . S
N326 C328 1.356 . S
N326 H338 0.984 . S
N326 H339 0.985 . S
N327 C329 1.356 . S
N327 H332 0.984 . S
N327 H333 0.985 . S
C328 C322 1.379 . S
C328 C325 1.363 . S
C328 N326 1.356 . S
C329 C323 1.363 1_565 S
C329 C324 1.379 . S
C329 N327 1.356 . S
N330 C322 1.356 . S
N330 H336 0.984 . S
N330 H337 0.984 . S
N331 C324 1.356 . S
N331 H334 0.984 . S
N331 H335 0.985 . S
H332 N327 0.984 . S
H333 N327 0.985 . S
H334 N331 0.984 . S
H335 N331 0.985 . S
H336 N330 0.984 . S
H337 N330 0.984 . S
H338 N326 0.984 . S
H339 N326 0.985 . S
C340 C341 1.363 . S
C340 C346 1.379 . S
C340 N348 1.356 . S
C341 C340 1.363 . S
C341 C347 1.363 1_455 S
C342 C343 1.363 1_655 S
C342 C347 1.379 . S
C342 N349 1.357 . S
C343 C342 1.363 1_455 S
C343 C346 1.363 . S
N344 C346 1.356 . S
N344 H356 0.984 . S
N344 H357 0.985 . S
N345 C347 1.357 . S
N345 H350 0.984 . S
N345 H351 0.985 . S
C346 C340 1.379 . S
C346 C343 1.363 . S
C346 N344 1.356 . S
C347 C341 1.363 1_655 S
C347 C342 1.379 . S
C347 N345 1.357 . S
N348 C340 1.356 . S
N348 H354 0.984 . S
N348 H355 0.984 . S
N349 C342 1.357 . S
N349 H352 0.984 . S
N349 H353 0.985 . S
H350 N345 0.984 . S
H351 N345 0.985 . S
H352 N349 0.984 . S
H353 N349 0.985 . S
H354 N348 0.984 . S
H355 N348 0.984 . S
H356 N344 0.984 . S
H357 N344 0.985 . S
C358 C359 1.363 . S
C358 C364 1.379 . S
C358 N366 1.356 . S
C359 C358 1.363 . S
C359 C365 1.363 1_545 S
C360 C361 1.363 1_565 S
C360 C365 1.379 . S
C360 N367 1.356 . S
C361 C360 1.363 1_545 S
C361 C364 1.363 . S
N362 C364 1.356 . S
N362 H374 0.984 . S
N362 H375 0.985 . S
N363 C365 1.356 . S
N363 H368 0.984 . S
N363 H369 0.985 . S
C364 C358 1.379 . S
C364 C361 1.363 . S
C364 N362 1.356 . S
C365 C359 1.363 1_565 S
C365 C360 1.379 . S
C365 N363 1.356 . S
N366 C358 1.356 . S
N366 H372 0.984 . S
N366 H373 0.984 . S
N367 C360 1.356 . S
N367 H370 0.984 . S
N367 H371 0.985 . S
H368 N363 0.984 . S
H369 N363 0.985 . S
H370 N367 0.984 . S
H371 N367 0.985 . S
H372 N366 0.984 . S
H373 N366 0.984 . S
H374 N362 0.984 . S
H375 N362 0.985 . S
C376 C377 1.363 1_556 S
C376 C382 1.379 . S
C376 N384 1.356 . S
C377 C376 1.363 1_554 S
C377 C383 1.363 . S
C378 C379 1.363 . S
C378 C383 1.379 . S
C378 N385 1.356 . S
C379 C378 1.363 . S
C379 C382 1.363 1_554 S
N380 C382 1.356 . S
N380 H392 0.984 . S
N380 H393 0.985 . S
N381 C383 1.356 . S
N381 H386 0.984 . S
N381 H387 0.985 . S
C382 C376 1.379 . S
C382 C379 1.363 1_556 S
C382 N380 1.356 . S
C383 C377 1.363 . S
C383 C378 1.379 . S
C383 N381 1.356 . S
N384 C376 1.356 . S
N384 H390 0.984 . S
N384 H391 0.984 . S
N385 C378 1.356 . S
N385 H388 0.984 . S
N385 H389 0.985 . S
H386 N381 0.984 . S
H387 N381 0.985 . S
H388 N385 0.984 . S
H389 N385 0.985 . S
H390 N384 0.984 . S
H391 N384 0.984 . S
H392 N380 0.984 . S
H393 N380 0.985 . S
C394 C395 1.363 1_556 S
C394 C400 1.379 . S
C394 N402 1.356 . S
C395 C394 1.363 1_554 S
C395 C401 1.363 . S
C396 C397 1.363 . S
C396 C401 1.379 . S
C396 N403 1.356 . S
C397 C396 1.363 . S
C397 C400 1.363 1_554 S
N398 C400 1.356 . S
N398 H410 0.984 . S
N398 H411 0.985 . S
N399 C401 1.356 . S
N399 H404 0.984 . S
N399 H405 0.985 . S
C400 C394 1.379 . S
C400 C397 1.363 1_556 S
C400 N398 1.356 . S
C401 C395 1.363 . S
C401 C396 1.379 . S
C401 N399 1.356 . S
N402 C394 1.356 . S
N402 H408 0.984 . S
N402 H409 0.984 . S
N403 C396 1.356 . S
N403 H406 0.984 . S
N403 H407 0.985 . S
H404 N399 0.984 . S
H405 N399 0.985 . S
H406 N403 0.984 . S
H407 N403 0.985 . S
H408 N402 0.984 . S
H409 N402 0.984 . S
H410 N398 0.984 . S
H411 N398 0.985 . S
C412 C413 1.363 . S
C412 C418 1.379 . S
C412 N420 1.356 . S
C413 C412 1.363 . S
C413 C419 1.363 1_554 S
C414 C415 1.363 1_556 S
C414 C419 1.379 . S
C414 N421 1.356 . S
C415 C414 1.363 1_554 S
C415 C418 1.363 . S
N416 C418 1.356 . S
N416 H428 0.984 . S
N416 H429 0.985 . S
N417 C419 1.356 . S
N417 H422 0.984 . S
N417 H423 0.985 . S
C418 C412 1.379 . S
C418 C415 1.363 . S
C418 N416 1.356 . S
C419 C413 1.363 1_556 S
C419 C414 1.379 . S
C419 N417 1.356 . S
N420 C412 1.356 . S
N420 H426 0.984 . S
N420 H427 0.984 . S
N421 C414 1.356 . S
N421 H424 0.984 . S
N421 H425 0.985 . S
H422 N417 0.984 . S
H423 N417 0.985 . S
H424 N421 0.984 . S
H425 N421 0.985 . S
H426 N420 0.984 . S
H427 N420 0.984 . S
H428 N416 0.984 . S
H429 N416 0.985 . S
C430 C431 1.363 . S
C430 C436 1.379 . S
C430 N438 1.356 . S
C431 C430 1.363 . S
C431 C437 1.363 1_554 S
C432 C433 1.363 1_556 S
C432 C437 1.379 . S
C432 N439 1.356 . S
C433 C432 1.363 1_554 S
C433 C436 1.363 . S
N434 C436 1.356 . S
N434 H446 0.984 . S
N434 H447 0.985 . S
N435 C437 1.356 . S
N435 H440 0.984 . S
N435 H441 0.985 . S
C436 C430 1.379 . S
C436 C433 1.363 . S
C436 N434 1.356 . S
C437 C431 1.363 1_556 S
C437 C432 1.379 . S
C437 N435 1.356 . S
N438 C430 1.356 . S
N438 H444 0.984 . S
N438 H445 0.984 . S
N439 C432 1.356 . S
N439 H442 0.984 . S
N439 H443 0.985 . S
H440 N435 0.984 . S
H441 N435 0.985 . S
H442 N439 0.984 . S
H443 N439 0.985 . S
H444 N438 0.984 . S
H445 N438 0.984 . S
H446 N434 0.984 . S
H447 N434 0.985 . S
C448 C449 1.363 . S
C448 C454 1.379 . S
C448 N456 1.356 . S
C449 C448 1.363 . S
C449 C455 1.363 . S
C450 C451 1.363 . S
C450 C455 1.379 . S
C450 N457 1.356 . S
C451 C450 1.363 . S
C451 C454 1.363 . S
N452 C454 1.356 . S
N452 H464 0.984 . S
N452 H465 0.985 . S
N453 C455 1.356 . S
N453 H458 0.984 . S
N453 H459 0.985 . S
C454 C448 1.379 . S
C454 C451 1.363 . S
C454 N452 1.356 . S
C455 C449 1.363 . S
C455 C450 1.379 . S
C455 N453 1.356 . S
N456 C448 1.356 . S
N456 H462 0.984 . S
N456 H463 0.984 . S
N457 C450 1.356 . S
N457 H460 0.984 . S
N457 H461 0.985 . S
H458 N453 0.984 . S
H459 N453 0.985 . S
H460 N457 0.984 . S
H461 N457 0.985 . S
H462 N456 0.984 . S
H463 N456 0.984 . S
H464 N452 0.984 . S
H465 N452 0.985 . S
C466 C467 1.363 . S
C466 C472 1.379 . S
C466 N474 1.356 . S
C467 C466 1.363 . S
C467 C473 1.363 . S
C468 C469 1.363 . S
C468 C473 1.379 . S
C468 N475 1.356 . S
C469 C468 1.363 . S
C469 C472 1.363 . S
N470 C472 1.356 . S
N470 H482 0.984 . S
N470 H483 0.985 . S
N471 C473 1.356 . S
N471 H476 0.984 . S
N471 H477 0.985 . S
C472 C466 1.379 . S
C472 C469 1.363 . S
C472 N470 1.356 . S
C473 C467 1.363 . S
C473 C468 1.379 . S
C473 N471 1.356 . S
N474 C466 1.356 . S
N474 H480 0.984 . S
N474 H481 0.984 . S
N475 C468 1.356 . S
N475 H478 0.984 . S
N475 H479 0.985 . S
H476 N471 0.984 . S
H477 N471 0.985 . S
H478 N475 0.984 . S
H479 N475 0.985 . S
H480 N474 0.984 . S
H481 N474 0.984 . S
H482 N470 0.984 . S
H483 N470 0.985 . S
C484 C485 1.363 . S
C484 C490 1.379 . S
C484 N492 1.356 . S
C485 C484 1.363 . S
C485 C491 1.363 . S
C486 C487 1.363 . S
C486 C491 1.379 . S
C486 N493 1.356 . S
C487 C486 1.363 . S
C487 C490 1.363 . S
N488 C490 1.356 . S
N488 H500 0.984 . S
N488 H501 0.985 . S
N489 C491 1.356 . S
N489 H494 0.984 . S
N489 H495 0.985 . S
C490 C484 1.379 . S
C490 C487 1.363 . S
C490 N488 1.356 . S
C491 C485 1.363 . S
C491 C486 1.379 . S
C491 N489 1.356 . S
N492 C484 1.356 . S
N492 H498 0.984 . S
N492 H499 0.984 . S
N493 C486 1.356 . S
N493 H496 0.984 . S
N493 H497 0.985 . S
H494 N489 0.984 . S
H495 N489 0.985 . S
H496 N493 0.984 . S
H497 N493 0.985 . S
H498 N492 0.984 . S
H499 N492 0.984 . S
H500 N488 0.984 . S
H501 N488 0.985 . S
C502 C503 1.363 . S
C502 C508 1.379 . S
C502 N510 1.356 . S
C503 C502 1.363 . S
C503 C509 1.363 . S
C504 C505 1.363 . S
C504 C509 1.379 . S
C504 N511 1.356 . S
C505 C504 1.363 . S
C505 C508 1.363 . S
N506 C508 1.356 . S
N506 H518 0.984 . S
N506 H519 0.985 . S
N507 C509 1.356 . S
N507 H512 0.984 . S
N507 H513 0.985 . S
C508 C502 1.379 . S
C508 C505 1.363 . S
C508 N506 1.356 . S
C509 C503 1.363 . S
C509 C504 1.379 . S
C509 N507 1.356 . S
N510 C502 1.356 . S
N510 H516 0.984 . S
N510 H517 0.984 . S
N511 C504 1.356 . S
N511 H514 0.984 . S
N511 H515 0.985 . S
H512 N507 0.984 . S
H513 N507 0.985 . S
H514 N511 0.984 . S
H515 N511 0.985 . S
H516 N510 0.984 . S
H517 N510 0.984 . S
H518 N506 0.984 . S
H519 N506 0.985 . S
C520 C521 1.363 . S
C520 C526 1.379 . S
C520 N528 1.356 . S
C521 C520 1.363 . S
C521 C527 1.363 . S
C522 C523 1.363 . S
C522 C527 1.379 . S
C522 N529 1.356 . S
C523 C522 1.363 . S
C523 C526 1.363 . S
N524 C526 1.356 . S
N524 H536 0.984 . S
N524 H537 0.985 . S
N525 C527 1.356 . S
N525 H530 0.984 . S
N525 H531 0.985 . S
C526 C520 1.379 . S
C526 C523 1.363 . S
C526 N524 1.356 . S
C527 C521 1.363 . S
C527 C522 1.379 . S
C527 N525 1.356 . S
N528 C520 1.356 . S
N528 H534 0.984 . S
N528 H535 0.984 . S
N529 C522 1.356 . S
N529 H532 0.984 . S
N529 H533 0.985 . S
H530 N525 0.984 . S
H531 N525 0.985 . S
H532 N529 0.984 . S
H533 N529 0.985 . S
H534 N528 0.984 . S
H535 N528 0.984 . S
H536 N524 0.984 . S
H537 N524 0.985 . S
C538 C539 1.363 . S
C538 C544 1.379 . S
C538 N546 1.356 . S
C539 C538 1.363 . S
C539 C545 1.363 . S
C540 C541 1.363 . S
C540 C545 1.379 . S
C540 N547 1.356 . S
C541 C540 1.363 . S
C541 C544 1.363 . S
N542 C544 1.356 . S
N542 H554 0.984 . S
N542 H555 0.985 . S
N543 C545 1.356 . S
N543 H548 0.984 . S
N543 H549 0.985 . S
C544 C538 1.379 . S
C544 C541 1.363 . S
C544 N542 1.356 . S
C545 C539 1.363 . S
C545 C540 1.379 . S
C545 N543 1.356 . S
N546 C538 1.356 . S
N546 H552 0.984 . S
N546 H553 0.984 . S
N547 C540 1.356 . S
N547 H550 0.984 . S
N547 H551 0.985 . S
H548 N543 0.984 . S
H549 N543 0.985 . S
H550 N547 0.984 . S
H551 N547 0.985 . S
H552 N546 0.984 . S
H553 N546 0.984 . S
H554 N542 0.984 . S
H555 N542 0.985 . S
C556 C557 1.363 . S
C556 C562 1.379 . S
C556 N564 1.356 . S
C557 C556 1.363 . S
C557 C563 1.363 . S
C558 C559 1.363 . S
C558 C563 1.379 . S
C558 N565 1.356 . S
C559 C558 1.363 . S
C559 C562 1.363 . S
N560 C562 1.356 . S
N560 H572 0.984 . S
N560 H573 0.985 . S
N561 C563 1.356 . S
N561 H566 0.984 . S
N561 H567 0.985 . S
C562 C556 1.379 . S
C562 C559 1.363 . S
C562 N560 1.356 . S
C563 C557 1.363 . S
C563 C558 1.379 . S
C563 N561 1.356 . S
N564 C556 1.356 . S
N564 H570 0.984 . S
N564 H571 0.984 . S
N565 C558 1.356 . S
N565 H568 0.984 . S
N565 H569 0.985 . S
H566 N561 0.984 . S
H567 N561 0.985 . S
H568 N565 0.984 . S
H569 N565 0.985 . S
H570 N564 0.984 . S
H571 N564 0.984 . S
H572 N560 0.984 . S
H573 N560 0.985 . S
C574 C575 1.363 . S
C574 C580 1.379 . S
C574 N582 1.356 . S
C575 C574 1.363 . S
C575 C581 1.363 . S
C576 C577 1.363 . S
C576 C581 1.379 . S
C576 N583 1.356 . S
C577 C576 1.363 . S
C577 C580 1.363 . S
N578 C580 1.356 . S
N578 H590 0.984 . S
N578 H591 0.985 . S
N579 C581 1.356 . S
N579 H584 0.984 . S
N579 H585 0.985 . S
C580 C574 1.379 . S
C580 C577 1.363 . S
C580 N578 1.356 . S
C581 C575 1.363 . S
C581 C576 1.379 . S
C581 N579 1.356 . S
N582 C574 1.356 . S
N582 H588 0.984 . S
N582 H589 0.984 . S
N583 C576 1.356 . S
N583 H586 0.984 . S
N583 H587 0.985 . S
H584 N579 0.984 . S
H585 N579 0.985 . S
H586 N583 0.984 . S
H587 N583 0.985 . S
H588 N582 0.984 . S
H589 N582 0.984 . S
H590 N578 0.984 . S
H591 N578 0.985 . S
C592 C593 1.363 . S
C592 C598 1.379 . S
C592 N600 1.356 . S
C593 C592 1.363 . S
C593 C599 1.363 . S
C594 C595 1.363 . S
C594 C599 1.379 . S
C594 N601 1.356 . S
C595 C594 1.363 . S
C595 C598 1.363 . S
N596 C598 1.356 . S
N596 H608 0.984 . S
N596 H609 0.985 . S
N597 C599 1.356 . S
N597 H602 0.984 . S
N597 H603 0.985 . S
C598 C592 1.379 . S
C598 C595 1.363 . S
C598 N596 1.356 . S
C599 C593 1.363 . S
C599 C594 1.379 . S
C599 N597 1.356 . S
N600 C592 1.356 . S
N600 H606 0.984 . S
N600 H607 0.984 . S
N601 C594 1.356 . S
N601 H604 0.984 . S
N601 H605 0.985 . S
H602 N597 0.984 . S
H603 N597 0.985 . S
H604 N601 0.984 . S
H605 N601 0.985 . S
H606 N600 0.984 . S
H607 N600 0.984 . S
H608 N596 0.984 . S
H609 N596 0.985 . S
C610 C611 1.363 . S
C610 C616 1.379 . S
C610 N618 1.356 . S
C611 C610 1.363 . S
C611 C617 1.363 . S
C612 C613 1.363 . S
C612 C617 1.379 . S
C612 N619 1.356 . S
C613 C612 1.363 . S
C613 C616 1.363 . S
N614 C616 1.356 . S
N614 H626 0.984 . S
N614 H627 0.985 . S
N615 C617 1.356 . S
N615 H620 0.984 . S
N615 H621 0.985 . S
C616 C610 1.379 . S
C616 C613 1.363 . S
C616 N614 1.356 . S
C617 C611 1.363 . S
C617 C612 1.379 . S
C617 N615 1.356 . S
N618 C610 1.356 . S
N618 H624 0.984 . S
N618 H625 0.984 . S
N619 C612 1.356 . S
N619 H622 0.984 . S
N619 H623 0.985 . S
H620 N615 0.984 . S
H621 N615 0.985 . S
H622 N619 0.984 . S
H623 N619 0.985 . S
H624 N618 0.984 . S
H625 N618 0.984 . S
H626 N614 0.984 . S
H627 N614 0.985 . S
C628 C629 1.363 . S
C628 C634 1.379 . S
C628 N636 1.356 . S
C629 C628 1.363 . S
C629 C635 1.363 . S
C630 C631 1.363 . S
C630 C635 1.379 . S
C630 N637 1.356 . S
C631 C630 1.363 . S
C631 C634 1.363 . S
N632 C634 1.356 . S
N632 H644 0.984 . S
N632 H645 0.985 . S
N633 C635 1.356 . S
N633 H638 0.984 . S
N633 H639 0.985 . S
C634 C628 1.379 . S
C634 C631 1.363 . S
C634 N632 1.356 . S
C635 C629 1.363 . S
C635 C630 1.379 . S
C635 N633 1.356 . S
N636 C628 1.356 . S
N636 H642 0.984 . S
N636 H643 0.984 . S
N637 C630 1.356 . S
N637 H640 0.984 . S
N637 H641 0.985 . S
H638 N633 0.984 . S
H639 N633 0.985 . S
H640 N637 0.984 . S
H641 N637 0.985 . S
H642 N636 0.984 . S
H643 N636 0.984 . S
H644 N632 0.984 . S
H645 N632 0.985 . S
C646 C647 1.363 . S
C646 C652 1.379 . S
C646 N654 1.356 . S
C647 C646 1.363 . S
C647 C653 1.363 . S
C648 C649 1.363 . S
C648 C653 1.379 . S
C648 N655 1.356 . S
C649 C648 1.363 . S
C649 C652 1.363 . S
N650 C652 1.356 . S
N650 H662 0.984 . S
N650 H663 0.985 . S
N651 C653 1.356 . S
N651 H656 0.984 . S
N651 H657 0.985 . S
C652 C646 1.379 . S
C652 C649 1.363 . S
C652 N650 1.356 . S
C653 C647 1.363 . S
C653 C648 1.379 . S
C653 N651 1.356 . S
N654 C646 1.356 . S
N654 H660 0.984 . S
N654 H661 0.984 . S
N655 C648 1.356 . S
N655 H658 0.984 . S
N655 H659 0.985 . S
H656 N651 0.984 . S
H657 N651 0.985 . S
H658 N655 0.984 . S
H659 N655 0.985 . S
H660 N654 0.984 . S
H661 N654 0.984 . S
H662 N650 0.984 . S
H663 N650 0.985 . S
C233 C51 1.500 . S
C235 C108 1.497 . S
C251 C56 1.500 . S
C253 C173 1.500 . S
C269 C53 1.500 . S
C271 C110 1.500 . S
C287 C170 1.500 . S
C289 C55 1.497 . S
C305 C50 1.500 . S
C307 C109 1.503 . S
C323 C57 1.500 . S
C325 C172 1.500 . S
C341 C111 1.500 . S
C343 C52 1.500 . S
C359 C171 1.500 . S
C361 C54 1.503 . S
C377 C220 1.500 . S
C379 C47 1.497 . S
C395 C223 1.500 . S
C397 C48 1.500 . S
C413 C222 1.500 . S
C415 C49 1.500 . S
C431 C46 1.500 . S
C433 C221 1.503 . S
C449 C231 1.500 . S
C451 C114 1.503 . S
C467 C113 1.500 . S
C469 C228 1.500 . S
C485 C115 1.500 . S
C487 C230 1.497 . S
C503 C229 1.500 . S
C505 C112 1.500 . S
C521 C162 1.500 . S
C523 C105 1.500 . S
C539 C106 1.500 . S
C541 C165 1.497 . S
C557 C107 1.500 . S
C559 C164 1.503 . S
C575 C163 1.500 . S
C577 C104 1.500 . S
C593 C224 1.500 . S
C595 C167 1.500 . S
C611 C169 1.500 . S
C613 C226 1.503 . S
C629 C225 1.500 . S
C631 C166 1.500 . S
C647 C168 1.500 . S
C649 C227 1.497 . S
