# Generated by pormake.
# Topology pcl, (4)-cn, num edge types: 1
# Building blocks:
#     Node 0, Type 0, BuildingBlock: AZAVOO_clean_sbu_0, # of connection points: 4
#     Node 1, Type 0, BuildingBlock: AZAVOO_clean_sbu_0, # of connection points: 4
#     Node 2, Type 0, BuildingBlock: AZAVOO_clean_sbu_0, # of connection points: 4
#     Node 3, Type 0, BuildingBlock: AZAVOO_clean_sbu_0, # of connection points: 4
#     Node 4, Type 0, BuildingBlock: AZAVOO_clean_sbu_0, # of connection points: 4
#     Node 5, Type 0, BuildingBlock: AZAVOO_clean_sbu_0, # of connection points: 4
#     Node 6, Type 0, BuildingBlock: AZAVOO_clean_sbu_0, # of connection points: 4
#     Node 7, Type 0, BuildingBlock: AZAVOO_clean_sbu_0, # of connection points: 4
#     Node 8, Type 0, BuildingBlock: AZAVOO_clean_sbu_0, # of connection points: 4
#     Node 9, Type 0, BuildingBlock: AZAVOO_clean_sbu_0, # of connection points: 4
#     Node 10, Type 0, BuildingBlock: AZAVOO_clean_sbu_0, # of connection points: 4
#     Node 11, Type 0, BuildingBlock: AZAVOO_clean_sbu_0, # of connection points: 4
#     Node 12, Type 0, BuildingBlock: AZAVOO_clean_sbu_0, # of connection points: 4
#     Node 13, Type 0, BuildingBlock: AZAVOO_clean_sbu_0, # of connection points: 4
#     Node 14, Type 0, BuildingBlock: AZAVOO_clean_sbu_0, # of connection points: 4
#     Node 15, Type 0, BuildingBlock: AZAVOO_clean_sbu_0, # of connection points: 4
#     Edge 16, Type (0, 0), BuildingBlock: EZIPEK_clean_linker_0, # of connection points: 2
#     Edge 17, Type (0, 0), BuildingBlock: EZIPEK_clean_linker_0, # of connection points: 2
#     Edge 18, Type (0, 0), BuildingBlock: EZIPEK_clean_linker_0, # of connection points: 2
#     Edge 19, Type (0, 0), BuildingBlock: EZIPEK_clean_linker_0, # of connection points: 2
#     Edge 20, Type (0, 0), BuildingBlock: EZIPEK_clean_linker_0, # of connection points: 2
#     Edge 21, Type (0, 0), BuildingBlock: EZIPEK_clean_linker_0, # of connection points: 2
#     Edge 22, Type (0, 0), BuildingBlock: EZIPEK_clean_linker_0, # of connection points: 2
#     Edge 23, Type (0, 0), BuildingBlock: EZIPEK_clean_linker_0, # of connection points: 2
#     Edge 24, Type (0, 0), BuildingBlock: EZIPEK_clean_linker_0, # of connection points: 2
#     Edge 25, Type (0, 0), BuildingBlock: EZIPEK_clean_linker_0, # of connection points: 2
#     Edge 26, Type (0, 0), BuildingBlock: EZIPEK_clean_linker_0, # of connection points: 2
#     Edge 27, Type (0, 0), BuildingBlock: EZIPEK_clean_linker_0, # of connection points: 2
#     Edge 28, Type (0, 0), BuildingBlock: EZIPEK_clean_linker_0, # of connection points: 2
#     Edge 29, Type (0, 0), BuildingBlock: EZIPEK_clean_linker_0, # of connection points: 2
#     Edge 30, Type (0, 0), BuildingBlock: EZIPEK_clean_linker_0, # of connection points: 2
#     Edge 31, Type (0, 0), BuildingBlock: EZIPEK_clean_linker_0, # of connection points: 2
#     Edge 32, Type (0, 0), BuildingBlock: EZIPEK_clean_linker_0, # of connection points: 2
#     Edge 33, Type (0, 0), BuildingBlock: EZIPEK_clean_linker_0, # of connection points: 2
#     Edge 34, Type (0, 0), BuildingBlock: EZIPEK_clean_linker_0, # of connection points: 2
#     Edge 35, Type (0, 0), BuildingBlock: EZIPEK_clean_linker_0, # of connection points: 2
#     Edge 36, Type (0, 0), BuildingBlock: EZIPEK_clean_linker_0, # of connection points: 2
#     Edge 37, Type (0, 0), BuildingBlock: EZIPEK_clean_linker_0, # of connection points: 2
#     Edge 38, Type (0, 0), BuildingBlock: EZIPEK_clean_linker_0, # of connection points: 2
#     Edge 39, Type (0, 0), BuildingBlock: EZIPEK_clean_linker_0, # of connection points: 2
#     Edge 40, Type (0, 0), BuildingBlock: EZIPEK_clean_linker_0, # of connection points: 2
#     Edge 41, Type (0, 0), BuildingBlock: EZIPEK_clean_linker_0, # of connection points: 2
#     Edge 42, Type (0, 0), BuildingBlock: EZIPEK_clean_linker_0, # of connection points: 2
#     Edge 43, Type (0, 0), BuildingBlock: EZIPEK_clean_linker_0, # of connection points: 2
#     Edge 44, Type (0, 0), BuildingBlock: EZIPEK_clean_linker_0, # of connection points: 2
#     Edge 45, Type (0, 0), BuildingBlock: EZIPEK_clean_linker_0, # of connection points: 2
#     Edge 46, Type (0, 0), BuildingBlock: EZIPEK_clean_linker_0, # of connection points: 2
#     Edge 47, Type (0, 0), BuildingBlock: EZIPEK_clean_linker_0, # of connection points: 2
# Relax obj value: 0.075
# Max RMSD: 0.074
# Mean RMSD: 0.073
data_MOF--net-pcl--node1-AZAVOO_clean_sbu_0--edge1-EZIPEK_clean_linker_0
_symmetry_space_group_name_H-M    P1
_symmetry_Int_Tables_number       1
_symmetry_cell_setting            triclinic
loop_
_symmetry_equiv_pos_as_xyz
'x, y, z'
_cell_length_a     28.233006
_cell_length_b     38.296878
_cell_length_c     33.965985
_cell_angle_alpha  90.123278
_cell_angle_beta   89.970696
_cell_angle_gamma 89.944716
loop_
_atom_site_label
_atom_site_type_symbol
_atom_site_fract_x
_atom_site_fract_y
_atom_site_fract_z
_atom_type_partial_charge
Mg0 Mg 0.1604 0.36694 0.05955 0.0
O1 O 0.07936 0.36521 0.05772 0.0
O2 O 0.05708 0.36165 -0.00543 0.0
Mg3 Mg 0.12393 0.36479 0.95647 0.0
C4 C 0.04746 0.36272 0.03126 0.0
C5 C 0.20065 0.35459 0.14063 0.0
O6 O 0.23829 0.35229 0.11799 0.0
O7 O 0.16456 0.30911 0.04426 0.0
O8 O 0.14779 0.31121 0.97979 0.0
O9 O 0.1601 0.42447 0.05746 0.0
O10 O 0.16274 0.39045 0.00457 0.0
C11 C 0.16027 0.29452 0.01064 0.0
C12 C 0.16104 0.42136 0.01955 0.0
O13 O 0.16012 0.35758 0.12488 0.0
Mg14 Mg 0.84148 0.63206 0.56287 0.0
O15 O 0.92234 0.63497 0.55972 0.0
O16 O 0.94316 0.64361 0.49686 0.0
Mg17 Mg 0.87603 0.64155 0.45939 0.0
C18 C 0.95368 0.63997 0.53317 0.0
C19 C 0.80347 0.6386 0.64662 0.0
O20 O 0.76478 0.64275 0.62564 0.0
O21 O 0.83639 0.69086 0.55274 0.0
O22 O 0.85198 0.69295 0.48804 0.0
O23 O 0.84375 0.57488 0.55558 0.0
O24 O 0.8404 0.61225 0.50603 0.0
C25 C 0.8399 0.70758 0.52038 0.0
C26 C 0.84376 0.58049 0.51805 0.0
O27 O 0.84315 0.63676 0.62918 0.0
Mg28 Mg 0.18303 0.61033 0.90744 0.0
O29 O 0.10151 0.61497 0.91078 0.0
O30 O 0.08061 0.6061 0.97375 0.0
Mg31 Mg 0.14695 0.59267 0.00912 0.0
C32 C 0.07033 0.61325 0.93808 0.0
C33 C 0.22712 0.63208 0.83117 0.0
O34 O 0.26355 0.62806 0.8548 0.0
O35 O 0.19062 0.66336 0.93744 0.0
O36 O 0.17374 0.64867 -0.00016 0.0
O37 O 0.17992 0.55338 0.89507 0.0
O38 O 0.18205 0.57664 0.95465 0.0
C39 C 0.18669 0.67086 0.97396 0.0
C40 C 0.1788 0.54925 0.93281 0.0
O41 O 0.1856 0.63165 0.84557 0.0
Mg42 Mg 0.82876 0.38792 0.41877 0.0
O43 O 0.90806 0.37471 0.41659 0.0
O44 O 0.93994 0.38773 0.47518 0.0
Mg45 Mg 0.88124 0.40875 0.51443 0.0
C46 C 0.94334 0.37639 0.44001 0.0
C47 C 0.79064 0.38193 0.33853 0.0
O48 O 0.76949 0.40864 0.35532 0.0
O49 O 0.81234 0.33877 0.45502 0.0
O50 O 0.84581 0.35501 0.51175 0.0
O51 O 0.84385 0.44252 0.40084 0.0
O52 O 0.83979 0.42488 0.46282 0.0
C53 C 0.8226 0.33293 0.4911 0.0
C54 C 0.84654 0.4497 0.43796 0.0
O55 O 0.81792 0.36274 0.35898 0.0
Mg56 Mg 0.76333 0.61608 0.88605 0.0
O57 O 0.84242 0.62095 0.90143 0.0
O58 O 0.87191 0.66829 0.87169 0.0
Mg59 Mg 0.81252 0.6927 0.83569 0.0
C60 C 0.87665 0.64159 0.89364 0.0
C61 C 0.7198 0.55488 0.93476 0.0
O62 O 0.68707 0.55802 0.9075 0.0
O63 O 0.74267 0.66146 0.92696 0.0
O64 O 0.77358 0.70562 0.89273 0.0
O65 O 0.78124 0.58507 0.83193 0.0
O66 O 0.77445 0.64255 0.83312 0.0
C67 C 0.75023 0.69408 0.92218 0.0
C68 C 0.78322 0.61458 0.81346 0.0
O69 O 0.75504 0.57552 0.93467 0.0
Mg70 Mg 0.24523 0.3597 0.3811 0.0
O71 O 0.16628 0.35707 0.39639 0.0
O72 O 0.13333 0.31192 0.36474 0.0
Mg73 Mg 0.19082 0.28733 0.32645 0.0
C74 C 0.1307 0.33796 0.38803 0.0
C75 C 0.26669 0.42857 0.42588 0.0
O76 O 0.27472 0.4384 0.38948 0.0
O77 O 0.263 0.31176 0.41853 0.0
O78 O 0.22929 0.27005 0.38205 0.0
O79 O 0.22877 0.39381 0.32942 0.0
O80 O 0.23237 0.3362 0.32651 0.0
C81 C 0.25353 0.27967 0.41189 0.0
C82 C 0.2251 0.36541 0.30892 0.0
O83 O 0.25527 0.39709 0.43285 0.0
Mg84 Mg 0.74406 0.37896 0.09797 0.0
O85 O 0.82257 0.37223 0.08182 0.0
O86 O 0.85262 0.32775 0.11624 0.0
Mg87 Mg 0.79314 0.30471 0.15301 0.0
C88 C 0.85702 0.3525 0.09152 0.0
C89 C 0.71161 0.44484 0.05167 0.0
O90 O 0.68572 0.44823 0.0836 0.0
O91 O 0.72233 0.33214 0.05942 0.0
O92 O 0.75418 0.29016 0.09655 0.0
O93 O 0.76339 0.41114 0.15107 0.0
O94 O 0.75361 0.35392 0.15206 0.0
C95 C 0.73045 0.29989 0.06646 0.0
C96 C 0.76365 0.38214 0.17055 0.0
O97 O 0.73804 0.41817 0.04773 0.0
Mg98 Mg 0.25369 0.60537 0.58906 0.0
O99 O 0.1755 0.61982 0.58026 0.0
O100 O 0.16576 0.67528 0.5992 0.0
Mg101 Mg 0.23449 0.69259 0.63002 0.0
C102 C 0.14978 0.64708 0.58412 0.0
C103 C 0.27567 0.5354 0.54646 0.0
O104 O 0.30892 0.53525 0.57351 0.0
O105 O 0.27556 0.64221 0.53948 0.0
O106 O 0.26853 0.69432 0.56903 0.0
O107 O 0.23754 0.58252 0.64778 0.0
O108 O 0.25709 0.63779 0.63865 0.0
C109 C 0.28011 0.67533 0.53965 0.0
C110 C 0.24467 0.6133 0.66249 0.0
O111 O 0.24632 0.56055 0.54524 0.0
Mg112 Mg 0.66462 0.86637 0.08177 0.0
O113 O 0.58543 0.85242 0.08711 0.0
O114 O 0.5514 0.86581 0.02967 0.0
Mg115 Mg 0.60806 0.88231 0.98641 0.0
C116 C 0.54889 0.85521 0.06515 0.0
C117 C 0.71185 0.86356 0.15873 0.0
O118 O 0.73439 0.88663 0.13719 0.0
O119 O 0.68098 0.8157 0.04832 0.0
O120 O 0.64431 0.82901 0.99201 0.0
O121 O 0.64912 0.92204 0.09603 0.0
O122 O 0.65119 0.90046 0.03555 0.0
C123 C 0.66916 0.80819 0.01295 0.0
C124 C 0.64438 0.92663 0.05855 0.0
O125 O 0.67949 0.84521 0.1429 0.0
Mg126 Mg 0.333 0.10559 0.56939 0.0
O127 O 0.41196 0.11895 0.57469 0.0
O128 O 0.44684 0.10746 0.51686 0.0
Mg129 Mg 0.39039 0.08693 0.47518 0.0
C130 C 0.44836 0.11798 0.55243 0.0
C131 C 0.28457 0.11528 0.64557 0.0
O132 O 0.26029 0.09157 0.62625 0.0
O133 O 0.31802 0.15489 0.53396 0.0
O134 O 0.35435 0.14054 0.47774 0.0
O135 O 0.34728 0.05071 0.58659 0.0
O136 O 0.34651 0.06973 0.525 0.0
C137 C 0.32978 0.16177 0.49849 0.0
C138 C 0.35179 0.04434 0.54935 0.0
O139 O 0.3186 0.13068 0.62843 0.0
Mg140 Mg 0.64721 0.11025 0.93479 0.0
O141 O 0.56666 0.11597 0.92597 0.0
O142 O 0.53324 0.11852 0.98539 0.0
Mg143 Mg 0.58954 0.1088 0.03164 0.0
C144 C 0.53025 0.11926 0.94798 0.0
C145 C 0.70018 0.12981 0.85731 0.0
O146 O 0.73564 0.13297 0.8821 0.0
O147 O 0.65767 0.16665 0.95703 0.0
O148 O 0.62389 0.16051 0.01609 0.0
O149 O 0.64058 0.05232 0.93408 0.0
O150 O 0.63669 0.08486 0.98793 0.0
C151 C 0.647 0.17864 0.99111 0.0
C152 C 0.63552 0.05452 0.97187 0.0
O153 O 0.65901 0.12322 0.87037 0.0
Mg154 Mg 0.34505 0.86466 0.41885 0.0
O155 O 0.4264 0.86324 0.41703 0.0
O156 O 0.45045 0.85356 0.47889 0.0
Mg157 Mg 0.38671 0.85508 0.5203 0.0
C158 C 0.45917 0.85805 0.44234 0.0
C159 C 0.29912 0.86922 0.34013 0.0
O160 O 0.26755 0.88113 0.36523 0.0
O161 O 0.34174 0.80599 0.42933 0.0
O162 O 0.35966 0.80384 0.49352 0.0
O163 O 0.34612 0.9221 0.42631 0.0
O164 O 0.34811 0.8843 0.47548 0.0
C165 C 0.3459 0.78932 0.46163 0.0
C166 C 0.34922 0.91619 0.46372 0.0
O167 O 0.33871 0.85823 0.35287 0.0
Mg168 Mg 0.23016 0.10268 0.88348 0.0
O169 O 0.30961 0.11163 0.89171 0.0
O170 O 0.3288 0.16388 0.86743 0.0
Mg171 Mg 0.26256 0.18583 0.83741 0.0
C172 C 0.33983 0.13574 0.8853 0.0
C173 C 0.21377 0.02984 0.92203 0.0
O174 O 0.19292 0.02445 0.888 0.0
O175 O 0.21412 0.14328 0.93094 0.0
O176 O 0.23086 0.19294 0.89898 0.0
O177 O 0.24448 0.07653 0.8262 0.0
O178 O 0.2317 0.13329 0.83311 0.0
C179 C 0.21593 0.17654 0.92922 0.0
C180 C 0.24262 0.10738 0.81072 0.0
O181 O 0.23262 0.0593 0.92915 0.0
Mg182 Mg 0.76178 0.89678 0.39577 0.0
O183 O 0.68328 0.88225 0.40217 0.0
O184 O 0.67296 0.8283 0.37837 0.0
Mg185 Mg 0.74322 0.80999 0.35194 0.0
C186 C 0.65699 0.85584 0.39498 0.0
C187 C 0.7876 0.96082 0.4488 0.0
O188 O 0.82872 0.95523 0.43179 0.0
O189 O 0.78131 0.85894 0.44539 0.0
O190 O 0.77243 0.80749 0.41464 0.0
O191 O 0.74622 0.91953 0.33651 0.0
O192 O 0.7661 0.86443 0.34651 0.0
C193 C 0.7837 0.82565 0.44476 0.0
C194 C 0.75223 0.8883 0.32262 0.0
O195 O 0.7525 0.94155 0.43995 0.0
Mg196 Mg 0.24577 0.86727 0.10137 0.0
O197 O 0.32616 0.8576 0.09988 0.0
O198 O 0.34219 0.81101 0.13759 0.0
Mg199 Mg 0.27252 0.79213 0.16454 0.0
C200 C 0.35519 0.83565 0.11477 0.0
C201 C 0.2134 0.9213 0.0405 0.0
O202 O 0.1741 0.91525 0.06005 0.0
O203 O 0.23538 0.8203 0.06102 0.0
O204 O 0.24799 0.77586 0.10258 0.0
O205 O 0.25381 0.9018 0.15384 0.0
O206 O 0.24342 0.84462 0.15661 0.0
C207 C 0.23672 0.78769 0.06869 0.0
C208 C 0.25254 0.87347 0.17455 0.0
O209 O 0.25076 0.90464 0.04954 0.0
Mg210 Mg 0.74799 0.13554 0.61551 0.0
O211 O 0.66862 0.13778 0.60161 0.0
O212 O 0.63558 0.18288 0.63338 0.0
Mg213 Mg 0.6937 0.20776 0.67066 0.0
C214 C 0.63294 0.15675 0.61023 0.0
C215 C 0.77725 0.06847 0.56909 0.0
O216 O 0.79522 0.06137 0.60384 0.0
O217 O 0.76375 0.18358 0.57719 0.0
O218 O 0.72971 0.2251 0.6137 0.0
O219 O 0.73364 0.1014 0.66765 0.0
O220 O 0.73599 0.15901 0.67066 0.0
C221 C 0.75334 0.21561 0.58342 0.0
C222 C 0.72964 0.12969 0.68834 0.0
O223 O 0.75673 0.09764 0.56369 0.0
C224 C 0.97693 0.39062 0.06324 0.0
C225 C 0.99724 0.36143 0.04368 0.0
C226 C 0.92181 0.33007 0.0483 0.0
C227 C 0.90363 0.35728 0.07235 0.0
N228 N 0.91383 0.41292 0.1047 0.0
N229 N 0.99095 0.30211 0.02012 0.0
C230 C 0.93099 0.3876 0.08009 0.0
C231 C 0.97009 0.33089 0.03657 0.0
N232 N 0.001 0.42158 0.06455 0.0
N233 N 0.89238 0.30399 0.03569 0.0
H234 H 0.02595 0.30184 0.0104 0.0
H235 H 0.97477 0.27773 0.01865 0.0
H236 H 0.85659 0.30286 0.04326 0.0
H237 H 0.9021 0.28537 0.01481 0.0
H238 H 0.98617 0.44488 0.0745 0.0
H239 H 0.03471 0.4248 0.05252 0.0
H240 H 0.93432 0.43332 0.11567 0.0
H241 H 0.87959 0.41255 0.11612 0.0
C242 C 0.01668 0.66367 0.57786 0.0
C243 C 0.00407 0.6425 0.54523 0.0
C244 C 0.08802 0.62974 0.53404 0.0
C245 C 0.09962 0.64593 0.5705 0.0
N246 N 0.07097 0.67081 0.63179 0.0
N247 N 0.02784 0.599 0.49729 0.0
C248 C 0.06287 0.66089 0.59377 0.0
C249 C 0.03973 0.62368 0.52465 0.0
N250 N 0.98532 0.6874 0.59296 0.0
N251 N 0.12263 0.62152 0.50745 0.0
H252 H 0.99295 0.59252 0.49052 0.0
H253 H 0.05271 0.58234 0.48448 0.0
H254 H 0.15825 0.6275 0.51177 0.0
H255 H 0.1152 0.61257 0.47911 0.0
H256 H 0.99472 0.70556 0.61449 0.0
H257 H 0.95188 0.69178 0.58089 0.0
H258 H 0.04396 0.67882 0.65072 0.0
H259 H 0.10316 0.66698 0.6459 0.0
C260 C 0.94811 0.60275 0.89269 0.0
C261 C 0.9248 0.63286 0.90765 0.0
C262 C 0.99757 0.65086 0.94146 0.0
C263 C 0.02003 0.61981 0.92818 0.0
N264 N 0.01411 0.56276 0.89868 0.0
N265 N 0.92382 0.68229 0.95161 0.0
C266 C 0.99452 0.59475 0.90594 0.0
C267 C 0.94856 0.65601 0.9336 0.0
N268 N 0.92682 0.58261 0.8645 0.0
N269 N 0.02346 0.67588 0.96049 0.0
H270 H 0.88779 0.68656 0.94672 0.0
H271 H 0.93776 0.69792 0.97387 0.0
H272 H 0.05916 0.67268 0.96748 0.0
H273 H 0.01066 0.70075 0.96689 0.0
H274 H 0.94437 0.56293 0.8491 0.0
H275 H 0.89267 0.5872 0.85408 0.0
H276 H 0.99549 0.54195 0.88641 0.0
H277 H 0.04782 0.55604 0.90845 0.0
C278 C 0.06099 0.37816 0.38576 0.0
C279 C 0.08345 0.34846 0.40242 0.0
C280 C 0.01187 0.33502 0.44026 0.0
C281 C 0.99061 0.36596 0.42563 0.0
N282 N 0.99567 0.41924 0.38812 0.0
N283 N 0.0839 0.30121 0.44907 0.0
C284 C 0.01531 0.38812 0.39927 0.0
C285 C 0.05985 0.32753 0.43064 0.0
N286 N 0.08265 0.39614 0.356 0.0
N287 N 0.98559 0.31229 0.46229 0.0
H288 H 0.11908 0.29508 0.44263 0.0
H289 H 0.07048 0.28726 0.47285 0.0
H290 H 0.95031 0.31699 0.46982 0.0
H291 H 0.99727 0.28757 0.47048 0.0
H292 H 0.06576 0.41508 0.33913 0.0
H293 H 0.11687 0.39071 0.34623 0.0
H294 H 0.01417 0.43865 0.37323 0.0
H295 H 0.96141 0.42679 0.39584 0.0
C296 C 0.42064 0.82704 0.06593 0.0
C297 C 0.40576 0.83804 0.10382 0.0
C298 C 0.48531 0.86025 0.1175 0.0
C299 C 0.50123 0.84654 0.08084 0.0
N300 N 0.48663 0.80746 0.02626 0.0
N301 N 0.42687 0.85651 0.16947 0.0
C302 C 0.46964 0.82703 0.05687 0.0
C303 C 0.43913 0.85166 0.13096 0.0
N304 N 0.38814 0.81713 0.0383 0.0
N305 N 0.51251 0.88335 0.13826 0.0
H306 H 0.39347 0.85024 0.18042 0.0
H307 H 0.45126 0.8634 0.19116 0.0
H308 H 0.54538 0.89226 0.12868 0.0
H309 H 0.50017 0.8966 0.16306 0.0
H310 H 0.39701 0.8122 0.00902 0.0
H311 H 0.3518 0.81687 0.04368 0.0
H312 H 0.46554 0.79037 0.01004 0.0
H313 H 0.52272 0.80517 0.0201 0.0
C314 C 0.56326 0.11652 0.61054 0.0
C315 C 0.5859 0.14665 0.59514 0.0
C316 C 0.51573 0.16015 0.55558 0.0
C317 C 0.49466 0.1286 0.56857 0.0
N318 N 0.49949 0.07449 0.60456 0.0
N319 N 0.58736 0.19473 0.54953 0.0
C320 C 0.51865 0.10619 0.59513 0.0
C321 C 0.56309 0.16789 0.56675 0.0
N322 N 0.5837 0.09845 0.64081 0.0
N323 N 0.48986 0.18314 0.53353 0.0
H324 H 0.62211 0.20114 0.5571 0.0
H325 H 0.57465 0.2089 0.52564 0.0
H326 H 0.45504 0.17825 0.52484 0.0
H327 H 0.50129 0.2082 0.52655 0.0
H328 H 0.56644 0.07896 0.65657 0.0
H329 H 0.61697 0.1045 0.65223 0.0
H330 H 0.51778 0.05512 0.61973 0.0
H331 H 0.46618 0.06643 0.59494 0.0
C332 C 0.47418 0.1432 0.89604 0.0
C333 C 0.48225 0.12243 0.93005 0.0
C334 C 0.39672 0.11516 0.93748 0.0
C335 C 0.38901 0.13122 0.90037 0.0
N336 N 0.42392 0.15147 0.83933 0.0
N337 N 0.45014 0.07879 0.97429 0.0
C338 C 0.42874 0.14259 0.87804 0.0
C339 C 0.44325 0.10535 0.94812 0.0
N340 N 0.50861 0.16479 0.88181 0.0
N341 N 0.36047 0.11074 0.96366 0.0
H342 H 0.48346 0.06844 0.9805 0.0
H343 H 0.4222 0.06415 0.9857 0.0
H344 H 0.32645 0.12049 0.95908 0.0
H345 H 0.36596 0.10144 0.99215 0.0
H346 H 0.50244 0.18242 0.85902 0.0
H347 H 0.54127 0.16824 0.89553 0.0
H348 H 0.45286 0.15706 0.82134 0.0
H349 H 0.39212 0.14909 0.824 0.0
C350 C 0.54391 0.87663 0.45173 0.0
C351 C 0.50947 0.85825 0.42934 0.0
C352 C 0.57066 0.84371 0.38088 0.0
C353 C 0.60613 0.85705 0.40656 0.0
N354 N 0.62567 0.87811 0.47195 0.0
N355 N 0.49343 0.8169 0.37702 0.0
C356 C 0.59261 0.87127 0.44359 0.0
C357 C 0.5237 0.83968 0.39509 0.0
N358 N 0.53049 0.90026 0.47981 0.0
N359 N 0.58094 0.83617 0.34248 0.0
H360 H 0.45964 0.81138 0.3877 0.0
H361 H 0.504 0.80051 0.3541 0.0
H362 H 0.61408 0.84049 0.32993 0.0
H363 H 0.55499 0.82948 0.32198 0.0
H364 H 0.55459 0.91648 0.49418 0.0
H365 H 0.49525 0.90663 0.48547 0.0
H366 H 0.61654 0.88549 0.50053 0.0
H367 H 0.66155 0.87247 0.46866 0.0
C368 C 0.17683 0.33879 0.2095 0.0
C369 C 0.20579 0.35852 0.18375 0.0
C370 C 0.2475 0.38356 0.24034 0.0
C371 C 0.21578 0.3661 0.26602 0.0
N372 N 0.14146 0.3363 0.27409 0.0
N373 N 0.25867 0.40771 0.17541 0.0
C374 C 0.17781 0.34636 0.25032 0.0
C375 C 0.23829 0.38329 0.19931 0.0
N376 N 0.14965 0.31205 0.1954 0.0
N377 N 0.28747 0.39918 0.25466 0.0
H378 H 0.25082 0.40997 0.14554 0.0
H379 H 0.27906 0.42829 0.18619 0.0
H380 H 0.29626 0.39967 0.28445 0.0
H381 H 0.3141 0.40887 0.23646 0.0
H382 H 0.13141 0.2949 0.21373 0.0
H383 H 0.14918 0.30475 0.16581 0.0
H384 H 0.11083 0.32425 0.26365 0.0
H385 H 0.1396 0.34429 0.30329 0.0
C386 C 0.83033 0.64799 0.71649 0.0
C387 C 0.80028 0.63073 0.68925 0.0
C388 C 0.76007 0.60104 0.74367 0.0
C389 C 0.79227 0.61651 0.77056 0.0
N390 N 0.86682 0.64539 0.78077 0.0
N391 N 0.74714 0.58241 0.67657 0.0
C392 C 0.83008 0.63726 0.75642 0.0
C393 C 0.76819 0.60474 0.70267 0.0
N394 N 0.85773 0.67546 0.70477 0.0
N395 N 0.72067 0.58403 0.75698 0.0
H396 H 0.75427 0.58264 0.64646 0.0
H397 H 0.727 0.56101 0.68538 0.0
H398 H 0.71299 0.58073 0.78675 0.0
H399 H 0.69353 0.57582 0.73835 0.0
H400 H 0.87676 0.69092 0.72446 0.0
H401 H 0.85779 0.685 0.67604 0.0
H402 H 0.89734 0.65817 0.77131 0.0
H403 H 0.86907 0.63519 0.80907 0.0
C404 C 0.25816 0.59929 0.7725 0.0
C405 C 0.23346 0.6286 0.78806 0.0
C406 C 0.21196 0.64617 0.72126 0.0
C407 C 0.24129 0.61936 0.70566 0.0
N408 N 0.30194 0.576 0.71727 0.0
N409 N 0.19411 0.6836 0.77693 0.0
C410 C 0.26734 0.5976 0.73153 0.0
C411 C 0.21262 0.65324 0.76232 0.0
N412 N 0.27039 0.57192 0.79622 0.0
N413 N 0.18124 0.66342 0.6973 0.0
H414 H 0.19439 0.68974 0.80687 0.0
H415 H 0.18265 0.704 0.75904 0.0
H416 H 0.17778 0.65689 0.66779 0.0
H417 H 0.15582 0.68098 0.70751 0.0
H418 H 0.28421 0.54859 0.78528 0.0
H419 H 0.26177 0.57067 0.82601 0.0
H420 H 0.32498 0.56223 0.73552 0.0
H421 H 0.31109 0.57476 0.68755 0.0
C422 C 0.73273 0.37459 0.23879 0.0
C423 C 0.77178 0.38102 0.21349 0.0
C424 C 0.82472 0.38542 0.27038 0.0
C425 C 0.78601 0.37733 0.29552 0.0
N426 N 0.70583 0.35741 0.30376 0.0
N427 N 0.85605 0.38544 0.20387 0.0
C428 C 0.74077 0.36983 0.27969 0.0
C429 C 0.81818 0.38431 0.22889 0.0
N430 N 0.68771 0.37431 0.2239 0.0
N431 N 0.86702 0.39582 0.28608 0.0
H432 H 0.85225 0.3848 0.17338 0.0
H433 H 0.89112 0.38404 0.21323 0.0
H434 H 0.87356 0.3967 0.31628 0.0
H435 H 0.89462 0.406 0.26932 0.0
H436 H 0.65743 0.37363 0.24138 0.0
H437 H 0.68026 0.37765 0.19406 0.0
H438 H 0.67348 0.34806 0.2935 0.0
H439 H 0.71088 0.35337 0.33385 0.0
C440 C 0.7749 0.86369 0.25664 0.0
C441 C 0.7402 0.87945 0.28129 0.0
C442 C 0.68448 0.88156 0.22596 0.0
C443 C 0.71852 0.86446 0.20188 0.0
N444 N 0.79171 0.8328 0.19571 0.0
N445 N 0.65871 0.89616 0.29199 0.0
C446 C 0.76234 0.85342 0.21778 0.0
C447 C 0.69398 0.88625 0.26672 0.0
N448 N 0.82057 0.86035 0.26952 0.0
N449 N 0.64407 0.89485 0.20957 0.0
H450 H 0.66397 0.89952 0.32212 0.0
H451 H 0.62322 0.89779 0.28384 0.0
H452 H 0.6351 0.89144 0.18005 0.0
H453 H 0.62095 0.9114 0.22457 0.0
H454 H 0.84848 0.85258 0.25146 0.0
H455 H 0.83168 0.86835 0.29738 0.0
H456 H 0.82204 0.8209 0.20684 0.0
H457 H 0.78326 0.8249 0.16713 0.0
C458 C 0.30121 0.10336 0.7556 0.0
C459 C 0.25549 0.11306 0.76906 0.0
C460 C 0.23457 0.13289 0.70272 0.0
C461 C 0.27754 0.11862 0.68843 0.0
N462 N 0.35015 0.08681 0.70011 0.0
N463 N 0.17652 0.13407 0.75523 0.0
C464 C 0.31073 0.10323 0.71457 0.0
C465 C 0.2217 0.12745 0.74268 0.0
N466 N 0.33589 0.09511 0.78208 0.0
N467 N 0.20641 0.15196 0.67806 0.0
H468 H 0.16536 0.13006 0.78413 0.0
H469 H 0.14896 0.14084 0.73638 0.0
H470 H 0.21511 0.15633 0.64861 0.0
H471 H 0.17696 0.16604 0.68752 0.0
H472 H 0.37127 0.09162 0.77431 0.0
H473 H 0.33028 0.09499 0.81241 0.0
H474 H 0.37241 0.07142 0.71731 0.0
H475 H 0.35894 0.08631 0.6703 0.0
C476 C 0.74396 0.10841 0.79726 0.0
C477 C 0.70854 0.1302 0.81417 0.0
C478 C 0.68168 0.14607 0.74812 0.0
C479 C 0.72109 0.12844 0.73149 0.0
N480 N 0.79527 0.09813 0.74139 0.0
N481 N 0.64943 0.17516 0.80542 0.0
C482 C 0.75387 0.11108 0.75637 0.0
C483 C 0.67904 0.15065 0.78951 0.0
N484 N 0.76644 0.08377 0.81955 0.0
N485 N 0.64541 0.15673 0.72458 0.0
H486 H 0.64753 0.18014 0.83558 0.0
H487 H 0.63049 0.19295 0.78839 0.0
H488 H 0.64484 0.15102 0.69469 0.0
H489 H 0.61378 0.16702 0.7354 0.0
H490 H 0.78897 0.06498 0.80757 0.0
H491 H 0.75873 0.07947 0.84915 0.0
H492 H 0.8225 0.08863 0.75911 0.0
H493 H 0.80445 0.09989 0.71173 0.0
C494 C 0.30639 0.88991 0.23083 0.0
C495 C 0.26438 0.87346 0.21705 0.0
C496 C 0.24925 0.85058 0.28318 0.0
C497 C 0.28854 0.8697 0.29757 0.0
N498 N 0.34913 0.91308 0.28691 0.0
N499 N 0.19019 0.84499 0.23206 0.0
C500 C 0.31566 0.89095 0.27193 0.0
C501 C 0.23423 0.85562 0.24376 0.0
N502 N 0.33856 0.90319 0.20477 0.0
N503 N 0.22706 0.82681 0.30682 0.0
H504 H 0.17683 0.84956 0.20392 0.0
H505 H 0.16498 0.83505 0.25141 0.0
H506 H 0.23741 0.82206 0.33581 0.0
H507 H 0.20145 0.80947 0.29657 0.0
H508 H 0.37181 0.91233 0.21313 0.0
H509 H 0.33458 0.90171 0.17433 0.0
H510 H 0.36609 0.93208 0.27015 0.0
H511 H 0.35699 0.91471 0.31685 0.0
C512 C 0.15268 0.20415 0.97055 0.0
C513 C 0.20139 0.19787 0.96336 0.0
C514 C 0.22331 0.24939 0.00176 0.0
C515 C 0.17453 0.25771 0.00528 0.0
N516 N 0.09384 0.2384 0.00602 0.0
N517 N 0.2825 0.20659 0.98212 0.0
C518 C 0.13951 0.23326 0.99416 0.0
C519 C 0.23654 0.21779 0.98275 0.0
N520 N 0.11926 0.18374 0.95276 0.0
N521 N 0.25678 0.27279 0.01395 0.0
H522 H 0.29252 0.18339 0.96819 0.0
H523 H 0.30962 0.2183 -0.00187 0.0
H524 H 0.2483 0.29565 0.02913 0.0
H525 H 0.29275 0.27033 0.00781 0.0
H526 H 0.08318 0.18935 0.95305 0.0
H527 H 0.12798 0.16163 0.93629 0.0
H528 H 0.06663 0.22058 0.00122 0.0
H529 H 0.08454 0.25925 0.02431 0.0
C530 C 0.86256 0.76865 0.50551 0.0
C531 C 0.82734 0.74502 0.51844 0.0
C532 C 0.76564 0.78714 0.50114 0.0
C533 C 0.79985 0.80615 0.47968 0.0
N534 N 0.88118 0.81922 0.46521 0.0
N535 N 0.74558 0.73269 0.53348 0.0
C536 C 0.84868 0.79876 0.48398 0.0
C537 C 0.77894 0.75504 0.51894 0.0
N538 N 0.90905 0.76145 0.51313 0.0
N539 N 0.72035 0.79955 0.50319 0.0
H540 H 0.7543 0.70952 0.5478 0.0
H541 H 0.70926 0.73643 0.53045 0.0
H542 H 0.71061 0.82308 0.48999 0.0
H543 H 0.69389 0.7885 0.52046 0.0
H544 H 0.9368 0.77836 0.50672 0.0
H545 H 0.91924 0.7394 0.52909 0.0
H546 H 0.9171 0.81334 0.46332 0.0
H547 H 0.87157 0.84209 0.45056 0.0
C548 C 0.26206 0.73686 0.02762 0.0
C549 C 0.22679 0.76198 0.03713 0.0
C550 C 0.17121 0.73297 0.99222 0.0
C551 C 0.20354 0.70495 0.98852 0.0
N552 N 0.28009 0.67955 0.00106 0.0
N553 N 0.14683 0.78367 0.02997 0.0
C554 C 0.2494 0.70698 0.00524 0.0
C555 C 0.18131 0.76044 0.01921 0.0
N556 N 0.30774 0.74184 0.03975 0.0
N557 N 0.13086 0.73301 0.97005 0.0
H558 H 0.15249 0.80396 0.04991 0.0
H559 H 0.11158 0.78147 0.02134 0.0
H560 H 0.12329 0.71318 0.9499 0.0
H561 H 0.10746 0.754 0.96873 0.0
H562 H 0.33612 0.72659 0.03035 0.0
H563 H 0.31809 0.76308 0.0569 0.0
H564 H 0.31155 0.67713 0.01678 0.0
H565 H 0.273 0.65816 0.98291 0.0
C566 C 0.78547 0.27603 0.57584 0.0
C567 C 0.77305 0.24384 0.55788 0.0
C568 C 0.79933 0.2682 0.49456 0.0
C569 C 0.8029 0.30192 0.51213 0.0
N570 N 0.77935 0.33795 0.56774 0.0
N571 N 0.75902 0.21242 0.49693 0.0
C572 C 0.78978 0.30592 0.55222 0.0
C573 C 0.77734 0.24064 0.51621 0.0
N574 N 0.79528 0.27819 0.61515 0.0
N575 N 0.81829 0.26182 0.45829 0.0
H576 H 0.7402 0.19273 0.51109 0.0
H577 H 0.75801 0.2107 0.46631 0.0
H578 H 0.83702 0.2805 0.4424 0.0
H579 H 0.81987 0.23685 0.44608 0.0
H580 H 0.80699 0.30129 0.62827 0.0
H581 H 0.79828 0.25626 0.63313 0.0
H582 H 0.76714 0.34101 0.59656 0.0
H583 H 0.7764 0.36039 0.55057 0.0
C584 C 0.69776 0.74454 0.01047 0.0
C585 C 0.69072 0.77762 0.99224 0.0
C586 C 0.70985 0.7515 0.92896 0.0
C587 C 0.72611 0.72061 0.94743 0.0
N588 N 0.74239 0.69038 0.00855 0.0
N589 N 0.71039 0.81362 0.93568 0.0
C590 C 0.72197 0.71765 0.9891 0.0
C591 C 0.70284 0.7815 0.95195 0.0
N592 N 0.68022 0.73817 0.0472 0.0
N593 N 0.69967 0.75228 0.88966 0.0
H594 H 0.71201 0.83648 0.95238 0.0
H595 H 0.72182 0.81664 0.90666 0.0
H596 H 0.69945 0.72987 0.87213 0.0
H597 H 0.68529 0.77432 0.87613 0.0
H598 H 0.6811 0.7135 0.06008 0.0
H599 H 0.66042 0.75643 0.06296 0.0
H600 H 0.74374 0.68901 0.03918 0.0
H601 H 0.76198 0.67102 0.9944 0.0
C602 C 0.30423 0.22585 0.4976 0.0
C603 C 0.30991 0.19304 0.4783 0.0
C604 C 0.29095 0.22084 0.41602 0.0
C605 C 0.27598 0.25159 0.43577 0.0
N606 N 0.2605 0.28031 0.49811 0.0
N607 N 0.28955 0.15853 0.4206 0.0
C608 C 0.28039 0.25342 0.47746 0.0
C609 C 0.29758 0.1902 0.43794 0.0
N610 N 0.32291 0.23138 0.53414 0.0
N611 N 0.3005 0.22083 0.37659 0.0
H612 H 0.28784 0.13528 0.43645 0.0
H613 H 0.27783 0.15627 0.39157 0.0
H614 H 0.30109 0.24361 0.3598 0.0
H615 H 0.31411 0.19894 0.36213 0.0
H616 H 0.3228 0.25584 0.54768 0.0
H617 H 0.34317 0.2128 0.54887 0.0
H618 H 0.2595 0.28084 0.52879 0.0
H619 H 0.24073 0.30003 0.48489 0.0
C620 C 0.70012 0.27109 0.00262 0.0
C621 C 0.7054 0.27172 0.04436 0.0
C622 C 0.68379 0.21064 0.04691 0.0
C623 C 0.66995 0.2109 0.00679 0.0
N624 N 0.65828 0.24475 0.94749 0.0
N625 N 0.68054 0.24493 0.10567 0.0
C626 C 0.67615 0.24213 0.98467 0.0
C627 C 0.69015 0.24247 0.06635 0.0
N628 N 0.71916 0.29693 0.98003 0.0
N629 N 0.69336 0.18022 0.06631 0.0
H630 H 0.67984 0.26876 0.12064 0.0
H631 H 0.66717 0.22391 0.12172 0.0
H632 H 0.69541 0.15612 0.05201 0.0
H633 H 0.70582 0.17995 0.09524 0.0
H634 H 0.7198 0.29581 0.94938 0.0
H635 H 0.73807 0.3178 0.99186 0.0
H636 H 0.65845 0.26803 0.93167 0.0
H637 H 0.63938 0.22466 0.93401 0.0
C638 C 0.26637 0.71287 0.48168 0.0
C639 C 0.29867 0.69357 0.50476 0.0
C640 C 0.36437 0.72801 0.47887 0.0
C641 C 0.33105 0.7524 0.46429 0.0
N642 N 0.25038 0.76692 0.44715 0.0
N643 N 0.37863 0.67841 0.52182 0.0
C644 C 0.28208 0.74396 0.46306 0.0
C645 C 0.34801 0.6992 0.50138 0.0
N646 N 0.22055 0.70175 0.47882 0.0
N647 N 0.41145 0.73329 0.47184 0.0
H648 H 0.36721 0.65643 0.53726 0.0
H649 H 0.41477 0.68324 0.52434 0.0
H650 H 0.42343 0.75438 0.45512 0.0
H651 H 0.4379 0.71562 0.47948 0.0
H652 H 0.19552 0.71296 0.46023 0.0
H653 H 0.20892 0.67902 0.4927 0.0
H654 H 0.21382 0.76445 0.44984 0.0
H655 H 0.26058 0.78932 0.43206 0.0
C656 C 0.13674 0.49232 0.94432 0.0
C657 C 0.17653 0.51423 0.95081 0.0
C658 C 0.20967 0.4714 -0.00335 0.0
C659 C 0.1666 0.45248 -0.00533 0.0
N660 N 0.0868 0.44664 0.97063 0.0
N661 N 0.25193 0.52482 0.98231 0.0
C662 C 0.1296 0.46319 0.96934 0.0
C663 C 0.21331 0.50382 0.97679 0.0
N664 N 0.10605 0.49895 0.91419 0.0
N665 N 0.2477 0.45763 0.01622 0.0
H666 H 0.2589 0.54673 0.96507 0.0
H667 H 0.27636 0.52129 0.0049 0.0
H668 H 0.24657 0.43373 0.03088 0.0
H669 H 0.28161 0.46822 0.01522 0.0
H670 H 0.07921 0.48184 0.90582 0.0
H671 H 0.11 0.5198 0.89491 0.0
H672 H 0.05668 0.4557 0.95619 0.0
H673 H 0.0803 0.42557 0.98913 0.0
C674 C 0.88972 0.529 0.49371 0.0
C675 C 0.84938 0.55099 0.49044 0.0
C676 C 0.81038 0.50848 0.44755 0.0
C677 C 0.85015 0.48609 0.45172 0.0
N678 N 0.93135 0.47738 0.47047 0.0
N679 N 0.77637 0.5659 0.45731 0.0
C680 C 0.89108 0.49714 0.47226 0.0
C681 C 0.81161 0.54228 0.46471 0.0
N682 N 0.92629 0.53843 0.51789 0.0
N683 N 0.77005 0.49654 0.42966 0.0
H684 H 0.77402 0.59016 0.47102 0.0
H685 H 0.75122 0.56263 0.4352 0.0
H686 H 0.76745 0.47206 0.41636 0.0
H687 H 0.73784 0.50976 0.43032 0.0
H688 H 0.95407 0.5219 0.5255 0.0
H689 H 0.92814 0.56279 0.53156 0.0
H690 H 0.9639 0.48514 0.48182 0.0
H691 H 0.93308 0.45417 0.45449 0.0
C692 C 0.72306 0.50789 0.03336 0.0
C693 C 0.7126 0.47307 0.02176 0.0
C694 C 0.71143 0.49141 0.95265 0.0
C695 C 0.71649 0.52677 0.96469 0.0
N696 N 0.71703 0.56927 0.01731 0.0
N697 N 0.68746 0.43297 0.97099 0.0
C698 C 0.7194 0.53521 0.0053 0.0
C699 C 0.7041 0.46517 0.98155 0.0
N700 N 0.73885 0.51478 0.07062 0.0
N701 N 0.71593 0.48254 0.91382 0.0
H702 H 0.6806 0.41326 0.99133 0.0
H703 H 0.67603 0.42701 0.9426 0.0
H704 H 0.72297 0.50069 0.89176 0.0
H705 H 0.71751 0.45677 0.90401 0.0
H706 H 0.75163 0.53914 0.07926 0.0
H707 H 0.74401 0.49545 0.09176 0.0
H708 H 0.71407 0.57659 0.04677 0.0
H709 H 0.71312 0.59007 -0.0022 0.0
C710 C 0.22851 0.46259 0.48079 0.0
C711 C 0.26947 0.4545 0.45824 0.0
C712 C 0.31332 0.50115 0.49162 0.0
C713 C 0.27372 0.50721 0.51651 0.0
N714 N 0.19679 0.48932 0.53993 0.0
N715 N 0.3534 0.46114 0.44741 0.0
C716 C 0.23216 0.48668 0.51257 0.0
C717 C 0.31265 0.47236 0.46518 0.0
N718 N 0.18564 0.44855 0.47078 0.0
N719 N 0.35068 0.52386 0.49181 0.0
H720 H 0.35443 0.43985 0.42822 0.0
H721 H 0.38681 0.47076 0.45457 0.0
H722 H 0.35218 0.54579 0.51001 0.0
H723 H 0.37809 0.52288 0.4713 0.0
H724 H 0.15375 0.45654 0.48334 0.0
H725 H 0.1812 0.43112 0.44745 0.0
H726 H 0.16796 0.4724 0.54095 0.0
H727 H 0.19836 0.50636 0.5639 0.0
C728 C 0.59524 0.00141 -0.00118 0.0
C729 C 0.63581 0.0231 -0.00332 0.0
C730 C 0.68029 0.98306 0.03888 0.0
C731 C 0.63941 0.96176 0.04172 0.0
N732 N 0.5559 0.95334 0.03207 0.0
N733 N 0.71454 0.03815 0.01908 0.0
C734 C 0.59615 0.97175 0.02392 0.0
C735 C 0.67745 0.01515 0.01836 0.0
N736 N 0.55628 0.00901 0.97653 0.0
N737 N 0.72257 0.97164 0.05386 0.0
H738 H 0.71597 0.06067 0.00195 0.0
H739 H 0.74294 0.03609 0.03848 0.0
H740 H 0.72611 0.94873 0.07014 0.0
H741 H 0.75494 0.98358 0.04813 0.0
H742 H 0.52729 0.99244 0.97364 0.0
H743 H 0.55404 0.03124 0.95893 0.0
H744 H 0.52226 0.96063 0.02263 0.0
H745 H 0.5557 0.93237 0.05162 0.0
C746 C 0.31758 0.9526 0.51884 0.0
C747 C 0.35457 0.94539 0.49171 0.0
C748 C 0.39615 -0.00153 0.51234 0.0
C749 C 0.35578 0.00831 0.53444 0.0
N750 N 0.27614 -0.00351 0.55689 0.0
N751 N 0.42966 0.96045 0.46239 0.0
C752 C 0.31633 0.98556 0.53793 0.0
C753 C 0.39426 0.96795 0.48857 0.0
N754 N 0.28294 0.92841 0.52572 0.0
N755 N 0.4365 0.01801 0.51494 0.0
H756 H 0.43109 0.93714 0.4465 0.0
H757 H 0.45667 0.97777 0.45518 0.0
H758 H 0.43879 0.03997 0.53301 0.0
H759 H 0.4687 0.01087 0.50234 0.0
H760 H 0.25872 0.93044 0.54875 0.0
H761 H 0.28019 0.90491 0.51045 0.0
H762 H 0.2441 0.98309 0.55581 0.0
H763 H 0.27331 0.02037 0.57145 0.0
C764 C 0.20053 0.98352 0.02037 0.0
C765 C 0.21472 0.94909 0.01021 0.0
C766 C 0.23381 0.96878 0.94342 0.0
C767 C 0.21427 0.00205 0.95235 0.0
N768 N 0.17032 0.03889 -0.00279 0.0
N769 N 0.2374 0.90739 0.96023 0.0
C770 C 0.19525 0.00887 0.99028 0.0
C771 C 0.22942 0.94125 0.97121 0.0
N772 N 0.19398 0.99249 0.05898 0.0
N773 N 0.25821 0.96379 0.90909 0.0
H774 H 0.2339 0.8864 0.97952 0.0
H775 H 0.24321 0.8998 0.93115 0.0
H776 H 0.26315 0.98349 0.88833 0.0
H777 H 0.27744 0.9412 0.90294 0.0
H778 H 0.18847 0.01811 0.0683 0.0
H779 H 0.19896 0.97504 0.08215 0.0
H780 H 0.15145 0.04339 0.0231 0.0
H781 H 0.16439 0.0578 0.97572 0.0
C782 C 0.75973 0.00768 0.54529 0.0
C783 C 0.77794 0.04153 0.53747 0.0
C784 C 0.79513 0.0237 0.46947 0.0
C785 C 0.78283 0.98877 0.47898 0.0
N786 N 0.76161 0.94629 0.52842 0.0
N787 N 0.81988 0.08035 0.49373 0.0
C788 C 0.76723 0.98039 0.51755 0.0
C789 C 0.79738 0.04925 0.49992 0.0
N790 N 0.73352 0.00183 0.57849 0.0
N791 N 0.80306 0.0328 0.43114 0.0
H792 H 0.82316 0.09953 0.51539 0.0
H793 H 0.83911 0.08583 0.4683 0.0
H794 H 0.80076 0.01502 0.40792 0.0
H795 H 0.80726 0.05855 0.42196 0.0
H796 H 0.71538 0.9786 0.58361 0.0
H797 H 0.72562 0.02137 0.5989 0.0
H798 H 0.75534 0.93865 0.55738 0.0
H799 H 0.76781 0.92534 0.50944 0.0
loop_
_geom_bond_atom_site_label_1
_geom_bond_atom_site_label_2
_geom_bond_distance
_geom_bond_site_symmetry_2
_ccdc_geom_bond_type
Mg0 O1 2.028 . S
Mg0 O7 1.986 . S
Mg0 O9 2.114 . S
Mg0 O10 2.251 . S
Mg0 O13 2.010 . S
O1 Mg0 2.028 . S
O1 C4 1.250 . S
O2 Mg3 2.028 1_554 S
O2 C4 1.248 . S
Mg3 O2 2.028 1_556 S
Mg3 O8 2.032 1_556 S
Mg3 O10 2.079 1_556 S
C4 O1 1.250 . S
C4 O2 1.248 . S
C5 O6 1.264 . S
C5 O13 1.249 . S
O6 C5 1.264 . S
O7 Mg0 1.986 . S
O7 C11 1.246 . S
O8 Mg3 2.032 1_554 S
O8 C11 1.259 . S
O9 Mg0 2.114 . S
O9 C12 1.252 . S
O10 Mg0 2.251 . S
O10 Mg3 2.079 1_554 S
O10 C12 1.273 . S
C11 O7 1.246 . S
C11 O8 1.259 . S
C12 O9 1.252 . S
C12 O10 1.273 . S
O13 Mg0 2.010 . S
O13 C5 1.249 . S
Mg14 O15 2.028 . S
Mg14 O21 1.986 . S
Mg14 O23 2.114 . S
Mg14 O24 2.251 . S
Mg14 O27 2.010 . S
O15 Mg14 2.028 . S
O15 C18 1.250 . S
O16 Mg17 2.028 . S
O16 C18 1.248 . S
Mg17 O16 2.028 . S
Mg17 O22 2.032 . S
Mg17 O24 2.079 . S
C18 O15 1.250 . S
C18 O16 1.248 . S
C19 O20 1.264 . S
C19 O27 1.249 . S
O20 C19 1.264 . S
O21 Mg14 1.986 . S
O21 C25 1.246 . S
O22 Mg17 2.032 . S
O22 C25 1.259 . S
O23 Mg14 2.114 . S
O23 C26 1.252 . S
O24 Mg14 2.251 . S
O24 Mg17 2.079 . S
O24 C26 1.273 . S
C25 O21 1.246 . S
C25 O22 1.259 . S
C26 O23 1.252 . S
C26 O24 1.273 . S
O27 Mg14 2.010 . S
O27 C19 1.249 . S
Mg28 O29 2.028 . S
Mg28 O35 1.986 . S
Mg28 O37 2.114 . S
Mg28 O38 2.251 . S
Mg28 O41 2.010 . S
O29 Mg28 2.028 . S
O29 C32 1.250 . S
O30 Mg31 2.028 1_556 S
O30 C32 1.248 . S
Mg31 O30 2.028 1_554 S
Mg31 O36 2.032 1_554 S
Mg31 O38 2.079 1_554 S
C32 O29 1.250 . S
C32 O30 1.248 . S
C33 O34 1.264 . S
C33 O41 1.249 . S
O34 C33 1.264 . S
O35 Mg28 1.986 . S
O35 C39 1.246 . S
O36 Mg31 2.032 1_556 S
O36 C39 1.259 . S
O37 Mg28 2.114 . S
O37 C40 1.252 . S
O38 Mg28 2.251 . S
O38 Mg31 2.079 1_556 S
O38 C40 1.273 . S
C39 O35 1.246 . S
C39 O36 1.259 . S
C40 O37 1.252 . S
C40 O38 1.273 . S
O41 Mg28 2.010 . S
O41 C33 1.249 . S
Mg42 O43 2.028 . S
Mg42 O49 1.986 . S
Mg42 O51 2.114 . S
Mg42 O52 2.251 . S
Mg42 O55 2.010 . S
O43 Mg42 2.028 . S
O43 C46 1.250 . S
O44 Mg45 2.028 . S
O44 C46 1.248 . S
Mg45 O44 2.028 . S
Mg45 O50 2.032 . S
Mg45 O52 2.079 . S
C46 O43 1.250 . S
C46 O44 1.248 . S
C47 O48 1.264 . S
C47 O55 1.249 . S
O48 C47 1.264 . S
O49 Mg42 1.986 . S
O49 C53 1.246 . S
O50 Mg45 2.032 . S
O50 C53 1.259 . S
O51 Mg42 2.114 . S
O51 C54 1.252 . S
O52 Mg42 2.251 . S
O52 Mg45 2.079 . S
O52 C54 1.273 . S
C53 O49 1.246 . S
C53 O50 1.259 . S
C54 O51 1.252 . S
C54 O52 1.273 . S
O55 Mg42 2.010 . S
O55 C47 1.249 . S
Mg56 O57 2.028 . S
Mg56 O63 1.986 . S
Mg56 O65 2.114 . S
Mg56 O66 2.251 . S
Mg56 O69 2.010 . S
O57 Mg56 2.028 . S
O57 C60 1.250 . S
O58 Mg59 2.028 . S
O58 C60 1.248 . S
Mg59 O58 2.028 . S
Mg59 O64 2.032 . S
Mg59 O66 2.079 . S
C60 O57 1.250 . S
C60 O58 1.248 . S
C61 O62 1.264 . S
C61 O69 1.249 . S
O62 C61 1.264 . S
O63 Mg56 1.986 . S
O63 C67 1.246 . S
O64 Mg59 2.032 . S
O64 C67 1.259 . S
O65 Mg56 2.114 . S
O65 C68 1.252 . S
O66 Mg56 2.251 . S
O66 Mg59 2.079 . S
O66 C68 1.273 . S
C67 O63 1.246 . S
C67 O64 1.259 . S
C68 O65 1.252 . S
C68 O66 1.273 . S
O69 Mg56 2.010 . S
O69 C61 1.249 . S
Mg70 O71 2.028 . S
Mg70 O77 1.986 . S
Mg70 O79 2.114 . S
Mg70 O80 2.251 . S
Mg70 O83 2.010 . S
O71 Mg70 2.028 . S
O71 C74 1.250 . S
O72 Mg73 2.028 . S
O72 C74 1.248 . S
Mg73 O72 2.028 . S
Mg73 O78 2.032 . S
Mg73 O80 2.079 . S
C74 O71 1.250 . S
C74 O72 1.248 . S
C75 O76 1.264 . S
C75 O83 1.249 . S
O76 C75 1.264 . S
O77 Mg70 1.986 . S
O77 C81 1.246 . S
O78 Mg73 2.032 . S
O78 C81 1.259 . S
O79 Mg70 2.114 . S
O79 C82 1.252 . S
O80 Mg70 2.251 . S
O80 Mg73 2.079 . S
O80 C82 1.273 . S
C81 O77 1.246 . S
C81 O78 1.259 . S
C82 O79 1.252 . S
C82 O80 1.273 . S
O83 Mg70 2.010 . S
O83 C75 1.249 . S
Mg84 O85 2.028 . S
Mg84 O91 1.986 . S
Mg84 O93 2.114 . S
Mg84 O94 2.251 . S
Mg84 O97 2.010 . S
O85 Mg84 2.028 . S
O85 C88 1.250 . S
O86 Mg87 2.028 . S
O86 C88 1.248 . S
Mg87 O86 2.028 . S
Mg87 O92 2.032 . S
Mg87 O94 2.079 . S
C88 O85 1.250 . S
C88 O86 1.248 . S
C89 O90 1.264 . S
C89 O97 1.249 . S
O90 C89 1.264 . S
O91 Mg84 1.986 . S
O91 C95 1.246 . S
O92 Mg87 2.032 . S
O92 C95 1.259 . S
O93 Mg84 2.114 . S
O93 C96 1.252 . S
O94 Mg84 2.251 . S
O94 Mg87 2.079 . S
O94 C96 1.273 . S
C95 O91 1.246 . S
C95 O92 1.259 . S
C96 O93 1.252 . S
C96 O94 1.273 . S
O97 Mg84 2.010 . S
O97 C89 1.249 . S
Mg98 O99 2.028 . S
Mg98 O105 1.986 . S
Mg98 O107 2.114 . S
Mg98 O108 2.251 . S
Mg98 O111 2.010 . S
O99 Mg98 2.028 . S
O99 C102 1.250 . S
O100 Mg101 2.028 . S
O100 C102 1.248 . S
Mg101 O100 2.028 . S
Mg101 O106 2.032 . S
Mg101 O108 2.079 . S
C102 O99 1.250 . S
C102 O100 1.248 . S
C103 O104 1.264 . S
C103 O111 1.249 . S
O104 C103 1.264 . S
O105 Mg98 1.986 . S
O105 C109 1.246 . S
O106 Mg101 2.032 . S
O106 C109 1.259 . S
O107 Mg98 2.114 . S
O107 C110 1.252 . S
O108 Mg98 2.251 . S
O108 Mg101 2.079 . S
O108 C110 1.273 . S
C109 O105 1.246 . S
C109 O106 1.259 . S
C110 O107 1.252 . S
C110 O108 1.273 . S
O111 Mg98 2.010 . S
O111 C103 1.249 . S
Mg112 O113 2.028 . S
Mg112 O119 1.986 . S
Mg112 O121 2.114 . S
Mg112 O122 2.251 . S
Mg112 O125 2.010 . S
O113 Mg112 2.028 . S
O113 C116 1.250 . S
O114 Mg115 2.028 1_554 S
O114 C116 1.248 . S
Mg115 O114 2.028 1_556 S
Mg115 O120 2.032 1_556 S
Mg115 O122 2.079 1_556 S
C116 O113 1.250 . S
C116 O114 1.248 . S
C117 O118 1.264 . S
C117 O125 1.249 . S
O118 C117 1.264 . S
O119 Mg112 1.986 . S
O119 C123 1.246 . S
O120 Mg115 2.032 1_554 S
O120 C123 1.259 . S
O121 Mg112 2.114 . S
O121 C124 1.252 . S
O122 Mg112 2.251 . S
O122 Mg115 2.079 1_554 S
O122 C124 1.273 . S
C123 O119 1.246 . S
C123 O120 1.259 . S
C124 O121 1.252 . S
C124 O122 1.273 . S
O125 Mg112 2.010 . S
O125 C117 1.249 . S
Mg126 O127 2.028 . S
Mg126 O133 1.986 . S
Mg126 O135 2.114 . S
Mg126 O136 2.251 . S
Mg126 O139 2.010 . S
O127 Mg126 2.028 . S
O127 C130 1.250 . S
O128 Mg129 2.028 . S
O128 C130 1.248 . S
Mg129 O128 2.028 . S
Mg129 O134 2.032 . S
Mg129 O136 2.079 . S
C130 O127 1.250 . S
C130 O128 1.248 . S
C131 O132 1.264 . S
C131 O139 1.249 . S
O132 C131 1.264 . S
O133 Mg126 1.986 . S
O133 C137 1.246 . S
O134 Mg129 2.032 . S
O134 C137 1.259 . S
O135 Mg126 2.114 . S
O135 C138 1.252 . S
O136 Mg126 2.251 . S
O136 Mg129 2.079 . S
O136 C138 1.273 . S
C137 O133 1.246 . S
C137 O134 1.259 . S
C138 O135 1.252 . S
C138 O136 1.273 . S
O139 Mg126 2.010 . S
O139 C131 1.249 . S
Mg140 O141 2.028 . S
Mg140 O147 1.986 . S
Mg140 O149 2.114 . S
Mg140 O150 2.251 . S
Mg140 O153 2.010 . S
O141 Mg140 2.028 . S
O141 C144 1.250 . S
O142 Mg143 2.028 1_556 S
O142 C144 1.248 . S
Mg143 O142 2.028 1_554 S
Mg143 O148 2.032 1_554 S
Mg143 O150 2.079 1_554 S
C144 O141 1.250 . S
C144 O142 1.248 . S
C145 O146 1.264 . S
C145 O153 1.249 . S
O146 C145 1.264 . S
O147 Mg140 1.986 . S
O147 C151 1.246 . S
O148 Mg143 2.032 1_556 S
O148 C151 1.259 . S
O149 Mg140 2.114 . S
O149 C152 1.252 . S
O150 Mg140 2.251 . S
O150 Mg143 2.079 1_556 S
O150 C152 1.273 . S
C151 O147 1.246 . S
C151 O148 1.259 . S
C152 O149 1.252 . S
C152 O150 1.273 . S
O153 Mg140 2.010 . S
O153 C145 1.249 . S
Mg154 O155 2.028 . S
Mg154 O161 1.986 . S
Mg154 O163 2.114 . S
Mg154 O164 2.251 . S
Mg154 O167 2.010 . S
O155 Mg154 2.028 . S
O155 C158 1.250 . S
O156 Mg157 2.028 . S
O156 C158 1.248 . S
Mg157 O156 2.028 . S
Mg157 O162 2.032 . S
Mg157 O164 2.079 . S
C158 O155 1.250 . S
C158 O156 1.248 . S
C159 O160 1.264 . S
C159 O167 1.249 . S
O160 C159 1.264 . S
O161 Mg154 1.986 . S
O161 C165 1.246 . S
O162 Mg157 2.032 . S
O162 C165 1.259 . S
O163 Mg154 2.114 . S
O163 C166 1.252 . S
O164 Mg154 2.251 . S
O164 Mg157 2.079 . S
O164 C166 1.273 . S
C165 O161 1.246 . S
C165 O162 1.259 . S
C166 O163 1.252 . S
C166 O164 1.273 . S
O167 Mg154 2.010 . S
O167 C159 1.249 . S
Mg168 O169 2.028 . S
Mg168 O175 1.986 . S
Mg168 O177 2.114 . S
Mg168 O178 2.251 . S
Mg168 O181 2.010 . S
O169 Mg168 2.028 . S
O169 C172 1.250 . S
O170 Mg171 2.028 . S
O170 C172 1.248 . S
Mg171 O170 2.028 . S
Mg171 O176 2.032 . S
Mg171 O178 2.079 . S
C172 O169 1.250 . S
C172 O170 1.248 . S
C173 O174 1.264 . S
C173 O181 1.249 . S
O174 C173 1.264 . S
O175 Mg168 1.986 . S
O175 C179 1.246 . S
O176 Mg171 2.032 . S
O176 C179 1.259 . S
O177 Mg168 2.114 . S
O177 C180 1.252 . S
O178 Mg168 2.251 . S
O178 Mg171 2.079 . S
O178 C180 1.273 . S
C179 O175 1.246 . S
C179 O176 1.259 . S
C180 O177 1.252 . S
C180 O178 1.273 . S
O181 Mg168 2.010 . S
O181 C173 1.249 . S
Mg182 O183 2.028 . S
Mg182 O189 1.986 . S
Mg182 O191 2.114 . S
Mg182 O192 2.251 . S
Mg182 O195 2.010 . S
O183 Mg182 2.028 . S
O183 C186 1.250 . S
O184 Mg185 2.028 . S
O184 C186 1.248 . S
Mg185 O184 2.028 . S
Mg185 O190 2.032 . S
Mg185 O192 2.079 . S
C186 O183 1.250 . S
C186 O184 1.248 . S
C187 O188 1.264 . S
C187 O195 1.249 . S
O188 C187 1.264 . S
O189 Mg182 1.986 . S
O189 C193 1.246 . S
O190 Mg185 2.032 . S
O190 C193 1.259 . S
O191 Mg182 2.114 . S
O191 C194 1.252 . S
O192 Mg182 2.251 . S
O192 Mg185 2.079 . S
O192 C194 1.273 . S
C193 O189 1.246 . S
C193 O190 1.259 . S
C194 O191 1.252 . S
C194 O192 1.273 . S
O195 Mg182 2.010 . S
O195 C187 1.249 . S
Mg196 O197 2.028 . S
Mg196 O203 1.986 . S
Mg196 O205 2.114 . S
Mg196 O206 2.251 . S
Mg196 O209 2.010 . S
O197 Mg196 2.028 . S
O197 C200 1.250 . S
O198 Mg199 2.028 . S
O198 C200 1.248 . S
Mg199 O198 2.028 . S
Mg199 O204 2.032 . S
Mg199 O206 2.079 . S
C200 O197 1.250 . S
C200 O198 1.248 . S
C201 O202 1.264 . S
C201 O209 1.249 . S
O202 C201 1.264 . S
O203 Mg196 1.986 . S
O203 C207 1.246 . S
O204 Mg199 2.032 . S
O204 C207 1.259 . S
O205 Mg196 2.114 . S
O205 C208 1.252 . S
O206 Mg196 2.251 . S
O206 Mg199 2.079 . S
O206 C208 1.273 . S
C207 O203 1.246 . S
C207 O204 1.259 . S
C208 O205 1.252 . S
C208 O206 1.273 . S
O209 Mg196 2.010 . S
O209 C201 1.249 . S
Mg210 O211 2.028 . S
Mg210 O217 1.986 . S
Mg210 O219 2.114 . S
Mg210 O220 2.251 . S
Mg210 O223 2.010 . S
O211 Mg210 2.028 . S
O211 C214 1.250 . S
O212 Mg213 2.028 . S
O212 C214 1.248 . S
Mg213 O212 2.028 . S
Mg213 O218 2.032 . S
Mg213 O220 2.079 . S
C214 O211 1.250 . S
C214 O212 1.248 . S
C215 O216 1.264 . S
C215 O223 1.249 . S
O216 C215 1.264 . S
O217 Mg210 1.986 . S
O217 C221 1.246 . S
O218 Mg213 2.032 . S
O218 C221 1.259 . S
O219 Mg210 2.114 . S
O219 C222 1.252 . S
O220 Mg210 2.251 . S
O220 Mg213 2.079 . S
O220 C222 1.273 . S
C221 O217 1.246 . S
C221 O218 1.259 . S
C222 O219 1.252 . S
C222 O220 1.273 . S
O223 Mg210 2.010 . S
O223 C215 1.249 . S
C224 C225 1.363 . S
C224 C230 1.379 1_455 S
C224 N232 1.356 . S
C225 C224 1.363 . S
C225 C231 1.363 . S
C226 C227 1.363 . S
C226 C231 1.379 1_655 S
C226 N233 1.356 . S
C227 C226 1.363 . S
C227 C230 1.363 . S
N228 C230 1.356 . S
N228 H240 0.984 . S
N228 H241 0.985 . S
N229 C231 1.356 . S
N229 H234 0.984 . S
N229 H235 0.985 . S
C230 C224 1.379 1_655 S
C230 C227 1.363 . S
C230 N228 1.356 . S
C231 C225 1.363 . S
C231 C226 1.379 1_455 S
C231 N229 1.356 . S
N232 C224 1.356 . S
N232 H238 0.984 . S
N232 H239 0.984 . S
N233 C226 1.356 . S
N233 H236 0.984 . S
N233 H237 0.985 . S
H234 N229 0.984 . S
H235 N229 0.985 . S
H236 N233 0.984 . S
H237 N233 0.985 . S
H238 N232 0.984 . S
H239 N232 0.984 . S
H240 N228 0.984 . S
H241 N228 0.985 . S
C242 C243 1.363 . S
C242 C248 1.379 1_655 S
C242 N250 1.356 . S
C243 C242 1.363 . S
C243 C249 1.363 . S
C244 C245 1.363 . S
C244 C249 1.379 1_455 S
C244 N251 1.356 . S
C245 C244 1.363 . S
C245 C248 1.363 . S
N246 C248 1.356 . S
N246 H258 0.984 . S
N246 H259 0.985 . S
N247 C249 1.356 . S
N247 H252 0.984 . S
N247 H253 0.985 . S
C248 C242 1.379 1_455 S
C248 C245 1.363 . S
C248 N246 1.356 . S
C249 C243 1.363 . S
C249 C244 1.379 1_655 S
C249 N247 1.356 . S
N250 C242 1.356 . S
N250 H256 0.984 . S
N250 H257 0.984 . S
N251 C244 1.356 . S
N251 H254 0.984 . S
N251 H255 0.985 . S
H252 N247 0.984 . S
H253 N247 0.985 . S
H254 N251 0.984 . S
H255 N251 0.985 . S
H256 N250 0.984 . S
H257 N250 0.984 . S
H258 N246 0.984 . S
H259 N246 0.985 . S
C260 C261 1.363 . S
C260 C266 1.379 1_655 S
C260 N268 1.356 . S
C261 C260 1.363 . S
C261 C267 1.363 . S
C262 C263 1.363 . S
C262 C267 1.379 1_455 S
C262 N269 1.356 . S
C263 C262 1.363 . S
C263 C266 1.363 . S
N264 C266 1.356 . S
N264 H276 0.984 . S
N264 H277 0.985 . S
N265 C267 1.356 . S
N265 H270 0.984 . S
N265 H271 0.985 . S
C266 C260 1.379 1_455 S
C266 C263 1.363 . S
C266 N264 1.356 . S
C267 C261 1.363 . S
C267 C262 1.379 1_655 S
C267 N265 1.356 . S
N268 C260 1.356 . S
N268 H274 0.984 . S
N268 H275 0.984 . S
N269 C262 1.356 . S
N269 H272 0.984 . S
N269 H273 0.985 . S
H270 N265 0.984 . S
H271 N265 0.985 . S
H272 N269 0.984 . S
H273 N269 0.985 . S
H274 N268 0.984 . S
H275 N268 0.984 . S
H276 N264 0.984 . S
H277 N264 0.985 . S
C278 C279 1.363 . S
C278 C284 1.379 1_455 S
C278 N286 1.356 . S
C279 C278 1.363 . S
C279 C285 1.363 . S
C280 C281 1.363 . S
C280 C285 1.379 1_655 S
C280 N287 1.356 . S
C281 C280 1.363 . S
C281 C284 1.363 . S
N282 C284 1.356 . S
N282 H294 0.984 . S
N282 H295 0.985 . S
N283 C285 1.356 . S
N283 H288 0.984 . S
N283 H289 0.985 . S
C284 C278 1.379 1_655 S
C284 C281 1.363 . S
C284 N282 1.356 . S
C285 C279 1.363 . S
C285 C280 1.379 1_455 S
C285 N283 1.356 . S
N286 C278 1.356 . S
N286 H292 0.984 . S
N286 H293 0.984 . S
N287 C280 1.356 . S
N287 H290 0.984 . S
N287 H291 0.985 . S
H288 N283 0.984 . S
H289 N283 0.985 . S
H290 N287 0.984 . S
H291 N287 0.985 . S
H292 N286 0.984 . S
H293 N286 0.984 . S
H294 N282 0.984 . S
H295 N282 0.985 . S
C296 C297 1.363 . S
C296 C302 1.379 . S
C296 N304 1.356 . S
C297 C296 1.363 . S
C297 C303 1.363 . S
C298 C299 1.363 . S
C298 C303 1.379 . S
C298 N305 1.356 . S
C299 C298 1.363 . S
C299 C302 1.363 . S
N300 C302 1.356 . S
N300 H312 0.984 . S
N300 H313 0.985 . S
N301 C303 1.356 . S
N301 H306 0.984 . S
N301 H307 0.985 . S
C302 C296 1.379 . S
C302 C299 1.363 . S
C302 N300 1.356 . S
C303 C297 1.363 . S
C303 C298 1.379 . S
C303 N301 1.356 . S
N304 C296 1.356 . S
N304 H310 0.984 . S
N304 H311 0.984 . S
N305 C298 1.356 . S
N305 H308 0.984 . S
N305 H309 0.985 . S
H306 N301 0.984 . S
H307 N301 0.985 . S
H308 N305 0.984 . S
H309 N305 0.985 . S
H310 N304 0.984 . S
H311 N304 0.984 . S
H312 N300 0.984 . S
H313 N300 0.985 . S
C314 C315 1.363 . S
C314 C320 1.379 . S
C314 N322 1.356 . S
C315 C314 1.363 . S
C315 C321 1.363 . S
C316 C317 1.363 . S
C316 C321 1.379 . S
C316 N323 1.356 . S
C317 C316 1.363 . S
C317 C320 1.363 . S
N318 C320 1.356 . S
N318 H330 0.984 . S
N318 H331 0.985 . S
N319 C321 1.356 . S
N319 H324 0.984 . S
N319 H325 0.985 . S
C320 C314 1.379 . S
C320 C317 1.363 . S
C320 N318 1.356 . S
C321 C315 1.363 . S
C321 C316 1.379 . S
C321 N319 1.356 . S
N322 C314 1.356 . S
N322 H328 0.984 . S
N322 H329 0.984 . S
N323 C316 1.356 . S
N323 H326 0.984 . S
N323 H327 0.985 . S
H324 N319 0.984 . S
H325 N319 0.985 . S
H326 N323 0.984 . S
H327 N323 0.985 . S
H328 N322 0.984 . S
H329 N322 0.984 . S
H330 N318 0.984 . S
H331 N318 0.985 . S
C332 C333 1.363 . S
C332 C338 1.379 . S
C332 N340 1.356 . S
C333 C332 1.363 . S
C333 C339 1.363 . S
C334 C335 1.363 . S
C334 C339 1.379 . S
C334 N341 1.356 . S
C335 C334 1.363 . S
C335 C338 1.363 . S
N336 C338 1.356 . S
N336 H348 0.984 . S
N336 H349 0.985 . S
N337 C339 1.356 . S
N337 H342 0.984 . S
N337 H343 0.985 . S
C338 C332 1.379 . S
C338 C335 1.363 . S
C338 N336 1.356 . S
C339 C333 1.363 . S
C339 C334 1.379 . S
C339 N337 1.356 . S
N340 C332 1.356 . S
N340 H346 0.984 . S
N340 H347 0.984 . S
N341 C334 1.356 . S
N341 H344 0.984 . S
N341 H345 0.985 . S
H342 N337 0.984 . S
H343 N337 0.985 . S
H344 N341 0.984 . S
H345 N341 0.985 . S
H346 N340 0.984 . S
H347 N340 0.984 . S
H348 N336 0.984 . S
H349 N336 0.985 . S
C350 C351 1.363 . S
C350 C356 1.379 . S
C350 N358 1.356 . S
C351 C350 1.363 . S
C351 C357 1.363 . S
C352 C353 1.363 . S
C352 C357 1.379 . S
C352 N359 1.356 . S
C353 C352 1.363 . S
C353 C356 1.363 . S
N354 C356 1.356 . S
N354 H366 0.984 . S
N354 H367 0.985 . S
N355 C357 1.356 . S
N355 H360 0.984 . S
N355 H361 0.985 . S
C356 C350 1.379 . S
C356 C353 1.363 . S
C356 N354 1.356 . S
C357 C351 1.363 . S
C357 C352 1.379 . S
C357 N355 1.356 . S
N358 C350 1.356 . S
N358 H364 0.984 . S
N358 H365 0.984 . S
N359 C352 1.356 . S
N359 H362 0.984 . S
N359 H363 0.985 . S
H360 N355 0.984 . S
H361 N355 0.985 . S
H362 N359 0.984 . S
H363 N359 0.985 . S
H364 N358 0.984 . S
H365 N358 0.984 . S
H366 N354 0.984 . S
H367 N354 0.985 . S
C368 C369 1.363 . S
C368 C374 1.379 . S
C368 N376 1.356 . S
C369 C368 1.363 . S
C369 C375 1.363 . S
C370 C371 1.363 . S
C370 C375 1.379 . S
C370 N377 1.356 . S
C371 C370 1.363 . S
C371 C374 1.363 . S
N372 C374 1.356 . S
N372 H384 0.984 . S
N372 H385 0.985 . S
N373 C375 1.356 . S
N373 H378 0.984 . S
N373 H379 0.985 . S
C374 C368 1.379 . S
C374 C371 1.363 . S
C374 N372 1.356 . S
C375 C369 1.363 . S
C375 C370 1.379 . S
C375 N373 1.356 . S
N376 C368 1.356 . S
N376 H382 0.984 . S
N376 H383 0.984 . S
N377 C370 1.356 . S
N377 H380 0.984 . S
N377 H381 0.985 . S
H378 N373 0.984 . S
H379 N373 0.985 . S
H380 N377 0.984 . S
H381 N377 0.985 . S
H382 N376 0.984 . S
H383 N376 0.984 . S
H384 N372 0.984 . S
H385 N372 0.985 . S
C386 C387 1.363 . S
C386 C392 1.379 . S
C386 N394 1.356 . S
C387 C386 1.363 . S
C387 C393 1.363 . S
C388 C389 1.363 . S
C388 C393 1.379 . S
C388 N395 1.356 . S
C389 C388 1.363 . S
C389 C392 1.363 . S
N390 C392 1.356 . S
N390 H402 0.984 . S
N390 H403 0.985 . S
N391 C393 1.356 . S
N391 H396 0.984 . S
N391 H397 0.985 . S
C392 C386 1.379 . S
C392 C389 1.363 . S
C392 N390 1.356 . S
C393 C387 1.363 . S
C393 C388 1.379 . S
C393 N391 1.356 . S
N394 C386 1.356 . S
N394 H400 0.984 . S
N394 H401 0.984 . S
N395 C388 1.356 . S
N395 H398 0.984 . S
N395 H399 0.985 . S
H396 N391 0.984 . S
H397 N391 0.985 . S
H398 N395 0.984 . S
H399 N395 0.985 . S
H400 N394 0.984 . S
H401 N394 0.984 . S
H402 N390 0.984 . S
H403 N390 0.985 . S
C404 C405 1.363 . S
C404 C410 1.379 . S
C404 N412 1.356 . S
C405 C404 1.363 . S
C405 C411 1.363 . S
C406 C407 1.363 . S
C406 C411 1.379 . S
C406 N413 1.356 . S
C407 C406 1.363 . S
C407 C410 1.363 . S
N408 C410 1.356 . S
N408 H420 0.984 . S
N408 H421 0.985 . S
N409 C411 1.356 . S
N409 H414 0.984 . S
N409 H415 0.985 . S
C410 C404 1.379 . S
C410 C407 1.363 . S
C410 N408 1.356 . S
C411 C405 1.363 . S
C411 C406 1.379 . S
C411 N409 1.356 . S
N412 C404 1.356 . S
N412 H418 0.984 . S
N412 H419 0.984 . S
N413 C406 1.356 . S
N413 H416 0.984 . S
N413 H417 0.985 . S
H414 N409 0.984 . S
H415 N409 0.985 . S
H416 N413 0.984 . S
H417 N413 0.985 . S
H418 N412 0.984 . S
H419 N412 0.984 . S
H420 N408 0.984 . S
H421 N408 0.985 . S
C422 C423 1.363 . S
C422 C428 1.379 . S
C422 N430 1.356 . S
C423 C422 1.363 . S
C423 C429 1.363 . S
C424 C425 1.363 . S
C424 C429 1.379 . S
C424 N431 1.356 . S
C425 C424 1.363 . S
C425 C428 1.363 . S
N426 C428 1.356 . S
N426 H438 0.984 . S
N426 H439 0.985 . S
N427 C429 1.356 . S
N427 H432 0.984 . S
N427 H433 0.985 . S
C428 C422 1.379 . S
C428 C425 1.363 . S
C428 N426 1.356 . S
C429 C423 1.363 . S
C429 C424 1.379 . S
C429 N427 1.356 . S
N430 C422 1.356 . S
N430 H436 0.984 . S
N430 H437 0.984 . S
N431 C424 1.356 . S
N431 H434 0.984 . S
N431 H435 0.985 . S
H432 N427 0.984 . S
H433 N427 0.985 . S
H434 N431 0.984 . S
H435 N431 0.985 . S
H436 N430 0.984 . S
H437 N430 0.984 . S
H438 N426 0.984 . S
H439 N426 0.985 . S
C440 C441 1.363 . S
C440 C446 1.379 . S
C440 N448 1.356 . S
C441 C440 1.363 . S
C441 C447 1.363 . S
C442 C443 1.363 . S
C442 C447 1.379 . S
C442 N449 1.356 . S
C443 C442 1.363 . S
C443 C446 1.363 . S
N444 C446 1.356 . S
N444 H456 0.984 . S
N444 H457 0.985 . S
N445 C447 1.356 . S
N445 H450 0.984 . S
N445 H451 0.985 . S
C446 C440 1.379 . S
C446 C443 1.363 . S
C446 N444 1.356 . S
C447 C441 1.363 . S
C447 C442 1.379 . S
C447 N445 1.356 . S
N448 C440 1.356 . S
N448 H454 0.984 . S
N448 H455 0.984 . S
N449 C442 1.356 . S
N449 H452 0.984 . S
N449 H453 0.985 . S
H450 N445 0.984 . S
H451 N445 0.985 . S
H452 N449 0.984 . S
H453 N449 0.985 . S
H454 N448 0.984 . S
H455 N448 0.984 . S
H456 N444 0.984 . S
H457 N444 0.985 . S
C458 C459 1.363 . S
C458 C464 1.379 . S
C458 N466 1.356 . S
C459 C458 1.363 . S
C459 C465 1.363 . S
C460 C461 1.363 . S
C460 C465 1.379 . S
C460 N467 1.356 . S
C461 C460 1.363 . S
C461 C464 1.363 . S
N462 C464 1.356 . S
N462 H474 0.984 . S
N462 H475 0.985 . S
N463 C465 1.356 . S
N463 H468 0.984 . S
N463 H469 0.985 . S
C464 C458 1.379 . S
C464 C461 1.363 . S
C464 N462 1.356 . S
C465 C459 1.363 . S
C465 C460 1.379 . S
C465 N463 1.356 . S
N466 C458 1.356 . S
N466 H472 0.984 . S
N466 H473 0.984 . S
N467 C460 1.356 . S
N467 H470 0.984 . S
N467 H471 0.985 . S
H468 N463 0.984 . S
H469 N463 0.985 . S
H470 N467 0.984 . S
H471 N467 0.985 . S
H472 N466 0.984 . S
H473 N466 0.984 . S
H474 N462 0.984 . S
H475 N462 0.985 . S
C476 C477 1.363 . S
C476 C482 1.379 . S
C476 N484 1.356 . S
C477 C476 1.363 . S
C477 C483 1.363 . S
C478 C479 1.363 . S
C478 C483 1.379 . S
C478 N485 1.356 . S
C479 C478 1.363 . S
C479 C482 1.363 . S
N480 C482 1.356 . S
N480 H492 0.984 . S
N480 H493 0.985 . S
N481 C483 1.356 . S
N481 H486 0.984 . S
N481 H487 0.985 . S
C482 C476 1.379 . S
C482 C479 1.363 . S
C482 N480 1.356 . S
C483 C477 1.363 . S
C483 C478 1.379 . S
C483 N481 1.356 . S
N484 C476 1.356 . S
N484 H490 0.984 . S
N484 H491 0.984 . S
N485 C478 1.356 . S
N485 H488 0.984 . S
N485 H489 0.985 . S
H486 N481 0.984 . S
H487 N481 0.985 . S
H488 N485 0.984 . S
H489 N485 0.985 . S
H490 N484 0.984 . S
H491 N484 0.984 . S
H492 N480 0.984 . S
H493 N480 0.985 . S
C494 C495 1.363 . S
C494 C500 1.379 . S
C494 N502 1.356 . S
C495 C494 1.363 . S
C495 C501 1.363 . S
C496 C497 1.363 . S
C496 C501 1.379 . S
C496 N503 1.356 . S
C497 C496 1.363 . S
C497 C500 1.363 . S
N498 C500 1.356 . S
N498 H510 0.984 . S
N498 H511 0.985 . S
N499 C501 1.356 . S
N499 H504 0.984 . S
N499 H505 0.985 . S
C500 C494 1.379 . S
C500 C497 1.363 . S
C500 N498 1.356 . S
C501 C495 1.363 . S
C501 C496 1.379 . S
C501 N499 1.356 . S
N502 C494 1.356 . S
N502 H508 0.984 . S
N502 H509 0.984 . S
N503 C496 1.356 . S
N503 H506 0.984 . S
N503 H507 0.985 . S
H504 N499 0.984 . S
H505 N499 0.985 . S
H506 N503 0.984 . S
H507 N503 0.985 . S
H508 N502 0.984 . S
H509 N502 0.984 . S
H510 N498 0.984 . S
H511 N498 0.985 . S
C512 C513 1.363 . S
C512 C518 1.379 1_556 S
C512 N520 1.356 . S
C513 C512 1.363 . S
C513 C519 1.363 . S
C514 C515 1.363 1_556 S
C514 C519 1.379 . S
C514 N521 1.356 1_556 S
C515 C514 1.363 1_554 S
C515 C518 1.363 . S
N516 C518 1.356 . S
N516 H528 0.984 . S
N516 H529 0.985 . S
N517 C519 1.356 . S
N517 H522 0.984 . S
N517 H523 0.985 . S
C518 C512 1.379 1_554 S
C518 C515 1.363 . S
C518 N516 1.356 . S
C519 C513 1.363 . S
C519 C514 1.379 . S
C519 N517 1.356 . S
N520 C512 1.356 . S
N520 H526 0.983 1_556 S
N520 H527 0.984 . S
N521 C514 1.356 1_554 S
N521 H524 0.984 . S
N521 H525 0.985 1_554 S
H522 N517 0.984 . S
H523 N517 0.985 . S
H524 N521 0.984 . S
H525 N521 0.985 1_556 S
H526 N520 0.983 1_554 S
H527 N520 0.984 . S
H528 N516 0.984 . S
H529 N516 0.985 . S
C530 C531 1.363 . S
C530 C536 1.379 . S
C530 N538 1.356 . S
C531 C530 1.363 . S
C531 C537 1.363 . S
C532 C533 1.363 . S
C532 C537 1.379 . S
C532 N539 1.356 . S
C533 C532 1.363 . S
C533 C536 1.363 . S
N534 C536 1.356 . S
N534 H546 0.984 . S
N534 H547 0.985 . S
N535 C537 1.356 . S
N535 H540 0.984 . S
N535 H541 0.985 . S
C536 C530 1.379 . S
C536 C533 1.363 . S
C536 N534 1.356 . S
C537 C531 1.363 . S
C537 C532 1.379 . S
C537 N535 1.356 . S
N538 C530 1.356 . S
N538 H544 0.984 . S
N538 H545 0.984 . S
N539 C532 1.356 . S
N539 H542 0.984 . S
N539 H543 0.985 . S
H540 N535 0.984 . S
H541 N535 0.985 . S
H542 N539 0.984 . S
H543 N539 0.985 . S
H544 N538 0.984 . S
H545 N538 0.984 . S
H546 N534 0.984 . S
H547 N534 0.985 . S
C548 C549 1.363 . S
C548 C554 1.379 . S
C548 N556 1.356 . S
C549 C548 1.363 . S
C549 C555 1.363 1_554 S
C550 C551 1.363 . S
C550 C555 1.379 . S
C550 N557 1.356 . S
C551 C550 1.363 . S
C551 C554 1.363 1_556 S
N552 C554 1.356 . S
N552 H564 0.984 . S
N552 H565 0.985 1_554 S
N553 C555 1.356 . S
N553 H558 0.984 1_556 S
N553 H559 0.985 . S
C554 C548 1.379 . S
C554 C551 1.363 1_554 S
C554 N552 1.356 . S
C555 C549 1.363 1_556 S
C555 C550 1.379 . S
C555 N553 1.356 . S
N556 C548 1.356 . S
N556 H562 0.984 . S
N556 H563 0.984 . S
N557 C550 1.356 . S
N557 H560 0.984 . S
N557 H561 0.985 . S
H558 N553 0.984 1_554 S
H559 N553 0.985 . S
H560 N557 0.984 . S
H561 N557 0.985 . S
H562 N556 0.984 . S
H563 N556 0.984 . S
H564 N552 0.984 . S
H565 N552 0.985 1_556 S
C566 C567 1.363 . S
C566 C572 1.379 . S
C566 N574 1.356 . S
C567 C566 1.363 . S
C567 C573 1.363 . S
C568 C569 1.363 . S
C568 C573 1.379 . S
C568 N575 1.356 . S
C569 C568 1.363 . S
C569 C572 1.363 . S
N570 C572 1.356 . S
N570 H582 0.984 . S
N570 H583 0.985 . S
N571 C573 1.356 . S
N571 H576 0.984 . S
N571 H577 0.985 . S
C572 C566 1.379 . S
C572 C569 1.363 . S
C572 N570 1.356 . S
C573 C567 1.363 . S
C573 C568 1.379 . S
C573 N571 1.356 . S
N574 C566 1.356 . S
N574 H580 0.984 . S
N574 H581 0.984 . S
N575 C568 1.356 . S
N575 H578 0.984 . S
N575 H579 0.985 . S
H576 N571 0.984 . S
H577 N571 0.985 . S
H578 N575 0.984 . S
H579 N575 0.985 . S
H580 N574 0.984 . S
H581 N574 0.984 . S
H582 N570 0.984 . S
H583 N570 0.985 . S
C584 C585 1.363 . S
C584 C590 1.379 . S
C584 N592 1.356 . S
C585 C584 1.363 . S
C585 C591 1.363 1_554 S
C586 C587 1.363 . S
C586 C591 1.379 . S
C586 N593 1.356 . S
C587 C586 1.363 . S
C587 C590 1.363 1_556 S
N588 C590 1.356 . S
N588 H600 0.984 . S
N588 H601 0.985 1_554 S
N589 C591 1.356 . S
N589 H594 0.984 1_556 S
N589 H595 0.985 . S
C590 C584 1.379 . S
C590 C587 1.363 1_554 S
C590 N588 1.356 . S
C591 C585 1.363 1_556 S
C591 C586 1.379 . S
C591 N589 1.356 . S
N592 C584 1.356 . S
N592 H598 0.984 . S
N592 H599 0.984 . S
N593 C586 1.356 . S
N593 H596 0.984 . S
N593 H597 0.985 . S
H594 N589 0.984 1_554 S
H595 N589 0.985 . S
H596 N593 0.984 . S
H597 N593 0.985 . S
H598 N592 0.984 . S
H599 N592 0.984 . S
H600 N588 0.984 . S
H601 N588 0.985 1_556 S
C602 C603 1.363 . S
C602 C608 1.379 . S
C602 N610 1.356 . S
C603 C602 1.363 . S
C603 C609 1.363 . S
C604 C605 1.363 . S
C604 C609 1.379 . S
C604 N611 1.356 . S
C605 C604 1.363 . S
C605 C608 1.363 . S
N606 C608 1.356 . S
N606 H618 0.984 . S
N606 H619 0.985 . S
N607 C609 1.356 . S
N607 H612 0.984 . S
N607 H613 0.985 . S
C608 C602 1.379 . S
C608 C605 1.363 . S
C608 N606 1.356 . S
C609 C603 1.363 . S
C609 C604 1.379 . S
C609 N607 1.356 . S
N610 C602 1.356 . S
N610 H616 0.984 . S
N610 H617 0.984 . S
N611 C604 1.356 . S
N611 H614 0.984 . S
N611 H615 0.985 . S
H612 N607 0.984 . S
H613 N607 0.985 . S
H614 N611 0.984 . S
H615 N611 0.985 . S
H616 N610 0.984 . S
H617 N610 0.984 . S
H618 N606 0.984 . S
H619 N606 0.985 . S
C620 C621 1.363 1_556 S
C620 C626 1.379 . S
C620 N628 1.356 . S
C621 C620 1.363 1_554 S
C621 C627 1.363 . S
C622 C623 1.363 1_554 S
C622 C627 1.379 . S
C622 N629 1.356 . S
C623 C622 1.363 1_556 S
C623 C626 1.363 . S
N624 C626 1.356 . S
N624 H636 0.984 . S
N624 H637 0.985 . S
N625 C627 1.356 . S
N625 H630 0.984 . S
N625 H631 0.985 . S
C626 C620 1.379 . S
C626 C623 1.363 . S
C626 N624 1.356 . S
C627 C621 1.363 . S
C627 C622 1.379 . S
C627 N625 1.356 . S
N628 C620 1.356 . S
N628 H634 0.984 . S
N628 H635 1.002 . S
N629 C622 1.356 . S
N629 H632 0.984 . S
N629 H633 0.985 . S
H630 N625 0.984 . S
H631 N625 0.985 . S
H632 N629 0.984 . S
H633 N629 0.985 . S
H634 N628 0.984 . S
H635 N628 1.002 . S
H636 N624 0.984 . S
H637 N624 0.985 . S
C638 C639 1.363 . S
C638 C644 1.379 . S
C638 N646 1.356 . S
C639 C638 1.363 . S
C639 C645 1.363 . S
C640 C641 1.363 . S
C640 C645 1.379 . S
C640 N647 1.356 . S
C641 C640 1.363 . S
C641 C644 1.363 . S
N642 C644 1.356 . S
N642 H654 0.984 . S
N642 H655 0.985 . S
N643 C645 1.356 . S
N643 H648 0.984 . S
N643 H649 0.985 . S
C644 C638 1.379 . S
C644 C641 1.363 . S
C644 N642 1.356 . S
C645 C639 1.363 . S
C645 C640 1.379 . S
C645 N643 1.356 . S
N646 C638 1.356 . S
N646 H652 0.984 . S
N646 H653 0.984 . S
N647 C640 1.356 . S
N647 H650 0.984 . S
N647 H651 0.985 . S
H648 N643 0.984 . S
H649 N643 0.985 . S
H650 N647 0.984 . S
H651 N647 0.985 . S
H652 N646 0.984 . S
H653 N646 0.984 . S
H654 N642 0.984 . S
H655 N642 0.985 . S
C656 C657 1.363 . S
C656 C662 1.379 . S
C656 N664 1.356 . S
C657 C656 1.363 . S
C657 C663 1.363 1_556 S
C658 C659 1.363 . S
C658 C663 1.379 . S
C658 N665 1.356 . S
C659 C658 1.363 . S
C659 C662 1.363 1_554 S
N660 C662 1.356 . S
N660 H672 0.984 . S
N660 H673 0.985 1_556 S
N661 C663 1.356 . S
N661 H666 0.984 1_554 S
N661 H667 0.985 . S
C662 C656 1.379 . S
C662 C659 1.363 1_556 S
C662 N660 1.356 . S
C663 C657 1.363 1_554 S
C663 C658 1.379 . S
C663 N661 1.356 . S
N664 C656 1.356 . S
N664 H670 0.984 . S
N664 H671 0.984 . S
N665 C658 1.356 . S
N665 H668 0.984 . S
N665 H669 0.985 . S
H666 N661 0.984 1_556 S
H667 N661 0.985 . S
H668 N665 0.984 . S
H669 N665 0.985 . S
H670 N664 0.984 . S
H671 N664 0.984 . S
H672 N660 0.984 . S
H673 N660 0.985 1_554 S
C674 C675 1.363 . S
C674 C680 1.379 . S
C674 N682 1.356 . S
C675 C674 1.363 . S
C675 C681 1.363 . S
C676 C677 1.363 . S
C676 C681 1.379 . S
C676 N683 1.356 . S
C677 C676 1.363 . S
C677 C680 1.363 . S
N678 C680 1.356 . S
N678 H690 0.984 . S
N678 H691 0.985 . S
N679 C681 1.356 . S
N679 H684 0.984 . S
N679 H685 0.985 . S
C680 C674 1.379 . S
C680 C677 1.363 . S
C680 N678 1.356 . S
C681 C675 1.363 . S
C681 C676 1.379 . S
C681 N679 1.356 . S
N682 C674 1.356 . S
N682 H688 0.984 . S
N682 H689 0.984 . S
N683 C676 1.356 . S
N683 H686 0.984 . S
N683 H687 0.985 . S
H684 N679 0.984 . S
H685 N679 0.985 . S
H686 N683 0.984 . S
H687 N683 0.985 . S
H688 N682 0.984 . S
H689 N682 0.984 . S
H690 N678 0.984 . S
H691 N678 0.985 . S
C692 C693 1.363 . S
C692 C698 1.379 . S
C692 N700 1.356 . S
C693 C692 1.363 . S
C693 C699 1.363 1_554 S
C694 C695 1.363 . S
C694 C699 1.379 . S
C694 N701 1.356 . S
C695 C694 1.363 . S
C695 C698 1.363 1_556 S
N696 C698 1.356 . S
N696 H708 0.984 . S
N696 H709 0.985 1_554 S
N697 C699 1.356 . S
N697 H702 0.984 1_556 S
N697 H703 0.985 . S
C698 C692 1.379 . S
C698 C695 1.363 1_554 S
C698 N696 1.356 . S
C699 C693 1.363 1_556 S
C699 C694 1.379 . S
C699 N697 1.356 . S
N700 C692 1.356 . S
N700 H706 0.984 . S
N700 H707 0.984 . S
N701 C694 1.356 . S
N701 H704 0.984 . S
N701 H705 0.985 . S
H702 N697 0.984 1_554 S
H703 N697 0.985 . S
H704 N701 0.984 . S
H705 N701 0.985 . S
H706 N700 0.984 . S
H707 N700 0.984 . S
H708 N696 0.984 . S
H709 N696 0.985 1_556 S
C710 C711 1.363 . S
C710 C716 1.379 . S
C710 N718 1.356 . S
C711 C710 1.363 . S
C711 C717 1.363 . S
C712 C713 1.363 . S
C712 C717 1.379 . S
C712 N719 1.356 . S
C713 C712 1.363 . S
C713 C716 1.363 . S
N714 C716 1.356 . S
N714 H726 0.984 . S
N714 H727 0.985 . S
N715 C717 1.356 . S
N715 H720 0.984 . S
N715 H721 0.985 . S
C716 C710 1.379 . S
C716 C713 1.363 . S
C716 N714 1.356 . S
C717 C711 1.363 . S
C717 C712 1.379 . S
C717 N715 1.356 . S
N718 C710 1.356 . S
N718 H724 0.984 . S
N718 H725 0.984 . S
N719 C712 1.356 . S
N719 H722 0.984 . S
N719 H723 0.985 . S
H720 N715 0.984 . S
H721 N715 0.985 . S
H722 N719 0.984 . S
H723 N719 0.985 . S
H724 N718 0.984 . S
H725 N718 0.984 . S
H726 N714 0.984 . S
H727 N714 0.985 . S
C728 C729 1.363 . S
C728 C734 1.379 1_545 S
C728 N736 1.356 . S
C729 C728 1.363 . S
C729 C735 1.363 1_556 S
C730 C731 1.363 . S
C730 C735 1.379 1_565 S
C730 N737 1.356 . S
C731 C730 1.363 . S
C731 C734 1.363 1_554 S
N732 C734 1.356 . S
N732 H744 0.984 . S
N732 H745 0.985 1_556 S
N733 C735 1.356 . S
N733 H738 0.984 1_554 S
N733 H739 0.985 . S
C734 C728 1.379 1_565 S
C734 C731 1.363 1_556 S
C734 N732 1.356 . S
C735 C729 1.363 1_554 S
C735 C730 1.379 1_545 S
C735 N733 1.356 . S
N736 C728 1.356 . S
N736 H742 0.984 . S
N736 H743 0.984 . S
N737 C730 1.356 . S
N737 H740 0.984 . S
N737 H741 0.985 . S
H738 N733 0.984 1_556 S
H739 N733 0.985 . S
H740 N737 0.984 . S
H741 N737 0.985 . S
H742 N736 0.984 . S
H743 N736 0.984 . S
H744 N732 0.984 . S
H745 N732 0.985 1_554 S
C746 C747 1.363 . S
C746 C752 1.379 1_565 S
C746 N754 1.356 . S
C747 C746 1.363 . S
C747 C753 1.363 . S
C748 C749 1.363 . S
C748 C753 1.379 1_545 S
C748 N755 1.356 . S
C749 C748 1.363 . S
C749 C752 1.363 . S
N750 C752 1.356 . S
N750 H762 0.984 . S
N750 H763 0.985 . S
N751 C753 1.356 . S
N751 H756 0.984 . S
N751 H757 0.985 . S
C752 C746 1.379 1_545 S
C752 C749 1.363 . S
C752 N750 1.356 . S
C753 C747 1.363 . S
C753 C748 1.379 1_565 S
C753 N751 1.356 . S
N754 C746 1.356 . S
N754 H760 0.984 . S
N754 H761 0.984 . S
N755 C748 1.356 . S
N755 H758 0.984 . S
N755 H759 0.985 . S
H756 N751 0.984 . S
H757 N751 0.985 . S
H758 N755 0.984 . S
H759 N755 0.985 . S
H760 N754 0.984 . S
H761 N754 0.984 . S
H762 N750 0.984 . S
H763 N750 0.985 . S
C764 C765 1.363 . S
C764 C770 1.379 1_565 S
C764 N772 1.356 . S
C765 C764 1.363 . S
C765 C771 1.363 1_554 S
C766 C767 1.363 . S
C766 C771 1.379 1_545 S
C766 N773 1.356 . S
C767 C766 1.363 . S
C767 C770 1.363 1_556 S
N768 C770 1.356 . S
N768 H780 0.984 . S
N768 H781 0.985 . S
N769 C771 1.356 . S
N769 H774 0.984 . S
N769 H775 0.985 . S
C770 C764 1.379 1_545 S
C770 C767 1.363 1_554 S
C770 N768 1.356 . S
C771 C765 1.363 1_556 S
C771 C766 1.379 1_565 S
C771 N769 1.356 . S
N772 C764 1.356 . S
N772 H778 0.984 1_565 S
N772 H779 0.984 . S
N773 C766 1.356 . S
N773 H776 0.984 . S
N773 H777 0.985 1_545 S
H774 N769 0.984 . S
H775 N769 0.985 . S
H776 N773 0.984 . S
H777 N773 0.985 1_565 S
H778 N772 0.984 1_545 S
H779 N772 0.984 . S
H780 N768 0.984 . S
H781 N768 0.985 . S
C782 C783 1.363 . S
C782 C788 1.379 1_545 S
C782 N790 1.356 . S
C783 C782 1.363 . S
C783 C789 1.363 . S
C784 C785 1.363 . S
C784 C789 1.379 1_565 S
C784 N791 1.356 . S
C785 C784 1.363 . S
C785 C788 1.363 . S
N786 C788 1.356 . S
N786 H798 0.984 . S
N786 H799 0.985 . S
N787 C789 1.356 . S
N787 H792 0.984 . S
N787 H793 0.985 . S
C788 C782 1.379 1_565 S
C788 C785 1.363 . S
C788 N786 1.356 . S
C789 C783 1.363 . S
C789 C784 1.379 1_545 S
C789 N787 1.356 . S
N790 C782 1.356 . S
N790 H796 0.984 . S
N790 H797 0.984 . S
N791 C784 1.356 . S
N791 H794 0.984 . S
N791 H795 0.985 . S
H792 N787 0.984 . S
H793 N787 0.985 . S
H794 N791 0.984 . S
H795 N791 0.985 . S
H796 N790 0.984 . S
H797 N790 0.984 . S
H798 N786 0.984 . S
H799 N786 0.985 . S
C225 C4 1.477 . S
C227 C88 1.479 . S
C243 C18 1.477 . S
C245 C102 1.479 . S
C261 C60 1.479 . S
C263 C32 1.477 . S
C279 C74 1.479 . S
C281 C46 1.477 . S
C297 C200 1.479 . S
C299 C116 1.477 . S
C315 C214 1.479 . S
C317 C130 1.477 . S
C333 C144 1.477 . S
C335 C172 1.479 . S
C351 C158 1.477 . S
C353 C186 1.479 . S
C369 C5 1.330 . S
C371 C82 1.470 . S
C387 C19 1.330 . S
C389 C68 1.470 . S
C405 C33 1.330 . S
C407 C110 1.470 . S
C423 C96 1.470 . S
C425 C47 1.330 . S
C441 C194 1.470 . S
C443 C117 1.330 . S
C459 C180 1.470 . S
C461 C131 1.330 . S
C477 C145 1.330 . S
C479 C222 1.470 . S
C495 C208 1.470 . S
C497 C159 1.330 . S
C513 C179 1.375 . S
C515 C11 1.369 . S
C531 C25 1.369 . S
C533 C193 1.375 . S
C549 C207 1.375 . S
C551 C39 1.369 . S
C567 C221 1.375 . S
C569 C53 1.369 . S
C585 C123 1.369 . S
C587 C67 1.375 . S
C603 C137 1.369 . S
C605 C81 1.375 . S
C621 C95 1.375 . S
C623 C151 1.369 . S
C639 C109 1.375 . S
C641 C165 1.369 . S
C657 C40 1.564 . S
C659 C12 1.564 . S
C675 C26 1.564 . S
C677 C54 1.564 . S
C693 C89 1.228 . S
C695 C61 1.228 . S
C711 C75 1.228 . S
C713 C103 1.228 . S
C729 C152 1.564 . S
C731 C124 1.564 . S
C747 C166 1.564 . S
C749 C138 1.564 . S
C765 C201 1.228 . S
C767 C173 1.228 . S
C783 C215 1.228 . S
C785 C187 1.228 . S
