# Generated by pormake.
# Topology vcu, (8)-cn, num edge types: 1
# Building blocks:
#     Node 0, Type 0, BuildingBlock: TAGTUT_clean_sbu_3, # of connection points: 8
#     Node 1, Type 0, BuildingBlock: TAGTUT_clean_sbu_3, # of connection points: 8
#     Node 2, Type 0, BuildingBlock: TAGTUT_clean_sbu_3, # of connection points: 8
#     Node 3, Type 0, BuildingBlock: TAGTUT_clean_sbu_3, # of connection points: 8
#     Node 4, Type 0, BuildingBlock: TAGTUT_clean_sbu_3, # of connection points: 8
#     Node 5, Type 0, BuildingBlock: TAGTUT_clean_sbu_3, # of connection points: 8
#     Node 6, Type 0, BuildingBlock: TAGTUT_clean_sbu_3, # of connection points: 8
#     Node 7, Type 0, BuildingBlock: TAGTUT_clean_sbu_3, # of connection points: 8
#     Edge 8, Type (0, 0), BuildingBlock: XIVTED_clean_linker_0, # of connection points: 2
#     Edge 9, Type (0, 0), BuildingBlock: XIVTED_clean_linker_0, # of connection points: 2
#     Edge 10, Type (0, 0), BuildingBlock: XIVTED_clean_linker_0, # of connection points: 2
#     Edge 11, Type (0, 0), BuildingBlock: XIVTED_clean_linker_0, # of connection points: 2
#     Edge 12, Type (0, 0), BuildingBlock: XIVTED_clean_linker_0, # of connection points: 2
#     Edge 13, Type (0, 0), BuildingBlock: XIVTED_clean_linker_0, # of connection points: 2
#     Edge 14, Type (0, 0), BuildingBlock: XIVTED_clean_linker_0, # of connection points: 2
#     Edge 15, Type (0, 0), BuildingBlock: XIVTED_clean_linker_0, # of connection points: 2
#     Edge 16, Type (0, 0), BuildingBlock: XIVTED_clean_linker_0, # of connection points: 2
#     Edge 17, Type (0, 0), BuildingBlock: XIVTED_clean_linker_0, # of connection points: 2
#     Edge 18, Type (0, 0), BuildingBlock: XIVTED_clean_linker_0, # of connection points: 2
#     Edge 19, Type (0, 0), BuildingBlock: XIVTED_clean_linker_0, # of connection points: 2
#     Edge 20, Type (0, 0), BuildingBlock: XIVTED_clean_linker_0, # of connection points: 2
#     Edge 21, Type (0, 0), BuildingBlock: XIVTED_clean_linker_0, # of connection points: 2
#     Edge 22, Type (0, 0), BuildingBlock: XIVTED_clean_linker_0, # of connection points: 2
#     Edge 23, Type (0, 0), BuildingBlock: XIVTED_clean_linker_0, # of connection points: 2
#     Edge 24, Type (0, 0), BuildingBlock: XIVTED_clean_linker_0, # of connection points: 2
#     Edge 25, Type (0, 0), BuildingBlock: XIVTED_clean_linker_0, # of connection points: 2
#     Edge 26, Type (0, 0), BuildingBlock: XIVTED_clean_linker_0, # of connection points: 2
#     Edge 27, Type (0, 0), BuildingBlock: XIVTED_clean_linker_0, # of connection points: 2
#     Edge 28, Type (0, 0), BuildingBlock: XIVTED_clean_linker_0, # of connection points: 2
#     Edge 29, Type (0, 0), BuildingBlock: XIVTED_clean_linker_0, # of connection points: 2
#     Edge 30, Type (0, 0), BuildingBlock: XIVTED_clean_linker_0, # of connection points: 2
#     Edge 31, Type (0, 0), BuildingBlock: XIVTED_clean_linker_0, # of connection points: 2
#     Edge 32, Type (0, 0), BuildingBlock: XIVTED_clean_linker_0, # of connection points: 2
#     Edge 33, Type (0, 0), BuildingBlock: XIVTED_clean_linker_0, # of connection points: 2
#     Edge 34, Type (0, 0), BuildingBlock: XIVTED_clean_linker_0, # of connection points: 2
#     Edge 35, Type (0, 0), BuildingBlock: XIVTED_clean_linker_0, # of connection points: 2
#     Edge 36, Type (0, 0), BuildingBlock: XIVTED_clean_linker_0, # of connection points: 2
#     Edge 37, Type (0, 0), BuildingBlock: XIVTED_clean_linker_0, # of connection points: 2
#     Edge 38, Type (0, 0), BuildingBlock: XIVTED_clean_linker_0, # of connection points: 2
#     Edge 39, Type (0, 0), BuildingBlock: XIVTED_clean_linker_0, # of connection points: 2
# Relax obj value: 0.234
# Max RMSD: 0.292
# Mean RMSD: 0.290
data_MOF--net-vcu--node1-TAGTUT_clean_sbu_3--edge1-XIVTED_clean_linker_0
_symmetry_space_group_name_H-M    P1
_symmetry_Int_Tables_number       1
_symmetry_cell_setting            triclinic
loop_
_symmetry_equiv_pos_as_xyz
'x, y, z'
_cell_length_a     18.859777
_cell_length_b     32.924556
_cell_length_c     50.239355
_cell_angle_alpha  90.241795
_cell_angle_beta   90.320396
_cell_angle_gamma 90.045123
loop_
_atom_site_label
_atom_site_type_symbol
_atom_site_fract_x
_atom_site_fract_y
_atom_site_fract_z
_atom_type_partial_charge
C0 C 0.40613 0.38301 0.33556 0.0
C1 C 0.60123 0.34329 0.40168 0.0
C2 C 0.43625 0.28809 0.44699 0.0
Mg3 Mg 0.24925 0.40828 0.34344 0.0
Mg4 Mg 0.20156 0.45251 0.39901 0.0
O5 O 0.23635 0.40515 0.38326 0.0
Mg6 Mg 0.33531 0.39103 0.39374 0.0
O7 O 0.43496 0.37363 0.40063 0.0
Mg8 Mg 0.43726 0.31889 0.38249 0.0
Mg9 Mg 0.4727 0.37454 0.43474 0.0
C10 C 0.2429 0.39854 0.44859 0.0
O11 O 0.36424 0.45457 0.41114 0.0
O12 O 0.1272 0.41442 0.34169 0.0
O13 O 0.4377 0.43471 0.4445 0.0
O14 O 0.26399 0.47914 0.34272 0.0
O15 O 0.10068 0.44869 0.37928 0.0
O16 O 0.26128 0.50275 0.38435 0.0
O17 O 0.31528 0.32698 0.37987 0.0
O18 O 0.24462 0.3363 0.34463 0.0
C19 C 0.27815 0.31266 0.36074 0.0
C20 C 0.0823 0.43115 0.35745 0.0
O21 O 0.29016 0.37919 0.43515 0.0
O22 O 0.5594 0.32337 0.3861 0.0
O23 O 0.21098 0.43018 0.43956 0.0
O24 O 0.43626 0.28306 0.42179 0.0
O25 O 0.57875 0.36418 0.42151 0.0
O26 O 0.43843 0.32354 0.45716 0.0
O27 O 0.36745 0.40335 0.35136 0.0
O28 O 0.43999 0.35164 0.3432 0.0
C29 C 0.27396 0.50778 0.3597 0.0
C30 C 0.40034 0.46162 0.4325 0.0
C31 C 0.15027 0.0521 0.9289 0.0
C32 C 0.32467 0.98169 0.86906 0.0
C33 C 0.4376 0.09907 0.86746 0.0
Mg34 Mg 0.09082 0.1412 0.93002 0.0
Mg35 Mg 0.08333 0.19599 0.87652 0.0
O36 O 0.14314 0.16921 0.90063 0.0
Mg37 Mg 0.20023 0.12256 0.88702 0.0
O38 O 0.25529 0.07358 0.87667 0.0
Mg39 Mg 0.31187 0.06308 0.9097 0.0
Mg40 Mg 0.30038 0.06677 0.84389 0.0
C41 C 0.22906 0.19901 0.84634 0.0
O42 O 0.13095 0.11077 0.85004 0.0
O43 O 0.05379 0.20549 0.94177 0.0
O44 O 0.20834 0.08374 0.82047 0.0
O45 O 0.98681 0.13288 0.90597 0.0
O46 O 0.04931 0.24238 0.90407 0.0
O47 O 0.99305 0.16052 0.86586 0.0
O48 O 0.27665 0.12923 0.92249 0.0
O49 O 0.19629 0.14762 0.95292 0.0
C50 C 0.26059 0.14031 0.94618 0.0
C51 C 0.04196 0.23889 0.92933 0.0
O52 O 0.25797 0.17109 0.86081 0.0
O53 O 0.32975 0.99778 0.8924 0.0
O54 O 0.16252 0.20711 0.84695 0.0
O55 O 0.41159 0.08735 0.88956 0.0
O56 O 0.31542 0.00293 0.84806 0.0
O57 O 0.40177 0.09726 0.84585 0.0
O58 O 0.13422 0.08167 0.91375 0.0
O59 O 0.21358 0.03885 0.93004 0.0
C60 C 0.95998 0.13969 0.88302 0.0
C61 C 0.14653 0.09697 0.82681 0.0
C62 C 0.79051 0.18625 0.63289 0.0
C63 C 0.59385 0.0681 0.63565 0.0
C64 C 0.78647 0.9921 0.63172 0.0
Mg65 Mg 0.94863 0.18013 0.61104 0.0
Mg66 Mg 0.98259 0.12598 0.55814 0.0
O67 O 0.94553 0.12583 0.59223 0.0
Mg68 Mg 0.84595 0.10844 0.59921 0.0
O69 O 0.74734 0.0946 0.60984 0.0
Mg70 Mg 0.76174 0.0906 0.64963 0.0
Mg71 Mg 0.71084 0.0481 0.59349 0.0
C72 C 0.90868 0.03915 0.55856 0.0
O73 O 0.7979 0.12248 0.55819 0.0
O74 O 0.07065 0.17619 0.60707 0.0
O75 O 0.71773 0.07195 0.5533 0.0
O76 O 0.94387 0.21706 0.57241 0.0
O77 O 0.08917 0.13558 0.57161 0.0
O78 O 0.94708 0.17765 0.53656 0.0
O79 O 0.88026 0.09493 0.64184 0.0
O80 O 0.9541 0.14635 0.64976 0.0
C81 C 0.92064 0.11497 0.65749 0.0
C82 C 0.11214 0.1562 0.59159 0.0
O83 O 0.87316 0.04537 0.58007 0.0
O84 O 0.63947 0.08466 0.65142 0.0
O85 O 0.94653 0.06639 0.54727 0.0
O86 O 0.77639 0.01973 0.64936 0.0
O87 O 0.61112 0.05102 0.61364 0.0
O88 O 0.7723 0.99807 0.60723 0.0
O89 O 0.82727 0.17165 0.61398 0.0
O90 O 0.75712 0.16285 0.64906 0.0
C91 C 0.94296 0.21271 0.54718 0.0
C92 C 0.74914 0.10399 0.54475 0.0
C93 C 0.72461 0.37671 0.0467 0.0
C94 C 0.56532 0.26853 0.08416 0.0
C95 C 0.42267 0.35833 0.10733 0.0
Mg96 Mg 0.77103 0.45199 0.08513 0.0
Mg97 Mg 0.76654 0.44432 0.1502 0.0
O98 O 0.71753 0.43954 0.11767 0.0
Mg99 Mg 0.66498 0.38957 0.10675 0.0
O100 O 0.60751 0.3402 0.09389 0.0
Mg101 Mg 0.55407 0.36576 0.05999 0.0
Mg102 Mg 0.56326 0.31438 0.12617 0.0
C103 C 0.61348 0.41441 0.16694 0.0
O104 O 0.73389 0.34459 0.13124 0.0
O105 O 0.78676 0.51654 0.10408 0.0
O106 O 0.64255 0.32834 0.1559 0.0
O107 O 0.87417 0.42774 0.10301 0.0
O108 O 0.77935 0.50845 0.14838 0.0
O109 O 0.86847 0.41422 0.14633 0.0
O110 O 0.59352 0.42574 0.08018 0.0
O111 O 0.66863 0.47417 0.06785 0.0
C112 C 0.60708 0.4582 0.06717 0.0
C113 C 0.78365 0.53113 0.12787 0.0
O114 O 0.59752 0.40111 0.14359 0.0
O115 O 0.58359 0.30631 0.08234 0.0
O116 O 0.67586 0.42657 0.17374 0.0
O117 O 0.44973 0.36686 0.0846 0.0
O118 O 0.56249 0.25476 0.1078 0.0
O119 O 0.45789 0.34086 0.12593 0.0
O120 O 0.73737 0.38646 0.07093 0.0
O121 O 0.66237 0.36613 0.0388 0.0
C122 C 0.90234 0.41427 0.12437 0.0
C123 C 0.70557 0.32103 0.14845 0.0
C124 C 0.77464 0.63494 0.55211 0.0
C125 C 0.56872 0.74377 0.56213 0.0
C126 C 0.48157 0.65802 0.61726 0.0
Mg127 Mg 0.82674 0.56628 0.5929 0.0
Mg128 Mg 0.82192 0.57681 0.6588 0.0
O129 O 0.77448 0.58232 0.62598 0.0
Mg130 Mg 0.72199 0.63138 0.61307 0.0
O131 O 0.66623 0.67734 0.59689 0.0
Mg132 Mg 0.60887 0.64568 0.5701 0.0
Mg133 Mg 0.61136 0.71218 0.61834 0.0
C134 C 0.67668 0.61986 0.67559 0.0
O135 O 0.78708 0.68199 0.63496 0.0
O136 O 0.84668 0.50417 0.61328 0.0
O137 O 0.6991 0.7266 0.64492 0.0
O138 O 0.93078 0.5917 0.61055 0.0
O139 O 0.83131 0.51107 0.65743 0.0
O140 O 0.92599 0.60421 0.65414 0.0
O141 O 0.64917 0.58868 0.59025 0.0
O142 O 0.72314 0.5423 0.57436 0.0
C143 C 0.66138 0.55817 0.57539 0.0
C144 C 0.84253 0.48899 0.63678 0.0
O145 O 0.65914 0.6285 0.6515 0.0
O146 O 0.57616 0.70748 0.55315 0.0
O147 O 0.73689 0.6043 0.68218 0.0
O148 O 0.5078 0.645 0.59547 0.0
O149 O 0.57915 0.75313 0.58667 0.0
O150 O 0.51612 0.68255 0.63215 0.0
O151 O 0.79255 0.62944 0.57643 0.0
O152 O 0.71074 0.64371 0.54548 0.0
C153 C 0.95964 0.60442 0.63213 0.0
C154 C 0.76383 0.71441 0.64663 0.0
C155 C 0.67716 0.86932 0.04103 0.0
C156 C 0.8911 0.76845 0.0565 0.0
C157 C 0.97698 0.86426 0.10497 0.0
Mg158 Mg 0.62887 0.94777 0.07917 0.0
Mg159 Mg 0.63843 0.93942 0.14522 0.0
O160 O 0.68381 0.93431 0.11218 0.0
Mg161 Mg 0.73647 0.8853 0.10051 0.0
O162 O 0.79242 0.8385 0.08621 0.0
Mg163 Mg 0.84702 0.86704 0.05774 0.0
Mg164 Mg 0.85004 0.80947 0.10999 0.0
C165 C 0.78627 0.9003 0.16256 0.0
O166 O 0.67499 0.83687 0.12482 0.0
O167 O 0.61374 0.01199 0.09866 0.0
O168 O 0.76796 0.79881 0.13875 0.0
O169 O 0.52695 0.92385 0.09799 0.0
O170 O 0.63005 0.0044 0.14282 0.0
O171 O 0.53413 0.91224 0.14157 0.0
O172 O 0.80579 0.92646 0.07514 0.0
O173 O 0.72887 0.97162 0.05998 0.0
C174 C 0.79143 0.95723 0.0608 0.0
C175 C 0.62073 0.02686 0.12231 0.0
O176 O 0.80389 0.89237 0.13837 0.0
O177 O 0.88197 0.80275 0.04482 0.0
O178 O 0.72468 0.91376 0.1691 0.0
O179 O 0.95048 0.87309 0.08227 0.0
O180 O 0.88197 0.76371 0.08159 0.0
O181 O 0.94311 0.84247 0.12143 0.0
O182 O 0.66055 0.88161 0.06446 0.0
O183 O 0.74175 0.8616 0.03489 0.0
C184 C 0.49928 0.91175 0.1197 0.0
C185 C 0.70168 0.80788 0.1389 0.0
C186 C 0.25797 0.85743 0.42894 0.0
C187 C 0.05462 0.7499 0.41575 0.0
C188 C 0.96062 0.84043 0.36438 0.0
Mg189 Mg 0.30889 0.92929 0.39053 0.0
Mg190 Mg 0.3004 0.92444 0.32456 0.0
O191 O 0.25378 0.91696 0.35719 0.0
Mg192 Mg 0.20052 0.86726 0.36852 0.0
O193 O 0.1455 0.82038 0.3831 0.0
Mg194 Mg 0.09065 0.84914 0.41162 0.0
Mg195 Mg 0.09062 0.78676 0.36065 0.0
C196 C 0.15261 0.88439 0.30623 0.0
O197 O 0.2644 0.81769 0.34528 0.0
O198 O 0.33053 0.9928 0.3725 0.0
O199 O 0.17653 0.77403 0.33335 0.0
O200 O 0.41067 0.90429 0.37176 0.0
O201 O 0.3125 0.98984 0.32824 0.0
O202 O 0.40396 0.89562 0.32783 0.0
O203 O 0.12954 0.90843 0.39388 0.0
O204 O 0.20764 0.95263 0.41019 0.0
C205 C 0.14531 0.93737 0.40979 0.0
C206 C 0.32583 0.00997 0.34961 0.0
O207 O 0.13519 0.87375 0.32997 0.0
O208 O 0.06101 0.78551 0.42596 0.0
O209 O 0.21328 0.89997 0.30045 0.0
O210 O 0.98765 0.85175 0.3866 0.0
O211 O 0.0627 0.74273 0.39084 0.0
O212 O 0.99466 0.81733 0.34854 0.0
O213 O 0.2735 0.86528 0.40476 0.0
O214 O 0.19446 0.84857 0.43579 0.0
C215 C 0.43834 0.89312 0.34976 0.0
C216 C 0.24167 0.78566 0.33289 0.0
C217 C 0.31436 0.54569 0.91201 0.0
C218 C 0.14722 0.47838 0.8489 0.0
C219 C 0.01843 0.59297 0.85611 0.0
Mg220 Mg 0.36749 0.63551 0.92474 0.0
Mg221 Mg 0.35888 0.69932 0.86327 0.0
O222 O 0.3145 0.667 0.89285 0.0
Mg223 Mg 0.25623 0.61978 0.87663 0.0
O224 O 0.2037 0.57154 0.86257 0.0
Mg225 Mg 0.15069 0.55413 0.89439 0.0
Mg226 Mg 0.15763 0.56745 0.82931 0.0
C227 C 0.21603 0.69437 0.83954 0.0
O228 O 0.32241 0.61477 0.83881 0.0
O229 O 0.34209 0.69866 0.90747 0.0
O230 O 0.24394 0.59498 0.80697 0.0
O231 O 0.47149 0.63817 0.90018 0.0
O232 O 0.35758 0.75536 0.88673 0.0
O233 O 0.46506 0.67286 0.86165 0.0
O234 O 0.18308 0.6177 0.91249 0.0
O235 O 0.2589 0.63285 0.94559 0.0
C236 C 0.19622 0.62421 0.93717 0.0
C237 C 0.35689 0.73687 0.90895 0.0
O238 O 0.18794 0.66853 0.85536 0.0
O239 O 0.13702 0.49192 0.87265 0.0
O240 O 0.28017 0.68952 0.8325 0.0
O241 O 0.04716 0.57949 0.87739 0.0
O242 O 0.15509 0.50208 0.82899 0.0
O243 O 0.05212 0.59351 0.8341 0.0
O244 O 0.32766 0.57952 0.90058 0.0
O245 O 0.25277 0.52996 0.91073 0.0
C246 C 0.49937 0.65118 0.87854 0.0
C247 C 0.30554 0.60774 0.81438 0.0
H248 H 0.01866 0.36838 0.33018 0.0
H249 H 0.7053 0.38076 0.43036 0.0
H250 H 0.97275 0.47478 0.37756 0.0
H251 H 0.66722 0.31976 0.35525 0.0
H252 H 0.81818 0.40476 0.41363 0.0
H253 H 0.89807 0.34343 0.33861 0.0
C254 C 0.98255 0.38718 0.34152 0.0
C255 C 0.00607 0.42326 0.35374 0.0
C256 C 0.78515 0.38598 0.40085 0.0
C257 C 0.87054 0.39436 0.36402 0.0
C258 C 0.72105 0.37182 0.41048 0.0
C259 C 0.67601 0.34879 0.39402 0.0
C260 C 0.80512 0.37668 0.37472 0.0
C261 C 0.70011 0.33771 0.36854 0.0
C262 C 0.91422 0.37268 0.34652 0.0
C263 C 0.95725 0.44636 0.36827 0.0
N264 N 0.76328 0.35201 0.35952 0.0
N265 N 0.89231 0.43103 0.37355 0.0
H266 H 0.52573 0.11099 0.82434 0.0
H267 H 0.86933 0.10145 0.9168 0.0
H268 H 0.52324 0.11189 0.91035 0.0
H269 H 0.88021 0.15178 0.83762 0.0
H270 H 0.74209 0.09304 0.91124 0.0
H271 H 0.65564 0.11832 0.82594 0.0
C272 C 0.55216 0.1133 0.84348 0.0
C273 C 0.51353 0.11036 0.86724 0.0
C274 C 0.77233 0.10579 0.89502 0.0
C275 C 0.66112 0.11759 0.86911 0.0
C276 C 0.8452 0.1103 0.89809 0.0
C277 C 0.88549 0.12795 0.87781 0.0
C278 C 0.73922 0.11872 0.87145 0.0
C279 C 0.85102 0.13843 0.85389 0.0
C280 C 0.62613 0.11719 0.84436 0.0
C281 C 0.55058 0.11345 0.89149 0.0
N282 N 0.77954 0.1339 0.85141 0.0
N283 N 0.62214 0.11642 0.89176 0.0
H284 H 0.18174 0.18584 0.63612 0.0
H285 H 0.48444 0.02122 0.61842 0.0
H286 H 0.21186 0.11071 0.5663 0.0
H287 H 0.53059 0.13262 0.6607 0.0
H288 H 0.36392 0.04507 0.6106 0.0
H289 H 0.29616 0.16155 0.65357 0.0
C290 C 0.21269 0.16489 0.62425 0.0
C291 C 0.18666 0.14998 0.59979 0.0
C292 C 0.4001 0.06397 0.62202 0.0
C293 C 0.31493 0.12125 0.62011 0.0
C294 C 0.46851 0.0502 0.62676 0.0
C295 C 0.51777 0.07539 0.63971 0.0
C296 C 0.38091 0.10314 0.63029 0.0
C297 C 0.49416 0.11245 0.65043 0.0
C298 C 0.27738 0.15083 0.63438 0.0
C299 C 0.22906 0.12283 0.58533 0.0
N300 N 0.42734 0.12575 0.645 0.0
N301 N 0.29046 0.10893 0.5959 0.0
H302 H 0.97963 0.40015 0.07978 0.0
H303 H 0.34587 0.35234 0.15371 0.0
H304 H -0.00365 0.39804 0.16555 0.0
H305 H 0.32514 0.38377 0.07063 0.0
H306 H 0.21792 0.3629 0.15904 0.0
H307 H 0.10515 0.38585 0.07667 0.0
C308 C 0.00958 0.39644 0.09806 0.0
C309 C 0.97718 0.40074 0.12302 0.0
C310 C 0.24167 0.36755 0.13972 0.0
C311 C 0.12249 0.38456 0.11948 0.0
C312 C 0.31464 0.36157 0.13662 0.0
C313 C 0.34648 0.36704 0.11163 0.0
C314 C 0.20029 0.37869 0.11761 0.0
C315 C 0.3033 0.37916 0.09027 0.0
C316 C 0.08166 0.38841 0.09623 0.0
C317 C 0.01913 0.39508 0.14591 0.0
N318 N 0.23263 0.38434 0.09374 0.0
N319 N 0.08993 0.3875 0.14361 0.0
H320 H 0.39977 0.68072 0.66057 0.0
H321 H 0.04539 0.60654 0.58871 0.0
H322 H 0.39212 0.61107 0.58754 0.0
H323 H 0.0483 0.62866 0.67354 0.0
H324 H 0.17215 0.61832 0.58745 0.0
H325 H 0.27151 0.66911 0.66597 0.0
C326 C 0.37155 0.66272 0.64585 0.0
C327 C 0.4069 0.64728 0.62339 0.0
C328 C 0.14527 0.62063 0.6064 0.0
C329 C 0.2607 0.63467 0.62923 0.0
C330 C 0.07248 0.61413 0.60714 0.0
C331 C 0.03573 0.61619 0.63134 0.0
C332 C 0.18245 0.62968 0.62995 0.0
C333 C 0.0744 0.62657 0.65445 0.0
C334 C 0.29845 0.65622 0.64894 0.0
C335 C 0.36753 0.624 0.60505 0.0
N336 N 0.14588 0.6329 0.65321 0.0
N337 N 0.2968 0.61887 0.60824 0.0
H338 H 0.41518 0.90237 0.07598 0.0
H339 H 0.05637 0.84978 0.15031 0.0
H340 H 0.40932 0.89602 0.16183 0.0
H341 H 0.0684 0.90401 0.07229 0.0
H342 H 0.18479 0.86004 0.15566 0.0
H343 H 0.28785 0.89301 0.07451 0.0
C344 C 0.38724 0.89876 0.09461 0.0
C345 C 0.42322 0.9005 0.11913 0.0
C346 C 0.15884 0.86995 0.13754 0.0
C347 C 0.27616 0.8899 0.11747 0.0
C348 C 0.08565 0.86424 0.13446 0.0
C349 C 0.05154 0.87561 0.11066 0.0
C350 C 0.1979 0.88658 0.11652 0.0
C351 C 0.09216 0.89438 0.09088 0.0
C352 C 0.31421 0.89365 0.09372 0.0
C353 C 0.38373 0.89503 0.1425 0.0
N354 N 0.1631 0.89879 0.09415 0.0
N355 N 0.31199 0.89008 0.14113 0.0
H356 H 0.88004 0.82391 0.31931 0.0
H357 H 0.52225 0.88177 0.39334 0.0
H358 H 0.86906 0.8808 0.39682 0.0
H359 H 0.52797 0.8764 0.30744 0.0
H360 H 0.64901 0.87006 0.39473 0.0
H361 H 0.75153 0.83484 0.31388 0.0
C362 C 0.851 0.83898 0.33504 0.0
C363 C 0.88554 0.85108 0.35868 0.0
C364 C 0.62274 0.87138 0.37552 0.0
C365 C 0.73905 0.86282 0.35276 0.0
C366 C 0.54996 0.87786 0.37467 0.0
C367 C 0.51405 0.8806 0.35018 0.0
C368 C 0.66073 0.86721 0.35176 0.0
C369 C 0.55343 0.87471 0.32676 0.0
C370 C 0.77777 0.84511 0.33192 0.0
C371 C 0.84513 0.87063 0.37832 0.0
N372 N 0.62493 0.86839 0.3281 0.0
N373 N 0.77426 0.87542 0.37502 0.0
H374 H 0.92637 0.61444 0.81524 0.0
H375 H 0.59374 0.61673 0.91301 0.0
H376 H 0.93819 0.60095 0.90065 0.0
H377 H 0.57886 0.66494 0.83332 0.0
H378 H 0.71932 0.60493 0.90642 0.0
H379 H 0.79885 0.62936 0.81935 0.0
C380 C 0.90254 0.61493 0.8348 0.0
C381 C 0.94318 0.60602 0.85758 0.0
C382 C 0.68883 0.61816 0.89032 0.0
C383 C 0.79787 0.62249 0.86233 0.0
C384 C 0.61671 0.62473 0.89402 0.0
C385 C 0.57536 0.6421 0.87375 0.0
C386 C 0.72055 0.62867 0.86609 0.0
C387 C 0.60872 0.65172 0.84958 0.0
C388 C 0.82984 0.62334 0.83711 0.0
C389 C 0.90934 0.60713 0.88243 0.0
N390 N 0.67948 0.64484 0.84638 0.0
N391 N 0.83897 0.61486 0.88406 0.0
H392 H 0.59705 0.47228 0.20474 0.0
H393 H 0.39986 0.32874 0.29515 0.0
H394 H 0.50266 0.3623 0.17386 0.0
H395 H 0.40556 0.45729 0.3119 0.0
H396 H 0.41886 0.34286 0.2482 0.0
H397 H 0.51263 0.47176 0.24127 0.0
C398 C 0.55786 0.44824 0.20559 0.0
C399 C 0.55763 0.41661 0.18689 0.0
C400 C 0.41426 0.36814 0.26195 0.0
C401 C 0.46142 0.41574 0.22838 0.0
C402 C 0.40427 0.36003 0.28873 0.0
C403 C 0.40402 0.39194 0.3072 0.0
C404 C 0.42646 0.40828 0.25394 0.0
C405 C 0.40738 0.43196 0.2981 0.0
C406 C 0.50907 0.44826 0.22617 0.0
C407 C 0.50482 0.38685 0.18821 0.0
N408 N 0.42072 0.43906 0.27202 0.0
N409 N 0.45969 0.38651 0.20911 0.0
H410 H 0.12739 0.03551 0.7917 0.0
H411 H 0.90294 0.16915 0.69724 0.0
H412 H 0.03838 0.1501 0.81644 0.0
H413 H 0.93944 0.04196 0.68209 0.0
H414 H 0.93181 0.15882 0.74405 0.0
H415 H 0.0428 0.0327 0.75493 0.0
C416 C 0.08935 0.05993 0.78945 0.0
C417 C 0.09043 0.09353 0.80665 0.0
C418 C 0.932 0.13287 0.73074 0.0
C419 C 0.99385 0.09065 0.76467 0.0
C420 C 0.91581 0.13882 0.70404 0.0
C421 C 0.92096 0.10648 0.68598 0.0
C422 C 0.95555 0.09458 0.73911 0.0
C423 C 0.93617 0.06766 0.69555 0.0
C424 C 0.04058 0.0581 0.76866 0.0
C425 C 0.03923 0.12385 0.80343 0.0
N426 N 0.95496 0.06291 0.72149 0.0
N427 N 0.99378 0.12215 0.78239 0.0
H428 H 0.69833 0.62549 0.72939 0.0
H429 H 0.2849 0.61549 0.76076 0.0
H430 H 0.5338 0.6267 0.66929 0.0
H431 H 0.44806 0.61797 0.82144 0.0
H432 H 0.37546 0.62578 0.72705 0.0
H433 H 0.60732 0.62913 0.76372 0.0
C434 C 0.6431 0.62695 0.72342 0.0
C435 C 0.62345 0.62584 0.69648 0.0
C436 C 0.39141 0.62438 0.74776 0.0
C437 C 0.51941 0.62975 0.73547 0.0
C438 C 0.33976 0.61832 0.767 0.0
C439 C 0.3591 0.61563 0.79391 0.0
C440 C 0.46287 0.6274 0.75551 0.0
C441 C 0.43082 0.62001 0.80092 0.0
C442 C 0.59124 0.62912 0.74299 0.0
C443 C 0.5513 0.62807 0.6898 0.0
N444 N 0.48027 0.62536 0.78179 0.0
N445 N 0.50181 0.62958 0.70919 0.0
H446 H 0.76272 0.88728 0.21551 0.0
H447 H 0.17537 0.88607 0.25257 0.0
H448 H 0.93036 0.89954 0.15799 0.0
H449 H 0.00887 0.8748 0.31073 0.0
H450 H 0.08615 0.88569 0.2173 0.0
H451 H 0.85192 0.87818 0.25047 0.0
C452 C 0.81832 0.88789 0.21022 0.0
C453 C 0.83928 0.89386 0.18378 0.0
C454 C 0.0691 0.88298 0.23776 0.0
C455 C 0.94144 0.88346 0.22359 0.0
C456 C 0.12004 0.88322 0.25793 0.0
C457 C 0.09953 0.88055 0.28467 0.0
C458 C -0.00299 0.88036 0.24436 0.0
C459 C 0.02712 0.87658 0.2904 0.0
C460 C 0.86917 0.88252 0.23015 0.0
C461 C 0.91191 0.89418 0.178 0.0
N462 N 0.97838 0.87692 0.27041 0.0
N463 N 0.9604 0.88922 0.19776 0.0
H464 H 0.65596 0.07443 0.50703 0.0
H465 H 0.47595 0.2897 0.49942 0.0
H466 H 0.75554 0.18516 0.53467 0.0
H467 H 0.45187 0.20784 0.43249 0.0
H468 H 0.55626 0.24126 0.52018 0.0
H469 H 0.56666 0.11531 0.48353 0.0
C470 C 0.66036 0.10723 0.50754 0.0
C471 C 0.71293 0.12636 0.52316 0.0
C472 C 0.53244 0.23374 0.50111 0.0
C473 C 0.60955 0.17269 0.49751 0.0
C474 C 0.48559 0.26105 0.4894 0.0
C475 C 0.45869 0.25347 0.46374 0.0
C476 C 0.55133 0.19826 0.48738 0.0
C477 C 0.47258 0.21535 0.45205 0.0
C478 C 0.60894 0.13039 0.49442 0.0
C479 C 0.71601 0.16896 0.52306 0.0
N480 N 0.51902 0.18928 0.46379 0.0
N481 N 0.66396 0.19066 0.51102 0.0
H482 H 0.86568 0.37101 0.05861 0.0
H483 H 0.96018 0.30155 0.91114 0.0
H484 H 0.71908 0.3747 0.99235 0.0
H485 H 0.05991 0.25481 0.98223 0.0
H486 H 0.89604 0.35094 0.93851 0.0
H487 H 0.96026 0.35174 0.028 0.0
C488 C 0.85376 0.36877 0.03755 0.0
C489 C 0.78417 0.37346 0.02802 0.0
C490 C 0.9332 0.33041 0.94796 0.0
C491 C 0.89176 0.35155 0.99312 0.0
C492 C 0.96983 0.30232 0.93241 0.0
C493 C 0.01395 0.2735 0.94459 0.0
C494 C 0.94163 0.32981 0.97572 0.0
C495 C 0.025 0.27594 0.97217 0.0
C496 C 0.90768 0.35768 0.02015 0.0
C497 C 0.77173 0.37039 0.00055 0.0
N498 N 0.98835 0.30331 0.98688 0.0
N499 N 0.82491 0.35904 0.98405 0.0
H500 H 0.94756 0.29324 0.56216 0.0
H501 H 0.26442 0.32039 0.46473 0.0
H502 H 0.9864 0.21315 0.49545 0.0
H503 H 0.14178 0.42771 0.48306 0.0
H504 H 0.17817 0.2796 0.48862 0.0
H505 H 0.0253 0.34406 0.5417 0.0
C506 C 0.97045 0.28677 0.54287 0.0
C507 C 0.96206 0.2483 0.53089 0.0
C508 C 0.17096 0.31222 0.4877 0.0
C509 C 0.05235 0.30533 0.50831 0.0
C510 C 0.22076 0.33569 0.47446 0.0
C511 C 0.20931 0.37748 0.47118 0.0
C512 C 0.11033 0.33072 0.49824 0.0
C513 C 0.15186 0.39544 0.48463 0.0
C514 C 0.01533 0.31559 0.53146 0.0
C515 C 0.99234 0.2419 0.50576 0.0
N516 N 0.10361 0.37181 0.49733 0.0
N517 N 0.03792 0.26962 0.4957 0.0
H518 H 0.55472 0.28971 0.03135 0.0
H519 H 0.25851 0.12906 -0.00037 0.0
H520 H 0.50031 0.19488 0.08673 0.0
H521 H 0.38905 0.17583 0.93655 0.0
H522 H 0.34298 0.15608 0.03229 0.0
H523 H 0.49079 0.25227 -0.00386 0.0
C524 C 0.52973 0.26101 0.03605 0.0
C525 C 0.53184 0.24569 0.06206 0.0
C526 C 0.35378 0.1599 0.0113 0.0
C527 C 0.45887 0.20315 0.02219 0.0
C528 C 0.30567 0.14449 0.99271 0.0
C529 C 0.31709 0.15025 0.96547 0.0
C530 C 0.41262 0.18225 0.0026 0.0
C531 C 0.37881 0.17057 0.95744 0.0
C532 C 0.49372 0.23962 0.01597 0.0
C533 C 0.49923 0.20815 0.06705 0.0
N534 N 0.4238 0.18661 0.97599 0.0
N535 N 0.46327 0.18849 0.04741 0.0
H536 H 0.24401 0.86472 0.48277 0.0
H537 H 0.59547 0.74928 0.50919 0.0
H538 H 0.40049 0.84756 0.42137 0.0
H539 H 0.48057 0.8077 0.57268 0.0
H540 H 0.53222 0.79122 0.47697 0.0
H541 H 0.33463 0.85075 0.51637 0.0
C542 C 0.29774 0.85855 0.4764 0.0
C543 C 0.31452 0.85631 0.44927 0.0
C544 C 0.52186 0.7956 0.49797 0.0
C545 C 0.41814 0.83998 0.48754 0.0
C546 C 0.55777 0.77156 0.51634 0.0
C547 C 0.5422 0.77468 0.54352 0.0
C548 C 0.46865 0.82211 0.50682 0.0
C549 C 0.49366 0.80427 0.55184 0.0
C550 C 0.34955 0.85084 0.49559 0.0
C551 C 0.38515 0.84904 0.44209 0.0
N552 N 0.45719 0.82624 0.53346 0.0
N553 N 0.43413 0.8402 0.46112 0.0
H554 H 0.96682 0.70262 0.07364 0.0
H555 H 0.05576 0.63474 0.9252 0.0
H556 H 0.87482 0.75597 0.00312 0.0
H557 H 0.20069 0.62275 0.99155 0.0
H558 H 0.96362 0.65698 0.95599 0.0
H559 H 0.02649 0.65227 0.04556 0.0
C560 C 0.95797 0.7032 0.05232 0.0
C561 C 0.91724 0.734 0.04056 0.0
C562 C 0.01518 0.64858 0.96381 0.0
C563 C 0.98436 0.67652 0.0086 0.0
C564 C 0.06774 0.63574 0.9463 0.0
C565 C 0.1365 0.62795 0.95581 0.0
C566 C 0.03154 0.65325 0.99093 0.0
C567 C 0.1488 0.62944 0.98336 0.0
C568 C 0.99203 0.67454 0.03637 0.0
C569 C 0.90713 0.73325 0.01289 0.0
N570 N 0.09705 0.64252 -4e-05 0.0
N571 N 0.94113 0.70521 -0.00221 0.0
H572 H 0.09718 0.73953 0.46685 0.0
H573 H 0.75391 0.62219 0.49901 0.0
H574 H 0.9665 0.68562 0.40547 0.0
H575 H 0.91836 0.64344 0.55754 0.0
H576 H 0.83981 0.63363 0.46377 0.0
H577 H 0.04467 0.69397 0.49934 0.0
C578 C 0.05821 0.71745 0.46018 0.0
C579 C 0.03469 0.71679 0.43369 0.0
C580 C 0.85763 0.63492 0.48429 0.0
C581 C 0.9733 0.66523 0.47075 0.0
C582 C 0.80847 0.62866 0.50442 0.0
C583 C 0.82873 0.63322 0.53116 0.0
C584 C 0.92701 0.6467 0.49101 0.0
C585 C 0.90031 0.64049 0.53712 0.0
C586 C 0.02846 0.69131 0.4787 0.0
C587 C 0.98525 0.68727 0.42586 0.0
N588 N 0.94664 0.64804 0.51715 0.0
N589 N 0.95464 0.66328 0.44451 0.0
H590 H 0.43019 0.69925 0.94898 0.0
H591 H 0.54183 0.8977 0.0304 0.0
H592 H 0.36172 0.81724 0.92212 0.0
H593 H 0.68606 0.79964 0.01273 0.0
H594 H 0.45263 0.86512 0.00088 0.0
H595 H 0.50052 0.73233 0.98413 0.0
C596 C 0.4288 0.73203 0.95083 0.0
C597 C 0.39083 0.75563 0.93252 0.0
C598 C 0.50395 0.85097 0.00367 0.0
C599 C 0.47013 0.79342 0.97269 0.0
C600 C 0.55459 0.86947 0.02036 0.0
C601 C 0.62171 0.85172 0.02354 0.0
C602 C 0.52015 0.81391 0.99109 0.0
C603 C 0.63551 0.81484 0.01041 0.0
C604 C 0.46909 0.75084 0.97075 0.0
C605 C 0.39104 0.79807 0.93574 0.0
N606 N 0.58512 0.79707 -0.00505 0.0
N607 N 0.43035 0.81573 0.95543 0.0
H608 H 0.37082 0.06193 0.38862 0.0
H609 H 0.25133 0.26686 0.31513 0.0
H610 H 0.28451 0.06082 0.30883 0.0
H611 H 0.31008 0.25667 0.398 0.0
H612 H 0.26796 0.19278 0.31027 0.0
H613 H 0.35883 0.13527 0.38976 0.0
C614 C 0.34987 0.07713 0.37119 0.0
C615 C 0.32813 0.05499 0.34869 0.0
C616 C 0.27699 0.207 0.32947 0.0
C617 C 0.31307 0.13961 0.34998 0.0
C618 C 0.26702 0.24911 0.33227 0.0
C619 C 0.27994 0.26804 0.35693 0.0
C620 C 0.30001 0.18407 0.35149 0.0
C621 C 0.30056 0.24365 0.37848 0.0
C622 C 0.34264 0.11917 0.37189 0.0
C623 C 0.3019 0.07665 0.32663 0.0
N624 N 0.31016 0.20323 0.37521 0.0
N625 N 0.29451 0.1178 0.32789 0.0
H626 H 0.22104 0.23348 0.79708 0.0
H627 H 0.18518 0.4243 0.88753 0.0
H628 H 0.32575 0.24427 0.87307 0.0
H629 H 0.15888 0.43432 0.80236 0.0
H630 H 0.23791 0.35752 0.88131 0.0
H631 H 0.21111 0.30737 0.79507 0.0
C632 C 0.24619 0.25152 0.81256 0.0
C633 C 0.2715 0.23271 0.83582 0.0
C634 C 0.22082 0.37433 0.86394 0.0
C635 C 0.25754 0.31683 0.83426 0.0
C636 C 0.18924 0.41223 0.86751 0.0
C637 C 0.16667 0.43499 0.84546 0.0
C638 C 0.22912 0.35848 0.83815 0.0
C639 C 0.17491 0.41778 0.81997 0.0
C640 C 0.23874 0.29375 0.81174 0.0
C641 C 0.30396 0.25751 0.8551 0.0
N642 N 0.20496 0.38042 0.81702 0.0
N643 N 0.29291 0.29831 0.85459 0.0
H644 H 0.80809 0.44225 0.68045 0.0
H645 H 0.80475 0.23945 0.5929 0.0
H646 H 0.87515 0.433 0.59859 0.0
H647 H 0.77677 0.23512 0.67804 0.0
H648 H 0.8214 0.31205 0.59557 0.0
H649 H 0.79222 0.36813 0.68131 0.0
C650 C 0.82046 0.42471 0.6628 0.0
C651 C 0.84252 0.44408 0.63932 0.0
C652 C 0.81157 0.29557 0.6138 0.0
C653 C 0.82336 0.3596 0.64014 0.0
C654 C 0.80176 0.25392 0.61228 0.0
C655 C 0.79006 0.23104 0.63535 0.0
C656 C 0.80962 0.31518 0.6386 0.0
C657 C 0.78553 0.25169 0.65979 0.0
C658 C 0.81097 0.38246 0.6633 0.0
C659 C 0.85748 0.41972 0.61708 0.0
N660 N 0.79576 0.2928 0.66084 0.0
N661 N 0.84715 0.37901 0.61803 0.0
H662 H 0.64103 0.08486 0.08374 0.0
H663 H 0.69567 0.26583 0.188 0.0
H664 H 0.62617 0.07012 0.16891 0.0
H665 H 0.74459 0.27675 0.10461 0.0
H666 H 0.67702 0.19303 0.18171 0.0
H667 H 0.6775 0.1555 0.09077 0.0
C668 C 0.64433 0.09655 0.10389 0.0
C669 C 0.63041 0.07133 0.12576 0.0
C670 C 0.69344 0.21109 0.16486 0.0
C671 C 0.67408 0.1519 0.13394 0.0
C672 C 0.70526 0.25254 0.16857 0.0
C673 C 0.7221 0.27731 0.14688 0.0
C674 C 0.69738 0.19433 0.13915 0.0
C675 C 0.73258 0.2587 0.12198 0.0
C676 C 0.6662 0.13674 0.10789 0.0
C677 C 0.63638 0.08824 0.15141 0.0
N678 N 0.71868 0.21841 0.11868 0.0
N679 N 0.65789 0.12731 0.15476 0.0
H680 H 0.75463 0.7586 0.69237 0.0
H681 H 0.85691 0.93713 0.60092 0.0
H682 H 0.88082 0.74345 0.62189 0.0
H683 H 0.77944 0.95543 0.68071 0.0
H684 H 0.88821 0.86752 0.61234 0.0
H685 H 0.78986 0.82985 0.69455 0.0
C686 C 0.79294 0.7698 0.67817 0.0
C687 C 0.81368 0.74542 0.65659 0.0
C688 C 0.86553 0.88684 0.62756 0.0
C689 C 0.85122 0.82733 0.65807 0.0
C690 C 0.84703 0.92656 0.62096 0.0
C691 C 0.81385 0.95179 0.63971 0.0
C692 C 0.84934 0.87179 0.65294 0.0
C693 C 0.80395 0.93679 0.66553 0.0
C694 C 0.81221 0.81073 0.67914 0.0
C695 C 0.86307 0.76137 0.6387 0.0
N696 N 0.82012 0.89747 0.67122 0.0
N697 N 0.87809 0.80178 0.63922 0.0
H698 H 0.7952 0.5757 0.17375 0.0
H699 H 0.60286 0.76725 0.11014 0.0
H700 H 0.72785 0.58448 0.0917 0.0
H701 H 0.70452 0.76926 0.18699 0.0
H702 H 0.61445 0.69354 0.10902 0.0
H703 H 0.74118 0.64174 0.18263 0.0
C704 C 0.77022 0.59185 0.15746 0.0
C705 C 0.76689 0.57463 0.13184 0.0
C706 C 0.63222 0.70992 0.12657 0.0
C707 C 0.70248 0.64965 0.14217 0.0
C708 C 0.62351 0.75203 0.12763 0.0
C709 C 0.65668 0.7744 0.14801 0.0
C710 C 0.67179 0.69056 0.1466 0.0
C711 C 0.68081 0.75299 0.1704 0.0
C712 C 0.73841 0.62926 0.16267 0.0
C713 C 0.73293 0.59679 0.11163 0.0
N714 N 0.69118 0.71225 0.16862 0.0
N715 N 0.70184 0.63305 0.11727 0.0
H716 H 0.33827 0.56728 0.3893 0.0
H717 H 0.23423 0.7361 0.2893 0.0
H718 H 0.26665 0.54033 0.30944 0.0
H719 H 0.35787 0.75955 0.36004 0.0
H720 H 0.26971 0.6649 0.29099 0.0
H721 H 0.36528 0.63656 0.37562 0.0
C722 C 0.32876 0.57585 0.36879 0.0
C723 C 0.29862 0.54819 0.35063 0.0
C724 C 0.29135 0.68578 0.30564 0.0
C725 C 0.32928 0.62782 0.33479 0.0
C726 C 0.27199 0.72669 0.30439 0.0
C727 C 0.2919 0.75358 0.32489 0.0
C728 C 0.32982 0.67173 0.32778 0.0
C729 C 0.34067 0.73976 0.34399 0.0
C730 C 0.3448 0.6154 0.36091 0.0
C731 C 0.28894 0.5608 0.32419 0.0
N732 N 0.35585 0.69944 0.34558 0.0
N733 N 0.30279 0.59992 0.3172 0.0
H734 H 0.21448 0.75112 0.80092 0.0
H735 H 0.28926 0.92661 0.90788 0.0
H736 H 0.18143 0.73513 0.88504 0.0
H737 H 0.33034 0.93621 0.82365 0.0
H738 H 0.24286 0.85792 0.9004 0.0
H739 H 0.23903 0.82289 0.80877 0.0
C740 C 0.20912 0.76324 0.82091 0.0
C741 C 0.19594 0.73726 0.84232 0.0
C742 C 0.26239 0.87507 0.88362 0.0
C743 C 0.22796 0.81877 0.85178 0.0
C744 C 0.29007 0.91402 0.88793 0.0
C745 C 0.31368 0.93734 0.86635 0.0
C746 C 0.25819 0.8595 0.85756 0.0
C747 C 0.31247 0.91954 0.8409 0.0
C748 C 0.22475 0.80401 0.82551 0.0
C749 C 0.19077 0.75427 0.86793 0.0
N750 N 0.28471 0.88192 0.83722 0.0
N751 N 0.20845 0.79387 0.87206 0.0
H752 H 0.51676 0.56355 0.57615 0.0
H753 H 0.49286 0.52099 0.42032 0.0
H754 H 0.69292 0.53965 0.52398 0.0
H755 H 0.32373 0.49057 0.47378 0.0
H756 H 0.553 0.55716 0.45651 0.0
H757 H 0.43598 0.55959 0.5376 0.0
C758 C 0.53822 0.5571 0.55663 0.0
C759 C 0.61126 0.5508 0.55329 0.0
C760 C 0.50126 0.544 0.46007 0.0
C761 C 0.52021 0.54833 0.50925 0.0
C762 C 0.46605 0.52427 0.43924 0.0
C763 C 0.40427 0.50211 0.44437 0.0
C764 C 0.47358 0.54169 0.48591 0.0
C765 C 0.37191 0.50702 0.46924 0.0
C766 C 0.49237 0.55538 0.5347 0.0
C767 C 0.63675 0.54344 0.52756 0.0
N768 N 0.4082 0.52511 0.48951 0.0
N769 N 0.59128 0.54247 0.50654 0.0
H770 H 0.76953 0.00787 0.01861 0.0
H771 H 0.17408 0.00384 0.97222 0.0
H772 H 0.93437 0.94265 0.06025 0.0
H773 H 0.00694 0.0647 0.92904 0.0
H774 H 0.08738 0.98132 0.00482 0.0
H775 H 0.85668 0.03057 0.98631 0.0
C776 C 0.82415 0.99836 0.02103 0.0
C777 C 0.84462 0.97285 0.04202 0.0
C778 C 0.06966 0.99966 0.98823 0.0
C779 C 0.94462 0.99864 0.00499 0.0
C780 C 0.11908 0.01244 0.96954 0.0
C781 C 0.09777 0.03666 0.94801 0.0
C782 C -0.00161 0.01112 0.98535 0.0
C783 C 0.02586 0.04679 0.94557 0.0
C784 C 0.87384 0.01123 0.00249 0.0
C785 C 0.9161 0.9616 0.04413 0.0
N786 N 0.97873 0.03405 0.96406 0.0
N787 N 0.96358 0.97451 0.02579 0.0
H788 H 0.82624 0.01436 0.51741 0.0
H789 H 0.1887 0.95433 0.46024 0.0
H790 H 0.00102 0.97796 0.56721 0.0
H791 H -0.00013 0.93219 0.41348 0.0
H792 H 0.11623 0.96033 0.49991 0.0
H793 H 0.87844 0.97696 0.48019 0.0
C794 C 0.87327 0.99622 0.52097 0.0
C795 C 0.90993 0.99951 0.54528 0.0
C796 C 0.09039 0.95392 0.48105 0.0
C797 C 0.97178 0.95877 0.50261 0.0
C798 C 0.1317 0.95127 0.45825 0.0
C799 C 0.10006 0.94377 0.43338 0.0
C800 C 0.01644 0.94996 0.47906 0.0
C801 C 0.02612 0.9387 0.43224 0.0
C802 C 0.90385 0.97555 0.49955 0.0
C803 C 0.97131 0.97621 0.54872 0.0
N804 N 0.9865 0.94263 0.45473 0.0
N805 N 0.00183 0.95803 0.52734 0.0
H806 H 0.62208 0.52666 0.03766 0.0
H807 H 0.29505 0.47779 0.94203 0.0
H808 H 0.4808 0.42497 0.04923 0.0
H809 H 0.44462 0.57482 0.92847 0.0
H810 H 0.36336 0.45712 0.98072 0.0
H811 H 0.55438 0.54601 -0.00138 0.0
C812 C 0.57652 0.50837 0.0321 0.0
C813 C 0.55825 0.47335 0.04644 0.0
C814 C 0.38133 0.48291 0.96927 0.0
C815 C 0.48061 0.49549 0.00143 0.0
C816 C 0.34257 0.49474 0.94703 0.0
C817 C 0.36297 0.52904 0.93232 0.0
C818 C 0.44112 0.50543 0.97689 0.0
C819 C 0.42575 0.54905 0.93956 0.0
C820 C 0.53812 0.51943 0.00965 0.0
C821 C 0.49784 0.45156 0.03851 0.0
N822 N 0.46227 0.5372 0.96155 0.0
N823 N 0.46141 0.46281 0.01633 0.0
loop_
_geom_bond_atom_site_label_1
_geom_bond_atom_site_label_2
_geom_bond_distance
_geom_bond_site_symmetry_2
_ccdc_geom_bond_type
C0 O27 1.312 . S
C0 O28 1.208 . S
C1 O22 1.331 . S
C1 O25 1.244 . S
C2 O24 1.264 . S
C2 O26 1.273 . S
Mg3 O5 1.936 . S
Mg3 O12 2.081 . S
Mg3 O14 2.023 . S
Mg3 O18 2.031 . S
Mg3 O27 2.291 . S
Mg4 O5 1.963 . S
Mg4 O15 1.942 . S
Mg4 O16 1.955 . S
Mg4 O23 1.986 . S
O5 Mg3 1.936 . S
O5 Mg4 1.963 . S
O5 Mg6 1.915 . S
Mg6 O5 1.915 . S
Mg6 O7 1.915 . S
Mg6 O11 2.013 . S
Mg6 O17 2.114 . S
Mg6 O21 2.013 . S
Mg6 O27 2.114 . S
O7 Mg6 1.915 . S
O7 Mg8 1.936 . S
O7 Mg9 1.963 . S
Mg8 O7 1.936 . S
Mg8 O17 2.291 . S
Mg8 O22 2.081 . S
Mg8 O24 2.023 . S
Mg8 O28 2.031 . S
Mg9 O7 1.963 . S
Mg9 O13 1.986 . S
Mg9 O25 1.942 . S
Mg9 O26 1.955 . S
C10 O21 1.191 . S
C10 O23 1.307 . S
O11 Mg6 2.013 . S
O11 C30 1.191 . S
O12 Mg3 2.081 . S
O12 C20 1.331 . S
O13 Mg9 1.986 . S
O13 C30 1.307 . S
O14 Mg3 2.023 . S
O14 C29 1.264 . S
O15 Mg4 1.942 . S
O15 C20 1.244 . S
O16 Mg4 1.955 . S
O16 C29 1.273 . S
O17 Mg6 2.114 . S
O17 Mg8 2.291 . S
O17 C19 1.312 . S
O18 Mg3 2.031 . S
O18 C19 1.208 . S
C19 O17 1.312 . S
C19 O18 1.208 . S
C20 O12 1.331 . S
C20 O15 1.244 . S
O21 Mg6 2.013 . S
O21 C10 1.191 . S
O22 C1 1.331 . S
O22 Mg8 2.081 . S
O23 Mg4 1.986 . S
O23 C10 1.307 . S
O24 C2 1.264 . S
O24 Mg8 2.023 . S
O25 C1 1.244 . S
O25 Mg9 1.942 . S
O26 C2 1.273 . S
O26 Mg9 1.955 . S
O27 C0 1.312 . S
O27 Mg3 2.291 . S
O27 Mg6 2.114 . S
O28 C0 1.208 . S
O28 Mg8 2.031 . S
C29 O14 1.264 . S
C29 O16 1.273 . S
C30 O11 1.191 . S
C30 O13 1.307 . S
C31 O58 1.312 . S
C31 O59 1.208 . S
C32 O53 1.331 . S
C32 O56 1.244 . S
C33 O55 1.264 . S
C33 O57 1.273 . S
Mg34 O36 1.936 1_655 S
Mg34 O43 2.081 . S
Mg34 O45 2.023 . S
Mg34 O49 2.031 1_655 S
Mg34 O58 2.291 1_655 S
Mg35 O36 1.963 1_655 S
Mg35 O46 1.942 . S
Mg35 O47 1.955 . S
Mg35 O54 1.986 1_655 S
O36 Mg34 1.936 1_455 S
O36 Mg35 1.963 1_455 S
O36 Mg37 1.915 . S
Mg37 O36 1.915 . S
Mg37 O38 1.915 . S
Mg37 O42 2.013 . S
Mg37 O48 2.114 . S
Mg37 O52 2.013 . S
Mg37 O58 2.114 . S
O38 Mg37 1.915 . S
O38 Mg39 1.936 . S
O38 Mg40 1.963 . S
Mg39 O38 1.936 . S
Mg39 O48 2.291 . S
Mg39 O53 2.081 . S
Mg39 O55 2.023 . S
Mg39 O59 2.031 . S
Mg40 O38 1.963 . S
Mg40 O44 1.986 . S
Mg40 O56 1.942 . S
Mg40 O57 1.955 . S
C41 O52 1.191 . S
C41 O54 1.307 . S
O42 Mg37 2.013 . S
O42 C61 1.191 . S
O43 Mg34 2.081 . S
O43 C51 1.331 . S
O44 Mg40 1.986 . S
O44 C61 1.307 . S
O45 Mg34 2.023 . S
O45 C60 1.264 . S
O46 Mg35 1.942 . S
O46 C51 1.244 . S
O47 Mg35 1.955 . S
O47 C60 1.273 . S
O48 Mg37 2.114 . S
O48 Mg39 2.291 . S
O48 C50 1.312 . S
O49 Mg34 2.031 1_455 S
O49 C50 1.208 . S
C50 O48 1.312 . S
C50 O49 1.208 . S
C51 O43 1.331 . S
C51 O46 1.244 . S
O52 Mg37 2.013 . S
O52 C41 1.191 . S
O53 C32 1.331 . S
O53 Mg39 2.081 . S
O54 Mg35 1.986 1_455 S
O54 C41 1.307 . S
O55 C33 1.264 . S
O55 Mg39 2.023 . S
O56 C32 1.244 . S
O56 Mg40 1.942 . S
O57 C33 1.273 . S
O57 Mg40 1.955 . S
O58 C31 1.312 . S
O58 Mg34 2.291 1_455 S
O58 Mg37 2.114 . S
O59 C31 1.208 . S
O59 Mg39 2.031 . S
C60 O45 1.264 . S
C60 O47 1.273 . S
C61 O42 1.191 . S
C61 O44 1.307 . S
C62 O89 1.312 . S
C62 O90 1.208 . S
C63 O84 1.331 . S
C63 O87 1.244 . S
C64 O86 1.264 . S
C64 O88 1.273 . S
Mg65 O67 1.936 1_455 S
Mg65 O74 2.081 . S
Mg65 O76 2.023 . S
Mg65 O80 2.031 . S
Mg65 O89 2.291 1_455 S
Mg66 O67 1.963 1_455 S
Mg66 O77 1.942 . S
Mg66 O78 1.955 . S
Mg66 O85 1.986 . S
O67 Mg65 1.936 1_655 S
O67 Mg66 1.963 1_655 S
O67 Mg68 1.915 . S
Mg68 O67 1.915 . S
Mg68 O69 1.915 . S
Mg68 O73 2.013 . S
Mg68 O79 2.114 . S
Mg68 O83 2.013 . S
Mg68 O89 2.114 . S
O69 Mg68 1.915 . S
O69 Mg70 1.936 . S
O69 Mg71 1.963 . S
Mg70 O69 1.936 . S
Mg70 O79 2.291 . S
Mg70 O84 2.081 . S
Mg70 O86 2.023 . S
Mg70 O90 2.031 . S
Mg71 O69 1.963 . S
Mg71 O75 1.986 . S
Mg71 O87 1.942 . S
Mg71 O88 1.955 . S
C72 O83 1.191 . S
C72 O85 1.307 1_655 S
O73 Mg68 2.013 . S
O73 C92 1.191 . S
O74 Mg65 2.081 . S
O74 C82 1.331 . S
O75 Mg71 1.986 . S
O75 C92 1.307 . S
O76 Mg65 2.023 . S
O76 C91 1.264 . S
O77 Mg66 1.942 . S
O77 C82 1.244 . S
O78 Mg66 1.955 . S
O78 C91 1.273 . S
O79 Mg68 2.114 . S
O79 Mg70 2.291 . S
O79 C81 1.312 . S
O80 Mg65 2.031 . S
O80 C81 1.208 1_455 S
C81 O79 1.312 . S
C81 O80 1.208 1_655 S
C82 O74 1.331 . S
C82 O77 1.244 . S
O83 Mg68 2.013 . S
O83 C72 1.191 . S
O84 C63 1.331 . S
O84 Mg70 2.081 . S
O85 Mg66 1.986 . S
O85 C72 1.307 1_455 S
O86 C64 1.264 . S
O86 Mg70 2.023 . S
O87 C63 1.244 . S
O87 Mg71 1.942 . S
O88 C64 1.273 . S
O88 Mg71 1.955 . S
O89 C62 1.312 . S
O89 Mg65 2.291 1_655 S
O89 Mg68 2.114 . S
O90 C62 1.208 . S
O90 Mg70 2.031 . S
C91 O76 1.264 . S
C91 O78 1.273 . S
C92 O73 1.191 . S
C92 O75 1.307 . S
C93 O120 1.312 . S
C93 O121 1.208 . S
C94 O115 1.331 . S
C94 O118 1.244 . S
C95 O117 1.264 . S
C95 O119 1.273 . S
Mg96 O98 1.936 . S
Mg96 O105 2.081 . S
Mg96 O107 2.023 . S
Mg96 O111 2.031 . S
Mg96 O120 2.291 . S
Mg97 O98 1.963 . S
Mg97 O108 1.942 . S
Mg97 O109 1.955 . S
Mg97 O116 1.986 . S
O98 Mg96 1.936 . S
O98 Mg97 1.963 . S
O98 Mg99 1.915 . S
Mg99 O98 1.915 . S
Mg99 O100 1.915 . S
Mg99 O104 2.013 . S
Mg99 O110 2.114 . S
Mg99 O114 2.013 . S
Mg99 O120 2.114 . S
O100 Mg99 1.915 . S
O100 Mg101 1.936 . S
O100 Mg102 1.963 . S
Mg101 O100 1.936 . S
Mg101 O110 2.291 . S
Mg101 O115 2.081 . S
Mg101 O117 2.023 . S
Mg101 O121 2.031 . S
Mg102 O100 1.963 . S
Mg102 O106 1.986 . S
Mg102 O118 1.942 . S
Mg102 O119 1.955 . S
C103 O114 1.191 . S
C103 O116 1.307 . S
O104 Mg99 2.013 . S
O104 C123 1.191 . S
O105 Mg96 2.081 . S
O105 C113 1.331 . S
O106 Mg102 1.986 . S
O106 C123 1.307 . S
O107 Mg96 2.023 . S
O107 C122 1.264 . S
O108 Mg97 1.942 . S
O108 C113 1.244 . S
O109 Mg97 1.955 . S
O109 C122 1.273 . S
O110 Mg99 2.114 . S
O110 Mg101 2.291 . S
O110 C112 1.312 . S
O111 Mg96 2.031 . S
O111 C112 1.208 . S
C112 O110 1.312 . S
C112 O111 1.208 . S
C113 O105 1.331 . S
C113 O108 1.244 . S
O114 Mg99 2.013 . S
O114 C103 1.191 . S
O115 C94 1.331 . S
O115 Mg101 2.081 . S
O116 Mg97 1.986 . S
O116 C103 1.307 . S
O117 C95 1.264 . S
O117 Mg101 2.023 . S
O118 C94 1.244 . S
O118 Mg102 1.942 . S
O119 C95 1.273 . S
O119 Mg102 1.955 . S
O120 C93 1.312 . S
O120 Mg96 2.291 . S
O120 Mg99 2.114 . S
O121 C93 1.208 . S
O121 Mg101 2.031 . S
C122 O107 1.264 . S
C122 O109 1.273 . S
C123 O104 1.191 . S
C123 O106 1.307 . S
C124 O151 1.312 . S
C124 O152 1.208 . S
C125 O146 1.331 . S
C125 O149 1.244 . S
C126 O148 1.264 . S
C126 O150 1.273 . S
Mg127 O129 1.936 . S
Mg127 O136 2.081 . S
Mg127 O138 2.023 . S
Mg127 O142 2.031 . S
Mg127 O151 2.291 . S
Mg128 O129 1.963 . S
Mg128 O139 1.942 . S
Mg128 O140 1.955 . S
Mg128 O147 1.986 . S
O129 Mg127 1.936 . S
O129 Mg128 1.963 . S
O129 Mg130 1.915 . S
Mg130 O129 1.915 . S
Mg130 O131 1.915 . S
Mg130 O135 2.013 . S
Mg130 O141 2.114 . S
Mg130 O145 2.013 . S
Mg130 O151 2.114 . S
O131 Mg130 1.915 . S
O131 Mg132 1.936 . S
O131 Mg133 1.963 . S
Mg132 O131 1.936 . S
Mg132 O141 2.291 . S
Mg132 O146 2.081 . S
Mg132 O148 2.023 . S
Mg132 O152 2.031 . S
Mg133 O131 1.963 . S
Mg133 O137 1.986 . S
Mg133 O149 1.942 . S
Mg133 O150 1.955 . S
C134 O145 1.191 . S
C134 O147 1.307 . S
O135 Mg130 2.013 . S
O135 C154 1.191 . S
O136 Mg127 2.081 . S
O136 C144 1.331 . S
O137 Mg133 1.986 . S
O137 C154 1.307 . S
O138 Mg127 2.023 . S
O138 C153 1.264 . S
O139 Mg128 1.942 . S
O139 C144 1.244 . S
O140 Mg128 1.955 . S
O140 C153 1.273 . S
O141 Mg130 2.114 . S
O141 Mg132 2.291 . S
O141 C143 1.312 . S
O142 Mg127 2.031 . S
O142 C143 1.208 . S
C143 O141 1.312 . S
C143 O142 1.208 . S
C144 O136 1.331 . S
C144 O139 1.244 . S
O145 Mg130 2.013 . S
O145 C134 1.191 . S
O146 C125 1.331 . S
O146 Mg132 2.081 . S
O147 Mg128 1.986 . S
O147 C134 1.307 . S
O148 C126 1.264 . S
O148 Mg132 2.023 . S
O149 C125 1.244 . S
O149 Mg133 1.942 . S
O150 C126 1.273 . S
O150 Mg133 1.955 . S
O151 C124 1.312 . S
O151 Mg127 2.291 . S
O151 Mg130 2.114 . S
O152 C124 1.208 . S
O152 Mg132 2.031 . S
C153 O138 1.264 . S
C153 O140 1.273 . S
C154 O135 1.191 . S
C154 O137 1.307 . S
C155 O182 1.312 . S
C155 O183 1.208 . S
C156 O177 1.331 . S
C156 O180 1.244 . S
C157 O179 1.264 . S
C157 O181 1.273 . S
Mg158 O160 1.936 . S
Mg158 O167 2.081 . S
Mg158 O169 2.023 . S
Mg158 O173 2.031 . S
Mg158 O182 2.291 . S
Mg159 O160 1.963 . S
Mg159 O170 1.942 . S
Mg159 O171 1.955 . S
Mg159 O178 1.986 . S
O160 Mg158 1.936 . S
O160 Mg159 1.963 . S
O160 Mg161 1.915 . S
Mg161 O160 1.915 . S
Mg161 O162 1.915 . S
Mg161 O166 2.013 . S
Mg161 O172 2.114 . S
Mg161 O176 2.013 . S
Mg161 O182 2.114 . S
O162 Mg161 1.915 . S
O162 Mg163 1.936 1_655 S
O162 Mg164 1.963 1_655 S
Mg163 O162 1.936 1_455 S
Mg163 O172 2.291 1_455 S
Mg163 O177 2.081 . S
Mg163 O179 2.023 . S
Mg163 O183 2.031 1_455 S
Mg164 O162 1.963 1_455 S
Mg164 O168 1.986 1_455 S
Mg164 O180 1.942 . S
Mg164 O181 1.955 . S
C165 O176 1.191 . S
C165 O178 1.307 . S
O166 Mg161 2.013 . S
O166 C185 1.191 . S
O167 Mg158 2.081 . S
O167 C175 1.331 . S
O168 Mg164 1.986 1_655 S
O168 C185 1.307 . S
O169 Mg158 2.023 . S
O169 C184 1.264 . S
O170 Mg159 1.942 . S
O170 C175 1.244 . S
O171 Mg159 1.955 . S
O171 C184 1.273 . S
O172 Mg161 2.114 . S
O172 Mg163 2.291 1_655 S
O172 C174 1.312 . S
O173 Mg158 2.031 . S
O173 C174 1.208 . S
C174 O172 1.312 . S
C174 O173 1.208 . S
C175 O167 1.331 . S
C175 O170 1.244 . S
O176 Mg161 2.013 . S
O176 C165 1.191 . S
O177 C156 1.331 . S
O177 Mg163 2.081 . S
O178 Mg159 1.986 . S
O178 C165 1.307 . S
O179 C157 1.264 . S
O179 Mg163 2.023 . S
O180 C156 1.244 . S
O180 Mg164 1.942 . S
O181 C157 1.273 . S
O181 Mg164 1.955 . S
O182 C155 1.312 . S
O182 Mg158 2.291 . S
O182 Mg161 2.114 . S
O183 C155 1.208 . S
O183 Mg163 2.031 1_655 S
C184 O169 1.264 . S
C184 O171 1.273 . S
C185 O166 1.191 . S
C185 O168 1.307 . S
C186 O213 1.312 . S
C186 O214 1.208 . S
C187 O208 1.331 . S
C187 O211 1.244 . S
C188 O210 1.264 . S
C188 O212 1.273 . S
Mg189 O191 1.936 . S
Mg189 O198 2.081 . S
Mg189 O200 2.023 . S
Mg189 O204 2.031 . S
Mg189 O213 2.291 . S
Mg190 O191 1.963 . S
Mg190 O201 1.942 . S
Mg190 O202 1.955 . S
Mg190 O209 1.986 . S
O191 Mg189 1.936 . S
O191 Mg190 1.963 . S
O191 Mg192 1.915 . S
Mg192 O191 1.915 . S
Mg192 O193 1.915 . S
Mg192 O197 2.013 . S
Mg192 O203 2.114 . S
Mg192 O207 2.013 . S
Mg192 O213 2.114 . S
O193 Mg192 1.915 . S
O193 Mg194 1.936 1_455 S
O193 Mg195 1.963 1_455 S
Mg194 O193 1.936 1_655 S
Mg194 O203 2.291 1_655 S
Mg194 O208 2.081 . S
Mg194 O210 2.023 . S
Mg194 O214 2.031 1_655 S
Mg195 O193 1.963 1_655 S
Mg195 O199 1.986 1_655 S
Mg195 O211 1.942 . S
Mg195 O212 1.955 . S
C196 O207 1.191 . S
C196 O209 1.307 . S
O197 Mg192 2.013 . S
O197 C216 1.191 . S
O198 Mg189 2.081 . S
O198 C206 1.331 . S
O199 Mg195 1.986 1_455 S
O199 C216 1.307 . S
O200 Mg189 2.023 . S
O200 C215 1.264 . S
O201 Mg190 1.942 . S
O201 C206 1.244 . S
O202 Mg190 1.955 . S
O202 C215 1.273 . S
O203 Mg192 2.114 . S
O203 Mg194 2.291 1_455 S
O203 C205 1.312 . S
O204 Mg189 2.031 . S
O204 C205 1.208 . S
C205 O203 1.312 . S
C205 O204 1.208 . S
C206 O198 1.331 . S
C206 O201 1.244 . S
O207 Mg192 2.013 . S
O207 C196 1.191 . S
O208 C187 1.331 . S
O208 Mg194 2.081 . S
O209 Mg190 1.986 . S
O209 C196 1.307 . S
O210 C188 1.264 . S
O210 Mg194 2.023 . S
O211 C187 1.244 . S
O211 Mg195 1.942 . S
O212 C188 1.273 . S
O212 Mg195 1.955 . S
O213 C186 1.312 . S
O213 Mg189 2.291 . S
O213 Mg192 2.114 . S
O214 C186 1.208 . S
O214 Mg194 2.031 1_455 S
C215 O200 1.264 . S
C215 O202 1.273 . S
C216 O197 1.191 . S
C216 O199 1.307 . S
C217 O244 1.312 . S
C217 O245 1.208 . S
C218 O239 1.331 . S
C218 O242 1.244 . S
C219 O241 1.264 . S
C219 O243 1.273 . S
Mg220 O222 1.936 . S
Mg220 O229 2.081 . S
Mg220 O231 2.023 . S
Mg220 O235 2.031 . S
Mg220 O244 2.291 . S
Mg221 O222 1.963 . S
Mg221 O232 1.942 . S
Mg221 O233 1.955 . S
Mg221 O240 1.986 . S
O222 Mg220 1.936 . S
O222 Mg221 1.963 . S
O222 Mg223 1.915 . S
Mg223 O222 1.915 . S
Mg223 O224 1.915 . S
Mg223 O228 2.013 . S
Mg223 O234 2.114 . S
Mg223 O238 2.013 . S
Mg223 O244 2.114 . S
O224 Mg223 1.915 . S
O224 Mg225 1.936 . S
O224 Mg226 1.963 . S
Mg225 O224 1.936 . S
Mg225 O234 2.291 . S
Mg225 O239 2.081 . S
Mg225 O241 2.023 . S
Mg225 O245 2.031 . S
Mg226 O224 1.963 . S
Mg226 O230 1.986 . S
Mg226 O242 1.942 . S
Mg226 O243 1.955 . S
C227 O238 1.191 . S
C227 O240 1.307 . S
O228 Mg223 2.013 . S
O228 C247 1.191 . S
O229 Mg220 2.081 . S
O229 C237 1.331 . S
O230 Mg226 1.986 . S
O230 C247 1.307 . S
O231 Mg220 2.023 . S
O231 C246 1.264 . S
O232 Mg221 1.942 . S
O232 C237 1.244 . S
O233 Mg221 1.955 . S
O233 C246 1.273 . S
O234 Mg223 2.114 . S
O234 Mg225 2.291 . S
O234 C236 1.312 . S
O235 Mg220 2.031 . S
O235 C236 1.208 . S
C236 O234 1.312 . S
C236 O235 1.208 . S
C237 O229 1.331 . S
C237 O232 1.244 . S
O238 Mg223 2.013 . S
O238 C227 1.191 . S
O239 C218 1.331 . S
O239 Mg225 2.081 . S
O240 Mg221 1.986 . S
O240 C227 1.307 . S
O241 C219 1.264 . S
O241 Mg225 2.023 . S
O242 C218 1.244 . S
O242 Mg226 1.942 . S
O243 C219 1.273 . S
O243 Mg226 1.955 . S
O244 C217 1.312 . S
O244 Mg220 2.291 . S
O244 Mg223 2.114 . S
O245 C217 1.208 . S
O245 Mg225 2.031 . S
C246 O231 1.264 . S
C246 O233 1.273 . S
C247 O228 1.191 . S
C247 O230 1.307 . S
H248 C254 0.930 . S
H249 C258 0.930 . S
H250 C263 0.929 . S
H251 C261 0.929 . S
H252 C256 0.929 . S
H253 C262 0.929 . S
C254 H248 0.930 . S
C254 C255 1.367 . S
C254 C262 1.378 1_455 S
C255 C254 1.367 . S
C255 C263 1.433 . S
C256 H252 0.929 . S
C256 C258 1.378 . S
C256 C260 1.350 . S
C257 C260 1.463 . S
C257 C262 1.350 . S
C257 N265 1.427 . S
C258 H249 0.930 . S
C258 C256 1.378 . S
C258 C259 1.367 . S
C259 C258 1.367 . S
C259 C261 1.433 . S
C260 C256 1.350 . S
C260 C257 1.463 . S
C260 N264 1.427 . S
C261 H251 0.929 . S
C261 C259 1.433 . S
C261 N264 1.384 . S
C262 H253 0.929 . S
C262 C254 1.378 1_655 S
C262 C257 1.350 . S
C263 H250 0.929 . S
C263 C255 1.433 . S
C263 N265 1.384 1_455 S
N264 C260 1.427 . S
N264 C261 1.384 . S
N265 C257 1.427 . S
N265 C263 1.384 1_655 S
H266 C272 0.930 . S
H267 C276 0.930 . S
H268 C281 0.929 . S
H269 C279 0.929 . S
H270 C274 0.929 . S
H271 C280 0.929 . S
C272 H266 0.930 . S
C272 C273 1.367 . S
C272 C280 1.378 . S
C273 C272 1.367 . S
C273 C281 1.433 . S
C274 H270 0.929 . S
C274 C276 1.378 . S
C274 C278 1.350 . S
C275 C278 1.463 . S
C275 C280 1.350 . S
C275 N283 1.427 . S
C276 H267 0.930 . S
C276 C274 1.378 . S
C276 C277 1.367 . S
C277 C276 1.367 . S
C277 C279 1.433 . S
C278 C274 1.350 . S
C278 C275 1.463 . S
C278 N282 1.427 . S
C279 H269 0.929 . S
C279 C277 1.433 . S
C279 N282 1.384 . S
C280 H271 0.929 . S
C280 C272 1.378 . S
C280 C275 1.350 . S
C281 H268 0.929 . S
C281 C273 1.433 . S
C281 N283 1.384 . S
N282 C278 1.427 . S
N282 C279 1.384 . S
N283 C275 1.427 . S
N283 C281 1.384 . S
H284 C290 0.930 . S
H285 C294 0.930 . S
H286 C299 0.929 . S
H287 C297 0.929 . S
H288 C292 0.929 . S
H289 C298 0.929 . S
C290 H284 0.930 . S
C290 C291 1.367 . S
C290 C298 1.378 . S
C291 C290 1.367 . S
C291 C299 1.433 . S
C292 H288 0.929 . S
C292 C294 1.378 . S
C292 C296 1.350 . S
C293 C296 1.463 . S
C293 C298 1.350 . S
C293 N301 1.427 . S
C294 H285 0.930 . S
C294 C292 1.378 . S
C294 C295 1.367 . S
C295 C294 1.367 . S
C295 C297 1.433 . S
C296 C292 1.350 . S
C296 C293 1.463 . S
C296 N300 1.427 . S
C297 H287 0.929 . S
C297 C295 1.433 . S
C297 N300 1.384 . S
C298 H289 0.929 . S
C298 C290 1.378 . S
C298 C293 1.350 . S
C299 H286 0.929 . S
C299 C291 1.433 . S
C299 N301 1.384 . S
N300 C296 1.427 . S
N300 C297 1.384 . S
N301 C293 1.427 . S
N301 C299 1.384 . S
H302 C308 0.930 . S
H303 C312 0.930 . S
H304 C317 0.929 . S
H305 C315 0.929 . S
H306 C310 0.929 . S
H307 C316 0.929 . S
C308 H302 0.930 . S
C308 C309 1.367 . S
C308 C316 1.378 1_655 S
C309 C308 1.367 . S
C309 C317 1.433 . S
C310 H306 0.929 . S
C310 C312 1.378 . S
C310 C314 1.350 . S
C311 C314 1.463 . S
C311 C316 1.350 . S
C311 N319 1.427 . S
C312 H303 0.930 . S
C312 C310 1.378 . S
C312 C313 1.367 . S
C313 C312 1.367 . S
C313 C315 1.433 . S
C314 C310 1.350 . S
C314 C311 1.463 . S
C314 N318 1.427 . S
C315 H305 0.929 . S
C315 C313 1.433 . S
C315 N318 1.384 . S
C316 H307 0.929 . S
C316 C308 1.378 1_455 S
C316 C311 1.350 . S
C317 H304 0.929 . S
C317 C309 1.433 . S
C317 N319 1.384 1_655 S
N318 C314 1.427 . S
N318 C315 1.384 . S
N319 C311 1.427 . S
N319 C317 1.384 1_455 S
H320 C326 0.930 . S
H321 C330 0.930 . S
H322 C335 0.929 . S
H323 C333 0.929 . S
H324 C328 0.929 . S
H325 C334 0.929 . S
C326 H320 0.930 . S
C326 C327 1.367 . S
C326 C334 1.378 . S
C327 C326 1.367 . S
C327 C335 1.433 . S
C328 H324 0.929 . S
C328 C330 1.378 1_455 S
C328 C332 1.350 . S
C329 C332 1.463 . S
C329 C334 1.350 . S
C329 N337 1.427 . S
C330 H321 0.930 . S
C330 C328 1.378 1_655 S
C330 C331 1.367 . S
C331 C330 1.367 . S
C331 C333 1.433 . S
C332 C328 1.350 . S
C332 C329 1.463 . S
C332 N336 1.427 . S
C333 H323 0.929 . S
C333 C331 1.433 . S
C333 N336 1.384 1_655 S
C334 H325 0.929 . S
C334 C326 1.378 . S
C334 C329 1.350 . S
C335 H322 0.929 . S
C335 C327 1.433 . S
C335 N337 1.384 . S
N336 C332 1.427 . S
N336 C333 1.384 1_455 S
N337 C329 1.427 . S
N337 C335 1.384 . S
H338 C344 0.930 . S
H339 C348 0.930 . S
H340 C353 0.929 . S
H341 C351 0.929 . S
H342 C346 0.929 . S
H343 C352 0.929 . S
C344 H338 0.930 . S
C344 C345 1.367 . S
C344 C352 1.378 . S
C345 C344 1.367 . S
C345 C353 1.433 . S
C346 H342 0.929 . S
C346 C348 1.378 . S
C346 C350 1.350 . S
C347 C350 1.463 . S
C347 C352 1.350 . S
C347 N355 1.427 . S
C348 H339 0.930 . S
C348 C346 1.378 . S
C348 C349 1.367 . S
C349 C348 1.367 . S
C349 C351 1.433 . S
C350 C346 1.350 . S
C350 C347 1.463 . S
C350 N354 1.427 . S
C351 H341 0.929 . S
C351 C349 1.433 . S
C351 N354 1.384 . S
C352 H343 0.929 . S
C352 C344 1.378 . S
C352 C347 1.350 . S
C353 H340 0.929 . S
C353 C345 1.433 . S
C353 N355 1.384 . S
N354 C350 1.427 . S
N354 C351 1.384 . S
N355 C347 1.427 . S
N355 C353 1.384 . S
H356 C362 0.930 . S
H357 C366 0.930 . S
H358 C371 0.929 . S
H359 C369 0.929 . S
H360 C364 0.929 . S
H361 C370 0.929 . S
C362 H356 0.930 . S
C362 C363 1.367 . S
C362 C370 1.378 . S
C363 C362 1.367 . S
C363 C371 1.433 . S
C364 H360 0.929 . S
C364 C366 1.378 . S
C364 C368 1.350 . S
C365 C368 1.463 . S
C365 C370 1.350 . S
C365 N373 1.427 . S
C366 H357 0.930 . S
C366 C364 1.378 . S
C366 C367 1.367 . S
C367 C366 1.367 . S
C367 C369 1.433 . S
C368 C364 1.350 . S
C368 C365 1.463 . S
C368 N372 1.427 . S
C369 H359 0.929 . S
C369 C367 1.433 . S
C369 N372 1.384 . S
C370 H361 0.929 . S
C370 C362 1.378 . S
C370 C365 1.350 . S
C371 H358 0.929 . S
C371 C363 1.433 . S
C371 N373 1.384 . S
N372 C368 1.427 . S
N372 C369 1.384 . S
N373 C365 1.427 . S
N373 C371 1.384 . S
H374 C380 0.930 . S
H375 C384 0.930 . S
H376 C389 0.929 . S
H377 C387 0.929 . S
H378 C382 0.929 . S
H379 C388 0.929 . S
C380 H374 0.930 . S
C380 C381 1.367 . S
C380 C388 1.378 1_455 S
C381 C380 1.367 . S
C381 C389 1.433 . S
C382 H378 0.929 . S
C382 C384 1.378 . S
C382 C386 1.350 . S
C383 C386 1.463 . S
C383 C388 1.350 . S
C383 N391 1.427 . S
C384 H375 0.930 . S
C384 C382 1.378 . S
C384 C385 1.367 . S
C385 C384 1.367 . S
C385 C387 1.433 . S
C386 C382 1.350 . S
C386 C383 1.463 . S
C386 N390 1.427 . S
C387 H377 0.929 . S
C387 C385 1.433 . S
C387 N390 1.384 . S
C388 H379 0.929 . S
C388 C380 1.378 1_655 S
C388 C383 1.350 . S
C389 H376 0.929 . S
C389 C381 1.433 . S
C389 N391 1.384 1_455 S
N390 C386 1.427 . S
N390 C387 1.384 . S
N391 C383 1.427 . S
N391 C389 1.384 1_655 S
H392 C398 0.930 . S
H393 C402 0.930 . S
H394 C407 0.929 . S
H395 C405 0.929 . S
H396 C400 0.929 . S
H397 C406 0.929 . S
C398 H392 0.930 . S
C398 C399 1.367 . S
C398 C406 1.378 . S
C399 C398 1.367 . S
C399 C407 1.433 . S
C400 H396 0.929 . S
C400 C402 1.378 . S
C400 C404 1.350 . S
C401 C404 1.463 . S
C401 C406 1.350 . S
C401 N409 1.427 . S
C402 H393 0.930 . S
C402 C400 1.378 . S
C402 C403 1.367 . S
C403 C402 1.367 . S
C403 C405 1.433 . S
C404 C400 1.350 . S
C404 C401 1.463 . S
C404 N408 1.427 . S
C405 H395 0.929 . S
C405 C403 1.433 . S
C405 N408 1.384 . S
C406 H397 0.929 . S
C406 C398 1.378 . S
C406 C401 1.350 . S
C407 H394 0.929 . S
C407 C399 1.433 . S
C407 N409 1.384 . S
N408 C404 1.427 . S
N408 C405 1.384 . S
N409 C401 1.427 . S
N409 C407 1.384 . S
H410 C416 0.930 . S
H411 C420 0.930 . S
H412 C425 0.929 . S
H413 C423 0.929 . S
H414 C418 0.929 . S
H415 C424 0.929 . S
C416 H410 0.930 . S
C416 C417 1.367 . S
C416 C424 1.378 . S
C417 C416 1.367 . S
C417 C425 1.433 1_455 S
C418 H414 0.929 . S
C418 C420 1.378 . S
C418 C422 1.350 . S
C419 C422 1.463 1_455 S
C419 C424 1.350 . S
C419 N427 1.427 1_455 S
C420 H411 0.930 . S
C420 C418 1.378 . S
C420 C421 1.367 . S
C421 C420 1.367 . S
C421 C423 1.433 1_655 S
C422 C418 1.350 . S
C422 C419 1.463 1_655 S
C422 N426 1.427 1_655 S
C423 H413 0.929 . S
C423 C421 1.433 1_455 S
C423 N426 1.384 . S
C424 H415 0.929 . S
C424 C416 1.378 . S
C424 C419 1.350 . S
C425 H412 0.929 . S
C425 C417 1.433 1_655 S
C425 N427 1.384 . S
N426 C422 1.427 1_455 S
N426 C423 1.384 . S
N427 C419 1.427 1_655 S
N427 C425 1.384 . S
H428 C434 0.930 . S
H429 C438 0.930 . S
H430 C443 0.929 . S
H431 C441 0.929 . S
H432 C436 0.929 . S
H433 C442 0.929 . S
C434 H428 0.930 . S
C434 C435 1.367 . S
C434 C442 1.378 . S
C435 C434 1.367 . S
C435 C443 1.433 . S
C436 H432 0.929 . S
C436 C438 1.378 . S
C436 C440 1.350 . S
C437 C440 1.463 . S
C437 C442 1.350 . S
C437 N445 1.427 . S
C438 H429 0.930 . S
C438 C436 1.378 . S
C438 C439 1.367 . S
C439 C438 1.367 . S
C439 C441 1.433 . S
C440 C436 1.350 . S
C440 C437 1.463 . S
C440 N444 1.427 . S
C441 H431 0.929 . S
C441 C439 1.433 . S
C441 N444 1.384 . S
C442 H433 0.929 . S
C442 C434 1.378 . S
C442 C437 1.350 . S
C443 H430 0.929 . S
C443 C435 1.433 . S
C443 N445 1.384 . S
N444 C440 1.427 . S
N444 C441 1.384 . S
N445 C437 1.427 . S
N445 C443 1.384 . S
H446 C452 0.930 . S
H447 C456 0.930 . S
H448 C461 0.929 . S
H449 C459 0.929 . S
H450 C454 0.929 . S
H451 C460 0.929 . S
C452 H446 0.930 . S
C452 C453 1.367 . S
C452 C460 1.378 . S
C453 C452 1.367 . S
C453 C461 1.433 1_655 S
C454 H450 0.929 . S
C454 C456 1.378 . S
C454 C458 1.350 . S
C455 C458 1.463 1_655 S
C455 C460 1.350 . S
C455 N463 1.427 1_655 S
C456 H447 0.930 . S
C456 C454 1.378 . S
C456 C457 1.367 . S
C457 C456 1.367 . S
C457 C459 1.433 1_455 S
C458 C454 1.350 . S
C458 C455 1.463 1_455 S
C458 N462 1.427 1_455 S
C459 H449 0.929 . S
C459 C457 1.433 1_655 S
C459 N462 1.384 . S
C460 H451 0.929 . S
C460 C452 1.378 . S
C460 C455 1.350 . S
C461 H448 0.929 . S
C461 C453 1.433 1_455 S
C461 N463 1.384 . S
N462 C458 1.427 1_655 S
N462 C459 1.384 . S
N463 C455 1.427 1_455 S
N463 C461 1.384 . S
H464 C470 0.930 . S
H465 C474 0.930 . S
H466 C479 0.929 . S
H467 C477 0.929 . S
H468 C472 0.929 . S
H469 C478 0.929 . S
C470 H464 0.930 . S
C470 C471 1.367 . S
C470 C478 1.378 . S
C471 C470 1.367 . S
C471 C479 1.433 . S
C472 H468 0.929 . S
C472 C474 1.378 . S
C472 C476 1.350 . S
C473 C476 1.463 . S
C473 C478 1.350 . S
C473 N481 1.427 . S
C474 H465 0.930 . S
C474 C472 1.378 . S
C474 C475 1.367 . S
C475 C474 1.367 . S
C475 C477 1.433 . S
C476 C472 1.350 . S
C476 C473 1.463 . S
C476 N480 1.427 . S
C477 H467 0.929 . S
C477 C475 1.433 . S
C477 N480 1.384 . S
C478 H469 0.929 . S
C478 C470 1.378 . S
C478 C473 1.350 . S
C479 H466 0.929 . S
C479 C471 1.433 . S
C479 N481 1.384 . S
N480 C476 1.427 . S
N480 C477 1.384 . S
N481 C473 1.427 . S
N481 C479 1.384 . S
H482 C488 0.930 . S
H483 C492 0.930 . S
H484 C497 0.929 . S
H485 C495 0.929 1_455 S
H486 C490 0.929 . S
H487 C496 0.929 . S
C488 H482 0.930 . S
C488 C489 1.367 . S
C488 C496 1.378 . S
C489 C488 1.367 . S
C489 C497 1.433 . S
C490 H486 0.929 . S
C490 C492 1.378 . S
C490 C494 1.350 . S
C491 C494 1.463 1_554 S
C491 C496 1.350 . S
C491 N499 1.427 . S
C492 H483 0.930 . S
C492 C490 1.378 . S
C492 C493 1.367 . S
C493 C492 1.367 . S
C493 C495 1.433 . S
C494 C490 1.350 . S
C494 C491 1.463 1_556 S
C494 N498 1.427 . S
C495 H485 0.929 1_655 S
C495 C493 1.433 . S
C495 N498 1.384 . S
C496 H487 0.929 . S
C496 C488 1.378 . S
C496 C491 1.350 . S
C497 H484 0.929 . S
C497 C489 1.433 . S
C497 N499 1.384 . S
N498 C494 1.427 . S
N498 C495 1.384 . S
N499 C491 1.427 . S
N499 C497 1.384 . S
H500 C506 0.930 . S
H501 C510 0.930 . S
H502 C515 0.929 . S
H503 C513 0.929 . S
H504 C508 0.929 . S
H505 C514 0.929 . S
C506 H500 0.930 . S
C506 C507 1.367 . S
C506 C514 1.378 . S
C507 C506 1.367 . S
C507 C515 1.433 . S
C508 H504 0.929 . S
C508 C510 1.378 . S
C508 C512 1.350 . S
C509 C512 1.463 . S
C509 C514 1.350 . S
C509 N517 1.427 . S
C510 H501 0.930 . S
C510 C508 1.378 . S
C510 C511 1.367 . S
C511 C510 1.367 . S
C511 C513 1.433 . S
C512 C508 1.350 . S
C512 C509 1.463 . S
C512 N516 1.427 . S
C513 H503 0.929 . S
C513 C511 1.433 . S
C513 N516 1.384 . S
C514 H505 0.929 . S
C514 C506 1.378 . S
C514 C509 1.350 . S
C515 H502 0.929 . S
C515 C507 1.433 . S
C515 N517 1.384 . S
N516 C512 1.427 . S
N516 C513 1.384 . S
N517 C509 1.427 . S
N517 C515 1.384 . S
H518 C524 0.930 . S
H519 C528 0.930 . S
H520 C533 0.929 . S
H521 C531 0.929 . S
H522 C526 0.929 1_554 S
H523 C532 0.929 . S
C524 H518 0.930 . S
C524 C525 1.367 . S
C524 C532 1.378 . S
C525 C524 1.367 . S
C525 C533 1.433 . S
C526 H522 0.929 1_556 S
C526 C528 1.378 . S
C526 C530 1.350 . S
C527 C530 1.463 1_554 S
C527 C532 1.350 . S
C527 N535 1.427 . S
C528 H519 0.930 . S
C528 C526 1.378 . S
C528 C529 1.367 . S
C529 C528 1.367 . S
C529 C531 1.433 . S
C530 C526 1.350 . S
C530 C527 1.463 1_556 S
C530 N534 1.427 . S
C531 H521 0.929 . S
C531 C529 1.433 . S
C531 N534 1.384 . S
C532 H523 0.929 . S
C532 C524 1.378 . S
C532 C527 1.350 . S
C533 H520 0.929 . S
C533 C525 1.433 . S
C533 N535 1.384 . S
N534 C530 1.427 . S
N534 C531 1.384 . S
N535 C527 1.427 . S
N535 C533 1.384 . S
H536 C542 0.930 . S
H537 C546 0.930 . S
H538 C551 0.929 . S
H539 C549 0.929 . S
H540 C544 0.929 . S
H541 C550 0.929 . S
C542 H536 0.930 . S
C542 C543 1.367 . S
C542 C550 1.378 . S
C543 C542 1.367 . S
C543 C551 1.433 . S
C544 H540 0.929 . S
C544 C546 1.378 . S
C544 C548 1.350 . S
C545 C548 1.463 . S
C545 C550 1.350 . S
C545 N553 1.427 . S
C546 H537 0.930 . S
C546 C544 1.378 . S
C546 C547 1.367 . S
C547 C546 1.367 . S
C547 C549 1.433 . S
C548 C544 1.350 . S
C548 C545 1.463 . S
C548 N552 1.427 . S
C549 H539 0.929 . S
C549 C547 1.433 . S
C549 N552 1.384 . S
C550 H541 0.929 . S
C550 C542 1.378 . S
C550 C545 1.350 . S
C551 H538 0.929 . S
C551 C543 1.433 . S
C551 N553 1.384 . S
N552 C548 1.427 . S
N552 C549 1.384 . S
N553 C545 1.427 . S
N553 C551 1.384 . S
H554 C560 0.930 . S
H555 C564 0.930 . S
H556 C569 0.929 1_655 S
H557 C567 0.929 . S
H558 C562 0.929 . S
H559 C568 0.929 . S
C560 H554 0.930 . S
C560 C561 1.367 . S
C560 C568 1.378 . S
C561 C560 1.367 . S
C561 C569 1.433 . S
C562 H558 0.929 . S
C562 C564 1.378 . S
C562 C566 1.350 . S
C563 C566 1.463 1_554 S
C563 C568 1.350 . S
C563 N571 1.427 . S
C564 H555 0.930 . S
C564 C562 1.378 . S
C564 C565 1.367 . S
C565 C564 1.367 . S
C565 C567 1.433 . S
C566 C562 1.350 . S
C566 C563 1.463 1_556 S
C566 N570 1.428 . S
C567 H557 0.929 . S
C567 C565 1.433 . S
C567 N570 1.388 . S
C568 H559 0.929 . S
C568 C560 1.378 . S
C568 C563 1.350 . S
C569 H556 0.929 1_455 S
C569 C561 1.433 . S
C569 N571 1.384 . S
N570 C566 1.428 . S
N570 C567 1.388 . S
N571 C563 1.427 . S
N571 C569 1.384 . S
H572 C578 0.930 . S
H573 C582 0.930 . S
H574 C587 0.929 . S
H575 C585 0.929 . S
H576 C580 0.929 . S
H577 C586 0.929 . S
C578 H572 0.930 . S
C578 C579 1.367 . S
C578 C586 1.378 . S
C579 C578 1.367 . S
C579 C587 1.433 . S
C580 H576 0.929 . S
C580 C582 1.378 . S
C580 C584 1.350 . S
C581 C584 1.463 . S
C581 C586 1.350 . S
C581 N589 1.427 . S
C582 H573 0.930 . S
C582 C580 1.378 . S
C582 C583 1.367 . S
C583 C582 1.367 . S
C583 C585 1.433 . S
C584 C580 1.350 . S
C584 C581 1.463 . S
C584 N588 1.427 . S
C585 H575 0.929 . S
C585 C583 1.433 . S
C585 N588 1.384 . S
C586 H577 0.929 . S
C586 C578 1.378 . S
C586 C581 1.350 . S
C587 H574 0.929 . S
C587 C579 1.433 . S
C587 N589 1.384 . S
N588 C584 1.427 . S
N588 C585 1.384 . S
N589 C581 1.427 . S
N589 C587 1.384 . S
H590 C596 0.930 . S
H591 C600 0.930 . S
H592 C605 0.929 . S
H593 C603 0.929 . S
H594 C598 0.929 1_556 S
H595 C604 0.929 . S
C596 H590 0.930 . S
C596 C597 1.367 . S
C596 C604 1.378 . S
C597 C596 1.367 . S
C597 C605 1.433 . S
C598 H594 0.929 1_554 S
C598 C600 1.378 . S
C598 C602 1.350 . S
C599 C602 1.463 1_556 S
C599 C604 1.350 . S
C599 N607 1.427 . S
C600 H591 0.930 . S
C600 C598 1.378 . S
C600 C601 1.367 . S
C601 C600 1.367 . S
C601 C603 1.433 . S
C602 C598 1.350 . S
C602 C599 1.463 1_554 S
C602 N606 1.427 . S
C603 H593 0.929 . S
C603 C601 1.433 . S
C603 N606 1.384 . S
C604 H595 0.929 . S
C604 C596 1.378 . S
C604 C599 1.350 . S
C605 H592 0.929 . S
C605 C597 1.433 . S
C605 N607 1.384 . S
N606 C602 1.427 . S
N606 C603 1.384 . S
N607 C599 1.427 . S
N607 C605 1.384 . S
H608 C614 0.930 . S
H609 C618 0.930 . S
H610 C623 0.929 . S
H611 C621 0.929 . S
H612 C616 0.929 . S
H613 C622 0.929 . S
C614 H608 0.930 . S
C614 C615 1.367 . S
C614 C622 1.378 . S
C615 C614 1.367 . S
C615 C623 1.433 . S
C616 H612 0.929 . S
C616 C618 1.378 . S
C616 C620 1.350 . S
C617 C620 1.463 . S
C617 C622 1.350 . S
C617 N625 1.427 . S
C618 H609 0.930 . S
C618 C616 1.378 . S
C618 C619 1.367 . S
C619 C618 1.367 . S
C619 C621 1.433 . S
C620 C616 1.350 . S
C620 C617 1.463 . S
C620 N624 1.427 . S
C621 H611 0.929 . S
C621 C619 1.433 . S
C621 N624 1.384 . S
C622 H613 0.929 . S
C622 C614 1.378 . S
C622 C617 1.350 . S
C623 H610 0.929 . S
C623 C615 1.433 . S
C623 N625 1.384 . S
N624 C620 1.427 . S
N624 C621 1.384 . S
N625 C617 1.427 . S
N625 C623 1.384 . S
H626 C632 0.930 . S
H627 C636 0.930 . S
H628 C641 0.929 . S
H629 C639 0.929 . S
H630 C634 0.929 . S
H631 C640 0.929 . S
C632 H626 0.930 . S
C632 C633 1.367 . S
C632 C640 1.378 . S
C633 C632 1.367 . S
C633 C641 1.433 . S
C634 H630 0.929 . S
C634 C636 1.378 . S
C634 C638 1.350 . S
C635 C638 1.463 . S
C635 C640 1.350 . S
C635 N643 1.427 . S
C636 H627 0.930 . S
C636 C634 1.378 . S
C636 C637 1.367 . S
C637 C636 1.367 . S
C637 C639 1.433 . S
C638 C634 1.350 . S
C638 C635 1.463 . S
C638 N642 1.427 . S
C639 H629 0.929 . S
C639 C637 1.433 . S
C639 N642 1.384 . S
C640 H631 0.929 . S
C640 C632 1.378 . S
C640 C635 1.350 . S
C641 H628 0.929 . S
C641 C633 1.433 . S
C641 N643 1.384 . S
N642 C638 1.427 . S
N642 C639 1.384 . S
N643 C635 1.427 . S
N643 C641 1.384 . S
H644 C650 0.930 . S
H645 C654 0.930 . S
H646 C659 0.929 . S
H647 C657 0.929 . S
H648 C652 0.929 . S
H649 C658 0.929 . S
C650 H644 0.930 . S
C650 C651 1.367 . S
C650 C658 1.378 . S
C651 C650 1.367 . S
C651 C659 1.433 . S
C652 H648 0.929 . S
C652 C654 1.378 . S
C652 C656 1.350 . S
C653 C656 1.463 . S
C653 C658 1.350 . S
C653 N661 1.427 . S
C654 H645 0.930 . S
C654 C652 1.378 . S
C654 C655 1.367 . S
C655 C654 1.367 . S
C655 C657 1.433 . S
C656 C652 1.350 . S
C656 C653 1.463 . S
C656 N660 1.427 . S
C657 H647 0.929 . S
C657 C655 1.433 . S
C657 N660 1.384 . S
C658 H649 0.929 . S
C658 C650 1.378 . S
C658 C653 1.350 . S
C659 H646 0.929 . S
C659 C651 1.433 . S
C659 N661 1.384 . S
N660 C656 1.427 . S
N660 C657 1.384 . S
N661 C653 1.427 . S
N661 C659 1.384 . S
H662 C668 0.930 . S
H663 C672 0.930 . S
H664 C677 0.929 . S
H665 C675 0.929 . S
H666 C670 0.929 . S
H667 C676 0.929 . S
C668 H662 0.930 . S
C668 C669 1.367 . S
C668 C676 1.378 . S
C669 C668 1.367 . S
C669 C677 1.433 . S
C670 H666 0.929 . S
C670 C672 1.378 . S
C670 C674 1.350 . S
C671 C674 1.463 . S
C671 C676 1.350 . S
C671 N679 1.427 . S
C672 H663 0.930 . S
C672 C670 1.378 . S
C672 C673 1.367 . S
C673 C672 1.367 . S
C673 C675 1.433 . S
C674 C670 1.350 . S
C674 C671 1.463 . S
C674 N678 1.427 . S
C675 H665 0.929 . S
C675 C673 1.433 . S
C675 N678 1.384 . S
C676 H667 0.929 . S
C676 C668 1.378 . S
C676 C671 1.350 . S
C677 H664 0.929 . S
C677 C669 1.433 . S
C677 N679 1.384 . S
N678 C674 1.427 . S
N678 C675 1.384 . S
N679 C671 1.427 . S
N679 C677 1.384 . S
H680 C686 0.930 . S
H681 C690 0.930 . S
H682 C695 0.929 . S
H683 C693 0.929 . S
H684 C688 0.929 . S
H685 C694 0.929 . S
C686 H680 0.930 . S
C686 C687 1.367 . S
C686 C694 1.378 . S
C687 C686 1.367 . S
C687 C695 1.433 . S
C688 H684 0.929 . S
C688 C690 1.378 . S
C688 C692 1.350 . S
C689 C692 1.463 . S
C689 C694 1.350 . S
C689 N697 1.427 . S
C690 H681 0.930 . S
C690 C688 1.378 . S
C690 C691 1.367 . S
C691 C690 1.367 . S
C691 C693 1.433 . S
C692 C688 1.350 . S
C692 C689 1.463 . S
C692 N696 1.427 . S
C693 H683 0.929 . S
C693 C691 1.433 . S
C693 N696 1.384 . S
C694 H685 0.929 . S
C694 C686 1.378 . S
C694 C689 1.350 . S
C695 H682 0.929 . S
C695 C687 1.433 . S
C695 N697 1.384 . S
N696 C692 1.427 . S
N696 C693 1.384 . S
N697 C689 1.427 . S
N697 C695 1.384 . S
H698 C704 0.930 . S
H699 C708 0.930 . S
H700 C713 0.929 . S
H701 C711 0.929 . S
H702 C706 0.929 . S
H703 C712 0.929 . S
C704 H698 0.930 . S
C704 C705 1.367 . S
C704 C712 1.378 . S
C705 C704 1.367 . S
C705 C713 1.433 . S
C706 H702 0.929 . S
C706 C708 1.378 . S
C706 C710 1.350 . S
C707 C710 1.463 . S
C707 C712 1.350 . S
C707 N715 1.427 . S
C708 H699 0.930 . S
C708 C706 1.378 . S
C708 C709 1.367 . S
C709 C708 1.367 . S
C709 C711 1.433 . S
C710 C706 1.350 . S
C710 C707 1.463 . S
C710 N714 1.427 . S
C711 H701 0.929 . S
C711 C709 1.433 . S
C711 N714 1.384 . S
C712 H703 0.929 . S
C712 C704 1.378 . S
C712 C707 1.350 . S
C713 H700 0.929 . S
C713 C705 1.433 . S
C713 N715 1.384 . S
N714 C710 1.427 . S
N714 C711 1.384 . S
N715 C707 1.427 . S
N715 C713 1.384 . S
H716 C722 0.930 . S
H717 C726 0.930 . S
H718 C731 0.929 . S
H719 C729 0.929 . S
H720 C724 0.929 . S
H721 C730 0.929 . S
C722 H716 0.930 . S
C722 C723 1.367 . S
C722 C730 1.378 . S
C723 C722 1.367 . S
C723 C731 1.433 . S
C724 H720 0.929 . S
C724 C726 1.378 . S
C724 C728 1.350 . S
C725 C728 1.463 . S
C725 C730 1.350 . S
C725 N733 1.427 . S
C726 H717 0.930 . S
C726 C724 1.378 . S
C726 C727 1.367 . S
C727 C726 1.367 . S
C727 C729 1.433 . S
C728 C724 1.350 . S
C728 C725 1.463 . S
C728 N732 1.427 . S
C729 H719 0.929 . S
C729 C727 1.433 . S
C729 N732 1.384 . S
C730 H721 0.929 . S
C730 C722 1.378 . S
C730 C725 1.350 . S
C731 H718 0.929 . S
C731 C723 1.433 . S
C731 N733 1.384 . S
N732 C728 1.427 . S
N732 C729 1.384 . S
N733 C725 1.427 . S
N733 C731 1.384 . S
H734 C740 0.930 . S
H735 C744 0.930 . S
H736 C749 0.929 . S
H737 C747 0.929 . S
H738 C742 0.929 . S
H739 C748 0.929 . S
C740 H734 0.930 . S
C740 C741 1.367 . S
C740 C748 1.378 . S
C741 C740 1.367 . S
C741 C749 1.433 . S
C742 H738 0.929 . S
C742 C744 1.378 . S
C742 C746 1.350 . S
C743 C746 1.463 . S
C743 C748 1.350 . S
C743 N751 1.427 . S
C744 H735 0.930 . S
C744 C742 1.378 . S
C744 C745 1.367 . S
C745 C744 1.367 . S
C745 C747 1.433 . S
C746 C742 1.350 . S
C746 C743 1.463 . S
C746 N750 1.427 . S
C747 H737 0.929 . S
C747 C745 1.433 . S
C747 N750 1.384 . S
C748 H739 0.929 . S
C748 C740 1.378 . S
C748 C743 1.350 . S
C749 H736 0.929 . S
C749 C741 1.433 . S
C749 N751 1.384 . S
N750 C746 1.427 . S
N750 C747 1.384 . S
N751 C743 1.427 . S
N751 C749 1.384 . S
H752 C758 0.930 . S
H753 C762 0.930 . S
H754 C767 0.929 . S
H755 C765 0.929 . S
H756 C760 0.929 . S
H757 C766 0.929 . S
C758 H752 0.930 . S
C758 C759 1.367 . S
C758 C766 1.378 . S
C759 C758 1.367 . S
C759 C767 1.433 . S
C760 H756 0.929 . S
C760 C762 1.378 . S
C760 C764 1.350 . S
C761 C764 1.463 . S
C761 C766 1.350 . S
C761 N769 1.427 . S
C762 H753 0.930 . S
C762 C760 1.378 . S
C762 C763 1.367 . S
C763 C762 1.367 . S
C763 C765 1.433 . S
C764 C760 1.350 . S
C764 C761 1.463 . S
C764 N768 1.427 . S
C765 H755 0.929 . S
C765 C763 1.433 . S
C765 N768 1.384 . S
C766 H757 0.929 . S
C766 C758 1.378 . S
C766 C761 1.350 . S
C767 H754 0.929 . S
C767 C759 1.433 . S
C767 N769 1.384 . S
N768 C764 1.427 . S
N768 C765 1.384 . S
N769 C761 1.427 . S
N769 C767 1.384 . S
H770 C776 0.916 1_545 S
H771 C780 0.930 1_565 S
H772 C785 0.929 . S
H773 C783 0.929 . S
H774 C778 0.929 . S
H775 C784 0.929 . S
C776 H770 0.916 1_565 S
C776 C777 1.392 1_455 S
C776 C784 1.368 1_565 S
C777 C776 1.392 1_655 S
C777 C785 1.433 . S
C778 H774 0.929 . S
C778 C780 1.378 1_565 S
C778 C782 1.350 1_665 S
C779 C782 1.463 1_664 S
C779 C784 1.350 1_665 S
C779 N787 1.427 . S
C780 H771 0.930 1_545 S
C780 C778 1.378 1_545 S
C780 C781 1.367 1_655 S
C781 C780 1.367 1_455 S
C781 C783 1.433 . S
C782 C778 1.350 1_445 S
C782 C779 1.463 1_446 S
C782 N786 1.427 . S
C783 H773 0.929 . S
C783 C781 1.433 . S
C783 N786 1.384 . S
C784 H775 0.929 . S
C784 C776 1.368 1_545 S
C784 C779 1.350 1_445 S
C785 H772 0.929 . S
C785 C777 1.433 . S
C785 N787 1.384 . S
N786 C782 1.427 . S
N786 C783 1.384 . S
N787 C779 1.427 . S
N787 C785 1.384 . S
H788 C794 0.930 . S
H789 C798 0.930 . S
H790 C803 0.929 . S
H791 C801 0.929 . S
H792 C796 0.929 . S
H793 C802 0.929 1_565 S
C794 H788 0.930 . S
C794 C795 1.367 . S
C794 C802 1.378 . S
C795 C794 1.367 . S
C795 C803 1.433 1_655 S
C796 H792 0.929 . S
C796 C798 1.378 . S
C796 C800 1.350 . S
C797 C800 1.463 1_645 S
C797 C802 1.350 . S
C797 N805 1.427 1_655 S
C798 H789 0.930 . S
C798 C796 1.378 . S
C798 C799 1.367 . S
C799 C798 1.367 . S
C799 C801 1.433 1_455 S
C800 C796 1.350 . S
C800 C797 1.463 1_465 S
C800 N804 1.427 1_455 S
C801 H791 0.929 . S
C801 C799 1.433 1_655 S
C801 N804 1.384 . S
C802 H793 0.929 1_545 S
C802 C794 1.378 . S
C802 C797 1.350 . S
C803 H790 0.929 . S
C803 C795 1.433 1_455 S
C803 N805 1.384 . S
N804 C800 1.427 1_655 S
N804 C801 1.384 . S
N805 C797 1.427 1_455 S
N805 C803 1.384 . S
H806 C812 0.930 . S
H807 C816 0.930 . S
H808 C821 0.929 . S
H809 C819 0.929 . S
H810 C814 0.929 . S
H811 C820 0.929 . S
C812 H806 0.930 . S
C812 C813 1.367 . S
C812 C820 1.378 . S
C813 C812 1.367 . S
C813 C821 1.433 . S
C814 H810 0.929 . S
C814 C816 1.378 . S
C814 C818 1.350 . S
C815 C818 1.463 1_554 S
C815 C820 1.350 . S
C815 N823 1.427 . S
C816 H807 0.930 . S
C816 C814 1.378 . S
C816 C817 1.367 . S
C817 C816 1.367 . S
C817 C819 1.433 . S
C818 C814 1.350 . S
C818 C815 1.463 1_556 S
C818 N822 1.427 . S
C819 H809 0.929 . S
C819 C817 1.433 . S
C819 N822 1.384 . S
C820 H811 0.929 . S
C820 C812 1.378 . S
C820 C815 1.350 . S
C821 H808 0.929 . S
C821 C813 1.433 . S
C821 N823 1.384 . S
N822 C818 1.427 . S
N822 C819 1.384 . S
N823 C815 1.427 . S
N823 C821 1.384 . S
C255 C20 1.118 . S
C259 C1 1.123 . S
C273 C33 1.643 . S
C277 C60 1.647 . S
C291 C82 1.113 . S
C295 C63 1.102 . S
C309 C122 1.640 . S
C313 C95 1.647 . S
C327 C126 1.649 . S
C331 C153 1.641 . S
C345 C184 1.637 . S
C349 C157 1.644 . S
C363 C188 1.641 . S
C367 C215 1.635 . S
C381 C219 1.641 . S
C385 C246 1.645 . S
C399 C103 1.401 . S
C403 C0 1.378 . S
C417 C61 1.392 . S
C421 C81 1.376 . S
C435 C134 1.296 . S
C439 C247 1.285 . S
C453 C165 1.283 . S
C457 C196 1.278 . S
C471 C92 1.100 . S
C475 C2 1.036 . S
C489 C93 1.059 . S
C493 C51 0.961 . S
C507 C91 1.056 . S
C511 C10 1.106 . S
C525 C94 0.964 . S
C529 C50 1.058 . S
C543 C186 1.013 . S
C547 C125 0.952 . S
C561 C156 0.945 . S
C565 C236 1.040 . S
C579 C187 0.938 . S
C583 C124 1.011 . S
C597 C237 0.947 . S
C601 C155 1.038 . S
C615 C206 1.873 1_545 S
C619 C19 1.906 . S
C633 C41 1.739 . S
C637 C218 1.790 . S
C651 C144 1.877 . S
C655 C62 1.907 . S
C669 C175 1.790 1_545 S
C673 C123 1.740 . S
C687 C154 1.949 . S
C691 C64 1.993 1_565 S
C705 C113 1.799 . S
C709 C185 1.739 . S
C723 C29 1.992 . S
C727 C216 1.952 . S
C741 C227 1.747 . S
C745 C32 1.792 1_565 S
C759 C143 1.104 . S
C763 C30 1.097 . S
C777 C174 1.143 . S
C781 C31 1.143 . S
C795 C72 1.082 . S
C799 C205 1.078 . S
C813 C112 1.133 . S
C817 C217 1.133 . S
