# Generated by pormake.
# Topology gme, (4)-cn, num edge types: 1
# Building blocks:
#     Node 0, Type 0, BuildingBlock: GALJAG_clean_sbu_0, # of connection points: 4
#     Node 1, Type 0, BuildingBlock: GALJAG_clean_sbu_0, # of connection points: 4
#     Node 2, Type 0, BuildingBlock: GALJAG_clean_sbu_0, # of connection points: 4
#     Node 3, Type 0, BuildingBlock: GALJAG_clean_sbu_0, # of connection points: 4
#     Node 4, Type 0, BuildingBlock: GALJAG_clean_sbu_0, # of connection points: 4
#     Node 5, Type 0, BuildingBlock: GALJAG_clean_sbu_0, # of connection points: 4
#     Node 6, Type 0, BuildingBlock: GALJAG_clean_sbu_0, # of connection points: 4
#     Node 7, Type 0, BuildingBlock: GALJAG_clean_sbu_0, # of connection points: 4
#     Node 8, Type 0, BuildingBlock: GALJAG_clean_sbu_0, # of connection points: 4
#     Node 9, Type 0, BuildingBlock: GALJAG_clean_sbu_0, # of connection points: 4
#     Node 10, Type 0, BuildingBlock: GALJAG_clean_sbu_0, # of connection points: 4
#     Node 11, Type 0, BuildingBlock: GALJAG_clean_sbu_0, # of connection points: 4
#     Node 12, Type 0, BuildingBlock: GALJAG_clean_sbu_0, # of connection points: 4
#     Node 13, Type 0, BuildingBlock: GALJAG_clean_sbu_0, # of connection points: 4
#     Node 14, Type 0, BuildingBlock: GALJAG_clean_sbu_0, # of connection points: 4
#     Node 15, Type 0, BuildingBlock: GALJAG_clean_sbu_0, # of connection points: 4
#     Node 16, Type 0, BuildingBlock: GALJAG_clean_sbu_0, # of connection points: 4
#     Node 17, Type 0, BuildingBlock: GALJAG_clean_sbu_0, # of connection points: 4
#     Node 18, Type 0, BuildingBlock: GALJAG_clean_sbu_0, # of connection points: 4
#     Node 19, Type 0, BuildingBlock: GALJAG_clean_sbu_0, # of connection points: 4
#     Node 20, Type 0, BuildingBlock: GALJAG_clean_sbu_0, # of connection points: 4
#     Node 21, Type 0, BuildingBlock: GALJAG_clean_sbu_0, # of connection points: 4
#     Node 22, Type 0, BuildingBlock: GALJAG_clean_sbu_0, # of connection points: 4
#     Node 23, Type 0, BuildingBlock: GALJAG_clean_sbu_0, # of connection points: 4
#     Edge 24, Type (0, 0), BuildingBlock: OJICUG_clean_linker_0, # of connection points: 2
#     Edge 25, Type (0, 0), BuildingBlock: OJICUG_clean_linker_0, # of connection points: 2
#     Edge 26, Type (0, 0), BuildingBlock: OJICUG_clean_linker_0, # of connection points: 2
#     Edge 27, Type (0, 0), BuildingBlock: OJICUG_clean_linker_0, # of connection points: 2
#     Edge 28, Type (0, 0), BuildingBlock: OJICUG_clean_linker_0, # of connection points: 2
#     Edge 29, Type (0, 0), BuildingBlock: OJICUG_clean_linker_0, # of connection points: 2
#     Edge 30, Type (0, 0), BuildingBlock: OJICUG_clean_linker_0, # of connection points: 2
#     Edge 31, Type (0, 0), BuildingBlock: OJICUG_clean_linker_0, # of connection points: 2
#     Edge 32, Type (0, 0), BuildingBlock: OJICUG_clean_linker_0, # of connection points: 2
#     Edge 33, Type (0, 0), BuildingBlock: OJICUG_clean_linker_0, # of connection points: 2
#     Edge 34, Type (0, 0), BuildingBlock: OJICUG_clean_linker_0, # of connection points: 2
#     Edge 35, Type (0, 0), BuildingBlock: OJICUG_clean_linker_0, # of connection points: 2
#     Edge 36, Type (0, 0), BuildingBlock: OJICUG_clean_linker_0, # of connection points: 2
#     Edge 37, Type (0, 0), BuildingBlock: OJICUG_clean_linker_0, # of connection points: 2
#     Edge 38, Type (0, 0), BuildingBlock: OJICUG_clean_linker_0, # of connection points: 2
#     Edge 39, Type (0, 0), BuildingBlock: OJICUG_clean_linker_0, # of connection points: 2
#     Edge 40, Type (0, 0), BuildingBlock: OJICUG_clean_linker_0, # of connection points: 2
#     Edge 41, Type (0, 0), BuildingBlock: OJICUG_clean_linker_0, # of connection points: 2
#     Edge 42, Type (0, 0), BuildingBlock: OJICUG_clean_linker_0, # of connection points: 2
#     Edge 43, Type (0, 0), BuildingBlock: OJICUG_clean_linker_0, # of connection points: 2
#     Edge 44, Type (0, 0), BuildingBlock: OJICUG_clean_linker_0, # of connection points: 2
#     Edge 45, Type (0, 0), BuildingBlock: OJICUG_clean_linker_0, # of connection points: 2
#     Edge 46, Type (0, 0), BuildingBlock: OJICUG_clean_linker_0, # of connection points: 2
#     Edge 47, Type (0, 0), BuildingBlock: OJICUG_clean_linker_0, # of connection points: 2
#     Edge 48, Type (0, 0), BuildingBlock: OJICUG_clean_linker_0, # of connection points: 2
#     Edge 49, Type (0, 0), BuildingBlock: OJICUG_clean_linker_0, # of connection points: 2
#     Edge 50, Type (0, 0), BuildingBlock: OJICUG_clean_linker_0, # of connection points: 2
#     Edge 51, Type (0, 0), BuildingBlock: OJICUG_clean_linker_0, # of connection points: 2
#     Edge 52, Type (0, 0), BuildingBlock: OJICUG_clean_linker_0, # of connection points: 2
#     Edge 53, Type (0, 0), BuildingBlock: OJICUG_clean_linker_0, # of connection points: 2
#     Edge 54, Type (0, 0), BuildingBlock: OJICUG_clean_linker_0, # of connection points: 2
#     Edge 55, Type (0, 0), BuildingBlock: OJICUG_clean_linker_0, # of connection points: 2
#     Edge 56, Type (0, 0), BuildingBlock: OJICUG_clean_linker_0, # of connection points: 2
#     Edge 57, Type (0, 0), BuildingBlock: OJICUG_clean_linker_0, # of connection points: 2
#     Edge 58, Type (0, 0), BuildingBlock: OJICUG_clean_linker_0, # of connection points: 2
#     Edge 59, Type (0, 0), BuildingBlock: OJICUG_clean_linker_0, # of connection points: 2
#     Edge 60, Type (0, 0), BuildingBlock: OJICUG_clean_linker_0, # of connection points: 2
#     Edge 61, Type (0, 0), BuildingBlock: OJICUG_clean_linker_0, # of connection points: 2
#     Edge 62, Type (0, 0), BuildingBlock: OJICUG_clean_linker_0, # of connection points: 2
#     Edge 63, Type (0, 0), BuildingBlock: OJICUG_clean_linker_0, # of connection points: 2
#     Edge 64, Type (0, 0), BuildingBlock: OJICUG_clean_linker_0, # of connection points: 2
#     Edge 65, Type (0, 0), BuildingBlock: OJICUG_clean_linker_0, # of connection points: 2
#     Edge 66, Type (0, 0), BuildingBlock: OJICUG_clean_linker_0, # of connection points: 2
#     Edge 67, Type (0, 0), BuildingBlock: OJICUG_clean_linker_0, # of connection points: 2
#     Edge 68, Type (0, 0), BuildingBlock: OJICUG_clean_linker_0, # of connection points: 2
#     Edge 69, Type (0, 0), BuildingBlock: OJICUG_clean_linker_0, # of connection points: 2
#     Edge 70, Type (0, 0), BuildingBlock: OJICUG_clean_linker_0, # of connection points: 2
#     Edge 71, Type (0, 0), BuildingBlock: OJICUG_clean_linker_0, # of connection points: 2
# Relax obj value: 0.080
# Max RMSD: 0.062
# Mean RMSD: 0.062
data_MOF--net-gme--node1-GALJAG_clean_sbu_0--edge1-OJICUG_clean_linker_0
_symmetry_space_group_name_H-M    P1
_symmetry_Int_Tables_number       1
_symmetry_cell_setting            triclinic
loop_
_symmetry_equiv_pos_as_xyz
'x, y, z'
_cell_length_a     42.501096
_cell_length_b     42.532845
_cell_length_c     40.648973
_cell_angle_alpha  90.040902
_cell_angle_beta   90.013951
_cell_angle_gamma 119.97809
loop_
_atom_site_label
_atom_site_type_symbol
_atom_site_fract_x
_atom_site_fract_y
_atom_site_fract_z
_atom_type_partial_charge
In0 In 0.40215 0.06802 0.12585 0.0
O1 O 0.37496 0.02183 0.16367 0.0
O2 O 0.37445 0.07056 0.17285 0.0
C3 C 0.38179 0.03645 0.06589 0.0
C4 C 0.40407 0.1318 0.11999 0.0
C5 C 0.46667 0.07276 0.13806 0.0
O6 O 0.35869 0.0313 0.08784 0.0
O7 O 0.41425 0.05696 0.07434 0.0
O8 O 0.46415 0.09946 0.12783 0.0
O9 O 0.43671 0.04408 0.14259 0.0
C10 C 0.36656 0.03958 0.18309 0.0
O11 O 0.43039 0.12933 0.13146 0.0
O12 O 0.37699 0.10209 0.11111 0.0
In13 In 0.32696 0.39815 0.61532 0.0
O14 O 0.29324 0.42587 0.61369 0.0
O15 O 0.26548 0.3689 0.62213 0.0
C16 C 0.38831 0.46071 0.60252 0.0
C17 C 0.33603 0.38585 0.67901 0.0
C18 C 0.32538 0.36108 0.56082 0.0
O19 O 0.35759 0.45856 0.6041 0.0
O20 O 0.38793 0.4311 0.60688 0.0
O21 O 0.33685 0.35661 0.5881 0.0
O22 O 0.3137 0.38305 0.56156 0.0
C23 C 0.26336 0.39728 0.61871 0.0
O24 O 0.31582 0.36009 0.65996 0.0
O25 O 0.35142 0.41665 0.66575 0.0
In26 In 0.91661 0.32887 0.11351 0.0
O27 O 0.9452 0.3216 0.15917 0.0
O28 O 0.91207 0.34555 0.16494 0.0
C29 C 0.95257 0.32676 0.05976 0.0
C30 C 0.85467 0.26456 0.11299 0.0
C31 C 0.92107 0.39311 0.10148 0.0
O32 O 0.96767 0.33565 0.08771 0.0
O33 O 0.91962 0.31826 0.05947 0.0
O34 O 0.89136 0.36342 0.10043 0.0
O35 O 0.94861 0.39026 0.10798 0.0
C36 C 0.93218 0.33551 0.17851 0.0
O37 O 0.85533 0.29432 0.1091 0.0
O38 O 0.88533 0.26722 0.1173 0.0
In39 In 0.59502 0.9307 0.62236 0.0
O40 O 0.56228 0.8687 0.62114 0.0
O41 O 0.61999 0.89458 0.62033 0.0
C42 C 0.52912 0.92552 0.62072 0.0
C43 C 0.6266 0.96057 0.68096 0.0
C44 C 0.62829 0.96418 0.56598 0.0
O45 O 0.55508 0.94654 0.60234 0.0
O46 O 0.53618 0.9066 0.64006 0.0
O47 O 0.60583 0.93072 0.5678 0.0
O48 O 0.6348 0.98108 0.59297 0.0
C49 C 0.5901 0.86519 0.62023 0.0
O50 O 0.60402 0.96724 0.66722 0.0
O51 O 0.63455 0.94055 0.66438 0.0
In52 In 0.66176 0.58814 0.11686 0.0
O53 O 0.67109 0.62505 0.16226 0.0
O54 O 0.64126 0.56789 0.16805 0.0
C55 C 0.66161 0.62579 0.06335 0.0
C56 C 0.72653 0.59119 0.11679 0.0
C57 C 0.59986 0.52546 0.10518 0.0
O58 O 0.65117 0.63009 0.09126 0.0
O59 O 0.67308 0.60363 0.06294 0.0
O60 O 0.63028 0.52715 0.10791 0.0
O61 O 0.6008 0.55553 0.1079 0.0
C62 C 0.65414 0.59849 0.18155 0.0
O63 O 0.69723 0.56286 0.10947 0.0
O64 O 0.72327 0.61827 0.12413 0.0
In65 In 0.08068 0.66507 0.61688 0.0
O66 O 0.05207 0.67076 0.66336 0.0
O67 O 0.08926 0.65145 0.66831 0.0
C68 C 0.04431 0.66754 0.56341 0.0
C69 C 0.14204 0.7298 0.61629 0.0
C70 C 0.07527 0.60045 0.60459 0.0
O71 O 0.02957 0.65899 0.59152 0.0
O72 O 0.07715 0.67563 0.56282 0.0
O73 O 0.1051 0.62996 0.60304 0.0
O74 O 0.04812 0.60364 0.61196 0.0
C75 C 0.06809 0.65977 0.68248 0.0
O76 O 0.14177 0.70045 0.61078 0.0
O77 O 0.11128 0.72647 0.62185 0.0
In78 In 0.92619 0.59374 0.3889 0.0
O79 O 0.95265 0.63004 0.34296 0.0
O80 O 0.9251 0.57277 0.33773 0.0
C81 C 0.96422 0.63182 0.44231 0.0
C82 C 0.86347 0.59483 0.38878 0.0
C83 C 0.9263 0.53164 0.40091 0.0
O84 O 0.97895 0.63575 0.41445 0.0
O85 O 0.93052 0.61006 0.44263 0.0
O86 O 0.89765 0.53367 0.40126 0.0
O87 O 0.95508 0.56118 0.39498 0.0
C88 C 0.9425 0.60317 0.32387 0.0
O89 O 0.86532 0.56688 0.39559 0.0
O90 O 0.89351 0.62266 0.38206 0.0
In91 In 0.33662 0.93569 0.8788 0.0
O92 O 0.3059 0.87432 0.88324 0.0
O93 O 0.27609 0.90194 0.88972 0.0
C94 C 0.39526 0.92939 0.86541 0.0
C95 C 0.32886 0.96087 0.81993 0.0
C96 C 0.34925 0.97054 0.93733 0.0
O97 O 0.36574 0.903 0.8755 0.0
O98 O 0.39488 0.95865 0.86157 0.0
O99 O 0.32709 0.9707 0.91679 0.0
O100 O 0.36471 0.95345 0.92818 0.0
C101 C 0.27556 0.87198 0.88875 0.0
O102 O 0.35372 0.98064 0.83984 0.0
O103 O 0.30744 0.9294 0.8303 0.0
In104 In 0.40175 0.32898 0.3818 0.0
O105 O 0.4316 0.29705 0.37637 0.0
O106 O 0.37426 0.26761 0.38268 0.0
C107 C 0.46437 0.39052 0.39414 0.0
C108 C 0.38292 0.33546 0.31932 0.0
C109 C 0.36575 0.32676 0.43723 0.0
O110 O 0.46302 0.36045 0.38955 0.0
O111 O 0.43408 0.38932 0.39278 0.0
O112 O 0.35857 0.33568 0.40978 0.0
O113 O 0.39031 0.31845 0.43634 0.0
C114 C 0.40314 0.26648 0.379 0.0
O115 O 0.41276 0.35743 0.33238 0.0
O116 O 0.36146 0.31019 0.33805 0.0
In117 In 0.06643 0.40069 0.8836 0.0
O118 O 0.12797 0.42865 0.88356 0.0
O119 O 0.09862 0.37124 0.87813 0.0
C120 C 0.06897 0.46383 0.89699 0.0
C121 C 0.04445 0.38729 0.81999 0.0
C122 C 0.03039 0.36349 0.93785 0.0
O123 O 0.09713 0.46096 0.8956 0.0
O124 O 0.03945 0.43467 0.892 0.0
O125 O 0.01478 0.35913 0.9104 0.0
O126 O 0.06403 0.38556 0.93748 0.0
C127 C 0.12918 0.39982 0.87997 0.0
O128 O 0.0403 0.36211 0.83911 0.0
O129 O 0.05869 0.41813 0.83317 0.0
In130 In 0.66048 0.0633 0.38138 0.0
O131 O 0.69035 0.1252 0.38006 0.0
O132 O 0.72157 0.09879 0.3841 0.0
C133 C 0.59896 0.06688 0.38193 0.0
C134 C 0.66225 0.03426 0.32225 0.0
C135 C 0.66078 0.0327 0.43944 0.0
O136 O 0.6282 0.09178 0.36972 0.0
O137 O 0.60095 0.04048 0.39372 0.0
O138 O 0.65458 0.0157 0.41254 0.0
O139 O 0.66707 0.0648 0.4368 0.0
C140 C 0.72147 0.12834 0.38224 0.0
O141 O 0.63311 0.02824 0.33569 0.0
O142 O 0.69013 0.05331 0.33929 0.0
In143 In 0.5823 0.66437 0.88892 0.0
O144 O 0.61763 0.67113 0.84287 0.0
O145 O 0.56071 0.64866 0.83741 0.0
C146 C 0.61993 0.66492 0.94261 0.0
C147 C 0.58569 0.72919 0.89016 0.0
C148 C 0.52204 0.60034 0.90041 0.0
O149 O 0.62633 0.6568 0.91439 0.0
O150 O 0.59559 0.67358 0.94322 0.0
O151 O 0.52232 0.63018 0.90155 0.0
O152 O 0.55235 0.60295 0.89406 0.0
C153 C 0.5906 0.65806 0.82361 0.0
O154 O 0.55642 0.69962 0.89413 0.0
O155 O 0.61342 0.72611 0.88556 0.0
In156 In 0.59326 0.9309 0.87809 0.0
O157 O 0.62149 0.97645 0.83978 0.0
O158 O 0.61722 0.92557 0.82988 0.0
C159 C 0.61429 0.96346 0.93759 0.0
C160 C 0.5908 0.8671 0.88638 0.0
C161 C 0.52925 0.92687 0.8649 0.0
O162 O 0.63721 0.96701 0.91605 0.0
O163 O 0.58174 0.94406 0.92896 0.0
O164 O 0.53142 0.8996 0.87393 0.0
O165 O 0.55935 0.95581 0.86197 0.0
C166 C 0.62716 0.95712 0.81982 0.0
O167 O 0.56303 0.86935 0.87939 0.0
O168 O 0.61985 0.89715 0.88957 0.0
In169 In 0.66159 0.58878 0.38771 0.0
O170 O 0.67065 0.62559 0.34231 0.0
O171 O 0.64187 0.56839 0.33641 0.0
C172 C 0.66115 0.62587 0.44161 0.0
C173 C 0.72643 0.59202 0.38803 0.0
C174 C 0.59943 0.52612 0.3984 0.0
O175 O 0.6511 0.63071 0.4137 0.0
O176 O 0.67233 0.60349 0.44182 0.0
O177 O 0.62993 0.52784 0.39656 0.0
O178 O 0.60042 0.55619 0.39542 0.0
C179 C 0.65425 0.59892 0.32295 0.0
O180 O 0.69714 0.56367 0.39527 0.0
O181 O 0.72312 0.61905 0.38061 0.0
In182 In 0.08286 0.6681 0.89019 0.0
O183 O 0.14368 0.70396 0.89725 0.0
O184 O 0.11289 0.72978 0.88675 0.0
C185 C 0.0774 0.60314 0.90075 0.0
C186 C 0.07041 0.66287 0.82457 0.0
C187 C 0.04609 0.66914 0.94386 0.0
O188 O 0.10727 0.63258 0.90262 0.0
O189 O 0.05024 0.60659 0.89413 0.0
O190 O 0.03181 0.66218 0.9155 0.0
O191 O 0.07863 0.67625 0.94463 0.0
C192 C 0.14368 0.73331 0.8926 0.0
O193 O 0.0535 0.67278 0.84375 0.0
O194 O 0.09275 0.6561 0.83862 0.0
In195 In 0.39924 0.06589 0.38037 0.0
O196 O 0.4301 0.12759 0.37405 0.0
O197 O 0.37398 0.10127 0.38665 0.0
C198 C 0.46389 0.06852 0.38167 0.0
C199 C 0.36739 0.0357 0.32179 0.0
C200 C 0.36979 0.03631 0.43908 0.0
O201 O 0.46044 0.09438 0.37048 0.0
O202 O 0.43491 0.04179 0.39214 0.0
O203 O 0.35764 0.01924 0.41237 0.0
O204 O 0.39625 0.06803 0.43596 0.0
C205 C 0.4026 0.13066 0.38023 0.0
O206 O 0.39132 0.03064 0.33483 0.0
O207 O 0.35826 0.0544 0.33899 0.0
In208 In 0.3281 0.40025 0.88326 0.0
O209 O 0.2947 0.42839 0.88362 0.0
O210 O 0.26655 0.37106 0.87731 0.0
C211 C 0.38935 0.4627 0.89693 0.0
C212 C 0.3368 0.38708 0.8197 0.0
C213 C 0.32614 0.36294 0.93761 0.0
O214 O 0.35864 0.46055 0.89522 0.0
O215 O 0.38904 0.43319 0.89211 0.0
O216 O 0.33788 0.35868 0.91039 0.0
O217 O 0.31444 0.3849 0.93691 0.0
C218 C 0.26465 0.39966 0.87961 0.0
O219 O 0.31642 0.36168 0.83893 0.0
O220 O 0.35263 0.41804 0.83273 0.0
In221 In 0.91679 0.33005 0.3848 0.0
O222 O 0.94525 0.32239 0.3393 0.0
O223 O 0.91382 0.34818 0.33352 0.0
C224 C 0.9521 0.32653 0.43853 0.0
C225 C 0.85448 0.26613 0.3834 0.0
C226 C 0.92121 0.39398 0.39837 0.0
O227 O 0.9676 0.33646 0.41084 0.0
O228 O 0.91904 0.31762 0.43856 0.0
O229 O 0.89151 0.36426 0.39896 0.0
O230 O 0.94875 0.39132 0.39136 0.0
C231 C 0.93316 0.33717 0.31996 0.0
O232 O 0.85526 0.29586 0.38798 0.0
O233 O 0.88515 0.26869 0.37954 0.0
In234 In 0.06511 0.39831 0.61541 0.0
O235 O 0.12656 0.42597 0.61397 0.0
O236 O 0.09727 0.36892 0.62188 0.0
C237 C 0.06723 0.46137 0.60291 0.0
C238 C 0.04383 0.38591 0.67918 0.0
C239 C 0.02912 0.36134 0.56094 0.0
O240 O 0.09551 0.45868 0.60411 0.0
O241 O 0.03778 0.43202 0.60749 0.0
O242 O 0.01346 0.3567 0.5884 0.0
O243 O 0.06273 0.38346 0.56146 0.0
C244 C 0.12781 0.39732 0.61871 0.0
O245 O 0.03888 0.36028 0.66023 0.0
O246 O 0.05853 0.41662 0.66578 0.0
In247 In 0.65947 0.06398 0.12474 0.0
O248 O 0.64149 0.01869 0.16341 0.0
O249 O 0.68863 0.06927 0.17304 0.0
C250 C 0.64715 0.02989 0.06589 0.0
C251 C 0.72112 0.12741 0.11615 0.0
C252 C 0.60084 0.07051 0.13751 0.0
O253 O 0.66799 0.02814 0.08698 0.0
O254 O 0.63284 0.04819 0.07466 0.0
O255 O 0.63025 0.09664 0.1269 0.0
O256 O 0.60133 0.04141 0.14216 0.0
C257 C 0.66666 0.03791 0.1833 0.0
O258 O 0.69124 0.12549 0.12305 0.0
O259 O 0.71982 0.09721 0.11311 0.0
In260 In 0.58097 0.66214 0.6166 0.0
O261 O 0.61666 0.66956 0.66251 0.0
O262 O 0.55955 0.64528 0.66804 0.0
C263 C 0.61924 0.66382 0.56294 0.0
C264 C 0.58372 0.72663 0.61697 0.0
C265 C 0.5209 0.59839 0.60388 0.0
O266 O 0.62489 0.65455 0.59092 0.0
O267 O 0.59541 0.67317 0.56257 0.0
O268 O 0.52118 0.62823 0.60323 0.0
O269 O 0.55108 0.60083 0.61057 0.0
C270 C 0.58971 0.65576 0.68181 0.0
O271 O 0.55465 0.69714 0.61192 0.0
O272 O 0.61144 0.72357 0.62164 0.0
In273 In 0.92632 0.59295 0.11709 0.0
O274 O 0.86539 0.56587 0.1104 0.0
O275 O 0.89352 0.62178 0.12357 0.0
C276 C 0.92618 0.53085 0.10411 0.0
C277 C 0.94263 0.60262 0.18216 0.0
C278 C 0.96491 0.63169 0.06427 0.0
O279 O 0.89759 0.53298 0.10407 0.0
O280 O 0.955 0.56024 0.11038 0.0
O281 O 0.97941 0.63488 0.09215 0.0
O282 O 0.93114 0.6103 0.06363 0.0
C283 C 0.8635 0.59387 0.11695 0.0
O284 O 0.95236 0.62937 0.16307 0.0
O285 O 0.92566 0.57216 0.16829 0.0
In286 In 0.33436 0.93417 0.62211 0.0
O287 O 0.36183 0.97079 0.66697 0.0
O288 O 0.30456 0.94343 0.66435 0.0
C289 C 0.33496 0.96832 0.56597 0.0
C290 C 0.27376 0.86872 0.61946 0.0
C291 C 0.39435 0.92765 0.62075 0.0
O292 O 0.32292 0.93468 0.56773 0.0
O293 O 0.34623 0.98513 0.59292 0.0
O294 O 0.38983 0.94872 0.60205 0.0
O295 O 0.36837 0.90947 0.6403 0.0
C296 C 0.33252 0.96368 0.68086 0.0
O297 O 0.3051 0.87226 0.61994 0.0
O298 O 0.2732 0.89808 0.62024 0.0
In299 In 0.40104 0.32898 0.11649 0.0
O300 O 0.4103 0.35871 0.1651 0.0
O301 O 0.36148 0.3086 0.16082 0.0
C302 C 0.36545 0.3274 0.06102 0.0
C303 C 0.40271 0.26661 0.11824 0.0
C304 C 0.46439 0.39012 0.10516 0.0
O305 O 0.35751 0.33526 0.08864 0.0
O306 O 0.39058 0.31989 0.06178 0.0
O307 O 0.4626 0.35996 0.11045 0.0
O308 O 0.43419 0.38915 0.10515 0.0
C309 C 0.38168 0.33529 0.17887 0.0
O310 O 0.43068 0.29711 0.12314 0.0
O311 O 0.37402 0.26766 0.11289 0.0
C312 C 0.36841 0.00697 0.2684 0.0
C313 C 0.35708 0.0275 0.28683 0.0
H314 H 0.37921 0.99381 0.22037 0.0
C315 C 0.34158 0.04554 0.2704 0.0
H316 H 0.38026 0.99263 0.28047 0.0
C317 C 0.34148 0.04664 0.23607 0.0
C318 C 0.35618 0.02912 0.21766 0.0
H319 H 0.33246 0.06146 0.28394 0.0
H320 H 0.3323 0.06334 0.22401 0.0
C321 C 0.36766 0.00751 0.234 0.0
C322 C 0.31329 0.3516 0.73229 0.0
C323 C 0.33946 0.38189 0.71471 0.0
H324 H 0.29189 0.32927 0.78 0.0
C325 C 0.36726 0.41112 0.73206 0.0
H326 H 0.29156 0.32872 0.71946 0.0
C327 C 0.36745 0.41143 0.76628 0.0
C328 C 0.33984 0.38253 0.78403 0.0
H329 H 0.38807 0.43465 0.71919 0.0
H330 H 0.38839 0.4352 0.77883 0.0
C331 C 0.31348 0.35193 0.76685 0.0
C332 C 0.95004 0.31846 0.23206 0.0
C333 C 0.93803 0.33899 0.21449 0.0
H334 H 0.95807 0.30168 0.27984 0.0
C335 C 0.92845 0.36145 0.23193 0.0
H336 H 0.95761 0.30093 0.21917 0.0
C337 C 0.92876 0.36193 0.26612 0.0
C338 C 0.93863 0.33992 0.28393 0.0
H339 H 0.91954 0.37798 0.21914 0.0
H340 H 0.92006 0.37878 0.27863 0.0
C341 C 0.95031 0.3189 0.26668 0.0
C342 C 0.65149 0.95009 0.73259 0.0
C343 C 0.63662 0.96864 0.716 0.0
H344 H 0.6602 0.93203 0.77907 0.0
C345 C 0.62574 0.98962 0.7343 0.0
H346 H 0.66028 0.93383 0.71917 0.0
C347 C 0.62642 0.98915 0.76873 0.0
C348 C 0.63736 0.96716 0.78518 0.0
H349 H 0.61433 0.00431 0.72213 0.0
H350 H 0.61526 0.00326 0.7823 0.0
C351 C 0.65148 0.94904 0.7669 0.0
C352 C 0.67417 0.63383 0.26951 0.0
C353 C 0.65114 0.60191 0.28698 0.0
H354 H 0.69326 0.65804 0.22184 0.0
C355 C 0.62668 0.57074 0.2694 0.0
H356 H 0.69331 0.65824 0.28249 0.0
C357 C 0.62665 0.57063 0.23518 0.0
C358 C 0.65109 0.60167 0.21751 0.0
H359 H 0.60827 0.54583 0.2821 0.0
H360 H 0.60822 0.54563 0.22256 0.0
C361 C 0.67415 0.63371 0.23489 0.0
C362 C 0.04726 0.67382 0.73614 0.0
C363 C 0.06455 0.65802 0.71879 0.0
H364 H 0.03533 0.68782 0.7837 0.0
C365 C 0.08109 0.64191 0.73663 0.0
H366 H 0.03429 0.68643 0.723 0.0
C367 C 0.08176 0.64279 0.77082 0.0
C368 C 0.06586 0.65973 0.78836 0.0
H369 H 0.09438 0.6292 0.72415 0.0
H370 H 0.0955 0.63067 0.78352 0.0
C371 C 0.04787 0.67463 0.77078 0.0
C372 C 0.95768 0.63769 0.23562 0.0
C373 C 0.94805 0.60548 0.21826 0.0
H374 H 0.96366 0.6625 0.28317 0.0
C375 C 0.94042 0.57416 0.23601 0.0
H376 H 0.96369 0.66224 0.22253 0.0
C377 C 0.9404 0.5743 0.27024 0.0
C378 C 0.94802 0.60577 0.28779 0.0
H379 H 0.93328 0.54898 0.22344 0.0
H380 H 0.93325 0.54923 0.28297 0.0
C381 C 0.95767 0.63784 0.27024 0.0
C382 C 0.29631 0.9519 0.76693 0.0
C383 C 0.32856 0.97045 0.78516 0.0
H384 H 0.2722 0.93628 0.71926 0.0
C385 C 0.36137 0.99261 0.76862 0.0
H386 H 0.27065 0.93474 0.77916 0.0
C387 C 0.36244 0.99294 0.73418 0.0
C388 C 0.33058 0.97164 0.71595 0.0
H389 H 0.38665 0.00705 0.78215 0.0
H390 H 0.38848 0.00785 0.72196 0.0
C391 C 0.29725 0.95281 0.73261 0.0
C392 C 0.35065 0.30637 0.26654 0.0
C393 C 0.3764 0.33721 0.28384 0.0
H394 H 0.33189 0.2815 0.21915 0.0
C395 C 0.39963 0.36882 0.26624 0.0
H396 H 0.33242 0.28163 0.27954 0.0
C397 C 0.39925 0.3688 0.23196 0.0
C398 C 0.37572 0.33711 0.21448 0.0
H399 H 0.4195 0.39312 0.27892 0.0
H400 H 0.41886 0.3931 0.21915 0.0
C401 C 0.35035 0.3063 0.23201 0.0
C402 C 0.0376 0.41099 0.73227 0.0
C403 C 0.03661 0.38197 0.71493 0.0
H404 H 0.0402 0.43496 0.77903 0.0
C405 C 0.03306 0.35193 0.73255 0.0
H406 H 0.0399 0.43435 0.71938 0.0
C407 C 0.03324 0.35229 0.76712 0.0
C408 C 0.03697 0.3827 0.78429 0.0
H409 H 0.03227 0.32921 0.71974 0.0
H410 H 0.03258 0.32983 0.78027 0.0
C411 C 0.03777 0.41135 0.7665 0.0
C412 C 0.69779 0.04509 0.27068 0.0
C413 C 0.66434 0.02647 0.28717 0.0
H414 H 0.72468 0.0632 0.22426 0.0
C415 C 0.63252 0.00553 0.26879 0.0
H416 H 0.7228 0.06135 0.28418 0.0
C417 C 0.63375 0.00604 0.23437 0.0
C418 C 0.66672 0.02802 0.218 0.0
H419 H 0.60639 0.99078 0.2809 0.0
H420 H 0.60852 0.99189 0.22074 0.0
C421 C 0.69891 0.04618 0.23637 0.0
C422 C 0.55995 0.633 0.73587 0.0
C423 C 0.59216 0.65342 0.71799 0.0
H424 H 0.53452 0.61826 0.78286 0.0
C425 C 0.62511 0.67315 0.73524 0.0
H426 H 0.53414 0.61717 0.7234 0.0
C427 C 0.62534 0.67375 0.76988 0.0
C428 C 0.5926 0.65469 0.78751 0.0
H429 H 0.65035 0.68914 0.72205 0.0
H430 H 0.65075 0.69018 0.78274 0.0
C431 C 0.56017 0.63364 0.77007 0.0
C432 C 0.43545 0.19913 0.12739 0.0
C433 C 0.40422 0.1665 0.11858 0.0
H434 H 0.45949 0.25656 0.13412 0.0
C435 C 0.3727 0.16712 0.10938 0.0
H436 H 0.46013 0.19941 0.13462 0.0
C437 C 0.37226 0.19971 0.10934 0.0
C438 C 0.4034 0.23231 0.1183 0.0
H439 H 0.3482 0.14237 0.10254 0.0
H440 H 0.34749 0.19933 0.10228 0.0
C441 C 0.43508 0.23179 0.12714 0.0
C442 C 0.19539 0.4297 0.61564 0.0
C443 C 0.16239 0.39716 0.61975 0.0
H444 H 0.25319 0.45519 0.61216 0.0
C445 C 0.1628 0.36463 0.62427 0.0
H446 H 0.1959 0.4552 0.61216 0.0
C447 C 0.19568 0.36463 0.62428 0.0
C448 C 0.22864 0.39715 0.61976 0.0
H449 H 0.13773 0.33916 0.62753 0.0
H450 H 0.19527 0.33915 0.62755 0.0
C451 C 0.22819 0.42969 0.61564 0.0
C452 C 0.82124 0.19673 0.11253 0.0
C453 C 0.82057 0.22941 0.1127 0.0
H454 H 0.7901 0.13865 0.11305 0.0
C455 C 0.78697 0.22827 0.11286 0.0
H456 H 0.84679 0.19685 0.11227 0.0
C457 C 0.75461 0.19504 0.11353 0.0
C458 C 0.75526 0.16236 0.11369 0.0
H459 H 0.78567 0.25306 0.11297 0.0
H460 H 0.72909 0.19497 0.11415 0.0
C461 C 0.78884 0.16346 0.11284 0.0
C462 C 0.55315 0.76386 0.61537 0.0
C463 C 0.58517 0.76198 0.61757 0.0
H464 H 0.52956 0.79815 0.61467 0.0
C465 C 0.61866 0.79419 0.62057 0.0
H466 H 0.52694 0.73941 0.6131 0.0
C467 C 0.62016 0.8277 0.62131 0.0
C468 C 0.58817 0.82963 0.61926 0.0
H469 H 0.64378 0.79356 0.6223 0.0
H470 H 0.64641 0.8521 0.62363 0.0
C471 C 0.55463 0.79743 0.61632 0.0
C472 C 0.76333 0.56102 0.10866 0.0
C473 C 0.76176 0.59229 0.11675 0.0
H474 H 0.79676 0.53708 0.10239 0.0
C475 C 0.79398 0.62432 0.12485 0.0
H476 H 0.73894 0.53594 0.10231 0.0
C477 C 0.82722 0.62499 0.12487 0.0
C478 C 0.8287 0.59363 0.11683 0.0
H479 H 0.79352 0.64883 0.13119 0.0
H480 H 0.85168 0.64999 0.13123 0.0
C481 C 0.79646 0.56168 0.10871 0.0
C482 C 0.20623 0.83095 0.62096 0.0
C483 C 0.2402 0.83311 0.61828 0.0
H484 H 0.14851 0.7965 0.62251 0.0
C485 C 0.24171 0.80107 0.61463 0.0
H486 H 0.20425 0.85523 0.62382 0.0
C487 C 0.20974 0.76742 0.61369 0.0
C488 C 0.17578 0.76528 0.61661 0.0
H489 H 0.26756 0.80197 0.61247 0.0
H490 H 0.21164 0.74309 0.61091 0.0
C491 C 0.17432 0.79734 0.62023 0.0
C492 C 0.82718 0.6259 0.38042 0.0
C493 C 0.82867 0.5946 0.38866 0.0
H494 H 0.79346 0.64966 0.37372 0.0
C495 C 0.79641 0.56267 0.39674 0.0
H496 H 0.85166 0.65088 0.37407 0.0
C497 C 0.76327 0.56198 0.39655 0.0
C498 C 0.76169 0.59319 0.38826 0.0
H499 H 0.79671 0.53811 0.4032 0.0
H500 H 0.73887 0.53691 0.40287 0.0
C501 C 0.79392 0.6252 0.38021 0.0
C502 C 0.21127 0.77094 0.89483 0.0
C503 C 0.1773 0.76892 0.89326 0.0
H504 H 0.26905 0.80524 0.89458 0.0
C505 C 0.17583 0.80114 0.89163 0.0
H506 H 0.21321 0.74653 0.89613 0.0
C507 C 0.20781 0.8348 0.89108 0.0
C508 C 0.24178 0.83674 0.8918 0.0
H509 H 0.14998 0.80036 0.89052 0.0
H510 H 0.20593 0.85922 0.88936 0.0
C511 C 0.24322 0.80453 0.89394 0.0
C512 C 0.37101 0.16643 0.38492 0.0
C513 C 0.40326 0.16565 0.37966 0.0
H514 H 0.34574 0.19887 0.38864 0.0
C515 C 0.43565 0.19834 0.37378 0.0
H516 H 0.3456 0.14165 0.38945 0.0
C517 C 0.43574 0.23128 0.37339 0.0
C518 C 0.40341 0.23195 0.37872 0.0
H519 H 0.4609 0.19849 0.36961 0.0
H520 H 0.46107 0.25617 0.36897 0.0
C521 C 0.37106 0.19921 0.38439 0.0
C522 C 0.22965 0.43233 0.8815 0.0
C523 C 0.22996 0.39959 0.87857 0.0
H524 H 0.19745 0.45801 0.88418 0.0
C525 C 0.19689 0.3669 0.8753 0.0
H526 H 0.25474 0.45795 0.88401 0.0
C527 C 0.16403 0.36694 0.87542 0.0
C528 C 0.16375 0.39966 0.87878 0.0
H529 H 0.19637 0.34127 0.87297 0.0
H530 H 0.13888 0.34133 0.87316 0.0
C531 C 0.19685 0.43236 0.8816 0.0
C532 C 0.75436 0.19621 0.3836 0.0
C533 C 0.75532 0.16371 0.38242 0.0
H534 H 0.78518 0.2543 0.385 0.0
C535 C 0.78905 0.16516 0.3814 0.0
H536 H 0.7287 0.19585 0.38441 0.0
C537 C 0.82127 0.1985 0.38152 0.0
C538 C 0.82036 0.231 0.38291 0.0
H539 H 0.79061 0.14052 0.38041 0.0
H540 H 0.84688 0.19877 0.38073 0.0
C541 C 0.78664 0.2296 0.38397 0.0
C542 C 0.55489 0.76607 0.89016 0.0
C543 C 0.58715 0.76455 0.8904 0.0
H544 H 0.53081 0.79981 0.8886 0.0
C545 C 0.62067 0.79705 0.89041 0.0
H546 H 0.52866 0.74143 0.89015 0.0
C547 C 0.6219 0.83049 0.88988 0.0
C548 C 0.58962 0.83196 0.88895 0.0
H549 H 0.64596 0.79664 0.8907 0.0
H550 H 0.64811 0.85515 0.88957 0.0
C551 C 0.55612 0.79947 0.88926 0.0
C552 C 0.39087 -0.00032 0.98442 0.0
C553 C 0.3571 0.9886 0.96965 0.0
H554 H 0.42507 0.02379 0.02621 0.0
C555 C 0.33102 0.99338 0.98669 0.0
H556 H 0.41146 0.99631 0.9718 0.0
C557 C 0.33852 0.00838 0.01844 0.0
C558 C 0.37251 0.0196 0.03301 0.0
H559 H 0.30466 0.98477 0.97582 0.0
H560 H 0.31802 0.01159 0.03139 0.0
C561 C 0.39865 0.01539 0.01556 0.0
C562 C 0.3278 0.34546 0.46967 0.0
C563 C 0.34992 0.32967 0.46862 0.0
H564 H 0.30229 0.36747 0.49993 0.0
C565 C 0.35984 0.31992 0.49828 0.0
H566 H 0.31962 0.35311 0.44721 0.0
C567 C 0.34986 0.32803 0.52848 0.0
C568 C 0.32988 0.34613 0.52953 0.0
H569 H 0.3767 0.30746 0.49822 0.0
H570 H 0.35938 0.32181 0.55093 0.0
C571 C 0.3179 0.35367 0.49987 0.0
C572 C 0.02937 0.35626 0.99893 0.0
C573 C 0.0105 0.34808 0.96885 0.0
H574 H 0.02574 0.35556 0.05155 0.0
C575 C 0.9724 0.3286 0.96911 0.0
H576 H 0.05879 0.37112 0.99948 0.0
C577 C 0.95354 0.31976 0.9989 0.0
C578 C 0.97244 0.33016 0.02897 0.0
H579 H 0.95714 0.3218 0.94633 0.0
H580 H 0.92416 0.30623 0.9983 0.0
C581 C 0.01049 0.34733 0.02876 0.0
C582 C 0.66633 0.03675 0.50062 0.0
C583 C 0.65766 0.01573 0.47179 0.0
H584 H 0.6643 0.03688 0.55328 0.0
C585 C 0.64315 0.9781 0.47441 0.0
H586 H 0.67777 0.0659 0.49932 0.0
C587 C 0.63531 0.96151 0.50528 0.0
C588 C 0.64211 0.98232 0.53405 0.0
H589 H 0.63634 0.96126 0.4526 0.0
H590 H 0.62266 0.93223 0.50655 0.0
C591 C 0.65875 0.0202 0.53151 0.0
C592 C 0.66731 0.63415 0.00231 0.0
C593 C 0.65655 0.64151 0.03274 0.0
H594 H 0.66448 0.63616 0.94975 0.0
C595 C 0.63751 0.66058 0.03317 0.0
H596 H 0.68217 0.61961 1.0012 0.0
C597 C 0.62736 0.66998 0.0037 0.0
C598 C 0.63614 0.66059 0.97325 0.0
H599 H 0.62893 0.66671 0.05622 0.0
H600 H 0.61127 0.68324 0.00482 0.0
C601 C 0.65725 0.64366 0.97282 0.0
C602 C 0.04248 0.67382 0.5024 0.0
C603 C 0.02412 0.66432 0.53276 0.0
H604 H 0.03791 0.67139 0.44984 0.0
C605 C 0.98617 0.64833 0.53301 0.0
H606 H 0.07178 0.68639 0.50141 0.0
C607 C 0.96678 0.63975 0.50342 0.0
C608 C 0.98501 0.64708 0.47304 0.0
H609 H 0.9713 0.6408 0.55599 0.0
H610 H 0.93739 0.62583 0.50438 0.0
C611 C 0.02311 0.66532 0.47282 0.0
C612 C 0.59868 0.98734 0.98672 0.0
C613 C 0.62386 0.98082 0.97023 0.0
H614 H 0.58665 0.00823 0.02971 0.0
C615 C 0.65697 0.98998 0.98564 0.0
H616 H 0.57296 0.98056 0.9754 0.0
C617 C 0.66447 0.0051 0.01734 0.0
C618 C 0.63933 0.01205 0.03348 0.0
H619 H 0.67668 0.98495 0.97342 0.0
H620 H 0.69009 0.01199 0.02892 0.0
C621 C 0.60651 0.00317 0.01781 0.0
C622 C 0.66653 0.63344 0.50274 0.0
C623 C 0.65603 0.64131 0.47241 0.0
H624 H 0.66345 0.63476 0.55532 0.0
C625 C 0.63723 0.66062 0.47226 0.0
H626 H 0.68121 0.61871 0.50365 0.0
C627 C 0.62705 0.66976 0.50188 0.0
C628 C 0.63555 0.65984 0.5322 0.0
H629 H 0.62885 0.66714 0.44931 0.0
H630 H 0.61112 0.68321 0.50097 0.0
C631 C 0.65643 0.64266 0.53237 0.0
C632 C 0.96812 0.64094 0.00332 0.0
C633 C 0.98603 0.64736 0.03381 0.0
H634 H 0.97314 0.64313 0.95077 0.0
C635 C 0.02411 0.66509 0.03436 0.0
H636 H 0.93876 0.62742 0.00212 0.0
C637 C 0.04373 0.67398 0.00496 0.0
C638 C 0.02568 0.66542 0.97444 0.0
H639 H 0.03866 0.67046 0.05745 0.0
H640 H 0.07299 0.68615 0.00617 0.0
C641 C 0.98778 0.64994 0.97389 0.0
C642 C 0.36174 0.02432 0.53135 0.0
C643 C 0.33928 0.9866 0.53411 0.0
H644 H 0.38904 0.0697 0.49887 0.0
C645 C 0.32385 0.96589 0.50552 0.0
H646 H 0.374 0.04093 0.55297 0.0
C647 C 0.33229 0.98233 0.47458 0.0
C648 C 0.35654 0.01972 0.47169 0.0
H649 H 0.30625 0.93673 0.50696 0.0
H650 H 0.32108 0.96551 0.4529 0.0
C651 C 0.37043 0.04073 0.50038 0.0
C652 C 0.35996 0.32112 0.99996 0.0
C653 C 0.34979 0.33057 0.02965 0.0
H654 H 0.35996 0.32353 0.94735 0.0
C655 C 0.32768 0.34637 0.02865 0.0
H656 H 0.3768 0.30864 0.99999 0.0
C657 C 0.31808 0.35492 0.99847 0.0
C658 C 0.33033 0.34769 0.96881 0.0
H659 H 0.31933 0.35381 0.05114 0.0
H660 H 0.30249 0.36875 0.99844 0.0
C661 C 0.35025 0.32954 0.9698 0.0
C662 C 0.97123 0.32701 0.52927 0.0
C663 C 0.00933 0.34628 0.52979 0.0
H664 H 0.92319 0.30529 0.49975 0.0
C665 C 0.02838 0.35473 0.49981 0.0
H666 H 0.95583 0.32002 0.55196 0.0
C667 C 0.00971 0.3463 0.46986 0.0
C668 C 0.97167 0.32934 0.46941 0.0
H669 H 0.0578 0.36943 0.49945 0.0
H670 H 0.02513 0.35474 0.44719 0.0
C671 C 0.95257 0.31864 0.49935 0.0
C672 C 0.50257 0.04271 0.15185 0.0
C673 C 0.50175 0.07385 0.1417 0.0
H674 H 0.53469 0.01737 0.15871 0.0
C675 C 0.53439 0.10501 0.13286 0.0
H676 H 0.47785 0.01833 0.15894 0.0
C677 C 0.56701 0.10445 0.13273 0.0
C678 C 0.56749 0.07273 0.14144 0.0
H679 H 0.53457 0.12943 0.12501 0.0
H680 H 0.5916 0.12846 0.12478 0.0
C681 C 0.53512 0.04215 0.15172 0.0
C682 C 0.48826 0.53064 0.60163 0.0
C683 C 0.4873 0.56313 0.59975 0.0
H684 H 0.45757 0.47263 0.60366 0.0
C685 C 0.45368 0.56154 0.59604 0.0
H686 H 0.51381 0.53105 0.60437 0.0
C687 C 0.42148 0.5281 0.59569 0.0
C688 C 0.42235 0.49567 0.59896 0.0
H689 H 0.45213 0.58615 0.59445 0.0
H690 H 0.39586 0.52772 0.59383 0.0
C691 C 0.45607 0.4972 0.60118 0.0
C692 C 0.95631 0.46094 0.10212 0.0
C693 C 0.923 0.4286 0.09834 0.0
H694 H 0.98347 0.51881 0.10673 0.0
C695 C 0.89117 0.43042 0.09389 0.0
H696 H 0.98129 0.46036 0.10553 0.0
C697 C 0.89242 0.46385 0.09461 0.0
C698 C 0.92551 0.49607 0.09977 0.0
H699 H 0.86512 0.40593 0.09084 0.0
H700 H 0.86729 0.46433 0.09205 0.0
C701 C 0.95756 0.49439 0.10282 0.0
C702 C 0.45518 0.94587 0.59706 0.0
C703 C 0.42794 0.92544 0.62014 0.0
H704 H 0.50831 0.9617 0.57911 0.0
C705 C 0.43363 0.90386 0.64286 0.0
H706 H 0.45156 0.96264 0.57915 0.0
C707 C 0.46631 0.90331 0.64283 0.0
C708 C 0.49378 0.92433 0.62009 0.0
H709 H 0.41308 0.88783 0.66093 0.0
H710 H 0.47026 0.88688 0.66089 0.0
C711 C 0.48772 0.94532 0.59704 0.0
C712 C 0.53238 0.49036 0.09894 0.0
C713 C 0.56549 0.49073 0.10176 0.0
H714 H 0.47441 0.45815 0.09751 0.0
C715 C 0.56522 0.45759 0.10335 0.0
H716 H 0.53175 0.51548 0.09757 0.0
C717 C 0.53234 0.42472 0.10342 0.0
C718 C 0.49919 0.42443 0.10179 0.0
H719 H 0.59035 0.45705 0.10551 0.0
H720 H 0.53289 0.39961 0.10559 0.0
C721 C 0.49954 0.45752 0.09889 0.0
C722 C 0.10231 0.52867 0.59559 0.0
C723 C 0.06877 0.49664 0.59954 0.0
H724 H 0.13062 0.58673 0.59385 0.0
C725 C 0.03705 0.49891 0.6026 0.0
H726 H 0.1272 0.52773 0.59309 0.0
C727 C 0.03902 0.53269 0.60314 0.0
C728 C 0.07274 0.56478 0.60053 0.0
H729 H 0.01081 0.47466 0.60562 0.0
H730 H 0.01424 0.53368 0.6065 0.0
C731 C 0.10427 0.56244 0.59603 0.0
C732 C 0.89262 0.46442 0.40875 0.0
C733 C 0.9257 0.4968 0.40415 0.0
H734 H 0.86532 0.40641 0.41075 0.0
C735 C 0.95773 0.49524 0.40032 0.0
H736 H 0.86751 0.46481 0.41187 0.0
C737 C 0.95647 0.46178 0.39965 0.0
C738 C 0.92316 0.42933 0.40283 0.0
H739 H 0.98362 0.51978 0.3968 0.0
H740 H 0.98144 0.46133 0.39566 0.0
C741 C 0.89137 0.43099 0.40811 0.0
C742 C 0.46142 0.89448 0.86864 0.0
C743 C 0.49429 0.92597 0.86099 0.0
H744 H 0.40406 0.8708 0.87588 0.0
C745 C 0.49376 0.95757 0.85195 0.0
H746 H 0.46102 0.8697 0.87562 0.0
C747 C 0.46124 0.95819 0.85207 0.0
C748 C 0.42862 0.92723 0.86127 0.0
H749 H 0.51866 0.98222 0.84578 0.0
H750 H 0.46187 0.9833 0.846 0.0
C751 C 0.42884 0.89511 0.86879 0.0
C752 C 0.53214 0.42535 0.39859 0.0
C753 C 0.49888 0.42491 0.39852 0.0
H754 H 0.59017 0.45784 0.39891 0.0
C755 C 0.49896 0.45791 0.40085 0.0
H756 H 0.5329 0.40031 0.39691 0.0
C757 C 0.53171 0.49081 0.40195 0.0
C758 C 0.56498 0.49133 0.40082 0.0
H759 H 0.47373 0.45842 0.40095 0.0
H760 H 0.53093 0.51587 0.40283 0.0
C761 C 0.56491 0.45827 0.39979 0.0
C762 C 0.1043 0.53094 0.90593 0.0
C763 C 0.07069 0.49909 0.90148 0.0
H764 H 0.13274 0.58892 0.90946 0.0
C765 C 0.039 0.50155 0.89932 0.0
H766 H 0.12916 0.52985 0.90777 0.0
C767 C 0.04106 0.53537 0.90022 0.0
C768 C 0.07482 0.56732 0.90339 0.0
H769 H 0.01271 0.47745 0.89596 0.0
H770 H 0.01629 0.53651 0.89755 0.0
C771 C 0.10634 0.56475 0.90692 0.0
C772 C 0.56329 0.09788 0.36922 0.0
C773 C 0.56478 0.06801 0.38215 0.0
H774 H 0.53007 0.12158 0.35898 0.0
C775 C 0.53307 0.03875 0.39521 0.0
H776 H 0.58734 0.12083 0.35903 0.0
C777 C 0.50047 0.03917 0.39516 0.0
C778 C 0.49882 0.06887 0.3821 0.0
H779 H 0.53335 0.01534 0.40535 0.0
H780 H 0.47648 0.01606 0.40527 0.0
C781 C 0.53056 0.09832 0.36922 0.0
C782 C 0.4546 0.5633 0.90645 0.0
C783 C 0.48831 0.56498 0.90334 0.0
H784 H 0.39672 0.52948 0.90698 0.0
C785 C 0.48929 0.53254 0.90072 0.0
H786 H 0.45302 0.58787 0.90857 0.0
C787 C 0.45708 0.49912 0.89986 0.0
C788 C 0.42331 0.49755 0.90153 0.0
H789 H 0.51491 0.533 0.89838 0.0
H790 H 0.45864 0.47463 0.89688 0.0
C791 C 0.42237 0.52988 0.90552 0.0
loop_
_geom_bond_atom_site_label_1
_geom_bond_atom_site_label_2
_geom_bond_distance
_geom_bond_site_symmetry_2
_ccdc_geom_bond_type
In0 O1 2.294 . S
In0 O2 2.326 . S
In0 O6 2.266 . S
In0 O7 2.326 . S
In0 O8 2.266 . S
In0 O9 2.326 . S
In0 O11 2.294 . S
In0 O12 2.326 . S
O1 In0 2.294 . S
O1 C10 1.240 . S
O2 In0 2.326 . S
O2 C10 1.252 . S
C3 O6 1.252 . S
C3 O7 1.260 . S
C4 O11 1.240 . S
C4 O12 1.252 . S
C5 O8 1.252 . S
C5 O9 1.260 . S
O6 In0 2.266 . S
O6 C3 1.252 . S
O7 In0 2.326 . S
O7 C3 1.260 . S
O8 In0 2.266 . S
O8 C5 1.252 . S
O9 In0 2.326 . S
O9 C5 1.260 . S
C10 O1 1.240 . S
C10 O2 1.252 . S
O11 In0 2.294 . S
O11 C4 1.240 . S
O12 In0 2.326 . S
O12 C4 1.252 . S
In13 O14 2.294 . S
In13 O15 2.326 . S
In13 O19 2.266 . S
In13 O20 2.326 . S
In13 O21 2.266 . S
In13 O22 2.326 . S
In13 O24 2.294 . S
In13 O25 2.326 . S
O14 In13 2.294 . S
O14 C23 1.240 . S
O15 In13 2.326 . S
O15 C23 1.252 . S
C16 O19 1.252 . S
C16 O20 1.260 . S
C17 O24 1.240 . S
C17 O25 1.252 . S
C18 O21 1.252 . S
C18 O22 1.260 . S
O19 In13 2.266 . S
O19 C16 1.252 . S
O20 In13 2.326 . S
O20 C16 1.260 . S
O21 In13 2.266 . S
O21 C18 1.252 . S
O22 In13 2.326 . S
O22 C18 1.260 . S
C23 O14 1.240 . S
C23 O15 1.252 . S
O24 In13 2.294 . S
O24 C17 1.240 . S
O25 In13 2.326 . S
O25 C17 1.252 . S
In26 O27 2.294 . S
In26 O28 2.326 . S
In26 O32 2.266 . S
In26 O33 2.326 . S
In26 O34 2.266 . S
In26 O35 2.326 . S
In26 O37 2.294 . S
In26 O38 2.326 . S
O27 In26 2.294 . S
O27 C36 1.240 . S
O28 In26 2.326 . S
O28 C36 1.252 . S
C29 O32 1.252 . S
C29 O33 1.260 . S
C30 O37 1.240 . S
C30 O38 1.252 . S
C31 O34 1.252 . S
C31 O35 1.260 . S
O32 In26 2.266 . S
O32 C29 1.252 . S
O33 In26 2.326 . S
O33 C29 1.260 . S
O34 In26 2.266 . S
O34 C31 1.252 . S
O35 In26 2.326 . S
O35 C31 1.260 . S
C36 O27 1.240 . S
C36 O28 1.252 . S
O37 In26 2.294 . S
O37 C30 1.240 . S
O38 In26 2.326 . S
O38 C30 1.252 . S
In39 O40 2.294 . S
In39 O41 2.326 . S
In39 O45 2.266 . S
In39 O46 2.326 . S
In39 O47 2.266 . S
In39 O48 2.326 . S
In39 O50 2.294 . S
In39 O51 2.326 . S
O40 In39 2.294 . S
O40 C49 1.240 . S
O41 In39 2.326 . S
O41 C49 1.252 . S
C42 O45 1.252 . S
C42 O46 1.260 . S
C43 O50 1.240 . S
C43 O51 1.252 . S
C44 O47 1.252 . S
C44 O48 1.260 . S
O45 In39 2.266 . S
O45 C42 1.252 . S
O46 In39 2.326 . S
O46 C42 1.260 . S
O47 In39 2.266 . S
O47 C44 1.252 . S
O48 In39 2.326 . S
O48 C44 1.260 . S
C49 O40 1.240 . S
C49 O41 1.252 . S
O50 In39 2.294 . S
O50 C43 1.240 . S
O51 In39 2.326 . S
O51 C43 1.252 . S
In52 O53 2.294 . S
In52 O54 2.326 . S
In52 O58 2.266 . S
In52 O59 2.326 . S
In52 O60 2.266 . S
In52 O61 2.326 . S
In52 O63 2.294 . S
In52 O64 2.326 . S
O53 In52 2.294 . S
O53 C62 1.240 . S
O54 In52 2.326 . S
O54 C62 1.252 . S
C55 O58 1.252 . S
C55 O59 1.260 . S
C56 O63 1.240 . S
C56 O64 1.252 . S
C57 O60 1.252 . S
C57 O61 1.260 . S
O58 In52 2.266 . S
O58 C55 1.252 . S
O59 In52 2.326 . S
O59 C55 1.260 . S
O60 In52 2.266 . S
O60 C57 1.252 . S
O61 In52 2.326 . S
O61 C57 1.260 . S
C62 O53 1.240 . S
C62 O54 1.252 . S
O63 In52 2.294 . S
O63 C56 1.240 . S
O64 In52 2.326 . S
O64 C56 1.252 . S
In65 O66 2.294 . S
In65 O67 2.326 . S
In65 O71 2.266 . S
In65 O72 2.326 . S
In65 O73 2.266 . S
In65 O74 2.326 . S
In65 O76 2.294 . S
In65 O77 2.326 . S
O66 In65 2.294 . S
O66 C75 1.240 . S
O67 In65 2.326 . S
O67 C75 1.252 . S
C68 O71 1.252 . S
C68 O72 1.260 . S
C69 O76 1.240 . S
C69 O77 1.252 . S
C70 O73 1.252 . S
C70 O74 1.260 . S
O71 In65 2.266 . S
O71 C68 1.252 . S
O72 In65 2.326 . S
O72 C68 1.260 . S
O73 In65 2.266 . S
O73 C70 1.252 . S
O74 In65 2.326 . S
O74 C70 1.260 . S
C75 O66 1.240 . S
C75 O67 1.252 . S
O76 In65 2.294 . S
O76 C69 1.240 . S
O77 In65 2.326 . S
O77 C69 1.252 . S
In78 O79 2.294 . S
In78 O80 2.326 . S
In78 O84 2.266 . S
In78 O85 2.326 . S
In78 O86 2.266 . S
In78 O87 2.326 . S
In78 O89 2.294 . S
In78 O90 2.326 . S
O79 In78 2.294 . S
O79 C88 1.240 . S
O80 In78 2.326 . S
O80 C88 1.252 . S
C81 O84 1.252 . S
C81 O85 1.260 . S
C82 O89 1.240 . S
C82 O90 1.252 . S
C83 O86 1.252 . S
C83 O87 1.260 . S
O84 In78 2.266 . S
O84 C81 1.252 . S
O85 In78 2.326 . S
O85 C81 1.260 . S
O86 In78 2.266 . S
O86 C83 1.252 . S
O87 In78 2.326 . S
O87 C83 1.260 . S
C88 O79 1.240 . S
C88 O80 1.252 . S
O89 In78 2.294 . S
O89 C82 1.240 . S
O90 In78 2.326 . S
O90 C82 1.252 . S
In91 O92 2.294 . S
In91 O93 2.326 . S
In91 O97 2.266 . S
In91 O98 2.326 . S
In91 O99 2.266 . S
In91 O100 2.326 . S
In91 O102 2.294 . S
In91 O103 2.326 . S
O92 In91 2.294 . S
O92 C101 1.240 . S
O93 In91 2.326 . S
O93 C101 1.252 . S
C94 O97 1.252 . S
C94 O98 1.260 . S
C95 O102 1.240 . S
C95 O103 1.252 . S
C96 O99 1.252 . S
C96 O100 1.260 . S
O97 In91 2.266 . S
O97 C94 1.252 . S
O98 In91 2.326 . S
O98 C94 1.260 . S
O99 In91 2.266 . S
O99 C96 1.252 . S
O100 In91 2.326 . S
O100 C96 1.260 . S
C101 O92 1.240 . S
C101 O93 1.252 . S
O102 In91 2.294 . S
O102 C95 1.240 . S
O103 In91 2.326 . S
O103 C95 1.252 . S
In104 O105 2.294 . S
In104 O106 2.326 . S
In104 O110 2.266 . S
In104 O111 2.326 . S
In104 O112 2.266 . S
In104 O113 2.326 . S
In104 O115 2.294 . S
In104 O116 2.326 . S
O105 In104 2.294 . S
O105 C114 1.240 . S
O106 In104 2.326 . S
O106 C114 1.252 . S
C107 O110 1.252 . S
C107 O111 1.260 . S
C108 O115 1.240 . S
C108 O116 1.252 . S
C109 O112 1.252 . S
C109 O113 1.260 . S
O110 In104 2.266 . S
O110 C107 1.252 . S
O111 In104 2.326 . S
O111 C107 1.260 . S
O112 In104 2.266 . S
O112 C109 1.252 . S
O113 In104 2.326 . S
O113 C109 1.260 . S
C114 O105 1.240 . S
C114 O106 1.252 . S
O115 In104 2.294 . S
O115 C108 1.240 . S
O116 In104 2.326 . S
O116 C108 1.252 . S
In117 O118 2.294 . S
In117 O119 2.326 . S
In117 O123 2.266 . S
In117 O124 2.326 . S
In117 O125 2.266 . S
In117 O126 2.326 . S
In117 O128 2.294 . S
In117 O129 2.326 . S
O118 In117 2.294 . S
O118 C127 1.240 . S
O119 In117 2.326 . S
O119 C127 1.252 . S
C120 O123 1.252 . S
C120 O124 1.260 . S
C121 O128 1.240 . S
C121 O129 1.252 . S
C122 O125 1.252 . S
C122 O126 1.260 . S
O123 In117 2.266 . S
O123 C120 1.252 . S
O124 In117 2.326 . S
O124 C120 1.260 . S
O125 In117 2.266 . S
O125 C122 1.252 . S
O126 In117 2.326 . S
O126 C122 1.260 . S
C127 O118 1.240 . S
C127 O119 1.252 . S
O128 In117 2.294 . S
O128 C121 1.240 . S
O129 In117 2.326 . S
O129 C121 1.252 . S
In130 O131 2.294 . S
In130 O132 2.326 . S
In130 O136 2.266 . S
In130 O137 2.326 . S
In130 O138 2.266 . S
In130 O139 2.326 . S
In130 O141 2.294 . S
In130 O142 2.326 . S
O131 In130 2.294 . S
O131 C140 1.240 . S
O132 In130 2.326 . S
O132 C140 1.252 . S
C133 O136 1.252 . S
C133 O137 1.260 . S
C134 O141 1.240 . S
C134 O142 1.252 . S
C135 O138 1.252 . S
C135 O139 1.260 . S
O136 In130 2.266 . S
O136 C133 1.252 . S
O137 In130 2.326 . S
O137 C133 1.260 . S
O138 In130 2.266 . S
O138 C135 1.252 . S
O139 In130 2.326 . S
O139 C135 1.260 . S
C140 O131 1.240 . S
C140 O132 1.252 . S
O141 In130 2.294 . S
O141 C134 1.240 . S
O142 In130 2.326 . S
O142 C134 1.252 . S
In143 O144 2.294 . S
In143 O145 2.326 . S
In143 O149 2.266 . S
In143 O150 2.326 . S
In143 O151 2.266 . S
In143 O152 2.326 . S
In143 O154 2.294 . S
In143 O155 2.326 . S
O144 In143 2.294 . S
O144 C153 1.240 . S
O145 In143 2.326 . S
O145 C153 1.252 . S
C146 O149 1.252 . S
C146 O150 1.260 . S
C147 O154 1.240 . S
C147 O155 1.252 . S
C148 O151 1.252 . S
C148 O152 1.260 . S
O149 In143 2.266 . S
O149 C146 1.252 . S
O150 In143 2.326 . S
O150 C146 1.260 . S
O151 In143 2.266 . S
O151 C148 1.252 . S
O152 In143 2.326 . S
O152 C148 1.260 . S
C153 O144 1.240 . S
C153 O145 1.252 . S
O154 In143 2.294 . S
O154 C147 1.240 . S
O155 In143 2.326 . S
O155 C147 1.252 . S
In156 O157 2.294 . S
In156 O158 2.326 . S
In156 O162 2.266 . S
In156 O163 2.326 . S
In156 O164 2.266 . S
In156 O165 2.326 . S
In156 O167 2.294 . S
In156 O168 2.326 . S
O157 In156 2.294 . S
O157 C166 1.240 . S
O158 In156 2.326 . S
O158 C166 1.252 . S
C159 O162 1.252 . S
C159 O163 1.260 . S
C160 O167 1.240 . S
C160 O168 1.252 . S
C161 O164 1.252 . S
C161 O165 1.260 . S
O162 In156 2.266 . S
O162 C159 1.252 . S
O163 In156 2.326 . S
O163 C159 1.260 . S
O164 In156 2.266 . S
O164 C161 1.252 . S
O165 In156 2.326 . S
O165 C161 1.260 . S
C166 O157 1.240 . S
C166 O158 1.252 . S
O167 In156 2.294 . S
O167 C160 1.240 . S
O168 In156 2.326 . S
O168 C160 1.252 . S
In169 O170 2.294 . S
In169 O171 2.326 . S
In169 O175 2.266 . S
In169 O176 2.326 . S
In169 O177 2.266 . S
In169 O178 2.326 . S
In169 O180 2.294 . S
In169 O181 2.326 . S
O170 In169 2.294 . S
O170 C179 1.240 . S
O171 In169 2.326 . S
O171 C179 1.252 . S
C172 O175 1.252 . S
C172 O176 1.260 . S
C173 O180 1.240 . S
C173 O181 1.252 . S
C174 O177 1.252 . S
C174 O178 1.260 . S
O175 In169 2.266 . S
O175 C172 1.252 . S
O176 In169 2.326 . S
O176 C172 1.260 . S
O177 In169 2.266 . S
O177 C174 1.252 . S
O178 In169 2.326 . S
O178 C174 1.260 . S
C179 O170 1.240 . S
C179 O171 1.252 . S
O180 In169 2.294 . S
O180 C173 1.240 . S
O181 In169 2.326 . S
O181 C173 1.252 . S
In182 O183 2.294 . S
In182 O184 2.326 . S
In182 O188 2.266 . S
In182 O189 2.326 . S
In182 O190 2.266 . S
In182 O191 2.326 . S
In182 O193 2.294 . S
In182 O194 2.326 . S
O183 In182 2.294 . S
O183 C192 1.240 . S
O184 In182 2.326 . S
O184 C192 1.252 . S
C185 O188 1.252 . S
C185 O189 1.260 . S
C186 O193 1.240 . S
C186 O194 1.252 . S
C187 O190 1.252 . S
C187 O191 1.260 . S
O188 In182 2.266 . S
O188 C185 1.252 . S
O189 In182 2.326 . S
O189 C185 1.260 . S
O190 In182 2.266 . S
O190 C187 1.252 . S
O191 In182 2.326 . S
O191 C187 1.260 . S
C192 O183 1.240 . S
C192 O184 1.252 . S
O193 In182 2.294 . S
O193 C186 1.240 . S
O194 In182 2.326 . S
O194 C186 1.252 . S
In195 O196 2.294 . S
In195 O197 2.326 . S
In195 O201 2.266 . S
In195 O202 2.326 . S
In195 O203 2.266 . S
In195 O204 2.326 . S
In195 O206 2.294 . S
In195 O207 2.326 . S
O196 In195 2.294 . S
O196 C205 1.240 . S
O197 In195 2.326 . S
O197 C205 1.252 . S
C198 O201 1.252 . S
C198 O202 1.260 . S
C199 O206 1.240 . S
C199 O207 1.252 . S
C200 O203 1.252 . S
C200 O204 1.260 . S
O201 In195 2.266 . S
O201 C198 1.252 . S
O202 In195 2.326 . S
O202 C198 1.260 . S
O203 In195 2.266 . S
O203 C200 1.252 . S
O204 In195 2.326 . S
O204 C200 1.260 . S
C205 O196 1.240 . S
C205 O197 1.252 . S
O206 In195 2.294 . S
O206 C199 1.240 . S
O207 In195 2.326 . S
O207 C199 1.252 . S
In208 O209 2.294 . S
In208 O210 2.326 . S
In208 O214 2.266 . S
In208 O215 2.326 . S
In208 O216 2.266 . S
In208 O217 2.326 . S
In208 O219 2.294 . S
In208 O220 2.326 . S
O209 In208 2.294 . S
O209 C218 1.240 . S
O210 In208 2.326 . S
O210 C218 1.252 . S
C211 O214 1.252 . S
C211 O215 1.260 . S
C212 O219 1.240 . S
C212 O220 1.252 . S
C213 O216 1.252 . S
C213 O217 1.260 . S
O214 In208 2.266 . S
O214 C211 1.252 . S
O215 In208 2.326 . S
O215 C211 1.260 . S
O216 In208 2.266 . S
O216 C213 1.252 . S
O217 In208 2.326 . S
O217 C213 1.260 . S
C218 O209 1.240 . S
C218 O210 1.252 . S
O219 In208 2.294 . S
O219 C212 1.240 . S
O220 In208 2.326 . S
O220 C212 1.252 . S
In221 O222 2.294 . S
In221 O223 2.326 . S
In221 O227 2.266 . S
In221 O228 2.326 . S
In221 O229 2.266 . S
In221 O230 2.326 . S
In221 O232 2.294 . S
In221 O233 2.326 . S
O222 In221 2.294 . S
O222 C231 1.240 . S
O223 In221 2.326 . S
O223 C231 1.252 . S
C224 O227 1.252 . S
C224 O228 1.260 . S
C225 O232 1.240 . S
C225 O233 1.252 . S
C226 O229 1.252 . S
C226 O230 1.260 . S
O227 In221 2.266 . S
O227 C224 1.252 . S
O228 In221 2.326 . S
O228 C224 1.260 . S
O229 In221 2.266 . S
O229 C226 1.252 . S
O230 In221 2.326 . S
O230 C226 1.260 . S
C231 O222 1.240 . S
C231 O223 1.252 . S
O232 In221 2.294 . S
O232 C225 1.240 . S
O233 In221 2.326 . S
O233 C225 1.252 . S
In234 O235 2.294 . S
In234 O236 2.326 . S
In234 O240 2.266 . S
In234 O241 2.326 . S
In234 O242 2.266 . S
In234 O243 2.326 . S
In234 O245 2.294 . S
In234 O246 2.326 . S
O235 In234 2.294 . S
O235 C244 1.240 . S
O236 In234 2.326 . S
O236 C244 1.252 . S
C237 O240 1.252 . S
C237 O241 1.260 . S
C238 O245 1.240 . S
C238 O246 1.252 . S
C239 O242 1.252 . S
C239 O243 1.260 . S
O240 In234 2.266 . S
O240 C237 1.252 . S
O241 In234 2.326 . S
O241 C237 1.260 . S
O242 In234 2.266 . S
O242 C239 1.252 . S
O243 In234 2.326 . S
O243 C239 1.260 . S
C244 O235 1.240 . S
C244 O236 1.252 . S
O245 In234 2.294 . S
O245 C238 1.240 . S
O246 In234 2.326 . S
O246 C238 1.252 . S
In247 O248 2.294 . S
In247 O249 2.326 . S
In247 O253 2.266 . S
In247 O254 2.326 . S
In247 O255 2.266 . S
In247 O256 2.326 . S
In247 O258 2.294 . S
In247 O259 2.326 . S
O248 In247 2.294 . S
O248 C257 1.240 . S
O249 In247 2.326 . S
O249 C257 1.252 . S
C250 O253 1.252 . S
C250 O254 1.260 . S
C251 O258 1.240 . S
C251 O259 1.252 . S
C252 O255 1.252 . S
C252 O256 1.260 . S
O253 In247 2.266 . S
O253 C250 1.252 . S
O254 In247 2.326 . S
O254 C250 1.260 . S
O255 In247 2.266 . S
O255 C252 1.252 . S
O256 In247 2.326 . S
O256 C252 1.260 . S
C257 O248 1.240 . S
C257 O249 1.252 . S
O258 In247 2.294 . S
O258 C251 1.240 . S
O259 In247 2.326 . S
O259 C251 1.252 . S
In260 O261 2.294 . S
In260 O262 2.326 . S
In260 O266 2.266 . S
In260 O267 2.326 . S
In260 O268 2.266 . S
In260 O269 2.326 . S
In260 O271 2.294 . S
In260 O272 2.326 . S
O261 In260 2.294 . S
O261 C270 1.240 . S
O262 In260 2.326 . S
O262 C270 1.252 . S
C263 O266 1.252 . S
C263 O267 1.260 . S
C264 O271 1.240 . S
C264 O272 1.252 . S
C265 O268 1.252 . S
C265 O269 1.260 . S
O266 In260 2.266 . S
O266 C263 1.252 . S
O267 In260 2.326 . S
O267 C263 1.260 . S
O268 In260 2.266 . S
O268 C265 1.252 . S
O269 In260 2.326 . S
O269 C265 1.260 . S
C270 O261 1.240 . S
C270 O262 1.252 . S
O271 In260 2.294 . S
O271 C264 1.240 . S
O272 In260 2.326 . S
O272 C264 1.252 . S
In273 O274 2.294 . S
In273 O275 2.326 . S
In273 O279 2.266 . S
In273 O280 2.326 . S
In273 O281 2.266 . S
In273 O282 2.326 . S
In273 O284 2.294 . S
In273 O285 2.326 . S
O274 In273 2.294 . S
O274 C283 1.240 . S
O275 In273 2.326 . S
O275 C283 1.252 . S
C276 O279 1.252 . S
C276 O280 1.260 . S
C277 O284 1.240 . S
C277 O285 1.252 . S
C278 O281 1.252 . S
C278 O282 1.260 . S
O279 In273 2.266 . S
O279 C276 1.252 . S
O280 In273 2.326 . S
O280 C276 1.260 . S
O281 In273 2.266 . S
O281 C278 1.252 . S
O282 In273 2.326 . S
O282 C278 1.260 . S
C283 O274 1.240 . S
C283 O275 1.252 . S
O284 In273 2.294 . S
O284 C277 1.240 . S
O285 In273 2.326 . S
O285 C277 1.252 . S
In286 O287 2.294 . S
In286 O288 2.326 . S
In286 O292 2.266 . S
In286 O293 2.326 . S
In286 O294 2.266 . S
In286 O295 2.326 . S
In286 O297 2.294 . S
In286 O298 2.326 . S
O287 In286 2.294 . S
O287 C296 1.240 . S
O288 In286 2.326 . S
O288 C296 1.252 . S
C289 O292 1.252 . S
C289 O293 1.260 . S
C290 O297 1.240 . S
C290 O298 1.252 . S
C291 O294 1.252 . S
C291 O295 1.260 . S
O292 In286 2.266 . S
O292 C289 1.252 . S
O293 In286 2.326 . S
O293 C289 1.260 . S
O294 In286 2.266 . S
O294 C291 1.252 . S
O295 In286 2.326 . S
O295 C291 1.260 . S
C296 O287 1.240 . S
C296 O288 1.252 . S
O297 In286 2.294 . S
O297 C290 1.240 . S
O298 In286 2.326 . S
O298 C290 1.252 . S
In299 O300 2.294 . S
In299 O301 2.326 . S
In299 O305 2.266 . S
In299 O306 2.326 . S
In299 O307 2.266 . S
In299 O308 2.326 . S
In299 O310 2.294 . S
In299 O311 2.326 . S
O300 In299 2.294 . S
O300 C309 1.240 . S
O301 In299 2.326 . S
O301 C309 1.252 . S
C302 O305 1.252 . S
C302 O306 1.260 . S
C303 O310 1.240 . S
C303 O311 1.252 . S
C304 O307 1.252 . S
C304 O308 1.260 . S
O305 In299 2.266 . S
O305 C302 1.252 . S
O306 In299 2.326 . S
O306 C302 1.260 . S
O307 In299 2.266 . S
O307 C304 1.252 . S
O308 In299 2.326 . S
O308 C304 1.260 . S
C309 O300 1.240 . S
C309 O301 1.252 . S
O310 In299 2.294 . S
O310 C303 1.240 . S
O311 In299 2.326 . S
O311 C303 1.252 . S
C312 C313 1.387 . S
C312 H316 0.950 . S
C312 C321 1.390 . S
C313 C312 1.387 . S
C313 C315 1.387 . S
H314 C321 0.950 . S
C315 C313 1.387 . S
C315 C317 1.390 . S
C315 H319 0.950 . S
H316 C312 0.950 . S
C317 C315 1.390 . S
C317 C318 1.387 . S
C317 H320 0.950 . S
C318 C317 1.387 . S
C318 C321 1.387 . S
H319 C315 0.950 . S
H320 C317 0.950 . S
C321 C312 1.390 . S
C321 H314 0.950 . S
C321 C318 1.387 . S
C322 C323 1.387 . S
C322 H326 0.950 . S
C322 C331 1.390 . S
C323 C322 1.387 . S
C323 C325 1.387 . S
H324 C331 0.950 . S
C325 C323 1.387 . S
C325 C327 1.390 . S
C325 H329 0.950 . S
H326 C322 0.950 . S
C327 C325 1.390 . S
C327 C328 1.387 . S
C327 H330 0.950 . S
C328 C327 1.387 . S
C328 C331 1.387 . S
H329 C325 0.950 . S
H330 C327 0.950 . S
C331 C322 1.390 . S
C331 H324 0.950 . S
C331 C328 1.387 . S
C332 C333 1.387 . S
C332 H336 0.950 . S
C332 C341 1.390 . S
C333 C332 1.387 . S
C333 C335 1.387 . S
H334 C341 0.950 . S
C335 C333 1.387 . S
C335 C337 1.390 . S
C335 H339 0.950 . S
H336 C332 0.950 . S
C337 C335 1.390 . S
C337 C338 1.387 . S
C337 H340 0.950 . S
C338 C337 1.387 . S
C338 C341 1.387 . S
H339 C335 0.950 . S
H340 C337 0.950 . S
C341 C332 1.390 . S
C341 H334 0.950 . S
C341 C338 1.387 . S
C342 C343 1.387 . S
C342 H346 0.950 . S
C342 C351 1.390 . S
C343 C342 1.387 . S
C343 C345 1.387 . S
H344 C351 0.950 . S
C345 C343 1.387 . S
C345 C347 1.390 . S
C345 H349 0.965 . S
H346 C342 0.950 . S
C347 C345 1.390 . S
C347 C348 1.387 . S
C347 H350 0.960 . S
C348 C347 1.387 . S
C348 C351 1.387 . S
H349 C345 0.965 . S
H350 C347 0.960 . S
C351 C342 1.390 . S
C351 H344 0.950 . S
C351 C348 1.387 . S
C352 C353 1.387 . S
C352 H356 0.950 . S
C352 C361 1.390 . S
C353 C352 1.387 . S
C353 C355 1.387 . S
H354 C361 0.950 . S
C355 C353 1.387 . S
C355 C357 1.390 . S
C355 H359 0.950 . S
H356 C352 0.950 . S
C357 C355 1.390 . S
C357 C358 1.387 . S
C357 H360 0.950 . S
C358 C357 1.387 . S
C358 C361 1.387 . S
H359 C355 0.950 . S
H360 C357 0.950 . S
C361 C352 1.390 . S
C361 H354 0.950 . S
C361 C358 1.387 . S
C362 C363 1.387 . S
C362 H366 0.950 . S
C362 C371 1.390 . S
C363 C362 1.387 . S
C363 C365 1.387 . S
H364 C371 0.950 . S
C365 C363 1.387 . S
C365 C367 1.390 . S
C365 H369 0.950 . S
H366 C362 0.950 . S
C367 C365 1.390 . S
C367 C368 1.387 . S
C367 H370 0.950 . S
C368 C367 1.387 . S
C368 C371 1.387 . S
H369 C365 0.950 . S
H370 C367 0.950 . S
C371 C362 1.390 . S
C371 H364 0.950 . S
C371 C368 1.387 . S
C372 C373 1.387 . S
C372 H376 0.950 . S
C372 C381 1.390 . S
C373 C372 1.387 . S
C373 C375 1.387 . S
H374 C381 0.950 . S
C375 C373 1.387 . S
C375 C377 1.390 . S
C375 H379 0.950 . S
H376 C372 0.950 . S
C377 C375 1.390 . S
C377 C378 1.387 . S
C377 H380 0.950 . S
C378 C377 1.387 . S
C378 C381 1.387 . S
H379 C375 0.950 . S
H380 C377 0.950 . S
C381 C372 1.390 . S
C381 H374 0.950 . S
C381 C378 1.387 . S
C382 C383 1.387 . S
C382 H386 0.950 . S
C382 C391 1.390 . S
C383 C382 1.387 . S
C383 C385 1.387 . S
H384 C391 0.950 . S
C385 C383 1.387 . S
C385 C387 1.390 . S
C385 H389 0.950 . S
H386 C382 0.950 . S
C387 C385 1.390 . S
C387 C388 1.387 . S
C387 H390 0.950 . S
C388 C387 1.387 . S
C388 C391 1.387 . S
H389 C385 0.950 . S
H390 C387 0.950 . S
C391 C382 1.390 . S
C391 H384 0.950 . S
C391 C388 1.387 . S
C392 C393 1.387 . S
C392 H396 0.950 . S
C392 C401 1.390 . S
C393 C392 1.387 . S
C393 C395 1.387 . S
H394 C401 0.950 . S
C395 C393 1.387 . S
C395 C397 1.390 . S
C395 H399 0.950 . S
H396 C392 0.950 . S
C397 C395 1.390 . S
C397 C398 1.387 . S
C397 H400 0.950 . S
C398 C397 1.387 . S
C398 C401 1.387 . S
H399 C395 0.950 . S
H400 C397 0.950 . S
C401 C392 1.390 . S
C401 H394 0.950 . S
C401 C398 1.387 . S
C402 C403 1.387 . S
C402 H406 0.950 . S
C402 C411 1.390 . S
C403 C402 1.387 . S
C403 C405 1.387 . S
H404 C411 0.950 . S
C405 C403 1.387 . S
C405 C407 1.390 . S
C405 H409 0.950 . S
H406 C402 0.950 . S
C407 C405 1.390 . S
C407 C408 1.387 . S
C407 H410 0.950 . S
C408 C407 1.387 . S
C408 C411 1.387 . S
H409 C405 0.950 . S
H410 C407 0.950 . S
C411 C402 1.390 . S
C411 H404 0.950 . S
C411 C408 1.387 . S
C412 C413 1.387 . S
C412 H416 0.950 . S
C412 C421 1.390 . S
C413 C412 1.387 . S
C413 C415 1.387 . S
H414 C421 0.950 . S
C415 C413 1.387 . S
C415 C417 1.390 . S
C415 H419 0.945 1_545 S
H416 C412 0.950 . S
C417 C415 1.390 . S
C417 C418 1.387 . S
C417 H420 0.942 1_545 S
C418 C417 1.387 . S
C418 C421 1.387 . S
H419 C415 0.945 1_565 S
H420 C417 0.942 1_565 S
C421 C412 1.390 . S
C421 H414 0.950 . S
C421 C418 1.387 . S
C422 C423 1.387 . S
C422 H426 0.950 . S
C422 C431 1.390 . S
C423 C422 1.387 . S
C423 C425 1.387 . S
H424 C431 0.950 . S
C425 C423 1.387 . S
C425 C427 1.390 . S
C425 H429 0.950 . S
H426 C422 0.950 . S
C427 C425 1.390 . S
C427 C428 1.387 . S
C427 H430 0.950 . S
C428 C427 1.387 . S
C428 C431 1.387 . S
H429 C425 0.950 . S
H430 C427 0.950 . S
C431 C422 1.390 . S
C431 H424 0.950 . S
C431 C428 1.387 . S
C432 C433 1.387 . S
C432 H436 0.950 . S
C432 C441 1.390 . S
C433 C432 1.387 . S
C433 C435 1.387 . S
H434 C441 0.950 . S
C435 C433 1.387 . S
C435 C437 1.390 . S
C435 H439 0.950 . S
H436 C432 0.950 . S
C437 C435 1.390 . S
C437 C438 1.387 . S
C437 H440 0.950 . S
C438 C437 1.387 . S
C438 C441 1.387 . S
H439 C435 0.950 . S
H440 C437 0.950 . S
C441 C432 1.390 . S
C441 H434 0.950 . S
C441 C438 1.387 . S
C442 C443 1.387 . S
C442 H446 0.950 . S
C442 C451 1.390 . S
C443 C442 1.387 . S
C443 C445 1.387 . S
H444 C451 0.950 . S
C445 C443 1.387 . S
C445 C447 1.390 . S
C445 H449 0.950 . S
H446 C442 0.950 . S
C447 C445 1.390 . S
C447 C448 1.387 . S
C447 H450 0.950 . S
C448 C447 1.387 . S
C448 C451 1.387 . S
H449 C445 0.950 . S
H450 C447 0.950 . S
C451 C442 1.390 . S
C451 H444 0.950 . S
C451 C448 1.387 . S
C452 C453 1.387 . S
C452 H456 0.950 . S
C452 C461 1.390 . S
C453 C452 1.387 . S
C453 C455 1.387 . S
H454 C461 0.950 . S
C455 C453 1.387 . S
C455 C457 1.390 . S
C455 H459 0.950 . S
H456 C452 0.950 . S
C457 C455 1.390 . S
C457 C458 1.387 . S
C457 H460 0.950 . S
C458 C457 1.387 . S
C458 C461 1.387 . S
H459 C455 0.950 . S
H460 C457 0.950 . S
C461 C452 1.390 . S
C461 H454 0.950 . S
C461 C458 1.387 . S
C462 C463 1.387 . S
C462 H466 0.950 . S
C462 C471 1.390 . S
C463 C462 1.387 . S
C463 C465 1.387 . S
H464 C471 0.950 . S
C465 C463 1.387 . S
C465 C467 1.390 . S
C465 H469 0.950 . S
H466 C462 0.950 . S
C467 C465 1.390 . S
C467 C468 1.387 . S
C467 H470 0.950 . S
C468 C467 1.387 . S
C468 C471 1.387 . S
H469 C465 0.950 . S
H470 C467 0.950 . S
C471 C462 1.390 . S
C471 H464 0.950 . S
C471 C468 1.387 . S
C472 C473 1.387 . S
C472 H476 0.950 . S
C472 C481 1.390 . S
C473 C472 1.387 . S
C473 C475 1.387 . S
H474 C481 0.950 . S
C475 C473 1.387 . S
C475 C477 1.390 . S
C475 H479 0.950 . S
H476 C472 0.950 . S
C477 C475 1.390 . S
C477 C478 1.387 . S
C477 H480 0.950 . S
C478 C477 1.387 . S
C478 C481 1.387 . S
H479 C475 0.950 . S
H480 C477 0.950 . S
C481 C472 1.390 . S
C481 H474 0.950 . S
C481 C478 1.387 . S
C482 C483 1.387 . S
C482 H486 0.950 . S
C482 C491 1.390 . S
C483 C482 1.387 . S
C483 C485 1.387 . S
H484 C491 0.950 . S
C485 C483 1.387 . S
C485 C487 1.390 . S
C485 H489 0.950 . S
H486 C482 0.950 . S
C487 C485 1.390 . S
C487 C488 1.387 . S
C487 H490 0.950 . S
C488 C487 1.387 . S
C488 C491 1.387 . S
H489 C485 0.950 . S
H490 C487 0.950 . S
C491 C482 1.390 . S
C491 H484 0.950 . S
C491 C488 1.387 . S
C492 C493 1.387 . S
C492 H496 0.950 . S
C492 C501 1.390 . S
C493 C492 1.387 . S
C493 C495 1.387 . S
H494 C501 0.950 . S
C495 C493 1.387 . S
C495 C497 1.390 . S
C495 H499 0.950 . S
H496 C492 0.950 . S
C497 C495 1.390 . S
C497 C498 1.387 . S
C497 H500 0.950 . S
C498 C497 1.387 . S
C498 C501 1.387 . S
H499 C495 0.950 . S
H500 C497 0.950 . S
C501 C492 1.390 . S
C501 H494 0.950 . S
C501 C498 1.387 . S
C502 C503 1.387 . S
C502 H506 0.950 . S
C502 C511 1.390 . S
C503 C502 1.387 . S
C503 C505 1.387 . S
H504 C511 0.950 . S
C505 C503 1.387 . S
C505 C507 1.390 . S
C505 H509 0.950 . S
H506 C502 0.950 . S
C507 C505 1.390 . S
C507 C508 1.387 . S
C507 H510 0.950 . S
C508 C507 1.387 . S
C508 C511 1.387 . S
H509 C505 0.950 . S
H510 C507 0.950 . S
C511 C502 1.390 . S
C511 H504 0.950 . S
C511 C508 1.387 . S
C512 C513 1.387 . S
C512 H516 0.950 . S
C512 C521 1.390 . S
C513 C512 1.387 . S
C513 C515 1.387 . S
H514 C521 0.950 . S
C515 C513 1.387 . S
C515 C517 1.390 . S
C515 H519 0.950 . S
H516 C512 0.950 . S
C517 C515 1.390 . S
C517 C518 1.387 . S
C517 H520 0.950 . S
C518 C517 1.387 . S
C518 C521 1.387 . S
H519 C515 0.950 . S
H520 C517 0.950 . S
C521 C512 1.390 . S
C521 H514 0.950 . S
C521 C518 1.387 . S
C522 C523 1.387 . S
C522 H526 0.950 . S
C522 C531 1.390 . S
C523 C522 1.387 . S
C523 C525 1.387 . S
H524 C531 0.950 . S
C525 C523 1.387 . S
C525 C527 1.390 . S
C525 H529 0.950 . S
H526 C522 0.950 . S
C527 C525 1.390 . S
C527 C528 1.387 . S
C527 H530 0.950 . S
C528 C527 1.387 . S
C528 C531 1.387 . S
H529 C525 0.950 . S
H530 C527 0.950 . S
C531 C522 1.390 . S
C531 H524 0.950 . S
C531 C528 1.387 . S
C532 C533 1.387 . S
C532 H536 0.950 . S
C532 C541 1.390 . S
C533 C532 1.387 . S
C533 C535 1.387 . S
H534 C541 0.950 . S
C535 C533 1.387 . S
C535 C537 1.390 . S
C535 H539 0.950 . S
H536 C532 0.950 . S
C537 C535 1.390 . S
C537 C538 1.387 . S
C537 H540 0.950 . S
C538 C537 1.387 . S
C538 C541 1.387 . S
H539 C535 0.950 . S
H540 C537 0.950 . S
C541 C532 1.390 . S
C541 H534 0.950 . S
C541 C538 1.387 . S
C542 C543 1.387 . S
C542 H546 0.950 . S
C542 C551 1.390 . S
C543 C542 1.387 . S
C543 C545 1.387 . S
H544 C551 0.950 . S
C545 C543 1.387 . S
C545 C547 1.390 . S
C545 H549 0.950 . S
H546 C542 0.950 . S
C547 C545 1.390 . S
C547 C548 1.387 . S
C547 H550 0.950 . S
C548 C547 1.387 . S
C548 C551 1.387 . S
H549 C545 0.950 . S
H550 C547 0.950 . S
C551 C542 1.390 . S
C551 H544 0.950 . S
C551 C548 1.387 . S
C552 C553 1.387 . S
C552 H556 0.950 . S
C552 C561 1.390 1_566 S
C553 C552 1.387 . S
C553 C555 1.387 . S
H554 C561 0.950 . S
C555 C553 1.387 . S
C555 C557 1.390 1_566 S
C555 H559 0.950 . S
H556 C552 0.950 . S
C557 C555 1.390 1_544 S
C557 C558 1.387 . S
C557 H560 0.950 . S
C558 C557 1.387 . S
C558 C561 1.387 . S
H559 C555 0.950 . S
H560 C557 0.950 . S
C561 C552 1.390 1_544 S
C561 H554 0.950 . S
C561 C558 1.387 . S
C562 C563 1.387 . S
C562 H566 0.950 . S
C562 C571 1.390 . S
C563 C562 1.387 . S
C563 C565 1.387 . S
H564 C571 0.950 . S
C565 C563 1.387 . S
C565 C567 1.390 . S
C565 H569 0.950 . S
H566 C562 0.950 . S
C567 C565 1.390 . S
C567 C568 1.387 . S
C567 H570 0.950 . S
C568 C567 1.387 . S
C568 C571 1.387 . S
H569 C565 0.950 . S
H570 C567 0.950 . S
C571 C562 1.390 . S
C571 H564 0.950 . S
C571 C568 1.387 . S
C572 C573 1.387 . S
C572 H576 0.950 . S
C572 C581 1.390 1_556 S
C573 C572 1.387 . S
C573 C575 1.387 1_455 S
H574 C581 0.950 . S
C575 C573 1.387 1_655 S
C575 C577 1.390 1_556 S
C575 H579 0.950 . S
H576 C572 0.950 . S
C577 C575 1.390 1_554 S
C577 C578 1.387 . S
C577 H580 0.950 . S
C578 C577 1.387 . S
C578 C581 1.387 1_655 S
H579 C575 0.950 . S
H580 C577 0.950 . S
C581 C572 1.390 1_554 S
C581 H574 0.950 . S
C581 C578 1.387 1_455 S
C582 C583 1.387 . S
C582 H586 0.950 . S
C582 C591 1.390 1_545 S
C583 C582 1.387 . S
C583 C585 1.387 . S
H584 C591 0.950 . S
C585 C583 1.387 . S
C585 C587 1.390 1_545 S
C585 H589 0.950 . S
H586 C582 0.950 . S
C587 C585 1.390 1_565 S
C587 C588 1.387 . S
C587 H590 0.950 . S
C588 C587 1.387 . S
C588 C591 1.387 . S
H589 C585 0.950 . S
H590 C587 0.950 . S
C591 C582 1.390 1_565 S
C591 H584 0.950 . S
C591 C588 1.387 . S
C592 C593 1.387 . S
C592 H596 0.950 . S
C592 C601 1.390 1_554 S
C593 C592 1.387 . S
C593 C595 1.387 . S
H594 C601 0.950 . S
C595 C593 1.387 . S
C595 C597 1.390 1_554 S
C595 H599 0.950 . S
H596 C592 0.950 . S
C597 C595 1.390 1_556 S
C597 C598 1.387 . S
C597 H600 0.950 . S
C598 C597 1.387 . S
C598 C601 1.387 . S
H599 C595 0.950 . S
H600 C597 0.950 . S
C601 C592 1.390 1_556 S
C601 H594 0.950 . S
C601 C598 1.387 . S
C602 C603 1.387 . S
C602 H606 0.950 . S
C602 C611 1.390 . S
C603 C602 1.387 . S
C603 C605 1.387 1_455 S
H604 C611 0.950 . S
C605 C603 1.387 1_655 S
C605 C607 1.390 . S
C605 H609 0.950 . S
H606 C602 0.950 . S
C607 C605 1.390 . S
C607 C608 1.387 . S
C607 H610 0.950 . S
C608 C607 1.387 . S
C608 C611 1.387 1_655 S
H609 C605 0.950 . S
H610 C607 0.950 . S
C611 C602 1.390 . S
C611 H604 0.950 . S
C611 C608 1.387 1_455 S
C612 C613 1.387 . S
C612 H616 0.950 . S
C612 C621 1.390 1_566 S
C613 C612 1.387 . S
C613 C615 1.387 . S
H614 C621 0.950 . S
C615 C613 1.387 . S
C615 C617 1.390 1_566 S
C615 H619 0.950 . S
H616 C612 0.950 . S
C617 C615 1.390 1_544 S
C617 C618 1.387 . S
C617 H620 0.950 . S
C618 C617 1.387 . S
C618 C621 1.387 . S
H619 C615 0.950 . S
H620 C617 0.950 . S
C621 C612 1.390 1_544 S
C621 H614 0.950 . S
C621 C618 1.387 . S
C622 C623 1.387 . S
C622 H626 0.950 . S
C622 C631 1.390 . S
C623 C622 1.387 . S
C623 C625 1.387 . S
H624 C631 0.950 . S
C625 C623 1.387 . S
C625 C627 1.390 . S
C625 H629 0.950 . S
H626 C622 0.950 . S
C627 C625 1.390 . S
C627 C628 1.387 . S
C627 H630 0.950 . S
C628 C627 1.387 . S
C628 C631 1.387 . S
H629 C625 0.950 . S
H630 C627 0.950 . S
C631 C622 1.390 . S
C631 H624 0.950 . S
C631 C628 1.387 . S
C632 C633 1.387 . S
C632 H636 0.950 . S
C632 C641 1.390 1_554 S
C633 C632 1.387 . S
C633 C635 1.387 1_655 S
H634 C641 0.950 . S
C635 C633 1.387 1_455 S
C635 C637 1.390 1_554 S
C635 H639 0.950 . S
H636 C632 0.950 . S
C637 C635 1.390 1_556 S
C637 C638 1.387 . S
C637 H640 0.950 . S
C638 C637 1.387 . S
C638 C641 1.387 1_455 S
H639 C635 0.950 . S
H640 C637 0.950 . S
C641 C632 1.390 1_556 S
C641 H634 0.950 . S
C641 C638 1.387 1_655 S
C642 C643 1.387 . S
C642 H646 0.950 . S
C642 C651 1.390 1_565 S
C643 C642 1.387 . S
C643 C645 1.387 . S
H644 C651 0.950 . S
C645 C643 1.387 . S
C645 C647 1.390 1_565 S
C645 H649 0.950 . S
H646 C642 0.950 . S
C647 C645 1.390 1_545 S
C647 C648 1.387 . S
C647 H650 0.950 . S
C648 C647 1.387 . S
C648 C651 1.387 . S
H649 C645 0.950 . S
H650 C647 0.950 . S
C651 C642 1.390 1_545 S
C651 H644 0.950 . S
C651 C648 1.387 . S
C652 C653 1.387 . S
C652 H656 0.950 . S
C652 C661 1.390 1_554 S
C653 C652 1.387 . S
C653 C655 1.387 . S
H654 C661 0.950 . S
C655 C653 1.387 . S
C655 C657 1.390 1_554 S
C655 H659 0.950 . S
H656 C652 0.950 . S
C657 C655 1.390 1_556 S
C657 C658 1.387 . S
C657 H660 0.950 . S
C658 C657 1.387 . S
C658 C661 1.387 . S
H659 C655 0.950 . S
H660 C657 0.950 . S
C661 C652 1.390 1_556 S
C661 H654 0.950 . S
C661 C658 1.387 . S
C662 C663 1.387 . S
C662 H666 0.950 . S
C662 C671 1.390 1_455 S
C663 C662 1.387 . S
C663 C665 1.387 . S
H664 C671 0.950 . S
C665 C663 1.387 . S
C665 C667 1.390 1_455 S
C665 H669 0.950 . S
H666 C662 0.950 . S
C667 C665 1.390 1_655 S
C667 C668 1.387 . S
C667 H670 0.950 . S
C668 C667 1.387 . S
C668 C671 1.387 . S
H669 C665 0.950 . S
H670 C667 0.950 . S
C671 C662 1.390 1_655 S
C671 H664 0.950 . S
C671 C668 1.387 . S
C672 C673 1.387 . S
C672 H676 0.950 . S
C672 C681 1.390 . S
C673 C672 1.387 . S
C673 C675 1.387 . S
H674 C681 0.950 . S
C675 C673 1.387 . S
C675 C677 1.390 . S
C675 H679 0.950 . S
H676 C672 0.950 . S
C677 C675 1.390 . S
C677 C678 1.387 . S
C677 H680 0.950 . S
C678 C677 1.387 . S
C678 C681 1.387 . S
H679 C675 0.950 . S
H680 C677 0.950 . S
C681 C672 1.390 . S
C681 H674 0.950 . S
C681 C678 1.387 . S
C682 C683 1.387 . S
C682 H686 0.950 . S
C682 C691 1.390 . S
C683 C682 1.387 . S
C683 C685 1.387 . S
H684 C691 0.950 . S
C685 C683 1.387 . S
C685 C687 1.390 . S
C685 H689 0.950 . S
H686 C682 0.950 . S
C687 C685 1.390 . S
C687 C688 1.387 . S
C687 H690 0.950 . S
C688 C687 1.387 . S
C688 C691 1.387 . S
H689 C685 0.950 . S
H690 C687 0.950 . S
C691 C682 1.390 . S
C691 H684 0.950 . S
C691 C688 1.387 . S
C692 C693 1.387 . S
C692 H696 0.950 . S
C692 C701 1.390 . S
C693 C692 1.387 . S
C693 C695 1.387 . S
H694 C701 0.950 . S
C695 C693 1.387 . S
C695 C697 1.390 . S
C695 H699 0.950 . S
H696 C692 0.950 . S
C697 C695 1.390 . S
C697 C698 1.387 . S
C697 H700 0.950 . S
C698 C697 1.387 . S
C698 C701 1.387 . S
H699 C695 0.950 . S
H700 C697 0.950 . S
C701 C692 1.390 . S
C701 H694 0.950 . S
C701 C698 1.387 . S
C702 C703 1.387 . S
C702 H706 0.950 . S
C702 C711 1.390 . S
C703 C702 1.387 . S
C703 C705 1.387 . S
H704 C711 0.950 . S
C705 C703 1.387 . S
C705 C707 1.390 . S
C705 H709 0.950 . S
H706 C702 0.950 . S
C707 C705 1.390 . S
C707 C708 1.387 . S
C707 H710 0.950 . S
C708 C707 1.387 . S
C708 C711 1.387 . S
H709 C705 0.950 . S
H710 C707 0.950 . S
C711 C702 1.390 . S
C711 H704 0.950 . S
C711 C708 1.387 . S
C712 C713 1.387 . S
C712 H716 0.950 . S
C712 C721 1.390 . S
C713 C712 1.387 . S
C713 C715 1.387 . S
H714 C721 0.950 . S
C715 C713 1.387 . S
C715 C717 1.390 . S
C715 H719 0.950 . S
H716 C712 0.950 . S
C717 C715 1.390 . S
C717 C718 1.387 . S
C717 H720 0.950 . S
C718 C717 1.387 . S
C718 C721 1.387 . S
H719 C715 0.950 . S
H720 C717 0.950 . S
C721 C712 1.390 . S
C721 H714 0.950 . S
C721 C718 1.387 . S
C722 C723 1.387 . S
C722 H726 0.950 . S
C722 C731 1.390 . S
C723 C722 1.387 . S
C723 C725 1.387 . S
H724 C731 0.950 . S
C725 C723 1.387 . S
C725 C727 1.390 . S
C725 H729 0.950 . S
H726 C722 0.950 . S
C727 C725 1.390 . S
C727 C728 1.387 . S
C727 H730 0.950 . S
C728 C727 1.387 . S
C728 C731 1.387 . S
H729 C725 0.950 . S
H730 C727 0.950 . S
C731 C722 1.390 . S
C731 H724 0.950 . S
C731 C728 1.387 . S
C732 C733 1.387 . S
C732 H736 0.950 . S
C732 C741 1.390 . S
C733 C732 1.387 . S
C733 C735 1.387 . S
H734 C741 0.950 . S
C735 C733 1.387 . S
C735 C737 1.390 . S
C735 H739 0.950 . S
H736 C732 0.950 . S
C737 C735 1.390 . S
C737 C738 1.387 . S
C737 H740 0.950 . S
C738 C737 1.387 . S
C738 C741 1.387 . S
H739 C735 0.950 . S
H740 C737 0.950 . S
C741 C732 1.390 . S
C741 H734 0.950 . S
C741 C738 1.387 . S
C742 C743 1.387 . S
C742 H746 0.950 . S
C742 C751 1.390 . S
C743 C742 1.387 . S
C743 C745 1.387 . S
H744 C751 0.950 . S
C745 C743 1.387 . S
C745 C747 1.390 . S
C745 H749 0.950 . S
H746 C742 0.950 . S
C747 C745 1.390 . S
C747 C748 1.387 . S
C747 H750 0.950 . S
C748 C747 1.387 . S
C748 C751 1.387 . S
H749 C745 0.950 . S
H750 C747 0.950 . S
C751 C742 1.390 . S
C751 H744 0.950 . S
C751 C748 1.387 . S
C752 C753 1.387 . S
C752 H756 0.950 . S
C752 C761 1.390 . S
C753 C752 1.387 . S
C753 C755 1.387 . S
H754 C761 0.950 . S
C755 C753 1.387 . S
C755 C757 1.390 . S
C755 H759 0.950 . S
H756 C752 0.950 . S
C757 C755 1.390 . S
C757 C758 1.387 . S
C757 H760 0.950 . S
C758 C757 1.387 . S
C758 C761 1.387 . S
H759 C755 0.950 . S
H760 C757 0.950 . S
C761 C752 1.390 . S
C761 H754 0.950 . S
C761 C758 1.387 . S
C762 C763 1.387 . S
C762 H766 0.950 . S
C762 C771 1.390 . S
C763 C762 1.387 . S
C763 C765 1.387 . S
H764 C771 0.950 . S
C765 C763 1.387 . S
C765 C767 1.390 . S
C765 H769 0.950 . S
H766 C762 0.950 . S
C767 C765 1.390 . S
C767 C768 1.387 . S
C767 H770 0.950 . S
C768 C767 1.387 . S
C768 C771 1.387 . S
H769 C765 0.950 . S
H770 C767 0.950 . S
C771 C762 1.390 . S
C771 H764 0.950 . S
C771 C768 1.387 . S
C772 C773 1.387 . S
C772 H776 0.950 . S
C772 C781 1.390 . S
C773 C772 1.387 . S
C773 C775 1.387 . S
H774 C781 0.950 . S
C775 C773 1.387 . S
C775 C777 1.390 . S
C775 H779 0.950 . S
H776 C772 0.950 . S
C777 C775 1.390 . S
C777 C778 1.387 . S
C777 H780 0.950 . S
C778 C777 1.387 . S
C778 C781 1.387 . S
H779 C775 0.950 . S
H780 C777 0.950 . S
C781 C772 1.390 . S
C781 H774 0.950 . S
C781 C778 1.387 . S
C782 C783 1.387 . S
C782 H786 0.950 . S
C782 C791 1.390 . S
C783 C782 1.387 . S
C783 C785 1.387 . S
H784 C791 0.950 . S
C785 C783 1.387 . S
C785 C787 1.390 . S
C785 H789 0.950 . S
H786 C782 0.950 . S
C787 C785 1.390 . S
C787 C788 1.387 . S
C787 H790 0.950 . S
C788 C787 1.387 . S
C788 C791 1.387 . S
H789 C785 0.950 . S
H790 C787 0.950 . S
C791 C782 1.390 . S
C791 H784 0.950 . S
C791 C788 1.387 . S
C313 C199 1.449 . S
C318 C10 1.451 . S
C323 C17 1.449 . S
C328 C212 1.450 . S
C333 C36 1.449 . S
C338 C231 1.451 . S
C343 C43 1.449 . S
C348 C166 1.451 . S
C353 C179 1.450 . S
C358 C62 1.450 . S
C363 C75 1.451 . S
C368 C186 1.449 . S
C373 C277 1.450 . S
C378 C88 1.450 . S
C383 C95 1.450 . S
C388 C296 1.450 . S
C393 C108 1.449 . S
C398 C309 1.451 . S
C403 C238 1.450 . S
C408 C121 1.450 . S
C413 C134 1.449 . S
C418 C257 1.451 . S
C423 C270 1.449 . S
C428 C153 1.451 . S
C433 C4 1.648 . S
C438 C303 1.647 . S
C443 C244 1.648 . S
C448 C23 1.648 . S
C453 C30 1.648 . S
C458 C251 1.647 . S
C463 C264 1.648 . S
C468 C49 1.647 . S
C473 C56 1.648 . S
C478 C283 1.647 . S
C483 C290 1.647 . S
C488 C69 1.648 . S
C493 C82 1.648 . S
C498 C173 1.648 . S
C503 C192 1.648 . S
C508 C101 1.647 . S
C513 C205 1.647 . S
C518 C114 1.648 . S
C523 C218 1.647 . S
C528 C127 1.648 . S
C533 C140 1.647 . S
C538 C225 1.648 . S
C543 C147 1.647 . S
C548 C160 1.648 . S
C553 C96 1.361 . S
C558 C3 1.361 . S
C563 C109 1.361 . S
C568 C18 1.361 . S
C573 C122 1.362 . S
C578 C29 1.361 . S
C583 C135 1.361 . S
C588 C44 1.361 . S
C593 C55 1.362 . S
C598 C146 1.361 . S
C603 C68 1.361 . S
C608 C81 1.361 . S
C613 C159 1.363 . S
C618 C250 1.363 . S
C623 C172 1.363 . S
C628 C263 1.363 . S
C633 C278 1.362 . S
C638 C187 1.363 . S
C643 C289 1.363 . S
C648 C200 1.363 . S
C653 C302 1.363 . S
C658 C213 1.363 . S
C663 C239 1.361 . S
C668 C224 1.361 . S
C673 C5 1.680 . S
C678 C252 1.680 . S
C683 C265 1.680 . S
C688 C16 1.680 . S
C693 C31 1.680 . S
C698 C276 1.680 . S
C703 C291 1.680 . S
C708 C42 1.680 . S
C713 C57 1.680 . S
C718 C304 1.680 . S
C723 C237 1.680 . S
C728 C70 1.680 . S
C733 C83 1.680 . S
C738 C226 1.680 . S
C743 C161 1.680 . S
C748 C94 1.680 . S
C753 C107 1.680 . S
C758 C174 1.680 . S
C763 C120 1.680 . S
C768 C185 1.680 . S
C773 C133 1.680 . S
C778 C198 1.680 . S
C783 C148 1.680 . S
C788 C211 1.680 . S
