# Generated by pormake.
# Topology sme, (6)-cn, num edge types: 1
# Building blocks:
#     Node 0, Type 0, BuildingBlock: IZENUY_clean_sbu_0, # of connection points: 6
#     Node 1, Type 0, BuildingBlock: IZENUY_clean_sbu_0, # of connection points: 6
#     Node 2, Type 0, BuildingBlock: IZENUY_clean_sbu_0, # of connection points: 6
#     Node 3, Type 0, BuildingBlock: IZENUY_clean_sbu_0, # of connection points: 6
#     Node 4, Type 0, BuildingBlock: IZENUY_clean_sbu_0, # of connection points: 6
#     Node 5, Type 0, BuildingBlock: IZENUY_clean_sbu_0, # of connection points: 6
#     Node 6, Type 0, BuildingBlock: IZENUY_clean_sbu_0, # of connection points: 6
#     Node 7, Type 0, BuildingBlock: IZENUY_clean_sbu_0, # of connection points: 6
#     Node 8, Type 0, BuildingBlock: IZENUY_clean_sbu_0, # of connection points: 6
#     Node 9, Type 0, BuildingBlock: IZENUY_clean_sbu_0, # of connection points: 6
#     Node 10, Type 0, BuildingBlock: IZENUY_clean_sbu_0, # of connection points: 6
#     Node 11, Type 0, BuildingBlock: IZENUY_clean_sbu_0, # of connection points: 6
#     Node 12, Type 0, BuildingBlock: IZENUY_clean_sbu_0, # of connection points: 6
#     Node 13, Type 0, BuildingBlock: IZENUY_clean_sbu_0, # of connection points: 6
#     Node 14, Type 0, BuildingBlock: IZENUY_clean_sbu_0, # of connection points: 6
#     Node 15, Type 0, BuildingBlock: IZENUY_clean_sbu_0, # of connection points: 6
#     Node 16, Type 0, BuildingBlock: IZENUY_clean_sbu_0, # of connection points: 6
#     Node 17, Type 0, BuildingBlock: IZENUY_clean_sbu_0, # of connection points: 6
#     Edge 18, Type (0, 0), BuildingBlock: OJICUG_clean_linker_0, # of connection points: 2
#     Edge 19, Type (0, 0), BuildingBlock: OJICUG_clean_linker_0, # of connection points: 2
#     Edge 20, Type (0, 0), BuildingBlock: OJICUG_clean_linker_0, # of connection points: 2
#     Edge 21, Type (0, 0), BuildingBlock: OJICUG_clean_linker_0, # of connection points: 2
#     Edge 22, Type (0, 0), BuildingBlock: OJICUG_clean_linker_0, # of connection points: 2
#     Edge 23, Type (0, 0), BuildingBlock: OJICUG_clean_linker_0, # of connection points: 2
#     Edge 24, Type (0, 0), BuildingBlock: OJICUG_clean_linker_0, # of connection points: 2
#     Edge 25, Type (0, 0), BuildingBlock: OJICUG_clean_linker_0, # of connection points: 2
#     Edge 26, Type (0, 0), BuildingBlock: OJICUG_clean_linker_0, # of connection points: 2
#     Edge 27, Type (0, 0), BuildingBlock: OJICUG_clean_linker_0, # of connection points: 2
#     Edge 28, Type (0, 0), BuildingBlock: OJICUG_clean_linker_0, # of connection points: 2
#     Edge 29, Type (0, 0), BuildingBlock: OJICUG_clean_linker_0, # of connection points: 2
#     Edge 30, Type (0, 0), BuildingBlock: OJICUG_clean_linker_0, # of connection points: 2
#     Edge 31, Type (0, 0), BuildingBlock: OJICUG_clean_linker_0, # of connection points: 2
#     Edge 32, Type (0, 0), BuildingBlock: OJICUG_clean_linker_0, # of connection points: 2
#     Edge 33, Type (0, 0), BuildingBlock: OJICUG_clean_linker_0, # of connection points: 2
#     Edge 34, Type (0, 0), BuildingBlock: OJICUG_clean_linker_0, # of connection points: 2
#     Edge 35, Type (0, 0), BuildingBlock: OJICUG_clean_linker_0, # of connection points: 2
#     Edge 36, Type (0, 0), BuildingBlock: OJICUG_clean_linker_0, # of connection points: 2
#     Edge 37, Type (0, 0), BuildingBlock: OJICUG_clean_linker_0, # of connection points: 2
#     Edge 38, Type (0, 0), BuildingBlock: OJICUG_clean_linker_0, # of connection points: 2
#     Edge 39, Type (0, 0), BuildingBlock: OJICUG_clean_linker_0, # of connection points: 2
#     Edge 40, Type (0, 0), BuildingBlock: OJICUG_clean_linker_0, # of connection points: 2
#     Edge 41, Type (0, 0), BuildingBlock: OJICUG_clean_linker_0, # of connection points: 2
#     Edge 42, Type (0, 0), BuildingBlock: OJICUG_clean_linker_0, # of connection points: 2
#     Edge 43, Type (0, 0), BuildingBlock: OJICUG_clean_linker_0, # of connection points: 2
#     Edge 44, Type (0, 0), BuildingBlock: OJICUG_clean_linker_0, # of connection points: 2
#     Edge 45, Type (0, 0), BuildingBlock: OJICUG_clean_linker_0, # of connection points: 2
#     Edge 46, Type (0, 0), BuildingBlock: OJICUG_clean_linker_0, # of connection points: 2
#     Edge 47, Type (0, 0), BuildingBlock: OJICUG_clean_linker_0, # of connection points: 2
#     Edge 48, Type (0, 0), BuildingBlock: OJICUG_clean_linker_0, # of connection points: 2
#     Edge 49, Type (0, 0), BuildingBlock: OJICUG_clean_linker_0, # of connection points: 2
#     Edge 50, Type (0, 0), BuildingBlock: OJICUG_clean_linker_0, # of connection points: 2
#     Edge 51, Type (0, 0), BuildingBlock: OJICUG_clean_linker_0, # of connection points: 2
#     Edge 52, Type (0, 0), BuildingBlock: OJICUG_clean_linker_0, # of connection points: 2
#     Edge 53, Type (0, 0), BuildingBlock: OJICUG_clean_linker_0, # of connection points: 2
#     Edge 54, Type (0, 0), BuildingBlock: OJICUG_clean_linker_0, # of connection points: 2
#     Edge 55, Type (0, 0), BuildingBlock: OJICUG_clean_linker_0, # of connection points: 2
#     Edge 56, Type (0, 0), BuildingBlock: OJICUG_clean_linker_0, # of connection points: 2
#     Edge 57, Type (0, 0), BuildingBlock: OJICUG_clean_linker_0, # of connection points: 2
#     Edge 58, Type (0, 0), BuildingBlock: OJICUG_clean_linker_0, # of connection points: 2
#     Edge 59, Type (0, 0), BuildingBlock: OJICUG_clean_linker_0, # of connection points: 2
#     Edge 60, Type (0, 0), BuildingBlock: OJICUG_clean_linker_0, # of connection points: 2
#     Edge 61, Type (0, 0), BuildingBlock: OJICUG_clean_linker_0, # of connection points: 2
#     Edge 62, Type (0, 0), BuildingBlock: OJICUG_clean_linker_0, # of connection points: 2
#     Edge 63, Type (0, 0), BuildingBlock: OJICUG_clean_linker_0, # of connection points: 2
#     Edge 64, Type (0, 0), BuildingBlock: OJICUG_clean_linker_0, # of connection points: 2
#     Edge 65, Type (0, 0), BuildingBlock: OJICUG_clean_linker_0, # of connection points: 2
#     Edge 66, Type (0, 0), BuildingBlock: OJICUG_clean_linker_0, # of connection points: 2
#     Edge 67, Type (0, 0), BuildingBlock: OJICUG_clean_linker_0, # of connection points: 2
#     Edge 68, Type (0, 0), BuildingBlock: OJICUG_clean_linker_0, # of connection points: 2
#     Edge 69, Type (0, 0), BuildingBlock: OJICUG_clean_linker_0, # of connection points: 2
#     Edge 70, Type (0, 0), BuildingBlock: OJICUG_clean_linker_0, # of connection points: 2
#     Edge 71, Type (0, 0), BuildingBlock: OJICUG_clean_linker_0, # of connection points: 2
# Relax obj value: 0.119
# Max RMSD: 0.168
# Mean RMSD: 0.168
data_MOF--net-sme--node1-IZENUY_clean_sbu_0--edge1-OJICUG_clean_linker_0
_symmetry_space_group_name_H-M    P1
_symmetry_Int_Tables_number       1
_symmetry_cell_setting            triclinic
loop_
_symmetry_equiv_pos_as_xyz
'x, y, z'
_cell_length_a     33.150818
_cell_length_b     33.08487
_cell_length_c     27.976479
_cell_angle_alpha  90.049854
_cell_angle_beta   90.097765
_cell_angle_gamma 119.9771
loop_
_atom_site_label
_atom_site_type_symbol
_atom_site_fract_x
_atom_site_fract_y
_atom_site_fract_z
_atom_type_partial_charge
Fe0 Fe 0.05239 0.33083 0.80143 0.0
Fe1 Fe 0.0556 0.25244 0.85706 0.0
O2 O 0.05256 0.27688 0.80141 0.0
Fe3 Fe 0.04968 0.24944 0.74572 0.0
O4 O 0.09932 0.30183 0.72011 0.0
O5 O 0.07502 0.34942 0.74079 0.0
O6 O 0.11061 0.36015 0.82245 0.0
C7 C 0.12409 0.34796 0.85895 0.0
C8 C 0.98087 0.27593 0.74381 0.0
O9 O 0.09806 0.31 0.88103 0.0
C10 C 0.99268 0.17173 0.80242 0.0
O11 O 0.02976 0.32673 0.86207 0.0
O12 O 1.00589 0.25494 0.88279 0.0
O13 O 1.00711 0.26428 0.72175 0.0
O14 O 0.99416 0.30156 0.7804 0.0
C15 C 0.11274 0.23198 0.8003 0.0
O16 O 0.01482 0.19153 0.84034 0.0
O17 O 1.00031 0.19392 0.76368 0.0
C18 C 1.00417 0.29196 0.88762 0.0
O19 O 0.10508 0.24654 0.83906 0.0
O20 O 0.09058 0.22953 0.7624 0.0
C21 C 0.1008 0.34046 0.71528 0.0
Fe22 Fe 0.8709 0.8912 0.85667 0.0
Fe23 Fe 0.87381 0.88806 0.74535 0.0
O24 O 0.84646 0.86364 0.80097 0.0
Fe25 Fe 0.79261 0.80958 0.80085 0.0
O26 O 0.76338 0.83864 0.82163 0.0
O27 O 0.81347 0.87634 0.88035 0.0
O28 O 0.87683 0.94666 0.83851 0.0
C29 C 0.89137 0.96882 0.79978 0.0
C30 C 0.83137 0.80023 0.88735 0.0
O31 O 0.89378 0.94899 0.76196 0.0
C32 C 0.84723 0.7926 0.74353 0.0
O33 O 0.93167 0.91112 0.84018 0.0
O34 O 0.92916 0.89399 0.76356 0.0
O35 O 0.7967 0.79108 0.86156 0.0
O36 O 0.86835 0.83892 0.88259 0.0
C37 C 0.78295 0.8484 0.71464 0.0
O38 O 0.85889 0.83052 0.72144 0.0
O39 O 0.82176 0.78042 0.78007 0.0
C40 C 0.95137 0.90862 0.80235 0.0
O41 O 0.82153 0.88549 0.71953 0.0
O42 O 0.77404 0.81361 0.74012 0.0
C43 C 0.77552 0.86432 0.85816 0.0
Fe44 Fe 0.3127 0.07016 0.80103 0.0
Fe45 Fe 0.23423 0.07317 0.74549 0.0
O46 O 0.25878 0.07016 0.80111 0.0
Fe47 Fe 0.2315 0.06715 0.85681 0.0
O48 O 0.28379 0.11687 0.88272 0.0
O49 O 0.33134 0.09271 0.86178 0.0
O50 O 0.34178 0.12852 0.78037 0.0
C51 C 0.32956 0.14193 0.74384 0.0
C52 C 0.2582 0.99835 0.85821 0.0
O53 O 0.29159 0.11584 0.72173 0.0
C54 C 0.15385 0.01002 0.79985 0.0
O55 O 0.30856 0.04761 0.74025 0.0
O56 O 0.23681 0.02346 0.71947 0.0
O57 O 0.24642 0.02447 0.88045 0.0
O58 O 0.28369 0.01181 0.82168 0.0
C59 C 0.21386 0.13033 0.80262 0.0
O60 O 0.1735 0.0322 0.76202 0.0
O61 O 0.17609 0.01768 0.83861 0.0
C62 C 0.27383 0.02189 0.7146 0.0
O63 O 0.22827 0.12266 0.7638 0.0
O64 O 0.21155 0.10813 0.84041 0.0
C65 C 0.3224 0.11844 0.88748 0.0
Fe66 Fe 0.04985 0.88729 0.24441 0.0
Fe67 Fe 0.05284 0.80892 0.3003 0.0
O68 O 0.05285 0.86295 0.30015 0.0
Fe69 Fe 0.05586 0.89059 0.35573 0.0
O70 O 0.01506 0.91059 0.33892 0.0
O71 O 1.00041 0.89329 0.26233 0.0
O72 O 1.00736 0.8297 0.22054 0.0
C73 C 0.98121 0.79185 0.2427 0.0
C74 C 0.1129 0.96809 0.29884 0.0
O75 O 0.99462 0.77968 0.27928 0.0
C76 C 0.12444 0.8638 0.35786 0.0
O77 O 0.09954 0.88466 0.21882 0.0
O78 O 0.07549 0.81286 0.23967 0.0
O79 O 0.10532 0.94599 0.33763 0.0
O80 O 0.09067 0.94823 0.26099 0.0
C81 C 1.00452 0.79966 0.38643 0.0
O82 O 0.11107 0.83807 0.32133 0.0
O83 O 0.09832 0.87566 0.37982 0.0
C84 C 0.10116 0.84757 0.21408 0.0
O85 O 0.03019 0.79051 0.36096 0.0
O86 O 1.00617 0.83836 0.3815 0.0
C87 C 0.99285 0.90803 0.30101 0.0
Fe88 Fe 0.23459 0.24859 0.24416 0.0
Fe89 Fe 0.31289 0.33026 0.29991 0.0
O90 O 0.25906 0.27619 0.29983 0.0
Fe91 Fe 0.23178 0.25177 0.35548 0.0
O92 O 0.21184 0.19086 0.33891 0.0
O93 O 0.22864 0.19312 0.26233 0.0
O94 O 0.292 0.26343 0.22045 0.0
C95 C 0.32998 0.2755 0.24261 0.0
C96 C 0.15416 0.23119 0.29854 0.0
O97 O 0.34214 0.30123 0.27912 0.0
C98 C 0.25825 0.3472 0.35727 0.0
O99 O 0.23713 0.30086 0.21819 0.0
O100 O 0.30877 0.34873 0.23921 0.0
O101 O 0.17638 0.24578 0.33733 0.0
O102 O 0.17383 0.22871 0.26068 0.0
C103 C 0.32267 0.29151 0.38611 0.0
O104 O 0.2837 0.35939 0.3207 0.0
O105 O 0.24667 0.30932 0.37938 0.0
C106 C 0.27411 0.33955 0.21341 0.0
O107 O 0.33151 0.32629 0.36064 0.0
O108 O 0.2841 0.2544 0.38125 0.0
C109 C 0.21419 0.171 0.30109 0.0
Fe110 Fe 0.87126 0.06677 0.35539 0.0
Fe111 Fe 0.79279 0.0697 0.29979 0.0
O112 O 0.84673 0.06976 0.29975 0.0
Fe113 Fe 0.87407 0.07281 0.24408 0.0
O114 O 0.89406 0.03187 0.26053 0.0
O115 O 0.87722 0.01728 0.33711 0.0
O116 O 0.8139 0.02411 0.37914 0.0
C117 C 0.77595 0.99799 0.35701 0.0
C118 C 0.95167 0.12993 0.30107 0.0
O119 O 0.76374 0.01137 0.32045 0.0
C120 C 0.84725 0.14151 0.24261 0.0
O121 O 0.86866 0.11649 0.38136 0.0
O122 O 0.79691 0.09229 0.36055 0.0
O123 O 0.92944 0.12231 0.26231 0.0
O124 O 0.93201 0.10773 0.33889 0.0
C125 C 0.7832 0.02143 0.21335 0.0
O126 O 0.82175 0.12803 0.27913 0.0
O127 O 0.85911 0.11545 0.2204 0.0
C128 C 0.83163 0.11803 0.38622 0.0
O129 O 0.77419 0.04713 0.23903 0.0
O130 O 0.82183 0.02306 0.21813 0.0
C131 C 0.89171 0.00965 0.29833 0.0
Fe132 Fe 0.71924 0.66423 0.13427 0.0
Fe133 Fe 0.72227 0.58584 0.19008 0.0
O134 O 0.71929 0.61023 0.13437 0.0
Fe135 Fe 0.71637 0.58267 0.07874 0.0
O136 O 0.76605 0.63497 0.05306 0.0
O137 O 0.74192 0.68272 0.07363 0.0
O138 O 0.77744 0.6935 0.15534 0.0
C139 C 0.79085 0.68131 0.1919 0.0
C140 C 0.64771 0.60937 0.07663 0.0
O141 O 0.76472 0.64342 0.21401 0.0
C142 C 0.65931 0.50508 0.13554 0.0
O143 O 0.69655 0.66022 0.19488 0.0
O144 O 0.67255 0.58842 0.21568 0.0
O145 O 0.67388 0.59757 0.05466 0.0
O146 O 0.66103 0.63504 0.11319 0.0
C147 C 0.77937 0.56523 0.13347 0.0
O148 O 0.68149 0.52492 0.17342 0.0
O149 O 0.66693 0.52723 0.09677 0.0
C150 C 0.6709 0.62548 0.22044 0.0
O151 O 0.77174 0.57989 0.17217 0.0
O152 O 0.7572 0.56271 0.09555 0.0
C153 C 0.76763 0.67363 1.04815 0.0
Fe154 Fe 0.45934 0.14293 0.13424 0.0
Fe155 Fe 0.53761 0.22458 0.19005 0.0
O156 O 0.51318 0.197 0.13435 0.0
Fe157 Fe 0.54052 0.22142 0.07873 0.0
O158 O 0.48822 0.21881 0.0529 0.0
O159 O 0.44077 0.14692 0.07349 0.0
O160 O 0.43009 0.17197 0.15499 0.0
C161 C 0.44222 0.19768 0.19151 0.0
C162 C 0.51402 0.12598 0.07695 0.0
O163 O 0.48018 0.20972 0.21371 0.0
C164 C 0.61809 0.242 0.13574 0.0
O165 O 0.46342 0.12445 0.19495 0.0
O166 O 0.53506 0.1723 0.216 0.0
O167 O 0.52564 0.16388 0.05484 0.0
O168 O 0.48853 0.11379 0.11348 0.0
C169 C 0.55805 0.30218 0.13312 0.0
O170 O 0.59838 0.24448 0.17358 0.0
O171 O 0.5959 0.2274 0.09694 0.0
C172 C 0.49808 0.13361 0.22075 0.0
O173 O 0.54355 0.28004 0.17187 0.0
O174 O 0.56045 0.28233 0.09531 0.0
C175 C 0.44965 0.1817 1.04802 0.0
Fe176 Fe 0.89815 0.40048 0.19043 0.0
Fe177 Fe 0.90101 0.40653 0.07912 0.0
O178 O 0.92552 0.40353 0.13477 0.0
Fe179 Fe 0.97947 0.4036 0.13477 0.0
O180 O 0.95051 0.34527 0.15541 0.0
O181 O 0.91309 0.35782 0.21411 0.0
O182 O 0.84279 0.35098 0.17217 0.0
C183 C 0.82058 0.34335 0.13339 0.0
C184 C 0.98901 0.45184 0.22122 0.0
O185 O 0.84026 0.36555 0.09559 0.0
C186 C 0.99633 0.47533 0.07755 0.0
O187 O 0.87818 0.44143 0.17397 0.0
O188 O 0.89502 0.456 0.09738 0.0
O189 O 0.99804 0.42616 0.19553 0.0
O190 O 0.95039 0.45021 0.21642 0.0
C191 C 0.94068 0.35528 1.04833 0.0
O192 O 0.95839 0.4492 0.05539 0.0
O193 O 1.00852 0.46195 0.11411 0.0
C194 C 0.88054 0.46364 0.13616 0.0
O195 O 0.90364 0.35681 0.05316 0.0
O196 O 0.97539 0.38104 0.074 0.0
C197 C 0.92498 0.33177 0.19191 0.0
Fe198 Fe 0.72249 0.2238 0.68876 0.0
Fe199 Fe 0.71967 0.14231 0.63316 0.0
O200 O 0.71957 0.19629 0.63311 0.0
Fe201 Fe 0.71657 0.22071 0.57743 0.0
O202 O 0.75735 0.28163 0.59413 0.0
O203 O 0.77193 0.27925 0.67077 0.0
O204 O 0.76496 0.20888 0.71283 0.0
C205 C 0.79117 0.19715 0.69083 0.0
C206 C 0.65948 0.24128 0.63409 0.0
O207 O 0.77788 0.17151 0.65424 0.0
C208 C 0.64804 0.12521 0.57553 0.0
O209 O 0.6728 0.17149 0.71439 0.0
O210 O 0.69697 0.12377 0.69379 0.0
O211 O 0.66709 0.22662 0.59538 0.0
O212 O 0.68167 0.24379 0.67199 0.0
C213 C 0.76798 0.18113 0.54698 0.0
O214 O 0.66147 0.11302 0.61208 0.0
O215 O 0.67412 0.16314 0.55346 0.0
C216 C 0.67123 0.13282 0.71927 0.0
O217 O 0.74236 0.14638 0.57255 0.0
O218 O 0.76629 0.21818 0.55178 0.0
C219 C 0.77953 0.30143 0.63202 0.0
Fe220 Fe 0.8984 0.58506 0.68915 0.0
Fe221 Fe 0.97967 0.66356 0.63375 0.0
O222 O 0.9258 0.60953 0.63356 0.0
Fe223 Fe 0.9014 0.58203 0.57783 0.0
O224 O 0.84062 0.56217 0.59425 0.0
O225 O 0.84305 0.57914 0.67091 0.0
O226 O 0.9133 0.6426 0.71309 0.0
C227 C 0.925 0.68053 0.69101 0.0
C228 C 0.88084 0.50434 0.63467 0.0
O229 O 0.95053 0.69274 0.6545 0.0
C230 C 0.99676 0.6088 0.57646 0.0
O231 O 0.95065 0.58761 0.71503 0.0
O232 O 0.99817 0.6595 0.69451 0.0
O233 O 0.89537 0.52652 0.59595 0.0
O234 O 0.87845 0.52416 0.67251 0.0
C235 C 0.94106 0.67304 0.54722 0.0
O236 O 1.00888 0.63447 0.61301 0.0
O237 O 0.95884 0.59685 0.55422 0.0
C238 C 0.98923 0.62469 0.71996 0.0
O239 O 0.97569 0.68212 0.57304 0.0
O240 O 0.90405 0.63437 0.55193 0.0
C241 C 0.82089 0.5646 0.63208 0.0
Fe242 Fe 0.45952 0.40306 0.63311 0.0
Fe243 Fe 0.54079 0.40615 0.57739 0.0
O244 O 0.51346 0.4031 0.63307 0.0
Fe245 Fe 0.53798 0.40009 0.68871 0.0
O246 O 0.48061 0.35741 0.71243 0.0
O247 O 0.43045 0.3447 0.65375 0.0
O248 O 0.44093 0.38052 0.57234 0.0
C249 C 0.44991 0.35481 0.54666 0.0
C250 C 0.49832 0.45133 0.71956 0.0
O251 O 0.48853 0.35642 0.55143 0.0
C252 C 0.6184 0.46327 0.63441 0.0
O253 O 0.48851 0.46141 0.61248 0.0
O254 O 0.52586 0.44882 0.55374 0.0
O255 O 0.53536 0.4498 0.71471 0.0
O256 O 0.46362 0.4256 0.69389 0.0
C257 C 0.55841 0.34297 0.63161 0.0
O258 O 0.59618 0.45563 0.59563 0.0
O259 O 0.59872 0.44107 0.67222 0.0
C260 C 0.51403 0.4749 0.57597 0.0
O261 O 0.56075 0.36518 0.59381 0.0
O262 O 0.54397 0.35062 0.67041 0.0
C263 C 0.44266 0.3313 0.69029 0.0
Fe264 Fe 0.38899 0.91919 0.52346 0.0
Fe265 Fe 0.38296 0.91599 0.41213 0.0
O266 O 0.38595 0.94356 0.46776 0.0
Fe267 Fe 0.3859 0.99757 0.46768 0.0
O268 O 0.44413 0.02684 0.48867 0.0
O269 O 0.4315 0.97677 0.54734 0.0
O270 O 0.43842 0.9132 0.50548 0.0
C271 C 0.44602 0.89854 0.46675 0.0
C272 C 0.33766 0.95886 0.55391 0.0
O273 O 0.42382 0.89604 0.42886 0.0
C274 C 0.3143 0.94267 0.41015 0.0
O275 O 0.34816 0.85827 0.50685 0.0
O276 O 0.33355 0.86054 0.4302 0.0
O277 O 0.3633 0.99359 0.52832 0.0
O278 O 0.33931 0.92179 0.54914 0.0
C279 C 0.4342 1.00695 0.38151 0.0
O280 O 0.34044 0.93087 0.38812 0.0
O281 O 0.32767 0.96837 0.44669 0.0
C282 C 0.32596 0.83842 0.46898 0.0
O283 O 0.43262 0.96828 0.3864 0.0
O284 O 0.40851 0.01604 0.40702 0.0
C285 C 0.45759 0.01466 0.52519 0.0
Fe286 Fe 0.20439 0.55799 0.52367 0.0
Fe287 Fe 0.20711 0.55471 0.41235 0.0
O288 O 0.17988 0.53033 0.46803 0.0
Fe289 Fe 0.12608 0.47622 0.46802 0.0
O290 O 0.0968 0.50522 0.48884 0.0
O291 O 0.14698 0.54308 0.54745 0.0
O292 O 0.21021 0.61339 0.50546 0.0
C293 C 0.22468 0.63551 0.46669 0.0
C294 C 0.16502 0.46707 0.55447 0.0
O295 O 0.22707 0.61564 0.42889 0.0
C296 C 0.18068 0.45929 0.41059 0.0
O297 O 0.26515 0.57794 0.50707 0.0
O298 O 0.26252 0.56071 0.43046 0.0
O299 O 0.1303 0.45781 0.52873 0.0
O300 O 0.20195 0.50578 0.54965 0.0
C301 C 0.11619 0.51492 0.38181 0.0
O302 O 0.1922 0.49715 0.38847 0.0
O303 O 0.15528 0.44712 0.4472 0.0
C304 C 0.28478 0.57539 0.46921 0.0
O305 O 0.15476 0.55205 0.38664 0.0
O306 O 0.10738 0.48016 0.4073 0.0
C307 C 0.10897 0.53096 0.52534 0.0
Fe308 Fe 0.6461 0.73686 0.4676 0.0
Fe309 Fe 0.56761 0.73984 0.41208 0.0
O310 O 0.59218 0.73684 0.46769 0.0
Fe311 Fe 0.5649 0.73383 0.5234 0.0
O312 O 0.61718 0.78357 0.54929 0.0
O313 O 0.66476 0.75945 0.52834 0.0
O314 O 0.67517 0.7952 0.44692 0.0
C315 C 0.66294 0.80859 0.41038 0.0
C316 C 0.59166 0.66508 0.52482 0.0
O317 O 0.62496 0.78249 0.38829 0.0
C318 C 0.48725 0.6767 0.46648 0.0
O319 O 0.64193 0.71427 0.40683 0.0
O320 O 0.57017 0.69011 0.38608 0.0
O321 O 0.57987 0.69118 0.54705 0.0
O322 O 0.61713 0.67853 0.48827 0.0
C323 C 0.54723 0.79698 0.46919 0.0
O324 O 0.50688 0.69889 0.42864 0.0
O325 O 0.50952 0.68433 0.50521 0.0
C326 C 0.60719 0.68854 0.38119 0.0
O327 O 0.56167 0.78934 0.43039 0.0
O328 O 0.5449 0.77477 0.50699 0.0
C329 C 0.6558 0.78517 0.55404 0.0
Fe330 Fe 0.38318 0.55402 0.91076 0.0
Fe331 Fe 0.38633 0.47564 0.96649 0.0
O332 O 0.38624 0.52963 0.96644 0.0
Fe333 Fe 0.38923 0.55718 1.02209 0.0
O334 O 0.34839 0.57715 1.00539 0.0
O335 O 0.33374 0.55999 0.92878 0.0
O336 O 0.34067 0.49644 0.88687 0.0
C337 C 0.31461 0.45853 0.909 0.0
C338 C 0.44622 0.63477 0.96527 0.0
O339 O 0.3281 0.44636 0.94551 0.0
C340 C 0.45792 0.53054 1.02403 0.0
O341 O 0.43285 0.55144 0.88504 0.0
O342 O 0.40892 0.47965 0.90584 0.0
O343 O 0.43865 0.61263 1.00403 0.0
O344 O 0.424 0.61494 0.9274 0.0
C345 C 0.338 0.4662 0.05265 0.0
O346 O 0.44457 0.50486 0.98747 0.0
O347 O 0.43175 0.54228 1.04608 0.0
C348 C 0.43452 0.51438 0.88025 0.0
O349 O 0.36372 0.45715 1.02715 0.0
O350 O 0.33957 0.50488 1.04779 0.0
C351 C 0.32617 0.57464 0.96752 0.0
Fe352 Fe 0.56794 0.91528 0.91081 0.0
Fe353 Fe 0.64627 0.99694 0.96655 0.0
O354 O 0.59243 0.94287 0.96648 0.0
Fe355 Fe 0.56516 0.91846 1.02213 0.0
O356 O 0.54518 0.85754 1.00554 0.0
O357 O 0.56202 0.85983 0.92896 0.0
O358 O 0.62534 0.93014 0.88707 0.0
C359 C 0.66333 0.9422 0.90921 0.0
C360 C 0.48753 0.89789 0.96523 0.0
O361 O 0.6755 0.9679 0.94573 0.0
C362 C 0.59168 0.01391 1.02396 0.0
O363 O 0.57046 0.96755 0.88487 0.0
O364 O 0.64212 0.01542 0.90585 0.0
O365 O 0.50977 0.9125 1.004 0.0
O366 O 0.50718 0.89539 0.92737 0.0
C367 C 0.65605 0.95817 0.05273 0.0
O368 O 0.61711 0.02608 0.98737 0.0
O369 O 0.58008 0.97601 1.04605 0.0
C370 C 0.60744 1.00623 0.88008 0.0
O371 O 0.66491 0.99294 1.02727 0.0
O372 O 0.61747 0.92106 1.04788 0.0
C373 C 0.54754 0.83768 0.96771 0.0
Fe374 Fe 0.20736 0.73946 0.91109 0.0
Fe375 Fe 0.20472 0.73345 1.02241 0.0
O376 O 0.18012 0.73646 0.96681 0.0
Fe377 Fe 0.12621 0.73647 0.96694 0.0
O378 O 0.10752 0.71389 0.9062 0.0
O379 O 0.15506 0.68971 0.88523 0.0
O380 O 0.22735 0.6985 0.92747 0.0
C381 C 0.22505 0.6763 0.96526 0.0
C382 C 0.18066 0.80825 0.90971 0.0
O383 O 0.21065 0.68396 1.00408 0.0
C384 C 0.16515 0.78474 0.05336 0.0
O385 O 0.26278 0.78894 0.92925 0.0
O386 O 0.26544 0.77441 1.00582 0.0
O387 O 0.15521 0.79481 0.94627 0.0
O388 O 0.19241 0.78211 0.88746 0.0
C389 C 0.10938 0.66472 1.02414 0.0
O390 O 0.20216 0.78318 1.04845 0.0
O391 O 0.13041 0.75905 1.02771 0.0
C392 C 0.28506 0.79659 0.96798 0.0
O393 O 0.14738 0.6908 1.04622 0.0
O394 O 0.09714 0.67813 0.98762 0.0
C395 C 0.11644 0.68813 0.88051 0.0
C396 C 0.18312 0.17602 0.75872 0.0
C397 C 0.19416 0.16233 0.80227 0.0
H398 H 0.14894 0.20847 0.72377 0.0
C399 C 0.1821 0.17598 0.84509 0.0
H400 H 0.19172 0.16621 0.72494 0.0
C401 C 0.15802 0.20085 0.84436 0.0
C402 C 0.14463 0.21219 0.80078 0.0
H403 H 0.19008 0.16628 0.87929 0.0
H404 H 0.14807 0.20933 0.87813 0.0
C405 C 0.15841 0.20027 0.75799 0.0
C406 C 0.94701 0.09429 0.84465 0.0
C407 C 0.96081 0.12001 0.80189 0.0
H408 H 0.91362 0.02686 0.87759 0.0
C409 C 0.94737 0.09527 0.75829 0.0
H410 H 0.95652 0.11197 0.87889 0.0
C411 C 0.92321 0.04628 0.75748 0.0
C412 C 0.91113 0.02055 0.80025 0.0
H413 H 0.95731 0.1137 0.72454 0.0
H414 H 0.9152 0.02859 0.72324 0.0
C415 C 0.92223 0.0453 0.84384 0.0
C416 C 0.02752 0.93944 0.75832 0.0
C417 C 1.00299 0.92839 0.80191 0.0
H418 H 0.09392 0.97371 0.72331 0.0
C419 C 0.02882 0.94054 0.84469 0.0
H420 H 1.00899 0.93077 0.72456 0.0
C421 C 0.07771 0.96471 0.84391 0.0
C422 C 0.10223 0.9781 0.80031 0.0
H423 H 1.0113 0.93257 0.87892 0.0
H424 H 0.09623 0.97471 0.87766 0.0
C425 C 0.0764 0.96424 0.75754 0.0
C426 C 0.94767 0.93917 0.25681 0.0
C427 C 0.961 0.92786 0.30043 0.0
H428 H 0.91564 0.97373 0.22175 0.0
C429 C 0.94716 0.9398 0.34318 0.0
H430 H 0.95767 0.93068 0.22308 0.0
C431 C 0.92244 0.96402 0.34235 0.0
C432 C 0.91145 0.97769 0.29875 0.0
H433 H 0.95659 0.93161 0.37742 0.0
H434 H 0.91379 0.97384 0.3761 0.0
C435 C 0.92358 0.96404 0.25599 0.0
C436 C 0.15841 0.04546 0.25642 0.0
C437 C 0.14481 0.01981 0.29924 0.0
H438 H 0.19162 0.11282 0.22335 0.0
C439 C 0.15845 0.04464 0.34279 0.0
H440 H 0.14874 0.02771 0.22222 0.0
C441 C 0.18259 0.09363 0.3435 0.0
C442 C 0.19446 0.11927 0.30068 0.0
H443 H 0.14867 0.02626 0.37658 0.0
H444 H 0.19076 0.11138 0.37771 0.0
C445 C 0.18318 0.09445 0.25713 0.0
C446 C 0.07802 0.20034 0.3426 0.0
C447 C 0.10254 0.21145 0.299 0.0
H448 H 1.01162 0.16606 0.37762 0.0
C449 C 0.0767 0.19941 0.25623 0.0
H450 H 0.09655 0.20892 0.37635 0.0
C451 C 0.02782 0.17529 0.25703 0.0
C452 C 1.00329 0.16183 0.30062 0.0
H453 H 0.09422 0.20743 0.222 0.0
H454 H 1.00929 0.16537 0.22327 0.0
C455 C 0.02913 0.17559 0.34339 0.0
C456 C 0.84866 0.50924 0.1785 0.0
C457 C 0.8608 0.4956 0.13574 0.0
H458 H 0.81455 0.54258 0.21141 0.0
C459 C 0.84982 0.50928 0.09214 0.0
H460 H 0.85659 0.49955 0.21274 0.0
C461 C 0.82509 0.5335 0.09131 0.0
C462 C 0.81124 0.54542 0.13406 0.0
H463 H 0.85848 0.49947 0.05839 0.0
H464 H 0.81567 0.54169 0.05706 0.0
C465 C 0.82456 0.5341 0.17768 0.0
C466 C 0.58976 0.37959 0.09075 0.0
C467 C 0.57778 0.35391 0.13355 0.0
H468 H 0.62376 0.44697 0.05773 0.0
C469 C 0.58896 0.3787 0.17712 0.0
H470 H 0.58167 0.36186 0.05654 0.0
C471 C 0.61372 0.42768 0.17787 0.0
C472 C 0.62742 0.45336 0.13508 0.0
H473 H 0.58043 0.3603 0.21089 0.0
H474 H 0.6233 0.44541 0.21209 0.0
C475 C 0.61389 0.42857 0.0915 0.0
C476 C 0.69427 0.27287 0.09176 0.0
C477 C 0.66971 0.26177 0.13533 0.0
H478 H 0.7607 0.30717 0.05679 0.0
C479 C 0.69551 0.27384 0.17813 0.0
H480 H 0.67577 0.26427 0.05799 0.0
C481 C 0.7444 0.29798 0.17738 0.0
C482 C 0.76896 0.31143 0.1338 0.0
H483 H 0.67796 0.26582 0.21234 0.0
H484 H 0.7629 0.30792 0.21115 0.0
C485 C 0.74316 0.29765 0.09101 0.0
C486 C 0.61382 0.27303 0.67633 0.0
C487 C 0.62763 0.2611 0.63356 0.0
H488 H 0.5805 0.3071 0.70933 0.0
C489 C 0.61427 0.27243 0.58996 0.0
H490 H 0.62326 0.26483 0.71056 0.0
C491 C 0.5902 0.29732 0.58919 0.0
C492 C 0.57811 0.31097 0.63199 0.0
H493 H 0.62424 0.26394 0.55621 0.0
H494 H 0.58225 0.30702 0.55497 0.0
C495 C 0.58912 0.29728 0.67556 0.0
C496 C 0.82509 0.37888 0.58977 0.0
C497 C 0.81142 0.35315 0.63253 0.0
H498 H 0.85838 0.4463 0.55683 0.0
C499 C 0.82497 0.3779 0.67613 0.0
H500 H 0.8155 0.36119 0.55553 0.0
C501 C 0.84912 0.42688 0.67694 0.0
C502 C 0.86108 0.45261 0.63418 0.0
H503 H 0.81512 0.35946 0.70988 0.0
H504 H 0.85722 0.44457 0.71118 0.0
C505 C 0.84987 0.42787 0.59058 0.0
C506 C 0.69582 0.50901 0.67678 0.0
C507 C 0.67002 0.49519 0.63399 0.0
H508 H 0.76319 0.54241 0.70982 0.0
C509 C 0.69459 0.50861 0.59042 0.0
H510 H 0.67827 0.49951 0.711 0.0
C511 C 0.74347 0.53275 0.58967 0.0
C512 C 0.76927 0.54485 0.63247 0.0
H513 H 0.67608 0.49864 0.55664 0.0
H514 H 0.76103 0.54074 0.55546 0.0
C515 C 0.7447 0.53379 0.67604 0.0
C516 C 0.51539 0.84259 0.51162 0.0
C517 C 0.52748 0.82894 0.46882 0.0
H518 H 0.48132 0.87592 0.54462 0.0
C519 C 0.51643 0.8426 0.42526 0.0
H520 H 0.52337 0.8329 0.54583 0.0
C521 C 0.4917 0.86682 0.42449 0.0
C522 C 0.47789 0.87874 0.46727 0.0
H523 H 0.52505 0.83279 0.39148 0.0
H524 H 0.48223 0.875 0.39026 0.0
C525 C 0.49128 0.86744 0.51086 0.0
C526 C 0.28037 0.76104 0.51136 0.0
C527 C 0.29406 0.7867 0.46855 0.0
H528 H 0.24708 0.69367 0.54442 0.0
C529 C 0.28052 0.76188 0.42499 0.0
H530 H 0.28996 0.77879 0.54557 0.0
C531 C 0.25637 0.71289 0.42427 0.0
C532 C 0.24441 0.68724 0.46709 0.0
H533 H 0.29038 0.78026 0.39121 0.0
H534 H 0.24828 0.69515 0.39007 0.0
C535 C 0.2556 0.71205 0.51064 0.0
C536 C 0.36227 0.60726 0.51145 0.0
C537 C 0.33639 0.59516 0.4687 0.0
H538 H 0.42972 0.64135 0.54434 0.0
C539 C 0.36087 0.60623 0.42508 0.0
H540 H 0.34479 0.59927 0.5457 0.0
C541 C 0.40976 0.63099 0.42423 0.0
C542 C 0.43563 0.6448 0.46698 0.0
H543 H 0.34231 0.5976 0.39134 0.0
H544 H 0.42724 0.64049 0.38998 0.0
C545 C 0.41115 0.63139 0.5106 0.0
C546 C 0.25583 0.63063 1.00913 0.0
C547 C 0.24476 0.64431 0.96558 0.0
H548 H 0.29003 0.5982 1.04406 0.0
C549 C 0.2568 0.63065 0.92276 0.0
H550 H 0.24725 0.64046 1.04292 0.0
C551 C 0.28089 0.60577 0.92348 0.0
C552 C 0.2943 0.59446 0.96705 0.0
H553 H 0.2488 0.64034 0.88856 0.0
H554 H 0.29082 0.59728 0.88971 0.0
C555 C 0.28054 0.60639 1.00985 0.0
C556 C 0.51656 0.76117 0.9237 0.0
C557 C 0.52779 0.78595 0.96727 0.0
H558 H 0.48216 0.69447 0.88871 0.0
C559 C 0.51585 0.76027 1.01006 0.0
H560 H 0.52506 0.77958 0.88993 0.0
C561 C 0.4917 0.71128 1.0093 0.0
C562 C 0.47812 0.68649 0.96572 0.0
H563 H 0.52397 0.77798 1.04428 0.0
H564 H 0.48186 0.69287 1.04307 0.0
C565 C 0.49178 0.71218 0.92293 0.0
C566 C 0.36255 0.84233 1.0102 0.0
C567 C 0.33667 0.82849 0.96746 0.0
H568 H 0.43 0.87574 1.04309 0.0
C569 C 0.36115 0.84188 0.92384 0.0
H570 H 0.34507 0.83286 1.04445 0.0
C571 C 0.41004 0.86601 0.92299 0.0
C572 C 0.43592 0.87813 0.96573 0.0
H573 H 0.34258 0.83189 0.8901 0.0
H574 H 0.42752 0.87398 0.88874 0.0
C575 C 0.41144 0.8671 1.00936 0.0
C576 C 0.14971 0.42136 0.68176 0.0
C577 C 0.12605 0.37264 0.67467 0.0
H578 H 0.18239 0.48951 0.64949 0.0
C579 C 0.12073 0.35576 0.62759 0.0
H580 H 0.15394 0.43549 0.71755 0.0
C581 C 0.13582 0.38674 0.58854 0.0
C582 C 0.15809 0.43541 0.59559 0.0
H583 H 0.10202 0.31854 0.62077 0.0
H584 H 0.1285 0.37255 0.55261 0.0
C585 C 0.1662 0.45237 0.64278 0.0
C586 C 0.67116 0.80302 0.64208 0.0
C587 C 0.68783 0.81021 0.59489 0.0
H588 H 0.68834 0.80909 0.71695 0.0
C589 C 0.73641 0.83532 0.58774 0.0
H590 H 0.63407 0.78311 0.64889 0.0
C591 C 0.76754 0.85148 0.62672 0.0
C592 C 0.75087 0.84151 0.67389 0.0
H593 H 0.75036 0.84094 0.55182 0.0
H594 H 0.80463 0.86888 0.61989 0.0
C595 C 0.70229 0.81779 0.68106 0.0
C596 C 0.27158 1.00458 0.62645 0.0
C597 C 0.28077 0.99693 0.67365 0.0
H598 H 0.28289 0.99891 0.5516 0.0
C599 C 0.30397 0.97147 0.68078 0.0
H600 H 0.25463 0.02478 0.61967 0.0
C601 C 0.31895 0.95539 0.64177 0.0
C602 C 0.31253 0.9658 0.59462 0.0
H603 H 0.3121 0.96551 0.7167 0.0
H604 H 0.33841 0.93768 0.64861 0.0
C605 C 0.28795 0.98989 0.58747 0.0
C606 C 0.43418 0.18477 0.96011 0.0
C607 C 0.41754 0.17479 1.00729 0.0
H608 H 0.41696 0.17423 0.88521 0.0
C609 C 0.36897 0.15105 1.01448 0.0
H610 H 0.47127 0.20219 0.95325 0.0
C611 C 0.33781 0.13628 0.97553 0.0
C612 C 0.35445 0.14349 0.92832 0.0
H613 H 0.35504 0.14235 0.05038 0.0
H614 H 0.30073 0.11636 0.98236 0.0
C615 C 0.40302 0.16861 0.92114 0.0
C616 C 0.95403 0.32242 0.92129 0.0
C617 C 0.97912 0.29885 0.92843 0.0
H618 H 0.92039 0.357 0.95349 0.0
C619 C 0.9862 0.28908 0.9756 0.0
H620 H 0.94848 0.33097 0.8854 0.0
C621 C 0.97134 0.30526 1.0146 0.0
C622 C 0.94762 0.33022 1.00747 0.0
H623 H 1.00608 0.2718 0.98241 0.0
H624 H 0.97995 0.29979 0.0505 0.0
C625 C 0.93778 0.33721 0.96029 0.0
C626 C 0.78604 0.68865 0.96023 0.0
C627 C 0.79274 0.7056 1.00738 0.0
H628 H 0.79263 0.70546 0.8853 0.0
C629 C 0.81754 0.75432 1.01449 0.0
H630 H 0.76639 0.65145 0.95343 0.0
C631 C 0.83387 0.78531 0.97547 0.0
C632 C 0.8244 0.76835 0.92829 0.0
H633 H 0.8228 0.76849 0.05035 0.0
H634 H 0.85101 0.8225 0.98224 0.0
C635 C 0.80097 0.71964 0.9212 0.0
C636 C 0.93774 0.68815 0.45923 0.0
C637 C 0.94808 0.70506 0.5064 0.0
H638 H 0.94803 0.70496 0.3843 0.0
C639 C 0.97229 0.75379 0.5135 0.0
H640 H 0.91996 0.65094 0.45243 0.0
C641 C 0.98714 0.78479 0.47449 0.0
C642 C 0.97953 0.76784 0.42731 0.0
H643 H 0.98128 0.76795 0.54937 0.0
H644 H 1.00739 0.82197 0.48127 0.0
C645 C 0.95397 0.71914 0.4202 0.0
C646 C 0.33816 0.28838 0.474 0.0
C647 C 0.3548 0.29845 0.42683 0.0
H648 H 0.35537 0.29884 0.5489 0.0
C649 C 0.40338 0.3223 0.41964 0.0
H650 H 0.30107 0.27087 0.48086 0.0
C651 C 0.43454 0.33708 0.45859 0.0
C652 C 0.41788 0.32977 0.5058 0.0
H653 H 0.4173 0.33107 0.38374 0.0
H654 H 0.47161 0.35708 0.45177 0.0
C655 C 0.36931 0.30454 0.51298 0.0
C656 C 0.81785 0.15033 0.51333 0.0
C657 C 0.79306 0.17422 0.50622 0.0
H658 H 0.85128 0.11557 0.4811 0.0
C659 C 0.78637 0.18439 0.45906 0.0
H660 H 0.82311 0.14149 0.5492 0.0
C661 C 0.80128 0.16827 0.42004 0.0
C662 C 0.82469 0.14301 0.42714 0.0
H663 H 0.76674 0.20192 0.45226 0.0
H664 H 0.79295 0.17404 0.38413 0.0
C665 C 0.83416 0.13561 0.47433 0.0
C666 C 0.70263 0.97114 0.17962 0.0
C667 C 0.7512 0.9964 0.17247 0.0
H668 H 0.63441 0.93745 0.14747 0.0
C669 C 0.76788 1.00375 0.12528 0.0
H670 H 0.68867 0.9654 0.21554 0.0
C671 C 0.73674 0.98898 0.0863 0.0
C672 C 0.68816 0.9651 0.09347 0.0
H673 H 0.80496 0.02378 0.11847 0.0
H674 H 0.75069 0.99779 0.05041 0.0
C675 C 0.6715 0.95498 0.14063 0.0
C676 C 0.16703 0.80159 0.14156 0.0
C677 C 0.15822 0.80964 0.09437 0.0
H678 H 0.15536 0.8069 0.21639 0.0
C679 C 0.13534 0.83541 0.08726 0.0
H680 H 0.18372 0.78114 0.14832 0.0
C681 C 0.12031 0.85142 0.12629 0.0
C682 C 0.12633 0.84062 0.17342 0.0
H683 H 0.12749 0.84167 0.05134 0.0
H684 H 0.1011 0.86938 0.11945 0.0
C685 C 0.1506 0.81621 0.18055 0.0
C686 C 0.28822 0.38547 0.08626 0.0
C687 C 0.31286 0.4342 0.09338 0.0
H688 H 0.25482 0.31728 0.11848 0.0
C689 C 0.31934 0.45111 0.14054 0.0
H690 H 0.28312 0.37132 0.0504 0.0
C691 C 0.30435 0.42011 0.17956 0.0
C692 C 0.28107 0.3714 0.17245 0.0
H693 H 0.33885 0.48831 0.14735 0.0
H694 H 0.31252 0.43428 0.21547 0.0
C695 C 0.27183 0.35446 0.12526 0.0
C696 C 0.10066 0.51842 0.29398 0.0
C697 C 0.08401 0.50797 0.34113 0.0
H698 H 0.08349 0.50832 0.21906 0.0
C699 C 0.03543 0.48382 0.34831 0.0
H700 H 0.13776 0.53617 0.28714 0.0
C701 C 1.00429 0.46912 0.30934 0.0
C702 C 0.02096 0.47681 0.26214 0.0
H703 H 0.0215 0.47477 0.38418 0.0
H704 H 0.96722 0.44888 0.31614 0.0
C705 C 0.06953 0.50233 0.25499 0.0
C706 C 0.63732 0.63813 0.34734 0.0
C707 C 0.6141 0.66358 0.34024 0.0
H708 H 0.67174 0.60435 0.31514 0.0
C709 C 0.60486 0.6712 0.29305 0.0
H710 H 0.64549 0.6322 0.38326 0.0
C711 C 0.62119 0.65649 0.25405 0.0
C712 C 0.64579 0.63241 0.26117 0.0
H713 H 0.58788 0.69138 0.28628 0.0
H714 H 0.6161 0.6655 0.21819 0.0
C715 C 0.65226 0.62204 0.30832 0.0
C716 C 0.46776 0.05303 0.2546 0.0
C717 C 0.49109 0.10174 0.2617 0.0
H718 H 0.43322 0.98483 0.2868 0.0
C719 C 0.50041 0.11867 0.3089 0.0
H720 H 0.45953 0.03886 0.21868 0.0
C721 C 0.48404 0.08766 0.3479 0.0
C722 C 0.45933 0.03894 0.34077 0.0
H723 H 0.51747 0.15586 0.31568 0.0
H724 H 0.48919 0.10182 0.38376 0.0
C725 C 0.45278 0.02203 0.29362 0.0
C726 C 0.62145 0.05211 0.75291 0.0
C727 C 0.64611 0.10083 0.76001 0.0
H728 H 0.58807 0.98393 0.78516 0.0
C729 C 0.65263 0.11777 0.80716 0.0
H730 H 0.61632 0.03794 0.71705 0.0
C731 C 0.63767 0.08678 0.8462 0.0
C732 C 0.61438 0.03807 0.83911 0.0
H733 H 0.67216 0.15497 0.81396 0.0
H734 H 0.64588 0.10097 0.8821 0.0
C735 C 0.60509 0.02111 0.79193 0.0
C736 C 0.03575 0.63824 0.84691 0.0
C737 C 0.08433 0.66302 0.83972 0.0
H738 H 0.96752 0.60489 0.81478 0.0
C739 C 0.10097 0.66979 0.79253 0.0
H740 H 0.02182 0.63294 0.88281 0.0
C741 C 0.06982 0.65495 0.75356 0.0
C742 C 0.02126 0.63156 0.76075 0.0
H743 H 0.13806 0.68943 0.78569 0.0
H744 H 0.08377 0.66333 0.71765 0.0
C745 C 1.0046 0.62201 0.80794 0.0
C746 C 0.5007 0.4688 0.80768 0.0
C747 C 0.49137 0.4763 0.76048 0.0
H748 H 0.48951 0.47459 0.88254 0.0
C749 C 0.46804 0.50164 0.75335 0.0
H750 H 0.51776 0.44871 0.81447 0.0
C751 C 0.45308 0.51773 0.79236 0.0
C752 C 0.45964 0.50747 0.83952 0.0
H753 H 0.4598 0.50749 0.71744 0.0
H754 H 0.43352 0.53534 0.78553 0.0
C755 C 0.48435 0.48351 0.84666 0.0
C756 C 0.19196 0.3601 0.90638 0.0
C757 C 0.17201 0.37732 0.87402 0.0
H758 H 0.25373 0.37198 0.94164 0.0
C759 C 0.1996 0.42066 0.85178 0.0
H760 H 0.17149 0.3264 0.92333 0.0
C761 C 0.24673 0.44642 0.86163 0.0
C762 C 0.26667 0.4292 0.89398 0.0
H763 H 0.18496 0.43454 0.82636 0.0
H764 H 0.2672 0.48012 0.84468 0.0
C765 C 0.23909 0.38586 0.91623 0.0
C766 C 0.70242 0.86635 0.85112 0.0
C767 C 0.74585 0.88245 0.87336 0.0
H768 H 0.64245 0.87367 0.84435 0.0
C769 C 0.76269 0.91941 0.90602 0.0
H770 H 0.68882 0.83796 0.82548 0.0
C771 C 0.73645 0.94022 0.9162 0.0
C772 C 0.69302 0.9241 0.89397 0.0
H773 H 0.79643 0.93289 0.92297 0.0
H774 H 0.75006 0.9686 0.94184 0.0
C775 C 0.67619 0.88715 0.8613 0.0
C776 C 0.18327 0.88378 0.91715 0.0
C777 C 0.19869 0.85607 0.89446 0.0
H778 H 0.19105 0.95137 0.92413 0.0
C779 C 0.23486 0.87578 0.86112 0.0
H780 H 0.15551 0.86932 0.94332 0.0
C781 C 0.25556 0.92281 0.85074 0.0
C782 C 0.24015 0.95052 0.87344 0.0
H783 H 0.24778 0.85522 0.84376 0.0
H784 H 0.28332 0.93726 0.82457 0.0
C785 C 0.20398 0.9308 0.90677 0.0
C786 C 0.36963 0.25598 0.68336 0.0
C787 C 0.41282 0.28365 0.70593 0.0
H788 H 0.30958 0.18859 0.67707 0.0
C789 C 0.42914 0.26409 0.73974 0.0
H790 H 0.35641 0.27031 0.65684 0.0
C791 C 0.40261 0.21724 0.75075 0.0
C792 C 0.35942 0.18957 0.72819 0.0
H793 H 0.46266 0.28463 0.75704 0.0
H794 H 0.41583 0.20291 0.77727 0.0
C795 C 0.3431 0.20913 0.69437 0.0
C796 C 0.85825 0.25163 0.74007 0.0
C797 C 0.83889 0.21547 0.70645 0.0
H798 H 0.91933 0.30038 0.77723 0.0
C799 C 0.86685 0.20036 0.68387 0.0
H800 H 0.83748 0.26432 0.75737 0.0
C801 C 0.91376 0.22137 0.69465 0.0
C802 C 0.93312 0.25754 0.72825 0.0
H803 H 0.85268 0.17262 0.65749 0.0
H804 H 0.93453 0.20868 0.67735 0.0
C805 C 0.90516 0.27264 0.75085 0.0
C806 C 0.90162 0.77968 0.69481 0.0
C807 C 0.86534 0.76295 0.72803 0.0
H808 H 0.95023 0.76698 0.6581 0.0
C809 C 0.84984 0.71966 0.75035 0.0
H810 H 0.91461 0.8133 0.67774 0.0
C811 C 0.8706 0.69345 0.7397 0.0
C812 C 0.90688 0.71018 0.70649 0.0
H813 H 0.82199 0.70614 0.77641 0.0
H814 H 0.85761 0.65982 0.75677 0.0
C815 C 0.92237 0.75346 0.68416 0.0
C816 C 0.90547 0.71945 0.25021 0.0
C817 C 0.9333 0.76252 0.22756 0.0
H818 H 0.83773 0.66022 0.25738 0.0
C819 C 0.91365 0.77949 0.19457 0.0
H820 H 0.91987 0.70576 0.27612 0.0
C821 C 0.86657 0.75374 0.18446 0.0
C822 C 0.83874 0.71067 0.20709 0.0
H823 H 0.93431 0.81297 0.17727 0.0
H824 H 0.85217 0.76743 0.15853 0.0
C825 C 0.85839 0.6937 0.24009 0.0
C826 C 0.40304 0.27341 0.24974 0.0
C827 C 0.35968 0.25741 0.22739 0.0
H828 H 0.46297 0.26601 0.25658 0.0
C829 C 0.34293 0.22059 0.19457 0.0
H830 H 0.41658 0.30169 0.2755 0.0
C831 C 0.36918 0.1998 0.18435 0.0
C832 C 0.41253 0.2158 0.2067 0.0
H833 H 0.30925 0.2072 0.1775 0.0
H834 H 0.35564 0.17153 0.15858 0.0
C835 C 0.42929 0.25262 0.23952 0.0
C836 C 0.84932 0.21679 0.24971 0.0
C837 C 0.86531 0.18936 0.22747 0.0
H838 H 0.85671 0.28423 0.25657 0.0
C839 C 0.90212 0.2094 0.19488 0.0
H840 H 0.82105 0.20207 0.27529 0.0
C841 C 0.92289 0.25649 0.18479 0.0
C842 C 0.9069 0.28392 0.20703 0.0
H843 H 0.9155 0.18904 0.17793 0.0
H844 H 0.95117 0.27121 0.15921 0.0
C845 C 0.8701 0.26388 0.23962 0.0
C846 C 0.76255 0.93071 0.40625 0.0
C847 C 0.74612 0.95034 0.37264 0.0
H848 H 0.74934 0.86945 0.44355 0.0
C849 C 0.70285 0.92272 0.35019 0.0
H850 H 0.79614 0.95121 0.42344 0.0
C851 C 0.67635 0.87586 0.36113 0.0
C852 C 0.69277 0.85623 0.39475 0.0
H853 H 0.68955 0.93712 0.32383 0.0
H854 H 0.64276 0.85536 0.34394 0.0
C855 C 0.73605 0.88384 0.41719 0.0
C856 C 0.19994 0.86663 0.35104 0.0
C857 C 0.1722 0.88215 0.37335 0.0
H858 H 0.26751 0.87467 0.34453 0.0
C859 C 0.1918 0.91874 0.40647 0.0
H860 H 0.18557 0.83855 0.32505 0.0
C861 C 0.23877 0.93978 0.41702 0.0
C862 C 0.26652 0.92428 0.3947 0.0
H863 H 0.1712 0.93175 0.42353 0.0
H864 H 0.25314 0.96787 0.44301 0.0
C865 C 0.24691 0.88768 0.36159 0.0
C866 C 0.23443 0.44608 0.36108 0.0
C867 C 0.19875 0.42963 0.39497 0.0
H868 H 0.28249 0.43316 0.32355 0.0
C869 C 0.18379 0.38662 0.41769 0.0
H870 H 0.24699 0.47948 0.34365 0.0
C871 C 0.20448 0.36041 0.40676 0.0
C872 C 0.24017 0.37685 0.37287 0.0
H873 H 0.15642 0.37332 0.44428 0.0
H874 H 0.19192 0.32701 0.42419 0.0
C875 C 0.25512 0.41986 0.35014 0.0
C876 C 0.06946 0.55057 0.08431 0.0
C877 C 0.02616 0.52297 0.06192 0.0
H878 H 0.12959 0.61791 0.09051 0.0
C879 C 1.00971 0.54263 1.02835 0.0
H880 H 0.08277 0.53616 0.11064 0.0
C881 C 0.03623 0.58949 1.0174 0.0
C882 C 0.07953 0.61709 1.03979 0.0
H883 H 0.97609 0.52215 1.0112 0.0
H884 H 0.02291 0.6039 0.99107 0.0
C885 C 0.09597 0.59743 0.07336 0.0
C886 C 0.53353 0.5336 1.01708 0.0
C887 C 0.50569 0.54893 1.03951 0.0
H888 H 0.60114 0.54174 1.01058 0.0
C889 C 0.5252 0.58536 0.07283 0.0
H890 H 0.51924 0.50565 0.99093 0.0
C891 C 0.57214 0.60639 0.08348 0.0
C892 C 0.59997 0.59103 0.06106 0.0
H893 H 0.50453 0.59824 0.08998 0.0
H894 H 0.58642 0.63433 0.10963 0.0
C895 C 0.58048 0.55462 1.02773 0.0
C896 C 0.51702 0.05325 0.08404 0.0
C897 C 0.53214 0.09634 0.06142 0.0
H898 H 0.52503 0.99357 0.09053 0.0
C899 C 0.56804 0.11288 1.02776 0.0
H900 H 0.48948 0.03988 0.11045 0.0
C901 C 0.58875 0.08667 1.01694 0.0
C902 C 0.57361 0.04357 1.03954 0.0
H903 H 0.58073 0.14635 1.01044 0.0
H904 H 0.61629 0.10004 0.99053 0.0
C905 C 0.53773 0.02704 0.07321 0.0
C906 C 0.57249 0.05257 0.58272 0.0
C907 C 0.60014 0.09585 0.5604 0.0
H908 H 0.50485 0.99317 0.5898 0.0
C909 C 0.58029 0.11301 0.52785 0.0
H910 H 0.58705 0.03873 0.60827 0.0
C911 C 0.53318 0.08725 0.51791 0.0
C912 C 0.50552 0.04398 0.54025 0.0
H913 H 0.60082 0.14665 0.51083 0.0
H914 H 0.51861 0.10109 0.49236 0.0
C915 C 0.52538 0.02681 0.57278 0.0
C916 C 1.00968 0.55387 0.52843 0.0
C917 C 0.02642 0.59065 0.56129 0.0
H918 H 0.0224 0.50483 0.49239 0.0
C919 C 0.06974 0.60658 0.5837 0.0
H920 H 0.97603 0.54053 0.51132 0.0
C921 C 0.09598 0.58578 0.57348 0.0
C922 C 0.07925 0.54902 0.54059 0.0
H923 H 0.08327 0.63482 0.60951 0.0
H924 H 0.12963 0.59913 0.59058 0.0
C925 C 0.03592 0.53307 0.5182 0.0
C926 C 0.53722 0.59741 0.57308 0.0
C927 C 0.57362 0.61724 0.54003 0.0
H928 H 0.48853 0.53579 0.60929 0.0
C929 C 0.58925 0.58964 0.51749 0.0
H930 H 0.52412 0.61789 0.5903 0.0
C931 C 0.56851 0.54259 0.52775 0.0
C932 C 0.5321 0.52275 0.5608 0.0
H933 H 0.61721 0.6042 0.49154 0.0
H934 H 0.58161 0.52211 0.51053 0.0
C935 C 0.51648 0.55035 0.58335 0.0
loop_
_geom_bond_atom_site_label_1
_geom_bond_atom_site_label_2
_geom_bond_distance
_geom_bond_site_symmetry_2
_ccdc_geom_bond_type
Fe0 O2 1.918 . S
Fe0 O5 1.997 . S
Fe0 O6 2.002 . S
Fe0 O11 1.976 . S
Fe0 O14 1.996 1_455 S
Fe1 O2 1.918 . S
Fe1 O9 1.997 . S
Fe1 O12 1.996 . S
Fe1 O16 1.976 . S
Fe1 O19 2.002 . S
O2 Fe0 1.918 . S
O2 Fe1 1.918 . S
O2 Fe3 1.918 . S
Fe3 O2 1.918 . S
Fe3 O4 2.002 . S
Fe3 O13 1.976 1_455 S
Fe3 O17 1.996 1_455 S
Fe3 O20 1.997 . S
O4 Fe3 2.002 . S
O4 C21 1.295 . S
O5 Fe0 1.997 . S
O5 C21 1.235 . S
O6 Fe0 2.002 . S
O6 C7 1.295 . S
C7 O6 1.295 . S
C7 O9 1.235 . S
C8 O13 1.287 . S
C8 O14 1.255 . S
O9 Fe1 1.997 . S
O9 C7 1.235 . S
C10 O16 1.287 1_655 S
C10 O17 1.255 . S
O11 Fe0 1.976 . S
O11 C18 1.287 . S
O12 Fe1 1.996 . S
O12 C18 1.255 . S
O13 Fe3 1.976 1_655 S
O13 C8 1.287 . S
O14 Fe0 1.996 1_655 S
O14 C8 1.255 . S
C15 O19 1.295 . S
C15 O20 1.235 . S
O16 Fe1 1.976 . S
O16 C10 1.287 1_455 S
O17 Fe3 1.996 1_655 S
O17 C10 1.255 . S
C18 O11 1.287 . S
C18 O12 1.255 . S
O19 Fe1 2.002 . S
O19 C15 1.295 . S
O20 Fe3 1.997 . S
O20 C15 1.235 . S
C21 O4 1.295 . S
C21 O5 1.235 . S
Fe22 O24 1.918 . S
Fe22 O27 1.997 . S
Fe22 O28 2.002 . S
Fe22 O33 1.976 . S
Fe22 O36 1.996 . S
Fe23 O24 1.918 . S
Fe23 O31 1.997 . S
Fe23 O34 1.996 . S
Fe23 O38 1.976 . S
Fe23 O41 2.002 . S
O24 Fe22 1.918 . S
O24 Fe23 1.918 . S
O24 Fe25 1.918 . S
Fe25 O24 1.918 . S
Fe25 O26 2.002 . S
Fe25 O35 1.976 . S
Fe25 O39 1.996 . S
Fe25 O42 1.997 . S
O26 Fe25 2.002 . S
O26 C43 1.295 . S
O27 Fe22 1.997 . S
O27 C43 1.235 . S
O28 Fe22 2.002 . S
O28 C29 1.295 . S
C29 O28 1.295 . S
C29 O31 1.235 . S
C30 O35 1.287 . S
C30 O36 1.255 . S
O31 Fe23 1.997 . S
O31 C29 1.235 . S
C32 O38 1.287 . S
C32 O39 1.255 . S
O33 Fe22 1.976 . S
O33 C40 1.287 . S
O34 Fe23 1.996 . S
O34 C40 1.255 . S
O35 Fe25 1.976 . S
O35 C30 1.287 . S
O36 Fe22 1.996 . S
O36 C30 1.255 . S
C37 O41 1.295 . S
C37 O42 1.235 . S
O38 Fe23 1.976 . S
O38 C32 1.287 . S
O39 Fe25 1.996 . S
O39 C32 1.255 . S
C40 O33 1.287 . S
C40 O34 1.255 . S
O41 Fe23 2.002 . S
O41 C37 1.295 . S
O42 Fe25 1.997 . S
O42 C37 1.235 . S
C43 O26 1.295 . S
C43 O27 1.235 . S
Fe44 O46 1.918 . S
Fe44 O49 1.997 . S
Fe44 O50 2.002 . S
Fe44 O55 1.976 . S
Fe44 O58 1.996 . S
Fe45 O46 1.918 . S
Fe45 O53 1.997 . S
Fe45 O56 1.996 . S
Fe45 O60 1.976 . S
Fe45 O63 2.002 . S
O46 Fe44 1.918 . S
O46 Fe45 1.918 . S
O46 Fe47 1.918 . S
Fe47 O46 1.918 . S
Fe47 O48 2.002 . S
Fe47 O57 1.976 1_545 S
Fe47 O61 1.996 . S
Fe47 O64 1.997 . S
O48 Fe47 2.002 . S
O48 C65 1.295 . S
O49 Fe44 1.997 . S
O49 C65 1.235 . S
O50 Fe44 2.002 . S
O50 C51 1.295 . S
C51 O50 1.295 . S
C51 O53 1.235 . S
C52 O57 1.287 . S
C52 O58 1.255 1_565 S
O53 Fe45 1.997 . S
O53 C51 1.235 . S
C54 O60 1.287 . S
C54 O61 1.255 . S
O55 Fe44 1.976 . S
O55 C62 1.287 . S
O56 Fe45 1.996 . S
O56 C62 1.255 . S
O57 Fe47 1.976 1_565 S
O57 C52 1.287 . S
O58 Fe44 1.996 . S
O58 C52 1.255 1_545 S
C59 O63 1.295 . S
C59 O64 1.235 . S
O60 Fe45 1.976 . S
O60 C54 1.287 . S
O61 Fe47 1.996 . S
O61 C54 1.255 . S
C62 O55 1.287 . S
C62 O56 1.255 . S
O63 Fe45 2.002 . S
O63 C59 1.295 . S
O64 Fe47 1.997 . S
O64 C59 1.235 . S
C65 O48 1.295 . S
C65 O49 1.235 . S
Fe66 O68 1.918 . S
Fe66 O71 1.997 1_455 S
Fe66 O72 2.002 1_455 S
Fe66 O77 1.976 . S
Fe66 O80 1.996 . S
Fe67 O68 1.918 . S
Fe67 O75 1.997 1_455 S
Fe67 O78 1.996 . S
Fe67 O82 1.976 . S
Fe67 O85 2.002 . S
O68 Fe66 1.918 . S
O68 Fe67 1.918 . S
O68 Fe69 1.918 . S
Fe69 O68 1.918 . S
Fe69 O70 2.002 . S
Fe69 O79 1.976 . S
Fe69 O83 1.996 . S
Fe69 O86 1.997 . S
O70 Fe69 2.002 . S
O70 C87 1.295 1_455 S
O71 Fe66 1.997 1_655 S
O71 C87 1.235 . S
O72 Fe66 2.002 1_655 S
O72 C73 1.295 . S
C73 O72 1.295 . S
C73 O75 1.235 . S
C74 O79 1.287 . S
C74 O80 1.255 . S
O75 Fe67 1.997 1_655 S
O75 C73 1.235 . S
C76 O82 1.287 . S
C76 O83 1.255 . S
O77 Fe66 1.976 . S
O77 C84 1.287 . S
O78 Fe67 1.996 . S
O78 C84 1.255 . S
O79 Fe69 1.976 . S
O79 C74 1.287 . S
O80 Fe66 1.996 . S
O80 C74 1.255 . S
C81 O85 1.295 . S
C81 O86 1.235 . S
O82 Fe67 1.976 . S
O82 C76 1.287 . S
O83 Fe69 1.996 . S
O83 C76 1.255 . S
C84 O77 1.287 . S
C84 O78 1.255 . S
O85 Fe67 2.002 . S
O85 C81 1.295 . S
O86 Fe69 1.997 . S
O86 C81 1.235 . S
C87 O70 1.295 1_655 S
C87 O71 1.235 . S
Fe88 O90 1.918 . S
Fe88 O93 1.997 . S
Fe88 O94 2.002 . S
Fe88 O99 1.976 . S
Fe88 O102 1.996 . S
Fe89 O90 1.918 . S
Fe89 O97 1.997 . S
Fe89 O100 1.996 . S
Fe89 O104 1.976 . S
Fe89 O107 2.002 . S
O90 Fe88 1.918 . S
O90 Fe89 1.918 . S
O90 Fe91 1.918 . S
Fe91 O90 1.918 . S
Fe91 O92 2.002 . S
Fe91 O101 1.976 . S
Fe91 O105 1.996 . S
Fe91 O108 1.997 . S
O92 Fe91 2.002 . S
O92 C109 1.295 . S
O93 Fe88 1.997 . S
O93 C109 1.235 . S
O94 Fe88 2.002 . S
O94 C95 1.295 . S
C95 O94 1.295 . S
C95 O97 1.235 . S
C96 O101 1.287 . S
C96 O102 1.255 . S
O97 Fe89 1.997 . S
O97 C95 1.235 . S
C98 O104 1.287 . S
C98 O105 1.255 . S
O99 Fe88 1.976 . S
O99 C106 1.287 . S
O100 Fe89 1.996 . S
O100 C106 1.255 . S
O101 Fe91 1.976 . S
O101 C96 1.287 . S
O102 Fe88 1.996 . S
O102 C96 1.255 . S
C103 O107 1.295 . S
C103 O108 1.235 . S
O104 Fe89 1.976 . S
O104 C98 1.287 . S
O105 Fe91 1.996 . S
O105 C98 1.255 . S
C106 O99 1.287 . S
C106 O100 1.255 . S
O107 Fe89 2.002 . S
O107 C103 1.295 . S
O108 Fe91 1.997 . S
O108 C103 1.235 . S
C109 O92 1.295 . S
C109 O93 1.235 . S
Fe110 O112 1.918 . S
Fe110 O115 1.997 . S
Fe110 O116 2.002 1_545 S
Fe110 O121 1.976 . S
Fe110 O124 1.996 . S
Fe111 O112 1.918 . S
Fe111 O119 1.997 . S
Fe111 O122 1.996 . S
Fe111 O126 1.976 . S
Fe111 O129 2.002 . S
O112 Fe110 1.918 . S
O112 Fe111 1.918 . S
O112 Fe113 1.918 . S
Fe113 O112 1.918 . S
Fe113 O114 2.002 . S
Fe113 O123 1.976 . S
Fe113 O127 1.996 . S
Fe113 O130 1.997 . S
O114 Fe113 2.002 . S
O114 C131 1.314 . S
O115 Fe110 1.997 . S
O115 C131 1.243 . S
O116 Fe110 2.002 1_565 S
O116 C117 1.295 . S
C117 O116 1.295 . S
C117 O119 1.235 1_565 S
C118 O123 1.287 . S
C118 O124 1.255 . S
O119 Fe111 1.997 . S
O119 C117 1.235 1_545 S
C120 O126 1.287 . S
C120 O127 1.255 . S
O121 Fe110 1.976 . S
O121 C128 1.287 . S
O122 Fe111 1.996 . S
O122 C128 1.255 . S
O123 Fe113 1.976 . S
O123 C118 1.287 . S
O124 Fe110 1.996 . S
O124 C118 1.255 . S
C125 O129 1.295 . S
C125 O130 1.235 . S
O126 Fe111 1.976 . S
O126 C120 1.287 . S
O127 Fe113 1.996 . S
O127 C120 1.255 . S
C128 O121 1.287 . S
C128 O122 1.255 . S
O129 Fe111 2.002 . S
O129 C125 1.295 . S
O130 Fe113 1.997 . S
O130 C125 1.235 . S
C131 O114 1.314 . S
C131 O115 1.243 . S
Fe132 O134 1.918 . S
Fe132 O137 1.997 . S
Fe132 O138 2.002 . S
Fe132 O143 1.976 . S
Fe132 O146 1.996 . S
Fe133 O134 1.918 . S
Fe133 O141 1.997 . S
Fe133 O144 1.996 . S
Fe133 O148 1.976 . S
Fe133 O151 2.002 . S
O134 Fe132 1.918 . S
O134 Fe133 1.918 . S
O134 Fe135 1.918 . S
Fe135 O134 1.918 . S
Fe135 O136 2.002 1_554 S
Fe135 O145 1.976 . S
Fe135 O149 1.996 . S
Fe135 O152 1.997 . S
O136 Fe135 2.002 1_556 S
O136 C153 1.295 . S
O137 Fe132 1.997 . S
O137 C153 1.235 1_554 S
O138 Fe132 2.002 . S
O138 C139 1.295 . S
C139 O138 1.295 . S
C139 O141 1.235 . S
C140 O145 1.287 . S
C140 O146 1.255 . S
O141 Fe133 1.997 . S
O141 C139 1.235 . S
C142 O148 1.287 . S
C142 O149 1.255 . S
O143 Fe132 1.976 . S
O143 C150 1.287 . S
O144 Fe133 1.996 . S
O144 C150 1.255 . S
O145 Fe135 1.976 . S
O145 C140 1.287 . S
O146 Fe132 1.996 . S
O146 C140 1.255 . S
C147 O151 1.295 . S
C147 O152 1.235 . S
O148 Fe133 1.976 . S
O148 C142 1.287 . S
O149 Fe135 1.996 . S
O149 C142 1.255 . S
C150 O143 1.287 . S
C150 O144 1.255 . S
O151 Fe133 2.002 . S
O151 C147 1.295 . S
O152 Fe135 1.997 . S
O152 C147 1.235 . S
C153 O136 1.295 . S
C153 O137 1.235 1_556 S
Fe154 O156 1.918 . S
Fe154 O159 1.997 . S
Fe154 O160 2.002 . S
Fe154 O165 1.976 . S
Fe154 O168 1.996 . S
Fe155 O156 1.918 . S
Fe155 O163 1.997 . S
Fe155 O166 1.996 . S
Fe155 O170 1.976 . S
Fe155 O173 2.002 . S
O156 Fe154 1.918 . S
O156 Fe155 1.918 . S
O156 Fe157 1.918 . S
Fe157 O156 1.918 . S
Fe157 O158 2.002 1_554 S
Fe157 O167 1.976 . S
Fe157 O171 1.996 . S
Fe157 O174 1.997 . S
O158 Fe157 2.002 1_556 S
O158 C175 1.295 . S
O159 Fe154 1.997 . S
O159 C175 1.235 1_554 S
O160 Fe154 2.002 . S
O160 C161 1.295 . S
C161 O160 1.295 . S
C161 O163 1.235 . S
C162 O167 1.287 . S
C162 O168 1.255 . S
O163 Fe155 1.997 . S
O163 C161 1.235 . S
C164 O170 1.287 . S
C164 O171 1.255 . S
O165 Fe154 1.976 . S
O165 C172 1.287 . S
O166 Fe155 1.996 . S
O166 C172 1.255 . S
O167 Fe157 1.976 . S
O167 C162 1.287 . S
O168 Fe154 1.996 . S
O168 C162 1.255 . S
C169 O173 1.295 . S
C169 O174 1.235 . S
O170 Fe155 1.976 . S
O170 C164 1.287 . S
O171 Fe157 1.996 . S
O171 C164 1.255 . S
C172 O165 1.287 . S
C172 O166 1.255 . S
O173 Fe155 2.002 . S
O173 C169 1.295 . S
O174 Fe157 1.997 . S
O174 C169 1.235 . S
C175 O158 1.295 . S
C175 O159 1.235 1_556 S
Fe176 O178 1.918 . S
Fe176 O181 1.997 . S
Fe176 O182 2.002 . S
Fe176 O187 1.976 . S
Fe176 O190 1.996 . S
Fe177 O178 1.918 . S
Fe177 O185 1.997 . S
Fe177 O188 1.996 . S
Fe177 O192 1.976 . S
Fe177 O195 2.002 1_554 S
O178 Fe176 1.918 . S
O178 Fe177 1.918 . S
O178 Fe179 1.918 . S
Fe179 O178 1.918 . S
Fe179 O180 2.002 . S
Fe179 O189 1.976 . S
Fe179 O193 1.996 1_655 S
Fe179 O196 1.997 . S
O180 Fe179 2.002 . S
O180 C197 1.295 . S
O181 Fe176 1.997 . S
O181 C197 1.235 . S
O182 Fe176 2.002 . S
O182 C183 1.295 . S
C183 O182 1.295 . S
C183 O185 1.235 . S
C184 O189 1.287 . S
C184 O190 1.255 . S
O185 Fe177 1.997 . S
O185 C183 1.235 . S
C186 O192 1.287 . S
C186 O193 1.255 1_655 S
O187 Fe176 1.976 . S
O187 C194 1.287 . S
O188 Fe177 1.996 . S
O188 C194 1.255 . S
O189 Fe179 1.976 . S
O189 C184 1.287 . S
O190 Fe176 1.996 . S
O190 C184 1.255 . S
C191 O195 1.295 . S
C191 O196 1.235 1_556 S
O192 Fe177 1.976 . S
O192 C186 1.287 . S
O193 Fe179 1.996 1_455 S
O193 C186 1.255 1_455 S
C194 O187 1.287 . S
C194 O188 1.255 . S
O195 Fe177 2.002 1_556 S
O195 C191 1.295 . S
O196 Fe179 1.997 . S
O196 C191 1.235 1_554 S
C197 O180 1.295 . S
C197 O181 1.235 . S
Fe198 O200 1.918 . S
Fe198 O203 1.997 . S
Fe198 O204 2.002 . S
Fe198 O209 1.976 . S
Fe198 O212 1.996 . S
Fe199 O200 1.918 . S
Fe199 O207 1.997 . S
Fe199 O210 1.996 . S
Fe199 O214 1.976 . S
Fe199 O217 2.002 . S
O200 Fe198 1.918 . S
O200 Fe199 1.918 . S
O200 Fe201 1.918 . S
Fe201 O200 1.918 . S
Fe201 O202 2.002 . S
Fe201 O211 1.976 . S
Fe201 O215 1.996 . S
Fe201 O218 1.997 . S
O202 Fe201 2.002 . S
O202 C219 1.295 . S
O203 Fe198 1.997 . S
O203 C219 1.235 . S
O204 Fe198 2.002 . S
O204 C205 1.295 . S
C205 O204 1.295 . S
C205 O207 1.235 . S
C206 O211 1.287 . S
C206 O212 1.255 . S
O207 Fe199 1.997 . S
O207 C205 1.235 . S
C208 O214 1.287 . S
C208 O215 1.255 . S
O209 Fe198 1.976 . S
O209 C216 1.287 . S
O210 Fe199 1.996 . S
O210 C216 1.255 . S
O211 Fe201 1.976 . S
O211 C206 1.287 . S
O212 Fe198 1.996 . S
O212 C206 1.255 . S
C213 O217 1.295 . S
C213 O218 1.235 . S
O214 Fe199 1.976 . S
O214 C208 1.287 . S
O215 Fe201 1.996 . S
O215 C208 1.255 . S
C216 O209 1.287 . S
C216 O210 1.255 . S
O217 Fe199 2.002 . S
O217 C213 1.295 . S
O218 Fe201 1.997 . S
O218 C213 1.235 . S
C219 O202 1.295 . S
C219 O203 1.235 . S
Fe220 O222 1.918 . S
Fe220 O225 1.997 . S
Fe220 O226 2.002 . S
Fe220 O231 1.976 . S
Fe220 O234 1.996 . S
Fe221 O222 1.918 . S
Fe221 O229 1.997 . S
Fe221 O232 1.996 . S
Fe221 O236 1.976 1_655 S
Fe221 O239 2.002 . S
O222 Fe220 1.918 . S
O222 Fe221 1.918 . S
O222 Fe223 1.918 . S
Fe223 O222 1.918 . S
Fe223 O224 2.002 . S
Fe223 O233 1.976 . S
Fe223 O237 1.996 . S
Fe223 O240 1.997 . S
O224 Fe223 2.002 . S
O224 C241 1.295 . S
O225 Fe220 1.997 . S
O225 C241 1.235 . S
O226 Fe220 2.002 . S
O226 C227 1.295 . S
C227 O226 1.295 . S
C227 O229 1.235 . S
C228 O233 1.287 . S
C228 O234 1.255 . S
O229 Fe221 1.997 . S
O229 C227 1.235 . S
C230 O236 1.287 1_655 S
C230 O237 1.255 . S
O231 Fe220 1.976 . S
O231 C238 1.287 . S
O232 Fe221 1.996 . S
O232 C238 1.255 . S
O233 Fe223 1.976 . S
O233 C228 1.287 . S
O234 Fe220 1.996 . S
O234 C228 1.255 . S
C235 O239 1.295 . S
C235 O240 1.235 . S
O236 Fe221 1.976 1_455 S
O236 C230 1.287 1_455 S
O237 Fe223 1.996 . S
O237 C230 1.255 . S
C238 O231 1.287 . S
C238 O232 1.255 . S
O239 Fe221 2.002 . S
O239 C235 1.295 . S
O240 Fe223 1.997 . S
O240 C235 1.235 . S
C241 O224 1.295 . S
C241 O225 1.235 . S
Fe242 O244 1.918 . S
Fe242 O247 1.997 . S
Fe242 O248 2.002 . S
Fe242 O253 1.976 . S
Fe242 O256 1.996 . S
Fe243 O244 1.918 . S
Fe243 O251 1.997 . S
Fe243 O254 1.996 . S
Fe243 O258 1.976 . S
Fe243 O261 2.002 . S
O244 Fe242 1.918 . S
O244 Fe243 1.918 . S
O244 Fe245 1.918 . S
Fe245 O244 1.918 . S
Fe245 O246 2.002 . S
Fe245 O255 1.976 . S
Fe245 O259 1.996 . S
Fe245 O262 1.997 . S
O246 Fe245 2.002 . S
O246 C263 1.295 . S
O247 Fe242 1.997 . S
O247 C263 1.235 . S
O248 Fe242 2.002 . S
O248 C249 1.295 . S
C249 O248 1.295 . S
C249 O251 1.235 . S
C250 O255 1.287 . S
C250 O256 1.255 . S
O251 Fe243 1.997 . S
O251 C249 1.235 . S
C252 O258 1.287 . S
C252 O259 1.255 . S
O253 Fe242 1.976 . S
O253 C260 1.287 . S
O254 Fe243 1.996 . S
O254 C260 1.255 . S
O255 Fe245 1.976 . S
O255 C250 1.287 . S
O256 Fe242 1.996 . S
O256 C250 1.255 . S
C257 O261 1.295 . S
C257 O262 1.235 . S
O258 Fe243 1.976 . S
O258 C252 1.287 . S
O259 Fe245 1.996 . S
O259 C252 1.255 . S
C260 O253 1.287 . S
C260 O254 1.255 . S
O261 Fe243 2.002 . S
O261 C257 1.295 . S
O262 Fe245 1.997 . S
O262 C257 1.235 . S
C263 O246 1.295 . S
C263 O247 1.235 . S
Fe264 O266 1.918 . S
Fe264 O269 1.997 . S
Fe264 O270 2.002 . S
Fe264 O275 1.976 . S
Fe264 O278 1.996 . S
Fe265 O266 1.918 . S
Fe265 O273 1.997 . S
Fe265 O276 1.996 . S
Fe265 O280 1.976 . S
Fe265 O283 2.002 . S
O266 Fe264 1.918 . S
O266 Fe265 1.918 . S
O266 Fe267 1.918 . S
Fe267 O266 1.918 . S
Fe267 O268 2.002 1_565 S
Fe267 O277 1.976 . S
Fe267 O281 1.996 . S
Fe267 O284 1.997 1_565 S
O268 Fe267 2.002 1_545 S
O268 C285 1.295 . S
O269 Fe264 1.997 . S
O269 C285 1.235 1_565 S
O270 Fe264 2.002 . S
O270 C271 1.295 . S
C271 O270 1.295 . S
C271 O273 1.235 . S
C272 O277 1.287 . S
C272 O278 1.255 . S
O273 Fe265 1.997 . S
O273 C271 1.235 . S
C274 O280 1.287 . S
C274 O281 1.255 . S
O275 Fe264 1.976 . S
O275 C282 1.287 . S
O276 Fe265 1.996 . S
O276 C282 1.255 . S
O277 Fe267 1.976 . S
O277 C272 1.287 . S
O278 Fe264 1.996 . S
O278 C272 1.255 . S
C279 O283 1.295 . S
C279 O284 1.235 1_565 S
O280 Fe265 1.976 . S
O280 C274 1.287 . S
O281 Fe267 1.996 . S
O281 C274 1.255 . S
C282 O275 1.287 . S
C282 O276 1.255 . S
O283 Fe265 2.002 . S
O283 C279 1.295 . S
O284 Fe267 1.997 1_545 S
O284 C279 1.235 1_545 S
C285 O268 1.295 . S
C285 O269 1.235 1_545 S
Fe286 O288 1.918 . S
Fe286 O291 1.997 . S
Fe286 O292 2.002 . S
Fe286 O297 1.976 . S
Fe286 O300 1.996 . S
Fe287 O288 1.918 . S
Fe287 O295 1.997 . S
Fe287 O298 1.996 . S
Fe287 O302 1.976 . S
Fe287 O305 2.002 . S
O288 Fe286 1.918 . S
O288 Fe287 1.918 . S
O288 Fe289 1.918 . S
Fe289 O288 1.918 . S
Fe289 O290 2.002 . S
Fe289 O299 1.976 . S
Fe289 O303 1.996 . S
Fe289 O306 1.997 . S
O290 Fe289 2.002 . S
O290 C307 1.295 . S
O291 Fe286 1.997 . S
O291 C307 1.235 . S
O292 Fe286 2.002 . S
O292 C293 1.295 . S
C293 O292 1.295 . S
C293 O295 1.235 . S
C294 O299 1.287 . S
C294 O300 1.255 . S
O295 Fe287 1.997 . S
O295 C293 1.235 . S
C296 O302 1.287 . S
C296 O303 1.255 . S
O297 Fe286 1.976 . S
O297 C304 1.287 . S
O298 Fe287 1.996 . S
O298 C304 1.255 . S
O299 Fe289 1.976 . S
O299 C294 1.287 . S
O300 Fe286 1.996 . S
O300 C294 1.255 . S
C301 O305 1.295 . S
C301 O306 1.235 . S
O302 Fe287 1.976 . S
O302 C296 1.287 . S
O303 Fe289 1.996 . S
O303 C296 1.255 . S
C304 O297 1.287 . S
C304 O298 1.255 . S
O305 Fe287 2.002 . S
O305 C301 1.295 . S
O306 Fe289 1.997 . S
O306 C301 1.235 . S
C307 O290 1.295 . S
C307 O291 1.235 . S
Fe308 O310 1.918 . S
Fe308 O313 1.997 . S
Fe308 O314 2.002 . S
Fe308 O319 1.976 . S
Fe308 O322 1.996 . S
Fe309 O310 1.918 . S
Fe309 O317 1.997 . S
Fe309 O320 1.996 . S
Fe309 O324 1.976 . S
Fe309 O327 2.002 . S
O310 Fe308 1.918 . S
O310 Fe309 1.918 . S
O310 Fe311 1.918 . S
Fe311 O310 1.918 . S
Fe311 O312 2.002 . S
Fe311 O321 1.976 . S
Fe311 O325 1.996 . S
Fe311 O328 1.997 . S
O312 Fe311 2.002 . S
O312 C329 1.295 . S
O313 Fe308 1.997 . S
O313 C329 1.235 . S
O314 Fe308 2.002 . S
O314 C315 1.295 . S
C315 O314 1.295 . S
C315 O317 1.235 . S
C316 O321 1.287 . S
C316 O322 1.255 . S
O317 Fe309 1.997 . S
O317 C315 1.235 . S
C318 O324 1.287 . S
C318 O325 1.255 . S
O319 Fe308 1.976 . S
O319 C326 1.287 . S
O320 Fe309 1.996 . S
O320 C326 1.255 . S
O321 Fe311 1.976 . S
O321 C316 1.287 . S
O322 Fe308 1.996 . S
O322 C316 1.255 . S
C323 O327 1.295 . S
C323 O328 1.235 . S
O324 Fe309 1.976 . S
O324 C318 1.287 . S
O325 Fe311 1.996 . S
O325 C318 1.255 . S
C326 O319 1.287 . S
C326 O320 1.255 . S
O327 Fe309 2.002 . S
O327 C323 1.295 . S
O328 Fe311 1.997 . S
O328 C323 1.235 . S
C329 O312 1.295 . S
C329 O313 1.235 . S
Fe330 O332 1.918 . S
Fe330 O335 1.997 . S
Fe330 O336 2.002 . S
Fe330 O341 1.976 . S
Fe330 O344 1.996 . S
Fe331 O332 1.918 . S
Fe331 O339 1.997 . S
Fe331 O342 1.996 . S
Fe331 O346 1.976 . S
Fe331 O349 2.002 . S
O332 Fe330 1.918 . S
O332 Fe331 1.918 . S
O332 Fe333 1.918 . S
Fe333 O332 1.918 . S
Fe333 O334 2.002 . S
Fe333 O343 1.976 . S
Fe333 O347 1.996 . S
Fe333 O350 1.997 1_556 S
O334 Fe333 2.002 . S
O334 C351 1.295 . S
O335 Fe330 1.997 . S
O335 C351 1.235 . S
O336 Fe330 2.002 . S
O336 C337 1.295 . S
C337 O336 1.295 . S
C337 O339 1.235 . S
C338 O343 1.287 . S
C338 O344 1.255 . S
O339 Fe331 1.997 . S
O339 C337 1.235 . S
C340 O346 1.287 . S
C340 O347 1.255 . S
O341 Fe330 1.976 . S
O341 C348 1.287 . S
O342 Fe331 1.996 . S
O342 C348 1.255 . S
O343 Fe333 1.976 . S
O343 C338 1.287 . S
O344 Fe330 1.996 . S
O344 C338 1.255 . S
C345 O349 1.295 1_554 S
C345 O350 1.235 . S
O346 Fe331 1.976 . S
O346 C340 1.287 . S
O347 Fe333 1.996 . S
O347 C340 1.255 . S
C348 O341 1.287 . S
C348 O342 1.255 . S
O349 Fe331 2.002 . S
O349 C345 1.295 1_556 S
O350 Fe333 1.997 1_554 S
O350 C345 1.235 . S
C351 O334 1.295 . S
C351 O335 1.235 . S
Fe352 O354 1.918 . S
Fe352 O357 1.997 . S
Fe352 O358 2.002 . S
Fe352 O363 1.976 . S
Fe352 O366 1.996 . S
Fe353 O354 1.918 . S
Fe353 O361 1.997 . S
Fe353 O364 1.996 1_565 S
Fe353 O368 1.976 1_565 S
Fe353 O371 2.002 . S
O354 Fe352 1.918 . S
O354 Fe353 1.918 . S
O354 Fe355 1.918 . S
Fe355 O354 1.918 . S
Fe355 O356 2.002 . S
Fe355 O365 1.976 . S
Fe355 O369 1.996 . S
Fe355 O372 1.997 1_556 S
O356 Fe355 2.002 . S
O356 C373 1.295 . S
O357 Fe352 1.997 . S
O357 C373 1.235 . S
O358 Fe352 2.002 . S
O358 C359 1.295 . S
C359 O358 1.295 . S
C359 O361 1.235 . S
C360 O365 1.287 . S
C360 O366 1.255 . S
O361 Fe353 1.997 . S
O361 C359 1.235 . S
C362 O368 1.287 . S
C362 O369 1.255 1_545 S
O363 Fe352 1.976 . S
O363 C370 1.287 . S
O364 Fe353 1.996 1_545 S
O364 C370 1.255 1_545 S
O365 Fe355 1.976 . S
O365 C360 1.287 . S
O366 Fe352 1.996 . S
O366 C360 1.255 . S
C367 O371 1.295 1_554 S
C367 O372 1.235 . S
O368 Fe353 1.976 1_545 S
O368 C362 1.287 . S
O369 Fe355 1.996 . S
O369 C362 1.255 1_565 S
C370 O363 1.287 . S
C370 O364 1.255 1_565 S
O371 Fe353 2.002 . S
O371 C367 1.295 1_556 S
O372 Fe355 1.997 1_554 S
O372 C367 1.235 . S
C373 O356 1.295 . S
C373 O357 1.235 . S
Fe374 O376 1.918 . S
Fe374 O379 1.997 . S
Fe374 O380 2.002 . S
Fe374 O385 1.976 . S
Fe374 O388 1.996 . S
Fe375 O376 1.918 . S
Fe375 O383 1.997 . S
Fe375 O386 1.996 . S
Fe375 O390 1.976 1_556 S
Fe375 O393 2.002 . S
O376 Fe374 1.918 . S
O376 Fe375 1.918 . S
O376 Fe377 1.918 . S
Fe377 O376 1.918 . S
Fe377 O378 2.002 . S
Fe377 O387 1.976 . S
Fe377 O391 1.996 . S
Fe377 O394 1.997 . S
O378 Fe377 2.002 . S
O378 C395 1.295 . S
O379 Fe374 1.997 . S
O379 C395 1.235 . S
O380 Fe374 2.002 . S
O380 C381 1.295 . S
C381 O380 1.295 . S
C381 O383 1.235 . S
C382 O387 1.287 . S
C382 O388 1.255 . S
O383 Fe375 1.997 . S
O383 C381 1.235 . S
C384 O390 1.287 . S
C384 O391 1.255 1_554 S
O385 Fe374 1.976 . S
O385 C392 1.287 . S
O386 Fe375 1.996 . S
O386 C392 1.255 . S
O387 Fe377 1.976 . S
O387 C382 1.287 . S
O388 Fe374 1.996 . S
O388 C382 1.255 . S
C389 O393 1.295 . S
C389 O394 1.235 . S
O390 Fe375 1.976 1_554 S
O390 C384 1.287 . S
O391 Fe377 1.996 . S
O391 C384 1.255 1_556 S
C392 O385 1.287 . S
C392 O386 1.255 . S
O393 Fe375 2.002 . S
O393 C389 1.295 . S
O394 Fe377 1.997 . S
O394 C389 1.235 . S
C395 O378 1.295 . S
C395 O379 1.235 . S
C396 C397 1.387 . S
C396 H400 0.950 . S
C396 C405 1.390 . S
C397 C396 1.387 . S
C397 C399 1.387 . S
H398 C405 0.950 . S
C399 C397 1.387 . S
C399 C401 1.390 . S
C399 H403 0.950 . S
H400 C396 0.950 . S
C401 C399 1.390 . S
C401 C402 1.387 . S
C401 H404 0.950 . S
C402 C401 1.387 . S
C402 C405 1.387 . S
H403 C399 0.950 . S
H404 C401 0.950 . S
C405 C396 1.390 . S
C405 H398 0.950 . S
C405 C402 1.387 . S
C406 C407 1.387 . S
C406 H410 0.950 . S
C406 C415 1.390 . S
C407 C406 1.387 . S
C407 C409 1.387 . S
H408 C415 0.950 . S
C409 C407 1.387 . S
C409 C411 1.390 . S
C409 H413 0.950 1_655 S
H410 C406 0.950 . S
C411 C409 1.390 . S
C411 C412 1.387 . S
C411 H414 0.950 . S
C412 C411 1.387 . S
C412 C415 1.387 . S
H413 C409 0.950 1_455 S
H414 C411 0.950 . S
C415 C406 1.390 . S
C415 H408 0.950 . S
C415 C412 1.387 . S
C416 C417 1.387 1_455 S
C416 H420 0.950 1_455 S
C416 C425 1.390 . S
C417 C416 1.387 1_655 S
C417 C419 1.387 1_655 S
H418 C425 0.950 . S
C419 C417 1.387 1_455 S
C419 C421 1.390 . S
C419 H423 0.950 . S
H420 C416 0.950 1_655 S
C421 C419 1.390 . S
C421 C422 1.387 . S
C421 H424 0.950 . S
C422 C421 1.387 . S
C422 C425 1.387 . S
H423 C419 0.950 . S
H424 C421 0.950 . S
C425 C416 1.390 . S
C425 H418 0.950 . S
C425 C422 1.387 . S
C426 C427 1.387 . S
C426 H430 0.950 . S
C426 C435 1.390 . S
C427 C426 1.387 . S
C427 C429 1.387 . S
H428 C435 0.950 . S
C429 C427 1.387 . S
C429 C431 1.390 . S
C429 H433 0.950 . S
H430 C426 0.950 . S
C431 C429 1.390 . S
C431 C432 1.387 . S
C431 H434 0.950 . S
C432 C431 1.387 . S
C432 C435 1.387 . S
H433 C429 0.950 . S
H434 C431 0.950 . S
C435 C426 1.390 . S
C435 H428 0.950 . S
C435 C432 1.387 . S
C436 C437 1.387 . S
C436 H440 0.950 . S
C436 C445 1.390 . S
C437 C436 1.387 . S
C437 C439 1.387 . S
H438 C445 0.950 . S
C439 C437 1.387 . S
C439 C441 1.390 . S
C439 H443 0.950 . S
H440 C436 0.950 . S
C441 C439 1.390 . S
C441 C442 1.387 . S
C441 H444 0.950 . S
C442 C441 1.387 . S
C442 C445 1.387 . S
H443 C439 0.950 . S
H444 C441 0.950 . S
C445 C436 1.390 . S
C445 H438 0.950 . S
C445 C442 1.387 . S
C446 C447 1.387 . S
C446 H450 0.950 . S
C446 C455 1.390 . S
C447 C446 1.387 . S
C447 C449 1.387 . S
H448 C455 0.950 . S
C449 C447 1.387 . S
C449 C451 1.390 . S
C449 H453 0.950 . S
H450 C446 0.950 . S
C451 C449 1.390 . S
C451 C452 1.387 1_455 S
C451 H454 0.950 1_455 S
C452 C451 1.387 1_655 S
C452 C455 1.387 1_655 S
H453 C449 0.950 . S
H454 C451 0.950 1_655 S
C455 C446 1.390 . S
C455 H448 0.950 . S
C455 C452 1.387 1_455 S
C456 C457 1.387 . S
C456 H460 0.950 . S
C456 C465 1.390 . S
C457 C456 1.387 . S
C457 C459 1.387 . S
H458 C465 0.950 . S
C459 C457 1.387 . S
C459 C461 1.390 . S
C459 H463 0.950 . S
H460 C456 0.950 . S
C461 C459 1.390 . S
C461 C462 1.387 . S
C461 H464 0.950 . S
C462 C461 1.387 . S
C462 C465 1.387 . S
H463 C459 0.950 . S
H464 C461 0.950 . S
C465 C456 1.390 . S
C465 H458 0.950 . S
C465 C462 1.387 . S
C466 C467 1.387 . S
C466 H470 0.950 . S
C466 C475 1.390 . S
C467 C466 1.387 . S
C467 C469 1.387 . S
H468 C475 0.950 . S
C469 C467 1.387 . S
C469 C471 1.390 . S
C469 H473 0.950 . S
H470 C466 0.950 . S
C471 C469 1.390 . S
C471 C472 1.387 . S
C471 H474 0.950 . S
C472 C471 1.387 . S
C472 C475 1.387 . S
H473 C469 0.950 . S
H474 C471 0.950 . S
C475 C466 1.390 . S
C475 H468 0.950 . S
C475 C472 1.387 . S
C476 C477 1.387 . S
C476 H480 0.950 . S
C476 C485 1.390 . S
C477 C476 1.387 . S
C477 C479 1.387 . S
H478 C485 0.950 . S
C479 C477 1.387 . S
C479 C481 1.390 . S
C479 H483 0.950 . S
H480 C476 0.950 . S
C481 C479 1.390 . S
C481 C482 1.387 . S
C481 H484 0.950 . S
C482 C481 1.387 . S
C482 C485 1.387 . S
H483 C479 0.950 . S
H484 C481 0.950 . S
C485 C476 1.390 . S
C485 H478 0.950 . S
C485 C482 1.387 . S
C486 C487 1.387 . S
C486 H490 0.950 . S
C486 C495 1.390 . S
C487 C486 1.387 . S
C487 C489 1.387 . S
H488 C495 0.950 . S
C489 C487 1.387 . S
C489 C491 1.390 . S
C489 H493 0.950 . S
H490 C486 0.950 . S
C491 C489 1.390 . S
C491 C492 1.387 . S
C491 H494 0.950 . S
C492 C491 1.387 . S
C492 C495 1.387 . S
H493 C489 0.950 . S
H494 C491 0.950 . S
C495 C486 1.390 . S
C495 H488 0.950 . S
C495 C492 1.387 . S
C496 C497 1.387 . S
C496 H500 0.950 . S
C496 C505 1.390 . S
C497 C496 1.387 . S
C497 C499 1.387 . S
H498 C505 0.950 . S
C499 C497 1.387 . S
C499 C501 1.390 . S
C499 H503 0.950 . S
H500 C496 0.950 . S
C501 C499 1.390 . S
C501 C502 1.387 . S
C501 H504 0.950 . S
C502 C501 1.387 . S
C502 C505 1.387 . S
H503 C499 0.950 . S
H504 C501 0.950 . S
C505 C496 1.390 . S
C505 H498 0.950 . S
C505 C502 1.387 . S
C506 C507 1.387 . S
C506 H510 0.950 . S
C506 C515 1.390 . S
C507 C506 1.387 . S
C507 C509 1.387 . S
H508 C515 0.950 . S
C509 C507 1.387 . S
C509 C511 1.390 . S
C509 H513 0.950 . S
H510 C506 0.950 . S
C511 C509 1.390 . S
C511 C512 1.387 . S
C511 H514 0.950 . S
C512 C511 1.387 . S
C512 C515 1.387 . S
H513 C509 0.950 . S
H514 C511 0.950 . S
C515 C506 1.390 . S
C515 H508 0.950 . S
C515 C512 1.387 . S
C516 C517 1.387 . S
C516 H520 0.950 . S
C516 C525 1.390 . S
C517 C516 1.387 . S
C517 C519 1.387 . S
H518 C525 0.950 . S
C519 C517 1.387 . S
C519 C521 1.390 . S
C519 H523 0.950 . S
H520 C516 0.950 . S
C521 C519 1.390 . S
C521 C522 1.387 . S
C521 H524 0.950 . S
C522 C521 1.387 . S
C522 C525 1.387 . S
H523 C519 0.950 . S
H524 C521 0.950 . S
C525 C516 1.390 . S
C525 H518 0.950 . S
C525 C522 1.387 . S
C526 C527 1.387 . S
C526 H530 0.950 . S
C526 C535 1.390 . S
C527 C526 1.387 . S
C527 C529 1.387 . S
H528 C535 0.950 . S
C529 C527 1.387 . S
C529 C531 1.390 . S
C529 H533 0.950 . S
H530 C526 0.950 . S
C531 C529 1.390 . S
C531 C532 1.387 . S
C531 H534 0.950 . S
C532 C531 1.387 . S
C532 C535 1.387 . S
H533 C529 0.950 . S
H534 C531 0.950 . S
C535 C526 1.390 . S
C535 H528 0.950 . S
C535 C532 1.387 . S
C536 C537 1.387 . S
C536 H540 0.950 . S
C536 C545 1.390 . S
C537 C536 1.387 . S
C537 C539 1.387 . S
H538 C545 0.950 . S
C539 C537 1.387 . S
C539 C541 1.390 . S
C539 H543 0.950 . S
H540 C536 0.950 . S
C541 C539 1.390 . S
C541 C542 1.387 . S
C541 H544 0.950 . S
C542 C541 1.387 . S
C542 C545 1.387 . S
H543 C539 0.950 . S
H544 C541 0.950 . S
C545 C536 1.390 . S
C545 H538 0.950 . S
C545 C542 1.387 . S
C546 C547 1.387 . S
C546 H550 0.950 . S
C546 C555 1.390 . S
C547 C546 1.387 . S
C547 C549 1.387 . S
H548 C555 0.950 . S
C549 C547 1.387 . S
C549 C551 1.390 . S
C549 H553 0.950 . S
H550 C546 0.950 . S
C551 C549 1.390 . S
C551 C552 1.387 . S
C551 H554 0.950 . S
C552 C551 1.387 . S
C552 C555 1.387 . S
H553 C549 0.950 . S
H554 C551 0.950 . S
C555 C546 1.390 . S
C555 H548 0.950 . S
C555 C552 1.387 . S
C556 C557 1.387 . S
C556 H560 0.950 . S
C556 C565 1.390 . S
C557 C556 1.387 . S
C557 C559 1.387 . S
H558 C565 0.950 . S
C559 C557 1.387 . S
C559 C561 1.390 . S
C559 H563 0.950 . S
H560 C556 0.950 . S
C561 C559 1.390 . S
C561 C562 1.387 . S
C561 H564 0.950 . S
C562 C561 1.387 . S
C562 C565 1.387 . S
H563 C559 0.950 . S
H564 C561 0.950 . S
C565 C556 1.390 . S
C565 H558 0.950 . S
C565 C562 1.387 . S
C566 C567 1.387 . S
C566 H570 0.950 . S
C566 C575 1.390 . S
C567 C566 1.387 . S
C567 C569 1.387 . S
H568 C575 0.950 . S
C569 C567 1.387 . S
C569 C571 1.390 . S
C569 H573 0.950 . S
H570 C566 0.950 . S
C571 C569 1.390 . S
C571 C572 1.387 . S
C571 H574 0.950 . S
C572 C571 1.387 . S
C572 C575 1.387 . S
H573 C569 0.950 . S
H574 C571 0.950 . S
C575 C566 1.390 . S
C575 H568 0.950 . S
C575 C572 1.387 . S
C576 C577 1.387 . S
C576 H580 0.950 . S
C576 C585 1.390 . S
C577 C576 1.387 . S
C577 C579 1.387 . S
H578 C585 0.950 . S
C579 C577 1.387 . S
C579 C581 1.390 . S
C579 H583 0.950 . S
H580 C576 0.950 . S
C581 C579 1.390 . S
C581 C582 1.387 . S
C581 H584 0.950 . S
C582 C581 1.387 . S
C582 C585 1.387 . S
H583 C579 0.950 . S
H584 C581 0.950 . S
C585 C576 1.390 . S
C585 H578 0.950 . S
C585 C582 1.387 . S
C586 C587 1.387 . S
C586 H590 0.950 . S
C586 C595 1.390 . S
C587 C586 1.387 . S
C587 C589 1.387 . S
H588 C595 0.950 . S
C589 C587 1.387 . S
C589 C591 1.390 . S
C589 H593 0.950 . S
H590 C586 0.950 . S
C591 C589 1.390 . S
C591 C592 1.387 . S
C591 H594 0.950 . S
C592 C591 1.387 . S
C592 C595 1.387 . S
H593 C589 0.950 . S
H594 C591 0.950 . S
C595 C586 1.390 . S
C595 H588 0.950 . S
C595 C592 1.387 . S
C596 C597 1.386 . S
C596 H600 0.950 . S
C596 C605 1.390 . S
C597 C596 1.386 . S
C597 C599 1.390 1_545 S
H598 C605 0.950 . S
C599 C597 1.390 1_565 S
C599 C601 1.390 . S
C599 H603 0.950 . S
H600 C596 0.950 . S
C601 C599 1.390 . S
C601 C602 1.387 . S
C601 H604 0.950 . S
C602 C601 1.387 . S
C602 C605 1.387 1_565 S
H603 C599 0.950 . S
H604 C601 0.950 . S
C605 C596 1.390 . S
C605 H598 0.950 . S
C605 C602 1.387 1_545 S
C606 C607 1.387 . S
C606 H610 0.950 . S
C606 C615 1.390 . S
C607 C606 1.387 . S
C607 C609 1.387 . S
H608 C615 0.950 . S
C609 C607 1.387 . S
C609 C611 1.390 . S
C609 H613 0.950 . S
H610 C606 0.950 . S
C611 C609 1.390 . S
C611 C612 1.387 . S
C611 H614 0.950 . S
C612 C611 1.387 . S
C612 C615 1.387 . S
H613 C609 0.950 . S
H614 C611 0.950 . S
C615 C606 1.390 . S
C615 H608 0.950 . S
C615 C612 1.387 . S
C616 C617 1.387 . S
C616 H620 0.950 . S
C616 C625 1.390 . S
C617 C616 1.387 . S
C617 C619 1.387 . S
H618 C625 0.950 . S
C619 C617 1.387 . S
C619 C621 1.390 . S
C619 H623 0.950 . S
H620 C616 0.950 . S
C621 C619 1.390 . S
C621 C622 1.387 . S
C621 H624 0.950 . S
C622 C621 1.387 . S
C622 C625 1.387 . S
H623 C619 0.950 . S
H624 C621 0.950 . S
C625 C616 1.390 . S
C625 H618 0.950 . S
C625 C622 1.387 . S
C626 C627 1.387 . S
C626 H630 0.950 . S
C626 C635 1.390 . S
C627 C626 1.387 . S
C627 C629 1.387 . S
H628 C635 0.950 . S
C629 C627 1.387 . S
C629 C631 1.390 . S
C629 H633 0.950 . S
H630 C626 0.950 . S
C631 C629 1.390 . S
C631 C632 1.387 . S
C631 H634 0.950 . S
C632 C631 1.387 . S
C632 C635 1.387 . S
H633 C629 0.950 . S
H634 C631 0.950 . S
C635 C626 1.390 . S
C635 H628 0.950 . S
C635 C632 1.387 . S
C636 C637 1.387 . S
C636 H640 0.950 . S
C636 C645 1.390 . S
C637 C636 1.387 . S
C637 C639 1.387 . S
H638 C645 0.950 . S
C639 C637 1.387 . S
C639 C641 1.390 1_655 S
C639 H643 0.950 1_655 S
H640 C636 0.950 . S
C641 C639 1.390 1_455 S
C641 C642 1.379 1_455 S
C641 H644 0.958 . S
C642 C641 1.379 1_655 S
C642 C645 1.387 . S
H643 C639 0.950 1_455 S
H644 C641 0.958 . S
C645 C636 1.390 . S
C645 H638 0.950 . S
C645 C642 1.387 . S
C646 C647 1.387 . S
C646 H650 0.950 . S
C646 C655 1.390 . S
C647 C646 1.387 . S
C647 C649 1.387 . S
H648 C655 0.950 . S
C649 C647 1.387 . S
C649 C651 1.390 . S
C649 H653 0.950 . S
H650 C646 0.950 . S
C651 C649 1.390 . S
C651 C652 1.387 . S
C651 H654 0.950 . S
C652 C651 1.387 . S
C652 C655 1.387 . S
H653 C649 0.950 . S
H654 C651 0.950 . S
C655 C646 1.390 . S
C655 H648 0.950 . S
C655 C652 1.387 . S
C656 C657 1.387 . S
C656 H660 0.950 . S
C656 C665 1.390 . S
C657 C656 1.387 . S
C657 C659 1.387 . S
H658 C665 0.950 . S
C659 C657 1.387 . S
C659 C661 1.390 . S
C659 H663 0.950 . S
H660 C656 0.950 . S
C661 C659 1.390 . S
C661 C662 1.387 . S
C661 H664 0.950 . S
C662 C661 1.387 . S
C662 C665 1.387 . S
H663 C659 0.950 . S
H664 C661 0.950 . S
C665 C656 1.390 . S
C665 H658 0.950 . S
C665 C662 1.387 . S
C666 C667 1.387 . S
C666 H670 0.950 . S
C666 C675 1.390 . S
C667 C666 1.387 . S
C667 C669 1.387 1_565 S
H668 C675 0.950 . S
C669 C667 1.387 1_545 S
C669 C671 1.390 . S
C669 H673 0.950 . S
H670 C666 0.950 . S
C671 C669 1.390 . S
C671 C672 1.387 1_545 S
C671 H674 0.950 . S
C672 C671 1.387 1_565 S
C672 C675 1.387 . S
H673 C669 0.950 . S
H674 C671 0.950 . S
C675 C666 1.390 . S
C675 H668 0.950 . S
C675 C672 1.387 . S
C676 C677 1.387 . S
C676 H680 0.950 . S
C676 C685 1.390 . S
C677 C676 1.387 . S
C677 C679 1.387 . S
H678 C685 0.950 . S
C679 C677 1.387 . S
C679 C681 1.390 . S
C679 H683 0.950 . S
H680 C676 0.950 . S
C681 C679 1.390 . S
C681 C682 1.387 . S
C681 H684 0.950 . S
C682 C681 1.387 . S
C682 C685 1.387 . S
H683 C679 0.950 . S
H684 C681 0.950 . S
C685 C676 1.390 . S
C685 H678 0.950 . S
C685 C682 1.387 . S
C686 C687 1.387 . S
C686 H690 0.950 . S
C686 C695 1.390 . S
C687 C686 1.387 . S
C687 C689 1.387 . S
H688 C695 0.950 . S
C689 C687 1.387 . S
C689 C691 1.390 . S
C689 H693 0.950 . S
H690 C686 0.950 . S
C691 C689 1.390 . S
C691 C692 1.387 . S
C691 H694 0.950 . S
C692 C691 1.387 . S
C692 C695 1.387 . S
H693 C689 0.950 . S
H694 C691 0.950 . S
C695 C686 1.390 . S
C695 H688 0.950 . S
C695 C692 1.387 . S
C696 C697 1.387 . S
C696 H700 0.950 . S
C696 C705 1.390 . S
C697 C696 1.387 . S
C697 C699 1.387 . S
H698 C705 0.950 . S
C699 C697 1.387 . S
C699 C701 1.390 . S
C699 H703 0.950 . S
H700 C696 0.950 . S
C701 C699 1.390 . S
C701 C702 1.387 . S
C701 H704 0.950 1_455 S
C702 C701 1.387 . S
C702 C705 1.387 . S
H703 C699 0.950 . S
H704 C701 0.950 1_655 S
C705 C696 1.390 . S
C705 H698 0.950 . S
C705 C702 1.387 . S
C706 C707 1.387 . S
C706 H710 0.950 . S
C706 C715 1.390 . S
C707 C706 1.387 . S
C707 C709 1.387 . S
H708 C715 0.950 . S
C709 C707 1.387 . S
C709 C711 1.390 . S
C709 H713 0.950 . S
H710 C706 0.950 . S
C711 C709 1.390 . S
C711 C712 1.387 . S
C711 H714 0.950 . S
C712 C711 1.387 . S
C712 C715 1.387 . S
H713 C709 0.950 . S
H714 C711 0.950 . S
C715 C706 1.390 . S
C715 H708 0.950 . S
C715 C712 1.387 . S
C716 C717 1.387 . S
C716 H720 0.950 . S
C716 C725 1.390 . S
C717 C716 1.387 . S
C717 C719 1.387 . S
H718 C725 0.950 . S
C719 C717 1.387 . S
C719 C721 1.390 . S
C719 H723 0.950 . S
H720 C716 0.950 . S
C721 C719 1.390 . S
C721 C722 1.387 . S
C721 H724 0.950 . S
C722 C721 1.387 . S
C722 C725 1.387 . S
H723 C719 0.950 . S
H724 C721 0.950 . S
C725 C716 1.390 . S
C725 H718 0.950 . S
C725 C722 1.387 . S
C726 C727 1.387 . S
C726 H730 0.950 . S
C726 C735 1.390 . S
C727 C726 1.387 . S
C727 C729 1.387 . S
H728 C735 0.950 . S
C729 C727 1.387 . S
C729 C731 1.390 . S
C729 H733 0.950 . S
H730 C726 0.950 . S
C731 C729 1.390 . S
C731 C732 1.387 . S
C731 H734 0.950 . S
C732 C731 1.387 . S
C732 C735 1.387 . S
H733 C729 0.950 . S
H734 C731 0.950 . S
C735 C726 1.390 . S
C735 H728 0.950 . S
C735 C732 1.387 . S
C736 C737 1.387 . S
C736 H740 0.950 . S
C736 C745 1.390 1_455 S
C737 C736 1.387 . S
C737 C739 1.387 . S
H738 C745 0.950 . S
C739 C737 1.387 . S
C739 C741 1.390 . S
C739 H743 0.950 . S
H740 C736 0.950 . S
C741 C739 1.390 . S
C741 C742 1.387 . S
C741 H744 0.950 . S
C742 C741 1.387 . S
C742 C745 1.387 1_455 S
H743 C739 0.950 . S
H744 C741 0.950 . S
C745 C736 1.390 1_655 S
C745 H738 0.950 . S
C745 C742 1.387 1_655 S
C746 C747 1.387 . S
C746 H750 0.950 . S
C746 C755 1.390 . S
C747 C746 1.387 . S
C747 C749 1.387 . S
H748 C755 0.950 . S
C749 C747 1.387 . S
C749 C751 1.390 . S
C749 H753 0.950 . S
H750 C746 0.950 . S
C751 C749 1.390 . S
C751 C752 1.387 . S
C751 H754 0.950 . S
C752 C751 1.387 . S
C752 C755 1.387 . S
H753 C749 0.950 . S
H754 C751 0.950 . S
C755 C746 1.390 . S
C755 H748 0.950 . S
C755 C752 1.387 . S
C756 C757 1.387 . S
C756 H760 0.950 . S
C756 C765 1.390 . S
C757 C756 1.387 . S
C757 C759 1.387 . S
H758 C765 0.950 . S
C759 C757 1.387 . S
C759 C761 1.390 . S
C759 H763 0.950 . S
H760 C756 0.950 . S
C761 C759 1.390 . S
C761 C762 1.387 . S
C761 H764 0.950 . S
C762 C761 1.387 . S
C762 C765 1.387 . S
H763 C759 0.950 . S
H764 C761 0.950 . S
C765 C756 1.390 . S
C765 H758 0.950 . S
C765 C762 1.387 . S
C766 C767 1.387 . S
C766 H770 0.950 . S
C766 C775 1.390 . S
C767 C766 1.387 . S
C767 C769 1.387 . S
H768 C775 0.950 . S
C769 C767 1.387 . S
C769 C771 1.390 . S
C769 H773 0.950 . S
H770 C766 0.950 . S
C771 C769 1.390 . S
C771 C772 1.387 . S
C771 H774 0.950 . S
C772 C771 1.387 . S
C772 C775 1.387 . S
H773 C769 0.950 . S
H774 C771 0.950 . S
C775 C766 1.390 . S
C775 H768 0.950 . S
C775 C772 1.387 . S
C776 C777 1.387 . S
C776 H780 0.950 . S
C776 C785 1.390 . S
C777 C776 1.387 . S
C777 C779 1.387 . S
H778 C785 0.950 . S
C779 C777 1.387 . S
C779 C781 1.390 . S
C779 H783 0.950 . S
H780 C776 0.950 . S
C781 C779 1.390 . S
C781 C782 1.387 . S
C781 H784 0.950 . S
C782 C781 1.387 . S
C782 C785 1.387 . S
H783 C779 0.950 . S
H784 C781 0.950 . S
C785 C776 1.390 . S
C785 H778 0.950 . S
C785 C782 1.387 . S
C786 C787 1.387 . S
C786 H790 0.950 . S
C786 C795 1.390 . S
C787 C786 1.387 . S
C787 C789 1.387 . S
H788 C795 0.950 . S
C789 C787 1.387 . S
C789 C791 1.390 . S
C789 H793 0.950 . S
H790 C786 0.950 . S
C791 C789 1.390 . S
C791 C792 1.387 . S
C791 H794 0.950 . S
C792 C791 1.387 . S
C792 C795 1.387 . S
H793 C789 0.950 . S
H794 C791 0.950 . S
C795 C786 1.390 . S
C795 H788 0.950 . S
C795 C792 1.387 . S
C796 C797 1.387 . S
C796 H800 0.950 . S
C796 C805 1.390 . S
C797 C796 1.387 . S
C797 C799 1.387 . S
H798 C805 0.950 . S
C799 C797 1.387 . S
C799 C801 1.390 . S
C799 H803 0.950 . S
H800 C796 0.950 . S
C801 C799 1.390 . S
C801 C802 1.387 . S
C801 H804 0.950 . S
C802 C801 1.387 . S
C802 C805 1.387 . S
H803 C799 0.950 . S
H804 C801 0.950 . S
C805 C796 1.390 . S
C805 H798 0.950 . S
C805 C802 1.387 . S
C806 C807 1.387 . S
C806 H810 0.950 . S
C806 C815 1.390 . S
C807 C806 1.387 . S
C807 C809 1.387 . S
H808 C815 0.950 . S
C809 C807 1.387 . S
C809 C811 1.390 . S
C809 H813 0.950 . S
H810 C806 0.950 . S
C811 C809 1.390 . S
C811 C812 1.387 . S
C811 H814 0.950 . S
C812 C811 1.387 . S
C812 C815 1.387 . S
H813 C809 0.950 . S
H814 C811 0.950 . S
C815 C806 1.390 . S
C815 H808 0.950 . S
C815 C812 1.387 . S
C816 C817 1.387 . S
C816 H820 0.950 . S
C816 C825 1.390 . S
C817 C816 1.387 . S
C817 C819 1.387 . S
H818 C825 0.950 . S
C819 C817 1.387 . S
C819 C821 1.390 . S
C819 H823 0.950 . S
H820 C816 0.950 . S
C821 C819 1.390 . S
C821 C822 1.387 . S
C821 H824 0.950 . S
C822 C821 1.387 . S
C822 C825 1.387 . S
H823 C819 0.950 . S
H824 C821 0.950 . S
C825 C816 1.390 . S
C825 H818 0.950 . S
C825 C822 1.387 . S
C826 C827 1.387 . S
C826 H830 0.950 . S
C826 C835 1.390 . S
C827 C826 1.387 . S
C827 C829 1.387 . S
H828 C835 0.950 . S
C829 C827 1.387 . S
C829 C831 1.390 . S
C829 H833 0.950 . S
H830 C826 0.950 . S
C831 C829 1.390 . S
C831 C832 1.387 . S
C831 H834 0.950 . S
C832 C831 1.387 . S
C832 C835 1.387 . S
H833 C829 0.950 . S
H834 C831 0.950 . S
C835 C826 1.390 . S
C835 H828 0.950 . S
C835 C832 1.387 . S
C836 C837 1.387 . S
C836 H840 0.950 . S
C836 C845 1.390 . S
C837 C836 1.387 . S
C837 C839 1.387 . S
H838 C845 0.950 . S
C839 C837 1.387 . S
C839 C841 1.390 . S
C839 H843 0.950 . S
H840 C836 0.950 . S
C841 C839 1.390 . S
C841 C842 1.387 . S
C841 H844 0.950 . S
C842 C841 1.387 . S
C842 C845 1.387 . S
H843 C839 0.950 . S
H844 C841 0.950 . S
C845 C836 1.390 . S
C845 H838 0.950 . S
C845 C842 1.387 . S
C846 C847 1.387 . S
C846 H850 0.950 . S
C846 C855 1.390 . S
C847 C846 1.387 . S
C847 C849 1.387 . S
H848 C855 0.950 . S
C849 C847 1.387 . S
C849 C851 1.390 . S
C849 H853 0.950 . S
H850 C846 0.950 . S
C851 C849 1.390 . S
C851 C852 1.387 . S
C851 H854 0.950 . S
C852 C851 1.387 . S
C852 C855 1.387 . S
H853 C849 0.950 . S
H854 C851 0.950 . S
C855 C846 1.390 . S
C855 H848 0.950 . S
C855 C852 1.387 . S
C856 C857 1.387 . S
C856 H860 0.950 . S
C856 C865 1.390 . S
C857 C856 1.387 . S
C857 C859 1.387 . S
H858 C865 0.950 . S
C859 C857 1.387 . S
C859 C861 1.390 . S
C859 H863 0.950 . S
H860 C856 0.950 . S
C861 C859 1.390 . S
C861 C862 1.387 . S
C861 H864 0.950 . S
C862 C861 1.387 . S
C862 C865 1.387 . S
H863 C859 0.950 . S
H864 C861 0.950 . S
C865 C856 1.390 . S
C865 H858 0.950 . S
C865 C862 1.387 . S
C866 C867 1.387 . S
C866 H870 0.950 . S
C866 C875 1.390 . S
C867 C866 1.387 . S
C867 C869 1.387 . S
H868 C875 0.950 . S
C869 C867 1.387 . S
C869 C871 1.390 . S
C869 H873 0.950 . S
H870 C866 0.950 . S
C871 C869 1.390 . S
C871 C872 1.387 . S
C871 H874 0.950 . S
C872 C871 1.387 . S
C872 C875 1.387 . S
H873 C869 0.950 . S
H874 C871 0.950 . S
C875 C866 1.390 . S
C875 H868 0.950 . S
C875 C872 1.387 . S
C876 C877 1.387 . S
C876 H880 0.950 . S
C876 C885 1.390 1_554 S
C877 C876 1.387 . S
C877 C879 1.387 1_455 S
H878 C885 0.950 . S
C879 C877 1.387 1_655 S
C879 C881 1.390 1_654 S
C879 H883 0.950 . S
H880 C876 0.950 . S
C881 C879 1.390 1_456 S
C881 C882 1.387 . S
C881 H884 0.950 . S
C882 C881 1.387 . S
C882 C885 1.387 . S
H883 C879 0.950 . S
H884 C881 0.950 . S
C885 C876 1.390 1_556 S
C885 H878 0.950 . S
C885 C882 1.387 . S
C886 C887 1.387 . S
C886 H890 0.950 . S
C886 C895 1.390 . S
C887 C886 1.387 . S
C887 C889 1.387 1_556 S
H888 C895 0.950 . S
C889 C887 1.387 1_554 S
C889 C891 1.390 . S
C889 H893 0.950 . S
H890 C886 0.950 . S
C891 C889 1.390 . S
C891 C892 1.387 . S
C891 H894 0.950 . S
C892 C891 1.387 . S
C892 C895 1.387 1_554 S
H893 C889 0.950 . S
H894 C891 0.950 . S
C895 C886 1.390 . S
C895 H888 0.950 . S
C895 C892 1.387 1_556 S
C896 C897 1.387 . S
C896 H900 0.950 . S
C896 C905 1.390 . S
C897 C896 1.387 . S
C897 C899 1.387 1_554 S
H898 C905 0.950 . S
C899 C897 1.387 1_556 S
C899 C901 1.390 . S
C899 H903 0.950 . S
H900 C896 0.950 . S
C901 C899 1.390 . S
C901 C902 1.387 . S
C901 H904 0.950 . S
C902 C901 1.387 . S
C902 C905 1.387 1_556 S
H903 C899 0.950 . S
H904 C901 0.950 . S
C905 C896 1.390 . S
C905 H898 0.950 . S
C905 C902 1.387 1_554 S
C906 C907 1.387 . S
C906 H910 0.950 . S
C906 C915 1.390 . S
C907 C906 1.387 . S
C907 C909 1.387 . S
H908 C915 0.950 . S
C909 C907 1.387 . S
C909 C911 1.390 . S
C909 H913 0.950 . S
H910 C906 0.950 . S
C911 C909 1.390 . S
C911 C912 1.387 . S
C911 H914 0.950 . S
C912 C911 1.387 . S
C912 C915 1.387 . S
H913 C909 0.950 . S
H914 C911 0.950 . S
C915 C906 1.390 . S
C915 H908 0.950 . S
C915 C912 1.387 . S
C916 C917 1.387 1_655 S
C916 H920 0.950 . S
C916 C925 1.390 1_655 S
C917 C916 1.387 1_455 S
C917 C919 1.387 . S
H918 C925 0.950 . S
C919 C917 1.387 . S
C919 C921 1.390 . S
C919 H923 0.950 . S
H920 C916 0.950 . S
C921 C919 1.390 . S
C921 C922 1.387 . S
C921 H924 0.950 . S
C922 C921 1.387 . S
C922 C925 1.387 . S
H923 C919 0.950 . S
H924 C921 0.950 . S
C925 C916 1.390 1_455 S
C925 H918 0.950 . S
C925 C922 1.387 . S
C926 C927 1.387 . S
C926 H930 0.950 . S
C926 C935 1.390 . S
C927 C926 1.387 . S
C927 C929 1.387 . S
H928 C935 0.950 . S
C929 C927 1.387 . S
C929 C931 1.390 . S
C929 H933 0.950 . S
H930 C926 0.950 . S
C931 C929 1.390 . S
C931 C932 1.387 . S
C931 H934 0.950 . S
C932 C931 1.387 . S
C932 C935 1.387 . S
H933 C929 0.950 . S
H934 C931 0.950 . S
C935 C926 1.390 . S
C935 H928 0.950 . S
C935 C932 1.387 . S
C397 C59 1.454 . S
C402 C15 1.458 . S
C407 C10 1.440 . S
C412 C29 1.416 1_545 S
C417 C40 1.397 . S
C422 C54 1.398 1_565 S
C427 C87 1.463 . S
C432 C131 1.439 1_565 S
C437 C74 1.452 1_545 S
C442 C109 1.422 . S
C447 C96 1.408 . S
C452 C118 1.409 . S
C457 C194 1.427 . S
C462 C147 1.406 . S
C467 C169 1.407 . S
C472 C142 1.430 . S
C477 C164 1.436 . S
C482 C183 1.412 . S
C487 C206 1.441 . S
C492 C257 1.414 . S
C497 C219 1.421 . S
C502 C228 1.446 . S
C507 C252 1.452 . S
C512 C241 1.425 . S
C517 C323 1.441 . S
C522 C271 1.448 . S
C527 C282 1.424 . S
C532 C293 1.400 . S
C537 C304 1.383 . S
C542 C318 1.388 . S
C547 C381 1.455 . S
C552 C351 1.457 . S
C557 C373 1.415 . S
C562 C338 1.445 . S
C567 C392 1.401 . S
C572 C360 1.400 . S
C577 C21 1.843 . S
C582 C294 1.859 . S
C587 C329 1.872 . S
C592 C37 1.874 . S
C597 C62 1.828 . S
C602 C272 1.827 . S
C607 C175 1.889 . S
C612 C65 1.884 . S
C617 C18 1.865 1_655 S
C622 C191 1.848 . S
C627 C153 1.843 . S
C632 C30 1.860 . S
C637 C235 1.884 . S
C642 C81 1.881 1_655 S
C647 C103 1.876 . S
C652 C249 1.881 . S
C657 C213 1.839 . S
C662 C128 1.855 . S
C667 C125 1.871 1_565 S
C672 C367 1.867 . S
C677 C384 1.822 . S
C682 C84 1.824 . S
C687 C345 1.836 . S
C692 C106 1.856 . S
C697 C301 1.837 . S
C702 C184 1.853 1_455 S
C707 C326 1.816 . S
C712 C150 1.814 . S
C717 C172 1.858 . S
C722 C279 1.841 1_545 S
C727 C216 1.808 . S
C732 C370 1.810 1_545 S
C737 C395 1.837 . S
C742 C238 1.852 1_455 S
C747 C250 1.811 . S
C752 C348 1.814 . S
C757 C7 1.248 . S
C762 C337 1.243 . S
C767 C43 1.255 . S
C772 C359 1.249 . S
C777 C382 1.212 . S
C782 C52 1.217 . S
C787 C263 1.242 . S
C792 C51 1.248 . S
C797 C205 1.228 . S
C802 C8 1.230 . S
C807 C32 1.249 . S
C812 C227 1.247 . S
C817 C73 1.240 . S
C822 C139 1.245 . S
C827 C95 1.257 . S
C832 C161 1.262 . S
C837 C120 1.239 . S
C842 C197 1.250 . S
C847 C117 1.226 . S
C852 C315 1.232 . S
C857 C76 1.186 . S
C862 C274 1.192 . S
C867 C296 1.200 . S
C872 C98 1.194 . S
C877 C186 1.198 1_455 S
C882 C389 1.197 . S
C887 C340 1.181 . S
C892 C140 1.186 . S
C897 C162 1.201 . S
C902 C362 1.195 . S
C907 C208 1.191 . S
C912 C285 1.200 . S
C917 C230 1.206 1_455 S
C922 C307 1.217 . S
C927 C316 1.201 . S
C932 C260 1.196 . S
