# Generated by pormake.
# Topology ukc, (4)-cn, num edge types: 1
# Building blocks:
#     Node 0, Type 0, BuildingBlock: NAHDIM_clean_sbu_0, # of connection points: 4
#     Node 1, Type 0, BuildingBlock: NAHDIM_clean_sbu_0, # of connection points: 4
#     Node 2, Type 0, BuildingBlock: NAHDIM_clean_sbu_0, # of connection points: 4
#     Node 3, Type 0, BuildingBlock: NAHDIM_clean_sbu_0, # of connection points: 4
#     Node 4, Type 0, BuildingBlock: NAHDIM_clean_sbu_0, # of connection points: 4
#     Node 5, Type 0, BuildingBlock: NAHDIM_clean_sbu_0, # of connection points: 4
#     Node 6, Type 0, BuildingBlock: NAHDIM_clean_sbu_0, # of connection points: 4
#     Node 7, Type 0, BuildingBlock: NAHDIM_clean_sbu_0, # of connection points: 4
#     Node 8, Type 0, BuildingBlock: NAHDIM_clean_sbu_0, # of connection points: 4
#     Node 9, Type 0, BuildingBlock: NAHDIM_clean_sbu_0, # of connection points: 4
#     Node 10, Type 0, BuildingBlock: NAHDIM_clean_sbu_0, # of connection points: 4
#     Node 11, Type 0, BuildingBlock: NAHDIM_clean_sbu_0, # of connection points: 4
#     Node 12, Type 0, BuildingBlock: NAHDIM_clean_sbu_0, # of connection points: 4
#     Node 13, Type 0, BuildingBlock: NAHDIM_clean_sbu_0, # of connection points: 4
#     Node 14, Type 0, BuildingBlock: NAHDIM_clean_sbu_0, # of connection points: 4
#     Node 15, Type 0, BuildingBlock: NAHDIM_clean_sbu_0, # of connection points: 4
#     Node 16, Type 0, BuildingBlock: NAHDIM_clean_sbu_0, # of connection points: 4
#     Node 17, Type 0, BuildingBlock: NAHDIM_clean_sbu_0, # of connection points: 4
#     Node 18, Type 0, BuildingBlock: NAHDIM_clean_sbu_0, # of connection points: 4
#     Node 19, Type 0, BuildingBlock: NAHDIM_clean_sbu_0, # of connection points: 4
#     Node 20, Type 0, BuildingBlock: NAHDIM_clean_sbu_0, # of connection points: 4
#     Node 21, Type 0, BuildingBlock: NAHDIM_clean_sbu_0, # of connection points: 4
#     Node 22, Type 0, BuildingBlock: NAHDIM_clean_sbu_0, # of connection points: 4
#     Node 23, Type 0, BuildingBlock: NAHDIM_clean_sbu_0, # of connection points: 4
#     Node 24, Type 0, BuildingBlock: NAHDIM_clean_sbu_0, # of connection points: 4
#     Node 25, Type 0, BuildingBlock: NAHDIM_clean_sbu_0, # of connection points: 4
#     Node 26, Type 0, BuildingBlock: NAHDIM_clean_sbu_0, # of connection points: 4
#     Node 27, Type 0, BuildingBlock: NAHDIM_clean_sbu_0, # of connection points: 4
#     Node 28, Type 0, BuildingBlock: NAHDIM_clean_sbu_0, # of connection points: 4
#     Node 29, Type 0, BuildingBlock: NAHDIM_clean_sbu_0, # of connection points: 4
#     Node 30, Type 0, BuildingBlock: NAHDIM_clean_sbu_0, # of connection points: 4
#     Node 31, Type 0, BuildingBlock: NAHDIM_clean_sbu_0, # of connection points: 4
#     Edge 32, Type (0, 0), BuildingBlock: OJICUG_clean_linker_0, # of connection points: 2
#     Edge 33, Type (0, 0), BuildingBlock: OJICUG_clean_linker_0, # of connection points: 2
#     Edge 34, Type (0, 0), BuildingBlock: OJICUG_clean_linker_0, # of connection points: 2
#     Edge 35, Type (0, 0), BuildingBlock: OJICUG_clean_linker_0, # of connection points: 2
#     Edge 36, Type (0, 0), BuildingBlock: OJICUG_clean_linker_0, # of connection points: 2
#     Edge 37, Type (0, 0), BuildingBlock: OJICUG_clean_linker_0, # of connection points: 2
#     Edge 38, Type (0, 0), BuildingBlock: OJICUG_clean_linker_0, # of connection points: 2
#     Edge 39, Type (0, 0), BuildingBlock: OJICUG_clean_linker_0, # of connection points: 2
#     Edge 40, Type (0, 0), BuildingBlock: OJICUG_clean_linker_0, # of connection points: 2
#     Edge 41, Type (0, 0), BuildingBlock: OJICUG_clean_linker_0, # of connection points: 2
#     Edge 42, Type (0, 0), BuildingBlock: OJICUG_clean_linker_0, # of connection points: 2
#     Edge 43, Type (0, 0), BuildingBlock: OJICUG_clean_linker_0, # of connection points: 2
#     Edge 44, Type (0, 0), BuildingBlock: OJICUG_clean_linker_0, # of connection points: 2
#     Edge 45, Type (0, 0), BuildingBlock: OJICUG_clean_linker_0, # of connection points: 2
#     Edge 46, Type (0, 0), BuildingBlock: OJICUG_clean_linker_0, # of connection points: 2
#     Edge 47, Type (0, 0), BuildingBlock: OJICUG_clean_linker_0, # of connection points: 2
#     Edge 48, Type (0, 0), BuildingBlock: OJICUG_clean_linker_0, # of connection points: 2
#     Edge 49, Type (0, 0), BuildingBlock: OJICUG_clean_linker_0, # of connection points: 2
#     Edge 50, Type (0, 0), BuildingBlock: OJICUG_clean_linker_0, # of connection points: 2
#     Edge 51, Type (0, 0), BuildingBlock: OJICUG_clean_linker_0, # of connection points: 2
#     Edge 52, Type (0, 0), BuildingBlock: OJICUG_clean_linker_0, # of connection points: 2
#     Edge 53, Type (0, 0), BuildingBlock: OJICUG_clean_linker_0, # of connection points: 2
#     Edge 54, Type (0, 0), BuildingBlock: OJICUG_clean_linker_0, # of connection points: 2
#     Edge 55, Type (0, 0), BuildingBlock: OJICUG_clean_linker_0, # of connection points: 2
#     Edge 56, Type (0, 0), BuildingBlock: OJICUG_clean_linker_0, # of connection points: 2
#     Edge 57, Type (0, 0), BuildingBlock: OJICUG_clean_linker_0, # of connection points: 2
#     Edge 58, Type (0, 0), BuildingBlock: OJICUG_clean_linker_0, # of connection points: 2
#     Edge 59, Type (0, 0), BuildingBlock: OJICUG_clean_linker_0, # of connection points: 2
#     Edge 60, Type (0, 0), BuildingBlock: OJICUG_clean_linker_0, # of connection points: 2
#     Edge 61, Type (0, 0), BuildingBlock: OJICUG_clean_linker_0, # of connection points: 2
#     Edge 62, Type (0, 0), BuildingBlock: OJICUG_clean_linker_0, # of connection points: 2
#     Edge 63, Type (0, 0), BuildingBlock: OJICUG_clean_linker_0, # of connection points: 2
#     Edge 64, Type (0, 0), BuildingBlock: OJICUG_clean_linker_0, # of connection points: 2
#     Edge 65, Type (0, 0), BuildingBlock: OJICUG_clean_linker_0, # of connection points: 2
#     Edge 66, Type (0, 0), BuildingBlock: OJICUG_clean_linker_0, # of connection points: 2
#     Edge 67, Type (0, 0), BuildingBlock: OJICUG_clean_linker_0, # of connection points: 2
#     Edge 68, Type (0, 0), BuildingBlock: OJICUG_clean_linker_0, # of connection points: 2
#     Edge 69, Type (0, 0), BuildingBlock: OJICUG_clean_linker_0, # of connection points: 2
#     Edge 70, Type (0, 0), BuildingBlock: OJICUG_clean_linker_0, # of connection points: 2
#     Edge 71, Type (0, 0), BuildingBlock: OJICUG_clean_linker_0, # of connection points: 2
#     Edge 72, Type (0, 0), BuildingBlock: OJICUG_clean_linker_0, # of connection points: 2
#     Edge 73, Type (0, 0), BuildingBlock: OJICUG_clean_linker_0, # of connection points: 2
#     Edge 74, Type (0, 0), BuildingBlock: OJICUG_clean_linker_0, # of connection points: 2
#     Edge 75, Type (0, 0), BuildingBlock: OJICUG_clean_linker_0, # of connection points: 2
#     Edge 76, Type (0, 0), BuildingBlock: OJICUG_clean_linker_0, # of connection points: 2
#     Edge 77, Type (0, 0), BuildingBlock: OJICUG_clean_linker_0, # of connection points: 2
#     Edge 78, Type (0, 0), BuildingBlock: OJICUG_clean_linker_0, # of connection points: 2
#     Edge 79, Type (0, 0), BuildingBlock: OJICUG_clean_linker_0, # of connection points: 2
#     Edge 80, Type (0, 0), BuildingBlock: OJICUG_clean_linker_0, # of connection points: 2
#     Edge 81, Type (0, 0), BuildingBlock: OJICUG_clean_linker_0, # of connection points: 2
#     Edge 82, Type (0, 0), BuildingBlock: OJICUG_clean_linker_0, # of connection points: 2
#     Edge 83, Type (0, 0), BuildingBlock: OJICUG_clean_linker_0, # of connection points: 2
#     Edge 84, Type (0, 0), BuildingBlock: OJICUG_clean_linker_0, # of connection points: 2
#     Edge 85, Type (0, 0), BuildingBlock: OJICUG_clean_linker_0, # of connection points: 2
#     Edge 86, Type (0, 0), BuildingBlock: OJICUG_clean_linker_0, # of connection points: 2
#     Edge 87, Type (0, 0), BuildingBlock: OJICUG_clean_linker_0, # of connection points: 2
#     Edge 88, Type (0, 0), BuildingBlock: OJICUG_clean_linker_0, # of connection points: 2
#     Edge 89, Type (0, 0), BuildingBlock: OJICUG_clean_linker_0, # of connection points: 2
#     Edge 90, Type (0, 0), BuildingBlock: OJICUG_clean_linker_0, # of connection points: 2
#     Edge 91, Type (0, 0), BuildingBlock: OJICUG_clean_linker_0, # of connection points: 2
#     Edge 92, Type (0, 0), BuildingBlock: OJICUG_clean_linker_0, # of connection points: 2
#     Edge 93, Type (0, 0), BuildingBlock: OJICUG_clean_linker_0, # of connection points: 2
#     Edge 94, Type (0, 0), BuildingBlock: OJICUG_clean_linker_0, # of connection points: 2
#     Edge 95, Type (0, 0), BuildingBlock: OJICUG_clean_linker_0, # of connection points: 2
# Relax obj value: 0.068
# Max RMSD: 0.094
# Mean RMSD: 0.094
data_MOF--net-ukc--node1-NAHDIM_clean_sbu_0--edge1-OJICUG_clean_linker_0
_symmetry_space_group_name_H-M    P1
_symmetry_Int_Tables_number       1
_symmetry_cell_setting            triclinic
loop_
_symmetry_equiv_pos_as_xyz
'x, y, z'
_cell_length_a     33.730281
_cell_length_b     33.703162
_cell_length_c     61.300514
_cell_angle_alpha  89.968552
_cell_angle_beta   89.967077
_cell_angle_gamma 90.016137
loop_
_atom_site_label
_atom_site_type_symbol
_atom_site_fract_x
_atom_site_fract_y
_atom_site_fract_z
_atom_type_partial_charge
C0 C 0.18435 0.38495 0.01821 0.0
O1 O 0.17031 0.41755 0.02705 0.0
O2 O 0.11773 0.35482 0.06561 0.0
Zn3 Zn 0.10958 0.35702 0.03312 0.0
O4 O 0.08109 0.40729 0.02448 0.0
C5 C 0.03859 0.31377 0.03183 0.0
O6 O 0.02742 0.34639 0.04182 0.0
O7 O 0.163 0.35384 0.01834 0.0
C8 C 0.06597 0.40998 0.00555 0.0
O9 O 0.07061 0.38046 0.99178 0.0
C10 C 0.1197 0.38477 0.07814 0.0
O11 O 0.11665 0.42056 0.06981 0.0
O12 O 0.07443 0.31067 0.02558 0.0
C13 C 0.84194 0.94675 0.2646 0.0
O14 O 0.80982 0.93378 0.27442 0.0
O15 O 0.86498 0.88139 0.31063 0.0
Zn16 Zn 0.8677 0.87074 0.27825 0.0
O17 O 0.81826 0.84209 0.26848 0.0
C18 C 0.91278 0.79886 0.27126 0.0
O19 O 0.87751 0.78265 0.27302 0.0
O20 O 0.87193 0.924 0.26339 0.0
C21 C 0.81416 0.8312 0.24875 0.0
O22 O 0.84197 0.84016 0.23456 0.0
C23 C 0.87486 0.85506 0.32444 0.0
O24 O 0.88545 0.81978 0.31748 0.0
O25 O 0.91598 0.83646 0.27236 0.0
C26 C 0.34084 0.59557 0.50634 0.0
O27 O 0.36018 0.56239 0.50994 0.0
O28 O 0.40408 0.63382 0.55751 0.0
Zn29 Zn 0.4116 0.62827 0.52515 0.0
O30 O 0.44147 0.578 0.51795 0.0
C31 C 0.48104 0.67324 0.52304 0.0
O32 O 0.49242 0.64173 0.53401 0.0
O33 O 0.3574 0.62843 0.51095 0.0
C34 C 0.45666 0.57452 0.49906 0.0
O35 O 0.4516 0.60323 0.48483 0.0
C36 C 0.38062 0.61297 0.56899 0.0
O37 O 0.36045 0.58421 0.55973 0.0
O38 O 0.44544 0.67496 0.51625 0.0
C39 C 0.62371 0.06822 0.75758 0.0
O40 O 0.6558 0.08341 0.76639 0.0
O41 O 0.59054 0.1317 0.80519 0.0
Zn42 Zn 0.59379 0.14165 0.77293 0.0
O43 O 0.64436 0.17086 0.76584 0.0
C44 C 0.55053 0.21223 0.77321 0.0
O45 O 0.58282 0.22206 0.78392 0.0
O46 O 0.59196 0.08858 0.75764 0.0
C47 C 0.64859 0.18894 0.74779 0.0
O48 O 0.62004 0.18715 0.73324 0.0
C49 C 0.62042 0.12812 0.81764 0.0
O50 O 0.65624 0.13074 0.80933 0.0
O51 O 0.54758 0.1772 0.76566 0.0
C52 C 0.17803 0.58774 0.47681 0.0
O53 O 0.16556 0.55632 0.46613 0.0
O54 O 0.10408 0.6092 0.43468 0.0
Zn55 Zn 0.09917 0.61114 0.46729 0.0
O56 O 0.07187 0.56109 0.47723 0.0
C57 C 0.02929 0.65634 0.46745 0.0
O58 O 0.01777 0.62415 0.45714 0.0
O59 O 0.15401 0.61617 0.48009 0.0
C60 C 0.05032 0.56003 0.49424 0.0
O61 O 0.04752 0.59186 0.5065 0.0
C62 C 0.11934 0.63868 0.42487 0.0
O63 O 0.13228 0.66885 0.43643 0.0
O64 O 0.06478 0.65828 0.47435 0.0
C65 C 0.62804 0.90729 0.72458 0.0
O66 O 0.66229 0.89106 0.71963 0.0
O67 O 0.59525 0.84132 0.67443 0.0
Zn68 Zn 0.59962 0.8338 0.70687 0.0
O69 O 0.65035 0.80527 0.71479 0.0
C70 C 0.55649 0.76282 0.70878 0.0
O71 O 0.58856 0.75178 0.69822 0.0
O72 O 0.59639 0.88774 0.72119 0.0
C73 C 0.65283 0.78882 0.73342 0.0
O74 O 0.62317 0.79258 0.74717 0.0
C75 C 0.62068 0.85845 0.66238 0.0
O76 O 0.65358 0.87197 0.67111 0.0
O77 O 0.55374 0.7986 0.71521 0.0
C78 C 0.34168 0.38513 0.98035 0.0
O79 O 0.35765 0.41897 0.97433 0.0
O80 O 0.39986 0.34763 0.92784 0.0
Zn81 Zn 0.41178 0.35519 0.95965 0.0
O82 O 0.44075 0.40681 0.96487 0.0
C83 C 0.48287 0.31338 0.95846 0.0
O84 O 0.49038 0.3444 0.94613 0.0
O85 O 0.36013 0.35302 0.9764 0.0
C86 C 0.45989 0.41059 0.98261 0.0
O87 O 0.45845 0.38177 -0.00296 0.0
C88 C 0.38 0.37099 0.91582 0.0
O89 O 0.36605 0.40412 0.92408 0.0
O90 O 0.44896 0.31057 0.96743 0.0
C91 C 0.84652 0.10761 0.23147 0.0
O92 O 0.81321 0.12522 0.22604 0.0
O93 O 0.88909 0.16788 0.18048 0.0
Zn94 Zn 0.87921 0.17824 0.21227 0.0
O95 O 0.82751 0.20761 0.21665 0.0
C96 C 0.92252 0.24866 0.21344 0.0
O97 O 0.89262 0.25765 0.20062 0.0
O98 O 0.87919 0.12532 0.22789 0.0
C99 C 0.82239 0.22676 0.2343 0.0
O100 O 0.85013 0.22549 0.24933 0.0
C101 C 0.86917 0.14432 0.16861 0.0
O102 O 0.83838 0.12585 0.17694 0.0
O103 O 0.92391 0.21411 0.22179 0.0
C104 C 0.85337 0.56683 0.9765 0.0
O105 O 0.87194 0.53314 0.97311 0.0
O106 O 0.91579 0.60662 0.92451 0.0
Zn107 Zn 0.92406 0.59908 0.95676 0.0
O108 O 0.95411 0.54865 0.96343 0.0
C109 C 0.99355 0.64415 0.95982 0.0
O110 O 0.00535 0.61358 0.94821 0.0
O111 O 0.8704 0.59921 0.9714 0.0
C112 C 0.96904 0.5453 0.98239 0.0
O113 O 0.96307 0.57378 -0.00335 0.0
C114 C 0.88654 0.59267 0.91393 0.0
O115 O 0.86102 0.56948 0.92391 0.0
O116 O 0.9578 0.6452 0.96641 0.0
C117 C 0.13027 0.05762 0.7334 0.0
O118 O 0.16171 0.0712 0.72316 0.0
O119 O 0.09934 0.11681 0.68573 0.0
Zn120 Zn 0.10005 0.13041 0.71762 0.0
O121 O 0.14888 0.16222 0.72468 0.0
C122 C 0.01828 0.15179 0.71711 0.0
O123 O 0.0158 0.11747 0.70704 0.0
O124 O 0.09923 0.07893 0.7341 0.0
C125 C 0.14929 0.18518 0.74111 0.0
O126 O 0.11794 0.18682 0.75381 0.0
C127 C 0.11331 0.1399 0.67127 0.0
O128 O 0.12942 0.17367 0.67728 0.0
O129 O 0.05183 0.16336 0.72399 0.0
C130 C 0.66869 0.41183 0.46878 0.0
O131 O 0.65623 0.44448 0.45928 0.0
O132 O 0.61377 0.38402 0.41888 0.0
Zn133 Zn 0.59704 0.38431 0.45035 0.0
O134 O 0.5672 0.43427 0.45792 0.0
C135 C 0.5263 0.33945 0.44805 0.0
O136 O 0.51569 0.37156 0.43737 0.0
O137 O 0.64714 0.38092 0.46794 0.0
C138 C 0.55084 0.43695 0.47655 0.0
O139 O 0.55468 0.40746 0.49042 0.0
C140 C 0.60055 0.40725 0.40428 0.0
O141 O 0.57345 0.43361 0.40946 0.0
O142 O 0.56127 0.33736 0.4557 0.0
C143 C 0.33414 0.94601 0.22126 0.0
O144 O 0.30033 0.93099 0.21455 0.0
O145 O 0.36324 0.87985 0.17278 0.0
Zn146 Zn 0.36407 0.87193 0.20522 0.0
O147 O 0.31615 0.84096 0.21458 0.0
C148 C 0.44653 0.85527 0.20661 0.0
O149 O 0.44751 0.89062 0.19756 0.0
O150 O 0.36558 0.92554 0.21942 0.0
C151 C 0.31584 0.82418 0.23314 0.0
O152 O 0.34672 0.82818 0.24601 0.0
C153 C 0.37447 0.85165 0.16052 0.0
O154 O 0.38432 0.81753 0.16937 0.0
O155 O 0.4133 0.84101 0.2124 0.0
C156 C 0.82316 0.40806 0.50944 0.0
O157 O 0.83675 0.43999 0.51919 0.0
O158 O 0.87088 0.37324 0.56089 0.0
Zn159 Zn 0.89086 0.37528 0.53011 0.0
O160 O 0.92452 0.42399 0.52548 0.0
C161 C 0.91342 0.29292 0.53096 0.0
O162 O 0.87849 0.28905 0.54024 0.0
O163 O 0.84267 0.37592 0.5109 0.0
C164 C 0.94973 0.42394 0.51005 0.0
O165 O 0.9522 0.39264 0.49736 0.0
C166 C 0.8944 0.37167 0.57701 0.0
O167 O 0.93281 0.37266 0.57346 0.0
O168 O 0.92456 0.32705 0.52468 0.0
C169 C 0.34113 0.10415 0.25749 0.0
O170 O 0.30961 0.11947 0.26685 0.0
O171 O 0.38517 0.15691 0.30732 0.0
Zn172 Zn 0.37711 0.17293 0.27606 0.0
O173 O 0.32784 0.20606 0.27242 0.0
C174 C 0.43641 0.22941 0.2826 0.0
O175 O 0.41632 0.23141 0.30093 0.0
O176 O 0.37384 0.12278 0.25849 0.0
C177 C 0.32509 0.22778 0.25554 0.0
O178 O 0.35403 0.22731 0.24118 0.0
C179 C 0.35849 0.15011 0.32144 0.0
O180 O 0.32098 0.15284 0.31587 0.0
O181 O 0.42482 0.20579 0.26775 0.0
C182 C 0.69198 0.56587 0.00847 0.0
O183 O 0.67949 0.53644 0.02075 0.0
O184 O 0.62747 0.60077 0.05261 0.0
Zn185 Zn 0.61635 0.59659 0.02039 0.0
O186 O 0.58375 0.54775 0.01421 0.0
C187 C 0.59982 0.67912 0.01521 0.0
O188 O 0.63599 0.68183 0.02303 0.0
O189 O 0.66907 0.59516 0.00508 0.0
C190 C 0.56186 0.54614 -0.00265 0.0
O191 O 0.56189 0.57614 0.98365 0.0
C192 C 0.6032 0.61837 0.06517 0.0
O193 O 0.56966 0.63172 0.05713 0.0
O194 O 0.58534 0.64496 0.01162 0.0
C195 C 0.13032 0.89699 0.76654 0.0
O196 O 0.16399 0.87955 0.77144 0.0
O197 O 0.09457 0.82893 0.81517 0.0
Zn198 Zn 0.09923 0.82357 0.78272 0.0
O199 O 0.14963 0.7951 0.77468 0.0
C200 C 0.05515 0.7534 0.77725 0.0
O201 O 0.08734 0.73964 0.78664 0.0
O202 O 0.09801 0.87831 0.76949 0.0
C203 C 0.15381 0.78271 0.75524 0.0
O204 O 0.12571 0.78996 0.74094 0.0
C205 C 0.12216 0.84164 0.82739 0.0
O206 O 0.15641 0.85146 0.81872 0.0
O207 O 0.05291 0.7903 0.77306 0.0
C208 C 0.67992 0.91996 0.51116 0.0
O209 O 0.66753 0.95184 0.52143 0.0
O210 O 0.61439 0.8907 0.55739 0.0
Zn211 Zn 0.60413 0.89162 0.52502 0.0
O212 O 0.57336 0.94083 0.51708 0.0
C213 C 0.58531 0.80907 0.52191 0.0
O214 O 0.62099 0.80611 0.53036 0.0
O215 O 0.65705 0.89008 0.50988 0.0
C216 C 0.55112 0.94101 0.50034 0.0
O217 O 0.54948 0.90917 0.48802 0.0
C218 C 0.58779 0.8782 0.57037 0.0
O219 O 0.55323 0.86749 0.56243 0.0
O220 O 0.5718 0.84328 0.51744 0.0
C221 C 0.30349 0.41153 0.76214 0.0
O222 O 0.27064 0.39758 0.77074 0.0
O223 O 0.33851 0.35332 0.8123 0.0
Zn224 Zn 0.33526 0.33998 0.78036 0.0
O225 O 0.286 0.30813 0.77434 0.0
C226 C 0.41761 0.31993 0.77598 0.0
O227 O 0.42198 0.35562 0.78425 0.0
O228 O 0.33514 0.39127 0.76366 0.0
C229 C 0.28469 0.28626 0.75747 0.0
O230 O 0.31515 0.28594 0.7441 0.0
C231 C 0.35223 0.32813 0.82573 0.0
O232 O 0.36272 0.29292 0.81859 0.0
O233 O 0.38286 0.30709 0.7723 0.0
C234 C 0.84151 0.06634 0.0141 0.0
O235 O 0.85566 0.03304 0.02208 0.0
O236 O 0.89629 0.10039 0.06604 0.0
Zn237 Zn 0.91131 0.09786 0.03428 0.0
O238 O 0.94324 0.04869 0.02813 0.0
C239 C 0.93122 0.18038 0.03059 0.0
O240 O 0.89484 0.18443 0.03794 0.0
O241 O 0.86096 0.09825 0.01679 0.0
C242 C 0.96411 0.04753 0.01088 0.0
O243 O 0.96351 0.07808 -0.00245 0.0
C244 C 0.91973 0.11599 0.0798 0.0
O245 O 0.95462 0.12854 0.07321 0.0
O246 O 0.94455 0.14573 0.02709 0.0
C247 C 0.16454 0.60859 0.27256 0.0
O248 O 0.19754 0.62456 0.27979 0.0
O249 O 0.13579 0.6759 0.32096 0.0
Zn250 Zn 0.13341 0.68203 0.28838 0.0
O251 O 0.18134 0.71249 0.27854 0.0
C252 C 0.0511 0.69849 0.27771 0.0
O253 O 0.04727 0.65975 0.27897 0.0
O254 O 0.13241 0.62808 0.27415 0.0
C255 C 0.18191 0.72854 0.25979 0.0
O256 O 0.15115 0.72418 0.24686 0.0
C257 C 0.1202 0.6464 0.33063 0.0
O258 O 0.10234 0.61893 0.31903 0.0
O259 O 0.08493 0.71399 0.28085 0.0
C260 C 0.68728 0.06886 0.97298 0.0
O261 O 0.67186 0.0361 0.96504 0.0
O262 O 0.6262 0.1037 0.92319 0.0
Zn263 Zn 0.61592 0.10146 0.95541 0.0
O264 O 0.58443 0.05254 0.96235 0.0
C265 C 0.59397 0.18328 0.95712 0.0
O266 O 0.62742 0.18693 0.9463 0.0
O267 O 0.66815 0.10117 0.97116 0.0
C268 C 0.56659 0.04975 0.98054 0.0
O269 O 0.57001 0.07869 -0.00523 0.0
C270 C 0.59683 0.10714 0.91037 0.0
O271 O 0.56088 0.10815 0.91863 0.0
O272 O 0.58332 0.1491 0.96355 0.0
C273 C 0.16638 0.45132 0.23472 0.0
O274 O 0.1997 0.43659 0.22712 0.0
O275 O 0.13575 0.39019 0.18431 0.0
Zn276 Zn 0.13617 0.37924 0.21658 0.0
O277 O 0.18544 0.34833 0.22394 0.0
C278 C 0.05456 0.35746 0.21681 0.0
O279 O 0.05189 0.39185 0.20681 0.0
O280 O 0.1346 0.43143 0.23256 0.0
C281 C 0.18733 0.32654 0.24083 0.0
O282 O 0.15681 0.32508 0.25413 0.0
C283 C 0.13437 0.36092 0.17129 0.0
O284 O 0.13414 0.32479 0.17936 0.0
O285 O 0.08827 0.34588 0.22347 0.0
C286 C 0.84078 0.91236 0.47854 0.0
O287 O 0.86064 0.94514 0.47463 0.0
O288 O 0.90548 0.8692 0.42874 0.0
Zn289 Zn 0.91148 0.87588 0.4611 0.0
O290 O 0.94391 0.92452 0.46785 0.0
C291 C 0.92739 0.79373 0.46622 0.0
O292 O 0.8934 0.79172 0.4558 0.0
O293 O 0.85694 0.87909 0.47451 0.0
C294 C 0.96033 0.92784 0.48642 0.0
O295 O 0.95524 0.89957 0.50093 0.0
C296 C 0.88734 0.89303 0.41618 0.0
O297 O 0.87182 0.9256 0.42426 0.0
O298 O 0.94087 0.82758 0.47149 0.0
C299 C 0.30613 0.56782 0.7232 0.0
O300 O 0.27331 0.58388 0.71578 0.0
O301 O 0.34164 0.62755 0.67298 0.0
Zn302 Zn 0.33966 0.63877 0.70524 0.0
O303 O 0.29146 0.6711 0.71263 0.0
C304 C 0.42247 0.65651 0.70983 0.0
O305 O 0.42595 0.62061 0.7017 0.0
O306 O 0.33865 0.58647 0.72101 0.0
C307 C 0.28883 0.68613 0.73158 0.0
O308 O 0.31727 0.67941 0.74574 0.0
C309 C 0.3582 0.65194 0.66005 0.0
O310 O 0.37234 0.68537 0.66785 0.0
O311 O 0.38805 0.67022 0.7135 0.0
C312 C 0.32729 0.09459 0.4788 0.0
O313 O 0.3422 0.06111 0.47151 0.0
O314 O 0.3794 0.12261 0.42602 0.0
Zn315 Zn 0.39599 0.12463 0.45744 0.0
O316 O 0.4288 0.07642 0.46473 0.0
C317 C 0.41842 0.2063 0.45312 0.0
O318 O 0.38422 0.20785 0.4429 0.0
O319 O 0.3461 0.12669 0.47544 0.0
C320 C 0.45226 0.07695 0.48096 0.0
O321 O 0.45413 0.109 0.49311 0.0
C322 C 0.40535 0.1252 0.41108 0.0
O323 O 0.44295 0.12743 0.41655 0.0
O324 O 0.42939 0.17366 0.46155 0.0
C325 C 0.66237 0.61456 0.21774 0.0
O326 O 0.69607 0.633 0.21415 0.0
O327 O 0.62452 0.67632 0.16568 0.0
Zn328 Zn 0.6302 0.68518 0.19793 0.0
O329 O 0.6798 0.71611 0.2051 0.0
C330 C 0.58414 0.75424 0.2008 0.0
O331 O 0.61509 0.76692 0.18979 0.0
O332 O 0.63003 0.63165 0.21272 0.0
C333 C 0.68265 0.73024 0.22427 0.0
O334 O 0.65436 0.72268 0.23843 0.0
C335 C 0.64427 0.65077 0.155 0.0
O336 O 0.67185 0.63011 0.16498 0.0
O337 O 0.58326 0.71822 0.20699 0.0
C338 C 0.19073 0.8912 0.97653 0.0
O339 O 0.17725 0.92173 0.96545 0.0
O340 O 0.12328 0.86389 0.93302 0.0
Zn341 Zn 0.11453 0.86267 0.96539 0.0
O342 O 0.08358 0.91105 0.97421 0.0
C343 C 0.09674 0.78024 0.96596 0.0
O344 O 0.1317 0.77909 0.95651 0.0
O345 O 0.16816 0.86151 0.97956 0.0
C346 C 0.06196 0.91117 0.9912 0.0
O347 O 0.06075 0.87936 0.00357 0.0
C348 C 0.09506 0.85493 0.92024 0.0
O349 O 0.06016 0.84628 0.92851 0.0
O350 O 0.08324 0.81346 0.9723 0.0
C351 C 0.81174 0.40414 0.72703 0.0
O352 O 0.78051 0.38909 0.71726 0.0
O353 O 0.85802 0.34386 0.67989 0.0
Zn354 Zn 0.84526 0.33223 0.71118 0.0
O355 O 0.79332 0.30311 0.71459 0.0
C356 C 0.88737 0.26153 0.71285 0.0
O357 O 0.85805 0.25323 0.6995 0.0
O358 O 0.84383 0.38433 0.72728 0.0
C359 C 0.78717 0.28652 0.73291 0.0
O360 O 0.81378 0.29051 0.7484 0.0
C361 C 0.83373 0.34641 0.66416 0.0
O362 O 0.79568 0.34129 0.66782 0.0
O363 O 0.88886 0.29589 0.72139 0.0
C364 C 0.3535 0.88937 0.00602 0.0
O365 O 0.37202 0.92304 0.00956 0.0
O366 O 0.41656 0.85204 0.05705 0.0
Zn367 Zn 0.42471 0.85758 0.02483 0.0
O368 O 0.45373 0.90837 0.01824 0.0
C369 C 0.49527 0.81395 0.02084 0.0
O370 O 0.50756 0.84546 0.0315 0.0
O371 O 0.37086 0.85692 0.01058 0.0
C372 C 0.46903 0.91292 -0.00054 0.0
O373 O 0.46426 0.88493 0.98477 0.0
C374 C 0.39808 0.87776 0.06826 0.0
O375 O 0.38464 0.9099 0.05865 0.0
O376 O 0.45896 0.81174 0.01538 0.0
C377 C 0.80447 0.56288 0.76261 0.0
O378 O 0.7709 0.57694 0.77026 0.0
O379 O 0.8378 0.62372 0.81228 0.0
Zn380 Zn 0.83533 0.63602 0.78002 0.0
O381 O 0.78681 0.66842 0.77271 0.0
C382 C 0.91793 0.65183 0.77313 0.0
O383 O 0.92086 0.61428 0.77869 0.0
O384 O 0.83572 0.58371 0.76425 0.0
C385 C 0.7859 0.68748 0.7548 0.0
O386 O 0.81605 0.68443 0.74132 0.0
C387 C 0.85937 0.64401 0.82511 0.0
O388 O 0.87815 0.67525 0.81751 0.0
O389 O 0.88377 0.66749 0.77187 0.0
C390 C 0.1714 0.09473 0.51816 0.0
O391 O 0.15842 0.0628 0.5282 0.0
O392 O 0.10785 0.12635 0.56547 0.0
Zn393 Zn 0.0971 0.12183 0.53333 0.0
O394 O 0.06984 0.07026 0.52605 0.0
C395 C 0.02492 0.16293 0.53293 0.0
O396 O 0.01559 0.13067 0.54384 0.0
O397 O 0.14942 0.12535 0.51759 0.0
C398 C 0.05477 0.06611 0.50719 0.0
O399 O 0.05864 0.09496 0.49292 0.0
C400 C 0.09399 0.10293 0.57981 0.0
O401 O 0.07206 0.07271 0.57368 0.0
O402 O 0.06008 0.16665 0.5257 0.0
C403 C 0.66249 0.45509 0.25268 0.0
O404 O 0.69226 0.44336 0.2649 0.0
O405 O 0.62853 0.3982 0.29972 0.0
Zn406 Zn 0.6328 0.38203 0.26813 0.0
O407 O 0.68231 0.34985 0.26281 0.0
C408 C 0.58067 0.32017 0.27611 0.0
O409 O 0.60787 0.31543 0.29121 0.0
O410 O 0.63266 0.43237 0.25053 0.0
C411 C 0.6846 0.32681 0.24644 0.0
O412 O 0.65483 0.32527 0.23265 0.0
C413 C 0.65028 0.38481 0.31494 0.0
O414 O 0.67918 0.36016 0.31016 0.0
O415 O 0.58488 0.34787 0.26222 0.0
C416 C 0.01135 0.50805 0.00897 0.0
C417 C 0.99378 0.5106 0.98822 0.0
H418 H 0.04802 0.47452 0.03068 0.0
C419 C 0.00057 0.47999 0.97311 0.0
H420 H 0.00683 0.53115 0.02099 0.0
C421 C 0.02428 0.44749 0.97868 0.0
C422 C 0.04175 0.44491 -0.00055 0.0
H423 H 0.98754 0.48109 0.95698 0.0
H424 H 0.02877 0.42433 0.96669 0.0
C425 C 0.03508 0.4756 0.01452 0.0
C426 C 0.74565 0.76627 0.21508 0.0
C427 C 0.71639 0.75603 0.23042 0.0
H428 H 0.7993 0.79826 0.20878 0.0
C429 C 0.71924 0.77124 0.25171 0.0
H430 H 0.74425 0.75516 0.19852 0.0
C431 C 0.75072 0.79597 0.25758 0.0
C432 C 0.78007 0.80613 0.24228 0.0
H433 H 0.69716 0.76403 0.26392 0.0
H434 H 0.75209 0.80698 0.27416 0.0
C435 C 0.77713 0.7911 0.22095 0.0
C436 C 0.52149 0.50316 0.46726 0.0
C437 C 0.52695 0.47225 0.48236 0.0
H438 H 0.49497 0.55955 0.46066 0.0
C439 C 0.50896 0.47517 0.50299 0.0
H440 H 0.53488 0.50182 0.45121 0.0
C441 C 0.48603 0.50829 0.50841 0.0
C442 C 0.48055 0.53919 0.49331 0.0
H443 H 0.51253 0.45186 0.515 0.0
H444 H 0.47262 0.50964 0.52445 0.0
C445 C 0.49853 0.53625 0.47267 0.0
C446 C 0.74662 0.24141 0.75644 0.0
C447 C 0.75155 0.26174 0.73659 0.0
H448 H 0.71053 0.20237 0.77547 0.0
C449 C 0.72253 0.25757 0.72031 0.0
H450 H 0.76847 0.24386 0.76931 0.0
C451 C 0.6892 0.23369 0.72386 0.0
C452 C 0.68429 0.21341 0.74373 0.0
H453 H 0.72549 0.27277 0.70482 0.0
H454 H 0.66727 0.23122 0.71103 0.0
C455 C 0.71342 0.21749 0.75996 0.0
C456 C 0.0036 0.45822 0.48921 0.0
C457 C 0.97615 0.45841 0.50646 0.0
H458 H 0.04868 0.4899 0.47191 0.0
C459 C 0.97429 0.49179 0.52017 0.0
H460 H 0.00594 0.43293 0.47839 0.0
C461 C -0.00104 0.52448 0.5165 0.0
C462 C 0.02597 0.52451 0.49902 0.0
H463 H 0.95357 0.49282 0.53367 0.0
H464 H 0.99644 0.54993 0.52719 0.0
C465 C 0.02821 0.49088 0.48552 0.0
C466 C 0.71897 0.75899 0.72435 0.0
C467 C 0.68738 0.76372 0.73908 0.0
H468 H 0.77472 0.7312 0.71773 0.0
C469 C 0.68853 0.74326 0.75907 0.0
H470 H 0.71899 0.77427 0.7088 0.0
C471 C 0.72042 0.71843 0.76416 0.0
C472 C 0.75192 0.71355 0.74939 0.0
H473 H 0.66465 0.74617 0.77078 0.0
H474 H 0.72032 0.70305 0.77968 0.0
C475 C 0.7509 0.73421 0.72946 0.0
C476 C 0.48714 0.47674 0.97121 0.0
C477 C 0.48529 0.44571 0.98651 0.0
H478 H 0.51277 0.53271 0.9626 0.0
C479 C 0.50884 0.44802 0.00538 0.0
H480 H 0.46943 0.47585 0.95648 0.0
C481 C 0.53381 0.48049 0.00884 0.0
C482 C 0.53575 0.51149 0.99353 0.0
H483 H 0.50822 0.42459 0.01748 0.0
H484 H 0.55157 0.48128 0.02355 0.0
C485 C 0.51206 0.5093 0.9747 0.0
C486 C 0.78322 0.27581 0.25614 0.0
C487 C 0.78677 0.25178 0.2375 0.0
H488 H 0.74843 0.31845 0.27353 0.0
C489 C 0.75641 0.25263 0.22181 0.0
H490 H 0.8061 0.27596 0.26853 0.0
C491 C 0.72327 0.27703 0.2247 0.0
C492 C 0.71984 0.30121 0.24329 0.0
H493 H 0.75823 0.23451 0.20726 0.0
H494 H 0.70039 0.27697 0.2123 0.0
C495 C 0.75018 0.3003 0.25899 0.0
C496 C 0.24937 0.23514 0.73511 0.0
C497 C 0.24992 0.26061 0.75326 0.0
H498 H 0.21734 0.19126 0.71709 0.0
C499 C 0.21718 0.26088 0.76746 0.0
H500 H 0.27413 0.23413 0.72387 0.0
C501 C 0.1846 0.23624 0.76358 0.0
C502 C 0.18407 0.21076 0.74543 0.0
H503 H 0.21668 0.28013 0.7816 0.0
H504 H 0.15982 0.23724 0.77481 0.0
C505 C 0.21683 0.21047 0.73125 0.0
C506 C 0.24907 0.7576 0.26679 0.0
C507 C 0.21631 0.7527 0.25287 0.0
H508 H 0.30608 0.78405 0.27151 0.0
C509 C 0.21654 0.77155 0.23242 0.0
H510 H 0.24982 0.74351 0.28266 0.0
C511 C 0.24879 0.79486 0.22603 0.0
C512 C 0.28152 0.7998 0.23996 0.0
H513 H 0.19176 0.76841 0.22132 0.0
H514 H 0.24804 0.80897 0.21016 0.0
C515 C 0.28132 0.7809 0.2604 0.0
C516 C 0.28789 0.2782 0.23365 0.0
C517 C 0.28999 0.25336 0.25204 0.0
H518 H 0.25406 0.32084 0.21575 0.0
C519 C 0.2583 0.25327 0.26694 0.0
H520 H 0.31182 0.27908 0.22187 0.0
C521 C 0.22509 0.27728 0.26342 0.0
C522 C 0.22291 0.30193 0.24495 0.0
H523 H 0.25901 0.2345 0.28128 0.0
H524 H 0.20106 0.27634 0.27513 0.0
C525 C 0.25476 0.30223 0.23016 0.0
C526 C 0.21882 0.75079 0.76433 0.0
C527 C 0.18881 0.75879 0.74905 0.0
H528 H 0.27387 0.72156 0.77081 0.0
C529 C 0.19212 0.74294 0.72793 0.0
H530 H 0.21717 0.76254 0.78075 0.0
C531 C 0.22457 0.71935 0.72225 0.0
C532 C 0.25447 0.71115 0.73756 0.0
H533 H 0.16949 0.7485 0.71577 0.0
H534 H 0.22615 0.70749 0.70585 0.0
C535 C 0.25131 0.72724 0.75864 0.0
C536 C 0.5276 0.01006 0.50846 0.0
C537 C 0.52631 0.97605 0.49521 0.0
H538 H 0.50524 0.06849 0.51439 0.0
C539 C 0.50053 0.97556 0.4772 0.0
H540 H 0.54711 0.01142 0.52246 0.0
C541 C 0.47644 0.00825 0.47259 0.0
C542 C 0.47763 0.04222 0.48588 0.0
H543 H 0.49876 0.94982 0.46667 0.0
H544 H 0.45688 0.00686 0.45861 0.0
C545 C 0.50354 0.04278 0.50384 0.0
C546 C 0.03733 0.97954 0.98266 0.0
C547 C 0.03739 0.94626 -0.00351 0.0
H548 H 0.01414 0.03744 0.97631 0.0
C549 C 0.0132 0.94659 0.01517 0.0
H550 H 0.05557 0.98026 0.96811 0.0
C551 C 0.98939 0.97946 0.01988 0.0
C552 C 0.98921 0.01265 0.00598 0.0
H553 H 0.01253 0.92142 0.02616 0.0
H554 H 0.97105 0.97877 0.03438 0.0
C555 C 0.01349 0.01234 0.98734 0.0
C556 C 0.5223 0.01126 0.00564 0.0
C557 C 0.54157 0.0148 0.9854 0.0
H558 H 0.48417 0.97641 0.02595 0.0
C559 C 0.53638 0.98479 0.96974 0.0
H560 H 0.52563 0.03389 0.01804 0.0
C561 C 0.51251 0.95191 0.97425 0.0
C562 C 0.49339 0.94828 -0.00548 0.0
H563 H 0.55073 0.98664 0.95397 0.0
H564 H 0.50927 0.92926 0.96185 0.0
C565 C 0.49848 0.97833 0.01016 0.0
C566 C 0.01359 0.02644 0.48112 0.0
C567 C 0.03149 0.03023 0.50171 0.0
H568 H 0.97705 0.99129 0.46014 0.0
C569 C 0.02611 -0.00013 0.51716 0.0
H570 H 0.01711 0.0493 0.46884 0.0
C571 C 0.00309 0.96659 0.51217 0.0
C572 C 0.98494 0.96296 0.49163 0.0
H573 H 0.03947 0.00188 0.53319 0.0
H574 H -0.00058 0.94381 0.52448 0.0
C575 C 0.99056 0.99319 0.47613 0.0
C576 C 0.99722 0.2108 0.02177 0.0
C577 C 0.95775 0.21522 0.0288 0.0
H578 H 0.05375 0.23853 0.01706 0.0
C579 C 0.94455 0.25288 0.03537 0.0
H580 H 0.00829 0.18219 0.01652 0.0
C581 C 0.97061 0.28506 0.03574 0.0
C582 C 0.01044 0.28037 0.02948 0.0
H583 H 0.91433 0.25735 0.04081 0.0
H584 H 0.95967 0.31347 0.0414 0.0
C585 C 0.02329 0.24309 0.02206 0.0
C586 C 0.97801 0.70744 0.27232 0.0
C587 C 0.01603 0.72411 0.27415 0.0
H588 H 0.91567 0.71794 0.26979 0.0
C589 C 0.02003 0.76565 0.27348 0.0
H590 H 0.97388 0.67558 0.27268 0.0
C591 C 0.98662 0.79 0.27179 0.0
C592 C 0.94848 0.77333 0.27077 0.0
H593 H 0.04894 0.77947 0.27473 0.0
H594 H 0.99066 0.82188 0.27187 0.0
C595 C 0.94461 0.73178 0.27065 0.0
C596 C 0.54816 0.70363 0.52728 0.0
C597 C 0.50852 0.70718 0.52048 0.0
H598 H 0.6035 0.73279 0.53287 0.0
C599 C 0.49515 0.74393 0.51254 0.0
H600 H 0.55952 0.67566 0.53334 0.0
C601 C 0.52046 0.77685 0.51231 0.0
C602 C 0.55967 0.77359 0.51995 0.0
H603 H 0.4648 0.74761 0.50714 0.0
H604 H 0.50897 0.80507 0.5067 0.0
C605 C 0.57344 0.73641 0.52699 0.0
C606 C 0.52218 0.27984 0.77918 0.0
C607 C 0.51725 0.24069 0.77175 0.0
H608 H 0.49477 0.3356 0.78615 0.0
C609 C 0.47981 0.22867 0.7642 0.0
H610 H 0.55071 0.29016 0.78498 0.0
C611 C 0.4476 0.2548 0.76494 0.0
C612 C 0.45227 0.29351 0.77315 0.0
H613 H 0.47507 0.19874 0.75833 0.0
H614 H 0.41886 0.24433 0.75956 0.0
C615 C 0.49009 0.30597 0.77983 0.0
C616 C 0.99052 0.76026 0.47767 0.0
C617 C 0.95197 0.75771 0.46904 0.0
H618 H 0.04527 0.73017 0.48402 0.0
C619 C 0.93819 0.72084 0.46152 0.0
H620 H 0.002 0.78822 0.48366 0.0
C621 C 0.96297 0.68768 0.46169 0.0
C622 C 0.00209 0.69059 0.46941 0.0
H623 H 0.90861 0.71778 0.45486 0.0
H624 H 0.9517 0.65998 0.45523 0.0
C625 C 0.01534 0.72701 0.47786 0.0
C626 C 0.52741 0.695 0.70479 0.0
C627 C 0.52311 0.73472 0.71137 0.0
H628 H 0.49917 0.63907 0.69936 0.0
C629 C 0.48613 0.74762 0.71918 0.0
H630 H 0.55559 0.68402 0.69885 0.0
C631 C 0.45368 0.72177 0.71944 0.0
C632 C 0.45762 0.6825 0.71198 0.0
H633 H 0.4819 0.778 0.72444 0.0
H634 H 0.42526 0.73294 0.72492 0.0
C635 C 0.49505 0.66916 0.70512 0.0
C636 C 0.5772 0.25454 0.95055 0.0
C637 C 0.56704 0.21763 0.95961 0.0
H638 H 0.5587 0.31366 0.94321 0.0
C639 C 0.52989 0.21332 0.9698 0.0
H640 H 0.60561 0.25894 0.94267 0.0
C641 C 0.50289 0.24483 0.97015 0.0
C642 C 0.51249 0.28119 0.96024 0.0
H643 H 0.52121 0.18529 0.97702 0.0
H644 H 0.47411 0.24029 0.97758 0.0
C645 C 0.55023 0.28592 0.95084 0.0
C646 C 0.98342 0.34249 0.20891 0.0
C647 C 0.0197 0.33085 0.21813 0.0
H648 H 0.92437 0.3258 0.20033 0.0
C649 C 0.02287 0.29272 0.22734 0.0
H650 H 0.97987 0.37168 0.20176 0.0
C651 C 0.99087 0.2663 0.22655 0.0
C652 C 0.95517 0.27747 0.21647 0.0
H653 H 0.0504 0.28288 0.23464 0.0
H654 H 0.99453 0.23677 0.23323 0.0
C655 C 0.95157 0.31611 0.20806 0.0
C656 C 0.06036 0.67557 0.95641 0.0
C657 C 0.02083 0.67786 0.96355 0.0
H658 H 0.11539 0.70588 0.95177 0.0
C659 C 0.00735 0.71323 0.97315 0.0
H660 H 0.07181 0.64866 0.94909 0.0
C661 C 0.03245 0.74617 0.97469 0.0
C662 C 0.07152 0.74432 0.9667 0.0
H663 H 0.97709 0.71589 0.97889 0.0
H664 H 0.02086 0.7734 0.98157 0.0
C665 C 0.08542 0.7084 0.95797 0.0
C666 C 0.95477 0.24289 0.72687 0.0
C667 C 0.91951 0.23231 0.71616 0.0
H668 H 0.01374 0.22564 0.73566 0.0
C669 C 0.916 0.19398 0.70734 0.0
H670 H 0.95834 0.27217 0.73388 0.0
C671 C 0.9476 0.16734 0.70839 0.0
C672 C 0.98351 0.17846 0.71823 0.0
H673 H 0.88912 0.18477 0.69911 0.0
H674 H 0.94421 0.13843 0.70091 0.0
C675 C 0.98651 0.21623 0.72787 0.0
C676 C 0.45984 0.30863 0.44159 0.0
C677 C 0.49818 0.30597 0.45044 0.0
H678 H 0.40459 0.27947 0.43561 0.0
C679 C 0.50948 0.27081 0.4611 0.0
H680 H 0.45009 0.33533 0.43334 0.0
C681 C 0.48328 0.23871 0.46244 0.0
C682 C 0.44523 0.2411 0.45314 0.0
H683 H 0.53877 0.26784 0.46815 0.0
H684 H 0.49311 0.21179 0.47044 0.0
C685 C 0.43368 0.27658 0.44292 0.0
C686 C 0.48114 0.79114 0.21496 0.0
C687 C 0.48273 0.83054 0.20742 0.0
H688 H 0.51201 0.73604 0.21887 0.0
C689 C 0.51872 0.84528 0.19922 0.0
H690 H 0.45386 0.7789 0.22143 0.0
C691 C 0.55192 0.82074 0.19771 0.0
C692 C 0.54993 0.78089 0.20441 0.0
H693 H 0.52103 0.87553 0.19337 0.0
H694 H 0.57891 0.83283 0.1908 0.0
C695 C 0.51444 0.76655 0.21348 0.0
C696 C 0.92982 0.22171 0.5382 0.0
C697 C 0.9409 0.25876 0.52965 0.0
H698 H 0.94755 0.16245 0.54582 0.0
C699 C 0.9792 0.26334 0.5209 0.0
H700 H 0.90052 0.21711 0.54499 0.0
C701 C 0.00626 0.2319 0.52137 0.0
C702 C 0.99557 0.19529 0.53063 0.0
H703 H 0.98864 0.29149 0.51412 0.0
H704 H 0.03582 0.23663 0.51495 0.0
C705 C 0.95685 0.19035 0.53869 0.0
C706 C 0.49584 0.26068 0.29901 0.0
C707 C 0.47347 0.25214 0.28031 0.0
H708 H 0.54758 0.28819 0.31215 0.0
C709 C 0.48675 0.2657 0.25989 0.0
H710 H 0.48639 0.25038 0.31493 0.0
C711 C 0.52157 0.28828 0.25834 0.0
C712 C 0.54403 0.29644 0.27712 0.0
H713 H 0.46987 0.25951 0.24526 0.0
H714 H 0.53112 0.29898 0.24252 0.0
C715 C 0.53099 0.28214 0.29739 0.0
C716 C 0.5089 0.74408 0.00889 0.0
C717 C 0.52279 0.78053 0.01694 0.0
H718 H 0.52245 0.68337 0.00185 0.0
C719 C 0.56306 0.78422 0.02247 0.0
H720 H 0.47807 0.74034 0.00439 0.0
C721 C 0.58851 0.75168 0.02094 0.0
C722 C 0.57422 0.71469 0.01392 0.0
H723 H 0.57481 0.812 0.02855 0.0
H724 H 0.61907 0.75526 0.02599 0.0
C725 C 0.53436 0.71144 0.00742 0.0
C726 C 0.99122 0.66123 0.77654 0.0
C727 C 0.95377 0.67694 0.77148 0.0
H728 H 0.0526 0.67306 0.78224 0.0
C729 C 0.95058 0.71755 0.76647 0.0
H730 H 0.99475 0.63007 0.7804 0.0
C731 C 0.98383 0.74225 0.76748 0.0
C732 C 0.02089 0.72684 0.77362 0.0
H733 H 0.92216 0.73055 0.7624 0.0
H734 H 0.98019 0.77361 0.76419 0.0
C735 C 0.02439 0.68593 0.77764 0.0
C736 C 0.28389 0.42024 -0.00287 0.0
C737 C 0.30187 0.38458 0.99056 0.0
H738 H 0.23293 0.44828 0.01099 0.0
C739 C 0.28091 0.34883 0.99324 0.0
H740 H 0.29919 0.44831 -0.0047 0.0
C741 C 0.24263 0.34884 0.00209 0.0
C742 C 0.22468 0.38458 0.00862 0.0
H743 H 0.29387 0.32085 0.98827 0.0
H744 H 0.22717 0.32085 0.00388 0.0
C745 C 0.24584 0.42022 0.00613 0.0
C746 C 0.80979 0.04954 0.24694 0.0
C747 C 0.84583 0.06675 0.24038 0.0
H748 H 0.78034 -0.00166 0.2597 0.0
C749 C 0.88073 0.04407 0.24174 0.0
H750 H 0.78235 0.06617 0.24609 0.0
C751 C 0.87951 0.0049 0.24934 0.0
C752 C 0.84342 0.98778 0.25595 0.0
H753 H 0.90895 0.05639 0.2367 0.0
H754 H 0.90687 0.98816 0.25018 0.0
C755 C 0.80863 0.0106 0.25473 0.0
C756 C 0.24418 0.55647 0.48345 0.0
C757 C 0.21968 0.59013 0.48433 0.0
H758 H 0.30148 0.53182 0.48967 0.0
C759 C 0.23559 0.626 0.49213 0.0
H760 H 0.2329 0.52839 0.47751 0.0
C761 C 0.27517 0.62808 0.4989 0.0
C762 C 0.2995 0.59423 0.49823 0.0
H763 H 0.21753 0.65253 0.49291 0.0
H764 H 0.28653 0.65606 0.50494 0.0
C765 C 0.28355 0.55844 0.49041 0.0
C766 C 0.58924 0.00778 0.7428 0.0
C767 C 0.62445 0.02733 0.74872 0.0
H768 H 0.56262 0.95435 0.73075 0.0
C769 C 0.66064 0.007 0.74671 0.0
H770 H 0.56085 0.02257 0.74424 0.0
C771 C 0.66168 0.96806 0.73895 0.0
C772 C 0.62651 0.94836 0.73315 0.0
H773 H 0.68833 0.02115 0.75113 0.0
H774 H 0.69012 0.95337 0.73757 0.0
C775 C 0.59024 0.96863 0.73518 0.0
C776 C 0.75645 0.53161 0.00106 0.0
C777 C 0.733 0.566 -0.00011 0.0
H778 H 0.81279 0.5049 -0.00543 0.0
C779 C 0.74957 0.60081 0.99112 0.0
H780 H 0.74458 0.50433 0.00775 0.0
C781 C 0.78884 0.60127 0.98381 0.0
C782 C 0.81223 0.56682 0.98489 0.0
H783 H 0.73234 0.62787 0.9901 0.0
H784 H 0.80073 0.62855 0.97712 0.0
C785 C 0.79556 0.53195 0.99352 0.0
C786 C 0.1658 0.95662 0.75203 0.0
C787 C 0.13016 0.93821 0.75825 0.0
H788 H 0.19377 0.00871 0.73931 0.0
C789 C 0.09458 0.95975 0.75675 0.0
H790 H 0.19372 0.94085 0.75302 0.0
C791 C 0.09467 -0.00114 0.74911 0.0
C792 C 0.13028 0.01705 0.7426 0.0
H793 H 0.06665 0.94648 0.76154 0.0
H794 H 0.06675 0.0146 0.748 0.0
C795 C 0.16583 0.99553 0.74418 0.0
C796 C 0.76413 0.37341 0.49358 0.0
C797 C 0.78419 0.40888 0.49844 0.0
H798 H 0.71157 0.34651 0.48072 0.0
C799 C 0.76591 0.44525 0.49353 0.0
H800 H 0.77734 0.34491 0.4973 0.0
C801 C 0.72838 0.44616 0.48391 0.0
C802 C 0.70811 0.41072 0.47928 0.0
H803 H 0.7806 0.47308 0.49709 0.0
H804 H 0.71514 0.47467 0.48025 0.0
C805 C 0.72634 0.37433 0.48424 0.0
C806 C 0.3742 0.04402 0.24189 0.0
C807 C 0.33923 0.06432 0.24743 0.0
H808 H 0.40003 0.99061 0.22952 0.0
C809 C 0.30253 0.04554 0.2441 0.0
H810 H 0.40296 0.0576 0.24434 0.0
C811 C 0.30084 0.00718 0.23548 0.0
C812 C 0.33583 0.98667 0.23026 0.0
H813 H 0.27505 0.06041 0.2482 0.0
H814 H 0.2721 0.99347 0.23314 0.0
C815 C 0.37253 0.00553 0.23351 0.0
C816 C 0.77584 0.87999 0.48753 0.0
C817 C 0.79961 0.91424 0.48685 0.0
H818 H 0.71929 0.85499 0.49548 0.0
C819 C 0.78345 0.95048 0.4939 0.0
H820 H 0.78732 0.85164 0.48212 0.0
C821 C 0.74451 0.95236 0.50164 0.0
C822 C 0.72074 0.91813 0.50233 0.0
H823 H 0.80096 0.97742 0.49357 0.0
H824 H 0.73306 0.9807 0.5071 0.0
C825 C 0.73677 0.88195 0.49509 0.0
C826 C 0.34099 0.50754 0.73745 0.0
C827 C 0.30545 0.52792 0.73325 0.0
H828 H 0.36824 0.45465 0.7496 0.0
C829 C 0.26924 0.50952 0.7384 0.0
H830 H 0.36938 0.52083 0.73357 0.0
C831 C 0.26859 0.47164 0.7477 0.0
C832 C 0.30412 0.45122 0.75183 0.0
H833 H 0.24135 0.52444 0.73537 0.0
H834 H 0.24021 0.45836 0.7516 0.0
C835 C 0.34032 0.46952 0.74653 0.0
C836 C 0.78295 0.0314 -0.00206 0.0
C837 C 0.80246 0.067 0.00313 0.0
H838 H 0.73134 0.00406 0.9843 0.0
C839 C 0.78384 0.10325 -0.00174 0.0
H840 H 0.79651 0.00299 0.00147 0.0
C841 C 0.74632 0.10386 0.98861 0.0
C842 C 0.7268 0.06825 0.98342 0.0
H843 H 0.79802 0.13121 0.00212 0.0
H844 H 0.73272 0.13227 0.98513 0.0
C845 C 0.74559 0.03202 0.9881 0.0
C846 C 0.12914 0.54832 0.2585 0.0
C847 C 0.16482 0.56827 0.263 0.0
H848 H 0.1016 0.49557 0.24626 0.0
C849 C 0.20092 0.5492 0.25842 0.0
H850 H 0.10082 0.56213 0.26193 0.0
C851 C 0.20137 0.51117 0.24935 0.0
C852 C 0.16573 0.4912 0.24483 0.0
H853 H 0.22893 0.56374 0.26169 0.0
H854 H 0.22971 0.49745 0.24589 0.0
C855 C 0.12959 0.5101 0.24961 0.0
C856 C 0.22913 0.13075 0.50153 0.0
C857 C 0.21136 0.09501 0.50819 0.0
H858 H 0.27999 0.15876 0.48731 0.0
C859 C 0.23239 0.05935 0.50553 0.0
H860 H 0.21376 0.15875 0.50347 0.0
C861 C 0.27016 0.05932 0.49617 0.0
C862 C 0.28795 0.09501 0.48949 0.0
H863 H 0.21956 0.0313 0.5105 0.0
H864 H 0.28539 0.03127 0.49416 0.0
C865 C 0.26715 0.13078 0.49239 0.0
C866 C 0.69735 0.51836 0.24324 0.0
C867 C 0.66261 0.49534 0.24301 0.0
H868 H 0.72453 0.57395 0.23543 0.0
C869 C 0.62773 0.5118 0.23433 0.0
H870 H 0.72471 0.50655 0.24982 0.0
C871 C 0.62751 0.55066 0.2263 0.0
C872 C 0.66227 0.57369 0.22658 0.0
H873 H 0.60042 0.4949 0.23401 0.0
H874 H 0.60014 0.56255 0.21978 0.0
C875 C 0.69724 0.55703 0.23501 0.0
C876 C 0.24942 0.8554 0.99208 0.0
C877 C 0.23222 0.89067 0.98432 0.0
H878 H 0.30141 0.82715 0.00474 0.0
C879 C 0.25537 0.9253 0.98351 0.0
H880 H 0.23242 0.82816 0.99279 0.0
C881 C 0.29482 0.92476 0.99043 0.0
C882 C 0.31209 0.88948 -0.0019 0.0
H883 H 0.24301 0.95294 0.9776 0.0
H884 H 0.31178 0.95202 0.98971 0.0
C885 C 0.28903 0.85476 -0.00121 0.0
C886 C 0.84487 0.4649 0.74196 0.0
C887 C 0.80995 0.44445 0.73653 0.0
H888 H 0.87056 0.51857 0.75416 0.0
C889 C 0.77322 0.46334 0.73963 0.0
H890 H 0.87363 0.45124 0.73966 0.0
C891 C 0.77143 0.50182 0.74808 0.0
C892 C 0.80636 0.52241 0.75333 0.0
H893 H 0.74577 0.44836 0.7356 0.0
H894 H 0.74267 0.51549 0.75037 0.0
C895 C 0.8431 0.50358 0.75014 0.0
C896 C 0.12643 0.41162 0.11616 0.0
C897 C 0.12447 0.37898 0.10194 0.0
H898 H 0.1312 0.4316 0.14923 0.0
C899 C 0.12659 0.34048 0.11072 0.0
H900 H 0.12493 0.44167 0.10994 0.0
C901 C 0.13016 0.33472 0.13319 0.0
C902 C 0.13174 0.3673 0.14744 0.0
H903 H 0.1252 0.31464 0.10024 0.0
H904 H 0.13142 0.30463 0.13937 0.0
C905 C 0.13005 0.40585 0.13868 0.0
C906 C 0.89604 0.84638 0.38484 0.0
C907 C 0.88337 0.88344 0.39272 0.0
H908 H 0.90297 0.80831 0.35725 0.0
C909 C 0.86694 0.91088 0.37802 0.0
H910 H 0.90866 0.82445 0.39574 0.0
C911 C 0.86376 0.90161 0.35584 0.0
C912 C 0.87672 0.86461 0.34797 0.0
H913 H 0.85684 0.93964 0.38359 0.0
H914 H 0.85132 0.92349 0.34486 0.0
C915 C 0.89264 0.83704 0.36275 0.0
C916 C 0.34563 0.60793 0.62776 0.0
C917 C 0.36333 0.64201 0.63671 0.0
H918 H 0.33713 0.57198 0.59932 0.0
C919 C 0.38686 0.66619 0.62326 0.0
H920 H 0.32736 0.58866 0.63772 0.0
C921 C 0.39271 0.65647 0.60136 0.0
C922 C 0.37494 0.62249 0.59235 0.0
H923 H 0.40108 0.69255 0.62965 0.0
H924 H 0.41104 0.67582 0.59148 0.0
C925 C 0.35126 0.59834 0.60577 0.0
C926 C 0.57614 0.12047 0.85014 0.0
C927 C 0.6146 0.12181 0.84131 0.0
H928 H 0.5404 0.11473 0.87878 0.0
C929 C 0.64724 0.11752 0.85535 0.0
H930 H 0.55032 0.12365 0.83979 0.0
C931 C 0.64151 0.11233 0.87777 0.0
C932 C 0.60303 0.11139 0.8866 0.0
H933 H 0.67724 0.11836 0.84907 0.0
H934 H 0.66728 0.10938 0.88818 0.0
C935 C 0.57043 0.11534 0.87252 0.0
C936 C 0.13791 0.67444 0.36719 0.0
C937 C 0.12119 0.6437 0.35472 0.0
H938 H 0.15048 0.69695 0.39906 0.0
C939 C 0.10483 0.61074 0.36552 0.0
H940 H 0.1508 0.70025 0.35938 0.0
C941 C 0.10473 0.60881 0.3883 0.0
C942 C 0.12091 0.63985 0.40076 0.0
H943 H 0.09181 0.5865 0.3564 0.0
H944 H 0.09157 0.58317 0.39612 0.0
C945 C 0.13773 0.67255 0.38995 0.0
C946 C 0.57597 0.85168 0.63003 0.0
C947 C 0.61252 0.86378 0.63883 0.0
H948 H 0.53947 0.84697 0.60166 0.0
C949 C 0.64078 0.88119 0.62495 0.0
H950 H 0.55347 0.83825 0.64025 0.0
C951 C 0.63272 0.88617 0.60273 0.0
C952 C 0.59617 0.87397 0.59395 0.0
H953 H 0.6692 0.89087 0.63122 0.0
H954 H 0.65519 0.89949 0.59242 0.0
C955 C 0.56788 0.85679 0.60787 0.0
C956 C 0.34579 0.37601 0.85691 0.0
C957 C 0.35828 0.33896 0.84889 0.0
H958 H 0.34276 0.41524 0.88437 0.0
C959 C 0.37759 0.31259 0.86308 0.0
H960 H 0.33082 0.39701 0.84638 0.0
C961 C 0.38462 0.32311 0.88475 0.0
C962 C 0.37232 0.3602 0.8928 0.0
H963 H 0.38768 0.28387 0.85743 0.0
H964 H 0.39975 0.30207 0.8952 0.0
C965 C 0.35265 0.38648 0.87867 0.0
C966 C 0.85858 0.1136 0.13176 0.0
C967 C 0.88183 0.1368 0.14587 0.0
H968 H 0.85229 0.08878 0.09979 0.0
C969 C 0.91784 0.15247 0.13814 0.0
H970 H 0.83072 0.10106 0.13723 0.0
C971 C 0.93033 0.14517 0.11681 0.0
C972 C 0.90699 0.12227 0.10264 0.0
H973 H 0.93657 0.17035 0.1486 0.0
H974 H 0.95815 0.15787 0.1114 0.0
C975 C 0.87097 0.10653 0.11033 0.0
C976 C 0.89559 0.64864 0.86058 0.0
C977 C 0.86568 0.63104 0.84791 0.0
H978 H 0.92597 0.65 0.89115 0.0
C979 C 0.84292 0.60024 0.85703 0.0
H980 H 0.91384 0.67225 0.85402 0.0
C981 C 0.8498 0.58752 0.87843 0.0
C982 C 0.87984 0.60507 0.89105 0.0
H983 H 0.81971 0.58602 0.84766 0.0
H984 H 0.83162 0.56392 0.88506 0.0
C985 C 0.90272 0.63568 0.88185 0.0
C986 C 0.08516 0.08589 0.61932 0.0
C987 C 0.10063 0.11123 0.60322 0.0
H988 H 0.07713 0.07496 0.65341 0.0
C989 C 0.12146 0.14539 0.60972 0.0
H990 H 0.06903 0.05931 0.61487 0.0
C991 C 0.12602 0.15444 0.63182 0.0
C992 C 0.10996 0.12947 0.6479 0.0
H993 H 0.13381 0.16555 0.59774 0.0
H994 H 0.1418 0.18124 0.63625 0.0
C995 C 0.08982 0.09488 0.64142 0.0
C996 C 0.64635 0.37773 0.37653 0.0
C997 C 0.61492 0.40358 0.38156 0.0
H998 H 0.68251 0.3519 0.35161 0.0
C999 C 0.59686 0.42504 0.36462 0.0
H1000 H 0.66112 0.36095 0.38922 0.0
C1001 C 0.60912 0.41978 0.34303 0.0
C1002 C 0.63984 0.39311 0.33794 0.0
H1003 H 0.57268 0.44528 0.36796 0.0
H1004 H 0.59399 0.4361 0.33029 0.0
C1005 C 0.65876 0.37264 0.35496 0.0
C1006 C 0.37341 0.90034 0.10478 0.0
C1007 C 0.39132 0.87103 0.0918 0.0
H1008 H 0.35393 0.91721 0.1367 0.0
C1009 C 0.40267 0.83499 0.10151 0.0
H1010 H 0.36426 0.92839 0.09778 0.0
C1011 C 0.39652 0.82849 0.12374 0.0
C1012 C 0.37909 0.85795 0.13679 0.0
H1013 H 0.4164 0.81172 0.09196 0.0
H1014 H 0.40592 0.8005 0.13072 0.0
C1015 C 0.36745 0.8939 0.12707 0.0
C1016 C 0.88968 0.35955 0.63833 0.0
C1017 C 0.84881 0.35418 0.64189 0.0
H1018 H 0.93606 0.36941 0.61514 0.0
C1019 C 0.82292 0.35571 0.62398 0.0
H1020 H 0.91049 0.35867 0.65177 0.0
C1021 C 0.83766 0.36197 0.60293 0.0
C1022 C 0.8786 0.36675 0.59936 0.0
H1023 H 0.7913 0.35172 0.62617 0.0
H1024 H 0.81696 0.36256 0.58943 0.0
C1025 C 0.9044 0.36574 0.61731 0.0
C1026 C 0.34141 0.13567 0.36052 0.0
C1027 C 0.37013 0.14129 0.34421 0.0
H1028 H 0.32996 0.12597 0.39447 0.0
C1029 C 0.41048 0.13965 0.34995 0.0
H1030 H 0.31011 0.13666 0.35663 0.0
C1031 C 0.42186 0.13352 0.37157 0.0
C1032 C 0.39318 0.12887 0.38798 0.0
H1033 H 0.43343 0.14373 0.33778 0.0
H1034 H 0.45318 0.1331 0.37545 0.0
C1035 C 0.35282 0.12951 0.3822 0.0
C1036 C 0.6577 0.617 0.11928 0.0
C1037 C 0.63433 0.64276 0.13191 0.0
H1038 H 0.66624 0.58904 0.08825 0.0
C1039 C 0.60054 0.66007 0.12245 0.0
H1040 H 0.68389 0.60315 0.1261 0.0
C1041 C 0.59022 0.65168 0.10089 0.0
C1042 C 0.61363 0.62605 0.08822 0.0
H1043 H 0.58177 0.67992 0.13174 0.0
H1044 H 0.56403 0.66559 0.09412 0.0
C1045 C 0.64755 0.60886 0.09761 0.0
C1046 C 0.1458 0.85841 0.86506 0.0
C1047 C 0.11533 0.84557 0.85113 0.0
H1048 H 0.16332 0.87154 0.89783 0.0
C1049 C 0.07802 0.83651 0.86009 0.0
H1050 H 0.17486 0.86567 0.85867 0.0
C1051 C 0.07136 0.83999 0.88248 0.0
C1052 C 0.10188 0.85252 0.89644 0.0
H1053 H 0.05384 0.82662 0.84981 0.0
H1054 H 0.04233 0.83255 0.88884 0.0
C1055 C 0.13916 0.86181 0.8875 0.0
loop_
_geom_bond_atom_site_label_1
_geom_bond_atom_site_label_2
_geom_bond_distance
_geom_bond_site_symmetry_2
_ccdc_geom_bond_type
C0 O1 1.160 . S
C0 O7 1.185 . S
O1 C0 1.160 . S
O2 Zn3 1.899 . S
O2 C10 1.284 . S
Zn3 O2 1.899 . S
Zn3 O4 2.032 . S
Zn3 O7 2.086 . S
Zn3 O12 1.977 . S
O4 Zn3 2.032 . S
O4 C8 1.278 . S
C5 O6 1.203 . S
C5 O12 1.267 . S
O6 C5 1.203 . S
O7 C0 1.185 . S
O7 Zn3 2.086 . S
C8 O4 1.278 . S
C8 O9 1.211 . S
O9 C8 1.211 . S
C10 O2 1.284 . S
C10 O11 1.273 . S
O11 C10 1.273 . S
O12 Zn3 1.977 . S
O12 C5 1.267 . S
C13 O14 1.160 . S
C13 O20 1.185 . S
O14 C13 1.160 . S
O15 Zn16 1.899 . S
O15 C23 1.284 . S
Zn16 O15 1.899 . S
Zn16 O17 2.032 . S
Zn16 O20 2.086 . S
Zn16 O25 1.977 . S
O17 Zn16 2.032 . S
O17 C21 1.278 . S
C18 O19 1.203 . S
C18 O25 1.267 . S
O19 C18 1.203 . S
O20 C13 1.185 . S
O20 Zn16 2.086 . S
C21 O17 1.278 . S
C21 O22 1.211 . S
O22 C21 1.211 . S
C23 O15 1.284 . S
C23 O24 1.273 . S
O24 C23 1.273 . S
O25 Zn16 1.977 . S
O25 C18 1.267 . S
C26 O27 1.160 . S
C26 O33 1.185 . S
O27 C26 1.160 . S
O28 Zn29 1.899 . S
O28 C36 1.284 . S
Zn29 O28 1.899 . S
Zn29 O30 2.032 . S
Zn29 O33 2.086 . S
Zn29 O38 1.977 . S
O30 Zn29 2.032 . S
O30 C34 1.278 . S
C31 O32 1.203 . S
C31 O38 1.267 . S
O32 C31 1.203 . S
O33 C26 1.185 . S
O33 Zn29 2.086 . S
C34 O30 1.278 . S
C34 O35 1.211 . S
O35 C34 1.211 . S
C36 O28 1.284 . S
C36 O37 1.273 . S
O37 C36 1.273 . S
O38 Zn29 1.977 . S
O38 C31 1.267 . S
C39 O40 1.160 . S
C39 O46 1.185 . S
O40 C39 1.160 . S
O41 Zn42 1.899 . S
O41 C49 1.284 . S
Zn42 O41 1.899 . S
Zn42 O43 2.032 . S
Zn42 O46 2.086 . S
Zn42 O51 1.977 . S
O43 Zn42 2.032 . S
O43 C47 1.278 . S
C44 O45 1.203 . S
C44 O51 1.267 . S
O45 C44 1.203 . S
O46 C39 1.185 . S
O46 Zn42 2.086 . S
C47 O43 1.278 . S
C47 O48 1.211 . S
O48 C47 1.211 . S
C49 O41 1.284 . S
C49 O50 1.273 . S
O50 C49 1.273 . S
O51 Zn42 1.977 . S
O51 C44 1.267 . S
C52 O53 1.160 . S
C52 O59 1.185 . S
O53 C52 1.160 . S
O54 Zn55 1.899 . S
O54 C62 1.284 . S
Zn55 O54 1.899 . S
Zn55 O56 2.032 . S
Zn55 O59 2.086 . S
Zn55 O64 1.977 . S
O56 Zn55 2.032 . S
O56 C60 1.278 . S
C57 O58 1.203 . S
C57 O64 1.267 . S
O58 C57 1.203 . S
O59 C52 1.185 . S
O59 Zn55 2.086 . S
C60 O56 1.278 . S
C60 O61 1.211 . S
O61 C60 1.211 . S
C62 O54 1.284 . S
C62 O63 1.273 . S
O63 C62 1.273 . S
O64 Zn55 1.977 . S
O64 C57 1.267 . S
C65 O66 1.160 . S
C65 O72 1.185 . S
O66 C65 1.160 . S
O67 Zn68 1.899 . S
O67 C75 1.284 . S
Zn68 O67 1.899 . S
Zn68 O69 2.032 . S
Zn68 O72 2.086 . S
Zn68 O77 1.977 . S
O69 Zn68 2.032 . S
O69 C73 1.278 . S
C70 O71 1.203 . S
C70 O77 1.267 . S
O71 C70 1.203 . S
O72 C65 1.185 . S
O72 Zn68 2.086 . S
C73 O69 1.278 . S
C73 O74 1.211 . S
O74 C73 1.211 . S
C75 O67 1.284 . S
C75 O76 1.273 . S
O76 C75 1.273 . S
O77 Zn68 1.977 . S
O77 C70 1.267 . S
C78 O79 1.160 . S
C78 O85 1.185 . S
O79 C78 1.160 . S
O80 Zn81 1.899 . S
O80 C88 1.284 . S
Zn81 O80 1.899 . S
Zn81 O82 2.032 . S
Zn81 O85 2.086 . S
Zn81 O90 1.977 . S
O82 Zn81 2.032 . S
O82 C86 1.278 . S
C83 O84 1.203 . S
C83 O90 1.267 . S
O84 C83 1.203 . S
O85 C78 1.185 . S
O85 Zn81 2.086 . S
C86 O82 1.278 . S
C86 O87 1.211 . S
O87 C86 1.211 . S
C88 O80 1.284 . S
C88 O89 1.273 . S
O89 C88 1.273 . S
O90 Zn81 1.977 . S
O90 C83 1.267 . S
C91 O92 1.160 . S
C91 O98 1.185 . S
O92 C91 1.160 . S
O93 Zn94 1.899 . S
O93 C101 1.284 . S
Zn94 O93 1.899 . S
Zn94 O95 2.032 . S
Zn94 O98 2.086 . S
Zn94 O103 1.977 . S
O95 Zn94 2.032 . S
O95 C99 1.278 . S
C96 O97 1.203 . S
C96 O103 1.267 . S
O97 C96 1.203 . S
O98 C91 1.185 . S
O98 Zn94 2.086 . S
C99 O95 1.278 . S
C99 O100 1.211 . S
O100 C99 1.211 . S
C101 O93 1.284 . S
C101 O102 1.273 . S
O102 C101 1.273 . S
O103 Zn94 1.977 . S
O103 C96 1.267 . S
C104 O105 1.160 . S
C104 O111 1.185 . S
O105 C104 1.160 . S
O106 Zn107 1.899 . S
O106 C114 1.284 . S
Zn107 O106 1.899 . S
Zn107 O108 2.032 . S
Zn107 O111 2.086 . S
Zn107 O116 1.977 . S
O108 Zn107 2.032 . S
O108 C112 1.278 . S
C109 O110 1.203 . S
C109 O116 1.267 . S
O110 C109 1.203 . S
O111 C104 1.185 . S
O111 Zn107 2.086 . S
C112 O108 1.278 . S
C112 O113 1.211 . S
O113 C112 1.211 . S
C114 O106 1.284 . S
C114 O115 1.273 . S
O115 C114 1.273 . S
O116 Zn107 1.977 . S
O116 C109 1.267 . S
C117 O118 1.160 . S
C117 O124 1.185 . S
O118 C117 1.160 . S
O119 Zn120 1.899 . S
O119 C127 1.284 . S
Zn120 O119 1.899 . S
Zn120 O121 2.032 . S
Zn120 O124 2.086 . S
Zn120 O129 1.977 . S
O121 Zn120 2.032 . S
O121 C125 1.278 . S
C122 O123 1.203 . S
C122 O129 1.267 . S
O123 C122 1.203 . S
O124 C117 1.185 . S
O124 Zn120 2.086 . S
C125 O121 1.278 . S
C125 O126 1.211 . S
O126 C125 1.211 . S
C127 O119 1.284 . S
C127 O128 1.273 . S
O128 C127 1.273 . S
O129 Zn120 1.977 . S
O129 C122 1.267 . S
C130 O131 1.160 . S
C130 O137 1.185 . S
O131 C130 1.160 . S
O132 Zn133 1.899 . S
O132 C140 1.284 . S
Zn133 O132 1.899 . S
Zn133 O134 2.032 . S
Zn133 O137 2.086 . S
Zn133 O142 1.977 . S
O134 Zn133 2.032 . S
O134 C138 1.278 . S
C135 O136 1.203 . S
C135 O142 1.267 . S
O136 C135 1.203 . S
O137 C130 1.185 . S
O137 Zn133 2.086 . S
C138 O134 1.278 . S
C138 O139 1.211 . S
O139 C138 1.211 . S
C140 O132 1.284 . S
C140 O141 1.273 . S
O141 C140 1.273 . S
O142 Zn133 1.977 . S
O142 C135 1.267 . S
C143 O144 1.160 . S
C143 O150 1.185 . S
O144 C143 1.160 . S
O145 Zn146 1.899 . S
O145 C153 1.284 . S
Zn146 O145 1.899 . S
Zn146 O147 2.032 . S
Zn146 O150 2.086 . S
Zn146 O155 1.977 . S
O147 Zn146 2.032 . S
O147 C151 1.278 . S
C148 O149 1.203 . S
C148 O155 1.267 . S
O149 C148 1.203 . S
O150 C143 1.185 . S
O150 Zn146 2.086 . S
C151 O147 1.278 . S
C151 O152 1.211 . S
O152 C151 1.211 . S
C153 O145 1.284 . S
C153 O154 1.273 . S
O154 C153 1.273 . S
O155 Zn146 1.977 . S
O155 C148 1.267 . S
C156 O157 1.160 . S
C156 O163 1.185 . S
O157 C156 1.160 . S
O158 Zn159 1.899 . S
O158 C166 1.284 . S
Zn159 O158 1.899 . S
Zn159 O160 2.032 . S
Zn159 O163 2.086 . S
Zn159 O168 1.977 . S
O160 Zn159 2.032 . S
O160 C164 1.278 . S
C161 O162 1.203 . S
C161 O168 1.267 . S
O162 C161 1.203 . S
O163 C156 1.185 . S
O163 Zn159 2.086 . S
C164 O160 1.278 . S
C164 O165 1.211 . S
O165 C164 1.211 . S
C166 O158 1.284 . S
C166 O167 1.273 . S
O167 C166 1.273 . S
O168 Zn159 1.977 . S
O168 C161 1.267 . S
C169 O170 1.160 . S
C169 O176 1.185 . S
O170 C169 1.160 . S
O171 Zn172 1.899 . S
O171 C179 1.284 . S
Zn172 O171 1.899 . S
Zn172 O173 2.032 . S
Zn172 O176 2.086 . S
Zn172 O181 1.977 . S
O173 Zn172 2.032 . S
O173 C177 1.278 . S
C174 O175 1.203 . S
C174 O181 1.267 . S
O175 C174 1.203 . S
O176 C169 1.185 . S
O176 Zn172 2.086 . S
C177 O173 1.278 . S
C177 O178 1.211 . S
O178 C177 1.211 . S
C179 O171 1.284 . S
C179 O180 1.273 . S
O180 C179 1.273 . S
O181 Zn172 1.977 . S
O181 C174 1.267 . S
C182 O183 1.160 . S
C182 O189 1.185 . S
O183 C182 1.160 . S
O184 Zn185 1.899 . S
O184 C192 1.284 . S
Zn185 O184 1.899 . S
Zn185 O186 2.032 . S
Zn185 O189 2.086 . S
Zn185 O194 1.977 . S
O186 Zn185 2.032 . S
O186 C190 1.278 . S
C187 O188 1.203 . S
C187 O194 1.267 . S
O188 C187 1.203 . S
O189 C182 1.185 . S
O189 Zn185 2.086 . S
C190 O186 1.278 . S
C190 O191 1.211 . S
O191 C190 1.211 . S
C192 O184 1.284 . S
C192 O193 1.273 . S
O193 C192 1.273 . S
O194 Zn185 1.977 . S
O194 C187 1.267 . S
C195 O196 1.160 . S
C195 O202 1.185 . S
O196 C195 1.160 . S
O197 Zn198 1.899 . S
O197 C205 1.284 . S
Zn198 O197 1.899 . S
Zn198 O199 2.032 . S
Zn198 O202 2.086 . S
Zn198 O207 1.977 . S
O199 Zn198 2.032 . S
O199 C203 1.278 . S
C200 O201 1.203 . S
C200 O207 1.267 . S
O201 C200 1.203 . S
O202 C195 1.185 . S
O202 Zn198 2.086 . S
C203 O199 1.278 . S
C203 O204 1.211 . S
O204 C203 1.211 . S
C205 O197 1.284 . S
C205 O206 1.273 . S
O206 C205 1.273 . S
O207 Zn198 1.977 . S
O207 C200 1.267 . S
C208 O209 1.160 . S
C208 O215 1.185 . S
O209 C208 1.160 . S
O210 Zn211 1.899 . S
O210 C218 1.284 . S
Zn211 O210 1.899 . S
Zn211 O212 2.032 . S
Zn211 O215 2.086 . S
Zn211 O220 1.977 . S
O212 Zn211 2.032 . S
O212 C216 1.278 . S
C213 O214 1.203 . S
C213 O220 1.267 . S
O214 C213 1.203 . S
O215 C208 1.185 . S
O215 Zn211 2.086 . S
C216 O212 1.278 . S
C216 O217 1.211 . S
O217 C216 1.211 . S
C218 O210 1.284 . S
C218 O219 1.273 . S
O219 C218 1.273 . S
O220 Zn211 1.977 . S
O220 C213 1.267 . S
C221 O222 1.160 . S
C221 O228 1.185 . S
O222 C221 1.160 . S
O223 Zn224 1.899 . S
O223 C231 1.284 . S
Zn224 O223 1.899 . S
Zn224 O225 2.032 . S
Zn224 O228 2.086 . S
Zn224 O233 1.977 . S
O225 Zn224 2.032 . S
O225 C229 1.278 . S
C226 O227 1.203 . S
C226 O233 1.267 . S
O227 C226 1.203 . S
O228 C221 1.185 . S
O228 Zn224 2.086 . S
C229 O225 1.278 . S
C229 O230 1.211 . S
O230 C229 1.211 . S
C231 O223 1.284 . S
C231 O232 1.273 . S
O232 C231 1.273 . S
O233 Zn224 1.977 . S
O233 C226 1.267 . S
C234 O235 1.160 . S
C234 O241 1.185 . S
O235 C234 1.160 . S
O236 Zn237 1.899 . S
O236 C244 1.284 . S
Zn237 O236 1.899 . S
Zn237 O238 2.032 . S
Zn237 O241 2.086 . S
Zn237 O246 1.977 . S
O238 Zn237 2.032 . S
O238 C242 1.278 . S
C239 O240 1.203 . S
C239 O246 1.267 . S
O240 C239 1.203 . S
O241 C234 1.185 . S
O241 Zn237 2.086 . S
C242 O238 1.278 . S
C242 O243 1.211 . S
O243 C242 1.211 . S
C244 O236 1.284 . S
C244 O245 1.273 . S
O245 C244 1.273 . S
O246 Zn237 1.977 . S
O246 C239 1.267 . S
C247 O248 1.160 . S
C247 O254 1.185 . S
O248 C247 1.160 . S
O249 Zn250 1.899 . S
O249 C257 1.284 . S
Zn250 O249 1.899 . S
Zn250 O251 2.032 . S
Zn250 O254 2.086 . S
Zn250 O259 1.977 . S
O251 Zn250 2.032 . S
O251 C255 1.278 . S
C252 O253 1.203 . S
C252 O259 1.267 . S
O253 C252 1.203 . S
O254 C247 1.185 . S
O254 Zn250 2.086 . S
C255 O251 1.278 . S
C255 O256 1.211 . S
O256 C255 1.211 . S
C257 O249 1.284 . S
C257 O258 1.273 . S
O258 C257 1.273 . S
O259 Zn250 1.977 . S
O259 C252 1.267 . S
C260 O261 1.160 . S
C260 O267 1.185 . S
O261 C260 1.160 . S
O262 Zn263 1.899 . S
O262 C270 1.284 . S
Zn263 O262 1.899 . S
Zn263 O264 2.032 . S
Zn263 O267 2.086 . S
Zn263 O272 1.977 . S
O264 Zn263 2.032 . S
O264 C268 1.278 . S
C265 O266 1.203 . S
C265 O272 1.267 . S
O266 C265 1.203 . S
O267 C260 1.185 . S
O267 Zn263 2.086 . S
C268 O264 1.278 . S
C268 O269 1.211 . S
O269 C268 1.211 . S
C270 O262 1.284 . S
C270 O271 1.273 . S
O271 C270 1.273 . S
O272 Zn263 1.977 . S
O272 C265 1.267 . S
C273 O274 1.160 . S
C273 O280 1.185 . S
O274 C273 1.160 . S
O275 Zn276 1.899 . S
O275 C283 1.284 . S
Zn276 O275 1.899 . S
Zn276 O277 2.032 . S
Zn276 O280 2.086 . S
Zn276 O285 1.977 . S
O277 Zn276 2.032 . S
O277 C281 1.278 . S
C278 O279 1.203 . S
C278 O285 1.267 . S
O279 C278 1.203 . S
O280 C273 1.185 . S
O280 Zn276 2.086 . S
C281 O277 1.278 . S
C281 O282 1.211 . S
O282 C281 1.211 . S
C283 O275 1.284 . S
C283 O284 1.273 . S
O284 C283 1.273 . S
O285 Zn276 1.977 . S
O285 C278 1.267 . S
C286 O287 1.160 . S
C286 O293 1.185 . S
O287 C286 1.160 . S
O288 Zn289 1.899 . S
O288 C296 1.284 . S
Zn289 O288 1.899 . S
Zn289 O290 2.032 . S
Zn289 O293 2.086 . S
Zn289 O298 1.977 . S
O290 Zn289 2.032 . S
O290 C294 1.278 . S
C291 O292 1.203 . S
C291 O298 1.267 . S
O292 C291 1.203 . S
O293 C286 1.185 . S
O293 Zn289 2.086 . S
C294 O290 1.278 . S
C294 O295 1.211 . S
O295 C294 1.211 . S
C296 O288 1.284 . S
C296 O297 1.273 . S
O297 C296 1.273 . S
O298 Zn289 1.977 . S
O298 C291 1.267 . S
C299 O300 1.160 . S
C299 O306 1.185 . S
O300 C299 1.160 . S
O301 Zn302 1.899 . S
O301 C309 1.284 . S
Zn302 O301 1.899 . S
Zn302 O303 2.032 . S
Zn302 O306 2.086 . S
Zn302 O311 1.977 . S
O303 Zn302 2.032 . S
O303 C307 1.278 . S
C304 O305 1.203 . S
C304 O311 1.267 . S
O305 C304 1.203 . S
O306 C299 1.185 . S
O306 Zn302 2.086 . S
C307 O303 1.278 . S
C307 O308 1.211 . S
O308 C307 1.211 . S
C309 O301 1.284 . S
C309 O310 1.273 . S
O310 C309 1.273 . S
O311 Zn302 1.977 . S
O311 C304 1.267 . S
C312 O313 1.160 . S
C312 O319 1.185 . S
O313 C312 1.160 . S
O314 Zn315 1.899 . S
O314 C322 1.284 . S
Zn315 O314 1.899 . S
Zn315 O316 2.032 . S
Zn315 O319 2.086 . S
Zn315 O324 1.977 . S
O316 Zn315 2.032 . S
O316 C320 1.278 . S
C317 O318 1.203 . S
C317 O324 1.267 . S
O318 C317 1.203 . S
O319 C312 1.185 . S
O319 Zn315 2.086 . S
C320 O316 1.278 . S
C320 O321 1.211 . S
O321 C320 1.211 . S
C322 O314 1.284 . S
C322 O323 1.273 . S
O323 C322 1.273 . S
O324 Zn315 1.977 . S
O324 C317 1.267 . S
C325 O326 1.160 . S
C325 O332 1.185 . S
O326 C325 1.160 . S
O327 Zn328 1.899 . S
O327 C335 1.284 . S
Zn328 O327 1.899 . S
Zn328 O329 2.032 . S
Zn328 O332 2.086 . S
Zn328 O337 1.977 . S
O329 Zn328 2.032 . S
O329 C333 1.278 . S
C330 O331 1.203 . S
C330 O337 1.267 . S
O331 C330 1.203 . S
O332 C325 1.185 . S
O332 Zn328 2.086 . S
C333 O329 1.278 . S
C333 O334 1.211 . S
O334 C333 1.211 . S
C335 O327 1.284 . S
C335 O336 1.273 . S
O336 C335 1.273 . S
O337 Zn328 1.977 . S
O337 C330 1.267 . S
C338 O339 1.160 . S
C338 O345 1.185 . S
O339 C338 1.160 . S
O340 Zn341 1.899 . S
O340 C348 1.284 . S
Zn341 O340 1.899 . S
Zn341 O342 2.032 . S
Zn341 O345 2.086 . S
Zn341 O350 1.977 . S
O342 Zn341 2.032 . S
O342 C346 1.278 . S
C343 O344 1.203 . S
C343 O350 1.267 . S
O344 C343 1.203 . S
O345 C338 1.185 . S
O345 Zn341 2.086 . S
C346 O342 1.278 . S
C346 O347 1.211 . S
O347 C346 1.211 . S
C348 O340 1.284 . S
C348 O349 1.273 . S
O349 C348 1.273 . S
O350 Zn341 1.977 . S
O350 C343 1.267 . S
C351 O352 1.160 . S
C351 O358 1.185 . S
O352 C351 1.160 . S
O353 Zn354 1.899 . S
O353 C361 1.284 . S
Zn354 O353 1.899 . S
Zn354 O355 2.032 . S
Zn354 O358 2.086 . S
Zn354 O363 1.977 . S
O355 Zn354 2.032 . S
O355 C359 1.278 . S
C356 O357 1.203 . S
C356 O363 1.267 . S
O357 C356 1.203 . S
O358 C351 1.185 . S
O358 Zn354 2.086 . S
C359 O355 1.278 . S
C359 O360 1.211 . S
O360 C359 1.211 . S
C361 O353 1.284 . S
C361 O362 1.273 . S
O362 C361 1.273 . S
O363 Zn354 1.977 . S
O363 C356 1.267 . S
C364 O365 1.160 . S
C364 O371 1.185 . S
O365 C364 1.160 . S
O366 Zn367 1.899 . S
O366 C374 1.284 . S
Zn367 O366 1.899 . S
Zn367 O368 2.032 . S
Zn367 O371 2.086 . S
Zn367 O376 1.977 . S
O368 Zn367 2.032 . S
O368 C372 1.278 . S
C369 O370 1.203 . S
C369 O376 1.267 . S
O370 C369 1.203 . S
O371 C364 1.185 . S
O371 Zn367 2.086 . S
C372 O368 1.278 . S
C372 O373 1.211 . S
O373 C372 1.211 . S
C374 O366 1.284 . S
C374 O375 1.273 . S
O375 C374 1.273 . S
O376 Zn367 1.977 . S
O376 C369 1.267 . S
C377 O378 1.160 . S
C377 O384 1.185 . S
O378 C377 1.160 . S
O379 Zn380 1.899 . S
O379 C387 1.284 . S
Zn380 O379 1.899 . S
Zn380 O381 2.032 . S
Zn380 O384 2.086 . S
Zn380 O389 1.977 . S
O381 Zn380 2.032 . S
O381 C385 1.278 . S
C382 O383 1.203 . S
C382 O389 1.267 . S
O383 C382 1.203 . S
O384 C377 1.185 . S
O384 Zn380 2.086 . S
C385 O381 1.278 . S
C385 O386 1.211 . S
O386 C385 1.211 . S
C387 O379 1.284 . S
C387 O388 1.273 . S
O388 C387 1.273 . S
O389 Zn380 1.977 . S
O389 C382 1.267 . S
C390 O391 1.160 . S
C390 O397 1.185 . S
O391 C390 1.160 . S
O392 Zn393 1.899 . S
O392 C400 1.284 . S
Zn393 O392 1.899 . S
Zn393 O394 2.032 . S
Zn393 O397 2.086 . S
Zn393 O402 1.977 . S
O394 Zn393 2.032 . S
O394 C398 1.278 . S
C395 O396 1.203 . S
C395 O402 1.267 . S
O396 C395 1.203 . S
O397 C390 1.185 . S
O397 Zn393 2.086 . S
C398 O394 1.278 . S
C398 O399 1.211 . S
O399 C398 1.211 . S
C400 O392 1.284 . S
C400 O401 1.273 . S
O401 C400 1.273 . S
O402 Zn393 1.977 . S
O402 C395 1.267 . S
C403 O404 1.160 . S
C403 O410 1.185 . S
O404 C403 1.160 . S
O405 Zn406 1.899 . S
O405 C413 1.284 . S
Zn406 O405 1.899 . S
Zn406 O407 2.032 . S
Zn406 O410 2.086 . S
Zn406 O415 1.977 . S
O407 Zn406 2.032 . S
O407 C411 1.278 . S
C408 O409 1.203 . S
C408 O415 1.267 . S
O409 C408 1.203 . S
O410 C403 1.185 . S
O410 Zn406 2.086 . S
C411 O407 1.278 . S
C411 O412 1.211 . S
O412 C411 1.211 . S
C413 O405 1.284 . S
C413 O414 1.273 . S
O414 C413 1.273 . S
O415 Zn406 1.977 . S
O415 C408 1.267 . S
C416 C417 1.387 1_554 S
C416 H420 0.950 . S
C416 C425 1.390 1_655 S
C417 C416 1.387 1_556 S
C417 C419 1.387 . S
H418 C425 0.950 . S
C419 C417 1.387 . S
C419 C421 1.390 1_655 S
C419 H423 0.950 . S
H420 C416 0.950 . S
C421 C419 1.390 1_455 S
C421 C422 1.387 1_556 S
C421 H424 0.950 . S
C422 C421 1.387 1_554 S
C422 C425 1.387 . S
H423 C419 0.950 . S
H424 C421 0.950 . S
C425 C416 1.390 1_455 S
C425 H418 0.950 . S
C425 C422 1.387 . S
C426 C427 1.387 . S
C426 H430 0.950 . S
C426 C435 1.390 . S
C427 C426 1.387 . S
C427 C429 1.387 . S
H428 C435 0.950 . S
C429 C427 1.387 . S
C429 C431 1.390 . S
C429 H433 0.950 . S
H430 C426 0.950 . S
C431 C429 1.390 . S
C431 C432 1.387 . S
C431 H434 0.950 . S
C432 C431 1.387 . S
C432 C435 1.387 . S
H433 C429 0.950 . S
H434 C431 0.950 . S
C435 C426 1.390 . S
C435 H428 0.950 . S
C435 C432 1.387 . S
C436 C437 1.387 . S
C436 H440 0.950 . S
C436 C445 1.390 . S
C437 C436 1.387 . S
C437 C439 1.387 . S
H438 C445 0.950 . S
C439 C437 1.387 . S
C439 C441 1.390 . S
C439 H443 0.950 . S
H440 C436 0.950 . S
C441 C439 1.390 . S
C441 C442 1.387 . S
C441 H444 0.950 . S
C442 C441 1.387 . S
C442 C445 1.387 . S
H443 C439 0.950 . S
H444 C441 0.950 . S
C445 C436 1.390 . S
C445 H438 0.950 . S
C445 C442 1.387 . S
C446 C447 1.387 . S
C446 H450 0.950 . S
C446 C455 1.390 . S
C447 C446 1.387 . S
C447 C449 1.387 . S
H448 C455 0.950 . S
C449 C447 1.387 . S
C449 C451 1.390 . S
C449 H453 0.950 . S
H450 C446 0.950 . S
C451 C449 1.390 . S
C451 C452 1.387 . S
C451 H454 0.950 . S
C452 C451 1.387 . S
C452 C455 1.387 . S
H453 C449 0.950 . S
H454 C451 0.950 . S
C455 C446 1.390 . S
C455 H448 0.950 . S
C455 C452 1.387 . S
C456 C457 1.387 . S
C456 H460 0.950 . S
C456 C465 1.390 1_655 S
C457 C456 1.387 . S
C457 C459 1.387 . S
H458 C465 0.950 . S
C459 C457 1.387 . S
C459 C461 1.390 1_655 S
C459 H463 0.950 . S
H460 C456 0.950 . S
C461 C459 1.390 1_455 S
C461 C462 1.387 . S
C461 H464 0.950 . S
C462 C461 1.387 . S
C462 C465 1.387 . S
H463 C459 0.950 . S
H464 C461 0.950 . S
C465 C456 1.390 1_455 S
C465 H458 0.950 . S
C465 C462 1.387 . S
C466 C467 1.387 . S
C466 H470 0.950 . S
C466 C475 1.390 . S
C467 C466 1.387 . S
C467 C469 1.387 . S
H468 C475 0.950 . S
C469 C467 1.387 . S
C469 C471 1.390 . S
C469 H473 0.950 . S
H470 C466 0.950 . S
C471 C469 1.390 . S
C471 C472 1.387 . S
C471 H474 0.950 . S
C472 C471 1.387 . S
C472 C475 1.387 . S
H473 C469 0.950 . S
H474 C471 0.950 . S
C475 C466 1.390 . S
C475 H468 0.950 . S
C475 C472 1.387 . S
C476 C477 1.387 1_554 S
C476 H480 0.950 . S
C476 C485 1.390 . S
C477 C476 1.387 1_556 S
C477 C479 1.387 . S
H478 C485 0.950 . S
C479 C477 1.387 . S
C479 C481 1.390 . S
C479 H483 0.950 . S
H480 C476 0.950 . S
C481 C479 1.390 . S
C481 C482 1.387 1_556 S
C481 H484 0.950 . S
C482 C481 1.387 1_554 S
C482 C485 1.387 . S
H483 C479 0.950 . S
H484 C481 0.950 . S
C485 C476 1.390 . S
C485 H478 0.950 . S
C485 C482 1.387 . S
C486 C487 1.387 . S
C486 H490 0.950 . S
C486 C495 1.390 . S
C487 C486 1.387 . S
C487 C489 1.387 . S
H488 C495 0.950 . S
C489 C487 1.387 . S
C489 C491 1.390 . S
C489 H493 0.950 . S
H490 C486 0.950 . S
C491 C489 1.390 . S
C491 C492 1.387 . S
C491 H494 0.950 . S
C492 C491 1.387 . S
C492 C495 1.387 . S
H493 C489 0.950 . S
H494 C491 0.950 . S
C495 C486 1.390 . S
C495 H488 0.950 . S
C495 C492 1.387 . S
C496 C497 1.387 . S
C496 H500 0.950 . S
C496 C505 1.390 . S
C497 C496 1.387 . S
C497 C499 1.387 . S
H498 C505 0.950 . S
C499 C497 1.387 . S
C499 C501 1.390 . S
C499 H503 0.950 . S
H500 C496 0.950 . S
C501 C499 1.390 . S
C501 C502 1.387 . S
C501 H504 0.950 . S
C502 C501 1.387 . S
C502 C505 1.387 . S
H503 C499 0.950 . S
H504 C501 0.950 . S
C505 C496 1.390 . S
C505 H498 0.950 . S
C505 C502 1.387 . S
C506 C507 1.387 . S
C506 H510 0.950 . S
C506 C515 1.390 . S
C507 C506 1.387 . S
C507 C509 1.387 . S
H508 C515 0.950 . S
C509 C507 1.387 . S
C509 C511 1.390 . S
C509 H513 0.950 . S
H510 C506 0.950 . S
C511 C509 1.390 . S
C511 C512 1.387 . S
C511 H514 0.950 . S
C512 C511 1.387 . S
C512 C515 1.387 . S
H513 C509 0.950 . S
H514 C511 0.950 . S
C515 C506 1.390 . S
C515 H508 0.950 . S
C515 C512 1.387 . S
C516 C517 1.387 . S
C516 H520 0.950 . S
C516 C525 1.390 . S
C517 C516 1.387 . S
C517 C519 1.387 . S
H518 C525 0.950 . S
C519 C517 1.387 . S
C519 C521 1.390 . S
C519 H523 0.950 . S
H520 C516 0.950 . S
C521 C519 1.390 . S
C521 C522 1.387 . S
C521 H524 0.950 . S
C522 C521 1.387 . S
C522 C525 1.387 . S
H523 C519 0.950 . S
H524 C521 0.950 . S
C525 C516 1.390 . S
C525 H518 0.950 . S
C525 C522 1.387 . S
C526 C527 1.387 . S
C526 H530 0.950 . S
C526 C535 1.390 . S
C527 C526 1.387 . S
C527 C529 1.387 . S
H528 C535 0.950 . S
C529 C527 1.387 . S
C529 C531 1.390 . S
C529 H533 0.950 . S
H530 C526 0.950 . S
C531 C529 1.390 . S
C531 C532 1.387 . S
C531 H534 0.950 . S
C532 C531 1.387 . S
C532 C535 1.387 . S
H533 C529 0.950 . S
H534 C531 0.950 . S
C535 C526 1.390 . S
C535 H528 0.950 . S
C535 C532 1.387 . S
C536 C537 1.387 . S
C536 H540 0.950 . S
C536 C545 1.390 . S
C537 C536 1.387 . S
C537 C539 1.387 1_565 S
H538 C545 0.950 . S
C539 C537 1.387 1_545 S
C539 C541 1.390 . S
C539 H543 0.950 . S
H540 C536 0.950 . S
C541 C539 1.390 . S
C541 C542 1.387 . S
C541 H544 0.950 . S
C542 C541 1.387 . S
C542 C545 1.387 1_545 S
H543 C539 0.950 . S
H544 C541 0.950 . S
C545 C536 1.390 . S
C545 H538 0.950 . S
C545 C542 1.387 1_565 S
C546 C547 1.387 1_545 S
C546 H550 0.950 . S
C546 C555 1.390 1_556 S
C547 C546 1.387 1_565 S
C547 C549 1.387 1_455 S
H548 C555 0.950 . S
C549 C547 1.387 1_655 S
C549 C551 1.390 1_556 S
C549 H553 0.950 . S
H550 C546 0.950 . S
C551 C549 1.390 1_554 S
C551 C552 1.387 1_565 S
C551 H554 0.950 . S
C552 C551 1.387 1_545 S
C552 C555 1.387 1_655 S
H553 C549 0.950 . S
H554 C551 0.950 . S
C555 C546 1.390 1_554 S
C555 H548 0.950 . S
C555 C552 1.387 1_455 S
C556 C557 1.387 1_565 S
C556 H560 0.950 . S
C556 C565 1.390 . S
C557 C556 1.387 1_545 S
C557 C559 1.387 1_556 S
H558 C565 0.950 . S
C559 C557 1.387 1_554 S
C559 C561 1.390 . S
C559 H563 0.950 . S
H560 C556 0.950 . S
C561 C559 1.390 . S
C561 C562 1.387 1_545 S
C561 H564 0.950 . S
C562 C561 1.387 1_565 S
C562 C565 1.387 1_554 S
H563 C559 0.950 . S
H564 C561 0.950 . S
C565 C556 1.390 . S
C565 H558 0.950 . S
C565 C562 1.387 1_556 S
C566 C567 1.387 1_565 S
C566 H570 0.950 . S
C566 C575 1.390 1_455 S
C567 C566 1.387 1_545 S
C567 C569 1.387 . S
H568 C575 0.950 . S
C569 C567 1.387 . S
C569 C571 1.390 1_455 S
C569 H573 0.950 . S
H570 C566 0.950 . S
C571 C569 1.390 1_655 S
C571 C572 1.387 1_545 S
C571 H574 0.950 . S
C572 C571 1.387 1_565 S
C572 C575 1.387 . S
H573 C569 0.950 . S
H574 C571 0.950 . S
C575 C566 1.390 1_655 S
C575 H568 0.950 . S
C575 C572 1.387 . S
C576 C577 1.387 . S
C576 H580 0.950 1_554 S
C576 C585 1.390 1_655 S
C577 C576 1.387 . S
C577 C579 1.387 . S
H578 C585 0.950 1_556 S
C579 C577 1.387 . S
C579 C581 1.390 1_655 S
C579 H583 0.950 . S
H580 C576 0.950 1_556 S
C581 C579 1.390 1_455 S
C581 C582 1.387 . S
C581 H584 0.950 . S
C582 C581 1.387 . S
C582 C585 1.387 . S
H583 C579 0.950 . S
H584 C581 0.950 . S
C585 C576 1.390 1_455 S
C585 H578 0.950 1_554 S
C585 C582 1.387 . S
C586 C587 1.387 . S
C586 H590 0.950 . S
C586 C595 1.390 1_455 S
C587 C586 1.387 . S
C587 C589 1.387 . S
H588 C595 0.950 . S
C589 C587 1.387 . S
C589 C591 1.390 1_455 S
C589 H593 0.950 . S
H590 C586 0.950 . S
C591 C589 1.390 1_655 S
C591 C592 1.387 . S
C591 H594 0.950 . S
C592 C591 1.387 . S
C592 C595 1.387 . S
H593 C589 0.950 . S
H594 C591 0.950 . S
C595 C586 1.390 1_655 S
C595 H588 0.950 . S
C595 C592 1.387 . S
C596 C597 1.387 . S
C596 H600 0.950 . S
C596 C605 1.390 . S
C597 C596 1.387 . S
C597 C599 1.387 . S
H598 C605 0.950 . S
C599 C597 1.387 . S
C599 C601 1.390 . S
C599 H603 0.950 . S
H600 C596 0.950 . S
C601 C599 1.390 . S
C601 C602 1.387 . S
C601 H604 0.950 . S
C602 C601 1.387 . S
C602 C605 1.387 . S
H603 C599 0.950 . S
H604 C601 0.950 . S
C605 C596 1.390 . S
C605 H598 0.950 . S
C605 C602 1.387 . S
C606 C607 1.387 . S
C606 H610 0.950 . S
C606 C615 1.390 . S
C607 C606 1.387 . S
C607 C609 1.387 . S
H608 C615 0.950 . S
C609 C607 1.387 . S
C609 C611 1.390 . S
C609 H613 0.950 . S
H610 C606 0.950 . S
C611 C609 1.390 . S
C611 C612 1.387 . S
C611 H614 0.950 . S
C612 C611 1.387 . S
C612 C615 1.387 . S
H613 C609 0.950 . S
H614 C611 0.950 . S
C615 C606 1.390 . S
C615 H608 0.950 . S
C615 C612 1.387 . S
C616 C617 1.387 . S
C616 H620 0.950 . S
C616 C625 1.390 1_655 S
C617 C616 1.387 . S
C617 C619 1.387 . S
H618 C625 0.950 . S
C619 C617 1.387 . S
C619 C621 1.390 1_655 S
C619 H623 0.950 . S
H620 C616 0.950 . S
C621 C619 1.390 1_455 S
C621 C622 1.387 . S
C621 H624 0.950 . S
C622 C621 1.387 . S
C622 C625 1.387 . S
H623 C619 0.950 . S
H624 C621 0.950 . S
C625 C616 1.390 1_455 S
C625 H618 0.950 . S
C625 C622 1.387 . S
C626 C627 1.387 . S
C626 H630 0.950 . S
C626 C635 1.390 . S
C627 C626 1.387 . S
C627 C629 1.387 . S
H628 C635 0.950 . S
C629 C627 1.387 . S
C629 C631 1.390 . S
C629 H633 0.950 . S
H630 C626 0.950 . S
C631 C629 1.390 . S
C631 C632 1.387 . S
C631 H634 0.950 . S
C632 C631 1.387 . S
C632 C635 1.387 . S
H633 C629 0.950 . S
H634 C631 0.950 . S
C635 C626 1.390 . S
C635 H628 0.950 . S
C635 C632 1.387 . S
C636 C637 1.387 . S
C636 H640 0.950 . S
C636 C645 1.390 . S
C637 C636 1.387 . S
C637 C639 1.387 . S
H638 C645 0.950 . S
C639 C637 1.387 . S
C639 C641 1.390 . S
C639 H643 0.950 1_556 S
H640 C636 0.950 . S
C641 C639 1.390 . S
C641 C642 1.387 . S
C641 H644 0.950 1_556 S
C642 C641 1.387 . S
C642 C645 1.387 . S
H643 C639 0.950 1_554 S
H644 C641 0.950 1_554 S
C645 C636 1.390 . S
C645 H638 0.950 . S
C645 C642 1.387 . S
C646 C647 1.387 . S
C646 H650 0.950 . S
C646 C655 1.390 1_455 S
C647 C646 1.387 . S
C647 C649 1.387 . S
H648 C655 0.950 . S
C649 C647 1.387 . S
C649 C651 1.390 1_455 S
C649 H653 0.950 . S
H650 C646 0.950 . S
C651 C649 1.390 1_655 S
C651 C652 1.387 . S
C651 H654 0.950 . S
C652 C651 1.387 . S
C652 C655 1.387 . S
H653 C649 0.950 . S
H654 C651 0.950 . S
C655 C646 1.390 1_655 S
C655 H648 0.950 . S
C655 C652 1.387 . S
C656 C657 1.387 . S
C656 H660 0.950 . S
C656 C665 1.390 1_655 S
C657 C656 1.387 . S
C657 C659 1.387 . S
H658 C665 0.950 . S
C659 C657 1.387 . S
C659 C661 1.390 1_655 S
C659 H663 0.950 1_556 S
H660 C656 0.950 . S
C661 C659 1.390 1_455 S
C661 C662 1.387 . S
C661 H664 0.950 1_556 S
C662 C661 1.387 . S
C662 C665 1.387 . S
H663 C659 0.950 1_554 S
H664 C661 0.950 1_554 S
C665 C656 1.390 1_455 S
C665 H658 0.950 . S
C665 C662 1.387 . S
C666 C667 1.387 . S
C666 H670 0.950 . S
C666 C675 1.390 1_655 S
C667 C666 1.387 . S
C667 C669 1.387 . S
H668 C675 0.950 . S
C669 C667 1.387 . S
C669 C671 1.390 1_655 S
C669 H673 0.950 . S
H670 C666 0.950 . S
C671 C669 1.390 1_455 S
C671 C672 1.387 . S
C671 H674 0.950 . S
C672 C671 1.387 . S
C672 C675 1.387 . S
H673 C669 0.950 . S
H674 C671 0.950 . S
C675 C666 1.390 1_455 S
C675 H668 0.950 . S
C675 C672 1.387 . S
C676 C677 1.387 . S
C676 H680 0.950 . S
C676 C685 1.390 . S
C677 C676 1.387 . S
C677 C679 1.387 . S
H678 C685 0.950 . S
C679 C677 1.387 . S
C679 C681 1.390 . S
C679 H683 0.950 . S
H680 C676 0.950 . S
C681 C679 1.390 . S
C681 C682 1.387 . S
C681 H684 0.950 . S
C682 C681 1.387 . S
C682 C685 1.387 . S
H683 C679 0.950 . S
H684 C681 0.950 . S
C685 C676 1.390 . S
C685 H678 0.950 . S
C685 C682 1.387 . S
C686 C687 1.387 . S
C686 H690 0.950 . S
C686 C695 1.390 . S
C687 C686 1.387 . S
C687 C689 1.387 . S
H688 C695 0.950 . S
C689 C687 1.387 . S
C689 C691 1.390 . S
C689 H693 0.950 . S
H690 C686 0.950 . S
C691 C689 1.390 . S
C691 C692 1.387 . S
C691 H694 0.950 . S
C692 C691 1.387 . S
C692 C695 1.387 . S
H693 C689 0.950 . S
H694 C691 0.950 . S
C695 C686 1.390 . S
C695 H688 0.950 . S
C695 C692 1.387 . S
C696 C697 1.387 . S
C696 H700 0.950 . S
C696 C705 1.390 1_655 S
C697 C696 1.387 . S
C697 C699 1.387 . S
H698 C705 0.950 . S
C699 C697 1.387 . S
C699 C701 1.390 1_655 S
C699 H703 0.950 . S
H700 C696 0.950 . S
C701 C699 1.390 1_455 S
C701 C702 1.387 . S
C701 H704 0.950 . S
C702 C701 1.387 . S
C702 C705 1.387 . S
H703 C699 0.950 . S
H704 C701 0.950 . S
C705 C696 1.390 1_455 S
C705 H698 0.950 . S
C705 C702 1.387 . S
C706 C707 1.387 . S
C706 H710 0.950 . S
C706 C715 1.390 . S
C707 C706 1.387 . S
C707 C709 1.387 . S
H708 C715 0.950 . S
C709 C707 1.387 . S
C709 C711 1.390 . S
C709 H713 0.950 . S
H710 C706 0.950 . S
C711 C709 1.390 . S
C711 C712 1.387 . S
C711 H714 0.950 . S
C712 C711 1.387 . S
C712 C715 1.387 . S
H713 C709 0.950 . S
H714 C711 0.950 . S
C715 C706 1.390 . S
C715 H708 0.950 . S
C715 C712 1.387 . S
C716 C717 1.387 . S
C716 H720 0.950 1_554 S
C716 C725 1.390 . S
C717 C716 1.387 . S
C717 C719 1.387 . S
H718 C725 0.950 1_556 S
C719 C717 1.387 . S
C719 C721 1.390 . S
C719 H723 0.950 . S
H720 C716 0.950 1_556 S
C721 C719 1.390 . S
C721 C722 1.387 . S
C721 H724 0.950 . S
C722 C721 1.387 . S
C722 C725 1.387 . S
H723 C719 0.950 . S
H724 C721 0.950 . S
C725 C716 1.390 . S
C725 H718 0.950 1_554 S
C725 C722 1.387 . S
C726 C727 1.387 . S
C726 H730 0.950 . S
C726 C735 1.390 1_655 S
C727 C726 1.387 . S
C727 C729 1.387 . S
H728 C735 0.950 . S
C729 C727 1.387 . S
C729 C731 1.390 1_655 S
C729 H733 0.950 . S
H730 C726 0.950 . S
C731 C729 1.390 1_455 S
C731 C732 1.387 . S
C731 H734 0.950 . S
C732 C731 1.387 . S
C732 C735 1.387 . S
H733 C729 0.950 . S
H734 C731 0.950 . S
C735 C726 1.390 1_455 S
C735 H728 0.950 . S
C735 C732 1.387 . S
C736 C737 1.387 . S
C736 H740 0.950 . S
C736 C745 1.390 1_556 S
C737 C736 1.387 . S
C737 C739 1.387 . S
H738 C745 0.950 . S
C739 C737 1.387 . S
C739 C741 1.390 1_556 S
C739 H743 0.950 . S
H740 C736 0.950 . S
C741 C739 1.390 1_554 S
C741 C742 1.387 . S
C741 H744 0.950 . S
C742 C741 1.387 . S
C742 C745 1.387 . S
H743 C739 0.950 . S
H744 C741 0.950 . S
C745 C736 1.390 1_554 S
C745 H738 0.950 . S
C745 C742 1.387 . S
C746 C747 1.387 . S
C746 H750 0.950 . S
C746 C755 1.390 1_545 S
C747 C746 1.387 . S
C747 C749 1.387 . S
H748 C755 0.950 . S
C749 C747 1.387 . S
C749 C751 1.390 1_545 S
C749 H753 0.950 . S
H750 C746 0.950 . S
C751 C749 1.390 1_565 S
C751 C752 1.387 . S
C751 H754 0.950 . S
C752 C751 1.387 . S
C752 C755 1.387 . S
H753 C749 0.950 . S
H754 C751 0.950 . S
C755 C746 1.390 1_565 S
C755 H748 0.950 . S
C755 C752 1.387 . S
C756 C757 1.387 . S
C756 H760 0.950 . S
C756 C765 1.390 . S
C757 C756 1.387 . S
C757 C759 1.387 . S
H758 C765 0.950 . S
C759 C757 1.387 . S
C759 C761 1.390 . S
C759 H763 0.950 . S
H760 C756 0.950 . S
C761 C759 1.390 . S
C761 C762 1.387 . S
C761 H764 0.950 . S
C762 C761 1.387 . S
C762 C765 1.387 . S
H763 C759 0.950 . S
H764 C761 0.950 . S
C765 C756 1.390 . S
C765 H758 0.950 . S
C765 C762 1.387 . S
C766 C767 1.387 . S
C766 H770 0.950 . S
C766 C775 1.390 1_545 S
C767 C766 1.387 . S
C767 C769 1.387 . S
H768 C775 0.950 . S
C769 C767 1.387 . S
C769 C771 1.390 1_545 S
C769 H773 0.950 . S
H770 C766 0.950 . S
C771 C769 1.390 1_565 S
C771 C772 1.387 . S
C771 H774 0.950 . S
C772 C771 1.387 . S
C772 C775 1.387 . S
H773 C769 0.950 . S
H774 C771 0.950 . S
C775 C766 1.390 1_565 S
C775 H768 0.950 . S
C775 C772 1.387 . S
C776 C777 1.387 . S
C776 H780 0.950 . S
C776 C785 1.390 1_554 S
C777 C776 1.387 . S
C777 C779 1.387 . S
H778 C785 0.950 . S
C779 C777 1.387 . S
C779 C781 1.390 1_554 S
C779 H783 0.950 . S
H780 C776 0.950 . S
C781 C779 1.390 1_556 S
C781 C782 1.387 . S
C781 H784 0.950 . S
C782 C781 1.387 . S
C782 C785 1.387 . S
H783 C779 0.950 . S
H784 C781 0.950 . S
C785 C776 1.390 1_556 S
C785 H778 0.950 . S
C785 C782 1.387 . S
C786 C787 1.387 . S
C786 H790 0.950 . S
C786 C795 1.390 1_565 S
C787 C786 1.387 . S
C787 C789 1.387 . S
H788 C795 0.950 . S
C789 C787 1.387 . S
C789 C791 1.390 1_565 S
C789 H793 0.950 . S
H790 C786 0.950 . S
C791 C789 1.390 1_545 S
C791 C792 1.387 . S
C791 H794 0.950 . S
C792 C791 1.387 . S
C792 C795 1.387 . S
H793 C789 0.950 . S
H794 C791 0.950 . S
C795 C786 1.390 1_545 S
C795 H788 0.950 . S
C795 C792 1.387 . S
C796 C797 1.387 . S
C796 H800 0.950 . S
C796 C805 1.390 . S
C797 C796 1.387 . S
C797 C799 1.387 . S
H798 C805 0.950 . S
C799 C797 1.387 . S
C799 C801 1.390 . S
C799 H803 0.950 . S
H800 C796 0.950 . S
C801 C799 1.390 . S
C801 C802 1.387 . S
C801 H804 0.950 . S
C802 C801 1.387 . S
C802 C805 1.387 . S
H803 C799 0.950 . S
H804 C801 0.950 . S
C805 C796 1.390 . S
C805 H798 0.950 . S
C805 C802 1.387 . S
C806 C807 1.387 . S
C806 H810 0.950 . S
C806 C815 1.390 1_545 S
C807 C806 1.387 . S
C807 C809 1.387 . S
H808 C815 0.950 . S
C809 C807 1.387 . S
C809 C811 1.390 1_545 S
C809 H813 0.950 . S
H810 C806 0.950 . S
C811 C809 1.390 1_565 S
C811 C812 1.387 . S
C811 H814 0.950 . S
C812 C811 1.387 . S
C812 C815 1.387 . S
H813 C809 0.950 . S
H814 C811 0.950 . S
C815 C806 1.390 1_565 S
C815 H808 0.950 . S
C815 C812 1.387 . S
C816 C817 1.387 . S
C816 H820 0.950 . S
C816 C825 1.390 . S
C817 C816 1.387 . S
C817 C819 1.387 . S
H818 C825 0.950 . S
C819 C817 1.387 . S
C819 C821 1.390 . S
C819 H823 0.950 . S
H820 C816 0.950 . S
C821 C819 1.390 . S
C821 C822 1.387 . S
C821 H824 0.950 . S
C822 C821 1.387 . S
C822 C825 1.387 . S
H823 C819 0.950 . S
H824 C821 0.950 . S
C825 C816 1.390 . S
C825 H818 0.950 . S
C825 C822 1.387 . S
C826 C827 1.387 . S
C826 H830 0.950 . S
C826 C835 1.390 . S
C827 C826 1.387 . S
C827 C829 1.387 . S
H828 C835 0.950 . S
C829 C827 1.387 . S
C829 C831 1.390 . S
C829 H833 0.950 . S
H830 C826 0.950 . S
C831 C829 1.390 . S
C831 C832 1.387 . S
C831 H834 0.950 . S
C832 C831 1.387 . S
C832 C835 1.387 . S
H833 C829 0.950 . S
H834 C831 0.950 . S
C835 C826 1.390 . S
C835 H828 0.950 . S
C835 C832 1.387 . S
C836 C837 1.387 . S
C836 H840 0.950 . S
C836 C845 1.390 1_554 S
C837 C836 1.387 . S
C837 C839 1.387 . S
H838 C845 0.950 . S
C839 C837 1.387 . S
C839 C841 1.390 1_554 S
C839 H843 0.950 . S
H840 C836 0.950 . S
C841 C839 1.390 1_556 S
C841 C842 1.387 . S
C841 H844 0.950 . S
C842 C841 1.387 . S
C842 C845 1.387 . S
H843 C839 0.950 . S
H844 C841 0.950 . S
C845 C836 1.390 1_556 S
C845 H838 0.950 . S
C845 C842 1.387 . S
C846 C847 1.387 . S
C846 H850 0.950 . S
C846 C855 1.390 . S
C847 C846 1.387 . S
C847 C849 1.387 . S
H848 C855 0.950 . S
C849 C847 1.387 . S
C849 C851 1.390 . S
C849 H853 0.950 . S
H850 C846 0.950 . S
C851 C849 1.390 . S
C851 C852 1.387 . S
C851 H854 0.950 . S
C852 C851 1.387 . S
C852 C855 1.387 . S
H853 C849 0.950 . S
H854 C851 0.950 . S
C855 C846 1.390 . S
C855 H848 0.950 . S
C855 C852 1.387 . S
C856 C857 1.387 . S
C856 H860 0.950 . S
C856 C865 1.390 . S
C857 C856 1.387 . S
C857 C859 1.387 . S
H858 C865 0.950 . S
C859 C857 1.387 . S
C859 C861 1.390 . S
C859 H863 0.950 . S
H860 C856 0.950 . S
C861 C859 1.390 . S
C861 C862 1.387 . S
C861 H864 0.950 . S
C862 C861 1.387 . S
C862 C865 1.387 . S
H863 C859 0.950 . S
H864 C861 0.950 . S
C865 C856 1.390 . S
C865 H858 0.950 . S
C865 C862 1.387 . S
C866 C867 1.387 . S
C866 H870 0.950 . S
C866 C875 1.390 . S
C867 C866 1.387 . S
C867 C869 1.387 . S
H868 C875 0.950 . S
C869 C867 1.387 . S
C869 C871 1.390 . S
C869 H873 0.950 . S
H870 C866 0.950 . S
C871 C869 1.390 . S
C871 C872 1.387 . S
C871 H874 0.950 . S
C872 C871 1.387 . S
C872 C875 1.387 . S
H873 C869 0.950 . S
H874 C871 0.950 . S
C875 C866 1.390 . S
C875 H868 0.950 . S
C875 C872 1.387 . S
C876 C877 1.387 . S
C876 H880 0.950 . S
C876 C885 1.390 1_556 S
C877 C876 1.387 . S
C877 C879 1.387 . S
H878 C885 0.950 . S
C879 C877 1.387 . S
C879 C881 1.390 1_556 S
C879 H883 0.950 . S
H880 C876 0.950 . S
C881 C879 1.390 1_554 S
C881 C882 1.387 . S
C881 H884 0.950 . S
C882 C881 1.387 . S
C882 C885 1.387 . S
H883 C879 0.950 . S
H884 C881 0.950 . S
C885 C876 1.390 1_554 S
C885 H878 0.950 . S
C885 C882 1.387 . S
C886 C887 1.387 . S
C886 H890 0.950 . S
C886 C895 1.390 . S
C887 C886 1.387 . S
C887 C889 1.387 . S
H888 C895 0.950 . S
C889 C887 1.387 . S
C889 C891 1.390 . S
C889 H893 0.950 . S
H890 C886 0.950 . S
C891 C889 1.390 . S
C891 C892 1.387 . S
C891 H894 0.950 . S
C892 C891 1.387 . S
C892 C895 1.387 . S
H893 C889 0.950 . S
H894 C891 0.950 . S
C895 C886 1.390 . S
C895 H888 0.950 . S
C895 C892 1.387 . S
C896 C897 1.387 . S
C896 H900 0.950 . S
C896 C905 1.390 . S
C897 C896 1.387 . S
C897 C899 1.387 . S
H898 C905 0.950 . S
C899 C897 1.387 . S
C899 C901 1.390 . S
C899 H903 0.950 . S
H900 C896 0.950 . S
C901 C899 1.390 . S
C901 C902 1.387 . S
C901 H904 0.950 . S
C902 C901 1.387 . S
C902 C905 1.387 . S
H903 C899 0.950 . S
H904 C901 0.950 . S
C905 C896 1.390 . S
C905 H898 0.950 . S
C905 C902 1.387 . S
C906 C907 1.387 . S
C906 H910 0.950 . S
C906 C915 1.390 . S
C907 C906 1.387 . S
C907 C909 1.387 . S
H908 C915 0.950 . S
C909 C907 1.387 . S
C909 C911 1.390 . S
C909 H913 0.950 . S
H910 C906 0.950 . S
C911 C909 1.390 . S
C911 C912 1.387 . S
C911 H914 0.950 . S
C912 C911 1.387 . S
C912 C915 1.387 . S
H913 C909 0.950 . S
H914 C911 0.950 . S
C915 C906 1.390 . S
C915 H908 0.950 . S
C915 C912 1.387 . S
C916 C917 1.387 . S
C916 H920 0.950 . S
C916 C925 1.390 . S
C917 C916 1.387 . S
C917 C919 1.387 . S
H918 C925 0.950 . S
C919 C917 1.387 . S
C919 C921 1.390 . S
C919 H923 0.950 . S
H920 C916 0.950 . S
C921 C919 1.390 . S
C921 C922 1.387 . S
C921 H924 0.950 . S
C922 C921 1.387 . S
C922 C925 1.387 . S
H923 C919 0.950 . S
H924 C921 0.950 . S
C925 C916 1.390 . S
C925 H918 0.950 . S
C925 C922 1.387 . S
C926 C927 1.387 . S
C926 H930 0.950 . S
C926 C935 1.390 . S
C927 C926 1.387 . S
C927 C929 1.387 . S
H928 C935 0.950 . S
C929 C927 1.387 . S
C929 C931 1.390 . S
C929 H933 0.950 . S
H930 C926 0.950 . S
C931 C929 1.390 . S
C931 C932 1.387 . S
C931 H934 0.950 . S
C932 C931 1.387 . S
C932 C935 1.387 . S
H933 C929 0.950 . S
H934 C931 0.950 . S
C935 C926 1.390 . S
C935 H928 0.950 . S
C935 C932 1.387 . S
C936 C937 1.387 . S
C936 H940 0.950 . S
C936 C945 1.390 . S
C937 C936 1.387 . S
C937 C939 1.387 . S
H938 C945 0.950 . S
C939 C937 1.387 . S
C939 C941 1.390 . S
C939 H943 0.950 . S
H940 C936 0.950 . S
C941 C939 1.390 . S
C941 C942 1.387 . S
C941 H944 0.950 . S
C942 C941 1.387 . S
C942 C945 1.387 . S
H943 C939 0.950 . S
H944 C941 0.950 . S
C945 C936 1.390 . S
C945 H938 0.950 . S
C945 C942 1.387 . S
C946 C947 1.387 . S
C946 H950 0.950 . S
C946 C955 1.390 . S
C947 C946 1.387 . S
C947 C949 1.387 . S
H948 C955 0.950 . S
C949 C947 1.387 . S
C949 C951 1.390 . S
C949 H953 0.950 . S
H950 C946 0.950 . S
C951 C949 1.390 . S
C951 C952 1.387 . S
C951 H954 0.950 . S
C952 C951 1.387 . S
C952 C955 1.387 . S
H953 C949 0.950 . S
H954 C951 0.950 . S
C955 C946 1.390 . S
C955 H948 0.950 . S
C955 C952 1.387 . S
C956 C957 1.387 . S
C956 H960 0.950 . S
C956 C965 1.390 . S
C957 C956 1.387 . S
C957 C959 1.387 . S
H958 C965 0.950 . S
C959 C957 1.387 . S
C959 C961 1.390 . S
C959 H963 0.950 . S
H960 C956 0.950 . S
C961 C959 1.390 . S
C961 C962 1.387 . S
C961 H964 0.950 . S
C962 C961 1.387 . S
C962 C965 1.387 . S
H963 C959 0.950 . S
H964 C961 0.950 . S
C965 C956 1.390 . S
C965 H958 0.950 . S
C965 C962 1.387 . S
C966 C967 1.387 . S
C966 H970 0.950 . S
C966 C975 1.390 . S
C967 C966 1.387 . S
C967 C969 1.387 . S
H968 C975 0.950 . S
C969 C967 1.387 . S
C969 C971 1.390 . S
C969 H973 0.950 . S
H970 C966 0.950 . S
C971 C969 1.390 . S
C971 C972 1.387 . S
C971 H974 0.950 . S
C972 C971 1.387 . S
C972 C975 1.387 . S
H973 C969 0.950 . S
H974 C971 0.950 . S
C975 C966 1.390 . S
C975 H968 0.950 . S
C975 C972 1.387 . S
C976 C977 1.387 . S
C976 H980 0.950 . S
C976 C985 1.390 . S
C977 C976 1.387 . S
C977 C979 1.387 . S
H978 C985 0.950 . S
C979 C977 1.387 . S
C979 C981 1.390 . S
C979 H983 0.950 . S
H980 C976 0.950 . S
C981 C979 1.390 . S
C981 C982 1.387 . S
C981 H984 0.950 . S
C982 C981 1.387 . S
C982 C985 1.387 . S
H983 C979 0.950 . S
H984 C981 0.950 . S
C985 C976 1.390 . S
C985 H978 0.950 . S
C985 C982 1.387 . S
C986 C987 1.387 . S
C986 H990 0.950 . S
C986 C995 1.390 . S
C987 C986 1.387 . S
C987 C989 1.387 . S
H988 C995 0.950 . S
C989 C987 1.387 . S
C989 C991 1.390 . S
C989 H993 0.950 . S
H990 C986 0.950 . S
C991 C989 1.390 . S
C991 C992 1.387 . S
C991 H994 0.950 . S
C992 C991 1.387 . S
C992 C995 1.387 . S
H993 C989 0.950 . S
H994 C991 0.950 . S
C995 C986 1.390 . S
C995 H988 0.950 . S
C995 C992 1.387 . S
C996 C997 1.387 . S
C996 H1000 0.950 . S
C996 C1005 1.390 . S
C997 C996 1.387 . S
C997 C999 1.387 . S
H998 C1005 0.950 . S
C999 C997 1.387 . S
C999 C1001 1.390 . S
C999 H1003 0.950 . S
H1000 C996 0.950 . S
C1001 C999 1.390 . S
C1001 C1002 1.387 . S
C1001 H1004 0.950 . S
C1002 C1001 1.387 . S
C1002 C1005 1.387 . S
H1003 C999 0.950 . S
H1004 C1001 0.950 . S
C1005 C996 1.390 . S
C1005 H998 0.950 . S
C1005 C1002 1.387 . S
C1006 C1007 1.387 . S
C1006 H1010 0.950 . S
C1006 C1015 1.390 . S
C1007 C1006 1.387 . S
C1007 C1009 1.387 . S
H1008 C1015 0.950 . S
C1009 C1007 1.387 . S
C1009 C1011 1.390 . S
C1009 H1013 0.950 . S
H1010 C1006 0.950 . S
C1011 C1009 1.390 . S
C1011 C1012 1.387 . S
C1011 H1014 0.950 . S
C1012 C1011 1.387 . S
C1012 C1015 1.387 . S
H1013 C1009 0.950 . S
H1014 C1011 0.950 . S
C1015 C1006 1.390 . S
C1015 H1008 0.950 . S
C1015 C1012 1.387 . S
C1016 C1017 1.387 . S
C1016 H1020 0.950 . S
C1016 C1025 1.390 . S
C1017 C1016 1.387 . S
C1017 C1019 1.387 . S
H1018 C1025 0.950 . S
C1019 C1017 1.387 . S
C1019 C1021 1.390 . S
C1019 H1023 0.950 . S
H1020 C1016 0.950 . S
C1021 C1019 1.390 . S
C1021 C1022 1.387 . S
C1021 H1024 0.950 . S
C1022 C1021 1.387 . S
C1022 C1025 1.387 . S
H1023 C1019 0.950 . S
H1024 C1021 0.950 . S
C1025 C1016 1.390 . S
C1025 H1018 0.950 . S
C1025 C1022 1.387 . S
C1026 C1027 1.387 . S
C1026 H1030 0.950 . S
C1026 C1035 1.390 . S
C1027 C1026 1.387 . S
C1027 C1029 1.387 . S
H1028 C1035 0.950 . S
C1029 C1027 1.387 . S
C1029 C1031 1.390 . S
C1029 H1033 0.950 . S
H1030 C1026 0.950 . S
C1031 C1029 1.390 . S
C1031 C1032 1.387 . S
C1031 H1034 0.950 . S
C1032 C1031 1.387 . S
C1032 C1035 1.387 . S
H1033 C1029 0.950 . S
H1034 C1031 0.950 . S
C1035 C1026 1.390 . S
C1035 H1028 0.950 . S
C1035 C1032 1.387 . S
C1036 C1037 1.387 . S
C1036 H1040 0.950 . S
C1036 C1045 1.390 . S
C1037 C1036 1.387 . S
C1037 C1039 1.387 . S
H1038 C1045 0.950 . S
C1039 C1037 1.387 . S
C1039 C1041 1.390 . S
C1039 H1043 0.950 . S
H1040 C1036 0.950 . S
C1041 C1039 1.390 . S
C1041 C1042 1.387 . S
C1041 H1044 0.950 . S
C1042 C1041 1.387 . S
C1042 C1045 1.387 . S
H1043 C1039 0.950 . S
H1044 C1041 0.950 . S
C1045 C1036 1.390 . S
C1045 H1038 0.950 . S
C1045 C1042 1.387 . S
C1046 C1047 1.387 . S
C1046 H1050 0.950 . S
C1046 C1055 1.390 . S
C1047 C1046 1.387 . S
C1047 C1049 1.387 . S
H1048 C1055 0.950 . S
C1049 C1047 1.387 . S
C1049 C1051 1.390 . S
C1049 H1053 0.950 . S
H1050 C1046 0.950 . S
C1051 C1049 1.390 . S
C1051 C1052 1.387 . S
C1051 H1054 0.950 . S
C1052 C1051 1.387 . S
C1052 C1055 1.387 . S
H1053 C1049 0.950 . S
H1054 C1051 0.950 . S
C1055 C1046 1.390 . S
C1055 H1048 0.950 . S
C1055 C1052 1.387 . S
C417 C112 1.616 . S
C422 C8 1.616 . S
C427 C333 1.615 . S
C432 C21 1.615 . S
C437 C138 1.617 . S
C442 C34 1.617 . S
C447 C359 1.618 . S
C452 C47 1.618 . S
C457 C164 1.616 . S
C462 C60 1.616 . S
C467 C73 1.618 . S
C472 C385 1.618 . S
C477 C86 1.618 . S
C482 C190 1.618 . S
C487 C99 1.615 . S
C492 C411 1.615 . S
C497 C229 1.615 . S
C502 C125 1.615 . S
C507 C255 1.618 . S
C512 C151 1.618 . S
C517 C177 1.618 . S
C522 C281 1.618 . S
C527 C203 1.615 . S
C532 C307 1.615 . S
C537 C216 1.618 . S
C542 C320 1.618 . S
C547 C346 1.616 . S
C552 C242 1.616 . S
C557 C268 1.615 . S
C562 C372 1.615 . S
C567 C398 1.618 . S
C572 C294 1.618 . S
C577 C239 1.262 . S
C582 C5 1.262 . S
C587 C252 1.263 . S
C592 C18 1.263 . S
C597 C31 1.263 . S
C602 C213 1.263 . S
C607 C44 1.263 . S
C612 C226 1.263 . S
C617 C291 1.262 . S
C622 C57 1.262 . S
C627 C70 1.263 . S
C632 C304 1.263 . S
C637 C265 1.263 . S
C642 C83 1.263 . S
C647 C278 1.263 . S
C652 C96 1.263 . S
C657 C109 1.262 . S
C662 C343 1.262 . S
C667 C356 1.263 . S
C672 C122 1.263 . S
C677 C135 1.262 . S
C682 C317 1.262 . S
C687 C148 1.263 . S
C692 C330 1.263 . S
C697 C161 1.262 . S
C702 C395 1.262 . S
C707 C174 1.262 . S
C712 C408 1.262 . S
C717 C369 1.263 . S
C722 C187 1.263 . S
C727 C382 1.262 . S
C732 C200 1.262 . S
C737 C78 1.292 . S
C742 C0 1.292 . S
C747 C91 1.292 . S
C752 C13 1.292 . S
C757 C52 1.292 . S
C762 C26 1.292 . S
C767 C39 1.288 . S
C772 C65 1.288 . S
C777 C182 1.288 . S
C782 C104 1.288 . S
C787 C195 1.288 . S
C792 C117 1.288 . S
C797 C156 1.292 . S
C802 C130 1.292 . S
C807 C169 1.292 . S
C812 C143 1.292 . S
C817 C286 1.288 . S
C822 C208 1.288 . S
C827 C299 1.288 . S
C832 C221 1.288 . S
C837 C234 1.292 . S
C842 C260 1.292 . S
C847 C247 1.288 . S
C852 C273 1.288 . S
C857 C390 1.292 . S
C862 C312 1.292 . S
C867 C403 1.288 . S
C872 C325 1.288 . S
C877 C338 1.292 . S
C882 C364 1.292 . S
C887 C351 1.292 . S
C892 C377 1.292 . S
C897 C10 1.536 . S
C902 C283 1.536 . S
C907 C296 1.536 . S
C912 C23 1.536 . S
C917 C309 1.536 . S
C922 C36 1.536 . S
C927 C49 1.536 . S
C932 C270 1.536 . S
C937 C257 1.536 . S
C942 C62 1.536 . S
C947 C75 1.536 . S
C952 C218 1.536 . S
C957 C231 1.536 . S
C962 C88 1.536 . S
C967 C101 1.536 . S
C972 C244 1.536 . S
C977 C387 1.536 . S
C982 C114 1.536 . S
C987 C400 1.536 . S
C992 C127 1.536 . S
C997 C140 1.536 . S
C1002 C413 1.536 . S
C1007 C374 1.536 . S
C1012 C153 1.536 . S
C1017 C361 1.536 . S
C1022 C166 1.536 . S
C1027 C179 1.536 . S
C1032 C322 1.536 . S
C1037 C335 1.536 . S
C1042 C192 1.536 . S
C1047 C205 1.536 . S
C1052 C348 1.536 . S
