# Generated by pormake.
# Topology wjh, (4)-cn, num edge types: 1
# Building blocks:
#     Node 0, Type 0, BuildingBlock: NAHDIM_clean_sbu_0, # of connection points: 4
#     Node 1, Type 0, BuildingBlock: NAHDIM_clean_sbu_0, # of connection points: 4
#     Node 2, Type 0, BuildingBlock: NAHDIM_clean_sbu_0, # of connection points: 4
#     Node 3, Type 0, BuildingBlock: NAHDIM_clean_sbu_0, # of connection points: 4
#     Node 4, Type 0, BuildingBlock: NAHDIM_clean_sbu_0, # of connection points: 4
#     Node 5, Type 0, BuildingBlock: NAHDIM_clean_sbu_0, # of connection points: 4
#     Node 6, Type 0, BuildingBlock: NAHDIM_clean_sbu_0, # of connection points: 4
#     Node 7, Type 0, BuildingBlock: NAHDIM_clean_sbu_0, # of connection points: 4
#     Node 8, Type 0, BuildingBlock: NAHDIM_clean_sbu_0, # of connection points: 4
#     Node 9, Type 0, BuildingBlock: NAHDIM_clean_sbu_0, # of connection points: 4
#     Node 10, Type 0, BuildingBlock: NAHDIM_clean_sbu_0, # of connection points: 4
#     Node 11, Type 0, BuildingBlock: NAHDIM_clean_sbu_0, # of connection points: 4
#     Edge 12, Type (0, 0), BuildingBlock: KIFKEQ_clean_linker_1, # of connection points: 2
#     Edge 13, Type (0, 0), BuildingBlock: KIFKEQ_clean_linker_1, # of connection points: 2
#     Edge 14, Type (0, 0), BuildingBlock: KIFKEQ_clean_linker_1, # of connection points: 2
#     Edge 15, Type (0, 0), BuildingBlock: KIFKEQ_clean_linker_1, # of connection points: 2
#     Edge 16, Type (0, 0), BuildingBlock: KIFKEQ_clean_linker_1, # of connection points: 2
#     Edge 17, Type (0, 0), BuildingBlock: KIFKEQ_clean_linker_1, # of connection points: 2
#     Edge 18, Type (0, 0), BuildingBlock: KIFKEQ_clean_linker_1, # of connection points: 2
#     Edge 19, Type (0, 0), BuildingBlock: KIFKEQ_clean_linker_1, # of connection points: 2
#     Edge 20, Type (0, 0), BuildingBlock: KIFKEQ_clean_linker_1, # of connection points: 2
#     Edge 21, Type (0, 0), BuildingBlock: KIFKEQ_clean_linker_1, # of connection points: 2
#     Edge 22, Type (0, 0), BuildingBlock: KIFKEQ_clean_linker_1, # of connection points: 2
#     Edge 23, Type (0, 0), BuildingBlock: KIFKEQ_clean_linker_1, # of connection points: 2
#     Edge 24, Type (0, 0), BuildingBlock: KIFKEQ_clean_linker_1, # of connection points: 2
#     Edge 25, Type (0, 0), BuildingBlock: KIFKEQ_clean_linker_1, # of connection points: 2
#     Edge 26, Type (0, 0), BuildingBlock: KIFKEQ_clean_linker_1, # of connection points: 2
#     Edge 27, Type (0, 0), BuildingBlock: KIFKEQ_clean_linker_1, # of connection points: 2
#     Edge 28, Type (0, 0), BuildingBlock: KIFKEQ_clean_linker_1, # of connection points: 2
#     Edge 29, Type (0, 0), BuildingBlock: KIFKEQ_clean_linker_1, # of connection points: 2
#     Edge 30, Type (0, 0), BuildingBlock: KIFKEQ_clean_linker_1, # of connection points: 2
#     Edge 31, Type (0, 0), BuildingBlock: KIFKEQ_clean_linker_1, # of connection points: 2
#     Edge 32, Type (0, 0), BuildingBlock: KIFKEQ_clean_linker_1, # of connection points: 2
#     Edge 33, Type (0, 0), BuildingBlock: KIFKEQ_clean_linker_1, # of connection points: 2
#     Edge 34, Type (0, 0), BuildingBlock: KIFKEQ_clean_linker_1, # of connection points: 2
#     Edge 35, Type (0, 0), BuildingBlock: KIFKEQ_clean_linker_1, # of connection points: 2
# Relax obj value: 0.145
# Max RMSD: 0.134
# Mean RMSD: 0.134
data_MOF--net-wjh--node1-NAHDIM_clean_sbu_0--edge1-KIFKEQ_clean_linker_1
_symmetry_space_group_name_H-M    P1
_symmetry_Int_Tables_number       1
_symmetry_cell_setting            triclinic
loop_
_symmetry_equiv_pos_as_xyz
'x, y, z'
_cell_length_a     64.348963
_cell_length_b     64.425542
_cell_length_c     24.396529
_cell_angle_alpha  90.02533
_cell_angle_beta   89.99737
_cell_angle_gamma 119.9462
loop_
_atom_site_label
_atom_site_type_symbol
_atom_site_fract_x
_atom_site_fract_y
_atom_site_fract_z
_atom_type_partial_charge
C0 C 0.49873 0.17086 0.12378 0.0
O1 O 0.51653 0.16752 0.13794 0.0
O2 O 0.50157 0.13005 0.00487 0.0
Zn3 Zn 0.48353 0.12542 0.07599 0.0
O4 O 0.4997 0.11916 0.13936 0.0
C5 C 0.4444 0.08135 0.03282 0.0
O6 O 0.45897 0.08631 0.99094 0.0
O7 O 0.48174 0.15502 0.09489 0.0
C8 C 0.51478 0.11192 0.13791 0.0
O9 O 0.52151 0.10757 0.09048 0.0
C10 C 0.52397 0.14428 0.99925 0.0
O11 O 0.53654 0.15707 0.04141 0.0
O12 O 0.45058 0.09627 0.07203 0.0
C13 C 0.31124 0.47467 0.24838 0.0
O14 O 0.31233 0.47033 0.19615 0.0
O15 O 0.3734 0.50842 0.18496 0.0
Zn16 Zn 0.36291 0.49004 0.25601 0.0
O17 O 0.38434 0.51066 0.31688 0.0
C18 C 0.35818 0.44547 0.29118 0.0
O19 O 0.34787 0.4493 0.33345 0.0
O20 O 0.32988 0.48244 0.27795 0.0
C21 C 0.40207 0.50942 0.33594 0.0
O22 O 0.40797 0.4945 0.31379 0.0
C23 C 0.39418 0.51418 0.16732 0.0
O24 O 0.40729 0.50751 0.19532 0.0
O25 O 0.36527 0.46019 0.25147 0.0
C26 C 0.82181 0.32088 0.39556 0.0
O27 O 0.82314 0.32917 0.34574 0.0
O28 O 0.8657 0.37867 0.3416 0.0
Zn29 Zn 0.86764 0.36477 0.4141 0.0
O30 O 0.8705 0.38769 0.4736 0.0
C31 C 0.90663 0.3593 0.37252 0.0
O32 O 0.89631 0.35775 0.32506 0.0
O33 O 0.83871 0.33272 0.42926 0.0
C34 C 0.85232 0.38457 0.50081 0.0
O35 O 0.83122 0.36597 0.48989 0.0
C36 C 0.85097 0.38601 0.33286 0.0
O37 O 0.83564 0.38354 0.37141 0.0
O38 O 0.89724 0.36185 0.41595 0.0
C39 C 0.49087 0.82419 0.59602 0.0
O40 O 0.47078 0.82182 0.57643 0.0
O41 O 0.48701 0.86929 0.51508 0.0
Zn42 Zn 0.5045 0.87332 0.58673 0.0
O43 O 0.48533 0.8758 0.6486 0.0
C44 C 0.54458 0.91769 0.54593 0.0
O45 O 0.53313 0.91094 0.49895 0.0
O46 O 0.50874 0.84509 0.60243 0.0
C47 C 0.49515 0.88343 0.69503 0.0
O48 O 0.51776 0.8895 0.70163 0.0
C49 C 0.4649 0.86311 0.51422 0.0
O50 O 0.45314 0.85874 0.5607 0.0
O51 O 0.53619 0.90396 0.58721 0.0
C52 C 0.67811 0.52223 0.7782 0.0
O53 O 0.68057 0.53913 0.74422 0.0
O54 O 0.61314 0.48921 0.70591 0.0
Zn55 Zn 0.62659 0.50619 0.77778 0.0
O56 O 0.60421 0.48897 0.84046 0.0
C57 C 0.62753 0.54839 0.73326 0.0
O58 O 0.62297 0.53663 0.68674 0.0
O59 O 0.65738 0.50708 0.79555 0.0
C60 C 0.58362 0.47031 0.83778 0.0
O61 O 0.57492 0.46043 0.78995 0.0
C62 C 0.6106 0.46879 0.69482 0.0
O63 O 0.61695 0.45804 0.7314 0.0
O64 O 0.63086 0.53931 0.77624 0.0
C65 C 0.17905 0.66225 0.93658 0.0
O66 O 0.17971 0.6423 0.94216 0.0
O67 O 0.13245 0.61238 0.84419 0.0
Zn68 Zn 0.13112 0.62788 0.91509 0.0
O69 O 0.13229 0.60893 0.97929 0.0
C70 C 0.0861 0.6234 0.8796 0.0
O71 O 0.09249 0.61908 0.83171 0.0
O72 O 0.15948 0.66103 0.92233 0.0
C73 C 0.11381 0.59139 0.00029 0.0
O74 O 0.09264 0.58457 0.97879 0.0
C75 C 0.13981 0.5974 0.84175 0.0
O76 O 0.14758 0.59219 0.88657 0.0
O77 O 0.10021 0.62849 0.92016 0.0
C78 C 0.81785 0.5031 0.8958 0.0
O79 O 0.81462 0.4813 0.89821 0.0
O80 O 0.85895 0.49325 0.98408 0.0
Zn81 Zn 0.86426 0.51182 0.91384 0.0
O82 O 0.86125 0.49036 0.851 0.0
C83 C 0.91149 0.54738 0.95242 0.0
O84 O 0.90367 0.5363 0.99953 0.0
O85 O 0.83879 0.52075 0.90344 0.0
C86 C 0.87012 0.49868 0.8042 0.0
O87 O 0.88161 0.52197 0.79652 0.0
C88 C 0.86569 0.47777 0.986 0.0
O89 O 0.87599 0.47466 0.94274 0.0
O90 O 0.89745 0.54061 0.91141 0.0
C91 C 0.324 0.81799 0.04897 0.0
O92 O 0.34535 0.82035 0.04273 0.0
O93 O 0.36825 0.86424 0.15343 0.0
Zn94 Zn 0.35386 0.86582 0.08095 0.0
O95 O 0.37599 0.86857 0.01995 0.0
C96 C 0.35577 0.90978 0.11598 0.0
O97 O 0.36121 0.90434 0.16374 0.0
O98 O 0.32241 0.83562 0.06738 0.0
C99 C 0.39672 0.88661 0.01295 0.0
O100 O 0.40462 0.90473 0.0472 0.0
C101 C 0.38275 0.85628 0.15648 0.0
O102 O 0.38802 0.84846 0.11184 0.0
O103 O 0.35067 0.89529 0.07621 0.0
C104 C 0.50148 0.32126 0.25055 0.0
O105 O 0.52183 0.34166 0.24786 0.0
O106 O 0.50758 0.3699 0.34284 0.0
Zn107 Zn 0.48723 0.35447 0.27543 0.0
O108 O 0.50332 0.373 0.20712 0.0
C109 C 0.44873 0.35913 0.32492 0.0
O110 O 0.46152 0.36339 0.3698 0.0
O111 O 0.4826 0.32157 0.26437 0.0
C112 C 0.50367 0.39222 0.19371 0.0
O113 O 0.49405 0.40124 0.22667 0.0
C114 C 0.52809 0.38874 0.34122 0.0
O115 O 0.5371 0.39873 0.29366 0.0
O116 O 0.45572 0.35381 0.28114 0.0
C117 C 0.1707 0.48263 0.40384 0.0
O118 O 0.17544 0.5032 0.42557 0.0
O119 O 0.13142 0.49538 0.48145 0.0
Zn120 Zn 0.12332 0.47459 0.41419 0.0
O121 O 0.11979 0.4917 0.3492 0.0
C122 C 0.08185 0.42929 0.38849 0.0
O123 O 0.09405 0.43131 0.34367 0.0
O124 O 0.14897 0.46658 0.39651 0.0
C125 C 0.1322 0.51423 0.34278 0.0
O126 O 0.14805 0.52729 0.38023 0.0
C127 C 0.11663 0.50192 0.49632 0.0
O128 O 0.09701 0.49492 0.46736 0.0
O129 O 0.09146 0.44514 0.4256 0.0
C130 C 0.66788 0.18214 0.53614 0.0
O131 O 0.64777 0.18223 0.52748 0.0
O132 O 0.61972 0.14025 0.64061 0.0
Zn133 Zn 0.6342 0.13567 0.57124 0.0
O134 O 0.61441 0.13261 0.50483 0.0
C135 C 0.62813 0.09114 0.6154 0.0
O136 O 0.62094 0.09745 0.65952 0.0
O137 O 0.66697 0.16375 0.55769 0.0
C138 C 0.59376 0.11472 0.49582 0.0
O139 O 0.58386 0.09767 0.53274 0.0
C140 C 0.60317 0.14559 0.64087 0.0
O141 O 0.59522 0.14897 0.59406 0.0
O142 O 0.63553 0.10519 0.57449 0.0
C143 C 0.48936 0.67649 0.73775 0.0
O144 O 0.46848 0.65701 0.74484 0.0
O145 O 0.48681 0.62683 0.82165 0.0
Zn146 Zn 0.50451 0.64251 0.75161 0.0
O147 O 0.48632 0.62263 0.68667 0.0
C148 C 0.54542 0.64005 0.79301 0.0
O149 O 0.53435 0.63654 0.84024 0.0
O150 O 0.50832 0.67509 0.74111 0.0
C151 C 0.4848 0.6025 0.67755 0.0
O152 O 0.49458 0.59432 0.71235 0.0
C153 C 0.46467 0.61105 0.82294 0.0
O154 O 0.45218 0.60516 0.77729 0.0
O155 O 0.53653 0.64412 0.75066 0.0
H156 H 0.55539 0.10884 0.15152 0.0
H157 H 0.49803 0.10986 0.24145 0.0
H158 H 0.57406 0.1078 0.23814 0.0
H159 H 0.51662 0.10868 0.3276 0.0
H160 H 0.54688 0.08389 0.46888 0.0
H161 H 0.52709 0.08099 0.38122 0.0
H162 H 0.5935 0.13813 0.31614 0.0
H163 H 0.61326 0.14121 0.40346 0.0
C164 C 0.54665 0.10859 0.18967 0.0
C165 C 0.52533 0.10956 0.1897 0.0
C166 C 0.55739 0.10811 0.23915 0.0
C167 C 0.54678 0.10821 0.28946 0.0
C168 C 0.52507 0.10841 0.28941 0.0
C169 C 0.51453 0.10923 0.24007 0.0
C170 C 0.55724 0.0958 0.43583 0.0
C171 C 0.58159 0.11283 0.44315 0.0
C172 C 0.54591 0.09416 0.38578 0.0
C173 C 0.55882 0.10926 0.34193 0.0
C174 C 0.58321 0.12608 0.34907 0.0
C175 C 0.59444 0.12796 0.39923 0.0
H176 H 0.44177 0.51268 0.38546 0.0
H177 H 0.39135 0.53831 0.39708 0.0
H178 H 0.46219 0.53545 0.46746 0.0
H179 H 0.41128 0.56044 0.47961 0.0
H180 H 0.46676 0.61651 0.59317 0.0
H181 H 0.4478 0.59461 0.50961 0.0
H182 H 0.45613 0.53549 0.5653 0.0
H183 H 0.47576 0.55774 0.64838 0.0
C184 C 0.43503 0.52314 0.4055 0.0
C185 C 0.41497 0.52372 0.38467 0.0
C186 C 0.44663 0.53605 0.45272 0.0
C187 C 0.43836 0.54975 0.48017 0.0
C188 C 0.41836 0.55038 0.45907 0.0
C189 C 0.40685 0.53758 0.41182 0.0
C190 C 0.46454 0.59883 0.58766 0.0
C191 C 0.47275 0.58885 0.62746 0.0
C192 C 0.45356 0.58622 0.53982 0.0
C193 C 0.4504 0.56327 0.53076 0.0
C194 C 0.45859 0.55327 0.57064 0.0
C195 C 0.46968 0.56595 0.61844 0.0
H196 H 0.88885 0.5103 0.70072 0.0
H197 H 0.84547 0.44979 0.80568 0.0
H198 H 0.88436 0.48295 0.62645 0.0
H199 H 0.84128 0.42256 0.73174 0.0
H200 H 0.81753 0.38202 0.56923 0.0
H201 H 0.82177 0.40999 0.64154 0.0
H202 H 0.89714 0.45358 0.60375 0.0
H203 H 0.89289 0.42579 0.53087 0.0
C204 C 0.8784 0.49119 0.70799 0.0
C205 C 0.8675 0.48222 0.75907 0.0
C206 C 0.87594 0.47554 0.66554 0.0
C207 C 0.86244 0.45062 0.67327 0.0
C208 C 0.85153 0.44168 0.72432 0.0
C209 C 0.85406 0.4573 0.76678 0.0
C210 C 0.83501 0.39758 0.57624 0.0
C211 C 0.85488 0.40166 0.54437 0.0
C212 C 0.83745 0.41354 0.61786 0.0
C213 C 0.8598 0.43395 0.62839 0.0
C214 C 0.87963 0.43814 0.59621 0.0
C215 C 0.87722 0.42214 0.5547 0.0
H216 H 0.44799 0.87131 0.69537 0.0
H217 H 0.51075 0.89939 0.79911 0.0
H218 H 0.42471 0.87323 0.77191 0.0
H219 H 0.48728 0.90094 0.87596 0.0
H220 H 0.44211 0.9218 0.98533 0.0
H221 H 0.46628 0.92206 0.90776 0.0
H222 H 0.40923 0.85219 0.85886 0.0
H223 H 0.38501 0.85202 0.93547 0.0
C224 C 0.45682 0.87788 0.73449 0.0
C225 C 0.48119 0.8851 0.74122 0.0
C226 C 0.44345 0.87887 0.77842 0.0
C227 C 0.45414 0.88712 0.83002 0.0
C228 C 0.47861 0.89471 0.83656 0.0
C229 C 0.49199 0.89367 0.79261 0.0
C230 C 0.43474 0.90653 0.95797 0.0
C231 C 0.41162 0.88693 0.96649 0.0
C232 C 0.44862 0.90663 0.91373 0.0
C233 C 0.43961 0.88719 0.87711 0.0
C234 C 0.41653 0.8676 0.88583 0.0
C235 C 0.40271 0.86746 0.92999 0.0
H236 H 0.51766 0.37416 0.10941 0.0
H237 H 0.51393 0.43669 0.15858 0.0
H238 H 0.53542 0.3933 0.02227 0.0
H239 H 0.53179 0.45583 0.07112 0.0
H240 H 0.59277 0.49006 0.94007 0.0
H241 H 0.57219 0.47133 0.02534 0.0
H242 H 0.52364 0.40713 0.93662 0.0
H243 H 0.54422 0.42585 0.85099 0.0
C244 C 0.52062 0.39199 0.10163 0.0
C245 C 0.51445 0.40395 0.14096 0.0
C246 C 0.53061 0.40285 0.05154 0.0
C247 C 0.53489 0.426 0.03991 0.0
C248 C 0.52878 0.43801 0.0792 0.0
C249 C 0.51851 0.42702 0.12914 0.0
C250 C 0.57761 0.472 0.93862 0.0
C251 C 0.57019 0.45938 0.88881 0.0
C252 C 0.56576 0.46135 0.98744 0.0
C253 C 0.54638 0.43778 0.98756 0.0
C254 C 0.53868 0.42527 0.93769 0.0
C255 C 0.55038 0.43602 0.8887 0.0
H256 H 0.1018 0.49209 0.25686 0.0
H257 H 0.1554 0.5618 0.31613 0.0
H258 H 0.09724 0.51045 0.17387 0.0
H259 H 0.15046 0.58019 0.23354 0.0
H260 H 0.15503 0.60102 0.05332 0.0
H261 H 0.1591 0.58221 0.13596 0.0
H262 H 0.08214 0.53642 0.14284 0.0
H263 H 0.07805 0.55494 0.05937 0.0
C264 C 0.11252 0.51135 0.25234 0.0
C265 C 0.12902 0.52549 0.29306 0.0
C266 C 0.10979 0.52188 0.20488 0.0
C267 C 0.12351 0.54677 0.19705 0.0
C268 C 0.13987 0.56092 0.23798 0.0
C269 C 0.1426 0.5504 0.28547 0.0
C270 C 0.13895 0.5869 0.07232 0.0
C271 C 0.1162 0.57948 0.04976 0.0
C272 C 0.14129 0.57623 0.11994 0.0
C273 C 0.12094 0.55791 0.14614 0.0
C274 C 0.09819 0.55034 0.12332 0.0
C275 C 0.09584 0.56101 0.07562 0.0
H276 H 0.53856 0.31558 0.216 0.0
H277 H 0.46228 0.27601 0.24737 0.0
H278 H 0.53716 0.27907 0.18505 0.0
H279 H 0.461 0.23918 0.21731 0.0
H280 H 0.46533 0.1844 0.10161 0.0
H281 H 0.46546 0.22045 0.13351 0.0
H282 H 0.53123 0.24174 0.22211 0.0
H283 H 0.53142 0.20622 0.18953 0.0
C284 C 0.5215 0.29904 0.21675 0.0
C285 C 0.50054 0.2987 0.23426 0.0
C286 C 0.52072 0.27807 0.19919 0.0
C287 C 0.49897 0.2562 0.19884 0.0
C288 C 0.47798 0.2558 0.21655 0.0
C289 C 0.47876 0.27685 0.23415 0.0
C290 C 0.47982 0.19682 0.12782 0.0
C291 C 0.49843 0.19251 0.14276 0.0
C292 C 0.47981 0.21737 0.14639 0.0
C293 C 0.49841 0.23399 0.18019 0.0
C294 C 0.51685 0.2295 0.19542 0.0
C295 C 0.51689 0.20906 0.17687 0.0
H296 H 0.26858 0.46231 0.19711 0.0
H297 H 0.30381 0.48177 0.35496 0.0
H298 H 0.23356 0.46206 0.23698 0.0
H299 H 0.26891 0.48127 0.39445 0.0
H300 H 0.2186 0.51181 0.42061 0.0
H301 H 0.25137 0.50745 0.38391 0.0
H302 H 0.20042 0.44108 0.30588 0.0
H303 H 0.16743 0.4455 0.34235 0.0
C304 C 0.26877 0.46626 0.24032 0.0
C305 C 0.28909 0.47232 0.27266 0.0
C306 C 0.24868 0.46601 0.26319 0.0
C307 C 0.24863 0.47188 0.3187 0.0
C308 C 0.2686 0.47707 0.35134 0.0
C309 C 0.28857 0.47726 0.32865 0.0
C310 C 0.21433 0.49619 0.39596 0.0
C311 C 0.19042 0.47901 0.3844 0.0
C312 C 0.23312 0.49364 0.37514 0.0
C313 C 0.22845 0.4739 0.34207 0.0
C314 C 0.20454 0.45656 0.33089 0.0
C315 C 0.18568 0.45903 0.35208 0.0
H316 H 0.67492 0.22154 0.47919 0.0
H317 H 0.71288 0.18827 0.54901 0.0
H318 H 0.71255 0.25401 0.44383 0.0
H319 H 0.75056 0.22076 0.51305 0.0
H320 H 0.8144 0.29827 0.49422 0.0
H321 H 0.77746 0.26429 0.52809 0.0
H322 H 0.74289 0.26007 0.37342 0.0
H323 H 0.7798 0.29429 0.33952 0.0
C324 C 0.6913 0.22116 0.48711 0.0
C325 C 0.69092 0.20233 0.51696 0.0
C326 C 0.71282 0.23967 0.46642 0.0
C327 C 0.73446 0.23983 0.47533 0.0
C328 C 0.73416 0.22117 0.5058 0.0
C329 C 0.71259 0.20256 0.52629 0.0
C330 C 0.79899 0.29001 0.46722 0.0
C331 C 0.79999 0.29906 0.41423 0.0
C332 C 0.77786 0.27046 0.4866 0.0
C333 C 0.75727 0.25963 0.45352 0.0
C334 C 0.75842 0.2683 0.40008 0.0
C335 C 0.7796 0.28778 0.38056 0.0
H336 H 0.4578 0.77724 0.57866 0.0
H337 H 0.52621 0.82306 0.65599 0.0
H338 H 0.45825 0.74212 0.61382 0.0
H339 H 0.52632 0.78792 0.69265 0.0
H340 H 0.52865 0.71782 0.70286 0.0
H341 H 0.52972 0.75368 0.66722 0.0
H342 H 0.45385 0.72219 0.69952 0.0
H343 H 0.45265 0.68611 0.73355 0.0
C344 C 0.47294 0.77981 0.60321 0.0
C345 C 0.49194 0.80292 0.61464 0.0
C346 C 0.47311 0.75969 0.62376 0.0
C347 C 0.49219 0.7622 0.65658 0.0
C348 C 0.51144 0.78533 0.66713 0.0
C349 C 0.51135 0.80548 0.64624 0.0
C350 C 0.51224 0.71863 0.70269 0.0
C351 C 0.49054 0.69907 0.72076 0.0
C352 C 0.51287 0.73922 0.6824 0.0
C353 C 0.49183 0.74074 0.68004 0.0
C354 C 0.47028 0.72141 0.69963 0.0
C355 C 0.46963 0.7008 0.71958 0.0
H356 H 0.67878 0.49158 0.85402 0.0
H357 H 0.725 0.54936 0.74531 0.0
H358 H 0.71286 0.48821 0.88467 0.0
H359 H 0.75922 0.54556 0.77535 0.0
H360 H 0.81838 0.54565 0.88248 0.0
H361 H 0.78494 0.55128 0.85532 0.0
H362 H 0.73861 0.47451 0.84705 0.0
H363 H 0.77166 0.46888 0.87514 0.0
C364 C 0.69622 0.50353 0.83645 0.0
C365 C 0.69914 0.52066 0.79692 0.0
C366 C 0.71575 0.50151 0.85392 0.0
C367 C 0.73871 0.51648 0.83215 0.0
C368 C 0.74178 0.5339 0.79323 0.0
C369 C 0.72216 0.53597 0.77578 0.0
C370 C 0.801 0.53 0.87517 0.0
C371 C 0.79765 0.50681 0.88115 0.0
C372 C 0.78192 0.53323 0.85923 0.0
C373 C 0.75912 0.51334 0.84913 0.0
C374 C 0.75584 0.49021 0.85533 0.0
C375 C 0.77485 0.48698 0.87122 0.0
H376 H 0.18471 0.7072 0.92696 0.0
H377 H 0.22135 0.66973 0.97909 0.0
H378 H 0.21962 0.74524 0.95338 0.0
H379 H 0.25574 0.70745 0.00682 0.0
H380 H 0.32263 0.77997 0.99711 0.0
H381 H 0.28765 0.74311 0.96765 0.0
H382 H 0.24147 0.76772 0.03412 0.0
H383 H 0.27672 0.80517 0.06235 0.0
C384 C 0.20019 0.70708 0.94404 0.0
C385 C 0.20031 0.68547 0.9507 0.0
C386 C 0.2201 0.72884 0.95958 0.0
C387 C 0.24048 0.7294 0.98218 0.0
C388 C 0.24052 0.70774 0.98871 0.0
C389 C 0.22072 0.68607 0.97298 0.0
C390 C 0.30504 0.77757 0.00559 0.0
C391 C 0.30246 0.79547 0.03231 0.0
C392 C 0.28495 0.75634 0.98887 0.0
C393 C 0.26174 0.75238 0.99879 0.0
C394 C 0.25911 0.77033 0.02532 0.0
C395 C 0.27929 0.7917 0.04185 0.0
H396 H 0.56461 0.15201 0.65562 0.0
H397 H 0.61705 0.14212 0.74489 0.0
H398 H 0.54588 0.15285 0.74193 0.0
H399 H 0.59817 0.14279 0.83106 0.0
H400 H 0.57199 0.16893 0.97628 0.0
H401 H 0.59158 0.17049 0.88945 0.0
H402 H 0.52249 0.12423 0.81571 0.0
H403 H 0.50286 0.12278 0.90227 0.0
C404 C 0.57219 0.15009 0.69362 0.0
C405 C 0.59231 0.14696 0.69332 0.0
C406 C 0.56137 0.15044 0.74304 0.0
C407 C 0.57051 0.14784 0.7933 0.0
C408 C 0.59085 0.14509 0.79305 0.0
C409 C 0.60158 0.14458 0.74363 0.0
C410 C 0.56096 0.15917 0.9415 0.0
C411 C 0.53586 0.14572 0.94625 0.0
C412 C 0.57221 0.15997 0.89185 0.0
C413 C 0.55858 0.14748 0.84574 0.0
C414 C 0.53347 0.13426 0.85032 0.0
C415 C 0.52223 0.13333 0.90004 0.0
H416 H 0.41827 0.57558 0.83956 0.0
H417 H 0.48594 0.61746 0.92331 0.0
H418 H 0.40079 0.55263 0.92313 0.0
H419 H 0.46833 0.59479 0.00698 0.0
H420 H 0.43822 0.53008 0.12146 0.0
H421 H 0.45456 0.55418 0.03923 0.0
H422 H 0.38871 0.55567 0.01696 0.0
H423 H 0.37211 0.53112 0.09909 0.0
C424 C 0.42936 0.58006 0.87591 0.0
C425 C 0.45355 0.59827 0.87464 0.0
C426 C 0.41929 0.56697 0.92389 0.0
C427 C 0.43321 0.57177 0.97161 0.0
C428 C 0.45723 0.59038 0.97065 0.0
C429 C 0.46728 0.60348 0.92276 0.0
C430 C 0.42717 0.5355 0.09909 0.0
C431 C 0.40385 0.52867 0.11689 0.0
C432 C 0.43663 0.54949 0.05212 0.0
C433 C 0.423 0.55698 0.0217 0.0
C434 C 0.3996 0.55003 0.03926 0.0
C435 C 0.39013 0.53605 0.08642 0.0
H436 H 0.85074 0.4835 0.08714 0.0
H437 H 0.87293 0.43981 0.99828 0.0
H438 H 0.84645 0.46067 0.17029 0.0
H439 H 0.86794 0.41656 0.0807 0.0
H440 H 0.88398 0.39891 0.25079 0.0
H441 H 0.8868 0.42073 0.16727 0.0
H442 H 0.82261 0.42216 0.21274 0.0
H443 H 0.82022 0.40093 0.29737 0.0
C444 C 0.8545 0.4689 0.08525 0.0
C445 C 0.8623 0.46355 0.0362 0.0
C446 C 0.8519 0.45571 0.13283 0.0
C447 C 0.85691 0.4368 0.13228 0.0
C448 C 0.86434 0.43126 0.0829 0.0
C449 C 0.86708 0.44453 0.03552 0.0
C450 C 0.8704 0.40378 0.24292 0.0
C451 C 0.85189 0.39821 0.2808 0.0
C452 C 0.87194 0.4162 0.19482 0.0
C453 C 0.85492 0.42321 0.18317 0.0
C454 C 0.83622 0.41736 0.22078 0.0
C455 C 0.83475 0.40504 0.26912 0.0
H456 H 0.41785 0.84986 0.4986 0.0
H457 H 0.48411 0.87238 0.41097 0.0
H458 H 0.39764 0.84747 0.41244 0.0
H459 H 0.46396 0.87041 0.32486 0.0
H460 H 0.4143 0.84048 0.1765 0.0
H461 H 0.43372 0.8414 0.2629 0.0
H462 H 0.39697 0.87394 0.3421 0.0
H463 H 0.37717 0.87262 0.25589 0.0
C464 C 0.42813 0.85434 0.46098 0.0
C465 C 0.4526 0.86131 0.46168 0.0
C466 C 0.41656 0.8531 0.41161 0.0
C467 C 0.42919 0.8588 0.36179 0.0
C468 C 0.45364 0.86562 0.36245 0.0
C469 C 0.46522 0.86686 0.41185 0.0
C470 C 0.41029 0.84777 0.21236 0.0
C471 C 0.39417 0.85647 0.20929 0.0
C472 C 0.42155 0.84843 0.26182 0.0
C473 C 0.41695 0.85779 0.30937 0.0
C474 C 0.40069 0.86634 0.30638 0.0
C475 C 0.38943 0.86569 0.25689 0.0
H476 H 0.60074 0.48822 0.60601 0.0
H477 H 0.59562 0.42251 0.66455 0.0
H478 H 0.58165 0.46845 0.52027 0.0
H479 H 0.57655 0.40277 0.57847 0.0
H480 H 0.51664 0.3709 0.44552 0.0
H481 H 0.53755 0.39007 0.53039 0.0
H482 H 0.59017 0.45086 0.43805 0.0
H483 H 0.56929 0.43181 0.35317 0.0
C484 C 0.59563 0.46958 0.60052 0.0
C485 C 0.59967 0.45693 0.64216 0.0
C486 C 0.58481 0.4583 0.55125 0.0
C487 C 0.57761 0.43406 0.54265 0.0
C488 C 0.58173 0.42142 0.58415 0.0
C489 C 0.59276 0.43276 0.63329 0.0
C490 C 0.53273 0.38831 0.44327 0.0
C491 C 0.54125 0.39986 0.39257 0.0
C492 C 0.54477 0.39922 0.49187 0.0
C493 C 0.56546 0.42199 0.49086 0.0
C494 C 0.57412 0.43341 0.44014 0.0
C495 C 0.56221 0.42243 0.39151 0.0
H496 H 0.0879 0.51766 0.5399 0.0
H497 H 0.15568 0.52026 0.56444 0.0
H498 H 0.09478 0.54163 0.62212 0.0
H499 H 0.16279 0.54473 0.6463 0.0
H500 H 0.15203 0.56296 0.82347 0.0
H501 H 0.14737 0.54079 0.73907 0.0
H502 H 0.12004 0.58175 0.65741 0.0
H503 H 0.1242 0.60358 0.74208 0.0
C504 C 0.10436 0.52348 0.56263 0.0
C505 C 0.12121 0.51699 0.54567 0.0
C506 C 0.10838 0.53737 0.60962 0.0
C507 C 0.12937 0.54515 0.64077 0.0
C508 C 0.14631 0.5388 0.62359 0.0
C509 C 0.14228 0.52487 0.57653 0.0
C510 C 0.14514 0.56733 0.78745 0.0
C511 C 0.13837 0.58496 0.78962 0.0
C512 C 0.1426 0.5547 0.73895 0.0
C513 C 0.13324 0.55942 0.69153 0.0
C514 C 0.12695 0.57741 0.69344 0.0
C515 C 0.12947 0.59003 0.74192 0.0
H516 H 0.42983 0.04325 0.96368 0.0
H517 H 0.41224 0.06398 0.11765 0.0
H518 H 0.40165 0.00153 0.98372 0.0
H519 H 0.38343 0.02211 0.1371 0.0
H520 H 0.37457 0.94783 0.18637 0.0
H521 H 0.38955 0.9896 0.16341 0.0
H522 H 0.36164 0.96913 0.99902 0.0
H523 H 0.3472 0.92727 0.02163 0.0
C524 C 0.41947 0.03898 0.00116 0.0
C525 C 0.42364 0.05691 0.03954 0.0
C526 C 0.40312 0.01499 0.01254 0.0
C527 C 0.39048 0.0084 0.06244 0.0
C528 C 0.39324 0.02655 0.09879 0.0
C529 C 0.40966 0.05056 0.08748 0.0
C530 C 0.37116 0.95215 0.14567 0.0
C531 C 0.36012 0.93426 0.10554 0.0
C532 C 0.37962 0.97615 0.13254 0.0
C533 C 0.37711 0.98279 0.07907 0.0
C534 C 0.3643 0.96467 0.04025 0.0
C535 C 0.35593 0.94066 0.05331 0.0
H536 H 0.43387 0.37807 0.40589 0.0
H537 H 0.41901 0.35272 0.23856 0.0
H538 H 0.40663 0.39377 0.39664 0.0
H539 H 0.39126 0.36792 0.22978 0.0
H540 H 0.38176 0.4347 0.21329 0.0
H541 H 0.39835 0.40831 0.22255 0.0
H542 H 0.36632 0.38688 0.38319 0.0
H543 H 0.35008 0.41381 0.37441 0.0
C544 C 0.42435 0.37532 0.36755 0.0
C545 C 0.42893 0.36451 0.32268 0.0
C546 C 0.40859 0.3842 0.36233 0.0
C547 C 0.39699 0.38237 0.3122 0.0
C548 C 0.40028 0.37003 0.26859 0.0
C549 C 0.4161 0.36122 0.27374 0.0
C550 C 0.3779 0.42408 0.25026 0.0
C551 C 0.36486 0.4266 0.29341 0.0
C552 C 0.38728 0.40878 0.25542 0.0
C553 C 0.3838 0.39558 0.30381 0.0
C554 C 0.36961 0.39707 0.34574 0.0
C555 C 0.36021 0.41242 0.34057 0.0
H556 H 0.05061 0.42449 0.46954 0.0
H557 H 0.05439 0.39428 0.31419 0.0
H558 H 0.00728 0.40126 0.46663 0.0
H559 H 0.01071 0.37015 0.3122 0.0
H560 H 0.93809 0.36888 0.28839 0.0
H561 H 0.97994 0.37955 0.29534 0.0
H562 H 0.97097 0.36442 0.46913 0.0
H563 H 0.9293 0.35475 0.46239 0.0
C564 C 0.0422 0.41239 0.43538 0.0
C565 C 0.05595 0.41157 0.3916 0.0
C566 C 0.01724 0.39885 0.4339 0.0
C567 C 0.0054 0.38397 0.38883 0.0
C568 C 0.01924 0.3818 0.34697 0.0
C569 C 0.04428 0.39551 0.34828 0.0
C570 C 0.94494 0.36742 0.32789 0.0
C571 C 0.93056 0.36144 0.37502 0.0
C572 C 0.96894 0.37338 0.33187 0.0
C573 C 0.97898 0.37319 0.383 0.0
C574 C 0.96399 0.36533 0.42936 0.0
C575 C 0.94009 0.3597 0.42548 0.0
H576 H 0.57219 0.93728 0.63732 0.0
H577 H 0.56135 0.95454 0.47245 0.0
H578 H 0.59924 0.97964 0.65577 0.0
H579 H 0.58779 -0.00317 0.49133 0.0
H580 H 0.64044 0.07215 0.52944 0.0
H581 H 0.62683 0.02997 0.51266 0.0
H582 H 0.59134 0.01197 0.67016 0.0
H583 H 0.60546 0.05406 0.68752 0.0
C584 C 0.57587 0.95007 0.60472 0.0
C585 C 0.56431 0.94259 0.55367 0.0
C586 C 0.59129 0.97436 0.61541 0.0
C587 C 0.5954 0.99168 0.57537 0.0
C588 C 0.5852 0.984 0.52305 0.0
C589 C 0.56988 0.95971 0.51227 0.0
C590 C 0.63016 0.05923 0.56098 0.0
C591 C 0.6237 0.06641 0.60947 0.0
C592 C 0.62227 0.03505 0.55122 0.0
C593 C 0.60771 0.01754 0.58967 0.0
C594 C 0.60269 0.02495 0.63979 0.0
C595 C 0.61067 0.04913 0.64964 0.0
H596 H 0.60824 0.5651 0.6576 0.0
H597 H 0.63881 0.57895 0.8203 0.0
H598 H 0.59477 0.59371 0.67284 0.0
H599 H 0.62613 0.60841 0.83493 0.0
H600 H 0.56138 0.61997 0.86839 0.0
H601 H 0.58792 0.60401 0.85223 0.0
H602 H 0.60149 0.63292 0.68784 0.0
H603 H 0.57408 0.64812 0.70349 0.0
C604 C 0.61272 0.57479 0.69607 0.0
C605 C 0.62416 0.5694 0.73814 0.0
C606 C 0.60511 0.59138 0.70476 0.0
C607 C 0.60902 0.60315 0.75552 0.0
C608 C 0.62231 0.59924 0.79585 0.0
C609 C 0.6297 0.58245 0.78735 0.0
C610 C 0.57039 0.62336 0.82916 0.0
C611 C 0.56527 0.63491 0.7869 0.0
C612 C 0.5858 0.61432 0.81993 0.0
C613 C 0.59664 0.61686 0.76838 0.0
C614 C 0.59302 0.63015 0.72759 0.0
C615 C 0.57741 0.63899 0.73667 0.0
H616 H 0.04868 0.6038 0.80752 0.0
H617 H 0.06766 0.63255 0.97156 0.0
H618 H 0.00684 0.59049 0.82652 0.0
H619 H 0.02578 0.61996 0.99006 0.0
H620 H 0.9481 0.55869 0.02441 0.0
H621 H 0.99084 0.58219 0.00617 0.0
H622 H 0.97605 0.59975 0.84517 0.0
H623 H 0.93316 0.57546 0.86281 0.0
C624 C 0.044 0.60779 0.84725 0.0
C625 C 0.06145 0.61892 0.88827 0.0
C626 C 0.01997 0.60029 0.85809 0.0
C627 C 0.01285 0.60394 0.91007 0.0
C628 C 0.03056 0.61643 0.94997 0.0
C629 C 0.05459 0.62376 0.93925 0.0
C630 C 0.95394 0.56788 0.98545 0.0
C631 C 0.93723 0.56492 0.94478 0.0
C632 C 0.97852 0.58152 0.97506 0.0
C633 C 0.98694 0.59269 0.92391 0.0
C634 C 0.97019 0.59098 0.88456 0.0
C635 C 0.9456 0.57717 0.8948 0.0
loop_
_geom_bond_atom_site_label_1
_geom_bond_atom_site_label_2
_geom_bond_distance
_geom_bond_site_symmetry_2
_ccdc_geom_bond_type
C0 O1 1.160 . S
C0 O7 1.185 . S
O1 C0 1.160 . S
O2 Zn3 1.899 . S
O2 C10 1.284 . S
Zn3 O2 1.899 . S
Zn3 O4 2.032 . S
Zn3 O7 2.086 . S
Zn3 O12 1.977 . S
O4 Zn3 2.032 . S
O4 C8 1.278 . S
C5 O6 1.203 . S
C5 O12 1.267 . S
O6 C5 1.203 . S
O7 C0 1.185 . S
O7 Zn3 2.086 . S
C8 O4 1.278 . S
C8 O9 1.211 . S
O9 C8 1.211 . S
C10 O2 1.284 . S
C10 O11 1.273 . S
O11 C10 1.273 . S
O12 Zn3 1.977 . S
O12 C5 1.267 . S
C13 O14 1.160 . S
C13 O20 1.185 . S
O14 C13 1.160 . S
O15 Zn16 1.899 . S
O15 C23 1.284 . S
Zn16 O15 1.899 . S
Zn16 O17 2.032 . S
Zn16 O20 2.086 . S
Zn16 O25 1.977 . S
O17 Zn16 2.032 . S
O17 C21 1.278 . S
C18 O19 1.203 . S
C18 O25 1.267 . S
O19 C18 1.203 . S
O20 C13 1.185 . S
O20 Zn16 2.086 . S
C21 O17 1.278 . S
C21 O22 1.211 . S
O22 C21 1.211 . S
C23 O15 1.284 . S
C23 O24 1.273 . S
O24 C23 1.273 . S
O25 Zn16 1.977 . S
O25 C18 1.267 . S
C26 O27 1.160 . S
C26 O33 1.185 . S
O27 C26 1.160 . S
O28 Zn29 1.899 . S
O28 C36 1.284 . S
Zn29 O28 1.899 . S
Zn29 O30 2.032 . S
Zn29 O33 2.086 . S
Zn29 O38 1.977 . S
O30 Zn29 2.032 . S
O30 C34 1.278 . S
C31 O32 1.203 . S
C31 O38 1.267 . S
O32 C31 1.203 . S
O33 C26 1.185 . S
O33 Zn29 2.086 . S
C34 O30 1.278 . S
C34 O35 1.211 . S
O35 C34 1.211 . S
C36 O28 1.284 . S
C36 O37 1.273 . S
O37 C36 1.273 . S
O38 Zn29 1.977 . S
O38 C31 1.267 . S
C39 O40 1.160 . S
C39 O46 1.185 . S
O40 C39 1.160 . S
O41 Zn42 1.899 . S
O41 C49 1.284 . S
Zn42 O41 1.899 . S
Zn42 O43 2.032 . S
Zn42 O46 2.086 . S
Zn42 O51 1.977 . S
O43 Zn42 2.032 . S
O43 C47 1.278 . S
C44 O45 1.203 . S
C44 O51 1.267 . S
O45 C44 1.203 . S
O46 C39 1.185 . S
O46 Zn42 2.086 . S
C47 O43 1.278 . S
C47 O48 1.211 . S
O48 C47 1.211 . S
C49 O41 1.284 . S
C49 O50 1.273 . S
O50 C49 1.273 . S
O51 Zn42 1.977 . S
O51 C44 1.267 . S
C52 O53 1.160 . S
C52 O59 1.185 . S
O53 C52 1.160 . S
O54 Zn55 1.899 . S
O54 C62 1.284 . S
Zn55 O54 1.899 . S
Zn55 O56 2.032 . S
Zn55 O59 2.086 . S
Zn55 O64 1.977 . S
O56 Zn55 2.032 . S
O56 C60 1.278 . S
C57 O58 1.203 . S
C57 O64 1.267 . S
O58 C57 1.203 . S
O59 C52 1.185 . S
O59 Zn55 2.086 . S
C60 O56 1.278 . S
C60 O61 1.211 . S
O61 C60 1.211 . S
C62 O54 1.284 . S
C62 O63 1.273 . S
O63 C62 1.273 . S
O64 Zn55 1.977 . S
O64 C57 1.267 . S
C65 O66 1.160 . S
C65 O72 1.185 . S
O66 C65 1.160 . S
O67 Zn68 1.899 . S
O67 C75 1.284 . S
Zn68 O67 1.899 . S
Zn68 O69 2.032 . S
Zn68 O72 2.086 . S
Zn68 O77 1.977 . S
O69 Zn68 2.032 . S
O69 C73 1.278 1_556 S
C70 O71 1.203 . S
C70 O77 1.267 . S
O71 C70 1.203 . S
O72 C65 1.185 . S
O72 Zn68 2.086 . S
C73 O69 1.278 1_554 S
C73 O74 1.212 . S
O74 C73 1.212 . S
C75 O67 1.284 . S
C75 O76 1.273 . S
O76 C75 1.273 . S
O77 Zn68 1.977 . S
O77 C70 1.267 . S
C78 O79 1.160 . S
C78 O85 1.185 . S
O79 C78 1.160 . S
O80 Zn81 1.899 . S
O80 C88 1.284 . S
Zn81 O80 1.899 . S
Zn81 O82 2.032 . S
Zn81 O85 2.086 . S
Zn81 O90 1.977 . S
O82 Zn81 2.032 . S
O82 C86 1.278 . S
C83 O84 1.203 . S
C83 O90 1.267 . S
O84 C83 1.203 . S
O85 C78 1.185 . S
O85 Zn81 2.086 . S
C86 O82 1.278 . S
C86 O87 1.211 . S
O87 C86 1.211 . S
C88 O80 1.284 . S
C88 O89 1.273 . S
O89 C88 1.273 . S
O90 Zn81 1.977 . S
O90 C83 1.267 . S
C91 O92 1.160 . S
C91 O98 1.185 . S
O92 C91 1.160 . S
O93 Zn94 1.899 . S
O93 C101 1.284 . S
Zn94 O93 1.899 . S
Zn94 O95 2.032 . S
Zn94 O98 2.086 . S
Zn94 O103 1.977 . S
O95 Zn94 2.032 . S
O95 C99 1.278 1_554 S
C96 O97 1.203 . S
C96 O103 1.267 . S
O97 C96 1.203 . S
O98 C91 1.185 . S
O98 Zn94 2.086 . S
C99 O95 1.278 1_556 S
C99 O100 1.208 1_556 S
O100 C99 1.208 1_554 S
C101 O93 1.284 . S
C101 O102 1.273 . S
O102 C101 1.273 . S
O103 Zn94 1.977 . S
O103 C96 1.267 . S
C104 O105 1.160 . S
C104 O111 1.185 . S
O105 C104 1.160 . S
O106 Zn107 1.899 . S
O106 C114 1.284 . S
Zn107 O106 1.899 . S
Zn107 O108 2.032 . S
Zn107 O111 2.086 . S
Zn107 O116 1.977 . S
O108 Zn107 2.032 . S
O108 C112 1.278 . S
C109 O110 1.203 . S
C109 O116 1.267 . S
O110 C109 1.203 . S
O111 C104 1.185 . S
O111 Zn107 2.086 . S
C112 O108 1.278 . S
C112 O113 1.211 . S
O113 C112 1.211 . S
C114 O106 1.284 . S
C114 O115 1.273 . S
O115 C114 1.273 . S
O116 Zn107 1.977 . S
O116 C109 1.267 . S
C117 O118 1.160 . S
C117 O124 1.185 . S
O118 C117 1.160 . S
O119 Zn120 1.899 . S
O119 C127 1.284 . S
Zn120 O119 1.899 . S
Zn120 O121 2.032 . S
Zn120 O124 2.086 . S
Zn120 O129 1.977 . S
O121 Zn120 2.032 . S
O121 C125 1.278 . S
C122 O123 1.203 . S
C122 O129 1.267 . S
O123 C122 1.203 . S
O124 C117 1.185 . S
O124 Zn120 2.086 . S
C125 O121 1.278 . S
C125 O126 1.211 . S
O126 C125 1.211 . S
C127 O119 1.284 . S
C127 O128 1.273 . S
O128 C127 1.273 . S
O129 Zn120 1.977 . S
O129 C122 1.267 . S
C130 O131 1.160 . S
C130 O137 1.185 . S
O131 C130 1.160 . S
O132 Zn133 1.899 . S
O132 C140 1.284 . S
Zn133 O132 1.899 . S
Zn133 O134 2.032 . S
Zn133 O137 2.086 . S
Zn133 O142 1.977 . S
O134 Zn133 2.032 . S
O134 C138 1.278 . S
C135 O136 1.203 . S
C135 O142 1.267 . S
O136 C135 1.203 . S
O137 C130 1.185 . S
O137 Zn133 2.086 . S
C138 O134 1.278 . S
C138 O139 1.211 . S
O139 C138 1.211 . S
C140 O132 1.284 . S
C140 O141 1.273 . S
O141 C140 1.273 . S
O142 Zn133 1.977 . S
O142 C135 1.267 . S
C143 O144 1.160 . S
C143 O150 1.185 . S
O144 C143 1.160 . S
O145 Zn146 1.899 . S
O145 C153 1.284 . S
Zn146 O145 1.899 . S
Zn146 O147 2.032 . S
Zn146 O150 2.086 . S
Zn146 O155 1.977 . S
O147 Zn146 2.032 . S
O147 C151 1.278 . S
C148 O149 1.203 . S
C148 O155 1.267 . S
O149 C148 1.203 . S
O150 C143 1.185 . S
O150 Zn146 2.086 . S
C151 O147 1.278 . S
C151 O152 1.211 . S
O152 C151 1.211 . S
C153 O145 1.284 . S
C153 O154 1.273 . S
O154 C153 1.273 . S
O155 Zn146 1.977 . S
O155 C148 1.267 . S
H156 C164 0.950 . S
H157 C169 0.950 . S
H158 C166 0.950 . S
H159 C168 0.950 . S
H160 C170 0.950 . S
H161 C172 0.950 . S
H162 C174 0.950 . S
H163 C175 0.950 . S
C164 H156 0.950 . S
C164 C165 1.386 . S
C164 C166 1.391 . S
C165 C164 1.386 . S
C165 C169 1.393 . S
C166 H158 0.950 . S
C166 C164 1.391 . S
C166 C167 1.400 . S
C167 C166 1.400 . S
C167 C168 1.398 . S
C167 C173 1.491 . S
C168 H159 0.950 . S
C168 C167 1.398 . S
C168 C169 1.391 . S
C169 H157 0.950 . S
C169 C165 1.393 . S
C169 C168 1.391 . S
C170 H160 0.950 . S
C170 C171 1.386 . S
C170 C172 1.391 . S
C171 C170 1.386 . S
C171 C175 1.393 . S
C172 H161 0.950 . S
C172 C170 1.391 . S
C172 C173 1.400 . S
C173 C167 1.491 . S
C173 C172 1.400 . S
C173 C174 1.398 . S
C174 H162 0.950 . S
C174 C173 1.398 . S
C174 C175 1.391 . S
C175 H163 0.950 . S
C175 C171 1.393 . S
C175 C174 1.391 . S
H176 C184 0.950 . S
H177 C189 0.950 . S
H178 C186 0.950 . S
H179 C188 0.950 . S
H180 C190 0.950 . S
H181 C192 0.950 . S
H182 C194 0.950 . S
H183 C195 0.950 . S
C184 H176 0.950 . S
C184 C185 1.386 . S
C184 C186 1.391 . S
C185 C184 1.386 . S
C185 C189 1.393 . S
C186 H178 0.950 . S
C186 C184 1.391 . S
C186 C187 1.400 . S
C187 C186 1.400 . S
C187 C188 1.398 . S
C187 C193 1.491 . S
C188 H179 0.950 . S
C188 C187 1.398 . S
C188 C189 1.391 . S
C189 H177 0.950 . S
C189 C185 1.393 . S
C189 C188 1.391 . S
C190 H180 0.950 . S
C190 C191 1.386 . S
C190 C192 1.391 . S
C191 C190 1.386 . S
C191 C195 1.393 . S
C192 H181 0.950 . S
C192 C190 1.391 . S
C192 C193 1.400 . S
C193 C187 1.491 . S
C193 C192 1.400 . S
C193 C194 1.398 . S
C194 H182 0.950 . S
C194 C193 1.398 . S
C194 C195 1.391 . S
C195 H183 0.950 . S
C195 C191 1.393 . S
C195 C194 1.391 . S
H196 C204 0.950 . S
H197 C209 0.950 . S
H198 C206 0.950 . S
H199 C208 0.950 . S
H200 C210 0.950 . S
H201 C212 0.950 . S
H202 C214 0.950 . S
H203 C215 0.950 . S
C204 H196 0.950 . S
C204 C205 1.386 . S
C204 C206 1.391 . S
C205 C204 1.386 . S
C205 C209 1.393 . S
C206 H198 0.950 . S
C206 C204 1.391 . S
C206 C207 1.400 . S
C207 C206 1.400 . S
C207 C208 1.398 . S
C207 C213 1.491 . S
C208 H199 0.950 . S
C208 C207 1.398 . S
C208 C209 1.391 . S
C209 H197 0.950 . S
C209 C205 1.393 . S
C209 C208 1.391 . S
C210 H200 0.950 . S
C210 C211 1.386 . S
C210 C212 1.391 . S
C211 C210 1.386 . S
C211 C215 1.393 . S
C212 H201 0.950 . S
C212 C210 1.391 . S
C212 C213 1.400 . S
C213 C207 1.491 . S
C213 C212 1.400 . S
C213 C214 1.398 . S
C214 H202 0.950 . S
C214 C213 1.398 . S
C214 C215 1.391 . S
C215 H203 0.950 . S
C215 C211 1.393 . S
C215 C214 1.391 . S
H216 C224 0.950 . S
H217 C229 0.950 . S
H218 C226 0.950 . S
H219 C228 0.950 . S
H220 C230 0.950 . S
H221 C232 0.950 . S
H222 C234 0.950 . S
H223 C235 0.950 . S
C224 H216 0.950 . S
C224 C225 1.386 . S
C224 C226 1.391 . S
C225 C224 1.386 . S
C225 C229 1.393 . S
C226 H218 0.950 . S
C226 C224 1.391 . S
C226 C227 1.400 . S
C227 C226 1.400 . S
C227 C228 1.398 . S
C227 C233 1.491 . S
C228 H219 0.950 . S
C228 C227 1.398 . S
C228 C229 1.391 . S
C229 H217 0.950 . S
C229 C225 1.393 . S
C229 C228 1.391 . S
C230 H220 0.950 . S
C230 C231 1.386 . S
C230 C232 1.391 . S
C231 C230 1.386 . S
C231 C235 1.393 . S
C232 H221 0.950 . S
C232 C230 1.391 . S
C232 C233 1.400 . S
C233 C227 1.491 . S
C233 C232 1.400 . S
C233 C234 1.398 . S
C234 H222 0.950 . S
C234 C233 1.398 . S
C234 C235 1.391 . S
C235 H223 0.950 . S
C235 C231 1.393 . S
C235 C234 1.391 . S
H236 C244 0.950 . S
H237 C249 0.950 . S
H238 C246 0.950 1_556 S
H239 C248 0.950 . S
H240 C250 0.950 . S
H241 C252 0.950 1_554 S
H242 C254 0.950 . S
H243 C255 0.950 . S
C244 H236 0.950 . S
C244 C245 1.386 . S
C244 C246 1.391 . S
C245 C244 1.386 . S
C245 C249 1.393 . S
C246 H238 0.950 1_554 S
C246 C244 1.391 . S
C246 C247 1.400 . S
C247 C246 1.400 . S
C247 C248 1.398 . S
C247 C253 1.491 1_554 S
C248 H239 0.950 . S
C248 C247 1.398 . S
C248 C249 1.391 . S
C249 H237 0.950 . S
C249 C245 1.393 . S
C249 C248 1.391 . S
C250 H240 0.950 . S
C250 C251 1.386 . S
C250 C252 1.391 . S
C251 C250 1.386 . S
C251 C255 1.393 . S
C252 H241 0.950 1_556 S
C252 C250 1.391 . S
C252 C253 1.400 . S
C253 C247 1.491 1_556 S
C253 C252 1.400 . S
C253 C254 1.398 . S
C254 H242 0.950 . S
C254 C253 1.398 . S
C254 C255 1.391 . S
C255 H243 0.950 . S
C255 C251 1.393 . S
C255 C254 1.391 . S
H256 C264 0.950 . S
H257 C269 0.950 . S
H258 C266 0.950 . S
H259 C268 0.950 . S
H260 C270 0.950 . S
H261 C272 0.950 . S
H262 C274 0.950 . S
H263 C275 0.950 . S
C264 H256 0.950 . S
C264 C265 1.386 . S
C264 C266 1.391 . S
C265 C264 1.386 . S
C265 C269 1.393 . S
C266 H258 0.950 . S
C266 C264 1.391 . S
C266 C267 1.400 . S
C267 C266 1.400 . S
C267 C268 1.398 . S
C267 C273 1.491 . S
C268 H259 0.950 . S
C268 C267 1.398 . S
C268 C269 1.391 . S
C269 H257 0.950 . S
C269 C265 1.393 . S
C269 C268 1.391 . S
C270 H260 0.950 . S
C270 C271 1.386 . S
C270 C272 1.391 . S
C271 C270 1.386 . S
C271 C275 1.393 . S
C272 H261 0.950 . S
C272 C270 1.391 . S
C272 C273 1.400 . S
C273 C267 1.491 . S
C273 C272 1.400 . S
C273 C274 1.398 . S
C274 H262 0.950 . S
C274 C273 1.398 . S
C274 C275 1.391 . S
C275 H263 0.950 . S
C275 C271 1.393 . S
C275 C274 1.391 . S
H276 C284 0.950 . S
H277 C289 0.950 . S
H278 C286 0.950 . S
H279 C288 0.950 . S
H280 C290 0.950 . S
H281 C292 0.950 . S
H282 C294 0.950 . S
H283 C295 0.950 . S
C284 H276 0.950 . S
C284 C285 1.386 . S
C284 C286 1.391 . S
C285 C284 1.386 . S
C285 C289 1.393 . S
C286 H278 0.950 . S
C286 C284 1.391 . S
C286 C287 1.400 . S
C287 C286 1.400 . S
C287 C288 1.398 . S
C287 C293 1.491 . S
C288 H279 0.950 . S
C288 C287 1.398 . S
C288 C289 1.391 . S
C289 H277 0.950 . S
C289 C285 1.393 . S
C289 C288 1.391 . S
C290 H280 0.950 . S
C290 C291 1.386 . S
C290 C292 1.391 . S
C291 C290 1.386 . S
C291 C295 1.393 . S
C292 H281 0.950 . S
C292 C290 1.391 . S
C292 C293 1.400 . S
C293 C287 1.491 . S
C293 C292 1.400 . S
C293 C294 1.398 . S
C294 H282 0.950 . S
C294 C293 1.398 . S
C294 C295 1.391 . S
C295 H283 0.950 . S
C295 C291 1.393 . S
C295 C294 1.391 . S
H296 C304 0.950 . S
H297 C309 0.950 . S
H298 C306 0.950 . S
H299 C308 0.950 . S
H300 C310 0.950 . S
H301 C312 0.950 . S
H302 C314 0.950 . S
H303 C315 0.950 . S
C304 H296 0.950 . S
C304 C305 1.386 . S
C304 C306 1.391 . S
C305 C304 1.386 . S
C305 C309 1.393 . S
C306 H298 0.950 . S
C306 C304 1.391 . S
C306 C307 1.400 . S
C307 C306 1.400 . S
C307 C308 1.398 . S
C307 C313 1.491 . S
C308 H299 0.950 . S
C308 C307 1.398 . S
C308 C309 1.391 . S
C309 H297 0.950 . S
C309 C305 1.393 . S
C309 C308 1.391 . S
C310 H300 0.950 . S
C310 C311 1.386 . S
C310 C312 1.391 . S
C311 C310 1.386 . S
C311 C315 1.393 . S
C312 H301 0.950 . S
C312 C310 1.391 . S
C312 C313 1.400 . S
C313 C307 1.491 . S
C313 C312 1.400 . S
C313 C314 1.398 . S
C314 H302 0.950 . S
C314 C313 1.398 . S
C314 C315 1.391 . S
C315 H303 0.950 . S
C315 C311 1.393 . S
C315 C314 1.391 . S
H316 C324 0.950 . S
H317 C329 0.950 . S
H318 C326 0.950 . S
H319 C328 0.950 . S
H320 C330 0.950 . S
H321 C332 0.950 . S
H322 C334 0.950 . S
H323 C335 0.950 . S
C324 H316 0.950 . S
C324 C325 1.386 . S
C324 C326 1.391 . S
C325 C324 1.386 . S
C325 C329 1.393 . S
C326 H318 0.950 . S
C326 C324 1.391 . S
C326 C327 1.400 . S
C327 C326 1.400 . S
C327 C328 1.398 . S
C327 C333 1.491 . S
C328 H319 0.950 . S
C328 C327 1.398 . S
C328 C329 1.391 . S
C329 H317 0.950 . S
C329 C325 1.393 . S
C329 C328 1.391 . S
C330 H320 0.950 . S
C330 C331 1.386 . S
C330 C332 1.391 . S
C331 C330 1.386 . S
C331 C335 1.393 . S
C332 H321 0.950 . S
C332 C330 1.391 . S
C332 C333 1.400 . S
C333 C327 1.491 . S
C333 C332 1.400 . S
C333 C334 1.398 . S
C334 H322 0.950 . S
C334 C333 1.398 . S
C334 C335 1.391 . S
C335 H323 0.950 . S
C335 C331 1.393 . S
C335 C334 1.391 . S
H336 C344 0.950 . S
H337 C349 0.950 . S
H338 C346 0.950 . S
H339 C348 0.950 . S
H340 C350 0.950 . S
H341 C352 0.950 . S
H342 C354 0.950 . S
H343 C355 0.950 . S
C344 H336 0.950 . S
C344 C345 1.386 . S
C344 C346 1.391 . S
C345 C344 1.386 . S
C345 C349 1.393 . S
C346 H338 0.950 . S
C346 C344 1.391 . S
C346 C347 1.400 . S
C347 C346 1.400 . S
C347 C348 1.398 . S
C347 C353 1.491 . S
C348 H339 0.950 . S
C348 C347 1.398 . S
C348 C349 1.391 . S
C349 H337 0.950 . S
C349 C345 1.393 . S
C349 C348 1.391 . S
C350 H340 0.950 . S
C350 C351 1.386 . S
C350 C352 1.391 . S
C351 C350 1.386 . S
C351 C355 1.393 . S
C352 H341 0.950 . S
C352 C350 1.391 . S
C352 C353 1.400 . S
C353 C347 1.491 . S
C353 C352 1.400 . S
C353 C354 1.398 . S
C354 H342 0.950 . S
C354 C353 1.398 . S
C354 C355 1.391 . S
C355 H343 0.950 . S
C355 C351 1.393 . S
C355 C354 1.391 . S
H356 C364 0.950 . S
H357 C369 0.950 . S
H358 C366 0.950 . S
H359 C368 0.950 . S
H360 C370 0.950 . S
H361 C372 0.950 . S
H362 C374 0.950 . S
H363 C375 0.950 . S
C364 H356 0.950 . S
C364 C365 1.386 . S
C364 C366 1.391 . S
C365 C364 1.386 . S
C365 C369 1.393 . S
C366 H358 0.950 . S
C366 C364 1.391 . S
C366 C367 1.400 . S
C367 C366 1.400 . S
C367 C368 1.398 . S
C367 C373 1.491 . S
C368 H359 0.950 . S
C368 C367 1.398 . S
C368 C369 1.391 . S
C369 H357 0.950 . S
C369 C365 1.393 . S
C369 C368 1.391 . S
C370 H360 0.950 . S
C370 C371 1.386 . S
C370 C372 1.391 . S
C371 C370 1.386 . S
C371 C375 1.393 . S
C372 H361 0.950 . S
C372 C370 1.391 . S
C372 C373 1.400 . S
C373 C367 1.491 . S
C373 C372 1.400 . S
C373 C374 1.398 . S
C374 H362 0.950 . S
C374 C373 1.398 . S
C374 C375 1.391 . S
C375 H363 0.950 . S
C375 C371 1.393 . S
C375 C374 1.391 . S
H376 C384 0.950 . S
H377 C389 0.950 . S
H378 C386 0.950 . S
H379 C388 0.950 . S
H380 C390 0.950 . S
H381 C392 0.950 . S
H382 C394 0.950 . S
H383 C395 0.950 . S
C384 H376 0.950 . S
C384 C385 1.386 . S
C384 C386 1.391 . S
C385 C384 1.386 . S
C385 C389 1.393 . S
C386 H378 0.950 . S
C386 C384 1.391 . S
C386 C387 1.400 . S
C387 C386 1.400 . S
C387 C388 1.398 . S
C387 C393 1.491 1_556 S
C388 H379 0.950 . S
C388 C387 1.398 . S
C388 C389 1.391 . S
C389 H377 0.950 . S
C389 C385 1.393 . S
C389 C388 1.391 . S
C390 H380 0.950 . S
C390 C391 1.386 . S
C390 C392 1.391 . S
C391 C390 1.386 . S
C391 C395 1.393 . S
C392 H381 0.950 . S
C392 C390 1.391 . S
C392 C393 1.400 . S
C393 C387 1.491 1_554 S
C393 C392 1.400 . S
C393 C394 1.398 . S
C394 H382 0.950 . S
C394 C393 1.398 . S
C394 C395 1.391 . S
C395 H383 0.950 . S
C395 C391 1.393 . S
C395 C394 1.391 . S
H396 C404 0.950 . S
H397 C409 0.950 . S
H398 C406 0.950 . S
H399 C408 0.950 . S
H400 C410 0.950 . S
H401 C412 0.950 . S
H402 C414 0.950 . S
H403 C415 0.950 . S
C404 H396 0.950 . S
C404 C405 1.386 . S
C404 C406 1.391 . S
C405 C404 1.386 . S
C405 C409 1.393 . S
C406 H398 0.950 . S
C406 C404 1.391 . S
C406 C407 1.400 . S
C407 C406 1.400 . S
C407 C408 1.398 . S
C407 C413 1.491 . S
C408 H399 0.950 . S
C408 C407 1.398 . S
C408 C409 1.391 . S
C409 H397 0.950 . S
C409 C405 1.393 . S
C409 C408 1.391 . S
C410 H400 0.950 . S
C410 C411 1.386 . S
C410 C412 1.391 . S
C411 C410 1.386 . S
C411 C415 1.393 . S
C412 H401 0.950 . S
C412 C410 1.391 . S
C412 C413 1.400 . S
C413 C407 1.491 . S
C413 C412 1.400 . S
C413 C414 1.398 . S
C414 H402 0.950 . S
C414 C413 1.398 . S
C414 C415 1.391 . S
C415 H403 0.950 . S
C415 C411 1.393 . S
C415 C414 1.391 . S
H416 C424 0.950 . S
H417 C429 0.950 . S
H418 C426 0.950 . S
H419 C428 0.937 1_554 S
H420 C430 0.950 . S
H421 C432 0.950 . S
H422 C434 0.950 . S
H423 C435 0.950 . S
C424 H416 0.950 . S
C424 C425 1.386 . S
C424 C426 1.391 . S
C425 C424 1.386 . S
C425 C429 1.393 . S
C426 H418 0.950 . S
C426 C424 1.391 . S
C426 C427 1.400 . S
C427 C426 1.400 . S
C427 C428 1.398 . S
C427 C433 1.491 1_556 S
C428 H419 0.937 1_556 S
C428 C427 1.398 . S
C428 C429 1.391 . S
C429 H417 0.950 . S
C429 C425 1.393 . S
C429 C428 1.391 . S
C430 H420 0.950 . S
C430 C431 1.386 . S
C430 C432 1.391 . S
C431 C430 1.386 . S
C431 C435 1.393 . S
C432 H421 0.950 . S
C432 C430 1.391 . S
C432 C433 1.400 . S
C433 C427 1.491 1_554 S
C433 C432 1.400 . S
C433 C434 1.398 . S
C434 H422 0.950 . S
C434 C433 1.398 . S
C434 C435 1.391 . S
C435 H423 0.950 . S
C435 C431 1.393 . S
C435 C434 1.391 . S
H436 C444 0.950 . S
H437 C449 0.950 . S
H438 C446 0.950 . S
H439 C448 0.950 . S
H440 C450 0.950 . S
H441 C452 0.950 . S
H442 C454 0.950 . S
H443 C455 0.950 . S
C444 H436 0.950 . S
C444 C445 1.386 . S
C444 C446 1.391 . S
C445 C444 1.386 . S
C445 C449 1.393 . S
C446 H438 0.950 . S
C446 C444 1.391 . S
C446 C447 1.400 . S
C447 C446 1.400 . S
C447 C448 1.398 . S
C447 C453 1.491 . S
C448 H439 0.950 . S
C448 C447 1.398 . S
C448 C449 1.391 . S
C449 H437 0.950 . S
C449 C445 1.393 . S
C449 C448 1.391 . S
C450 H440 0.950 . S
C450 C451 1.386 . S
C450 C452 1.391 . S
C451 C450 1.386 . S
C451 C455 1.393 . S
C452 H441 0.950 . S
C452 C450 1.391 . S
C452 C453 1.400 . S
C453 C447 1.491 . S
C453 C452 1.400 . S
C453 C454 1.398 . S
C454 H442 0.950 . S
C454 C453 1.398 . S
C454 C455 1.391 . S
C455 H443 0.950 . S
C455 C451 1.393 . S
C455 C454 1.391 . S
H456 C464 0.950 . S
H457 C469 0.950 . S
H458 C466 0.950 . S
H459 C468 0.950 . S
H460 C470 0.950 . S
H461 C472 0.950 . S
H462 C474 0.950 . S
H463 C475 0.950 . S
C464 H456 0.950 . S
C464 C465 1.386 . S
C464 C466 1.391 . S
C465 C464 1.386 . S
C465 C469 1.393 . S
C466 H458 0.950 . S
C466 C464 1.391 . S
C466 C467 1.400 . S
C467 C466 1.400 . S
C467 C468 1.398 . S
C467 C473 1.491 . S
C468 H459 0.950 . S
C468 C467 1.398 . S
C468 C469 1.391 . S
C469 H457 0.950 . S
C469 C465 1.393 . S
C469 C468 1.391 . S
C470 H460 0.950 . S
C470 C471 1.386 . S
C470 C472 1.391 . S
C471 C470 1.386 . S
C471 C475 1.393 . S
C472 H461 0.950 . S
C472 C470 1.391 . S
C472 C473 1.400 . S
C473 C467 1.491 . S
C473 C472 1.400 . S
C473 C474 1.398 . S
C474 H462 0.950 . S
C474 C473 1.398 . S
C474 C475 1.391 . S
C475 H463 0.950 . S
C475 C471 1.393 . S
C475 C474 1.391 . S
H476 C484 0.950 . S
H477 C489 0.950 . S
H478 C486 0.950 . S
H479 C488 0.950 . S
H480 C490 0.950 . S
H481 C492 0.950 . S
H482 C494 0.950 . S
H483 C495 0.950 . S
C484 H476 0.950 . S
C484 C485 1.386 . S
C484 C486 1.391 . S
C485 C484 1.386 . S
C485 C489 1.393 . S
C486 H478 0.950 . S
C486 C484 1.391 . S
C486 C487 1.400 . S
C487 C486 1.400 . S
C487 C488 1.398 . S
C487 C493 1.491 . S
C488 H479 0.950 . S
C488 C487 1.398 . S
C488 C489 1.391 . S
C489 H477 0.950 . S
C489 C485 1.393 . S
C489 C488 1.391 . S
C490 H480 0.950 . S
C490 C491 1.386 . S
C490 C492 1.391 . S
C491 C490 1.386 . S
C491 C495 1.393 . S
C492 H481 0.950 . S
C492 C490 1.391 . S
C492 C493 1.400 . S
C493 C487 1.491 . S
C493 C492 1.400 . S
C493 C494 1.398 . S
C494 H482 0.950 . S
C494 C493 1.398 . S
C494 C495 1.391 . S
C495 H483 0.950 . S
C495 C491 1.393 . S
C495 C494 1.391 . S
H496 C504 0.950 . S
H497 C509 0.950 . S
H498 C506 0.950 . S
H499 C508 0.950 . S
H500 C510 0.950 . S
H501 C512 0.950 . S
H502 C514 0.950 . S
H503 C515 0.950 . S
C504 H496 0.950 . S
C504 C505 1.386 . S
C504 C506 1.391 . S
C505 C504 1.386 . S
C505 C509 1.393 . S
C506 H498 0.950 . S
C506 C504 1.391 . S
C506 C507 1.400 . S
C507 C506 1.400 . S
C507 C508 1.398 . S
C507 C513 1.491 . S
C508 H499 0.950 . S
C508 C507 1.398 . S
C508 C509 1.391 . S
C509 H497 0.950 . S
C509 C505 1.393 . S
C509 C508 1.391 . S
C510 H500 0.950 . S
C510 C511 1.386 . S
C510 C512 1.391 . S
C511 C510 1.386 . S
C511 C515 1.393 . S
C512 H501 0.950 . S
C512 C510 1.391 . S
C512 C513 1.400 . S
C513 C507 1.491 . S
C513 C512 1.400 . S
C513 C514 1.398 . S
C514 H502 0.950 . S
C514 C513 1.398 . S
C514 C515 1.391 . S
C515 H503 0.950 . S
C515 C511 1.393 . S
C515 C514 1.391 . S
H516 C524 0.950 . S
H517 C529 0.950 . S
H518 C526 0.950 . S
H519 C528 0.950 . S
H520 C530 0.950 . S
H521 C532 0.950 . S
H522 C534 0.950 . S
H523 C535 0.950 . S
C524 H516 0.950 . S
C524 C525 1.386 . S
C524 C526 1.391 . S
C525 C524 1.386 . S
C525 C529 1.393 . S
C526 H518 0.950 . S
C526 C524 1.391 . S
C526 C527 1.400 . S
C527 C526 1.400 . S
C527 C528 1.398 . S
C527 C533 1.491 1_545 S
C528 H519 0.950 . S
C528 C527 1.398 . S
C528 C529 1.391 . S
C529 H517 0.950 . S
C529 C525 1.393 . S
C529 C528 1.391 . S
C530 H520 0.950 . S
C530 C531 1.386 . S
C530 C532 1.391 . S
C531 C530 1.386 . S
C531 C535 1.393 . S
C532 H521 0.950 . S
C532 C530 1.391 . S
C532 C533 1.400 . S
C533 C527 1.491 1_565 S
C533 C532 1.400 . S
C533 C534 1.398 . S
C534 H522 0.950 . S
C534 C533 1.398 . S
C534 C535 1.391 . S
C535 H523 0.950 . S
C535 C531 1.393 . S
C535 C534 1.391 . S
H536 C544 0.950 . S
H537 C549 0.950 . S
H538 C546 0.950 . S
H539 C548 0.950 . S
H540 C550 0.950 . S
H541 C552 0.950 . S
H542 C554 0.950 . S
H543 C555 0.950 . S
C544 H536 0.950 . S
C544 C545 1.386 . S
C544 C546 1.391 . S
C545 C544 1.386 . S
C545 C549 1.393 . S
C546 H538 0.950 . S
C546 C544 1.391 . S
C546 C547 1.400 . S
C547 C546 1.400 . S
C547 C548 1.398 . S
C547 C553 1.491 . S
C548 H539 0.950 . S
C548 C547 1.398 . S
C548 C549 1.391 . S
C549 H537 0.950 . S
C549 C545 1.393 . S
C549 C548 1.391 . S
C550 H540 0.950 . S
C550 C551 1.386 . S
C550 C552 1.391 . S
C551 C550 1.386 . S
C551 C555 1.393 . S
C552 H541 0.950 . S
C552 C550 1.391 . S
C552 C553 1.400 . S
C553 C547 1.491 . S
C553 C552 1.400 . S
C553 C554 1.398 . S
C554 H542 0.950 . S
C554 C553 1.398 . S
C554 C555 1.391 . S
C555 H543 0.950 . S
C555 C551 1.393 . S
C555 C554 1.391 . S
H556 C564 0.950 . S
H557 C569 0.950 . S
H558 C566 0.950 . S
H559 C568 0.950 . S
H560 C570 0.950 . S
H561 C572 0.950 . S
H562 C574 0.950 . S
H563 C575 0.950 . S
C564 H556 0.950 . S
C564 C565 1.386 . S
C564 C566 1.391 . S
C565 C564 1.386 . S
C565 C569 1.393 . S
C566 H558 0.950 . S
C566 C564 1.391 . S
C566 C567 1.400 . S
C567 C566 1.400 . S
C567 C568 1.398 . S
C567 C573 1.491 1_455 S
C568 H559 0.950 . S
C568 C567 1.398 . S
C568 C569 1.391 . S
C569 H557 0.950 . S
C569 C565 1.393 . S
C569 C568 1.391 . S
C570 H560 0.950 . S
C570 C571 1.386 . S
C570 C572 1.391 . S
C571 C570 1.386 . S
C571 C575 1.393 . S
C572 H561 0.950 . S
C572 C570 1.391 . S
C572 C573 1.400 . S
C573 C567 1.491 1_655 S
C573 C572 1.400 . S
C573 C574 1.398 . S
C574 H562 0.950 . S
C574 C573 1.398 . S
C574 C575 1.391 . S
C575 H563 0.950 . S
C575 C571 1.393 . S
C575 C574 1.391 . S
H576 C584 0.950 . S
H577 C589 0.950 . S
H578 C586 0.950 . S
H579 C588 0.950 . S
H580 C590 0.950 . S
H581 C592 0.950 . S
H582 C594 0.950 . S
H583 C595 0.950 . S
C584 H576 0.950 . S
C584 C585 1.386 . S
C584 C586 1.391 . S
C585 C584 1.386 . S
C585 C589 1.393 . S
C586 H578 0.950 . S
C586 C584 1.391 . S
C586 C587 1.400 . S
C587 C586 1.400 . S
C587 C588 1.398 . S
C587 C593 1.491 1_565 S
C588 H579 0.950 . S
C588 C587 1.398 . S
C588 C589 1.391 . S
C589 H577 0.950 . S
C589 C585 1.393 . S
C589 C588 1.391 . S
C590 H580 0.950 . S
C590 C591 1.386 . S
C590 C592 1.391 . S
C591 C590 1.386 . S
C591 C595 1.393 . S
C592 H581 0.950 . S
C592 C590 1.391 . S
C592 C593 1.400 . S
C593 C587 1.491 1_545 S
C593 C592 1.400 . S
C593 C594 1.398 . S
C594 H582 0.950 . S
C594 C593 1.398 . S
C594 C595 1.391 . S
C595 H583 0.950 . S
C595 C591 1.393 . S
C595 C594 1.391 . S
H596 C604 0.950 . S
H597 C609 0.950 . S
H598 C606 0.950 . S
H599 C608 0.950 . S
H600 C610 0.950 . S
H601 C612 0.950 . S
H602 C614 0.950 . S
H603 C615 0.950 . S
C604 H596 0.950 . S
C604 C605 1.386 . S
C604 C606 1.391 . S
C605 C604 1.386 . S
C605 C609 1.393 . S
C606 H598 0.950 . S
C606 C604 1.391 . S
C606 C607 1.400 . S
C607 C606 1.400 . S
C607 C608 1.398 . S
C607 C613 1.491 . S
C608 H599 0.950 . S
C608 C607 1.398 . S
C608 C609 1.391 . S
C609 H597 0.950 . S
C609 C605 1.393 . S
C609 C608 1.391 . S
C610 H600 0.950 . S
C610 C611 1.386 . S
C610 C612 1.391 . S
C611 C610 1.386 . S
C611 C615 1.393 . S
C612 H601 0.950 . S
C612 C610 1.391 . S
C612 C613 1.400 . S
C613 C607 1.491 . S
C613 C612 1.400 . S
C613 C614 1.398 . S
C614 H602 0.950 . S
C614 C613 1.398 . S
C614 C615 1.391 . S
C615 H603 0.950 . S
C615 C611 1.393 . S
C615 C614 1.391 . S
H616 C624 0.950 . S
H617 C629 0.950 . S
H618 C626 0.950 . S
H619 C628 0.950 . S
H620 C630 0.950 . S
H621 C632 0.950 . S
H622 C634 0.950 . S
H623 C635 0.950 . S
C624 H616 0.950 . S
C624 C625 1.386 . S
C624 C626 1.391 . S
C625 C624 1.386 . S
C625 C629 1.393 . S
C626 H618 0.950 . S
C626 C624 1.391 . S
C626 C627 1.400 . S
C627 C626 1.400 . S
C627 C628 1.398 . S
C627 C633 1.491 1_455 S
C628 H619 0.950 . S
C628 C627 1.398 . S
C628 C629 1.391 . S
C629 H617 0.950 . S
C629 C625 1.393 . S
C629 C628 1.391 . S
C630 H620 0.950 . S
C630 C631 1.386 . S
C630 C632 1.391 . S
C631 C630 1.386 . S
C631 C635 1.393 . S
C632 H621 0.950 . S
C632 C630 1.391 . S
C632 C633 1.400 . S
C633 C627 1.491 1_655 S
C633 C632 1.400 . S
C633 C634 1.398 . S
C634 H622 0.950 . S
C634 C633 1.398 . S
C634 C635 1.391 . S
C635 H623 0.950 . S
C635 C631 1.393 . S
C635 C634 1.391 . S
C165 C8 1.294 . S
C171 C138 1.271 . S
C185 C21 1.287 . S
C191 C151 1.281 . S
C205 C86 1.295 . S
C211 C34 1.270 . S
C225 C47 1.287 . S
C231 C99 1.277 . S
C245 C112 1.272 . S
C251 C60 1.295 . S
C265 C125 1.270 . S
C271 C73 1.295 . S
C285 C104 1.185 . S
C291 C0 1.180 . S
C305 C13 1.192 . S
C311 C117 1.189 . S
C325 C130 1.177 . S
C331 C26 1.189 . S
C345 C39 1.195 . S
C351 C143 1.174 . S
C365 C52 1.174 . S
C371 C78 1.197 . S
C385 C65 1.189 . S
C391 C91 1.191 . S
C405 C140 1.601 . S
C411 C10 1.606 1_556 S
C425 C153 1.594 . S
C431 C23 1.597 . S
C445 C88 1.592 1_554 S
C451 C36 1.592 . S
C465 C49 1.598 . S
C471 C101 1.603 . S
C485 C62 1.603 . S
C491 C114 1.598 . S
C505 C127 1.608 . S
C511 C75 1.610 . S
C525 C5 1.134 . S
C531 C96 1.153 . S
C545 C109 1.130 . S
C551 C18 1.140 . S
C565 C122 1.146 . S
C571 C31 1.142 . S
C585 C44 1.156 . S
C591 C135 1.130 . S
C605 C57 1.125 . S
C611 C148 1.145 . S
C625 C70 1.129 . S
C631 C83 1.156 . S
