# Generated by pormake.
# Topology wmi, (6)-cn, num edge types: 1
# Building blocks:
#     Node 0, Type 0, BuildingBlock: MAKGUD_clean_sbu_1, # of connection points: 6
#     Node 1, Type 0, BuildingBlock: MAKGUD_clean_sbu_1, # of connection points: 6
#     Node 2, Type 0, BuildingBlock: MAKGUD_clean_sbu_1, # of connection points: 6
#     Node 3, Type 0, BuildingBlock: MAKGUD_clean_sbu_1, # of connection points: 6
#     Node 4, Type 0, BuildingBlock: MAKGUD_clean_sbu_1, # of connection points: 6
#     Node 5, Type 0, BuildingBlock: MAKGUD_clean_sbu_1, # of connection points: 6
#     Node 6, Type 0, BuildingBlock: MAKGUD_clean_sbu_1, # of connection points: 6
#     Node 7, Type 0, BuildingBlock: MAKGUD_clean_sbu_1, # of connection points: 6
#     Node 8, Type 0, BuildingBlock: MAKGUD_clean_sbu_1, # of connection points: 6
#     Node 9, Type 0, BuildingBlock: MAKGUD_clean_sbu_1, # of connection points: 6
#     Node 10, Type 0, BuildingBlock: MAKGUD_clean_sbu_1, # of connection points: 6
#     Node 11, Type 0, BuildingBlock: MAKGUD_clean_sbu_1, # of connection points: 6
#     Node 12, Type 0, BuildingBlock: MAKGUD_clean_sbu_1, # of connection points: 6
#     Node 13, Type 0, BuildingBlock: MAKGUD_clean_sbu_1, # of connection points: 6
#     Node 14, Type 0, BuildingBlock: MAKGUD_clean_sbu_1, # of connection points: 6
#     Node 15, Type 0, BuildingBlock: MAKGUD_clean_sbu_1, # of connection points: 6
#     Node 16, Type 0, BuildingBlock: MAKGUD_clean_sbu_1, # of connection points: 6
#     Node 17, Type 0, BuildingBlock: MAKGUD_clean_sbu_1, # of connection points: 6
#     Edge 18, Type (0, 0), BuildingBlock: ZUJKAS_clean_linker_0, # of connection points: 2
#     Edge 19, Type (0, 0), BuildingBlock: ZUJKAS_clean_linker_0, # of connection points: 2
#     Edge 20, Type (0, 0), BuildingBlock: ZUJKAS_clean_linker_0, # of connection points: 2
#     Edge 21, Type (0, 0), BuildingBlock: ZUJKAS_clean_linker_0, # of connection points: 2
#     Edge 22, Type (0, 0), BuildingBlock: ZUJKAS_clean_linker_0, # of connection points: 2
#     Edge 23, Type (0, 0), BuildingBlock: ZUJKAS_clean_linker_0, # of connection points: 2
#     Edge 24, Type (0, 0), BuildingBlock: ZUJKAS_clean_linker_0, # of connection points: 2
#     Edge 25, Type (0, 0), BuildingBlock: ZUJKAS_clean_linker_0, # of connection points: 2
#     Edge 26, Type (0, 0), BuildingBlock: ZUJKAS_clean_linker_0, # of connection points: 2
#     Edge 27, Type (0, 0), BuildingBlock: ZUJKAS_clean_linker_0, # of connection points: 2
#     Edge 28, Type (0, 0), BuildingBlock: ZUJKAS_clean_linker_0, # of connection points: 2
#     Edge 29, Type (0, 0), BuildingBlock: ZUJKAS_clean_linker_0, # of connection points: 2
#     Edge 30, Type (0, 0), BuildingBlock: ZUJKAS_clean_linker_0, # of connection points: 2
#     Edge 31, Type (0, 0), BuildingBlock: ZUJKAS_clean_linker_0, # of connection points: 2
#     Edge 32, Type (0, 0), BuildingBlock: ZUJKAS_clean_linker_0, # of connection points: 2
#     Edge 33, Type (0, 0), BuildingBlock: ZUJKAS_clean_linker_0, # of connection points: 2
#     Edge 34, Type (0, 0), BuildingBlock: ZUJKAS_clean_linker_0, # of connection points: 2
#     Edge 35, Type (0, 0), BuildingBlock: ZUJKAS_clean_linker_0, # of connection points: 2
#     Edge 36, Type (0, 0), BuildingBlock: ZUJKAS_clean_linker_0, # of connection points: 2
#     Edge 37, Type (0, 0), BuildingBlock: ZUJKAS_clean_linker_0, # of connection points: 2
#     Edge 38, Type (0, 0), BuildingBlock: ZUJKAS_clean_linker_0, # of connection points: 2
#     Edge 39, Type (0, 0), BuildingBlock: ZUJKAS_clean_linker_0, # of connection points: 2
#     Edge 40, Type (0, 0), BuildingBlock: ZUJKAS_clean_linker_0, # of connection points: 2
#     Edge 41, Type (0, 0), BuildingBlock: ZUJKAS_clean_linker_0, # of connection points: 2
#     Edge 42, Type (0, 0), BuildingBlock: ZUJKAS_clean_linker_0, # of connection points: 2
#     Edge 43, Type (0, 0), BuildingBlock: ZUJKAS_clean_linker_0, # of connection points: 2
#     Edge 44, Type (0, 0), BuildingBlock: ZUJKAS_clean_linker_0, # of connection points: 2
#     Edge 45, Type (0, 0), BuildingBlock: ZUJKAS_clean_linker_0, # of connection points: 2
#     Edge 46, Type (0, 0), BuildingBlock: ZUJKAS_clean_linker_0, # of connection points: 2
#     Edge 47, Type (0, 0), BuildingBlock: ZUJKAS_clean_linker_0, # of connection points: 2
#     Edge 48, Type (0, 0), BuildingBlock: ZUJKAS_clean_linker_0, # of connection points: 2
#     Edge 49, Type (0, 0), BuildingBlock: ZUJKAS_clean_linker_0, # of connection points: 2
#     Edge 50, Type (0, 0), BuildingBlock: ZUJKAS_clean_linker_0, # of connection points: 2
#     Edge 51, Type (0, 0), BuildingBlock: ZUJKAS_clean_linker_0, # of connection points: 2
#     Edge 52, Type (0, 0), BuildingBlock: ZUJKAS_clean_linker_0, # of connection points: 2
#     Edge 53, Type (0, 0), BuildingBlock: ZUJKAS_clean_linker_0, # of connection points: 2
#     Edge 54, Type (0, 0), BuildingBlock: ZUJKAS_clean_linker_0, # of connection points: 2
#     Edge 55, Type (0, 0), BuildingBlock: ZUJKAS_clean_linker_0, # of connection points: 2
#     Edge 56, Type (0, 0), BuildingBlock: ZUJKAS_clean_linker_0, # of connection points: 2
#     Edge 57, Type (0, 0), BuildingBlock: ZUJKAS_clean_linker_0, # of connection points: 2
#     Edge 58, Type (0, 0), BuildingBlock: ZUJKAS_clean_linker_0, # of connection points: 2
#     Edge 59, Type (0, 0), BuildingBlock: ZUJKAS_clean_linker_0, # of connection points: 2
#     Edge 60, Type (0, 0), BuildingBlock: ZUJKAS_clean_linker_0, # of connection points: 2
#     Edge 61, Type (0, 0), BuildingBlock: ZUJKAS_clean_linker_0, # of connection points: 2
#     Edge 62, Type (0, 0), BuildingBlock: ZUJKAS_clean_linker_0, # of connection points: 2
#     Edge 63, Type (0, 0), BuildingBlock: ZUJKAS_clean_linker_0, # of connection points: 2
#     Edge 64, Type (0, 0), BuildingBlock: ZUJKAS_clean_linker_0, # of connection points: 2
#     Edge 65, Type (0, 0), BuildingBlock: ZUJKAS_clean_linker_0, # of connection points: 2
#     Edge 66, Type (0, 0), BuildingBlock: ZUJKAS_clean_linker_0, # of connection points: 2
#     Edge 67, Type (0, 0), BuildingBlock: ZUJKAS_clean_linker_0, # of connection points: 2
#     Edge 68, Type (0, 0), BuildingBlock: ZUJKAS_clean_linker_0, # of connection points: 2
#     Edge 69, Type (0, 0), BuildingBlock: ZUJKAS_clean_linker_0, # of connection points: 2
#     Edge 70, Type (0, 0), BuildingBlock: ZUJKAS_clean_linker_0, # of connection points: 2
#     Edge 71, Type (0, 0), BuildingBlock: ZUJKAS_clean_linker_0, # of connection points: 2
# Relax obj value: 0.144
# Max RMSD: 0.266
# Mean RMSD: 0.266
data_MOF--net-wmi--node1-MAKGUD_clean_sbu_1--edge1-ZUJKAS_clean_linker_0
_symmetry_space_group_name_H-M    P1
_symmetry_Int_Tables_number       1
_symmetry_cell_setting            triclinic
loop_
_symmetry_equiv_pos_as_xyz
'x, y, z'
_cell_length_a     45.490136
_cell_length_b     45.509982
_cell_length_c     101.77489
_cell_angle_alpha  90.146228
_cell_angle_beta   89.882426
_cell_angle_gamma 120.24573
loop_
_atom_site_label
_atom_site_type_symbol
_atom_site_fract_x
_atom_site_fract_y
_atom_site_fract_z
_atom_type_partial_charge
O0 O 0.55 0.16843 0.10223 0.0
Tb1 Tb 0.56031 0.13051 0.09368 0.0
C2 C 0.53736 0.06678 0.07523 0.0
O3 O 0.542 0.06107 0.10531 0.0
Tb4 Tb 0.51539 1.01063 0.09655 0.0
C5 C 0.44816 0.97012 0.09822 0.0
O6 O 0.54132 0.10694 0.11282 0.0
O7 O 0.54082 0.9809 0.09798 0.0
C8 C 0.52955 0.9549 0.10609 0.0
O9 O 0.50444 0.94883 0.1141 0.0
O10 O 0.52741 0.08154 0.08394 0.0
O11 O 0.53046 1.03523 0.07737 0.0
O12 O 0.61501 0.1508 0.09279 0.0
C13 C 0.53166 0.0746 0.1143 0.0
C14 C 0.54753 0.18152 0.09124 0.0
O15 O 0.46862 0.98365 0.1082 0.0
O16 O 0.46556 0.98051 0.08735 0.0
C17 C 0.63186 0.16588 0.08201 0.0
O18 O 0.61458 0.16473 0.0715 0.0
O19 O 0.55143 0.16518 0.08145 0.0
O20 O 0.97195 0.4722 0.10568 0.0
Tb21 Tb 1.02557 0.50843 0.10207 0.0
C22 C 0.0757 0.53094 0.07777 0.0
O23 O 0.09652 0.55478 0.1179 0.0
Tb24 Tb 0.12804 0.56096 0.10105 0.0
C25 C 0.18153 0.55336 0.1058 0.0
O26 O 1.0522 0.50082 0.11832 0.0
O27 O 0.14844 0.61535 0.09846 0.0
C28 C 0.16504 0.6356 0.10838 0.0
O29 O 0.16574 0.62173 0.11959 0.0
O30 O 1.05238 0.53461 0.08408 0.0
O31 O 0.10151 0.5313 0.08376 0.0
O32 O 1.00619 0.54262 0.10621 0.0
C33 C 0.08044 0.52499 0.12359 0.0
C34 C 0.9689 0.44918 0.09735 0.0
O35 O 0.15111 0.53403 0.11056 0.0
O36 O 0.18156 0.57668 0.09847 0.0
C37 C 0.9921 0.54992 0.09639 0.0
O38 O 0.99384 0.53924 0.08457 0.0
O39 O 0.99812 0.45943 0.09158 0.0
O40 O 0.68047 0.58507 0.10718 0.0
Tb41 Tb 0.64349 0.59294 0.09635 0.0
C42 C 0.60684 0.60164 0.07202 0.0
O43 O 0.58963 0.60083 0.11658 0.0
Tb44 Tb 0.57027 0.60563 0.09766 0.0
C45 C 0.5759 0.66693 0.09587 0.0
O46 O 0.64585 0.62855 0.11113 0.0
O47 O 0.51627 0.57088 0.10102 0.0
C48 C 0.5024 0.57151 0.11231 0.0
O49 O 0.52236 0.59003 0.12194 0.0
O50 O 0.63641 0.61192 0.07776 0.0
O51 O 0.57801 0.58813 0.07866 0.0
O52 O 0.60537 0.53891 0.09641 0.0
C53 C 0.6216 0.62159 0.1197 0.0
C54 C 0.70318 0.59491 0.09793 0.0
O55 O 0.54773 0.63789 0.09598 0.0
O56 O 0.60148 0.6616 0.09658 0.0
C57 C 0.60419 0.52083 0.08607 0.0
O58 O 0.62248 0.5371 0.07573 0.0
O59 O 0.69233 0.60381 0.08772 0.0
O60 O 0.17949 0.542 0.90318 0.0
Tb61 Tb 0.13669 0.54262 0.91286 0.0
C62 C 0.08964 0.5344 0.93665 0.0
O63 O 0.07275 0.53249 0.89405 0.0
Tb64 Tb 1.04523 0.5258 0.91223 0.0
C65 C 0.99364 0.46184 0.91537 0.0
O66 O 0.10297 0.50611 0.89829 0.0
O67 O 1.02196 0.55553 0.90655 0.0
C68 C 0.99574 0.54186 0.89851 0.0
O69 O 0.98671 0.51214 0.8932 0.0
O70 O 0.10768 0.52262 0.93095 0.0
O71 O 0.07542 0.54849 0.92984 0.0
O72 O 0.15483 0.59698 0.91115 0.0
C73 C 0.08154 0.51 0.89086 0.0
C74 C 0.19342 0.53868 0.91378 0.0
O75 O 1.02343 0.47029 0.91055 0.0
O76 O 0.99353 0.48933 0.91875 0.0
C77 C 0.17102 0.61657 0.92131 0.0
O78 O 0.17067 0.60181 0.93243 0.0
O79 O 0.17511 0.53712 0.92386 0.0
O80 O 0.62138 0.70104 0.90701 0.0
Tb81 Tb 0.61148 0.65175 0.91416 0.0
C82 C 0.63005 0.60669 0.93194 0.0
O83 O 0.63014 0.60283 0.90116 0.0
Tb84 Tb 0.65209 0.57447 0.90957 0.0
C85 C 0.71871 0.59782 0.90874 0.0
O86 O 0.63611 0.65303 0.89562 0.0
O87 O 0.62369 0.51997 0.9055 0.0
C88 C 0.6364 0.50595 0.89772 0.0
O89 O 0.66495 0.52574 0.89145 0.0
O90 O 0.64202 0.63341 0.92411 0.0
O91 O 0.63576 0.58163 0.92894 0.0
O92 O 0.557 0.6163 0.91307 0.0
C93 C 0.64456 0.62974 0.89353 0.0
C94 C 0.62269 0.7145 0.91843 0.0
O95 O 0.70067 0.59881 0.899 0.0
O96 O 0.6993 0.5845 0.91898 0.0
C97 C 0.53783 0.6116 0.92346 0.0
O98 O 0.55268 0.62564 0.93465 0.0
O99 O 0.6184 0.6927 0.92763 0.0
O100 O 0.47459 0.97257 0.90488 0.0
Tb101 Tb 0.51565 1.01826 0.91426 0.0
C102 C 0.55237 0.07771 0.936 0.0
O103 O 0.56782 0.07782 0.89613 0.0
Tb104 Tb 0.59168 0.11901 0.90998 0.0
C105 C 0.57643 0.1676 0.90532 0.0
O106 O 0.51097 0.04614 0.89798 0.0
O107 O 0.64711 0.14546 0.91166 0.0
C108 C 0.66696 0.15894 0.90134 0.0
O109 O 0.6531 0.15264 0.8896 0.0
O110 O 0.52386 0.05332 0.93057 0.0
O111 O 0.58146 0.09704 0.92971 0.0
O112 O 0.55512 1.00454 0.91428 0.0
C113 C 0.53761 0.06997 0.89184 0.0
C114 C 0.45627 0.95912 0.91533 0.0
O115 O 0.59723 0.16195 0.89849 0.0
O116 O 0.56361 0.14539 0.91481 0.0
C117 C 0.55995 0.99217 0.92523 0.0
O118 O 0.54459 0.99368 0.93595 0.0
O119 O 0.47129 0.97924 0.92528 0.0
O120 O 0.18877 0.47364 0.43338 0.0
Tb121 Tb 0.20235 0.43849 0.42417 0.0
C122 C 0.18326 0.37853 0.40467 0.0
O123 O 0.14688 0.36643 0.43257 0.0
Tb124 Tb 0.1366 0.31897 0.42352 0.0
C125 C 0.07252 0.27952 0.41564 0.0
O126 O 0.18682 0.41226 0.44314 0.0
O127 O 0.1547 0.28733 0.43241 0.0
C128 C 0.13265 0.2579 0.43771 0.0
O129 O 0.10096 0.25055 0.43915 0.0
O130 O 0.17126 0.39525 0.41123 0.0
O131 O 0.17074 0.34579 0.40712 0.0
O132 O 0.25707 0.45901 0.4235 0.0
C133 C 0.16338 0.37979 0.44353 0.0
C134 C 0.19004 0.49005 0.42275 0.0
O135 O 0.08178 0.29419 0.42708 0.0
O136 O 0.09943 0.28782 0.40855 0.0
C137 C 0.27489 0.47653 0.41325 0.0
O138 O 0.25871 0.47839 0.40289 0.0
O139 O 0.19747 0.47682 0.41283 0.0
O140 O 0.61785 0.77403 0.44163 0.0
Tb141 Tb 0.66733 0.81406 0.4346 0.0
C142 C 0.72024 0.83902 0.41118 0.0
O143 O 0.74785 0.86577 0.44273 0.0
Tb144 Tb 0.7848 0.87465 0.42748 0.0
C145 C 0.83857 0.86723 0.43167 0.0
O146 O 0.70263 0.81591 0.44964 0.0
O147 O 0.80076 0.92342 0.41839 0.0
C148 C 0.8038 0.94851 0.42578 0.0
O149 O 0.79452 0.94231 0.43817 0.0
O150 O 0.6901 0.83293 0.41528 0.0
O151 O 0.73959 0.83262 0.41883 0.0
O152 O 0.6445 0.84612 0.437 0.0
C153 C 0.73536 0.83866 0.45023 0.0
C154 C 0.61368 0.75122 0.43298 0.0
O155 O 0.82618 0.87996 0.44006 0.0
O156 O 0.81978 0.85755 0.42108 0.0
C157 C 0.62577 0.84669 0.42722 0.0
O158 O 0.62502 0.83102 0.41625 0.0
O159 O 0.64017 0.76362 0.42529 0.0
O160 O 0.32514 0.90207 0.446 0.0
Tb161 Tb 0.27999 0.89791 0.43632 0.0
C162 C 0.2473 0.91746 0.4136 0.0
O163 O 0.26468 0.95921 0.44474 0.0
Tb164 Tb 0.21274 0.93062 0.43758 0.0
C165 C 0.18761 0.9726 0.4383 0.0
O166 O 0.27575 0.92079 0.4546 0.0
O167 O 0.18171 0.88304 0.44794 0.0
C168 C 0.15002 0.87058 0.45195 0.0
O169 O 0.13659 0.84314 0.45929 0.0
O170 O 0.27442 0.92879 0.42118 0.0
O171 O 0.21848 0.9137 0.41825 0.0
O172 O 0.24336 0.84367 0.43498 0.0
C173 C 0.27382 0.94871 0.45514 0.0
C174 C 0.3418 0.90358 0.4354 0.0
O175 O 0.19631 0.96143 0.44845 0.0
O176 O 0.1924 0.95949 0.42768 0.0
C177 C 0.24139 0.82781 0.42388 0.0
O178 O 0.25786 0.84616 0.41359 0.0
O179 O 0.32385 0.90251 0.42529 0.0
O180 O 0.87258 0.90539 0.24698 0.0
Tb181 Tb 0.81797 0.88608 0.24806 0.0
C182 C 0.76304 0.85985 0.27172 0.0
O183 O 0.74387 0.85693 0.23827 0.0
Tb184 Tb 0.70459 0.82254 0.25155 0.0
C185 C 0.66645 0.75622 0.24691 0.0
O186 O 0.79043 0.8574 0.23074 0.0
O187 O 0.66991 0.84151 0.25543 0.0
C188 C 0.64907 0.83827 0.24583 0.0
O189 O 0.65262 0.82662 0.23448 0.0
O190 O 0.7912 0.88439 0.26627 0.0
O191 O 0.7438 0.83053 0.26577 0.0
O192 O 0.83863 0.93998 0.24402 0.0
C193 C 0.75783 0.84633 0.22962 0.0
C194 C 0.87218 0.879 0.252 0.0
O195 O 0.67942 0.77967 0.23789 0.0
O196 O 0.67573 0.77023 0.25846 0.0
C197 C 0.84885 0.96147 0.25397 0.0
O198 O 0.84338 0.94933 0.26597 0.0
O199 O 0.84091 0.8562 0.25492 0.0
O200 O 0.24799 0.97844 0.24091 0.0
Tb201 Tb 0.27042 0.94768 0.24696 0.0
C202 C 0.28311 0.91568 0.27267 0.0
O203 O 0.33338 0.93503 0.23982 0.0
Tb204 Tb 0.30283 0.88523 0.24858 0.0
C205 C 0.34503 0.86075 0.25133 0.0
O206 O 0.29277 0.94071 0.22911 0.0
O207 O 0.25592 0.85395 0.23771 0.0
C208 C 0.24304 0.82263 0.23313 0.0
O209 O 0.21552 0.8106 0.22586 0.0
O210 O 0.28992 0.94355 0.26614 0.0
O211 O 0.28008 0.88814 0.26699 0.0
O212 O 0.21685 0.91027 0.24977 0.0
C213 C 0.32252 0.9425 0.22912 0.0
C214 C 0.27228 1.00765 0.24508 0.0
O215 O 0.32962 0.86041 0.24052 0.0
O216 O 0.33569 0.87386 0.26068 0.0
C217 C 0.20127 0.91507 0.25976 0.0
O218 O 0.21989 0.93902 0.26829 0.0
O219 O 0.29587 1.00317 0.25028 0.0
O220 O 0.16357 0.29701 0.23651 0.0
Tb221 Tb 0.20336 0.34681 0.2432 0.0
C222 C 0.22974 0.4002 0.26675 0.0
O223 O 0.2483 0.42605 0.22992 0.0
Tb224 Tb 0.25834 0.45872 0.24686 0.0
C225 C 0.25195 0.51406 0.24599 0.0
O226 O 0.19695 0.3773 0.22811 0.0
O227 O 0.31216 0.47646 0.24928 0.0
C228 C 0.33091 0.48445 0.23857 0.0
O229 O 0.31576 0.47914 0.22712 0.0
O230 O 0.22645 0.37171 0.2619 0.0
O231 O 0.22139 0.41913 0.25972 0.0
O232 O 0.23454 0.32323 0.2399 0.0
C233 C 0.21782 0.40917 0.22476 0.0
C234 C 0.14148 0.29213 0.24557 0.0
O235 O 0.24814 0.4944 0.236 0.0
O236 O 0.25842 0.50188 0.25646 0.0
C237 C 0.23607 0.30496 0.24967 0.0
O238 O 0.22239 0.3057 0.26096 0.0
O239 O 0.15426 0.31821 0.25351 0.0
O240 O 0.92025 0.8305 0.76265 0.0
Tb241 Tb 0.90168 0.77723 0.75777 0.0
C242 C 0.87276 0.73724 0.73066 0.0
O243 O 0.82759 0.72007 0.76648 0.0
Tb244 Tb 0.82994 0.68575 0.75244 0.0
C245 C 0.76794 0.63072 0.75169 0.0
O246 O 0.87968 0.7478 0.77573 0.0
O247 O 0.86595 0.66785 0.75545 0.0
C248 C 0.86067 0.64654 0.76514 0.0
O249 O 0.83721 0.64116 0.77389 0.0
O250 O 0.8993 0.75398 0.73852 0.0
O251 O 0.84175 0.71732 0.73514 0.0
O252 O 0.95641 0.79821 0.75893 0.0
C253 C 0.84656 0.72842 0.77699 0.0
C254 C 0.89599 0.83319 0.75714 0.0
O255 O 0.78338 0.64786 0.76216 0.0
O256 O 0.78736 0.64476 0.7415 0.0
C257 C 0.97511 0.81564 0.74882 0.0
O258 O 0.95967 0.81746 0.73822 0.0
O259 O 0.87423 0.80383 0.75194 0.0
O260 O 0.30378 0.13021 0.77262 0.0
Tb261 Tb 0.35661 0.16844 0.76878 0.0
C262 C 0.40313 0.18559 0.74379 0.0
O263 O 0.42884 0.21833 0.78315 0.0
Tb264 Tb 0.45705 0.21916 0.76593 0.0
C265 C 0.51265 0.21585 0.77133 0.0
O266 O 0.38447 0.16501 0.78556 0.0
O267 O 0.47489 0.27149 0.76033 0.0
C268 C 0.48854 0.29518 0.76944 0.0
O269 O 0.48759 0.28577 0.7817 0.0
O270 O 0.38176 0.19198 0.75021 0.0
O271 O 0.42885 0.18564 0.74971 0.0
O272 O 0.33485 0.2012 0.77138 0.0
C273 C 0.41326 0.19026 0.78998 0.0
C274 C 0.30276 0.1067 0.76506 0.0
O275 O 0.4824 0.19519 0.77599 0.0
O276 O 0.51127 0.2379 0.76369 0.0
C277 C 0.31838 0.20388 0.76124 0.0
O278 O 0.31855 0.18895 0.75019 0.0
O279 O 0.33234 0.11792 0.75948 0.0
O280 O 1.01598 0.25322 0.77347 0.0
Tb281 Tb 0.96878 0.24143 0.76345 0.0
C282 C 0.93138 0.26623 0.74425 0.0
O283 O 0.95398 0.29866 0.77312 0.0
Tb284 Tb 0.91396 0.306 0.76511 0.0
C285 C 0.92767 0.37007 0.76147 0.0
O286 O 0.9582 0.25628 0.78262 0.0
O287 O 0.86429 0.27638 0.77438 0.0
C288 C 0.85038 0.29216 0.78031 0.0
O289 O 0.86841 0.32536 0.78164 0.0
O290 O 0.95863 0.27556 0.75154 0.0
O291 O 0.91137 0.27882 0.74698 0.0
O292 O 0.93696 0.18604 0.76156 0.0
C293 C 0.95075 0.28072 0.78366 0.0
C294 C 1.03356 0.25609 0.76298 0.0
O295 O 0.93654 0.35915 0.77169 0.0
O296 O 0.91217 0.34511 0.75314 0.0
C297 C 0.94 0.17028 0.75119 0.0
O298 O 0.95852 0.18872 0.74125 0.0
O299 O 1.01482 0.25148 0.75265 0.0
O300 O 0.54482 0.23252 0.57549 0.0
Tb301 Tb 0.49318 0.21847 0.58132 0.0
C302 C 0.43806 0.18965 0.604 0.0
O303 O 0.41626 0.19322 0.57039 0.0
Tb304 Tb 0.37817 0.16535 0.58527 0.0
C305 C 0.32394 0.10498 0.5798 0.0
O306 O 0.4607 0.18556 0.56552 0.0
O307 O 0.36185 0.19901 0.59324 0.0
C308 C 0.35673 0.21822 0.58503 0.0
O309 O 0.36417 0.21799 0.57256 0.0
O310 O 0.4687 0.2138 0.60034 0.0
O311 O 0.41897 0.16456 0.59595 0.0
O312 O 0.51352 0.27302 0.57885 0.0
C313 C 0.42911 0.17808 0.56341 0.0
C314 C 0.54845 0.21255 0.58358 0.0
O315 O 0.33981 0.12982 0.57145 0.0
O316 O 0.33935 0.1139 0.59114 0.0
C317 C 0.53141 0.29315 0.58863 0.0
O318 O 0.53284 0.27902 0.59967 0.0
O319 O 0.52057 0.19535 0.59037 0.0
O320 O 0.97248 0.35962 0.57719 0.0
Tb321 Tb 0.95791 0.31103 0.58668 0.0
C322 C 0.97904 0.27238 0.60625 0.0
O323 O 1.01572 0.29901 0.57776 0.0
Tb324 Tb 1.02443 0.26078 0.58656 0.0
C325 C 0.08901 0.28204 0.59256 0.0
O326 O 0.97256 0.29994 0.5676 0.0
O327 O 1.00075 0.20944 0.57863 0.0
C328 C 1.01523 0.20109 0.56928 0.0
O329 O 1.04201 0.22515 0.56319 0.0
O330 O 0.9901 0.30107 0.59975 0.0
O331 O 0.99207 0.25288 0.60354 0.0
O332 O 0.90331 0.27616 0.58774 0.0
C333 C 0.99815 0.29423 0.56698 0.0
C334 C 0.96951 0.37474 0.58754 0.0
O335 O 0.0776 0.282 0.58086 0.0
O336 O 0.06404 0.27063 0.60097 0.0
C337 C 0.88649 0.27395 0.59858 0.0
O338 O 0.90369 0.29031 0.6091 0.0
O339 O 0.96069 0.35414 0.59752 0.0
O340 O 0.82323 0.64905 0.56341 0.0
Tb341 Tb 0.8728 0.68786 0.57112 0.0
C342 C 0.9148 0.74776 0.59029 0.0
O343 O 0.89494 0.76175 0.55991 0.0
Tb344 Tb 0.94674 0.79638 0.56627 0.0
C345 C 0.95952 0.86043 0.56643 0.0
O346 O 0.87753 0.70932 0.55156 0.0
O347 O 0.97698 0.78608 0.55243 0.0
C348 C 1.01032 0.80281 0.55091 0.0
O349 O 1.02349 0.79074 0.54247 0.0
O350 O 0.88701 0.7331 0.58304 0.0
O351 O 0.94251 0.77471 0.58575 0.0
O352 O 0.90707 0.66767 0.57236 0.0
C353 C 0.88834 0.74182 0.54964 0.0
C354 C 0.80931 0.63567 0.57463 0.0
O355 O 0.93468 0.8351 0.56028 0.0
O356 O 0.9773 0.8497 0.57268 0.0
C357 C 0.90983 0.65484 0.58356 0.0
O358 O 0.89488 0.65828 0.59403 0.0
O359 O 0.83094 0.65235 0.58397 0.0
H360 H 0.57629 0.95508 0.08884 0.0
H361 H 0.5929 0.91175 0.08649 0.0
H362 H 0.52789 0.85609 0.11902 0.0
H363 H 0.51152 0.89932 0.12156 0.0
H364 H 0.5909 0.85882 0.11958 0.0
H365 H 0.52882 0.81753 0.07069 0.0
H366 H 0.5603 0.86184 0.07211 0.0
H367 H 0.52158 0.84484 0.08144 0.0
C368 C 0.56578 0.9338 0.09558 0.0
C369 C 0.54234 0.9306 0.10533 0.0
C370 C 0.57516 0.90893 0.09417 0.0
C371 C 0.56122 0.88034 0.10244 0.0
C372 C 0.5389 0.87783 0.11249 0.0
H373 H 0.52282 0.67788 0.09406 0.0
H374 H 0.52365 0.73185 0.09518 0.0
C375 C 0.5295 0.9026 0.11391 0.0
C376 C 0.56858 0.85223 0.1004 0.0
H377 H 0.55536 0.78859 0.07905 0.0
C378 C 0.58347 0.84365 0.11067 0.0
C379 C 0.55854 0.83223 0.08881 0.0
C380 C 0.54117 0.83927 0.07765 0.0
C381 C 0.58801 0.8153 0.10977 0.0
C382 C 0.57773 0.79517 0.09822 0.0
C383 C 0.5635 0.80419 0.08785 0.0
C384 C 0.57831 0.76279 0.09717 0.0
C385 C 0.60237 0.80624 0.1214 0.0
C386 C 0.60887 0.76212 0.09774 0.0
C387 C 0.60846 0.73105 0.0971 0.0
C388 C 0.57749 0.70026 0.09584 0.0
C389 C 0.54711 0.70116 0.09503 0.0
C390 C 0.54754 0.73204 0.09566 0.0
H391 H 0.60301 0.82046 0.13039 0.0
H392 H 0.58713 0.77856 0.12349 0.0
H393 H 0.62878 0.81253 0.11915 0.0
H394 H 0.633 0.78556 0.0987 0.0
H395 H 0.63225 0.73109 0.09773 0.0
H396 H 0.40366 0.93944 0.07804 0.0
H397 H 0.34854 0.88664 0.07887 0.0
H398 H 0.35825 0.88267 0.12089 0.0
H399 H 0.41324 0.93562 0.12007 0.0
H400 H 0.34091 0.82627 0.08701 0.0
H401 H 0.25941 0.85774 0.11743 0.0
H402 H 0.29862 0.89 0.11006 0.0
H403 H 0.29942 0.86948 0.12503 0.0
C404 C 0.3936 0.92776 0.08749 0.0
C405 C 0.41259 0.94174 0.09902 0.0
C406 C 0.36214 0.89753 0.08795 0.0
C407 C 0.34899 0.88077 0.09995 0.0
C408 C 0.36739 0.89546 0.11155 0.0
H409 H 0.2015 0.68285 0.12717 0.0
H410 H 0.24304 0.74295 0.1241 0.0
C411 C 0.39885 0.92573 0.11109 0.0
C412 C 0.3181 0.84628 0.10015 0.0
H413 H 0.24004 0.79846 0.11449 0.0
C414 C 0.31863 0.82029 0.09286 0.0
C415 C 0.2891 0.83843 0.10783 0.0
C416 C 0.28637 0.86545 0.11544 0.0
C417 C 0.29163 0.7865 0.09344 0.0
C418 C 0.26289 0.77848 0.10134 0.0
C419 C 0.262 0.8046 0.1084 0.0
C420 C 0.23485 0.74276 0.10317 0.0
C421 C 0.29489 0.75943 0.08608 0.0
C422 C 0.2155 0.72276 0.09248 0.0
C423 C 0.19167 0.68813 0.09419 0.0
C424 C 0.18665 0.67297 0.10665 0.0
C425 C 0.20482 0.69357 0.11742 0.0
C426 C 0.22859 0.72804 0.1157 0.0
H427 H 0.32149 0.76856 0.08289 0.0
H428 H 0.28629 0.73643 0.09225 0.0
H429 H 0.27865 0.75196 0.07718 0.0
H430 H 0.2194 0.73374 0.08276 0.0
H431 H 0.178 0.67306 0.0857 0.0
H432 H 0.24381 0.59106 0.09486 0.0
H433 H 0.29408 0.58575 0.09798 0.0
H434 H 0.23817 0.5026 0.12487 0.0
H435 H 0.18721 0.50757 0.12162 0.0
H436 H 0.32862 0.59267 0.12104 0.0
H437 H 0.28079 0.46439 0.09913 0.0
H438 H 0.25973 0.4886 0.09666 0.0
H439 H 0.25523 0.46733 0.112 0.0
C440 C 0.24212 0.57153 0.10141 0.0
C441 C 0.21159 0.54963 0.10796 0.0
C442 C 0.27089 0.56853 0.10318 0.0
C443 C 0.26984 0.54355 0.11154 0.0
C444 C 0.2394 0.52166 0.11819 0.0
H445 H 0.46528 0.56459 0.13443 0.0
H446 H 0.40651 0.55251 0.13555 0.0
C447 C 0.2104 0.52463 0.11638 0.0
C448 C 0.30123 0.54163 0.11342 0.0
H449 H 0.33699 0.49248 0.10729 0.0
C450 C 0.33038 0.57063 0.11816 0.0
C451 C 0.30352 0.51298 0.10952 0.0
C452 C 0.27329 0.48158 0.10394 0.0
C453 C 0.36193 0.57216 0.11882 0.0
C454 C 0.36432 0.54354 0.11491 0.0
C455 C 0.33503 0.51425 0.11039 0.0
C456 C 0.39758 0.54473 0.11463 0.0
C457 C 0.39273 0.60503 0.12313 0.0
C458 C 0.41139 0.54225 0.1026 0.0
C459 C 0.44488 0.54871 0.10194 0.0
C460 C 0.4652 0.55791 0.11331 0.0
C461 C 0.45046 0.55797 0.12547 0.0
C462 C 0.41691 0.55123 0.12612 0.0
H463 H 0.38802 0.62672 0.12287 0.0
H464 H 0.39928 0.60231 0.13338 0.0
H465 H 0.41502 0.61127 0.1168 0.0
H466 H 0.39686 0.53707 0.09361 0.0
H467 H 0.45539 0.54837 0.09242 0.0
H468 H 0.92982 0.50946 0.89044 0.0
H469 H 0.89057 0.53096 0.89051 0.0
H470 H 0.97128 0.62924 0.9033 0.0
H471 H 1.01049 0.60705 0.90396 0.0
H472 H 0.91884 0.61391 0.91705 0.0
H473 H 0.87349 0.58717 0.86601 0.0
H474 H 0.8668 0.54854 0.8733 0.0
H475 H 0.90955 0.58399 0.87137 0.0
C476 C 0.93946 0.53585 0.89306 0.0
C477 C 0.97336 0.55662 0.89713 0.0
C478 C 0.91695 0.54825 0.89298 0.0
C479 C 0.92798 0.58207 0.89658 0.0
C480 C 0.96211 0.60314 0.90039 0.0
H481 H 0.76478 0.63167 0.8893 0.0
H482 H 0.8205 0.63609 0.88621 0.0
C483 C 0.98455 0.59048 0.90073 0.0
C484 C 0.90302 0.59414 0.89745 0.0
H485 H 0.8342 0.58908 0.88187 0.0
C486 C 0.90079 0.60909 0.90923 0.0
C487 C 0.87988 0.58893 0.88717 0.0
C488 C 0.88287 0.57666 0.87372 0.0
C489 C 0.87484 0.61675 0.91133 0.0
C490 C 0.84947 0.60794 0.90161 0.0
C491 C 0.85307 0.5952 0.88949 0.0
C492 C 0.81779 0.60916 0.90412 0.0
C493 C 0.87498 0.63412 0.924 0.0
C494 C 0.79775 0.59292 0.91523 0.0
C495 C 0.76638 0.59099 0.91706 0.0
C496 C 0.75389 0.60442 0.90765 0.0
C497 C 0.77399 0.62114 0.89665 0.0
C498 C 0.80572 0.62359 0.8949 0.0
H499 H 0.90141 0.65105 0.92752 0.0
H500 H 0.86241 0.64949 0.92286 0.0
H501 H 0.8614 0.61462 0.93169 0.0
H502 H 0.80567 0.58048 0.92227 0.0
H503 H 0.75118 0.57752 0.92555 0.0
H504 H 0.60457 0.21552 0.88624 0.0
H505 H 0.60463 0.26911 0.8847 0.0
H506 H 0.53865 0.24113 0.91851 0.0
H507 H 0.53926 0.1876 0.9203 0.0
H508 H 0.55641 0.28705 0.88158 0.0
H509 H 0.61845 0.3308 0.93034 0.0
H510 H 0.61418 0.29349 0.92231 0.0
H511 H 0.57841 0.29168 0.93064 0.0
C512 C 0.58986 0.22065 0.8933 0.0
C513 C 0.57229 0.1976 0.90351 0.0
C514 C 0.58985 0.2513 0.89239 0.0
C515 C 0.57232 0.25963 0.90167 0.0
C516 C 0.55312 0.23573 0.91144 0.0
H517 H 0.58509 0.45752 0.91301 0.0
H518 H 0.56466 0.39633 0.9136 0.0
C519 C 0.55324 0.20502 0.9124 0.0
C520 C 0.57568 0.29397 0.90134 0.0
H521 H 0.60628 0.36806 0.91877 0.0
C522 C 0.5671 0.30467 0.88975 0.0
C523 C 0.58972 0.3171 0.91199 0.0
C524 C 0.60103 0.30792 0.92448 0.0
C525 C 0.57255 0.33784 0.88847 0.0
C526 C 0.58728 0.36112 0.899 0.0
C527 C 0.59489 0.35016 0.91072 0.0
C528 C 0.59717 0.39758 0.8978 0.0
C529 C 0.56262 0.34774 0.87582 0.0
C530 C 0.62213 0.41867 0.8887 0.0
C531 C 0.63397 0.45363 0.88838 0.0
C532 C 0.62113 0.46836 0.89717 0.0
C533 C 0.59543 0.44704 0.90605 0.0
C534 C 0.58376 0.41205 0.90642 0.0
H535 H 0.54324 0.32508 0.87034 0.0
H536 H 0.55243 0.36498 0.87771 0.0
H537 H 0.58544 0.36135 0.86946 0.0
H538 H 0.63335 0.40826 0.88212 0.0
H539 H 0.65383 0.46924 0.88144 0.0
H540 H 0.70194 0.18687 0.92427 0.0
H541 H 0.76012 0.2348 0.92663 0.0
H542 H 0.77343 0.23762 0.88462 0.0
H543 H 0.71521 0.19016 0.88214 0.0
H544 H 0.82504 0.24698 0.91911 0.0
H545 H 0.7917 0.33324 0.89299 0.0
H546 H 0.75988 0.29158 0.8986 0.0
H547 H 0.78349 0.29613 0.88381 0.0
C548 C 0.71735 0.19739 0.91553 0.0
C549 C 0.70366 0.18481 0.90299 0.0
C550 C 0.75066 0.22483 0.9169 0.0
C551 C 0.771 0.24033 0.90579 0.0
C552 C 0.75804 0.22663 0.89333 0.0
H553 H 0.98668 0.40278 0.90503 0.0
H554 H 0.93387 0.34753 0.90292 0.0
C555 C 0.72473 0.19931 0.89194 0.0
C556 C 0.80496 0.2718 0.90718 0.0
H557 H 0.84926 0.3561 0.89897 0.0
C558 C 0.83039 0.27082 0.91467 0.0
C559 C 0.81188 0.30307 0.90153 0.0
C560 C 0.78526 0.30632 0.89388 0.0
C561 C 0.86251 0.30016 0.91659 0.0
C562 C 0.86947 0.33128 0.9108 0.0
C563 C 0.84403 0.33221 0.90333 0.0
C564 C 0.90224 0.36367 0.91286 0.0
C565 C 0.88845 0.29793 0.92507 0.0
C566 C 0.90212 0.39115 0.91911 0.0
C567 C 0.93213 0.42258 0.92032 0.0
C568 C 0.963 0.42736 0.91524 0.0
C569 C 0.96335 0.39972 0.90918 0.0
C570 C 0.93319 0.36814 0.90799 0.0
H571 H 0.87698 0.27399 0.93085 0.0
H572 H 0.90869 0.29872 0.91872 0.0
H573 H 0.90059 0.31986 0.93194 0.0
H574 H 0.8786 0.38841 0.92291 0.0
H575 H 0.93098 0.44341 0.92497 0.0
H576 H 0.18068 1.00379 0.45999 0.0
H577 H 0.17044 0.05171 0.46078 0.0
H578 H 0.16418 0.05059 0.41849 0.0
H579 H 0.17405 1.00236 0.41767 0.0
H580 H 0.2103 0.11556 0.44993 0.0
H581 H 0.0796 0.05384 0.42958 0.0
H582 H 0.09894 1.02989 0.43517 0.0
H583 H 0.10933 0.04962 0.41925 0.0
C584 C 0.17664 1.01346 0.45087 0.0
C585 C 0.1781 0.99931 0.43876 0.0
C586 C 0.17094 0.04095 0.45133 0.0
C587 C 0.16632 0.05471 0.43971 0.0
C588 C 0.16712 0.04013 0.42761 0.0
H589 H 0.18947 0.25618 0.42958 0.0
H590 H 0.19902 0.20784 0.43069 0.0
C591 C 0.17285 1.01262 0.42714 0.0
C592 C 0.16213 0.08514 0.44024 0.0
H593 H 0.10858 0.1141 0.4317 0.0
C594 C 0.188 0.11522 0.44598 0.0
C595 C 0.13288 0.08464 0.43524 0.0
C596 C 0.10343 0.0527 0.42957 0.0
C597 C 0.18565 0.14487 0.4467 0.0
C598 C 0.15687 0.14469 0.44132 0.0
C599 C 0.1308 0.11443 0.43574 0.0
C600 C 0.15282 0.17527 0.44153 0.0
C601 C 0.21372 0.17589 0.45343 0.0
C602 C 0.12373 0.17326 0.44722 0.0
C603 C 0.1181 0.20073 0.44651 0.0
C604 C 0.14143 0.23098 0.44006 0.0
C605 C 0.17117 0.23345 0.43474 0.0
C606 C 0.17669 0.20578 0.43539 0.0
H607 H 0.2286 0.16914 0.46016 0.0
H608 H 0.23144 0.19356 0.4459 0.0
H609 H 0.20337 0.18948 0.45914 0.0
H610 H 0.10495 0.15008 0.45202 0.0
H611 H 0.09493 0.1979 0.45072 0.0
H612 H 1.05141 0.24173 0.39319 0.0
H613 H 0.99754 0.18855 0.38985 0.0
H614 H 0.96276 0.20048 0.42789 0.0
H615 H 1.01623 0.25378 0.43116 0.0
H616 H 0.98003 0.13481 0.40584 0.0
H617 H 0.8767 0.16517 0.40629 0.0
H618 H 0.92066 0.19705 0.40345 0.0
H619 H 0.90513 0.18401 0.41993 0.0
C620 C 1.03181 0.23352 0.40065 0.0
C621 C 1.03795 0.25175 0.41245 0.0
C622 C 1.00109 0.20314 0.39874 0.0
C623 C 0.97597 0.19065 0.40856 0.0
C624 C 0.98138 0.20994 0.42004 0.0
H625 H 0.81947 1.0063 0.43942 0.0
H626 H 0.85801 0.06493 0.43272 0.0
C627 C 1.01205 0.24032 0.42194 0.0
C628 C 0.94674 0.15537 0.40781 0.0
H629 H 0.86068 0.10742 0.41204 0.0
C630 C 0.95383 0.12878 0.40689 0.0
C631 C 0.91263 0.14759 0.40925 0.0
C632 C 0.90328 0.175 0.40965 0.0
C633 C 0.92806 0.0947 0.40816 0.0
C634 C 0.89408 0.08694 0.41015 0.0
C635 C 0.88673 0.11343 0.41051 0.0
C636 C 0.86668 0.05183 0.41321 0.0
C637 C 0.93777 0.06747 0.40818 0.0
C638 C 0.85769 1.02508 0.40427 0.0
C639 C 0.83579 0.99138 0.40811 0.0
C640 C 0.82237 0.98399 0.42093 0.0
C641 C 0.82957 1.01105 0.42952 0.0
C642 C 0.85153 0.04464 0.42569 0.0
H643 H 0.96569 0.07832 0.40911 0.0
H644 H 0.92502 0.04932 0.41638 0.0
H645 H 0.92948 0.05302 0.39882 0.0
H646 H 0.86861 1.03016 0.3945 0.0
H647 H 0.83047 0.97114 0.40122 0.0
H648 H 0.1337 0.88264 0.42744 0.0
H649 H 0.08484 0.88976 0.42207 0.0
H650 H 0.06715 0.89574 0.46335 0.0
H651 H 0.11521 0.88797 0.46869 0.0
H652 H 1.01694 0.83876 0.43313 0.0
H653 H 0.05348 0.97177 0.44567 0.0
H654 H 0.08427 0.9598 0.44076 0.0
H655 H 0.06671 0.95046 0.45704 0.0
C656 C 0.12018 0.88687 0.43531 0.0
C657 C 0.12844 0.88519 0.44847 0.0
C658 C 0.09211 0.89065 0.43225 0.0
C659 C 0.07236 0.89343 0.44231 0.0
C660 C 0.08219 0.89413 0.45542 0.0
H661 H 0.87887 0.88444 0.45354 0.0
H662 H 0.93546 0.89054 0.45547 0.0
C663 C 0.10974 0.88977 0.45846 0.0
C664 C 1.03898 0.89078 0.43941 0.0
H665 H 0.99451 0.93256 0.44279 0.0
C666 C 1.0121 0.85941 0.43504 0.0
C667 C 1.03259 0.91754 0.44213 0.0
C668 C 0.06076 0.95194 0.44657 0.0
C669 C 0.97879 0.85367 0.43373 0.0
C670 C 0.9722 0.88037 0.43652 0.0
C671 C 0.99934 0.91201 0.44067 0.0
C672 C 0.93731 0.87582 0.43538 0.0
C673 C 0.95075 0.81853 0.42993 0.0
C674 C 0.9192 0.86541 0.42347 0.0
C675 C 0.88665 0.86146 0.42241 0.0
C676 C 0.87163 0.86835 0.43318 0.0
C677 C 0.88968 0.87877 0.44509 0.0
C678 C 0.92214 0.88245 0.44617 0.0
H679 H 0.95791 0.79895 0.43193 0.0
H680 H 0.92685 0.81148 0.43532 0.0
H681 H 0.9457 0.81798 0.41925 0.0
H682 H 0.93048 0.86088 0.41489 0.0
H683 H 0.87362 0.85386 0.41305 0.0
H684 H 0.38321 0.86635 0.27289 0.0
H685 H 0.4352 0.86265 0.27354 0.0
H686 H 0.42318 0.83614 0.23243 0.0
H687 H 0.37129 0.83987 0.23171 0.0
H688 H 0.44906 0.80888 0.26646 0.0
H689 H 0.51841 0.92348 0.23509 0.0
H690 H 0.47879 0.91244 0.24317 0.0
H691 H 0.47877 0.89078 0.22838 0.0
C692 C 0.39139 0.85923 0.26405 0.0
C693 C 0.37334 0.85363 0.25223 0.0
C694 C 0.42112 0.85719 0.26443 0.0
C695 C 0.43343 0.84976 0.25298 0.0
C696 C 0.41449 0.84251 0.24132 0.0
H697 H 0.60524 0.83618 0.22721 0.0
H698 H 0.55434 0.84029 0.23021 0.0
C699 C 0.38473 0.84444 0.24095 0.0
C700 C 0.46672 0.85091 0.25305 0.0
H701 H 0.54622 0.8923 0.23943 0.0
C702 C 0.47044 0.82726 0.26064 0.0
C703 C 0.49465 0.87508 0.24553 0.0
C704 C 0.49272 0.90212 0.23766 0.0
C705 C 0.50087 0.82621 0.26047 0.0
C706 C 0.52858 0.84995 0.2527 0.0
C707 C 0.52505 0.87412 0.24539 0.0
C708 C 0.56051 0.84862 0.2512 0.0
C709 C 0.50262 0.79885 0.26816 0.0
C710 C 0.58157 0.85267 0.26198 0.0
C711 C 0.611 0.85031 0.26029 0.0
C712 C 0.6199 0.84398 0.24779 0.0
C713 C 0.59921 0.84095 0.23701 0.0
C714 C 0.56999 0.8433 0.23869 0.0
H715 H 0.47701 0.77833 0.27128 0.0
H716 H 0.51486 0.78737 0.26227 0.0
H717 H 0.51817 0.81024 0.27712 0.0
H718 H 0.5752 0.85752 0.27169 0.0
H719 H 0.62637 0.85281 0.2688 0.0
H720 H 0.25183 0.7841 0.21525 0.0
H721 H 0.26018 0.73601 0.21931 0.0
H722 H 0.27248 0.75988 0.26069 0.0
H723 H 0.26338 0.80813 0.2566 0.0
H724 H 0.30935 0.72579 0.23007 0.0
H725 H 0.1916 0.6631 0.26038 0.0
H726 H 0.20323 0.70069 0.25079 0.0
H727 H 0.22424 0.70403 0.26612 0.0
C728 C 0.25718 0.77965 0.22519 0.0
C729 C 0.25715 0.80001 0.2356 0.0
C730 C 0.26185 0.75202 0.22751 0.0
C731 C 0.26621 0.74367 0.24034 0.0
C732 C 0.26842 0.7653 0.25072 0.0
H733 H 0.26006 0.55652 0.26639 0.0
H734 H 0.26504 0.61267 0.26549 0.0
C735 C 0.26376 0.79319 0.24837 0.0
C736 C 0.26604 0.71111 0.24264 0.0
H737 H 0.21951 0.63226 0.2566 0.0
C738 C 0.28984 0.70545 0.23595 0.0
C739 C 0.24047 0.68432 0.25025 0.0
C740 C 0.21322 0.68804 0.25723 0.0
C741 C 0.28864 0.67392 0.23658 0.0
C742 C 0.26259 0.64692 0.24392 0.0
C743 C 0.23937 0.65282 0.25091 0.0
C744 C 0.25885 0.61233 0.24441 0.0
C745 C 0.31544 0.66988 0.2294 0.0
C746 C 0.25289 0.59288 0.23291 0.0
C747 C 0.24985 0.56061 0.23341 0.0
C748 C 0.25262 0.54707 0.24544 0.0
C749 C 0.25781 0.56622 0.25697 0.0
C750 C 0.26072 0.59839 0.25646 0.0
H751 H 0.33839 0.69488 0.22728 0.0
H752 H 0.32321 0.65426 0.23518 0.0
H753 H 0.30491 0.65683 0.21989 0.0
H754 H 0.25059 0.60266 0.22351 0.0
H755 H 0.24579 0.54646 0.22437 0.0
H756 H 0.63221 0.70811 0.26544 0.0
H757 H 0.57989 0.6538 0.26245 0.0
H758 H 0.58674 0.66965 0.22051 0.0
H759 H 0.63894 0.72475 0.22352 0.0
H760 H 0.52713 0.6581 0.23008 0.0
H761 H 0.55182 0.55964 0.24989 0.0
H762 H 0.56384 0.59378 0.26136 0.0
H763 H 0.58572 0.60192 0.24584 0.0
C764 C 0.6231 0.69961 0.25555 0.0
C765 C 0.63945 0.72067 0.24472 0.0
C766 C 0.59327 0.66837 0.25384 0.0
C767 C 0.57948 0.65738 0.24125 0.0
C768 C 0.59699 0.67754 0.23032 0.0
H769 H 0.37524 0.50089 0.21815 0.0
H770 H 0.43671 0.53955 0.21844 0.0
C771 C 0.62681 0.70895 0.23203 0.0
C772 C 0.5446 0.62769 0.23978 0.0
H773 H 0.49278 0.54483 0.24894 0.0
C774 C 0.51979 0.63318 0.23398 0.0
C775 C 0.53491 0.59522 0.245 0.0
C776 C 0.56059 0.58719 0.25075 0.0
C777 C 0.48546 0.60756 0.23368 0.0
C778 C 0.47566 0.57545 0.23921 0.0
C779 C 0.50043 0.56958 0.24477 0.0
C780 C 0.43954 0.54808 0.23941 0.0
C781 C 0.45968 0.61538 0.22784 0.0
C782 C 0.42103 0.53905 0.25122 0.0
C783 C 0.38575 0.51686 0.25111 0.0
C784 C 0.36856 0.50345 0.23918 0.0
C785 C 0.38761 0.51103 0.2275 0.0
C786 C 0.42276 0.53311 0.22762 0.0
H787 H 0.47046 0.64306 0.22617 0.0
H788 H 0.4509 0.60215 0.21825 0.0
H789 H 0.43713 0.60607 0.23436 0.0
H790 H 0.43364 0.55038 0.26042 0.0
H791 H 0.37182 0.51147 0.26027 0.0
H792 H 0.90171 0.64158 0.74629 0.0
H793 H 0.91932 0.59868 0.74498 0.0
H794 H 0.87147 0.55785 0.78232 0.0
H795 H 0.85385 0.60032 0.78373 0.0
H796 H 0.9576 0.57919 0.76326 0.0
H797 H 0.82346 0.47724 0.75566 0.0
H798 H 0.83741 0.52176 0.75353 0.0
H799 H 0.83051 0.5039 0.76974 0.0
C800 C 0.89543 0.62385 0.75433 0.0
C801 C 0.87608 0.62433 0.76507 0.0
C802 C 0.90548 0.59928 0.75355 0.0
C803 C 0.89623 0.57466 0.76345 0.0
C804 C 0.87847 0.57622 0.77447 0.0
H805 H 0.95311 0.42182 0.77951 0.0
H806 H 0.94845 0.47323 0.77924 0.0
C807 C 0.86851 0.6007 0.77527 0.0
C808 C 0.90334 0.54616 0.76204 0.0
H809 H 0.86368 0.4596 0.75917 0.0
C810 C 0.93712 0.55305 0.7623 0.0
C811 C 0.87665 0.51206 0.76064 0.0
C812 C 0.83995 0.50315 0.75975 0.0
C813 C 0.94478 0.52665 0.76154 0.0
C814 C 0.91797 0.49242 0.76057 0.0
C815 C 0.88429 0.48573 0.75999 0.0
C816 C 0.92396 0.46299 0.76022 0.0
C817 C 0.98154 0.53565 0.76164 0.0
C818 C 0.91174 0.43991 0.74966 0.0
C819 C 0.91434 0.41049 0.74981 0.0
C820 C 0.929 0.40332 0.76058 0.0
C821 C 0.94199 0.4268 0.77101 0.0
C822 C 0.93944 0.45629 0.77085 0.0
H823 H 0.99883 0.56264 0.75887 0.0
H824 H 0.98846 0.53188 0.77169 0.0
H825 H 0.98579 0.51909 0.7548 0.0
H826 H 0.89955 0.44434 0.74138 0.0
H827 H 0.90391 0.39283 0.74166 0.0
H828 H 0.72676 0.60081 0.77264 0.0
H829 H 0.67515 0.54492 0.77354 0.0
H830 H 0.68338 0.53154 0.732 0.0
H831 H 0.73522 0.5879 0.73101 0.0
H832 H 0.61406 0.50943 0.74198 0.0
H833 H 0.68195 0.45723 0.77009 0.0
H834 H 0.6859 0.49553 0.77688 0.0
H835 H 0.704 0.49663 0.76105 0.0
C836 C 0.71741 0.58614 0.76367 0.0
C837 C 0.73507 0.5985 0.75177 0.0
C838 C 0.68798 0.55421 0.76421 0.0
C839 C 0.67578 0.53396 0.75288 0.0
C840 C 0.69251 0.5468 0.74085 0.0
H841 H 0.50926 0.32302 0.74488 0.0
H842 H 0.5525 0.38185 0.73971 0.0
C843 C 0.72206 0.57889 0.7403 0.0
C844 C 0.64663 0.49876 0.75389 0.0
H845 H 0.62185 0.42284 0.7689 0.0
C846 C 0.61572 0.49032 0.74776 0.0
C847 C 0.64906 0.47392 0.76136 0.0
C848 C 0.68207 0.48107 0.76763 0.0
C849 C 0.58669 0.45794 0.74938 0.0
C850 C 0.58893 0.4335 0.7572 0.0
C851 C 0.62012 0.44176 0.76301 0.0
C852 C 0.55927 0.39934 0.75987 0.0
C853 C 0.55362 0.45045 0.74311 0.0
C854 C 0.54841 0.38979 0.77287 0.0
C855 C 0.52393 0.35629 0.77585 0.0
C856 C 0.50987 0.33154 0.76589 0.0
C857 C 0.51948 0.3415 0.75277 0.0
C858 C 0.54413 0.37514 0.74979 0.0
H859 H 0.55443 0.47394 0.7396 0.0
H860 H 0.54839 0.43336 0.73455 0.0
H861 H 0.5322 0.43725 0.75015 0.0
H862 H 0.5598 0.40807 0.78079 0.0
H863 H 0.51701 0.34953 0.78604 0.0
H864 H 0.57528 0.25784 0.76138 0.0
H865 H 0.62786 0.25755 0.7656 0.0
H866 H 0.57429 0.17223 0.79177 0.0
H867 H 0.52107 0.1725 0.78754 0.0
H868 H 0.63757 0.22531 0.80179 0.0
H869 H 0.65251 0.18794 0.75161 0.0
H870 H 0.64493 0.223 0.75147 0.0
H871 H 0.61259 0.18231 0.75762 0.0
C872 C 0.57458 0.23889 0.76799 0.0
C873 C 0.54409 0.21504 0.77409 0.0
C874 C 0.60464 0.23865 0.77034 0.0
C875 C 0.60488 0.21447 0.77879 0.0
C876 C 0.57457 0.19089 0.78511 0.0
H877 H 0.80277 0.22511 0.7758 0.0
H878 H 0.74085 0.19842 0.7779 0.0
C879 C 0.54427 0.19106 0.78271 0.0
C880 C 0.63733 0.21498 0.78111 0.0
H881 H 0.70385 0.21776 0.76448 0.0
C882 C 0.65184 0.22296 0.79371 0.0
C883 C 0.65563 0.21115 0.77064 0.0
C884 C 0.64045 0.20026 0.75711 0.0
C885 C 0.68525 0.22981 0.79586 0.0
C886 C 0.70475 0.22926 0.78509 0.0
C887 C 0.68919 0.21864 0.77274 0.0
C888 C 0.7421 0.24309 0.78597 0.0
C889 C 0.69951 0.2383 0.8096 0.0
C890 C 0.76349 0.27685 0.79003 0.0
C891 C 0.79879 0.29207 0.7889 0.0
C892 C 0.81355 0.27403 0.78351 0.0
C893 C 0.79224 0.23972 0.77999 0.0
C894 C 0.75683 0.22444 0.78117 0.0
H895 H 0.67903 0.22527 0.81704 0.0
H896 H 0.7191 0.23097 0.8112 0.0
H897 H 0.71131 0.26609 0.81125 0.0
H898 H 0.75289 0.29213 0.79343 0.0
H899 H 0.81438 0.31854 0.79168 0.0
H900 H 0.11327 0.27289 0.61578 0.0
H901 H 0.16707 0.27375 0.61921 0.0
H902 H 0.19516 0.30418 0.5789 0.0
H903 H 0.14177 0.30364 0.57547 0.0
H904 H 0.18221 0.2312 0.60539 0.0
H905 H 0.28445 0.3644 0.59797 0.0
H906 H 0.241 0.35292 0.60148 0.0
H907 H 0.25354 0.34959 0.58501 0.0
C908 C 0.13139 0.28065 0.60777 0.0
C909 C 0.12343 0.28814 0.59535 0.0
C910 C 0.16206 0.28111 0.60974 0.0
C911 C 0.18532 0.28942 0.59936 0.0
C912 C 0.17801 0.29848 0.58713 0.0
H913 H 0.33745 0.25488 0.56984 0.0
H914 H 0.29927 0.27572 0.57587 0.0
C915 C 0.14737 0.29793 0.58516 0.0
C916 C 0.21476 0.28408 0.60064 0.0
H917 H 0.29991 0.32131 0.59447 0.0
C918 C 0.20811 0.25106 0.60331 0.0
C919 C 0.24845 0.31001 0.59787 0.0
C920 C 0.25737 0.3463 0.59555 0.0
C921 C 0.23381 0.24269 0.60243 0.0
C922 C 0.26726 0.26829 0.59907 0.0
C923 C 0.27426 0.30173 0.59704 0.0
C924 C 0.29419 0.25994 0.59618 0.0
C925 C 0.2244 0.20605 0.60427 0.0
C926 C 0.30504 0.24527 0.60573 0.0
C927 C 0.32674 0.23302 0.60229 0.0
C928 C 0.33812 0.23553 0.58925 0.0
C929 C 0.32897 0.25229 0.57994 0.0
C930 C 0.3072 0.26434 0.58338 0.0
H931 H 0.19641 0.18854 0.6043 0.0
H932 H 0.23567 0.19794 0.59637 0.0
H933 H 0.23452 0.20334 0.61382 0.0
H934 H 0.29584 0.24227 0.61574 0.0
H935 H 0.33359 0.22054 0.60972 0.0
H936 H 0.92938 0.88535 0.55063 0.0
H937 H 0.93925 0.94324 0.54983 0.0
H938 H 1.01343 0.97282 0.58088 0.0
H939 H 1.00467 0.91502 0.58126 0.0
H940 H 0.92815 0.97817 0.56709 0.0
H941 H 0.06592 0.04859 0.55583 0.0
H942 H 1.04085 1.00282 0.55509 0.0
H943 H 0.05674 1.02411 0.5706 0.0
C944 C 0.94803 0.90429 0.55721 0.0
C945 C 0.96628 0.89575 0.56601 0.0
C946 C 0.95362 0.9374 0.55676 0.0
C947 C 0.97742 0.96271 0.56516 0.0
C948 C 0.99559 0.95411 0.57404 0.0
H949 H 0.97562 0.14728 0.58527 0.0
H950 H 0.96545 0.08945 0.58367 0.0
C951 C 0.99036 0.921 0.57435 0.0
C952 C 0.98197 0.99752 0.5649 0.0
H953 H 1.04145 0.08195 0.56248 0.0
C954 C 0.95295 1.00083 0.56599 0.0
C955 C 1.01418 1.02719 0.56322 0.0
C956 C 1.04613 1.02554 0.56098 0.0
C957 C 0.95524 1.03278 0.56564 0.0
C958 C 0.98764 0.06255 0.56467 0.0
C959 C 1.01661 0.05924 0.56336 0.0
C960 C 0.99221 0.09736 0.56522 0.0
C961 C 0.92275 1.03409 0.56604 0.0
C962 C 1.01121 0.12155 0.55552 0.0
C963 C 1.01768 0.15499 0.55655 0.0
C964 C 1.00507 0.16489 0.56727 0.0
C965 C 0.9853 0.14043 0.57678 0.0
C966 C 0.97931 0.10719 0.57585 0.0
H967 H 0.90089 1.01019 0.56219 0.0
H968 H 0.91688 0.03708 0.57638 0.0
H969 H 0.925 0.05574 0.56022 0.0
H970 H 1.02153 0.11468 0.54723 0.0
H971 H 1.03309 0.17324 0.54908 0.0
H972 H 0.2827 0.05698 0.59759 0.0
H973 H 0.22644 1.00693 0.59374 0.0
H974 H 0.23418 1.03205 0.55258 0.0
H975 H 0.29048 0.08222 0.55638 0.0
H976 H 0.16638 1.00505 0.5824 0.0
H977 H 0.21116 0.9312 0.55345 0.0
H978 H 0.23938 0.96681 0.56369 0.0
H979 H 0.22604 0.974 0.54803 0.0
C980 C 0.27253 0.05167 0.5877 0.0
C981 C 0.29106 0.07342 0.57727 0.0
C982 C 0.24029 1.02319 0.58553 0.0
C983 C 0.22607 1.01566 0.57288 0.0
C984 C 0.2447 0.03719 0.56242 0.0
H985 H 1.01854 0.86621 0.54832 0.0
H986 H 0.06921 0.91986 0.55489 0.0
C987 C 0.27687 0.06584 0.5646 0.0
C988 C 0.19187 0.98518 0.57065 0.0
H989 H 0.15183 0.90746 0.55559 0.0
C990 C 0.16313 0.98369 0.57653 0.0
C991 C 0.18768 0.95729 0.56303 0.0
C992 C 0.21765 0.95707 0.55674 0.0
C993 C 0.13033 0.95509 0.57494 0.0
C994 C 0.12621 0.92722 0.56732 0.0
C995 C 0.15498 0.9288 0.56145 0.0
C996 C 0.09259 0.89567 0.56546 0.0
C997 C 0.10044 0.95457 0.58162 0.0
C998 C 0.08831 0.86427 0.56951 0.0
C999 C 0.05934 0.83381 0.56587 0.0
C1000 C 1.03389 0.83402 0.55817 0.0
C1001 C 1.0372 0.8654 0.55467 0.0
C1002 C 0.06629 0.89604 0.55834 0.0
H1003 H 0.10868 0.97462 0.58928 0.0
H1004 H 0.08526 0.959 0.5742 0.0
H1005 H 0.08361 0.92941 0.58621 0.0
H1006 H 0.10825 0.86328 0.57494 0.0
H1007 H 0.05784 0.80995 0.56836 0.0
H1008 H 0.53108 0.11712 0.06284 0.0
H1009 H 0.53992 0.13132 0.03938 0.0
H1010 H 0.57596 0.0607 0.03397 0.0
H1011 H 0.56877 0.04777 0.05733 0.0
H1012 H 0.61033 0.1146 0.01865 0.0
H1013 H 0.47164 0.06579 0.01335 0.0
H1014 H 0.49358 0.10173 0.02411 0.0
H1015 H 0.49002 0.06176 0.02842 0.0
C1016 C 0.54193 0.10551 0.05672 0.0
C1017 C 0.54896 0.08112 0.06192 0.0
C1018 C 0.54646 0.11322 0.04326 0.0
C1019 C 0.55762 0.09629 0.03482 0.0
C1020 C 0.56701 0.07389 0.04022 0.0
H1021 H 0.51078 1.03238 0.95464 0.0
H1022 H 0.51328 0.04066 0.97846 0.0
C1023 C 0.5628 0.06644 0.05361 0.0
C1024 C 0.55741 0.09953 0.02027 0.0
H1025 H 0.50431 0.08242 0.99405 0.0
C1026 C 0.58724 0.1079 0.01326 0.0
C1027 C 0.52708 0.09021 0.01324 0.0
C1028 C 0.49367 0.07907 0.02012 0.0
C1029 C 0.58741 0.10621 0.99948 0.0
C1030 C 0.55711 0.09697 0.99244 0.0
C1031 C 0.52753 0.08961 0.99943 0.0
C1032 C 0.55496 0.09277 0.9779 0.0
C1033 C 0.61963 0.1126 0.99267 0.0
C1034 C 0.57705 0.11946 0.9696 0.0
C1035 C 0.57602 0.1146 0.956 0.0
C1036 C 0.55232 0.08318 0.95037 0.0
C1037 C 0.5293 0.0569 0.95865 0.0
C1038 C 0.53072 0.06162 0.97227 0.0
H1039 H 0.63722 0.11012 0.99954 0.0
H1040 H 0.61393 0.09462 0.98438 0.0
H1041 H 0.63309 0.13888 0.98872 0.0
H1042 H 0.59525 0.14404 0.97364 0.0
H1043 H 0.59375 0.13556 0.94988 0.0
H1044 H 0.11065 0.50284 0.95405 0.0
H1045 H 0.10509 0.50067 0.978 0.0
H1046 H 0.05588 0.56042 0.97611 0.0
H1047 H 0.06122 0.56278 0.95217 0.0
H1048 H 0.11142 0.58335 0.99483 0.0
H1049 H 1.01511 0.44603 0.99973 0.0
H1050 H 1.05146 0.45577 0.98967 0.0
H1051 H 1.02222 0.46904 0.98451 0.0
C1052 C 0.09855 0.51547 0.9587 0.0
C1053 C 0.08635 0.53296 0.95116 0.0
C1054 C 0.09524 0.51402 0.97238 0.0
C1055 C 0.07973 0.53005 0.97878 0.0
C1056 C 0.06775 0.54772 0.97132 0.0
H1057 H 1.02392 0.52192 0.0614 0.0
H1058 H 1.02373 0.5215 0.0373 0.0
C1059 C 0.07084 0.54902 0.95764 0.0
C1060 C 0.07703 0.52937 0.99328 0.0
H1061 H 1.04019 0.47631 0.01946 0.0
C1062 C 0.09575 0.56 1.00022 0.0
C1063 C 0.05633 0.49888 1.00024 0.0
C1064 C 1.03487 0.46553 0.9932 0.0
C1065 C 0.09495 0.56079 0.014 0.0
C1066 C 0.07495 0.53019 0.02096 0.0
C1067 C 0.05561 0.49967 0.01404 0.0
C1068 C 0.07459 0.52944 0.03549 0.0
C1069 C 0.11549 0.59429 0.02106 0.0
C1070 C 0.1031 0.53361 0.04236 0.0
C1071 C 0.10327 0.53368 0.05608 0.0
C1072 C 0.07495 0.52979 0.0632 0.0
C1073 C 1.04623 0.52522 0.05624 0.0
C1074 C 1.04601 0.52487 0.04248 0.0
H1075 H 0.12502 0.61628 0.01425 0.0
H1076 H 0.09996 0.5971 0.02885 0.0
H1077 H 0.1377 0.59495 0.02586 0.0
H1078 H 0.12529 0.53694 0.03709 0.0
H1079 H 0.12582 0.53724 0.06109 0.0
H1080 H 0.63303 0.66095 0.94535 0.0
H1081 H 0.62198 0.66345 0.96879 0.0
H1082 H 0.5929 0.55787 0.97285 0.0
H1083 H 0.60169 0.55469 0.94946 0.0
H1084 H 0.55473 0.57057 0.98804 0.0
H1085 H 0.68906 0.67189 0.99581 0.0
H1086 H 0.66576 0.68393 0.98504 0.0
H1087 H 0.67397 0.65062 0.98025 0.0
C1088 C 0.62333 0.63807 0.95116 0.0
C1089 C 0.61849 0.60772 0.94551 0.0
C1090 C 0.61757 0.63965 0.96463 0.0
C1091 C 0.60763 0.61113 0.97273 0.0
C1092 C 0.60085 0.58036 0.9669 0.0
H1093 H 0.65275 0.60352 0.05418 0.0
H1094 H 0.6507 0.60653 0.03025 0.0
C1095 C 0.60604 0.57863 0.95347 0.0
C1096 C 0.6059 0.61315 0.98732 0.0
H1097 H 0.65386 0.65279 0.01447 0.0
C1098 C 0.57637 0.58868 0.99382 0.0
C1099 C 0.63431 0.63644 0.99491 0.0
C1100 C 0.66768 0.662 0.98868 0.0
C1101 C 0.57472 0.58617 0.0076 0.0
C1102 C 0.60298 0.60973 0.01519 0.0
C1103 C 0.63215 0.6348 0.00869 0.0
C1104 C 0.60371 0.60775 0.0298 0.0
C1105 C 0.54333 0.55721 0.0138 0.0
C1106 C 0.57816 0.60766 0.03762 0.0
C1107 C 0.57892 0.60519 0.05132 0.0
C1108 C 0.60576 0.60372 0.05751 0.0
C1109 C 0.63175 0.60466 0.04971 0.0
C1110 C 0.63061 0.60644 0.03602 0.0
H1111 H 0.52885 0.5362 0.00669 0.0
H1112 H 0.54996 0.54673 0.0224 0.0
H1113 H 0.52628 0.56657 0.01716 0.0
H1114 H 0.55771 0.60975 0.03316 0.0
H1115 H 0.55879 0.60505 0.05708 0.0
H1116 H 0.1879 0.43112 0.38986 0.0
H1117 H 0.20561 0.44309 0.36679 0.0
H1118 H 0.23687 0.36809 0.36779 0.0
H1119 H 0.21895 0.3557 0.39074 0.0
H1120 H 0.26713 0.45966 0.35129 0.0
H1121 H 0.1568 0.33123 0.34106 0.0
H1122 H 0.16235 0.35262 0.35659 0.0
H1123 H 0.18634 0.33205 0.35295 0.0
C1124 C 0.19944 0.41786 0.38528 0.0
C1125 C 0.20154 0.39206 0.39207 0.0
C1126 C 0.20949 0.4247 0.37209 0.0
C1127 C 0.22184 0.40593 0.36552 0.0
C1128 C 0.22684 0.38243 0.37262 0.0
H1129 H 0.24553 0.36521 0.28448 0.0
H1130 H 0.24766 0.37042 0.30838 0.0
C1131 C 0.21666 0.37545 0.38575 0.0
C1132 C 0.22576 0.40785 0.351 0.0
H1133 H 0.19284 0.3603 0.3232 0.0
C1134 C 0.25091 0.43802 0.34512 0.0
C1135 C 0.20433 0.37966 0.34297 0.0
C1136 C 0.17572 0.34713 0.34866 0.0
C1137 C 0.25579 0.44035 0.33139 0.0
C1138 C 0.23462 0.41192 0.3234 0.0
C1139 C 0.20926 0.38198 0.32933 0.0
C1140 C 0.23784 0.41224 0.30885 0.0
C1141 C 0.284 0.47287 0.3256 0.0
C1142 C 0.23212 0.43438 0.30111 0.0
C1143 C 0.23092 0.4315 0.28738 0.0
C1144 C 0.23502 0.40615 0.28114 0.0
C1145 C 0.242 0.38487 0.28892 0.0
C1146 C 0.24329 0.38784 0.30261 0.0
H1147 H 0.30318 0.48877 0.33312 0.0
H1148 H 0.29702 0.46746 0.31751 0.0
H1149 H 0.27305 0.48784 0.32149 0.0
H1150 H 0.22721 0.45299 0.30569 0.0
H1151 H 0.22551 0.44834 0.28171 0.0
H1152 H 0.77818 0.85028 0.39835 0.0
H1153 H 0.79084 0.86164 0.37489 0.0
H1154 H 0.69776 0.86347 0.36951 0.0
H1155 H 0.68531 0.85294 0.39285 0.0
H1156 H 0.75212 0.81951 0.35538 0.0
H1157 H 0.7637 0.94539 0.34837 0.0
H1158 H 0.76523 0.92928 0.36439 0.0
H1159 H 0.72496 0.9162 0.35661 0.0
C1160 C 0.7608 0.85387 0.39222 0.0
C1161 C 0.73068 0.85058 0.39748 0.0
C1162 C 0.76803 0.86027 0.37881 0.0
C1163 C 0.74541 0.86373 0.37046 0.0
C1164 C 0.71598 0.86166 0.37579 0.0
H1165 H 0.7121 0.81354 0.28769 0.0
H1166 H 0.70829 0.81567 0.31162 0.0
C1167 C 0.70879 0.85538 0.38916 0.0
C1168 C 0.75062 0.86606 0.35601 0.0
H1169 H 0.75296 0.91133 0.32893 0.0
C1170 C 0.7527 0.83981 0.34961 0.0
C1171 C 0.75166 0.89267 0.34849 0.0
C1172 C 0.75163 0.92266 0.35484 0.0
C1173 C 0.75476 0.83889 0.33587 0.0
C1174 C 0.7539 0.8645 0.32831 0.0
C1175 C 0.75296 0.89137 0.33472 0.0
C1176 C 0.75474 0.86419 0.31374 0.0
C1177 C 0.75817 0.81064 0.32961 0.0
C1178 C 0.78122 0.89146 0.30694 0.0
C1179 C 0.78328 0.89052 0.29327 0.0
C1180 C 0.7589 0.86219 0.28609 0.0
C1181 C 0.73157 0.83552 0.29289 0.0
C1182 C 0.72946 0.83659 0.30659 0.0
H1183 H 0.76789 0.79901 0.33669 0.0
H1184 H 0.7328 0.7904 0.32618 0.0
H1185 H 0.77556 0.82007 0.32101 0.0
H1186 H 0.80082 0.91315 0.31225 0.0
H1187 H 0.80453 0.91171 0.28839 0.0
H1188 H 0.2787 0.96261 0.28827 0.0
H1189 H 0.2735 0.96221 0.31218 0.0
H1190 H 0.27662 0.86918 0.31405 0.0
H1191 H 0.28104 0.86889 0.29014 0.0
H1192 H 0.22701 0.866 0.32944 0.0
H1193 H 0.34692 0.98649 0.33931 0.0
H1194 H 0.31941 0.99163 0.32812 0.0
H1195 H 0.33737 0.96577 0.32348 0.0
C1196 C 0.27849 0.94214 0.29375 0.0
C1197 C 0.28048 0.91587 0.28724 0.0
C1198 C 0.27571 0.94207 0.30746 0.0
C1199 C 0.27531 0.91601 0.31496 0.0
C1200 C 0.27705 0.88965 0.30849 0.0
H1201 H 0.30191 0.9227 0.40008 0.0
H1202 H 0.30839 0.92075 0.37627 0.0
C1203 C 0.27959 0.88956 0.29479 0.0
C1204 C 0.2721 0.91561 0.32953 0.0
H1205 H 0.30836 0.96246 0.35727 0.0
C1206 C 0.2449 0.88704 0.33552 0.0
C1207 C 0.29573 0.94279 0.33752 0.0
C1208 C 0.3267 0.97325 0.33181 0.0
C1209 C 0.2403 0.88519 0.34922 0.0
C1210 C 0.26308 0.91301 0.35715 0.0
C1211 C 0.29068 0.94128 0.35119 0.0
C1212 C 0.25871 0.91338 0.37163 0.0
C1213 C 0.2114 0.85316 0.35506 0.0
C1214 C 0.22872 0.91011 0.37697 0.0
C1215 C 0.22484 0.91101 0.39058 0.0
C1216 C 0.25111 0.91572 0.39916 0.0
C1217 C 0.2812 0.91916 0.39378 0.0
C1218 C 0.28497 0.91805 0.38016 0.0
H1219 H 0.203 0.83105 0.34836 0.0
H1220 H 0.21879 0.84702 0.36462 0.0
H1221 H 0.18936 0.85683 0.35676 0.0
H1222 H 0.20841 0.90728 0.3706 0.0
H1223 H 0.20138 0.90846 0.39434 0.0
H1224 H 0.82501 0.70407 0.71151 0.0
H1225 H 0.83395 0.70382 0.6879 0.0
H1226 H 0.94149 0.77235 0.69325 0.0
H1227 H 0.93297 0.7723 0.717 0.0
H1228 H 0.85999 0.75705 0.67053 0.0
H1229 H 0.94002 0.69684 0.67111 0.0
H1230 H 0.91611 0.69699 0.68527 0.0
H1231 H 0.95583 0.73429 0.68115 0.0
C1232 C 0.85062 0.71907 0.70773 0.0
C1233 C 0.87828 0.73812 0.71623 0.0
C1234 C 0.85569 0.71888 0.69419 0.0
C1235 C 0.88846 0.73759 0.68881 0.0
C1236 C 0.91609 0.75709 0.69721 0.0
H1237 H 0.96495 0.77816 0.60885 0.0
H1238 H 0.95844 0.77391 0.63274 0.0
C1239 C 0.91107 0.75725 0.71078 0.0
C1240 C 0.89334 0.73736 0.67438 0.0
H1241 H 0.93376 0.71768 0.65056 0.0
C1242 C 0.87599 0.74829 0.66616 0.0
C1243 C 0.91427 0.72595 0.6687 0.0
C1244 C 0.93241 0.71255 0.67698 0.0
C1245 C 0.87934 0.74859 0.65244 0.0
C1246 C 0.9002 0.73713 0.64675 0.0
C1247 C 0.9177 0.72633 0.65495 0.0
C1248 C 0.90462 0.73695 0.63231 0.0
C1249 C 0.86109 0.76188 0.64415 0.0
C1250 C 0.87677 0.71662 0.62415 0.0
C1251 C 0.88036 0.71898 0.61047 0.0
C1252 C 0.91192 0.74173 0.6047 0.0
C1253 C 0.94019 0.76065 0.61294 0.0
C1254 C 0.93655 0.75823 0.62661 0.0
H1255 H 0.85265 0.77686 0.65005 0.0
H1256 H 0.8777 0.77814 0.63606 0.0
H1257 H 0.83821 0.7401 0.63969 0.0
H1258 H 0.85204 0.6995 0.62836 0.0
H1259 H 0.85813 0.70377 0.60445 0.0
H1260 H 0.47303 0.23577 0.62336 0.0
H1261 H 0.45873 0.23179 0.64662 0.0
H1262 H 0.36433 0.13874 0.63938 0.0
H1263 H 0.37876 0.14213 0.61599 0.0
H1264 H 0.40495 0.22898 0.66022 0.0
H1265 H 0.4099 0.11036 0.66713 0.0
H1266 H 0.42516 0.13564 0.6524 0.0
H1267 H 0.38029 0.10811 0.65496 0.0
C1268 C 0.44908 0.21451 0.62665 0.0
C1269 C 0.42725 0.18901 0.61781 0.0
C1270 C 0.44092 0.21233 0.63998 0.0
C1271 C 0.41078 0.18465 0.64479 0.0
C1272 C 0.38809 0.15995 0.63592 0.0
H1273 H 0.35365 0.18329 0.7277 0.0
H1274 H 0.35158 0.18082 0.70367 0.0
C1275 C 0.39628 0.16204 0.62254 0.0
C1276 C 0.40419 0.18137 0.65916 0.0
H1277 H 0.39786 0.13301 0.68582 0.0
C1278 C 0.40307 0.20785 0.66582 0.0
C1279 C 0.40217 0.15396 0.66646 0.0
C1280 C 0.40471 0.12549 0.65993 0.0
C1281 C 0.40068 0.20805 0.67959 0.0
C1282 C 0.39874 0.18067 0.68688 0.0
C1283 C 0.39914 0.15385 0.6802 0.0
C1284 C 0.39877 0.18056 0.70148 0.0
C1285 C 0.40177 0.23827 0.68623 0.0
C1286 C 0.42537 0.18008 0.70825 0.0
C1287 C 0.4265 0.18119 0.72197 0.0
C1288 C 0.401 0.18281 0.72924 0.0
C1289 C 0.37391 0.18244 0.72243 0.0
C1290 C 0.37275 0.18119 0.70868 0.0
H1291 H 0.41097 0.26037 0.67949 0.0
H1292 H 0.37576 0.23122 0.68952 0.0
H1293 H 0.41854 0.24621 0.695 0.0
H1294 H 0.44566 0.17946 0.70289 0.0
H1295 H 0.44769 0.18129 0.72685 0.0
H1296 H 0.98439 0.32133 0.62337 0.0
H1297 H 0.96909 0.31336 0.64668 0.0
H1298 H 0.92062 0.20459 0.64172 0.0
H1299 H 0.93741 0.21259 0.61856 0.0
H1300 H 0.91452 0.28294 0.66158 0.0
H1301 H 0.98941 0.21885 0.66901 0.0
H1302 H 0.98969 0.23879 0.6537 0.0
H1303 H 0.95521 0.19682 0.65756 0.0
C1304 C 0.96987 0.2957 0.62719 0.0
C1305 C 0.96248 0.26758 0.61921 0.0
C1306 C 0.96125 0.29115 0.64055 0.0
C1307 C 0.94477 0.2584 0.6461 0.0
C1308 C 0.9345 0.23016 0.63781 0.0
H1309 H 0.87636 0.23401 0.72812 0.0
H1310 H 0.87688 0.22701 0.70429 0.0
C1311 C 0.94372 0.23473 0.62454 0.0
C1312 C 0.94011 0.25408 0.6606 0.0
H1313 H 0.95851 0.22088 0.68735 0.0
C1314 C 0.92407 0.2693 0.66721 0.0
C1315 C 0.95319 0.23685 0.66801 0.0
C1316 C 0.97315 0.22221 0.66174 0.0
C1317 C 0.92089 0.26797 0.68097 0.0
C1318 C 0.93293 0.24974 0.68834 0.0
C1319 C 0.94881 0.23437 0.68172 0.0
C1320 C 0.93142 0.24835 0.70297 0.0
C1321 C 0.90598 0.28742 0.68746 0.0
C1322 C 0.9614 0.25981 0.71032 0.0
C1323 C 0.96098 0.26279 0.724 0.0
C1324 C 0.9306 0.25476 0.73056 0.0
C1325 C 0.90021 0.24079 0.72331 0.0
C1326 C 0.90056 0.23721 0.70966 0.0
H1327 H 0.90707 0.30743 0.6809 0.0
H1328 H 0.87884 0.26963 0.68984 0.0
H1329 H 0.9196 0.2997 0.69671 0.0
H1330 H 0.98549 0.26816 0.70542 0.0
H1331 H 0.98484 0.27364 0.7293 0.0
H1332 H 0.38536 0.94916 0.22591 0.0
H1333 H 0.42069 0.96639 0.20611 0.0
H1334 H 0.34328 0.97528 0.18517 0.0
H1335 H 0.30761 0.95798 0.20492 0.0
H1336 H 0.37323 0.94014 0.1711 0.0
H1337 H 0.46927 0.06573 0.19172 0.0
H1338 H 0.45914 1.02915 0.20162 0.0
H1339 H 0.42728 0.04058 0.19869 0.0
C1340 C 0.37577 0.95477 0.21711 0.0
C1341 C 0.34372 0.95246 0.21705 0.0
C1342 C 0.39605 0.96463 0.2058 0.0
C1343 C 0.38471 0.97238 0.19422 0.0
C1344 C 0.35248 0.96942 0.19402 0.0
H1345 H 0.48763 0.08903 0.1266 0.0
H1346 H 0.45197 0.0609 0.14567 0.0
C1347 C 0.33221 0.95967 0.20534 0.0
C1348 C 0.40686 0.98457 0.18241 0.0
H1349 H 0.47991 0.05213 0.17055 0.0
C1350 C 0.39667 0.96451 0.17098 0.0
C1351 C 0.43733 1.01645 0.18229 0.0
C1352 C 0.44894 0.03946 0.19418 0.0
C1353 C 0.41613 0.97568 0.15938 0.0
C1354 C 0.44645 1.00763 0.15926 0.0
C1355 C 0.45677 1.02749 0.17073 0.0
C1356 C 0.46641 1.02245 0.14708 0.0
C1357 C 0.40375 0.95384 0.14721 0.0
C1358 C 0.48627 1.00998 0.14147 0.0
C1359 C 0.507 1.02625 0.13053 0.0
C1360 C 0.50783 0.05496 0.12502 0.0
C1361 C 0.48746 0.06689 0.13057 0.0
C1362 C 0.46702 0.05083 0.14147 0.0
H1363 H 0.37783 0.93147 0.14849 0.0
H1364 H 0.40348 0.96906 0.13875 0.0
H1365 H 0.4215 0.94459 0.14479 0.0
H1366 H 0.48643 0.98831 0.14576 0.0
H1367 H 0.52292 1.01692 0.12659 0.0
H1368 H 0.05582 0.46445 0.13651 0.0
H1369 H 0.08379 0.44987 0.15364 0.0
H1370 H 0.17063 0.5514 0.15206 0.0
H1371 H 0.14243 0.5665 0.13516 0.0
H1372 H 0.14418 0.45027 0.15202 0.0
H1373 H 0.15142 0.53883 0.19127 0.0
H1374 H 0.12502 0.52981 0.1769 0.0
H1375 H 0.17011 0.55868 0.17587 0.0
C1376 C 0.08073 0.48384 0.13988 0.0
C1377 C 0.09686 0.51669 0.13443 0.0
C1378 C 0.09674 0.47542 0.14966 0.0
C1379 C 0.12917 0.49962 0.15426 0.0
C1380 C 0.14533 0.53249 0.14889 0.0
H1381 H 0.25616 0.47087 0.21232 0.0
H1382 H 0.23757 0.49523 0.19494 0.0
C1383 C 0.12921 0.54102 0.13915 0.0
C1384 C 0.14626 0.48983 0.16434 0.0
H1385 H 0.17752 0.50622 0.1957 0.0
C1386 C 0.15153 0.46258 0.16155 0.0
C1387 C 0.15612 0.50608 0.17675 0.0
C1388 C 0.15018 0.53479 0.18047 0.0
C1389 C 0.16579 0.45077 0.1709 0.0
C1390 C 0.17479 0.46642 0.1834 0.0
C1391 C 0.17059 0.49434 0.18608 0.0
C1392 C 0.18621 0.45241 0.19409 0.0
C1393 C 0.1709 0.42143 0.16738 0.0
C1394 C 0.16334 0.42059 0.19947 0.0
C1395 C 0.17369 0.40682 0.20945 0.0
C1396 C 0.20721 0.42458 0.21429 0.0
C1397 C 0.2301 0.45663 0.20892 0.0
C1398 C 0.21957 0.47056 0.19896 0.0
H1399 H 0.17042 0.4176 0.15657 0.0
H1400 H 0.19546 0.42557 0.17131 0.0
H1401 H 0.15014 0.39776 0.17181 0.0
H1402 H 0.13736 0.40638 0.19594 0.0
H1403 H 0.15529 0.38217 0.21337 0.0
H1404 H 0.76883 0.79668 0.22023 0.0
H1405 H 0.73738 0.75522 0.20288 0.0
H1406 H 0.6698 0.79538 0.19922 0.0
H1407 H 0.7016 0.83733 0.21652 0.0
H1408 H 0.66493 0.70432 0.2006 0.0
H1409 H 0.71222 0.80445 0.16197 0.0
H1410 H 0.73169 0.812 0.17799 0.0
H1411 H 0.69173 0.81043 0.17602 0.0
C1412 C 0.74714 0.79653 0.21577 0.0
C1413 C 0.73745 0.82001 0.21975 0.0
C1414 C 0.7291 0.77273 0.20593 0.0
C1415 C 0.70136 0.77232 0.19974 0.0
C1416 C 0.69124 0.79539 0.20384 0.0
H1417 H 0.57853 0.61983 0.13918 0.0
H1418 H 0.5941 0.65474 0.15918 0.0
C1419 C 0.70925 0.81917 0.21374 0.0
C1420 C 0.68459 0.74902 0.18849 0.0
H1421 H 0.67789 0.74787 0.15506 0.0
C1422 C 0.66738 0.71374 0.19064 0.0
C1423 C 0.68808 0.76149 0.17553 0.0
C1424 C 0.70709 0.79913 0.17263 0.0
C1425 C 0.65421 0.69059 0.18011 0.0
C1426 C 0.65829 0.70312 0.16713 0.0
C1427 C 0.67474 0.73837 0.16503 0.0
C1428 C 0.64829 0.68044 0.15546 0.0
C1429 C 0.63729 0.65298 0.18286 0.0
C1430 C 0.67353 0.68335 0.14675 0.0
C1431 C 0.66477 0.6636 0.13535 0.0
C1432 C 0.63048 0.64057 0.13233 0.0
C1433 C 0.60517 0.63725 0.1412 0.0
C1434 C 0.61402 0.65709 0.15266 0.0
H1435 H 0.64098 0.64772 0.1932 0.0
H1436 H 0.60957 0.64099 0.18101 0.0
H1437 H 0.64743 0.6408 0.17621 0.0
H1438 H 0.70013 0.7012 0.14872 0.0
H1439 H 0.68499 0.66685 0.1288 0.0
H1440 H 1.0334 0.50783 0.87401 0.0
H1441 H 1.00107 0.46468 0.85726 0.0
H1442 H 0.05458 0.41204 0.8672 0.0
H1443 H 0.08685 0.45477 0.88393 0.0
H1444 H 1.02773 0.44697 0.8355 0.0
H1445 H 0.95376 0.33611 0.86809 0.0
H1446 H 0.9745 0.37947 0.87398 0.0
H1447 H 0.99868 0.35861 0.87134 0.0
C1448 C 1.03827 0.48705 0.87265 0.0
C1449 C 0.06274 0.48479 0.88034 0.0
C1450 C 1.01968 0.46236 0.8631 0.0
C1451 C 1.02495 0.4348 0.86117 0.0
C1452 C 1.04954 0.43266 0.86873 0.0
H1453 H 0.97996 0.27601 0.80636 0.0
H1454 H 0.99202 0.31144 0.82597 0.0
C1455 C 0.06821 0.45735 0.87822 0.0
C1456 C 1.00628 0.40925 0.85074 0.0
H1457 H 0.95556 0.32391 0.84528 0.0
C1458 C 1.01151 0.42012 0.83763 0.0
C1459 C 0.98517 0.37425 0.85357 0.0
C1460 C 0.97737 0.36137 0.86751 0.0
C1461 C 0.99757 0.39679 0.82721 0.0
C1462 C 0.97719 0.36161 0.83001 0.0
C1463 C 0.97113 0.35083 0.84315 0.0
C1464 C 0.96423 0.3357 0.81936 0.0
C1465 C 1.00622 0.40992 0.8133 0.0
C1466 C 0.94291 0.33605 0.80948 0.0
C1467 C 0.93612 0.3159 0.79824 0.0
C1468 C 0.9502 0.29484 0.79672 0.0
C1469 C 0.96873 0.29203 0.8072 0.0
C1470 C 0.97578 0.31239 0.81841 0.0
H1471 H 1.02803 0.43642 0.81292 0.0
H1472 H 1.01256 0.39353 0.80725 0.0
H1473 H 0.98392 0.40972 0.8088 0.0
H1474 H 0.93285 0.3531 0.81018 0.0
H1475 H 0.92103 0.31782 0.7905 0.0
H1476 H 0.64945 0.58516 0.87666 0.0
H1477 H 0.68986 0.60005 0.8583 0.0
H1478 H 0.74071 0.70521 0.87038 0.0
H1479 H 0.70032 0.69061 0.88844 0.0
H1480 H 0.71727 0.69394 0.84449 0.0
H1481 H 0.7916 0.62925 0.85388 0.0
H1482 H 0.74712 0.60723 0.8582 0.0
H1483 H 0.77646 0.64488 0.86701 0.0
C1484 C 0.66985 0.61124 0.87556 0.0
C1485 C 0.67185 0.63673 0.88397 0.0
C1486 C 0.69302 0.61973 0.86512 0.0
C1487 C 0.7186 0.65375 0.86304 0.0
C1488 C 0.72138 0.67882 0.87182 0.0
H1489 H 0.87594 0.74296 0.80166 0.0
H1490 H 0.84646 0.72473 0.82296 0.0
C1491 C 0.69822 0.67043 0.88213 0.0
C1492 C 0.73944 0.66426 0.85082 0.0
H1493 H 0.80028 0.65723 0.83358 0.0
C1494 C 0.73545 0.68592 0.84214 0.0
C1495 C 0.76346 0.65416 0.84782 0.0
C1496 C 0.77022 0.63267 0.85719 0.0
C1497 C 0.75439 0.69738 0.83049 0.0
C1498 C 0.77762 0.68643 0.82725 0.0
C1499 C 0.78221 0.66531 0.83603 0.0
C1500 C 0.79612 0.69573 0.81451 0.0
C1501 C 0.7495 0.72138 0.82177 0.0
C1502 C 0.77771 0.68493 0.80275 0.0
C1503 C 0.7943 0.69542 0.79067 0.0
C1504 C 0.82988 0.71676 0.79002 0.0
C1505 C 0.84854 0.72671 0.80181 0.0
C1506 C 0.83175 0.71622 0.81398 0.0
H1507 H 0.73821 0.73447 0.82724 0.0
H1508 H 0.77404 0.7409 0.8174 0.0
H1509 H 0.73194 0.70671 0.81364 0.0
H1510 H 0.75028 0.66868 0.80292 0.0
H1511 H 0.77901 0.68701 0.78184 0.0
H1512 H 0.47485 0.23551 0.80109 0.0
H1513 H 0.50535 0.22427 0.81841 0.0
H1514 H 0.42279 0.12065 0.82102 0.0
H1515 H 0.3922 0.1315 0.80379 0.0
H1516 H 0.4833 0.19882 0.84501 0.0
H1517 H 0.50961 0.11363 0.81454 0.0
H1518 H 0.49596 0.14126 0.80759 0.0
H1519 H 0.46538 0.10133 0.81478 0.0
C1520 C 0.4631 0.21036 0.80539 0.0
C1521 C 0.43111 0.18436 0.80098 0.0
C1522 C 0.48059 0.20401 0.81528 0.0
C1523 C 0.46653 0.17151 0.82086 0.0
C1524 C 0.43433 0.14578 0.8167 0.0
H1525 H 0.4818 0.0767 0.88887 0.0
H1526 H 0.47164 0.10866 0.87207 0.0
C1527 C 0.4168 0.1521 0.80688 0.0
C1528 C 0.48519 0.16411 0.83107 0.0
H1529 H 0.51543 0.1107 0.8379 0.0
C1530 C 0.49082 0.17995 0.84341 0.0
C1531 C 0.49554 0.13992 0.82891 0.0
C1532 C 0.49165 0.12327 0.8157 0.0
C1533 C 0.50458 0.1706 0.85388 0.0
C1534 C 0.51269 0.14471 0.85193 0.0
C1535 C 0.50904 0.13044 0.83939 0.0
C1536 C 0.52121 0.12926 0.86303 0.0
C1537 C 0.5096 0.18785 0.86703 0.0
C1538 C 0.55259 0.13033 0.86356 0.0
C1539 C 0.55861 0.11213 0.87326 0.0
C1540 C 0.53304 0.09205 0.88237 0.0
C1541 C 0.50199 0.09175 0.88196 0.0
C1542 C 0.49621 0.11025 0.87242 0.0
H1543 H 0.51127 0.21296 0.86606 0.0
H1544 H 0.48763 0.17162 0.87348 0.0
H1545 H 0.53304 0.19149 0.8719 0.0
H1546 H 0.57211 0.14465 0.85632 0.0
H1547 H 0.58275 0.11279 0.87334 0.0
H1548 H 0.96557 0.27822 0.54316 0.0
H1549 H 0.99086 0.28148 0.52152 0.0
H1550 H 0.08585 0.30641 0.54001 0.0
H1551 H 0.06098 0.30365 0.56147 0.0
H1552 H 1.04472 0.3401 0.5121 0.0
H1553 H 0.07818 0.23879 0.51206 0.0
H1554 H 1.04817 0.23939 0.52356 0.0
H1555 H 0.09319 0.26533 0.52641 0.0
C1556 C 0.99156 0.28348 0.54263 0.0
C1557 C 1.01108 0.29007 0.55411 0.0
C1558 C 1.006 0.28537 0.53025 0.0
C1559 C 1.04015 0.29368 0.52912 0.0
C1560 C 0.05921 0.29897 0.5406 0.0
H1561 H 0.18288 0.40714 0.46808 0.0
H1562 H 0.15323 0.38298 0.48877 0.0
C1563 C 1.04485 0.29721 0.55293 0.0
C1564 C 0.05718 0.30118 0.51606 0.0
H1565 H 0.10688 0.28337 0.4961 0.0
C1566 C 0.05792 0.32736 0.50854 0.0
C1567 C 0.07438 0.28454 0.51137 0.0
C1568 C 0.07321 0.25522 0.51871 0.0
C1569 C 0.07628 0.33813 0.49673 0.0
C1570 C 0.09479 0.32261 0.49236 0.0
C1571 C 0.09309 0.29556 0.49958 0.0
C1572 C 0.11613 0.33471 0.48032 0.0
C1573 C 0.07594 0.36627 0.48903 0.0
C1574 C 0.10621 0.3149 0.46884 0.0
C1575 C 0.12322 0.32868 0.45696 0.0
C1576 C 0.15039 0.36241 0.45636 0.0
C1577 C 0.16191 0.38114 0.46812 0.0
C1578 C 0.14488 0.36744 0.47997 0.0
H1579 H 0.0548 0.3703 0.49213 0.0
H1580 H 0.10028 0.39035 0.49066 0.0
H1581 H 0.0735 0.36058 0.47834 0.0
H1582 H 0.08425 0.28945 0.46892 0.0
H1583 H 0.11408 0.31345 0.44818 0.0
H1584 H 0.72576 0.77675 0.45726 0.0
H1585 H 0.76025 0.76463 0.47225 0.0
H1586 H 0.83008 0.87218 0.47691 0.0
H1587 H 0.79477 0.88447 0.46228 0.0
H1588 H 0.8276 0.78059 0.47159 0.0
H1589 H 0.80305 0.84084 0.5146 0.0
H1590 H 0.77959 0.83225 0.49945 0.0
H1591 H 0.82193 0.86826 0.50069 0.0
C1592 C 0.7485 0.79784 0.46146 0.0
C1593 C 0.75775 0.83158 0.45853 0.0
C1594 C 0.76829 0.79086 0.46997 0.0
C1595 C 0.79756 0.81747 0.47582 0.0
C1596 C 0.80731 0.85123 0.47268 0.0
H1597 H 0.92119 0.80558 0.53902 0.0
H1598 H 0.90363 0.82574 0.51998 0.0
C1599 C 0.78734 0.85822 0.46422 0.0
C1600 C 0.81685 0.80955 0.48558 0.0
H1601 H 0.83849 0.81781 0.51806 0.0
C1602 C 0.83016 0.78888 0.48174 0.0
C1603 C 0.82018 0.82038 0.49883 0.0
C1604 C 0.80522 0.84141 0.50371 0.0
C1605 C 0.84634 0.77844 0.49081 0.0
C1606 C 0.84895 0.78865 0.5041 0.0
C1607 C 0.83653 0.81009 0.50785 0.0
C1608 C 0.86254 0.77589 0.51449 0.0
C1609 C 0.86047 0.75656 0.48612 0.0
C1610 C 0.84575 0.7411 0.5176 0.0
C1611 C 0.85547 0.72966 0.52862 0.0
C1612 C 0.88197 0.75288 0.53679 0.0
C1613 C 0.89995 0.78735 0.53321 0.0
C1614 C 0.89018 0.79882 0.52224 0.0
H1615 H 0.86516 0.759 0.47536 0.0
H1616 H 0.88462 0.76336 0.49124 0.0
H1617 H 0.84183 0.72952 0.48829 0.0
H1618 H 0.82402 0.72299 0.51189 0.0
H1619 H 0.84101 0.70291 0.53111 0.0
H1620 H 0.29738 0.93717 0.47825 0.0
H1621 H 0.31813 0.97413 0.49761 0.0
H1622 H 0.29624 0.04564 0.47871 0.0
H1623 H 0.27559 1.00902 0.45931 0.0
H1624 H 0.36213 0.07512 0.48895 0.0
H1625 H 0.26604 0.99408 0.52617 0.0
H1626 H 0.28485 0.97337 0.51737 0.0
H1627 H 0.25898 0.98647 0.50872 0.0
C1628 C 0.29669 0.9606 0.47824 0.0
C1629 C 0.28494 0.97015 0.46718 0.0
C1630 C 0.30835 0.9816 0.48936 0.0
C1631 C 0.30837 1.01246 0.48967 0.0
C1632 C 0.29631 1.02186 0.47871 0.0
H1633 H 0.37378 0.17083 0.54995 0.0
H1634 H 0.34185 0.12954 0.53249 0.0
C1635 C 0.28456 1.00087 0.46761 0.0
C1636 C 0.32313 0.03607 0.50101 0.0
H1637 H 0.31578 0.04332 0.53417 0.0
C1638 C 0.35182 0.06824 0.49881 0.0
C1639 C 0.30957 1.02711 0.51387 0.0
C1640 C 0.27797 0.99351 0.51671 0.0
C1641 C 0.36781 0.0913 0.50917 0.0
C1642 C 0.35477 0.08202 0.52203 0.0
C1643 C 0.32573 0.05019 0.52426 0.0
C1644 C 0.37193 0.10496 0.53329 0.0
C1645 C 0.39888 0.12538 0.50639 0.0
C1646 C 0.39911 0.10446 0.53954 0.0
C1647 C 0.41722 0.12781 0.54951 0.0
C1648 C 0.40835 0.15198 0.55346 0.0
C1649 C 0.38082 0.15214 0.54727 0.0
C1650 C 0.36263 0.12867 0.5373 0.0
H1651 H 0.40495 0.12943 0.49574 0.0
H1652 H 0.3949 0.14607 0.51012 0.0
H1653 H 0.42111 0.12728 0.51167 0.0
H1654 H 0.40672 0.08643 0.5365 0.0
H1655 H 0.43838 0.12713 0.55405 0.0
H1656 H 0.59326 0.47737 0.06574 0.0
H1657 H 0.57595 0.41727 0.06688 0.0
H1658 H 0.56229 0.41844 0.10877 0.0
H1659 H 0.58004 0.47905 0.10772 0.0
H1660 H 0.60336 0.39217 0.10162 0.0
H1661 H 0.48507 0.33042 0.0721 0.0
H1662 H 0.52009 0.36522 0.06379 0.0
H1663 H 0.50302 0.37313 0.07846 0.0
C1664 C 0.58592 0.46477 0.07518 0.0
C1665 C 0.58807 0.48314 0.08664 0.0
C1666 C 0.57581 0.43022 0.0758 0.0
C1667 C 0.56743 0.41308 0.08788 0.0
C1668 C 0.56843 0.43103 0.09931 0.0
H1669 H 0.53736 0.21505 0.11126 0.0
H1670 H 0.53978 0.26992 0.11051 0.0
C1671 C 0.57842 0.46567 0.09869 0.0
C1672 C 0.56083 0.3775 0.08868 0.0
H1673 H 0.51116 0.29708 0.07639 0.0
C1674 C 0.58293 0.3713 0.09623 0.0
C1675 C 0.53443 0.35028 0.08152 0.0
C1676 C 0.50909 0.35494 0.0736 0.0
C1677 C 0.57994 0.339 0.09658 0.0
C1678 C 0.55362 0.31178 0.08939 0.0
C1679 C 0.53134 0.31788 0.08189 0.0
C1680 C 0.54902 0.27691 0.08958 0.0
C1681 C 0.60576 0.33465 0.10432 0.0
C1682 C 0.55178 0.26164 0.07796 0.0
C1683 C 0.55003 0.22993 0.07834 0.0
C1684 C 0.54538 0.21293 0.09035 0.0
C1685 C 0.54118 0.2276 0.10186 0.0
C1686 C 0.5428 0.25912 0.10146 0.0
H1687 H 0.62917 0.35942 0.10627 0.0
H1688 H 0.59458 0.32283 0.11394 0.0
H1689 H 0.61301 0.31783 0.09906 0.0
H1690 H 0.55637 0.27474 0.06865 0.0
H1691 H 0.55338 0.21926 0.06932 0.0
H1692 H 0.67486 0.18312 0.10316 0.0
H1693 H 0.73499 0.22741 0.10409 0.0
H1694 H 0.73409 0.24451 0.06249 0.0
H1695 H 0.67395 0.20063 0.06148 0.0
H1696 H 0.79539 0.23933 0.09064 0.0
H1697 H 0.76034 0.33712 0.07914 0.0
H1698 H 0.72918 0.29422 0.08374 0.0
H1699 H 0.74629 0.30321 0.06736 0.0
C1700 C 0.68755 0.1959 0.09416 0.0
C1701 C 0.66941 0.18859 0.08227 0.0
C1702 C 0.72196 0.22123 0.09471 0.0
C1703 C 0.73886 0.23972 0.08341 0.0
C1704 C 0.7214 0.23101 0.07138 0.0
H1705 H 0.9567 0.39789 0.07993 0.0
H1706 H 0.902 0.34557 0.0758 0.0
C1707 C 0.68701 0.20579 0.07082 0.0
C1708 C 0.77386 0.26961 0.08439 0.0
H1709 H 0.81869 0.35618 0.0815 0.0
C1710 C 0.8006 0.26488 0.08857 0.0
C1711 C 0.7805 0.30298 0.08183 0.0
C1712 C 0.75258 0.3099 0.07787 0.0
C1713 C 0.83377 0.29266 0.09031 0.0
C1714 C 0.84037 0.32598 0.08769 0.0
C1715 C 0.81366 0.3306 0.0834 0.0
C1716 C 0.87403 0.35674 0.09028 0.0
C1717 C 0.86124 0.28632 0.09534 0.0
C1718 C 0.8764 0.38052 0.09964 0.0
C1719 C 0.90735 0.41025 0.10194 0.0
C1720 C 0.9367 0.41701 0.09489 0.0
C1721 C 0.9345 0.39322 0.08553 0.0
C1722 C 0.90334 0.36329 0.08323 0.0
H1723 H 0.85065 0.2601 0.09922 0.0
H1724 H 0.87897 0.28983 0.08719 0.0
H1725 H 0.87615 0.30473 0.10323 0.0
H1726 H 0.85415 0.37609 0.10517 0.0
H1727 H 0.90821 0.4281 0.1092 0.0
H1728 H 0.7507 0.60962 0.07867 0.0
H1729 H 0.8032 0.60701 0.08024 0.0
H1730 H 0.78164 0.57837 0.12101 0.0
H1731 H 0.72892 0.58021 0.11941 0.0
H1732 H 0.86013 0.64152 0.09603 0.0
H1733 H 0.79495 0.50302 0.10633 0.0
H1734 H 0.77241 0.52375 0.10067 0.0
H1735 H 0.78436 0.52656 0.11766 0.0
C1736 C 0.75721 0.60277 0.08796 0.0
C1737 C 0.73561 0.59484 0.09889 0.0
C1738 C 0.78722 0.60133 0.08885 0.0
C1739 C 0.79611 0.59189 0.10068 0.0
C1740 C 0.77497 0.58491 0.1117 0.0
H1741 H 0.96185 0.55295 0.11938 0.0
H1742 H 0.91687 0.56747 0.12171 0.0
C1743 C 0.74493 0.58617 0.11079 0.0
C1744 C 0.82732 0.58912 0.10146 0.0
H1745 H 0.855 0.53322 0.10763 0.0
C1746 C 0.859 0.61784 0.09857 0.0
C1747 C 0.82591 0.55825 0.10483 0.0
C1748 C 0.79258 0.52604 0.10743 0.0
C1749 C 0.88923 0.61652 0.09895 0.0
C1750 C 0.88773 0.58556 0.10217 0.0
C1751 C 0.85616 0.55703 0.10529 0.0
C1752 C 0.91801 0.58127 0.1013 0.0
C1753 C 0.92254 0.6483 0.09595 0.0
C1754 C 0.93393 0.58469 0.08913 0.0
C1755 C 0.95944 0.57635 0.08778 0.0
C1756 C 0.96964 0.56436 0.09857 0.0
C1757 C 0.95481 0.56241 0.11091 0.0
C1758 C 0.92898 0.57052 0.11224 0.0
H1759 H 0.92088 0.67158 0.09753 0.0
H1760 H 0.94341 0.64991 0.10212 0.0
H1761 H 0.9292 0.64779 0.08549 0.0
H1762 H 0.92554 0.59232 0.0805 0.0
H1763 H 0.97028 0.57807 0.07813 0.0
H1764 H 0.49124 0.59677 0.94306 0.0
H1765 H 0.43071 0.5774 0.94075 0.0
H1766 H 0.43877 0.57108 0.89875 0.0
H1767 H 0.49951 0.59065 0.90095 0.0
H1768 H 0.40933 0.60982 0.90687 0.0
H1769 H 0.34754 0.48444 0.93178 0.0
H1770 H 0.38061 0.51844 0.94118 0.0
H1771 H 0.39108 0.50521 0.92609 0.0
C1772 C 0.48007 0.59069 0.93334 0.0
C1773 C 0.5003 0.59534 0.92219 0.0
C1774 C 0.44536 0.57942 0.93204 0.0
C1775 C 0.4301 0.57248 0.91959 0.0
C1776 C 0.44998 0.57612 0.90846 0.0
H1777 H 0.23253 0.53977 0.89324 0.0
H1778 H 0.28904 0.54558 0.89417 0.0
C1779 C 0.4847 0.58723 0.90975 0.0
C1780 C 0.39427 0.56441 0.9181 0.0
H1781 H 0.31241 0.50821 0.92728 0.0
C1782 C 0.38807 0.58741 0.91121 0.0
C1783 C 0.36663 0.53534 0.92387 0.0
C1784 C 0.37163 0.50924 0.93106 0.0
C1785 C 0.35515 0.58268 0.91022 0.0
C1786 C 0.32743 0.55363 0.91602 0.0
C1787 C 0.3336 0.53042 0.92281 0.0
C1788 C 0.29206 0.54745 0.91541 0.0
C1789 C 0.35063 0.60955 0.9034 0.0
C1790 C 0.27425 0.54503 0.92703 0.0
C1791 C 0.24175 0.54126 0.92651 0.0
C1792 C 0.22647 0.5398 0.91436 0.0
C1793 C 0.24381 0.54108 0.90274 0.0
C1794 C 0.27619 0.54463 0.90326 0.0
H1795 H 0.37499 0.63411 0.90269 0.0
H1796 H 0.34126 0.60095 0.89326 0.0
H1797 H 0.33177 0.61401 0.90863 0.0
H1798 H 0.28586 0.54695 0.93651 0.0
H1799 H 0.22894 0.54029 0.93562 0.0
H1800 H 0.58098 0.96999 0.90395 0.0
H1801 H 0.59865 0.92716 0.90395 0.0
H1802 H 0.59309 0.92302 0.94624 0.0
H1803 H 0.57521 0.96542 0.94635 0.0
H1804 H 0.65294 0.9226 0.9165 0.0
H1805 H 0.52571 0.82454 0.93483 0.0
H1806 H 0.53385 0.86487 0.92839 0.0
H1807 H 0.54701 0.86224 0.94477 0.0
C1808 C 0.58409 0.96041 0.91327 0.0
C1809 C 0.5763 0.97092 0.92514 0.0
C1810 C 0.59411 0.93585 0.91325 0.0
C1811 C 0.59646 0.92131 0.92508 0.0
C1812 C 0.59074 0.9333 0.93697 0.0
H1813 H 0.61715 0.74327 0.94138 0.0
H1814 H 0.61458 0.79573 0.94374 0.0
C1815 C 0.58068 0.95774 0.93701 0.0
C1816 C 0.60313 0.89245 0.92499 0.0
H1817 H 0.56707 0.80813 0.93266 0.0
C1818 C 0.6342 0.89757 0.92004 0.0
C1819 C 0.5787 0.85978 0.92965 0.0
C1820 C 0.54431 0.85229 0.93461 0.0
C1821 C 0.64157 0.871 0.9197 0.0
C1822 C 0.61693 0.8382 0.9242 0.0
C1823 C 0.58605 0.83325 0.92929 0.0
C1824 C 0.62169 0.80818 0.92303 0.0
C1825 C 0.67587 0.87844 0.91469 0.0
C1826 C 0.6266 0.79769 0.91064 0.0
C1827 C 0.62813 0.76789 0.90929 0.0
C1828 C 0.62453 0.74771 0.92029 0.0
C1829 C 0.62023 0.75844 0.93275 0.0
C1830 C 0.61867 0.78834 0.93409 0.0
H1831 H 0.69516 0.90588 0.91563 0.0
H1832 H 0.68506 0.8634 0.92005 0.0
H1833 H 0.67372 0.87163 0.90411 0.0
H1834 H 0.62815 0.81197 0.90191 0.0
H1835 H 0.6312 0.76017 0.89955 0.0
H1836 H 0.42289 0.91717 0.89472 0.0
H1837 H 0.37115 0.86119 0.89519 0.0
H1838 H 0.3661 0.8685 0.9373 0.0
H1839 H 0.41759 0.92497 0.93682 0.0
H1840 H 0.35982 0.80353 0.90686 0.0
H1841 H 0.2695 0.83971 0.92731 0.0
H1842 H 0.31109 0.87077 0.9213 0.0
H1843 H 0.30629 0.85286 0.93745 0.0
C1844 C 0.41057 0.907 0.90408 0.0
C1845 C 0.42424 0.9256 0.91573 0.0
C1846 C 0.38098 0.87492 0.90433 0.0
C1847 C 0.36421 0.86062 0.91625 0.0
C1848 C 0.37792 0.87918 0.92793 0.0
H1849 H 0.20135 0.66336 0.9409 0.0
H1850 H 0.24634 0.72279 0.93892 0.0
C1851 C 0.40752 0.9114 0.92767 0.0
C1852 C 0.33338 0.82575 0.91644 0.0
H1853 H 0.25015 0.78033 0.92634 0.0
C1854 C 0.33578 0.79858 0.91102 0.0
C1855 C 0.30184 0.81906 0.92184 0.0
C1856 C 0.29682 0.84717 0.92719 0.0
C1857 C 0.30802 0.76501 0.91117 0.0
C1858 C 0.27666 0.75828 0.91671 0.0
C1859 C 0.27412 0.78544 0.92205 0.0
C1860 C 0.24687 0.72298 0.91768 0.0
C1861 C 0.31285 0.73682 0.90576 0.0
C1862 C 0.23116 0.70341 0.90639 0.0
C1863 C 0.20512 0.66925 0.90748 0.0
C1864 C 0.19433 0.65397 0.91991 0.0
C1865 C 0.20905 0.67417 0.93117 0.0
C1866 C 0.23485 0.70825 0.93006 0.0
H1867 H 0.34018 0.74505 0.90442 0.0
H1868 H 0.30114 0.71437 0.91236 0.0
H1869 H 0.30019 0.72879 0.89604 0.0
H1870 H 0.23956 0.71434 0.89671 0.0
H1871 H 0.19444 0.6545 0.89861 0.0
H1872 H 0.23297 0.78826 0.40241 0.0
H1873 H 0.2172 0.72843 0.40199 0.0
H1874 H 0.20204 0.72255 0.44395 0.0
H1875 H 0.21748 0.78249 0.44444 0.0
H1876 H 0.253 0.7032 0.4149 0.0
H1877 H 0.11828 0.6352 0.43128 0.0
H1878 H 0.13946 0.67867 0.42557 0.0
H1879 H 0.14677 0.66914 0.44196 0.0
C1880 C 0.22563 0.77414 0.41153 0.0
C1881 C 0.22657 0.79028 0.42347 0.0
C1882 C 0.21667 0.73988 0.41127 0.0
C1883 C 0.20823 0.72083 0.42291 0.0
C1884 C 0.20785 0.73648 0.43479 0.0
H1885 H 0.18027 0.52281 0.4433 0.0
H1886 H 0.18313 0.57806 0.44301 0.0
C1887 C 0.21679 0.77083 0.43507 0.0
C1888 C 0.20286 0.68571 0.4227 0.0
H1889 H 0.14588 0.60263 0.43002 0.0
C1890 C 0.22946 0.68118 0.41811 0.0
C1891 C 0.17227 0.65699 0.427 0.0
C1892 C 0.14241 0.66005 0.43163 0.0
C1893 C 0.22659 0.64895 0.41789 0.0
C1894 C 0.19593 0.62016 0.42211 0.0
C1895 C 0.16931 0.62465 0.42673 0.0
C1896 C 0.19149 0.58539 0.42205 0.0
C1897 C 0.25684 0.64623 0.41348 0.0
C1898 C 0.19424 0.57059 0.41031 0.0
C1899 C 0.1927 0.53905 0.41046 0.0
C1900 C 0.18808 0.52157 0.42234 0.0
C1901 C 0.18389 0.53571 0.434 0.0
C1902 C 0.18551 0.56728 0.43385 0.0
H1903 H 0.28083 0.67121 0.41389 0.0
H1904 H 0.25989 0.62785 0.41965 0.0
H1905 H 0.25294 0.63713 0.40316 0.0
H1906 H 0.19814 0.5837 0.40104 0.0
H1907 H 0.19588 0.52871 0.40132 0.0
H1908 H 0.5571 0.72528 0.44823 0.0
H1909 H 0.5023 0.67374 0.4444 0.0
H1910 H 0.5431 0.65158 0.40995 0.0
H1911 H 0.59832 0.70324 0.41381 0.0
H1912 H 0.46349 0.66241 0.42161 0.0
H1913 H 0.49315 0.55926 0.42954 0.0
H1914 H 0.52017 0.60208 0.43553 0.0
H1915 H 0.52094 0.59251 0.41846 0.0
C1916 C 0.55458 0.70916 0.43995 0.0
C1917 C 0.58194 0.71822 0.43131 0.0
C1918 C 0.52325 0.67974 0.43777 0.0
C1919 C 0.51866 0.65867 0.42695 0.0
C1920 C 0.54623 0.66716 0.41848 0.0
H1921 H 0.31879 0.51827 0.39433 0.0
H1922 H 0.37916 0.56036 0.39688 0.0
C1923 C 0.57769 0.69671 0.42066 0.0
C1924 C 0.48425 0.62947 0.42407 0.0
H1925 H 0.43782 0.54274 0.42176 0.0
C1926 C 0.4579 0.63625 0.42161 0.0
C1927 C 0.477 0.59537 0.42417 0.0
C1928 C 0.50417 0.58665 0.42716 0.0
C1929 C 0.42449 0.60992 0.41927 0.0
C1930 C 0.41725 0.57582 0.4192 0.0
C1931 C 0.44354 0.56893 0.42169 0.0
C1932 C 0.38213 0.54716 0.41704 0.0
C1933 C 0.39701 0.61878 0.41719 0.0
C1934 C 0.36416 0.52476 0.42734 0.0
C1935 C 0.32961 0.50056 0.42592 0.0
C1936 C 0.31244 0.4983 0.41413 0.0
C1937 C 0.3311 0.51947 0.40357 0.0
C1938 C 0.36561 0.54363 0.40502 0.0
H1939 H 0.40532 0.64527 0.42028 0.0
H1940 H 0.3904 0.6163 0.4066 0.0
H1941 H 0.37364 0.60115 0.42274 0.0
H1942 H 0.37649 0.52699 0.43669 0.0
H1943 H 0.31607 0.48458 0.43423 0.0
H1944 H 0.60442 0.86348 0.45002 0.0
H1945 H 0.55881 0.87729 0.45218 0.0
H1946 H 0.54803 0.87396 0.41005 0.0
H1947 H 0.59286 0.85981 0.40784 0.0
H1948 H 0.54826 0.92945 0.442 0.0
H1949 H 0.45258 0.80337 0.42229 0.0
H1950 H 0.4944 0.81285 0.42743 0.0
H1951 H 0.4884 0.82647 0.41159 0.0
C1952 C 0.59264 0.86618 0.44122 0.0
C1953 C 0.6021 0.86016 0.42876 0.0
C1954 C 0.56649 0.87397 0.44247 0.0
C1955 C 0.54933 0.87585 0.43129 0.0
C1956 C 0.56017 0.87179 0.41885 0.0
H1957 H 0.37578 0.90031 0.41374 0.0
H1958 H 0.42729 0.89578 0.41315 0.0
C1959 C 0.58604 0.86388 0.4176 0.0
C1960 C 0.51934 0.88079 0.43251 0.0
H1961 H 0.43508 0.84431 0.42445 0.0
C1962 C 0.52345 0.91074 0.43826 0.0
C1963 C 0.48685 0.85635 0.42765 0.0
C1964 C 0.4801 0.8228 0.42201 0.0
C1965 C 0.4963 0.91733 0.43891 0.0
C1966 C 0.464 0.89312 0.43383 0.0
C1967 C 0.45984 0.86302 0.42824 0.0
C1968 C 0.434 0.89822 0.43425 0.0
C1969 C 0.50268 0.95059 0.44469 0.0
C1970 C 0.42047 0.9011 0.44629 0.0
C1971 C 0.39097 0.90363 0.44664 0.0
C1972 C 0.37432 0.90326 0.43496 0.0
C1973 C 0.3881 0.90083 0.42291 0.0
C1974 C 0.41752 0.89817 0.42256 0.0
H1975 H 0.53027 0.96976 0.44504 0.0
H1976 H 0.48943 0.96116 0.43893 0.0
H1977 H 0.49269 0.94621 0.45488 0.0
H1978 H 0.4322 0.9005 0.45546 0.0
H1979 H 0.38085 0.90524 0.45609 0.0
H1980 H 0.87581 0.82197 0.25795 0.0
H1981 H 0.92743 0.81753 0.25924 0.0
H1982 H 0.989 0.92488 0.25113 0.0
H1983 H 0.93778 0.92907 0.2494 0.0
H1984 H 1.00878 0.88978 0.23647 0.0
H1985 H 0.99675 0.84667 0.28822 0.0
H1986 H 0.96124 0.8196 0.27791 0.0
H1987 H 0.97045 0.86213 0.28146 0.0
C1988 C 0.90043 0.84458 0.25655 0.0
C1989 C 0.90282 0.87587 0.2536 0.0
C1990 C 0.92993 0.84209 0.25735 0.0
C1991 C 0.96228 0.87097 0.25543 0.0
C1992 C 0.96446 0.9022 0.25263 0.0
H1993 H 0.16343 0.92664 0.27758 0.0
H1994 H 0.10362 0.90986 0.27608 0.0
C1995 C 0.93512 0.9046 0.25168 0.0
C1996 C 0.99408 0.86912 0.25594 0.0
H1997 H 1.04374 0.85242 0.27622 0.0
C1998 C 1.01632 0.88137 0.24513 0.0
C1999 C 1.00403 0.85829 0.26727 0.0
C2000 C 0.98207 0.8462 0.27943 0.0
C2001 C 1.0486 0.88437 0.24548 0.0
C2002 C 0.05867 0.87369 0.25683 0.0
C2003 C 1.03595 0.86031 0.26748 0.0
C2004 C 0.09394 0.87984 0.2584 0.0
C2005 C 0.07226 0.90075 0.23396 0.0
C2006 C 0.10839 0.86751 0.24926 0.0
C2007 C 0.14301 0.87749 0.24999 0.0
C2008 C 0.16365 0.89957 0.26001 0.0
C2009 C 0.14845 0.90981 0.26966 0.0
C2010 C 0.11409 0.90016 0.26884 0.0
H2011 H 0.06364 0.91457 0.22749 0.0
H2012 H 0.09849 0.91896 0.23734 0.0
H2013 H 0.0731 0.88078 0.22797 0.0
H2014 H 0.09318 0.85099 0.24132 0.0
H2015 H 0.15382 0.86889 0.24246 0.0
H2016 H 0.3206 0.07086 0.25403 0.0
H2017 H 0.31818 0.12366 0.25363 0.0
H2018 H 0.22107 0.07069 0.23405 0.0
H2019 H 0.22319 1.01801 0.23455 0.0
H2020 H 0.31204 0.16157 0.23278 0.0
H2021 H 0.20075 0.11146 0.26625 0.0
H2022 H 0.22523 0.0906 0.26403 0.0
H2023 H 0.19407 0.08548 0.25201 0.0
C2024 C 0.29879 0.07055 0.24961 0.0
C2025 C 0.27198 0.04018 0.24441 0.0
C2026 C 0.29746 0.10076 0.24936 0.0
C2027 C 0.26921 0.10118 0.24398 0.0
C2028 C 0.24286 0.07102 0.23848 0.0
H2029 H 0.2463 0.27874 0.22665 0.0
H2030 H 0.25678 0.2309 0.22457 0.0
C2031 C 0.24418 0.04089 0.23872 0.0
C2032 C 0.26676 0.13278 0.24438 0.0
H2033 H 0.21805 0.16466 0.2563 0.0
C2034 C 0.29151 0.16228 0.23793 0.0
C2035 C 0.24019 0.13395 0.25121 0.0
C2036 C 0.2137 0.10382 0.25888 0.0
C2037 C 0.29017 0.19263 0.23801 0.0
C2038 C 0.26318 0.19352 0.24462 0.0
C2039 C 0.23863 0.16407 0.25113 0.0
C2040 C 0.26044 0.22494 0.2455 0.0
C2041 C 0.31807 0.2237 0.23128 0.0
C2042 C 0.25924 0.23788 0.2579 0.0
C2043 C 0.25314 0.26499 0.2591 0.0
C2044 C 0.24798 0.28003 0.24793 0.0
C2045 C 0.25052 0.26805 0.23545 0.0
C2046 C 0.25654 0.24066 0.23425 0.0
H2047 H 0.34086 0.22132 0.22941 0.0
H2048 H 0.3086 0.22704 0.22168 0.0
H2049 H 0.32578 0.2469 0.23726 0.0
H2050 H 0.26223 0.22642 0.26674 0.0
H2051 H 0.25147 0.27351 0.26887 0.0
H2052 H 0.88656 0.99468 0.23218 0.0
H2053 H 0.93156 0.05458 0.23085 0.0
H2054 H 0.90664 0.0718 0.26995 0.0
H2055 H 0.86238 1.01198 0.27148 0.0
H2056 H 0.93541 0.11742 0.23352 0.0
H2057 H 1.00552 0.09722 0.2738 0.0
H2058 H 0.96935 0.06249 0.26577 0.0
H2059 H 0.96323 0.08716 0.27817 0.0
C2060 C 0.89027 1.01139 0.24039 0.0
C2061 C 0.87125 0.99853 0.252 0.0
C2062 C 0.91605 0.04559 0.23964 0.0
C2063 C 0.92307 0.06743 0.25045 0.0
C2064 C 0.90233 0.05519 0.26164 0.0
H2065 H 0.09415 0.27365 0.26531 0.0
H2066 H 1.03857 0.22086 0.26669 0.0
C2067 C 0.87689 1.02103 0.26246 0.0
C2068 C 0.95326 0.1023 0.25033 0.0
H2069 H 1.029 0.15326 0.26583 0.0
C2070 C 0.95583 0.12529 0.2406 0.0
C2071 C 0.97997 0.11255 0.25957 0.0
C2072 C 0.97966 0.08852 0.26985 0.0
C2073 C 0.98436 0.15823 0.23987 0.0
C2074 C 1.01112 0.16828 0.24903 0.0
C2075 C 1.00829 0.14556 0.25889 0.0
C2076 C 1.04349 0.20118 0.24794 0.0
C2077 C 0.9857 0.18205 0.2293 0.0
C2078 C 0.06468 0.20737 0.23703 0.0
C2079 C 0.09631 0.23714 0.23629 0.0
C2080 C 0.10743 0.26138 0.24645 0.0
C2081 C 0.08612 0.25542 0.25734 0.0
C2082 C 0.05444 0.22537 0.25812 0.0
H2083 H 0.95995 0.17421 0.22543 0.0
H2084 H 0.99745 0.20853 0.23306 0.0
H2085 H 1.00146 0.18181 0.22101 0.0
H2086 H 0.05706 0.18878 0.2292 0.0
H2087 H 0.11224 0.24101 0.2278 0.0
H2088 H 0.93926 0.89276 0.7692 0.0
H2089 H 0.94063 0.94697 0.76805 0.0
H2090 H 0.85312 0.90187 0.74252 0.0
H2091 H 0.85125 0.84693 0.74388 0.0
H2092 H 0.95115 0.98635 0.74722 0.0
H2093 H 0.82543 0.95077 0.76874 0.0
H2094 H 0.8437 0.92366 0.76984 0.0
H2095 H 0.82343 0.92521 0.75492 0.0
C2096 C 0.92004 0.89419 0.76343 0.0
C2097 C 0.89507 0.86543 0.75666 0.0
C2098 C 0.92089 0.92533 0.76276 0.0
C2099 C 0.8968 0.92873 0.75532 0.0
C2100 C 0.87161 0.89993 0.74857 0.0
H2101 H 0.93715 0.13006 0.73064 0.0
H2102 H 0.92397 0.07099 0.73128 0.0
C2103 C 0.87065 0.86853 0.74928 0.0
C2104 C 0.89954 0.96289 0.75423 0.0
H2105 H 0.85733 1.00639 0.75984 0.0
C2106 C 0.93055 0.99062 0.74997 0.0
C2107 C 0.87293 0.96883 0.75797 0.0
C2108 C 0.83958 0.94066 0.76324 0.0
C2109 C 0.93571 1.0238 0.74933 0.0
C2110 C 0.90884 1.02965 0.75275 0.0
C2111 C 0.87784 1.002 0.75709 0.0
C2112 C 0.91296 0.06443 0.7521 0.0
C2113 C 0.97036 0.05247 0.74535 0.0
C2114 C 0.90942 0.08016 0.76344 0.0
C2115 C 0.91656 0.11404 0.76307 0.0
C2116 C 0.92741 0.13295 0.75134 0.0
C2117 C 0.92921 0.11651 0.73988 0.0
C2118 C 0.92188 0.08268 0.74024 0.0
H2119 H 0.99035 0.0455 0.74659 0.0
H2120 H 0.96982 0.05849 0.73483 0.0
H2121 H 0.97763 0.07577 0.75121 0.0
H2122 H 0.90235 0.06664 0.7727 0.0
H2123 H 0.9149 0.1258 0.77209 0.0
H2124 H 0.29562 0.05405 0.74954 0.0
H2125 H 0.24318 0.99918 0.74578 0.0
H2126 H 0.18886 1.0291 0.7723 0.0
H2127 H 0.24073 0.08356 0.77607 0.0
H2128 H 0.19626 0.94705 0.76552 0.0
H2129 H 0.13705 1.00633 0.73618 0.0
H2130 H 0.18234 1.02703 0.73904 0.0
H2131 H 0.15452 1.02667 0.75167 0.0
C2132 C 0.27248 0.04875 0.75459 0.0
C2133 C 0.27212 0.07307 0.76303 0.0
C2134 C 0.24266 1.01746 0.75247 0.0
C2135 C 0.21217 1.01031 0.75869 0.0
C2136 C 0.21207 1.03429 0.76733 0.0
H2137 H 1.01447 0.83454 0.77107 0.0
H2138 H 0.07457 0.87853 0.77281 0.0
C2139 C 0.24173 0.06537 0.76947 0.0
C2140 C 0.17991 0.97844 0.75589 0.0
H2141 H 0.10066 0.94952 0.74321 0.0
C2142 C 0.17541 0.9474 0.76052 0.0
C2143 C 0.15296 0.97902 0.74925 0.0
C2144 C 0.1569 1.01147 0.74363 0.0
C2145 C 0.14407 0.91699 0.75906 0.0
C2146 C 0.1166 0.91788 0.75296 0.0
C2147 C 0.12163 0.94882 0.74795 0.0
C2148 C 0.08203 0.88749 0.75186 0.0
C2149 C 0.14066 0.88425 0.76406 0.0
C2150 C 0.06628 0.87763 0.73952 0.0
C2151 C 1.03192 0.85283 0.73852 0.0
C2152 C 1.01254 0.83734 0.74985 0.0
C2153 C 1.02876 0.84584 0.76216 0.0
C2154 C 0.06319 0.8709 0.76316 0.0
H2155 H 0.16584 0.88598 0.76487 0.0
H2156 H 0.12899 0.87885 0.77399 0.0
H2157 H 0.12408 0.86257 0.75753 0.0
H2158 H 0.08027 0.89008 0.73068 0.0
H2159 H 1.02024 0.84672 0.72889 0.0
H2160 H 0.29018 0.22057 0.74123 0.0
H2161 H 0.24655 0.23652 0.74253 0.0
H2162 H 0.25088 0.23589 0.78484 0.0
H2163 H 0.29512 0.22004 0.78361 0.0
H2164 H 0.1836 0.19481 0.75455 0.0
H2165 H 0.24906 0.32407 0.77679 0.0
H2166 H 0.27201 0.30561 0.76924 0.0
H2167 H 0.2539 0.29219 0.78531 0.0
C2168 C 0.28238 0.22439 0.75084 0.0
C2169 C 0.29606 0.21886 0.76233 0.0
C2170 C 0.25737 0.23352 0.75156 0.0
C2171 C 0.24545 0.2375 0.76377 0.0
C2172 C 0.26003 0.23345 0.7753 0.0
H2173 H 0.07214 0.26093 0.78421 0.0
H2174 H 0.12461 0.25826 0.78446 0.0
C2175 C 0.28528 0.22435 0.77459 0.0
C2176 C 0.21565 0.24265 0.76423 0.0
H2177 H 0.18958 0.29824 0.77346 0.0
C2178 C 0.18495 0.21748 0.75866 0.0
C2179 C 0.21735 0.27209 0.76968 0.0
C2180 C 0.24987 0.30024 0.77552 0.0
C2181 C 0.15593 0.22084 0.7584 0.0
C2182 C 0.15774 0.25059 0.7636 0.0
C2183 C 0.1883 0.2756 0.76936 0.0
C2184 C 0.12787 0.25565 0.76332 0.0
C2185 C 0.12335 0.1921 0.7528 0.0
C2186 C 0.11281 0.25619 0.75134 0.0
C2187 C 0.08276 0.25762 0.75118 0.0
C2188 C 0.0674 0.25883 0.76299 0.0
C2189 C 0.08338 0.25996 0.77495 0.0
C2190 C 0.11338 0.25845 0.77511 0.0
H2191 H 0.12373 0.16789 0.75245 0.0
H2192 H 0.10099 0.18798 0.75867 0.0
H2193 H 0.12004 0.19853 0.7426 0.0
H2194 H 0.12391 0.25474 0.74211 0.0
H2195 H 0.07107 0.25685 0.74182 0.0
H2196 H 0.56163 0.17468 0.60099 0.0
H2197 H 0.61669 0.17818 0.60493 0.0
H2198 H 0.66232 0.25331 0.57431 0.0
H2199 H 0.60775 0.25002 0.57037 0.0
H2200 H 0.66256 0.16969 0.58662 0.0
H2201 H 0.7196 0.2993 0.60803 0.0
H2202 H 0.67421 0.27155 0.60631 0.0
H2203 H 0.69959 0.29446 0.59234 0.0
C2204 C 0.58339 0.1917 0.59505 0.0
C2205 C 0.58051 0.21221 0.58543 0.0
C2206 C 0.61476 0.19366 0.5973 0.0
C2207 C 0.64364 0.21633 0.59002 0.0
C2208 C 0.64045 0.23599 0.58015 0.0
H2209 H 0.84339 0.24478 0.57766 0.0
H2210 H 0.78282 0.22632 0.57667 0.0
C2211 C 0.60922 0.23399 0.57788 0.0
C2212 C 0.67751 0.22051 0.59292 0.0
H2213 H 0.75766 0.27961 0.60275 0.0
C2214 C 0.68333 0.19357 0.59027 0.0
C2215 C 0.7044 0.25154 0.59784 0.0
C2216 C 0.6992 0.28082 0.60142 0.0
C2217 C 0.71577 0.19735 0.59194 0.0
C2218 C 0.74306 0.22897 0.59626 0.0
C2219 C 0.73682 0.25543 0.59936 0.0
C2220 C 0.77861 0.23587 0.59724 0.0
C2221 C 0.72053 0.16748 0.58909 0.0
C2222 C 0.79649 0.24731 0.60913 0.0
C2223 C 0.8312 0.25808 0.60971 0.0
C2224 C 0.84886 0.25789 0.59838 0.0
C2225 C 0.8306 0.24515 0.58659 0.0
C2226 C 0.79585 0.23439 0.58602 0.0
H2227 H 0.69606 0.14301 0.58968 0.0
H2228 H 0.73069 0.16991 0.57898 0.0
H2229 H 0.7389 0.16667 0.59604 0.0
H2230 H 0.78376 0.2488 0.6179 0.0
H2231 H 0.84442 0.26769 0.61896 0.0
H2232 H 0.98284 0.41709 0.56671 0.0
H2233 H 0.98019 0.46951 0.56603 0.0
H2234 H 0.95639 0.4596 0.60739 0.0
H2235 H 0.95926 0.40723 0.60814 0.0
H2236 H 0.92272 0.47382 0.57207 0.0
H2237 H 1.03074 0.55991 0.60417 0.0
H2238 H 1.02646 0.52136 0.59724 0.0
H2239 H 1.00188 0.51943 0.6114 0.0
C2240 C 0.9776 0.4264 0.5757 0.0
C2241 C 0.97135 0.40815 0.58749 0.0
C2242 C 0.97603 0.45632 0.5753 0.0
C2243 C 0.96846 0.46873 0.58668 0.0
C2244 C 0.96295 0.45092 0.59854 0.0
H2245 H 0.91588 0.62187 0.60489 0.0
H2246 H 0.93274 0.5787 0.60514 0.0
C2247 C 0.96445 0.42092 0.59895 0.0
C2248 C 0.96379 0.49878 0.58591 0.0
H2249 H 0.99201 0.57846 0.59833 0.0
C2250 C 0.93809 0.49684 0.57771 0.0
C2251 C 0.98373 0.52872 0.59333 0.0
C2252 C 1.01247 0.53275 0.60195 0.0
C2253 C 0.93117 0.5236 0.57698 0.0
C2254 C 0.951 0.55353 0.58444 0.0
C2255 C 0.97692 0.5556 0.59257 0.0
C2256 C 0.94409 0.5822 0.58437 0.0
C2257 C 0.90183 0.51903 0.56858 0.0
C2258 C 0.94597 0.59945 0.57268 0.0
C2259 C 0.93624 0.62418 0.57248 0.0
C2260 C 0.92464 0.63227 0.584 0.0
C2261 C 0.92452 0.6162 0.59582 0.0
C2262 C 0.93418 0.59148 0.59599 0.0
H2263 H 0.88425 0.49188 0.56609 0.0
H2264 H 0.88708 0.52913 0.57364 0.0
H2265 H 0.91188 0.53323 0.55926 0.0
H2266 H 0.95427 0.59326 0.56364 0.0
H2267 H 0.93685 0.63617 0.56323 0.0
H2268 H 0.54923 0.33064 0.56573 0.0
H2269 H 0.59285 0.39091 0.56313 0.0
H2270 H 0.60781 0.40025 0.60507 0.0
H2271 H 0.56482 0.34042 0.60774 0.0
H2272 H 0.60169 0.45351 0.57412 0.0
H2273 H 0.70265 0.42755 0.59052 0.0
H2274 H 0.66073 0.39412 0.58583 0.0
H2275 H 0.66775 0.41342 0.60181 0.0
C2276 C 0.56145 0.34568 0.5744 0.0
C2277 C 0.55375 0.33054 0.58693 0.0
C2278 C 0.58644 0.38011 0.5729 0.0
C2279 C 0.60417 0.39994 0.58388 0.0
C2280 C 0.59507 0.38532 0.59642 0.0
H2281 H 0.7805 0.60075 0.59733 0.0
H2282 H 0.72884 0.54484 0.59954 0.0
C2283 C 0.5703 0.35106 0.59793 0.0
C2284 C 0.63319 0.43537 0.58231 0.0
H2285 H 0.71849 0.48543 0.58813 0.0
C2286 C 0.62727 0.46049 0.57711 0.0
C2287 C 0.66661 0.44452 0.58621 0.0
C2288 C 0.67501 0.41847 0.5913 0.0
C2289 C 0.65369 0.49463 0.57602 0.0
C2290 C 0.68706 0.50379 0.58004 0.0
C2291 C 0.69293 0.47856 0.58515 0.0
C2292 C 0.71655 0.53914 0.57882 0.0
C2293 C 0.64547 0.52071 0.57088 0.0
C2294 C 0.72684 0.55476 0.56645 0.0
C2295 C 0.75632 0.58672 0.56519 0.0
C2296 C 0.77625 0.60367 0.57624 0.0
C2297 C 0.76557 0.58841 0.58865 0.0
C2298 C 0.7361 0.55641 0.58991 0.0
H2299 H 0.61788 0.51182 0.57174 0.0
H2300 H 0.66004 0.5452 0.57624 0.0
H2301 H 0.6525 0.52542 0.56034 0.0
H2302 H 0.71273 0.54176 0.5577 0.0
H2303 H 0.76403 0.5977 0.55548 0.0
loop_
_geom_bond_atom_site_label_1
_geom_bond_atom_site_label_2
_geom_bond_distance
_geom_bond_site_symmetry_2
_ccdc_geom_bond_type
O0 Tb1 2.506 . S
O0 C14 1.265 . S
Tb1 O0 2.506 . S
Tb1 O6 2.312 . S
Tb1 O10 2.271 . S
Tb1 O12 2.338 . S
Tb1 O19 2.441 . S
C2 O10 1.252 . S
C2 O11 1.253 1_545 S
O3 Tb4 2.271 . S
O3 C13 1.252 . S
Tb4 O3 2.271 . S
Tb4 O7 2.338 . S
Tb4 O11 2.312 . S
Tb4 O15 2.441 . S
Tb4 O16 2.506 . S
C5 O15 1.244 . S
C5 O16 1.265 . S
O6 Tb1 2.312 . S
O6 C13 1.253 1_545 S
O7 Tb4 2.338 . S
O7 C8 1.258 . S
C8 O7 1.258 . S
C8 O9 1.251 . S
O9 C8 1.251 . S
O10 Tb1 2.271 . S
O10 C2 1.252 . S
O11 C2 1.253 1_565 S
O11 Tb4 2.312 . S
O12 Tb1 2.338 . S
O12 C17 1.258 . S
C13 O3 1.252 . S
C13 O6 1.253 1_565 S
C14 O0 1.265 . S
C14 O19 1.244 . S
O15 Tb4 2.441 . S
O15 C5 1.244 . S
O16 Tb4 2.506 . S
O16 C5 1.265 . S
C17 O12 1.258 . S
C17 O18 1.251 . S
O18 C17 1.251 . S
O19 Tb1 2.441 . S
O19 C14 1.244 . S
O20 Tb21 2.506 . S
O20 C34 1.265 . S
Tb21 O20 2.506 . S
Tb21 O26 2.312 1_655 S
Tb21 O30 2.271 1_655 S
Tb21 O32 2.338 . S
Tb21 O39 2.441 . S
C22 O30 1.252 . S
C22 O31 1.253 . S
O23 Tb24 2.271 . S
O23 C33 1.252 . S
Tb24 O23 2.271 . S
Tb24 O27 2.338 . S
Tb24 O31 2.312 . S
Tb24 O35 2.441 . S
Tb24 O36 2.506 . S
C25 O35 1.244 . S
C25 O36 1.265 . S
O26 Tb21 2.312 1_455 S
O26 C33 1.253 . S
O27 Tb24 2.338 . S
O27 C28 1.258 . S
C28 O27 1.258 . S
C28 O29 1.251 . S
O29 C28 1.251 . S
O30 Tb21 2.271 1_455 S
O30 C22 1.252 . S
O31 C22 1.253 . S
O31 Tb24 2.312 . S
O32 Tb21 2.338 . S
O32 C37 1.258 . S
C33 O23 1.252 . S
C33 O26 1.253 . S
C34 O20 1.265 . S
C34 O39 1.244 . S
O35 Tb24 2.441 . S
O35 C25 1.244 . S
O36 Tb24 2.506 . S
O36 C25 1.265 . S
C37 O32 1.258 . S
C37 O38 1.251 . S
O38 C37 1.251 . S
O39 Tb21 2.441 . S
O39 C34 1.244 . S
O40 Tb41 2.506 . S
O40 C54 1.265 . S
Tb41 O40 2.506 . S
Tb41 O46 2.312 . S
Tb41 O50 2.271 . S
Tb41 O52 2.338 . S
Tb41 O59 2.441 . S
C42 O50 1.252 . S
C42 O51 1.253 . S
O43 Tb44 2.271 . S
O43 C53 1.252 . S
Tb44 O43 2.271 . S
Tb44 O47 2.338 . S
Tb44 O51 2.312 . S
Tb44 O55 2.441 . S
Tb44 O56 2.506 . S
C45 O55 1.244 . S
C45 O56 1.265 . S
O46 Tb41 2.312 . S
O46 C53 1.253 . S
O47 Tb44 2.338 . S
O47 C48 1.258 . S
C48 O47 1.258 . S
C48 O49 1.251 . S
O49 C48 1.251 . S
O50 Tb41 2.271 . S
O50 C42 1.252 . S
O51 C42 1.253 . S
O51 Tb44 2.312 . S
O52 Tb41 2.338 . S
O52 C57 1.258 . S
C53 O43 1.252 . S
C53 O46 1.253 . S
C54 O40 1.265 . S
C54 O59 1.244 . S
O55 Tb44 2.441 . S
O55 C45 1.244 . S
O56 Tb44 2.506 . S
O56 C45 1.265 . S
C57 O52 1.258 . S
C57 O58 1.251 . S
O58 C57 1.251 . S
O59 Tb41 2.441 . S
O59 C54 1.244 . S
O60 Tb61 2.506 . S
O60 C74 1.265 . S
Tb61 O60 2.506 . S
Tb61 O66 2.312 . S
Tb61 O70 2.271 . S
Tb61 O72 2.338 . S
Tb61 O79 2.441 . S
C62 O70 1.252 . S
C62 O71 1.253 1_455 S
O63 Tb64 2.271 . S
O63 C73 1.252 . S
Tb64 O63 2.271 . S
Tb64 O67 2.338 . S
Tb64 O71 2.312 . S
Tb64 O75 2.441 . S
Tb64 O76 2.506 . S
C65 O75 1.244 . S
C65 O76 1.265 . S
O66 Tb61 2.312 . S
O66 C73 1.253 1_455 S
O67 Tb64 2.338 . S
O67 C68 1.258 . S
C68 O67 1.258 . S
C68 O69 1.251 . S
O69 C68 1.251 . S
O70 Tb61 2.271 . S
O70 C62 1.252 . S
O71 C62 1.253 1_655 S
O71 Tb64 2.312 . S
O72 Tb61 2.338 . S
O72 C77 1.258 . S
C73 O63 1.252 . S
C73 O66 1.253 1_655 S
C74 O60 1.265 . S
C74 O79 1.244 . S
O75 Tb64 2.441 . S
O75 C65 1.244 . S
O76 Tb64 2.506 . S
O76 C65 1.265 . S
C77 O72 1.258 . S
C77 O78 1.251 . S
O78 C77 1.251 . S
O79 Tb61 2.441 . S
O79 C74 1.244 . S
O80 Tb81 2.506 . S
O80 C94 1.265 . S
Tb81 O80 2.506 . S
Tb81 O86 2.312 . S
Tb81 O90 2.271 . S
Tb81 O92 2.338 . S
Tb81 O99 2.441 . S
C82 O90 1.252 . S
C82 O91 1.253 . S
O83 Tb84 2.271 . S
O83 C93 1.252 . S
Tb84 O83 2.271 . S
Tb84 O87 2.338 . S
Tb84 O91 2.312 . S
Tb84 O95 2.441 . S
Tb84 O96 2.506 . S
C85 O95 1.244 . S
C85 O96 1.265 . S
O86 Tb81 2.312 . S
O86 C93 1.253 . S
O87 Tb84 2.338 . S
O87 C88 1.258 . S
C88 O87 1.258 . S
C88 O89 1.251 . S
O89 C88 1.251 . S
O90 Tb81 2.271 . S
O90 C82 1.252 . S
O91 C82 1.253 . S
O91 Tb84 2.312 . S
O92 Tb81 2.338 . S
O92 C97 1.258 . S
C93 O83 1.252 . S
C93 O86 1.253 . S
C94 O80 1.265 . S
C94 O99 1.244 . S
O95 Tb84 2.441 . S
O95 C85 1.244 . S
O96 Tb84 2.506 . S
O96 C85 1.265 . S
C97 O92 1.258 . S
C97 O98 1.251 . S
O98 C97 1.251 . S
O99 Tb81 2.441 . S
O99 C94 1.244 . S
O100 Tb101 2.506 . S
O100 C114 1.265 . S
Tb101 O100 2.506 . S
Tb101 O106 2.312 1_565 S
Tb101 O110 2.271 1_565 S
Tb101 O112 2.338 . S
Tb101 O119 2.441 . S
C102 O110 1.252 . S
C102 O111 1.253 . S
O103 Tb104 2.271 . S
O103 C113 1.252 . S
Tb104 O103 2.271 . S
Tb104 O107 2.338 . S
Tb104 O111 2.312 . S
Tb104 O115 2.441 . S
Tb104 O116 2.506 . S
C105 O115 1.244 . S
C105 O116 1.265 . S
O106 Tb101 2.312 1_545 S
O106 C113 1.253 . S
O107 Tb104 2.338 . S
O107 C108 1.258 . S
C108 O107 1.258 . S
C108 O109 1.251 . S
O109 C108 1.251 . S
O110 Tb101 2.271 1_545 S
O110 C102 1.252 . S
O111 C102 1.253 . S
O111 Tb104 2.312 . S
O112 Tb101 2.338 . S
O112 C117 1.258 . S
C113 O103 1.252 . S
C113 O106 1.253 . S
C114 O100 1.265 . S
C114 O119 1.244 . S
O115 Tb104 2.441 . S
O115 C105 1.244 . S
O116 Tb104 2.506 . S
O116 C105 1.265 . S
C117 O112 1.258 . S
C117 O118 1.251 . S
O118 C117 1.251 . S
O119 Tb101 2.441 . S
O119 C114 1.244 . S
O120 Tb121 2.506 . S
O120 C134 1.265 . S
Tb121 O120 2.506 . S
Tb121 O126 2.312 . S
Tb121 O130 2.271 . S
Tb121 O132 2.338 . S
Tb121 O139 2.441 . S
C122 O130 1.252 . S
C122 O131 1.253 . S
O123 Tb124 2.271 . S
O123 C133 1.252 . S
Tb124 O123 2.271 . S
Tb124 O127 2.338 . S
Tb124 O131 2.312 . S
Tb124 O135 2.441 . S
Tb124 O136 2.506 . S
C125 O135 1.244 . S
C125 O136 1.265 . S
O126 Tb121 2.312 . S
O126 C133 1.253 . S
O127 Tb124 2.338 . S
O127 C128 1.258 . S
C128 O127 1.258 . S
C128 O129 1.251 . S
O129 C128 1.251 . S
O130 Tb121 2.271 . S
O130 C122 1.252 . S
O131 C122 1.253 . S
O131 Tb124 2.312 . S
O132 Tb121 2.338 . S
O132 C137 1.258 . S
C133 O123 1.252 . S
C133 O126 1.253 . S
C134 O120 1.265 . S
C134 O139 1.244 . S
O135 Tb124 2.441 . S
O135 C125 1.244 . S
O136 Tb124 2.506 . S
O136 C125 1.265 . S
C137 O132 1.258 . S
C137 O138 1.251 . S
O138 C137 1.251 . S
O139 Tb121 2.441 . S
O139 C134 1.244 . S
O140 Tb141 2.506 . S
O140 C154 1.265 . S
Tb141 O140 2.506 . S
Tb141 O146 2.312 . S
Tb141 O150 2.271 . S
Tb141 O152 2.338 . S
Tb141 O159 2.441 . S
C142 O150 1.252 . S
C142 O151 1.253 . S
O143 Tb144 2.271 . S
O143 C153 1.252 . S
Tb144 O143 2.271 . S
Tb144 O147 2.338 . S
Tb144 O151 2.312 . S
Tb144 O155 2.441 . S
Tb144 O156 2.506 . S
C145 O155 1.244 . S
C145 O156 1.265 . S
O146 Tb141 2.312 . S
O146 C153 1.253 . S
O147 Tb144 2.338 . S
O147 C148 1.258 . S
C148 O147 1.258 . S
C148 O149 1.251 . S
O149 C148 1.251 . S
O150 Tb141 2.271 . S
O150 C142 1.252 . S
O151 C142 1.253 . S
O151 Tb144 2.312 . S
O152 Tb141 2.338 . S
O152 C157 1.258 . S
C153 O143 1.252 . S
C153 O146 1.253 . S
C154 O140 1.265 . S
C154 O159 1.244 . S
O155 Tb144 2.441 . S
O155 C145 1.244 . S
O156 Tb144 2.506 . S
O156 C145 1.265 . S
C157 O152 1.258 . S
C157 O158 1.251 . S
O158 C157 1.251 . S
O159 Tb141 2.441 . S
O159 C154 1.244 . S
O160 Tb161 2.506 . S
O160 C174 1.265 . S
Tb161 O160 2.506 . S
Tb161 O166 2.312 . S
Tb161 O170 2.271 . S
Tb161 O172 2.338 . S
Tb161 O179 2.441 . S
C162 O170 1.252 . S
C162 O171 1.253 . S
O163 Tb164 2.271 . S
O163 C173 1.252 . S
Tb164 O163 2.271 . S
Tb164 O167 2.338 . S
Tb164 O171 2.312 . S
Tb164 O175 2.441 . S
Tb164 O176 2.506 . S
C165 O175 1.244 . S
C165 O176 1.265 . S
O166 Tb161 2.312 . S
O166 C173 1.253 . S
O167 Tb164 2.338 . S
O167 C168 1.258 . S
C168 O167 1.258 . S
C168 O169 1.251 . S
O169 C168 1.251 . S
O170 Tb161 2.271 . S
O170 C162 1.252 . S
O171 C162 1.253 . S
O171 Tb164 2.312 . S
O172 Tb161 2.338 . S
O172 C177 1.258 . S
C173 O163 1.252 . S
C173 O166 1.253 . S
C174 O160 1.265 . S
C174 O179 1.244 . S
O175 Tb164 2.441 . S
O175 C165 1.244 . S
O176 Tb164 2.506 . S
O176 C165 1.265 . S
C177 O172 1.258 . S
C177 O178 1.251 . S
O178 C177 1.251 . S
O179 Tb161 2.441 . S
O179 C174 1.244 . S
O180 Tb181 2.506 . S
O180 C194 1.265 . S
Tb181 O180 2.506 . S
Tb181 O186 2.312 . S
Tb181 O190 2.271 . S
Tb181 O192 2.338 . S
Tb181 O199 2.441 . S
C182 O190 1.252 . S
C182 O191 1.253 . S
O183 Tb184 2.271 . S
O183 C193 1.252 . S
Tb184 O183 2.271 . S
Tb184 O187 2.338 . S
Tb184 O191 2.312 . S
Tb184 O195 2.441 . S
Tb184 O196 2.506 . S
C185 O195 1.244 . S
C185 O196 1.265 . S
O186 Tb181 2.312 . S
O186 C193 1.253 . S
O187 Tb184 2.338 . S
O187 C188 1.258 . S
C188 O187 1.258 . S
C188 O189 1.251 . S
O189 C188 1.251 . S
O190 Tb181 2.271 . S
O190 C182 1.252 . S
O191 C182 1.253 . S
O191 Tb184 2.312 . S
O192 Tb181 2.338 . S
O192 C197 1.258 . S
C193 O183 1.252 . S
C193 O186 1.253 . S
C194 O180 1.265 . S
C194 O199 1.244 . S
O195 Tb184 2.441 . S
O195 C185 1.244 . S
O196 Tb184 2.506 . S
O196 C185 1.265 . S
C197 O192 1.258 . S
C197 O198 1.251 . S
O198 C197 1.251 . S
O199 Tb181 2.441 . S
O199 C194 1.244 . S
O200 Tb201 2.506 . S
O200 C214 1.265 . S
Tb201 O200 2.506 . S
Tb201 O206 2.312 . S
Tb201 O210 2.271 . S
Tb201 O212 2.338 . S
Tb201 O219 2.441 . S
C202 O210 1.252 . S
C202 O211 1.253 . S
O203 Tb204 2.271 . S
O203 C213 1.252 . S
Tb204 O203 2.271 . S
Tb204 O207 2.338 . S
Tb204 O211 2.312 . S
Tb204 O215 2.441 . S
Tb204 O216 2.506 . S
C205 O215 1.244 . S
C205 O216 1.265 . S
O206 Tb201 2.312 . S
O206 C213 1.253 . S
O207 Tb204 2.338 . S
O207 C208 1.258 . S
C208 O207 1.258 . S
C208 O209 1.251 . S
O209 C208 1.251 . S
O210 Tb201 2.271 . S
O210 C202 1.252 . S
O211 C202 1.253 . S
O211 Tb204 2.312 . S
O212 Tb201 2.338 . S
O212 C217 1.258 . S
C213 O203 1.252 . S
C213 O206 1.253 . S
C214 O200 1.265 . S
C214 O219 1.244 . S
O215 Tb204 2.441 . S
O215 C205 1.244 . S
O216 Tb204 2.506 . S
O216 C205 1.265 . S
C217 O212 1.258 . S
C217 O218 1.251 . S
O218 C217 1.251 . S
O219 Tb201 2.441 . S
O219 C214 1.244 . S
O220 Tb221 2.506 . S
O220 C234 1.265 . S
Tb221 O220 2.506 . S
Tb221 O226 2.312 . S
Tb221 O230 2.271 . S
Tb221 O232 2.338 . S
Tb221 O239 2.441 . S
C222 O230 1.252 . S
C222 O231 1.253 . S
O223 Tb224 2.271 . S
O223 C233 1.252 . S
Tb224 O223 2.271 . S
Tb224 O227 2.338 . S
Tb224 O231 2.312 . S
Tb224 O235 2.441 . S
Tb224 O236 2.506 . S
C225 O235 1.244 . S
C225 O236 1.265 . S
O226 Tb221 2.312 . S
O226 C233 1.253 . S
O227 Tb224 2.338 . S
O227 C228 1.258 . S
C228 O227 1.258 . S
C228 O229 1.251 . S
O229 C228 1.251 . S
O230 Tb221 2.271 . S
O230 C222 1.252 . S
O231 C222 1.253 . S
O231 Tb224 2.312 . S
O232 Tb221 2.338 . S
O232 C237 1.258 . S
C233 O223 1.252 . S
C233 O226 1.253 . S
C234 O220 1.265 . S
C234 O239 1.244 . S
O235 Tb224 2.441 . S
O235 C225 1.244 . S
O236 Tb224 2.506 . S
O236 C225 1.265 . S
C237 O232 1.258 . S
C237 O238 1.251 . S
O238 C237 1.251 . S
O239 Tb221 2.441 . S
O239 C234 1.244 . S
O240 Tb241 2.506 . S
O240 C254 1.265 . S
Tb241 O240 2.506 . S
Tb241 O246 2.312 . S
Tb241 O250 2.271 . S
Tb241 O252 2.338 . S
Tb241 O259 2.441 . S
C242 O250 1.252 . S
C242 O251 1.253 . S
O243 Tb244 2.271 . S
O243 C253 1.252 . S
Tb244 O243 2.271 . S
Tb244 O247 2.338 . S
Tb244 O251 2.312 . S
Tb244 O255 2.441 . S
Tb244 O256 2.506 . S
C245 O255 1.244 . S
C245 O256 1.265 . S
O246 Tb241 2.312 . S
O246 C253 1.253 . S
O247 Tb244 2.338 . S
O247 C248 1.258 . S
C248 O247 1.258 . S
C248 O249 1.251 . S
O249 C248 1.251 . S
O250 Tb241 2.271 . S
O250 C242 1.252 . S
O251 C242 1.253 . S
O251 Tb244 2.312 . S
O252 Tb241 2.338 . S
O252 C257 1.258 . S
C253 O243 1.252 . S
C253 O246 1.253 . S
C254 O240 1.265 . S
C254 O259 1.244 . S
O255 Tb244 2.441 . S
O255 C245 1.244 . S
O256 Tb244 2.506 . S
O256 C245 1.265 . S
C257 O252 1.258 . S
C257 O258 1.251 . S
O258 C257 1.251 . S
O259 Tb241 2.441 . S
O259 C254 1.244 . S
O260 Tb261 2.506 . S
O260 C274 1.265 . S
Tb261 O260 2.506 . S
Tb261 O266 2.312 . S
Tb261 O270 2.271 . S
Tb261 O272 2.338 . S
Tb261 O279 2.441 . S
C262 O270 1.252 . S
C262 O271 1.253 . S
O263 Tb264 2.271 . S
O263 C273 1.252 . S
Tb264 O263 2.271 . S
Tb264 O267 2.338 . S
Tb264 O271 2.312 . S
Tb264 O275 2.441 . S
Tb264 O276 2.506 . S
C265 O275 1.244 . S
C265 O276 1.265 . S
O266 Tb261 2.312 . S
O266 C273 1.253 . S
O267 Tb264 2.338 . S
O267 C268 1.258 . S
C268 O267 1.258 . S
C268 O269 1.251 . S
O269 C268 1.251 . S
O270 Tb261 2.271 . S
O270 C262 1.252 . S
O271 C262 1.253 . S
O271 Tb264 2.312 . S
O272 Tb261 2.338 . S
O272 C277 1.258 . S
C273 O263 1.252 . S
C273 O266 1.253 . S
C274 O260 1.265 . S
C274 O279 1.244 . S
O275 Tb264 2.441 . S
O275 C265 1.244 . S
O276 Tb264 2.506 . S
O276 C265 1.265 . S
C277 O272 1.258 . S
C277 O278 1.251 . S
O278 C277 1.251 . S
O279 Tb261 2.441 . S
O279 C274 1.244 . S
O280 Tb281 2.506 . S
O280 C294 1.265 . S
Tb281 O280 2.506 . S
Tb281 O286 2.312 . S
Tb281 O290 2.271 . S
Tb281 O292 2.338 . S
Tb281 O299 2.441 . S
C282 O290 1.252 . S
C282 O291 1.253 . S
O283 Tb284 2.271 . S
O283 C293 1.252 . S
Tb284 O283 2.271 . S
Tb284 O287 2.338 . S
Tb284 O291 2.312 . S
Tb284 O295 2.441 . S
Tb284 O296 2.506 . S
C285 O295 1.244 . S
C285 O296 1.265 . S
O286 Tb281 2.312 . S
O286 C293 1.253 . S
O287 Tb284 2.338 . S
O287 C288 1.258 . S
C288 O287 1.258 . S
C288 O289 1.251 . S
O289 C288 1.251 . S
O290 Tb281 2.271 . S
O290 C282 1.252 . S
O291 C282 1.253 . S
O291 Tb284 2.312 . S
O292 Tb281 2.338 . S
O292 C297 1.258 . S
C293 O283 1.252 . S
C293 O286 1.253 . S
C294 O280 1.265 . S
C294 O299 1.244 . S
O295 Tb284 2.441 . S
O295 C285 1.244 . S
O296 Tb284 2.506 . S
O296 C285 1.265 . S
C297 O292 1.258 . S
C297 O298 1.251 . S
O298 C297 1.251 . S
O299 Tb281 2.441 . S
O299 C294 1.244 . S
O300 Tb301 2.506 . S
O300 C314 1.265 . S
Tb301 O300 2.506 . S
Tb301 O306 2.312 . S
Tb301 O310 2.271 . S
Tb301 O312 2.338 . S
Tb301 O319 2.441 . S
C302 O310 1.252 . S
C302 O311 1.253 . S
O303 Tb304 2.271 . S
O303 C313 1.252 . S
Tb304 O303 2.271 . S
Tb304 O307 2.338 . S
Tb304 O311 2.312 . S
Tb304 O315 2.441 . S
Tb304 O316 2.506 . S
C305 O315 1.244 . S
C305 O316 1.265 . S
O306 Tb301 2.312 . S
O306 C313 1.253 . S
O307 Tb304 2.338 . S
O307 C308 1.258 . S
C308 O307 1.258 . S
C308 O309 1.251 . S
O309 C308 1.251 . S
O310 Tb301 2.271 . S
O310 C302 1.252 . S
O311 C302 1.253 . S
O311 Tb304 2.312 . S
O312 Tb301 2.338 . S
O312 C317 1.258 . S
C313 O303 1.252 . S
C313 O306 1.253 . S
C314 O300 1.265 . S
C314 O319 1.244 . S
O315 Tb304 2.441 . S
O315 C305 1.244 . S
O316 Tb304 2.506 . S
O316 C305 1.265 . S
C317 O312 1.258 . S
C317 O318 1.251 . S
O318 C317 1.251 . S
O319 Tb301 2.441 . S
O319 C314 1.244 . S
O320 Tb321 2.506 . S
O320 C334 1.265 . S
Tb321 O320 2.506 . S
Tb321 O326 2.312 . S
Tb321 O330 2.271 . S
Tb321 O332 2.338 . S
Tb321 O339 2.441 . S
C322 O330 1.252 . S
C322 O331 1.253 . S
O323 Tb324 2.271 . S
O323 C333 1.252 . S
Tb324 O323 2.271 . S
Tb324 O327 2.338 . S
Tb324 O331 2.312 . S
Tb324 O335 2.441 . S
Tb324 O336 2.506 . S
C325 O335 1.244 . S
C325 O336 1.265 . S
O326 Tb321 2.312 . S
O326 C333 1.253 . S
O327 Tb324 2.338 . S
O327 C328 1.258 . S
C328 O327 1.258 . S
C328 O329 1.251 . S
O329 C328 1.251 . S
O330 Tb321 2.271 . S
O330 C322 1.252 . S
O331 C322 1.253 . S
O331 Tb324 2.312 . S
O332 Tb321 2.338 . S
O332 C337 1.258 . S
C333 O323 1.252 . S
C333 O326 1.253 . S
C334 O320 1.265 . S
C334 O339 1.244 . S
O335 Tb324 2.441 . S
O335 C325 1.244 . S
O336 Tb324 2.506 . S
O336 C325 1.265 . S
C337 O332 1.258 . S
C337 O338 1.251 . S
O338 C337 1.251 . S
O339 Tb321 2.441 . S
O339 C334 1.244 . S
O340 Tb341 2.506 . S
O340 C354 1.265 . S
Tb341 O340 2.506 . S
Tb341 O346 2.312 . S
Tb341 O350 2.271 . S
Tb341 O352 2.338 . S
Tb341 O359 2.441 . S
C342 O350 1.252 . S
C342 O351 1.253 . S
O343 Tb344 2.271 . S
O343 C353 1.252 . S
Tb344 O343 2.271 . S
Tb344 O347 2.338 . S
Tb344 O351 2.312 . S
Tb344 O355 2.441 . S
Tb344 O356 2.506 . S
C345 O355 1.244 . S
C345 O356 1.265 . S
O346 Tb341 2.312 . S
O346 C353 1.253 . S
O347 Tb344 2.338 . S
O347 C348 1.258 . S
C348 O347 1.258 . S
C348 O349 1.251 . S
O349 C348 1.251 . S
O350 Tb341 2.271 . S
O350 C342 1.252 . S
O351 C342 1.253 . S
O351 Tb344 2.312 . S
O352 Tb341 2.338 . S
O352 C357 1.258 . S
C353 O343 1.252 . S
C353 O346 1.253 . S
C354 O340 1.265 . S
C354 O359 1.244 . S
O355 Tb344 2.441 . S
O355 C345 1.244 . S
O356 Tb344 2.506 . S
O356 C345 1.265 . S
C357 O352 1.258 . S
C357 O358 1.251 . S
O358 C357 1.251 . S
O359 Tb341 2.441 . S
O359 C354 1.244 . S
H360 C368 0.929 . S
H361 C370 0.930 . S
H362 C372 0.930 . S
H363 C375 0.929 . S
H364 C378 0.930 . S
H365 C380 0.960 . S
H366 C380 0.960 . S
H367 C380 0.960 . S
C368 H360 0.929 . S
C368 C369 1.377 . S
C368 C370 1.384 . S
C369 C368 1.377 . S
C369 C375 1.390 . S
C370 H361 0.930 . S
C370 C368 1.384 . S
C370 C371 1.372 . S
C371 C370 1.372 . S
C371 C372 1.400 . S
C371 C376 1.490 . S
C372 H362 0.930 . S
C372 C371 1.400 . S
C372 C375 1.386 . S
H373 C389 0.930 . S
H374 C390 0.931 . S
C375 H363 0.929 . S
C375 C369 1.390 . S
C375 C372 1.386 . S
C376 C371 1.490 . S
C376 C378 1.395 . S
C376 C379 1.403 . S
H377 C383 0.930 . S
C378 H364 0.930 . S
C378 C376 1.395 . S
C378 C381 1.403 . S
C379 C376 1.403 . S
C379 C380 1.524 . S
C379 C383 1.400 . S
C380 H365 0.960 . S
C380 H366 0.960 . S
C380 H367 0.960 . S
C380 C379 1.524 . S
C381 C378 1.403 . S
C381 C382 1.392 . S
C381 C385 1.495 . S
C382 C381 1.392 . S
C382 C383 1.385 . S
C382 C384 1.478 . S
C383 H377 0.930 . S
C383 C379 1.400 . S
C383 C382 1.385 . S
C384 C382 1.478 . S
C384 C386 1.381 . S
C384 C390 1.383 . S
C385 C381 1.495 . S
C385 H391 0.959 . S
C385 H392 0.961 . S
C385 H393 0.960 . S
C386 C384 1.381 . S
C386 C387 1.394 . S
C386 H394 0.930 . S
C387 C386 1.394 . S
C387 C388 1.383 . S
C387 H395 0.929 . S
C388 C387 1.383 . S
C388 C389 1.377 . S
C389 H373 0.930 . S
C389 C388 1.377 . S
C389 C390 1.379 . S
C390 H374 0.931 . S
C390 C384 1.383 . S
C390 C389 1.379 . S
H391 C385 0.959 . S
H392 C385 0.961 . S
H393 C385 0.960 . S
H394 C386 0.930 . S
H395 C387 0.929 . S
H396 C404 0.929 . S
H397 C406 0.930 . S
H398 C408 0.930 . S
H399 C411 0.929 . S
H400 C414 0.930 . S
H401 C416 0.960 . S
H402 C416 0.960 . S
H403 C416 0.960 . S
C404 H396 0.929 . S
C404 C405 1.377 . S
C404 C406 1.384 . S
C405 C404 1.377 . S
C405 C411 1.390 . S
C406 H397 0.930 . S
C406 C404 1.384 . S
C406 C407 1.372 . S
C407 C406 1.372 . S
C407 C408 1.400 . S
C407 C412 1.490 . S
C408 H398 0.930 . S
C408 C407 1.400 . S
C408 C411 1.386 . S
H409 C425 0.930 . S
H410 C426 0.931 . S
C411 H399 0.929 . S
C411 C405 1.390 . S
C411 C408 1.386 . S
C412 C407 1.490 . S
C412 C414 1.395 . S
C412 C415 1.403 . S
H413 C419 0.930 . S
C414 H400 0.930 . S
C414 C412 1.395 . S
C414 C417 1.403 . S
C415 C412 1.403 . S
C415 C416 1.524 . S
C415 C419 1.400 . S
C416 H401 0.960 . S
C416 H402 0.960 . S
C416 H403 0.960 . S
C416 C415 1.524 . S
C417 C414 1.403 . S
C417 C418 1.392 . S
C417 C421 1.495 . S
C418 C417 1.392 . S
C418 C419 1.385 . S
C418 C420 1.478 . S
C419 H413 0.930 . S
C419 C415 1.400 . S
C419 C418 1.385 . S
C420 C418 1.478 . S
C420 C422 1.381 . S
C420 C426 1.383 . S
C421 C417 1.495 . S
C421 H427 0.959 . S
C421 H428 0.961 . S
C421 H429 0.960 . S
C422 C420 1.381 . S
C422 C423 1.394 . S
C422 H430 0.930 . S
C423 C422 1.394 . S
C423 C424 1.383 . S
C423 H431 0.929 . S
C424 C423 1.383 . S
C424 C425 1.377 . S
C425 H409 0.930 . S
C425 C424 1.377 . S
C425 C426 1.379 . S
C426 H410 0.931 . S
C426 C420 1.383 . S
C426 C425 1.379 . S
H427 C421 0.959 . S
H428 C421 0.961 . S
H429 C421 0.960 . S
H430 C422 0.930 . S
H431 C423 0.929 . S
H432 C440 0.929 . S
H433 C442 0.930 . S
H434 C444 0.930 . S
H435 C447 0.929 . S
H436 C450 0.930 . S
H437 C452 0.960 . S
H438 C452 0.960 . S
H439 C452 0.960 . S
C440 H432 0.929 . S
C440 C441 1.377 . S
C440 C442 1.384 . S
C441 C440 1.377 . S
C441 C447 1.390 . S
C442 H433 0.930 . S
C442 C440 1.384 . S
C442 C443 1.372 . S
C443 C442 1.372 . S
C443 C444 1.400 . S
C443 C448 1.490 . S
C444 H434 0.930 . S
C444 C443 1.400 . S
C444 C447 1.386 . S
H445 C461 0.930 . S
H446 C462 0.931 . S
C447 H435 0.929 . S
C447 C441 1.390 . S
C447 C444 1.386 . S
C448 C443 1.490 . S
C448 C450 1.395 . S
C448 C451 1.403 . S
H449 C455 0.930 . S
C450 H436 0.930 . S
C450 C448 1.395 . S
C450 C453 1.403 . S
C451 C448 1.403 . S
C451 C452 1.524 . S
C451 C455 1.400 . S
C452 H437 0.960 . S
C452 H438 0.960 . S
C452 H439 0.960 . S
C452 C451 1.524 . S
C453 C450 1.403 . S
C453 C454 1.392 . S
C453 C457 1.495 . S
C454 C453 1.392 . S
C454 C455 1.385 . S
C454 C456 1.478 . S
C455 H449 0.930 . S
C455 C451 1.400 . S
C455 C454 1.385 . S
C456 C454 1.478 . S
C456 C458 1.381 . S
C456 C462 1.383 . S
C457 C453 1.495 . S
C457 H463 0.959 . S
C457 H464 0.961 . S
C457 H465 0.960 . S
C458 C456 1.381 . S
C458 C459 1.394 . S
C458 H466 0.930 . S
C459 C458 1.394 . S
C459 C460 1.383 . S
C459 H467 0.929 . S
C460 C459 1.383 . S
C460 C461 1.377 . S
C461 H445 0.930 . S
C461 C460 1.377 . S
C461 C462 1.379 . S
C462 H446 0.931 . S
C462 C456 1.383 . S
C462 C461 1.379 . S
H463 C457 0.959 . S
H464 C457 0.961 . S
H465 C457 0.960 . S
H466 C458 0.930 . S
H467 C459 0.929 . S
H468 C476 0.929 . S
H469 C478 0.930 . S
H470 C480 0.930 . S
H471 C483 0.929 . S
H472 C486 0.930 . S
H473 C488 0.960 . S
H474 C488 0.960 . S
H475 C488 0.960 . S
C476 H468 0.929 . S
C476 C477 1.377 . S
C476 C478 1.384 . S
C477 C476 1.377 . S
C477 C483 1.390 . S
C478 H469 0.930 . S
C478 C476 1.384 . S
C478 C479 1.372 . S
C479 C478 1.372 . S
C479 C480 1.400 . S
C479 C484 1.490 . S
C480 H470 0.930 . S
C480 C479 1.400 . S
C480 C483 1.386 . S
H481 C497 0.930 . S
H482 C498 0.931 . S
C483 H471 0.929 . S
C483 C477 1.390 . S
C483 C480 1.386 . S
C484 C479 1.490 . S
C484 C486 1.395 . S
C484 C487 1.403 . S
H485 C491 0.930 . S
C486 H472 0.930 . S
C486 C484 1.395 . S
C486 C489 1.403 . S
C487 C484 1.403 . S
C487 C488 1.524 . S
C487 C491 1.400 . S
C488 H473 0.960 . S
C488 H474 0.960 . S
C488 H475 0.960 . S
C488 C487 1.524 . S
C489 C486 1.403 . S
C489 C490 1.392 . S
C489 C493 1.495 . S
C490 C489 1.392 . S
C490 C491 1.385 . S
C490 C492 1.478 . S
C491 H485 0.930 . S
C491 C487 1.400 . S
C491 C490 1.385 . S
C492 C490 1.478 . S
C492 C494 1.381 . S
C492 C498 1.383 . S
C493 C489 1.495 . S
C493 H499 0.959 . S
C493 H500 0.961 . S
C493 H501 0.960 . S
C494 C492 1.381 . S
C494 C495 1.394 . S
C494 H502 0.930 . S
C495 C494 1.394 . S
C495 C496 1.383 . S
C495 H503 0.929 . S
C496 C495 1.383 . S
C496 C497 1.377 . S
C497 H481 0.930 . S
C497 C496 1.377 . S
C497 C498 1.379 . S
C498 H482 0.931 . S
C498 C492 1.383 . S
C498 C497 1.379 . S
H499 C493 0.959 . S
H500 C493 0.961 . S
H501 C493 0.960 . S
H502 C494 0.930 . S
H503 C495 0.929 . S
H504 C512 0.929 . S
H505 C514 0.930 . S
H506 C516 0.930 . S
H507 C519 0.929 . S
H508 C522 0.930 . S
H509 C524 0.960 . S
H510 C524 0.960 . S
H511 C524 0.960 . S
C512 H504 0.929 . S
C512 C513 1.377 . S
C512 C514 1.384 . S
C513 C512 1.377 . S
C513 C519 1.390 . S
C514 H505 0.930 . S
C514 C512 1.384 . S
C514 C515 1.372 . S
C515 C514 1.372 . S
C515 C516 1.400 . S
C515 C520 1.490 . S
C516 H506 0.930 . S
C516 C515 1.400 . S
C516 C519 1.386 . S
H517 C533 0.930 . S
H518 C534 0.931 . S
C519 H507 0.929 . S
C519 C513 1.390 . S
C519 C516 1.386 . S
C520 C515 1.490 . S
C520 C522 1.395 . S
C520 C523 1.403 . S
H521 C527 0.930 . S
C522 H508 0.930 . S
C522 C520 1.395 . S
C522 C525 1.403 . S
C523 C520 1.403 . S
C523 C524 1.524 . S
C523 C527 1.400 . S
C524 H509 0.960 . S
C524 H510 0.960 . S
C524 H511 0.960 . S
C524 C523 1.524 . S
C525 C522 1.403 . S
C525 C526 1.392 . S
C525 C529 1.495 . S
C526 C525 1.392 . S
C526 C527 1.385 . S
C526 C528 1.478 . S
C527 H521 0.930 . S
C527 C523 1.400 . S
C527 C526 1.385 . S
C528 C526 1.478 . S
C528 C530 1.381 . S
C528 C534 1.383 . S
C529 C525 1.495 . S
C529 H535 0.959 . S
C529 H536 0.961 . S
C529 H537 0.960 . S
C530 C528 1.381 . S
C530 C531 1.394 . S
C530 H538 0.930 . S
C531 C530 1.394 . S
C531 C532 1.383 . S
C531 H539 0.929 . S
C532 C531 1.383 . S
C532 C533 1.377 . S
C533 H517 0.930 . S
C533 C532 1.377 . S
C533 C534 1.379 . S
C534 H518 0.931 . S
C534 C528 1.383 . S
C534 C533 1.379 . S
H535 C529 0.959 . S
H536 C529 0.961 . S
H537 C529 0.960 . S
H538 C530 0.930 . S
H539 C531 0.929 . S
H540 C548 0.929 . S
H541 C550 0.930 . S
H542 C552 0.930 . S
H543 C555 0.929 . S
H544 C558 0.930 . S
H545 C560 0.960 . S
H546 C560 0.960 . S
H547 C560 0.960 . S
C548 H540 0.929 . S
C548 C549 1.377 . S
C548 C550 1.384 . S
C549 C548 1.377 . S
C549 C555 1.390 . S
C550 H541 0.930 . S
C550 C548 1.384 . S
C550 C551 1.372 . S
C551 C550 1.372 . S
C551 C552 1.400 . S
C551 C556 1.490 . S
C552 H542 0.930 . S
C552 C551 1.400 . S
C552 C555 1.386 . S
H553 C569 0.930 . S
H554 C570 0.931 . S
C555 H543 0.929 . S
C555 C549 1.390 . S
C555 C552 1.386 . S
C556 C551 1.490 . S
C556 C558 1.395 . S
C556 C559 1.403 . S
H557 C563 0.930 . S
C558 H544 0.930 . S
C558 C556 1.395 . S
C558 C561 1.403 . S
C559 C556 1.403 . S
C559 C560 1.524 . S
C559 C563 1.400 . S
C560 H545 0.960 . S
C560 H546 0.960 . S
C560 H547 0.960 . S
C560 C559 1.524 . S
C561 C558 1.403 . S
C561 C562 1.392 . S
C561 C565 1.495 . S
C562 C561 1.392 . S
C562 C563 1.385 . S
C562 C564 1.478 . S
C563 H557 0.930 . S
C563 C559 1.400 . S
C563 C562 1.385 . S
C564 C562 1.478 . S
C564 C566 1.381 . S
C564 C570 1.383 . S
C565 C561 1.495 . S
C565 H571 0.959 . S
C565 H572 0.961 . S
C565 H573 0.960 . S
C566 C564 1.381 . S
C566 C567 1.394 . S
C566 H574 0.930 . S
C567 C566 1.394 . S
C567 C568 1.383 . S
C567 H575 0.929 . S
C568 C567 1.383 . S
C568 C569 1.377 . S
C569 H553 0.930 . S
C569 C568 1.377 . S
C569 C570 1.379 . S
C570 H554 0.931 . S
C570 C564 1.383 . S
C570 C569 1.379 . S
H571 C565 0.959 . S
H572 C565 0.961 . S
H573 C565 0.960 . S
H574 C566 0.930 . S
H575 C567 0.929 . S
H576 C584 0.929 . S
H577 C586 0.930 . S
H578 C588 0.930 . S
H579 C591 0.929 1_565 S
H580 C594 0.930 . S
H581 C596 0.960 . S
H582 C596 0.960 . S
H583 C596 0.960 . S
C584 H576 0.929 . S
C584 C585 1.365 1_545 S
C584 C586 1.384 . S
C585 C584 1.365 1_565 S
C585 C591 1.367 1_565 S
C586 H577 0.930 . S
C586 C584 1.384 . S
C586 C587 1.372 . S
C587 C586 1.372 . S
C587 C588 1.400 . S
C587 C592 1.490 . S
C588 H578 0.930 . S
C588 C587 1.400 . S
C588 C591 1.386 . S
H589 C605 0.930 . S
H590 C606 0.931 . S
C591 H579 0.929 1_545 S
C591 C585 1.367 1_545 S
C591 C588 1.386 . S
C592 C587 1.490 . S
C592 C594 1.395 . S
C592 C595 1.403 . S
H593 C599 0.930 . S
C594 H580 0.930 . S
C594 C592 1.395 . S
C594 C597 1.403 . S
C595 C592 1.403 . S
C595 C596 1.524 . S
C595 C599 1.400 . S
C596 H581 0.960 . S
C596 H582 0.960 . S
C596 H583 0.960 . S
C596 C595 1.524 . S
C597 C594 1.403 . S
C597 C598 1.392 . S
C597 C601 1.495 . S
C598 C597 1.392 . S
C598 C599 1.385 . S
C598 C600 1.478 . S
C599 H593 0.930 . S
C599 C595 1.400 . S
C599 C598 1.385 . S
C600 C598 1.478 . S
C600 C602 1.381 . S
C600 C606 1.383 . S
C601 C597 1.495 . S
C601 H607 0.959 . S
C601 H608 0.961 . S
C601 H609 0.960 . S
C602 C600 1.381 . S
C602 C603 1.394 . S
C602 H610 0.930 . S
C603 C602 1.394 . S
C603 C604 1.383 . S
C603 H611 0.929 . S
C604 C603 1.383 . S
C604 C605 1.377 . S
C605 H589 0.930 . S
C605 C604 1.377 . S
C605 C606 1.379 . S
C606 H590 0.931 . S
C606 C600 1.383 . S
C606 C605 1.379 . S
H607 C601 0.959 . S
H608 C601 0.961 . S
H609 C601 0.960 . S
H610 C602 0.930 . S
H611 C603 0.929 . S
H612 C620 0.929 . S
H613 C622 0.929 1_655 S
H614 C624 0.930 . S
H615 C627 0.929 . S
H616 C630 0.930 . S
H617 C632 0.960 . S
H618 C632 0.960 . S
H619 C632 0.960 . S
C620 H612 0.929 . S
C620 C621 1.377 . S
C620 C622 1.384 . S
C621 C620 1.377 . S
C621 C627 1.390 . S
C622 H613 0.929 1_455 S
C622 C620 1.384 . S
C622 C623 1.379 . S
C623 C622 1.379 . S
C623 C624 1.409 . S
C623 C628 1.476 1_455 S
C624 H614 0.930 . S
C624 C623 1.409 . S
C624 C627 1.386 . S
H625 C641 0.930 . S
H626 C642 0.939 . S
C627 H615 0.929 . S
C627 C621 1.390 . S
C627 C624 1.386 . S
C628 C623 1.476 1_655 S
C628 C630 1.395 . S
C628 C631 1.403 . S
H629 C635 0.930 . S
C630 H616 0.930 . S
C630 C628 1.395 . S
C630 C633 1.403 . S
C631 C628 1.403 . S
C631 C632 1.524 . S
C631 C635 1.400 . S
C632 H617 0.960 . S
C632 H618 0.960 . S
C632 H619 0.960 . S
C632 C631 1.524 . S
C633 C630 1.403 . S
C633 C634 1.392 . S
C633 C637 1.495 . S
C634 C633 1.392 . S
C634 C635 1.385 . S
C634 C636 1.478 . S
C635 H629 0.930 . S
C635 C631 1.400 . S
C635 C634 1.385 . S
C636 C634 1.478 . S
C636 C638 1.381 1_545 S
C636 C642 1.388 . S
C637 C633 1.495 . S
C637 H643 0.959 . S
C637 H644 0.973 . S
C637 H645 0.960 . S
C638 C636 1.381 1_565 S
C638 C639 1.394 . S
C638 H646 0.930 . S
C639 C638 1.394 . S
C639 C640 1.383 . S
C639 H647 0.929 . S
C640 C639 1.383 . S
C640 C641 1.377 . S
C641 H625 0.930 . S
C641 C640 1.377 . S
C641 C642 1.367 1_565 S
C642 H626 0.939 . S
C642 C636 1.388 . S
C642 C641 1.367 1_545 S
H643 C637 0.959 . S
H644 C637 0.973 . S
H645 C637 0.960 . S
H646 C638 0.930 . S
H647 C639 0.929 . S
H648 C656 0.929 . S
H649 C658 0.930 . S
H650 C660 0.930 . S
H651 C663 0.929 . S
H652 C666 0.930 . S
H653 C668 0.960 . S
H654 C668 0.960 . S
H655 C668 0.960 . S
C656 H648 0.929 . S
C656 C657 1.377 . S
C656 C658 1.384 . S
C657 C656 1.377 . S
C657 C663 1.390 . S
C658 H649 0.930 . S
C658 C656 1.384 . S
C658 C659 1.372 . S
C659 C658 1.372 . S
C659 C660 1.400 . S
C659 C664 1.490 . S
C660 H650 0.930 . S
C660 C659 1.400 . S
C660 C663 1.386 . S
H661 C677 0.930 . S
H662 C678 0.931 . S
C663 H651 0.929 . S
C663 C657 1.390 . S
C663 C660 1.386 . S
C664 C659 1.490 . S
C664 C666 1.395 1_455 S
C664 C667 1.403 . S
H665 C671 0.930 . S
C666 H652 0.930 . S
C666 C664 1.395 1_655 S
C666 C669 1.403 . S
C667 C664 1.403 . S
C667 C668 1.524 . S
C667 C671 1.400 1_455 S
C668 H653 0.960 . S
C668 H654 0.960 . S
C668 H655 0.960 . S
C668 C667 1.524 . S
C669 C666 1.403 . S
C669 C670 1.392 . S
C669 C673 1.495 . S
C670 C669 1.392 . S
C670 C671 1.385 . S
C670 C672 1.478 . S
C671 H665 0.930 . S
C671 C667 1.400 1_655 S
C671 C670 1.385 . S
C672 C670 1.478 . S
C672 C674 1.381 . S
C672 C678 1.383 . S
C673 C669 1.495 . S
C673 H679 0.959 . S
C673 H680 0.961 . S
C673 H681 0.960 . S
C674 C672 1.381 . S
C674 C675 1.394 . S
C674 H682 0.930 . S
C675 C674 1.394 . S
C675 C676 1.383 . S
C675 H683 0.929 . S
C676 C675 1.383 . S
C676 C677 1.377 . S
C677 H661 0.930 . S
C677 C676 1.377 . S
C677 C678 1.379 . S
C678 H662 0.931 . S
C678 C672 1.383 . S
C678 C677 1.379 . S
H679 C673 0.959 . S
H680 C673 0.961 . S
H681 C673 0.960 . S
H682 C674 0.930 . S
H683 C675 0.929 . S
H684 C692 0.929 . S
H685 C694 0.930 . S
H686 C696 0.930 . S
H687 C699 0.929 . S
H688 C702 0.930 . S
H689 C704 0.960 . S
H690 C704 0.960 . S
H691 C704 0.960 . S
C692 H684 0.929 . S
C692 C693 1.377 . S
C692 C694 1.384 . S
C693 C692 1.377 . S
C693 C699 1.390 . S
C694 H685 0.930 . S
C694 C692 1.384 . S
C694 C695 1.372 . S
C695 C694 1.372 . S
C695 C696 1.400 . S
C695 C700 1.490 . S
C696 H686 0.930 . S
C696 C695 1.400 . S
C696 C699 1.386 . S
H697 C713 0.930 . S
H698 C714 0.931 . S
C699 H687 0.929 . S
C699 C693 1.390 . S
C699 C696 1.386 . S
C700 C695 1.490 . S
C700 C702 1.395 . S
C700 C703 1.403 . S
H701 C707 0.930 . S
C702 H688 0.930 . S
C702 C700 1.395 . S
C702 C705 1.403 . S
C703 C700 1.403 . S
C703 C704 1.524 . S
C703 C707 1.400 . S
C704 H689 0.960 . S
C704 H690 0.960 . S
C704 H691 0.960 . S
C704 C703 1.524 . S
C705 C702 1.403 . S
C705 C706 1.392 . S
C705 C709 1.495 . S
C706 C705 1.392 . S
C706 C707 1.385 . S
C706 C708 1.478 . S
C707 H701 0.930 . S
C707 C703 1.400 . S
C707 C706 1.385 . S
C708 C706 1.478 . S
C708 C710 1.381 . S
C708 C714 1.383 . S
C709 C705 1.495 . S
C709 H715 0.959 . S
C709 H716 0.961 . S
C709 H717 0.960 . S
C710 C708 1.381 . S
C710 C711 1.394 . S
C710 H718 0.930 . S
C711 C710 1.394 . S
C711 C712 1.383 . S
C711 H719 0.929 . S
C712 C711 1.383 . S
C712 C713 1.377 . S
C713 H697 0.930 . S
C713 C712 1.377 . S
C713 C714 1.379 . S
C714 H698 0.931 . S
C714 C708 1.383 . S
C714 C713 1.379 . S
H715 C709 0.959 . S
H716 C709 0.961 . S
H717 C709 0.960 . S
H718 C710 0.930 . S
H719 C711 0.929 . S
H720 C728 0.929 . S
H721 C730 0.930 . S
H722 C732 0.930 . S
H723 C735 0.929 . S
H724 C738 0.930 . S
H725 C740 0.960 . S
H726 C740 0.960 . S
H727 C740 0.960 . S
C728 H720 0.929 . S
C728 C729 1.377 . S
C728 C730 1.384 . S
C729 C728 1.377 . S
C729 C735 1.390 . S
C730 H721 0.930 . S
C730 C728 1.384 . S
C730 C731 1.372 . S
C731 C730 1.372 . S
C731 C732 1.400 . S
C731 C736 1.490 . S
C732 H722 0.930 . S
C732 C731 1.400 . S
C732 C735 1.386 . S
H733 C749 0.930 . S
H734 C750 0.931 . S
C735 H723 0.929 . S
C735 C729 1.390 . S
C735 C732 1.386 . S
C736 C731 1.490 . S
C736 C738 1.395 . S
C736 C739 1.403 . S
H737 C743 0.930 . S
C738 H724 0.930 . S
C738 C736 1.395 . S
C738 C741 1.403 . S
C739 C736 1.403 . S
C739 C740 1.524 . S
C739 C743 1.400 . S
C740 H725 0.960 . S
C740 H726 0.960 . S
C740 H727 0.960 . S
C740 C739 1.524 . S
C741 C738 1.403 . S
C741 C742 1.392 . S
C741 C745 1.495 . S
C742 C741 1.392 . S
C742 C743 1.385 . S
C742 C744 1.478 . S
C743 H737 0.930 . S
C743 C739 1.400 . S
C743 C742 1.385 . S
C744 C742 1.478 . S
C744 C746 1.381 . S
C744 C750 1.383 . S
C745 C741 1.495 . S
C745 H751 0.959 . S
C745 H752 0.961 . S
C745 H753 0.960 . S
C746 C744 1.381 . S
C746 C747 1.394 . S
C746 H754 0.930 . S
C747 C746 1.394 . S
C747 C748 1.383 . S
C747 H755 0.929 . S
C748 C747 1.383 . S
C748 C749 1.377 . S
C749 H733 0.930 . S
C749 C748 1.377 . S
C749 C750 1.379 . S
C750 H734 0.931 . S
C750 C744 1.383 . S
C750 C749 1.379 . S
H751 C745 0.959 . S
H752 C745 0.961 . S
H753 C745 0.960 . S
H754 C746 0.930 . S
H755 C747 0.929 . S
H756 C764 0.929 . S
H757 C766 0.930 . S
H758 C768 0.930 . S
H759 C771 0.929 . S
H760 C774 0.930 . S
H761 C776 0.960 . S
H762 C776 0.960 . S
H763 C776 0.960 . S
C764 H756 0.929 . S
C764 C765 1.377 . S
C764 C766 1.384 . S
C765 C764 1.377 . S
C765 C771 1.390 . S
C766 H757 0.930 . S
C766 C764 1.384 . S
C766 C767 1.372 . S
C767 C766 1.372 . S
C767 C768 1.400 . S
C767 C772 1.490 . S
C768 H758 0.930 . S
C768 C767 1.400 . S
C768 C771 1.386 . S
H769 C785 0.930 . S
H770 C786 0.931 . S
C771 H759 0.929 . S
C771 C765 1.390 . S
C771 C768 1.386 . S
C772 C767 1.490 . S
C772 C774 1.395 . S
C772 C775 1.403 . S
H773 C779 0.930 . S
C774 H760 0.930 . S
C774 C772 1.395 . S
C774 C777 1.403 . S
C775 C772 1.403 . S
C775 C776 1.524 . S
C775 C779 1.400 . S
C776 H761 0.960 . S
C776 H762 0.960 . S
C776 H763 0.960 . S
C776 C775 1.524 . S
C777 C774 1.403 . S
C777 C778 1.392 . S
C777 C781 1.495 . S
C778 C777 1.392 . S
C778 C779 1.385 . S
C778 C780 1.478 . S
C779 H773 0.930 . S
C779 C775 1.400 . S
C779 C778 1.385 . S
C780 C778 1.478 . S
C780 C782 1.381 . S
C780 C786 1.383 . S
C781 C777 1.495 . S
C781 H787 0.959 . S
C781 H788 0.961 . S
C781 H789 0.960 . S
C782 C780 1.381 . S
C782 C783 1.394 . S
C782 H790 0.930 . S
C783 C782 1.394 . S
C783 C784 1.383 . S
C783 H791 0.929 . S
C784 C783 1.383 . S
C784 C785 1.377 . S
C785 H769 0.930 . S
C785 C784 1.377 . S
C785 C786 1.379 . S
C786 H770 0.931 . S
C786 C780 1.383 . S
C786 C785 1.379 . S
H787 C781 0.959 . S
H788 C781 0.961 . S
H789 C781 0.960 . S
H790 C782 0.930 . S
H791 C783 0.929 . S
H792 C800 0.929 . S
H793 C802 0.930 . S
H794 C804 0.930 . S
H795 C807 0.929 . S
H796 C810 0.930 . S
H797 C812 0.960 . S
H798 C812 0.960 . S
H799 C812 0.960 . S
C800 H792 0.929 . S
C800 C801 1.377 . S
C800 C802 1.384 . S
C801 C800 1.377 . S
C801 C807 1.390 . S
C802 H793 0.930 . S
C802 C800 1.384 . S
C802 C803 1.372 . S
C803 C802 1.372 . S
C803 C804 1.400 . S
C803 C808 1.490 . S
C804 H794 0.930 . S
C804 C803 1.400 . S
C804 C807 1.386 . S
H805 C821 0.930 . S
H806 C822 0.931 . S
C807 H795 0.929 . S
C807 C801 1.390 . S
C807 C804 1.386 . S
C808 C803 1.490 . S
C808 C810 1.395 . S
C808 C811 1.403 . S
H809 C815 0.930 . S
C810 H796 0.930 . S
C810 C808 1.395 . S
C810 C813 1.403 . S
C811 C808 1.403 . S
C811 C812 1.524 . S
C811 C815 1.400 . S
C812 H797 0.960 . S
C812 H798 0.960 . S
C812 H799 0.960 . S
C812 C811 1.524 . S
C813 C810 1.403 . S
C813 C814 1.392 . S
C813 C817 1.495 . S
C814 C813 1.392 . S
C814 C815 1.385 . S
C814 C816 1.478 . S
C815 H809 0.930 . S
C815 C811 1.400 . S
C815 C814 1.385 . S
C816 C814 1.478 . S
C816 C818 1.381 . S
C816 C822 1.383 . S
C817 C813 1.495 . S
C817 H823 0.959 . S
C817 H824 0.961 . S
C817 H825 0.960 . S
C818 C816 1.381 . S
C818 C819 1.394 . S
C818 H826 0.930 . S
C819 C818 1.394 . S
C819 C820 1.383 . S
C819 H827 0.929 . S
C820 C819 1.383 . S
C820 C821 1.377 . S
C821 H805 0.930 . S
C821 C820 1.377 . S
C821 C822 1.379 . S
C822 H806 0.931 . S
C822 C816 1.383 . S
C822 C821 1.379 . S
H823 C817 0.959 . S
H824 C817 0.961 . S
H825 C817 0.960 . S
H826 C818 0.930 . S
H827 C819 0.929 . S
H828 C836 0.929 . S
H829 C838 0.930 . S
H830 C840 0.930 . S
H831 C843 0.929 . S
H832 C846 0.930 . S
H833 C848 0.960 . S
H834 C848 0.960 . S
H835 C848 0.960 . S
C836 H828 0.929 . S
C836 C837 1.377 . S
C836 C838 1.384 . S
C837 C836 1.377 . S
C837 C843 1.390 . S
C838 H829 0.930 . S
C838 C836 1.384 . S
C838 C839 1.372 . S
C839 C838 1.372 . S
C839 C840 1.400 . S
C839 C844 1.490 . S
C840 H830 0.930 . S
C840 C839 1.400 . S
C840 C843 1.386 . S
H841 C857 0.930 . S
H842 C858 0.931 . S
C843 H831 0.929 . S
C843 C837 1.390 . S
C843 C840 1.386 . S
C844 C839 1.490 . S
C844 C846 1.395 . S
C844 C847 1.403 . S
H845 C851 0.930 . S
C846 H832 0.930 . S
C846 C844 1.395 . S
C846 C849 1.403 . S
C847 C844 1.403 . S
C847 C848 1.524 . S
C847 C851 1.400 . S
C848 H833 0.960 . S
C848 H834 0.960 . S
C848 H835 0.960 . S
C848 C847 1.524 . S
C849 C846 1.403 . S
C849 C850 1.392 . S
C849 C853 1.495 . S
C850 C849 1.392 . S
C850 C851 1.385 . S
C850 C852 1.478 . S
C851 H845 0.930 . S
C851 C847 1.400 . S
C851 C850 1.385 . S
C852 C850 1.478 . S
C852 C854 1.381 . S
C852 C858 1.383 . S
C853 C849 1.495 . S
C853 H859 0.959 . S
C853 H860 0.961 . S
C853 H861 0.960 . S
C854 C852 1.381 . S
C854 C855 1.394 . S
C854 H862 0.930 . S
C855 C854 1.394 . S
C855 C856 1.383 . S
C855 H863 0.929 . S
C856 C855 1.383 . S
C856 C857 1.377 . S
C857 H841 0.930 . S
C857 C856 1.377 . S
C857 C858 1.379 . S
C858 H842 0.931 . S
C858 C852 1.383 . S
C858 C857 1.379 . S
H859 C853 0.959 . S
H860 C853 0.961 . S
H861 C853 0.960 . S
H862 C854 0.930 . S
H863 C855 0.929 . S
H864 C872 0.929 . S
H865 C874 0.930 . S
H866 C876 0.930 . S
H867 C879 0.929 . S
H868 C882 0.930 . S
H869 C884 0.960 . S
H870 C884 0.960 . S
H871 C884 0.960 . S
C872 H864 0.929 . S
C872 C873 1.377 . S
C872 C874 1.384 . S
C873 C872 1.377 . S
C873 C879 1.390 . S
C874 H865 0.930 . S
C874 C872 1.384 . S
C874 C875 1.372 . S
C875 C874 1.372 . S
C875 C876 1.400 . S
C875 C880 1.490 . S
C876 H866 0.930 . S
C876 C875 1.400 . S
C876 C879 1.386 . S
H877 C893 0.930 . S
H878 C894 0.931 . S
C879 H867 0.929 . S
C879 C873 1.390 . S
C879 C876 1.386 . S
C880 C875 1.490 . S
C880 C882 1.395 . S
C880 C883 1.403 . S
H881 C887 0.930 . S
C882 H868 0.930 . S
C882 C880 1.395 . S
C882 C885 1.403 . S
C883 C880 1.403 . S
C883 C884 1.524 . S
C883 C887 1.400 . S
C884 H869 0.960 . S
C884 H870 0.960 . S
C884 H871 0.960 . S
C884 C883 1.524 . S
C885 C882 1.403 . S
C885 C886 1.392 . S
C885 C889 1.495 . S
C886 C885 1.392 . S
C886 C887 1.385 . S
C886 C888 1.478 . S
C887 H881 0.930 . S
C887 C883 1.400 . S
C887 C886 1.385 . S
C888 C886 1.478 . S
C888 C890 1.381 . S
C888 C894 1.383 . S
C889 C885 1.495 . S
C889 H895 0.959 . S
C889 H896 0.961 . S
C889 H897 0.960 . S
C890 C888 1.381 . S
C890 C891 1.394 . S
C890 H898 0.930 . S
C891 C890 1.394 . S
C891 C892 1.383 . S
C891 H899 0.929 . S
C892 C891 1.383 . S
C892 C893 1.377 . S
C893 H877 0.930 . S
C893 C892 1.377 . S
C893 C894 1.379 . S
C894 H878 0.931 . S
C894 C888 1.383 . S
C894 C893 1.379 . S
H895 C889 0.959 . S
H896 C889 0.961 . S
H897 C889 0.960 . S
H898 C890 0.930 . S
H899 C891 0.929 . S
H900 C908 0.929 . S
H901 C910 0.930 . S
H902 C912 0.930 . S
H903 C915 0.929 . S
H904 C918 0.930 . S
H905 C920 0.960 . S
H906 C920 0.960 . S
H907 C920 0.960 . S
C908 H900 0.929 . S
C908 C909 1.367 1_455 S
C908 C910 1.384 . S
C909 C908 1.367 1_655 S
C909 C915 1.383 . S
C910 H901 0.930 . S
C910 C908 1.384 . S
C910 C911 1.372 . S
C911 C910 1.372 . S
C911 C912 1.400 . S
C911 C916 1.490 . S
C912 H902 0.930 . S
C912 C911 1.400 . S
C912 C915 1.386 1_455 S
H913 C929 0.930 . S
H914 C930 0.931 . S
C915 H903 0.929 . S
C915 C909 1.383 . S
C915 C912 1.386 1_655 S
C916 C911 1.490 . S
C916 C918 1.395 . S
C916 C919 1.403 . S
H917 C923 0.930 . S
C918 H904 0.930 . S
C918 C916 1.395 . S
C918 C921 1.403 . S
C919 C916 1.403 . S
C919 C920 1.524 . S
C919 C923 1.400 . S
C920 H905 0.960 . S
C920 H906 0.960 . S
C920 H907 0.960 . S
C920 C919 1.524 . S
C921 C918 1.403 . S
C921 C922 1.392 . S
C921 C925 1.495 . S
C922 C921 1.392 . S
C922 C923 1.385 . S
C922 C924 1.478 . S
C923 H917 0.930 . S
C923 C919 1.400 . S
C923 C922 1.385 . S
C924 C922 1.478 . S
C924 C926 1.381 . S
C924 C930 1.383 . S
C925 C921 1.495 . S
C925 H931 0.959 . S
C925 H932 0.961 . S
C925 H933 0.960 . S
C926 C924 1.381 . S
C926 C927 1.394 . S
C926 H934 0.930 . S
C927 C926 1.394 . S
C927 C928 1.383 . S
C927 H935 0.929 . S
C928 C927 1.383 . S
C928 C929 1.377 . S
C929 H913 0.930 . S
C929 C928 1.377 . S
C929 C930 1.379 . S
C930 H914 0.931 . S
C930 C924 1.383 . S
C930 C929 1.379 . S
H931 C925 0.959 . S
H932 C925 0.961 . S
H933 C925 0.960 . S
H934 C926 0.930 . S
H935 C927 0.929 . S
H936 C944 0.929 . S
H937 C946 0.930 . S
H938 C948 0.930 . S
H939 C951 0.929 . S
H940 C954 0.930 . S
H941 C956 0.960 . S
H942 C956 0.960 . S
H943 C956 0.960 . S
C944 H936 0.929 . S
C944 C945 1.377 . S
C944 C946 1.384 . S
C945 C944 1.377 . S
C945 C951 1.390 . S
C946 H937 0.930 . S
C946 C944 1.384 . S
C946 C947 1.372 . S
C947 C946 1.372 . S
C947 C948 1.400 . S
C947 C952 1.490 . S
C948 H938 0.930 . S
C948 C947 1.400 . S
C948 C951 1.386 . S
H949 C965 0.930 . S
H950 C966 0.931 . S
C951 H939 0.929 . S
C951 C945 1.390 . S
C951 C948 1.386 . S
C952 C947 1.490 . S
C952 C954 1.395 . S
C952 C955 1.403 . S
H953 C959 0.930 . S
C954 H940 0.930 . S
C954 C952 1.395 . S
C954 C957 1.403 . S
C955 C952 1.403 . S
C955 C956 1.524 . S
C955 C959 1.400 1_565 S
C956 H941 0.960 . S
C956 H942 0.960 . S
C956 H943 0.960 . S
C956 C955 1.524 . S
C957 C954 1.403 . S
C957 C958 1.392 1_565 S
C957 C961 1.495 . S
C958 C957 1.392 1_545 S
C958 C959 1.385 . S
C958 C960 1.478 . S
C959 H953 0.930 . S
C959 C955 1.400 1_545 S
C959 C958 1.385 . S
C960 C958 1.478 . S
C960 C962 1.381 . S
C960 C966 1.383 . S
C961 C957 1.495 . S
C961 H967 0.959 . S
C961 H968 0.961 1_565 S
C961 H969 0.960 . S
C962 C960 1.381 . S
C962 C963 1.394 . S
C962 H970 0.930 . S
C963 C962 1.394 . S
C963 C964 1.383 . S
C963 H971 0.929 . S
C964 C963 1.383 . S
C964 C965 1.377 . S
C965 H949 0.930 . S
C965 C964 1.377 . S
C965 C966 1.379 . S
C966 H950 0.931 . S
C966 C960 1.383 . S
C966 C965 1.379 . S
H967 C961 0.959 . S
H968 C961 0.961 1_545 S
H969 C961 0.960 . S
H970 C962 0.930 . S
H971 C963 0.929 . S
H972 C980 0.929 . S
H973 C982 0.930 . S
H974 C984 0.952 . S
H975 C987 0.929 . S
H976 C990 0.930 . S
H977 C992 0.960 . S
H978 C992 0.960 . S
H979 C992 0.960 . S
C980 H972 0.929 . S
C980 C981 1.377 . S
C980 C982 1.384 . S
C981 C980 1.377 . S
C981 C987 1.390 . S
C982 H973 0.930 . S
C982 C980 1.384 . S
C982 C983 1.372 . S
C983 C982 1.372 . S
C983 C984 1.400 . S
C983 C988 1.490 1_545 S
C984 H974 0.952 . S
C984 C983 1.400 . S
C984 C987 1.386 . S
H985 C1001 0.930 . S
H986 C1002 0.931 . S
C987 H975 0.929 . S
C987 C981 1.390 . S
C987 C984 1.386 . S
C988 C983 1.490 1_565 S
C988 C990 1.395 . S
C988 C991 1.403 . S
H989 C995 0.930 . S
C990 H976 0.930 . S
C990 C988 1.395 . S
C990 C993 1.403 . S
C991 C988 1.403 . S
C991 C992 1.524 . S
C991 C995 1.400 . S
C992 H977 0.960 . S
C992 H978 0.960 . S
C992 H979 0.960 . S
C992 C991 1.524 . S
C993 C990 1.403 . S
C993 C994 1.392 . S
C993 C997 1.495 . S
C994 C993 1.392 . S
C994 C995 1.385 . S
C994 C996 1.478 . S
C995 H989 0.930 . S
C995 C991 1.400 . S
C995 C994 1.385 . S
C996 C994 1.478 . S
C996 C998 1.381 1_455 S
C996 C1002 1.383 . S
C997 C993 1.495 . S
C997 H1003 0.959 . S
C997 H1004 0.961 . S
C997 H1005 0.943 1_455 S
C998 C996 1.381 1_655 S
C998 C999 1.394 . S
C998 H1006 0.930 . S
C999 C998 1.394 . S
C999 C1000 1.383 . S
C999 H1007 0.929 . S
C1000 C999 1.383 . S
C1000 C1001 1.377 . S
C1001 H985 0.930 . S
C1001 C1000 1.377 . S
C1001 C1002 1.379 1_655 S
C1002 H986 0.931 . S
C1002 C996 1.383 . S
C1002 C1001 1.379 1_455 S
H1003 C997 0.959 . S
H1004 C997 0.961 . S
H1005 C997 0.943 1_655 S
H1006 C998 0.930 . S
H1007 C999 0.929 . S
H1008 C1016 0.929 . S
H1009 C1018 0.930 . S
H1010 C1020 0.930 1_565 S
H1011 C1023 0.929 1_565 S
H1012 C1026 0.930 . S
H1013 C1028 0.960 . S
H1014 C1028 0.960 1_545 S
H1015 C1028 0.960 . S
C1016 H1008 0.929 . S
C1016 C1017 1.377 . S
C1016 C1018 1.384 . S
C1017 C1016 1.377 . S
C1017 C1023 1.390 . S
C1018 H1009 0.930 . S
C1018 C1016 1.384 . S
C1018 C1019 1.372 . S
C1019 C1018 1.372 . S
C1019 C1020 1.400 . S
C1019 C1024 1.490 . S
C1020 H1010 0.930 1_545 S
C1020 C1019 1.400 . S
C1020 C1023 1.386 . S
H1021 C1037 0.894 1_565 S
H1022 C1038 0.931 1_565 S
C1023 H1011 0.929 1_545 S
C1023 C1017 1.390 . S
C1023 C1020 1.386 . S
C1024 C1019 1.490 . S
C1024 C1026 1.395 . S
C1024 C1027 1.403 . S
H1025 C1031 0.924 1_565 S
C1026 H1012 0.930 . S
C1026 C1024 1.395 . S
C1026 C1029 1.403 1_554 S
C1027 C1024 1.403 . S
C1027 C1028 1.524 1_545 S
C1027 C1031 1.400 1_554 S
C1028 H1013 0.960 . S
C1028 H1014 0.960 1_565 S
C1028 H1015 0.960 . S
C1028 C1027 1.524 1_565 S
C1029 C1026 1.403 1_556 S
C1029 C1030 1.392 . S
C1029 C1033 1.495 . S
C1030 C1029 1.392 . S
C1030 C1031 1.385 . S
C1030 C1032 1.478 . S
C1031 H1025 0.924 1_545 S
C1031 C1027 1.400 1_556 S
C1031 C1030 1.385 . S
C1032 C1030 1.478 . S
C1032 C1034 1.381 . S
C1032 C1038 1.383 . S
C1033 C1029 1.495 . S
C1033 H1039 0.959 . S
C1033 H1040 0.961 . S
C1033 H1041 0.960 . S
C1034 C1032 1.381 . S
C1034 C1035 1.394 . S
C1034 H1042 0.930 . S
C1035 C1034 1.394 . S
C1035 C1036 1.383 . S
C1035 H1043 0.929 . S
C1036 C1035 1.383 . S
C1036 C1037 1.411 . S
C1037 H1021 0.894 1_545 S
C1037 C1036 1.411 . S
C1037 C1038 1.382 . S
C1038 H1022 0.931 1_545 S
C1038 C1032 1.383 . S
C1038 C1037 1.382 . S
H1039 C1033 0.959 . S
H1040 C1033 0.961 . S
H1041 C1033 0.960 . S
H1042 C1034 0.930 . S
H1043 C1035 0.929 . S
H1044 C1052 0.929 . S
H1045 C1054 0.930 . S
H1046 C1056 0.930 1_655 S
H1047 C1059 0.929 1_655 S
H1048 C1062 0.930 . S
H1049 C1064 0.960 1_655 S
H1050 C1064 0.960 . S
H1051 C1064 0.960 1_655 S
C1052 H1044 0.929 . S
C1052 C1053 1.377 . S
C1052 C1054 1.384 . S
C1053 C1052 1.377 . S
C1053 C1059 1.390 . S
C1054 H1045 0.930 . S
C1054 C1052 1.384 . S
C1054 C1055 1.372 . S
C1055 C1054 1.372 . S
C1055 C1056 1.400 . S
C1055 C1060 1.490 . S
C1056 H1046 0.930 1_455 S
C1056 C1055 1.400 . S
C1056 C1059 1.386 . S
H1057 C1073 0.930 . S
H1058 C1074 0.928 . S
C1059 H1047 0.929 1_455 S
C1059 C1053 1.390 . S
C1059 C1056 1.386 . S
C1060 C1055 1.490 . S
C1060 C1062 1.395 . S
C1060 C1063 1.403 . S
H1061 C1067 0.930 . S
C1062 H1048 0.930 . S
C1062 C1060 1.395 . S
C1062 C1065 1.403 1_556 S
C1063 C1060 1.403 . S
C1063 C1064 1.524 . S
C1063 C1067 1.400 1_556 S
C1064 H1049 0.960 1_455 S
C1064 H1050 0.960 . S
C1064 H1051 0.960 1_455 S
C1064 C1063 1.524 . S
C1065 C1062 1.403 1_554 S
C1065 C1066 1.392 . S
C1065 C1069 1.495 . S
C1066 C1065 1.392 . S
C1066 C1067 1.385 . S
C1066 C1068 1.478 . S
C1067 H1061 0.930 . S
C1067 C1063 1.400 1_554 S
C1067 C1066 1.385 . S
C1068 C1066 1.478 . S
C1068 C1070 1.381 . S
C1068 C1074 1.386 1_455 S
C1069 C1065 1.495 . S
C1069 H1075 0.959 . S
C1069 H1076 0.961 . S
C1069 H1077 0.960 . S
C1070 C1068 1.381 . S
C1070 C1071 1.394 . S
C1070 H1078 0.930 . S
C1071 C1070 1.394 . S
C1071 C1072 1.383 . S
C1071 H1079 0.929 . S
C1072 C1071 1.383 . S
C1072 C1073 1.377 1_455 S
C1073 H1057 0.930 . S
C1073 C1072 1.377 1_655 S
C1073 C1074 1.379 . S
C1074 H1058 0.928 . S
C1074 C1068 1.386 1_655 S
C1074 C1073 1.379 . S
H1075 C1069 0.959 . S
H1076 C1069 0.961 . S
H1077 C1069 0.960 . S
H1078 C1070 0.930 . S
H1079 C1071 0.929 . S
H1080 C1088 0.929 . S
H1081 C1090 0.930 . S
H1082 C1092 0.930 . S
H1083 C1095 0.929 . S
H1084 C1098 0.930 . S
H1085 C1100 0.960 . S
H1086 C1100 0.960 . S
H1087 C1100 0.960 . S
C1088 H1080 0.929 . S
C1088 C1089 1.377 . S
C1088 C1090 1.384 . S
C1089 C1088 1.377 . S
C1089 C1095 1.390 . S
C1090 H1081 0.930 . S
C1090 C1088 1.384 . S
C1090 C1091 1.372 . S
C1091 C1090 1.372 . S
C1091 C1092 1.400 . S
C1091 C1096 1.490 . S
C1092 H1082 0.930 . S
C1092 C1091 1.400 . S
C1092 C1095 1.386 . S
H1093 C1109 0.930 . S
H1094 C1110 0.931 . S
C1095 H1083 0.929 . S
C1095 C1089 1.390 . S
C1095 C1092 1.386 . S
C1096 C1091 1.490 . S
C1096 C1098 1.395 . S
C1096 C1099 1.403 . S
H1097 C1103 0.930 . S
C1098 H1084 0.930 . S
C1098 C1096 1.395 . S
C1098 C1101 1.403 1_556 S
C1099 C1096 1.403 . S
C1099 C1100 1.524 . S
C1099 C1103 1.400 1_556 S
C1100 H1085 0.960 . S
C1100 H1086 0.960 . S
C1100 H1087 0.960 . S
C1100 C1099 1.524 . S
C1101 C1098 1.403 1_554 S
C1101 C1102 1.392 . S
C1101 C1105 1.495 . S
C1102 C1101 1.392 . S
C1102 C1103 1.385 . S
C1102 C1104 1.478 . S
C1103 H1097 0.930 . S
C1103 C1099 1.400 1_554 S
C1103 C1102 1.385 . S
C1104 C1102 1.478 . S
C1104 C1106 1.381 . S
C1104 C1110 1.383 . S
C1105 C1101 1.495 . S
C1105 H1111 0.959 . S
C1105 H1112 0.961 . S
C1105 H1113 0.960 . S
C1106 C1104 1.381 . S
C1106 C1107 1.394 . S
C1106 H1114 0.930 . S
C1107 C1106 1.394 . S
C1107 C1108 1.383 . S
C1107 H1115 0.929 . S
C1108 C1107 1.383 . S
C1108 C1109 1.377 . S
C1109 H1093 0.930 . S
C1109 C1108 1.377 . S
C1109 C1110 1.379 . S
C1110 H1094 0.931 . S
C1110 C1104 1.383 . S
C1110 C1109 1.379 . S
H1111 C1105 0.959 . S
H1112 C1105 0.961 . S
H1113 C1105 0.960 . S
H1114 C1106 0.930 . S
H1115 C1107 0.929 . S
H1116 C1124 0.929 . S
H1117 C1126 0.930 . S
H1118 C1128 0.930 . S
H1119 C1131 0.929 . S
H1120 C1134 0.930 . S
H1121 C1136 0.960 . S
H1122 C1136 0.960 . S
H1123 C1136 0.960 . S
C1124 H1116 0.929 . S
C1124 C1125 1.377 . S
C1124 C1126 1.384 . S
C1125 C1124 1.377 . S
C1125 C1131 1.390 . S
C1126 H1117 0.930 . S
C1126 C1124 1.384 . S
C1126 C1127 1.372 . S
C1127 C1126 1.372 . S
C1127 C1128 1.400 . S
C1127 C1132 1.490 . S
C1128 H1118 0.930 . S
C1128 C1127 1.400 . S
C1128 C1131 1.386 . S
H1129 C1145 0.930 . S
H1130 C1146 0.931 . S
C1131 H1119 0.929 . S
C1131 C1125 1.390 . S
C1131 C1128 1.386 . S
C1132 C1127 1.490 . S
C1132 C1134 1.395 . S
C1132 C1135 1.403 . S
H1133 C1139 0.930 . S
C1134 H1120 0.930 . S
C1134 C1132 1.395 . S
C1134 C1137 1.403 . S
C1135 C1132 1.403 . S
C1135 C1136 1.524 . S
C1135 C1139 1.400 . S
C1136 H1121 0.960 . S
C1136 H1122 0.960 . S
C1136 H1123 0.960 . S
C1136 C1135 1.524 . S
C1137 C1134 1.403 . S
C1137 C1138 1.392 . S
C1137 C1141 1.495 . S
C1138 C1137 1.392 . S
C1138 C1139 1.385 . S
C1138 C1140 1.478 . S
C1139 H1133 0.930 . S
C1139 C1135 1.400 . S
C1139 C1138 1.385 . S
C1140 C1138 1.478 . S
C1140 C1142 1.381 . S
C1140 C1146 1.383 . S
C1141 C1137 1.495 . S
C1141 H1147 0.959 . S
C1141 H1148 0.961 . S
C1141 H1149 0.960 . S
C1142 C1140 1.381 . S
C1142 C1143 1.394 . S
C1142 H1150 0.930 . S
C1143 C1142 1.394 . S
C1143 C1144 1.383 . S
C1143 H1151 0.929 . S
C1144 C1143 1.383 . S
C1144 C1145 1.377 . S
C1145 H1129 0.930 . S
C1145 C1144 1.377 . S
C1145 C1146 1.379 . S
C1146 H1130 0.931 . S
C1146 C1140 1.383 . S
C1146 C1145 1.379 . S
H1147 C1141 0.959 . S
H1148 C1141 0.961 . S
H1149 C1141 0.960 . S
H1150 C1142 0.930 . S
H1151 C1143 0.929 . S
H1152 C1160 0.929 . S
H1153 C1162 0.930 . S
H1154 C1164 0.930 . S
H1155 C1167 0.929 . S
H1156 C1170 0.930 . S
H1157 C1172 0.960 . S
H1158 C1172 0.960 . S
H1159 C1172 0.960 . S
C1160 H1152 0.929 . S
C1160 C1161 1.377 . S
C1160 C1162 1.384 . S
C1161 C1160 1.377 . S
C1161 C1167 1.390 . S
C1162 H1153 0.930 . S
C1162 C1160 1.384 . S
C1162 C1163 1.372 . S
C1163 C1162 1.372 . S
C1163 C1164 1.400 . S
C1163 C1168 1.490 . S
C1164 H1154 0.930 . S
C1164 C1163 1.400 . S
C1164 C1167 1.386 . S
H1165 C1181 0.930 . S
H1166 C1182 0.931 . S
C1167 H1155 0.929 . S
C1167 C1161 1.390 . S
C1167 C1164 1.386 . S
C1168 C1163 1.490 . S
C1168 C1170 1.395 . S
C1168 C1171 1.403 . S
H1169 C1175 0.930 . S
C1170 H1156 0.930 . S
C1170 C1168 1.395 . S
C1170 C1173 1.403 . S
C1171 C1168 1.403 . S
C1171 C1172 1.524 . S
C1171 C1175 1.400 . S
C1172 H1157 0.960 . S
C1172 H1158 0.960 . S
C1172 H1159 0.960 . S
C1172 C1171 1.524 . S
C1173 C1170 1.403 . S
C1173 C1174 1.392 . S
C1173 C1177 1.495 . S
C1174 C1173 1.392 . S
C1174 C1175 1.385 . S
C1174 C1176 1.478 . S
C1175 H1169 0.930 . S
C1175 C1171 1.400 . S
C1175 C1174 1.385 . S
C1176 C1174 1.478 . S
C1176 C1178 1.381 . S
C1176 C1182 1.383 . S
C1177 C1173 1.495 . S
C1177 H1183 0.959 . S
C1177 H1184 0.961 . S
C1177 H1185 0.960 . S
C1178 C1176 1.381 . S
C1178 C1179 1.394 . S
C1178 H1186 0.930 . S
C1179 C1178 1.394 . S
C1179 C1180 1.383 . S
C1179 H1187 0.929 . S
C1180 C1179 1.383 . S
C1180 C1181 1.377 . S
C1181 H1165 0.930 . S
C1181 C1180 1.377 . S
C1181 C1182 1.379 . S
C1182 H1166 0.931 . S
C1182 C1176 1.383 . S
C1182 C1181 1.379 . S
H1183 C1177 0.959 . S
H1184 C1177 0.961 . S
H1185 C1177 0.960 . S
H1186 C1178 0.930 . S
H1187 C1179 0.929 . S
H1188 C1196 0.929 . S
H1189 C1198 0.930 . S
H1190 C1200 0.930 . S
H1191 C1203 0.929 . S
H1192 C1206 0.930 . S
H1193 C1208 0.960 . S
H1194 C1208 0.960 . S
H1195 C1208 0.960 . S
C1196 H1188 0.929 . S
C1196 C1197 1.377 . S
C1196 C1198 1.384 . S
C1197 C1196 1.377 . S
C1197 C1203 1.390 . S
C1198 H1189 0.930 . S
C1198 C1196 1.384 . S
C1198 C1199 1.372 . S
C1199 C1198 1.372 . S
C1199 C1200 1.400 . S
C1199 C1204 1.490 . S
C1200 H1190 0.930 . S
C1200 C1199 1.400 . S
C1200 C1203 1.386 . S
H1201 C1217 0.930 . S
H1202 C1218 0.931 . S
C1203 H1191 0.929 . S
C1203 C1197 1.390 . S
C1203 C1200 1.386 . S
C1204 C1199 1.490 . S
C1204 C1206 1.395 . S
C1204 C1207 1.403 . S
H1205 C1211 0.930 . S
C1206 H1192 0.930 . S
C1206 C1204 1.395 . S
C1206 C1209 1.403 . S
C1207 C1204 1.403 . S
C1207 C1208 1.524 . S
C1207 C1211 1.400 . S
C1208 H1193 0.960 . S
C1208 H1194 0.960 . S
C1208 H1195 0.960 . S
C1208 C1207 1.524 . S
C1209 C1206 1.403 . S
C1209 C1210 1.392 . S
C1209 C1213 1.495 . S
C1210 C1209 1.392 . S
C1210 C1211 1.385 . S
C1210 C1212 1.478 . S
C1211 H1205 0.930 . S
C1211 C1207 1.400 . S
C1211 C1210 1.385 . S
C1212 C1210 1.478 . S
C1212 C1214 1.381 . S
C1212 C1218 1.383 . S
C1213 C1209 1.495 . S
C1213 H1219 0.959 . S
C1213 H1220 0.961 . S
C1213 H1221 0.960 . S
C1214 C1212 1.381 . S
C1214 C1215 1.394 . S
C1214 H1222 0.930 . S
C1215 C1214 1.394 . S
C1215 C1216 1.383 . S
C1215 H1223 0.929 . S
C1216 C1215 1.383 . S
C1216 C1217 1.377 . S
C1217 H1201 0.930 . S
C1217 C1216 1.377 . S
C1217 C1218 1.379 . S
C1218 H1202 0.931 . S
C1218 C1212 1.383 . S
C1218 C1217 1.379 . S
H1219 C1213 0.959 . S
H1220 C1213 0.961 . S
H1221 C1213 0.960 . S
H1222 C1214 0.930 . S
H1223 C1215 0.929 . S
H1224 C1232 0.929 . S
H1225 C1234 0.930 . S
H1226 C1236 0.930 . S
H1227 C1239 0.929 . S
H1228 C1242 0.930 . S
H1229 C1244 0.960 . S
H1230 C1244 0.960 . S
H1231 C1244 0.960 . S
C1232 H1224 0.929 . S
C1232 C1233 1.377 . S
C1232 C1234 1.384 . S
C1233 C1232 1.377 . S
C1233 C1239 1.390 . S
C1234 H1225 0.930 . S
C1234 C1232 1.384 . S
C1234 C1235 1.372 . S
C1235 C1234 1.372 . S
C1235 C1236 1.400 . S
C1235 C1240 1.490 . S
C1236 H1226 0.930 . S
C1236 C1235 1.400 . S
C1236 C1239 1.386 . S
H1237 C1253 0.930 . S
H1238 C1254 0.931 . S
C1239 H1227 0.929 . S
C1239 C1233 1.390 . S
C1239 C1236 1.386 . S
C1240 C1235 1.490 . S
C1240 C1242 1.395 . S
C1240 C1243 1.403 . S
H1241 C1247 0.930 . S
C1242 H1228 0.930 . S
C1242 C1240 1.395 . S
C1242 C1245 1.403 . S
C1243 C1240 1.403 . S
C1243 C1244 1.524 . S
C1243 C1247 1.400 . S
C1244 H1229 0.960 . S
C1244 H1230 0.960 . S
C1244 H1231 0.960 . S
C1244 C1243 1.524 . S
C1245 C1242 1.403 . S
C1245 C1246 1.392 . S
C1245 C1249 1.495 . S
C1246 C1245 1.392 . S
C1246 C1247 1.385 . S
C1246 C1248 1.478 . S
C1247 H1241 0.930 . S
C1247 C1243 1.400 . S
C1247 C1246 1.385 . S
C1248 C1246 1.478 . S
C1248 C1250 1.381 . S
C1248 C1254 1.383 . S
C1249 C1245 1.495 . S
C1249 H1255 0.959 . S
C1249 H1256 0.961 . S
C1249 H1257 0.960 . S
C1250 C1248 1.381 . S
C1250 C1251 1.394 . S
C1250 H1258 0.930 . S
C1251 C1250 1.394 . S
C1251 C1252 1.383 . S
C1251 H1259 0.929 . S
C1252 C1251 1.383 . S
C1252 C1253 1.377 . S
C1253 H1237 0.930 . S
C1253 C1252 1.377 . S
C1253 C1254 1.379 . S
C1254 H1238 0.931 . S
C1254 C1248 1.383 . S
C1254 C1253 1.379 . S
H1255 C1249 0.959 . S
H1256 C1249 0.961 . S
H1257 C1249 0.960 . S
H1258 C1250 0.930 . S
H1259 C1251 0.929 . S
H1260 C1268 0.929 . S
H1261 C1270 0.930 . S
H1262 C1272 0.930 . S
H1263 C1275 0.929 . S
H1264 C1278 0.930 . S
H1265 C1280 0.960 . S
H1266 C1280 0.960 . S
H1267 C1280 0.960 . S
C1268 H1260 0.929 . S
C1268 C1269 1.377 . S
C1268 C1270 1.384 . S
C1269 C1268 1.377 . S
C1269 C1275 1.390 . S
C1270 H1261 0.930 . S
C1270 C1268 1.384 . S
C1270 C1271 1.372 . S
C1271 C1270 1.372 . S
C1271 C1272 1.400 . S
C1271 C1276 1.490 . S
C1272 H1262 0.930 . S
C1272 C1271 1.400 . S
C1272 C1275 1.386 . S
H1273 C1289 0.930 . S
H1274 C1290 0.931 . S
C1275 H1263 0.929 . S
C1275 C1269 1.390 . S
C1275 C1272 1.386 . S
C1276 C1271 1.490 . S
C1276 C1278 1.395 . S
C1276 C1279 1.403 . S
H1277 C1283 0.930 . S
C1278 H1264 0.930 . S
C1278 C1276 1.395 . S
C1278 C1281 1.403 . S
C1279 C1276 1.403 . S
C1279 C1280 1.524 . S
C1279 C1283 1.400 . S
C1280 H1265 0.960 . S
C1280 H1266 0.960 . S
C1280 H1267 0.960 . S
C1280 C1279 1.524 . S
C1281 C1278 1.403 . S
C1281 C1282 1.392 . S
C1281 C1285 1.495 . S
C1282 C1281 1.392 . S
C1282 C1283 1.385 . S
C1282 C1284 1.478 . S
C1283 H1277 0.930 . S
C1283 C1279 1.400 . S
C1283 C1282 1.385 . S
C1284 C1282 1.478 . S
C1284 C1286 1.381 . S
C1284 C1290 1.383 . S
C1285 C1281 1.495 . S
C1285 H1291 0.959 . S
C1285 H1292 0.961 . S
C1285 H1293 0.960 . S
C1286 C1284 1.381 . S
C1286 C1287 1.394 . S
C1286 H1294 0.930 . S
C1287 C1286 1.394 . S
C1287 C1288 1.383 . S
C1287 H1295 0.929 . S
C1288 C1287 1.383 . S
C1288 C1289 1.377 . S
C1289 H1273 0.930 . S
C1289 C1288 1.377 . S
C1289 C1290 1.379 . S
C1290 H1274 0.931 . S
C1290 C1284 1.383 . S
C1290 C1289 1.379 . S
H1291 C1285 0.959 . S
H1292 C1285 0.961 . S
H1293 C1285 0.960 . S
H1294 C1286 0.930 . S
H1295 C1287 0.929 . S
H1296 C1304 0.929 . S
H1297 C1306 0.930 . S
H1298 C1308 0.930 . S
H1299 C1311 0.929 . S
H1300 C1314 0.930 . S
H1301 C1316 0.960 . S
H1302 C1316 0.960 . S
H1303 C1316 0.960 . S
C1304 H1296 0.929 . S
C1304 C1305 1.377 . S
C1304 C1306 1.384 . S
C1305 C1304 1.377 . S
C1305 C1311 1.390 . S
C1306 H1297 0.930 . S
C1306 C1304 1.384 . S
C1306 C1307 1.372 . S
C1307 C1306 1.372 . S
C1307 C1308 1.400 . S
C1307 C1312 1.490 . S
C1308 H1298 0.930 . S
C1308 C1307 1.400 . S
C1308 C1311 1.386 . S
H1309 C1325 0.930 . S
H1310 C1326 0.931 . S
C1311 H1299 0.929 . S
C1311 C1305 1.390 . S
C1311 C1308 1.386 . S
C1312 C1307 1.490 . S
C1312 C1314 1.395 . S
C1312 C1315 1.403 . S
H1313 C1319 0.930 . S
C1314 H1300 0.930 . S
C1314 C1312 1.395 . S
C1314 C1317 1.403 . S
C1315 C1312 1.403 . S
C1315 C1316 1.524 . S
C1315 C1319 1.400 . S
C1316 H1301 0.960 . S
C1316 H1302 0.960 . S
C1316 H1303 0.960 . S
C1316 C1315 1.524 . S
C1317 C1314 1.403 . S
C1317 C1318 1.392 . S
C1317 C1321 1.495 . S
C1318 C1317 1.392 . S
C1318 C1319 1.385 . S
C1318 C1320 1.478 . S
C1319 H1313 0.930 . S
C1319 C1315 1.400 . S
C1319 C1318 1.385 . S
C1320 C1318 1.478 . S
C1320 C1322 1.381 . S
C1320 C1326 1.383 . S
C1321 C1317 1.495 . S
C1321 H1327 0.959 . S
C1321 H1328 0.961 . S
C1321 H1329 0.960 . S
C1322 C1320 1.381 . S
C1322 C1323 1.394 . S
C1322 H1330 0.930 . S
C1323 C1322 1.394 . S
C1323 C1324 1.383 . S
C1323 H1331 0.929 . S
C1324 C1323 1.383 . S
C1324 C1325 1.377 . S
C1325 H1309 0.930 . S
C1325 C1324 1.377 . S
C1325 C1326 1.379 . S
C1326 H1310 0.931 . S
C1326 C1320 1.383 . S
C1326 C1325 1.379 . S
H1327 C1321 0.959 . S
H1328 C1321 0.961 . S
H1329 C1321 0.960 . S
H1330 C1322 0.930 . S
H1331 C1323 0.929 . S
H1332 C1340 0.929 . S
H1333 C1342 0.930 . S
H1334 C1344 0.930 . S
H1335 C1347 0.929 . S
H1336 C1350 0.930 . S
H1337 C1352 0.960 . S
H1338 C1352 0.960 . S
H1339 C1352 0.960 . S
C1340 H1332 0.929 . S
C1340 C1341 1.377 . S
C1340 C1342 1.384 . S
C1341 C1340 1.377 . S
C1341 C1347 1.390 . S
C1342 H1333 0.930 . S
C1342 C1340 1.384 . S
C1342 C1343 1.372 . S
C1343 C1342 1.372 . S
C1343 C1344 1.400 . S
C1343 C1348 1.490 . S
C1344 H1334 0.930 . S
C1344 C1343 1.400 . S
C1344 C1347 1.386 . S
H1345 C1361 0.930 1_545 S
H1346 C1362 0.931 . S
C1347 H1335 0.929 . S
C1347 C1341 1.390 . S
C1347 C1344 1.386 . S
C1348 C1343 1.490 . S
C1348 C1350 1.395 . S
C1348 C1351 1.403 . S
H1349 C1355 0.930 . S
C1350 H1336 0.930 . S
C1350 C1348 1.395 . S
C1350 C1353 1.403 . S
C1351 C1348 1.403 . S
C1351 C1352 1.524 . S
C1351 C1355 1.400 . S
C1352 H1337 0.960 . S
C1352 H1338 0.960 . S
C1352 H1339 0.960 . S
C1352 C1351 1.524 . S
C1353 C1350 1.403 . S
C1353 C1354 1.392 . S
C1353 C1357 1.495 . S
C1354 C1353 1.392 . S
C1354 C1355 1.385 . S
C1354 C1356 1.478 . S
C1355 H1349 0.930 . S
C1355 C1351 1.400 . S
C1355 C1354 1.385 . S
C1356 C1354 1.478 . S
C1356 C1358 1.381 . S
C1356 C1362 1.383 . S
C1357 C1353 1.495 . S
C1357 H1363 0.959 . S
C1357 H1364 0.961 . S
C1357 H1365 0.960 . S
C1358 C1356 1.381 . S
C1358 C1359 1.394 . S
C1358 H1366 0.930 . S
C1359 C1358 1.394 . S
C1359 C1360 1.383 . S
C1359 H1367 0.929 . S
C1360 C1359 1.383 . S
C1360 C1361 1.377 . S
C1361 H1345 0.930 1_565 S
C1361 C1360 1.377 . S
C1361 C1362 1.379 . S
C1362 H1346 0.931 . S
C1362 C1356 1.383 . S
C1362 C1361 1.379 . S
H1363 C1357 0.959 . S
H1364 C1357 0.961 . S
H1365 C1357 0.960 . S
H1366 C1358 0.930 . S
H1367 C1359 0.929 . S
H1368 C1376 0.929 . S
H1369 C1378 0.930 . S
H1370 C1380 0.930 . S
H1371 C1383 0.929 . S
H1372 C1386 0.930 . S
H1373 C1388 0.960 . S
H1374 C1388 0.960 . S
H1375 C1388 0.960 . S
C1376 H1368 0.929 . S
C1376 C1377 1.377 . S
C1376 C1378 1.384 . S
C1377 C1376 1.377 . S
C1377 C1383 1.390 . S
C1378 H1369 0.930 . S
C1378 C1376 1.384 . S
C1378 C1379 1.372 . S
C1379 C1378 1.372 . S
C1379 C1380 1.400 . S
C1379 C1384 1.490 . S
C1380 H1370 0.930 . S
C1380 C1379 1.400 . S
C1380 C1383 1.386 . S
H1381 C1397 0.930 . S
H1382 C1398 0.931 . S
C1383 H1371 0.929 . S
C1383 C1377 1.390 . S
C1383 C1380 1.386 . S
C1384 C1379 1.490 . S
C1384 C1386 1.395 . S
C1384 C1387 1.403 . S
H1385 C1391 0.930 . S
C1386 H1372 0.930 . S
C1386 C1384 1.395 . S
C1386 C1389 1.403 . S
C1387 C1384 1.403 . S
C1387 C1388 1.524 . S
C1387 C1391 1.400 . S
C1388 H1373 0.960 . S
C1388 H1374 0.960 . S
C1388 H1375 0.960 . S
C1388 C1387 1.524 . S
C1389 C1386 1.403 . S
C1389 C1390 1.392 . S
C1389 C1393 1.495 . S
C1390 C1389 1.392 . S
C1390 C1391 1.385 . S
C1390 C1392 1.478 . S
C1391 H1385 0.930 . S
C1391 C1387 1.400 . S
C1391 C1390 1.385 . S
C1392 C1390 1.478 . S
C1392 C1394 1.381 . S
C1392 C1398 1.383 . S
C1393 C1389 1.495 . S
C1393 H1399 0.959 . S
C1393 H1400 0.961 . S
C1393 H1401 0.960 . S
C1394 C1392 1.381 . S
C1394 C1395 1.394 . S
C1394 H1402 0.930 . S
C1395 C1394 1.394 . S
C1395 C1396 1.383 . S
C1395 H1403 0.929 . S
C1396 C1395 1.383 . S
C1396 C1397 1.377 . S
C1397 H1381 0.930 . S
C1397 C1396 1.377 . S
C1397 C1398 1.379 . S
C1398 H1382 0.931 . S
C1398 C1392 1.383 . S
C1398 C1397 1.379 . S
H1399 C1393 0.959 . S
H1400 C1393 0.961 . S
H1401 C1393 0.960 . S
H1402 C1394 0.930 . S
H1403 C1395 0.929 . S
H1404 C1412 0.929 . S
H1405 C1414 0.930 . S
H1406 C1416 0.930 . S
H1407 C1419 0.929 . S
H1408 C1422 0.930 . S
H1409 C1424 0.960 . S
H1410 C1424 0.960 . S
H1411 C1424 0.960 . S
C1412 H1404 0.929 . S
C1412 C1413 1.377 . S
C1412 C1414 1.384 . S
C1413 C1412 1.377 . S
C1413 C1419 1.390 . S
C1414 H1405 0.930 . S
C1414 C1412 1.384 . S
C1414 C1415 1.372 . S
C1415 C1414 1.372 . S
C1415 C1416 1.400 . S
C1415 C1420 1.490 . S
C1416 H1406 0.930 . S
C1416 C1415 1.400 . S
C1416 C1419 1.386 . S
H1417 C1433 0.930 . S
H1418 C1434 0.931 . S
C1419 H1407 0.929 . S
C1419 C1413 1.390 . S
C1419 C1416 1.386 . S
C1420 C1415 1.490 . S
C1420 C1422 1.395 . S
C1420 C1423 1.403 . S
H1421 C1427 0.930 . S
C1422 H1408 0.930 . S
C1422 C1420 1.395 . S
C1422 C1425 1.403 . S
C1423 C1420 1.403 . S
C1423 C1424 1.524 . S
C1423 C1427 1.400 . S
C1424 H1409 0.960 . S
C1424 H1410 0.960 . S
C1424 H1411 0.960 . S
C1424 C1423 1.524 . S
C1425 C1422 1.403 . S
C1425 C1426 1.392 . S
C1425 C1429 1.495 . S
C1426 C1425 1.392 . S
C1426 C1427 1.385 . S
C1426 C1428 1.478 . S
C1427 H1421 0.930 . S
C1427 C1423 1.400 . S
C1427 C1426 1.385 . S
C1428 C1426 1.478 . S
C1428 C1430 1.381 . S
C1428 C1434 1.383 . S
C1429 C1425 1.495 . S
C1429 H1435 0.959 . S
C1429 H1436 0.961 . S
C1429 H1437 0.960 . S
C1430 C1428 1.381 . S
C1430 C1431 1.394 . S
C1430 H1438 0.930 . S
C1431 C1430 1.394 . S
C1431 C1432 1.383 . S
C1431 H1439 0.929 . S
C1432 C1431 1.383 . S
C1432 C1433 1.377 . S
C1433 H1417 0.930 . S
C1433 C1432 1.377 . S
C1433 C1434 1.379 . S
C1434 H1418 0.931 . S
C1434 C1428 1.383 . S
C1434 C1433 1.379 . S
H1435 C1429 0.959 . S
H1436 C1429 0.961 . S
H1437 C1429 0.960 . S
H1438 C1430 0.930 . S
H1439 C1431 0.929 . S
H1440 C1448 0.929 . S
H1441 C1450 0.930 . S
H1442 C1452 0.930 . S
H1443 C1455 0.929 . S
H1444 C1458 0.930 . S
H1445 C1460 0.960 . S
H1446 C1460 0.960 . S
H1447 C1460 0.960 . S
C1448 H1440 0.929 . S
C1448 C1449 1.377 . S
C1448 C1450 1.384 . S
C1449 C1448 1.377 . S
C1449 C1455 1.390 . S
C1450 H1441 0.930 . S
C1450 C1448 1.384 . S
C1450 C1451 1.372 . S
C1451 C1450 1.372 . S
C1451 C1452 1.400 . S
C1451 C1456 1.490 . S
C1452 H1442 0.930 . S
C1452 C1451 1.400 . S
C1452 C1455 1.386 . S
H1453 C1469 0.930 . S
H1454 C1470 0.931 . S
C1455 H1443 0.929 . S
C1455 C1449 1.390 . S
C1455 C1452 1.386 . S
C1456 C1451 1.490 . S
C1456 C1458 1.395 . S
C1456 C1459 1.403 . S
H1457 C1463 0.930 . S
C1458 H1444 0.930 . S
C1458 C1456 1.395 . S
C1458 C1461 1.403 . S
C1459 C1456 1.403 . S
C1459 C1460 1.524 . S
C1459 C1463 1.400 . S
C1460 H1445 0.960 . S
C1460 H1446 0.960 . S
C1460 H1447 0.960 . S
C1460 C1459 1.524 . S
C1461 C1458 1.403 . S
C1461 C1462 1.392 . S
C1461 C1465 1.495 . S
C1462 C1461 1.392 . S
C1462 C1463 1.385 . S
C1462 C1464 1.478 . S
C1463 H1457 0.930 . S
C1463 C1459 1.400 . S
C1463 C1462 1.385 . S
C1464 C1462 1.478 . S
C1464 C1466 1.381 . S
C1464 C1470 1.383 . S
C1465 C1461 1.495 . S
C1465 H1471 0.959 . S
C1465 H1472 0.961 . S
C1465 H1473 0.960 . S
C1466 C1464 1.381 . S
C1466 C1467 1.394 . S
C1466 H1474 0.930 . S
C1467 C1466 1.394 . S
C1467 C1468 1.383 . S
C1467 H1475 0.929 . S
C1468 C1467 1.383 . S
C1468 C1469 1.377 . S
C1469 H1453 0.930 . S
C1469 C1468 1.377 . S
C1469 C1470 1.379 . S
C1470 H1454 0.931 . S
C1470 C1464 1.383 . S
C1470 C1469 1.379 . S
H1471 C1465 0.959 . S
H1472 C1465 0.961 . S
H1473 C1465 0.960 . S
H1474 C1466 0.930 . S
H1475 C1467 0.929 . S
H1476 C1484 0.929 . S
H1477 C1486 0.930 . S
H1478 C1488 0.930 . S
H1479 C1491 0.929 . S
H1480 C1494 0.930 . S
H1481 C1496 0.960 . S
H1482 C1496 0.960 . S
H1483 C1496 0.960 . S
C1484 H1476 0.929 . S
C1484 C1485 1.377 . S
C1484 C1486 1.384 . S
C1485 C1484 1.377 . S
C1485 C1491 1.390 . S
C1486 H1477 0.930 . S
C1486 C1484 1.384 . S
C1486 C1487 1.372 . S
C1487 C1486 1.372 . S
C1487 C1488 1.400 . S
C1487 C1492 1.490 . S
C1488 H1478 0.930 . S
C1488 C1487 1.400 . S
C1488 C1491 1.386 . S
H1489 C1505 0.930 . S
H1490 C1506 0.931 . S
C1491 H1479 0.929 . S
C1491 C1485 1.390 . S
C1491 C1488 1.386 . S
C1492 C1487 1.490 . S
C1492 C1494 1.395 . S
C1492 C1495 1.403 . S
H1493 C1499 0.930 . S
C1494 H1480 0.930 . S
C1494 C1492 1.395 . S
C1494 C1497 1.403 . S
C1495 C1492 1.403 . S
C1495 C1496 1.524 . S
C1495 C1499 1.400 . S
C1496 H1481 0.960 . S
C1496 H1482 0.960 . S
C1496 H1483 0.960 . S
C1496 C1495 1.524 . S
C1497 C1494 1.403 . S
C1497 C1498 1.392 . S
C1497 C1501 1.495 . S
C1498 C1497 1.392 . S
C1498 C1499 1.385 . S
C1498 C1500 1.478 . S
C1499 H1493 0.930 . S
C1499 C1495 1.400 . S
C1499 C1498 1.385 . S
C1500 C1498 1.478 . S
C1500 C1502 1.381 . S
C1500 C1506 1.383 . S
C1501 C1497 1.495 . S
C1501 H1507 0.959 . S
C1501 H1508 0.961 . S
C1501 H1509 0.960 . S
C1502 C1500 1.381 . S
C1502 C1503 1.394 . S
C1502 H1510 0.930 . S
C1503 C1502 1.394 . S
C1503 C1504 1.383 . S
C1503 H1511 0.929 . S
C1504 C1503 1.383 . S
C1504 C1505 1.377 . S
C1505 H1489 0.930 . S
C1505 C1504 1.377 . S
C1505 C1506 1.379 . S
C1506 H1490 0.931 . S
C1506 C1500 1.383 . S
C1506 C1505 1.379 . S
H1507 C1501 0.959 . S
H1508 C1501 0.961 . S
H1509 C1501 0.960 . S
H1510 C1502 0.930 . S
H1511 C1503 0.929 . S
H1512 C1520 0.929 . S
H1513 C1522 0.930 . S
H1514 C1524 0.930 . S
H1515 C1527 0.929 . S
H1516 C1530 0.930 . S
H1517 C1532 0.960 . S
H1518 C1532 0.960 . S
H1519 C1532 0.960 . S
C1520 H1512 0.929 . S
C1520 C1521 1.377 . S
C1520 C1522 1.384 . S
C1521 C1520 1.377 . S
C1521 C1527 1.390 . S
C1522 H1513 0.930 . S
C1522 C1520 1.384 . S
C1522 C1523 1.372 . S
C1523 C1522 1.372 . S
C1523 C1524 1.400 . S
C1523 C1528 1.490 . S
C1524 H1514 0.930 . S
C1524 C1523 1.400 . S
C1524 C1527 1.386 . S
H1525 C1541 0.930 . S
H1526 C1542 0.931 . S
C1527 H1515 0.929 . S
C1527 C1521 1.390 . S
C1527 C1524 1.386 . S
C1528 C1523 1.490 . S
C1528 C1530 1.395 . S
C1528 C1531 1.403 . S
H1529 C1535 0.930 . S
C1530 H1516 0.930 . S
C1530 C1528 1.395 . S
C1530 C1533 1.403 . S
C1531 C1528 1.403 . S
C1531 C1532 1.524 . S
C1531 C1535 1.400 . S
C1532 H1517 0.960 . S
C1532 H1518 0.960 . S
C1532 H1519 0.960 . S
C1532 C1531 1.524 . S
C1533 C1530 1.403 . S
C1533 C1534 1.392 . S
C1533 C1537 1.495 . S
C1534 C1533 1.392 . S
C1534 C1535 1.385 . S
C1534 C1536 1.478 . S
C1535 H1529 0.930 . S
C1535 C1531 1.400 . S
C1535 C1534 1.385 . S
C1536 C1534 1.478 . S
C1536 C1538 1.381 . S
C1536 C1542 1.383 . S
C1537 C1533 1.495 . S
C1537 H1543 0.959 . S
C1537 H1544 0.961 . S
C1537 H1545 0.960 . S
C1538 C1536 1.381 . S
C1538 C1539 1.394 . S
C1538 H1546 0.930 . S
C1539 C1538 1.394 . S
C1539 C1540 1.383 . S
C1539 H1547 0.929 . S
C1540 C1539 1.383 . S
C1540 C1541 1.377 . S
C1541 H1525 0.930 . S
C1541 C1540 1.377 . S
C1541 C1542 1.379 . S
C1542 H1526 0.931 . S
C1542 C1536 1.383 . S
C1542 C1541 1.379 . S
H1543 C1537 0.959 . S
H1544 C1537 0.961 . S
H1545 C1537 0.960 . S
H1546 C1538 0.930 . S
H1547 C1539 0.929 . S
H1548 C1556 0.929 . S
H1549 C1558 0.930 . S
H1550 C1560 0.930 1_455 S
H1551 C1563 0.929 . S
H1552 C1566 0.930 . S
H1553 C1568 0.960 . S
H1554 C1568 0.960 1_655 S
H1555 C1568 0.960 . S
C1556 H1548 0.929 . S
C1556 C1557 1.377 . S
C1556 C1558 1.384 . S
C1557 C1556 1.377 . S
C1557 C1563 1.390 . S
C1558 H1549 0.930 . S
C1558 C1556 1.384 . S
C1558 C1559 1.372 . S
C1559 C1558 1.372 . S
C1559 C1560 1.400 . S
C1559 C1564 1.490 1_655 S
C1560 H1550 0.930 1_655 S
C1560 C1559 1.400 . S
C1560 C1563 1.386 . S
H1561 C1577 0.930 . S
H1562 C1578 0.931 . S
C1563 H1551 0.929 . S
C1563 C1557 1.390 . S
C1563 C1560 1.386 . S
C1564 C1559 1.490 1_455 S
C1564 C1566 1.395 . S
C1564 C1567 1.403 . S
H1565 C1571 0.930 . S
C1566 H1552 0.930 . S
C1566 C1564 1.395 . S
C1566 C1569 1.403 . S
C1567 C1564 1.403 . S
C1567 C1568 1.524 . S
C1567 C1571 1.400 . S
C1568 H1553 0.960 . S
C1568 H1554 0.960 1_455 S
C1568 H1555 0.960 . S
C1568 C1567 1.524 . S
C1569 C1566 1.403 . S
C1569 C1570 1.392 . S
C1569 C1573 1.495 . S
C1570 C1569 1.392 . S
C1570 C1571 1.385 . S
C1570 C1572 1.478 . S
C1571 H1565 0.930 . S
C1571 C1567 1.400 . S
C1571 C1570 1.385 . S
C1572 C1570 1.478 . S
C1572 C1574 1.381 . S
C1572 C1578 1.383 . S
C1573 C1569 1.495 . S
C1573 H1579 0.959 . S
C1573 H1580 0.961 . S
C1573 H1581 0.960 . S
C1574 C1572 1.381 . S
C1574 C1575 1.394 . S
C1574 H1582 0.930 . S
C1575 C1574 1.394 . S
C1575 C1576 1.383 . S
C1575 H1583 0.929 . S
C1576 C1575 1.383 . S
C1576 C1577 1.377 . S
C1577 H1561 0.930 . S
C1577 C1576 1.377 . S
C1577 C1578 1.379 . S
C1578 H1562 0.931 . S
C1578 C1572 1.383 . S
C1578 C1577 1.379 . S
H1579 C1573 0.959 . S
H1580 C1573 0.961 . S
H1581 C1573 0.960 . S
H1582 C1574 0.930 . S
H1583 C1575 0.929 . S
H1584 C1592 0.929 . S
H1585 C1594 0.930 . S
H1586 C1596 0.930 . S
H1587 C1599 0.929 . S
H1588 C1602 0.930 . S
H1589 C1604 0.960 . S
H1590 C1604 0.960 . S
H1591 C1604 0.960 . S
C1592 H1584 0.929 . S
C1592 C1593 1.377 . S
C1592 C1594 1.384 . S
C1593 C1592 1.377 . S
C1593 C1599 1.390 . S
C1594 H1585 0.930 . S
C1594 C1592 1.384 . S
C1594 C1595 1.372 . S
C1595 C1594 1.372 . S
C1595 C1596 1.400 . S
C1595 C1600 1.490 . S
C1596 H1586 0.930 . S
C1596 C1595 1.400 . S
C1596 C1599 1.386 . S
H1597 C1613 0.930 . S
H1598 C1614 0.931 . S
C1599 H1587 0.929 . S
C1599 C1593 1.390 . S
C1599 C1596 1.386 . S
C1600 C1595 1.490 . S
C1600 C1602 1.395 . S
C1600 C1603 1.403 . S
H1601 C1607 0.930 . S
C1602 H1588 0.930 . S
C1602 C1600 1.395 . S
C1602 C1605 1.403 . S
C1603 C1600 1.403 . S
C1603 C1604 1.524 . S
C1603 C1607 1.400 . S
C1604 H1589 0.960 . S
C1604 H1590 0.960 . S
C1604 H1591 0.960 . S
C1604 C1603 1.524 . S
C1605 C1602 1.403 . S
C1605 C1606 1.392 . S
C1605 C1609 1.495 . S
C1606 C1605 1.392 . S
C1606 C1607 1.385 . S
C1606 C1608 1.478 . S
C1607 H1601 0.930 . S
C1607 C1603 1.400 . S
C1607 C1606 1.385 . S
C1608 C1606 1.478 . S
C1608 C1610 1.381 . S
C1608 C1614 1.383 . S
C1609 C1605 1.495 . S
C1609 H1615 0.959 . S
C1609 H1616 0.961 . S
C1609 H1617 0.960 . S
C1610 C1608 1.381 . S
C1610 C1611 1.394 . S
C1610 H1618 0.930 . S
C1611 C1610 1.394 . S
C1611 C1612 1.383 . S
C1611 H1619 0.929 . S
C1612 C1611 1.383 . S
C1612 C1613 1.377 . S
C1613 H1597 0.930 . S
C1613 C1612 1.377 . S
C1613 C1614 1.379 . S
C1614 H1598 0.931 . S
C1614 C1608 1.383 . S
C1614 C1613 1.379 . S
H1615 C1609 0.959 . S
H1616 C1609 0.961 . S
H1617 C1609 0.960 . S
H1618 C1610 0.930 . S
H1619 C1611 0.929 . S
H1620 C1628 0.929 . S
H1621 C1630 0.930 . S
H1622 C1632 0.930 1_545 S
H1623 C1635 0.929 . S
H1624 C1638 0.930 1_565 S
H1625 C1640 0.960 . S
H1626 C1640 0.960 1_565 S
H1627 C1640 0.960 . S
C1628 H1620 0.929 . S
C1628 C1629 1.377 . S
C1628 C1630 1.384 . S
C1629 C1628 1.377 . S
C1629 C1635 1.390 . S
C1630 H1621 0.930 . S
C1630 C1628 1.384 . S
C1630 C1631 1.372 . S
C1631 C1630 1.372 . S
C1631 C1632 1.400 . S
C1631 C1636 1.490 1_565 S
C1632 H1622 0.930 1_565 S
C1632 C1631 1.400 . S
C1632 C1635 1.386 . S
H1633 C1649 0.930 . S
H1634 C1650 0.931 . S
C1635 H1623 0.929 . S
C1635 C1629 1.390 . S
C1635 C1632 1.386 . S
C1636 C1631 1.490 1_545 S
C1636 C1638 1.395 . S
C1636 C1639 1.403 . S
H1637 C1643 0.930 . S
C1638 H1624 0.930 1_545 S
C1638 C1636 1.395 . S
C1638 C1641 1.403 . S
C1639 C1636 1.403 . S
C1639 C1640 1.524 . S
C1639 C1643 1.400 . S
C1640 H1625 0.960 . S
C1640 H1626 0.960 1_545 S
C1640 H1627 0.960 . S
C1640 C1639 1.524 . S
C1641 C1638 1.403 . S
C1641 C1642 1.392 . S
C1641 C1645 1.495 . S
C1642 C1641 1.392 . S
C1642 C1643 1.385 . S
C1642 C1644 1.478 . S
C1643 H1637 0.930 . S
C1643 C1639 1.400 . S
C1643 C1642 1.385 . S
C1644 C1642 1.478 . S
C1644 C1646 1.381 . S
C1644 C1650 1.383 . S
C1645 C1641 1.495 . S
C1645 H1651 0.959 . S
C1645 H1652 0.961 . S
C1645 H1653 0.960 . S
C1646 C1644 1.381 . S
C1646 C1647 1.394 . S
C1646 H1654 0.930 . S
C1647 C1646 1.394 . S
C1647 C1648 1.383 . S
C1647 H1655 0.929 . S
C1648 C1647 1.383 . S
C1648 C1649 1.377 . S
C1649 H1633 0.930 . S
C1649 C1648 1.377 . S
C1649 C1650 1.379 . S
C1650 H1634 0.931 . S
C1650 C1644 1.383 . S
C1650 C1649 1.379 . S
H1651 C1645 0.959 . S
H1652 C1645 0.961 . S
H1653 C1645 0.960 . S
H1654 C1646 0.930 . S
H1655 C1647 0.929 . S
H1656 C1664 0.929 . S
H1657 C1666 0.930 . S
H1658 C1668 0.930 . S
H1659 C1671 0.929 . S
H1660 C1674 0.930 . S
H1661 C1676 0.960 . S
H1662 C1676 0.960 . S
H1663 C1676 0.960 . S
C1664 H1656 0.929 . S
C1664 C1665 1.377 . S
C1664 C1666 1.384 . S
C1665 C1664 1.377 . S
C1665 C1671 1.390 . S
C1666 H1657 0.930 . S
C1666 C1664 1.384 . S
C1666 C1667 1.372 . S
C1667 C1666 1.372 . S
C1667 C1668 1.400 . S
C1667 C1672 1.490 . S
C1668 H1658 0.930 . S
C1668 C1667 1.400 . S
C1668 C1671 1.386 . S
H1669 C1685 0.930 . S
H1670 C1686 0.931 . S
C1671 H1659 0.929 . S
C1671 C1665 1.390 . S
C1671 C1668 1.386 . S
C1672 C1667 1.490 . S
C1672 C1674 1.395 . S
C1672 C1675 1.403 . S
H1673 C1679 0.930 . S
C1674 H1660 0.930 . S
C1674 C1672 1.395 . S
C1674 C1677 1.403 . S
C1675 C1672 1.403 . S
C1675 C1676 1.524 . S
C1675 C1679 1.400 . S
C1676 H1661 0.960 . S
C1676 H1662 0.960 . S
C1676 H1663 0.960 . S
C1676 C1675 1.524 . S
C1677 C1674 1.403 . S
C1677 C1678 1.392 . S
C1677 C1681 1.495 . S
C1678 C1677 1.392 . S
C1678 C1679 1.385 . S
C1678 C1680 1.478 . S
C1679 H1673 0.930 . S
C1679 C1675 1.400 . S
C1679 C1678 1.385 . S
C1680 C1678 1.478 . S
C1680 C1682 1.381 . S
C1680 C1686 1.383 . S
C1681 C1677 1.495 . S
C1681 H1687 0.959 . S
C1681 H1688 0.961 . S
C1681 H1689 0.960 . S
C1682 C1680 1.381 . S
C1682 C1683 1.394 . S
C1682 H1690 0.930 . S
C1683 C1682 1.394 . S
C1683 C1684 1.383 . S
C1683 H1691 0.929 . S
C1684 C1683 1.383 . S
C1684 C1685 1.377 . S
C1685 H1669 0.930 . S
C1685 C1684 1.377 . S
C1685 C1686 1.379 . S
C1686 H1670 0.931 . S
C1686 C1680 1.383 . S
C1686 C1685 1.379 . S
H1687 C1681 0.959 . S
H1688 C1681 0.961 . S
H1689 C1681 0.960 . S
H1690 C1682 0.930 . S
H1691 C1683 0.929 . S
H1692 C1700 0.929 . S
H1693 C1702 0.930 . S
H1694 C1704 0.930 . S
H1695 C1707 0.929 . S
H1696 C1710 0.930 . S
H1697 C1712 0.960 . S
H1698 C1712 0.960 . S
H1699 C1712 0.960 . S
C1700 H1692 0.929 . S
C1700 C1701 1.377 . S
C1700 C1702 1.384 . S
C1701 C1700 1.377 . S
C1701 C1707 1.390 . S
C1702 H1693 0.930 . S
C1702 C1700 1.384 . S
C1702 C1703 1.372 . S
C1703 C1702 1.372 . S
C1703 C1704 1.400 . S
C1703 C1708 1.490 . S
C1704 H1694 0.930 . S
C1704 C1703 1.400 . S
C1704 C1707 1.386 . S
H1705 C1721 0.930 . S
H1706 C1722 0.931 . S
C1707 H1695 0.929 . S
C1707 C1701 1.390 . S
C1707 C1704 1.386 . S
C1708 C1703 1.490 . S
C1708 C1710 1.395 . S
C1708 C1711 1.403 . S
H1709 C1715 0.930 . S
C1710 H1696 0.930 . S
C1710 C1708 1.395 . S
C1710 C1713 1.403 . S
C1711 C1708 1.403 . S
C1711 C1712 1.524 . S
C1711 C1715 1.400 . S
C1712 H1697 0.960 . S
C1712 H1698 0.960 . S
C1712 H1699 0.960 . S
C1712 C1711 1.524 . S
C1713 C1710 1.403 . S
C1713 C1714 1.392 . S
C1713 C1717 1.495 . S
C1714 C1713 1.392 . S
C1714 C1715 1.385 . S
C1714 C1716 1.478 . S
C1715 H1709 0.930 . S
C1715 C1711 1.400 . S
C1715 C1714 1.385 . S
C1716 C1714 1.478 . S
C1716 C1718 1.381 . S
C1716 C1722 1.383 . S
C1717 C1713 1.495 . S
C1717 H1723 0.959 . S
C1717 H1724 0.961 . S
C1717 H1725 0.960 . S
C1718 C1716 1.381 . S
C1718 C1719 1.394 . S
C1718 H1726 0.930 . S
C1719 C1718 1.394 . S
C1719 C1720 1.383 . S
C1719 H1727 0.929 . S
C1720 C1719 1.383 . S
C1720 C1721 1.377 . S
C1721 H1705 0.930 . S
C1721 C1720 1.377 . S
C1721 C1722 1.379 . S
C1722 H1706 0.931 . S
C1722 C1716 1.383 . S
C1722 C1721 1.379 . S
H1723 C1717 0.959 . S
H1724 C1717 0.961 . S
H1725 C1717 0.960 . S
H1726 C1718 0.930 . S
H1727 C1719 0.929 . S
H1728 C1736 0.929 . S
H1729 C1738 0.930 . S
H1730 C1740 0.930 . S
H1731 C1743 0.929 . S
H1732 C1746 0.930 . S
H1733 C1748 0.960 . S
H1734 C1748 0.960 . S
H1735 C1748 0.960 . S
C1736 H1728 0.929 . S
C1736 C1737 1.377 . S
C1736 C1738 1.384 . S
C1737 C1736 1.377 . S
C1737 C1743 1.390 . S
C1738 H1729 0.930 . S
C1738 C1736 1.384 . S
C1738 C1739 1.372 . S
C1739 C1738 1.372 . S
C1739 C1740 1.400 . S
C1739 C1744 1.490 . S
C1740 H1730 0.930 . S
C1740 C1739 1.400 . S
C1740 C1743 1.386 . S
H1741 C1757 0.930 . S
H1742 C1758 0.931 . S
C1743 H1731 0.929 . S
C1743 C1737 1.390 . S
C1743 C1740 1.386 . S
C1744 C1739 1.490 . S
C1744 C1746 1.395 . S
C1744 C1747 1.403 . S
H1745 C1751 0.930 . S
C1746 H1732 0.930 . S
C1746 C1744 1.395 . S
C1746 C1749 1.403 . S
C1747 C1744 1.403 . S
C1747 C1748 1.524 . S
C1747 C1751 1.400 . S
C1748 H1733 0.960 . S
C1748 H1734 0.960 . S
C1748 H1735 0.960 . S
C1748 C1747 1.524 . S
C1749 C1746 1.403 . S
C1749 C1750 1.392 . S
C1749 C1753 1.495 . S
C1750 C1749 1.392 . S
C1750 C1751 1.385 . S
C1750 C1752 1.478 . S
C1751 H1745 0.930 . S
C1751 C1747 1.400 . S
C1751 C1750 1.385 . S
C1752 C1750 1.478 . S
C1752 C1754 1.381 . S
C1752 C1758 1.383 . S
C1753 C1749 1.495 . S
C1753 H1759 0.959 . S
C1753 H1760 0.961 . S
C1753 H1761 0.960 . S
C1754 C1752 1.381 . S
C1754 C1755 1.394 . S
C1754 H1762 0.930 . S
C1755 C1754 1.394 . S
C1755 C1756 1.383 . S
C1755 H1763 0.929 . S
C1756 C1755 1.383 . S
C1756 C1757 1.377 . S
C1757 H1741 0.930 . S
C1757 C1756 1.377 . S
C1757 C1758 1.379 . S
C1758 H1742 0.931 . S
C1758 C1752 1.383 . S
C1758 C1757 1.379 . S
H1759 C1753 0.959 . S
H1760 C1753 0.961 . S
H1761 C1753 0.960 . S
H1762 C1754 0.930 . S
H1763 C1755 0.929 . S
H1764 C1772 0.929 . S
H1765 C1774 0.930 . S
H1766 C1776 0.930 . S
H1767 C1779 0.929 . S
H1768 C1782 0.930 . S
H1769 C1784 0.960 . S
H1770 C1784 0.960 . S
H1771 C1784 0.960 . S
C1772 H1764 0.929 . S
C1772 C1773 1.377 . S
C1772 C1774 1.384 . S
C1773 C1772 1.377 . S
C1773 C1779 1.390 . S
C1774 H1765 0.930 . S
C1774 C1772 1.384 . S
C1774 C1775 1.372 . S
C1775 C1774 1.372 . S
C1775 C1776 1.400 . S
C1775 C1780 1.490 . S
C1776 H1766 0.930 . S
C1776 C1775 1.400 . S
C1776 C1779 1.386 . S
H1777 C1793 0.930 . S
H1778 C1794 0.931 . S
C1779 H1767 0.929 . S
C1779 C1773 1.390 . S
C1779 C1776 1.386 . S
C1780 C1775 1.490 . S
C1780 C1782 1.395 . S
C1780 C1783 1.403 . S
H1781 C1787 0.930 . S
C1782 H1768 0.930 . S
C1782 C1780 1.395 . S
C1782 C1785 1.403 . S
C1783 C1780 1.403 . S
C1783 C1784 1.524 . S
C1783 C1787 1.400 . S
C1784 H1769 0.960 . S
C1784 H1770 0.960 . S
C1784 H1771 0.960 . S
C1784 C1783 1.524 . S
C1785 C1782 1.403 . S
C1785 C1786 1.392 . S
C1785 C1789 1.495 . S
C1786 C1785 1.392 . S
C1786 C1787 1.385 . S
C1786 C1788 1.478 . S
C1787 H1781 0.930 . S
C1787 C1783 1.400 . S
C1787 C1786 1.385 . S
C1788 C1786 1.478 . S
C1788 C1790 1.381 . S
C1788 C1794 1.383 . S
C1789 C1785 1.495 . S
C1789 H1795 0.959 . S
C1789 H1796 0.961 . S
C1789 H1797 0.960 . S
C1790 C1788 1.381 . S
C1790 C1791 1.394 . S
C1790 H1798 0.930 . S
C1791 C1790 1.394 . S
C1791 C1792 1.383 . S
C1791 H1799 0.929 . S
C1792 C1791 1.383 . S
C1792 C1793 1.377 . S
C1793 H1777 0.930 . S
C1793 C1792 1.377 . S
C1793 C1794 1.379 . S
C1794 H1778 0.931 . S
C1794 C1788 1.383 . S
C1794 C1793 1.379 . S
H1795 C1789 0.959 . S
H1796 C1789 0.961 . S
H1797 C1789 0.960 . S
H1798 C1790 0.930 . S
H1799 C1791 0.929 . S
H1800 C1808 0.929 . S
H1801 C1810 0.930 . S
H1802 C1812 0.930 . S
H1803 C1815 0.929 . S
H1804 C1818 0.930 . S
H1805 C1820 0.960 . S
H1806 C1820 0.960 . S
H1807 C1820 0.960 . S
C1808 H1800 0.929 . S
C1808 C1809 1.377 . S
C1808 C1810 1.384 . S
C1809 C1808 1.377 . S
C1809 C1815 1.390 . S
C1810 H1801 0.930 . S
C1810 C1808 1.384 . S
C1810 C1811 1.372 . S
C1811 C1810 1.372 . S
C1811 C1812 1.400 . S
C1811 C1816 1.490 . S
C1812 H1802 0.930 . S
C1812 C1811 1.400 . S
C1812 C1815 1.386 . S
H1813 C1829 0.930 . S
H1814 C1830 0.931 . S
C1815 H1803 0.929 . S
C1815 C1809 1.390 . S
C1815 C1812 1.386 . S
C1816 C1811 1.490 . S
C1816 C1818 1.395 . S
C1816 C1819 1.403 . S
H1817 C1823 0.930 . S
C1818 H1804 0.930 . S
C1818 C1816 1.395 . S
C1818 C1821 1.403 . S
C1819 C1816 1.403 . S
C1819 C1820 1.524 . S
C1819 C1823 1.400 . S
C1820 H1805 0.960 . S
C1820 H1806 0.960 . S
C1820 H1807 0.960 . S
C1820 C1819 1.524 . S
C1821 C1818 1.403 . S
C1821 C1822 1.392 . S
C1821 C1825 1.495 . S
C1822 C1821 1.392 . S
C1822 C1823 1.385 . S
C1822 C1824 1.478 . S
C1823 H1817 0.930 . S
C1823 C1819 1.400 . S
C1823 C1822 1.385 . S
C1824 C1822 1.478 . S
C1824 C1826 1.381 . S
C1824 C1830 1.383 . S
C1825 C1821 1.495 . S
C1825 H1831 0.959 . S
C1825 H1832 0.961 . S
C1825 H1833 0.960 . S
C1826 C1824 1.381 . S
C1826 C1827 1.394 . S
C1826 H1834 0.930 . S
C1827 C1826 1.394 . S
C1827 C1828 1.383 . S
C1827 H1835 0.929 . S
C1828 C1827 1.383 . S
C1828 C1829 1.377 . S
C1829 H1813 0.930 . S
C1829 C1828 1.377 . S
C1829 C1830 1.379 . S
C1830 H1814 0.931 . S
C1830 C1824 1.383 . S
C1830 C1829 1.379 . S
H1831 C1825 0.959 . S
H1832 C1825 0.961 . S
H1833 C1825 0.960 . S
H1834 C1826 0.930 . S
H1835 C1827 0.929 . S
H1836 C1844 0.929 . S
H1837 C1846 0.930 . S
H1838 C1848 0.930 . S
H1839 C1851 0.929 . S
H1840 C1854 0.930 . S
H1841 C1856 0.960 . S
H1842 C1856 0.960 . S
H1843 C1856 0.960 . S
C1844 H1836 0.929 . S
C1844 C1845 1.377 . S
C1844 C1846 1.384 . S
C1845 C1844 1.377 . S
C1845 C1851 1.390 . S
C1846 H1837 0.930 . S
C1846 C1844 1.384 . S
C1846 C1847 1.372 . S
C1847 C1846 1.372 . S
C1847 C1848 1.400 . S
C1847 C1852 1.490 . S
C1848 H1838 0.930 . S
C1848 C1847 1.400 . S
C1848 C1851 1.386 . S
H1849 C1865 0.930 . S
H1850 C1866 0.931 . S
C1851 H1839 0.929 . S
C1851 C1845 1.390 . S
C1851 C1848 1.386 . S
C1852 C1847 1.490 . S
C1852 C1854 1.395 . S
C1852 C1855 1.403 . S
H1853 C1859 0.930 . S
C1854 H1840 0.930 . S
C1854 C1852 1.395 . S
C1854 C1857 1.403 . S
C1855 C1852 1.403 . S
C1855 C1856 1.524 . S
C1855 C1859 1.400 . S
C1856 H1841 0.960 . S
C1856 H1842 0.960 . S
C1856 H1843 0.960 . S
C1856 C1855 1.524 . S
C1857 C1854 1.403 . S
C1857 C1858 1.392 . S
C1857 C1861 1.495 . S
C1858 C1857 1.392 . S
C1858 C1859 1.385 . S
C1858 C1860 1.478 . S
C1859 H1853 0.930 . S
C1859 C1855 1.400 . S
C1859 C1858 1.385 . S
C1860 C1858 1.478 . S
C1860 C1862 1.381 . S
C1860 C1866 1.383 . S
C1861 C1857 1.495 . S
C1861 H1867 0.959 . S
C1861 H1868 0.961 . S
C1861 H1869 0.960 . S
C1862 C1860 1.381 . S
C1862 C1863 1.394 . S
C1862 H1870 0.930 . S
C1863 C1862 1.394 . S
C1863 C1864 1.383 . S
C1863 H1871 0.929 . S
C1864 C1863 1.383 . S
C1864 C1865 1.377 . S
C1865 H1849 0.930 . S
C1865 C1864 1.377 . S
C1865 C1866 1.379 . S
C1866 H1850 0.931 . S
C1866 C1860 1.383 . S
C1866 C1865 1.379 . S
H1867 C1861 0.959 . S
H1868 C1861 0.961 . S
H1869 C1861 0.960 . S
H1870 C1862 0.930 . S
H1871 C1863 0.929 . S
H1872 C1880 0.929 . S
H1873 C1882 0.930 . S
H1874 C1884 0.930 . S
H1875 C1887 0.929 . S
H1876 C1890 0.930 . S
H1877 C1892 0.960 . S
H1878 C1892 0.960 . S
H1879 C1892 0.960 . S
C1880 H1872 0.929 . S
C1880 C1881 1.377 . S
C1880 C1882 1.384 . S
C1881 C1880 1.377 . S
C1881 C1887 1.390 . S
C1882 H1873 0.930 . S
C1882 C1880 1.384 . S
C1882 C1883 1.372 . S
C1883 C1882 1.372 . S
C1883 C1884 1.400 . S
C1883 C1888 1.490 . S
C1884 H1874 0.930 . S
C1884 C1883 1.400 . S
C1884 C1887 1.386 . S
H1885 C1901 0.930 . S
H1886 C1902 0.931 . S
C1887 H1875 0.929 . S
C1887 C1881 1.390 . S
C1887 C1884 1.386 . S
C1888 C1883 1.490 . S
C1888 C1890 1.395 . S
C1888 C1891 1.403 . S
H1889 C1895 0.930 . S
C1890 H1876 0.930 . S
C1890 C1888 1.395 . S
C1890 C1893 1.403 . S
C1891 C1888 1.403 . S
C1891 C1892 1.524 . S
C1891 C1895 1.400 . S
C1892 H1877 0.960 . S
C1892 H1878 0.960 . S
C1892 H1879 0.960 . S
C1892 C1891 1.524 . S
C1893 C1890 1.403 . S
C1893 C1894 1.392 . S
C1893 C1897 1.495 . S
C1894 C1893 1.392 . S
C1894 C1895 1.385 . S
C1894 C1896 1.478 . S
C1895 H1889 0.930 . S
C1895 C1891 1.400 . S
C1895 C1894 1.385 . S
C1896 C1894 1.478 . S
C1896 C1898 1.381 . S
C1896 C1902 1.383 . S
C1897 C1893 1.495 . S
C1897 H1903 0.959 . S
C1897 H1904 0.961 . S
C1897 H1905 0.960 . S
C1898 C1896 1.381 . S
C1898 C1899 1.394 . S
C1898 H1906 0.930 . S
C1899 C1898 1.394 . S
C1899 C1900 1.383 . S
C1899 H1907 0.929 . S
C1900 C1899 1.383 . S
C1900 C1901 1.377 . S
C1901 H1885 0.930 . S
C1901 C1900 1.377 . S
C1901 C1902 1.379 . S
C1902 H1886 0.931 . S
C1902 C1896 1.383 . S
C1902 C1901 1.379 . S
H1903 C1897 0.959 . S
H1904 C1897 0.961 . S
H1905 C1897 0.960 . S
H1906 C1898 0.930 . S
H1907 C1899 0.929 . S
H1908 C1916 0.929 . S
H1909 C1918 0.930 . S
H1910 C1920 0.930 . S
H1911 C1923 0.929 . S
H1912 C1926 0.930 . S
H1913 C1928 0.960 . S
H1914 C1928 0.960 . S
H1915 C1928 0.960 . S
C1916 H1908 0.929 . S
C1916 C1917 1.377 . S
C1916 C1918 1.384 . S
C1917 C1916 1.377 . S
C1917 C1923 1.390 . S
C1918 H1909 0.930 . S
C1918 C1916 1.384 . S
C1918 C1919 1.372 . S
C1919 C1918 1.372 . S
C1919 C1920 1.400 . S
C1919 C1924 1.490 . S
C1920 H1910 0.930 . S
C1920 C1919 1.400 . S
C1920 C1923 1.386 . S
H1921 C1937 0.930 . S
H1922 C1938 0.931 . S
C1923 H1911 0.929 . S
C1923 C1917 1.390 . S
C1923 C1920 1.386 . S
C1924 C1919 1.490 . S
C1924 C1926 1.395 . S
C1924 C1927 1.403 . S
H1925 C1931 0.930 . S
C1926 H1912 0.930 . S
C1926 C1924 1.395 . S
C1926 C1929 1.403 . S
C1927 C1924 1.403 . S
C1927 C1928 1.524 . S
C1927 C1931 1.400 . S
C1928 H1913 0.960 . S
C1928 H1914 0.960 . S
C1928 H1915 0.960 . S
C1928 C1927 1.524 . S
C1929 C1926 1.403 . S
C1929 C1930 1.392 . S
C1929 C1933 1.495 . S
C1930 C1929 1.392 . S
C1930 C1931 1.385 . S
C1930 C1932 1.478 . S
C1931 H1925 0.930 . S
C1931 C1927 1.400 . S
C1931 C1930 1.385 . S
C1932 C1930 1.478 . S
C1932 C1934 1.381 . S
C1932 C1938 1.383 . S
C1933 C1929 1.495 . S
C1933 H1939 0.959 . S
C1933 H1940 0.961 . S
C1933 H1941 0.960 . S
C1934 C1932 1.381 . S
C1934 C1935 1.394 . S
C1934 H1942 0.930 . S
C1935 C1934 1.394 . S
C1935 C1936 1.383 . S
C1935 H1943 0.929 . S
C1936 C1935 1.383 . S
C1936 C1937 1.377 . S
C1937 H1921 0.930 . S
C1937 C1936 1.377 . S
C1937 C1938 1.379 . S
C1938 H1922 0.931 . S
C1938 C1932 1.383 . S
C1938 C1937 1.379 . S
H1939 C1933 0.959 . S
H1940 C1933 0.961 . S
H1941 C1933 0.960 . S
H1942 C1934 0.930 . S
H1943 C1935 0.929 . S
H1944 C1952 0.929 . S
H1945 C1954 0.930 . S
H1946 C1956 0.930 . S
H1947 C1959 0.929 . S
H1948 C1962 0.930 . S
H1949 C1964 0.960 . S
H1950 C1964 0.960 . S
H1951 C1964 0.960 . S
C1952 H1944 0.929 . S
C1952 C1953 1.377 . S
C1952 C1954 1.384 . S
C1953 C1952 1.377 . S
C1953 C1959 1.390 . S
C1954 H1945 0.930 . S
C1954 C1952 1.384 . S
C1954 C1955 1.372 . S
C1955 C1954 1.372 . S
C1955 C1956 1.400 . S
C1955 C1960 1.490 . S
C1956 H1946 0.930 . S
C1956 C1955 1.400 . S
C1956 C1959 1.386 . S
H1957 C1973 0.930 . S
H1958 C1974 0.931 . S
C1959 H1947 0.929 . S
C1959 C1953 1.390 . S
C1959 C1956 1.386 . S
C1960 C1955 1.490 . S
C1960 C1962 1.395 . S
C1960 C1963 1.403 . S
H1961 C1967 0.930 . S
C1962 H1948 0.930 . S
C1962 C1960 1.395 . S
C1962 C1965 1.403 . S
C1963 C1960 1.403 . S
C1963 C1964 1.524 . S
C1963 C1967 1.400 . S
C1964 H1949 0.960 . S
C1964 H1950 0.960 . S
C1964 H1951 0.960 . S
C1964 C1963 1.524 . S
C1965 C1962 1.403 . S
C1965 C1966 1.392 . S
C1965 C1969 1.495 . S
C1966 C1965 1.392 . S
C1966 C1967 1.385 . S
C1966 C1968 1.478 . S
C1967 H1961 0.930 . S
C1967 C1963 1.400 . S
C1967 C1966 1.385 . S
C1968 C1966 1.478 . S
C1968 C1970 1.381 . S
C1968 C1974 1.383 . S
C1969 C1965 1.495 . S
C1969 H1975 0.959 . S
C1969 H1976 0.961 . S
C1969 H1977 0.960 . S
C1970 C1968 1.381 . S
C1970 C1971 1.394 . S
C1970 H1978 0.930 . S
C1971 C1970 1.394 . S
C1971 C1972 1.383 . S
C1971 H1979 0.929 . S
C1972 C1971 1.383 . S
C1972 C1973 1.377 . S
C1973 H1957 0.930 . S
C1973 C1972 1.377 . S
C1973 C1974 1.379 . S
C1974 H1958 0.931 . S
C1974 C1968 1.383 . S
C1974 C1973 1.379 . S
H1975 C1969 0.959 . S
H1976 C1969 0.961 . S
H1977 C1969 0.960 . S
H1978 C1970 0.930 . S
H1979 C1971 0.929 . S
H1980 C1988 0.929 . S
H1981 C1990 0.930 . S
H1982 C1992 0.930 . S
H1983 C1995 0.929 . S
H1984 C1998 0.930 . S
H1985 C2000 0.960 . S
H1986 C2000 0.960 . S
H1987 C2000 0.960 . S
C1988 H1980 0.929 . S
C1988 C1989 1.377 . S
C1988 C1990 1.384 . S
C1989 C1988 1.377 . S
C1989 C1995 1.390 . S
C1990 H1981 0.930 . S
C1990 C1988 1.384 . S
C1990 C1991 1.372 . S
C1991 C1990 1.372 . S
C1991 C1992 1.400 . S
C1991 C1996 1.490 . S
C1992 H1982 0.930 . S
C1992 C1991 1.400 . S
C1992 C1995 1.386 . S
H1993 C2009 0.930 . S
H1994 C2010 0.931 . S
C1995 H1983 0.929 . S
C1995 C1989 1.390 . S
C1995 C1992 1.386 . S
C1996 C1991 1.490 . S
C1996 C1998 1.395 . S
C1996 C1999 1.403 . S
H1997 C2003 0.930 . S
C1998 H1984 0.930 . S
C1998 C1996 1.395 . S
C1998 C2001 1.403 . S
C1999 C1996 1.403 . S
C1999 C2000 1.524 . S
C1999 C2003 1.400 . S
C2000 H1985 0.960 . S
C2000 H1986 0.960 . S
C2000 H1987 0.960 . S
C2000 C1999 1.524 . S
C2001 C1998 1.403 . S
C2001 C2002 1.392 . S
C2001 C2005 1.495 . S
C2002 C2001 1.392 . S
C2002 C2003 1.385 . S
C2002 C2004 1.478 1_655 S
C2003 H1997 0.930 . S
C2003 C1999 1.400 . S
C2003 C2002 1.385 . S
C2004 C2002 1.478 1_455 S
C2004 C2006 1.381 . S
C2004 C2010 1.383 . S
C2005 C2001 1.495 . S
C2005 H2011 0.959 . S
C2005 H2012 0.961 1_655 S
C2005 H2013 0.960 . S
C2006 C2004 1.381 . S
C2006 C2007 1.394 . S
C2006 H2014 0.930 . S
C2007 C2006 1.394 . S
C2007 C2008 1.383 . S
C2007 H2015 0.929 . S
C2008 C2007 1.383 . S
C2008 C2009 1.377 . S
C2009 H1993 0.930 . S
C2009 C2008 1.377 . S
C2009 C2010 1.379 . S
C2010 H1994 0.931 . S
C2010 C2004 1.383 . S
C2010 C2009 1.379 . S
H2011 C2005 0.959 . S
H2012 C2005 0.961 1_455 S
H2013 C2005 0.960 . S
H2014 C2006 0.930 . S
H2015 C2007 0.929 . S
H2016 C2024 0.929 . S
H2017 C2026 0.930 . S
H2018 C2028 0.930 . S
H2019 C2031 0.929 1_565 S
H2020 C2034 0.930 . S
H2021 C2036 0.960 . S
H2022 C2036 0.960 . S
H2023 C2036 0.960 . S
C2024 H2016 0.929 . S
C2024 C2025 1.377 . S
C2024 C2026 1.384 . S
C2025 C2024 1.377 . S
C2025 C2031 1.390 . S
C2026 H2017 0.930 . S
C2026 C2024 1.384 . S
C2026 C2027 1.372 . S
C2027 C2026 1.372 . S
C2027 C2028 1.400 . S
C2027 C2032 1.490 . S
C2028 H2018 0.930 . S
C2028 C2027 1.400 . S
C2028 C2031 1.386 . S
H2029 C2045 0.930 . S
H2030 C2046 0.931 . S
C2031 H2019 0.929 1_545 S
C2031 C2025 1.390 . S
C2031 C2028 1.386 . S
C2032 C2027 1.490 . S
C2032 C2034 1.395 . S
C2032 C2035 1.403 . S
H2033 C2039 0.930 . S
C2034 H2020 0.930 . S
C2034 C2032 1.395 . S
C2034 C2037 1.403 . S
C2035 C2032 1.403 . S
C2035 C2036 1.524 . S
C2035 C2039 1.400 . S
C2036 H2021 0.960 . S
C2036 H2022 0.960 . S
C2036 H2023 0.960 . S
C2036 C2035 1.524 . S
C2037 C2034 1.403 . S
C2037 C2038 1.392 . S
C2037 C2041 1.495 . S
C2038 C2037 1.392 . S
C2038 C2039 1.385 . S
C2038 C2040 1.478 . S
C2039 H2033 0.930 . S
C2039 C2035 1.400 . S
C2039 C2038 1.385 . S
C2040 C2038 1.478 . S
C2040 C2042 1.381 . S
C2040 C2046 1.383 . S
C2041 C2037 1.495 . S
C2041 H2047 0.959 . S
C2041 H2048 0.961 . S
C2041 H2049 0.960 . S
C2042 C2040 1.381 . S
C2042 C2043 1.394 . S
C2042 H2050 0.930 . S
C2043 C2042 1.394 . S
C2043 C2044 1.383 . S
C2043 H2051 0.929 . S
C2044 C2043 1.383 . S
C2044 C2045 1.377 . S
C2045 H2029 0.930 . S
C2045 C2044 1.377 . S
C2045 C2046 1.379 . S
C2046 H2030 0.931 . S
C2046 C2040 1.383 . S
C2046 C2045 1.379 . S
H2047 C2041 0.959 . S
H2048 C2041 0.961 . S
H2049 C2041 0.960 . S
H2050 C2042 0.930 . S
H2051 C2043 0.929 . S
H2052 C2060 0.929 . S
H2053 C2062 0.930 . S
H2054 C2064 0.930 . S
H2055 C2067 0.929 . S
H2056 C2070 0.930 . S
H2057 C2072 0.960 . S
H2058 C2072 0.960 . S
H2059 C2072 0.960 . S
C2060 H2052 0.929 . S
C2060 C2061 1.377 . S
C2060 C2062 1.384 1_565 S
C2061 C2060 1.377 . S
C2061 C2067 1.390 . S
C2062 H2053 0.930 . S
C2062 C2060 1.384 1_545 S
C2062 C2063 1.372 . S
C2063 C2062 1.372 . S
C2063 C2064 1.400 . S
C2063 C2068 1.490 . S
C2064 H2054 0.930 . S
C2064 C2063 1.400 . S
C2064 C2067 1.386 1_545 S
H2065 C2081 0.930 . S
H2066 C2082 0.931 . S
C2067 H2055 0.929 . S
C2067 C2061 1.390 . S
C2067 C2064 1.386 1_565 S
C2068 C2063 1.490 . S
C2068 C2070 1.395 . S
C2068 C2071 1.403 . S
H2069 C2075 0.930 . S
C2070 H2056 0.930 . S
C2070 C2068 1.395 . S
C2070 C2073 1.403 . S
C2071 C2068 1.403 . S
C2071 C2072 1.524 . S
C2071 C2075 1.400 . S
C2072 H2057 0.960 . S
C2072 H2058 0.960 . S
C2072 H2059 0.960 . S
C2072 C2071 1.524 . S
C2073 C2070 1.403 . S
C2073 C2074 1.392 . S
C2073 C2077 1.495 . S
C2074 C2073 1.392 . S
C2074 C2075 1.385 . S
C2074 C2076 1.478 . S
C2075 H2069 0.930 . S
C2075 C2071 1.400 . S
C2075 C2074 1.385 . S
C2076 C2074 1.478 . S
C2076 C2078 1.381 1_655 S
C2076 C2082 1.383 . S
C2077 C2073 1.495 . S
C2077 H2083 0.959 . S
C2077 H2084 0.961 . S
C2077 H2085 0.960 . S
C2078 C2076 1.381 1_455 S
C2078 C2079 1.394 . S
C2078 H2086 0.930 . S
C2079 C2078 1.394 . S
C2079 C2080 1.383 . S
C2079 H2087 0.929 . S
C2080 C2079 1.383 . S
C2080 C2081 1.377 . S
C2081 H2065 0.930 . S
C2081 C2080 1.377 . S
C2081 C2082 1.379 1_455 S
C2082 H2066 0.931 . S
C2082 C2076 1.383 . S
C2082 C2081 1.379 1_655 S
H2083 C2077 0.959 . S
H2084 C2077 0.961 . S
H2085 C2077 0.960 . S
H2086 C2078 0.930 . S
H2087 C2079 0.929 . S
H2088 C2096 0.929 . S
H2089 C2098 0.930 . S
H2090 C2100 0.930 . S
H2091 C2103 0.929 . S
H2092 C2106 0.930 . S
H2093 C2108 0.960 . S
H2094 C2108 0.960 . S
H2095 C2108 0.960 . S
C2096 H2088 0.929 . S
C2096 C2097 1.377 . S
C2096 C2098 1.384 . S
C2097 C2096 1.377 . S
C2097 C2103 1.390 . S
C2098 H2089 0.930 . S
C2098 C2096 1.384 . S
C2098 C2099 1.372 . S
C2099 C2098 1.372 . S
C2099 C2100 1.400 . S
C2099 C2104 1.490 . S
C2100 H2090 0.930 . S
C2100 C2099 1.400 . S
C2100 C2103 1.386 . S
H2101 C2117 0.930 . S
H2102 C2118 0.931 . S
C2103 H2091 0.929 . S
C2103 C2097 1.390 . S
C2103 C2100 1.386 . S
C2104 C2099 1.490 . S
C2104 C2106 1.395 . S
C2104 C2107 1.403 . S
H2105 C2111 0.930 . S
C2106 H2092 0.930 . S
C2106 C2104 1.395 . S
C2106 C2109 1.403 . S
C2107 C2104 1.403 . S
C2107 C2108 1.524 . S
C2107 C2111 1.400 . S
C2108 H2093 0.960 . S
C2108 H2094 0.960 . S
C2108 H2095 0.960 . S
C2108 C2107 1.524 . S
C2109 C2106 1.403 . S
C2109 C2110 1.392 . S
C2109 C2113 1.495 1_565 S
C2110 C2109 1.392 . S
C2110 C2111 1.385 . S
C2110 C2112 1.478 1_565 S
C2111 H2105 0.930 . S
C2111 C2107 1.400 . S
C2111 C2110 1.385 . S
C2112 C2110 1.478 1_545 S
C2112 C2114 1.381 . S
C2112 C2118 1.383 . S
C2113 C2109 1.495 1_545 S
C2113 H2119 0.959 . S
C2113 H2120 0.961 . S
C2113 H2121 0.960 . S
C2114 C2112 1.381 . S
C2114 C2115 1.394 . S
C2114 H2122 0.930 . S
C2115 C2114 1.394 . S
C2115 C2116 1.383 . S
C2115 H2123 0.929 . S
C2116 C2115 1.383 . S
C2116 C2117 1.377 . S
C2117 H2101 0.930 . S
C2117 C2116 1.377 . S
C2117 C2118 1.379 . S
C2118 H2102 0.931 . S
C2118 C2112 1.383 . S
C2118 C2117 1.379 . S
H2119 C2113 0.959 . S
H2120 C2113 0.961 . S
H2121 C2113 0.960 . S
H2122 C2114 0.930 . S
H2123 C2115 0.929 . S
H2124 C2132 0.929 . S
H2125 C2134 0.930 . S
H2126 C2136 0.930 . S
H2127 C2139 0.929 . S
H2128 C2142 0.930 . S
H2129 C2144 0.960 . S
H2130 C2144 0.960 . S
H2131 C2144 0.992 . S
C2132 H2124 0.929 . S
C2132 C2133 1.377 . S
C2132 C2134 1.384 1_545 S
C2133 C2132 1.377 . S
C2133 C2139 1.390 . S
C2134 H2125 0.930 . S
C2134 C2132 1.384 1_565 S
C2134 C2135 1.372 . S
C2135 C2134 1.372 . S
C2135 C2136 1.400 1_565 S
C2135 C2140 1.490 . S
C2136 H2126 0.930 . S
C2136 C2135 1.400 1_545 S
C2136 C2139 1.386 . S
H2137 C2153 0.930 . S
H2138 C2154 0.931 . S
C2139 H2127 0.929 . S
C2139 C2133 1.390 . S
C2139 C2136 1.386 . S
C2140 C2135 1.490 . S
C2140 C2142 1.395 . S
C2140 C2143 1.403 . S
H2141 C2147 0.930 . S
C2142 H2128 0.930 . S
C2142 C2140 1.395 . S
C2142 C2145 1.403 . S
C2143 C2140 1.403 . S
C2143 C2144 1.524 . S
C2143 C2147 1.400 . S
C2144 H2129 0.960 . S
C2144 H2130 0.960 . S
C2144 H2131 0.992 . S
C2144 C2143 1.524 . S
C2145 C2142 1.403 . S
C2145 C2146 1.392 . S
C2145 C2149 1.495 . S
C2146 C2145 1.392 . S
C2146 C2147 1.385 . S
C2146 C2148 1.478 . S
C2147 H2141 0.930 . S
C2147 C2143 1.400 . S
C2147 C2146 1.385 . S
C2148 C2146 1.478 . S
C2148 C2150 1.381 . S
C2148 C2154 1.383 . S
C2149 C2145 1.495 . S
C2149 H2155 0.959 . S
C2149 H2156 0.961 . S
C2149 H2157 0.960 . S
C2150 C2148 1.381 . S
C2150 C2151 1.394 . S
C2150 H2158 0.930 . S
C2151 C2150 1.394 . S
C2151 C2152 1.383 1_455 S
C2151 H2159 0.930 1_455 S
C2152 C2151 1.383 1_655 S
C2152 C2153 1.377 . S
C2153 H2137 0.930 . S
C2153 C2152 1.377 . S
C2153 C2154 1.379 1_655 S
C2154 H2138 0.931 . S
C2154 C2148 1.383 . S
C2154 C2153 1.379 1_455 S
H2155 C2149 0.959 . S
H2156 C2149 0.961 . S
H2157 C2149 0.960 . S
H2158 C2150 0.930 . S
H2159 C2151 0.930 1_655 S
H2160 C2168 0.929 . S
H2161 C2170 0.930 . S
H2162 C2172 0.930 . S
H2163 C2175 0.929 . S
H2164 C2178 0.930 . S
H2165 C2180 0.960 . S
H2166 C2180 0.960 . S
H2167 C2180 0.960 . S
C2168 H2160 0.929 . S
C2168 C2169 1.377 . S
C2168 C2170 1.384 . S
C2169 C2168 1.377 . S
C2169 C2175 1.390 . S
C2170 H2161 0.930 . S
C2170 C2168 1.384 . S
C2170 C2171 1.372 . S
C2171 C2170 1.372 . S
C2171 C2172 1.400 . S
C2171 C2176 1.490 . S
C2172 H2162 0.930 . S
C2172 C2171 1.400 . S
C2172 C2175 1.386 . S
H2173 C2189 0.930 1_655 S
H2174 C2190 0.931 . S
C2175 H2163 0.929 . S
C2175 C2169 1.390 . S
C2175 C2172 1.386 . S
C2176 C2171 1.490 . S
C2176 C2178 1.395 . S
C2176 C2179 1.403 . S
H2177 C2183 0.930 . S
C2178 H2164 0.930 . S
C2178 C2176 1.395 . S
C2178 C2181 1.403 . S
C2179 C2176 1.403 . S
C2179 C2180 1.524 . S
C2179 C2183 1.400 . S
C2180 H2165 0.960 . S
C2180 H2166 0.960 . S
C2180 H2167 0.960 . S
C2180 C2179 1.524 . S
C2181 C2178 1.403 . S
C2181 C2182 1.392 . S
C2181 C2185 1.495 . S
C2182 C2181 1.392 . S
C2182 C2183 1.385 . S
C2182 C2184 1.478 . S
C2183 H2177 0.930 . S
C2183 C2179 1.400 . S
C2183 C2182 1.385 . S
C2184 C2182 1.478 . S
C2184 C2186 1.381 . S
C2184 C2190 1.383 . S
C2185 C2181 1.495 . S
C2185 H2191 0.959 . S
C2185 H2192 0.961 . S
C2185 H2193 0.960 . S
C2186 C2184 1.381 . S
C2186 C2187 1.394 . S
C2186 H2194 0.930 . S
C2187 C2186 1.394 . S
C2187 C2188 1.383 . S
C2187 H2195 0.929 . S
C2188 C2187 1.383 . S
C2188 C2189 1.377 . S
C2189 H2173 0.930 1_455 S
C2189 C2188 1.377 . S
C2189 C2190 1.379 . S
C2190 H2174 0.931 . S
C2190 C2184 1.383 . S
C2190 C2189 1.379 . S
H2191 C2185 0.959 . S
H2192 C2185 0.961 . S
H2193 C2185 0.960 . S
H2194 C2186 0.930 . S
H2195 C2187 0.929 . S
H2196 C2204 0.929 . S
H2197 C2206 0.930 . S
H2198 C2208 0.930 . S
H2199 C2211 0.929 . S
H2200 C2214 0.930 . S
H2201 C2216 0.960 . S
H2202 C2216 0.960 . S
H2203 C2216 0.960 . S
C2204 H2196 0.929 . S
C2204 C2205 1.377 . S
C2204 C2206 1.384 . S
C2205 C2204 1.377 . S
C2205 C2211 1.390 . S
C2206 H2197 0.930 . S
C2206 C2204 1.384 . S
C2206 C2207 1.372 . S
C2207 C2206 1.372 . S
C2207 C2208 1.400 . S
C2207 C2212 1.490 . S
C2208 H2198 0.930 . S
C2208 C2207 1.400 . S
C2208 C2211 1.386 . S
H2209 C2225 0.930 . S
H2210 C2226 0.931 . S
C2211 H2199 0.929 . S
C2211 C2205 1.390 . S
C2211 C2208 1.386 . S
C2212 C2207 1.490 . S
C2212 C2214 1.395 . S
C2212 C2215 1.403 . S
H2213 C2219 0.930 . S
C2214 H2200 0.930 . S
C2214 C2212 1.395 . S
C2214 C2217 1.403 . S
C2215 C2212 1.403 . S
C2215 C2216 1.524 . S
C2215 C2219 1.400 . S
C2216 H2201 0.960 . S
C2216 H2202 0.960 . S
C2216 H2203 0.960 . S
C2216 C2215 1.524 . S
C2217 C2214 1.403 . S
C2217 C2218 1.392 . S
C2217 C2221 1.495 . S
C2218 C2217 1.392 . S
C2218 C2219 1.385 . S
C2218 C2220 1.478 . S
C2219 H2213 0.930 . S
C2219 C2215 1.400 . S
C2219 C2218 1.385 . S
C2220 C2218 1.478 . S
C2220 C2222 1.381 . S
C2220 C2226 1.383 . S
C2221 C2217 1.495 . S
C2221 H2227 0.959 . S
C2221 H2228 0.961 . S
C2221 H2229 0.960 . S
C2222 C2220 1.381 . S
C2222 C2223 1.394 . S
C2222 H2230 0.930 . S
C2223 C2222 1.394 . S
C2223 C2224 1.383 . S
C2223 H2231 0.929 . S
C2224 C2223 1.383 . S
C2224 C2225 1.377 . S
C2225 H2209 0.930 . S
C2225 C2224 1.377 . S
C2225 C2226 1.379 . S
C2226 H2210 0.931 . S
C2226 C2220 1.383 . S
C2226 C2225 1.379 . S
H2227 C2221 0.959 . S
H2228 C2221 0.961 . S
H2229 C2221 0.960 . S
H2230 C2222 0.930 . S
H2231 C2223 0.929 . S
H2232 C2240 0.929 . S
H2233 C2242 0.930 . S
H2234 C2244 0.930 . S
H2235 C2247 0.929 . S
H2236 C2250 0.930 . S
H2237 C2252 0.960 . S
H2238 C2252 0.960 . S
H2239 C2252 0.960 . S
C2240 H2232 0.929 . S
C2240 C2241 1.377 . S
C2240 C2242 1.384 . S
C2241 C2240 1.377 . S
C2241 C2247 1.390 . S
C2242 H2233 0.930 . S
C2242 C2240 1.384 . S
C2242 C2243 1.372 . S
C2243 C2242 1.372 . S
C2243 C2244 1.400 . S
C2243 C2248 1.490 . S
C2244 H2234 0.930 . S
C2244 C2243 1.400 . S
C2244 C2247 1.386 . S
H2245 C2261 0.930 . S
H2246 C2262 0.931 . S
C2247 H2235 0.929 . S
C2247 C2241 1.390 . S
C2247 C2244 1.386 . S
C2248 C2243 1.490 . S
C2248 C2250 1.395 . S
C2248 C2251 1.403 . S
H2249 C2255 0.930 . S
C2250 H2236 0.930 . S
C2250 C2248 1.395 . S
C2250 C2253 1.403 . S
C2251 C2248 1.403 . S
C2251 C2252 1.524 . S
C2251 C2255 1.400 . S
C2252 H2237 0.960 . S
C2252 H2238 0.960 . S
C2252 H2239 0.960 . S
C2252 C2251 1.524 . S
C2253 C2250 1.403 . S
C2253 C2254 1.392 . S
C2253 C2257 1.495 . S
C2254 C2253 1.392 . S
C2254 C2255 1.385 . S
C2254 C2256 1.478 . S
C2255 H2249 0.930 . S
C2255 C2251 1.400 . S
C2255 C2254 1.385 . S
C2256 C2254 1.478 . S
C2256 C2258 1.381 . S
C2256 C2262 1.383 . S
C2257 C2253 1.495 . S
C2257 H2263 0.959 . S
C2257 H2264 0.961 . S
C2257 H2265 0.960 . S
C2258 C2256 1.381 . S
C2258 C2259 1.394 . S
C2258 H2266 0.930 . S
C2259 C2258 1.394 . S
C2259 C2260 1.383 . S
C2259 H2267 0.929 . S
C2260 C2259 1.383 . S
C2260 C2261 1.377 . S
C2261 H2245 0.930 . S
C2261 C2260 1.377 . S
C2261 C2262 1.379 . S
C2262 H2246 0.931 . S
C2262 C2256 1.383 . S
C2262 C2261 1.379 . S
H2263 C2257 0.959 . S
H2264 C2257 0.961 . S
H2265 C2257 0.960 . S
H2266 C2258 0.930 . S
H2267 C2259 0.929 . S
H2268 C2276 0.929 . S
H2269 C2278 0.930 . S
H2270 C2280 0.930 . S
H2271 C2283 0.929 . S
H2272 C2286 0.930 . S
H2273 C2288 0.960 . S
H2274 C2288 0.960 . S
H2275 C2288 0.960 . S
C2276 H2268 0.929 . S
C2276 C2277 1.377 . S
C2276 C2278 1.384 . S
C2277 C2276 1.377 . S
C2277 C2283 1.390 . S
C2278 H2269 0.930 . S
C2278 C2276 1.384 . S
C2278 C2279 1.372 . S
C2279 C2278 1.372 . S
C2279 C2280 1.400 . S
C2279 C2284 1.490 . S
C2280 H2270 0.930 . S
C2280 C2279 1.400 . S
C2280 C2283 1.386 . S
H2281 C2297 0.930 . S
H2282 C2298 0.931 . S
C2283 H2271 0.929 . S
C2283 C2277 1.390 . S
C2283 C2280 1.386 . S
C2284 C2279 1.490 . S
C2284 C2286 1.395 . S
C2284 C2287 1.403 . S
H2285 C2291 0.930 . S
C2286 H2272 0.930 . S
C2286 C2284 1.395 . S
C2286 C2289 1.403 . S
C2287 C2284 1.403 . S
C2287 C2288 1.524 . S
C2287 C2291 1.400 . S
C2288 H2273 0.960 . S
C2288 H2274 0.960 . S
C2288 H2275 0.960 . S
C2288 C2287 1.524 . S
C2289 C2286 1.403 . S
C2289 C2290 1.392 . S
C2289 C2293 1.495 . S
C2290 C2289 1.392 . S
C2290 C2291 1.385 . S
C2290 C2292 1.478 . S
C2291 H2285 0.930 . S
C2291 C2287 1.400 . S
C2291 C2290 1.385 . S
C2292 C2290 1.478 . S
C2292 C2294 1.381 . S
C2292 C2298 1.383 . S
C2293 C2289 1.495 . S
C2293 H2299 0.959 . S
C2293 H2300 0.961 . S
C2293 H2301 0.960 . S
C2294 C2292 1.381 . S
C2294 C2295 1.394 . S
C2294 H2302 0.930 . S
C2295 C2294 1.394 . S
C2295 C2296 1.383 . S
C2295 H2303 0.929 . S
C2296 C2295 1.383 . S
C2296 C2297 1.377 . S
C2297 H2281 0.930 . S
C2297 C2296 1.377 . S
C2297 C2298 1.379 . S
C2298 H2282 0.931 . S
C2298 C2292 1.383 . S
C2298 C2297 1.379 . S
H2299 C2293 0.959 . S
H2300 C2293 0.961 . S
H2301 C2293 0.960 . S
H2302 C2294 0.930 . S
H2303 C2295 0.929 . S
C369 C8 1.155 . S
C388 C45 1.339 . S
C405 C5 1.350 . S
C424 C28 1.163 . S
C441 C25 1.352 . S
C460 C48 1.218 . S
C477 C68 1.171 . S
C496 C85 1.347 . S
C513 C105 1.353 . S
C532 C88 1.171 . S
C549 C108 1.174 . S
C568 C65 1.351 . S
C585 C165 1.386 . S
C604 C128 1.124 . S
C621 C125 1.350 . S
C640 C148 1.176 . S
C657 C168 1.165 . S
C676 C145 1.342 . S
C693 C205 1.349 . S
C712 C188 1.139 . S
C729 C208 1.162 . S
C748 C225 1.355 . S
C765 C185 1.352 . S
C784 C228 1.206 . S
C801 C248 1.170 . S
C820 C285 1.346 . S
C837 C245 1.351 . S
C856 C268 1.112 . S
C873 C265 1.353 . S
C892 C288 1.218 . S
C909 C325 1.366 . S
C928 C308 1.116 . S
C945 C345 1.350 . S
C964 C328 1.104 . S
C981 C305 1.351 . S
C1000 C348 1.197 . S
C1017 C2 1.794 . S
C1036 C102 1.789 . S
C1053 C62 1.796 . S
C1072 C22 1.797 . S
C1089 C82 1.791 . S
C1108 C42 1.773 . S
C1125 C122 1.790 . S
C1144 C222 1.768 . S
C1161 C142 1.790 . S
C1180 C182 1.769 . S
C1197 C202 1.797 . S
C1216 C162 1.805 . S
C1233 C242 1.790 . S
C1252 C342 1.767 . S
C1269 C302 1.797 . S
C1288 C262 1.804 . S
C1305 C322 1.790 . S
C1324 C282 1.768 . S
C1341 C213 1.830 . S
C1360 C13 1.822 . S
C1377 C33 1.830 . S
C1396 C233 1.844 . S
C1413 C193 1.830 . S
C1432 C53 1.843 . S
C1449 C73 1.834 . S
C1468 C293 1.806 . S
C1485 C93 1.835 . S
C1504 C253 1.806 . S
C1521 C273 1.832 . S
C1540 C113 1.815 . S
C1557 C333 1.835 . S
C1576 C133 1.813 . S
C1593 C153 1.829 . S
C1612 C353 1.848 . S
C1629 C173 1.836 . S
C1648 C313 1.811 . S
C1665 C57 2.522 . S
C1684 C14 2.646 . S
C1701 C17 2.513 . S
C1720 C34 2.638 . S
C1737 C54 2.648 . S
C1756 C37 2.517 . S
C1773 C97 2.522 . S
C1792 C74 2.643 . S
C1809 C117 2.516 . S
C1828 C94 2.632 . S
C1845 C114 2.644 . S
C1864 C77 2.525 . S
C1881 C177 2.521 . S
C1900 C134 2.648 . S
C1917 C154 2.644 . S
C1936 C137 2.500 . S
C1953 C157 2.514 . S
C1972 C174 2.633 . S
C1989 C194 2.645 . S
C2008 C217 2.493 . S
C2025 C214 2.647 1_545 S
C2044 C237 2.496 . S
C2061 C197 2.520 . S
C2080 C234 2.632 . S
C2097 C254 2.643 . S
C2116 C297 2.516 . S
C2133 C274 2.646 . S
C2152 C257 2.494 . S
C2169 C277 2.514 . S
C2188 C294 2.647 1_455 S
C2205 C314 2.647 . S
C2224 C337 2.531 . S
C2241 C334 2.644 . S
C2260 C357 2.529 . S
C2277 C317 2.521 . S
C2296 C354 2.635 . S
