# Generated by pormake.
# Topology wld, (5)-cn, num edge types: 1
# Building blocks:
#     Node 0, Type 0, BuildingBlock: BEQFEK_clean_sbu_0, # of connection points: 5
#     Node 1, Type 0, BuildingBlock: BEQFEK_clean_sbu_0, # of connection points: 5
#     Node 2, Type 0, BuildingBlock: BEQFEK_clean_sbu_0, # of connection points: 5
#     Node 3, Type 0, BuildingBlock: BEQFEK_clean_sbu_0, # of connection points: 5
#     Node 4, Type 0, BuildingBlock: BEQFEK_clean_sbu_0, # of connection points: 5
#     Node 5, Type 0, BuildingBlock: BEQFEK_clean_sbu_0, # of connection points: 5
#     Node 6, Type 0, BuildingBlock: BEQFEK_clean_sbu_0, # of connection points: 5
#     Node 7, Type 0, BuildingBlock: BEQFEK_clean_sbu_0, # of connection points: 5
#     Node 8, Type 0, BuildingBlock: BEQFEK_clean_sbu_0, # of connection points: 5
#     Node 9, Type 0, BuildingBlock: BEQFEK_clean_sbu_0, # of connection points: 5
#     Node 10, Type 0, BuildingBlock: BEQFEK_clean_sbu_0, # of connection points: 5
#     Node 11, Type 0, BuildingBlock: BEQFEK_clean_sbu_0, # of connection points: 5
#     Edge 12, Type (0, 0), BuildingBlock: MIFKUJ_clean_linker_0, # of connection points: 2
#     Edge 13, Type (0, 0), BuildingBlock: MIFKUJ_clean_linker_0, # of connection points: 2
#     Edge 14, Type (0, 0), BuildingBlock: MIFKUJ_clean_linker_0, # of connection points: 2
#     Edge 15, Type (0, 0), BuildingBlock: MIFKUJ_clean_linker_0, # of connection points: 2
#     Edge 16, Type (0, 0), BuildingBlock: MIFKUJ_clean_linker_0, # of connection points: 2
#     Edge 17, Type (0, 0), BuildingBlock: MIFKUJ_clean_linker_0, # of connection points: 2
#     Edge 18, Type (0, 0), BuildingBlock: MIFKUJ_clean_linker_0, # of connection points: 2
#     Edge 19, Type (0, 0), BuildingBlock: MIFKUJ_clean_linker_0, # of connection points: 2
#     Edge 20, Type (0, 0), BuildingBlock: MIFKUJ_clean_linker_0, # of connection points: 2
#     Edge 21, Type (0, 0), BuildingBlock: MIFKUJ_clean_linker_0, # of connection points: 2
#     Edge 22, Type (0, 0), BuildingBlock: MIFKUJ_clean_linker_0, # of connection points: 2
#     Edge 23, Type (0, 0), BuildingBlock: MIFKUJ_clean_linker_0, # of connection points: 2
#     Edge 24, Type (0, 0), BuildingBlock: MIFKUJ_clean_linker_0, # of connection points: 2
#     Edge 25, Type (0, 0), BuildingBlock: MIFKUJ_clean_linker_0, # of connection points: 2
#     Edge 26, Type (0, 0), BuildingBlock: MIFKUJ_clean_linker_0, # of connection points: 2
#     Edge 27, Type (0, 0), BuildingBlock: MIFKUJ_clean_linker_0, # of connection points: 2
#     Edge 28, Type (0, 0), BuildingBlock: MIFKUJ_clean_linker_0, # of connection points: 2
#     Edge 29, Type (0, 0), BuildingBlock: MIFKUJ_clean_linker_0, # of connection points: 2
#     Edge 30, Type (0, 0), BuildingBlock: MIFKUJ_clean_linker_0, # of connection points: 2
#     Edge 31, Type (0, 0), BuildingBlock: MIFKUJ_clean_linker_0, # of connection points: 2
#     Edge 32, Type (0, 0), BuildingBlock: MIFKUJ_clean_linker_0, # of connection points: 2
#     Edge 33, Type (0, 0), BuildingBlock: MIFKUJ_clean_linker_0, # of connection points: 2
#     Edge 34, Type (0, 0), BuildingBlock: MIFKUJ_clean_linker_0, # of connection points: 2
#     Edge 35, Type (0, 0), BuildingBlock: MIFKUJ_clean_linker_0, # of connection points: 2
#     Edge 36, Type (0, 0), BuildingBlock: MIFKUJ_clean_linker_0, # of connection points: 2
#     Edge 37, Type (0, 0), BuildingBlock: MIFKUJ_clean_linker_0, # of connection points: 2
#     Edge 38, Type (0, 0), BuildingBlock: MIFKUJ_clean_linker_0, # of connection points: 2
#     Edge 39, Type (0, 0), BuildingBlock: MIFKUJ_clean_linker_0, # of connection points: 2
#     Edge 40, Type (0, 0), BuildingBlock: MIFKUJ_clean_linker_0, # of connection points: 2
#     Edge 41, Type (0, 0), BuildingBlock: MIFKUJ_clean_linker_0, # of connection points: 2
# Relax obj value: 0.299
# Max RMSD: 0.211
# Mean RMSD: 0.211
data_MOF--net-wld--node1-BEQFEK_clean_sbu_0--edge1-MIFKUJ_clean_linker_0
_symmetry_space_group_name_H-M    P1
_symmetry_Int_Tables_number       1
_symmetry_cell_setting            triclinic
loop_
_symmetry_equiv_pos_as_xyz
'x, y, z'
_cell_length_a     50.300075
_cell_length_b     50.304109
_cell_length_c     53.153912
_cell_angle_alpha  90.007446
_cell_angle_beta   89.979978
_cell_angle_gamma 119.99425
loop_
_atom_site_label
_atom_site_type_symbol
_atom_site_fract_x
_atom_site_fract_y
_atom_site_fract_z
_atom_type_partial_charge
Co0 Co 0.38124 0.24549 0.11337 0.0
Co1 Co 0.40715 0.21717 0.15221 0.0
C2 C 0.44472 0.28226 0.13405 0.0
O3 O 0.42354 0.27999 0.11955 0.0
O4 O 0.44113 0.25979 0.14752 0.0
C5 C 0.37426 0.26852 0.06541 0.0
O6 O 0.39995 0.26939 0.05913 0.0
C7 C 0.45096 0.19958 0.17016 0.0
C8 C 0.42258 0.1594 0.19425 0.0
C9 C 0.45183 0.17706 0.18444 0.0
N10 N 0.42256 0.19568 0.17148 0.0
N11 N 0.40581 0.17195 0.1863 0.0
C12 C 0.47538 0.22142 0.15254 0.0
H13 H 0.46513 0.22743 0.13663 0.0
H14 H 0.48899 0.21135 0.14502 0.0
H15 H 0.49118 0.24256 0.16303 0.0
C16 C 0.36775 0.18889 0.08521 0.0
N17 N 0.38024 0.2084 0.10474 0.0
N18 N 0.39229 0.19719 0.12056 0.0
C19 C 0.38886 0.17077 0.11108 0.0
C20 C 0.37295 0.16447 0.0885 0.0
C21 C 0.34821 0.19175 0.06536 0.0
H22 H 0.33525 0.20223 0.07339 0.0
H23 H 0.36314 0.20665 0.05 0.0
H24 H 0.33168 0.16903 0.0573 0.0
O25 O 0.35656 0.23891 0.14366 0.0
O26 O 0.37369 0.21834 0.17174 0.0
H27 H 0.38897 0.14177 0.14048 0.0
H28 H 0.40039 0.13451 0.11015 0.0
C29 C 0.40169 0.15255 0.1229 0.0
H30 H 0.42614 0.16799 0.12754 0.0
H31 H 0.38256 0.16342 0.19 0.0
O32 O 0.36274 0.25876 0.08703 0.0
C33 C 0.35553 0.22804 0.16547 0.0
Co34 Co 0.75724 0.13598 0.10992 0.0
Co35 Co 0.78631 0.18845 0.15007 0.0
C36 C 0.72163 0.1632 0.12974 0.0
O37 O 0.72345 0.14508 0.11407 0.0
O38 O 0.74393 0.17991 0.14421 0.0
C39 C 0.73539 0.10432 0.06221 0.0
O40 O 0.73515 0.129 0.05447 0.0
C41 C 0.80569 0.25171 0.16035 0.0
C42 C 0.82891 0.26114 0.1972 0.0
C43 C 0.82073 0.27445 0.17813 0.0
N44 N 0.80536 0.22619 0.16818 0.0
N45 N 0.81919 0.23185 0.1903 0.0
C46 C 0.79006 0.25347 0.13693 0.0
H47 H 0.78261 0.23279 0.12509 0.0
H48 H 0.8056 0.27406 0.12576 0.0
H49 H 0.76976 0.25541 0.14222 0.0
C50 C 0.81579 0.1778 0.08337 0.0
N51 N 0.7956 0.17115 0.10233 0.0
N52 N 0.80794 0.193 0.1194 0.0
C53 C 0.83632 0.21431 0.11178 0.0
C54 C 0.84213 0.20543 0.08864 0.0
C55 C 0.81153 0.15647 0.06213 0.0
H56 H 0.80065 0.13255 0.06912 0.0
H57 H 0.79634 0.15795 0.04776 0.0
H58 H 0.83372 0.16243 0.0531 0.0
O59 O 0.76163 0.11777 0.14126 0.0
O60 O 0.78415 0.15409 0.17033 0.0
H61 H 0.85766 0.23665 0.14645 0.0
H62 H 0.88103 0.25454 0.11898 0.0
C63 C 0.85732 0.24262 0.12642 0.0
H64 H 0.84869 0.25896 0.12528 0.0
H65 H 0.82181 0.21572 0.20072 0.0
O66 O 0.74438 0.10338 0.08433 0.0
C67 C 0.7725 0.12619 0.16332 0.0
Co68 Co 0.86973 0.62912 0.11999 0.0
Co69 Co 0.81578 0.60667 0.15876 0.0
C70 C 0.84255 0.5673 0.14205 0.0
O71 O 0.86055 0.58639 0.12581 0.0
O72 O 0.82549 0.57337 0.15564 0.0
C73 C 0.90218 0.63619 0.07316 0.0
O74 O 0.87769 0.61061 0.0662 0.0
C75 C 0.75412 0.56026 0.17111 0.0
C76 C 0.73863 0.58194 0.1992 0.0
C77 C 0.72912 0.55519 0.18554 0.0
N78 N 0.77745 0.58854 0.17605 0.0
N79 N 0.76826 0.60135 0.19311 0.0
C80 C 0.75471 0.54024 0.15047 0.0
H81 H 0.77148 0.55439 0.13574 0.0
H82 H 0.7317 0.52646 0.14176 0.0
H83 H 0.76172 0.52427 0.15842 0.0
C84 C 0.8279 0.64339 0.09045 0.0
N85 N 0.83444 0.63118 0.11047 0.0
N86 N 0.81183 0.62162 0.12685 0.0
C87 C 0.79011 0.6272 0.11767 0.0
C88 C 0.7996 0.64119 0.09436 0.0
C89 C 0.84963 0.65979 0.06928 0.0
H90 H 0.87332 0.67373 0.07662 0.0
H91 H 0.84907 0.64265 0.05586 0.0
H92 H 0.84324 0.67501 0.05903 0.0
O93 O 0.88697 0.65335 0.15109 0.0
O94 O 0.84908 0.64007 0.17864 0.0
H95 H 0.76618 0.63072 0.14964 0.0
H96 H 0.74639 0.6261 0.12014 0.0
C97 C 0.76083 0.61929 0.131 0.0
H98 H 0.74737 0.59417 0.13395 0.0
H99 H 0.78183 0.62361 0.19996 0.0
O100 O 0.90281 0.64766 0.09459 0.0
C101 C 0.87727 0.65636 0.17247 0.0
Co102 Co 0.24591 0.37907 0.38805 0.0
Co103 Co 0.21679 0.40075 0.3465 0.0
C104 C 0.28097 0.44142 0.36736 0.0
O105 O 0.27941 0.42202 0.38347 0.0
O106 O 0.25874 0.43505 0.35258 0.0
C107 C 0.2687 0.3722 0.43622 0.0
O108 O 0.2699 0.39809 0.44232 0.0
C109 C 0.19714 0.4442 0.33598 0.0
C110 C 0.17589 0.43181 0.29833 0.0
C111 C 0.18301 0.45254 0.31788 0.0
N112 N 0.19798 0.41936 0.3279 0.0
N113 N 0.1853 0.412 0.30531 0.0
C114 C 0.21149 0.46081 0.35999 0.0
H115 H 0.21888 0.44753 0.37181 0.0
H116 H 0.19507 0.46494 0.37083 0.0
H117 H 0.23166 0.48351 0.35551 0.0
C118 C 0.1871 0.36292 0.41392 0.0
N119 N 0.2073 0.37568 0.39485 0.0
N120 N 0.19476 0.38402 0.37704 0.0
C121 C 0.16618 0.37677 0.38419 0.0
C122 C 0.16048 0.36333 0.40785 0.0
C123 C 0.19193 0.34774 0.43628 0.0
H124 H 0.20232 0.33386 0.43024 0.0
H125 H 0.20788 0.36563 0.44955 0.0
H126 H 0.17005 0.33261 0.4462 0.0
O127 O 0.24206 0.35559 0.35723 0.0
O128 O 0.21988 0.36847 0.32712 0.0
H129 H 0.14598 0.37709 0.34868 0.0
H130 H 0.12092 0.37001 0.37524 0.0
C131 C 0.14497 0.38292 0.36864 0.0
H132 H 0.15231 0.40761 0.3699 0.0
H133 H 0.18338 0.39374 0.29458 0.0
O134 O 0.2587 0.36045 0.4147 0.0
C135 C 0.23155 0.35254 0.33496 0.0
Co136 Co 0.62033 0.86595 0.38138 0.0
Co137 Co 0.59768 0.81301 0.34161 0.0
C138 C 0.55857 0.83969 0.35823 0.0
O139 O 0.57788 0.85731 0.37453 0.0
O140 O 0.56418 0.82246 0.34443 0.0
C141 C 0.62593 0.89517 0.42957 0.0
O142 O 0.60091 0.86968 0.43585 0.0
C143 C 0.55262 0.75222 0.32501 0.0
C144 C 0.57905 0.73748 0.30141 0.0
C145 C 0.55025 0.72755 0.31164 0.0
N146 N 0.58144 0.77579 0.3228 0.0
N147 N 0.59704 0.76709 0.30825 0.0
C148 C 0.52944 0.75194 0.3429 0.0
H149 H 0.54112 0.76638 0.35956 0.0
H150 H 0.51286 0.72832 0.34926 0.0
H151 H 0.51655 0.76158 0.33327 0.0
C152 C 0.63402 0.82322 0.40989 0.0
N153 N 0.62181 0.83021 0.39014 0.0
N154 N 0.61113 0.80748 0.37383 0.0
C155 C 0.61529 0.78486 0.38313 0.0
C156 C 0.63015 0.7942 0.40615 0.0
C157 C 0.65239 0.84529 0.43033 0.0
H158 H 0.66513 0.86897 0.42278 0.0
H159 H 0.63666 0.84433 0.44538 0.0
H160 H 0.66902 0.83944 0.43871 0.0
O161 O 0.64602 0.88452 0.35142 0.0
O162 O 0.63197 0.84743 0.32297 0.0
H163 H 0.61826 0.75803 0.35318 0.0
H164 H 0.60666 0.73797 0.38292 0.0
C165 C 0.60462 0.75456 0.3705 0.0
H166 H 0.58017 0.74439 0.36531 0.0
H167 H 0.62034 0.78079 0.3041 0.0
O168 O 0.6376 0.89762 0.40791 0.0
C169 C 0.64895 0.87527 0.32986 0.0
Co170 Co 0.13997 0.75796 0.39025 0.0
Co171 Co 0.18949 0.79035 0.34813 0.0
C172 C 0.16765 0.72512 0.36543 0.0
O173 O 0.15019 0.72544 0.38262 0.0
O174 O 0.18284 0.74828 0.35129 0.0
C175 C 0.0867 0.71738 0.41719 0.0
O176 O 0.08438 0.69923 0.39851 0.0
C177 C 0.25186 0.8119 0.33364 0.0
C178 C 0.25949 0.84075 0.30009 0.0
C179 C 0.2738 0.83021 0.31626 0.0
N180 N 0.22572 0.81173 0.32837 0.0
N181 N 0.23022 0.82881 0.30815 0.0
C182 C 0.25543 0.79431 0.35486 0.0
H183 H 0.2375 0.78858 0.36935 0.0
H184 H 0.27841 0.80748 0.36366 0.0
H185 H 0.25309 0.77265 0.34736 0.0
C186 C 0.18266 0.81426 0.41811 0.0
N187 N 0.17518 0.79587 0.39782 0.0
N188 N 0.19572 0.80992 0.38003 0.0
C189 C 0.21704 0.83787 0.38844 0.0
C190 C 0.20947 0.84156 0.41285 0.0
C191 C 0.16258 0.80687 0.44082 0.0
H192 H 0.1395 0.80227 0.4349 0.0
H193 H 0.15972 0.78565 0.44972 0.0
H194 H 0.17204 0.82583 0.45473 0.0
O195 O 0.11897 0.76373 0.36119 0.0
O196 O 0.15335 0.78817 0.33102 0.0
H197 H 0.23681 0.8626 0.35424 0.0
H198 H 0.25673 0.8833 0.38231 0.0
C199 C 0.24424 0.86039 0.37338 0.0
H200 H 0.2606 0.85182 0.37169 0.0
H201 H 0.21351 0.8326 0.30006 0.0
O202 O 0.10996 0.74422 0.41818 0.0
C203 C 0.12597 0.77595 0.33943 0.0
Co204 Co 0.62484 0.75538 0.88381 0.0
Co205 Co 0.60128 0.78434 0.8436 0.0
C206 C 0.56251 0.7191 0.86294 0.0
O207 O 0.58264 0.72072 0.8783 0.0
O208 O 0.56765 0.74174 0.84904 0.0
C209 C 0.63041 0.72783 0.9296 0.0
O210 O 0.60096 0.71798 0.93228 0.0
C211 C 0.55755 0.80411 0.834 0.0
C212 C 0.57096 0.82749 0.79719 0.0
C213 C 0.54984 0.81951 0.81656 0.0
N214 N 0.58241 0.80342 0.8257 0.0
N215 N 0.59034 0.81734 0.80361 0.0
C216 C 0.54048 0.78863 0.85759 0.0
H217 H 0.51701 0.77009 0.85264 0.0
H218 H 0.55252 0.77888 0.86827 0.0
H219 H 0.53809 0.80513 0.86984 0.0
C220 C 0.63806 0.81181 0.91152 0.0
N221 N 0.62596 0.79254 0.89184 0.0
N222 N 0.61739 0.80545 0.87455 0.0
C223 C 0.62404 0.83355 0.8826 0.0
C224 C 0.63719 0.83841 0.90635 0.0
C225 C 0.65314 0.80613 0.93353 0.0
H226 H 0.67039 0.80024 0.92667 0.0
H227 H 0.63558 0.78631 0.94445 0.0
H228 H 0.66474 0.82643 0.94604 0.0
O229 O 0.64942 0.76186 0.85317 0.0
O230 O 0.63439 0.7831 0.82382 0.0
H231 H 0.62399 0.85498 0.84766 0.0
H232 H 0.63094 0.8791 0.87484 0.0
C233 C 0.61803 0.8553 0.86769 0.0
H234 H 0.59334 0.84797 0.869 0.0
H235 H 0.60885 0.81982 0.79291 0.0
O236 O 0.64452 0.74403 0.91057 0.0
C237 C 0.65174 0.77282 0.83115 0.0
Co238 Co 0.24501 0.86704 0.88337 0.0
Co239 Co 0.212 0.81152 0.84602 0.0
C240 C 0.27925 0.84011 0.85988 0.0
O241 O 0.27864 0.85838 0.87611 0.0
O242 O 0.25548 0.82222 0.84725 0.0
C243 C 0.27283 0.90078 0.92904 0.0
O244 O 0.27521 0.87684 0.93549 0.0
C245 C 0.19505 0.74879 0.83381 0.0
C246 C 0.15313 0.73225 0.81085 0.0
C247 C 0.1715 0.72268 0.82264 0.0
N248 N 0.19024 0.7724 0.82963 0.0
N249 N 0.16551 0.76256 0.81542 0.0
C250 C 0.22193 0.75166 0.84832 0.0
H251 H 0.24338 0.7684 0.83869 0.0
H252 H 0.2221 0.76056 0.86746 0.0
H253 H 0.22208 0.72976 0.8495 0.0
C254 C 0.1909 0.82639 0.91495 0.0
N255 N 0.20869 0.83187 0.89442 0.0
N256 N 0.1952 0.8083 0.87899 0.0
C257 C 0.16872 0.78674 0.88957 0.0
C258 C 0.16502 0.79758 0.91256 0.0
C259 C 0.1966 0.84973 0.93483 0.0
H260 H 0.20568 0.8727 0.92617 0.0
H261 H 0.21384 0.85063 0.94832 0.0
H262 H 0.17531 0.84395 0.94533 0.0
O263 O 0.23548 0.8829 0.8529 0.0
O264 O 0.20992 0.84419 0.82625 0.0
H265 H 0.13782 0.75965 0.8603 0.0
H266 H 0.12827 0.74121 0.89078 0.0
C267 C 0.14736 0.75621 0.878 0.0
H268 H 0.16021 0.74425 0.87362 0.0
H269 H 0.15624 0.77613 0.80987 0.0
O270 O 0.26046 0.9007 0.9082 0.0
C271 C 0.22151 0.87246 0.83211 0.0
Co272 Co 0.13538 0.37227 0.88068 0.0
Co273 Co 0.19011 0.40099 0.84229 0.0
C274 C 0.16058 0.43622 0.86129 0.0
O275 O 0.14171 0.4141 0.87506 0.0
O276 O 0.18039 0.4341 0.84791 0.0
C277 C 0.10581 0.36345 0.92896 0.0
O278 O 0.1312 0.38821 0.93583 0.0
C279 C 0.25117 0.44703 0.82578 0.0
C280 C 0.26478 0.42145 0.80003 0.0
C281 C 0.27524 0.44987 0.81118 0.0
N282 N 0.22742 0.41833 0.82335 0.0
N283 N 0.23548 0.40325 0.80759 0.0
C284 C 0.25232 0.46974 0.84461 0.0
H285 H 0.23634 0.45782 0.86042 0.0
H286 H 0.27586 0.48401 0.85221 0.0
H287 H 0.24556 0.48514 0.8352 0.0
C288 C 0.17921 0.35932 0.90825 0.0
N289 N 0.17199 0.37225 0.88918 0.0
N290 N 0.19535 0.38523 0.87348 0.0
C291 C 0.21856 0.3819 0.88259 0.0
C292 C 0.20903 0.3652 0.90482 0.0
C293 C 0.15682 0.3385 0.92758 0.0
H294 H 0.13341 0.32588 0.9195 0.0
H295 H 0.15678 0.35239 0.94377 0.0
H296 H 0.16321 0.32165 0.93458 0.0
O297 O 0.11822 0.34805 0.8501 0.0
O298 O 0.15605 0.3678 0.82202 0.0
H299 H 0.24762 0.38338 0.85258 0.0
H300 H 0.26634 0.39335 0.88294 0.0
C301 C 0.24959 0.39526 0.87064 0.0
H302 H 0.25859 0.4199 0.86681 0.0
H303 H 0.22148 0.38018 0.80287 0.0
O304 O 0.10349 0.35293 0.90685 0.0
C305 C 0.12844 0.34843 0.82814 0.0
Co306 Co 0.74832 0.61658 0.60978 0.0
Co307 Co 0.78246 0.59672 0.64802 0.0
C308 C 0.71524 0.55605 0.63461 0.0
O309 O 0.71516 0.57467 0.61847 0.0
O310 O 0.73938 0.56242 0.64694 0.0
C311 C 0.71904 0.62068 0.564 0.0
O312 O 0.71554 0.59378 0.558 0.0
C313 C 0.80123 0.55297 0.66079 0.0
C314 C 0.83805 0.57657 0.68889 0.0
C315 C 0.8219 0.54943 0.67549 0.0
N316 N 0.80463 0.58073 0.66531 0.0
N317 N 0.82651 0.59474 0.68232 0.0
C318 C 0.78099 0.53173 0.64059 0.0
H319 H 0.77531 0.54438 0.62649 0.0
H320 H 0.79238 0.52042 0.63109 0.0
H321 H 0.75942 0.5136 0.64919 0.0
C322 C 0.80178 0.62802 0.57778 0.0
N323 N 0.78483 0.61774 0.59896 0.0
N324 N 0.79907 0.60927 0.61509 0.0
C325 C 0.82527 0.61346 0.60448 0.0
C326 C 0.82766 0.62524 0.58053 0.0
C327 C 0.79403 0.64137 0.55574 0.0
H328 H 0.7868 0.6577 0.56236 0.0
H329 H 0.7747 0.62263 0.54526 0.0
H330 H 0.81377 0.65334 0.5427 0.0
O331 O 0.75739 0.64305 0.63949 0.0
O332 O 0.78345 0.63152 0.66688 0.0
H333 H 0.85327 0.61932 0.6367 0.0
H334 H 0.87092 0.61936 0.6071 0.0
C335 C 0.84897 0.60891 0.6177 0.0
H336 H 0.84041 0.58399 0.61974 0.0
H337 H 0.83407 0.61691 0.68895 0.0
O338 O 0.73246 0.63363 0.58436 0.0
C339 C 0.77127 0.64748 0.66043 0.0
Co340 Co 0.37645 0.13558 0.61894 0.0
Co341 Co 0.39724 0.18589 0.66081 0.0
C342 C 0.4367 0.15943 0.64368 0.0
O343 O 0.41831 0.1432 0.62633 0.0
O344 O 0.43041 0.17569 0.65809 0.0
C345 C 0.37136 0.10644 0.5705 0.0
O346 O 0.39719 0.13121 0.56444 0.0
C347 C 0.44311 0.24584 0.67803 0.0
C348 C 0.41835 0.26006 0.70411 0.0
C349 C 0.44663 0.27004 0.69279 0.0
N350 N 0.41421 0.22251 0.68051 0.0
N351 N 0.39957 0.2309 0.69646 0.0
C352 C 0.46527 0.24647 0.65884 0.0
H353 H 0.45271 0.23147 0.64268 0.0
H354 H 0.48066 0.27012 0.65186 0.0
H355 H 0.47957 0.23789 0.66759 0.0
C356 C 0.36503 0.18038 0.59132 0.0
N357 N 0.37589 0.172 0.61115 0.0
N358 N 0.38528 0.19346 0.62856 0.0
C359 C 0.38139 0.21656 0.62003 0.0
C360 C 0.36831 0.20898 0.59622 0.0
C361 C 0.34838 0.15982 0.56958 0.0
H362 H 0.33459 0.13574 0.57606 0.0
H363 H 0.36536 0.16126 0.55553 0.0
H364 H 0.33289 0.16661 0.56034 0.0
O365 O 0.34967 0.11607 0.6481 0.0
O366 O 0.36162 0.15099 0.67814 0.0
H367 H 0.37663 0.23994 0.65184 0.0
H368 H 0.38721 0.2623 0.62315 0.0
C369 C 0.39038 0.2455 0.63432 0.0
H370 H 0.41493 0.25651 0.63943 0.0
H371 H 0.37645 0.21728 0.70123 0.0
O372 O 0.35927 0.10468 0.59185 0.0
C373 C 0.34514 0.12369 0.66983 0.0
Co374 Co 0.86349 0.24128 0.6101 0.0
Co375 Co 0.81259 0.21245 0.65158 0.0
C376 C 0.83657 0.27675 0.6308 0.0
O377 O 0.85447 0.27489 0.61492 0.0
O378 O 0.82017 0.2546 0.64553 0.0
C379 C 0.89352 0.26424 0.56205 0.0
O380 O 0.86905 0.26571 0.55572 0.0
C381 C 0.74931 0.19185 0.66278 0.0
C382 C 0.74087 0.16883 0.69966 0.0
C383 C 0.72686 0.17629 0.68068 0.0
N384 N 0.77535 0.19314 0.67044 0.0
N385 N 0.7703 0.17946 0.69259 0.0
C386 C 0.7466 0.20678 0.63927 0.0
H387 H 0.76738 0.21511 0.62741 0.0
H388 H 0.72631 0.19046 0.62817 0.0
H389 H 0.74341 0.22638 0.64445 0.0
C390 C 0.8206 0.18294 0.58396 0.0
N391 N 0.82815 0.20289 0.60321 0.0
N392 N 0.80717 0.19036 0.62095 0.0
C393 C 0.78563 0.16195 0.61355 0.0
C394 C 0.79334 0.15644 0.58979 0.0
C395 C 0.84058 0.18785 0.56155 0.0
H396 H 0.86482 0.19801 0.56757 0.0
H397 H 0.83877 0.20399 0.54842 0.0
H398 H 0.83369 0.16603 0.55149 0.0
O399 O 0.88303 0.2374 0.64077 0.0
O400 O 0.84808 0.2155 0.67096 0.0
H401 H 0.76466 0.14144 0.64886 0.0
H402 H 0.74689 0.11674 0.62213 0.0
C403 C 0.75806 0.14072 0.62888 0.0
H404 H 0.74082 0.1482 0.62755 0.0
H405 H 0.78686 0.1774 0.70285 0.0
O406 O 0.89493 0.25403 0.58356 0.0
C407 C 0.87567 0.22709 0.66309 0.0
H408 H 0.71244 0.20419 0.15638 0.0
H409 H 0.66376 0.20133 0.16609 0.0
H410 H 0.61586 0.11974 0.12063 0.0
H411 H 0.6648 0.12261 0.11047 0.0
H412 H 0.59198 0.15752 0.11471 0.0
H413 H 0.6159 0.11221 0.18292 0.0
H414 H 0.64812 0.10813 0.21587 0.0
H415 H 0.65678 0.18824 0.25237 0.0
H416 H 0.62492 0.19306 0.21941 0.0
H417 H 0.44895 0.12411 0.16944 0.0
H418 H 0.49264 0.11618 0.16151 0.0
H419 H 0.55443 0.20633 0.19109 0.0
H420 H 0.5109 0.21453 0.19848 0.0
H421 H 0.56741 0.15695 0.2053 0.0
H422 H 0.54636 0.20335 0.13322 0.0
H423 H 0.51203 0.2046 0.10073 0.0
H424 H 0.49564 0.11791 0.07197 0.0
H425 H 0.5295 0.11591 0.10461 0.0
C426 C 0.69163 0.18575 0.14821 0.0
C427 C 0.69248 0.1634 0.13287 0.0
C428 C 0.66379 0.18409 0.15388 0.0
C429 C 0.63614 0.15992 0.14456 0.0
C430 C 0.63695 0.13844 0.12817 0.0
C431 C 0.66492 0.14014 0.12238 0.0
C432 C 0.60652 0.15682 0.15272 0.0
C433 C 0.58636 0.15684 0.1345 0.0
C434 C 0.5992 0.156 0.17857 0.0
C435 C 0.6182 0.15313 0.19857 0.0
C436 C 0.62485 0.12909 0.19788 0.0
C437 C 0.64303 0.12662 0.21657 0.0
C438 C 0.65456 0.14795 0.23618 0.0
C439 C 0.64785 0.17175 0.23716 0.0
C440 C 0.62969 0.17433 0.21849 0.0
C441 C 0.4718 0.1418 0.17487 0.0
C442 C 0.4768 0.16987 0.18458 0.0
C443 C 0.49666 0.13734 0.17023 0.0
C444 C 0.52666 0.16076 0.17561 0.0
C445 C 0.5314 0.188 0.1869 0.0
C446 C 0.50664 0.19266 0.1911 0.0
C447 C 0.55337 0.15827 0.16732 0.0
C448 C 0.57293 0.15722 0.18553 0.0
C449 C 0.55993 0.15775 0.1415 0.0
C450 C 0.54016 0.1593 0.12153 0.0
C451 C 0.53524 0.18444 0.1201 0.0
C452 C 0.51589 0.1853 0.10164 0.0
C453 C 0.50157 0.1613 0.08435 0.0
C454 C 0.5067 0.13645 0.08541 0.0
C455 C 0.52597 0.13544 0.10388 0.0
H456 H 0.48658 0.16199 0.07009 0.0
H457 H 0.66864 0.14601 0.25064 0.0
H458 H 0.85111 0.31634 0.14145 0.0
H459 H 0.85681 0.36735 0.13709 0.0
H460 H 0.81068 0.35562 0.20816 0.0
H461 H 0.80441 0.30407 0.21226 0.0
H462 H 0.7873 0.3759 0.17112 0.0
H463 H 0.88664 0.4039 0.20376 0.0
H464 H 0.93579 0.40427 0.20583 0.0
H465 H 0.95908 0.44331 0.13174 0.0
H466 H 0.90985 0.44279 0.12908 0.0
H467 H 0.81602 0.52742 0.181 0.0
H468 H 0.81502 0.47923 0.18842 0.0
H469 H 0.86568 0.49151 0.11974 0.0
H470 H 0.86773 0.54065 0.11255 0.0
H471 H 0.88688 0.47101 0.15642 0.0
H472 H 0.78739 0.44257 0.12348 0.0
H473 H 0.73928 0.44419 0.12194 0.0
H474 H 0.71604 0.40587 0.19626 0.0
H475 H 0.76443 0.40468 0.19848 0.0
C476 C 0.84213 0.32468 0.15607 0.0
C477 C 0.82685 0.30627 0.17696 0.0
C478 C 0.84566 0.35389 0.15371 0.0
C479 C 0.8342 0.36529 0.17232 0.0
C480 C 0.81962 0.34719 0.19357 0.0
C481 C 0.81621 0.31794 0.19598 0.0
C482 C 0.83636 0.39557 0.16895 0.0
C483 C 0.8091 0.39679 0.1683 0.0
C484 C 0.86475 0.42263 0.16457 0.0
C485 C 0.89442 0.42304 0.16613 0.0
C486 C 0.90212 0.41233 0.18782 0.0
C487 C 0.93002 0.41261 0.18912 0.0
C488 C 0.95051 0.42374 0.16891 0.0
C489 C 0.94317 0.43467 0.14737 0.0
C490 C 0.91529 0.43442 0.14597 0.0
C491 C 0.82694 0.51994 0.16738 0.0
C492 C 0.84178 0.53781 0.14605 0.0
C493 C 0.82627 0.49228 0.17165 0.0
C494 C 0.83979 0.48146 0.15442 0.0
C495 C 0.855 0.49939 0.13325 0.0
C496 C 0.85605 0.52738 0.12911 0.0
C497 C 0.83783 0.45135 0.15854 0.0
C498 C 0.86508 0.45013 0.15927 0.0
C499 C 0.8094 0.42424 0.1629 0.0
C500 C 0.77969 0.42378 0.16123 0.0
C501 C 0.77208 0.43459 0.13954 0.0
C502 C 0.74476 0.43546 0.13855 0.0
C503 C 0.72461 0.42519 0.15901 0.0
C504 C 0.73168 0.41386 0.18044 0.0
C505 C 0.75907 0.41308 0.18158 0.0
H506 H 0.70352 0.426 0.15828 0.0
H507 H 0.9721 0.42394 0.16995 0.0
H508 H 0.71301 0.49506 0.18749 0.0
H509 H 0.66268 0.45075 0.17831 0.0
H510 H 0.6247 0.51059 0.17046 0.0
H511 H 0.67518 0.55506 0.18015 0.0
H512 H 0.58409 0.45775 0.19246 0.0
H513 H 0.64674 0.48683 0.11954 0.0
H514 H 0.6929 0.50068 0.09421 0.0
H515 H 0.68093 0.41091 0.1061 0.0
H516 H 0.63523 0.3968 0.13218 0.0
H517 H 0.45413 0.33992 0.12486 0.0
H518 H 0.50122 0.38902 0.13262 0.0
H519 H 0.54739 0.34046 0.15612 0.0
H520 H 0.50055 0.29156 0.14876 0.0
H521 H 0.58199 0.39119 0.12262 0.0
H522 H 0.52154 0.36568 0.19948 0.0
H523 H 0.47488 0.35306 0.22373 0.0
H524 H 0.48171 0.43818 0.20101 0.0
H525 H 0.5282 0.45109 0.17631 0.0
C526 C 0.6938 0.49866 0.18411 0.0
C527 C 0.69791 0.52837 0.18409 0.0
C528 C 0.66512 0.4734 0.17879 0.0
C529 C 0.64014 0.47747 0.17303 0.0
C530 C 0.64374 0.50697 0.17465 0.0
C531 C 0.67248 0.5323 0.18022 0.0
C532 C 0.61087 0.45108 0.16412 0.0
C533 C 0.58357 0.4435 0.17693 0.0
C534 C 0.61015 0.43248 0.1438 0.0
C535 C 0.63764 0.44083 0.12802 0.0
C536 C 0.6541 0.47012 0.11697 0.0
C537 C 0.68021 0.47803 0.10248 0.0
C538 C 0.68989 0.45672 0.0986 0.0
C539 C 0.67344 0.42742 0.10916 0.0
C540 C 0.64745 0.41947 0.12385 0.0
C541 C 0.47444 0.33976 0.13141 0.0
C542 C 0.47363 0.31189 0.13636 0.0
C543 C 0.50121 0.36777 0.13593 0.0
C544 C 0.52762 0.36826 0.14509 0.0
C545 C 0.52719 0.34051 0.14909 0.0
C546 C 0.50038 0.3126 0.14498 0.0
C547 C 0.55558 0.39753 0.15138 0.0
C548 C 0.58259 0.40569 0.13797 0.0
C549 C 0.55592 0.41685 0.17086 0.0
C550 C 0.52811 0.40917 0.18581 0.0
C551 C 0.51293 0.38157 0.19947 0.0
C552 C 0.48655 0.37439 0.21333 0.0
C553 C 0.47528 0.39476 0.21385 0.0
C554 C 0.49043 0.4224 0.20056 0.0
C555 C 0.5168 0.42966 0.18663 0.0
H556 H 0.45485 0.38917 0.22459 0.0
H557 H 0.71011 0.46287 0.08736 0.0
H558 H 0.1493 0.46177 0.35286 0.0
H559 H 0.14521 0.50785 0.35878 0.0
H560 H 0.19965 0.54772 0.292 0.0
H561 H 0.20401 0.5015 0.28623 0.0
H562 H 0.22088 0.58665 0.33277 0.0
H563 H 0.12479 0.52484 0.29116 0.0
H564 H 0.07453 0.47861 0.28372 0.0
H565 H 0.04419 0.48765 0.35709 0.0
H566 H 0.09444 0.53371 0.36513 0.0
H567 H 0.20063 0.71615 0.32898 0.0
H568 H 0.20212 0.66951 0.31983 0.0
H569 H 0.1415 0.62403 0.38241 0.0
H570 H 0.13918 0.67057 0.39135 0.0
H571 H 0.12345 0.58799 0.34243 0.0
H572 H 0.21955 0.64911 0.38459 0.0
H573 H 0.27015 0.69465 0.39272 0.0
H574 H 0.30091 0.68649 0.31928 0.0
H575 H 0.25033 0.64121 0.31052 0.0
C576 C 0.16016 0.48032 0.33937 0.0
C577 C 0.1772 0.47843 0.31925 0.0
C578 C 0.15766 0.50651 0.34266 0.0
C579 C 0.1721 0.5312 0.32581 0.0
C580 C 0.18837 0.52891 0.30521 0.0
C581 C 0.19068 0.50254 0.30183 0.0
C582 C 0.17159 0.55997 0.33066 0.0
C583 C 0.19961 0.58712 0.33444 0.0
C584 C 0.14379 0.56026 0.33362 0.0
C585 C 0.1135 0.53258 0.32883 0.0
C586 C 0.1075 0.51683 0.3058 0.0
C587 C 0.07899 0.49068 0.30146 0.0
C588 C 0.05621 0.48016 0.31994 0.0
C589 C 0.06187 0.49581 0.3428 0.0
C590 C 0.09035 0.52196 0.34725 0.0
C591 C 0.18769 0.69632 0.34094 0.0
C592 C 0.16976 0.69715 0.36094 0.0
C593 C 0.18871 0.66966 0.33572 0.0
C594 C 0.17222 0.64334 0.3506 0.0
C595 C 0.15445 0.6441 0.37069 0.0
C596 C 0.15324 0.67075 0.37584 0.0
C597 C 0.17279 0.61478 0.34464 0.0
C598 C 0.14476 0.58763 0.34068 0.0
C599 C 0.20062 0.61447 0.34163 0.0
C600 C 0.23101 0.64189 0.34681 0.0
C601 C 0.237 0.65718 0.37008 0.0
C602 C 0.2657 0.68292 0.37482 0.0
C603 C 0.28871 0.69345 0.35652 0.0
C604 C 0.28305 0.6783 0.33343 0.0
C605 C 0.25438 0.6526 0.32857 0.0
H606 H 0.31096 0.71329 0.36026 0.0
H607 H 0.03414 0.45991 0.31654 0.0
H608 H 0.55109 0.67729 0.32913 0.0
H609 H 0.50647 0.62714 0.33884 0.0
H610 H 0.44673 0.65682 0.30674 0.0
H611 H 0.4913 0.70732 0.2981 0.0
H612 H 0.42607 0.63337 0.35008 0.0
H613 H 0.46099 0.6009 0.27863 0.0
H614 H 0.49808 0.59451 0.25272 0.0
H615 H 0.50928 0.54295 0.31201 0.0
H616 H 0.47252 0.54938 0.33841 0.0
H617 H 0.28818 0.49133 0.34153 0.0
H618 H 0.33567 0.53909 0.33328 0.0
H619 H 0.38601 0.50736 0.37779 0.0
H620 H 0.33831 0.45909 0.38613 0.0
H621 H 0.41281 0.53092 0.33094 0.0
H622 H 0.37427 0.56179 0.40104 0.0
H623 H 0.3353 0.56735 0.42494 0.0
H624 H 0.3291 0.62153 0.36527 0.0
H625 H 0.36774 0.61595 0.34084 0.0
C626 C 0.52844 0.67267 0.3236 0.0
C627 C 0.52441 0.69584 0.31278 0.0
C628 C 0.50296 0.64408 0.32915 0.0
C629 C 0.47316 0.63807 0.32344 0.0
C630 C 0.46943 0.6609 0.31145 0.0
C631 C 0.49483 0.68961 0.30632 0.0
C632 C 0.44572 0.60903 0.33157 0.0
C633 C 0.42304 0.61099 0.34555 0.0
C634 C 0.44212 0.57978 0.32642 0.0
C635 C 0.46425 0.57591 0.31059 0.0
C636 C 0.47155 0.58842 0.28622 0.0
C637 C 0.49248 0.58474 0.27143 0.0
C638 C 0.5061 0.56841 0.28074 0.0
C639 C 0.49875 0.55564 0.30484 0.0
C640 C 0.47785 0.55927 0.31971 0.0
C641 C 0.30926 0.49452 0.34978 0.0
C642 C 0.30947 0.47137 0.36449 0.0
C643 C 0.33639 0.52191 0.34509 0.0
C644 C 0.36431 0.5268 0.35502 0.0
C645 C 0.36465 0.50398 0.36998 0.0
C646 C 0.33738 0.47654 0.37485 0.0
C647 C 0.39313 0.55544 0.34894 0.0
C648 C 0.41604 0.55338 0.33548 0.0
C649 C 0.39681 0.58463 0.35426 0.0
C650 C 0.37375 0.58825 0.36903 0.0
C651 C 0.36444 0.57471 0.39293 0.0
C652 C 0.34244 0.5779 0.40659 0.0
C653 C 0.32969 0.59473 0.39661 0.0
C654 C 0.33898 0.60848 0.37298 0.0
C655 C 0.36097 0.60535 0.35923 0.0
H656 H 0.31264 0.59715 0.40721 0.0
H657 H 0.52229 0.56558 0.26925 0.0
H658 H 0.51777 0.81322 0.31975 0.0
H659 H 0.47122 0.81545 0.31173 0.0
H660 H 0.48681 0.86893 0.37917 0.0
H661 H 0.53381 0.867 0.38739 0.0
H662 H 0.4252 0.8199 0.37285 0.0
H663 H 0.50333 0.90517 0.32617 0.0
H664 H 0.54619 0.93024 0.29606 0.0
H665 H 0.4882 0.87226 0.2368 0.0
H666 H 0.44508 0.84651 0.26665 0.0
H667 H 0.31596 0.86407 0.35137 0.0
H668 H 0.36698 0.86991 0.35666 0.0
H669 H 0.35518 0.82017 0.28754 0.0
H670 H 0.30399 0.81453 0.28218 0.0
H671 H 0.41546 0.86827 0.29457 0.0
H672 H 0.338 0.78223 0.33991 0.0
H673 H 0.29413 0.75628 0.36894 0.0
H674 H 0.34985 0.81281 0.42976 0.0
H675 H 0.3939 0.83974 0.40092 0.0
C676 C 0.51132 0.82536 0.33301 0.0
C677 C 0.5296 0.84002 0.35421 0.0
C678 C 0.48475 0.8267 0.3283 0.0
C679 C 0.4758 0.84261 0.34472 0.0
C680 C 0.49347 0.85664 0.36624 0.0
C681 C 0.52031 0.85556 0.37087 0.0
C682 C 0.44802 0.8446 0.33919 0.0
C683 C 0.42323 0.8309 0.35596 0.0
C684 C 0.44522 0.85814 0.31674 0.0
C685 C 0.47106 0.87372 0.29871 0.0
C686 C 0.49978 0.89759 0.30677 0.0
C687 C 0.52411 0.91196 0.28974 0.0
C688 C 0.51994 0.9028 0.26455 0.0
C689 C 0.4914 0.87931 0.25632 0.0
C690 C 0.467 0.86484 0.27329 0.0
C691 C 0.32465 0.85502 0.33707 0.0
C692 C 0.30627 0.83865 0.31652 0.0
C693 C 0.35364 0.85828 0.34011 0.0
C694 C 0.36454 0.84497 0.32273 0.0
C695 C 0.34708 0.8305 0.30118 0.0
C696 C 0.31798 0.82731 0.29811 0.0
C697 C 0.39276 0.8438 0.32833 0.0
C698 C 0.41752 0.85744 0.31153 0.0
C699 C 0.39543 0.8299 0.35064 0.0
C700 C 0.36919 0.81324 0.36818 0.0
C701 C 0.34087 0.78931 0.35943 0.0
C702 C 0.31596 0.7744 0.37585 0.0
C703 C 0.3192 0.78288 0.40117 0.0
C704 C 0.34738 0.80628 0.41013 0.0
C705 C 0.37232 0.8214 0.39375 0.0
H706 H 0.29989 0.7713 0.41385 0.0
H707 H 0.53881 0.91395 0.25139 0.0
H708 H 0.29245 0.81561 0.81936 0.0
H709 H 0.33966 0.81503 0.81064 0.0
H710 H 0.37863 0.86308 0.88019 0.0
H711 H 0.3315 0.86459 0.88874 0.0
H712 H 0.42007 0.88575 0.84376 0.0
H713 H 0.34977 0.78468 0.8741 0.0
H714 H 0.30083 0.73561 0.87539 0.0
H715 H 0.31513 0.71613 0.79954 0.0
H716 H 0.36393 0.76533 0.79765 0.0
H717 H 0.53893 0.8491 0.85436 0.0
H718 H 0.49394 0.85508 0.85982 0.0
H719 H 0.45921 0.81198 0.78778 0.0
H720 H 0.5041 0.80525 0.78263 0.0
H721 H 0.41579 0.78714 0.82457 0.0
H722 H 0.48743 0.88836 0.79521 0.0
H723 H 0.53628 0.93753 0.79471 0.0
H724 H 0.51974 0.9563 0.87013 0.0
H725 H 0.47097 0.90703 0.87121 0.0
C726 C 0.31098 0.82598 0.8329 0.0
C727 C 0.30809 0.83988 0.8549 0.0
C728 C 0.33798 0.82557 0.82789 0.0
C729 C 0.3625 0.83849 0.84498 0.0
C730 C 0.35994 0.85286 0.86678 0.0
C731 C 0.33299 0.85363 0.87168 0.0
C732 C 0.39071 0.83684 0.84003 0.0
C733 C 0.41918 0.86414 0.8399 0.0
C734 C 0.38948 0.80871 0.83442 0.0
C735 C 0.36039 0.77884 0.83566 0.0
C736 C 0.34239 0.77002 0.85764 0.0
C737 C 0.31468 0.74218 0.85849 0.0
C738 C 0.30484 0.7228 0.83754 0.0
C739 C 0.32276 0.73118 0.81574 0.0
C740 C 0.35046 0.75903 0.81478 0.0
C741 C 0.5216 0.84079 0.83977 0.0
C742 C 0.52449 0.82614 0.81833 0.0
C743 C 0.49611 0.84455 0.84275 0.0
C744 C 0.47323 0.83402 0.82419 0.0
C745 C 0.47659 0.82021 0.80235 0.0
C746 C 0.50222 0.81653 0.79934 0.0
C747 C 0.44512 0.83604 0.82829 0.0
C748 C 0.41665 0.80876 0.82833 0.0
C749 C 0.44639 0.86414 0.834 0.0
C750 C 0.47566 0.89386 0.83336 0.0
C751 C 0.49432 0.90286 0.81176 0.0
C752 C 0.52197 0.93077 0.81136 0.0
C753 C 0.53114 0.95 0.8324 0.0
C754 C 0.51263 0.94138 0.85386 0.0
C755 C 0.48495 0.91348 0.85436 0.0
H756 H 0.55256 0.9716 0.83205 0.0
H757 H 0.28336 0.70127 0.83822 0.0
H758 H 0.10898 0.44096 0.86429 0.0
H759 H 0.10467 0.48656 0.85605 0.0
H760 H 0.20302 0.54051 0.84696 0.0
H761 H 0.20709 0.49471 0.85388 0.0
H762 H 0.12222 0.53822 0.87609 0.0
H763 H 0.22406 0.59605 0.80529 0.0
H764 H 0.24963 0.58047 0.77375 0.0
H765 H 0.16706 0.49352 0.76495 0.0
H766 H 0.14088 0.50872 0.79618 0.0
H767 H 0.17312 0.69485 0.8661 0.0
H768 H 0.16539 0.64343 0.87124 0.0
H769 H 0.14113 0.62471 0.79271 0.0
H770 H 0.15137 0.67749 0.78714 0.0
H771 H 0.17675 0.60445 0.80292 0.0
H772 H 0.0865 0.59053 0.84273 0.0
H773 H 0.05404 0.60106 0.87106 0.0
H774 H 0.10151 0.59311 0.93517 0.0
H775 H 0.13439 0.58268 0.90722 0.0
C776 C 0.12965 0.46263 0.86066 0.0
C777 C 0.15834 0.46429 0.85938 0.0
C778 C 0.12718 0.48867 0.85593 0.0
C779 C 0.15342 0.51689 0.85022 0.0
C780 C 0.18229 0.51884 0.85041 0.0
C781 C 0.18466 0.49271 0.85454 0.0
C782 C 0.15071 0.54426 0.84388 0.0
C783 C 0.13404 0.55263 0.86003 0.0
C784 C 0.16519 0.56256 0.82242 0.0
C785 C 0.18059 0.55347 0.80323 0.0
C786 C 0.21131 0.57368 0.79652 0.0
C787 C 0.22593 0.5649 0.77872 0.0
C788 C 0.21001 0.536 0.7674 0.0
C789 C 0.1794 0.51586 0.77378 0.0
C790 C 0.16466 0.52454 0.79155 0.0
C791 C 0.16676 0.67999 0.8498 0.0
C792 C 0.16415 0.69053 0.82597 0.0
C793 C 0.1616 0.65027 0.85289 0.0
C794 C 0.15241 0.62991 0.83242 0.0
C795 C 0.14838 0.63999 0.80878 0.0
C796 C 0.15411 0.67005 0.8056 0.0
C797 C 0.14899 0.59895 0.83555 0.0
C798 C 0.16458 0.58989 0.81881 0.0
C799 C 0.13253 0.57942 0.85592 0.0
C800 C 0.11303 0.58598 0.87285 0.0
C801 C 0.09016 0.59124 0.86286 0.0
C802 C 0.07165 0.59714 0.87886 0.0
C803 C 0.07575 0.59781 0.9049 0.0
C804 C 0.09836 0.59257 0.915 0.0
C805 C 0.11688 0.58657 0.89909 0.0
H806 H 0.06134 0.60229 0.91727 0.0
H807 H 0.22138 0.52922 0.75366 0.0
H808 H 0.54916 0.66077 0.87522 0.0
H809 H 0.50129 0.61274 0.86657 0.0
H810 H 0.46158 0.66428 0.83562 0.0
H811 H 0.50922 0.71215 0.84386 0.0
H812 H 0.42212 0.61608 0.86862 0.0
H813 H 0.48841 0.63437 0.79669 0.0
H814 H 0.53615 0.64351 0.77601 0.0
H815 H 0.52276 0.55786 0.80469 0.0
H816 H 0.47513 0.54844 0.82587 0.0
H817 H 0.29362 0.50976 0.80272 0.0
H818 H 0.3445 0.55396 0.81074 0.0
H819 H 0.37866 0.49292 0.82929 0.0
H820 H 0.32777 0.44858 0.82057 0.0
H821 H 0.42204 0.54328 0.80548 0.0
H822 H 0.35527 0.52275 0.87561 0.0
H823 H 0.30741 0.51232 0.89684 0.0
H824 H 0.32192 0.60038 0.8737 0.0
H825 H 0.3697 0.61119 0.85204 0.0
C826 C 0.53009 0.66183 0.86683 0.0
C827 C 0.53297 0.69019 0.8601 0.0
C828 C 0.50287 0.63442 0.86181 0.0
C829 C 0.47807 0.63505 0.85029 0.0
C830 C 0.48051 0.66336 0.84448 0.0
C831 C 0.50777 0.69066 0.84914 0.0
C832 C 0.44975 0.6063 0.84354 0.0
C833 C 0.42203 0.60025 0.8547 0.0
C834 C 0.44989 0.58529 0.82591 0.0
C835 C 0.47843 0.59089 0.81312 0.0
C836 C 0.4958 0.61763 0.79879 0.0
C837 C 0.52281 0.62283 0.78694 0.0
C838 C 0.53254 0.60133 0.78911 0.0
C839 C 0.51523 0.57453 0.80307 0.0
C840 C 0.48822 0.56924 0.815 0.0
C841 C 0.3122 0.50588 0.80801 0.0
C842 C 0.3069 0.47596 0.81133 0.0
C843 C 0.34116 0.53106 0.81272 0.0
C844 C 0.36513 0.52671 0.82129 0.0
C845 C 0.36042 0.49678 0.82288 0.0
C846 C 0.33145 0.47152 0.81784 0.0
C847 C 0.39424 0.55331 0.83021 0.0
C848 C 0.42211 0.55893 0.81956 0.0
C849 C 0.39433 0.57378 0.84857 0.0
C850 C 0.36596 0.56769 0.86205 0.0
C851 C 0.3482 0.53984 0.87496 0.0
C852 C 0.32109 0.53387 0.88708 0.0
C853 C 0.31159 0.55564 0.88657 0.0
C854 C 0.32929 0.58352 0.87405 0.0
C855 C 0.35642 0.58961 0.86189 0.0
H856 H 0.29055 0.55094 0.89591 0.0
H857 H 0.55344 0.60539 0.77991 0.0
H858 H 0.77911 0.48933 0.68078 0.0
H859 H 0.78624 0.445 0.67521 0.0
H860 H 0.88322 0.5057 0.66348 0.0
H861 H 0.8761 0.55031 0.66927 0.0
H862 H 0.85279 0.45966 0.62535 0.0
H863 H 0.8637 0.46743 0.71509 0.0
H864 H 0.84895 0.47202 0.75842 0.0
H865 H 0.76453 0.38661 0.75029 0.0
H866 H 0.77857 0.38171 0.70676 0.0
H867 H 0.88171 0.33462 0.61822 0.0
H868 H 0.88301 0.38292 0.62722 0.0
H869 H 0.79153 0.33256 0.6582 0.0
H870 H 0.79076 0.28437 0.65033 0.0
H871 H 0.82461 0.37669 0.68799 0.0
H872 H 0.8093 0.37007 0.59843 0.0
H873 H 0.82067 0.36474 0.55419 0.0
H874 H 0.90878 0.44645 0.56053 0.0
H875 H 0.89807 0.45206 0.60493 0.0
C876 C 0.80197 0.49315 0.67729 0.0
C877 C 0.82706 0.52307 0.6753 0.0
C878 C 0.80605 0.46789 0.67421 0.0
C879 C 0.83525 0.47213 0.66893 0.0
C880 C 0.86052 0.50203 0.66755 0.0
C881 C 0.8565 0.52739 0.67102 0.0
C882 C 0.83875 0.44519 0.66353 0.0
C883 C 0.84724 0.44172 0.63914 0.0
C884 C 0.83056 0.42151 0.68135 0.0
C885 C 0.8221 0.42433 0.70758 0.0
C886 C 0.84188 0.44974 0.72246 0.0
C887 C 0.83367 0.45238 0.74708 0.0
C888 C 0.8058 0.42966 0.75708 0.0
C889 C 0.78611 0.40421 0.74251 0.0
C890 C 0.7942 0.40147 0.71788 0.0
C891 C 0.86175 0.33388 0.62666 0.0
C892 C 0.83612 0.30574 0.63355 0.0
C893 C 0.86248 0.36151 0.63176 0.0
C894 C 0.83726 0.36147 0.64322 0.0
C895 C 0.81135 0.33326 0.64948 0.0
C896 C 0.81085 0.30571 0.64486 0.0
C897 C 0.83811 0.39068 0.64955 0.0
C898 C 0.83045 0.39464 0.67416 0.0
C899 C 0.84657 0.41459 0.63178 0.0
C900 C 0.85302 0.41129 0.60508 0.0
C901 C 0.83119 0.38677 0.59045 0.0
C902 C 0.8375 0.38372 0.56533 0.0
C903 C 0.86546 0.40519 0.55458 0.0
C904 C 0.88715 0.42981 0.5689 0.0
C905 C 0.88096 0.43295 0.59403 0.0
H906 H 0.87031 0.40278 0.53513 0.0
H907 H 0.79948 0.43174 0.77614 0.0
H908 H 0.70937 0.5065 0.66042 0.0
H909 H 0.66223 0.45921 0.67091 0.0
H910 H 0.60894 0.49252 0.63285 0.0
H911 H 0.65624 0.53992 0.62172 0.0
H912 H 0.58813 0.46697 0.68387 0.0
H913 H 0.61471 0.44188 0.60378 0.0
H914 H 0.64949 0.43806 0.57317 0.0
H915 H 0.66207 0.37822 0.62318 0.0
H916 H 0.6277 0.38206 0.65427 0.0
H917 H 0.44675 0.32329 0.68358 0.0
H918 H 0.49169 0.37382 0.67556 0.0
H919 H 0.55124 0.33768 0.69365 0.0
H920 H 0.50629 0.28702 0.70082 0.0
H921 H 0.56812 0.36615 0.6514 0.0
H922 H 0.54376 0.39088 0.73192 0.0
H923 H 0.51128 0.39533 0.76448 0.0
H924 H 0.4968 0.45586 0.71683 0.0
H925 H 0.52887 0.45143 0.68382 0.0
C926 C 0.68771 0.50376 0.65405 0.0
C927 C 0.68661 0.52693 0.64006 0.0
C928 C 0.66079 0.47673 0.66013 0.0
C929 C 0.6322 0.47245 0.65263 0.0
C930 C 0.63086 0.49551 0.63881 0.0
C931 C 0.65789 0.52244 0.63235 0.0
C932 C 0.60384 0.4437 0.65926 0.0
C933 C 0.58337 0.4449 0.67653 0.0
C934 C 0.59832 0.415 0.65018 0.0
C935 C 0.61885 0.4125 0.63145 0.0
C936 C 0.6251 0.42813 0.60834 0.0
C937 C 0.6447 0.42592 0.59089 0.0
C938 C 0.65805 0.40797 0.59625 0.0
C939 C 0.65175 0.39214 0.61906 0.0
C940 C 0.63218 0.3943 0.6366 0.0
C941 C 0.46948 0.32645 0.68641 0.0
C942 C 0.47324 0.30144 0.6927 0.0
C943 C 0.49516 0.35529 0.68183 0.0
C944 C 0.52494 0.35964 0.68401 0.0
C945 C 0.52855 0.33489 0.69166 0.0
C946 C 0.50293 0.30604 0.69589 0.0
C947 C 0.55226 0.3891 0.67642 0.0
C948 C 0.57263 0.38811 0.65884 0.0
C949 C 0.55783 0.41792 0.68551 0.0
C950 C 0.53845 0.42055 0.70529 0.0
C951 C 0.53342 0.40492 0.72829 0.0
C952 C 0.51513 0.40748 0.74685 0.0
C953 C 0.50191 0.42579 0.7427 0.0
C954 C 0.50701 0.44164 0.72 0.0
C955 C 0.52527 0.43913 0.70137 0.0
H956 H 0.48777 0.42776 0.7571 0.0
H957 H 0.67321 0.40629 0.58271 0.0
H958 H 0.69594 0.19175 0.71425 0.0
H959 H 0.64426 0.1847 0.7092 0.0
H960 H 0.63377 0.13662 0.63935 0.0
H961 H 0.68533 0.14381 0.64438 0.0
H962 H 0.61936 0.18004 0.63314 0.0
H963 H 0.59343 0.09905 0.69237 0.0
H964 H 0.5975 0.07538 0.73171 0.0
H965 H 0.57737 0.13548 0.77468 0.0
H966 H 0.57359 0.15982 0.73559 0.0
H967 H 0.46126 0.13191 0.61461 0.0
H968 H 0.50905 0.13136 0.62192 0.0
H969 H 0.52531 0.18539 0.68913 0.0
H970 H 0.47771 0.18602 0.68211 0.0
H971 H 0.5357 0.13714 0.69645 0.0
H972 H 0.56377 0.21924 0.63715 0.0
H973 H 0.5595 0.24269 0.59774 0.0
H974 H 0.57549 0.17969 0.55482 0.0
H975 H 0.57943 0.15557 0.59401 0.0
C976 C 0.68229 0.17929 0.69807 0.0
C977 C 0.69459 0.16879 0.67946 0.0
C978 C 0.65283 0.17523 0.69519 0.0
C979 C 0.63515 0.16018 0.67384 0.0
C980 C 0.64708 0.14855 0.65583 0.0
C981 C 0.6765 0.15274 0.65866 0.0
C982 C 0.60507 0.15821 0.6694 0.0
C983 C 0.60089 0.17017 0.64683 0.0
C984 C 0.58123 0.14602 0.68749 0.0
C985 C 0.58353 0.13146 0.71105 0.0
C986 C 0.59013 0.10741 0.71021 0.0
C987 C 0.59234 0.09383 0.73247 0.0
C988 C 0.58778 0.10397 0.75569 0.0
C989 C 0.58094 0.12767 0.75669 0.0
C990 C 0.57873 0.14135 0.73448 0.0
C991 C 0.475 0.14369 0.63094 0.0
C992 C 0.4657 0.15912 0.6477 0.0
C993 C 0.50231 0.14338 0.63507 0.0
C994 C 0.52076 0.15846 0.65601 0.0
C995 C 0.51137 0.17357 0.67289 0.0
C996 C 0.48421 0.17404 0.66873 0.0
C997 C 0.5501 0.1589 0.66023 0.0
C998 C 0.55415 0.14678 0.68275 0.0
C999 C 0.57384 0.17088 0.64208 0.0
C1000 C 0.57155 0.18539 0.6185 0.0
C1001 C 0.56611 0.21022 0.6193 0.0
C1002 C 0.5638 0.22366 0.59701 0.0
C1003 C 0.56713 0.21262 0.57379 0.0
C1004 C 0.57286 0.18817 0.57282 0.0
C1005 C 0.57515 0.17462 0.59507 0.0
H1006 H 0.56535 0.22307 0.55654 0.0
H1007 H 0.58948 0.09343 0.7729 0.0
H1008 H 0.3769 0.16222 0.03747 0.0
H1009 H 0.35878 0.11637 0.011 0.0
H1010 H 0.32738 0.05904 0.07708 0.0
H1011 H 0.344 0.10461 0.10347 0.0
H1012 H 0.36611 0.04798 0.04034 0.0
H1013 H 0.27561 0.05803 0.04674 0.0
H1014 H 0.24755 0.08643 0.0436 0.0
H1015 H 0.26927 0.10203 0.96492 0.0
H1016 H 0.29792 0.07413 0.9677 0.0
H1017 H 0.28368 0.90318 0.97965 0.0
H1018 H 0.30017 0.94735 0.0076 0.0
H1019 H 0.30394 0.00294 0.94431 0.0
H1020 H 0.28618 0.95861 0.91662 0.0
H1021 H 0.27907 0.01495 0.98098 0.0
H1022 H 0.36994 0.00754 0.97271 0.0
H1023 H 0.40141 0.98255 0.97409 0.0
H1024 H 0.38356 0.96577 0.0532 0.0
H1025 H 0.35163 0.99031 0.05222 0.0
C1026 C 0.36585 0.1398 0.04627 0.0
C1027 C 0.36208 0.1369 0.07249 0.0
C1028 C 0.3557 0.11373 0.0312 0.0
C1029 C 0.34194 0.08447 0.0422 0.0
C1030 C 0.33821 0.08151 0.06836 0.0
C1031 C 0.34782 0.10751 0.08336 0.0
C1032 C 0.33121 0.0569 0.02633 0.0
C1033 C 0.34684 0.0404 0.02756 0.0
C1034 C 0.30667 0.04778 0.00925 0.0
C1035 C 0.28918 0.06428 0.0075 0.0
C1036 C 0.27465 0.06776 0.02882 0.0
C1037 C 0.25859 0.08372 0.0271 0.0
C1038 C 0.2567 0.09611 0.00409 0.0
C1039 C 0.27079 0.09247 0.98274 0.0
C1040 C 0.28693 0.07656 0.98438 0.0
C1041 C 0.28814 0.92487 0.97174 0.0
C1042 C 0.28371 0.92749 0.94597 0.0
C1043 C 0.29769 0.95015 0.98769 0.0
C1044 C 0.30373 0.97866 0.97803 0.0
C1045 C 0.29938 0.98122 0.95226 0.0
C1046 C 0.28931 0.95587 0.93642 0.0
C1047 C 0.31407 0.00577 0.99472 0.0
C1048 C 0.29836 0.0223 0.99371 0.0
C1049 C 0.33895 0.01525 0.01168 0.0
C1050 C 0.35812 0.00047 0.01233 0.0
C1051 C 0.37252 0.9983 0.99036 0.0
C1052 C 0.39048 0.98426 0.99108 0.0
C1053 C 0.39441 0.9725 0.0137 0.0
C1054 C 0.38046 0.97484 0.03568 0.0
C1055 C 0.36244 0.98883 0.03506 0.0
H1056 H 0.40833 0.96164 0.01422 0.0
H1057 H 0.24426 0.10846 0.00279 0.0
H1058 H 0.84668 0.22124 0.03941 0.0
H1059 H 0.89345 0.24718 0.01375 0.0
H1060 H 0.94767 0.25068 0.07785 0.0
H1061 H 0.90079 0.22362 0.10328 0.0
H1062 H 0.96933 0.3085 0.04977 0.0
H1063 H 0.93801 0.20178 0.03773 0.0
H1064 H 0.90081 0.14793 0.0273 0.0
H1065 H 0.88976 0.17504 0.95321 0.0
H1066 H 0.92653 0.22916 0.96336 0.0
H1067 H 0.108 0.36277 0.98031 0.0
H1068 H 0.06488 0.33487 0.00928 0.0
H1069 H 0.00236 0.30161 0.94626 0.0
H1070 H 0.04548 0.32798 0.91736 0.0
H1071 H 0.98619 0.25757 0.97651 0.0
H1072 H 0.01246 0.36287 0.98731 0.0
H1073 H 0.04632 0.41787 0.9965 0.0
H1074 H 0.06346 0.39564 0.07051 0.0
H1075 H 0.02999 0.34046 0.06165 0.0
C1076 C 0.86861 0.22747 0.04792 0.0
C1077 C 0.87036 0.22103 0.07334 0.0
C1078 C 0.8952 0.24227 0.03333 0.0
C1079 C 0.9239 0.25091 0.04402 0.0
C1080 C 0.9257 0.24441 0.0694 0.0
C1081 C 0.89903 0.22918 0.08389 0.0
C1082 C 0.95199 0.26665 0.02857 0.0
C1083 C 0.97339 0.29735 0.03395 0.0
C1084 C 0.95661 0.25215 0.00764 0.0
C1085 C 0.93483 0.21956 0.00139 0.0
C1086 C 0.92747 0.19629 0.01928 0.0
C1087 C 0.90648 0.16572 0.01341 0.0
C1088 C 0.89288 0.15808 0.98962 0.0
C1089 C 0.9003 0.181 0.97164 0.0
C1090 C 0.92123 0.21162 0.97743 0.0
C1091 C 0.085 0.34953 0.97274 0.0
C1092 C 0.08 0.34755 0.94665 0.0
C1093 C 0.06036 0.33371 0.98928 0.0
C1094 C 0.03021 0.31645 0.98002 0.0
C1095 C 0.02534 0.31464 0.95392 0.0
C1096 C 0.04999 0.32981 0.9374 0.0
C1097 C 0.00365 0.29992 0.9973 0.0
C1098 C 0.98244 0.26891 0.99235 0.0
C1099 C 0.9989 0.31438 0.01834 0.0
C1100 C 0.019 0.34753 0.02371 0.0
C1101 C 0.02364 0.36971 0.00548 0.0
C1102 C 0.04272 0.40091 0.01064 0.0
C1103 C 0.0571 0.41024 0.03404 0.0
C1104 C 0.05235 0.38838 0.05237 0.0
C1105 C 0.03331 0.35714 0.0473 0.0
H1106 H 0.07187 0.43441 0.038 0.0
H1107 H 0.87663 0.13439 0.98511 0.0
H1108 H 0.78164 0.68222 0.10694 0.0
H1109 H 0.75224 0.69887 0.08107 0.0
H1110 H 0.75399 0.64395 0.01939 0.0
H1111 H 0.78297 0.62692 0.04546 0.0
H1112 H 0.76298 0.72914 0.03697 0.0
H1113 H 0.68409 0.61053 0.99052 0.0
H1114 H 0.66257 0.55567 0.00063 0.0
H1115 H 0.66965 0.57631 0.07957 0.0
H1116 H 0.69071 0.63117 0.06994 0.0
H1117 H 0.69089 0.74402 0.92875 0.0
H1118 H 0.71872 0.73112 0.95936 0.0
H1119 H 0.63646 0.68238 0.00401 0.0
H1120 H 0.60816 0.69476 0.97313 0.0
H1121 H 0.66449 0.64974 -0.0003 0.0
H1122 H 0.69401 0.7522 0.02265 0.0
H1123 H 0.71306 0.80733 0.0159 0.0
H1124 H 0.79969 0.8198 0.99072 0.0
H1125 H 0.78101 0.76464 0.99695 0.0
C1126 C 0.77569 0.67379 0.08784 0.0
C1127 C 0.78398 0.65298 0.07819 0.0
C1128 C 0.75912 0.68342 0.07307 0.0
C1129 C 0.75058 0.67229 0.04847 0.0
C1130 C 0.75996 0.65242 0.03848 0.0
C1131 C 0.77657 0.64283 0.05326 0.0
C1132 C 0.73105 0.6807 0.03348 0.0
C1133 C 0.74145 0.71183 0.0288 0.0
C1134 C 0.70252 0.65809 0.02351 0.0
C1135 C 0.68927 0.62501 0.02948 0.0
C1136 C 0.68091 0.60333 0.01003 0.0
C1137 C 0.6688 0.57224 0.01568 0.0
C1138 C 0.66484 0.56252 0.04072 0.0
C1139 C 0.67283 0.58387 0.06018 0.0
C1140 C 0.68487 0.61497 0.05463 0.0
C1141 C 0.67866 0.73061 0.9451 0.0
C1142 C 0.64728 0.72042 0.94851 0.0
C1143 C 0.69468 0.72339 0.96265 0.0
C1144 C 0.67976 0.7061 0.98412 0.0
C1145 C 0.64842 0.69581 0.98759 0.0
C1146 C 0.63231 0.70296 0.96996 0.0
C1147 C 0.69684 0.69818 0.00252 0.0
C1148 C 0.68596 0.66711 0.0079 0.0
C1149 C 0.72454 0.72091 0.01365 0.0
C1150 C 0.736 0.7542 0.0101 0.0
C1151 C 0.71705 0.76665 0.01551 0.0
C1152 C 0.72779 0.79791 0.0118 0.0
C1153 C 0.75754 0.81704 0.00283 0.0
C1154 C 0.77664 0.80495 0.99764 0.0
C1155 C 0.766 0.77369 0.00129 0.0
H1156 H 0.76581 0.84124 -5e-05 0.0
H1157 H 0.65552 0.53845 0.04506 0.0
H1158 H 0.95299 0.28401 0.57401 0.0
H1159 H 0.99646 0.30075 0.54528 0.0
H1160 H 0.93648 0.28326 0.48189 0.0
H1161 H 0.89274 0.26722 0.51065 0.0
H1162 H 0.98325 0.25677 0.48515 0.0
H1163 H 0.97261 0.34771 0.48623 0.0
H1164 H 0.9668 0.38797 0.50772 0.0
H1165 H 0.05121 0.41701 0.54752 0.0
H1166 H 0.05724 0.37657 0.52654 0.0
H1167 H 0.10199 0.32144 0.39401 0.0
H1168 H 0.05499 0.30458 0.41836 0.0
H1169 H 0.10886 0.35947 0.48123 0.0
H1170 H 0.15569 0.37806 0.45609 0.0
H1171 H 0.06235 0.36671 0.47651 0.0
H1172 H 0.07479 0.27852 0.47837 0.0
H1173 H 0.08207 0.23715 0.461 0.0
H1174 H 0.99705 0.20124 0.42063 0.0
H1175 H 0.98946 0.24267 0.4375 0.0
C1176 C 0.94902 0.28375 0.55395 0.0
C1177 C 0.91953 0.27436 0.54451 0.0
C1178 C 0.97385 0.29334 0.53763 0.0
C1179 C 0.96952 0.2932 0.5116 0.0
C1180 C 0.9401 0.2835 0.50199 0.0
C1181 C 0.91527 0.2745 0.51839 0.0
C1182 C 0.99603 0.30321 0.49465 0.0
C1183 C 0.00034 0.2808 0.48275 0.0
C1184 C 0.01866 0.33446 0.49253 0.0
C1185 C 0.01519 0.35891 0.50502 0.0
C1186 C 0.98975 0.36247 0.49976 0.0
C1187 C 0.98646 0.38537 0.5118 0.0
C1188 C 0.00858 0.40498 0.52903 0.0
C1189 C 0.03407 0.40178 0.5342 0.0
C1190 C 0.03745 0.37889 0.52222 0.0
C1191 C 0.10365 0.33021 0.4129 0.0
C1192 C 0.13224 0.35151 0.42307 0.0
C1193 C 0.07686 0.32022 0.42695 0.0
C1194 C 0.07833 0.33053 0.45176 0.0
C1195 C 0.10709 0.35129 0.46211 0.0
C1196 C 0.13381 0.36172 0.44786 0.0
C1197 C 0.04991 0.32026 0.46674 0.0
C1198 C 0.04525 0.34263 0.4785 0.0
C1199 C 0.02724 0.28886 0.46914 0.0
C1200 C 0.03172 0.26389 0.45899 0.0
C1201 C 0.05776 0.26194 0.46563 0.0
C1202 C 0.06193 0.23846 0.4559 0.0
C1203 C 0.04008 0.21663 0.43966 0.0
C1204 C 0.01398 0.21819 0.43318 0.0
C1205 C 0.00972 0.24166 0.44283 0.0
H1206 H 0.04335 0.19846 0.43216 0.0
H1207 H 0.00599 0.4227 0.53834 0.0
H1208 H 0.66314 0.76732 0.39155 0.0
H1209 H 0.67902 0.73752 0.41763 0.0
H1210 H 0.64005 0.75606 0.48298 0.0
H1211 H 0.62305 0.78494 0.45675 0.0
H1212 H 0.70202 0.76443 0.4887 0.0
H1213 H 0.60005 0.69085 0.45851 0.0
H1214 H 0.56175 0.66508 0.42494 0.0
H1215 H 0.61851 0.63327 0.39149 0.0
H1216 H 0.65742 0.65933 0.42464 0.0
H1217 H 0.70086 0.66125 0.5769 0.0
H1218 H 0.6862 0.69018 0.54897 0.0
H1219 H 0.7009 0.64676 0.48457 0.0
H1220 H 0.71402 0.6164 0.51274 0.0
H1221 H 0.65349 0.65188 0.4761 0.0
H1222 H 0.75461 0.72219 0.50411 0.0
H1223 H 0.7966 0.74984 0.53456 0.0
H1224 H 0.74725 0.78994 0.56824 0.0
H1225 H 0.70475 0.76218 0.5382 0.0
C1226 C 0.65772 0.76476 0.41144 0.0
C1227 C 0.64141 0.77787 0.42214 0.0
C1228 C 0.66696 0.74795 0.42629 0.0
C1229 C 0.66042 0.74445 0.45211 0.0
C1230 C 0.64521 0.75854 0.46304 0.0
C1231 C 0.63558 0.775 0.44811 0.0
C1232 C 0.6688 0.72541 0.46761 0.0
C1233 C 0.69123 0.73977 0.48623 0.0
C1234 C 0.65548 0.6935 0.46354 0.0
C1235 C 0.63178 0.6773 0.44392 0.0
C1236 C 0.60447 0.67856 0.44389 0.0
C1237 C 0.58264 0.66388 0.42495 0.0
C1238 C 0.58773 0.64762 0.40605 0.0
C1239 C 0.61462 0.64591 0.40612 0.0
C1240 C 0.63656 0.66062 0.42499 0.0
C1241 C 0.70081 0.65777 0.55678 0.0
C1242 C 0.70876 0.63679 0.54692 0.0
C1243 C 0.69264 0.67447 0.54081 0.0
C1244 C 0.69327 0.67133 0.5146 0.0
C1245 C 0.70043 0.64973 0.50472 0.0
C1246 C 0.70792 0.63242 0.52078 0.0
C1247 C 0.68656 0.69074 0.49768 0.0
C1248 C 0.66449 0.67653 0.47866 0.0
C1249 C 0.70076 0.72298 0.50101 0.0
C1250 C 0.72637 0.73989 0.51902 0.0
C1251 C 0.75262 0.73675 0.51811 0.0
C1252 C 0.77653 0.75246 0.53528 0.0
C1253 C 0.77457 0.77159 0.55335 0.0
C1254 C 0.74873 0.7751 0.55424 0.0
C1255 C 0.72473 0.75941 0.53713 0.0
H1256 H 0.79309 0.78372 0.56664 0.0
H1257 H 0.57081 0.63629 0.3914 0.0
H1258 H 0.33207 0.04676 0.58215 0.0
H1259 H 0.30622 0.00337 0.55324 0.0
H1260 H 0.34929 0.06379 0.49019 0.0
H1261 H 0.37613 0.10747 0.51914 0.0
H1262 H 0.27467 0.01517 0.49444 0.0
H1263 H 0.3782 0.02948 0.49261 0.0
H1264 H 0.42526 0.0367 0.51327 0.0
H1265 H 0.37257 0.95213 0.55359 0.0
H1266 H 0.32511 0.94468 0.53344 0.0
H1267 H 0.22365 0.89979 0.40098 0.0
H1268 H 0.25256 0.94612 0.42632 0.0
H1269 H 0.25717 0.89137 0.48692 0.0
H1270 H 0.23018 0.84529 0.4607 0.0
H1271 H 0.30962 0.93954 0.48288 0.0
H1272 H 0.20744 0.92257 0.48681 0.0
H1273 H 0.1577 0.91352 0.4705 0.0
H1274 H 0.20309 0.99986 0.43158 0.0
H1275 H 0.25318 0.00924 0.44738 0.0
C1276 C 0.33612 0.05085 0.56213 0.0
C1277 C 0.35612 0.08046 0.55284 0.0
C1278 C 0.32137 0.02606 0.5457 0.0
C1279 C 0.32597 0.03053 0.51972 0.0
C1280 C 0.34562 0.06005 0.51026 0.0
C1281 C 0.36096 0.08485 0.52677 0.0
C1282 C 0.30986 0.00409 0.50265 0.0
C1283 C 0.28249 0.99885 0.4914 0.0
C1284 C 0.31959 0.98238 0.49977 0.0
C1285 C 0.3481 0.98672 0.51174 0.0
C1286 C 0.37662 0.0126 0.50608 0.0
C1287 C 0.40337 0.01669 0.51765 0.0
C1288 C 0.40189 0.99494 0.53479 0.0
C1289 C 0.37367 0.96899 0.54034 0.0
C1290 C 0.34685 0.96481 0.52884 0.0
C1291 C 0.23117 0.8978 0.41962 0.0
C1292 C 0.22514 0.86918 0.42885 0.0
C1293 C 0.2473 0.92419 0.43423 0.0
C1294 C 0.25677 0.92228 0.4587 0.0
C1295 C 0.25019 0.89349 0.46809 0.0
C1296 C 0.23459 0.86717 0.45325 0.0
C1297 C 0.27414 0.95035 0.47426 0.0
C1298 C 0.30172 0.95586 0.4855 0.0
C1299 C 0.26419 0.97199 0.47756 0.0
C1300 C 0.23409 0.96646 0.46808 0.0
C1301 C 0.20684 0.93953 0.47462 0.0
C1302 C 0.17858 0.93435 0.46549 0.0
C1303 C 0.17724 0.95606 0.44996 0.0
C1304 C 0.20417 0.98304 0.44358 0.0
C1305 C 0.23249 0.98831 0.45264 0.0
H1306 H 0.15534 0.95202 0.44292 0.0
H1307 H 0.42263 0.99814 0.54372 0.0
H1308 H 0.73788 0.1041 0.01086 0.0
H1309 H 0.72342 0.05983 0.98342 0.0
H1310 H 0.69548 0.00035 0.04841 0.0
H1311 H 0.71157 0.0447 0.07582 0.0
H1312 H 0.72328 0.98304 0.01939 0.0
H1313 H 0.64327 0.00682 0.00616 0.0
H1314 H 0.62065 0.03907 0.99569 0.0
H1315 H 0.66007 0.05476 0.92174 0.0
H1316 H 0.68326 0.02291 0.93188 0.0
H1317 H 0.62208 0.84216 0.95474 0.0
H1318 H 0.64125 0.88857 0.98074 0.0
H1319 H 0.69781 0.94345 0.91909 0.0
H1320 H 0.67984 0.89695 0.8935 0.0
H1321 H 0.6567 0.9632 0.94476 0.0
H1322 H 0.73414 0.93471 0.96029 0.0
H1323 H 0.75091 0.89805 0.97234 0.0
H1324 H 0.70903 0.88662 0.04491 0.0
H1325 H 0.69153 0.92284 0.03313 0.0
C1326 C 0.72856 0.08152 0.0192 0.0
C1327 C 0.72573 0.07775 0.0454 0.0
C1328 C 0.72017 0.05621 0.00353 0.0
C1329 C 0.70786 0.02656 0.01377 0.0
C1330 C 0.70499 0.0229 0.04 0.0
C1331 C 0.71407 0.04825 0.05566 0.0
C1332 C 0.69823 0.99932 0.99735 0.0
C1333 C 0.70845 0.97864 0.00326 0.0
C1334 C 0.67916 0.99357 0.97603 0.0
C1335 C 0.66528 0.01276 0.96988 0.0
C1336 C 0.64731 0.01735 0.98773 0.0
C1337 C 0.63435 0.03552 0.98185 0.0
C1338 C 0.63899 0.04903 0.95809 0.0
C1339 C 0.65654 0.04433 0.94014 0.0
C1340 C 0.66958 0.0262 0.94595 0.0
C1341 C 0.63877 0.86414 0.94689 0.0
C1342 C 0.64914 0.86623 0.92207 0.0
C1343 C 0.64959 0.89052 0.96165 0.0
C1344 C 0.67071 0.9193 0.95167 0.0
C1345 C 0.68127 0.9214 0.92695 0.0
C1346 C 0.6709 0.89496 0.91237 0.0
C1347 C 0.68163 0.94726 0.96705 0.0
C1348 C 0.67163 0.96791 0.96089 0.0
C1349 C 0.70023 0.95259 0.98846 0.0
C1350 C 0.71127 0.93127 0.99573 0.0
C1351 C 0.72828 0.92419 0.97874 0.0
C1352 C 0.73796 0.90352 0.98553 0.0
C1353 C 0.73097 0.88994 0.00935 0.0
C1354 C 0.71439 0.89712 0.02646 0.0
C1355 C 0.70461 0.91774 0.01974 0.0
H1356 H 0.73845 0.87392 0.01457 0.0
H1357 H 0.62893 0.06308 0.95357 0.0
H1358 H 0.96175 0.6734 0.08632 0.0
H1359 H 0.00586 0.70092 0.05855 0.0
H1360 H 0.94656 0.66399 0.99383 0.0
H1361 H 0.9025 0.63493 0.02175 0.0
H1362 H 0.99607 0.66423 0.98406 0.0
H1363 H 0.97561 0.74047 0.01613 0.0
H1364 H 0.96573 0.76994 0.04817 0.0
H1365 H 0.05455 0.80039 0.08058 0.0
H1366 H 0.06481 0.77075 0.04893 0.0
H1367 H 0.10522 0.77499 0.89959 0.0
H1368 H 0.06 0.74837 0.92675 0.0
H1369 H 0.11869 0.76237 0.99047 0.0
H1370 H 0.16405 0.78848 0.96314 0.0
H1371 H 0.06898 0.77479 -0.00077 0.0
H1372 H 0.08675 0.69576 0.9637 0.0
H1373 H 0.09508 0.67015 0.92744 0.0
H1374 H 0.00744 0.64857 0.89708 0.0
H1375 H 0.99879 0.67446 0.93297 0.0
C1376 C 0.95815 0.67111 0.06616 0.0
C1377 C 0.92873 0.65221 0.05614 0.0
C1378 C 0.98335 0.68702 0.05028 0.0
C1379 C 0.97951 0.68523 0.02403 0.0
C1380 C 0.95014 0.66589 0.01399 0.0
C1381 C 0.92498 0.64933 0.02993 0.0
C1382 C 0.00621 0.70345 0.0072 0.0
C1383 C 0.01171 0.68849 0.98725 0.0
C1384 C 0.02686 0.73515 0.01128 0.0
C1385 C 0.02086 0.75316 0.03029 0.0
C1386 C 0.99296 0.75328 0.03019 0.0
C1387 C 0.9873 0.77004 0.04827 0.0
C1388 C 0.00947 0.78697 0.06644 0.0
C1389 C 0.03739 0.78724 0.06652 0.0
C1390 C 0.04315 0.77049 0.0485 0.0
C1391 C 0.1084 0.7722 0.91937 0.0
C1392 C 0.13795 0.78318 0.92929 0.0
C1393 C 0.08264 0.75718 0.93484 0.0
C1394 C 0.08608 0.75316 0.9605 0.0
C1395 C 0.11564 0.76522 0.97067 0.0
C1396 C 0.14144 0.78005 0.95512 0.0
C1397 C 0.05874 0.73543 0.97654 0.0
C1398 C 0.05319 0.75053 0.99622 0.0
C1399 C 0.03765 0.70412 0.97181 0.0
C1400 C 0.04225 0.68728 0.9509 0.0
C1401 C 0.0693 0.68564 0.94925 0.0
C1402 C 0.07409 0.6711 0.92876 0.0
C1403 C 0.05187 0.6579 0.90992 0.0
C1404 C 0.02466 0.65888 0.91167 0.0
C1405 C 0.01979 0.67345 0.93209 0.0
H1406 H 0.05571 0.6469 0.89396 0.0
H1407 H 0.00505 0.79992 0.08042 0.0
H1408 H 0.2406 0.33709 0.88933 0.0
H1409 H 0.27029 0.32111 0.91526 0.0
H1410 H 0.24333 0.35084 0.9819 0.0
H1411 H 0.21531 0.36871 0.95574 0.0
H1412 H 0.30084 0.36834 0.98505 0.0
H1413 H 0.21107 0.27312 0.96437 0.0
H1414 H 0.17224 0.23343 0.93662 0.0
H1415 H 0.24219 0.22173 0.9007 0.0
H1416 H 0.28152 0.26168 0.92802 0.0
H1417 H 0.33063 0.28365 0.07631 0.0
H1418 H 0.30436 0.30036 0.04717 0.0
H1419 H 0.35515 0.29222 0.98518 0.0
H1420 H 0.38206 0.27584 0.01437 0.0
H1421 H 0.28807 0.26418 0.97833 0.0
H1422 H 0.37733 0.35947 0.00211 0.0
H1423 H 0.41372 0.39738 0.03233 0.0
H1424 H 0.34075 0.40648 0.06537 0.0
H1425 H 0.30382 0.36825 0.03557 0.0
C1426 C 0.24139 0.34055 0.90949 0.0
C1427 C 0.22601 0.35443 0.92056 0.0
C1428 C 0.25798 0.33103 0.92433 0.0
C1429 C 0.25877 0.33441 0.9506 0.0
C1430 C 0.24309 0.348 0.96168 0.0
C1431 C 0.2269 0.35797 0.94678 0.0
C1432 C 0.27642 0.32439 0.96651 0.0
C1433 C 0.29772 0.34543 0.98373 0.0
C1434 C 0.2729 0.2947 0.9645 0.0
C1435 C 0.24929 0.27063 0.94807 0.0
C1436 C 0.21821 0.26226 0.95042 0.0
C1437 C 0.1961 0.23968 0.93479 0.0
C1438 C 0.20475 0.22513 0.91686 0.0
C1439 C 0.23553 0.23306 0.91457 0.0
C1440 C 0.25773 0.25565 0.93014 0.0
C1441 C 0.33625 0.28539 0.05648 0.0
C1442 C 0.35847 0.27852 0.0476 0.0
C1443 C 0.32126 0.295 0.0399 0.0
C1444 C 0.32797 0.2976 0.01412 0.0
C1445 C 0.34977 0.29034 0.00507 0.0
C1446 C 0.36517 0.28115 0.02174 0.0
C1447 C 0.31208 0.30804 0.9968 0.0
C1448 C 0.29117 0.2871 0.97941 0.0
C1449 C 0.31555 0.33761 0.99893 0.0
C1450 C 0.33776 0.36078 0.01675 0.0
C1451 C 0.36899 0.36935 0.01596 0.0
C1452 C 0.38973 0.39094 0.03298 0.0
C1453 C 0.37954 0.40428 0.0508 0.0
C1454 C 0.3486 0.39611 0.05157 0.0
C1455 C 0.32777 0.3745 0.0346 0.0
H1456 H 0.39563 0.42099 0.06396 0.0
H1457 H 0.1876 0.20765 0.90478 0.0
H1458 H 0.03746 0.65992 0.4237 0.0
H1459 H 0.99382 0.64443 0.4519 0.0
H1460 H 0.03418 0.73732 0.4795 0.0
H1461 H 0.07842 0.75277 0.4519 0.0
H1462 H 0.01009 0.69954 0.51699 0.0
H1463 H 0.97507 0.70721 0.43537 0.0
H1464 H 0.96404 0.69762 0.39003 0.0
H1465 H 0.90505 0.60152 0.40461 0.0
H1466 H 0.91613 0.61043 0.45 0.0
H1467 H 0.87044 0.68335 0.5675 0.0
H1468 H 0.91523 0.69917 0.53998 0.0
H1469 H 0.88722 0.6041 0.52676 0.0
H1470 H 0.84282 0.58835 0.5547 0.0
H1471 H 0.90447 0.64357 0.48216 0.0
H1472 H 0.94086 0.63844 0.56509 0.0
H1473 H 0.94972 0.6511 0.61022 0.0
H1474 H 0.0052 0.74678 0.59222 0.0
H1475 H 0.99618 0.73473 0.54695 0.0
C1476 C 0.03715 0.67702 0.43589 0.0
C1477 C 0.06131 0.70761 0.43546 0.0
C1478 C 0.01208 0.66817 0.45189 0.0
C1479 C 0.01037 0.68983 0.46746 0.0
C1480 C 0.0349 0.72021 0.4676 0.0
C1481 C 0.06017 0.72902 0.45179 0.0
C1482 C 0.98291 0.68085 0.48343 0.0
C1483 C 0.98705 0.68765 0.50926 0.0
C1484 C 0.95273 0.66502 0.47347 0.0
C1485 C 0.94666 0.65946 0.44609 0.0
C1486 C 0.96002 0.68398 0.42889 0.0
C1487 C 0.95371 0.67867 0.40318 0.0
C1488 C 0.93385 0.64898 0.39446 0.0
C1489 C 0.92042 0.6245 0.4114 0.0
C1490 C 0.92672 0.62967 0.43712 0.0
C1491 C 0.87388 0.66598 0.55851 0.0
C1492 C 0.85338 0.63474 0.56288 0.0
C1493 C 0.89937 0.67495 0.54295 0.0
C1494 C 0.90445 0.65275 0.53144 0.0
C1495 C 0.88358 0.6215 0.53545 0.0
C1496 C 0.85836 0.61255 0.55133 0.0
C1497 C 0.93182 0.66213 0.5155 0.0
C1498 C 0.92759 0.65545 0.48974 0.0
C1499 C 0.96187 0.67847 0.52543 0.0
C1500 C 0.96757 0.68571 0.55263 0.0
C1501 C 0.95471 0.66221 0.57075 0.0
C1502 C 0.9598 0.66927 0.59636 0.0
C1503 C 0.97795 0.69974 0.60409 0.0
C1504 C 0.99111 0.7232 0.58621 0.0
C1505 C 0.98602 0.71626 0.56057 0.0
H1506 H 0.98188 0.70516 0.62392 0.0
H1507 H 0.9287 0.64496 0.3746 0.0
H1508 H 0.33299 0.23345 0.61055 0.0
H1509 H 0.31669 0.26301 0.58482 0.0
H1510 H 0.36124 0.25039 0.52017 0.0
H1511 H 0.3793 0.22256 0.54641 0.0
H1512 H 0.37246 0.30618 0.52045 0.0
H1513 H 0.28116 0.20877 0.52971 0.0
H1514 H 0.24048 0.16412 0.55232 0.0
H1515 H 0.21378 0.2226 0.59013 0.0
H1516 H 0.25461 0.26769 0.56799 0.0
H1517 H 0.28765 0.33157 0.42499 0.0
H1518 H 0.30505 0.30584 0.45415 0.0
H1519 H 0.28972 0.3511 0.5167 0.0
H1520 H 0.27292 0.37769 0.4875 0.0
H1521 H 0.26366 0.28099 0.51867 0.0
H1522 H 0.35643 0.37856 0.50629 0.0
H1523 H 0.39565 0.42056 0.48041 0.0
H1524 H 0.41748 0.35739 0.44448 0.0
H1525 H 0.37802 0.3149 0.46989 0.0
C1526 C 0.33966 0.23742 0.59093 0.0
C1527 C 0.35771 0.22612 0.58048 0.0
C1528 C 0.32998 0.25392 0.57614 0.0
C1529 C 0.33738 0.25863 0.55044 0.0
C1530 C 0.35525 0.2471 0.53995 0.0
C1531 C 0.36536 0.23103 0.55486 0.0
C1532 C 0.32683 0.27586 0.53454 0.0
C1533 C 0.3486 0.30039 0.51992 0.0
C1534 C 0.29576 0.26873 0.53407 0.0
C1535 C 0.27116 0.24165 0.54739 0.0
C1536 C 0.26677 0.21215 0.54299 0.0
C1537 C 0.24366 0.18675 0.5557 0.0
C1538 C 0.22461 0.19053 0.5727 0.0
C1539 C 0.22859 0.21971 0.57698 0.0
C1540 C 0.25169 0.24519 0.56435 0.0
C1541 C 0.28797 0.33608 0.44495 0.0
C1542 C 0.27898 0.35667 0.45401 0.0
C1543 C 0.29796 0.32141 0.46153 0.0
C1544 C 0.29866 0.32668 0.48747 0.0
C1545 C 0.2893 0.34684 0.49669 0.0
C1546 C 0.27987 0.36205 0.48002 0.0
C1547 C 0.30928 0.31098 0.50478 0.0
C1548 C 0.28752 0.28675 0.5195 0.0
C1549 C 0.34018 0.31797 0.50499 0.0
C1550 C 0.36406 0.3435 0.48982 0.0
C1551 C 0.36938 0.37357 0.4927 0.0
C1552 C 0.3917 0.39747 0.47816 0.0
C1553 C 0.40899 0.39163 0.46076 0.0
C1554 C 0.40405 0.36187 0.45794 0.0
C1555 C 0.38173 0.33788 0.47242 0.0
H1556 H 0.42626 0.41017 0.44952 0.0
H1557 H 0.20672 0.17084 0.58251 0.0
H1558 H 0.77537 0.0972 0.6024 0.0
H1559 H 0.74501 0.05116 0.577 0.0
H1560 H 0.74585 0.10767 0.51548 0.0
H1561 H 0.77431 0.15351 0.54164 0.0
H1562 H 0.69173 0.06145 0.51915 0.0
H1563 H 0.79191 0.07269 0.51746 0.0
H1564 H 0.83999 0.07868 0.53498 0.0
H1565 H 0.7893 0.99223 0.57314 0.0
H1566 H 0.74084 0.98592 0.55611 0.0
H1567 H 0.66326 0.95552 0.41875 0.0
H1568 H 0.68966 0.99808 0.44838 0.0
H1569 H 0.65063 0.93522 0.51061 0.0
H1570 H 0.62332 0.89241 0.48098 0.0
H1571 H 0.72154 0.98183 0.50829 0.0
H1572 H 0.62069 0.972 0.50662 0.0
H1573 H 0.57513 0.96759 0.4853 0.0
H1574 H 0.6314 0.05424 0.4488 0.0
H1575 H 0.6774 0.05892 0.46961 0.0
C1576 C 0.76858 0.09964 0.58359 0.0
C1577 C 0.77651 0.1287 0.57408 0.0
C1578 C 0.75167 0.0734 0.56894 0.0
C1579 C 0.74332 0.0759 0.54419 0.0
C1580 C 0.75187 0.1051 0.53453 0.0
C1581 C 0.76828 0.13127 0.54937 0.0
C1582 C 0.72517 0.0481 0.5285 0.0
C1583 C 0.69851 0.04425 0.51665 0.0
C1584 C 0.73361 0.02529 0.52547 0.0
C1585 C 0.76271 0.02899 0.53572 0.0
C1586 C 0.79099 0.05507 0.52974 0.0
C1587 C 0.81831 0.0585 0.53956 0.0
C1588 C 0.81769 0.03589 0.55522 0.0
C1589 C 0.78974 0.00975 0.56104 0.0
C1590 C 0.76234 0.00622 0.55129 0.0
C1591 C 0.66019 0.95075 0.43874 0.0
C1592 C 0.64121 0.92071 0.44761 0.0
C1593 C 0.67524 0.97505 0.45559 0.0
C1594 C 0.67199 0.96965 0.48156 0.0
C1595 C 0.6533 0.93969 0.49056 0.0
C1596 C 0.63766 0.91538 0.47368 0.0
C1597 C 0.68849 0.99554 0.49911 0.0
C1598 C 0.71482 0.99903 0.51114 0.0
C1599 C 0.68016 0.01834 0.50189 0.0
C1600 C 0.65252 0.01565 0.48947 0.0
C1601 C 0.6234 0.98996 0.49385 0.0
C1602 C 0.59748 0.98745 0.48191 0.0
C1603 C 0.60038 0.01058 0.46565 0.0
C1604 C 0.62919 0.03632 0.46137 0.0
C1605 C 0.65519 0.03893 0.47325 0.0
H1606 H 0.58029 0.0086 0.45642 0.0
H1607 H 0.83887 0.03859 0.5628 0.0
H1608 H 0.2483 0.31063 0.34783 0.0
H1609 H 0.2611 0.2804 0.3199 0.0
H1610 H 0.23546 0.31498 0.25569 0.0
H1611 H 0.2225 0.34573 0.28368 0.0
H1612 H 0.21828 0.24977 0.25328 0.0
H1613 H 0.30597 0.35021 0.26873 0.0
H1614 H 0.34211 0.39301 0.29569 0.0
H1615 H 0.36837 0.33356 0.33236 0.0
H1616 H 0.332 0.29026 0.30586 0.0
H1617 H 0.30939 0.24025 0.15657 0.0
H1618 H 0.28026 0.25098 0.18732 0.0
H1619 H 0.32404 0.22955 0.24749 0.0
H1620 H 0.35401 0.2193 0.21661 0.0
H1621 H 0.32952 0.28399 0.25429 0.0
H1622 H 0.24625 0.18465 0.23589 0.0
H1623 H 0.20986 0.14133 0.20953 0.0
H1624 H 0.17489 0.19681 0.17894 0.0
H1625 H 0.21139 0.24063 0.20485 0.0
C1626 C 0.24494 0.31163 0.3278 0.0
C1627 C 0.23486 0.33106 0.31795 0.0
C1628 C 0.25219 0.2942 0.31189 0.0
C1629 C 0.24957 0.2958 0.28579 0.0
C1630 C 0.23762 0.31352 0.27585 0.0
C1631 C 0.23035 0.33113 0.29184 0.0
C1632 C 0.26233 0.28145 0.26908 0.0
C1633 C 0.24261 0.25735 0.25321 0.0
C1634 C 0.29394 0.29085 0.26972 0.0
C1635 C 0.31603 0.31693 0.28551 0.0
C1636 C 0.31926 0.3462 0.28269 0.0
C1637 C 0.33981 0.37056 0.29786 0.0
C1638 C 0.35746 0.36598 0.31578 0.0
C1639 C 0.35465 0.33706 0.3185 0.0
C1640 C 0.33408 0.3126 0.3034 0.0
C1641 C 0.31253 0.23727 0.17632 0.0
C1642 C 0.33434 0.22926 0.18415 0.0
C1643 C 0.29559 0.24318 0.19391 0.0
C1644 C 0.29982 0.24093 0.21972 0.0
C1645 C 0.3204 0.23138 0.22763 0.0
C1646 C 0.33744 0.22545 0.20998 0.0
C1647 C 0.28556 0.25216 0.23817 0.0
C1648 C 0.30508 0.27595 0.25442 0.0
C1649 C 0.25378 0.24232 0.23786 0.0
C1650 C 0.23176 0.21603 0.2222 0.0
C1651 C 0.23099 0.18771 0.22339 0.0
C1652 C 0.21029 0.16304 0.20856 0.0
C1653 C 0.19011 0.16633 0.19253 0.0
C1654 C 0.19055 0.19429 0.19135 0.0
C1655 C 0.21121 0.21905 0.20614 0.0
H1656 H 0.17411 0.1472 0.18107 0.0
H1657 H 0.37336 0.38487 0.3275 0.0
H1658 H 0.75143 0.06602 0.15286 0.0
H1659 H 0.73924 0.02465 0.18237 0.0
H1660 H 0.7744 0.0895 0.24354 0.0
H1661 H 0.78651 0.13166 0.21395 0.0
H1662 H 0.78769 0.03473 0.2424 0.0
H1663 H 0.70782 0.061 0.24272 0.0
H1664 H 0.67195 0.07455 0.22282 0.0
H1665 H 0.62875 0.98868 0.18315 0.0
H1666 H 0.6648 0.97486 0.20253 0.0
H1667 H 0.69839 0.93085 0.34106 0.0
H1668 H 0.7282 0.97305 0.31204 0.0
H1669 H 0.67829 0.9149 0.2494 0.0
H1670 H 0.64825 0.87236 0.27841 0.0
H1671 H 0.67498 0.96784 0.25206 0.0
H1672 H 0.75296 0.94 0.25483 0.0
H1673 H 0.78931 0.92711 0.27479 0.0
H1674 H 0.83612 0.01594 0.3097 0.0
H1675 H 0.79975 0.02922 0.29024 0.0
C1676 C 0.75705 0.07179 0.17251 0.0
C1677 C 0.76952 0.10219 0.1811 0.0
C1678 C 0.75018 0.04803 0.18931 0.0
C1679 C 0.75578 0.0541 0.21503 0.0
C1680 C 0.77005 0.08453 0.22365 0.0
C1681 C 0.77679 0.1085 0.20677 0.0
C1682 C 0.74322 0.02805 0.23274 0.0
C1683 C 0.76311 0.02031 0.24495 0.0
C1684 C 0.71114 0.00901 0.23541 0.0
C1685 C 0.68924 0.01707 0.22384 0.0
C1686 C 0.69088 0.04515 0.22955 0.0
C1687 C 0.67047 0.05285 0.21841 0.0
C1688 C 0.64813 0.03254 0.20166 0.0
C1689 C 0.64611 0.00443 0.19609 0.0
C1690 C 0.66651 0.99663 0.20716 0.0
C1691 C 0.6942 0.9268 0.32105 0.0
C1692 C 0.67075 0.8984 0.312 0.0
C1693 C 0.7114 0.95092 0.3045 0.0
C1694 C 0.70539 0.94708 0.27861 0.0
C1695 C 0.68324 0.91824 0.26936 0.0
C1696 C 0.66619 0.89395 0.28592 0.0
C1697 C 0.71937 0.97413 0.26179 0.0
C1698 C 0.69961 0.98214 0.24967 0.0
C1699 C 0.75154 0.99342 0.25948 0.0
C1700 C 0.77342 0.98549 0.27126 0.0
C1701 C 0.77081 0.95668 0.26696 0.0
C1702 C 0.79147 0.94933 0.27814 0.0
C1703 C 0.81496 0.97066 0.29356 0.0
C1704 C 0.81788 0.99942 0.29778 0.0
C1705 C 0.79727 0.00689 0.28665 0.0
H1706 H 0.83094 0.96493 0.30219 0.0
H1707 H 0.63234 0.03855 0.19306 0.0
H1708 H 0.86921 0.66189 0.22293 0.0
H1709 H 0.90923 0.69207 0.25384 0.0
H1710 H 0.97676 0.72824 0.19448 0.0
H1711 H 0.93714 0.69883 0.16363 0.0
H1712 H 0.95629 0.68341 0.26351 0.0
H1713 H 0.03685 0.7966 0.21001 0.0
H1714 H 0.03264 0.83246 0.18086 0.0
H1715 H 0.94246 0.80465 0.20907 0.0
H1716 H 0.94627 0.76894 0.23863 0.0
H1717 H 0.12671 0.78587 0.28854 0.0
H1718 H 0.0825 0.77473 0.26193 0.0
H1719 H 0.02496 0.75111 0.32779 0.0
H1720 H 0.06861 0.76178 0.35438 0.0
H1721 H 0.03772 0.79297 0.25882 0.0
H1722 H 0.96031 0.68329 0.31564 0.0
H1723 H 0.96546 0.6469 0.34359 0.0
H1724 H 0.04941 0.66703 0.30673 0.0
H1725 H 0.04447 0.703 0.27824 0.0
C1726 C 0.89245 0.67683 0.21642 0.0
C1727 C 0.90002 0.67772 0.19085 0.0
C1728 C 0.91529 0.694 0.2341 0.0
C1729 C 0.94595 0.71253 0.22646 0.0
C1730 C 0.95322 0.71455 0.20081 0.0
C1731 C 0.9305 0.69744 0.18318 0.0
C1732 C 0.97096 0.72685 0.24527 0.0
C1733 C 0.97362 0.70756 0.26289 0.0
C1734 C 0.99413 0.75815 0.24392 0.0
C1735 C 0.99179 0.77991 0.22643 0.0
C1736 C 0.01619 0.79825 0.2101 0.0
C1737 C 0.01385 0.81853 0.19348 0.0
C1738 C 0.98727 0.82077 0.19307 0.0
C1739 C 0.963 0.80281 0.20934 0.0
C1740 C 0.96521 0.7825 0.22601 0.0
C1741 C 0.10478 0.77886 0.29736 0.0
C1742 C 0.10103 0.77413 0.3235 0.0
C1743 C 0.0796 0.77264 0.28216 0.0
C1744 C 0.05045 0.76166 0.29292 0.0
C1745 C 0.04721 0.75917 0.31913 0.0
C1746 C 0.0722 0.76519 0.33427 0.0
C1747 C 0.02287 0.74945 0.27679 0.0
C1748 C 0.01992 0.76902 0.25967 0.0
C1749 C 0.99944 0.71833 0.27841 0.0
C1750 C 0.0022 0.69612 0.29504 0.0
C1751 C 0.97979 0.67984 0.31345 0.0
C1752 C 0.98268 0.65932 0.32939 0.0
C1753 C 0.00782 0.65481 0.32705 0.0
C1754 C 0.03002 0.67065 0.30862 0.0
C1755 C 0.02719 0.6911 0.29257 0.0
H1756 H 0.01004 0.63897 0.33946 0.0
H1757 H 0.98551 0.83647 0.18018 0.0
H1758 H 0.79403 0.6617 0.70873 0.0
H1759 H 0.78614 0.6939 0.73899 0.0
H1760 H 0.73851 0.71546 0.68224 0.0
H1761 H 0.74715 0.68454 0.65191 0.0
H1762 H 0.76937 0.76351 0.71098 0.0
H1763 H 0.70007 0.65477 0.72431 0.0
H1764 H 0.68701 0.60142 0.73304 0.0
H1765 H 0.73561 0.62972 0.80322 0.0
H1766 H 0.74926 0.68333 0.79473 0.0
H1767 H 0.65353 0.77649 0.7795 0.0
H1768 H 0.68572 0.76583 0.75136 0.0
H1769 H 0.73247 0.75579 0.81552 0.0
H1770 H 0.70039 0.76601 0.84361 0.0
H1771 H 0.70942 0.70645 0.78605 0.0
H1772 H 0.77025 0.8151 0.7745 0.0
H1773 H 0.77991 0.86712 0.76485 0.0
H1774 H 0.7437 0.83806 0.69044 0.0
H1775 H 0.73342 0.78572 0.69976 0.0
C1776 C 0.78242 0.6738 0.7026 0.0
C1777 C 0.77076 0.67007 0.67802 0.0
C1778 C 0.77784 0.69211 0.71992 0.0
C1779 C 0.76116 0.70658 0.71301 0.0
C1780 C 0.75136 0.70449 0.68806 0.0
C1781 C 0.75616 0.68653 0.67075 0.0
C1782 C 0.75106 0.72133 0.732 0.0
C1783 C 0.75625 0.75107 0.72741 0.0
C1784 C 0.73426 0.70526 0.75361 0.0
C1785 C 0.726 0.67306 0.75875 0.0
C1786 C 0.70814 0.64962 0.74152 0.0
C1787 C 0.70061 0.61935 0.74643 0.0
C1788 C 0.71056 0.6122 0.76863 0.0
C1789 C 0.72798 0.6353 0.786 0.0
C1790 C 0.73562 0.66563 0.78116 0.0
C1791 C 0.67113 0.77268 0.78755 0.0
C1792 C 0.6741 0.77165 0.81376 0.0
C1793 C 0.68957 0.76669 0.77146 0.0
C1794 C 0.71145 0.75995 0.78138 0.0
C1795 C 0.71564 0.76076 0.80748 0.0
C1796 C 0.6972 0.76657 0.8235 0.0
C1797 C 0.72741 0.74854 0.76494 0.0
C1798 C 0.72312 0.71926 0.76995 0.0
C1799 C 0.74461 0.76491 0.74361 0.0
C1800 C 0.75085 0.7964 0.73791 0.0
C1801 C 0.76412 0.81972 0.75615 0.0
C1802 C 0.76975 0.84929 0.75072 0.0
C1803 C 0.76237 0.85588 0.72706 0.0
C1804 C 0.7494 0.83292 0.70876 0.0
C1805 C 0.7437 0.80331 0.7141 0.0
H1806 H 0.76674 0.87878 0.7229 0.0
H1807 H 0.7047 0.58875 0.7724 0.0
H1808 H 0.23358 0.93044 0.84215 0.0
H1809 H 0.24181 0.97023 0.81216 0.0
H1810 H 0.21664 0.90526 0.75127 0.0
H1811 H 0.20889 0.86506 0.78141 0.0
H1812 H 0.2704 0.95417 0.74276 0.0
H1813 H 0.17277 0.93864 0.76604 0.0
H1814 H 0.13078 0.93136 0.79429 0.0
H1815 H 0.18804 0.02102 0.82567 0.0
H1816 H 0.23057 0.0287 0.79787 0.0
H1817 H 0.29929 0.06786 0.65464 0.0
H1818 H 0.26665 0.02381 0.68093 0.0
H1819 H 0.30447 0.07915 0.74747 0.0
H1820 H 0.33761 0.12379 0.72115 0.0
H1821 H 0.23818 0.03245 0.74962 0.0
H1822 H 0.33741 0.04325 0.73029 0.0
H1823 H 0.37886 0.0504 0.70142 0.0
H1824 H 0.31633 0.96794 0.66203 0.0
H1825 H 0.27436 0.96059 0.69046 0.0
C1826 C 0.22923 0.92435 0.82242 0.0
C1827 C 0.22096 0.89463 0.81412 0.0
C1828 C 0.23367 0.94715 0.80529 0.0
C1829 C 0.22969 0.94075 0.77945 0.0
C1830 C 0.21978 0.91067 0.77116 0.0
C1831 C 0.21528 0.88771 0.78838 0.0
C1832 C 0.23986 0.9664 0.76126 0.0
C1833 C 0.26271 0.97081 0.74388 0.0
C1834 C 0.23047 0.98862 0.76313 0.0
C1835 C 0.20497 0.98415 0.77995 0.0
C1836 C 0.17652 0.95672 0.7791 0.0
C1837 C 0.15259 0.95254 0.79501 0.0
C1838 C 0.15676 0.97569 0.81179 0.0
C1839 C 0.18485 0.0031 0.81266 0.0
C1840 C 0.20887 0.0074 0.7968 0.0
C1841 C 0.30037 0.07095 0.67486 0.0
C1842 C 0.32151 0.09921 0.68585 0.0
C1843 C 0.28155 0.04573 0.68982 0.0
C1844 C 0.28351 0.04819 0.71607 0.0
C1845 C 0.30271 0.0769 0.72719 0.0
C1846 C 0.32166 0.10232 0.71215 0.0
C1847 C 0.26869 0.02003 0.73157 0.0
C1848 C 0.24526 0.01537 0.74837 0.0
C1849 C 0.27739 0.99741 0.72919 0.0
C1850 C 0.30268 0.00157 0.7123 0.0
C1851 C 0.33244 0.02679 0.71534 0.0
C1852 C 0.35604 0.03086 0.69908 0.0
C1853 C 0.35021 0.00969 0.67985 0.0
C1854 C 0.32079 0.98435 0.6769 0.0
C1855 C 0.2971 0.98021 0.69309 0.0
H1856 H 0.36851 0.01288 0.66728 0.0
H1857 H 0.1382 0.97241 0.82409 0.0
H1858 H 0.07478 0.29553 0.83665 0.0
H1859 H 0.0334 0.26715 0.80672 0.0
H1860 H 0.0901 0.32607 0.74679 0.0
H1861 H 0.13179 0.35488 0.77683 0.0
H1862 H 0.03623 0.32524 0.75043 0.0
H1863 H 0.06785 0.2506 0.74661 0.0
H1864 H 0.08309 0.21428 0.76284 0.0
H1865 H 0.99501 0.16134 0.7981 0.0
H1866 H 0.97936 0.19762 0.78239 0.0
H1867 H 0.93585 0.25043 0.6511 0.0
H1868 H 0.97846 0.26305 0.67931 0.0
H1869 H 0.91586 0.22487 0.74177 0.0
H1870 H 0.87239 0.21234 0.7135 0.0
H1871 H 0.97201 0.21295 0.73649 0.0
H1872 H 0.9429 0.29113 0.74277 0.0
H1873 H 0.92804 0.32714 0.72509 0.0
H1874 H 0.01296 0.37328 0.68421 0.0
H1875 H 0.0281 0.33716 0.70134 0.0
C1876 C 0.07874 0.30205 0.81699 0.0
C1877 C 0.10642 0.32767 0.80912 0.0
C1878 C 0.05509 0.28565 0.79987 0.0
C1879 C 0.05864 0.29452 0.77454 0.0
C1880 C 0.08694 0.31889 0.7663 0.0
C1881 C 0.11077 0.33523 0.78343 0.0
C1882 C 0.03162 0.28095 0.75763 0.0
C1883 C 0.02254 0.30072 0.7471 0.0
C1884 C 0.01319 0.24886 0.75392 0.0
C1885 C 0.02253 0.22703 0.76351 0.0
C1886 C 0.05182 0.23139 0.75803 0.0
C1887 C 0.06051 0.21076 0.76709 0.0
C1888 C 0.04006 0.18556 0.78155 0.0
C1889 C 0.01084 0.1809 0.78693 0.0
C1890 C 0.00203 0.20147 0.77792 0.0
C1891 C 0.93082 0.24426 0.67075 0.0
C1892 C 0.90061 0.23072 0.6801 0.0
C1893 C 0.95532 0.25141 0.68681 0.0
C1894 C 0.95022 0.245 0.71252 0.0
C1895 C 0.92008 0.22986 0.72187 0.0
C1896 C 0.89536 0.22286 0.70575 0.0
C1897 C 0.97691 0.25732 0.72958 0.0
C1898 C 0.98585 0.23741 0.74001 0.0
C1899 C 0.99535 0.2893 0.73326 0.0
C1900 C 0.98646 0.31123 0.7231 0.0
C1901 C 0.95826 0.30875 0.7298 0.0
C1902 C 0.94982 0.32923 0.71993 0.0
C1903 C 0.9695 0.35243 0.70347 0.0
C1904 C 0.99772 0.35526 0.69692 0.0
C1905 C 0.00625 0.33481 0.70672 0.0
H1906 H 0.96293 0.36827 0.69585 0.0
H1907 H 0.04683 0.16961 0.78854 0.0
loop_
_geom_bond_atom_site_label_1
_geom_bond_atom_site_label_2
_geom_bond_distance
_geom_bond_site_symmetry_2
_ccdc_geom_bond_type
Co0 O3 1.970 . S
Co0 N17 1.989 . S
Co0 O25 1.967 . S
Co0 O32 1.920 . S
Co1 O4 1.966 . S
Co1 N10 2.022 . S
Co1 N18 1.993 . S
Co1 O26 1.941 . S
C2 O3 1.258 . S
C2 O4 1.263 . S
O3 Co0 1.970 . S
O3 C2 1.258 . S
O4 Co1 1.966 . S
O4 C2 1.263 . S
C5 O6 1.235 . S
C5 O32 1.289 . S
O6 C5 1.235 . S
C7 C9 1.400 . S
C7 N10 1.351 . S
C7 C12 1.501 . S
C8 C9 1.387 . S
C8 N11 1.341 . S
C9 C7 1.400 . S
C9 C8 1.387 . S
N10 Co1 2.022 . S
N10 C7 1.351 . S
N10 N11 1.365 . S
N11 C8 1.341 . S
N11 N10 1.365 . S
N11 H31 0.862 . S
C12 C7 1.501 . S
C12 H13 0.961 . S
C12 H14 0.961 . S
C12 H15 0.960 . S
H13 C12 0.961 . S
H14 C12 0.961 . S
H15 C12 0.960 . S
C16 N17 1.342 . S
C16 C20 1.401 . S
C16 C21 1.499 . S
N17 Co0 1.989 . S
N17 C16 1.342 . S
N17 N18 1.388 . S
N18 Co1 1.993 . S
N18 N17 1.388 . S
N18 C19 1.346 . S
C19 N18 1.346 . S
C19 C20 1.396 . S
C19 C29 1.510 . S
C20 C16 1.401 . S
C20 C19 1.396 . S
C21 C16 1.499 . S
C21 H22 0.959 . S
C21 H23 0.960 . S
C21 H24 0.961 . S
H22 C21 0.959 . S
H23 C21 0.960 . S
H24 C21 0.961 . S
O25 Co0 1.967 . S
O25 C33 1.258 . S
O26 Co1 1.941 . S
O26 C33 1.266 . S
H27 C29 0.959 . S
H28 C29 0.961 . S
C29 C19 1.510 . S
C29 H27 0.959 . S
C29 H28 0.961 . S
C29 H30 0.960 . S
H30 C29 0.960 . S
H31 N11 0.862 . S
O32 Co0 1.920 . S
O32 C5 1.289 . S
C33 O25 1.258 . S
C33 O26 1.266 . S
Co34 O37 1.970 . S
Co34 N51 1.989 . S
Co34 O59 1.967 . S
Co34 O66 1.920 . S
Co35 O38 1.966 . S
Co35 N44 2.022 . S
Co35 N52 1.993 . S
Co35 O60 1.941 . S
C36 O37 1.258 . S
C36 O38 1.263 . S
O37 Co34 1.970 . S
O37 C36 1.258 . S
O38 Co35 1.966 . S
O38 C36 1.263 . S
C39 O40 1.235 . S
C39 O66 1.289 . S
O40 C39 1.235 . S
C41 C43 1.400 . S
C41 N44 1.351 . S
C41 C46 1.501 . S
C42 C43 1.387 . S
C42 N45 1.341 . S
C43 C41 1.400 . S
C43 C42 1.387 . S
N44 Co35 2.022 . S
N44 C41 1.351 . S
N44 N45 1.365 . S
N45 C42 1.341 . S
N45 N44 1.365 . S
N45 H65 0.862 . S
C46 C41 1.501 . S
C46 H47 0.961 . S
C46 H48 0.961 . S
C46 H49 0.960 . S
H47 C46 0.961 . S
H48 C46 0.961 . S
H49 C46 0.960 . S
C50 N51 1.342 . S
C50 C54 1.401 . S
C50 C55 1.499 . S
N51 Co34 1.989 . S
N51 C50 1.342 . S
N51 N52 1.388 . S
N52 Co35 1.993 . S
N52 N51 1.388 . S
N52 C53 1.346 . S
C53 N52 1.346 . S
C53 C54 1.396 . S
C53 C63 1.510 . S
C54 C50 1.401 . S
C54 C53 1.396 . S
C55 C50 1.499 . S
C55 H56 0.959 . S
C55 H57 0.960 . S
C55 H58 0.961 . S
H56 C55 0.959 . S
H57 C55 0.960 . S
H58 C55 0.961 . S
O59 Co34 1.967 . S
O59 C67 1.258 . S
O60 Co35 1.941 . S
O60 C67 1.266 . S
H61 C63 0.959 . S
H62 C63 0.961 . S
C63 C53 1.510 . S
C63 H61 0.959 . S
C63 H62 0.961 . S
C63 H64 0.960 . S
H64 C63 0.960 . S
H65 N45 0.862 . S
O66 Co34 1.920 . S
O66 C39 1.289 . S
C67 O59 1.258 . S
C67 O60 1.266 . S
Co68 O71 1.970 . S
Co68 N85 1.989 . S
Co68 O93 1.967 . S
Co68 O100 1.920 . S
Co69 O72 1.966 . S
Co69 N78 2.022 . S
Co69 N86 1.993 . S
Co69 O94 1.941 . S
C70 O71 1.258 . S
C70 O72 1.263 . S
O71 Co68 1.970 . S
O71 C70 1.258 . S
O72 Co69 1.966 . S
O72 C70 1.263 . S
C73 O74 1.235 . S
C73 O100 1.289 . S
O74 C73 1.235 . S
C75 C77 1.400 . S
C75 N78 1.351 . S
C75 C80 1.501 . S
C76 C77 1.387 . S
C76 N79 1.341 . S
C77 C75 1.400 . S
C77 C76 1.387 . S
N78 Co69 2.022 . S
N78 C75 1.351 . S
N78 N79 1.365 . S
N79 C76 1.341 . S
N79 N78 1.365 . S
N79 H99 0.862 . S
C80 C75 1.501 . S
C80 H81 0.961 . S
C80 H82 0.961 . S
C80 H83 0.960 . S
H81 C80 0.961 . S
H82 C80 0.961 . S
H83 C80 0.960 . S
C84 N85 1.342 . S
C84 C88 1.401 . S
C84 C89 1.499 . S
N85 Co68 1.989 . S
N85 C84 1.342 . S
N85 N86 1.388 . S
N86 Co69 1.993 . S
N86 N85 1.388 . S
N86 C87 1.346 . S
C87 N86 1.346 . S
C87 C88 1.396 . S
C87 C97 1.510 . S
C88 C84 1.401 . S
C88 C87 1.396 . S
C89 C84 1.499 . S
C89 H90 0.959 . S
C89 H91 0.960 . S
C89 H92 0.961 . S
H90 C89 0.959 . S
H91 C89 0.960 . S
H92 C89 0.961 . S
O93 Co68 1.967 . S
O93 C101 1.258 . S
O94 Co69 1.941 . S
O94 C101 1.266 . S
H95 C97 0.959 . S
H96 C97 0.961 . S
C97 C87 1.510 . S
C97 H95 0.959 . S
C97 H96 0.961 . S
C97 H98 0.960 . S
H98 C97 0.960 . S
H99 N79 0.862 . S
O100 Co68 1.920 . S
O100 C73 1.289 . S
C101 O93 1.258 . S
C101 O94 1.266 . S
Co102 O105 1.970 . S
Co102 N119 1.989 . S
Co102 O127 1.967 . S
Co102 O134 1.920 . S
Co103 O106 1.966 . S
Co103 N112 2.022 . S
Co103 N120 1.993 . S
Co103 O128 1.941 . S
C104 O105 1.258 . S
C104 O106 1.263 . S
O105 Co102 1.970 . S
O105 C104 1.258 . S
O106 Co103 1.966 . S
O106 C104 1.263 . S
C107 O108 1.235 . S
C107 O134 1.289 . S
O108 C107 1.235 . S
C109 C111 1.400 . S
C109 N112 1.351 . S
C109 C114 1.501 . S
C110 C111 1.387 . S
C110 N113 1.341 . S
C111 C109 1.400 . S
C111 C110 1.387 . S
N112 Co103 2.022 . S
N112 C109 1.351 . S
N112 N113 1.365 . S
N113 C110 1.341 . S
N113 N112 1.365 . S
N113 H133 0.862 . S
C114 C109 1.501 . S
C114 H115 0.961 . S
C114 H116 0.961 . S
C114 H117 0.960 . S
H115 C114 0.961 . S
H116 C114 0.961 . S
H117 C114 0.960 . S
C118 N119 1.342 . S
C118 C122 1.401 . S
C118 C123 1.499 . S
N119 Co102 1.989 . S
N119 C118 1.342 . S
N119 N120 1.388 . S
N120 Co103 1.993 . S
N120 N119 1.388 . S
N120 C121 1.346 . S
C121 N120 1.346 . S
C121 C122 1.396 . S
C121 C131 1.510 . S
C122 C118 1.401 . S
C122 C121 1.396 . S
C123 C118 1.499 . S
C123 H124 0.959 . S
C123 H125 0.960 . S
C123 H126 0.961 . S
H124 C123 0.959 . S
H125 C123 0.960 . S
H126 C123 0.961 . S
O127 Co102 1.967 . S
O127 C135 1.258 . S
O128 Co103 1.941 . S
O128 C135 1.266 . S
H129 C131 0.959 . S
H130 C131 0.961 . S
C131 C121 1.510 . S
C131 H129 0.959 . S
C131 H130 0.961 . S
C131 H132 0.960 . S
H132 C131 0.960 . S
H133 N113 0.862 . S
O134 Co102 1.920 . S
O134 C107 1.289 . S
C135 O127 1.258 . S
C135 O128 1.266 . S
Co136 O139 1.970 . S
Co136 N153 1.989 . S
Co136 O161 1.967 . S
Co136 O168 1.920 . S
Co137 O140 1.966 . S
Co137 N146 2.022 . S
Co137 N154 1.993 . S
Co137 O162 1.941 . S
C138 O139 1.258 . S
C138 O140 1.263 . S
O139 Co136 1.970 . S
O139 C138 1.258 . S
O140 Co137 1.966 . S
O140 C138 1.263 . S
C141 O142 1.235 . S
C141 O168 1.289 . S
O142 C141 1.235 . S
C143 C145 1.400 . S
C143 N146 1.351 . S
C143 C148 1.501 . S
C144 C145 1.387 . S
C144 N147 1.341 . S
C145 C143 1.400 . S
C145 C144 1.387 . S
N146 Co137 2.022 . S
N146 C143 1.351 . S
N146 N147 1.365 . S
N147 C144 1.341 . S
N147 N146 1.365 . S
N147 H167 0.862 . S
C148 C143 1.501 . S
C148 H149 0.961 . S
C148 H150 0.961 . S
C148 H151 0.960 . S
H149 C148 0.961 . S
H150 C148 0.961 . S
H151 C148 0.960 . S
C152 N153 1.342 . S
C152 C156 1.401 . S
C152 C157 1.499 . S
N153 Co136 1.989 . S
N153 C152 1.342 . S
N153 N154 1.388 . S
N154 Co137 1.993 . S
N154 N153 1.388 . S
N154 C155 1.346 . S
C155 N154 1.346 . S
C155 C156 1.396 . S
C155 C165 1.510 . S
C156 C152 1.401 . S
C156 C155 1.396 . S
C157 C152 1.499 . S
C157 H158 0.959 . S
C157 H159 0.960 . S
C157 H160 0.961 . S
H158 C157 0.959 . S
H159 C157 0.960 . S
H160 C157 0.961 . S
O161 Co136 1.967 . S
O161 C169 1.258 . S
O162 Co137 1.941 . S
O162 C169 1.266 . S
H163 C165 0.959 . S
H164 C165 0.961 . S
C165 C155 1.510 . S
C165 H163 0.959 . S
C165 H164 0.961 . S
C165 H166 0.960 . S
H166 C165 0.960 . S
H167 N147 0.862 . S
O168 Co136 1.920 . S
O168 C141 1.289 . S
C169 O161 1.258 . S
C169 O162 1.266 . S
Co170 O173 1.970 . S
Co170 N187 1.989 . S
Co170 O195 1.967 . S
Co170 O202 1.920 . S
Co171 O174 1.966 . S
Co171 N180 2.022 . S
Co171 N188 1.993 . S
Co171 O196 1.941 . S
C172 O173 1.258 . S
C172 O174 1.263 . S
O173 Co170 1.970 . S
O173 C172 1.258 . S
O174 Co171 1.966 . S
O174 C172 1.263 . S
C175 O176 1.235 . S
C175 O202 1.289 . S
O176 C175 1.235 . S
C177 C179 1.400 . S
C177 N180 1.351 . S
C177 C182 1.501 . S
C178 C179 1.387 . S
C178 N181 1.341 . S
C179 C177 1.400 . S
C179 C178 1.387 . S
N180 Co171 2.022 . S
N180 C177 1.351 . S
N180 N181 1.365 . S
N181 C178 1.341 . S
N181 N180 1.365 . S
N181 H201 0.862 . S
C182 C177 1.501 . S
C182 H183 0.961 . S
C182 H184 0.961 . S
C182 H185 0.960 . S
H183 C182 0.961 . S
H184 C182 0.961 . S
H185 C182 0.960 . S
C186 N187 1.342 . S
C186 C190 1.401 . S
C186 C191 1.499 . S
N187 Co170 1.989 . S
N187 C186 1.342 . S
N187 N188 1.388 . S
N188 Co171 1.993 . S
N188 N187 1.388 . S
N188 C189 1.346 . S
C189 N188 1.346 . S
C189 C190 1.396 . S
C189 C199 1.510 . S
C190 C186 1.401 . S
C190 C189 1.396 . S
C191 C186 1.499 . S
C191 H192 0.959 . S
C191 H193 0.960 . S
C191 H194 0.961 . S
H192 C191 0.959 . S
H193 C191 0.960 . S
H194 C191 0.961 . S
O195 Co170 1.967 . S
O195 C203 1.258 . S
O196 Co171 1.941 . S
O196 C203 1.266 . S
H197 C199 0.959 . S
H198 C199 0.961 . S
C199 C189 1.510 . S
C199 H197 0.959 . S
C199 H198 0.961 . S
C199 H200 0.960 . S
H200 C199 0.960 . S
H201 N181 0.862 . S
O202 Co170 1.920 . S
O202 C175 1.289 . S
C203 O195 1.258 . S
C203 O196 1.266 . S
Co204 O207 1.970 . S
Co204 N221 1.989 . S
Co204 O229 1.967 . S
Co204 O236 1.920 . S
Co205 O208 1.966 . S
Co205 N214 2.022 . S
Co205 N222 1.993 . S
Co205 O230 1.941 . S
C206 O207 1.258 . S
C206 O208 1.263 . S
O207 Co204 1.970 . S
O207 C206 1.258 . S
O208 Co205 1.966 . S
O208 C206 1.263 . S
C209 O210 1.235 . S
C209 O236 1.289 . S
O210 C209 1.235 . S
C211 C213 1.400 . S
C211 N214 1.351 . S
C211 C216 1.501 . S
C212 C213 1.387 . S
C212 N215 1.341 . S
C213 C211 1.400 . S
C213 C212 1.387 . S
N214 Co205 2.022 . S
N214 C211 1.351 . S
N214 N215 1.365 . S
N215 C212 1.341 . S
N215 N214 1.365 . S
N215 H235 0.862 . S
C216 C211 1.501 . S
C216 H217 0.961 . S
C216 H218 0.961 . S
C216 H219 0.960 . S
H217 C216 0.961 . S
H218 C216 0.961 . S
H219 C216 0.960 . S
C220 N221 1.342 . S
C220 C224 1.401 . S
C220 C225 1.499 . S
N221 Co204 1.989 . S
N221 C220 1.342 . S
N221 N222 1.388 . S
N222 Co205 1.993 . S
N222 N221 1.388 . S
N222 C223 1.346 . S
C223 N222 1.346 . S
C223 C224 1.396 . S
C223 C233 1.510 . S
C224 C220 1.401 . S
C224 C223 1.396 . S
C225 C220 1.499 . S
C225 H226 0.959 . S
C225 H227 0.960 . S
C225 H228 0.961 . S
H226 C225 0.959 . S
H227 C225 0.960 . S
H228 C225 0.961 . S
O229 Co204 1.967 . S
O229 C237 1.258 . S
O230 Co205 1.941 . S
O230 C237 1.266 . S
H231 C233 0.959 . S
H232 C233 0.961 . S
C233 C223 1.510 . S
C233 H231 0.959 . S
C233 H232 0.961 . S
C233 H234 0.960 . S
H234 C233 0.960 . S
H235 N215 0.862 . S
O236 Co204 1.920 . S
O236 C209 1.289 . S
C237 O229 1.258 . S
C237 O230 1.266 . S
Co238 O241 1.970 . S
Co238 N255 1.989 . S
Co238 O263 1.967 . S
Co238 O270 1.920 . S
Co239 O242 1.966 . S
Co239 N248 2.022 . S
Co239 N256 1.993 . S
Co239 O264 1.941 . S
C240 O241 1.258 . S
C240 O242 1.263 . S
O241 Co238 1.970 . S
O241 C240 1.258 . S
O242 Co239 1.966 . S
O242 C240 1.263 . S
C243 O244 1.235 . S
C243 O270 1.289 . S
O244 C243 1.235 . S
C245 C247 1.400 . S
C245 N248 1.351 . S
C245 C250 1.501 . S
C246 C247 1.387 . S
C246 N249 1.341 . S
C247 C245 1.400 . S
C247 C246 1.387 . S
N248 Co239 2.022 . S
N248 C245 1.351 . S
N248 N249 1.365 . S
N249 C246 1.341 . S
N249 N248 1.365 . S
N249 H269 0.862 . S
C250 C245 1.501 . S
C250 H251 0.961 . S
C250 H252 0.961 . S
C250 H253 0.960 . S
H251 C250 0.961 . S
H252 C250 0.961 . S
H253 C250 0.960 . S
C254 N255 1.342 . S
C254 C258 1.401 . S
C254 C259 1.499 . S
N255 Co238 1.989 . S
N255 C254 1.342 . S
N255 N256 1.388 . S
N256 Co239 1.993 . S
N256 N255 1.388 . S
N256 C257 1.346 . S
C257 N256 1.346 . S
C257 C258 1.396 . S
C257 C267 1.510 . S
C258 C254 1.401 . S
C258 C257 1.396 . S
C259 C254 1.499 . S
C259 H260 0.959 . S
C259 H261 0.960 . S
C259 H262 0.961 . S
H260 C259 0.959 . S
H261 C259 0.960 . S
H262 C259 0.961 . S
O263 Co238 1.967 . S
O263 C271 1.258 . S
O264 Co239 1.941 . S
O264 C271 1.266 . S
H265 C267 0.959 . S
H266 C267 0.961 . S
C267 C257 1.510 . S
C267 H265 0.959 . S
C267 H266 0.961 . S
C267 H268 0.960 . S
H268 C267 0.960 . S
H269 N249 0.862 . S
O270 Co238 1.920 . S
O270 C243 1.289 . S
C271 O263 1.258 . S
C271 O264 1.266 . S
Co272 O275 1.970 . S
Co272 N289 1.989 . S
Co272 O297 1.967 . S
Co272 O304 1.920 . S
Co273 O276 1.966 . S
Co273 N282 2.022 . S
Co273 N290 1.993 . S
Co273 O298 1.941 . S
C274 O275 1.258 . S
C274 O276 1.263 . S
O275 Co272 1.970 . S
O275 C274 1.258 . S
O276 Co273 1.966 . S
O276 C274 1.263 . S
C277 O278 1.235 . S
C277 O304 1.289 . S
O278 C277 1.235 . S
C279 C281 1.400 . S
C279 N282 1.351 . S
C279 C284 1.501 . S
C280 C281 1.387 . S
C280 N283 1.341 . S
C281 C279 1.400 . S
C281 C280 1.387 . S
N282 Co273 2.022 . S
N282 C279 1.351 . S
N282 N283 1.365 . S
N283 C280 1.341 . S
N283 N282 1.365 . S
N283 H303 0.862 . S
C284 C279 1.501 . S
C284 H285 0.961 . S
C284 H286 0.961 . S
C284 H287 0.960 . S
H285 C284 0.961 . S
H286 C284 0.961 . S
H287 C284 0.960 . S
C288 N289 1.342 . S
C288 C292 1.401 . S
C288 C293 1.499 . S
N289 Co272 1.989 . S
N289 C288 1.342 . S
N289 N290 1.388 . S
N290 Co273 1.993 . S
N290 N289 1.388 . S
N290 C291 1.346 . S
C291 N290 1.346 . S
C291 C292 1.396 . S
C291 C301 1.510 . S
C292 C288 1.401 . S
C292 C291 1.396 . S
C293 C288 1.499 . S
C293 H294 0.959 . S
C293 H295 0.960 . S
C293 H296 0.961 . S
H294 C293 0.959 . S
H295 C293 0.960 . S
H296 C293 0.961 . S
O297 Co272 1.967 . S
O297 C305 1.258 . S
O298 Co273 1.941 . S
O298 C305 1.266 . S
H299 C301 0.959 . S
H300 C301 0.961 . S
C301 C291 1.510 . S
C301 H299 0.959 . S
C301 H300 0.961 . S
C301 H302 0.960 . S
H302 C301 0.960 . S
H303 N283 0.862 . S
O304 Co272 1.920 . S
O304 C277 1.289 . S
C305 O297 1.258 . S
C305 O298 1.266 . S
Co306 O309 1.970 . S
Co306 N323 1.989 . S
Co306 O331 1.967 . S
Co306 O338 1.920 . S
Co307 O310 1.966 . S
Co307 N316 2.022 . S
Co307 N324 1.993 . S
Co307 O332 1.941 . S
C308 O309 1.258 . S
C308 O310 1.263 . S
O309 Co306 1.970 . S
O309 C308 1.258 . S
O310 Co307 1.966 . S
O310 C308 1.263 . S
C311 O312 1.235 . S
C311 O338 1.289 . S
O312 C311 1.235 . S
C313 C315 1.400 . S
C313 N316 1.351 . S
C313 C318 1.501 . S
C314 C315 1.387 . S
C314 N317 1.341 . S
C315 C313 1.400 . S
C315 C314 1.387 . S
N316 Co307 2.022 . S
N316 C313 1.351 . S
N316 N317 1.365 . S
N317 C314 1.341 . S
N317 N316 1.365 . S
N317 H337 0.862 . S
C318 C313 1.501 . S
C318 H319 0.961 . S
C318 H320 0.961 . S
C318 H321 0.960 . S
H319 C318 0.961 . S
H320 C318 0.961 . S
H321 C318 0.960 . S
C322 N323 1.342 . S
C322 C326 1.401 . S
C322 C327 1.499 . S
N323 Co306 1.989 . S
N323 C322 1.342 . S
N323 N324 1.388 . S
N324 Co307 1.993 . S
N324 N323 1.388 . S
N324 C325 1.346 . S
C325 N324 1.346 . S
C325 C326 1.396 . S
C325 C335 1.510 . S
C326 C322 1.401 . S
C326 C325 1.396 . S
C327 C322 1.499 . S
C327 H328 0.959 . S
C327 H329 0.960 . S
C327 H330 0.961 . S
H328 C327 0.959 . S
H329 C327 0.960 . S
H330 C327 0.961 . S
O331 Co306 1.967 . S
O331 C339 1.258 . S
O332 Co307 1.941 . S
O332 C339 1.266 . S
H333 C335 0.959 . S
H334 C335 0.961 . S
C335 C325 1.510 . S
C335 H333 0.959 . S
C335 H334 0.961 . S
C335 H336 0.960 . S
H336 C335 0.960 . S
H337 N317 0.862 . S
O338 Co306 1.920 . S
O338 C311 1.289 . S
C339 O331 1.258 . S
C339 O332 1.266 . S
Co340 O343 1.970 . S
Co340 N357 1.989 . S
Co340 O365 1.967 . S
Co340 O372 1.920 . S
Co341 O344 1.966 . S
Co341 N350 2.022 . S
Co341 N358 1.993 . S
Co341 O366 1.941 . S
C342 O343 1.258 . S
C342 O344 1.263 . S
O343 Co340 1.970 . S
O343 C342 1.258 . S
O344 Co341 1.966 . S
O344 C342 1.263 . S
C345 O346 1.235 . S
C345 O372 1.289 . S
O346 C345 1.235 . S
C347 C349 1.400 . S
C347 N350 1.351 . S
C347 C352 1.501 . S
C348 C349 1.387 . S
C348 N351 1.341 . S
C349 C347 1.400 . S
C349 C348 1.387 . S
N350 Co341 2.022 . S
N350 C347 1.351 . S
N350 N351 1.365 . S
N351 C348 1.341 . S
N351 N350 1.365 . S
N351 H371 0.862 . S
C352 C347 1.501 . S
C352 H353 0.961 . S
C352 H354 0.961 . S
C352 H355 0.960 . S
H353 C352 0.961 . S
H354 C352 0.961 . S
H355 C352 0.960 . S
C356 N357 1.342 . S
C356 C360 1.401 . S
C356 C361 1.499 . S
N357 Co340 1.989 . S
N357 C356 1.342 . S
N357 N358 1.388 . S
N358 Co341 1.993 . S
N358 N357 1.388 . S
N358 C359 1.346 . S
C359 N358 1.346 . S
C359 C360 1.396 . S
C359 C369 1.510 . S
C360 C356 1.401 . S
C360 C359 1.396 . S
C361 C356 1.499 . S
C361 H362 0.959 . S
C361 H363 0.960 . S
C361 H364 0.961 . S
H362 C361 0.959 . S
H363 C361 0.960 . S
H364 C361 0.961 . S
O365 Co340 1.967 . S
O365 C373 1.258 . S
O366 Co341 1.941 . S
O366 C373 1.266 . S
H367 C369 0.959 . S
H368 C369 0.961 . S
C369 C359 1.510 . S
C369 H367 0.959 . S
C369 H368 0.961 . S
C369 H370 0.960 . S
H370 C369 0.960 . S
H371 N351 0.862 . S
O372 Co340 1.920 . S
O372 C345 1.289 . S
C373 O365 1.258 . S
C373 O366 1.266 . S
Co374 O377 1.970 . S
Co374 N391 1.989 . S
Co374 O399 1.967 . S
Co374 O406 1.920 . S
Co375 O378 1.966 . S
Co375 N384 2.022 . S
Co375 N392 1.993 . S
Co375 O400 1.941 . S
C376 O377 1.258 . S
C376 O378 1.263 . S
O377 Co374 1.970 . S
O377 C376 1.258 . S
O378 Co375 1.966 . S
O378 C376 1.263 . S
C379 O380 1.235 . S
C379 O406 1.289 . S
O380 C379 1.235 . S
C381 C383 1.400 . S
C381 N384 1.351 . S
C381 C386 1.501 . S
C382 C383 1.387 . S
C382 N385 1.341 . S
C383 C381 1.400 . S
C383 C382 1.387 . S
N384 Co375 2.022 . S
N384 C381 1.351 . S
N384 N385 1.365 . S
N385 C382 1.341 . S
N385 N384 1.365 . S
N385 H405 0.862 . S
C386 C381 1.501 . S
C386 H387 0.961 . S
C386 H388 0.961 . S
C386 H389 0.960 . S
H387 C386 0.961 . S
H388 C386 0.961 . S
H389 C386 0.960 . S
C390 N391 1.342 . S
C390 C394 1.401 . S
C390 C395 1.499 . S
N391 Co374 1.989 . S
N391 C390 1.342 . S
N391 N392 1.388 . S
N392 Co375 1.993 . S
N392 N391 1.388 . S
N392 C393 1.346 . S
C393 N392 1.346 . S
C393 C394 1.396 . S
C393 C403 1.510 . S
C394 C390 1.401 . S
C394 C393 1.396 . S
C395 C390 1.499 . S
C395 H396 0.959 . S
C395 H397 0.960 . S
C395 H398 0.961 . S
H396 C395 0.959 . S
H397 C395 0.960 . S
H398 C395 0.961 . S
O399 Co374 1.967 . S
O399 C407 1.258 . S
O400 Co375 1.941 . S
O400 C407 1.266 . S
H401 C403 0.959 . S
H402 C403 0.961 . S
C403 C393 1.510 . S
C403 H401 0.959 . S
C403 H402 0.961 . S
C403 H404 0.960 . S
H404 C403 0.960 . S
H405 N385 0.862 . S
O406 Co374 1.920 . S
O406 C379 1.289 . S
C407 O399 1.258 . S
C407 O400 1.266 . S
H408 C426 0.951 . S
H409 C428 0.951 . S
H410 C430 0.950 . S
H411 C431 0.950 . S
H412 C433 0.950 . S
H413 C436 0.950 . S
H414 C437 0.950 . S
H415 C439 0.950 . S
H416 C440 0.950 . S
H417 C441 0.951 . S
H418 C443 0.951 . S
H419 C445 0.950 . S
H420 C446 0.950 . S
H421 C448 0.950 . S
H422 C451 0.950 . S
H423 C452 0.950 . S
H424 C454 0.950 . S
H425 C455 0.950 . S
C426 H408 0.951 . S
C426 C427 1.366 . S
C426 C428 1.388 . S
C427 C426 1.366 . S
C427 C431 1.385 . S
C428 H409 0.951 . S
C428 C426 1.388 . S
C428 C429 1.366 . S
C429 C428 1.366 . S
C429 C430 1.414 . S
C429 C432 1.499 . S
C430 H410 0.950 . S
C430 C429 1.414 . S
C430 C431 1.374 . S
C431 H411 0.950 . S
C431 C427 1.385 . S
C431 C430 1.374 . S
C432 C429 1.499 . S
C432 C433 1.373 . S
C432 C434 1.389 . S
C433 H412 0.950 . S
C433 C432 1.373 . S
C433 C449 1.377 . S
C434 C432 1.389 . S
C434 C435 1.524 . S
C434 C448 1.377 . S
C435 C434 1.524 . S
C435 C436 1.397 . S
C435 C440 1.363 . S
C436 H413 0.950 . S
C436 C435 1.397 . S
C436 C437 1.334 . S
C437 H414 0.950 . S
C437 C436 1.334 . S
C437 C438 1.287 . S
C438 C437 1.287 . S
C438 C439 1.524 . S
C438 H457 0.913 . S
C439 H415 0.950 . S
C439 C438 1.524 . S
C439 C440 1.415 . S
C440 H416 0.950 . S
C440 C435 1.363 . S
C440 C439 1.415 . S
C441 H417 0.951 . S
C441 C442 1.366 . S
C441 C443 1.388 . S
C442 C441 1.366 . S
C442 C446 1.385 . S
C443 H418 0.951 . S
C443 C441 1.388 . S
C443 C444 1.366 . S
C444 C443 1.366 . S
C444 C445 1.414 . S
C444 C447 1.499 . S
C445 H419 0.950 . S
C445 C444 1.414 . S
C445 C446 1.374 . S
C446 H420 0.950 . S
C446 C442 1.385 . S
C446 C445 1.374 . S
C447 C444 1.499 . S
C447 C448 1.373 . S
C447 C449 1.389 . S
C448 H421 0.950 . S
C448 C434 1.377 . S
C448 C447 1.373 . S
C449 C433 1.377 . S
C449 C447 1.389 . S
C449 C450 1.524 . S
C450 C449 1.524 . S
C450 C451 1.397 . S
C450 C455 1.363 . S
C451 H422 0.950 . S
C451 C450 1.397 . S
C451 C452 1.334 . S
C452 H423 0.950 . S
C452 C451 1.334 . S
C452 C453 1.287 . S
C453 C452 1.287 . S
C453 C454 1.524 . S
C453 H456 0.999 . S
C454 H424 0.950 . S
C454 C453 1.524 . S
C454 C455 1.415 . S
C455 H425 0.950 . S
C455 C450 1.363 . S
C455 C454 1.415 . S
H456 C453 0.999 . S
H457 C438 0.913 . S
H458 C476 0.951 . S
H459 C478 0.951 . S
H460 C480 0.950 . S
H461 C481 0.950 . S
H462 C483 0.950 . S
H463 C486 0.950 . S
H464 C487 0.950 . S
H465 C489 0.950 . S
H466 C490 0.950 . S
H467 C491 0.951 . S
H468 C493 0.951 . S
H469 C495 0.950 . S
H470 C496 0.950 . S
H471 C498 0.950 . S
H472 C501 0.950 . S
H473 C502 0.950 . S
H474 C504 0.950 . S
H475 C505 0.950 . S
C476 H458 0.951 . S
C476 C477 1.366 . S
C476 C478 1.388 . S
C477 C476 1.366 . S
C477 C481 1.385 . S
C478 H459 0.951 . S
C478 C476 1.388 . S
C478 C479 1.366 . S
C479 C478 1.366 . S
C479 C480 1.414 . S
C479 C482 1.499 . S
C480 H460 0.950 . S
C480 C479 1.414 . S
C480 C481 1.374 . S
C481 H461 0.950 . S
C481 C477 1.385 . S
C481 C480 1.374 . S
C482 C479 1.499 . S
C482 C483 1.373 . S
C482 C484 1.389 . S
C483 H462 0.950 . S
C483 C482 1.373 . S
C483 C499 1.377 . S
C484 C482 1.389 . S
C484 C485 1.524 . S
C484 C498 1.377 . S
C485 C484 1.524 . S
C485 C486 1.397 . S
C485 C490 1.363 . S
C486 H463 0.950 . S
C486 C485 1.397 . S
C486 C487 1.334 . S
C487 H464 0.950 . S
C487 C486 1.334 . S
C487 C488 1.287 . S
C488 C487 1.287 . S
C488 C489 1.524 . S
C488 H507 0.913 . S
C489 H465 0.950 . S
C489 C488 1.524 . S
C489 C490 1.415 . S
C490 H466 0.950 . S
C490 C485 1.363 . S
C490 C489 1.415 . S
C491 H467 0.951 . S
C491 C492 1.366 . S
C491 C493 1.388 . S
C492 C491 1.366 . S
C492 C496 1.385 . S
C493 H468 0.951 . S
C493 C491 1.388 . S
C493 C494 1.366 . S
C494 C493 1.366 . S
C494 C495 1.414 . S
C494 C497 1.499 . S
C495 H469 0.950 . S
C495 C494 1.414 . S
C495 C496 1.374 . S
C496 H470 0.950 . S
C496 C492 1.385 . S
C496 C495 1.374 . S
C497 C494 1.499 . S
C497 C498 1.373 . S
C497 C499 1.389 . S
C498 H471 0.950 . S
C498 C484 1.377 . S
C498 C497 1.373 . S
C499 C483 1.377 . S
C499 C497 1.389 . S
C499 C500 1.524 . S
C500 C499 1.524 . S
C500 C501 1.397 . S
C500 C505 1.363 . S
C501 H472 0.950 . S
C501 C500 1.397 . S
C501 C502 1.334 . S
C502 H473 0.950 . S
C502 C501 1.334 . S
C502 C503 1.287 . S
C503 C502 1.287 . S
C503 C504 1.524 . S
C503 H506 0.999 . S
C504 H474 0.950 . S
C504 C503 1.524 . S
C504 C505 1.415 . S
C505 H475 0.950 . S
C505 C500 1.363 . S
C505 C504 1.415 . S
H506 C503 0.999 . S
H507 C488 0.913 . S
H508 C526 0.951 . S
H509 C528 0.951 . S
H510 C530 0.950 . S
H511 C531 0.950 . S
H512 C533 0.950 . S
H513 C536 0.950 . S
H514 C537 0.950 . S
H515 C539 0.950 . S
H516 C540 0.950 . S
H517 C541 0.951 . S
H518 C543 0.951 . S
H519 C545 0.950 . S
H520 C546 0.950 . S
H521 C548 0.950 . S
H522 C551 0.950 . S
H523 C552 0.950 . S
H524 C554 0.950 . S
H525 C555 0.950 . S
C526 H508 0.951 . S
C526 C527 1.366 . S
C526 C528 1.388 . S
C527 C526 1.366 . S
C527 C531 1.385 . S
C528 H509 0.951 . S
C528 C526 1.388 . S
C528 C529 1.366 . S
C529 C528 1.366 . S
C529 C530 1.414 . S
C529 C532 1.499 . S
C530 H510 0.950 . S
C530 C529 1.414 . S
C530 C531 1.374 . S
C531 H511 0.950 . S
C531 C527 1.385 . S
C531 C530 1.374 . S
C532 C529 1.499 . S
C532 C533 1.373 . S
C532 C534 1.389 . S
C533 H512 0.950 . S
C533 C532 1.373 . S
C533 C549 1.377 . S
C534 C532 1.389 . S
C534 C535 1.524 . S
C534 C548 1.377 . S
C535 C534 1.524 . S
C535 C536 1.397 . S
C535 C540 1.363 . S
C536 H513 0.950 . S
C536 C535 1.397 . S
C536 C537 1.334 . S
C537 H514 0.950 . S
C537 C536 1.334 . S
C537 C538 1.287 . S
C538 C537 1.287 . S
C538 C539 1.524 . S
C538 H557 0.913 . S
C539 H515 0.950 . S
C539 C538 1.524 . S
C539 C540 1.415 . S
C540 H516 0.950 . S
C540 C535 1.363 . S
C540 C539 1.415 . S
C541 H517 0.951 . S
C541 C542 1.366 . S
C541 C543 1.388 . S
C542 C541 1.366 . S
C542 C546 1.385 . S
C543 H518 0.951 . S
C543 C541 1.388 . S
C543 C544 1.366 . S
C544 C543 1.366 . S
C544 C545 1.414 . S
C544 C547 1.499 . S
C545 H519 0.950 . S
C545 C544 1.414 . S
C545 C546 1.374 . S
C546 H520 0.950 . S
C546 C542 1.385 . S
C546 C545 1.374 . S
C547 C544 1.499 . S
C547 C548 1.373 . S
C547 C549 1.389 . S
C548 H521 0.950 . S
C548 C534 1.377 . S
C548 C547 1.373 . S
C549 C533 1.377 . S
C549 C547 1.389 . S
C549 C550 1.524 . S
C550 C549 1.524 . S
C550 C551 1.397 . S
C550 C555 1.363 . S
C551 H522 0.950 . S
C551 C550 1.397 . S
C551 C552 1.334 . S
C552 H523 0.950 . S
C552 C551 1.334 . S
C552 C553 1.287 . S
C553 C552 1.287 . S
C553 C554 1.524 . S
C553 H556 0.999 . S
C554 H524 0.950 . S
C554 C553 1.524 . S
C554 C555 1.415 . S
C555 H525 0.950 . S
C555 C550 1.363 . S
C555 C554 1.415 . S
H556 C553 0.999 . S
H557 C538 0.913 . S
H558 C576 0.951 . S
H559 C578 0.951 . S
H560 C580 0.950 . S
H561 C581 0.950 . S
H562 C583 0.950 . S
H563 C586 0.950 . S
H564 C587 0.950 . S
H565 C589 0.950 . S
H566 C590 0.950 . S
H567 C591 0.951 . S
H568 C593 0.951 . S
H569 C595 0.950 . S
H570 C596 0.950 . S
H571 C598 0.950 . S
H572 C601 0.950 . S
H573 C602 0.950 . S
H574 C604 0.950 . S
H575 C605 0.950 . S
C576 H558 0.951 . S
C576 C577 1.366 . S
C576 C578 1.388 . S
C577 C576 1.366 . S
C577 C581 1.385 . S
C578 H559 0.951 . S
C578 C576 1.388 . S
C578 C579 1.366 . S
C579 C578 1.366 . S
C579 C580 1.414 . S
C579 C582 1.499 . S
C580 H560 0.950 . S
C580 C579 1.414 . S
C580 C581 1.374 . S
C581 H561 0.950 . S
C581 C577 1.385 . S
C581 C580 1.374 . S
C582 C579 1.499 . S
C582 C583 1.373 . S
C582 C584 1.389 . S
C583 H562 0.950 . S
C583 C582 1.373 . S
C583 C599 1.377 . S
C584 C582 1.389 . S
C584 C585 1.524 . S
C584 C598 1.377 . S
C585 C584 1.524 . S
C585 C586 1.397 . S
C585 C590 1.363 . S
C586 H563 0.950 . S
C586 C585 1.397 . S
C586 C587 1.334 . S
C587 H564 0.950 . S
C587 C586 1.334 . S
C587 C588 1.287 . S
C588 C587 1.287 . S
C588 C589 1.524 . S
C588 H607 0.913 . S
C589 H565 0.950 . S
C589 C588 1.524 . S
C589 C590 1.415 . S
C590 H566 0.950 . S
C590 C585 1.363 . S
C590 C589 1.415 . S
C591 H567 0.951 . S
C591 C592 1.366 . S
C591 C593 1.388 . S
C592 C591 1.366 . S
C592 C596 1.385 . S
C593 H568 0.951 . S
C593 C591 1.388 . S
C593 C594 1.366 . S
C594 C593 1.366 . S
C594 C595 1.414 . S
C594 C597 1.499 . S
C595 H569 0.950 . S
C595 C594 1.414 . S
C595 C596 1.374 . S
C596 H570 0.950 . S
C596 C592 1.385 . S
C596 C595 1.374 . S
C597 C594 1.499 . S
C597 C598 1.373 . S
C597 C599 1.389 . S
C598 H571 0.950 . S
C598 C584 1.377 . S
C598 C597 1.373 . S
C599 C583 1.377 . S
C599 C597 1.389 . S
C599 C600 1.524 . S
C600 C599 1.524 . S
C600 C601 1.397 . S
C600 C605 1.363 . S
C601 H572 0.950 . S
C601 C600 1.397 . S
C601 C602 1.334 . S
C602 H573 0.950 . S
C602 C601 1.334 . S
C602 C603 1.287 . S
C603 C602 1.287 . S
C603 C604 1.524 . S
C603 H606 0.999 . S
C604 H574 0.950 . S
C604 C603 1.524 . S
C604 C605 1.415 . S
C605 H575 0.950 . S
C605 C600 1.363 . S
C605 C604 1.415 . S
H606 C603 0.999 . S
H607 C588 0.913 . S
H608 C626 0.951 . S
H609 C628 0.951 . S
H610 C630 0.950 . S
H611 C631 0.950 . S
H612 C633 0.950 . S
H613 C636 0.950 . S
H614 C637 0.950 . S
H615 C639 0.950 . S
H616 C640 0.950 . S
H617 C641 0.951 . S
H618 C643 0.951 . S
H619 C645 0.950 . S
H620 C646 0.950 . S
H621 C648 0.950 . S
H622 C651 0.950 . S
H623 C652 0.950 . S
H624 C654 0.950 . S
H625 C655 0.950 . S
C626 H608 0.951 . S
C626 C627 1.366 . S
C626 C628 1.388 . S
C627 C626 1.366 . S
C627 C631 1.385 . S
C628 H609 0.951 . S
C628 C626 1.388 . S
C628 C629 1.366 . S
C629 C628 1.366 . S
C629 C630 1.414 . S
C629 C632 1.499 . S
C630 H610 0.950 . S
C630 C629 1.414 . S
C630 C631 1.374 . S
C631 H611 0.950 . S
C631 C627 1.385 . S
C631 C630 1.374 . S
C632 C629 1.499 . S
C632 C633 1.373 . S
C632 C634 1.389 . S
C633 H612 0.950 . S
C633 C632 1.373 . S
C633 C649 1.377 . S
C634 C632 1.389 . S
C634 C635 1.524 . S
C634 C648 1.377 . S
C635 C634 1.524 . S
C635 C636 1.397 . S
C635 C640 1.363 . S
C636 H613 0.950 . S
C636 C635 1.397 . S
C636 C637 1.334 . S
C637 H614 0.950 . S
C637 C636 1.334 . S
C637 C638 1.287 . S
C638 C637 1.287 . S
C638 C639 1.524 . S
C638 H657 0.913 . S
C639 H615 0.950 . S
C639 C638 1.524 . S
C639 C640 1.415 . S
C640 H616 0.950 . S
C640 C635 1.363 . S
C640 C639 1.415 . S
C641 H617 0.951 . S
C641 C642 1.366 . S
C641 C643 1.388 . S
C642 C641 1.366 . S
C642 C646 1.385 . S
C643 H618 0.951 . S
C643 C641 1.388 . S
C643 C644 1.366 . S
C644 C643 1.366 . S
C644 C645 1.414 . S
C644 C647 1.499 . S
C645 H619 0.950 . S
C645 C644 1.414 . S
C645 C646 1.374 . S
C646 H620 0.950 . S
C646 C642 1.385 . S
C646 C645 1.374 . S
C647 C644 1.499 . S
C647 C648 1.373 . S
C647 C649 1.389 . S
C648 H621 0.950 . S
C648 C634 1.377 . S
C648 C647 1.373 . S
C649 C633 1.377 . S
C649 C647 1.389 . S
C649 C650 1.524 . S
C650 C649 1.524 . S
C650 C651 1.397 . S
C650 C655 1.363 . S
C651 H622 0.950 . S
C651 C650 1.397 . S
C651 C652 1.334 . S
C652 H623 0.950 . S
C652 C651 1.334 . S
C652 C653 1.287 . S
C653 C652 1.287 . S
C653 C654 1.524 . S
C653 H656 0.999 . S
C654 H624 0.950 . S
C654 C653 1.524 . S
C654 C655 1.415 . S
C655 H625 0.950 . S
C655 C650 1.363 . S
C655 C654 1.415 . S
H656 C653 0.999 . S
H657 C638 0.913 . S
H658 C676 0.951 . S
H659 C678 0.951 . S
H660 C680 0.950 . S
H661 C681 0.950 . S
H662 C683 0.950 . S
H663 C686 0.950 . S
H664 C687 0.950 . S
H665 C689 0.950 . S
H666 C690 0.950 . S
H667 C691 0.951 . S
H668 C693 0.951 . S
H669 C695 0.950 . S
H670 C696 0.950 . S
H671 C698 0.950 . S
H672 C701 0.950 . S
H673 C702 0.950 . S
H674 C704 0.950 . S
H675 C705 0.950 . S
C676 H658 0.951 . S
C676 C677 1.366 . S
C676 C678 1.388 . S
C677 C676 1.366 . S
C677 C681 1.385 . S
C678 H659 0.951 . S
C678 C676 1.388 . S
C678 C679 1.366 . S
C679 C678 1.366 . S
C679 C680 1.414 . S
C679 C682 1.499 . S
C680 H660 0.950 . S
C680 C679 1.414 . S
C680 C681 1.374 . S
C681 H661 0.950 . S
C681 C677 1.385 . S
C681 C680 1.374 . S
C682 C679 1.499 . S
C682 C683 1.373 . S
C682 C684 1.389 . S
C683 H662 0.950 . S
C683 C682 1.373 . S
C683 C699 1.377 . S
C684 C682 1.389 . S
C684 C685 1.524 . S
C684 C698 1.377 . S
C685 C684 1.524 . S
C685 C686 1.397 . S
C685 C690 1.363 . S
C686 H663 0.950 . S
C686 C685 1.397 . S
C686 C687 1.334 . S
C687 H664 0.950 . S
C687 C686 1.334 . S
C687 C688 1.287 . S
C688 C687 1.287 . S
C688 C689 1.524 . S
C688 H707 0.913 . S
C689 H665 0.950 . S
C689 C688 1.524 . S
C689 C690 1.415 . S
C690 H666 0.950 . S
C690 C685 1.363 . S
C690 C689 1.415 . S
C691 H667 0.951 . S
C691 C692 1.366 . S
C691 C693 1.388 . S
C692 C691 1.366 . S
C692 C696 1.385 . S
C693 H668 0.951 . S
C693 C691 1.388 . S
C693 C694 1.366 . S
C694 C693 1.366 . S
C694 C695 1.414 . S
C694 C697 1.499 . S
C695 H669 0.950 . S
C695 C694 1.414 . S
C695 C696 1.374 . S
C696 H670 0.950 . S
C696 C692 1.385 . S
C696 C695 1.374 . S
C697 C694 1.499 . S
C697 C698 1.373 . S
C697 C699 1.389 . S
C698 H671 0.950 . S
C698 C684 1.377 . S
C698 C697 1.373 . S
C699 C683 1.377 . S
C699 C697 1.389 . S
C699 C700 1.524 . S
C700 C699 1.524 . S
C700 C701 1.397 . S
C700 C705 1.363 . S
C701 H672 0.950 . S
C701 C700 1.397 . S
C701 C702 1.334 . S
C702 H673 0.950 . S
C702 C701 1.334 . S
C702 C703 1.287 . S
C703 C702 1.287 . S
C703 C704 1.524 . S
C703 H706 0.999 . S
C704 H674 0.950 . S
C704 C703 1.524 . S
C704 C705 1.415 . S
C705 H675 0.950 . S
C705 C700 1.363 . S
C705 C704 1.415 . S
H706 C703 0.999 . S
H707 C688 0.913 . S
H708 C726 0.951 . S
H709 C728 0.951 . S
H710 C730 0.950 . S
H711 C731 0.950 . S
H712 C733 0.950 . S
H713 C736 0.950 . S
H714 C737 0.950 . S
H715 C739 0.950 . S
H716 C740 0.950 . S
H717 C741 0.951 . S
H718 C743 0.951 . S
H719 C745 0.950 . S
H720 C746 0.950 . S
H721 C748 0.950 . S
H722 C751 0.950 . S
H723 C752 0.950 . S
H724 C754 0.950 . S
H725 C755 0.950 . S
C726 H708 0.951 . S
C726 C727 1.366 . S
C726 C728 1.388 . S
C727 C726 1.366 . S
C727 C731 1.385 . S
C728 H709 0.951 . S
C728 C726 1.388 . S
C728 C729 1.366 . S
C729 C728 1.366 . S
C729 C730 1.414 . S
C729 C732 1.499 . S
C730 H710 0.950 . S
C730 C729 1.414 . S
C730 C731 1.374 . S
C731 H711 0.950 . S
C731 C727 1.385 . S
C731 C730 1.374 . S
C732 C729 1.499 . S
C732 C733 1.373 . S
C732 C734 1.389 . S
C733 H712 0.950 . S
C733 C732 1.373 . S
C733 C749 1.377 . S
C734 C732 1.389 . S
C734 C735 1.524 . S
C734 C748 1.377 . S
C735 C734 1.524 . S
C735 C736 1.397 . S
C735 C740 1.363 . S
C736 H713 0.950 . S
C736 C735 1.397 . S
C736 C737 1.334 . S
C737 H714 0.950 . S
C737 C736 1.334 . S
C737 C738 1.287 . S
C738 C737 1.287 . S
C738 C739 1.524 . S
C738 H757 0.913 . S
C739 H715 0.950 . S
C739 C738 1.524 . S
C739 C740 1.415 . S
C740 H716 0.950 . S
C740 C735 1.363 . S
C740 C739 1.415 . S
C741 H717 0.951 . S
C741 C742 1.366 . S
C741 C743 1.388 . S
C742 C741 1.366 . S
C742 C746 1.385 . S
C743 H718 0.951 . S
C743 C741 1.388 . S
C743 C744 1.366 . S
C744 C743 1.366 . S
C744 C745 1.414 . S
C744 C747 1.499 . S
C745 H719 0.950 . S
C745 C744 1.414 . S
C745 C746 1.374 . S
C746 H720 0.950 . S
C746 C742 1.385 . S
C746 C745 1.374 . S
C747 C744 1.499 . S
C747 C748 1.373 . S
C747 C749 1.389 . S
C748 H721 0.950 . S
C748 C734 1.377 . S
C748 C747 1.373 . S
C749 C733 1.377 . S
C749 C747 1.389 . S
C749 C750 1.524 . S
C750 C749 1.524 . S
C750 C751 1.397 . S
C750 C755 1.363 . S
C751 H722 0.950 . S
C751 C750 1.397 . S
C751 C752 1.334 . S
C752 H723 0.950 . S
C752 C751 1.334 . S
C752 C753 1.287 . S
C753 C752 1.287 . S
C753 C754 1.524 . S
C753 H756 0.999 . S
C754 H724 0.950 . S
C754 C753 1.524 . S
C754 C755 1.415 . S
C755 H725 0.950 . S
C755 C750 1.363 . S
C755 C754 1.415 . S
H756 C753 0.999 . S
H757 C738 0.913 . S
H758 C776 0.951 . S
H759 C778 0.951 . S
H760 C780 0.950 . S
H761 C781 0.950 . S
H762 C783 0.950 . S
H763 C786 0.950 . S
H764 C787 0.950 . S
H765 C789 0.950 . S
H766 C790 0.950 . S
H767 C791 0.951 . S
H768 C793 0.951 . S
H769 C795 0.950 . S
H770 C796 0.950 . S
H771 C798 0.950 . S
H772 C801 0.950 . S
H773 C802 0.950 . S
H774 C804 0.950 . S
H775 C805 0.950 . S
C776 H758 0.951 . S
C776 C777 1.366 . S
C776 C778 1.388 . S
C777 C776 1.366 . S
C777 C781 1.385 . S
C778 H759 0.951 . S
C778 C776 1.388 . S
C778 C779 1.366 . S
C779 C778 1.366 . S
C779 C780 1.414 . S
C779 C782 1.499 . S
C780 H760 0.950 . S
C780 C779 1.414 . S
C780 C781 1.374 . S
C781 H761 0.950 . S
C781 C777 1.385 . S
C781 C780 1.374 . S
C782 C779 1.499 . S
C782 C783 1.373 . S
C782 C784 1.389 . S
C783 H762 0.950 . S
C783 C782 1.373 . S
C783 C799 1.377 . S
C784 C782 1.389 . S
C784 C785 1.524 . S
C784 C798 1.377 . S
C785 C784 1.524 . S
C785 C786 1.397 . S
C785 C790 1.363 . S
C786 H763 0.950 . S
C786 C785 1.397 . S
C786 C787 1.334 . S
C787 H764 0.950 . S
C787 C786 1.334 . S
C787 C788 1.287 . S
C788 C787 1.287 . S
C788 C789 1.524 . S
C788 H807 0.913 . S
C789 H765 0.950 . S
C789 C788 1.524 . S
C789 C790 1.415 . S
C790 H766 0.950 . S
C790 C785 1.363 . S
C790 C789 1.415 . S
C791 H767 0.951 . S
C791 C792 1.366 . S
C791 C793 1.388 . S
C792 C791 1.366 . S
C792 C796 1.385 . S
C793 H768 0.951 . S
C793 C791 1.388 . S
C793 C794 1.366 . S
C794 C793 1.366 . S
C794 C795 1.414 . S
C794 C797 1.499 . S
C795 H769 0.950 . S
C795 C794 1.414 . S
C795 C796 1.374 . S
C796 H770 0.950 . S
C796 C792 1.385 . S
C796 C795 1.374 . S
C797 C794 1.499 . S
C797 C798 1.373 . S
C797 C799 1.389 . S
C798 H771 0.950 . S
C798 C784 1.377 . S
C798 C797 1.373 . S
C799 C783 1.377 . S
C799 C797 1.389 . S
C799 C800 1.524 . S
C800 C799 1.524 . S
C800 C801 1.397 . S
C800 C805 1.363 . S
C801 H772 0.950 . S
C801 C800 1.397 . S
C801 C802 1.334 . S
C802 H773 0.950 . S
C802 C801 1.334 . S
C802 C803 1.287 . S
C803 C802 1.287 . S
C803 C804 1.524 . S
C803 H806 0.999 . S
C804 H774 0.950 . S
C804 C803 1.524 . S
C804 C805 1.415 . S
C805 H775 0.950 . S
C805 C800 1.363 . S
C805 C804 1.415 . S
H806 C803 0.999 . S
H807 C788 0.913 . S
H808 C826 0.951 . S
H809 C828 0.951 . S
H810 C830 0.950 . S
H811 C831 0.950 . S
H812 C833 0.950 . S
H813 C836 0.950 . S
H814 C837 0.950 . S
H815 C839 0.950 . S
H816 C840 0.950 . S
H817 C841 0.951 . S
H818 C843 0.951 . S
H819 C845 0.950 . S
H820 C846 0.950 . S
H821 C848 0.950 . S
H822 C851 0.950 . S
H823 C852 0.950 . S
H824 C854 0.950 . S
H825 C855 0.950 . S
C826 H808 0.951 . S
C826 C827 1.366 . S
C826 C828 1.388 . S
C827 C826 1.366 . S
C827 C831 1.385 . S
C828 H809 0.951 . S
C828 C826 1.388 . S
C828 C829 1.366 . S
C829 C828 1.366 . S
C829 C830 1.414 . S
C829 C832 1.499 . S
C830 H810 0.950 . S
C830 C829 1.414 . S
C830 C831 1.374 . S
C831 H811 0.950 . S
C831 C827 1.385 . S
C831 C830 1.374 . S
C832 C829 1.499 . S
C832 C833 1.373 . S
C832 C834 1.389 . S
C833 H812 0.950 . S
C833 C832 1.373 . S
C833 C849 1.377 . S
C834 C832 1.389 . S
C834 C835 1.524 . S
C834 C848 1.377 . S
C835 C834 1.524 . S
C835 C836 1.397 . S
C835 C840 1.363 . S
C836 H813 0.950 . S
C836 C835 1.397 . S
C836 C837 1.334 . S
C837 H814 0.950 . S
C837 C836 1.334 . S
C837 C838 1.287 . S
C838 C837 1.287 . S
C838 C839 1.524 . S
C838 H857 0.913 . S
C839 H815 0.950 . S
C839 C838 1.524 . S
C839 C840 1.415 . S
C840 H816 0.950 . S
C840 C835 1.363 . S
C840 C839 1.415 . S
C841 H817 0.951 . S
C841 C842 1.366 . S
C841 C843 1.388 . S
C842 C841 1.366 . S
C842 C846 1.385 . S
C843 H818 0.951 . S
C843 C841 1.388 . S
C843 C844 1.366 . S
C844 C843 1.366 . S
C844 C845 1.414 . S
C844 C847 1.499 . S
C845 H819 0.950 . S
C845 C844 1.414 . S
C845 C846 1.374 . S
C846 H820 0.950 . S
C846 C842 1.385 . S
C846 C845 1.374 . S
C847 C844 1.499 . S
C847 C848 1.373 . S
C847 C849 1.389 . S
C848 H821 0.950 . S
C848 C834 1.377 . S
C848 C847 1.373 . S
C849 C833 1.377 . S
C849 C847 1.389 . S
C849 C850 1.524 . S
C850 C849 1.524 . S
C850 C851 1.397 . S
C850 C855 1.363 . S
C851 H822 0.950 . S
C851 C850 1.397 . S
C851 C852 1.334 . S
C852 H823 0.950 . S
C852 C851 1.334 . S
C852 C853 1.287 . S
C853 C852 1.287 . S
C853 C854 1.524 . S
C853 H856 0.999 . S
C854 H824 0.950 . S
C854 C853 1.524 . S
C854 C855 1.415 . S
C855 H825 0.950 . S
C855 C850 1.363 . S
C855 C854 1.415 . S
H856 C853 0.999 . S
H857 C838 0.913 . S
H858 C876 0.951 . S
H859 C878 0.951 . S
H860 C880 0.950 . S
H861 C881 0.950 . S
H862 C883 0.950 . S
H863 C886 0.950 . S
H864 C887 0.950 . S
H865 C889 0.950 . S
H866 C890 0.950 . S
H867 C891 0.951 . S
H868 C893 0.951 . S
H869 C895 0.950 . S
H870 C896 0.950 . S
H871 C898 0.950 . S
H872 C901 0.950 . S
H873 C902 0.950 . S
H874 C904 0.950 . S
H875 C905 0.950 . S
C876 H858 0.951 . S
C876 C877 1.366 . S
C876 C878 1.388 . S
C877 C876 1.366 . S
C877 C881 1.385 . S
C878 H859 0.951 . S
C878 C876 1.388 . S
C878 C879 1.366 . S
C879 C878 1.366 . S
C879 C880 1.414 . S
C879 C882 1.499 . S
C880 H860 0.950 . S
C880 C879 1.414 . S
C880 C881 1.374 . S
C881 H861 0.950 . S
C881 C877 1.385 . S
C881 C880 1.374 . S
C882 C879 1.499 . S
C882 C883 1.373 . S
C882 C884 1.389 . S
C883 H862 0.950 . S
C883 C882 1.373 . S
C883 C899 1.377 . S
C884 C882 1.389 . S
C884 C885 1.524 . S
C884 C898 1.377 . S
C885 C884 1.524 . S
C885 C886 1.397 . S
C885 C890 1.363 . S
C886 H863 0.950 . S
C886 C885 1.397 . S
C886 C887 1.334 . S
C887 H864 0.950 . S
C887 C886 1.334 . S
C887 C888 1.287 . S
C888 C887 1.287 . S
C888 C889 1.524 . S
C888 H907 0.913 . S
C889 H865 0.950 . S
C889 C888 1.524 . S
C889 C890 1.415 . S
C890 H866 0.950 . S
C890 C885 1.363 . S
C890 C889 1.415 . S
C891 H867 0.951 . S
C891 C892 1.366 . S
C891 C893 1.388 . S
C892 C891 1.366 . S
C892 C896 1.385 . S
C893 H868 0.951 . S
C893 C891 1.388 . S
C893 C894 1.366 . S
C894 C893 1.366 . S
C894 C895 1.414 . S
C894 C897 1.499 . S
C895 H869 0.950 . S
C895 C894 1.414 . S
C895 C896 1.374 . S
C896 H870 0.950 . S
C896 C892 1.385 . S
C896 C895 1.374 . S
C897 C894 1.499 . S
C897 C898 1.373 . S
C897 C899 1.389 . S
C898 H871 0.950 . S
C898 C884 1.377 . S
C898 C897 1.373 . S
C899 C883 1.377 . S
C899 C897 1.389 . S
C899 C900 1.524 . S
C900 C899 1.524 . S
C900 C901 1.397 . S
C900 C905 1.363 . S
C901 H872 0.950 . S
C901 C900 1.397 . S
C901 C902 1.334 . S
C902 H873 0.950 . S
C902 C901 1.334 . S
C902 C903 1.287 . S
C903 C902 1.287 . S
C903 C904 1.524 . S
C903 H906 0.999 . S
C904 H874 0.950 . S
C904 C903 1.524 . S
C904 C905 1.415 . S
C905 H875 0.950 . S
C905 C900 1.363 . S
C905 C904 1.415 . S
H906 C903 0.999 . S
H907 C888 0.913 . S
H908 C926 0.951 . S
H909 C928 0.951 . S
H910 C930 0.950 . S
H911 C931 0.950 . S
H912 C933 0.950 . S
H913 C936 0.950 . S
H914 C937 0.950 . S
H915 C939 0.950 . S
H916 C940 0.950 . S
H917 C941 0.951 . S
H918 C943 0.951 . S
H919 C945 0.950 . S
H920 C946 0.950 . S
H921 C948 0.950 . S
H922 C951 0.950 . S
H923 C952 0.950 . S
H924 C954 0.950 . S
H925 C955 0.950 . S
C926 H908 0.951 . S
C926 C927 1.366 . S
C926 C928 1.388 . S
C927 C926 1.366 . S
C927 C931 1.385 . S
C928 H909 0.951 . S
C928 C926 1.388 . S
C928 C929 1.366 . S
C929 C928 1.366 . S
C929 C930 1.414 . S
C929 C932 1.499 . S
C930 H910 0.950 . S
C930 C929 1.414 . S
C930 C931 1.374 . S
C931 H911 0.950 . S
C931 C927 1.385 . S
C931 C930 1.374 . S
C932 C929 1.499 . S
C932 C933 1.373 . S
C932 C934 1.389 . S
C933 H912 0.950 . S
C933 C932 1.373 . S
C933 C949 1.377 . S
C934 C932 1.389 . S
C934 C935 1.524 . S
C934 C948 1.377 . S
C935 C934 1.524 . S
C935 C936 1.397 . S
C935 C940 1.363 . S
C936 H913 0.950 . S
C936 C935 1.397 . S
C936 C937 1.334 . S
C937 H914 0.950 . S
C937 C936 1.334 . S
C937 C938 1.287 . S
C938 C937 1.287 . S
C938 C939 1.524 . S
C938 H957 0.913 . S
C939 H915 0.950 . S
C939 C938 1.524 . S
C939 C940 1.415 . S
C940 H916 0.950 . S
C940 C935 1.363 . S
C940 C939 1.415 . S
C941 H917 0.951 . S
C941 C942 1.366 . S
C941 C943 1.388 . S
C942 C941 1.366 . S
C942 C946 1.385 . S
C943 H918 0.951 . S
C943 C941 1.388 . S
C943 C944 1.366 . S
C944 C943 1.366 . S
C944 C945 1.414 . S
C944 C947 1.499 . S
C945 H919 0.950 . S
C945 C944 1.414 . S
C945 C946 1.374 . S
C946 H920 0.950 . S
C946 C942 1.385 . S
C946 C945 1.374 . S
C947 C944 1.499 . S
C947 C948 1.373 . S
C947 C949 1.389 . S
C948 H921 0.950 . S
C948 C934 1.377 . S
C948 C947 1.373 . S
C949 C933 1.377 . S
C949 C947 1.389 . S
C949 C950 1.524 . S
C950 C949 1.524 . S
C950 C951 1.397 . S
C950 C955 1.363 . S
C951 H922 0.950 . S
C951 C950 1.397 . S
C951 C952 1.334 . S
C952 H923 0.950 . S
C952 C951 1.334 . S
C952 C953 1.287 . S
C953 C952 1.287 . S
C953 C954 1.524 . S
C953 H956 0.999 . S
C954 H924 0.950 . S
C954 C953 1.524 . S
C954 C955 1.415 . S
C955 H925 0.950 . S
C955 C950 1.363 . S
C955 C954 1.415 . S
H956 C953 0.999 . S
H957 C938 0.913 . S
H958 C976 0.951 . S
H959 C978 0.951 . S
H960 C980 0.950 . S
H961 C981 0.950 . S
H962 C983 0.950 . S
H963 C986 0.950 . S
H964 C987 0.950 . S
H965 C989 0.950 . S
H966 C990 0.950 . S
H967 C991 0.951 . S
H968 C993 0.951 . S
H969 C995 0.950 . S
H970 C996 0.950 . S
H971 C998 0.950 . S
H972 C1001 0.950 . S
H973 C1002 0.950 . S
H974 C1004 0.950 . S
H975 C1005 0.950 . S
C976 H958 0.951 . S
C976 C977 1.366 . S
C976 C978 1.388 . S
C977 C976 1.366 . S
C977 C981 1.385 . S
C978 H959 0.951 . S
C978 C976 1.388 . S
C978 C979 1.366 . S
C979 C978 1.366 . S
C979 C980 1.414 . S
C979 C982 1.499 . S
C980 H960 0.950 . S
C980 C979 1.414 . S
C980 C981 1.374 . S
C981 H961 0.950 . S
C981 C977 1.385 . S
C981 C980 1.374 . S
C982 C979 1.499 . S
C982 C983 1.373 . S
C982 C984 1.389 . S
C983 H962 0.950 . S
C983 C982 1.373 . S
C983 C999 1.377 . S
C984 C982 1.389 . S
C984 C985 1.524 . S
C984 C998 1.377 . S
C985 C984 1.524 . S
C985 C986 1.397 . S
C985 C990 1.363 . S
C986 H963 0.950 . S
C986 C985 1.397 . S
C986 C987 1.334 . S
C987 H964 0.950 . S
C987 C986 1.334 . S
C987 C988 1.287 . S
C988 C987 1.287 . S
C988 C989 1.524 . S
C988 H1007 0.913 . S
C989 H965 0.950 . S
C989 C988 1.524 . S
C989 C990 1.415 . S
C990 H966 0.950 . S
C990 C985 1.363 . S
C990 C989 1.415 . S
C991 H967 0.951 . S
C991 C992 1.366 . S
C991 C993 1.388 . S
C992 C991 1.366 . S
C992 C996 1.385 . S
C993 H968 0.951 . S
C993 C991 1.388 . S
C993 C994 1.366 . S
C994 C993 1.366 . S
C994 C995 1.414 . S
C994 C997 1.499 . S
C995 H969 0.950 . S
C995 C994 1.414 . S
C995 C996 1.374 . S
C996 H970 0.950 . S
C996 C992 1.385 . S
C996 C995 1.374 . S
C997 C994 1.499 . S
C997 C998 1.373 . S
C997 C999 1.389 . S
C998 H971 0.950 . S
C998 C984 1.377 . S
C998 C997 1.373 . S
C999 C983 1.377 . S
C999 C997 1.389 . S
C999 C1000 1.524 . S
C1000 C999 1.524 . S
C1000 C1001 1.397 . S
C1000 C1005 1.363 . S
C1001 H972 0.950 . S
C1001 C1000 1.397 . S
C1001 C1002 1.334 . S
C1002 H973 0.950 . S
C1002 C1001 1.334 . S
C1002 C1003 1.287 . S
C1003 C1002 1.287 . S
C1003 C1004 1.524 . S
C1003 H1006 0.999 . S
C1004 H974 0.950 . S
C1004 C1003 1.524 . S
C1004 C1005 1.415 . S
C1005 H975 0.950 . S
C1005 C1000 1.363 . S
C1005 C1004 1.415 . S
H1006 C1003 0.999 . S
H1007 C988 0.913 . S
H1008 C1026 0.951 . S
H1009 C1028 0.951 . S
H1010 C1030 0.950 . S
H1011 C1031 0.950 . S
H1012 C1033 0.950 . S
H1013 C1036 0.950 . S
H1014 C1037 0.950 . S
H1015 C1039 0.963 . S
H1016 C1040 0.950 . S
H1017 C1041 0.951 . S
H1018 C1043 0.951 . S
H1019 C1045 0.950 1_545 S
H1020 C1046 0.950 . S
H1021 C1048 0.950 . S
H1022 C1051 0.951 1_545 S
H1023 C1052 0.950 . S
H1024 C1054 0.950 . S
H1025 C1055 0.950 . S
C1026 H1008 0.951 . S
C1026 C1027 1.366 . S
C1026 C1028 1.388 . S
C1027 C1026 1.366 . S
C1027 C1031 1.385 . S
C1028 H1009 0.951 . S
C1028 C1026 1.388 . S
C1028 C1029 1.366 . S
C1029 C1028 1.366 . S
C1029 C1030 1.414 . S
C1029 C1032 1.499 . S
C1030 H1010 0.950 . S
C1030 C1029 1.414 . S
C1030 C1031 1.374 . S
C1031 H1011 0.950 . S
C1031 C1027 1.385 . S
C1031 C1030 1.374 . S
C1032 C1029 1.499 . S
C1032 C1033 1.373 . S
C1032 C1034 1.389 . S
C1033 H1012 0.950 . S
C1033 C1032 1.373 . S
C1033 C1049 1.377 . S
C1034 C1032 1.389 . S
C1034 C1035 1.524 . S
C1034 C1048 1.377 1_554 S
C1035 C1034 1.524 . S
C1035 C1036 1.397 . S
C1035 C1040 1.363 1_554 S
C1036 H1013 0.950 . S
C1036 C1035 1.397 . S
C1036 C1037 1.334 . S
C1037 H1014 0.950 . S
C1037 C1036 1.334 . S
C1037 C1038 1.287 . S
C1038 C1037 1.287 . S
C1038 C1039 1.506 1_554 S
C1038 H1057 0.913 . S
C1039 H1015 0.963 . S
C1039 C1038 1.506 1_556 S
C1039 C1040 1.418 . S
C1040 H1016 0.950 . S
C1040 C1035 1.363 1_556 S
C1040 C1039 1.418 . S
C1041 H1017 0.951 . S
C1041 C1042 1.366 . S
C1041 C1043 1.388 . S
C1042 C1041 1.366 . S
C1042 C1046 1.385 . S
C1043 H1018 0.951 . S
C1043 C1041 1.388 . S
C1043 C1044 1.366 . S
C1044 C1043 1.366 . S
C1044 C1045 1.414 . S
C1044 C1047 1.470 1_565 S
C1045 H1019 0.950 1_565 S
C1045 C1044 1.414 . S
C1045 C1046 1.374 . S
C1046 H1020 0.950 . S
C1046 C1042 1.385 . S
C1046 C1045 1.374 . S
C1047 C1044 1.470 1_545 S
C1047 C1048 1.410 . S
C1047 C1049 1.382 1_556 S
C1048 H1021 0.950 . S
C1048 C1034 1.377 1_556 S
C1048 C1047 1.410 . S
C1049 C1033 1.377 . S
C1049 C1047 1.382 1_554 S
C1049 C1050 1.524 1_544 S
C1050 C1049 1.524 1_566 S
C1050 C1051 1.397 . S
C1050 C1055 1.363 1_556 S
C1051 H1022 0.951 1_565 S
C1051 C1050 1.397 . S
C1051 C1052 1.333 . S
C1052 H1023 0.950 . S
C1052 C1051 1.333 . S
C1052 C1053 1.287 . S
C1053 C1052 1.287 . S
C1053 C1054 1.524 1_556 S
C1053 H1056 0.999 . S
C1054 H1024 0.950 . S
C1054 C1053 1.524 1_554 S
C1054 C1055 1.415 . S
C1055 H1025 0.950 . S
C1055 C1050 1.363 1_554 S
C1055 C1054 1.415 . S
H1056 C1053 0.999 . S
H1057 C1038 0.913 . S
H1058 C1076 0.951 . S
H1059 C1078 0.951 . S
H1060 C1080 0.950 . S
H1061 C1081 0.950 . S
H1062 C1083 0.950 . S
H1063 C1086 0.950 . S
H1064 C1087 0.950 1_554 S
H1065 C1089 0.950 . S
H1066 C1090 0.950 . S
H1067 C1091 0.951 . S
H1068 C1093 0.951 . S
H1069 C1095 0.933 1_655 S
H1070 C1096 0.950 . S
H1071 C1098 0.950 . S
H1072 C1101 0.950 1_556 S
H1073 C1102 0.950 . S
H1074 C1104 0.950 . S
H1075 C1105 0.950 . S
C1076 H1058 0.951 . S
C1076 C1077 1.366 . S
C1076 C1078 1.388 . S
C1077 C1076 1.366 . S
C1077 C1081 1.385 . S
C1078 H1059 0.951 . S
C1078 C1076 1.388 . S
C1078 C1079 1.366 . S
C1079 C1078 1.366 . S
C1079 C1080 1.414 . S
C1079 C1082 1.499 . S
C1080 H1060 0.950 . S
C1080 C1079 1.414 . S
C1080 C1081 1.374 . S
C1081 H1061 0.950 . S
C1081 C1077 1.385 . S
C1081 C1080 1.374 . S
C1082 C1079 1.499 . S
C1082 C1083 1.373 . S
C1082 C1084 1.409 . S
C1083 H1062 0.950 . S
C1083 C1082 1.373 . S
C1083 C1099 1.377 1_655 S
C1084 C1082 1.409 . S
C1084 C1085 1.518 1_554 S
C1084 C1098 1.362 1_554 S
C1085 C1084 1.518 1_556 S
C1085 C1086 1.397 1_556 S
C1085 C1090 1.363 . S
C1086 H1063 0.950 . S
C1086 C1085 1.397 1_554 S
C1086 C1087 1.334 1_554 S
C1087 H1064 0.950 1_556 S
C1087 C1086 1.334 1_556 S
C1087 C1088 1.287 . S
C1088 C1087 1.287 . S
C1088 C1089 1.524 . S
C1088 H1107 0.913 . S
C1089 H1065 0.950 . S
C1089 C1088 1.524 . S
C1089 C1090 1.415 . S
C1090 H1066 0.950 . S
C1090 C1085 1.363 . S
C1090 C1089 1.415 . S
C1091 H1067 0.951 . S
C1091 C1092 1.366 . S
C1091 C1093 1.388 . S
C1092 C1091 1.366 . S
C1092 C1096 1.385 . S
C1093 H1068 0.951 . S
C1093 C1091 1.388 . S
C1093 C1094 1.366 . S
C1094 C1093 1.366 . S
C1094 C1095 1.414 . S
C1094 C1097 1.504 . S
C1095 H1069 0.933 1_455 S
C1095 C1094 1.414 . S
C1095 C1096 1.374 . S
C1096 H1070 0.950 . S
C1096 C1092 1.385 . S
C1096 C1095 1.374 . S
C1097 C1094 1.504 . S
C1097 C1098 1.367 1_455 S
C1097 C1099 1.390 1_556 S
C1098 H1071 0.950 . S
C1098 C1084 1.362 1_556 S
C1098 C1097 1.367 1_655 S
C1099 C1083 1.377 1_455 S
C1099 C1097 1.390 1_554 S
C1099 C1100 1.524 . S
C1100 C1099 1.524 . S
C1100 C1101 1.397 . S
C1100 C1105 1.363 . S
C1101 H1072 0.950 1_554 S
C1101 C1100 1.397 . S
C1101 C1102 1.334 . S
C1102 H1073 0.950 . S
C1102 C1101 1.334 . S
C1102 C1103 1.287 . S
C1103 C1102 1.287 . S
C1103 C1104 1.524 . S
C1103 H1106 0.999 . S
C1104 H1074 0.950 . S
C1104 C1103 1.524 . S
C1104 C1105 1.415 . S
C1105 H1075 0.950 . S
C1105 C1100 1.363 . S
C1105 C1104 1.415 . S
H1106 C1103 0.999 . S
H1107 C1088 0.913 . S
H1108 C1126 0.951 . S
H1109 C1128 0.951 . S
H1110 C1130 0.950 . S
H1111 C1131 0.950 . S
H1112 C1133 0.950 . S
H1113 C1136 0.950 . S
H1114 C1137 0.950 . S
H1115 C1139 0.950 . S
H1116 C1140 0.950 . S
H1117 C1141 0.951 . S
H1118 C1143 0.951 . S
H1119 C1145 0.950 . S
H1120 C1146 0.950 . S
H1121 C1148 0.950 . S
H1122 C1151 0.940 1_554 S
H1123 C1152 0.950 . S
H1124 C1154 0.950 . S
H1125 C1155 0.950 . S
C1126 H1108 0.951 . S
C1126 C1127 1.366 . S
C1126 C1128 1.388 . S
C1127 C1126 1.366 . S
C1127 C1131 1.385 . S
C1128 H1109 0.951 . S
C1128 C1126 1.388 . S
C1128 C1129 1.366 . S
C1129 C1128 1.366 . S
C1129 C1130 1.414 . S
C1129 C1132 1.499 . S
C1130 H1110 0.950 . S
C1130 C1129 1.414 . S
C1130 C1131 1.374 . S
C1131 H1111 0.950 . S
C1131 C1127 1.385 . S
C1131 C1130 1.374 . S
C1132 C1129 1.499 . S
C1132 C1133 1.373 . S
C1132 C1134 1.389 . S
C1133 H1112 0.950 . S
C1133 C1132 1.373 . S
C1133 C1149 1.377 1_554 S
C1134 C1132 1.389 . S
C1134 C1135 1.524 . S
C1134 C1148 1.377 1_554 S
C1135 C1134 1.524 . S
C1135 C1136 1.397 . S
C1135 C1140 1.363 . S
C1136 H1113 0.950 . S
C1136 C1135 1.397 . S
C1136 C1137 1.334 . S
C1137 H1114 0.950 . S
C1137 C1136 1.334 . S
C1137 C1138 1.287 . S
C1138 C1137 1.287 . S
C1138 C1139 1.524 . S
C1138 H1157 0.913 . S
C1139 H1115 0.950 . S
C1139 C1138 1.524 . S
C1139 C1140 1.415 . S
C1140 H1116 0.950 . S
C1140 C1135 1.363 . S
C1140 C1139 1.415 . S
C1141 H1117 0.951 . S
C1141 C1142 1.366 . S
C1141 C1143 1.388 . S
C1142 C1141 1.366 . S
C1142 C1146 1.385 . S
C1143 H1118 0.951 . S
C1143 C1141 1.388 . S
C1143 C1144 1.366 . S
C1144 C1143 1.366 . S
C1144 C1145 1.414 . S
C1144 C1147 1.499 . S
C1145 H1119 0.950 . S
C1145 C1144 1.414 . S
C1145 C1146 1.374 . S
C1146 H1120 0.950 . S
C1146 C1142 1.385 . S
C1146 C1145 1.374 . S
C1147 C1144 1.499 . S
C1147 C1148 1.373 . S
C1147 C1149 1.389 . S
C1148 H1121 0.950 . S
C1148 C1134 1.377 1_556 S
C1148 C1147 1.373 . S
C1149 C1133 1.377 1_556 S
C1149 C1147 1.389 . S
C1149 C1150 1.524 . S
C1150 C1149 1.524 . S
C1150 C1151 1.397 . S
C1150 C1155 1.363 . S
C1151 H1122 0.940 1_556 S
C1151 C1150 1.397 . S
C1151 C1152 1.334 . S
C1152 H1123 0.950 . S
C1152 C1151 1.334 . S
C1152 C1153 1.287 . S
C1153 C1152 1.287 . S
C1153 C1154 1.524 . S
C1153 H1156 0.999 . S
C1154 H1124 0.950 . S
C1154 C1153 1.524 . S
C1154 C1155 1.415 . S
C1155 H1125 0.950 . S
C1155 C1150 1.363 . S
C1155 C1154 1.415 . S
H1156 C1153 0.999 . S
H1157 C1138 0.913 . S
H1158 C1176 0.951 . S
H1159 C1178 0.951 1_455 S
H1160 C1180 0.950 . S
H1161 C1181 0.950 . S
H1162 C1183 0.950 1_655 S
H1163 C1186 0.950 . S
H1164 C1187 0.950 . S
H1165 C1189 0.950 . S
H1166 C1190 0.950 . S
H1167 C1191 0.951 . S
H1168 C1193 0.951 . S
H1169 C1195 0.950 . S
H1170 C1196 0.950 . S
H1171 C1198 0.950 . S
H1172 C1201 0.950 . S
H1173 C1202 0.950 . S
H1174 C1204 0.950 1_655 S
H1175 C1205 0.950 1_655 S
C1176 H1158 0.951 . S
C1176 C1177 1.366 . S
C1176 C1178 1.388 . S
C1177 C1176 1.366 . S
C1177 C1181 1.385 . S
C1178 H1159 0.951 1_655 S
C1178 C1176 1.388 . S
C1178 C1179 1.366 . S
C1179 C1178 1.366 . S
C1179 C1180 1.414 . S
C1179 C1182 1.499 . S
C1180 H1160 0.950 . S
C1180 C1179 1.414 . S
C1180 C1181 1.374 . S
C1181 H1161 0.950 . S
C1181 C1177 1.385 . S
C1181 C1180 1.374 . S
C1182 C1179 1.499 . S
C1182 C1183 1.373 1_655 S
C1182 C1184 1.389 1_655 S
C1183 H1162 0.950 1_455 S
C1183 C1182 1.373 1_455 S
C1183 C1199 1.377 . S
C1184 C1182 1.389 1_455 S
C1184 C1185 1.524 . S
C1184 C1198 1.377 . S
C1185 C1184 1.524 . S
C1185 C1186 1.397 1_455 S
C1185 C1190 1.363 . S
C1186 H1163 0.950 . S
C1186 C1185 1.397 1_655 S
C1186 C1187 1.334 . S
C1187 H1164 0.950 . S
C1187 C1186 1.334 . S
C1187 C1188 1.291 . S
C1188 C1187 1.291 . S
C1188 C1189 1.512 1_655 S
C1188 H1207 0.921 . S
C1189 H1165 0.950 . S
C1189 C1188 1.512 1_455 S
C1189 C1190 1.415 . S
C1190 H1166 0.950 . S
C1190 C1185 1.363 . S
C1190 C1189 1.415 . S
C1191 H1167 0.951 . S
C1191 C1192 1.366 . S
C1191 C1193 1.388 . S
C1192 C1191 1.366 . S
C1192 C1196 1.385 . S
C1193 H1168 0.951 . S
C1193 C1191 1.388 . S
C1193 C1194 1.366 . S
C1194 C1193 1.366 . S
C1194 C1195 1.414 . S
C1194 C1197 1.499 . S
C1195 H1169 0.950 . S
C1195 C1194 1.414 . S
C1195 C1196 1.374 . S
C1196 H1170 0.950 . S
C1196 C1192 1.385 . S
C1196 C1195 1.374 . S
C1197 C1194 1.499 . S
C1197 C1198 1.373 . S
C1197 C1199 1.389 . S
C1198 H1171 0.950 . S
C1198 C1184 1.377 . S
C1198 C1197 1.373 . S
C1199 C1183 1.377 . S
C1199 C1197 1.389 . S
C1199 C1200 1.524 . S
C1200 C1199 1.524 . S
C1200 C1201 1.397 . S
C1200 C1205 1.363 . S
C1201 H1172 0.950 . S
C1201 C1200 1.397 . S
C1201 C1202 1.334 . S
C1202 H1173 0.950 . S
C1202 C1201 1.334 . S
C1202 C1203 1.287 . S
C1203 C1202 1.287 . S
C1203 C1204 1.524 . S
C1203 H1206 0.999 . S
C1204 H1174 0.950 1_455 S
C1204 C1203 1.524 . S
C1204 C1205 1.415 . S
C1205 H1175 0.950 1_455 S
C1205 C1200 1.363 . S
C1205 C1204 1.415 . S
H1206 C1203 0.999 . S
H1207 C1188 0.921 . S
H1208 C1226 0.951 . S
H1209 C1228 0.951 . S
H1210 C1230 0.950 . S
H1211 C1231 0.950 . S
H1212 C1233 0.950 . S
H1213 C1236 0.950 . S
H1214 C1237 0.950 . S
H1215 C1239 0.950 . S
H1216 C1240 0.950 . S
H1217 C1241 0.951 . S
H1218 C1243 0.951 . S
H1219 C1245 0.950 . S
H1220 C1246 0.950 . S
H1221 C1248 0.950 . S
H1222 C1251 0.950 . S
H1223 C1252 0.950 . S
H1224 C1254 0.950 . S
H1225 C1255 0.950 . S
C1226 H1208 0.951 . S
C1226 C1227 1.366 . S
C1226 C1228 1.388 . S
C1227 C1226 1.366 . S
C1227 C1231 1.385 . S
C1228 H1209 0.951 . S
C1228 C1226 1.388 . S
C1228 C1229 1.366 . S
C1229 C1228 1.366 . S
C1229 C1230 1.414 . S
C1229 C1232 1.499 . S
C1230 H1210 0.950 . S
C1230 C1229 1.414 . S
C1230 C1231 1.374 . S
C1231 H1211 0.950 . S
C1231 C1227 1.385 . S
C1231 C1230 1.374 . S
C1232 C1229 1.499 . S
C1232 C1233 1.373 . S
C1232 C1234 1.389 . S
C1233 H1212 0.950 . S
C1233 C1232 1.373 . S
C1233 C1249 1.377 . S
C1234 C1232 1.389 . S
C1234 C1235 1.524 . S
C1234 C1248 1.377 . S
C1235 C1234 1.524 . S
C1235 C1236 1.397 . S
C1235 C1240 1.363 . S
C1236 H1213 0.950 . S
C1236 C1235 1.397 . S
C1236 C1237 1.334 . S
C1237 H1214 0.950 . S
C1237 C1236 1.334 . S
C1237 C1238 1.287 . S
C1238 C1237 1.287 . S
C1238 C1239 1.524 . S
C1238 H1257 0.913 . S
C1239 H1215 0.950 . S
C1239 C1238 1.524 . S
C1239 C1240 1.415 . S
C1240 H1216 0.950 . S
C1240 C1235 1.363 . S
C1240 C1239 1.415 . S
C1241 H1217 0.951 . S
C1241 C1242 1.366 . S
C1241 C1243 1.388 . S
C1242 C1241 1.366 . S
C1242 C1246 1.385 . S
C1243 H1218 0.951 . S
C1243 C1241 1.388 . S
C1243 C1244 1.366 . S
C1244 C1243 1.366 . S
C1244 C1245 1.414 . S
C1244 C1247 1.499 . S
C1245 H1219 0.950 . S
C1245 C1244 1.414 . S
C1245 C1246 1.374 . S
C1246 H1220 0.950 . S
C1246 C1242 1.385 . S
C1246 C1245 1.374 . S
C1247 C1244 1.499 . S
C1247 C1248 1.373 . S
C1247 C1249 1.389 . S
C1248 H1221 0.950 . S
C1248 C1234 1.377 . S
C1248 C1247 1.373 . S
C1249 C1233 1.377 . S
C1249 C1247 1.389 . S
C1249 C1250 1.524 . S
C1250 C1249 1.524 . S
C1250 C1251 1.397 . S
C1250 C1255 1.363 . S
C1251 H1222 0.950 . S
C1251 C1250 1.397 . S
C1251 C1252 1.334 . S
C1252 H1223 0.950 . S
C1252 C1251 1.334 . S
C1252 C1253 1.287 . S
C1253 C1252 1.287 . S
C1253 C1254 1.524 . S
C1253 H1256 0.999 . S
C1254 H1224 0.950 . S
C1254 C1253 1.524 . S
C1254 C1255 1.415 . S
C1255 H1225 0.950 . S
C1255 C1250 1.363 . S
C1255 C1254 1.415 . S
H1256 C1253 0.999 . S
H1257 C1238 0.913 . S
H1258 C1276 0.951 . S
H1259 C1278 0.951 1_565 S
H1260 C1280 0.950 . S
H1261 C1281 0.950 . S
H1262 C1283 0.950 1_545 S
H1263 C1286 0.950 . S
H1264 C1287 0.950 . S
H1265 C1289 0.950 . S
H1266 C1290 0.950 . S
H1267 C1291 0.951 . S
H1268 C1293 0.951 . S
H1269 C1295 0.950 . S
H1270 C1296 0.950 . S
H1271 C1298 0.950 . S
H1272 C1301 0.950 . S
H1273 C1302 0.950 . S
H1274 C1304 0.950 . S
H1275 C1305 0.950 1_545 S
C1276 H1258 0.951 . S
C1276 C1277 1.366 . S
C1276 C1278 1.388 . S
C1277 C1276 1.366 . S
C1277 C1281 1.385 . S
C1278 H1259 0.951 1_545 S
C1278 C1276 1.388 . S
C1278 C1279 1.366 . S
C1279 C1278 1.366 . S
C1279 C1280 1.414 . S
C1279 C1282 1.499 . S
C1280 H1260 0.950 . S
C1280 C1279 1.414 . S
C1280 C1281 1.374 . S
C1281 H1261 0.950 . S
C1281 C1277 1.385 . S
C1281 C1280 1.374 . S
C1282 C1279 1.499 . S
C1282 C1283 1.373 1_545 S
C1282 C1284 1.389 1_545 S
C1283 H1262 0.950 1_565 S
C1283 C1282 1.373 1_565 S
C1283 C1299 1.377 . S
C1284 C1282 1.389 1_565 S
C1284 C1285 1.524 . S
C1284 C1298 1.377 . S
C1285 C1284 1.524 . S
C1285 C1286 1.397 1_565 S
C1285 C1290 1.363 . S
C1286 H1263 0.950 . S
C1286 C1285 1.397 1_545 S
C1286 C1287 1.334 . S
C1287 H1264 0.950 . S
C1287 C1286 1.334 . S
C1287 C1288 1.287 . S
C1288 C1287 1.287 . S
C1288 C1289 1.524 1_545 S
C1288 H1307 0.913 . S
C1289 H1265 0.950 . S
C1289 C1288 1.524 1_565 S
C1289 C1290 1.415 . S
C1290 H1266 0.950 . S
C1290 C1285 1.363 . S
C1290 C1289 1.415 . S
C1291 H1267 0.951 . S
C1291 C1292 1.366 . S
C1291 C1293 1.388 . S
C1292 C1291 1.366 . S
C1292 C1296 1.385 . S
C1293 H1268 0.951 . S
C1293 C1291 1.388 . S
C1293 C1294 1.366 . S
C1294 C1293 1.366 . S
C1294 C1295 1.414 . S
C1294 C1297 1.499 . S
C1295 H1269 0.950 . S
C1295 C1294 1.414 . S
C1295 C1296 1.374 . S
C1296 H1270 0.950 . S
C1296 C1292 1.385 . S
C1296 C1295 1.374 . S
C1297 C1294 1.499 . S
C1297 C1298 1.373 . S
C1297 C1299 1.389 . S
C1298 H1271 0.950 . S
C1298 C1284 1.377 . S
C1298 C1297 1.373 . S
C1299 C1283 1.377 . S
C1299 C1297 1.389 . S
C1299 C1300 1.524 . S
C1300 C1299 1.524 . S
C1300 C1301 1.397 . S
C1300 C1305 1.363 . S
C1301 H1272 0.950 . S
C1301 C1300 1.397 . S
C1301 C1302 1.334 . S
C1302 H1273 0.950 . S
C1302 C1301 1.334 . S
C1302 C1303 1.287 . S
C1303 C1302 1.287 . S
C1303 C1304 1.524 . S
C1303 H1306 0.999 . S
C1304 H1274 0.950 . S
C1304 C1303 1.524 . S
C1304 C1305 1.415 . S
C1305 H1275 0.950 1_565 S
C1305 C1300 1.363 . S
C1305 C1304 1.415 . S
H1306 C1303 0.999 . S
H1307 C1288 0.913 . S
H1308 C1326 0.951 . S
H1309 C1328 0.951 . S
H1310 C1330 0.950 1_565 S
H1311 C1331 0.950 . S
H1312 C1333 0.950 . S
H1313 C1336 0.950 1_554 S
H1314 C1337 0.954 . S
H1315 C1339 0.950 . S
H1316 C1340 0.950 . S
H1317 C1341 0.951 . S
H1318 C1343 0.951 . S
H1319 C1345 0.950 . S
H1320 C1346 0.950 . S
H1321 C1348 0.950 . S
H1322 C1351 0.950 . S
H1323 C1352 0.950 . S
H1324 C1354 0.950 . S
H1325 C1355 0.950 . S
C1326 H1308 0.951 . S
C1326 C1327 1.366 . S
C1326 C1328 1.388 . S
C1327 C1326 1.366 . S
C1327 C1331 1.385 . S
C1328 H1309 0.951 . S
C1328 C1326 1.388 . S
C1328 C1329 1.366 . S
C1329 C1328 1.366 . S
C1329 C1330 1.414 . S
C1329 C1332 1.501 1_545 S
C1330 H1310 0.950 1_545 S
C1330 C1329 1.414 . S
C1330 C1331 1.374 . S
C1331 H1311 0.950 . S
C1331 C1327 1.385 . S
C1331 C1330 1.374 . S
C1332 C1329 1.501 1_565 S
C1332 C1333 1.370 . S
C1332 C1334 1.390 1_564 S
C1333 H1312 0.950 . S
C1333 C1332 1.370 . S
C1333 C1349 1.377 1_554 S
C1334 C1332 1.390 1_546 S
C1334 C1335 1.524 . S
C1334 C1348 1.377 1_545 S
C1335 C1334 1.524 . S
C1335 C1336 1.397 . S
C1335 C1340 1.363 . S
C1336 H1313 0.950 1_556 S
C1336 C1335 1.397 . S
C1336 C1337 1.334 . S
C1337 H1314 0.954 . S
C1337 C1336 1.334 . S
C1337 C1338 1.287 . S
C1338 C1337 1.287 . S
C1338 C1339 1.524 . S
C1338 H1357 0.913 . S
C1339 H1315 0.950 . S
C1339 C1338 1.524 . S
C1339 C1340 1.415 . S
C1340 H1316 0.950 . S
C1340 C1335 1.363 . S
C1340 C1339 1.415 . S
C1341 H1317 0.951 . S
C1341 C1342 1.366 . S
C1341 C1343 1.388 . S
C1342 C1341 1.366 . S
C1342 C1346 1.385 . S
C1343 H1318 0.951 . S
C1343 C1341 1.388 . S
C1343 C1344 1.366 . S
C1344 C1343 1.366 . S
C1344 C1345 1.414 . S
C1344 C1347 1.499 . S
C1345 H1319 0.950 . S
C1345 C1344 1.414 . S
C1345 C1346 1.374 . S
C1346 H1320 0.950 . S
C1346 C1342 1.385 . S
C1346 C1345 1.374 . S
C1347 C1344 1.499 . S
C1347 C1348 1.373 . S
C1347 C1349 1.389 . S
C1348 H1321 0.950 . S
C1348 C1334 1.377 1_565 S
C1348 C1347 1.373 . S
C1349 C1333 1.377 1_556 S
C1349 C1347 1.389 . S
C1349 C1350 1.524 1_556 S
C1350 C1349 1.524 1_554 S
C1350 C1351 1.397 1_554 S
C1350 C1355 1.363 . S
C1351 H1322 0.950 . S
C1351 C1350 1.397 1_556 S
C1351 C1352 1.334 . S
C1352 H1323 0.950 . S
C1352 C1351 1.334 . S
C1352 C1353 1.287 1_556 S
C1353 C1352 1.287 1_554 S
C1353 C1354 1.524 . S
C1353 H1356 0.999 . S
C1354 H1324 0.950 . S
C1354 C1353 1.524 . S
C1354 C1355 1.415 . S
C1355 H1325 0.950 . S
C1355 C1350 1.363 . S
C1355 C1354 1.415 . S
H1356 C1353 0.999 . S
H1357 C1338 0.913 . S
H1358 C1376 0.951 . S
H1359 C1378 0.951 1_455 S
H1360 C1380 0.950 . S
H1361 C1381 0.950 . S
H1362 C1383 0.950 . S
H1363 C1386 0.950 1_655 S
H1364 C1387 0.950 1_655 S
H1365 C1389 0.950 . S
H1366 C1390 0.950 . S
H1367 C1391 0.951 . S
H1368 C1393 0.951 . S
H1369 C1395 0.950 . S
H1370 C1396 0.950 . S
H1371 C1398 0.950 . S
H1372 C1401 0.950 . S
H1373 C1402 0.950 . S
H1374 C1404 0.950 . S
H1375 C1405 0.950 . S
C1376 H1358 0.951 . S
C1376 C1377 1.366 . S
C1376 C1378 1.388 . S
C1377 C1376 1.366 . S
C1377 C1381 1.385 . S
C1378 H1359 0.951 1_655 S
C1378 C1376 1.388 . S
C1378 C1379 1.366 . S
C1379 C1378 1.366 . S
C1379 C1380 1.414 . S
C1379 C1382 1.524 . S
C1380 H1360 0.950 . S
C1380 C1379 1.414 . S
C1380 C1381 1.374 . S
C1381 H1361 0.950 . S
C1381 C1377 1.385 . S
C1381 C1380 1.374 . S
C1382 C1379 1.524 . S
C1382 C1383 1.363 1_554 S
C1382 C1384 1.373 1_655 S
C1383 H1362 0.950 . S
C1383 C1382 1.363 1_556 S
C1383 C1399 1.377 1_655 S
C1384 C1382 1.373 1_455 S
C1384 C1385 1.524 . S
C1384 C1398 1.377 1_554 S
C1385 C1384 1.524 . S
C1385 C1386 1.397 . S
C1385 C1390 1.363 . S
C1386 H1363 0.950 1_455 S
C1386 C1385 1.397 . S
C1386 C1387 1.334 . S
C1387 H1364 0.950 1_455 S
C1387 C1386 1.334 . S
C1387 C1388 1.287 . S
C1388 C1387 1.287 . S
C1388 C1389 1.524 . S
C1388 H1407 0.913 . S
C1389 H1365 0.950 . S
C1389 C1388 1.524 . S
C1389 C1390 1.415 . S
C1390 H1366 0.950 . S
C1390 C1385 1.363 . S
C1390 C1389 1.415 . S
C1391 H1367 0.951 . S
C1391 C1392 1.366 . S
C1391 C1393 1.388 . S
C1392 C1391 1.366 . S
C1392 C1396 1.385 . S
C1393 H1368 0.951 . S
C1393 C1391 1.388 . S
C1393 C1394 1.366 . S
C1394 C1393 1.366 . S
C1394 C1395 1.414 . S
C1394 C1397 1.499 . S
C1395 H1369 0.950 . S
C1395 C1394 1.414 . S
C1395 C1396 1.374 . S
C1396 H1370 0.950 . S
C1396 C1392 1.385 . S
C1396 C1395 1.374 . S
C1397 C1394 1.499 . S
C1397 C1398 1.373 . S
C1397 C1399 1.389 . S
C1398 H1371 0.950 . S
C1398 C1384 1.377 1_556 S
C1398 C1397 1.373 . S
C1399 C1383 1.377 1_455 S
C1399 C1397 1.389 . S
C1399 C1400 1.524 . S
C1400 C1399 1.524 . S
C1400 C1401 1.397 . S
C1400 C1405 1.363 1_455 S
C1401 H1372 0.950 . S
C1401 C1400 1.397 . S
C1401 C1402 1.334 . S
C1402 H1373 0.950 . S
C1402 C1401 1.334 . S
C1402 C1403 1.287 . S
C1403 C1402 1.287 . S
C1403 C1404 1.524 1_455 S
C1403 H1406 0.999 . S
C1404 H1374 0.950 . S
C1404 C1403 1.524 1_655 S
C1404 C1405 1.415 . S
C1405 H1375 0.950 . S
C1405 C1400 1.363 1_655 S
C1405 C1404 1.415 . S
H1406 C1403 0.999 . S
H1407 C1388 0.913 . S
H1408 C1426 0.951 . S
H1409 C1428 0.951 . S
H1410 C1430 0.950 . S
H1411 C1431 0.950 . S
H1412 C1433 0.950 . S
H1413 C1436 0.950 . S
H1414 C1437 0.950 . S
H1415 C1439 0.950 . S
H1416 C1440 0.950 . S
H1417 C1441 0.951 . S
H1418 C1443 0.951 . S
H1419 C1445 0.950 . S
H1420 C1446 0.950 . S
H1421 C1448 0.950 . S
H1422 C1451 0.950 . S
H1423 C1452 0.950 . S
H1424 C1454 0.950 . S
H1425 C1455 0.950 . S
C1426 H1408 0.951 . S
C1426 C1427 1.366 . S
C1426 C1428 1.388 . S
C1427 C1426 1.366 . S
C1427 C1431 1.385 . S
C1428 H1409 0.951 . S
C1428 C1426 1.388 . S
C1428 C1429 1.366 . S
C1429 C1428 1.366 . S
C1429 C1430 1.414 . S
C1429 C1432 1.499 . S
C1430 H1410 0.950 . S
C1430 C1429 1.414 . S
C1430 C1431 1.374 . S
C1431 H1411 0.950 . S
C1431 C1427 1.385 . S
C1431 C1430 1.374 . S
C1432 C1429 1.499 . S
C1432 C1433 1.373 . S
C1432 C1434 1.389 . S
C1433 H1412 0.950 . S
C1433 C1432 1.373 . S
C1433 C1449 1.377 1_556 S
C1434 C1432 1.389 . S
C1434 C1435 1.524 . S
C1434 C1448 1.377 . S
C1435 C1434 1.524 . S
C1435 C1436 1.397 . S
C1435 C1440 1.363 . S
C1436 H1413 0.950 . S
C1436 C1435 1.397 . S
C1436 C1437 1.334 . S
C1437 H1414 0.950 . S
C1437 C1436 1.334 . S
C1437 C1438 1.287 . S
C1438 C1437 1.287 . S
C1438 C1439 1.524 . S
C1438 H1457 0.913 . S
C1439 H1415 0.950 . S
C1439 C1438 1.524 . S
C1439 C1440 1.415 . S
C1440 H1416 0.950 . S
C1440 C1435 1.363 . S
C1440 C1439 1.415 . S
C1441 H1417 0.951 . S
C1441 C1442 1.366 . S
C1441 C1443 1.388 . S
C1442 C1441 1.366 . S
C1442 C1446 1.385 . S
C1443 H1418 0.951 . S
C1443 C1441 1.388 . S
C1443 C1444 1.366 . S
C1444 C1443 1.366 . S
C1444 C1445 1.414 . S
C1444 C1447 1.499 . S
C1445 H1419 0.950 . S
C1445 C1444 1.414 . S
C1445 C1446 1.374 . S
C1446 H1420 0.950 . S
C1446 C1442 1.385 . S
C1446 C1445 1.374 . S
C1447 C1444 1.499 . S
C1447 C1448 1.373 1_554 S
C1447 C1449 1.389 . S
C1448 H1421 0.950 . S
C1448 C1434 1.377 . S
C1448 C1447 1.373 1_556 S
C1449 C1433 1.377 1_554 S
C1449 C1447 1.389 . S
C1449 C1450 1.524 . S
C1450 C1449 1.524 . S
C1450 C1451 1.397 . S
C1450 C1455 1.363 . S
C1451 H1422 0.950 . S
C1451 C1450 1.397 . S
C1451 C1452 1.334 . S
C1452 H1423 0.950 . S
C1452 C1451 1.334 . S
C1452 C1453 1.287 . S
C1453 C1452 1.287 . S
C1453 C1454 1.524 . S
C1453 H1456 0.999 . S
C1454 H1424 0.950 . S
C1454 C1453 1.524 . S
C1454 C1455 1.415 . S
C1455 H1425 0.950 . S
C1455 C1450 1.363 . S
C1455 C1454 1.415 . S
H1456 C1453 0.999 . S
H1457 C1438 0.913 . S
H1458 C1476 0.951 . S
H1459 C1478 0.951 . S
H1460 C1480 0.950 . S
H1461 C1481 0.950 . S
H1462 C1483 0.950 . S
H1463 C1486 0.950 . S
H1464 C1487 0.950 . S
H1465 C1489 0.950 . S
H1466 C1490 0.950 . S
H1467 C1491 0.951 . S
H1468 C1493 0.951 . S
H1469 C1495 0.950 . S
H1470 C1496 0.950 . S
H1471 C1498 0.950 . S
H1472 C1501 0.950 . S
H1473 C1502 0.950 1_655 S
H1474 C1504 0.950 . S
H1475 C1505 0.950 . S
C1476 H1458 0.951 . S
C1476 C1477 1.366 . S
C1476 C1478 1.388 . S
C1477 C1476 1.366 . S
C1477 C1481 1.385 . S
C1478 H1459 0.951 . S
C1478 C1476 1.388 . S
C1478 C1479 1.366 . S
C1479 C1478 1.366 . S
C1479 C1480 1.414 . S
C1479 C1482 1.491 1_455 S
C1480 H1460 0.950 . S
C1480 C1479 1.414 . S
C1480 C1481 1.374 . S
C1481 H1461 0.950 . S
C1481 C1477 1.385 . S
C1481 C1480 1.374 . S
C1482 C1479 1.491 1_655 S
C1482 C1483 1.371 1_655 S
C1482 C1484 1.399 . S
C1483 H1462 0.950 . S
C1483 C1482 1.371 1_455 S
C1483 C1499 1.377 1_455 S
C1484 C1482 1.399 . S
C1484 C1485 1.524 . S
C1484 C1498 1.377 . S
C1485 C1484 1.524 . S
C1485 C1486 1.397 . S
C1485 C1490 1.363 . S
C1486 H1463 0.950 . S
C1486 C1485 1.397 . S
C1486 C1487 1.334 . S
C1487 H1464 0.950 . S
C1487 C1486 1.334 . S
C1487 C1488 1.287 . S
C1488 C1487 1.287 . S
C1488 C1489 1.524 . S
C1488 H1507 0.913 . S
C1489 H1465 0.950 . S
C1489 C1488 1.524 . S
C1489 C1490 1.415 . S
C1490 H1466 0.950 . S
C1490 C1485 1.363 . S
C1490 C1489 1.415 . S
C1491 H1467 0.951 . S
C1491 C1492 1.366 . S
C1491 C1493 1.388 . S
C1492 C1491 1.366 . S
C1492 C1496 1.385 . S
C1493 H1468 0.951 . S
C1493 C1491 1.388 . S
C1493 C1494 1.366 . S
C1494 C1493 1.366 . S
C1494 C1495 1.414 . S
C1494 C1497 1.499 . S
C1495 H1469 0.950 . S
C1495 C1494 1.414 . S
C1495 C1496 1.374 . S
C1496 H1470 0.950 . S
C1496 C1492 1.385 . S
C1496 C1495 1.374 . S
C1497 C1494 1.499 . S
C1497 C1498 1.373 . S
C1497 C1499 1.389 . S
C1498 H1471 0.950 . S
C1498 C1484 1.377 . S
C1498 C1497 1.373 . S
C1499 C1483 1.377 1_655 S
C1499 C1497 1.389 . S
C1499 C1500 1.525 1_655 S
C1500 C1499 1.525 1_455 S
C1500 C1501 1.396 1_455 S
C1500 C1505 1.362 . S
C1501 H1472 0.950 . S
C1501 C1500 1.396 1_655 S
C1501 C1502 1.334 1_655 S
C1502 H1473 0.950 1_455 S
C1502 C1501 1.334 1_455 S
C1502 C1503 1.287 . S
C1503 C1502 1.287 . S
C1503 C1504 1.524 . S
C1503 H1506 0.999 . S
C1504 H1474 0.950 . S
C1504 C1503 1.524 . S
C1504 C1505 1.415 . S
C1505 H1475 0.950 . S
C1505 C1500 1.362 . S
C1505 C1504 1.415 . S
H1506 C1503 0.999 . S
H1507 C1488 0.913 . S
H1508 C1526 0.951 . S
H1509 C1528 0.951 . S
H1510 C1530 0.950 . S
H1511 C1531 0.950 . S
H1512 C1533 0.950 . S
H1513 C1536 0.950 . S
H1514 C1537 0.950 . S
H1515 C1539 0.950 . S
H1516 C1540 0.950 . S
H1517 C1541 0.951 . S
H1518 C1543 0.951 . S
H1519 C1545 0.950 . S
H1520 C1546 0.950 . S
H1521 C1548 0.950 . S
H1522 C1551 0.950 . S
H1523 C1552 0.950 . S
H1524 C1554 0.950 . S
H1525 C1555 0.950 . S
C1526 H1508 0.951 . S
C1526 C1527 1.366 . S
C1526 C1528 1.388 . S
C1527 C1526 1.366 . S
C1527 C1531 1.385 . S
C1528 H1509 0.951 . S
C1528 C1526 1.388 . S
C1528 C1529 1.366 . S
C1529 C1528 1.366 . S
C1529 C1530 1.414 . S
C1529 C1532 1.499 . S
C1530 H1510 0.950 . S
C1530 C1529 1.414 . S
C1530 C1531 1.374 . S
C1531 H1511 0.950 . S
C1531 C1527 1.385 . S
C1531 C1530 1.374 . S
C1532 C1529 1.499 . S
C1532 C1533 1.373 . S
C1532 C1534 1.389 . S
C1533 H1512 0.950 . S
C1533 C1532 1.373 . S
C1533 C1549 1.377 . S
C1534 C1532 1.389 . S
C1534 C1535 1.524 . S
C1534 C1548 1.377 . S
C1535 C1534 1.524 . S
C1535 C1536 1.397 . S
C1535 C1540 1.363 . S
C1536 H1513 0.950 . S
C1536 C1535 1.397 . S
C1536 C1537 1.334 . S
C1537 H1514 0.950 . S
C1537 C1536 1.334 . S
C1537 C1538 1.287 . S
C1538 C1537 1.287 . S
C1538 C1539 1.524 . S
C1538 H1557 0.913 . S
C1539 H1515 0.950 . S
C1539 C1538 1.524 . S
C1539 C1540 1.415 . S
C1540 H1516 0.950 . S
C1540 C1535 1.363 . S
C1540 C1539 1.415 . S
C1541 H1517 0.951 . S
C1541 C1542 1.366 . S
C1541 C1543 1.388 . S
C1542 C1541 1.366 . S
C1542 C1546 1.385 . S
C1543 H1518 0.951 . S
C1543 C1541 1.388 . S
C1543 C1544 1.366 . S
C1544 C1543 1.366 . S
C1544 C1545 1.414 . S
C1544 C1547 1.499 . S
C1545 H1519 0.950 . S
C1545 C1544 1.414 . S
C1545 C1546 1.374 . S
C1546 H1520 0.950 . S
C1546 C1542 1.385 . S
C1546 C1545 1.374 . S
C1547 C1544 1.499 . S
C1547 C1548 1.373 . S
C1547 C1549 1.389 . S
C1548 H1521 0.950 . S
C1548 C1534 1.377 . S
C1548 C1547 1.373 . S
C1549 C1533 1.377 . S
C1549 C1547 1.389 . S
C1549 C1550 1.524 . S
C1550 C1549 1.524 . S
C1550 C1551 1.397 . S
C1550 C1555 1.363 . S
C1551 H1522 0.950 . S
C1551 C1550 1.397 . S
C1551 C1552 1.334 . S
C1552 H1523 0.950 . S
C1552 C1551 1.334 . S
C1552 C1553 1.287 . S
C1553 C1552 1.287 . S
C1553 C1554 1.524 . S
C1553 H1556 0.999 . S
C1554 H1524 0.950 . S
C1554 C1553 1.524 . S
C1554 C1555 1.415 . S
C1555 H1525 0.950 . S
C1555 C1550 1.363 . S
C1555 C1554 1.415 . S
H1556 C1553 0.999 . S
H1557 C1538 0.913 . S
H1558 C1576 0.951 . S
H1559 C1578 0.951 . S
H1560 C1580 0.950 . S
H1561 C1581 0.950 . S
H1562 C1583 0.950 . S
H1563 C1586 0.950 . S
H1564 C1587 0.950 . S
H1565 C1589 0.950 . S
H1566 C1590 0.950 1_565 S
H1567 C1591 0.951 . S
H1568 C1593 0.930 1_545 S
H1569 C1595 0.950 . S
H1570 C1596 0.950 . S
H1571 C1598 0.950 1_565 S
H1572 C1601 0.950 . S
H1573 C1602 0.950 . S
H1574 C1604 0.950 . S
H1575 C1605 0.950 . S
C1576 H1558 0.951 . S
C1576 C1577 1.366 . S
C1576 C1578 1.388 . S
C1577 C1576 1.366 . S
C1577 C1581 1.385 . S
C1578 H1559 0.951 . S
C1578 C1576 1.388 . S
C1578 C1579 1.366 . S
C1579 C1578 1.366 . S
C1579 C1580 1.414 . S
C1579 C1582 1.499 . S
C1580 H1560 0.950 . S
C1580 C1579 1.414 . S
C1580 C1581 1.374 . S
C1581 H1561 0.950 . S
C1581 C1577 1.385 . S
C1581 C1580 1.374 . S
C1582 C1579 1.499 . S
C1582 C1583 1.373 . S
C1582 C1584 1.389 . S
C1583 H1562 0.950 . S
C1583 C1582 1.373 . S
C1583 C1599 1.377 . S
C1584 C1582 1.389 . S
C1584 C1585 1.524 . S
C1584 C1598 1.377 . S
C1585 C1584 1.524 . S
C1585 C1586 1.397 . S
C1585 C1590 1.363 . S
C1586 H1563 0.950 . S
C1586 C1585 1.397 . S
C1586 C1587 1.334 . S
C1587 H1564 0.950 . S
C1587 C1586 1.334 . S
C1587 C1588 1.287 . S
C1588 C1587 1.287 . S
C1588 C1589 1.524 . S
C1588 H1607 0.913 . S
C1589 H1565 0.950 . S
C1589 C1588 1.524 . S
C1589 C1590 1.415 . S
C1590 H1566 0.950 1_545 S
C1590 C1585 1.363 . S
C1590 C1589 1.415 . S
C1591 H1567 0.951 . S
C1591 C1592 1.366 . S
C1591 C1593 1.388 . S
C1592 C1591 1.366 . S
C1592 C1596 1.385 . S
C1593 H1568 0.930 1_565 S
C1593 C1591 1.388 . S
C1593 C1594 1.366 . S
C1594 C1593 1.366 . S
C1594 C1595 1.414 . S
C1594 C1597 1.499 . S
C1595 H1569 0.950 . S
C1595 C1594 1.414 . S
C1595 C1596 1.374 . S
C1596 H1570 0.950 . S
C1596 C1592 1.385 . S
C1596 C1595 1.374 . S
C1597 C1594 1.499 . S
C1597 C1598 1.373 1_565 S
C1597 C1599 1.389 1_565 S
C1598 H1571 0.950 1_545 S
C1598 C1584 1.377 . S
C1598 C1597 1.373 1_545 S
C1599 C1583 1.377 . S
C1599 C1597 1.389 1_545 S
C1599 C1600 1.524 . S
C1600 C1599 1.524 . S
C1600 C1601 1.397 1_545 S
C1600 C1605 1.363 . S
C1601 H1572 0.950 . S
C1601 C1600 1.397 1_565 S
C1601 C1602 1.334 . S
C1602 H1573 0.950 . S
C1602 C1601 1.334 . S
C1602 C1603 1.287 . S
C1603 C1602 1.287 . S
C1603 C1604 1.524 1_565 S
C1603 H1606 0.999 . S
C1604 H1574 0.950 . S
C1604 C1603 1.524 1_545 S
C1604 C1605 1.415 . S
C1605 H1575 0.950 . S
C1605 C1600 1.363 . S
C1605 C1604 1.415 . S
H1606 C1603 0.999 . S
H1607 C1588 0.913 . S
H1608 C1626 0.951 . S
H1609 C1628 0.951 . S
H1610 C1630 0.950 . S
H1611 C1631 0.950 . S
H1612 C1633 0.950 . S
H1613 C1636 0.950 . S
H1614 C1637 0.950 . S
H1615 C1639 0.950 . S
H1616 C1640 0.950 . S
H1617 C1641 0.951 . S
H1618 C1643 0.951 . S
H1619 C1645 0.950 . S
H1620 C1646 0.950 . S
H1621 C1648 0.950 . S
H1622 C1651 0.950 . S
H1623 C1652 0.950 . S
H1624 C1654 0.950 . S
H1625 C1655 0.950 . S
C1626 H1608 0.951 . S
C1626 C1627 1.366 . S
C1626 C1628 1.388 . S
C1627 C1626 1.366 . S
C1627 C1631 1.385 . S
C1628 H1609 0.951 . S
C1628 C1626 1.388 . S
C1628 C1629 1.366 . S
C1629 C1628 1.366 . S
C1629 C1630 1.414 . S
C1629 C1632 1.499 . S
C1630 H1610 0.950 . S
C1630 C1629 1.414 . S
C1630 C1631 1.374 . S
C1631 H1611 0.950 . S
C1631 C1627 1.385 . S
C1631 C1630 1.374 . S
C1632 C1629 1.499 . S
C1632 C1633 1.373 . S
C1632 C1634 1.389 . S
C1633 H1612 0.950 . S
C1633 C1632 1.373 . S
C1633 C1649 1.377 . S
C1634 C1632 1.389 . S
C1634 C1635 1.524 . S
C1634 C1648 1.377 . S
C1635 C1634 1.524 . S
C1635 C1636 1.397 . S
C1635 C1640 1.363 . S
C1636 H1613 0.950 . S
C1636 C1635 1.397 . S
C1636 C1637 1.334 . S
C1637 H1614 0.950 . S
C1637 C1636 1.334 . S
C1637 C1638 1.287 . S
C1638 C1637 1.287 . S
C1638 C1639 1.524 . S
C1638 H1657 0.913 . S
C1639 H1615 0.950 . S
C1639 C1638 1.524 . S
C1639 C1640 1.415 . S
C1640 H1616 0.950 . S
C1640 C1635 1.363 . S
C1640 C1639 1.415 . S
C1641 H1617 0.951 . S
C1641 C1642 1.366 . S
C1641 C1643 1.388 . S
C1642 C1641 1.366 . S
C1642 C1646 1.385 . S
C1643 H1618 0.951 . S
C1643 C1641 1.388 . S
C1643 C1644 1.366 . S
C1644 C1643 1.366 . S
C1644 C1645 1.414 . S
C1644 C1647 1.499 . S
C1645 H1619 0.950 . S
C1645 C1644 1.414 . S
C1645 C1646 1.374 . S
C1646 H1620 0.950 . S
C1646 C1642 1.385 . S
C1646 C1645 1.374 . S
C1647 C1644 1.499 . S
C1647 C1648 1.373 . S
C1647 C1649 1.389 . S
C1648 H1621 0.950 . S
C1648 C1634 1.377 . S
C1648 C1647 1.373 . S
C1649 C1633 1.377 . S
C1649 C1647 1.389 . S
C1649 C1650 1.524 . S
C1650 C1649 1.524 . S
C1650 C1651 1.397 . S
C1650 C1655 1.363 . S
C1651 H1622 0.950 . S
C1651 C1650 1.397 . S
C1651 C1652 1.334 . S
C1652 H1623 0.950 . S
C1652 C1651 1.334 . S
C1652 C1653 1.287 . S
C1653 C1652 1.287 . S
C1653 C1654 1.524 . S
C1653 H1656 0.999 . S
C1654 H1624 0.950 . S
C1654 C1653 1.524 . S
C1654 C1655 1.415 . S
C1655 H1625 0.950 . S
C1655 C1650 1.363 . S
C1655 C1654 1.415 . S
H1656 C1653 0.999 . S
H1657 C1638 0.913 . S
H1658 C1676 0.951 . S
H1659 C1678 0.951 . S
H1660 C1680 0.950 . S
H1661 C1681 0.950 . S
H1662 C1683 0.950 . S
H1663 C1686 0.950 . S
H1664 C1687 0.950 . S
H1665 C1689 0.950 . S
H1666 C1690 0.950 . S
H1667 C1691 0.951 . S
H1668 C1693 0.951 . S
H1669 C1695 0.950 . S
H1670 C1696 0.950 . S
H1671 C1698 0.950 . S
H1672 C1701 0.950 . S
H1673 C1702 0.950 . S
H1674 C1704 0.950 . S
H1675 C1705 0.950 . S
C1676 H1658 0.951 . S
C1676 C1677 1.366 . S
C1676 C1678 1.388 . S
C1677 C1676 1.366 . S
C1677 C1681 1.385 . S
C1678 H1659 0.951 . S
C1678 C1676 1.388 . S
C1678 C1679 1.366 . S
C1679 C1678 1.366 . S
C1679 C1680 1.414 . S
C1679 C1682 1.499 . S
C1680 H1660 0.950 . S
C1680 C1679 1.414 . S
C1680 C1681 1.374 . S
C1681 H1661 0.950 . S
C1681 C1677 1.385 . S
C1681 C1680 1.374 . S
C1682 C1679 1.499 . S
C1682 C1683 1.373 . S
C1682 C1684 1.389 . S
C1683 H1662 0.950 . S
C1683 C1682 1.373 . S
C1683 C1699 1.377 1_545 S
C1684 C1682 1.389 . S
C1684 C1685 1.524 . S
C1684 C1698 1.377 1_545 S
C1685 C1684 1.524 . S
C1685 C1686 1.397 . S
C1685 C1690 1.363 . S
C1686 H1663 0.950 . S
C1686 C1685 1.397 . S
C1686 C1687 1.334 . S
C1687 H1664 0.950 . S
C1687 C1686 1.334 . S
C1687 C1688 1.287 . S
C1688 C1687 1.287 . S
C1688 C1689 1.524 . S
C1688 H1707 0.913 . S
C1689 H1665 0.950 . S
C1689 C1688 1.524 . S
C1689 C1690 1.415 . S
C1690 H1666 0.950 . S
C1690 C1685 1.363 . S
C1690 C1689 1.415 . S
C1691 H1667 0.951 . S
C1691 C1692 1.366 . S
C1691 C1693 1.388 . S
C1692 C1691 1.366 . S
C1692 C1696 1.385 . S
C1693 H1668 0.951 . S
C1693 C1691 1.388 . S
C1693 C1694 1.366 . S
C1694 C1693 1.366 . S
C1694 C1695 1.414 . S
C1694 C1697 1.499 . S
C1695 H1669 0.950 . S
C1695 C1694 1.414 . S
C1695 C1696 1.374 . S
C1696 H1670 0.950 . S
C1696 C1692 1.385 . S
C1696 C1695 1.374 . S
C1697 C1694 1.499 . S
C1697 C1698 1.373 . S
C1697 C1699 1.389 . S
C1698 H1671 0.950 . S
C1698 C1684 1.377 1_565 S
C1698 C1697 1.373 . S
C1699 C1683 1.377 1_565 S
C1699 C1697 1.389 . S
C1699 C1700 1.524 . S
C1700 C1699 1.524 . S
C1700 C1701 1.397 . S
C1700 C1705 1.363 . S
C1701 H1672 0.950 . S
C1701 C1700 1.397 . S
C1701 C1702 1.334 . S
C1702 H1673 0.950 . S
C1702 C1701 1.334 . S
C1702 C1703 1.287 . S
C1703 C1702 1.287 . S
C1703 C1704 1.524 . S
C1703 H1706 0.999 . S
C1704 H1674 0.950 . S
C1704 C1703 1.524 . S
C1704 C1705 1.415 . S
C1705 H1675 0.950 . S
C1705 C1700 1.363 . S
C1705 C1704 1.415 . S
H1706 C1703 0.999 . S
H1707 C1688 0.913 . S
H1708 C1726 0.951 . S
H1709 C1728 0.951 . S
H1710 C1730 0.950 . S
H1711 C1731 0.950 . S
H1712 C1733 0.950 . S
H1713 C1736 0.950 . S
H1714 C1737 0.950 . S
H1715 C1739 0.950 . S
H1716 C1740 0.950 . S
H1717 C1741 0.951 . S
H1718 C1743 0.951 . S
H1719 C1745 0.950 . S
H1720 C1746 0.950 . S
H1721 C1748 0.950 . S
H1722 C1751 0.950 . S
H1723 C1752 0.950 . S
H1724 C1754 0.950 . S
H1725 C1755 0.950 . S
C1726 H1708 0.951 . S
C1726 C1727 1.366 . S
C1726 C1728 1.388 . S
C1727 C1726 1.366 . S
C1727 C1731 1.385 . S
C1728 H1709 0.951 . S
C1728 C1726 1.388 . S
C1728 C1729 1.366 . S
C1729 C1728 1.366 . S
C1729 C1730 1.414 . S
C1729 C1732 1.499 . S
C1730 H1710 0.950 . S
C1730 C1729 1.414 . S
C1730 C1731 1.374 . S
C1731 H1711 0.950 . S
C1731 C1727 1.385 . S
C1731 C1730 1.374 . S
C1732 C1729 1.499 . S
C1732 C1733 1.373 . S
C1732 C1734 1.389 . S
C1733 H1712 0.950 . S
C1733 C1732 1.373 . S
C1733 C1749 1.377 1_655 S
C1734 C1732 1.389 . S
C1734 C1735 1.524 . S
C1734 C1748 1.377 1_655 S
C1735 C1734 1.524 . S
C1735 C1736 1.397 . S
C1735 C1740 1.363 . S
C1736 H1713 0.950 . S
C1736 C1735 1.397 . S
C1736 C1737 1.334 . S
C1737 H1714 0.950 . S
C1737 C1736 1.334 . S
C1737 C1738 1.287 . S
C1738 C1737 1.287 . S
C1738 C1739 1.524 . S
C1738 H1757 0.913 . S
C1739 H1715 0.950 . S
C1739 C1738 1.524 . S
C1739 C1740 1.415 . S
C1740 H1716 0.950 . S
C1740 C1735 1.363 . S
C1740 C1739 1.415 . S
C1741 H1717 0.951 . S
C1741 C1742 1.366 . S
C1741 C1743 1.388 . S
C1742 C1741 1.366 . S
C1742 C1746 1.385 . S
C1743 H1718 0.951 . S
C1743 C1741 1.388 . S
C1743 C1744 1.366 . S
C1744 C1743 1.366 . S
C1744 C1745 1.414 . S
C1744 C1747 1.499 . S
C1745 H1719 0.950 . S
C1745 C1744 1.414 . S
C1745 C1746 1.374 . S
C1746 H1720 0.950 . S
C1746 C1742 1.385 . S
C1746 C1745 1.374 . S
C1747 C1744 1.499 . S
C1747 C1748 1.373 . S
C1747 C1749 1.389 . S
C1748 H1721 0.950 . S
C1748 C1734 1.377 1_455 S
C1748 C1747 1.373 . S
C1749 C1733 1.377 1_455 S
C1749 C1747 1.389 . S
C1749 C1750 1.524 . S
C1750 C1749 1.524 . S
C1750 C1751 1.397 . S
C1750 C1755 1.363 . S
C1751 H1722 0.950 . S
C1751 C1750 1.397 . S
C1751 C1752 1.334 . S
C1752 H1723 0.950 . S
C1752 C1751 1.334 . S
C1752 C1753 1.287 . S
C1753 C1752 1.287 . S
C1753 C1754 1.524 . S
C1753 H1756 0.999 . S
C1754 H1724 0.950 . S
C1754 C1753 1.524 . S
C1754 C1755 1.415 . S
C1755 H1725 0.950 . S
C1755 C1750 1.363 . S
C1755 C1754 1.415 . S
H1756 C1753 0.999 . S
H1757 C1738 0.913 . S
H1758 C1776 0.951 . S
H1759 C1778 0.951 . S
H1760 C1780 0.950 . S
H1761 C1781 0.950 . S
H1762 C1783 0.950 . S
H1763 C1786 0.950 . S
H1764 C1787 0.950 . S
H1765 C1789 0.950 . S
H1766 C1790 0.950 . S
H1767 C1791 0.951 . S
H1768 C1793 0.951 . S
H1769 C1795 0.950 . S
H1770 C1796 0.950 . S
H1771 C1798 0.950 . S
H1772 C1801 0.950 . S
H1773 C1802 0.950 . S
H1774 C1804 0.950 . S
H1775 C1805 0.950 . S
C1776 H1758 0.951 . S
C1776 C1777 1.366 . S
C1776 C1778 1.388 . S
C1777 C1776 1.366 . S
C1777 C1781 1.385 . S
C1778 H1759 0.951 . S
C1778 C1776 1.388 . S
C1778 C1779 1.366 . S
C1779 C1778 1.366 . S
C1779 C1780 1.414 . S
C1779 C1782 1.499 . S
C1780 H1760 0.950 . S
C1780 C1779 1.414 . S
C1780 C1781 1.374 . S
C1781 H1761 0.950 . S
C1781 C1777 1.385 . S
C1781 C1780 1.374 . S
C1782 C1779 1.499 . S
C1782 C1783 1.373 . S
C1782 C1784 1.389 . S
C1783 H1762 0.950 . S
C1783 C1782 1.373 . S
C1783 C1799 1.377 . S
C1784 C1782 1.389 . S
C1784 C1785 1.524 . S
C1784 C1798 1.377 . S
C1785 C1784 1.524 . S
C1785 C1786 1.397 . S
C1785 C1790 1.363 . S
C1786 H1763 0.950 . S
C1786 C1785 1.397 . S
C1786 C1787 1.334 . S
C1787 H1764 0.950 . S
C1787 C1786 1.334 . S
C1787 C1788 1.287 . S
C1788 C1787 1.287 . S
C1788 C1789 1.524 . S
C1788 H1807 0.913 . S
C1789 H1765 0.950 . S
C1789 C1788 1.524 . S
C1789 C1790 1.415 . S
C1790 H1766 0.950 . S
C1790 C1785 1.363 . S
C1790 C1789 1.415 . S
C1791 H1767 0.951 . S
C1791 C1792 1.366 . S
C1791 C1793 1.388 . S
C1792 C1791 1.366 . S
C1792 C1796 1.385 . S
C1793 H1768 0.951 . S
C1793 C1791 1.388 . S
C1793 C1794 1.366 . S
C1794 C1793 1.366 . S
C1794 C1795 1.414 . S
C1794 C1797 1.499 . S
C1795 H1769 0.950 . S
C1795 C1794 1.414 . S
C1795 C1796 1.374 . S
C1796 H1770 0.950 . S
C1796 C1792 1.385 . S
C1796 C1795 1.374 . S
C1797 C1794 1.499 . S
C1797 C1798 1.373 . S
C1797 C1799 1.389 . S
C1798 H1771 0.950 . S
C1798 C1784 1.377 . S
C1798 C1797 1.373 . S
C1799 C1783 1.377 . S
C1799 C1797 1.389 . S
C1799 C1800 1.524 . S
C1800 C1799 1.524 . S
C1800 C1801 1.397 . S
C1800 C1805 1.363 . S
C1801 H1772 0.950 . S
C1801 C1800 1.397 . S
C1801 C1802 1.334 . S
C1802 H1773 0.950 . S
C1802 C1801 1.334 . S
C1802 C1803 1.287 . S
C1803 C1802 1.287 . S
C1803 C1804 1.524 . S
C1803 H1806 0.999 . S
C1804 H1774 0.950 . S
C1804 C1803 1.524 . S
C1804 C1805 1.415 . S
C1805 H1775 0.950 . S
C1805 C1800 1.363 . S
C1805 C1804 1.415 . S
H1806 C1803 0.999 . S
H1807 C1788 0.913 . S
H1808 C1826 0.951 . S
H1809 C1828 0.951 . S
H1810 C1830 0.950 . S
H1811 C1831 0.950 . S
H1812 C1833 0.950 . S
H1813 C1836 0.950 . S
H1814 C1837 0.950 . S
H1815 C1839 0.950 . S
H1816 C1840 0.950 1_545 S
H1817 C1841 0.951 . S
H1818 C1843 0.951 . S
H1819 C1845 0.950 . S
H1820 C1846 0.950 . S
H1821 C1848 0.950 . S
H1822 C1851 0.950 . S
H1823 C1852 0.950 . S
H1824 C1854 0.950 . S
H1825 C1855 0.950 1_565 S
C1826 H1808 0.951 . S
C1826 C1827 1.366 . S
C1826 C1828 1.388 . S
C1827 C1826 1.366 . S
C1827 C1831 1.385 . S
C1828 H1809 0.951 . S
C1828 C1826 1.388 . S
C1828 C1829 1.366 . S
C1829 C1828 1.366 . S
C1829 C1830 1.414 . S
C1829 C1832 1.499 . S
C1830 H1810 0.950 . S
C1830 C1829 1.414 . S
C1830 C1831 1.374 . S
C1831 H1811 0.950 . S
C1831 C1827 1.385 . S
C1831 C1830 1.374 . S
C1832 C1829 1.499 . S
C1832 C1833 1.373 . S
C1832 C1834 1.389 . S
C1833 H1812 0.950 . S
C1833 C1832 1.373 . S
C1833 C1849 1.377 1_565 S
C1834 C1832 1.389 . S
C1834 C1835 1.524 . S
C1834 C1848 1.377 1_565 S
C1835 C1834 1.524 . S
C1835 C1836 1.397 . S
C1835 C1840 1.363 . S
C1836 H1813 0.950 . S
C1836 C1835 1.397 . S
C1836 C1837 1.334 . S
C1837 H1814 0.950 . S
C1837 C1836 1.334 . S
C1837 C1838 1.287 . S
C1838 C1837 1.287 . S
C1838 C1839 1.524 . S
C1838 H1857 0.913 . S
C1839 H1815 0.950 . S
C1839 C1838 1.524 . S
C1839 C1840 1.415 . S
C1840 H1816 0.950 1_565 S
C1840 C1835 1.363 . S
C1840 C1839 1.415 . S
C1841 H1817 0.951 . S
C1841 C1842 1.366 . S
C1841 C1843 1.388 . S
C1842 C1841 1.366 . S
C1842 C1846 1.385 . S
C1843 H1818 0.951 . S
C1843 C1841 1.388 . S
C1843 C1844 1.366 . S
C1844 C1843 1.366 . S
C1844 C1845 1.414 . S
C1844 C1847 1.499 . S
C1845 H1819 0.950 . S
C1845 C1844 1.414 . S
C1845 C1846 1.374 . S
C1846 H1820 0.950 . S
C1846 C1842 1.385 . S
C1846 C1845 1.374 . S
C1847 C1844 1.499 . S
C1847 C1848 1.373 . S
C1847 C1849 1.389 . S
C1848 H1821 0.950 . S
C1848 C1834 1.377 1_545 S
C1848 C1847 1.373 . S
C1849 C1833 1.377 1_545 S
C1849 C1847 1.389 . S
C1849 C1850 1.524 . S
C1850 C1849 1.524 . S
C1850 C1851 1.397 . S
C1850 C1855 1.363 . S
C1851 H1822 0.950 . S
C1851 C1850 1.397 . S
C1851 C1852 1.334 . S
C1852 H1823 0.950 . S
C1852 C1851 1.334 . S
C1852 C1853 1.287 . S
C1853 C1852 1.287 . S
C1853 C1854 1.524 . S
C1853 H1856 0.999 . S
C1854 H1824 0.950 . S
C1854 C1853 1.524 . S
C1854 C1855 1.415 . S
C1855 H1825 0.950 1_545 S
C1855 C1850 1.363 . S
C1855 C1854 1.415 . S
H1856 C1853 0.999 . S
H1857 C1838 0.913 . S
H1858 C1876 0.951 . S
H1859 C1878 0.951 . S
H1860 C1880 0.950 . S
H1861 C1881 0.950 . S
H1862 C1883 0.950 . S
H1863 C1886 0.950 . S
H1864 C1887 0.950 . S
H1865 C1889 0.950 . S
H1866 C1890 0.950 . S
H1867 C1891 0.951 . S
H1868 C1893 0.951 . S
H1869 C1895 0.950 . S
H1870 C1896 0.950 . S
H1871 C1898 0.950 . S
H1872 C1901 0.950 . S
H1873 C1902 0.950 . S
H1874 C1904 0.950 . S
H1875 C1905 0.950 . S
C1876 H1858 0.951 . S
C1876 C1877 1.366 . S
C1876 C1878 1.388 . S
C1877 C1876 1.366 . S
C1877 C1881 1.385 . S
C1878 H1859 0.951 . S
C1878 C1876 1.388 . S
C1878 C1879 1.366 . S
C1879 C1878 1.366 . S
C1879 C1880 1.414 . S
C1879 C1882 1.499 . S
C1880 H1860 0.950 . S
C1880 C1879 1.414 . S
C1880 C1881 1.374 . S
C1881 H1861 0.950 . S
C1881 C1877 1.385 . S
C1881 C1880 1.374 . S
C1882 C1879 1.499 . S
C1882 C1883 1.373 . S
C1882 C1884 1.389 . S
C1883 H1862 0.950 . S
C1883 C1882 1.373 . S
C1883 C1899 1.377 1_455 S
C1884 C1882 1.389 . S
C1884 C1885 1.524 . S
C1884 C1898 1.377 1_455 S
C1885 C1884 1.524 . S
C1885 C1886 1.397 . S
C1885 C1890 1.363 . S
C1886 H1863 0.950 . S
C1886 C1885 1.397 . S
C1886 C1887 1.334 . S
C1887 H1864 0.950 . S
C1887 C1886 1.334 . S
C1887 C1888 1.287 . S
C1888 C1887 1.287 . S
C1888 C1889 1.524 . S
C1888 H1907 0.913 . S
C1889 H1865 0.950 . S
C1889 C1888 1.524 . S
C1889 C1890 1.415 . S
C1890 H1866 0.950 . S
C1890 C1885 1.363 . S
C1890 C1889 1.415 . S
C1891 H1867 0.951 . S
C1891 C1892 1.366 . S
C1891 C1893 1.388 . S
C1892 C1891 1.366 . S
C1892 C1896 1.385 . S
C1893 H1868 0.951 . S
C1893 C1891 1.388 . S
C1893 C1894 1.366 . S
C1894 C1893 1.366 . S
C1894 C1895 1.414 . S
C1894 C1897 1.499 . S
C1895 H1869 0.950 . S
C1895 C1894 1.414 . S
C1895 C1896 1.374 . S
C1896 H1870 0.950 . S
C1896 C1892 1.385 . S
C1896 C1895 1.374 . S
C1897 C1894 1.499 . S
C1897 C1898 1.373 . S
C1897 C1899 1.389 . S
C1898 H1871 0.950 . S
C1898 C1884 1.377 1_655 S
C1898 C1897 1.373 . S
C1899 C1883 1.377 1_655 S
C1899 C1897 1.389 . S
C1899 C1900 1.524 . S
C1900 C1899 1.524 . S
C1900 C1901 1.397 . S
C1900 C1905 1.363 . S
C1901 H1872 0.950 . S
C1901 C1900 1.397 . S
C1901 C1902 1.334 . S
C1902 H1873 0.950 . S
C1902 C1901 1.334 . S
C1902 C1903 1.287 . S
C1903 C1902 1.287 . S
C1903 C1904 1.524 . S
C1903 H1906 0.999 . S
C1904 H1874 0.950 . S
C1904 C1903 1.524 . S
C1904 C1905 1.415 . S
C1905 H1875 0.950 . S
C1905 C1900 1.363 . S
C1905 C1904 1.415 . S
H1906 C1903 0.999 . S
H1907 C1888 0.913 . S
C427 C36 1.486 . S
C442 C9 1.490 . S
C477 C43 1.490 . S
C492 C70 1.486 . S
C527 C77 1.490 . S
C542 C2 1.486 . S
C577 C111 1.490 . S
C592 C172 1.486 . S
C627 C145 1.490 . S
C642 C104 1.486 . S
C677 C138 1.486 . S
C692 C179 1.490 . S
C727 C240 1.486 . S
C742 C213 1.490 . S
C777 C274 1.486 . S
C792 C247 1.490 . S
C827 C206 1.486 . S
C842 C281 1.490 . S
C877 C315 1.490 . S
C892 C376 1.486 . S
C927 C308 1.486 . S
C942 C349 1.490 . S
C977 C383 1.490 . S
C992 C342 1.486 . S
C1027 C20 1.326 . S
C1042 C243 1.314 . S
C1077 C54 1.326 . S
C1092 C277 1.314 . S
C1127 C88 1.326 . S
C1142 C209 1.314 . S
C1177 C379 1.314 . S
C1192 C122 1.326 . S
C1227 C156 1.326 . S
C1242 C311 1.313 . S
C1277 C345 1.314 . S
C1292 C190 1.326 . S
C1327 C39 1.314 . S
C1342 C224 1.326 . S
C1377 C73 1.314 . S
C1392 C258 1.326 . S
C1427 C292 1.326 . S
C1442 C5 1.314 . S
C1477 C175 1.313 . S
C1492 C326 1.325 . S
C1527 C360 1.326 . S
C1542 C107 1.314 . S
C1577 C394 1.326 . S
C1592 C141 1.314 . S
C1627 C135 1.609 . S
C1642 C33 1.609 . S
C1677 C67 1.609 . S
C1692 C169 1.609 . S
C1727 C101 1.609 . S
C1742 C203 1.610 . S
C1777 C339 1.609 . S
C1792 C237 1.609 . S
C1827 C271 1.609 . S
C1842 C373 1.609 . S
C1877 C305 1.609 . S
C1892 C407 1.609 . S
