# Generated by pormake.
# Topology qtz-e, (6)-cn, num edge types: 1
# Building blocks:
#     Node 0, Type 0, BuildingBlock: KUMJIN_clean_sbu_1, # of connection points: 6
#     Node 1, Type 0, BuildingBlock: KUMJIN_clean_sbu_1, # of connection points: 6
#     Node 2, Type 0, BuildingBlock: KUMJIN_clean_sbu_1, # of connection points: 6
#     Node 3, Type 0, BuildingBlock: KUMJIN_clean_sbu_1, # of connection points: 6
#     Node 4, Type 0, BuildingBlock: KUMJIN_clean_sbu_1, # of connection points: 6
#     Node 5, Type 0, BuildingBlock: KUMJIN_clean_sbu_1, # of connection points: 6
#     Edge 6, Type (0, 0), None
#     Edge 7, Type (0, 0), None
#     Edge 8, Type (0, 0), None
#     Edge 9, Type (0, 0), None
#     Edge 10, Type (0, 0), None
#     Edge 11, Type (0, 0), None
#     Edge 12, Type (0, 0), None
#     Edge 13, Type (0, 0), None
#     Edge 14, Type (0, 0), None
#     Edge 15, Type (0, 0), None
#     Edge 16, Type (0, 0), None
#     Edge 17, Type (0, 0), None
#     Edge 18, Type (0, 0), None
#     Edge 19, Type (0, 0), None
#     Edge 20, Type (0, 0), None
#     Edge 21, Type (0, 0), None
#     Edge 22, Type (0, 0), None
#     Edge 23, Type (0, 0), None
# Relax obj value: 0.171
# Max RMSD: 0.233
# Mean RMSD: 0.233
data_MOF--net-qtz-e--node1-KUMJIN_clean_sbu_1--edge1-none
_symmetry_space_group_name_H-M    P1
_symmetry_Int_Tables_number       1
_symmetry_cell_setting            triclinic
loop_
_symmetry_equiv_pos_as_xyz
'x, y, z'
_cell_length_a     14.37107
_cell_length_b     14.354739
_cell_length_c     29.877361
_cell_angle_alpha  90.781326
_cell_angle_beta   89.4182
_cell_angle_gamma 120.03795
loop_
_atom_site_label
_atom_site_type_symbol
_atom_site_fract_x
_atom_site_fract_y
_atom_site_fract_z
_atom_type_partial_charge
Eu0 Eu 0.13729 0.30754 0.9709 0.0
C1 C 0.49209 0.77774 0.0709 0.0
N2 N 0.42292 0.6727 0.07848 0.0
C3 C 0.50581 0.68171 0.14794 0.0
C4 C 0.56451 0.84234 0.10376 0.0
C5 C 0.42774 0.62325 0.11609 0.0
C6 C 0.57467 0.79216 0.14168 0.0
C7 C 0.56582 0.92764 0.02052 0.0
C8 C 0.4877 0.82148 0.03075 0.0
C9 C 0.63064 -0.00462 0.0547 0.0
C10 C 0.62232 0.9545 0.09769 0.0
Eu11 Eu 0.26802 0.60309 0.03742 0.0
N12 N 0.41033 0.75873 0.00121 0.0
C13 C 0.57655 0.9617 0.97649 0.0
C14 C 0.42046 0.79199 0.95753 0.0
C15 C 0.5063 0.89114 0.94434 0.0
H16 H 0.36812 0.5404 0.12241 0.0
H17 H 0.51363 0.91576 0.9098 0.0
H18 H 0.86488 0.20902 0.90576 0.0
H19 H 0.13622 0.00822 0.12059 0.0
H20 H 0.36432 0.74658 0.9317 0.0
H21 H 0.63787 0.04216 0.96723 0.0
H22 H 0.2288 0.18275 0.08032 0.0
H23 H 0.50697 0.64187 0.178 0.0
H24 H 0.69171 0.07684 0.04755 0.0
H25 H 0.67205 0.00812 0.1242 0.0
H26 H 0.70084 0.03889 0.88706 0.0
H27 H 0.63411 0.8398 0.16598 0.0
H28 H 0.03891 0.83689 0.08057 0.0
N29 N 0.95012 0.13577 0.92877 0.0
C30 C 0.93607 0.03582 0.94328 0.0
C31 C 0.76812 0.0351 0.89989 0.0
C32 C 0.83261 0.91886 0.92713 0.0
C33 C 0.86327 0.13381 0.91046 0.0
C34 C 0.75246 0.93113 0.90759 0.0
N35 N 0.14319 0.1207 0.02172 0.0
C36 C 0.17068 0.11153 0.06354 0.0
C37 C 0.01922 0.90484 0.02128 0.0
C38 C 0.05402 0.0241 0.00354 0.0
C39 C 0.0593 0.90979 0.06349 0.0
C40 C 0.12008 0.01016 0.08562 0.0
H41 H 0.67571 0.86078 0.90001 0.0
H42 H 0.72895 0.74625 0.95094 0.0
H43 H 0.87157 0.74846 0.02733 0.0
O44 O 0.25797 0.3615 0.9138 0.0
O45 O 0.05561 0.35247 0.03339 0.0
O46 O 0.20421 0.44456 0.07234 0.0
O47 O 0.09125 0.28898 0.8987 0.0
O48 O 0.31785 0.37287 0.00088 0.0
O49 O 0.39983 0.55837 0.01992 0.0
O50 O 0.26563 0.73969 0.06764 0.0
O51 O 0.22242 0.60962 0.96862 0.0
O52 O 0.25881 0.47964 0.95623 0.0
O53 O 0.18431 0.58854 0.10132 0.0
O54 O 0.10562 0.56371 0.00447 0.0
O55 O 0.01756 0.38181 0.98042 0.0
C56 C 0.10013 0.38117 0.0735 0.0
C57 C 0.20058 0.25891 0.84344 0.0
C58 C 0.29871 0.22649 0.78022 0.0
C59 C 0.24069 0.11854 0.79146 0.0
C60 C 0.12486 0.1493 0.84063 0.0
C61 C 0.14894 0.07923 0.81781 0.0
C62 C 0.28497 0.30018 0.80956 0.0
C63 C 0.4071 0.47114 0.01025 0.0
C64 C 0.18706 0.3231 0.88183 0.0
C65 C 0.81437 0.80081 0.95024 0.0
C66 C 0.91042 0.7957 -0.0008 0.0
C67 C 0.23521 0.54901 0.93981 0.0
C68 C 0.27758 0.74314 0.14671 0.0
C69 C 0.30457 0.74376 0.22716 0.0
C70 C 0.40938 0.82858 0.22185 0.0
C71 C 0.37508 0.84 0.14455 0.0
C72 C 0.24297 0.69276 0.18865 0.0
C73 C 0.44409 0.87511 0.18098 0.0
C74 C 0.01868 0.47678 0.98851 0.0
C75 C 0.22026 0.69115 0.10477 0.0
H76 H 0.26652 0.06526 0.77852 0.0
H77 H 0.05076 0.11544 0.85936 0.0
H78 H 0.09898 -0.00585 0.82295 0.0
H79 H 0.33894 0.38593 0.80667 0.0
H80 H 0.46573 0.86051 0.24911 0.0
H81 H 0.40278 0.88387 0.11368 0.0
H82 H 0.16799 0.61723 0.1915 0.0
H83 H 0.52609 0.93944 0.17807 0.0
Eu84 Eu 0.81179 0.14657 0.30414 0.0
C85 C 0.6983 0.50356 0.40391 0.0
N86 N 0.73477 0.43503 0.41135 0.0
C87 C 0.81134 0.52088 0.48054 0.0
C88 C 0.7068 0.57689 0.43684 0.0
C89 C 0.79075 0.44167 0.44872 0.0
C90 C 0.76843 0.58859 0.47466 0.0
C91 C 0.62012 0.57498 0.35372 0.0
C92 C 0.64868 0.49744 0.36389 0.0
C93 C 0.61791 0.64072 0.38797 0.0
C94 C 0.65183 0.63397 0.43091 0.0
Eu95 Eu 0.64825 0.27833 0.37059 0.0
N96 N 0.63282 0.41875 0.33444 0.0
C97 C 0.59535 0.58403 0.30973 0.0
C98 C 0.60738 0.42665 0.29087 0.0
C99 C 0.59415 0.51225 0.27762 0.0
H100 H 0.81493 0.38282 0.45482 0.0
H101 H 0.57544 0.51806 0.24313 0.0
H102 H 0.63629 0.87096 0.23996 0.0
H103 H 0.11104 0.14952 0.45452 0.0
H104 H 0.59449 0.36875 0.26522 0.0
H105 H 0.57601 0.64501 0.30047 0.0
H106 H 0.02993 0.24187 0.41392 0.0
H107 H 0.85465 0.52392 0.51018 0.0
H108 H 0.59679 0.70115 0.38092 0.0
H109 H 0.64833 0.68428 0.45748 0.0
H110 H 0.6426 0.70672 0.22077 0.0
H111 H 0.78092 0.64888 0.49896 0.0
H112 H 0.18322 0.0497 0.41494 0.0
N113 N 0.79621 0.95853 0.26181 0.0
C114 C 0.88246 0.94525 0.27638 0.0
C115 C 0.71404 0.77497 0.23332 0.0
C116 C 0.8957 0.84139 0.26022 0.0
C117 C 0.71048 0.87028 0.24405 0.0
C118 C 0.80291 0.76027 0.24067 0.0
N119 N 0.00542 0.15448 0.35524 0.0
C120 C 0.04243 0.18297 0.39719 0.0
C121 C 0.09731 0.03056 0.35494 0.0
C122 C 0.01275 0.06495 0.337 0.0
C123 C 0.1318 0.07079 0.39749 0.0
C124 C 0.09278 0.13249 0.41946 0.0
H125 H 0.79646 0.6833 0.23308 0.0
H126 H 0.96442 0.73833 0.28421 0.0
H127 H 0.10616 0.88299 0.36079 0.0
O128 O 0.87698 0.26613 0.24733 0.0
O129 O 0.68564 0.06542 0.36628 0.0
O130 O 0.74236 0.21455 0.40585 0.0
O131 O 0.78373 0.0988 0.23179 0.0
O132 O 0.92732 0.32776 0.33461 0.0
O133 O 0.82407 0.41025 0.35294 0.0
O134 O 0.50895 0.27525 0.40045 0.0
O135 O 0.59631 0.2306 0.30165 0.0
O136 O 0.76294 0.26877 0.2884 0.0
O137 O 0.5807 0.19688 0.43458 0.0
O138 O 0.52447 0.116 0.33698 0.0
O139 O 0.61772 0.02687 0.31373 0.0
C140 C 0.70136 0.11031 0.40659 0.0
C141 C 0.9218 0.20873 0.17676 0.0
C142 C 0.05142 0.30741 0.11389 0.0
C143 C 0.10279 0.25109 0.12526 0.0
C144 C 0.95714 0.13424 0.1739 0.0
C145 C 0.05147 0.15953 0.1513 0.0
C146 C 0.96371 0.2927 0.14307 0.0
C147 C 0.91843 0.41737 0.34355 0.0
C148 C 0.84435 0.19465 0.21514 0.0
C149 C -0.00437 0.82387 0.28349 0.0
C150 C 0.09743 0.92118 0.33269 0.0
C151 C 0.66905 0.24418 0.27256 0.0
C152 C 0.51745 0.28941 0.47958 0.0
C153 C 0.54071 0.3171 0.56034 0.0
C154 C 0.56259 0.42247 0.55499 0.0
C155 C 0.52036 0.3879 0.4772 0.0
C156 C 0.53033 0.25449 0.52183 0.0
C157 C 0.55429 0.4576 0.51381 0.0
C158 C 0.52401 0.02826 0.32148 0.0
C159 C 0.5129 0.23134 0.43768 0.0
H160 H 0.18226 0.27809 0.11272 0.0
H161 H 0.91794 0.06037 0.19246 0.0
H162 H 0.08786 0.11092 0.15653 0.0
H163 H 0.93088 0.34566 0.14023 0.0
H164 H 0.58567 0.47893 0.58252 0.0
H165 H 0.50515 0.41531 0.44616 0.0
H166 H 0.52943 0.17888 0.52484 0.0
H167 H 0.57295 0.53989 0.51095 0.0
Eu168 Eu 0.64524 0.82639 0.63731 0.0
C169 C 0.17817 0.71583 0.73744 0.0
N170 N 0.28341 0.75292 0.74471 0.0
C171 C 0.27725 0.83631 0.81288 0.0
C172 C 0.1146 0.72613 0.77033 0.0
C173 C 0.33448 0.81264 0.7815 0.0
C174 C 0.16595 0.79071 0.80769 0.0
C175 C 0.02667 0.6345 0.68764 0.0
C176 C 0.13311 0.66376 0.69764 0.0
C177 C 0.96 0.63383 0.72195 0.0
C178 C 0.00231 0.67015 0.76473 0.0
Eu179 Eu 0.35172 0.66378 0.70426 0.0
N180 N 0.19474 0.64633 0.66822 0.0
C181 C -0.00871 0.60757 0.64374 0.0
C182 C 0.15983 0.61864 0.62474 0.0
C183 C 0.06072 0.60499 0.61157 0.0
H184 H 0.41816 0.83864 0.78721 0.0
H185 H 0.03503 0.58472 0.57713 0.0
H186 H 0.74335 0.64831 0.57379 0.0
H187 H 0.9434 0.12762 0.78855 0.0
H188 H 0.20373 0.6042 0.59909 0.0
H189 H 0.91065 0.58768 0.63461 0.0
H190 H 0.77 0.04789 0.74728 0.0
H191 H 0.31941 0.88535 0.84144 0.0
H192 H 0.87817 0.61209 0.71506 0.0
H193 H 0.94937 0.66747 0.79139 0.0
H194 H 0.91302 0.65233 0.55676 0.0
H195 H 0.11902 0.80534 0.83163 0.0
H196 H 0.11538 0.19639 0.74976 0.0
N197 N 0.81651 0.80965 0.59501 0.0
C198 C 0.91645 0.89655 0.60958 0.0
C199 C 0.91687 0.72517 0.56806 0.0
C200 C 0.03309 0.90915 0.59355 0.0
C201 C 0.81839 0.72268 0.57793 0.0
C202 C 0.0207 0.81483 0.5748 0.0
N203 N 0.83211 0.02172 0.68867 0.0
C204 C 0.84123 0.05967 0.73069 0.0
C205 C 0.04793 0.11342 0.68863 0.0
C206 C 0.92856 0.0286 0.67044 0.0
C207 C 0.04268 0.1471 0.73166 0.0
C208 C 0.9421 0.10931 0.75335 0.0
H209 H 0.09088 0.8076 0.56779 0.0
H210 H 0.20529 0.97844 0.61756 0.0
H211 H 0.20417 0.12235 0.69443 0.0
O212 O 0.59105 0.89058 0.58022 0.0
O213 O 0.60232 0.70111 0.6991 0.0
O214 O 0.51075 0.75748 0.73965 0.0
O215 O 0.66372 0.79595 0.56503 0.0
O216 O 0.57973 0.94238 0.66774 0.0
O217 O 0.39474 0.83917 0.68663 0.0
O218 O 0.21666 0.52381 0.73362 0.0
O219 O 0.34601 0.6104 0.63509 0.0
O220 O 0.47378 0.77693 0.62229 0.0
O221 O 0.36638 0.5992 0.76863 0.0
O222 O 0.38921 0.53922 0.67033 0.0
O223 O 0.57086 0.63222 0.64686 0.0
C224 C 0.57336 0.71585 0.73966 0.0
C225 C 0.69324 0.93309 0.50995 0.0
C226 C 0.72569 0.06152 0.44697 0.0
C227 C 0.83359 0.11106 0.45822 0.0
C228 C 0.80252 0.96627 0.50712 0.0
C229 C 0.87259 0.05909 0.48435 0.0
C230 C 0.65207 0.97543 0.47621 0.0
C231 C 0.48147 0.93343 0.67695 0.0
C232 C 0.62942 0.85685 0.5482 0.0
C233 C 0.15111 0.00972 0.61692 0.0
C234 C 0.15693 0.11299 0.66629 0.0
C235 C 0.40399 0.6829 0.60612 0.0
C236 C 0.20989 0.53218 0.81275 0.0
C237 C 0.20113 0.54892 0.89382 0.0
C238 C 0.12068 0.57502 0.88833 0.0
C239 C 0.11707 0.53975 0.80987 0.0
C240 C 0.2541 0.53907 0.85548 0.0
C241 C 0.08181 0.57372 0.84668 0.0
C242 C 0.47605 0.53845 0.65478 0.0
C243 C 0.26464 0.52917 0.77107 0.0
H244 H 0.88701 0.18961 0.44555 0.0
H245 H 0.83632 0.92677 0.52584 0.0
H246 H 0.95753 0.0938 0.48949 0.0
H247 H 0.56649 0.94418 0.47338 0.0
H248 H 0.08585 0.59552 0.91619 0.0
H249 H 0.07559 0.52643 0.77852 0.0
H250 H 0.32706 0.53514 0.85888 0.0
H251 H 0.01963 0.59429 0.84386 0.0
Eu252 Eu 0.79462 0.65107 0.9703 0.0
C253 C 0.43968 0.18469 0.06959 0.0
N254 N 0.50801 0.29029 0.07704 0.0
C255 C 0.41996 0.28557 0.14531 0.0
C256 C 0.36635 0.1218 0.10241 0.0
C257 C 0.50005 0.34222 0.11394 0.0
C258 C 0.35425 0.17402 0.13999 0.0
C259 C 0.37019 0.03107 0.01994 0.0
C260 C 0.44684 0.13832 0.02994 0.0
C261 C 0.30347 0.96562 0.05396 0.0
C262 C 0.30974 0.00922 0.09668 0.0
Eu263 Eu 0.66517 0.35818 0.03697 0.0
N264 N 0.5263 0.19896 0.00085 0.0
C265 C 0.36343 -0.00675 0.97637 0.0
C266 C 0.52044 0.16169 0.95766 0.0
C267 C 0.43587 0.06134 0.94442 0.0
H268 H 0.5579 0.42616 0.11977 0.0
H269 H 0.43153 0.03371 0.91021 0.0
H270 H 0.0701 0.74729 0.90777 0.0
H271 H 0.79576 0.95299 0.12175 0.0
H272 H 0.57937 0.2046 0.93232 0.0
H273 H 0.30375 0.91158 0.96738 0.0
H274 H 0.69985 0.77855 0.08026 0.0
H275 H 0.41375 0.32826 0.17403 0.0
H276 H 0.2432 0.88348 0.04693 0.0
H277 H 0.25981 0.95689 0.12325 0.0
H278 H 0.2373 0.9158 0.8938 0.0
H279 H 0.29375 0.12755 0.16413 0.0
H280 H 0.89755 0.12428 0.08306 0.0
N281 N -0.01743 0.82124 0.92878 0.0
C282 C -0.00435 0.92169 0.94315 0.0
C283 C 0.16832 0.92078 0.90397 0.0
C284 C 0.09986 0.03803 0.92747 0.0
C285 C 0.07142 0.82253 0.9124 0.0
C286 C 0.18253 0.02498 0.91018 0.0
N287 N 0.78634 0.83937 0.0215 0.0
C288 C 0.75883 0.84948 0.06364 0.0
C289 C 0.91049 0.05545 0.02157 0.0
C290 C 0.87576 0.9355 0.0034 0.0
C291 C 0.87321 0.05111 0.06479 0.0
C292 C 0.81127 0.95094 0.08645 0.0
H293 H 0.26047 0.09495 0.90406 0.0
H294 H 0.20263 0.21176 0.95117 0.0
H295 H 0.05771 0.21185 0.02771 0.0
O296 O 0.67634 0.59745 0.91249 0.0
O297 O 0.87855 0.6105 0.03201 0.0
O298 O 0.73128 0.51852 0.07236 0.0
O299 O 0.84357 0.668 0.89829 0.0
O300 O 0.61358 0.5855 0.00061 0.0
O301 O 0.53238 0.401 0.01979 0.0
O302 O 0.67184 0.22462 0.06622 0.0
O303 O 0.71171 0.35138 0.96767 0.0
O304 O 0.67259 0.47854 0.95595 0.0
O305 O 0.74521 0.37515 0.10157 0.0
O306 O 0.82686 0.39592 0.0033 0.0
O307 O 0.91485 0.57725 0.98008 0.0
C308 C 0.83552 0.58144 0.07245 0.0
C309 C 0.73918 0.70139 0.84304 0.0
C310 C 0.64676 0.73824 0.78002 0.0
C311 C 0.71149 0.84637 0.79058 0.0
C312 C 0.81984 0.80926 0.84001 0.0
C313 C 0.8026 0.88201 0.81669 0.0
C314 C 0.65479 0.66284 0.80944 0.0
C315 C 0.5246 0.4875 0.01016 0.0
C316 C 0.74901 0.63587 0.881 0.0
C317 C 0.11725 0.15691 0.95056 0.0
C318 C 0.01984 0.16398 -0.00053 0.0
C319 C 0.69581 0.40844 0.93902 0.0
C320 C 0.65767 0.21921 0.14531 0.0
C321 C 0.6339 0.2108 0.22638 0.0
C322 C 0.52689 0.13091 0.22066 0.0
C323 C 0.55669 0.12686 0.14211 0.0
C324 C 0.69637 0.26325 0.18823 0.0
C325 C 0.48818 0.09228 0.17884 0.0
C326 C 0.91425 0.48278 0.98807 0.0
C327 C 0.71465 0.27365 0.10381 0.0
H328 H 0.69134 0.90229 0.77711 0.0
H329 H 0.89309 0.84062 0.85886 0.0
H330 H 0.858 0.96669 0.82107 0.0
H331 H 0.59668 0.57788 0.80679 0.0
H332 H 0.47225 0.09588 0.24849 0.0
H333 H 0.52774 0.08507 0.11062 0.0
H334 H 0.77387 0.33571 0.1919 0.0
H335 H 0.40523 0.03027 0.17584 0.0
Eu336 Eu 0.12555 0.80446 0.3036 0.0
C337 C 0.23852 0.45146 0.40327 0.0
N338 N 0.2016 0.52012 0.41061 0.0
C339 C 0.12124 0.43576 0.47929 0.0
C340 C 0.22886 0.3794 0.43619 0.0
C341 C 0.14337 0.51415 0.44765 0.0
C342 C 0.16597 0.36915 0.47387 0.0
C343 C 0.32105 0.37993 0.35369 0.0
C344 C 0.29074 0.45693 0.36358 0.0
C345 C 0.32067 0.31456 0.38781 0.0
C346 C 0.2843 0.32232 0.43049 0.0
Eu347 Eu 0.28999 0.67574 0.37033 0.0
N348 N 0.30828 0.53493 0.33429 0.0
C349 C 0.35074 0.37135 0.31012 0.0
C350 C 0.33751 0.52677 0.29101 0.0
C351 C 0.35359 0.44207 0.278 0.0
H352 H 0.11807 0.57263 0.45349 0.0
H353 H 0.37554 0.43617 0.24376 0.0
H354 H 0.30353 0.07801 0.2404 0.0
H355 H 0.82588 0.80862 0.4545 0.0
H356 H 0.35123 0.58378 0.26539 0.0
H357 H 0.37249 0.31135 0.30122 0.0
H358 H 0.90479 0.71247 0.41328 0.0
H359 H 0.07462 0.4319 0.50836 0.0
H360 H 0.34236 0.25407 0.38088 0.0
H361 H 0.28702 0.27313 0.45707 0.0
H362 H 0.30217 0.2448 0.22639 0.0
H363 H 0.1529 0.30997 0.4982 0.0
H364 H 0.75509 0.90814 0.41552 0.0
N365 N 0.14319 -0.00824 0.26238 0.0
C366 C 0.05616 0.0052 0.27669 0.0
C367 C 0.22861 0.1764 0.23701 0.0
C368 C 0.04381 0.10899 0.26101 0.0
C369 C 0.23003 0.07974 0.24545 0.0
C370 C 0.13913 0.19111 0.24365 0.0
N371 N 0.92989 0.79744 0.35461 0.0
C372 C 0.89266 0.7709 0.39665 0.0
C373 C 0.838 0.92135 0.35455 0.0
C374 C 0.92309 0.88648 0.33657 0.0
C375 C 0.80468 0.88437 0.39751 0.0
C376 C 0.84336 0.82339 0.41929 0.0
H377 H 0.14707 0.2689 0.2375 0.0
H378 H -0.02737 0.21208 0.28451 0.0
H379 H 0.8288 0.0687 0.36082 0.0
O380 O 0.05922 0.68483 0.24548 0.0
O381 O 0.25081 0.88954 0.36552 0.0
O382 O 0.1956 0.7423 0.40515 0.0
O383 O 0.15687 0.85189 0.23175 0.0
O384 O 0.01059 0.62363 0.33349 0.0
O385 O 0.11379 0.5429 0.35318 0.0
O386 O 0.43012 0.68272 0.39998 0.0
O387 O 0.343 0.71986 0.30108 0.0
O388 O 0.17731 0.68306 0.29012 0.0
O389 O 0.35409 0.75791 0.43498 0.0
O390 O 0.41317 0.83723 0.33713 0.0
O391 O 0.31974 0.92443 0.31332 0.0
C392 C 0.23693 0.84666 0.40574 0.0
C393 C 0.0177 0.7476 0.17631 0.0
C394 C 0.88736 0.65531 0.11301 0.0
C395 C 0.8457 0.72164 0.12347 0.0
C396 C -0.00794 0.82935 0.17339 0.0
C397 C 0.90233 0.81302 0.14992 0.0
C398 C -0.02956 0.66263 0.14253 0.0
C399 C 0.01957 0.53495 0.34335 0.0
C400 C 0.09335 0.75713 0.21421 0.0
C401 C 0.94245 0.12668 0.28394 0.0
C402 C 0.83861 0.03016 0.33259 0.0
C403 C 0.26962 0.70515 0.27269 0.0
C404 C 0.42118 0.67021 0.47907 0.0
C405 C 0.40312 0.6469 0.56001 0.0
C406 C 0.37851 0.54051 0.55417 0.0
C407 C 0.4153 0.57032 0.47592 0.0
C408 C 0.41292 0.70844 0.52188 0.0
C409 C 0.38176 0.50226 0.51246 0.0
C410 C 0.41348 0.92389 0.32153 0.0
C411 C 0.42424 0.72654 0.43754 0.0
H412 H 0.77039 0.70283 0.10947 0.0
H413 H 0.03511 0.903 0.19235 0.0
H414 H 0.87457 0.86973 0.15414 0.0
H415 H -0.00387 0.60364 0.13976 0.0
H416 H 0.3581 0.48596 0.58179 0.0
H417 H 0.42894 0.5412 0.44451 0.0
H418 H 0.41631 0.7853 0.52552 0.0
H419 H 0.36195 0.41955 0.50936 0.0
Eu420 Eu 0.30106 0.13977 0.63729 0.0
C421 C 0.76954 0.25582 0.73658 0.0
N422 N 0.66427 0.21945 0.74414 0.0
C423 C 0.67095 0.14423 0.81346 0.0
C424 C 0.83299 0.24757 0.76942 0.0
C425 C 0.61356 0.16413 0.78163 0.0
C426 C 0.78164 0.18683 0.8074 0.0
C427 C 0.92167 0.33531 0.68656 0.0
C428 C 0.81489 0.30586 0.69666 0.0
C429 C -0.01222 0.33635 0.72058 0.0
C430 C 0.94525 0.3022 0.76341 0.0
Eu431 Eu 0.59594 0.30581 0.70355 0.0
N432 N 0.75355 0.32209 0.66737 0.0
C433 C 0.95834 0.36275 0.64287 0.0
C434 C 0.78938 0.34912 0.62399 0.0
C435 C 0.88952 0.36437 0.61083 0.0
H436 H 0.53042 0.14024 0.78786 0.0
H437 H 0.91622 0.38469 0.57651 0.0
H438 H 0.20509 0.31633 0.57355 0.0
H439 H -0.00193 0.84182 0.7872 0.0
H440 H 0.74529 0.36167 0.59839 0.0
H441 H 0.03965 0.38389 0.63383 0.0
H442 H 0.17318 0.92262 0.7467 0.0
H443 H 0.63001 0.10196 0.84337 0.0
H444 H 0.06957 0.3574 0.71345 0.0
H445 H -0.00205 0.30579 0.7899 0.0
H446 H 0.03657 0.31363 0.55819 0.0
H447 H 0.82842 0.17513 0.83184 0.0
H448 H 0.82782 0.76733 0.74732 0.0
N449 N 0.13098 0.15686 0.59595 0.0
C450 C 0.03063 0.07041 0.61024 0.0
C451 C 0.03165 0.24087 0.56946 0.0
C452 C 0.91432 0.05766 0.59444 0.0
C453 C 0.1298 0.24294 0.57858 0.0
C454 C 0.92745 0.15192 0.57642 0.0
N455 N 0.11279 0.9456 0.68792 0.0
C456 C 0.1025 0.90934 0.72989 0.0
C457 C 0.89718 0.8538 0.6876 0.0
C458 C 0.01687 0.93863 0.66988 0.0
C459 C 0.90107 0.81923 0.73001 0.0
C460 C 0.00075 0.85915 0.75211 0.0
H461 H 0.8576 0.15942 0.5698 0.0
H462 H 0.74056 -0.01277 0.61792 0.0
H463 H 0.74113 0.84523 0.69399 0.0
O464 O 0.35404 0.07233 0.57942 0.0
O465 O 0.34385 0.26606 0.69964 0.0
O466 O 0.43636 0.21065 0.73846 0.0
O467 O 0.28432 0.16932 0.56539 0.0
O468 O 0.36707 0.02526 0.66707 0.0
O469 O 0.55176 0.12912 0.68634 0.0
O470 O 0.73083 0.44546 0.73365 0.0
O471 O 0.60331 0.35735 0.63451 0.0
O472 O 0.47372 0.19101 0.62321 0.0
O473 O 0.57922 0.37334 0.76777 0.0
O474 O 0.55664 0.42819 0.67064 0.0
O475 O 0.37529 0.33399 0.64704 0.0
C476 C 0.37276 0.25112 0.73964 0.0
C477 C 0.25049 0.02931 0.50981 0.0
C478 C 0.21406 0.89812 0.44635 0.0
C479 C 0.10601 0.85386 0.45694 0.0
C480 C 0.14244 0.00104 0.50689 0.0
C481 C 0.06993 0.9095 0.48347 0.0
C482 C 0.28924 -0.01702 0.47594 0.0
C483 C 0.46499 0.03451 0.67671 0.0
C484 C 0.3161 0.10592 0.54799 0.0
C485 C 0.79554 0.95689 0.61726 0.0
C486 C 0.7889 0.85419 0.66576 0.0
C487 C 0.54362 0.28329 0.60602 0.0
C488 C 0.73313 0.43591 0.81271 0.0
C489 C 0.73374 0.41069 0.89323 0.0
C490 C 0.8184 0.39051 0.88757 0.0
C491 C 0.82959 0.43466 0.81009 0.0
C492 C 0.68294 0.42109 0.85495 0.0
C493 C 0.86432 0.40089 0.84638 0.0
C494 C 0.46991 0.42795 0.65506 0.0
C495 C 0.68143 0.44104 0.77099 0.0
H496 H 0.05045 0.77702 0.44315 0.0
H497 H 0.11096 0.04349 0.52587 0.0
H498 H -0.01476 0.87936 0.48797 0.0
H499 H 0.37424 0.01056 0.47321 0.0
H500 H 0.85096 0.3675 0.91485 0.0
H501 H 0.8735 0.45039 0.779 0.0
H502 H 0.6078 0.4212 0.85817 0.0
H503 H 0.92841 0.38296 0.84322 0.0
loop_
_geom_bond_atom_site_label_1
_geom_bond_atom_site_label_2
_geom_bond_distance
_geom_bond_site_symmetry_2
_ccdc_geom_bond_type
Eu0 N29 2.600 1_455 S
Eu0 N35 2.562 1_556 S
Eu0 O44 2.462 . S
Eu0 O45 2.373 1_556 S
Eu0 O47 2.432 . S
Eu0 O48 2.291 1_556 S
Eu0 O52 2.335 . S
Eu0 O55 2.372 . S
Eu0 C64 2.787 . S
C1 N2 1.365 . S
C1 C4 1.405 . S
C1 C8 1.448 . S
N2 C1 1.365 . S
N2 C5 1.319 . S
N2 Eu11 2.600 . S
C3 C5 1.397 . S
C3 C6 1.367 . S
C3 H23 0.931 . S
C4 C1 1.405 . S
C4 C6 1.403 . S
C4 C10 1.439 1_554 S
C5 N2 1.319 . S
C5 C3 1.397 . S
C5 H16 0.930 . S
C6 C3 1.367 . S
C6 C4 1.403 . S
C6 H27 0.929 . S
C7 C8 1.430 1_556 S
C7 C9 1.387 1_565 S
C7 C13 1.404 . S
C8 C1 1.448 . S
C8 C7 1.430 1_554 S
C8 N12 1.351 . S
C9 C7 1.387 1_545 S
C9 C10 1.374 1_545 S
C9 H24 0.931 . S
C10 C4 1.439 1_556 S
C10 C9 1.374 1_565 S
C10 H25 0.931 1_565 S
Eu11 N2 2.600 . S
Eu11 N12 2.562 . S
Eu11 O46 2.335 . S
Eu11 O49 2.372 . S
Eu11 O50 2.462 . S
Eu11 O51 2.373 1_554 S
Eu11 O53 2.432 . S
Eu11 O54 2.291 . S
Eu11 C75 2.787 . S
N12 C8 1.351 . S
N12 Eu11 2.562 . S
N12 C14 1.325 . S
C13 C7 1.404 . S
C13 C15 1.366 . S
C13 H21 0.930 . S
C14 N12 1.325 . S
C14 C15 1.416 1_554 S
C14 H20 0.929 . S
C15 C13 1.366 . S
C15 C14 1.416 1_556 S
C15 H17 0.930 . S
H16 C5 0.930 . S
H17 C15 0.930 . S
H18 C33 0.930 . S
H19 C40 0.930 . S
H20 C14 0.929 . S
H21 C13 0.930 . S
H22 C36 0.929 . S
H23 C3 0.931 . S
H24 C9 0.931 . S
H25 C10 0.931 1_545 S
H26 C31 0.931 . S
H27 C6 0.929 . S
H28 C39 0.930 . S
N29 Eu0 2.600 1_655 S
N29 C30 1.365 1_546 S
N29 C33 1.319 . S
C30 N29 1.365 1_564 S
C30 C32 1.405 . S
C30 C38 1.448 . S
C31 H26 0.931 . S
C31 C33 1.397 . S
C31 C34 1.368 1_545 S
C32 C30 1.405 . S
C32 C34 1.403 1_554 S
C32 C65 1.439 . S
C33 H18 0.930 . S
C33 N29 1.319 . S
C33 C31 1.397 . S
C34 C31 1.368 1_565 S
C34 C32 1.403 1_556 S
C34 H41 0.929 1_556 S
N35 Eu0 2.562 1_554 S
N35 C36 1.325 . S
N35 C38 1.351 1_445 S
C36 H22 0.929 . S
C36 N35 1.325 . S
C36 C40 1.416 1_545 S
C37 C38 1.430 . S
C37 C39 1.404 1_655 S
C37 C66 1.387 . S
C38 C30 1.448 . S
C38 N35 1.351 1_665 S
C38 C37 1.430 . S
C39 H28 0.930 . S
C39 C37 1.404 1_455 S
C39 C40 1.366 . S
C40 H19 0.930 . S
C40 C36 1.416 1_565 S
C40 C39 1.366 . S
H41 C34 0.929 1_554 S
H42 C65 0.931 . S
H43 C66 0.931 . S
O44 Eu0 2.462 . S
O44 C64 1.252 . S
O45 Eu0 2.373 1_554 S
O45 C56 1.249 . S
O46 Eu11 2.335 . S
O46 C56 1.264 . S
O47 Eu0 2.432 . S
O47 C64 1.268 . S
O48 Eu0 2.291 1_554 S
O48 C63 1.255 . S
O49 Eu11 2.372 . S
O49 C63 1.257 . S
O50 Eu11 2.462 . S
O50 C75 1.252 . S
O51 Eu11 2.373 1_556 S
O51 C67 1.249 . S
O52 Eu0 2.335 . S
O52 C67 1.264 . S
O53 Eu11 2.432 . S
O53 C75 1.268 . S
O54 Eu11 2.291 . S
O54 C74 1.255 . S
O55 Eu0 2.372 . S
O55 C74 1.257 1_556 S
C56 O45 1.249 . S
C56 O46 1.264 . S
C57 C60 1.382 . S
C57 C62 1.390 . S
C57 C64 1.506 . S
C58 C59 1.398 . S
C58 C62 1.392 . S
C59 C58 1.398 . S
C59 C61 1.372 . S
C59 H76 0.931 1_545 S
C60 C57 1.382 . S
C60 C61 1.390 . S
C60 H77 0.931 1_455 S
C61 C59 1.372 . S
C61 C60 1.390 . S
C61 H78 0.923 1_455 S
C62 C57 1.390 . S
C62 C58 1.392 . S
C62 H79 0.930 . S
C63 O48 1.255 . S
C63 O49 1.257 . S
C64 Eu0 2.787 . S
C64 O44 1.252 . S
C64 O47 1.268 . S
C64 C57 1.506 . S
C65 C32 1.439 . S
C65 H42 0.931 . S
C65 C66 1.374 . S
C66 C37 1.387 . S
C66 H43 0.931 . S
C66 C65 1.374 . S
C67 O51 1.249 . S
C67 O52 1.264 . S
C68 C71 1.382 . S
C68 C72 1.390 . S
C68 C75 1.506 . S
C69 C70 1.398 . S
C69 C72 1.392 . S
C70 C69 1.398 . S
C70 C73 1.372 . S
C70 H80 0.931 . S
C71 C68 1.382 . S
C71 C73 1.390 . S
C71 H81 0.931 . S
C72 C68 1.390 . S
C72 C69 1.392 . S
C72 H82 0.930 . S
C73 C70 1.372 . S
C73 C71 1.390 . S
C73 H83 0.929 . S
C74 O54 1.255 . S
C74 O55 1.257 1_554 S
C75 Eu11 2.787 . S
C75 O50 1.252 . S
C75 O53 1.268 . S
C75 C68 1.506 . S
H76 C59 0.931 1_565 S
H77 C60 0.931 1_655 S
H78 C61 0.923 1_655 S
H79 C62 0.930 . S
H80 C70 0.931 . S
H81 C71 0.931 . S
H82 C72 0.930 . S
H83 C73 0.929 . S
Eu84 N113 2.600 1_545 S
Eu84 N119 2.562 1_655 S
Eu84 O128 2.462 1_655 S
Eu84 O129 2.373 . S
Eu84 O131 2.432 . S
Eu84 O132 2.291 . S
Eu84 O136 2.335 . S
Eu84 O139 2.372 . S
Eu84 C148 2.787 . S
C85 N86 1.365 . S
C85 C88 1.405 . S
C85 C92 1.448 . S
N86 C85 1.365 . S
N86 C89 1.319 . S
N86 Eu95 2.600 . S
C87 C89 1.397 . S
C87 C90 1.367 . S
C87 H107 0.931 . S
C88 C85 1.405 . S
C88 C90 1.403 . S
C88 C94 1.439 . S
C89 N86 1.319 . S
C89 C87 1.397 . S
C89 H100 0.930 . S
C90 C87 1.367 . S
C90 C88 1.403 . S
C90 H111 0.929 . S
C91 C92 1.430 . S
C91 C93 1.387 . S
C91 C97 1.404 . S
C92 C85 1.448 . S
C92 C91 1.430 . S
C92 N96 1.351 . S
C93 C91 1.387 . S
C93 C94 1.374 . S
C93 H108 0.931 . S
C94 C88 1.439 . S
C94 C93 1.374 . S
C94 H109 0.931 . S
Eu95 N86 2.600 . S
Eu95 N96 2.562 . S
Eu95 O130 2.335 . S
Eu95 O133 2.372 . S
Eu95 O134 2.462 . S
Eu95 O135 2.373 . S
Eu95 O137 2.432 . S
Eu95 O138 2.291 . S
Eu95 C159 2.787 . S
N96 C92 1.351 . S
N96 Eu95 2.562 . S
N96 C98 1.325 . S
C97 C91 1.404 . S
C97 C99 1.366 . S
C97 H105 0.930 . S
C98 N96 1.325 . S
C98 C99 1.416 . S
C98 H104 0.929 . S
C99 C97 1.366 . S
C99 C98 1.416 . S
C99 H101 0.930 . S
H100 C89 0.930 . S
H101 C99 0.930 . S
H102 C117 0.930 . S
H103 C124 0.930 . S
H104 C98 0.929 . S
H105 C97 0.930 . S
H106 C120 0.929 . S
H107 C87 0.931 . S
H108 C93 0.931 . S
H109 C94 0.931 . S
H110 C115 0.931 . S
H111 C90 0.929 . S
H112 C123 0.930 . S
N113 Eu84 2.600 1_565 S
N113 C114 1.365 . S
N113 C117 1.319 . S
C114 N113 1.365 . S
C114 C116 1.405 . S
C114 C122 1.448 1_655 S
C115 H110 0.931 . S
C115 C117 1.397 . S
C115 C118 1.367 . S
C116 C114 1.405 . S
C116 C118 1.403 . S
C116 C149 1.439 . S
C117 H102 0.930 . S
C117 N113 1.319 . S
C117 C115 1.397 . S
C118 C115 1.367 . S
C118 C116 1.403 . S
C118 H125 0.929 . S
N119 Eu84 2.562 1_455 S
N119 C120 1.325 . S
N119 C122 1.351 1_545 S
C120 H106 0.929 . S
C120 N119 1.325 . S
C120 C124 1.416 . S
C121 C122 1.430 . S
C121 C123 1.404 1_565 S
C121 C150 1.387 . S
C122 C114 1.448 1_455 S
C122 N119 1.351 1_565 S
C122 C121 1.430 . S
C123 H112 0.930 . S
C123 C121 1.404 1_545 S
C123 C124 1.366 . S
C124 H103 0.930 . S
C124 C120 1.416 . S
C124 C123 1.366 . S
H125 C118 0.929 . S
H126 C149 0.931 . S
H127 C150 0.931 . S
O128 Eu84 2.462 1_455 S
O128 C148 1.252 1_455 S
O129 Eu84 2.373 . S
O129 C140 1.249 . S
O130 Eu95 2.335 . S
O130 C140 1.264 . S
O131 Eu84 2.432 . S
O131 C148 1.268 . S
O132 Eu84 2.291 . S
O132 C147 1.255 1_655 S
O133 Eu95 2.372 . S
O133 C147 1.257 1_655 S
O134 Eu95 2.462 . S
O134 C159 1.252 . S
O135 Eu95 2.373 . S
O135 C151 1.249 . S
O136 Eu84 2.335 . S
O136 C151 1.264 . S
O137 Eu95 2.432 . S
O137 C159 1.268 . S
O138 Eu95 2.291 . S
O138 C158 1.255 . S
O139 Eu84 2.372 . S
O139 C158 1.257 . S
C140 O129 1.249 . S
C140 O130 1.264 . S
C141 C144 1.382 1_455 S
C141 C146 1.390 . S
C141 C148 1.506 1_455 S
C142 C143 1.398 . S
C142 C146 1.392 . S
C143 C142 1.398 . S
C143 C145 1.372 . S
C143 H160 0.931 . S
C144 C141 1.382 1_655 S
C144 C145 1.390 1_655 S
C144 H161 0.931 1_545 S
C145 C143 1.372 . S
C145 C144 1.390 1_455 S
C145 H162 0.924 1_445 S
C146 C141 1.390 . S
C146 C142 1.392 . S
C146 H163 0.930 . S
C147 O132 1.255 1_455 S
C147 O133 1.257 1_455 S
C148 Eu84 2.787 . S
C148 O128 1.252 1_655 S
C148 O131 1.268 . S
C148 C141 1.506 1_655 S
C149 C116 1.439 . S
C149 H126 0.931 . S
C149 C150 1.374 1_655 S
C150 C121 1.387 . S
C150 H127 0.931 . S
C150 C149 1.374 1_455 S
C151 O135 1.249 . S
C151 O136 1.264 . S
C152 C155 1.382 . S
C152 C156 1.390 . S
C152 C159 1.506 . S
C153 C154 1.398 . S
C153 C156 1.392 . S
C154 C153 1.398 . S
C154 C157 1.372 . S
C154 H164 0.931 . S
C155 C152 1.382 . S
C155 C157 1.390 . S
C155 H165 0.931 . S
C156 C152 1.390 . S
C156 C153 1.392 . S
C156 H166 0.930 . S
C157 C154 1.372 . S
C157 C155 1.390 . S
C157 H167 0.929 . S
C158 O138 1.255 . S
C158 O139 1.257 . S
C159 Eu95 2.787 . S
C159 O134 1.252 . S
C159 O137 1.268 . S
C159 C152 1.506 . S
H160 C143 0.931 . S
H161 C144 0.931 1_565 S
H162 C145 0.924 1_665 S
H163 C146 0.930 . S
H164 C154 0.931 . S
H165 C155 0.931 . S
H166 C156 0.930 . S
H167 C157 0.929 . S
Eu168 N197 2.600 . S
Eu168 N203 2.562 1_565 S
Eu168 O212 2.462 1_565 S
Eu168 O213 2.373 . S
Eu168 O215 2.432 . S
Eu168 O216 2.291 . S
Eu168 O220 2.335 . S
Eu168 O223 2.372 . S
Eu168 C232 2.787 . S
C169 N170 1.365 . S
C169 C172 1.405 . S
C169 C176 1.448 . S
N170 C169 1.365 . S
N170 C173 1.319 . S
N170 Eu179 2.600 . S
C171 C173 1.397 . S
C171 C174 1.367 . S
C171 H191 0.931 . S
C172 C169 1.405 . S
C172 C174 1.403 . S
C172 C178 1.439 . S
C173 N170 1.319 . S
C173 C171 1.397 . S
C173 H184 0.930 . S
C174 C171 1.367 . S
C174 C172 1.403 . S
C174 H195 0.929 . S
C175 C176 1.430 . S
C175 C177 1.387 1_455 S
C175 C181 1.404 . S
C176 C169 1.448 . S
C176 C175 1.430 . S
C176 N180 1.351 . S
C177 C175 1.387 1_655 S
C177 C178 1.374 1_655 S
C177 H192 0.931 . S
C178 C172 1.439 . S
C178 C177 1.374 1_455 S
C178 H193 0.931 1_455 S
Eu179 N170 2.600 . S
Eu179 N180 2.562 . S
Eu179 O214 2.335 . S
Eu179 O217 2.372 . S
Eu179 O218 2.462 . S
Eu179 O219 2.373 . S
Eu179 O221 2.432 . S
Eu179 O222 2.291 . S
Eu179 C243 2.787 . S
N180 C176 1.351 . S
N180 Eu179 2.562 . S
N180 C182 1.325 . S
C181 C175 1.404 . S
C181 C183 1.366 . S
C181 H189 0.930 . S
C182 N180 1.325 . S
C182 C183 1.416 . S
C182 H188 0.929 . S
C183 C181 1.366 . S
C183 C182 1.416 . S
C183 H185 0.930 . S
H184 C173 0.930 . S
H185 C183 0.930 . S
H186 C201 0.930 . S
H187 C208 0.930 . S
H188 C182 0.929 . S
H189 C181 0.930 . S
H190 C204 0.929 . S
H191 C171 0.931 . S
H192 C177 0.931 . S
H193 C178 0.931 1_655 S
H194 C199 0.931 . S
H195 C174 0.929 . S
H196 C207 0.930 . S
N197 Eu168 2.600 . S
N197 C198 1.365 1_655 S
N197 C201 1.319 . S
C198 N197 1.365 1_455 S
C198 C200 1.405 . S
C198 C206 1.448 1_565 S
C199 H194 0.931 . S
C199 C201 1.397 . S
C199 C202 1.367 1_655 S
C200 C198 1.405 . S
C200 C202 1.403 . S
C200 C233 1.439 . S
C201 H186 0.930 . S
C201 N197 1.319 . S
C201 C199 1.397 . S
C202 C199 1.367 1_455 S
C202 C200 1.403 . S
C202 H209 0.929 . S
N203 Eu168 2.562 1_545 S
N203 C204 1.325 . S
N203 C206 1.351 1_655 S
C204 H190 0.929 . S
C204 N203 1.325 . S
C204 C208 1.416 1_655 S
C205 C206 1.430 . S
C205 C207 1.404 . S
C205 C234 1.387 . S
C206 C198 1.448 1_545 S
C206 N203 1.351 1_455 S
C206 C205 1.430 . S
C207 H196 0.930 . S
C207 C205 1.404 . S
C207 C208 1.366 . S
C208 H187 0.930 . S
C208 C204 1.416 1_455 S
C208 C207 1.366 . S
H209 C202 0.929 . S
H210 C233 0.931 . S
H211 C234 0.931 . S
O212 Eu168 2.462 1_545 S
O212 C232 1.252 1_545 S
O213 Eu168 2.373 . S
O213 C224 1.249 . S
O214 Eu179 2.335 . S
O214 C224 1.264 . S
O215 Eu168 2.432 . S
O215 C232 1.268 . S
O216 Eu168 2.291 . S
O216 C231 1.255 1_565 S
O217 Eu179 2.372 . S
O217 C231 1.257 1_565 S
O218 Eu179 2.462 . S
O218 C243 1.252 . S
O219 Eu179 2.373 . S
O219 C235 1.249 . S
O220 Eu168 2.335 . S
O220 C235 1.264 . S
O221 Eu179 2.432 . S
O221 C243 1.268 . S
O222 Eu179 2.291 . S
O222 C242 1.255 . S
O223 Eu168 2.372 . S
O223 C242 1.257 . S
C224 O213 1.249 . S
C224 O214 1.264 . S
C225 C228 1.382 1_545 S
C225 C230 1.390 . S
C225 C232 1.506 1_545 S
C226 C227 1.398 . S
C226 C230 1.392 . S
C227 C226 1.398 . S
C227 C229 1.372 . S
C227 H244 0.931 1_655 S
C228 C225 1.382 1_565 S
C228 C229 1.390 1_565 S
C228 H245 0.931 . S
C229 C227 1.372 . S
C229 C228 1.390 1_545 S
C229 H246 0.929 1_545 S
C230 C225 1.390 . S
C230 C226 1.392 . S
C230 H247 0.930 . S
C231 O216 1.255 1_545 S
C231 O217 1.257 1_545 S
C232 Eu168 2.787 . S
C232 O212 1.252 1_565 S
C232 O215 1.268 . S
C232 C225 1.506 1_565 S
C233 C200 1.439 . S
C233 H210 0.931 . S
C233 C234 1.374 1_565 S
C234 C205 1.387 . S
C234 H211 0.931 . S
C234 C233 1.374 1_545 S
C235 O219 1.249 . S
C235 O220 1.264 . S
C236 C239 1.382 . S
C236 C240 1.390 . S
C236 C243 1.506 . S
C237 C238 1.398 . S
C237 C240 1.392 . S
C238 C237 1.398 . S
C238 C241 1.372 . S
C238 H248 0.931 . S
C239 C236 1.382 . S
C239 C241 1.390 . S
C239 H249 0.931 . S
C240 C236 1.390 . S
C240 C237 1.392 . S
C240 H250 0.930 . S
C241 C238 1.372 . S
C241 C239 1.390 . S
C241 H251 0.929 . S
C242 O222 1.255 . S
C242 O223 1.257 . S
C243 Eu179 2.787 . S
C243 O218 1.252 . S
C243 O221 1.268 . S
C243 C236 1.506 . S
H244 C227 0.931 1_455 S
H245 C228 0.931 . S
H246 C229 0.929 1_565 S
H247 C230 0.930 . S
H248 C238 0.931 . S
H249 C239 0.931 . S
H250 C240 0.930 . S
H251 C241 0.929 . S
Eu252 N281 2.600 1_655 S
Eu252 N287 2.562 1_556 S
Eu252 O296 2.462 . S
Eu252 O297 2.373 1_556 S
Eu252 O299 2.432 . S
Eu252 O300 2.291 1_556 S
Eu252 O304 2.335 . S
Eu252 O307 2.372 . S
Eu252 C316 2.787 . S
C253 N254 1.365 . S
C253 C256 1.405 . S
C253 C260 1.448 . S
N254 C253 1.365 . S
N254 C257 1.319 . S
N254 Eu263 2.600 . S
C255 C257 1.397 . S
C255 C258 1.367 . S
C255 H275 0.931 . S
C256 C253 1.405 . S
C256 C258 1.403 . S
C256 C262 1.439 1_554 S
C257 N254 1.319 . S
C257 C255 1.397 . S
C257 H268 0.930 . S
C258 C255 1.367 . S
C258 C256 1.403 . S
C258 H279 0.929 . S
C259 C260 1.430 1_556 S
C259 C261 1.387 1_545 S
C259 C265 1.404 . S
C260 C253 1.448 . S
C260 C259 1.430 1_554 S
C260 N264 1.351 . S
C261 C259 1.387 1_565 S
C261 C262 1.374 1_565 S
C261 H276 0.931 . S
C262 C256 1.439 1_556 S
C262 C261 1.374 1_545 S
C262 H277 0.931 1_545 S
Eu263 N254 2.600 . S
Eu263 N264 2.562 . S
Eu263 O298 2.335 . S
Eu263 O301 2.372 . S
Eu263 O302 2.462 . S
Eu263 O303 2.373 1_554 S
Eu263 O305 2.432 . S
Eu263 O306 2.291 . S
Eu263 C327 2.787 . S
N264 C260 1.351 . S
N264 Eu263 2.562 . S
N264 C266 1.325 . S
C265 C259 1.404 . S
C265 C267 1.366 . S
C265 H273 0.930 . S
C266 N264 1.325 . S
C266 C267 1.416 1_554 S
C266 H272 0.929 . S
C267 C265 1.366 . S
C267 C266 1.416 1_556 S
C267 H269 0.930 . S
H268 C257 0.930 . S
H269 C267 0.930 . S
H270 C285 0.930 . S
H271 C292 0.930 . S
H272 C266 0.929 . S
H273 C265 0.930 . S
H274 C288 0.929 . S
H275 C255 0.931 . S
H276 C261 0.931 . S
H277 C262 0.931 1_565 S
H278 C283 0.931 . S
H279 C258 0.929 . S
H280 C291 0.930 . S
N281 Eu252 2.600 1_455 S
N281 C282 1.365 1_566 S
N281 C285 1.319 . S
C282 N281 1.365 1_544 S
C282 C284 1.405 . S
C282 C290 1.448 . S
C283 H278 0.931 . S
C283 C285 1.397 . S
C283 C286 1.368 1_565 S
C284 C282 1.405 . S
C284 C286 1.403 1_554 S
C284 C317 1.439 . S
C285 H270 0.930 . S
C285 N281 1.319 . S
C285 C283 1.397 . S
C286 C283 1.368 1_545 S
C286 C284 1.403 1_556 S
C286 H293 0.929 1_556 S
N287 Eu252 2.562 1_554 S
N287 C288 1.325 . S
N287 C290 1.351 1_665 S
C288 H274 0.929 . S
C288 N287 1.325 . S
C288 C292 1.416 1_565 S
C289 C290 1.430 . S
C289 C291 1.404 1_455 S
C289 C318 1.387 . S
C290 C282 1.448 . S
C290 N287 1.351 1_445 S
C290 C289 1.430 . S
C291 H280 0.930 . S
C291 C289 1.404 1_655 S
C291 C292 1.366 . S
C292 H271 0.930 . S
C292 C288 1.416 1_545 S
C292 C291 1.366 . S
H293 C286 0.929 1_554 S
H294 C317 0.931 . S
H295 C318 0.931 . S
O296 Eu252 2.462 . S
O296 C316 1.252 . S
O297 Eu252 2.373 1_554 S
O297 C308 1.249 . S
O298 Eu263 2.335 . S
O298 C308 1.264 . S
O299 Eu252 2.432 . S
O299 C316 1.268 . S
O300 Eu252 2.291 1_554 S
O300 C315 1.255 . S
O301 Eu263 2.372 . S
O301 C315 1.257 . S
O302 Eu263 2.462 . S
O302 C327 1.252 . S
O303 Eu263 2.373 1_556 S
O303 C319 1.249 . S
O304 Eu252 2.335 . S
O304 C319 1.264 . S
O305 Eu263 2.432 . S
O305 C327 1.268 . S
O306 Eu263 2.291 . S
O306 C326 1.255 . S
O307 Eu252 2.372 . S
O307 C326 1.257 1_556 S
C308 O297 1.249 . S
C308 O298 1.264 . S
C309 C312 1.382 . S
C309 C314 1.390 . S
C309 C316 1.506 . S
C310 C311 1.398 . S
C310 C314 1.392 . S
C311 C310 1.398 . S
C311 C313 1.372 . S
C311 H328 0.931 1_565 S
C312 C309 1.382 . S
C312 C313 1.390 . S
C312 H329 0.931 1_655 S
C313 C311 1.372 . S
C313 C312 1.390 . S
C313 H330 0.923 1_655 S
C314 C309 1.390 . S
C314 C310 1.392 . S
C314 H331 0.930 . S
C315 O300 1.255 . S
C315 O301 1.257 . S
C316 Eu252 2.787 . S
C316 O296 1.252 . S
C316 O299 1.268 . S
C316 C309 1.506 . S
C317 C284 1.439 . S
C317 H294 0.931 . S
C317 C318 1.374 . S
C318 C289 1.387 . S
C318 H295 0.931 . S
C318 C317 1.374 . S
C319 O303 1.249 . S
C319 O304 1.264 . S
C320 C323 1.382 . S
C320 C324 1.390 . S
C320 C327 1.506 . S
C321 C322 1.398 . S
C321 C324 1.392 . S
C322 C321 1.398 . S
C322 C325 1.372 . S
C322 H332 0.931 . S
C323 C320 1.382 . S
C323 C325 1.390 . S
C323 H333 0.931 . S
C324 C320 1.390 . S
C324 C321 1.392 . S
C324 H334 0.930 . S
C325 C322 1.372 . S
C325 C323 1.390 . S
C325 H335 0.929 . S
C326 O306 1.255 . S
C326 O307 1.257 1_554 S
C327 Eu263 2.787 . S
C327 O302 1.252 . S
C327 O305 1.268 . S
C327 C320 1.506 . S
H328 C311 0.931 1_545 S
H329 C312 0.931 1_455 S
H330 C313 0.923 1_455 S
H331 C314 0.930 . S
H332 C322 0.931 . S
H333 C323 0.931 . S
H334 C324 0.930 . S
H335 C325 0.929 . S
Eu336 N365 2.600 1_565 S
Eu336 N371 2.562 1_455 S
Eu336 O380 2.462 1_455 S
Eu336 O381 2.373 . S
Eu336 O383 2.432 . S
Eu336 O384 2.291 . S
Eu336 O388 2.335 . S
Eu336 O391 2.372 . S
Eu336 C400 2.787 . S
C337 N338 1.365 . S
C337 C340 1.405 . S
C337 C344 1.448 . S
N338 C337 1.365 . S
N338 C341 1.319 . S
N338 Eu347 2.600 . S
C339 C341 1.397 . S
C339 C342 1.367 . S
C339 H359 0.931 . S
C340 C337 1.405 . S
C340 C342 1.403 . S
C340 C346 1.439 . S
C341 N338 1.319 . S
C341 C339 1.397 . S
C341 H352 0.930 . S
C342 C339 1.367 . S
C342 C340 1.403 . S
C342 H363 0.929 . S
C343 C344 1.430 . S
C343 C345 1.387 . S
C343 C349 1.404 . S
C344 C337 1.448 . S
C344 C343 1.430 . S
C344 N348 1.351 . S
C345 C343 1.387 . S
C345 C346 1.374 . S
C345 H360 0.931 . S
C346 C340 1.439 . S
C346 C345 1.374 . S
C346 H361 0.931 . S
Eu347 N338 2.600 . S
Eu347 N348 2.562 . S
Eu347 O382 2.335 . S
Eu347 O385 2.372 . S
Eu347 O386 2.462 . S
Eu347 O387 2.373 . S
Eu347 O389 2.432 . S
Eu347 O390 2.291 . S
Eu347 C411 2.787 . S
N348 C344 1.351 . S
N348 Eu347 2.562 . S
N348 C350 1.325 . S
C349 C343 1.404 . S
C349 C351 1.366 . S
C349 H357 0.930 . S
C350 N348 1.325 . S
C350 C351 1.416 . S
C350 H356 0.929 . S
C351 C349 1.366 . S
C351 C350 1.416 . S
C351 H353 0.930 . S
H352 C341 0.930 . S
H353 C351 0.930 . S
H354 C369 0.930 . S
H355 C376 0.930 . S
H356 C350 0.929 . S
H357 C349 0.930 . S
H358 C372 0.929 . S
H359 C339 0.931 . S
H360 C345 0.931 . S
H361 C346 0.931 . S
H362 C367 0.931 . S
H363 C342 0.929 . S
H364 C375 0.930 . S
N365 Eu336 2.600 1_545 S
N365 C366 1.365 . S
N365 C369 1.319 . S
C366 N365 1.365 . S
C366 C368 1.405 . S
C366 C374 1.448 1_455 S
C367 H362 0.931 . S
C367 C369 1.397 . S
C367 C370 1.367 . S
C368 C366 1.405 . S
C368 C370 1.403 . S
C368 C401 1.439 . S
C369 H354 0.930 . S
C369 N365 1.319 . S
C369 C367 1.397 . S
C370 C367 1.367 . S
C370 C368 1.403 . S
C370 H377 0.929 . S
N371 Eu336 2.562 1_655 S
N371 C372 1.325 . S
N371 C374 1.351 1_565 S
C372 H358 0.929 . S
C372 N371 1.325 . S
C372 C376 1.416 . S
C373 C374 1.430 . S
C373 C375 1.404 1_545 S
C373 C402 1.387 . S
C374 C366 1.448 1_655 S
C374 N371 1.351 1_545 S
C374 C373 1.430 . S
C375 H364 0.930 . S
C375 C373 1.404 1_565 S
C375 C376 1.366 . S
C376 H355 0.930 . S
C376 C372 1.416 . S
C376 C375 1.366 . S
H377 C370 0.929 . S
H378 C401 0.931 . S
H379 C402 0.931 . S
O380 Eu336 2.462 1_655 S
O380 C400 1.252 1_655 S
O381 Eu336 2.373 . S
O381 C392 1.249 . S
O382 Eu347 2.335 . S
O382 C392 1.264 . S
O383 Eu336 2.432 . S
O383 C400 1.268 . S
O384 Eu336 2.291 . S
O384 C399 1.255 1_455 S
O385 Eu347 2.372 . S
O385 C399 1.257 1_455 S
O386 Eu347 2.462 . S
O386 C411 1.252 . S
O387 Eu347 2.373 . S
O387 C403 1.249 . S
O388 Eu336 2.335 . S
O388 C403 1.264 . S
O389 Eu347 2.432 . S
O389 C411 1.268 . S
O390 Eu347 2.291 . S
O390 C410 1.255 . S
O391 Eu336 2.372 . S
O391 C410 1.257 . S
C392 O381 1.249 . S
C392 O382 1.264 . S
C393 C396 1.382 1_655 S
C393 C398 1.390 . S
C393 C400 1.506 1_655 S
C394 C395 1.398 . S
C394 C398 1.392 . S
C395 C394 1.398 . S
C395 C397 1.372 . S
C395 H412 0.931 . S
C396 C393 1.382 1_455 S
C396 C397 1.390 1_455 S
C396 H413 0.931 1_565 S
C397 C395 1.372 . S
C397 C396 1.390 1_655 S
C397 H414 0.924 1_665 S
C398 C393 1.390 . S
C398 C394 1.392 . S
C398 H415 0.930 . S
C399 O384 1.255 1_655 S
C399 O385 1.257 1_655 S
C400 Eu336 2.787 . S
C400 O380 1.252 1_455 S
C400 O383 1.268 . S
C400 C393 1.506 1_455 S
C401 C368 1.439 . S
C401 H378 0.931 . S
C401 C402 1.374 1_455 S
C402 C373 1.387 . S
C402 H379 0.931 . S
C402 C401 1.374 1_655 S
C403 O387 1.249 . S
C403 O388 1.264 . S
C404 C407 1.382 . S
C404 C408 1.390 . S
C404 C411 1.506 . S
C405 C406 1.398 . S
C405 C408 1.392 . S
C406 C405 1.398 . S
C406 C409 1.372 . S
C406 H416 0.931 . S
C407 C404 1.382 . S
C407 C409 1.390 . S
C407 H417 0.931 . S
C408 C404 1.390 . S
C408 C405 1.392 . S
C408 H418 0.930 . S
C409 C406 1.372 . S
C409 C407 1.390 . S
C409 H419 0.929 . S
C410 O390 1.255 . S
C410 O391 1.257 . S
C411 Eu347 2.787 . S
C411 O386 1.252 . S
C411 O389 1.268 . S
C411 C404 1.506 . S
H412 C395 0.931 . S
H413 C396 0.931 1_545 S
H414 C397 0.924 1_445 S
H415 C398 0.930 . S
H416 C406 0.931 . S
H417 C407 0.931 . S
H418 C408 0.930 . S
H419 C409 0.929 . S
Eu420 N449 2.600 . S
Eu420 N455 2.562 1_545 S
Eu420 O464 2.462 1_545 S
Eu420 O465 2.373 . S
Eu420 O467 2.432 . S
Eu420 O468 2.291 . S
Eu420 O472 2.335 . S
Eu420 O475 2.372 . S
Eu420 C484 2.787 . S
C421 N422 1.365 . S
C421 C424 1.405 . S
C421 C428 1.448 . S
N422 C421 1.365 . S
N422 C425 1.319 . S
N422 Eu431 2.600 . S
C423 C425 1.397 . S
C423 C426 1.367 . S
C423 H443 0.931 . S
C424 C421 1.405 . S
C424 C426 1.403 . S
C424 C430 1.439 . S
C425 N422 1.319 . S
C425 C423 1.397 . S
C425 H436 0.930 . S
C426 C423 1.367 . S
C426 C424 1.403 . S
C426 H447 0.929 . S
C427 C428 1.430 . S
C427 C429 1.387 1_655 S
C427 C433 1.404 . S
C428 C421 1.448 . S
C428 C427 1.430 . S
C428 N432 1.351 . S
C429 C427 1.387 1_455 S
C429 C430 1.374 1_455 S
C429 H444 0.931 . S
C430 C424 1.439 . S
C430 C429 1.374 1_655 S
C430 H445 0.931 1_655 S
Eu431 N422 2.600 . S
Eu431 N432 2.562 . S
Eu431 O466 2.335 . S
Eu431 O469 2.372 . S
Eu431 O470 2.462 . S
Eu431 O471 2.373 . S
Eu431 O473 2.432 . S
Eu431 O474 2.291 . S
Eu431 C495 2.787 . S
N432 C428 1.351 . S
N432 Eu431 2.562 . S
N432 C434 1.325 . S
C433 C427 1.404 . S
C433 C435 1.366 . S
C433 H441 0.930 . S
C434 N432 1.325 . S
C434 C435 1.416 . S
C434 H440 0.929 . S
C435 C433 1.366 . S
C435 C434 1.416 . S
C435 H437 0.930 . S
H436 C425 0.930 . S
H437 C435 0.930 . S
H438 C453 0.930 . S
H439 C460 0.930 . S
H440 C434 0.929 . S
H441 C433 0.930 . S
H442 C456 0.929 . S
H443 C423 0.931 . S
H444 C429 0.931 . S
H445 C430 0.931 1_455 S
H446 C451 0.931 . S
H447 C426 0.929 . S
H448 C459 0.930 . S
N449 Eu420 2.600 . S
N449 C450 1.365 1_455 S
N449 C453 1.319 . S
C450 N449 1.365 1_655 S
C450 C452 1.405 . S
C450 C458 1.448 1_545 S
C451 H446 0.931 . S
C451 C453 1.397 . S
C451 C454 1.367 1_455 S
C452 C450 1.405 . S
C452 C454 1.403 . S
C452 C485 1.439 . S
C453 H438 0.930 . S
C453 N449 1.319 . S
C453 C451 1.397 . S
C454 C451 1.367 1_655 S
C454 C452 1.403 . S
C454 H461 0.929 . S
N455 Eu420 2.562 1_565 S
N455 C456 1.325 . S
N455 C458 1.351 1_455 S
C456 H442 0.929 . S
C456 N455 1.325 . S
C456 C460 1.416 1_455 S
C457 C458 1.430 . S
C457 C459 1.404 . S
C457 C486 1.387 . S
C458 C450 1.448 1_565 S
C458 N455 1.351 1_655 S
C458 C457 1.430 . S
C459 H448 0.930 . S
C459 C457 1.404 . S
C459 C460 1.366 . S
C460 H439 0.930 . S
C460 C456 1.416 1_655 S
C460 C459 1.366 . S
H461 C454 0.929 . S
H462 C485 0.931 . S
H463 C486 0.931 . S
O464 Eu420 2.462 1_565 S
O464 C484 1.252 1_565 S
O465 Eu420 2.373 . S
O465 C476 1.249 . S
O466 Eu431 2.335 . S
O466 C476 1.264 . S
O467 Eu420 2.432 . S
O467 C484 1.268 . S
O468 Eu420 2.291 . S
O468 C483 1.255 1_545 S
O469 Eu431 2.372 . S
O469 C483 1.257 1_545 S
O470 Eu431 2.462 . S
O470 C495 1.252 . S
O471 Eu431 2.373 . S
O471 C487 1.249 . S
O472 Eu420 2.335 . S
O472 C487 1.264 . S
O473 Eu431 2.432 . S
O473 C495 1.268 . S
O474 Eu431 2.291 . S
O474 C494 1.255 . S
O475 Eu420 2.372 . S
O475 C494 1.257 . S
C476 O465 1.249 . S
C476 O466 1.264 . S
C477 C480 1.382 1_565 S
C477 C482 1.390 . S
C477 C484 1.506 1_565 S
C478 C479 1.398 . S
C478 C482 1.392 . S
C479 C478 1.398 . S
C479 C481 1.372 . S
C479 H496 0.931 1_455 S
C480 C477 1.382 1_545 S
C480 C481 1.390 1_545 S
C480 H497 0.931 . S
C481 C479 1.372 . S
C481 C480 1.390 1_565 S
C481 H498 0.929 1_565 S
C482 C477 1.390 . S
C482 C478 1.392 . S
C482 H499 0.930 . S
C483 O468 1.255 1_565 S
C483 O469 1.257 1_565 S
C484 Eu420 2.787 . S
C484 O464 1.252 1_545 S
C484 O467 1.268 . S
C484 C477 1.506 1_545 S
C485 C452 1.439 . S
C485 H462 0.931 . S
C485 C486 1.374 1_545 S
C486 C457 1.387 . S
C486 H463 0.931 . S
C486 C485 1.374 1_565 S
C487 O471 1.249 . S
C487 O472 1.264 . S
C488 C491 1.382 . S
C488 C492 1.390 . S
C488 C495 1.506 . S
C489 C490 1.398 . S
C489 C492 1.392 . S
C490 C489 1.398 . S
C490 C493 1.372 . S
C490 H500 0.931 . S
C491 C488 1.382 . S
C491 C493 1.390 . S
C491 H501 0.931 . S
C492 C488 1.390 . S
C492 C489 1.392 . S
C492 H502 0.930 . S
C493 C490 1.372 . S
C493 C491 1.390 . S
C493 H503 0.929 . S
C494 O474 1.255 . S
C494 O475 1.257 . S
C495 Eu431 2.787 . S
C495 O470 1.252 . S
C495 O473 1.268 . S
C495 C488 1.506 . S
H496 C479 0.931 1_655 S
H497 C480 0.931 . S
H498 C481 0.929 1_545 S
H499 C482 0.930 . S
H500 C490 0.931 . S
H501 C491 0.931 . S
H502 C492 0.930 . S
H503 C493 0.929 . S
C403 C69 1.503 . S
C487 C153 1.503 . S
C67 C237 1.503 . S
C151 C321 1.503 . S
C235 C405 1.503 . S
C319 C489 1.503 . S
C63 C315 3.180 . S
C399 C147 3.180 1_655 S
C483 C231 3.180 1_565 S
C242 C494 2.821 . S
C74 C326 2.821 1_455 S
C410 C158 2.821 1_565 S
C476 C58 1.738 . S
C142 C56 1.738 . S
C226 C140 1.738 . S
C224 C310 1.738 . S
C394 C308 1.738 . S
C478 C392 1.738 . S
