# Generated by pormake.
# Topology whw, (6)-cn, num edge types: 1
# Building blocks:
#     Node 0, Type 0, BuildingBlock: BETDEL_clean_sbu_0, # of connection points: 6
#     Node 1, Type 0, BuildingBlock: BETDEL_clean_sbu_0, # of connection points: 6
#     Node 2, Type 0, BuildingBlock: BETDEL_clean_sbu_0, # of connection points: 6
#     Node 3, Type 0, BuildingBlock: BETDEL_clean_sbu_0, # of connection points: 6
#     Node 4, Type 0, BuildingBlock: BETDEL_clean_sbu_0, # of connection points: 6
#     Node 5, Type 0, BuildingBlock: BETDEL_clean_sbu_0, # of connection points: 6
#     Node 6, Type 0, BuildingBlock: BETDEL_clean_sbu_0, # of connection points: 6
#     Node 7, Type 0, BuildingBlock: BETDEL_clean_sbu_0, # of connection points: 6
#     Node 8, Type 0, BuildingBlock: BETDEL_clean_sbu_0, # of connection points: 6
#     Node 9, Type 0, BuildingBlock: BETDEL_clean_sbu_0, # of connection points: 6
#     Node 10, Type 0, BuildingBlock: BETDEL_clean_sbu_0, # of connection points: 6
#     Node 11, Type 0, BuildingBlock: BETDEL_clean_sbu_0, # of connection points: 6
#     Node 12, Type 0, BuildingBlock: BETDEL_clean_sbu_0, # of connection points: 6
#     Node 13, Type 0, BuildingBlock: BETDEL_clean_sbu_0, # of connection points: 6
#     Node 14, Type 0, BuildingBlock: BETDEL_clean_sbu_0, # of connection points: 6
#     Node 15, Type 0, BuildingBlock: BETDEL_clean_sbu_0, # of connection points: 6
#     Edge 16, Type (0, 0), BuildingBlock: KIFKEQ_clean_linker_1, # of connection points: 2
#     Edge 17, Type (0, 0), BuildingBlock: KIFKEQ_clean_linker_1, # of connection points: 2
#     Edge 18, Type (0, 0), BuildingBlock: KIFKEQ_clean_linker_1, # of connection points: 2
#     Edge 19, Type (0, 0), BuildingBlock: KIFKEQ_clean_linker_1, # of connection points: 2
#     Edge 20, Type (0, 0), BuildingBlock: KIFKEQ_clean_linker_1, # of connection points: 2
#     Edge 21, Type (0, 0), BuildingBlock: KIFKEQ_clean_linker_1, # of connection points: 2
#     Edge 22, Type (0, 0), BuildingBlock: KIFKEQ_clean_linker_1, # of connection points: 2
#     Edge 23, Type (0, 0), BuildingBlock: KIFKEQ_clean_linker_1, # of connection points: 2
#     Edge 24, Type (0, 0), BuildingBlock: KIFKEQ_clean_linker_1, # of connection points: 2
#     Edge 25, Type (0, 0), BuildingBlock: KIFKEQ_clean_linker_1, # of connection points: 2
#     Edge 26, Type (0, 0), BuildingBlock: KIFKEQ_clean_linker_1, # of connection points: 2
#     Edge 27, Type (0, 0), BuildingBlock: KIFKEQ_clean_linker_1, # of connection points: 2
#     Edge 28, Type (0, 0), BuildingBlock: KIFKEQ_clean_linker_1, # of connection points: 2
#     Edge 29, Type (0, 0), BuildingBlock: KIFKEQ_clean_linker_1, # of connection points: 2
#     Edge 30, Type (0, 0), BuildingBlock: KIFKEQ_clean_linker_1, # of connection points: 2
#     Edge 31, Type (0, 0), BuildingBlock: KIFKEQ_clean_linker_1, # of connection points: 2
#     Edge 32, Type (0, 0), BuildingBlock: KIFKEQ_clean_linker_1, # of connection points: 2
#     Edge 33, Type (0, 0), BuildingBlock: KIFKEQ_clean_linker_1, # of connection points: 2
#     Edge 34, Type (0, 0), BuildingBlock: KIFKEQ_clean_linker_1, # of connection points: 2
#     Edge 35, Type (0, 0), BuildingBlock: KIFKEQ_clean_linker_1, # of connection points: 2
#     Edge 36, Type (0, 0), BuildingBlock: KIFKEQ_clean_linker_1, # of connection points: 2
#     Edge 37, Type (0, 0), BuildingBlock: KIFKEQ_clean_linker_1, # of connection points: 2
#     Edge 38, Type (0, 0), BuildingBlock: KIFKEQ_clean_linker_1, # of connection points: 2
#     Edge 39, Type (0, 0), BuildingBlock: KIFKEQ_clean_linker_1, # of connection points: 2
#     Edge 40, Type (0, 0), BuildingBlock: KIFKEQ_clean_linker_1, # of connection points: 2
#     Edge 41, Type (0, 0), BuildingBlock: KIFKEQ_clean_linker_1, # of connection points: 2
#     Edge 42, Type (0, 0), BuildingBlock: KIFKEQ_clean_linker_1, # of connection points: 2
#     Edge 43, Type (0, 0), BuildingBlock: KIFKEQ_clean_linker_1, # of connection points: 2
#     Edge 44, Type (0, 0), BuildingBlock: KIFKEQ_clean_linker_1, # of connection points: 2
#     Edge 45, Type (0, 0), BuildingBlock: KIFKEQ_clean_linker_1, # of connection points: 2
#     Edge 46, Type (0, 0), BuildingBlock: KIFKEQ_clean_linker_1, # of connection points: 2
#     Edge 47, Type (0, 0), BuildingBlock: KIFKEQ_clean_linker_1, # of connection points: 2
#     Edge 48, Type (0, 0), BuildingBlock: KIFKEQ_clean_linker_1, # of connection points: 2
#     Edge 49, Type (0, 0), BuildingBlock: KIFKEQ_clean_linker_1, # of connection points: 2
#     Edge 50, Type (0, 0), BuildingBlock: KIFKEQ_clean_linker_1, # of connection points: 2
#     Edge 51, Type (0, 0), BuildingBlock: KIFKEQ_clean_linker_1, # of connection points: 2
#     Edge 52, Type (0, 0), BuildingBlock: KIFKEQ_clean_linker_1, # of connection points: 2
#     Edge 53, Type (0, 0), BuildingBlock: KIFKEQ_clean_linker_1, # of connection points: 2
#     Edge 54, Type (0, 0), BuildingBlock: KIFKEQ_clean_linker_1, # of connection points: 2
#     Edge 55, Type (0, 0), BuildingBlock: KIFKEQ_clean_linker_1, # of connection points: 2
#     Edge 56, Type (0, 0), BuildingBlock: KIFKEQ_clean_linker_1, # of connection points: 2
#     Edge 57, Type (0, 0), BuildingBlock: KIFKEQ_clean_linker_1, # of connection points: 2
#     Edge 58, Type (0, 0), BuildingBlock: KIFKEQ_clean_linker_1, # of connection points: 2
#     Edge 59, Type (0, 0), BuildingBlock: KIFKEQ_clean_linker_1, # of connection points: 2
#     Edge 60, Type (0, 0), BuildingBlock: KIFKEQ_clean_linker_1, # of connection points: 2
#     Edge 61, Type (0, 0), BuildingBlock: KIFKEQ_clean_linker_1, # of connection points: 2
#     Edge 62, Type (0, 0), BuildingBlock: KIFKEQ_clean_linker_1, # of connection points: 2
#     Edge 63, Type (0, 0), BuildingBlock: KIFKEQ_clean_linker_1, # of connection points: 2
# Relax obj value: 0.401
# Max RMSD: 0.202
# Mean RMSD: 0.196
data_MOF--net-whw--node1-BETDEL_clean_sbu_0--edge1-KIFKEQ_clean_linker_1
_symmetry_space_group_name_H-M    P1
_symmetry_Int_Tables_number       1
_symmetry_cell_setting            triclinic
loop_
_symmetry_equiv_pos_as_xyz
'x, y, z'
_cell_length_a     47.459616
_cell_length_b     47.882339
_cell_length_c     27.421478
_cell_angle_alpha  88.17255
_cell_angle_beta   90.07996
_cell_angle_gamma 91.906317
loop_
_atom_site_label
_atom_site_type_symbol
_atom_site_fract_x
_atom_site_fract_y
_atom_site_fract_z
_atom_type_partial_charge
Dy0 Dy 0.02974 0.11274 0.15898 0.0
C1 C 0.93501 0.08896 0.03393 0.0
C2 C 0.06918 0.12372 0.22915 0.0
Dy3 Dy 0.97159 0.10649 0.10441 0.0
O4 O 0.05659 0.09963 0.22271 0.0
O5 O 0.0611 0.14161 0.19574 0.0
O6 O 0.04416 0.07495 0.1212 0.0
O7 O 0.00123 0.07865 0.1388 0.0
C8 C 0.01872 0.06422 0.11728 0.0
C9 C 0.98075 0.15438 0.14762 0.0
O10 O 0.95703 0.09255 0.17975 0.0
O11 O -0.00321 0.11145 0.21826 0.0
O12 O 0.92925 0.10663 0.06733 0.0
O13 O 0.96038 0.0802 0.04044 0.0
O14 O 0.95534 0.14481 0.13828 0.0
O15 O -0.00119 0.14009 0.12718 0.0
O16 O 0.04445 0.13089 0.08615 0.0
O17 O 0.00187 0.12305 0.04495 0.0
C18 C 0.97048 0.10097 0.21968 0.0
C19 C 0.02897 0.13154 0.04554 0.0
Dy20 Dy 0.11169 0.75561 0.42352 0.0
C21 C 0.11905 0.65204 0.32428 0.0
C22 C 0.11481 0.79604 0.49165 0.0
Dy23 Dy 0.10641 0.69674 0.37775 0.0
O24 O 0.13286 0.77672 0.48593 0.0
O25 O 0.09545 0.79431 0.45806 0.0
O26 O 0.14856 0.76782 0.37641 0.0
O27 O 0.14089 0.72541 0.39731 0.0
C28 C 0.15519 0.74213 0.36984 0.0
C29 C 0.06285 0.71118 0.43134 0.0
O30 O 0.11931 0.68281 0.45357 0.0
O31 O 0.11078 0.72506 0.48936 0.0
O32 O 0.09373 0.65797 0.33785 0.0
O33 O 0.13723 0.67056 0.33971 0.0
O34 O 0.06878 0.6851 0.42543 0.0
O35 O 0.0781 0.72677 0.40377 0.0
O36 O 0.08975 0.76825 0.3523 0.0
O37 O 0.09502 0.72593 0.31343 0.0
C38 C 0.11584 0.69785 0.49297 0.0
C39 C 0.08774 0.75275 0.31243 0.0
Dy40 Dy 0.47507 0.86979 0.71312 0.0
C41 C 0.56747 0.88579 0.57661 0.0
C42 C 0.43812 0.86097 0.78932 0.0
Dy43 Dy 0.52999 0.87253 0.6501 0.0
O44 O 0.43634 0.8485 0.74787 0.0
O45 O 0.45957 0.87842 0.78842 0.0
O46 O 0.46086 0.90946 0.67736 0.0
O47 O 0.50429 0.90286 0.68523 0.0
C48 C 0.48624 0.91855 0.66622 0.0
C49 C 0.51913 0.82454 0.69828 0.0
O50 O 0.54858 0.885 0.72206 0.0
O51 O 0.5107 0.86626 0.76754 0.0
O52 O 0.57137 0.86741 0.61165 0.0
O53 O 0.54348 0.89746 0.58269 0.0
O54 O 0.54454 0.83226 0.68481 0.0
O55 O 0.50146 0.84035 0.67898 0.0
O56 O 0.45707 0.85106 0.6441 0.0
O57 O 0.49595 0.86209 0.59437 0.0
C58 C 0.53724 0.87596 0.76434 0.0
C59 C 0.46933 0.85283 0.60023 0.0
Dy60 Dy 0.37256 0.20995 0.92777 0.0
C61 C 0.39543 0.31151 0.82011 0.0
C62 C 0.36769 0.16239 0.98506 0.0
Dy63 Dy 0.3974 0.26324 0.87506 0.0
O64 O 0.3474 0.17927 0.97533 0.0
O65 O 0.39017 0.17077 0.96102 0.0
O66 O 0.32918 0.22596 0.92196 0.0
O67 O 0.35924 0.23703 0.86763 0.0
C68 C 0.33495 0.24172 0.88356 0.0
C69 C 0.43352 0.23166 0.92801 0.0
O70 O 0.38695 0.2827 0.94692 0.0
O71 O 0.37628 0.24118 0.99024 0.0
O72 O 0.41846 0.29848 0.83087 0.0
O73 O 0.374 0.29877 0.84144 0.0
O74 O 0.44141 0.24751 0.89039 0.0
O75 O 0.4084 0.23657 0.93609 0.0
O76 O 0.38911 0.19223 0.85553 0.0
O77 O 0.40253 0.23398 0.81447 0.0
C78 C 0.38083 0.26905 0.98889 0.0
C79 C 0.39962 0.20637 0.81602 0.0
Dy80 Dy 0.00433 0.85333 0.87324 0.0
C81 C 0.89991 0.86376 0.97508 0.0
C82 C 0.05122 0.84728 0.81768 0.0
Dy83 Dy 0.94665 0.84774 0.92768 0.0
O84 O 0.04036 0.8709 0.82792 0.0
O85 O 0.0373 0.8269 0.84031 0.0
O86 O 0.00125 0.89975 0.87124 0.0
O87 O 0.9834 0.8761 0.9295 0.0
C88 C 0.98583 0.90026 0.91021 0.0
C89 C 0.96504 0.80251 0.88701 0.0
O90 O 0.93156 0.85849 0.84939 0.0
O91 O 0.97431 0.85502 0.80888 0.0
O92 O 0.90616 0.83794 0.96757 0.0
O93 O 0.91891 0.88069 0.95524 0.0
O94 O 0.95083 0.8005 0.92778 0.0
O95 O 0.96718 0.82715 0.87207 0.0
O96 O 0.01784 0.8336 0.94706 0.0
O97 O 0.97616 0.83844 0.99079 0.0
C98 C 0.94661 0.85875 0.80793 0.0
C99 C 0.0031 0.83135 0.98887 0.0
Dy100 Dy 0.37923 0.74546 0.19965 0.0
C101 C 0.38701 0.66891 0.03819 0.0
C102 C 0.38954 0.77116 0.28743 0.0
Dy103 Dy 0.37241 0.69841 0.11853 0.0
O104 O 0.37101 0.77929 0.25487 0.0
O105 O 0.40182 0.74938 0.27163 0.0
O106 O 0.41877 0.76045 0.16142 0.0
O107 O 0.40584 0.71833 0.15944 0.0
C108 C 0.4232 0.73647 0.14273 0.0
C109 C 0.32589 0.70768 0.16852 0.0
O110 O 0.38116 0.67153 0.18461 0.0
O111 O 0.36907 0.70498 0.2404 0.0
O112 O 0.3614 0.67549 0.04921 0.0
O113 O 0.40414 0.67775 0.07174 0.0
O114 O 0.32999 0.68425 0.14676 0.0
O115 O 0.34509 0.72576 0.15748 0.0
O116 O 0.36579 0.77313 0.13623 0.0
O117 O 0.37076 0.73934 0.07673 0.0
C118 C 0.37488 0.67893 0.22951 0.0
C119 C 0.36661 0.76544 0.08978 0.0
Dy120 Dy 0.47456 0.11942 0.3768 0.0
C121 C 0.57456 0.11829 0.49346 0.0
C122 C 0.43148 0.11397 0.31129 0.0
Dy123 Dy 0.53334 0.12787 0.42639 0.0
O124 O 0.43493 0.13474 0.34045 0.0
O125 O 0.45105 0.09609 0.3191 0.0
O126 O 0.4661 0.08173 0.42442 0.0
O127 O 0.50779 0.09236 0.403 0.0
C128 C 0.49249 0.07608 0.42965 0.0
C129 C 0.51534 0.17187 0.37592 0.0
O130 O 0.54919 0.12096 0.34998 0.0
O131 O 0.50525 0.12562 0.31295 0.0
O132 O 0.56972 0.1424 0.47245 0.0
O133 O 0.55772 0.09922 0.47575 0.0
O134 O 0.54203 0.16822 0.38478 0.0
O135 O 0.50042 0.15432 0.40065 0.0
O136 O 0.45901 0.13597 0.44892 0.0
O137 O 0.50267 0.13521 0.48809 0.0
C138 C 0.53329 0.12461 0.31016 0.0
C139 C 0.47488 0.13865 0.48907 0.0
Dy140 Dy 0.12866 0.23452 0.62316 0.0
C141 C 0.12598 0.3278 0.75083 0.0
C142 C 0.12809 0.19611 0.55151 0.0
Dy143 Dy 0.11985 0.28939 0.67969 0.0
O144 O 0.1088 0.19782 0.58481 0.0
O145 O 0.14814 0.21463 0.55872 0.0
O146 O 0.16744 0.22649 0.66584 0.0
O147 O 0.15596 0.26828 0.65054 0.0
C148 C 0.17273 0.25277 0.67376 0.0
C149 C 0.0758 0.26949 0.63035 0.0
O150 O 0.13137 0.30916 0.60702 0.0
O151 O 0.12274 0.26838 0.56457 0.0
O152 O 0.10637 0.32782 0.71764 0.0
O153 O 0.14267 0.30731 0.74409 0.0
O154 O 0.07894 0.296 0.63915 0.0
O155 O 0.09393 0.25582 0.65302 0.0
O156 O 0.11212 0.21421 0.69381 0.0
O157 O 0.11002 0.25534 0.73724 0.0
C158 C 0.12653 0.29603 0.56565 0.0
C159 C 0.1075 0.22758 0.73494 0.0
Dy160 Dy 0.8773 0.23816 0.69737 0.0
C161 C 0.88492 0.16606 0.53107 0.0
C162 C 0.88953 0.26404 0.78416 0.0
Dy163 Dy 0.87002 0.19145 0.61576 0.0
O164 O 0.90545 0.2473 0.76118 0.0
O165 O 0.86613 0.2671 0.75926 0.0
O166 O 0.91639 0.25289 0.65851 0.0
O167 O 0.90378 0.21043 0.65731 0.0
C168 C 0.92103 0.22878 0.64042 0.0
C169 C 0.82319 0.20214 0.66401 0.0
O170 O 0.88342 0.16567 0.68098 0.0
O171 O 0.8681 0.19731 0.73715 0.0
O172 O 0.86575 0.15614 0.56165 0.0
O173 O 0.89533 0.18936 0.54703 0.0
O174 O 0.82616 0.17907 0.64063 0.0
O175 O 0.84331 0.21927 0.65415 0.0
O176 O 0.86521 0.26678 0.63434 0.0
O177 O 0.86583 0.23248 0.5748 0.0
C178 C 0.87619 0.17201 0.72605 0.0
C179 C 0.86418 0.25893 0.58793 0.0
Dy180 Dy 0.62453 0.73867 0.12312 0.0
C181 C 0.63062 0.82978 0.25524 0.0
C182 C 0.62347 0.70436 0.04526 0.0
Dy183 Dy 0.62129 0.79244 0.1831 0.0
O184 O 0.61216 0.69778 0.08754 0.0
O185 O 0.63559 0.72891 0.04653 0.0
O186 O 0.66274 0.72581 0.16309 0.0
O187 O 0.65549 0.76884 0.15273 0.0
C188 C 0.67048 0.75101 0.17444 0.0
C189 C 0.57511 0.77908 0.1328 0.0
O190 O 0.63387 0.81261 0.11082 0.0
O191 O 0.62041 0.77369 0.06678 0.0
O192 O 0.61142 0.83179 0.22164 0.0
O193 O 0.64521 0.80776 0.24855 0.0
O194 O 0.58087 0.80452 0.14588 0.0
O195 O 0.59167 0.76256 0.15341 0.0
O196 O 0.60265 0.71942 0.19033 0.0
O197 O 0.61006 0.75798 0.23908 0.0
C198 C 0.62726 0.80072 0.06891 0.0
C199 C 0.60222 0.73126 0.2338 0.0
Dy200 Dy 0.62393 0.27712 0.92744 0.0
C201 C 0.5981 0.17767 0.81988 0.0
C202 C 0.63309 0.31599 0.9964 0.0
Dy203 Dy 0.59897 0.22543 0.87123 0.0
O204 O 0.64848 0.29442 0.99008 0.0
O205 O 0.61339 0.31703 0.96327 0.0
O206 O 0.66255 0.27991 0.88192 0.0
O207 O 0.64114 0.24095 0.89317 0.0
C208 C 0.66028 0.25409 0.86886 0.0
C209 C 0.56362 0.26244 0.90751 0.0
O210 O 0.59836 0.20495 0.94652 0.0
O211 O 0.61572 0.24349 0.98897 0.0
O212 O 0.5757 0.19039 0.83352 0.0
O213 O 0.62055 0.19068 0.83564 0.0
O214 O 0.55646 0.24759 0.87 0.0
O215 O 0.58616 0.25383 0.92358 0.0
O216 O 0.60526 0.29664 0.85629 0.0
O217 O 0.60616 0.25669 0.81023 0.0
C218 C 0.60543 0.21699 0.98823 0.0
C219 C 0.6031 0.28395 0.81326 0.0
Dy220 Dy 0.89383 0.73424 0.41168 0.0
C221 C 0.88485 0.83626 0.29999 0.0
C222 C 0.89022 0.69395 0.48438 0.0
Dy223 Dy 0.89916 0.79307 0.36073 0.0
O224 O 0.9084 0.69428 0.44881 0.0
O225 O 0.87344 0.71451 0.47809 0.0
O226 O 0.85896 0.72219 0.36137 0.0
O227 O 0.86454 0.76416 0.38123 0.0
C228 C 0.85125 0.74773 0.35374 0.0
C229 C 0.94187 0.77977 0.41886 0.0
O230 O 0.88613 0.80696 0.43509 0.0
O231 O 0.8928 0.76399 0.47458 0.0
O232 O 0.91063 0.82996 0.3111 0.0
O233 O 0.86715 0.81911 0.32246 0.0
O234 O 0.9357 0.80571 0.40888 0.0
O235 O 0.92759 0.76373 0.39211 0.0
O236 O 0.91837 0.72207 0.34503 0.0
O237 O 0.91238 0.76389 0.3006 0.0
C238 C 0.8882 0.79122 0.47578 0.0
C239 C 0.92064 0.73739 0.30346 0.0
Dy240 Dy 0.52277 0.61483 0.65775 0.0
C241 C 0.42674 0.5928 0.53452 0.0
C242 C 0.56182 0.62303 0.7295 0.0
Dy243 Dy 0.46483 0.6099 0.60287 0.0
O244 O 0.54508 0.60123 0.72604 0.0
O245 O 0.55807 0.64013 0.69237 0.0
O246 O 0.53693 0.5773 0.61908 0.0
O247 O 0.49399 0.5812 0.63636 0.0
C248 C 0.51142 0.56689 0.61441 0.0
C249 C 0.47495 0.6577 0.64632 0.0
O250 O 0.45003 0.59647 0.67825 0.0
O251 O 0.48989 0.61499 0.71698 0.0
O252 O 0.42226 0.6114 0.56694 0.0
O253 O 0.45175 0.5831 0.54055 0.0
O254 O 0.4494 0.64868 0.63676 0.0
O255 O 0.49263 0.64296 0.62603 0.0
O256 O 0.53718 0.63453 0.58578 0.0
O257 O 0.49556 0.62493 0.54291 0.0
C258 C 0.46353 0.60476 0.71818 0.0
C259 C 0.52238 0.63428 0.54435 0.0
Dy260 Dy 0.97201 0.36518 0.21063 0.0
C261 C 0.06405 0.38382 0.07463 0.0
C262 C 0.93496 0.35563 0.28644 0.0
Dy263 Dy 0.02752 0.36941 0.14903 0.0
O264 O 0.93451 0.34207 0.24602 0.0
O265 O 0.95508 0.3746 0.28465 0.0
O266 O 0.95654 0.40379 0.17308 0.0
O267 O 0.00019 0.399 0.1824 0.0
C268 C 0.98166 0.41368 0.16218 0.0
C269 C 0.01814 0.3215 0.19805 0.0
O270 O 0.04546 0.3823 0.22102 0.0
O271 O 0.00748 0.36313 0.26584 0.0
O272 O 0.06863 0.3653 0.10916 0.0
O273 O 0.03998 0.39512 0.08193 0.0
O274 O 0.04338 0.33011 0.18497 0.0
O275 O -0.0001 0.33644 0.17802 0.0
O276 O 0.95456 0.34648 0.14108 0.0
O277 O 0.99458 0.35634 0.09356 0.0
C278 C 0.03396 0.37309 0.26305 0.0
C279 C 0.96781 0.34732 0.09805 0.0
Dy280 Dy 0.51286 0.36156 0.36851 0.0
C281 C 0.41012 0.35816 0.48293 0.0
C282 C 0.56107 0.36137 0.31452 0.0
Dy283 Dy 0.45548 0.34926 0.42545 0.0
O284 O 0.54574 0.38295 0.32055 0.0
O285 O 0.55052 0.33995 0.33954 0.0
O286 O 0.50238 0.40676 0.36288 0.0
O287 O 0.48832 0.38208 0.42276 0.0
C288 C 0.48702 0.40582 0.40209 0.0
C289 C 0.47939 0.30531 0.38667 0.0
O290 O 0.43836 0.35572 0.34746 0.0
O291 O 0.4814 0.35418 0.30641 0.0
O292 O 0.4193 0.33377 0.47231 0.0
O293 O 0.42474 0.37762 0.45915 0.0
O294 O 0.46097 0.30253 0.422 0.0
O295 O 0.48046 0.3303 0.37317 0.0
O296 O 0.52951 0.34771 0.44388 0.0
O297 O 0.48698 0.34503 0.48701 0.0
C298 C 0.45314 0.3543 0.30586 0.0
C299 C 0.51497 0.34367 0.4856 0.0
Dy300 Dy 0.00243 0.63071 0.88596 0.0
C301 C 0.09313 0.59542 1.00815 0.0
C302 C 0.9642 0.63781 0.81286 0.0
Dy303 Dy 0.058 0.61982 0.94194 0.0
O304 O 0.96945 0.65605 0.8463 0.0
O305 O 0.9792 0.61602 0.82043 0.0
O306 O 0.98013 0.59833 0.93283 0.0
O307 O 0.02306 0.59384 0.91582 0.0
C308 C 0.0025 0.58402 0.94089 0.0
C309 C 0.05969 0.66663 0.88937 0.0
O310 O 0.07285 0.60871 0.86618 0.0
O311 O 0.03352 0.62532 0.82538 0.0
O312 O 0.09669 0.6205 0.98918 0.0
O313 O 0.07048 0.58369 0.99046 0.0
O314 O 0.08261 0.65449 0.90346 0.0
O315 O 0.03816 0.65582 0.91077 0.0
O316 O 0.99212 0.6544 0.95348 0.0
O317 O 0.02993 0.63853 1.00007 0.0
C318 C 0.05944 0.61606 0.8251 0.0
C319 C 0.00569 0.65204 0.99606 0.0
H320 H 0.08497 0.1364 1.01769 0.0
H321 H 0.00114 0.15497 0.96783 0.0
H322 H 0.10459 0.15751 0.94148 0.0
H323 H 0.02081 0.17665 0.89297 0.0
H324 H 0.07403 0.24685 0.80626 0.0
H325 H 0.05594 0.22231 0.87964 0.0
H326 H 0.09886 0.14836 0.84043 0.0
H327 H 0.11647 0.17278 0.76537 0.0
C328 C 0.07073 0.14496 0.99064 0.0
C329 C 0.04142 0.14394 0.99916 0.0
C330 C 0.08198 0.1569 0.94686 0.0
C331 C 0.06426 0.16876 0.91111 0.0
C332 C 0.03503 0.16774 0.91971 0.0
C333 C 0.02377 0.15523 0.96272 0.0
C334 C 0.07969 0.22534 0.813 0.0
C335 C 0.09675 0.21184 0.77961 0.0
C336 C 0.0692 0.21126 0.85514 0.0
C337 C 0.07597 0.1834 0.86602 0.0
C338 C 0.09337 0.16986 0.83318 0.0
C339 C 0.10332 0.1838 0.79008 0.0
H340 H 0.06078 0.80293 0.29528 0.0
H341 H 0.08839 0.73102 0.22012 0.0
H342 H 0.04162 0.82201 0.21862 0.0
H343 H 0.06932 0.75003 0.14369 0.0
H344 H 0.05367 0.80399 1.00249 0.0
H345 H 0.07436 0.78592 0.07883 0.0
H346 H 0.00413 0.81603 0.15924 0.0
H347 H 0.9836 0.83397 0.08339 0.0
C348 C 0.06292 0.79113 0.26254 0.0
C349 C 0.07633 0.76523 0.26479 0.0
C350 C 0.05168 0.80206 0.2182 0.0
C351 C 0.05368 0.78779 0.17396 0.0
C352 C 0.06743 0.76206 0.17622 0.0
C353 C 0.07832 0.75097 0.2206 0.0
C354 C 0.04266 0.80693 0.0364 0.0
C355 C 0.0168 0.82071 0.03592 0.0
C356 C 0.05449 0.79631 0.08054 0.0
C357 C 0.04119 0.79935 0.12621 0.0
C358 C 0.01548 0.81339 0.12556 0.0
C359 C 0.00351 0.82364 0.08152 0.0
H360 H 0.41086 0.74553 0.36869 0.0
H361 H 0.3857 0.82634 0.31407 0.0
H362 H 0.42669 0.76616 0.44492 0.0
H363 H 0.40264 0.84733 0.39017 0.0
H364 H 0.47624 0.87107 0.50506 0.0
H365 H 0.45375 0.85287 0.43156 0.0
H366 H 0.40582 0.79246 0.52016 0.0
H367 H 0.42766 0.81132 0.59411 0.0
C368 C 0.40851 0.76774 0.37307 0.0
C369 C 0.39684 0.7842 0.33513 0.0
C370 C 0.41757 0.77957 0.41697 0.0
C371 C 0.41602 0.80846 0.42398 0.0
C372 C 0.4042 0.82501 0.38612 0.0
C373 C 0.39435 0.81298 0.34256 0.0
C374 C 0.46063 0.85414 0.50907 0.0
C375 C 0.4538 0.84277 0.55584 0.0
C376 C 0.44763 0.84377 0.46679 0.0
C377 C 0.42791 0.82115 0.46966 0.0
C378 C 0.4209 0.80987 0.51644 0.0
C379 C 0.43335 0.82078 0.55893 0.0
H380 H 0.44572 0.22146 0.76224 0.0
H381 H 0.37728 0.16 0.7663 0.0
H382 H 0.46187 0.20397 0.6854 0.0
H383 H 0.39359 0.14224 0.68771 0.0
H384 H 0.41823 0.14352 0.51606 0.0
H385 H 0.39936 0.1565 0.59571 0.0
H386 H 0.484 0.16359 0.65222 0.0
H387 H 0.50264 0.15082 0.57402 0.0
C388 C 0.43415 0.20391 0.74696 0.0
C389 C 0.4102 0.19214 0.77132 0.0
C390 C 0.44356 0.19376 0.70249 0.0
C391 C 0.42925 0.17152 0.67954 0.0
C392 C 0.40521 0.15948 0.70379 0.0
C393 C 0.396 0.16944 0.74929 0.0
C394 C 0.43283 0.14783 0.54547 0.0
C395 C 0.46215 0.14626 0.53758 0.0
C396 C 0.42194 0.1551 0.5915 0.0
C397 C 0.44002 0.16141 0.63103 0.0
C398 C 0.46921 0.15938 0.62304 0.0
C399 C 0.47998 0.1519 0.57764 0.0
H400 H 0.83304 0.84109 0.25868 0.0
H401 H 0.91917 0.87267 0.24802 0.0
H402 H 0.82357 0.86008 0.17679 0.0
H403 H 0.90978 0.89169 0.16661 0.0
H404 H 0.89911 0.9139 1.01899 0.0
H405 H 0.88421 0.91994 0.10299 0.0
H406 H 0.84486 0.83724 0.10538 0.0
H407 H 0.85985 0.83122 1.02186 0.0
C408 C 0.84962 0.85308 0.2396 0.0
C409 C 0.87704 0.85489 0.25891 0.0
C410 C 0.84416 0.86396 0.1928 0.0
C411 C 0.866 0.87698 0.16501 0.0
C412 C 0.89242 0.8819 0.18711 0.0
C413 C 0.89793 0.8708 0.23365 0.0
C414 C 0.88606 0.89758 0.03669 0.0
C415 C 0.88129 0.87174 1.01471 0.0
C416 C 0.8776 0.90105 0.08483 0.0
C417 C 0.86407 0.87881 0.11111 0.0
C418 C 0.85534 0.85477 0.08621 0.0
C419 C 0.86404 0.85121 0.03832 0.0
H420 H 0.8565 0.17707 0.818 0.0
H421 H 0.89923 0.11967 0.72726 0.0
H422 H 0.865 0.14781 0.88867 0.0
H423 H 0.90662 0.08894 0.79895 0.0
H424 H 0.95639 0.07667 0.94579 0.0
H425 H 0.93625 0.08898 0.86695 0.0
H426 H 0.85817 0.10854 0.93759 0.0
H427 H 0.87949 0.09837 1.01688 0.0
C428 C 0.86727 0.15778 0.81287 0.0
C429 C 0.87774 0.15108 0.76692 0.0
C430 C 0.87179 0.14058 0.85373 0.0
C431 C 0.88664 0.11581 0.85009 0.0
C432 C 0.89552 0.10807 0.80345 0.0
C433 C 0.89115 0.12558 0.76224 0.0
C434 C 0.93464 0.08287 0.9443 0.0
C435 C 0.91966 0.08723 0.98736 0.0
C436 C 0.92296 0.08985 0.89887 0.0
C437 C 0.89581 0.10074 0.89566 0.0
C438 C 0.87957 0.10138 0.93865 0.0
C439 C 0.89158 0.09522 0.98414 0.0
H440 H 0.64433 0.15879 0.775 0.0
H441 H 0.55342 0.15064 0.77707 0.0
H442 H 0.64528 0.13462 0.69799 0.0
H443 H 0.55445 0.12607 0.70032 0.0
H444 H 0.61495 0.15273 0.53125 0.0
H445 H 0.62558 0.15722 0.61778 0.0
H446 H 0.573 0.08388 0.65172 0.0
H447 H 0.56295 0.07893 0.56483 0.0
C448 C 0.62461 0.15095 0.75989 0.0
C449 C 0.59874 0.15685 0.78156 0.0
C450 C 0.62521 0.13716 0.71583 0.0
C451 C 0.59997 0.12866 0.69319 0.0
C452 C 0.57424 0.13219 0.71728 0.0
C453 C 0.57362 0.14634 0.76107 0.0
C454 C 0.60673 0.13687 0.55699 0.0
C455 C 0.58809 0.11562 0.54156 0.0
C456 C 0.61278 0.1394 0.60651 0.0
C457 C 0.59984 0.12102 0.64135 0.0
C458 C 0.58314 0.09832 0.62551 0.0
C459 C 0.57758 0.09543 0.57581 0.0
H460 H 0.62124 0.86945 0.5615 0.0
H461 H 0.54969 0.90475 0.48804 0.0
H462 H 0.64409 0.86359 0.48304 0.0
H463 H 0.57101 0.89693 0.40976 0.0
H464 H 0.60983 0.88133 0.26918 0.0
H465 H 0.60182 0.90297 0.34704 0.0
H466 H 0.64071 0.83305 0.42163 0.0
H467 H 0.65061 0.81308 0.34371 0.0
C468 C 0.6106 0.87627 0.52845 0.0
C469 C 0.58367 0.88735 0.5307 0.0
C470 C 0.62348 0.87259 0.48331 0.0
C471 C 0.60928 0.87907 0.43935 0.0
C472 C 0.58302 0.89188 0.44222 0.0
C473 C 0.57057 0.89626 0.48735 0.0
C474 C 0.61737 0.87117 0.30234 0.0
C475 C 0.63067 0.84551 0.30059 0.0
C476 C 0.61247 0.88334 0.34716 0.0
C477 C 0.6199 0.86959 0.39137 0.0
C478 C 0.63485 0.84469 0.38893 0.0
C479 C 0.64045 0.83301 0.34404 0.0
H480 H 0.57538 0.67884 0.2409 0.0
H481 H 0.60488 0.7471 0.3288 0.0
H482 H 0.55734 0.65399 0.31465 0.0
H483 H 0.58676 0.72262 0.40166 0.0
H484 H 0.57386 0.66215 0.53175 0.0
H485 H 0.59393 0.68344 0.45691 0.0
H486 H 0.52052 0.65559 0.37656 0.0
H487 H 0.5006 0.63402 0.45118 0.0
C488 C 0.57812 0.68856 0.27579 0.0
C489 C 0.59164 0.71511 0.27842 0.0
C490 C 0.5676 0.67435 0.31821 0.0
C491 C 0.57054 0.68613 0.36461 0.0
C492 C 0.58435 0.71253 0.36705 0.0
C493 C 0.59462 0.72675 0.32484 0.0
C494 C 0.56201 0.66038 0.49815 0.0
C495 C 0.53545 0.64635 0.49804 0.0
C496 C 0.57348 0.6728 0.45505 0.0
C497 C 0.55889 0.6715 0.41023 0.0
C498 C 0.53262 0.65692 0.40996 0.0
C499 C 0.52106 0.64464 0.4531 0.0
H500 H 0.56708 0.32833 0.79784 0.0
H501 H 0.6188 0.27203 0.7209 0.0
H502 H 0.54749 0.3452 0.71956 0.0
H503 H 0.5993 0.28837 0.64351 0.0
H504 H 0.57171 0.33374 0.50307 0.0
H505 H 0.59503 0.32371 0.58118 0.0
H506 H 0.51577 0.33051 0.65602 0.0
H507 H 0.4927 0.34079 0.57851 0.0
C508 C 0.57483 0.32002 0.76432 0.0
C509 C 0.59481 0.29889 0.76621 0.0
C510 C 0.56325 0.32939 0.71916 0.0
C511 C 0.57147 0.31816 0.67429 0.0
C512 C 0.5924 0.29795 0.67646 0.0
C513 C 0.60365 0.28846 0.72133 0.0
C514 C 0.55923 0.33322 0.53612 0.0
C515 C 0.5301 0.33803 0.53361 0.0
C516 C 0.57264 0.3273 0.5813 0.0
C517 C 0.55752 0.32616 0.62587 0.0
C518 C 0.5285 0.33148 0.62324 0.0
C519 C 0.5151 0.33718 0.5782 0.0
H520 H 0.91309 0.3252 0.08573 0.0
H521 H 0.99005 0.34518 1.00635 0.0
H522 H 0.89198 0.3062 1.01107 0.0
H523 H 0.96919 0.32658 0.93312 0.0
H524 H 0.93993 0.26006 0.82959 0.0
H525 H 0.95617 0.28029 0.90499 0.0
H526 H 0.87563 0.31789 0.92297 0.0
H527 H 0.85909 0.29719 0.84618 0.0
C528 C 0.9255 0.32572 0.05259 0.0
C529 C 0.95351 0.33662 0.0528 0.0
C530 C 0.91331 0.31492 1.00961 0.0
C531 C 0.92889 0.31447 0.9658 0.0
C532 C 0.95657 0.32598 0.96604 0.0
C533 C 0.96858 0.33684 1.00847 0.0
C534 C 0.92552 0.27266 0.84932 0.0
C535 C 0.89819 0.27709 0.83124 0.0
C536 C 0.93496 0.28444 0.89278 0.0
C537 C 0.91744 0.30109 0.92032 0.0
C538 C 0.88976 0.30516 0.90297 0.0
C539 C 0.8803 0.29344 0.85877 0.0
H540 H 0.92536 0.76022 0.20964 0.0
H541 H 0.94488 0.68582 0.29402 0.0
H542 H 0.94574 0.74039 0.13726 0.0
H543 H 0.96505 0.6658 0.22143 0.0
H544 H 0.02349 0.6474 0.0922 0.0
H545 H 0.00365 0.66764 0.16475 0.0
H546 H 0.93976 0.70617 0.07583 0.0
H547 H 0.95979 0.68611 1.00323 0.0
C548 C 0.93392 0.73956 0.21299 0.0
C549 C 0.93324 0.72482 0.25846 0.0
C550 C 0.94556 0.728 0.17098 0.0
C551 C 0.95725 0.70122 0.17253 0.0
C552 C 0.9567 0.68654 0.21814 0.0
C553 C 0.94486 0.69804 0.26011 0.0
C554 C 0.00523 0.66022 0.08785 0.0
C555 C 0.99347 0.66493 0.04107 0.0
C556 C 0.99361 0.67178 0.12991 0.0
C557 C 0.96982 0.68876 0.1271 0.0
C558 C 0.9582 0.69361 0.08019 0.0
C559 C 0.96968 0.68186 0.03817 0.0
H560 H 0.41801 0.40205 0.54245 0.0
H561 H 0.37217 0.32322 0.52982 0.0
H562 H 0.40942 0.40046 0.63044 0.0
H563 H 0.36276 0.32214 0.61737 0.0
H564 H 0.43732 0.3394 0.76842 0.0
H565 H 0.43281 0.36088 0.6868 0.0
H566 H 0.34249 0.34764 0.69375 0.0
H567 H 0.34687 0.3268 0.77576 0.0
C568 C 0.40484 0.38514 0.55803 0.0
C569 C 0.39584 0.36262 0.52951 0.0
C570 C 0.40014 0.38417 0.60842 0.0
C571 C 0.38568 0.36108 0.63061 0.0
C572 C 0.37383 0.34028 0.60111 0.0
C573 C 0.37913 0.3409 0.55099 0.0
C574 C 0.41645 0.34213 0.75332 0.0
C575 C 0.39251 0.33125 0.77816 0.0
C576 C 0.41383 0.35449 0.70668 0.0
C577 C 0.38728 0.35572 0.68399 0.0
C578 C 0.36316 0.34691 0.71049 0.0
C579 C 0.36572 0.33505 0.75744 0.0
H580 H 0.37178 0.60508 0.51906 0.0
H581 H 0.44591 0.57703 0.4468 0.0
H582 H 0.35052 0.61607 0.44004 0.0
H583 H 0.4259 0.58996 0.36817 0.0
H584 H 0.39137 0.62417 0.22976 0.0
H585 H 0.39537 0.59231 0.30085 0.0
H586 H 0.36165 0.65534 0.39197 0.0
H587 H 0.35655 0.68601 0.32185 0.0
C588 C 0.38318 0.60061 0.48615 0.0
C589 C 0.41064 0.59082 0.48885 0.0
C590 C 0.3712 0.60718 0.44084 0.0
C591 C 0.38694 0.60507 0.39763 0.0
C592 C 0.41308 0.59205 0.40038 0.0
C593 C 0.42469 0.58471 0.44566 0.0
C594 C 0.38428 0.63085 0.26492 0.0
C595 C 0.37419 0.65785 0.27021 0.0
C596 C 0.38665 0.61264 0.30572 0.0
C597 C 0.37904 0.62118 0.35251 0.0
C598 C 0.36732 0.64757 0.3568 0.0
C599 C 0.36481 0.66553 0.31631 0.0
H600 H 0.15796 0.65815 0.2532 0.0
H601 H 0.09411 0.60061 0.31209 0.0
H602 H 0.15993 0.6321 0.18004 0.0
H603 H 0.09824 0.5718 0.24115 0.0
H604 H 0.06688 0.56863 0.08385 0.0
H605 H 0.08105 0.57131 0.1676 0.0
H606 H 0.16387 0.60291 0.1214 0.0
H607 H 0.14764 0.60348 0.03725 0.0
C608 C 0.14515 0.63906 0.25106 0.0
C609 C 0.12525 0.63176 0.28722 0.0
C610 C 0.14639 0.62366 0.20891 0.0
C611 C 0.12833 0.59999 0.20264 0.0
C612 C 0.11131 0.59068 0.24257 0.0
C613 C 0.10913 0.60691 0.28379 0.0
C614 C 0.08837 0.57549 0.09174 0.0
C615 C 0.1059 0.58674 0.0546 0.0
C616 C 0.09677 0.57699 0.14032 0.0
C617 C 0.12334 0.58899 0.1526 0.0
C618 C 0.14256 0.59545 0.11426 0.0
C619 C 0.13358 0.59525 0.06572 0.0
H620 H 0.10089 0.37742 0.76479 0.0
H621 H 0.14806 0.3134 0.83887 0.0
H622 H 0.09245 0.39913 0.84243 0.0
H623 H 0.13774 0.33318 0.9167 0.0
H624 H 0.11826 0.36965 0.05676 0.0
H625 H 0.13987 0.3639 0.97724 0.0
H626 H 0.06375 0.39275 0.90742 0.0
H627 H 0.04368 0.40067 0.9866 0.0
C628 C 0.10965 0.36818 0.7978 0.0
C629 C 0.12498 0.34371 0.79597 0.0
C630 C 0.10452 0.38035 0.84257 0.0
C631 C 0.11374 0.36773 0.88674 0.0
C632 C 0.13047 0.34401 0.88409 0.0
C633 C 0.13631 0.33241 0.83923 0.0
C634 C 0.10666 0.37553 1.02418 0.0
C635 C 0.07931 0.38547 1.02773 0.0
C636 C 0.11882 0.37187 0.97841 0.0
C637 C 0.10348 0.37711 0.93512 0.0
C638 C 0.07667 0.38869 0.93921 0.0
C639 C 0.06493 0.39315 0.98491 0.0
H640 H 0.96659 0.29876 0.21973 0.0
H641 H 0.05479 0.29239 0.25521 0.0
H642 H 0.9574 0.25202 0.25205 0.0
H643 H 0.04553 0.24523 0.28925 0.0
H644 H 0.03026 0.18164 0.16126 0.0
H645 H 0.04096 0.21718 0.21904 0.0
H646 H 0.95755 0.20495 0.28181 0.0
H647 H 0.94715 0.16859 0.22303 0.0
C648 C 0.98384 0.28764 0.23634 0.0
C649 C 0.01165 0.29799 0.23187 0.0
C650 C 0.97854 0.26086 0.25591 0.0
C651 C 0.00126 0.24411 0.26952 0.0
C652 C 0.0279 0.25723 0.27628 0.0
C653 C 0.03332 0.28395 0.25602 0.0
C654 C 0.01457 0.18595 0.18843 0.0
C655 C 0.98764 0.17342 0.18671 0.0
C656 C 0.02076 0.2061 0.22237 0.0
C657 C -0.00029 0.2147 0.25432 0.0
C658 C 0.97394 0.19932 0.25683 0.0
C659 C 0.96778 0.179 0.22265 0.0
H660 H 0.96084 0.81087 0.4963 0.0
H661 H 0.94791 0.72658 0.44873 0.0
H662 H 0.98811 0.79302 0.56597 0.0
H663 H 0.97021 0.70879 0.5211 0.0
H664 H 0.04132 0.68143 0.51178 0.0
H665 H 0.01086 0.70026 0.57423 0.0
H666 H 0.02959 0.78365 0.5161 0.0
H667 H 0.05454 0.76462 0.44994 0.0
C668 C 0.9631 0.78854 0.50146 0.0
C669 C 0.95403 0.77004 0.46546 0.0
C670 C 0.97752 0.77819 0.54255 0.0
C671 C 0.98459 0.74974 0.54506 0.0
C672 C 0.96791 0.73119 0.51754 0.0
C673 C 0.95511 0.74128 0.47535 0.0
C674 C 0.03858 0.70378 0.51258 0.0
C675 C 0.0489 0.72161 0.47457 0.0
C676 C 0.02224 0.71472 0.54958 0.0
C677 C 0.01505 0.74313 0.5464 0.0
C678 C 0.03233 0.76128 0.51717 0.0
C679 C 0.04686 0.75046 0.47866 0.0
H680 H 0.5259 0.6814 0.66315 0.0
H681 H 0.441 0.67477 0.71921 0.0
H682 H 0.53774 0.71688 0.72031 0.0
H683 H 0.45273 0.71065 0.77809 0.0
H684 H 0.46682 0.80383 0.71968 0.0
H685 H 0.45555 0.75725 0.75053 0.0
H686 H 0.54327 0.74607 0.787 0.0
H687 H 0.55464 0.79302 0.75379 0.0
C688 C 0.50998 0.68714 0.6889 0.0
C689 C 0.48231 0.67655 0.6855 0.0
C690 C 0.51681 0.70725 0.72261 0.0
C691 C 0.49581 0.71761 0.75285 0.0
C692 C 0.46912 0.70386 0.75415 0.0
C693 C 0.46224 0.68374 0.71999 0.0
C694 C 0.48357 0.79173 0.73565 0.0
C695 C 0.51179 0.80086 0.7312 0.0
C696 C 0.47709 0.765 0.75437 0.0
C697 C 0.49898 0.74708 0.76749 0.0
C698 C 0.52623 0.75891 0.77418 0.0
C699 C 0.53283 0.78556 0.75457 0.0
H700 H 0.57649 0.27955 0.99836 0.0
H701 H 0.51035 0.28341 0.89002 0.0
H702 H 0.54178 0.27582 0.06225 0.0
H703 H 0.47619 0.28608 0.95594 0.0
H704 H 0.4864 0.20909 0.92841 0.0
H705 H 0.52273 0.22498 0.98477 0.0
H706 H 0.4602 0.26294 0.07175 0.0
H707 H 0.42374 0.2397 1.02513 0.0
C708 C 0.55467 0.28165 0.98801 0.0
C709 C 0.54569 0.27853 0.93919 0.0
C710 C 0.5348 0.28043 1.02531 0.0
C711 C 0.50656 0.27646 1.01268 0.0
C712 C 0.49836 0.28601 0.96549 0.0
C713 C 0.51775 0.28412 0.92736 0.0
C714 C 0.48024 0.21854 0.96198 0.0
C715 C 0.45241 0.22606 0.96952 0.0
C716 C 0.50092 0.22757 0.99483 0.0
C717 C 0.49386 0.24885 1.0269 0.0
C718 C 0.46619 0.2488 0.04377 0.0
C719 C 0.44523 0.23644 1.01532 0.0
H720 H 0.00213 0.77015 0.9351 0.0
H721 H 0.97076 0.79355 0.79229 0.0
H722 H 0.04082 0.7466 0.89745 0.0
H723 H 0.00954 0.76983 0.75404 0.0
H724 H 0.01992 0.67238 0.81822 0.0
H725 H 0.01191 0.71382 0.77016 0.0
H726 H 0.087 0.75272 0.8289 0.0
H727 H 0.0983 0.70868 0.8709 0.0
C728 C 0.0033 0.76959 0.89568 0.0
C729 C 0.98319 0.78238 0.86637 0.0
C730 C 0.02603 0.75732 0.87396 0.0
C731 C 0.02871 0.75746 0.82262 0.0
C732 C 0.00839 0.77031 0.79347 0.0
C733 C 0.98583 0.78281 0.81528 0.0
C734 C 0.03603 0.68872 0.8182 0.0
C735 C 0.05897 0.68793 0.85036 0.0
C736 C 0.03172 0.71262 0.78975 0.0
C737 C 0.04699 0.73698 0.80147 0.0
C738 C 0.07384 0.73429 0.82242 0.0
C739 C 0.07973 0.70946 0.84793 0.0
H740 H 0.5375 0.81192 0.08553 0.0
H741 H 0.57261 0.73025 0.08538 0.0
H742 H 0.49955 0.79596 0.03405 0.0
H743 H 0.53613 0.71439 0.02982 0.0
H744 H 0.45723 0.69437 0.12065 0.0
H745 H 0.49569 0.69853 0.06321 0.0
H746 H 0.46163 0.77456 1.00177 0.0
H747 H 0.42458 0.77151 0.06276 0.0
C748 C 0.53739 0.79062 0.07332 0.0
C749 C 0.55652 0.77158 0.09224 0.0
C750 C 0.5158 0.78133 0.04276 0.0
C751 C 0.51285 0.75263 0.03198 0.0
C752 C 0.53617 0.73586 0.04106 0.0
C753 C 0.55715 0.74485 0.07304 0.0
C754 C 0.4578 0.71168 0.09419 0.0
C755 C 0.43946 0.73367 0.09813 0.0
C756 C 0.47973 0.71409 0.06042 0.0
C757 C 0.48392 0.73924 0.03241 0.0
C758 C 0.46071 0.75656 1.02672 0.0
C759 C 0.43944 0.7549 0.06173 0.0
H760 H 0.54689 0.19161 0.29755 0.0
H761 H 0.46121 0.17901 0.34796 0.0
H762 H 0.52979 0.21949 0.22813 0.0
H763 H 0.44495 0.2051 0.27678 0.0
H764 H 0.43634 0.28269 0.33584 0.0
H765 H 0.43961 0.25195 0.26696 0.0
H766 H 0.53071 0.25892 0.27661 0.0
H767 H 0.52675 0.28934 0.3445 0.0
C768 C 0.52449 0.19467 0.29384 0.0
C769 C 0.50545 0.1853 0.33058 0.0
C770 C 0.51451 0.20976 0.2532 0.0
C771 C 0.48713 0.22004 0.2559 0.0
C772 C 0.46736 0.20202 0.28038 0.0
C773 C 0.47651 0.18718 0.32164 0.0
C774 C 0.45693 0.27664 0.32375 0.0
C775 C 0.48139 0.28524 0.34855 0.0
C776 C 0.45892 0.25992 0.28331 0.0
C777 C 0.48532 0.24994 0.26976 0.0
C778 C 0.50972 0.26371 0.2884 0.0
C779 C 0.50771 0.28062 0.32838 0.0
H780 H 0.0507 0.29594 0.55243 0.0
H781 H 0.06222 0.21503 0.62137 0.0
H782 H 0.01442 0.27579 0.50017 0.0
H783 H 0.02673 0.19472 0.57043 0.0
H784 H 0.9464 0.18217 0.60835 0.0
H785 H 0.98436 0.18241 0.54853 0.0
H786 H 0.96959 0.26917 0.51232 0.0
H787 H 0.93134 0.26832 0.56971 0.0
C788 C 0.0453 0.27382 0.55636 0.0
C789 C 0.05749 0.25731 0.59316 0.0
C790 C 0.0246 0.26206 0.52627 0.0
C791 C 0.01454 0.23421 0.53531 0.0
C792 C 0.03153 0.21678 0.56466 0.0
C793 C 0.05214 0.22842 0.59448 0.0
C794 C 0.95132 0.20113 0.58699 0.0
C795 C 0.93807 0.22603 0.59659 0.0
C796 C 0.97308 0.20144 0.5527 0.0
C797 C 0.98349 0.22728 0.53242 0.0
C798 C 0.96488 0.24967 0.53194 0.0
C799 C 0.94293 0.24943 0.56547 0.0
H800 H 0.96895 0.03443 0.11764 0.0
H801 H 0.05073 0.04114 0.04853 0.0
H802 H 0.95525 -0.00392 0.06451 0.0
H803 H 0.03714 0.00292 0.9957 0.0
H804 H 0.96708 0.90468 1.0036 0.0
H805 H 0.9713 0.94614 0.05321 0.0
H806 H 0.00189 -0.00524 0.92765 0.0
H807 H -0.00228 0.95342 0.8781 0.0
C808 C 0.98395 0.02762 0.09113 0.0
C809 C 0.01085 0.04059 0.08692 0.0
C810 C 0.97612 0.00578 0.06087 0.0
C811 C 0.99503 -0.00313 1.02578 0.0
C812 C 0.02199 0.0098 1.02191 0.0
C813 C 0.02988 0.03141 0.0524 0.0
C814 C 0.97403 0.9244 0.9864 0.0
C815 C 0.98257 0.92587 0.93735 0.0
C816 C 0.9764 0.94808 1.01473 0.0
C817 C 0.98745 0.97339 0.9943 0.0
C818 C 0.99385 0.97529 0.94434 0.0
C819 C 0.99135 0.95171 0.91603 0.0
H820 H 0.20871 0.75828 0.39074 0.0
H821 H 0.15822 0.71174 0.28864 0.0
H822 H 0.25121 0.74917 0.34412 0.0
H823 H 0.20047 0.70247 0.24173 0.0
H824 H 0.2847 0.66983 0.19518 0.0
H825 H 0.24398 0.67691 0.24679 0.0
H826 H 0.27185 0.76282 0.26515 0.0
H827 H 0.31302 0.75546 0.21414 0.0
C828 C 0.20691 0.74577 0.35858 0.0
C829 C 0.18062 0.73487 0.34382 0.0
C830 C 0.23108 0.74074 0.33174 0.0
C831 C 0.2292 0.72499 0.28939 0.0
C832 C 0.20269 0.71413 0.2748 0.0
C833 C 0.17856 0.71917 0.30174 0.0
C834 C 0.28213 0.69021 0.21036 0.0
C835 C 0.3018 0.71218 0.20054 0.0
C836 C 0.25877 0.69429 0.23971 0.0
C837 C 0.25463 0.72045 0.2598 0.0
C838 C 0.27462 0.74234 0.25055 0.0
C839 C 0.29805 0.73822 0.22116 0.0
H840 H 0.53065 0.03443 0.42981 0.0
H841 H 0.47503 0.07867 0.5222 0.0
H842 H 0.53504 -0.00213 0.49435 0.0
H843 H 0.48 0.04306 0.5866 0.0
H844 H 0.44842 0.95315 0.62609 0.0
H845 H 0.4574 -0.00522 0.57499 0.0
H846 H 0.54709 0.98362 0.58706 0.0
H847 H 0.53801 0.94168 0.63978 0.0
C848 C 0.52039 0.03685 0.46461 0.0
C849 C 0.50218 0.0589 0.47113 0.0
C850 C 0.52291 0.01607 0.50145 0.0
C851 C 0.50734 0.01747 0.5449 0.0
C852 C 0.49178 0.04127 0.55308 0.0
C853 C 0.489 0.06165 0.51633 0.0
C854 C 0.47008 0.95964 0.6183 0.0
C855 C 0.49251 0.94416 0.63661 0.0
C856 C 0.47524 0.98356 0.58923 0.0
C857 C 0.50296 -0.00747 0.57754 0.0
C858 C 0.52556 0.97709 0.59568 0.0
C859 C 0.52035 0.95317 0.62559 0.0
H860 H 0.28527 0.25821 0.91837 0.0
H861 H 0.3352 0.25823 0.78686 0.0
H862 H 0.24441 0.27227 0.87081 0.0
H863 H 0.29397 0.27183 0.73889 0.0
H864 H 0.21142 0.29647 0.66528 0.0
H865 H 0.25208 0.30471 0.71976 0.0
H866 H 0.22113 0.23727 0.81585 0.0
H867 H 0.18154 0.22889 0.76153 0.0
C868 C 0.28763 0.26188 0.87937 0.0
C869 C 0.31303 0.25641 0.85597 0.0
C870 C 0.26431 0.27003 0.85223 0.0
C871 C 0.26592 0.27258 0.80117 0.0
C872 C 0.29217 0.27005 0.77826 0.0
C873 C 0.31568 0.26205 0.80559 0.0
C874 C 0.21316 0.28405 0.6988 0.0
C875 C 0.19371 0.26199 0.70948 0.0
C876 C 0.23634 0.28864 0.72969 0.0
C877 C 0.23966 0.2717 0.77204 0.0
C878 C 0.21897 0.25095 0.78391 0.0
C879 C 0.1964 0.24599 0.75271 0.0
H880 H 0.65737 0.2216 0.78895 0.0
H881 H 0.71523 0.25895 0.89134 0.0
H882 H 0.6972 0.20637 0.74088 0.0
H883 H 0.75501 0.24377 0.84391 0.0
H884 H 0.81396 0.24959 0.71241 0.0
H885 H 0.7741 0.25893 0.76472 0.0
H886 H 0.73872 0.17624 0.73995 0.0
H887 H 0.77857 0.16709 0.68692 0.0
C888 C 0.67859 0.2256 0.80202 0.0
C889 C 0.68342 0.24096 0.84401 0.0
C890 C 0.70139 0.21714 0.7744 0.0
C891 C 0.72922 0.22416 0.78842 0.0
C892 C 0.73382 0.23851 0.83172 0.0
C893 C 0.71113 0.24699 0.85904 0.0
C894 C 0.79769 0.23343 0.71827 0.0
C895 C 0.79924 0.20767 0.69576 0.0
C896 C 0.77497 0.23866 0.74843 0.0
C897 C 0.75337 0.21821 0.75668 0.0
C898 C 0.75495 0.19243 0.73398 0.0
C899 C 0.77775 0.18718 0.70384 0.0
H900 H 0.83122 0.71859 0.27854 0.0
H901 H 0.8173 0.79298 0.35899 0.0
H902 H 0.78736 0.72524 0.23432 0.0
H903 H 0.77275 0.79954 0.3145 0.0
H904 H 0.70349 0.79954 0.17861 0.0
H905 H 0.74946 0.80442 0.22053 0.0
H906 H 0.73856 0.72009 0.27957 0.0
H907 H 0.69362 0.71517 0.23813 0.0
C908 C 0.81892 0.73662 0.28618 0.0
C909 C 0.82727 0.75502 0.32255 0.0
C910 C 0.79391 0.74045 0.26086 0.0
C911 C 0.77659 0.76262 0.27175 0.0
C912 C 0.78585 0.78232 0.3056 0.0
C913 C 0.81119 0.77853 0.33098 0.0
C914 C 0.7109 0.78236 0.20128 0.0
C915 C 0.69549 0.75678 0.20447 0.0
C916 C 0.73702 0.78514 0.22511 0.0
C917 C 0.74764 0.76236 0.25215 0.0
C918 C 0.73109 0.73769 0.25796 0.0
C919 C 0.70537 0.73491 0.23429 0.0
H920 H 0.46242 0.53579 0.61437 0.0
H921 H 0.54249 0.54774 0.5407 0.0
H922 H 0.44906 0.49863 0.55841 0.0
H923 H 0.5292 0.51087 0.48495 0.0
H924 H 0.46848 0.40854 0.49567 0.0
H925 H 0.46882 0.45001 0.54496 0.0
H926 H 0.49273 0.50127 0.41831 0.0
H927 H 0.49213 0.45977 0.36872 0.0
C928 C 0.47707 0.53045 0.58613 0.0
C929 C 0.50349 0.54437 0.5817 0.0
C930 C 0.46941 0.50936 0.5542 0.0
C931 C 0.48798 0.50223 0.51716 0.0
C932 C 0.5143 0.51638 0.51266 0.0
C933 C 0.52206 0.53717 0.54486 0.0
C934 C 0.47282 0.42877 0.47799 0.0
C935 C 0.48064 0.431 0.4286 0.0
C936 C 0.47302 0.45248 0.50621 0.0
C937 C 0.48127 0.47865 0.48544 0.0
C938 C 0.48671 0.48118 0.43516 0.0
C939 C 0.48629 0.45751 0.40686 0.0
H940 H 0.96649 0.57331 1.01521 0.0
H941 H 0.03958 0.54107 0.94545 0.0
H942 H 0.96407 0.5327 0.07061 0.0
H943 H 0.03696 0.49974 1.00106 0.0
H944 H 0.03232 0.44109 0.14233 0.0
H945 H 0.04018 0.48313 0.08971 0.0
H946 H 0.951 0.48372 0.05791 0.0
H947 H 0.94324 0.44235 0.11029 0.0
C948 C 0.9821 0.55747 1.01185 0.0
C949 C 0.00308 0.56014 0.97592 0.0
C950 C 0.98068 0.53419 0.0435 0.0
C951 C 6e-05 0.51283 0.03968 0.0
C952 C 0.02181 0.51595 1.0049 0.0
C953 C 0.02328 0.53948 0.97311 0.0
C954 C 0.01451 0.45029 0.12389 0.0
C955 C 0.98716 0.43865 0.13048 0.0
C956 C 0.01901 0.47421 0.09374 0.0
C957 C -0.00384 0.48686 0.07015 0.0
C958 C 0.96896 0.47481 0.07637 0.0
C959 C 0.96451 0.45104 0.10624 0.0
H960 H 0.07783 0.09035 0.30955 0.0
H961 H 0.09429 0.17396 0.25051 0.0
H962 H 0.09614 0.10451 0.38872 0.0
H963 H 0.11283 0.18807 0.32963 0.0
H964 H 0.16151 0.19964 0.47085 0.0
H965 H 0.15183 0.17945 0.3915 0.0
H966 H 0.07696 0.13737 0.45062 0.0
H967 H 0.08652 0.15776 0.52986 0.0
C968 C 0.08595 0.11159 0.31322 0.0
C969 C 0.08468 0.13108 0.27392 0.0
C970 C 0.09624 0.11972 0.35861 0.0
C971 C 0.10578 0.1474 0.36542 0.0
C972 C 0.10585 0.16652 0.32536 0.0
C973 C 0.09524 0.15847 0.28009 0.0
C974 C 0.14329 0.18564 0.46712 0.0
C975 C 0.12475 0.18024 0.50646 0.0
C976 C 0.13767 0.17425 0.42164 0.0
C977 C 0.11359 0.15696 0.41481 0.0
C978 C 0.09582 0.15044 0.45489 0.0
C979 C 0.10126 0.16211 0.50023 0.0
H980 H 0.14889 0.79215 0.57077 0.0
H981 H 0.07433 0.83233 0.51695 0.0
H982 H 0.13922 0.80778 0.65276 0.0
H983 H 0.06505 0.84854 0.59913 0.0
H984 H 0.06759 0.88698 0.74963 0.0
H985 H 0.0879 0.87914 0.66952 0.0
H986 H 0.09563 0.79169 0.70853 0.0
H987 H 0.07473 0.7994 0.78837 0.0
C988 C 0.13088 0.80503 0.57617 0.0
C989 C 0.1123 0.81102 0.53752 0.0
C990 C 0.12532 0.8138 0.62315 0.0
C991 C 0.10137 0.82918 0.63219 0.0
C992 C 0.08381 0.83685 0.59294 0.0
C993 C 0.08912 0.82765 0.54597 0.0
C994 C 0.07431 0.86622 0.7416 0.0
C995 C 0.06955 0.84372 0.77511 0.0
C996 C 0.08571 0.86176 0.69565 0.0
C997 C 0.09311 0.83484 0.68286 0.0
C998 C 0.09022 0.8127 0.71766 0.0
C999 C 0.07833 0.81708 0.76331 0.0
H1000 H 0.38324 0.8213 0.08875 0.0
H1001 H 0.35011 0.75636 0.99712 0.0
H1002 H 0.39436 0.85051 1.01596 0.0
H1003 H 0.36274 0.78404 0.92532 0.0
H1004 H 0.38594 0.83502 0.79508 0.0
H1005 H 0.36055 0.81925 0.86876 0.0
H1006 H 0.42881 0.85254 0.95681 0.0
H1007 H 0.45268 0.87008 0.88326 0.0
C1008 C 0.37764 0.81358 0.05321 0.0
C1009 C 0.3661 0.7864 0.04876 0.0
C1010 C 0.38451 0.83007 1.01127 0.0
C1011 C 0.38018 0.81958 0.96411 0.0
C1012 C 0.36636 0.7933 0.96035 0.0
C1013 C 0.35923 0.77714 1.00194 0.0
C1014 C 0.39512 0.83935 0.83035 0.0
C1015 C 0.42131 0.85357 0.8335 0.0
C1016 C 0.38073 0.83013 0.87278 0.0
C1017 C 0.39267 0.83405 0.9194 0.0
C1018 C 0.41848 0.84934 0.92214 0.0
C1019 C 0.43242 0.85923 0.87977 0.0
H1020 H 0.39543 0.1541 0.28032 0.0
H1021 H 0.42613 0.07338 0.24465 0.0
H1022 H 0.37274 0.15777 0.20046 0.0
H1023 H 0.4034 0.07697 0.16486 0.0
H1024 H 0.40922 0.12748 1.01264 0.0
H1025 H 0.41755 0.10899 0.09501 0.0
H1026 H 0.33718 0.1388 0.14085 0.0
H1027 H 0.32881 0.15724 0.05812 0.0
C1028 C 0.39658 0.13679 0.25599 0.0
C1029 C 0.41272 0.1136 0.2684 0.0
C1030 C 0.38351 0.13881 0.21031 0.0
C1031 C 0.3865 0.11772 0.17623 0.0
C1032 C 0.40098 0.09364 0.19018 0.0
C1033 C 0.4139 0.09157 0.2359 0.0
C1034 C 0.39287 0.12913 0.03984 0.0
C1035 C 0.36853 0.14399 0.02916 0.0
C1036 C 0.39761 0.11854 0.08708 0.0
C1037 C 0.37817 0.12282 0.12458 0.0
C1038 C 0.35266 0.13551 0.1128 0.0
C1039 C 0.34779 0.14584 0.06534 0.0
H1040 H 0.90121 0.8463 0.49583 0.0
H1041 H 0.88147 0.76636 0.5668 0.0
H1042 H 0.91164 0.86619 0.57538 0.0
H1043 H 0.8916 0.78626 0.64608 0.0
H1044 H 0.89441 0.83472 0.78753 0.0
H1045 H 0.87647 0.82075 0.7076 0.0
H1046 H 0.9496 0.86032 0.63822 0.0
H1047 H 0.96757 0.87393 0.71782 0.0
C1048 C 0.89842 0.83309 0.52836 0.0
C1049 C 0.89023 0.80468 0.52452 0.0
C1050 C 0.90469 0.84446 0.5741 0.0
C1051 C 0.90251 0.82792 0.61754 0.0
C1052 C 0.89324 0.79982 0.61376 0.0
C1053 C 0.88746 0.78835 0.56806 0.0
C1054 C 0.90627 0.84115 0.75513 0.0
C1055 C 0.93237 0.85574 0.75937 0.0
C1056 C 0.89615 0.8328 0.70922 0.0
C1057 C 0.91159 0.83923 0.6661 0.0
C1058 C 0.93692 0.85514 0.67026 0.0
C1059 C 0.94726 0.863 0.7161 0.0
H1060 H 0.8633 0.11968 0.48345 0.0
H1061 H 0.92929 0.18387 0.47552 0.0
H1062 H 0.88173 0.09962 0.40847 0.0
H1063 H 0.94758 0.16398 0.40211 0.0
H1064 H 0.99398 0.10618 0.30951 0.0
H1065 H 0.97136 0.11894 0.38452 0.0
H1066 H 0.89008 0.11375 0.31424 0.0
H1067 H 0.91295 0.10099 0.23789 0.0
C1068 C 0.88167 0.12945 0.46583 0.0
C1069 C 0.89492 0.15326 0.48567 0.0
C1070 C 0.89214 0.11807 0.42285 0.0
C1071 C 0.91633 0.13002 0.39954 0.0
C1072 C 0.92922 0.15395 0.41941 0.0
C1073 C 0.91863 0.16543 0.46156 0.0
C1074 C 0.97122 0.10725 0.30989 0.0
C1075 C 0.95538 0.10272 0.26723 0.0
C1076 C 0.95824 0.11471 0.35306 0.0
C1077 C 0.92895 0.11783 0.35528 0.0
C1078 C 0.91271 0.11149 0.31375 0.0
C1079 C 0.92581 0.10409 0.27004 0.0
H1080 H 0.57603 0.16672 1.00153 0.0
H1081 H 0.61726 0.23166 0.08375 0.0
H1082 H 0.5608 0.14282 0.07719 0.0
H1083 H 0.60199 0.20747 0.15996 0.0
H1084 H 0.58819 0.1437 0.29075 0.0
H1085 H 0.60711 0.16507 0.21456 0.0
H1086 H 0.52749 0.14826 0.14359 0.0
H1087 H 0.50866 0.12716 0.21929 0.0
C1088 C 0.58219 0.17589 0.03568 0.0
C1089 C 0.59817 0.2013 0.03576 0.0
C1090 C 0.57317 0.16215 0.07946 0.0
C1091 C 0.57994 0.17301 0.12539 0.0
C1092 C 0.59647 0.19812 0.12566 0.0
C1093 C 0.60524 0.21212 0.08168 0.0
C1094 C 0.57488 0.14394 0.25865 0.0
C1095 C 0.54684 0.13319 0.2617 0.0
C1096 C 0.58565 0.15666 0.21489 0.0
C1097 C 0.56897 0.15865 0.17226 0.0
C1098 C 0.54128 0.14702 0.17502 0.0
C1099 C 0.53041 0.13475 0.2188 0.0
H1100 H 0.52051 0.87705 0.85937 0.0
H1101 H 0.59397 0.86606 0.77041 0.0
H1102 H 0.54714 0.86382 0.93227 0.0
H1103 H 0.62064 0.85234 0.84365 0.0
H1104 H 0.60696 0.85375 0.061 0.0
H1105 H 0.5886 0.8771 0.98712 0.0
H1106 H 0.6163 0.80933 0.90101 0.0
H1107 H 0.63415 0.78592 0.97464 0.0
C1108 C 0.54256 0.87237 0.85547 0.0
C1109 C 0.55511 0.87279 0.80893 0.0
C1110 C 0.55787 0.86484 0.89739 0.0
C1111 C 0.58607 0.85695 0.89399 0.0
C1112 C 0.59895 0.85823 0.84762 0.0
C1113 C 0.58374 0.86634 0.80566 0.0
C1114 C 0.60992 0.8443 1.0261 0.0
C1115 C 0.62228 0.81807 1.02376 0.0
C1116 C 0.59911 0.85751 0.98379 0.0
C1117 C 0.60088 0.84509 0.938 0.0
C1118 C 0.61479 0.81969 0.93541 0.0
C1119 C 0.62505 0.80625 0.97772 0.0
H1120 H 0.55055 0.60248 0.82055 0.0
H1121 H 0.60597 0.66044 0.74039 0.0
H1122 H 0.56862 0.61975 0.89688 0.0
H1123 H 0.62628 0.67627 0.81687 0.0
H1124 H 0.6269 0.72648 0.954 0.0
H1125 H 0.61582 0.70434 0.87821 0.0
H1126 H 0.60098 0.62535 0.95697 0.0
H1127 H 0.60991 0.64869 0.0338 0.0
C1128 C 0.56737 0.61835 0.81939 0.0
C1129 C 0.57679 0.63029 0.77468 0.0
C1130 C 0.57796 0.62822 0.86338 0.0
C1131 C 0.59883 0.64981 0.86377 0.0
C1132 C 0.60957 0.66033 0.81853 0.0
C1133 C 0.59827 0.65104 0.7745 0.0
C1134 C 0.62145 0.70431 0.95507 0.0
C1135 C 0.61917 0.68927 0.9997 0.0
C1136 C 0.61534 0.69141 0.91129 0.0
C1137 C 0.60752 0.66281 0.91067 0.0
C1138 C 0.6063 0.64751 0.95561 0.0
C1139 C 0.61165 0.66073 0.99976 0.0
H1140 H 0.57931 0.40324 0.25181 0.0
H1141 H 0.58943 0.3157 0.28779 0.0
H1142 H 0.60505 0.39819 0.17569 0.0
H1143 H 0.61506 0.3106 0.21169 0.0
H1144 H 0.59804 0.35731 1.02029 0.0
H1145 H 0.5887 0.3731 0.10217 0.0
H1146 H 0.65653 0.32361 0.15889 0.0
H1147 H 0.66585 0.30778 0.07681 0.0
C1148 C 0.58773 0.3831 0.24407 0.0
C1149 C 0.58217 0.35977 0.27539 0.0
C1150 C 0.60233 0.3802 0.20039 0.0
C1151 C 0.6118 0.35396 0.18744 0.0
C1152 C 0.60823 0.33116 0.22078 0.0
C1153 C 0.59349 0.33403 0.26434 0.0
C1154 C 0.61156 0.35056 0.04997 0.0
C1155 C 0.63249 0.33116 0.04232 0.0
C1156 C 0.60626 0.35963 0.09692 0.0
C1157 C 0.62169 0.34932 0.13708 0.0
C1158 C 0.6441 0.33163 0.12872 0.0
C1159 C 0.64954 0.32273 0.08169 0.0
H1160 H 0.88335 0.32862 0.29286 0.0
H1161 H 0.94977 0.36493 0.38019 0.0
H1162 H 0.85848 0.31249 0.36676 0.0
H1163 H 0.9266 0.34683 0.45402 0.0
H1164 H 0.88213 0.31448 0.58672 0.0
H1165 H 0.89322 0.34372 0.51404 0.0
H1166 H 0.86025 0.27783 0.42339 0.0
H1167 H 0.84742 0.25028 0.49505 0.0
C1168 C 0.8926 0.33309 0.32802 0.0
C1169 C 0.9185 0.34784 0.33085 0.0
C1170 C 0.87852 0.32362 0.37063 0.0
C1171 C 0.89058 0.3277 0.41714 0.0
C1172 C 0.91614 0.34346 0.41953 0.0
C1173 C 0.9297 0.35368 0.37697 0.0
C1174 C 0.87627 0.30688 0.55122 0.0
C1175 C 0.86419 0.27991 0.5468 0.0
C1176 C 0.88313 0.32339 0.50928 0.0
C1177 C 0.87839 0.31311 0.46206 0.0
C1178 C 0.86421 0.28699 0.45838 0.0
C1179 C 0.85698 0.27087 0.49997 0.0
H1180 H 0.91327 0.66208 0.79738 0.0
H1181 H 0.98274 0.62563 0.72419 0.0
H1182 H 0.88985 0.66984 0.71893 0.0
H1183 H 0.96141 0.63574 0.64589 0.0
H1184 H 0.9172 0.64535 0.50593 0.0
H1185 H 0.93013 0.62749 0.5869 0.0
H1186 H 0.88868 0.69677 0.6511 0.0
H1187 H 0.87346 0.71226 0.5712 0.0
C1188 C 0.92358 0.65607 0.76427 0.0
C1189 C 0.94961 0.64324 0.76648 0.0
C1190 C 0.91036 0.66065 0.71909 0.0
C1191 C 0.92355 0.65353 0.67515 0.0
C1192 C 0.94985 0.64081 0.67821 0.0
C1193 C 0.96241 0.63531 0.72327 0.0
C1194 C 0.91024 0.65607 0.53773 0.0
C1195 C 0.89436 0.68008 0.5324 0.0
C1196 C 0.91803 0.64622 0.58429 0.0
C1197 C 0.91118 0.66096 0.62633 0.0
C1198 C 0.89418 0.68436 0.62048 0.0
C1199 C 0.88552 0.69347 0.57425 0.0
H1200 H 0.40037 0.32888 0.2928 0.0
H1201 H 0.47372 0.35927 0.21235 0.0
H1202 H 0.38044 0.30955 0.2179 0.0
H1203 H 0.45395 0.34011 0.1379 0.0
H1204 H 0.40259 0.32249 1.00128 0.0
H1205 H 0.41745 0.34455 0.07638 0.0
H1206 H 0.38752 0.27174 0.15997 0.0
H1207 H 0.37256 0.24953 0.08445 0.0
C1208 C 0.41203 0.33204 0.25905 0.0
C1209 C 0.43862 0.34615 0.25903 0.0
C1210 C 0.40072 0.32055 0.21598 0.0
C1211 C 0.4154 0.32311 0.17115 0.0
C1212 C 0.44163 0.33787 0.17109 0.0
C1213 C 0.45307 0.34895 0.21413 0.0
C1214 C 0.39865 0.3112 0.03557 0.0
C1215 C 0.38604 0.28407 0.03608 0.0
C1216 C 0.40754 0.32386 0.07898 0.0
C1217 C 0.404 0.31008 0.12492 0.0
C1218 C 0.39049 0.28332 0.1257 0.0
C1219 C 0.38183 0.2705 0.0821 0.0
H1220 H 0.35434 0.64471 0.96662 0.0
H1221 H 0.44059 0.66444 1.00567 0.0
H1222 H 0.37039 0.6247 0.89067 0.0
H1223 H 0.45661 0.64595 0.9296 0.0
H1224 H 0.48459 0.59478 0.80882 0.0
H1225 H 0.46438 0.60657 0.8866 0.0
H1226 H 0.38934 0.63411 0.81228 0.0
H1227 H 0.40929 0.62064 0.73449 0.0
C1228 C 0.37672 0.64474 0.95896 0.0
C1229 C 0.39619 0.65592 0.99243 0.0
C1230 C 0.38598 0.63346 0.91517 0.0
C1231 C 0.41496 0.63331 0.90352 0.0
C1232 C 0.43423 0.64475 0.93728 0.0
C1233 C 0.42502 0.65565 0.98106 0.0
C1234 C 0.46344 0.60265 0.80928 0.0
C1235 C 0.44847 0.60654 0.76549 0.0
C1236 C 0.45194 0.6099 0.85395 0.0
C1237 C 0.42534 0.62205 0.85627 0.0
C1238 C 0.40976 0.62468 0.81251 0.0
C1239 C 0.42113 0.61685 0.76772 0.0
H1240 H 0.11755 0.72088 0.584 0.0
H1241 H 0.10698 0.6416 0.51464 0.0
H1242 H 0.1083 0.69773 0.66358 0.0
H1243 H 0.09731 0.61859 0.59412 0.0
H1244 H 0.11008 0.64369 0.8061 0.0
H1245 H 0.12697 0.66233 0.72644 0.0
H1246 H 0.05782 0.61906 0.65583 0.0
H1247 H 0.04074 0.60111 0.73528 0.0
C1248 C 0.11367 0.69845 0.58563 0.0
C1249 C 0.11332 0.68322 0.5424 0.0
C1250 C 0.1084 0.68512 0.6315 0.0
C1251 C 0.10203 0.65616 0.63572 0.0
C1252 C 0.10203 0.64088 0.59258 0.0
C1253 C 0.10782 0.65412 0.54683 0.0
C1254 C 0.09915 0.63725 0.77341 0.0
C1255 C 0.07449 0.62013 0.77723 0.0
C1256 C 0.10853 0.64838 0.72768 0.0
C1257 C 0.09381 0.64233 0.68427 0.0
C1258 C 0.06999 0.62402 0.68804 0.0
C1259 C 0.06029 0.61347 0.73373 0.0
H1260 H 0.01764 0.37381 0.3584 0.0
H1261 H 0.0903 0.36179 0.26803 0.0
H1262 H 0.04432 0.35923 0.4306 0.0
H1263 H 0.11692 0.34662 0.34044 0.0
H1264 H 0.10647 0.3491 0.55704 0.0
H1265 H 0.08723 0.37217 0.48384 0.0
H1266 H 0.11133 0.30293 0.39797 0.0
H1267 H 0.1301 0.27964 0.47113 0.0
C1268 C 0.03953 0.36864 0.35407 0.0
C1269 C 0.05188 0.36927 0.30738 0.0
C1270 C 0.05485 0.36028 0.39553 0.0
C1271 C 0.08278 0.35168 0.39142 0.0
C1272 C 0.09544 0.35305 0.34491 0.0
C1273 C 0.08027 0.36203 0.30346 0.0
C1274 C 0.10834 0.3391 0.52237 0.0
C1275 C 0.12004 0.31254 0.52008 0.0
C1276 C 0.09705 0.35223 0.48045 0.0
C1277 C 0.09766 0.33941 0.43496 0.0
C1278 C 0.11071 0.31354 0.43224 0.0
C1279 C 0.12147 0.30017 0.47427 0.0
loop_
_geom_bond_atom_site_label_1
_geom_bond_atom_site_label_2
_geom_bond_distance
_geom_bond_site_symmetry_2
_ccdc_geom_bond_type
Dy0 O4 2.398 . S
Dy0 O5 2.491 . S
Dy0 O6 2.403 . S
Dy0 O7 2.639 1_455 S
Dy0 O11 2.326 1_455 S
Dy0 O15 2.310 . S
Dy0 O16 2.351 . S
C1 O12 1.185 . S
C1 O13 1.355 . S
C2 O4 1.185 . S
C2 O5 1.355 . S
Dy3 O7 2.335 . S
Dy3 O10 2.351 . S
Dy3 O12 2.398 1_554 S
Dy3 O13 2.491 1_554 S
Dy3 O14 2.403 . S
Dy3 O15 2.664 1_655 S
Dy3 O17 2.326 1_655 S
O4 Dy0 2.398 . S
O4 C2 1.185 . S
O5 Dy0 2.491 . S
O5 C2 1.355 . S
O6 Dy0 2.403 . S
O6 C8 1.254 . S
O7 Dy0 2.639 1_655 S
O7 Dy3 2.335 . S
O7 C8 1.253 1_655 S
C8 O6 1.254 . S
C8 O7 1.253 1_455 S
C9 O14 1.254 . S
C9 O15 1.268 1_655 S
O10 Dy3 2.351 . S
O10 C18 1.249 . S
O11 Dy0 2.326 1_655 S
O11 C18 1.267 . S
O12 C1 1.185 . S
O12 Dy3 2.398 1_556 S
O13 C1 1.355 . S
O13 Dy3 2.491 1_556 S
O14 Dy3 2.403 . S
O14 C9 1.254 . S
O15 Dy0 2.310 . S
O15 Dy3 2.664 1_455 S
O15 C9 1.268 1_455 S
O16 Dy0 2.351 . S
O16 C19 1.249 . S
O17 Dy3 2.326 1_455 S
O17 C19 1.267 . S
C18 O10 1.249 . S
C18 O11 1.267 . S
C19 O16 1.249 . S
C19 O17 1.267 . S
Dy20 O24 2.398 . S
Dy20 O25 2.491 . S
Dy20 O26 2.403 . S
Dy20 O27 2.664 . S
Dy20 O31 2.326 . S
Dy20 O35 2.310 . S
Dy20 O36 2.351 . S
C21 O32 1.185 . S
C21 O33 1.355 . S
C22 O24 1.185 . S
C22 O25 1.355 . S
Dy23 O27 2.310 . S
Dy23 O30 2.351 . S
Dy23 O32 2.398 . S
Dy23 O33 2.491 . S
Dy23 O34 2.403 . S
Dy23 O35 2.664 . S
Dy23 O37 2.326 . S
O24 Dy20 2.398 . S
O24 C22 1.185 . S
O25 Dy20 2.491 . S
O25 C22 1.355 . S
O26 Dy20 2.403 . S
O26 C28 1.254 . S
O27 Dy20 2.664 . S
O27 Dy23 2.310 . S
O27 C28 1.268 . S
C28 O26 1.254 . S
C28 O27 1.268 . S
C29 O34 1.254 . S
C29 O35 1.268 . S
O30 Dy23 2.351 . S
O30 C38 1.249 . S
O31 Dy20 2.326 . S
O31 C38 1.267 . S
O32 C21 1.185 . S
O32 Dy23 2.398 . S
O33 C21 1.355 . S
O33 Dy23 2.491 . S
O34 Dy23 2.403 . S
O34 C29 1.254 . S
O35 Dy20 2.310 . S
O35 Dy23 2.664 . S
O35 C29 1.268 . S
O36 Dy20 2.351 . S
O36 C39 1.249 . S
O37 Dy23 2.326 . S
O37 C39 1.267 . S
C38 O30 1.249 . S
C38 O31 1.267 . S
C39 O36 1.249 . S
C39 O37 1.267 . S
Dy40 O44 2.398 . S
Dy40 O45 2.491 . S
Dy40 O46 2.403 . S
Dy40 O47 2.664 . S
Dy40 O51 2.326 . S
Dy40 O55 2.310 . S
Dy40 O56 2.351 . S
C41 O52 1.185 . S
C41 O53 1.355 . S
C42 O44 1.185 . S
C42 O45 1.355 . S
Dy43 O47 2.310 . S
Dy43 O50 2.351 . S
Dy43 O52 2.398 . S
Dy43 O53 2.491 . S
Dy43 O54 2.403 . S
Dy43 O55 2.664 . S
Dy43 O57 2.326 . S
O44 Dy40 2.398 . S
O44 C42 1.185 . S
O45 Dy40 2.491 . S
O45 C42 1.355 . S
O46 Dy40 2.403 . S
O46 C48 1.254 . S
O47 Dy40 2.664 . S
O47 Dy43 2.310 . S
O47 C48 1.268 . S
C48 O46 1.254 . S
C48 O47 1.268 . S
C49 O54 1.254 . S
C49 O55 1.268 . S
O50 Dy43 2.351 . S
O50 C58 1.249 . S
O51 Dy40 2.326 . S
O51 C58 1.267 . S
O52 C41 1.185 . S
O52 Dy43 2.398 . S
O53 C41 1.355 . S
O53 Dy43 2.491 . S
O54 Dy43 2.403 . S
O54 C49 1.254 . S
O55 Dy40 2.310 . S
O55 Dy43 2.664 . S
O55 C49 1.268 . S
O56 Dy40 2.351 . S
O56 C59 1.249 . S
O57 Dy43 2.326 . S
O57 C59 1.267 . S
C58 O50 1.249 . S
C58 O51 1.267 . S
C59 O56 1.249 . S
C59 O57 1.267 . S
Dy60 O64 2.398 . S
Dy60 O65 2.491 . S
Dy60 O66 2.403 . S
Dy60 O67 2.664 . S
Dy60 O71 2.326 . S
Dy60 O75 2.310 . S
Dy60 O76 2.351 . S
C61 O72 1.185 . S
C61 O73 1.355 . S
C62 O64 1.199 . S
C62 O65 1.365 . S
Dy63 O67 2.310 . S
Dy63 O70 2.351 . S
Dy63 O72 2.398 . S
Dy63 O73 2.491 . S
Dy63 O74 2.403 . S
Dy63 O75 2.664 . S
Dy63 O77 2.326 . S
O64 Dy60 2.398 . S
O64 C62 1.199 . S
O65 Dy60 2.491 . S
O65 C62 1.365 . S
O66 Dy60 2.403 . S
O66 C68 1.254 . S
O67 Dy60 2.664 . S
O67 Dy63 2.310 . S
O67 C68 1.268 . S
C68 O66 1.254 . S
C68 O67 1.268 . S
C69 O74 1.254 . S
C69 O75 1.268 . S
O70 Dy63 2.351 . S
O70 C78 1.249 . S
O71 Dy60 2.326 . S
O71 C78 1.267 . S
O72 C61 1.185 . S
O72 Dy63 2.398 . S
O73 C61 1.355 . S
O73 Dy63 2.491 . S
O74 Dy63 2.403 . S
O74 C69 1.254 . S
O75 Dy60 2.310 . S
O75 Dy63 2.664 . S
O75 C69 1.268 . S
O76 Dy60 2.351 . S
O76 C79 1.249 . S
O77 Dy63 2.326 . S
O77 C79 1.267 . S
C78 O70 1.249 . S
C78 O71 1.267 . S
C79 O76 1.249 . S
C79 O77 1.267 . S
Dy80 O84 2.398 . S
Dy80 O85 2.491 . S
Dy80 O86 2.403 . S
Dy80 O87 2.687 . S
Dy80 O91 2.335 . S
Dy80 O95 2.310 . S
Dy80 O96 2.351 . S
C81 O92 1.185 1_554 S
C81 O93 1.355 1_554 S
C82 O84 1.185 . S
C82 O85 1.355 . S
Dy83 O87 2.289 1_655 S
Dy83 O90 2.351 . S
Dy83 O92 2.398 . S
Dy83 O93 2.491 . S
Dy83 O94 2.403 . S
Dy83 O95 2.664 1_655 S
Dy83 O97 2.326 1_655 S
O84 Dy80 2.398 . S
O84 C82 1.185 . S
O85 Dy80 2.491 . S
O85 C82 1.355 . S
O86 Dy80 2.403 . S
O86 C88 1.254 . S
O87 Dy80 2.687 . S
O87 Dy83 2.289 1_455 S
O87 C88 1.280 . S
C88 O86 1.254 . S
C88 O87 1.280 . S
C89 O94 1.254 . S
C89 O95 1.268 1_655 S
O90 Dy83 2.351 . S
O90 C98 1.249 . S
O91 Dy80 2.335 . S
O91 C98 1.257 1_455 S
O92 C81 1.185 1_556 S
O92 Dy83 2.398 . S
O93 C81 1.355 1_556 S
O93 Dy83 2.491 . S
O94 Dy83 2.403 . S
O94 C89 1.254 . S
O95 Dy80 2.310 . S
O95 Dy83 2.664 1_455 S
O95 C89 1.268 1_455 S
O96 Dy80 2.351 . S
O96 C99 1.249 . S
O97 Dy83 2.326 1_455 S
O97 C99 1.267 . S
C98 O90 1.249 . S
C98 O91 1.257 1_655 S
C99 O96 1.249 . S
C99 O97 1.267 . S
Dy100 O104 2.398 . S
Dy100 O105 2.491 . S
Dy100 O106 2.403 . S
Dy100 O107 2.664 . S
Dy100 O111 2.326 . S
Dy100 O115 2.310 . S
Dy100 O116 2.351 . S
C101 O112 1.185 . S
C101 O113 1.355 . S
C102 O104 1.185 . S
C102 O105 1.355 . S
Dy103 O107 2.310 . S
Dy103 O110 2.351 . S
Dy103 O112 2.398 . S
Dy103 O113 2.491 . S
Dy103 O114 2.403 . S
Dy103 O115 2.664 . S
Dy103 O117 2.326 . S
O104 Dy100 2.398 . S
O104 C102 1.185 . S
O105 Dy100 2.491 . S
O105 C102 1.355 . S
O106 Dy100 2.403 . S
O106 C108 1.254 . S
O107 Dy100 2.664 . S
O107 Dy103 2.310 . S
O107 C108 1.268 . S
C108 O106 1.254 . S
C108 O107 1.268 . S
C109 O114 1.254 . S
C109 O115 1.268 . S
O110 Dy103 2.351 . S
O110 C118 1.249 . S
O111 Dy100 2.326 . S
O111 C118 1.267 . S
O112 C101 1.185 . S
O112 Dy103 2.398 . S
O113 C101 1.355 . S
O113 Dy103 2.491 . S
O114 Dy103 2.403 . S
O114 C109 1.254 . S
O115 Dy100 2.310 . S
O115 Dy103 2.664 . S
O115 C109 1.268 . S
O116 Dy100 2.351 . S
O116 C119 1.249 . S
O117 Dy103 2.326 . S
O117 C119 1.267 . S
C118 O110 1.249 . S
C118 O111 1.267 . S
C119 O116 1.249 . S
C119 O117 1.267 . S
Dy120 O124 2.398 . S
Dy120 O125 2.491 . S
Dy120 O126 2.403 . S
Dy120 O127 2.664 . S
Dy120 O131 2.326 . S
Dy120 O135 2.310 . S
Dy120 O136 2.351 . S
C121 O132 1.185 . S
C121 O133 1.355 . S
C122 O124 1.185 . S
C122 O125 1.355 . S
Dy123 O127 2.310 . S
Dy123 O130 2.351 . S
Dy123 O132 2.398 . S
Dy123 O133 2.491 . S
Dy123 O134 2.403 . S
Dy123 O135 2.664 . S
Dy123 O137 2.326 . S
O124 Dy120 2.398 . S
O124 C122 1.185 . S
O125 Dy120 2.491 . S
O125 C122 1.355 . S
O126 Dy120 2.403 . S
O126 C128 1.254 . S
O127 Dy120 2.664 . S
O127 Dy123 2.310 . S
O127 C128 1.268 . S
C128 O126 1.254 . S
C128 O127 1.268 . S
C129 O134 1.254 . S
C129 O135 1.268 . S
O130 Dy123 2.351 . S
O130 C138 1.249 . S
O131 Dy120 2.326 . S
O131 C138 1.267 . S
O132 C121 1.185 . S
O132 Dy123 2.398 . S
O133 C121 1.355 . S
O133 Dy123 2.491 . S
O134 Dy123 2.403 . S
O134 C129 1.254 . S
O135 Dy120 2.310 . S
O135 Dy123 2.664 . S
O135 C129 1.268 . S
O136 Dy120 2.351 . S
O136 C139 1.249 . S
O137 Dy123 2.326 . S
O137 C139 1.267 . S
C138 O130 1.249 . S
C138 O131 1.267 . S
C139 O136 1.249 . S
C139 O137 1.267 . S
Dy140 O144 2.398 . S
Dy140 O145 2.491 . S
Dy140 O146 2.403 . S
Dy140 O147 2.664 . S
Dy140 O151 2.326 . S
Dy140 O155 2.310 . S
Dy140 O156 2.351 . S
C141 O152 1.185 . S
C141 O153 1.355 . S
C142 O144 1.185 . S
C142 O145 1.355 . S
Dy143 O147 2.310 . S
Dy143 O150 2.351 . S
Dy143 O152 2.398 . S
Dy143 O153 2.491 . S
Dy143 O154 2.403 . S
Dy143 O155 2.664 . S
Dy143 O157 2.326 . S
O144 Dy140 2.398 . S
O144 C142 1.185 . S
O145 Dy140 2.491 . S
O145 C142 1.355 . S
O146 Dy140 2.403 . S
O146 C148 1.254 . S
O147 Dy140 2.664 . S
O147 Dy143 2.310 . S
O147 C148 1.268 . S
C148 O146 1.254 . S
C148 O147 1.268 . S
C149 O154 1.254 . S
C149 O155 1.268 . S
O150 Dy143 2.351 . S
O150 C158 1.249 . S
O151 Dy140 2.326 . S
O151 C158 1.267 . S
O152 C141 1.185 . S
O152 Dy143 2.398 . S
O153 C141 1.355 . S
O153 Dy143 2.491 . S
O154 Dy143 2.403 . S
O154 C149 1.254 . S
O155 Dy140 2.310 . S
O155 Dy143 2.664 . S
O155 C149 1.268 . S
O156 Dy140 2.351 . S
O156 C159 1.249 . S
O157 Dy143 2.326 . S
O157 C159 1.267 . S
C158 O150 1.249 . S
C158 O151 1.267 . S
C159 O156 1.249 . S
C159 O157 1.267 . S
Dy160 O164 2.398 . S
Dy160 O165 2.491 . S
Dy160 O166 2.403 . S
Dy160 O167 2.664 . S
Dy160 O171 2.326 . S
Dy160 O175 2.310 . S
Dy160 O176 2.351 . S
C161 O172 1.185 . S
C161 O173 1.355 . S
C162 O164 1.185 . S
C162 O165 1.355 . S
Dy163 O167 2.310 . S
Dy163 O170 2.351 . S
Dy163 O172 2.398 . S
Dy163 O173 2.491 . S
Dy163 O174 2.403 . S
Dy163 O175 2.664 . S
Dy163 O177 2.326 . S
O164 Dy160 2.398 . S
O164 C162 1.185 . S
O165 Dy160 2.491 . S
O165 C162 1.355 . S
O166 Dy160 2.403 . S
O166 C168 1.254 . S
O167 Dy160 2.664 . S
O167 Dy163 2.310 . S
O167 C168 1.268 . S
C168 O166 1.254 . S
C168 O167 1.268 . S
C169 O174 1.254 . S
C169 O175 1.268 . S
O170 Dy163 2.351 . S
O170 C178 1.249 . S
O171 Dy160 2.326 . S
O171 C178 1.267 . S
O172 C161 1.185 . S
O172 Dy163 2.398 . S
O173 C161 1.355 . S
O173 Dy163 2.491 . S
O174 Dy163 2.403 . S
O174 C169 1.254 . S
O175 Dy160 2.310 . S
O175 Dy163 2.664 . S
O175 C169 1.268 . S
O176 Dy160 2.351 . S
O176 C179 1.249 . S
O177 Dy163 2.326 . S
O177 C179 1.267 . S
C178 O170 1.249 . S
C178 O171 1.267 . S
C179 O176 1.249 . S
C179 O177 1.267 . S
Dy180 O184 2.398 . S
Dy180 O185 2.491 . S
Dy180 O186 2.403 . S
Dy180 O187 2.664 . S
Dy180 O191 2.326 . S
Dy180 O195 2.310 . S
Dy180 O196 2.351 . S
C181 O192 1.185 . S
C181 O193 1.355 . S
C182 O184 1.185 . S
C182 O185 1.355 . S
Dy183 O187 2.310 . S
Dy183 O190 2.351 . S
Dy183 O192 2.398 . S
Dy183 O193 2.491 . S
Dy183 O194 2.403 . S
Dy183 O195 2.664 . S
Dy183 O197 2.326 . S
O184 Dy180 2.398 . S
O184 C182 1.185 . S
O185 Dy180 2.491 . S
O185 C182 1.355 . S
O186 Dy180 2.403 . S
O186 C188 1.254 . S
O187 Dy180 2.664 . S
O187 Dy183 2.310 . S
O187 C188 1.268 . S
C188 O186 1.254 . S
C188 O187 1.268 . S
C189 O194 1.254 . S
C189 O195 1.268 . S
O190 Dy183 2.351 . S
O190 C198 1.249 . S
O191 Dy180 2.326 . S
O191 C198 1.267 . S
O192 C181 1.185 . S
O192 Dy183 2.398 . S
O193 C181 1.355 . S
O193 Dy183 2.491 . S
O194 Dy183 2.403 . S
O194 C189 1.254 . S
O195 Dy180 2.310 . S
O195 Dy183 2.664 . S
O195 C189 1.268 . S
O196 Dy180 2.351 . S
O196 C199 1.249 . S
O197 Dy183 2.326 . S
O197 C199 1.267 . S
C198 O190 1.249 . S
C198 O191 1.267 . S
C199 O196 1.249 . S
C199 O197 1.267 . S
Dy200 O204 2.398 . S
Dy200 O205 2.491 . S
Dy200 O206 2.403 . S
Dy200 O207 2.664 . S
Dy200 O211 2.326 . S
Dy200 O215 2.310 . S
Dy200 O216 2.351 . S
C201 O212 1.185 . S
C201 O213 1.355 . S
C202 O204 1.185 . S
C202 O205 1.355 . S
Dy203 O207 2.310 . S
Dy203 O210 2.351 . S
Dy203 O212 2.398 . S
Dy203 O213 2.491 . S
Dy203 O214 2.403 . S
Dy203 O215 2.664 . S
Dy203 O217 2.326 . S
O204 Dy200 2.398 . S
O204 C202 1.185 . S
O205 Dy200 2.491 . S
O205 C202 1.355 . S
O206 Dy200 2.403 . S
O206 C208 1.254 . S
O207 Dy200 2.664 . S
O207 Dy203 2.310 . S
O207 C208 1.268 . S
C208 O206 1.254 . S
C208 O207 1.268 . S
C209 O214 1.254 . S
C209 O215 1.268 . S
O210 Dy203 2.351 . S
O210 C218 1.249 . S
O211 Dy200 2.326 . S
O211 C218 1.267 . S
O212 C201 1.185 . S
O212 Dy203 2.398 . S
O213 C201 1.355 . S
O213 Dy203 2.491 . S
O214 Dy203 2.403 . S
O214 C209 1.254 . S
O215 Dy200 2.310 . S
O215 Dy203 2.664 . S
O215 C209 1.268 . S
O216 Dy200 2.351 . S
O216 C219 1.249 . S
O217 Dy203 2.326 . S
O217 C219 1.267 . S
C218 O210 1.249 . S
C218 O211 1.267 . S
C219 O216 1.249 . S
C219 O217 1.267 . S
Dy220 O224 2.398 . S
Dy220 O225 2.491 . S
Dy220 O226 2.403 . S
Dy220 O227 2.664 . S
Dy220 O231 2.326 . S
Dy220 O235 2.310 . S
Dy220 O236 2.351 . S
C221 O232 1.185 . S
C221 O233 1.355 . S
C222 O224 1.185 . S
C222 O225 1.355 . S
Dy223 O227 2.310 . S
Dy223 O230 2.351 . S
Dy223 O232 2.398 . S
Dy223 O233 2.491 . S
Dy223 O234 2.403 . S
Dy223 O235 2.664 . S
Dy223 O237 2.326 . S
O224 Dy220 2.398 . S
O224 C222 1.185 . S
O225 Dy220 2.491 . S
O225 C222 1.355 . S
O226 Dy220 2.403 . S
O226 C228 1.254 . S
O227 Dy220 2.664 . S
O227 Dy223 2.310 . S
O227 C228 1.268 . S
C228 O226 1.254 . S
C228 O227 1.268 . S
C229 O234 1.254 . S
C229 O235 1.268 . S
O230 Dy223 2.351 . S
O230 C238 1.249 . S
O231 Dy220 2.326 . S
O231 C238 1.267 . S
O232 C221 1.185 . S
O232 Dy223 2.398 . S
O233 C221 1.355 . S
O233 Dy223 2.491 . S
O234 Dy223 2.403 . S
O234 C229 1.254 . S
O235 Dy220 2.310 . S
O235 Dy223 2.664 . S
O235 C229 1.268 . S
O236 Dy220 2.351 . S
O236 C239 1.249 . S
O237 Dy223 2.326 . S
O237 C239 1.267 . S
C238 O230 1.249 . S
C238 O231 1.267 . S
C239 O236 1.249 . S
C239 O237 1.267 . S
Dy240 O244 2.398 . S
Dy240 O245 2.491 . S
Dy240 O246 2.403 . S
Dy240 O247 2.664 . S
Dy240 O251 2.326 . S
Dy240 O255 2.310 . S
Dy240 O256 2.351 . S
C241 O252 1.185 . S
C241 O253 1.355 . S
C242 O244 1.185 . S
C242 O245 1.355 . S
Dy243 O247 2.310 . S
Dy243 O250 2.351 . S
Dy243 O252 2.398 . S
Dy243 O253 2.491 . S
Dy243 O254 2.403 . S
Dy243 O255 2.664 . S
Dy243 O257 2.326 . S
O244 Dy240 2.398 . S
O244 C242 1.185 . S
O245 Dy240 2.491 . S
O245 C242 1.355 . S
O246 Dy240 2.403 . S
O246 C248 1.254 . S
O247 Dy240 2.664 . S
O247 Dy243 2.310 . S
O247 C248 1.268 . S
C248 O246 1.254 . S
C248 O247 1.268 . S
C249 O254 1.254 . S
C249 O255 1.268 . S
O250 Dy243 2.351 . S
O250 C258 1.249 . S
O251 Dy240 2.326 . S
O251 C258 1.267 . S
O252 C241 1.185 . S
O252 Dy243 2.398 . S
O253 C241 1.355 . S
O253 Dy243 2.491 . S
O254 Dy243 2.403 . S
O254 C249 1.254 . S
O255 Dy240 2.310 . S
O255 Dy243 2.664 . S
O255 C249 1.268 . S
O256 Dy240 2.351 . S
O256 C259 1.249 . S
O257 Dy243 2.326 . S
O257 C259 1.267 . S
C258 O250 1.249 . S
C258 O251 1.267 . S
C259 O256 1.249 . S
C259 O257 1.267 . S
Dy260 O264 2.398 . S
Dy260 O265 2.491 . S
Dy260 O266 2.403 . S
Dy260 O267 2.664 1_655 S
Dy260 O271 2.326 1_655 S
Dy260 O275 2.319 . S
Dy260 O276 2.351 . S
C261 O272 1.185 . S
C261 O273 1.355 . S
C262 O264 1.185 . S
C262 O265 1.355 . S
Dy263 O267 2.310 . S
Dy263 O270 2.351 . S
Dy263 O272 2.398 . S
Dy263 O273 2.491 . S
Dy263 O274 2.403 . S
Dy263 O275 2.655 1_455 S
Dy263 O277 2.300 1_455 S
O264 Dy260 2.398 . S
O264 C262 1.185 . S
O265 Dy260 2.491 . S
O265 C262 1.355 . S
O266 Dy260 2.403 . S
O266 C268 1.254 . S
O267 Dy260 2.664 1_455 S
O267 Dy263 2.310 . S
O267 C268 1.268 1_455 S
C268 O266 1.254 . S
C268 O267 1.268 1_655 S
C269 O274 1.254 . S
C269 O275 1.262 1_455 S
O270 Dy263 2.351 . S
O270 C278 1.249 . S
O271 Dy260 2.326 1_455 S
O271 C278 1.267 . S
O272 C261 1.185 . S
O272 Dy263 2.398 . S
O273 C261 1.355 . S
O273 Dy263 2.491 . S
O274 Dy263 2.403 . S
O274 C269 1.254 . S
O275 Dy260 2.319 . S
O275 Dy263 2.655 1_655 S
O275 C269 1.262 1_655 S
O276 Dy260 2.351 . S
O276 C279 1.249 . S
O277 Dy263 2.300 1_655 S
O277 C279 1.298 . S
C278 O270 1.249 . S
C278 O271 1.267 . S
C279 O276 1.249 . S
C279 O277 1.298 . S
Dy280 O284 2.398 . S
Dy280 O285 2.491 . S
Dy280 O286 2.403 . S
Dy280 O287 2.664 . S
Dy280 O291 2.326 . S
Dy280 O295 2.310 . S
Dy280 O296 2.351 . S
C281 O292 1.185 . S
C281 O293 1.355 . S
C282 O284 1.185 . S
C282 O285 1.355 . S
Dy283 O287 2.310 . S
Dy283 O290 2.351 . S
Dy283 O292 2.398 . S
Dy283 O293 2.491 . S
Dy283 O294 2.403 . S
Dy283 O295 2.664 . S
Dy283 O297 2.326 . S
O284 Dy280 2.398 . S
O284 C282 1.185 . S
O285 Dy280 2.491 . S
O285 C282 1.355 . S
O286 Dy280 2.403 . S
O286 C288 1.254 . S
O287 Dy280 2.664 . S
O287 Dy283 2.310 . S
O287 C288 1.268 . S
C288 O286 1.254 . S
C288 O287 1.268 . S
C289 O294 1.254 . S
C289 O295 1.268 . S
O290 Dy283 2.351 . S
O290 C298 1.249 . S
O291 Dy280 2.326 . S
O291 C298 1.267 . S
O292 C281 1.185 . S
O292 Dy283 2.398 . S
O293 C281 1.355 . S
O293 Dy283 2.491 . S
O294 Dy283 2.403 . S
O294 C289 1.254 . S
O295 Dy280 2.310 . S
O295 Dy283 2.664 . S
O295 C289 1.268 . S
O296 Dy280 2.351 . S
O296 C299 1.249 . S
O297 Dy283 2.326 . S
O297 C299 1.267 . S
C298 O290 1.249 . S
C298 O291 1.267 . S
C299 O296 1.249 . S
C299 O297 1.267 . S
Dy300 O304 2.398 . S
Dy300 O305 2.491 . S
Dy300 O306 2.403 . S
Dy300 O307 2.664 1_655 S
Dy300 O311 2.326 1_655 S
Dy300 O315 2.319 . S
Dy300 O316 2.351 . S
C301 O312 1.185 1_554 S
C301 O313 1.361 . S
C302 O304 1.185 . S
C302 O305 1.355 . S
Dy303 O307 2.310 . S
Dy303 O310 2.351 . S
Dy303 O312 2.398 . S
Dy303 O313 2.479 1_556 S
Dy303 O314 2.403 . S
Dy303 O315 2.654 1_455 S
Dy303 O317 2.296 1_455 S
O304 Dy300 2.398 . S
O304 C302 1.185 . S
O305 Dy300 2.491 . S
O305 C302 1.355 . S
O306 Dy300 2.403 . S
O306 C308 1.254 . S
O307 Dy300 2.664 1_455 S
O307 Dy303 2.310 . S
O307 C308 1.268 1_455 S
C308 O306 1.254 . S
C308 O307 1.268 1_655 S
C309 O314 1.254 . S
C309 O315 1.263 1_455 S
O310 Dy303 2.351 . S
O310 C318 1.249 . S
O311 Dy300 2.326 1_455 S
O311 C318 1.267 . S
O312 C301 1.185 1_556 S
O312 Dy303 2.398 . S
O313 C301 1.361 . S
O313 Dy303 2.479 1_554 S
O314 Dy303 2.403 . S
O314 C309 1.254 . S
O315 Dy300 2.319 . S
O315 Dy303 2.654 1_655 S
O315 C309 1.263 1_655 S
O316 Dy300 2.351 . S
O316 C319 1.249 . S
O317 Dy303 2.296 1_655 S
O317 C319 1.301 . S
C318 O310 1.249 . S
C318 O311 1.267 . S
C319 O316 1.249 . S
C319 O317 1.301 . S
H320 C328 0.950 . S
H321 C333 0.950 . S
H322 C330 0.950 . S
H323 C332 0.950 . S
H324 C334 0.950 . S
H325 C336 0.950 . S
H326 C338 0.950 . S
H327 C339 0.950 . S
C328 H320 0.950 . S
C328 C329 1.386 . S
C328 C330 1.391 . S
C329 C328 1.386 . S
C329 C333 1.393 . S
C330 H322 0.950 . S
C330 C328 1.391 . S
C330 C331 1.400 . S
C331 C330 1.400 . S
C331 C332 1.398 . S
C331 C337 1.491 . S
C332 H323 0.950 . S
C332 C331 1.398 . S
C332 C333 1.391 . S
C333 H321 0.950 . S
C333 C329 1.393 . S
C333 C332 1.391 . S
C334 H324 0.950 . S
C334 C335 1.386 . S
C334 C336 1.391 . S
C335 C334 1.386 . S
C335 C339 1.393 . S
C336 H325 0.950 . S
C336 C334 1.391 . S
C336 C337 1.400 . S
C337 C331 1.491 . S
C337 C336 1.400 . S
C337 C338 1.398 . S
C338 H326 0.950 . S
C338 C337 1.398 . S
C338 C339 1.391 . S
C339 H327 0.950 . S
C339 C335 1.393 . S
C339 C338 1.391 . S
H340 C348 0.950 . S
H341 C353 0.950 . S
H342 C350 0.950 . S
H343 C352 0.950 . S
H344 C354 0.950 1_556 S
H345 C356 0.950 . S
H346 C358 0.950 . S
H347 C359 0.950 . S
C348 H340 0.950 . S
C348 C349 1.386 . S
C348 C350 1.391 . S
C349 C348 1.386 . S
C349 C353 1.393 . S
C350 H342 0.950 . S
C350 C348 1.391 . S
C350 C351 1.400 . S
C351 C350 1.400 . S
C351 C352 1.398 . S
C351 C357 1.491 . S
C352 H343 0.950 . S
C352 C351 1.398 . S
C352 C353 1.391 . S
C353 H341 0.950 . S
C353 C349 1.393 . S
C353 C352 1.391 . S
C354 H344 0.950 1_554 S
C354 C355 1.386 . S
C354 C356 1.391 . S
C355 C354 1.386 . S
C355 C359 1.393 . S
C356 H345 0.950 . S
C356 C354 1.391 . S
C356 C357 1.400 . S
C357 C351 1.491 . S
C357 C356 1.400 . S
C357 C358 1.398 . S
C358 H346 0.950 . S
C358 C357 1.398 . S
C358 C359 1.391 . S
C359 H347 0.950 . S
C359 C355 1.393 . S
C359 C358 1.391 . S
H360 C368 0.950 . S
H361 C373 0.950 . S
H362 C370 0.950 . S
H363 C372 0.950 . S
H364 C374 0.950 . S
H365 C376 0.950 . S
H366 C378 0.950 . S
H367 C379 0.950 . S
C368 H360 0.950 . S
C368 C369 1.386 . S
C368 C370 1.391 . S
C369 C368 1.386 . S
C369 C373 1.393 . S
C370 H362 0.950 . S
C370 C368 1.391 . S
C370 C371 1.400 . S
C371 C370 1.400 . S
C371 C372 1.398 . S
C371 C377 1.491 . S
C372 H363 0.950 . S
C372 C371 1.398 . S
C372 C373 1.391 . S
C373 H361 0.950 . S
C373 C369 1.393 . S
C373 C372 1.391 . S
C374 H364 0.950 . S
C374 C375 1.386 . S
C374 C376 1.391 . S
C375 C374 1.386 . S
C375 C379 1.393 . S
C376 H365 0.950 . S
C376 C374 1.391 . S
C376 C377 1.400 . S
C377 C371 1.491 . S
C377 C376 1.400 . S
C377 C378 1.398 . S
C378 H366 0.950 . S
C378 C377 1.398 . S
C378 C379 1.391 . S
C379 H367 0.950 . S
C379 C375 1.393 . S
C379 C378 1.391 . S
H380 C388 0.950 . S
H381 C393 0.950 . S
H382 C390 0.950 . S
H383 C392 0.950 . S
H384 C394 0.950 . S
H385 C396 0.950 . S
H386 C398 0.950 . S
H387 C399 0.950 . S
C388 H380 0.950 . S
C388 C389 1.386 . S
C388 C390 1.391 . S
C389 C388 1.386 . S
C389 C393 1.393 . S
C390 H382 0.950 . S
C390 C388 1.391 . S
C390 C391 1.400 . S
C391 C390 1.400 . S
C391 C392 1.398 . S
C391 C397 1.491 . S
C392 H383 0.950 . S
C392 C391 1.398 . S
C392 C393 1.391 . S
C393 H381 0.950 . S
C393 C389 1.393 . S
C393 C392 1.391 . S
C394 H384 0.950 . S
C394 C395 1.386 . S
C394 C396 1.391 . S
C395 C394 1.386 . S
C395 C399 1.393 . S
C396 H385 0.950 . S
C396 C394 1.391 . S
C396 C397 1.400 . S
C397 C391 1.491 . S
C397 C396 1.400 . S
C397 C398 1.398 . S
C398 H386 0.950 . S
C398 C397 1.398 . S
C398 C399 1.391 . S
C399 H387 0.950 . S
C399 C395 1.393 . S
C399 C398 1.391 . S
H400 C408 0.950 . S
H401 C413 0.950 . S
H402 C410 0.950 . S
H403 C412 0.950 . S
H404 C414 0.950 . S
H405 C416 0.950 . S
H406 C418 0.950 . S
H407 C419 0.950 1_556 S
C408 H400 0.950 . S
C408 C409 1.386 . S
C408 C410 1.391 . S
C409 C408 1.386 . S
C409 C413 1.393 . S
C410 H402 0.950 . S
C410 C408 1.391 . S
C410 C411 1.400 . S
C411 C410 1.400 . S
C411 C412 1.398 . S
C411 C417 1.491 . S
C412 H403 0.950 . S
C412 C411 1.398 . S
C412 C413 1.391 . S
C413 H401 0.950 . S
C413 C409 1.393 . S
C413 C412 1.391 . S
C414 H404 0.950 . S
C414 C415 1.386 . S
C414 C416 1.391 . S
C415 C414 1.386 . S
C415 C419 1.393 . S
C416 H405 0.950 . S
C416 C414 1.391 . S
C416 C417 1.400 . S
C417 C411 1.491 . S
C417 C416 1.400 . S
C417 C418 1.398 . S
C418 H406 0.950 . S
C418 C417 1.398 . S
C418 C419 1.391 . S
C419 H407 0.950 1_554 S
C419 C415 1.393 . S
C419 C418 1.391 . S
H420 C428 0.950 . S
H421 C433 0.950 . S
H422 C430 0.950 . S
H423 C432 0.950 . S
H424 C434 0.950 . S
H425 C436 0.950 . S
H426 C438 0.950 . S
H427 C439 0.950 . S
C428 H420 0.950 . S
C428 C429 1.386 . S
C428 C430 1.391 . S
C429 C428 1.386 . S
C429 C433 1.393 . S
C430 H422 0.950 . S
C430 C428 1.391 . S
C430 C431 1.400 . S
C431 C430 1.400 . S
C431 C432 1.398 . S
C431 C437 1.491 . S
C432 H423 0.950 . S
C432 C431 1.398 . S
C432 C433 1.391 . S
C433 H421 0.950 . S
C433 C429 1.393 . S
C433 C432 1.391 . S
C434 H424 0.950 . S
C434 C435 1.386 . S
C434 C436 1.391 . S
C435 C434 1.386 . S
C435 C439 1.393 . S
C436 H425 0.950 . S
C436 C434 1.391 . S
C436 C437 1.400 . S
C437 C431 1.491 . S
C437 C436 1.400 . S
C437 C438 1.398 . S
C438 H426 0.950 . S
C438 C437 1.398 . S
C438 C439 1.391 . S
C439 H427 0.950 . S
C439 C435 1.393 . S
C439 C438 1.391 . S
H440 C448 0.950 . S
H441 C453 0.950 . S
H442 C450 0.950 . S
H443 C452 0.950 . S
H444 C454 0.950 . S
H445 C456 0.950 . S
H446 C458 0.950 . S
H447 C459 0.950 . S
C448 H440 0.950 . S
C448 C449 1.386 . S
C448 C450 1.391 . S
C449 C448 1.386 . S
C449 C453 1.393 . S
C450 H442 0.950 . S
C450 C448 1.391 . S
C450 C451 1.400 . S
C451 C450 1.400 . S
C451 C452 1.398 . S
C451 C457 1.491 . S
C452 H443 0.950 . S
C452 C451 1.398 . S
C452 C453 1.391 . S
C453 H441 0.950 . S
C453 C449 1.393 . S
C453 C452 1.391 . S
C454 H444 0.950 . S
C454 C455 1.386 . S
C454 C456 1.391 . S
C455 C454 1.386 . S
C455 C459 1.393 . S
C456 H445 0.950 . S
C456 C454 1.391 . S
C456 C457 1.400 . S
C457 C451 1.491 . S
C457 C456 1.400 . S
C457 C458 1.398 . S
C458 H446 0.950 . S
C458 C457 1.398 . S
C458 C459 1.391 . S
C459 H447 0.950 . S
C459 C455 1.393 . S
C459 C458 1.391 . S
H460 C468 0.950 . S
H461 C473 0.950 . S
H462 C470 0.950 . S
H463 C472 0.950 . S
H464 C474 0.950 . S
H465 C476 0.950 . S
H466 C478 0.950 . S
H467 C479 0.950 . S
C468 H460 0.950 . S
C468 C469 1.386 . S
C468 C470 1.391 . S
C469 C468 1.386 . S
C469 C473 1.393 . S
C470 H462 0.950 . S
C470 C468 1.391 . S
C470 C471 1.400 . S
C471 C470 1.400 . S
C471 C472 1.398 . S
C471 C477 1.491 . S
C472 H463 0.950 . S
C472 C471 1.398 . S
C472 C473 1.391 . S
C473 H461 0.950 . S
C473 C469 1.393 . S
C473 C472 1.391 . S
C474 H464 0.950 . S
C474 C475 1.386 . S
C474 C476 1.391 . S
C475 C474 1.386 . S
C475 C479 1.393 . S
C476 H465 0.950 . S
C476 C474 1.391 . S
C476 C477 1.400 . S
C477 C471 1.491 . S
C477 C476 1.400 . S
C477 C478 1.398 . S
C478 H466 0.950 . S
C478 C477 1.398 . S
C478 C479 1.391 . S
C479 H467 0.950 . S
C479 C475 1.393 . S
C479 C478 1.391 . S
H480 C488 0.950 . S
H481 C493 0.950 . S
H482 C490 0.950 . S
H483 C492 0.950 . S
H484 C494 0.950 . S
H485 C496 0.950 . S
H486 C498 0.950 . S
H487 C499 0.950 . S
C488 H480 0.950 . S
C488 C489 1.386 . S
C488 C490 1.391 . S
C489 C488 1.386 . S
C489 C493 1.393 . S
C490 H482 0.950 . S
C490 C488 1.391 . S
C490 C491 1.400 . S
C491 C490 1.400 . S
C491 C492 1.398 . S
C491 C497 1.491 . S
C492 H483 0.950 . S
C492 C491 1.398 . S
C492 C493 1.391 . S
C493 H481 0.950 . S
C493 C489 1.393 . S
C493 C492 1.391 . S
C494 H484 0.950 . S
C494 C495 1.386 . S
C494 C496 1.391 . S
C495 C494 1.386 . S
C495 C499 1.393 . S
C496 H485 0.950 . S
C496 C494 1.391 . S
C496 C497 1.400 . S
C497 C491 1.491 . S
C497 C496 1.400 . S
C497 C498 1.398 . S
C498 H486 0.950 . S
C498 C497 1.398 . S
C498 C499 1.391 . S
C499 H487 0.950 . S
C499 C495 1.393 . S
C499 C498 1.391 . S
H500 C508 0.950 . S
H501 C513 0.950 . S
H502 C510 0.950 . S
H503 C512 0.950 . S
H504 C514 0.950 . S
H505 C516 0.950 . S
H506 C518 0.950 . S
H507 C519 0.950 . S
C508 H500 0.950 . S
C508 C509 1.386 . S
C508 C510 1.391 . S
C509 C508 1.386 . S
C509 C513 1.393 . S
C510 H502 0.950 . S
C510 C508 1.391 . S
C510 C511 1.400 . S
C511 C510 1.400 . S
C511 C512 1.398 . S
C511 C517 1.491 . S
C512 H503 0.950 . S
C512 C511 1.398 . S
C512 C513 1.391 . S
C513 H501 0.950 . S
C513 C509 1.393 . S
C513 C512 1.391 . S
C514 H504 0.950 . S
C514 C515 1.386 . S
C514 C516 1.391 . S
C515 C514 1.386 . S
C515 C519 1.393 . S
C516 H505 0.950 . S
C516 C514 1.391 . S
C516 C517 1.400 . S
C517 C511 1.491 . S
C517 C516 1.400 . S
C517 C518 1.398 . S
C518 H506 0.950 . S
C518 C517 1.398 . S
C518 C519 1.391 . S
C519 H507 0.950 . S
C519 C515 1.393 . S
C519 C518 1.391 . S
H520 C528 0.950 1_554 S
H521 C533 0.950 . S
H522 C530 0.950 . S
H523 C532 0.950 . S
H524 C534 0.950 . S
H525 C536 0.950 . S
H526 C538 0.950 . S
H527 C539 0.950 . S
C528 H520 0.950 1_556 S
C528 C529 1.386 1_556 S
C528 C530 1.391 . S
C529 C528 1.386 1_554 S
C529 C533 1.393 1_554 S
C530 H522 0.950 . S
C530 C528 1.391 . S
C530 C531 1.400 . S
C531 C530 1.400 . S
C531 C532 1.398 . S
C531 C537 1.491 . S
C532 H523 0.950 . S
C532 C531 1.398 . S
C532 C533 1.391 . S
C533 H521 0.950 . S
C533 C529 1.393 1_556 S
C533 C532 1.391 . S
C534 H524 0.950 . S
C534 C535 1.386 . S
C534 C536 1.391 . S
C535 C534 1.386 . S
C535 C539 1.393 . S
C536 H525 0.950 . S
C536 C534 1.391 . S
C536 C537 1.400 . S
C537 C531 1.491 . S
C537 C536 1.400 . S
C537 C538 1.398 . S
C538 H526 0.950 . S
C538 C537 1.398 . S
C538 C539 1.391 . S
C539 H527 0.950 . S
C539 C535 1.393 . S
C539 C538 1.391 . S
H540 C548 0.950 . S
H541 C553 0.950 . S
H542 C550 0.950 . S
H543 C552 0.950 . S
H544 C554 0.950 . S
H545 C556 0.950 . S
H546 C558 0.950 . S
H547 C559 0.948 . S
C548 H540 0.950 . S
C548 C549 1.386 . S
C548 C550 1.391 . S
C549 C548 1.386 . S
C549 C553 1.393 . S
C550 H542 0.950 . S
C550 C548 1.391 . S
C550 C551 1.400 . S
C551 C550 1.400 . S
C551 C552 1.398 . S
C551 C557 1.491 . S
C552 H543 0.950 . S
C552 C551 1.398 . S
C552 C553 1.391 . S
C553 H541 0.950 . S
C553 C549 1.393 . S
C553 C552 1.391 . S
C554 H544 0.950 . S
C554 C555 1.386 . S
C554 C556 1.391 . S
C555 C554 1.386 . S
C555 C559 1.393 . S
C556 H545 0.950 . S
C556 C554 1.391 . S
C556 C557 1.400 . S
C557 C551 1.491 . S
C557 C556 1.400 . S
C557 C558 1.398 . S
C558 H546 0.950 . S
C558 C557 1.398 . S
C558 C559 1.391 . S
C559 H547 0.948 . S
C559 C555 1.393 . S
C559 C558 1.391 . S
H560 C568 0.950 . S
H561 C573 0.950 . S
H562 C570 0.950 . S
H563 C572 0.950 . S
H564 C574 0.950 . S
H565 C576 0.950 . S
H566 C578 0.950 . S
H567 C579 0.950 . S
C568 H560 0.950 . S
C568 C569 1.386 . S
C568 C570 1.391 . S
C569 C568 1.386 . S
C569 C573 1.393 . S
C570 H562 0.950 . S
C570 C568 1.391 . S
C570 C571 1.400 . S
C571 C570 1.400 . S
C571 C572 1.398 . S
C571 C577 1.491 . S
C572 H563 0.950 . S
C572 C571 1.398 . S
C572 C573 1.391 . S
C573 H561 0.950 . S
C573 C569 1.393 . S
C573 C572 1.391 . S
C574 H564 0.950 . S
C574 C575 1.386 . S
C574 C576 1.391 . S
C575 C574 1.386 . S
C575 C579 1.393 . S
C576 H565 0.950 . S
C576 C574 1.391 . S
C576 C577 1.400 . S
C577 C571 1.491 . S
C577 C576 1.400 . S
C577 C578 1.398 . S
C578 H566 0.950 . S
C578 C577 1.398 . S
C578 C579 1.391 . S
C579 H567 0.950 . S
C579 C575 1.393 . S
C579 C578 1.391 . S
H580 C588 0.950 . S
H581 C593 0.950 . S
H582 C590 0.950 . S
H583 C592 0.950 . S
H584 C594 0.950 . S
H585 C596 0.950 . S
H586 C598 0.950 . S
H587 C599 0.950 . S
C588 H580 0.950 . S
C588 C589 1.386 . S
C588 C590 1.391 . S
C589 C588 1.386 . S
C589 C593 1.393 . S
C590 H582 0.950 . S
C590 C588 1.391 . S
C590 C591 1.400 . S
C591 C590 1.400 . S
C591 C592 1.398 . S
C591 C597 1.491 . S
C592 H583 0.950 . S
C592 C591 1.398 . S
C592 C593 1.391 . S
C593 H581 0.950 . S
C593 C589 1.393 . S
C593 C592 1.391 . S
C594 H584 0.950 . S
C594 C595 1.386 . S
C594 C596 1.391 . S
C595 C594 1.386 . S
C595 C599 1.393 . S
C596 H585 0.950 . S
C596 C594 1.391 . S
C596 C597 1.400 . S
C597 C591 1.491 . S
C597 C596 1.400 . S
C597 C598 1.398 . S
C598 H586 0.950 . S
C598 C597 1.398 . S
C598 C599 1.391 . S
C599 H587 0.950 . S
C599 C595 1.393 . S
C599 C598 1.391 . S
H600 C608 0.950 . S
H601 C613 0.950 . S
H602 C610 0.950 . S
H603 C612 0.950 . S
H604 C614 0.950 . S
H605 C616 0.950 . S
H606 C618 0.950 . S
H607 C619 0.950 . S
C608 H600 0.950 . S
C608 C609 1.386 . S
C608 C610 1.391 . S
C609 C608 1.386 . S
C609 C613 1.393 . S
C610 H602 0.950 . S
C610 C608 1.391 . S
C610 C611 1.400 . S
C611 C610 1.400 . S
C611 C612 1.398 . S
C611 C617 1.491 . S
C612 H603 0.950 . S
C612 C611 1.398 . S
C612 C613 1.391 . S
C613 H601 0.950 . S
C613 C609 1.393 . S
C613 C612 1.391 . S
C614 H604 0.950 . S
C614 C615 1.386 . S
C614 C616 1.391 . S
C615 C614 1.386 . S
C615 C619 1.393 . S
C616 H605 0.950 . S
C616 C614 1.391 . S
C616 C617 1.400 . S
C617 C611 1.491 . S
C617 C616 1.400 . S
C617 C618 1.398 . S
C618 H606 0.950 . S
C618 C617 1.398 . S
C618 C619 1.391 . S
C619 H607 0.950 . S
C619 C615 1.393 . S
C619 C618 1.391 . S
H620 C628 0.950 . S
H621 C633 0.950 . S
H622 C630 0.950 . S
H623 C632 0.950 . S
H624 C634 0.950 1_554 S
H625 C636 0.950 . S
H626 C638 0.950 . S
H627 C639 0.950 . S
C628 H620 0.950 . S
C628 C629 1.386 . S
C628 C630 1.391 . S
C629 C628 1.386 . S
C629 C633 1.393 . S
C630 H622 0.950 . S
C630 C628 1.391 . S
C630 C631 1.400 . S
C631 C630 1.400 . S
C631 C632 1.398 . S
C631 C637 1.491 . S
C632 H623 0.950 . S
C632 C631 1.398 . S
C632 C633 1.391 . S
C633 H621 0.950 . S
C633 C629 1.393 . S
C633 C632 1.391 . S
C634 H624 0.950 1_556 S
C634 C635 1.386 . S
C634 C636 1.391 . S
C635 C634 1.386 . S
C635 C639 1.393 . S
C636 H625 0.950 . S
C636 C634 1.391 . S
C636 C637 1.400 . S
C637 C631 1.491 . S
C637 C636 1.400 . S
C637 C638 1.398 . S
C638 H626 0.950 . S
C638 C637 1.398 . S
C638 C639 1.391 . S
C639 H627 0.950 . S
C639 C635 1.393 . S
C639 C638 1.391 . S
H640 C648 0.950 . S
H641 C653 0.950 . S
H642 C650 0.950 . S
H643 C652 0.950 . S
H644 C654 0.950 . S
H645 C656 0.950 . S
H646 C658 0.950 . S
H647 C659 0.950 . S
C648 H640 0.950 . S
C648 C649 1.386 1_655 S
C648 C650 1.391 . S
C649 C648 1.386 1_455 S
C649 C653 1.393 . S
C650 H642 0.950 . S
C650 C648 1.391 . S
C650 C651 1.400 1_655 S
C651 C650 1.400 1_455 S
C651 C652 1.398 . S
C651 C657 1.491 . S
C652 H643 0.950 . S
C652 C651 1.398 . S
C652 C653 1.391 . S
C653 H641 0.950 . S
C653 C649 1.393 . S
C653 C652 1.391 . S
C654 H644 0.950 . S
C654 C655 1.386 . S
C654 C656 1.391 . S
C655 C654 1.386 . S
C655 C659 1.393 1_455 S
C656 H645 0.950 . S
C656 C654 1.391 . S
C656 C657 1.400 . S
C657 C651 1.491 . S
C657 C656 1.400 . S
C657 C658 1.398 1_455 S
C658 H646 0.950 . S
C658 C657 1.398 1_655 S
C658 C659 1.391 . S
C659 H647 0.950 . S
C659 C655 1.393 1_655 S
C659 C658 1.391 . S
H660 C668 0.950 . S
H661 C673 0.950 . S
H662 C670 0.950 . S
H663 C672 0.950 . S
H664 C674 0.950 . S
H665 C676 0.950 . S
H666 C678 0.950 . S
H667 C679 0.950 . S
C668 H660 0.950 . S
C668 C669 1.386 . S
C668 C670 1.391 . S
C669 C668 1.386 . S
C669 C673 1.393 . S
C670 H662 0.950 . S
C670 C668 1.391 . S
C670 C671 1.400 . S
C671 C670 1.400 . S
C671 C672 1.398 . S
C671 C677 1.491 1_655 S
C672 H663 0.950 . S
C672 C671 1.398 . S
C672 C673 1.391 . S
C673 H661 0.950 . S
C673 C669 1.393 . S
C673 C672 1.391 . S
C674 H664 0.950 . S
C674 C675 1.386 . S
C674 C676 1.391 . S
C675 C674 1.386 . S
C675 C679 1.393 . S
C676 H665 0.950 . S
C676 C674 1.391 . S
C676 C677 1.400 . S
C677 C671 1.491 1_455 S
C677 C676 1.400 . S
C677 C678 1.398 . S
C678 H666 0.950 . S
C678 C677 1.398 . S
C678 C679 1.391 . S
C679 H667 0.950 . S
C679 C675 1.393 . S
C679 C678 1.391 . S
H680 C688 0.950 . S
H681 C693 0.950 . S
H682 C690 0.950 . S
H683 C692 0.950 . S
H684 C694 0.950 . S
H685 C696 0.950 . S
H686 C698 0.950 . S
H687 C699 0.950 . S
C688 H680 0.950 . S
C688 C689 1.386 . S
C688 C690 1.391 . S
C689 C688 1.386 . S
C689 C693 1.393 . S
C690 H682 0.950 . S
C690 C688 1.391 . S
C690 C691 1.400 . S
C691 C690 1.400 . S
C691 C692 1.398 . S
C691 C697 1.491 . S
C692 H683 0.950 . S
C692 C691 1.398 . S
C692 C693 1.391 . S
C693 H681 0.950 . S
C693 C689 1.393 . S
C693 C692 1.391 . S
C694 H684 0.950 . S
C694 C695 1.386 . S
C694 C696 1.391 . S
C695 C694 1.386 . S
C695 C699 1.393 . S
C696 H685 0.950 . S
C696 C694 1.391 . S
C696 C697 1.400 . S
C697 C691 1.491 . S
C697 C696 1.400 . S
C697 C698 1.398 . S
C698 H686 0.950 . S
C698 C697 1.398 . S
C698 C699 1.391 . S
C699 H687 0.950 . S
C699 C695 1.393 . S
C699 C698 1.391 . S
H700 C708 0.950 . S
H701 C713 0.950 . S
H702 C710 0.950 . S
H703 C712 0.950 . S
H704 C714 0.950 . S
H705 C716 0.950 . S
H706 C718 0.950 . S
H707 C719 0.950 . S
C708 H700 0.950 . S
C708 C709 1.386 . S
C708 C710 1.391 . S
C709 C708 1.386 . S
C709 C713 1.393 . S
C710 H702 0.950 . S
C710 C708 1.391 . S
C710 C711 1.400 . S
C711 C710 1.400 . S
C711 C712 1.398 . S
C711 C717 1.491 . S
C712 H703 0.950 . S
C712 C711 1.398 . S
C712 C713 1.391 . S
C713 H701 0.950 . S
C713 C709 1.393 . S
C713 C712 1.391 . S
C714 H704 0.950 . S
C714 C715 1.386 . S
C714 C716 1.391 . S
C715 C714 1.386 . S
C715 C719 1.393 . S
C716 H705 0.950 . S
C716 C714 1.391 . S
C716 C717 1.400 . S
C717 C711 1.491 . S
C717 C716 1.400 . S
C717 C718 1.398 . S
C718 H706 0.950 . S
C718 C717 1.398 . S
C718 C719 1.391 . S
C719 H707 0.950 . S
C719 C715 1.393 . S
C719 C718 1.391 . S
H720 C728 0.950 . S
H721 C733 0.950 . S
H722 C730 0.950 . S
H723 C732 0.950 . S
H724 C734 0.950 . S
H725 C736 0.950 . S
H726 C738 0.950 . S
H727 C739 0.950 . S
C728 H720 0.950 . S
C728 C729 1.386 . S
C728 C730 1.391 . S
C729 C728 1.386 . S
C729 C733 1.393 1_455 S
C730 H722 0.950 . S
C730 C728 1.391 . S
C730 C731 1.400 . S
C731 C730 1.400 . S
C731 C732 1.398 1_455 S
C731 C737 1.491 . S
C732 H723 0.950 . S
C732 C731 1.398 1_655 S
C732 C733 1.391 . S
C733 H721 0.950 . S
C733 C729 1.393 1_655 S
C733 C732 1.391 . S
C734 H724 0.950 . S
C734 C735 1.386 1_655 S
C734 C736 1.391 . S
C735 C734 1.386 1_455 S
C735 C739 1.393 . S
C736 H725 0.950 . S
C736 C734 1.391 . S
C736 C737 1.400 1_655 S
C737 C731 1.491 . S
C737 C736 1.400 1_455 S
C737 C738 1.398 . S
C738 H726 0.950 . S
C738 C737 1.398 . S
C738 C739 1.391 . S
C739 H727 0.950 . S
C739 C735 1.393 . S
C739 C738 1.391 . S
H740 C748 0.950 . S
H741 C753 0.950 . S
H742 C750 0.950 . S
H743 C752 0.950 . S
H744 C754 0.950 . S
H745 C756 0.950 . S
H746 C758 0.950 . S
H747 C759 0.950 . S
C748 H740 0.950 . S
C748 C749 1.386 . S
C748 C750 1.391 . S
C749 C748 1.386 . S
C749 C753 1.393 . S
C750 H742 0.950 . S
C750 C748 1.391 . S
C750 C751 1.400 . S
C751 C750 1.400 . S
C751 C752 1.398 . S
C751 C757 1.491 . S
C752 H743 0.950 . S
C752 C751 1.398 . S
C752 C753 1.391 . S
C753 H741 0.950 . S
C753 C749 1.393 . S
C753 C752 1.391 . S
C754 H744 0.950 . S
C754 C755 1.386 . S
C754 C756 1.391 . S
C755 C754 1.386 . S
C755 C759 1.393 . S
C756 H745 0.950 . S
C756 C754 1.391 . S
C756 C757 1.400 . S
C757 C751 1.491 . S
C757 C756 1.400 . S
C757 C758 1.398 . S
C758 H746 0.950 . S
C758 C757 1.398 . S
C758 C759 1.391 . S
C759 H747 0.950 . S
C759 C755 1.393 . S
C759 C758 1.391 . S
H760 C768 0.950 . S
H761 C773 0.950 . S
H762 C770 0.950 . S
H763 C772 0.950 . S
H764 C774 0.950 . S
H765 C776 0.950 . S
H766 C778 0.950 . S
H767 C779 0.950 . S
C768 H760 0.950 . S
C768 C769 1.386 . S
C768 C770 1.391 . S
C769 C768 1.386 . S
C769 C773 1.393 . S
C770 H762 0.950 . S
C770 C768 1.391 . S
C770 C771 1.400 . S
C771 C770 1.400 . S
C771 C772 1.398 . S
C771 C777 1.491 . S
C772 H763 0.950 . S
C772 C771 1.398 . S
C772 C773 1.391 . S
C773 H761 0.950 . S
C773 C769 1.393 . S
C773 C772 1.391 . S
C774 H764 0.950 . S
C774 C775 1.386 . S
C774 C776 1.391 . S
C775 C774 1.386 . S
C775 C779 1.393 . S
C776 H765 0.950 . S
C776 C774 1.391 . S
C776 C777 1.400 . S
C777 C771 1.491 . S
C777 C776 1.400 . S
C777 C778 1.398 . S
C778 H766 0.950 . S
C778 C777 1.398 . S
C778 C779 1.391 . S
C779 H767 0.950 . S
C779 C775 1.393 . S
C779 C778 1.391 . S
H780 C788 0.950 . S
H781 C793 0.950 . S
H782 C790 0.950 . S
H783 C792 0.950 . S
H784 C794 0.950 . S
H785 C796 0.950 . S
H786 C798 0.950 . S
H787 C799 0.950 . S
C788 H780 0.950 . S
C788 C789 1.386 . S
C788 C790 1.391 . S
C789 C788 1.386 . S
C789 C793 1.393 . S
C790 H782 0.950 . S
C790 C788 1.391 . S
C790 C791 1.400 . S
C791 C790 1.400 . S
C791 C792 1.398 . S
C791 C797 1.491 1_455 S
C792 H783 0.950 . S
C792 C791 1.398 . S
C792 C793 1.391 . S
C793 H781 0.950 . S
C793 C789 1.393 . S
C793 C792 1.391 . S
C794 H784 0.950 . S
C794 C795 1.386 . S
C794 C796 1.391 . S
C795 C794 1.386 . S
C795 C799 1.393 . S
C796 H785 0.950 . S
C796 C794 1.391 . S
C796 C797 1.400 . S
C797 C791 1.491 1_655 S
C797 C796 1.400 . S
C797 C798 1.398 . S
C798 H786 0.950 . S
C798 C797 1.398 . S
C798 C799 1.391 . S
C799 H787 0.950 . S
C799 C795 1.393 . S
C799 C798 1.391 . S
H800 C808 0.950 . S
H801 C813 0.950 . S
H802 C810 0.950 . S
H803 C812 0.950 1_556 S
H804 C814 0.950 . S
H805 C816 0.950 . S
H806 C818 0.950 . S
H807 C819 0.950 . S
C808 H800 0.950 . S
C808 C809 1.386 1_655 S
C808 C810 1.391 . S
C809 C808 1.386 1_455 S
C809 C813 1.393 . S
C810 H802 0.950 . S
C810 C808 1.391 . S
C810 C811 1.400 1_655 S
C811 C810 1.400 1_455 S
C811 C812 1.398 . S
C811 C817 1.491 1_544 S
C812 H803 0.950 1_554 S
C812 C811 1.398 . S
C812 C813 1.391 . S
C813 H801 0.950 . S
C813 C809 1.393 . S
C813 C812 1.391 . S
C814 H804 0.950 . S
C814 C815 1.386 . S
C814 C816 1.391 . S
C815 C814 1.386 . S
C815 C819 1.393 1_455 S
C816 H805 0.950 . S
C816 C814 1.391 . S
C816 C817 1.400 . S
C817 C811 1.491 1_566 S
C817 C816 1.400 . S
C817 C818 1.398 1_455 S
C818 H806 0.950 . S
C818 C817 1.398 1_655 S
C818 C819 1.391 . S
C819 H807 0.950 . S
C819 C815 1.393 1_655 S
C819 C818 1.391 . S
H820 C828 0.950 . S
H821 C833 0.950 . S
H822 C830 0.950 . S
H823 C832 0.950 . S
H824 C834 0.950 . S
H825 C836 0.950 . S
H826 C838 0.950 . S
H827 C839 0.950 . S
C828 H820 0.950 . S
C828 C829 1.386 . S
C828 C830 1.391 . S
C829 C828 1.386 . S
C829 C833 1.393 . S
C830 H822 0.950 . S
C830 C828 1.391 . S
C830 C831 1.400 . S
C831 C830 1.400 . S
C831 C832 1.398 . S
C831 C837 1.491 . S
C832 H823 0.950 . S
C832 C831 1.398 . S
C832 C833 1.391 . S
C833 H821 0.950 . S
C833 C829 1.393 . S
C833 C832 1.391 . S
C834 H824 0.950 . S
C834 C835 1.386 . S
C834 C836 1.391 . S
C835 C834 1.386 . S
C835 C839 1.393 . S
C836 H825 0.950 . S
C836 C834 1.391 . S
C836 C837 1.400 . S
C837 C831 1.491 . S
C837 C836 1.400 . S
C837 C838 1.398 . S
C838 H826 0.950 . S
C838 C837 1.398 . S
C838 C839 1.391 . S
C839 H827 0.950 . S
C839 C835 1.393 . S
C839 C838 1.391 . S
H840 C848 0.950 . S
H841 C853 0.950 . S
H842 C850 0.950 . S
H843 C852 0.950 1_565 S
H844 C854 0.950 . S
H845 C856 0.950 . S
H846 C858 0.950 1_545 S
H847 C859 0.950 . S
C848 H840 0.950 . S
C848 C849 1.386 . S
C848 C850 1.391 . S
C849 C848 1.386 . S
C849 C853 1.393 . S
C850 H842 0.950 . S
C850 C848 1.391 . S
C850 C851 1.400 . S
C851 C850 1.400 . S
C851 C852 1.398 . S
C851 C857 1.491 1_545 S
C852 H843 0.950 1_545 S
C852 C851 1.398 . S
C852 C853 1.391 . S
C853 H841 0.950 . S
C853 C849 1.393 . S
C853 C852 1.391 . S
C854 H844 0.950 . S
C854 C855 1.386 . S
C854 C856 1.391 . S
C855 C854 1.386 . S
C855 C859 1.393 . S
C856 H845 0.950 . S
C856 C854 1.391 . S
C856 C857 1.400 . S
C857 C851 1.491 1_565 S
C857 C856 1.400 . S
C857 C858 1.398 . S
C858 H846 0.950 1_565 S
C858 C857 1.398 . S
C858 C859 1.391 . S
C859 H847 0.950 . S
C859 C855 1.393 . S
C859 C858 1.391 . S
H860 C868 0.950 . S
H861 C873 0.950 . S
H862 C870 0.950 . S
H863 C872 0.950 . S
H864 C874 0.950 . S
H865 C876 0.950 . S
H866 C878 0.950 . S
H867 C879 0.950 . S
C868 H860 0.950 . S
C868 C869 1.386 . S
C868 C870 1.391 . S
C869 C868 1.386 . S
C869 C873 1.393 . S
C870 H862 0.950 . S
C870 C868 1.391 . S
C870 C871 1.400 . S
C871 C870 1.400 . S
C871 C872 1.398 . S
C871 C877 1.491 . S
C872 H863 0.950 . S
C872 C871 1.398 . S
C872 C873 1.391 . S
C873 H861 0.950 . S
C873 C869 1.393 . S
C873 C872 1.391 . S
C874 H864 0.950 . S
C874 C875 1.386 . S
C874 C876 1.391 . S
C875 C874 1.386 . S
C875 C879 1.393 . S
C876 H865 0.950 . S
C876 C874 1.391 . S
C876 C877 1.400 . S
C877 C871 1.491 . S
C877 C876 1.400 . S
C877 C878 1.398 . S
C878 H866 0.950 . S
C878 C877 1.398 . S
C878 C879 1.391 . S
C879 H867 0.950 . S
C879 C875 1.393 . S
C879 C878 1.391 . S
H880 C888 0.950 . S
H881 C893 0.950 . S
H882 C890 0.950 . S
H883 C892 0.950 . S
H884 C894 0.950 . S
H885 C896 0.950 . S
H886 C898 0.950 . S
H887 C899 0.950 . S
C888 H880 0.950 . S
C888 C889 1.386 . S
C888 C890 1.391 . S
C889 C888 1.386 . S
C889 C893 1.393 . S
C890 H882 0.950 . S
C890 C888 1.391 . S
C890 C891 1.400 . S
C891 C890 1.400 . S
C891 C892 1.398 . S
C891 C897 1.491 . S
C892 H883 0.950 . S
C892 C891 1.398 . S
C892 C893 1.391 . S
C893 H881 0.950 . S
C893 C889 1.393 . S
C893 C892 1.391 . S
C894 H884 0.950 . S
C894 C895 1.386 . S
C894 C896 1.391 . S
C895 C894 1.386 . S
C895 C899 1.393 . S
C896 H885 0.950 . S
C896 C894 1.391 . S
C896 C897 1.400 . S
C897 C891 1.491 . S
C897 C896 1.400 . S
C897 C898 1.398 . S
C898 H886 0.950 . S
C898 C897 1.398 . S
C898 C899 1.391 . S
C899 H887 0.950 . S
C899 C895 1.393 . S
C899 C898 1.391 . S
H900 C908 0.950 . S
H901 C913 0.950 . S
H902 C910 0.950 . S
H903 C912 0.950 . S
H904 C914 0.950 . S
H905 C916 0.950 . S
H906 C918 0.950 . S
H907 C919 0.950 . S
C908 H900 0.950 . S
C908 C909 1.386 . S
C908 C910 1.391 . S
C909 C908 1.386 . S
C909 C913 1.393 . S
C910 H902 0.950 . S
C910 C908 1.391 . S
C910 C911 1.400 . S
C911 C910 1.400 . S
C911 C912 1.398 . S
C911 C917 1.491 . S
C912 H903 0.950 . S
C912 C911 1.398 . S
C912 C913 1.391 . S
C913 H901 0.950 . S
C913 C909 1.393 . S
C913 C912 1.391 . S
C914 H904 0.950 . S
C914 C915 1.386 . S
C914 C916 1.391 . S
C915 C914 1.386 . S
C915 C919 1.393 . S
C916 H905 0.950 . S
C916 C914 1.391 . S
C916 C917 1.400 . S
C917 C911 1.491 . S
C917 C916 1.400 . S
C917 C918 1.398 . S
C918 H906 0.950 . S
C918 C917 1.398 . S
C918 C919 1.391 . S
C919 H907 0.950 . S
C919 C915 1.393 . S
C919 C918 1.391 . S
H920 C928 0.950 . S
H921 C933 0.950 . S
H922 C930 0.950 . S
H923 C932 0.950 . S
H924 C934 0.950 . S
H925 C936 0.950 . S
H926 C938 0.950 . S
H927 C939 0.950 . S
C928 H920 0.950 . S
C928 C929 1.386 . S
C928 C930 1.391 . S
C929 C928 1.386 . S
C929 C933 1.393 . S
C930 H922 0.950 . S
C930 C928 1.391 . S
C930 C931 1.400 . S
C931 C930 1.400 . S
C931 C932 1.398 . S
C931 C937 1.491 . S
C932 H923 0.950 . S
C932 C931 1.398 . S
C932 C933 1.391 . S
C933 H921 0.950 . S
C933 C929 1.393 . S
C933 C932 1.391 . S
C934 H924 0.950 . S
C934 C935 1.386 . S
C934 C936 1.391 . S
C935 C934 1.386 . S
C935 C939 1.393 . S
C936 H925 0.950 . S
C936 C934 1.391 . S
C936 C937 1.400 . S
C937 C931 1.491 . S
C937 C936 1.400 . S
C937 C938 1.398 . S
C938 H926 0.950 . S
C938 C937 1.398 . S
C938 C939 1.391 . S
C939 H927 0.950 . S
C939 C935 1.393 . S
C939 C938 1.391 . S
H940 C948 0.950 . S
H941 C953 0.950 . S
H942 C950 0.950 . S
H943 C952 0.950 1_554 S
H944 C954 0.950 . S
H945 C956 0.950 . S
H946 C958 0.950 . S
H947 C959 0.950 . S
C948 H940 0.950 . S
C948 C949 1.386 1_655 S
C948 C950 1.391 . S
C949 C948 1.386 1_455 S
C949 C953 1.393 . S
C950 H942 0.950 . S
C950 C948 1.391 . S
C950 C951 1.400 1_655 S
C951 C950 1.400 1_455 S
C951 C952 1.398 . S
C951 C957 1.491 1_556 S
C952 H943 0.950 1_556 S
C952 C951 1.398 . S
C952 C953 1.391 . S
C953 H941 0.950 . S
C953 C949 1.393 . S
C953 C952 1.391 . S
C954 H944 0.950 . S
C954 C955 1.386 . S
C954 C956 1.391 . S
C955 C954 1.386 . S
C955 C959 1.393 1_455 S
C956 H945 0.950 . S
C956 C954 1.391 . S
C956 C957 1.400 . S
C957 C951 1.491 1_554 S
C957 C956 1.400 . S
C957 C958 1.398 1_455 S
C958 H946 0.950 . S
C958 C957 1.398 1_655 S
C958 C959 1.391 . S
C959 H947 0.950 . S
C959 C955 1.393 1_655 S
C959 C958 1.391 . S
H960 C968 0.950 . S
H961 C973 0.950 . S
H962 C970 0.950 . S
H963 C972 0.950 . S
H964 C974 0.950 . S
H965 C976 0.950 . S
H966 C978 0.950 . S
H967 C979 0.950 . S
C968 H960 0.950 . S
C968 C969 1.386 . S
C968 C970 1.391 . S
C969 C968 1.386 . S
C969 C973 1.393 . S
C970 H962 0.950 . S
C970 C968 1.391 . S
C970 C971 1.400 . S
C971 C970 1.400 . S
C971 C972 1.398 . S
C971 C977 1.491 . S
C972 H963 0.950 . S
C972 C971 1.398 . S
C972 C973 1.391 . S
C973 H961 0.950 . S
C973 C969 1.393 . S
C973 C972 1.391 . S
C974 H964 0.950 . S
C974 C975 1.386 . S
C974 C976 1.391 . S
C975 C974 1.386 . S
C975 C979 1.393 . S
C976 H965 0.950 . S
C976 C974 1.391 . S
C976 C977 1.400 . S
C977 C971 1.491 . S
C977 C976 1.400 . S
C977 C978 1.398 . S
C978 H966 0.950 . S
C978 C977 1.398 . S
C978 C979 1.391 . S
C979 H967 0.950 . S
C979 C975 1.393 . S
C979 C978 1.391 . S
H980 C988 0.950 . S
H981 C993 0.950 . S
H982 C990 0.950 . S
H983 C992 0.950 . S
H984 C994 0.950 . S
H985 C996 0.950 . S
H986 C998 0.950 . S
H987 C999 0.950 . S
C988 H980 0.950 . S
C988 C989 1.386 . S
C988 C990 1.391 . S
C989 C988 1.386 . S
C989 C993 1.393 . S
C990 H982 0.950 . S
C990 C988 1.391 . S
C990 C991 1.400 . S
C991 C990 1.400 . S
C991 C992 1.398 . S
C991 C997 1.491 . S
C992 H983 0.950 . S
C992 C991 1.398 . S
C992 C993 1.391 . S
C993 H981 0.950 . S
C993 C989 1.393 . S
C993 C992 1.391 . S
C994 H984 0.950 . S
C994 C995 1.386 . S
C994 C996 1.391 . S
C995 C994 1.386 . S
C995 C999 1.393 . S
C996 H985 0.950 . S
C996 C994 1.391 . S
C996 C997 1.400 . S
C997 C991 1.491 . S
C997 C996 1.400 . S
C997 C998 1.398 . S
C998 H986 0.950 . S
C998 C997 1.398 . S
C998 C999 1.391 . S
C999 H987 0.950 . S
C999 C995 1.393 . S
C999 C998 1.391 . S
H1000 C1008 0.950 . S
H1001 C1013 0.950 . S
H1002 C1010 0.950 . S
H1003 C1012 0.950 . S
H1004 C1014 0.950 . S
H1005 C1016 0.950 . S
H1006 C1018 0.950 . S
H1007 C1019 0.950 . S
C1008 H1000 0.950 . S
C1008 C1009 1.386 . S
C1008 C1010 1.391 1_554 S
C1009 C1008 1.386 . S
C1009 C1013 1.393 1_554 S
C1010 H1002 0.950 . S
C1010 C1008 1.391 1_556 S
C1010 C1011 1.400 . S
C1011 C1010 1.400 . S
C1011 C1012 1.398 . S
C1011 C1017 1.491 . S
C1012 H1003 0.950 . S
C1012 C1011 1.398 . S
C1012 C1013 1.391 . S
C1013 H1001 0.950 . S
C1013 C1009 1.393 1_556 S
C1013 C1012 1.391 . S
C1014 H1004 0.950 . S
C1014 C1015 1.386 . S
C1014 C1016 1.391 . S
C1015 C1014 1.386 . S
C1015 C1019 1.393 . S
C1016 H1005 0.950 . S
C1016 C1014 1.391 . S
C1016 C1017 1.400 . S
C1017 C1011 1.491 . S
C1017 C1016 1.400 . S
C1017 C1018 1.398 . S
C1018 H1006 0.950 . S
C1018 C1017 1.398 . S
C1018 C1019 1.391 . S
C1019 H1007 0.950 . S
C1019 C1015 1.393 . S
C1019 C1018 1.391 . S
H1020 C1028 0.950 . S
H1021 C1033 0.950 . S
H1022 C1030 0.950 . S
H1023 C1032 0.950 . S
H1024 C1034 0.952 . S
H1025 C1036 0.950 . S
H1026 C1038 0.950 . S
H1027 C1039 0.950 . S
C1028 H1020 0.950 . S
C1028 C1029 1.386 . S
C1028 C1030 1.391 . S
C1029 C1028 1.386 . S
C1029 C1033 1.393 . S
C1030 H1022 0.950 . S
C1030 C1028 1.391 . S
C1030 C1031 1.400 . S
C1031 C1030 1.400 . S
C1031 C1032 1.398 . S
C1031 C1037 1.491 . S
C1032 H1023 0.950 . S
C1032 C1031 1.398 . S
C1032 C1033 1.391 . S
C1033 H1021 0.950 . S
C1033 C1029 1.393 . S
C1033 C1032 1.391 . S
C1034 H1024 0.952 . S
C1034 C1035 1.386 . S
C1034 C1036 1.391 . S
C1035 C1034 1.386 . S
C1035 C1039 1.393 . S
C1036 H1025 0.950 . S
C1036 C1034 1.391 . S
C1036 C1037 1.400 . S
C1037 C1031 1.491 . S
C1037 C1036 1.400 . S
C1037 C1038 1.398 . S
C1038 H1026 0.950 . S
C1038 C1037 1.398 . S
C1038 C1039 1.391 . S
C1039 H1027 0.950 . S
C1039 C1035 1.393 . S
C1039 C1038 1.391 . S
H1040 C1048 0.950 . S
H1041 C1053 0.950 . S
H1042 C1050 0.950 . S
H1043 C1052 0.950 . S
H1044 C1054 0.950 . S
H1045 C1056 0.950 . S
H1046 C1058 0.950 . S
H1047 C1059 0.950 . S
C1048 H1040 0.950 . S
C1048 C1049 1.386 . S
C1048 C1050 1.391 . S
C1049 C1048 1.386 . S
C1049 C1053 1.393 . S
C1050 H1042 0.950 . S
C1050 C1048 1.391 . S
C1050 C1051 1.400 . S
C1051 C1050 1.400 . S
C1051 C1052 1.398 . S
C1051 C1057 1.491 . S
C1052 H1043 0.950 . S
C1052 C1051 1.398 . S
C1052 C1053 1.391 . S
C1053 H1041 0.950 . S
C1053 C1049 1.393 . S
C1053 C1052 1.391 . S
C1054 H1044 0.950 . S
C1054 C1055 1.386 . S
C1054 C1056 1.391 . S
C1055 C1054 1.386 . S
C1055 C1059 1.393 . S
C1056 H1045 0.950 . S
C1056 C1054 1.391 . S
C1056 C1057 1.400 . S
C1057 C1051 1.491 . S
C1057 C1056 1.400 . S
C1057 C1058 1.398 . S
C1058 H1046 0.950 . S
C1058 C1057 1.398 . S
C1058 C1059 1.391 . S
C1059 H1047 0.950 . S
C1059 C1055 1.393 . S
C1059 C1058 1.391 . S
H1060 C1068 0.950 . S
H1061 C1073 0.950 . S
H1062 C1070 0.950 . S
H1063 C1072 0.950 . S
H1064 C1074 0.950 . S
H1065 C1076 0.950 . S
H1066 C1078 0.950 . S
H1067 C1079 0.950 . S
C1068 H1060 0.950 . S
C1068 C1069 1.386 . S
C1068 C1070 1.391 . S
C1069 C1068 1.386 . S
C1069 C1073 1.393 . S
C1070 H1062 0.950 . S
C1070 C1068 1.391 . S
C1070 C1071 1.400 . S
C1071 C1070 1.400 . S
C1071 C1072 1.398 . S
C1071 C1077 1.491 . S
C1072 H1063 0.950 . S
C1072 C1071 1.398 . S
C1072 C1073 1.391 . S
C1073 H1061 0.950 . S
C1073 C1069 1.393 . S
C1073 C1072 1.391 . S
C1074 H1064 0.950 . S
C1074 C1075 1.386 . S
C1074 C1076 1.391 . S
C1075 C1074 1.386 . S
C1075 C1079 1.393 . S
C1076 H1065 0.950 . S
C1076 C1074 1.391 . S
C1076 C1077 1.400 . S
C1077 C1071 1.491 . S
C1077 C1076 1.400 . S
C1077 C1078 1.398 . S
C1078 H1066 0.950 . S
C1078 C1077 1.398 . S
C1078 C1079 1.391 . S
C1079 H1067 0.950 . S
C1079 C1075 1.393 . S
C1079 C1078 1.391 . S
H1080 C1088 0.967 . S
H1081 C1093 0.950 . S
H1082 C1090 0.950 . S
H1083 C1092 0.950 . S
H1084 C1094 0.950 . S
H1085 C1096 0.950 . S
H1086 C1098 0.950 . S
H1087 C1099 0.950 . S
C1088 H1080 0.967 . S
C1088 C1089 1.386 . S
C1088 C1090 1.391 . S
C1089 C1088 1.386 . S
C1089 C1093 1.393 . S
C1090 H1082 0.950 . S
C1090 C1088 1.391 . S
C1090 C1091 1.400 . S
C1091 C1090 1.400 . S
C1091 C1092 1.398 . S
C1091 C1097 1.491 . S
C1092 H1083 0.950 . S
C1092 C1091 1.398 . S
C1092 C1093 1.391 . S
C1093 H1081 0.950 . S
C1093 C1089 1.393 . S
C1093 C1092 1.391 . S
C1094 H1084 0.950 . S
C1094 C1095 1.386 . S
C1094 C1096 1.391 . S
C1095 C1094 1.386 . S
C1095 C1099 1.393 . S
C1096 H1085 0.950 . S
C1096 C1094 1.391 . S
C1096 C1097 1.400 . S
C1097 C1091 1.491 . S
C1097 C1096 1.400 . S
C1097 C1098 1.398 . S
C1098 H1086 0.950 . S
C1098 C1097 1.398 . S
C1098 C1099 1.391 . S
C1099 H1087 0.950 . S
C1099 C1095 1.393 . S
C1099 C1098 1.391 . S
H1100 C1108 0.950 . S
H1101 C1113 0.950 . S
H1102 C1110 0.950 . S
H1103 C1112 0.950 . S
H1104 C1114 0.935 1_554 S
H1105 C1116 0.950 . S
H1106 C1118 0.950 . S
H1107 C1119 0.950 . S
C1108 H1100 0.950 . S
C1108 C1109 1.386 . S
C1108 C1110 1.391 . S
C1109 C1108 1.386 . S
C1109 C1113 1.393 . S
C1110 H1102 0.950 . S
C1110 C1108 1.391 . S
C1110 C1111 1.400 . S
C1111 C1110 1.400 . S
C1111 C1112 1.398 . S
C1111 C1117 1.491 . S
C1112 H1103 0.950 . S
C1112 C1111 1.398 . S
C1112 C1113 1.391 . S
C1113 H1101 0.950 . S
C1113 C1109 1.393 . S
C1113 C1112 1.391 . S
C1114 H1104 0.935 1_556 S
C1114 C1115 1.386 . S
C1114 C1116 1.391 . S
C1115 C1114 1.386 . S
C1115 C1119 1.393 . S
C1116 H1105 0.950 . S
C1116 C1114 1.391 . S
C1116 C1117 1.400 . S
C1117 C1111 1.491 . S
C1117 C1116 1.400 . S
C1117 C1118 1.398 . S
C1118 H1106 0.950 . S
C1118 C1117 1.398 . S
C1118 C1119 1.391 . S
C1119 H1107 0.950 . S
C1119 C1115 1.393 . S
C1119 C1118 1.391 . S
H1120 C1128 0.950 . S
H1121 C1133 0.950 . S
H1122 C1130 0.950 . S
H1123 C1132 0.950 . S
H1124 C1134 0.950 . S
H1125 C1136 0.950 . S
H1126 C1138 0.950 . S
H1127 C1139 0.958 . S
C1128 H1120 0.950 . S
C1128 C1129 1.386 . S
C1128 C1130 1.391 . S
C1129 C1128 1.386 . S
C1129 C1133 1.393 . S
C1130 H1122 0.950 . S
C1130 C1128 1.391 . S
C1130 C1131 1.400 . S
C1131 C1130 1.400 . S
C1131 C1132 1.398 . S
C1131 C1137 1.491 . S
C1132 H1123 0.950 . S
C1132 C1131 1.398 . S
C1132 C1133 1.391 . S
C1133 H1121 0.950 . S
C1133 C1129 1.393 . S
C1133 C1132 1.391 . S
C1134 H1124 0.950 . S
C1134 C1135 1.386 . S
C1134 C1136 1.391 . S
C1135 C1134 1.386 . S
C1135 C1139 1.393 . S
C1136 H1125 0.950 . S
C1136 C1134 1.391 . S
C1136 C1137 1.400 . S
C1137 C1131 1.491 . S
C1137 C1136 1.400 . S
C1137 C1138 1.398 . S
C1138 H1126 0.950 . S
C1138 C1137 1.398 . S
C1138 C1139 1.391 . S
C1139 H1127 0.958 . S
C1139 C1135 1.393 . S
C1139 C1138 1.391 . S
H1140 C1148 0.950 . S
H1141 C1153 0.950 . S
H1142 C1150 0.950 . S
H1143 C1152 0.950 . S
H1144 C1154 0.950 . S
H1145 C1156 0.950 . S
H1146 C1158 0.950 . S
H1147 C1159 0.950 . S
C1148 H1140 0.950 . S
C1148 C1149 1.386 . S
C1148 C1150 1.391 . S
C1149 C1148 1.386 . S
C1149 C1153 1.393 . S
C1150 H1142 0.950 . S
C1150 C1148 1.391 . S
C1150 C1151 1.400 . S
C1151 C1150 1.400 . S
C1151 C1152 1.398 . S
C1151 C1157 1.491 . S
C1152 H1143 0.950 . S
C1152 C1151 1.398 . S
C1152 C1153 1.391 . S
C1153 H1141 0.950 . S
C1153 C1149 1.393 . S
C1153 C1152 1.391 . S
C1154 H1144 0.950 . S
C1154 C1155 1.386 . S
C1154 C1156 1.391 . S
C1155 C1154 1.386 . S
C1155 C1159 1.393 . S
C1156 H1145 0.950 . S
C1156 C1154 1.391 . S
C1156 C1157 1.400 . S
C1157 C1151 1.491 . S
C1157 C1156 1.400 . S
C1157 C1158 1.398 . S
C1158 H1146 0.950 . S
C1158 C1157 1.398 . S
C1158 C1159 1.391 . S
C1159 H1147 0.950 . S
C1159 C1155 1.393 . S
C1159 C1158 1.391 . S
H1160 C1168 0.950 . S
H1161 C1173 0.950 . S
H1162 C1170 0.950 . S
H1163 C1172 0.950 . S
H1164 C1174 0.950 . S
H1165 C1176 0.950 . S
H1166 C1178 0.950 . S
H1167 C1179 0.950 . S
C1168 H1160 0.950 . S
C1168 C1169 1.386 . S
C1168 C1170 1.391 . S
C1169 C1168 1.386 . S
C1169 C1173 1.393 . S
C1170 H1162 0.950 . S
C1170 C1168 1.391 . S
C1170 C1171 1.400 . S
C1171 C1170 1.400 . S
C1171 C1172 1.398 . S
C1171 C1177 1.491 . S
C1172 H1163 0.950 . S
C1172 C1171 1.398 . S
C1172 C1173 1.391 . S
C1173 H1161 0.950 . S
C1173 C1169 1.393 . S
C1173 C1172 1.391 . S
C1174 H1164 0.950 . S
C1174 C1175 1.386 . S
C1174 C1176 1.391 . S
C1175 C1174 1.386 . S
C1175 C1179 1.393 . S
C1176 H1165 0.950 . S
C1176 C1174 1.391 . S
C1176 C1177 1.400 . S
C1177 C1171 1.491 . S
C1177 C1176 1.400 . S
C1177 C1178 1.398 . S
C1178 H1166 0.950 . S
C1178 C1177 1.398 . S
C1178 C1179 1.391 . S
C1179 H1167 0.950 . S
C1179 C1175 1.393 . S
C1179 C1178 1.391 . S
H1180 C1188 0.950 . S
H1181 C1193 0.950 . S
H1182 C1190 0.950 . S
H1183 C1192 0.950 . S
H1184 C1194 0.950 . S
H1185 C1196 0.950 . S
H1186 C1198 0.950 . S
H1187 C1199 0.950 . S
C1188 H1180 0.950 . S
C1188 C1189 1.386 . S
C1188 C1190 1.391 . S
C1189 C1188 1.386 . S
C1189 C1193 1.393 . S
C1190 H1182 0.950 . S
C1190 C1188 1.391 . S
C1190 C1191 1.400 . S
C1191 C1190 1.400 . S
C1191 C1192 1.398 . S
C1191 C1197 1.491 . S
C1192 H1183 0.950 . S
C1192 C1191 1.398 . S
C1192 C1193 1.391 . S
C1193 H1181 0.950 . S
C1193 C1189 1.393 . S
C1193 C1192 1.391 . S
C1194 H1184 0.950 . S
C1194 C1195 1.386 . S
C1194 C1196 1.391 . S
C1195 C1194 1.386 . S
C1195 C1199 1.393 . S
C1196 H1185 0.950 . S
C1196 C1194 1.391 . S
C1196 C1197 1.400 . S
C1197 C1191 1.491 . S
C1197 C1196 1.400 . S
C1197 C1198 1.398 . S
C1198 H1186 0.950 . S
C1198 C1197 1.398 . S
C1198 C1199 1.391 . S
C1199 H1187 0.950 . S
C1199 C1195 1.393 . S
C1199 C1198 1.391 . S
H1200 C1208 0.950 . S
H1201 C1213 0.950 . S
H1202 C1210 0.950 . S
H1203 C1212 0.950 . S
H1204 C1214 0.950 1_556 S
H1205 C1216 0.950 . S
H1206 C1218 0.950 . S
H1207 C1219 0.950 . S
C1208 H1200 0.950 . S
C1208 C1209 1.386 . S
C1208 C1210 1.391 . S
C1209 C1208 1.386 . S
C1209 C1213 1.393 . S
C1210 H1202 0.950 . S
C1210 C1208 1.391 . S
C1210 C1211 1.400 . S
C1211 C1210 1.400 . S
C1211 C1212 1.398 . S
C1211 C1217 1.491 . S
C1212 H1203 0.950 . S
C1212 C1211 1.398 . S
C1212 C1213 1.391 . S
C1213 H1201 0.950 . S
C1213 C1209 1.393 . S
C1213 C1212 1.391 . S
C1214 H1204 0.950 1_554 S
C1214 C1215 1.386 . S
C1214 C1216 1.391 . S
C1215 C1214 1.386 . S
C1215 C1219 1.393 . S
C1216 H1205 0.950 . S
C1216 C1214 1.391 . S
C1216 C1217 1.400 . S
C1217 C1211 1.491 . S
C1217 C1216 1.400 . S
C1217 C1218 1.398 . S
C1218 H1206 0.950 . S
C1218 C1217 1.398 . S
C1218 C1219 1.391 . S
C1219 H1207 0.950 . S
C1219 C1215 1.393 . S
C1219 C1218 1.391 . S
H1220 C1228 0.950 . S
H1221 C1233 0.950 . S
H1222 C1230 0.950 . S
H1223 C1232 0.950 . S
H1224 C1234 0.950 . S
H1225 C1236 0.950 . S
H1226 C1238 0.950 . S
H1227 C1239 0.950 . S
C1228 H1220 0.950 . S
C1228 C1229 1.386 . S
C1228 C1230 1.391 . S
C1229 C1228 1.386 . S
C1229 C1233 1.393 . S
C1230 H1222 0.950 . S
C1230 C1228 1.391 . S
C1230 C1231 1.400 . S
C1231 C1230 1.400 . S
C1231 C1232 1.398 . S
C1231 C1237 1.491 . S
C1232 H1223 0.950 . S
C1232 C1231 1.398 . S
C1232 C1233 1.391 . S
C1233 H1221 0.950 . S
C1233 C1229 1.393 . S
C1233 C1232 1.391 . S
C1234 H1224 0.950 . S
C1234 C1235 1.386 . S
C1234 C1236 1.391 . S
C1235 C1234 1.386 . S
C1235 C1239 1.393 . S
C1236 H1225 0.950 . S
C1236 C1234 1.391 . S
C1236 C1237 1.400 . S
C1237 C1231 1.491 . S
C1237 C1236 1.400 . S
C1237 C1238 1.398 . S
C1238 H1226 0.950 . S
C1238 C1237 1.398 . S
C1238 C1239 1.391 . S
C1239 H1227 0.950 . S
C1239 C1235 1.393 . S
C1239 C1238 1.391 . S
H1240 C1248 0.950 . S
H1241 C1253 0.950 . S
H1242 C1250 0.950 . S
H1243 C1252 0.950 . S
H1244 C1254 0.950 . S
H1245 C1256 0.950 . S
H1246 C1258 0.950 . S
H1247 C1259 0.950 . S
C1248 H1240 0.950 . S
C1248 C1249 1.386 . S
C1248 C1250 1.391 . S
C1249 C1248 1.386 . S
C1249 C1253 1.393 . S
C1250 H1242 0.950 . S
C1250 C1248 1.391 . S
C1250 C1251 1.400 . S
C1251 C1250 1.400 . S
C1251 C1252 1.398 . S
C1251 C1257 1.491 . S
C1252 H1243 0.950 . S
C1252 C1251 1.398 . S
C1252 C1253 1.391 . S
C1253 H1241 0.950 . S
C1253 C1249 1.393 . S
C1253 C1252 1.391 . S
C1254 H1244 0.950 . S
C1254 C1255 1.386 . S
C1254 C1256 1.391 . S
C1255 C1254 1.386 . S
C1255 C1259 1.393 . S
C1256 H1245 0.950 . S
C1256 C1254 1.391 . S
C1256 C1257 1.400 . S
C1257 C1251 1.491 . S
C1257 C1256 1.400 . S
C1257 C1258 1.398 . S
C1258 H1246 0.950 . S
C1258 C1257 1.398 . S
C1258 C1259 1.391 . S
C1259 H1247 0.950 . S
C1259 C1255 1.393 . S
C1259 C1258 1.391 . S
H1260 C1268 0.950 . S
H1261 C1273 0.950 . S
H1262 C1270 0.950 . S
H1263 C1272 0.950 . S
H1264 C1274 0.950 . S
H1265 C1276 0.950 . S
H1266 C1278 0.950 . S
H1267 C1279 0.950 . S
C1268 H1260 0.950 . S
C1268 C1269 1.386 . S
C1268 C1270 1.391 . S
C1269 C1268 1.386 . S
C1269 C1273 1.393 . S
C1270 H1262 0.950 . S
C1270 C1268 1.391 . S
C1270 C1271 1.400 . S
C1271 C1270 1.400 . S
C1271 C1272 1.398 . S
C1271 C1277 1.491 . S
C1272 H1263 0.950 . S
C1272 C1271 1.398 . S
C1272 C1273 1.391 . S
C1273 H1261 0.950 . S
C1273 C1269 1.393 . S
C1273 C1272 1.391 . S
C1274 H1264 0.950 . S
C1274 C1275 1.386 . S
C1274 C1276 1.391 . S
C1275 C1274 1.386 . S
C1275 C1279 1.393 . S
C1276 H1265 0.950 . S
C1276 C1274 1.391 . S
C1276 C1277 1.400 . S
C1277 C1271 1.491 . S
C1277 C1276 1.400 . S
C1277 C1278 1.398 . S
C1278 H1266 0.950 . S
C1278 C1277 1.398 . S
C1278 C1279 1.391 . S
C1279 H1267 0.950 . S
C1279 C1275 1.393 . S
C1279 C1278 1.391 . S
C329 C19 1.654 1_556 S
C335 C159 1.642 . S
C349 C39 1.991 . S
C355 C99 1.976 1_554 S
C369 C102 1.456 . S
C375 C59 1.461 . S
C389 C79 1.973 . S
C395 C139 1.975 . S
C409 C221 0.432 . S
C415 C81 0.403 . S
C429 C178 0.794 . S
C435 C1 0.774 . S
C449 C201 0.380 . S
C455 C121 0.383 . S
C469 C41 0.661 . S
C475 C181 0.677 . S
C489 C199 1.647 . S
C495 C259 1.640 . S
C509 C219 1.987 . S
C515 C299 1.974 . S
C529 C279 1.465 . S
C535 C162 1.475 . S
C549 C239 1.975 . S
C555 C319 1.989 1_554 S
C569 C281 0.425 . S
C575 C61 0.398 . S
C589 C241 0.784 . S
C595 C118 0.809 . S
C609 C21 0.451 . S
C615 C301 0.427 . S
C629 C141 0.655 . S
C635 C261 0.675 1_556 S
C649 C269 0.728 . S
C655 C9 0.557 1_455 S
C669 C229 0.657 . S
C675 C29 0.627 . S
C689 C249 0.525 . S
C695 C49 0.760 . S
C709 C209 0.675 . S
C715 C69 0.675 . S
C729 C89 0.635 1_455 S
C735 C309 0.671 . S
C749 C189 0.652 . S
C755 C108 0.713 . S
C769 C129 0.679 . S
C775 C289 0.647 . S
C789 C149 0.664 . S
C795 C168 0.698 . S
C809 C8 1.303 . S
C815 C88 1.300 . S
C829 C28 1.381 . S
C835 C109 1.384 . S
C849 C128 1.404 . S
C855 C48 1.413 . S
C869 C68 1.368 . S
C875 C148 1.338 . S
C889 C208 1.357 . S
C895 C169 1.362 . S
C909 C228 1.375 . S
C915 C188 1.357 . S
C929 C248 1.300 . S
C935 C288 1.304 . S
C949 C308 1.431 1_455 S
C955 C268 1.416 1_455 S
C969 C2 1.241 . S
C975 C142 1.237 . S
C989 C22 1.007 . S
C995 C82 1.004 . S
C1009 C119 1.465 . S
C1015 C42 1.441 . S
C1029 C122 0.972 . S
C1035 C62 0.960 1_554 S
C1049 C238 2.522 . S
C1055 C98 2.518 . S
C1069 C161 1.990 . S
C1075 C18 2.027 . S
C1089 C218 2.513 1_554 S
C1095 C138 2.508 . S
C1109 C58 2.220 . S
C1115 C198 2.210 1_556 S
C1129 C242 1.247 . S
C1135 C182 1.242 1_556 S
C1149 C282 0.971 . S
C1155 C202 0.977 1_554 S
C1169 C262 1.419 . S
C1175 C179 1.463 . S
C1189 C302 0.983 . S
C1195 C222 0.993 . S
C1209 C298 2.523 . S
C1215 C78 2.517 1_554 S
C1229 C101 1.995 1_556 S
C1235 C258 2.024 . S
C1249 C38 2.509 . S
C1255 C318 2.509 . S
C1269 C278 2.221 . S
C1275 C158 2.209 . S
