# Generated by pormake.
# Topology vcc, (6)-cn, num edge types: 1
# Building blocks:
#     Node 0, Type 0, BuildingBlock: KUMJIN_clean_sbu_0, # of connection points: 6
#     Node 1, Type 0, BuildingBlock: KUMJIN_clean_sbu_0, # of connection points: 6
#     Node 2, Type 0, BuildingBlock: KUMJIN_clean_sbu_0, # of connection points: 6
#     Node 3, Type 0, BuildingBlock: KUMJIN_clean_sbu_0, # of connection points: 6
#     Node 4, Type 0, BuildingBlock: KUMJIN_clean_sbu_0, # of connection points: 6
#     Node 5, Type 0, BuildingBlock: KUMJIN_clean_sbu_0, # of connection points: 6
#     Node 6, Type 0, BuildingBlock: KUMJIN_clean_sbu_0, # of connection points: 6
#     Node 7, Type 0, BuildingBlock: KUMJIN_clean_sbu_0, # of connection points: 6
#     Node 8, Type 0, BuildingBlock: KUMJIN_clean_sbu_0, # of connection points: 6
#     Node 9, Type 0, BuildingBlock: KUMJIN_clean_sbu_0, # of connection points: 6
#     Node 10, Type 0, BuildingBlock: KUMJIN_clean_sbu_0, # of connection points: 6
#     Node 11, Type 0, BuildingBlock: KUMJIN_clean_sbu_0, # of connection points: 6
#     Node 12, Type 0, BuildingBlock: KUMJIN_clean_sbu_0, # of connection points: 6
#     Node 13, Type 0, BuildingBlock: KUMJIN_clean_sbu_0, # of connection points: 6
#     Node 14, Type 0, BuildingBlock: KUMJIN_clean_sbu_0, # of connection points: 6
#     Node 15, Type 0, BuildingBlock: KUMJIN_clean_sbu_0, # of connection points: 6
#     Node 16, Type 0, BuildingBlock: KUMJIN_clean_sbu_0, # of connection points: 6
#     Node 17, Type 0, BuildingBlock: KUMJIN_clean_sbu_0, # of connection points: 6
#     Node 18, Type 0, BuildingBlock: KUMJIN_clean_sbu_0, # of connection points: 6
#     Node 19, Type 0, BuildingBlock: KUMJIN_clean_sbu_0, # of connection points: 6
#     Node 20, Type 0, BuildingBlock: KUMJIN_clean_sbu_0, # of connection points: 6
#     Node 21, Type 0, BuildingBlock: KUMJIN_clean_sbu_0, # of connection points: 6
#     Node 22, Type 0, BuildingBlock: KUMJIN_clean_sbu_0, # of connection points: 6
#     Node 23, Type 0, BuildingBlock: KUMJIN_clean_sbu_0, # of connection points: 6
#     Node 24, Type 0, BuildingBlock: KUMJIN_clean_sbu_0, # of connection points: 6
#     Node 25, Type 0, BuildingBlock: KUMJIN_clean_sbu_0, # of connection points: 6
#     Node 26, Type 0, BuildingBlock: KUMJIN_clean_sbu_0, # of connection points: 6
#     Node 27, Type 0, BuildingBlock: KUMJIN_clean_sbu_0, # of connection points: 6
#     Node 28, Type 0, BuildingBlock: KUMJIN_clean_sbu_0, # of connection points: 6
#     Node 29, Type 0, BuildingBlock: KUMJIN_clean_sbu_0, # of connection points: 6
#     Node 30, Type 0, BuildingBlock: KUMJIN_clean_sbu_0, # of connection points: 6
#     Node 31, Type 0, BuildingBlock: KUMJIN_clean_sbu_0, # of connection points: 6
#     Edge 32, Type (0, 0), BuildingBlock: KIFKEQ_clean_linker_1, # of connection points: 2
#     Edge 33, Type (0, 0), BuildingBlock: KIFKEQ_clean_linker_1, # of connection points: 2
#     Edge 34, Type (0, 0), BuildingBlock: KIFKEQ_clean_linker_1, # of connection points: 2
#     Edge 35, Type (0, 0), BuildingBlock: KIFKEQ_clean_linker_1, # of connection points: 2
#     Edge 36, Type (0, 0), BuildingBlock: KIFKEQ_clean_linker_1, # of connection points: 2
#     Edge 37, Type (0, 0), BuildingBlock: KIFKEQ_clean_linker_1, # of connection points: 2
#     Edge 38, Type (0, 0), BuildingBlock: KIFKEQ_clean_linker_1, # of connection points: 2
#     Edge 39, Type (0, 0), BuildingBlock: KIFKEQ_clean_linker_1, # of connection points: 2
#     Edge 40, Type (0, 0), BuildingBlock: KIFKEQ_clean_linker_1, # of connection points: 2
#     Edge 41, Type (0, 0), BuildingBlock: KIFKEQ_clean_linker_1, # of connection points: 2
#     Edge 42, Type (0, 0), BuildingBlock: KIFKEQ_clean_linker_1, # of connection points: 2
#     Edge 43, Type (0, 0), BuildingBlock: KIFKEQ_clean_linker_1, # of connection points: 2
#     Edge 44, Type (0, 0), BuildingBlock: KIFKEQ_clean_linker_1, # of connection points: 2
#     Edge 45, Type (0, 0), BuildingBlock: KIFKEQ_clean_linker_1, # of connection points: 2
#     Edge 46, Type (0, 0), BuildingBlock: KIFKEQ_clean_linker_1, # of connection points: 2
#     Edge 47, Type (0, 0), BuildingBlock: KIFKEQ_clean_linker_1, # of connection points: 2
#     Edge 48, Type (0, 0), BuildingBlock: KIFKEQ_clean_linker_1, # of connection points: 2
#     Edge 49, Type (0, 0), BuildingBlock: KIFKEQ_clean_linker_1, # of connection points: 2
#     Edge 50, Type (0, 0), BuildingBlock: KIFKEQ_clean_linker_1, # of connection points: 2
#     Edge 51, Type (0, 0), BuildingBlock: KIFKEQ_clean_linker_1, # of connection points: 2
#     Edge 52, Type (0, 0), BuildingBlock: KIFKEQ_clean_linker_1, # of connection points: 2
#     Edge 53, Type (0, 0), BuildingBlock: KIFKEQ_clean_linker_1, # of connection points: 2
#     Edge 54, Type (0, 0), BuildingBlock: KIFKEQ_clean_linker_1, # of connection points: 2
#     Edge 55, Type (0, 0), BuildingBlock: KIFKEQ_clean_linker_1, # of connection points: 2
#     Edge 56, Type (0, 0), BuildingBlock: KIFKEQ_clean_linker_1, # of connection points: 2
#     Edge 57, Type (0, 0), BuildingBlock: KIFKEQ_clean_linker_1, # of connection points: 2
#     Edge 58, Type (0, 0), BuildingBlock: KIFKEQ_clean_linker_1, # of connection points: 2
#     Edge 59, Type (0, 0), BuildingBlock: KIFKEQ_clean_linker_1, # of connection points: 2
#     Edge 60, Type (0, 0), BuildingBlock: KIFKEQ_clean_linker_1, # of connection points: 2
#     Edge 61, Type (0, 0), BuildingBlock: KIFKEQ_clean_linker_1, # of connection points: 2
#     Edge 62, Type (0, 0), BuildingBlock: KIFKEQ_clean_linker_1, # of connection points: 2
#     Edge 63, Type (0, 0), BuildingBlock: KIFKEQ_clean_linker_1, # of connection points: 2
#     Edge 64, Type (0, 0), BuildingBlock: KIFKEQ_clean_linker_1, # of connection points: 2
#     Edge 65, Type (0, 0), BuildingBlock: KIFKEQ_clean_linker_1, # of connection points: 2
#     Edge 66, Type (0, 0), BuildingBlock: KIFKEQ_clean_linker_1, # of connection points: 2
#     Edge 67, Type (0, 0), BuildingBlock: KIFKEQ_clean_linker_1, # of connection points: 2
#     Edge 68, Type (0, 0), BuildingBlock: KIFKEQ_clean_linker_1, # of connection points: 2
#     Edge 69, Type (0, 0), BuildingBlock: KIFKEQ_clean_linker_1, # of connection points: 2
#     Edge 70, Type (0, 0), BuildingBlock: KIFKEQ_clean_linker_1, # of connection points: 2
#     Edge 71, Type (0, 0), BuildingBlock: KIFKEQ_clean_linker_1, # of connection points: 2
#     Edge 72, Type (0, 0), BuildingBlock: KIFKEQ_clean_linker_1, # of connection points: 2
#     Edge 73, Type (0, 0), BuildingBlock: KIFKEQ_clean_linker_1, # of connection points: 2
#     Edge 74, Type (0, 0), BuildingBlock: KIFKEQ_clean_linker_1, # of connection points: 2
#     Edge 75, Type (0, 0), BuildingBlock: KIFKEQ_clean_linker_1, # of connection points: 2
#     Edge 76, Type (0, 0), BuildingBlock: KIFKEQ_clean_linker_1, # of connection points: 2
#     Edge 77, Type (0, 0), BuildingBlock: KIFKEQ_clean_linker_1, # of connection points: 2
#     Edge 78, Type (0, 0), BuildingBlock: KIFKEQ_clean_linker_1, # of connection points: 2
#     Edge 79, Type (0, 0), BuildingBlock: KIFKEQ_clean_linker_1, # of connection points: 2
#     Edge 80, Type (0, 0), BuildingBlock: KIFKEQ_clean_linker_1, # of connection points: 2
#     Edge 81, Type (0, 0), BuildingBlock: KIFKEQ_clean_linker_1, # of connection points: 2
#     Edge 82, Type (0, 0), BuildingBlock: KIFKEQ_clean_linker_1, # of connection points: 2
#     Edge 83, Type (0, 0), BuildingBlock: KIFKEQ_clean_linker_1, # of connection points: 2
#     Edge 84, Type (0, 0), BuildingBlock: KIFKEQ_clean_linker_1, # of connection points: 2
#     Edge 85, Type (0, 0), BuildingBlock: KIFKEQ_clean_linker_1, # of connection points: 2
#     Edge 86, Type (0, 0), BuildingBlock: KIFKEQ_clean_linker_1, # of connection points: 2
#     Edge 87, Type (0, 0), BuildingBlock: KIFKEQ_clean_linker_1, # of connection points: 2
#     Edge 88, Type (0, 0), BuildingBlock: KIFKEQ_clean_linker_1, # of connection points: 2
#     Edge 89, Type (0, 0), BuildingBlock: KIFKEQ_clean_linker_1, # of connection points: 2
#     Edge 90, Type (0, 0), BuildingBlock: KIFKEQ_clean_linker_1, # of connection points: 2
#     Edge 91, Type (0, 0), BuildingBlock: KIFKEQ_clean_linker_1, # of connection points: 2
#     Edge 92, Type (0, 0), BuildingBlock: KIFKEQ_clean_linker_1, # of connection points: 2
#     Edge 93, Type (0, 0), BuildingBlock: KIFKEQ_clean_linker_1, # of connection points: 2
#     Edge 94, Type (0, 0), BuildingBlock: KIFKEQ_clean_linker_1, # of connection points: 2
#     Edge 95, Type (0, 0), BuildingBlock: KIFKEQ_clean_linker_1, # of connection points: 2
#     Edge 96, Type (0, 0), BuildingBlock: KIFKEQ_clean_linker_1, # of connection points: 2
#     Edge 97, Type (0, 0), BuildingBlock: KIFKEQ_clean_linker_1, # of connection points: 2
#     Edge 98, Type (0, 0), BuildingBlock: KIFKEQ_clean_linker_1, # of connection points: 2
#     Edge 99, Type (0, 0), BuildingBlock: KIFKEQ_clean_linker_1, # of connection points: 2
#     Edge 100, Type (0, 0), BuildingBlock: KIFKEQ_clean_linker_1, # of connection points: 2
#     Edge 101, Type (0, 0), BuildingBlock: KIFKEQ_clean_linker_1, # of connection points: 2
#     Edge 102, Type (0, 0), BuildingBlock: KIFKEQ_clean_linker_1, # of connection points: 2
#     Edge 103, Type (0, 0), BuildingBlock: KIFKEQ_clean_linker_1, # of connection points: 2
#     Edge 104, Type (0, 0), BuildingBlock: KIFKEQ_clean_linker_1, # of connection points: 2
#     Edge 105, Type (0, 0), BuildingBlock: KIFKEQ_clean_linker_1, # of connection points: 2
#     Edge 106, Type (0, 0), BuildingBlock: KIFKEQ_clean_linker_1, # of connection points: 2
#     Edge 107, Type (0, 0), BuildingBlock: KIFKEQ_clean_linker_1, # of connection points: 2
#     Edge 108, Type (0, 0), BuildingBlock: KIFKEQ_clean_linker_1, # of connection points: 2
#     Edge 109, Type (0, 0), BuildingBlock: KIFKEQ_clean_linker_1, # of connection points: 2
#     Edge 110, Type (0, 0), BuildingBlock: KIFKEQ_clean_linker_1, # of connection points: 2
#     Edge 111, Type (0, 0), BuildingBlock: KIFKEQ_clean_linker_1, # of connection points: 2
#     Edge 112, Type (0, 0), BuildingBlock: KIFKEQ_clean_linker_1, # of connection points: 2
#     Edge 113, Type (0, 0), BuildingBlock: KIFKEQ_clean_linker_1, # of connection points: 2
#     Edge 114, Type (0, 0), BuildingBlock: KIFKEQ_clean_linker_1, # of connection points: 2
#     Edge 115, Type (0, 0), BuildingBlock: KIFKEQ_clean_linker_1, # of connection points: 2
#     Edge 116, Type (0, 0), BuildingBlock: KIFKEQ_clean_linker_1, # of connection points: 2
#     Edge 117, Type (0, 0), BuildingBlock: KIFKEQ_clean_linker_1, # of connection points: 2
#     Edge 118, Type (0, 0), BuildingBlock: KIFKEQ_clean_linker_1, # of connection points: 2
#     Edge 119, Type (0, 0), BuildingBlock: KIFKEQ_clean_linker_1, # of connection points: 2
#     Edge 120, Type (0, 0), BuildingBlock: KIFKEQ_clean_linker_1, # of connection points: 2
#     Edge 121, Type (0, 0), BuildingBlock: KIFKEQ_clean_linker_1, # of connection points: 2
#     Edge 122, Type (0, 0), BuildingBlock: KIFKEQ_clean_linker_1, # of connection points: 2
#     Edge 123, Type (0, 0), BuildingBlock: KIFKEQ_clean_linker_1, # of connection points: 2
#     Edge 124, Type (0, 0), BuildingBlock: KIFKEQ_clean_linker_1, # of connection points: 2
#     Edge 125, Type (0, 0), BuildingBlock: KIFKEQ_clean_linker_1, # of connection points: 2
#     Edge 126, Type (0, 0), BuildingBlock: KIFKEQ_clean_linker_1, # of connection points: 2
#     Edge 127, Type (0, 0), BuildingBlock: KIFKEQ_clean_linker_1, # of connection points: 2
# Relax obj value: 0.216
# Max RMSD: 0.189
# Mean RMSD: 0.188
data_MOF--net-vcc--node1-KUMJIN_clean_sbu_0--edge1-KIFKEQ_clean_linker_1
_symmetry_space_group_name_H-M    P1
_symmetry_Int_Tables_number       1
_symmetry_cell_setting            triclinic
loop_
_symmetry_equiv_pos_as_xyz
'x, y, z'
_cell_length_a     36.940108
_cell_length_b     58.989038
_cell_length_c     53.051494
_cell_angle_alpha  89.94929
_cell_angle_beta   90.074078
_cell_angle_gamma 89.933512
loop_
_atom_site_label
_atom_site_type_symbol
_atom_site_fract_x
_atom_site_fract_y
_atom_site_fract_z
_atom_type_partial_charge
Eu0 Eu 0.38609 0.01472 0.11205 0.0
C1 C 0.2437 0.97404 0.11055 0.0
C2 C 0.21127 0.00594 0.09194 0.0
C3 C 0.1881 0.96778 0.08669 0.0
C4 C 0.24065 0.99741 0.10624 0.0
C5 C 0.21685 0.9592 0.10112 0.0
C6 C 0.18533 0.99103 0.08211 0.0
C7 C 0.24604 0.9284 0.12314 0.0
N8 N 0.27157 0.96587 0.1248 0.0
C9 C 0.27174 0.94362 0.13231 0.0
C10 C 0.2188 0.93615 0.10717 0.0
Eu11 Eu 0.30863 0.99427 0.14291 0.0
N12 N 0.26587 0.01181 0.11603 0.0
C13 C 0.26285 0.03469 0.1124 0.0
C14 C 0.20861 0.0293 0.08788 0.0
C15 C 0.23452 0.04371 0.09814 0.0
H16 H 0.29177 0.93753 0.1456 0.0
H17 H 0.23253 0.06183 0.09526 0.0
H18 H 0.16274 0.99736 0.07111 0.0
H19 H 0.24696 0.91076 0.12874 0.0
H20 H 0.28189 0.04627 0.12035 0.0
H21 H 0.46978 0.95017 0.15968 0.0
H22 H 0.18654 0.0364 0.07694 0.0
H23 H 0.39661 0.07253 0.11188 0.0
H24 H 0.41752 0.96374 0.13669 0.0
H25 H 0.43616 0.10087 0.13105 0.0
H26 H 0.16745 0.95658 0.07929 0.0
H27 H 0.5135 0.97733 0.17748 0.0
H28 H 0.53188 0.01721 0.18479 0.0
H29 H 0.19865 0.92433 0.1003 0.0
H30 H 0.52136 0.05779 0.17854 0.0
N31 N 0.43122 0.99878 0.13886 0.0
C32 C 0.43646 0.97608 0.14292 0.0
C33 C 0.49054 0.98355 0.16677 0.0
C34 C 0.48483 0.00676 0.16337 0.0
C35 C 0.46609 0.96818 0.15666 0.0
C36 C 0.45447 0.01413 0.14921 0.0
H37 H 0.48585 0.0889 0.15915 0.0
N38 N 0.41914 0.04445 0.13211 0.0
C39 C 0.43937 0.08316 0.13592 0.0
C40 C 0.44805 0.03734 0.14606 0.0
C41 C 0.41624 0.06696 0.12566 0.0
C42 C 0.46744 0.07631 0.15162 0.0
C43 C 0.47263 0.05324 0.15641 0.0
O44 O 0.40826 0.03828 0.08464 0.0
O45 O 0.32718 0.00457 0.10365 0.0
O46 O 0.33668 0.96314 0.12659 0.0
O47 O 0.38346 0.97704 0.10137 0.0
O48 O 0.35393 0.01677 0.07381 0.0
O49 O 0.43676 0.00688 0.09327 0.0
O50 O 0.28043 0.97407 0.17108 0.0
O51 O 0.3675 0.00344 0.15119 0.0
O52 O 0.35415 0.04513 0.127 0.0
O53 O 0.31834 0.02998 0.1583 0.0
O54 O 0.34239 0.98633 0.17912 0.0
O55 O 0.26195 0.0089 0.16172 0.0
C56 C 0.32271 0.00819 0.07945 0.0
C57 C 0.45025 0.02542 1.05507 0.0
C58 C 0.45405 0.00645 1.01482 0.0
C59 C 0.44513 0.00615 1.04038 0.0
C60 C 0.47025 0.02605 1.0045 0.0
C61 C 0.46636 0.04481 1.04479 0.0
C62 C 0.47669 0.04501 1.01956 0.0
C63 C 0.36281 0.96019 0.10981 0.0
C64 C 0.43712 0.02602 0.08078 0.0
C65 C 0.50241 0.04577 0.17054 0.0
C66 C 0.5085 0.02265 0.17399 0.0
C67 C 0.37266 0.99662 0.17446 0.0
C68 C 0.22534 0.98707 0.19014 0.0
C69 C 0.22021 0.00391 0.20796 0.0
C70 C 0.20191 0.99872 0.23012 0.0
C71 C 0.18073 0.97886 0.23118 0.0
C72 C 0.20562 0.96683 0.19133 0.0
C73 C 0.18181 0.96329 0.21134 0.0
C74 C 0.33561 0.04732 0.14816 0.0
C75 C 0.25541 0.98965 0.17308 0.0
H76 H 0.43277 0.99125 1.04866 0.0
H77 H 0.47645 0.02722 0.98461 0.0
H78 H 0.47032 0.05986 1.05617 0.0
H79 H 0.4886 0.06011 1.01147 0.0
H80 H 0.23606 0.01937 0.20679 0.0
H81 H 0.16589 0.97434 0.24803 0.0
H82 H 0.20904 0.95383 0.17712 0.0
H83 H 0.16627 0.94779 0.21241 0.0
Eu84 Eu 0.914 0.23666 0.11014 0.0
C85 C 0.05513 0.27376 0.11279 0.0
C86 C 0.08682 0.24049 0.09705 0.0
C87 C 0.11235 0.27786 0.09032 0.0
C88 C 0.05734 0.25018 0.11023 0.0
C89 C 0.08317 0.28764 0.1032 0.0
C90 C 0.11409 0.2544 0.08717 0.0
C91 C 0.05362 0.32008 0.12154 0.0
N92 N 0.02653 0.28313 0.12517 0.0
C93 C 0.02679 0.30578 0.13089 0.0
C94 C 0.0817 0.31103 0.10732 0.0
Eu95 Eu 0.98591 0.25676 0.14352 0.0
N96 N 0.03064 0.23678 0.11995 0.0
C97 C 0.0315 0.2138 0.11619 0.0
C98 C 0.08795 0.21701 0.09377 0.0
C99 C 0.06001 0.20367 0.10315 0.0
H100 H 1.00695 0.3129 0.14357 0.0
H101 H 0.06022 0.18553 0.10013 0.0
H102 H 0.13674 0.24717 0.07701 0.0
H103 H 0.0531 0.33801 0.1259 0.0
H104 H 1.00976 0.203 0.12204 0.0
H105 H 0.81073 0.29329 0.1442 0.0
H106 H 0.10998 0.20904 0.08362 0.0
H107 H 0.91642 0.17843 0.105 0.0
H108 H 0.87417 0.28167 0.13982 0.0
H109 H 0.8718 0.14735 0.10721 0.0
H110 H 0.13394 0.28831 0.08285 0.0
H111 H 0.76251 0.26565 0.13627 0.0
H112 H 0.74403 0.22529 0.12604 0.0
H113 H 0.10279 0.32214 0.10035 0.0
H114 H 0.76031 0.18543 0.12241 0.0
N115 N 0.86152 0.24722 0.13162 0.0
C116 C 0.85333 0.26907 0.13788 0.0
C117 C 0.79008 0.25992 0.13634 0.0
C118 C 0.79876 0.2371 0.13225 0.0
C119 C 0.81739 0.27575 0.14039 0.0
C120 C 0.83547 0.23094 0.13071 0.0
H121 H 0.80804 0.15593 0.1173 0.0
N122 N 0.88005 0.20347 0.11929 0.0
C123 C 0.86403 0.16439 0.1125 0.0
C124 C 0.8451 0.20844 0.12536 0.0
C125 C 0.88936 0.18191 0.11181 0.0
C126 C 0.8281 0.16929 0.1183 0.0
C127 C 0.81803 0.19162 0.12372 0.0
O128 O 0.89678 0.21719 0.07743 0.0
O129 O 0.96979 0.25282 0.10122 0.0
O130 O 0.95749 0.28879 0.12998 0.0
O131 O 0.9133 0.27506 0.10284 0.0
O132 O 0.95779 0.22351 0.08245 0.0
O133 O 0.86974 0.24894 0.08677 0.0
O134 O 1.00796 0.27954 0.17159 0.0
O135 O 0.92599 0.24794 0.15014 0.0
O136 O 0.92961 0.20878 0.1378 0.0
O137 O 0.98223 0.22023 0.15715 0.0
O138 O 0.95067 0.26204 0.1797 0.0
O139 O 0.03286 0.24574 0.16562 0.0
C140 C 0.98105 0.2399 0.08285 0.0
C141 C 0.85962 0.23352 1.04657 0.0
C142 C 0.86218 0.25431 1.00772 0.0
C143 C 0.87359 0.25134 1.03247 0.0
C144 C 0.83745 0.23907 0.99683 0.0
C145 C 0.83482 0.21829 1.03591 0.0
C146 C 0.82386 0.22104 1.01095 0.0
C147 C 0.9314 0.29207 0.11327 0.0
C148 C 0.86987 0.23082 0.07261 0.0
C149 C 0.78151 0.19788 0.12512 0.0
C150 C 0.77206 0.22064 0.12802 0.0
C151 C 0.9196 0.25343 0.17372 0.0
C152 C 0.06366 0.27218 0.19294 0.0
C153 C 0.06453 0.26124 0.21593 0.0
C154 C 0.08165 0.2716 0.23619 0.0
C155 C 0.10427 0.29029 0.23238 0.0
C156 C 0.08489 0.29149 0.1888 0.0
C157 C 0.10628 0.30004 0.20843 0.0
C158 C 0.95685 0.205 0.15319 0.0
C159 C 0.03485 0.26574 0.17605 0.0
H160 H 0.89295 0.26298 1.04079 0.0
H161 H 0.82926 0.24092 0.97733 0.0
H162 H 0.82396 0.20438 1.04692 0.0
H163 H 0.80493 0.20923 1.00257 0.0
H164 H 0.04634 0.24707 0.21929 0.0
H165 H 0.11756 0.29845 0.24816 0.0
H166 H 0.08418 0.30019 0.17083 0.0
H167 H 0.12257 0.31504 0.20551 0.0
Eu168 Eu 0.38698 0.23757 0.26923 0.0
C169 C 0.2459 0.27563 0.2726 0.0
C170 C 0.2121 0.24303 0.28806 0.0
C171 C 0.19071 0.28099 0.29718 0.0
C172 C 0.24231 0.25206 0.27511 0.0
C173 C 0.21931 0.29011 0.28315 0.0
C174 C 0.18704 0.25756 0.29953 0.0
C175 C 0.24625 0.32149 0.26106 0.0
N176 N 0.27289 0.28432 0.25799 0.0
C177 C 0.27126 0.30655 0.25052 0.0
C178 C 0.22067 0.31332 0.27794 0.0
Eu179 Eu 0.30919 0.25668 0.23765 0.0
N180 N 0.26696 0.23796 0.26397 0.0
C181 C 0.26226 0.21497 0.26484 0.0
C182 C 0.20732 0.21954 0.28873 0.0
C183 C 0.23245 0.20549 0.27703 0.0
H184 H 0.28931 0.31294 0.23612 0.0
H185 H 0.2288 0.18729 0.27728 0.0
H186 H 0.16412 0.2508 0.3098 0.0
H187 H 0.24618 0.33918 0.25563 0.0
H188 H 0.28034 0.20363 0.25553 0.0
H189 H 0.47466 0.2957 0.21665 0.0
H190 H 0.18423 0.21208 0.29818 0.0
H191 H 0.39685 0.1808 0.27943 0.0
H192 H 0.42266 0.28559 0.24257 0.0
H193 H 0.43546 0.14967 0.26413 0.0
H194 H 0.17032 0.29192 0.30543 0.0
H195 H 0.51449 0.2658 0.1997 0.0
H196 H 0.52952 0.22487 0.1958 0.0
H197 H 0.20073 0.32487 0.28566 0.0
H198 H 0.5177 0.18539 0.20745 0.0
N199 N 0.43184 0.24992 0.24068 0.0
C200 C 0.43936 0.27218 0.23552 0.0
C201 C 0.49142 0.26114 0.21116 0.0
C202 C 0.48407 0.23841 0.21669 0.0
C203 C 0.46905 0.27807 0.22069 0.0
C204 C 0.45376 0.23308 0.23185 0.0
H205 H 0.48296 0.15734 0.23259 0.0
N206 N 0.41882 0.20538 0.2542 0.0
C207 C 0.43856 0.16654 0.25641 0.0
C208 C 0.44679 0.21043 0.23839 0.0
C209 C 0.4164 0.18416 0.26472 0.0
C210 C 0.46532 0.17097 0.23864 0.0
C211 C 0.47044 0.19314 0.22998 0.0
O212 O 0.41355 0.21973 0.30037 0.0
O213 O 0.3276 0.24691 0.27736 0.0
O214 O 0.33817 0.28863 0.25113 0.0
O215 O 0.38375 0.27551 0.27774 0.0
O216 O 0.35463 0.23509 0.30743 0.0
O217 O 0.43833 0.24944 0.28348 0.0
O218 O 0.28012 0.27777 0.21055 0.0
O219 O 0.36883 0.24849 0.2295 0.0
O220 O 0.35814 0.20641 0.25296 0.0
O221 O 0.31949 0.22097 0.2226 0.0
O222 O 0.3414 0.26216 0.20016 0.0
O223 O 0.2601 0.24389 0.22027 0.0
C224 C 0.32312 0.2433 0.30161 0.0
C225 C 0.4571 0.23996 0.32361 0.0
C226 C 0.4543 0.26382 0.36045 0.0
C227 C 0.44004 0.25691 0.33735 0.0
C228 C 0.48691 0.25418 0.36907 0.0
C229 C 0.48976 0.23053 0.332 0.0
C230 C 0.5048 0.2378 0.35472 0.0
C231 C 0.36418 0.29215 0.26788 0.0
C232 C 0.4418 0.23306 0.29978 0.0
C233 C 0.49951 0.19851 0.2141 0.0
C234 C 0.50633 0.22101 0.20753 0.0
C235 C 0.37291 0.25361 0.20547 0.0
C236 C 0.22717 0.26469 0.18997 0.0
C237 C 0.23562 0.25432 0.16742 0.0
C238 C 0.21512 0.2593 0.14616 0.0
C239 C 0.18387 0.27261 0.14794 0.0
C240 C 0.19653 0.27861 0.19205 0.0
C241 C 0.17484 0.2824 0.17089 0.0
C242 C 0.33829 0.20397 0.23234 0.0
C243 C 0.25298 0.26359 0.21018 0.0
H244 H 0.41509 0.26429 0.33028 0.0
H245 H 0.49758 0.25856 0.38734 0.0
H246 H 0.50353 0.21767 0.32101 0.0
H247 H 0.52982 0.23039 0.36147 0.0
H248 H 0.26058 0.24468 0.16569 0.0
H249 H 0.16869 0.27723 0.13122 0.0
H250 H 0.19048 0.28727 0.20956 0.0
H251 H 0.15288 0.29433 0.1715 0.0
Eu252 Eu 0.90916 0.0137 0.26901 0.0
C253 C 0.05154 0.97397 0.26832 0.0
C254 C 0.08302 0.00504 0.28931 0.0
C255 C 0.10683 0.96679 0.2922 0.0
C256 C 0.05394 0.99714 0.27438 0.0
C257 C 0.07882 0.95888 0.27671 0.0
C258 C 0.10862 0.98966 0.29871 0.0
C259 C 0.05143 0.92934 0.25174 0.0
N260 N 0.02423 0.96637 0.25317 0.0
C261 C 0.02526 0.94478 0.24364 0.0
C262 C 0.078 0.93632 0.26864 0.0
Eu263 Eu 0.98717 0.99568 0.23707 0.0
N264 N 0.02849 0.01198 0.26559 0.0
C265 C 0.03135 0.03471 0.27036 0.0
C266 C 0.08562 0.02822 0.29454 0.0
C267 C 0.05973 0.0431 0.28496 0.0
H268 H 1.00581 0.93947 0.22955 0.0
H269 H 0.06173 0.06109 0.2887 0.0
H270 H 0.13029 0.99539 0.31085 0.0
H271 H 0.05143 0.91216 0.24459 0.0
H272 H 1.01221 0.04655 0.26282 0.0
H273 H 0.82674 0.94925 0.22001 0.0
H274 H 0.10766 0.03483 0.30584 0.0
H275 H 0.89606 0.07162 0.26988 0.0
H276 H 0.87819 0.96292 0.24339 0.0
H277 H 0.85647 0.09979 0.25053 0.0
H278 H 0.12768 0.95536 0.29898 0.0
H279 H 0.78264 0.97625 0.20228 0.0
H280 H 0.76409 0.01603 0.19475 0.0
H281 H 0.09856 0.92436 0.27465 0.0
H282 H 0.77404 0.05665 0.20116 0.0
N283 N 0.86349 0.99786 0.24229 0.0
C284 C 0.85897 0.97521 0.23758 0.0
C285 C 0.80505 0.9825 0.21349 0.0
C286 C 0.81004 0.00567 0.2174 0.0
C287 C 0.82975 0.96723 0.22351 0.0
C288 C 0.83981 0.01309 0.23212 0.0
H289 H 0.80767 0.08773 0.22181 0.0
N290 N 0.87424 0.04336 0.24966 0.0
C291 C 0.8536 0.08208 0.24559 0.0
C292 C 0.84566 0.03625 0.2355 0.0
C293 C 0.87687 0.06595 0.25591 0.0
C294 C 0.82601 0.07518 0.22959 0.0
C295 C 0.82132 0.05212 0.22471 0.0
O296 O 0.88476 0.03739 0.29449 0.0
O297 O 0.96873 0.00462 0.27692 0.0
O298 O 0.96051 0.96338 0.25161 0.0
O299 O 0.91352 0.97569 0.27766 0.0
O300 O 0.94171 0.01599 0.30701 0.0
O301 O 0.86396 0.00304 0.2934 0.0
O302 O 1.02125 0.97921 0.2091 0.0
O303 O 0.92728 0.00338 0.22907 0.0
O304 O 0.94051 0.04498 0.25526 0.0
O305 O 0.97525 0.0312 0.22268 0.0
O306 O 0.95397 0.98835 0.20028 0.0
O307 O 0.03401 0.01338 0.22224 0.0
C308 C 0.97312 0.00786 0.30125 0.0
C309 C 0.8527 0.02653 0.32963 0.0
C310 C 0.85785 0.01552 0.3734 0.0
C311 C 0.86294 0.01062 0.3478 0.0
C312 C 0.84362 0.03664 0.38067 0.0
C313 C 0.83725 0.04725 0.33704 0.0
C314 C 0.83297 0.05232 0.36248 0.0
C315 C 0.93449 0.95943 0.26823 0.0
C316 C 0.86063 0.02342 0.30297 0.0
C317 C 0.79249 0.04463 0.20977 0.0
C318 C 0.78673 0.02151 0.20623 0.0
C319 C 0.92254 0.99725 0.20541 0.0
C320 C 0.06745 0.99928 0.18829 0.0
C321 C 0.05113 0.00604 0.16615 0.0
C322 C 0.07005 0.00405 0.14363 0.0
C323 C 0.10716 0.99878 0.14382 0.0
C324 C 0.10421 0.99357 0.18886 0.0
C325 C 0.12435 0.99401 0.16661 0.0
C326 C 0.95855 0.0481 0.23398 0.0
C327 C 0.04525 0.99552 0.21008 0.0
H328 H 0.87463 0.99455 0.34211 0.0
H329 H 0.83998 0.04075 0.4004 0.0
H330 H 0.82939 0.05976 0.32307 0.0
H331 H 0.8215 0.06844 0.36809 0.0
H332 H 0.02247 0.01019 0.16611 0.0
H333 H 0.12213 0.99688 0.12639 0.0
H334 H 0.11673 0.98826 0.20632 0.0
H335 H 0.15262 0.98944 0.16668 0.0
Eu336 Eu 0.73603 0.00826 0.98631 0.0
C337 C 0.60667 0.95521 0.98702 0.0
C338 C 0.56603 0.98033 0.96396 0.0
C339 C 0.55783 0.93961 0.9614 0.0
C340 C 0.59628 0.97715 0.97997 0.0
C341 C 0.58662 0.93636 0.97828 0.0
C342 C 0.54763 0.96149 0.95424 0.0
C343 C 0.62071 0.91246 1.0066 0.0
N344 N 0.63411 0.95232 1.00392 0.0
C345 C 0.63928 0.93155 1.01511 0.0
C346 C 0.59475 0.9148 0.98773 0.0
Eu347 Eu 0.6611 0.98654 1.01834 0.0
N348 N 0.61425 0.99536 0.98959 0.0
C349 C 0.60175 0.01689 0.98533 0.0
C350 C 0.55477 0.00242 0.95831 0.0
C351 C 0.57222 0.02073 0.96948 0.0
H352 H 0.65854 0.9297 1.03038 0.0
H353 H 0.56288 0.03784 0.96595 0.0
H354 H 0.52482 0.96368 0.94161 0.0
H355 H 0.62606 0.89601 1.01487 0.0
H356 H 0.6138 0.03123 0.99437 0.0
H357 H 0.83073 0.93948 1.01059 0.0
H358 H 0.5321 0.00551 0.9458 0.0
H359 H 0.73754 0.06416 1.00537 0.0
H360 H 0.78012 0.9563 0.98852 0.0
H361 H 0.7712 0.0877 1.03441 0.0
H362 H 0.54245 0.9253 0.9544 0.0
H363 H 0.86643 0.96216 1.04062 0.0
H364 H 0.87684 0.9988 1.06229 0.0
H365 H 0.57994 0.9 0.98144 0.0
H366 H 0.86144 0.03871 0.06825 0.0
N367 N 0.78209 0.98806 1.00804 0.0
C368 C 0.79279 0.96631 1.00281 0.0
C369 C 0.843 0.96964 1.03152 0.0
C370 C 0.83346 0.99222 1.03586 0.0
C371 C 0.82273 0.95672 1.0148 0.0
C372 C 0.8026 0.0013 1.02363 0.0
H373 H 0.82203 0.07156 1.05862 0.0
N374 N 0.7632 0.03295 1.01612 0.0
C375 C 0.77701 0.06973 1.03332 0.0
C376 C 0.79296 0.02405 1.02777 0.0
C377 C 0.75665 0.05583 1.01755 0.0
C378 C 0.8059 0.06061 1.04667 0.0
C379 C 0.81472 0.03775 1.04361 0.0
O380 O 0.76096 0.03753 0.96808 0.0
O381 O 0.67706 0.99842 0.97846 0.0
O382 O 0.69398 0.95681 1.00268 0.0
O383 O 0.7284 0.97243 0.97057 0.0
O384 O 0.7051 0.0103 0.94807 0.0
O385 O 0.78575 0.00411 0.96538 0.0
O386 O 0.63497 0.96774 1.04865 0.0
O387 O 0.7196 0.9974 1.02613 0.0
O388 O 0.69668 0.03709 0.99187 0.0
O389 O 0.66373 0.02473 1.02623 0.0
O390 O 0.69459 0.98301 1.05577 0.0
O391 O 0.61144 0.99918 1.03494 0.0
C392 C 0.67326 0.00273 0.95419 0.0
C393 C 0.80777 0.03279 0.93811 0.0
C394 C 0.82862 0.02399 0.89618 0.0
C395 C 0.81554 0.01694 0.91954 0.0
C396 C 0.83897 0.0468 0.89293 0.0
C397 C 0.81815 0.05545 0.93493 0.0
C398 C 0.83448 0.06231 0.91252 0.0
C399 C 0.71244 0.95481 0.98142 0.0
C400 C 0.78902 0.02581 0.96087 0.0
C401 C 0.84486 0.02845 1.05585 0.0
C402 C 0.85385 0.00575 1.05227 0.0
C403 C 0.72507 0.9925 1.05 0.0
C404 C 0.59383 0.98661 0.07475 0.0
C405 C 0.60988 0.00333 0.08952 0.0
C406 C 0.59572 0.00819 0.11324 0.0
C407 C 0.56569 0.99596 0.1222 0.0
C408 C 0.56365 0.97461 0.08352 0.0
C409 C 0.54961 0.9793 0.10731 0.0
C410 C 0.67551 0.04112 1.01132 0.0
C411 C 0.6078 0.9818 1.04993 0.0
H412 H 0.80894 0.99926 0.92261 0.0
H413 H 0.84857 0.05305 0.87496 0.0
H414 H 0.81325 0.06782 0.94963 0.0
H415 H 0.84207 0.07987 0.90988 0.0
H416 H 0.63334 0.01246 0.08258 0.0
H417 H 0.55549 0.99884 0.141 0.0
H418 H 0.55111 0.96164 0.072 0.0
H419 H 0.52658 0.96988 0.1143 0.0
Eu420 Eu 0.0573 0.74302 0.98807 0.0
C421 C 0.19266 0.79332 0.98843 0.0
C422 C 0.23153 0.76819 0.96392 0.0
C423 C 0.24259 0.80871 0.96378 0.0
C424 C 0.20149 0.77142 0.98004 0.0
C425 C 0.21393 0.81197 0.98071 0.0
C426 C 0.25139 0.78693 0.95547 0.0
C427 C 0.18033 0.83574 1.00947 0.0
N428 N 0.16507 0.79631 1.0052 0.0
C429 C 0.1604 0.81685 1.017 0.0
C430 C 0.20682 0.83337 0.99098 0.0
Eu431 Eu 0.13653 0.76212 1.01778 0.0
N432 N 0.18207 0.75323 0.98832 0.0
C433 C 0.19241 0.73162 0.98226 0.0
C434 C 0.24142 0.74613 0.9571 0.0
C435 C 0.222 0.72778 0.96652 0.0
H436 H 0.1403 0.81863 1.0317 0.0
H437 H 0.22988 0.71064 0.96175 0.0
H438 H 0.27432 0.78469 0.94298 0.0
H439 H 0.17557 0.85207 1.01816 0.0
H440 H 0.1785 0.71719 0.98975 0.0
H441 H 0.97997 0.81114 1.03309 0.0
H442 H 0.26442 0.74306 0.94491 0.0
H443 H 0.05217 0.68489 0.99745 0.0
H444 H 0.03141 0.79561 1.01007 0.0
H445 H 1.0139 0.65858 1.02004 0.0
H446 H 0.25899 0.82289 0.95762 0.0
H447 H 0.93511 0.78549 1.0524 0.0
H448 H 0.91529 0.7462 1.06225 0.0
H449 H 0.22258 0.84802 0.98543 0.0
H450 H 0.92516 0.70523 1.05941 0.0
N451 N 1.01656 0.76108 1.01569 0.0
C452 C 1.01243 0.78399 1.01811 0.0
C453 C 0.95787 0.77843 1.0422 0.0
C454 C 0.9626 0.75498 1.04028 0.0
C455 C 0.98314 0.79297 1.03136 0.0
C456 C 0.99274 0.74653 1.02684 0.0
H457 H 0.96233 0.67273 1.0449 0.0
N458 N 0.02841 0.71493 1.01311 0.0
C459 C 1.00991 0.67665 1.02237 0.0
C460 C 0.999 0.72307 1.02578 0.0
C461 C 0.03292 0.69193 1.01042 0.0
C462 C 0.98062 0.68471 1.0361 0.0
C463 C 0.97445 0.70804 1.0376 0.0
O464 O 0.02615 0.71799 0.96691 0.0
O465 O 0.11627 0.7516 0.97875 0.0
O466 O 0.11132 0.79217 0.99683 0.0
O467 O 0.06168 0.77953 0.97381 0.0
O468 O 0.08655 0.74057 0.94901 0.0
O469 O 1.00643 0.75269 0.97096 0.0
O470 O 0.16511 0.77862 1.04878 0.0
O471 O 0.07893 0.75081 1.02759 0.0
O472 O 0.09446 0.71293 0.99175 0.0
O473 O 0.13275 0.72376 1.02414 0.0
O474 O 0.10299 0.76894 1.05476 0.0
O475 O 0.1864 0.74768 1.03206 0.0
C476 C 0.11899 0.74761 0.95447 0.0
C477 C 0.97525 0.72883 0.94297 0.0
C478 C 0.96214 0.73726 0.89976 0.0
C479 C 0.97914 0.74283 0.92228 0.0
C480 C 0.93707 0.71926 0.89914 0.0
C481 C 0.95058 0.71082 0.94261 0.0
C482 C 0.93101 0.70631 0.9207 0.0
C483 C 0.08521 0.79547 0.98017 0.0
C484 C 0.99892 0.7319 0.96424 0.0
C485 C 0.94419 0.71658 1.05037 0.0
C486 C 0.93841 0.73993 1.05182 0.0
C487 C 0.0733 0.75777 1.05073 0.0
C488 C 0.20983 0.75846 0.07114 0.0
C489 C 0.19601 0.74123 0.08621 0.0
C490 C 0.21321 0.73573 0.10886 0.0
C491 C 0.24543 0.74694 0.11557 0.0
C492 C 0.24136 0.77002 0.07815 0.0
C493 C 0.2594 0.76403 0.10025 0.0
C494 C 0.11773 0.708 1.00978 0.0
C495 C 0.19206 0.7643 1.04776 0.0
H496 H 0.99798 0.75691 0.92313 0.0
H497 H 0.92398 0.71418 0.88179 0.0
H498 H 0.94722 0.70001 0.95896 0.0
H499 H 0.91265 0.69206 0.91993 0.0
H500 H 0.17122 0.73268 0.08072 0.0
H501 H 0.25867 0.74335 0.13327 0.0
H502 H 0.25226 0.78337 0.06635 0.0
H503 H 0.28384 0.77288 0.10572 0.0
Eu504 Eu 0.7369 0.74413 0.89658 0.0
C505 C 0.59983 0.79144 0.88115 0.0
C506 C 0.55641 0.76282 0.89446 0.0
C507 C 0.53813 0.80233 0.89182 0.0
C508 C 0.59171 0.7688 0.88712 0.0
C509 C 0.57282 0.80831 0.88368 0.0
C510 C 0.52986 0.77969 0.89663 0.0
C511 C 0.61303 0.83523 0.8642 0.0
N512 N 0.63231 0.79659 0.87043 0.0
C513 C 0.63792 0.81781 0.86043 0.0
C514 C 0.58036 0.8305 0.87604 0.0
Eu515 Eu 0.66627 0.76396 0.8593 0.0
N516 N 0.61695 0.75229 0.88341 0.0
C517 C 0.6095 0.73006 0.88849 0.0
C518 C 0.54843 0.73982 0.89797 0.0
C519 C 0.57515 0.72351 0.89577 0.0
H520 H 0.66143 0.82114 0.84886 0.0
H521 H 0.56905 0.70579 0.89901 0.0
H522 H 0.5025 0.77558 0.90142 0.0
H523 H 0.61831 0.85202 0.85685 0.0
H524 H 0.62972 0.71719 0.88703 0.0
H525 H 0.81695 0.8102 0.84992 0.0
H526 H 0.52184 0.73396 0.9017 0.0
H527 H 0.75485 0.68772 0.90321 0.0
H528 H 0.76693 0.79547 0.87492 0.0
H529 H 0.80016 0.66025 0.88826 0.0
H530 H 0.51691 0.81496 0.89327 0.0
H531 H 0.86252 0.78399 0.83234 0.0
H532 H 0.88363 0.74436 0.82581 0.0
H533 H 0.56029 0.84381 0.87786 0.0
H534 H 0.88037 0.70409 0.83711 0.0
N535 N 0.7827 0.76085 0.87173 0.0
C536 C 0.78612 0.78364 0.86759 0.0
C537 C 0.84046 0.77733 0.84355 0.0
C538 C 0.83753 0.75411 0.8484 0.0
C539 C 0.81477 0.79216 0.85336 0.0
C540 C 0.80824 0.74615 0.86304 0.0
H541 H 0.84965 0.67277 0.86027 0.0
N542 N 0.77657 0.7154 0.88218 0.0
C543 C 0.80159 0.67775 0.8822 0.0
C544 C 0.80503 0.723 0.86827 0.0
C545 C 0.77566 0.69336 0.89031 0.0
C546 C 0.82953 0.68491 0.86651 0.0
C547 C 0.83183 0.70774 0.85963 0.0
O548 O 0.76117 0.72597 0.92782 0.0
O549 O 0.67684 0.75315 0.90035 0.0
O550 O 0.69307 0.79504 0.87717 0.0
O551 O 0.72559 0.78005 0.91021 0.0
O552 O 0.69798 0.73682 0.93038 0.0
O553 O 0.7777 0.761 0.91958 0.0
O554 O 0.64596 0.78258 0.8266 0.0
O555 O 0.72586 0.75344 0.8547 0.0
O556 O 0.71022 0.7121 0.88193 0.0
O557 O 0.66946 0.7256 0.85196 0.0
O558 O 0.70195 0.76651 0.82361 0.0
O559 O 0.61921 0.7517 0.83924 0.0
C560 C 0.66846 0.74704 0.9236 0.0
C561 C 0.81863 0.73794 0.94315 0.0
C562 C 0.84163 0.73833 0.98514 0.0
C563 C 0.82706 0.75011 0.96476 0.0
C564 C 0.86016 0.71794 0.98096 0.0
C565 C 0.83628 0.71725 0.9385 0.0
C566 C 0.85846 0.70779 0.95718 0.0
C567 C 0.70962 0.79734 0.89909 0.0
C568 C 0.7826 0.74287 0.93328 0.0
C569 C 0.86012 0.71565 0.8444 0.0
C570 C 0.8624 0.73864 0.83834 0.0
C571 C 0.73199 0.75719 0.83047 0.0
C572 C 0.60638 0.76425 0.79842 0.0
C573 C 0.61872 0.74505 0.78574 0.0
C574 C 0.60372 0.73944 0.76248 0.0
C575 C 0.57719 0.75349 0.75158 0.0
C576 C 0.57986 0.77825 0.78765 0.0
C577 C 0.56538 0.77289 0.76414 0.0
C578 C 0.68685 0.70877 0.86341 0.0
C579 C 0.61851 0.76892 0.82378 0.0
H580 H 0.81222 0.76568 0.96856 0.0
H581 H 0.87177 0.70859 0.99659 0.0
H582 H 0.83061 0.70759 0.9217 0.0
H583 H 0.87061 0.69131 0.95433 0.0
H584 H 0.63936 0.73432 0.79413 0.0
H585 H 0.56632 0.74969 0.73312 0.0
H586 H 0.57007 0.79309 0.79758 0.0
H587 H 0.545 0.78371 0.7557 0.0
Eu588 Eu 0.06047 0.00581 0.89419 0.0
C589 C 0.19532 0.95618 0.88934 0.0
C590 C 0.23407 0.9832 0.91098 0.0
C591 C 0.24852 0.94314 0.91251 0.0
C592 C 0.2037 0.97853 0.89562 0.0
C593 C 0.21848 0.93839 0.89724 0.0
C594 C 0.25593 0.96541 0.91968 0.0
C595 C 0.18283 0.91232 0.87266 0.0
N596 N 0.16603 0.95185 0.87451 0.0
C597 C 0.16085 0.93033 0.86515 0.0
C598 C 0.21154 0.91631 0.88901 0.0
Eu599 Eu 0.13451 0.98494 0.85998 0.0
N600 N 0.18256 0.99573 0.88683 0.0
C601 C 0.19129 0.01775 0.89192 0.0
C602 C 0.24144 0.00569 0.91744 0.0
C603 C 0.22076 0.02308 0.90719 0.0
H604 H 0.13985 0.92711 0.85137 0.0
H605 H 0.22636 0.04055 0.91203 0.0
H606 H 0.27901 0.9687 0.93171 0.0
H607 H 0.17797 0.89544 0.86543 0.0
H608 H 0.17428 0.03128 0.88595 0.0
H609 H 0.97716 0.93768 0.85424 0.0
H610 H 0.26214 0.00981 0.93102 0.0
H611 H 0.04462 0.06306 0.89419 0.0
H612 H 0.02766 0.95331 0.87781 0.0
H613 H 1.00215 0.08976 0.87465 0.0
H614 H 0.26639 0.92968 0.91876 0.0
H615 H 0.93409 0.96316 0.83271 0.0
H616 H 0.91527 0.00225 0.82149 0.0
H617 H 0.22889 0.90234 0.89455 0.0
H618 H 0.92268 0.04329 0.82625 0.0
N619 N 1.01576 0.98784 0.86923 0.0
C620 C 1.01037 0.96492 0.86814 0.0
C621 C 0.95676 0.97028 0.84297 0.0
C622 C 0.96175 0.99372 0.84445 0.0
C623 C 0.9811 0.95585 0.85496 0.0
C624 C 0.99163 0.0023 0.85816 0.0
H625 H 0.9546 0.07584 0.84589 0.0
N626 N 0.02431 0.03407 0.87453 0.0
C627 C 1.00059 0.0719 0.87011 0.0
C628 C 0.99635 0.02578 0.86048 0.0
C629 C 0.02511 0.05664 0.88076 0.0
C630 C 0.97378 0.06396 0.85396 0.0
C631 C 0.97079 0.0407 0.84946 0.0
O632 O 0.03204 0.02733 0.92123 0.0
O633 O 0.12041 0.99693 0.90034 0.0
O634 O 0.1039 0.95464 0.87655 0.0
O635 O 0.07127 0.97009 0.90935 0.0
O636 O 0.09558 0.01204 0.93007 0.0
O637 O 1.01525 0.99178 0.91495 0.0
O638 O 0.15894 0.96385 0.83182 0.0
O639 O 0.07522 0.99538 0.85405 0.0
O640 O 0.09027 0.03697 0.88016 0.0
O641 O 0.13346 0.02318 0.8521 0.0
O642 O 0.09861 0.98164 0.82363 0.0
O643 O 0.17907 0.9981 0.83659 0.0
C644 C 0.12618 0.00269 0.92406 0.0
C645 C 0.97804 0.0144 0.94213 0.0
C646 C 0.95279 0.00186 0.98135 0.0
C647 C 0.97177 0.99715 0.95931 0.0
C648 C 0.9319 0.0219 0.98256 0.0
C649 C 0.95825 0.03463 0.94338 0.0
C650 C 0.93376 0.03785 0.96308 0.0
C651 C 0.08724 0.95259 0.8985 0.0
C652 C 1.00774 0.01155 0.9247 0.0
C653 C 0.94215 0.03203 0.83505 0.0
C654 C 0.93774 0.00866 0.83251 0.0
C655 C 0.06861 0.99124 0.83018 0.0
C656 C 0.19171 0.97781 0.79832 0.0
C657 C 0.18261 0.99534 0.78173 0.0
C658 C 0.18713 0.99233 0.75564 0.0
C659 C 0.20068 0.97137 0.74673 0.0
C660 C 0.20671 0.95759 0.78915 0.0
C661 C 0.21103 0.95438 0.76344 0.0
C662 C 0.11517 0.04006 0.86262 0.0
C663 C 0.18292 0.97866 0.82501 0.0
H664 H 0.98659 0.98134 0.95755 0.0
H665 H 0.91661 0.02625 0.99926 0.0
H666 H 0.96221 0.0479 0.92953 0.0
H667 H 0.91844 0.05346 0.96431 0.0
H668 H 0.17175 0.01101 0.78918 0.0
H669 H 0.20281 0.96772 0.72682 0.0
H670 H 0.21384 0.94392 0.80192 0.0
H671 H 0.2216 0.93848 0.7564 0.0
Eu672 Eu 0.37704 0.51305 0.60869 0.0
C673 C 0.24762 0.47351 0.61154 0.0
C674 C 0.20626 0.50506 0.60422 0.0
C675 C 0.19205 0.46796 0.58734 0.0
C676 C 0.23875 0.49646 0.61474 0.0
C677 C 0.22385 0.45916 0.59796 0.0
C678 C 0.18328 0.49077 0.59048 0.0
C679 C 0.26215 0.42747 0.60836 0.0
N680 N 0.27843 0.465 0.6222 0.0
C681 C 0.28439 0.44201 0.62207 0.0
C682 C 0.23203 0.43611 0.59595 0.0
Eu683 Eu 0.31068 0.49138 0.64767 0.0
N684 N 0.26165 0.51039 0.62775 0.0
C685 C 0.25236 0.53258 0.63175 0.0
C686 C 0.19769 0.52792 0.60756 0.0
C687 C 0.22082 0.54169 0.6214 0.0
H688 H 0.30496 0.43426 0.63361 0.0
H689 H 0.21395 0.55929 0.62462 0.0
H690 H 0.1585 0.49722 0.58219 0.0
H691 H 0.26759 0.40943 0.60814 0.0
H692 H 0.26774 0.54343 0.64377 0.0
H693 H 0.49088 0.45958 0.63068 0.0
H694 H 0.17308 0.53505 0.59972 0.0
H695 H 0.37349 0.57059 0.59986 0.0
H696 H 0.42676 0.46789 0.62854 0.0
H697 H 0.41326 0.60348 0.60536 0.0
H698 H 0.17372 0.45714 0.57689 0.0
H699 H 0.53418 0.49086 0.62887 0.0
H700 H 0.54774 0.5321 0.63179 0.0
H701 H 0.21441 0.42467 0.58572 0.0
H702 H 0.52605 0.57111 0.62904 0.0
N703 N 0.43309 0.50374 0.62669 0.0
C704 C 0.44487 0.48188 0.62891 0.0
C705 C 0.50612 0.49468 0.63007 0.0
C706 C 0.49425 0.51709 0.6303 0.0
C707 C 0.48156 0.47699 0.63029 0.0
C708 C 0.45686 0.52134 0.62812 0.0
H709 H 0.47594 0.59794 0.62012 0.0
N710 N 0.4097 0.54708 0.61741 0.0
C711 C 0.42226 0.58685 0.61133 0.0
C712 C 0.44468 0.54352 0.62445 0.0
C713 C 0.3993 0.56822 0.60912 0.0
C714 C 0.45758 0.58363 0.61963 0.0
C715 C 0.46967 0.56172 0.6251 0.0
O716 O 0.38821 0.53343 0.57577 0.0
O717 O 0.31793 0.50219 0.60645 0.0
O718 O 0.34804 0.46233 0.63937 0.0
O719 O 0.37334 0.47445 0.602 0.0
O720 O 0.3381 0.51632 0.57471 0.0
O721 O 0.41676 0.50066 0.58123 0.0
O722 O 0.28717 0.46371 0.66967 0.0
O723 O 0.37123 0.50107 0.65013 0.0
O724 O 0.34969 0.54264 0.62897 0.0
O725 O 0.31974 0.52698 0.66294 0.0
O726 O 0.34827 0.49016 0.68285 0.0
O727 O 0.2671 0.49874 0.67363 0.0
C728 C 0.30941 0.50648 0.5828 0.0
C729 C 0.43331 0.52402 0.54539 0.0
C730 C 0.44065 0.51426 0.50161 0.0
C731 C 0.43207 0.50805 0.52624 0.0
C732 C 0.45315 0.5363 0.49656 0.0
C733 C 0.44665 0.54585 0.54066 0.0
C734 C 0.45728 0.55181 0.51628 0.0
C735 C 0.36438 0.45806 0.61791 0.0
C736 C 0.41279 0.51925 0.56795 0.0
C737 C 0.50654 0.5574 0.62899 0.0
C738 C 0.5189 0.53514 0.63076 0.0
C739 C 0.37915 0.49715 0.67414 0.0
C740 C 0.2348 0.46958 0.69614 0.0
C741 C 0.21943 0.48545 0.71226 0.0
C742 C 0.20463 0.47822 0.73503 0.0
C743 C 0.19506 0.45516 0.73757 0.0
C744 C 0.2261 0.44659 0.69869 0.0
C745 C 0.20461 0.4396 0.71886 0.0
C746 C 0.33439 0.54453 0.65135 0.0
C747 C 0.26231 0.47724 0.67852 0.0
H748 H 0.4214 0.49126 0.53013 0.0
H749 H 0.45967 0.54143 0.4775 0.0
H750 H 0.44735 0.55846 0.55552 0.0
H751 H 0.46715 0.56874 0.51248 0.0
H752 H 0.22463 0.50333 0.70927 0.0
H753 H 0.1832 0.44866 0.75474 0.0
H754 H 0.23659 0.43412 0.68562 0.0
H755 H 0.19809 0.42184 0.72115 0.0
Eu756 Eu 0.91715 0.73877 0.61004 0.0
C757 C 0.05362 0.77242 0.60618 0.0
C758 C 0.08933 0.73927 0.5945 0.0
C759 C 0.10852 0.77665 0.58105 0.0
C760 C 0.05935 0.74888 0.6072 0.0
C761 C 0.07853 0.78634 0.5931 0.0
C762 C 0.11383 0.75325 0.58168 0.0
C763 C 0.04373 0.81903 0.60542 0.0
N764 N 0.02421 0.78173 0.61786 0.0
C765 C 1.02022 0.80485 0.61855 0.0
C766 C 0.07287 0.80976 0.59251 0.0
Eu767 Eu 0.99339 0.7559 0.64455 0.0
N768 N 0.03508 0.73532 0.61949 0.0
C769 C 0.03938 0.71228 0.61939 0.0
C770 C 0.09361 0.71575 0.59451 0.0
C771 C 0.06836 0.70222 0.6068 0.0
H772 H 1.00077 0.81296 0.63058 0.0
H773 H 0.07147 0.68397 0.60687 0.0
H774 H 0.13695 0.74607 0.57198 0.0
H775 H 0.04012 0.83724 0.6061 0.0
H776 H 1.02141 0.7012 0.62918 0.0
H777 H 0.80796 0.79638 0.63918 0.0
H778 H 0.11614 0.70783 0.58486 0.0
H779 H 0.91061 0.68204 0.59977 0.0
H780 H 0.86621 0.7866 0.62127 0.0
H781 H 0.86907 0.65078 0.60962 0.0
H782 H 0.12775 0.78716 0.57101 0.0
H783 H 0.76867 0.76649 0.65667 0.0
H784 H 0.75563 0.72559 0.66208 0.0
H785 H 0.09141 0.82089 0.58267 0.0
H786 H 0.77206 0.68601 0.65392 0.0
N787 N 0.86254 0.7511 0.6293 0.0
C788 C 0.85069 0.77314 0.62933 0.0
C789 C 0.79454 0.76196 0.64859 0.0
C790 C 0.80539 0.73933 0.64698 0.0
C791 C 0.81678 0.77887 0.63899 0.0
C792 C 0.83992 0.73418 0.63695 0.0
H793 H 0.81353 0.65818 0.63408 0.0
N794 N 0.88133 0.70674 0.62099 0.0
C795 C 0.86351 0.66765 0.61665 0.0
C796 C 0.84949 0.71157 0.63269 0.0
C797 C 0.88717 0.68541 0.61139 0.0
C798 C 0.83228 0.67192 0.63045 0.0
C799 C 0.8244 0.69408 0.63803 0.0
O800 O 0.90477 0.7189 0.57682 0.0
O801 O 0.97643 0.74837 0.60415 0.0
O802 O 0.9575 0.7864 0.64149 0.0
O803 O 0.92346 0.7773 0.60629 0.0
O804 O 0.95312 0.73354 0.57442 0.0
O805 O 0.87614 0.75144 0.58389 0.0
O806 O 0.02259 0.78196 0.66566 0.0
O807 O 0.93252 0.74894 0.65071 0.0
O808 O 0.93977 0.70806 0.63174 0.0
O809 O 0.98442 0.72034 0.65953 0.0
O810 O 0.96132 0.75567 0.68249 0.0
O811 O 0.04345 0.74746 0.66336 0.0
C812 C 0.98295 0.74332 0.58047 0.0
C813 C 0.85833 0.72941 0.54755 0.0
C814 C 0.85207 0.74021 0.50398 0.0
C815 C 0.86051 0.74575 0.52882 0.0
C816 C 0.83813 0.71861 0.49834 0.0
C817 C 0.84406 0.70793 0.54221 0.0
C818 C 0.83316 0.70275 0.51765 0.0
C819 C 0.93608 0.79221 0.62274 0.0
C820 C 0.8797 0.73321 0.56998 0.0
C821 C 0.79125 0.69929 0.64943 0.0
C822 C 0.78185 0.72182 0.654 0.0
C823 C 0.92828 0.75128 0.67533 0.0
C824 C 0.07027 0.77157 0.69288 0.0
C825 C 0.0628 0.75797 0.71343 0.0
C826 C 0.07939 0.76248 0.73633 0.0
C827 C 0.10673 0.77887 0.73811 0.0
C828 C 0.09645 0.78869 0.6945 0.0
C829 C 0.11517 0.79205 0.71708 0.0
C830 C 0.96213 0.70459 0.65095 0.0
C831 C 0.04982 0.7684 0.67002 0.0
H832 H 0.872 0.76223 0.53317 0.0
H833 H 0.83139 0.71405 0.47913 0.0
H834 H 0.84291 0.69498 0.55669 0.0
H835 H 0.82248 0.68611 0.51338 0.0
H836 H 0.04111 0.74556 0.7124 0.0
H837 H 0.11923 0.78271 0.75609 0.0
H838 H 0.10234 0.79937 0.6784 0.0
H839 H 0.13547 0.8052 0.71846 0.0
Eu840 Eu 0.37743 0.73853 0.76869 0.0
C841 C 0.23881 0.77165 0.77315 0.0
C842 C 0.20438 0.73839 0.78618 0.0
C843 C 0.18429 0.77585 0.7987 0.0
C844 C 0.23409 0.74801 0.77322 0.0
C845 C 0.21367 0.78559 0.78601 0.0
C846 C 0.1796 0.7524 0.79871 0.0
C847 C 0.24623 0.81841 0.77144 0.0
N848 N 0.26719 0.78104 0.7604 0.0
C849 C 0.26969 0.80419 0.75829 0.0
C850 C 0.21828 0.80909 0.78553 0.0
Eu851 Eu 0.2995 0.75447 0.73544 0.0
N852 N 0.25889 0.73439 0.76156 0.0
C853 C 0.25523 0.71132 0.76223 0.0
C854 C 0.20057 0.71483 0.78663 0.0
C855 C 0.22623 0.70127 0.77475 0.0
H856 H 0.28807 0.81221 0.74538 0.0
H857 H 0.22345 0.68301 0.77497 0.0
H858 H 0.15679 0.7452 0.80872 0.0
H859 H 0.24887 0.83663 0.76986 0.0
H860 H 0.27359 0.7003 0.75266 0.0
H861 H 0.47382 0.7933 0.71874 0.0
H862 H 0.17809 0.70691 0.79631 0.0
H863 H 0.3869 0.68315 0.78471 0.0
H864 H 0.42014 0.7849 0.74333 0.0
H865 H 0.4278 0.65121 0.7754 0.0
H866 H 0.16486 0.78638 0.80855 0.0
H867 H 0.51451 0.76241 0.70539 0.0
H868 H 0.52953 0.72122 0.70539 0.0
H869 H 0.19964 0.82024 0.79527 0.0
H870 H 0.51626 0.6826 0.71989 0.0
N871 N 0.42804 0.74907 0.74376 0.0
C872 C 0.43653 0.77095 0.73754 0.0
C873 C 0.49049 0.75846 0.71623 0.0
C874 C 0.4825 0.73617 0.72319 0.0
C875 C 0.46755 0.77592 0.72363 0.0
C876 C 0.45072 0.73185 0.73724 0.0
H877 H 0.47918 0.65655 0.74624 0.0
N878 N 0.41317 0.70604 0.75955 0.0
C879 C 0.43214 0.66749 0.7665 0.0
C880 C 0.44298 0.70985 0.74516 0.0
C881 C 0.40899 0.68562 0.77162 0.0
C882 C 0.46104 0.67058 0.75003 0.0
C883 C 0.46727 0.69201 0.7396 0.0
O884 O 0.39247 0.7227 0.8035 0.0
O885 O 0.3192 0.75015 0.77597 0.0
O886 O 0.33286 0.78617 0.73858 0.0
O887 O 0.37124 0.77713 0.77182 0.0
O888 O 0.3406 0.73055 0.8033 0.0
O889 O 0.42158 0.75367 0.79121 0.0
O890 O 0.26471 0.77665 0.71294 0.0
O891 O 0.35976 0.74734 0.72841 0.0
O892 O 0.35501 0.70657 0.74962 0.0
O893 O 0.31104 0.71874 0.72139 0.0
O894 O 0.3318 0.75846 0.69784 0.0
O895 O 0.25162 0.74094 0.71772 0.0
C896 C 0.31155 0.74178 0.79823 0.0
C897 C 0.44232 0.73336 0.82863 0.0
C898 C 0.44267 0.73685 0.87396 0.0
C899 C 0.43497 0.74582 0.8502 0.0
C900 C 0.4623 0.71644 0.87575 0.0
C901 C 0.46175 0.71299 0.83029 0.0
C902 C 0.47268 0.70491 0.85387 0.0
C903 C 0.35567 0.79207 0.75656 0.0
C904 C 0.41788 0.73742 0.80786 0.0
C905 C 0.49777 0.6962 0.72465 0.0
C906 C 0.50539 0.7182 0.71648 0.0
C907 C 0.36418 0.75179 0.70428 0.0
C908 C 0.2223 0.75994 0.68571 0.0
C909 C 0.2416 0.75412 0.66448 0.0
C910 C 0.22452 0.75429 0.64121 0.0
C911 C 0.18721 0.75862 0.63936 0.0
C912 C 0.1851 0.76419 0.68433 0.0
C913 C 0.16743 0.76334 0.66106 0.0
C914 C 0.33285 0.70288 0.73042 0.0
C915 C 0.24077 0.76062 0.70948 0.0
H916 H 0.41964 0.76146 0.8485 0.0
H917 H 0.46868 0.70907 0.89392 0.0
H918 H 0.46641 0.70275 0.81364 0.0
H919 H 0.48722 0.68902 0.85529 0.0
H920 H 0.27036 0.75047 0.66595 0.0
H921 H 0.17381 0.75922 0.62119 0.0
H922 H 0.1701 0.76785 0.70126 0.0
H923 H 0.13875 0.76666 0.65964 0.0
Eu924 Eu 0.90866 0.51265 0.76733 0.0
C925 C 0.04573 0.47967 0.77851 0.0
C926 C 0.08126 0.51288 0.79012 0.0
C927 C 0.09818 0.47592 0.80626 0.0
C928 C 0.05183 0.50314 0.77689 0.0
C929 C 0.06931 0.46602 0.79316 0.0
C930 C 0.10413 0.49921 0.80474 0.0
C931 C 0.03638 0.43303 0.7796 0.0
N932 N 1.01769 0.47009 0.76554 0.0
C933 C 1.01432 0.44692 0.7649 0.0
C934 C 0.06377 0.44262 0.794 0.0
Eu935 Eu 0.98878 0.49553 0.73721 0.0
N936 N 0.02898 0.51647 0.76301 0.0
C937 C 0.03503 0.53931 0.76124 0.0
C938 C 0.08678 0.53627 0.78865 0.0
C939 C 0.0635 0.5495 0.77423 0.0
H940 H 0.99668 0.43854 0.75179 0.0
H941 H 0.06796 0.56758 0.77263 0.0
H942 H 0.1266 0.50654 0.81503 0.0
H943 H 0.03316 0.4148 0.77899 0.0
H944 H 1.01953 0.55 0.74909 0.0
H945 H 0.81772 0.4587 0.71198 0.0
H946 H 0.10901 0.54427 0.79857 0.0
H947 H 0.89928 0.56876 0.78119 0.0
H948 H 0.86834 0.4666 0.74014 0.0
H949 H 0.86317 0.60137 0.76645 0.0
H950 H 0.11636 0.46563 0.81753 0.0
H951 H 0.78237 0.49019 0.69373 0.0
H952 H 0.77084 0.53157 0.6905 0.0
H953 H 0.08135 0.4317 0.80499 0.0
H954 H 0.78422 0.57026 0.70434 0.0
N955 N 0.86414 0.50257 0.73722 0.0
C956 C 0.85442 0.48069 0.73186 0.0
C957 C 0.80517 0.49388 0.70592 0.0
C958 C 0.81422 0.51621 0.71207 0.0
C959 C 0.82508 0.47606 0.71612 0.0
C960 C 0.84409 0.52025 0.7282 0.0
H961 H 0.81841 0.59635 0.73234 0.0
N962 N 0.87839 0.54602 0.75353 0.0
C963 C 0.86004 0.585 0.75752 0.0
C964 C 0.85172 0.54238 0.73618 0.0
C965 C 0.88064 0.56655 0.76562 0.0
C966 C 0.83488 0.58208 0.73825 0.0
C967 C 0.82952 0.56051 0.72796 0.0
O968 O 0.87854 0.52882 0.79794 0.0
O969 O 0.96783 0.50404 0.77657 0.0
O970 O 0.9535 0.46475 0.74044 0.0
O971 O 0.91494 0.47437 0.77317 0.0
O972 O 0.93976 0.51621 0.80595 0.0
O973 O 0.85893 0.49771 0.78084 0.0
O974 O 0.02226 0.47025 0.71839 0.0
O975 O 0.92911 0.5026 0.72814 0.0
O976 O 0.93717 0.54411 0.7516 0.0
O977 O 0.97797 0.53087 0.72178 0.0
O978 O 0.95924 0.49224 0.69823 0.0
O979 O 0.03855 0.50566 0.71875 0.0
C980 C 0.97156 0.50815 0.80073 0.0
C981 C 0.83353 0.50803 0.81928 0.0
C982 C 0.82997 0.48489 0.85663 0.0
C983 C 0.84678 0.49032 0.83389 0.0
C984 C 0.79789 0.49616 0.86354 0.0
C985 C 0.80213 0.51968 0.82644 0.0
C986 C 0.78399 0.51346 0.8484 0.0
C987 C 0.93054 0.45916 0.75838 0.0
C988 C 0.85203 0.51426 0.79635 0.0
C989 C 0.80128 0.55649 0.71086 0.0
C990 C 0.79358 0.53444 0.70302 0.0
C991 C 0.92644 0.4986 0.70382 0.0
C992 C 0.06875 0.48138 0.69106 0.0
C993 C 0.05448 0.48863 0.6684 0.0
C994 C 0.07269 0.48402 0.6461 0.0
C995 C 0.10678 0.47343 0.64663 0.0
C996 C 0.10248 0.47047 0.69197 0.0
C997 C 0.12172 0.46675 0.66968 0.0
C998 C 0.95767 0.5472 0.73141 0.0
C999 C 0.04795 0.48481 0.71367 0.0
H1000 H 0.87148 0.4817 0.82829 0.0
H1001 H 0.78496 0.49264 0.88134 0.0
H1002 H 0.7915 0.53333 0.8149 0.0
H1003 H 0.75975 0.52243 0.85404 0.0
H1004 H 0.02845 0.49723 0.6681 0.0
H1005 H 0.12112 0.46969 0.62932 0.0
H1006 H 0.11372 0.4648 0.70977 0.0
H1007 H 0.14771 0.45828 0.67022 0.0
Eu1008 Eu 0.73915 0.50544 0.48456 0.0
C1009 C 0.59389 0.45925 0.50705 0.0
C1010 C 0.54947 0.48874 0.49916 0.0
C1011 C 0.52962 0.45031 0.50799 0.0
C1012 C 0.5857 0.48168 0.50105 0.0
C1013 C 0.56574 0.44323 0.50976 0.0
C1014 C 0.5216 0.47312 0.50369 0.0
C1015 C 0.61019 0.41536 0.52186 0.0
N1016 N 0.62875 0.4536 0.51242 0.0
C1017 C 0.63665 0.4322 0.52105 0.0
C1018 C 0.57447 0.42091 0.51622 0.0
Eu1019 Eu 0.66597 0.48587 0.51972 0.0
N1020 N 0.61293 0.49699 0.49886 0.0
C1021 C 0.60621 0.51855 0.49078 0.0
C1022 C 0.5425 0.51157 0.49389 0.0
C1023 C 0.5708 0.52624 0.48834 0.0
H1024 H 0.66296 0.4285 0.52898 0.0
H1025 H 0.56539 0.54369 0.48321 0.0
H1026 H 0.49373 0.47844 0.50436 0.0
H1027 H 0.61696 0.3985 0.52841 0.0
H1028 H 0.62787 0.53021 0.48701 0.0
H1029 H 0.81494 0.43658 0.52996 0.0
H1030 H 0.51552 0.5181 0.49388 0.0
H1031 H 0.75755 0.5622 0.48242 0.0
H1032 H 0.76506 0.45276 0.50566 0.0
H1033 H 0.80112 0.58854 0.50138 0.0
H1034 H 0.50766 0.43847 0.5111 0.0
H1035 H 0.86061 0.46163 0.54932 0.0
H1036 H 0.88237 0.5006 0.55833 0.0
H1037 H 0.55359 0.40815 0.51827 0.0
H1038 H 0.87699 0.54167 0.55223 0.0
N1039 N 0.78131 0.48708 0.51101 0.0
C1040 C 0.78428 0.4641 0.51393 0.0
C1041 C 0.83861 0.46897 0.53851 0.0
C1042 C 0.83558 0.49246 0.53556 0.0
C1043 C 0.81283 0.45477 0.52771 0.0
C1044 C 0.80643 0.50133 0.52132 0.0
H1045 H 0.84742 0.57435 0.53103 0.0
N1046 N 0.77559 0.53353 0.50369 0.0
C1047 C 0.8015 0.57082 0.50669 0.0
C1048 C 0.80304 0.52491 0.51806 0.0
C1049 C 0.7763 0.55584 0.49644 0.0
C1050 C 0.82764 0.56271 0.5233 0.0
C1051 C 0.82929 0.53951 0.52866 0.0
O1052 O 0.77046 0.52515 0.45714 0.0
O1053 O 0.6786 0.49707 0.47888 0.0
O1054 O 0.68863 0.45528 0.49846 0.0
O1055 O 0.72924 0.46972 0.46935 0.0
O1056 O 0.70347 0.51083 0.44862 0.0
O1057 O 0.78733 0.49104 0.46813 0.0
O1058 O 0.65457 0.46649 0.55322 0.0
O1059 O 0.72481 0.49663 0.52514 0.0
O1060 O 0.71016 0.53753 0.49726 0.0
O1061 O 0.6654 0.52447 0.52448 0.0
O1062 O 0.70228 0.48203 0.55529 0.0
O1063 O 0.62507 0.49878 0.5461 0.0
C1064 C 0.67208 0.5026 0.45511 0.0
C1065 C 0.82082 0.50847 0.43641 0.0
C1066 C 0.82801 0.49983 0.3928 0.0
C1067 C 0.80917 0.49714 0.41522 0.0
C1068 C 0.86238 0.51003 0.39281 0.0
C1069 C 0.85466 0.5192 0.43686 0.0
C1070 C 0.87604 0.51928 0.41514 0.0
C1071 C 0.70952 0.45288 0.47842 0.0
C1072 C 0.79653 0.51008 0.45746 0.0
C1073 C 0.85717 0.53059 0.5436 0.0
C1074 C 0.8604 0.50719 0.54693 0.0
C1075 C 0.73131 0.49254 0.5491 0.0
C1076 C 0.60829 0.47609 0.58254 0.0
C1077 C 0.61076 0.49169 0.60199 0.0
C1078 C 0.60258 0.4852 0.62661 0.0
C1079 C 0.58871 0.4634 0.63132 0.0
C1080 C 0.59403 0.45444 0.58698 0.0
C1081 C 0.58349 0.4483 0.61133 0.0
C1082 C 0.68394 0.5411 0.51375 0.0
C1083 C 0.62942 0.48067 0.5602 0.0
H1084 H 0.78266 0.48914 0.41523 0.0
H1085 H 0.87714 0.51245 0.37539 0.0
H1086 H 0.86407 0.5278 0.45368 0.0
H1087 H 0.90199 0.52777 0.41516 0.0
H1088 H 0.62205 0.50836 0.59828 0.0
H1089 H 0.58204 0.45813 0.65031 0.0
H1090 H 0.59261 0.44206 0.57194 0.0
H1091 H 0.57283 0.43152 0.61489 0.0
Eu1092 Eu 0.05572 0.24156 0.48466 0.0
C1093 C 0.19627 0.29184 0.50941 0.0
C1094 C 0.24373 0.26422 0.50163 0.0
C1095 C 0.25953 0.3033 0.51077 0.0
C1096 C 0.20676 0.26977 0.50349 0.0
C1097 C 0.22274 0.30894 0.51229 0.0
C1098 C 0.2699 0.28089 0.50644 0.0
C1099 C 0.17546 0.33501 0.52403 0.0
N1100 N 0.16084 0.29616 0.51446 0.0
C1101 C 0.15072 0.31718 0.52304 0.0
C1102 C 0.21172 0.33087 0.51865 0.0
Eu1103 Eu 0.12618 0.26274 0.52099 0.0
N1104 N 0.18112 0.25339 0.50126 0.0
C1105 C 0.19028 0.23203 0.49367 0.0
C1106 C 0.25327 0.24183 0.49605 0.0
C1107 C 0.22648 0.22593 0.49095 0.0
H1108 H 0.12388 0.31983 0.53058 0.0
H1109 H 0.23372 0.20875 0.4858 0.0
H1110 H 0.29827 0.27663 0.50741 0.0
H1111 H 0.16695 0.35159 0.53046 0.0
H1112 H 0.17014 0.21941 0.49015 0.0
H1113 H 0.96291 0.31279 0.50415 0.0
H1114 H 0.28111 0.23661 0.49548 0.0
H1115 H 0.05156 0.18644 0.50668 0.0
H1116 H 1.01519 0.29518 0.48542 0.0
H1117 H 1.01423 0.16415 0.53458 0.0
H1118 H 0.28021 0.31597 0.51408 0.0
H1119 H 0.92198 0.29068 0.53126 0.0
H1120 H 0.90645 0.25424 0.55163 0.0
H1121 H 0.23127 0.34442 0.5208 0.0
H1122 H 0.92046 0.21444 0.56009 0.0
N1123 N 1.00858 0.26303 0.50378 0.0
C1124 C 0.99997 0.28511 0.49835 0.0
C1125 C 0.94604 0.28272 0.52363 0.0
C1126 C 0.95382 0.25998 0.52851 0.0
C1127 C 0.96921 0.2953 0.50852 0.0
C1128 C 0.98568 0.25029 0.51828 0.0
H1129 H 0.96069 0.18125 0.55465 0.0
N1130 N 0.025 0.21811 0.51413 0.0
C1131 C 1.00875 0.18206 0.53225 0.0
C1132 C 0.99405 0.22752 0.52355 0.0
C1133 C 0.03116 0.19531 0.51716 0.0
C1134 C 0.97835 0.19171 0.54324 0.0
C1135 C 0.97022 0.21446 0.53859 0.0
O1136 O 0.03295 0.21145 0.46654 0.0
O1137 O 0.11614 0.25108 0.47987 0.0
O1138 O 0.10239 0.29245 0.49864 0.0
O1139 O 0.06456 0.27702 0.46804 0.0
O1140 O 0.09083 0.23967 0.44832 0.0
O1141 O 1.00745 0.24451 0.46184 0.0
O1142 O 0.13642 0.28153 0.55478 0.0
O1143 O 0.06742 0.25181 0.52515 0.0
O1144 O 0.09341 0.21238 0.49188 0.0
O1145 O 0.1251 0.22426 0.52704 0.0
O1146 O 0.08766 0.26805 0.55514 0.0
O1147 O 0.16719 0.24974 0.54773 0.0
C1148 C 0.12256 0.24668 0.45576 0.0
C1149 C 0.98484 0.21424 0.43689 0.0
C1150 C 0.96847 0.21979 0.39348 0.0
C1151 C 0.97824 0.22868 0.41682 0.0
C1152 C 0.95733 0.19703 0.39187 0.0
C1153 C 0.97394 0.19151 0.43555 0.0
C1154 C 0.95898 0.18314 0.41322 0.0
C1155 C 0.08274 0.29435 0.47784 0.0
C1156 C 1.00466 0.2226 0.45863 0.0
C1157 C 0.93878 0.22427 0.54849 0.0
C1158 C 0.93071 0.24692 0.54356 0.0
C1159 C 0.05907 0.25728 0.54843 0.0
C1160 C 0.18298 0.27325 0.58407 0.0
C1161 C 0.18133 0.25834 0.60424 0.0
C1162 C 0.18907 0.26589 0.6286 0.0
C1163 C 0.20137 0.28818 0.63231 0.0
C1164 C 0.19617 0.29532 0.58754 0.0
C1165 C 0.20605 0.3026 0.61163 0.0
C1166 C 0.11344 0.2081 0.51185 0.0
C1167 C 0.16175 0.26759 0.56202 0.0
H1168 H 0.98507 0.2465 0.41845 0.0
H1169 H 0.94968 0.18959 0.374 0.0
H1170 H 0.97771 0.18024 0.45148 0.0
H1171 H 0.95096 0.16554 0.41198 0.0
H1172 H 0.17101 0.24132 0.60125 0.0
H1173 H 0.20745 0.29434 0.65107 0.0
H1174 H 0.19707 0.30716 0.57194 0.0
H1175 H 0.21574 0.31972 0.61443 0.0
Eu1176 Eu 0.73657 0.24254 0.39184 0.0
C1177 C 0.59949 0.29021 0.39273 0.0
C1178 C 0.56168 0.26267 0.41465 0.0
C1179 C 0.54704 0.30269 0.41697 0.0
C1180 C 0.59207 0.26768 0.39942 0.0
C1181 C 0.57631 0.30775 0.40113 0.0
C1182 C 0.53973 0.28028 0.42366 0.0
C1183 C 0.6088 0.33396 0.37459 0.0
N1184 N 0.62739 0.29488 0.3767 0.0
C1185 C 0.63031 0.31608 0.36617 0.0
C1186 C 0.58203 0.32985 0.39245 0.0
Eu1187 Eu 0.65793 0.26227 0.3613 0.0
N1188 N 0.61352 0.25062 0.39058 0.0
C1189 C 0.60559 0.22846 0.39591 0.0
C1190 C 0.55382 0.24003 0.42026 0.0
C1191 C 0.5758 0.22288 0.41079 0.0
H1192 H 0.64966 0.31918 0.35126 0.0
H1193 H 0.56987 0.20531 0.41496 0.0
H1194 H 0.51643 0.27667 0.43539 0.0
H1195 H 0.61231 0.35079 0.36684 0.0
H1196 H 0.62216 0.21493 0.38904 0.0
H1197 H 0.81706 0.31251 0.35304 0.0
H1198 H 0.53067 0.23561 0.43177 0.0
H1199 H 0.75463 0.18599 0.39028 0.0
H1200 H 0.76679 0.29602 0.37578 0.0
H1201 H 0.79628 0.16009 0.36895 0.0
H1202 H 0.52912 0.31599 0.42353 0.0
H1203 H 0.86014 0.28797 0.33039 0.0
H1204 H 0.87947 0.24942 0.31763 0.0
H1205 H 0.56481 0.34368 0.39854 0.0
H1206 H 0.87219 0.20827 0.32036 0.0
N1207 N 0.77849 0.26179 0.36562 0.0
C1208 C 0.78377 0.28475 0.36547 0.0
C1209 C 0.83737 0.28043 0.34014 0.0
C1210 C 0.83227 0.25697 0.3403 0.0
C1211 C 0.81305 0.29434 0.35278 0.0
C1212 C 0.80236 0.24782 0.35352 0.0
H1213 H 0.84137 0.175 0.33903 0.0
N1214 N 0.77124 0.21529 0.36956 0.0
C1215 C 0.79658 0.17796 0.36433 0.0
C1216 C 0.79814 0.22422 0.35503 0.0
C1217 C 0.77229 0.19275 0.37587 0.0
C1218 C 0.82199 0.18647 0.34754 0.0
C1219 C 0.82394 0.20984 0.34342 0.0
O1220 O 0.76572 0.22014 0.41739 0.0
O1221 O 0.67725 0.25105 0.40063 0.0
O1222 O 0.68827 0.29299 0.37666 0.0
O1223 O 0.7267 0.27832 0.40715 0.0
O1224 O 0.70531 0.23751 0.42981 0.0
O1225 O 0.78696 0.25382 0.40895 0.0
O1226 O 0.63058 0.28029 0.33065 0.0
O1227 O 0.71693 0.25253 0.35259 0.0
O1228 O 0.7058 0.21096 0.37902 0.0
O1229 O 0.66005 0.2244 0.35276 0.0
O1230 O 0.68973 0.26496 0.3229 0.0
O1231 O 0.60625 0.25045 0.34758 0.0
C1232 C 0.67367 0.24599 0.42467 0.0
C1233 C 0.81721 0.23225 0.43976 0.0
C1234 C 0.8248 0.23557 0.48437 0.0
C1235 C 0.80482 0.23994 0.4627 0.0
C1236 C 0.85906 0.22531 0.48277 0.0
C1237 C 0.85103 0.22156 0.43776 0.0
C1238 C 0.87226 0.21845 0.45932 0.0
C1239 C 0.70803 0.29537 0.39729 0.0
C1240 C 0.79357 0.23375 0.41828 0.0
C1241 C 0.8524 0.21913 0.32939 0.0
C1242 C 0.85665 0.24257 0.32795 0.0
C1243 C 0.72115 0.25647 0.32844 0.0
C1244 C 0.58675 0.26017 0.30769 0.0
C1245 C 0.60322 0.243 0.29392 0.0
C1246 C 0.58909 0.23662 0.27062 0.0
C1247 C 0.55718 0.24701 0.26183 0.0
C1248 C 0.55467 0.27026 0.29917 0.0
C1249 C 0.53972 0.26351 0.27625 0.0
C1250 C 0.67933 0.20764 0.36256 0.0
C1251 C 0.6024 0.26692 0.33144 0.0
H1252 H 0.77846 0.24806 0.46386 0.0
H1253 H 0.87468 0.22174 0.49962 0.0
H1254 H 0.8606 0.21535 0.41974 0.0
H1255 H 0.89826 0.21006 0.45797 0.0
H1256 H 0.6278 0.23517 0.30103 0.0
H1257 H 0.54694 0.2432 0.24332 0.0
H1258 H 0.54141 0.28333 0.31017 0.0
H1259 H 0.51525 0.27149 0.26933 0.0
Eu1260 Eu 0.05511 0.50519 0.39376 0.0
C1261 C 0.19297 0.45826 0.39118 0.0
C1262 C 0.23182 0.48465 0.4139 0.0
C1263 C 0.2462 0.44456 0.41389 0.0
C1264 C 0.20077 0.48042 0.39895 0.0
C1265 C 0.21632 0.4403 0.39827 0.0
C1266 C 0.25394 0.46662 0.42163 0.0
C1267 C 0.18287 0.41543 0.37075 0.0
N1268 N 0.16463 0.45443 0.37524 0.0
C1269 C 0.16119 0.43372 0.36365 0.0
C1270 C 0.21021 0.41865 0.38844 0.0
Eu1271 Eu 0.13344 0.48771 0.36209 0.0
N1272 N 0.17935 0.49791 0.39112 0.0
C1273 C 0.18858 0.51982 0.39672 0.0
C1274 C 0.24035 0.50699 0.42035 0.0
C1275 C 0.21876 0.52463 0.41157 0.0
H1276 H 0.14121 0.43132 0.34895 0.0
H1277 H 0.22566 0.54203 0.41592 0.0
H1278 H 0.27773 0.46966 0.43311 0.0
H1279 H 0.179 0.39899 0.36213 0.0
H1280 H 0.17356 0.53386 0.38944 0.0
H1281 H 0.96677 0.4315 0.37593 0.0
H1282 H 0.264 0.51083 0.43167 0.0
H1283 H 0.04849 0.55923 0.36953 0.0
H1284 H 1.01627 0.45115 0.39559 0.0
H1285 H 1.01026 0.58005 0.34081 0.0
H1286 H 0.26426 0.43095 0.41943 0.0
H1287 H 0.92644 0.45152 0.3464 0.0
H1288 H 0.90905 0.48705 0.32483 0.0
H1289 H 0.22754 0.40453 0.39351 0.0
H1290 H 0.92091 0.52689 0.31517 0.0
N1291 N 1.0107 0.48183 0.37405 0.0
C1292 C 1.00232 0.46002 0.38092 0.0
C1293 C 0.94989 0.46019 0.35399 0.0
C1294 C 0.95676 0.48284 0.34813 0.0
C1295 C 0.97275 0.44878 0.37045 0.0
C1296 C 0.98793 0.49346 0.3583 0.0
H1297 H 0.9586 0.56117 0.32035 0.0
N1298 N 0.02458 0.52676 0.36245 0.0
C1299 C 1.00617 0.56201 0.34332 0.0
C1300 C 0.99484 0.51629 0.35256 0.0
C1301 C 0.02917 0.54963 0.35895 0.0
C1302 C 0.97686 0.55136 0.33208 0.0
C1303 C 0.97044 0.52845 0.33694 0.0
O1304 O 0.02844 0.53465 0.41032 0.0
O1305 O 0.11507 0.49778 0.40194 0.0
O1306 O 0.10413 0.45625 0.37737 0.0
O1307 O 0.06697 0.46983 0.40918 0.0
O1308 O 0.08522 0.50733 0.43241 0.0
O1309 O 1.00565 0.50086 0.41502 0.0
O1310 O 0.16138 0.47067 0.33125 0.0
O1311 O 0.07393 0.49622 0.35416 0.0
O1312 O 0.09059 0.53587 0.38899 0.0
O1313 O 0.12798 0.52599 0.35581 0.0
O1314 O 0.10111 0.48475 0.32401 0.0
O1315 O 0.18222 0.5024 0.34633 0.0
C1316 C 0.11805 0.50144 0.42636 0.0
C1317 C 0.9811 0.53047 0.43988 0.0
C1318 C 0.96442 0.52499 0.48329 0.0
C1319 C 0.97751 0.51636 0.46061 0.0
C1320 C 0.94947 0.54697 0.48382 0.0
C1321 C 0.96633 0.55236 0.44029 0.0
C1322 C 0.94968 0.56036 0.46212 0.0
C1323 C 0.08505 0.45311 0.39821 0.0
C1324 C 1.00093 0.52267 0.41796 0.0
C1325 C 0.9398 0.5177 0.32704 0.0
C1326 C 0.93302 0.49502 0.33258 0.0
C1327 C 0.06934 0.49225 0.33009 0.0
C1328 C 0.20564 0.49 0.30775 0.0
C1329 C 0.19003 0.50507 0.29073 0.0
C1330 C 0.20751 0.50978 0.268 0.0
C1331 C 0.24095 0.49938 0.26267 0.0
C1332 C 0.23898 0.47971 0.30248 0.0
C1333 C 0.25668 0.48447 0.27993 0.0
C1334 C 0.11293 0.54136 0.37064 0.0
C1335 C 0.18798 0.4852 0.33141 0.0
H1336 H 0.98761 0.49912 0.45968 0.0
H1337 H 0.93949 0.55435 0.50115 0.0
H1338 H 0.96813 0.56327 0.4239 0.0
H1339 H 0.93862 0.57735 0.46261 0.0
H1340 H 0.16428 0.51297 0.29516 0.0
H1341 H 0.25433 0.50227 0.24489 0.0
H1342 H 0.25129 0.46811 0.31584 0.0
H1343 H 0.28234 0.47645 0.2757 0.0
Eu1344 Eu 0.88275 0.01155 0.61317 0.0
C1345 C 0.74151 0.98107 0.60794 0.0
C1346 C 0.7109 0.01551 0.59432 0.0
C1347 C 0.6842 0.97884 0.58529 0.0
C1348 C 0.73956 0.00483 0.60737 0.0
C1349 C 0.71341 0.96802 0.59709 0.0
C1350 C 0.68367 0.00241 0.58319 0.0
C1351 C 0.7467 0.93415 0.60764 0.0
N1352 N 0.7713 0.97073 0.61795 0.0
C1353 C 0.77409 0.94755 0.61789 0.0
C1354 C 0.71609 0.94439 0.59742 0.0
Eu1355 Eu 0.80584 0.99525 0.64361 0.0
N1356 N 0.76671 0.01739 0.61788 0.0
C1357 C 0.76759 0.0404 0.61445 0.0
C1358 C 0.71092 0.0391 0.59197 0.0
C1359 C 0.73969 0.05152 0.6017 0.0
H1360 H 0.79579 0.93889 0.62735 0.0
H1361 H 0.74052 0.06974 0.59927 0.0
H1362 H 0.6623 0.01042 0.57249 0.0
H1363 H 0.74885 0.91586 0.60821 0.0
H1364 H 0.78974 0.05055 0.62072 0.0
H1365 H 0.97931 0.96875 0.67499 0.0
H1366 H 0.68934 0.04782 0.58207 0.0
H1367 H 0.88168 0.06538 0.59092 0.0
H1368 H 0.92697 0.97107 0.64624 0.0
H1369 H 0.91761 0.10049 0.59676 0.0
H1370 H 0.66262 0.96908 0.57672 0.0
H1371 H 1.01116 0.00368 0.68773 0.0
H1372 H 1.019 0.0458 0.683 0.0
H1373 H 0.69487 0.9339 0.58952 0.0
H1374 H 1.00458 0.08087 0.66031 0.0
N1375 N 0.9296 0.00698 0.64254 0.0
C1376 C 0.94102 0.98639 0.65141 0.0
C1377 C 0.98881 0.00477 0.67454 0.0
C1378 C 0.97847 0.02562 0.664 0.0
C1379 C 0.97078 0.98499 0.66756 0.0
C1380 C 0.94867 0.02623 0.6474 0.0
H1381 H 0.96767 0.1012 0.62775 0.0
N1382 N 0.91069 0.04698 0.61895 0.0
C1383 C 0.92378 0.08551 0.60776 0.0
C1384 C 0.93942 0.04653 0.63513 0.0
C1385 C 0.90347 0.06576 0.60456 0.0
C1386 C 0.9521 0.08581 0.62524 0.0
C1387 C 0.96034 0.06621 0.63907 0.0
O1388 O 0.9129 0.02341 0.58024 0.0
O1389 O 0.82646 0.9971 0.60211 0.0
O1390 O 0.8402 0.96374 0.6415 0.0
O1391 O 0.87911 0.97317 0.60913 0.0
O1392 O 0.84452 0.0236 0.5807 0.0
O1393 O 0.93102 0.99379 0.60083 0.0
O1394 O 0.77509 0.96963 0.66401 0.0
O1395 O 0.86511 0.00256 0.65305 0.0
O1396 O 0.86335 0.04201 0.63652 0.0
O1397 O 0.81172 0.03124 0.65811 0.0
O1398 O 0.83499 0.99262 0.68287 0.0
O1399 O 0.75576 0.00445 0.66235 0.0
C1400 C 0.8182 0.00907 0.58204 0.0
C1401 C 0.95717 0.00014 0.56153 0.0
C1402 C 0.95531 0.9787 0.52293 0.0
C1403 C 0.93992 0.9846 0.54605 0.0
C1404 C 0.99001 0.98684 0.51682 0.0
C1405 C 0.99169 0.00829 0.55548 0.0
C1406 C 1.00837 0.00129 0.53325 0.0
C1407 C 0.86423 0.95809 0.62429 0.0
C1408 C 0.93877 0.00862 0.58357 0.0
C1409 C 0.98878 0.06577 0.65659 0.0
C1410 C 0.99728 0.0457 0.66935 0.0
C1411 C 0.8678 0.99889 0.67745 0.0
C1412 C 0.72748 0.9799 0.69083 0.0
C1413 C 0.74045 0.98823 0.71339 0.0
C1414 C 0.72343 0.98226 0.73577 0.0
C1415 C 0.6911 0.96974 0.73534 0.0
C1416 C 0.69576 0.96693 0.69005 0.0
C1417 C 0.6772 0.96219 0.71236 0.0
C1418 C 0.83721 0.04619 0.65293 0.0
C1419 C 0.74828 0.98349 0.6683 0.0
H1420 H 0.9133 0.9784 0.55127 0.0
H1421 H 1.00194 0.98316 0.49878 0.0
H1422 H 1.00536 0.02025 0.56771 0.0
H1423 H 0.03477 0.00783 0.52823 0.0
H1424 H 0.76524 0.99811 0.71364 0.0
H1425 H 0.6778 0.96483 0.7527 0.0
H1426 H 0.68594 0.9602 0.67234 0.0
H1427 H 0.653 0.95191 0.71199 0.0
Eu1428 Eu 0.41223 0.23651 0.60856 0.0
C1429 C 0.54808 0.27865 0.61017 0.0
C1430 C 0.58407 0.2465 0.59581 0.0
C1431 C 0.6036 0.28478 0.58627 0.0
C1432 C 0.55342 0.25513 0.60859 0.0
C1433 C 0.57398 0.29353 0.59958 0.0
C1434 C 0.6085 0.26139 0.58429 0.0
C1435 C 0.54264 0.32492 0.61877 0.0
N1436 N 0.51926 0.28705 0.62327 0.0
C1437 C 0.51784 0.30971 0.62905 0.0
C1438 C 0.5704 0.31685 0.60354 0.0
Eu1439 Eu 0.48377 0.25896 0.64348 0.0
N1440 N 0.52911 0.24068 0.61945 0.0
C1441 C 0.53417 0.21772 0.61819 0.0
C1442 C 0.58941 0.22306 0.59484 0.0
C1443 C 0.56432 0.20864 0.60601 0.0
H1444 H 0.49763 0.31625 0.64187 0.0
H1445 H 0.56815 0.19046 0.60522 0.0
H1446 H 0.63168 0.25494 0.57405 0.0
H1447 H 0.54062 0.34283 0.62297 0.0
H1448 H 0.51541 0.2061 0.62645 0.0
H1449 H 0.31254 0.2957 0.64358 0.0
H1450 H 0.61271 0.2159 0.58532 0.0
H1451 H 0.41171 0.17745 0.60735 0.0
H1452 H 0.37517 0.28269 0.63911 0.0
H1453 H 0.3658 0.14771 0.61157 0.0
H1454 H 0.62343 0.296 0.57788 0.0
H1455 H 0.26303 0.26894 0.63628 0.0
H1456 H 0.24191 0.22845 0.63023 0.0
H1457 H 0.58986 0.3287 0.59582 0.0
H1458 H 0.2566 0.18831 0.62695 0.0
N1459 N 0.36057 0.24874 0.62999 0.0
C1460 C 0.35368 0.27066 0.63665 0.0
C1461 C 0.29016 0.26272 0.6361 0.0
C1462 C 0.29756 0.23969 0.6326 0.0
C1463 C 0.31823 0.27805 0.63961 0.0
C1464 C 0.33384 0.23292 0.6301 0.0
H1465 H 0.30272 0.15795 0.62165 0.0
N1466 N 0.37709 0.20421 0.6203 0.0
C1467 C 0.35894 0.1651 0.61597 0.0
C1468 C 0.3424 0.21009 0.62608 0.0
C1469 C 0.38516 0.18202 0.61432 0.0
C1470 C 0.32341 0.17096 0.62167 0.0
C1471 C 0.31455 0.19367 0.62593 0.0
O1472 O 0.39787 0.21328 0.57873 0.0
O1473 O 0.47099 0.2478 0.60331 0.0
O1474 O 0.45334 0.28933 0.62762 0.0
O1475 O 0.41005 0.27466 0.60023 0.0
O1476 O 0.44923 0.23277 0.57314 0.0
O1477 O 0.36809 0.24518 0.58277 0.0
O1478 O 0.50677 0.28271 0.67148 0.0
O1479 O 0.42371 0.24896 0.64908 0.0
O1480 O 0.4355 0.20802 0.63267 0.0
O1481 O 0.47881 0.22304 0.65946 0.0
O1482 O 0.44782 0.26324 0.67921 0.0
O1483 O 0.53265 0.25005 0.66261 0.0
C1484 C 0.47828 0.24321 0.57966 0.0
C1485 C 0.36189 0.22416 0.54451 0.0
C1486 C 0.35997 0.24004 0.50259 0.0
C1487 C 0.36802 0.24231 0.52823 0.0
C1488 C 0.34655 0.21937 0.4933 0.0
C1489 C 0.34764 0.20375 0.53529 0.0
C1490 C 0.34008 0.20136 0.5097 0.0
C1491 C 0.42805 0.29191 0.6102 0.0
C1492 C 0.37062 0.2256 0.57114 0.0
C1493 C 0.27839 0.20054 0.62813 0.0
C1494 C 0.26995 0.22351 0.63048 0.0
C1495 C 0.41703 0.25433 0.67284 0.0
C1496 C 0.5618 0.27217 0.69338 0.0
C1497 C 0.56715 0.25395 0.70947 0.0
C1498 C 0.58613 0.25692 0.73188 0.0
C1499 C 0.60599 0.27713 0.73541 0.0
C1500 C 0.58092 0.29238 0.69687 0.0
C1501 C 0.6041 0.29451 0.71752 0.0
C1502 C 0.45791 0.20614 0.65194 0.0
C1503 C 0.53548 0.26984 0.67341 0.0
H1504 H 0.37891 0.2581 0.53542 0.0
H1505 H 0.34078 0.21728 0.47341 0.0
H1506 H 0.3427 0.1896 0.54789 0.0
H1507 H 0.32934 0.18554 0.50259 0.0
H1508 H 0.55312 0.23814 0.70585 0.0
H1509 H 0.62088 0.28031 0.75262 0.0
H1510 H 0.5777 0.30641 0.68385 0.0
H1511 H 0.61887 0.31012 0.72047 0.0
Eu1512 Eu 0.88334 0.23864 0.76909 0.0
C1513 C 0.74711 0.27078 0.77941 0.0
C1514 C 0.71056 0.23754 0.78882 0.0
C1515 C 0.69368 0.27404 0.80616 0.0
C1516 C 0.74035 0.24753 0.77629 0.0
C1517 C 0.72338 0.2841 0.79425 0.0
C1518 C 0.68765 0.25084 0.80376 0.0
C1519 C 0.7598 0.31685 0.78495 0.0
N1520 N 0.77679 0.28035 0.76847 0.0
C1521 C 0.78237 0.30327 0.77033 0.0
C1522 C 0.73028 0.30724 0.79707 0.0
Eu1523 Eu 0.80628 0.25652 0.73901 0.0
N1524 N 0.76365 0.23453 0.76238 0.0
C1525 C 0.7585 0.21154 0.76099 0.0
C1526 C 0.70501 0.21422 0.78671 0.0
C1527 C 0.72927 0.20119 0.77297 0.0
H1528 H 0.80232 0.31186 0.75924 0.0
H1529 H 0.72544 0.18304 0.77151 0.0
H1530 H 0.6653 0.24324 0.81382 0.0
H1531 H 0.76457 0.33493 0.78617 0.0
H1532 H 0.77608 0.20054 0.75076 0.0
H1533 H 0.9796 0.28596 0.71105 0.0
H1534 H 0.68241 0.20606 0.79601 0.0
H1535 H 0.88572 0.18396 0.78815 0.0
H1536 H 0.92647 0.28125 0.73813 0.0
H1537 H 0.9235 0.1499 0.78075 0.0
H1538 H 0.6755 0.28403 0.81772 0.0
H1539 H 1.01555 0.25253 0.69841 0.0
H1540 H 0.02596 0.21078 0.70089 0.0
H1541 H 0.71263 0.31791 0.80825 0.0
H1542 H 1.01118 0.17408 0.72004 0.0
N1543 N 0.93088 0.24531 0.74038 0.0
C1544 C 0.94129 0.26643 0.73257 0.0
C1545 C 0.99193 0.2503 0.71023 0.0
C1546 C 0.98199 0.2288 0.719 0.0
C1547 C 0.97172 0.26921 0.7173 0.0
C1548 C 0.95123 0.22675 0.73463 0.0
H1549 H 0.97382 0.15144 0.75013 0.0
N1550 N 0.91363 0.2041 0.76113 0.0
C1551 C 0.92889 0.16541 0.77051 0.0
C1552 C 0.94252 0.20575 0.74528 0.0
C1553 C 0.90754 0.18462 0.77459 0.0
C1554 C 0.95729 0.16637 0.75321 0.0
C1555 C 0.9647 0.1867 0.74059 0.0
O1556 O 0.90871 0.22508 0.80311 0.0
O1557 O 0.82725 0.25314 0.78016 0.0
O1558 O 0.84313 0.2867 0.74065 0.0
O1559 O 0.87987 0.27707 0.77417 0.0
O1560 O 0.84344 0.22486 0.79949 0.0
O1561 O 0.93166 0.25448 0.78438 0.0
O1562 O 0.77926 0.28519 0.72101 0.0
O1563 O 0.86525 0.2483 0.72953 0.0
O1564 O 0.86288 0.20856 0.74609 0.0
O1565 O 0.81238 0.22062 0.72366 0.0
O1566 O 0.83491 0.25833 0.69969 0.0
O1567 O 0.75518 0.25161 0.71961 0.0
C1568 C 0.81792 0.23997 0.79889 0.0
C1569 C 0.95307 0.24596 0.82493 0.0
C1570 C 0.95538 0.26965 0.86189 0.0
C1571 C 0.93848 0.26339 0.83939 0.0
C1572 C 0.98753 0.25865 0.86932 0.0
C1573 C 0.98474 0.23482 0.83256 0.0
C1574 C 1.0022 0.24136 0.85464 0.0
C1575 C 0.86621 0.29225 0.7585 0.0
C1576 C 0.93586 0.23908 0.80172 0.0
C1577 C 0.99414 0.18859 0.72403 0.0
C1578 C 1.00253 0.2095 0.71309 0.0
C1579 C 0.86771 0.25193 0.70515 0.0
C1580 C 0.73145 0.27964 0.69234 0.0
C1581 C 0.73193 0.26554 0.67145 0.0
C1582 C 0.71784 0.2731 0.64852 0.0
C1583 C 0.69937 0.294 0.64752 0.0
C1584 C 0.71307 0.30041 0.69143 0.0
C1585 C 0.69645 0.30736 0.66911 0.0
C1586 C 0.83684 0.205 0.72944 0.0
C1587 C 0.75101 0.27321 0.71493 0.0
H1588 H 0.91361 0.27163 0.83344 0.0
H1589 H 1.00028 0.26269 0.88705 0.0
H1590 H 0.99608 0.22122 0.82131 0.0
H1591 H 0.02668 0.23278 0.86061 0.0
H1592 H 0.74532 0.24921 0.67271 0.0
H1593 H 0.68876 0.30058 0.62994 0.0
H1594 H 0.71208 0.31132 0.70783 0.0
H1595 H 0.68265 0.32354 0.66826 0.0
Eu1596 Eu 0.41718 0.01093 0.76951 0.0
C1597 C 0.55187 0.97899 0.77257 0.0
C1598 C 0.58823 0.01225 0.78262 0.0
C1599 C 0.60759 0.97516 0.79703 0.0
C1600 C 0.55783 0.00248 0.77055 0.0
C1601 C 0.57712 0.96531 0.78577 0.0
C1602 C 0.613 0.99851 0.79559 0.0
C1603 C 0.5414 0.93249 0.77545 0.0
N1604 N 0.52174 0.9695 0.76197 0.0
C1605 C 0.51742 0.9464 0.76231 0.0
C1606 C 0.57123 0.94197 0.78737 0.0
Eu1607 Eu 0.48912 0.99451 0.73534 0.0
N1608 N 0.53343 0.01585 0.75793 0.0
C1609 C 0.53779 0.03893 0.75759 0.0
C1610 C 0.59273 0.03574 0.78185 0.0
C1611 C 0.56724 0.04909 0.76953 0.0
H1612 H 0.49713 0.93799 0.75129 0.0
H1613 H 0.57038 0.06733 0.76906 0.0
H1614 H 0.63639 0.00583 0.80483 0.0
H1615 H 0.53747 0.91431 0.77564 0.0
H1616 H 0.51931 0.05006 0.74824 0.0
H1617 H 0.31288 0.96726 0.71602 0.0
H1618 H 0.61558 0.04377 0.79102 0.0
H1619 H 0.42016 0.06415 0.79243 0.0
H1620 H 0.37152 0.97122 0.73702 0.0
H1621 H 0.38046 0.09803 0.79345 0.0
H1622 H 0.62705 0.96484 0.80717 0.0
H1623 H 0.27225 0.99996 0.71329 0.0
H1624 H 0.25646 0.03983 0.72663 0.0
H1625 H 0.59003 0.93103 0.79731 0.0
H1626 H 0.27466 0.0752 0.74751 0.0
N1627 N 0.36397 0.00602 0.74622 0.0
C1628 C 0.35387 0.98566 0.73624 0.0
C1629 C 0.2972 0.00178 0.72328 0.0
C1630 C 0.30679 0.02233 0.73459 0.0
C1631 C 0.3205 0.98328 0.72441 0.0
C1632 C 0.34114 0.02408 0.74592 0.0
H1633 H 0.32103 0.0972 0.77191 0.0
N1634 N 0.38451 0.04523 0.76902 0.0
C1635 C 0.37214 0.08305 0.78321 0.0
C1636 C 0.35163 0.04419 0.75756 0.0
C1637 C 0.39459 0.06397 0.7825 0.0
C1638 C 0.33862 0.08251 0.771 0.0
C1639 C 0.32775 0.06285 0.75829 0.0
O1640 O 0.40578 0.01862 0.80842 0.0
O1641 O 0.47365 0.9962 0.77764 0.0
O1642 O 0.45453 0.96324 0.7368 0.0
O1643 O 0.41961 0.97228 0.77118 0.0
O1644 O 0.46121 0.0263 0.79531 0.0
O1645 O 0.37364 0.99284 0.78908 0.0
O1646 O 0.51621 0.96832 0.71255 0.0
O1647 O 0.42925 0.00238 0.72843 0.0
O1648 O 0.43166 0.04232 0.74631 0.0
O1649 O 0.48034 0.03102 0.72174 0.0
O1650 O 0.45717 0.99297 0.69729 0.0
O1651 O 0.53944 0.00194 0.71745 0.0
C1652 C 0.48455 0.00993 0.79543 0.0
C1653 C 0.34902 0.01024 0.82581 0.0
C1654 C 0.33643 0.00432 0.86981 0.0
C1655 C 0.344 0.99557 0.8459 0.0
C1656 C 0.32297 0.02678 0.8713 0.0
C1657 C 0.33588 0.03248 0.82714 0.0
C1658 C 0.32114 0.04034 0.84969 0.0
C1659 C 0.43214 0.95738 0.75488 0.0
C1660 C 0.37924 0.00417 0.80973 0.0
C1661 C 0.29348 0.06111 0.74696 0.0
C1662 C 0.28308 0.04093 0.73509 0.0
C1663 C 0.42464 0.99888 0.70408 0.0
C1664 C 0.56485 0.97965 0.68616 0.0
C1665 C 0.56399 0.99755 0.6692 0.0
C1666 C 0.58307 0.99624 0.64677 0.0
C1667 C 0.60626 0.97756 0.64257 0.0
C1668 C 0.58746 0.961 0.68204 0.0
C1669 C 0.60862 0.96015 0.66034 0.0
C1670 C 0.45631 0.0465 0.72884 0.0
C1671 C 0.54422 0.98141 0.70906 0.0
H1672 H 0.35219 0.97808 0.84354 0.0
H1673 H 0.31587 0.03462 0.88899 0.0
H1674 H 0.33922 0.04408 0.81159 0.0
H1675 H 0.31162 0.05766 0.85103 0.0
H1676 H 0.54684 0.01211 0.6729 0.0
H1677 H 0.62089 0.97564 0.62503 0.0
H1678 H 0.58887 0.9473 0.69562 0.0
H1679 H 0.62597 0.94568 0.6569 0.0
Eu1680 Eu 0.23892 0.00602 0.48596 0.0
C1681 C 0.09943 0.96077 0.48843 0.0
C1682 C 0.06158 0.98875 0.46716 0.0
C1683 C 0.04683 0.94884 0.46394 0.0
C1684 C 0.09204 0.98346 0.48231 0.0
C1685 C 0.07563 0.94351 0.48013 0.0
C1686 C 0.04004 0.97133 0.4573 0.0
C1687 C 0.10733 0.91691 0.50679 0.0
N1688 N 0.12775 0.95566 0.50397 0.0
C1689 C 0.13066 0.93425 0.5142 0.0
C1690 C 0.08022 0.92144 0.48925 0.0
Eu1691 Eu 0.16082 0.98782 0.51841 0.0
N1692 N 0.11294 0.00038 0.49213 0.0
C1693 C 0.10351 0.02261 0.48856 0.0
C1694 C 0.0525 0.01148 0.46315 0.0
C1695 C 0.07325 0.02843 0.47419 0.0
H1696 H 0.15176 0.93044 0.52774 0.0
H1697 H 0.0661 0.04607 0.47152 0.0
H1698 H 1.01683 0.97519 0.44552 0.0
H1699 H 0.11046 0.90002 0.51449 0.0
H1700 H 0.11862 0.03619 0.49674 0.0
H1701 H 0.31042 0.93455 0.53008 0.0
H1702 H 0.02907 0.01611 0.45195 0.0
H1703 H 0.26229 0.06127 0.48496 0.0
H1704 H 0.26119 0.95224 0.50682 0.0
H1705 H 0.30425 0.08703 0.50647 0.0
H1706 H 0.02875 0.93573 0.45718 0.0
H1707 H 0.35739 0.95812 0.55017 0.0
H1708 H 0.38136 0.99638 0.56031 0.0
H1709 H 0.06221 0.90791 0.48349 0.0
H1710 H 0.37762 0.03765 0.55595 0.0
N1711 N 0.27895 0.98617 0.51308 0.0
C1712 C 0.28086 0.96309 0.51529 0.0
C1713 C 0.33555 0.96619 0.53986 0.0
C1714 C 0.33333 0.98979 0.53806 0.0
C1715 C 0.30907 0.95283 0.52859 0.0
C1716 C 0.30443 0.99959 0.52431 0.0
H1717 H 0.34853 0.07152 0.53678 0.0
N1718 N 0.27555 0.03262 0.50746 0.0
C1719 C 0.30317 0.06931 0.51177 0.0
C1720 C 0.30207 0.02323 0.52203 0.0
C1721 C 0.27801 0.05491 0.50055 0.0
C1722 C 0.3283 0.06043 0.52864 0.0
C1723 C 0.32895 0.03708 0.53318 0.0
O1724 O 0.26881 0.02685 0.45894 0.0
O1725 O 0.17853 0.99887 0.47906 0.0
O1726 O 0.18505 0.95745 0.4971 0.0
O1727 O 0.23046 0.97055 0.4706 0.0
O1728 O 0.20516 0.01071 0.44863 0.0
O1729 O 0.28888 0.99356 0.46997 0.0
O1730 O 0.14022 0.96732 0.54887 0.0
O1731 O 0.22041 0.99693 0.52584 0.0
O1732 O 0.2095 0.03824 0.4976 0.0
O1733 O 0.16442 0.0261 0.5253 0.0
O1734 O 0.19437 0.98471 0.55594 0.0
O1735 O 0.1119 0.99845 0.53825 0.0
C1736 C 0.1732 0.00357 0.45514 0.0
C1737 C 0.31741 0.01104 0.43601 0.0
C1738 C 0.32195 0.99945 0.39294 0.0
C1739 C 0.30531 0.99764 0.41635 0.0
C1740 C 0.35449 0.01151 0.39043 0.0
C1741 C 0.34861 0.02429 0.43336 0.0
C1742 C 0.36773 0.02397 0.4107 0.0
C1743 C 0.20805 0.95456 0.47818 0.0
C1744 C 0.29597 0.01263 0.45859 0.0
C1745 C 0.35692 0.02722 0.54732 0.0
C1746 C 0.35918 0.0037 0.54966 0.0
C1747 C 0.22533 0.99335 0.55005 0.0
C1748 C 0.09803 0.98109 0.57759 0.0
C1749 C 0.10233 0.0005 0.59226 0.0
C1750 C 0.09224 0.00018 0.61768 0.0
C1751 C 0.07728 0.98011 0.62792 0.0
C1752 C 0.08246 0.96148 0.58779 0.0
C1753 C 0.07204 0.96103 0.61292 0.0
C1754 C 0.18344 0.04237 0.51414 0.0
C1755 C 0.11168 0.98002 0.55207 0.0
H1756 H 0.27988 0.98854 0.41818 0.0
H1757 H 0.36721 0.01346 0.37218 0.0
H1758 H 0.35725 0.03543 0.44839 0.0
H1759 H 0.391 0.03478 0.40804 0.0
H1760 H 0.11424 0.01554 0.584 0.0
H1761 H 0.07061 0.97876 0.64773 0.0
H1762 H 0.07919 0.94635 0.57642 0.0
H1763 H 0.06077 0.94571 0.62096 0.0
Eu1764 Eu 0.55538 0.74109 0.48544 0.0
C1765 C 0.68949 0.79497 0.50761 0.0
C1766 C 0.74062 0.77029 0.49883 0.0
C1767 C 0.7504 0.81058 0.50503 0.0
C1768 C 0.70302 0.77353 0.50092 0.0
C1769 C 0.71326 0.81368 0.50921 0.0
C1770 C 0.76415 0.78885 0.50081 0.0
C1771 C 0.66392 0.83633 0.52531 0.0
N1772 N 0.65445 0.79699 0.51536 0.0
C1773 C 0.64201 0.81707 0.52532 0.0
C1774 C 0.69967 0.83465 0.51714 0.0
Eu1775 Eu 0.62666 0.76125 0.52142 0.0
N1776 N 0.68042 0.7553 0.49997 0.0
C1777 C 0.69319 0.734 0.49539 0.0
C1778 C 0.75371 0.74814 0.49705 0.0
C1779 C 0.73017 0.73003 0.4942 0.0
H1780 H 0.61511 0.81797 0.53332 0.0
H1781 H 0.74047 0.71291 0.49245 0.0
H1782 H 0.79315 0.78658 0.49975 0.0
H1783 H 0.65368 0.85223 0.53256 0.0
H1784 H 0.67532 0.71972 0.49469 0.0
H1785 H 0.46614 0.81206 0.51217 0.0
H1786 H 0.78187 0.74472 0.49912 0.0
H1787 H 0.55173 0.68503 0.50438 0.0
H1788 H 0.51943 0.79551 0.49336 0.0
H1789 H 0.51475 0.66152 0.53133 0.0
H1790 H 0.76908 0.82465 0.50669 0.0
H1791 H 0.42425 0.78849 0.537 0.0
H1792 H 0.41053 0.75141 0.55693 0.0
H1793 H 0.7171 0.84937 0.5183 0.0
H1794 H 0.42325 0.71111 0.56201 0.0
N1795 N 0.50967 0.76181 0.50686 0.0
C1796 C 0.50244 0.78446 0.50403 0.0
C1797 C 0.44798 0.7808 0.52858 0.0
C1798 C 0.45552 0.75778 0.53192 0.0
C1799 C 0.47164 0.79417 0.51471 0.0
C1800 C 0.48671 0.74841 0.52051 0.0
H1801 H 0.46211 0.67787 0.55324 0.0
N1802 N 0.52557 0.71635 0.51397 0.0
C1803 C 0.50945 0.67955 0.53016 0.0
C1804 C 0.49508 0.72542 0.52442 0.0
C1805 C 0.53163 0.69343 0.5156 0.0
C1806 C 0.47956 0.68878 0.5422 0.0
C1807 C 0.4717 0.71178 0.53914 0.0
O1808 O 0.53218 0.71171 0.46619 0.0
O1809 O 0.61602 0.74894 0.48077 0.0
O1810 O 0.60777 0.78989 0.49537 0.0
O1811 O 0.5618 0.77674 0.46923 0.0
O1812 O 0.58938 0.74197 0.44824 0.0
O1813 O 0.50646 0.74483 0.46355 0.0
O1814 O 0.64864 0.77868 0.55394 0.0
O1815 O 0.56738 0.75174 0.52623 0.0
O1816 O 0.59347 0.71167 0.49085 0.0
O1817 O 0.62472 0.72263 0.52648 0.0
O1818 O 0.58946 0.76723 0.55625 0.0
O1819 O 0.66957 0.74539 0.54344 0.0
C1820 C 0.62188 0.74664 0.45627 0.0
C1821 C 0.48574 0.71627 0.43572 0.0
C1822 C 0.46486 0.72556 0.39388 0.0
C1823 C 0.47767 0.73233 0.4174 0.0
C1824 C 0.45507 0.70271 0.39015 0.0
C1825 C 0.47592 0.69356 0.43211 0.0
C1826 C 0.45985 0.68692 0.40949 0.0
C1827 C 0.58449 0.79284 0.47665 0.0
C1828 C 0.50399 0.72317 0.45871 0.0
C1829 C 0.44108 0.72131 0.55042 0.0
C1830 C 0.43343 0.74423 0.54717 0.0
C1831 C 0.56014 0.75702 0.54976 0.0
C1832 C 0.67996 0.75862 0.58483 0.0
C1833 C 0.6672 0.73916 0.59685 0.0
C1834 C 0.67532 0.7357 0.62219 0.0
C1835 C 0.69507 0.75207 0.63569 0.0
C1836 C 0.69993 0.77486 0.59818 0.0
C1837 C 0.7071 0.77168 0.62367 0.0
C1838 C 0.6139 0.70686 0.51047 0.0
C1839 C 0.67237 0.76284 0.55852 0.0
H1840 H 0.48387 0.75003 0.42077 0.0
H1841 H 0.44566 0.69672 0.37201 0.0
H1842 H 0.481 0.68102 0.44663 0.0
H1843 H 0.45267 0.66934 0.40653 0.0
H1844 H 0.65099 0.72686 0.58667 0.0
H1845 H 0.70035 0.74989 0.65564 0.0
H1846 H 0.70953 0.7901 0.58893 0.0
H1847 H 0.72163 0.78454 0.63409 0.0
Eu1848 Eu 0.23874 0.7436 0.3923 0.0
C1849 C 0.10108 0.7909 0.39053 0.0
C1850 C 0.06336 0.76372 0.41294 0.0
C1851 C 0.0503 0.80388 0.41613 0.0
C1852 C 0.09315 0.76843 0.39701 0.0
C1853 C 0.07842 0.80861 0.3992 0.0
C1854 C 0.04309 0.78155 0.42322 0.0
C1855 C 0.11031 0.83453 0.37191 0.0
N1856 N 0.12896 0.79539 0.37447 0.0
C1857 C 0.13265 0.81674 0.36424 0.0
C1858 C 0.08359 0.83056 0.38986 0.0
Eu1859 Eu 0.161 0.76268 0.36024 0.0
N1860 N 0.11288 0.75117 0.38681 0.0
C1861 C 0.10211 0.72918 0.39013 0.0
C1862 C 0.05396 0.74116 0.4176 0.0
C1863 C 0.07303 0.72386 0.40578 0.0
H1864 H 0.15356 0.8201 0.35045 0.0
H1865 H 0.06505 0.70637 0.40842 0.0
H1866 H 1.02052 0.77815 0.43569 0.0
H1867 H 0.11397 0.85135 0.36414 0.0
H1868 H 0.11468 0.71548 0.38031 0.0
H1869 H 0.32074 0.8143 0.35638 0.0
H1870 H 0.03125 0.73695 0.42962 0.0
H1871 H 0.24464 0.68644 0.37852 0.0
H1872 H 0.26925 0.79783 0.37778 0.0
H1873 H 0.28165 0.66183 0.35273 0.0
H1874 H 0.03313 0.81734 0.42322 0.0
H1875 H 0.36357 0.78993 0.33327 0.0
H1876 H 0.38041 0.75178 0.31778 0.0
H1877 H 0.06645 0.84444 0.39589 0.0
H1878 H 0.36922 0.71092 0.31602 0.0
N1879 N 0.28101 0.76364 0.36725 0.0
C1880 C 0.28669 0.78656 0.36779 0.0
C1881 C 0.34057 0.78235 0.34272 0.0
C1882 C 0.33453 0.759 0.34171 0.0
C1883 C 0.31639 0.79617 0.35563 0.0
C1884 C 0.30424 0.7498 0.3544 0.0
H1885 H 0.33211 0.67765 0.32804 0.0
N1886 N 0.26798 0.71748 0.36507 0.0
C1887 C 0.28579 0.67999 0.35206 0.0
C1888 C 0.29725 0.72643 0.35294 0.0
C1889 C 0.26353 0.69439 0.36593 0.0
C1890 C 0.31446 0.68896 0.33842 0.0
C1891 C 0.32104 0.71226 0.33916 0.0
O1892 O 0.26689 0.71708 0.41392 0.0
O1893 O 0.17892 0.75181 0.39972 0.0
O1894 O 0.18619 0.79264 0.38177 0.0
O1895 O 0.23223 0.77924 0.40798 0.0
O1896 O 0.20733 0.74172 0.43055 0.0
O1897 O 0.28991 0.75084 0.40956 0.0
O1898 O 0.13777 0.78293 0.33054 0.0
O1899 O 0.22006 0.75305 0.35272 0.0
O1900 O 0.20209 0.71368 0.38759 0.0
O1901 O 0.16549 0.72417 0.35404 0.0
O1902 O 0.19568 0.76827 0.32363 0.0
O1903 O 0.11448 0.74991 0.33895 0.0
C1904 C 0.1749 0.7481 0.42399 0.0
C1905 C 0.31652 0.72753 0.43989 0.0
C1906 C 0.33459 0.74214 0.48026 0.0
C1907 C 0.3161 0.74472 0.45765 0.0
C1908 C 0.35709 0.72307 0.48384 0.0
C1909 C 0.33872 0.7085 0.44326 0.0
C1910 C 0.35955 0.70651 0.46512 0.0
C1911 C 0.20988 0.79544 0.40039 0.0
C1912 C 0.29505 0.73008 0.4173 0.0
C1913 C 0.35094 0.72159 0.3267 0.0
C1914 C 0.35752 0.74483 0.32787 0.0
C1915 C 0.22595 0.75847 0.32915 0.0
C1916 C 0.10295 0.76698 0.29919 0.0
C1917 C 0.12003 0.7512 0.28366 0.0
C1918 C 0.1125 0.75124 0.25791 0.0
C1919 C 0.08882 0.76751 0.24763 0.0
C1920 C 0.07921 0.78315 0.28899 0.0
C1921 C 0.07233 0.78348 0.26318 0.0
C1922 C 0.17986 0.70855 0.36906 0.0
C1923 C 0.11206 0.76857 0.32564 0.0
H1924 H 0.29952 0.75965 0.45449 0.0
H1925 H 0.37119 0.72029 0.50149 0.0
H1926 H 0.33992 0.69533 0.42906 0.0
H1927 H 0.37654 0.69176 0.46795 0.0
H1928 H 0.13883 0.73894 0.29153 0.0
H1929 H 0.08321 0.76783 0.22757 0.0
H1930 H 0.06656 0.79576 0.30096 0.0
H1931 H 0.05431 0.79609 0.25525 0.0
Eu1932 Eu 0.55359 0.00473 0.39552 0.0
C1933 C 0.69762 0.95934 0.37559 0.0
C1934 C 0.7438 0.98832 0.38153 0.0
C1935 C 0.76143 0.94898 0.37577 0.0
C1936 C 0.70707 0.98203 0.3807 0.0
C1937 C 0.72503 0.94265 0.37393 0.0
C1938 C 0.77066 0.97179 0.37821 0.0
C1939 C 0.68012 0.91549 0.36069 0.0
N1940 N 0.66286 0.95417 0.369 0.0
C1941 C 0.65451 0.93286 0.36012 0.0
C1942 C 0.71555 0.92039 0.3677 0.0
Eu1943 Eu 0.62852 0.98739 0.36085 0.0
N1944 N 0.68094 0.99841 0.3815 0.0
C1945 C 0.68929 0.02061 0.38612 0.0
C1946 C 0.75244 0.01136 0.3838 0.0
C1947 C 0.72527 0.02742 0.38717 0.0
H1948 H 0.62793 0.92944 0.35239 0.0
H1949 H 0.732 0.04514 0.38958 0.0
H1950 H 0.79872 0.9764 0.37645 0.0
H1951 H 0.67296 0.89862 0.35445 0.0
H1952 H 0.66854 0.03325 0.38802 0.0
H1953 H 0.48428 0.93481 0.34727 0.0
H1954 H 0.77991 0.0171 0.3826 0.0
H1955 H 0.53016 0.06014 0.39937 0.0
H1956 H 0.53354 0.95205 0.37122 0.0
H1957 H 0.48496 0.08597 0.38134 0.0
H1958 H 0.78279 0.93656 0.37339 0.0
H1959 H 0.43487 0.95858 0.33038 0.0
H1960 H 0.40737 0.99677 0.32489 0.0
H1961 H 0.73589 0.90717 0.36665 0.0
H1962 H 0.40901 0.0377 0.33254 0.0
N1963 N 0.51304 0.98577 0.36824 0.0
C1964 C 0.51246 0.96286 0.36422 0.0
C1965 C 0.45665 0.96642 0.34092 0.0
C1966 C 0.45734 0.98985 0.34486 0.0
C1967 C 0.48446 0.95293 0.35045 0.0
C1968 C 0.48639 0.99936 0.35862 0.0
H1969 H 0.43818 0.07103 0.35261 0.0
N1970 N 0.51513 0.03199 0.3766 0.0
C1971 C 0.48606 0.06848 0.37522 0.0
C1972 C 0.48778 0.02289 0.36255 0.0
C1973 C 0.51283 0.05404 0.38449 0.0
C1974 C 0.45954 0.05991 0.35923 0.0
C1975 C 0.45945 0.03681 0.35335 0.0
O1976 O 0.5237 0.02397 0.42411 0.0
O1977 O 0.61513 0.99808 0.40165 0.0
O1978 O 0.61044 0.95755 0.38541 0.0
O1979 O 0.56115 0.96858 0.40926 0.0
O1980 O 0.58775 0.0077 0.43259 0.0
O1981 O 0.50443 0.99113 0.41107 0.0
O1982 O 0.64916 0.9691 0.32809 0.0
O1983 O 0.56942 0.99677 0.35469 0.0
O1984 O 0.58139 0.03767 0.38465 0.0
O1985 O 0.62429 0.02584 0.35547 0.0
O1986 O 0.59335 0.98207 0.32496 0.0
O1987 O 0.67212 0.00198 0.33898 0.0
C1988 C 0.62036 0.00178 0.426 0.0
C1989 C 0.47656 0.0058 0.44647 0.0
C1990 C 0.47423 0.99125 0.48843 0.0
C1991 C 0.48983 0.99111 0.46461 0.0
C1992 C 0.44044 0.0018 0.4921 0.0
C1993 C 0.44444 0.01783 0.45047 0.0
C1994 C 0.42551 0.01502 0.47298 0.0
C1995 C 0.58563 0.95343 0.40272 0.0
C1996 C 0.49703 0.0094 0.42381 0.0
C1997 C 0.43091 0.02722 0.33958 0.0
C1998 C 0.42985 0.00387 0.33537 0.0
C1999 C 0.56374 0.99233 0.33075 0.0
C2000 C 0.6916 0.98625 0.30065 0.0
C2001 C 0.67846 0.00253 0.28412 0.0
C2002 C 0.69539 0.00571 0.26099 0.0
C2003 C 0.72553 0.99238 0.25444 0.0
C2004 C 0.72181 0.97302 0.29439 0.0
C2005 C 0.73881 0.97612 0.2712 0.0
C2006 C 0.60624 0.04204 0.36739 0.0
C2007 C 0.67531 0.98377 0.32509 0.0
H2008 H 0.51579 0.98283 0.46169 0.0
H2009 H 0.42794 0.00227 0.51056 0.0
H2010 H 0.43489 0.02982 0.43661 0.0
H2011 H 0.40103 0.02451 0.47653 0.0
H2012 H 0.6551 0.0127 0.28927 0.0
H2013 H 0.73795 0.99413 0.23613 0.0
H2014 H 0.73226 0.96047 0.30747 0.0
H2015 H 0.76198 0.96584 0.26614 0.0
Eu2016 Eu 0.88613 0.51296 0.11016 0.0
C2017 C 0.74344 0.47419 0.11077 0.0
C2018 C 0.7114 0.50645 0.09268 0.0
C2019 C 0.68802 0.46845 0.08656 0.0
C2020 C 0.74073 0.49759 0.10677 0.0
C2021 C 0.71646 0.45958 0.10107 0.0
C2022 C 0.68544 0.49177 0.08244 0.0
C2023 C 0.74422 0.42864 0.12365 0.0
N2024 N 0.7709 0.4658 0.12522 0.0
C2025 C 0.76987 0.44371 0.13319 0.0
C2026 C 0.71782 0.43652 0.10709 0.0
Eu2027 Eu 0.80919 0.49374 0.1431 0.0
N2028 N 0.76634 0.51171 0.1166 0.0
C2029 C 0.76382 0.53464 0.11319 0.0
C2030 C 0.70891 0.52989 0.08917 0.0
C2031 C 0.73525 0.54401 0.09944 0.0
H2032 H 0.78907 0.43758 0.14705 0.0
H2033 H 0.73356 0.56218 0.09678 0.0
H2034 H 0.663 0.49834 0.07146 0.0
H2035 H 0.74449 0.41104 0.12945 0.0
H2036 H 0.78365 0.54594 0.12083 0.0
H2037 H 0.97289 0.45037 0.15817 0.0
H2038 H 0.6868 0.53725 0.07849 0.0
H2039 H 0.89754 0.57102 0.10579 0.0
H2040 H 0.92148 0.46273 0.1335 0.0
H2041 H 0.94002 0.59971 0.12116 0.0
H2042 H 0.66732 0.45741 0.07889 0.0
H2043 H 1.01519 0.47839 0.17595 0.0
H2044 H 0.03281 0.51857 0.18189 0.0
H2045 H 0.69764 0.42484 0.09997 0.0
H2046 H 0.02303 0.55881 0.17284 0.0
N2047 N 0.93354 0.4981 0.13563 0.0
C2048 C 0.93941 0.47553 0.14018 0.0
C2049 C 0.99254 0.48412 0.1646 0.0
C2050 C 0.98684 0.50716 0.15997 0.0
C2051 C 0.96879 0.46827 0.1546 0.0
C2052 C 0.95675 0.5139 0.14517 0.0
H2053 H 0.98967 0.58886 0.14987 0.0
N2054 N 0.92178 0.54355 0.12629 0.0
C2055 C 0.94311 0.58223 0.12701 0.0
C2056 C 0.95069 0.53698 0.14051 0.0
C2057 C 0.91898 0.56579 0.11846 0.0
C2058 C 0.97103 0.57602 0.14318 0.0
C2059 C 0.97539 0.55326 0.14989 0.0
O2060 O 0.90605 0.53563 0.08166 0.0
O2061 O 0.82653 0.50365 0.10347 0.0
O2062 O 0.83639 0.46188 0.12778 0.0
O2063 O 0.88223 0.47499 0.10124 0.0
O2064 O 0.85117 0.51692 0.07342 0.0
O2065 O 0.9322 0.50279 0.0866 0.0
O2066 O 0.78089 0.47391 0.17156 0.0
O2067 O 0.8693 0.50181 0.14999 0.0
O2068 O 0.86074 0.54355 0.13001 0.0
O2069 O 0.81741 0.52981 0.15756 0.0
O2070 O 0.84374 0.48692 0.17922 0.0
O2071 O 0.763 0.50878 0.16212 0.0
C2072 C 0.82069 0.5078 0.07953 0.0
C2073 C 0.94012 0.52315 1.04802 0.0
C2074 C 0.93009 0.51047 1.00529 0.0
C2075 C 0.92469 0.50769 1.03121 0.0
C2076 C 0.95016 0.5291 0.99636 0.0
C2077 C 0.96044 0.54151 1.039 0.0
C2078 C 0.9653 0.54452 1.01321 0.0
C2079 C 0.86209 0.4584 0.11078 0.0
C2080 C 0.93235 0.52234 0.0748 0.0
C2081 C 1.00433 0.54645 0.16519 0.0
C2082 C 1.01001 0.52352 0.17023 0.0
C2083 C 0.87475 0.4959 0.17363 0.0
C2084 C 0.72578 0.48718 0.19033 0.0
C2085 C 0.7208 0.50404 0.20813 0.0
C2086 C 0.70248 0.49885 0.2303 0.0
C2087 C 0.68029 0.4794 0.23099 0.0
C2088 C 0.70531 0.46726 0.19123 0.0
C2089 C 0.68113 0.46394 0.21107 0.0
C2090 C 0.83848 0.54625 0.14927 0.0
C2091 C 0.7559 0.48954 0.17327 0.0
H2092 H 0.90891 0.49355 1.03824 0.0
H2093 H 0.95434 0.53159 0.97634 0.0
H2094 H 0.97183 0.55381 1.05195 0.0
H2095 H 0.9807 0.55882 1.00628 0.0
H2096 H 0.73693 0.51939 0.207 0.0
H2097 H 0.6652 0.47488 0.24773 0.0
H2098 H 0.70852 0.45426 0.17698 0.0
H2099 H 0.66518 0.44859 0.21198 0.0
Eu2100 Eu 0.40696 0.73936 0.11259 0.0
C2101 C 0.54916 0.77411 0.10579 0.0
C2102 C 0.57904 0.74071 0.08848 0.0
C2103 C 0.60395 0.77805 0.08051 0.0
C2104 C 0.55092 0.75048 0.10294 0.0
C2105 C 0.57615 0.78792 0.09473 0.0
C2106 C 0.6054 0.75457 0.07741 0.0
C2107 C 0.54904 0.82044 0.11465 0.0
N2108 N 0.52232 0.78353 0.12001 0.0
C2109 C 0.52346 0.8062 0.12565 0.0
C2110 C 0.57526 0.81131 0.09886 0.0
Eu2111 Eu 0.48732 0.75655 0.14244 0.0
N2112 N 0.52518 0.73708 0.11385 0.0
C2113 C 0.52606 0.71408 0.11074 0.0
C2114 C 0.57985 0.71719 0.08532 0.0
C2115 C 0.55311 0.70387 0.09633 0.0
H2116 H 0.50677 0.81314 0.1403 0.0
H2117 H 0.55351 0.68565 0.09395 0.0
H2118 H 0.62713 0.74728 0.06635 0.0
H2119 H 0.54948 0.83831 0.11927 0.0
H2120 H 0.50636 0.7033 0.11926 0.0
H2121 H 0.31728 0.79229 0.16976 0.0
H2122 H 0.6009 0.70916 0.07427 0.0
H2123 H 0.39762 0.68371 0.09669 0.0
H2124 H 0.36863 0.78488 0.14175 0.0
H2125 H 0.36117 0.65085 0.11037 0.0
H2126 H 0.62476 0.78846 0.07198 0.0
H2127 H 0.28174 0.76041 0.18691 0.0
H2128 H 0.27122 0.71885 0.18978 0.0
H2129 H 0.59563 0.82235 0.09081 0.0
H2130 H 0.28459 0.68041 0.1749 0.0
N2131 N 0.36301 0.74891 0.14294 0.0
C2132 C 0.35378 0.77071 0.14915 0.0
C2133 C 0.30439 0.75699 0.17452 0.0
C2134 C 0.31342 0.73475 0.16777 0.0
C2135 C 0.32438 0.77503 0.16492 0.0
C2136 C 0.34295 0.73105 0.15134 0.0
H2137 H 0.31721 0.65509 0.14508 0.0
N2138 N 0.37692 0.70573 0.12509 0.0
C2139 C 0.35828 0.66698 0.11985 0.0
C2140 C 0.35048 0.70906 0.14266 0.0
C2141 C 0.37894 0.68555 0.11227 0.0
C2142 C 0.33357 0.66947 0.13947 0.0
C2143 C 0.32861 0.69075 0.1506 0.0
O2144 O 0.37594 0.72449 0.08143 0.0
O2145 O 0.46571 0.74876 0.1028 0.0
O2146 O 0.45613 0.78915 0.13487 0.0
O2147 O 0.41162 0.77769 0.1066 0.0
O2148 O 0.43819 0.73496 0.07413 0.0
O2149 O 0.35641 0.75443 0.10079 0.0
O2150 O 0.52267 0.77688 0.16607 0.0
O2151 O 0.42781 0.74954 0.15172 0.0
O2152 O 0.43342 0.70771 0.13 0.0
O2153 O 0.47679 0.72099 0.15792 0.0
O2154 O 0.45729 0.76181 0.18094 0.0
O2155 O 0.53603 0.74155 0.15855 0.0
C2156 C 0.46944 0.74418 0.07868 0.0
C2157 C 0.33029 0.74648 1.06203 0.0
C2158 C 0.32954 0.77035 1.0252 0.0
C2159 C 0.34368 0.76498 1.04886 0.0
C2160 C 0.29777 0.75947 1.01695 0.0
C2161 C 0.29927 0.73517 1.05359 0.0
C2162 C 0.28237 0.74216 1.03136 0.0
C2163 C 0.43 0.79374 0.11854 0.0
C2164 C 0.34915 0.73875 0.08434 0.0
C2165 C 0.3012 0.69436 0.1684 0.0
C2166 C 0.29344 0.71628 0.17679 0.0
C2167 C 0.42496 0.75436 0.17585 0.0
C2168 C 0.56946 0.76046 0.1897 0.0
C2169 C 0.55324 0.75607 0.2126 0.0
C2170 C 0.57246 0.75961 0.2348 0.0
C2171 C 0.60934 0.76541 0.2339 0.0
C2172 C 0.60611 0.76652 0.18844 0.0
C2173 C 0.62624 0.76858 0.21063 0.0
C2174 C 0.45544 0.70468 0.14947 0.0
C2175 C 0.54722 0.76095 0.16742 0.0
H2176 H 0.3678 0.77349 1.05571 0.0
H2177 H 0.28666 0.76295 0.99853 0.0
H2178 H 0.28819 0.72108 1.06417 0.0
H2179 H 0.25849 0.73343 1.02466 0.0
H2180 H 0.5249 0.7512 0.21309 0.0
H2181 H 0.62456 0.76834 0.25103 0.0
H2182 H 0.61881 0.77011 0.17047 0.0
H2183 H 0.65444 0.77343 0.20986 0.0
Eu2184 Eu 0.88433 0.73991 0.26969 0.0
C2185 C 0.74448 0.77369 0.26952 0.0
C2186 C 0.70884 0.74025 0.27974 0.0
C2187 C 0.68466 0.77767 0.28844 0.0
C2188 C 0.74028 0.7501 0.26929 0.0
C2189 C 0.71655 0.78755 0.27932 0.0
C2190 C 0.68093 0.75412 0.28882 0.0
C2191 C 0.75366 0.82029 0.27121 0.0
N2192 N 0.77582 0.78305 0.26077 0.0
C2193 C 0.78033 0.80615 0.2613 0.0
C2194 C 0.72152 0.81101 0.28005 0.0
Eu2195 Eu 0.80953 0.75751 0.23541 0.0
N2196 N 0.76731 0.73681 0.25989 0.0
C2197 C 0.76561 0.71374 0.26228 0.0
C2198 C 0.70646 0.71665 0.28119 0.0
C2199 C 0.73528 0.70339 0.27291 0.0
H2200 H 0.80278 0.81434 0.25231 0.0
H2201 H 0.73403 0.68511 0.2745 0.0
H2202 H 0.65646 0.74678 0.29654 0.0
H2203 H 0.75739 0.83849 0.27113 0.0
H2204 H 0.78724 0.70294 0.25633 0.0
H2205 H 0.9951 0.77245 0.21349 0.0
H2206 H 0.68282 0.70851 0.28916 0.0
H2207 H 0.86891 0.68842 0.29515 0.0
H2208 H 0.93541 0.77421 0.23438 0.0
H2209 H 0.90173 0.65174 0.29808 0.0
H2210 H 0.66292 0.78811 0.29575 0.0
H2211 H 0.02811 0.73618 0.2114 0.0
H2212 H 0.03229 0.69501 0.22405 0.0
H2213 H 0.70065 0.82213 0.28734 0.0
H2214 H 1.00833 0.66308 0.24823 0.0
N2215 N 0.93434 0.73899 0.2429 0.0
C2216 C 0.94942 0.75814 0.23294 0.0
C2217 C 1.00195 0.73672 0.22052 0.0
C2218 C 0.98724 0.71741 0.23205 0.0
C2219 C 0.98331 0.75726 0.22145 0.0
C2220 C 0.95295 0.71906 0.24356 0.0
H2221 H 0.95982 0.64673 0.27564 0.0
N2222 N 0.90689 0.70284 0.26973 0.0
C2223 C 0.91231 0.66531 0.28651 0.0
C2224 C 0.93904 0.70062 0.25728 0.0
C2225 C 0.89368 0.68587 0.28466 0.0
C2226 C 0.94514 0.66255 0.27377 0.0
C2227 C 0.95904 0.68034 0.25918 0.0
O2228 O 0.91861 0.72981 0.30143 0.0
O2229 O 0.82507 0.74947 0.27671 0.0
O2230 O 0.84558 0.78835 0.23917 0.0
O2231 O 0.87986 0.77818 0.27368 0.0
O2232 O 0.84915 0.73364 0.30577 0.0
O2233 O 0.92894 0.76127 0.28135 0.0
O2234 O 0.78185 0.78461 0.21477 0.0
O2235 O 0.86981 0.75032 0.22933 0.0
O2236 O 0.86585 0.70957 0.24536 0.0
O2237 O 0.8165 0.72116 0.22119 0.0
O2238 O 0.84211 0.75809 0.19749 0.0
O2239 O 0.76183 0.74977 0.21309 0.0
C2240 C 0.8188 0.74364 0.30032 0.0
C2241 C 0.95877 0.75607 0.31972 0.0
C2242 C 0.95541 0.77856 0.35751 0.0
C2243 C 0.94103 0.77211 0.33425 0.0
C2244 C 0.99006 0.77077 0.36446 0.0
C2245 C 0.99316 0.7482 0.32662 0.0
C2246 C 1.00914 0.75596 0.34881 0.0
C2247 C 0.86764 0.79356 0.2578 0.0
C2248 C 0.94085 0.74674 0.2979 0.0
C2249 C 0.99259 0.67855 0.24697 0.0
C2250 C 1.00643 0.6969 0.23332 0.0
C2251 C 0.87468 0.753 0.20489 0.0
C2252 C 0.73187 0.77733 0.18734 0.0
C2253 C 0.72702 0.76243 0.16741 0.0
C2254 C 0.71355 0.77041 0.14438 0.0
C2255 C 0.69732 0.79208 0.1436 0.0
C2256 C 0.71608 0.79892 0.18654 0.0
C2257 C 0.69763 0.80593 0.16494 0.0
C2258 C 0.84089 0.70568 0.2278 0.0
C2259 C 0.75556 0.77116 0.20817 0.0
H2260 H 0.91462 0.77816 0.32828 0.0
H2261 H 1.00138 0.77496 0.38257 0.0
H2262 H 1.00725 0.73586 0.3151 0.0
H2263 H 0.03548 0.74969 0.35446 0.0
H2264 H 0.73745 0.74533 0.16906 0.0
H2265 H 0.68658 0.79909 0.12629 0.0
H2266 H 0.71873 0.81044 0.20233 0.0
H2267 H 0.68577 0.8227 0.16416 0.0
Eu2268 Eu 0.40702 0.51295 0.26738 0.0
C2269 C 0.54887 0.47406 0.26995 0.0
C2270 C 0.58222 0.50588 0.28768 0.0
C2271 C 0.60363 0.46752 0.29466 0.0
C2272 C 0.55217 0.49746 0.27408 0.0
C2273 C 0.57554 0.45912 0.27958 0.0
C2274 C 0.60682 0.49078 0.29879 0.0
C2275 C 0.54934 0.42903 0.25493 0.0
N2276 N 0.5222 0.46612 0.25453 0.0
C2277 C 0.52416 0.44443 0.24539 0.0
C2278 C 0.57467 0.43628 0.27256 0.0
Eu2279 Eu 0.48574 0.49469 0.23626 0.0
N2280 N 0.52763 0.51207 0.26367 0.0
C2281 C 0.53249 0.53501 0.26545 0.0
C2282 C 0.58744 0.52933 0.28917 0.0
C2283 C 0.56261 0.54392 0.27785 0.0
H2284 H 0.5061 0.43893 0.23053 0.0
H2285 H 0.56659 0.56207 0.27871 0.0
H2286 H 0.62918 0.497 0.31002 0.0
H2287 H 0.54971 0.41171 0.24819 0.0
H2288 H 0.51433 0.54663 0.25647 0.0
H2289 H 0.32143 0.45285 0.21563 0.0
H2290 H 0.61067 0.53633 0.29891 0.0
H2291 H 0.39488 0.56988 0.27557 0.0
H2292 H 0.37194 0.46387 0.24245 0.0
H2293 H 0.35749 0.60039 0.25748 0.0
H2294 H 0.62398 0.45623 0.30239 0.0
H2295 H 0.28278 0.48208 0.196 0.0
H2296 H 0.26827 0.52278 0.18952 0.0
H2297 H 0.59473 0.42441 0.27952 0.0
H2298 H 0.27987 0.5627 0.19929 0.0
N2299 N 0.36342 0.49949 0.23832 0.0
C2300 C 0.35598 0.47705 0.23411 0.0
C2301 C 0.30526 0.48717 0.20784 0.0
C2302 C 0.31244 0.51008 0.21239 0.0
C2303 C 0.32699 0.47062 0.21886 0.0
C2304 C 0.34201 0.51599 0.22806 0.0
H2305 H 0.31268 0.59163 0.22437 0.0
N2306 N 0.37546 0.54451 0.25026 0.0
C2307 C 0.35517 0.58329 0.25028 0.0
C2308 C 0.34861 0.53886 0.23372 0.0
C2309 C 0.37674 0.56601 0.26013 0.0
C2310 C 0.32992 0.57825 0.23163 0.0
C2311 C 0.3255 0.5558 0.22375 0.0
O2312 O 0.3791 0.53108 0.29776 0.0
O2313 O 0.46662 0.50416 0.27596 0.0
O2314 O 0.45777 0.46242 0.24985 0.0
O2315 O 0.41166 0.4751 0.27628 0.0
O2316 O 0.4384 0.51448 0.30616 0.0
O2317 O 0.35478 0.50158 0.28035 0.0
O2318 O 0.51655 0.47594 0.2077 0.0
O2319 O 0.42621 0.50234 0.22786 0.0
O2320 O 0.43718 0.54445 0.25336 0.0
O2321 O 0.47401 0.53048 0.22184 0.0
O2322 O 0.45403 0.48823 0.19888 0.0
O2323 O 0.53353 0.50977 0.2201 0.0
C2324 C 0.47051 0.50716 0.30039 0.0
C2325 C 0.33503 0.51047 0.32013 0.0
C2326 C 0.33929 0.48661 0.3569 0.0
C2327 C 0.35268 0.49366 0.33366 0.0
C2328 C 0.30595 0.49525 0.36546 0.0
C2329 C 0.3018 0.51909 0.32844 0.0
C2330 C 0.28701 0.51119 0.35102 0.0
C2331 C 0.43173 0.45864 0.2665 0.0
C2332 C 0.35071 0.51787 0.2966 0.0
C2333 C 0.29748 0.54984 0.20721 0.0
C2334 C 0.29078 0.52709 0.20173 0.0
C2335 C 0.42254 0.49683 0.20395 0.0
C2336 C 0.56827 0.49272 0.18822 0.0
C2337 C 0.5637 0.50902 0.16968 0.0
C2338 C 0.58373 0.50759 0.14747 0.0
C2339 C 0.61277 0.49205 0.1461 0.0
C2340 C 0.59645 0.47694 0.18674 0.0
C2341 C 0.61926 0.47701 0.16586 0.0
C2342 C 0.45599 0.54734 0.2324 0.0
C2343 C 0.5422 0.49117 0.20828 0.0
H2344 H 0.37787 0.48674 0.32645 0.0
H2345 H 0.29549 0.49055 0.38372 0.0
H2346 H 0.28737 0.53172 0.31749 0.0
H2347 H 0.26144 0.51787 0.35767 0.0
H2348 H 0.54177 0.52117 0.17143 0.0
H2349 H 0.62854 0.49003 0.12908 0.0
H2350 H 0.60015 0.46432 0.20138 0.0
H2351 H 0.64036 0.46441 0.16411 0.0
Eu2352 Eu 0.23854 0.5067 0.98453 0.0
C2353 C 0.1013 0.45406 1.00234 0.0
C2354 C 0.05318 0.47954 0.98841 0.0
C2355 C 0.03996 0.43994 0.99757 0.0
C2356 C 0.08989 0.47558 0.99395 0.0
C2357 C 0.07629 0.43604 1.00363 0.0
C2358 C 0.02839 0.46162 0.99076 0.0
C2359 C 0.12284 0.4125 1.02213 0.0
N2360 N 0.13554 0.45133 1.01153 0.0
C2361 C 0.14604 0.43115 1.02231 0.0
C2362 C 0.08777 0.41498 1.01282 0.0
Eu2363 Eu 0.16419 0.48653 1.01839 0.0
N2364 N 0.1137 0.49318 0.99365 0.0
C2365 C 0.10363 0.51441 0.98625 0.0
C2366 C 0.04244 0.50173 0.98219 0.0
C2367 C 0.06783 0.51899 0.98031 0.0
H2368 H 0.1723 0.42974 1.03126 0.0
H2369 H 0.05956 0.53604 0.97534 0.0
H2370 H 0.99995 0.46406 0.98808 0.0
H2371 H 0.13148 0.39651 1.03015 0.0
H2372 H 0.12295 0.52801 0.9858 0.0
H2373 H 0.31537 0.43503 1.02307 0.0
H2374 H 1.01481 0.50637 0.9793 0.0
H2375 H 0.2539 0.56394 0.99025 0.0
H2376 H 0.26303 0.45269 1.0032 0.0
H2377 H 0.29774 0.58867 1.01067 0.0
H2378 H 1.02012 0.4265 0.99929 0.0
H2379 H 0.36367 0.4587 1.04142 0.0
H2380 H 0.38739 0.49696 1.05176 0.0
H2381 H 0.06924 0.40077 1.01382 0.0
H2382 H 0.38117 0.53826 1.05005 0.0
N2383 N 0.28067 0.48665 1.00958 0.0
C2384 C 0.2834 0.46355 1.01091 0.0
C2385 C 0.34046 0.46675 1.03267 0.0
C2386 C 0.33719 0.49035 1.03199 0.0
C2387 C 0.31327 0.45332 1.02234 0.0
C2388 C 0.30657 0.50014 1.02021 0.0
H2389 H 0.34768 0.57233 1.03562 0.0
N2390 N 0.27401 0.53335 1.00713 0.0
C2391 C 0.29903 0.57055 1.01381 0.0
C2392 C 0.30277 0.52383 1.01943 0.0
C2393 C 0.27332 0.55632 1.00294 0.0
C2394 C 0.32725 0.56124 1.02773 0.0
C2395 C 0.33 0.5377 1.03012 0.0
O2396 O 0.26731 0.53024 0.95956 0.0
O2397 O 0.17825 0.49848 0.97823 0.0
O2398 O 0.18374 0.45759 0.99341 0.0
O2399 O 0.23114 0.47079 0.96874 0.0
O2400 O 0.20399 0.51153 0.94792 0.0
O2401 O 0.28765 0.49594 0.96604 0.0
O2402 O 0.14072 0.46967 1.05094 0.0
O2403 O 0.22276 0.49709 1.02469 0.0
O2404 O 0.20718 0.53808 0.99632 0.0
O2405 O 0.16278 0.52483 1.02359 0.0
O2406 O 0.20033 0.48112 1.05412 0.0
O2407 O 0.11771 0.50153 1.0372 0.0
C2408 C 0.17242 0.5037 0.95437 0.0
C2409 C 0.31885 0.51802 0.93638 0.0
C2410 C 0.32831 0.51022 0.89271 0.0
C2411 C 0.31264 0.50446 0.91564 0.0
C2412 C 0.3566 0.52612 0.89194 0.0
C2413 C 0.3461 0.53453 0.93589 0.0
C2414 C 0.36602 0.53791 0.91383 0.0
C2415 C 0.2078 0.45476 0.97527 0.0
C2416 C 0.29461 0.51625 0.95757 0.0
C2417 C 0.36009 0.5278 1.04192 0.0
C2418 C 0.36372 0.50427 1.04279 0.0
C2419 C 0.22944 0.49193 1.04824 0.0
C2420 C 0.0993 0.48845 0.07703 0.0
C2421 C 0.11539 0.50426 0.09289 0.0
C2422 C 0.10106 0.50784 0.11683 0.0
C2423 C 0.07083 0.49528 0.12484 0.0
C2424 C 0.06883 0.47617 0.08478 0.0
C2425 C 0.05459 0.47961 0.10876 0.0
C2426 C 0.1809 0.54145 1.01274 0.0
C2427 C 0.11414 0.48422 1.0524 0.0
H2428 H 0.29106 0.49196 0.91626 0.0
H2429 H 0.36902 0.53082 0.87422 0.0
H2430 H 0.35142 0.54495 0.9523 0.0
H2431 H 0.38698 0.55071 0.91323 0.0
H2432 H 0.13914 0.51353 0.08671 0.0
H2433 H 0.06071 0.49708 0.14381 0.0
H2434 H 0.05638 0.46381 0.07239 0.0
H2435 H 0.03143 0.4699 0.115 0.0
Eu2436 Eu 0.55894 0.24298 0.98651 0.0
C2437 C 0.70252 0.28555 0.99224 0.0
C2438 C 0.739 0.25567 0.97334 0.0
C2439 C 0.75817 0.2948 0.96982 0.0
C2440 C 0.70812 0.26252 0.98722 0.0
C2441 C 0.72841 0.30168 0.9842 0.0
C2442 C 0.76352 0.2719 0.96447 0.0
C2443 C 0.69531 0.33062 1.0064 0.0
N2444 N 0.67273 0.29222 1.00542 0.0
C2445 C 0.66989 0.31437 1.01346 0.0
C2446 C 0.72431 0.32435 0.99129 0.0
Eu2447 Eu 0.63554 0.26188 1.02029 0.0
N2448 N 0.68346 0.24691 0.99524 0.0
C2449 C 0.68779 0.22455 0.98897 0.0
C2450 C 0.74399 0.23271 0.96801 0.0
C2451 C 0.71812 0.21713 0.97569 0.0
H2452 H 0.64747 0.31978 1.02511 0.0
H2453 H 0.72106 0.19939 0.97091 0.0
H2454 H 0.78685 0.26691 0.95342 0.0
H2455 H 0.69231 0.34803 1.01249 0.0
H2456 H 0.66744 0.21225 0.99275 0.0
H2457 H 0.47355 0.30914 1.02588 0.0
H2458 H 0.76726 0.2269 0.9574 0.0
H2459 H 0.54394 0.1861 0.98146 0.0
H2460 H 0.52946 0.29419 1.00751 0.0
H2461 H 0.49855 0.15863 0.99593 0.0
H2462 H 0.77762 0.3071 0.96303 0.0
H2463 H 0.42725 0.28289 1.04236 0.0
H2464 H 0.40789 0.24338 1.05137 0.0
H2465 H 0.7439 0.33705 0.98569 0.0
H2466 H 0.41486 0.20269 1.04355 0.0
N2467 N 0.51512 0.25953 1.01272 0.0
C2468 C 0.50988 0.28243 1.0147 0.0
C2469 C 0.45191 0.27613 1.03425 0.0
C2470 C 0.45772 0.25272 1.03276 0.0
C2471 C 0.47794 0.29102 1.02497 0.0
C2472 C 0.48966 0.2446 1.02122 0.0
H2473 H 0.44827 0.17115 1.02313 0.0
N2474 N 0.52283 0.21352 1.00329 0.0
C2475 C 0.49729 0.17602 1.00236 0.0
C2476 C 0.49399 0.2212 1.01693 0.0
C2477 C 0.52338 0.19159 0.99465 0.0
C2478 C 0.46899 0.18318 1.01769 0.0
C2479 C 0.46643 0.20603 1.02453 0.0
O2480 O 0.52803 0.22434 0.95806 0.0
O2481 O 0.61899 0.25132 0.98005 0.0
O2482 O 0.61037 0.29261 1.00035 0.0
O2483 O 0.56745 0.27894 0.97229 0.0
O2484 O 0.59381 0.23655 0.95046 0.0
O2485 O 0.51169 0.25841 0.96953 0.0
O2486 O 0.65034 0.2852 1.04959 0.0
O2487 O 0.57524 0.25366 1.0261 0.0
O2488 O 0.58632 0.21142 1.0029 0.0
O2489 O 0.63364 0.22389 1.0286 0.0
O2490 O 0.60141 0.26218 1.05763 0.0
O2491 O 0.68225 0.25433 1.04465 0.0
C2492 C 0.62482 0.24552 0.95642 0.0
C2493 C 0.47846 0.24169 0.93706 0.0
C2494 C 0.47241 0.24834 0.89289 0.0
C2495 C 0.49175 0.25104 0.91515 0.0
C2496 C 0.4367 0.24013 0.89348 0.0
C2497 C 0.44324 0.23289 0.93807 0.0
C2498 C 0.4219 0.23283 0.91631 0.0
C2499 C 0.58805 0.29539 0.98103 0.0
C2500 C 0.50237 0.23969 0.95831 0.0
C2501 C 0.43602 0.21417 1.03747 0.0
C2502 C 0.43181 0.23737 1.04166 0.0
C2503 C 0.56972 0.25581 1.05041 0.0
C2504 C 0.68752 0.27556 0.08313 0.0
C2505 C 0.67826 0.25861 0.10034 0.0
C2506 C 0.68378 0.26226 0.12616 0.0
C2507 C 0.69742 0.28317 0.1346 0.0
C2508 C 0.70227 0.29609 0.09165 0.0
C2509 C 0.70702 0.29991 0.11733 0.0
C2510 C 0.61255 0.20762 1.01948 0.0
C2511 C 0.67886 0.27377 1.05647 0.0
H2512 H 0.51924 0.25759 0.91478 0.0
H2513 H 0.42145 0.23774 0.87623 0.0
H2514 H 0.4327 0.22573 0.95539 0.0
H2515 H 0.39486 0.22584 0.91678 0.0
H2516 H 0.66688 0.24275 0.09371 0.0
H2517 H 0.7013 0.28635 0.15453 0.0
H2518 H 0.70921 0.30941 0.07842 0.0
H2519 H 0.71796 0.31588 0.12385 0.0
Eu2520 Eu 0.23416 0.2425 0.89149 0.0
C2521 C 0.09962 0.29449 0.88791 0.0
C2522 C 0.0617 0.27181 0.91581 0.0
C2523 C 0.05092 0.31223 0.91172 0.0
C2524 C 0.0912 0.27351 0.899 0.0
C2525 C 0.07843 0.31376 0.8936 0.0
C2526 C 0.04261 0.29136 0.92278 0.0
C2527 C 0.11086 0.33452 0.86139 0.0
N2528 N 0.12678 0.29589 0.87053 0.0
C2529 C 0.13146 0.31516 0.85642 0.0
C2530 C 0.08463 0.33392 0.8803 0.0
Eu2531 Eu 0.15471 0.2609 0.8615 0.0
N2532 N 0.10993 0.25457 0.89217 0.0
C2533 C 0.09868 0.23349 0.89966 0.0
C2534 C 0.05103 0.25035 0.92432 0.0
C2535 C 0.06901 0.23109 0.91568 0.0
H2536 H 0.15156 0.3155 0.8416 0.0
H2537 H 0.0603 0.2144 0.92158 0.0
H2538 H 1.02027 0.29033 0.93595 0.0
H2539 H 0.11518 0.34987 0.85062 0.0
H2540 H 0.11223 0.21848 0.89305 0.0
H2541 H 0.31934 0.31414 0.86177 0.0
H2542 H 0.02819 0.24842 0.93693 0.0
H2543 H 0.23766 0.18654 0.87222 0.0
H2544 H 0.26574 0.29758 0.87994 0.0
H2545 H 0.27417 0.16316 0.84505 0.0
H2546 H 0.03484 0.32696 0.91658 0.0
H2547 H 0.36295 0.29036 0.83866 0.0
H2548 H 0.37977 0.25283 0.82134 0.0
H2549 H 0.0687 0.34896 0.88407 0.0
H2550 H 0.36591 0.21268 0.81503 0.0
N2551 N 0.2765 0.26373 0.86741 0.0
C2552 C 0.28316 0.28648 0.86975 0.0
C2553 C 0.33878 0.28273 0.84649 0.0
C2554 C 0.33162 0.25967 0.8433 0.0
C2555 C 0.31419 0.2962 0.85943 0.0
C2556 C 0.29977 0.25038 0.85396 0.0
H2557 H 0.32625 0.17964 0.82272 0.0
N2558 N 0.26208 0.21808 0.86162 0.0
C2559 C 0.2789 0.18125 0.84578 0.0
C2560 C 0.29195 0.22733 0.8505 0.0
C2561 C 0.25675 0.19508 0.86042 0.0
C2562 C 0.30845 0.19058 0.83345 0.0
C2563 C 0.31587 0.21365 0.8362 0.0
O2564 O 0.26262 0.21446 0.9099 0.0
O2565 O 0.17486 0.25016 0.90061 0.0
O2566 O 0.17925 0.29152 0.88215 0.0
O2567 O 0.22709 0.27843 0.90706 0.0
O2568 O 0.20556 0.24147 0.93092 0.0
O2569 O 0.28563 0.24837 0.90956 0.0
O2570 O 0.12291 0.27435 0.83005 0.0
O2571 O 0.2138 0.25207 0.8523 0.0
O2572 O 0.19711 0.21209 0.88849 0.0
O2573 O 0.15868 0.22266 0.85612 0.0
O2574 O 0.18679 0.2657 0.82333 0.0
O2575 O 0.10499 0.24447 0.85026 0.0
C2576 C 0.17253 0.24723 0.92518 0.0
C2577 C 0.30989 0.22239 0.93828 0.0
C2578 C 0.32138 0.23194 0.98155 0.0
C2579 C 0.30555 0.23697 0.95846 0.0
C2580 C 0.34466 0.2131 0.98372 0.0
C2581 C 0.33283 0.20354 0.94023 0.0
C2582 C 0.35073 0.19915 0.9629 0.0
C2583 C 0.20414 0.2946 0.89995 0.0
C2584 C 0.29064 0.22702 0.91514 0.0
C2585 C 0.34727 0.22306 0.82577 0.0
C2586 C 0.35525 0.2459 0.82947 0.0
C2587 C 0.21824 0.25696 0.82839 0.0
C2588 C 0.08206 0.24976 0.8102 0.0
C2589 C 0.10095 0.23281 0.79773 0.0
C2590 C 0.08952 0.22557 0.77402 0.0
C2591 C 0.05632 0.23357 0.76444 0.0
C2592 C 0.04925 0.25794 0.8006 0.0
C2593 C 0.03584 0.2493 0.77799 0.0
C2594 C 0.17323 0.20707 0.87085 0.0
C2595 C 0.09731 0.25928 0.83288 0.0
H2596 H 0.28838 0.2518 0.95643 0.0
H2597 H 0.35685 0.20857 1.0016 0.0
H2598 H 0.33682 0.19234 0.9243 0.0
H2599 H 0.36838 0.18457 0.96457 0.0
H2600 H 0.12628 0.22668 0.80558 0.0
H2601 H 0.04765 0.22901 0.74575 0.0
H2602 H 0.03425 0.27099 0.81048 0.0
H2603 H 1.0106 0.25565 0.77036 0.0
Eu2604 Eu 0.5586 0.50483 0.89302 0.0
C2605 C 0.69774 0.45856 0.89193 0.0
C2606 C 0.73345 0.48429 0.91794 0.0
C2607 C 0.74732 0.44409 0.91766 0.0
C2608 C 0.70426 0.48049 0.90122 0.0
C2609 C 0.72061 0.44051 0.89929 0.0
C2610 C 0.75388 0.46592 0.92681 0.0
C2611 C 0.69269 0.41712 0.86733 0.0
N2612 N 0.67132 0.45514 0.87434 0.0
C2613 C 0.67013 0.43523 0.8609 0.0
C2614 C 0.71737 0.41958 0.88706 0.0
Eu2615 Eu 0.63966 0.48846 0.86287 0.0
N2616 N 0.68377 0.49826 0.89295 0.0
C2617 C 0.69243 0.52008 0.89934 0.0
C2618 C 0.74188 0.50655 0.92495 0.0
C2619 C 0.72165 0.52452 0.91528 0.0
H2620 H 0.65096 0.43328 0.84561 0.0
H2621 H 0.72829 0.5418 0.92032 0.0
H2622 H 0.77576 0.46855 0.9401 0.0
H2623 H 0.69086 0.40124 0.8572 0.0
H2624 H 0.67712 0.53419 0.89215 0.0
H2625 H 0.49151 0.43886 0.83822 0.0
H2626 H 0.76431 0.51006 0.93753 0.0
H2627 H 0.53673 0.56021 0.90137 0.0
H2628 H 0.54085 0.45477 0.86376 0.0
H2629 H 0.49087 0.58712 0.88594 0.0
H2630 H 0.76451 0.43028 0.92388 0.0
H2631 H 0.44161 0.46354 0.82367 0.0
H2632 H 0.41329 0.50189 0.82204 0.0
H2633 H 0.73477 0.40547 0.89205 0.0
H2634 H 0.41439 0.5421 0.83359 0.0
N2635 N 0.52014 0.48845 0.86288 0.0
C2636 C 0.51974 0.46585 0.85715 0.0
C2637 C 0.46353 0.47074 0.83462 0.0
C2638 C 0.46383 0.49382 0.84075 0.0
C2639 C 0.49167 0.45675 0.84275 0.0
C2640 C 0.49298 0.50249 0.85505 0.0
H2641 H 0.44361 0.57405 0.85642 0.0
N2642 N 0.52093 0.53363 0.87655 0.0
C2643 C 0.49187 0.57007 0.87842 0.0
C2644 C 0.49374 0.52556 0.86161 0.0
C2645 C 0.51881 0.55508 0.88631 0.0
C2646 C 0.46512 0.56256 0.86193 0.0
C2647 C 0.46513 0.53996 0.85394 0.0
O2648 O 0.5216 0.51987 0.92048 0.0
O2649 O 0.61821 0.49782 0.90209 0.0
O2650 O 0.61549 0.45646 0.88097 0.0
O2651 O 0.56805 0.46864 0.90619 0.0
O2652 O 0.58939 0.5108 0.93116 0.0
O2653 O 0.51192 0.48592 0.90575 0.0
O2654 O 0.66903 0.47384 0.83105 0.0
O2655 O 0.58057 0.49755 0.85333 0.0
O2656 O 0.58635 0.53818 0.88307 0.0
O2657 O 0.63486 0.52686 0.85794 0.0
O2658 O 0.60863 0.48475 0.82437 0.0
O2659 O 0.69007 0.50342 0.85034 0.0
C2660 C 0.62151 0.50294 0.9261 0.0
C2661 C 0.47627 0.49737 0.93948 0.0
C2662 C 0.47283 0.48928 0.98351 0.0
C2663 C 0.49259 0.48967 0.96124 0.0
C2664 C 0.43514 0.49257 0.98301 0.0
C2665 C 0.43882 0.50115 0.93859 0.0
C2666 C 0.41805 0.49801 0.96031 0.0
C2667 C 0.59067 0.45278 0.89854 0.0
C2668 C 0.49873 0.50301 0.91826 0.0
C2669 C 0.43655 0.53126 0.83947 0.0
C2670 C 0.43582 0.50831 0.833 0.0
C2671 C 0.57728 0.49372 0.829 0.0
C2672 C 0.71246 0.49599 0.81027 0.0
C2673 C 0.69549 0.5131 0.79676 0.0
C2674 C 0.70815 0.51903 0.7729 0.0
C2675 C 0.74082 0.50964 0.76407 0.0
C2676 C 0.74437 0.48606 0.80126 0.0
C2677 C 0.75909 0.49338 0.77843 0.0
C2678 C 0.61417 0.54279 0.86815 0.0
C2679 C 0.69605 0.48797 0.83332 0.0
H2680 H 0.52171 0.48704 0.96157 0.0
H2681 H 0.41951 0.49263 1.00028 0.0
H2682 H 0.42599 0.50687 0.92135 0.0
H2683 H 0.3892 0.50106 0.95994 0.0
H2684 H 0.67053 0.52038 0.80392 0.0
H2685 H 0.75083 0.51364 0.74544 0.0
H2686 H 0.75788 0.47282 0.81189 0.0
H2687 H 0.78377 0.48579 0.77139 0.0
H2688 H 0.37848 0.81141 0.08599 0.0
H2689 H 0.45668 0.83207 0.14191 0.0
H2690 H 0.36259 0.8513 0.07899 0.0
H2691 H 0.44304 0.87147 0.13345 0.0
H2692 H 0.43047 0.94196 0.10037 0.0
H2693 H 0.44698 0.90176 0.09964 0.0
H2694 H 0.33406 0.88352 0.1031 0.0
H2695 H 0.31782 0.92355 0.10328 0.0
C2696 C 0.39296 0.82431 0.09642 0.0
C2697 C 0.42009 0.81817 0.1139 0.0
C2698 C 0.38382 0.84725 0.09236 0.0
C2699 C 0.40211 0.86475 0.10522 0.0
C2700 C 0.42909 0.85859 0.12262 0.0
C2701 C 0.43734 0.83576 0.12725 0.0
C2702 C 0.40909 0.92944 0.10081 0.0
C2703 C 0.3727 0.93616 0.10343 0.0
C2704 C 0.4186 0.90631 0.10047 0.0
C2705 C 0.39192 0.88927 0.102 0.0
C2706 C 0.35544 0.89605 0.10223 0.0
C2707 C 0.34606 0.91912 0.10288 0.0
H2708 H 0.81868 0.42061 0.11319 0.0
H2709 H 0.9265 0.44064 0.09256 0.0
H2710 H 0.83503 0.3814 0.11065 0.0
H2711 H 0.94288 0.40078 0.08766 0.0
H2712 H 0.97434 0.33 0.11406 0.0
H2713 H 0.95758 0.36909 0.11 0.0
H2714 H 0.84887 0.34871 0.09002 0.0
H2715 H 0.86572 0.30903 0.09656 0.0
C2716 C 0.84599 0.41679 0.1082 0.0
C2717 C 0.87133 0.43421 0.10437 0.0
C2718 C 0.85539 0.3939 0.10604 0.0
C2719 C 0.89065 0.38734 0.09931 0.0
C2720 C 0.91565 0.40481 0.09367 0.0
C2721 C 0.90614 0.42786 0.09619 0.0
C2722 C 0.94673 0.33363 0.10949 0.0
C2723 C 0.92132 0.31606 0.10684 0.0
C2724 C 0.9371 0.3564 0.10641 0.0
C2725 C 0.90155 0.36264 0.09993 0.0
C2726 C 0.87636 0.34495 0.09572 0.0
C2727 C 0.88609 0.32202 0.09918 0.0
H2728 H 0.47397 0.42048 0.26125 0.0
H2729 H 0.36857 0.44109 0.28686 0.0
H2730 H 0.45828 0.38147 0.26578 0.0
H2731 H 0.3527 0.40125 0.29308 0.0
H2732 H 0.32043 0.32998 0.26851 0.0
H2733 H 0.33668 0.36912 0.27154 0.0
H2734 H 0.44669 0.3494 0.28875 0.0
H2735 H 0.43014 0.3096 0.28324 0.0
C2736 C 0.44743 0.41689 0.26795 0.0
C2737 C 0.42264 0.43442 0.27285 0.0
C2738 C 0.4384 0.39407 0.2711 0.0
C2739 C 0.40395 0.38767 0.27964 0.0
C2740 C 0.37935 0.40521 0.28589 0.0
C2741 C 0.38857 0.42823 0.28255 0.0
C2742 C 0.34814 0.3337 0.27214 0.0
C2743 C 0.37392 0.31625 0.27417 0.0
C2744 C 0.35754 0.35653 0.2747 0.0
C2745 C 0.39331 0.36297 0.28003 0.0
C2746 C 0.41897 0.34544 0.28387 0.0
C2747 C 0.40941 0.32244 0.28097 0.0
H2748 H 0.89295 0.81399 0.30094 0.0
H2749 H 0.86481 0.82826 0.22348 0.0
H2750 H 0.9079 0.85416 0.30729 0.0
H2751 H 0.87966 0.86832 0.23005 0.0
H2752 H 0.97917 0.92209 0.26929 0.0
H2753 H 0.9621 0.88222 0.26791 0.0
H2754 H 0.85044 0.9008 0.27859 0.0
H2755 H 0.86752 0.94101 0.27981 0.0
C2756 C 0.89009 0.82561 0.28524 0.0
C2757 C 0.87772 0.81782 0.26165 0.0
C2758 C 0.89842 0.84861 0.28897 0.0
C2759 C 0.89453 0.86431 0.26923 0.0
C2760 C 0.88237 0.85659 0.24566 0.0
C2761 C 0.87402 0.83364 0.24192 0.0
C2762 C 0.951 0.9179 0.27094 0.0
C2763 C 0.92475 0.9351 0.27316 0.0
C2764 C 0.94127 0.89494 0.27056 0.0
C2765 C 0.90491 0.88849 0.27261 0.0
C2766 C 0.87868 0.90539 0.27661 0.0
C2767 C 0.88856 0.92843 0.2773 0.0
H2768 H 0.66649 0.07415 0.97599 0.0
H2769 H 0.65958 0.06262 1.05619 0.0
H2770 H 0.6523 0.11426 0.98238 0.0
H2771 H 0.64543 0.10313 1.06249 0.0
H2772 H 0.67992 0.18823 1.02752 0.0
H2773 H 0.69485 0.14764 1.02781 0.0
H2774 H 0.58138 0.13118 1.02535 0.0
H2775 H 0.56646 0.17154 1.02578 0.0
C2776 C 0.66189 0.08016 0.99501 0.0
C2777 C 0.66403 0.06511 1.01558 0.0
C2778 C 0.6539 0.10316 0.99863 0.0
C2779 C 0.64812 0.11181 1.02292 0.0
C2780 C 0.64987 0.09686 1.04357 0.0
C2781 C 0.65764 0.07368 1.03994 0.0
C2782 C 0.65805 0.17604 1.02723 0.0
C2783 C 0.62181 0.18333 1.02506 0.0
C2784 C 0.66669 0.15277 1.02745 0.0
C2785 C 0.63925 0.13629 1.0262 0.0
C2786 C 0.60308 0.1435 1.02599 0.0
C2787 C 0.59454 0.16669 1.02567 0.0
H2788 H 0.10964 0.67395 0.97553 0.0
H2789 H 0.15003 0.68682 1.05062 0.0
H2790 H 0.12242 0.63376 0.9806 0.0
H2791 H 0.16398 0.64619 1.05531 0.0
H2792 H 0.11334 0.56062 1.00859 0.0
H2793 H 0.09799 0.60096 1.01032 0.0
H2794 H 0.20777 0.61661 1.03182 0.0
H2795 H 0.22293 0.57626 1.03027 0.0
C2796 C 0.12116 0.66823 0.99322 0.0
C2797 C 0.1283 0.6837 1.01281 0.0
C2798 C 0.12839 0.64511 0.9961 0.0
C2799 C 0.14371 0.63673 1.01846 0.0
C2800 C 0.15201 0.65217 1.03788 0.0
C2801 C 0.14419 0.67542 1.03514 0.0
C2802 C 0.13421 0.57259 1.01372 0.0
C2803 C 0.16995 0.56529 1.01795 0.0
C2804 C 0.12539 0.59573 1.01475 0.0
C2805 C 0.15187 0.61202 1.02072 0.0
C2806 C 0.18686 0.60453 1.02691 0.0
C2807 C 0.19576 0.58143 1.0255 0.0
H2808 H 0.73004 0.67092 0.86268 0.0
H2809 H 0.61977 0.69182 0.85022 0.0
H2810 H 0.71201 0.63141 0.86118 0.0
H2811 H 0.60146 0.65199 0.84772 0.0
H2812 H 0.57754 0.58156 0.88267 0.0
H2813 H 0.59399 0.62075 0.8767 0.0
H2814 H 0.69025 0.59987 0.83695 0.0
H2815 H 0.67339 0.56017 0.84289 0.0
C2816 C 0.70189 0.66714 0.85976 0.0
C2817 C 0.67637 0.68475 0.85766 0.0
C2818 C 0.69151 0.64431 0.85836 0.0
C2819 C 0.65506 0.63823 0.85472 0.0
C2820 C 0.62969 0.65588 0.85111 0.0
C2821 C 0.64025 0.6788 0.85235 0.0
C2822 C 0.60187 0.58501 0.87233 0.0
C2823 C 0.62377 0.56722 0.86331 0.0
C2824 C 0.61137 0.6078 0.86878 0.0
C2825 C 0.64353 0.61378 0.8563 0.0
C2826 C 0.66539 0.59607 0.84688 0.0
C2827 C 0.65559 0.57318 0.85022 0.0
H2828 H 0.18715 0.1715 0.9026 0.0
H2829 H 0.13681 0.18721 0.83112 0.0
H2830 H 0.175 0.13132 0.89592 0.0
H2831 H 0.12379 0.14677 0.82488 0.0
H2832 H 0.18325 0.05987 0.86053 0.0
H2833 H 0.19671 0.10036 0.8615 0.0
H2834 H 0.08385 0.11554 0.84943 0.0
H2835 H 0.07038 0.07495 0.84889 0.0
C2836 C 0.17341 0.16644 0.88545 0.0
C2837 C 0.1632 0.18272 0.86733 0.0
C2838 C 0.16664 0.14335 0.8816 0.0
C2839 C 0.14881 0.13584 0.85976 0.0
C2840 C 0.13763 0.15206 0.84189 0.0
C2841 C 0.14495 0.17523 0.84554 0.0
C2842 C 0.16112 0.07168 0.85838 0.0
C2843 C 0.12511 0.06404 0.85663 0.0
C2844 C 0.16895 0.09498 0.85877 0.0
C2845 C 0.14118 0.11118 0.85629 0.0
C2846 C 0.10576 0.10352 0.85191 0.0
C2847 C 0.0979 0.08025 0.85211 0.0
H2848 H 0.47184 0.32767 0.59802 0.0
H2849 H 0.35935 0.31053 0.60685 0.0
H2850 H 0.45647 0.36799 0.59802 0.0
H2851 H 0.3437 0.35105 0.606 0.0
H2852 H 0.37065 0.43546 0.5724 0.0
H2853 H 0.38409 0.39483 0.56593 0.0
H2854 H 0.39549 0.38588 0.64614 0.0
H2855 H 0.38205 0.42603 0.6527 0.0
C2856 C 0.44391 0.33246 0.60027 0.0
C2857 C 0.41723 0.31577 0.60396 0.0
C2858 C 0.43501 0.35558 0.5997 0.0
C2859 C 0.39896 0.36266 0.60227 0.0
C2860 C 0.37179 0.34604 0.6041 0.0
C2861 C 0.38079 0.32281 0.60465 0.0
C2862 C 0.37643 0.42484 0.58858 0.0
C2863 C 0.37534 0.43404 0.61305 0.0
C2864 C 0.38378 0.4016 0.58489 0.0
C2865 C 0.39043 0.38721 0.60559 0.0
C2866 C 0.39003 0.39651 0.6299 0.0
C2867 C 0.38245 0.41954 0.6336 0.0
H2868 H 0.90206 0.93672 0.58618 0.0
H2869 H 0.84995 0.92423 0.65774 0.0
H2870 H 0.91898 0.89646 0.58376 0.0
H2871 H 0.86649 0.88448 0.65516 0.0
H2872 H 0.94139 0.82409 0.6595 0.0
H2873 H 0.92499 0.86384 0.6578 0.0
H2874 H 0.89027 0.85604 0.5806 0.0
H2875 H 0.9072 0.81566 0.58216 0.0
C2876 C 0.89418 0.92545 0.60135 0.0
C2877 C 0.87475 0.93379 0.62223 0.0
C2878 C 0.90363 0.90238 0.59984 0.0
C2879 C 0.89424 0.8873 0.61933 0.0
C2880 C 0.87454 0.89567 0.63997 0.0
C2881 C 0.86493 0.91852 0.64139 0.0
C2882 C 0.93034 0.8307 0.64205 0.0
C2883 C 0.92547 0.81655 0.62098 0.0
C2884 C 0.92078 0.85356 0.64115 0.0
C2885 C 0.90603 0.8631 0.61916 0.0
C2886 C 0.90168 0.84918 0.59781 0.0
C2887 C 0.91108 0.82605 0.59877 0.0
H2888 H 0.43906 0.92462 0.71902 0.0
H2889 H 0.39922 0.9353 0.7946 0.0
H2890 H 0.42099 0.88506 0.72121 0.0
H2891 H 0.38088 0.89532 0.79673 0.0
H2892 H 0.38973 0.8148 0.79555 0.0
H2893 H 0.40767 0.85492 0.79672 0.0
H2894 H 0.36304 0.86437 0.72222 0.0
H2895 H 0.34561 0.82476 0.7209 0.0
C2896 C 0.42643 0.91854 0.73616 0.0
C2897 C 0.42052 0.93324 0.75659 0.0
C2898 C 0.4159 0.89582 0.73737 0.0
C2899 C 0.3993 0.88699 0.7591 0.0
C2900 C 0.39378 0.90155 0.77976 0.0
C2901 C 0.40403 0.92448 0.77845 0.0
C2902 C 0.38374 0.82549 0.77947 0.0
C2903 C 0.36617 0.81646 0.75814 0.0
C2904 C 0.3938 0.8485 0.78021 0.0
C2905 C 0.38699 0.86285 0.75948 0.0
C2906 C 0.36915 0.85379 0.73838 0.0
C2907 C 0.3589 0.83101 0.73772 0.0
H2908 H 0.85699 0.3247 0.72281 0.0
H2909 H 0.89832 0.31505 0.7983 0.0
H2910 H 0.87097 0.3647 0.72513 0.0
H2911 H 0.91305 0.35574 0.80044 0.0
H2912 H 0.89752 0.43641 0.7979 0.0
H2913 H 0.88266 0.39573 0.80002 0.0
H2914 H 0.92738 0.38647 0.7256 0.0
H2915 H 0.94132 0.42644 0.72323 0.0
C2916 C 0.86925 0.33108 0.73995 0.0
C2917 C 0.87674 0.31654 0.76032 0.0
C2918 C 0.87737 0.35411 0.74123 0.0
C2919 C 0.89337 0.36343 0.76289 0.0
C2920 C 0.90058 0.34906 0.78352 0.0
C2921 C 0.89253 0.32576 0.78219 0.0
C2922 C 0.90399 0.42563 0.78201 0.0
C2923 C 0.92059 0.43476 0.7604 0.0
C2924 C 0.8958 0.40233 0.78332 0.0
C2925 C 0.9037 0.38788 0.76291 0.0
C2926 C 0.92048 0.39711 0.74152 0.0
C2927 C 0.92865 0.42013 0.74024 0.0
H2928 H 0.72732 0.57851 0.51946 0.0
H2929 H 0.61524 0.5586 0.52099 0.0
H2930 H 0.70974 0.61829 0.52064 0.0
H2931 H 0.5975 0.59878 0.52259 0.0
H2932 H 0.63333 0.68437 0.55422 0.0
H2933 H 0.64837 0.64381 0.5589 0.0
H2934 H 0.63436 0.63434 0.47898 0.0
H2935 H 0.61957 0.6745 0.47414 0.0
C2936 C 0.69897 0.58251 0.51962 0.0
C2937 C 0.67289 0.56516 0.51872 0.0
C2938 C 0.68889 0.60539 0.52086 0.0
C2939 C 0.65231 0.61161 0.52149 0.0
C2940 C 0.62597 0.59441 0.52201 0.0
C2941 C 0.63618 0.5714 0.52099 0.0
C2942 C 0.63378 0.67366 0.53765 0.0
C2943 C 0.62533 0.68275 0.5138 0.0
C2944 C 0.64204 0.65046 0.54037 0.0
C2945 C 0.64201 0.63595 0.51932 0.0
C2946 C 0.63399 0.64507 0.49554 0.0
C2947 C 0.62571 0.66812 0.49281 0.0
H2948 H 0.12461 0.06038 0.54035 0.0
H2949 H 0.21842 0.08062 0.49767 0.0
H2950 H 0.10684 0.10065 0.54349 0.0
H2951 H 0.20218 0.11964 0.50194 0.0
H2952 H 0.12665 0.17702 0.47559 0.0
H2953 H 0.1415 0.13705 0.48035 0.0
H2954 H 0.13958 0.14406 0.56123 0.0
H2955 H 0.1249 0.18477 0.55647 0.0
C2956 C 0.14209 0.07317 0.53223 0.0
C2957 C 0.17356 0.06677 0.51887 0.0
C2958 C 0.13195 0.09624 0.53417 0.0
C2959 C 0.15327 0.11328 0.52298 0.0
C2960 C 0.18517 0.10693 0.51074 0.0
C2961 C 0.19481 0.08421 0.50851 0.0
C2962 C 0.12943 0.17016 0.49445 0.0
C2963 C 0.12496 0.18415 0.51565 0.0
C2964 C 0.13776 0.14721 0.49715 0.0
C2965 C 0.14137 0.13738 0.52114 0.0
C2966 C 0.13657 0.15118 0.54252 0.0
C2967 C 0.12873 0.17447 0.53979 0.0
H2968 H 0.6111 0.19098 0.35224 0.0
H2969 H 0.72209 0.1695 0.35783 0.0
H2970 H 0.59251 0.15128 0.34894 0.0
H2971 H 0.70402 0.13031 0.35629 0.0
H2972 H 0.66348 0.05922 0.33966 0.0
H2973 H 0.68016 0.09897 0.33329 0.0
H2974 H 0.58781 0.11985 0.37732 0.0
H2975 H 0.57206 0.08087 0.38398 0.0
C2976 C 0.6317 0.17791 0.35297 0.0
C2977 C 0.66825 0.18368 0.35687 0.0
C2978 C 0.621 0.15505 0.35121 0.0
C2979 C 0.64662 0.13731 0.35298 0.0
C2980 C 0.68329 0.14325 0.35503 0.0
C2981 C 0.69379 0.166 0.35672 0.0
C2982 C 0.64646 0.07228 0.34775 0.0
C2983 C 0.61583 0.06639 0.36217 0.0
C2984 C 0.65615 0.09518 0.34417 0.0
C2985 C 0.63521 0.11288 0.35461 0.0
C2986 C 0.6043 0.10693 0.36846 0.0
C2987 C 0.59511 0.0842 0.37235 0.0
H2988 H 0.18428 0.67657 0.40572 0.0
H2989 H 0.15095 0.68516 0.32823 0.0
H2990 H 0.16927 0.63675 0.40375 0.0
H2991 H 0.13506 0.64456 0.32641 0.0
H2992 H 0.14851 0.56356 0.33161 0.0
H2993 H 0.16357 0.60419 0.329 0.0
H2994 H 0.11334 0.61498 0.40141 0.0
H2995 H 0.09898 0.57509 0.40422 0.0
C2996 C 0.17365 0.66998 0.38815 0.0
C2997 C 0.16887 0.68423 0.3671 0.0
C2998 C 0.16482 0.64702 0.3871 0.0
C2999 C 0.1507 0.63736 0.36499 0.0
C3000 C 0.14606 0.65144 0.34371 0.0
C3001 C 0.15482 0.67471 0.34481 0.0
C3002 C 0.14083 0.57465 0.34695 0.0
C3003 C 0.12272 0.56588 0.36818 0.0
C3004 C 0.14916 0.59795 0.34535 0.0
C3005 C 0.1399 0.61288 0.36508 0.0
C3006 C 0.12141 0.60403 0.38602 0.0
C3007 C 0.11304 0.58101 0.38756 0.0
H3008 H 0.27158 0.01123 0.24071 0.0
H3009 H 0.16407 0.00866 0.27278 0.0
H3010 H 0.29753 0.01287 0.28203 0.0
H3011 H 0.19089 0.00786 0.31494 0.0
H3012 H 0.25677 0.01837 0.38675 0.0
H3013 H 0.22547 0.024 0.34734 0.0
H3014 H 0.30404 0.98114 0.30991 0.0
H3015 H 0.33685 0.97659 0.34964 0.0
C3016 C 0.25311 0.01175 0.25653 0.0
C3017 C 0.21542 0.00884 0.25362 0.0
C3018 C 0.26831 0.01205 0.2803 0.0
C3019 C 0.24625 0.00896 0.30139 0.0
C3020 C 0.20845 0.00952 0.29874 0.0
C3021 C 0.19309 0.00986 0.27482 0.0
C3022 C 0.26673 0.00957 0.37022 0.0
C3023 C 0.29905 0.99697 0.3709 0.0
C3024 C 0.2489 0.01295 0.34768 0.0
C3025 C 0.26289 0.00351 0.32562 0.0
C3026 C 0.29352 0.98927 0.32668 0.0
C3027 C 0.31189 0.98626 0.34926 0.0
H3028 H 0.02756 0.2469 0.38865 0.0
H3029 H 0.93513 0.22104 0.34708 0.0
H3030 H 0.05113 0.2635 0.35111 0.0
H3031 H 0.96161 0.23626 0.30828 0.0
H3032 H 1.01352 0.28191 0.24792 0.0
H3033 H 0.98116 0.27204 0.28636 0.0
H3034 H 0.07929 0.24218 0.31637 0.0
H3035 H 0.11161 0.25215 0.27761 0.0
C3036 C 1.01148 0.24522 0.37168 0.0
C3037 C 0.97905 0.23263 0.37093 0.0
C3038 C 0.02569 0.25441 0.35003 0.0
C3039 C 1.00871 0.25048 0.32701 0.0
C3040 C 0.9752 0.23924 0.32608 0.0
C3041 C 0.96028 0.23041 0.34809 0.0
C3042 C 0.02812 0.27353 0.26305 0.0
C3043 C 0.06494 0.26792 0.26049 0.0
C3044 C 1.00959 0.26775 0.28471 0.0
C3045 C 0.0279 0.25655 0.30407 0.0
C3046 C 0.06493 0.2512 0.30162 0.0
C3047 C 0.08346 0.25691 0.27979 0.0
H3048 H 0.25304 0.24761 0.99048 0.0
H3049 H 0.36066 0.24422 1.02255 0.0
H3050 H 0.22932 0.26038 1.03007 0.0
H3051 H 0.33578 0.25419 1.06359 0.0
H3052 H 0.2777 0.27836 0.13314 0.0
H3053 H 0.30507 0.27877 0.09156 0.0
H3054 H 0.21926 0.23508 1.06426 0.0
H3055 H 0.19103 0.23581 0.10581 0.0
C3056 C 0.27199 0.2501 1.00581 0.0
C3057 C 0.30885 0.24428 1.00379 0.0
C3058 C 0.2581 0.25702 1.02864 0.0
C3059 C 0.28042 0.25712 1.04991 0.0
C3060 C 0.31789 0.25385 1.0474 0.0
C3061 C 0.33209 0.24776 1.0242 0.0
C3062 C 0.26501 0.26879 0.1181 0.0
C3063 C 0.23255 0.257 0.12205 0.0
C3064 C 0.28052 0.26909 0.09448 0.0
C3065 C 0.26386 0.25738 0.07476 0.0
C3066 C 0.23192 0.24492 0.07907 0.0
C3067 C 0.21603 0.24498 0.10267 0.0
H3068 H 1.00899 0.97963 0.13771 0.0
H3069 H 0.08433 0.02304 0.09806 0.0
H3070 H 0.97713 0.97199 0.09873 0.0
H3071 H 0.05209 0.01534 1.05877 0.0
H3072 H 1.02011 0.9841 0.99181 0.0
H3073 H 0.04548 0.98019 1.03294 0.0
H3074 H 0.94058 0.99182 0.0662 0.0
H3075 H 0.91361 0.99385 1.02412 0.0
C3076 C 1.01825 0.98792 0.12066 0.0
C3077 C 0.04904 0.00196 0.12059 0.0
C3078 C 1.00015 0.98335 0.09846 0.0
C3079 C 1.01286 0.9926 0.07598 0.0
C3080 C 0.04265 0.00747 0.07601 0.0
C3081 C 0.06085 0.01204 0.09829 0.0
C3082 C 1.00143 0.98451 1.00748 0.0
C3083 C 0.9645 0.99031 1.00467 0.0
C3084 C 1.01649 0.98267 1.0312 0.0
C3085 C 0.99514 0.987 1.05231 0.0
C3086 C 0.95751 0.98905 1.04986 0.0
C3087 C 0.94216 0.99036 1.02595 0.0
H3088 H 0.77514 0.99242 0.8892 0.0
H3089 H 0.86955 0.02167 0.85329 0.0
H3090 H 0.75556 0.97745 0.84964 0.0
H3091 H 0.84736 0.00821 0.81269 0.0
H3092 H 0.79406 0.97352 0.74451 0.0
H3093 H 0.82664 0.97782 0.78402 0.0
H3094 H 0.72946 0.0043 0.81877 0.0
H3095 H 0.6967 0.99983 0.77912 0.0
C3096 C 0.79275 0.99501 0.87318 0.0
C3097 C 0.8237 0.00896 0.87431 0.0
C3098 C 0.78092 0.98668 0.85034 0.0
C3099 C 0.79909 0.99272 0.8283 0.0
C3100 C 0.83261 0.00377 0.82962 0.0
C3101 C 0.8451 0.01165 0.85272 0.0
C3102 C 0.77979 0.98042 0.76062 0.0
C3103 C 0.74287 0.98617 0.7592 0.0
C3104 C 0.7984 0.98275 0.78309 0.0
C3105 C 0.78018 0.9907 0.80434 0.0
C3106 C 0.74361 0.99731 0.80267 0.0
C3107 C 0.72494 0.99492 0.78017 0.0
H3108 H 0.03245 0.74888 0.88968 0.0
H3109 H 0.92531 0.74742 0.85748 0.0
H3110 H 0.05791 0.75585 0.84893 0.0
H3111 H 0.95127 0.75004 0.81541 0.0
H3112 H 1.01148 0.77416 0.74619 0.0
H3113 H 0.98056 0.77088 0.78593 0.0
H3114 H 0.07073 0.73185 0.81562 0.0
H3115 H 0.10304 0.73703 0.77585 0.0
C3116 C 1.014 0.75027 0.87389 0.0
C3117 C 0.97651 0.7468 0.87639 0.0
C3118 C 0.0289 0.7535 0.85035 0.0
C3119 C 1.00688 0.75209 0.82892 0.0
C3120 C 0.96912 0.75076 0.83158 0.0
C3121 C 0.95412 0.74885 0.85538 0.0
C3122 C 0.02437 0.76464 0.76124 0.0
C3123 C 0.0596 0.7561 0.75864 0.0
C3124 C 1.0066 0.76265 0.78391 0.0
C3125 C 0.02362 0.75165 0.80405 0.0
C3126 C 0.05768 0.74128 0.80061 0.0
C3127 C 0.07601 0.7439 0.77801 0.0
H3128 H 0.86674 0.75229 1.03098 0.0
H3129 H 0.77089 0.73046 0.99125 0.0
H3130 H 0.83069 0.75685 0.06942 0.0
H3131 H 0.73499 0.73469 1.02922 0.0
H3132 H 0.68098 0.77123 0.09739 0.0
H3133 H 0.71111 0.76261 1.05777 0.0
H3134 H 0.80025 0.73247 0.09865 0.0
H3135 H 0.77347 0.74325 0.13745 0.0
C3136 C 0.83818 0.74827 1.03072 0.0
C3137 C 0.82155 0.74091 1.00865 0.0
C3138 C 0.81749 0.75081 1.05247 0.0
C3139 C 0.78012 0.74579 1.05222 0.0
C3140 C 0.76358 0.73872 1.0299 0.0
C3141 C 0.78418 0.7362 1.00832 0.0
C3142 C 0.70696 0.76278 0.09795 0.0
C3143 C 0.72485 0.75875 0.12092 0.0
C3144 C 0.72405 0.75762 0.07525 0.0
C3145 C 0.75872 0.74775 0.07537 0.0
C3146 C 0.77422 0.74097 0.09813 0.0
C3147 C 0.75793 0.74672 0.12062 0.0
H3148 H 0.3517 0.49496 0.84692 0.0
H3149 H 0.25644 0.51625 0.8881 0.0
H3150 H 0.31486 0.49205 0.80864 0.0
H3151 H 0.22034 0.51366 0.85038 0.0
H3152 H 0.16774 0.47845 0.78006 0.0
H3153 H 0.19612 0.48709 0.8203 0.0
H3154 H 0.28454 0.51989 0.78157 0.0
H3155 H 0.25873 0.50993 0.74201 0.0
C3156 C 0.32303 0.49879 0.84772 0.0
C3157 C 0.30686 0.50564 0.87021 0.0
C3158 C 0.30205 0.49737 0.82601 0.0
C3159 C 0.26498 0.50313 0.82672 0.0
C3160 C 0.24874 0.50913 0.84943 0.0
C3161 C 0.2695 0.51045 0.87099 0.0
C3162 C 0.19281 0.48788 0.78015 0.0
C3163 C 0.21143 0.49227 0.75766 0.0
C3164 C 0.20902 0.4929 0.80315 0.0
C3165 C 0.24343 0.50297 0.80365 0.0
C3166 C 0.25877 0.5111 0.78143 0.0
C3167 C 0.24312 0.50571 0.75858 0.0
H3168 H 0.26696 0.75882 0.48998 0.0
H3169 H 0.37661 0.75793 0.51854 0.0
H3170 H 0.24461 0.76752 0.53115 0.0
H3171 H 0.35301 0.76458 0.5612 0.0
H3172 H 0.28535 0.77843 0.6336 0.0
H3173 H 0.31642 0.7836 0.59371 0.0
H3174 H 0.24604 0.73366 0.55954 0.0
H3175 H 0.21428 0.72887 0.59944 0.0
C3176 C 0.28673 0.76137 0.50478 0.0
C3177 C 0.32374 0.75638 0.50155 0.0
C3178 C 0.27363 0.76604 0.5285 0.0
C3179 C 0.29716 0.76495 0.54907 0.0
C3180 C 0.33461 0.76443 0.54534 0.0
C3181 C 0.34797 0.76042 0.52129 0.0
C3182 C 0.277 0.76829 0.6176 0.0
C3183 C 0.24698 0.75371 0.61895 0.0
C3184 C 0.29462 0.77138 0.59492 0.0
C3185 C 0.28219 0.7599 0.57366 0.0
C3186 C 0.25466 0.74353 0.57569 0.0
C3187 C 0.2368 0.7406 0.5983 0.0
H3188 H 0.02448 0.49909 0.4925 0.0
H3189 H 0.92623 0.52402 0.52721 0.0
H3190 H 0.04575 0.48607 0.53256 0.0
H3191 H 0.94962 0.51251 0.5684 0.0
H3192 H 1.00341 0.47338 0.63495 0.0
H3193 H 0.97164 0.48035 0.59549 0.0
H3194 H 0.06755 0.5126 0.56553 0.0
H3195 H 0.09939 0.50562 0.60512 0.0
C3196 C 1.00659 0.5012 0.50846 0.0
C3197 C 0.97335 0.51285 0.50669 0.0
C3198 C 1.01936 0.49409 0.53155 0.0
C3199 C 0.99985 0.49914 0.55333 0.0
C3200 C 0.96523 0.50876 0.55163 0.0
C3201 C 0.95196 0.51546 0.52826 0.0
C3202 C 1.01757 0.48205 0.61989 0.0
C3203 C 0.05396 0.48864 0.62254 0.0
C3204 C 0.99939 0.48602 0.59751 0.0
C3205 C 1.0176 0.49643 0.5776 0.0
C3206 C 0.05351 0.50387 0.5806 0.0
C3207 C 0.07171 0.49988 0.603 0.0
H3208 H 0.66671 0.50684 0.27434 0.0
H3209 H 0.77268 0.51143 0.24001 0.0
H3210 H 0.69543 0.50532 0.31577 0.0
H3211 H 0.80034 0.51274 0.28066 0.0
H3212 H 0.84502 0.47892 0.34851 0.0
H3213 H 0.81078 0.48201 0.3091 0.0
H3214 H 0.73018 0.5231 0.34692 0.0
H3215 H 0.76322 0.51933 0.38578 0.0
C3216 C 0.69577 0.50828 0.27572 0.0
C3217 C 0.71706 0.50817 0.25397 0.0
C3218 C 0.71225 0.50756 0.29926 0.0
C3219 C 0.75019 0.50771 0.30107 0.0
C3220 C 0.77111 0.51138 0.27957 0.0
C3221 C 0.75483 0.51134 0.25616 0.0
C3222 C 0.81973 0.48824 0.34818 0.0
C3223 C 0.80668 0.49886 0.3698 0.0
C3224 C 0.80031 0.49021 0.32584 0.0
C3225 C 0.76831 0.50327 0.32504 0.0
C3226 C 0.75459 0.5129 0.34704 0.0
C3227 C 0.7736 0.51071 0.36925 0.0
H3228 H 0.75788 0.22168 0.49726 0.0
H3229 H 0.85155 0.25797 0.52475 0.0
H3230 H 0.72766 0.22703 0.5375 0.0
H3231 H 0.82124 0.26351 0.56516 0.0
H3232 H 0.78153 0.25109 0.63935 0.0
H3233 H 0.80363 0.23814 0.59945 0.0
H3234 H 0.70266 0.2574 0.5641 0.0
H3235 H 0.67857 0.26847 0.60512 0.0
C3236 C 0.77186 0.23087 0.51203 0.0
C3237 C 0.80714 0.23917 0.50846 0.0
C3238 C 0.75457 0.23392 0.53488 0.0
C3239 C 0.77253 0.24519 0.55435 0.0
C3240 C 0.80741 0.25411 0.55049 0.0
C3241 C 0.82474 0.251 0.52761 0.0
C3242 C 0.76303 0.25161 0.62352 0.0
C3243 C 0.72815 0.26114 0.62534 0.0
C3244 C 0.77617 0.24458 0.60052 0.0
C3245 C 0.75529 0.24768 0.57884 0.0
C3246 C 0.71934 0.25517 0.58073 0.0
C3247 C 0.70572 0.2617 0.60402 0.0
H3248 H 0.53632 0.22724 0.88629 0.0
H3249 H 0.45502 0.2672 0.84759 0.0
H3250 H 0.56779 0.22088 0.84704 0.0
H3251 H 0.48726 0.2611 0.80796 0.0
H3252 H 0.52145 0.23489 0.74036 0.0
H3253 H 0.49723 0.22754 0.78114 0.0
H3254 H 0.60152 0.24068 0.81475 0.0
H3255 H 0.62768 0.24583 0.77292 0.0
C3256 C 0.52563 0.2351 0.86936 0.0
C3257 C 0.49321 0.24768 0.86965 0.0
C3258 C 0.54356 0.23125 0.84698 0.0
C3259 C 0.52922 0.23985 0.82463 0.0
C3260 C 0.49792 0.25354 0.82505 0.0
C3261 C 0.47975 0.25729 0.84752 0.0
C3262 C 0.54039 0.23488 0.75592 0.0
C3263 C 0.57653 0.24241 0.75352 0.0
C3264 C 0.52595 0.23103 0.77949 0.0
C3265 C 0.54712 0.23511 0.80078 0.0
C3266 C 0.58457 0.2382 0.79834 0.0
C3267 C 0.59942 0.24137 0.77455 0.0
H3268 H 0.51501 0.01323 0.63719 0.0
H3269 H 0.62462 0.01353 0.60909 0.0
H3270 H 0.49218 0.017 0.59517 0.0
H3271 H 0.60112 0.01428 0.56601 0.0
H3272 H 0.53957 0.0113 0.49162 0.0
H3273 H 0.56742 0.02349 0.53024 0.0
H3274 H 0.49299 0.98144 0.57247 0.0
H3275 H 0.46334 0.97016 0.53341 0.0
C3276 C 0.53464 0.01503 0.6222 0.0
C3277 C 0.57191 0.01103 0.6259 0.0
C3278 C 0.52126 0.01673 0.59796 0.0
C3279 C 0.54494 0.01376 0.5777 0.0
C3280 C 0.58237 0.01545 0.58157 0.0
C3281 C 0.59582 0.01477 0.60599 0.0
C3282 C 0.52985 0.00394 0.50907 0.0
C3283 C 0.49883 0.99006 0.50981 0.0
C3284 C 0.54558 0.01129 0.53119 0.0
C3285 C 0.531 0.00442 0.55419 0.0
C3286 C 0.50327 0.98803 0.55481 0.0
C3287 C 0.48696 0.98102 0.53263 0.0
H3288 H 0.59297 0.73996 0.27873 0.0
H3289 H 0.50657 0.77836 0.24363 0.0
H3290 H 0.55909 0.73972 0.31813 0.0
H3291 H 0.47232 0.77743 0.28287 0.0
H3292 H 0.42348 0.7289 0.35112 0.0
H3293 H 0.44563 0.74337 0.31078 0.0
H3294 H 0.53819 0.7725 0.3483 0.0
H3295 H 0.51855 0.75692 0.38758 0.0
C3296 C 0.56704 0.74853 0.2796 0.0
C3297 C 0.55249 0.75934 0.25848 0.0
C3298 C 0.54771 0.74841 0.30194 0.0
C3299 C 0.51373 0.7591 0.30327 0.0
C3300 C 0.49871 0.76943 0.28207 0.0
C3301 C 0.5182 0.76976 0.25978 0.0
C3302 C 0.44794 0.73896 0.35078 0.0
C3303 C 0.46961 0.74104 0.37237 0.0
C3304 C 0.46026 0.74746 0.32788 0.0
C3305 C 0.49389 0.75835 0.32685 0.0
C3306 C 0.51237 0.76378 0.34895 0.0
C3307 C 0.50066 0.75492 0.37157 0.0
H3308 H 0.61888 0.5224 0.10504 0.0
H3309 H 0.51156 0.51292 0.13652 0.0
H3310 H 0.59354 0.51807 1.06307 0.0
H3311 H 0.4865 0.51119 0.09504 0.0
H3312 H 0.46308 0.46763 1.02839 0.0
H3313 H 0.49164 0.47802 0.06837 0.0
H3314 H 0.55426 0.52964 1.03014 0.0
H3315 H 0.52697 0.5189 0.99067 0.0
C3316 C 0.58988 0.52039 0.10305 0.0
C3317 C 0.56783 0.51672 0.12414 0.0
C3318 C 0.57535 0.51801 0.07906 0.0
C3319 C 0.53844 0.51302 0.07623 0.0
C3320 C 0.5154 0.51385 0.09704 0.0
C3321 C 0.52995 0.51549 0.12092 0.0
C3322 C 0.48339 0.48087 1.02873 0.0
C3323 C 0.49291 0.49245 1.0068 0.0
C3324 C 0.49938 0.48701 1.0514 0.0
C3325 C 0.52431 0.50507 1.05217 0.0
C3326 C 0.53513 0.51573 1.02997 0.0
C3327 C 0.51957 0.50946 1.00743 0.0
H3328 H 0.48684 0.9892 0.97313 0.0
H3329 H 0.39129 0.98169 1.01913 0.0
H3330 H 0.45468 0.97325 0.93764 0.0
H3331 H 0.36035 0.96369 0.98453 0.0
H3332 H 0.31765 0.01072 0.91939 0.0
H3333 H 0.34369 0.99423 0.95611 0.0
H3334 H 0.41451 0.9535 0.90987 0.0
H3335 H 0.38909 0.97034 0.87288 0.0
C3336 C 0.45966 0.98312 0.97596 0.0
C3337 C 0.44109 0.98807 0.99825 0.0
C3338 C 0.4413 0.97345 0.95579 0.0
C3339 C 0.40424 0.96846 0.95808 0.0
C3340 C 0.38854 0.96829 0.98213 0.0
C3341 C 0.4065 0.97865 1.00204 0.0
C3342 C 0.33712 0.99748 0.91661 0.0
C3343 C 0.34909 0.9915 0.8925 0.0
C3344 C 0.35228 0.98776 0.93797 0.0
C3345 C 0.38084 0.97211 0.93594 0.0
C3346 C 0.39203 0.96516 0.91202 0.0
C3347 C 0.37676 0.97489 0.8906 0.0
H3348 H 0.93242 0.2601 0.99525 0.0
H3349 H 0.82654 0.2896 0.98742 0.0
H3350 H 0.95381 0.2822 0.95956 0.0
H3351 H 0.84706 0.3113 0.9506 0.0
H3352 H 0.88431 0.26909 0.87471 0.0
H3353 H 0.86006 0.28295 0.914 0.0
H3354 H 0.96087 0.31729 0.92962 0.0
H3355 H 0.98458 0.3042 0.88903 0.0
C3356 C 0.91418 0.27211 0.98638 0.0
C3357 C 0.87745 0.2726 0.99268 0.0
C3358 C 0.92641 0.285 0.96616 0.0
C3359 C 0.90172 0.29806 0.95204 0.0
C3360 C 0.8664 0.30119 0.96108 0.0
C3361 C 0.85442 0.28849 0.98153 0.0
C3362 C 0.90056 0.28077 0.88568 0.0
C3363 C 0.9369 0.2849 0.8796 0.0
C3364 C 0.88656 0.28887 0.90823 0.0
C3365 C 0.90903 0.30077 0.92503 0.0
C3366 C 0.94327 0.30798 0.91699 0.0
C3367 C 0.95702 0.30019 0.89414 0.0
H3368 H 0.38171 0.2614 0.36717 0.0
H3369 H 0.47638 0.29849 0.39127 0.0
H3370 H 0.34947 0.27396 0.40297 0.0
H3371 H 0.44345 0.31169 0.42832 0.0
H3372 H 0.42218 0.26377 0.49711 0.0
H3373 H 0.43729 0.28843 0.46231 0.0
H3374 H 0.32526 0.28749 0.43798 0.0
H3375 H 0.31283 0.25885 0.46904 0.0
C3376 C 0.39523 0.27322 0.37964 0.0
C3377 C 0.4322 0.27805 0.37719 0.0
C3378 C 0.37645 0.28072 0.40055 0.0
C3379 C 0.39459 0.29272 0.41976 0.0
C3380 C 0.42933 0.30134 0.41464 0.0
C3381 C 0.4483 0.29371 0.39358 0.0
C3382 C 0.40087 0.26902 0.4843 0.0
C3383 C 0.36658 0.25903 0.48538 0.0
C3384 C 0.40921 0.28368 0.46457 0.0
C3385 C 0.38283 0.28899 0.44618 0.0
C3386 C 0.34682 0.28261 0.45073 0.0
C3387 C 0.33943 0.26633 0.46883 0.0
H3388 H 0.9205 0.99163 0.37938 0.0
H3389 H 0.81403 0.00098 0.41105 0.0
H3390 H 0.93632 0.96764 0.415 0.0
H3391 H 0.82582 0.97236 0.44191 0.0
H3392 H 0.88455 0.98793 0.51464 0.0
H3393 H 0.85284 0.9829 0.47668 0.0
H3394 H 0.94066 0.94187 0.44711 0.0
H3395 H 0.97339 0.94737 0.48666 0.0
C3396 C 0.89991 0.98757 0.39319 0.0
C3397 C 0.86612 0.99834 0.39256 0.0
C3398 C 0.90855 0.97328 0.41329 0.0
C3399 C 0.88267 0.9687 0.43219 0.0
C3400 C 0.84717 0.97655 0.42874 0.0
C3401 C 0.84005 0.99277 0.41062 0.0
C3402 C 0.89667 0.97682 0.50076 0.0
C3403 C 0.93214 0.96866 0.50334 0.0
C3404 C 0.87811 0.97377 0.47847 0.0
C3405 C 0.89474 0.96271 0.45799 0.0
C3406 C 0.92775 0.95135 0.46207 0.0
C3407 C 0.94654 0.9545 0.48464 0.0
H3408 H 0.66749 0.00974 0.12383 0.0
H3409 H 0.56573 0.04274 0.13968 0.0
H3410 H 0.69372 0.02654 0.16127 0.0
H3411 H 0.59187 0.05937 0.17781 0.0
H3412 H 0.72928 0.03913 0.23532 0.0
H3413 H 0.70696 0.05673 0.19619 0.0
H3414 H 0.60236 0.02603 0.20897 0.0
H3415 H 0.62531 0.00779 0.2466 0.0
C3416 C 0.65129 0.02155 0.13468 0.0
C3417 C 0.61425 0.02432 0.12978 0.0
C3418 C 0.66642 0.03141 0.15601 0.0
C3419 C 0.64438 0.04379 0.17264 0.0
C3420 C 0.60911 0.04968 0.1653 0.0
C3421 C 0.59405 0.03989 0.14389 0.0
C3422 C 0.70151 0.03662 0.2296 0.0
C3423 C 0.6795 0.02142 0.24277 0.0
C3424 C 0.68854 0.04702 0.20781 0.0
C3425 C 0.65322 0.04252 0.19955 0.0
C3426 C 0.62967 0.03 0.21502 0.0
C3427 C 0.64286 0.01932 0.23644 0.0
H3428 H 0.14212 0.7377 0.12098 0.0
H3429 H 0.2413 0.70246 0.1388 0.0
H3430 H 0.11635 0.72584 0.16041 0.0
H3431 H 0.21574 0.69116 0.17968 0.0
H3432 H 0.18397 0.74438 0.24769 0.0
H3433 H 0.20712 0.72394 0.21109 0.0
H3434 H 0.09932 0.6992 0.19519 0.0
H3435 H 0.07687 0.7199 0.23193 0.0
C3436 C 0.15788 0.72644 0.13285 0.0
C3437 C 0.19427 0.72166 0.12751 0.0
C3438 C 0.14301 0.71953 0.15557 0.0
C3439 C 0.16449 0.70802 0.17334 0.0
C3440 C 0.199 0.70035 0.16637 0.0
C3441 C 0.21371 0.707 0.14332 0.0
C3442 C 0.16573 0.73375 0.2369 0.0
C3443 C 0.12845 0.73408 0.24152 0.0
C3444 C 0.17893 0.72181 0.21617 0.0
C3445 C 0.15474 0.71035 0.20007 0.0
C3446 C 0.11839 0.70804 0.20719 0.0
C3447 C 0.10539 0.72002 0.22779 0.0
H3448 H 0.56612 0.70304 0.74598 0.0
H3449 H 0.67268 0.73241 0.74764 0.0
H3450 H 0.58269 0.68085 0.70866 0.0
H3451 H 0.68982 0.71021 0.71124 0.0
H3452 H 0.71214 0.69953 0.64014 0.0
H3453 H 0.69438 0.67928 0.67838 0.0
H3454 H 0.58734 0.70858 0.67234 0.0
H3455 H 0.60561 0.72876 0.6347 0.0
C3456 C 0.59348 0.70389 0.73885 0.0
C3457 C 0.6176 0.72002 0.74837 0.0
C3458 C 0.60318 0.69097 0.71794 0.0
C3459 C 0.637 0.6944 0.70654 0.0
C3460 C 0.66336 0.70725 0.71939 0.0
C3461 C 0.65353 0.72023 0.74014 0.0
C3462 C 0.6844 0.70054 0.6465 0.0
C3463 C 0.6606 0.71621 0.63563 0.0
C3464 C 0.67404 0.68876 0.66807 0.0
C3465 C 0.64006 0.6931 0.67887 0.0
C3466 C 0.61395 0.70505 0.66471 0.0
C3467 C 0.62439 0.71684 0.6432 0.0
H3468 H 0.21637 0.00042 0.70963 0.0
H3469 H 0.13339 0.0252 0.75971 0.0
H3470 H 0.19641 0.02472 0.67747 0.0
H3471 H 0.11121 0.04961 0.72614 0.0
H3472 H 0.05343 0.01496 0.6573 0.0
H3473 H 0.07801 0.03354 0.69375 0.0
H3474 H 0.17276 0.05185 0.65069 0.0
H3475 H 0.14977 0.03034 0.61527 0.0
C3476 C 0.19495 0.01185 0.71437 0.0
C3477 C 0.17704 0.01051 0.73753 0.0
C3478 C 0.18309 0.02622 0.69555 0.0
C3479 C 0.15108 0.03875 0.69864 0.0
C3480 C 0.13551 0.03976 0.72286 0.0
C3481 C 0.14821 0.0256 0.74214 0.0
C3482 C 0.07906 0.02336 0.65556 0.0
C3483 C 0.10047 0.01965 0.6343 0.0
C3484 C 0.093 0.03472 0.6763 0.0
C3485 C 0.12876 0.04273 0.67575 0.0
C3486 C 0.14595 0.04454 0.65213 0.0
C3487 C 0.13269 0.03213 0.63171 0.0
H3488 H 0.48603 0.50055 0.46368 0.0
H3489 H 0.37866 0.49107 0.49388 0.0
H3490 H 0.47438 0.47251 0.43194 0.0
H3491 H 0.36394 0.46683 0.45892 0.0
H3492 H 0.3222 0.45255 0.39029 0.0
H3493 H 0.35882 0.44196 0.42676 0.0
H3494 H 0.4473 0.48203 0.39679 0.0
H3495 H 0.41187 0.49199 0.36166 0.0
C3496 C 0.4599 0.49251 0.46358 0.0
C3497 C 0.43335 0.498 0.48132 0.0
C3498 C 0.45295 0.47647 0.44513 0.0
C3499 C 0.41758 0.46826 0.44166 0.0
C3500 C 0.3916 0.47267 0.46048 0.0
C3501 C 0.39965 0.48717 0.48029 0.0
C3502 C 0.34992 0.45841 0.39146 0.0
C3503 C 0.3635 0.47393 0.37385 0.0
C3504 C 0.371 0.4523 0.41221 0.0
C3505 C 0.40506 0.46252 0.41588 0.0
C3506 C 0.4209 0.47421 0.39556 0.0
C3507 C 0.40013 0.48017 0.37498 0.0
H3508 H 0.80846 0.75514 0.46529 0.0
H3509 H 0.91535 0.76231 0.49741 0.0
H3510 H 0.82151 0.78424 0.43524 0.0
H3511 H 0.93171 0.78725 0.46321 0.0
H3512 H 0.97146 0.80962 0.39469 0.0
H3513 H 0.93624 0.81494 0.43312 0.0
H3514 H 0.84997 0.77469 0.40041 0.0
H3515 H 0.88392 0.7697 0.36354 0.0
C3516 C 0.8346 0.76307 0.46628 0.0
C3517 C 0.86048 0.75678 0.48422 0.0
C3518 C 0.84248 0.77959 0.44856 0.0
C3519 C 0.87816 0.78741 0.4458 0.0
C3520 C 0.90379 0.78186 0.4645 0.0
C3521 C 0.89475 0.76698 0.48378 0.0
C3522 C 0.94439 0.80266 0.39568 0.0
C3523 C 0.93109 0.78867 0.37642 0.0
C3524 C 0.92416 0.80574 0.41761 0.0
C3525 C 0.89093 0.79438 0.42055 0.0
C3526 C 0.87539 0.78372 0.39945 0.0
C3527 C 0.89534 0.78072 0.37779 0.0
H3528 H 0.47574 0.74231 0.91964 0.0
H3529 H 0.37632 0.75721 0.88068 0.0
H3530 H 0.46278 0.76989 0.95031 0.0
H3531 H 0.35618 0.77847 0.91707 0.0
H3532 H 0.31287 0.80026 0.98685 0.0
H3533 H 0.348 0.80351 0.94807 0.0
H3534 H 0.4351 0.76622 0.98457 0.0
H3535 H 0.4017 0.76396 1.02144 0.0
C3536 C 0.45106 0.7514 0.91748 0.0
C3537 C 0.42902 0.74889 0.89641 0.0
C3538 C 0.44243 0.76672 0.9361 0.0
C3539 C 0.4075 0.77596 0.93742 0.0
C3540 C 0.38378 0.77237 0.91693 0.0
C3541 C 0.39493 0.75953 0.89626 0.0
C3542 C 0.34014 0.79359 0.98637 0.0
C3543 C 0.35376 0.78105 1.00672 0.0
C3544 C 0.36024 0.79524 0.96418 0.0
C3545 C 0.39365 0.78384 0.96217 0.0
C3546 C 0.40953 0.77507 0.98429 0.0
C3547 C 0.38987 0.77372 1.00621 0.0
H3548 H 0.90102 0.48907 0.86712 0.0
H3549 H 0.80539 0.45211 0.88876 0.0
H3550 H 0.9287 0.48055 0.9062 0.0
H3551 H 0.83328 0.44352 0.92987 0.0
H3552 H 0.861 0.49388 0.99919 0.0
H3553 H 0.83999 0.47134 0.96321 0.0
H3554 H 0.95109 0.46167 0.93991 0.0
H3555 H 0.96881 0.48944 0.96978 0.0
C3556 C 0.88646 0.47802 0.8799 0.0
C3557 C 0.85036 0.47198 0.87556 0.0
C3558 C 0.90249 0.47297 0.9027 0.0
C3559 C 0.88266 0.46185 0.92175 0.0
C3560 C 0.84865 0.45272 0.91584 0.0
C3561 C 0.83264 0.4577 0.89264 0.0
C3562 C 0.88063 0.4868 0.98623 0.0
C3563 C 0.9171 0.49323 0.9875 0.0
C3564 C 0.86883 0.47335 0.96607 0.0
C3565 C 0.89399 0.46528 0.94815 0.0
C3566 C 0.93087 0.46822 0.95279 0.0
C3567 C 0.94161 0.48378 0.97058 0.0
H3568 H 0.72196 0.55162 0.73706 0.0
H3569 H 0.63677 0.51017 0.76863 0.0
H3570 H 0.68431 0.55858 0.7 0.0
H3571 H 0.60078 0.51601 0.73254 0.0
H3572 H 0.55847 0.49759 0.66591 0.0
H3573 H 0.57098 0.52513 0.69811 0.0
H3574 H 0.67999 0.53245 0.66893 0.0
H3575 H 0.66442 0.50866 0.63378 0.0
C3576 C 0.69486 0.54465 0.73642 0.0
C3577 C 0.68278 0.52985 0.75527 0.0
C3578 C 0.67328 0.54854 0.71526 0.0
C3579 C 0.64029 0.53682 0.71242 0.0
C3580 C 0.62601 0.52526 0.73336 0.0
C3581 C 0.6471 0.52172 0.75446 0.0
C3582 C 0.58436 0.50601 0.66555 0.0
C3583 C 0.61026 0.50118 0.64709 0.0
C3584 C 0.59184 0.52167 0.68432 0.0
C3585 C 0.62706 0.53036 0.68706 0.0
C3586 C 0.65242 0.5264 0.66775 0.0
C3587 C 0.64385 0.51219 0.6478 0.0
H3588 H 0.07846 0.19266 0.738 0.0
H3589 H 0.16142 0.23465 0.77162 0.0
H3590 H 0.11633 0.18805 0.70076 0.0
H3591 H 0.19763 0.23085 0.73559 0.0
H3592 H 0.23344 0.25645 0.66876 0.0
H3593 H 0.22549 0.22751 0.69994 0.0
H3594 H 0.11722 0.21522 0.67115 0.0
H3595 H 0.12918 0.24044 0.63652 0.0
C3596 C 0.10513 0.20026 0.73778 0.0
C3597 C 0.11611 0.21489 0.75713 0.0
C3598 C 0.12684 0.19773 0.71647 0.0
C3599 C 0.15874 0.21064 0.71409 0.0
C3600 C 0.17283 0.22116 0.73578 0.0
C3601 C 0.15157 0.22344 0.75699 0.0
C3602 C 0.20866 0.24688 0.66838 0.0
C3603 C 0.18234 0.25044 0.64981 0.0
C3604 C 0.20373 0.23035 0.68663 0.0
C3605 C 0.17007 0.21946 0.68912 0.0
C3606 C 0.14381 0.22281 0.67015 0.0
C3607 C 0.15018 0.23786 0.65053 0.0
H3608 H 0.72876 0.24576 0.16225 0.0
H3609 H 0.62119 0.23837 0.13172 0.0
H3610 H 0.71715 0.21661 0.19247 0.0
H3611 H 0.60563 0.21416 0.16706 0.0
H3612 H 0.56672 0.20268 0.23896 0.0
H3613 H 0.59892 0.19116 0.20089 0.0
H3614 H 0.6935 0.22744 0.2279 0.0
H3615 H 0.66177 0.23851 0.26437 0.0
C3616 C 0.70257 0.23781 0.16189 0.0
C3617 C 0.67607 0.24419 0.1444 0.0
C3618 C 0.6955 0.22132 0.17972 0.0
C3619 C 0.65972 0.21432 0.18383 0.0
C3620 C 0.63357 0.21932 0.16514 0.0
C3621 C 0.64208 0.23376 0.14515 0.0
C3622 C 0.59473 0.20755 0.23663 0.0
C3623 C 0.61105 0.22253 0.25366 0.0
C3624 C 0.61329 0.20091 0.21498 0.0
C3625 C 0.64798 0.2097 0.21012 0.0
C3626 C 0.66648 0.22069 0.22995 0.0
C3627 C 0.64802 0.22728 0.25136 0.0
H3628 H 0.17252 0.5081 0.12843 0.0
H3629 H 0.07139 0.54155 0.14435 0.0
H3630 H 0.19875 0.52419 0.16638 0.0
H3631 H 0.09691 0.55683 0.1835 0.0
H3632 H 0.23727 0.54271 0.23881 0.0
H3633 H 0.21182 0.55717 0.1992 0.0
H3634 H 0.11085 0.52355 0.21589 0.0
H3635 H 0.13661 0.50828 0.25428 0.0
C3636 C 0.15638 0.51971 0.13959 0.0
C3637 C 0.11953 0.52298 0.13446 0.0
C3638 C 0.17143 0.52908 0.1612 0.0
C3639 C 0.14952 0.54143 0.17793 0.0
C3640 C 0.11414 0.54726 0.17087 0.0
C3641 C 0.09936 0.53821 0.14896 0.0
C3642 C 0.20946 0.53889 0.23405 0.0
C3643 C 0.18937 0.52376 0.24885 0.0
C3644 C 0.19478 0.54748 0.21183 0.0
C3645 C 0.15966 0.54133 0.20461 0.0
C3646 C 0.13792 0.52878 0.22123 0.0
C3647 C 0.15279 0.51988 0.24316 0.0
H3648 H 0.31632 0.19326 0.18423 0.0
H3649 H 0.35229 0.16196 0.25332 0.0
H3650 H 0.31307 0.1561 0.16428 0.0
H3651 H 0.35155 0.12501 0.23306 0.0
H3652 H 0.31925 0.0577 0.19743 0.0
H3653 H 0.31766 0.09486 0.21764 0.0
H3654 H 0.34531 0.12637 0.14669 0.0
H3655 H 0.34421 0.08946 0.12636 0.0
C3656 C 0.32378 0.17848 0.1952 0.0
C3657 C 0.33519 0.1809 0.2204 0.0
C3658 C 0.32235 0.15701 0.1836 0.0
C3659 C 0.33236 0.13711 0.19675 0.0
C3660 C 0.34326 0.13961 0.22211 0.0
C3661 C 0.34439 0.16105 0.23373 0.0
C3662 C 0.32456 0.0726 0.18607 0.0
C3663 C 0.33252 0.07033 0.16023 0.0
C3664 C 0.32414 0.09405 0.19778 0.0
C3665 C 0.33173 0.11405 0.18409 0.0
C3666 C 0.33898 0.11169 0.1581 0.0
C3667 C 0.33904 0.09029 0.14639 0.0
H3668 H 0.98206 0.06015 0.18654 0.0
H3669 H 0.94443 0.08971 0.25612 0.0
H3670 H 0.98372 0.09803 0.16737 0.0
H3671 H 0.94266 0.127 0.2361 0.0
H3672 H 0.90067 0.17804 0.16807 0.0
H3673 H 0.90318 0.14036 0.18753 0.0
H3674 H 1.01974 0.14236 0.18571 0.0
H3675 H 1.0174 0.18049 0.1668 0.0
C3676 C 0.97375 0.07457 0.19776 0.0
C3677 C 0.96166 0.07148 0.22277 0.0
C3678 C 0.97462 0.09628 0.18667 0.0
C3679 C 0.96277 0.11543 0.20011 0.0
C3680 C 0.95141 0.1125 0.22515 0.0
C3681 C 0.95173 0.09096 0.23649 0.0
C3682 C 0.92689 0.17052 0.17185 0.0
C3683 C 0.95885 0.18238 0.16591 0.0
C3684 C 0.92828 0.14894 0.18303 0.0
C3685 C 0.96164 0.13838 0.18807 0.0
C3686 C 0.99365 0.15007 0.18197 0.0
C3687 C 0.99229 0.17195 0.17131 0.0
H3688 H 0.69847 0.83943 0.87753 0.0
H3689 H 0.72882 0.80805 0.94783 0.0
H3690 H 0.69863 0.87631 0.89749 0.0
H3691 H 0.73253 0.84526 0.96751 0.0
H3692 H 0.70558 0.91297 1.00414 0.0
H3693 H 0.70385 0.87583 0.98456 0.0
H3694 H 0.73015 0.90638 0.91277 0.0
H3695 H 0.72827 0.94377 0.93222 0.0
C3696 C 0.70491 0.84029 0.89734 0.0
C3697 C 0.71253 0.82042 0.91104 0.0
C3698 C 0.70593 0.86175 0.90883 0.0
C3699 C 0.7156 0.86433 0.93442 0.0
C3700 C 0.72415 0.84438 0.94799 0.0
C3701 C 0.72248 0.82285 0.93655 0.0
C3702 C 0.71012 0.91187 0.98406 0.0
C3703 C 0.71596 0.93166 0.96975 0.0
C3704 C 0.70992 0.8903 0.97276 0.0
C3705 C 0.71658 0.88756 0.94675 0.0
C3706 C 0.72389 0.9074 0.93265 0.0
C3707 C 0.72341 0.92903 0.94392 0.0
H3708 H 0.02847 0.82607 0.97897 0.0
H3709 H 0.13861 0.81697 0.95433 0.0
H3710 H 0.02814 0.86443 0.9606 0.0
H3711 H 0.13774 0.85468 0.93492 0.0
H3712 H 0.09698 0.91044 0.87681 0.0
H3713 H 0.0981 0.8734 0.89717 0.0
H3714 H 0.066 0.90413 0.96731 0.0
H3715 H 0.06804 0.94174 0.94739 0.0
C3716 C 0.05244 0.83211 0.96938 0.0
C3717 C 0.08347 0.81832 0.96793 0.0
C3718 C 0.05234 0.85416 0.95899 0.0
C3719 C 0.08286 0.86266 0.94616 0.0
C3720 C 0.1137 0.8487 0.94452 0.0
C3721 C 0.11418 0.82703 0.9556 0.0
C3722 C 0.09149 0.9096 0.89675 0.0
C3723 C 0.08399 0.92949 0.9105 0.0
C3724 C 0.09153 0.88818 0.90838 0.0
C3725 C 0.08246 0.88571 0.93397 0.0
C3726 C 0.07322 0.90538 0.94758 0.0
C3727 C 0.0743 0.92697 0.93609 0.0
H3728 H 0.3543 0.66228 0.75139 0.0
H3729 H 0.30625 0.69013 0.68408 0.0
H3730 H 0.35538 0.62496 0.73235 0.0
H3731 H 0.30428 0.65236 0.66558 0.0
H3732 H 0.33483 0.58619 0.62792 0.0
H3733 H 0.33613 0.62352 0.64684 0.0
H3734 H 0.32349 0.59315 0.72049 0.0
H3735 H 0.32584 0.55554 0.70139 0.0
C3736 C 0.34428 0.66055 0.7324 0.0
C3737 C 0.33121 0.67956 0.71916 0.0
C3738 C 0.34406 0.63884 0.72155 0.0
C3739 C 0.33001 0.63519 0.69717 0.0
C3740 C 0.31612 0.65422 0.68412 0.0
C3741 C 0.31681 0.67601 0.6949 0.0
C3742 C 0.33351 0.58735 0.64819 0.0
C3743 C 0.33151 0.56762 0.66306 0.0
C3744 C 0.33329 0.609 0.65915 0.0
C3745 C 0.33002 0.61182 0.68543 0.0
C3746 C 0.32687 0.592 0.70028 0.0
C3747 C 0.32771 0.57028 0.68927 0.0
H3748 H 0.94749 0.66347 0.62894 0.0
H3749 H 0.98016 0.69315 0.69957 0.0
H3750 H 0.94478 0.62632 0.64855 0.0
H3751 H 0.98014 0.65557 0.71904 0.0
H3752 H 0.94397 0.58847 0.75374 0.0
H3753 H 0.94378 0.62587 0.73435 0.0
H3754 H 0.97947 0.59626 0.66416 0.0
H3755 H 0.97712 0.55868 0.68325 0.0
C3756 C 0.95373 0.66214 0.64876 0.0
C3757 C 0.96312 0.68153 0.66272 0.0
C3758 C 0.95298 0.64061 0.65999 0.0
C3759 C 0.9622 0.63761 0.68556 0.0
C3760 C 0.97223 0.65703 0.69946 0.0
C3761 C 0.9727 0.67864 0.6882 0.0
C3762 C 0.95099 0.58984 0.73403 0.0
C3763 C 0.95983 0.57037 0.72001 0.0
C3764 C 0.95158 0.61147 0.72295 0.0
C3765 C 0.96157 0.61441 0.69751 0.0
C3766 C 0.97099 0.59488 0.68362 0.0
C3767 C 0.9701 0.57324 0.69469 0.0
H3768 H 0.69808 0.33689 0.37453 0.0
H3769 H 0.72623 0.30666 0.44593 0.0
H3770 H 0.69847 0.37432 0.39376 0.0
H3771 H 0.72895 0.34426 0.465 0.0
H3772 H 0.69525 0.4112 0.49945 0.0
H3773 H 0.69431 0.37434 0.47966 0.0
H3774 H 0.73279 0.40432 0.41039 0.0
H3775 H 0.7308 0.44182 0.43005 0.0
C3776 C 0.70427 0.33818 0.3944 0.0
C3777 C 0.7114 0.31854 0.4087 0.0
C3778 C 0.70513 0.35984 0.40542 0.0
C3779 C 0.71359 0.3627 0.43114 0.0
C3780 C 0.72161 0.34301 0.4453 0.0
C3781 C 0.72051 0.32132 0.43426 0.0
C3782 C 0.70249 0.41021 0.47985 0.0
C3783 C 0.71197 0.42987 0.46634 0.0
C3784 C 0.70285 0.38873 0.4685 0.0
C3785 C 0.71349 0.38593 0.44321 0.0
C3786 C 0.7238 0.40558 0.42974 0.0
C3787 C 0.72306 0.42718 0.44113 0.0
H3788 H 0.0912 0.33604 0.50002 0.0
H3789 H 0.06759 0.30547 0.4282 0.0
H3790 H 0.09362 0.37304 0.4807 0.0
H3791 H 0.06649 0.34314 0.40878 0.0
H3792 H 0.09817 0.41181 0.37528 0.0
H3793 H 0.09845 0.37421 0.39407 0.0
H3794 H 0.06227 0.40301 0.46458 0.0
H3795 H 0.06519 0.44076 0.4462 0.0
C3796 C 0.08688 0.3371 0.47997 0.0
C3797 C 0.0804 0.3174 0.46571 0.0
C3798 C 0.08729 0.35868 0.46882 0.0
C3799 C 0.08021 0.36162 0.44291 0.0
C3800 C 0.07277 0.34189 0.42865 0.0
C3801 C 0.0729 0.32015 0.43987 0.0
C3802 C 0.09125 0.41025 0.39498 0.0
C3803 C 0.08268 0.42964 0.40928 0.0
C3804 C 0.0906 0.38842 0.40574 0.0
C3805 C 0.08055 0.38507 0.43112 0.0
C3806 C 0.07104 0.40452 0.4452 0.0
C3807 C 0.07223 0.42636 0.43452 0.0
H3808 H 0.89147 0.07722 0.65669 0.0
H3809 H 0.77971 0.06746 0.67671 0.0
H3810 H 0.88965 0.11542 0.67254 0.0
H3811 H 0.77828 0.10563 0.69496 0.0
H3812 H 0.77905 0.18364 0.70591 0.0
H3813 H 0.77778 0.14546 0.68765 0.0
H3814 H 0.89005 0.13635 0.70846 0.0
H3815 H 0.89172 0.17455 0.72425 0.0
C3816 C 0.86634 0.08326 0.66433 0.0
C3817 C 0.83567 0.06924 0.66469 0.0
C3818 C 0.86539 0.10524 0.67409 0.0
C3819 C 0.83382 0.11396 0.68535 0.0
C3820 C 0.80302 0.09981 0.68616 0.0
C3821 C 0.80394 0.07776 0.67594 0.0
C3822 C 0.80347 0.17348 0.70634 0.0
C3823 C 0.83534 0.18213 0.71727 0.0
C3824 C 0.80268 0.15142 0.69611 0.0
C3825 C 0.83376 0.13745 0.69649 0.0
C3826 C 0.86554 0.14636 0.70729 0.0
C3827 C 0.86636 0.16833 0.71707 0.0
H3828 H 0.51712 0.18258 0.67091 0.0
H3829 H 0.40118 0.17879 0.66359 0.0
H3830 H 0.51773 0.14435 0.68949 0.0
H3831 H 0.40169 0.14048 0.68012 0.0
H3832 H 0.40545 0.08036 0.73236 0.0
H3833 H 0.40765 0.11871 0.71611 0.0
H3834 H 0.51096 0.10451 0.6815 0.0
H3835 H 0.5094 0.06608 0.69901 0.0
C3836 C 0.49179 0.17357 0.67313 0.0
C3837 C 0.45919 0.18361 0.66506 0.0
C3838 C 0.4921 0.15148 0.68351 0.0
C3839 C 0.45978 0.13887 0.6863 0.0
C3840 C 0.42724 0.14934 0.67866 0.0
C3841 C 0.42697 0.17131 0.66854 0.0
C3842 C 0.42893 0.08534 0.72158 0.0
C3843 C 0.4574 0.0699 0.71741 0.0
C3844 C 0.43001 0.10749 0.71184 0.0
C3845 C 0.45948 0.11512 0.69723 0.0
C3846 C 0.48796 0.09961 0.69288 0.0
C3847 C 0.48691 0.07737 0.70275 0.0
H3848 H 0.26897 0.81877 0.41989 0.0
H3849 H 0.15362 0.82301 0.41172 0.0
H3850 H 0.26956 0.85659 0.43861 0.0
H3851 H 0.15388 0.86151 0.42576 0.0
H3852 H 0.1523 0.92617 0.4677 0.0
H3853 H 0.1537 0.88773 0.45341 0.0
H3854 H 0.26874 0.89437 0.43909 0.0
H3855 H 0.26719 0.93206 0.45808 0.0
C3856 C 0.24373 0.82802 0.42143 0.0
C3857 C 0.2113 0.81823 0.41282 0.0
C3858 C 0.24401 0.85005 0.43189 0.0
C3859 C 0.21187 0.86312 0.43376 0.0
C3860 C 0.17955 0.85277 0.42538 0.0
C3861 C 0.1793 0.83063 0.416 0.0
C3862 C 0.17814 0.91893 0.46306 0.0
C3863 C 0.20974 0.93175 0.46586 0.0
C3864 C 0.17902 0.89684 0.45352 0.0
C3865 C 0.21151 0.88698 0.44469 0.0
C3866 C 0.24314 0.9005 0.44619 0.0
C3867 C 0.24229 0.92246 0.45679 0.0
H3868 H 0.6395 0.82371 0.47407 0.0
H3869 H 0.52905 0.81411 0.45016 0.0
H3870 H 0.63828 0.86227 0.45887 0.0
H3871 H 0.52857 0.85259 0.43264 0.0
H3872 H 0.52763 0.93052 0.42348 0.0
H3873 H 0.52659 0.89199 0.44076 0.0
H3874 H 0.64067 0.88514 0.42436 0.0
H3875 H 0.64198 0.92386 0.40932 0.0
C3876 C 0.61469 0.82986 0.46572 0.0
C3877 C 0.584 0.81579 0.46426 0.0
C3878 C 0.61423 0.85207 0.45633 0.0
C3879 C 0.5833 0.86102 0.44432 0.0
C3880 C 0.55278 0.8467 0.44212 0.0
C3881 C 0.55314 0.82442 0.45192 0.0
C3882 C 0.55252 0.9208 0.42383 0.0
C3883 C 0.58474 0.93025 0.41435 0.0
C3884 C 0.55188 0.89849 0.43347 0.0
C3885 C 0.58346 0.88496 0.43396 0.0
C3886 C 0.61569 0.89472 0.42474 0.0
C3887 C 0.61636 0.91698 0.41544 0.0
H3888 H 0.89509 0.57148 0.16612 0.0
H3889 H 0.77884 0.57213 0.1626 0.0
H3890 H 0.8953 0.60979 0.18257 0.0
H3891 H 0.77826 0.61009 0.18159 0.0
H3892 H 0.78941 0.68733 0.19543 0.0
H3893 H 0.78776 0.64929 0.17705 0.0
H3894 H 0.88672 0.63255 0.2164 0.0
H3895 H 0.88927 0.6705 0.23315 0.0
C3896 C 0.86948 0.58006 0.16841 0.0
C3897 C 0.83716 0.56907 0.16176 0.0
C3898 C 0.8694 0.60199 0.1787 0.0
C3899 C 0.83675 0.61366 0.18358 0.0
C3900 C 0.80413 0.60221 0.17773 0.0
C3901 C 0.80435 0.58024 0.16705 0.0
C3902 C 0.81096 0.67557 0.20002 0.0
C3903 C 0.83942 0.68232 0.21611 0.0
C3904 C 0.80985 0.6535 0.18961 0.0
C3905 C 0.83712 0.63733 0.19495 0.0
C3906 C 0.86539 0.64422 0.21114 0.0
C3907 C 0.86663 0.66621 0.22125 0.0
H3908 H 0.47257 0.55845 0.18345 0.0
H3909 H 0.44457 0.58912 0.25455 0.0
H3910 H 0.47386 0.59583 0.16373 0.0
H3911 H 0.44404 0.62641 0.23468 0.0
H3912 H 0.47755 0.69346 0.19749 0.0
H3913 H 0.47908 0.65608 0.21743 0.0
H3914 H 0.43837 0.62608 0.1488 0.0
H3915 H 0.43905 0.66313 0.12864 0.0
C3916 C 0.46661 0.57316 0.19494 0.0
C3917 C 0.45811 0.57053 0.22066 0.0
C3918 C 0.46692 0.59472 0.18351 0.0
C3919 C 0.45882 0.61452 0.19737 0.0
C3920 C 0.45078 0.61184 0.22321 0.0
C3921 C 0.45055 0.59027 0.23464 0.0
C3922 C 0.46922 0.67885 0.18657 0.0
C3923 C 0.4576 0.68157 0.16145 0.0
C3924 C 0.46968 0.65731 0.19814 0.0
C3925 C 0.45864 0.63769 0.18497 0.0
C3926 C 0.44743 0.64049 0.15972 0.0
C3927 C 0.44713 0.66198 0.14817 0.0
H3928 H 0.15243 0.42448 0.97075 0.0
H3929 H 0.26464 0.43306 0.9508 0.0
H3930 H 0.1536 0.38609 0.95532 0.0
H3931 H 0.26524 0.39462 0.93296 0.0
H3932 H 0.26289 0.31614 0.92278 0.0
H3933 H 0.26513 0.35468 0.94026 0.0
H3934 H 0.15255 0.36401 0.92054 0.0
H3935 H 0.15017 0.32556 0.90564 0.0
C3936 C 0.17759 0.41815 0.96313 0.0
C3937 C 0.20868 0.43191 0.96277 0.0
C3938 C 0.17809 0.39602 0.95362 0.0
C3939 C 0.20952 0.38679 0.94257 0.0
C3940 C 0.24058 0.40076 0.94159 0.0
C3941 C 0.24016 0.423 0.95154 0.0
C3942 C 0.23862 0.32645 0.92234 0.0
C3943 C 0.20644 0.31777 0.91179 0.0
C3944 C 0.23997 0.34874 0.93217 0.0
C3945 C 0.2091 0.36297 0.93187 0.0
C3946 C 0.17702 0.35395 0.92161 0.0
C3947 C 0.17573 0.3318 0.91222 0.0
H3948 H 0.52894 0.31827 0.9612 0.0
H3949 H 0.64427 0.32318 0.96955 0.0
H3950 H 0.52807 0.35563 0.94091 0.0
H3951 H 0.6435 0.36129 0.95367 0.0
H3952 H 0.64473 0.42191 0.90505 0.0
H3953 H 0.64237 0.38405 0.92131 0.0
H3954 H 0.53005 0.39443 0.94145 0.0
H3955 H 0.53205 0.43182 0.92143 0.0
C3956 C 0.55405 0.3276 0.95941 0.0
C3957 C 0.58657 0.31816 0.9685 0.0
C3958 C 0.55359 0.34927 0.94802 0.0
C3959 C 0.58563 0.36224 0.94555 0.0
C3960 C 0.618 0.35237 0.95456 0.0
C3961 C 0.61847 0.33059 0.96501 0.0
C3962 C 0.61912 0.41578 0.9116 0.0
C3963 C 0.5884 0.42969 0.91044 0.0
C3964 C 0.61786 0.39404 0.92212 0.0
C3965 C 0.58597 0.38552 0.93325 0.0
C3966 C 0.55512 0.39978 0.93279 0.0
C3967 C 0.5563 0.42148 0.92149 0.0
H3968 H 0.2952 0.04083 1.046 0.0
H3969 H 0.27822 0.97036 1.06145 0.0
H3970 H 0.25331 0.03888 1.01048 0.0
H3971 H 0.23515 0.96826 1.02583 0.0
H3972 H 0.16471 0.96553 0.94871 0.0
H3973 H 0.20745 0.96594 0.98464 0.0
H3974 H 0.20345 0.03875 0.98518 0.0
H3975 H 0.16094 0.03809 0.94994 0.0
C3976 C 0.28197 0.02476 1.04252 0.0
C3977 C 0.29052 0.00619 1.05885 0.0
C3978 C 0.25709 0.02354 1.02133 0.0
C3979 C 0.23851 0.00337 1.01361 0.0
C3980 C 0.24745 0.98451 1.02975 0.0
C3981 C 0.27246 0.9858 1.05117 0.0
C3982 C 0.17345 0.98182 0.95584 0.0
C3983 C 0.1591 0.00186 0.94414 0.0
C3984 C 0.19837 0.98211 0.97737 0.0
C3985 C 0.21115 0.00245 0.98947 0.0
C3986 C 0.19642 0.02232 0.97768 0.0
C3987 C 0.17126 0.02197 0.9566 0.0
H3988 H 0.13531 0.28428 0.95048 0.0
H3989 H 0.1393 0.21171 0.95192 0.0
H3990 H 0.09294 0.28389 0.98654 0.0
H3991 H 0.09733 0.21106 0.98738 0.0
H3992 H 1.00682 0.20845 1.04795 0.0
H3993 H 0.0478 0.21086 1.01226 0.0
H3994 H 0.06495 0.28159 1.02763 0.0
H3995 H 0.02235 0.27909 1.06348 0.0
C3996 C 0.12681 0.26799 0.95781 0.0
C3997 C 0.14093 0.24794 0.94612 0.0
C3998 C 0.10208 0.26773 0.97934 0.0
C3999 C 0.08939 0.24738 0.99143 0.0
C4000 C 0.1042 0.22749 0.97979 0.0
C4001 C 0.12909 0.22781 0.95864 0.0
C4002 C 1.01914 0.22475 1.04421 0.0
C4003 C 1.01006 0.24328 1.06037 0.0
C4004 C 0.04371 0.22619 1.02301 0.0
C4005 C 0.06195 0.24646 1.01538 0.0
C4006 C 0.05274 0.26529 1.03146 0.0
C4007 C 0.02783 0.26381 1.05288 0.0
H4008 H 0.30192 0.28018 0.33427 0.0
H4009 H 0.27327 0.21089 0.32154 0.0
H4010 H 0.25985 0.28161 0.37047 0.0
H4011 H 0.22948 0.21261 0.35621 0.0
H4012 H 0.13028 0.2225 0.41125 0.0
H4013 H 0.17374 0.22262 0.37681 0.0
H4014 H 0.23635 0.27312 0.41531 0.0
H4015 H 0.19197 0.27298 0.45044 0.0
C4016 C 0.28579 0.26528 0.33812 0.0
C4017 C 0.29082 0.24582 0.3222 0.0
C4018 C 0.26119 0.26601 0.3598 0.0
C4019 C 0.23881 0.24739 0.36775 0.0
C4020 C 0.24428 0.22794 0.3519 0.0
C4021 C 0.26979 0.227 0.33094 0.0
C4022 C 0.15336 0.23366 0.41319 0.0
C4023 C 0.15583 0.24728 0.43558 0.0
C4024 C 0.17926 0.23369 0.3926 0.0
C4025 C 0.21068 0.24776 0.39155 0.0
C4026 C 0.21351 0.26173 0.41387 0.0
C4027 C 0.18747 0.26145 0.43493 0.0
H4028 H 0.99826 0.04032 0.3358 0.0
H4029 H 1.02035 0.9708 0.31838 0.0
H4030 H 0.04089 0.0388 0.37091 0.0
H4031 H 0.06436 0.9692 0.3534 0.0
H4032 H 0.14003 0.96663 0.42754 0.0
H4033 H 0.09669 0.96687 0.3921 0.0
H4034 H 0.08824 0.03933 0.39819 0.0
H4035 H 0.13183 0.03886 0.43288 0.0
C4036 C 1.01277 0.02458 0.33874 0.0
C4037 C 1.00543 0.00619 0.3219 0.0
C4038 C 0.03813 0.02361 0.35971 0.0
C4039 C 0.05858 0.00388 0.36669 0.0
C4040 C 0.05072 0.98516 0.35011 0.0
C4041 C 0.02508 0.98616 0.32901 0.0
C4042 C 0.12844 0.98274 0.422 0.0
C4043 C 0.1398 0.00264 0.43539 0.0
C4044 C 0.10307 0.98297 0.40074 0.0
C4045 C 0.08659 0.00315 0.39057 0.0
C4046 C 0.09827 0.02295 0.40406 0.0
C4047 C 0.124 0.02271 0.42489 0.0
H4048 H 0.87451 0.03287 0.18595 0.0
H4049 H 0.89873 0.96293 0.17263 0.0
H4050 H 0.83068 0.03236 0.15091 0.0
H4051 H 0.8565 0.96236 0.1373 0.0
H4052 H 0.77544 0.96013 0.06916 0.0
H4053 H 0.81849 0.96158 0.10418 0.0
H4054 H 0.78962 0.03119 0.11749 0.0
H4055 H 0.74678 0.0295 0.08197 0.0
C4056 C 0.87011 0.01695 0.17636 0.0
C4057 C 0.89021 0.99751 0.18471 0.0
C4058 C 0.8446 0.01669 0.15517 0.0
C4059 C 0.8376 0.99719 0.13953 0.0
C4060 C 0.85868 0.97808 0.14761 0.0
C4061 C 0.88371 0.97833 0.16881 0.0
C4062 C 0.77851 0.97611 0.07894 0.0
C4063 C 0.75737 0.99496 0.0704 0.0
C4064 C 0.80384 0.97699 0.1 0.0
C4065 C 0.80987 0.99662 0.1155 0.0
C4066 C 0.78795 0.0154 0.10724 0.0
C4067 C 0.76275 0.01452 0.08598 0.0
H4068 H 0.03451 0.71934 0.07265 0.0
H4069 H 0.04157 0.79133 0.08146 0.0
H4070 H 0.99065 0.71755 0.10752 0.0
H4071 H 0.99895 0.78978 0.11653 0.0
H4072 H 0.92165 0.7874 0.18644 0.0
H4073 H 0.96538 0.78794 0.15192 0.0
H4074 H 0.94527 0.71722 0.13835 0.0
H4075 H 0.90202 0.71682 0.17366 0.0
C4076 C 0.02626 0.73514 0.08124 0.0
C4077 C 0.0417 0.75577 0.07178 0.0
C4078 C 1.00069 0.7341 0.10228 0.0
C4079 C 0.98893 0.75348 0.11661 0.0
C4080 C 1.00528 0.77393 0.10737 0.0
C4081 C 0.03048 0.77493 0.08635 0.0
C4082 C 0.92694 0.77157 0.17681 0.0
C4083 C 0.90803 0.75178 0.18522 0.0
C4084 C 0.95257 0.7719 0.15597 0.0
C4085 C 0.96113 0.75264 0.14052 0.0
C4086 C 0.94165 0.73283 0.1487 0.0
C4087 C 0.91622 0.73249 0.16982 0.0
H4088 H 0.92985 0.73138 0.72367 0.0
H4089 H 0.85511 0.76944 0.67929 0.0
H4090 H 0.88724 0.73179 0.75925 0.0
H4091 H 0.81116 0.76891 0.71403 0.0
H4092 H 0.74968 0.78619 0.79093 0.0
H4093 H 0.79117 0.78347 0.75519 0.0
H4094 H 0.83 0.71965 0.78319 0.0
H4095 H 0.78544 0.7215 0.8179 0.0
C4096 C 0.90359 0.73907 0.72053 0.0
C4097 C 0.8964 0.74872 0.69613 0.0
C4098 C 0.87845 0.73942 0.74171 0.0
C4099 C 0.84363 0.75007 0.741 0.0
C4100 C 0.83657 0.76011 0.71678 0.0
C4101 C 0.86189 0.75968 0.69563 0.0
C4102 C 0.76728 0.77152 0.79021 0.0
C4103 C 0.76431 0.75502 0.81 0.0
C4104 C 0.79166 0.76984 0.76884 0.0
C4105 C 0.81625 0.75147 0.76491 0.0
C4106 C 0.81316 0.73463 0.78446 0.0
C4107 C 0.78749 0.73595 0.80547 0.0
H4108 H 0.89295 0.96382 0.70889 0.0
H4109 H 0.91418 0.03453 0.69806 0.0
H4110 H 0.93584 0.96272 0.74391 0.0
H4111 H 0.95819 0.03357 0.73316 0.0
H4112 H 0.03399 0.0304 0.80716 0.0
H4113 H 0.98989 0.03291 0.77226 0.0
H4114 H 0.98448 0.96016 0.76987 0.0
H4115 H 0.02844 0.95795 0.8042 0.0
C4116 C 0.90724 0.97932 0.71336 0.0
C4117 C 0.89965 0.99897 0.69841 0.0
C4118 C 0.93275 0.97872 0.73424 0.0
C4119 C 0.95298 0.99792 0.74298 0.0
C4120 C 0.9447 0.01789 0.72839 0.0
C4121 C 0.91901 0.01844 0.70732 0.0
C4122 C 0.02293 0.01475 0.79982 0.0
C4123 C 0.03524 0.99384 0.81068 0.0
C4124 C 0.99716 0.01618 0.77889 0.0
C4125 C 0.98131 0.99683 0.76658 0.0
C4126 C 0.99394 0.97603 0.77757 0.0
C4127 C 1.01995 0.97465 0.79812 0.0
H4128 H 0.29024 0.46936 0.55102 0.0
H4129 H 0.25562 0.53721 0.56626 0.0
H4130 H 0.249 0.46764 0.51465 0.0
H4131 H 0.21378 0.53566 0.53071 0.0
H4132 H 0.13932 0.53532 0.45987 0.0
H4133 H 0.17983 0.53566 0.49605 0.0
H4134 H 0.20899 0.46635 0.48098 0.0
H4135 H 0.16687 0.46609 0.44494 0.0
C4136 C 0.27283 0.4838 0.54756 0.0
C4137 C 0.27603 0.50296 0.56395 0.0
C4138 C 0.24875 0.48297 0.52578 0.0
C4139 C 0.22593 0.50142 0.51795 0.0
C4140 C 0.2294 0.52056 0.53448 0.0
C4141 C 0.25374 0.52142 0.55597 0.0
C4142 C 0.15477 0.52007 0.46361 0.0
C4143 C 0.14975 0.50115 0.44718 0.0
C4144 C 0.17867 0.52015 0.4853 0.0
C4145 C 0.19986 0.50109 0.49325 0.0
C4146 C 0.19464 0.4819 0.47688 0.0
C4147 C 0.1702 0.4818 0.45519 0.0
H4148 H 0.14432 0.71262 0.45188 0.0
H4149 H 0.13312 0.78473 0.44634 0.0
H4150 H 0.10322 0.71199 0.48774 0.0
H4151 H 0.09103 0.78438 0.48239 0.0
H4152 H 1.01583 0.78188 0.55575 0.0
H4153 H 0.05758 0.78367 0.51964 0.0
H4154 H 0.06189 0.7108 0.51835 0.0
H4155 H 1.02092 0.70939 0.55428 0.0
C4156 C 0.13243 0.72858 0.45766 0.0
C4157 C 0.14227 0.74853 0.44402 0.0
C4158 C 0.10817 0.72829 0.47914 0.0
C4159 C 0.09164 0.74809 0.48977 0.0
C4160 C 0.10172 0.76826 0.47618 0.0
C4161 C 0.12622 0.7685 0.45456 0.0
C4162 C 0.0265 0.76609 0.54851 0.0
C4163 C 1.01521 0.74542 0.56029 0.0
C4164 C 0.05075 0.76707 0.52681 0.0
C4165 C 0.06531 0.74744 0.51433 0.0
C4166 C 0.05334 0.72686 0.52608 0.0
C4167 C 0.0292 0.72594 0.54761 0.0
H4168 H 0.273 0.70853 0.82446 0.0
H4169 H 0.2798 0.78101 0.82337 0.0
H4170 H 0.23109 0.71014 0.85979 0.0
H4171 H 0.23751 0.78296 0.85926 0.0
H4172 H 0.16269 0.78382 0.9329 0.0
H4173 H 0.20524 0.78338 0.89718 0.0
H4174 H 0.18694 0.7118 0.88844 0.0
H4175 H 0.14564 0.71247 0.92419 0.0
C4176 C 0.26516 0.72512 0.83125 0.0
C4177 C 0.28004 0.74451 0.81893 0.0
C4178 C 0.24039 0.72615 0.85237 0.0
C4179 C 0.22871 0.74677 0.8641 0.0
C4180 C 0.24414 0.76635 0.85201 0.0
C4181 C 0.2688 0.76527 0.83053 0.0
C4182 C 0.16828 0.76772 0.92401 0.0
C4183 C 0.15063 0.74794 0.93365 0.0
C4184 C 0.19305 0.76745 0.90257 0.0
C4185 C 0.20175 0.74747 0.88826 0.0
C4186 C 0.1833 0.72789 0.89778 0.0
C4187 C 0.15881 0.72821 0.91912 0.0
H4188 H 0.15709 0.53402 0.91537 0.0
H4189 H 0.11179 0.47204 0.9433 0.0
H4190 H 0.11341 0.53445 0.88086 0.0
H4191 H 0.06701 0.47257 0.90854 0.0
H4192 H 0.99837 0.47037 0.83004 0.0
H4193 H 0.04134 0.46871 0.86571 0.0
H4194 H 0.05928 0.54036 0.85868 0.0
H4195 H 1.01594 0.54188 0.82363 0.0
C4196 C 0.1374 0.52045 0.91487 0.0
C4197 C 0.13915 0.50352 0.93425 0.0
C4198 C 0.11141 0.5207 0.89427 0.0
C4199 C 0.08442 0.5037 0.89028 0.0
C4200 C 0.0861 0.48643 0.90954 0.0
C4201 C 0.1122 0.4863 0.93048 0.0
C4202 C 1.01177 0.48591 0.83553 0.0
C4203 C 1.00336 0.50616 0.82167 0.0
C4204 C 0.03692 0.485 0.85686 0.0
C4205 C 0.05608 0.5043 0.86664 0.0
C4206 C 0.04708 0.52455 0.85289 0.0
C4207 C 1.0215 0.52549 0.83197 0.0
H4208 H 0.76379 0.4592 0.57897 0.0
H4209 H 0.77094 0.53114 0.56924 0.0
H4210 H 0.80593 0.46098 0.61426 0.0
H4211 H 0.81411 0.53321 0.60472 0.0
H4212 H 0.88626 0.53514 0.68004 0.0
H4213 H 0.84354 0.53456 0.64424 0.0
H4214 H 0.85384 0.462 0.64053 0.0
H4215 H 0.89581 0.46284 0.67607 0.0
C4216 C 0.77501 0.47561 0.58368 0.0
C4217 C 0.76394 0.49471 0.56898 0.0
C4218 C 0.79994 0.47674 0.60473 0.0
C4219 C 0.81576 0.49729 0.61392 0.0
C4220 C 0.8041 0.51665 0.5995 0.0
C4221 C 0.77907 0.51545 0.5782 0.0
C4222 C 0.87895 0.51885 0.67217 0.0
C4223 C 0.89462 0.4989 0.6831 0.0
C4224 C 0.85406 0.51847 0.65076 0.0
C4225 C 0.84304 0.49816 0.63791 0.0
C4226 C 0.85941 0.47837 0.64876 0.0
C4227 C 0.88427 0.4788 0.66994 0.0
H4228 H 0.03851 0.21979 0.57971 0.0
H4229 H 1.00779 0.28881 0.56676 0.0
H4230 H 0.99701 0.21791 0.61589 0.0
H4231 H 0.96617 0.28723 0.60236 0.0
H4232 H 0.88815 0.2857 0.67116 0.0
H4233 H 0.92889 0.2862 0.63518 0.0
H4234 H 0.95945 0.21722 0.65097 0.0
H4235 H 0.91723 0.21682 0.68693 0.0
C4236 C 0.0221 0.23457 0.58374 0.0
C4237 C 0.02636 0.25411 0.56799 0.0
C4238 C 0.99786 0.23361 0.6054 0.0
C4239 C 0.97606 0.25232 0.61383 0.0
C4240 C 0.98081 0.27188 0.59804 0.0
C4241 C 1.00518 0.27282 0.57661 0.0
C4242 C 0.90387 0.27054 0.66758 0.0
C4243 C 0.89911 0.25166 0.68413 0.0
C4244 C 0.928 0.27073 0.64605 0.0
C4245 C 0.94968 0.25182 0.63836 0.0
C4246 C 0.94468 0.23265 0.65484 0.0
C4247 C 0.92016 0.23247 0.67647 0.0
H4248 H 0.76874 0.28954 0.30759 0.0
H4249 H 0.74472 0.2192 0.29717 0.0
H4250 H 0.81199 0.28815 0.2726 0.0
H4251 H 0.78674 0.2179 0.26097 0.0
H4252 H 0.85442 0.22439 0.1818 0.0
H4253 H 0.81043 0.22438 0.21707 0.0
H4254 H 0.86645 0.28043 0.25078 0.0
H4255 H 0.90932 0.28056 0.21594 0.0
C4256 C 0.773 0.27335 0.2985 0.0
C4257 C 0.75327 0.25422 0.3078 0.0
C4258 C 0.79833 0.27255 0.27747 0.0
C4259 C 0.80506 0.25281 0.26233 0.0
C4260 C 0.78423 0.23377 0.27102 0.0
C4261 C 0.75967 0.23444 0.29268 0.0
C4262 C 0.85726 0.23726 0.19616 0.0
C4263 C 0.88672 0.25302 0.19404 0.0
C4264 C 0.8316 0.23703 0.21735 0.0
C4265 C 0.83284 0.25252 0.23841 0.0
C4266 C 0.8622 0.26812 0.23597 0.0
C4267 C 0.88772 0.26819 0.21517 0.0
H4268 H 0.92447 0.53134 0.19151 0.0
H4269 H 0.89661 0.46241 0.20767 0.0
H4270 H 0.96761 0.53109 0.227 0.0
H4271 H 0.93798 0.46217 0.24341 0.0
H4272 H 1.01494 0.46109 0.31361 0.0
H4273 H 0.97229 0.46251 0.27834 0.0
H4274 H 1.01003 0.52936 0.25955 0.0
H4275 H 0.05204 0.52786 0.29551 0.0
C4276 C 0.92795 0.51566 0.20182 0.0
C4277 C 0.90708 0.49637 0.1942 0.0
C4278 C 0.95301 0.51558 0.22326 0.0
C4279 C 0.95857 0.4965 0.23985 0.0
C4280 C 0.93678 0.47757 0.23241 0.0
C4281 C 0.91233 0.47761 0.21096 0.0
C4282 C 1.01384 0.47653 0.30259 0.0
C4283 C 0.03722 0.49475 0.30966 0.0
C4284 C 0.98887 0.47732 0.28133 0.0
C4285 C 0.98559 0.49614 0.2642 0.0
C4286 C 1.00956 0.51428 0.27112 0.0
C4287 C 0.03429 0.51351 0.29259 0.0
H4288 H 0.79721 0.03941 0.54344 0.0
H4289 H 0.7737 0.97078 0.56406 0.0
H4290 H 0.75502 0.03651 0.50764 0.0
H4291 H 0.72797 0.96881 0.53006 0.0
H4292 H 0.61446 0.00019 0.47871 0.0
H4293 H 0.65801 0.0003 0.51371 0.0
H4294 H 0.74555 0.00131 0.46092 0.0
H4295 H 0.70263 0.99896 0.4264 0.0
C4296 C 0.78253 0.02367 0.54122 0.0
C4297 C 0.78912 0.00592 0.55921 0.0
C4298 C 0.75754 0.022 0.52002 0.0
C4299 C 0.73572 0.00254 0.51483 0.0
C4300 C 0.74258 0.98455 0.53247 0.0
C4301 C 0.76894 0.9859 0.55306 0.0
C4302 C 0.64291 0.00021 0.47383 0.0
C4303 C 0.65235 9e-05 0.44747 0.0
C4304 C 0.66869 0.00034 0.49472 0.0
C4305 C 0.7071 0.00117 0.49163 0.0
C4306 C 0.717 0.00096 0.46552 0.0
C4307 C 0.69109 0.9999 0.44466 0.0
H4308 H 0.52088 0.20959 0.5567 0.0
H4309 H 0.50938 0.28177 0.55373 0.0
H4310 H 0.56363 0.21075 0.52182 0.0
H4311 H 0.552 0.28324 0.518 0.0
H4312 H 0.62927 0.28278 0.44514 0.0
H4313 H 0.58631 0.283 0.48071 0.0
H4314 H 0.60663 0.21197 0.49243 0.0
H4315 H 0.64797 0.21187 0.45674 0.0
C4316 C 0.52797 0.22608 0.54921 0.0
C4317 C 0.51158 0.24558 0.56035 0.0
C4318 C 0.55312 0.22682 0.52823 0.0
C4319 C 0.56352 0.24716 0.5153 0.0
C4320 C 0.54658 0.26682 0.52622 0.0
C4321 C 0.52171 0.26605 0.54764 0.0
C4322 C 0.62394 0.26687 0.45459 0.0
C4323 C 0.64212 0.24694 0.4457 0.0
C4324 C 0.59896 0.26703 0.47599 0.0
C4325 C 0.59068 0.24743 0.49114 0.0
C4326 C 0.60983 0.22779 0.48244 0.0
C4327 C 0.63439 0.22765 0.46112 0.0
H4328 H 0.77728 0.20713 0.82486 0.0
H4329 H 0.79301 0.279 0.82838 0.0
H4330 H 0.73599 0.20893 0.8606 0.0
H4331 H 0.75133 0.28107 0.86475 0.0
H4332 H 0.67709 0.28043 0.94015 0.0
H4333 H 0.72095 0.28006 0.90496 0.0
H4334 H 0.68826 0.21212 0.88674 0.0
H4335 H 0.64619 0.21241 0.92195 0.0
C4336 C 0.77206 0.22364 0.83298 0.0
C4337 C 0.78945 0.24283 0.82187 0.0
C4338 C 0.74739 0.22478 0.85425 0.0
C4339 C 0.73808 0.24525 0.86734 0.0
C4340 C 0.75613 0.26458 0.85652 0.0
C4341 C 0.78062 0.26343 0.83485 0.0
C4342 C 0.67992 0.26493 0.92943 0.0
C4343 C 0.65774 0.24592 0.93627 0.0
C4344 C 0.70537 0.26483 0.9082 0.0
C4345 C 0.71052 0.24591 0.89136 0.0
C4346 C 0.68773 0.22726 0.89817 0.0
C4347 C 0.66268 0.22738 0.91923 0.0
H4348 H 0.51959 0.04275 0.82454 0.0
H4349 H 0.5138 0.97024 0.82169 0.0
H4350 H 0.55992 0.04066 0.86067 0.0
H4351 H 0.55522 0.9678 0.85812 0.0
H4352 H 0.63389 0.96587 0.93014 0.0
H4353 H 0.59113 0.96651 0.89439 0.0
H4354 H 0.60009 0.03919 0.8915 0.0
H4355 H 0.64155 0.03825 0.92711 0.0
C4356 C 0.52694 0.02605 0.83133 0.0
C4357 C 0.51252 0.00682 0.81848 0.0
C4358 C 0.55102 0.02473 0.85283 0.0
C4359 C 0.56301 0.00395 0.86411 0.0
C4360 C 0.54821 0.98452 0.85134 0.0
C4361 C 0.52394 0.98589 0.82962 0.0
C4362 C 0.62607 0.98219 0.92254 0.0
C4363 C 0.64107 0.00215 0.93381 0.0
C4364 C 0.60117 0.98261 0.90111 0.0
C4365 C 0.58989 0.00298 0.88836 0.0
C4366 C 0.60582 0.02274 0.89949 0.0
C4367 C 0.63034 0.02228 0.92082 0.0
H4368 H 0.26559 0.95959 0.5759 0.0
H4369 H 0.25731 0.03201 0.57548 0.0
H4370 H 0.30902 0.96142 0.61086 0.0
H4371 H 0.29972 0.03396 0.61157 0.0
H4372 H 0.36335 0.02988 0.69313 0.0
H4373 H 0.31933 0.02945 0.65777 0.0
H4374 H 0.36733 0.96804 0.63008 0.0
H4375 H 0.41066 0.96857 0.66493 0.0
C4376 C 0.2733 0.97621 0.58265 0.0
C4377 C 0.25776 0.99558 0.57045 0.0
C4378 C 0.29879 0.97731 0.60357 0.0
C4379 C 0.30993 0.99791 0.61565 0.0
C4380 C 0.29346 0.0174 0.604 0.0
C4381 C 0.26872 0.01629 0.58242 0.0
C4382 C 0.36438 0.01582 0.68007 0.0
C4383 C 0.3916 0.99875 0.68389 0.0
C4384 C 0.33874 0.01573 0.65886 0.0
C4385 C 0.3378 0.99859 0.63949 0.0
C4386 C 0.36495 0.98168 0.6436 0.0
C4387 C 0.39062 0.98197 0.66437 0.0
H4388 H 0.42177 0.71937 0.69105 0.0
H4389 H 0.37913 0.78321 0.66649 0.0
H4390 H 0.46563 0.72007 0.65603 0.0
H4391 H 0.42077 0.78353 0.63104 0.0
H4392 H 0.50796 0.78855 0.56742 0.0
H4393 H 0.4653 0.78699 0.60251 0.0
H4394 H 0.49853 0.7185 0.61816 0.0
H4395 H 0.54057 0.72018 0.58223 0.0
C4396 C 0.4221 0.73415 0.679 0.0
C4397 C 0.39675 0.75198 0.68402 0.0
C4398 C 0.44742 0.73435 0.65777 0.0
C4399 C 0.44901 0.75202 0.63902 0.0
C4400 C 0.423 0.76946 0.64398 0.0
C4401 C 0.39823 0.76933 0.66517 0.0
C4402 C 0.5056 0.77269 0.57756 0.0
C4403 C 0.5275 0.75409 0.56952 0.0
C4404 C 0.48059 0.77177 0.59866 0.0
C4405 C 0.47618 0.75246 0.61488 0.0
C4406 C 0.49903 0.73398 0.60725 0.0
C4407 C 0.5236 0.73481 0.58574 0.0
H4408 H 0.38223 0.71782 0.19779 0.0
H4409 H 0.39748 0.78936 0.2064 0.0
H4410 H 0.33835 0.7181 0.23274 0.0
H4411 H 0.3547 0.78986 0.24137 0.0
H4412 H 0.26844 0.79242 0.3058 0.0
H4413 H 0.31229 0.79111 0.27144 0.0
H4414 H 0.30004 0.71869 0.26744 0.0
H4415 H 0.25606 0.72034 0.30221 0.0
C4416 C 0.376 0.73394 0.20652 0.0
C4417 C 0.39343 0.75384 0.19691 0.0
C4418 C 0.35034 0.73412 0.22749 0.0
C4419 C 0.34045 0.75411 0.24147 0.0
C4420 C 0.35911 0.77374 0.23224 0.0
C4421 C 0.3845 0.77352 0.21135 0.0
C4422 C 0.27538 0.77595 0.29822 0.0
C4423 C 0.25848 0.75647 0.30905 0.0
C4424 C 0.30127 0.77511 0.27763 0.0
C4425 C 0.31211 0.7547 0.26497 0.0
C4426 C 0.2944 0.73515 0.27547 0.0
C4427 C 0.26863 0.73603 0.2963 0.0
H4428 H 0.52023 0.03017 0.3124 0.0
H4429 H 0.53582 0.95922 0.29878 0.0
H4430 H 0.47809 0.03209 0.27618 0.0
H4431 H 0.49471 0.96097 0.26284 0.0
H4432 H 0.41515 0.03349 0.19602 0.0
H4433 H 0.45725 0.03337 0.23231 0.0
H4434 H 0.44126 0.96158 0.24056 0.0
H4435 H 0.40041 0.96183 0.20441 0.0
C4436 C 0.5142 0.01463 0.30243 0.0
C4437 C 0.53145 0.99415 0.31062 0.0
C4438 C 0.48989 0.01581 0.28073 0.0
C4439 C 0.48105 0.99669 0.26512 0.0
C4440 C 0.49866 0.97642 0.27343 0.0
C4441 C 0.52294 0.97533 0.2948 0.0
C4442 C 0.42133 0.0174 0.20485 0.0
C4443 C 0.40444 0.9974 0.19509 0.0
C4444 C 0.4456 0.01736 0.2266 0.0
C4445 C 0.45463 0.99738 0.24082 0.0
C4446 C 0.43721 0.9776 0.23107 0.0
C4447 C 0.41306 0.97771 0.20959 0.0
H4448 H 0.65046 0.5382 0.95569 0.0
H4449 H 0.66365 0.46633 0.94864 0.0
H4450 H 0.69333 0.53874 0.9908 0.0
H4451 H 0.70722 0.46665 0.98402 0.0
H4452 H 0.7795 0.46956 1.05985 0.0
H4453 H 0.73549 0.46768 1.0248 0.0
H4454 H 0.7448 0.53975 1.01476 0.0
H4455 H 0.78824 0.54136 1.04944 0.0
C4456 C 0.66292 0.52228 0.96103 0.0
C4457 C 0.65333 0.50246 0.94703 0.0
C4458 C 0.68837 0.52255 0.98193 0.0
C4459 C 0.70615 0.50281 0.99178 0.0
C4460 C 0.69567 0.4827 0.97828 0.0
C4461 C 0.67025 0.4825 0.95709 0.0
C4462 C 0.77167 0.48527 1.05081 0.0
C4463 C 0.78775 0.5059 1.05966 0.0
C4464 C 0.74605 0.48417 1.02978 0.0
C4465 C 0.73431 0.50354 1.01539 0.0
C4466 C 0.75087 0.52399 1.02428 0.0
C4467 C 0.77659 0.52501 1.04497 0.0
H4468 H 0.63477 0.78437 0.95059 0.0
H4469 H 0.62549 0.71223 0.94516 0.0
H4470 H 0.59177 0.78435 0.98615 0.0
H4471 H 0.58233 0.71198 0.98 0.0
H4472 H 0.49693 0.71069 1.04563 0.0
H4473 H 0.53902 0.71189 1.0102 0.0
H4474 H 0.55635 0.78293 1.02329 0.0
H4475 H 0.51314 0.78156 1.05865 0.0
C4476 C 0.62282 0.76833 0.95598 0.0
C4477 C 0.63398 0.7484 0.94252 0.0
C4478 C 0.59769 0.76822 0.97741 0.0
C4479 C 0.58115 0.74814 0.98779 0.0
C4480 C 0.59241 0.72832 0.97411 0.0
C4481 C 0.61783 0.72845 0.95308 0.0
C4482 C 0.5099 0.72673 1.04161 0.0
C4483 C 0.50113 0.74564 1.05743 0.0
C4484 C 0.53494 0.72752 1.0204 0.0
C4485 C 0.55357 0.74753 1.01202 0.0
C4486 C 0.54428 0.7667 1.02761 0.0
C4487 C 0.51907 0.76586 1.04896 0.0
H4488 H 0.62835 0.77471 0.41312 0.0
H4489 H 0.68885 0.72138 0.44808 0.0
H4490 H 0.67058 0.77457 0.37732 0.0
H4491 H 0.73228 0.72204 0.41335 0.0
H4492 H 0.79751 0.71208 0.33716 0.0
H4493 H 0.75591 0.71377 0.37298 0.0
H4494 H 0.72417 0.78096 0.35099 0.0
H4495 H 0.7687 0.77982 0.31648 0.0
C4496 C 0.65159 0.76356 0.41431 0.0
C4497 C 0.65499 0.74954 0.43638 0.0
C4498 C 0.67649 0.76332 0.39291 0.0
C4499 C 0.70718 0.74849 0.39082 0.0
C4500 C 0.71034 0.73418 0.41269 0.0
C4501 C 0.68528 0.73441 0.43403 0.0
C4502 C 0.78137 0.72729 0.3392 0.0
C4503 C 0.78629 0.74503 0.32097 0.0
C4504 C 0.75688 0.72839 0.36069 0.0
C4505 C 0.73426 0.74744 0.36648 0.0
C4506 C 0.7392 0.76539 0.34837 0.0
C4507 C 0.76474 0.76449 0.32723 0.0
H4508 H 0.49071 0.47048 0.33385 0.0
H4509 H 0.52084 0.53939 0.32052 0.0
H4510 H 0.53296 0.46886 0.37001 0.0
H4511 H 0.56514 0.5374 0.35494 0.0
H4512 H 0.6643 0.52719 0.41052 0.0
H4513 H 0.62061 0.5274 0.37608 0.0
H4514 H 0.558 0.47674 0.41428 0.0
H4515 H 0.60267 0.47643 0.44924 0.0
C4516 C 0.5073 0.48523 0.33748 0.0
C4517 C 0.5027 0.50458 0.32125 0.0
C4518 C 0.53206 0.48439 0.35915 0.0
C4519 C 0.55514 0.50278 0.36685 0.0
C4520 C 0.54994 0.52218 0.35082 0.0
C4521 C 0.52419 0.52326 0.32991 0.0
C4522 C 0.64117 0.51608 0.4124 0.0
C4523 C 0.6388 0.5023 0.43472 0.0
C4524 C 0.61511 0.51623 0.39179 0.0
C4525 C 0.58354 0.50224 0.39064 0.0
C4526 C 0.58087 0.48811 0.41288 0.0
C4527 C 0.6071 0.48815 0.43389 0.0
H4528 H 0.3801 0.53345 0.18178 0.0
H4529 H 0.3954 0.46184 0.17377 0.0
H4530 H 0.33765 0.53319 0.14589 0.0
H4531 H 0.35439 0.46135 0.13789 0.0
H4532 H 0.27231 0.45854 0.07151 0.0
H4533 H 0.3148 0.46013 0.10654 0.0
H4534 H 0.30124 0.53254 0.11014 0.0
H4535 H 0.25917 0.53063 0.07413 0.0
C4536 C 0.37406 0.51733 0.17303 0.0
C4537 C 0.39103 0.49739 0.183 0.0
C4538 C 0.34937 0.51716 0.1515 0.0
C4539 C 0.34034 0.49716 0.1373 0.0
C4540 C 0.35833 0.47748 0.14706 0.0
C4541 C 0.38262 0.47768 0.16853 0.0
C4542 C 0.27894 0.47508 0.07902 0.0
C4543 C 0.26225 0.49444 0.06781 0.0
C4544 C 0.30386 0.47608 0.1001 0.0
C4545 C 0.31357 0.49655 0.113 0.0
C4546 C 0.29635 0.51606 0.10193 0.0
C4547 C 0.27179 0.51504 0.0804 0.0
H4548 H 0.39684 0.28717 0.1719 0.0
H4549 H 0.41962 0.21717 0.18639 0.0
H4550 H 0.43884 0.28696 0.13655 0.0
H4551 H 0.46333 0.21692 0.1513 0.0
H4552 H 0.55098 0.2199 0.08445 0.0
H4553 H 0.50858 0.21873 0.12021 0.0
H4554 H 0.47273 0.28604 0.10156 0.0
H4555 H 0.51725 0.28757 0.06777 0.0
C4556 C 0.41146 0.27159 0.16829 0.0
C4557 C 0.40474 0.25267 0.18453 0.0
C4558 C 0.43632 0.27137 0.14708 0.0
C4559 C 0.45699 0.25199 0.13937 0.0
C4560 C 0.44972 0.23274 0.15531 0.0
C4561 C 0.42424 0.23293 0.17645 0.0
C4562 C 0.53324 0.23432 0.08715 0.0
C4563 C 0.53675 0.25311 0.07014 0.0
C4564 C 0.50831 0.23375 0.10854 0.0
C4565 C 0.48452 0.25208 0.11533 0.0
C4566 C 0.48873 0.27097 0.09848 0.0
C4567 C 0.51432 0.27167 0.07767 0.0
H4568 H 0.34938 0.22658 0.67987 0.0
H4569 H 0.40917 0.27911 0.71701 0.0
H4570 H 0.30513 0.2268 0.71486 0.0
H4571 H 0.36659 0.27882 0.75184 0.0
H4572 H 0.27372 0.28772 0.81204 0.0
H4573 H 0.31689 0.28623 0.77704 0.0
H4574 H 0.27551 0.22098 0.75577 0.0
H4575 H 0.23345 0.22223 0.79184 0.0
C4576 C 0.35335 0.23875 0.69479 0.0
C4577 C 0.38424 0.25352 0.69343 0.0
C4578 C 0.32748 0.2386 0.71593 0.0
C4579 C 0.33003 0.25301 0.73791 0.0
C4580 C 0.36104 0.26744 0.73635 0.0
C4581 C 0.38651 0.26757 0.71549 0.0
C4582 C 0.27431 0.27246 0.80077 0.0
C4583 C 0.25002 0.25452 0.8074 0.0
C4584 C 0.29964 0.27164 0.77968 0.0
C4585 C 0.30209 0.2533 0.76187 0.0
C4586 C 0.27668 0.23567 0.76793 0.0
C4587 C 0.25199 0.23627 0.78952 0.0
H4588 H 0.52423 0.52889 0.8149 0.0
H4589 H 0.56078 0.46406 0.7891 0.0
H4590 H 0.48008 0.53038 0.78001 0.0
H4591 H 0.51898 0.46616 0.75328 0.0
H4592 H 0.4509 0.4764 0.67843 0.0
H4593 H 0.49495 0.47686 0.71301 0.0
H4594 H 0.42609 0.52197 0.75454 0.0
H4595 H 0.38287 0.52211 0.71931 0.0
C4596 C 0.52255 0.51436 0.80257 0.0
C4597 C 0.54606 0.49547 0.80745 0.0
C4598 C 0.49695 0.51543 0.78148 0.0
C4599 C 0.49383 0.49836 0.76221 0.0
C4600 C 0.51855 0.48004 0.76657 0.0
C4601 C 0.5432 0.47871 0.78797 0.0
C4602 C 0.44552 0.4877 0.69391 0.0
C4603 C 0.4127 0.50073 0.69347 0.0
C4604 C 0.4711 0.48736 0.71499 0.0
C4605 C 0.4662 0.49956 0.73822 0.0
C4606 C 0.43328 0.51243 0.73786 0.0
C4607 C 0.4078 0.5127 0.71681 0.0
loop_
_geom_bond_atom_site_label_1
_geom_bond_atom_site_label_2
_geom_bond_distance
_geom_bond_site_symmetry_2
_ccdc_geom_bond_type
Eu0 N31 2.657 1_545 S
Eu0 N38 2.609 . S
Eu0 O44 2.558 . S
Eu0 O45 2.612 1_545 S
Eu0 O47 2.339 1_545 S
Eu0 O48 2.563 . S
Eu0 O49 2.419 1_545 S
Eu0 O51 2.380 . S
Eu0 O52 2.432 . S
Eu0 C64 2.834 1_554 S
C1 C4 1.429 . S
C1 C5 1.411 . S
C1 N8 1.377 . S
C2 C4 1.420 . S
C2 C6 1.423 . S
C2 C14 1.392 1_565 S
C3 C5 1.420 . S
C3 C6 1.351 . S
C3 H26 0.931 . S
C4 C1 1.429 . S
C4 C2 1.420 . S
C4 N12 1.362 1_565 S
C5 C1 1.411 . S
C5 C3 1.420 . S
C5 C10 1.395 . S
C6 C2 1.423 . S
C6 C3 1.351 . S
C6 H18 0.930 . S
C7 C9 1.400 . S
C7 C10 1.386 . S
C7 H19 0.930 . S
N8 C1 1.377 . S
N8 C9 1.321 . S
N8 Eu11 2.609 . S
C9 C7 1.400 . S
C9 N8 1.321 . S
C9 H16 0.930 . S
C10 C5 1.395 . S
C10 C7 1.386 . S
C10 H29 0.930 . S
Eu11 N8 2.609 . S
Eu11 N12 2.657 1_565 S
Eu11 O45 2.380 . S
Eu11 O46 2.432 . S
Eu11 O50 2.558 . S
Eu11 O51 2.612 1_565 S
Eu11 O53 2.339 1_565 S
Eu11 O54 2.563 . S
Eu11 O55 2.419 1_565 S
Eu11 C75 2.848 . S
N12 C4 1.362 1_545 S
N12 Eu11 2.657 1_545 S
N12 C13 1.334 . S
C13 N12 1.334 . S
C13 C15 1.413 . S
C13 H20 0.929 . S
C14 C2 1.392 1_545 S
C14 C15 1.367 . S
C14 H22 0.930 . S
C15 C13 1.413 . S
C15 C14 1.367 . S
C15 H17 0.930 . S
H16 C9 0.930 . S
H17 C15 0.930 . S
H18 C6 0.930 . S
H19 C7 0.930 . S
H20 C13 0.929 . S
H21 C35 0.930 . S
H22 C14 0.930 . S
H23 C41 0.930 . S
H24 C32 0.929 . S
H25 C39 0.930 . S
H26 C3 0.931 . S
H27 C33 0.930 . S
H28 C66 0.930 . S
H29 C10 0.930 . S
H30 C65 0.931 . S
N31 Eu0 2.657 1_565 S
N31 C32 1.334 . S
N31 C36 1.362 1_565 S
C32 H24 0.929 . S
C32 N31 1.334 . S
C32 C35 1.413 . S
C33 H27 0.930 . S
C33 C34 1.392 1_565 S
C33 C35 1.367 . S
C34 C33 1.392 1_545 S
C34 C36 1.420 . S
C34 C66 1.423 . S
C35 H21 0.930 . S
C35 C32 1.413 . S
C35 C33 1.367 . S
C36 N31 1.362 1_545 S
C36 C34 1.420 . S
C36 C40 1.429 . S
H37 C42 0.930 . S
N38 Eu0 2.609 . S
N38 C40 1.377 . S
N38 C41 1.321 . S
C39 H25 0.930 . S
C39 C41 1.400 . S
C39 C42 1.386 . S
C40 C36 1.429 . S
C40 N38 1.377 . S
C40 C43 1.411 . S
C41 H23 0.930 . S
C41 N38 1.321 . S
C41 C39 1.400 . S
C42 H37 0.930 . S
C42 C39 1.386 . S
C42 C43 1.395 . S
C43 C40 1.411 . S
C43 C42 1.395 . S
C43 C65 1.420 . S
O44 Eu0 2.558 . S
O44 C64 1.251 1_554 S
O45 Eu0 2.612 1_565 S
O45 Eu11 2.380 . S
O45 C56 1.274 1_565 S
O46 Eu11 2.432 . S
O46 C63 1.264 . S
O47 Eu0 2.339 1_565 S
O47 C63 1.254 . S
O48 Eu0 2.563 . S
O48 C56 1.239 . S
O49 Eu0 2.419 1_565 S
O49 C64 1.242 1_564 S
O50 Eu11 2.558 . S
O50 C75 1.257 . S
O51 Eu0 2.380 . S
O51 Eu11 2.612 1_545 S
O51 C67 1.276 1_545 S
O52 Eu0 2.432 . S
O52 C74 1.264 . S
O53 Eu11 2.339 1_545 S
O53 C74 1.254 . S
O54 Eu11 2.563 . S
O54 C67 1.234 . S
O55 Eu11 2.419 1_545 S
O55 C75 1.249 1_545 S
C56 O45 1.274 1_545 S
C56 O48 1.239 . S
C57 C59 1.393 1_545 S
C57 C61 1.395 . S
C57 C64 1.505 . S
C58 C59 1.393 . S
C58 C60 1.376 1_565 S
C59 C57 1.393 1_565 S
C59 C58 1.393 . S
C59 H76 0.930 . S
C60 C58 1.376 1_545 S
C60 C62 1.395 . S
C60 H77 0.930 . S
C61 C57 1.395 . S
C61 C62 1.379 . S
C61 H78 0.930 . S
C62 C60 1.395 . S
C62 C61 1.379 . S
C62 H79 0.930 . S
C63 O46 1.264 . S
C63 O47 1.254 . S
C64 Eu0 2.834 1_556 S
C64 O44 1.251 1_556 S
C64 O49 1.242 1_546 S
C64 C57 1.505 . S
C65 H30 0.931 . S
C65 C43 1.420 . S
C65 C66 1.351 . S
C66 H28 0.930 . S
C66 C34 1.423 . S
C66 C65 1.351 . S
C67 O51 1.276 1_565 S
C67 O54 1.234 . S
C68 C69 1.393 1_565 S
C68 C72 1.395 . S
C68 C75 1.492 . S
C69 C68 1.393 1_545 S
C69 C70 1.393 . S
C69 H80 0.930 . S
C70 C69 1.393 . S
C70 C71 1.366 1_545 S
C71 C70 1.366 1_565 S
C71 C73 1.395 . S
C71 H81 0.930 . S
C72 C68 1.395 . S
C72 C73 1.379 . S
C72 H82 0.930 . S
C73 C71 1.395 . S
C73 C72 1.379 . S
C73 H83 0.930 . S
C74 O52 1.264 . S
C74 O53 1.254 . S
C75 Eu11 2.848 . S
C75 O50 1.257 . S
C75 O55 1.249 1_565 S
C75 C68 1.492 . S
H76 C59 0.930 . S
H77 C60 0.930 . S
H78 C61 0.930 . S
H79 C62 0.930 . S
H80 C69 0.930 . S
H81 C71 0.930 . S
H82 C72 0.930 . S
H83 C73 0.930 . S
Eu84 N115 2.657 . S
Eu84 N122 2.609 . S
Eu84 O128 2.558 . S
Eu84 O129 2.612 . S
Eu84 O131 2.339 . S
Eu84 O132 2.563 . S
Eu84 O133 2.419 . S
Eu84 O135 2.380 . S
Eu84 O136 2.432 . S
Eu84 C148 2.825 1_554 S
C85 C88 1.429 . S
C85 C89 1.411 . S
C85 N92 1.377 . S
C86 C88 1.420 . S
C86 C90 1.423 . S
C86 C98 1.392 . S
C87 C89 1.420 . S
C87 C90 1.351 . S
C87 H110 0.931 . S
C88 C85 1.429 . S
C88 C86 1.420 . S
C88 N96 1.362 . S
C89 C85 1.411 . S
C89 C87 1.420 . S
C89 C94 1.395 . S
C90 C86 1.423 . S
C90 C87 1.351 . S
C90 H102 0.930 . S
C91 C93 1.385 1_455 S
C91 C94 1.386 . S
C91 H103 0.930 . S
N92 C85 1.377 . S
N92 C93 1.318 1_455 S
N92 Eu95 2.609 1_455 S
C93 C91 1.385 1_655 S
C93 N92 1.318 1_655 S
C93 H100 0.948 . S
C94 C89 1.395 . S
C94 C91 1.386 . S
C94 H113 0.930 . S
Eu95 N92 2.609 1_655 S
Eu95 N96 2.657 1_655 S
Eu95 O129 2.380 . S
Eu95 O130 2.432 . S
Eu95 O134 2.558 . S
Eu95 O135 2.612 . S
Eu95 O137 2.339 . S
Eu95 O138 2.563 . S
Eu95 O139 2.419 . S
Eu95 C159 2.848 . S
N96 C88 1.362 . S
N96 Eu95 2.657 1_455 S
N96 C97 1.334 . S
C97 N96 1.334 . S
C97 C99 1.413 . S
C97 H104 0.929 . S
C98 C86 1.392 . S
C98 C99 1.367 . S
C98 H106 0.930 . S
C99 C97 1.413 . S
C99 C98 1.367 . S
C99 H101 0.930 . S
H100 C93 0.948 . S
H101 C99 0.930 . S
H102 C90 0.930 . S
H103 C91 0.930 . S
H104 C97 0.929 . S
H105 C119 0.930 . S
H106 C98 0.930 . S
H107 C125 0.930 . S
H108 C116 0.929 . S
H109 C123 0.930 . S
H110 C87 0.931 . S
H111 C117 0.930 . S
H112 C150 0.930 . S
H113 C94 0.930 . S
H114 C149 0.931 . S
N115 Eu84 2.657 . S
N115 C116 1.334 . S
N115 C120 1.362 . S
C116 H108 0.929 . S
C116 N115 1.334 . S
C116 C119 1.413 . S
C117 H111 0.930 . S
C117 C118 1.392 . S
C117 C119 1.367 . S
C118 C117 1.392 . S
C118 C120 1.420 . S
C118 C150 1.423 . S
C119 H105 0.930 . S
C119 C116 1.413 . S
C119 C117 1.367 . S
C120 N115 1.362 . S
C120 C118 1.420 . S
C120 C124 1.429 . S
H121 C126 0.930 . S
N122 Eu84 2.609 . S
N122 C124 1.377 . S
N122 C125 1.321 . S
C123 H109 0.930 . S
C123 C125 1.400 . S
C123 C126 1.386 . S
C124 C120 1.429 . S
C124 N122 1.377 . S
C124 C127 1.411 . S
C125 H107 0.930 . S
C125 N122 1.321 . S
C125 C123 1.400 . S
C126 H121 0.930 . S
C126 C123 1.386 . S
C126 C127 1.395 . S
C127 C124 1.411 . S
C127 C126 1.395 . S
C127 C149 1.420 . S
O128 Eu84 2.558 . S
O128 C148 1.247 1_554 S
O129 Eu84 2.612 . S
O129 Eu95 2.380 . S
O129 C140 1.276 . S
O130 Eu95 2.432 . S
O130 C147 1.264 . S
O131 Eu84 2.339 . S
O131 C147 1.254 . S
O132 Eu84 2.563 . S
O132 C140 1.235 . S
O133 Eu84 2.419 . S
O133 C148 1.238 1_554 S
O134 Eu95 2.558 . S
O134 C159 1.257 . S
O135 Eu84 2.380 . S
O135 Eu95 2.612 . S
O135 C151 1.276 . S
O136 Eu84 2.432 . S
O136 C158 1.264 . S
O137 Eu95 2.339 . S
O137 C158 1.254 . S
O138 Eu95 2.563 . S
O138 C151 1.235 . S
O139 Eu95 2.419 . S
O139 C159 1.249 . S
C140 O129 1.276 . S
C140 O132 1.235 . S
C141 C143 1.393 . S
C141 C145 1.395 . S
C141 C148 1.515 . S
C142 C143 1.392 . S
C142 C144 1.386 . S
C143 C141 1.393 . S
C143 C142 1.392 . S
C143 H160 0.930 . S
C144 C142 1.386 . S
C144 C146 1.395 . S
C144 H161 0.930 . S
C145 C141 1.395 . S
C145 C146 1.379 . S
C145 H162 0.930 . S
C146 C144 1.395 . S
C146 C145 1.379 . S
C146 H163 0.930 . S
C147 O130 1.264 . S
C147 O131 1.254 . S
C148 Eu84 2.825 1_556 S
C148 O128 1.247 1_556 S
C148 O133 1.238 1_556 S
C148 C141 1.515 . S
C149 H114 0.931 . S
C149 C127 1.420 . S
C149 C150 1.351 . S
C150 H112 0.930 . S
C150 C118 1.423 . S
C150 C149 1.351 . S
C151 O135 1.276 . S
C151 O138 1.235 . S
C152 C153 1.393 . S
C152 C156 1.395 1_655 S
C152 C159 1.492 . S
C153 C152 1.393 . S
C153 C154 1.392 1_655 S
C153 H164 0.930 . S
C154 C153 1.392 1_455 S
C154 C155 1.386 . S
C155 C154 1.386 . S
C155 C157 1.395 . S
C155 H165 0.930 . S
C156 C152 1.395 1_455 S
C156 C157 1.379 . S
C156 H166 0.930 . S
C157 C155 1.395 . S
C157 C156 1.379 . S
C157 H167 0.930 . S
C158 O136 1.264 . S
C158 O137 1.254 . S
C159 Eu95 2.848 . S
C159 O134 1.257 . S
C159 O139 1.249 . S
C159 C152 1.492 . S
H160 C143 0.930 . S
H161 C144 0.930 . S
H162 C145 0.930 . S
H163 C146 0.930 . S
H164 C153 0.930 . S
H165 C155 0.930 . S
H166 C156 0.930 . S
H167 C157 0.930 . S
Eu168 N199 2.657 . S
Eu168 N206 2.609 . S
Eu168 O212 2.558 . S
Eu168 O213 2.612 . S
Eu168 O215 2.339 . S
Eu168 O216 2.563 . S
Eu168 O217 2.419 . S
Eu168 O219 2.380 . S
Eu168 O220 2.432 . S
Eu168 C232 2.848 . S
C169 C172 1.429 . S
C169 C173 1.411 . S
C169 N176 1.377 . S
C170 C172 1.420 . S
C170 C174 1.423 . S
C170 C182 1.392 . S
C171 C173 1.420 . S
C171 C174 1.351 . S
C171 H194 0.931 . S
C172 C169 1.429 . S
C172 C170 1.420 . S
C172 N180 1.362 . S
C173 C169 1.411 . S
C173 C171 1.420 . S
C173 C178 1.395 . S
C174 C170 1.423 . S
C174 C171 1.351 . S
C174 H186 0.930 . S
C175 C177 1.400 . S
C175 C178 1.386 . S
C175 H187 0.930 . S
N176 C169 1.377 . S
N176 C177 1.321 . S
N176 Eu179 2.609 . S
C177 C175 1.400 . S
C177 N176 1.321 . S
C177 H184 0.930 . S
C178 C173 1.395 . S
C178 C175 1.386 . S
C178 H197 0.930 . S
Eu179 N176 2.609 . S
Eu179 N180 2.657 . S
Eu179 O213 2.380 . S
Eu179 O214 2.432 . S
Eu179 O218 2.558 . S
Eu179 O219 2.612 . S
Eu179 O221 2.339 . S
Eu179 O222 2.563 . S
Eu179 O223 2.419 . S
Eu179 C243 2.848 . S
N180 C172 1.362 . S
N180 Eu179 2.657 . S
N180 C181 1.334 . S
C181 N180 1.334 . S
C181 C183 1.413 . S
C181 H188 0.929 . S
C182 C170 1.392 . S
C182 C183 1.367 . S
C182 H190 0.930 . S
C183 C181 1.413 . S
C183 C182 1.367 . S
C183 H185 0.930 . S
H184 C177 0.930 . S
H185 C183 0.930 . S
H186 C174 0.930 . S
H187 C175 0.930 . S
H188 C181 0.929 . S
H189 C203 0.930 . S
H190 C182 0.930 . S
H191 C209 0.930 . S
H192 C200 0.929 . S
H193 C207 0.930 . S
H194 C171 0.931 . S
H195 C201 0.930 . S
H196 C234 0.930 . S
H197 C178 0.930 . S
H198 C233 0.931 . S
N199 Eu168 2.657 . S
N199 C200 1.334 . S
N199 C204 1.362 . S
C200 H192 0.929 . S
C200 N199 1.334 . S
C200 C203 1.413 . S
C201 H195 0.930 . S
C201 C202 1.392 . S
C201 C203 1.367 . S
C202 C201 1.392 . S
C202 C204 1.420 . S
C202 C234 1.423 . S
C203 H189 0.930 . S
C203 C200 1.413 . S
C203 C201 1.367 . S
C204 N199 1.362 . S
C204 C202 1.420 . S
C204 C208 1.429 . S
H205 C210 0.930 . S
N206 Eu168 2.609 . S
N206 C208 1.377 . S
N206 C209 1.321 . S
C207 H193 0.930 . S
C207 C209 1.400 . S
C207 C210 1.386 . S
C208 C204 1.429 . S
C208 N206 1.377 . S
C208 C211 1.411 . S
C209 H191 0.930 . S
C209 N206 1.321 . S
C209 C207 1.400 . S
C210 H205 0.930 . S
C210 C207 1.386 . S
C210 C211 1.395 . S
C211 C208 1.411 . S
C211 C210 1.395 . S
C211 C233 1.420 . S
O212 Eu168 2.558 . S
O212 C232 1.257 . S
O213 Eu168 2.612 . S
O213 Eu179 2.380 . S
O213 C224 1.276 . S
O214 Eu179 2.432 . S
O214 C231 1.264 . S
O215 Eu168 2.339 . S
O215 C231 1.254 . S
O216 Eu168 2.563 . S
O216 C224 1.235 . S
O217 Eu168 2.419 . S
O217 C232 1.249 . S
O218 Eu179 2.558 . S
O218 C243 1.257 . S
O219 Eu168 2.380 . S
O219 Eu179 2.612 . S
O219 C235 1.276 . S
O220 Eu168 2.432 . S
O220 C242 1.264 . S
O221 Eu179 2.339 . S
O221 C242 1.254 . S
O222 Eu179 2.563 . S
O222 C235 1.235 . S
O223 Eu179 2.419 . S
O223 C243 1.249 . S
C224 O213 1.276 . S
C224 O216 1.235 . S
C225 C227 1.393 . S
C225 C229 1.395 . S
C225 C232 1.492 . S
C226 C227 1.392 . S
C226 C228 1.386 . S
C227 C225 1.393 . S
C227 C226 1.392 . S
C227 H244 0.930 . S
C228 C226 1.386 . S
C228 C230 1.395 . S
C228 H245 0.930 . S
C229 C225 1.395 . S
C229 C230 1.379 . S
C229 H246 0.930 . S
C230 C228 1.395 . S
C230 C229 1.379 . S
C230 H247 0.930 . S
C231 O214 1.264 . S
C231 O215 1.254 . S
C232 Eu168 2.848 . S
C232 O212 1.257 . S
C232 O217 1.249 . S
C232 C225 1.492 . S
C233 H198 0.931 . S
C233 C211 1.420 . S
C233 C234 1.351 . S
C234 H196 0.930 . S
C234 C202 1.423 . S
C234 C233 1.351 . S
C235 O219 1.276 . S
C235 O222 1.235 . S
C236 C237 1.393 . S
C236 C240 1.395 . S
C236 C243 1.492 . S
C237 C236 1.393 . S
C237 C238 1.392 . S
C237 H248 0.930 . S
C238 C237 1.392 . S
C238 C239 1.386 . S
C239 C238 1.386 . S
C239 C241 1.395 . S
C239 H249 0.930 . S
C240 C236 1.395 . S
C240 C241 1.379 . S
C240 H250 0.930 . S
C241 C239 1.395 . S
C241 C240 1.379 . S
C241 H251 0.930 . S
C242 O220 1.264 . S
C242 O221 1.254 . S
C243 Eu179 2.848 . S
C243 O218 1.257 . S
C243 O223 1.249 . S
C243 C236 1.492 . S
H244 C227 0.930 . S
H245 C228 0.930 . S
H246 C229 0.930 . S
H247 C230 0.930 . S
H248 C237 0.930 . S
H249 C239 0.930 . S
H250 C240 0.930 . S
H251 C241 0.930 . S
Eu252 N283 2.657 1_545 S
Eu252 N290 2.609 . S
Eu252 O296 2.558 . S
Eu252 O297 2.612 1_545 S
Eu252 O299 2.339 1_545 S
Eu252 O300 2.563 . S
Eu252 O301 2.419 1_545 S
Eu252 O303 2.380 . S
Eu252 O304 2.432 . S
Eu252 C316 2.848 . S
C253 C256 1.429 . S
C253 C257 1.411 . S
C253 N260 1.377 . S
C254 C256 1.420 . S
C254 C258 1.423 . S
C254 C266 1.392 1_565 S
C255 C257 1.420 . S
C255 C258 1.351 . S
C255 H278 0.931 . S
C256 C253 1.429 . S
C256 C254 1.420 . S
C256 N264 1.362 1_565 S
C257 C253 1.411 . S
C257 C255 1.420 . S
C257 C262 1.395 . S
C258 C254 1.423 . S
C258 C255 1.351 . S
C258 H270 0.930 . S
C259 C261 1.400 1_455 S
C259 C262 1.386 . S
C259 H271 0.930 . S
N260 C253 1.377 . S
N260 C261 1.321 1_455 S
N260 Eu263 2.609 1_455 S
C261 C259 1.400 1_655 S
C261 N260 1.321 1_655 S
C261 H268 0.930 . S
C262 C257 1.395 . S
C262 C259 1.386 . S
C262 H281 0.930 . S
Eu263 N260 2.609 1_655 S
Eu263 N264 2.657 1_665 S
Eu263 O297 2.380 . S
Eu263 O298 2.432 . S
Eu263 O302 2.558 . S
Eu263 O303 2.612 1_565 S
Eu263 O305 2.339 1_565 S
Eu263 O306 2.563 . S
Eu263 O307 2.419 1_565 S
Eu263 C327 2.848 . S
N264 C256 1.362 1_545 S
N264 Eu263 2.657 1_445 S
N264 C265 1.334 . S
C265 N264 1.334 . S
C265 C267 1.413 . S
C265 H272 0.929 . S
C266 C254 1.392 1_545 S
C266 C267 1.367 . S
C266 H274 0.930 . S
C267 C265 1.413 . S
C267 C266 1.367 . S
C267 H269 0.930 . S
H268 C261 0.930 . S
H269 C267 0.930 . S
H270 C258 0.930 . S
H271 C259 0.930 . S
H272 C265 0.929 . S
H273 C287 0.930 . S
H274 C266 0.930 . S
H275 C293 0.930 . S
H276 C284 0.929 . S
H277 C291 0.930 . S
H278 C255 0.931 . S
H279 C285 0.930 . S
H280 C318 0.930 . S
H281 C262 0.930 . S
H282 C317 0.931 . S
N283 Eu252 2.657 1_565 S
N283 C284 1.334 . S
N283 C288 1.362 1_565 S
C284 H276 0.929 . S
C284 N283 1.334 . S
C284 C287 1.413 . S
C285 H279 0.930 . S
C285 C286 1.392 1_565 S
C285 C287 1.367 . S
C286 C285 1.392 1_545 S
C286 C288 1.420 . S
C286 C318 1.423 . S
C287 H273 0.930 . S
C287 C284 1.413 . S
C287 C285 1.367 . S
C288 N283 1.362 1_545 S
C288 C286 1.420 . S
C288 C292 1.429 . S
H289 C294 0.930 . S
N290 Eu252 2.609 . S
N290 C292 1.377 . S
N290 C293 1.321 . S
C291 H277 0.930 . S
C291 C293 1.400 . S
C291 C294 1.386 . S
C292 C288 1.429 . S
C292 N290 1.377 . S
C292 C295 1.411 . S
C293 H275 0.930 . S
C293 N290 1.321 . S
C293 C291 1.400 . S
C294 H289 0.930 . S
C294 C291 1.386 . S
C294 C295 1.395 . S
C295 C292 1.411 . S
C295 C294 1.395 . S
C295 C317 1.420 . S
O296 Eu252 2.558 . S
O296 C316 1.257 . S
O297 Eu252 2.612 1_565 S
O297 Eu263 2.380 . S
O297 C308 1.274 1_565 S
O298 Eu263 2.432 . S
O298 C315 1.264 . S
O299 Eu252 2.339 1_565 S
O299 C315 1.254 . S
O300 Eu252 2.563 . S
O300 C308 1.239 . S
O301 Eu252 2.419 1_565 S
O301 C316 1.249 1_565 S
O302 Eu263 2.558 . S
O302 C327 1.257 . S
O303 Eu252 2.380 . S
O303 Eu263 2.612 1_545 S
O303 C319 1.276 1_545 S
O304 Eu252 2.432 . S
O304 C326 1.264 . S
O305 Eu263 2.339 1_545 S
O305 C326 1.254 . S
O306 Eu263 2.563 . S
O306 C319 1.234 . S
O307 Eu263 2.419 1_545 S
O307 C327 1.249 1_545 S
C308 O297 1.274 1_545 S
C308 O300 1.239 . S
C309 C311 1.393 1_545 S
C309 C313 1.395 . S
C309 C316 1.492 . S
C310 C311 1.393 . S
C310 C312 1.376 1_565 S
C311 C309 1.393 1_565 S
C311 C310 1.393 . S
C311 H328 0.930 . S
C312 C310 1.376 1_545 S
C312 C314 1.395 . S
C312 H329 0.930 . S
C313 C309 1.395 . S
C313 C314 1.379 . S
C313 H330 0.930 . S
C314 C312 1.395 . S
C314 C313 1.379 . S
C314 H331 0.930 . S
C315 O298 1.264 . S
C315 O299 1.254 . S
C316 Eu252 2.848 . S
C316 O296 1.257 . S
C316 O301 1.249 1_545 S
C316 C309 1.492 . S
C317 H282 0.931 . S
C317 C295 1.420 . S
C317 C318 1.351 . S
C318 H280 0.930 . S
C318 C286 1.423 . S
C318 C317 1.351 . S
C319 O303 1.276 1_565 S
C319 O306 1.234 . S
C320 C321 1.393 1_565 S
C320 C324 1.395 1_655 S
C320 C327 1.492 . S
C321 C320 1.393 1_545 S
C321 C322 1.394 . S
C321 H332 0.930 . S
C322 C321 1.394 . S
C322 C323 1.366 1_645 S
C323 C322 1.366 1_465 S
C323 C325 1.395 . S
C323 H333 0.930 . S
C324 C320 1.395 1_455 S
C324 C325 1.379 . S
C324 H334 0.930 . S
C325 C323 1.395 . S
C325 C324 1.379 . S
C325 H335 0.930 . S
C326 O304 1.264 . S
C326 O305 1.254 . S
C327 Eu263 2.848 . S
C327 O302 1.257 . S
C327 O307 1.249 1_565 S
C327 C320 1.492 . S
H328 C311 0.930 . S
H329 C312 0.930 . S
H330 C313 0.930 . S
H331 C314 0.930 . S
H332 C321 0.930 . S
H333 C323 0.930 . S
H334 C324 0.930 . S
H335 C325 0.930 . S
Eu336 N367 2.657 1_545 S
Eu336 N374 2.609 . S
Eu336 O380 2.558 . S
Eu336 O381 2.612 1_545 S
Eu336 O383 2.339 1_545 S
Eu336 O384 2.563 . S
Eu336 O385 2.419 1_545 S
Eu336 O387 2.380 . S
Eu336 O388 2.432 . S
Eu336 C400 2.848 . S
C337 C340 1.429 . S
C337 C341 1.411 . S
C337 N344 1.377 . S
C338 C340 1.420 . S
C338 C342 1.423 . S
C338 C350 1.392 1_565 S
C339 C341 1.420 . S
C339 C342 1.351 . S
C339 H362 0.931 . S
C340 C337 1.429 . S
C340 C338 1.420 . S
C340 N348 1.362 1_565 S
C341 C337 1.411 . S
C341 C339 1.420 . S
C341 C346 1.395 . S
C342 C338 1.423 . S
C342 C339 1.351 . S
C342 H354 0.930 . S
C343 C345 1.400 . S
C343 C346 1.386 . S
C343 H355 0.930 . S
N344 C337 1.377 . S
N344 C345 1.321 . S
N344 Eu347 2.609 . S
C345 C343 1.400 . S
C345 N344 1.321 . S
C345 H352 0.930 . S
C346 C341 1.395 . S
C346 C343 1.386 . S
C346 H365 0.930 . S
Eu347 N344 2.609 . S
Eu347 N348 2.657 1_565 S
Eu347 O381 2.380 . S
Eu347 O382 2.432 . S
Eu347 O386 2.558 . S
Eu347 O387 2.612 1_565 S
Eu347 O389 2.339 1_565 S
Eu347 O390 2.563 . S
Eu347 O391 2.419 1_565 S
Eu347 C411 2.834 1_556 S
N348 C340 1.362 1_545 S
N348 Eu347 2.657 1_545 S
N348 C349 1.334 . S
C349 N348 1.334 . S
C349 C351 1.413 . S
C349 H356 0.929 . S
C350 C338 1.392 1_545 S
C350 C351 1.367 . S
C350 H358 0.930 . S
C351 C349 1.413 . S
C351 C350 1.367 . S
C351 H353 0.930 . S
H352 C345 0.930 . S
H353 C351 0.930 . S
H354 C342 0.930 . S
H355 C343 0.930 . S
H356 C349 0.929 . S
H357 C371 0.930 . S
H358 C350 0.930 . S
H359 C377 0.930 . S
H360 C368 0.929 . S
H361 C375 0.930 . S
H362 C339 0.931 . S
H363 C369 0.930 . S
H364 C402 0.930 . S
H365 C346 0.930 . S
H366 C401 0.931 . S
N367 Eu336 2.657 1_565 S
N367 C368 1.334 . S
N367 C372 1.362 1_565 S
C368 H360 0.929 . S
C368 N367 1.334 . S
C368 C371 1.413 . S
C369 H363 0.930 . S
C369 C370 1.392 1_565 S
C369 C371 1.367 . S
C370 C369 1.392 1_545 S
C370 C372 1.420 . S
C370 C402 1.423 . S
C371 H357 0.930 . S
C371 C368 1.413 . S
C371 C369 1.367 . S
C372 N367 1.362 1_545 S
C372 C370 1.420 . S
C372 C376 1.429 . S
H373 C378 0.930 . S
N374 Eu336 2.609 . S
N374 C376 1.377 . S
N374 C377 1.321 . S
C375 H361 0.930 . S
C375 C377 1.400 . S
C375 C378 1.386 . S
C376 C372 1.429 . S
C376 N374 1.377 . S
C376 C379 1.411 . S
C377 H359 0.930 . S
C377 N374 1.321 . S
C377 C375 1.400 . S
C378 H373 0.930 . S
C378 C375 1.386 . S
C378 C379 1.395 . S
C379 C376 1.411 . S
C379 C378 1.395 . S
C379 C401 1.420 . S
O380 Eu336 2.558 . S
O380 C400 1.257 . S
O381 Eu336 2.612 1_565 S
O381 Eu347 2.380 . S
O381 C392 1.276 1_565 S
O382 Eu347 2.432 . S
O382 C399 1.264 . S
O383 Eu336 2.339 1_565 S
O383 C399 1.254 . S
O384 Eu336 2.563 . S
O384 C392 1.234 . S
O385 Eu336 2.419 1_565 S
O385 C400 1.249 1_565 S
O386 Eu347 2.558 . S
O386 C411 1.251 1_556 S
O387 Eu336 2.380 . S
O387 Eu347 2.612 1_545 S
O387 C403 1.274 1_545 S
O388 Eu336 2.432 . S
O388 C410 1.264 . S
O389 Eu347 2.339 1_545 S
O389 C410 1.254 . S
O390 Eu347 2.563 . S
O390 C403 1.239 . S
O391 Eu347 2.419 1_545 S
O391 C411 1.242 1_546 S
C392 O381 1.276 1_545 S
C392 O384 1.234 . S
C393 C395 1.393 1_545 S
C393 C397 1.395 . S
C393 C400 1.492 . S
C394 C395 1.393 . S
C394 C396 1.366 1_565 S
C395 C393 1.393 1_565 S
C395 C394 1.393 . S
C395 H412 0.930 . S
C396 C394 1.366 1_545 S
C396 C398 1.395 . S
C396 H413 0.930 . S
C397 C393 1.395 . S
C397 C398 1.379 . S
C397 H414 0.930 . S
C398 C396 1.395 . S
C398 C397 1.379 . S
C398 H415 0.930 . S
C399 O382 1.264 . S
C399 O383 1.254 . S
C400 Eu336 2.848 . S
C400 O380 1.257 . S
C400 O385 1.249 1_545 S
C400 C393 1.492 . S
C401 H366 0.931 . S
C401 C379 1.420 . S
C401 C402 1.351 . S
C402 H364 0.930 . S
C402 C370 1.423 . S
C402 C401 1.351 . S
C403 O387 1.274 1_565 S
C403 O390 1.239 . S
C404 C405 1.393 1_565 S
C404 C408 1.395 . S
C404 C411 1.505 . S
C405 C404 1.393 1_545 S
C405 C406 1.393 . S
C405 H416 0.930 . S
C406 C405 1.393 . S
C406 C407 1.376 1_545 S
C407 C406 1.376 1_565 S
C407 C409 1.395 . S
C407 H417 0.930 . S
C408 C404 1.395 . S
C408 C409 1.379 . S
C408 H418 0.930 . S
C409 C407 1.395 . S
C409 C408 1.379 . S
C409 H419 0.930 . S
C410 O388 1.264 . S
C410 O389 1.254 . S
C411 Eu347 2.834 1_554 S
C411 O386 1.251 1_554 S
C411 O391 1.242 1_564 S
C411 C404 1.505 . S
H412 C395 0.930 . S
H413 C396 0.930 . S
H414 C397 0.930 . S
H415 C398 0.930 . S
H416 C405 0.930 . S
H417 C407 0.930 . S
H418 C408 0.930 . S
H419 C409 0.930 . S
Eu420 N451 2.657 1_455 S
Eu420 N458 2.609 1_455 S
Eu420 O464 2.558 . S
Eu420 O465 2.612 . S
Eu420 O467 2.339 . S
Eu420 O468 2.563 . S
Eu420 O469 2.419 . S
Eu420 O471 2.380 . S
Eu420 O472 2.432 . S
Eu420 C484 2.848 . S
C421 C424 1.429 . S
C421 C425 1.411 . S
C421 N428 1.377 . S
C422 C424 1.420 . S
C422 C426 1.423 . S
C422 C434 1.392 . S
C423 C425 1.420 . S
C423 C426 1.351 . S
C423 H446 0.931 . S
C424 C421 1.429 . S
C424 C422 1.420 . S
C424 N432 1.362 . S
C425 C421 1.411 . S
C425 C423 1.420 . S
C425 C430 1.395 . S
C426 C422 1.423 . S
C426 C423 1.351 . S
C426 H438 0.930 . S
C427 C429 1.400 . S
C427 C430 1.386 . S
C427 H439 0.930 . S
N428 C421 1.377 . S
N428 C429 1.321 . S
N428 Eu431 2.609 . S
C429 C427 1.400 . S
C429 N428 1.321 . S
C429 H436 0.930 . S
C430 C425 1.395 . S
C430 C427 1.386 . S
C430 H449 0.930 . S
Eu431 N428 2.609 . S
Eu431 N432 2.657 . S
Eu431 O465 2.380 . S
Eu431 O466 2.432 . S
Eu431 O470 2.558 . S
Eu431 O471 2.612 . S
Eu431 O473 2.339 . S
Eu431 O474 2.563 . S
Eu431 O475 2.419 . S
Eu431 C495 2.825 1_556 S
N432 C424 1.362 . S
N432 Eu431 2.657 . S
N432 C433 1.334 . S
C433 N432 1.334 . S
C433 C435 1.413 . S
C433 H440 0.929 . S
C434 C422 1.392 . S
C434 C435 1.367 . S
C434 H442 0.930 . S
C435 C433 1.413 . S
C435 C434 1.367 . S
C435 H437 0.930 . S
H436 C429 0.930 . S
H437 C435 0.930 . S
H438 C426 0.930 . S
H439 C427 0.930 . S
H440 C433 0.929 . S
H441 C455 0.930 . S
H442 C434 0.930 . S
H443 C461 0.948 . S
H444 C452 0.929 . S
H445 C459 0.930 . S
H446 C423 0.931 . S
H447 C453 0.930 . S
H448 C486 0.930 . S
H449 C430 0.930 . S
H450 C485 0.931 . S
N451 Eu420 2.657 1_655 S
N451 C452 1.334 . S
N451 C456 1.362 . S
C452 H444 0.929 . S
C452 N451 1.334 . S
C452 C455 1.413 . S
C453 H447 0.930 . S
C453 C454 1.392 . S
C453 C455 1.367 . S
C454 C453 1.392 . S
C454 C456 1.420 . S
C454 C486 1.423 . S
C455 H441 0.930 . S
C455 C452 1.413 . S
C455 C453 1.367 . S
C456 N451 1.362 . S
C456 C454 1.420 . S
C456 C460 1.429 . S
H457 C462 0.930 . S
N458 Eu420 2.609 1_655 S
N458 C460 1.377 . S
N458 C461 1.318 1_655 S
C459 H445 0.930 . S
C459 C461 1.385 1_655 S
C459 C462 1.386 . S
C460 C456 1.429 . S
C460 N458 1.377 . S
C460 C463 1.411 . S
C461 H443 0.948 . S
C461 N458 1.318 1_455 S
C461 C459 1.385 1_455 S
C462 H457 0.930 . S
C462 C459 1.386 . S
C462 C463 1.395 . S
C463 C460 1.411 . S
C463 C462 1.395 . S
C463 C485 1.420 . S
O464 Eu420 2.558 . S
O464 C484 1.257 . S
O465 Eu420 2.612 . S
O465 Eu431 2.380 . S
O465 C476 1.276 . S
O466 Eu431 2.432 . S
O466 C483 1.264 . S
O467 Eu420 2.339 . S
O467 C483 1.254 . S
O468 Eu420 2.563 . S
O468 C476 1.235 . S
O469 Eu420 2.419 . S
O469 C484 1.249 . S
O470 Eu431 2.558 . S
O470 C495 1.247 1_556 S
O471 Eu420 2.380 . S
O471 Eu431 2.612 . S
O471 C487 1.276 . S
O472 Eu420 2.432 . S
O472 C494 1.264 . S
O473 Eu431 2.339 . S
O473 C494 1.254 . S
O474 Eu431 2.563 . S
O474 C487 1.235 . S
O475 Eu431 2.419 . S
O475 C495 1.238 1_556 S
C476 O465 1.276 . S
C476 O468 1.235 . S
C477 C479 1.393 . S
C477 C481 1.395 1_455 S
C477 C484 1.492 . S
C478 C479 1.392 1_655 S
C478 C480 1.386 . S
C479 C477 1.393 . S
C479 C478 1.392 1_455 S
C479 H496 0.930 . S
C480 C478 1.386 . S
C480 C482 1.395 . S
C480 H497 0.930 . S
C481 C477 1.395 1_655 S
C481 C482 1.379 . S
C481 H498 0.930 . S
C482 C480 1.395 . S
C482 C481 1.379 . S
C482 H499 0.930 . S
C483 O466 1.264 . S
C483 O467 1.254 . S
C484 Eu420 2.848 . S
C484 O464 1.257 . S
C484 O469 1.249 . S
C484 C477 1.492 . S
C485 H450 0.931 . S
C485 C463 1.420 . S
C485 C486 1.351 . S
C486 H448 0.930 . S
C486 C454 1.423 . S
C486 C485 1.351 . S
C487 O471 1.276 . S
C487 O474 1.235 . S
C488 C489 1.393 . S
C488 C492 1.395 . S
C488 C495 1.515 . S
C489 C488 1.393 . S
C489 C490 1.392 . S
C489 H500 0.930 . S
C490 C489 1.392 . S
C490 C491 1.386 . S
C491 C490 1.386 . S
C491 C493 1.395 . S
C491 H501 0.930 . S
C492 C488 1.395 . S
C492 C493 1.379 . S
C492 H502 0.930 . S
C493 C491 1.395 . S
C493 C492 1.379 . S
C493 H503 0.930 . S
C494 O472 1.264 . S
C494 O473 1.254 . S
C495 Eu431 2.825 1_554 S
C495 O470 1.247 1_554 S
C495 O475 1.238 1_554 S
C495 C488 1.515 . S
H496 C479 0.930 . S
H497 C480 0.930 . S
H498 C481 0.930 . S
H499 C482 0.930 . S
H500 C489 0.930 . S
H501 C491 0.930 . S
H502 C492 0.930 . S
H503 C493 0.930 . S
Eu504 N535 2.657 . S
Eu504 N542 2.609 . S
Eu504 O548 2.558 . S
Eu504 O549 2.612 . S
Eu504 O551 2.339 . S
Eu504 O552 2.563 . S
Eu504 O553 2.419 . S
Eu504 O555 2.380 . S
Eu504 O556 2.432 . S
Eu504 C568 2.848 . S
C505 C508 1.429 . S
C505 C509 1.411 . S
C505 N512 1.377 . S
C506 C508 1.420 . S
C506 C510 1.423 . S
C506 C518 1.392 . S
C507 C509 1.420 . S
C507 C510 1.351 . S
C507 H530 0.931 . S
C508 C505 1.429 . S
C508 C506 1.420 . S
C508 N516 1.362 . S
C509 C505 1.411 . S
C509 C507 1.420 . S
C509 C514 1.395 . S
C510 C506 1.423 . S
C510 C507 1.351 . S
C510 H522 0.930 . S
C511 C513 1.400 . S
C511 C514 1.386 . S
C511 H523 0.930 . S
N512 C505 1.377 . S
N512 C513 1.321 . S
N512 Eu515 2.609 . S
C513 C511 1.400 . S
C513 N512 1.321 . S
C513 H520 0.930 . S
C514 C509 1.395 . S
C514 C511 1.386 . S
C514 H533 0.930 . S
Eu515 N512 2.609 . S
Eu515 N516 2.657 . S
Eu515 O549 2.380 . S
Eu515 O550 2.432 . S
Eu515 O554 2.558 . S
Eu515 O555 2.612 . S
Eu515 O557 2.339 . S
Eu515 O558 2.563 . S
Eu515 O559 2.419 . S
Eu515 C579 2.848 . S
N516 C508 1.362 . S
N516 Eu515 2.657 . S
N516 C517 1.334 . S
C517 N516 1.334 . S
C517 C519 1.413 . S
C517 H524 0.929 . S
C518 C506 1.392 . S
C518 C519 1.367 . S
C518 H526 0.930 . S
C519 C517 1.413 . S
C519 C518 1.367 . S
C519 H521 0.930 . S
H520 C513 0.930 . S
H521 C519 0.930 . S
H522 C510 0.930 . S
H523 C511 0.930 . S
H524 C517 0.929 . S
H525 C539 0.930 . S
H526 C518 0.930 . S
H527 C545 0.930 . S
H528 C536 0.929 . S
H529 C543 0.930 . S
H530 C507 0.931 . S
H531 C537 0.930 . S
H532 C570 0.930 . S
H533 C514 0.930 . S
H534 C569 0.931 . S
N535 Eu504 2.657 . S
N535 C536 1.334 . S
N535 C540 1.362 . S
C536 H528 0.929 . S
C536 N535 1.334 . S
C536 C539 1.413 . S
C537 H531 0.930 . S
C537 C538 1.392 . S
C537 C539 1.367 . S
C538 C537 1.392 . S
C538 C540 1.420 . S
C538 C570 1.423 . S
C539 H525 0.930 . S
C539 C536 1.413 . S
C539 C537 1.367 . S
C540 N535 1.362 . S
C540 C538 1.420 . S
C540 C544 1.429 . S
H541 C546 0.930 . S
N542 Eu504 2.609 . S
N542 C544 1.377 . S
N542 C545 1.321 . S
C543 H529 0.930 . S
C543 C545 1.400 . S
C543 C546 1.386 . S
C544 C540 1.429 . S
C544 N542 1.377 . S
C544 C547 1.411 . S
C545 H527 0.930 . S
C545 N542 1.321 . S
C545 C543 1.400 . S
C546 H541 0.930 . S
C546 C543 1.386 . S
C546 C547 1.395 . S
C547 C544 1.411 . S
C547 C546 1.395 . S
C547 C569 1.420 . S
O548 Eu504 2.558 . S
O548 C568 1.257 . S
O549 Eu504 2.612 . S
O549 Eu515 2.380 . S
O549 C560 1.276 . S
O550 Eu515 2.432 . S
O550 C567 1.264 . S
O551 Eu504 2.339 . S
O551 C567 1.254 . S
O552 Eu504 2.563 . S
O552 C560 1.235 . S
O553 Eu504 2.419 . S
O553 C568 1.249 . S
O554 Eu515 2.558 . S
O554 C579 1.257 . S
O555 Eu504 2.380 . S
O555 Eu515 2.612 . S
O555 C571 1.276 . S
O556 Eu504 2.432 . S
O556 C578 1.264 . S
O557 Eu515 2.339 . S
O557 C578 1.254 . S
O558 Eu515 2.563 . S
O558 C571 1.235 . S
O559 Eu515 2.419 . S
O559 C579 1.249 . S
C560 O549 1.276 . S
C560 O552 1.235 . S
C561 C563 1.393 . S
C561 C565 1.395 . S
C561 C568 1.492 . S
C562 C563 1.392 . S
C562 C564 1.386 . S
C563 C561 1.393 . S
C563 C562 1.392 . S
C563 H580 0.930 . S
C564 C562 1.386 . S
C564 C566 1.395 . S
C564 H581 0.930 . S
C565 C561 1.395 . S
C565 C566 1.379 . S
C565 H582 0.930 . S
C566 C564 1.395 . S
C566 C565 1.379 . S
C566 H583 0.930 . S
C567 O550 1.264 . S
C567 O551 1.254 . S
C568 Eu504 2.848 . S
C568 O548 1.257 . S
C568 O553 1.249 . S
C568 C561 1.492 . S
C569 H534 0.931 . S
C569 C547 1.420 . S
C569 C570 1.351 . S
C570 H532 0.930 . S
C570 C538 1.423 . S
C570 C569 1.351 . S
C571 O555 1.276 . S
C571 O558 1.235 . S
C572 C573 1.393 . S
C572 C576 1.395 . S
C572 C579 1.492 . S
C573 C572 1.393 . S
C573 C574 1.392 . S
C573 H584 0.930 . S
C574 C573 1.392 . S
C574 C575 1.386 . S
C575 C574 1.386 . S
C575 C577 1.395 . S
C575 H585 0.930 . S
C576 C572 1.395 . S
C576 C577 1.379 . S
C576 H586 0.930 . S
C577 C575 1.395 . S
C577 C576 1.379 . S
C577 H587 0.930 . S
C578 O556 1.264 . S
C578 O557 1.254 . S
C579 Eu515 2.848 . S
C579 O554 1.257 . S
C579 O559 1.249 . S
C579 C572 1.492 . S
H580 C563 0.930 . S
H581 C564 0.930 . S
H582 C565 0.930 . S
H583 C566 0.930 . S
H584 C573 0.930 . S
H585 C575 0.930 . S
H586 C576 0.930 . S
H587 C577 0.930 . S
Eu588 N619 2.657 1_445 S
Eu588 N626 2.609 1_455 S
Eu588 O632 2.558 . S
Eu588 O633 2.612 1_545 S
Eu588 O635 2.339 1_545 S
Eu588 O636 2.563 . S
Eu588 O637 2.419 1_545 S
Eu588 O639 2.380 . S
Eu588 O640 2.432 . S
Eu588 C652 2.848 . S
C589 C592 1.429 . S
C589 C593 1.411 . S
C589 N596 1.377 . S
C590 C592 1.420 . S
C590 C594 1.423 . S
C590 C602 1.392 1_565 S
C591 C593 1.420 . S
C591 C594 1.351 . S
C591 H614 0.931 . S
C592 C589 1.429 . S
C592 C590 1.420 . S
C592 N600 1.362 1_565 S
C593 C589 1.411 . S
C593 C591 1.420 . S
C593 C598 1.395 . S
C594 C590 1.423 . S
C594 C591 1.351 . S
C594 H606 0.930 . S
C595 C597 1.400 . S
C595 C598 1.386 . S
C595 H607 0.930 . S
N596 C589 1.377 . S
N596 C597 1.321 . S
N596 Eu599 2.609 . S
C597 C595 1.400 . S
C597 N596 1.321 . S
C597 H604 0.930 . S
C598 C593 1.395 . S
C598 C595 1.386 . S
C598 H617 0.930 . S
Eu599 N596 2.609 . S
Eu599 N600 2.657 1_565 S
Eu599 O633 2.380 . S
Eu599 O634 2.432 . S
Eu599 O638 2.558 . S
Eu599 O639 2.612 1_565 S
Eu599 O641 2.339 1_565 S
Eu599 O642 2.563 . S
Eu599 O643 2.419 1_565 S
Eu599 C663 2.848 . S
N600 C592 1.362 1_545 S
N600 Eu599 2.657 1_545 S
N600 C601 1.334 . S
C601 N600 1.334 . S
C601 C603 1.413 . S
C601 H608 0.929 . S
C602 C590 1.392 1_545 S
C602 C603 1.367 . S
C602 H610 0.930 . S
C603 C601 1.413 . S
C603 C602 1.367 . S
C603 H605 0.930 . S
H604 C597 0.930 . S
H605 C603 0.930 . S
H606 C594 0.930 . S
H607 C595 0.930 . S
H608 C601 0.929 . S
H609 C623 0.930 . S
H610 C602 0.930 . S
H611 C629 0.930 . S
H612 C620 0.929 . S
H613 C627 0.930 . S
H614 C591 0.931 . S
H615 C621 0.930 . S
H616 C654 0.930 . S
H617 C598 0.930 . S
H618 C653 0.931 . S
N619 Eu588 2.657 1_665 S
N619 C620 1.334 . S
N619 C624 1.362 1_565 S
C620 H612 0.929 . S
C620 N619 1.334 . S
C620 C623 1.413 . S
C621 H615 0.930 . S
C621 C622 1.392 1_565 S
C621 C623 1.367 . S
C622 C621 1.392 1_545 S
C622 C624 1.420 . S
C622 C654 1.423 . S
C623 H609 0.930 . S
C623 C620 1.413 . S
C623 C621 1.367 . S
C624 N619 1.362 1_545 S
C624 C622 1.420 . S
C624 C628 1.429 . S
H625 C630 0.930 . S
N626 Eu588 2.609 1_655 S
N626 C628 1.377 . S
N626 C629 1.321 1_655 S
C627 H613 0.930 . S
C627 C629 1.400 1_655 S
C627 C630 1.386 . S
C628 C624 1.429 . S
C628 N626 1.377 . S
C628 C631 1.411 . S
C629 H611 0.930 . S
C629 N626 1.321 1_455 S
C629 C627 1.400 1_455 S
C630 H625 0.930 . S
C630 C627 1.386 . S
C630 C631 1.395 . S
C631 C628 1.411 . S
C631 C630 1.395 . S
C631 C653 1.420 . S
O632 Eu588 2.558 . S
O632 C652 1.257 . S
O633 Eu588 2.612 1_565 S
O633 Eu599 2.380 . S
O633 C644 1.276 1_565 S
O634 Eu599 2.432 . S
O634 C651 1.264 . S
O635 Eu588 2.339 1_565 S
O635 C651 1.254 . S
O636 Eu588 2.563 . S
O636 C644 1.234 . S
O637 Eu588 2.419 1_565 S
O637 C652 1.249 1_565 S
O638 Eu599 2.558 . S
O638 C663 1.257 . S
O639 Eu588 2.380 . S
O639 Eu599 2.612 1_545 S
O639 C655 1.274 1_545 S
O640 Eu588 2.432 . S
O640 C662 1.264 . S
O641 Eu599 2.339 1_545 S
O641 C662 1.254 . S
O642 Eu599 2.563 . S
O642 C655 1.239 . S
O643 Eu599 2.419 1_545 S
O643 C663 1.249 1_545 S
C644 O633 1.276 1_545 S
C644 O636 1.234 . S
C645 C647 1.393 1_545 S
C645 C649 1.395 1_455 S
C645 C652 1.492 . S
C646 C647 1.394 . S
C646 C648 1.366 1_465 S
C647 C645 1.393 1_565 S
C647 C646 1.394 . S
C647 H664 0.930 . S
C648 C646 1.366 1_645 S
C648 C650 1.395 . S
C648 H665 0.930 . S
C649 C645 1.395 1_655 S
C649 C650 1.379 . S
C649 H666 0.930 . S
C650 C648 1.395 . S
C650 C649 1.379 . S
C650 H667 0.930 . S
C651 O634 1.264 . S
C651 O635 1.254 . S
C652 Eu588 2.848 . S
C652 O632 1.257 . S
C652 O637 1.249 1_545 S
C652 C645 1.492 . S
C653 H618 0.931 . S
C653 C631 1.420 . S
C653 C654 1.351 . S
C654 H616 0.930 . S
C654 C622 1.423 . S
C654 C653 1.351 . S
C655 O639 1.274 1_565 S
C655 O642 1.239 . S
C656 C657 1.393 1_565 S
C656 C660 1.395 . S
C656 C663 1.492 . S
C657 C656 1.393 1_545 S
C657 C658 1.393 . S
C657 H668 0.930 . S
C658 C657 1.393 . S
C658 C659 1.376 1_545 S
C659 C658 1.376 1_565 S
C659 C661 1.395 . S
C659 H669 0.930 . S
C660 C656 1.395 . S
C660 C661 1.379 . S
C660 H670 0.930 . S
C661 C659 1.395 . S
C661 C660 1.379 . S
C661 H671 0.930 . S
C662 O640 1.264 . S
C662 O641 1.254 . S
C663 Eu599 2.848 . S
C663 O638 1.257 . S
C663 O643 1.249 1_565 S
C663 C656 1.492 . S
H664 C647 0.930 . S
H665 C648 0.930 . S
H666 C649 0.930 . S
H667 C650 0.930 . S
H668 C657 0.930 . S
H669 C659 0.930 . S
H670 C660 0.930 . S
H671 C661 0.930 . S
Eu672 N703 2.657 . S
Eu672 N710 2.609 . S
Eu672 O716 2.558 . S
Eu672 O717 2.612 . S
Eu672 O719 2.339 . S
Eu672 O720 2.563 . S
Eu672 O721 2.419 . S
Eu672 O723 2.380 . S
Eu672 O724 2.432 . S
Eu672 C736 2.848 . S
C673 C676 1.429 . S
C673 C677 1.411 . S
C673 N680 1.377 . S
C674 C676 1.420 . S
C674 C678 1.423 . S
C674 C686 1.392 . S
C675 C677 1.420 . S
C675 C678 1.351 . S
C675 H698 0.931 . S
C676 C673 1.429 . S
C676 C674 1.420 . S
C676 N684 1.362 . S
C677 C673 1.411 . S
C677 C675 1.420 . S
C677 C682 1.395 . S
C678 C674 1.423 . S
C678 C675 1.351 . S
C678 H690 0.930 . S
C679 C681 1.400 . S
C679 C682 1.386 . S
C679 H691 0.930 . S
N680 C673 1.377 . S
N680 C681 1.321 . S
N680 Eu683 2.609 . S
C681 C679 1.400 . S
C681 N680 1.321 . S
C681 H688 0.930 . S
C682 C677 1.395 . S
C682 C679 1.386 . S
C682 H701 0.930 . S
Eu683 N680 2.609 . S
Eu683 N684 2.657 . S
Eu683 O717 2.380 . S
Eu683 O718 2.432 . S
Eu683 O722 2.558 . S
Eu683 O723 2.612 . S
Eu683 O725 2.339 . S
Eu683 O726 2.563 . S
Eu683 O727 2.419 . S
Eu683 C747 2.848 . S
N684 C676 1.362 . S
N684 Eu683 2.657 . S
N684 C685 1.334 . S
C685 N684 1.334 . S
C685 C687 1.413 . S
C685 H692 0.929 . S
C686 C674 1.392 . S
C686 C687 1.367 . S
C686 H694 0.930 . S
C687 C685 1.413 . S
C687 C686 1.367 . S
C687 H689 0.930 . S
H688 C681 0.930 . S
H689 C687 0.930 . S
H690 C678 0.930 . S
H691 C679 0.930 . S
H692 C685 0.929 . S
H693 C707 0.930 . S
H694 C686 0.930 . S
H695 C713 0.930 . S
H696 C704 0.929 . S
H697 C711 0.930 . S
H698 C675 0.931 . S
H699 C705 0.930 . S
H700 C738 0.930 . S
H701 C682 0.930 . S
H702 C737 0.931 . S
N703 Eu672 2.657 . S
N703 C704 1.334 . S
N703 C708 1.362 . S
C704 H696 0.929 . S
C704 N703 1.334 . S
C704 C707 1.413 . S
C705 H699 0.930 . S
C705 C706 1.392 . S
C705 C707 1.367 . S
C706 C705 1.392 . S
C706 C708 1.420 . S
C706 C738 1.423 . S
C707 H693 0.930 . S
C707 C704 1.413 . S
C707 C705 1.367 . S
C708 N703 1.362 . S
C708 C706 1.420 . S
C708 C712 1.429 . S
H709 C714 0.930 . S
N710 Eu672 2.609 . S
N710 C712 1.377 . S
N710 C713 1.321 . S
C711 H697 0.930 . S
C711 C713 1.400 . S
C711 C714 1.386 . S
C712 C708 1.429 . S
C712 N710 1.377 . S
C712 C715 1.411 . S
C713 H695 0.930 . S
C713 N710 1.321 . S
C713 C711 1.400 . S
C714 H709 0.930 . S
C714 C711 1.386 . S
C714 C715 1.395 . S
C715 C712 1.411 . S
C715 C714 1.395 . S
C715 C737 1.420 . S
O716 Eu672 2.558 . S
O716 C736 1.257 . S
O717 Eu672 2.612 . S
O717 Eu683 2.380 . S
O717 C728 1.276 . S
O718 Eu683 2.432 . S
O718 C735 1.264 . S
O719 Eu672 2.339 . S
O719 C735 1.254 . S
O720 Eu672 2.563 . S
O720 C728 1.235 . S
O721 Eu672 2.419 . S
O721 C736 1.249 . S
O722 Eu683 2.558 . S
O722 C747 1.257 . S
O723 Eu672 2.380 . S
O723 Eu683 2.612 . S
O723 C739 1.276 . S
O724 Eu672 2.432 . S
O724 C746 1.264 . S
O725 Eu683 2.339 . S
O725 C746 1.254 . S
O726 Eu683 2.563 . S
O726 C739 1.235 . S
O727 Eu683 2.419 . S
O727 C747 1.249 . S
C728 O717 1.276 . S
C728 O720 1.235 . S
C729 C731 1.393 . S
C729 C733 1.395 . S
C729 C736 1.492 . S
C730 C731 1.392 . S
C730 C732 1.386 . S
C731 C729 1.393 . S
C731 C730 1.392 . S
C731 H748 0.930 . S
C732 C730 1.386 . S
C732 C734 1.395 . S
C732 H749 0.930 . S
C733 C729 1.395 . S
C733 C734 1.379 . S
C733 H750 0.930 . S
C734 C732 1.395 . S
C734 C733 1.379 . S
C734 H751 0.930 . S
C735 O718 1.264 . S
C735 O719 1.254 . S
C736 Eu672 2.848 . S
C736 O716 1.257 . S
C736 O721 1.249 . S
C736 C729 1.492 . S
C737 H702 0.931 . S
C737 C715 1.420 . S
C737 C738 1.351 . S
C738 H700 0.930 . S
C738 C706 1.423 . S
C738 C737 1.351 . S
C739 O723 1.276 . S
C739 O726 1.235 . S
C740 C741 1.393 . S
C740 C744 1.395 . S
C740 C747 1.492 . S
C741 C740 1.393 . S
C741 C742 1.392 . S
C741 H752 0.930 . S
C742 C741 1.392 . S
C742 C743 1.386 . S
C743 C742 1.386 . S
C743 C745 1.395 . S
C743 H753 0.930 . S
C744 C740 1.395 . S
C744 C745 1.379 . S
C744 H754 0.930 . S
C745 C743 1.395 . S
C745 C744 1.379 . S
C745 H755 0.930 . S
C746 O724 1.264 . S
C746 O725 1.254 . S
C747 Eu683 2.848 . S
C747 O722 1.257 . S
C747 O727 1.249 . S
C747 C740 1.492 . S
H748 C731 0.930 . S
H749 C732 0.930 . S
H750 C733 0.930 . S
H751 C734 0.930 . S
H752 C741 0.930 . S
H753 C743 0.930 . S
H754 C744 0.930 . S
H755 C745 0.930 . S
Eu756 N787 2.657 . S
Eu756 N794 2.609 . S
Eu756 O800 2.558 . S
Eu756 O801 2.612 . S
Eu756 O803 2.339 . S
Eu756 O804 2.563 . S
Eu756 O805 2.419 . S
Eu756 O807 2.380 . S
Eu756 O808 2.432 . S
Eu756 C820 2.848 . S
C757 C760 1.429 . S
C757 C761 1.411 . S
C757 N764 1.377 . S
C758 C760 1.420 . S
C758 C762 1.423 . S
C758 C770 1.392 . S
C759 C761 1.420 . S
C759 C762 1.351 . S
C759 H782 0.931 . S
C760 C757 1.429 . S
C760 C758 1.420 . S
C760 N768 1.362 . S
C761 C757 1.411 . S
C761 C759 1.420 . S
C761 C766 1.395 . S
C762 C758 1.423 . S
C762 C759 1.351 . S
C762 H774 0.930 . S
C763 C765 1.385 1_455 S
C763 C766 1.386 . S
C763 H775 0.930 . S
N764 C757 1.377 . S
N764 C765 1.318 1_455 S
N764 Eu767 2.609 1_455 S
C765 C763 1.385 1_655 S
C765 N764 1.318 1_655 S
C765 H772 0.949 . S
C766 C761 1.395 . S
C766 C763 1.386 . S
C766 H785 0.930 . S
Eu767 N764 2.609 1_655 S
Eu767 N768 2.657 1_655 S
Eu767 O801 2.380 . S
Eu767 O802 2.432 . S
Eu767 O806 2.558 . S
Eu767 O807 2.612 . S
Eu767 O809 2.339 . S
Eu767 O810 2.563 . S
Eu767 O811 2.419 . S
Eu767 C831 2.848 . S
N768 C760 1.362 . S
N768 Eu767 2.657 1_455 S
N768 C769 1.334 . S
C769 N768 1.334 . S
C769 C771 1.413 . S
C769 H776 0.929 . S
C770 C758 1.392 . S
C770 C771 1.367 . S
C770 H778 0.930 . S
C771 C769 1.413 . S
C771 C770 1.367 . S
C771 H773 0.930 . S
H772 C765 0.949 . S
H773 C771 0.930 . S
H774 C762 0.930 . S
H775 C763 0.930 . S
H776 C769 0.929 . S
H777 C791 0.930 . S
H778 C770 0.930 . S
H779 C797 0.930 . S
H780 C788 0.929 . S
H781 C795 0.930 . S
H782 C759 0.931 . S
H783 C789 0.930 . S
H784 C822 0.930 . S
H785 C766 0.930 . S
H786 C821 0.931 . S
N787 Eu756 2.657 . S
N787 C788 1.334 . S
N787 C792 1.362 . S
C788 H780 0.929 . S
C788 N787 1.334 . S
C788 C791 1.413 . S
C789 H783 0.930 . S
C789 C790 1.392 . S
C789 C791 1.367 . S
C790 C789 1.392 . S
C790 C792 1.420 . S
C790 C822 1.423 . S
C791 H777 0.930 . S
C791 C788 1.413 . S
C791 C789 1.367 . S
C792 N787 1.362 . S
C792 C790 1.420 . S
C792 C796 1.429 . S
H793 C798 0.930 . S
N794 Eu756 2.609 . S
N794 C796 1.377 . S
N794 C797 1.321 . S
C795 H781 0.930 . S
C795 C797 1.400 . S
C795 C798 1.386 . S
C796 C792 1.429 . S
C796 N794 1.377 . S
C796 C799 1.411 . S
C797 H779 0.930 . S
C797 N794 1.321 . S
C797 C795 1.400 . S
C798 H793 0.930 . S
C798 C795 1.386 . S
C798 C799 1.395 . S
C799 C796 1.411 . S
C799 C798 1.395 . S
C799 C821 1.420 . S
O800 Eu756 2.558 . S
O800 C820 1.257 . S
O801 Eu756 2.612 . S
O801 Eu767 2.380 . S
O801 C812 1.276 . S
O802 Eu767 2.432 . S
O802 C819 1.264 . S
O803 Eu756 2.339 . S
O803 C819 1.254 . S
O804 Eu756 2.563 . S
O804 C812 1.235 . S
O805 Eu756 2.419 . S
O805 C820 1.249 . S
O806 Eu767 2.558 . S
O806 C831 1.257 . S
O807 Eu756 2.380 . S
O807 Eu767 2.612 . S
O807 C823 1.276 . S
O808 Eu756 2.432 . S
O808 C830 1.264 . S
O809 Eu767 2.339 . S
O809 C830 1.254 . S
O810 Eu767 2.563 . S
O810 C823 1.235 . S
O811 Eu767 2.419 . S
O811 C831 1.249 . S
C812 O801 1.276 . S
C812 O804 1.235 . S
C813 C815 1.393 . S
C813 C817 1.395 . S
C813 C820 1.492 . S
C814 C815 1.392 . S
C814 C816 1.386 . S
C815 C813 1.393 . S
C815 C814 1.392 . S
C815 H832 0.930 . S
C816 C814 1.386 . S
C816 C818 1.395 . S
C816 H833 0.930 . S
C817 C813 1.395 . S
C817 C818 1.379 . S
C817 H834 0.930 . S
C818 C816 1.395 . S
C818 C817 1.379 . S
C818 H835 0.930 . S
C819 O802 1.264 . S
C819 O803 1.254 . S
C820 Eu756 2.848 . S
C820 O800 1.257 . S
C820 O805 1.249 . S
C820 C813 1.492 . S
C821 H786 0.931 . S
C821 C799 1.420 . S
C821 C822 1.351 . S
C822 H784 0.930 . S
C822 C790 1.423 . S
C822 C821 1.351 . S
C823 O807 1.276 . S
C823 O810 1.235 . S
C824 C825 1.393 . S
C824 C828 1.395 1_655 S
C824 C831 1.492 . S
C825 C824 1.393 . S
C825 C826 1.392 1_655 S
C825 H836 0.930 . S
C826 C825 1.392 1_455 S
C826 C827 1.386 . S
C827 C826 1.386 . S
C827 C829 1.395 . S
C827 H837 0.930 . S
C828 C824 1.395 1_455 S
C828 C829 1.379 . S
C828 H838 0.930 . S
C829 C827 1.395 . S
C829 C828 1.379 . S
C829 H839 0.930 . S
C830 O808 1.264 . S
C830 O809 1.254 . S
C831 Eu767 2.848 . S
C831 O806 1.257 . S
C831 O811 1.249 . S
C831 C824 1.492 . S
H832 C815 0.930 . S
H833 C816 0.930 . S
H834 C817 0.930 . S
H835 C818 0.930 . S
H836 C825 0.930 . S
H837 C827 0.930 . S
H838 C828 0.930 . S
H839 C829 0.930 . S
Eu840 N871 2.657 . S
Eu840 N878 2.609 . S
Eu840 O884 2.558 . S
Eu840 O885 2.612 . S
Eu840 O887 2.339 . S
Eu840 O888 2.563 . S
Eu840 O889 2.419 . S
Eu840 O891 2.380 . S
Eu840 O892 2.432 . S
Eu840 C904 2.848 . S
C841 C844 1.429 . S
C841 C845 1.411 . S
C841 N848 1.377 . S
C842 C844 1.420 . S
C842 C846 1.423 . S
C842 C854 1.392 . S
C843 C845 1.420 . S
C843 C846 1.351 . S
C843 H866 0.931 . S
C844 C841 1.429 . S
C844 C842 1.420 . S
C844 N852 1.362 . S
C845 C841 1.411 . S
C845 C843 1.420 . S
C845 C850 1.395 . S
C846 C842 1.423 . S
C846 C843 1.351 . S
C846 H858 0.930 . S
C847 C849 1.400 . S
C847 C850 1.386 . S
C847 H859 0.930 . S
N848 C841 1.377 . S
N848 C849 1.321 . S
N848 Eu851 2.609 . S
C849 C847 1.400 . S
C849 N848 1.321 . S
C849 H856 0.930 . S
C850 C845 1.395 . S
C850 C847 1.386 . S
C850 H869 0.930 . S
Eu851 N848 2.609 . S
Eu851 N852 2.657 . S
Eu851 O885 2.380 . S
Eu851 O886 2.432 . S
Eu851 O890 2.558 . S
Eu851 O891 2.612 . S
Eu851 O893 2.339 . S
Eu851 O894 2.563 . S
Eu851 O895 2.419 . S
Eu851 C915 2.848 . S
N852 C844 1.362 . S
N852 Eu851 2.657 . S
N852 C853 1.334 . S
C853 N852 1.334 . S
C853 C855 1.413 . S
C853 H860 0.929 . S
C854 C842 1.392 . S
C854 C855 1.367 . S
C854 H862 0.930 . S
C855 C853 1.413 . S
C855 C854 1.367 . S
C855 H857 0.930 . S
H856 C849 0.930 . S
H857 C855 0.930 . S
H858 C846 0.930 . S
H859 C847 0.930 . S
H860 C853 0.929 . S
H861 C875 0.930 . S
H862 C854 0.930 . S
H863 C881 0.930 . S
H864 C872 0.929 . S
H865 C879 0.930 . S
H866 C843 0.931 . S
H867 C873 0.930 . S
H868 C906 0.930 . S
H869 C850 0.930 . S
H870 C905 0.931 . S
N871 Eu840 2.657 . S
N871 C872 1.334 . S
N871 C876 1.362 . S
C872 H864 0.929 . S
C872 N871 1.334 . S
C872 C875 1.413 . S
C873 H867 0.930 . S
C873 C874 1.392 . S
C873 C875 1.367 . S
C874 C873 1.392 . S
C874 C876 1.420 . S
C874 C906 1.423 . S
C875 H861 0.930 . S
C875 C872 1.413 . S
C875 C873 1.367 . S
C876 N871 1.362 . S
C876 C874 1.420 . S
C876 C880 1.429 . S
H877 C882 0.930 . S
N878 Eu840 2.609 . S
N878 C880 1.377 . S
N878 C881 1.321 . S
C879 H865 0.930 . S
C879 C881 1.400 . S
C879 C882 1.386 . S
C880 C876 1.429 . S
C880 N878 1.377 . S
C880 C883 1.411 . S
C881 H863 0.930 . S
C881 N878 1.321 . S
C881 C879 1.400 . S
C882 H877 0.930 . S
C882 C879 1.386 . S
C882 C883 1.395 . S
C883 C880 1.411 . S
C883 C882 1.395 . S
C883 C905 1.420 . S
O884 Eu840 2.558 . S
O884 C904 1.257 . S
O885 Eu840 2.612 . S
O885 Eu851 2.380 . S
O885 C896 1.276 . S
O886 Eu851 2.432 . S
O886 C903 1.264 . S
O887 Eu840 2.339 . S
O887 C903 1.254 . S
O888 Eu840 2.563 . S
O888 C896 1.235 . S
O889 Eu840 2.419 . S
O889 C904 1.249 . S
O890 Eu851 2.558 . S
O890 C915 1.257 . S
O891 Eu840 2.380 . S
O891 Eu851 2.612 . S
O891 C907 1.276 . S
O892 Eu840 2.432 . S
O892 C914 1.264 . S
O893 Eu851 2.339 . S
O893 C914 1.254 . S
O894 Eu851 2.563 . S
O894 C907 1.235 . S
O895 Eu851 2.419 . S
O895 C915 1.249 . S
C896 O885 1.276 . S
C896 O888 1.235 . S
C897 C899 1.393 . S
C897 C901 1.395 . S
C897 C904 1.492 . S
C898 C899 1.392 . S
C898 C900 1.386 . S
C899 C897 1.393 . S
C899 C898 1.392 . S
C899 H916 0.930 . S
C900 C898 1.386 . S
C900 C902 1.395 . S
C900 H917 0.930 . S
C901 C897 1.395 . S
C901 C902 1.379 . S
C901 H918 0.930 . S
C902 C900 1.395 . S
C902 C901 1.379 . S
C902 H919 0.930 . S
C903 O886 1.264 . S
C903 O887 1.254 . S
C904 Eu840 2.848 . S
C904 O884 1.257 . S
C904 O889 1.249 . S
C904 C897 1.492 . S
C905 H870 0.931 . S
C905 C883 1.420 . S
C905 C906 1.351 . S
C906 H868 0.930 . S
C906 C874 1.423 . S
C906 C905 1.351 . S
C907 O891 1.276 . S
C907 O894 1.235 . S
C908 C909 1.393 . S
C908 C912 1.395 . S
C908 C915 1.492 . S
C909 C908 1.393 . S
C909 C910 1.392 . S
C909 H920 0.930 . S
C910 C909 1.392 . S
C910 C911 1.386 . S
C911 C910 1.386 . S
C911 C913 1.395 . S
C911 H921 0.930 . S
C912 C908 1.395 . S
C912 C913 1.379 . S
C912 H922 0.930 . S
C913 C911 1.395 . S
C913 C912 1.379 . S
C913 H923 0.930 . S
C914 O892 1.264 . S
C914 O893 1.254 . S
C915 Eu851 2.848 . S
C915 O890 1.257 . S
C915 O895 1.249 . S
C915 C908 1.492 . S
H916 C899 0.930 . S
H917 C900 0.930 . S
H918 C901 0.930 . S
H919 C902 0.930 . S
H920 C909 0.930 . S
H921 C911 0.930 . S
H922 C912 0.930 . S
H923 C913 0.930 . S
Eu924 N955 2.657 . S
Eu924 N962 2.609 . S
Eu924 O968 2.558 . S
Eu924 O969 2.612 . S
Eu924 O971 2.339 . S
Eu924 O972 2.563 . S
Eu924 O973 2.419 . S
Eu924 O975 2.380 . S
Eu924 O976 2.432 . S
Eu924 C988 2.848 . S
C925 C928 1.429 . S
C925 C929 1.411 . S
C925 N932 1.377 . S
C926 C928 1.420 . S
C926 C930 1.423 . S
C926 C938 1.392 . S
C927 C929 1.420 . S
C927 C930 1.351 . S
C927 H950 0.931 . S
C928 C925 1.429 . S
C928 C926 1.420 . S
C928 N936 1.362 . S
C929 C925 1.411 . S
C929 C927 1.420 . S
C929 C934 1.395 . S
C930 C926 1.423 . S
C930 C927 1.351 . S
C930 H942 0.930 . S
C931 C933 1.400 1_455 S
C931 C934 1.386 . S
C931 H943 0.930 . S
N932 C925 1.377 . S
N932 C933 1.321 1_455 S
N932 Eu935 2.609 1_455 S
C933 C931 1.400 1_655 S
C933 N932 1.321 1_655 S
C933 H940 0.930 . S
C934 C929 1.395 . S
C934 C931 1.386 . S
C934 H953 0.930 . S
Eu935 N932 2.609 1_655 S
Eu935 N936 2.657 1_655 S
Eu935 O969 2.380 . S
Eu935 O970 2.432 . S
Eu935 O974 2.558 . S
Eu935 O975 2.612 . S
Eu935 O977 2.339 . S
Eu935 O978 2.563 . S
Eu935 O979 2.419 . S
Eu935 C999 2.848 . S
N936 C928 1.362 . S
N936 Eu935 2.657 1_455 S
N936 C937 1.334 . S
C937 N936 1.334 . S
C937 C939 1.413 . S
C937 H944 0.929 . S
C938 C926 1.392 . S
C938 C939 1.367 . S
C938 H946 0.930 . S
C939 C937 1.413 . S
C939 C938 1.367 . S
C939 H941 0.930 . S
H940 C933 0.930 . S
H941 C939 0.930 . S
H942 C930 0.930 . S
H943 C931 0.930 . S
H944 C937 0.929 . S
H945 C959 0.930 . S
H946 C938 0.930 . S
H947 C965 0.930 . S
H948 C956 0.929 . S
H949 C963 0.930 . S
H950 C927 0.931 . S
H951 C957 0.930 . S
H952 C990 0.930 . S
H953 C934 0.930 . S
H954 C989 0.931 . S
N955 Eu924 2.657 . S
N955 C956 1.334 . S
N955 C960 1.362 . S
C956 H948 0.929 . S
C956 N955 1.334 . S
C956 C959 1.413 . S
C957 H951 0.930 . S
C957 C958 1.392 . S
C957 C959 1.367 . S
C958 C957 1.392 . S
C958 C960 1.420 . S
C958 C990 1.423 . S
C959 H945 0.930 . S
C959 C956 1.413 . S
C959 C957 1.367 . S
C960 N955 1.362 . S
C960 C958 1.420 . S
C960 C964 1.429 . S
H961 C966 0.930 . S
N962 Eu924 2.609 . S
N962 C964 1.377 . S
N962 C965 1.321 . S
C963 H949 0.930 . S
C963 C965 1.400 . S
C963 C966 1.386 . S
C964 C960 1.429 . S
C964 N962 1.377 . S
C964 C967 1.411 . S
C965 H947 0.930 . S
C965 N962 1.321 . S
C965 C963 1.400 . S
C966 H961 0.930 . S
C966 C963 1.386 . S
C966 C967 1.395 . S
C967 C964 1.411 . S
C967 C966 1.395 . S
C967 C989 1.420 . S
O968 Eu924 2.558 . S
O968 C988 1.257 . S
O969 Eu924 2.612 . S
O969 Eu935 2.380 . S
O969 C980 1.276 . S
O970 Eu935 2.432 . S
O970 C987 1.264 . S
O971 Eu924 2.339 . S
O971 C987 1.254 . S
O972 Eu924 2.563 . S
O972 C980 1.235 . S
O973 Eu924 2.419 . S
O973 C988 1.249 . S
O974 Eu935 2.558 . S
O974 C999 1.257 . S
O975 Eu924 2.380 . S
O975 Eu935 2.612 . S
O975 C991 1.276 . S
O976 Eu924 2.432 . S
O976 C998 1.264 . S
O977 Eu935 2.339 . S
O977 C998 1.254 . S
O978 Eu935 2.563 . S
O978 C991 1.235 . S
O979 Eu935 2.419 . S
O979 C999 1.249 . S
C980 O969 1.276 . S
C980 O972 1.235 . S
C981 C983 1.393 . S
C981 C985 1.395 . S
C981 C988 1.492 . S
C982 C983 1.392 . S
C982 C984 1.386 . S
C983 C981 1.393 . S
C983 C982 1.392 . S
C983 H1000 0.930 . S
C984 C982 1.386 . S
C984 C986 1.395 . S
C984 H1001 0.930 . S
C985 C981 1.395 . S
C985 C986 1.379 . S
C985 H1002 0.930 . S
C986 C984 1.395 . S
C986 C985 1.379 . S
C986 H1003 0.930 . S
C987 O970 1.264 . S
C987 O971 1.254 . S
C988 Eu924 2.848 . S
C988 O968 1.257 . S
C988 O973 1.249 . S
C988 C981 1.492 . S
C989 H954 0.931 . S
C989 C967 1.420 . S
C989 C990 1.351 . S
C990 H952 0.930 . S
C990 C958 1.423 . S
C990 C989 1.351 . S
C991 O975 1.276 . S
C991 O978 1.235 . S
C992 C993 1.393 . S
C992 C996 1.395 1_655 S
C992 C999 1.492 . S
C993 C992 1.393 . S
C993 C994 1.387 1_655 S
C993 H1004 0.930 . S
C994 C993 1.387 1_455 S
C994 C995 1.395 . S
C995 C994 1.395 . S
C995 C997 1.395 . S
C995 H1005 0.930 . S
C996 C992 1.395 1_455 S
C996 C997 1.379 . S
C996 H1006 0.930 . S
C997 C995 1.395 . S
C997 C996 1.379 . S
C997 H1007 0.930 . S
C998 O976 1.264 . S
C998 O977 1.254 . S
C999 Eu935 2.848 . S
C999 O974 1.257 . S
C999 O979 1.249 . S
C999 C992 1.492 . S
H1000 C983 0.930 . S
H1001 C984 0.930 . S
H1002 C985 0.930 . S
H1003 C986 0.930 . S
H1004 C993 0.930 . S
H1005 C995 0.930 . S
H1006 C996 0.930 . S
H1007 C997 0.930 . S
Eu1008 N1039 2.657 . S
Eu1008 N1046 2.609 . S
Eu1008 O1052 2.558 . S
Eu1008 O1053 2.612 . S
Eu1008 O1055 2.339 . S
Eu1008 O1056 2.563 . S
Eu1008 O1057 2.419 . S
Eu1008 O1059 2.380 . S
Eu1008 O1060 2.432 . S
Eu1008 C1072 2.848 . S
C1009 C1012 1.429 . S
C1009 C1013 1.411 . S
C1009 N1016 1.377 . S
C1010 C1012 1.420 . S
C1010 C1014 1.423 . S
C1010 C1022 1.392 . S
C1011 C1013 1.420 . S
C1011 C1014 1.351 . S
C1011 H1034 0.931 . S
C1012 C1009 1.429 . S
C1012 C1010 1.420 . S
C1012 N1020 1.362 . S
C1013 C1009 1.411 . S
C1013 C1011 1.420 . S
C1013 C1018 1.395 . S
C1014 C1010 1.423 . S
C1014 C1011 1.351 . S
C1014 H1026 0.930 . S
C1015 C1017 1.400 . S
C1015 C1018 1.386 . S
C1015 H1027 0.930 . S
N1016 C1009 1.377 . S
N1016 C1017 1.321 . S
N1016 Eu1019 2.609 . S
C1017 C1015 1.400 . S
C1017 N1016 1.321 . S
C1017 H1024 0.930 . S
C1018 C1013 1.395 . S
C1018 C1015 1.386 . S
C1018 H1037 0.930 . S
Eu1019 N1016 2.609 . S
Eu1019 N1020 2.657 . S
Eu1019 O1053 2.380 . S
Eu1019 O1054 2.432 . S
Eu1019 O1058 2.558 . S
Eu1019 O1059 2.612 . S
Eu1019 O1061 2.339 . S
Eu1019 O1062 2.563 . S
Eu1019 O1063 2.419 . S
Eu1019 C1083 2.848 . S
N1020 C1012 1.362 . S
N1020 Eu1019 2.657 . S
N1020 C1021 1.334 . S
C1021 N1020 1.334 . S
C1021 C1023 1.413 . S
C1021 H1028 0.929 . S
C1022 C1010 1.392 . S
C1022 C1023 1.367 . S
C1022 H1030 0.930 . S
C1023 C1021 1.413 . S
C1023 C1022 1.367 . S
C1023 H1025 0.930 . S
H1024 C1017 0.930 . S
H1025 C1023 0.930 . S
H1026 C1014 0.930 . S
H1027 C1015 0.930 . S
H1028 C1021 0.929 . S
H1029 C1043 0.930 . S
H1030 C1022 0.930 . S
H1031 C1049 0.930 . S
H1032 C1040 0.929 . S
H1033 C1047 0.930 . S
H1034 C1011 0.931 . S
H1035 C1041 0.930 . S
H1036 C1074 0.930 . S
H1037 C1018 0.930 . S
H1038 C1073 0.931 . S
N1039 Eu1008 2.657 . S
N1039 C1040 1.334 . S
N1039 C1044 1.362 . S
C1040 H1032 0.929 . S
C1040 N1039 1.334 . S
C1040 C1043 1.413 . S
C1041 H1035 0.930 . S
C1041 C1042 1.392 . S
C1041 C1043 1.367 . S
C1042 C1041 1.392 . S
C1042 C1044 1.420 . S
C1042 C1074 1.423 . S
C1043 H1029 0.930 . S
C1043 C1040 1.413 . S
C1043 C1041 1.367 . S
C1044 N1039 1.362 . S
C1044 C1042 1.420 . S
C1044 C1048 1.429 . S
H1045 C1050 0.930 . S
N1046 Eu1008 2.609 . S
N1046 C1048 1.377 . S
N1046 C1049 1.321 . S
C1047 H1033 0.930 . S
C1047 C1049 1.400 . S
C1047 C1050 1.386 . S
C1048 C1044 1.429 . S
C1048 N1046 1.377 . S
C1048 C1051 1.411 . S
C1049 H1031 0.930 . S
C1049 N1046 1.321 . S
C1049 C1047 1.400 . S
C1050 H1045 0.930 . S
C1050 C1047 1.386 . S
C1050 C1051 1.395 . S
C1051 C1048 1.411 . S
C1051 C1050 1.395 . S
C1051 C1073 1.420 . S
O1052 Eu1008 2.558 . S
O1052 C1072 1.257 . S
O1053 Eu1008 2.612 . S
O1053 Eu1019 2.380 . S
O1053 C1064 1.276 . S
O1054 Eu1019 2.432 . S
O1054 C1071 1.264 . S
O1055 Eu1008 2.339 . S
O1055 C1071 1.254 . S
O1056 Eu1008 2.563 . S
O1056 C1064 1.235 . S
O1057 Eu1008 2.419 . S
O1057 C1072 1.249 . S
O1058 Eu1019 2.558 . S
O1058 C1083 1.257 . S
O1059 Eu1008 2.380 . S
O1059 Eu1019 2.612 . S
O1059 C1075 1.276 . S
O1060 Eu1008 2.432 . S
O1060 C1082 1.264 . S
O1061 Eu1019 2.339 . S
O1061 C1082 1.254 . S
O1062 Eu1019 2.563 . S
O1062 C1075 1.235 . S
O1063 Eu1019 2.419 . S
O1063 C1083 1.249 . S
C1064 O1053 1.276 . S
C1064 O1056 1.235 . S
C1065 C1067 1.393 . S
C1065 C1069 1.395 . S
C1065 C1072 1.492 . S
C1066 C1067 1.392 . S
C1066 C1068 1.386 . S
C1067 C1065 1.393 . S
C1067 C1066 1.392 . S
C1067 H1084 0.930 . S
C1068 C1066 1.386 . S
C1068 C1070 1.395 . S
C1068 H1085 0.930 . S
C1069 C1065 1.395 . S
C1069 C1070 1.379 . S
C1069 H1086 0.930 . S
C1070 C1068 1.395 . S
C1070 C1069 1.379 . S
C1070 H1087 0.930 . S
C1071 O1054 1.264 . S
C1071 O1055 1.254 . S
C1072 Eu1008 2.848 . S
C1072 O1052 1.257 . S
C1072 O1057 1.249 . S
C1072 C1065 1.492 . S
C1073 H1038 0.931 . S
C1073 C1051 1.420 . S
C1073 C1074 1.351 . S
C1074 H1036 0.930 . S
C1074 C1042 1.423 . S
C1074 C1073 1.351 . S
C1075 O1059 1.276 . S
C1075 O1062 1.235 . S
C1076 C1077 1.393 . S
C1076 C1080 1.395 . S
C1076 C1083 1.492 . S
C1077 C1076 1.393 . S
C1077 C1078 1.392 . S
C1077 H1088 0.930 . S
C1078 C1077 1.392 . S
C1078 C1079 1.386 . S
C1079 C1078 1.386 . S
C1079 C1081 1.395 . S
C1079 H1089 0.930 . S
C1080 C1076 1.395 . S
C1080 C1081 1.379 . S
C1080 H1090 0.930 . S
C1081 C1079 1.395 . S
C1081 C1080 1.379 . S
C1081 H1091 0.930 . S
C1082 O1060 1.264 . S
C1082 O1061 1.254 . S
C1083 Eu1019 2.848 . S
C1083 O1058 1.257 . S
C1083 O1063 1.249 . S
C1083 C1076 1.492 . S
H1084 C1067 0.930 . S
H1085 C1068 0.930 . S
H1086 C1069 0.930 . S
H1087 C1070 0.930 . S
H1088 C1077 0.930 . S
H1089 C1079 0.930 . S
H1090 C1080 0.930 . S
H1091 C1081 0.930 . S
Eu1092 N1123 2.657 1_455 S
Eu1092 N1130 2.609 1_455 S
Eu1092 O1136 2.558 . S
Eu1092 O1137 2.612 . S
Eu1092 O1139 2.339 . S
Eu1092 O1140 2.563 . S
Eu1092 O1141 2.419 . S
Eu1092 O1143 2.380 . S
Eu1092 O1144 2.432 . S
Eu1092 C1156 2.848 . S
C1093 C1096 1.429 . S
C1093 C1097 1.411 . S
C1093 N1100 1.377 . S
C1094 C1096 1.420 . S
C1094 C1098 1.423 . S
C1094 C1106 1.392 . S
C1095 C1097 1.420 . S
C1095 C1098 1.351 . S
C1095 H1118 0.931 . S
C1096 C1093 1.429 . S
C1096 C1094 1.420 . S
C1096 N1104 1.362 . S
C1097 C1093 1.411 . S
C1097 C1095 1.420 . S
C1097 C1102 1.395 . S
C1098 C1094 1.423 . S
C1098 C1095 1.351 . S
C1098 H1110 0.930 . S
C1099 C1101 1.400 . S
C1099 C1102 1.386 . S
C1099 H1111 0.930 . S
N1100 C1093 1.377 . S
N1100 C1101 1.321 . S
N1100 Eu1103 2.609 . S
C1101 C1099 1.400 . S
C1101 N1100 1.321 . S
C1101 H1108 0.930 . S
C1102 C1097 1.395 . S
C1102 C1099 1.386 . S
C1102 H1121 0.930 . S
Eu1103 N1100 2.609 . S
Eu1103 N1104 2.657 . S
Eu1103 O1137 2.380 . S
Eu1103 O1138 2.432 . S
Eu1103 O1142 2.558 . S
Eu1103 O1143 2.612 . S
Eu1103 O1145 2.339 . S
Eu1103 O1146 2.563 . S
Eu1103 O1147 2.419 . S
Eu1103 C1167 2.848 . S
N1104 C1096 1.362 . S
N1104 Eu1103 2.657 . S
N1104 C1105 1.334 . S
C1105 N1104 1.334 . S
C1105 C1107 1.413 . S
C1105 H1112 0.929 . S
C1106 C1094 1.392 . S
C1106 C1107 1.367 . S
C1106 H1114 0.930 . S
C1107 C1105 1.413 . S
C1107 C1106 1.367 . S
C1107 H1109 0.930 . S
H1108 C1101 0.930 . S
H1109 C1107 0.930 . S
H1110 C1098 0.930 . S
H1111 C1099 0.930 . S
H1112 C1105 0.929 . S
H1113 C1127 0.930 . S
H1114 C1106 0.930 . S
H1115 C1133 0.949 . S
H1116 C1124 0.929 . S
H1117 C1131 0.930 . S
H1118 C1095 0.931 . S
H1119 C1125 0.930 . S
H1120 C1158 0.930 . S
H1121 C1102 0.930 . S
H1122 C1157 0.931 . S
N1123 Eu1092 2.657 1_655 S
N1123 C1124 1.334 . S
N1123 C1128 1.362 . S
C1124 H1116 0.929 . S
C1124 N1123 1.334 . S
C1124 C1127 1.413 . S
C1125 H1119 0.930 . S
C1125 C1126 1.392 . S
C1125 C1127 1.367 . S
C1126 C1125 1.392 . S
C1126 C1128 1.420 . S
C1126 C1158 1.423 . S
C1127 H1113 0.930 . S
C1127 C1124 1.413 . S
C1127 C1125 1.367 . S
C1128 N1123 1.362 . S
C1128 C1126 1.420 . S
C1128 C1132 1.429 . S
H1129 C1134 0.930 . S
N1130 Eu1092 2.609 1_655 S
N1130 C1132 1.377 . S
N1130 C1133 1.318 1_655 S
C1131 H1117 0.930 . S
C1131 C1133 1.385 1_655 S
C1131 C1134 1.386 . S
C1132 C1128 1.429 . S
C1132 N1130 1.377 . S
C1132 C1135 1.411 . S
C1133 H1115 0.949 . S
C1133 N1130 1.318 1_455 S
C1133 C1131 1.385 1_455 S
C1134 H1129 0.930 . S
C1134 C1131 1.386 . S
C1134 C1135 1.395 . S
C1135 C1132 1.411 . S
C1135 C1134 1.395 . S
C1135 C1157 1.420 . S
O1136 Eu1092 2.558 . S
O1136 C1156 1.257 . S
O1137 Eu1092 2.612 . S
O1137 Eu1103 2.380 . S
O1137 C1148 1.276 . S
O1138 Eu1103 2.432 . S
O1138 C1155 1.264 . S
O1139 Eu1092 2.339 . S
O1139 C1155 1.254 . S
O1140 Eu1092 2.563 . S
O1140 C1148 1.235 . S
O1141 Eu1092 2.419 . S
O1141 C1156 1.249 . S
O1142 Eu1103 2.558 . S
O1142 C1167 1.257 . S
O1143 Eu1092 2.380 . S
O1143 Eu1103 2.612 . S
O1143 C1159 1.276 . S
O1144 Eu1092 2.432 . S
O1144 C1166 1.264 . S
O1145 Eu1103 2.339 . S
O1145 C1166 1.254 . S
O1146 Eu1103 2.563 . S
O1146 C1159 1.235 . S
O1147 Eu1103 2.419 . S
O1147 C1167 1.249 . S
C1148 O1137 1.276 . S
C1148 O1140 1.235 . S
C1149 C1151 1.393 . S
C1149 C1153 1.395 1_455 S
C1149 C1156 1.492 . S
C1150 C1151 1.392 1_655 S
C1150 C1152 1.386 . S
C1151 C1149 1.393 . S
C1151 C1150 1.392 1_455 S
C1151 H1168 0.930 . S
C1152 C1150 1.386 . S
C1152 C1154 1.395 . S
C1152 H1169 0.930 . S
C1153 C1149 1.395 1_655 S
C1153 C1154 1.379 . S
C1153 H1170 0.930 . S
C1154 C1152 1.395 . S
C1154 C1153 1.379 . S
C1154 H1171 0.930 . S
C1155 O1138 1.264 . S
C1155 O1139 1.254 . S
C1156 Eu1092 2.848 . S
C1156 O1136 1.257 . S
C1156 O1141 1.249 . S
C1156 C1149 1.492 . S
C1157 H1122 0.931 . S
C1157 C1135 1.420 . S
C1157 C1158 1.351 . S
C1158 H1120 0.930 . S
C1158 C1126 1.423 . S
C1158 C1157 1.351 . S
C1159 O1143 1.276 . S
C1159 O1146 1.235 . S
C1160 C1161 1.393 . S
C1160 C1164 1.395 . S
C1160 C1167 1.492 . S
C1161 C1160 1.393 . S
C1161 C1162 1.392 . S
C1161 H1172 0.930 . S
C1162 C1161 1.392 . S
C1162 C1163 1.386 . S
C1163 C1162 1.386 . S
C1163 C1165 1.395 . S
C1163 H1173 0.930 . S
C1164 C1160 1.395 . S
C1164 C1165 1.379 . S
C1164 H1174 0.930 . S
C1165 C1163 1.395 . S
C1165 C1164 1.379 . S
C1165 H1175 0.930 . S
C1166 O1144 1.264 . S
C1166 O1145 1.254 . S
C1167 Eu1103 2.848 . S
C1167 O1142 1.257 . S
C1167 O1147 1.249 . S
C1167 C1160 1.492 . S
H1168 C1151 0.930 . S
H1169 C1152 0.930 . S
H1170 C1153 0.930 . S
H1171 C1154 0.930 . S
H1172 C1161 0.930 . S
H1173 C1163 0.930 . S
H1174 C1164 0.930 . S
H1175 C1165 0.930 . S
Eu1176 N1207 2.657 . S
Eu1176 N1214 2.609 . S
Eu1176 O1220 2.558 . S
Eu1176 O1221 2.612 . S
Eu1176 O1223 2.339 . S
Eu1176 O1224 2.563 . S
Eu1176 O1225 2.419 . S
Eu1176 O1227 2.380 . S
Eu1176 O1228 2.432 . S
Eu1176 C1240 2.848 . S
C1177 C1180 1.429 . S
C1177 C1181 1.411 . S
C1177 N1184 1.377 . S
C1178 C1180 1.420 . S
C1178 C1182 1.423 . S
C1178 C1190 1.392 . S
C1179 C1181 1.420 . S
C1179 C1182 1.351 . S
C1179 H1202 0.931 . S
C1180 C1177 1.429 . S
C1180 C1178 1.420 . S
C1180 N1188 1.362 . S
C1181 C1177 1.411 . S
C1181 C1179 1.420 . S
C1181 C1186 1.395 . S
C1182 C1178 1.423 . S
C1182 C1179 1.351 . S
C1182 H1194 0.930 . S
C1183 C1185 1.400 . S
C1183 C1186 1.386 . S
C1183 H1195 0.930 . S
N1184 C1177 1.377 . S
N1184 C1185 1.321 . S
N1184 Eu1187 2.609 . S
C1185 C1183 1.400 . S
C1185 N1184 1.321 . S
C1185 H1192 0.930 . S
C1186 C1181 1.395 . S
C1186 C1183 1.386 . S
C1186 H1205 0.930 . S
Eu1187 N1184 2.609 . S
Eu1187 N1188 2.657 . S
Eu1187 O1221 2.380 . S
Eu1187 O1222 2.432 . S
Eu1187 O1226 2.558 . S
Eu1187 O1227 2.612 . S
Eu1187 O1229 2.339 . S
Eu1187 O1230 2.563 . S
Eu1187 O1231 2.419 . S
Eu1187 C1251 2.848 . S
N1188 C1180 1.362 . S
N1188 Eu1187 2.657 . S
N1188 C1189 1.334 . S
C1189 N1188 1.334 . S
C1189 C1191 1.413 . S
C1189 H1196 0.929 . S
C1190 C1178 1.392 . S
C1190 C1191 1.367 . S
C1190 H1198 0.930 . S
C1191 C1189 1.413 . S
C1191 C1190 1.367 . S
C1191 H1193 0.930 . S
H1192 C1185 0.930 . S
H1193 C1191 0.930 . S
H1194 C1182 0.930 . S
H1195 C1183 0.930 . S
H1196 C1189 0.929 . S
H1197 C1211 0.930 . S
H1198 C1190 0.930 . S
H1199 C1217 0.930 . S
H1200 C1208 0.929 . S
H1201 C1215 0.930 . S
H1202 C1179 0.931 . S
H1203 C1209 0.930 . S
H1204 C1242 0.930 . S
H1205 C1186 0.930 . S
H1206 C1241 0.931 . S
N1207 Eu1176 2.657 . S
N1207 C1208 1.334 . S
N1207 C1212 1.362 . S
C1208 H1200 0.929 . S
C1208 N1207 1.334 . S
C1208 C1211 1.413 . S
C1209 H1203 0.930 . S
C1209 C1210 1.392 . S
C1209 C1211 1.367 . S
C1210 C1209 1.392 . S
C1210 C1212 1.420 . S
C1210 C1242 1.423 . S
C1211 H1197 0.930 . S
C1211 C1208 1.413 . S
C1211 C1209 1.367 . S
C1212 N1207 1.362 . S
C1212 C1210 1.420 . S
C1212 C1216 1.429 . S
H1213 C1218 0.930 . S
N1214 Eu1176 2.609 . S
N1214 C1216 1.377 . S
N1214 C1217 1.321 . S
C1215 H1201 0.930 . S
C1215 C1217 1.400 . S
C1215 C1218 1.386 . S
C1216 C1212 1.429 . S
C1216 N1214 1.377 . S
C1216 C1219 1.411 . S
C1217 H1199 0.930 . S
C1217 N1214 1.321 . S
C1217 C1215 1.400 . S
C1218 H1213 0.930 . S
C1218 C1215 1.386 . S
C1218 C1219 1.395 . S
C1219 C1216 1.411 . S
C1219 C1218 1.395 . S
C1219 C1241 1.420 . S
O1220 Eu1176 2.558 . S
O1220 C1240 1.257 . S
O1221 Eu1176 2.612 . S
O1221 Eu1187 2.380 . S
O1221 C1232 1.276 . S
O1222 Eu1187 2.432 . S
O1222 C1239 1.264 . S
O1223 Eu1176 2.339 . S
O1223 C1239 1.254 . S
O1224 Eu1176 2.563 . S
O1224 C1232 1.235 . S
O1225 Eu1176 2.419 . S
O1225 C1240 1.249 . S
O1226 Eu1187 2.558 . S
O1226 C1251 1.257 . S
O1227 Eu1176 2.380 . S
O1227 Eu1187 2.612 . S
O1227 C1243 1.276 . S
O1228 Eu1176 2.432 . S
O1228 C1250 1.264 . S
O1229 Eu1187 2.339 . S
O1229 C1250 1.254 . S
O1230 Eu1187 2.563 . S
O1230 C1243 1.235 . S
O1231 Eu1187 2.419 . S
O1231 C1251 1.249 . S
C1232 O1221 1.276 . S
C1232 O1224 1.235 . S
C1233 C1235 1.393 . S
C1233 C1237 1.395 . S
C1233 C1240 1.492 . S
C1234 C1235 1.392 . S
C1234 C1236 1.386 . S
C1235 C1233 1.393 . S
C1235 C1234 1.392 . S
C1235 H1252 0.930 . S
C1236 C1234 1.386 . S
C1236 C1238 1.395 . S
C1236 H1253 0.930 . S
C1237 C1233 1.395 . S
C1237 C1238 1.379 . S
C1237 H1254 0.930 . S
C1238 C1236 1.395 . S
C1238 C1237 1.379 . S
C1238 H1255 0.930 . S
C1239 O1222 1.264 . S
C1239 O1223 1.254 . S
C1240 Eu1176 2.848 . S
C1240 O1220 1.257 . S
C1240 O1225 1.249 . S
C1240 C1233 1.492 . S
C1241 H1206 0.931 . S
C1241 C1219 1.420 . S
C1241 C1242 1.351 . S
C1242 H1204 0.930 . S
C1242 C1210 1.423 . S
C1242 C1241 1.351 . S
C1243 O1227 1.276 . S
C1243 O1230 1.235 . S
C1244 C1245 1.393 . S
C1244 C1248 1.395 . S
C1244 C1251 1.492 . S
C1245 C1244 1.393 . S
C1245 C1246 1.392 . S
C1245 H1256 0.930 . S
C1246 C1245 1.392 . S
C1246 C1247 1.386 . S
C1247 C1246 1.386 . S
C1247 C1249 1.395 . S
C1247 H1257 0.930 . S
C1248 C1244 1.395 . S
C1248 C1249 1.379 . S
C1248 H1258 0.930 . S
C1249 C1247 1.395 . S
C1249 C1248 1.379 . S
C1249 H1259 0.930 . S
C1250 O1228 1.264 . S
C1250 O1229 1.254 . S
C1251 Eu1187 2.848 . S
C1251 O1226 1.257 . S
C1251 O1231 1.249 . S
C1251 C1244 1.492 . S
H1252 C1235 0.930 . S
H1253 C1236 0.930 . S
H1254 C1237 0.930 . S
H1255 C1238 0.930 . S
H1256 C1245 0.930 . S
H1257 C1247 0.930 . S
H1258 C1248 0.930 . S
H1259 C1249 0.930 . S
Eu1260 N1291 2.657 1_455 S
Eu1260 N1298 2.609 1_455 S
Eu1260 O1304 2.558 . S
Eu1260 O1305 2.612 . S
Eu1260 O1307 2.339 . S
Eu1260 O1308 2.563 . S
Eu1260 O1309 2.419 . S
Eu1260 O1311 2.380 . S
Eu1260 O1312 2.432 . S
Eu1260 C1324 2.848 . S
C1261 C1264 1.429 . S
C1261 C1265 1.411 . S
C1261 N1268 1.377 . S
C1262 C1264 1.420 . S
C1262 C1266 1.423 . S
C1262 C1274 1.392 . S
C1263 C1265 1.420 . S
C1263 C1266 1.351 . S
C1263 H1286 0.931 . S
C1264 C1261 1.429 . S
C1264 C1262 1.420 . S
C1264 N1272 1.362 . S
C1265 C1261 1.411 . S
C1265 C1263 1.420 . S
C1265 C1270 1.395 . S
C1266 C1262 1.423 . S
C1266 C1263 1.351 . S
C1266 H1278 0.930 . S
C1267 C1269 1.400 . S
C1267 C1270 1.386 . S
C1267 H1279 0.930 . S
N1268 C1261 1.377 . S
N1268 C1269 1.321 . S
N1268 Eu1271 2.609 . S
C1269 C1267 1.400 . S
C1269 N1268 1.321 . S
C1269 H1276 0.930 . S
C1270 C1265 1.395 . S
C1270 C1267 1.386 . S
C1270 H1289 0.930 . S
Eu1271 N1268 2.609 . S
Eu1271 N1272 2.657 . S
Eu1271 O1305 2.380 . S
Eu1271 O1306 2.432 . S
Eu1271 O1310 2.558 . S
Eu1271 O1311 2.612 . S
Eu1271 O1313 2.339 . S
Eu1271 O1314 2.563 . S
Eu1271 O1315 2.419 . S
Eu1271 C1335 2.848 . S
N1272 C1264 1.362 . S
N1272 Eu1271 2.657 . S
N1272 C1273 1.334 . S
C1273 N1272 1.334 . S
C1273 C1275 1.413 . S
C1273 H1280 0.929 . S
C1274 C1262 1.392 . S
C1274 C1275 1.367 . S
C1274 H1282 0.930 . S
C1275 C1273 1.413 . S
C1275 C1274 1.367 . S
C1275 H1277 0.930 . S
H1276 C1269 0.930 . S
H1277 C1275 0.930 . S
H1278 C1266 0.930 . S
H1279 C1267 0.930 . S
H1280 C1273 0.929 . S
H1281 C1295 0.930 . S
H1282 C1274 0.930 . S
H1283 C1301 0.930 . S
H1284 C1292 0.929 . S
H1285 C1299 0.930 . S
H1286 C1263 0.931 . S
H1287 C1293 0.930 . S
H1288 C1326 0.930 . S
H1289 C1270 0.930 . S
H1290 C1325 0.931 . S
N1291 Eu1260 2.657 1_655 S
N1291 C1292 1.334 . S
N1291 C1296 1.362 . S
C1292 H1284 0.929 . S
C1292 N1291 1.334 . S
C1292 C1295 1.413 . S
C1293 H1287 0.930 . S
C1293 C1294 1.392 . S
C1293 C1295 1.367 . S
C1294 C1293 1.392 . S
C1294 C1296 1.420 . S
C1294 C1326 1.423 . S
C1295 H1281 0.930 . S
C1295 C1292 1.413 . S
C1295 C1293 1.367 . S
C1296 N1291 1.362 . S
C1296 C1294 1.420 . S
C1296 C1300 1.429 . S
H1297 C1302 0.930 . S
N1298 Eu1260 2.609 1_655 S
N1298 C1300 1.377 . S
N1298 C1301 1.321 1_655 S
C1299 H1285 0.930 . S
C1299 C1301 1.400 1_655 S
C1299 C1302 1.386 . S
C1300 C1296 1.429 . S
C1300 N1298 1.377 . S
C1300 C1303 1.411 . S
C1301 H1283 0.930 . S
C1301 N1298 1.321 1_455 S
C1301 C1299 1.400 1_455 S
C1302 H1297 0.930 . S
C1302 C1299 1.386 . S
C1302 C1303 1.395 . S
C1303 C1300 1.411 . S
C1303 C1302 1.395 . S
C1303 C1325 1.420 . S
O1304 Eu1260 2.558 . S
O1304 C1324 1.257 . S
O1305 Eu1260 2.612 . S
O1305 Eu1271 2.380 . S
O1305 C1316 1.276 . S
O1306 Eu1271 2.432 . S
O1306 C1323 1.264 . S
O1307 Eu1260 2.339 . S
O1307 C1323 1.254 . S
O1308 Eu1260 2.563 . S
O1308 C1316 1.235 . S
O1309 Eu1260 2.419 . S
O1309 C1324 1.249 . S
O1310 Eu1271 2.558 . S
O1310 C1335 1.257 . S
O1311 Eu1260 2.380 . S
O1311 Eu1271 2.612 . S
O1311 C1327 1.276 . S
O1312 Eu1260 2.432 . S
O1312 C1334 1.264 . S
O1313 Eu1271 2.339 . S
O1313 C1334 1.254 . S
O1314 Eu1271 2.563 . S
O1314 C1327 1.235 . S
O1315 Eu1271 2.419 . S
O1315 C1335 1.249 . S
C1316 O1305 1.276 . S
C1316 O1308 1.235 . S
C1317 C1319 1.393 . S
C1317 C1321 1.395 1_455 S
C1317 C1324 1.492 . S
C1318 C1319 1.387 1_655 S
C1318 C1320 1.395 . S
C1319 C1317 1.393 . S
C1319 C1318 1.387 1_455 S
C1319 H1336 0.930 . S
C1320 C1318 1.395 . S
C1320 C1322 1.395 . S
C1320 H1337 0.930 . S
C1321 C1317 1.395 1_655 S
C1321 C1322 1.379 . S
C1321 H1338 0.930 . S
C1322 C1320 1.395 . S
C1322 C1321 1.379 . S
C1322 H1339 0.930 . S
C1323 O1306 1.264 . S
C1323 O1307 1.254 . S
C1324 Eu1260 2.848 . S
C1324 O1304 1.257 . S
C1324 O1309 1.249 . S
C1324 C1317 1.492 . S
C1325 H1290 0.931 . S
C1325 C1303 1.420 . S
C1325 C1326 1.351 . S
C1326 H1288 0.930 . S
C1326 C1294 1.423 . S
C1326 C1325 1.351 . S
C1327 O1311 1.276 . S
C1327 O1314 1.235 . S
C1328 C1329 1.393 . S
C1328 C1332 1.395 . S
C1328 C1335 1.492 . S
C1329 C1328 1.393 . S
C1329 C1330 1.392 . S
C1329 H1340 0.930 . S
C1330 C1329 1.392 . S
C1330 C1331 1.386 . S
C1331 C1330 1.386 . S
C1331 C1333 1.395 . S
C1331 H1341 0.930 . S
C1332 C1328 1.395 . S
C1332 C1333 1.379 . S
C1332 H1342 0.930 . S
C1333 C1331 1.395 . S
C1333 C1332 1.379 . S
C1333 H1343 0.930 . S
C1334 O1312 1.264 . S
C1334 O1313 1.254 . S
C1335 Eu1271 2.848 . S
C1335 O1310 1.257 . S
C1335 O1315 1.249 . S
C1335 C1328 1.492 . S
H1336 C1319 0.930 . S
H1337 C1320 0.930 . S
H1338 C1321 0.930 . S
H1339 C1322 0.930 . S
H1340 C1329 0.930 . S
H1341 C1331 0.930 . S
H1342 C1332 0.930 . S
H1343 C1333 0.930 . S
Eu1344 N1375 2.657 1_545 S
Eu1344 N1382 2.609 . S
Eu1344 O1388 2.558 . S
Eu1344 O1389 2.612 1_545 S
Eu1344 O1391 2.339 1_545 S
Eu1344 O1392 2.563 . S
Eu1344 O1393 2.419 1_545 S
Eu1344 O1395 2.380 . S
Eu1344 O1396 2.432 . S
Eu1344 C1408 2.848 . S
C1345 C1348 1.429 . S
C1345 C1349 1.411 . S
C1345 N1352 1.377 . S
C1346 C1348 1.420 . S
C1346 C1350 1.423 . S
C1346 C1358 1.392 1_565 S
C1347 C1349 1.420 . S
C1347 C1350 1.351 . S
C1347 H1370 0.931 . S
C1348 C1345 1.429 . S
C1348 C1346 1.420 . S
C1348 N1356 1.362 1_565 S
C1349 C1345 1.411 . S
C1349 C1347 1.420 . S
C1349 C1354 1.395 . S
C1350 C1346 1.423 . S
C1350 C1347 1.351 . S
C1350 H1362 0.930 . S
C1351 C1353 1.400 . S
C1351 C1354 1.386 . S
C1351 H1363 0.930 . S
N1352 C1345 1.377 . S
N1352 C1353 1.321 . S
N1352 Eu1355 2.609 . S
C1353 C1351 1.400 . S
C1353 N1352 1.321 . S
C1353 H1360 0.930 . S
C1354 C1349 1.395 . S
C1354 C1351 1.386 . S
C1354 H1373 0.930 . S
Eu1355 N1352 2.609 . S
Eu1355 N1356 2.657 1_565 S
Eu1355 O1389 2.380 . S
Eu1355 O1390 2.432 . S
Eu1355 O1394 2.558 . S
Eu1355 O1395 2.612 1_565 S
Eu1355 O1397 2.339 1_565 S
Eu1355 O1398 2.563 . S
Eu1355 O1399 2.419 1_565 S
Eu1355 C1419 2.848 . S
N1356 C1348 1.362 1_545 S
N1356 Eu1355 2.657 1_545 S
N1356 C1357 1.334 . S
C1357 N1356 1.334 . S
C1357 C1359 1.413 . S
C1357 H1364 0.929 . S
C1358 C1346 1.392 1_545 S
C1358 C1359 1.367 . S
C1358 H1366 0.930 . S
C1359 C1357 1.413 . S
C1359 C1358 1.367 . S
C1359 H1361 0.930 . S
H1360 C1353 0.930 . S
H1361 C1359 0.930 . S
H1362 C1350 0.930 . S
H1363 C1351 0.930 . S
H1364 C1357 0.929 . S
H1365 C1379 0.930 . S
H1366 C1358 0.930 . S
H1367 C1385 0.930 . S
H1368 C1376 0.929 . S
H1369 C1383 0.930 . S
H1370 C1347 0.931 . S
H1371 C1377 0.930 1_455 S
H1372 C1410 0.930 . S
H1373 C1354 0.930 . S
H1374 C1409 0.931 . S
N1375 Eu1344 2.657 1_565 S
N1375 C1376 1.334 . S
N1375 C1380 1.362 1_565 S
C1376 H1368 0.929 . S
C1376 N1375 1.334 . S
C1376 C1379 1.413 . S
C1377 H1371 0.930 1_655 S
C1377 C1378 1.392 1_565 S
C1377 C1379 1.367 . S
C1378 C1377 1.392 1_545 S
C1378 C1380 1.420 . S
C1378 C1410 1.423 1_655 S
C1379 H1365 0.930 . S
C1379 C1376 1.413 . S
C1379 C1377 1.367 . S
C1380 N1375 1.362 1_545 S
C1380 C1378 1.420 . S
C1380 C1384 1.429 . S
H1381 C1386 0.930 . S
N1382 Eu1344 2.609 . S
N1382 C1384 1.377 . S
N1382 C1385 1.321 . S
C1383 H1369 0.930 . S
C1383 C1385 1.400 . S
C1383 C1386 1.386 . S
C1384 C1380 1.429 . S
C1384 N1382 1.377 . S
C1384 C1387 1.411 . S
C1385 H1367 0.930 . S
C1385 N1382 1.321 . S
C1385 C1383 1.400 . S
C1386 H1381 0.930 . S
C1386 C1383 1.386 . S
C1386 C1387 1.395 . S
C1387 C1384 1.411 . S
C1387 C1386 1.395 . S
C1387 C1409 1.420 1_655 S
O1388 Eu1344 2.558 . S
O1388 C1408 1.257 . S
O1389 Eu1344 2.612 1_565 S
O1389 Eu1355 2.380 . S
O1389 C1400 1.274 1_565 S
O1390 Eu1355 2.432 . S
O1390 C1407 1.264 . S
O1391 Eu1344 2.339 1_565 S
O1391 C1407 1.254 . S
O1392 Eu1344 2.563 . S
O1392 C1400 1.239 . S
O1393 Eu1344 2.419 1_565 S
O1393 C1408 1.249 1_565 S
O1394 Eu1355 2.558 . S
O1394 C1419 1.257 . S
O1395 Eu1344 2.380 . S
O1395 Eu1355 2.612 1_545 S
O1395 C1411 1.276 1_545 S
O1396 Eu1344 2.432 . S
O1396 C1418 1.264 . S
O1397 Eu1355 2.339 1_545 S
O1397 C1418 1.254 . S
O1398 Eu1355 2.563 . S
O1398 C1411 1.234 . S
O1399 Eu1355 2.419 1_545 S
O1399 C1419 1.249 1_545 S
C1400 O1389 1.274 1_545 S
C1400 O1392 1.239 . S
C1401 C1403 1.393 1_545 S
C1401 C1405 1.395 . S
C1401 C1408 1.492 . S
C1402 C1403 1.393 . S
C1402 C1404 1.376 1_565 S
C1403 C1401 1.393 1_565 S
C1403 C1402 1.393 . S
C1403 H1420 0.930 . S
C1404 C1402 1.376 1_545 S
C1404 C1406 1.395 . S
C1404 H1421 0.930 . S
C1405 C1401 1.395 . S
C1405 C1406 1.379 . S
C1405 H1422 0.930 . S
C1406 C1404 1.395 . S
C1406 C1405 1.379 . S
C1406 H1423 0.930 . S
C1407 O1390 1.264 . S
C1407 O1391 1.254 . S
C1408 Eu1344 2.848 . S
C1408 O1388 1.257 . S
C1408 O1393 1.249 1_545 S
C1408 C1401 1.492 . S
C1409 H1374 0.931 . S
C1409 C1387 1.420 1_455 S
C1409 C1410 1.351 . S
C1410 H1372 0.930 . S
C1410 C1378 1.423 1_455 S
C1410 C1409 1.351 . S
C1411 O1395 1.276 1_565 S
C1411 O1398 1.234 . S
C1412 C1413 1.393 1_565 S
C1412 C1416 1.395 . S
C1412 C1419 1.492 . S
C1413 C1412 1.393 1_545 S
C1413 C1414 1.393 . S
C1413 H1424 0.930 . S
C1414 C1413 1.393 . S
C1414 C1415 1.366 1_545 S
C1415 C1414 1.366 1_565 S
C1415 C1417 1.395 . S
C1415 H1425 0.930 . S
C1416 C1412 1.395 . S
C1416 C1417 1.379 . S
C1416 H1426 0.930 . S
C1417 C1415 1.395 . S
C1417 C1416 1.379 . S
C1417 H1427 0.930 . S
C1418 O1396 1.264 . S
C1418 O1397 1.254 . S
C1419 Eu1355 2.848 . S
C1419 O1394 1.257 . S
C1419 O1399 1.249 1_565 S
C1419 C1412 1.492 . S
H1420 C1403 0.930 . S
H1421 C1404 0.930 . S
H1422 C1405 0.930 . S
H1423 C1406 0.930 . S
H1424 C1413 0.930 . S
H1425 C1415 0.930 . S
H1426 C1416 0.930 . S
H1427 C1417 0.930 . S
Eu1428 N1459 2.657 . S
Eu1428 N1466 2.609 . S
Eu1428 O1472 2.558 . S
Eu1428 O1473 2.612 . S
Eu1428 O1475 2.339 . S
Eu1428 O1476 2.563 . S
Eu1428 O1477 2.419 . S
Eu1428 O1479 2.380 . S
Eu1428 O1480 2.432 . S
Eu1428 C1492 2.848 . S
C1429 C1432 1.429 . S
C1429 C1433 1.411 . S
C1429 N1436 1.377 . S
C1430 C1432 1.420 . S
C1430 C1434 1.423 . S
C1430 C1442 1.392 . S
C1431 C1433 1.420 . S
C1431 C1434 1.351 . S
C1431 H1454 0.931 . S
C1432 C1429 1.429 . S
C1432 C1430 1.420 . S
C1432 N1440 1.362 . S
C1433 C1429 1.411 . S
C1433 C1431 1.420 . S
C1433 C1438 1.395 . S
C1434 C1430 1.423 . S
C1434 C1431 1.351 . S
C1434 H1446 0.930 . S
C1435 C1437 1.400 . S
C1435 C1438 1.386 . S
C1435 H1447 0.930 . S
N1436 C1429 1.377 . S
N1436 C1437 1.321 . S
N1436 Eu1439 2.609 . S
C1437 C1435 1.400 . S
C1437 N1436 1.321 . S
C1437 H1444 0.930 . S
C1438 C1433 1.395 . S
C1438 C1435 1.386 . S
C1438 H1457 0.930 . S
Eu1439 N1436 2.609 . S
Eu1439 N1440 2.657 . S
Eu1439 O1473 2.380 . S
Eu1439 O1474 2.432 . S
Eu1439 O1478 2.558 . S
Eu1439 O1479 2.612 . S
Eu1439 O1481 2.339 . S
Eu1439 O1482 2.563 . S
Eu1439 O1483 2.419 . S
Eu1439 C1503 2.848 . S
N1440 C1432 1.362 . S
N1440 Eu1439 2.657 . S
N1440 C1441 1.334 . S
C1441 N1440 1.334 . S
C1441 C1443 1.413 . S
C1441 H1448 0.929 . S
C1442 C1430 1.392 . S
C1442 C1443 1.367 . S
C1442 H1450 0.930 . S
C1443 C1441 1.413 . S
C1443 C1442 1.367 . S
C1443 H1445 0.930 . S
H1444 C1437 0.930 . S
H1445 C1443 0.930 . S
H1446 C1434 0.930 . S
H1447 C1435 0.930 . S
H1448 C1441 0.929 . S
H1449 C1463 0.930 . S
H1450 C1442 0.930 . S
H1451 C1469 0.930 . S
H1452 C1460 0.929 . S
H1453 C1467 0.930 . S
H1454 C1431 0.931 . S
H1455 C1461 0.930 . S
H1456 C1494 0.930 . S
H1457 C1438 0.930 . S
H1458 C1493 0.931 . S
N1459 Eu1428 2.657 . S
N1459 C1460 1.334 . S
N1459 C1464 1.362 . S
C1460 H1452 0.929 . S
C1460 N1459 1.334 . S
C1460 C1463 1.413 . S
C1461 H1455 0.930 . S
C1461 C1462 1.392 . S
C1461 C1463 1.367 . S
C1462 C1461 1.392 . S
C1462 C1464 1.420 . S
C1462 C1494 1.423 . S
C1463 H1449 0.930 . S
C1463 C1460 1.413 . S
C1463 C1461 1.367 . S
C1464 N1459 1.362 . S
C1464 C1462 1.420 . S
C1464 C1468 1.429 . S
H1465 C1470 0.930 . S
N1466 Eu1428 2.609 . S
N1466 C1468 1.377 . S
N1466 C1469 1.321 . S
C1467 H1453 0.930 . S
C1467 C1469 1.400 . S
C1467 C1470 1.386 . S
C1468 C1464 1.429 . S
C1468 N1466 1.377 . S
C1468 C1471 1.411 . S
C1469 H1451 0.930 . S
C1469 N1466 1.321 . S
C1469 C1467 1.400 . S
C1470 H1465 0.930 . S
C1470 C1467 1.386 . S
C1470 C1471 1.395 . S
C1471 C1468 1.411 . S
C1471 C1470 1.395 . S
C1471 C1493 1.420 . S
O1472 Eu1428 2.558 . S
O1472 C1492 1.257 . S
O1473 Eu1428 2.612 . S
O1473 Eu1439 2.380 . S
O1473 C1484 1.276 . S
O1474 Eu1439 2.432 . S
O1474 C1491 1.264 . S
O1475 Eu1428 2.339 . S
O1475 C1491 1.254 . S
O1476 Eu1428 2.563 . S
O1476 C1484 1.235 . S
O1477 Eu1428 2.419 . S
O1477 C1492 1.249 . S
O1478 Eu1439 2.558 . S
O1478 C1503 1.257 . S
O1479 Eu1428 2.380 . S
O1479 Eu1439 2.612 . S
O1479 C1495 1.276 . S
O1480 Eu1428 2.432 . S
O1480 C1502 1.264 . S
O1481 Eu1439 2.339 . S
O1481 C1502 1.254 . S
O1482 Eu1439 2.563 . S
O1482 C1495 1.235 . S
O1483 Eu1439 2.419 . S
O1483 C1503 1.249 . S
C1484 O1473 1.276 . S
C1484 O1476 1.235 . S
C1485 C1487 1.393 . S
C1485 C1489 1.395 . S
C1485 C1492 1.492 . S
C1486 C1487 1.392 . S
C1486 C1488 1.386 . S
C1487 C1485 1.393 . S
C1487 C1486 1.392 . S
C1487 H1504 0.930 . S
C1488 C1486 1.386 . S
C1488 C1490 1.395 . S
C1488 H1505 0.930 . S
C1489 C1485 1.395 . S
C1489 C1490 1.379 . S
C1489 H1506 0.930 . S
C1490 C1488 1.395 . S
C1490 C1489 1.379 . S
C1490 H1507 0.930 . S
C1491 O1474 1.264 . S
C1491 O1475 1.254 . S
C1492 Eu1428 2.848 . S
C1492 O1472 1.257 . S
C1492 O1477 1.249 . S
C1492 C1485 1.492 . S
C1493 H1458 0.931 . S
C1493 C1471 1.420 . S
C1493 C1494 1.351 . S
C1494 H1456 0.930 . S
C1494 C1462 1.423 . S
C1494 C1493 1.351 . S
C1495 O1479 1.276 . S
C1495 O1482 1.235 . S
C1496 C1497 1.393 . S
C1496 C1500 1.395 . S
C1496 C1503 1.492 . S
C1497 C1496 1.393 . S
C1497 C1498 1.392 . S
C1497 H1508 0.930 . S
C1498 C1497 1.392 . S
C1498 C1499 1.386 . S
C1499 C1498 1.386 . S
C1499 C1501 1.395 . S
C1499 H1509 0.930 . S
C1500 C1496 1.395 . S
C1500 C1501 1.379 . S
C1500 H1510 0.930 . S
C1501 C1499 1.395 . S
C1501 C1500 1.379 . S
C1501 H1511 0.930 . S
C1502 O1480 1.264 . S
C1502 O1481 1.254 . S
C1503 Eu1439 2.848 . S
C1503 O1478 1.257 . S
C1503 O1483 1.249 . S
C1503 C1496 1.492 . S
H1504 C1487 0.930 . S
H1505 C1488 0.930 . S
H1506 C1489 0.930 . S
H1507 C1490 0.930 . S
H1508 C1497 0.930 . S
H1509 C1499 0.930 . S
H1510 C1500 0.930 . S
H1511 C1501 0.930 . S
Eu1512 N1543 2.657 . S
Eu1512 N1550 2.609 . S
Eu1512 O1556 2.558 . S
Eu1512 O1557 2.612 . S
Eu1512 O1559 2.339 . S
Eu1512 O1560 2.563 . S
Eu1512 O1561 2.419 . S
Eu1512 O1563 2.380 . S
Eu1512 O1564 2.432 . S
Eu1512 C1576 2.848 . S
C1513 C1516 1.429 . S
C1513 C1517 1.411 . S
C1513 N1520 1.377 . S
C1514 C1516 1.420 . S
C1514 C1518 1.423 . S
C1514 C1526 1.392 . S
C1515 C1517 1.420 . S
C1515 C1518 1.351 . S
C1515 H1538 0.931 . S
C1516 C1513 1.429 . S
C1516 C1514 1.420 . S
C1516 N1524 1.362 . S
C1517 C1513 1.411 . S
C1517 C1515 1.420 . S
C1517 C1522 1.395 . S
C1518 C1514 1.423 . S
C1518 C1515 1.351 . S
C1518 H1530 0.930 . S
C1519 C1521 1.400 . S
C1519 C1522 1.386 . S
C1519 H1531 0.930 . S
N1520 C1513 1.377 . S
N1520 C1521 1.321 . S
N1520 Eu1523 2.609 . S
C1521 C1519 1.400 . S
C1521 N1520 1.321 . S
C1521 H1528 0.930 . S
C1522 C1517 1.395 . S
C1522 C1519 1.386 . S
C1522 H1541 0.930 . S
Eu1523 N1520 2.609 . S
Eu1523 N1524 2.657 . S
Eu1523 O1557 2.380 . S
Eu1523 O1558 2.432 . S
Eu1523 O1562 2.558 . S
Eu1523 O1563 2.612 . S
Eu1523 O1565 2.339 . S
Eu1523 O1566 2.563 . S
Eu1523 O1567 2.419 . S
Eu1523 C1587 2.848 . S
N1524 C1516 1.362 . S
N1524 Eu1523 2.657 . S
N1524 C1525 1.334 . S
C1525 N1524 1.334 . S
C1525 C1527 1.413 . S
C1525 H1532 0.929 . S
C1526 C1514 1.392 . S
C1526 C1527 1.367 . S
C1526 H1534 0.930 . S
C1527 C1525 1.413 . S
C1527 C1526 1.367 . S
C1527 H1529 0.930 . S
H1528 C1521 0.930 . S
H1529 C1527 0.930 . S
H1530 C1518 0.930 . S
H1531 C1519 0.930 . S
H1532 C1525 0.929 . S
H1533 C1547 0.930 . S
H1534 C1526 0.930 . S
H1535 C1553 0.930 . S
H1536 C1544 0.929 . S
H1537 C1551 0.930 . S
H1538 C1515 0.931 . S
H1539 C1545 0.930 1_455 S
H1540 C1578 0.930 . S
H1541 C1522 0.930 . S
H1542 C1577 0.931 . S
N1543 Eu1512 2.657 . S
N1543 C1544 1.334 . S
N1543 C1548 1.362 . S
C1544 H1536 0.929 . S
C1544 N1543 1.334 . S
C1544 C1547 1.413 . S
C1545 H1539 0.930 1_655 S
C1545 C1546 1.392 . S
C1545 C1547 1.367 . S
C1546 C1545 1.392 . S
C1546 C1548 1.420 . S
C1546 C1578 1.423 1_655 S
C1547 H1533 0.930 . S
C1547 C1544 1.413 . S
C1547 C1545 1.367 . S
C1548 N1543 1.362 . S
C1548 C1546 1.420 . S
C1548 C1552 1.429 . S
H1549 C1554 0.930 . S
N1550 Eu1512 2.609 . S
N1550 C1552 1.377 . S
N1550 C1553 1.321 . S
C1551 H1537 0.930 . S
C1551 C1553 1.400 . S
C1551 C1554 1.386 . S
C1552 C1548 1.429 . S
C1552 N1550 1.377 . S
C1552 C1555 1.411 . S
C1553 H1535 0.930 . S
C1553 N1550 1.321 . S
C1553 C1551 1.400 . S
C1554 H1549 0.930 . S
C1554 C1551 1.386 . S
C1554 C1555 1.395 . S
C1555 C1552 1.411 . S
C1555 C1554 1.395 . S
C1555 C1577 1.420 1_655 S
O1556 Eu1512 2.558 . S
O1556 C1576 1.257 . S
O1557 Eu1512 2.612 . S
O1557 Eu1523 2.380 . S
O1557 C1568 1.276 . S
O1558 Eu1523 2.432 . S
O1558 C1575 1.264 . S
O1559 Eu1512 2.339 . S
O1559 C1575 1.254 . S
O1560 Eu1512 2.563 . S
O1560 C1568 1.235 . S
O1561 Eu1512 2.419 . S
O1561 C1576 1.249 . S
O1562 Eu1523 2.558 . S
O1562 C1587 1.257 . S
O1563 Eu1512 2.380 . S
O1563 Eu1523 2.612 . S
O1563 C1579 1.276 . S
O1564 Eu1512 2.432 . S
O1564 C1586 1.264 . S
O1565 Eu1523 2.339 . S
O1565 C1586 1.254 . S
O1566 Eu1523 2.563 . S
O1566 C1579 1.235 . S
O1567 Eu1523 2.419 . S
O1567 C1587 1.249 . S
C1568 O1557 1.276 . S
C1568 O1560 1.235 . S
C1569 C1571 1.393 . S
C1569 C1573 1.395 . S
C1569 C1576 1.492 . S
C1570 C1571 1.392 . S
C1570 C1572 1.386 . S
C1571 C1569 1.393 . S
C1571 C1570 1.392 . S
C1571 H1588 0.930 . S
C1572 C1570 1.386 . S
C1572 C1574 1.395 . S
C1572 H1589 0.930 . S
C1573 C1569 1.395 . S
C1573 C1574 1.379 . S
C1573 H1590 0.930 . S
C1574 C1572 1.395 . S
C1574 C1573 1.379 . S
C1574 H1591 0.930 . S
C1575 O1558 1.264 . S
C1575 O1559 1.254 . S
C1576 Eu1512 2.848 . S
C1576 O1556 1.257 . S
C1576 O1561 1.249 . S
C1576 C1569 1.492 . S
C1577 H1542 0.931 . S
C1577 C1555 1.420 1_455 S
C1577 C1578 1.351 . S
C1578 H1540 0.930 . S
C1578 C1546 1.423 1_455 S
C1578 C1577 1.351 . S
C1579 O1563 1.276 . S
C1579 O1566 1.235 . S
C1580 C1581 1.393 . S
C1580 C1584 1.395 . S
C1580 C1587 1.492 . S
C1581 C1580 1.393 . S
C1581 C1582 1.392 . S
C1581 H1592 0.930 . S
C1582 C1581 1.392 . S
C1582 C1583 1.386 . S
C1583 C1582 1.386 . S
C1583 C1585 1.395 . S
C1583 H1593 0.930 . S
C1584 C1580 1.395 . S
C1584 C1585 1.379 . S
C1584 H1594 0.930 . S
C1585 C1583 1.395 . S
C1585 C1584 1.379 . S
C1585 H1595 0.930 . S
C1586 O1564 1.264 . S
C1586 O1565 1.254 . S
C1587 Eu1523 2.848 . S
C1587 O1562 1.257 . S
C1587 O1567 1.249 . S
C1587 C1580 1.492 . S
H1588 C1571 0.930 . S
H1589 C1572 0.930 . S
H1590 C1573 0.930 . S
H1591 C1574 0.930 . S
H1592 C1581 0.930 . S
H1593 C1583 0.930 . S
H1594 C1584 0.930 . S
H1595 C1585 0.930 . S
Eu1596 N1627 2.657 1_545 S
Eu1596 N1634 2.609 . S
Eu1596 O1640 2.558 . S
Eu1596 O1641 2.612 1_545 S
Eu1596 O1643 2.339 1_545 S
Eu1596 O1644 2.563 . S
Eu1596 O1645 2.419 1_545 S
Eu1596 O1647 2.380 . S
Eu1596 O1648 2.432 . S
Eu1596 C1660 2.848 . S
C1597 C1600 1.429 . S
C1597 C1601 1.411 . S
C1597 N1604 1.377 . S
C1598 C1600 1.420 . S
C1598 C1602 1.423 . S
C1598 C1610 1.392 1_565 S
C1599 C1601 1.420 . S
C1599 C1602 1.351 . S
C1599 H1622 0.931 . S
C1600 C1597 1.429 . S
C1600 C1598 1.420 . S
C1600 N1608 1.362 1_565 S
C1601 C1597 1.411 . S
C1601 C1599 1.420 . S
C1601 C1606 1.395 . S
C1602 C1598 1.423 . S
C1602 C1599 1.351 . S
C1602 H1614 0.930 . S
C1603 C1605 1.400 . S
C1603 C1606 1.386 . S
C1603 H1615 0.930 . S
N1604 C1597 1.377 . S
N1604 C1605 1.321 . S
N1604 Eu1607 2.609 . S
C1605 C1603 1.400 . S
C1605 N1604 1.321 . S
C1605 H1612 0.930 . S
C1606 C1601 1.395 . S
C1606 C1603 1.386 . S
C1606 H1625 0.930 . S
Eu1607 N1604 2.609 . S
Eu1607 N1608 2.657 1_565 S
Eu1607 O1641 2.380 . S
Eu1607 O1642 2.432 . S
Eu1607 O1646 2.558 . S
Eu1607 O1647 2.612 1_565 S
Eu1607 O1649 2.339 1_565 S
Eu1607 O1650 2.563 . S
Eu1607 O1651 2.419 1_565 S
Eu1607 C1671 2.848 . S
N1608 C1600 1.362 1_545 S
N1608 Eu1607 2.657 1_545 S
N1608 C1609 1.334 . S
C1609 N1608 1.334 . S
C1609 C1611 1.413 . S
C1609 H1616 0.929 . S
C1610 C1598 1.392 1_545 S
C1610 C1611 1.367 . S
C1610 H1618 0.930 . S
C1611 C1609 1.413 . S
C1611 C1610 1.367 . S
C1611 H1613 0.930 . S
H1612 C1605 0.930 . S
H1613 C1611 0.930 . S
H1614 C1602 0.930 . S
H1615 C1603 0.930 . S
H1616 C1609 0.929 . S
H1617 C1631 0.930 . S
H1618 C1610 0.930 . S
H1619 C1637 0.930 . S
H1620 C1628 0.929 . S
H1621 C1635 0.930 . S
H1622 C1599 0.931 . S
H1623 C1629 0.930 . S
H1624 C1662 0.930 . S
H1625 C1606 0.930 . S
H1626 C1661 0.931 . S
N1627 Eu1596 2.657 1_565 S
N1627 C1628 1.334 . S
N1627 C1632 1.362 1_565 S
C1628 H1620 0.929 . S
C1628 N1627 1.334 . S
C1628 C1631 1.413 . S
C1629 H1623 0.930 . S
C1629 C1630 1.392 1_565 S
C1629 C1631 1.367 . S
C1630 C1629 1.392 1_545 S
C1630 C1632 1.420 . S
C1630 C1662 1.423 . S
C1631 H1617 0.930 . S
C1631 C1628 1.413 . S
C1631 C1629 1.367 . S
C1632 N1627 1.362 1_545 S
C1632 C1630 1.420 . S
C1632 C1636 1.429 . S
H1633 C1638 0.930 . S
N1634 Eu1596 2.609 . S
N1634 C1636 1.377 . S
N1634 C1637 1.321 . S
C1635 H1621 0.930 . S
C1635 C1637 1.400 . S
C1635 C1638 1.386 . S
C1636 C1632 1.429 . S
C1636 N1634 1.377 . S
C1636 C1639 1.411 . S
C1637 H1619 0.930 . S
C1637 N1634 1.321 . S
C1637 C1635 1.400 . S
C1638 H1633 0.930 . S
C1638 C1635 1.386 . S
C1638 C1639 1.395 . S
C1639 C1636 1.411 . S
C1639 C1638 1.395 . S
C1639 C1661 1.420 . S
O1640 Eu1596 2.558 . S
O1640 C1660 1.257 . S
O1641 Eu1596 2.612 1_565 S
O1641 Eu1607 2.380 . S
O1641 C1652 1.274 1_565 S
O1642 Eu1607 2.432 . S
O1642 C1659 1.264 . S
O1643 Eu1596 2.339 1_565 S
O1643 C1659 1.254 . S
O1644 Eu1596 2.563 . S
O1644 C1652 1.239 . S
O1645 Eu1596 2.419 1_565 S
O1645 C1660 1.249 1_565 S
O1646 Eu1607 2.558 . S
O1646 C1671 1.257 . S
O1647 Eu1596 2.380 . S
O1647 Eu1607 2.612 1_545 S
O1647 C1663 1.276 1_545 S
O1648 Eu1596 2.432 . S
O1648 C1670 1.264 . S
O1649 Eu1607 2.339 1_545 S
O1649 C1670 1.254 . S
O1650 Eu1607 2.563 . S
O1650 C1663 1.234 . S
O1651 Eu1607 2.419 1_545 S
O1651 C1671 1.249 1_545 S
C1652 O1641 1.274 1_545 S
C1652 O1644 1.239 . S
C1653 C1655 1.393 1_545 S
C1653 C1657 1.395 . S
C1653 C1660 1.492 . S
C1654 C1655 1.393 . S
C1654 C1656 1.376 1_565 S
C1655 C1653 1.393 1_565 S
C1655 C1654 1.393 . S
C1655 H1672 0.930 . S
C1656 C1654 1.376 1_545 S
C1656 C1658 1.395 . S
C1656 H1673 0.930 . S
C1657 C1653 1.395 . S
C1657 C1658 1.379 . S
C1657 H1674 0.930 . S
C1658 C1656 1.395 . S
C1658 C1657 1.379 . S
C1658 H1675 0.930 . S
C1659 O1642 1.264 . S
C1659 O1643 1.254 . S
C1660 Eu1596 2.848 . S
C1660 O1640 1.257 . S
C1660 O1645 1.249 1_545 S
C1660 C1653 1.492 . S
C1661 H1626 0.931 . S
C1661 C1639 1.420 . S
C1661 C1662 1.351 . S
C1662 H1624 0.930 . S
C1662 C1630 1.423 . S
C1662 C1661 1.351 . S
C1663 O1647 1.276 1_565 S
C1663 O1650 1.234 . S
C1664 C1665 1.393 1_565 S
C1664 C1668 1.395 . S
C1664 C1671 1.492 . S
C1665 C1664 1.393 1_545 S
C1665 C1666 1.393 . S
C1665 H1676 0.930 . S
C1666 C1665 1.393 . S
C1666 C1667 1.366 1_545 S
C1667 C1666 1.366 1_565 S
C1667 C1669 1.395 . S
C1667 H1677 0.930 . S
C1668 C1664 1.395 . S
C1668 C1669 1.379 . S
C1668 H1678 0.930 . S
C1669 C1667 1.395 . S
C1669 C1668 1.379 . S
C1669 H1679 0.930 . S
C1670 O1648 1.264 . S
C1670 O1649 1.254 . S
C1671 Eu1607 2.848 . S
C1671 O1646 1.257 . S
C1671 O1651 1.249 1_565 S
C1671 C1664 1.492 . S
H1672 C1655 0.930 . S
H1673 C1656 0.930 . S
H1674 C1657 0.930 . S
H1675 C1658 0.930 . S
H1676 C1665 0.930 . S
H1677 C1667 0.930 . S
H1678 C1668 0.930 . S
H1679 C1669 0.930 . S
Eu1680 N1711 2.657 1_545 S
Eu1680 N1718 2.609 . S
Eu1680 O1724 2.558 . S
Eu1680 O1725 2.612 1_545 S
Eu1680 O1727 2.339 1_545 S
Eu1680 O1728 2.563 . S
Eu1680 O1729 2.419 1_545 S
Eu1680 O1731 2.380 . S
Eu1680 O1732 2.432 . S
Eu1680 C1744 2.848 . S
C1681 C1684 1.429 . S
C1681 C1685 1.411 . S
C1681 N1688 1.377 . S
C1682 C1684 1.420 . S
C1682 C1686 1.423 1_455 S
C1682 C1694 1.392 1_565 S
C1683 C1685 1.420 1_655 S
C1683 C1686 1.351 . S
C1683 H1706 0.931 . S
C1684 C1681 1.429 . S
C1684 C1682 1.420 . S
C1684 N1692 1.362 1_565 S
C1685 C1681 1.411 . S
C1685 C1683 1.420 1_455 S
C1685 C1690 1.395 . S
C1686 C1682 1.423 1_655 S
C1686 C1683 1.351 . S
C1686 H1698 0.930 . S
C1687 C1689 1.400 . S
C1687 C1690 1.386 . S
C1687 H1699 0.930 . S
N1688 C1681 1.377 . S
N1688 C1689 1.321 . S
N1688 Eu1691 2.609 . S
C1689 C1687 1.400 . S
C1689 N1688 1.321 . S
C1689 H1696 0.930 . S
C1690 C1685 1.395 . S
C1690 C1687 1.386 . S
C1690 H1709 0.930 . S
Eu1691 N1688 2.609 . S
Eu1691 N1692 2.657 1_565 S
Eu1691 O1725 2.380 . S
Eu1691 O1726 2.432 . S
Eu1691 O1730 2.558 . S
Eu1691 O1731 2.612 1_565 S
Eu1691 O1733 2.339 1_565 S
Eu1691 O1734 2.563 . S
Eu1691 O1735 2.419 1_565 S
Eu1691 C1755 2.848 . S
N1692 C1684 1.362 1_545 S
N1692 Eu1691 2.657 1_545 S
N1692 C1693 1.334 . S
C1693 N1692 1.334 . S
C1693 C1695 1.413 . S
C1693 H1700 0.929 . S
C1694 C1682 1.392 1_545 S
C1694 C1695 1.367 . S
C1694 H1702 0.930 1_455 S
C1695 C1693 1.413 . S
C1695 C1694 1.367 . S
C1695 H1697 0.930 . S
H1696 C1689 0.930 . S
H1697 C1695 0.930 . S
H1698 C1686 0.930 . S
H1699 C1687 0.930 . S
H1700 C1693 0.929 . S
H1701 C1715 0.930 . S
H1702 C1694 0.930 1_655 S
H1703 C1721 0.930 . S
H1704 C1712 0.929 . S
H1705 C1719 0.930 . S
H1706 C1683 0.931 . S
H1707 C1713 0.930 . S
H1708 C1746 0.930 . S
H1709 C1690 0.930 . S
H1710 C1745 0.931 . S
N1711 Eu1680 2.657 1_565 S
N1711 C1712 1.334 . S
N1711 C1716 1.362 1_565 S
C1712 H1704 0.929 . S
C1712 N1711 1.334 . S
C1712 C1715 1.413 . S
C1713 H1707 0.930 . S
C1713 C1714 1.392 1_565 S
C1713 C1715 1.367 . S
C1714 C1713 1.392 1_545 S
C1714 C1716 1.420 . S
C1714 C1746 1.423 . S
C1715 H1701 0.930 . S
C1715 C1712 1.413 . S
C1715 C1713 1.367 . S
C1716 N1711 1.362 1_545 S
C1716 C1714 1.420 . S
C1716 C1720 1.429 . S
H1717 C1722 0.930 . S
N1718 Eu1680 2.609 . S
N1718 C1720 1.377 . S
N1718 C1721 1.321 . S
C1719 H1705 0.930 . S
C1719 C1721 1.400 . S
C1719 C1722 1.386 . S
C1720 C1716 1.429 . S
C1720 N1718 1.377 . S
C1720 C1723 1.411 . S
C1721 H1703 0.930 . S
C1721 N1718 1.321 . S
C1721 C1719 1.400 . S
C1722 H1717 0.930 . S
C1722 C1719 1.386 . S
C1722 C1723 1.395 . S
C1723 C1720 1.411 . S
C1723 C1722 1.395 . S
C1723 C1745 1.420 . S
O1724 Eu1680 2.558 . S
O1724 C1744 1.257 . S
O1725 Eu1680 2.612 1_565 S
O1725 Eu1691 2.380 . S
O1725 C1736 1.276 1_565 S
O1726 Eu1691 2.432 . S
O1726 C1743 1.264 . S
O1727 Eu1680 2.339 1_565 S
O1727 C1743 1.254 . S
O1728 Eu1680 2.563 . S
O1728 C1736 1.234 . S
O1729 Eu1680 2.419 1_565 S
O1729 C1744 1.249 1_565 S
O1730 Eu1691 2.558 . S
O1730 C1755 1.257 . S
O1731 Eu1680 2.380 . S
O1731 Eu1691 2.612 1_545 S
O1731 C1747 1.274 1_545 S
O1732 Eu1680 2.432 . S
O1732 C1754 1.264 . S
O1733 Eu1691 2.339 1_545 S
O1733 C1754 1.254 . S
O1734 Eu1691 2.563 . S
O1734 C1747 1.239 . S
O1735 Eu1691 2.419 1_545 S
O1735 C1755 1.249 1_545 S
C1736 O1725 1.276 1_545 S
C1736 O1728 1.234 . S
C1737 C1739 1.393 1_545 S
C1737 C1741 1.395 . S
C1737 C1744 1.492 . S
C1738 C1739 1.393 . S
C1738 C1740 1.366 1_565 S
C1739 C1737 1.393 1_565 S
C1739 C1738 1.393 . S
C1739 H1756 0.930 . S
C1740 C1738 1.366 1_545 S
C1740 C1742 1.395 . S
C1740 H1757 0.930 . S
C1741 C1737 1.395 . S
C1741 C1742 1.379 . S
C1741 H1758 0.930 . S
C1742 C1740 1.395 . S
C1742 C1741 1.379 . S
C1742 H1759 0.930 . S
C1743 O1726 1.264 . S
C1743 O1727 1.254 . S
C1744 Eu1680 2.848 . S
C1744 O1724 1.257 . S
C1744 O1729 1.249 1_545 S
C1744 C1737 1.492 . S
C1745 H1710 0.931 . S
C1745 C1723 1.420 . S
C1745 C1746 1.351 . S
C1746 H1708 0.930 . S
C1746 C1714 1.423 . S
C1746 C1745 1.351 . S
C1747 O1731 1.274 1_565 S
C1747 O1734 1.239 . S
C1748 C1749 1.393 1_565 S
C1748 C1752 1.395 . S
C1748 C1755 1.492 . S
C1749 C1748 1.393 1_545 S
C1749 C1750 1.393 . S
C1749 H1760 0.930 . S
C1750 C1749 1.393 . S
C1750 C1751 1.376 1_545 S
C1751 C1750 1.376 1_565 S
C1751 C1753 1.395 . S
C1751 H1761 0.930 . S
C1752 C1748 1.395 . S
C1752 C1753 1.379 . S
C1752 H1762 0.930 . S
C1753 C1751 1.395 . S
C1753 C1752 1.379 . S
C1753 H1763 0.930 . S
C1754 O1732 1.264 . S
C1754 O1733 1.254 . S
C1755 Eu1691 2.848 . S
C1755 O1730 1.257 . S
C1755 O1735 1.249 1_565 S
C1755 C1748 1.492 . S
H1756 C1739 0.930 . S
H1757 C1740 0.930 . S
H1758 C1741 0.930 . S
H1759 C1742 0.930 . S
H1760 C1749 0.930 . S
H1761 C1751 0.930 . S
H1762 C1752 0.930 . S
H1763 C1753 0.930 . S
Eu1764 N1795 2.657 . S
Eu1764 N1802 2.609 . S
Eu1764 O1808 2.558 . S
Eu1764 O1809 2.612 . S
Eu1764 O1811 2.339 . S
Eu1764 O1812 2.563 . S
Eu1764 O1813 2.419 . S
Eu1764 O1815 2.380 . S
Eu1764 O1816 2.432 . S
Eu1764 C1828 2.848 . S
C1765 C1768 1.429 . S
C1765 C1769 1.411 . S
C1765 N1772 1.377 . S
C1766 C1768 1.420 . S
C1766 C1770 1.423 . S
C1766 C1778 1.392 . S
C1767 C1769 1.420 . S
C1767 C1770 1.351 . S
C1767 H1790 0.931 . S
C1768 C1765 1.429 . S
C1768 C1766 1.420 . S
C1768 N1776 1.362 . S
C1769 C1765 1.411 . S
C1769 C1767 1.420 . S
C1769 C1774 1.395 . S
C1770 C1766 1.423 . S
C1770 C1767 1.351 . S
C1770 H1782 0.930 . S
C1771 C1773 1.400 . S
C1771 C1774 1.386 . S
C1771 H1783 0.930 . S
N1772 C1765 1.377 . S
N1772 C1773 1.321 . S
N1772 Eu1775 2.609 . S
C1773 C1771 1.400 . S
C1773 N1772 1.321 . S
C1773 H1780 0.930 . S
C1774 C1769 1.395 . S
C1774 C1771 1.386 . S
C1774 H1793 0.930 . S
Eu1775 N1772 2.609 . S
Eu1775 N1776 2.657 . S
Eu1775 O1809 2.380 . S
Eu1775 O1810 2.432 . S
Eu1775 O1814 2.558 . S
Eu1775 O1815 2.612 . S
Eu1775 O1817 2.339 . S
Eu1775 O1818 2.563 . S
Eu1775 O1819 2.419 . S
Eu1775 C1839 2.848 . S
N1776 C1768 1.362 . S
N1776 Eu1775 2.657 . S
N1776 C1777 1.334 . S
C1777 N1776 1.334 . S
C1777 C1779 1.413 . S
C1777 H1784 0.929 . S
C1778 C1766 1.392 . S
C1778 C1779 1.367 . S
C1778 H1786 0.930 . S
C1779 C1777 1.413 . S
C1779 C1778 1.367 . S
C1779 H1781 0.930 . S
H1780 C1773 0.930 . S
H1781 C1779 0.930 . S
H1782 C1770 0.930 . S
H1783 C1771 0.930 . S
H1784 C1777 0.929 . S
H1785 C1799 0.930 . S
H1786 C1778 0.930 . S
H1787 C1805 0.930 . S
H1788 C1796 0.929 . S
H1789 C1803 0.930 . S
H1790 C1767 0.931 . S
H1791 C1797 0.930 . S
H1792 C1830 0.930 . S
H1793 C1774 0.930 . S
H1794 C1829 0.931 . S
N1795 Eu1764 2.657 . S
N1795 C1796 1.334 . S
N1795 C1800 1.362 . S
C1796 H1788 0.929 . S
C1796 N1795 1.334 . S
C1796 C1799 1.413 . S
C1797 H1791 0.930 . S
C1797 C1798 1.392 . S
C1797 C1799 1.367 . S
C1798 C1797 1.392 . S
C1798 C1800 1.420 . S
C1798 C1830 1.423 . S
C1799 H1785 0.930 . S
C1799 C1796 1.413 . S
C1799 C1797 1.367 . S
C1800 N1795 1.362 . S
C1800 C1798 1.420 . S
C1800 C1804 1.429 . S
H1801 C1806 0.930 . S
N1802 Eu1764 2.609 . S
N1802 C1804 1.377 . S
N1802 C1805 1.321 . S
C1803 H1789 0.930 . S
C1803 C1805 1.400 . S
C1803 C1806 1.386 . S
C1804 C1800 1.429 . S
C1804 N1802 1.377 . S
C1804 C1807 1.411 . S
C1805 H1787 0.930 . S
C1805 N1802 1.321 . S
C1805 C1803 1.400 . S
C1806 H1801 0.930 . S
C1806 C1803 1.386 . S
C1806 C1807 1.395 . S
C1807 C1804 1.411 . S
C1807 C1806 1.395 . S
C1807 C1829 1.420 . S
O1808 Eu1764 2.558 . S
O1808 C1828 1.257 . S
O1809 Eu1764 2.612 . S
O1809 Eu1775 2.380 . S
O1809 C1820 1.276 . S
O1810 Eu1775 2.432 . S
O1810 C1827 1.264 . S
O1811 Eu1764 2.339 . S
O1811 C1827 1.254 . S
O1812 Eu1764 2.563 . S
O1812 C1820 1.235 . S
O1813 Eu1764 2.419 . S
O1813 C1828 1.249 . S
O1814 Eu1775 2.558 . S
O1814 C1839 1.257 . S
O1815 Eu1764 2.380 . S
O1815 Eu1775 2.612 . S
O1815 C1831 1.276 . S
O1816 Eu1764 2.432 . S
O1816 C1838 1.264 . S
O1817 Eu1775 2.339 . S
O1817 C1838 1.254 . S
O1818 Eu1775 2.563 . S
O1818 C1831 1.235 . S
O1819 Eu1775 2.419 . S
O1819 C1839 1.249 . S
C1820 O1809 1.276 . S
C1820 O1812 1.235 . S
C1821 C1823 1.393 . S
C1821 C1825 1.395 . S
C1821 C1828 1.492 . S
C1822 C1823 1.392 . S
C1822 C1824 1.386 . S
C1823 C1821 1.393 . S
C1823 C1822 1.392 . S
C1823 H1840 0.930 . S
C1824 C1822 1.386 . S
C1824 C1826 1.395 . S
C1824 H1841 0.930 . S
C1825 C1821 1.395 . S
C1825 C1826 1.379 . S
C1825 H1842 0.930 . S
C1826 C1824 1.395 . S
C1826 C1825 1.379 . S
C1826 H1843 0.930 . S
C1827 O1810 1.264 . S
C1827 O1811 1.254 . S
C1828 Eu1764 2.848 . S
C1828 O1808 1.257 . S
C1828 O1813 1.249 . S
C1828 C1821 1.492 . S
C1829 H1794 0.931 . S
C1829 C1807 1.420 . S
C1829 C1830 1.351 . S
C1830 H1792 0.930 . S
C1830 C1798 1.423 . S
C1830 C1829 1.351 . S
C1831 O1815 1.276 . S
C1831 O1818 1.235 . S
C1832 C1833 1.393 . S
C1832 C1836 1.395 . S
C1832 C1839 1.492 . S
C1833 C1832 1.393 . S
C1833 C1834 1.392 . S
C1833 H1844 0.930 . S
C1834 C1833 1.392 . S
C1834 C1835 1.386 . S
C1835 C1834 1.386 . S
C1835 C1837 1.395 . S
C1835 H1845 0.930 . S
C1836 C1832 1.395 . S
C1836 C1837 1.379 . S
C1836 H1846 0.930 . S
C1837 C1835 1.395 . S
C1837 C1836 1.379 . S
C1837 H1847 0.930 . S
C1838 O1816 1.264 . S
C1838 O1817 1.254 . S
C1839 Eu1775 2.848 . S
C1839 O1814 1.257 . S
C1839 O1819 1.249 . S
C1839 C1832 1.492 . S
H1840 C1823 0.930 . S
H1841 C1824 0.930 . S
H1842 C1825 0.930 . S
H1843 C1826 0.930 . S
H1844 C1833 0.930 . S
H1845 C1835 0.930 . S
H1846 C1836 0.930 . S
H1847 C1837 0.930 . S
Eu1848 N1879 2.657 . S
Eu1848 N1886 2.609 . S
Eu1848 O1892 2.558 . S
Eu1848 O1893 2.612 . S
Eu1848 O1895 2.339 . S
Eu1848 O1896 2.563 . S
Eu1848 O1897 2.419 . S
Eu1848 O1899 2.380 . S
Eu1848 O1900 2.432 . S
Eu1848 C1912 2.848 . S
C1849 C1852 1.429 . S
C1849 C1853 1.411 . S
C1849 N1856 1.377 . S
C1850 C1852 1.420 . S
C1850 C1854 1.423 1_455 S
C1850 C1862 1.392 . S
C1851 C1853 1.420 1_655 S
C1851 C1854 1.351 . S
C1851 H1874 0.931 . S
C1852 C1849 1.429 . S
C1852 C1850 1.420 . S
C1852 N1860 1.362 . S
C1853 C1849 1.411 . S
C1853 C1851 1.420 1_455 S
C1853 C1858 1.395 . S
C1854 C1850 1.423 1_655 S
C1854 C1851 1.351 . S
C1854 H1866 0.930 . S
C1855 C1857 1.400 . S
C1855 C1858 1.386 . S
C1855 H1867 0.930 . S
N1856 C1849 1.377 . S
N1856 C1857 1.321 . S
N1856 Eu1859 2.609 . S
C1857 C1855 1.400 . S
C1857 N1856 1.321 . S
C1857 H1864 0.930 . S
C1858 C1853 1.395 . S
C1858 C1855 1.386 . S
C1858 H1877 0.930 . S
Eu1859 N1856 2.609 . S
Eu1859 N1860 2.657 . S
Eu1859 O1893 2.380 . S
Eu1859 O1894 2.432 . S
Eu1859 O1898 2.558 . S
Eu1859 O1899 2.612 . S
Eu1859 O1901 2.339 . S
Eu1859 O1902 2.563 . S
Eu1859 O1903 2.419 . S
Eu1859 C1923 2.848 . S
N1860 C1852 1.362 . S
N1860 Eu1859 2.657 . S
N1860 C1861 1.334 . S
C1861 N1860 1.334 . S
C1861 C1863 1.413 . S
C1861 H1868 0.929 . S
C1862 C1850 1.392 . S
C1862 C1863 1.367 . S
C1862 H1870 0.930 1_455 S
C1863 C1861 1.413 . S
C1863 C1862 1.367 . S
C1863 H1865 0.930 . S
H1864 C1857 0.930 . S
H1865 C1863 0.930 . S
H1866 C1854 0.930 . S
H1867 C1855 0.930 . S
H1868 C1861 0.929 . S
H1869 C1883 0.930 . S
H1870 C1862 0.930 1_655 S
H1871 C1889 0.930 . S
H1872 C1880 0.929 . S
H1873 C1887 0.930 . S
H1874 C1851 0.931 . S
H1875 C1881 0.930 . S
H1876 C1914 0.930 . S
H1877 C1858 0.930 . S
H1878 C1913 0.931 . S
N1879 Eu1848 2.657 . S
N1879 C1880 1.334 . S
N1879 C1884 1.362 . S
C1880 H1872 0.929 . S
C1880 N1879 1.334 . S
C1880 C1883 1.413 . S
C1881 H1875 0.930 . S
C1881 C1882 1.392 . S
C1881 C1883 1.367 . S
C1882 C1881 1.392 . S
C1882 C1884 1.420 . S
C1882 C1914 1.423 . S
C1883 H1869 0.930 . S
C1883 C1880 1.413 . S
C1883 C1881 1.367 . S
C1884 N1879 1.362 . S
C1884 C1882 1.420 . S
C1884 C1888 1.429 . S
H1885 C1890 0.930 . S
N1886 Eu1848 2.609 . S
N1886 C1888 1.377 . S
N1886 C1889 1.321 . S
C1887 H1873 0.930 . S
C1887 C1889 1.400 . S
C1887 C1890 1.386 . S
C1888 C1884 1.429 . S
C1888 N1886 1.377 . S
C1888 C1891 1.411 . S
C1889 H1871 0.930 . S
C1889 N1886 1.321 . S
C1889 C1887 1.400 . S
C1890 H1885 0.930 . S
C1890 C1887 1.386 . S
C1890 C1891 1.395 . S
C1891 C1888 1.411 . S
C1891 C1890 1.395 . S
C1891 C1913 1.420 . S
O1892 Eu1848 2.558 . S
O1892 C1912 1.257 . S
O1893 Eu1848 2.612 . S
O1893 Eu1859 2.380 . S
O1893 C1904 1.276 . S
O1894 Eu1859 2.432 . S
O1894 C1911 1.264 . S
O1895 Eu1848 2.339 . S
O1895 C1911 1.254 . S
O1896 Eu1848 2.563 . S
O1896 C1904 1.235 . S
O1897 Eu1848 2.419 . S
O1897 C1912 1.249 . S
O1898 Eu1859 2.558 . S
O1898 C1923 1.257 . S
O1899 Eu1848 2.380 . S
O1899 Eu1859 2.612 . S
O1899 C1915 1.276 . S
O1900 Eu1848 2.432 . S
O1900 C1922 1.264 . S
O1901 Eu1859 2.339 . S
O1901 C1922 1.254 . S
O1902 Eu1859 2.563 . S
O1902 C1915 1.235 . S
O1903 Eu1859 2.419 . S
O1903 C1923 1.249 . S
C1904 O1893 1.276 . S
C1904 O1896 1.235 . S
C1905 C1907 1.393 . S
C1905 C1909 1.395 . S
C1905 C1912 1.492 . S
C1906 C1907 1.392 . S
C1906 C1908 1.386 . S
C1907 C1905 1.393 . S
C1907 C1906 1.392 . S
C1907 H1924 0.930 . S
C1908 C1906 1.386 . S
C1908 C1910 1.395 . S
C1908 H1925 0.930 . S
C1909 C1905 1.395 . S
C1909 C1910 1.379 . S
C1909 H1926 0.930 . S
C1910 C1908 1.395 . S
C1910 C1909 1.379 . S
C1910 H1927 0.930 . S
C1911 O1894 1.264 . S
C1911 O1895 1.254 . S
C1912 Eu1848 2.848 . S
C1912 O1892 1.257 . S
C1912 O1897 1.249 . S
C1912 C1905 1.492 . S
C1913 H1878 0.931 . S
C1913 C1891 1.420 . S
C1913 C1914 1.351 . S
C1914 H1876 0.930 . S
C1914 C1882 1.423 . S
C1914 C1913 1.351 . S
C1915 O1899 1.276 . S
C1915 O1902 1.235 . S
C1916 C1917 1.393 . S
C1916 C1920 1.395 . S
C1916 C1923 1.492 . S
C1917 C1916 1.393 . S
C1917 C1918 1.392 . S
C1917 H1928 0.930 . S
C1918 C1917 1.392 . S
C1918 C1919 1.386 . S
C1919 C1918 1.386 . S
C1919 C1921 1.395 . S
C1919 H1929 0.930 . S
C1920 C1916 1.395 . S
C1920 C1921 1.379 . S
C1920 H1930 0.930 . S
C1921 C1919 1.395 . S
C1921 C1920 1.379 . S
C1921 H1931 0.930 . S
C1922 O1900 1.264 . S
C1922 O1901 1.254 . S
C1923 Eu1859 2.848 . S
C1923 O1898 1.257 . S
C1923 O1903 1.249 . S
C1923 C1916 1.492 . S
H1924 C1907 0.930 . S
H1925 C1908 0.930 . S
H1926 C1909 0.930 . S
H1927 C1910 0.930 . S
H1928 C1917 0.930 . S
H1929 C1919 0.930 . S
H1930 C1920 0.930 . S
H1931 C1921 0.930 . S
Eu1932 N1963 2.657 1_545 S
Eu1932 N1970 2.609 . S
Eu1932 O1976 2.558 . S
Eu1932 O1977 2.612 1_545 S
Eu1932 O1979 2.339 1_545 S
Eu1932 O1980 2.563 . S
Eu1932 O1981 2.419 1_545 S
Eu1932 O1983 2.380 . S
Eu1932 O1984 2.432 . S
Eu1932 C1996 2.848 . S
C1933 C1936 1.429 . S
C1933 C1937 1.411 . S
C1933 N1940 1.377 . S
C1934 C1936 1.420 . S
C1934 C1938 1.423 . S
C1934 C1946 1.392 1_565 S
C1935 C1937 1.420 . S
C1935 C1938 1.351 . S
C1935 H1958 0.931 . S
C1936 C1933 1.429 . S
C1936 C1934 1.420 . S
C1936 N1944 1.362 1_565 S
C1937 C1933 1.411 . S
C1937 C1935 1.420 . S
C1937 C1942 1.395 . S
C1938 C1934 1.423 . S
C1938 C1935 1.351 . S
C1938 H1950 0.930 . S
C1939 C1941 1.400 . S
C1939 C1942 1.386 . S
C1939 H1951 0.930 . S
N1940 C1933 1.377 . S
N1940 C1941 1.321 . S
N1940 Eu1943 2.609 . S
C1941 C1939 1.400 . S
C1941 N1940 1.321 . S
C1941 H1948 0.930 . S
C1942 C1937 1.395 . S
C1942 C1939 1.386 . S
C1942 H1961 0.930 . S
Eu1943 N1940 2.609 . S
Eu1943 N1944 2.657 1_565 S
Eu1943 O1977 2.380 . S
Eu1943 O1978 2.432 . S
Eu1943 O1982 2.558 . S
Eu1943 O1983 2.612 1_565 S
Eu1943 O1985 2.339 1_565 S
Eu1943 O1986 2.563 . S
Eu1943 O1987 2.419 1_565 S
Eu1943 C2007 2.848 . S
N1944 C1936 1.362 1_545 S
N1944 Eu1943 2.657 1_545 S
N1944 C1945 1.334 . S
C1945 N1944 1.334 . S
C1945 C1947 1.413 . S
C1945 H1952 0.929 . S
C1946 C1934 1.392 1_545 S
C1946 C1947 1.367 . S
C1946 H1954 0.930 . S
C1947 C1945 1.413 . S
C1947 C1946 1.367 . S
C1947 H1949 0.930 . S
H1948 C1941 0.930 . S
H1949 C1947 0.930 . S
H1950 C1938 0.930 . S
H1951 C1939 0.930 . S
H1952 C1945 0.929 . S
H1953 C1967 0.930 . S
H1954 C1946 0.930 . S
H1955 C1973 0.930 . S
H1956 C1964 0.929 . S
H1957 C1971 0.930 . S
H1958 C1935 0.931 . S
H1959 C1965 0.930 . S
H1960 C1998 0.930 . S
H1961 C1942 0.930 . S
H1962 C1997 0.931 . S
N1963 Eu1932 2.657 1_565 S
N1963 C1964 1.334 . S
N1963 C1968 1.362 1_565 S
C1964 H1956 0.929 . S
C1964 N1963 1.334 . S
C1964 C1967 1.413 . S
C1965 H1959 0.930 . S
C1965 C1966 1.392 1_565 S
C1965 C1967 1.367 . S
C1966 C1965 1.392 1_545 S
C1966 C1968 1.420 . S
C1966 C1998 1.423 . S
C1967 H1953 0.930 . S
C1967 C1964 1.413 . S
C1967 C1965 1.367 . S
C1968 N1963 1.362 1_545 S
C1968 C1966 1.420 . S
C1968 C1972 1.429 . S
H1969 C1974 0.930 . S
N1970 Eu1932 2.609 . S
N1970 C1972 1.377 . S
N1970 C1973 1.321 . S
C1971 H1957 0.930 . S
C1971 C1973 1.400 . S
C1971 C1974 1.386 . S
C1972 C1968 1.429 . S
C1972 N1970 1.377 . S
C1972 C1975 1.411 . S
C1973 H1955 0.930 . S
C1973 N1970 1.321 . S
C1973 C1971 1.400 . S
C1974 H1969 0.930 . S
C1974 C1971 1.386 . S
C1974 C1975 1.395 . S
C1975 C1972 1.411 . S
C1975 C1974 1.395 . S
C1975 C1997 1.420 . S
O1976 Eu1932 2.558 . S
O1976 C1996 1.257 . S
O1977 Eu1932 2.612 1_565 S
O1977 Eu1943 2.380 . S
O1977 C1988 1.276 1_565 S
O1978 Eu1943 2.432 . S
O1978 C1995 1.264 . S
O1979 Eu1932 2.339 1_565 S
O1979 C1995 1.254 . S
O1980 Eu1932 2.563 . S
O1980 C1988 1.234 . S
O1981 Eu1932 2.419 1_565 S
O1981 C1996 1.249 1_565 S
O1982 Eu1943 2.558 . S
O1982 C2007 1.257 . S
O1983 Eu1932 2.380 . S
O1983 Eu1943 2.612 1_545 S
O1983 C1999 1.274 1_545 S
O1984 Eu1932 2.432 . S
O1984 C2006 1.264 . S
O1985 Eu1943 2.339 1_545 S
O1985 C2006 1.254 . S
O1986 Eu1943 2.563 . S
O1986 C1999 1.239 . S
O1987 Eu1943 2.419 1_545 S
O1987 C2007 1.249 1_545 S
C1988 O1977 1.276 1_545 S
C1988 O1980 1.234 . S
C1989 C1991 1.393 1_545 S
C1989 C1993 1.395 . S
C1989 C1996 1.492 . S
C1990 C1991 1.393 . S
C1990 C1992 1.366 1_565 S
C1991 C1989 1.393 1_565 S
C1991 C1990 1.393 . S
C1991 H2008 0.930 . S
C1992 C1990 1.366 1_545 S
C1992 C1994 1.395 . S
C1992 H2009 0.930 . S
C1993 C1989 1.395 . S
C1993 C1994 1.379 . S
C1993 H2010 0.930 . S
C1994 C1992 1.395 . S
C1994 C1993 1.379 . S
C1994 H2011 0.930 . S
C1995 O1978 1.264 . S
C1995 O1979 1.254 . S
C1996 Eu1932 2.848 . S
C1996 O1976 1.257 . S
C1996 O1981 1.249 1_545 S
C1996 C1989 1.492 . S
C1997 H1962 0.931 . S
C1997 C1975 1.420 . S
C1997 C1998 1.351 . S
C1998 H1960 0.930 . S
C1998 C1966 1.423 . S
C1998 C1997 1.351 . S
C1999 O1983 1.274 1_565 S
C1999 O1986 1.239 . S
C2000 C2001 1.393 1_565 S
C2000 C2004 1.395 . S
C2000 C2007 1.492 . S
C2001 C2000 1.393 1_545 S
C2001 C2002 1.393 . S
C2001 H2012 0.930 . S
C2002 C2001 1.393 . S
C2002 C2003 1.376 1_545 S
C2003 C2002 1.376 1_565 S
C2003 C2005 1.395 . S
C2003 H2013 0.930 . S
C2004 C2000 1.395 . S
C2004 C2005 1.379 . S
C2004 H2014 0.930 . S
C2005 C2003 1.395 . S
C2005 C2004 1.379 . S
C2005 H2015 0.930 . S
C2006 O1984 1.264 . S
C2006 O1985 1.254 . S
C2007 Eu1943 2.848 . S
C2007 O1982 1.257 . S
C2007 O1987 1.249 1_565 S
C2007 C2000 1.492 . S
H2008 C1991 0.930 . S
H2009 C1992 0.930 . S
H2010 C1993 0.930 . S
H2011 C1994 0.930 . S
H2012 C2001 0.930 . S
H2013 C2003 0.930 . S
H2014 C2004 0.930 . S
H2015 C2005 0.930 . S
Eu2016 N2047 2.657 . S
Eu2016 N2054 2.609 . S
Eu2016 O2060 2.558 . S
Eu2016 O2061 2.612 . S
Eu2016 O2063 2.339 . S
Eu2016 O2064 2.563 . S
Eu2016 O2065 2.419 . S
Eu2016 O2067 2.380 . S
Eu2016 O2068 2.432 . S
Eu2016 C2080 2.838 1_554 S
C2017 C2020 1.429 . S
C2017 C2021 1.411 . S
C2017 N2024 1.377 . S
C2018 C2020 1.420 . S
C2018 C2022 1.423 . S
C2018 C2030 1.392 . S
C2019 C2021 1.420 . S
C2019 C2022 1.351 . S
C2019 H2042 0.931 . S
C2020 C2017 1.429 . S
C2020 C2018 1.420 . S
C2020 N2028 1.362 . S
C2021 C2017 1.411 . S
C2021 C2019 1.420 . S
C2021 C2026 1.395 . S
C2022 C2018 1.423 . S
C2022 C2019 1.351 . S
C2022 H2034 0.930 . S
C2023 C2025 1.400 . S
C2023 C2026 1.386 . S
C2023 H2035 0.930 . S
N2024 C2017 1.377 . S
N2024 C2025 1.321 . S
N2024 Eu2027 2.609 . S
C2025 C2023 1.400 . S
C2025 N2024 1.321 . S
C2025 H2032 0.930 . S
C2026 C2021 1.395 . S
C2026 C2023 1.386 . S
C2026 H2045 0.930 . S
Eu2027 N2024 2.609 . S
Eu2027 N2028 2.657 . S
Eu2027 O2061 2.380 . S
Eu2027 O2062 2.432 . S
Eu2027 O2066 2.558 . S
Eu2027 O2067 2.612 . S
Eu2027 O2069 2.339 . S
Eu2027 O2070 2.563 . S
Eu2027 O2071 2.419 . S
Eu2027 C2091 2.848 . S
N2028 C2020 1.362 . S
N2028 Eu2027 2.657 . S
N2028 C2029 1.334 . S
C2029 N2028 1.334 . S
C2029 C2031 1.413 . S
C2029 H2036 0.929 . S
C2030 C2018 1.392 . S
C2030 C2031 1.367 . S
C2030 H2038 0.930 . S
C2031 C2029 1.413 . S
C2031 C2030 1.367 . S
C2031 H2033 0.930 . S
H2032 C2025 0.930 . S
H2033 C2031 0.930 . S
H2034 C2022 0.930 . S
H2035 C2023 0.930 . S
H2036 C2029 0.929 . S
H2037 C2051 0.930 . S
H2038 C2030 0.930 . S
H2039 C2057 0.930 . S
H2040 C2048 0.929 . S
H2041 C2055 0.930 . S
H2042 C2019 0.931 . S
H2043 C2049 0.930 1_455 S
H2044 C2082 0.930 . S
H2045 C2026 0.930 . S
H2046 C2081 0.931 . S
N2047 Eu2016 2.657 . S
N2047 C2048 1.334 . S
N2047 C2052 1.362 . S
C2048 H2040 0.929 . S
C2048 N2047 1.334 . S
C2048 C2051 1.413 . S
C2049 H2043 0.930 1_655 S
C2049 C2050 1.392 . S
C2049 C2051 1.367 . S
C2050 C2049 1.392 . S
C2050 C2052 1.420 . S
C2050 C2082 1.423 1_655 S
C2051 H2037 0.930 . S
C2051 C2048 1.413 . S
C2051 C2049 1.367 . S
C2052 N2047 1.362 . S
C2052 C2050 1.420 . S
C2052 C2056 1.429 . S
H2053 C2058 0.930 . S
N2054 Eu2016 2.609 . S
N2054 C2056 1.377 . S
N2054 C2057 1.321 . S
C2055 H2041 0.930 . S
C2055 C2057 1.400 . S
C2055 C2058 1.386 . S
C2056 C2052 1.429 . S
C2056 N2054 1.377 . S
C2056 C2059 1.411 . S
C2057 H2039 0.930 . S
C2057 N2054 1.321 . S
C2057 C2055 1.400 . S
C2058 H2053 0.930 . S
C2058 C2055 1.386 . S
C2058 C2059 1.395 . S
C2059 C2056 1.411 . S
C2059 C2058 1.395 . S
C2059 C2081 1.420 1_655 S
O2060 Eu2016 2.558 . S
O2060 C2080 1.252 1_554 S
O2061 Eu2016 2.612 . S
O2061 Eu2027 2.380 . S
O2061 C2072 1.276 . S
O2062 Eu2027 2.432 . S
O2062 C2079 1.264 . S
O2063 Eu2016 2.339 . S
O2063 C2079 1.254 . S
O2064 Eu2016 2.563 . S
O2064 C2072 1.235 . S
O2065 Eu2016 2.419 . S
O2065 C2080 1.244 1_554 S
O2066 Eu2027 2.558 . S
O2066 C2091 1.257 . S
O2067 Eu2016 2.380 . S
O2067 Eu2027 2.612 . S
O2067 C2083 1.276 . S
O2068 Eu2016 2.432 . S
O2068 C2090 1.264 . S
O2069 Eu2027 2.339 . S
O2069 C2090 1.254 . S
O2070 Eu2027 2.563 . S
O2070 C2083 1.235 . S
O2071 Eu2027 2.419 . S
O2071 C2091 1.249 . S
C2072 O2061 1.276 . S
C2072 O2064 1.235 . S
C2073 C2075 1.393 . S
C2073 C2077 1.395 . S
C2073 C2080 1.502 . S
C2074 C2075 1.392 . S
C2074 C2076 1.386 . S
C2075 C2073 1.393 . S
C2075 C2074 1.392 . S
C2075 H2092 0.930 . S
C2076 C2074 1.386 . S
C2076 C2078 1.395 . S
C2076 H2093 0.930 . S
C2077 C2073 1.395 . S
C2077 C2078 1.379 . S
C2077 H2094 0.930 . S
C2078 C2076 1.395 . S
C2078 C2077 1.379 . S
C2078 H2095 0.930 . S
C2079 O2062 1.264 . S
C2079 O2063 1.254 . S
C2080 Eu2016 2.838 1_556 S
C2080 O2060 1.252 1_556 S
C2080 O2065 1.244 1_556 S
C2080 C2073 1.502 . S
C2081 H2046 0.931 . S
C2081 C2059 1.420 1_455 S
C2081 C2082 1.351 . S
C2082 H2044 0.930 . S
C2082 C2050 1.423 1_455 S
C2082 C2081 1.351 . S
C2083 O2067 1.276 . S
C2083 O2070 1.235 . S
C2084 C2085 1.393 . S
C2084 C2088 1.395 . S
C2084 C2091 1.492 . S
C2085 C2084 1.393 . S
C2085 C2086 1.392 . S
C2085 H2096 0.930 . S
C2086 C2085 1.392 . S
C2086 C2087 1.386 . S
C2087 C2086 1.386 . S
C2087 C2089 1.395 . S
C2087 H2097 0.930 . S
C2088 C2084 1.395 . S
C2088 C2089 1.379 . S
C2088 H2098 0.930 . S
C2089 C2087 1.395 . S
C2089 C2088 1.379 . S
C2089 H2099 0.930 . S
C2090 O2068 1.264 . S
C2090 O2069 1.254 . S
C2091 Eu2027 2.848 . S
C2091 O2066 1.257 . S
C2091 O2071 1.249 . S
C2091 C2084 1.492 . S
H2092 C2075 0.930 . S
H2093 C2076 0.930 . S
H2094 C2077 0.930 . S
H2095 C2078 0.930 . S
H2096 C2085 0.930 . S
H2097 C2087 0.930 . S
H2098 C2088 0.930 . S
H2099 C2089 0.930 . S
Eu2100 N2131 2.657 . S
Eu2100 N2138 2.609 . S
Eu2100 O2144 2.558 . S
Eu2100 O2145 2.612 . S
Eu2100 O2147 2.339 . S
Eu2100 O2148 2.563 . S
Eu2100 O2149 2.419 . S
Eu2100 O2151 2.380 . S
Eu2100 O2152 2.432 . S
Eu2100 C2164 2.826 1_554 S
C2101 C2104 1.429 . S
C2101 C2105 1.411 . S
C2101 N2108 1.377 . S
C2102 C2104 1.420 . S
C2102 C2106 1.423 . S
C2102 C2114 1.392 . S
C2103 C2105 1.420 . S
C2103 C2106 1.351 . S
C2103 H2126 0.931 . S
C2104 C2101 1.429 . S
C2104 C2102 1.420 . S
C2104 N2112 1.362 . S
C2105 C2101 1.411 . S
C2105 C2103 1.420 . S
C2105 C2110 1.395 . S
C2106 C2102 1.423 . S
C2106 C2103 1.351 . S
C2106 H2118 0.930 . S
C2107 C2109 1.400 . S
C2107 C2110 1.386 . S
C2107 H2119 0.930 . S
N2108 C2101 1.377 . S
N2108 C2109 1.321 . S
N2108 Eu2111 2.609 . S
C2109 C2107 1.400 . S
C2109 N2108 1.321 . S
C2109 H2116 0.930 . S
C2110 C2105 1.395 . S
C2110 C2107 1.386 . S
C2110 H2129 0.930 . S
Eu2111 N2108 2.609 . S
Eu2111 N2112 2.657 . S
Eu2111 O2145 2.380 . S
Eu2111 O2146 2.432 . S
Eu2111 O2150 2.558 . S
Eu2111 O2151 2.612 . S
Eu2111 O2153 2.339 . S
Eu2111 O2154 2.563 . S
Eu2111 O2155 2.419 . S
Eu2111 C2175 2.848 . S
N2112 C2104 1.362 . S
N2112 Eu2111 2.657 . S
N2112 C2113 1.334 . S
C2113 N2112 1.334 . S
C2113 C2115 1.413 . S
C2113 H2120 0.929 . S
C2114 C2102 1.392 . S
C2114 C2115 1.367 . S
C2114 H2122 0.930 . S
C2115 C2113 1.413 . S
C2115 C2114 1.367 . S
C2115 H2117 0.930 . S
H2116 C2109 0.930 . S
H2117 C2115 0.930 . S
H2118 C2106 0.930 . S
H2119 C2107 0.930 . S
H2120 C2113 0.929 . S
H2121 C2135 0.930 . S
H2122 C2114 0.930 . S
H2123 C2141 0.930 . S
H2124 C2132 0.929 . S
H2125 C2139 0.930 . S
H2126 C2103 0.931 . S
H2127 C2133 0.930 . S
H2128 C2166 0.930 . S
H2129 C2110 0.930 . S
H2130 C2165 0.931 . S
N2131 Eu2100 2.657 . S
N2131 C2132 1.334 . S
N2131 C2136 1.362 . S
C2132 H2124 0.929 . S
C2132 N2131 1.334 . S
C2132 C2135 1.413 . S
C2133 H2127 0.930 . S
C2133 C2134 1.392 . S
C2133 C2135 1.367 . S
C2134 C2133 1.392 . S
C2134 C2136 1.420 . S
C2134 C2166 1.423 . S
C2135 H2121 0.930 . S
C2135 C2132 1.413 . S
C2135 C2133 1.367 . S
C2136 N2131 1.362 . S
C2136 C2134 1.420 . S
C2136 C2140 1.429 . S
H2137 C2142 0.930 . S
N2138 Eu2100 2.609 . S
N2138 C2140 1.377 . S
N2138 C2141 1.321 . S
C2139 H2125 0.930 . S
C2139 C2141 1.400 . S
C2139 C2142 1.386 . S
C2140 C2136 1.429 . S
C2140 N2138 1.377 . S
C2140 C2143 1.411 . S
C2141 H2123 0.930 . S
C2141 N2138 1.321 . S
C2141 C2139 1.400 . S
C2142 H2137 0.930 . S
C2142 C2139 1.386 . S
C2142 C2143 1.395 . S
C2143 C2140 1.411 . S
C2143 C2142 1.395 . S
C2143 C2165 1.420 . S
O2144 Eu2100 2.558 . S
O2144 C2164 1.247 1_554 S
O2145 Eu2100 2.612 . S
O2145 Eu2111 2.380 . S
O2145 C2156 1.276 . S
O2146 Eu2111 2.432 . S
O2146 C2163 1.264 . S
O2147 Eu2100 2.339 . S
O2147 C2163 1.254 . S
O2148 Eu2100 2.563 . S
O2148 C2156 1.235 . S
O2149 Eu2100 2.419 . S
O2149 C2164 1.238 1_554 S
O2150 Eu2111 2.558 . S
O2150 C2175 1.257 . S
O2151 Eu2100 2.380 . S
O2151 Eu2111 2.612 . S
O2151 C2167 1.276 . S
O2152 Eu2100 2.432 . S
O2152 C2174 1.264 . S
O2153 Eu2111 2.339 . S
O2153 C2174 1.254 . S
O2154 Eu2111 2.563 . S
O2154 C2167 1.235 . S
O2155 Eu2111 2.419 . S
O2155 C2175 1.249 . S
C2156 O2145 1.276 . S
C2156 O2148 1.235 . S
C2157 C2159 1.393 . S
C2157 C2161 1.395 . S
C2157 C2164 1.514 . S
C2158 C2159 1.392 . S
C2158 C2160 1.386 . S
C2159 C2157 1.393 . S
C2159 C2158 1.392 . S
C2159 H2176 0.930 . S
C2160 C2158 1.386 . S
C2160 C2162 1.395 . S
C2160 H2177 0.930 . S
C2161 C2157 1.395 . S
C2161 C2162 1.379 . S
C2161 H2178 0.930 . S
C2162 C2160 1.395 . S
C2162 C2161 1.379 . S
C2162 H2179 0.930 . S
C2163 O2146 1.264 . S
C2163 O2147 1.254 . S
C2164 Eu2100 2.826 1_556 S
C2164 O2144 1.247 1_556 S
C2164 O2149 1.238 1_556 S
C2164 C2157 1.514 . S
C2165 H2130 0.931 . S
C2165 C2143 1.420 . S
C2165 C2166 1.351 . S
C2166 H2128 0.930 . S
C2166 C2134 1.423 . S
C2166 C2165 1.351 . S
C2167 O2151 1.276 . S
C2167 O2154 1.235 . S
C2168 C2169 1.393 . S
C2168 C2172 1.395 . S
C2168 C2175 1.492 . S
C2169 C2168 1.393 . S
C2169 C2170 1.392 . S
C2169 H2180 0.930 . S
C2170 C2169 1.392 . S
C2170 C2171 1.386 . S
C2171 C2170 1.386 . S
C2171 C2173 1.395 . S
C2171 H2181 0.930 . S
C2172 C2168 1.395 . S
C2172 C2173 1.379 . S
C2172 H2182 0.930 . S
C2173 C2171 1.395 . S
C2173 C2172 1.379 . S
C2173 H2183 0.930 . S
C2174 O2152 1.264 . S
C2174 O2153 1.254 . S
C2175 Eu2111 2.848 . S
C2175 O2150 1.257 . S
C2175 O2155 1.249 . S
C2175 C2168 1.492 . S
H2176 C2159 0.930 . S
H2177 C2160 0.930 . S
H2178 C2161 0.930 . S
H2179 C2162 0.930 . S
H2180 C2169 0.930 . S
H2181 C2171 0.930 . S
H2182 C2172 0.930 . S
H2183 C2173 0.930 . S
Eu2184 N2215 2.657 . S
Eu2184 N2222 2.609 . S
Eu2184 O2228 2.558 . S
Eu2184 O2229 2.612 . S
Eu2184 O2231 2.339 . S
Eu2184 O2232 2.563 . S
Eu2184 O2233 2.419 . S
Eu2184 O2235 2.380 . S
Eu2184 O2236 2.432 . S
Eu2184 C2248 2.848 . S
C2185 C2188 1.429 . S
C2185 C2189 1.411 . S
C2185 N2192 1.377 . S
C2186 C2188 1.420 . S
C2186 C2190 1.423 . S
C2186 C2198 1.392 . S
C2187 C2189 1.420 . S
C2187 C2190 1.351 . S
C2187 H2210 0.931 . S
C2188 C2185 1.429 . S
C2188 C2186 1.420 . S
C2188 N2196 1.362 . S
C2189 C2185 1.411 . S
C2189 C2187 1.420 . S
C2189 C2194 1.395 . S
C2190 C2186 1.423 . S
C2190 C2187 1.351 . S
C2190 H2202 0.930 . S
C2191 C2193 1.400 . S
C2191 C2194 1.386 . S
C2191 H2203 0.930 . S
N2192 C2185 1.377 . S
N2192 C2193 1.321 . S
N2192 Eu2195 2.609 . S
C2193 C2191 1.400 . S
C2193 N2192 1.321 . S
C2193 H2200 0.930 . S
C2194 C2189 1.395 . S
C2194 C2191 1.386 . S
C2194 H2213 0.930 . S
Eu2195 N2192 2.609 . S
Eu2195 N2196 2.657 . S
Eu2195 O2229 2.380 . S
Eu2195 O2230 2.432 . S
Eu2195 O2234 2.558 . S
Eu2195 O2235 2.612 . S
Eu2195 O2237 2.339 . S
Eu2195 O2238 2.563 . S
Eu2195 O2239 2.419 . S
Eu2195 C2259 2.848 . S
N2196 C2188 1.362 . S
N2196 Eu2195 2.657 . S
N2196 C2197 1.334 . S
C2197 N2196 1.334 . S
C2197 C2199 1.413 . S
C2197 H2204 0.929 . S
C2198 C2186 1.392 . S
C2198 C2199 1.367 . S
C2198 H2206 0.930 . S
C2199 C2197 1.413 . S
C2199 C2198 1.367 . S
C2199 H2201 0.930 . S
H2200 C2193 0.930 . S
H2201 C2199 0.930 . S
H2202 C2190 0.930 . S
H2203 C2191 0.930 . S
H2204 C2197 0.929 . S
H2205 C2219 0.930 . S
H2206 C2198 0.930 . S
H2207 C2225 0.930 . S
H2208 C2216 0.929 . S
H2209 C2223 0.930 . S
H2210 C2187 0.931 . S
H2211 C2217 0.930 1_455 S
H2212 C2250 0.930 . S
H2213 C2194 0.930 . S
H2214 C2249 0.931 . S
N2215 Eu2184 2.657 . S
N2215 C2216 1.334 . S
N2215 C2220 1.362 . S
C2216 H2208 0.929 . S
C2216 N2215 1.334 . S
C2216 C2219 1.413 . S
C2217 H2211 0.930 1_655 S
C2217 C2218 1.392 . S
C2217 C2219 1.367 . S
C2218 C2217 1.392 . S
C2218 C2220 1.420 . S
C2218 C2250 1.423 1_655 S
C2219 H2205 0.930 . S
C2219 C2216 1.413 . S
C2219 C2217 1.367 . S
C2220 N2215 1.362 . S
C2220 C2218 1.420 . S
C2220 C2224 1.429 . S
H2221 C2226 0.930 . S
N2222 Eu2184 2.609 . S
N2222 C2224 1.377 . S
N2222 C2225 1.321 . S
C2223 H2209 0.930 . S
C2223 C2225 1.400 . S
C2223 C2226 1.386 . S
C2224 C2220 1.429 . S
C2224 N2222 1.377 . S
C2224 C2227 1.411 . S
C2225 H2207 0.930 . S
C2225 N2222 1.321 . S
C2225 C2223 1.400 . S
C2226 H2221 0.930 . S
C2226 C2223 1.386 . S
C2226 C2227 1.395 . S
C2227 C2224 1.411 . S
C2227 C2226 1.395 . S
C2227 C2249 1.420 1_655 S
O2228 Eu2184 2.558 . S
O2228 C2248 1.257 . S
O2229 Eu2184 2.612 . S
O2229 Eu2195 2.380 . S
O2229 C2240 1.276 . S
O2230 Eu2195 2.432 . S
O2230 C2247 1.264 . S
O2231 Eu2184 2.339 . S
O2231 C2247 1.254 . S
O2232 Eu2184 2.563 . S
O2232 C2240 1.235 . S
O2233 Eu2184 2.419 . S
O2233 C2248 1.249 . S
O2234 Eu2195 2.558 . S
O2234 C2259 1.257 . S
O2235 Eu2184 2.380 . S
O2235 Eu2195 2.612 . S
O2235 C2251 1.276 . S
O2236 Eu2184 2.432 . S
O2236 C2258 1.264 . S
O2237 Eu2195 2.339 . S
O2237 C2258 1.254 . S
O2238 Eu2195 2.563 . S
O2238 C2251 1.235 . S
O2239 Eu2195 2.419 . S
O2239 C2259 1.249 . S
C2240 O2229 1.276 . S
C2240 O2232 1.235 . S
C2241 C2243 1.393 . S
C2241 C2245 1.395 . S
C2241 C2248 1.492 . S
C2242 C2243 1.392 . S
C2242 C2244 1.386 . S
C2243 C2241 1.393 . S
C2243 C2242 1.392 . S
C2243 H2260 0.930 . S
C2244 C2242 1.386 . S
C2244 C2246 1.395 . S
C2244 H2261 0.930 . S
C2245 C2241 1.395 . S
C2245 C2246 1.379 . S
C2245 H2262 0.930 . S
C2246 C2244 1.395 . S
C2246 C2245 1.379 . S
C2246 H2263 0.930 . S
C2247 O2230 1.264 . S
C2247 O2231 1.254 . S
C2248 Eu2184 2.848 . S
C2248 O2228 1.257 . S
C2248 O2233 1.249 . S
C2248 C2241 1.492 . S
C2249 H2214 0.931 . S
C2249 C2227 1.420 1_455 S
C2249 C2250 1.351 . S
C2250 H2212 0.930 . S
C2250 C2218 1.423 1_455 S
C2250 C2249 1.351 . S
C2251 O2235 1.276 . S
C2251 O2238 1.235 . S
C2252 C2253 1.393 . S
C2252 C2256 1.395 . S
C2252 C2259 1.492 . S
C2253 C2252 1.393 . S
C2253 C2254 1.392 . S
C2253 H2264 0.930 . S
C2254 C2253 1.392 . S
C2254 C2255 1.386 . S
C2255 C2254 1.386 . S
C2255 C2257 1.395 . S
C2255 H2265 0.930 . S
C2256 C2252 1.395 . S
C2256 C2257 1.379 . S
C2256 H2266 0.930 . S
C2257 C2255 1.395 . S
C2257 C2256 1.379 . S
C2257 H2267 0.930 . S
C2258 O2236 1.264 . S
C2258 O2237 1.254 . S
C2259 Eu2195 2.848 . S
C2259 O2234 1.257 . S
C2259 O2239 1.249 . S
C2259 C2252 1.492 . S
H2260 C2243 0.930 . S
H2261 C2244 0.930 . S
H2262 C2245 0.930 . S
H2263 C2246 0.930 . S
H2264 C2253 0.930 . S
H2265 C2255 0.930 . S
H2266 C2256 0.930 . S
H2267 C2257 0.930 . S
Eu2268 N2299 2.657 . S
Eu2268 N2306 2.609 . S
Eu2268 O2312 2.558 . S
Eu2268 O2313 2.612 . S
Eu2268 O2315 2.339 . S
Eu2268 O2316 2.563 . S
Eu2268 O2317 2.419 . S
Eu2268 O2319 2.380 . S
Eu2268 O2320 2.432 . S
Eu2268 C2332 2.848 . S
C2269 C2272 1.429 . S
C2269 C2273 1.411 . S
C2269 N2276 1.377 . S
C2270 C2272 1.420 . S
C2270 C2274 1.423 . S
C2270 C2282 1.392 . S
C2271 C2273 1.420 . S
C2271 C2274 1.351 . S
C2271 H2294 0.931 . S
C2272 C2269 1.429 . S
C2272 C2270 1.420 . S
C2272 N2280 1.362 . S
C2273 C2269 1.411 . S
C2273 C2271 1.420 . S
C2273 C2278 1.395 . S
C2274 C2270 1.423 . S
C2274 C2271 1.351 . S
C2274 H2286 0.930 . S
C2275 C2277 1.400 . S
C2275 C2278 1.386 . S
C2275 H2287 0.930 . S
N2276 C2269 1.377 . S
N2276 C2277 1.321 . S
N2276 Eu2279 2.609 . S
C2277 C2275 1.400 . S
C2277 N2276 1.321 . S
C2277 H2284 0.930 . S
C2278 C2273 1.395 . S
C2278 C2275 1.386 . S
C2278 H2297 0.930 . S
Eu2279 N2276 2.609 . S
Eu2279 N2280 2.657 . S
Eu2279 O2313 2.380 . S
Eu2279 O2314 2.432 . S
Eu2279 O2318 2.558 . S
Eu2279 O2319 2.612 . S
Eu2279 O2321 2.339 . S
Eu2279 O2322 2.563 . S
Eu2279 O2323 2.419 . S
Eu2279 C2343 2.848 . S
N2280 C2272 1.362 . S
N2280 Eu2279 2.657 . S
N2280 C2281 1.334 . S
C2281 N2280 1.334 . S
C2281 C2283 1.413 . S
C2281 H2288 0.929 . S
C2282 C2270 1.392 . S
C2282 C2283 1.367 . S
C2282 H2290 0.930 . S
C2283 C2281 1.413 . S
C2283 C2282 1.367 . S
C2283 H2285 0.930 . S
H2284 C2277 0.930 . S
H2285 C2283 0.930 . S
H2286 C2274 0.930 . S
H2287 C2275 0.930 . S
H2288 C2281 0.929 . S
H2289 C2303 0.930 . S
H2290 C2282 0.930 . S
H2291 C2309 0.930 . S
H2292 C2300 0.929 . S
H2293 C2307 0.930 . S
H2294 C2271 0.931 . S
H2295 C2301 0.930 . S
H2296 C2334 0.930 . S
H2297 C2278 0.930 . S
H2298 C2333 0.931 . S
N2299 Eu2268 2.657 . S
N2299 C2300 1.334 . S
N2299 C2304 1.362 . S
C2300 H2292 0.929 . S
C2300 N2299 1.334 . S
C2300 C2303 1.413 . S
C2301 H2295 0.930 . S
C2301 C2302 1.392 . S
C2301 C2303 1.367 . S
C2302 C2301 1.392 . S
C2302 C2304 1.420 . S
C2302 C2334 1.423 . S
C2303 H2289 0.930 . S
C2303 C2300 1.413 . S
C2303 C2301 1.367 . S
C2304 N2299 1.362 . S
C2304 C2302 1.420 . S
C2304 C2308 1.429 . S
H2305 C2310 0.930 . S
N2306 Eu2268 2.609 . S
N2306 C2308 1.377 . S
N2306 C2309 1.321 . S
C2307 H2293 0.930 . S
C2307 C2309 1.400 . S
C2307 C2310 1.386 . S
C2308 C2304 1.429 . S
C2308 N2306 1.377 . S
C2308 C2311 1.411 . S
C2309 H2291 0.930 . S
C2309 N2306 1.321 . S
C2309 C2307 1.400 . S
C2310 H2305 0.930 . S
C2310 C2307 1.386 . S
C2310 C2311 1.395 . S
C2311 C2308 1.411 . S
C2311 C2310 1.395 . S
C2311 C2333 1.420 . S
O2312 Eu2268 2.558 . S
O2312 C2332 1.257 . S
O2313 Eu2268 2.612 . S
O2313 Eu2279 2.380 . S
O2313 C2324 1.276 . S
O2314 Eu2279 2.432 . S
O2314 C2331 1.264 . S
O2315 Eu2268 2.339 . S
O2315 C2331 1.254 . S
O2316 Eu2268 2.563 . S
O2316 C2324 1.235 . S
O2317 Eu2268 2.419 . S
O2317 C2332 1.249 . S
O2318 Eu2279 2.558 . S
O2318 C2343 1.257 . S
O2319 Eu2268 2.380 . S
O2319 Eu2279 2.612 . S
O2319 C2335 1.276 . S
O2320 Eu2268 2.432 . S
O2320 C2342 1.264 . S
O2321 Eu2279 2.339 . S
O2321 C2342 1.254 . S
O2322 Eu2279 2.563 . S
O2322 C2335 1.235 . S
O2323 Eu2279 2.419 . S
O2323 C2343 1.249 . S
C2324 O2313 1.276 . S
C2324 O2316 1.235 . S
C2325 C2327 1.393 . S
C2325 C2329 1.395 . S
C2325 C2332 1.492 . S
C2326 C2327 1.392 . S
C2326 C2328 1.386 . S
C2327 C2325 1.393 . S
C2327 C2326 1.392 . S
C2327 H2344 0.930 . S
C2328 C2326 1.386 . S
C2328 C2330 1.395 . S
C2328 H2345 0.930 . S
C2329 C2325 1.395 . S
C2329 C2330 1.379 . S
C2329 H2346 0.930 . S
C2330 C2328 1.395 . S
C2330 C2329 1.379 . S
C2330 H2347 0.930 . S
C2331 O2314 1.264 . S
C2331 O2315 1.254 . S
C2332 Eu2268 2.848 . S
C2332 O2312 1.257 . S
C2332 O2317 1.249 . S
C2332 C2325 1.492 . S
C2333 H2298 0.931 . S
C2333 C2311 1.420 . S
C2333 C2334 1.351 . S
C2334 H2296 0.930 . S
C2334 C2302 1.423 . S
C2334 C2333 1.351 . S
C2335 O2319 1.276 . S
C2335 O2322 1.235 . S
C2336 C2337 1.393 . S
C2336 C2340 1.395 . S
C2336 C2343 1.492 . S
C2337 C2336 1.393 . S
C2337 C2338 1.392 . S
C2337 H2348 0.930 . S
C2338 C2337 1.392 . S
C2338 C2339 1.386 . S
C2339 C2338 1.386 . S
C2339 C2341 1.395 . S
C2339 H2349 0.930 . S
C2340 C2336 1.395 . S
C2340 C2341 1.379 . S
C2340 H2350 0.930 . S
C2341 C2339 1.395 . S
C2341 C2340 1.379 . S
C2341 H2351 0.930 . S
C2342 O2320 1.264 . S
C2342 O2321 1.254 . S
C2343 Eu2279 2.848 . S
C2343 O2318 1.257 . S
C2343 O2323 1.249 . S
C2343 C2336 1.492 . S
H2344 C2327 0.930 . S
H2345 C2328 0.930 . S
H2346 C2329 0.930 . S
H2347 C2330 0.930 . S
H2348 C2337 0.930 . S
H2349 C2339 0.930 . S
H2350 C2340 0.930 . S
H2351 C2341 0.930 . S
Eu2352 N2383 2.657 . S
Eu2352 N2390 2.609 . S
Eu2352 O2396 2.558 . S
Eu2352 O2397 2.612 . S
Eu2352 O2399 2.339 . S
Eu2352 O2400 2.563 . S
Eu2352 O2401 2.419 . S
Eu2352 O2403 2.380 . S
Eu2352 O2404 2.432 . S
Eu2352 C2416 2.848 . S
C2353 C2356 1.429 . S
C2353 C2357 1.411 . S
C2353 N2360 1.377 . S
C2354 C2356 1.420 . S
C2354 C2358 1.423 1_455 S
C2354 C2366 1.392 . S
C2355 C2357 1.420 1_655 S
C2355 C2358 1.351 . S
C2355 H2378 0.931 . S
C2356 C2353 1.429 . S
C2356 C2354 1.420 . S
C2356 N2364 1.362 . S
C2357 C2353 1.411 . S
C2357 C2355 1.420 1_455 S
C2357 C2362 1.395 . S
C2358 C2354 1.423 1_655 S
C2358 C2355 1.351 . S
C2358 H2370 0.930 . S
C2359 C2361 1.400 . S
C2359 C2362 1.386 . S
C2359 H2371 0.930 . S
N2360 C2353 1.377 . S
N2360 C2361 1.321 . S
N2360 Eu2363 2.609 . S
C2361 C2359 1.400 . S
C2361 N2360 1.321 . S
C2361 H2368 0.930 . S
C2362 C2357 1.395 . S
C2362 C2359 1.386 . S
C2362 H2381 0.930 . S
Eu2363 N2360 2.609 . S
Eu2363 N2364 2.657 . S
Eu2363 O2397 2.380 . S
Eu2363 O2398 2.432 . S
Eu2363 O2402 2.558 . S
Eu2363 O2403 2.612 . S
Eu2363 O2405 2.339 . S
Eu2363 O2406 2.563 . S
Eu2363 O2407 2.419 . S
Eu2363 C2427 2.838 1_556 S
N2364 C2356 1.362 . S
N2364 Eu2363 2.657 . S
N2364 C2365 1.334 . S
C2365 N2364 1.334 . S
C2365 C2367 1.413 . S
C2365 H2372 0.929 . S
C2366 C2354 1.392 . S
C2366 C2367 1.367 . S
C2366 H2374 0.930 1_455 S
C2367 C2365 1.413 . S
C2367 C2366 1.367 . S
C2367 H2369 0.930 . S
H2368 C2361 0.930 . S
H2369 C2367 0.930 . S
H2370 C2358 0.930 . S
H2371 C2359 0.930 . S
H2372 C2365 0.929 . S
H2373 C2387 0.930 . S
H2374 C2366 0.930 1_655 S
H2375 C2393 0.930 . S
H2376 C2384 0.929 . S
H2377 C2391 0.930 . S
H2378 C2355 0.931 . S
H2379 C2385 0.930 . S
H2380 C2418 0.930 . S
H2381 C2362 0.930 . S
H2382 C2417 0.931 . S
N2383 Eu2352 2.657 . S
N2383 C2384 1.334 . S
N2383 C2388 1.362 . S
C2384 H2376 0.929 . S
C2384 N2383 1.334 . S
C2384 C2387 1.413 . S
C2385 H2379 0.930 . S
C2385 C2386 1.392 . S
C2385 C2387 1.367 . S
C2386 C2385 1.392 . S
C2386 C2388 1.420 . S
C2386 C2418 1.423 . S
C2387 H2373 0.930 . S
C2387 C2384 1.413 . S
C2387 C2385 1.367 . S
C2388 N2383 1.362 . S
C2388 C2386 1.420 . S
C2388 C2392 1.429 . S
H2389 C2394 0.930 . S
N2390 Eu2352 2.609 . S
N2390 C2392 1.377 . S
N2390 C2393 1.321 . S
C2391 H2377 0.930 . S
C2391 C2393 1.400 . S
C2391 C2394 1.386 . S
C2392 C2388 1.429 . S
C2392 N2390 1.377 . S
C2392 C2395 1.411 . S
C2393 H2375 0.930 . S
C2393 N2390 1.321 . S
C2393 C2391 1.400 . S
C2394 H2389 0.930 . S
C2394 C2391 1.386 . S
C2394 C2395 1.395 . S
C2395 C2392 1.411 . S
C2395 C2394 1.395 . S
C2395 C2417 1.420 . S
O2396 Eu2352 2.558 . S
O2396 C2416 1.257 . S
O2397 Eu2352 2.612 . S
O2397 Eu2363 2.380 . S
O2397 C2408 1.276 . S
O2398 Eu2363 2.432 . S
O2398 C2415 1.264 . S
O2399 Eu2352 2.339 . S
O2399 C2415 1.254 . S
O2400 Eu2352 2.563 . S
O2400 C2408 1.235 . S
O2401 Eu2352 2.419 . S
O2401 C2416 1.249 . S
O2402 Eu2363 2.558 . S
O2402 C2427 1.252 1_556 S
O2403 Eu2352 2.380 . S
O2403 Eu2363 2.612 . S
O2403 C2419 1.276 . S
O2404 Eu2352 2.432 . S
O2404 C2426 1.264 . S
O2405 Eu2363 2.339 . S
O2405 C2426 1.254 . S
O2406 Eu2363 2.563 . S
O2406 C2419 1.235 . S
O2407 Eu2363 2.419 . S
O2407 C2427 1.244 1_556 S
C2408 O2397 1.276 . S
C2408 O2400 1.235 . S
C2409 C2411 1.393 . S
C2409 C2413 1.395 . S
C2409 C2416 1.492 . S
C2410 C2411 1.392 . S
C2410 C2412 1.386 . S
C2411 C2409 1.393 . S
C2411 C2410 1.392 . S
C2411 H2428 0.930 . S
C2412 C2410 1.386 . S
C2412 C2414 1.395 . S
C2412 H2429 0.930 . S
C2413 C2409 1.395 . S
C2413 C2414 1.379 . S
C2413 H2430 0.930 . S
C2414 C2412 1.395 . S
C2414 C2413 1.379 . S
C2414 H2431 0.930 . S
C2415 O2398 1.264 . S
C2415 O2399 1.254 . S
C2416 Eu2352 2.848 . S
C2416 O2396 1.257 . S
C2416 O2401 1.249 . S
C2416 C2409 1.492 . S
C2417 H2382 0.931 . S
C2417 C2395 1.420 . S
C2417 C2418 1.351 . S
C2418 H2380 0.930 . S
C2418 C2386 1.423 . S
C2418 C2417 1.351 . S
C2419 O2403 1.276 . S
C2419 O2406 1.235 . S
C2420 C2421 1.393 . S
C2420 C2424 1.395 . S
C2420 C2427 1.502 . S
C2421 C2420 1.393 . S
C2421 C2422 1.392 . S
C2421 H2432 0.930 . S
C2422 C2421 1.392 . S
C2422 C2423 1.386 . S
C2423 C2422 1.386 . S
C2423 C2425 1.395 . S
C2423 H2433 0.930 . S
C2424 C2420 1.395 . S
C2424 C2425 1.379 . S
C2424 H2434 0.930 . S
C2425 C2423 1.395 . S
C2425 C2424 1.379 . S
C2425 H2435 0.930 . S
C2426 O2404 1.264 . S
C2426 O2405 1.254 . S
C2427 Eu2363 2.838 1_554 S
C2427 O2402 1.252 1_554 S
C2427 O2407 1.244 1_554 S
C2427 C2420 1.502 . S
H2428 C2411 0.930 . S
H2429 C2412 0.930 . S
H2430 C2413 0.930 . S
H2431 C2414 0.930 . S
H2432 C2421 0.930 . S
H2433 C2423 0.930 . S
H2434 C2424 0.930 . S
H2435 C2425 0.930 . S
Eu2436 N2467 2.657 . S
Eu2436 N2474 2.609 . S
Eu2436 O2480 2.558 . S
Eu2436 O2481 2.612 . S
Eu2436 O2483 2.339 . S
Eu2436 O2484 2.563 . S
Eu2436 O2485 2.419 . S
Eu2436 O2487 2.380 . S
Eu2436 O2488 2.432 . S
Eu2436 C2500 2.848 . S
C2437 C2440 1.429 . S
C2437 C2441 1.411 . S
C2437 N2444 1.377 . S
C2438 C2440 1.420 . S
C2438 C2442 1.423 . S
C2438 C2450 1.392 . S
C2439 C2441 1.420 . S
C2439 C2442 1.351 . S
C2439 H2462 0.931 . S
C2440 C2437 1.429 . S
C2440 C2438 1.420 . S
C2440 N2448 1.362 . S
C2441 C2437 1.411 . S
C2441 C2439 1.420 . S
C2441 C2446 1.395 . S
C2442 C2438 1.423 . S
C2442 C2439 1.351 . S
C2442 H2454 0.930 . S
C2443 C2445 1.400 . S
C2443 C2446 1.386 . S
C2443 H2455 0.930 . S
N2444 C2437 1.377 . S
N2444 C2445 1.321 . S
N2444 Eu2447 2.609 . S
C2445 C2443 1.400 . S
C2445 N2444 1.321 . S
C2445 H2452 0.930 . S
C2446 C2441 1.395 . S
C2446 C2443 1.386 . S
C2446 H2465 0.930 . S
Eu2447 N2444 2.609 . S
Eu2447 N2448 2.657 . S
Eu2447 O2481 2.380 . S
Eu2447 O2482 2.432 . S
Eu2447 O2486 2.558 . S
Eu2447 O2487 2.612 . S
Eu2447 O2489 2.339 . S
Eu2447 O2490 2.563 . S
Eu2447 O2491 2.419 . S
Eu2447 C2511 2.826 1_556 S
N2448 C2440 1.362 . S
N2448 Eu2447 2.657 . S
N2448 C2449 1.334 . S
C2449 N2448 1.334 . S
C2449 C2451 1.413 . S
C2449 H2456 0.929 . S
C2450 C2438 1.392 . S
C2450 C2451 1.367 . S
C2450 H2458 0.930 . S
C2451 C2449 1.413 . S
C2451 C2450 1.367 . S
C2451 H2453 0.930 . S
H2452 C2445 0.930 . S
H2453 C2451 0.930 . S
H2454 C2442 0.930 . S
H2455 C2443 0.930 . S
H2456 C2449 0.929 . S
H2457 C2471 0.930 . S
H2458 C2450 0.930 . S
H2459 C2477 0.930 . S
H2460 C2468 0.929 . S
H2461 C2475 0.930 . S
H2462 C2439 0.931 . S
H2463 C2469 0.930 . S
H2464 C2502 0.930 . S
H2465 C2446 0.930 . S
H2466 C2501 0.931 . S
N2467 Eu2436 2.657 . S
N2467 C2468 1.334 . S
N2467 C2472 1.362 . S
C2468 H2460 0.929 . S
C2468 N2467 1.334 . S
C2468 C2471 1.413 . S
C2469 H2463 0.930 . S
C2469 C2470 1.392 . S
C2469 C2471 1.367 . S
C2470 C2469 1.392 . S
C2470 C2472 1.420 . S
C2470 C2502 1.423 . S
C2471 H2457 0.930 . S
C2471 C2468 1.413 . S
C2471 C2469 1.367 . S
C2472 N2467 1.362 . S
C2472 C2470 1.420 . S
C2472 C2476 1.429 . S
H2473 C2478 0.930 . S
N2474 Eu2436 2.609 . S
N2474 C2476 1.377 . S
N2474 C2477 1.321 . S
C2475 H2461 0.930 . S
C2475 C2477 1.400 . S
C2475 C2478 1.386 . S
C2476 C2472 1.429 . S
C2476 N2474 1.377 . S
C2476 C2479 1.411 . S
C2477 H2459 0.930 . S
C2477 N2474 1.321 . S
C2477 C2475 1.400 . S
C2478 H2473 0.930 . S
C2478 C2475 1.386 . S
C2478 C2479 1.395 . S
C2479 C2476 1.411 . S
C2479 C2478 1.395 . S
C2479 C2501 1.420 . S
O2480 Eu2436 2.558 . S
O2480 C2500 1.257 . S
O2481 Eu2436 2.612 . S
O2481 Eu2447 2.380 . S
O2481 C2492 1.276 . S
O2482 Eu2447 2.432 . S
O2482 C2499 1.264 . S
O2483 Eu2436 2.339 . S
O2483 C2499 1.254 . S
O2484 Eu2436 2.563 . S
O2484 C2492 1.235 . S
O2485 Eu2436 2.419 . S
O2485 C2500 1.249 . S
O2486 Eu2447 2.558 . S
O2486 C2511 1.247 1_556 S
O2487 Eu2436 2.380 . S
O2487 Eu2447 2.612 . S
O2487 C2503 1.276 . S
O2488 Eu2436 2.432 . S
O2488 C2510 1.264 . S
O2489 Eu2447 2.339 . S
O2489 C2510 1.254 . S
O2490 Eu2447 2.563 . S
O2490 C2503 1.235 . S
O2491 Eu2447 2.419 . S
O2491 C2511 1.238 1_556 S
C2492 O2481 1.276 . S
C2492 O2484 1.235 . S
C2493 C2495 1.393 . S
C2493 C2497 1.395 . S
C2493 C2500 1.492 . S
C2494 C2495 1.392 . S
C2494 C2496 1.386 . S
C2495 C2493 1.393 . S
C2495 C2494 1.392 . S
C2495 H2512 0.930 . S
C2496 C2494 1.386 . S
C2496 C2498 1.395 . S
C2496 H2513 0.930 . S
C2497 C2493 1.395 . S
C2497 C2498 1.379 . S
C2497 H2514 0.930 . S
C2498 C2496 1.395 . S
C2498 C2497 1.379 . S
C2498 H2515 0.930 . S
C2499 O2482 1.264 . S
C2499 O2483 1.254 . S
C2500 Eu2436 2.848 . S
C2500 O2480 1.257 . S
C2500 O2485 1.249 . S
C2500 C2493 1.492 . S
C2501 H2466 0.931 . S
C2501 C2479 1.420 . S
C2501 C2502 1.351 . S
C2502 H2464 0.930 . S
C2502 C2470 1.423 . S
C2502 C2501 1.351 . S
C2503 O2487 1.276 . S
C2503 O2490 1.235 . S
C2504 C2505 1.393 . S
C2504 C2508 1.395 . S
C2504 C2511 1.514 . S
C2505 C2504 1.393 . S
C2505 C2506 1.392 . S
C2505 H2516 0.930 . S
C2506 C2505 1.392 . S
C2506 C2507 1.386 . S
C2507 C2506 1.386 . S
C2507 C2509 1.395 . S
C2507 H2517 0.930 . S
C2508 C2504 1.395 . S
C2508 C2509 1.379 . S
C2508 H2518 0.930 . S
C2509 C2507 1.395 . S
C2509 C2508 1.379 . S
C2509 H2519 0.930 . S
C2510 O2488 1.264 . S
C2510 O2489 1.254 . S
C2511 Eu2447 2.826 1_554 S
C2511 O2486 1.247 1_554 S
C2511 O2491 1.238 1_554 S
C2511 C2504 1.514 . S
H2512 C2495 0.930 . S
H2513 C2496 0.930 . S
H2514 C2497 0.930 . S
H2515 C2498 0.930 . S
H2516 C2505 0.930 . S
H2517 C2507 0.930 . S
H2518 C2508 0.930 . S
H2519 C2509 0.930 . S
Eu2520 N2551 2.657 . S
Eu2520 N2558 2.609 . S
Eu2520 O2564 2.558 . S
Eu2520 O2565 2.612 . S
Eu2520 O2567 2.339 . S
Eu2520 O2568 2.563 . S
Eu2520 O2569 2.419 . S
Eu2520 O2571 2.380 . S
Eu2520 O2572 2.432 . S
Eu2520 C2584 2.848 . S
C2521 C2524 1.429 . S
C2521 C2525 1.411 . S
C2521 N2528 1.377 . S
C2522 C2524 1.420 . S
C2522 C2526 1.423 1_455 S
C2522 C2534 1.392 . S
C2523 C2525 1.420 1_655 S
C2523 C2526 1.351 . S
C2523 H2546 0.931 . S
C2524 C2521 1.429 . S
C2524 C2522 1.420 . S
C2524 N2532 1.362 . S
C2525 C2521 1.411 . S
C2525 C2523 1.420 1_455 S
C2525 C2530 1.395 . S
C2526 C2522 1.423 1_655 S
C2526 C2523 1.351 . S
C2526 H2538 0.930 . S
C2527 C2529 1.400 . S
C2527 C2530 1.386 . S
C2527 H2539 0.930 . S
N2528 C2521 1.377 . S
N2528 C2529 1.321 . S
N2528 Eu2531 2.609 . S
C2529 C2527 1.400 . S
C2529 N2528 1.321 . S
C2529 H2536 0.930 . S
C2530 C2525 1.395 . S
C2530 C2527 1.386 . S
C2530 H2549 0.930 . S
Eu2531 N2528 2.609 . S
Eu2531 N2532 2.657 . S
Eu2531 O2565 2.380 . S
Eu2531 O2566 2.432 . S
Eu2531 O2570 2.558 . S
Eu2531 O2571 2.612 . S
Eu2531 O2573 2.339 . S
Eu2531 O2574 2.563 . S
Eu2531 O2575 2.419 . S
Eu2531 C2595 2.848 . S
N2532 C2524 1.362 . S
N2532 Eu2531 2.657 . S
N2532 C2533 1.334 . S
C2533 N2532 1.334 . S
C2533 C2535 1.413 . S
C2533 H2540 0.929 . S
C2534 C2522 1.392 . S
C2534 C2535 1.367 . S
C2534 H2542 0.930 1_455 S
C2535 C2533 1.413 . S
C2535 C2534 1.367 . S
C2535 H2537 0.930 . S
H2536 C2529 0.930 . S
H2537 C2535 0.930 . S
H2538 C2526 0.930 . S
H2539 C2527 0.930 . S
H2540 C2533 0.929 . S
H2541 C2555 0.930 . S
H2542 C2534 0.930 1_655 S
H2543 C2561 0.930 . S
H2544 C2552 0.929 . S
H2545 C2559 0.930 . S
H2546 C2523 0.931 . S
H2547 C2553 0.930 . S
H2548 C2586 0.930 . S
H2549 C2530 0.930 . S
H2550 C2585 0.931 . S
N2551 Eu2520 2.657 . S
N2551 C2552 1.334 . S
N2551 C2556 1.362 . S
C2552 H2544 0.929 . S
C2552 N2551 1.334 . S
C2552 C2555 1.413 . S
C2553 H2547 0.930 . S
C2553 C2554 1.392 . S
C2553 C2555 1.367 . S
C2554 C2553 1.392 . S
C2554 C2556 1.420 . S
C2554 C2586 1.423 . S
C2555 H2541 0.930 . S
C2555 C2552 1.413 . S
C2555 C2553 1.367 . S
C2556 N2551 1.362 . S
C2556 C2554 1.420 . S
C2556 C2560 1.429 . S
H2557 C2562 0.930 . S
N2558 Eu2520 2.609 . S
N2558 C2560 1.377 . S
N2558 C2561 1.321 . S
C2559 H2545 0.930 . S
C2559 C2561 1.400 . S
C2559 C2562 1.386 . S
C2560 C2556 1.429 . S
C2560 N2558 1.377 . S
C2560 C2563 1.411 . S
C2561 H2543 0.930 . S
C2561 N2558 1.321 . S
C2561 C2559 1.400 . S
C2562 H2557 0.930 . S
C2562 C2559 1.386 . S
C2562 C2563 1.395 . S
C2563 C2560 1.411 . S
C2563 C2562 1.395 . S
C2563 C2585 1.420 . S
O2564 Eu2520 2.558 . S
O2564 C2584 1.257 . S
O2565 Eu2520 2.612 . S
O2565 Eu2531 2.380 . S
O2565 C2576 1.276 . S
O2566 Eu2531 2.432 . S
O2566 C2583 1.264 . S
O2567 Eu2520 2.339 . S
O2567 C2583 1.254 . S
O2568 Eu2520 2.563 . S
O2568 C2576 1.235 . S
O2569 Eu2520 2.419 . S
O2569 C2584 1.249 . S
O2570 Eu2531 2.558 . S
O2570 C2595 1.257 . S
O2571 Eu2520 2.380 . S
O2571 Eu2531 2.612 . S
O2571 C2587 1.276 . S
O2572 Eu2520 2.432 . S
O2572 C2594 1.264 . S
O2573 Eu2531 2.339 . S
O2573 C2594 1.254 . S
O2574 Eu2531 2.563 . S
O2574 C2587 1.235 . S
O2575 Eu2531 2.419 . S
O2575 C2595 1.249 . S
C2576 O2565 1.276 . S
C2576 O2568 1.235 . S
C2577 C2579 1.393 . S
C2577 C2581 1.395 . S
C2577 C2584 1.492 . S
C2578 C2579 1.392 . S
C2578 C2580 1.386 . S
C2579 C2577 1.393 . S
C2579 C2578 1.392 . S
C2579 H2596 0.930 . S
C2580 C2578 1.386 . S
C2580 C2582 1.395 . S
C2580 H2597 0.930 . S
C2581 C2577 1.395 . S
C2581 C2582 1.379 . S
C2581 H2598 0.930 . S
C2582 C2580 1.395 . S
C2582 C2581 1.379 . S
C2582 H2599 0.930 . S
C2583 O2566 1.264 . S
C2583 O2567 1.254 . S
C2584 Eu2520 2.848 . S
C2584 O2564 1.257 . S
C2584 O2569 1.249 . S
C2584 C2577 1.492 . S
C2585 H2550 0.931 . S
C2585 C2563 1.420 . S
C2585 C2586 1.351 . S
C2586 H2548 0.930 . S
C2586 C2554 1.423 . S
C2586 C2585 1.351 . S
C2587 O2571 1.276 . S
C2587 O2574 1.235 . S
C2588 C2589 1.393 . S
C2588 C2592 1.395 . S
C2588 C2595 1.492 . S
C2589 C2588 1.393 . S
C2589 C2590 1.392 . S
C2589 H2600 0.930 . S
C2590 C2589 1.392 . S
C2590 C2591 1.386 . S
C2591 C2590 1.386 . S
C2591 C2593 1.395 . S
C2591 H2601 0.930 . S
C2592 C2588 1.395 . S
C2592 C2593 1.379 . S
C2592 H2602 0.930 . S
C2593 C2591 1.395 . S
C2593 C2592 1.379 . S
C2593 H2603 0.930 . S
C2594 O2572 1.264 . S
C2594 O2573 1.254 . S
C2595 Eu2531 2.848 . S
C2595 O2570 1.257 . S
C2595 O2575 1.249 . S
C2595 C2588 1.492 . S
H2596 C2579 0.930 . S
H2597 C2580 0.930 . S
H2598 C2581 0.930 . S
H2599 C2582 0.930 . S
H2600 C2589 0.930 . S
H2601 C2591 0.930 . S
H2602 C2592 0.930 . S
H2603 C2593 0.930 . S
Eu2604 N2635 2.657 . S
Eu2604 N2642 2.609 . S
Eu2604 O2648 2.558 . S
Eu2604 O2649 2.612 . S
Eu2604 O2651 2.339 . S
Eu2604 O2652 2.563 . S
Eu2604 O2653 2.419 . S
Eu2604 O2655 2.380 . S
Eu2604 O2656 2.432 . S
Eu2604 C2668 2.848 . S
C2605 C2608 1.429 . S
C2605 C2609 1.411 . S
C2605 N2612 1.377 . S
C2606 C2608 1.420 . S
C2606 C2610 1.423 . S
C2606 C2618 1.392 . S
C2607 C2609 1.420 . S
C2607 C2610 1.351 . S
C2607 H2630 0.931 . S
C2608 C2605 1.429 . S
C2608 C2606 1.420 . S
C2608 N2616 1.362 . S
C2609 C2605 1.411 . S
C2609 C2607 1.420 . S
C2609 C2614 1.395 . S
C2610 C2606 1.423 . S
C2610 C2607 1.351 . S
C2610 H2622 0.930 . S
C2611 C2613 1.400 . S
C2611 C2614 1.386 . S
C2611 H2623 0.930 . S
N2612 C2605 1.377 . S
N2612 C2613 1.321 . S
N2612 Eu2615 2.609 . S
C2613 C2611 1.400 . S
C2613 N2612 1.321 . S
C2613 H2620 0.930 . S
C2614 C2609 1.395 . S
C2614 C2611 1.386 . S
C2614 H2633 0.930 . S
Eu2615 N2612 2.609 . S
Eu2615 N2616 2.657 . S
Eu2615 O2649 2.380 . S
Eu2615 O2650 2.432 . S
Eu2615 O2654 2.558 . S
Eu2615 O2655 2.612 . S
Eu2615 O2657 2.339 . S
Eu2615 O2658 2.563 . S
Eu2615 O2659 2.419 . S
Eu2615 C2679 2.848 . S
N2616 C2608 1.362 . S
N2616 Eu2615 2.657 . S
N2616 C2617 1.334 . S
C2617 N2616 1.334 . S
C2617 C2619 1.413 . S
C2617 H2624 0.929 . S
C2618 C2606 1.392 . S
C2618 C2619 1.367 . S
C2618 H2626 0.930 . S
C2619 C2617 1.413 . S
C2619 C2618 1.367 . S
C2619 H2621 0.930 . S
H2620 C2613 0.930 . S
H2621 C2619 0.930 . S
H2622 C2610 0.930 . S
H2623 C2611 0.930 . S
H2624 C2617 0.929 . S
H2625 C2639 0.930 . S
H2626 C2618 0.930 . S
H2627 C2645 0.930 . S
H2628 C2636 0.929 . S
H2629 C2643 0.930 . S
H2630 C2607 0.931 . S
H2631 C2637 0.930 . S
H2632 C2670 0.930 . S
H2633 C2614 0.930 . S
H2634 C2669 0.931 . S
N2635 Eu2604 2.657 . S
N2635 C2636 1.334 . S
N2635 C2640 1.362 . S
C2636 H2628 0.929 . S
C2636 N2635 1.334 . S
C2636 C2639 1.413 . S
C2637 H2631 0.930 . S
C2637 C2638 1.392 . S
C2637 C2639 1.367 . S
C2638 C2637 1.392 . S
C2638 C2640 1.420 . S
C2638 C2670 1.423 . S
C2639 H2625 0.930 . S
C2639 C2636 1.413 . S
C2639 C2637 1.367 . S
C2640 N2635 1.362 . S
C2640 C2638 1.420 . S
C2640 C2644 1.429 . S
H2641 C2646 0.930 . S
N2642 Eu2604 2.609 . S
N2642 C2644 1.377 . S
N2642 C2645 1.321 . S
C2643 H2629 0.930 . S
C2643 C2645 1.400 . S
C2643 C2646 1.386 . S
C2644 C2640 1.429 . S
C2644 N2642 1.377 . S
C2644 C2647 1.411 . S
C2645 H2627 0.930 . S
C2645 N2642 1.321 . S
C2645 C2643 1.400 . S
C2646 H2641 0.930 . S
C2646 C2643 1.386 . S
C2646 C2647 1.395 . S
C2647 C2644 1.411 . S
C2647 C2646 1.395 . S
C2647 C2669 1.420 . S
O2648 Eu2604 2.558 . S
O2648 C2668 1.257 . S
O2649 Eu2604 2.612 . S
O2649 Eu2615 2.380 . S
O2649 C2660 1.276 . S
O2650 Eu2615 2.432 . S
O2650 C2667 1.264 . S
O2651 Eu2604 2.339 . S
O2651 C2667 1.254 . S
O2652 Eu2604 2.563 . S
O2652 C2660 1.235 . S
O2653 Eu2604 2.419 . S
O2653 C2668 1.249 . S
O2654 Eu2615 2.558 . S
O2654 C2679 1.257 . S
O2655 Eu2604 2.380 . S
O2655 Eu2615 2.612 . S
O2655 C2671 1.276 . S
O2656 Eu2604 2.432 . S
O2656 C2678 1.264 . S
O2657 Eu2615 2.339 . S
O2657 C2678 1.254 . S
O2658 Eu2615 2.563 . S
O2658 C2671 1.235 . S
O2659 Eu2615 2.419 . S
O2659 C2679 1.249 . S
C2660 O2649 1.276 . S
C2660 O2652 1.235 . S
C2661 C2663 1.393 . S
C2661 C2665 1.395 . S
C2661 C2668 1.492 . S
C2662 C2663 1.392 . S
C2662 C2664 1.386 . S
C2663 C2661 1.393 . S
C2663 C2662 1.392 . S
C2663 H2680 0.930 . S
C2664 C2662 1.386 . S
C2664 C2666 1.395 . S
C2664 H2681 0.930 . S
C2665 C2661 1.395 . S
C2665 C2666 1.379 . S
C2665 H2682 0.930 . S
C2666 C2664 1.395 . S
C2666 C2665 1.379 . S
C2666 H2683 0.930 . S
C2667 O2650 1.264 . S
C2667 O2651 1.254 . S
C2668 Eu2604 2.848 . S
C2668 O2648 1.257 . S
C2668 O2653 1.249 . S
C2668 C2661 1.492 . S
C2669 H2634 0.931 . S
C2669 C2647 1.420 . S
C2669 C2670 1.351 . S
C2670 H2632 0.930 . S
C2670 C2638 1.423 . S
C2670 C2669 1.351 . S
C2671 O2655 1.276 . S
C2671 O2658 1.235 . S
C2672 C2673 1.393 . S
C2672 C2676 1.395 . S
C2672 C2679 1.492 . S
C2673 C2672 1.393 . S
C2673 C2674 1.392 . S
C2673 H2684 0.930 . S
C2674 C2673 1.392 . S
C2674 C2675 1.386 . S
C2675 C2674 1.386 . S
C2675 C2677 1.395 . S
C2675 H2685 0.930 . S
C2676 C2672 1.395 . S
C2676 C2677 1.379 . S
C2676 H2686 0.930 . S
C2677 C2675 1.395 . S
C2677 C2676 1.379 . S
C2677 H2687 0.930 . S
C2678 O2656 1.264 . S
C2678 O2657 1.254 . S
C2679 Eu2615 2.848 . S
C2679 O2654 1.257 . S
C2679 O2659 1.249 . S
C2679 C2672 1.492 . S
H2680 C2663 0.930 . S
H2681 C2664 0.930 . S
H2682 C2665 0.930 . S
H2683 C2666 0.930 . S
H2684 C2673 0.930 . S
H2685 C2675 0.930 . S
H2686 C2676 0.930 . S
H2687 C2677 0.930 . S
H2688 C2696 0.950 . S
H2689 C2701 0.950 . S
H2690 C2698 0.950 . S
H2691 C2700 0.950 . S
H2692 C2702 0.950 . S
H2693 C2704 0.950 . S
H2694 C2706 0.950 . S
H2695 C2707 0.950 . S
C2696 H2688 0.950 . S
C2696 C2697 1.386 . S
C2696 C2698 1.391 . S
C2697 C2696 1.386 . S
C2697 C2701 1.393 . S
C2698 H2690 0.950 . S
C2698 C2696 1.391 . S
C2698 C2699 1.400 . S
C2699 C2698 1.400 . S
C2699 C2700 1.398 . S
C2699 C2705 1.491 . S
C2700 H2691 0.950 . S
C2700 C2699 1.398 . S
C2700 C2701 1.391 . S
C2701 H2689 0.950 . S
C2701 C2697 1.393 . S
C2701 C2700 1.391 . S
C2702 H2692 0.950 . S
C2702 C2703 1.386 . S
C2702 C2704 1.391 . S
C2703 C2702 1.386 . S
C2703 C2707 1.393 . S
C2704 H2693 0.950 . S
C2704 C2702 1.391 . S
C2704 C2705 1.400 . S
C2705 C2699 1.491 . S
C2705 C2704 1.400 . S
C2705 C2706 1.398 . S
C2706 H2694 0.950 . S
C2706 C2705 1.398 . S
C2706 C2707 1.391 . S
C2707 H2695 0.950 . S
C2707 C2703 1.393 . S
C2707 C2706 1.391 . S
H2708 C2716 0.950 . S
H2709 C2721 0.950 . S
H2710 C2718 0.950 . S
H2711 C2720 0.950 . S
H2712 C2722 0.950 . S
H2713 C2724 0.950 . S
H2714 C2726 0.950 . S
H2715 C2727 0.950 . S
C2716 H2708 0.950 . S
C2716 C2717 1.386 . S
C2716 C2718 1.391 . S
C2717 C2716 1.386 . S
C2717 C2721 1.393 . S
C2718 H2710 0.950 . S
C2718 C2716 1.391 . S
C2718 C2719 1.400 . S
C2719 C2718 1.400 . S
C2719 C2720 1.398 . S
C2719 C2725 1.491 . S
C2720 H2711 0.950 . S
C2720 C2719 1.398 . S
C2720 C2721 1.391 . S
C2721 H2709 0.950 . S
C2721 C2717 1.393 . S
C2721 C2720 1.391 . S
C2722 H2712 0.950 . S
C2722 C2723 1.386 . S
C2722 C2724 1.391 . S
C2723 C2722 1.386 . S
C2723 C2727 1.393 . S
C2724 H2713 0.950 . S
C2724 C2722 1.391 . S
C2724 C2725 1.400 . S
C2725 C2719 1.491 . S
C2725 C2724 1.400 . S
C2725 C2726 1.398 . S
C2726 H2714 0.950 . S
C2726 C2725 1.398 . S
C2726 C2727 1.391 . S
C2727 H2715 0.950 . S
C2727 C2723 1.393 . S
C2727 C2726 1.391 . S
H2728 C2736 0.950 . S
H2729 C2741 0.950 . S
H2730 C2738 0.950 . S
H2731 C2740 0.950 . S
H2732 C2742 0.950 . S
H2733 C2744 0.950 . S
H2734 C2746 0.950 . S
H2735 C2747 0.950 . S
C2736 H2728 0.950 . S
C2736 C2737 1.386 . S
C2736 C2738 1.391 . S
C2737 C2736 1.386 . S
C2737 C2741 1.393 . S
C2738 H2730 0.950 . S
C2738 C2736 1.391 . S
C2738 C2739 1.400 . S
C2739 C2738 1.400 . S
C2739 C2740 1.398 . S
C2739 C2745 1.491 . S
C2740 H2731 0.950 . S
C2740 C2739 1.398 . S
C2740 C2741 1.391 . S
C2741 H2729 0.950 . S
C2741 C2737 1.393 . S
C2741 C2740 1.391 . S
C2742 H2732 0.950 . S
C2742 C2743 1.386 . S
C2742 C2744 1.391 . S
C2743 C2742 1.386 . S
C2743 C2747 1.393 . S
C2744 H2733 0.950 . S
C2744 C2742 1.391 . S
C2744 C2745 1.400 . S
C2745 C2739 1.491 . S
C2745 C2744 1.400 . S
C2745 C2746 1.398 . S
C2746 H2734 0.950 . S
C2746 C2745 1.398 . S
C2746 C2747 1.391 . S
C2747 H2735 0.950 . S
C2747 C2743 1.393 . S
C2747 C2746 1.391 . S
H2748 C2756 0.950 . S
H2749 C2761 0.950 . S
H2750 C2758 0.950 . S
H2751 C2760 0.950 . S
H2752 C2762 0.950 . S
H2753 C2764 0.950 . S
H2754 C2766 0.950 . S
H2755 C2767 0.950 . S
C2756 H2748 0.950 . S
C2756 C2757 1.386 . S
C2756 C2758 1.391 . S
C2757 C2756 1.386 . S
C2757 C2761 1.393 . S
C2758 H2750 0.950 . S
C2758 C2756 1.391 . S
C2758 C2759 1.400 . S
C2759 C2758 1.400 . S
C2759 C2760 1.398 . S
C2759 C2765 1.491 . S
C2760 H2751 0.950 . S
C2760 C2759 1.398 . S
C2760 C2761 1.391 . S
C2761 H2749 0.950 . S
C2761 C2757 1.393 . S
C2761 C2760 1.391 . S
C2762 H2752 0.950 . S
C2762 C2763 1.386 . S
C2762 C2764 1.391 . S
C2763 C2762 1.386 . S
C2763 C2767 1.393 . S
C2764 H2753 0.950 . S
C2764 C2762 1.391 . S
C2764 C2765 1.400 . S
C2765 C2759 1.491 . S
C2765 C2764 1.400 . S
C2765 C2766 1.398 . S
C2766 H2754 0.950 . S
C2766 C2765 1.398 . S
C2766 C2767 1.391 . S
C2767 H2755 0.950 . S
C2767 C2763 1.393 . S
C2767 C2766 1.391 . S
H2768 C2776 0.950 . S
H2769 C2781 0.950 . S
H2770 C2778 0.950 . S
H2771 C2780 0.950 . S
H2772 C2782 0.950 . S
H2773 C2784 0.950 . S
H2774 C2786 0.950 . S
H2775 C2787 0.950 . S
C2776 H2768 0.950 . S
C2776 C2777 1.386 . S
C2776 C2778 1.391 . S
C2777 C2776 1.386 . S
C2777 C2781 1.393 . S
C2778 H2770 0.950 . S
C2778 C2776 1.391 . S
C2778 C2779 1.400 . S
C2779 C2778 1.400 . S
C2779 C2780 1.398 . S
C2779 C2785 1.491 . S
C2780 H2771 0.950 . S
C2780 C2779 1.398 . S
C2780 C2781 1.391 . S
C2781 H2769 0.950 . S
C2781 C2777 1.393 . S
C2781 C2780 1.391 . S
C2782 H2772 0.950 . S
C2782 C2783 1.386 . S
C2782 C2784 1.391 . S
C2783 C2782 1.386 . S
C2783 C2787 1.393 . S
C2784 H2773 0.950 . S
C2784 C2782 1.391 . S
C2784 C2785 1.400 . S
C2785 C2779 1.491 . S
C2785 C2784 1.400 . S
C2785 C2786 1.398 . S
C2786 H2774 0.950 . S
C2786 C2785 1.398 . S
C2786 C2787 1.391 . S
C2787 H2775 0.950 . S
C2787 C2783 1.393 . S
C2787 C2786 1.391 . S
H2788 C2796 0.950 . S
H2789 C2801 0.950 . S
H2790 C2798 0.950 . S
H2791 C2800 0.950 . S
H2792 C2802 0.950 . S
H2793 C2804 0.950 . S
H2794 C2806 0.950 . S
H2795 C2807 0.950 . S
C2796 H2788 0.950 . S
C2796 C2797 1.386 . S
C2796 C2798 1.391 . S
C2797 C2796 1.386 . S
C2797 C2801 1.393 . S
C2798 H2790 0.950 . S
C2798 C2796 1.391 . S
C2798 C2799 1.400 . S
C2799 C2798 1.400 . S
C2799 C2800 1.398 . S
C2799 C2805 1.491 . S
C2800 H2791 0.950 . S
C2800 C2799 1.398 . S
C2800 C2801 1.391 . S
C2801 H2789 0.950 . S
C2801 C2797 1.393 . S
C2801 C2800 1.391 . S
C2802 H2792 0.950 . S
C2802 C2803 1.386 . S
C2802 C2804 1.391 . S
C2803 C2802 1.386 . S
C2803 C2807 1.393 . S
C2804 H2793 0.950 . S
C2804 C2802 1.391 . S
C2804 C2805 1.400 . S
C2805 C2799 1.491 . S
C2805 C2804 1.400 . S
C2805 C2806 1.398 . S
C2806 H2794 0.950 . S
C2806 C2805 1.398 . S
C2806 C2807 1.391 . S
C2807 H2795 0.950 . S
C2807 C2803 1.393 . S
C2807 C2806 1.391 . S
H2808 C2816 0.950 . S
H2809 C2821 0.950 . S
H2810 C2818 0.950 . S
H2811 C2820 0.950 . S
H2812 C2822 0.950 . S
H2813 C2824 0.950 . S
H2814 C2826 0.950 . S
H2815 C2827 0.950 . S
C2816 H2808 0.950 . S
C2816 C2817 1.386 . S
C2816 C2818 1.391 . S
C2817 C2816 1.386 . S
C2817 C2821 1.393 . S
C2818 H2810 0.950 . S
C2818 C2816 1.391 . S
C2818 C2819 1.400 . S
C2819 C2818 1.400 . S
C2819 C2820 1.398 . S
C2819 C2825 1.491 . S
C2820 H2811 0.950 . S
C2820 C2819 1.398 . S
C2820 C2821 1.391 . S
C2821 H2809 0.950 . S
C2821 C2817 1.393 . S
C2821 C2820 1.391 . S
C2822 H2812 0.950 . S
C2822 C2823 1.386 . S
C2822 C2824 1.391 . S
C2823 C2822 1.386 . S
C2823 C2827 1.393 . S
C2824 H2813 0.950 . S
C2824 C2822 1.391 . S
C2824 C2825 1.400 . S
C2825 C2819 1.491 . S
C2825 C2824 1.400 . S
C2825 C2826 1.398 . S
C2826 H2814 0.950 . S
C2826 C2825 1.398 . S
C2826 C2827 1.391 . S
C2827 H2815 0.950 . S
C2827 C2823 1.393 . S
C2827 C2826 1.391 . S
H2828 C2836 0.950 . S
H2829 C2841 0.950 . S
H2830 C2838 0.950 . S
H2831 C2840 0.950 . S
H2832 C2842 0.950 . S
H2833 C2844 0.950 . S
H2834 C2846 0.950 . S
H2835 C2847 0.950 . S
C2836 H2828 0.950 . S
C2836 C2837 1.386 . S
C2836 C2838 1.391 . S
C2837 C2836 1.386 . S
C2837 C2841 1.393 . S
C2838 H2830 0.950 . S
C2838 C2836 1.391 . S
C2838 C2839 1.400 . S
C2839 C2838 1.400 . S
C2839 C2840 1.398 . S
C2839 C2845 1.491 . S
C2840 H2831 0.950 . S
C2840 C2839 1.398 . S
C2840 C2841 1.391 . S
C2841 H2829 0.950 . S
C2841 C2837 1.393 . S
C2841 C2840 1.391 . S
C2842 H2832 0.950 . S
C2842 C2843 1.386 . S
C2842 C2844 1.391 . S
C2843 C2842 1.386 . S
C2843 C2847 1.393 . S
C2844 H2833 0.950 . S
C2844 C2842 1.391 . S
C2844 C2845 1.400 . S
C2845 C2839 1.491 . S
C2845 C2844 1.400 . S
C2845 C2846 1.398 . S
C2846 H2834 0.950 . S
C2846 C2845 1.398 . S
C2846 C2847 1.391 . S
C2847 H2835 0.950 . S
C2847 C2843 1.393 . S
C2847 C2846 1.391 . S
H2848 C2856 0.950 . S
H2849 C2861 0.950 . S
H2850 C2858 0.950 . S
H2851 C2860 0.950 . S
H2852 C2862 0.950 . S
H2853 C2864 0.950 . S
H2854 C2866 0.950 . S
H2855 C2867 0.950 . S
C2856 H2848 0.950 . S
C2856 C2857 1.386 . S
C2856 C2858 1.391 . S
C2857 C2856 1.386 . S
C2857 C2861 1.393 . S
C2858 H2850 0.950 . S
C2858 C2856 1.391 . S
C2858 C2859 1.400 . S
C2859 C2858 1.400 . S
C2859 C2860 1.398 . S
C2859 C2865 1.491 . S
C2860 H2851 0.950 . S
C2860 C2859 1.398 . S
C2860 C2861 1.391 . S
C2861 H2849 0.950 . S
C2861 C2857 1.393 . S
C2861 C2860 1.391 . S
C2862 H2852 0.950 . S
C2862 C2863 1.386 . S
C2862 C2864 1.391 . S
C2863 C2862 1.386 . S
C2863 C2867 1.393 . S
C2864 H2853 0.950 . S
C2864 C2862 1.391 . S
C2864 C2865 1.400 . S
C2865 C2859 1.491 . S
C2865 C2864 1.400 . S
C2865 C2866 1.398 . S
C2866 H2854 0.950 . S
C2866 C2865 1.398 . S
C2866 C2867 1.391 . S
C2867 H2855 0.950 . S
C2867 C2863 1.393 . S
C2867 C2866 1.391 . S
H2868 C2876 0.950 . S
H2869 C2881 0.950 . S
H2870 C2878 0.950 . S
H2871 C2880 0.950 . S
H2872 C2882 0.950 . S
H2873 C2884 0.950 . S
H2874 C2886 0.950 . S
H2875 C2887 0.950 . S
C2876 H2868 0.950 . S
C2876 C2877 1.386 . S
C2876 C2878 1.391 . S
C2877 C2876 1.386 . S
C2877 C2881 1.393 . S
C2878 H2870 0.950 . S
C2878 C2876 1.391 . S
C2878 C2879 1.400 . S
C2879 C2878 1.400 . S
C2879 C2880 1.398 . S
C2879 C2885 1.491 . S
C2880 H2871 0.950 . S
C2880 C2879 1.398 . S
C2880 C2881 1.391 . S
C2881 H2869 0.950 . S
C2881 C2877 1.393 . S
C2881 C2880 1.391 . S
C2882 H2872 0.950 . S
C2882 C2883 1.386 . S
C2882 C2884 1.391 . S
C2883 C2882 1.386 . S
C2883 C2887 1.393 . S
C2884 H2873 0.950 . S
C2884 C2882 1.391 . S
C2884 C2885 1.400 . S
C2885 C2879 1.491 . S
C2885 C2884 1.400 . S
C2885 C2886 1.398 . S
C2886 H2874 0.950 . S
C2886 C2885 1.398 . S
C2886 C2887 1.391 . S
C2887 H2875 0.950 . S
C2887 C2883 1.393 . S
C2887 C2886 1.391 . S
H2888 C2896 0.950 . S
H2889 C2901 0.950 . S
H2890 C2898 0.950 . S
H2891 C2900 0.950 . S
H2892 C2902 0.950 . S
H2893 C2904 0.950 . S
H2894 C2906 0.950 . S
H2895 C2907 0.950 . S
C2896 H2888 0.950 . S
C2896 C2897 1.386 . S
C2896 C2898 1.391 . S
C2897 C2896 1.386 . S
C2897 C2901 1.393 . S
C2898 H2890 0.950 . S
C2898 C2896 1.391 . S
C2898 C2899 1.400 . S
C2899 C2898 1.400 . S
C2899 C2900 1.398 . S
C2899 C2905 1.491 . S
C2900 H2891 0.950 . S
C2900 C2899 1.398 . S
C2900 C2901 1.391 . S
C2901 H2889 0.950 . S
C2901 C2897 1.393 . S
C2901 C2900 1.391 . S
C2902 H2892 0.950 . S
C2902 C2903 1.386 . S
C2902 C2904 1.391 . S
C2903 C2902 1.386 . S
C2903 C2907 1.393 . S
C2904 H2893 0.950 . S
C2904 C2902 1.391 . S
C2904 C2905 1.400 . S
C2905 C2899 1.491 . S
C2905 C2904 1.400 . S
C2905 C2906 1.398 . S
C2906 H2894 0.950 . S
C2906 C2905 1.398 . S
C2906 C2907 1.391 . S
C2907 H2895 0.950 . S
C2907 C2903 1.393 . S
C2907 C2906 1.391 . S
H2908 C2916 0.950 . S
H2909 C2921 0.950 . S
H2910 C2918 0.950 . S
H2911 C2920 0.950 . S
H2912 C2922 0.950 . S
H2913 C2924 0.950 . S
H2914 C2926 0.950 . S
H2915 C2927 0.950 . S
C2916 H2908 0.950 . S
C2916 C2917 1.386 . S
C2916 C2918 1.391 . S
C2917 C2916 1.386 . S
C2917 C2921 1.393 . S
C2918 H2910 0.950 . S
C2918 C2916 1.391 . S
C2918 C2919 1.400 . S
C2919 C2918 1.400 . S
C2919 C2920 1.398 . S
C2919 C2925 1.491 . S
C2920 H2911 0.950 . S
C2920 C2919 1.398 . S
C2920 C2921 1.391 . S
C2921 H2909 0.950 . S
C2921 C2917 1.393 . S
C2921 C2920 1.391 . S
C2922 H2912 0.950 . S
C2922 C2923 1.386 . S
C2922 C2924 1.391 . S
C2923 C2922 1.386 . S
C2923 C2927 1.393 . S
C2924 H2913 0.950 . S
C2924 C2922 1.391 . S
C2924 C2925 1.400 . S
C2925 C2919 1.491 . S
C2925 C2924 1.400 . S
C2925 C2926 1.398 . S
C2926 H2914 0.950 . S
C2926 C2925 1.398 . S
C2926 C2927 1.391 . S
C2927 H2915 0.950 . S
C2927 C2923 1.393 . S
C2927 C2926 1.391 . S
H2928 C2936 0.950 . S
H2929 C2941 0.950 . S
H2930 C2938 0.950 . S
H2931 C2940 0.950 . S
H2932 C2942 0.950 . S
H2933 C2944 0.950 . S
H2934 C2946 0.950 . S
H2935 C2947 0.950 . S
C2936 H2928 0.950 . S
C2936 C2937 1.386 . S
C2936 C2938 1.391 . S
C2937 C2936 1.386 . S
C2937 C2941 1.393 . S
C2938 H2930 0.950 . S
C2938 C2936 1.391 . S
C2938 C2939 1.400 . S
C2939 C2938 1.400 . S
C2939 C2940 1.398 . S
C2939 C2945 1.491 . S
C2940 H2931 0.950 . S
C2940 C2939 1.398 . S
C2940 C2941 1.391 . S
C2941 H2929 0.950 . S
C2941 C2937 1.393 . S
C2941 C2940 1.391 . S
C2942 H2932 0.950 . S
C2942 C2943 1.386 . S
C2942 C2944 1.391 . S
C2943 C2942 1.386 . S
C2943 C2947 1.393 . S
C2944 H2933 0.950 . S
C2944 C2942 1.391 . S
C2944 C2945 1.400 . S
C2945 C2939 1.491 . S
C2945 C2944 1.400 . S
C2945 C2946 1.398 . S
C2946 H2934 0.950 . S
C2946 C2945 1.398 . S
C2946 C2947 1.391 . S
C2947 H2935 0.950 . S
C2947 C2943 1.393 . S
C2947 C2946 1.391 . S
H2948 C2956 0.950 . S
H2949 C2961 0.950 . S
H2950 C2958 0.950 . S
H2951 C2960 0.950 . S
H2952 C2962 0.950 . S
H2953 C2964 0.950 . S
H2954 C2966 0.950 . S
H2955 C2967 0.950 . S
C2956 H2948 0.950 . S
C2956 C2957 1.386 . S
C2956 C2958 1.391 . S
C2957 C2956 1.386 . S
C2957 C2961 1.393 . S
C2958 H2950 0.950 . S
C2958 C2956 1.391 . S
C2958 C2959 1.400 . S
C2959 C2958 1.400 . S
C2959 C2960 1.398 . S
C2959 C2965 1.491 . S
C2960 H2951 0.950 . S
C2960 C2959 1.398 . S
C2960 C2961 1.391 . S
C2961 H2949 0.950 . S
C2961 C2957 1.393 . S
C2961 C2960 1.391 . S
C2962 H2952 0.950 . S
C2962 C2963 1.386 . S
C2962 C2964 1.391 . S
C2963 C2962 1.386 . S
C2963 C2967 1.393 . S
C2964 H2953 0.950 . S
C2964 C2962 1.391 . S
C2964 C2965 1.400 . S
C2965 C2959 1.491 . S
C2965 C2964 1.400 . S
C2965 C2966 1.398 . S
C2966 H2954 0.950 . S
C2966 C2965 1.398 . S
C2966 C2967 1.391 . S
C2967 H2955 0.950 . S
C2967 C2963 1.393 . S
C2967 C2966 1.391 . S
H2968 C2976 0.950 . S
H2969 C2981 0.950 . S
H2970 C2978 0.950 . S
H2971 C2980 0.950 . S
H2972 C2982 0.950 . S
H2973 C2984 0.950 . S
H2974 C2986 0.950 . S
H2975 C2987 0.950 . S
C2976 H2968 0.950 . S
C2976 C2977 1.386 . S
C2976 C2978 1.391 . S
C2977 C2976 1.386 . S
C2977 C2981 1.393 . S
C2978 H2970 0.950 . S
C2978 C2976 1.391 . S
C2978 C2979 1.400 . S
C2979 C2978 1.400 . S
C2979 C2980 1.398 . S
C2979 C2985 1.491 . S
C2980 H2971 0.950 . S
C2980 C2979 1.398 . S
C2980 C2981 1.391 . S
C2981 H2969 0.950 . S
C2981 C2977 1.393 . S
C2981 C2980 1.391 . S
C2982 H2972 0.950 . S
C2982 C2983 1.386 . S
C2982 C2984 1.391 . S
C2983 C2982 1.386 . S
C2983 C2987 1.393 . S
C2984 H2973 0.950 . S
C2984 C2982 1.391 . S
C2984 C2985 1.400 . S
C2985 C2979 1.491 . S
C2985 C2984 1.400 . S
C2985 C2986 1.398 . S
C2986 H2974 0.950 . S
C2986 C2985 1.398 . S
C2986 C2987 1.391 . S
C2987 H2975 0.950 . S
C2987 C2983 1.393 . S
C2987 C2986 1.391 . S
H2988 C2996 0.950 . S
H2989 C3001 0.950 . S
H2990 C2998 0.950 . S
H2991 C3000 0.950 . S
H2992 C3002 0.950 . S
H2993 C3004 0.950 . S
H2994 C3006 0.950 . S
H2995 C3007 0.950 . S
C2996 H2988 0.950 . S
C2996 C2997 1.386 . S
C2996 C2998 1.391 . S
C2997 C2996 1.386 . S
C2997 C3001 1.393 . S
C2998 H2990 0.950 . S
C2998 C2996 1.391 . S
C2998 C2999 1.400 . S
C2999 C2998 1.400 . S
C2999 C3000 1.398 . S
C2999 C3005 1.491 . S
C3000 H2991 0.950 . S
C3000 C2999 1.398 . S
C3000 C3001 1.391 . S
C3001 H2989 0.950 . S
C3001 C2997 1.393 . S
C3001 C3000 1.391 . S
C3002 H2992 0.950 . S
C3002 C3003 1.386 . S
C3002 C3004 1.391 . S
C3003 C3002 1.386 . S
C3003 C3007 1.393 . S
C3004 H2993 0.950 . S
C3004 C3002 1.391 . S
C3004 C3005 1.400 . S
C3005 C2999 1.491 . S
C3005 C3004 1.400 . S
C3005 C3006 1.398 . S
C3006 H2994 0.950 . S
C3006 C3005 1.398 . S
C3006 C3007 1.391 . S
C3007 H2995 0.950 . S
C3007 C3003 1.393 . S
C3007 C3006 1.391 . S
H3008 C3016 0.950 . S
H3009 C3021 0.950 . S
H3010 C3018 0.942 1_565 S
H3011 C3020 0.950 . S
H3012 C3022 0.950 . S
H3013 C3024 0.945 1_545 S
H3014 C3026 0.950 . S
H3015 C3027 0.950 . S
C3016 H3008 0.950 . S
C3016 C3017 1.386 . S
C3016 C3018 1.397 . S
C3017 C3016 1.386 . S
C3017 C3021 1.393 . S
C3018 H3010 0.942 1_545 S
C3018 C3016 1.397 . S
C3018 C3019 1.403 . S
C3019 C3018 1.403 . S
C3019 C3020 1.398 . S
C3019 C3025 1.491 1_545 S
C3020 H3011 0.950 . S
C3020 C3019 1.398 . S
C3020 C3021 1.391 . S
C3021 H3009 0.950 . S
C3021 C3017 1.393 . S
C3021 C3020 1.391 . S
C3022 H3012 0.950 . S
C3022 C3023 1.386 . S
C3022 C3024 1.394 . S
C3023 C3022 1.386 . S
C3023 C3027 1.393 . S
C3024 H3013 0.945 1_565 S
C3024 C3022 1.394 . S
C3024 C3025 1.402 . S
C3025 C3019 1.491 1_565 S
C3025 C3024 1.402 . S
C3025 C3026 1.398 . S
C3026 H3014 0.950 . S
C3026 C3025 1.398 . S
C3026 C3027 1.391 . S
C3027 H3015 0.950 . S
C3027 C3023 1.393 . S
C3027 C3026 1.391 . S
H3028 C3036 0.950 . S
H3029 C3041 0.950 . S
H3030 C3038 0.950 . S
H3031 C3040 0.950 . S
H3032 C3042 0.950 . S
H3033 C3044 0.950 . S
H3034 C3046 0.950 . S
H3035 C3047 0.950 . S
C3036 H3028 0.950 . S
C3036 C3037 1.386 . S
C3036 C3038 1.391 . S
C3037 C3036 1.386 . S
C3037 C3041 1.393 1_455 S
C3038 H3030 0.950 . S
C3038 C3036 1.391 . S
C3038 C3039 1.400 . S
C3039 C3038 1.400 . S
C3039 C3040 1.398 1_455 S
C3039 C3045 1.491 1_455 S
C3040 H3031 0.950 . S
C3040 C3039 1.398 1_655 S
C3040 C3041 1.391 . S
C3041 H3029 0.950 . S
C3041 C3037 1.393 1_655 S
C3041 C3040 1.391 . S
C3042 H3032 0.950 . S
C3042 C3043 1.386 . S
C3042 C3044 1.391 . S
C3043 C3042 1.386 . S
C3043 C3047 1.393 1_655 S
C3044 H3033 0.950 . S
C3044 C3042 1.391 . S
C3044 C3045 1.400 . S
C3045 C3039 1.491 1_655 S
C3045 C3044 1.400 . S
C3045 C3046 1.398 1_655 S
C3046 H3034 0.950 . S
C3046 C3045 1.398 1_455 S
C3046 C3047 1.391 . S
C3047 H3035 0.950 . S
C3047 C3043 1.393 1_455 S
C3047 C3046 1.391 . S
H3048 C3056 0.950 . S
H3049 C3061 0.950 . S
H3050 C3058 0.950 . S
H3051 C3060 0.950 . S
H3052 C3062 0.950 . S
H3053 C3064 0.950 . S
H3054 C3066 0.950 . S
H3055 C3067 0.950 . S
C3056 H3048 0.950 . S
C3056 C3057 1.386 . S
C3056 C3058 1.391 . S
C3057 C3056 1.386 . S
C3057 C3061 1.393 . S
C3058 H3050 0.950 . S
C3058 C3056 1.391 . S
C3058 C3059 1.400 . S
C3059 C3058 1.400 . S
C3059 C3060 1.398 . S
C3059 C3065 1.491 1_556 S
C3060 H3051 0.950 . S
C3060 C3059 1.398 . S
C3060 C3061 1.391 . S
C3061 H3049 0.950 . S
C3061 C3057 1.393 . S
C3061 C3060 1.391 . S
C3062 H3052 0.950 . S
C3062 C3063 1.386 . S
C3062 C3064 1.391 . S
C3063 C3062 1.386 . S
C3063 C3067 1.393 . S
C3064 H3053 0.950 . S
C3064 C3062 1.391 . S
C3064 C3065 1.400 . S
C3065 C3059 1.491 1_554 S
C3065 C3064 1.400 . S
C3065 C3066 1.398 . S
C3066 H3054 0.950 . S
C3066 C3065 1.398 . S
C3066 C3067 1.391 . S
C3067 H3055 0.950 . S
C3067 C3063 1.393 . S
C3067 C3066 1.391 . S
H3068 C3076 0.958 . S
H3069 C3081 0.950 . S
H3070 C3078 0.950 . S
H3071 C3080 0.950 . S
H3072 C3082 0.955 . S
H3073 C3084 0.950 . S
H3074 C3086 0.950 . S
H3075 C3087 0.950 . S
C3076 H3068 0.958 . S
C3076 C3077 1.386 . S
C3076 C3078 1.391 1_545 S
C3077 C3076 1.386 . S
C3077 C3081 1.393 1_655 S
C3078 H3070 0.950 . S
C3078 C3076 1.391 1_565 S
C3078 C3079 1.428 1_565 S
C3079 C3078 1.428 1_545 S
C3079 C3080 1.373 1_655 S
C3079 C3085 1.489 1_644 S
C3080 H3071 0.950 . S
C3080 C3079 1.373 1_455 S
C3080 C3081 1.391 . S
C3081 H3069 0.950 . S
C3081 C3077 1.393 1_455 S
C3081 C3080 1.391 . S
C3082 H3072 0.955 . S
C3082 C3083 1.386 . S
C3082 C3084 1.391 1_565 S
C3083 C3082 1.386 . S
C3083 C3087 1.393 1_455 S
C3084 H3073 0.950 . S
C3084 C3082 1.391 1_545 S
C3084 C3085 1.428 1_545 S
C3085 C3079 1.489 1_466 S
C3085 C3084 1.428 1_565 S
C3085 C3086 1.373 1_455 S
C3086 H3074 0.950 . S
C3086 C3085 1.373 1_655 S
C3086 C3087 1.391 . S
C3087 H3075 0.950 . S
C3087 C3083 1.393 1_655 S
C3087 C3086 1.391 . S
H3088 C3096 0.950 . S
H3089 C3101 0.950 . S
H3090 C3098 0.950 . S
H3091 C3100 0.950 . S
H3092 C3102 0.950 . S
H3093 C3104 0.950 . S
H3094 C3106 0.950 . S
H3095 C3107 0.950 . S
C3096 H3088 0.950 . S
C3096 C3097 1.386 . S
C3096 C3098 1.391 . S
C3097 C3096 1.386 . S
C3097 C3101 1.393 1_565 S
C3098 H3090 0.950 . S
C3098 C3096 1.391 . S
C3098 C3099 1.400 . S
C3099 C3098 1.400 . S
C3099 C3100 1.398 1_565 S
C3099 C3105 1.491 1_565 S
C3100 H3091 0.950 . S
C3100 C3099 1.398 1_545 S
C3100 C3101 1.391 . S
C3101 H3089 0.950 . S
C3101 C3097 1.393 1_545 S
C3101 C3100 1.391 . S
C3102 H3092 0.950 . S
C3102 C3103 1.386 . S
C3102 C3104 1.391 . S
C3103 C3102 1.386 . S
C3103 C3107 1.393 1_545 S
C3104 H3093 0.950 . S
C3104 C3102 1.391 . S
C3104 C3105 1.400 . S
C3105 C3099 1.491 1_545 S
C3105 C3104 1.400 . S
C3105 C3106 1.398 1_545 S
C3106 H3094 0.950 . S
C3106 C3105 1.398 1_565 S
C3106 C3107 1.391 . S
C3107 H3095 0.950 . S
C3107 C3103 1.393 1_565 S
C3107 C3106 1.391 . S
H3108 C3116 0.950 . S
H3109 C3121 0.950 . S
H3110 C3118 0.950 . S
H3111 C3120 0.950 . S
H3112 C3122 0.950 . S
H3113 C3124 0.950 . S
H3114 C3126 0.950 . S
H3115 C3127 0.950 . S
C3116 H3108 0.950 . S
C3116 C3117 1.386 . S
C3116 C3118 1.391 . S
C3117 C3116 1.386 . S
C3117 C3121 1.393 1_455 S
C3118 H3110 0.950 . S
C3118 C3116 1.391 . S
C3118 C3119 1.410 . S
C3119 C3118 1.410 . S
C3119 C3120 1.389 1_455 S
C3119 C3125 1.490 1_455 S
C3120 H3111 0.950 . S
C3120 C3119 1.389 1_655 S
C3120 C3121 1.391 . S
C3121 H3109 0.950 . S
C3121 C3117 1.393 1_655 S
C3121 C3120 1.391 . S
C3122 H3112 0.950 . S
C3122 C3123 1.386 . S
C3122 C3124 1.391 . S
C3123 C3122 1.386 . S
C3123 C3127 1.393 1_655 S
C3124 H3113 0.950 . S
C3124 C3122 1.391 . S
C3124 C3125 1.415 . S
C3125 C3119 1.490 1_655 S
C3125 C3124 1.415 . S
C3125 C3126 1.384 1_655 S
C3126 H3114 0.950 . S
C3126 C3125 1.384 1_455 S
C3126 C3127 1.391 . S
C3127 H3115 0.950 . S
C3127 C3123 1.393 1_455 S
C3127 C3126 1.391 . S
H3128 C3136 0.950 . S
H3129 C3141 0.950 . S
H3130 C3138 0.950 . S
H3131 C3140 0.950 . S
H3132 C3142 0.950 . S
H3133 C3144 0.950 . S
H3134 C3146 0.950 . S
H3135 C3147 0.950 . S
C3136 H3128 0.950 . S
C3136 C3137 1.386 . S
C3136 C3138 1.391 . S
C3137 C3136 1.386 . S
C3137 C3141 1.393 . S
C3138 H3130 0.950 . S
C3138 C3136 1.391 . S
C3138 C3139 1.400 . S
C3139 C3138 1.400 . S
C3139 C3140 1.398 . S
C3139 C3145 1.491 1_556 S
C3140 H3131 0.950 . S
C3140 C3139 1.398 . S
C3140 C3141 1.391 . S
C3141 H3129 0.950 . S
C3141 C3137 1.393 . S
C3141 C3140 1.391 . S
C3142 H3132 0.950 . S
C3142 C3143 1.386 . S
C3142 C3144 1.391 . S
C3143 C3142 1.386 . S
C3143 C3147 1.393 . S
C3144 H3133 0.950 . S
C3144 C3142 1.391 . S
C3144 C3145 1.400 . S
C3145 C3139 1.491 1_554 S
C3145 C3144 1.400 . S
C3145 C3146 1.398 . S
C3146 H3134 0.950 . S
C3146 C3145 1.398 . S
C3146 C3147 1.391 . S
C3147 H3135 0.950 . S
C3147 C3143 1.393 . S
C3147 C3146 1.391 . S
H3148 C3156 0.950 . S
H3149 C3161 0.950 . S
H3150 C3158 0.950 . S
H3151 C3160 0.950 . S
H3152 C3162 0.950 . S
H3153 C3164 0.950 . S
H3154 C3166 0.950 . S
H3155 C3167 0.950 . S
C3156 H3148 0.950 . S
C3156 C3157 1.386 . S
C3156 C3158 1.391 . S
C3157 C3156 1.386 . S
C3157 C3161 1.393 . S
C3158 H3150 0.950 . S
C3158 C3156 1.391 . S
C3158 C3159 1.400 . S
C3159 C3158 1.400 . S
C3159 C3160 1.398 . S
C3159 C3165 1.491 . S
C3160 H3151 0.950 . S
C3160 C3159 1.398 . S
C3160 C3161 1.391 . S
C3161 H3149 0.950 . S
C3161 C3157 1.393 . S
C3161 C3160 1.391 . S
C3162 H3152 0.950 . S
C3162 C3163 1.386 . S
C3162 C3164 1.391 . S
C3163 C3162 1.386 . S
C3163 C3167 1.393 . S
C3164 H3153 0.950 . S
C3164 C3162 1.391 . S
C3164 C3165 1.400 . S
C3165 C3159 1.491 . S
C3165 C3164 1.400 . S
C3165 C3166 1.398 . S
C3166 H3154 0.950 . S
C3166 C3165 1.398 . S
C3166 C3167 1.391 . S
C3167 H3155 0.950 . S
C3167 C3163 1.393 . S
C3167 C3166 1.391 . S
H3168 C3176 0.950 . S
H3169 C3181 0.950 . S
H3170 C3178 0.950 . S
H3171 C3180 0.950 . S
H3172 C3182 0.950 . S
H3173 C3184 0.950 . S
H3174 C3186 0.950 . S
H3175 C3187 0.950 . S
C3176 H3168 0.950 . S
C3176 C3177 1.386 . S
C3176 C3178 1.391 . S
C3177 C3176 1.386 . S
C3177 C3181 1.393 . S
C3178 H3170 0.950 . S
C3178 C3176 1.391 . S
C3178 C3179 1.400 . S
C3179 C3178 1.400 . S
C3179 C3180 1.398 . S
C3179 C3185 1.491 . S
C3180 H3171 0.950 . S
C3180 C3179 1.398 . S
C3180 C3181 1.391 . S
C3181 H3169 0.950 . S
C3181 C3177 1.393 . S
C3181 C3180 1.391 . S
C3182 H3172 0.950 . S
C3182 C3183 1.386 . S
C3182 C3184 1.391 . S
C3183 C3182 1.386 . S
C3183 C3187 1.393 . S
C3184 H3173 0.950 . S
C3184 C3182 1.391 . S
C3184 C3185 1.400 . S
C3185 C3179 1.491 . S
C3185 C3184 1.400 . S
C3185 C3186 1.398 . S
C3186 H3174 0.950 . S
C3186 C3185 1.398 . S
C3186 C3187 1.391 . S
C3187 H3175 0.950 . S
C3187 C3183 1.393 . S
C3187 C3186 1.391 . S
H3188 C3196 0.950 . S
H3189 C3201 0.950 . S
H3190 C3198 0.950 . S
H3191 C3200 0.950 . S
H3192 C3202 0.950 . S
H3193 C3204 0.950 . S
H3194 C3206 0.950 . S
H3195 C3207 0.950 . S
C3196 H3188 0.950 . S
C3196 C3197 1.386 . S
C3196 C3198 1.391 . S
C3197 C3196 1.386 . S
C3197 C3201 1.393 1_455 S
C3198 H3190 0.950 . S
C3198 C3196 1.391 . S
C3198 C3199 1.400 . S
C3199 C3198 1.400 . S
C3199 C3200 1.398 1_455 S
C3199 C3205 1.491 1_455 S
C3200 H3191 0.950 . S
C3200 C3199 1.398 1_655 S
C3200 C3201 1.391 . S
C3201 H3189 0.950 . S
C3201 C3197 1.393 1_655 S
C3201 C3200 1.391 . S
C3202 H3192 0.950 . S
C3202 C3203 1.386 . S
C3202 C3204 1.391 . S
C3203 C3202 1.386 . S
C3203 C3207 1.393 1_655 S
C3204 H3193 0.950 . S
C3204 C3202 1.391 . S
C3204 C3205 1.400 . S
C3205 C3199 1.491 1_655 S
C3205 C3204 1.400 . S
C3205 C3206 1.398 1_655 S
C3206 H3194 0.950 . S
C3206 C3205 1.398 1_455 S
C3206 C3207 1.391 . S
C3207 H3195 0.950 . S
C3207 C3203 1.393 1_455 S
C3207 C3206 1.391 . S
H3208 C3216 0.950 . S
H3209 C3221 0.950 . S
H3210 C3218 0.950 . S
H3211 C3220 0.950 . S
H3212 C3222 0.950 . S
H3213 C3224 0.950 . S
H3214 C3226 0.950 . S
H3215 C3227 0.950 . S
C3216 H3208 0.950 . S
C3216 C3217 1.386 . S
C3216 C3218 1.391 . S
C3217 C3216 1.386 . S
C3217 C3221 1.393 . S
C3218 H3210 0.950 . S
C3218 C3216 1.391 . S
C3218 C3219 1.400 . S
C3219 C3218 1.400 . S
C3219 C3220 1.398 . S
C3219 C3225 1.491 . S
C3220 H3211 0.950 . S
C3220 C3219 1.398 . S
C3220 C3221 1.391 . S
C3221 H3209 0.950 . S
C3221 C3217 1.393 . S
C3221 C3220 1.391 . S
C3222 H3212 0.950 . S
C3222 C3223 1.386 . S
C3222 C3224 1.391 . S
C3223 C3222 1.386 . S
C3223 C3227 1.393 . S
C3224 H3213 0.950 . S
C3224 C3222 1.391 . S
C3224 C3225 1.400 . S
C3225 C3219 1.491 . S
C3225 C3224 1.400 . S
C3225 C3226 1.398 . S
C3226 H3214 0.950 . S
C3226 C3225 1.398 . S
C3226 C3227 1.391 . S
C3227 H3215 0.950 . S
C3227 C3223 1.393 . S
C3227 C3226 1.391 . S
H3228 C3236 0.950 . S
H3229 C3241 0.950 . S
H3230 C3238 0.950 . S
H3231 C3240 0.950 . S
H3232 C3242 0.950 . S
H3233 C3244 0.950 . S
H3234 C3246 0.950 . S
H3235 C3247 0.950 . S
C3236 H3228 0.950 . S
C3236 C3237 1.386 . S
C3236 C3238 1.391 . S
C3237 C3236 1.386 . S
C3237 C3241 1.393 . S
C3238 H3230 0.950 . S
C3238 C3236 1.391 . S
C3238 C3239 1.400 . S
C3239 C3238 1.400 . S
C3239 C3240 1.398 . S
C3239 C3245 1.491 . S
C3240 H3231 0.950 . S
C3240 C3239 1.398 . S
C3240 C3241 1.391 . S
C3241 H3229 0.950 . S
C3241 C3237 1.393 . S
C3241 C3240 1.391 . S
C3242 H3232 0.950 . S
C3242 C3243 1.386 . S
C3242 C3244 1.391 . S
C3243 C3242 1.386 . S
C3243 C3247 1.393 . S
C3244 H3233 0.950 . S
C3244 C3242 1.391 . S
C3244 C3245 1.400 . S
C3245 C3239 1.491 . S
C3245 C3244 1.400 . S
C3245 C3246 1.398 . S
C3246 H3234 0.950 . S
C3246 C3245 1.398 . S
C3246 C3247 1.391 . S
C3247 H3235 0.950 . S
C3247 C3243 1.393 . S
C3247 C3246 1.391 . S
H3248 C3256 0.950 . S
H3249 C3261 0.950 . S
H3250 C3258 0.950 . S
H3251 C3260 0.950 . S
H3252 C3262 0.950 . S
H3253 C3264 0.950 . S
H3254 C3266 0.950 . S
H3255 C3267 0.950 . S
C3256 H3248 0.950 . S
C3256 C3257 1.386 . S
C3256 C3258 1.391 . S
C3257 C3256 1.386 . S
C3257 C3261 1.393 . S
C3258 H3250 0.950 . S
C3258 C3256 1.391 . S
C3258 C3259 1.400 . S
C3259 C3258 1.400 . S
C3259 C3260 1.398 . S
C3259 C3265 1.491 . S
C3260 H3251 0.950 . S
C3260 C3259 1.398 . S
C3260 C3261 1.391 . S
C3261 H3249 0.950 . S
C3261 C3257 1.393 . S
C3261 C3260 1.391 . S
C3262 H3252 0.950 . S
C3262 C3263 1.386 . S
C3262 C3264 1.391 . S
C3263 C3262 1.386 . S
C3263 C3267 1.393 . S
C3264 H3253 0.950 . S
C3264 C3262 1.391 . S
C3264 C3265 1.400 . S
C3265 C3259 1.491 . S
C3265 C3264 1.400 . S
C3265 C3266 1.398 . S
C3266 H3254 0.950 . S
C3266 C3265 1.398 . S
C3266 C3267 1.391 . S
C3267 H3255 0.950 . S
C3267 C3263 1.393 . S
C3267 C3266 1.391 . S
H3268 C3276 0.950 1_565 S
H3269 C3281 0.950 . S
H3270 C3278 0.950 . S
H3271 C3280 0.950 . S
H3272 C3282 0.950 1_545 S
H3273 C3284 0.950 . S
H3274 C3286 0.950 . S
H3275 C3287 0.950 . S
C3276 H3268 0.950 1_545 S
C3276 C3277 1.386 . S
C3276 C3278 1.391 1_545 S
C3277 C3276 1.386 . S
C3277 C3281 1.393 . S
C3278 H3270 0.950 . S
C3278 C3276 1.391 1_565 S
C3278 C3279 1.400 1_565 S
C3279 C3278 1.400 1_545 S
C3279 C3280 1.398 . S
C3279 C3285 1.491 1_545 S
C3280 H3271 0.950 . S
C3280 C3279 1.398 . S
C3280 C3281 1.391 . S
C3281 H3269 0.950 . S
C3281 C3277 1.393 . S
C3281 C3280 1.391 . S
C3282 H3272 0.950 1_565 S
C3282 C3283 1.386 . S
C3282 C3284 1.391 1_565 S
C3283 C3282 1.386 . S
C3283 C3287 1.393 . S
C3284 H3273 0.950 . S
C3284 C3282 1.391 1_545 S
C3284 C3285 1.400 1_545 S
C3285 C3279 1.491 1_565 S
C3285 C3284 1.400 1_565 S
C3285 C3286 1.398 . S
C3286 H3274 0.950 . S
C3286 C3285 1.398 . S
C3286 C3287 1.391 . S
C3287 H3275 0.950 . S
C3287 C3283 1.393 . S
C3287 C3286 1.391 . S
H3288 C3296 0.950 . S
H3289 C3301 0.950 . S
H3290 C3298 0.950 . S
H3291 C3300 0.950 . S
H3292 C3302 0.950 . S
H3293 C3304 0.950 . S
H3294 C3306 0.950 . S
H3295 C3307 0.950 . S
C3296 H3288 0.950 . S
C3296 C3297 1.386 . S
C3296 C3298 1.391 . S
C3297 C3296 1.386 . S
C3297 C3301 1.393 . S
C3298 H3290 0.950 . S
C3298 C3296 1.391 . S
C3298 C3299 1.400 . S
C3299 C3298 1.400 . S
C3299 C3300 1.398 . S
C3299 C3305 1.491 . S
C3300 H3291 0.950 . S
C3300 C3299 1.398 . S
C3300 C3301 1.391 . S
C3301 H3289 0.950 . S
C3301 C3297 1.393 . S
C3301 C3300 1.391 . S
C3302 H3292 0.950 . S
C3302 C3303 1.386 . S
C3302 C3304 1.391 . S
C3303 C3302 1.386 . S
C3303 C3307 1.393 . S
C3304 H3293 0.950 . S
C3304 C3302 1.391 . S
C3304 C3305 1.400 . S
C3305 C3299 1.491 . S
C3305 C3304 1.400 . S
C3305 C3306 1.398 . S
C3306 H3294 0.950 . S
C3306 C3305 1.398 . S
C3306 C3307 1.391 . S
C3307 H3295 0.950 . S
C3307 C3303 1.393 . S
C3307 C3306 1.391 . S
H3308 C3316 0.950 . S
H3309 C3321 0.950 . S
H3310 C3318 0.950 . S
H3311 C3320 0.950 . S
H3312 C3322 0.950 . S
H3313 C3324 0.950 . S
H3314 C3326 0.950 . S
H3315 C3327 0.950 . S
C3316 H3308 0.950 . S
C3316 C3317 1.386 . S
C3316 C3318 1.391 . S
C3317 C3316 1.386 . S
C3317 C3321 1.393 . S
C3318 H3310 0.950 . S
C3318 C3316 1.391 . S
C3318 C3319 1.400 . S
C3319 C3318 1.400 . S
C3319 C3320 1.398 . S
C3319 C3325 1.491 1_554 S
C3320 H3311 0.950 . S
C3320 C3319 1.398 . S
C3320 C3321 1.391 . S
C3321 H3309 0.950 . S
C3321 C3317 1.393 . S
C3321 C3320 1.391 . S
C3322 H3312 0.950 . S
C3322 C3323 1.386 . S
C3322 C3324 1.391 . S
C3323 C3322 1.386 . S
C3323 C3327 1.393 . S
C3324 H3313 0.950 . S
C3324 C3322 1.391 . S
C3324 C3325 1.400 . S
C3325 C3319 1.491 1_556 S
C3325 C3324 1.400 . S
C3325 C3326 1.398 . S
C3326 H3314 0.950 . S
C3326 C3325 1.398 . S
C3326 C3327 1.391 . S
C3327 H3315 0.950 . S
C3327 C3323 1.393 . S
C3327 C3326 1.391 . S
H3328 C3336 0.950 . S
H3329 C3341 0.950 . S
H3330 C3338 0.950 . S
H3331 C3340 0.950 . S
H3332 C3342 0.950 . S
H3333 C3344 0.950 . S
H3334 C3346 0.950 . S
H3335 C3347 0.950 . S
C3336 H3328 0.950 . S
C3336 C3337 1.386 . S
C3336 C3338 1.391 . S
C3337 C3336 1.386 . S
C3337 C3341 1.393 . S
C3338 H3330 0.950 . S
C3338 C3336 1.391 . S
C3338 C3339 1.400 . S
C3339 C3338 1.400 . S
C3339 C3340 1.398 . S
C3339 C3345 1.491 . S
C3340 H3331 0.950 . S
C3340 C3339 1.398 . S
C3340 C3341 1.391 . S
C3341 H3329 0.950 . S
C3341 C3337 1.393 . S
C3341 C3340 1.391 . S
C3342 H3332 0.950 . S
C3342 C3343 1.386 . S
C3342 C3344 1.391 . S
C3343 C3342 1.386 . S
C3343 C3347 1.393 . S
C3344 H3333 0.950 . S
C3344 C3342 1.391 . S
C3344 C3345 1.400 . S
C3345 C3339 1.491 . S
C3345 C3344 1.400 . S
C3345 C3346 1.398 . S
C3346 H3334 0.950 . S
C3346 C3345 1.398 . S
C3346 C3347 1.391 . S
C3347 H3335 0.950 . S
C3347 C3343 1.393 . S
C3347 C3346 1.391 . S
H3348 C3356 0.950 . S
H3349 C3361 0.950 . S
H3350 C3358 0.950 . S
H3351 C3360 0.950 . S
H3352 C3362 0.950 . S
H3353 C3364 0.950 . S
H3354 C3366 0.950 . S
H3355 C3367 0.950 . S
C3356 H3348 0.950 . S
C3356 C3357 1.386 . S
C3356 C3358 1.391 . S
C3357 C3356 1.386 . S
C3357 C3361 1.393 . S
C3358 H3350 0.950 . S
C3358 C3356 1.391 . S
C3358 C3359 1.400 . S
C3359 C3358 1.400 . S
C3359 C3360 1.398 . S
C3359 C3365 1.491 . S
C3360 H3351 0.950 . S
C3360 C3359 1.398 . S
C3360 C3361 1.391 . S
C3361 H3349 0.950 . S
C3361 C3357 1.393 . S
C3361 C3360 1.391 . S
C3362 H3352 0.950 . S
C3362 C3363 1.386 . S
C3362 C3364 1.391 . S
C3363 C3362 1.386 . S
C3363 C3367 1.393 . S
C3364 H3353 0.950 . S
C3364 C3362 1.391 . S
C3364 C3365 1.400 . S
C3365 C3359 1.491 . S
C3365 C3364 1.400 . S
C3365 C3366 1.398 . S
C3366 H3354 0.950 . S
C3366 C3365 1.398 . S
C3366 C3367 1.391 . S
C3367 H3355 0.950 . S
C3367 C3363 1.393 . S
C3367 C3366 1.391 . S
H3368 C3376 0.950 . S
H3369 C3381 0.950 . S
H3370 C3378 0.950 . S
H3371 C3380 0.950 . S
H3372 C3382 0.950 . S
H3373 C3384 0.950 . S
H3374 C3386 0.950 . S
H3375 C3387 0.950 . S
C3376 H3368 0.950 . S
C3376 C3377 1.386 . S
C3376 C3378 1.391 . S
C3377 C3376 1.386 . S
C3377 C3381 1.393 . S
C3378 H3370 0.950 . S
C3378 C3376 1.391 . S
C3378 C3379 1.400 . S
C3379 C3378 1.400 . S
C3379 C3380 1.398 . S
C3379 C3385 1.491 . S
C3380 H3371 0.950 . S
C3380 C3379 1.398 . S
C3380 C3381 1.391 . S
C3381 H3369 0.950 . S
C3381 C3377 1.393 . S
C3381 C3380 1.391 . S
C3382 H3372 0.950 . S
C3382 C3383 1.386 . S
C3382 C3384 1.391 . S
C3383 C3382 1.386 . S
C3383 C3387 1.393 . S
C3384 H3373 0.950 . S
C3384 C3382 1.391 . S
C3384 C3385 1.400 . S
C3385 C3379 1.491 . S
C3385 C3384 1.400 . S
C3385 C3386 1.398 . S
C3386 H3374 0.950 . S
C3386 C3385 1.398 . S
C3386 C3387 1.391 . S
C3387 H3375 0.950 . S
C3387 C3383 1.393 . S
C3387 C3386 1.391 . S
H3388 C3396 0.950 . S
H3389 C3401 0.939 1_545 S
H3390 C3398 0.950 . S
H3391 C3400 0.950 1_545 S
H3392 C3402 0.950 . S
H3393 C3404 0.961 . S
H3394 C3406 0.950 . S
H3395 C3407 0.950 . S
C3396 H3388 0.950 . S
C3396 C3397 1.386 . S
C3396 C3398 1.391 . S
C3397 C3396 1.386 . S
C3397 C3401 1.393 . S
C3398 H3390 0.950 . S
C3398 C3396 1.391 . S
C3398 C3399 1.400 . S
C3399 C3398 1.400 . S
C3399 C3400 1.398 . S
C3399 C3405 1.491 . S
C3400 H3391 0.950 1_565 S
C3400 C3399 1.398 . S
C3400 C3401 1.391 . S
C3401 H3389 0.939 1_565 S
C3401 C3397 1.393 . S
C3401 C3400 1.391 . S
C3402 H3392 0.950 . S
C3402 C3403 1.386 . S
C3402 C3404 1.391 . S
C3403 C3402 1.386 . S
C3403 C3407 1.393 . S
C3404 H3393 0.961 . S
C3404 C3402 1.391 . S
C3404 C3405 1.400 . S
C3405 C3399 1.491 . S
C3405 C3404 1.400 . S
C3405 C3406 1.398 . S
C3406 H3394 0.950 . S
C3406 C3405 1.398 . S
C3406 C3407 1.391 . S
C3407 H3395 0.950 . S
C3407 C3403 1.393 . S
C3407 C3406 1.391 . S
H3408 C3416 0.950 . S
H3409 C3421 0.950 . S
H3410 C3418 0.950 . S
H3411 C3420 0.950 . S
H3412 C3422 0.950 . S
H3413 C3424 0.950 . S
H3414 C3426 0.950 . S
H3415 C3427 0.950 . S
C3416 H3408 0.950 . S
C3416 C3417 1.386 1_565 S
C3416 C3418 1.391 . S
C3417 C3416 1.386 1_545 S
C3417 C3421 1.393 . S
C3418 H3410 0.950 . S
C3418 C3416 1.391 . S
C3418 C3419 1.400 1_565 S
C3419 C3418 1.400 1_545 S
C3419 C3420 1.398 . S
C3419 C3425 1.491 . S
C3420 H3411 0.950 . S
C3420 C3419 1.398 . S
C3420 C3421 1.391 . S
C3421 H3409 0.950 . S
C3421 C3417 1.393 . S
C3421 C3420 1.391 . S
C3422 H3412 0.950 . S
C3422 C3423 1.386 . S
C3422 C3424 1.391 . S
C3423 C3422 1.386 . S
C3423 C3427 1.393 1_545 S
C3424 H3413 0.950 . S
C3424 C3422 1.391 . S
C3424 C3425 1.400 . S
C3425 C3419 1.491 . S
C3425 C3424 1.400 . S
C3425 C3426 1.398 1_545 S
C3426 H3414 0.950 . S
C3426 C3425 1.398 1_565 S
C3426 C3427 1.391 . S
C3427 H3415 0.950 . S
C3427 C3423 1.393 1_565 S
C3427 C3426 1.391 . S
H3428 C3436 0.950 . S
H3429 C3441 0.950 . S
H3430 C3438 0.950 . S
H3431 C3440 0.950 . S
H3432 C3442 0.950 . S
H3433 C3444 0.950 . S
H3434 C3446 0.950 . S
H3435 C3447 0.950 . S
C3436 H3428 0.950 . S
C3436 C3437 1.386 . S
C3436 C3438 1.391 . S
C3437 C3436 1.386 . S
C3437 C3441 1.393 . S
C3438 H3430 0.950 . S
C3438 C3436 1.391 . S
C3438 C3439 1.400 . S
C3439 C3438 1.400 . S
C3439 C3440 1.398 . S
C3439 C3445 1.491 . S
C3440 H3431 0.950 . S
C3440 C3439 1.398 . S
C3440 C3441 1.391 . S
C3441 H3429 0.950 . S
C3441 C3437 1.393 . S
C3441 C3440 1.391 . S
C3442 H3432 0.950 . S
C3442 C3443 1.386 . S
C3442 C3444 1.391 . S
C3443 C3442 1.386 . S
C3443 C3447 1.393 . S
C3444 H3433 0.950 . S
C3444 C3442 1.391 . S
C3444 C3445 1.400 . S
C3445 C3439 1.491 . S
C3445 C3444 1.400 . S
C3445 C3446 1.398 . S
C3446 H3434 0.950 . S
C3446 C3445 1.398 . S
C3446 C3447 1.391 . S
C3447 H3435 0.950 . S
C3447 C3443 1.393 . S
C3447 C3446 1.391 . S
H3448 C3456 0.950 . S
H3449 C3461 0.950 . S
H3450 C3458 0.950 . S
H3451 C3460 0.950 . S
H3452 C3462 0.950 . S
H3453 C3464 0.950 . S
H3454 C3466 0.950 . S
H3455 C3467 0.950 . S
C3456 H3448 0.950 . S
C3456 C3457 1.386 . S
C3456 C3458 1.391 . S
C3457 C3456 1.386 . S
C3457 C3461 1.393 . S
C3458 H3450 0.950 . S
C3458 C3456 1.391 . S
C3458 C3459 1.400 . S
C3459 C3458 1.400 . S
C3459 C3460 1.398 . S
C3459 C3465 1.491 . S
C3460 H3451 0.950 . S
C3460 C3459 1.398 . S
C3460 C3461 1.391 . S
C3461 H3449 0.950 . S
C3461 C3457 1.393 . S
C3461 C3460 1.391 . S
C3462 H3452 0.950 . S
C3462 C3463 1.386 . S
C3462 C3464 1.391 . S
C3463 C3462 1.386 . S
C3463 C3467 1.393 . S
C3464 H3453 0.950 . S
C3464 C3462 1.391 . S
C3464 C3465 1.400 . S
C3465 C3459 1.491 . S
C3465 C3464 1.400 . S
C3465 C3466 1.398 . S
C3466 H3454 0.950 . S
C3466 C3465 1.398 . S
C3466 C3467 1.391 . S
C3467 H3455 0.950 . S
C3467 C3463 1.393 . S
C3467 C3466 1.391 . S
H3468 C3476 0.950 . S
H3469 C3481 0.950 . S
H3470 C3478 0.950 . S
H3471 C3480 0.950 . S
H3472 C3482 0.950 . S
H3473 C3484 0.950 . S
H3474 C3486 0.950 . S
H3475 C3487 0.950 . S
C3476 H3468 0.950 . S
C3476 C3477 1.386 . S
C3476 C3478 1.391 . S
C3477 C3476 1.386 . S
C3477 C3481 1.393 . S
C3478 H3470 0.950 . S
C3478 C3476 1.391 . S
C3478 C3479 1.400 . S
C3479 C3478 1.400 . S
C3479 C3480 1.398 . S
C3479 C3485 1.491 . S
C3480 H3471 0.950 . S
C3480 C3479 1.398 . S
C3480 C3481 1.391 . S
C3481 H3469 0.950 . S
C3481 C3477 1.393 . S
C3481 C3480 1.391 . S
C3482 H3472 0.950 . S
C3482 C3483 1.386 . S
C3482 C3484 1.391 . S
C3483 C3482 1.386 . S
C3483 C3487 1.393 . S
C3484 H3473 0.950 . S
C3484 C3482 1.391 . S
C3484 C3485 1.400 . S
C3485 C3479 1.491 . S
C3485 C3484 1.400 . S
C3485 C3486 1.398 . S
C3486 H3474 0.950 . S
C3486 C3485 1.398 . S
C3486 C3487 1.391 . S
C3487 H3475 0.950 . S
C3487 C3483 1.393 . S
C3487 C3486 1.391 . S
H3488 C3496 0.950 . S
H3489 C3501 0.950 . S
H3490 C3498 0.950 . S
H3491 C3500 0.950 . S
H3492 C3502 0.950 . S
H3493 C3504 0.950 . S
H3494 C3506 0.950 . S
H3495 C3507 0.950 . S
C3496 H3488 0.950 . S
C3496 C3497 1.386 . S
C3496 C3498 1.391 . S
C3497 C3496 1.386 . S
C3497 C3501 1.393 . S
C3498 H3490 0.950 . S
C3498 C3496 1.391 . S
C3498 C3499 1.400 . S
C3499 C3498 1.400 . S
C3499 C3500 1.398 . S
C3499 C3505 1.491 . S
C3500 H3491 0.950 . S
C3500 C3499 1.398 . S
C3500 C3501 1.391 . S
C3501 H3489 0.950 . S
C3501 C3497 1.393 . S
C3501 C3500 1.391 . S
C3502 H3492 0.950 . S
C3502 C3503 1.386 . S
C3502 C3504 1.391 . S
C3503 C3502 1.386 . S
C3503 C3507 1.393 . S
C3504 H3493 0.950 . S
C3504 C3502 1.391 . S
C3504 C3505 1.400 . S
C3505 C3499 1.491 . S
C3505 C3504 1.400 . S
C3505 C3506 1.398 . S
C3506 H3494 0.950 . S
C3506 C3505 1.398 . S
C3506 C3507 1.391 . S
C3507 H3495 0.950 . S
C3507 C3503 1.393 . S
C3507 C3506 1.391 . S
H3508 C3516 0.950 . S
H3509 C3521 0.950 . S
H3510 C3518 0.950 . S
H3511 C3520 0.950 . S
H3512 C3522 0.950 . S
H3513 C3524 0.950 . S
H3514 C3526 0.950 . S
H3515 C3527 0.950 . S
C3516 H3508 0.950 . S
C3516 C3517 1.386 . S
C3516 C3518 1.391 . S
C3517 C3516 1.386 . S
C3517 C3521 1.393 . S
C3518 H3510 0.950 . S
C3518 C3516 1.391 . S
C3518 C3519 1.400 . S
C3519 C3518 1.400 . S
C3519 C3520 1.398 . S
C3519 C3525 1.491 . S
C3520 H3511 0.950 . S
C3520 C3519 1.398 . S
C3520 C3521 1.391 . S
C3521 H3509 0.950 . S
C3521 C3517 1.393 . S
C3521 C3520 1.391 . S
C3522 H3512 0.950 . S
C3522 C3523 1.386 . S
C3522 C3524 1.391 . S
C3523 C3522 1.386 . S
C3523 C3527 1.393 . S
C3524 H3513 0.950 . S
C3524 C3522 1.391 . S
C3524 C3525 1.400 . S
C3525 C3519 1.491 . S
C3525 C3524 1.400 . S
C3525 C3526 1.398 . S
C3526 H3514 0.950 . S
C3526 C3525 1.398 . S
C3526 C3527 1.391 . S
C3527 H3515 0.950 . S
C3527 C3523 1.393 . S
C3527 C3526 1.391 . S
H3528 C3536 0.950 . S
H3529 C3541 0.950 . S
H3530 C3538 0.950 . S
H3531 C3540 0.950 . S
H3532 C3542 0.950 . S
H3533 C3544 0.950 . S
H3534 C3546 0.950 . S
H3535 C3547 0.950 . S
C3536 H3528 0.950 . S
C3536 C3537 1.386 . S
C3536 C3538 1.391 . S
C3537 C3536 1.386 . S
C3537 C3541 1.393 . S
C3538 H3530 0.950 . S
C3538 C3536 1.391 . S
C3538 C3539 1.400 . S
C3539 C3538 1.400 . S
C3539 C3540 1.398 . S
C3539 C3545 1.491 . S
C3540 H3531 0.950 . S
C3540 C3539 1.398 . S
C3540 C3541 1.391 . S
C3541 H3529 0.950 . S
C3541 C3537 1.393 . S
C3541 C3540 1.391 . S
C3542 H3532 0.950 . S
C3542 C3543 1.386 . S
C3542 C3544 1.391 . S
C3543 C3542 1.386 . S
C3543 C3547 1.393 . S
C3544 H3533 0.950 . S
C3544 C3542 1.391 . S
C3544 C3545 1.400 . S
C3545 C3539 1.491 . S
C3545 C3544 1.400 . S
C3545 C3546 1.398 . S
C3546 H3534 0.950 . S
C3546 C3545 1.398 . S
C3546 C3547 1.391 . S
C3547 H3535 0.950 . S
C3547 C3543 1.393 . S
C3547 C3546 1.391 . S
H3548 C3556 0.950 . S
H3549 C3561 0.950 . S
H3550 C3558 0.950 . S
H3551 C3560 0.950 . S
H3552 C3562 0.950 . S
H3553 C3564 0.950 . S
H3554 C3566 0.950 . S
H3555 C3567 0.950 . S
C3556 H3548 0.950 . S
C3556 C3557 1.386 . S
C3556 C3558 1.391 . S
C3557 C3556 1.386 . S
C3557 C3561 1.393 . S
C3558 H3550 0.950 . S
C3558 C3556 1.391 . S
C3558 C3559 1.400 . S
C3559 C3558 1.400 . S
C3559 C3560 1.398 . S
C3559 C3565 1.491 . S
C3560 H3551 0.950 . S
C3560 C3559 1.398 . S
C3560 C3561 1.391 . S
C3561 H3549 0.950 . S
C3561 C3557 1.393 . S
C3561 C3560 1.391 . S
C3562 H3552 0.950 . S
C3562 C3563 1.386 . S
C3562 C3564 1.391 . S
C3563 C3562 1.386 . S
C3563 C3567 1.393 . S
C3564 H3553 0.950 . S
C3564 C3562 1.391 . S
C3564 C3565 1.400 . S
C3565 C3559 1.491 . S
C3565 C3564 1.400 . S
C3565 C3566 1.398 . S
C3566 H3554 0.950 . S
C3566 C3565 1.398 . S
C3566 C3567 1.391 . S
C3567 H3555 0.950 . S
C3567 C3563 1.393 . S
C3567 C3566 1.391 . S
H3568 C3576 0.950 . S
H3569 C3581 0.950 . S
H3570 C3578 0.950 . S
H3571 C3580 0.950 . S
H3572 C3582 0.950 . S
H3573 C3584 0.950 . S
H3574 C3586 0.950 . S
H3575 C3587 0.950 . S
C3576 H3568 0.950 . S
C3576 C3577 1.386 . S
C3576 C3578 1.391 . S
C3577 C3576 1.386 . S
C3577 C3581 1.393 . S
C3578 H3570 0.950 . S
C3578 C3576 1.391 . S
C3578 C3579 1.400 . S
C3579 C3578 1.400 . S
C3579 C3580 1.398 . S
C3579 C3585 1.491 . S
C3580 H3571 0.950 . S
C3580 C3579 1.398 . S
C3580 C3581 1.391 . S
C3581 H3569 0.950 . S
C3581 C3577 1.393 . S
C3581 C3580 1.391 . S
C3582 H3572 0.950 . S
C3582 C3583 1.386 . S
C3582 C3584 1.391 . S
C3583 C3582 1.386 . S
C3583 C3587 1.393 . S
C3584 H3573 0.950 . S
C3584 C3582 1.391 . S
C3584 C3585 1.400 . S
C3585 C3579 1.491 . S
C3585 C3584 1.400 . S
C3585 C3586 1.398 . S
C3586 H3574 0.950 . S
C3586 C3585 1.398 . S
C3586 C3587 1.391 . S
C3587 H3575 0.950 . S
C3587 C3583 1.393 . S
C3587 C3586 1.391 . S
H3588 C3596 0.950 . S
H3589 C3601 0.950 . S
H3590 C3598 0.950 . S
H3591 C3600 0.950 . S
H3592 C3602 0.950 . S
H3593 C3604 0.950 . S
H3594 C3606 0.950 . S
H3595 C3607 0.950 . S
C3596 H3588 0.950 . S
C3596 C3597 1.386 . S
C3596 C3598 1.391 . S
C3597 C3596 1.386 . S
C3597 C3601 1.393 . S
C3598 H3590 0.950 . S
C3598 C3596 1.391 . S
C3598 C3599 1.400 . S
C3599 C3598 1.400 . S
C3599 C3600 1.398 . S
C3599 C3605 1.491 . S
C3600 H3591 0.950 . S
C3600 C3599 1.398 . S
C3600 C3601 1.391 . S
C3601 H3589 0.950 . S
C3601 C3597 1.393 . S
C3601 C3600 1.391 . S
C3602 H3592 0.950 . S
C3602 C3603 1.386 . S
C3602 C3604 1.391 . S
C3603 C3602 1.386 . S
C3603 C3607 1.393 . S
C3604 H3593 0.950 . S
C3604 C3602 1.391 . S
C3604 C3605 1.400 . S
C3605 C3599 1.491 . S
C3605 C3604 1.400 . S
C3605 C3606 1.398 . S
C3606 H3594 0.950 . S
C3606 C3605 1.398 . S
C3606 C3607 1.391 . S
C3607 H3595 0.950 . S
C3607 C3603 1.393 . S
C3607 C3606 1.391 . S
H3608 C3616 0.950 . S
H3609 C3621 0.950 . S
H3610 C3618 0.950 . S
H3611 C3620 0.950 . S
H3612 C3622 0.950 . S
H3613 C3624 0.950 . S
H3614 C3626 0.950 . S
H3615 C3627 0.950 . S
C3616 H3608 0.950 . S
C3616 C3617 1.386 . S
C3616 C3618 1.391 . S
C3617 C3616 1.386 . S
C3617 C3621 1.393 . S
C3618 H3610 0.950 . S
C3618 C3616 1.391 . S
C3618 C3619 1.400 . S
C3619 C3618 1.400 . S
C3619 C3620 1.398 . S
C3619 C3625 1.491 . S
C3620 H3611 0.950 . S
C3620 C3619 1.398 . S
C3620 C3621 1.391 . S
C3621 H3609 0.950 . S
C3621 C3617 1.393 . S
C3621 C3620 1.391 . S
C3622 H3612 0.950 . S
C3622 C3623 1.386 . S
C3622 C3624 1.391 . S
C3623 C3622 1.386 . S
C3623 C3627 1.393 . S
C3624 H3613 0.950 . S
C3624 C3622 1.391 . S
C3624 C3625 1.400 . S
C3625 C3619 1.491 . S
C3625 C3624 1.400 . S
C3625 C3626 1.398 . S
C3626 H3614 0.950 . S
C3626 C3625 1.398 . S
C3626 C3627 1.391 . S
C3627 H3615 0.950 . S
C3627 C3623 1.393 . S
C3627 C3626 1.391 . S
H3628 C3636 0.950 . S
H3629 C3641 0.950 . S
H3630 C3638 0.950 . S
H3631 C3640 0.950 . S
H3632 C3642 0.950 . S
H3633 C3644 0.950 . S
H3634 C3646 0.950 . S
H3635 C3647 0.950 . S
C3636 H3628 0.950 . S
C3636 C3637 1.386 . S
C3636 C3638 1.391 . S
C3637 C3636 1.386 . S
C3637 C3641 1.393 . S
C3638 H3630 0.950 . S
C3638 C3636 1.391 . S
C3638 C3639 1.400 . S
C3639 C3638 1.400 . S
C3639 C3640 1.398 . S
C3639 C3645 1.491 . S
C3640 H3631 0.950 . S
C3640 C3639 1.398 . S
C3640 C3641 1.391 . S
C3641 H3629 0.950 . S
C3641 C3637 1.393 . S
C3641 C3640 1.391 . S
C3642 H3632 0.950 . S
C3642 C3643 1.386 . S
C3642 C3644 1.391 . S
C3643 C3642 1.386 . S
C3643 C3647 1.393 . S
C3644 H3633 0.950 . S
C3644 C3642 1.391 . S
C3644 C3645 1.400 . S
C3645 C3639 1.491 . S
C3645 C3644 1.400 . S
C3645 C3646 1.398 . S
C3646 H3634 0.950 . S
C3646 C3645 1.398 . S
C3646 C3647 1.391 . S
C3647 H3635 0.950 . S
C3647 C3643 1.393 . S
C3647 C3646 1.391 . S
H3648 C3656 0.950 . S
H3649 C3661 0.950 . S
H3650 C3658 0.950 . S
H3651 C3660 0.950 . S
H3652 C3662 0.950 . S
H3653 C3664 0.950 . S
H3654 C3666 0.950 . S
H3655 C3667 0.950 . S
C3656 H3648 0.950 . S
C3656 C3657 1.386 . S
C3656 C3658 1.391 . S
C3657 C3656 1.386 . S
C3657 C3661 1.393 . S
C3658 H3650 0.950 . S
C3658 C3656 1.391 . S
C3658 C3659 1.400 . S
C3659 C3658 1.400 . S
C3659 C3660 1.398 . S
C3659 C3665 1.491 . S
C3660 H3651 0.950 . S
C3660 C3659 1.398 . S
C3660 C3661 1.391 . S
C3661 H3649 0.950 . S
C3661 C3657 1.393 . S
C3661 C3660 1.391 . S
C3662 H3652 0.950 . S
C3662 C3663 1.386 . S
C3662 C3664 1.391 . S
C3663 C3662 1.386 . S
C3663 C3667 1.393 . S
C3664 H3653 0.950 . S
C3664 C3662 1.391 . S
C3664 C3665 1.400 . S
C3665 C3659 1.491 . S
C3665 C3664 1.400 . S
C3665 C3666 1.398 . S
C3666 H3654 0.950 . S
C3666 C3665 1.398 . S
C3666 C3667 1.391 . S
C3667 H3655 0.950 . S
C3667 C3663 1.393 . S
C3667 C3666 1.391 . S
H3668 C3676 0.950 . S
H3669 C3681 0.950 . S
H3670 C3678 0.950 . S
H3671 C3680 0.950 . S
H3672 C3682 0.950 . S
H3673 C3684 0.950 . S
H3674 C3686 0.950 . S
H3675 C3687 0.950 . S
C3676 H3668 0.950 . S
C3676 C3677 1.386 . S
C3676 C3678 1.391 . S
C3677 C3676 1.386 . S
C3677 C3681 1.393 . S
C3678 H3670 0.950 . S
C3678 C3676 1.391 . S
C3678 C3679 1.400 . S
C3679 C3678 1.400 . S
C3679 C3680 1.398 . S
C3679 C3685 1.491 . S
C3680 H3671 0.950 . S
C3680 C3679 1.398 . S
C3680 C3681 1.391 . S
C3681 H3669 0.950 . S
C3681 C3677 1.393 . S
C3681 C3680 1.391 . S
C3682 H3672 0.950 . S
C3682 C3683 1.386 . S
C3682 C3684 1.391 . S
C3683 C3682 1.386 . S
C3683 C3687 1.393 . S
C3684 H3673 0.950 . S
C3684 C3682 1.391 . S
C3684 C3685 1.400 . S
C3685 C3679 1.491 . S
C3685 C3684 1.400 . S
C3685 C3686 1.398 . S
C3686 H3674 0.950 . S
C3686 C3685 1.398 . S
C3686 C3687 1.391 . S
C3687 H3675 0.950 . S
C3687 C3683 1.393 . S
C3687 C3686 1.391 . S
H3688 C3696 0.950 . S
H3689 C3701 0.950 . S
H3690 C3698 0.950 . S
H3691 C3700 0.950 . S
H3692 C3702 0.950 . S
H3693 C3704 0.950 . S
H3694 C3706 0.950 . S
H3695 C3707 0.950 . S
C3696 H3688 0.950 . S
C3696 C3697 1.386 . S
C3696 C3698 1.391 . S
C3697 C3696 1.386 . S
C3697 C3701 1.393 . S
C3698 H3690 0.950 . S
C3698 C3696 1.391 . S
C3698 C3699 1.400 . S
C3699 C3698 1.400 . S
C3699 C3700 1.398 . S
C3699 C3705 1.491 . S
C3700 H3691 0.950 . S
C3700 C3699 1.398 . S
C3700 C3701 1.391 . S
C3701 H3689 0.950 . S
C3701 C3697 1.393 . S
C3701 C3700 1.391 . S
C3702 H3692 0.950 . S
C3702 C3703 1.386 . S
C3702 C3704 1.391 . S
C3703 C3702 1.386 . S
C3703 C3707 1.393 . S
C3704 H3693 0.950 . S
C3704 C3702 1.391 . S
C3704 C3705 1.400 . S
C3705 C3699 1.491 . S
C3705 C3704 1.400 . S
C3705 C3706 1.398 . S
C3706 H3694 0.950 . S
C3706 C3705 1.398 . S
C3706 C3707 1.391 . S
C3707 H3695 0.950 . S
C3707 C3703 1.393 . S
C3707 C3706 1.391 . S
H3708 C3716 0.950 . S
H3709 C3721 0.950 . S
H3710 C3718 0.950 . S
H3711 C3720 0.950 . S
H3712 C3722 0.950 . S
H3713 C3724 0.950 . S
H3714 C3726 0.950 . S
H3715 C3727 0.950 . S
C3716 H3708 0.950 . S
C3716 C3717 1.386 . S
C3716 C3718 1.391 . S
C3717 C3716 1.386 . S
C3717 C3721 1.393 . S
C3718 H3710 0.950 . S
C3718 C3716 1.391 . S
C3718 C3719 1.400 . S
C3719 C3718 1.400 . S
C3719 C3720 1.398 . S
C3719 C3725 1.491 . S
C3720 H3711 0.950 . S
C3720 C3719 1.398 . S
C3720 C3721 1.391 . S
C3721 H3709 0.950 . S
C3721 C3717 1.393 . S
C3721 C3720 1.391 . S
C3722 H3712 0.950 . S
C3722 C3723 1.386 . S
C3722 C3724 1.391 . S
C3723 C3722 1.386 . S
C3723 C3727 1.393 . S
C3724 H3713 0.950 . S
C3724 C3722 1.391 . S
C3724 C3725 1.400 . S
C3725 C3719 1.491 . S
C3725 C3724 1.400 . S
C3725 C3726 1.398 . S
C3726 H3714 0.950 . S
C3726 C3725 1.398 . S
C3726 C3727 1.391 . S
C3727 H3715 0.950 . S
C3727 C3723 1.393 . S
C3727 C3726 1.391 . S
H3728 C3736 0.950 . S
H3729 C3741 0.950 . S
H3730 C3738 0.950 . S
H3731 C3740 0.950 . S
H3732 C3742 0.950 . S
H3733 C3744 0.950 . S
H3734 C3746 0.950 . S
H3735 C3747 0.950 . S
C3736 H3728 0.950 . S
C3736 C3737 1.386 . S
C3736 C3738 1.391 . S
C3737 C3736 1.386 . S
C3737 C3741 1.393 . S
C3738 H3730 0.950 . S
C3738 C3736 1.391 . S
C3738 C3739 1.400 . S
C3739 C3738 1.400 . S
C3739 C3740 1.398 . S
C3739 C3745 1.491 . S
C3740 H3731 0.950 . S
C3740 C3739 1.398 . S
C3740 C3741 1.391 . S
C3741 H3729 0.950 . S
C3741 C3737 1.393 . S
C3741 C3740 1.391 . S
C3742 H3732 0.950 . S
C3742 C3743 1.386 . S
C3742 C3744 1.391 . S
C3743 C3742 1.386 . S
C3743 C3747 1.393 . S
C3744 H3733 0.950 . S
C3744 C3742 1.391 . S
C3744 C3745 1.400 . S
C3745 C3739 1.491 . S
C3745 C3744 1.400 . S
C3745 C3746 1.398 . S
C3746 H3734 0.950 . S
C3746 C3745 1.398 . S
C3746 C3747 1.391 . S
C3747 H3735 0.950 . S
C3747 C3743 1.393 . S
C3747 C3746 1.391 . S
H3748 C3756 0.950 . S
H3749 C3761 0.950 . S
H3750 C3758 0.950 . S
H3751 C3760 0.950 . S
H3752 C3762 0.950 . S
H3753 C3764 0.950 . S
H3754 C3766 0.950 . S
H3755 C3767 0.950 . S
C3756 H3748 0.950 . S
C3756 C3757 1.386 . S
C3756 C3758 1.391 . S
C3757 C3756 1.386 . S
C3757 C3761 1.393 . S
C3758 H3750 0.950 . S
C3758 C3756 1.391 . S
C3758 C3759 1.400 . S
C3759 C3758 1.400 . S
C3759 C3760 1.398 . S
C3759 C3765 1.491 . S
C3760 H3751 0.950 . S
C3760 C3759 1.398 . S
C3760 C3761 1.391 . S
C3761 H3749 0.950 . S
C3761 C3757 1.393 . S
C3761 C3760 1.391 . S
C3762 H3752 0.950 . S
C3762 C3763 1.386 . S
C3762 C3764 1.391 . S
C3763 C3762 1.386 . S
C3763 C3767 1.393 . S
C3764 H3753 0.950 . S
C3764 C3762 1.391 . S
C3764 C3765 1.400 . S
C3765 C3759 1.491 . S
C3765 C3764 1.400 . S
C3765 C3766 1.398 . S
C3766 H3754 0.950 . S
C3766 C3765 1.398 . S
C3766 C3767 1.391 . S
C3767 H3755 0.950 . S
C3767 C3763 1.393 . S
C3767 C3766 1.391 . S
H3768 C3776 0.950 . S
H3769 C3781 0.950 . S
H3770 C3778 0.950 . S
H3771 C3780 0.950 . S
H3772 C3782 0.950 . S
H3773 C3784 0.950 . S
H3774 C3786 0.950 . S
H3775 C3787 0.950 . S
C3776 H3768 0.950 . S
C3776 C3777 1.386 . S
C3776 C3778 1.391 . S
C3777 C3776 1.386 . S
C3777 C3781 1.393 . S
C3778 H3770 0.950 . S
C3778 C3776 1.391 . S
C3778 C3779 1.400 . S
C3779 C3778 1.400 . S
C3779 C3780 1.398 . S
C3779 C3785 1.491 . S
C3780 H3771 0.950 . S
C3780 C3779 1.398 . S
C3780 C3781 1.391 . S
C3781 H3769 0.950 . S
C3781 C3777 1.393 . S
C3781 C3780 1.391 . S
C3782 H3772 0.950 . S
C3782 C3783 1.386 . S
C3782 C3784 1.391 . S
C3783 C3782 1.386 . S
C3783 C3787 1.393 . S
C3784 H3773 0.950 . S
C3784 C3782 1.391 . S
C3784 C3785 1.400 . S
C3785 C3779 1.491 . S
C3785 C3784 1.400 . S
C3785 C3786 1.398 . S
C3786 H3774 0.950 . S
C3786 C3785 1.398 . S
C3786 C3787 1.391 . S
C3787 H3775 0.950 . S
C3787 C3783 1.393 . S
C3787 C3786 1.391 . S
H3788 C3796 0.950 . S
H3789 C3801 0.950 . S
H3790 C3798 0.950 . S
H3791 C3800 0.950 . S
H3792 C3802 0.950 . S
H3793 C3804 0.950 . S
H3794 C3806 0.950 . S
H3795 C3807 0.950 . S
C3796 H3788 0.950 . S
C3796 C3797 1.386 . S
C3796 C3798 1.391 . S
C3797 C3796 1.386 . S
C3797 C3801 1.393 . S
C3798 H3790 0.950 . S
C3798 C3796 1.391 . S
C3798 C3799 1.400 . S
C3799 C3798 1.400 . S
C3799 C3800 1.398 . S
C3799 C3805 1.491 . S
C3800 H3791 0.950 . S
C3800 C3799 1.398 . S
C3800 C3801 1.391 . S
C3801 H3789 0.950 . S
C3801 C3797 1.393 . S
C3801 C3800 1.391 . S
C3802 H3792 0.950 . S
C3802 C3803 1.386 . S
C3802 C3804 1.391 . S
C3803 C3802 1.386 . S
C3803 C3807 1.393 . S
C3804 H3793 0.950 . S
C3804 C3802 1.391 . S
C3804 C3805 1.400 . S
C3805 C3799 1.491 . S
C3805 C3804 1.400 . S
C3805 C3806 1.398 . S
C3806 H3794 0.950 . S
C3806 C3805 1.398 . S
C3806 C3807 1.391 . S
C3807 H3795 0.950 . S
C3807 C3803 1.393 . S
C3807 C3806 1.391 . S
H3808 C3816 0.950 . S
H3809 C3821 0.950 . S
H3810 C3818 0.950 . S
H3811 C3820 0.950 . S
H3812 C3822 0.950 . S
H3813 C3824 0.950 . S
H3814 C3826 0.950 . S
H3815 C3827 0.950 . S
C3816 H3808 0.950 . S
C3816 C3817 1.386 . S
C3816 C3818 1.391 . S
C3817 C3816 1.386 . S
C3817 C3821 1.393 . S
C3818 H3810 0.950 . S
C3818 C3816 1.391 . S
C3818 C3819 1.400 . S
C3819 C3818 1.400 . S
C3819 C3820 1.398 . S
C3819 C3825 1.491 . S
C3820 H3811 0.950 . S
C3820 C3819 1.398 . S
C3820 C3821 1.391 . S
C3821 H3809 0.950 . S
C3821 C3817 1.393 . S
C3821 C3820 1.391 . S
C3822 H3812 0.950 . S
C3822 C3823 1.386 . S
C3822 C3824 1.391 . S
C3823 C3822 1.386 . S
C3823 C3827 1.393 . S
C3824 H3813 0.950 . S
C3824 C3822 1.391 . S
C3824 C3825 1.400 . S
C3825 C3819 1.491 . S
C3825 C3824 1.400 . S
C3825 C3826 1.398 . S
C3826 H3814 0.950 . S
C3826 C3825 1.398 . S
C3826 C3827 1.391 . S
C3827 H3815 0.950 . S
C3827 C3823 1.393 . S
C3827 C3826 1.391 . S
H3828 C3836 0.950 . S
H3829 C3841 0.950 . S
H3830 C3838 0.950 . S
H3831 C3840 0.950 . S
H3832 C3842 0.950 . S
H3833 C3844 0.950 . S
H3834 C3846 0.950 . S
H3835 C3847 0.950 . S
C3836 H3828 0.950 . S
C3836 C3837 1.386 . S
C3836 C3838 1.391 . S
C3837 C3836 1.386 . S
C3837 C3841 1.393 . S
C3838 H3830 0.950 . S
C3838 C3836 1.391 . S
C3838 C3839 1.400 . S
C3839 C3838 1.400 . S
C3839 C3840 1.398 . S
C3839 C3845 1.491 . S
C3840 H3831 0.950 . S
C3840 C3839 1.398 . S
C3840 C3841 1.391 . S
C3841 H3829 0.950 . S
C3841 C3837 1.393 . S
C3841 C3840 1.391 . S
C3842 H3832 0.950 . S
C3842 C3843 1.386 . S
C3842 C3844 1.391 . S
C3843 C3842 1.386 . S
C3843 C3847 1.393 . S
C3844 H3833 0.950 . S
C3844 C3842 1.391 . S
C3844 C3845 1.400 . S
C3845 C3839 1.491 . S
C3845 C3844 1.400 . S
C3845 C3846 1.398 . S
C3846 H3834 0.950 . S
C3846 C3845 1.398 . S
C3846 C3847 1.391 . S
C3847 H3835 0.950 . S
C3847 C3843 1.393 . S
C3847 C3846 1.391 . S
H3848 C3856 0.950 . S
H3849 C3861 0.950 . S
H3850 C3858 0.950 . S
H3851 C3860 0.950 . S
H3852 C3862 0.950 . S
H3853 C3864 0.950 . S
H3854 C3866 0.950 . S
H3855 C3867 0.950 . S
C3856 H3848 0.950 . S
C3856 C3857 1.386 . S
C3856 C3858 1.391 . S
C3857 C3856 1.386 . S
C3857 C3861 1.393 . S
C3858 H3850 0.950 . S
C3858 C3856 1.391 . S
C3858 C3859 1.400 . S
C3859 C3858 1.400 . S
C3859 C3860 1.398 . S
C3859 C3865 1.491 . S
C3860 H3851 0.950 . S
C3860 C3859 1.398 . S
C3860 C3861 1.391 . S
C3861 H3849 0.950 . S
C3861 C3857 1.393 . S
C3861 C3860 1.391 . S
C3862 H3852 0.950 . S
C3862 C3863 1.386 . S
C3862 C3864 1.391 . S
C3863 C3862 1.386 . S
C3863 C3867 1.393 . S
C3864 H3853 0.950 . S
C3864 C3862 1.391 . S
C3864 C3865 1.400 . S
C3865 C3859 1.491 . S
C3865 C3864 1.400 . S
C3865 C3866 1.398 . S
C3866 H3854 0.950 . S
C3866 C3865 1.398 . S
C3866 C3867 1.391 . S
C3867 H3855 0.950 . S
C3867 C3863 1.393 . S
C3867 C3866 1.391 . S
H3868 C3876 0.950 . S
H3869 C3881 0.950 . S
H3870 C3878 0.950 . S
H3871 C3880 0.950 . S
H3872 C3882 0.950 . S
H3873 C3884 0.950 . S
H3874 C3886 0.950 . S
H3875 C3887 0.950 . S
C3876 H3868 0.950 . S
C3876 C3877 1.386 . S
C3876 C3878 1.391 . S
C3877 C3876 1.386 . S
C3877 C3881 1.393 . S
C3878 H3870 0.950 . S
C3878 C3876 1.391 . S
C3878 C3879 1.400 . S
C3879 C3878 1.400 . S
C3879 C3880 1.398 . S
C3879 C3885 1.491 . S
C3880 H3871 0.950 . S
C3880 C3879 1.398 . S
C3880 C3881 1.391 . S
C3881 H3869 0.950 . S
C3881 C3877 1.393 . S
C3881 C3880 1.391 . S
C3882 H3872 0.950 . S
C3882 C3883 1.386 . S
C3882 C3884 1.391 . S
C3883 C3882 1.386 . S
C3883 C3887 1.393 . S
C3884 H3873 0.950 . S
C3884 C3882 1.391 . S
C3884 C3885 1.400 . S
C3885 C3879 1.491 . S
C3885 C3884 1.400 . S
C3885 C3886 1.398 . S
C3886 H3874 0.950 . S
C3886 C3885 1.398 . S
C3886 C3887 1.391 . S
C3887 H3875 0.950 . S
C3887 C3883 1.393 . S
C3887 C3886 1.391 . S
H3888 C3896 0.950 . S
H3889 C3901 0.950 . S
H3890 C3898 0.950 . S
H3891 C3900 0.950 . S
H3892 C3902 0.950 . S
H3893 C3904 0.950 . S
H3894 C3906 0.950 . S
H3895 C3907 0.950 . S
C3896 H3888 0.950 . S
C3896 C3897 1.386 . S
C3896 C3898 1.391 . S
C3897 C3896 1.386 . S
C3897 C3901 1.393 . S
C3898 H3890 0.950 . S
C3898 C3896 1.391 . S
C3898 C3899 1.400 . S
C3899 C3898 1.400 . S
C3899 C3900 1.398 . S
C3899 C3905 1.491 . S
C3900 H3891 0.950 . S
C3900 C3899 1.398 . S
C3900 C3901 1.391 . S
C3901 H3889 0.950 . S
C3901 C3897 1.393 . S
C3901 C3900 1.391 . S
C3902 H3892 0.950 . S
C3902 C3903 1.386 . S
C3902 C3904 1.391 . S
C3903 C3902 1.386 . S
C3903 C3907 1.393 . S
C3904 H3893 0.950 . S
C3904 C3902 1.391 . S
C3904 C3905 1.400 . S
C3905 C3899 1.491 . S
C3905 C3904 1.400 . S
C3905 C3906 1.398 . S
C3906 H3894 0.950 . S
C3906 C3905 1.398 . S
C3906 C3907 1.391 . S
C3907 H3895 0.950 . S
C3907 C3903 1.393 . S
C3907 C3906 1.391 . S
H3908 C3916 0.950 . S
H3909 C3921 0.950 . S
H3910 C3918 0.950 . S
H3911 C3920 0.950 . S
H3912 C3922 0.950 . S
H3913 C3924 0.950 . S
H3914 C3926 0.950 . S
H3915 C3927 0.950 . S
C3916 H3908 0.950 . S
C3916 C3917 1.386 . S
C3916 C3918 1.391 . S
C3917 C3916 1.386 . S
C3917 C3921 1.393 . S
C3918 H3910 0.950 . S
C3918 C3916 1.391 . S
C3918 C3919 1.400 . S
C3919 C3918 1.400 . S
C3919 C3920 1.398 . S
C3919 C3925 1.491 . S
C3920 H3911 0.950 . S
C3920 C3919 1.398 . S
C3920 C3921 1.391 . S
C3921 H3909 0.950 . S
C3921 C3917 1.393 . S
C3921 C3920 1.391 . S
C3922 H3912 0.950 . S
C3922 C3923 1.386 . S
C3922 C3924 1.391 . S
C3923 C3922 1.386 . S
C3923 C3927 1.393 . S
C3924 H3913 0.950 . S
C3924 C3922 1.391 . S
C3924 C3925 1.400 . S
C3925 C3919 1.491 . S
C3925 C3924 1.400 . S
C3925 C3926 1.398 . S
C3926 H3914 0.950 . S
C3926 C3925 1.398 . S
C3926 C3927 1.391 . S
C3927 H3915 0.950 . S
C3927 C3923 1.393 . S
C3927 C3926 1.391 . S
H3928 C3936 0.950 . S
H3929 C3941 0.950 . S
H3930 C3938 0.950 . S
H3931 C3940 0.950 . S
H3932 C3942 0.950 . S
H3933 C3944 0.950 . S
H3934 C3946 0.950 . S
H3935 C3947 0.950 . S
C3936 H3928 0.950 . S
C3936 C3937 1.386 . S
C3936 C3938 1.391 . S
C3937 C3936 1.386 . S
C3937 C3941 1.393 . S
C3938 H3930 0.950 . S
C3938 C3936 1.391 . S
C3938 C3939 1.400 . S
C3939 C3938 1.400 . S
C3939 C3940 1.398 . S
C3939 C3945 1.491 . S
C3940 H3931 0.950 . S
C3940 C3939 1.398 . S
C3940 C3941 1.391 . S
C3941 H3929 0.950 . S
C3941 C3937 1.393 . S
C3941 C3940 1.391 . S
C3942 H3932 0.950 . S
C3942 C3943 1.386 . S
C3942 C3944 1.391 . S
C3943 C3942 1.386 . S
C3943 C3947 1.393 . S
C3944 H3933 0.950 . S
C3944 C3942 1.391 . S
C3944 C3945 1.400 . S
C3945 C3939 1.491 . S
C3945 C3944 1.400 . S
C3945 C3946 1.398 . S
C3946 H3934 0.950 . S
C3946 C3945 1.398 . S
C3946 C3947 1.391 . S
C3947 H3935 0.950 . S
C3947 C3943 1.393 . S
C3947 C3946 1.391 . S
H3948 C3956 0.950 . S
H3949 C3961 0.950 . S
H3950 C3958 0.950 . S
H3951 C3960 0.950 . S
H3952 C3962 0.950 . S
H3953 C3964 0.950 . S
H3954 C3966 0.950 . S
H3955 C3967 0.950 . S
C3956 H3948 0.950 . S
C3956 C3957 1.386 . S
C3956 C3958 1.391 . S
C3957 C3956 1.386 . S
C3957 C3961 1.393 . S
C3958 H3950 0.950 . S
C3958 C3956 1.391 . S
C3958 C3959 1.400 . S
C3959 C3958 1.400 . S
C3959 C3960 1.398 . S
C3959 C3965 1.491 . S
C3960 H3951 0.950 . S
C3960 C3959 1.398 . S
C3960 C3961 1.391 . S
C3961 H3949 0.950 . S
C3961 C3957 1.393 . S
C3961 C3960 1.391 . S
C3962 H3952 0.950 . S
C3962 C3963 1.386 . S
C3962 C3964 1.391 . S
C3963 C3962 1.386 . S
C3963 C3967 1.393 . S
C3964 H3953 0.950 . S
C3964 C3962 1.391 . S
C3964 C3965 1.400 . S
C3965 C3959 1.491 . S
C3965 C3964 1.400 . S
C3965 C3966 1.398 . S
C3966 H3954 0.950 . S
C3966 C3965 1.398 . S
C3966 C3967 1.391 . S
C3967 H3955 0.950 . S
C3967 C3963 1.393 . S
C3967 C3966 1.391 . S
H3968 C3976 0.950 . S
H3969 C3981 0.950 . S
H3970 C3978 0.950 . S
H3971 C3980 0.950 . S
H3972 C3982 0.950 . S
H3973 C3984 0.950 . S
H3974 C3986 0.950 . S
H3975 C3987 0.950 . S
C3976 H3968 0.950 . S
C3976 C3977 1.386 1_545 S
C3976 C3978 1.391 . S
C3977 C3976 1.386 1_565 S
C3977 C3981 1.393 . S
C3978 H3970 0.950 . S
C3978 C3976 1.391 . S
C3978 C3979 1.400 1_545 S
C3979 C3978 1.400 1_565 S
C3979 C3980 1.398 . S
C3979 C3985 1.491 . S
C3980 H3971 0.950 . S
C3980 C3979 1.398 . S
C3980 C3981 1.391 . S
C3981 H3969 0.950 . S
C3981 C3977 1.393 . S
C3981 C3980 1.391 . S
C3982 H3972 0.950 . S
C3982 C3983 1.386 . S
C3982 C3984 1.391 . S
C3983 C3982 1.386 . S
C3983 C3987 1.393 1_565 S
C3984 H3973 0.950 . S
C3984 C3982 1.391 . S
C3984 C3985 1.400 . S
C3985 C3979 1.491 . S
C3985 C3984 1.400 . S
C3985 C3986 1.398 1_565 S
C3986 H3974 0.950 . S
C3986 C3985 1.398 1_545 S
C3986 C3987 1.391 . S
C3987 H3975 0.950 . S
C3987 C3983 1.393 1_545 S
C3987 C3986 1.391 . S
H3988 C3996 0.950 . S
H3989 C4001 0.950 . S
H3990 C3998 0.950 . S
H3991 C4000 0.950 . S
H3992 C4002 0.950 . S
H3993 C4004 0.950 1_655 S
H3994 C4006 0.950 . S
H3995 C4007 0.950 1_554 S
C3996 H3988 0.950 . S
C3996 C3997 1.386 . S
C3996 C3998 1.391 . S
C3997 C3996 1.386 . S
C3997 C4001 1.393 . S
C3998 H3990 0.950 . S
C3998 C3996 1.391 . S
C3998 C3999 1.400 . S
C3999 C3998 1.400 . S
C3999 C4000 1.398 . S
C3999 C4005 1.491 . S
C4000 H3991 0.950 . S
C4000 C3999 1.398 . S
C4000 C4001 1.391 . S
C4001 H3989 0.950 . S
C4001 C3997 1.393 . S
C4001 C4000 1.391 . S
C4002 H3992 0.950 . S
C4002 C4003 1.386 1_655 S
C4002 C4004 1.391 1_655 S
C4003 C4002 1.386 1_455 S
C4003 C4007 1.393 . S
C4004 H3993 0.950 1_455 S
C4004 C4002 1.391 1_455 S
C4004 C4005 1.400 . S
C4005 C3999 1.491 . S
C4005 C4004 1.400 . S
C4005 C4006 1.398 . S
C4006 H3994 0.950 . S
C4006 C4005 1.398 . S
C4006 C4007 1.391 . S
C4007 H3995 0.950 1_556 S
C4007 C4003 1.393 . S
C4007 C4006 1.391 . S
H4008 C4016 0.950 . S
H4009 C4021 0.950 . S
H4010 C4018 0.950 . S
H4011 C4020 0.950 . S
H4012 C4022 0.950 . S
H4013 C4024 0.950 . S
H4014 C4026 0.950 . S
H4015 C4027 0.950 . S
C4016 H4008 0.950 . S
C4016 C4017 1.386 . S
C4016 C4018 1.391 . S
C4017 C4016 1.386 . S
C4017 C4021 1.393 . S
C4018 H4010 0.950 . S
C4018 C4016 1.391 . S
C4018 C4019 1.400 . S
C4019 C4018 1.400 . S
C4019 C4020 1.398 . S
C4019 C4025 1.491 . S
C4020 H4011 0.950 . S
C4020 C4019 1.398 . S
C4020 C4021 1.391 . S
C4021 H4009 0.950 . S
C4021 C4017 1.393 . S
C4021 C4020 1.391 . S
C4022 H4012 0.950 . S
C4022 C4023 1.386 . S
C4022 C4024 1.391 . S
C4023 C4022 1.386 . S
C4023 C4027 1.393 . S
C4024 H4013 0.950 . S
C4024 C4022 1.391 . S
C4024 C4025 1.400 . S
C4025 C4019 1.491 . S
C4025 C4024 1.400 . S
C4025 C4026 1.398 . S
C4026 H4014 0.950 . S
C4026 C4025 1.398 . S
C4026 C4027 1.391 . S
C4027 H4015 0.950 . S
C4027 C4023 1.393 . S
C4027 C4026 1.391 . S
H4028 C4036 0.950 . S
H4029 C4041 0.950 . S
H4030 C4038 0.950 1_655 S
H4031 C4040 0.950 . S
H4032 C4042 0.950 . S
H4033 C4044 0.950 . S
H4034 C4046 0.950 . S
H4035 C4047 0.950 . S
C4036 H4028 0.950 . S
C4036 C4037 1.386 1_545 S
C4036 C4038 1.391 1_655 S
C4037 C4036 1.386 1_565 S
C4037 C4041 1.393 1_655 S
C4038 H4030 0.950 1_455 S
C4038 C4036 1.391 1_455 S
C4038 C4039 1.400 1_545 S
C4039 C4038 1.400 1_565 S
C4039 C4040 1.398 . S
C4039 C4045 1.491 . S
C4040 H4031 0.950 . S
C4040 C4039 1.398 . S
C4040 C4041 1.391 . S
C4041 H4029 0.950 . S
C4041 C4037 1.393 1_455 S
C4041 C4040 1.391 . S
C4042 H4032 0.950 . S
C4042 C4043 1.386 . S
C4042 C4044 1.391 . S
C4043 C4042 1.386 . S
C4043 C4047 1.393 1_565 S
C4044 H4033 0.950 . S
C4044 C4042 1.391 . S
C4044 C4045 1.400 . S
C4045 C4039 1.491 . S
C4045 C4044 1.400 . S
C4045 C4046 1.398 1_565 S
C4046 H4034 0.950 . S
C4046 C4045 1.398 1_545 S
C4046 C4047 1.391 . S
C4047 H4035 0.950 . S
C4047 C4043 1.393 1_545 S
C4047 C4046 1.391 . S
H4048 C4056 0.950 . S
H4049 C4061 0.950 . S
H4050 C4058 0.950 . S
H4051 C4060 0.950 . S
H4052 C4062 0.950 1_556 S
H4053 C4064 0.950 . S
H4054 C4066 0.950 . S
H4055 C4067 0.950 . S
C4056 H4048 0.950 . S
C4056 C4057 1.386 . S
C4056 C4058 1.391 . S
C4057 C4056 1.386 . S
C4057 C4061 1.393 1_545 S
C4058 H4050 0.950 . S
C4058 C4056 1.391 . S
C4058 C4059 1.400 . S
C4059 C4058 1.400 . S
C4059 C4060 1.398 1_545 S
C4059 C4065 1.491 . S
C4060 H4051 0.950 . S
C4060 C4059 1.398 1_565 S
C4060 C4061 1.391 . S
C4061 H4049 0.950 . S
C4061 C4057 1.393 1_565 S
C4061 C4060 1.391 . S
C4062 H4052 0.950 1_554 S
C4062 C4063 1.386 1_565 S
C4062 C4064 1.391 . S
C4063 C4062 1.386 1_545 S
C4063 C4067 1.393 . S
C4064 H4053 0.950 . S
C4064 C4062 1.391 . S
C4064 C4065 1.400 1_565 S
C4065 C4059 1.491 . S
C4065 C4064 1.400 1_545 S
C4065 C4066 1.398 . S
C4066 H4054 0.950 . S
C4066 C4065 1.398 . S
C4066 C4067 1.391 . S
C4067 H4055 0.950 . S
C4067 C4063 1.393 . S
C4067 C4066 1.391 . S
H4068 C4076 0.950 . S
H4069 C4081 0.950 . S
H4070 C4078 0.950 . S
H4071 C4080 0.950 . S
H4072 C4082 0.950 . S
H4073 C4084 0.950 . S
H4074 C4086 0.950 . S
H4075 C4087 0.950 . S
C4076 H4068 0.950 . S
C4076 C4077 1.382 1_655 S
C4076 C4078 1.391 . S
C4077 C4076 1.382 1_455 S
C4077 C4081 1.394 . S
C4078 H4070 0.950 . S
C4078 C4076 1.391 . S
C4078 C4079 1.400 . S
C4079 C4078 1.400 . S
C4079 C4080 1.398 . S
C4079 C4085 1.491 . S
C4080 H4071 0.950 . S
C4080 C4079 1.398 . S
C4080 C4081 1.391 1_655 S
C4081 H4069 0.950 . S
C4081 C4077 1.394 . S
C4081 C4080 1.391 1_455 S
C4082 H4072 0.950 . S
C4082 C4083 1.386 . S
C4082 C4084 1.391 . S
C4083 C4082 1.386 . S
C4083 C4087 1.393 . S
C4084 H4073 0.950 . S
C4084 C4082 1.391 . S
C4084 C4085 1.400 . S
C4085 C4079 1.491 . S
C4085 C4084 1.400 . S
C4085 C4086 1.398 . S
C4086 H4074 0.950 . S
C4086 C4085 1.398 . S
C4086 C4087 1.391 . S
C4087 H4075 0.950 . S
C4087 C4083 1.393 . S
C4087 C4086 1.391 . S
H4088 C4096 0.950 . S
H4089 C4101 0.950 . S
H4090 C4098 0.950 . S
H4091 C4100 0.950 . S
H4092 C4102 0.950 . S
H4093 C4104 0.950 . S
H4094 C4106 0.950 . S
H4095 C4107 0.950 . S
C4096 H4088 0.950 . S
C4096 C4097 1.386 . S
C4096 C4098 1.391 . S
C4097 C4096 1.386 . S
C4097 C4101 1.393 . S
C4098 H4090 0.950 . S
C4098 C4096 1.391 . S
C4098 C4099 1.400 . S
C4099 C4098 1.400 . S
C4099 C4100 1.398 . S
C4099 C4105 1.491 . S
C4100 H4091 0.950 . S
C4100 C4099 1.398 . S
C4100 C4101 1.391 . S
C4101 H4089 0.950 . S
C4101 C4097 1.393 . S
C4101 C4100 1.391 . S
C4102 H4092 0.950 . S
C4102 C4103 1.386 . S
C4102 C4104 1.391 . S
C4103 C4102 1.386 . S
C4103 C4107 1.393 . S
C4104 H4093 0.950 . S
C4104 C4102 1.391 . S
C4104 C4105 1.400 . S
C4105 C4099 1.491 . S
C4105 C4104 1.400 . S
C4105 C4106 1.398 . S
C4106 H4094 0.950 . S
C4106 C4105 1.398 . S
C4106 C4107 1.391 . S
C4107 H4095 0.950 . S
C4107 C4103 1.393 . S
C4107 C4106 1.391 . S
H4108 C4116 0.950 . S
H4109 C4121 0.950 . S
H4110 C4118 0.950 . S
H4111 C4120 0.950 . S
H4112 C4122 0.950 . S
H4113 C4124 0.950 . S
H4114 C4126 0.950 . S
H4115 C4127 0.950 . S
C4116 H4108 0.950 . S
C4116 C4117 1.386 1_565 S
C4116 C4118 1.391 . S
C4117 C4116 1.386 1_545 S
C4117 C4121 1.393 . S
C4118 H4110 0.950 . S
C4118 C4116 1.391 . S
C4118 C4119 1.400 1_565 S
C4119 C4118 1.400 1_545 S
C4119 C4120 1.398 . S
C4119 C4125 1.491 . S
C4120 H4111 0.950 . S
C4120 C4119 1.398 . S
C4120 C4121 1.391 . S
C4121 H4109 0.950 . S
C4121 C4117 1.393 . S
C4121 C4120 1.391 . S
C4122 H4112 0.950 . S
C4122 C4123 1.384 1_455 S
C4122 C4124 1.391 1_455 S
C4123 C4122 1.384 1_655 S
C4123 C4127 1.397 1_545 S
C4124 H4113 0.950 . S
C4124 C4122 1.391 1_655 S
C4124 C4125 1.400 . S
C4125 C4119 1.491 . S
C4125 C4124 1.400 . S
C4125 C4126 1.398 1_545 S
C4126 H4114 0.950 . S
C4126 C4125 1.398 1_565 S
C4126 C4127 1.391 . S
C4127 H4115 0.950 . S
C4127 C4123 1.397 1_565 S
C4127 C4126 1.391 . S
H4128 C4136 0.950 . S
H4129 C4141 0.950 . S
H4130 C4138 0.950 . S
H4131 C4140 0.950 . S
H4132 C4142 0.950 . S
H4133 C4144 0.950 . S
H4134 C4146 0.950 . S
H4135 C4147 0.950 . S
C4136 H4128 0.950 . S
C4136 C4137 1.386 . S
C4136 C4138 1.391 . S
C4137 C4136 1.386 . S
C4137 C4141 1.393 . S
C4138 H4130 0.950 . S
C4138 C4136 1.391 . S
C4138 C4139 1.400 . S
C4139 C4138 1.400 . S
C4139 C4140 1.398 . S
C4139 C4145 1.491 . S
C4140 H4131 0.950 . S
C4140 C4139 1.398 . S
C4140 C4141 1.391 . S
C4141 H4129 0.950 . S
C4141 C4137 1.393 . S
C4141 C4140 1.391 . S
C4142 H4132 0.950 . S
C4142 C4143 1.386 . S
C4142 C4144 1.391 . S
C4143 C4142 1.386 . S
C4143 C4147 1.393 . S
C4144 H4133 0.950 . S
C4144 C4142 1.391 . S
C4144 C4145 1.400 . S
C4145 C4139 1.491 . S
C4145 C4144 1.400 . S
C4145 C4146 1.398 . S
C4146 H4134 0.950 . S
C4146 C4145 1.398 . S
C4146 C4147 1.391 . S
C4147 H4135 0.950 . S
C4147 C4143 1.393 . S
C4147 C4146 1.391 . S
H4148 C4156 0.950 . S
H4149 C4161 0.950 . S
H4150 C4158 0.950 . S
H4151 C4160 0.950 . S
H4152 C4162 0.940 1_655 S
H4153 C4164 0.950 . S
H4154 C4166 0.950 . S
H4155 C4167 0.950 . S
C4156 H4148 0.950 . S
C4156 C4157 1.386 . S
C4156 C4158 1.391 . S
C4157 C4156 1.386 . S
C4157 C4161 1.393 . S
C4158 H4150 0.950 . S
C4158 C4156 1.391 . S
C4158 C4159 1.400 . S
C4159 C4158 1.400 . S
C4159 C4160 1.398 . S
C4159 C4165 1.491 . S
C4160 H4151 0.950 . S
C4160 C4159 1.398 . S
C4160 C4161 1.391 . S
C4161 H4149 0.950 . S
C4161 C4157 1.393 . S
C4161 C4160 1.391 . S
C4162 H4152 0.940 1_455 S
C4162 C4163 1.384 1_455 S
C4162 C4164 1.391 . S
C4163 C4162 1.384 1_655 S
C4163 C4167 1.390 1_655 S
C4164 H4153 0.950 . S
C4164 C4162 1.391 . S
C4164 C4165 1.400 . S
C4165 C4159 1.491 . S
C4165 C4164 1.400 . S
C4165 C4166 1.398 . S
C4166 H4154 0.950 . S
C4166 C4165 1.398 . S
C4166 C4167 1.391 . S
C4167 H4155 0.950 . S
C4167 C4163 1.390 1_455 S
C4167 C4166 1.391 . S
H4168 C4176 0.950 . S
H4169 C4181 0.950 . S
H4170 C4178 0.950 . S
H4171 C4180 0.950 . S
H4172 C4182 0.950 . S
H4173 C4184 0.950 . S
H4174 C4186 0.950 . S
H4175 C4187 0.950 . S
C4176 H4168 0.950 . S
C4176 C4177 1.386 . S
C4176 C4178 1.391 . S
C4177 C4176 1.386 . S
C4177 C4181 1.393 . S
C4178 H4170 0.950 . S
C4178 C4176 1.391 . S
C4178 C4179 1.400 . S
C4179 C4178 1.400 . S
C4179 C4180 1.398 . S
C4179 C4185 1.491 . S
C4180 H4171 0.950 . S
C4180 C4179 1.398 . S
C4180 C4181 1.391 . S
C4181 H4169 0.950 . S
C4181 C4177 1.393 . S
C4181 C4180 1.391 . S
C4182 H4172 0.950 . S
C4182 C4183 1.386 . S
C4182 C4184 1.391 . S
C4183 C4182 1.386 . S
C4183 C4187 1.393 . S
C4184 H4173 0.950 . S
C4184 C4182 1.391 . S
C4184 C4185 1.400 . S
C4185 C4179 1.491 . S
C4185 C4184 1.400 . S
C4185 C4186 1.398 . S
C4186 H4174 0.950 . S
C4186 C4185 1.398 . S
C4186 C4187 1.391 . S
C4187 H4175 0.950 . S
C4187 C4183 1.393 . S
C4187 C4186 1.391 . S
H4188 C4196 0.950 . S
H4189 C4201 0.950 . S
H4190 C4198 0.950 . S
H4191 C4200 0.950 . S
H4192 C4202 0.953 . S
H4193 C4204 0.950 . S
H4194 C4206 0.950 . S
H4195 C4207 0.950 . S
C4196 H4188 0.950 . S
C4196 C4197 1.386 . S
C4196 C4198 1.391 . S
C4197 C4196 1.386 . S
C4197 C4201 1.393 . S
C4198 H4190 0.950 . S
C4198 C4196 1.391 . S
C4198 C4199 1.400 . S
C4199 C4198 1.400 . S
C4199 C4200 1.398 . S
C4199 C4205 1.491 . S
C4200 H4191 0.950 . S
C4200 C4199 1.398 . S
C4200 C4201 1.391 . S
C4201 H4189 0.950 . S
C4201 C4197 1.393 . S
C4201 C4200 1.391 . S
C4202 H4192 0.953 . S
C4202 C4203 1.385 . S
C4202 C4204 1.388 1_655 S
C4203 C4202 1.385 . S
C4203 C4207 1.378 1_655 S
C4204 H4193 0.950 . S
C4204 C4202 1.388 1_455 S
C4204 C4205 1.400 . S
C4205 C4199 1.491 . S
C4205 C4204 1.400 . S
C4205 C4206 1.398 . S
C4206 H4194 0.950 . S
C4206 C4205 1.398 . S
C4206 C4207 1.391 . S
C4207 H4195 0.950 . S
C4207 C4203 1.378 1_455 S
C4207 C4206 1.391 . S
H4208 C4216 0.950 . S
H4209 C4221 0.950 . S
H4210 C4218 0.950 . S
H4211 C4220 0.950 . S
H4212 C4222 0.950 . S
H4213 C4224 0.950 . S
H4214 C4226 0.950 . S
H4215 C4227 0.950 . S
C4216 H4208 0.950 . S
C4216 C4217 1.386 . S
C4216 C4218 1.391 . S
C4217 C4216 1.386 . S
C4217 C4221 1.393 . S
C4218 H4210 0.950 . S
C4218 C4216 1.391 . S
C4218 C4219 1.400 . S
C4219 C4218 1.400 . S
C4219 C4220 1.398 . S
C4219 C4225 1.491 . S
C4220 H4211 0.950 . S
C4220 C4219 1.398 . S
C4220 C4221 1.391 . S
C4221 H4209 0.950 . S
C4221 C4217 1.393 . S
C4221 C4220 1.391 . S
C4222 H4212 0.950 . S
C4222 C4223 1.386 . S
C4222 C4224 1.391 . S
C4223 C4222 1.386 . S
C4223 C4227 1.393 . S
C4224 H4213 0.950 . S
C4224 C4222 1.391 . S
C4224 C4225 1.400 . S
C4225 C4219 1.491 . S
C4225 C4224 1.400 . S
C4225 C4226 1.398 . S
C4226 H4214 0.950 . S
C4226 C4225 1.398 . S
C4226 C4227 1.391 . S
C4227 H4215 0.950 . S
C4227 C4223 1.393 . S
C4227 C4226 1.391 . S
H4228 C4236 0.950 . S
H4229 C4241 0.950 . S
H4230 C4238 0.948 1_455 S
H4231 C4240 0.950 . S
H4232 C4242 0.950 . S
H4233 C4244 0.950 . S
H4234 C4246 0.950 . S
H4235 C4247 0.950 . S
C4236 H4228 0.950 . S
C4236 C4237 1.376 1_455 S
C4236 C4238 1.390 1_455 S
C4237 C4236 1.376 1_655 S
C4237 C4241 1.413 . S
C4238 H4230 0.948 1_655 S
C4238 C4236 1.390 1_655 S
C4238 C4239 1.403 . S
C4239 C4238 1.403 . S
C4239 C4240 1.398 . S
C4239 C4245 1.491 . S
C4240 H4231 0.950 . S
C4240 C4239 1.398 . S
C4240 C4241 1.391 . S
C4241 H4229 0.950 . S
C4241 C4237 1.413 . S
C4241 C4240 1.391 . S
C4242 H4232 0.950 . S
C4242 C4243 1.386 . S
C4242 C4244 1.391 . S
C4243 C4242 1.386 . S
C4243 C4247 1.393 . S
C4244 H4233 0.950 . S
C4244 C4242 1.391 . S
C4244 C4245 1.400 . S
C4245 C4239 1.491 . S
C4245 C4244 1.400 . S
C4245 C4246 1.398 . S
C4246 H4234 0.950 . S
C4246 C4245 1.398 . S
C4246 C4247 1.391 . S
C4247 H4235 0.950 . S
C4247 C4243 1.393 . S
C4247 C4246 1.391 . S
H4248 C4256 0.950 . S
H4249 C4261 0.950 . S
H4250 C4258 0.950 . S
H4251 C4260 0.950 . S
H4252 C4262 0.950 . S
H4253 C4264 0.950 . S
H4254 C4266 0.950 . S
H4255 C4267 0.950 . S
C4256 H4248 0.950 . S
C4256 C4257 1.386 . S
C4256 C4258 1.391 . S
C4257 C4256 1.386 . S
C4257 C4261 1.393 . S
C4258 H4250 0.950 . S
C4258 C4256 1.391 . S
C4258 C4259 1.400 . S
C4259 C4258 1.400 . S
C4259 C4260 1.398 . S
C4259 C4265 1.491 . S
C4260 H4251 0.950 . S
C4260 C4259 1.398 . S
C4260 C4261 1.391 . S
C4261 H4249 0.950 . S
C4261 C4257 1.393 . S
C4261 C4260 1.391 . S
C4262 H4252 0.950 . S
C4262 C4263 1.386 . S
C4262 C4264 1.391 . S
C4263 C4262 1.386 . S
C4263 C4267 1.393 . S
C4264 H4253 0.950 . S
C4264 C4262 1.391 . S
C4264 C4265 1.400 . S
C4265 C4259 1.491 . S
C4265 C4264 1.400 . S
C4265 C4266 1.398 . S
C4266 H4254 0.950 . S
C4266 C4265 1.398 . S
C4266 C4267 1.391 . S
C4267 H4255 0.950 . S
C4267 C4263 1.393 . S
C4267 C4266 1.391 . S
H4268 C4276 0.950 . S
H4269 C4281 0.950 . S
H4270 C4278 0.950 . S
H4271 C4280 0.950 . S
H4272 C4282 0.950 . S
H4273 C4284 0.950 . S
H4274 C4286 0.957 . S
H4275 C4287 0.950 . S
C4276 H4268 0.950 . S
C4276 C4277 1.386 . S
C4276 C4278 1.391 . S
C4277 C4276 1.386 . S
C4277 C4281 1.393 . S
C4278 H4270 0.950 . S
C4278 C4276 1.391 . S
C4278 C4279 1.400 . S
C4279 C4278 1.400 . S
C4279 C4280 1.398 . S
C4279 C4285 1.491 . S
C4280 H4271 0.950 . S
C4280 C4279 1.398 . S
C4280 C4281 1.391 . S
C4281 H4269 0.950 . S
C4281 C4277 1.393 . S
C4281 C4280 1.391 . S
C4282 H4272 0.950 . S
C4282 C4283 1.377 1_655 S
C4282 C4284 1.391 . S
C4283 C4282 1.377 1_455 S
C4283 C4287 1.397 . S
C4284 H4273 0.950 . S
C4284 C4282 1.391 . S
C4284 C4285 1.400 . S
C4285 C4279 1.491 . S
C4285 C4284 1.400 . S
C4285 C4286 1.385 1_655 S
C4286 H4274 0.957 . S
C4286 C4285 1.385 1_455 S
C4286 C4287 1.397 . S
C4287 H4275 0.950 . S
C4287 C4283 1.397 . S
C4287 C4286 1.397 . S
H4288 C4296 0.951 . S
H4289 C4301 0.950 . S
H4290 C4298 0.949 1_545 S
H4291 C4300 0.950 . S
H4292 C4302 0.950 . S
H4293 C4304 0.950 . S
H4294 C4306 0.950 . S
H4295 C4307 0.950 1_545 S
C4296 H4288 0.951 . S
C4296 C4297 1.386 . S
C4296 C4298 1.391 . S
C4297 C4296 1.386 . S
C4297 C4301 1.393 . S
C4298 H4290 0.949 1_565 S
C4298 C4296 1.391 . S
C4298 C4299 1.400 . S
C4299 C4298 1.400 . S
C4299 C4300 1.398 . S
C4299 C4305 1.491 . S
C4300 H4291 0.950 . S
C4300 C4299 1.398 . S
C4300 C4301 1.391 . S
C4301 H4289 0.950 . S
C4301 C4297 1.393 . S
C4301 C4300 1.391 . S
C4302 H4292 0.950 . S
C4302 C4303 1.386 . S
C4302 C4304 1.391 . S
C4303 C4302 1.386 . S
C4303 C4307 1.393 . S
C4304 H4293 0.950 . S
C4304 C4302 1.391 . S
C4304 C4305 1.400 . S
C4305 C4299 1.491 . S
C4305 C4304 1.400 . S
C4305 C4306 1.398 1_565 S
C4306 H4294 0.950 . S
C4306 C4305 1.398 1_545 S
C4306 C4307 1.391 1_545 S
C4307 H4295 0.950 1_565 S
C4307 C4303 1.393 . S
C4307 C4306 1.391 1_565 S
H4308 C4316 0.950 . S
H4309 C4321 0.950 . S
H4310 C4318 0.950 . S
H4311 C4320 0.950 . S
H4312 C4322 0.950 . S
H4313 C4324 0.950 . S
H4314 C4326 0.950 . S
H4315 C4327 0.950 . S
C4316 H4308 0.950 . S
C4316 C4317 1.386 . S
C4316 C4318 1.391 . S
C4317 C4316 1.386 . S
C4317 C4321 1.393 . S
C4318 H4310 0.950 . S
C4318 C4316 1.391 . S
C4318 C4319 1.400 . S
C4319 C4318 1.400 . S
C4319 C4320 1.398 . S
C4319 C4325 1.491 . S
C4320 H4311 0.950 . S
C4320 C4319 1.398 . S
C4320 C4321 1.391 . S
C4321 H4309 0.950 . S
C4321 C4317 1.393 . S
C4321 C4320 1.391 . S
C4322 H4312 0.950 . S
C4322 C4323 1.386 . S
C4322 C4324 1.391 . S
C4323 C4322 1.386 . S
C4323 C4327 1.393 . S
C4324 H4313 0.950 . S
C4324 C4322 1.391 . S
C4324 C4325 1.400 . S
C4325 C4319 1.491 . S
C4325 C4324 1.400 . S
C4325 C4326 1.398 . S
C4326 H4314 0.950 . S
C4326 C4325 1.398 . S
C4326 C4327 1.391 . S
C4327 H4315 0.950 . S
C4327 C4323 1.393 . S
C4327 C4326 1.391 . S
H4328 C4336 0.950 . S
H4329 C4341 0.950 . S
H4330 C4338 0.950 . S
H4331 C4340 0.950 . S
H4332 C4342 0.950 . S
H4333 C4344 0.950 . S
H4334 C4346 0.950 . S
H4335 C4347 0.950 . S
C4336 H4328 0.950 . S
C4336 C4337 1.386 . S
C4336 C4338 1.391 . S
C4337 C4336 1.386 . S
C4337 C4341 1.393 . S
C4338 H4330 0.950 . S
C4338 C4336 1.391 . S
C4338 C4339 1.400 . S
C4339 C4338 1.400 . S
C4339 C4340 1.398 . S
C4339 C4345 1.491 . S
C4340 H4331 0.950 . S
C4340 C4339 1.398 . S
C4340 C4341 1.391 . S
C4341 H4329 0.950 . S
C4341 C4337 1.393 . S
C4341 C4340 1.391 . S
C4342 H4332 0.950 . S
C4342 C4343 1.386 . S
C4342 C4344 1.391 . S
C4343 C4342 1.386 . S
C4343 C4347 1.393 . S
C4344 H4333 0.950 . S
C4344 C4342 1.391 . S
C4344 C4345 1.400 . S
C4345 C4339 1.491 . S
C4345 C4344 1.400 . S
C4345 C4346 1.398 . S
C4346 H4334 0.950 . S
C4346 C4345 1.398 . S
C4346 C4347 1.391 . S
C4347 H4335 0.950 . S
C4347 C4343 1.393 . S
C4347 C4346 1.391 . S
H4348 C4356 0.950 . S
H4349 C4361 0.950 . S
H4350 C4358 0.950 . S
H4351 C4360 0.950 . S
H4352 C4362 0.950 . S
H4353 C4364 0.950 . S
H4354 C4366 0.950 . S
H4355 C4367 0.950 . S
C4356 H4348 0.950 . S
C4356 C4357 1.386 1_545 S
C4356 C4358 1.391 . S
C4357 C4356 1.386 1_565 S
C4357 C4361 1.393 . S
C4358 H4350 0.950 . S
C4358 C4356 1.391 . S
C4358 C4359 1.400 1_545 S
C4359 C4358 1.400 1_565 S
C4359 C4360 1.398 . S
C4359 C4365 1.491 . S
C4360 H4351 0.950 . S
C4360 C4359 1.398 . S
C4360 C4361 1.391 . S
C4361 H4349 0.950 . S
C4361 C4357 1.393 . S
C4361 C4360 1.391 . S
C4362 H4352 0.950 . S
C4362 C4363 1.386 . S
C4362 C4364 1.391 . S
C4363 C4362 1.386 . S
C4363 C4367 1.393 1_565 S
C4364 H4353 0.950 . S
C4364 C4362 1.391 . S
C4364 C4365 1.400 . S
C4365 C4359 1.491 . S
C4365 C4364 1.400 . S
C4365 C4366 1.398 1_565 S
C4366 H4354 0.950 . S
C4366 C4365 1.398 1_545 S
C4366 C4367 1.391 . S
C4367 H4355 0.950 . S
C4367 C4363 1.393 1_545 S
C4367 C4366 1.391 . S
H4368 C4376 0.950 . S
H4369 C4381 0.950 . S
H4370 C4378 0.950 . S
H4371 C4380 0.950 . S
H4372 C4382 0.950 . S
H4373 C4384 0.950 . S
H4374 C4386 0.950 . S
H4375 C4387 0.950 . S
C4376 H4368 0.950 . S
C4376 C4377 1.386 1_565 S
C4376 C4378 1.391 . S
C4377 C4376 1.386 1_545 S
C4377 C4381 1.393 . S
C4378 H4370 0.950 . S
C4378 C4376 1.391 . S
C4378 C4379 1.400 1_565 S
C4379 C4378 1.400 1_545 S
C4379 C4380 1.398 . S
C4379 C4385 1.491 . S
C4380 H4371 0.950 . S
C4380 C4379 1.398 . S
C4380 C4381 1.391 . S
C4381 H4369 0.950 . S
C4381 C4377 1.393 . S
C4381 C4380 1.391 . S
C4382 H4372 0.950 . S
C4382 C4383 1.386 . S
C4382 C4384 1.391 . S
C4383 C4382 1.386 . S
C4383 C4387 1.393 1_545 S
C4384 H4373 0.950 . S
C4384 C4382 1.391 . S
C4384 C4385 1.400 . S
C4385 C4379 1.491 . S
C4385 C4384 1.400 . S
C4385 C4386 1.398 1_545 S
C4386 H4374 0.950 . S
C4386 C4385 1.398 1_565 S
C4386 C4387 1.391 . S
C4387 H4375 0.950 . S
C4387 C4383 1.393 1_565 S
C4387 C4386 1.391 . S
H4388 C4396 0.950 . S
H4389 C4401 0.950 . S
H4390 C4398 0.950 . S
H4391 C4400 0.950 . S
H4392 C4402 0.950 . S
H4393 C4404 0.950 . S
H4394 C4406 0.950 . S
H4395 C4407 0.950 . S
C4396 H4388 0.950 . S
C4396 C4397 1.386 . S
C4396 C4398 1.391 . S
C4397 C4396 1.386 . S
C4397 C4401 1.393 . S
C4398 H4390 0.950 . S
C4398 C4396 1.391 . S
C4398 C4399 1.400 . S
C4399 C4398 1.400 . S
C4399 C4400 1.398 . S
C4399 C4405 1.491 . S
C4400 H4391 0.950 . S
C4400 C4399 1.398 . S
C4400 C4401 1.391 . S
C4401 H4389 0.950 . S
C4401 C4397 1.393 . S
C4401 C4400 1.391 . S
C4402 H4392 0.950 . S
C4402 C4403 1.386 . S
C4402 C4404 1.391 . S
C4403 C4402 1.386 . S
C4403 C4407 1.393 . S
C4404 H4393 0.950 . S
C4404 C4402 1.391 . S
C4404 C4405 1.400 . S
C4405 C4399 1.491 . S
C4405 C4404 1.400 . S
C4405 C4406 1.398 . S
C4406 H4394 0.950 . S
C4406 C4405 1.398 . S
C4406 C4407 1.391 . S
C4407 H4395 0.950 . S
C4407 C4403 1.393 . S
C4407 C4406 1.391 . S
H4408 C4416 0.950 . S
H4409 C4421 0.950 . S
H4410 C4418 0.950 . S
H4411 C4420 0.950 . S
H4412 C4422 0.950 . S
H4413 C4424 0.950 . S
H4414 C4426 0.950 . S
H4415 C4427 0.950 . S
C4416 H4408 0.950 . S
C4416 C4417 1.386 . S
C4416 C4418 1.391 . S
C4417 C4416 1.386 . S
C4417 C4421 1.393 . S
C4418 H4410 0.950 . S
C4418 C4416 1.391 . S
C4418 C4419 1.400 . S
C4419 C4418 1.400 . S
C4419 C4420 1.398 . S
C4419 C4425 1.491 . S
C4420 H4411 0.950 . S
C4420 C4419 1.398 . S
C4420 C4421 1.391 . S
C4421 H4409 0.950 . S
C4421 C4417 1.393 . S
C4421 C4420 1.391 . S
C4422 H4412 0.950 . S
C4422 C4423 1.386 . S
C4422 C4424 1.391 . S
C4423 C4422 1.386 . S
C4423 C4427 1.393 . S
C4424 H4413 0.950 . S
C4424 C4422 1.391 . S
C4424 C4425 1.400 . S
C4425 C4419 1.491 . S
C4425 C4424 1.400 . S
C4425 C4426 1.398 . S
C4426 H4414 0.950 . S
C4426 C4425 1.398 . S
C4426 C4427 1.391 . S
C4427 H4415 0.950 . S
C4427 C4423 1.393 . S
C4427 C4426 1.391 . S
H4428 C4436 0.950 . S
H4429 C4441 0.950 . S
H4430 C4438 0.950 . S
H4431 C4440 0.950 . S
H4432 C4442 0.950 . S
H4433 C4444 0.950 . S
H4434 C4446 0.950 . S
H4435 C4447 0.950 . S
C4436 H4428 0.950 . S
C4436 C4437 1.386 . S
C4436 C4438 1.391 . S
C4437 C4436 1.386 . S
C4437 C4441 1.393 . S
C4438 H4430 0.950 . S
C4438 C4436 1.391 . S
C4438 C4439 1.400 . S
C4439 C4438 1.400 . S
C4439 C4440 1.398 . S
C4439 C4445 1.491 . S
C4440 H4431 0.950 . S
C4440 C4439 1.398 . S
C4440 C4441 1.391 . S
C4441 H4429 0.950 . S
C4441 C4437 1.393 . S
C4441 C4440 1.391 . S
C4442 H4432 0.950 . S
C4442 C4443 1.386 . S
C4442 C4444 1.391 . S
C4443 C4442 1.386 . S
C4443 C4447 1.393 . S
C4444 H4433 0.950 . S
C4444 C4442 1.391 . S
C4444 C4445 1.400 . S
C4445 C4439 1.491 . S
C4445 C4444 1.400 . S
C4445 C4446 1.398 . S
C4446 H4434 0.950 . S
C4446 C4445 1.398 . S
C4446 C4447 1.391 . S
C4447 H4435 0.950 . S
C4447 C4443 1.393 . S
C4447 C4446 1.391 . S
H4448 C4456 0.950 . S
H4449 C4461 0.950 . S
H4450 C4458 0.950 . S
H4451 C4460 0.950 . S
H4452 C4462 0.950 . S
H4453 C4464 0.950 . S
H4454 C4466 0.950 . S
H4455 C4467 0.950 . S
C4456 H4448 0.950 . S
C4456 C4457 1.386 . S
C4456 C4458 1.391 . S
C4457 C4456 1.386 . S
C4457 C4461 1.393 . S
C4458 H4450 0.950 . S
C4458 C4456 1.391 . S
C4458 C4459 1.400 . S
C4459 C4458 1.400 . S
C4459 C4460 1.398 . S
C4459 C4465 1.491 . S
C4460 H4451 0.950 . S
C4460 C4459 1.398 . S
C4460 C4461 1.391 . S
C4461 H4449 0.950 . S
C4461 C4457 1.393 . S
C4461 C4460 1.391 . S
C4462 H4452 0.950 . S
C4462 C4463 1.386 . S
C4462 C4464 1.391 . S
C4463 C4462 1.386 . S
C4463 C4467 1.393 . S
C4464 H4453 0.950 . S
C4464 C4462 1.391 . S
C4464 C4465 1.400 . S
C4465 C4459 1.491 . S
C4465 C4464 1.400 . S
C4465 C4466 1.398 . S
C4466 H4454 0.950 . S
C4466 C4465 1.398 . S
C4466 C4467 1.391 . S
C4467 H4455 0.950 . S
C4467 C4463 1.393 . S
C4467 C4466 1.391 . S
H4468 C4476 0.950 . S
H4469 C4481 0.950 . S
H4470 C4478 0.950 . S
H4471 C4480 0.950 . S
H4472 C4482 0.950 . S
H4473 C4484 0.950 . S
H4474 C4486 0.950 . S
H4475 C4487 0.950 . S
C4476 H4468 0.950 . S
C4476 C4477 1.386 . S
C4476 C4478 1.391 . S
C4477 C4476 1.386 . S
C4477 C4481 1.393 . S
C4478 H4470 0.950 . S
C4478 C4476 1.391 . S
C4478 C4479 1.400 . S
C4479 C4478 1.400 . S
C4479 C4480 1.398 . S
C4479 C4485 1.491 . S
C4480 H4471 0.950 . S
C4480 C4479 1.398 . S
C4480 C4481 1.391 . S
C4481 H4469 0.950 . S
C4481 C4477 1.393 . S
C4481 C4480 1.391 . S
C4482 H4472 0.950 . S
C4482 C4483 1.386 . S
C4482 C4484 1.391 . S
C4483 C4482 1.386 . S
C4483 C4487 1.393 . S
C4484 H4473 0.950 . S
C4484 C4482 1.391 . S
C4484 C4485 1.400 . S
C4485 C4479 1.491 . S
C4485 C4484 1.400 . S
C4485 C4486 1.398 . S
C4486 H4474 0.950 . S
C4486 C4485 1.398 . S
C4486 C4487 1.391 . S
C4487 H4475 0.950 . S
C4487 C4483 1.393 . S
C4487 C4486 1.391 . S
H4488 C4496 0.950 . S
H4489 C4501 0.950 . S
H4490 C4498 0.950 . S
H4491 C4500 0.950 . S
H4492 C4502 0.950 . S
H4493 C4504 0.950 . S
H4494 C4506 0.950 . S
H4495 C4507 0.950 . S
C4496 H4488 0.950 . S
C4496 C4497 1.386 . S
C4496 C4498 1.391 . S
C4497 C4496 1.386 . S
C4497 C4501 1.393 . S
C4498 H4490 0.950 . S
C4498 C4496 1.391 . S
C4498 C4499 1.400 . S
C4499 C4498 1.400 . S
C4499 C4500 1.398 . S
C4499 C4505 1.491 . S
C4500 H4491 0.950 . S
C4500 C4499 1.398 . S
C4500 C4501 1.391 . S
C4501 H4489 0.950 . S
C4501 C4497 1.393 . S
C4501 C4500 1.391 . S
C4502 H4492 0.950 . S
C4502 C4503 1.386 . S
C4502 C4504 1.391 . S
C4503 C4502 1.386 . S
C4503 C4507 1.393 . S
C4504 H4493 0.950 . S
C4504 C4502 1.391 . S
C4504 C4505 1.400 . S
C4505 C4499 1.491 . S
C4505 C4504 1.400 . S
C4505 C4506 1.398 . S
C4506 H4494 0.950 . S
C4506 C4505 1.398 . S
C4506 C4507 1.391 . S
C4507 H4495 0.950 . S
C4507 C4503 1.393 . S
C4507 C4506 1.391 . S
H4508 C4516 0.950 . S
H4509 C4521 0.950 . S
H4510 C4518 0.950 . S
H4511 C4520 0.950 . S
H4512 C4522 0.950 . S
H4513 C4524 0.950 . S
H4514 C4526 0.950 . S
H4515 C4527 0.950 . S
C4516 H4508 0.950 . S
C4516 C4517 1.386 . S
C4516 C4518 1.391 . S
C4517 C4516 1.386 . S
C4517 C4521 1.393 . S
C4518 H4510 0.950 . S
C4518 C4516 1.391 . S
C4518 C4519 1.400 . S
C4519 C4518 1.400 . S
C4519 C4520 1.398 . S
C4519 C4525 1.491 . S
C4520 H4511 0.950 . S
C4520 C4519 1.398 . S
C4520 C4521 1.391 . S
C4521 H4509 0.950 . S
C4521 C4517 1.393 . S
C4521 C4520 1.391 . S
C4522 H4512 0.950 . S
C4522 C4523 1.386 . S
C4522 C4524 1.391 . S
C4523 C4522 1.386 . S
C4523 C4527 1.393 . S
C4524 H4513 0.950 . S
C4524 C4522 1.391 . S
C4524 C4525 1.400 . S
C4525 C4519 1.491 . S
C4525 C4524 1.400 . S
C4525 C4526 1.398 . S
C4526 H4514 0.950 . S
C4526 C4525 1.398 . S
C4526 C4527 1.391 . S
C4527 H4515 0.950 . S
C4527 C4523 1.393 . S
C4527 C4526 1.391 . S
H4528 C4536 0.950 . S
H4529 C4541 0.950 . S
H4530 C4538 0.950 . S
H4531 C4540 0.950 . S
H4532 C4542 0.950 1_556 S
H4533 C4544 0.950 . S
H4534 C4546 0.950 . S
H4535 C4547 0.950 . S
C4536 H4528 0.950 . S
C4536 C4537 1.386 . S
C4536 C4538 1.391 . S
C4537 C4536 1.386 . S
C4537 C4541 1.393 . S
C4538 H4530 0.950 . S
C4538 C4536 1.391 . S
C4538 C4539 1.400 . S
C4539 C4538 1.400 . S
C4539 C4540 1.398 . S
C4539 C4545 1.491 . S
C4540 H4531 0.950 . S
C4540 C4539 1.398 . S
C4540 C4541 1.391 . S
C4541 H4529 0.950 . S
C4541 C4537 1.393 . S
C4541 C4540 1.391 . S
C4542 H4532 0.950 1_554 S
C4542 C4543 1.386 . S
C4542 C4544 1.391 . S
C4543 C4542 1.386 . S
C4543 C4547 1.393 . S
C4544 H4533 0.950 . S
C4544 C4542 1.391 . S
C4544 C4545 1.400 . S
C4545 C4539 1.491 . S
C4545 C4544 1.400 . S
C4545 C4546 1.398 . S
C4546 H4534 0.950 . S
C4546 C4545 1.398 . S
C4546 C4547 1.391 . S
C4547 H4535 0.950 . S
C4547 C4543 1.393 . S
C4547 C4546 1.391 . S
H4548 C4556 0.950 . S
H4549 C4561 0.950 . S
H4550 C4558 0.950 . S
H4551 C4560 0.950 . S
H4552 C4562 0.950 . S
H4553 C4564 0.950 . S
H4554 C4566 0.950 . S
H4555 C4567 0.950 1_556 S
C4556 H4548 0.950 . S
C4556 C4557 1.386 . S
C4556 C4558 1.391 . S
C4557 C4556 1.386 . S
C4557 C4561 1.393 . S
C4558 H4550 0.950 . S
C4558 C4556 1.391 . S
C4558 C4559 1.400 . S
C4559 C4558 1.400 . S
C4559 C4560 1.398 . S
C4559 C4565 1.491 . S
C4560 H4551 0.950 . S
C4560 C4559 1.398 . S
C4560 C4561 1.391 . S
C4561 H4549 0.950 . S
C4561 C4557 1.393 . S
C4561 C4560 1.391 . S
C4562 H4552 0.950 . S
C4562 C4563 1.386 . S
C4562 C4564 1.391 . S
C4563 C4562 1.386 . S
C4563 C4567 1.393 . S
C4564 H4553 0.950 . S
C4564 C4562 1.391 . S
C4564 C4565 1.400 . S
C4565 C4559 1.491 . S
C4565 C4564 1.400 . S
C4565 C4566 1.398 . S
C4566 H4554 0.950 . S
C4566 C4565 1.398 . S
C4566 C4567 1.391 . S
C4567 H4555 0.950 1_554 S
C4567 C4563 1.393 . S
C4567 C4566 1.391 . S
H4568 C4576 0.950 . S
H4569 C4581 0.950 . S
H4570 C4578 0.950 . S
H4571 C4580 0.950 . S
H4572 C4582 0.950 . S
H4573 C4584 0.950 . S
H4574 C4586 0.950 . S
H4575 C4587 0.950 . S
C4576 H4568 0.950 . S
C4576 C4577 1.386 . S
C4576 C4578 1.391 . S
C4577 C4576 1.386 . S
C4577 C4581 1.393 . S
C4578 H4570 0.950 . S
C4578 C4576 1.391 . S
C4578 C4579 1.400 . S
C4579 C4578 1.400 . S
C4579 C4580 1.398 . S
C4579 C4585 1.491 . S
C4580 H4571 0.950 . S
C4580 C4579 1.398 . S
C4580 C4581 1.391 . S
C4581 H4569 0.950 . S
C4581 C4577 1.393 . S
C4581 C4580 1.391 . S
C4582 H4572 0.950 . S
C4582 C4583 1.386 . S
C4582 C4584 1.391 . S
C4583 C4582 1.386 . S
C4583 C4587 1.393 . S
C4584 H4573 0.950 . S
C4584 C4582 1.391 . S
C4584 C4585 1.400 . S
C4585 C4579 1.491 . S
C4585 C4584 1.400 . S
C4585 C4586 1.398 . S
C4586 H4574 0.950 . S
C4586 C4585 1.398 . S
C4586 C4587 1.391 . S
C4587 H4575 0.950 . S
C4587 C4583 1.393 . S
C4587 C4586 1.391 . S
H4588 C4596 0.950 . S
H4589 C4601 0.950 . S
H4590 C4598 0.950 . S
H4591 C4600 0.950 . S
H4592 C4602 0.950 . S
H4593 C4604 0.950 . S
H4594 C4606 0.950 . S
H4595 C4607 0.950 . S
C4596 H4588 0.950 . S
C4596 C4597 1.386 . S
C4596 C4598 1.391 . S
C4597 C4596 1.386 . S
C4597 C4601 1.393 . S
C4598 H4590 0.950 . S
C4598 C4596 1.391 . S
C4598 C4599 1.400 . S
C4599 C4598 1.400 . S
C4599 C4600 1.398 . S
C4599 C4605 1.491 . S
C4600 H4591 0.950 . S
C4600 C4599 1.398 . S
C4600 C4601 1.391 . S
C4601 H4589 0.950 . S
C4601 C4597 1.393 . S
C4601 C4600 1.391 . S
C4602 H4592 0.950 . S
C4602 C4603 1.386 . S
C4602 C4604 1.391 . S
C4603 C4602 1.386 . S
C4603 C4607 1.393 . S
C4604 H4593 0.950 . S
C4604 C4602 1.391 . S
C4604 C4605 1.400 . S
C4605 C4599 1.491 . S
C4605 C4604 1.400 . S
C4605 C4606 1.398 . S
C4606 H4594 0.950 . S
C4606 C4605 1.398 . S
C4606 C4607 1.391 . S
C4607 H4595 0.950 . S
C4607 C4603 1.393 . S
C4607 C4606 1.391 . S
C2697 C2163 1.373 . S
C2703 C63 1.409 . S
C2717 C2079 1.334 . S
C2723 C147 1.299 . S
C2737 C2331 1.334 . S
C2743 C231 1.299 . S
C2757 C2247 1.386 . S
C2763 C315 1.373 . S
C2777 C410 1.395 . S
C2783 C2510 1.372 . S
C2797 C494 1.328 . S
C2803 C2426 1.298 . S
C2817 C578 1.299 . S
C2823 C2678 1.334 . S
C2837 C2594 1.395 . S
C2843 C662 1.371 . S
C2857 C1491 1.337 . S
C2863 C735 1.304 . S
C2877 C1407 1.367 . S
C2883 C819 1.393 . S
C2897 C1659 1.389 . S
C2903 C903 1.406 . S
C2917 C1575 1.321 . S
C2923 C987 1.336 . S
C2937 C1082 1.298 . S
C2943 C1838 1.323 . S
C2957 C1754 1.402 . S
C2963 C1166 1.393 . S
C2977 C1250 1.400 . S
C2983 C2006 1.372 . S
C2997 C1922 1.322 . S
C3003 C1334 1.299 . S
C3017 C70 0.757 . S
C3023 C1738 0.746 . S
C3037 C1150 0.653 1_455 S
C3043 C154 0.653 1_655 S
C3057 C2578 0.620 . S
C3063 C238 0.620 . S
C3077 C322 0.758 . S
C3083 C646 0.746 . S
C3097 C394 0.673 . S
C3103 C1414 0.661 . S
C3117 C478 0.616 1_455 S
C3123 C826 0.616 1_655 S
C3137 C562 0.697 . S
C3143 C2254 0.698 . S
C3157 C2410 0.716 . S
C3163 C742 0.716 . S
C3177 C1906 0.630 . S
C3183 C910 0.631 . S
C3197 C1318 0.641 1_455 S
C3203 C994 0.641 1_655 S
C3217 C2086 0.624 . S
C3223 C1066 0.624 . S
C3237 C1234 0.630 . S
C3243 C1582 0.630 . S
C3257 C2494 0.624 . S
C3263 C1498 0.623 . S
C3277 C1666 0.757 . S
C3283 C1990 0.746 . S
C3297 C2170 0.622 . S
C3303 C1822 0.621 . S
C3317 C2338 0.640 . S
C3323 C2662 0.640 . S
C3337 C58 0.871 . S
C3343 C1654 0.801 . S
C3357 C142 0.777 . S
C3363 C1570 0.847 . S
C3377 C226 0.783 . S
C3383 C1486 0.844 . S
C3397 C310 0.801 . S
C3403 C1402 0.870 . S
C3417 C406 0.843 . S
C3423 C2002 0.826 . S
C3437 C490 0.844 . S
C3443 C1918 0.779 . S
C3457 C574 0.776 . S
C3463 C1834 0.847 . S
C3477 C658 0.801 . S
C3483 C1750 0.871 . S
C3497 C730 0.859 . S
C3503 C2326 0.794 . S
C3517 C814 0.847 . S
C3523 C2242 0.783 . S
C3537 C898 0.841 . S
C3543 C2158 0.791 . S
C3557 C982 0.796 . S
C3563 C2074 0.858 . S
C3577 C2674 0.795 . S
C3583 C1078 0.858 . S
C3597 C2590 0.791 . S
C3603 C1162 0.841 . S
C3617 C2506 0.781 . S
C3623 C1246 0.845 . S
C3637 C2422 0.838 . S
C3643 C1330 0.810 . S
C3657 C242 2.098 . S
C3663 C74 2.088 . S
C3677 C326 2.100 . S
C3683 C158 2.093 . S
C3697 C567 2.101 . S
C3703 C399 2.092 . S
C3717 C483 2.096 . S
C3723 C651 2.087 . S
C3737 C914 2.160 . S
C3743 C746 2.164 . S
C3757 C830 2.163 . S
C3763 C998 2.167 . S
C3777 C1239 2.164 . S
C3783 C1071 2.160 . S
C3797 C1155 2.167 . S
C3803 C1323 2.162 . S
C3817 C1418 2.093 . S
C3823 C1586 2.088 . S
C3837 C1502 2.099 . S
C3843 C1670 2.095 . S
C3857 C1911 2.095 . S
C3863 C1743 2.087 . S
C3877 C1827 2.100 . S
C3883 C1995 2.093 . S
C3897 C2090 2.162 . S
C3903 C2258 2.159 . S
C3917 C2342 2.162 . S
C3923 C2174 2.159 . S
C3937 C2415 2.165 . S
C3943 C2583 2.167 . S
C3957 C2499 2.160 . S
C3963 C2667 2.160 . S
C3977 C56 2.752 1_566 S
C3983 C644 2.750 1_565 S
C3997 C2576 2.783 . S
C4003 C140 2.760 1_456 S
C4017 C224 2.767 . S
C4023 C1148 2.777 . S
C4037 C308 2.760 1_565 S
C4043 C1736 2.752 1_565 S
C4057 C319 2.757 1_545 S
C4063 C403 2.751 1_544 S
C4077 C487 2.755 1_554 S
C4083 C2251 2.765 . S
C4097 C823 2.767 . S
C4103 C571 2.759 . S
C4117 C1411 2.765 1_545 S
C4123 C655 2.765 1_645 S
C4137 C728 2.762 . S
C4143 C1316 2.764 . S
C4157 C1904 2.771 . S
C4163 C812 2.758 . S
C4177 C896 2.754 . S
C4183 C476 2.779 . S
C4197 C2408 2.761 . S
C4203 C980 2.766 . S
C4217 C1075 2.765 . S
C4223 C991 2.775 . S
C4237 C1159 2.743 1_655 S
C4243 C1579 2.781 . S
C4257 C1243 2.770 . S
C4263 C151 2.780 . S
C4277 C2083 2.768 . S
C4283 C1327 2.754 . S
C4297 C1400 2.763 1_565 S
C4303 C1988 2.754 1_565 S
C4317 C1484 2.751 . S
C4323 C1232 2.776 . S
C4337 C1568 2.748 . S
C4343 C2492 2.767 . S
C4357 C1652 2.750 1_565 S
C4363 C392 2.752 1_565 S
C4377 C1747 2.768 1_545 S
C4383 C1663 2.764 1_545 S
C4397 C907 2.775 . S
C4403 C1831 2.750 . S
C4417 C2167 2.774 . S
C4423 C1915 2.749 . S
C4437 C1999 2.761 1_545 S
C4443 C67 2.753 1_545 S
C4457 C2660 2.760 . S
C4463 C2072 2.747 1_556 S
C4477 C560 2.786 . S
C4483 C2156 2.769 1_556 S
C4497 C1820 2.786 . S
C4503 C2240 2.762 . S
C4517 C2324 2.765 . S
C4523 C1064 2.769 . S
C4537 C2335 2.769 . S
C4543 C2419 2.749 1_554 S
C4557 C235 2.776 . S
C4563 C2503 2.767 1_554 S
C4577 C1495 2.774 . S
C4583 C2587 2.752 . S
C4597 C2671 2.756 . S
C4603 C739 2.759 . S
