# Generated by pormake.
# Topology sml, (6)-cn, num edge types: 1
# Building blocks:
#     Node 0, Type 0, BuildingBlock: IZENUY_clean_sbu_0, # of connection points: 6
#     Node 1, Type 0, BuildingBlock: IZENUY_clean_sbu_0, # of connection points: 6
#     Node 2, Type 0, BuildingBlock: IZENUY_clean_sbu_0, # of connection points: 6
#     Node 3, Type 0, BuildingBlock: IZENUY_clean_sbu_0, # of connection points: 6
#     Node 4, Type 0, BuildingBlock: IZENUY_clean_sbu_0, # of connection points: 6
#     Node 5, Type 0, BuildingBlock: IZENUY_clean_sbu_0, # of connection points: 6
#     Edge 6, Type (0, 0), BuildingBlock: FUNLAD_clean_linker_1, # of connection points: 2
#     Edge 7, Type (0, 0), BuildingBlock: FUNLAD_clean_linker_1, # of connection points: 2
#     Edge 8, Type (0, 0), BuildingBlock: FUNLAD_clean_linker_1, # of connection points: 2
#     Edge 9, Type (0, 0), BuildingBlock: FUNLAD_clean_linker_1, # of connection points: 2
#     Edge 10, Type (0, 0), BuildingBlock: FUNLAD_clean_linker_1, # of connection points: 2
#     Edge 11, Type (0, 0), BuildingBlock: FUNLAD_clean_linker_1, # of connection points: 2
#     Edge 12, Type (0, 0), BuildingBlock: FUNLAD_clean_linker_1, # of connection points: 2
#     Edge 13, Type (0, 0), BuildingBlock: FUNLAD_clean_linker_1, # of connection points: 2
#     Edge 14, Type (0, 0), BuildingBlock: FUNLAD_clean_linker_1, # of connection points: 2
#     Edge 15, Type (0, 0), BuildingBlock: FUNLAD_clean_linker_1, # of connection points: 2
#     Edge 16, Type (0, 0), BuildingBlock: FUNLAD_clean_linker_1, # of connection points: 2
#     Edge 17, Type (0, 0), BuildingBlock: FUNLAD_clean_linker_1, # of connection points: 2
#     Edge 18, Type (0, 0), BuildingBlock: FUNLAD_clean_linker_1, # of connection points: 2
#     Edge 19, Type (0, 0), BuildingBlock: FUNLAD_clean_linker_1, # of connection points: 2
#     Edge 20, Type (0, 0), BuildingBlock: FUNLAD_clean_linker_1, # of connection points: 2
#     Edge 21, Type (0, 0), BuildingBlock: FUNLAD_clean_linker_1, # of connection points: 2
#     Edge 22, Type (0, 0), BuildingBlock: FUNLAD_clean_linker_1, # of connection points: 2
#     Edge 23, Type (0, 0), BuildingBlock: FUNLAD_clean_linker_1, # of connection points: 2
# Relax obj value: 0.327
# Max RMSD: 0.283
# Mean RMSD: 0.283
data_MOF--net-sml--node1-IZENUY_clean_sbu_0--edge1-FUNLAD_clean_linker_1
_symmetry_space_group_name_H-M    P1
_symmetry_Int_Tables_number       1
_symmetry_cell_setting            triclinic
loop_
_symmetry_equiv_pos_as_xyz
'x, y, z'
_cell_length_a     41.50741
_cell_length_b     42.014156
_cell_length_c     15.21204
_cell_angle_alpha  89.787018
_cell_angle_beta   90.000381
_cell_angle_gamma 120.25293
loop_
_atom_site_label
_atom_site_type_symbol
_atom_site_fract_x
_atom_site_fract_y
_atom_site_fract_z
_atom_type_partial_charge
Fe0 Fe 0.29375 0.46954 0.08973 0.0
Fe1 Fe 0.22709 0.39433 0.04184 0.0
O2 O 0.24919 0.44313 0.0405 0.0
Fe3 Fe 0.22753 0.46576 0.9898 0.0
O4 O 0.22903 0.48953 0.09013 0.0
O5 O 0.28777 0.50878 0.11898 0.0
O6 O 0.27483 0.45009 0.19591 0.0
C7 C 0.25646 0.41602 0.21229 0.0
C8 C 0.30425 0.50871 0.93977 0.0
O9 O 0.24459 0.3923 0.15144 0.0
C10 C 0.21205 0.4106 0.87179 0.0
O11 O 0.30922 0.43605 0.07027 0.0
O12 O 0.26587 0.39505 0.98514 0.0
O13 O 0.27222 0.50536 0.94994 0.0
O14 O 0.31429 0.49007 0.98514 0.0
C15 C 0.16707 0.40335 0.07483 0.0
O16 O 0.2056 0.38792 0.9334 0.0
O17 O 0.22486 0.44434 0.88591 0.0
C18 C 0.29902 0.41157 0.01185 0.0
O19 O 0.18666 0.3897 0.09769 0.0
O20 O 0.17922 0.43002 0.02048 0.0
C21 C 0.25917 0.51192 0.12728 0.0
Fe22 Fe 0.82474 0.26689 0.36235 0.0
Fe23 Fe 0.83727 0.20178 0.32626 0.0
O24 O 0.81043 0.22379 0.31227 0.0
Fe25 Fe 0.76931 0.20253 0.24737 0.0
O26 O 0.74028 0.20027 0.33872 0.0
O27 O 0.77699 0.25734 0.38361 0.0
O28 O 0.82298 0.24825 0.47011 0.0
C29 C 0.83954 0.23162 0.49407 0.0
C30 C 0.7994 0.27877 0.20842 0.0
O31 O 0.85279 0.21884 0.43864 0.0
C32 C 0.81687 0.19055 0.14745 0.0
O33 O 0.8751 0.28417 0.34964 0.0
O34 O 0.87827 0.24049 0.27741 0.0
O35 O 0.773 0.24571 0.20847 0.0
O36 O 0.82708 0.28886 0.25822 0.0
C37 C 0.76632 0.14278 0.34083 0.0
O38 O 0.82693 0.18085 0.2162 0.0
O39 O 0.79587 0.20411 0.15186 0.0
C40 C 0.89264 0.27373 0.30033 0.0
O41 O 0.79797 0.16149 0.37604 0.0
O42 O 0.75725 0.15514 0.27516 0.0
C43 C 0.74543 0.22803 0.38199 0.0
Fe44 Fe 0.57545 0.75157 0.5895 0.0
Fe45 Fe 0.58458 0.81951 0.68867 0.0
O46 O 0.60453 0.79646 0.63255 0.0
Fe47 Fe 0.65381 0.81824 0.62077 0.0
O48 O 0.65512 0.78141 0.67892 0.0
O49 O 0.60869 0.73532 0.60998 0.0
O50 O 0.55509 0.73287 0.69615 0.0
C51 C 0.53762 0.74454 0.74094 0.0
C52 C 0.62617 0.78405 0.45556 0.0
O53 O 0.54452 0.77736 0.73292 0.0
C54 C 0.64437 0.87711 0.59138 0.0
O55 O 0.53723 0.75967 0.56105 0.0
O56 O 0.55774 0.81805 0.59302 0.0
O57 O 0.65248 0.7985 0.51116 0.0
O58 O 0.59269 0.76687 0.47982 0.0
C59 C 0.64375 0.83399 0.79551 0.0
O60 O 0.62092 0.86648 0.65401 0.0
O61 O 0.65613 0.85681 0.56272 0.0
C62 C 0.53509 0.78858 0.55408 0.0
O63 O 0.60912 0.82125 0.78856 0.0
O64 O 0.66419 0.84201 0.72774 0.0
C65 C 0.63629 0.74763 0.66165 0.0
Fe66 Fe 0.8254 0.56339 0.96613 0.0
Fe67 Fe 0.76291 0.56126 0.07674 0.0
O68 O 0.80738 0.58669 0.02694 0.0
Fe69 Fe 0.83372 0.63524 0.03646 0.0
O70 O 0.87213 0.6334 0.08838 0.0
O71 O 0.87484 0.59695 0.98952 0.0
O72 O 0.82569 0.53867 0.06296 0.0
C73 C 0.79668 0.51759 0.10597 0.0
C74 C 0.84269 0.62196 0.85932 0.0
O75 O 0.76757 0.52031 0.10011 0.0
C76 C 0.76353 0.62419 0.00843 0.0
O77 O 0.77933 0.52484 0.93163 0.0
O78 O 0.74083 0.54338 0.97191 0.0
O79 O 0.85481 0.64263 0.92614 0.0
O80 O 0.82574 0.58733 0.86708 0.0
C81 C 0.80189 0.61078 0.20542 0.0
O82 O 0.75066 0.59759 0.0626 0.0
O83 O 0.79717 0.64009 0.98463 0.0
C84 C 0.74794 0.52297 0.92573 0.0
O85 O 0.78207 0.57756 0.18393 0.0
O86 O 0.81713 0.63623 0.14831 0.0
C87 C 0.88918 0.61894 0.05345 0.0
Fe88 Fe 0.28307 0.82448 0.26444 0.0
Fe89 Fe 0.21987 0.76249 0.37039 0.0
O90 O 0.24073 0.80722 0.32386 0.0
Fe91 Fe 0.22019 0.83508 0.33631 0.0
O92 O 0.26161 0.87127 0.38838 0.0
O93 O 0.30051 0.87356 0.28843 0.0
O94 O 0.30685 0.82315 0.36212 0.0
C95 C 0.29757 0.79411 0.4051 0.0
C96 C 0.24333 0.84414 0.15793 0.0
O97 O 0.2653 0.7657 0.39659 0.0
C98 C 0.15801 0.76765 0.30647 0.0
O99 O 0.27485 0.77878 0.22894 0.0
O100 O 0.21649 0.74189 0.26418 0.0
O101 O 0.23433 0.85578 0.22535 0.0
O102 O 0.26051 0.82653 0.16504 0.0
C103 C 0.21042 0.80113 0.50319 0.0
O104 O 0.17133 0.75181 0.35281 0.0
O105 O 0.17712 0.8012 0.28657 0.0
C106 C 0.24474 0.74833 0.22036 0.0
O107 O 0.22166 0.77978 0.47933 0.0
O108 O 0.20243 0.81879 0.4481 0.0
C109 C 0.29338 0.88766 0.35347 0.0
Fe110 Fe 0.46305 0.20861 0.71553 0.0
Fe111 Fe 0.3915 0.20468 0.64642 0.0
O112 O 0.44097 0.2277 0.65277 0.0
Fe113 Fe 0.46776 0.26976 0.59528 0.0
O114 O 0.5063 0.28948 0.67323 0.0
O115 O 0.48837 0.24989 0.78257 0.0
O116 O 0.42685 0.19044 0.80131 0.0
C117 C 0.40187 0.19834 0.82032 0.0
C118 C 0.50798 0.23562 0.56179 0.0
O119 O 0.38755 0.20902 0.76294 0.0
C120 C 0.41062 0.22582 0.47713 0.0
O121 O 0.44025 0.16584 0.65284 0.0
O122 O 0.38403 0.15811 0.66011 0.0
O123 O 0.49082 0.25072 0.52986 0.0
O124 O 0.50269 0.22404 0.64049 0.0
C125 C 0.41165 0.27875 0.6614 0.0
O126 O 0.39304 0.19905 0.52907 0.0
O127 O 0.43434 0.25741 0.50509 0.0
C128 C 0.40546 0.14572 0.6443 0.0
O129 O 0.3893 0.24693 0.63264 0.0
O130 O 0.44643 0.29125 0.65892 0.0
C131 C 0.50967 0.28169 0.75168 0.0
H132 H 0.3664 0.29056 0.6816 0.0
C133 C 0.39548 0.30023 0.69711 0.0
H134 H 0.44115 0.33654 0.77648 0.0
H135 H 0.3647 0.43587 0.83128 0.0
H136 H 0.41709 0.47635 0.73833 0.0
H137 H 0.45828 0.45562 0.67607 0.0
H138 H 0.44713 0.39403 0.70601 0.0
C139 C 0.41237 0.32669 0.75789 0.0
C140 C 0.39073 0.34097 0.80535 0.0
C141 C 0.3983 0.37738 0.78985 0.0
C142 C 0.37481 0.38951 0.827 0.0
C143 C 0.38203 0.42544 0.80662 0.0
C144 C 0.41194 0.44893 0.75295 0.0
C145 C 0.43511 0.43724 0.71779 0.0
C146 C 0.42842 0.40186 0.7355 0.0
H147 H 0.35377 0.41449 0.00678 0.0
C148 C 0.32594 0.40111 0.97862 0.0
H149 H 0.28932 0.36217 0.88652 0.0
H150 H 0.37177 0.27134 0.85983 0.0
H151 H 0.31995 0.23107 0.95421 0.0
H152 H 0.27905 0.25191 0.01769 0.0
H153 H 0.28959 0.31311 0.98636 0.0
C154 C 0.3173 0.37636 0.91388 0.0
C155 C 0.3442 0.36538 0.88117 0.0
C156 C 0.33767 0.32951 0.8998 0.0
C157 C 0.36107 0.31738 0.86253 0.0
C158 C 0.35421 0.28162 0.88386 0.0
C159 C 0.32471 0.25828 0.93865 0.0
C160 C 0.30174 0.27005 0.97455 0.0
C161 C 0.30806 0.30522 0.95581 0.0
H162 H 0.1211 0.36299 0.15738 0.0
C163 C 0.1285 0.38511 0.11003 0.0
H164 H 0.10788 0.41363 0.03592 0.0
H165 H 0.94109 0.27833 0.06233 0.0
H166 H 0.95442 0.2787 0.90721 0.0
H167 H 1.01685 0.32159 0.84758 0.0
H168 H 0.06685 0.36379 0.94318 0.0
C169 C 0.10202 0.39286 0.08591 0.0
C170 C 0.06305 0.3701 0.12115 0.0
C171 C 0.03377 0.34605 0.06441 0.0
C172 C 0.99765 0.32113 0.09911 0.0
C173 C 0.96918 0.29738 0.04031 0.0
C174 C 0.97633 0.2975 0.95082 0.0
C175 C 1.01153 0.32158 0.91725 0.0
C176 C 0.03999 0.34566 0.97296 0.0
H177 H 0.94098 0.33013 0.2851 0.0
C178 C 0.9309 0.30128 0.2709 0.0
H179 H 0.94275 0.26328 0.21043 0.0
H180 H 0.11078 0.41625 0.2463 0.0
H181 H 0.09939 0.41295 0.40339 0.0
H182 H 0.03899 0.36587 0.46562 0.0
H183 H 0.98942 0.3225 0.37138 0.0
C184 C 0.9531 0.29201 0.22649 0.0
C185 C 0.99067 0.32002 0.19091 0.0
C186 C 1.02002 0.34426 0.24772 0.0
C187 C 0.05575 0.37001 0.21241 0.0
C188 C 0.08377 0.39513 0.27006 0.0
C189 C 0.07753 0.39369 0.36028 0.0
C190 C 0.04346 0.3673 0.39525 0.0
C191 C 1.01503 0.34276 0.34008 0.0
H192 H 0.71151 0.09169 0.34579 0.0
C193 C 0.73955 0.10517 0.37283 0.0
H194 H 0.77601 0.10086 0.46208 0.0
H195 H 0.66525 0.97779 0.71563 0.0
H196 H 0.69229 0.03129 0.81042 0.0
H197 H 0.73107 0.09377 0.749 0.0
H198 H 0.74479 0.10306 0.59311 0.0
C199 C 0.74839 0.08716 0.43276 0.0
C200 C 0.72045 0.04965 0.46677 0.0
C201 C 0.71231 0.0446 0.55818 0.0
C202 C 0.68852 1.00861 0.59319 0.0
C203 C 0.68234 1.00445 0.68514 0.0
C204 C 0.69769 0.03495 0.74041 0.0
C205 C 0.71965 0.07013 0.70589 0.0
C206 C 0.72732 0.07505 0.61616 0.0
H207 H 0.6857 0.92344 0.51177 0.0
C208 C 0.66214 0.9151 0.55595 0.0
H209 H 0.62796 0.93194 0.61903 0.0
H210 H 0.73097 0.04774 0.28842 0.0
H211 H 0.69517 0.99618 0.19155 0.0
H212 H 0.64625 0.93632 0.25037 0.0
H213 H 0.63444 0.92724 0.40724 0.0
C214 C 0.65101 0.93942 0.57396 0.0
C215 C 0.67173 0.97772 0.53643 0.0
C216 C 0.67662 0.98338 0.44412 0.0
C217 C 0.70241 0.01887 0.40955 0.0
C218 C 0.70974 0.02235 0.31799 0.0
C219 C 0.68963 0.99279 0.26152 0.0
C220 C 0.66227 0.95903 0.29466 0.0
C221 C 0.656 0.9541 0.38486 0.0
H222 H 0.64016 0.69682 0.66385 0.0
C223 C 0.64883 0.72278 0.6969 0.0
H224 H 0.67939 0.75816 0.80101 0.0
H225 H 0.67404 0.60002 0.90167 0.0
H226 H 0.60676 0.57158 0.90548 0.0
H227 H 0.57627 0.60712 0.86625 0.0
H228 H 0.61286 0.67092 0.81987 0.0
C229 C 0.67101 0.73216 0.76827 0.0
C230 C 0.68877 0.71084 0.79926 0.0
C231 C 0.66707 0.67425 0.83154 0.0
C232 C 0.68485 0.65456 0.86054 0.0
C233 C 0.66228 0.61702 0.8845 0.0
C234 C 0.62354 0.60021 0.88611 0.0
C235 C 0.60636 0.62015 0.86357 0.0
C236 C 0.62771 0.65672 0.83644 0.0
H237 H 0.71859 0.63776 0.02113 0.0
C238 C 0.73977 0.6388 0.9773 0.0
H239 H 0.76503 0.65313 0.85257 0.0
H240 H 0.73885 0.77998 0.73806 0.0
H241 H 0.80615 0.80992 0.74394 0.0
H242 H 0.837 0.7781 0.80756 0.0
H243 H 0.8008 0.716 0.86418 0.0
C244 C 0.74406 0.65299 0.89571 0.0
C245 C 0.72442 0.67249 0.86391 0.0
C246 C 0.74607 0.70943 0.83364 0.0
C247 C 0.72827 0.7283 0.79986 0.0
C248 C 0.75075 0.76461 0.76675 0.0
C249 C 0.7895 0.78216 0.76937 0.0
C250 C 0.80686 0.76423 0.80501 0.0
C251 C 0.78561 0.72838 0.83695 0.0
H252 H 0.10548 0.765 0.27047 0.0
C253 C 0.11844 0.74829 0.28005 0.0
H254 H 0.11189 0.69543 0.26694 0.0
H255 H 0.93548 0.60796 0.27608 0.0
H256 H 0.95111 0.58293 0.4031 0.0
H257 H 1.01623 0.60952 0.4513 0.0
H258 H 0.06644 0.66066 0.3725 0.0
C259 C 0.09918 0.71242 0.25882 0.0
C260 C 0.05987 0.69504 0.22594 0.0
C261 C 0.03073 0.6653 0.27325 0.0
C262 C 0.99292 0.65049 0.24659 0.0
C263 C 0.96452 0.62057 0.29456 0.0
C264 C 0.97306 0.60596 0.36733 0.0
C265 C 1.0098 0.62085 0.39439 0.0
C266 C 0.03839 0.6502 0.34834 0.0
H267 H 0.944 0.62262 0.0388 0.0
C268 C 0.92805 0.63099 0.07951 0.0
H269 H 0.92836 0.65957 0.19387 0.0
H270 H 0.10887 0.74659 0.10845 0.0
H271 H 0.09309 0.77284 0.98522 0.0
H272 H 0.0275 0.75052 0.94656 0.0
H273 H 0.9772 0.70194 0.03112 0.0
C274 C 0.94431 0.65218 0.15041 0.0
C275 C 0.98413 0.66563 0.17327 0.0
C276 C 1.01328 0.69474 0.1245 0.0
C277 C 0.05117 0.70876 0.14929 0.0
C278 C 0.07962 0.73634 0.09601 0.0
C279 C 0.07098 0.75129 0.02415 0.0
C280 C 0.03404 0.7387 0.00229 0.0
C281 C 1.00542 0.71069 0.05138 0.0
H282 H 0.35934 0.08849 0.63936 0.0
C283 C 0.38825 0.10657 0.62006 0.0
H284 H 0.43308 0.1114 0.54409 0.0
H285 H 0.3701 0.93879 0.52307 0.0
H286 H 0.42814 0.95977 0.60213 0.0
H287 H 0.46626 0.02458 0.64841 0.0
H288 H 0.44649 0.06879 0.61673 0.0
C289 C 0.4044 0.09366 0.56532 0.0
C290 C 0.38296 0.0552 0.53038 0.0
C291 C 0.39533 0.02988 0.54774 0.0
C292 C 0.37349 0.99249 0.52036 0.0
C293 C 0.38584 0.96754 0.54137 0.0
C294 C 0.41905 0.9792 0.58688 0.0
C295 C 0.44051 0.0157 0.61299 0.0
C296 C 0.42886 0.04082 0.5942 0.0
H297 H 0.34638 0.94104 0.34392 0.0
C298 C 0.32097 0.92541 0.38214 0.0
H299 H 0.28904 0.92595 0.48969 0.0
H300 H 0.3538 0.0975 0.47218 0.0
H301 H 0.29679 0.07667 0.39039 0.0
H302 H 0.25847 1.01165 0.34608 0.0
H303 H 0.27728 0.96723 0.38316 0.0
C304 C 0.31474 0.94105 0.45223 0.0
C305 C 0.3396 0.98061 0.47451 0.0
C306 C 0.32799 1.00619 0.45385 0.0
C307 C 0.34978 0.04354 0.48088 0.0
C308 C 0.3379 0.06857 0.45632 0.0
C309 C 0.30527 0.05703 0.40855 0.0
C310 C 0.28376 0.02048 0.38344 0.0
C311 C 0.29486 0.99525 0.40544 0.0
H312 H 0.22325 0.38217 0.76702 0.0
C313 C 0.21041 0.39863 0.78099 0.0
H314 H 0.18722 0.42927 0.73206 0.0
H315 H 0.28052 0.49013 0.38875 0.0
H316 H 0.28776 0.54451 0.46034 0.0
H317 H 0.26363 0.54109 0.61019 0.0
H318 H 0.2309 0.48313 0.68759 0.0
C319 C 0.20026 0.41321 0.7156 0.0
C320 C 0.21379 0.41477 0.62416 0.0
C321 C 0.23488 0.44962 0.58205 0.0
C322 C 0.25093 0.45201 0.49804 0.0
C323 C 0.26927 0.4867 0.45442 0.0
C324 C 0.27351 0.5183 0.49455 0.0
C325 C 0.25979 0.51634 0.57869 0.0
C326 C 0.24076 0.48259 0.62226 0.0
H327 H 0.21636 0.38098 0.3127 0.0
C328 C 0.24458 0.40379 0.30276 0.0
H329 H 0.29348 0.44603 0.35938 0.0
H330 H 0.16705 0.34289 0.67352 0.0
H331 H 0.16467 0.2889 0.60918 0.0
H332 H 0.20388 0.295 0.48097 0.0
H333 H 0.24396 0.35472 0.41366 0.0
C334 C 0.26533 0.42338 0.37121 0.0
C335 C 0.24841 0.4201 0.45939 0.0
C336 C 0.22829 0.38551 0.50283 0.0
C337 C 0.20881 0.38251 0.58199 0.0
C338 C 0.18475 0.347 0.61736 0.0
C339 C 0.18284 0.31579 0.58057 0.0
C340 C 0.20471 0.31919 0.50808 0.0
C341 C 0.22728 0.35359 0.46948 0.0
H342 H 0.85057 0.17703 0.05866 0.0
C343 C 0.83051 0.18643 0.06107 0.0
H344 H 0.8019 0.20758 0.98938 0.0
H345 H 0.90912 0.27965 0.6763 0.0
H346 H 0.92919 0.33352 0.76903 0.0
H347 H 0.90825 0.32664 0.9234 0.0
H348 H 0.86781 0.26599 0.9864 0.0
C349 C 0.82076 0.19672 0.98678 0.0
C350 C 0.83932 0.19993 0.9012 0.0
C351 C 0.86312 0.23553 0.86595 0.0
C352 C 0.87453 0.23957 0.77677 0.0
C353 C 0.89877 0.27534 0.74316 0.0
C354 C 0.91064 0.30636 0.79575 0.0
C355 C 0.89884 0.30249 0.88265 0.0
C356 C 0.8755 0.26754 0.91786 0.0
H357 H 0.83073 0.23934 0.63214 0.0
C358 C 0.84388 0.22854 0.58907 0.0
H359 H 0.87401 0.20029 0.58372 0.0
H360 H 0.79904 0.12762 0.953 0.0
H361 H 0.78349 0.07415 0.8631 0.0
H362 H 0.80332 0.08138 0.7079 0.0
H363 H 0.83865 0.14214 0.64144 0.0
C364 C 0.86168 0.21241 0.62498 0.0
C365 C 0.86102 0.20809 0.72237 0.0
C366 C 0.8413 0.17244 0.76048 0.0
C367 C 0.83016 0.1683 0.85026 0.0
C368 C 0.80877 0.13236 0.88571 0.0
C369 C 0.79963 0.10145 0.83478 0.0
C370 C 0.81078 0.10552 0.74733 0.0
C371 C 0.83096 0.14052 0.70992 0.0
H372 H 0.60874 0.7721 0.318 0.0
C373 C 0.63319 0.78668 0.35972 0.0
H374 H 0.691 0.82463 0.36132 0.0
H375 H 0.62875 0.75905 0.95039 0.0
H376 H 0.61782 0.70016 0.00615 0.0
H377 H 0.63085 0.6932 0.16116 0.0
H378 H 0.65486 0.74515 0.26146 0.0
C379 C 0.66645 0.80843 0.32116 0.0
C380 C 0.6684 0.81441 0.22352 0.0
C381 C 0.65523 0.78409 0.16518 0.0
C382 C 0.64817 0.78823 0.07552 0.0
C383 C 0.63433 0.75731 0.01924 0.0
C384 C 0.62811 0.72343 0.05027 0.0
C385 C 0.63544 0.71951 0.13757 0.0
C386 C 0.64889 0.7494 0.1946 0.0
H387 H 0.6908 0.85111 0.88871 0.0
C388 C 0.66071 0.83863 0.88381 0.0
H389 H 0.60928 0.81032 0.95097 0.0
H390 H 0.7024 0.8801 0.31166 0.0
H391 H 0.72003 0.94015 0.25148 0.0
H392 H 0.70659 0.94713 0.09686 0.0
H393 H 0.67657 0.89405 0.00054 0.0
C394 C 0.63949 0.82468 0.95642 0.0
C395 C 0.65489 0.82281 0.04371 0.0
C396 C 0.67227 0.85406 0.09918 0.0
C397 C 0.67938 0.84991 0.18905 0.0
C398 C 0.69631 0.88153 0.24316 0.0
C399 C 0.70647 0.91621 0.20945 0.0
C400 C 0.69902 0.92015 0.12231 0.0
C401 C 0.68184 0.88948 0.06769 0.0
H402 H 0.87167 0.66751 0.76314 0.0
C403 C 0.85058 0.63863 0.771 0.0
H404 H 0.81038 0.58983 0.70901 0.0
H405 H 0.82381 0.70049 0.38978 0.0
H406 H 0.80127 0.72892 0.49352 0.0
H407 H 0.79568 0.71338 0.65133 0.0
H408 H 0.81309 0.66997 0.70712 0.0
C409 C 0.83136 0.61877 0.70116 0.0
C410 C 0.84005 0.63329 0.61007 0.0
C411 C 0.83029 0.65931 0.57962 0.0
C412 C 0.83262 0.66767 0.48833 0.0
C413 C 0.82212 0.69307 0.45856 0.0
C414 C 0.80923 0.70955 0.51729 0.0
C415 C 0.80619 0.70087 0.60629 0.0
C416 C 0.81643 0.67597 0.63748 0.0
H417 H 0.78839 0.59673 0.34401 0.0
C418 C 0.80671 0.61894 0.2996 0.0
H419 H 0.85561 0.6716 0.29128 0.0
H420 H 0.86491 0.58553 0.64863 0.0
H421 H 0.88511 0.55572 0.54367 0.0
H422 H 0.8871 0.56889 0.38503 0.0
H423 H 0.87126 0.61369 0.33083 0.0
C424 C 0.83577 0.6493 0.33317 0.0
C425 C 0.84366 0.64933 0.42829 0.0
C426 C 0.85592 0.62539 0.45951 0.0
C427 C 0.85399 0.61727 0.55053 0.0
C428 C 0.86525 0.59227 0.57977 0.0
C429 C 0.87708 0.57511 0.52035 0.0
C430 C 0.87849 0.58273 0.43109 0.0
C431 C 0.86876 0.60806 0.40077 0.0
H432 H 0.21264 0.7876 0.64119 0.0
C433 C 0.2072 0.80512 0.59817 0.0
H434 H 0.19813 0.85029 0.59259 0.0
H435 H 0.17864 0.77817 0.00184 0.0
H436 H 0.12305 0.72485 0.94496 0.0
H437 H 0.10323 0.72365 0.79151 0.0
H438 H 0.13991 0.77524 0.69278 0.0
C439 C 0.20165 0.83114 0.63397 0.0
C440 C 0.20619 0.8371 0.73067 0.0
C441 C 0.18315 0.80799 0.78897 0.0
C442 C 0.19385 0.80928 0.8781 0.0
C443 C 0.17166 0.77873 0.93352 0.0
C444 C 0.13961 0.74802 0.90184 0.0
C445 C 0.1285 0.7473 0.81537 0.0
C446 C 0.14986 0.77692 0.75935 0.0
H447 H 0.21849 0.86629 0.06442 0.0
C448 C 0.23381 0.85167 0.06974 0.0
H449 H 0.25566 0.8229 0.00174 0.0
H450 H 0.25343 0.89997 0.63923 0.0
H451 H 0.30815 0.95392 0.69672 0.0
H452 H 0.32572 0.95688 0.85279 0.0
H453 H 0.28879 0.90564 0.95208 0.0
C454 C 0.24134 0.83852 -0.0029 0.0
C455 C 0.22672 0.84039 0.90949 0.0
C456 C 0.2477 0.87109 0.85352 0.0
C457 C 0.23742 0.86945 0.76373 0.0
C458 C 0.25986 0.8998 0.70804 0.0
C459 C 0.29132 0.93096 0.74026 0.0
C460 C 0.30123 0.93262 0.82812 0.0
C461 C 0.27983 0.90306 0.88437 0.0
H462 H 0.42439 0.24332 0.34054 0.0
C463 C 0.40411 0.22126 0.38248 0.0
H464 H 0.35584 0.16842 0.38705 0.0
H465 H 0.40847 0.25493 0.9917 0.0
H466 H 0.39563 0.30032 0.0541 0.0
H467 H 0.36876 0.29186 0.20282 0.0
H468 H 0.35735 0.23905 0.29253 0.0
C469 C 0.37591 0.191 0.34614 0.0
C470 C 0.37519 0.18672 0.24923 0.0
C471 C 0.37705 0.2149 0.19424 0.0
C472 C 0.38898 0.21774 0.10585 0.0
C473 C 0.39663 0.24964 0.05703 0.0
C474 C 0.38972 0.27619 0.09237 0.0
C475 C 0.37484 0.27158 0.17631 0.0
C476 C 0.36861 0.24136 0.2271 0.0
H477 H 0.36158 0.19294 0.92168 0.0
C478 C 0.38762 0.19328 0.91026 0.0
H479 H 0.4335 0.19248 0.96757 0.0
H480 H 0.37069 0.12729 0.33485 0.0
H481 H 0.37722 0.07812 0.27035 0.0
H482 H 0.3903 0.07872 0.11186 0.0
H483 H 0.39764 0.12882 0.01805 0.0
C484 C 0.40748 0.19225 0.97833 0.0
C485 C 0.39431 0.18958 0.06987 0.0
C486 C 0.3883 0.15913 0.12239 0.0
C487 C 0.37946 0.15808 0.21281 0.0
C488 C 0.37627 0.12878 0.26539 0.0
C489 C 0.3801 0.10047 0.2291 0.0
C490 C 0.38752 0.10085 0.13998 0.0
C491 C 0.39173 0.12982 0.08693 0.0
H492 H 0.28966 0.56469 0.19845 0.0
C493 C 0.26419 0.54687 0.16252 0.0
H494 H 0.21745 0.54318 0.09803 0.0
H495 H 0.2609 0.68713 0.3511 0.0
H496 H 0.24677 0.64595 0.4757 0.0
H497 H 0.23391 0.58237 0.45472 0.0
H498 H 0.23524 0.55973 0.30919 0.0
C499 C 0.24147 0.55966 0.13962 0.0
C500 C 0.25192 0.59875 0.15476 0.0
C501 C 0.25083 0.61143 0.24033 0.0
C502 C 0.25827 0.64812 0.25242 0.0
C503 C 0.25627 0.65985 0.33839 0.0
C504 C 0.2479 0.63638 0.41042 0.0
C505 C 0.24065 0.60059 0.3986 0.0
C506 C 0.2417 0.588 0.31464 0.0
H507 H 0.21816 0.69454 0.15401 0.0
C508 C 0.24449 0.7164 0.17974 0.0
H509 H 0.2978 0.72989 0.22603 0.0
H510 H 0.26022 0.5845 0.98321 0.0
H511 H 0.27775 0.62694 0.86007 0.0
H512 H 0.29014 0.69033 0.88127 0.0
H513 H 0.28533 0.71178 0.02621 0.0
C514 C 0.27266 0.70979 0.19219 0.0
C515 C 0.26678 0.67207 0.17903 0.0
C516 C 0.26917 0.65981 0.094 0.0
C517 C 0.26176 0.62314 0.08182 0.0
C518 C 0.26502 0.61186 -0.0038 0.0
C519 C 0.27519 0.63599 0.92492 0.0
C520 C 0.2822 0.67169 0.93688 0.0
C521 C 0.27925 0.68362 0.02029 0.0
H522 H 0.71888 0.25048 0.46762 0.0
C523 C 0.71331 0.22899 0.42023 0.0
H524 H 0.67236 0.18592 0.34283 0.0
H525 H 0.5348 0.15827 0.57697 0.0
H526 H 0.53369 0.10028 0.59267 0.0
H527 H 0.58461 0.09266 0.53269 0.0
H528 H 0.63665 0.1428 0.4555 0.0
C529 C 0.67832 0.20724 0.39095 0.0
C530 C 0.64679 0.21147 0.42336 0.0
C531 C 0.61684 0.18202 0.46922 0.0
C532 C 0.58799 0.18674 0.50571 0.0
C533 C 0.55797 0.15655 0.54973 0.0
C534 C 0.55687 0.12303 0.55891 0.0
C535 C 0.58549 0.11871 0.52497 0.0
C536 C 0.6152 0.14775 0.4807 0.0
H537 H 0.53745 0.23767 0.43824 0.0
C538 C 0.53676 0.23359 0.50895 0.0
H539 H 0.56088 0.2225 0.61832 0.0
H540 H 0.69458 0.26997 0.31954 0.0
H541 H 0.6956 0.32787 0.30292 0.0
H542 H 0.65039 0.33904 0.38194 0.0
H543 H 0.60241 0.29155 0.4736 0.0
C544 C 0.56195 0.22688 0.54764 0.0
C545 C 0.58953 0.22117 0.49803 0.0
C546 C 0.61884 0.25027 0.44943 0.0
C547 C 0.64672 0.24489 0.40934 0.0
C548 C 0.67394 0.27327 0.35536 0.0
C549 C 0.67478 0.30662 0.34494 0.0
C550 C 0.6491 0.31277 0.38878 0.0
C551 C 0.62148 0.28509 0.44077 0.0
H552 H 0.3579 0.53718 0.87092 0.0
C553 C 0.33367 0.53936 0.8886 0.0
H554 H 0.31282 0.57597 0.90032 0.0
H555 H 0.49574 0.67905 0.93432 0.0
H556 H 0.48199 0.66056 0.08713 0.0
H557 H 0.41756 0.61731 0.13549 0.0
H558 H 0.36654 0.59186 0.03072 0.0
C559 C 0.33555 0.57203 0.87902 0.0
C560 C 0.37181 0.60475 0.85362 0.0
C561 C 0.40106 0.62073 0.91615 0.0
C562 C 0.43797 0.64668 0.88875 0.0
C563 C 0.46698 0.66024 0.95177 0.0
C564 C 0.4595 0.64968 0.03976 0.0
C565 C 0.42325 0.62525 0.06696 0.0
C566 C 0.39428 0.61074 0.00613 0.0
H567 H 0.49115 0.72926 0.83382 0.0
C568 C 0.50337 0.71826 0.78864 0.0
H569 H 0.49457 0.67172 0.71688 0.0
H570 H 0.3208 0.58371 0.72161 0.0
H571 H 0.333 0.60612 0.57059 0.0
H572 H 0.39651 0.65274 0.52322 0.0
H573 H 0.44825 0.67703 0.62588 0.0
C574 C 0.48405 0.68236 0.76744 0.0
C575 C 0.4452 0.6577 0.79928 0.0
C576 C 0.41522 0.64402 0.73838 0.0
C577 C 0.37849 0.61745 0.76568 0.0
C578 C 0.34917 0.60387 0.70368 0.0
C579 C 0.35579 0.61656 0.61711 0.0
C580 C 0.39157 0.64278 0.5904 0.0
C581 C 0.42106 0.6564 0.64994 0.0
H582 H 0.76848 0.29727 0.12485 0.0
C583 C 0.79265 0.30673 0.16735 0.0
H584 H 0.83357 0.35115 0.24108 0.0
H585 H 0.77716 0.43884 0.97315 0.0
H586 H 0.79929 0.41741 0.8522 0.0
H587 H 0.82138 0.37354 0.87815 0.0
H588 H 0.82108 0.35062 0.0248 0.0
C589 C 0.81104 0.34203 0.19371 0.0
C590 C 0.79641 0.36725 0.17555 0.0
C591 C 0.79702 0.38044 0.08929 0.0
C592 C 0.78493 0.40625 0.07456 0.0
C593 C 0.78603 0.41925 0.98796 0.0
C594 C 0.79875 0.40722 0.91799 0.0
C595 C 0.81112 0.38249 0.93259 0.0
C596 C 0.81056 0.36934 0.01714 0.0
H597 H 0.82113 0.48896 0.17487 0.0
C598 C 0.79534 0.48528 0.14697 0.0
H599 H 0.7425 0.44661 0.09643 0.0
H600 H 0.78764 0.34439 0.34765 0.0
H601 H 0.76444 0.36534 0.46737 0.0
H602 H 0.74475 0.41105 0.44141 0.0
H603 H 0.74814 0.43608 0.29513 0.0
C604 C 0.76703 0.45103 0.13248 0.0
C605 C 0.77315 0.41942 0.14626 0.0
C606 C 0.77109 0.40513 0.23171 0.0
C607 C 0.78264 0.37895 0.24648 0.0
C608 C 0.77991 0.36485 0.33269 0.0
C609 C 0.7665 0.37653 0.40205 0.0
C610 C 0.75538 0.40225 0.38744 0.0
C611 C 0.75757 0.41647 0.30336 0.0
H612 H 0.35037 0.81863 0.47643 0.0
C613 C 0.32781 0.79264 0.45165 0.0
H614 H 0.31198 0.73785 0.4184 0.0
H615 H 0.49782 0.83854 0.41257 0.0
H616 H 0.48825 0.86386 0.2781 0.0
H617 H 0.42473 0.84454 0.22597 0.0
H618 H 0.37046 0.80032 0.30887 0.0
C619 C 0.33315 0.76376 0.44623 0.0
C620 C 0.37052 0.76881 0.46708 0.0
C621 C 0.40193 0.79327 0.41529 0.0
C622 C 0.43847 0.80317 0.4432 0.0
C623 C 0.46939 0.82927 0.39308 0.0
C624 C 0.46431 0.8441 0.31584 0.0
C625 C 0.42855 0.83332 0.28666 0.0
C626 C 0.39764 0.80817 0.33537 0.0
H627 H 0.48955 0.76636 0.45721 0.0
C628 C 0.50138 0.78489 0.51283 0.0
H629 H 0.49128 0.81363 0.61236 0.0
H630 H 0.316 0.71655 0.57196 0.0
H631 H 0.32517 0.68677 0.69929 0.0
H632 H 0.38846 0.70263 0.74584 0.0
H633 H 0.44303 0.74822 0.66556 0.0
C634 C 0.48158 0.79819 0.55149 0.0
C635 C 0.44342 0.78723 0.52045 0.0
C636 C 0.41187 0.76047 0.56816 0.0
C637 C 0.37533 0.7512 0.54124 0.0
C638 C 0.34432 0.72458 0.59003 0.0
C639 C 0.3492 0.70727 0.66298 0.0
C640 C 0.38486 0.71622 0.68923 0.0
C641 C 0.41594 0.74248 0.64267 0.0
H642 H 0.69198 0.4941 0.86717 0.0
C643 C 0.71602 0.49137 0.88322 0.0
H644 H 0.73591 0.45419 0.89775 0.0
H645 H 0.54941 0.35721 0.91998 0.0
H646 H 0.55785 0.38719 0.06067 0.0
H647 H 0.62067 0.43308 0.11264 0.0
H648 H 0.67532 0.44996 0.0229 0.0
C649 C 0.71267 0.45787 0.8799 0.0
C650 C 0.67622 0.42466 0.85776 0.0
C651 C 0.64476 0.41344 0.91335 0.0
C652 C 0.60876 0.38544 0.88558 0.0
C653 C 0.57756 0.37706 0.93923 0.0
C654 C 0.58199 0.39423 0.02011 0.0
C655 C 0.61733 0.42018 0.04922 0.0
C656 C 0.64844 0.42982 -0.00327 0.0
H657 H 0.54927 0.29989 0.8639 0.0
C658 C 0.54302 0.3084 0.80171 0.0
H659 H 0.56126 0.34959 0.70366 0.0
H660 H 0.7316 0.4356 0.74307 0.0
H661 H 0.72443 0.40131 0.60927 0.0
H662 H 0.6627 0.35065 0.56437 0.0
H663 H 0.60763 0.33397 0.65245 0.0
C664 C 0.56711 0.34176 0.76727 0.0
C665 C 0.60469 0.36721 0.80454 0.0
C666 C 0.63678 0.37605 0.75324 0.0
C667 C 0.67253 0.40491 0.77971 0.0
C668 C 0.70386 0.41378 0.72611 0.0
C669 C 0.70014 0.39431 0.64922 0.0
C670 C 0.66536 0.36579 0.62388 0.0
C671 C 0.63396 0.35664 0.6749 0.0
loop_
_geom_bond_atom_site_label_1
_geom_bond_atom_site_label_2
_geom_bond_distance
_geom_bond_site_symmetry_2
_ccdc_geom_bond_type
Fe0 O2 1.918 1_554 S
Fe0 O5 1.997 . S
Fe0 O6 2.002 . S
Fe0 O11 1.976 . S
Fe0 O14 1.996 1_554 S
Fe1 O2 1.918 1_554 S
Fe1 O9 2.001 . S
Fe1 O12 1.995 1_554 S
Fe1 O16 1.972 1_554 S
Fe1 O19 2.003 . S
O2 Fe0 1.918 1_556 S
O2 Fe1 1.918 1_556 S
O2 Fe3 1.918 . S
Fe3 O2 1.918 . S
Fe3 O4 2.002 1_556 S
Fe3 O13 1.976 . S
Fe3 O17 1.996 . S
Fe3 O20 1.997 . S
O4 Fe3 2.002 1_554 S
O4 C21 1.295 . S
O5 Fe0 1.997 . S
O5 C21 1.235 . S
O6 Fe0 2.002 . S
O6 C7 1.295 . S
C7 O6 1.295 . S
C7 O9 1.235 . S
C8 O13 1.287 . S
C8 O14 1.255 . S
O9 Fe1 2.001 . S
O9 C7 1.235 . S
C10 O16 1.287 . S
C10 O17 1.255 . S
O11 Fe0 1.976 . S
O11 C18 1.287 . S
O12 Fe1 1.995 1_556 S
O12 C18 1.255 1_556 S
O13 Fe3 1.976 . S
O13 C8 1.287 . S
O14 Fe0 1.996 1_556 S
O14 C8 1.255 . S
C15 O19 1.297 . S
C15 O20 1.230 1_554 S
O16 Fe1 1.972 1_556 S
O16 C10 1.287 . S
O17 Fe3 1.996 . S
O17 C10 1.255 . S
C18 O11 1.287 . S
C18 O12 1.255 1_554 S
O19 Fe1 2.003 . S
O19 C15 1.297 . S
O20 Fe3 1.997 . S
O20 C15 1.230 1_556 S
C21 O4 1.295 . S
C21 O5 1.235 . S
Fe22 O24 1.918 . S
Fe22 O27 1.997 . S
Fe22 O28 2.002 . S
Fe22 O33 1.976 . S
Fe22 O36 1.996 . S
Fe23 O24 1.918 . S
Fe23 O31 1.997 . S
Fe23 O34 1.996 . S
Fe23 O38 1.976 . S
Fe23 O41 2.002 . S
O24 Fe22 1.918 . S
O24 Fe23 1.918 . S
O24 Fe25 1.918 . S
Fe25 O24 1.918 . S
Fe25 O26 2.002 . S
Fe25 O35 1.976 . S
Fe25 O39 1.996 . S
Fe25 O42 1.997 . S
O26 Fe25 2.002 . S
O26 C43 1.295 . S
O27 Fe22 1.997 . S
O27 C43 1.235 . S
O28 Fe22 2.002 . S
O28 C29 1.295 . S
C29 O28 1.295 . S
C29 O31 1.235 . S
C30 O35 1.287 . S
C30 O36 1.255 . S
O31 Fe23 1.997 . S
O31 C29 1.235 . S
C32 O38 1.287 . S
C32 O39 1.255 . S
O33 Fe22 1.976 . S
O33 C40 1.287 . S
O34 Fe23 1.996 . S
O34 C40 1.255 . S
O35 Fe25 1.976 . S
O35 C30 1.287 . S
O36 Fe22 1.996 . S
O36 C30 1.255 . S
C37 O41 1.295 . S
C37 O42 1.235 . S
O38 Fe23 1.976 . S
O38 C32 1.287 . S
O39 Fe25 1.996 . S
O39 C32 1.255 . S
C40 O33 1.287 . S
C40 O34 1.255 . S
O41 Fe23 2.002 . S
O41 C37 1.295 . S
O42 Fe25 1.997 . S
O42 C37 1.235 . S
C43 O26 1.295 . S
C43 O27 1.235 . S
Fe44 O46 1.918 . S
Fe44 O49 1.997 . S
Fe44 O50 2.002 . S
Fe44 O55 1.976 . S
Fe44 O58 1.996 . S
Fe45 O46 1.918 . S
Fe45 O53 1.997 . S
Fe45 O56 1.996 . S
Fe45 O60 1.976 . S
Fe45 O63 2.002 . S
O46 Fe44 1.918 . S
O46 Fe45 1.918 . S
O46 Fe47 1.918 . S
Fe47 O46 1.918 . S
Fe47 O48 2.002 . S
Fe47 O57 1.976 . S
Fe47 O61 1.996 . S
Fe47 O64 1.997 . S
O48 Fe47 2.002 . S
O48 C65 1.295 . S
O49 Fe44 1.997 . S
O49 C65 1.235 . S
O50 Fe44 2.002 . S
O50 C51 1.295 . S
C51 O50 1.295 . S
C51 O53 1.235 . S
C52 O57 1.287 . S
C52 O58 1.255 . S
O53 Fe45 1.997 . S
O53 C51 1.235 . S
C54 O60 1.287 . S
C54 O61 1.255 . S
O55 Fe44 1.976 . S
O55 C62 1.287 . S
O56 Fe45 1.996 . S
O56 C62 1.255 . S
O57 Fe47 1.976 . S
O57 C52 1.287 . S
O58 Fe44 1.996 . S
O58 C52 1.255 . S
C59 O63 1.295 . S
C59 O64 1.235 . S
O60 Fe45 1.976 . S
O60 C54 1.287 . S
O61 Fe47 1.996 . S
O61 C54 1.255 . S
C62 O55 1.287 . S
C62 O56 1.255 . S
O63 Fe45 2.002 . S
O63 C59 1.295 . S
O64 Fe47 1.997 . S
O64 C59 1.235 . S
C65 O48 1.295 . S
C65 O49 1.235 . S
Fe66 O68 1.918 . S
Fe66 O71 1.997 . S
Fe66 O72 2.002 1_556 S
Fe66 O77 1.976 . S
Fe66 O80 1.996 . S
Fe67 O68 1.918 1_554 S
Fe67 O75 1.997 . S
Fe67 O78 1.996 1_554 S
Fe67 O82 1.976 . S
Fe67 O85 2.002 . S
O68 Fe66 1.918 . S
O68 Fe67 1.918 1_556 S
O68 Fe69 1.918 1_556 S
Fe69 O68 1.918 1_554 S
Fe69 O70 2.003 . S
Fe69 O79 1.972 1_554 S
Fe69 O83 1.995 1_554 S
Fe69 O86 2.001 . S
O70 Fe69 2.003 . S
O70 C87 1.297 . S
O71 Fe66 1.997 . S
O71 C87 1.230 1_556 S
O72 Fe66 2.002 1_554 S
O72 C73 1.295 . S
C73 O72 1.295 . S
C73 O75 1.235 . S
C74 O79 1.287 . S
C74 O80 1.255 . S
O75 Fe67 1.997 . S
O75 C73 1.235 . S
C76 O82 1.287 . S
C76 O83 1.255 1_554 S
O77 Fe66 1.976 . S
O77 C84 1.287 . S
O78 Fe67 1.996 1_556 S
O78 C84 1.255 . S
O79 Fe69 1.972 1_556 S
O79 C74 1.287 . S
O80 Fe66 1.996 . S
O80 C74 1.255 . S
C81 O85 1.295 . S
C81 O86 1.235 . S
O82 Fe67 1.976 . S
O82 C76 1.287 . S
O83 Fe69 1.995 1_556 S
O83 C76 1.255 1_556 S
C84 O77 1.287 . S
C84 O78 1.255 . S
O85 Fe67 2.002 . S
O85 C81 1.295 . S
O86 Fe69 2.001 . S
O86 C81 1.235 . S
C87 O70 1.297 . S
C87 O71 1.230 1_554 S
Fe88 O90 1.918 . S
Fe88 O93 1.997 . S
Fe88 O94 2.002 . S
Fe88 O99 1.976 . S
Fe88 O102 1.996 . S
Fe89 O90 1.918 . S
Fe89 O97 1.997 . S
Fe89 O100 1.996 . S
Fe89 O104 1.976 . S
Fe89 O107 2.002 . S
O90 Fe88 1.918 . S
O90 Fe89 1.918 . S
O90 Fe91 1.918 . S
Fe91 O90 1.918 . S
Fe91 O92 2.002 . S
Fe91 O101 1.976 . S
Fe91 O105 1.996 . S
Fe91 O108 1.997 . S
O92 Fe91 2.002 . S
O92 C109 1.295 . S
O93 Fe88 1.997 . S
O93 C109 1.235 . S
O94 Fe88 2.002 . S
O94 C95 1.295 . S
C95 O94 1.295 . S
C95 O97 1.235 . S
C96 O101 1.287 . S
C96 O102 1.255 . S
O97 Fe89 1.997 . S
O97 C95 1.235 . S
C98 O104 1.287 . S
C98 O105 1.255 . S
O99 Fe88 1.976 . S
O99 C106 1.287 . S
O100 Fe89 1.996 . S
O100 C106 1.255 . S
O101 Fe91 1.976 . S
O101 C96 1.287 . S
O102 Fe88 1.996 . S
O102 C96 1.255 . S
C103 O107 1.295 . S
C103 O108 1.235 . S
O104 Fe89 1.976 . S
O104 C98 1.287 . S
O105 Fe91 1.996 . S
O105 C98 1.255 . S
C106 O99 1.287 . S
C106 O100 1.255 . S
O107 Fe89 2.002 . S
O107 C103 1.295 . S
O108 Fe91 1.997 . S
O108 C103 1.235 . S
C109 O92 1.295 . S
C109 O93 1.235 . S
Fe110 O112 1.918 . S
Fe110 O115 1.997 . S
Fe110 O116 2.002 . S
Fe110 O121 1.976 . S
Fe110 O124 1.996 . S
Fe111 O112 1.918 . S
Fe111 O119 1.997 . S
Fe111 O122 1.996 . S
Fe111 O126 1.976 . S
Fe111 O129 2.002 . S
O112 Fe110 1.918 . S
O112 Fe111 1.918 . S
O112 Fe113 1.918 . S
Fe113 O112 1.918 . S
Fe113 O114 2.002 . S
Fe113 O123 1.976 . S
Fe113 O127 1.996 . S
Fe113 O130 1.997 . S
O114 Fe113 2.002 . S
O114 C131 1.295 . S
O115 Fe110 1.997 . S
O115 C131 1.235 . S
O116 Fe110 2.002 . S
O116 C117 1.295 . S
C117 O116 1.295 . S
C117 O119 1.235 . S
C118 O123 1.287 . S
C118 O124 1.255 . S
O119 Fe111 1.997 . S
O119 C117 1.235 . S
C120 O126 1.287 . S
C120 O127 1.255 . S
O121 Fe110 1.976 . S
O121 C128 1.287 . S
O122 Fe111 1.996 . S
O122 C128 1.255 . S
O123 Fe113 1.976 . S
O123 C118 1.287 . S
O124 Fe110 1.996 . S
O124 C118 1.255 . S
C125 O129 1.295 . S
C125 O130 1.235 . S
O126 Fe111 1.976 . S
O126 C120 1.287 . S
O127 Fe113 1.996 . S
O127 C120 1.255 . S
C128 O121 1.287 . S
C128 O122 1.255 . S
O129 Fe111 2.002 . S
O129 C125 1.295 . S
O130 Fe113 1.997 . S
O130 C125 1.235 . S
C131 O114 1.295 . S
C131 O115 1.235 . S
H132 C133 0.951 . S
C133 H132 0.951 . S
C133 C139 1.265 . S
H134 C139 0.950 . S
H135 C143 0.949 . S
H136 C144 0.950 . S
H137 C145 0.951 . S
H138 C146 0.951 . S
C139 C133 1.265 . S
C139 H134 0.950 . S
C139 C140 1.478 . S
C140 C139 1.478 . S
C140 C141 1.397 . S
C140 C157 1.394 . S
C141 C140 1.397 . S
C141 C142 1.438 . S
C141 C146 1.429 . S
C142 C141 1.438 . S
C142 C143 1.428 . S
C142 C155 1.394 . S
C143 H135 0.949 . S
C143 C142 1.428 . S
C143 C144 1.345 . S
C144 H136 0.950 . S
C144 C143 1.345 . S
C144 C145 1.424 . S
C145 H137 0.951 . S
C145 C144 1.424 . S
C145 C146 1.347 . S
C146 H138 0.951 . S
C146 C141 1.429 . S
C146 C145 1.347 . S
H147 C148 0.951 . S
C148 H147 0.951 . S
C148 C154 1.265 . S
H149 C154 0.950 . S
H150 C158 0.949 . S
H151 C159 0.950 . S
H152 C160 0.951 . S
H153 C161 0.951 . S
C154 C148 1.265 . S
C154 H149 0.950 . S
C154 C155 1.478 . S
C155 C142 1.394 . S
C155 C154 1.478 . S
C155 C156 1.397 . S
C156 C155 1.397 . S
C156 C157 1.438 . S
C156 C161 1.429 1_556 S
C157 C140 1.394 . S
C157 C156 1.438 . S
C157 C158 1.428 . S
C158 H150 0.949 . S
C158 C157 1.428 . S
C158 C159 1.345 1_556 S
C159 H151 0.950 . S
C159 C158 1.345 1_554 S
C159 C160 1.424 . S
C160 H152 0.951 . S
C160 C159 1.424 . S
C160 C161 1.347 . S
C161 H153 0.951 . S
C161 C156 1.429 1_554 S
C161 C160 1.347 . S
H162 C163 0.951 . S
C163 H162 0.951 . S
C163 C169 1.265 . S
H164 C169 0.950 1_556 S
H165 C173 0.949 . S
H166 C174 0.950 . S
H167 C175 0.951 . S
H168 C176 0.951 1_455 S
C169 C163 1.265 . S
C169 H164 0.950 1_554 S
C169 C170 1.478 . S
C170 C169 1.478 . S
C170 C171 1.414 . S
C170 C187 1.394 . S
C171 C170 1.414 . S
C171 C172 1.417 1_455 S
C171 C176 1.433 1_454 S
C172 C171 1.417 1_655 S
C172 C173 1.428 . S
C172 C185 1.394 . S
C173 H165 0.949 . S
C173 C172 1.428 . S
C173 C174 1.345 . S
C174 H166 0.950 . S
C174 C173 1.345 . S
C174 C175 1.424 1_554 S
C175 H167 0.951 . S
C175 C174 1.424 1_556 S
C175 C176 1.347 . S
C176 H168 0.951 1_655 S
C176 C171 1.433 1_656 S
C176 C175 1.347 . S
H177 C178 0.951 . S
C178 H177 0.951 . S
C178 C184 1.265 . S
H179 C184 0.950 . S
H180 C188 0.949 . S
H181 C189 0.950 . S
H182 C190 0.951 . S
H183 C191 0.951 1_655 S
C184 C178 1.265 . S
C184 H179 0.950 . S
C184 C185 1.478 . S
C185 C172 1.394 . S
C185 C184 1.478 . S
C185 C186 1.397 1_655 S
C186 C185 1.397 1_455 S
C186 C187 1.438 . S
C186 C191 1.429 . S
C187 C170 1.394 . S
C187 C186 1.438 . S
C187 C188 1.428 . S
C188 H180 0.949 . S
C188 C187 1.428 . S
C188 C189 1.345 . S
C189 H181 0.950 . S
C189 C188 1.345 . S
C189 C190 1.424 . S
C190 H182 0.951 . S
C190 C189 1.424 . S
C190 C191 1.347 . S
C191 H183 0.951 1_455 S
C191 C186 1.429 . S
C191 C190 1.347 . S
H192 C193 0.951 . S
C193 H192 0.951 . S
C193 C199 1.265 . S
H194 C199 0.950 . S
H195 C203 0.949 . S
H196 C204 0.950 . S
H197 C205 0.951 . S
H198 C206 0.951 . S
C199 C193 1.265 . S
C199 H194 0.950 . S
C199 C200 1.478 . S
C200 C199 1.478 . S
C200 C201 1.397 . S
C200 C217 1.394 . S
C201 C200 1.397 . S
C201 C202 1.438 . S
C201 C206 1.429 . S
C202 C201 1.438 . S
C202 C203 1.428 1_545 S
C202 C215 1.394 1_545 S
C203 H195 0.949 . S
C203 C202 1.428 1_565 S
C203 C204 1.345 1_565 S
C204 H196 0.950 . S
C204 C203 1.345 1_545 S
C204 C205 1.424 . S
C205 H197 0.951 . S
C205 C204 1.424 . S
C205 C206 1.347 . S
C206 H198 0.951 . S
C206 C201 1.429 . S
C206 C205 1.347 . S
H207 C208 0.951 . S
C208 H207 0.951 . S
C208 C214 1.265 . S
H209 C214 0.950 . S
H210 C218 0.949 . S
H211 C219 0.950 . S
H212 C220 0.951 . S
H213 C221 0.951 . S
C214 C208 1.265 . S
C214 H209 0.950 . S
C214 C215 1.478 . S
C215 C202 1.394 1_565 S
C215 C214 1.478 . S
C215 C216 1.397 . S
C216 C215 1.397 . S
C216 C217 1.438 1_565 S
C216 C221 1.429 . S
C217 C200 1.394 . S
C217 C216 1.438 1_545 S
C217 C218 1.428 . S
C218 H210 0.949 . S
C218 C217 1.428 . S
C218 C219 1.345 1_545 S
C219 H211 0.950 . S
C219 C218 1.345 1_565 S
C219 C220 1.424 . S
C220 H212 0.951 . S
C220 C219 1.424 . S
C220 C221 1.347 . S
C221 H213 0.951 . S
C221 C216 1.429 . S
C221 C220 1.347 . S
H222 C223 0.951 . S
C223 H222 0.951 . S
C223 C229 1.265 . S
H224 C229 0.950 . S
H225 C233 0.949 . S
H226 C234 0.950 . S
H227 C235 0.951 . S
H228 C236 0.951 . S
C229 C223 1.265 . S
C229 H224 0.950 . S
C229 C230 1.478 . S
C230 C229 1.478 . S
C230 C231 1.397 . S
C230 C247 1.394 . S
C231 C230 1.397 . S
C231 C232 1.438 . S
C231 C236 1.429 . S
C232 C231 1.438 . S
C232 C233 1.428 . S
C232 C245 1.394 . S
C233 H225 0.949 . S
C233 C232 1.428 . S
C233 C234 1.345 . S
C234 H226 0.950 . S
C234 C233 1.345 . S
C234 C235 1.424 . S
C235 H227 0.951 . S
C235 C234 1.424 . S
C235 C236 1.347 . S
C236 H228 0.951 . S
C236 C231 1.429 . S
C236 C235 1.347 . S
H237 C238 0.951 1_554 S
C238 H237 0.951 1_556 S
C238 C244 1.265 . S
H239 C244 0.950 . S
H240 C248 0.949 . S
H241 C249 0.950 . S
H242 C250 0.951 . S
H243 C251 0.951 . S
C244 C238 1.265 . S
C244 H239 0.950 . S
C244 C245 1.478 . S
C245 C232 1.394 . S
C245 C244 1.478 . S
C245 C246 1.397 . S
C246 C245 1.397 . S
C246 C247 1.438 . S
C246 C251 1.429 . S
C247 C230 1.394 . S
C247 C246 1.438 . S
C247 C248 1.428 . S
C248 H240 0.949 . S
C248 C247 1.428 . S
C248 C249 1.345 . S
C249 H241 0.950 . S
C249 C248 1.345 . S
C249 C250 1.424 . S
C250 H242 0.951 . S
C250 C249 1.424 . S
C250 C251 1.347 . S
C251 H243 0.951 . S
C251 C246 1.429 . S
C251 C250 1.347 . S
H252 C253 0.951 . S
C253 H252 0.951 . S
C253 C259 1.265 . S
H254 C259 0.950 . S
H255 C263 0.949 . S
H256 C264 0.950 . S
H257 C265 0.951 . S
H258 C266 0.951 . S
C259 C253 1.265 . S
C259 H254 0.950 . S
C259 C260 1.478 . S
C260 C259 1.478 . S
C260 C261 1.387 1_455 S
C260 C277 1.394 . S
C261 C260 1.387 1_655 S
C261 C262 1.459 . S
C261 C266 1.419 1_655 S
C262 C261 1.459 . S
C262 C263 1.428 . S
C262 C275 1.394 . S
C263 H255 0.949 . S
C263 C262 1.428 . S
C263 C264 1.345 . S
C264 H256 0.950 . S
C264 C263 1.345 . S
C264 C265 1.424 . S
C265 H257 0.951 . S
C265 C264 1.424 . S
C265 C266 1.347 1_655 S
C266 H258 0.951 . S
C266 C261 1.419 1_455 S
C266 C265 1.347 1_455 S
H267 C268 0.951 . S
C268 H267 0.951 . S
C268 C274 1.265 . S
H269 C274 0.950 . S
H270 C278 0.949 . S
H271 C279 0.950 . S
H272 C280 0.951 1_556 S
H273 C281 0.951 . S
C274 C268 1.265 . S
C274 H269 0.950 . S
C274 C275 1.478 . S
C275 C262 1.394 . S
C275 C274 1.478 . S
C275 C276 1.397 . S
C276 C275 1.397 . S
C276 C277 1.438 1_655 S
C276 C281 1.429 . S
C277 C260 1.394 . S
C277 C276 1.438 1_455 S
C277 C278 1.428 . S
C278 H270 0.949 . S
C278 C277 1.428 . S
C278 C279 1.345 . S
C279 H271 0.950 . S
C279 C278 1.345 . S
C279 C280 1.424 . S
C280 H272 0.951 1_554 S
C280 C279 1.424 . S
C280 C281 1.347 1_455 S
C281 H273 0.951 . S
C281 C276 1.429 . S
C281 C280 1.347 1_655 S
H282 C283 0.951 . S
C283 H282 0.951 . S
C283 C289 1.265 . S
H284 C289 0.950 . S
H285 C293 0.949 . S
H286 C294 0.950 . S
H287 C295 0.951 . S
H288 C296 0.950 1_545 S
C289 C283 1.265 . S
C289 H284 0.950 . S
C289 C290 1.478 . S
C290 C289 1.478 . S
C290 C291 1.397 1_545 S
C290 C307 1.394 . S
C291 C290 1.397 1_565 S
C291 C292 1.438 . S
C291 C296 1.428 . S
C292 C291 1.438 . S
C292 C293 1.428 . S
C292 C305 1.394 . S
C293 H285 0.949 . S
C293 C292 1.428 . S
C293 C294 1.345 . S
C294 H286 0.950 . S
C294 C293 1.345 . S
C294 C295 1.424 . S
C295 H287 0.951 . S
C295 C294 1.424 . S
C295 C296 1.349 . S
C296 H288 0.950 1_565 S
C296 C291 1.428 . S
C296 C295 1.349 . S
H297 C298 0.951 . S
C298 H297 0.951 . S
C298 C304 1.265 . S
H299 C304 0.950 . S
H300 C308 0.949 . S
H301 C309 0.950 . S
H302 C310 0.951 . S
H303 C311 0.951 . S
C304 C298 1.265 . S
C304 H299 0.950 . S
C304 C305 1.478 . S
C305 C292 1.394 . S
C305 C304 1.478 . S
C305 C306 1.397 . S
C306 C305 1.397 . S
C306 C307 1.438 1_565 S
C306 C311 1.429 . S
C307 C290 1.394 . S
C307 C306 1.438 1_545 S
C307 C308 1.428 . S
C308 H300 0.949 . S
C308 C307 1.428 . S
C308 C309 1.345 . S
C309 H301 0.950 . S
C309 C308 1.345 . S
C309 C310 1.424 . S
C310 H302 0.951 . S
C310 C309 1.424 . S
C310 C311 1.347 1_545 S
C311 H303 0.951 . S
C311 C306 1.429 . S
C311 C310 1.347 1_565 S
H312 C313 0.951 . S
C313 H312 0.951 . S
C313 C319 1.265 . S
H314 C319 0.950 . S
H315 C323 0.949 . S
H316 C324 0.950 . S
H317 C325 0.951 . S
H318 C326 0.951 . S
C319 C313 1.265 . S
C319 H314 0.950 . S
C319 C320 1.478 . S
C320 C319 1.478 . S
C320 C321 1.397 . S
C320 C337 1.394 . S
C321 C320 1.397 . S
C321 C322 1.438 . S
C321 C326 1.429 . S
C322 C321 1.438 . S
C322 C323 1.428 . S
C322 C335 1.394 . S
C323 H315 0.949 . S
C323 C322 1.428 . S
C323 C324 1.345 . S
C324 H316 0.950 . S
C324 C323 1.345 . S
C324 C325 1.424 . S
C325 H317 0.951 . S
C325 C324 1.424 . S
C325 C326 1.347 . S
C326 H318 0.951 . S
C326 C321 1.429 . S
C326 C325 1.347 . S
H327 C328 0.951 . S
C328 H327 0.951 . S
C328 C334 1.265 . S
H329 C334 0.950 . S
H330 C338 0.949 . S
H331 C339 0.950 . S
H332 C340 0.951 . S
H333 C341 0.951 . S
C334 C328 1.265 . S
C334 H329 0.950 . S
C334 C335 1.478 . S
C335 C322 1.394 . S
C335 C334 1.478 . S
C335 C336 1.397 . S
C336 C335 1.397 . S
C336 C337 1.438 . S
C336 C341 1.429 . S
C337 C320 1.394 . S
C337 C336 1.438 . S
C337 C338 1.428 . S
C338 H330 0.949 . S
C338 C337 1.428 . S
C338 C339 1.345 . S
C339 H331 0.950 . S
C339 C338 1.345 . S
C339 C340 1.424 . S
C340 H332 0.951 . S
C340 C339 1.424 . S
C340 C341 1.347 . S
C341 H333 0.951 . S
C341 C336 1.429 . S
C341 C340 1.347 . S
H342 C343 0.951 . S
C343 H342 0.951 . S
C343 C349 1.265 . S
H344 C349 0.950 . S
H345 C353 0.949 . S
H346 C354 0.950 . S
H347 C355 0.951 . S
H348 C356 0.951 . S
C349 C343 1.265 . S
C349 H344 0.950 . S
C349 C350 1.478 1_554 S
C350 C349 1.478 1_556 S
C350 C351 1.397 . S
C350 C367 1.394 . S
C351 C350 1.397 . S
C351 C352 1.438 . S
C351 C356 1.429 . S
C352 C351 1.438 . S
C352 C353 1.428 . S
C352 C365 1.394 . S
C353 H345 0.949 . S
C353 C352 1.428 . S
C353 C354 1.345 . S
C354 H346 0.950 . S
C354 C353 1.345 . S
C354 C355 1.424 . S
C355 H347 0.951 . S
C355 C354 1.424 . S
C355 C356 1.347 . S
C356 H348 0.951 . S
C356 C351 1.429 . S
C356 C355 1.347 . S
H357 C358 0.951 . S
C358 H357 0.951 . S
C358 C364 1.265 . S
H359 C364 0.950 . S
H360 C368 0.949 . S
H361 C369 0.950 . S
H362 C370 0.951 . S
H363 C371 0.951 . S
C364 C358 1.265 . S
C364 H359 0.950 . S
C364 C365 1.478 . S
C365 C352 1.394 . S
C365 C364 1.478 . S
C365 C366 1.397 . S
C366 C365 1.397 . S
C366 C367 1.438 . S
C366 C371 1.429 . S
C367 C350 1.394 . S
C367 C366 1.438 . S
C367 C368 1.428 . S
C368 H360 0.949 . S
C368 C367 1.428 . S
C368 C369 1.345 . S
C369 H361 0.950 . S
C369 C368 1.345 . S
C369 C370 1.424 . S
C370 H362 0.951 . S
C370 C369 1.424 . S
C370 C371 1.347 . S
C371 H363 0.951 . S
C371 C366 1.429 . S
C371 C370 1.347 . S
H372 C373 0.951 . S
C373 H372 0.951 . S
C373 C379 1.265 . S
H374 C379 0.950 . S
H375 C383 0.949 1_556 S
H376 C384 0.950 . S
H377 C385 0.951 . S
H378 C386 0.951 . S
C379 C373 1.265 . S
C379 H374 0.950 . S
C379 C380 1.478 . S
C380 C379 1.478 . S
C380 C381 1.397 . S
C380 C397 1.394 . S
C381 C380 1.397 . S
C381 C382 1.438 . S
C381 C386 1.429 . S
C382 C381 1.438 . S
C382 C383 1.428 . S
C382 C395 1.394 . S
C383 H375 0.949 1_554 S
C383 C382 1.428 . S
C383 C384 1.345 . S
C384 H376 0.950 . S
C384 C383 1.345 . S
C384 C385 1.424 . S
C385 H377 0.951 . S
C385 C384 1.424 . S
C385 C386 1.347 . S
C386 H378 0.951 . S
C386 C381 1.429 . S
C386 C385 1.347 . S
H387 C388 0.951 . S
C388 H387 0.951 . S
C388 C394 1.265 . S
H389 C394 0.950 . S
H390 C398 0.949 . S
H391 C399 0.950 . S
H392 C400 0.951 . S
H393 C401 0.951 . S
C394 C388 1.265 . S
C394 H389 0.950 . S
C394 C395 1.478 1_556 S
C395 C382 1.394 . S
C395 C394 1.478 1_554 S
C395 C396 1.397 . S
C396 C395 1.397 . S
C396 C397 1.438 . S
C396 C401 1.429 . S
C397 C380 1.394 . S
C397 C396 1.438 . S
C397 C398 1.428 . S
C398 H390 0.949 . S
C398 C397 1.428 . S
C398 C399 1.345 . S
C399 H391 0.950 . S
C399 C398 1.345 . S
C399 C400 1.424 . S
C400 H392 0.951 . S
C400 C399 1.424 . S
C400 C401 1.347 . S
C401 H393 0.951 . S
C401 C396 1.429 . S
C401 C400 1.347 . S
H402 C403 0.951 . S
C403 H402 0.951 . S
C403 C409 1.265 . S
H404 C409 0.950 . S
H405 C413 0.949 . S
H406 C414 0.950 . S
H407 C415 0.951 . S
H408 C416 0.951 . S
C409 C403 1.265 . S
C409 H404 0.950 . S
C409 C410 1.478 . S
C410 C409 1.478 . S
C410 C411 1.397 . S
C410 C427 1.394 . S
C411 C410 1.397 . S
C411 C412 1.438 . S
C411 C416 1.429 . S
C412 C411 1.438 . S
C412 C413 1.428 . S
C412 C425 1.394 . S
C413 H405 0.949 . S
C413 C412 1.428 . S
C413 C414 1.345 . S
C414 H406 0.950 . S
C414 C413 1.345 . S
C414 C415 1.424 . S
C415 H407 0.951 . S
C415 C414 1.424 . S
C415 C416 1.347 . S
C416 H408 0.951 . S
C416 C411 1.429 . S
C416 C415 1.347 . S
H417 C418 0.951 . S
C418 H417 0.951 . S
C418 C424 1.265 . S
H419 C424 0.950 . S
H420 C428 0.949 . S
H421 C429 0.950 . S
H422 C430 0.951 . S
H423 C431 0.951 . S
C424 C418 1.265 . S
C424 H419 0.950 . S
C424 C425 1.478 . S
C425 C412 1.394 . S
C425 C424 1.478 . S
C425 C426 1.397 . S
C426 C425 1.397 . S
C426 C427 1.438 . S
C426 C431 1.429 . S
C427 C410 1.394 . S
C427 C426 1.438 . S
C427 C428 1.428 . S
C428 H420 0.949 . S
C428 C427 1.428 . S
C428 C429 1.345 . S
C429 H421 0.950 . S
C429 C428 1.345 . S
C429 C430 1.424 . S
C430 H422 0.951 . S
C430 C429 1.424 . S
C430 C431 1.347 . S
C431 H423 0.951 . S
C431 C426 1.429 . S
C431 C430 1.347 . S
H432 C433 0.951 . S
C433 H432 0.951 . S
C433 C439 1.265 . S
H434 C439 0.950 . S
H435 C443 0.949 1_554 S
H436 C444 0.950 . S
H437 C445 0.951 . S
H438 C446 0.951 . S
C439 C433 1.265 . S
C439 H434 0.950 . S
C439 C440 1.478 . S
C440 C439 1.478 . S
C440 C441 1.397 . S
C440 C457 1.394 . S
C441 C440 1.397 . S
C441 C442 1.438 . S
C441 C446 1.429 . S
C442 C441 1.438 . S
C442 C443 1.428 . S
C442 C455 1.394 . S
C443 H435 0.949 1_556 S
C443 C442 1.428 . S
C443 C444 1.345 . S
C444 H436 0.950 . S
C444 C443 1.345 . S
C444 C445 1.424 . S
C445 H437 0.951 . S
C445 C444 1.424 . S
C445 C446 1.347 . S
C446 H438 0.951 . S
C446 C441 1.429 . S
C446 C445 1.347 . S
H447 C448 0.951 . S
C448 H447 0.951 . S
C448 C454 1.265 . S
H449 C454 0.950 . S
H450 C458 0.949 . S
H451 C459 0.950 . S
H452 C460 0.951 . S
H453 C461 0.951 . S
C454 C448 1.265 . S
C454 H449 0.950 . S
C454 C455 1.478 1_554 S
C455 C442 1.394 . S
C455 C454 1.478 1_556 S
C455 C456 1.397 . S
C456 C455 1.397 . S
C456 C457 1.438 . S
C456 C461 1.429 . S
C457 C440 1.394 . S
C457 C456 1.438 . S
C457 C458 1.428 . S
C458 H450 0.949 . S
C458 C457 1.428 . S
C458 C459 1.345 . S
C459 H451 0.950 . S
C459 C458 1.345 . S
C459 C460 1.424 . S
C460 H452 0.951 . S
C460 C459 1.424 . S
C460 C461 1.347 . S
C461 H453 0.951 . S
C461 C456 1.429 . S
C461 C460 1.347 . S
H462 C463 0.951 . S
C463 H462 0.951 . S
C463 C469 1.265 . S
H464 C469 0.950 . S
H465 C473 0.949 1_556 S
H466 C474 0.950 . S
H467 C475 0.951 . S
H468 C476 0.951 . S
C469 C463 1.265 . S
C469 H464 0.950 . S
C469 C470 1.478 . S
C470 C469 1.478 . S
C470 C471 1.397 . S
C470 C487 1.394 . S
C471 C470 1.397 . S
C471 C472 1.438 . S
C471 C476 1.429 . S
C472 C471 1.438 . S
C472 C473 1.428 . S
C472 C485 1.394 . S
C473 H465 0.949 1_554 S
C473 C472 1.428 . S
C473 C474 1.345 . S
C474 H466 0.950 . S
C474 C473 1.345 . S
C474 C475 1.424 . S
C475 H467 0.951 . S
C475 C474 1.424 . S
C475 C476 1.347 . S
C476 H468 0.951 . S
C476 C471 1.429 . S
C476 C475 1.347 . S
H477 C478 0.951 . S
C478 H477 0.951 . S
C478 C484 1.265 . S
H479 C484 0.950 . S
H480 C488 0.949 . S
H481 C489 0.950 . S
H482 C490 0.951 . S
H483 C491 0.951 . S
C484 C478 1.265 . S
C484 H479 0.950 . S
C484 C485 1.478 1_556 S
C485 C472 1.394 . S
C485 C484 1.478 1_554 S
C485 C486 1.397 . S
C486 C485 1.397 . S
C486 C487 1.438 . S
C486 C491 1.429 . S
C487 C470 1.394 . S
C487 C486 1.438 . S
C487 C488 1.428 . S
C488 H480 0.949 . S
C488 C487 1.428 . S
C488 C489 1.345 . S
C489 H481 0.950 . S
C489 C488 1.345 . S
C489 C490 1.424 . S
C490 H482 0.951 . S
C490 C489 1.424 . S
C490 C491 1.347 . S
C491 H483 0.951 . S
C491 C486 1.429 . S
C491 C490 1.347 . S
H492 C493 0.951 . S
C493 H492 0.951 . S
C493 C499 1.265 . S
H494 C499 0.950 . S
H495 C503 0.949 . S
H496 C504 0.950 . S
H497 C505 0.951 . S
H498 C506 0.951 . S
C499 C493 1.265 . S
C499 H494 0.950 . S
C499 C500 1.478 . S
C500 C499 1.478 . S
C500 C501 1.397 . S
C500 C517 1.394 . S
C501 C500 1.397 . S
C501 C502 1.438 . S
C501 C506 1.429 . S
C502 C501 1.438 . S
C502 C503 1.428 . S
C502 C515 1.394 . S
C503 H495 0.949 . S
C503 C502 1.428 . S
C503 C504 1.345 . S
C504 H496 0.950 . S
C504 C503 1.345 . S
C504 C505 1.424 . S
C505 H497 0.951 . S
C505 C504 1.424 . S
C505 C506 1.347 . S
C506 H498 0.951 . S
C506 C501 1.429 . S
C506 C505 1.347 . S
H507 C508 0.951 . S
C508 H507 0.951 . S
C508 C514 1.265 . S
H509 C514 0.950 . S
H510 C518 0.949 1_556 S
H511 C519 0.950 . S
H512 C520 0.951 . S
H513 C521 0.951 . S
C514 C508 1.265 . S
C514 H509 0.950 . S
C514 C515 1.478 . S
C515 C502 1.394 . S
C515 C514 1.478 . S
C515 C516 1.397 . S
C516 C515 1.397 . S
C516 C517 1.438 . S
C516 C521 1.429 . S
C517 C500 1.394 . S
C517 C516 1.438 . S
C517 C518 1.428 . S
C518 H510 0.949 1_554 S
C518 C517 1.428 . S
C518 C519 1.345 1_554 S
C519 H511 0.950 . S
C519 C518 1.345 1_556 S
C519 C520 1.424 . S
C520 H512 0.951 . S
C520 C519 1.424 . S
C520 C521 1.347 1_556 S
C521 H513 0.951 . S
C521 C516 1.429 . S
C521 C520 1.347 1_554 S
H522 C523 0.951 . S
C523 H522 0.951 . S
C523 C529 1.265 . S
H524 C529 0.950 . S
H525 C533 0.949 . S
H526 C534 0.950 . S
H527 C535 0.951 . S
H528 C536 0.951 . S
C529 C523 1.265 . S
C529 H524 0.950 . S
C529 C530 1.478 . S
C530 C529 1.478 . S
C530 C531 1.397 . S
C530 C547 1.394 . S
C531 C530 1.397 . S
C531 C532 1.438 . S
C531 C536 1.429 . S
C532 C531 1.438 . S
C532 C533 1.428 . S
C532 C545 1.394 . S
C533 H525 0.949 . S
C533 C532 1.428 . S
C533 C534 1.345 . S
C534 H526 0.950 . S
C534 C533 1.345 . S
C534 C535 1.424 . S
C535 H527 0.951 . S
C535 C534 1.424 . S
C535 C536 1.347 . S
C536 H528 0.951 . S
C536 C531 1.429 . S
C536 C535 1.347 . S
H537 C538 0.951 . S
C538 H537 0.951 . S
C538 C544 1.265 . S
H539 C544 0.950 . S
H540 C548 0.949 . S
H541 C549 0.950 . S
H542 C550 0.951 . S
H543 C551 0.951 . S
C544 C538 1.265 . S
C544 H539 0.950 . S
C544 C545 1.478 . S
C545 C532 1.394 . S
C545 C544 1.478 . S
C545 C546 1.397 . S
C546 C545 1.397 . S
C546 C547 1.438 . S
C546 C551 1.429 . S
C547 C530 1.394 . S
C547 C546 1.438 . S
C547 C548 1.428 . S
C548 H540 0.949 . S
C548 C547 1.428 . S
C548 C549 1.345 . S
C549 H541 0.950 . S
C549 C548 1.345 . S
C549 C550 1.424 . S
C550 H542 0.951 . S
C550 C549 1.424 . S
C550 C551 1.347 . S
C551 H543 0.951 . S
C551 C546 1.429 . S
C551 C550 1.347 . S
H552 C553 0.951 . S
C553 H552 0.951 . S
C553 C559 1.265 . S
H554 C559 0.950 . S
H555 C563 0.949 . S
H556 C564 0.950 . S
H557 C565 0.951 . S
H558 C566 0.951 . S
C559 C553 1.265 . S
C559 H554 0.950 . S
C559 C560 1.478 . S
C560 C559 1.478 . S
C560 C561 1.397 . S
C560 C577 1.394 . S
C561 C560 1.397 . S
C561 C562 1.438 . S
C561 C566 1.429 . S
C562 C561 1.438 . S
C562 C563 1.428 . S
C562 C575 1.394 . S
C563 H555 0.949 . S
C563 C562 1.428 . S
C563 C564 1.345 1_556 S
C564 H556 0.950 . S
C564 C563 1.345 1_554 S
C564 C565 1.424 . S
C565 H557 0.951 . S
C565 C564 1.424 . S
C565 C566 1.347 1_554 S
C566 H558 0.951 . S
C566 C561 1.429 . S
C566 C565 1.347 1_556 S
H567 C568 0.951 . S
C568 H567 0.951 . S
C568 C574 1.265 . S
H569 C574 0.950 . S
H570 C578 0.949 . S
H571 C579 0.950 . S
H572 C580 0.951 . S
H573 C581 0.951 . S
C574 C568 1.265 . S
C574 H569 0.950 . S
C574 C575 1.478 . S
C575 C562 1.394 . S
C575 C574 1.478 . S
C575 C576 1.397 . S
C576 C575 1.397 . S
C576 C577 1.438 . S
C576 C581 1.429 . S
C577 C560 1.394 . S
C577 C576 1.438 . S
C577 C578 1.428 . S
C578 H570 0.949 . S
C578 C577 1.428 . S
C578 C579 1.345 . S
C579 H571 0.950 . S
C579 C578 1.345 . S
C579 C580 1.424 . S
C580 H572 0.951 . S
C580 C579 1.424 . S
C580 C581 1.347 . S
C581 H573 0.951 . S
C581 C576 1.429 . S
C581 C580 1.347 . S
H582 C583 0.951 . S
C583 H582 0.951 . S
C583 C589 1.265 . S
H584 C589 0.950 . S
H585 C593 0.948 1_556 S
H586 C594 0.950 . S
H587 C595 0.951 . S
H588 C596 0.951 . S
C589 C583 1.265 . S
C589 H584 0.950 . S
C589 C590 1.478 . S
C590 C589 1.478 . S
C590 C591 1.397 . S
C590 C607 1.394 . S
C591 C590 1.397 . S
C591 C592 1.438 . S
C591 C596 1.429 . S
C592 C591 1.438 . S
C592 C593 1.437 . S
C592 C605 1.394 . S
C593 H585 0.948 1_554 S
C593 C592 1.437 . S
C593 C594 1.336 1_554 S
C594 H586 0.950 . S
C594 C593 1.336 1_556 S
C594 C595 1.424 . S
C595 H587 0.951 . S
C595 C594 1.424 . S
C595 C596 1.347 1_556 S
C596 H588 0.951 . S
C596 C591 1.429 . S
C596 C595 1.347 1_554 S
H597 C598 0.951 . S
C598 H597 0.951 . S
C598 C604 1.265 . S
H599 C604 0.950 . S
H600 C608 0.949 . S
H601 C609 0.950 . S
H602 C610 0.951 . S
H603 C611 0.951 . S
C604 C598 1.265 . S
C604 H599 0.950 . S
C604 C605 1.478 . S
C605 C592 1.394 . S
C605 C604 1.478 . S
C605 C606 1.397 . S
C606 C605 1.397 . S
C606 C607 1.438 . S
C606 C611 1.429 . S
C607 C590 1.394 . S
C607 C606 1.438 . S
C607 C608 1.428 . S
C608 H600 0.949 . S
C608 C607 1.428 . S
C608 C609 1.345 . S
C609 H601 0.950 . S
C609 C608 1.345 . S
C609 C610 1.424 . S
C610 H602 0.951 . S
C610 C609 1.424 . S
C610 C611 1.347 . S
C611 H603 0.951 . S
C611 C606 1.429 . S
C611 C610 1.347 . S
H612 C613 0.951 . S
C613 H612 0.951 . S
C613 C619 1.265 . S
H614 C619 0.950 . S
H615 C623 0.949 . S
H616 C624 0.950 . S
H617 C625 0.951 . S
H618 C626 0.951 . S
C619 C613 1.265 . S
C619 H614 0.950 . S
C619 C620 1.478 . S
C620 C619 1.478 . S
C620 C621 1.397 . S
C620 C637 1.394 . S
C621 C620 1.397 . S
C621 C622 1.438 . S
C621 C626 1.429 . S
C622 C621 1.438 . S
C622 C623 1.428 . S
C622 C635 1.394 . S
C623 H615 0.949 . S
C623 C622 1.428 . S
C623 C624 1.345 . S
C624 H616 0.950 . S
C624 C623 1.345 . S
C624 C625 1.424 . S
C625 H617 0.951 . S
C625 C624 1.424 . S
C625 C626 1.347 . S
C626 H618 0.951 . S
C626 C621 1.429 . S
C626 C625 1.347 . S
H627 C628 0.951 . S
C628 H627 0.951 . S
C628 C634 1.265 . S
H629 C634 0.950 . S
H630 C638 0.949 . S
H631 C639 0.950 . S
H632 C640 0.951 . S
H633 C641 0.951 . S
C634 C628 1.265 . S
C634 H629 0.950 . S
C634 C635 1.478 . S
C635 C622 1.394 . S
C635 C634 1.478 . S
C635 C636 1.397 . S
C636 C635 1.397 . S
C636 C637 1.438 . S
C636 C641 1.429 . S
C637 C620 1.394 . S
C637 C636 1.438 . S
C637 C638 1.428 . S
C638 H630 0.949 . S
C638 C637 1.428 . S
C638 C639 1.345 . S
C639 H631 0.950 . S
C639 C638 1.345 . S
C639 C640 1.424 . S
C640 H632 0.951 . S
C640 C639 1.424 . S
C640 C641 1.347 . S
C641 H633 0.951 . S
C641 C636 1.429 . S
C641 C640 1.347 . S
H642 C643 0.951 . S
C643 H642 0.951 . S
C643 C649 1.265 . S
H644 C649 0.950 . S
H645 C653 0.949 . S
H646 C654 0.950 . S
H647 C655 0.951 . S
H648 C656 0.951 1_554 S
C649 C643 1.265 . S
C649 H644 0.950 . S
C649 C650 1.478 . S
C650 C649 1.478 . S
C650 C651 1.397 . S
C650 C667 1.394 . S
C651 C650 1.397 . S
C651 C652 1.438 . S
C651 C656 1.429 . S
C652 C651 1.438 . S
C652 C653 1.428 . S
C652 C665 1.394 . S
C653 H645 0.949 . S
C653 C652 1.428 . S
C653 C654 1.345 1_556 S
C654 H646 0.950 . S
C654 C653 1.345 1_554 S
C654 C655 1.424 . S
C655 H647 0.951 . S
C655 C654 1.424 . S
C655 C656 1.347 1_554 S
C656 H648 0.951 1_556 S
C656 C651 1.429 . S
C656 C655 1.347 1_556 S
H657 C658 0.951 . S
C658 H657 0.951 . S
C658 C664 1.265 . S
H659 C664 0.950 . S
H660 C668 0.949 . S
H661 C669 0.950 . S
H662 C670 0.951 . S
H663 C671 0.951 . S
C664 C658 1.265 . S
C664 H659 0.950 . S
C664 C665 1.478 . S
C665 C652 1.394 . S
C665 C664 1.478 . S
C665 C666 1.397 . S
C666 C665 1.397 . S
C666 C667 1.438 . S
C666 C671 1.429 . S
C667 C650 1.394 . S
C667 C666 1.438 . S
C667 C668 1.428 . S
C668 H660 0.949 . S
C668 C667 1.428 . S
C668 C669 1.345 . S
C669 H661 0.950 . S
C669 C668 1.345 . S
C669 C670 1.424 . S
C670 H662 0.951 . S
C670 C669 1.424 . S
C670 C671 1.347 . S
C671 H663 0.951 . S
C671 C666 1.429 . S
C671 C670 1.347 . S
C133 C125 1.652 . S
C148 C18 1.662 1_556 S
C163 C15 1.650 . S
C178 C40 1.635 . S
C193 C37 1.695 . S
C208 C54 1.651 . S
C223 C65 1.685 . S
C238 C76 1.687 1_556 S
C253 C98 1.652 . S
C268 C87 1.699 . S
C283 C128 1.651 . S
C298 C109 1.695 . S
C313 C10 0.908 . S
C328 C7 0.924 . S
C343 C32 0.952 . S
C358 C29 0.893 . S
C373 C52 0.862 . S
C388 C59 0.970 . S
C403 C74 0.944 . S
C418 C81 0.934 . S
C433 C103 0.886 . S
C448 C96 0.966 . S
C463 C120 0.863 . S
C478 C117 0.969 . S
C493 C21 1.205 . S
C508 C106 1.232 . S
C523 C43 1.263 . S
C538 C118 1.270 . S
C553 C8 1.213 . S
C568 C51 1.183 . S
C583 C30 1.213 . S
C598 C73 1.205 . S
C613 C95 1.263 . S
C628 C62 1.264 . S
C643 C84 1.224 . S
C658 C131 1.196 . S
