# Generated by pormake.
# Topology wgr, (5)-cn, num edge types: 1
# Building blocks:
#     Node 0, Type 0, BuildingBlock: BEQFEK_clean_sbu_0, # of connection points: 5
#     Node 1, Type 0, BuildingBlock: BEQFEK_clean_sbu_0, # of connection points: 5
#     Node 2, Type 0, BuildingBlock: BEQFEK_clean_sbu_0, # of connection points: 5
#     Node 3, Type 0, BuildingBlock: BEQFEK_clean_sbu_0, # of connection points: 5
#     Node 4, Type 0, BuildingBlock: BEQFEK_clean_sbu_0, # of connection points: 5
#     Node 5, Type 0, BuildingBlock: BEQFEK_clean_sbu_0, # of connection points: 5
#     Node 6, Type 0, BuildingBlock: BEQFEK_clean_sbu_0, # of connection points: 5
#     Node 7, Type 0, BuildingBlock: BEQFEK_clean_sbu_0, # of connection points: 5
#     Node 8, Type 0, BuildingBlock: BEQFEK_clean_sbu_0, # of connection points: 5
#     Node 9, Type 0, BuildingBlock: BEQFEK_clean_sbu_0, # of connection points: 5
#     Node 10, Type 0, BuildingBlock: BEQFEK_clean_sbu_0, # of connection points: 5
#     Node 11, Type 0, BuildingBlock: BEQFEK_clean_sbu_0, # of connection points: 5
#     Node 12, Type 0, BuildingBlock: BEQFEK_clean_sbu_0, # of connection points: 5
#     Node 13, Type 0, BuildingBlock: BEQFEK_clean_sbu_0, # of connection points: 5
#     Node 14, Type 0, BuildingBlock: BEQFEK_clean_sbu_0, # of connection points: 5
#     Node 15, Type 0, BuildingBlock: BEQFEK_clean_sbu_0, # of connection points: 5
#     Node 16, Type 0, BuildingBlock: BEQFEK_clean_sbu_0, # of connection points: 5
#     Node 17, Type 0, BuildingBlock: BEQFEK_clean_sbu_0, # of connection points: 5
#     Node 18, Type 0, BuildingBlock: BEQFEK_clean_sbu_0, # of connection points: 5
#     Node 19, Type 0, BuildingBlock: BEQFEK_clean_sbu_0, # of connection points: 5
#     Node 20, Type 0, BuildingBlock: BEQFEK_clean_sbu_0, # of connection points: 5
#     Node 21, Type 0, BuildingBlock: BEQFEK_clean_sbu_0, # of connection points: 5
#     Node 22, Type 0, BuildingBlock: BEQFEK_clean_sbu_0, # of connection points: 5
#     Node 23, Type 0, BuildingBlock: BEQFEK_clean_sbu_0, # of connection points: 5
#     Node 24, Type 0, BuildingBlock: BEQFEK_clean_sbu_0, # of connection points: 5
#     Node 25, Type 0, BuildingBlock: BEQFEK_clean_sbu_0, # of connection points: 5
#     Node 26, Type 0, BuildingBlock: BEQFEK_clean_sbu_0, # of connection points: 5
#     Node 27, Type 0, BuildingBlock: BEQFEK_clean_sbu_0, # of connection points: 5
#     Node 28, Type 0, BuildingBlock: BEQFEK_clean_sbu_0, # of connection points: 5
#     Node 29, Type 0, BuildingBlock: BEQFEK_clean_sbu_0, # of connection points: 5
#     Node 30, Type 0, BuildingBlock: BEQFEK_clean_sbu_0, # of connection points: 5
#     Node 31, Type 0, BuildingBlock: BEQFEK_clean_sbu_0, # of connection points: 5
#     Edge 32, Type (0, 0), BuildingBlock: EZIPEK_clean_linker_0, # of connection points: 2
#     Edge 33, Type (0, 0), BuildingBlock: EZIPEK_clean_linker_0, # of connection points: 2
#     Edge 34, Type (0, 0), BuildingBlock: EZIPEK_clean_linker_0, # of connection points: 2
#     Edge 35, Type (0, 0), BuildingBlock: EZIPEK_clean_linker_0, # of connection points: 2
#     Edge 36, Type (0, 0), BuildingBlock: EZIPEK_clean_linker_0, # of connection points: 2
#     Edge 37, Type (0, 0), BuildingBlock: EZIPEK_clean_linker_0, # of connection points: 2
#     Edge 38, Type (0, 0), BuildingBlock: EZIPEK_clean_linker_0, # of connection points: 2
#     Edge 39, Type (0, 0), BuildingBlock: EZIPEK_clean_linker_0, # of connection points: 2
#     Edge 40, Type (0, 0), BuildingBlock: EZIPEK_clean_linker_0, # of connection points: 2
#     Edge 41, Type (0, 0), BuildingBlock: EZIPEK_clean_linker_0, # of connection points: 2
#     Edge 42, Type (0, 0), BuildingBlock: EZIPEK_clean_linker_0, # of connection points: 2
#     Edge 43, Type (0, 0), BuildingBlock: EZIPEK_clean_linker_0, # of connection points: 2
#     Edge 44, Type (0, 0), BuildingBlock: EZIPEK_clean_linker_0, # of connection points: 2
#     Edge 45, Type (0, 0), BuildingBlock: EZIPEK_clean_linker_0, # of connection points: 2
#     Edge 46, Type (0, 0), BuildingBlock: EZIPEK_clean_linker_0, # of connection points: 2
#     Edge 47, Type (0, 0), BuildingBlock: EZIPEK_clean_linker_0, # of connection points: 2
#     Edge 48, Type (0, 0), BuildingBlock: EZIPEK_clean_linker_0, # of connection points: 2
#     Edge 49, Type (0, 0), BuildingBlock: EZIPEK_clean_linker_0, # of connection points: 2
#     Edge 50, Type (0, 0), BuildingBlock: EZIPEK_clean_linker_0, # of connection points: 2
#     Edge 51, Type (0, 0), BuildingBlock: EZIPEK_clean_linker_0, # of connection points: 2
#     Edge 52, Type (0, 0), BuildingBlock: EZIPEK_clean_linker_0, # of connection points: 2
#     Edge 53, Type (0, 0), BuildingBlock: EZIPEK_clean_linker_0, # of connection points: 2
#     Edge 54, Type (0, 0), BuildingBlock: EZIPEK_clean_linker_0, # of connection points: 2
#     Edge 55, Type (0, 0), BuildingBlock: EZIPEK_clean_linker_0, # of connection points: 2
#     Edge 56, Type (0, 0), BuildingBlock: EZIPEK_clean_linker_0, # of connection points: 2
#     Edge 57, Type (0, 0), BuildingBlock: EZIPEK_clean_linker_0, # of connection points: 2
#     Edge 58, Type (0, 0), BuildingBlock: EZIPEK_clean_linker_0, # of connection points: 2
#     Edge 59, Type (0, 0), BuildingBlock: EZIPEK_clean_linker_0, # of connection points: 2
#     Edge 60, Type (0, 0), BuildingBlock: EZIPEK_clean_linker_0, # of connection points: 2
#     Edge 61, Type (0, 0), BuildingBlock: EZIPEK_clean_linker_0, # of connection points: 2
#     Edge 62, Type (0, 0), BuildingBlock: EZIPEK_clean_linker_0, # of connection points: 2
#     Edge 63, Type (0, 0), BuildingBlock: EZIPEK_clean_linker_0, # of connection points: 2
#     Edge 64, Type (0, 0), BuildingBlock: EZIPEK_clean_linker_0, # of connection points: 2
#     Edge 65, Type (0, 0), BuildingBlock: EZIPEK_clean_linker_0, # of connection points: 2
#     Edge 66, Type (0, 0), BuildingBlock: EZIPEK_clean_linker_0, # of connection points: 2
#     Edge 67, Type (0, 0), BuildingBlock: EZIPEK_clean_linker_0, # of connection points: 2
#     Edge 68, Type (0, 0), BuildingBlock: EZIPEK_clean_linker_0, # of connection points: 2
#     Edge 69, Type (0, 0), BuildingBlock: EZIPEK_clean_linker_0, # of connection points: 2
#     Edge 70, Type (0, 0), BuildingBlock: EZIPEK_clean_linker_0, # of connection points: 2
#     Edge 71, Type (0, 0), BuildingBlock: EZIPEK_clean_linker_0, # of connection points: 2
#     Edge 72, Type (0, 0), BuildingBlock: EZIPEK_clean_linker_0, # of connection points: 2
#     Edge 73, Type (0, 0), BuildingBlock: EZIPEK_clean_linker_0, # of connection points: 2
#     Edge 74, Type (0, 0), BuildingBlock: EZIPEK_clean_linker_0, # of connection points: 2
#     Edge 75, Type (0, 0), BuildingBlock: EZIPEK_clean_linker_0, # of connection points: 2
#     Edge 76, Type (0, 0), BuildingBlock: EZIPEK_clean_linker_0, # of connection points: 2
#     Edge 77, Type (0, 0), BuildingBlock: EZIPEK_clean_linker_0, # of connection points: 2
#     Edge 78, Type (0, 0), BuildingBlock: EZIPEK_clean_linker_0, # of connection points: 2
#     Edge 79, Type (0, 0), BuildingBlock: EZIPEK_clean_linker_0, # of connection points: 2
#     Edge 80, Type (0, 0), BuildingBlock: EZIPEK_clean_linker_0, # of connection points: 2
#     Edge 81, Type (0, 0), BuildingBlock: EZIPEK_clean_linker_0, # of connection points: 2
#     Edge 82, Type (0, 0), BuildingBlock: EZIPEK_clean_linker_0, # of connection points: 2
#     Edge 83, Type (0, 0), BuildingBlock: EZIPEK_clean_linker_0, # of connection points: 2
#     Edge 84, Type (0, 0), BuildingBlock: EZIPEK_clean_linker_0, # of connection points: 2
#     Edge 85, Type (0, 0), BuildingBlock: EZIPEK_clean_linker_0, # of connection points: 2
#     Edge 86, Type (0, 0), BuildingBlock: EZIPEK_clean_linker_0, # of connection points: 2
#     Edge 87, Type (0, 0), BuildingBlock: EZIPEK_clean_linker_0, # of connection points: 2
#     Edge 88, Type (0, 0), BuildingBlock: EZIPEK_clean_linker_0, # of connection points: 2
#     Edge 89, Type (0, 0), BuildingBlock: EZIPEK_clean_linker_0, # of connection points: 2
#     Edge 90, Type (0, 0), BuildingBlock: EZIPEK_clean_linker_0, # of connection points: 2
#     Edge 91, Type (0, 0), BuildingBlock: EZIPEK_clean_linker_0, # of connection points: 2
#     Edge 92, Type (0, 0), BuildingBlock: EZIPEK_clean_linker_0, # of connection points: 2
#     Edge 93, Type (0, 0), BuildingBlock: EZIPEK_clean_linker_0, # of connection points: 2
#     Edge 94, Type (0, 0), BuildingBlock: EZIPEK_clean_linker_0, # of connection points: 2
#     Edge 95, Type (0, 0), BuildingBlock: EZIPEK_clean_linker_0, # of connection points: 2
#     Edge 96, Type (0, 0), BuildingBlock: EZIPEK_clean_linker_0, # of connection points: 2
#     Edge 97, Type (0, 0), BuildingBlock: EZIPEK_clean_linker_0, # of connection points: 2
#     Edge 98, Type (0, 0), BuildingBlock: EZIPEK_clean_linker_0, # of connection points: 2
#     Edge 99, Type (0, 0), BuildingBlock: EZIPEK_clean_linker_0, # of connection points: 2
#     Edge 100, Type (0, 0), BuildingBlock: EZIPEK_clean_linker_0, # of connection points: 2
#     Edge 101, Type (0, 0), BuildingBlock: EZIPEK_clean_linker_0, # of connection points: 2
#     Edge 102, Type (0, 0), BuildingBlock: EZIPEK_clean_linker_0, # of connection points: 2
#     Edge 103, Type (0, 0), BuildingBlock: EZIPEK_clean_linker_0, # of connection points: 2
#     Edge 104, Type (0, 0), BuildingBlock: EZIPEK_clean_linker_0, # of connection points: 2
#     Edge 105, Type (0, 0), BuildingBlock: EZIPEK_clean_linker_0, # of connection points: 2
#     Edge 106, Type (0, 0), BuildingBlock: EZIPEK_clean_linker_0, # of connection points: 2
#     Edge 107, Type (0, 0), BuildingBlock: EZIPEK_clean_linker_0, # of connection points: 2
#     Edge 108, Type (0, 0), BuildingBlock: EZIPEK_clean_linker_0, # of connection points: 2
#     Edge 109, Type (0, 0), BuildingBlock: EZIPEK_clean_linker_0, # of connection points: 2
#     Edge 110, Type (0, 0), BuildingBlock: EZIPEK_clean_linker_0, # of connection points: 2
#     Edge 111, Type (0, 0), BuildingBlock: EZIPEK_clean_linker_0, # of connection points: 2
# Relax obj value: 0.155
# Max RMSD: 0.221
# Mean RMSD: 0.221
data_MOF--net-wgr--node1-BEQFEK_clean_sbu_0--edge1-EZIPEK_clean_linker_0
_symmetry_space_group_name_H-M    P1
_symmetry_Int_Tables_number       1
_symmetry_cell_setting            triclinic
loop_
_symmetry_equiv_pos_as_xyz
'x, y, z'
_cell_length_a     20.527626
_cell_length_b     20.522756
_cell_length_c     122.35032
_cell_angle_alpha  89.99523
_cell_angle_beta   89.97034
_cell_angle_gamma 90.013819
loop_
_atom_site_label
_atom_site_type_symbol
_atom_site_fract_x
_atom_site_fract_y
_atom_site_fract_z
_atom_type_partial_charge
Co0 Co 0.34479 0.04986 0.21012 0.0
Co1 Co 0.31458 0.04559 0.18472 0.0
C2 C 0.22129 0.10819 0.19886 0.0
O3 O 0.26089 0.09574 0.20665 0.0
O4 O 0.2324 0.08639 0.18928 0.0
C5 C 0.31061 0.00226 0.23165 0.0
O6 O 0.26471 0.97146 0.22624 0.0
C7 C 0.27656 0.01246 0.16162 0.0
C8 C 0.37237 0.02382 0.15358 0.0
C9 C 0.30831 0.00652 0.15161 0.0
N10 N 0.32031 0.03184 0.16918 0.0
N11 N 0.37715 0.03916 0.16423 0.0
C12 C 0.20661 0.99762 0.16397 0.0
H13 H 0.19652 0.00047 0.17286 0.0
H14 H 0.19429 0.9484 0.16082 0.0
H15 H 0.17514 0.03317 0.15964 0.0
C16 C 0.37543 0.91137 0.20568 0.0
N17 N 0.35472 0.97049 0.20244 0.0
N18 N 0.33219 0.96636 0.19242 0.0
C19 C 0.33216 0.90313 0.18937 0.0
C20 C 0.35953 0.86584 0.19771 0.0
C21 C 0.41373 0.89948 0.21587 0.0
H22 H 0.44655 0.94148 0.21738 0.0
H23 H 0.38024 0.89463 0.22292 0.0
H24 H 0.44292 0.85412 0.21519 0.0
O25 O 0.41046 0.11176 0.20547 0.0
O26 O 0.38105 0.11515 0.18794 0.0
H27 H 0.3338 0.89321 0.17202 0.0
H28 H 0.29666 0.82503 0.17901 0.0
C29 C 0.30251 0.87873 0.17899 0.0
H30 H 0.25402 0.90133 0.1779 0.0
H31 H 0.41982 0.05329 0.16822 0.0
O32 O 0.35063 0.03802 0.22643 0.0
C33 C 0.41459 0.13637 0.19597 0.0
Co34 Co 0.20621 0.086 0.45875 0.0
Co35 Co 0.2022 0.11068 0.43371 0.0
C36 C 0.14009 0.99354 0.44534 0.0
O37 O 0.17097 0.00122 0.45423 0.0
O38 O 0.14837 0.03211 0.4373 0.0
C39 C 0.19808 0.04201 0.48093 0.0
O40 O 0.16156 0.99533 0.47689 0.0
C41 C 0.22112 0.06786 0.41102 0.0
C42 C 0.23864 0.16165 0.40263 0.0
C43 C 0.23732 0.09486 0.40097 0.0
N44 N 0.21488 0.11646 0.41831 0.0
N45 N 0.22423 0.17241 0.4132 0.0
C46 C 0.21163 0.9974 0.41374 0.0
H47 H 0.16091 0.98982 0.41661 0.0
H48 H 0.24464 0.98374 0.42055 0.0
H49 H 0.22065 0.96554 0.40658 0.0
C50 C 0.34742 0.09862 0.45491 0.0
N51 N 0.28506 0.10296 0.45157 0.0
N52 N 0.28359 0.11662 0.44109 0.0
C53 C 0.3452 0.12492 0.43755 0.0
C54 C 0.38788 0.11237 0.44611 0.0
C55 C 0.3673 0.07297 0.46586 0.0
H56 H 0.33889 0.02836 0.46777 0.0
H57 H 0.42017 0.06185 0.46617 0.0
H58 H 0.35567 0.10991 0.47219 0.0
O59 O 0.13623 0.15196 0.45545 0.0
O60 O 0.14446 0.18067 0.43815 0.0
H61 H 0.33823 0.18298 0.42313 0.0
H62 H 0.41697 0.14587 0.42505 0.0
C63 C 0.36367 0.13849 0.42595 0.0
H64 H 0.34829 0.0971 0.42077 0.0
H65 H 0.2226 0.21787 0.41702 0.0
O66 O 0.22151 0.08549 0.47467 0.0
C67 C 0.11683 0.18642 0.4474 0.0
Co68 Co 0.1613 0.9527 0.70832 0.0
Co69 Co 0.19156 0.95275 0.68322 0.0
C70 C 0.28518 0.89283 0.69761 0.0
O71 O 0.24504 0.90619 0.70527 0.0
O72 O 0.27443 0.91315 0.68793 0.0
C73 C 0.20507 0.98738 0.72975 0.0
O74 O 0.26172 0.9939 0.72487 0.0
C75 C 0.22728 0.97718 0.65987 0.0
C76 C 0.13174 0.95841 0.65213 0.0
C77 C 0.19534 0.976 0.64987 0.0
N78 N 0.18416 0.96111 0.66772 0.0
N79 N 0.12741 0.94957 0.66299 0.0
C80 C 0.29681 0.99507 0.66192 0.0
H81 H 0.3073 0.99629 0.67082 0.0
H82 H 0.30733 0.04328 0.65821 0.0
H83 H 0.32925 0.9589 0.65796 0.0
C84 C 0.13359 0.09006 0.7038 0.0
N85 N 0.15154 0.03042 0.70043 0.0
N86 N 0.17304 0.03358 0.69034 0.0
C87 C 0.17427 0.09674 0.68724 0.0
C88 C 0.1498 0.13502 0.69575 0.0
C89 C 0.1011 0.10334 0.71453 0.0
H90 H 0.06589 0.06381 0.7164 0.0
H91 H 0.1379 0.10389 0.72115 0.0
H92 H 0.07551 0.15099 0.71441 0.0
O93 O 0.09487 0.89045 0.70423 0.0
O94 O 0.12591 0.8841 0.68684 0.0
H95 H 0.17256 0.10264 0.66982 0.0
H96 H 0.20703 0.17375 0.67639 0.0
C97 C 0.20313 0.11991 0.67671 0.0
H98 H 0.25235 0.0986 0.67573 0.0
H99 H 0.08528 0.93627 0.66721 0.0
O100 O 0.15548 0.97042 0.72421 0.0
C101 C 0.09162 0.86426 0.69485 0.0
Co102 Co 0.28603 0.89184 0.95889 0.0
Co103 Co 0.27475 0.89665 0.93319 0.0
C104 C 0.33699 0.00178 0.9441 0.0
O105 O 0.33319 0.96986 0.95303 0.0
O106 O 0.30176 0.98731 0.93589 0.0
C107 C 0.28281 0.94516 0.98118 0.0
O108 O 0.30157 0.00051 0.9768 0.0
C109 C 0.25322 0.92494 0.90966 0.0
C110 C 0.23033 0.82682 0.90331 0.0
C111 C 0.2342 0.89176 0.90027 0.0
N112 N 0.25912 0.88169 0.91788 0.0
N113 N 0.24652 0.82301 0.91396 0.0
C114 C 0.26402 0.99668 0.91088 0.0
H115 H 0.31385 0.0055 0.91404 0.0
H116 H 0.22906 0.01642 0.91696 0.0
H117 H 0.25809 0.02265 0.90299 0.0
C118 C 0.14318 0.87773 0.95639 0.0
N119 N 0.20394 0.87676 0.95219 0.0
N120 N 0.20007 0.87565 0.94147 0.0
C121 C 0.13694 0.87536 0.93852 0.0
C122 C 0.09853 0.87837 0.94786 0.0
C123 C 0.1285 0.89188 0.96813 0.0
H124 H 0.14697 0.94113 0.9702 0.0
H125 H 0.07537 0.88978 0.96979 0.0
H126 H 0.15391 0.85598 0.97339 0.0
O127 O 0.34987 0.82312 0.95535 0.0
O128 O 0.35285 0.84706 0.93763 0.0
H129 H 0.0601 0.891 0.92661 0.0
H130 H 0.13628 0.93254 0.92394 0.0
C131 C 0.11394 0.88706 0.92708 0.0
H132 H 0.12944 0.84602 0.92182 0.0
H133 H 0.24673 0.78057 0.91866 0.0
O134 O 0.27498 0.8953 0.97514 0.0
C135 C 0.37809 0.82107 0.94607 0.0
Co136 Co 0.3481 0.95133 0.30089 0.0
Co137 Co 0.32776 0.95896 0.32624 0.0
C138 C 0.22889 0.90011 0.31388 0.0
O139 O 0.26661 0.90461 0.30561 0.0
O140 O 0.23849 0.93407 0.32241 0.0
C141 C 0.30128 0.95594 0.27843 0.0
O142 O 0.24644 0.93358 0.2825 0.0
C143 C 0.29226 0.97867 0.34945 0.0
C144 C 0.38823 0.00469 0.35639 0.0
C145 C 0.32278 0.99911 0.35898 0.0
N146 N 0.33757 0.97385 0.34154 0.0
N147 N 0.39488 0.98847 0.3458 0.0
C148 C 0.22117 0.96588 0.34777 0.0
H149 H 0.21443 0.91627 0.34437 0.0
H150 H 0.20156 0.00103 0.34172 0.0
H151 H 0.19347 0.97002 0.35553 0.0
C152 C 0.37176 0.0925 0.30432 0.0
N153 N 0.36272 0.03172 0.30819 0.0
N154 N 0.35139 0.03503 0.31873 0.0
C155 C 0.34996 0.09796 0.32185 0.0
C156 C 0.36281 0.13678 0.31282 0.0
C157 C 0.3785 0.10845 0.29244 0.0
H158 H 0.41537 0.07595 0.28867 0.0
H159 H 0.33126 0.09978 0.28828 0.0
H160 H 0.39303 0.16008 0.29125 0.0
O161 O 0.41349 0.88562 0.30487 0.0
O162 O 0.38195 0.88143 0.32227 0.0
H163 H 0.36097 0.1124 0.33903 0.0
H164 H 0.31093 0.17303 0.33252 0.0
C165 C 0.32373 0.12052 0.33261 0.0
H166 H 0.27983 0.09167 0.33471 0.0
H167 H 0.43829 0.98956 0.34136 0.0
O168 O 0.34958 0.96578 0.28473 0.0
C169 C 0.41265 0.8574 0.31415 0.0
Co170 Co 0.30004 0.08667 0.5481 0.0
Co171 Co 0.29903 0.05743 0.57319 0.0
C172 C 0.35309 0.96023 0.55905 0.0
O173 O 0.34113 0.00103 0.55144 0.0
O174 O 0.33411 0.97199 0.56877 0.0
C175 C 0.24739 0.05051 0.52745 0.0
O176 O 0.21484 0.00876 0.53348 0.0
C177 C 0.27286 0.02328 0.59652 0.0
C178 C 0.29797 0.11721 0.60432 0.0
C179 C 0.27652 0.05473 0.60655 0.0
N180 N 0.29124 0.06559 0.58869 0.0
N181 N 0.30655 0.12136 0.59345 0.0
C182 C 0.25043 0.9551 0.59442 0.0
H183 H 0.24854 0.94488 0.58553 0.0
H184 H 0.2016 0.94775 0.59813 0.0
H185 H 0.2843 0.92023 0.59837 0.0
C186 C 0.16279 0.12064 0.55269 0.0
N187 N 0.22214 0.10116 0.556 0.0
N188 N 0.21827 0.07892 0.56605 0.0
C189 C 0.15481 0.07833 0.56906 0.0
C190 C 0.11722 0.1041 0.56059 0.0
C191 C 0.14978 0.15644 0.54228 0.0
H192 H 0.19171 0.1886 0.5404 0.0
H193 H 0.14304 0.12147 0.53549 0.0
H194 H 0.10481 0.18621 0.54299 0.0
O195 O 0.36637 0.14909 0.55201 0.0
O196 O 0.37187 0.11947 0.56946 0.0
H197 H 0.15203 0.07478 0.58651 0.0
H198 H 0.07657 0.0505 0.58003 0.0
C199 C 0.13045 0.04866 0.57945 0.0
H200 H 0.1464 0.99713 0.57985 0.0
H201 H 0.32241 0.16267 0.58925 0.0
O202 O 0.28664 0.08974 0.53203 0.0
C203 C 0.39362 0.15149 0.5613 0.0
Co204 Co 0.13811 0.02511 0.79878 0.0
Co205 Co 0.13596 0.01558 0.82458 0.0
C206 C 0.24043 0.08718 0.81302 0.0
O207 O 0.21374 0.07652 0.8038 0.0
O208 O 0.22084 0.05928 0.82173 0.0
C209 C 0.18891 0.01859 0.77672 0.0
O210 O 0.24582 0.01834 0.78163 0.0
C211 C 0.17277 0.99245 0.84773 0.0
C212 C 0.07747 0.96711 0.85497 0.0
C213 C 0.14322 0.97213 0.85739 0.0
N214 N 0.12677 0.99732 0.83992 0.0
N215 N 0.06981 0.98331 0.84439 0.0
C216 C 0.24323 0.00769 0.84593 0.0
H217 H 0.26268 0.97571 0.83938 0.0
H218 H 0.2722 0.00127 0.8535 0.0
H219 H 0.24797 0.05883 0.8431 0.0
C220 C 0.13904 0.87939 0.80162 0.0
N221 N 0.13277 0.94085 0.80548 0.0
N222 N 0.12611 0.93811 0.81618 0.0
C223 C 0.12517 0.87516 0.81933 0.0
C224 C 0.13415 0.83588 0.81025 0.0
C225 C 0.1595 0.86196 0.79028 0.0
H226 H 0.1853 0.90294 0.78638 0.0
H227 H 0.19197 0.81871 0.7903 0.0
H228 H 0.11555 0.84913 0.78548 0.0
O229 O 0.06523 0.08322 0.80284 0.0
O230 O 0.07082 0.08262 0.82083 0.0
H231 H 0.12628 0.79882 0.83159 0.0
H232 H 0.16791 0.87331 0.83523 0.0
C233 C 0.12501 0.85274 0.83097 0.0
H234 H 0.08016 0.87023 0.83504 0.0
H235 H 0.02582 0.98314 0.84012 0.0
O236 O 0.13734 0.02092 0.78246 0.0
C237 C 0.04692 0.10564 0.81205 0.0
Co238 Co 0.20912 0.88638 0.05008 0.0
Co239 Co 0.21317 0.89815 0.07581 0.0
C240 C 0.15797 0.00211 0.06334 0.0
O241 O 0.1632 0.96736 0.05475 0.0
O242 O 0.18933 0.98834 0.072 0.0
C243 C 0.24057 0.933 0.02812 0.0
O244 O 0.25988 0.98575 0.03328 0.0
C245 C 0.23665 0.93322 0.09909 0.0
C246 C 0.21125 0.84072 0.1073 0.0
C247 C 0.23189 0.90386 0.10929 0.0
N248 N 0.21984 0.8893 0.09141 0.0
N249 N 0.20436 0.8343 0.09641 0.0
C250 C 0.25717 0.00171 0.09673 0.0
H251 H 0.27366 0.00665 0.08814 0.0
H252 H 0.29653 0.01687 0.10241 0.0
H253 H 0.21502 0.03468 0.09799 0.0
C254 C 0.35291 0.87291 0.05411 0.0
N255 N 0.2905 0.87278 0.05765 0.0
N256 N 0.29078 0.87384 0.06842 0.0
C257 C 0.35297 0.87406 0.07198 0.0
C258 C 0.39451 0.87579 0.06304 0.0
C259 C 0.37313 0.88281 0.04252 0.0
H260 H 0.3414 0.85396 0.03711 0.0
H261 H 0.36882 0.93515 0.04041 0.0
H262 H 0.42455 0.86773 0.04128 0.0
O263 O 0.14205 0.82048 0.05388 0.0
O264 O 0.13608 0.84575 0.0715 0.0
H265 H 0.42499 0.87284 0.08479 0.0
H266 H 0.3657 0.93712 0.0857 0.0
C267 C 0.3728 0.88512 0.08359 0.0
H268 H 0.34272 0.85475 0.08912 0.0
H269 H 0.18903 0.79223 0.09236 0.0
O270 O 0.21779 0.88573 0.03367 0.0
C271 C 0.11298 0.81784 0.06308 0.0
Co272 Co 0.62662 0.95415 0.79951 0.0
Co273 Co 0.63223 0.95752 0.82552 0.0
C274 C 0.73137 0.88438 0.8126 0.0
O275 O 0.70425 0.89982 0.80357 0.0
O276 O 0.71084 0.90622 0.82173 0.0
C277 C 0.6703 0.95921 0.77654 0.0
O278 O 0.72554 0.93598 0.78029 0.0
C279 C 0.67371 0.98579 0.8483 0.0
C280 C 0.57952 0.97899 0.85699 0.0
C281 C 0.64498 0.99249 0.85852 0.0
N282 N 0.62713 0.96976 0.84104 0.0
N283 N 0.57117 0.96507 0.84633 0.0
C284 C 0.74362 0.99713 0.84543 0.0
H285 H 0.7496 0.00257 0.83646 0.0
H286 H 0.76217 0.04105 0.84971 0.0
H287 H 0.77298 0.95483 0.84818 0.0
C288 C 0.62987 0.09735 0.80325 0.0
N289 N 0.62508 0.03591 0.80708 0.0
N290 N 0.6274 0.03753 0.81784 0.0
C291 C 0.63337 0.10002 0.82113 0.0
C292 C 0.63668 0.13998 0.81201 0.0
C293 C 0.63734 0.11416 0.79143 0.0
H294 H 0.59661 0.09251 0.78672 0.0
H295 H 0.68353 0.09308 0.78836 0.0
H296 H 0.63791 0.16772 0.79016 0.0
O297 O 0.55156 0.89732 0.80368 0.0
O298 O 0.55898 0.90023 0.82167 0.0
H299 H 0.60969 0.09519 0.83816 0.0
H300 H 0.63669 0.17432 0.83363 0.0
C301 C 0.64401 0.12105 0.83269 0.0
H302 H 0.69461 0.10938 0.83512 0.0
H303 H 0.5268 0.954 0.84262 0.0
O304 O 0.62341 0.96963 0.78315 0.0
C305 C 0.5318 0.87876 0.81308 0.0
Co306 Co 0.79986 0.91039 0.54609 0.0
Co307 Co 0.79453 0.94422 0.57127 0.0
C308 C 0.85238 0.03837 0.55738 0.0
O309 O 0.84344 0.99593 0.54984 0.0
O310 O 0.8274 0.02979 0.56682 0.0
C311 C 0.75592 0.9437 0.52409 0.0
O312 O 0.72616 0.99174 0.52913 0.0
C313 C 0.77432 0.98008 0.59479 0.0
C314 C 0.75893 0.88196 0.60179 0.0
C315 C 0.76041 0.94739 0.60449 0.0
N316 N 0.78001 0.93568 0.58672 0.0
N317 N 0.77109 0.87726 0.59102 0.0
C318 C 0.78231 0.05185 0.59318 0.0
H319 H 0.83319 0.06203 0.59063 0.0
H320 H 0.74993 0.06847 0.58647 0.0
H321 H 0.77128 0.07925 0.60078 0.0
C322 C 0.66068 0.87971 0.55048 0.0
N323 N 0.72028 0.89928 0.55369 0.0
N324 N 0.71667 0.92114 0.56376 0.0
C325 C 0.6538 0.92066 0.56698 0.0
C326 C 0.61583 0.89475 0.55862 0.0
C327 C 0.64702 0.84568 0.53994 0.0
H328 H 0.68685 0.81063 0.53823 0.0
H329 H 0.64507 0.88172 0.53321 0.0
H330 H 0.59982 0.81933 0.54027 0.0
O331 O 0.86402 0.84609 0.5509 0.0
O332 O 0.87082 0.88713 0.56767 0.0
H333 H 0.63837 0.912 0.58417 0.0
H334 H 0.57785 0.96051 0.57729 0.0
C335 C 0.63047 0.94838 0.5776 0.0
H336 H 0.65893 0.99265 0.57964 0.0
H337 H 0.77251 0.83403 0.58653 0.0
O338 O 0.78947 0.90347 0.52967 0.0
C339 C 0.89355 0.85177 0.55999 0.0
Co340 Co 0.86931 0.01987 0.29666 0.0
Co341 Co 0.87608 0.03856 0.32234 0.0
C342 C 0.7728 0.10227 0.30824 0.0
O343 O 0.79227 0.07556 0.29942 0.0
O344 O 0.79999 0.09084 0.3174 0.0
C345 C 0.8259 0.9968 0.27443 0.0
O346 O 0.76745 0.00486 0.2786 0.0
C347 C 0.82807 0.02196 0.34496 0.0
C348 C 0.91731 0.03984 0.35459 0.0
C349 C 0.8523 0.02254 0.35555 0.0
N350 N 0.8767 0.03738 0.33804 0.0
N351 N 0.92964 0.04897 0.34388 0.0
C352 C 0.76056 0.00432 0.34145 0.0
H353 H 0.75967 0.9915 0.33263 0.0
H354 H 0.74177 0.96319 0.34644 0.0
H355 H 0.72802 0.04674 0.34279 0.0
C356 C 0.85872 0.88111 0.30362 0.0
N357 N 0.86983 0.9446 0.30578 0.0
N358 N 0.87659 0.95201 0.31642 0.0
C359 C 0.87253 0.89282 0.32122 0.0
C360 C 0.85973 0.84628 0.31332 0.0
C361 C 0.83903 0.85478 0.29273 0.0
H362 H 0.81407 0.89265 0.28788 0.0
H363 H 0.80637 0.81199 0.29359 0.0
H364 H 0.88344 0.83838 0.28837 0.0
O365 O 0.94479 0.07747 0.29948 0.0
O366 O 0.95151 0.09056 0.31736 0.0
H367 H 0.88998 0.82948 0.33491 0.0
H368 H 0.82594 0.88768 0.3368 0.0
C369 C 0.87503 0.88052 0.33325 0.0
H370 H 0.91009 0.91417 0.33717 0.0
H371 H 0.97474 0.06133 0.34052 0.0
O372 O 0.87527 0.99944 0.28069 0.0
C373 C 0.97174 0.10338 0.30775 0.0
Co374 Co 0.7155 0.10164 0.04796 0.0
Co375 Co 0.71829 0.11752 0.07351 0.0
C376 C 0.64293 0.01011 0.06233 0.0
O377 O 0.66087 0.02782 0.05283 0.0
O378 O 0.66459 0.03782 0.07093 0.0
C379 C 0.71897 0.04815 0.02612 0.0
O380 O 0.69525 0.99489 0.03055 0.0
C381 C 0.74187 0.07907 0.09631 0.0
C382 C 0.75383 0.17459 0.1044 0.0
C383 C 0.75566 0.10804 0.1063 0.0
N384 N 0.73355 0.12636 0.08883 0.0
N385 N 0.73996 0.18333 0.09375 0.0
C386 C 0.73626 0.0079 0.09384 0.0
H387 H 0.68489 0.99646 0.09178 0.0
H388 H 0.76646 0.99598 0.08658 0.0
H389 H 0.75124 0.97746 0.1009 0.0
C390 C 0.8583 0.10056 0.05144 0.0
N391 N 0.79673 0.10724 0.05511 0.0
N392 N 0.79793 0.11872 0.06567 0.0
C393 C 0.8604 0.12253 0.06894 0.0
C394 C 0.90083 0.10973 0.06011 0.0
C395 C 0.87544 0.07799 0.04018 0.0
H396 H 0.84874 0.03226 0.03837 0.0
H397 H 0.92858 0.0696 0.03928 0.0
H398 H 0.85968 0.11523 0.03416 0.0
O399 O 0.66031 0.17863 0.05096 0.0
O400 O 0.66236 0.18991 0.06891 0.0
H401 H 0.85626 0.17254 0.08425 0.0
H402 H 0.93488 0.13754 0.08118 0.0
C403 C 0.88143 0.13028 0.08054 0.0
H404 H 0.86767 0.08569 0.08503 0.0
H405 H 0.73602 0.22818 0.08979 0.0
O406 O 0.72997 0.0979 0.03201 0.0
C407 C 0.64177 0.20807 0.05958 0.0
Co408 Co 0.62499 0.03427 0.70717 0.0
Co409 Co 0.6567 0.02505 0.68175 0.0
C410 C 0.73947 0.10466 0.69558 0.0
O411 O 0.70283 0.091 0.70373 0.0
O412 O 0.73068 0.07915 0.6862 0.0
C413 C 0.6608 0.99925 0.72945 0.0
O414 O 0.71198 0.97429 0.72454 0.0
C415 C 0.70087 0.01876 0.65848 0.0
C416 C 0.6221 0.95892 0.65134 0.0
C417 C 0.6794 0.99091 0.64875 0.0
N418 N 0.65841 0.00312 0.66646 0.0
N419 N 0.61136 0.96768 0.66209 0.0
C420 C 0.7598 0.06036 0.66014 0.0
H421 H 0.74497 0.10746 0.66383 0.0
H422 H 0.7931 0.03588 0.66598 0.0
H423 H 0.78574 0.0694 0.65232 0.0
C424 C 0.62454 0.88938 0.70413 0.0
N425 N 0.63078 0.9507 0.7003 0.0
N426 N 0.65293 0.94797 0.69022 0.0
C427 C 0.66683 0.8856 0.68769 0.0
C428 C 0.64911 0.84602 0.69641 0.0
C429 C 0.59198 0.87212 0.71468 0.0
H430 H 0.55164 0.90677 0.71625 0.0
H431 H 0.62733 0.87529 0.72149 0.0
H432 H 0.57255 0.82165 0.7144 0.0
O433 O 0.55113 0.08506 0.70128 0.0
O434 O 0.57846 0.08198 0.6838 0.0
H435 H 0.66488 0.85379 0.67106 0.0
H436 H 0.73094 0.82058 0.67893 0.0
C437 C 0.70135 0.86501 0.67747 0.0
H438 H 0.7333 0.90481 0.67448 0.0
H439 H 0.57179 0.94934 0.66648 0.0
O440 O 0.61719 0.02703 0.72368 0.0
C441 C 0.54155 0.10272 0.69141 0.0
Co442 Co 0.70042 0.90182 0.45471 0.0
Co443 Co 0.70385 0.9213 0.42911 0.0
C444 C 0.65076 0.02189 0.44217 0.0
O445 O 0.65521 0.98429 0.45042 0.0
O446 O 0.6835 0.01112 0.43354 0.0
C447 C 0.70963 0.94818 0.47726 0.0
O448 O 0.68831 0.00361 0.47326 0.0
C449 C 0.7348 0.95905 0.40618 0.0
C450 C 0.70889 0.86883 0.39736 0.0
C451 C 0.73435 0.93071 0.39588 0.0
N452 N 0.71136 0.91562 0.41346 0.0
N453 N 0.69514 0.86218 0.40807 0.0
C454 C 0.7597 0.02537 0.40905 0.0
H455 H 0.76786 0.02984 0.41797 0.0
H456 H 0.80559 0.03551 0.40455 0.0
H457 H 0.72329 0.06234 0.40651 0.0
C458 C 0.83984 0.87634 0.45058 0.0
N459 N 0.77878 0.88497 0.44684 0.0
N460 N 0.78076 0.89282 0.43618 0.0
C461 C 0.84341 0.89056 0.43285 0.0
C462 C 0.88325 0.88189 0.44189 0.0
C463 C 0.85728 0.87487 0.46245 0.0
H464 H 0.82676 0.83819 0.46671 0.0
H465 H 0.84721 0.92326 0.46613 0.0
H466 H 0.90952 0.86273 0.46363 0.0
O467 O 0.63204 0.83856 0.45095 0.0
O468 O 0.62522 0.86957 0.43352 0.0
H469 H 0.83535 0.88358 0.41546 0.0
H470 H 0.91755 0.8942 0.42031 0.0
C471 C 0.866 0.90836 0.42163 0.0
H472 H 0.86199 0.96177 0.42054 0.0
H473 H 0.67611 0.82045 0.41176 0.0
O474 O 0.71734 0.89963 0.4709 0.0
C475 C 0.6022 0.83958 0.44181 0.0
Co476 Co 0.89026 0.96085 0.20582 0.0
Co477 Co 0.86297 0.97488 0.18075 0.0
C478 C 0.77872 0.89173 0.19349 0.0
O479 O 0.81471 0.90386 0.20174 0.0
O480 O 0.78792 0.91943 0.18431 0.0
C481 C 0.83798 0.97003 0.22727 0.0
O482 O 0.78284 0.96327 0.22195 0.0
C483 C 0.81917 0.99676 0.15802 0.0
C484 C 0.90434 0.05014 0.15147 0.0
C485 C 0.84274 0.02802 0.14878 0.0
N486 N 0.86457 0.0013 0.1659 0.0
N487 N 0.91545 0.03276 0.1619 0.0
C488 C 0.75485 0.96358 0.15942 0.0
H489 H 0.76302 0.91236 0.16198 0.0
H490 H 0.72714 0.98807 0.16603 0.0
H491 H 0.72604 0.96445 0.15174 0.0
C492 C 0.88807 0.10512 0.20412 0.0
N493 N 0.88455 0.04519 0.19967 0.0
N494 N 0.86493 0.05042 0.1895 0.0
C495 C 0.85107 0.11332 0.18736 0.0
C496 C 0.86537 0.15036 0.19655 0.0
C497 C 0.91301 0.11871 0.21538 0.0
H498 H 0.95439 0.08577 0.21726 0.0
H499 H 0.87409 0.1091 0.22143 0.0
H500 H 0.92866 0.17028 0.21617 0.0
O501 O 0.96664 0.91271 0.20035 0.0
O502 O 0.94109 0.91812 0.18281 0.0
H503 H 0.85747 0.14578 0.17081 0.0
H504 H 0.79213 0.18255 0.17844 0.0
C505 C 0.81941 0.1366 0.17706 0.0
H506 H 0.78568 0.09883 0.17391 0.0
H507 H 0.95742 0.04335 0.16637 0.0
O508 O 0.89159 0.96886 0.22204 0.0
C509 C 0.97731 0.89658 0.19044 0.0
Co510 Co 0.78184 0.10982 0.95767 0.0
Co511 Co 0.78199 0.11131 0.93197 0.0
C512 C 0.85022 0.00766 0.94477 0.0
O513 O 0.83393 0.03318 0.95383 0.0
O514 O 0.82834 0.02871 0.93567 0.0
C515 C 0.75699 0.06181 0.97933 0.0
O516 O 0.74986 0.00588 0.97424 0.0
C517 C 0.75012 0.06944 0.90948 0.0
C518 C 0.77296 0.15846 0.90006 0.0
C519 C 0.74996 0.09534 0.899 0.0
N520 N 0.77183 0.11537 0.91644 0.0
N521 N 0.78598 0.16818 0.91072 0.0
C522 C 0.7281 0.00298 0.91288 0.0
H523 H 0.71786 0.00168 0.92179 0.0
H524 H 0.68416 0.98844 0.90819 0.0
H525 H 0.76723 0.96731 0.91107 0.0
C526 C 0.63788 0.1039 0.95343 0.0
N527 N 0.70013 0.11234 0.9501 0.0
N528 N 0.70062 0.11942 0.9394 0.0
C529 C 0.6386 0.11944 0.93573 0.0
C530 C 0.59687 0.1081 0.94445 0.0
C531 C 0.61848 0.08225 0.96463 0.0
H532 H 0.63699 0.03226 0.96605 0.0
H533 H 0.56485 0.08186 0.9657 0.0
H534 H 0.64012 0.11522 0.97073 0.0
O535 O 0.84243 0.18226 0.95399 0.0
O536 O 0.84466 0.18049 0.936 0.0
H537 H 0.56828 0.14425 0.92337 0.0
H538 H 0.62059 0.07721 0.92004 0.0
C539 C 0.61894 0.12568 0.924 0.0
H540 H 0.65231 0.15927 0.91965 0.0
H541 H 0.80346 0.21137 0.91412 0.0
O542 O 0.77119 0.11223 0.97381 0.0
C543 C 0.86581 0.20318 0.945 0.0
Co544 Co 0.87318 0.53561 0.7084 0.0
Co545 Co 0.85474 0.53644 0.68272 0.0
C546 C 0.753 0.5923 0.69738 0.0
O547 O 0.78813 0.57807 0.70564 0.0
O548 O 0.77153 0.5767 0.68777 0.0
C549 C 0.83973 0.50733 0.73078 0.0
O550 O 0.78242 0.49435 0.72652 0.0
C551 C 0.80955 0.50463 0.6602 0.0
C552 C 0.89946 0.52496 0.65085 0.0
C553 C 0.83625 0.50238 0.64977 0.0
N554 N 0.85541 0.52666 0.66715 0.0
N555 N 0.9086 0.53958 0.66145 0.0
C556 C 0.74268 0.48368 0.66356 0.0
H557 H 0.73973 0.47777 0.67256 0.0
H558 H 0.72943 0.43748 0.6594 0.0
H559 H 0.70702 0.52135 0.66102 0.0
C560 C 0.8817 0.39325 0.70426 0.0
N561 N 0.88057 0.4555 0.70071 0.0
N562 N 0.87404 0.45571 0.68999 0.0
C563 C 0.87201 0.39336 0.68648 0.0
C564 C 0.87445 0.35185 0.69542 0.0
C565 C 0.87748 0.37327 0.71597 0.0
H566 H 0.82754 0.38259 0.71904 0.0
H567 H 0.88844 0.32063 0.71696 0.0
H568 H 0.91257 0.40191 0.72081 0.0
O569 O 0.93837 0.59952 0.70363 0.0
O570 O 0.92102 0.60336 0.68571 0.0
H571 H 0.87212 0.3209 0.67376 0.0
H572 H 0.80594 0.37802 0.67328 0.0
C573 C 0.85862 0.37277 0.675 0.0
H574 H 0.8869 0.40338 0.66926 0.0
H575 H 0.95191 0.55677 0.66486 0.0
O576 O 0.88542 0.52597 0.72451 0.0
C577 C 0.94978 0.62343 0.69425 0.0
Co578 Co 0.71726 0.64276 0.95603 0.0
Co579 Co 0.71767 0.63059 0.9301 0.0
C580 C 0.64343 0.5378 0.9437 0.0
O581 O 0.65924 0.56795 0.95241 0.0
O582 O 0.66811 0.5522 0.93445 0.0
C583 C 0.72248 0.59746 0.97866 0.0
O584 O 0.69985 0.54281 0.97457 0.0
C585 C 0.7446 0.58123 0.90785 0.0
C586 C 0.73515 0.67102 0.89802 0.0
C587 C 0.74999 0.6053 0.8973 0.0
N588 N 0.72804 0.63061 0.91454 0.0
N589 N 0.72165 0.68392 0.90857 0.0
C590 C 0.75771 0.51307 0.91158 0.0
H591 H 0.76533 0.51152 0.92055 0.0
H592 H 0.80086 0.49299 0.90726 0.0
H593 H 0.71521 0.482 0.90953 0.0
C594 C 0.85971 0.63819 0.95185 0.0
N595 N 0.7979 0.64202 0.94821 0.0
N596 N 0.79831 0.63823 0.93747 0.0
C597 C 0.86044 0.63266 0.93399 0.0
C598 C 0.90132 0.63047 0.94298 0.0
C599 C 0.87782 0.63217 0.96364 0.0
H600 H 0.85599 0.67301 0.96831 0.0
H601 H 0.85784 0.58594 0.9669 0.0
H602 H 0.93151 0.63262 0.96474 0.0
O603 O 0.66244 0.71787 0.95173 0.0
O604 O 0.65991 0.70382 0.93381 0.0
H605 H 0.85257 0.65329 0.91689 0.0
H606 H 0.93327 0.63056 0.92127 0.0
C607 C 0.88049 0.62101 0.92241 0.0
H608 H 0.87096 0.56952 0.92025 0.0
H609 H 0.70979 0.72958 0.91174 0.0
O610 O 0.73324 0.6456 0.97232 0.0
C611 C 0.64096 0.73391 0.94232 0.0
Co612 Co 0.63748 0.46696 0.20886 0.0
Co613 Co 0.65778 0.45728 0.18305 0.0
C614 C 0.75637 0.40253 0.19824 0.0
O615 O 0.72111 0.42043 0.20629 0.0
O616 O 0.73956 0.41608 0.18844 0.0
C617 C 0.67713 0.49378 0.23132 0.0
O618 O 0.73635 0.48719 0.22742 0.0
C619 C 0.70271 0.46916 0.15978 0.0
C620 C 0.60796 0.48501 0.15163 0.0
C621 C 0.67428 0.48201 0.14966 0.0
N622 N 0.65516 0.46614 0.16738 0.0
N623 N 0.59874 0.47484 0.16238 0.0
C624 C 0.77346 0.45986 0.16223 0.0
H625 H 0.78134 0.40911 0.16506 0.0
H626 H 0.78816 0.49271 0.16899 0.0
H627 H 0.8041 0.46913 0.15492 0.0
C628 C 0.63088 0.60663 0.20332 0.0
N629 N 0.63175 0.54349 0.2003 0.0
N630 N 0.64218 0.53983 0.18971 0.0
C631 C 0.64915 0.60066 0.18572 0.0
C632 C 0.64365 0.64501 0.19425 0.0
C633 C 0.6303 0.62936 0.21492 0.0
H634 H 0.67825 0.61854 0.21861 0.0
H635 H 0.62136 0.68262 0.21542 0.0
H636 H 0.59205 0.60313 0.21956 0.0
O637 O 0.57017 0.40275 0.2047 0.0
O638 O 0.58922 0.39352 0.18682 0.0
H639 H 0.63723 0.59761 0.16839 0.0
H640 H 0.67978 0.66877 0.17319 0.0
C641 C 0.67298 0.61564 0.17445 0.0
H642 H 0.71993 0.59027 0.17308 0.0
H643 H 0.55383 0.4754 0.16639 0.0
O644 O 0.62866 0.48773 0.22489 0.0
C645 C 0.55914 0.37646 0.19545 0.0
Co646 Co 0.77575 0.3647 0.45972 0.0
Co647 Co 0.77585 0.3755 0.43397 0.0
C648 C 0.84931 0.47014 0.44704 0.0
O649 O 0.8325 0.44019 0.45573 0.0
O650 O 0.82792 0.45345 0.43766 0.0
C651 C 0.74749 0.41497 0.48111 0.0
O652 O 0.73123 0.46735 0.47557 0.0
C653 C 0.76093 0.41494 0.41066 0.0
C654 C 0.72614 0.32247 0.40347 0.0
C655 C 0.73851 0.38712 0.40099 0.0
N656 N 0.7602 0.36901 0.41853 0.0
N657 N 0.74033 0.31371 0.41411 0.0
C658 C 0.78217 0.48384 0.41245 0.0
H659 H 0.83391 0.48415 0.41507 0.0
H660 H 0.75317 0.50578 0.41916 0.0
H661 H 0.77691 0.51346 0.40491 0.0
C662 C 0.63162 0.37197 0.4557 0.0
N663 N 0.69392 0.36627 0.45225 0.0
N664 N 0.69516 0.37419 0.44158 0.0
C665 C 0.63443 0.38745 0.43804 0.0
C666 C 0.59223 0.38699 0.44685 0.0
C667 C 0.61032 0.37114 0.46736 0.0
H668 H 0.6162 0.42042 0.47092 0.0
H669 H 0.55811 0.35741 0.46797 0.0
H670 H 0.64012 0.33586 0.47196 0.0
O671 O 0.82883 0.28834 0.45581 0.0
O672 O 0.83349 0.30153 0.43795 0.0
H673 H 0.56721 0.42676 0.42606 0.0
H674 H 0.65105 0.45281 0.42484 0.0
C675 C 0.61878 0.41117 0.4268 0.0
H676 H 0.6278 0.37165 0.42083 0.0
H677 H 0.73458 0.27031 0.41845 0.0
O678 O 0.76704 0.36495 0.47595 0.0
C679 C 0.85142 0.2715 0.44655 0.0
Co680 Co 0.87503 0.45982 0.79983 0.0
Co681 Co 0.877 0.45213 0.82552 0.0
C682 C 0.77319 0.38688 0.81185 0.0
O683 O 0.79294 0.4128 0.80299 0.0
O684 O 0.79997 0.3995 0.82101 0.0
C685 C 0.83669 0.46085 0.77719 0.0
O686 O 0.78626 0.42711 0.78059 0.0
C687 C 0.83109 0.48032 0.84792 0.0
C688 C 0.91993 0.46105 0.85758 0.0
C689 C 0.85626 0.48288 0.85844 0.0
N690 N 0.87814 0.45921 0.84112 0.0
N691 N 0.93072 0.44671 0.84699 0.0
C692 C 0.76436 0.50013 0.84431 0.0
H693 H 0.76312 0.508 0.83534 0.0
H694 H 0.7487 0.54486 0.84869 0.0
H695 H 0.72943 0.46076 0.84638 0.0
C696 C 0.87691 0.59998 0.80447 0.0
N697 N 0.88207 0.53778 0.80787 0.0
N698 N 0.88264 0.53611 0.81861 0.0
C699 C 0.87882 0.59804 0.82234 0.0
C700 C 0.87308 0.64038 0.81354 0.0
C701 C 0.86414 0.61923 0.79288 0.0
H702 H 0.81886 0.59523 0.79 0.0
H703 H 0.85917 0.67285 0.79201 0.0
H704 H 0.90492 0.60224 0.78765 0.0
O705 O 0.94465 0.3965 0.80331 0.0
O706 O 0.9496 0.39429 0.82131 0.0
H707 H 0.8906 0.6682 0.83523 0.0
H708 H 0.82229 0.61461 0.83671 0.0
C709 C 0.87384 0.61721 0.83408 0.0
H710 H 0.90392 0.58444 0.83918 0.0
H711 H 0.9747 0.43028 0.84372 0.0
O712 O 0.88003 0.47905 0.78394 0.0
C713 C 0.969 0.37347 0.81206 0.0
Co714 Co 0.78847 0.62921 0.04832 0.0
Co715 Co 0.77793 0.59514 0.07361 0.0
C716 C 0.86013 0.51526 0.05977 0.0
O717 O 0.84516 0.55121 0.05159 0.0
O718 O 0.83382 0.5228 0.06911 0.0
C719 C 0.75445 0.59769 0.02586 0.0
O720 O 0.72786 0.54621 0.03043 0.0
C721 C 0.76481 0.54578 0.09653 0.0
C722 C 0.71001 0.62723 0.10396 0.0
C723 C 0.73658 0.5668 0.10626 0.0
N724 N 0.75448 0.59155 0.08882 0.0
N725 N 0.72201 0.64011 0.09337 0.0
C726 C 0.80157 0.48398 0.0946 0.0
H727 H 0.85104 0.4958 0.09152 0.0
H728 H 0.77649 0.45523 0.08817 0.0
H729 H 0.80551 0.45456 0.10218 0.0
C730 C 0.64397 0.63263 0.05125 0.0
N731 N 0.70494 0.62351 0.05504 0.0
N732 N 0.70148 0.59983 0.065 0.0
C733 C 0.63869 0.58769 0.06748 0.0
C734 C 0.59986 0.60829 0.05886 0.0
C735 C 0.62791 0.66806 0.04092 0.0
H736 H 0.66334 0.70818 0.03969 0.0
H737 H 0.63104 0.63434 0.03387 0.0
H738 H 0.57778 0.68828 0.04125 0.0
O739 O 0.8386 0.70208 0.05444 0.0
O740 O 0.83505 0.67346 0.07185 0.0
H741 H 0.60784 0.5893 0.08417 0.0
H742 H 0.57074 0.52605 0.07612 0.0
C743 C 0.61674 0.55307 0.07761 0.0
H744 H 0.65492 0.5187 0.08042 0.0
H745 H 0.70767 0.68207 0.08919 0.0
O746 O 0.78259 0.63966 0.03191 0.0
C747 C 0.85592 0.71101 0.06432 0.0
Co748 Co 0.61528 0.53881 0.30074 0.0
Co749 Co 0.62595 0.51917 0.32641 0.0
C750 C 0.72032 0.60271 0.31453 0.0
O751 O 0.69185 0.592 0.30543 0.0
O752 O 0.70228 0.57506 0.32335 0.0
C753 C 0.65821 0.52693 0.27826 0.0
O754 O 0.71427 0.51308 0.28289 0.0
C755 C 0.67291 0.49203 0.34887 0.0
C756 C 0.58262 0.45607 0.35666 0.0
C757 C 0.64802 0.46772 0.3586 0.0
N758 N 0.62452 0.4936 0.34145 0.0
N759 N 0.57064 0.47252 0.3462 0.0
C760 C 0.74103 0.51428 0.34666 0.0
H761 H 0.75958 0.4902 0.33916 0.0
H762 H 0.77381 0.50366 0.35364 0.0
H763 H 0.74073 0.56758 0.34513 0.0
C764 C 0.62365 0.39288 0.30183 0.0
N765 N 0.61775 0.45206 0.30657 0.0
N766 N 0.62334 0.44484 0.31723 0.0
C767 C 0.63389 0.38146 0.31952 0.0
C768 C 0.63485 0.34649 0.30985 0.0
C769 C 0.62689 0.38101 0.28982 0.0
H770 H 0.67632 0.39324 0.2868 0.0
H771 H 0.61705 0.32903 0.28791 0.0
H772 H 0.59065 0.41186 0.28564 0.0
O773 O 0.54027 0.58929 0.30636 0.0
O774 O 0.54977 0.57648 0.32423 0.0
H775 H 0.61191 0.36218 0.33628 0.0
H776 H 0.66685 0.30404 0.33025 0.0
C777 C 0.65323 0.35634 0.33053 0.0
H778 H 0.69503 0.38506 0.33364 0.0
H779 H 0.52573 0.46877 0.34226 0.0
O780 O 0.60956 0.53981 0.28433 0.0
C781 C 0.52136 0.60199 0.31606 0.0
Co782 Co 0.71725 0.38588 0.55019 0.0
Co783 Co 0.7179 0.38511 0.57589 0.0
C784 C 0.64814 0.48788 0.56391 0.0
O785 O 0.6617 0.46048 0.55484 0.0
O786 O 0.67322 0.46878 0.57288 0.0
C787 C 0.72186 0.43806 0.52813 0.0
O788 O 0.7027 0.49323 0.53251 0.0
C789 C 0.74333 0.42089 0.59883 0.0
C790 C 0.72956 0.32651 0.60722 0.0
C791 C 0.74511 0.39132 0.60901 0.0
N792 N 0.72784 0.37558 0.59133 0.0
N793 N 0.7191 0.31942 0.59642 0.0
C794 C 0.75767 0.49068 0.59626 0.0
H795 H 0.76812 0.49699 0.58743 0.0
H796 H 0.79948 0.50811 0.60122 0.0
H797 H 0.71464 0.52079 0.5984 0.0
C798 C 0.85923 0.38931 0.55386 0.0
N799 N 0.79806 0.38164 0.55764 0.0
N800 N 0.79921 0.37935 0.56838 0.0
C801 C 0.86163 0.38493 0.57174 0.0
C802 C 0.90157 0.39301 0.56267 0.0
C803 C 0.87541 0.4044 0.54222 0.0
H804 H 0.85261 0.45145 0.53995 0.0
H805 H 0.92885 0.40765 0.54093 0.0
H806 H 0.85511 0.36594 0.53685 0.0
O807 O 0.66251 0.30927 0.55313 0.0
O808 O 0.65425 0.31749 0.5712 0.0
H809 H 0.93534 0.38125 0.58424 0.0
H810 H 0.87392 0.44258 0.58611 0.0
C811 C 0.88254 0.39185 0.58338 0.0
H812 H 0.85447 0.35808 0.58865 0.0
H813 H 0.70661 0.27602 0.59249 0.0
O814 O 0.73106 0.3884 0.53414 0.0
C815 C 0.63701 0.29215 0.56216 0.0
Co816 Co 0.16992 0.45952 0.29812 0.0
Co817 Co 0.14817 0.45141 0.32347 0.0
C818 C 0.26783 0.3999 0.31083 0.0
O819 O 0.25862 0.4345 0.30236 0.0
O820 O 0.22998 0.40411 0.31908 0.0
C821 C 0.21078 0.46421 0.27553 0.0
O822 O 0.26529 0.43867 0.27916 0.0
C823 C 0.19118 0.47404 0.34639 0.0
C824 C 0.09626 0.48083 0.35483 0.0
C825 C 0.16276 0.48652 0.35653 0.0
N826 N 0.14343 0.46312 0.33906 0.0
N827 N 0.08697 0.46628 0.34422 0.0
C828 C 0.26216 0.47266 0.34363 0.0
H829 H 0.27473 0.42422 0.3402 0.0
H830 H 0.27235 0.50948 0.33721 0.0
H831 H 0.29285 0.48227 0.35092 0.0
C832 C 0.14694 0.59762 0.30223 0.0
N833 N 0.1457 0.53511 0.30554 0.0
N834 N 0.13418 0.53255 0.31609 0.0
C835 C 0.12441 0.59381 0.31973 0.0
C836 C 0.13386 0.63732 0.31113 0.0
C837 C 0.17179 0.61873 0.29128 0.0
H838 H 0.21818 0.59314 0.28947 0.0
H839 H 0.17976 0.67215 0.29088 0.0
H840 H 0.13597 0.60463 0.28492 0.0
O841 O 0.1143 0.38218 0.30171 0.0
O842 O 0.08313 0.38601 0.31913 0.0
H843 H 0.1051 0.66428 0.33247 0.0
H844 H 0.16014 0.59897 0.33603 0.0
C845 C 0.11534 0.6115 0.33148 0.0
H846 H 0.07429 0.58314 0.33493 0.0
H847 H 0.04186 0.46027 0.34043 0.0
O848 O 0.16464 0.47627 0.28215 0.0
C849 C 0.08347 0.35818 0.30982 0.0
Co850 Co 0.29117 0.38566 0.04801 0.0
Co851 Co 0.29732 0.40813 0.0734 0.0
C852 C 0.34732 0.50941 0.0587 0.0
O853 O 0.33268 0.47229 0.05069 0.0
O854 O 0.33405 0.49226 0.06847 0.0
C855 C 0.24997 0.4197 0.02635 0.0
O856 O 0.23072 0.47332 0.03125 0.0
C857 C 0.29057 0.45089 0.09659 0.0
C858 C 0.26198 0.35848 0.10455 0.0
C859 C 0.27444 0.42357 0.10662 0.0
N860 N 0.28663 0.40415 0.08891 0.0
N861 N 0.27027 0.34896 0.09376 0.0
C862 C 0.30918 0.51996 0.09432 0.0
H863 H 0.35794 0.52087 0.09041 0.0
H864 H 0.2739 0.5414 0.08847 0.0
H865 H 0.3103 0.54953 0.10191 0.0
C866 C 0.1502 0.37084 0.05317 0.0
N867 N 0.21318 0.37578 0.0562 0.0
N868 N 0.21565 0.3909 0.06664 0.0
C869 C 0.15448 0.39949 0.07038 0.0
C870 C 0.11088 0.38771 0.06193 0.0
C871 C 0.12721 0.3606 0.04174 0.0
H872 H 0.12649 0.40783 0.03735 0.0
H873 H 0.07695 0.34055 0.0417 0.0
H874 H 0.16019 0.32634 0.03753 0.0
O875 O 0.35683 0.32173 0.05222 0.0
O876 O 0.36484 0.34213 0.06983 0.0
H877 H 0.14817 0.39432 0.08777 0.0
H878 H 0.08698 0.44539 0.08165 0.0
C879 C 0.13875 0.43006 0.08117 0.0
H880 H 0.17081 0.47282 0.08252 0.0
H881 H 0.26357 0.30492 0.08965 0.0
O882 O 0.2776 0.37568 0.03197 0.0
C883 C 0.38364 0.31103 0.0614 0.0
Co884 Co 0.35755 0.52469 0.79792 0.0
Co885 Co 0.34836 0.51967 0.8235 0.0
C886 C 0.24446 0.57831 0.81131 0.0
O887 O 0.27826 0.57341 0.80261 0.0
O888 O 0.25836 0.5455 0.81982 0.0
C889 C 0.31057 0.51066 0.77573 0.0
O890 O 0.25292 0.50803 0.78038 0.0
C891 C 0.3095 0.5003 0.8466 0.0
C892 C 0.4053 0.48855 0.85457 0.0
C893 C 0.33887 0.48671 0.85658 0.0
N894 N 0.35645 0.50801 0.83901 0.0
N895 N 0.41357 0.50214 0.8439 0.0
C896 C 0.23815 0.50576 0.84427 0.0
H897 H 0.22763 0.5549 0.84094 0.0
H898 H 0.22437 0.46947 0.83796 0.0
H899 H 0.20845 0.4981 0.85174 0.0
C900 C 0.36365 0.37956 0.80176 0.0
N901 N 0.36761 0.44215 0.80518 0.0
N902 N 0.37107 0.44231 0.81593 0.0
C903 C 0.3719 0.38036 0.81958 0.0
C904 C 0.36569 0.33844 0.81077 0.0
C905 C 0.34624 0.35892 0.79042 0.0
H906 H 0.31882 0.39765 0.78621 0.0
H907 H 0.31646 0.31378 0.79047 0.0
H908 H 0.39178 0.34816 0.7859 0.0
O909 O 0.42629 0.58846 0.80176 0.0
O910 O 0.40132 0.59643 0.81935 0.0
H911 H 0.3661 0.30789 0.83242 0.0
H912 H 0.31724 0.38015 0.83436 0.0
C913 C 0.3645 0.36155 0.83132 0.0
H914 H 0.40434 0.38352 0.83617 0.0
H915 H 0.45825 0.50552 0.83986 0.0
O916 O 0.36091 0.51711 0.78166 0.0
C917 C 0.429 0.61868 0.81083 0.0
Co918 Co 0.21751 0.63924 0.54935 0.0
Co919 Co 0.21988 0.6331 0.57523 0.0
C920 C 0.14431 0.53666 0.56205 0.0
O921 O 0.16072 0.56331 0.55305 0.0
O922 O 0.16633 0.55663 0.57119 0.0
C923 C 0.2222 0.59539 0.52667 0.0
O924 O 0.20017 0.54006 0.5306 0.0
C925 C 0.23255 0.58387 0.59779 0.0
C926 C 0.25818 0.67379 0.60675 0.0
C927 C 0.24866 0.60743 0.60808 0.0
N928 N 0.23377 0.63387 0.59068 0.0
N929 N 0.24825 0.68758 0.59613 0.0
C930 C 0.21575 0.51533 0.59473 0.0
H931 H 0.16423 0.51353 0.59201 0.0
H932 H 0.24657 0.49971 0.58775 0.0
H933 H 0.22218 0.48134 0.60169 0.0
C934 C 0.36076 0.63018 0.55315 0.0
N935 N 0.29914 0.6373 0.55682 0.0
N936 N 0.2998 0.63686 0.56757 0.0
C937 C 0.3617 0.63064 0.57105 0.0
C938 C 0.40246 0.62481 0.56205 0.0
C939 C 0.37813 0.61868 0.54146 0.0
H940 H 0.35657 0.57178 0.53883 0.0
H941 H 0.4317 0.61685 0.54026 0.0
H942 H 0.35729 0.65798 0.53632 0.0
O943 O 0.16434 0.71625 0.55379 0.0
O944 O 0.16564 0.70865 0.57181 0.0
H945 H 0.3646 0.66222 0.58767 0.0
H946 H 0.43414 0.6145 0.58365 0.0
C947 C 0.38066 0.62007 0.58271 0.0
H948 H 0.35606 0.57567 0.58579 0.0
H949 H 0.25245 0.73354 0.59254 0.0
O950 O 0.23234 0.64306 0.53311 0.0
C951 C 0.14636 0.73686 0.56317 0.0
Co952 Co 0.16657 0.56037 0.20769 0.0
Co953 Co 0.20142 0.54944 0.18276 0.0
C954 C 0.29749 0.60539 0.19683 0.0
O955 O 0.25511 0.59746 0.20441 0.0
O956 O 0.28662 0.58385 0.18723 0.0
C957 C 0.19832 0.51654 0.22916 0.0
O958 O 0.24391 0.4854 0.22372 0.0
C959 C 0.23974 0.52952 0.15951 0.0
C960 C 0.14703 0.49073 0.15298 0.0
C961 C 0.21051 0.50538 0.1501 0.0
N962 N 0.19549 0.52823 0.16762 0.0
N963 N 0.14019 0.50545 0.16362 0.0
C964 C 0.3081 0.55331 0.16081 0.0
H965 H 0.30729 0.60352 0.16417 0.0
H966 H 0.33384 0.52192 0.1668 0.0
H967 H 0.33472 0.55293 0.15291 0.0
C968 C 0.13667 0.41982 0.2043 0.0
N969 N 0.15439 0.47916 0.20063 0.0
N970 N 0.17911 0.47313 0.19079 0.0
C971 C 0.18277 0.40924 0.18824 0.0
C972 C 0.15598 0.37301 0.19675 0.0
C973 C 0.10047 0.40794 0.21471 0.0
H974 H 0.13515 0.4048 0.22161 0.0
H975 H 0.07291 0.36144 0.21429 0.0
H976 H 0.06632 0.44882 0.21619 0.0
O977 O 0.10677 0.62761 0.20231 0.0
O978 O 0.14135 0.62563 0.18508 0.0
H979 H 0.18105 0.38021 0.17149 0.0
H980 H 0.23632 0.33382 0.17983 0.0
C981 C 0.2165 0.38331 0.17831 0.0
H982 H 0.2565 0.41657 0.17583 0.0
H983 H 0.09787 0.49909 0.16824 0.0
O984 O 0.15838 0.55225 0.22394 0.0
C985 C 0.10798 0.65162 0.19272 0.0
Co986 Co 0.21251 0.38815 0.95748 0.0
Co987 Co 0.2144 0.38191 0.93183 0.0
C988 C 0.1437 0.48738 0.94421 0.0
O989 O 0.16491 0.46814 0.95345 0.0
O990 O 0.16015 0.45967 0.9353 0.0
C991 C 0.19598 0.42168 0.98007 0.0
O992 O 0.15103 0.46195 0.97653 0.0
C993 C 0.23209 0.4235 0.90879 0.0
C994 C 0.26453 0.33122 0.90124 0.0
C995 C 0.25427 0.39665 0.89903 0.0
N996 N 0.231 0.3763 0.91644 0.0
N997 N 0.24942 0.32114 0.91181 0.0
C998 C 0.21243 0.49257 0.91089 0.0
H999 H 0.16119 0.4936 0.91378 0.0
H1000 H 0.24315 0.51308 0.91752 0.0
H1001 H 0.21689 0.52299 0.90343 0.0
C1002 C 0.35373 0.39703 0.95419 0.0
N1003 N 0.29349 0.38446 0.95035 0.0
N1004 N 0.29519 0.38121 0.93964 0.0
C1005 C 0.35728 0.39034 0.93633 0.0
C1006 C 0.39634 0.40167 0.94542 0.0
C1007 C 0.36769 0.4156 0.96578 0.0
H1008 H 0.33614 0.45717 0.96816 0.0
H1009 H 0.41954 0.42919 0.96697 0.0
H1010 H 0.35574 0.37397 0.97121 0.0
O1011 O 0.15236 0.31583 0.95378 0.0
O1012 O 0.15538 0.30922 0.9358 0.0
H1013 H 0.36359 0.35583 0.9199 0.0
H1014 H 0.43056 0.40726 0.9239 0.0
C1015 C 0.37726 0.39945 0.92469 0.0
H1016 H 0.3512 0.44223 0.92136 0.0
H1017 H 0.25357 0.27691 0.91596 0.0
O1018 O 0.22692 0.38585 0.97341 0.0
C1019 C 0.13223 0.29015 0.94492 0.0
Co1020 Co 0.35191 0.44393 0.70745 0.0
Co1021 Co 0.32028 0.45098 0.68252 0.0
C1022 C 0.2232 0.39541 0.69644 0.0
O1023 O 0.26496 0.40436 0.70405 0.0
O1024 O 0.23448 0.41665 0.68683 0.0
C1025 C 0.3064 0.47705 0.72869 0.0
O1026 O 0.25158 0.48605 0.72338 0.0
C1027 C 0.28315 0.47574 0.65938 0.0
C1028 C 0.37827 0.5091 0.65297 0.0
C1029 C 0.3136 0.50068 0.65012 0.0
N1030 N 0.32788 0.47097 0.66737 0.0
N1031 N 0.38463 0.49029 0.66343 0.0
C1032 C 0.21295 0.458 0.66072 0.0
H1033 H 0.20936 0.40726 0.6638 0.0
H1034 H 0.19049 0.49025 0.66695 0.0
H1035 H 0.18599 0.46243 0.6529 0.0
C1036 C 0.37874 0.58361 0.70403 0.0
N1037 N 0.36379 0.52382 0.70025 0.0
N1038 N 0.34115 0.52867 0.69027 0.0
C1039 C 0.33677 0.59235 0.68761 0.0
C1040 C 0.36045 0.62962 0.69626 0.0
C1041 C 0.40856 0.59646 0.71498 0.0
H1042 H 0.44318 0.55685 0.71707 0.0
H1043 H 0.3701 0.59728 0.72131 0.0
H1044 H 0.43409 0.64416 0.71504 0.0
O1045 O 0.41428 0.37701 0.7027 0.0
O1046 O 0.38046 0.37519 0.68543 0.0
H1047 H 0.3395 0.61751 0.67069 0.0
H1048 H 0.2852 0.66729 0.6787 0.0
C1049 C 0.30393 0.61706 0.67752 0.0
H1050 H 0.26313 0.58425 0.67528 0.0
H1051 H 0.42744 0.49245 0.66801 0.0
O1052 O 0.35675 0.45837 0.72348 0.0
C1053 C 0.41354 0.35082 0.69326 0.0
Co1054 Co 0.2795 0.64261 0.45722 0.0
Co1055 Co 0.27105 0.61602 0.43166 0.0
C1056 C 0.35036 0.53098 0.44571 0.0
O1057 O 0.33526 0.56526 0.45404 0.0
O1058 O 0.32652 0.54225 0.43628 0.0
C1059 C 0.25634 0.60544 0.47961 0.0
O1060 O 0.23904 0.55037 0.47496 0.0
C1061 C 0.25725 0.56495 0.4089 0.0
C1062 C 0.2116 0.64992 0.40087 0.0
C1063 C 0.23208 0.58665 0.39897 0.0
N1064 N 0.25062 0.61295 0.41633 0.0
N1065 N 0.22402 0.66373 0.41141 0.0
C1066 C 0.28763 0.50029 0.41129 0.0
H1067 H 0.3378 0.50792 0.41441 0.0
H1068 H 0.25947 0.47553 0.41783 0.0
H1069 H 0.28934 0.46898 0.4039 0.0
C1070 C 0.13431 0.63102 0.45461 0.0
N1071 N 0.1954 0.63497 0.45053 0.0
N1072 N 0.19324 0.62114 0.44002 0.0
C1073 C 0.13154 0.60621 0.43723 0.0
C1074 C 0.0921 0.61166 0.44639 0.0
C1075 C 0.11675 0.63817 0.46639 0.0
H1076 H 0.12179 0.59042 0.47054 0.0
H1077 H 0.06532 0.65406 0.46726 0.0
H1078 H 0.14904 0.67432 0.4703 0.0
O1079 O 0.33018 0.71676 0.45122 0.0
O1080 O 0.3266 0.69363 0.43361 0.0
H1081 H 0.06229 0.55748 0.42659 0.0
H1082 H 0.1473 0.53939 0.42403 0.0
C1083 C 0.11228 0.57801 0.42641 0.0
H1084 H 0.11367 0.6169 0.42014 0.0
H1085 H 0.21342 0.70767 0.41532 0.0
O1086 O 0.27524 0.65224 0.47357 0.0
C1087 C 0.34701 0.72911 0.4414 0.0
C1088 C 0.31249 0.92015 0.13716 0.0
C1089 C 0.28402 0.97849 0.14115 0.0
C1090 C 0.21533 0.98398 0.12475 0.0
C1091 C 0.25016 0.93077 0.12017 0.0
N1092 N 0.34156 0.85692 0.12122 0.0
N1093 N 0.21605 0.0724 0.13789 0.0
C1094 C 0.3014 0.90116 0.12616 0.0
C1095 C 0.23734 0.01222 0.13473 0.0
N1096 N 0.34873 0.88171 0.14395 0.0
N1097 N 0.15997 0.00614 0.1198 0.0
H1098 H 0.23179 0.09506 0.14505 0.0
H1099 H 0.18731 0.10209 0.13295 0.0
H1100 H 0.14161 0.9858 0.11262 0.0
H1101 H 0.12911 0.04043 0.12335 0.0
H1102 H 0.36513 0.83547 0.14176 0.0
H1103 H 0.35652 0.8929 0.15216 0.0
H1104 H 0.38365 0.83891 0.12489 0.0
H1105 H 0.33691 0.84342 0.11304 0.0
C1106 C 0.30482 0.01674 0.38961 0.0
C1107 C 0.25275 0.06214 0.39043 0.0
C1108 C 0.24627 0.06702 0.37049 0.0
C1109 C 0.29375 0.01691 0.3697 0.0
N1110 N 0.35482 0.93206 0.37872 0.0
N1111 N 0.16205 0.11554 0.38164 0.0
C1112 C 0.31859 0.98777 0.37934 0.0
C1113 C 0.21951 0.0823 0.38086 0.0
N1114 N 0.34405 0.00425 0.39837 0.0
N1115 N 0.22974 0.10328 0.36155 0.0
H1116 H 0.13979 0.12566 0.38912 0.0
H1117 H 0.13323 0.12639 0.37487 0.0
H1118 H 0.25108 0.09682 0.35391 0.0
H1119 H 0.20003 0.14437 0.36201 0.0
H1120 H 0.38655 0.97667 0.3978 0.0
H1121 H 0.33801 0.02647 0.40594 0.0
H1122 H 0.36914 0.90579 0.3856 0.0
H1123 H 0.36435 0.90841 0.37134 0.0
C1124 C 0.26677 0.95944 0.63331 0.0
C1125 C 0.21939 0.99679 0.63898 0.0
C1126 C 0.2024 0.06365 0.62268 0.0
C1127 C 0.25501 0.0315 0.61745 0.0
N1128 N 0.34562 0.95687 0.61857 0.0
N1129 N 0.15286 0.09367 0.63987 0.0
C1130 C 0.28963 0.98151 0.62297 0.0
C1131 C 0.19031 0.05164 0.6339 0.0
N1132 N 0.28809 0.90174 0.63757 0.0
N1133 N 0.16244 0.10398 0.61683 0.0
H1134 H 0.14468 0.08792 0.64823 0.0
H1135 H 0.13579 0.13783 0.6368 0.0
H1136 H 0.16819 0.11226 0.60848 0.0
H1137 H 0.11962 0.12359 0.62001 0.0
H1138 H 0.31747 0.86933 0.63325 0.0
H1139 H 0.2718 0.88356 0.64505 0.0
H1140 H 0.37633 0.92521 0.62278 0.0
H1141 H 0.36437 0.97248 0.61109 0.0
C1142 C 0.22078 0.90748 0.86933 0.0
C1143 C 0.1728 0.95691 0.86823 0.0
C1144 C 0.16432 0.96359 0.88821 0.0
C1145 C 0.21628 0.91822 0.88931 0.0
N1146 N 0.30076 0.85472 0.8803 0.0
N1147 N 0.11245 0.04423 0.87671 0.0
C1148 C 0.2468 0.89318 0.87976 0.0
C1149 C 0.14883 0.9888 0.87771 0.0
N1150 N 0.24115 0.87238 0.86048 0.0
N1151 N 0.12654 0.97943 0.89702 0.0
H1152 H 0.10196 0.06552 0.86917 0.0
H1153 H 0.09904 0.07281 0.88339 0.0
H1154 H 0.13337 0.95942 0.90474 0.0
H1155 H 0.08408 0.00699 0.89638 0.0
H1156 H 0.27622 0.83571 0.86108 0.0
H1157 H 0.22073 0.87727 0.85274 0.0
H1158 H 0.32532 0.84358 0.88753 0.0
H1159 H 0.32532 0.84358 0.88753 0.0
C1160 C 0.75214 0.01151 0.88388 0.0
C1161 C 0.72263 0.06668 0.88883 0.0
C1162 C 0.65002 0.07815 0.87309 0.0
C1163 C 0.67406 0.01874 0.86874 0.0
N1164 N 0.73985 0.92231 0.87105 0.0
N1165 N 0.63296 0.14279 0.88934 0.0
C1166 C 0.72296 0.98347 0.87442 0.0
C1167 C 0.66848 0.09722 0.88378 0.0
N1168 N 0.80922 0.98736 0.88793 0.0
N1169 N 0.61153 0.11786 0.86687 0.0
H1170 H 0.64318 0.15638 0.89737 0.0
H1171 H 0.58924 0.16177 0.88642 0.0
H1172 H 0.59887 0.10713 0.85882 0.0
H1173 H 0.59814 0.16467 0.86929 0.0
H1174 H 0.83631 0.95146 0.88399 0.0
H1175 H 0.83255 0.00725 0.89473 0.0
H1176 H 0.77035 0.89179 0.87553 0.0
H1177 H 0.71876 0.89979 0.86428 0.0
C1178 C 0.76719 0.95887 0.6353 0.0
C1179 C 0.70869 0.9931 0.63761 0.0
C1180 C 0.68844 0.00677 0.61797 0.0
C1181 C 0.74734 0.97323 0.61565 0.0
N1182 N 0.85116 0.9339 0.62197 0.0
N1183 N 0.62406 0.06532 0.63139 0.0
C1184 C 0.78954 0.95491 0.6243 0.0
C1185 C 0.67284 0.02232 0.629 0.0
N1186 N 0.79926 0.92661 0.64345 0.0
N1187 N 0.64535 0.02015 0.60976 0.0
H1188 H 0.61223 0.07833 0.6394 0.0
H1189 H 0.60009 0.09287 0.62548 0.0
H1190 H 0.65455 0.00945 0.60158 0.0
H1191 H 0.59837 0.03744 0.61114 0.0
H1192 H 0.83774 0.89466 0.64203 0.0
H1193 H 0.78441 0.92773 0.6516 0.0
H1194 H 0.88637 0.9255 0.62793 0.0
H1195 H 0.86901 0.93133 0.61399 0.0
C1196 C 0.73652 0.00933 0.37999 0.0
C1197 C 0.76448 0.95574 0.38564 0.0
C1198 C 0.84341 0.94121 0.3708 0.0
C1199 C 0.82016 0.99887 0.36572 0.0
N1200 N 0.7511 0.09382 0.36632 0.0
N1201 N 0.85346 0.87961 0.38755 0.0
C1202 C 0.76838 0.03465 0.37054 0.0
C1203 C 0.82046 0.92418 0.38136 0.0
N1204 N 0.67847 0.03464 0.38344 0.0
N1205 N 0.88566 0.90115 0.36537 0.0
H1206 H 0.83935 0.86665 0.39544 0.0
H1207 H 0.89851 0.86047 0.3853 0.0
H1208 H 0.90265 0.91085 0.35751 0.0
H1209 H 0.8986 0.85506 0.3682 0.0
H1210 H 0.65224 0.06911 0.37901 0.0
H1211 H 0.65373 0.0172 0.39029 0.0
H1212 H 0.71855 0.12535 0.37015 0.0
H1213 H 0.7734 0.11389 0.35944 0.0
C1214 C 0.84246 0.0116 0.12865 0.0
C1215 C 0.81144 0.03762 0.138 0.0
C1216 C 0.73242 0.09275 0.12623 0.0
C1217 C 0.77108 0.07709 0.11697 0.0
N1218 N 0.86955 0.02871 0.10971 0.0
N1219 N 0.73057 0.10952 0.14579 0.0
C1220 C 0.82754 0.0377 0.11823 0.0
C1221 C 0.75682 0.07942 0.13686 0.0
N1222 N 0.88618 0.96182 0.12973 0.0
N1223 N 0.67211 0.11966 0.12485 0.0
H1224 H 0.74749 0.10199 0.15372 0.0
H1225 H 0.69551 0.14607 0.14524 0.0
H1226 H 0.65217 0.12856 0.11714 0.0
H1227 H 0.63943 0.12664 0.13126 0.0
H1228 H 0.90582 0.93692 0.12308 0.0
H1229 H 0.89734 0.94091 0.13728 0.0
H1230 H 0.91493 0.00655 0.11056 0.0
H1231 H 0.86192 0.04865 0.10203 0.0
C1232 C 0.84048 0.41647 0.63527 0.0
C1233 C 0.80908 0.47202 0.63974 0.0
C1234 C 0.73017 0.46977 0.62469 0.0
C1235 C 0.76696 0.41983 0.61955 0.0
N1236 N 0.86542 0.35546 0.61891 0.0
N1237 N 0.73019 0.55837 0.6378 0.0
C1238 C 0.82442 0.39579 0.62456 0.0
C1239 C 0.75539 0.50056 0.63422 0.0
N1240 N 0.8843 0.38204 0.64138 0.0
N1241 N 0.67033 0.4864 0.62068 0.0
H1242 H 0.74797 0.58278 0.64465 0.0
H1243 H 0.69556 0.5848 0.63343 0.0
H1244 H 0.64994 0.46423 0.61382 0.0
H1245 H 0.63858 0.5178 0.62473 0.0
H1246 H 0.90358 0.33746 0.63891 0.0
H1247 H 0.89606 0.39429 0.64941 0.0
H1248 H 0.91126 0.34208 0.6218 0.0
H1249 H 0.85693 0.34091 0.61088 0.0
C1250 C 0.85703 0.57085 0.87266 0.0
C1251 C 0.82724 0.5142 0.86826 0.0
C1252 C 0.74277 0.52009 0.88244 0.0
C1253 C 0.77705 0.57207 0.8875 0.0
N1254 N 0.87544 0.63627 0.88876 0.0
N1255 N 0.74807 0.42799 0.87005 0.0
C1256 C 0.83669 0.59441 0.883 0.0
C1257 C 0.77174 0.48681 0.87345 0.0
N1258 N 0.90305 0.60395 0.86679 0.0
N1259 N 0.68169 0.50398 0.88597 0.0
H1260 H 0.76854 0.40192 0.86358 0.0
H1261 H 0.71192 0.4025 0.87422 0.0
H1262 H 0.65871 0.52776 0.89244 0.0
H1263 H 0.65172 0.47107 0.88188 0.0
H1264 H 0.92118 0.64925 0.86914 0.0
H1265 H 0.91806 0.58987 0.859 0.0
H1266 H 0.9225 0.64862 0.88632 0.0
H1267 H 0.86363 0.65317 0.89655 0.0
C1268 C 0.69554 0.47852 0.11896 0.0
C1269 C 0.73417 0.53494 0.11719 0.0
C1270 C 0.74241 0.55194 0.13699 0.0
C1271 C 0.70471 0.49485 0.13879 0.0
N1272 N 0.66172 0.39428 0.13168 0.0
N1273 N 0.8103 0.61305 0.12441 0.0
C1274 C 0.68687 0.45491 0.12981 0.0
C1275 C 0.76304 0.56739 0.1262 0.0
N1276 N 0.66367 0.44986 0.11041 0.0
N1277 N 0.75474 0.59403 0.14538 0.0
H1278 H 0.82704 0.62462 0.11659 0.0
H1279 H 0.83743 0.63412 0.13068 0.0
H1280 H 0.73969 0.5856 0.15338 0.0
H1281 H 0.77526 0.63997 0.14425 0.0
H1282 H 0.62896 0.41331 0.11141 0.0
H1283 H 0.66807 0.46588 0.10237 0.0
H1284 H 0.6532 0.36051 0.12548 0.0
H1285 H 0.65579 0.37544 0.13954 0.0
C1286 C 0.75545 0.39234 0.38073 0.0
C1287 C 0.72472 0.41785 0.3902 0.0
C1288 C 0.65965 0.49021 0.37857 0.0
C1289 C 0.68143 0.45606 0.3692 0.0
N1290 N 0.74549 0.36889 0.36142 0.0
N1291 N 0.64001 0.48541 0.398 0.0
C1292 C 0.72877 0.40602 0.37025 0.0
C1293 C 0.67532 0.46597 0.38912 0.0
N1294 N 0.81051 0.35547 0.38176 0.0
N1295 N 0.62415 0.54608 0.37739 0.0
H1296 H 0.64822 0.4677 0.40583 0.0
H1297 H 0.59867 0.51466 0.39743 0.0
H1298 H 0.61274 0.56566 0.36975 0.0
H1299 H 0.61215 0.57638 0.38392 0.0
H1300 H 0.83846 0.3405 0.37511 0.0
H1301 H 0.83192 0.34566 0.38932 0.0
H1302 H 0.77408 0.3271 0.362 0.0
H1303 H 0.72658 0.3766 0.35363 0.0
C1304 C 0.23027 0.56289 0.36834 0.0
C1305 C 0.19302 0.50484 0.36721 0.0
C1306 C 0.18555 0.49634 0.38719 0.0
C1307 C 0.22575 0.55228 0.38829 0.0
N1308 N 0.30198 0.62632 0.37991 0.0
N1309 N 0.15255 0.40653 0.3756 0.0
C1310 C 0.2534 0.58126 0.37884 0.0
C1311 C 0.17653 0.46829 0.37667 0.0
N1312 N 0.23982 0.60324 0.35961 0.0
N1313 N 0.15232 0.47238 0.396 0.0
H1314 H 0.14707 0.38392 0.36802 0.0
H1315 H 0.14504 0.37558 0.38224 0.0
H1316 H 0.15537 0.49265 0.40378 0.0
H1317 H 0.11704 0.43606 0.39535 0.0
H1318 H 0.26041 0.64947 0.36031 0.0
H1319 H 0.22183 0.59346 0.35184 0.0
H1320 H 0.32792 0.64473 0.37326 0.0
H1321 H 0.32101 0.63974 0.38749 0.0
C1322 C 0.28619 0.4463 0.13721 0.0
C1323 C 0.23821 0.49491 0.13903 0.0
C1324 C 0.21787 0.50208 0.11935 0.0
C1325 C 0.26749 0.45517 0.11748 0.0
N1326 N 0.36086 0.39681 0.1243 0.0
N1327 N 0.17274 0.58213 0.13178 0.0
C1328 C 0.30571 0.43207 0.12632 0.0
C1329 C 0.20898 0.52725 0.13005 0.0
N1330 N 0.31005 0.41066 0.14575 0.0
N1331 N 0.17621 0.51939 0.11113 0.0
H1332 H 0.16627 0.60229 0.13953 0.0
H1333 H 0.15513 0.61117 0.12545 0.0
H1334 H 0.17935 0.50076 0.10324 0.0
H1335 H 0.13487 0.54784 0.1124 0.0
H1336 H 0.33949 0.36978 0.14472 0.0
H1337 H 0.29624 0.4184 0.15384 0.0
H1338 H 0.39389 0.38377 0.13038 0.0
H1339 H 0.37697 0.38653 0.11639 0.0
C1340 C 0.26645 0.41545 0.86837 0.0
C1341 C 0.30847 0.47013 0.86729 0.0
C1342 C 0.31373 0.47936 0.88723 0.0
C1343 C 0.2674 0.42821 0.88827 0.0
N1344 N 0.18575 0.36144 0.87958 0.0
N1345 N 0.35652 0.56502 0.87568 0.0
C1346 C 0.2391 0.40093 0.87875 0.0
C1347 C 0.32692 0.50572 0.87673 0.0
N1348 N 0.25594 0.37452 0.85976 0.0
N1349 N 0.34863 0.50002 0.89607 0.0
H1350 H 0.36521 0.5867 0.86811 0.0
H1351 H 0.36571 0.59549 0.88232 0.0
H1352 H 0.34304 0.48017 0.90382 0.0
H1353 H 0.38764 0.53232 0.89546 0.0
H1354 H 0.23091 0.33055 0.8605 0.0
H1355 H 0.27782 0.38085 0.85217 0.0
H1356 H 0.15991 0.34488 0.8728 0.0
H1357 H 0.16321 0.35139 0.88704 0.0
C1358 C 0.31368 0.49089 0.62982 0.0
C1359 C 0.286 0.51889 0.63933 0.0
C1360 C 0.22002 0.59064 0.62779 0.0
C1361 C 0.25692 0.57137 0.61853 0.0
N1362 N 0.34738 0.50968 0.61119 0.0
N1363 N 0.21917 0.6032 0.64742 0.0
C1364 C 0.30566 0.52267 0.61961 0.0
C1365 C 0.24019 0.57042 0.63836 0.0
N1366 N 0.34765 0.43382 0.63054 0.0
N1367 N 0.1654 0.62785 0.62647 0.0
H1368 H 0.23425 0.59176 0.65531 0.0
H1369 H 0.19139 0.64562 0.647 0.0
H1370 H 0.14844 0.64226 0.61881 0.0
H1371 H 0.13343 0.63834 0.63286 0.0
H1372 H 0.36398 0.40824 0.62371 0.0
H1373 H 0.35325 0.40864 0.6379 0.0
H1374 H 0.38798 0.4796 0.612 0.0
H1375 H 0.34533 0.53365 0.60371 0.0
C1376 C 0.38032 0.68694 0.18962 0.0
C1377 C 0.34823 0.65707 0.19858 0.0
C1378 C 0.33845 0.76049 0.20786 0.0
C1379 C 0.36339 0.79322 0.19851 0.0
N1380 N 0.42982 0.78559 0.18226 0.0
N1381 N 0.34135 0.65981 0.21809 0.0
C1382 C 0.39181 0.7557 0.18992 0.0
C1383 C 0.34406 0.69222 0.20841 0.0
N1384 N 0.39926 0.64965 0.18097 0.0
N1385 N 0.30342 0.79254 0.21567 0.0
H1386 H 0.34756 0.60931 0.21832 0.0
H1387 H 0.34087 0.68372 0.22561 0.0
H1388 H 0.28887 0.8409 0.21487 0.0
H1389 H 0.28135 0.7684 0.2222 0.0
H1390 H 0.41604 0.6686 0.1736 0.0
H1391 H 0.39833 0.59883 0.18136 0.0
H1392 H 0.45511 0.76071 0.17618 0.0
H1393 H 0.44055 0.83524 0.18258 0.0
C1394 C 0.47282 0.04013 0.43809 0.0
C1395 C 0.45739 0.0935 0.44493 0.0
C1396 C 0.57369 0.10815 0.44895 0.0
C1397 C 0.58877 0.05865 0.44125 0.0
N1398 N 0.5513 0.99334 0.42587 0.0
N1399 N 0.49274 0.18392 0.456 0.0
C1400 C 0.53807 0.03018 0.43491 0.0
C1401 C 0.50781 0.12953 0.45009 0.0
N1402 N 0.4257 0.99656 0.43506 0.0
N1403 N 0.62222 0.13364 0.45527 0.0
H1404 H 0.44491 0.19981 0.45711 0.0
H1405 H 0.52759 0.21556 0.45917 0.0
H1406 H 0.67111 0.12138 0.45412 0.0
H1407 H 0.6139 0.16463 0.46186 0.0
H1408 H 0.43613 0.95308 0.43102 0.0
H1409 H 0.37755 0.99957 0.43773 0.0
H1410 H 0.51492 0.97642 0.42065 0.0
H1411 H 0.59763 0.98656 0.42267 0.0
C1412 C 0.13698 0.31731 0.68925 0.0
C1413 C 0.17318 0.34293 0.69814 0.0
C1414 C 0.18311 0.23573 0.70617 0.0
C1415 C 0.1523 0.20749 0.69691 0.0
N1416 N 0.08052 0.22352 0.68152 0.0
N1417 N 0.18816 0.33175 0.71753 0.0
C1418 C 0.1226 0.24906 0.68902 0.0
C1419 C 0.18059 0.30378 0.70752 0.0
N1420 N 0.11688 0.35811 0.68113 0.0
N1421 N 0.2199 0.19925 0.71316 0.0
H1422 H 0.1831 0.38198 0.71857 0.0
H1423 H 0.19107 0.30453 0.72472 0.0
H1424 H 0.23197 0.15079 0.71164 0.0
H1425 H 0.24526 0.21967 0.7197 0.0
H1426 H 0.09709 0.34223 0.67376 0.0
H1427 H 0.12018 0.40866 0.68194 0.0
H1428 H 0.05376 0.25162 0.67605 0.0
H1429 H 0.06828 0.17418 0.6814 0.0
C1430 C 0.03073 0.97728 0.94514 0.0
C1431 C 0.03392 0.91081 0.94816 0.0
C1432 C 0.91448 0.90637 0.94922 0.0
C1433 C 0.91176 0.97026 0.94478 0.0
N1434 N 0.96826 0.06328 0.93695 0.0
N1435 N 0.98091 0.81123 0.95345 0.0
C1436 C 0.97012 0.00455 0.94223 0.0
C1437 C 0.97625 0.87497 0.95034 0.0
N1438 N 0.08554 0.0153 0.94542 0.0
N1439 N 0.85813 0.87639 0.95241 0.0
H1440 H 0.02563 0.78858 0.95486 0.0
H1441 H 0.94118 0.78012 0.95427 0.0
H1442 H 0.81235 0.89726 0.95118 0.0
H1443 H 0.8565 0.83238 0.95662 0.0
H1444 H 0.08463 0.06582 0.94458 0.0
H1445 H 0.13123 0.99784 0.94768 0.0
H1446 H 0.00945 0.08577 0.9337 0.0
H1447 H 0.92563 0.08731 0.93484 0.0
C1448 C 0.37997 0.25648 0.31692 0.0
C1449 C 0.34375 0.20632 0.3117 0.0
C1450 C 0.27344 0.28743 0.30325 0.0
C1451 C 0.30342 0.3374 0.30957 0.0
N1452 N 0.38288 0.36958 0.32296 0.0
N1453 N 0.2431 0.17425 0.30297 0.0
C1454 C 0.35633 0.32194 0.31656 0.0
C1455 C 0.28701 0.22175 0.3057 0.0
N1456 N 0.43638 0.24137 0.32227 0.0
N1457 N 0.23139 0.3017 0.29493 0.0
H1458 H 0.24834 0.12556 0.30522 0.0
H1459 H 0.19746 0.18449 0.29965 0.0
H1460 H 0.21996 0.34858 0.29245 0.0
H1461 H 0.21359 0.26637 0.28959 0.0
H1462 H 0.46805 0.27614 0.32545 0.0
H1463 H 0.45378 0.19375 0.32288 0.0
H1464 H 0.41678 0.36064 0.3291 0.0
H1465 H 0.3686 0.41828 0.32238 0.0
C1466 C 0.95233 0.07229 0.54743 0.0
C1467 C 0.90928 0.08416 0.55618 0.0
C1468 C 0.00117 0.13289 0.56623 0.0
C1469 C 0.04494 0.10063 0.55899 0.0
N1470 N 0.0583 0.02983 0.54327 0.0
N1471 N 0.88919 0.145 0.57263 0.0
C1472 C 0.01962 0.06841 0.54962 0.0
C1473 C 0.93259 0.12117 0.56519 0.0
N1474 N 0.92868 0.06309 0.53714 0.0
N1475 N 0.02501 0.17523 0.57385 0.0
H1476 H 0.83908 0.14409 0.57117 0.0
H1477 H 0.90251 0.16563 0.58007 0.0
H1478 H 0.07465 0.18516 0.57461 0.0
H1479 H 0.99575 0.20407 0.57883 0.0
H1480 H 0.95886 0.05749 0.53034 0.0
H1481 H 0.87932 0.06962 0.53539 0.0
H1482 H 0.0406 0.00412 0.53655 0.0
H1483 H 0.10581 0.01753 0.54542 0.0
C1484 C 0.22002 0.75649 0.81563 0.0
C1485 C 0.15971 0.76814 0.81042 0.0
C1486 C 0.15061 0.65143 0.80621 0.0
C1487 C 0.20702 0.63958 0.81262 0.0
N1488 N 0.28396 0.68108 0.82605 0.0
N1489 N 0.06421 0.72711 0.80129 0.0
C1490 C 0.23784 0.692 0.81821 0.0
C1491 C 0.12376 0.71562 0.80587 0.0
N1492 N 0.26201 0.80678 0.8177 0.0
N1493 N 0.12355 0.60159 0.80038 0.0
H1494 H 0.04459 0.77383 0.80061 0.0
H1495 H 0.03266 0.69029 0.79878 0.0
H1496 H 0.14028 0.55369 0.80098 0.0
H1497 H 0.0867 0.60807 0.79464 0.0
H1498 H 0.30964 0.79958 0.8204 0.0
H1499 H 0.25233 0.85489 0.81549 0.0
H1500 H 0.30323 0.71825 0.83087 0.0
H1501 H 0.29723 0.63514 0.8288 0.0
C1502 C 0.51726 0.87224 0.06123 0.0
C1503 C 0.45926 0.90861 0.06294 0.0
C1504 C 0.52288 0.0086 0.06533 0.0
C1505 C 0.58104 0.97309 0.06316 0.0
N1506 N 0.63452 0.87352 0.05797 0.0
N1507 N 0.40564 0.01339 0.06405 0.0
C1508 C 0.5785 0.90544 0.06077 0.0
C1509 C 0.46174 0.97725 0.06433 0.0
N1510 N 0.51345 0.80609 0.0601 0.0
N1511 N 0.52566 0.07285 0.06831 0.0
H1512 H 0.35922 0.9934 0.06335 0.0
H1513 H 0.40494 0.06399 0.06347 0.0
H1514 H 0.56805 0.10052 0.06821 0.0
H1515 H 0.48628 0.0982 0.07158 0.0
H1516 H 0.55369 0.77551 0.05956 0.0
H1517 H 0.46921 0.78104 0.06015 0.0
H1518 H 0.63611 0.82575 0.05514 0.0
H1519 H 0.68001 0.89624 0.05801 0.0
C1520 C 0.76619 0.26876 0.80723 0.0
C1521 C 0.73441 0.32608 0.81106 0.0
C1522 C 0.6356 0.2622 0.81477 0.0
C1523 C 0.66948 0.20462 0.81171 0.0
N1524 N 0.77218 0.1515 0.80796 0.0
N1525 N 0.64176 0.37745 0.81946 0.0
C1526 C 0.73608 0.20744 0.80871 0.0
C1527 C 0.66978 0.32285 0.81512 0.0
N1528 N 0.8256 0.27227 0.8022 0.0
N1529 N 0.57088 0.25865 0.81732 0.0
H1530 H 0.66485 0.42277 0.81941 0.0
H1531 H 0.5974 0.37749 0.82358 0.0
H1532 H 0.54563 0.21457 0.81759 0.0
H1533 H 0.54141 0.29918 0.81861 0.0
H1534 H 0.84616 0.23338 0.79795 0.0
H1535 H 0.85242 0.31488 0.80142 0.0
H1536 H 0.82271 0.15125 0.80716 0.0
H1537 H 0.75328 0.10509 0.80931 0.0
C1538 C 0.51285 0.92578 0.54867 0.0
C1539 C 0.54325 0.89483 0.55771 0.0
C1540 C 0.43513 0.8765 0.56587 0.0
C1541 C 0.40709 0.91215 0.55712 0.0
N1542 N 0.41529 0.92873 0.53771 0.0
N1543 N 0.53146 0.82182 0.57305 0.0
C1544 C 0.44475 0.92135 0.5476 0.0
C1545 C 0.50371 0.86374 0.56575 0.0
N1546 N 0.54718 0.96456 0.54167 0.0
N1547 N 0.39632 0.85543 0.5742 0.0
H1548 H 0.58103 0.81063 0.57289 0.0
H1549 H 0.50487 0.79404 0.5786 0.0
H1550 H 0.34559 0.85775 0.57369 0.0
H1551 H 0.41404 0.83587 0.58147 0.0
H1552 H 0.5247 0.99119 0.53546 0.0
H1553 H 0.59594 0.97664 0.54286 0.0
H1554 H 0.44156 0.93301 0.53044 0.0
H1555 H 0.36509 0.92243 0.53685 0.0
C1556 C 0.82716 0.66362 0.31375 0.0
C1557 C 0.75894 0.66328 0.31548 0.0
C1558 C 0.75781 0.78248 0.31668 0.0
C1559 C 0.82631 0.783 0.31513 0.0
N1560 N 0.92818 0.7253 0.31467 0.0
N1561 N 0.66157 0.72027 0.32116 0.0
C1562 C 0.8617 0.7238 0.31443 0.0
C1563 C 0.72509 0.72209 0.31778 0.0
N1564 N 0.85841 0.60684 0.31122 0.0
N1565 N 0.72338 0.83962 0.31663 0.0
H1566 H 0.63479 0.67739 0.3218 0.0
H1567 H 0.63697 0.76059 0.32425 0.0
H1568 H 0.74502 0.88549 0.31629 0.0
H1569 H 0.67277 0.84175 0.31616 0.0
H1570 H 0.9069 0.60463 0.30874 0.0
H1571 H 0.83442 0.56201 0.31101 0.0
H1572 H 0.95702 0.68373 0.31527 0.0
H1573 H 0.95429 0.76879 0.31527 0.0
C1574 C 0.04396 0.0111 0.06997 0.0
C1575 C 0.09707 0.04042 0.06432 0.0
C1576 C 0.02173 0.121 0.05653 0.0
C1577 C 0.96865 0.08528 0.06094 0.0
N1578 N 0.9294 0.98592 0.06923 0.0
N1579 N 0.13661 0.12085 0.05163 0.0
C1580 C 0.9798 0.02733 0.0669 0.0
C1581 C 0.08598 0.09493 0.05743 0.0
N1582 N 0.0539 0.96765 0.07828 0.0
N1583 N 0.01078 0.17972 0.05162 0.0
H1584 H 0.18451 0.10483 0.05263 0.0
H1585 H 0.13076 0.15596 0.04557 0.0
H1586 H 0.96412 0.19904 0.05064 0.0
H1587 H 0.04795 0.21105 0.04917 0.0
H1588 H 0.01615 0.94996 0.08315 0.0
H1589 H 0.0994 0.95519 0.08132 0.0
H1590 H 0.93624 0.93968 0.07256 0.0
H1591 H 0.88165 0.99419 0.06668 0.0
C1592 C 0.69635 0.75092 0.70681 0.0
C1593 C 0.66133 0.77463 0.69764 0.0
C1594 C 0.66252 0.66421 0.68977 0.0
C1595 C 0.70064 0.6429 0.69877 0.0
N1596 N 0.71266 0.65679 0.71822 0.0
N1597 N 0.5931 0.7491 0.68217 0.0
C1598 C 0.70353 0.68311 0.70812 0.0
C1599 C 0.63846 0.72964 0.68965 0.0
N1600 N 0.72743 0.79224 0.71383 0.0
N1601 N 0.64912 0.62183 0.68148 0.0
H1602 H 0.57269 0.79565 0.68226 0.0
H1603 H 0.57176 0.71791 0.67651 0.0
H1604 H 0.6586 0.57203 0.68218 0.0
H1605 H 0.62893 0.63577 0.67403 0.0
H1606 H 0.7572 0.77537 0.72013 0.0
H1607 H 0.73012 0.84237 0.71257 0.0
H1608 H 0.71178 0.68493 0.72532 0.0
H1609 H 0.7113 0.60648 0.71946 0.0
C1610 C 0.00495 0.87198 0.43869 0.0
C1611 C 0.9508 0.9075 0.4428 0.0
C1612 C 0.0238 0.98802 0.45077 0.0
C1613 C 0.07788 0.95717 0.44568 0.0
N1614 N 0.1203 0.87315 0.43397 0.0
N1615 N 0.90921 0.01063 0.44938 0.0
C1616 C 0.06861 0.89992 0.43938 0.0
C1617 C 0.9603 0.96874 0.44787 0.0
N1618 N 0.99539 0.81201 0.43413 0.0
N1619 N 0.03237 0.03587 0.4584 0.0
H1620 H 0.86191 0.00068 0.44679 0.0
H1621 H 0.91527 0.05862 0.45198 0.0
H1622 H 0.07765 0.05122 0.46115 0.0
H1623 H 0.99408 0.05496 0.463 0.0
H1624 H 0.03315 0.78099 0.43186 0.0
H1625 H 0.94913 0.79173 0.43318 0.0
H1626 H 0.11597 0.83539 0.42834 0.0
H1627 H 0.16762 0.89118 0.43477 0.0
C1628 C 0.87682 0.269 0.19124 0.0
C1629 C 0.85024 0.22065 0.1983 0.0
C1630 C 0.79767 0.30654 0.20881 0.0
C1631 C 0.8071 0.35091 0.20009 0.0
N1632 N 0.86909 0.37975 0.18415 0.0
N1633 N 0.77426 0.19451 0.21284 0.0
C1634 C 0.85142 0.33383 0.19165 0.0
C1635 C 0.80814 0.23962 0.20691 0.0
N1636 N 0.92646 0.25301 0.18431 0.0
N1637 N 0.78013 0.32797 0.21893 0.0
H1638 H 0.77512 0.14484 0.21109 0.0
H1639 H 0.73927 0.20761 0.21862 0.0
H1640 H 0.78073 0.37728 0.22093 0.0
H1641 H 0.77572 0.29677 0.22562 0.0
H1642 H 0.9502 0.28653 0.17933 0.0
H1643 H 0.94731 0.20666 0.18414 0.0
H1644 H 0.89465 0.36947 0.177 0.0
H1645 H 0.8572 0.42885 0.18516 0.0
C1646 C 0.41232 0.09409 0.94886 0.0
C1647 C 0.39832 0.03877 0.94232 0.0
C1648 C 0.51453 0.02608 0.93823 0.0
C1649 C 0.52812 0.08486 0.94382 0.0
N1650 N 0.49018 0.17812 0.9539 0.0
N1651 N 0.43563 0.96219 0.92848 0.0
C1652 C 0.47689 0.1201 0.94894 0.0
C1653 C 0.44906 0.00843 0.9362 0.0
N1654 N 0.36396 0.12083 0.95509 0.0
N1655 N 0.56395 0.98432 0.93553 0.0
H1656 H 0.38901 0.9471 0.92642 0.0
H1657 H 0.47088 0.94382 0.92318 0.0
H1658 H 0.61269 0.9933 0.93738 0.0
H1659 H 0.55591 0.93723 0.93263 0.0
H1660 H 0.37174 0.15625 0.96103 0.0
H1661 H 0.31563 0.10526 0.95461 0.0
H1662 H 0.4547 0.2081 0.95728 0.0
H1663 H 0.53699 0.19773 0.95422 0.0
C1664 C 0.77239 0.28584 0.69552 0.0
C1665 C 0.84142 0.28755 0.69595 0.0
C1666 C 0.84447 0.16809 0.69749 0.0
C1667 C 0.77603 0.1667 0.69595 0.0
N1668 N 0.67633 0.2233 0.69139 0.0
N1669 N 0.94453 0.23197 0.69688 0.0
C1670 C 0.74048 0.22531 0.69439 0.0
C1671 C 0.87801 0.22903 0.69683 0.0
N1672 N 0.73677 0.34194 0.69651 0.0
N1673 N 0.87679 0.1114 0.69969 0.0
H1674 H 0.96998 0.27599 0.69664 0.0
H1675 H 0.97465 0.19125 0.69664 0.0
H1676 H 0.85315 0.0664 0.70002 0.0
H1677 H 0.92579 0.10905 0.70183 0.0
H1678 H 0.68648 0.34232 0.69765 0.0
H1679 H 0.75727 0.38813 0.69726 0.0
H1680 H 0.65051 0.26395 0.6887 0.0
H1681 H 0.65021 0.1802 0.6906 0.0
C1682 C 0.08306 0.5918 0.94032 0.0
C1683 C 0.08333 0.52664 0.94417 0.0
C1684 C 0.96443 0.52817 0.94589 0.0
C1685 C 0.96451 0.59535 0.9432 0.0
N1686 N 0.02194 0.69233 0.93775 0.0
N1687 N 0.0251 0.43439 0.95183 0.0
C1688 C 0.0234 0.62763 0.94037 0.0
C1689 C 0.02433 0.49554 0.94737 0.0
N1690 N 0.13955 0.61869 0.93648 0.0
N1691 N 0.90703 0.49419 0.94638 0.0
H1692 H 0.06651 0.40553 0.95232 0.0
H1693 H 0.98516 0.41365 0.95577 0.0
H1694 H 0.86143 0.51514 0.94515 0.0
H1695 H 0.90457 0.44359 0.94688 0.0
H1696 H 0.14225 0.66378 0.93262 0.0
H1697 H 0.184 0.59403 0.93668 0.0
H1698 H 0.06328 0.7209 0.93664 0.0
H1699 H 0.97855 0.71849 0.93712 0.0
C1700 C 0.63987 0.76799 0.19504 0.0
C1701 C 0.67657 0.70937 0.19462 0.0
C1702 C 0.7773 0.77121 0.19252 0.0
C1703 C 0.74169 0.83007 0.19364 0.0
N1704 N 0.64098 0.88616 0.19713 0.0
N1705 N 0.78117 0.65561 0.19592 0.0
C1706 C 0.67331 0.82905 0.19525 0.0
C1707 C 0.74557 0.71111 0.19425 0.0
N1708 N 0.57337 0.76501 0.19511 0.0
N1709 N 0.84133 0.7725 0.18942 0.0
H1710 H 0.76038 0.61015 0.19741 0.0
H1711 H 0.83154 0.65569 0.19697 0.0
H1712 H 0.86688 0.81549 0.18802 0.0
H1713 H 0.86737 0.73099 0.1872 0.0
H1714 H 0.54335 0.8057 0.19458 0.0
H1715 H 0.5479 0.72099 0.1952 0.0
H1716 H 0.59214 0.88886 0.19936 0.0
H1717 H 0.66444 0.93129 0.19705 0.0
C1718 C 0.5294 0.49061 0.44875 0.0
C1719 C 0.52899 0.42203 0.4473 0.0
C1720 C 0.40963 0.42318 0.44573 0.0
C1721 C 0.41091 0.49213 0.44634 0.0
N1722 N 0.47287 0.59238 0.44597 0.0
N1723 N 0.47113 0.32321 0.443 0.0
C1724 C 0.47101 0.5261 0.44723 0.0
C1725 C 0.46968 0.38821 0.44541 0.0
N1726 N 0.58563 0.52218 0.45159 0.0
N1727 N 0.35114 0.39141 0.44564 0.0
H1728 H 0.51429 0.29638 0.44284 0.0
H1729 H 0.43055 0.29676 0.44049 0.0
H1730 H 0.30668 0.41609 0.44568 0.0
H1731 H 0.34647 0.34104 0.44627 0.0
H1732 H 0.58681 0.57058 0.45415 0.0
H1733 H 0.6307 0.49923 0.45225 0.0
H1734 H 0.51589 0.61885 0.44514 0.0
H1735 H 0.43156 0.62077 0.44468 0.0
C1736 C 0.76892 0.70354 0.81316 0.0
C1737 C 0.83796 0.70376 0.81381 0.0
C1738 C 0.83863 0.82361 0.81315 0.0
C1739 C 0.76961 0.82313 0.81291 0.0
N1740 N 0.66855 0.76374 0.8148 0.0
N1741 N 0.93843 0.76229 0.81629 0.0
C1742 C 0.73472 0.76337 0.81349 0.0
C1743 C 0.87291 0.76342 0.81435 0.0
N1744 N 0.73568 0.64605 0.81203 0.0
N1745 N 0.87108 0.88137 0.81206 0.0
H1746 H 0.96435 0.71892 0.81724 0.0
H1747 H 0.96626 0.80376 0.81777 0.0
H1748 H 0.84687 0.92591 0.81138 0.0
H1749 H 0.92136 0.88497 0.81112 0.0
H1750 H 0.68685 0.64339 0.80977 0.0
H1751 H 0.75721 0.6003 0.8127 0.0
H1752 H 0.64136 0.72264 0.8168 0.0
H1753 H 0.64087 0.80609 0.81476 0.0
C1754 C 0.43474 0.55939 0.04736 0.0
C1755 C 0.39602 0.5629 0.05685 0.0
C1756 C 0.48444 0.62362 0.06572 0.0
C1757 C 0.52812 0.5994 0.05762 0.0
N1758 N 0.54273 0.53501 0.04113 0.0
N1759 N 0.37583 0.61805 0.0738 0.0
C1760 C 0.50278 0.56582 0.04841 0.0
C1761 C 0.41823 0.60195 0.06565 0.0
N1762 N 0.40654 0.54972 0.03743 0.0
N1763 N 0.50613 0.66739 0.07331 0.0
H1764 H 0.32597 0.6089 0.07307 0.0
H1765 H 0.38949 0.64019 0.0811 0.0
H1766 H 0.55377 0.68508 0.07332 0.0
H1767 H 0.47618 0.69012 0.07901 0.0
H1768 H 0.4331 0.55 0.03016 0.0
H1769 H 0.35597 0.55089 0.03655 0.0
H1770 H 0.52473 0.50616 0.0348 0.0
H1771 H 0.59298 0.53162 0.04215 0.0
C1772 C 0.63228 0.22416 0.30836 0.0
C1773 C 0.6683 0.28317 0.30819 0.0
C1774 C 0.76934 0.2221 0.30561 0.0
C1775 C 0.73463 0.16308 0.30733 0.0
N1776 N 0.6342 0.10659 0.3109 0.0
N1777 N 0.77192 0.33915 0.30766 0.0
C1778 C 0.66623 0.1636 0.30882 0.0
C1779 C 0.73702 0.28241 0.30702 0.0
N1780 N 0.56587 0.22621 0.30785 0.0
N1781 N 0.83326 0.22057 0.30246 0.0
H1782 H 0.75063 0.38509 0.30824 0.0
H1783 H 0.82244 0.34061 0.3084 0.0
H1784 H 0.85952 0.1776 0.30151 0.0
H1785 H 0.85872 0.26148 0.29981 0.0
H1786 H 0.53684 0.18502 0.30686 0.0
H1787 H 0.54008 0.26997 0.30747 0.0
H1788 H 0.58538 0.1043 0.31319 0.0
H1789 H 0.65781 0.06155 0.31095 0.0
C1790 C 0.02424 0.39414 0.56127 0.0
C1791 C 0.96472 0.42849 0.56263 0.0
C1792 C 0.02405 0.53152 0.56432 0.0
C1793 C 0.08341 0.49801 0.56226 0.0
N1794 N 0.141 0.39964 0.55774 0.0
N1795 N 0.90642 0.53073 0.56368 0.0
C1796 C 0.08384 0.4298 0.56042 0.0
C1797 C 0.96422 0.49738 0.56369 0.0
N1798 N 0.02359 0.32754 0.56096 0.0
N1799 N 0.02481 0.59617 0.5671 0.0
H1800 H 0.86091 0.50833 0.5636 0.0
H1801 H 0.90316 0.58113 0.56288 0.0
H1802 H 0.06674 0.62467 0.56703 0.0
H1803 H 0.98461 0.62089 0.57022 0.0
H1804 H 0.06535 0.29883 0.56097 0.0
H1805 H 0.98061 0.30047 0.56137 0.0
H1806 H 0.1443 0.3512 0.5553 0.0
H1807 H 0.18528 0.42455 0.55736 0.0
C1808 C 0.14083 0.82287 0.30777 0.0
C1809 C 0.193 0.8377 0.31496 0.0
C1810 C 0.20975 0.72165 0.31843 0.0
C1811 C 0.15367 0.70671 0.31221 0.0
N1812 N 0.0622 0.7425 0.30144 0.0
N1813 N 0.2645 0.80058 0.32956 0.0
C1814 C 0.11777 0.7573 0.30705 0.0
C1815 C 0.22287 0.78709 0.32115 0.0
N1816 N 0.11447 0.87129 0.30152 0.0
N1817 N 0.25334 0.67388 0.32116 0.0
H1818 H 0.27602 0.84722 0.33219 0.0
H1819 H 0.282 0.76473 0.33484 0.0
H1820 H 0.24837 0.62546 0.31873 0.0
H1821 H 0.29858 0.6837 0.32466 0.0
H1822 H 0.08125 0.86309 0.29525 0.0
H1823 H 0.12817 0.92001 0.30238 0.0
H1824 H 0.03067 0.77742 0.29827 0.0
H1825 H 0.04543 0.69482 0.30053 0.0
C1826 C 0.98128 0.51733 0.0585 0.0
C1827 C 0.9231 0.48004 0.05943 0.0
C1828 C 0.98813 0.38134 0.06258 0.0
C1829 C 0.04569 0.41826 0.06082 0.0
N1830 N 0.09679 0.51878 0.05498 0.0
N1831 N 0.86984 0.37618 0.06122 0.0
C1832 C 0.0421 0.48529 0.05808 0.0
C1833 C 0.92612 0.41174 0.06115 0.0
N1834 N 0.97916 0.58394 0.05881 0.0
N1835 N 0.993 0.31785 0.06585 0.0
H1836 H 0.82409 0.39755 0.06024 0.0
H1837 H 0.86849 0.32551 0.06147 0.0
H1838 H 0.0377 0.29422 0.06674 0.0
H1839 H 0.95344 0.28964 0.06829 0.0
H1840 H 0.02039 0.61311 0.05965 0.0
H1841 H 0.93621 0.61046 0.05934 0.0
H1842 H 0.0952 0.56497 0.05146 0.0
H1843 H 0.14354 0.49913 0.05507 0.0
C1844 C 0.24657 0.20445 0.818 0.0
C1845 C 0.27887 0.14803 0.81395 0.0
C1846 C 0.37105 0.21619 0.80808 0.0
C1847 C 0.33577 0.27245 0.81133 0.0
N1848 N 0.23227 0.32052 0.81619 0.0
N1849 N 0.36891 0.09962 0.80433 0.0
C1850 C 0.27143 0.26671 0.8154 0.0
C1851 C 0.34047 0.15374 0.80875 0.0
N1852 N 0.19163 0.19933 0.82427 0.0
N1853 N 0.43351 0.22269 0.80438 0.0
H1854 H 0.34911 0.05307 0.80523 0.0
H1855 H 0.41032 0.10086 0.79942 0.0
H1856 H 0.45585 0.26799 0.80341 0.0
H1857 H 0.46427 0.18354 0.80278 0.0
H1858 H 0.17151 0.23874 0.82845 0.0
H1859 H 0.16927 0.15557 0.82628 0.0
H1860 H 0.18257 0.31793 0.81787 0.0
H1861 H 0.24715 0.36719 0.81395 0.0
C1862 C 0.52969 0.49671 0.56802 0.0
C1863 C 0.58782 0.52745 0.56434 0.0
C1864 C 0.52482 0.62504 0.55945 0.0
C1865 C 0.46661 0.59126 0.56213 0.0
N1866 N 0.41296 0.4893 0.56614 0.0
N1867 N 0.64088 0.618 0.55553 0.0
C1868 C 0.46888 0.5255 0.56561 0.0
C1869 C 0.58545 0.59089 0.55972 0.0
N1870 N 0.53192 0.43975 0.57382 0.0
N1871 N 0.52214 0.68973 0.55685 0.0
H1872 H 0.68624 0.59529 0.55609 0.0
H1873 H 0.64142 0.6611 0.55104 0.0
H1874 H 0.47832 0.71535 0.55637 0.0
H1875 H 0.56321 0.71889 0.55584 0.0
H1876 H 0.49157 0.42036 0.57784 0.0
H1877 H 0.5744 0.41396 0.57541 0.0
H1878 H 0.41256 0.43937 0.56763 0.0
H1879 H 0.36731 0.50729 0.56395 0.0
C1880 C 0.18813 0.2737 0.20764 0.0
C1881 C 0.1576 0.30069 0.19826 0.0
C1882 C 0.13992 0.18963 0.19118 0.0
C1883 C 0.17539 0.16475 0.20023 0.0
N1884 N 0.19285 0.17982 0.21949 0.0
N1885 N 0.08934 0.28388 0.18248 0.0
C1886 C 0.18525 0.2058 0.20933 0.0
C1887 C 0.12828 0.25835 0.19045 0.0
N1888 N 0.22498 0.31131 0.21446 0.0
N1889 N 0.1171 0.14724 0.18349 0.0
H1890 H 0.07777 0.33333 0.18212 0.0
H1891 H 0.06546 0.25626 0.17659 0.0
H1892 H 0.11809 0.09692 0.18475 0.0
H1893 H 0.09654 0.16117 0.17608 0.0
H1894 H 0.25189 0.29164 0.22089 0.0
H1895 H 0.23519 0.36018 0.21293 0.0
H1896 H 0.19695 0.2085 0.2265 0.0
H1897 H 0.1863 0.13007 0.2209 0.0
C1898 C 0.57818 0.43857 0.94904 0.0
C1899 C 0.58183 0.50018 0.94385 0.0
C1900 C 0.46318 0.50079 0.94145 0.0
C1901 C 0.46027 0.43606 0.94541 0.0
N1902 N 0.51413 0.34124 0.95257 0.0
N1903 N 0.52838 0.58693 0.93382 0.0
C1904 C 0.51761 0.40437 0.94914 0.0
C1905 C 0.5246 0.53013 0.93962 0.0
N1906 N 0.63239 0.41324 0.95394 0.0
N1907 N 0.4071 0.53585 0.94002 0.0
H1908 H 0.57074 0.61414 0.93294 0.0
H1909 H 0.48995 0.60454 0.92912 0.0
H1910 H 0.36085 0.51722 0.94164 0.0
H1911 H 0.40654 0.58563 0.93835 0.0
H1912 H 0.63183 0.372 0.95889 0.0
H1913 H 0.67785 0.4359 0.95356 0.0
H1914 H 0.55473 0.313 0.95442 0.0
H1915 H 0.47016 0.31604 0.95301 0.0
C1916 C 0.32003 0.72775 0.70665 0.0
C1917 C 0.35534 0.70183 0.69768 0.0
C1918 C 0.37076 0.8133 0.69062 0.0
C1919 C 0.33172 0.83711 0.69934 0.0
N1920 N 0.30834 0.82102 0.71846 0.0
N1921 N 0.42862 0.7211 0.68261 0.0
C1922 C 0.32006 0.79566 0.70835 0.0
C1923 C 0.38567 0.74514 0.69012 0.0
N1924 N 0.28155 0.68893 0.71301 0.0
N1925 N 0.39363 0.85607 0.68299 0.0
H1926 H 0.44193 0.67206 0.68236 0.0
H1927 H 0.45407 0.74977 0.67706 0.0
H1928 H 0.39014 0.9064 0.68411 0.0
H1929 H 0.41626 0.84237 0.67574 0.0
H1930 H 0.2513 0.70771 0.71909 0.0
H1931 H 0.27359 0.63979 0.71133 0.0
H1932 H 0.30249 0.79183 0.72537 0.0
H1933 H 0.3135 0.87075 0.72003 0.0
C1934 C 0.97025 0.47419 0.44692 0.0
C1935 C 0.91024 0.50856 0.44746 0.0
C1936 C 0.96945 0.61234 0.44836 0.0
C1937 C 0.02908 0.57732 0.44797 0.0
N1938 N 0.08643 0.47544 0.45006 0.0
N1939 N 0.85114 0.60831 0.45021 0.0
C1940 C 0.02946 0.50838 0.44825 0.0
C1941 C 0.90931 0.57724 0.44867 0.0
N1942 N 0.97091 0.40887 0.44472 0.0
N1943 N 0.9707 0.67888 0.4483 0.0
H1944 H 0.80674 0.58351 0.45023 0.0
H1945 H 0.84668 0.6576 0.45204 0.0
H1946 H 0.0141 0.7053 0.44856 0.0
H1947 H 0.92942 0.70802 0.44769 0.0
H1948 H 0.01311 0.38308 0.44283 0.0
H1949 H 0.92882 0.38121 0.44383 0.0
H1950 H 0.08857 0.42556 0.45159 0.0
H1951 H 0.13117 0.49857 0.45114 0.0
C1952 C 0.35772 0.94553 0.26019 0.0
C1953 C 0.3062 0.9717 0.26657 0.0
C1954 C 0.25911 0.02115 0.25008 0.0
C1955 C 0.31257 0.99779 0.24382 0.0
N1956 N 0.4219 0.9543 0.24369 0.0
N1957 N 0.21779 0.04866 0.26807 0.0
C1958 C 0.36491 0.96543 0.24912 0.0
C1959 C 0.25954 0.01352 0.26166 0.0
N1960 N 0.39784 0.89894 0.26449 0.0
N1961 N 0.20793 0.05104 0.245 0.0
H1962 H 0.21839 0.04659 0.27659 0.0
H1963 H 0.18721 0.0849 0.26504 0.0
H1964 H 0.20799 0.06244 0.2367 0.0
H1965 H 0.16409 0.06152 0.24891 0.0
H1966 H 0.43158 0.87312 0.25983 0.0
H1967 H 0.39304 0.88111 0.27243 0.0
H1968 H 0.46359 0.93624 0.24748 0.0
H1969 H 0.43005 0.97014 0.23574 0.0
C1970 C 0.21558 0.10615 0.50985 0.0
C1971 C 0.23945 0.05002 0.51537 0.0
C1972 C 0.24381 0.99122 0.49789 0.0
C1973 C 0.21197 0.04431 0.49276 0.0
N1974 N 0.15608 0.1473 0.49423 0.0
N1975 N 0.27308 0.93708 0.51475 0.0
C1976 C 0.19489 0.10053 0.49883 0.0
C1977 C 0.25222 0.99179 0.50943 0.0
N1978 N 0.21321 0.16518 0.51498 0.0
N1979 N 0.26905 0.94182 0.49169 0.0
H1980 H 0.28607 0.93666 0.52297 0.0
H1981 H 0.27451 0.89118 0.51113 0.0
H1982 H 0.26524 0.94037 0.48319 0.0
H1983 H 0.29898 0.90536 0.49481 0.0
H1984 H 0.20281 0.20858 0.51093 0.0
H1985 H 0.22813 0.17243 0.52299 0.0
H1986 H 0.13589 0.18565 0.49867 0.0
H1987 H 0.13841 0.14436 0.48626 0.0
C1988 C 0.16997 0.94816 0.74823 0.0
C1989 C 0.19918 0.99731 0.74172 0.0
C1990 C 0.21912 0.06269 0.7582 0.0
C1991 C 0.18581 0.01521 0.76457 0.0
N1992 N 0.11235 0.92277 0.76485 0.0
N1993 N 0.23977 0.10736 0.74017 0.0
C1994 C 0.15558 0.96125 0.75935 0.0
C1995 C 0.22072 0.0563 0.74661 0.0
N1996 N 0.15916 0.88745 0.74398 0.0
N1997 N 0.24866 0.11438 0.76322 0.0
H1998 H 0.24079 0.10508 0.73167 0.0
H1999 H 0.24911 0.15391 0.74317 0.0
H2000 H 0.24295 0.12474 0.77151 0.0
H2001 H 0.28097 0.14554 0.75924 0.0
H2002 H 0.14452 0.84789 0.74872 0.0
H2003 H 0.17185 0.87447 0.73602 0.0
H2004 H 0.08477 0.88668 0.76104 0.0
H2005 H 0.09778 0.93163 0.77283 0.0
C2006 C 0.28063 0.88163 0.01048 0.0
C2007 C 0.24372 0.93064 0.0159 0.0
C2008 C 0.22382 0.98351 0.99812 0.0
C2009 C 0.26936 0.94068 0.99313 0.0
N2010 N 0.35021 0.85617 0.99509 0.0
N2011 N 0.17879 0.02858 0.01481 0.0
C2012 C 0.30003 0.89152 0.99944 0.0
C2013 C 0.21518 0.98187 0.00969 0.0
N2014 N 0.29626 0.82485 0.01568 0.0
N2015 N 0.18624 0.0234 0.99176 0.0
H2016 H 0.16423 0.02501 0.02295 0.0
H2017 H 0.16478 0.07198 0.01108 0.0
H2018 H 0.1899 0.02513 0.98327 0.0
H2019 H 0.14727 0.05051 0.99476 0.0
H2020 H 0.3178 0.78547 0.0117 0.0
H2021 H 0.28064 0.81329 0.02351 0.0
H2022 H 0.37916 0.82486 0.99971 0.0
H2023 H 0.36761 0.86316 0.98717 0.0
C2024 C 0.7082 0.02537 0.74796 0.0
C2025 C 0.65697 0.99742 0.74169 0.0
C2026 C 0.61333 0.94561 0.75832 0.0
C2027 C 0.66364 0.97471 0.76463 0.0
N2028 N 0.7504 0.05363 0.76588 0.0
N2029 N 0.55169 0.94484 0.74144 0.0
C2030 C 0.70874 0.01776 0.75956 0.0
C2031 C 0.60647 0.96228 0.74705 0.0
N2032 N 0.75659 0.05944 0.74282 0.0
N2033 N 0.57443 0.89886 0.76289 0.0
H2034 H 0.54451 0.95585 0.73324 0.0
H2035 H 0.51045 0.92535 0.74517 0.0
H2036 H 0.57848 0.88404 0.77101 0.0
H2037 H 0.54216 0.87028 0.7584 0.0
H2038 H 0.8 0.07287 0.74659 0.0
H2039 H 0.75453 0.07236 0.73458 0.0
H2040 H 0.77936 0.09119 0.76286 0.0
H2041 H 0.75215 0.04995 0.77436 0.0
C2042 C 0.7698 0.98933 0.49383 0.0
C2043 C 0.72664 0.94318 0.48909 0.0
C2044 C 0.71897 0.88707 0.50679 0.0
C2045 C 0.75254 0.93938 0.5119 0.0
N2046 N 0.80931 0.04192 0.51028 0.0
N2047 N 0.65208 0.85327 0.49151 0.0
C2048 C 0.77765 0.99108 0.50541 0.0
C2049 C 0.69943 0.89304 0.49566 0.0
N2050 N 0.80578 0.02942 0.48725 0.0
N2051 N 0.70621 0.83127 0.51246 0.0
H2052 H 0.63461 0.8571 0.48354 0.0
H2053 H 0.62545 0.82077 0.4963 0.0
H2054 H 0.72167 0.82407 0.52045 0.0
H2055 H 0.68721 0.78942 0.50885 0.0
H2056 H 0.84281 0.05953 0.49013 0.0
H2057 H 0.80344 0.02779 0.47873 0.0
H2058 H 0.82114 0.08492 0.50622 0.0
H2059 H 0.82109 0.04242 0.51857 0.0
C2060 C 0.86683 0.93755 0.2576 0.0
C2061 C 0.83396 0.99161 0.26236 0.0
C2062 C 0.80627 0.03296 0.24408 0.0
C2063 C 0.83754 0.97804 0.23933 0.0
N2064 N 0.88892 0.87315 0.24136 0.0
N2065 N 0.78842 0.09914 0.26022 0.0
C2066 C 0.86635 0.92944 0.24603 0.0
C2067 C 0.80769 0.04146 0.25562 0.0
N2068 N 0.89961 0.89451 0.26411 0.0
N2069 N 0.77386 0.07646 0.23757 0.0
H2070 H 0.79154 0.10862 0.26858 0.0
H2071 H 0.77563 0.1403 0.25574 0.0
H2072 H 0.77431 0.07446 0.22907 0.0
H2073 H 0.74276 0.11231 0.24056 0.0
H2074 H 0.93134 0.85907 0.26118 0.0
H2075 H 0.89922 0.8969 0.27258 0.0
H2076 H 0.90322 0.83222 0.24576 0.0
H2077 H 0.88854 0.86472 0.23295 0.0
C2078 C 0.6945 0.09866 0.00803 0.0
C2079 C 0.72996 0.05217 0.01419 0.0
C2080 C 0.7893 0.01839 0.9977 0.0
C2081 C 0.75262 0.06406 0.99148 0.0
N2082 N 0.68512 0.16113 0.9914 0.0
N2083 N 0.80856 0.96511 0.01516 0.0
C2084 C 0.70974 0.10834 0.99682 0.0
C2085 C 0.77673 0.01122 0.00909 0.0
N2086 N 0.64316 0.13079 0.01273 0.0
N2087 N 0.83957 0.98559 0.99281 0.0
H2088 H 0.80387 0.96119 0.02361 0.0
H2089 H 0.83738 0.92839 0.01186 0.0
H2090 H 0.85315 0.99318 0.98469 0.0
H2091 H 0.87203 0.95533 0.99689 0.0
H2092 H 0.61003 0.15889 0.00833 0.0
H2093 H 0.62928 0.12431 0.02085 0.0
H2094 H 0.66012 0.19876 0.99527 0.0
H2095 H 0.69533 0.17213 0.98331 0.0
C2096 C 0.79687 0.52234 0.76083 0.0
C2097 C 0.84253 0.47861 0.76552 0.0
C2098 C 0.898 0.46729 0.74784 0.0
C2099 C 0.84797 0.50514 0.74289 0.0
N2100 N 0.76414 0.58595 0.74503 0.0
N2101 N 0.93265 0.40423 0.76357 0.0
C2102 C 0.80121 0.53744 0.74951 0.0
C2103 C 0.89265 0.45042 0.75909 0.0
N2104 N 0.74861 0.54838 0.7672 0.0
N2105 N 0.95178 0.44934 0.74198 0.0
H2106 H 0.93064 0.3906 0.77178 0.0
H2107 H 0.96431 0.37533 0.75903 0.0
H2108 H 0.95972 0.46276 0.73391 0.0
H2109 H 0.99264 0.42756 0.74544 0.0
H2110 H 0.70886 0.57393 0.76413 0.0
H2111 H 0.74638 0.54197 0.77565 0.0
H2112 H 0.73252 0.61559 0.74943 0.0
H2113 H 0.77017 0.6014 0.73698 0.0
C2114 C 0.72056 0.65546 0.00845 0.0
C2115 C 0.75447 0.60369 0.01367 0.0
C2116 C 0.77827 0.55583 0.99563 0.0
C2117 C 0.73624 0.60206 0.99062 0.0
N2118 N 0.66001 0.69088 0.99252 0.0
N2119 N 0.81625 0.50403 0.01228 0.0
C2120 C 0.70596 0.65103 0.99708 0.0
C2121 C 0.78349 0.55372 0.00725 0.0
N2122 N 0.70227 0.70909 0.0143 0.0
N2123 N 0.8154 0.51562 0.98925 0.0
H2124 H 0.82721 0.50405 0.0206 0.0
H2125 H 0.8304 0.46149 0.0083 0.0
H2126 H 0.81359 0.51602 0.98074 0.0
H2127 H 0.85224 0.48587 0.99229 0.0
H2128 H 0.68366 0.75119 0.01072 0.0
H2129 H 0.71171 0.71444 0.02259 0.0
H2130 H 0.63067 0.72217 0.99706 0.0
H2131 H 0.64658 0.68854 0.98431 0.0
C2132 C 0.70311 0.55814 0.24841 0.0
C2133 C 0.66723 0.50756 0.24319 0.0
C2134 C 0.60939 0.48698 0.26044 0.0
C2135 C 0.65362 0.52841 0.26606 0.0
N2136 N 0.7415 0.60634 0.26532 0.0
N2137 N 0.59461 0.41535 0.24497 0.0
C2138 C 0.7002 0.5648 0.25999 0.0
C2139 C 0.6222 0.47001 0.24937 0.0
N2140 N 0.73786 0.60167 0.24227 0.0
N2141 N 0.55458 0.46431 0.26549 0.0
H2142 H 0.60507 0.39854 0.23713 0.0
H2143 H 0.56707 0.38251 0.24954 0.0
H2144 H 0.54074 0.47818 0.27332 0.0
H2145 H 0.51831 0.4386 0.26137 0.0
H2146 H 0.75894 0.64373 0.24545 0.0
H2147 H 0.74093 0.59932 0.23379 0.0
H2148 H 0.78261 0.62679 0.26169 0.0
H2149 H 0.7358 0.61884 0.27353 0.0
C2150 C 0.78054 0.46689 0.49891 0.0
C2151 C 0.74662 0.41643 0.4933 0.0
C2152 C 0.69349 0.38421 0.51042 0.0
C2153 C 0.72971 0.43216 0.51612 0.0
N2154 N 0.816 0.51188 0.51627 0.0
N2155 N 0.68561 0.31549 0.49449 0.0
C2156 C 0.77537 0.4718 0.51049 0.0
C2157 C 0.70787 0.37136 0.49928 0.0
N2158 N 0.81865 0.50959 0.49317 0.0
N2159 N 0.64291 0.353 0.51549 0.0
H2160 H 0.69628 0.30218 0.48651 0.0
H2161 H 0.66289 0.27826 0.49886 0.0
H2162 H 0.62928 0.36227 0.52355 0.0
H2163 H 0.61007 0.32309 0.51137 0.0
H2164 H 0.83682 0.55274 0.49645 0.0
H2165 H 0.83077 0.50296 0.48497 0.0
H2166 H 0.85542 0.53636 0.51283 0.0
H2167 H 0.81362 0.51706 0.52473 0.0
C2168 C 0.25159 0.53231 0.24748 0.0
C2169 C 0.19658 0.51195 0.24131 0.0
C2170 C 0.15087 0.45965 0.25762 0.0
C2171 C 0.20451 0.48236 0.26386 0.0
N2172 N 0.29633 0.55523 0.26538 0.0
N2173 N 0.08533 0.47339 0.24137 0.0
C2174 C 0.25225 0.52296 0.25898 0.0
C2175 C 0.14333 0.48131 0.24665 0.0
N2176 N 0.30331 0.56092 0.24236 0.0
N2177 N 0.10896 0.41463 0.26192 0.0
H2178 H 0.077 0.49059 0.23351 0.0
H2179 H 0.04327 0.45669 0.24524 0.0
H2180 H 0.11372 0.39581 0.2698 0.0
H2181 H 0.07335 0.39108 0.25732 0.0
H2182 H 0.34819 0.56868 0.24612 0.0
H2183 H 0.30217 0.57418 0.23417 0.0
H2184 H 0.32801 0.59068 0.2624 0.0
H2185 H 0.29688 0.55171 0.27389 0.0
C2186 C 0.19325 0.36446 0.99808 0.0
C2187 C 0.21253 0.41915 0.99179 0.0
C2188 C 0.26702 0.46679 0.00769 0.0
C2189 C 0.24407 0.41432 0.01423 0.0
N2190 N 0.20281 0.30376 0.01495 0.0
N2191 N 0.26437 0.52414 0.99035 0.0
C2192 C 0.21238 0.36019 0.00924 0.0
C2193 C 0.24863 0.47077 0.99652 0.0
N2194 N 0.15362 0.31823 0.99351 0.0
N2195 N 0.31069 0.50996 0.01202 0.0
H2196 H 0.25502 0.52724 0.98199 0.0
H2197 H 0.28326 0.5671 0.99356 0.0
H2198 H 0.32921 0.50492 0.01989 0.0
H2199 H 0.33425 0.54616 0.00757 0.0
H2200 H 0.1306 0.28157 0.99794 0.0
H2201 H 0.13914 0.31935 0.98534 0.0
H2202 H 0.18621 0.26066 0.01145 0.0
H2203 H 0.21802 0.29685 0.02295 0.0
C2204 C 0.28288 0.55259 0.75699 0.0
C2205 C 0.31606 0.50648 0.76362 0.0
C2206 C 0.3379 0.43934 0.74748 0.0
C2207 C 0.30927 0.48754 0.7407 0.0
N2208 N 0.26634 0.59672 0.73885 0.0
N2209 N 0.39212 0.41647 0.76451 0.0
C2210 C 0.28479 0.54604 0.74541 0.0
C2211 C 0.34916 0.45333 0.75867 0.0
N2212 N 0.2501 0.60321 0.76174 0.0
N2213 N 0.35095 0.37862 0.74343 0.0
H2214 H 0.40451 0.4265 0.77256 0.0
H2215 H 0.42158 0.38095 0.76096 0.0
H2216 H 0.34001 0.3647 0.73544 0.0
H2217 H 0.3655 0.33978 0.74834 0.0
H2218 H 0.21773 0.63301 0.7575 0.0
H2219 H 0.25298 0.61385 0.77006 0.0
H2220 H 0.25527 0.64302 0.74179 0.0
H2221 H 0.26772 0.59467 0.73036 0.0
C2222 C 0.20386 0.65093 0.50855 0.0
C2223 C 0.23567 0.60184 0.51474 0.0
C2224 C 0.28812 0.5608 0.49801 0.0
C2225 C 0.25654 0.61031 0.49182 0.0
N2226 N 0.19989 0.71386 0.49185 0.0
N2227 N 0.31757 0.51782 0.51581 0.0
C2228 C 0.2196 0.65914 0.49729 0.0
C2229 C 0.28044 0.55886 0.50959 0.0
N2230 N 0.15547 0.68727 0.51324 0.0
N2231 N 0.32603 0.51568 0.49278 0.0
H2232 H 0.31287 0.51409 0.52426 0.0
H2233 H 0.35645 0.49075 0.51279 0.0
H2234 H 0.34023 0.52033 0.48463 0.0
H2235 H 0.34225 0.47277 0.49641 0.0
H2236 H 0.12502 0.71813 0.50882 0.0
H2237 H 0.14122 0.68209 0.52137 0.0
H2238 H 0.17918 0.75392 0.49576 0.0
H2239 H 0.2104 0.72297 0.48369 0.0
C2240 C 0.45354 0.31673 0.1933 0.0
C2241 C 0.52157 0.31535 0.19511 0.0
C2242 C 0.52051 0.19583 0.19539 0.0
C2243 C 0.45175 0.19739 0.19471 0.0
N2244 N 0.35104 0.25857 0.19436 0.0
N2245 N 0.62034 0.25534 0.19889 0.0
C2246 C 0.41766 0.25763 0.19394 0.0
C2247 C 0.55531 0.25532 0.19641 0.0
N2248 N 0.42354 0.37437 0.19083 0.0
N2249 N 0.55242 0.13742 0.19481 0.0
H2250 H 0.6481 0.29777 0.19945 0.0
H2251 H 0.64611 0.2138 0.20114 0.0
H2252 H 0.52803 0.09302 0.19406 0.0
H2253 H 0.60278 0.13304 0.19413 0.0
H2254 H 0.37534 0.37773 0.18824 0.0
H2255 H 0.44841 0.41871 0.19058 0.0
H2256 H 0.32377 0.30109 0.19514 0.0
H2257 H 0.32265 0.21651 0.19474 0.0
C2258 C 0.01088 0.21081 0.4573 0.0
C2259 C 0.05095 0.21858 0.44789 0.0
C2260 C 0.95339 0.23716 0.4368 0.0
C2261 C 0.91355 0.23274 0.44621 0.0
N2262 N 0.90267 0.18727 0.46422 0.0
N2263 N 0.05894 0.26892 0.43009 0.0
C2264 C 0.94186 0.21112 0.45614 0.0
C2265 C 0.02185 0.24029 0.43801 0.0
N2266 N 0.03847 0.20897 0.46744 0.0
N2267 N 0.92613 0.23503 0.42664 0.0
H2268 H 0.10776 0.2809 0.43136 0.0
H2269 H 0.03894 0.28968 0.42307 0.0
H2270 H 0.87677 0.22488 0.42549 0.0
H2271 H 0.95384 0.23372 0.41949 0.0
H2272 H 0.0114 0.20802 0.47464 0.0
H2273 H 0.08785 0.21833 0.46869 0.0
H2274 H 0.92056 0.16539 0.47129 0.0
H2275 H 0.85259 0.18147 0.46309 0.0
C2276 C 0.05425 0.68408 0.69192 0.0
C2277 C 0.98616 0.68491 0.69362 0.0
C2278 C 0.98613 0.80426 0.69421 0.0
C2279 C 0.05496 0.80309 0.6937 0.0
N2280 N 0.15621 0.74268 0.69342 0.0
N2281 N 0.88637 0.74372 0.69722 0.0
C2282 C 0.08962 0.74325 0.69283 0.0
C2283 C 0.95171 0.74448 0.69496 0.0
N2284 N 0.08479 0.62689 0.68934 0.0
N2285 N 0.95387 0.86249 0.69368 0.0
H2286 H 0.85875 0.70108 0.69747 0.0
H2287 H 0.86001 0.78479 0.69954 0.0
H2288 H 0.97797 0.90715 0.69314 0.0
H2289 H 0.90356 0.86656 0.69287 0.0
H2290 H 0.13322 0.62408 0.68684 0.0
H2291 H 0.06015 0.58249 0.68886 0.0
H2292 H 0.18375 0.70026 0.69405 0.0
H2293 H 0.18425 0.78481 0.69413 0.0
C2294 C 0.46742 0.7646 0.93605 0.0
C2295 C 0.44753 0.80163 0.94523 0.0
C2296 C 0.56238 0.81493 0.95059 0.0
C2297 C 0.58103 0.77537 0.94163 0.0
N2298 N 0.55358 0.7494 0.92291 0.0
N2299 N 0.47896 0.88227 0.95879 0.0
C2300 C 0.53439 0.76157 0.9334 0.0
C2301 C 0.49572 0.8327 0.95187 0.0
N2302 N 0.42253 0.73202 0.92988 0.0
N2303 N 0.6087 0.83682 0.95771 0.0
H2304 H 0.43161 0.89921 0.95977 0.0
H2305 H 0.51293 0.9113 0.96282 0.0
H2306 H 0.65841 0.83316 0.956 0.0
H2307 H 0.59786 0.85773 0.96525 0.0
H2308 H 0.43535 0.70146 0.92342 0.0
H2309 H 0.3731 0.73058 0.93186 0.0
H2310 H 0.52073 0.74267 0.91652 0.0
H2311 H 0.60139 0.75684 0.92033 0.0
C2312 C 0.40701 0.73943 0.30857 0.0
C2313 C 0.43582 0.78918 0.31512 0.0
C2314 C 0.48991 0.70501 0.32595 0.0
C2315 C 0.47604 0.65834 0.31769 0.0
N2316 N 0.41083 0.62735 0.30223 0.0
N2317 N 0.50786 0.81912 0.32986 0.0
C2318 C 0.43098 0.6745 0.30934 0.0
C2319 C 0.47798 0.77186 0.3238 0.0
N2320 N 0.35463 0.75328 0.30207 0.0
N2321 N 0.51123 0.68575 0.33601 0.0
H2322 H 0.50133 0.86878 0.3284 0.0
H2323 H 0.54377 0.80895 0.33564 0.0
H2324 H 0.51111 0.63719 0.33848 0.0
H2325 H 0.51843 0.7181 0.34246 0.0
H2326 H 0.32721 0.71785 0.29808 0.0
H2327 H 0.33429 0.79955 0.30142 0.0
H2328 H 0.38531 0.63702 0.29505 0.0
H2329 H 0.42102 0.57808 0.3035 0.0
C2330 C 0.51745 0.2869 0.55849 0.0
C2331 C 0.5755 0.25478 0.56189 0.0
C2332 C 0.51436 0.15379 0.56467 0.0
C2333 C 0.45556 0.1877 0.56229 0.0
N2334 N 0.39934 0.28841 0.55875 0.0
N2335 N 0.62848 0.16098 0.5697 0.0
C2336 C 0.45665 0.25484 0.5597 0.0
C2337 C 0.57367 0.18928 0.5655 0.0
N2338 N 0.52031 0.34785 0.55399 0.0
N2339 N 0.5144 0.08731 0.56546 0.0
H2340 H 0.67339 0.18475 0.56999 0.0
H2341 H 0.62832 0.11577 0.57358 0.0
H2342 H 0.47248 0.05897 0.56472 0.0
H2343 H 0.55692 0.05973 0.56581 0.0
H2344 H 0.48093 0.37029 0.55017 0.0
H2345 H 0.56309 0.37483 0.55336 0.0
H2346 H 0.39663 0.33873 0.55784 0.0
H2347 H 0.35386 0.26667 0.55986 0.0
C2348 C 0.01919 0.27716 0.82156 0.0
C2349 C 0.00401 0.30913 0.81162 0.0
C2350 C 0.99899 0.20305 0.80241 0.0
C2351 C 0.01367 0.17098 0.81238 0.0
N2352 N 0.0078 0.17828 0.83206 0.0
N2353 N 0.00974 0.30229 0.79196 0.0
C2354 C 0.01528 0.20822 0.82217 0.0
C2355 C 0.00269 0.27204 0.80183 0.0
N2356 N 0.04105 0.31256 0.83026 0.0
N2357 N 0.97711 0.16783 0.7937 0.0
H2358 H 0.02163 0.35159 0.79135 0.0
H2359 H 0.01365 0.27697 0.78461 0.0
H2360 H 0.96673 0.11817 0.79431 0.0
H2361 H 0.96057 0.1893 0.78649 0.0
H2362 H 0.05787 0.29123 0.83746 0.0
H2363 H 0.0508 0.36235 0.82963 0.0
H2364 H 0.00414 0.20387 0.83939 0.0
H2365 H 0.99512 0.12921 0.83272 0.0
C2366 C 0.02834 0.74665 0.07173 0.0
C2367 C 0.04483 0.79377 0.06374 0.0
C2368 C 0.92894 0.80433 0.05883 0.0
C2369 C 0.91358 0.75431 0.06642 0.0
N2370 N 0.94411 0.70716 0.0838 0.0
N2371 N 0.0086 0.88153 0.05198 0.0
C2372 C 0.96175 0.73434 0.07405 0.0
C2373 C 0.99446 0.82684 0.05792 0.0
N2374 N 0.07619 0.71245 0.07695 0.0
N2375 N 0.88034 0.83067 0.05262 0.0
H2376 H 0.05543 0.90035 0.05119 0.0
H2377 H 0.97348 0.91167 0.04852 0.0
H2378 H 0.83123 0.82158 0.05425 0.0
H2379 H 0.88835 0.86057 0.04588 0.0
H2380 H 0.06645 0.67286 0.08203 0.0
H2381 H 0.12564 0.71953 0.07536 0.0
H2382 H 0.97761 0.6953 0.08988 0.0
H2383 H 0.89605 0.7067 0.08654 0.0
C2384 C 0.4483 0.80114 0.80505 0.0
C2385 C 0.48908 0.81947 0.8139 0.0
C2386 C 0.49312 0.70617 0.82008 0.0
C2387 C 0.45308 0.68696 0.81125 0.0
N2388 N 0.37413 0.72083 0.79763 0.0
N2389 N 0.51562 0.79307 0.8327 0.0
C2390 C 0.42535 0.73567 0.80432 0.0
C2391 C 0.50099 0.77331 0.82234 0.0
N2392 N 0.42992 0.84674 0.79754 0.0
N2393 N 0.52424 0.6605 0.8263 0.0
H2394 H 0.51037 0.84122 0.83523 0.0
H2395 H 0.52138 0.76055 0.83918 0.0
H2396 H 0.52114 0.61064 0.82471 0.0
H2397 H 0.5584 0.67282 0.83226 0.0
H2398 H 0.40827 0.83503 0.79009 0.0
H2399 H 0.43725 0.89652 0.79878 0.0
H2400 H 0.34752 0.75581 0.79338 0.0
H2401 H 0.35354 0.67462 0.79711 0.0
C2402 C 0.07516 0.82301 0.55468 0.0
C2403 C 0.09096 0.7842 0.56386 0.0
C2404 C 0.97943 0.79315 0.5707 0.0
C2405 C 0.9613 0.82718 0.5611 0.0
N2406 N 0.99341 0.88264 0.54445 0.0
N2407 N 0.0674 0.7687 0.58306 0.0
C2408 C 0.00974 0.84488 0.55324 0.0
C2409 C 0.04608 0.78013 0.57267 0.0
N2410 N 0.12434 0.84324 0.54794 0.0
N2411 N 0.93292 0.7707 0.57776 0.0
H2412 H 0.11661 0.76996 0.58515 0.0
H2413 H 0.0366 0.76933 0.58984 0.0
H2414 H 0.88313 0.7771 0.57644 0.0
H2415 H 0.94364 0.73983 0.58428 0.0
H2416 H 0.11854 0.87476 0.54136 0.0
H2417 H 0.17312 0.83299 0.54964 0.0
H2418 H 0.02252 0.88793 0.53755 0.0
H2419 H 0.95008 0.9088 0.54392 0.0
C2420 C 0.08708 0.24011 0.31543 0.0
C2421 C 0.05936 0.29024 0.30882 0.0
C2422 C 0.00411 0.20683 0.298 0.0
C2423 C 0.01714 0.15989 0.30627 0.0
N2424 N 0.08068 0.12851 0.32192 0.0
N2425 N 0.98761 0.32119 0.29411 0.0
C2426 C 0.06188 0.17562 0.3147 0.0
C2427 C 0.01693 0.27351 0.30016 0.0
N2428 N 0.1397 0.25307 0.32193 0.0
N2429 N 0.98276 0.18803 0.28791 0.0
H2430 H 0.99478 0.37074 0.29559 0.0
H2431 H 0.95145 0.3115 0.28836 0.0
H2432 H 0.98232 0.1396 0.2854 0.0
H2433 H 0.97615 0.22062 0.28148 0.0
H2434 H 0.16632 0.21717 0.32595 0.0
H2435 H 0.1611 0.2989 0.32251 0.0
H2436 H 0.1057 0.13823 0.32915 0.0
H2437 H 0.06985 0.07933 0.32071 0.0
C2438 C 0.55767 0.27598 0.06912 0.0
C2439 C 0.58204 0.24997 0.0592 0.0
C2440 C 0.47165 0.24814 0.05174 0.0
C2441 C 0.44688 0.27428 0.06164 0.0
N2442 N 0.46462 0.28444 0.08109 0.0
N2443 N 0.56466 0.24223 0.03974 0.0
C2444 C 0.48937 0.2805 0.07075 0.0
C2445 C 0.53981 0.2452 0.05008 0.0
N2446 N 0.60013 0.29918 0.07677 0.0
N2447 N 0.43021 0.22159 0.04424 0.0
H2448 H 0.6141 0.24922 0.03815 0.0
H2449 H 0.53546 0.24309 0.03278 0.0
H2450 H 0.38066 0.21539 0.04585 0.0
H2451 H 0.44641 0.19738 0.03726 0.0
H2452 H 0.58519 0.32372 0.08379 0.0
H2453 H 0.65021 0.30128 0.07531 0.0
H2454 H 0.49372 0.28441 0.08807 0.0
H2455 H 0.41535 0.27707 0.08276 0.0
C2456 C 0.51076 0.20804 0.68168 0.0
C2457 C 0.4952 0.15809 0.68933 0.0
C2458 C 0.41636 0.23149 0.69811 0.0
C2459 C 0.44145 0.28439 0.69182 0.0
N2460 N 0.51625 0.32415 0.67818 0.0
N2461 N 0.41509 0.11457 0.70156 0.0
C2462 C 0.48919 0.27285 0.68368 0.0
C2463 C 0.44262 0.16775 0.69665 0.0
N2464 N 0.542 0.19327 0.67214 0.0
N2465 N 0.36811 0.24232 0.7056 0.0
H2466 H 0.43071 0.06722 0.69985 0.0
H2467 H 0.37321 0.11596 0.70634 0.0
H2468 H 0.34192 0.28571 0.70607 0.0
H2469 H 0.35547 0.20911 0.71165 0.0
H2470 H 0.5508 0.22732 0.666 0.0
H2471 H 0.5492 0.14567 0.66947 0.0
H2472 H 0.55689 0.31953 0.67313 0.0
H2473 H 0.502 0.37236 0.67944 0.0
C2474 C 0.41997 0.82166 0.44746 0.0
C2475 C 0.40295 0.77478 0.43943 0.0
C2476 C 0.51533 0.77281 0.43278 0.0
C2477 C 0.53385 0.81632 0.4412 0.0
N2478 N 0.50002 0.89884 0.45417 0.0
N2479 N 0.42738 0.73893 0.42103 0.0
C2480 C 0.48506 0.84578 0.44788 0.0
C2481 C 0.4483 0.76044 0.43099 0.0
N2482 N 0.37344 0.84381 0.45452 0.0
N2483 N 0.56159 0.742 0.42664 0.0
H2484 H 0.37836 0.73931 0.41882 0.0
H2485 H 0.45875 0.73145 0.41445 0.0
H2486 H 0.61144 0.74892 0.42783 0.0
H2487 H 0.55034 0.70501 0.42111 0.0
H2488 H 0.38365 0.87078 0.46152 0.0
H2489 H 0.32397 0.83445 0.4533 0.0
H2490 H 0.46543 0.92661 0.45829 0.0
H2491 H 0.54641 0.9192 0.45452 0.0
C2492 C 0.00864 0.79152 0.18082 0.0
C2493 C 0.02473 0.84253 0.18823 0.0
C2494 C 0.10701 0.77185 0.19669 0.0
C2495 C 0.0805 0.71768 0.1909 0.0
N2496 N 0.00376 0.67494 0.17784 0.0
N2497 N 0.10471 0.88901 0.20014 0.0
C2498 C 0.03118 0.72733 0.18298 0.0
C2499 C 0.07876 0.83483 0.1953 0.0
N2500 N 0.97546 0.80459 0.1714 0.0
N2501 N 0.1587 0.76271 0.20358 0.0
H2502 H 0.08735 0.93574 0.19843 0.0
H2503 H 0.14588 0.88929 0.20508 0.0
H2504 H 0.18466 0.71916 0.20403 0.0
H2505 H 0.17577 0.79764 0.209 0.0
H2506 H 0.96616 0.76961 0.16544 0.0
H2507 H 0.96674 0.8517 0.16863 0.0
H2508 H 0.96219 0.67837 0.17299 0.0
H2509 H 0.01902 0.62711 0.17918 0.0
C2510 C 0.96513 0.24571 0.93508 0.0
C2511 C 0.93034 0.23857 0.94504 0.0
C2512 C 0.0338 0.24691 0.95506 0.0
C2513 C 0.06843 0.25359 0.94507 0.0
N2514 N 0.06754 0.22834 0.92583 0.0
N2515 N 0.93091 0.26179 0.96435 0.0
C2516 C 0.03425 0.24388 0.93513 0.0
C2517 C 0.96449 0.24748 0.95503 0.0
N2518 N 0.93237 0.25929 0.92566 0.0
N2519 N 0.06709 0.23543 0.96452 0.0
H2520 H 0.88096 0.27121 0.96429 0.0
H2521 H 0.95364 0.27392 0.97169 0.0
H2522 H 0.11719 0.22678 0.96458 0.0
H2523 H 0.04417 0.22518 0.97193 0.0
H2524 H 0.95584 0.26955 0.9183 0.0
H2525 H 0.8827 0.2701 0.92565 0.0
H2526 H 0.04438 0.21593 0.91854 0.0
H2527 H 0.11738 0.2183 0.9259 0.0
loop_
_geom_bond_atom_site_label_1
_geom_bond_atom_site_label_2
_geom_bond_distance
_geom_bond_site_symmetry_2
_ccdc_geom_bond_type
Co0 O3 1.970 . S
Co0 N17 1.989 1_545 S
Co0 O25 1.967 . S
Co0 O32 1.920 . S
Co1 O4 1.966 . S
Co1 N10 2.022 . S
Co1 N18 1.993 1_545 S
Co1 O26 1.941 . S
C2 O3 1.258 . S
C2 O4 1.263 . S
O3 Co0 1.970 . S
O3 C2 1.258 . S
O4 Co1 1.966 . S
O4 C2 1.263 . S
C5 O6 1.235 . S
C5 O32 1.289 . S
O6 C5 1.235 . S
C7 C9 1.400 . S
C7 N10 1.351 . S
C7 C12 1.501 . S
C8 C9 1.387 . S
C8 N11 1.341 . S
C9 C7 1.400 . S
C9 C8 1.387 . S
N10 Co1 2.022 . S
N10 C7 1.351 . S
N10 N11 1.365 . S
N11 C8 1.341 . S
N11 N10 1.365 . S
N11 H31 0.862 . S
C12 C7 1.501 . S
C12 H13 0.961 . S
C12 H14 0.961 . S
C12 H15 0.960 . S
H13 C12 0.961 . S
H14 C12 0.961 . S
H15 C12 0.960 . S
C16 N17 1.342 . S
C16 C20 1.401 . S
C16 C21 1.499 . S
N17 Co0 1.989 1_565 S
N17 C16 1.342 . S
N17 N18 1.388 . S
N18 Co1 1.993 1_565 S
N18 N17 1.388 . S
N18 C19 1.346 . S
C19 N18 1.346 . S
C19 C20 1.396 . S
C19 C29 1.510 . S
C20 C16 1.401 . S
C20 C19 1.396 . S
C21 C16 1.499 . S
C21 H22 0.959 . S
C21 H23 0.960 . S
C21 H24 0.961 . S
H22 C21 0.959 . S
H23 C21 0.960 . S
H24 C21 0.961 . S
O25 Co0 1.967 . S
O25 C33 1.258 . S
O26 Co1 1.941 . S
O26 C33 1.266 . S
H27 C29 0.959 . S
H28 C29 0.961 . S
C29 C19 1.510 . S
C29 H27 0.959 . S
C29 H28 0.961 . S
C29 H30 0.960 . S
H30 C29 0.960 . S
H31 N11 0.862 . S
O32 Co0 1.920 . S
O32 C5 1.289 . S
C33 O25 1.258 . S
C33 O26 1.266 . S
Co34 O37 1.970 . S
Co34 N51 1.989 . S
Co34 O59 1.967 . S
Co34 O66 1.920 . S
Co35 O38 1.966 . S
Co35 N44 2.022 . S
Co35 N52 1.993 . S
Co35 O60 1.941 . S
C36 O37 1.258 . S
C36 O38 1.263 . S
O37 Co34 1.970 . S
O37 C36 1.258 . S
O38 Co35 1.966 . S
O38 C36 1.263 . S
C39 O40 1.235 1_545 S
C39 O66 1.289 . S
O40 C39 1.235 1_565 S
C41 C43 1.400 . S
C41 N44 1.351 . S
C41 C46 1.501 1_545 S
C42 C43 1.387 . S
C42 N45 1.341 . S
C43 C41 1.400 . S
C43 C42 1.387 . S
N44 Co35 2.022 . S
N44 C41 1.351 . S
N44 N45 1.365 . S
N45 C42 1.341 . S
N45 N44 1.365 . S
N45 H65 0.862 . S
C46 C41 1.501 1_565 S
C46 H47 0.961 . S
C46 H48 0.961 . S
C46 H49 0.960 . S
H47 C46 0.961 . S
H48 C46 0.961 . S
H49 C46 0.960 . S
C50 N51 1.342 . S
C50 C54 1.401 . S
C50 C55 1.499 . S
N51 Co34 1.989 . S
N51 C50 1.342 . S
N51 N52 1.388 . S
N52 Co35 1.993 . S
N52 N51 1.388 . S
N52 C53 1.346 . S
C53 N52 1.346 . S
C53 C54 1.396 . S
C53 C63 1.510 . S
C54 C50 1.401 . S
C54 C53 1.396 . S
C55 C50 1.499 . S
C55 H56 0.959 . S
C55 H57 0.960 . S
C55 H58 0.961 . S
H56 C55 0.959 . S
H57 C55 0.960 . S
H58 C55 0.961 . S
O59 Co34 1.967 . S
O59 C67 1.258 . S
O60 Co35 1.941 . S
O60 C67 1.266 . S
H61 C63 0.959 . S
H62 C63 0.961 1_565 S
C63 C53 1.510 . S
C63 H61 0.959 . S
C63 H62 0.961 1_545 S
C63 H64 0.960 . S
H64 C63 0.960 . S
H65 N45 0.862 . S
O66 Co34 1.920 . S
O66 C39 1.289 . S
C67 O59 1.258 . S
C67 O60 1.266 . S
Co68 O71 1.970 . S
Co68 N85 1.989 1_565 S
Co68 O93 1.967 . S
Co68 O100 1.920 . S
Co69 O72 1.966 . S
Co69 N78 2.022 . S
Co69 N86 1.993 1_565 S
Co69 O94 1.941 . S
C70 O71 1.258 . S
C70 O72 1.263 . S
O71 Co68 1.970 . S
O71 C70 1.258 . S
O72 Co69 1.966 . S
O72 C70 1.263 . S
C73 O74 1.235 . S
C73 O100 1.289 . S
O74 C73 1.235 . S
C75 C77 1.400 . S
C75 N78 1.351 . S
C75 C80 1.501 . S
C76 C77 1.387 . S
C76 N79 1.341 . S
C77 C75 1.400 . S
C77 C76 1.387 . S
N78 Co69 2.022 . S
N78 C75 1.351 . S
N78 N79 1.365 . S
N79 C76 1.341 . S
N79 N78 1.365 . S
N79 H99 0.862 . S
C80 C75 1.501 . S
C80 H81 0.961 . S
C80 H82 0.961 . S
C80 H83 0.960 . S
H81 C80 0.961 . S
H82 C80 0.961 . S
H83 C80 0.960 . S
C84 N85 1.342 . S
C84 C88 1.401 . S
C84 C89 1.499 . S
N85 Co68 1.989 1_545 S
N85 C84 1.342 . S
N85 N86 1.388 . S
N86 Co69 1.993 1_545 S
N86 N85 1.388 . S
N86 C87 1.346 . S
C87 N86 1.346 . S
C87 C88 1.396 . S
C87 C97 1.510 . S
C88 C84 1.401 . S
C88 C87 1.396 . S
C89 C84 1.499 . S
C89 H90 0.959 . S
C89 H91 0.960 . S
C89 H92 0.961 . S
H90 C89 0.959 . S
H91 C89 0.960 . S
H92 C89 0.961 . S
O93 Co68 1.967 . S
O93 C101 1.258 . S
O94 Co69 1.941 . S
O94 C101 1.266 . S
H95 C97 0.959 . S
H96 C97 0.961 . S
C97 C87 1.510 . S
C97 H95 0.959 . S
C97 H96 0.961 . S
C97 H98 0.960 . S
H98 C97 0.960 . S
H99 N79 0.862 . S
O100 Co68 1.920 . S
O100 C73 1.289 . S
C101 O93 1.258 . S
C101 O94 1.266 . S
Co102 O105 1.970 . S
Co102 N119 1.989 . S
Co102 O127 1.967 . S
Co102 O134 1.920 . S
Co103 O106 1.966 . S
Co103 N112 2.022 . S
Co103 N120 1.993 . S
Co103 O128 1.941 . S
C104 O105 1.258 . S
C104 O106 1.263 . S
O105 Co102 1.970 . S
O105 C104 1.258 . S
O106 Co103 1.966 . S
O106 C104 1.263 . S
C107 O108 1.235 1_565 S
C107 O134 1.289 . S
O108 C107 1.235 1_545 S
C109 C111 1.400 . S
C109 N112 1.351 . S
C109 C114 1.501 1_565 S
C110 C111 1.387 . S
C110 N113 1.341 . S
C111 C109 1.400 . S
C111 C110 1.387 . S
N112 Co103 2.022 . S
N112 C109 1.351 . S
N112 N113 1.365 . S
N113 C110 1.341 . S
N113 N112 1.365 . S
N113 H133 0.862 . S
C114 C109 1.501 1_545 S
C114 H115 0.961 . S
C114 H116 0.961 . S
C114 H117 0.960 . S
H115 C114 0.961 . S
H116 C114 0.961 . S
H117 C114 0.960 . S
C118 N119 1.342 . S
C118 C122 1.401 . S
C118 C123 1.499 . S
N119 Co102 1.989 . S
N119 C118 1.342 . S
N119 N120 1.388 . S
N120 Co103 1.993 . S
N120 N119 1.388 . S
N120 C121 1.346 . S
C121 N120 1.346 . S
C121 C122 1.396 . S
C121 C131 1.510 . S
C122 C118 1.401 . S
C122 C121 1.396 . S
C123 C118 1.499 . S
C123 H124 0.959 . S
C123 H125 0.960 . S
C123 H126 0.961 . S
H124 C123 0.959 . S
H125 C123 0.960 . S
H126 C123 0.961 . S
O127 Co102 1.967 . S
O127 C135 1.258 . S
O128 Co103 1.941 . S
O128 C135 1.266 . S
H129 C131 0.959 . S
H130 C131 0.961 1_545 S
C131 C121 1.510 . S
C131 H129 0.959 . S
C131 H130 0.961 1_565 S
C131 H132 0.960 . S
H132 C131 0.960 . S
H133 N113 0.862 . S
O134 Co102 1.920 . S
O134 C107 1.289 . S
C135 O127 1.258 . S
C135 O128 1.266 . S
Co136 O139 1.970 . S
Co136 N153 1.989 1_565 S
Co136 O161 1.967 . S
Co136 O168 1.920 . S
Co137 O140 1.966 . S
Co137 N146 2.022 . S
Co137 N154 1.993 1_565 S
Co137 O162 1.941 . S
C138 O139 1.258 . S
C138 O140 1.263 . S
O139 Co136 1.970 . S
O139 C138 1.258 . S
O140 Co137 1.966 . S
O140 C138 1.263 . S
C141 O142 1.235 . S
C141 O168 1.289 . S
O142 C141 1.235 . S
C143 C145 1.400 . S
C143 N146 1.351 . S
C143 C148 1.501 . S
C144 C145 1.387 . S
C144 N147 1.341 . S
C145 C143 1.400 . S
C145 C144 1.387 . S
N146 Co137 2.022 . S
N146 C143 1.351 . S
N146 N147 1.365 . S
N147 C144 1.341 . S
N147 N146 1.365 . S
N147 H167 0.862 . S
C148 C143 1.501 . S
C148 H149 0.961 . S
C148 H150 0.961 . S
C148 H151 0.960 . S
H149 C148 0.961 . S
H150 C148 0.961 . S
H151 C148 0.960 . S
C152 N153 1.342 . S
C152 C156 1.401 . S
C152 C157 1.499 . S
N153 Co136 1.989 1_545 S
N153 C152 1.342 . S
N153 N154 1.388 . S
N154 Co137 1.993 1_545 S
N154 N153 1.388 . S
N154 C155 1.346 . S
C155 N154 1.346 . S
C155 C156 1.396 . S
C155 C165 1.510 . S
C156 C152 1.401 . S
C156 C155 1.396 . S
C157 C152 1.499 . S
C157 H158 0.959 . S
C157 H159 0.960 . S
C157 H160 0.961 . S
H158 C157 0.959 . S
H159 C157 0.960 . S
H160 C157 0.961 . S
O161 Co136 1.967 . S
O161 C169 1.258 . S
O162 Co137 1.941 . S
O162 C169 1.266 . S
H163 C165 0.959 . S
H164 C165 0.961 . S
C165 C155 1.510 . S
C165 H163 0.959 . S
C165 H164 0.961 . S
C165 H166 0.960 . S
H166 C165 0.960 . S
H167 N147 0.862 . S
O168 Co136 1.920 . S
O168 C141 1.289 . S
C169 O161 1.258 . S
C169 O162 1.266 . S
Co170 O173 1.970 . S
Co170 N187 1.989 . S
Co170 O195 1.967 . S
Co170 O202 1.920 . S
Co171 O174 1.966 . S
Co171 N180 2.022 . S
Co171 N188 1.993 . S
Co171 O196 1.941 . S
C172 O173 1.258 . S
C172 O174 1.263 . S
O173 Co170 1.970 . S
O173 C172 1.258 . S
O174 Co171 1.966 . S
O174 C172 1.263 . S
C175 O176 1.235 1_545 S
C175 O202 1.289 . S
O176 C175 1.235 1_565 S
C177 C179 1.400 . S
C177 N180 1.351 . S
C177 C182 1.501 1_545 S
C178 C179 1.387 . S
C178 N181 1.341 . S
C179 C177 1.400 . S
C179 C178 1.387 . S
N180 Co171 2.022 . S
N180 C177 1.351 . S
N180 N181 1.365 . S
N181 C178 1.341 . S
N181 N180 1.365 . S
N181 H201 0.862 . S
C182 C177 1.501 1_565 S
C182 H183 0.961 . S
C182 H184 0.961 . S
C182 H185 0.960 . S
H183 C182 0.961 . S
H184 C182 0.961 . S
H185 C182 0.960 . S
C186 N187 1.342 . S
C186 C190 1.401 . S
C186 C191 1.499 . S
N187 Co170 1.989 . S
N187 C186 1.342 . S
N187 N188 1.388 . S
N188 Co171 1.993 . S
N188 N187 1.388 . S
N188 C189 1.346 . S
C189 N188 1.346 . S
C189 C190 1.396 . S
C189 C199 1.510 . S
C190 C186 1.401 . S
C190 C189 1.396 . S
C191 C186 1.499 . S
C191 H192 0.959 . S
C191 H193 0.960 . S
C191 H194 0.961 . S
H192 C191 0.959 . S
H193 C191 0.960 . S
H194 C191 0.961 . S
O195 Co170 1.967 . S
O195 C203 1.258 . S
O196 Co171 1.941 . S
O196 C203 1.266 . S
H197 C199 0.959 . S
H198 C199 0.961 1_565 S
C199 C189 1.510 . S
C199 H197 0.959 . S
C199 H198 0.961 1_545 S
C199 H200 0.960 . S
H200 C199 0.960 . S
H201 N181 0.862 . S
O202 Co170 1.920 . S
O202 C175 1.289 . S
C203 O195 1.258 . S
C203 O196 1.266 . S
Co204 O207 1.970 . S
Co204 N221 1.989 1_545 S
Co204 O229 1.967 . S
Co204 O236 1.920 . S
Co205 O208 1.966 . S
Co205 N214 2.022 . S
Co205 N222 1.993 1_545 S
Co205 O230 1.941 . S
C206 O207 1.258 . S
C206 O208 1.263 . S
O207 Co204 1.970 . S
O207 C206 1.258 . S
O208 Co205 1.966 . S
O208 C206 1.263 . S
C209 O210 1.235 . S
C209 O236 1.289 . S
O210 C209 1.235 . S
C211 C213 1.400 . S
C211 N214 1.351 . S
C211 C216 1.501 . S
C212 C213 1.387 . S
C212 N215 1.341 . S
C213 C211 1.400 . S
C213 C212 1.387 . S
N214 Co205 2.022 . S
N214 C211 1.351 . S
N214 N215 1.365 . S
N215 C212 1.341 . S
N215 N214 1.365 . S
N215 H235 0.862 . S
C216 C211 1.501 . S
C216 H217 0.961 . S
C216 H218 0.961 . S
C216 H219 0.960 . S
H217 C216 0.961 . S
H218 C216 0.961 . S
H219 C216 0.960 . S
C220 N221 1.342 . S
C220 C224 1.401 . S
C220 C225 1.499 . S
N221 Co204 1.989 1_565 S
N221 C220 1.342 . S
N221 N222 1.388 . S
N222 Co205 1.993 1_565 S
N222 N221 1.388 . S
N222 C223 1.346 . S
C223 N222 1.346 . S
C223 C224 1.396 . S
C223 C233 1.510 . S
C224 C220 1.401 . S
C224 C223 1.396 . S
C225 C220 1.499 . S
C225 H226 0.959 . S
C225 H227 0.960 . S
C225 H228 0.961 . S
H226 C225 0.959 . S
H227 C225 0.960 . S
H228 C225 0.961 . S
O229 Co204 1.967 . S
O229 C237 1.258 . S
O230 Co205 1.941 . S
O230 C237 1.266 . S
H231 C233 0.959 . S
H232 C233 0.961 . S
C233 C223 1.510 . S
C233 H231 0.959 . S
C233 H232 0.961 . S
C233 H234 0.960 . S
H234 C233 0.960 . S
H235 N215 0.862 . S
O236 Co204 1.920 . S
O236 C209 1.289 . S
C237 O229 1.258 . S
C237 O230 1.266 . S
Co238 O241 1.970 . S
Co238 N255 1.989 . S
Co238 O263 1.967 . S
Co238 O270 1.920 . S
Co239 O242 1.966 . S
Co239 N248 2.022 . S
Co239 N256 1.993 . S
Co239 O264 1.941 . S
C240 O241 1.258 . S
C240 O242 1.263 . S
O241 Co238 1.970 . S
O241 C240 1.258 . S
O242 Co239 1.966 . S
O242 C240 1.263 . S
C243 O244 1.235 1_565 S
C243 O270 1.289 . S
O244 C243 1.235 1_545 S
C245 C247 1.400 . S
C245 N248 1.351 . S
C245 C250 1.501 1_565 S
C246 C247 1.387 . S
C246 N249 1.341 . S
C247 C245 1.400 . S
C247 C246 1.387 . S
N248 Co239 2.022 . S
N248 C245 1.351 . S
N248 N249 1.365 . S
N249 C246 1.341 . S
N249 N248 1.365 . S
N249 H269 0.862 . S
C250 C245 1.501 1_545 S
C250 H251 0.961 . S
C250 H252 0.961 . S
C250 H253 0.960 . S
H251 C250 0.961 . S
H252 C250 0.961 . S
H253 C250 0.960 . S
C254 N255 1.342 . S
C254 C258 1.401 . S
C254 C259 1.499 . S
N255 Co238 1.989 . S
N255 C254 1.342 . S
N255 N256 1.388 . S
N256 Co239 1.993 . S
N256 N255 1.388 . S
N256 C257 1.346 . S
C257 N256 1.346 . S
C257 C258 1.396 . S
C257 C267 1.510 . S
C258 C254 1.401 . S
C258 C257 1.396 . S
C259 C254 1.499 . S
C259 H260 0.959 . S
C259 H261 0.960 . S
C259 H262 0.961 . S
H260 C259 0.959 . S
H261 C259 0.960 . S
H262 C259 0.961 . S
O263 Co238 1.967 . S
O263 C271 1.258 . S
O264 Co239 1.941 . S
O264 C271 1.266 . S
H265 C267 0.959 . S
H266 C267 0.961 1_545 S
C267 C257 1.510 . S
C267 H265 0.959 . S
C267 H266 0.961 1_565 S
C267 H268 0.960 . S
H268 C267 0.960 . S
H269 N249 0.862 . S
O270 Co238 1.920 . S
O270 C243 1.289 . S
C271 O263 1.258 . S
C271 O264 1.266 . S
Co272 O275 1.970 . S
Co272 N289 1.989 1_565 S
Co272 O297 1.967 . S
Co272 O304 1.920 . S
Co273 O276 1.966 . S
Co273 N282 2.022 . S
Co273 N290 1.993 1_565 S
Co273 O298 1.941 . S
C274 O275 1.258 . S
C274 O276 1.263 . S
O275 Co272 1.970 . S
O275 C274 1.258 . S
O276 Co273 1.966 . S
O276 C274 1.263 . S
C277 O278 1.235 . S
C277 O304 1.289 . S
O278 C277 1.235 . S
C279 C281 1.400 . S
C279 N282 1.351 . S
C279 C284 1.501 . S
C280 C281 1.387 . S
C280 N283 1.341 . S
C281 C279 1.400 . S
C281 C280 1.387 . S
N282 Co273 2.022 . S
N282 C279 1.351 . S
N282 N283 1.365 . S
N283 C280 1.341 . S
N283 N282 1.365 . S
N283 H303 0.862 . S
C284 C279 1.501 . S
C284 H285 0.961 . S
C284 H286 0.961 . S
C284 H287 0.960 . S
H285 C284 0.961 . S
H286 C284 0.961 . S
H287 C284 0.960 . S
C288 N289 1.342 . S
C288 C292 1.401 . S
C288 C293 1.499 . S
N289 Co272 1.989 1_545 S
N289 C288 1.342 . S
N289 N290 1.388 . S
N290 Co273 1.993 1_545 S
N290 N289 1.388 . S
N290 C291 1.346 . S
C291 N290 1.346 . S
C291 C292 1.396 . S
C291 C301 1.510 . S
C292 C288 1.401 . S
C292 C291 1.396 . S
C293 C288 1.499 . S
C293 H294 0.959 . S
C293 H295 0.960 . S
C293 H296 0.961 . S
H294 C293 0.959 . S
H295 C293 0.960 . S
H296 C293 0.961 . S
O297 Co272 1.967 . S
O297 C305 1.258 . S
O298 Co273 1.941 . S
O298 C305 1.266 . S
H299 C301 0.959 . S
H300 C301 0.961 . S
C301 C291 1.510 . S
C301 H299 0.959 . S
C301 H300 0.961 . S
C301 H302 0.960 . S
H302 C301 0.960 . S
H303 N283 0.862 . S
O304 Co272 1.920 . S
O304 C277 1.289 . S
C305 O297 1.258 . S
C305 O298 1.266 . S
Co306 O309 1.970 . S
Co306 N323 1.989 . S
Co306 O331 1.967 . S
Co306 O338 1.920 . S
Co307 O310 1.966 . S
Co307 N316 2.022 . S
Co307 N324 1.993 . S
Co307 O332 1.941 . S
C308 O309 1.258 . S
C308 O310 1.263 . S
O309 Co306 1.970 . S
O309 C308 1.258 . S
O310 Co307 1.966 . S
O310 C308 1.263 . S
C311 O312 1.235 1_565 S
C311 O338 1.289 . S
O312 C311 1.235 1_545 S
C313 C315 1.400 . S
C313 N316 1.351 . S
C313 C318 1.501 1_565 S
C314 C315 1.387 . S
C314 N317 1.341 . S
C315 C313 1.400 . S
C315 C314 1.387 . S
N316 Co307 2.022 . S
N316 C313 1.351 . S
N316 N317 1.365 . S
N317 C314 1.341 . S
N317 N316 1.365 . S
N317 H337 0.862 . S
C318 C313 1.501 1_545 S
C318 H319 0.961 . S
C318 H320 0.961 . S
C318 H321 0.960 . S
H319 C318 0.961 . S
H320 C318 0.961 . S
H321 C318 0.960 . S
C322 N323 1.342 . S
C322 C326 1.401 . S
C322 C327 1.499 . S
N323 Co306 1.989 . S
N323 C322 1.342 . S
N323 N324 1.388 . S
N324 Co307 1.993 . S
N324 N323 1.388 . S
N324 C325 1.346 . S
C325 N324 1.346 . S
C325 C326 1.396 . S
C325 C335 1.510 . S
C326 C322 1.401 . S
C326 C325 1.396 . S
C327 C322 1.499 . S
C327 H328 0.959 . S
C327 H329 0.960 . S
C327 H330 0.961 . S
H328 C327 0.959 . S
H329 C327 0.960 . S
H330 C327 0.961 . S
O331 Co306 1.967 . S
O331 C339 1.258 . S
O332 Co307 1.941 . S
O332 C339 1.266 . S
H333 C335 0.959 . S
H334 C335 0.961 1_545 S
C335 C325 1.510 . S
C335 H333 0.959 . S
C335 H334 0.961 1_565 S
C335 H336 0.960 . S
H336 C335 0.960 . S
H337 N317 0.862 . S
O338 Co306 1.920 . S
O338 C311 1.289 . S
C339 O331 1.258 . S
C339 O332 1.266 . S
Co340 O343 1.970 . S
Co340 N357 1.989 1_545 S
Co340 O365 1.967 . S
Co340 O372 1.920 . S
Co341 O344 1.966 . S
Co341 N350 2.022 . S
Co341 N358 1.993 1_545 S
Co341 O366 1.941 . S
C342 O343 1.258 . S
C342 O344 1.263 . S
O343 Co340 1.970 . S
O343 C342 1.258 . S
O344 Co341 1.966 . S
O344 C342 1.263 . S
C345 O346 1.235 . S
C345 O372 1.289 . S
O346 C345 1.235 . S
C347 C349 1.400 . S
C347 N350 1.351 . S
C347 C352 1.501 . S
C348 C349 1.387 . S
C348 N351 1.341 . S
C349 C347 1.400 . S
C349 C348 1.387 . S
N350 Co341 2.022 . S
N350 C347 1.351 . S
N350 N351 1.365 . S
N351 C348 1.341 . S
N351 N350 1.365 . S
N351 H371 0.862 . S
C352 C347 1.501 . S
C352 H353 0.961 . S
C352 H354 0.961 . S
C352 H355 0.960 . S
H353 C352 0.961 . S
H354 C352 0.961 . S
H355 C352 0.960 . S
C356 N357 1.342 . S
C356 C360 1.401 . S
C356 C361 1.499 . S
N357 Co340 1.989 1_565 S
N357 C356 1.342 . S
N357 N358 1.388 . S
N358 Co341 1.993 1_565 S
N358 N357 1.388 . S
N358 C359 1.346 . S
C359 N358 1.346 . S
C359 C360 1.396 . S
C359 C369 1.510 . S
C360 C356 1.401 . S
C360 C359 1.396 . S
C361 C356 1.499 . S
C361 H362 0.959 . S
C361 H363 0.960 . S
C361 H364 0.961 . S
H362 C361 0.959 . S
H363 C361 0.960 . S
H364 C361 0.961 . S
O365 Co340 1.967 . S
O365 C373 1.258 . S
O366 Co341 1.941 . S
O366 C373 1.266 . S
H367 C369 0.959 . S
H368 C369 0.961 . S
C369 C359 1.510 . S
C369 H367 0.959 . S
C369 H368 0.961 . S
C369 H370 0.960 . S
H370 C369 0.960 . S
H371 N351 0.862 . S
O372 Co340 1.920 . S
O372 C345 1.289 . S
C373 O365 1.258 . S
C373 O366 1.266 . S
Co374 O377 1.970 . S
Co374 N391 1.989 . S
Co374 O399 1.967 . S
Co374 O406 1.920 . S
Co375 O378 1.966 . S
Co375 N384 2.022 . S
Co375 N392 1.993 . S
Co375 O400 1.941 . S
C376 O377 1.258 . S
C376 O378 1.263 . S
O377 Co374 1.970 . S
O377 C376 1.258 . S
O378 Co375 1.966 . S
O378 C376 1.263 . S
C379 O380 1.235 1_545 S
C379 O406 1.289 . S
O380 C379 1.235 1_565 S
C381 C383 1.400 . S
C381 N384 1.351 . S
C381 C386 1.501 1_545 S
C382 C383 1.387 . S
C382 N385 1.341 . S
C383 C381 1.400 . S
C383 C382 1.387 . S
N384 Co375 2.022 . S
N384 C381 1.351 . S
N384 N385 1.365 . S
N385 C382 1.341 . S
N385 N384 1.365 . S
N385 H405 0.862 . S
C386 C381 1.501 1_565 S
C386 H387 0.961 . S
C386 H388 0.961 . S
C386 H389 0.960 . S
H387 C386 0.961 . S
H388 C386 0.961 . S
H389 C386 0.960 . S
C390 N391 1.342 . S
C390 C394 1.401 . S
C390 C395 1.499 . S
N391 Co374 1.989 . S
N391 C390 1.342 . S
N391 N392 1.388 . S
N392 Co375 1.993 . S
N392 N391 1.388 . S
N392 C393 1.346 . S
C393 N392 1.346 . S
C393 C394 1.396 . S
C393 C403 1.510 . S
C394 C390 1.401 . S
C394 C393 1.396 . S
C395 C390 1.499 . S
C395 H396 0.959 . S
C395 H397 0.960 . S
C395 H398 0.961 . S
H396 C395 0.959 . S
H397 C395 0.960 . S
H398 C395 0.961 . S
O399 Co374 1.967 . S
O399 C407 1.258 . S
O400 Co375 1.941 . S
O400 C407 1.266 . S
H401 C403 0.959 . S
H402 C403 0.961 1_565 S
C403 C393 1.510 . S
C403 H401 0.959 . S
C403 H402 0.961 1_545 S
C403 H404 0.960 . S
H404 C403 0.960 . S
H405 N385 0.862 . S
O406 Co374 1.920 . S
O406 C379 1.289 . S
C407 O399 1.258 . S
C407 O400 1.266 . S
Co408 O411 1.970 . S
Co408 N425 1.989 1_545 S
Co408 O433 1.967 . S
Co408 O440 1.920 . S
Co409 O412 1.966 . S
Co409 N418 2.022 . S
Co409 N426 1.993 1_545 S
Co409 O434 1.941 . S
C410 O411 1.258 . S
C410 O412 1.263 . S
O411 Co408 1.970 . S
O411 C410 1.258 . S
O412 Co409 1.966 . S
O412 C410 1.263 . S
C413 O414 1.235 . S
C413 O440 1.289 . S
O414 C413 1.235 . S
C415 C417 1.400 . S
C415 N418 1.351 . S
C415 C420 1.501 . S
C416 C417 1.387 . S
C416 N419 1.341 . S
C417 C415 1.400 . S
C417 C416 1.387 . S
N418 Co409 2.022 . S
N418 C415 1.351 . S
N418 N419 1.365 . S
N419 C416 1.341 . S
N419 N418 1.365 . S
N419 H439 0.862 . S
C420 C415 1.501 . S
C420 H421 0.961 . S
C420 H422 0.961 . S
C420 H423 0.960 . S
H421 C420 0.961 . S
H422 C420 0.961 . S
H423 C420 0.960 . S
C424 N425 1.342 . S
C424 C428 1.401 . S
C424 C429 1.499 . S
N425 Co408 1.989 1_565 S
N425 C424 1.342 . S
N425 N426 1.388 . S
N426 Co409 1.993 1_565 S
N426 N425 1.388 . S
N426 C427 1.346 . S
C427 N426 1.346 . S
C427 C428 1.396 . S
C427 C437 1.510 . S
C428 C424 1.401 . S
C428 C427 1.396 . S
C429 C424 1.499 . S
C429 H430 0.959 . S
C429 H431 0.960 . S
C429 H432 0.961 . S
H430 C429 0.959 . S
H431 C429 0.960 . S
H432 C429 0.961 . S
O433 Co408 1.967 . S
O433 C441 1.258 . S
O434 Co409 1.941 . S
O434 C441 1.266 . S
H435 C437 0.959 . S
H436 C437 0.961 . S
C437 C427 1.510 . S
C437 H435 0.959 . S
C437 H436 0.961 . S
C437 H438 0.960 . S
H438 C437 0.960 . S
H439 N419 0.862 . S
O440 Co408 1.920 . S
O440 C413 1.289 . S
C441 O433 1.258 . S
C441 O434 1.266 . S
Co442 O445 1.970 . S
Co442 N459 1.989 . S
Co442 O467 1.967 . S
Co442 O474 1.920 . S
Co443 O446 1.966 . S
Co443 N452 2.022 . S
Co443 N460 1.993 . S
Co443 O468 1.941 . S
C444 O445 1.258 . S
C444 O446 1.263 . S
O445 Co442 1.970 . S
O445 C444 1.258 . S
O446 Co443 1.966 . S
O446 C444 1.263 . S
C447 O448 1.235 1_565 S
C447 O474 1.289 . S
O448 C447 1.235 1_545 S
C449 C451 1.400 . S
C449 N452 1.351 . S
C449 C454 1.501 1_565 S
C450 C451 1.387 . S
C450 N453 1.341 . S
C451 C449 1.400 . S
C451 C450 1.387 . S
N452 Co443 2.022 . S
N452 C449 1.351 . S
N452 N453 1.365 . S
N453 C450 1.341 . S
N453 N452 1.365 . S
N453 H473 0.862 . S
C454 C449 1.501 1_545 S
C454 H455 0.961 . S
C454 H456 0.961 . S
C454 H457 0.960 . S
H455 C454 0.961 . S
H456 C454 0.961 . S
H457 C454 0.960 . S
C458 N459 1.342 . S
C458 C462 1.401 . S
C458 C463 1.499 . S
N459 Co442 1.989 . S
N459 C458 1.342 . S
N459 N460 1.388 . S
N460 Co443 1.993 . S
N460 N459 1.388 . S
N460 C461 1.346 . S
C461 N460 1.346 . S
C461 C462 1.396 . S
C461 C471 1.510 . S
C462 C458 1.401 . S
C462 C461 1.396 . S
C463 C458 1.499 . S
C463 H464 0.959 . S
C463 H465 0.960 . S
C463 H466 0.961 . S
H464 C463 0.959 . S
H465 C463 0.960 . S
H466 C463 0.961 . S
O467 Co442 1.967 . S
O467 C475 1.258 . S
O468 Co443 1.941 . S
O468 C475 1.266 . S
H469 C471 0.959 . S
H470 C471 0.961 1_545 S
C471 C461 1.510 . S
C471 H469 0.959 . S
C471 H470 0.961 1_565 S
C471 H472 0.960 . S
H472 C471 0.960 . S
H473 N453 0.862 . S
O474 Co442 1.920 . S
O474 C447 1.289 . S
C475 O467 1.258 . S
C475 O468 1.266 . S
Co476 O479 1.970 . S
Co476 N493 1.989 1_565 S
Co476 O501 1.967 . S
Co476 O508 1.920 . S
Co477 O480 1.966 . S
Co477 N486 2.022 . S
Co477 N494 1.993 1_565 S
Co477 O502 1.941 . S
C478 O479 1.258 . S
C478 O480 1.263 . S
O479 Co476 1.970 . S
O479 C478 1.258 . S
O480 Co477 1.966 . S
O480 C478 1.263 . S
C481 O482 1.235 . S
C481 O508 1.289 . S
O482 C481 1.235 . S
C483 C485 1.400 . S
C483 N486 1.351 . S
C483 C488 1.501 . S
C484 C485 1.387 . S
C484 N487 1.341 . S
C485 C483 1.400 . S
C485 C484 1.387 . S
N486 Co477 2.022 . S
N486 C483 1.351 . S
N486 N487 1.365 . S
N487 C484 1.341 . S
N487 N486 1.365 . S
N487 H507 0.862 . S
C488 C483 1.501 . S
C488 H489 0.961 . S
C488 H490 0.961 . S
C488 H491 0.960 . S
H489 C488 0.961 . S
H490 C488 0.961 . S
H491 C488 0.960 . S
C492 N493 1.342 . S
C492 C496 1.401 . S
C492 C497 1.499 . S
N493 Co476 1.989 1_545 S
N493 C492 1.342 . S
N493 N494 1.388 . S
N494 Co477 1.993 1_545 S
N494 N493 1.388 . S
N494 C495 1.346 . S
C495 N494 1.346 . S
C495 C496 1.396 . S
C495 C505 1.510 . S
C496 C492 1.401 . S
C496 C495 1.396 . S
C497 C492 1.499 . S
C497 H498 0.959 . S
C497 H499 0.960 . S
C497 H500 0.961 . S
H498 C497 0.959 . S
H499 C497 0.960 . S
H500 C497 0.961 . S
O501 Co476 1.967 . S
O501 C509 1.258 . S
O502 Co477 1.941 . S
O502 C509 1.266 . S
H503 C505 0.959 . S
H504 C505 0.961 . S
C505 C495 1.510 . S
C505 H503 0.959 . S
C505 H504 0.961 . S
C505 H506 0.960 . S
H506 C505 0.960 . S
H507 N487 0.862 . S
O508 Co476 1.920 . S
O508 C481 1.289 . S
C509 O501 1.258 . S
C509 O502 1.266 . S
Co510 O513 1.970 . S
Co510 N527 1.989 . S
Co510 O535 1.967 . S
Co510 O542 1.920 . S
Co511 O514 1.966 . S
Co511 N520 2.022 . S
Co511 N528 1.993 . S
Co511 O536 1.941 . S
C512 O513 1.258 . S
C512 O514 1.263 . S
O513 Co510 1.970 . S
O513 C512 1.258 . S
O514 Co511 1.966 . S
O514 C512 1.263 . S
C515 O516 1.235 1_545 S
C515 O542 1.289 . S
O516 C515 1.235 1_565 S
C517 C519 1.400 . S
C517 N520 1.351 . S
C517 C522 1.501 1_545 S
C518 C519 1.387 . S
C518 N521 1.341 . S
C519 C517 1.400 . S
C519 C518 1.387 . S
N520 Co511 2.022 . S
N520 C517 1.351 . S
N520 N521 1.365 . S
N521 C518 1.341 . S
N521 N520 1.365 . S
N521 H541 0.862 . S
C522 C517 1.501 1_565 S
C522 H523 0.961 . S
C522 H524 0.961 . S
C522 H525 0.960 . S
H523 C522 0.961 . S
H524 C522 0.961 . S
H525 C522 0.960 . S
C526 N527 1.342 . S
C526 C530 1.401 . S
C526 C531 1.499 . S
N527 Co510 1.989 . S
N527 C526 1.342 . S
N527 N528 1.388 . S
N528 Co511 1.993 . S
N528 N527 1.388 . S
N528 C529 1.346 . S
C529 N528 1.346 . S
C529 C530 1.396 . S
C529 C539 1.510 . S
C530 C526 1.401 . S
C530 C529 1.396 . S
C531 C526 1.499 . S
C531 H532 0.959 . S
C531 H533 0.960 . S
C531 H534 0.961 . S
H532 C531 0.959 . S
H533 C531 0.960 . S
H534 C531 0.961 . S
O535 Co510 1.967 . S
O535 C543 1.258 . S
O536 Co511 1.941 . S
O536 C543 1.266 . S
H537 C539 0.959 . S
H538 C539 0.961 1_565 S
C539 C529 1.510 . S
C539 H537 0.959 . S
C539 H538 0.961 1_545 S
C539 H540 0.960 . S
H540 C539 0.960 . S
H541 N521 0.862 . S
O542 Co510 1.920 . S
O542 C515 1.289 . S
C543 O535 1.258 . S
C543 O536 1.266 . S
Co544 O547 1.970 . S
Co544 N561 1.989 . S
Co544 O569 1.967 . S
Co544 O576 1.920 . S
Co545 O548 1.966 . S
Co545 N554 2.022 . S
Co545 N562 1.993 . S
Co545 O570 1.941 . S
C546 O547 1.258 . S
C546 O548 1.263 . S
O547 Co544 1.970 . S
O547 C546 1.258 . S
O548 Co545 1.966 . S
O548 C546 1.263 . S
C549 O550 1.235 . S
C549 O576 1.289 . S
O550 C549 1.235 . S
C551 C553 1.400 . S
C551 N554 1.351 . S
C551 C556 1.501 . S
C552 C553 1.387 . S
C552 N555 1.341 . S
C553 C551 1.400 . S
C553 C552 1.387 . S
N554 Co545 2.022 . S
N554 C551 1.351 . S
N554 N555 1.365 . S
N555 C552 1.341 . S
N555 N554 1.365 . S
N555 H575 0.862 . S
C556 C551 1.501 . S
C556 H557 0.961 . S
C556 H558 0.961 . S
C556 H559 0.960 . S
H557 C556 0.961 . S
H558 C556 0.961 . S
H559 C556 0.960 . S
C560 N561 1.342 . S
C560 C564 1.401 . S
C560 C565 1.499 . S
N561 Co544 1.989 . S
N561 C560 1.342 . S
N561 N562 1.388 . S
N562 Co545 1.993 . S
N562 N561 1.388 . S
N562 C563 1.346 . S
C563 N562 1.346 . S
C563 C564 1.396 . S
C563 C573 1.510 . S
C564 C560 1.401 . S
C564 C563 1.396 . S
C565 C560 1.499 . S
C565 H566 0.959 . S
C565 H567 0.960 . S
C565 H568 0.961 . S
H566 C565 0.959 . S
H567 C565 0.960 . S
H568 C565 0.961 . S
O569 Co544 1.967 . S
O569 C577 1.258 . S
O570 Co545 1.941 . S
O570 C577 1.266 . S
H571 C573 0.959 . S
H572 C573 0.961 . S
C573 C563 1.510 . S
C573 H571 0.959 . S
C573 H572 0.961 . S
C573 H574 0.960 . S
H574 C573 0.960 . S
H575 N555 0.862 . S
O576 Co544 1.920 . S
O576 C549 1.289 . S
C577 O569 1.258 . S
C577 O570 1.266 . S
Co578 O581 1.970 . S
Co578 N595 1.989 . S
Co578 O603 1.967 . S
Co578 O610 1.920 . S
Co579 O582 1.966 . S
Co579 N588 2.022 . S
Co579 N596 1.993 . S
Co579 O604 1.941 . S
C580 O581 1.258 . S
C580 O582 1.263 . S
O581 Co578 1.970 . S
O581 C580 1.258 . S
O582 Co579 1.966 . S
O582 C580 1.263 . S
C583 O584 1.235 . S
C583 O610 1.289 . S
O584 C583 1.235 . S
C585 C587 1.400 . S
C585 N588 1.351 . S
C585 C590 1.501 . S
C586 C587 1.387 . S
C586 N589 1.341 . S
C587 C585 1.400 . S
C587 C586 1.387 . S
N588 Co579 2.022 . S
N588 C585 1.351 . S
N588 N589 1.365 . S
N589 C586 1.341 . S
N589 N588 1.365 . S
N589 H609 0.862 . S
C590 C585 1.501 . S
C590 H591 0.961 . S
C590 H592 0.961 . S
C590 H593 0.960 . S
H591 C590 0.961 . S
H592 C590 0.961 . S
H593 C590 0.960 . S
C594 N595 1.342 . S
C594 C598 1.401 . S
C594 C599 1.499 . S
N595 Co578 1.989 . S
N595 C594 1.342 . S
N595 N596 1.388 . S
N596 Co579 1.993 . S
N596 N595 1.388 . S
N596 C597 1.346 . S
C597 N596 1.346 . S
C597 C598 1.396 . S
C597 C607 1.510 . S
C598 C594 1.401 . S
C598 C597 1.396 . S
C599 C594 1.499 . S
C599 H600 0.959 . S
C599 H601 0.960 . S
C599 H602 0.961 . S
H600 C599 0.959 . S
H601 C599 0.960 . S
H602 C599 0.961 . S
O603 Co578 1.967 . S
O603 C611 1.258 . S
O604 Co579 1.941 . S
O604 C611 1.266 . S
H605 C607 0.959 . S
H606 C607 0.961 . S
C607 C597 1.510 . S
C607 H605 0.959 . S
C607 H606 0.961 . S
C607 H608 0.960 . S
H608 C607 0.960 . S
H609 N589 0.862 . S
O610 Co578 1.920 . S
O610 C583 1.289 . S
C611 O603 1.258 . S
C611 O604 1.266 . S
Co612 O615 1.970 . S
Co612 N629 1.989 . S
Co612 O637 1.967 . S
Co612 O644 1.920 . S
Co613 O616 1.966 . S
Co613 N622 2.022 . S
Co613 N630 1.993 . S
Co613 O638 1.941 . S
C614 O615 1.258 . S
C614 O616 1.263 . S
O615 Co612 1.970 . S
O615 C614 1.258 . S
O616 Co613 1.966 . S
O616 C614 1.263 . S
C617 O618 1.235 . S
C617 O644 1.289 . S
O618 C617 1.235 . S
C619 C621 1.400 . S
C619 N622 1.351 . S
C619 C624 1.501 . S
C620 C621 1.387 . S
C620 N623 1.341 . S
C621 C619 1.400 . S
C621 C620 1.387 . S
N622 Co613 2.022 . S
N622 C619 1.351 . S
N622 N623 1.365 . S
N623 C620 1.341 . S
N623 N622 1.365 . S
N623 H643 0.862 . S
C624 C619 1.501 . S
C624 H625 0.961 . S
C624 H626 0.961 . S
C624 H627 0.960 . S
H625 C624 0.961 . S
H626 C624 0.961 . S
H627 C624 0.960 . S
C628 N629 1.342 . S
C628 C632 1.401 . S
C628 C633 1.499 . S
N629 Co612 1.989 . S
N629 C628 1.342 . S
N629 N630 1.388 . S
N630 Co613 1.993 . S
N630 N629 1.388 . S
N630 C631 1.346 . S
C631 N630 1.346 . S
C631 C632 1.396 . S
C631 C641 1.510 . S
C632 C628 1.401 . S
C632 C631 1.396 . S
C633 C628 1.499 . S
C633 H634 0.959 . S
C633 H635 0.960 . S
C633 H636 0.961 . S
H634 C633 0.959 . S
H635 C633 0.960 . S
H636 C633 0.961 . S
O637 Co612 1.967 . S
O637 C645 1.258 . S
O638 Co613 1.941 . S
O638 C645 1.266 . S
H639 C641 0.959 . S
H640 C641 0.961 . S
C641 C631 1.510 . S
C641 H639 0.959 . S
C641 H640 0.961 . S
C641 H642 0.960 . S
H642 C641 0.960 . S
H643 N623 0.862 . S
O644 Co612 1.920 . S
O644 C617 1.289 . S
C645 O637 1.258 . S
C645 O638 1.266 . S
Co646 O649 1.970 . S
Co646 N663 1.989 . S
Co646 O671 1.967 . S
Co646 O678 1.920 . S
Co647 O650 1.966 . S
Co647 N656 2.022 . S
Co647 N664 1.993 . S
Co647 O672 1.941 . S
C648 O649 1.258 . S
C648 O650 1.263 . S
O649 Co646 1.970 . S
O649 C648 1.258 . S
O650 Co647 1.966 . S
O650 C648 1.263 . S
C651 O652 1.235 . S
C651 O678 1.289 . S
O652 C651 1.235 . S
C653 C655 1.400 . S
C653 N656 1.351 . S
C653 C658 1.501 . S
C654 C655 1.387 . S
C654 N657 1.341 . S
C655 C653 1.400 . S
C655 C654 1.387 . S
N656 Co647 2.022 . S
N656 C653 1.351 . S
N656 N657 1.365 . S
N657 C654 1.341 . S
N657 N656 1.365 . S
N657 H677 0.862 . S
C658 C653 1.501 . S
C658 H659 0.961 . S
C658 H660 0.961 . S
C658 H661 0.960 . S
H659 C658 0.961 . S
H660 C658 0.961 . S
H661 C658 0.960 . S
C662 N663 1.342 . S
C662 C666 1.401 . S
C662 C667 1.499 . S
N663 Co646 1.989 . S
N663 C662 1.342 . S
N663 N664 1.388 . S
N664 Co647 1.993 . S
N664 N663 1.388 . S
N664 C665 1.346 . S
C665 N664 1.346 . S
C665 C666 1.396 . S
C665 C675 1.510 . S
C666 C662 1.401 . S
C666 C665 1.396 . S
C667 C662 1.499 . S
C667 H668 0.959 . S
C667 H669 0.960 . S
C667 H670 0.961 . S
H668 C667 0.959 . S
H669 C667 0.960 . S
H670 C667 0.961 . S
O671 Co646 1.967 . S
O671 C679 1.258 . S
O672 Co647 1.941 . S
O672 C679 1.266 . S
H673 C675 0.959 . S
H674 C675 0.961 . S
C675 C665 1.510 . S
C675 H673 0.959 . S
C675 H674 0.961 . S
C675 H676 0.960 . S
H676 C675 0.960 . S
H677 N657 0.862 . S
O678 Co646 1.920 . S
O678 C651 1.289 . S
C679 O671 1.258 . S
C679 O672 1.266 . S
Co680 O683 1.970 . S
Co680 N697 1.989 . S
Co680 O705 1.967 . S
Co680 O712 1.920 . S
Co681 O684 1.966 . S
Co681 N690 2.022 . S
Co681 N698 1.993 . S
Co681 O706 1.941 . S
C682 O683 1.258 . S
C682 O684 1.263 . S
O683 Co680 1.970 . S
O683 C682 1.258 . S
O684 Co681 1.966 . S
O684 C682 1.263 . S
C685 O686 1.235 . S
C685 O712 1.289 . S
O686 C685 1.235 . S
C687 C689 1.400 . S
C687 N690 1.351 . S
C687 C692 1.501 . S
C688 C689 1.387 . S
C688 N691 1.341 . S
C689 C687 1.400 . S
C689 C688 1.387 . S
N690 Co681 2.022 . S
N690 C687 1.351 . S
N690 N691 1.365 . S
N691 C688 1.341 . S
N691 N690 1.365 . S
N691 H711 0.862 . S
C692 C687 1.501 . S
C692 H693 0.961 . S
C692 H694 0.961 . S
C692 H695 0.960 . S
H693 C692 0.961 . S
H694 C692 0.961 . S
H695 C692 0.960 . S
C696 N697 1.342 . S
C696 C700 1.401 . S
C696 C701 1.499 . S
N697 Co680 1.989 . S
N697 C696 1.342 . S
N697 N698 1.388 . S
N698 Co681 1.993 . S
N698 N697 1.388 . S
N698 C699 1.346 . S
C699 N698 1.346 . S
C699 C700 1.396 . S
C699 C709 1.510 . S
C700 C696 1.401 . S
C700 C699 1.396 . S
C701 C696 1.499 . S
C701 H702 0.959 . S
C701 H703 0.960 . S
C701 H704 0.961 . S
H702 C701 0.959 . S
H703 C701 0.960 . S
H704 C701 0.961 . S
O705 Co680 1.967 . S
O705 C713 1.258 . S
O706 Co681 1.941 . S
O706 C713 1.266 . S
H707 C709 0.959 . S
H708 C709 0.961 . S
C709 C699 1.510 . S
C709 H707 0.959 . S
C709 H708 0.961 . S
C709 H710 0.960 . S
H710 C709 0.960 . S
H711 N691 0.862 . S
O712 Co680 1.920 . S
O712 C685 1.289 . S
C713 O705 1.258 . S
C713 O706 1.266 . S
Co714 O717 1.970 . S
Co714 N731 1.989 . S
Co714 O739 1.967 . S
Co714 O746 1.920 . S
Co715 O718 1.966 . S
Co715 N724 2.022 . S
Co715 N732 1.993 . S
Co715 O740 1.941 . S
C716 O717 1.258 . S
C716 O718 1.263 . S
O717 Co714 1.970 . S
O717 C716 1.258 . S
O718 Co715 1.966 . S
O718 C716 1.263 . S
C719 O720 1.235 . S
C719 O746 1.289 . S
O720 C719 1.235 . S
C721 C723 1.400 . S
C721 N724 1.351 . S
C721 C726 1.501 . S
C722 C723 1.387 . S
C722 N725 1.341 . S
C723 C721 1.400 . S
C723 C722 1.387 . S
N724 Co715 2.022 . S
N724 C721 1.351 . S
N724 N725 1.365 . S
N725 C722 1.341 . S
N725 N724 1.365 . S
N725 H745 0.862 . S
C726 C721 1.501 . S
C726 H727 0.961 . S
C726 H728 0.961 . S
C726 H729 0.960 . S
H727 C726 0.961 . S
H728 C726 0.961 . S
H729 C726 0.960 . S
C730 N731 1.342 . S
C730 C734 1.401 . S
C730 C735 1.499 . S
N731 Co714 1.989 . S
N731 C730 1.342 . S
N731 N732 1.388 . S
N732 Co715 1.993 . S
N732 N731 1.388 . S
N732 C733 1.346 . S
C733 N732 1.346 . S
C733 C734 1.396 . S
C733 C743 1.510 . S
C734 C730 1.401 . S
C734 C733 1.396 . S
C735 C730 1.499 . S
C735 H736 0.959 . S
C735 H737 0.960 . S
C735 H738 0.961 . S
H736 C735 0.959 . S
H737 C735 0.960 . S
H738 C735 0.961 . S
O739 Co714 1.967 . S
O739 C747 1.258 . S
O740 Co715 1.941 . S
O740 C747 1.266 . S
H741 C743 0.959 . S
H742 C743 0.961 . S
C743 C733 1.510 . S
C743 H741 0.959 . S
C743 H742 0.961 . S
C743 H744 0.960 . S
H744 C743 0.960 . S
H745 N725 0.862 . S
O746 Co714 1.920 . S
O746 C719 1.289 . S
C747 O739 1.258 . S
C747 O740 1.266 . S
Co748 O751 1.970 . S
Co748 N765 1.989 . S
Co748 O773 1.967 . S
Co748 O780 1.920 . S
Co749 O752 1.966 . S
Co749 N758 2.022 . S
Co749 N766 1.993 . S
Co749 O774 1.941 . S
C750 O751 1.258 . S
C750 O752 1.263 . S
O751 Co748 1.970 . S
O751 C750 1.258 . S
O752 Co749 1.966 . S
O752 C750 1.263 . S
C753 O754 1.235 . S
C753 O780 1.289 . S
O754 C753 1.235 . S
C755 C757 1.400 . S
C755 N758 1.351 . S
C755 C760 1.501 . S
C756 C757 1.387 . S
C756 N759 1.341 . S
C757 C755 1.400 . S
C757 C756 1.387 . S
N758 Co749 2.022 . S
N758 C755 1.351 . S
N758 N759 1.365 . S
N759 C756 1.341 . S
N759 N758 1.365 . S
N759 H779 0.862 . S
C760 C755 1.501 . S
C760 H761 0.961 . S
C760 H762 0.961 . S
C760 H763 0.960 . S
H761 C760 0.961 . S
H762 C760 0.961 . S
H763 C760 0.960 . S
C764 N765 1.342 . S
C764 C768 1.401 . S
C764 C769 1.499 . S
N765 Co748 1.989 . S
N765 C764 1.342 . S
N765 N766 1.388 . S
N766 Co749 1.993 . S
N766 N765 1.388 . S
N766 C767 1.346 . S
C767 N766 1.346 . S
C767 C768 1.396 . S
C767 C777 1.510 . S
C768 C764 1.401 . S
C768 C767 1.396 . S
C769 C764 1.499 . S
C769 H770 0.959 . S
C769 H771 0.960 . S
C769 H772 0.961 . S
H770 C769 0.959 . S
H771 C769 0.960 . S
H772 C769 0.961 . S
O773 Co748 1.967 . S
O773 C781 1.258 . S
O774 Co749 1.941 . S
O774 C781 1.266 . S
H775 C777 0.959 . S
H776 C777 0.961 . S
C777 C767 1.510 . S
C777 H775 0.959 . S
C777 H776 0.961 . S
C777 H778 0.960 . S
H778 C777 0.960 . S
H779 N759 0.862 . S
O780 Co748 1.920 . S
O780 C753 1.289 . S
C781 O773 1.258 . S
C781 O774 1.266 . S
Co782 O785 1.970 . S
Co782 N799 1.989 . S
Co782 O807 1.967 . S
Co782 O814 1.920 . S
Co783 O786 1.966 . S
Co783 N792 2.022 . S
Co783 N800 1.993 . S
Co783 O808 1.941 . S
C784 O785 1.258 . S
C784 O786 1.263 . S
O785 Co782 1.970 . S
O785 C784 1.258 . S
O786 Co783 1.966 . S
O786 C784 1.263 . S
C787 O788 1.235 . S
C787 O814 1.289 . S
O788 C787 1.235 . S
C789 C791 1.400 . S
C789 N792 1.351 . S
C789 C794 1.501 . S
C790 C791 1.387 . S
C790 N793 1.341 . S
C791 C789 1.400 . S
C791 C790 1.387 . S
N792 Co783 2.022 . S
N792 C789 1.351 . S
N792 N793 1.365 . S
N793 C790 1.341 . S
N793 N792 1.365 . S
N793 H813 0.862 . S
C794 C789 1.501 . S
C794 H795 0.961 . S
C794 H796 0.961 . S
C794 H797 0.960 . S
H795 C794 0.961 . S
H796 C794 0.961 . S
H797 C794 0.960 . S
C798 N799 1.342 . S
C798 C802 1.401 . S
C798 C803 1.499 . S
N799 Co782 1.989 . S
N799 C798 1.342 . S
N799 N800 1.388 . S
N800 Co783 1.993 . S
N800 N799 1.388 . S
N800 C801 1.346 . S
C801 N800 1.346 . S
C801 C802 1.396 . S
C801 C811 1.510 . S
C802 C798 1.401 . S
C802 C801 1.396 . S
C803 C798 1.499 . S
C803 H804 0.959 . S
C803 H805 0.960 . S
C803 H806 0.961 . S
H804 C803 0.959 . S
H805 C803 0.960 . S
H806 C803 0.961 . S
O807 Co782 1.967 . S
O807 C815 1.258 . S
O808 Co783 1.941 . S
O808 C815 1.266 . S
H809 C811 0.959 . S
H810 C811 0.961 . S
C811 C801 1.510 . S
C811 H809 0.959 . S
C811 H810 0.961 . S
C811 H812 0.960 . S
H812 C811 0.960 . S
H813 N793 0.862 . S
O814 Co782 1.920 . S
O814 C787 1.289 . S
C815 O807 1.258 . S
C815 O808 1.266 . S
Co816 O819 1.970 . S
Co816 N833 1.989 . S
Co816 O841 1.967 . S
Co816 O848 1.920 . S
Co817 O820 1.966 . S
Co817 N826 2.022 . S
Co817 N834 1.993 . S
Co817 O842 1.941 . S
C818 O819 1.258 . S
C818 O820 1.263 . S
O819 Co816 1.970 . S
O819 C818 1.258 . S
O820 Co817 1.966 . S
O820 C818 1.263 . S
C821 O822 1.235 . S
C821 O848 1.289 . S
O822 C821 1.235 . S
C823 C825 1.400 . S
C823 N826 1.351 . S
C823 C828 1.501 . S
C824 C825 1.387 . S
C824 N827 1.341 . S
C825 C823 1.400 . S
C825 C824 1.387 . S
N826 Co817 2.022 . S
N826 C823 1.351 . S
N826 N827 1.365 . S
N827 C824 1.341 . S
N827 N826 1.365 . S
N827 H847 0.862 . S
C828 C823 1.501 . S
C828 H829 0.961 . S
C828 H830 0.961 . S
C828 H831 0.960 . S
H829 C828 0.961 . S
H830 C828 0.961 . S
H831 C828 0.960 . S
C832 N833 1.342 . S
C832 C836 1.401 . S
C832 C837 1.499 . S
N833 Co816 1.989 . S
N833 C832 1.342 . S
N833 N834 1.388 . S
N834 Co817 1.993 . S
N834 N833 1.388 . S
N834 C835 1.346 . S
C835 N834 1.346 . S
C835 C836 1.396 . S
C835 C845 1.510 . S
C836 C832 1.401 . S
C836 C835 1.396 . S
C837 C832 1.499 . S
C837 H838 0.959 . S
C837 H839 0.960 . S
C837 H840 0.961 . S
H838 C837 0.959 . S
H839 C837 0.960 . S
H840 C837 0.961 . S
O841 Co816 1.967 . S
O841 C849 1.258 . S
O842 Co817 1.941 . S
O842 C849 1.266 . S
H843 C845 0.959 . S
H844 C845 0.961 . S
C845 C835 1.510 . S
C845 H843 0.959 . S
C845 H844 0.961 . S
C845 H846 0.960 . S
H846 C845 0.960 . S
H847 N827 0.862 . S
O848 Co816 1.920 . S
O848 C821 1.289 . S
C849 O841 1.258 . S
C849 O842 1.266 . S
Co850 O853 1.970 . S
Co850 N867 1.989 . S
Co850 O875 1.967 . S
Co850 O882 1.920 . S
Co851 O854 1.966 . S
Co851 N860 2.022 . S
Co851 N868 1.993 . S
Co851 O876 1.941 . S
C852 O853 1.258 . S
C852 O854 1.263 . S
O853 Co850 1.970 . S
O853 C852 1.258 . S
O854 Co851 1.966 . S
O854 C852 1.263 . S
C855 O856 1.235 . S
C855 O882 1.289 . S
O856 C855 1.235 . S
C857 C859 1.400 . S
C857 N860 1.351 . S
C857 C862 1.501 . S
C858 C859 1.387 . S
C858 N861 1.341 . S
C859 C857 1.400 . S
C859 C858 1.387 . S
N860 Co851 2.022 . S
N860 C857 1.351 . S
N860 N861 1.365 . S
N861 C858 1.341 . S
N861 N860 1.365 . S
N861 H881 0.862 . S
C862 C857 1.501 . S
C862 H863 0.961 . S
C862 H864 0.961 . S
C862 H865 0.960 . S
H863 C862 0.961 . S
H864 C862 0.961 . S
H865 C862 0.960 . S
C866 N867 1.342 . S
C866 C870 1.401 . S
C866 C871 1.499 . S
N867 Co850 1.989 . S
N867 C866 1.342 . S
N867 N868 1.388 . S
N868 Co851 1.993 . S
N868 N867 1.388 . S
N868 C869 1.346 . S
C869 N868 1.346 . S
C869 C870 1.396 . S
C869 C879 1.510 . S
C870 C866 1.401 . S
C870 C869 1.396 . S
C871 C866 1.499 . S
C871 H872 0.959 . S
C871 H873 0.960 . S
C871 H874 0.961 . S
H872 C871 0.959 . S
H873 C871 0.960 . S
H874 C871 0.961 . S
O875 Co850 1.967 . S
O875 C883 1.258 . S
O876 Co851 1.941 . S
O876 C883 1.266 . S
H877 C879 0.959 . S
H878 C879 0.961 . S
C879 C869 1.510 . S
C879 H877 0.959 . S
C879 H878 0.961 . S
C879 H880 0.960 . S
H880 C879 0.960 . S
H881 N861 0.862 . S
O882 Co850 1.920 . S
O882 C855 1.289 . S
C883 O875 1.258 . S
C883 O876 1.266 . S
Co884 O887 1.970 . S
Co884 N901 1.989 . S
Co884 O909 1.967 . S
Co884 O916 1.920 . S
Co885 O888 1.966 . S
Co885 N894 2.022 . S
Co885 N902 1.993 . S
Co885 O910 1.941 . S
C886 O887 1.258 . S
C886 O888 1.263 . S
O887 Co884 1.970 . S
O887 C886 1.258 . S
O888 Co885 1.966 . S
O888 C886 1.263 . S
C889 O890 1.235 . S
C889 O916 1.289 . S
O890 C889 1.235 . S
C891 C893 1.400 . S
C891 N894 1.351 . S
C891 C896 1.501 . S
C892 C893 1.387 . S
C892 N895 1.341 . S
C893 C891 1.400 . S
C893 C892 1.387 . S
N894 Co885 2.022 . S
N894 C891 1.351 . S
N894 N895 1.365 . S
N895 C892 1.341 . S
N895 N894 1.365 . S
N895 H915 0.862 . S
C896 C891 1.501 . S
C896 H897 0.961 . S
C896 H898 0.961 . S
C896 H899 0.960 . S
H897 C896 0.961 . S
H898 C896 0.961 . S
H899 C896 0.960 . S
C900 N901 1.342 . S
C900 C904 1.401 . S
C900 C905 1.499 . S
N901 Co884 1.989 . S
N901 C900 1.342 . S
N901 N902 1.388 . S
N902 Co885 1.993 . S
N902 N901 1.388 . S
N902 C903 1.346 . S
C903 N902 1.346 . S
C903 C904 1.396 . S
C903 C913 1.510 . S
C904 C900 1.401 . S
C904 C903 1.396 . S
C905 C900 1.499 . S
C905 H906 0.959 . S
C905 H907 0.960 . S
C905 H908 0.961 . S
H906 C905 0.959 . S
H907 C905 0.960 . S
H908 C905 0.961 . S
O909 Co884 1.967 . S
O909 C917 1.258 . S
O910 Co885 1.941 . S
O910 C917 1.266 . S
H911 C913 0.959 . S
H912 C913 0.961 . S
C913 C903 1.510 . S
C913 H911 0.959 . S
C913 H912 0.961 . S
C913 H914 0.960 . S
H914 C913 0.960 . S
H915 N895 0.862 . S
O916 Co884 1.920 . S
O916 C889 1.289 . S
C917 O909 1.258 . S
C917 O910 1.266 . S
Co918 O921 1.970 . S
Co918 N935 1.989 . S
Co918 O943 1.967 . S
Co918 O950 1.920 . S
Co919 O922 1.966 . S
Co919 N928 2.022 . S
Co919 N936 1.993 . S
Co919 O944 1.941 . S
C920 O921 1.258 . S
C920 O922 1.263 . S
O921 Co918 1.970 . S
O921 C920 1.258 . S
O922 Co919 1.966 . S
O922 C920 1.263 . S
C923 O924 1.235 . S
C923 O950 1.289 . S
O924 C923 1.235 . S
C925 C927 1.400 . S
C925 N928 1.351 . S
C925 C930 1.501 . S
C926 C927 1.387 . S
C926 N929 1.341 . S
C927 C925 1.400 . S
C927 C926 1.387 . S
N928 Co919 2.022 . S
N928 C925 1.351 . S
N928 N929 1.365 . S
N929 C926 1.341 . S
N929 N928 1.365 . S
N929 H949 0.862 . S
C930 C925 1.501 . S
C930 H931 0.961 . S
C930 H932 0.961 . S
C930 H933 0.960 . S
H931 C930 0.961 . S
H932 C930 0.961 . S
H933 C930 0.960 . S
C934 N935 1.342 . S
C934 C938 1.401 . S
C934 C939 1.499 . S
N935 Co918 1.989 . S
N935 C934 1.342 . S
N935 N936 1.388 . S
N936 Co919 1.993 . S
N936 N935 1.388 . S
N936 C937 1.346 . S
C937 N936 1.346 . S
C937 C938 1.396 . S
C937 C947 1.510 . S
C938 C934 1.401 . S
C938 C937 1.396 . S
C939 C934 1.499 . S
C939 H940 0.959 . S
C939 H941 0.960 . S
C939 H942 0.961 . S
H940 C939 0.959 . S
H941 C939 0.960 . S
H942 C939 0.961 . S
O943 Co918 1.967 . S
O943 C951 1.258 . S
O944 Co919 1.941 . S
O944 C951 1.266 . S
H945 C947 0.959 . S
H946 C947 0.961 . S
C947 C937 1.510 . S
C947 H945 0.959 . S
C947 H946 0.961 . S
C947 H948 0.960 . S
H948 C947 0.960 . S
H949 N929 0.862 . S
O950 Co918 1.920 . S
O950 C923 1.289 . S
C951 O943 1.258 . S
C951 O944 1.266 . S
Co952 O955 1.970 . S
Co952 N969 1.989 . S
Co952 O977 1.967 . S
Co952 O984 1.920 . S
Co953 O956 1.966 . S
Co953 N962 2.022 . S
Co953 N970 1.993 . S
Co953 O978 1.941 . S
C954 O955 1.258 . S
C954 O956 1.263 . S
O955 Co952 1.970 . S
O955 C954 1.258 . S
O956 Co953 1.966 . S
O956 C954 1.263 . S
C957 O958 1.235 . S
C957 O984 1.289 . S
O958 C957 1.235 . S
C959 C961 1.400 . S
C959 N962 1.351 . S
C959 C964 1.501 . S
C960 C961 1.387 . S
C960 N963 1.341 . S
C961 C959 1.400 . S
C961 C960 1.387 . S
N962 Co953 2.022 . S
N962 C959 1.351 . S
N962 N963 1.365 . S
N963 C960 1.341 . S
N963 N962 1.365 . S
N963 H983 0.862 . S
C964 C959 1.501 . S
C964 H965 0.961 . S
C964 H966 0.961 . S
C964 H967 0.960 . S
H965 C964 0.961 . S
H966 C964 0.961 . S
H967 C964 0.960 . S
C968 N969 1.342 . S
C968 C972 1.401 . S
C968 C973 1.499 . S
N969 Co952 1.989 . S
N969 C968 1.342 . S
N969 N970 1.388 . S
N970 Co953 1.993 . S
N970 N969 1.388 . S
N970 C971 1.346 . S
C971 N970 1.346 . S
C971 C972 1.396 . S
C971 C981 1.510 . S
C972 C968 1.401 . S
C972 C971 1.396 . S
C973 C968 1.499 . S
C973 H974 0.959 . S
C973 H975 0.960 . S
C973 H976 0.961 . S
H974 C973 0.959 . S
H975 C973 0.960 . S
H976 C973 0.961 . S
O977 Co952 1.967 . S
O977 C985 1.258 . S
O978 Co953 1.941 . S
O978 C985 1.266 . S
H979 C981 0.959 . S
H980 C981 0.961 . S
C981 C971 1.510 . S
C981 H979 0.959 . S
C981 H980 0.961 . S
C981 H982 0.960 . S
H982 C981 0.960 . S
H983 N963 0.862 . S
O984 Co952 1.920 . S
O984 C957 1.289 . S
C985 O977 1.258 . S
C985 O978 1.266 . S
Co986 O989 1.970 . S
Co986 N1003 1.989 . S
Co986 O1011 1.967 . S
Co986 O1018 1.920 . S
Co987 O990 1.966 . S
Co987 N996 2.022 . S
Co987 N1004 1.993 . S
Co987 O1012 1.941 . S
C988 O989 1.258 . S
C988 O990 1.263 . S
O989 Co986 1.970 . S
O989 C988 1.258 . S
O990 Co987 1.966 . S
O990 C988 1.263 . S
C991 O992 1.235 . S
C991 O1018 1.289 . S
O992 C991 1.235 . S
C993 C995 1.400 . S
C993 N996 1.351 . S
C993 C998 1.501 . S
C994 C995 1.387 . S
C994 N997 1.341 . S
C995 C993 1.400 . S
C995 C994 1.387 . S
N996 Co987 2.022 . S
N996 C993 1.351 . S
N996 N997 1.365 . S
N997 C994 1.341 . S
N997 N996 1.365 . S
N997 H1017 0.862 . S
C998 C993 1.501 . S
C998 H999 0.961 . S
C998 H1000 0.961 . S
C998 H1001 0.960 . S
H999 C998 0.961 . S
H1000 C998 0.961 . S
H1001 C998 0.960 . S
C1002 N1003 1.342 . S
C1002 C1006 1.401 . S
C1002 C1007 1.499 . S
N1003 Co986 1.989 . S
N1003 C1002 1.342 . S
N1003 N1004 1.388 . S
N1004 Co987 1.993 . S
N1004 N1003 1.388 . S
N1004 C1005 1.346 . S
C1005 N1004 1.346 . S
C1005 C1006 1.396 . S
C1005 C1015 1.510 . S
C1006 C1002 1.401 . S
C1006 C1005 1.396 . S
C1007 C1002 1.499 . S
C1007 H1008 0.959 . S
C1007 H1009 0.960 . S
C1007 H1010 0.961 . S
H1008 C1007 0.959 . S
H1009 C1007 0.960 . S
H1010 C1007 0.961 . S
O1011 Co986 1.967 . S
O1011 C1019 1.258 . S
O1012 Co987 1.941 . S
O1012 C1019 1.266 . S
H1013 C1015 0.959 . S
H1014 C1015 0.961 . S
C1015 C1005 1.510 . S
C1015 H1013 0.959 . S
C1015 H1014 0.961 . S
C1015 H1016 0.960 . S
H1016 C1015 0.960 . S
H1017 N997 0.862 . S
O1018 Co986 1.920 . S
O1018 C991 1.289 . S
C1019 O1011 1.258 . S
C1019 O1012 1.266 . S
Co1020 O1023 1.970 . S
Co1020 N1037 1.989 . S
Co1020 O1045 1.967 . S
Co1020 O1052 1.920 . S
Co1021 O1024 1.966 . S
Co1021 N1030 2.022 . S
Co1021 N1038 1.993 . S
Co1021 O1046 1.941 . S
C1022 O1023 1.258 . S
C1022 O1024 1.263 . S
O1023 Co1020 1.970 . S
O1023 C1022 1.258 . S
O1024 Co1021 1.966 . S
O1024 C1022 1.263 . S
C1025 O1026 1.235 . S
C1025 O1052 1.289 . S
O1026 C1025 1.235 . S
C1027 C1029 1.400 . S
C1027 N1030 1.351 . S
C1027 C1032 1.501 . S
C1028 C1029 1.387 . S
C1028 N1031 1.341 . S
C1029 C1027 1.400 . S
C1029 C1028 1.387 . S
N1030 Co1021 2.022 . S
N1030 C1027 1.351 . S
N1030 N1031 1.365 . S
N1031 C1028 1.341 . S
N1031 N1030 1.365 . S
N1031 H1051 0.862 . S
C1032 C1027 1.501 . S
C1032 H1033 0.961 . S
C1032 H1034 0.961 . S
C1032 H1035 0.960 . S
H1033 C1032 0.961 . S
H1034 C1032 0.961 . S
H1035 C1032 0.960 . S
C1036 N1037 1.342 . S
C1036 C1040 1.401 . S
C1036 C1041 1.499 . S
N1037 Co1020 1.989 . S
N1037 C1036 1.342 . S
N1037 N1038 1.388 . S
N1038 Co1021 1.993 . S
N1038 N1037 1.388 . S
N1038 C1039 1.346 . S
C1039 N1038 1.346 . S
C1039 C1040 1.396 . S
C1039 C1049 1.510 . S
C1040 C1036 1.401 . S
C1040 C1039 1.396 . S
C1041 C1036 1.499 . S
C1041 H1042 0.959 . S
C1041 H1043 0.960 . S
C1041 H1044 0.961 . S
H1042 C1041 0.959 . S
H1043 C1041 0.960 . S
H1044 C1041 0.961 . S
O1045 Co1020 1.967 . S
O1045 C1053 1.258 . S
O1046 Co1021 1.941 . S
O1046 C1053 1.266 . S
H1047 C1049 0.959 . S
H1048 C1049 0.961 . S
C1049 C1039 1.510 . S
C1049 H1047 0.959 . S
C1049 H1048 0.961 . S
C1049 H1050 0.960 . S
H1050 C1049 0.960 . S
H1051 N1031 0.862 . S
O1052 Co1020 1.920 . S
O1052 C1025 1.289 . S
C1053 O1045 1.258 . S
C1053 O1046 1.266 . S
Co1054 O1057 1.970 . S
Co1054 N1071 1.989 . S
Co1054 O1079 1.967 . S
Co1054 O1086 1.920 . S
Co1055 O1058 1.966 . S
Co1055 N1064 2.022 . S
Co1055 N1072 1.993 . S
Co1055 O1080 1.941 . S
C1056 O1057 1.258 . S
C1056 O1058 1.263 . S
O1057 Co1054 1.970 . S
O1057 C1056 1.258 . S
O1058 Co1055 1.966 . S
O1058 C1056 1.263 . S
C1059 O1060 1.235 . S
C1059 O1086 1.289 . S
O1060 C1059 1.235 . S
C1061 C1063 1.400 . S
C1061 N1064 1.351 . S
C1061 C1066 1.501 . S
C1062 C1063 1.387 . S
C1062 N1065 1.341 . S
C1063 C1061 1.400 . S
C1063 C1062 1.387 . S
N1064 Co1055 2.022 . S
N1064 C1061 1.351 . S
N1064 N1065 1.365 . S
N1065 C1062 1.341 . S
N1065 N1064 1.365 . S
N1065 H1085 0.862 . S
C1066 C1061 1.501 . S
C1066 H1067 0.961 . S
C1066 H1068 0.961 . S
C1066 H1069 0.960 . S
H1067 C1066 0.961 . S
H1068 C1066 0.961 . S
H1069 C1066 0.960 . S
C1070 N1071 1.342 . S
C1070 C1074 1.401 . S
C1070 C1075 1.499 . S
N1071 Co1054 1.989 . S
N1071 C1070 1.342 . S
N1071 N1072 1.388 . S
N1072 Co1055 1.993 . S
N1072 N1071 1.388 . S
N1072 C1073 1.346 . S
C1073 N1072 1.346 . S
C1073 C1074 1.396 . S
C1073 C1083 1.510 . S
C1074 C1070 1.401 . S
C1074 C1073 1.396 . S
C1075 C1070 1.499 . S
C1075 H1076 0.959 . S
C1075 H1077 0.960 . S
C1075 H1078 0.961 . S
H1076 C1075 0.959 . S
H1077 C1075 0.960 . S
H1078 C1075 0.961 . S
O1079 Co1054 1.967 . S
O1079 C1087 1.258 . S
O1080 Co1055 1.941 . S
O1080 C1087 1.266 . S
H1081 C1083 0.959 . S
H1082 C1083 0.961 . S
C1083 C1073 1.510 . S
C1083 H1081 0.959 . S
C1083 H1082 0.961 . S
C1083 H1084 0.960 . S
H1084 C1083 0.960 . S
H1085 N1065 0.862 . S
O1086 Co1054 1.920 . S
O1086 C1059 1.289 . S
C1087 O1079 1.258 . S
C1087 O1080 1.266 . S
C1088 C1089 1.363 1_565 S
C1088 C1094 1.379 . S
C1088 N1096 1.356 . S
C1089 C1088 1.363 1_545 S
C1089 C1095 1.363 . S
C1090 C1091 1.363 . S
C1090 C1095 1.379 . S
C1090 N1097 1.356 . S
C1091 C1090 1.363 . S
C1091 C1094 1.363 1_545 S
N1092 C1094 1.356 . S
N1092 H1104 0.984 . S
N1092 H1105 0.985 . S
N1093 C1095 1.356 . S
N1093 H1098 0.984 . S
N1093 H1099 0.985 . S
C1094 C1088 1.379 . S
C1094 C1091 1.363 1_565 S
C1094 N1092 1.356 . S
C1095 C1089 1.363 . S
C1095 C1090 1.379 . S
C1095 N1093 1.356 . S
N1096 C1088 1.356 . S
N1096 H1102 0.984 . S
N1096 H1103 0.984 . S
N1097 C1090 1.356 . S
N1097 H1100 0.984 . S
N1097 H1101 0.985 . S
H1098 N1093 0.984 . S
H1099 N1093 0.985 . S
H1100 N1097 0.984 . S
H1101 N1097 0.985 . S
H1102 N1096 0.984 . S
H1103 N1096 0.984 . S
H1104 N1092 0.984 . S
H1105 N1092 0.985 . S
C1106 C1107 1.363 . S
C1106 C1112 1.379 . S
C1106 N1114 1.356 . S
C1107 C1106 1.363 . S
C1107 C1113 1.363 1_565 S
C1108 C1109 1.363 1_545 S
C1108 C1113 1.379 . S
C1108 N1115 1.356 . S
C1109 C1108 1.363 1_565 S
C1109 C1112 1.363 . S
N1110 C1112 1.356 . S
N1110 H1122 0.984 . S
N1110 H1123 0.985 . S
N1111 C1113 1.356 . S
N1111 H1116 0.984 . S
N1111 H1117 0.985 . S
C1112 C1106 1.379 . S
C1112 C1109 1.363 . S
C1112 N1110 1.356 . S
C1113 C1107 1.363 1_545 S
C1113 C1108 1.379 . S
C1113 N1111 1.356 . S
N1114 C1106 1.356 . S
N1114 H1120 0.984 . S
N1114 H1121 0.984 . S
N1115 C1108 1.356 . S
N1115 H1118 0.984 . S
N1115 H1119 0.985 . S
H1116 N1111 0.984 . S
H1117 N1111 0.985 . S
H1118 N1115 0.984 . S
H1119 N1115 0.985 . S
H1120 N1114 0.984 . S
H1121 N1114 0.984 . S
H1122 N1110 0.984 . S
H1123 N1110 0.985 . S
C1124 C1125 1.363 . S
C1124 C1130 1.379 . S
C1124 N1132 1.356 . S
C1125 C1124 1.363 . S
C1125 C1131 1.363 1_565 S
C1126 C1127 1.363 1_545 S
C1126 C1131 1.379 . S
C1126 N1133 1.356 . S
C1127 C1126 1.363 1_565 S
C1127 C1130 1.363 . S
N1128 C1130 1.356 . S
N1128 H1140 0.984 . S
N1128 H1141 0.985 . S
N1129 C1131 1.356 . S
N1129 H1134 0.984 . S
N1129 H1135 0.985 . S
C1130 C1124 1.379 . S
C1130 C1127 1.363 . S
C1130 N1128 1.356 . S
C1131 C1125 1.363 1_545 S
C1131 C1126 1.379 . S
C1131 N1129 1.356 . S
N1132 C1124 1.356 . S
N1132 H1138 0.984 . S
N1132 H1139 0.984 . S
N1133 C1126 1.356 . S
N1133 H1136 0.984 . S
N1133 H1137 0.985 . S
H1134 N1129 0.984 . S
H1135 N1129 0.985 . S
H1136 N1133 0.984 . S
H1137 N1133 0.985 . S
H1138 N1132 0.984 . S
H1139 N1132 0.984 . S
H1140 N1128 0.984 . S
H1141 N1128 0.985 . S
C1142 C1143 1.363 1_565 S
C1142 C1148 1.379 . S
C1142 N1150 1.356 . S
C1143 C1142 1.363 1_545 S
C1143 C1149 1.363 . S
C1144 C1145 1.363 . S
C1144 C1149 1.379 . S
C1144 N1151 1.356 . S
C1145 C1144 1.363 . S
C1145 C1148 1.363 1_545 S
N1146 C1148 1.356 . S
N1146 H1158 0.984 . S
N1146 H1159 0.985 . S
N1147 C1149 1.356 . S
N1147 H1152 0.984 . S
N1147 H1153 0.985 . S
C1148 C1142 1.379 . S
C1148 C1145 1.363 1_565 S
C1148 N1146 1.356 . S
C1149 C1143 1.363 . S
C1149 C1144 1.379 . S
C1149 N1147 1.356 . S
N1150 C1142 1.356 . S
N1150 H1156 0.984 . S
N1150 H1157 0.984 . S
N1151 C1144 1.356 . S
N1151 H1154 0.984 . S
N1151 H1155 0.985 . S
H1152 N1147 0.984 . S
H1153 N1147 0.985 . S
H1154 N1151 0.984 . S
H1155 N1151 0.985 . S
H1156 N1150 0.984 . S
H1157 N1150 0.984 . S
H1158 N1146 0.984 . S
H1159 N1146 0.985 . S
C1160 C1161 1.363 . S
C1160 C1166 1.379 . S
C1160 N1168 1.356 . S
C1161 C1160 1.363 . S
C1161 C1167 1.363 1_565 S
C1162 C1163 1.363 1_545 S
C1162 C1167 1.379 . S
C1162 N1169 1.356 . S
C1163 C1162 1.363 1_565 S
C1163 C1166 1.363 . S
N1164 C1166 1.356 . S
N1164 H1176 0.984 . S
N1164 H1177 0.985 . S
N1165 C1167 1.356 . S
N1165 H1170 0.984 . S
N1165 H1171 0.985 . S
C1166 C1160 1.379 . S
C1166 C1163 1.363 . S
C1166 N1164 1.356 . S
C1167 C1161 1.363 1_545 S
C1167 C1162 1.379 . S
C1167 N1165 1.356 . S
N1168 C1160 1.356 . S
N1168 H1174 0.984 . S
N1168 H1175 0.984 . S
N1169 C1162 1.356 . S
N1169 H1172 0.984 . S
N1169 H1173 0.985 . S
H1170 N1165 0.984 . S
H1171 N1165 0.985 . S
H1172 N1169 0.984 . S
H1173 N1169 0.985 . S
H1174 N1168 0.984 . S
H1175 N1168 0.984 . S
H1176 N1164 0.984 . S
H1177 N1164 0.985 . S
C1178 C1179 1.363 . S
C1178 C1184 1.379 . S
C1178 N1186 1.356 . S
C1179 C1178 1.363 . S
C1179 C1185 1.363 . S
C1180 C1181 1.363 . S
C1180 C1185 1.379 . S
C1180 N1187 1.356 . S
C1181 C1180 1.363 . S
C1181 C1184 1.363 . S
N1182 C1184 1.356 1_565 S
N1182 H1194 0.984 . S
N1182 H1195 0.985 . S
N1183 C1185 1.356 . S
N1183 H1188 0.984 . S
N1183 H1189 0.985 . S
C1184 C1178 1.379 . S
C1184 C1181 1.363 . S
C1184 N1182 1.356 1_545 S
C1185 C1179 1.363 . S
C1185 C1180 1.379 . S
C1185 N1183 1.356 . S
N1186 C1178 1.356 . S
N1186 H1192 0.984 . S
N1186 H1193 0.984 . S
N1187 C1180 1.356 . S
N1187 H1190 0.984 . S
N1187 H1191 0.985 . S
H1188 N1183 0.984 . S
H1189 N1183 0.985 . S
H1190 N1187 0.984 . S
H1191 N1187 0.985 . S
H1192 N1186 0.984 . S
H1193 N1186 0.984 . S
H1194 N1182 0.984 . S
H1195 N1182 0.985 . S
C1196 C1197 1.363 . S
C1196 C1202 1.379 . S
C1196 N1204 1.356 . S
C1197 C1196 1.363 . S
C1197 C1203 1.363 1_545 S
C1198 C1199 1.363 1_565 S
C1198 C1203 1.379 . S
C1198 N1205 1.356 . S
C1199 C1198 1.363 1_545 S
C1199 C1202 1.363 . S
N1200 C1202 1.356 . S
N1200 H1212 0.984 . S
N1200 H1213 0.985 . S
N1201 C1203 1.356 . S
N1201 H1206 0.984 . S
N1201 H1207 0.985 . S
C1202 C1196 1.379 . S
C1202 C1199 1.363 . S
C1202 N1200 1.356 . S
C1203 C1197 1.363 1_565 S
C1203 C1198 1.379 . S
C1203 N1201 1.356 . S
N1204 C1196 1.356 . S
N1204 H1210 0.984 . S
N1204 H1211 0.984 . S
N1205 C1198 1.356 . S
N1205 H1208 0.984 . S
N1205 H1209 0.985 . S
H1206 N1201 0.984 . S
H1207 N1201 0.985 . S
H1208 N1205 0.984 . S
H1209 N1205 0.985 . S
H1210 N1204 0.984 . S
H1211 N1204 0.984 . S
H1212 N1200 0.984 . S
H1213 N1200 0.985 . S
C1214 C1215 1.363 . S
C1214 C1220 1.379 . S
C1214 N1222 1.356 . S
C1215 C1214 1.363 . S
C1215 C1221 1.363 1_565 S
C1216 C1217 1.363 1_545 S
C1216 C1221 1.379 . S
C1216 N1223 1.356 . S
C1217 C1216 1.363 1_565 S
C1217 C1220 1.363 . S
N1218 C1220 1.356 . S
N1218 H1230 0.984 . S
N1218 H1231 0.985 . S
N1219 C1221 1.356 . S
N1219 H1224 0.984 . S
N1219 H1225 0.985 . S
C1220 C1214 1.379 . S
C1220 C1217 1.363 . S
C1220 N1218 1.356 . S
C1221 C1215 1.363 1_545 S
C1221 C1216 1.379 . S
C1221 N1219 1.356 . S
N1222 C1214 1.356 . S
N1222 H1228 0.984 . S
N1222 H1229 0.984 . S
N1223 C1216 1.356 . S
N1223 H1226 0.984 . S
N1223 H1227 0.985 . S
H1224 N1219 0.984 . S
H1225 N1219 0.985 . S
H1226 N1223 0.984 . S
H1227 N1223 0.985 . S
H1228 N1222 0.984 . S
H1229 N1222 0.984 . S
H1230 N1218 0.984 . S
H1231 N1218 0.985 . S
C1232 C1233 1.363 . S
C1232 C1238 1.379 . S
C1232 N1240 1.356 . S
C1233 C1232 1.363 . S
C1233 C1239 1.363 . S
C1234 C1235 1.363 . S
C1234 C1239 1.379 . S
C1234 N1241 1.356 . S
C1235 C1234 1.363 . S
C1235 C1238 1.363 . S
N1236 C1238 1.356 . S
N1236 H1248 0.984 . S
N1236 H1249 0.985 . S
N1237 C1239 1.356 . S
N1237 H1242 0.984 . S
N1237 H1243 0.985 . S
C1238 C1232 1.379 . S
C1238 C1235 1.363 . S
C1238 N1236 1.356 . S
C1239 C1233 1.363 . S
C1239 C1234 1.379 . S
C1239 N1237 1.356 . S
N1240 C1232 1.356 . S
N1240 H1246 0.984 . S
N1240 H1247 0.984 . S
N1241 C1234 1.356 . S
N1241 H1244 0.984 . S
N1241 H1245 0.985 . S
H1242 N1237 0.984 . S
H1243 N1237 0.985 . S
H1244 N1241 0.984 . S
H1245 N1241 0.985 . S
H1246 N1240 0.984 . S
H1247 N1240 0.984 . S
H1248 N1236 0.984 . S
H1249 N1236 0.985 . S
C1250 C1251 1.363 . S
C1250 C1256 1.379 . S
C1250 N1258 1.356 . S
C1251 C1250 1.363 . S
C1251 C1257 1.363 . S
C1252 C1253 1.363 . S
C1252 C1257 1.379 . S
C1252 N1259 1.356 . S
C1253 C1252 1.363 . S
C1253 C1256 1.363 . S
N1254 C1256 1.356 . S
N1254 H1266 0.984 . S
N1254 H1267 0.985 . S
N1255 C1257 1.356 . S
N1255 H1260 0.984 . S
N1255 H1261 0.985 . S
C1256 C1250 1.379 . S
C1256 C1253 1.363 . S
C1256 N1254 1.356 . S
C1257 C1251 1.363 . S
C1257 C1252 1.379 . S
C1257 N1255 1.356 . S
N1258 C1250 1.356 . S
N1258 H1264 0.984 . S
N1258 H1265 0.984 . S
N1259 C1252 1.356 . S
N1259 H1262 0.984 . S
N1259 H1263 0.985 . S
H1260 N1255 0.984 . S
H1261 N1255 0.985 . S
H1262 N1259 0.984 . S
H1263 N1259 0.985 . S
H1264 N1258 0.984 . S
H1265 N1258 0.984 . S
H1266 N1254 0.984 . S
H1267 N1254 0.985 . S
C1268 C1269 1.363 . S
C1268 C1274 1.379 . S
C1268 N1276 1.356 . S
C1269 C1268 1.363 . S
C1269 C1275 1.363 . S
C1270 C1271 1.363 . S
C1270 C1275 1.379 . S
C1270 N1277 1.356 . S
C1271 C1270 1.363 . S
C1271 C1274 1.363 . S
N1272 C1274 1.356 . S
N1272 H1284 0.984 . S
N1272 H1285 0.985 . S
N1273 C1275 1.356 . S
N1273 H1278 0.984 . S
N1273 H1279 0.985 . S
C1274 C1268 1.379 . S
C1274 C1271 1.363 . S
C1274 N1272 1.356 . S
C1275 C1269 1.363 . S
C1275 C1270 1.379 . S
C1275 N1273 1.356 . S
N1276 C1268 1.356 . S
N1276 H1282 0.984 . S
N1276 H1283 0.984 . S
N1277 C1270 1.356 . S
N1277 H1280 0.984 . S
N1277 H1281 0.985 . S
H1278 N1273 0.984 . S
H1279 N1273 0.985 . S
H1280 N1277 0.984 . S
H1281 N1277 0.985 . S
H1282 N1276 0.984 . S
H1283 N1276 0.984 . S
H1284 N1272 0.984 . S
H1285 N1272 0.985 . S
C1286 C1287 1.363 . S
C1286 C1292 1.379 . S
C1286 N1294 1.356 . S
C1287 C1286 1.363 . S
C1287 C1293 1.363 . S
C1288 C1289 1.363 . S
C1288 C1293 1.379 . S
C1288 N1295 1.356 . S
C1289 C1288 1.363 . S
C1289 C1292 1.363 . S
N1290 C1292 1.356 . S
N1290 H1302 0.984 . S
N1290 H1303 0.985 . S
N1291 C1293 1.356 . S
N1291 H1296 0.984 . S
N1291 H1297 0.985 . S
C1292 C1286 1.379 . S
C1292 C1289 1.363 . S
C1292 N1290 1.356 . S
C1293 C1287 1.363 . S
C1293 C1288 1.379 . S
C1293 N1291 1.356 . S
N1294 C1286 1.356 . S
N1294 H1300 0.984 . S
N1294 H1301 0.984 . S
N1295 C1288 1.356 . S
N1295 H1298 0.984 . S
N1295 H1299 0.985 . S
H1296 N1291 0.984 . S
H1297 N1291 0.985 . S
H1298 N1295 0.984 . S
H1299 N1295 0.985 . S
H1300 N1294 0.984 . S
H1301 N1294 0.984 . S
H1302 N1290 0.984 . S
H1303 N1290 0.985 . S
C1304 C1305 1.363 . S
C1304 C1310 1.379 . S
C1304 N1312 1.356 . S
C1305 C1304 1.363 . S
C1305 C1311 1.363 . S
C1306 C1307 1.363 . S
C1306 C1311 1.379 . S
C1306 N1313 1.356 . S
C1307 C1306 1.363 . S
C1307 C1310 1.363 . S
N1308 C1310 1.356 . S
N1308 H1320 0.984 . S
N1308 H1321 0.985 . S
N1309 C1311 1.356 . S
N1309 H1314 0.984 . S
N1309 H1315 0.985 . S
C1310 C1304 1.379 . S
C1310 C1307 1.363 . S
C1310 N1308 1.356 . S
C1311 C1305 1.363 . S
C1311 C1306 1.379 . S
C1311 N1309 1.356 . S
N1312 C1304 1.356 . S
N1312 H1318 0.984 . S
N1312 H1319 0.984 . S
N1313 C1306 1.356 . S
N1313 H1316 0.984 . S
N1313 H1317 0.985 . S
H1314 N1309 0.984 . S
H1315 N1309 0.985 . S
H1316 N1313 0.984 . S
H1317 N1313 0.985 . S
H1318 N1312 0.984 . S
H1319 N1312 0.984 . S
H1320 N1308 0.984 . S
H1321 N1308 0.985 . S
C1322 C1323 1.363 . S
C1322 C1328 1.379 . S
C1322 N1330 1.356 . S
C1323 C1322 1.363 . S
C1323 C1329 1.363 . S
C1324 C1325 1.363 . S
C1324 C1329 1.379 . S
C1324 N1331 1.356 . S
C1325 C1324 1.363 . S
C1325 C1328 1.363 . S
N1326 C1328 1.356 . S
N1326 H1338 0.984 . S
N1326 H1339 0.985 . S
N1327 C1329 1.356 . S
N1327 H1332 0.984 . S
N1327 H1333 0.985 . S
C1328 C1322 1.379 . S
C1328 C1325 1.363 . S
C1328 N1326 1.356 . S
C1329 C1323 1.363 . S
C1329 C1324 1.379 . S
C1329 N1327 1.356 . S
N1330 C1322 1.356 . S
N1330 H1336 0.984 . S
N1330 H1337 0.984 . S
N1331 C1324 1.356 . S
N1331 H1334 0.984 . S
N1331 H1335 0.985 . S
H1332 N1327 0.984 . S
H1333 N1327 0.985 . S
H1334 N1331 0.984 . S
H1335 N1331 0.985 . S
H1336 N1330 0.984 . S
H1337 N1330 0.984 . S
H1338 N1326 0.984 . S
H1339 N1326 0.985 . S
C1340 C1341 1.363 . S
C1340 C1346 1.379 . S
C1340 N1348 1.356 . S
C1341 C1340 1.363 . S
C1341 C1347 1.363 . S
C1342 C1343 1.363 . S
C1342 C1347 1.379 . S
C1342 N1349 1.356 . S
C1343 C1342 1.363 . S
C1343 C1346 1.363 . S
N1344 C1346 1.356 . S
N1344 H1356 0.984 . S
N1344 H1357 0.985 . S
N1345 C1347 1.356 . S
N1345 H1350 0.984 . S
N1345 H1351 0.985 . S
C1346 C1340 1.379 . S
C1346 C1343 1.363 . S
C1346 N1344 1.356 . S
C1347 C1341 1.363 . S
C1347 C1342 1.379 . S
C1347 N1345 1.356 . S
N1348 C1340 1.356 . S
N1348 H1354 0.984 . S
N1348 H1355 0.984 . S
N1349 C1342 1.356 . S
N1349 H1352 0.984 . S
N1349 H1353 0.985 . S
H1350 N1345 0.984 . S
H1351 N1345 0.985 . S
H1352 N1349 0.984 . S
H1353 N1349 0.985 . S
H1354 N1348 0.984 . S
H1355 N1348 0.984 . S
H1356 N1344 0.984 . S
H1357 N1344 0.985 . S
C1358 C1359 1.363 . S
C1358 C1364 1.379 . S
C1358 N1366 1.356 . S
C1359 C1358 1.363 . S
C1359 C1365 1.363 . S
C1360 C1361 1.363 . S
C1360 C1365 1.379 . S
C1360 N1367 1.356 . S
C1361 C1360 1.363 . S
C1361 C1364 1.363 . S
N1362 C1364 1.356 . S
N1362 H1374 0.984 . S
N1362 H1375 0.985 . S
N1363 C1365 1.356 . S
N1363 H1368 0.984 . S
N1363 H1369 0.985 . S
C1364 C1358 1.379 . S
C1364 C1361 1.363 . S
C1364 N1362 1.356 . S
C1365 C1359 1.363 . S
C1365 C1360 1.379 . S
C1365 N1363 1.356 . S
N1366 C1358 1.356 . S
N1366 H1372 0.984 . S
N1366 H1373 0.984 . S
N1367 C1360 1.356 . S
N1367 H1370 0.984 . S
N1367 H1371 0.985 . S
H1368 N1363 0.984 . S
H1369 N1363 0.985 . S
H1370 N1367 0.984 . S
H1371 N1367 0.985 . S
H1372 N1366 0.984 . S
H1373 N1366 0.984 . S
H1374 N1362 0.984 . S
H1375 N1362 0.985 . S
C1376 C1377 1.363 . S
C1376 C1382 1.379 . S
C1376 N1384 1.356 . S
C1377 C1376 1.363 . S
C1377 C1383 1.363 . S
C1378 C1379 1.363 . S
C1378 C1383 1.379 . S
C1378 N1385 1.356 . S
C1379 C1378 1.363 . S
C1379 C1382 1.363 . S
N1380 C1382 1.356 . S
N1380 H1392 0.984 . S
N1380 H1393 0.985 . S
N1381 C1383 1.356 . S
N1381 H1386 0.984 . S
N1381 H1387 0.985 . S
C1382 C1376 1.379 . S
C1382 C1379 1.363 . S
C1382 N1380 1.356 . S
C1383 C1377 1.363 . S
C1383 C1378 1.379 . S
C1383 N1381 1.356 . S
N1384 C1376 1.356 . S
N1384 H1390 0.984 . S
N1384 H1391 0.984 . S
N1385 C1378 1.356 . S
N1385 H1388 0.984 . S
N1385 H1389 0.985 . S
H1386 N1381 0.984 . S
H1387 N1381 0.985 . S
H1388 N1385 0.984 . S
H1389 N1385 0.985 . S
H1390 N1384 0.984 . S
H1391 N1384 0.984 . S
H1392 N1380 0.984 . S
H1393 N1380 0.985 . S
C1394 C1395 1.371 . S
C1394 C1400 1.376 1_545 S
C1394 N1402 1.353 1_545 S
C1395 C1394 1.371 . S
C1395 C1401 1.363 . S
C1396 C1397 1.363 . S
C1396 C1401 1.379 . S
C1396 N1403 1.356 . S
C1397 C1396 1.363 . S
C1397 C1400 1.363 1_545 S
N1398 C1400 1.356 . S
N1398 H1410 0.984 . S
N1398 H1411 0.985 . S
N1399 C1401 1.356 . S
N1399 H1404 0.984 . S
N1399 H1405 0.985 . S
C1400 C1394 1.376 1_565 S
C1400 C1397 1.363 1_565 S
C1400 N1398 1.356 . S
C1401 C1395 1.363 . S
C1401 C1396 1.379 . S
C1401 N1399 1.356 . S
N1402 C1394 1.353 1_565 S
N1402 H1408 0.984 . S
N1402 H1409 0.984 1_565 S
N1403 C1396 1.356 . S
N1403 H1406 0.984 . S
N1403 H1407 0.985 . S
H1404 N1399 0.984 . S
H1405 N1399 0.985 . S
H1406 N1403 0.984 . S
H1407 N1403 0.985 . S
H1408 N1402 0.984 . S
H1409 N1402 0.984 1_545 S
H1410 N1398 0.984 . S
H1411 N1398 0.985 . S
C1412 C1413 1.363 . S
C1412 C1418 1.379 . S
C1412 N1420 1.356 . S
C1413 C1412 1.363 . S
C1413 C1419 1.363 . S
C1414 C1415 1.363 . S
C1414 C1419 1.379 . S
C1414 N1421 1.356 . S
C1415 C1414 1.363 . S
C1415 C1418 1.363 . S
N1416 C1418 1.356 . S
N1416 H1428 0.984 . S
N1416 H1429 0.985 . S
N1417 C1419 1.356 . S
N1417 H1422 0.984 . S
N1417 H1423 0.985 . S
C1418 C1412 1.379 . S
C1418 C1415 1.363 . S
C1418 N1416 1.356 . S
C1419 C1413 1.363 . S
C1419 C1414 1.379 . S
C1419 N1417 1.356 . S
N1420 C1412 1.356 . S
N1420 H1426 0.984 . S
N1420 H1427 0.984 . S
N1421 C1414 1.356 . S
N1421 H1424 0.984 . S
N1421 H1425 0.985 . S
H1422 N1417 0.984 . S
H1423 N1417 0.985 . S
H1424 N1421 0.984 . S
H1425 N1421 0.985 . S
H1426 N1420 0.984 . S
H1427 N1420 0.984 . S
H1428 N1416 0.984 . S
H1429 N1416 0.985 . S
C1430 C1431 1.363 . S
C1430 C1436 1.379 1_465 S
C1430 N1438 1.356 1_565 S
C1431 C1430 1.363 . S
C1431 C1437 1.363 . S
C1432 C1433 1.363 . S
C1432 C1437 1.379 1_655 S
C1432 N1439 1.356 . S
C1433 C1432 1.363 . S
C1433 C1436 1.363 1_565 S
N1434 C1436 1.356 . S
N1434 H1446 0.984 . S
N1434 H1447 0.985 . S
N1435 C1437 1.356 . S
N1435 H1440 0.984 . S
N1435 H1441 0.985 . S
C1436 C1430 1.379 1_645 S
C1436 C1433 1.363 1_545 S
C1436 N1434 1.356 . S
C1437 C1431 1.363 . S
C1437 C1432 1.379 1_455 S
C1437 N1435 1.356 . S
N1438 C1430 1.356 1_545 S
N1438 H1444 0.984 . S
N1438 H1445 0.984 1_545 S
N1439 C1432 1.356 . S
N1439 H1442 0.984 . S
N1439 H1443 0.985 . S
H1440 N1435 0.984 . S
H1441 N1435 0.985 . S
H1442 N1439 0.984 . S
H1443 N1439 0.985 . S
H1444 N1438 0.984 . S
H1445 N1438 0.984 1_565 S
H1446 N1434 0.984 . S
H1447 N1434 0.985 . S
C1448 C1449 1.363 . S
C1448 C1454 1.379 . S
C1448 N1456 1.356 . S
C1449 C1448 1.363 . S
C1449 C1455 1.363 . S
C1450 C1451 1.363 . S
C1450 C1455 1.379 . S
C1450 N1457 1.356 . S
C1451 C1450 1.363 . S
C1451 C1454 1.363 . S
N1452 C1454 1.356 . S
N1452 H1464 0.984 . S
N1452 H1465 0.985 . S
N1453 C1455 1.356 . S
N1453 H1458 0.984 . S
N1453 H1459 0.985 . S
C1454 C1448 1.379 . S
C1454 C1451 1.363 . S
C1454 N1452 1.356 . S
C1455 C1449 1.363 . S
C1455 C1450 1.379 . S
C1455 N1453 1.356 . S
N1456 C1448 1.356 . S
N1456 H1462 0.984 . S
N1456 H1463 0.984 . S
N1457 C1450 1.356 . S
N1457 H1460 0.984 . S
N1457 H1461 0.985 . S
H1458 N1453 0.984 . S
H1459 N1453 0.985 . S
H1460 N1457 0.984 . S
H1461 N1457 0.985 . S
H1462 N1456 0.984 . S
H1463 N1456 0.984 . S
H1464 N1452 0.984 . S
H1465 N1452 0.985 . S
C1466 C1467 1.363 1_565 S
C1466 C1472 1.379 1_665 S
C1466 N1474 1.356 . S
C1467 C1466 1.363 1_545 S
C1467 C1473 1.363 . S
C1468 C1469 1.363 . S
C1468 C1473 1.379 1_455 S
C1468 N1475 1.356 . S
C1469 C1468 1.363 . S
C1469 C1472 1.363 . S
N1470 C1472 1.356 1_565 S
N1470 H1482 0.984 . S
N1470 H1483 0.985 1_565 S
N1471 C1473 1.356 . S
N1471 H1476 0.984 . S
N1471 H1477 0.985 . S
C1472 C1466 1.379 1_445 S
C1472 C1469 1.363 . S
C1472 N1470 1.356 1_545 S
C1473 C1467 1.363 . S
C1473 C1468 1.379 1_655 S
C1473 N1471 1.356 . S
N1474 C1466 1.356 . S
N1474 H1480 0.984 . S
N1474 H1481 0.984 . S
N1475 C1468 1.356 . S
N1475 H1478 0.984 . S
N1475 H1479 0.985 . S
H1476 N1471 0.984 . S
H1477 N1471 0.985 . S
H1478 N1475 0.984 . S
H1479 N1475 0.985 . S
H1480 N1474 0.984 . S
H1481 N1474 0.984 . S
H1482 N1470 0.984 . S
H1483 N1470 0.985 1_545 S
C1484 C1485 1.363 . S
C1484 C1490 1.379 . S
C1484 N1492 1.356 . S
C1485 C1484 1.363 . S
C1485 C1491 1.363 . S
C1486 C1487 1.363 . S
C1486 C1491 1.379 . S
C1486 N1493 1.356 . S
C1487 C1486 1.363 . S
C1487 C1490 1.363 . S
N1488 C1490 1.356 . S
N1488 H1500 0.984 . S
N1488 H1501 0.985 . S
N1489 C1491 1.356 . S
N1489 H1494 0.984 . S
N1489 H1495 0.985 . S
C1490 C1484 1.379 . S
C1490 C1487 1.363 . S
C1490 N1488 1.356 . S
C1491 C1485 1.363 . S
C1491 C1486 1.379 . S
C1491 N1489 1.356 . S
N1492 C1484 1.356 . S
N1492 H1498 0.984 . S
N1492 H1499 0.984 . S
N1493 C1486 1.356 . S
N1493 H1496 0.984 . S
N1493 H1497 0.985 . S
H1494 N1489 0.984 . S
H1495 N1489 0.985 . S
H1496 N1493 0.984 . S
H1497 N1493 0.985 . S
H1498 N1492 0.984 . S
H1499 N1492 0.984 . S
H1500 N1488 0.984 . S
H1501 N1488 0.985 . S
C1502 C1503 1.363 . S
C1502 C1508 1.379 . S
C1502 N1510 1.356 . S
C1503 C1502 1.363 . S
C1503 C1509 1.363 1_565 S
C1504 C1505 1.363 1_545 S
C1504 C1509 1.379 . S
C1504 N1511 1.356 . S
C1505 C1504 1.363 1_565 S
C1505 C1508 1.363 . S
N1506 C1508 1.356 . S
N1506 H1518 0.984 . S
N1506 H1519 0.985 . S
N1507 C1509 1.356 . S
N1507 H1512 0.984 . S
N1507 H1513 0.985 . S
C1508 C1502 1.379 . S
C1508 C1505 1.363 . S
C1508 N1506 1.356 . S
C1509 C1503 1.363 1_545 S
C1509 C1504 1.379 . S
C1509 N1507 1.356 . S
N1510 C1502 1.356 . S
N1510 H1516 0.984 . S
N1510 H1517 0.984 . S
N1511 C1504 1.356 . S
N1511 H1514 0.984 . S
N1511 H1515 0.985 . S
H1512 N1507 0.984 . S
H1513 N1507 0.985 . S
H1514 N1511 0.984 . S
H1515 N1511 0.985 . S
H1516 N1510 0.984 . S
H1517 N1510 0.984 . S
H1518 N1506 0.984 . S
H1519 N1506 0.985 . S
C1520 C1521 1.363 . S
C1520 C1526 1.379 . S
C1520 N1528 1.356 . S
C1521 C1520 1.363 . S
C1521 C1527 1.363 . S
C1522 C1523 1.363 . S
C1522 C1527 1.379 . S
C1522 N1529 1.356 . S
C1523 C1522 1.363 . S
C1523 C1526 1.363 . S
N1524 C1526 1.356 . S
N1524 H1536 0.984 . S
N1524 H1537 0.985 . S
N1525 C1527 1.356 . S
N1525 H1530 0.984 . S
N1525 H1531 0.985 . S
C1526 C1520 1.379 . S
C1526 C1523 1.363 . S
C1526 N1524 1.356 . S
C1527 C1521 1.363 . S
C1527 C1522 1.379 . S
C1527 N1525 1.356 . S
N1528 C1520 1.356 . S
N1528 H1534 0.984 . S
N1528 H1535 0.984 . S
N1529 C1522 1.356 . S
N1529 H1532 0.984 . S
N1529 H1533 0.985 . S
H1530 N1525 0.984 . S
H1531 N1525 0.985 . S
H1532 N1529 0.984 . S
H1533 N1529 0.985 . S
H1534 N1528 0.984 . S
H1535 N1528 0.984 . S
H1536 N1524 0.984 . S
H1537 N1524 0.985 . S
C1538 C1539 1.363 . S
C1538 C1544 1.379 1_565 S
C1538 N1546 1.356 1_565 S
C1539 C1538 1.363 . S
C1539 C1545 1.363 . S
C1540 C1541 1.363 . S
C1540 C1545 1.379 . S
C1540 N1547 1.356 . S
C1541 C1540 1.363 . S
C1541 C1544 1.363 1_565 S
N1542 C1544 1.356 . S
N1542 H1554 0.984 . S
N1542 H1555 0.985 . S
N1543 C1545 1.356 . S
N1543 H1548 0.984 . S
N1543 H1549 0.985 . S
C1544 C1538 1.379 1_545 S
C1544 C1541 1.363 1_545 S
C1544 N1542 1.356 . S
C1545 C1539 1.363 . S
C1545 C1540 1.379 . S
C1545 N1543 1.356 . S
N1546 C1538 1.356 1_545 S
N1546 H1552 0.984 . S
N1546 H1553 0.984 1_545 S
N1547 C1540 1.356 . S
N1547 H1550 0.984 . S
N1547 H1551 0.985 . S
H1548 N1543 0.984 . S
H1549 N1543 0.985 . S
H1550 N1547 0.984 . S
H1551 N1547 0.985 . S
H1552 N1546 0.984 . S
H1553 N1546 0.984 1_565 S
H1554 N1542 0.984 . S
H1555 N1542 0.985 . S
C1556 C1557 1.363 . S
C1556 C1562 1.379 . S
C1556 N1564 1.356 . S
C1557 C1556 1.363 . S
C1557 C1563 1.363 . S
C1558 C1559 1.363 . S
C1558 C1563 1.379 . S
C1558 N1565 1.356 . S
C1559 C1558 1.363 . S
C1559 C1562 1.363 . S
N1560 C1562 1.356 . S
N1560 H1572 0.984 . S
N1560 H1573 0.985 . S
N1561 C1563 1.356 . S
N1561 H1566 0.984 . S
N1561 H1567 0.985 . S
C1562 C1556 1.379 . S
C1562 C1559 1.363 . S
C1562 N1560 1.356 . S
C1563 C1557 1.363 . S
C1563 C1558 1.379 . S
C1563 N1561 1.356 . S
N1564 C1556 1.356 . S
N1564 H1570 0.984 . S
N1564 H1571 0.984 . S
N1565 C1558 1.356 . S
N1565 H1568 0.984 . S
N1565 H1569 0.985 . S
H1566 N1561 0.984 . S
H1567 N1561 0.985 . S
H1568 N1565 0.984 . S
H1569 N1565 0.985 . S
H1570 N1564 0.984 . S
H1571 N1564 0.984 . S
H1572 N1560 0.984 . S
H1573 N1560 0.985 . S
C1574 C1575 1.363 1_565 S
C1574 C1580 1.379 1_465 S
C1574 N1582 1.356 . S
C1575 C1574 1.363 1_545 S
C1575 C1581 1.363 . S
C1576 C1577 1.363 . S
C1576 C1581 1.379 1_655 S
C1576 N1583 1.356 . S
C1577 C1576 1.363 . S
C1577 C1580 1.362 . S
N1578 C1580 1.357 1_565 S
N1578 H1590 0.984 . S
N1578 H1591 0.981 1_565 S
N1579 C1581 1.356 . S
N1579 H1584 0.984 . S
N1579 H1585 0.985 . S
C1580 C1574 1.379 1_645 S
C1580 C1577 1.362 . S
C1580 N1578 1.357 1_545 S
C1581 C1575 1.363 . S
C1581 C1576 1.379 1_455 S
C1581 N1579 1.356 . S
N1582 C1574 1.356 . S
N1582 H1588 0.984 . S
N1582 H1589 0.984 . S
N1583 C1576 1.356 . S
N1583 H1586 0.984 . S
N1583 H1587 0.985 . S
H1584 N1579 0.984 . S
H1585 N1579 0.985 . S
H1586 N1583 0.984 . S
H1587 N1583 0.985 . S
H1588 N1582 0.984 . S
H1589 N1582 0.984 . S
H1590 N1578 0.984 . S
H1591 N1578 0.981 1_545 S
C1592 C1593 1.363 . S
C1592 C1598 1.379 . S
C1592 N1600 1.356 . S
C1593 C1592 1.363 . S
C1593 C1599 1.363 . S
C1594 C1595 1.363 . S
C1594 C1599 1.379 . S
C1594 N1601 1.356 . S
C1595 C1594 1.363 . S
C1595 C1598 1.363 . S
N1596 C1598 1.356 . S
N1596 H1608 0.984 . S
N1596 H1609 0.985 . S
N1597 C1599 1.356 . S
N1597 H1602 0.984 . S
N1597 H1603 0.985 . S
C1598 C1592 1.379 . S
C1598 C1595 1.363 . S
C1598 N1596 1.356 . S
C1599 C1593 1.363 . S
C1599 C1594 1.379 . S
C1599 N1597 1.356 . S
N1600 C1592 1.356 . S
N1600 H1606 0.984 . S
N1600 H1607 0.984 . S
N1601 C1594 1.356 . S
N1601 H1604 0.984 . S
N1601 H1605 0.985 . S
H1602 N1597 0.984 . S
H1603 N1597 0.985 . S
H1604 N1601 0.984 . S
H1605 N1601 0.985 . S
H1606 N1600 0.984 . S
H1607 N1600 0.984 . S
H1608 N1596 0.984 . S
H1609 N1596 0.985 . S
C1610 C1611 1.363 . S
C1610 C1616 1.379 1_655 S
C1610 N1618 1.356 . S
C1611 C1610 1.363 . S
C1611 C1617 1.354 1_565 S
C1612 C1613 1.371 1_545 S
C1612 C1617 1.370 1_455 S
C1612 N1619 1.364 . S
C1613 C1612 1.371 1_565 S
C1613 C1616 1.363 . S
N1614 C1616 1.356 . S
N1614 H1626 0.984 . S
N1614 H1627 0.985 . S
N1615 C1617 1.360 . S
N1615 H1620 0.990 . S
N1615 H1621 0.985 . S
C1616 C1610 1.379 1_455 S
C1616 C1613 1.363 . S
C1616 N1614 1.356 . S
C1617 C1611 1.354 1_545 S
C1617 C1612 1.370 1_655 S
C1617 N1615 1.360 . S
N1618 C1610 1.356 . S
N1618 H1624 0.984 . S
N1618 H1625 0.984 . S
N1619 C1612 1.364 . S
N1619 H1622 0.984 . S
N1619 H1623 0.985 . S
H1620 N1615 0.990 . S
H1621 N1615 0.985 . S
H1622 N1619 0.984 . S
H1623 N1619 0.985 . S
H1624 N1618 0.984 . S
H1625 N1618 0.984 . S
H1626 N1614 0.984 . S
H1627 N1614 0.985 . S
C1628 C1629 1.363 . S
C1628 C1634 1.379 . S
C1628 N1636 1.356 . S
C1629 C1628 1.363 . S
C1629 C1635 1.363 . S
C1630 C1631 1.363 . S
C1630 C1635 1.379 . S
C1630 N1637 1.356 . S
C1631 C1630 1.363 . S
C1631 C1634 1.363 . S
N1632 C1634 1.356 . S
N1632 H1644 0.984 . S
N1632 H1645 0.985 . S
N1633 C1635 1.356 . S
N1633 H1638 0.984 . S
N1633 H1639 0.985 . S
C1634 C1628 1.379 . S
C1634 C1631 1.363 . S
C1634 N1632 1.356 . S
C1635 C1629 1.363 . S
C1635 C1630 1.379 . S
C1635 N1633 1.356 . S
N1636 C1628 1.356 . S
N1636 H1642 0.984 . S
N1636 H1643 0.984 . S
N1637 C1630 1.356 . S
N1637 H1640 0.984 . S
N1637 H1641 0.985 . S
H1638 N1633 0.984 . S
H1639 N1633 0.985 . S
H1640 N1637 0.984 . S
H1641 N1637 0.985 . S
H1642 N1636 0.984 . S
H1643 N1636 0.984 . S
H1644 N1632 0.984 . S
H1645 N1632 0.985 . S
C1646 C1647 1.363 . S
C1646 C1652 1.379 . S
C1646 N1654 1.356 . S
C1647 C1646 1.363 . S
C1647 C1653 1.363 1_545 S
C1648 C1649 1.373 . S
C1648 C1653 1.376 1_545 S
C1648 N1655 1.352 1_545 S
C1649 C1648 1.373 . S
C1649 C1652 1.363 . S
N1650 C1652 1.356 . S
N1650 H1662 0.984 . S
N1650 H1663 0.985 . S
N1651 C1653 1.356 . S
N1651 H1656 0.984 . S
N1651 H1657 0.985 . S
C1652 C1646 1.379 . S
C1652 C1649 1.363 . S
C1652 N1650 1.356 . S
C1653 C1647 1.363 1_565 S
C1653 C1648 1.376 1_565 S
C1653 N1651 1.356 . S
N1654 C1646 1.356 . S
N1654 H1660 0.984 . S
N1654 H1661 0.984 . S
N1655 C1648 1.352 1_565 S
N1655 H1658 0.984 1_565 S
N1655 H1659 0.985 . S
H1656 N1651 0.984 . S
H1657 N1651 0.985 . S
H1658 N1655 0.984 1_545 S
H1659 N1655 0.985 . S
H1660 N1654 0.984 . S
H1661 N1654 0.984 . S
H1662 N1650 0.984 . S
H1663 N1650 0.985 . S
C1664 C1665 1.363 . S
C1664 C1670 1.379 . S
C1664 N1672 1.356 . S
C1665 C1664 1.363 . S
C1665 C1671 1.363 . S
C1666 C1667 1.363 . S
C1666 C1671 1.379 . S
C1666 N1673 1.356 . S
C1667 C1666 1.363 . S
C1667 C1670 1.363 . S
N1668 C1670 1.356 . S
N1668 H1680 0.984 . S
N1668 H1681 0.985 . S
N1669 C1671 1.356 . S
N1669 H1674 0.984 . S
N1669 H1675 0.985 . S
C1670 C1664 1.379 . S
C1670 C1667 1.363 . S
C1670 N1668 1.356 . S
C1671 C1665 1.363 . S
C1671 C1666 1.379 . S
C1671 N1669 1.356 . S
N1672 C1664 1.356 . S
N1672 H1678 0.984 . S
N1672 H1679 0.984 . S
N1673 C1666 1.356 . S
N1673 H1676 0.984 . S
N1673 H1677 0.985 . S
H1674 N1669 0.984 . S
H1675 N1669 0.985 . S
H1676 N1673 0.984 . S
H1677 N1673 0.985 . S
H1678 N1672 0.984 . S
H1679 N1672 0.984 . S
H1680 N1668 0.984 . S
H1681 N1668 0.985 . S
C1682 C1683 1.363 . S
C1682 C1688 1.379 1_455 S
C1682 N1690 1.356 . S
C1683 C1682 1.363 . S
C1683 C1689 1.363 . S
C1684 C1685 1.363 . S
C1684 C1689 1.379 1_655 S
C1684 N1691 1.356 . S
C1685 C1684 1.363 . S
C1685 C1688 1.363 . S
N1686 C1688 1.356 . S
N1686 H1698 0.984 . S
N1686 H1699 0.985 . S
N1687 C1689 1.356 . S
N1687 H1692 0.984 . S
N1687 H1693 0.985 . S
C1688 C1682 1.379 1_655 S
C1688 C1685 1.363 . S
C1688 N1686 1.356 . S
C1689 C1683 1.363 . S
C1689 C1684 1.379 1_455 S
C1689 N1687 1.356 . S
N1690 C1682 1.356 . S
N1690 H1696 0.984 . S
N1690 H1697 0.984 . S
N1691 C1684 1.356 . S
N1691 H1694 0.984 . S
N1691 H1695 0.985 . S
H1692 N1687 0.984 . S
H1693 N1687 0.985 . S
H1694 N1691 0.984 . S
H1695 N1691 0.985 . S
H1696 N1690 0.984 . S
H1697 N1690 0.984 . S
H1698 N1686 0.984 . S
H1699 N1686 0.985 . S
C1700 C1701 1.363 . S
C1700 C1706 1.379 . S
C1700 N1708 1.356 . S
C1701 C1700 1.363 . S
C1701 C1707 1.363 . S
C1702 C1703 1.363 . S
C1702 C1707 1.379 . S
C1702 N1709 1.356 . S
C1703 C1702 1.363 . S
C1703 C1706 1.363 . S
N1704 C1706 1.356 . S
N1704 H1716 0.984 . S
N1704 H1717 0.985 . S
N1705 C1707 1.356 . S
N1705 H1710 0.984 . S
N1705 H1711 0.985 . S
C1706 C1700 1.379 . S
C1706 C1703 1.363 . S
C1706 N1704 1.356 . S
C1707 C1701 1.363 . S
C1707 C1702 1.379 . S
C1707 N1705 1.356 . S
N1708 C1700 1.356 . S
N1708 H1714 0.984 . S
N1708 H1715 0.984 . S
N1709 C1702 1.356 . S
N1709 H1712 0.984 . S
N1709 H1713 0.985 . S
H1710 N1705 0.984 . S
H1711 N1705 0.985 . S
H1712 N1709 0.984 . S
H1713 N1709 0.985 . S
H1714 N1708 0.984 . S
H1715 N1708 0.984 . S
H1716 N1704 0.984 . S
H1717 N1704 0.985 . S
C1718 C1719 1.363 . S
C1718 C1724 1.379 . S
C1718 N1726 1.356 . S
C1719 C1718 1.363 . S
C1719 C1725 1.363 . S
C1720 C1721 1.363 . S
C1720 C1725 1.379 . S
C1720 N1727 1.356 . S
C1721 C1720 1.363 . S
C1721 C1724 1.363 . S
N1722 C1724 1.356 . S
N1722 H1734 0.984 . S
N1722 H1735 0.985 . S
N1723 C1725 1.356 . S
N1723 H1728 0.984 . S
N1723 H1729 0.985 . S
C1724 C1718 1.379 . S
C1724 C1721 1.363 . S
C1724 N1722 1.356 . S
C1725 C1719 1.363 . S
C1725 C1720 1.379 . S
C1725 N1723 1.356 . S
N1726 C1718 1.356 . S
N1726 H1732 0.984 . S
N1726 H1733 0.984 . S
N1727 C1720 1.356 . S
N1727 H1730 0.984 . S
N1727 H1731 0.985 . S
H1728 N1723 0.984 . S
H1729 N1723 0.985 . S
H1730 N1727 0.984 . S
H1731 N1727 0.985 . S
H1732 N1726 0.984 . S
H1733 N1726 0.984 . S
H1734 N1722 0.984 . S
H1735 N1722 0.985 . S
C1736 C1737 1.363 . S
C1736 C1742 1.379 . S
C1736 N1744 1.356 . S
C1737 C1736 1.363 . S
C1737 C1743 1.363 . S
C1738 C1739 1.363 . S
C1738 C1743 1.379 . S
C1738 N1745 1.356 . S
C1739 C1738 1.363 . S
C1739 C1742 1.363 . S
N1740 C1742 1.356 . S
N1740 H1752 0.984 . S
N1740 H1753 0.985 . S
N1741 C1743 1.356 . S
N1741 H1746 0.984 . S
N1741 H1747 0.985 . S
C1742 C1736 1.379 . S
C1742 C1739 1.363 . S
C1742 N1740 1.356 . S
C1743 C1737 1.363 . S
C1743 C1738 1.379 . S
C1743 N1741 1.356 . S
N1744 C1736 1.356 . S
N1744 H1750 0.984 . S
N1744 H1751 0.984 . S
N1745 C1738 1.356 . S
N1745 H1748 0.984 . S
N1745 H1749 0.985 . S
H1746 N1741 0.984 . S
H1747 N1741 0.985 . S
H1748 N1745 0.984 . S
H1749 N1745 0.985 . S
H1750 N1744 0.984 . S
H1751 N1744 0.984 . S
H1752 N1740 0.984 . S
H1753 N1740 0.985 . S
C1754 C1755 1.363 . S
C1754 C1760 1.379 . S
C1754 N1762 1.356 . S
C1755 C1754 1.363 . S
C1755 C1761 1.363 . S
C1756 C1757 1.363 . S
C1756 C1761 1.379 . S
C1756 N1763 1.356 . S
C1757 C1756 1.363 . S
C1757 C1760 1.363 . S
N1758 C1760 1.356 . S
N1758 H1770 0.984 . S
N1758 H1771 0.985 . S
N1759 C1761 1.356 . S
N1759 H1764 0.984 . S
N1759 H1765 0.985 . S
C1760 C1754 1.379 . S
C1760 C1757 1.363 . S
C1760 N1758 1.356 . S
C1761 C1755 1.363 . S
C1761 C1756 1.379 . S
C1761 N1759 1.356 . S
N1762 C1754 1.356 . S
N1762 H1768 0.984 . S
N1762 H1769 0.984 . S
N1763 C1756 1.356 . S
N1763 H1766 0.984 . S
N1763 H1767 0.985 . S
H1764 N1759 0.984 . S
H1765 N1759 0.985 . S
H1766 N1763 0.984 . S
H1767 N1763 0.985 . S
H1768 N1762 0.984 . S
H1769 N1762 0.984 . S
H1770 N1758 0.984 . S
H1771 N1758 0.985 . S
C1772 C1773 1.363 . S
C1772 C1778 1.379 . S
C1772 N1780 1.356 . S
C1773 C1772 1.363 . S
C1773 C1779 1.363 . S
C1774 C1775 1.363 . S
C1774 C1779 1.379 . S
C1774 N1781 1.356 . S
C1775 C1774 1.363 . S
C1775 C1778 1.363 . S
N1776 C1778 1.356 . S
N1776 H1788 0.984 . S
N1776 H1789 0.985 . S
N1777 C1779 1.356 . S
N1777 H1782 0.984 . S
N1777 H1783 0.985 . S
C1778 C1772 1.379 . S
C1778 C1775 1.363 . S
C1778 N1776 1.356 . S
C1779 C1773 1.363 . S
C1779 C1774 1.379 . S
C1779 N1777 1.356 . S
N1780 C1772 1.356 . S
N1780 H1786 0.984 . S
N1780 H1787 0.984 . S
N1781 C1774 1.356 . S
N1781 H1784 0.984 . S
N1781 H1785 0.985 . S
H1782 N1777 0.984 . S
H1783 N1777 0.985 . S
H1784 N1781 0.984 . S
H1785 N1781 0.985 . S
H1786 N1780 0.984 . S
H1787 N1780 0.984 . S
H1788 N1776 0.984 . S
H1789 N1776 0.985 . S
C1790 C1791 1.363 . S
C1790 C1796 1.379 1_655 S
C1790 N1798 1.356 . S
C1791 C1790 1.363 . S
C1791 C1797 1.363 . S
C1792 C1793 1.363 . S
C1792 C1797 1.379 1_455 S
C1792 N1799 1.356 . S
C1793 C1792 1.363 . S
C1793 C1796 1.363 . S
N1794 C1796 1.356 . S
N1794 H1806 0.984 . S
N1794 H1807 0.985 . S
N1795 C1797 1.356 . S
N1795 H1800 0.984 . S
N1795 H1801 0.985 . S
C1796 C1790 1.379 1_455 S
C1796 C1793 1.363 . S
C1796 N1794 1.356 . S
C1797 C1791 1.363 . S
C1797 C1792 1.379 1_655 S
C1797 N1795 1.356 . S
N1798 C1790 1.356 . S
N1798 H1804 0.984 . S
N1798 H1805 0.984 . S
N1799 C1792 1.356 . S
N1799 H1802 0.984 . S
N1799 H1803 0.985 . S
H1800 N1795 0.984 . S
H1801 N1795 0.985 . S
H1802 N1799 0.984 . S
H1803 N1799 0.985 . S
H1804 N1798 0.984 . S
H1805 N1798 0.984 . S
H1806 N1794 0.984 . S
H1807 N1794 0.985 . S
C1808 C1809 1.363 . S
C1808 C1814 1.379 . S
C1808 N1816 1.356 . S
C1809 C1808 1.363 . S
C1809 C1815 1.363 . S
C1810 C1811 1.363 . S
C1810 C1815 1.379 . S
C1810 N1817 1.356 . S
C1811 C1810 1.363 . S
C1811 C1814 1.363 . S
N1812 C1814 1.356 . S
N1812 H1824 0.984 . S
N1812 H1825 0.985 . S
N1813 C1815 1.356 . S
N1813 H1818 0.984 . S
N1813 H1819 0.985 . S
C1814 C1808 1.379 . S
C1814 C1811 1.363 . S
C1814 N1812 1.356 . S
C1815 C1809 1.363 . S
C1815 C1810 1.379 . S
C1815 N1813 1.356 . S
N1816 C1808 1.356 . S
N1816 H1822 0.984 . S
N1816 H1823 0.984 . S
N1817 C1810 1.356 . S
N1817 H1820 0.984 . S
N1817 H1821 0.985 . S
H1818 N1813 0.984 . S
H1819 N1813 0.985 . S
H1820 N1817 0.984 . S
H1821 N1817 0.985 . S
H1822 N1816 0.984 . S
H1823 N1816 0.984 . S
H1824 N1812 0.984 . S
H1825 N1812 0.985 . S
C1826 C1827 1.363 . S
C1826 C1832 1.379 1_655 S
C1826 N1834 1.356 . S
C1827 C1826 1.363 . S
C1827 C1833 1.363 . S
C1828 C1829 1.363 . S
C1828 C1833 1.379 1_455 S
C1828 N1835 1.356 . S
C1829 C1828 1.363 . S
C1829 C1832 1.363 . S
N1830 C1832 1.356 . S
N1830 H1842 0.984 . S
N1830 H1843 0.985 . S
N1831 C1833 1.356 . S
N1831 H1836 0.984 . S
N1831 H1837 0.985 . S
C1832 C1826 1.379 1_455 S
C1832 C1829 1.363 . S
C1832 N1830 1.356 . S
C1833 C1827 1.363 . S
C1833 C1828 1.379 1_655 S
C1833 N1831 1.356 . S
N1834 C1826 1.356 . S
N1834 H1840 0.984 . S
N1834 H1841 0.984 . S
N1835 C1828 1.356 . S
N1835 H1838 0.984 . S
N1835 H1839 0.985 . S
H1836 N1831 0.984 . S
H1837 N1831 0.985 . S
H1838 N1835 0.984 . S
H1839 N1835 0.985 . S
H1840 N1834 0.984 . S
H1841 N1834 0.984 . S
H1842 N1830 0.984 . S
H1843 N1830 0.985 . S
C1844 C1845 1.363 . S
C1844 C1850 1.379 . S
C1844 N1852 1.356 . S
C1845 C1844 1.363 . S
C1845 C1851 1.363 . S
C1846 C1847 1.363 . S
C1846 C1851 1.379 . S
C1846 N1853 1.356 . S
C1847 C1846 1.363 . S
C1847 C1850 1.363 . S
N1848 C1850 1.356 . S
N1848 H1860 0.984 . S
N1848 H1861 0.985 . S
N1849 C1851 1.356 . S
N1849 H1854 0.984 . S
N1849 H1855 0.985 . S
C1850 C1844 1.379 . S
C1850 C1847 1.363 . S
C1850 N1848 1.356 . S
C1851 C1845 1.363 . S
C1851 C1846 1.379 . S
C1851 N1849 1.356 . S
N1852 C1844 1.356 . S
N1852 H1858 0.984 . S
N1852 H1859 0.984 . S
N1853 C1846 1.356 . S
N1853 H1856 0.984 . S
N1853 H1857 0.985 . S
H1854 N1849 0.984 . S
H1855 N1849 0.985 . S
H1856 N1853 0.984 . S
H1857 N1853 0.985 . S
H1858 N1852 0.984 . S
H1859 N1852 0.984 . S
H1860 N1848 0.984 . S
H1861 N1848 0.985 . S
C1862 C1863 1.363 . S
C1862 C1868 1.379 . S
C1862 N1870 1.356 . S
C1863 C1862 1.363 . S
C1863 C1869 1.363 . S
C1864 C1865 1.363 . S
C1864 C1869 1.379 . S
C1864 N1871 1.356 . S
C1865 C1864 1.363 . S
C1865 C1868 1.363 . S
N1866 C1868 1.356 . S
N1866 H1878 0.984 . S
N1866 H1879 0.985 . S
N1867 C1869 1.356 . S
N1867 H1872 0.984 . S
N1867 H1873 0.985 . S
C1868 C1862 1.379 . S
C1868 C1865 1.363 . S
C1868 N1866 1.356 . S
C1869 C1863 1.363 . S
C1869 C1864 1.379 . S
C1869 N1867 1.356 . S
N1870 C1862 1.356 . S
N1870 H1876 0.984 . S
N1870 H1877 0.984 . S
N1871 C1864 1.356 . S
N1871 H1874 0.984 . S
N1871 H1875 0.985 . S
H1872 N1867 0.984 . S
H1873 N1867 0.985 . S
H1874 N1871 0.984 . S
H1875 N1871 0.985 . S
H1876 N1870 0.984 . S
H1877 N1870 0.984 . S
H1878 N1866 0.984 . S
H1879 N1866 0.985 . S
C1880 C1881 1.363 . S
C1880 C1886 1.379 . S
C1880 N1888 1.356 . S
C1881 C1880 1.363 . S
C1881 C1887 1.363 . S
C1882 C1883 1.363 . S
C1882 C1887 1.379 . S
C1882 N1889 1.356 . S
C1883 C1882 1.363 . S
C1883 C1886 1.363 . S
N1884 C1886 1.356 . S
N1884 H1896 0.984 . S
N1884 H1897 0.985 . S
N1885 C1887 1.356 . S
N1885 H1890 0.984 . S
N1885 H1891 0.985 . S
C1886 C1880 1.379 . S
C1886 C1883 1.363 . S
C1886 N1884 1.356 . S
C1887 C1881 1.363 . S
C1887 C1882 1.379 . S
C1887 N1885 1.356 . S
N1888 C1880 1.356 . S
N1888 H1894 0.984 . S
N1888 H1895 0.984 . S
N1889 C1882 1.356 . S
N1889 H1892 0.984 . S
N1889 H1893 0.985 . S
H1890 N1885 0.984 . S
H1891 N1885 0.985 . S
H1892 N1889 0.984 . S
H1893 N1889 0.985 . S
H1894 N1888 0.984 . S
H1895 N1888 0.984 . S
H1896 N1884 0.984 . S
H1897 N1884 0.985 . S
C1898 C1899 1.363 . S
C1898 C1904 1.379 . S
C1898 N1906 1.356 . S
C1899 C1898 1.363 . S
C1899 C1905 1.363 . S
C1900 C1901 1.363 . S
C1900 C1905 1.379 . S
C1900 N1907 1.356 . S
C1901 C1900 1.363 . S
C1901 C1904 1.363 . S
N1902 C1904 1.356 . S
N1902 H1914 0.984 . S
N1902 H1915 0.985 . S
N1903 C1905 1.356 . S
N1903 H1908 0.984 . S
N1903 H1909 0.985 . S
C1904 C1898 1.379 . S
C1904 C1901 1.363 . S
C1904 N1902 1.356 . S
C1905 C1899 1.363 . S
C1905 C1900 1.379 . S
C1905 N1903 1.356 . S
N1906 C1898 1.356 . S
N1906 H1912 0.984 . S
N1906 H1913 0.984 . S
N1907 C1900 1.356 . S
N1907 H1910 0.984 . S
N1907 H1911 0.985 . S
H1908 N1903 0.984 . S
H1909 N1903 0.985 . S
H1910 N1907 0.984 . S
H1911 N1907 0.985 . S
H1912 N1906 0.984 . S
H1913 N1906 0.984 . S
H1914 N1902 0.984 . S
H1915 N1902 0.985 . S
C1916 C1917 1.363 . S
C1916 C1922 1.379 . S
C1916 N1924 1.356 . S
C1917 C1916 1.363 . S
C1917 C1923 1.363 . S
C1918 C1919 1.363 . S
C1918 C1923 1.379 . S
C1918 N1925 1.356 . S
C1919 C1918 1.363 . S
C1919 C1922 1.363 . S
N1920 C1922 1.356 . S
N1920 H1932 0.984 . S
N1920 H1933 0.985 . S
N1921 C1923 1.356 . S
N1921 H1926 0.984 . S
N1921 H1927 0.985 . S
C1922 C1916 1.379 . S
C1922 C1919 1.363 . S
C1922 N1920 1.356 . S
C1923 C1917 1.363 . S
C1923 C1918 1.379 . S
C1923 N1921 1.356 . S
N1924 C1916 1.356 . S
N1924 H1930 0.984 . S
N1924 H1931 0.984 . S
N1925 C1918 1.356 . S
N1925 H1928 0.984 . S
N1925 H1929 0.985 . S
H1926 N1921 0.984 . S
H1927 N1921 0.985 . S
H1928 N1925 0.984 . S
H1929 N1925 0.985 . S
H1930 N1924 0.984 . S
H1931 N1924 0.984 . S
H1932 N1920 0.984 . S
H1933 N1920 0.985 . S
C1934 C1935 1.363 . S
C1934 C1940 1.379 1_655 S
C1934 N1942 1.356 . S
C1935 C1934 1.363 . S
C1935 C1941 1.363 . S
C1936 C1937 1.363 . S
C1936 C1941 1.379 1_455 S
C1936 N1943 1.356 . S
C1937 C1936 1.363 . S
C1937 C1940 1.363 . S
N1938 C1940 1.356 . S
N1938 H1950 0.984 . S
N1938 H1951 0.985 . S
N1939 C1941 1.356 . S
N1939 H1944 0.984 . S
N1939 H1945 0.985 . S
C1940 C1934 1.379 1_455 S
C1940 C1937 1.363 . S
C1940 N1938 1.356 . S
C1941 C1935 1.363 . S
C1941 C1936 1.379 1_655 S
C1941 N1939 1.356 . S
N1942 C1934 1.356 . S
N1942 H1948 0.984 . S
N1942 H1949 0.984 . S
N1943 C1936 1.356 . S
N1943 H1946 0.984 . S
N1943 H1947 0.985 . S
H1944 N1939 0.984 . S
H1945 N1939 0.985 . S
H1946 N1943 0.984 . S
H1947 N1943 0.985 . S
H1948 N1942 0.984 . S
H1949 N1942 0.984 . S
H1950 N1938 0.984 . S
H1951 N1938 0.985 . S
C1952 C1953 1.363 . S
C1952 C1958 1.379 . S
C1952 N1960 1.356 . S
C1953 C1952 1.363 . S
C1953 C1959 1.363 1_565 S
C1954 C1955 1.363 . S
C1954 C1959 1.379 . S
C1954 N1961 1.356 . S
C1955 C1954 1.363 . S
C1955 C1958 1.363 1_545 S
N1956 C1958 1.356 . S
N1956 H1968 0.984 . S
N1956 H1969 0.985 1_565 S
N1957 C1959 1.356 . S
N1957 H1962 0.984 1_545 S
N1957 H1963 0.985 . S
C1958 C1952 1.379 . S
C1958 C1955 1.363 1_565 S
C1958 N1956 1.356 . S
C1959 C1953 1.363 1_545 S
C1959 C1954 1.379 . S
C1959 N1957 1.356 . S
N1960 C1952 1.356 . S
N1960 H1966 0.984 . S
N1960 H1967 0.984 . S
N1961 C1954 1.356 . S
N1961 H1964 0.984 . S
N1961 H1965 0.985 . S
H1962 N1957 0.984 1_565 S
H1963 N1957 0.985 . S
H1964 N1961 0.984 . S
H1965 N1961 0.985 . S
H1966 N1960 0.984 . S
H1967 N1960 0.984 . S
H1968 N1956 0.984 . S
H1969 N1956 0.985 1_545 S
C1970 C1971 1.363 . S
C1970 C1976 1.379 . S
C1970 N1978 1.356 . S
C1971 C1970 1.363 . S
C1971 C1977 1.363 . S
C1972 C1973 1.363 . S
C1972 C1977 1.379 . S
C1972 N1979 1.356 1_545 S
C1973 C1972 1.363 . S
C1973 C1976 1.363 . S
N1974 C1976 1.356 . S
N1974 H1986 0.984 . S
N1974 H1987 0.985 . S
N1975 C1977 1.356 1_565 S
N1975 H1980 0.984 . S
N1975 H1981 0.985 . S
C1976 C1970 1.379 . S
C1976 C1973 1.363 . S
C1976 N1974 1.356 . S
C1977 C1971 1.363 . S
C1977 C1972 1.379 . S
C1977 N1975 1.356 1_545 S
N1978 C1970 1.356 . S
N1978 H1984 0.984 . S
N1978 H1985 0.984 . S
N1979 C1972 1.356 1_565 S
N1979 H1982 0.984 . S
N1979 H1983 0.985 . S
H1980 N1975 0.984 . S
H1981 N1975 0.985 . S
H1982 N1979 0.984 . S
H1983 N1979 0.985 . S
H1984 N1978 0.984 . S
H1985 N1978 0.984 . S
H1986 N1974 0.984 . S
H1987 N1974 0.985 . S
C1988 C1989 1.363 . S
C1988 C1994 1.379 . S
C1988 N1996 1.356 . S
C1989 C1988 1.363 . S
C1989 C1995 1.363 1_565 S
C1990 C1991 1.363 . S
C1990 C1995 1.379 . S
C1990 N1997 1.356 . S
C1991 C1990 1.363 . S
C1991 C1994 1.363 1_545 S
N1992 C1994 1.356 . S
N1992 H2004 0.984 . S
N1992 H2005 0.985 1_565 S
N1993 C1995 1.356 . S
N1993 H1998 0.984 1_545 S
N1993 H1999 0.985 . S
C1994 C1988 1.379 . S
C1994 C1991 1.363 1_565 S
C1994 N1992 1.356 . S
C1995 C1989 1.363 1_545 S
C1995 C1990 1.379 . S
C1995 N1993 1.356 . S
N1996 C1988 1.356 . S
N1996 H2002 0.984 . S
N1996 H2003 0.984 . S
N1997 C1990 1.356 . S
N1997 H2000 0.984 . S
N1997 H2001 0.985 . S
H1998 N1993 0.984 1_565 S
H1999 N1993 0.985 . S
H2000 N1997 0.984 . S
H2001 N1997 0.985 . S
H2002 N1996 0.984 . S
H2003 N1996 0.984 . S
H2004 N1992 0.984 . S
H2005 N1992 0.985 1_545 S
C2006 C2007 1.363 . S
C2006 C2012 1.379 1_554 S
C2006 N2014 1.356 . S
C2007 C2006 1.363 . S
C2007 C2013 1.363 . S
C2008 C2009 1.363 . S
C2008 C2013 1.379 1_556 S
C2008 N2015 1.356 1_565 S
C2009 C2008 1.363 . S
C2009 C2012 1.363 . S
N2010 C2012 1.356 . S
N2010 H2022 0.984 . S
N2010 H2023 0.985 . S
N2011 C2013 1.356 1_545 S
N2011 H2016 0.984 . S
N2011 H2017 0.985 . S
C2012 C2006 1.379 1_556 S
C2012 C2009 1.363 . S
C2012 N2010 1.356 . S
C2013 C2007 1.363 . S
C2013 C2008 1.379 1_554 S
C2013 N2011 1.356 1_565 S
N2014 C2006 1.356 . S
N2014 H2020 0.984 . S
N2014 H2021 0.984 . S
N2015 C2008 1.356 1_545 S
N2015 H2018 0.984 . S
N2015 H2019 0.985 . S
H2016 N2011 0.984 . S
H2017 N2011 0.985 . S
H2018 N2015 0.984 . S
H2019 N2015 0.985 . S
H2020 N2014 0.984 . S
H2021 N2014 0.984 . S
H2022 N2010 0.984 . S
H2023 N2010 0.985 . S
C2024 C2025 1.363 . S
C2024 C2030 1.379 . S
C2024 N2032 1.356 . S
C2025 C2024 1.363 . S
C2025 C2031 1.363 1_545 S
C2026 C2027 1.363 . S
C2026 C2031 1.379 . S
C2026 N2033 1.356 . S
C2027 C2026 1.363 . S
C2027 C2030 1.363 1_565 S
N2028 C2030 1.356 . S
N2028 H2040 0.984 . S
N2028 H2041 0.985 1_545 S
N2029 C2031 1.356 . S
N2029 H2034 0.984 1_565 S
N2029 H2035 0.985 . S
C2030 C2024 1.379 . S
C2030 C2027 1.363 1_545 S
C2030 N2028 1.356 . S
C2031 C2025 1.363 1_565 S
C2031 C2026 1.379 . S
C2031 N2029 1.356 . S
N2032 C2024 1.356 . S
N2032 H2038 0.984 . S
N2032 H2039 0.984 . S
N2033 C2026 1.356 . S
N2033 H2036 0.984 . S
N2033 H2037 0.985 . S
H2034 N2029 0.984 1_545 S
H2035 N2029 0.985 . S
H2036 N2033 0.984 . S
H2037 N2033 0.985 . S
H2038 N2032 0.984 . S
H2039 N2032 0.984 . S
H2040 N2028 0.984 . S
H2041 N2028 0.985 1_565 S
C2042 C2043 1.363 . S
C2042 C2048 1.379 . S
C2042 N2050 1.356 1_565 S
C2043 C2042 1.363 . S
C2043 C2049 1.363 . S
C2044 C2045 1.363 . S
C2044 C2049 1.379 . S
C2044 N2051 1.356 . S
C2045 C2044 1.363 . S
C2045 C2048 1.363 . S
N2046 C2048 1.356 1_545 S
N2046 H2058 0.984 . S
N2046 H2059 0.985 . S
N2047 C2049 1.356 . S
N2047 H2052 0.984 . S
N2047 H2053 0.985 . S
C2048 C2042 1.379 . S
C2048 C2045 1.363 . S
C2048 N2046 1.356 1_565 S
C2049 C2043 1.363 . S
C2049 C2044 1.379 . S
C2049 N2047 1.356 . S
N2050 C2042 1.356 1_545 S
N2050 H2056 0.984 . S
N2050 H2057 0.984 . S
N2051 C2044 1.356 . S
N2051 H2054 0.984 . S
N2051 H2055 0.985 . S
H2052 N2047 0.984 . S
H2053 N2047 0.985 . S
H2054 N2051 0.984 . S
H2055 N2051 0.985 . S
H2056 N2050 0.984 . S
H2057 N2050 0.984 . S
H2058 N2046 0.984 . S
H2059 N2046 0.985 . S
C2060 C2061 1.363 1_565 S
C2060 C2066 1.379 . S
C2060 N2068 1.356 . S
C2061 C2060 1.363 1_545 S
C2061 C2067 1.363 . S
C2062 C2063 1.363 1_545 S
C2062 C2067 1.379 . S
C2062 N2069 1.356 . S
C2063 C2062 1.363 1_565 S
C2063 C2066 1.363 . S
N2064 C2066 1.356 . S
N2064 H2076 0.984 . S
N2064 H2077 0.985 . S
N2065 C2067 1.356 . S
N2065 H2070 0.984 . S
N2065 H2071 0.985 . S
C2066 C2060 1.379 . S
C2066 C2063 1.363 . S
C2066 N2064 1.356 . S
C2067 C2061 1.363 . S
C2067 C2062 1.379 . S
C2067 N2065 1.356 . S
N2068 C2060 1.356 . S
N2068 H2074 0.984 . S
N2068 H2075 0.984 . S
N2069 C2062 1.356 . S
N2069 H2072 0.984 . S
N2069 H2073 0.985 . S
H2070 N2065 0.984 . S
H2071 N2065 0.985 . S
H2072 N2069 0.984 . S
H2073 N2069 0.985 . S
H2074 N2068 0.984 . S
H2075 N2068 0.984 . S
H2076 N2064 0.984 . S
H2077 N2064 0.985 . S
C2078 C2079 1.363 . S
C2078 C2084 1.379 1_554 S
C2078 N2086 1.356 . S
C2079 C2078 1.363 . S
C2079 C2085 1.363 . S
C2080 C2081 1.363 . S
C2080 C2085 1.379 1_556 S
C2080 N2087 1.356 1_545 S
C2081 C2080 1.363 . S
C2081 C2084 1.363 . S
N2082 C2084 1.356 . S
N2082 H2094 0.984 . S
N2082 H2095 0.985 . S
N2083 C2085 1.356 1_565 S
N2083 H2088 0.984 . S
N2083 H2089 0.985 . S
C2084 C2078 1.379 1_556 S
C2084 C2081 1.363 . S
C2084 N2082 1.356 . S
C2085 C2079 1.363 . S
C2085 C2080 1.379 1_554 S
C2085 N2083 1.356 1_545 S
N2086 C2078 1.356 . S
N2086 H2092 0.984 . S
N2086 H2093 0.984 . S
N2087 C2080 1.356 1_565 S
N2087 H2090 0.984 . S
N2087 H2091 0.985 . S
H2088 N2083 0.984 . S
H2089 N2083 0.985 . S
H2090 N2087 0.984 . S
H2091 N2087 0.985 . S
H2092 N2086 0.984 . S
H2093 N2086 0.984 . S
H2094 N2082 0.984 . S
H2095 N2082 0.985 . S
C2096 C2097 1.363 . S
C2096 C2102 1.379 . S
C2096 N2104 1.356 . S
C2097 C2096 1.363 . S
C2097 C2103 1.363 . S
C2098 C2099 1.363 . S
C2098 C2103 1.379 . S
C2098 N2105 1.356 . S
C2099 C2098 1.363 . S
C2099 C2102 1.363 . S
N2100 C2102 1.356 . S
N2100 H2112 0.984 . S
N2100 H2113 0.985 . S
N2101 C2103 1.356 . S
N2101 H2106 0.984 . S
N2101 H2107 0.985 . S
C2102 C2096 1.379 . S
C2102 C2099 1.363 . S
C2102 N2100 1.356 . S
C2103 C2097 1.363 . S
C2103 C2098 1.379 . S
C2103 N2101 1.356 . S
N2104 C2096 1.356 . S
N2104 H2110 0.984 . S
N2104 H2111 0.984 . S
N2105 C2098 1.356 . S
N2105 H2108 0.984 . S
N2105 H2109 0.985 . S
H2106 N2101 0.984 . S
H2107 N2101 0.985 . S
H2108 N2105 0.984 . S
H2109 N2105 0.985 . S
H2110 N2104 0.984 . S
H2111 N2104 0.984 . S
H2112 N2100 0.984 . S
H2113 N2100 0.985 . S
C2114 C2115 1.363 . S
C2114 C2120 1.379 1_554 S
C2114 N2122 1.356 . S
C2115 C2114 1.363 . S
C2115 C2121 1.363 . S
C2116 C2117 1.363 . S
C2116 C2121 1.379 1_556 S
C2116 N2123 1.356 . S
C2117 C2116 1.363 . S
C2117 C2120 1.363 . S
N2118 C2120 1.356 . S
N2118 H2130 0.984 . S
N2118 H2131 0.985 . S
N2119 C2121 1.356 . S
N2119 H2124 0.984 . S
N2119 H2125 0.985 . S
C2120 C2114 1.379 1_556 S
C2120 C2117 1.363 . S
C2120 N2118 1.356 . S
C2121 C2115 1.363 . S
C2121 C2116 1.379 1_554 S
C2121 N2119 1.356 . S
N2122 C2114 1.356 . S
N2122 H2128 0.984 . S
N2122 H2129 0.984 . S
N2123 C2116 1.356 . S
N2123 H2126 0.984 . S
N2123 H2127 0.985 . S
H2124 N2119 0.984 . S
H2125 N2119 0.985 . S
H2126 N2123 0.984 . S
H2127 N2123 0.985 . S
H2128 N2122 0.984 . S
H2129 N2122 0.984 . S
H2130 N2118 0.984 . S
H2131 N2118 0.985 . S
C2132 C2133 1.363 . S
C2132 C2138 1.379 . S
C2132 N2140 1.356 . S
C2133 C2132 1.363 . S
C2133 C2139 1.363 . S
C2134 C2135 1.363 . S
C2134 C2139 1.379 . S
C2134 N2141 1.356 . S
C2135 C2134 1.363 . S
C2135 C2138 1.363 . S
N2136 C2138 1.356 . S
N2136 H2148 0.984 . S
N2136 H2149 0.985 . S
N2137 C2139 1.356 . S
N2137 H2142 0.984 . S
N2137 H2143 0.985 . S
C2138 C2132 1.379 . S
C2138 C2135 1.363 . S
C2138 N2136 1.356 . S
C2139 C2133 1.363 . S
C2139 C2134 1.379 . S
C2139 N2137 1.356 . S
N2140 C2132 1.356 . S
N2140 H2146 0.984 . S
N2140 H2147 0.984 . S
N2141 C2134 1.356 . S
N2141 H2144 0.984 . S
N2141 H2145 0.985 . S
H2142 N2137 0.984 . S
H2143 N2137 0.985 . S
H2144 N2141 0.984 . S
H2145 N2141 0.985 . S
H2146 N2140 0.984 . S
H2147 N2140 0.984 . S
H2148 N2136 0.984 . S
H2149 N2136 0.985 . S
C2150 C2151 1.363 . S
C2150 C2156 1.379 . S
C2150 N2158 1.356 . S
C2151 C2150 1.363 . S
C2151 C2157 1.363 . S
C2152 C2153 1.363 . S
C2152 C2157 1.379 . S
C2152 N2159 1.356 . S
C2153 C2152 1.363 . S
C2153 C2156 1.363 . S
N2154 C2156 1.356 . S
N2154 H2166 0.984 . S
N2154 H2167 0.985 . S
N2155 C2157 1.356 . S
N2155 H2160 0.984 . S
N2155 H2161 0.985 . S
C2156 C2150 1.379 . S
C2156 C2153 1.363 . S
C2156 N2154 1.356 . S
C2157 C2151 1.363 . S
C2157 C2152 1.379 . S
C2157 N2155 1.356 . S
N2158 C2150 1.356 . S
N2158 H2164 0.984 . S
N2158 H2165 0.984 . S
N2159 C2152 1.356 . S
N2159 H2162 0.984 . S
N2159 H2163 0.985 . S
H2160 N2155 0.984 . S
H2161 N2155 0.985 . S
H2162 N2159 0.984 . S
H2163 N2159 0.985 . S
H2164 N2158 0.984 . S
H2165 N2158 0.984 . S
H2166 N2154 0.984 . S
H2167 N2154 0.985 . S
C2168 C2169 1.363 . S
C2168 C2174 1.379 . S
C2168 N2176 1.356 . S
C2169 C2168 1.363 . S
C2169 C2175 1.363 . S
C2170 C2171 1.363 . S
C2170 C2175 1.379 . S
C2170 N2177 1.356 . S
C2171 C2170 1.363 . S
C2171 C2174 1.363 . S
N2172 C2174 1.356 . S
N2172 H2184 0.984 . S
N2172 H2185 0.985 . S
N2173 C2175 1.356 . S
N2173 H2178 0.984 . S
N2173 H2179 0.985 . S
C2174 C2168 1.379 . S
C2174 C2171 1.363 . S
C2174 N2172 1.356 . S
C2175 C2169 1.363 . S
C2175 C2170 1.379 . S
C2175 N2173 1.356 . S
N2176 C2168 1.356 . S
N2176 H2182 0.984 . S
N2176 H2183 0.984 . S
N2177 C2170 1.356 . S
N2177 H2180 0.984 . S
N2177 H2181 0.985 . S
H2178 N2173 0.984 . S
H2179 N2173 0.985 . S
H2180 N2177 0.984 . S
H2181 N2177 0.985 . S
H2182 N2176 0.984 . S
H2183 N2176 0.984 . S
H2184 N2172 0.984 . S
H2185 N2172 0.985 . S
C2186 C2187 1.363 . S
C2186 C2192 1.379 1_556 S
C2186 N2194 1.356 . S
C2187 C2186 1.363 . S
C2187 C2193 1.363 . S
C2188 C2189 1.363 . S
C2188 C2193 1.379 1_554 S
C2188 N2195 1.356 . S
C2189 C2188 1.363 . S
C2189 C2192 1.363 . S
N2190 C2192 1.356 . S
N2190 H2202 0.984 . S
N2190 H2203 0.985 . S
N2191 C2193 1.356 . S
N2191 H2196 0.984 . S
N2191 H2197 0.985 . S
C2192 C2186 1.379 1_554 S
C2192 C2189 1.363 . S
C2192 N2190 1.356 . S
C2193 C2187 1.363 . S
C2193 C2188 1.379 1_556 S
C2193 N2191 1.356 . S
N2194 C2186 1.356 . S
N2194 H2200 0.984 . S
N2194 H2201 0.984 . S
N2195 C2188 1.356 . S
N2195 H2198 0.984 . S
N2195 H2199 0.985 . S
H2196 N2191 0.984 . S
H2197 N2191 0.985 . S
H2198 N2195 0.984 . S
H2199 N2195 0.985 . S
H2200 N2194 0.984 . S
H2201 N2194 0.984 . S
H2202 N2190 0.984 . S
H2203 N2190 0.985 . S
C2204 C2205 1.363 . S
C2204 C2210 1.379 . S
C2204 N2212 1.356 . S
C2205 C2204 1.363 . S
C2205 C2211 1.363 . S
C2206 C2207 1.363 . S
C2206 C2211 1.379 . S
C2206 N2213 1.356 . S
C2207 C2206 1.363 . S
C2207 C2210 1.363 . S
N2208 C2210 1.356 . S
N2208 H2220 0.984 . S
N2208 H2221 0.985 . S
N2209 C2211 1.356 . S
N2209 H2214 0.984 . S
N2209 H2215 0.985 . S
C2210 C2204 1.379 . S
C2210 C2207 1.363 . S
C2210 N2208 1.356 . S
C2211 C2205 1.363 . S
C2211 C2206 1.379 . S
C2211 N2209 1.356 . S
N2212 C2204 1.356 . S
N2212 H2218 0.984 . S
N2212 H2219 0.984 . S
N2213 C2206 1.356 . S
N2213 H2216 0.984 . S
N2213 H2217 0.985 . S
H2214 N2209 0.984 . S
H2215 N2209 0.985 . S
H2216 N2213 0.984 . S
H2217 N2213 0.985 . S
H2218 N2212 0.984 . S
H2219 N2212 0.984 . S
H2220 N2208 0.984 . S
H2221 N2208 0.985 . S
C2222 C2223 1.363 . S
C2222 C2228 1.379 . S
C2222 N2230 1.356 . S
C2223 C2222 1.363 . S
C2223 C2229 1.363 . S
C2224 C2225 1.363 . S
C2224 C2229 1.379 . S
C2224 N2231 1.356 . S
C2225 C2224 1.363 . S
C2225 C2228 1.363 . S
N2226 C2228 1.356 . S
N2226 H2238 0.984 . S
N2226 H2239 0.985 . S
N2227 C2229 1.356 . S
N2227 H2232 0.984 . S
N2227 H2233 0.985 . S
C2228 C2222 1.379 . S
C2228 C2225 1.363 . S
C2228 N2226 1.356 . S
C2229 C2223 1.363 . S
C2229 C2224 1.379 . S
C2229 N2227 1.356 . S
N2230 C2222 1.356 . S
N2230 H2236 0.984 . S
N2230 H2237 0.984 . S
N2231 C2224 1.356 . S
N2231 H2234 0.984 . S
N2231 H2235 0.985 . S
H2232 N2227 0.984 . S
H2233 N2227 0.985 . S
H2234 N2231 0.984 . S
H2235 N2231 0.985 . S
H2236 N2230 0.984 . S
H2237 N2230 0.984 . S
H2238 N2226 0.984 . S
H2239 N2226 0.985 . S
C2240 C2241 1.363 . S
C2240 C2246 1.379 . S
C2240 N2248 1.356 . S
C2241 C2240 1.363 . S
C2241 C2247 1.363 . S
C2242 C2243 1.363 . S
C2242 C2247 1.379 . S
C2242 N2249 1.356 . S
C2243 C2242 1.363 . S
C2243 C2246 1.363 . S
N2244 C2246 1.356 . S
N2244 H2256 0.984 . S
N2244 H2257 0.985 . S
N2245 C2247 1.356 . S
N2245 H2250 0.984 . S
N2245 H2251 0.985 . S
C2246 C2240 1.379 . S
C2246 C2243 1.363 . S
C2246 N2244 1.356 . S
C2247 C2241 1.363 . S
C2247 C2242 1.379 . S
C2247 N2245 1.356 . S
N2248 C2240 1.356 . S
N2248 H2254 0.984 . S
N2248 H2255 0.984 . S
N2249 C2242 1.356 . S
N2249 H2252 0.984 . S
N2249 H2253 0.985 . S
H2250 N2245 0.984 . S
H2251 N2245 0.985 . S
H2252 N2249 0.984 . S
H2253 N2249 0.985 . S
H2254 N2248 0.984 . S
H2255 N2248 0.984 . S
H2256 N2244 0.984 . S
H2257 N2244 0.985 . S
C2258 C2259 1.363 . S
C2258 C2264 1.379 1_455 S
C2258 N2266 1.356 . S
C2259 C2258 1.363 . S
C2259 C2265 1.363 . S
C2260 C2261 1.363 . S
C2260 C2265 1.379 1_655 S
C2260 N2267 1.356 . S
C2261 C2260 1.363 . S
C2261 C2264 1.363 . S
N2262 C2264 1.356 . S
N2262 H2274 0.984 . S
N2262 H2275 0.985 . S
N2263 C2265 1.356 . S
N2263 H2268 0.984 . S
N2263 H2269 0.985 . S
C2264 C2258 1.379 1_655 S
C2264 C2261 1.363 . S
C2264 N2262 1.356 . S
C2265 C2259 1.363 . S
C2265 C2260 1.379 1_455 S
C2265 N2263 1.356 . S
N2266 C2258 1.356 . S
N2266 H2272 0.984 . S
N2266 H2273 0.984 . S
N2267 C2260 1.356 . S
N2267 H2270 0.984 . S
N2267 H2271 0.985 . S
H2268 N2263 0.984 . S
H2269 N2263 0.985 . S
H2270 N2267 0.984 . S
H2271 N2267 0.985 . S
H2272 N2266 0.984 . S
H2273 N2266 0.984 . S
H2274 N2262 0.984 . S
H2275 N2262 0.985 . S
C2276 C2277 1.363 1_455 S
C2276 C2282 1.379 . S
C2276 N2284 1.356 . S
C2277 C2276 1.363 1_655 S
C2277 C2283 1.363 . S
C2278 C2279 1.363 1_655 S
C2278 C2283 1.379 . S
C2278 N2285 1.356 . S
C2279 C2278 1.363 1_455 S
C2279 C2282 1.363 . S
N2280 C2282 1.356 . S
N2280 H2292 0.984 . S
N2280 H2293 0.985 . S
N2281 C2283 1.356 . S
N2281 H2286 0.984 . S
N2281 H2287 0.985 . S
C2282 C2276 1.379 . S
C2282 C2279 1.363 . S
C2282 N2280 1.356 . S
C2283 C2277 1.363 . S
C2283 C2278 1.379 . S
C2283 N2281 1.356 . S
N2284 C2276 1.356 . S
N2284 H2290 0.984 . S
N2284 H2291 0.984 . S
N2285 C2278 1.356 . S
N2285 H2288 0.984 . S
N2285 H2289 0.985 . S
H2286 N2281 0.984 . S
H2287 N2281 0.985 . S
H2288 N2285 0.984 . S
H2289 N2285 0.985 . S
H2290 N2284 0.984 . S
H2291 N2284 0.984 . S
H2292 N2280 0.984 . S
H2293 N2280 0.985 . S
C2294 C2295 1.363 . S
C2294 C2300 1.379 . S
C2294 N2302 1.356 . S
C2295 C2294 1.363 . S
C2295 C2301 1.363 . S
C2296 C2297 1.363 . S
C2296 C2301 1.379 . S
C2296 N2303 1.356 . S
C2297 C2296 1.363 . S
C2297 C2300 1.363 . S
N2298 C2300 1.356 . S
N2298 H2310 0.984 . S
N2298 H2311 0.985 . S
N2299 C2301 1.356 . S
N2299 H2304 0.984 . S
N2299 H2305 0.985 . S
C2300 C2294 1.379 . S
C2300 C2297 1.363 . S
C2300 N2298 1.356 . S
C2301 C2295 1.363 . S
C2301 C2296 1.379 . S
C2301 N2299 1.356 . S
N2302 C2294 1.356 . S
N2302 H2308 0.984 . S
N2302 H2309 0.984 . S
N2303 C2296 1.356 . S
N2303 H2306 0.984 . S
N2303 H2307 0.985 . S
H2304 N2299 0.984 . S
H2305 N2299 0.985 . S
H2306 N2303 0.984 . S
H2307 N2303 0.985 . S
H2308 N2302 0.984 . S
H2309 N2302 0.984 . S
H2310 N2298 0.984 . S
H2311 N2298 0.985 . S
C2312 C2313 1.363 . S
C2312 C2318 1.379 . S
C2312 N2320 1.356 . S
C2313 C2312 1.363 . S
C2313 C2319 1.363 . S
C2314 C2315 1.363 . S
C2314 C2319 1.379 . S
C2314 N2321 1.356 . S
C2315 C2314 1.363 . S
C2315 C2318 1.363 . S
N2316 C2318 1.356 . S
N2316 H2328 0.984 . S
N2316 H2329 0.985 . S
N2317 C2319 1.356 . S
N2317 H2322 0.984 . S
N2317 H2323 0.985 . S
C2318 C2312 1.379 . S
C2318 C2315 1.363 . S
C2318 N2316 1.356 . S
C2319 C2313 1.363 . S
C2319 C2314 1.379 . S
C2319 N2317 1.356 . S
N2320 C2312 1.356 . S
N2320 H2326 0.984 . S
N2320 H2327 0.984 . S
N2321 C2314 1.356 . S
N2321 H2324 0.984 . S
N2321 H2325 0.985 . S
H2322 N2317 0.984 . S
H2323 N2317 0.985 . S
H2324 N2321 0.984 . S
H2325 N2321 0.985 . S
H2326 N2320 0.984 . S
H2327 N2320 0.984 . S
H2328 N2316 0.984 . S
H2329 N2316 0.985 . S
C2330 C2331 1.363 . S
C2330 C2336 1.379 . S
C2330 N2338 1.356 . S
C2331 C2330 1.363 . S
C2331 C2337 1.363 . S
C2332 C2333 1.363 . S
C2332 C2337 1.379 . S
C2332 N2339 1.356 . S
C2333 C2332 1.363 . S
C2333 C2336 1.363 . S
N2334 C2336 1.356 . S
N2334 H2346 0.984 . S
N2334 H2347 0.985 . S
N2335 C2337 1.356 . S
N2335 H2340 0.984 . S
N2335 H2341 0.985 . S
C2336 C2330 1.379 . S
C2336 C2333 1.363 . S
C2336 N2334 1.356 . S
C2337 C2331 1.363 . S
C2337 C2332 1.379 . S
C2337 N2335 1.356 . S
N2338 C2330 1.356 . S
N2338 H2344 0.984 . S
N2338 H2345 0.984 . S
N2339 C2332 1.356 . S
N2339 H2342 0.984 . S
N2339 H2343 0.985 . S
H2340 N2335 0.984 . S
H2341 N2335 0.985 . S
H2342 N2339 0.984 . S
H2343 N2339 0.985 . S
H2344 N2338 0.984 . S
H2345 N2338 0.984 . S
H2346 N2334 0.984 . S
H2347 N2334 0.985 . S
C2348 C2349 1.363 1_455 S
C2348 C2354 1.379 . S
C2348 N2356 1.356 . S
C2349 C2348 1.363 1_655 S
C2349 C2355 1.363 . S
C2350 C2351 1.363 1_655 S
C2350 C2355 1.379 . S
C2350 N2357 1.356 . S
C2351 C2350 1.363 1_455 S
C2351 C2354 1.363 . S
N2352 C2354 1.356 . S
N2352 H2364 0.984 . S
N2352 H2365 0.985 . S
N2353 C2355 1.356 . S
N2353 H2358 0.984 . S
N2353 H2359 0.985 . S
C2354 C2348 1.379 . S
C2354 C2351 1.363 . S
C2354 N2352 1.356 . S
C2355 C2349 1.363 . S
C2355 C2350 1.379 . S
C2355 N2353 1.356 . S
N2356 C2348 1.356 . S
N2356 H2362 0.984 . S
N2356 H2363 0.984 . S
N2357 C2350 1.356 . S
N2357 H2360 0.984 . S
N2357 H2361 0.985 . S
H2358 N2353 0.984 . S
H2359 N2353 0.985 . S
H2360 N2357 0.984 . S
H2361 N2357 0.985 . S
H2362 N2356 0.984 . S
H2363 N2356 0.984 . S
H2364 N2352 0.984 . S
H2365 N2352 0.985 . S
C2366 C2367 1.363 . S
C2366 C2372 1.379 1_455 S
C2366 N2374 1.356 . S
C2367 C2366 1.363 . S
C2367 C2373 1.363 . S
C2368 C2369 1.363 . S
C2368 C2373 1.379 1_655 S
C2368 N2375 1.356 . S
C2369 C2368 1.363 . S
C2369 C2372 1.363 . S
N2370 C2372 1.356 . S
N2370 H2382 0.984 . S
N2370 H2383 0.985 . S
N2371 C2373 1.356 . S
N2371 H2376 0.984 . S
N2371 H2377 0.985 . S
C2372 C2366 1.379 1_655 S
C2372 C2369 1.363 . S
C2372 N2370 1.356 . S
C2373 C2367 1.363 . S
C2373 C2368 1.379 1_455 S
C2373 N2371 1.356 . S
N2374 C2366 1.356 . S
N2374 H2380 0.984 . S
N2374 H2381 0.984 . S
N2375 C2368 1.356 . S
N2375 H2378 0.984 . S
N2375 H2379 0.985 . S
H2376 N2371 0.984 . S
H2377 N2371 0.985 . S
H2378 N2375 0.984 . S
H2379 N2375 0.985 . S
H2380 N2374 0.984 . S
H2381 N2374 0.984 . S
H2382 N2370 0.984 . S
H2383 N2370 0.985 . S
C2384 C2385 1.363 . S
C2384 C2390 1.379 . S
C2384 N2392 1.356 . S
C2385 C2384 1.363 . S
C2385 C2391 1.363 . S
C2386 C2387 1.363 . S
C2386 C2391 1.379 . S
C2386 N2393 1.356 . S
C2387 C2386 1.363 . S
C2387 C2390 1.363 . S
N2388 C2390 1.356 . S
N2388 H2400 0.984 . S
N2388 H2401 0.985 . S
N2389 C2391 1.356 . S
N2389 H2394 0.984 . S
N2389 H2395 0.985 . S
C2390 C2384 1.379 . S
C2390 C2387 1.363 . S
C2390 N2388 1.356 . S
C2391 C2385 1.363 . S
C2391 C2386 1.379 . S
C2391 N2389 1.356 . S
N2392 C2384 1.356 . S
N2392 H2398 0.984 . S
N2392 H2399 0.984 . S
N2393 C2386 1.356 . S
N2393 H2396 0.984 . S
N2393 H2397 0.985 . S
H2394 N2389 0.984 . S
H2395 N2389 0.985 . S
H2396 N2393 0.984 . S
H2397 N2393 0.985 . S
H2398 N2392 0.984 . S
H2399 N2392 0.984 . S
H2400 N2388 0.984 . S
H2401 N2388 0.985 . S
C2402 C2403 1.363 . S
C2402 C2408 1.379 1_455 S
C2402 N2410 1.356 . S
C2403 C2402 1.363 . S
C2403 C2409 1.363 . S
C2404 C2405 1.363 . S
C2404 C2409 1.379 1_655 S
C2404 N2411 1.356 . S
C2405 C2404 1.363 . S
C2405 C2408 1.363 . S
N2406 C2408 1.356 . S
N2406 H2418 0.984 . S
N2406 H2419 0.985 . S
N2407 C2409 1.356 . S
N2407 H2412 0.984 . S
N2407 H2413 0.985 . S
C2408 C2402 1.379 1_655 S
C2408 C2405 1.363 . S
C2408 N2406 1.356 . S
C2409 C2403 1.363 . S
C2409 C2404 1.379 1_455 S
C2409 N2407 1.356 . S
N2410 C2402 1.356 . S
N2410 H2416 0.984 . S
N2410 H2417 0.984 . S
N2411 C2404 1.356 . S
N2411 H2414 0.984 . S
N2411 H2415 0.985 . S
H2412 N2407 0.984 . S
H2413 N2407 0.985 . S
H2414 N2411 0.984 . S
H2415 N2411 0.985 . S
H2416 N2410 0.984 . S
H2417 N2410 0.984 . S
H2418 N2406 0.984 . S
H2419 N2406 0.985 . S
C2420 C2421 1.363 . S
C2420 C2426 1.379 . S
C2420 N2428 1.356 . S
C2421 C2420 1.363 . S
C2421 C2427 1.363 1_455 S
C2422 C2423 1.363 . S
C2422 C2427 1.379 . S
C2422 N2429 1.356 . S
C2423 C2422 1.363 . S
C2423 C2426 1.363 1_655 S
N2424 C2426 1.356 . S
N2424 H2436 0.984 . S
N2424 H2437 0.985 . S
N2425 C2427 1.356 . S
N2425 H2430 0.984 . S
N2425 H2431 0.985 . S
C2426 C2420 1.379 . S
C2426 C2423 1.363 1_455 S
C2426 N2424 1.356 . S
C2427 C2421 1.363 1_655 S
C2427 C2422 1.379 . S
C2427 N2425 1.356 . S
N2428 C2420 1.356 . S
N2428 H2434 0.984 . S
N2428 H2435 0.984 . S
N2429 C2422 1.356 . S
N2429 H2432 0.984 . S
N2429 H2433 0.985 . S
H2430 N2425 0.984 . S
H2431 N2425 0.985 . S
H2432 N2429 0.984 . S
H2433 N2429 0.985 . S
H2434 N2428 0.984 . S
H2435 N2428 0.984 . S
H2436 N2424 0.984 . S
H2437 N2424 0.985 . S
C2438 C2439 1.363 . S
C2438 C2444 1.379 . S
C2438 N2446 1.356 . S
C2439 C2438 1.363 . S
C2439 C2445 1.363 . S
C2440 C2441 1.363 . S
C2440 C2445 1.379 . S
C2440 N2447 1.356 . S
C2441 C2440 1.363 . S
C2441 C2444 1.363 . S
N2442 C2444 1.356 . S
N2442 H2454 0.984 . S
N2442 H2455 0.985 . S
N2443 C2445 1.356 . S
N2443 H2448 0.984 . S
N2443 H2449 0.985 . S
C2444 C2438 1.379 . S
C2444 C2441 1.363 . S
C2444 N2442 1.356 . S
C2445 C2439 1.363 . S
C2445 C2440 1.379 . S
C2445 N2443 1.356 . S
N2446 C2438 1.356 . S
N2446 H2452 0.984 . S
N2446 H2453 0.984 . S
N2447 C2440 1.356 . S
N2447 H2450 0.984 . S
N2447 H2451 0.985 . S
H2448 N2443 0.984 . S
H2449 N2443 0.985 . S
H2450 N2447 0.984 . S
H2451 N2447 0.985 . S
H2452 N2446 0.984 . S
H2453 N2446 0.984 . S
H2454 N2442 0.984 . S
H2455 N2442 0.985 . S
C2456 C2457 1.363 . S
C2456 C2462 1.379 . S
C2456 N2464 1.356 . S
C2457 C2456 1.363 . S
C2457 C2463 1.363 . S
C2458 C2459 1.363 . S
C2458 C2463 1.379 . S
C2458 N2465 1.356 . S
C2459 C2458 1.363 . S
C2459 C2462 1.363 . S
N2460 C2462 1.356 . S
N2460 H2472 0.984 . S
N2460 H2473 0.985 . S
N2461 C2463 1.356 . S
N2461 H2466 0.984 . S
N2461 H2467 0.985 . S
C2462 C2456 1.379 . S
C2462 C2459 1.363 . S
C2462 N2460 1.356 . S
C2463 C2457 1.363 . S
C2463 C2458 1.379 . S
C2463 N2461 1.356 . S
N2464 C2456 1.356 . S
N2464 H2470 0.984 . S
N2464 H2471 0.984 . S
N2465 C2458 1.356 . S
N2465 H2468 0.984 . S
N2465 H2469 0.985 . S
H2466 N2461 0.984 . S
H2467 N2461 0.985 . S
H2468 N2465 0.984 . S
H2469 N2465 0.985 . S
H2470 N2464 0.984 . S
H2471 N2464 0.984 . S
H2472 N2460 0.984 . S
H2473 N2460 0.985 . S
C2474 C2475 1.363 . S
C2474 C2480 1.379 . S
C2474 N2482 1.356 . S
C2475 C2474 1.363 . S
C2475 C2481 1.363 . S
C2476 C2477 1.363 . S
C2476 C2481 1.379 . S
C2476 N2483 1.356 . S
C2477 C2476 1.363 . S
C2477 C2480 1.363 . S
N2478 C2480 1.356 . S
N2478 H2490 0.984 . S
N2478 H2491 0.985 . S
N2479 C2481 1.356 . S
N2479 H2484 0.984 . S
N2479 H2485 0.985 . S
C2480 C2474 1.379 . S
C2480 C2477 1.363 . S
C2480 N2478 1.356 . S
C2481 C2475 1.363 . S
C2481 C2476 1.379 . S
C2481 N2479 1.356 . S
N2482 C2474 1.356 . S
N2482 H2488 0.984 . S
N2482 H2489 0.984 . S
N2483 C2476 1.356 . S
N2483 H2486 0.984 . S
N2483 H2487 0.985 . S
H2484 N2479 0.984 . S
H2485 N2479 0.985 . S
H2486 N2483 0.984 . S
H2487 N2483 0.985 . S
H2488 N2482 0.984 . S
H2489 N2482 0.984 . S
H2490 N2478 0.984 . S
H2491 N2478 0.985 . S
C2492 C2493 1.363 . S
C2492 C2498 1.379 . S
C2492 N2500 1.356 . S
C2493 C2492 1.363 . S
C2493 C2499 1.363 1_655 S
C2494 C2495 1.363 . S
C2494 C2499 1.379 . S
C2494 N2501 1.356 . S
C2495 C2494 1.363 . S
C2495 C2498 1.363 1_455 S
N2496 C2498 1.356 . S
N2496 H2508 0.984 . S
N2496 H2509 0.985 . S
N2497 C2499 1.356 . S
N2497 H2502 0.984 . S
N2497 H2503 0.985 . S
C2498 C2492 1.379 . S
C2498 C2495 1.363 1_655 S
C2498 N2496 1.356 . S
C2499 C2493 1.363 1_455 S
C2499 C2494 1.379 . S
C2499 N2497 1.356 . S
N2500 C2492 1.356 . S
N2500 H2506 0.984 . S
N2500 H2507 0.984 . S
N2501 C2494 1.356 . S
N2501 H2504 0.984 . S
N2501 H2505 0.985 . S
H2502 N2497 0.984 . S
H2503 N2497 0.985 . S
H2504 N2501 0.984 . S
H2505 N2501 0.985 . S
H2506 N2500 0.984 . S
H2507 N2500 0.984 . S
H2508 N2496 0.984 . S
H2509 N2496 0.985 . S
C2510 C2511 1.363 . S
C2510 C2516 1.379 1_655 S
C2510 N2518 1.356 . S
C2511 C2510 1.363 . S
C2511 C2517 1.363 . S
C2512 C2513 1.363 . S
C2512 C2517 1.379 1_455 S
C2512 N2519 1.356 . S
C2513 C2512 1.363 . S
C2513 C2516 1.363 . S
N2514 C2516 1.356 . S
N2514 H2526 0.984 . S
N2514 H2527 0.985 . S
N2515 C2517 1.356 . S
N2515 H2520 0.984 . S
N2515 H2521 0.985 . S
C2516 C2510 1.379 1_455 S
C2516 C2513 1.363 . S
C2516 N2514 1.356 . S
C2517 C2511 1.363 . S
C2517 C2512 1.379 1_655 S
C2517 N2515 1.356 . S
N2518 C2510 1.356 . S
N2518 H2524 0.984 . S
N2518 H2525 0.984 . S
N2519 C2512 1.356 . S
N2519 H2522 0.984 . S
N2519 H2523 0.985 . S
H2520 N2515 0.984 . S
H2521 N2515 0.985 . S
H2522 N2519 0.984 . S
H2523 N2519 0.985 . S
H2524 N2518 0.984 . S
H2525 N2518 0.984 . S
H2526 N2514 0.984 . S
H2527 N2514 0.985 . S
C1089 C9 1.499 . S
C1091 C247 1.499 1_545 S
C1107 C43 1.499 1_565 S
C1109 C145 1.499 . S
C1125 C77 1.499 . S
C1127 C179 1.499 1_565 S
C1143 C213 1.499 . S
C1145 C111 1.499 1_545 S
C1161 C519 1.499 1_565 S
C1163 C281 1.499 . S
C1179 C417 1.499 . S
C1181 C315 1.499 1_545 S
C1197 C451 1.499 1_545 S
C1199 C349 1.499 . S
C1215 C485 1.499 . S
C1217 C383 1.499 1_565 S
C1233 C553 1.499 . S
C1235 C791 1.499 . S
C1251 C689 1.499 . S
C1253 C587 1.499 . S
C1269 C723 1.499 . S
C1271 C621 1.499 . S
C1287 C655 1.499 . S
C1289 C757 1.499 . S
C1305 C825 1.499 . S
C1307 C1063 1.499 . S
C1323 C961 1.499 . S
C1325 C859 1.499 . S
C1341 C893 1.499 . S
C1343 C995 1.499 . S
C1359 C1029 1.499 . S
C1361 C927 1.499 . S
C1377 C954 0.916 . S
C1379 C20 0.921 . S
C1395 C54 0.921 . S
C1397 C444 0.916 1_545 S
C1413 C1022 0.916 . S
C1415 C88 0.921 . S
C1431 C122 0.921 . S
C1433 C512 0.916 1_565 S
C1449 C156 0.921 . S
C1451 C818 0.916 . S
C1467 C308 0.916 1_545 S
C1469 C190 0.921 . S
C1485 C224 0.921 . S
C1487 C886 0.916 . S
C1503 C258 0.921 . S
C1505 C376 0.916 1_565 S
C1521 C682 0.916 . S
C1523 C292 0.921 . S
C1539 C326 0.921 . S
C1541 C172 0.916 1_565 S
C1557 C750 0.916 . S
C1559 C360 0.921 . S
C1575 C240 0.916 1_545 S
C1577 C394 0.921 . S
C1593 C428 0.921 . S
C1595 C546 0.916 . S
C1611 C462 0.921 . S
C1613 C36 0.916 1_565 S
C1629 C496 0.921 . S
C1631 C614 0.916 . S
C1647 C104 0.916 1_545 S
C1649 C530 0.921 . S
C1665 C564 0.921 . S
C1667 C410 0.916 . S
C1683 C988 0.916 . S
C1685 C598 0.921 . S
C1701 C632 0.921 . S
C1703 C478 0.916 . S
C1719 C666 0.921 . S
C1721 C1056 0.916 . S
C1737 C700 0.921 . S
C1739 C274 0.916 . S
C1755 C852 0.916 . S
C1757 C734 0.921 . S
C1773 C768 0.921 . S
C1775 C342 0.916 . S
C1791 C802 0.921 . S
C1793 C920 0.916 . S
C1809 C138 0.916 . S
C1811 C836 0.921 . S
C1827 C716 0.916 . S
C1829 C870 0.921 . S
C1845 C206 0.916 . S
C1847 C904 0.921 . S
C1863 C784 0.916 . S
C1865 C938 0.921 . S
C1881 C972 0.921 . S
C1883 C2 0.916 . S
C1899 C580 0.916 . S
C1901 C1006 0.921 . S
C1917 C1040 0.921 . S
C1919 C70 0.916 . S
C1935 C648 0.916 . S
C1937 C1074 0.921 . S
C1953 C141 1.677 . S
C1955 C5 1.677 . S
C1971 C175 1.678 . S
C1973 C39 1.678 . S
C1989 C73 1.678 . S
C1991 C209 1.678 . S
C2007 C243 1.678 . S
C2009 C107 1.678 . S
C2025 C413 1.678 . S
C2027 C277 1.678 . S
C2043 C447 1.678 . S
C2045 C311 1.678 . S
C2061 C345 1.677 . S
C2063 C481 1.677 . S
C2079 C379 1.678 . S
C2081 C515 1.678 . S
C2097 C685 1.677 . S
C2099 C549 1.677 . S
C2115 C719 1.677 . S
C2117 C583 1.677 . S
C2133 C617 1.678 . S
C2135 C753 1.678 . S
C2151 C651 1.677 . S
C2153 C787 1.677 . S
C2169 C957 1.677 . S
C2171 C821 1.677 . S
C2187 C991 1.677 . S
C2189 C855 1.677 . S
C2205 C889 1.678 . S
C2207 C1025 1.678 . S
C2223 C923 1.678 . S
C2225 C1059 1.678 . S
C2241 C645 1.656 . S
C2243 C33 1.656 . S
C2259 C67 1.656 . S
C2261 C679 1.656 . S
C2277 C577 1.657 . S
C2279 C101 1.657 . S
C2295 C135 1.656 . S
C2297 C611 1.656 . S
C2313 C169 1.657 . S
C2315 C781 1.657 . S
C2331 C815 1.656 . S
C2333 C203 1.656 . S
C2349 C713 1.657 . S
C2351 C237 1.657 . S
C2367 C271 1.656 . S
C2369 C747 1.656 . S
C2385 C305 1.656 . S
C2387 C917 1.656 . S
C2403 C951 1.656 . S
C2405 C339 1.656 . S
C2421 C849 1.657 . S
C2423 C373 1.657 . S
C2439 C407 1.656 . S
C2441 C883 1.656 . S
C2457 C441 1.657 . S
C2459 C1053 1.657 . S
C2475 C1087 1.656 . S
C2477 C475 1.656 . S
C2493 C509 1.657 . S
C2495 C985 1.657 . S
C2511 C543 1.656 . S
C2513 C1019 1.656 . S
