# Generated by pormake.
# Topology uka, (4)-cn, num edge types: 1
# Building blocks:
#     Node 0, Type 0, BuildingBlock: QUQFOY_clean_sbu_1, # of connection points: 4
#     Node 1, Type 0, BuildingBlock: QUQFOY_clean_sbu_1, # of connection points: 4
#     Node 2, Type 0, BuildingBlock: QUQFOY_clean_sbu_1, # of connection points: 4
#     Node 3, Type 0, BuildingBlock: QUQFOY_clean_sbu_1, # of connection points: 4
#     Node 4, Type 0, BuildingBlock: QUQFOY_clean_sbu_1, # of connection points: 4
#     Node 5, Type 0, BuildingBlock: QUQFOY_clean_sbu_1, # of connection points: 4
#     Node 6, Type 0, BuildingBlock: QUQFOY_clean_sbu_1, # of connection points: 4
#     Node 7, Type 0, BuildingBlock: QUQFOY_clean_sbu_1, # of connection points: 4
#     Node 8, Type 0, BuildingBlock: QUQFOY_clean_sbu_1, # of connection points: 4
#     Node 9, Type 0, BuildingBlock: QUQFOY_clean_sbu_1, # of connection points: 4
#     Node 10, Type 0, BuildingBlock: QUQFOY_clean_sbu_1, # of connection points: 4
#     Node 11, Type 0, BuildingBlock: QUQFOY_clean_sbu_1, # of connection points: 4
#     Node 12, Type 0, BuildingBlock: QUQFOY_clean_sbu_1, # of connection points: 4
#     Node 13, Type 0, BuildingBlock: QUQFOY_clean_sbu_1, # of connection points: 4
#     Node 14, Type 0, BuildingBlock: QUQFOY_clean_sbu_1, # of connection points: 4
#     Node 15, Type 0, BuildingBlock: QUQFOY_clean_sbu_1, # of connection points: 4
#     Node 16, Type 0, BuildingBlock: QUQFOY_clean_sbu_1, # of connection points: 4
#     Node 17, Type 0, BuildingBlock: QUQFOY_clean_sbu_1, # of connection points: 4
#     Node 18, Type 0, BuildingBlock: QUQFOY_clean_sbu_1, # of connection points: 4
#     Node 19, Type 0, BuildingBlock: QUQFOY_clean_sbu_1, # of connection points: 4
#     Node 20, Type 0, BuildingBlock: QUQFOY_clean_sbu_1, # of connection points: 4
#     Node 21, Type 0, BuildingBlock: QUQFOY_clean_sbu_1, # of connection points: 4
#     Node 22, Type 0, BuildingBlock: QUQFOY_clean_sbu_1, # of connection points: 4
#     Node 23, Type 0, BuildingBlock: QUQFOY_clean_sbu_1, # of connection points: 4
#     Node 24, Type 0, BuildingBlock: QUQFOY_clean_sbu_1, # of connection points: 4
#     Node 25, Type 0, BuildingBlock: QUQFOY_clean_sbu_1, # of connection points: 4
#     Node 26, Type 0, BuildingBlock: QUQFOY_clean_sbu_1, # of connection points: 4
#     Node 27, Type 0, BuildingBlock: QUQFOY_clean_sbu_1, # of connection points: 4
#     Node 28, Type 0, BuildingBlock: QUQFOY_clean_sbu_1, # of connection points: 4
#     Node 29, Type 0, BuildingBlock: QUQFOY_clean_sbu_1, # of connection points: 4
#     Node 30, Type 0, BuildingBlock: QUQFOY_clean_sbu_1, # of connection points: 4
#     Node 31, Type 0, BuildingBlock: QUQFOY_clean_sbu_1, # of connection points: 4
#     Edge 32, Type (0, 0), BuildingBlock: AJUNOK_clean_linker_0, # of connection points: 2
#     Edge 33, Type (0, 0), BuildingBlock: AJUNOK_clean_linker_0, # of connection points: 2
#     Edge 34, Type (0, 0), BuildingBlock: AJUNOK_clean_linker_0, # of connection points: 2
#     Edge 35, Type (0, 0), BuildingBlock: AJUNOK_clean_linker_0, # of connection points: 2
#     Edge 36, Type (0, 0), BuildingBlock: AJUNOK_clean_linker_0, # of connection points: 2
#     Edge 37, Type (0, 0), BuildingBlock: AJUNOK_clean_linker_0, # of connection points: 2
#     Edge 38, Type (0, 0), BuildingBlock: AJUNOK_clean_linker_0, # of connection points: 2
#     Edge 39, Type (0, 0), BuildingBlock: AJUNOK_clean_linker_0, # of connection points: 2
#     Edge 40, Type (0, 0), BuildingBlock: AJUNOK_clean_linker_0, # of connection points: 2
#     Edge 41, Type (0, 0), BuildingBlock: AJUNOK_clean_linker_0, # of connection points: 2
#     Edge 42, Type (0, 0), BuildingBlock: AJUNOK_clean_linker_0, # of connection points: 2
#     Edge 43, Type (0, 0), BuildingBlock: AJUNOK_clean_linker_0, # of connection points: 2
#     Edge 44, Type (0, 0), BuildingBlock: AJUNOK_clean_linker_0, # of connection points: 2
#     Edge 45, Type (0, 0), BuildingBlock: AJUNOK_clean_linker_0, # of connection points: 2
#     Edge 46, Type (0, 0), BuildingBlock: AJUNOK_clean_linker_0, # of connection points: 2
#     Edge 47, Type (0, 0), BuildingBlock: AJUNOK_clean_linker_0, # of connection points: 2
#     Edge 48, Type (0, 0), BuildingBlock: AJUNOK_clean_linker_0, # of connection points: 2
#     Edge 49, Type (0, 0), BuildingBlock: AJUNOK_clean_linker_0, # of connection points: 2
#     Edge 50, Type (0, 0), BuildingBlock: AJUNOK_clean_linker_0, # of connection points: 2
#     Edge 51, Type (0, 0), BuildingBlock: AJUNOK_clean_linker_0, # of connection points: 2
#     Edge 52, Type (0, 0), BuildingBlock: AJUNOK_clean_linker_0, # of connection points: 2
#     Edge 53, Type (0, 0), BuildingBlock: AJUNOK_clean_linker_0, # of connection points: 2
#     Edge 54, Type (0, 0), BuildingBlock: AJUNOK_clean_linker_0, # of connection points: 2
#     Edge 55, Type (0, 0), BuildingBlock: AJUNOK_clean_linker_0, # of connection points: 2
#     Edge 56, Type (0, 0), BuildingBlock: AJUNOK_clean_linker_0, # of connection points: 2
#     Edge 57, Type (0, 0), BuildingBlock: AJUNOK_clean_linker_0, # of connection points: 2
#     Edge 58, Type (0, 0), BuildingBlock: AJUNOK_clean_linker_0, # of connection points: 2
#     Edge 59, Type (0, 0), BuildingBlock: AJUNOK_clean_linker_0, # of connection points: 2
#     Edge 60, Type (0, 0), BuildingBlock: AJUNOK_clean_linker_0, # of connection points: 2
#     Edge 61, Type (0, 0), BuildingBlock: AJUNOK_clean_linker_0, # of connection points: 2
#     Edge 62, Type (0, 0), BuildingBlock: AJUNOK_clean_linker_0, # of connection points: 2
#     Edge 63, Type (0, 0), BuildingBlock: AJUNOK_clean_linker_0, # of connection points: 2
#     Edge 64, Type (0, 0), BuildingBlock: AJUNOK_clean_linker_0, # of connection points: 2
#     Edge 65, Type (0, 0), BuildingBlock: AJUNOK_clean_linker_0, # of connection points: 2
#     Edge 66, Type (0, 0), BuildingBlock: AJUNOK_clean_linker_0, # of connection points: 2
#     Edge 67, Type (0, 0), BuildingBlock: AJUNOK_clean_linker_0, # of connection points: 2
#     Edge 68, Type (0, 0), BuildingBlock: AJUNOK_clean_linker_0, # of connection points: 2
#     Edge 69, Type (0, 0), BuildingBlock: AJUNOK_clean_linker_0, # of connection points: 2
#     Edge 70, Type (0, 0), BuildingBlock: AJUNOK_clean_linker_0, # of connection points: 2
#     Edge 71, Type (0, 0), BuildingBlock: AJUNOK_clean_linker_0, # of connection points: 2
#     Edge 72, Type (0, 0), BuildingBlock: AJUNOK_clean_linker_0, # of connection points: 2
#     Edge 73, Type (0, 0), BuildingBlock: AJUNOK_clean_linker_0, # of connection points: 2
#     Edge 74, Type (0, 0), BuildingBlock: AJUNOK_clean_linker_0, # of connection points: 2
#     Edge 75, Type (0, 0), BuildingBlock: AJUNOK_clean_linker_0, # of connection points: 2
#     Edge 76, Type (0, 0), BuildingBlock: AJUNOK_clean_linker_0, # of connection points: 2
#     Edge 77, Type (0, 0), BuildingBlock: AJUNOK_clean_linker_0, # of connection points: 2
#     Edge 78, Type (0, 0), BuildingBlock: AJUNOK_clean_linker_0, # of connection points: 2
#     Edge 79, Type (0, 0), BuildingBlock: AJUNOK_clean_linker_0, # of connection points: 2
#     Edge 80, Type (0, 0), BuildingBlock: AJUNOK_clean_linker_0, # of connection points: 2
#     Edge 81, Type (0, 0), BuildingBlock: AJUNOK_clean_linker_0, # of connection points: 2
#     Edge 82, Type (0, 0), BuildingBlock: AJUNOK_clean_linker_0, # of connection points: 2
#     Edge 83, Type (0, 0), BuildingBlock: AJUNOK_clean_linker_0, # of connection points: 2
#     Edge 84, Type (0, 0), BuildingBlock: AJUNOK_clean_linker_0, # of connection points: 2
#     Edge 85, Type (0, 0), BuildingBlock: AJUNOK_clean_linker_0, # of connection points: 2
#     Edge 86, Type (0, 0), BuildingBlock: AJUNOK_clean_linker_0, # of connection points: 2
#     Edge 87, Type (0, 0), BuildingBlock: AJUNOK_clean_linker_0, # of connection points: 2
#     Edge 88, Type (0, 0), BuildingBlock: AJUNOK_clean_linker_0, # of connection points: 2
#     Edge 89, Type (0, 0), BuildingBlock: AJUNOK_clean_linker_0, # of connection points: 2
#     Edge 90, Type (0, 0), BuildingBlock: AJUNOK_clean_linker_0, # of connection points: 2
#     Edge 91, Type (0, 0), BuildingBlock: AJUNOK_clean_linker_0, # of connection points: 2
#     Edge 92, Type (0, 0), BuildingBlock: AJUNOK_clean_linker_0, # of connection points: 2
#     Edge 93, Type (0, 0), BuildingBlock: AJUNOK_clean_linker_0, # of connection points: 2
#     Edge 94, Type (0, 0), BuildingBlock: AJUNOK_clean_linker_0, # of connection points: 2
#     Edge 95, Type (0, 0), BuildingBlock: AJUNOK_clean_linker_0, # of connection points: 2
# Relax obj value: 0.071
# Max RMSD: 0.095
# Mean RMSD: 0.095
data_MOF--net-uka--node1-QUQFOY_clean_sbu_1--edge1-AJUNOK_clean_linker_0
_symmetry_space_group_name_H-M    P1
_symmetry_Int_Tables_number       1
_symmetry_cell_setting            triclinic
loop_
_symmetry_equiv_pos_as_xyz
'x, y, z'
_cell_length_a     47.967365
_cell_length_b     47.964056
_cell_length_c     32.88313
_cell_angle_alpha  89.973799
_cell_angle_beta   89.98492
_cell_angle_gamma 90.021576
loop_
_atom_site_label
_atom_site_type_symbol
_atom_site_fract_x
_atom_site_fract_y
_atom_site_fract_z
_atom_type_partial_charge
O0 O 0.12581 0.22214 0.31277 0.0
Cd1 Cd 0.1446 0.25956 0.30245 0.0
Cd2 Cd 0.09356 0.2711 0.26391 0.0
O3 O 0.08479 0.2311 0.28523 0.0
O4 O 0.1846 0.25231 0.31434 0.0
O5 O 0.16939 0.2659 0.2541 0.0
C6 C 0.18997 0.25844 0.277 0.0
C7 C 0.07496 0.28639 0.20122 0.0
C8 C 0.1009 0.21494 0.30512 0.0
C9 C 0.11097 0.30482 0.33859 0.0
O10 O 0.09461 0.30134 0.30861 0.0
O11 O 0.13263 0.28994 0.34277 0.0
O12 O 0.05952 0.28323 0.23289 0.0
O13 O 0.10098 0.27989 0.20437 0.0
O14 O 0.03372 0.87181 0.56532 0.0
Cd15 Cd 0.99828 0.89489 0.55982 0.0
Cd16 Cd 0.97765 0.84715 0.5187 0.0
O17 O 0.01568 0.83291 0.54083 0.0
O18 O 0.00966 0.93357 0.57421 0.0
O19 O 0.99251 0.92207 0.51417 0.0
C20 C 0.00245 0.94102 0.53807 0.0
C21 C 0.96077 0.82767 0.45717 0.0
C22 C 0.03551 0.84585 0.55848 0.0
C23 C 0.94882 0.8665 0.59576 0.0
O24 O 0.94763 0.85241 0.56306 0.0
O25 O 0.96816 0.88412 0.60152 0.0
O26 O 0.96179 0.8135 0.4903 0.0
O27 O 0.97001 0.85293 0.45831 0.0
O28 O 0.3633 0.77295 0.83409 0.0
Cd29 Cd 0.34794 0.73447 0.81955 0.0
Cd30 Cd 0.39689 0.73357 0.77586 0.0
O31 O 0.3975 0.77584 0.78962 0.0
O32 O 0.30818 0.73712 0.83653 0.0
O33 O 0.32126 0.73096 0.77276 0.0
C34 C 0.30144 0.73497 0.79875 0.0
C35 C 0.41008 0.71639 0.71162 0.0
C36 C 0.38292 0.78675 0.81777 0.0
C37 C 0.39121 0.69672 0.85071 0.0
O38 O 0.4069 0.70797 0.8242 0.0
O39 O 0.36532 0.7022 0.85227 0.0
O40 O 0.42785 0.7281 0.7355 0.0
O41 O 0.3844 0.71531 0.72336 0.0
O42 O 0.46574 0.11999 0.06815 0.0
Cd43 Cd 0.50485 0.10694 0.0517 0.0
Cd44 Cd 0.5014 0.15766 0.01418 0.0
O45 O 0.45893 0.1535 0.02363 0.0
O46 O 0.50375 0.06712 0.06878 0.0
O47 O 0.50862 0.08019 1.00484 0.0
C48 C 0.50545 0.06032 0.031 0.0
C49 C 0.52053 0.17545 0.95347 0.0
C50 C 0.44976 0.13792 0.05198 0.0
C51 C 0.53746 0.1511 0.08934 0.0
O52 O 0.52334 0.16708 0.06639 0.0
O53 O 0.5368 0.12482 0.0847 0.0
O54 O 0.50644 0.19101 0.97793 0.0
O55 O 0.52283 0.14933 0.96256 0.0
O56 O 0.12893 0.77977 0.19668 0.0
Cd57 Cd 0.14919 0.74366 0.20971 0.0
Cd58 Cd 0.09701 0.73229 0.24724 0.0
O59 O 0.08812 0.77215 0.22568 0.0
O60 O 0.18821 0.75305 0.19415 0.0
O61 O 0.17607 0.74146 0.25661 0.0
C62 C 0.19522 0.74944 0.23154 0.0
C63 C 0.07828 0.71639 0.3096 0.0
C64 C 0.10416 0.78737 0.20413 0.0
C65 C 0.11591 0.69793 0.17367 0.0
O66 O 0.0985 0.70246 0.20205 0.0
O67 O 0.1384 0.71176 0.17108 0.0
O68 O 0.06292 0.7198 0.27793 0.0
O69 O 0.10428 0.72306 0.30666 0.0
O70 O 0.48801 0.87866 0.44066 0.0
Cd71 Cd 0.52517 0.89567 0.45731 0.0
Cd72 Cd 0.53019 0.84428 0.4978 0.0
O73 O 0.48918 0.84021 0.47747 0.0
O74 O 0.52016 0.93597 0.44526 0.0
O75 O 0.52753 0.91964 0.50719 0.0
C76 C 0.52238 0.94064 0.48372 0.0
C77 C 0.5436 0.82551 0.56125 0.0
C78 C 0.47674 0.8561 0.45226 0.0
C79 C 0.56881 0.8581 0.42616 0.0
O80 O 0.56036 0.84106 0.45314 0.0
O81 O 0.55827 0.88226 0.42288 0.0
O82 O 0.53607 0.80979 0.53151 0.0
O83 O 0.54282 0.85215 0.55562 0.0
O84 O 0.37011 0.21581 0.69261 0.0
Cd85 Cd 0.35593 0.25465 0.70712 0.0
Cd86 Cd 0.40756 0.25563 0.74795 0.0
O87 O 0.40761 0.21369 0.73119 0.0
O88 O 0.31557 0.25272 0.69347 0.0
O89 O 0.33119 0.25976 0.75583 0.0
C90 C 0.31031 0.25601 0.7316 0.0
C91 C 0.42576 0.27127 0.81051 0.0
C92 C 0.39099 0.20237 0.70583 0.0
C93 C 0.39776 0.29401 0.67495 0.0
O94 O 0.41413 0.28377 0.70141 0.0
O95 O 0.37244 0.28646 0.6727 0.0
O96 O 0.44154 0.26051 0.783 0.0
O97 O 0.39925 0.27177 0.80359 0.0
O98 O 0.03148 0.12007 0.94639 0.0
Cd99 Cd 0.99391 0.10212 0.95822 0.0
Cd100 Cd 0.98486 0.15331 0.99764 0.0
O101 O 0.02514 0.16078 0.97623 0.0
O102 O -1e-05 0.06202 0.94579 0.0
O103 O 0.98814 0.07738 1.00672 0.0
C104 C 0.99459 0.0567 0.98338 0.0
C105 C 0.9695 0.17134 0.06058 0.0
C106 C 0.04006 0.1444 0.95476 0.0
C107 C 0.94933 0.13724 0.9239 0.0
O108 O 0.95445 0.1537 0.95322 0.0
O109 O 0.96286 0.11475 0.91947 0.0
O110 O 0.97368 0.18722 0.02963 0.0
O111 O 0.97535 0.14519 0.05673 0.0
O112 O 0.87195 0.78496 0.69911 0.0
Cd113 Cd 0.85457 0.74716 0.71156 0.0
Cd114 Cd 0.90688 0.73973 0.74931 0.0
O115 O 0.91244 0.78093 0.7304 0.0
O116 O 0.81418 0.75312 0.70049 0.0
O117 O 0.83059 0.74208 0.76114 0.0
C118 C 0.80954 0.74858 0.73852 0.0
C119 C 0.92501 0.72318 0.81151 0.0
C120 C 0.89555 0.79499 0.7085 0.0
C121 C 0.89103 0.70445 0.675 0.0
O122 O 0.90814 0.7108 0.70299 0.0
O123 O 0.86731 0.71604 0.67266 0.0
O124 O 0.94097 0.72859 0.78104 0.0
O125 O 0.89871 0.72827 0.80754 0.0
O126 O 0.97072 0.11487 0.44247 0.0
Cd127 Cd 0.00989 0.10101 0.45549 0.0
Cd128 Cd 0.01219 0.15212 0.49442 0.0
O129 O 0.96997 0.15306 0.47958 0.0
O130 O 0.00773 0.06056 0.44252 0.0
O131 O 0.01691 0.07656 0.50405 0.0
C132 C 0.0125 0.05553 0.48037 0.0
C133 C 0.02935 0.1685 0.5573 0.0
C134 C 0.95799 0.13636 0.45501 0.0
C135 C 0.04717 0.14263 0.41825 0.0
O136 O 0.03827 0.15921 0.44549 0.0
O137 O 0.03984 0.11721 0.41759 0.0
O138 O 0.01823 0.18511 0.53115 0.0
O139 O 0.02975 0.14223 0.54867 0.0
O140 O 0.6235 0.22399 0.18951 0.0
Cd141 Cd 0.64669 0.259 0.19998 0.0
Cd142 Cd 0.59868 0.27655 0.24309 0.0
O143 O 0.58591 0.23759 0.22262 0.0
O144 O 0.6856 0.24825 0.186 0.0
O145 O 0.67281 0.26176 0.24747 0.0
C146 C 0.69223 0.2531 0.2233 0.0
C147 C 0.58157 0.29188 0.30664 0.0
C148 C 0.59847 0.21981 0.20048 0.0
C149 C 0.617 0.30899 0.16793 0.0
O150 O 0.6008 0.30678 0.19843 0.0
O151 O 0.6369 0.29193 0.16256 0.0
O152 O 0.5653 0.28805 0.2761 0.0
O153 O 0.60777 0.28684 0.30163 0.0
O154 O 0.51863 0.88232 0.93627 0.0
Cd155 Cd 0.48186 0.90121 0.95043 0.0
Cd156 Cd 0.47472 0.85125 0.99494 0.0
O157 O 0.51594 0.84552 0.97641 0.0
O158 O 0.48819 0.94119 0.93694 0.0
O159 O 0.47964 0.92613 0.99927 0.0
C160 C 0.48564 0.94658 0.97518 0.0
C161 C 0.4591 0.83348 0.05805 0.0
C162 C 0.52913 0.85999 0.95018 0.0
C163 C 0.43762 0.86373 0.92093 0.0
O164 O 0.44535 0.84754 0.94941 0.0
O165 O 0.44866 0.88758 0.91621 0.0
O166 O 0.46703 0.81732 0.02907 0.0
O167 O 0.46109 0.86001 0.05209 0.0
O168 O 0.86807 0.21703 0.82207 0.0
Cd169 Cd 0.84907 0.25391 0.80908 0.0
Cd170 Cd 0.90204 0.26185 0.76783 0.0
O171 O 0.90843 0.22169 0.79041 0.0
O172 O 0.80997 0.24692 0.82686 0.0
O173 O 0.82128 0.25679 0.76344 0.0
C174 C 0.80228 0.25044 0.78973 0.0
C175 C 0.92297 0.27647 0.70633 0.0
C176 C 0.89202 0.2077 0.81316 0.0
C177 C 0.88509 0.29932 0.83982 0.0
O178 O 0.90174 0.29282 0.81131 0.0
O179 O 0.86223 0.28647 0.84486 0.0
O180 O 0.93743 0.27224 0.73867 0.0
O181 O 0.89663 0.27102 0.70794 0.0
O182 O 0.5264 0.12253 0.5724 0.0
Cd183 Cd 0.49184 0.09832 0.56508 0.0
Cd184 Cd 0.47216 0.14424 0.5208 0.0
O185 O 0.50972 0.16005 0.54219 0.0
O186 O 0.50416 0.0601 0.58027 0.0
O187 O 0.48889 0.07116 0.51893 0.0
C188 C 0.49891 0.05261 0.54344 0.0
C189 C 0.45655 0.15935 0.45623 0.0
C190 C 0.52876 0.14802 0.5627 0.0
C191 C 0.44132 0.12662 0.59736 0.0
O192 O 0.44157 0.14078 0.56467 0.0
O193 O 0.45997 0.10846 0.60429 0.0
O194 O 0.45643 0.1756 0.4873 0.0
O195 O 0.46592 0.13437 0.46137 0.0
O196 O 0.63507 0.76597 0.33179 0.0
Cd197 Cd 0.64587 0.72712 0.31171 0.0
Cd198 Cd 0.59825 0.73446 0.27301 0.0
O199 O 0.60415 0.77649 0.28504 0.0
O200 O 0.68637 0.72548 0.32378 0.0
O201 O 0.66917 0.72408 0.26139 0.0
C202 C 0.69066 0.7253 0.28506 0.0
C203 C 0.58217 0.71725 0.21018 0.0
C204 C 0.6188 0.7836 0.31562 0.0
C205 C 0.6002 0.69699 0.34708 0.0
O206 O 0.58583 0.71259 0.32392 0.0
O207 O 0.62649 0.69547 0.34313 0.0
O208 O 0.5664 0.73189 0.23364 0.0
O209 O 0.60758 0.713 0.22167 0.0
O210 O 0.96406 0.87825 0.07102 0.0
Cd211 Cd 0.00227 0.895 0.05957 0.0
Cd212 Cd 0.00888 0.84314 0.01771 0.0
O213 O 0.96732 0.83919 0.03586 0.0
O214 O 0.99761 0.93458 0.07627 0.0
O215 O 0.00817 0.92198 0.01358 0.0
C216 C 0.00258 0.94163 0.03919 0.0
C217 C 0.0245 0.82314 0.95594 0.0
C218 C 0.95361 0.85533 0.05929 0.0
C219 C 0.04428 0.85604 0.09294 0.0
O220 O 0.03746 0.83959 0.06431 0.0
O221 O 0.03326 0.87994 0.09652 0.0
O222 O 0.01556 0.80809 0.98559 0.0
O223 O 0.02378 0.84986 0.96048 0.0
O224 O 0.63531 0.72369 0.8371 0.0
Cd225 Cd 0.65018 0.76219 0.82244 0.0
Cd226 Cd 0.60123 0.76301 0.77672 0.0
O227 O 0.59964 0.72137 0.79507 0.0
O228 O 0.69023 0.76027 0.83801 0.0
O229 O 0.67598 0.76646 0.77476 0.0
C230 C 0.69631 0.7628 0.80001 0.0
C231 C 0.58626 0.77713 0.71158 0.0
C232 C 0.61482 0.71032 0.82251 0.0
C233 C 0.6072 0.80176 0.85008 0.0
O234 O 0.59231 0.79167 0.82168 0.0
O235 O 0.63228 0.79407 0.8552 0.0
O236 O 0.56914 0.76706 0.73792 0.0
O237 O 0.6123 0.77823 0.72142 0.0
O238 O 0.53065 0.37775 0.0685 0.0
Cd239 Cd 0.49166 0.38945 0.04962 0.0
Cd240 Cd 0.49787 0.33985 0.01267 0.0
O241 O 0.54002 0.34539 0.02326 0.0
O242 O 0.49095 0.4298 0.06385 0.0
O243 O 0.48815 0.41439 1.00071 0.0
C244 C 0.49001 0.43522 0.02548 0.0
C245 C 0.47906 0.32226 0.95179 0.0
C246 C 0.54774 0.36064 0.05287 0.0
C247 C 0.46101 0.3443 0.08712 0.0
O248 O 0.47627 0.32916 0.06453 0.0
O249 O 0.4599 0.37053 0.08187 0.0
O250 O 0.49391 0.30686 0.97552 0.0
O251 O 0.47599 0.34818 0.96155 0.0
O252 O 0.8674 0.2732 0.32574 0.0
Cd253 Cd 0.84989 0.23561 0.31235 0.0
Cd254 Cd 0.90198 0.22761 0.27403 0.0
O255 O 0.90838 0.26787 0.29618 0.0
O256 O 0.80953 0.24142 0.32336 0.0
O257 O 0.82609 0.23076 0.26263 0.0
C258 C 0.80496 0.23692 0.2853 0.0
C259 C 0.92098 0.21424 0.21072 0.0
C260 C 0.89159 0.28232 0.31763 0.0
C261 C 0.88503 0.1907 0.34619 0.0
O262 O 0.90194 0.19654 0.31764 0.0
O263 O 0.8623 0.2039 0.35029 0.0
O264 O 0.93643 0.21751 0.24235 0.0
O265 O 0.89467 0.21935 0.21444 0.0
O266 O 0.96928 0.62165 0.57444 0.0
Cd267 Cd 0.00575 0.60142 0.56255 0.0
Cd268 Cd 0.01853 0.65243 0.52373 0.0
O269 O 0.97878 0.66212 0.54546 0.0
O270 O 0.99731 0.56155 0.57387 0.0
O271 O 0.01002 0.57705 0.51335 0.0
C272 C 0.00241 0.55644 0.53612 0.0
C273 C 0.03324 0.67026 0.46025 0.0
C274 C 0.96246 0.64655 0.56603 0.0
C275 C 0.05339 0.63293 0.59659 0.0
O276 O 0.04954 0.64994 0.56742 0.0
O277 O 0.03786 0.61174 0.60102 0.0
O278 O 0.03125 0.68593 0.49187 0.0
O279 O 0.02618 0.64441 0.46411 0.0
O280 O 0.62968 0.2784 0.69527 0.0
Cd281 Cd 0.64121 0.23927 0.71384 0.0
Cd282 Cd 0.59132 0.24496 0.75063 0.0
O283 O 0.59617 0.28705 0.73911 0.0
O284 O 0.68146 0.23836 0.69929 0.0
O285 O 0.6662 0.23483 0.76245 0.0
C286 C 0.68697 0.23661 0.73754 0.0
C287 C 0.5734 0.22692 0.81193 0.0
C288 C 0.6118 0.29506 0.7101 0.0
C289 C 0.59642 0.20828 0.67601 0.0
O290 O 0.58099 0.22293 0.69904 0.0
O291 O 0.62267 0.20779 0.68091 0.0
O292 O 0.55807 0.24116 0.78734 0.0
O293 O 0.59941 0.22391 0.80267 0.0
O294 O 0.96806 0.38092 0.93591 0.0
Cd295 Cd 0.0062 0.39771 0.94796 0.0
Cd296 Cd 0.014 0.34642 0.98581 0.0
O297 O 0.9731 0.34021 0.96631 0.0
O298 O 0.00108 0.43819 0.93754 0.0
O299 O 0.01258 0.4211 0.99767 0.0
C300 C 0.00653 0.44246 0.97539 0.0
C301 C 0.02898 0.32996 0.04979 0.0
C302 C 0.95861 0.35701 0.94492 0.0
C303 C 0.0494 0.36178 0.91168 0.0
O304 O 0.04364 0.34481 0.94018 0.0
O305 O 0.03698 0.38502 0.90869 0.0
O306 O 0.02461 0.31324 0.01985 0.0
O307 O 0.02405 0.35614 0.04403 0.0
O308 O 0.86918 0.71725 0.19101 0.0
Cd309 Cd 0.84889 0.75336 0.20403 0.0
Cd310 Cd 0.90025 0.76409 0.24349 0.0
O311 O 0.9092 0.72403 0.22258 0.0
O312 O 0.80985 0.74432 0.18838 0.0
O313 O 0.82219 0.75514 0.25107 0.0
C314 C 0.80296 0.7475 0.22592 0.0
C315 C 0.91699 0.77949 0.30717 0.0
C316 C 0.89352 0.70909 0.20009 0.0
C317 C 0.88256 0.79952 0.17018 0.0
O318 O 0.89971 0.79431 0.19866 0.0
O319 O 0.86 0.78591 0.16673 0.0
O320 O 0.93335 0.77637 0.27648 0.0
O321 O 0.89107 0.773 0.30236 0.0
O322 O 0.51668 0.62121 0.4431 0.0
Cd323 Cd 0.47983 0.6012 0.45241 0.0
Cd324 Cd 0.46769 0.65003 0.49792 0.0
O325 O 0.50855 0.65849 0.48053 0.0
O326 O 0.48799 0.56201 0.43682 0.0
O327 O 0.47587 0.57457 0.49904 0.0
C328 C 0.48367 0.55519 0.4742 0.0
C329 C 0.45158 0.66749 0.561 0.0
C330 C 0.52438 0.64468 0.45683 0.0
C331 C 0.43439 0.63691 0.42072 0.0
O332 O 0.43887 0.65242 0.4514 0.0
O333 O 0.44819 0.61467 0.41511 0.0
O334 O 0.45846 0.68378 0.53161 0.0
O335 O 0.45441 0.64102 0.55525 0.0
O336 O 0.3741 0.27332 0.18946 0.0
Cd337 Cd 0.34969 0.23874 0.1964 0.0
Cd338 Cd 0.39622 0.21788 0.23895 0.0
O339 O 0.41195 0.25542 0.2172 0.0
O340 O 0.31132 0.25107 0.18213 0.0
O341 O 0.32273 0.23458 0.24265 0.0
C342 C 0.30391 0.24464 0.21862 0.0
C343 C 0.41336 0.20131 0.30195 0.0
C344 C 0.39985 0.27505 0.19796 0.0
C345 C 0.37652 0.18779 0.16288 0.0
O346 O 0.39103 0.18745 0.19523 0.0
O347 O 0.35902 0.20713 0.15645 0.0
O348 O 0.42856 0.20164 0.26976 0.0
O349 O 0.38837 0.21105 0.29895 0.0
O350 O 0.47669 0.61638 0.94122 0.0
Cd351 Cd 0.51333 0.59661 0.95348 0.0
Cd352 Cd 0.52198 0.64721 1.0001 0.0
O353 O 0.48108 0.65348 0.98041 0.0
O354 O 0.5063 0.55755 0.93534 0.0
O355 O 0.51538 0.56874 0.9991 0.0
C356 C 0.50904 0.54984 0.97265 0.0
C357 C 0.53657 0.66674 0.06287 0.0
C358 C 0.46708 0.63914 0.95492 0.0
C359 C 0.55877 0.63406 0.92577 0.0
O360 O 0.55192 0.64988 0.95515 0.0
O361 O 0.54651 0.61096 0.91967 0.0
O362 O 0.52946 0.68203 0.03247 0.0
O363 O 0.53472 0.64008 0.05837 0.0
O364 O 0.12836 0.71557 0.69665 0.0
Cd365 Cd 0.14242 0.75367 0.71589 0.0
Cd366 Cd 0.09232 0.75108 0.7527 0.0
O367 O 0.09458 0.7087 0.74067 0.0
O368 O 0.18296 0.75194 0.70322 0.0
O369 O 0.16654 0.75605 0.76569 0.0
C370 C 0.18769 0.75299 0.74176 0.0
C371 C 0.07393 0.76951 0.81366 0.0
C372 C 0.10956 0.69993 0.71136 0.0
C373 C 0.09997 0.78743 0.67782 0.0
O374 O 0.08374 0.77373 0.70097 0.0
O375 O 0.12622 0.78632 0.68268 0.0
O376 O 0.05856 0.75617 0.78812 0.0
O377 O 0.10018 0.7717 0.80544 0.0
O378 O 0.0281 0.37987 0.44308 0.0
Cd379 Cd 0.98986 0.39596 0.45616 0.0
Cd380 Cd 0.9856 0.34346 0.4966 0.0
O381 O 0.02634 0.33944 0.47507 0.0
O382 O 0.9941 0.43575 0.44009 0.0
O383 O 0.98469 0.42251 0.50289 0.0
C384 C 0.98992 0.44242 0.4775 0.0
C385 C 0.97187 0.32439 0.5597 0.0
C386 C 0.0392 0.35674 0.45229 0.0
C387 C 0.94757 0.35702 0.42406 0.0
O388 O 0.95517 0.34074 0.45245 0.0
O389 O 0.95851 0.38091 0.41968 0.0
O390 O 0.97705 0.3088 0.52877 0.0
O391 O 0.97564 0.3509 0.55564 0.0
O392 O 0.36596 0.7294 0.3298 0.0
Cd393 Cd 0.35321 0.76854 0.31514 0.0
Cd394 Cd 0.40157 0.76727 0.27123 0.0
O395 O 0.40065 0.72501 0.2865 0.0
O396 O 0.31282 0.76795 0.32842 0.0
O397 O 0.3291 0.7736 0.266 0.0
C398 C 0.30799 0.77032 0.28999 0.0
C399 C 0.41516 0.78362 0.20671 0.0
C400 C 0.38509 0.71471 0.31413 0.0
C401 C 0.39763 0.80472 0.34598 0.0
O402 O 0.41244 0.79368 0.31824 0.0
O403 O 0.37182 0.79926 0.34917 0.0
O404 O 0.43258 0.77138 0.23058 0.0
O405 O 0.38951 0.78541 0.21845 0.0
O406 O 0.03595 0.61999 0.07073 0.0
Cd407 Cd 0.99818 0.60201 0.06024 0.0
Cd408 Cd 0.98958 0.65368 0.01869 0.0
O409 O 0.03036 0.66021 0.03893 0.0
O410 O 0.00415 0.56218 0.07467 0.0
O411 O 0.99224 0.57615 0.01306 0.0
C412 C 0.99866 0.55599 0.03742 0.0
C413 C 0.97328 0.67325 0.95713 0.0
C414 C 0.04508 0.64388 0.0608 0.0
C415 C 0.95406 0.63827 0.09326 0.0
O416 O 0.95964 0.6544 0.06371 0.0
O417 O 0.96712 0.61556 0.09833 0.0
O418 O 0.97858 0.68842 0.98843 0.0
O419 O 0.9787 0.64694 0.95964 0.0
O420 O 0.1304 0.28066 0.8169 0.0
Cd421 Cd 0.14859 0.2429 0.80696 0.0
Cd422 Cd 0.09708 0.23404 0.76524 0.0
O423 O 0.09199 0.27586 0.78073 0.0
O424 O 0.18796 0.24943 0.8238 0.0
O425 O 0.17603 0.2376 0.76134 0.0
C426 C 0.19533 0.24442 0.78688 0.0
C427 C 0.07923 0.21659 0.7032 0.0
C428 C 0.10745 0.29039 0.8041 0.0
C429 C 0.11043 0.20069 0.8423 0.0
O430 O 0.09371 0.20669 0.81358 0.0
O431 O 0.13427 0.21203 0.84497 0.0
O432 O 0.06306 0.22568 0.73146 0.0
O433 O 0.10578 0.21821 0.7093 0.0
O434 O 0.47859 0.38035 0.58146 0.0
Cd435 Cd 0.51431 0.39981 0.5637 0.0
Cd436 Cd 0.52288 0.34987 0.52389 0.0
O437 O 0.48255 0.3422 0.54466 0.0
O438 O 0.50672 0.43981 0.57463 0.0
O439 O 0.51491 0.42313 0.5131 0.0
C440 C 0.50859 0.44409 0.53602 0.0
C441 C 0.53699 0.33415 0.45921 0.0
C442 C 0.46913 0.3569 0.57032 0.0
C443 C 0.56045 0.36563 0.59535 0.0
O444 O 0.55327 0.34801 0.56838 0.0
O445 O 0.5484 0.38911 0.59802 0.0
O446 O 0.53089 0.31697 0.48794 0.0
O447 O 0.5345 0.36046 0.46659 0.0
C448 C 0.09044 0.1633 0.39035 0.0
C449 C 0.06298 0.15446 0.38424 0.0
C450 C 0.1036 0.18068 0.36202 0.0
C451 C 0.08935 0.19057 0.32728 0.0
H452 H 0.10128 0.15801 0.41822 0.0
H453 H 0.12433 0.18812 0.36929 0.0
S454 S 0.01786 0.17034 0.29583 0.0
N455 N 0.02275 0.15404 0.33952 0.0
N456 N 0.04709 0.18745 0.28655 0.0
C457 C 0.06245 0.18013 0.31959 0.0
C458 C 0.04931 0.16196 0.34814 0.0
C459 C 0.05145 0.80171 0.59034 0.0
C460 C 0.05711 0.82968 0.58044 0.0
C461 C 0.06627 0.78808 0.621 0.0
C462 C 0.08778 0.80158 0.64229 0.0
H463 H 0.03405 0.79081 0.57663 0.0
H464 H 0.06017 0.76703 0.62908 0.0
S465 S 0.11443 0.8728 0.62315 0.0
N466 N 0.08822 0.86923 0.59096 0.0
N467 N 0.11663 0.84294 0.64804 0.0
C468 C 0.09559 0.82848 0.63018 0.0
C469 C 0.08013 0.84268 0.59931 0.0
C470 C 0.39461 0.83833 0.90237 0.0
C471 C 0.41886 0.85218 0.88988 0.0
C472 C 0.38115 0.81945 0.87661 0.0
C473 C 0.39206 0.81296 0.83788 0.0
H474 H 0.38711 0.84064 0.93329 0.0
H475 H 0.3635 0.80809 0.88881 0.0
S476 S 0.45278 0.84726 0.7889 0.0
N477 N 0.45118 0.86139 0.83465 0.0
N478 N 0.42641 0.82516 0.78632 0.0
C479 C 0.41481 0.82876 0.82365 0.0
C480 C 0.42814 0.84852 0.84972 0.0
C481 C 0.39042 0.18191 0.09074 0.0
C482 C 0.38556 0.16977 0.12905 0.0
C483 C 0.40903 0.16967 0.06309 0.0
C484 C 0.42312 0.14479 0.07281 0.0
H485 H 0.38234 0.20247 0.08386 0.0
H486 H 0.41435 0.18121 0.03584 0.0
S487 S 0.41046 0.10081 0.16412 0.0
N488 N 0.39135 0.12896 0.1717 0.0
N489 N 0.42541 0.10519 0.11933 0.0
C490 C 0.4149 0.13042 0.10834 0.0
C491 C 0.39638 0.14316 0.13668 0.0
C492 C 0.06642 0.82238 0.19083 0.0
C493 C 0.09246 0.81092 0.18036 0.0
C494 C 0.0519 0.83957 0.16353 0.0
C495 C 0.06279 0.84537 0.12477 0.0
H496 H 0.05647 0.81677 0.21926 0.0
H497 H 0.03113 0.84653 0.17155 0.0
S498 S 0.13114 0.82353 0.08386 0.0
N499 N 0.12974 0.80952 0.12968 0.0
N500 N 0.10164 0.84079 0.07833 0.0
C501 C 0.08942 0.83575 0.11492 0.0
C502 C 0.10453 0.81884 0.14284 0.0
C503 C 0.42628 0.84544 0.36551 0.0
C504 C 0.41182 0.82138 0.37712 0.0
C505 C 0.44545 0.85797 0.39183 0.0
C506 C 0.45159 0.84628 0.43022 0.0
H507 H 0.42378 0.85384 0.33513 0.0
H508 H 0.45699 0.8758 0.38058 0.0
S509 S 0.41705 0.78448 0.47581 0.0
N510 N 0.40269 0.78751 0.43035 0.0
N511 N 0.43952 0.81047 0.47968 0.0
C512 C 0.43592 0.82307 0.44303 0.0
C513 C 0.41587 0.81072 0.41645 0.0
C514 C 0.42419 0.16266 0.695 0.0
C515 C 0.3988 0.17583 0.68531 0.0
C516 C 0.43636 0.14333 0.66833 0.0
C517 C 0.4237 0.13684 0.63091 0.0
H518 H 0.43593 0.16898 0.72158 0.0
H519 H 0.45714 0.1358 0.67511 0.0
S520 S 0.35407 0.15971 0.59591 0.0
N521 N 0.35871 0.1761 0.63952 0.0
N522 N 0.38242 0.1408 0.58893 0.0
C523 C 0.39692 0.14713 0.62322 0.0
C524 C 0.38421 0.16634 0.65063 0.0
C525 C 0.0917 0.19642 0.91216 0.0
C526 C 0.09987 0.18347 0.87577 0.0
C527 C 0.07423 0.18267 0.93991 0.0
C528 C 0.06461 0.15543 0.93223 0.0
H529 H 0.09698 0.21807 0.91764 0.0
H530 H 0.06673 0.19417 0.96607 0.0
S531 S 0.08472 0.11115 0.84395 0.0
N532 N 0.10016 0.14135 0.83537 0.0
N533 N 0.06837 0.11471 0.88783 0.0
C534 C 0.07523 0.14137 0.89771 0.0
C535 C 0.0925 0.15566 0.86923 0.0
C536 C 0.94507 0.84928 0.66668 0.0
C537 C 0.93172 0.857 0.63029 0.0
C538 C 0.93216 0.83111 0.69436 0.0
C539 C 0.9053 0.82044 0.68681 0.0
H540 H 0.96664 0.855 0.67187 0.0
H541 H 0.94415 0.82376 0.72013 0.0
S542 S 0.85936 0.84017 0.60018 0.0
N543 N 0.889 0.85653 0.59113 0.0
N544 N 0.86393 0.82355 0.64364 0.0
C545 C 0.89051 0.83107 0.65297 0.0
C546 C 0.90396 0.84902 0.62448 0.0
C547 C 0.9189 0.1703 0.44424 0.0
C548 C 0.93205 0.14507 0.43364 0.0
C549 C 0.90053 0.18359 0.41724 0.0
C550 C 0.89501 0.17222 0.3787 0.0
H551 H 0.92452 0.18103 0.47204 0.0
H552 H 0.89283 0.20416 0.42498 0.0
S553 S 0.91887 0.10407 0.33947 0.0
N554 N 0.93371 0.10683 0.38458 0.0
N555 N 0.90033 0.13277 0.33355 0.0
C556 C 0.90552 0.1458 0.36946 0.0
C557 C 0.92367 0.13189 0.39715 0.0
C558 C 0.58161 0.16171 0.12644 0.0
C559 C 0.55252 0.1636 0.1237 0.0
C560 C 0.59638 0.17828 0.15427 0.0
C561 C 0.58248 0.19709 0.1804 0.0
H562 H 0.59309 0.1488 0.10523 0.0
H563 H 0.61895 0.17756 0.15347 0.0
S564 S 0.50565 0.20498 0.18977 0.0
N565 N 0.50993 0.18233 0.15251 0.0
N566 N 0.53734 0.21304 0.20546 0.0
C567 C 0.55309 0.19689 0.18043 0.0
C568 C 0.5382 0.18033 0.15174 0.0
C569 C 0.56115 0.85849 0.89054 0.0
C570 C 0.55423 0.84856 0.9297 0.0
C571 C 0.58009 0.84428 0.86576 0.0
C572 C 0.59358 0.82021 0.87965 0.0
H573 H 0.55035 0.8762 0.87753 0.0
H574 H 0.58314 0.85134 0.83476 0.0
S575 S 0.58619 0.78762 0.98125 0.0
N576 N 0.56463 0.81447 0.9824 0.0
N577 N 0.60106 0.7883 0.93592 0.0
C578 C 0.58885 0.81134 0.91977 0.0
C579 C 0.569 0.82543 0.94482 0.0
C580 C 0.92863 0.17138 0.82599 0.0
C581 C 0.90265 0.18318 0.83607 0.0
C582 C 0.94248 0.15354 0.85314 0.0
C583 C 0.93098 0.14733 0.8914 0.0
H584 H 0.93918 0.17737 0.7982 0.0
H585 H 0.96336 0.14663 0.84565 0.0
S586 S 0.86192 0.16879 0.93022 0.0
N587 N 0.86431 0.18368 0.88508 0.0
N588 N 0.89123 0.15127 0.93632 0.0
C589 C 0.90419 0.15692 0.90048 0.0
C590 C 0.88974 0.17451 0.87265 0.0
C591 C 0.58789 0.16557 0.63436 0.0
C592 C 0.58344 0.19404 0.64127 0.0
C593 C 0.5717 0.15108 0.60578 0.0
C594 C 0.5508 0.16473 0.58294 0.0
H595 H 0.60263 0.1541 0.65289 0.0
H596 H 0.57445 0.12873 0.60341 0.0
S597 S 0.53577 0.24072 0.58441 0.0
N598 N 0.56005 0.23633 0.61939 0.0
N599 N 0.53 0.20947 0.56512 0.0
C600 C 0.54838 0.19386 0.58686 0.0
C601 C 0.56454 0.20841 0.61634 0.0
C602 C 0.58939 0.82611 0.32688 0.0
C603 C 0.61237 0.8096 0.33837 0.0
C604 C 0.57712 0.84478 0.35443 0.0
C605 C 0.58734 0.84731 0.39431 0.0
H606 H 0.57929 0.82289 0.2978 0.0
H607 H 0.55795 0.85515 0.34578 0.0
S608 S 0.6507 0.81434 0.43649 0.0
N609 N 0.64815 0.80168 0.38995 0.0
N610 N 0.62402 0.83574 0.44192 0.0
C611 C 0.61197 0.83347 0.40466 0.0
C612 C 0.62487 0.81495 0.37651 0.0
C613 C 0.9036 0.8437 0.14598 0.0
C614 C 0.89222 0.81755 0.13685 0.0
C615 C 0.92092 0.85742 0.11818 0.0
C616 C 0.9284 0.84494 0.08083 0.0
H617 H 0.90065 0.85271 0.17589 0.0
H618 H 0.93051 0.87675 0.1279 0.0
S619 S 0.90058 0.77826 0.04064 0.0
N620 N 0.88635 0.78123 0.08618 0.0
N621 N 0.91984 0.80648 0.03424 0.0
C622 C 0.91506 0.81991 0.06994 0.0
C623 C 0.89678 0.8063 0.09797 0.0
C624 C 0.56764 0.6513 0.85587 0.0
C625 C 0.57784 0.64552 0.89504 0.0
C626 C 0.58123 0.67053 0.83048 0.0
C627 C 0.60561 0.68435 0.84336 0.0
H628 H 0.5477 0.64294 0.8463 0.0
H629 H 0.57139 0.67609 0.80196 0.0
S630 S 0.64353 0.6713 0.94029 0.0
N631 N 0.61537 0.65163 0.94339 0.0
N632 N 0.64185 0.68674 0.89548 0.0
C633 C 0.61765 0.676 0.88069 0.0
C634 C 0.60345 0.65692 0.90668 0.0
C635 C 0.60588 0.31661 0.09509 0.0
C636 C 0.60846 0.3276 0.13456 0.0
C637 C 0.58854 0.3294 0.06625 0.0
C638 C 0.57347 0.35371 0.07595 0.0
H639 H 0.61486 0.2965 0.08781 0.0
H640 H 0.58493 0.31868 0.03775 0.0
S641 S 0.58018 0.39476 0.17137 0.0
N642 N 0.5994 0.36673 0.17922 0.0
N643 N 0.56782 0.39165 0.12474 0.0
C644 C 0.57942 0.36701 0.11328 0.0
C645 C 0.59658 0.35365 0.14279 0.0
C646 C 0.92734 0.31977 0.32847 0.0
C647 C 0.90182 0.30739 0.33957 0.0
C648 C 0.94078 0.33871 0.35443 0.0
C649 C 0.92932 0.34553 0.39247 0.0
H650 H 0.93785 0.31352 0.30078 0.0
H651 H 0.96136 0.34616 0.34623 0.0
S652 S 0.86148 0.32236 0.4338 0.0
N653 N 0.86401 0.30651 0.38939 0.0
N654 N 0.89015 0.34113 0.4384 0.0
C655 C 0.90299 0.33515 0.40259 0.0
C656 C 0.88895 0.31639 0.37597 0.0
C657 C 0.91108 0.66 0.65064 0.0
C658 C 0.90139 0.68686 0.64177 0.0
C659 C 0.92868 0.64594 0.62361 0.0
C660 C 0.93806 0.6587 0.58739 0.0
H661 H 0.90646 0.65053 0.6798 0.0
H662 H 0.93679 0.62588 0.63302 0.0
S663 S 0.91574 0.72779 0.54849 0.0
N664 N 0.89967 0.72466 0.59271 0.0
N665 N 0.93361 0.69866 0.54223 0.0
C666 C 0.92678 0.6848 0.57687 0.0
C667 C 0.90825 0.6988 0.60407 0.0
C668 C 0.60268 0.34025 0.61778 0.0
C669 C 0.57915 0.35607 0.62795 0.0
C670 C 0.61558 0.32316 0.64664 0.0
C671 C 0.60471 0.32045 0.68636 0.0
H672 H 0.60992 0.33951 0.58657 0.0
H673 H 0.63249 0.30997 0.63632 0.0
S674 S 0.54644 0.3617 0.72976 0.0
N675 N 0.54812 0.37166 0.68173 0.0
N676 N 0.57176 0.33874 0.73591 0.0
C677 C 0.58303 0.33853 0.698 0.0
C678 C 0.57032 0.35649 0.66871 0.0
C679 C 0.92057 0.32169 0.93565 0.0
C680 C 0.93327 0.34685 0.9236 0.0
C681 C 0.90179 0.30781 0.90992 0.0
C682 C 0.89552 0.31844 0.87115 0.0
H683 H 0.92659 0.31169 0.96386 0.0
H684 H 0.89426 0.2874 0.91884 0.0
S685 S 0.91935 0.38536 0.82742 0.0
N686 N 0.93473 0.38367 0.87226 0.0
N687 N 0.90048 0.35669 0.8237 0.0
C688 C 0.90601 0.34458 0.8602 0.0
C689 C 0.92458 0.35908 0.88658 0.0
C690 C 0.9457 0.65544 0.16329 0.0
C691 C 0.93506 0.64869 0.12471 0.0
C692 C 0.9311 0.67343 0.18937 0.0
C693 C 0.90522 0.68481 0.17786 0.0
H694 H 0.96646 0.64876 0.17189 0.0
H695 H 0.94093 0.67977 0.21755 0.0
S696 S 0.86691 0.6695 0.08193 0.0
N697 N 0.8964 0.65203 0.07773 0.0
N698 N 0.86814 0.68478 0.12686 0.0
C699 C 0.89327 0.67579 0.1408 0.0
C700 C 0.90846 0.65804 0.11411 0.0
C701 C 0.58525 0.6546 0.38533 0.0
C702 C 0.58614 0.68367 0.38165 0.0
C703 C 0.56695 0.64194 0.41304 0.0
C704 C 0.54916 0.658 0.43805 0.0
H705 H 0.59725 0.64162 0.36482 0.0
H706 H 0.56543 0.6194 0.4129 0.0
S707 S 0.54845 0.7353 0.44486 0.0
N708 N 0.57123 0.72832 0.40863 0.0
N709 N 0.53719 0.70476 0.46125 0.0
C710 C 0.55224 0.68719 0.43738 0.0
C711 C 0.57058 0.69997 0.40884 0.0
C712 C 0.4178 0.33493 0.12745 0.0
C713 C 0.44644 0.33095 0.12136 0.0
C714 C 0.40307 0.31824 0.15522 0.0
C715 C 0.41662 0.29728 0.17807 0.0
H716 H 0.40642 0.34969 0.10884 0.0
H717 H 0.38066 0.32073 0.15695 0.0
S718 S 0.49282 0.28327 0.17874 0.0
N719 N 0.48866 0.30784 0.14412 0.0
N720 N 0.46136 0.27686 0.19685 0.0
C721 C 0.44584 0.29524 0.17497 0.0
C722 C 0.46064 0.31192 0.14633 0.0
C723 C 0.43547 0.67963 0.94148 0.0
C724 C 0.44201 0.65134 0.9351 0.0
C725 C 0.41707 0.69376 0.91555 0.0
C726 C 0.40436 0.68003 0.88274 0.0
H727 H 0.44608 0.69154 0.96479 0.0
H728 H 0.4141 0.71598 0.91969 0.0
S729 S 0.41056 0.60541 0.85626 0.0
N730 N 0.4311 0.60937 0.89615 0.0
N731 N 0.39688 0.63642 0.84742 0.0
C732 C 0.40875 0.65143 0.87787 0.0
C733 C 0.4274 0.63691 0.90423 0.0
C734 C 0.07596 0.66095 0.69777 0.0
C735 C 0.10082 0.67499 0.68762 0.0
C736 C 0.0621 0.64425 0.66913 0.0
C737 C 0.07251 0.64133 0.62938 0.0
H738 H 0.06584 0.66476 0.72669 0.0
H739 H 0.04179 0.63592 0.67692 0.0
S740 S 0.13997 0.66755 0.59051 0.0
N741 N 0.13809 0.67965 0.63743 0.0
N742 N 0.11112 0.64942 0.58343 0.0
C743 C 0.09876 0.65245 0.62036 0.0
C744 C 0.11323 0.66889 0.64965 0.0
C745 C 0.07694 0.32189 0.43792 0.0
C746 C 0.06446 0.34782 0.42947 0.0
C747 C 0.09512 0.30933 0.40994 0.0
C748 C 0.10105 0.32213 0.37245 0.0
H749 H 0.07107 0.31025 0.46483 0.0
H750 H 0.1024 0.28835 0.41601 0.0
S751 S 0.07861 0.39215 0.33875 0.0
N752 N 0.0636 0.38791 0.38352 0.0
N753 N 0.09661 0.36337 0.33057 0.0
C754 C 0.09106 0.34905 0.36533 0.0
C755 C 0.07312 0.36221 0.39406 0.0
C756 C 0.42957 0.65466 0.35036 0.0
C757 C 0.41704 0.64831 0.38789 0.0
C758 C 0.41757 0.67429 0.32398 0.0
C759 C 0.39254 0.68795 0.33424 0.0
H760 H 0.45008 0.64657 0.3432 0.0
H761 H 0.4292 0.68045 0.2972 0.0
S762 S 0.34847 0.67278 0.42476 0.0
N763 N 0.37648 0.65327 0.43107 0.0
N764 N 0.35295 0.68906 0.381 0.0
C765 C 0.37812 0.67878 0.3693 0.0
C766 C 0.3907 0.6593 0.3964 0.0
C767 C 0.07863 0.64086 0.11853 0.0
C768 C 0.0701 0.65449 0.08252 0.0
C769 C 0.09603 0.65404 0.14674 0.0
C770 C 0.10644 0.68083 0.13929 0.0
H771 H 0.06986 0.62087 0.127 0.0
H772 H 0.09979 0.64401 0.17576 0.0
S773 S 0.09502 0.72351 0.04679 0.0
N774 N 0.07654 0.69495 0.03884 0.0
N775 N 0.11017 0.71925 0.09147 0.0
C776 C 0.10077 0.69343 0.10159 0.0
C777 C 0.0824 0.68034 0.07321 0.0
C778 C 0.06838 0.32406 0.81602 0.0
C779 C 0.09607 0.31586 0.82388 0.0
C780 C 0.05408 0.34174 0.84283 0.0
C781 C 0.06698 0.35171 0.87829 0.0
H782 H 0.05688 0.31502 0.79092 0.0
H783 H 0.03211 0.34563 0.83762 0.0
S784 S 0.14049 0.34182 0.90859 0.0
N785 N 0.1372 0.32364 0.86623 0.0
N786 N 0.10961 0.35585 0.91711 0.0
C787 C 0.09524 0.34615 0.88443 0.0
C788 C 0.11004 0.3286 0.85688 0.0
C789 C 0.4335 0.31915 0.58008 0.0
C790 C 0.44527 0.34459 0.59292 0.0
C791 C 0.41576 0.30385 0.60569 0.0
C792 C 0.40945 0.31339 0.64498 0.0
H793 H 0.43927 0.3102 0.55104 0.0
H794 H 0.40857 0.28352 0.59581 0.0
S795 S 0.43168 0.37982 0.69183 0.0
N796 N 0.44643 0.3799 0.64646 0.0
N797 N 0.4139 0.35041 0.69451 0.0
C798 C 0.41937 0.33946 0.65722 0.0
C799 C 0.437 0.35533 0.63111 0.0
C800 C 0.26755 0.24297 0.27309 0.0
C801 C 0.27476 0.24879 0.23252 0.0
C802 C 0.24022 0.24653 0.28712 0.0
C803 C 0.21886 0.25601 0.26119 0.0
H804 H 0.28312 0.23552 0.29433 0.0
H805 H 0.23585 0.24155 0.31862 0.0
S806 S 0.22671 0.27457 0.15216 0.0
N807 N 0.25822 0.26485 0.16648 0.0
N808 N 0.20687 0.27146 0.19292 0.0
C809 C 0.22576 0.26212 0.22056 0.0
C810 C 0.25366 0.25853 0.20624 0.0
C811 C 0.00058 0.9773 0.4835 0.0
C812 C 0.00575 0.97033 0.52433 0.0
C813 C 0.00341 0.00475 0.46959 0.0
C814 C 0.01141 0.02649 0.49593 0.0
H815 H 0.99424 0.96145 0.46195 0.0
H816 H -0.00109 0.00894 0.43788 0.0
S817 S 0.02783 0.01934 0.60576 0.0
N818 N 0.01969 0.98747 0.59105 0.0
N819 N 0.02487 0.03906 0.56484 0.0
C820 C 0.0169 0.01982 0.53681 0.0
C821 C 0.01411 0.99178 0.551 0.0
C822 C 0.26572 0.73949 0.74368 0.0
C823 C 0.27208 0.73876 0.78541 0.0
C824 C 0.23852 0.74457 0.73006 0.0
C825 C 0.21645 0.74913 0.75754 0.0
H826 H 0.2819 0.73634 0.72118 0.0
H827 H 0.23484 0.74479 0.69756 0.0
S828 S 0.22184 0.74913 0.87018 0.0
N829 N 0.25388 0.74288 0.85433 0.0
N830 N 0.20282 0.75239 0.82864 0.0
C831 C 0.22245 0.7484 0.79941 0.0
C832 C 0.25021 0.74321 0.81333 0.0
C833 C 0.50174 0.02419 0.97631 0.0
C834 C 0.50177 0.03089 0.01794 0.0
C835 C 0.49631 0.99699 0.96294 0.0
C836 C 0.49061 0.97527 0.99059 0.0
H837 H 0.50562 0.04014 0.95368 0.0
H838 H 0.4965 0.99305 0.9305 0.0
S839 S 0.48883 0.98151 0.10311 0.0
N840 N 0.4961 0.01328 0.08698 0.0
N841 N 0.48587 0.96225 0.06177 0.0
C842 C 0.49082 0.98157 0.03238 0.0
C843 C 0.49644 0.0093 0.04604 0.0
C844 C 0.23053 0.75423 0.28708 0.0
C845 C 0.2241 0.75523 0.24539 0.0
C846 C 0.25748 0.76 0.30114 0.0
C847 C 0.27921 0.76694 0.27414 0.0
H848 H 0.21465 0.7489 0.30917 0.0
H849 H 0.26131 0.75854 0.33354 0.0
S850 S 0.27329 0.77307 0.16192 0.0
N851 N 0.2417 0.76427 0.17712 0.0
N852 N 0.29231 0.77501 0.20364 0.0
C853 C 0.27304 0.76838 0.23238 0.0
C854 C 0.24553 0.76254 0.21801 0.0
C855 C 0.50927 0.99057 0.47345 0.0
C856 C 0.51756 0.96908 0.50005 0.0
C857 C 0.50307 0.01733 0.48782 0.0
C858 C 0.50501 0.02384 0.5294 0.0
H859 H 0.50725 0.98671 0.44113 0.0
H860 H 0.49681 0.03305 0.466 0.0
S861 S 0.52591 0.97516 0.61193 0.0
N862 N 0.52746 0.95619 0.57013 0.0
N863 N 0.51594 0.00651 0.5972 0.0
C864 C 0.51343 0.00262 0.55641 0.0
C865 C 0.51968 0.97527 0.54175 0.0
C866 C 0.23202 0.2441 0.73278 0.0
C867 C 0.22487 0.24734 0.77397 0.0
C868 C 0.25957 0.24742 0.71947 0.0
C869 C 0.28121 0.25406 0.74676 0.0
H870 H 0.21623 0.23901 0.71045 0.0
H871 H 0.26388 0.24449 0.68741 0.0
S872 S 0.27364 0.26505 0.85797 0.0
N873 N 0.2418 0.25782 0.84214 0.0
N874 N 0.29352 0.26397 0.81704 0.0
C875 C 0.27439 0.25749 0.78807 0.0
C876 C 0.24627 0.25414 0.80167 0.0
C877 C 0.00286 0.00587 0.97176 0.0
C878 C 0.99638 0.02768 0.99883 0.0
C879 C 0.00512 0.97825 0.98517 0.0
C880 C 0.00101 0.97123 0.02624 0.0
H881 H 0.00622 0.01007 0.93976 0.0
H882 H 0.00998 0.96229 0.96299 0.0
S883 S 0.98401 0.02059 0.10981 0.0
N884 N 0.98616 0.04039 0.06888 0.0
N885 N 0.99039 0.98853 0.09418 0.0
C886 C 0.99466 0.99285 0.05378 0.0
C887 C 0.99233 0.02103 0.04008 0.0
C888 C 0.75865 0.75801 0.72906 0.0
C889 C 0.78098 0.75183 0.75538 0.0
C890 C 0.73154 0.76197 0.74384 0.0
C891 C 0.72555 0.76001 0.78561 0.0
H892 H 0.76203 0.75979 0.69659 0.0
H893 H 0.71513 0.76643 0.72217 0.0
S894 S 0.77666 0.7447 0.86764 0.0
N895 N 0.79531 0.74423 0.82547 0.0
N896 N 0.74444 0.7517 0.85332 0.0
C897 C 0.74772 0.75403 0.81239 0.0
C898 C 0.77537 0.7499 0.79729 0.0
C899 C 0.72738 0.25213 0.27947 0.0
C900 C 0.72114 0.24852 0.23803 0.0
C901 C 0.7544 0.2479 0.29436 0.0
C902 C 0.7764 0.23992 0.26848 0.0
H903 H 0.71129 0.25832 0.30073 0.0
H904 H 0.75802 0.25117 0.32653 0.0
S905 S 0.77116 0.22742 0.15733 0.0
N906 N 0.73928 0.2362 0.17119 0.0
N907 N 0.79003 0.22833 0.19927 0.0
C908 C 0.77047 0.23604 0.22697 0.0
C909 C 0.74288 0.24032 0.21175 0.0
C910 C 0.73771 0.24372 0.72369 0.0
C911 C 0.71623 0.23856 0.75194 0.0
C912 C 0.76534 0.24767 0.73621 0.0
C913 C 0.77274 0.24652 0.77754 0.0
H914 H 0.73319 0.24514 0.69148 0.0
H915 H 0.78098 0.25167 0.71318 0.0
S916 S 0.72454 0.23294 0.86389 0.0
N917 N 0.70438 0.23205 0.82324 0.0
N918 N 0.75627 0.23934 0.84687 0.0
C919 C 0.75154 0.24102 0.80618 0.0
C920 C 0.72333 0.23706 0.79339 0.0
C921 C 0.76817 0.7409 0.28171 0.0
C922 C 0.77417 0.74148 0.23987 0.0
C923 C 0.74134 0.73472 0.29588 0.0
C924 C 0.71929 0.729 0.26885 0.0
H925 H 0.78431 0.74524 0.30384 0.0
H926 H 0.73784 0.73495 0.32843 0.0
S927 S 0.72404 0.72726 0.15619 0.0
N928 N 0.75585 0.73526 0.17137 0.0
N929 N 0.70542 0.7238 0.1981 0.0
C930 C 0.72503 0.72917 0.22689 0.0
C931 C 0.75243 0.73538 0.21241 0.0
C932 C 0.4985 0.48583 0.03906 0.0
C933 C 0.49323 0.46437 0.01084 0.0
C934 C 0.50381 0.51322 0.02641 0.0
C935 C 0.50399 0.52043 0.98495 0.0
H936 H 0.49895 0.48145 0.07138 0.0
H937 H 0.50778 0.52886 0.04945 0.0
S938 S 0.49084 0.4722 0.89856 0.0
N939 N 0.48814 0.45235 0.93938 0.0
N940 N 0.49799 0.50379 0.91551 0.0
C941 C 0.49843 0.49926 0.95632 0.0
C942 C 0.49307 0.47129 0.96925 0.0
C943 C 0.98875 0.47847 0.53244 0.0
C944 C 0.99227 0.47184 0.49111 0.0
C945 C 0.99209 0.50583 0.54651 0.0
C946 C -0.00084 0.52775 0.5199 0.0
H947 H 0.98357 0.46239 0.5543 0.0
H948 H 0.98922 0.50971 0.57869 0.0
S949 S 0.01018 0.5217 0.4085 0.0
N950 N 0.00282 0.48968 0.42342 0.0
N951 N 0.00912 0.54102 0.44998 0.0
C952 C 0.00254 0.5215 0.4784 0.0
C953 C -0.00093 0.49361 0.464 0.0
C954 C -0.00124 0.49361 0.96649 0.0
C955 C 0.00506 0.47108 0.99238 0.0
C956 C 0.99651 0.52085 0.98139 0.0
C957 C 0.00046 0.52677 0.02286 0.0
H958 H 0.99548 0.49028 0.93426 0.0
H959 H 0.99174 0.53739 0.96007 0.0
S960 S 0.01703 0.47519 0.10376 0.0
N961 N 0.01501 0.45649 0.06175 0.0
N962 N 0.0108 0.50766 0.08986 0.0
C963 C 0.00672 0.50443 0.04922 0.0
C964 C 0.00902 0.47662 0.03399 0.0
C965 C 0.49441 0.4938 0.54527 0.0
C966 C 0.50252 0.47209 0.51899 0.0
C967 C 0.4878 0.52035 0.53041 0.0
C968 C 0.48908 0.52637 0.48861 0.0
H969 H 0.49308 0.49037 0.57778 0.0
H970 H 0.48196 0.53633 0.55204 0.0
S971 S 0.50862 0.47672 0.40663 0.0
N972 N 0.51106 0.45831 0.44889 0.0
N973 N 0.49872 0.50819 0.42087 0.0
C974 C 0.49696 0.50481 0.46184 0.0
C975 C 0.50368 0.4777 0.47703 0.0
C976 C 0.05996 0.29744 0.08869 0.0
C977 C 0.04035 0.31932 0.08882 0.0
C978 C 0.07151 0.28721 0.12507 0.0
C979 C 0.06314 0.29783 0.16299 0.0
H980 H 0.0668 0.28845 0.06016 0.0
H981 H 0.0867 0.27054 0.12352 0.0
S982 S 0.01223 0.3549 0.18008 0.0
N983 N 0.01337 0.35144 0.13012 0.0
N984 N 0.03405 0.33143 0.1985 0.0
C985 C 0.04332 0.31947 0.16357 0.0
C986 C 0.03221 0.33044 0.12649 0.0
C987 C 0.94896 0.81155 0.34509 0.0
C988 C 0.92767 0.79131 0.3459 0.0
C989 C 0.95922 0.8236 0.38108 0.0
C990 C 0.94916 0.81525 0.41937 0.0
H991 H 0.95751 0.81849 0.3163 0.0
H992 H 0.97546 0.83922 0.37891 0.0
S993 S 0.89383 0.76261 0.43826 0.0
N994 N 0.89681 0.76357 0.38823 0.0
N995 N 0.91673 0.78531 0.4559 0.0
C996 C 0.92808 0.79478 0.42063 0.0
C997 C 0.91715 0.78307 0.38392 0.0
C998 C 0.43981 0.71742 0.64913 0.0
C999 C 0.4194 0.70388 0.67268 0.0
C1000 C 0.44984 0.70555 0.61294 0.0
C1001 C 0.44067 0.67918 0.59968 0.0
H1002 H 0.44789 0.7375 0.65854 0.0
H1003 H 0.4652 0.71695 0.59544 0.0
S1004 S 0.38784 0.63489 0.65089 0.0
N1005 N 0.3902 0.6628 0.68012 0.0
N1006 N 0.40997 0.63991 0.61307 0.0
C1007 C 0.4205 0.66527 0.62321 0.0
C1008 C 0.40963 0.67778 0.65943 0.0
C1009 C 0.53652 0.22491 0.86591 0.0
C1010 C 0.56096 0.21372 0.84868 0.0
C1011 C 0.52363 0.21236 0.89964 0.0
C1012 C 0.53423 0.1877 0.91698 0.0
H1013 H 0.52735 0.24369 0.85341 0.0
H1014 H 0.50502 0.22196 0.91197 0.0
S1015 S 0.59753 0.14973 0.8831 0.0
N1016 N 0.59531 0.17651 0.85168 0.0
N1017 N 0.57073 0.15258 0.91437 0.0
C1018 C 0.55852 0.17614 0.89987 0.0
C1019 C 0.57199 0.18925 0.866 0.0
C1020 C 0.06512 0.70231 0.422 0.0
C1021 C 0.04424 0.68163 0.4214 0.0
C1022 C 0.07634 0.71319 0.38579 0.0
C1023 C 0.06646 0.70446 0.3476 0.0
H1024 H 0.07321 0.70984 0.45073 0.0
H1025 H 0.09257 0.72885 0.38773 0.0
S1026 S 0.0117 0.65117 0.32932 0.0
N1027 N 0.0143 0.65275 0.37936 0.0
N1028 N 0.03448 0.67392 0.31141 0.0
C1029 C 0.04534 0.68405 0.3466 0.0
C1030 C 0.03448 0.67243 0.38344 0.0
C1031 C 0.58727 0.81317 0.65628 0.0
C1032 C 0.57587 0.78848 0.67242 0.0
C1033 C 0.5762 0.8255 0.62094 0.0
C1034 C 0.55386 0.81313 0.59983 0.0
H1035 H 0.60444 0.82342 0.6716 0.0
H1036 H 0.58553 0.84456 0.60967 0.0
S1037 S 0.51703 0.7481 0.62902 0.0
N1038 N 0.54093 0.75221 0.66467 0.0
N1039 N 0.52096 0.77462 0.59747 0.0
C1040 C 0.5426 0.78821 0.61532 0.0
C1041 C 0.55337 0.7761 0.65182 0.0
C1042 C 0.4637 0.27386 0.8628 0.0
C1043 C 0.43819 0.28394 0.84757 0.0
C1044 C 0.47673 0.28639 0.89643 0.0
C1045 C 0.46519 0.31 0.91549 0.0
H1046 H 0.47363 0.25602 0.84875 0.0
H1047 H 0.4962 0.27768 0.90726 0.0
S1048 S 0.39889 0.34481 0.88711 0.0
N1049 N 0.40181 0.3189 0.85432 0.0
N1050 N 0.42664 0.34289 0.91669 0.0
C1051 C 0.4398 0.32043 0.90039 0.0
C1052 C 0.42619 0.30727 0.86672 0.0
C1053 C 0.95463 0.18385 0.17289 0.0
C1054 C 0.93313 0.20388 0.17205 0.0
C1055 C 0.9661 0.1731 0.13677 0.0
C1056 C 0.95717 0.1827 0.09853 0.0
H1057 H 0.9623 0.17603 0.2017 0.0
H1058 H 0.98233 0.15746 0.13882 0.0
S1059 S 0.9019 0.2353 0.0797 0.0
N1060 N 0.9033 0.2327 0.12975 0.0
N1061 N 0.92564 0.2135 0.06202 0.0
C1062 C 0.936 0.20302 0.09731 0.0
C1063 C 0.92376 0.21333 0.13402 0.0
C1064 C 0.96858 0.67713 0.88122 0.0
C1065 C 0.96035 0.68567 0.92032 0.0
C1066 C 0.95727 0.68967 0.84621 0.0
C1067 C 0.93659 0.71046 0.84902 0.0
H1068 H 0.98438 0.66118 0.87767 0.0
H1069 H 0.96456 0.68282 0.81667 0.0
S1070 S 0.90687 0.73915 0.94415 0.0
N1071 N 0.92997 0.71595 0.95973 0.0
N1072 N 0.90789 0.73844 0.89397 0.0
C1073 C 0.92763 0.71858 0.88786 0.0
C1074 C 0.93973 0.70647 0.92349 0.0
C1075 C 0.04252 0.21498 0.64909 0.0
C1076 C 0.06734 0.20419 0.66561 0.0
C1077 C 0.03038 0.20328 0.61413 0.0
C1078 C 0.04204 0.1797 0.59515 0.0
H1079 H 0.03256 0.23288 0.66297 0.0
H1080 H 0.01155 0.21262 0.6021 0.0
S1081 S 0.10649 0.14297 0.62707 0.0
N1082 N 0.10313 0.16854 0.66037 0.0
N1083 N 0.07974 0.14587 0.5957 0.0
C1084 C 0.06659 0.1684 0.61177 0.0
C1085 C 0.07941 0.18083 0.64667 0.0
C1086 C 0.57137 0.33571 0.40185 0.0
C1087 C 0.54753 0.32373 0.4197 0.0
C1088 C 0.58284 0.32478 0.36583 0.0
C1089 C 0.5703 0.3021 0.3458 0.0
H1090 H 0.58159 0.35324 0.41633 0.0
H1091 H 0.60131 0.33446 0.35315 0.0
S1092 S 0.50727 0.26374 0.37955 0.0
N1093 N 0.51197 0.28782 0.41482 0.0
N1094 N 0.5326 0.26828 0.34613 0.0
C1095 C 0.54621 0.29029 0.36298 0.0
C1096 C 0.53508 0.30083 0.40022 0.0
C1097 C 0.45558 0.79459 0.10861 0.0
C1098 C 0.44757 0.82154 0.09629 0.0
C1099 C 0.44492 0.78243 0.14424 0.0
C1100 C 0.42493 0.79629 0.16809 0.0
H1101 H 0.47048 0.78289 0.09074 0.0
H1102 H 0.45219 0.7619 0.15298 0.0
S1103 S 0.39606 0.86675 0.14858 0.0
N1104 N 0.41821 0.86162 0.11083 0.0
N1105 N 0.39723 0.83825 0.17676 0.0
C1106 C 0.4162 0.82296 0.15571 0.0
C1107 C 0.42775 0.83572 0.1201 0.0
C1108 C 0.94042 0.29058 0.59524 0.0
C1109 C 0.96029 0.31217 0.59759 0.0
C1110 C 0.92816 0.27928 0.63045 0.0
C1111 C 0.93607 0.28848 0.66935 0.0
H1112 H 0.9338 0.28278 0.56587 0.0
H1113 H 0.91264 0.26302 0.62721 0.0
S1114 S 0.98768 0.34401 0.69216 0.0
N1115 N 0.9872 0.34233 0.64198 0.0
N1116 N 0.96524 0.32028 0.70816 0.0
C1117 C 0.9563 0.30968 0.67213 0.0
C1118 C 0.96812 0.32176 0.63626 0.0
C1119 C 0.41408 0.19977 0.37824 0.0
C1120 C 0.42437 0.18997 0.34084 0.0
C1121 C 0.4248 0.18986 0.4153 0.0
C1122 C 0.44568 0.16922 0.41645 0.0
H1123 H 0.39797 0.21559 0.37892 0.0
H1124 H 0.41641 0.19827 0.44332 0.0
S1125 S 0.47925 0.13617 0.32705 0.0
N1126 N 0.45667 0.15834 0.30728 0.0
N1127 N 0.47609 0.13918 0.37687 0.0
C1128 C 0.45583 0.15891 0.37931 0.0
C1129 C 0.44539 0.16945 0.34155 0.0
C1130 C 0.5675 0.66561 0.12466 0.0
C1131 C 0.54749 0.6796 0.10085 0.0
C1132 C 0.57929 0.67822 0.15932 0.0
C1133 C 0.57094 0.70497 0.17207 0.0
H1134 H 0.57452 0.64498 0.11603 0.0
H1135 H 0.59463 0.66671 0.17671 0.0
S1136 S 0.51926 0.75034 0.12067 0.0
N1137 N 0.52016 0.7219 0.09244 0.0
N1138 N 0.54152 0.74501 0.15814 0.0
C1139 C 0.55079 0.71902 0.14879 0.0
C1140 C 0.5393 0.70651 0.11306 0.0
C1141 C 0.07198 0.80807 0.86549 0.0
C1142 C 0.06143 0.7827 0.85034 0.0
C1143 C 0.05937 0.82159 0.8988 0.0
C1144 C 0.03623 0.80984 0.91885 0.0
H1145 H 0.08981 0.81781 0.85108 0.0
H1146 H 0.0682 0.84104 0.90949 0.0
S1147 S 0.00092 0.74373 0.89149 0.0
N1148 N 0.02629 0.7466 0.85784 0.0
N1149 N 0.00335 0.77138 0.9211 0.0
C1150 C 0.02569 0.78441 0.9042 0.0
C1151 C 0.03807 0.77102 0.86979 0.0
loop_
_geom_bond_atom_site_label_1
_geom_bond_atom_site_label_2
_geom_bond_distance
_geom_bond_site_symmetry_2
_ccdc_geom_bond_type
O0 Cd1 2.223 . S
O0 C8 1.315 . S
Cd1 O0 2.223 . S
Cd1 O4 2.297 . S
Cd1 O5 2.439 . S
Cd1 O11 2.240 . S
Cd2 O3 2.240 . S
Cd2 O10 2.223 . S
Cd2 O12 2.297 . S
Cd2 O13 2.439 . S
O3 Cd2 2.240 . S
O3 C8 1.279 . S
O4 Cd1 2.297 . S
O4 C6 1.247 . S
O5 Cd1 2.439 . S
O5 C6 1.208 . S
C6 O4 1.247 . S
C6 O5 1.208 . S
C7 O12 1.247 . S
C7 O13 1.208 . S
C8 O0 1.315 . S
C8 O3 1.279 . S
C9 O10 1.315 . S
C9 O11 1.279 . S
O10 Cd2 2.223 . S
O10 C9 1.315 . S
O11 Cd1 2.240 . S
O11 C9 1.279 . S
O12 Cd2 2.297 . S
O12 C7 1.247 . S
O13 Cd2 2.439 . S
O13 C7 1.208 . S
O14 Cd15 2.223 . S
O14 C22 1.315 . S
Cd15 O14 2.223 . S
Cd15 O18 2.297 . S
Cd15 O19 2.439 . S
Cd15 O25 2.240 . S
Cd16 O17 2.240 . S
Cd16 O24 2.223 . S
Cd16 O26 2.297 . S
Cd16 O27 2.439 . S
O17 Cd16 2.240 . S
O17 C22 1.279 . S
O18 Cd15 2.297 . S
O18 C20 1.247 . S
O19 Cd15 2.439 . S
O19 C20 1.208 . S
C20 O18 1.247 . S
C20 O19 1.208 . S
C21 O26 1.247 . S
C21 O27 1.208 . S
C22 O14 1.315 . S
C22 O17 1.279 . S
C23 O24 1.315 . S
C23 O25 1.279 . S
O24 Cd16 2.223 . S
O24 C23 1.315 . S
O25 Cd15 2.240 . S
O25 C23 1.279 . S
O26 Cd16 2.297 . S
O26 C21 1.247 . S
O27 Cd16 2.439 . S
O27 C21 1.208 . S
O28 Cd29 2.223 . S
O28 C36 1.315 . S
Cd29 O28 2.223 . S
Cd29 O32 2.297 . S
Cd29 O33 2.439 . S
Cd29 O39 2.240 . S
Cd30 O31 2.240 . S
Cd30 O38 2.223 . S
Cd30 O40 2.297 . S
Cd30 O41 2.439 . S
O31 Cd30 2.240 . S
O31 C36 1.279 . S
O32 Cd29 2.297 . S
O32 C34 1.247 . S
O33 Cd29 2.439 . S
O33 C34 1.208 . S
C34 O32 1.247 . S
C34 O33 1.208 . S
C35 O40 1.247 . S
C35 O41 1.208 . S
C36 O28 1.315 . S
C36 O31 1.279 . S
C37 O38 1.315 . S
C37 O39 1.279 . S
O38 Cd30 2.223 . S
O38 C37 1.315 . S
O39 Cd29 2.240 . S
O39 C37 1.279 . S
O40 Cd30 2.297 . S
O40 C35 1.247 . S
O41 Cd30 2.439 . S
O41 C35 1.208 . S
O42 Cd43 2.223 . S
O42 C50 1.315 . S
Cd43 O42 2.223 . S
Cd43 O46 2.297 . S
Cd43 O47 2.439 . S
Cd43 O53 2.240 . S
Cd44 O45 2.240 . S
Cd44 O52 2.223 . S
Cd44 O54 2.297 1_554 S
Cd44 O55 2.439 1_554 S
O45 Cd44 2.240 . S
O45 C50 1.279 . S
O46 Cd43 2.297 . S
O46 C48 1.247 . S
O47 Cd43 2.439 . S
O47 C48 1.208 . S
C48 O46 1.247 . S
C48 O47 1.208 . S
C49 O54 1.247 . S
C49 O55 1.208 . S
C50 O42 1.315 . S
C50 O45 1.279 . S
C51 O52 1.315 . S
C51 O53 1.279 . S
O52 Cd44 2.223 . S
O52 C51 1.315 . S
O53 Cd43 2.240 . S
O53 C51 1.279 . S
O54 Cd44 2.297 1_556 S
O54 C49 1.247 . S
O55 Cd44 2.439 1_556 S
O55 C49 1.208 . S
O56 Cd57 2.223 . S
O56 C64 1.315 . S
Cd57 O56 2.223 . S
Cd57 O60 2.297 . S
Cd57 O61 2.439 . S
Cd57 O67 2.240 . S
Cd58 O59 2.240 . S
Cd58 O66 2.223 . S
Cd58 O68 2.297 . S
Cd58 O69 2.439 . S
O59 Cd58 2.240 . S
O59 C64 1.279 . S
O60 Cd57 2.297 . S
O60 C62 1.247 . S
O61 Cd57 2.439 . S
O61 C62 1.208 . S
C62 O60 1.247 . S
C62 O61 1.208 . S
C63 O68 1.247 . S
C63 O69 1.208 . S
C64 O56 1.315 . S
C64 O59 1.279 . S
C65 O66 1.315 . S
C65 O67 1.279 . S
O66 Cd58 2.223 . S
O66 C65 1.315 . S
O67 Cd57 2.240 . S
O67 C65 1.279 . S
O68 Cd58 2.297 . S
O68 C63 1.247 . S
O69 Cd58 2.439 . S
O69 C63 1.208 . S
O70 Cd71 2.223 . S
O70 C78 1.315 . S
Cd71 O70 2.223 . S
Cd71 O74 2.297 . S
Cd71 O75 2.439 . S
Cd71 O81 2.240 . S
Cd72 O73 2.240 . S
Cd72 O80 2.223 . S
Cd72 O82 2.297 . S
Cd72 O83 2.439 . S
O73 Cd72 2.240 . S
O73 C78 1.279 . S
O74 Cd71 2.297 . S
O74 C76 1.247 . S
O75 Cd71 2.439 . S
O75 C76 1.208 . S
C76 O74 1.247 . S
C76 O75 1.208 . S
C77 O82 1.247 . S
C77 O83 1.208 . S
C78 O70 1.315 . S
C78 O73 1.279 . S
C79 O80 1.315 . S
C79 O81 1.279 . S
O80 Cd72 2.223 . S
O80 C79 1.315 . S
O81 Cd71 2.240 . S
O81 C79 1.279 . S
O82 Cd72 2.297 . S
O82 C77 1.247 . S
O83 Cd72 2.439 . S
O83 C77 1.208 . S
O84 Cd85 2.223 . S
O84 C92 1.315 . S
Cd85 O84 2.223 . S
Cd85 O88 2.297 . S
Cd85 O89 2.439 . S
Cd85 O95 2.240 . S
Cd86 O87 2.240 . S
Cd86 O94 2.223 . S
Cd86 O96 2.297 . S
Cd86 O97 2.439 . S
O87 Cd86 2.240 . S
O87 C92 1.279 . S
O88 Cd85 2.297 . S
O88 C90 1.247 . S
O89 Cd85 2.439 . S
O89 C90 1.208 . S
C90 O88 1.247 . S
C90 O89 1.208 . S
C91 O96 1.247 . S
C91 O97 1.208 . S
C92 O84 1.315 . S
C92 O87 1.279 . S
C93 O94 1.315 . S
C93 O95 1.279 . S
O94 Cd86 2.223 . S
O94 C93 1.315 . S
O95 Cd85 2.240 . S
O95 C93 1.279 . S
O96 Cd86 2.297 . S
O96 C91 1.247 . S
O97 Cd86 2.439 . S
O97 C91 1.208 . S
O98 Cd99 2.223 . S
O98 C106 1.315 . S
Cd99 O98 2.223 . S
Cd99 O102 2.297 . S
Cd99 O103 2.439 . S
Cd99 O109 2.240 . S
Cd100 O101 2.240 . S
Cd100 O108 2.223 . S
Cd100 O110 2.297 1_556 S
Cd100 O111 2.439 1_556 S
O101 Cd100 2.240 . S
O101 C106 1.279 . S
O102 Cd99 2.297 . S
O102 C104 1.247 . S
O103 Cd99 2.439 . S
O103 C104 1.208 . S
C104 O102 1.247 . S
C104 O103 1.208 . S
C105 O110 1.247 . S
C105 O111 1.208 . S
C106 O98 1.315 . S
C106 O101 1.279 . S
C107 O108 1.315 . S
C107 O109 1.279 . S
O108 Cd100 2.223 . S
O108 C107 1.315 . S
O109 Cd99 2.240 . S
O109 C107 1.279 . S
O110 Cd100 2.297 1_554 S
O110 C105 1.247 . S
O111 Cd100 2.439 1_554 S
O111 C105 1.208 . S
O112 Cd113 2.223 . S
O112 C120 1.315 . S
Cd113 O112 2.223 . S
Cd113 O116 2.297 . S
Cd113 O117 2.439 . S
Cd113 O123 2.240 . S
Cd114 O115 2.240 . S
Cd114 O122 2.223 . S
Cd114 O124 2.297 . S
Cd114 O125 2.439 . S
O115 Cd114 2.240 . S
O115 C120 1.279 . S
O116 Cd113 2.297 . S
O116 C118 1.247 . S
O117 Cd113 2.439 . S
O117 C118 1.208 . S
C118 O116 1.247 . S
C118 O117 1.208 . S
C119 O124 1.247 . S
C119 O125 1.208 . S
C120 O112 1.315 . S
C120 O115 1.279 . S
C121 O122 1.315 . S
C121 O123 1.279 . S
O122 Cd114 2.223 . S
O122 C121 1.315 . S
O123 Cd113 2.240 . S
O123 C121 1.279 . S
O124 Cd114 2.297 . S
O124 C119 1.247 . S
O125 Cd114 2.439 . S
O125 C119 1.208 . S
O126 Cd127 2.223 . S
O126 C134 1.315 . S
Cd127 O126 2.223 . S
Cd127 O130 2.297 . S
Cd127 O131 2.439 . S
Cd127 O137 2.240 . S
Cd128 O129 2.240 . S
Cd128 O136 2.223 . S
Cd128 O138 2.297 . S
Cd128 O139 2.439 . S
O129 Cd128 2.240 . S
O129 C134 1.279 . S
O130 Cd127 2.297 . S
O130 C132 1.247 . S
O131 Cd127 2.439 . S
O131 C132 1.208 . S
C132 O130 1.247 . S
C132 O131 1.208 . S
C133 O138 1.247 . S
C133 O139 1.208 . S
C134 O126 1.315 . S
C134 O129 1.279 . S
C135 O136 1.315 . S
C135 O137 1.279 . S
O136 Cd128 2.223 . S
O136 C135 1.315 . S
O137 Cd127 2.240 . S
O137 C135 1.279 . S
O138 Cd128 2.297 . S
O138 C133 1.247 . S
O139 Cd128 2.439 . S
O139 C133 1.208 . S
O140 Cd141 2.223 . S
O140 C148 1.315 . S
Cd141 O140 2.223 . S
Cd141 O144 2.297 . S
Cd141 O145 2.439 . S
Cd141 O151 2.240 . S
Cd142 O143 2.240 . S
Cd142 O150 2.223 . S
Cd142 O152 2.297 . S
Cd142 O153 2.439 . S
O143 Cd142 2.240 . S
O143 C148 1.279 . S
O144 Cd141 2.297 . S
O144 C146 1.247 . S
O145 Cd141 2.439 . S
O145 C146 1.208 . S
C146 O144 1.247 . S
C146 O145 1.208 . S
C147 O152 1.247 . S
C147 O153 1.208 . S
C148 O140 1.315 . S
C148 O143 1.279 . S
C149 O150 1.315 . S
C149 O151 1.279 . S
O150 Cd142 2.223 . S
O150 C149 1.315 . S
O151 Cd141 2.240 . S
O151 C149 1.279 . S
O152 Cd142 2.297 . S
O152 C147 1.247 . S
O153 Cd142 2.439 . S
O153 C147 1.208 . S
O154 Cd155 2.223 . S
O154 C162 1.315 . S
Cd155 O154 2.223 . S
Cd155 O158 2.297 . S
Cd155 O159 2.439 . S
Cd155 O165 2.240 . S
Cd156 O157 2.240 . S
Cd156 O164 2.223 . S
Cd156 O166 2.297 1_556 S
Cd156 O167 2.439 1_556 S
O157 Cd156 2.240 . S
O157 C162 1.279 . S
O158 Cd155 2.297 . S
O158 C160 1.247 . S
O159 Cd155 2.439 . S
O159 C160 1.208 . S
C160 O158 1.247 . S
C160 O159 1.208 . S
C161 O166 1.247 . S
C161 O167 1.208 . S
C162 O154 1.315 . S
C162 O157 1.279 . S
C163 O164 1.315 . S
C163 O165 1.279 . S
O164 Cd156 2.223 . S
O164 C163 1.315 . S
O165 Cd155 2.240 . S
O165 C163 1.279 . S
O166 Cd156 2.297 1_554 S
O166 C161 1.247 . S
O167 Cd156 2.439 1_554 S
O167 C161 1.208 . S
O168 Cd169 2.223 . S
O168 C176 1.315 . S
Cd169 O168 2.223 . S
Cd169 O172 2.297 . S
Cd169 O173 2.439 . S
Cd169 O179 2.240 . S
Cd170 O171 2.240 . S
Cd170 O178 2.223 . S
Cd170 O180 2.297 . S
Cd170 O181 2.439 . S
O171 Cd170 2.240 . S
O171 C176 1.279 . S
O172 Cd169 2.297 . S
O172 C174 1.247 . S
O173 Cd169 2.439 . S
O173 C174 1.208 . S
C174 O172 1.247 . S
C174 O173 1.208 . S
C175 O180 1.247 . S
C175 O181 1.208 . S
C176 O168 1.315 . S
C176 O171 1.279 . S
C177 O178 1.315 . S
C177 O179 1.279 . S
O178 Cd170 2.223 . S
O178 C177 1.315 . S
O179 Cd169 2.240 . S
O179 C177 1.279 . S
O180 Cd170 2.297 . S
O180 C175 1.247 . S
O181 Cd170 2.439 . S
O181 C175 1.208 . S
O182 Cd183 2.223 . S
O182 C190 1.315 . S
Cd183 O182 2.223 . S
Cd183 O186 2.297 . S
Cd183 O187 2.439 . S
Cd183 O193 2.240 . S
Cd184 O185 2.240 . S
Cd184 O192 2.223 . S
Cd184 O194 2.297 . S
Cd184 O195 2.439 . S
O185 Cd184 2.240 . S
O185 C190 1.279 . S
O186 Cd183 2.297 . S
O186 C188 1.247 . S
O187 Cd183 2.439 . S
O187 C188 1.208 . S
C188 O186 1.247 . S
C188 O187 1.208 . S
C189 O194 1.247 . S
C189 O195 1.208 . S
C190 O182 1.315 . S
C190 O185 1.279 . S
C191 O192 1.315 . S
C191 O193 1.279 . S
O192 Cd184 2.223 . S
O192 C191 1.315 . S
O193 Cd183 2.240 . S
O193 C191 1.279 . S
O194 Cd184 2.297 . S
O194 C189 1.247 . S
O195 Cd184 2.439 . S
O195 C189 1.208 . S
O196 Cd197 2.223 . S
O196 C204 1.315 . S
Cd197 O196 2.223 . S
Cd197 O200 2.297 . S
Cd197 O201 2.439 . S
Cd197 O207 2.240 . S
Cd198 O199 2.240 . S
Cd198 O206 2.223 . S
Cd198 O208 2.297 . S
Cd198 O209 2.439 . S
O199 Cd198 2.240 . S
O199 C204 1.279 . S
O200 Cd197 2.297 . S
O200 C202 1.247 . S
O201 Cd197 2.439 . S
O201 C202 1.208 . S
C202 O200 1.247 . S
C202 O201 1.208 . S
C203 O208 1.247 . S
C203 O209 1.208 . S
C204 O196 1.315 . S
C204 O199 1.279 . S
C205 O206 1.315 . S
C205 O207 1.279 . S
O206 Cd198 2.223 . S
O206 C205 1.315 . S
O207 Cd197 2.240 . S
O207 C205 1.279 . S
O208 Cd198 2.297 . S
O208 C203 1.247 . S
O209 Cd198 2.439 . S
O209 C203 1.208 . S
O210 Cd211 2.223 . S
O210 C218 1.315 . S
Cd211 O210 2.223 . S
Cd211 O214 2.297 . S
Cd211 O215 2.439 . S
Cd211 O221 2.240 . S
Cd212 O213 2.240 . S
Cd212 O220 2.223 . S
Cd212 O222 2.297 1_554 S
Cd212 O223 2.439 1_554 S
O213 Cd212 2.240 . S
O213 C218 1.279 . S
O214 Cd211 2.297 . S
O214 C216 1.247 . S
O215 Cd211 2.439 . S
O215 C216 1.208 . S
C216 O214 1.247 . S
C216 O215 1.208 . S
C217 O222 1.247 . S
C217 O223 1.208 . S
C218 O210 1.315 . S
C218 O213 1.279 . S
C219 O220 1.315 . S
C219 O221 1.279 . S
O220 Cd212 2.223 . S
O220 C219 1.315 . S
O221 Cd211 2.240 . S
O221 C219 1.279 . S
O222 Cd212 2.297 1_556 S
O222 C217 1.247 . S
O223 Cd212 2.439 1_556 S
O223 C217 1.208 . S
O224 Cd225 2.223 . S
O224 C232 1.315 . S
Cd225 O224 2.223 . S
Cd225 O228 2.297 . S
Cd225 O229 2.439 . S
Cd225 O235 2.240 . S
Cd226 O227 2.240 . S
Cd226 O234 2.223 . S
Cd226 O236 2.297 . S
Cd226 O237 2.439 . S
O227 Cd226 2.240 . S
O227 C232 1.279 . S
O228 Cd225 2.297 . S
O228 C230 1.247 . S
O229 Cd225 2.439 . S
O229 C230 1.208 . S
C230 O228 1.247 . S
C230 O229 1.208 . S
C231 O236 1.247 . S
C231 O237 1.208 . S
C232 O224 1.315 . S
C232 O227 1.279 . S
C233 O234 1.315 . S
C233 O235 1.279 . S
O234 Cd226 2.223 . S
O234 C233 1.315 . S
O235 Cd225 2.240 . S
O235 C233 1.279 . S
O236 Cd226 2.297 . S
O236 C231 1.247 . S
O237 Cd226 2.439 . S
O237 C231 1.208 . S
O238 Cd239 2.223 . S
O238 C246 1.315 . S
Cd239 O238 2.223 . S
Cd239 O242 2.297 . S
Cd239 O243 2.439 . S
Cd239 O249 2.240 . S
Cd240 O241 2.240 . S
Cd240 O248 2.223 . S
Cd240 O250 2.297 1_554 S
Cd240 O251 2.439 1_554 S
O241 Cd240 2.240 . S
O241 C246 1.279 . S
O242 Cd239 2.297 . S
O242 C244 1.247 . S
O243 Cd239 2.439 . S
O243 C244 1.208 . S
C244 O242 1.247 . S
C244 O243 1.208 . S
C245 O250 1.247 . S
C245 O251 1.208 . S
C246 O238 1.315 . S
C246 O241 1.279 . S
C247 O248 1.315 . S
C247 O249 1.279 . S
O248 Cd240 2.223 . S
O248 C247 1.315 . S
O249 Cd239 2.240 . S
O249 C247 1.279 . S
O250 Cd240 2.297 1_556 S
O250 C245 1.247 . S
O251 Cd240 2.439 1_556 S
O251 C245 1.208 . S
O252 Cd253 2.223 . S
O252 C260 1.315 . S
Cd253 O252 2.223 . S
Cd253 O256 2.297 . S
Cd253 O257 2.439 . S
Cd253 O263 2.240 . S
Cd254 O255 2.240 . S
Cd254 O262 2.223 . S
Cd254 O264 2.297 . S
Cd254 O265 2.439 . S
O255 Cd254 2.240 . S
O255 C260 1.279 . S
O256 Cd253 2.297 . S
O256 C258 1.247 . S
O257 Cd253 2.439 . S
O257 C258 1.208 . S
C258 O256 1.247 . S
C258 O257 1.208 . S
C259 O264 1.247 . S
C259 O265 1.208 . S
C260 O252 1.315 . S
C260 O255 1.279 . S
C261 O262 1.315 . S
C261 O263 1.279 . S
O262 Cd254 2.223 . S
O262 C261 1.315 . S
O263 Cd253 2.240 . S
O263 C261 1.279 . S
O264 Cd254 2.297 . S
O264 C259 1.247 . S
O265 Cd254 2.439 . S
O265 C259 1.208 . S
O266 Cd267 2.223 . S
O266 C274 1.315 . S
Cd267 O266 2.223 . S
Cd267 O270 2.297 . S
Cd267 O271 2.439 . S
Cd267 O277 2.240 . S
Cd268 O269 2.240 . S
Cd268 O276 2.223 . S
Cd268 O278 2.297 . S
Cd268 O279 2.439 . S
O269 Cd268 2.240 . S
O269 C274 1.279 . S
O270 Cd267 2.297 . S
O270 C272 1.247 . S
O271 Cd267 2.439 . S
O271 C272 1.208 . S
C272 O270 1.247 . S
C272 O271 1.208 . S
C273 O278 1.247 . S
C273 O279 1.208 . S
C274 O266 1.315 . S
C274 O269 1.279 . S
C275 O276 1.315 . S
C275 O277 1.279 . S
O276 Cd268 2.223 . S
O276 C275 1.315 . S
O277 Cd267 2.240 . S
O277 C275 1.279 . S
O278 Cd268 2.297 . S
O278 C273 1.247 . S
O279 Cd268 2.439 . S
O279 C273 1.208 . S
O280 Cd281 2.223 . S
O280 C288 1.315 . S
Cd281 O280 2.223 . S
Cd281 O284 2.297 . S
Cd281 O285 2.439 . S
Cd281 O291 2.240 . S
Cd282 O283 2.240 . S
Cd282 O290 2.223 . S
Cd282 O292 2.297 . S
Cd282 O293 2.439 . S
O283 Cd282 2.240 . S
O283 C288 1.279 . S
O284 Cd281 2.297 . S
O284 C286 1.247 . S
O285 Cd281 2.439 . S
O285 C286 1.208 . S
C286 O284 1.247 . S
C286 O285 1.208 . S
C287 O292 1.247 . S
C287 O293 1.208 . S
C288 O280 1.315 . S
C288 O283 1.279 . S
C289 O290 1.315 . S
C289 O291 1.279 . S
O290 Cd282 2.223 . S
O290 C289 1.315 . S
O291 Cd281 2.240 . S
O291 C289 1.279 . S
O292 Cd282 2.297 . S
O292 C287 1.247 . S
O293 Cd282 2.439 . S
O293 C287 1.208 . S
O294 Cd295 2.223 . S
O294 C302 1.315 . S
Cd295 O294 2.223 . S
Cd295 O298 2.297 . S
Cd295 O299 2.439 . S
Cd295 O305 2.240 . S
Cd296 O297 2.240 . S
Cd296 O304 2.223 . S
Cd296 O306 2.297 1_556 S
Cd296 O307 2.439 1_556 S
O297 Cd296 2.240 . S
O297 C302 1.279 . S
O298 Cd295 2.297 . S
O298 C300 1.247 . S
O299 Cd295 2.439 . S
O299 C300 1.208 . S
C300 O298 1.247 . S
C300 O299 1.208 . S
C301 O306 1.247 . S
C301 O307 1.208 . S
C302 O294 1.315 . S
C302 O297 1.279 . S
C303 O304 1.315 . S
C303 O305 1.279 . S
O304 Cd296 2.223 . S
O304 C303 1.315 . S
O305 Cd295 2.240 . S
O305 C303 1.279 . S
O306 Cd296 2.297 1_554 S
O306 C301 1.247 . S
O307 Cd296 2.439 1_554 S
O307 C301 1.208 . S
O308 Cd309 2.223 . S
O308 C316 1.315 . S
Cd309 O308 2.223 . S
Cd309 O312 2.297 . S
Cd309 O313 2.439 . S
Cd309 O319 2.240 . S
Cd310 O311 2.240 . S
Cd310 O318 2.223 . S
Cd310 O320 2.297 . S
Cd310 O321 2.439 . S
O311 Cd310 2.240 . S
O311 C316 1.279 . S
O312 Cd309 2.297 . S
O312 C314 1.247 . S
O313 Cd309 2.439 . S
O313 C314 1.208 . S
C314 O312 1.247 . S
C314 O313 1.208 . S
C315 O320 1.247 . S
C315 O321 1.208 . S
C316 O308 1.315 . S
C316 O311 1.279 . S
C317 O318 1.315 . S
C317 O319 1.279 . S
O318 Cd310 2.223 . S
O318 C317 1.315 . S
O319 Cd309 2.240 . S
O319 C317 1.279 . S
O320 Cd310 2.297 . S
O320 C315 1.247 . S
O321 Cd310 2.439 . S
O321 C315 1.208 . S
O322 Cd323 2.223 . S
O322 C330 1.315 . S
Cd323 O322 2.223 . S
Cd323 O326 2.297 . S
Cd323 O327 2.439 . S
Cd323 O333 2.240 . S
Cd324 O325 2.240 . S
Cd324 O332 2.223 . S
Cd324 O334 2.297 . S
Cd324 O335 2.439 . S
O325 Cd324 2.240 . S
O325 C330 1.279 . S
O326 Cd323 2.297 . S
O326 C328 1.247 . S
O327 Cd323 2.439 . S
O327 C328 1.208 . S
C328 O326 1.247 . S
C328 O327 1.208 . S
C329 O334 1.247 . S
C329 O335 1.208 . S
C330 O322 1.315 . S
C330 O325 1.279 . S
C331 O332 1.315 . S
C331 O333 1.279 . S
O332 Cd324 2.223 . S
O332 C331 1.315 . S
O333 Cd323 2.240 . S
O333 C331 1.279 . S
O334 Cd324 2.297 . S
O334 C329 1.247 . S
O335 Cd324 2.439 . S
O335 C329 1.208 . S
O336 Cd337 2.223 . S
O336 C344 1.315 . S
Cd337 O336 2.223 . S
Cd337 O340 2.297 . S
Cd337 O341 2.439 . S
Cd337 O347 2.240 . S
Cd338 O339 2.240 . S
Cd338 O346 2.223 . S
Cd338 O348 2.297 . S
Cd338 O349 2.439 . S
O339 Cd338 2.240 . S
O339 C344 1.279 . S
O340 Cd337 2.297 . S
O340 C342 1.247 . S
O341 Cd337 2.439 . S
O341 C342 1.208 . S
C342 O340 1.247 . S
C342 O341 1.208 . S
C343 O348 1.247 . S
C343 O349 1.208 . S
C344 O336 1.315 . S
C344 O339 1.279 . S
C345 O346 1.315 . S
C345 O347 1.279 . S
O346 Cd338 2.223 . S
O346 C345 1.315 . S
O347 Cd337 2.240 . S
O347 C345 1.279 . S
O348 Cd338 2.297 . S
O348 C343 1.247 . S
O349 Cd338 2.439 . S
O349 C343 1.208 . S
O350 Cd351 2.223 . S
O350 C358 1.315 . S
Cd351 O350 2.223 . S
Cd351 O354 2.297 . S
Cd351 O355 2.439 . S
Cd351 O361 2.240 . S
Cd352 O353 2.240 . S
Cd352 O360 2.223 . S
Cd352 O362 2.297 1_556 S
Cd352 O363 2.439 1_556 S
O353 Cd352 2.240 . S
O353 C358 1.279 . S
O354 Cd351 2.297 . S
O354 C356 1.247 . S
O355 Cd351 2.439 . S
O355 C356 1.208 . S
C356 O354 1.247 . S
C356 O355 1.208 . S
C357 O362 1.247 . S
C357 O363 1.208 . S
C358 O350 1.315 . S
C358 O353 1.279 . S
C359 O360 1.315 . S
C359 O361 1.279 . S
O360 Cd352 2.223 . S
O360 C359 1.315 . S
O361 Cd351 2.240 . S
O361 C359 1.279 . S
O362 Cd352 2.297 1_554 S
O362 C357 1.247 . S
O363 Cd352 2.439 1_554 S
O363 C357 1.208 . S
O364 Cd365 2.223 . S
O364 C372 1.315 . S
Cd365 O364 2.223 . S
Cd365 O368 2.297 . S
Cd365 O369 2.439 . S
Cd365 O375 2.240 . S
Cd366 O367 2.240 . S
Cd366 O374 2.223 . S
Cd366 O376 2.297 . S
Cd366 O377 2.439 . S
O367 Cd366 2.240 . S
O367 C372 1.279 . S
O368 Cd365 2.297 . S
O368 C370 1.247 . S
O369 Cd365 2.439 . S
O369 C370 1.208 . S
C370 O368 1.247 . S
C370 O369 1.208 . S
C371 O376 1.247 . S
C371 O377 1.208 . S
C372 O364 1.315 . S
C372 O367 1.279 . S
C373 O374 1.315 . S
C373 O375 1.279 . S
O374 Cd366 2.223 . S
O374 C373 1.315 . S
O375 Cd365 2.240 . S
O375 C373 1.279 . S
O376 Cd366 2.297 . S
O376 C371 1.247 . S
O377 Cd366 2.439 . S
O377 C371 1.208 . S
O378 Cd379 2.223 . S
O378 C386 1.315 . S
Cd379 O378 2.223 . S
Cd379 O382 2.297 . S
Cd379 O383 2.439 . S
Cd379 O389 2.240 . S
Cd380 O381 2.240 . S
Cd380 O388 2.223 . S
Cd380 O390 2.297 . S
Cd380 O391 2.439 . S
O381 Cd380 2.240 . S
O381 C386 1.279 . S
O382 Cd379 2.297 . S
O382 C384 1.247 . S
O383 Cd379 2.439 . S
O383 C384 1.208 . S
C384 O382 1.247 . S
C384 O383 1.208 . S
C385 O390 1.247 . S
C385 O391 1.208 . S
C386 O378 1.315 . S
C386 O381 1.279 . S
C387 O388 1.315 . S
C387 O389 1.279 . S
O388 Cd380 2.223 . S
O388 C387 1.315 . S
O389 Cd379 2.240 . S
O389 C387 1.279 . S
O390 Cd380 2.297 . S
O390 C385 1.247 . S
O391 Cd380 2.439 . S
O391 C385 1.208 . S
O392 Cd393 2.223 . S
O392 C400 1.315 . S
Cd393 O392 2.223 . S
Cd393 O396 2.297 . S
Cd393 O397 2.439 . S
Cd393 O403 2.240 . S
Cd394 O395 2.240 . S
Cd394 O402 2.223 . S
Cd394 O404 2.297 . S
Cd394 O405 2.439 . S
O395 Cd394 2.240 . S
O395 C400 1.279 . S
O396 Cd393 2.297 . S
O396 C398 1.247 . S
O397 Cd393 2.439 . S
O397 C398 1.208 . S
C398 O396 1.247 . S
C398 O397 1.208 . S
C399 O404 1.247 . S
C399 O405 1.208 . S
C400 O392 1.315 . S
C400 O395 1.279 . S
C401 O402 1.315 . S
C401 O403 1.279 . S
O402 Cd394 2.223 . S
O402 C401 1.315 . S
O403 Cd393 2.240 . S
O403 C401 1.279 . S
O404 Cd394 2.297 . S
O404 C399 1.247 . S
O405 Cd394 2.439 . S
O405 C399 1.208 . S
O406 Cd407 2.223 . S
O406 C414 1.315 . S
Cd407 O406 2.223 . S
Cd407 O410 2.297 . S
Cd407 O411 2.439 . S
Cd407 O417 2.240 . S
Cd408 O409 2.240 . S
Cd408 O416 2.223 . S
Cd408 O418 2.297 1_554 S
Cd408 O419 2.439 1_554 S
O409 Cd408 2.240 . S
O409 C414 1.279 . S
O410 Cd407 2.297 . S
O410 C412 1.247 . S
O411 Cd407 2.439 . S
O411 C412 1.208 . S
C412 O410 1.247 . S
C412 O411 1.208 . S
C413 O418 1.247 . S
C413 O419 1.208 . S
C414 O406 1.315 . S
C414 O409 1.279 . S
C415 O416 1.315 . S
C415 O417 1.279 . S
O416 Cd408 2.223 . S
O416 C415 1.315 . S
O417 Cd407 2.240 . S
O417 C415 1.279 . S
O418 Cd408 2.297 1_556 S
O418 C413 1.247 . S
O419 Cd408 2.439 1_556 S
O419 C413 1.208 . S
O420 Cd421 2.223 . S
O420 C428 1.315 . S
Cd421 O420 2.223 . S
Cd421 O424 2.297 . S
Cd421 O425 2.439 . S
Cd421 O431 2.240 . S
Cd422 O423 2.240 . S
Cd422 O430 2.223 . S
Cd422 O432 2.297 . S
Cd422 O433 2.439 . S
O423 Cd422 2.240 . S
O423 C428 1.279 . S
O424 Cd421 2.297 . S
O424 C426 1.247 . S
O425 Cd421 2.439 . S
O425 C426 1.208 . S
C426 O424 1.247 . S
C426 O425 1.208 . S
C427 O432 1.247 . S
C427 O433 1.208 . S
C428 O420 1.315 . S
C428 O423 1.279 . S
C429 O430 1.315 . S
C429 O431 1.279 . S
O430 Cd422 2.223 . S
O430 C429 1.315 . S
O431 Cd421 2.240 . S
O431 C429 1.279 . S
O432 Cd422 2.297 . S
O432 C427 1.247 . S
O433 Cd422 2.439 . S
O433 C427 1.208 . S
O434 Cd435 2.223 . S
O434 C442 1.315 . S
Cd435 O434 2.223 . S
Cd435 O438 2.297 . S
Cd435 O439 2.439 . S
Cd435 O445 2.240 . S
Cd436 O437 2.240 . S
Cd436 O444 2.223 . S
Cd436 O446 2.297 . S
Cd436 O447 2.439 . S
O437 Cd436 2.240 . S
O437 C442 1.279 . S
O438 Cd435 2.297 . S
O438 C440 1.247 . S
O439 Cd435 2.439 . S
O439 C440 1.208 . S
C440 O438 1.247 . S
C440 O439 1.208 . S
C441 O446 1.247 . S
C441 O447 1.208 . S
C442 O434 1.315 . S
C442 O437 1.279 . S
C443 O444 1.315 . S
C443 O445 1.279 . S
O444 Cd436 2.223 . S
O444 C443 1.315 . S
O445 Cd435 2.240 . S
O445 C443 1.279 . S
O446 Cd436 2.297 . S
O446 C441 1.247 . S
O447 Cd436 2.439 . S
O447 C441 1.208 . S
C448 C449 1.369 . S
C448 C450 1.419 . S
C448 H452 0.930 . S
C449 C448 1.369 . S
C449 C458 1.429 . S
C450 C448 1.419 . S
C450 C451 1.363 . S
C450 H453 0.929 . S
C451 C450 1.363 . S
C451 C457 1.428 . S
H452 C448 0.930 . S
H453 C450 0.929 . S
S454 N455 1.613 . S
S454 N456 1.610 . S
N455 S454 1.613 . S
N455 C458 1.350 . S
N456 S454 1.610 . S
N456 C457 1.351 . S
C457 C451 1.428 . S
C457 N456 1.351 . S
C457 C458 1.434 . S
C458 C449 1.429 . S
C458 N455 1.350 . S
C458 C457 1.434 . S
C459 C460 1.369 . S
C459 C461 1.419 . S
C459 H463 0.930 . S
C460 C459 1.369 . S
C460 C469 1.429 . S
C461 C459 1.419 . S
C461 C462 1.363 . S
C461 H464 0.929 . S
C462 C461 1.363 . S
C462 C468 1.428 . S
H463 C459 0.930 . S
H464 C461 0.929 . S
S465 N466 1.613 . S
S465 N467 1.610 . S
N466 S465 1.613 . S
N466 C469 1.350 . S
N467 S465 1.610 . S
N467 C468 1.351 . S
C468 C462 1.428 . S
C468 N467 1.351 . S
C468 C469 1.434 . S
C469 C460 1.429 . S
C469 N466 1.350 . S
C469 C468 1.434 . S
C470 C471 1.369 . S
C470 C472 1.419 . S
C470 H474 0.930 . S
C471 C470 1.369 . S
C471 C480 1.429 . S
C472 C470 1.419 . S
C472 C473 1.363 . S
C472 H475 0.929 . S
C473 C472 1.363 . S
C473 C479 1.428 . S
H474 C470 0.930 . S
H475 C472 0.929 . S
S476 N477 1.613 . S
S476 N478 1.610 . S
N477 S476 1.613 . S
N477 C480 1.350 . S
N478 S476 1.610 . S
N478 C479 1.351 . S
C479 C473 1.428 . S
C479 N478 1.351 . S
C479 C480 1.434 . S
C480 C471 1.429 . S
C480 N477 1.350 . S
C480 C479 1.434 . S
C481 C482 1.369 . S
C481 C483 1.419 . S
C481 H485 0.930 . S
C482 C481 1.369 . S
C482 C491 1.429 . S
C483 C481 1.419 . S
C483 C484 1.363 . S
C483 H486 0.929 . S
C484 C483 1.363 . S
C484 C490 1.428 . S
H485 C481 0.930 . S
H486 C483 0.929 . S
S487 N488 1.613 . S
S487 N489 1.610 . S
N488 S487 1.613 . S
N488 C491 1.350 . S
N489 S487 1.610 . S
N489 C490 1.351 . S
C490 C484 1.428 . S
C490 N489 1.351 . S
C490 C491 1.434 . S
C491 C482 1.429 . S
C491 N488 1.350 . S
C491 C490 1.434 . S
C492 C493 1.369 . S
C492 C494 1.419 . S
C492 H496 0.930 . S
C493 C492 1.369 . S
C493 C502 1.429 . S
C494 C492 1.419 . S
C494 C495 1.363 . S
C494 H497 0.929 . S
C495 C494 1.363 . S
C495 C501 1.428 . S
H496 C492 0.930 . S
H497 C494 0.929 . S
S498 N499 1.613 . S
S498 N500 1.610 . S
N499 S498 1.613 . S
N499 C502 1.350 . S
N500 S498 1.610 . S
N500 C501 1.351 . S
C501 C495 1.428 . S
C501 N500 1.351 . S
C501 C502 1.434 . S
C502 C493 1.429 . S
C502 N499 1.350 . S
C502 C501 1.434 . S
C503 C504 1.369 . S
C503 C505 1.419 . S
C503 H507 0.930 . S
C504 C503 1.369 . S
C504 C513 1.429 . S
C505 C503 1.419 . S
C505 C506 1.363 . S
C505 H508 0.929 . S
C506 C505 1.363 . S
C506 C512 1.428 . S
H507 C503 0.930 . S
H508 C505 0.929 . S
S509 N510 1.613 . S
S509 N511 1.610 . S
N510 S509 1.613 . S
N510 C513 1.350 . S
N511 S509 1.610 . S
N511 C512 1.351 . S
C512 C506 1.428 . S
C512 N511 1.351 . S
C512 C513 1.434 . S
C513 C504 1.429 . S
C513 N510 1.350 . S
C513 C512 1.434 . S
C514 C515 1.369 . S
C514 C516 1.419 . S
C514 H518 0.930 . S
C515 C514 1.369 . S
C515 C524 1.429 . S
C516 C514 1.419 . S
C516 C517 1.363 . S
C516 H519 0.929 . S
C517 C516 1.363 . S
C517 C523 1.428 . S
H518 C514 0.930 . S
H519 C516 0.929 . S
S520 N521 1.613 . S
S520 N522 1.610 . S
N521 S520 1.613 . S
N521 C524 1.350 . S
N522 S520 1.610 . S
N522 C523 1.351 . S
C523 C517 1.428 . S
C523 N522 1.351 . S
C523 C524 1.434 . S
C524 C515 1.429 . S
C524 N521 1.350 . S
C524 C523 1.434 . S
C525 C526 1.369 . S
C525 C527 1.419 . S
C525 H529 0.930 . S
C526 C525 1.369 . S
C526 C535 1.429 . S
C527 C525 1.419 . S
C527 C528 1.363 . S
C527 H530 0.929 . S
C528 C527 1.363 . S
C528 C534 1.428 . S
H529 C525 0.930 . S
H530 C527 0.929 . S
S531 N532 1.613 . S
S531 N533 1.610 . S
N532 S531 1.613 . S
N532 C535 1.350 . S
N533 S531 1.610 . S
N533 C534 1.351 . S
C534 C528 1.428 . S
C534 N533 1.351 . S
C534 C535 1.434 . S
C535 C526 1.429 . S
C535 N532 1.350 . S
C535 C534 1.434 . S
C536 C537 1.369 . S
C536 C538 1.419 . S
C536 H540 0.930 . S
C537 C536 1.369 . S
C537 C546 1.429 . S
C538 C536 1.419 . S
C538 C539 1.363 . S
C538 H541 0.929 . S
C539 C538 1.363 . S
C539 C545 1.428 . S
H540 C536 0.930 . S
H541 C538 0.929 . S
S542 N543 1.613 . S
S542 N544 1.610 . S
N543 S542 1.613 . S
N543 C546 1.350 . S
N544 S542 1.610 . S
N544 C545 1.351 . S
C545 C539 1.428 . S
C545 N544 1.351 . S
C545 C546 1.434 . S
C546 C537 1.429 . S
C546 N543 1.350 . S
C546 C545 1.434 . S
C547 C548 1.369 . S
C547 C549 1.419 . S
C547 H551 0.930 . S
C548 C547 1.369 . S
C548 C557 1.429 . S
C549 C547 1.419 . S
C549 C550 1.363 . S
C549 H552 0.929 . S
C550 C549 1.363 . S
C550 C556 1.428 . S
H551 C547 0.930 . S
H552 C549 0.929 . S
S553 N554 1.613 . S
S553 N555 1.610 . S
N554 S553 1.613 . S
N554 C557 1.350 . S
N555 S553 1.610 . S
N555 C556 1.351 . S
C556 C550 1.428 . S
C556 N555 1.351 . S
C556 C557 1.434 . S
C557 C548 1.429 . S
C557 N554 1.350 . S
C557 C556 1.434 . S
C558 C559 1.369 . S
C558 C560 1.419 . S
C558 H562 0.930 . S
C559 C558 1.369 . S
C559 C568 1.429 . S
C560 C558 1.419 . S
C560 C561 1.363 . S
C560 H563 0.929 . S
C561 C560 1.363 . S
C561 C567 1.428 . S
H562 C558 0.930 . S
H563 C560 0.929 . S
S564 N565 1.613 . S
S564 N566 1.610 . S
N565 S564 1.613 . S
N565 C568 1.350 . S
N566 S564 1.610 . S
N566 C567 1.351 . S
C567 C561 1.428 . S
C567 N566 1.351 . S
C567 C568 1.434 . S
C568 C559 1.429 . S
C568 N565 1.350 . S
C568 C567 1.434 . S
C569 C570 1.369 . S
C569 C571 1.419 . S
C569 H573 0.930 . S
C570 C569 1.369 . S
C570 C579 1.429 . S
C571 C569 1.419 . S
C571 C572 1.363 . S
C571 H574 0.929 . S
C572 C571 1.363 . S
C572 C578 1.428 . S
H573 C569 0.930 . S
H574 C571 0.929 . S
S575 N576 1.613 . S
S575 N577 1.610 . S
N576 S575 1.613 . S
N576 C579 1.350 . S
N577 S575 1.610 . S
N577 C578 1.351 . S
C578 C572 1.428 . S
C578 N577 1.351 . S
C578 C579 1.434 . S
C579 C570 1.429 . S
C579 N576 1.350 . S
C579 C578 1.434 . S
C580 C581 1.369 . S
C580 C582 1.419 . S
C580 H584 0.930 . S
C581 C580 1.369 . S
C581 C590 1.429 . S
C582 C580 1.419 . S
C582 C583 1.363 . S
C582 H585 0.929 . S
C583 C582 1.363 . S
C583 C589 1.428 . S
H584 C580 0.930 . S
H585 C582 0.929 . S
S586 N587 1.613 . S
S586 N588 1.610 . S
N587 S586 1.613 . S
N587 C590 1.350 . S
N588 S586 1.610 . S
N588 C589 1.351 . S
C589 C583 1.428 . S
C589 N588 1.351 . S
C589 C590 1.434 . S
C590 C581 1.429 . S
C590 N587 1.350 . S
C590 C589 1.434 . S
C591 C592 1.369 . S
C591 C593 1.419 . S
C591 H595 0.930 . S
C592 C591 1.369 . S
C592 C601 1.429 . S
C593 C591 1.419 . S
C593 C594 1.363 . S
C593 H596 0.929 . S
C594 C593 1.363 . S
C594 C600 1.428 . S
H595 C591 0.930 . S
H596 C593 0.929 . S
S597 N598 1.613 . S
S597 N599 1.610 . S
N598 S597 1.613 . S
N598 C601 1.350 . S
N599 S597 1.610 . S
N599 C600 1.351 . S
C600 C594 1.428 . S
C600 N599 1.351 . S
C600 C601 1.434 . S
C601 C592 1.429 . S
C601 N598 1.350 . S
C601 C600 1.434 . S
C602 C603 1.369 . S
C602 C604 1.419 . S
C602 H606 0.930 . S
C603 C602 1.369 . S
C603 C612 1.429 . S
C604 C602 1.419 . S
C604 C605 1.363 . S
C604 H607 0.929 . S
C605 C604 1.363 . S
C605 C611 1.428 . S
H606 C602 0.930 . S
H607 C604 0.929 . S
S608 N609 1.613 . S
S608 N610 1.610 . S
N609 S608 1.613 . S
N609 C612 1.350 . S
N610 S608 1.610 . S
N610 C611 1.351 . S
C611 C605 1.428 . S
C611 N610 1.351 . S
C611 C612 1.434 . S
C612 C603 1.429 . S
C612 N609 1.350 . S
C612 C611 1.434 . S
C613 C614 1.369 . S
C613 C615 1.419 . S
C613 H617 0.930 . S
C614 C613 1.369 . S
C614 C623 1.429 . S
C615 C613 1.419 . S
C615 C616 1.363 . S
C615 H618 0.929 . S
C616 C615 1.363 . S
C616 C622 1.428 . S
H617 C613 0.930 . S
H618 C615 0.929 . S
S619 N620 1.613 . S
S619 N621 1.610 . S
N620 S619 1.613 . S
N620 C623 1.350 . S
N621 S619 1.610 . S
N621 C622 1.351 . S
C622 C616 1.428 . S
C622 N621 1.351 . S
C622 C623 1.434 . S
C623 C614 1.429 . S
C623 N620 1.350 . S
C623 C622 1.434 . S
C624 C625 1.369 . S
C624 C626 1.419 . S
C624 H628 0.930 . S
C625 C624 1.369 . S
C625 C634 1.429 . S
C626 C624 1.419 . S
C626 C627 1.363 . S
C626 H629 0.929 . S
C627 C626 1.363 . S
C627 C633 1.428 . S
H628 C624 0.930 . S
H629 C626 0.929 . S
S630 N631 1.613 . S
S630 N632 1.610 . S
N631 S630 1.613 . S
N631 C634 1.350 . S
N632 S630 1.610 . S
N632 C633 1.351 . S
C633 C627 1.428 . S
C633 N632 1.351 . S
C633 C634 1.434 . S
C634 C625 1.429 . S
C634 N631 1.350 . S
C634 C633 1.434 . S
C635 C636 1.369 . S
C635 C637 1.419 . S
C635 H639 0.930 . S
C636 C635 1.369 . S
C636 C645 1.429 . S
C637 C635 1.419 . S
C637 C638 1.363 . S
C637 H640 0.929 . S
C638 C637 1.363 . S
C638 C644 1.428 . S
H639 C635 0.930 . S
H640 C637 0.929 . S
S641 N642 1.613 . S
S641 N643 1.610 . S
N642 S641 1.613 . S
N642 C645 1.350 . S
N643 S641 1.610 . S
N643 C644 1.351 . S
C644 C638 1.428 . S
C644 N643 1.351 . S
C644 C645 1.434 . S
C645 C636 1.429 . S
C645 N642 1.350 . S
C645 C644 1.434 . S
C646 C647 1.369 . S
C646 C648 1.419 . S
C646 H650 0.930 . S
C647 C646 1.369 . S
C647 C656 1.429 . S
C648 C646 1.419 . S
C648 C649 1.363 . S
C648 H651 0.929 . S
C649 C648 1.363 . S
C649 C655 1.428 . S
H650 C646 0.930 . S
H651 C648 0.929 . S
S652 N653 1.613 . S
S652 N654 1.610 . S
N653 S652 1.613 . S
N653 C656 1.350 . S
N654 S652 1.610 . S
N654 C655 1.351 . S
C655 C649 1.428 . S
C655 N654 1.351 . S
C655 C656 1.434 . S
C656 C647 1.429 . S
C656 N653 1.350 . S
C656 C655 1.434 . S
C657 C658 1.369 . S
C657 C659 1.419 . S
C657 H661 0.930 . S
C658 C657 1.369 . S
C658 C667 1.429 . S
C659 C657 1.419 . S
C659 C660 1.363 . S
C659 H662 0.929 . S
C660 C659 1.363 . S
C660 C666 1.428 . S
H661 C657 0.930 . S
H662 C659 0.929 . S
S663 N664 1.613 . S
S663 N665 1.610 . S
N664 S663 1.613 . S
N664 C667 1.350 . S
N665 S663 1.610 . S
N665 C666 1.351 . S
C666 C660 1.428 . S
C666 N665 1.351 . S
C666 C667 1.434 . S
C667 C658 1.429 . S
C667 N664 1.350 . S
C667 C666 1.434 . S
C668 C669 1.369 . S
C668 C670 1.419 . S
C668 H672 0.930 . S
C669 C668 1.369 . S
C669 C678 1.429 . S
C670 C668 1.419 . S
C670 C671 1.363 . S
C670 H673 0.929 . S
C671 C670 1.363 . S
C671 C677 1.428 . S
H672 C668 0.930 . S
H673 C670 0.929 . S
S674 N675 1.613 . S
S674 N676 1.610 . S
N675 S674 1.613 . S
N675 C678 1.350 . S
N676 S674 1.610 . S
N676 C677 1.351 . S
C677 C671 1.428 . S
C677 N676 1.351 . S
C677 C678 1.434 . S
C678 C669 1.429 . S
C678 N675 1.350 . S
C678 C677 1.434 . S
C679 C680 1.369 . S
C679 C681 1.419 . S
C679 H683 0.930 . S
C680 C679 1.369 . S
C680 C689 1.429 . S
C681 C679 1.419 . S
C681 C682 1.363 . S
C681 H684 0.929 . S
C682 C681 1.363 . S
C682 C688 1.428 . S
H683 C679 0.930 . S
H684 C681 0.929 . S
S685 N686 1.605 1_655 S
S685 N687 1.610 . S
N686 S685 1.605 1_455 S
N686 C689 1.326 1_455 S
N687 S685 1.610 . S
N687 C688 1.351 . S
C688 C682 1.428 . S
C688 N687 1.351 . S
C688 C689 1.434 . S
C689 C680 1.429 . S
C689 N686 1.326 1_655 S
C689 C688 1.434 . S
C690 C691 1.369 . S
C690 C692 1.419 . S
C690 H694 0.930 . S
C691 C690 1.369 . S
C691 C700 1.429 . S
C692 C690 1.419 . S
C692 C693 1.363 . S
C692 H695 0.929 . S
C693 C692 1.363 . S
C693 C699 1.428 . S
H694 C690 0.930 . S
H695 C692 0.929 . S
S696 N697 1.613 . S
S696 N698 1.610 . S
N697 S696 1.613 . S
N697 C700 1.350 . S
N698 S696 1.610 . S
N698 C699 1.351 . S
C699 C693 1.428 . S
C699 N698 1.351 . S
C699 C700 1.434 . S
C700 C691 1.429 . S
C700 N697 1.350 . S
C700 C699 1.434 . S
C701 C702 1.369 . S
C701 C703 1.419 . S
C701 H705 0.930 . S
C702 C701 1.369 . S
C702 C711 1.429 . S
C703 C701 1.419 . S
C703 C704 1.363 . S
C703 H706 0.929 . S
C704 C703 1.363 . S
C704 C710 1.428 . S
H705 C701 0.930 . S
H706 C703 0.929 . S
S707 N708 1.613 . S
S707 N709 1.610 . S
N708 S707 1.613 . S
N708 C711 1.350 . S
N709 S707 1.610 . S
N709 C710 1.351 . S
C710 C704 1.428 . S
C710 N709 1.351 . S
C710 C711 1.434 . S
C711 C702 1.429 . S
C711 N708 1.350 . S
C711 C710 1.434 . S
C712 C713 1.369 . S
C712 C714 1.419 . S
C712 H716 0.930 . S
C713 C712 1.369 . S
C713 C722 1.429 . S
C714 C712 1.419 . S
C714 C715 1.363 . S
C714 H717 0.929 . S
C715 C714 1.363 . S
C715 C721 1.428 . S
H716 C712 0.930 . S
H717 C714 0.929 . S
S718 N719 1.613 . S
S718 N720 1.610 . S
N719 S718 1.613 . S
N719 C722 1.350 . S
N720 S718 1.610 . S
N720 C721 1.351 . S
C721 C715 1.428 . S
C721 N720 1.351 . S
C721 C722 1.434 . S
C722 C713 1.429 . S
C722 N719 1.350 . S
C722 C721 1.434 . S
C723 C724 1.369 . S
C723 C725 1.419 . S
C723 H727 0.930 . S
C724 C723 1.369 . S
C724 C733 1.429 . S
C725 C723 1.419 . S
C725 C726 1.363 . S
C725 H728 0.929 . S
C726 C725 1.363 . S
C726 C732 1.428 . S
H727 C723 0.930 . S
H728 C725 0.929 . S
S729 N730 1.613 . S
S729 N731 1.610 . S
N730 S729 1.613 . S
N730 C733 1.350 . S
N731 S729 1.610 . S
N731 C732 1.351 . S
C732 C726 1.428 . S
C732 N731 1.351 . S
C732 C733 1.434 . S
C733 C724 1.429 . S
C733 N730 1.350 . S
C733 C732 1.434 . S
C734 C735 1.369 . S
C734 C736 1.419 . S
C734 H738 0.930 . S
C735 C734 1.369 . S
C735 C744 1.429 . S
C736 C734 1.419 . S
C736 C737 1.363 . S
C736 H739 0.929 . S
C737 C736 1.363 . S
C737 C743 1.428 . S
H738 C734 0.930 . S
H739 C736 0.929 . S
S740 N741 1.613 . S
S740 N742 1.610 . S
N741 S740 1.613 . S
N741 C744 1.350 . S
N742 S740 1.610 . S
N742 C743 1.351 . S
C743 C737 1.428 . S
C743 N742 1.351 . S
C743 C744 1.434 . S
C744 C735 1.429 . S
C744 N741 1.350 . S
C744 C743 1.434 . S
C745 C746 1.369 . S
C745 C747 1.419 . S
C745 H749 0.930 . S
C746 C745 1.369 . S
C746 C755 1.429 . S
C747 C745 1.419 . S
C747 C748 1.363 . S
C747 H750 0.929 . S
C748 C747 1.363 . S
C748 C754 1.428 . S
H749 C745 0.930 . S
H750 C747 0.929 . S
S751 N752 1.613 . S
S751 N753 1.610 . S
N752 S751 1.613 . S
N752 C755 1.350 . S
N753 S751 1.610 . S
N753 C754 1.351 . S
C754 C748 1.428 . S
C754 N753 1.351 . S
C754 C755 1.434 . S
C755 C746 1.429 . S
C755 N752 1.350 . S
C755 C754 1.434 . S
C756 C757 1.369 . S
C756 C758 1.419 . S
C756 H760 0.930 . S
C757 C756 1.369 . S
C757 C766 1.429 . S
C758 C756 1.419 . S
C758 C759 1.363 . S
C758 H761 0.929 . S
C759 C758 1.363 . S
C759 C765 1.428 . S
H760 C756 0.930 . S
H761 C758 0.929 . S
S762 N763 1.613 . S
S762 N764 1.610 . S
N763 S762 1.613 . S
N763 C766 1.350 . S
N764 S762 1.610 . S
N764 C765 1.351 . S
C765 C759 1.428 . S
C765 N764 1.351 . S
C765 C766 1.434 . S
C766 C757 1.429 . S
C766 N763 1.350 . S
C766 C765 1.434 . S
C767 C768 1.369 . S
C767 C769 1.419 . S
C767 H771 0.930 . S
C768 C767 1.369 . S
C768 C777 1.429 . S
C769 C767 1.419 . S
C769 C770 1.363 . S
C769 H772 0.929 . S
C770 C769 1.363 . S
C770 C776 1.428 . S
H771 C767 0.930 . S
H772 C769 0.929 . S
S773 N774 1.613 . S
S773 N775 1.610 . S
N774 S773 1.613 . S
N774 C777 1.350 . S
N775 S773 1.610 . S
N775 C776 1.351 . S
C776 C770 1.428 . S
C776 N775 1.351 . S
C776 C777 1.434 . S
C777 C768 1.429 . S
C777 N774 1.350 . S
C777 C776 1.434 . S
C778 C779 1.369 . S
C778 C780 1.419 . S
C778 H782 0.930 . S
C779 C778 1.369 . S
C779 C788 1.429 . S
C780 C778 1.419 . S
C780 C781 1.363 . S
C780 H783 0.929 . S
C781 C780 1.363 . S
C781 C787 1.428 . S
H782 C778 0.930 . S
H783 C780 0.929 . S
S784 N785 1.613 . S
S784 N786 1.610 . S
N785 S784 1.613 . S
N785 C788 1.350 . S
N786 S784 1.610 . S
N786 C787 1.351 . S
C787 C781 1.428 . S
C787 N786 1.351 . S
C787 C788 1.434 . S
C788 C779 1.429 . S
C788 N785 1.350 . S
C788 C787 1.434 . S
C789 C790 1.369 . S
C789 C791 1.419 . S
C789 H793 0.930 . S
C790 C789 1.369 . S
C790 C799 1.429 . S
C791 C789 1.419 . S
C791 C792 1.363 . S
C791 H794 0.929 . S
C792 C791 1.363 . S
C792 C798 1.428 . S
H793 C789 0.930 . S
H794 C791 0.929 . S
S795 N796 1.613 . S
S795 N797 1.610 . S
N796 S795 1.613 . S
N796 C799 1.350 . S
N797 S795 1.610 . S
N797 C798 1.351 . S
C798 C792 1.428 . S
C798 N797 1.351 . S
C798 C799 1.434 . S
C799 C790 1.429 . S
C799 N796 1.350 . S
C799 C798 1.434 . S
C800 C801 1.369 . S
C800 C802 1.419 . S
C800 H804 0.930 . S
C801 C800 1.369 . S
C801 C810 1.429 . S
C802 C800 1.419 . S
C802 C803 1.363 . S
C802 H805 0.929 . S
C803 C802 1.363 . S
C803 C809 1.428 . S
H804 C800 0.930 . S
H805 C802 0.929 . S
S806 N807 1.613 . S
S806 N808 1.610 . S
N807 S806 1.613 . S
N807 C810 1.350 . S
N808 S806 1.610 . S
N808 C809 1.351 . S
C809 C803 1.428 . S
C809 N808 1.351 . S
C809 C810 1.434 . S
C810 C801 1.429 . S
C810 N807 1.350 . S
C810 C809 1.434 . S
C811 C812 1.369 . S
C811 C813 1.419 1_565 S
C811 H815 0.930 . S
C812 C811 1.369 . S
C812 C821 1.429 1_655 S
C813 C811 1.419 1_545 S
C813 C814 1.363 1_655 S
C813 H816 0.929 . S
C814 C813 1.363 1_455 S
C814 C820 1.428 . S
H815 C811 0.930 . S
H816 C813 0.929 . S
S817 N818 1.613 . S
S817 N819 1.610 1_565 S
N818 S817 1.613 . S
N818 C821 1.350 . S
N819 S817 1.610 1_545 S
N819 C820 1.351 . S
C820 C814 1.428 . S
C820 N819 1.351 . S
C820 C821 1.434 1_545 S
C821 C812 1.429 1_455 S
C821 N818 1.350 . S
C821 C820 1.434 1_565 S
C822 C823 1.369 . S
C822 C824 1.419 . S
C822 H826 0.930 . S
C823 C822 1.369 . S
C823 C832 1.429 . S
C824 C822 1.419 . S
C824 C825 1.363 . S
C824 H827 0.929 . S
C825 C824 1.363 . S
C825 C831 1.428 . S
H826 C822 0.930 . S
H827 C824 0.929 . S
S828 N829 1.613 . S
S828 N830 1.610 . S
N829 S828 1.613 . S
N829 C832 1.350 . S
N830 S828 1.610 . S
N830 C831 1.351 . S
C831 C825 1.428 . S
C831 N830 1.351 . S
C831 C832 1.434 . S
C832 C823 1.429 . S
C832 N829 1.350 . S
C832 C831 1.434 . S
C833 C834 1.369 . S
C833 C835 1.419 1_554 S
C833 H837 0.930 . S
C834 C833 1.369 . S
C834 C843 1.429 1_545 S
C835 C833 1.419 1_556 S
C835 C836 1.363 1_545 S
C835 H838 0.929 . S
C836 C835 1.363 1_565 S
C836 C842 1.428 . S
H837 C833 0.930 . S
H838 C835 0.929 . S
S839 N840 1.613 1_556 S
S839 N841 1.610 . S
N840 S839 1.613 1_554 S
N840 C843 1.350 . S
N841 S839 1.610 . S
N841 C842 1.351 . S
C842 C836 1.428 . S
C842 N841 1.351 . S
C842 C843 1.434 1_556 S
C843 C834 1.429 1_565 S
C843 N840 1.350 . S
C843 C842 1.434 1_554 S
C844 C845 1.369 . S
C844 C846 1.419 . S
C844 H848 0.930 . S
C845 C844 1.369 . S
C845 C854 1.429 . S
C846 C844 1.419 . S
C846 C847 1.363 . S
C846 H849 0.929 . S
C847 C846 1.363 . S
C847 C853 1.428 . S
H848 C844 0.930 . S
H849 C846 0.929 . S
S850 N851 1.613 . S
S850 N852 1.610 . S
N851 S850 1.613 . S
N851 C854 1.350 . S
N852 S850 1.610 . S
N852 C853 1.351 . S
C853 C847 1.428 . S
C853 N852 1.351 . S
C853 C854 1.434 . S
C854 C845 1.429 . S
C854 N851 1.350 . S
C854 C853 1.434 . S
C855 C856 1.369 1_545 S
C855 C857 1.419 . S
C855 H859 0.930 . S
C856 C855 1.369 1_565 S
C856 C865 1.429 . S
C857 C855 1.419 . S
C857 C858 1.363 . S
C857 H860 0.929 . S
C858 C857 1.363 . S
C858 C864 1.428 1_545 S
H859 C855 0.930 . S
H860 C857 0.929 . S
S861 N862 1.613 . S
S861 N863 1.610 . S
N862 S861 1.613 . S
N862 C865 1.350 . S
N863 S861 1.610 . S
N863 C864 1.351 . S
C864 C858 1.428 1_565 S
C864 N863 1.351 . S
C864 C865 1.434 . S
C865 C856 1.429 . S
C865 N862 1.350 . S
C865 C864 1.434 . S
C866 C867 1.369 . S
C866 C868 1.419 . S
C866 H870 0.930 . S
C867 C866 1.369 . S
C867 C876 1.429 . S
C868 C866 1.419 . S
C868 C869 1.363 . S
C868 H871 0.929 . S
C869 C868 1.363 . S
C869 C875 1.428 . S
H870 C866 0.930 . S
H871 C868 0.929 . S
S872 N873 1.613 . S
S872 N874 1.610 . S
N873 S872 1.613 . S
N873 C876 1.350 . S
N874 S872 1.610 . S
N874 C875 1.351 . S
C875 C869 1.428 . S
C875 N874 1.351 . S
C875 C876 1.434 . S
C876 C867 1.429 . S
C876 N873 1.350 . S
C876 C875 1.434 . S
C877 C878 1.369 1_565 S
C877 C879 1.419 1_556 S
C877 H881 0.930 . S
C878 C877 1.369 1_545 S
C878 C887 1.429 1_655 S
C879 C877 1.419 1_554 S
C879 C880 1.363 1_655 S
C879 H882 0.929 . S
C880 C879 1.363 1_455 S
C880 C886 1.428 1_565 S
H881 C877 0.930 . S
H882 C879 0.929 . S
S883 N884 1.613 1_554 S
S883 N885 1.610 . S
N884 S883 1.613 1_556 S
N884 C887 1.350 . S
N885 S883 1.610 . S
N885 C886 1.351 . S
C886 C880 1.428 1_545 S
C886 N885 1.351 . S
C886 C887 1.434 1_554 S
C887 C878 1.429 1_455 S
C887 N884 1.350 . S
C887 C886 1.434 1_556 S
C888 C889 1.369 . S
C888 C890 1.419 . S
C888 H892 0.930 . S
C889 C888 1.369 . S
C889 C898 1.429 . S
C890 C888 1.419 . S
C890 C891 1.363 . S
C890 H893 0.929 . S
C891 C890 1.363 . S
C891 C897 1.428 . S
H892 C888 0.930 . S
H893 C890 0.929 . S
S894 N895 1.613 . S
S894 N896 1.610 . S
N895 S894 1.613 . S
N895 C898 1.350 . S
N896 S894 1.610 . S
N896 C897 1.351 . S
C897 C891 1.428 . S
C897 N896 1.351 . S
C897 C898 1.434 . S
C898 C889 1.429 . S
C898 N895 1.350 . S
C898 C897 1.434 . S
C899 C900 1.369 . S
C899 C901 1.419 . S
C899 H903 0.930 . S
C900 C899 1.369 . S
C900 C909 1.429 . S
C901 C899 1.419 . S
C901 C902 1.363 . S
C901 H904 0.929 . S
C902 C901 1.363 . S
C902 C908 1.428 . S
H903 C899 0.930 . S
H904 C901 0.929 . S
S905 N906 1.613 . S
S905 N907 1.610 . S
N906 S905 1.613 . S
N906 C909 1.350 . S
N907 S905 1.610 . S
N907 C908 1.351 . S
C908 C902 1.428 . S
C908 N907 1.351 . S
C908 C909 1.434 . S
C909 C900 1.429 . S
C909 N906 1.350 . S
C909 C908 1.434 . S
C910 C911 1.369 . S
C910 C912 1.419 . S
C910 H914 0.930 . S
C911 C910 1.369 . S
C911 C920 1.429 . S
C912 C910 1.419 . S
C912 C913 1.363 . S
C912 H915 0.929 . S
C913 C912 1.363 . S
C913 C919 1.428 . S
H914 C910 0.930 . S
H915 C912 0.929 . S
S916 N917 1.613 . S
S916 N918 1.610 . S
N917 S916 1.613 . S
N917 C920 1.350 . S
N918 S916 1.610 . S
N918 C919 1.351 . S
C919 C913 1.428 . S
C919 N918 1.351 . S
C919 C920 1.434 . S
C920 C911 1.429 . S
C920 N917 1.350 . S
C920 C919 1.434 . S
C921 C922 1.369 . S
C921 C923 1.419 . S
C921 H925 0.930 . S
C922 C921 1.369 . S
C922 C931 1.429 . S
C923 C921 1.419 . S
C923 C924 1.363 . S
C923 H926 0.929 . S
C924 C923 1.363 . S
C924 C930 1.428 . S
H925 C921 0.930 . S
H926 C923 0.929 . S
S927 N928 1.613 . S
S927 N929 1.610 . S
N928 S927 1.613 . S
N928 C931 1.350 . S
N929 S927 1.610 . S
N929 C930 1.351 . S
C930 C924 1.428 . S
C930 N929 1.351 . S
C930 C931 1.434 . S
C931 C922 1.429 . S
C931 N928 1.350 . S
C931 C930 1.434 . S
C932 C933 1.369 . S
C932 C934 1.419 . S
C932 H936 0.930 . S
C933 C932 1.369 . S
C933 C942 1.429 1_554 S
C934 C932 1.419 . S
C934 C935 1.363 1_554 S
C934 H937 0.929 . S
C935 C934 1.363 1_556 S
C935 C941 1.428 . S
H936 C932 0.930 . S
H937 C934 0.929 . S
S938 N939 1.613 . S
S938 N940 1.610 . S
N939 S938 1.613 . S
N939 C942 1.350 . S
N940 S938 1.610 . S
N940 C941 1.351 . S
C941 C935 1.428 . S
C941 N940 1.351 . S
C941 C942 1.434 . S
C942 C933 1.429 1_556 S
C942 N939 1.350 . S
C942 C941 1.434 . S
C943 C944 1.369 1_455 S
C943 C945 1.419 . S
C943 H947 0.930 . S
C944 C943 1.369 1_655 S
C944 C953 1.429 . S
C945 C943 1.419 . S
C945 C946 1.363 . S
C945 H948 0.929 . S
C946 C945 1.363 . S
C946 C952 1.428 1_455 S
H947 C943 0.930 . S
H948 C945 0.929 . S
S949 N950 1.613 . S
S949 N951 1.610 . S
N950 S949 1.613 . S
N950 C953 1.350 . S
N951 S949 1.610 . S
N951 C952 1.351 . S
C952 C946 1.428 1_655 S
C952 N951 1.351 . S
C952 C953 1.434 . S
C953 C944 1.429 . S
C953 N950 1.350 . S
C953 C952 1.434 . S
C954 C955 1.369 . S
C954 C956 1.419 . S
C954 H958 0.930 . S
C955 C954 1.369 . S
C955 C964 1.429 1_456 S
C956 C954 1.419 . S
C956 C957 1.363 1_456 S
C956 H959 0.929 . S
C957 C956 1.363 1_654 S
C957 C963 1.428 . S
H958 C954 0.930 . S
H959 C956 0.929 . S
S960 N961 1.613 . S
S960 N962 1.610 . S
N961 S960 1.613 . S
N961 C964 1.350 . S
N962 S960 1.610 . S
N962 C963 1.351 . S
C963 C957 1.428 . S
C963 N962 1.351 . S
C963 C964 1.434 . S
C964 C955 1.429 1_654 S
C964 N961 1.350 . S
C964 C963 1.434 . S
C965 C966 1.369 . S
C965 C967 1.419 . S
C965 H969 0.930 . S
C966 C965 1.369 . S
C966 C975 1.429 . S
C967 C965 1.419 . S
C967 C968 1.363 . S
C967 H970 0.929 . S
C968 C967 1.363 . S
C968 C974 1.428 . S
H969 C965 0.930 . S
H970 C967 0.929 . S
S971 N972 1.613 . S
S971 N973 1.610 . S
N972 S971 1.613 . S
N972 C975 1.350 . S
N973 S971 1.610 . S
N973 C974 1.351 . S
C974 C968 1.428 . S
C974 N973 1.351 . S
C974 C975 1.434 . S
C975 C966 1.429 . S
C975 N972 1.350 . S
C975 C974 1.434 . S
C976 C977 1.369 . S
C976 C978 1.419 . S
C976 H980 0.930 . S
C977 C976 1.369 . S
C977 C986 1.429 . S
C978 C976 1.419 . S
C978 C979 1.363 . S
C978 H981 0.929 . S
C979 C978 1.363 . S
C979 C985 1.428 . S
H980 C976 0.930 . S
H981 C978 0.929 . S
S982 N983 1.613 . S
S982 N984 1.610 . S
N983 S982 1.613 . S
N983 C986 1.350 . S
N984 S982 1.610 . S
N984 C985 1.351 . S
C985 C979 1.428 . S
C985 N984 1.351 . S
C985 C986 1.434 . S
C986 C977 1.429 . S
C986 N983 1.350 . S
C986 C985 1.434 . S
C987 C988 1.369 . S
C987 C989 1.419 . S
C987 H991 0.930 . S
C988 C987 1.369 . S
C988 C997 1.429 . S
C989 C987 1.419 . S
C989 C990 1.363 . S
C989 H992 0.929 . S
C990 C989 1.363 . S
C990 C996 1.428 . S
H991 C987 0.930 . S
H992 C989 0.929 . S
S993 N994 1.613 . S
S993 N995 1.610 . S
N994 S993 1.613 . S
N994 C997 1.350 . S
N995 S993 1.610 . S
N995 C996 1.351 . S
C996 C990 1.428 . S
C996 N995 1.351 . S
C996 C997 1.434 . S
C997 C988 1.429 . S
C997 N994 1.350 . S
C997 C996 1.434 . S
C998 C999 1.369 . S
C998 C1000 1.419 . S
C998 H1002 0.930 . S
C999 C998 1.369 . S
C999 C1008 1.429 . S
C1000 C998 1.419 . S
C1000 C1001 1.363 . S
C1000 H1003 0.929 . S
C1001 C1000 1.363 . S
C1001 C1007 1.428 . S
H1002 C998 0.930 . S
H1003 C1000 0.929 . S
S1004 N1005 1.613 . S
S1004 N1006 1.610 . S
N1005 S1004 1.613 . S
N1005 C1008 1.350 . S
N1006 S1004 1.610 . S
N1006 C1007 1.351 . S
C1007 C1001 1.428 . S
C1007 N1006 1.351 . S
C1007 C1008 1.434 . S
C1008 C999 1.429 . S
C1008 N1005 1.350 . S
C1008 C1007 1.434 . S
C1009 C1010 1.369 . S
C1009 C1011 1.419 . S
C1009 H1013 0.930 . S
C1010 C1009 1.369 . S
C1010 C1019 1.429 . S
C1011 C1009 1.419 . S
C1011 C1012 1.363 . S
C1011 H1014 0.929 . S
C1012 C1011 1.363 . S
C1012 C1018 1.428 . S
H1013 C1009 0.930 . S
H1014 C1011 0.929 . S
S1015 N1016 1.613 . S
S1015 N1017 1.610 . S
N1016 S1015 1.613 . S
N1016 C1019 1.350 . S
N1017 S1015 1.610 . S
N1017 C1018 1.351 . S
C1018 C1012 1.428 . S
C1018 N1017 1.351 . S
C1018 C1019 1.434 . S
C1019 C1010 1.429 . S
C1019 N1016 1.350 . S
C1019 C1018 1.434 . S
C1020 C1021 1.369 . S
C1020 C1022 1.419 . S
C1020 H1024 0.930 . S
C1021 C1020 1.369 . S
C1021 C1030 1.429 . S
C1022 C1020 1.419 . S
C1022 C1023 1.363 . S
C1022 H1025 0.929 . S
C1023 C1022 1.363 . S
C1023 C1029 1.428 . S
H1024 C1020 0.930 . S
H1025 C1022 0.929 . S
S1026 N1027 1.613 . S
S1026 N1028 1.610 . S
N1027 S1026 1.613 . S
N1027 C1030 1.350 . S
N1028 S1026 1.610 . S
N1028 C1029 1.351 . S
C1029 C1023 1.428 . S
C1029 N1028 1.351 . S
C1029 C1030 1.434 . S
C1030 C1021 1.429 . S
C1030 N1027 1.350 . S
C1030 C1029 1.434 . S
C1031 C1032 1.369 . S
C1031 C1033 1.419 . S
C1031 H1035 0.930 . S
C1032 C1031 1.369 . S
C1032 C1041 1.429 . S
C1033 C1031 1.419 . S
C1033 C1034 1.363 . S
C1033 H1036 0.929 . S
C1034 C1033 1.363 . S
C1034 C1040 1.428 . S
H1035 C1031 0.930 . S
H1036 C1033 0.929 . S
S1037 N1038 1.613 . S
S1037 N1039 1.610 . S
N1038 S1037 1.613 . S
N1038 C1041 1.350 . S
N1039 S1037 1.610 . S
N1039 C1040 1.351 . S
C1040 C1034 1.428 . S
C1040 N1039 1.351 . S
C1040 C1041 1.434 . S
C1041 C1032 1.429 . S
C1041 N1038 1.350 . S
C1041 C1040 1.434 . S
C1042 C1043 1.369 . S
C1042 C1044 1.419 . S
C1042 H1046 0.930 . S
C1043 C1042 1.369 . S
C1043 C1052 1.429 . S
C1044 C1042 1.419 . S
C1044 C1045 1.363 . S
C1044 H1047 0.929 . S
C1045 C1044 1.363 . S
C1045 C1051 1.428 . S
H1046 C1042 0.930 . S
H1047 C1044 0.929 . S
S1048 N1049 1.613 . S
S1048 N1050 1.610 . S
N1049 S1048 1.613 . S
N1049 C1052 1.350 . S
N1050 S1048 1.610 . S
N1050 C1051 1.351 . S
C1051 C1045 1.428 . S
C1051 N1050 1.351 . S
C1051 C1052 1.434 . S
C1052 C1043 1.429 . S
C1052 N1049 1.350 . S
C1052 C1051 1.434 . S
C1053 C1054 1.369 . S
C1053 C1055 1.419 . S
C1053 H1057 0.930 . S
C1054 C1053 1.369 . S
C1054 C1063 1.429 . S
C1055 C1053 1.419 . S
C1055 C1056 1.363 . S
C1055 H1058 0.929 . S
C1056 C1055 1.363 . S
C1056 C1062 1.428 . S
H1057 C1053 0.930 . S
H1058 C1055 0.929 . S
S1059 N1060 1.613 . S
S1059 N1061 1.610 . S
N1060 S1059 1.613 . S
N1060 C1063 1.350 . S
N1061 S1059 1.610 . S
N1061 C1062 1.351 . S
C1062 C1056 1.428 . S
C1062 N1061 1.351 . S
C1062 C1063 1.434 . S
C1063 C1054 1.429 . S
C1063 N1060 1.350 . S
C1063 C1062 1.434 . S
C1064 C1065 1.369 . S
C1064 C1066 1.419 . S
C1064 H1068 0.930 . S
C1065 C1064 1.369 . S
C1065 C1074 1.429 . S
C1066 C1064 1.419 . S
C1066 C1067 1.363 . S
C1066 H1069 0.929 . S
C1067 C1066 1.363 . S
C1067 C1073 1.428 . S
H1068 C1064 0.930 . S
H1069 C1066 0.929 . S
S1070 N1071 1.613 . S
S1070 N1072 1.610 . S
N1071 S1070 1.613 . S
N1071 C1074 1.350 . S
N1072 S1070 1.610 . S
N1072 C1073 1.351 . S
C1073 C1067 1.428 . S
C1073 N1072 1.351 . S
C1073 C1074 1.434 . S
C1074 C1065 1.429 . S
C1074 N1071 1.350 . S
C1074 C1073 1.434 . S
C1075 C1076 1.369 . S
C1075 C1077 1.419 . S
C1075 H1079 0.930 . S
C1076 C1075 1.369 . S
C1076 C1085 1.429 . S
C1077 C1075 1.419 . S
C1077 C1078 1.363 . S
C1077 H1080 0.929 . S
C1078 C1077 1.363 . S
C1078 C1084 1.428 . S
H1079 C1075 0.930 . S
H1080 C1077 0.929 . S
S1081 N1082 1.613 . S
S1081 N1083 1.610 . S
N1082 S1081 1.613 . S
N1082 C1085 1.350 . S
N1083 S1081 1.610 . S
N1083 C1084 1.351 . S
C1084 C1078 1.428 . S
C1084 N1083 1.351 . S
C1084 C1085 1.434 . S
C1085 C1076 1.429 . S
C1085 N1082 1.350 . S
C1085 C1084 1.434 . S
C1086 C1087 1.369 . S
C1086 C1088 1.419 . S
C1086 H1090 0.930 . S
C1087 C1086 1.369 . S
C1087 C1096 1.429 . S
C1088 C1086 1.419 . S
C1088 C1089 1.363 . S
C1088 H1091 0.929 . S
C1089 C1088 1.363 . S
C1089 C1095 1.428 . S
H1090 C1086 0.930 . S
H1091 C1088 0.929 . S
S1092 N1093 1.613 . S
S1092 N1094 1.610 . S
N1093 S1092 1.613 . S
N1093 C1096 1.350 . S
N1094 S1092 1.610 . S
N1094 C1095 1.351 . S
C1095 C1089 1.428 . S
C1095 N1094 1.351 . S
C1095 C1096 1.434 . S
C1096 C1087 1.429 . S
C1096 N1093 1.350 . S
C1096 C1095 1.434 . S
C1097 C1098 1.369 . S
C1097 C1099 1.419 . S
C1097 H1101 0.930 . S
C1098 C1097 1.369 . S
C1098 C1107 1.429 . S
C1099 C1097 1.419 . S
C1099 C1100 1.363 . S
C1099 H1102 0.929 . S
C1100 C1099 1.363 . S
C1100 C1106 1.428 . S
H1101 C1097 0.930 . S
H1102 C1099 0.929 . S
S1103 N1104 1.613 . S
S1103 N1105 1.610 . S
N1104 S1103 1.613 . S
N1104 C1107 1.350 . S
N1105 S1103 1.610 . S
N1105 C1106 1.351 . S
C1106 C1100 1.428 . S
C1106 N1105 1.351 . S
C1106 C1107 1.434 . S
C1107 C1098 1.429 . S
C1107 N1104 1.350 . S
C1107 C1106 1.434 . S
C1108 C1109 1.369 . S
C1108 C1110 1.419 . S
C1108 H1112 0.930 . S
C1109 C1108 1.369 . S
C1109 C1118 1.429 . S
C1110 C1108 1.419 . S
C1110 C1111 1.363 . S
C1110 H1113 0.929 . S
C1111 C1110 1.363 . S
C1111 C1117 1.428 . S
H1112 C1108 0.930 . S
H1113 C1110 0.929 . S
S1114 N1115 1.613 . S
S1114 N1116 1.610 . S
N1115 S1114 1.613 . S
N1115 C1118 1.350 . S
N1116 S1114 1.610 . S
N1116 C1117 1.351 . S
C1117 C1111 1.428 . S
C1117 N1116 1.351 . S
C1117 C1118 1.434 . S
C1118 C1109 1.429 . S
C1118 N1115 1.350 . S
C1118 C1117 1.434 . S
C1119 C1120 1.369 . S
C1119 C1121 1.419 . S
C1119 H1123 0.930 . S
C1120 C1119 1.369 . S
C1120 C1129 1.429 . S
C1121 C1119 1.419 . S
C1121 C1122 1.363 . S
C1121 H1124 0.929 . S
C1122 C1121 1.363 . S
C1122 C1128 1.428 . S
H1123 C1119 0.930 . S
H1124 C1121 0.929 . S
S1125 N1126 1.613 . S
S1125 N1127 1.610 . S
N1126 S1125 1.613 . S
N1126 C1129 1.350 . S
N1127 S1125 1.610 . S
N1127 C1128 1.351 . S
C1128 C1122 1.428 . S
C1128 N1127 1.351 . S
C1128 C1129 1.434 . S
C1129 C1120 1.429 . S
C1129 N1126 1.350 . S
C1129 C1128 1.434 . S
C1130 C1131 1.369 . S
C1130 C1132 1.419 . S
C1130 H1134 0.930 . S
C1131 C1130 1.369 . S
C1131 C1140 1.429 . S
C1132 C1130 1.419 . S
C1132 C1133 1.363 . S
C1132 H1135 0.929 . S
C1133 C1132 1.363 . S
C1133 C1139 1.428 . S
H1134 C1130 0.930 . S
H1135 C1132 0.929 . S
S1136 N1137 1.613 . S
S1136 N1138 1.610 . S
N1137 S1136 1.613 . S
N1137 C1140 1.350 . S
N1138 S1136 1.610 . S
N1138 C1139 1.351 . S
C1139 C1133 1.428 . S
C1139 N1138 1.351 . S
C1139 C1140 1.434 . S
C1140 C1131 1.429 . S
C1140 N1137 1.350 . S
C1140 C1139 1.434 . S
C1141 C1142 1.369 . S
C1141 C1143 1.419 . S
C1141 H1145 0.930 . S
C1142 C1141 1.369 . S
C1142 C1151 1.429 . S
C1143 C1141 1.419 . S
C1143 C1144 1.363 . S
C1143 H1146 0.929 . S
C1144 C1143 1.363 . S
C1144 C1150 1.428 . S
H1145 C1141 0.930 . S
H1146 C1143 0.929 . S
S1147 N1148 1.613 . S
S1147 N1149 1.610 . S
N1148 S1147 1.613 . S
N1148 C1151 1.350 . S
N1149 S1147 1.610 . S
N1149 C1150 1.351 . S
C1150 C1144 1.428 . S
C1150 N1149 1.351 . S
C1150 C1151 1.434 . S
C1151 C1142 1.429 . S
C1151 N1148 1.350 . S
C1151 C1150 1.434 . S
C449 C135 1.537 . S
C451 C8 1.622 . S
C460 C22 1.619 1_455 S
C462 C373 1.534 . S
C471 C163 1.539 . S
C473 C36 1.621 . S
C482 C345 1.536 . S
C484 C50 1.620 . S
C493 C64 1.619 . S
C495 C219 1.532 . S
C504 C401 1.539 . S
C506 C78 1.621 . S
C515 C92 1.620 . S
C517 C191 1.530 . S
C526 C429 1.531 . S
C528 C106 1.620 1_455 S
C537 C23 1.535 . S
C539 C120 1.620 . S
C548 C134 1.619 1_655 S
C550 C261 1.536 . S
C559 C51 1.528 . S
C561 C148 1.622 . S
C570 C162 1.621 . S
C572 C233 1.538 . S
C581 C176 1.621 . S
C583 C107 1.529 . S
C592 C289 1.528 . S
C594 C190 1.622 . S
C603 C204 1.619 . S
C605 C79 1.535 . S
C614 C317 1.528 . S
C616 C218 1.622 1_655 S
C625 C359 1.529 . S
C627 C232 1.620 . S
C636 C149 1.529 . S
C638 C246 1.622 . S
C647 C260 1.620 . S
C649 C387 1.531 . S
C658 C121 1.537 . S
C660 C274 1.622 1_655 S
C669 C443 1.539 . S
C671 C288 1.621 . S
C680 C302 1.621 1_655 S
C682 C177 1.529 . S
C691 C415 1.529 . S
C693 C316 1.622 . S
C702 C205 1.530 . S
C704 C330 1.622 . S
C713 C247 1.528 . S
C715 C344 1.622 . S
C724 C358 1.620 . S
C726 C37 1.530 . S
C735 C372 1.620 . S
C737 C275 1.530 . S
C746 C386 1.621 1_455 S
C748 C9 1.530 . S
C757 C331 1.529 . S
C759 C400 1.621 . S
C768 C414 1.621 1_455 S
C770 C65 1.538 . S
C779 C428 1.619 . S
C781 C303 1.536 . S
C790 C442 1.620 . S
C792 C93 1.530 . S
C801 C342 1.572 . S
C803 C6 1.569 . S
C812 C20 1.571 . S
C814 C132 1.570 . S
C823 C34 1.571 . S
C825 C370 1.570 . S
C834 C48 1.571 . S
C836 C160 1.570 . S
C845 C62 1.572 . S
C847 C398 1.569 . S
C856 C76 1.569 . S
C858 C188 1.572 . S
C867 C426 1.572 . S
C869 C90 1.569 . S
C878 C104 1.569 . S
C880 C216 1.571 . S
C889 C118 1.571 . S
C891 C230 1.570 . S
C900 C146 1.572 . S
C902 C258 1.569 . S
C911 C286 1.570 . S
C913 C174 1.570 . S
C922 C314 1.572 . S
C924 C202 1.569 . S
C933 C244 1.569 . S
C935 C356 1.572 . S
C944 C384 1.572 . S
C946 C272 1.569 . S
C955 C300 1.569 . S
C957 C412 1.572 . S
C966 C440 1.569 . S
C968 C328 1.572 . S
C977 C301 1.321 . S
C979 C7 1.321 . S
C988 C315 1.321 . S
C990 C21 1.321 . S
C999 C35 1.322 . S
C1001 C329 1.321 . S
C1010 C287 1.323 . S
C1012 C49 1.322 . S
C1021 C273 1.318 . S
C1023 C63 1.319 . S
C1032 C231 1.316 . S
C1034 C77 1.317 . S
C1043 C91 1.324 . S
C1045 C245 1.323 . S
C1054 C259 1.320 . S
C1056 C105 1.320 . S
C1065 C413 1.322 . S
C1067 C119 1.321 . S
C1076 C427 1.320 . S
C1078 C133 1.321 . S
C1087 C441 1.316 . S
C1089 C147 1.316 . S
C1098 C161 1.320 . S
C1100 C399 1.321 . S
C1109 C385 1.318 . S
C1111 C175 1.319 . S
C1120 C343 1.322 . S
C1122 C189 1.321 . S
C1131 C357 1.318 . S
C1133 C203 1.317 . S
C1142 C371 1.315 . S
C1144 C217 1.317 . S
