# Generated by pormake.
# Topology unf, (4)-cn, num edge types: 1
# Building blocks:
#     Node 0, Type 0, BuildingBlock: CEKHIL_clean_sbu_0, # of connection points: 4
#     Node 1, Type 0, BuildingBlock: CEKHIL_clean_sbu_0, # of connection points: 4
#     Node 2, Type 0, BuildingBlock: CEKHIL_clean_sbu_0, # of connection points: 4
#     Node 3, Type 0, BuildingBlock: CEKHIL_clean_sbu_0, # of connection points: 4
#     Node 4, Type 0, BuildingBlock: CEKHIL_clean_sbu_0, # of connection points: 4
#     Node 5, Type 0, BuildingBlock: CEKHIL_clean_sbu_0, # of connection points: 4
#     Node 6, Type 0, BuildingBlock: CEKHIL_clean_sbu_0, # of connection points: 4
#     Node 7, Type 0, BuildingBlock: CEKHIL_clean_sbu_0, # of connection points: 4
#     Node 8, Type 0, BuildingBlock: CEKHIL_clean_sbu_0, # of connection points: 4
#     Node 9, Type 0, BuildingBlock: CEKHIL_clean_sbu_0, # of connection points: 4
#     Node 10, Type 0, BuildingBlock: CEKHIL_clean_sbu_0, # of connection points: 4
#     Node 11, Type 0, BuildingBlock: CEKHIL_clean_sbu_0, # of connection points: 4
#     Edge 12, Type (0, 0), BuildingBlock: XUDNAN_clean_linker_2, # of connection points: 2
#     Edge 13, Type (0, 0), BuildingBlock: XUDNAN_clean_linker_2, # of connection points: 2
#     Edge 14, Type (0, 0), BuildingBlock: XUDNAN_clean_linker_2, # of connection points: 2
#     Edge 15, Type (0, 0), BuildingBlock: XUDNAN_clean_linker_2, # of connection points: 2
#     Edge 16, Type (0, 0), BuildingBlock: XUDNAN_clean_linker_2, # of connection points: 2
#     Edge 17, Type (0, 0), BuildingBlock: XUDNAN_clean_linker_2, # of connection points: 2
#     Edge 18, Type (0, 0), BuildingBlock: XUDNAN_clean_linker_2, # of connection points: 2
#     Edge 19, Type (0, 0), BuildingBlock: XUDNAN_clean_linker_2, # of connection points: 2
#     Edge 20, Type (0, 0), BuildingBlock: XUDNAN_clean_linker_2, # of connection points: 2
#     Edge 21, Type (0, 0), BuildingBlock: XUDNAN_clean_linker_2, # of connection points: 2
#     Edge 22, Type (0, 0), BuildingBlock: XUDNAN_clean_linker_2, # of connection points: 2
#     Edge 23, Type (0, 0), BuildingBlock: XUDNAN_clean_linker_2, # of connection points: 2
#     Edge 24, Type (0, 0), BuildingBlock: XUDNAN_clean_linker_2, # of connection points: 2
#     Edge 25, Type (0, 0), BuildingBlock: XUDNAN_clean_linker_2, # of connection points: 2
#     Edge 26, Type (0, 0), BuildingBlock: XUDNAN_clean_linker_2, # of connection points: 2
#     Edge 27, Type (0, 0), BuildingBlock: XUDNAN_clean_linker_2, # of connection points: 2
#     Edge 28, Type (0, 0), BuildingBlock: XUDNAN_clean_linker_2, # of connection points: 2
#     Edge 29, Type (0, 0), BuildingBlock: XUDNAN_clean_linker_2, # of connection points: 2
#     Edge 30, Type (0, 0), BuildingBlock: XUDNAN_clean_linker_2, # of connection points: 2
#     Edge 31, Type (0, 0), BuildingBlock: XUDNAN_clean_linker_2, # of connection points: 2
#     Edge 32, Type (0, 0), BuildingBlock: XUDNAN_clean_linker_2, # of connection points: 2
#     Edge 33, Type (0, 0), BuildingBlock: XUDNAN_clean_linker_2, # of connection points: 2
#     Edge 34, Type (0, 0), BuildingBlock: XUDNAN_clean_linker_2, # of connection points: 2
#     Edge 35, Type (0, 0), BuildingBlock: XUDNAN_clean_linker_2, # of connection points: 2
# Relax obj value: 0.234
# Max RMSD: 0.181
# Mean RMSD: 0.177
data_MOF--net-unf--node1-CEKHIL_clean_sbu_0--edge1-XUDNAN_clean_linker_2
_symmetry_space_group_name_H-M    P1
_symmetry_Int_Tables_number       1
_symmetry_cell_setting            triclinic
loop_
_symmetry_equiv_pos_as_xyz
'x, y, z'
_cell_length_a     38.175016
_cell_length_b     37.801855
_cell_length_c     35.808647
_cell_angle_alpha  89.540086
_cell_angle_beta   90.637005
_cell_angle_gamma 120.58712
loop_
_atom_site_label
_atom_site_type_symbol
_atom_site_fract_x
_atom_site_fract_y
_atom_site_fract_z
_atom_type_partial_charge
Co0 Co 0.11982 0.41321 0.07932 0.0
O1 O 0.16235 0.45402 0.1104 0.0
O2 O 0.1302 0.38721 0.12172 0.0
C3 C 0.08329 0.44439 0.07132 0.0
O4 O 0.07269 0.36264 0.05418 0.0
Co5 Co 0.111 0.4365 0.9974 0.0
O6 O 0.05987 0.38255 0.99856 0.0
C7 C 0.17726 0.42139 0.01645 0.0
C8 C 0.15782 0.42418 0.13185 0.0
C9 C 0.05109 0.35577 0.02418 0.0
O10 O 0.16169 0.40852 0.04899 0.0
O11 O 0.1635 0.43712 0.99297 0.0
O12 O 0.07977 0.42392 0.10178 0.0
O13 O 0.11251 0.45 0.04963 0.0
Co14 Co 0.58947 0.67932 0.1098 0.0
O15 O 0.55945 0.68756 0.14897 0.0
O16 O 0.62592 0.7124 0.14899 0.0
C17 C 0.54952 0.61133 0.10036 0.0
O18 O 0.63133 0.67629 0.07721 0.0
Co19 Co 0.55502 0.65256 0.0294 0.0
O20 O 0.60319 0.64663 0.02212 0.0
C21 C 0.58684 0.73815 0.0519 0.0
C22 C 0.59446 0.70921 0.16578 0.0
C23 C 0.63255 0.66101 0.04556 0.0
O24 O 0.59824 0.73061 0.08342 0.0
O25 O 0.567 0.71062 0.02722 0.0
O26 O 0.57399 0.62512 0.12906 0.0
O27 O 0.54521 0.63863 0.08214 0.0
Co28 Co 0.30481 0.89492 0.0774 0.0
O29 O 0.29357 0.85667 0.11832 0.0
O30 O 0.26804 0.89747 0.11228 0.0
C31 C 0.37303 0.92434 0.0733 0.0
O32 O 0.31012 0.93894 0.04109 0.0
Co33 Co 0.33693 0.88322 1.00175 0.0
O34 O 0.34063 0.93621 0.98855 0.0
C35 C 0.25213 0.82756 0.02135 0.0
C36 C 0.26957 0.86873 0.13109 0.0
C37 C 0.32578 0.95291 0.00881 0.0
O38 O 0.25646 0.85117 0.04877 0.0
O39 O 0.28161 0.83224 1.00117 0.0
O40 O 0.35705 0.9354 0.09934 0.0
O41 O 0.34746 0.89166 0.05511 0.0
Co42 Co 0.57751 0.88449 0.44032 0.0
O43 O 0.55085 0.83485 0.41 0.0
O44 O 0.6138 0.88676 0.40263 0.0
C45 C 0.52823 0.90056 0.44256 0.0
O46 O 0.61529 0.94106 0.46215 0.0
Co47 Co 0.54911 0.89197 0.51924 0.0
O48 O 0.58955 0.95146 0.51432 0.0
C49 C 0.59572 0.85005 0.51092 0.0
C50 C 0.58499 0.85087 0.39181 0.0
C51 C 0.61585 0.96433 0.48843 0.0
O52 O 0.59932 0.85814 0.47574 0.0
O53 O 0.57536 0.85928 0.53284 0.0
O54 O 0.55007 0.90808 0.41271 0.0
O55 O 0.53232 0.87774 0.46734 0.0
Co56 Co 0.09661 0.68242 0.40932 0.0
O57 O 0.13553 0.69569 0.36973 0.0
O58 O 0.08201 0.70362 0.36635 0.0
C59 C 0.08702 0.62067 0.42704 0.0
O60 O 0.04955 0.67118 0.44341 0.0
Co61 Co 0.12001 0.67455 0.49132 0.0
O62 O 0.06033 0.64946 0.49882 0.0
C63 C 0.15475 0.75601 0.45704 0.0
C64 C 0.11481 0.70843 0.35077 0.0
C65 C 0.03763 0.65496 0.47597 0.0
O66 O 0.13003 0.74005 0.42928 0.0
O67 O 0.15859 0.73478 0.48304 0.0
O68 O 0.06811 0.62345 0.39768 0.0
O69 O 0.1149 0.65532 0.44055 0.0
Co70 Co 0.30914 0.42565 0.43 0.0
O71 O 0.30502 0.46328 0.39622 0.0
O72 O 0.29071 0.40057 0.38122 0.0
C73 C 0.37027 0.4701 0.45571 0.0
O74 O 0.31201 0.37924 0.45661 0.0
Co75 Co 0.31017 0.4381 0.51582 0.0
O76 O 0.325 0.39493 0.51767 0.0
C77 C 0.23289 0.4051 0.47475 0.0
C78 C 0.29254 0.43462 0.37116 0.0
C79 C 0.32107 0.37253 0.48968 0.0
O80 O 0.25057 0.40277 0.44524 0.0
O81 O 0.252 0.42106 0.5053 0.0
O82 O 0.36824 0.45371 0.42334 0.0
O83 O 0.33589 0.46312 0.46875 0.0
Co84 Co 0.89046 0.57586 0.92704 0.0
O85 O 0.9168 0.54448 0.91857 0.0
O86 O 0.88562 0.5439 0.97067 0.0
C87 C 0.85631 0.56307 0.87252 0.0
O88 O 0.85946 0.60231 0.94683 0.0
Co89 Co 0.90948 0.65262 0.88044 0.0
O90 O 0.86142 0.64846 0.90574 0.0
C91 C 0.97081 0.65636 0.93318 0.0
C92 C 0.907 0.53171 0.95283 0.0
C93 C 0.84791 0.62714 0.93544 0.0
O94 O 0.94361 0.62169 0.94665 0.0
O95 O 0.96438 0.67343 0.90501 0.0
O96 O 0.84207 0.53627 0.89954 0.0
O97 O 0.89237 0.59449 0.87787 0.0
Co98 Co 0.42508 0.31312 0.91929 0.0
O99 O 0.45493 0.2974 0.88621 0.0
O100 O 0.39807 0.29691 0.87181 0.0
C101 C 0.47623 0.37082 0.94437 0.0
O102 O 0.3864 0.32813 0.94315 0.0
Co103 Co 0.4332 0.31482 0.00549 0.0
O104 O 0.40004 0.34181 0.00424 0.0
C105 C 0.39279 0.23564 0.96663 0.0
C106 C 0.42553 0.28816 0.86234 0.0
C107 C 0.3815 0.34157 0.97436 0.0
O108 O 0.39238 0.25428 0.9366 0.0
O109 O 0.4104 0.2546 0.99678 0.0
O110 O 0.46255 0.37179 0.91108 0.0
O111 O 0.46263 0.33469 0.95861 0.0
Co112 Co 0.69689 0.09113 0.92201 0.0
O113 O 0.63835 0.0635 0.91483 0.0
O114 O 0.67229 0.10365 0.96259 0.0
C115 C 0.71706 0.11536 0.86312 0.0
O116 O 0.75578 0.12478 0.93978 0.0
Co117 Co 0.74986 0.06267 0.88147 0.0
O118 O 0.79652 0.11298 0.90357 0.0
C119 C 0.69379 0.01126 0.94055 0.0
C120 C 0.63739 0.07894 0.94691 0.0
C121 C 0.79122 0.13227 0.92987 0.0
O122 O 0.68951 0.04149 0.95031 0.0
O123 O 0.71329 0.01203 0.9114 0.0
O124 O 0.70659 0.13498 0.88596 0.0
O125 O 0.71051 0.08028 0.87519 0.0
Co126 Co 0.39523 0.09269 0.58847 0.0
O127 O 0.41753 0.05683 0.59357 0.0
O128 O 0.43006 0.10052 0.54704 0.0
C129 C 0.40413 0.11598 0.64786 0.0
O130 O 0.37938 0.13464 0.57279 0.0
Co131 Co 0.31812 0.07766 0.63072 0.0
O132 O 0.33296 0.13299 0.61189 0.0
C133 C 0.30938 0.02612 0.5661 0.0
C134 C 0.43459 0.07141 0.5614 0.0
C135 C 0.35749 0.14909 0.58476 0.0
O136 O 0.34775 0.04802 0.55993 0.0
O137 O 0.29179 0.0316 0.59379 0.0
O138 O 0.43452 0.13236 0.62472 0.0
O139 O 0.3717 0.08392 0.63558 0.0
Co140 Co 0.89097 0.30509 0.5836 0.0
O141 O 0.85406 0.29448 0.62484 0.0
O142 O 0.89285 0.26707 0.61856 0.0
C143 C 0.9218 0.37397 0.57916 0.0
O144 O 0.93418 0.3098 0.54732 0.0
Co145 Co 0.88161 0.3404 0.50772 0.0
O146 O 0.93406 0.34441 0.4958 0.0
C147 C 0.82552 0.25367 0.52506 0.0
C148 C 0.86549 0.26961 0.6377 0.0
C149 C 0.94934 0.32755 0.51583 0.0
O150 O 0.84598 0.25723 0.55503 0.0
O151 O 0.8331 0.28395 0.50367 0.0
O152 O 0.93243 0.35714 0.60537 0.0
O153 O 0.88878 0.349 0.56128 0.0
Co154 Co 0.70514 0.61116 0.59491 0.0
O155 O 0.65134 0.59716 0.61007 0.0
O156 O 0.66676 0.5848 0.55415 0.0
C157 C 0.72202 0.58826 0.6465 0.0
O158 O 0.75658 0.61911 0.56982 0.0
Co159 Co 0.78107 0.6767 0.63879 0.0
O160 O 0.81115 0.6594 0.60614 0.0
C161 C 0.73064 0.70079 0.59563 0.0
C162 C 0.63927 0.5829 0.57657 0.0
C163 C 0.7948 0.63639 0.57783 0.0
O164 O 0.71507 0.66658 0.57782 0.0
O165 O 0.75485 0.70907 0.6235 0.0
O166 O 0.69976 0.56267 0.62039 0.0
O167 O 0.72945 0.62542 0.64234 0.0
H168 H 0.22068 0.39497 0.05876 0.0
H169 H 0.21081 0.43501 0.94697 0.0
H170 H 0.2641 0.42196 0.9255 0.0
H171 H 0.33172 0.43834 0.05683 0.0
H172 H 0.32904 0.39594 0.08269 0.0
H173 H 0.29169 0.41082 0.09023 0.0
H174 H 0.23407 0.33655 0.07541 0.0
H175 H 0.27121 0.32153 0.06763 0.0
H176 H 0.23447 0.31347 0.03167 0.0
H177 H 0.31392 0.39979 0.91448 0.0
H178 H 0.3604 0.3726 0.91525 0.0
H179 H 0.34063 0.34868 0.03426 0.0
C180 C 0.23001 0.40142 0.02986 0.0
C181 C 0.21137 0.416 0.0046 0.0
C182 C 0.22454 0.42396 0.96699 0.0
C183 C 0.25486 0.41664 0.95444 0.0
C184 C 0.27212 0.40177 0.97985 0.0
C185 C 0.26057 0.3946 0.01685 0.0
C186 C 0.2835 0.3776 0.038 0.0
C187 C 0.3106 0.40746 0.06876 0.0
C188 C 0.25405 0.33474 0.05411 0.0
C189 C 0.30887 0.37537 0.00682 0.0
C190 C 0.30181 0.38961 0.97358 0.0
C191 C 0.32006 0.38893 0.94039 0.0
C192 C 0.34621 0.37318 0.94109 0.0
C193 C 0.35407 0.35846 0.97479 0.0
C194 C 0.33544 0.36002 0.00816 0.0
H195 H 0.60271 0.7735 0.98289 0.0
H196 H 0.60071 0.80001 0.10023 0.0
H197 H 0.62472 0.87272 0.08433 0.0
H198 H 0.69467 0.86515 0.96286 0.0
H199 H 0.67926 0.87091 0.91653 0.0
H200 H 0.65834 0.82053 0.93687 0.0
H201 H 0.58533 0.80729 0.92619 0.0
H202 H 0.60606 0.85763 0.90567 0.0
H203 H 0.57187 0.843 0.94463 0.0
H204 H 0.64931 0.94282 0.05496 0.0
H205 H 0.67784 0.00538 0.01552 0.0
H206 H 0.66819 0.93279 0.91852 0.0
C207 C 0.60664 0.79443 0.0052 0.0
C208 C 0.59932 0.78112 0.04273 0.0
C209 C 0.60594 0.80965 0.07126 0.0
C210 C 0.61943 0.85089 0.06248 0.0
C211 C 0.62667 0.86308 0.02513 0.0
C212 C 0.62084 0.83571 0.99703 0.0
C213 C 0.63352 0.85693 0.95949 0.0
C214 C 0.66853 0.85315 0.94299 0.0
C215 C 0.59701 0.84022 0.9324 0.0
C216 C 0.64764 0.90063 0.9708 0.0
C217 C 0.64286 0.90355 0.00865 0.0
C218 C 0.65334 0.9409 0.02533 0.0
C219 C 0.66944 0.97621 1.00274 0.0
C220 C 0.67558 0.97393 0.96409 0.0
C221 C 0.66433 0.93556 0.94807 0.0
H222 H 0.19058 0.83816 0.99698 0.0
H223 H 0.22143 0.74492 0.02202 0.0
H224 H 0.15128 0.69055 0.00468 0.0
H225 H 0.08598 0.78276 0.02771 0.0
H226 H 0.06775 0.80094 0.98982 0.0
H227 H 0.11928 0.83208 0.00659 0.0
H228 H 0.14618 0.83536 0.93978 0.0
H229 H 0.09475 0.8043 0.92278 0.0
H230 H 0.13122 0.78826 0.91518 0.0
H231 H 0.07766 0.64693 0.98623 0.0
H232 H 0.00776 0.61657 0.9612 0.0
H233 H 0.02681 0.73865 0.94215 0.0
C234 C 0.18225 0.8062 0.99903 0.0
C235 C 0.21076 0.79527 0.01117 0.0
C236 C 0.19959 0.75349 0.0129 0.0
C237 C 0.15995 0.72259 0.00325 0.0
C238 C 0.13239 0.7343 0.99128 0.0
C239 C 0.1432 0.77512 0.98857 0.0
C240 C 0.1087 0.77955 0.97258 0.0
C241 C 0.0946 0.80004 1.00087 0.0
C242 C 0.12095 0.80326 0.93537 0.0
C243 C 0.07669 0.73482 0.96677 0.0
C244 C 0.09078 0.70925 0.97838 0.0
C245 C 0.06641 0.66665 0.97684 0.0
C246 C 0.02672 0.64972 0.96273 0.0
C247 C 0.01206 0.67535 0.94964 0.0
C248 C 0.03743 0.71844 0.95169 0.0
H249 H 0.68623 0.7006 0.53384 0.0
H250 H 0.7452 0.7684 0.63519 0.0
H251 H 0.71804 0.814 0.62323 0.0
H252 H 0.70362 0.79122 0.47894 0.0
H253 H 0.65523 0.76351 0.45509 0.0
H254 H 0.68086 0.73693 0.4704 0.0
H255 H 0.61679 0.68526 0.50726 0.0
H256 H 0.59108 0.71186 0.49237 0.0
H257 H 0.59606 0.70419 0.54145 0.0
H258 H 0.67927 0.84744 0.60483 0.0
H259 H 0.63749 0.87322 0.57614 0.0
H260 H 0.60713 0.78848 0.48386 0.0
C261 C 0.69395 0.72543 0.5532 0.0
C262 C 0.71789 0.73076 0.58552 0.0
C263 C 0.72713 0.76361 0.61017 0.0
C264 C 0.71172 0.78969 0.60373 0.0
C265 C 0.68757 0.78305 0.5722 0.0
C266 C 0.67929 0.75231 0.54689 0.0
C267 C 0.65223 0.75202 0.51532 0.0
C268 C 0.67431 0.76149 0.47771 0.0
C269 C 0.61164 0.71089 0.51405 0.0
C270 C 0.64609 0.78691 0.52735 0.0
C271 C 0.6665 0.80398 0.56047 0.0
C272 C 0.66366 0.83484 0.57859 0.0
C273 C 0.63966 0.84906 0.56224 0.0
C274 C 0.61935 0.83293 0.52781 0.0
C275 C 0.62278 0.80159 0.51001 0.0
H276 H 0.23295 0.80644 0.4812 0.0
H277 H 0.12399 0.80582 0.44467 0.0
H278 H 0.1552 0.87878 0.46256 0.0
H279 H 0.25422 0.86497 0.55904 0.0
H280 H 0.30873 0.89463 0.55396 0.0
H281 H 0.28033 0.8443 0.53367 0.0
H282 H 0.31054 0.87453 0.4688 0.0
H283 H 0.33927 0.92509 0.48902 0.0
H284 H 0.30563 0.91617 0.44993 0.0
H285 H 0.192 0.94577 0.49594 0.0
H286 H 0.23671 0.00679 0.53449 0.0
H287 H 0.32517 0.9675 0.54289 0.0
C288 C 0.21628 0.82216 0.47603 0.0
C289 C 0.17622 0.80085 0.46161 0.0
C290 C 0.15494 0.82196 0.45534 0.0
C291 C 0.17236 0.86328 0.46547 0.0
C292 C 0.21152 0.88323 0.48066 0.0
C293 C 0.23376 0.86379 0.48488 0.0
C294 C 0.27461 0.8918 0.50329 0.0
C295 C 0.27972 0.87278 0.53965 0.0
C296 C 0.30958 0.90253 0.47613 0.0
C297 C 0.27066 0.92892 0.51099 0.0
C298 C 0.23408 0.9234 0.49762 0.0
C299 C 0.22134 0.95117 0.50542 0.0
C300 C 0.24668 0.98549 0.52744 0.0
C301 C 0.28445 0.9919 0.54077 0.0
C302 C 0.29688 0.96369 0.53194 0.0
H303 H 0.01509 0.34112 0.55811 0.0
H304 H 0.97018 0.32401 0.44406 0.0
H305 H 0.03679 0.33748 0.42126 0.0
H306 H 0.11138 0.42569 0.53815 0.0
H307 H 0.13882 0.41278 0.57155 0.0
H308 H 0.08622 0.39644 0.57938 0.0
H309 H 0.06871 0.32074 0.58472 0.0
H310 H 0.12137 0.33688 0.57723 0.0
H311 H 0.08244 0.29845 0.54744 0.0
H312 H 0.1093 0.35657 0.41068 0.0
H313 H 0.18308 0.38223 0.41285 0.0
H314 H 0.1817 0.39054 0.53372 0.0
C315 C 0.01901 0.33906 0.52845 0.0
C316 C 0.9874 0.33078 0.50283 0.0
C317 C 0.994 0.32989 0.4641 0.0
C318 C 0.03166 0.33745 0.45093 0.0
C319 C 0.06255 0.34636 0.47683 0.0
C320 C 0.0567 0.34734 0.51478 0.0
C321 C 0.09589 0.36129 0.53642 0.0
C322 C 0.10883 0.40143 0.55761 0.0
C323 C 0.09185 0.32731 0.56302 0.0
C324 C 0.12469 0.36823 0.50472 0.0
C325 C 0.10478 0.35901 0.47062 0.0
C326 C 0.1252 0.3637 0.43726 0.0
C327 C 0.16714 0.37831 0.43878 0.0
C328 C 0.18833 0.38851 0.47343 0.0
C329 C 0.16655 0.38316 0.50675 0.0
H330 H 0.66344 0.66353 0.9763 0.0
H331 H 0.68308 0.65222 0.0943 0.0
H332 H 0.74084 0.64282 0.07895 0.0
H333 H 0.68617 0.58959 0.94269 0.0
H334 H 0.71243 0.61846 0.90165 0.0
H335 H 0.67312 0.625 0.92187 0.0
H336 H 0.72348 0.70335 0.92767 0.0
H337 H 0.7629 0.69709 0.90723 0.0
H338 H 0.77114 0.7215 0.9521 0.0
H339 H 0.7927 0.62922 0.05041 0.0
H340 H 0.84023 0.61993 0.01112 0.0
H341 H 0.79016 0.64526 0.912 0.0
C342 C 0.68009 0.65933 0.99889 0.0
C343 C 0.66884 0.65849 0.03648 0.0
C344 C 0.69145 0.65323 0.06534 0.0
C345 C 0.72413 0.64768 0.05688 0.0
C346 C 0.73418 0.64822 0.01949 0.0
C347 C 0.7133 0.65461 0.99099 0.0
C348 C 0.73071 0.65455 0.9532 0.0
C349 C 0.6987 0.61983 0.9284 0.0
C350 C 0.74809 0.69663 0.93393 0.0
C351 C 0.76421 0.64639 0.96484 0.0
C352 C 0.76543 0.64245 0.00318 0.0
C353 C 0.79242 0.6328 0.02041 0.0
C354 C 0.81913 0.62738 0.99788 0.0
C355 C 0.81905 0.63225 0.95863 0.0
C356 C 0.79127 0.64198 0.942 0.0
H357 H 0.37417 0.18267 0.02593 0.0
H358 H 0.37056 0.18652 0.90475 0.0
H359 H 0.34722 0.11261 0.90252 0.0
H360 H 0.41325 0.11771 0.03355 0.0
H361 H 0.3836 0.0895 0.0735 0.0
H362 H 0.39575 0.14162 0.06588 0.0
H363 H 0.31909 0.11826 0.06728 0.0
H364 H 0.30668 0.06599 0.07515 0.0
H365 H 0.28413 0.07808 0.0363 0.0
H366 H 0.33333 0.04102 0.91315 0.0
H367 H 0.32466 0.97523 0.93625 0.0
H368 H 0.33391 0.01694 0.05039 0.0
C369 C 0.36776 0.16784 0.99893 0.0
C370 C 0.37418 0.19044 0.96553 0.0
C371 C 0.36558 0.16986 0.93075 0.0
C372 C 0.35236 0.12785 0.92917 0.0
C373 C 0.34728 0.10674 0.9626 0.0
C374 C 0.35412 0.12586 0.99685 0.0
C375 C 0.34817 0.09665 0.02858 0.0
C376 C 0.38754 0.11231 0.05172 0.0
C377 C 0.31238 0.08931 0.05328 0.0
C378 C 0.33821 0.05848 0.00677 0.0
C379 C 0.3378 0.06491 0.96875 0.0
C380 C 0.3327 0.03529 0.94287 0.0
C381 C 0.328 0.99815 0.95621 0.0
C382 C 0.32807 0.9909 0.99506 0.0
C383 C 0.33274 0.02131 0.02056 0.0
H384 H 0.02027 0.31355 0.95942 0.0
H385 H 0.995 0.31011 0.07753 0.0
H386 H 0.92553 0.2508 0.06666 0.0
H387 H 0.92586 0.29174 0.92543 0.0
H388 H 0.92346 0.2595 0.8875 0.0
H389 H 0.97206 0.29912 0.90496 0.0
H390 H 0.99393 0.24543 0.9174 0.0
H391 H 0.94562 0.20567 0.89934 0.0
H392 H 0.96211 0.20074 0.94545 0.0
H393 H 0.85609 0.1982 0.04092 0.0
H394 H 0.79534 0.14931 0.00426 0.0
H395 H 0.86802 0.18422 0.90378 0.0
C396 C 1.00038 0.29966 0.98312 0.0
C397 C 0.01286 0.31614 0.01935 0.0
C398 C 0.9861 0.29746 0.04968 0.0
C399 C 0.94655 0.26404 0.04369 0.0
C400 C 0.93475 0.24932 0.00734 0.0
C401 C 0.96127 0.26592 0.97773 0.0
C402 C 0.94114 0.24496 0.94132 0.0
C403 C 0.94061 0.27567 0.91316 0.0
C404 C 0.96193 0.22288 0.92492 0.0
C405 C 0.89875 0.2146 0.95481 0.0
C406 C 0.89552 0.21782 0.99291 0.0
C407 C 0.8585 0.19487 0.01122 0.0
C408 C 0.82413 0.16746 0.99015 0.0
C409 C 0.82716 0.16281 0.95131 0.0
C410 C 0.86501 0.18672 0.93354 0.0
H411 H 0.33484 0.20239 0.61078 0.0
H412 H 0.38108 0.17343 0.5126 0.0
H413 H 0.37608 0.22697 0.47692 0.0
H414 H 0.26312 0.22083 0.5646 0.0
H415 H 0.27214 0.26313 0.59409 0.0
H416 H 0.28031 0.22328 0.61212 0.0
H417 H 0.35454 0.27762 0.63011 0.0
H418 H 0.34646 0.3177 0.6125 0.0
H419 H 0.38787 0.31277 0.59503 0.0
H420 H 0.36143 0.28079 0.45091 0.0
H421 H 0.34569 0.33587 0.43874 0.0
H422 H 0.31223 0.33104 0.55489 0.0
C423 C 0.3442 0.20748 0.58185 0.0
C424 C 0.35823 0.18367 0.56443 0.0
C425 C 0.37045 0.19149 0.52659 0.0
C426 C 0.36749 0.22165 0.50603 0.0
C427 C 0.35279 0.24406 0.52388 0.0
C428 C 0.34199 0.23778 0.56112 0.0
C429 C 0.32764 0.2663 0.57394 0.0
C430 C 0.28316 0.24192 0.58695 0.0
C431 C 0.35582 0.29532 0.60471 0.0
C432 C 0.33161 0.28931 0.53802 0.0
C433 C 0.34579 0.27585 0.50933 0.0
C434 C 0.35066 0.29184 0.47326 0.0
C435 C 0.34142 0.32288 0.46655 0.0
C436 C 0.32796 0.33783 0.4959 0.0
C437 C 0.32284 0.32053 0.53196 0.0
H438 H 0.77854 0.18578 0.56901 0.0
H439 H 0.80031 0.22824 0.45392 0.0
H440 H 0.74923 0.15884 0.43257 0.0
H441 H 0.76317 0.0856 0.55303 0.0
H442 H 0.72252 0.06004 0.5862 0.0
H443 H 0.76093 0.11317 0.59292 0.0
H444 H 0.70513 0.13278 0.59556 0.0
H445 H 0.6665 0.07969 0.589 0.0
H446 H 0.66902 0.11841 0.5576 0.0
H447 H 0.69954 0.08485 0.42313 0.0
H448 H 0.6482 0.01096 0.42642 0.0
H449 H 0.65409 0.01648 0.5475 0.0
C450 C 0.7724 0.1804 0.53935 0.0
C451 C 0.79341 0.21233 0.51309 0.0
C452 C 0.78439 0.20429 0.47453 0.0
C453 C 0.75558 0.16494 0.46209 0.0
C454 C 0.73557 0.13411 0.48859 0.0
C455 C 0.74304 0.14137 0.52643 0.0
C456 C 0.71636 0.1028 0.54891 0.0
C457 C 0.7423 0.08964 0.5716 0.0
C458 C 0.68754 0.10879 0.57426 0.0
C459 C 0.69321 0.07272 0.51769 0.0
C460 C 0.70518 0.09145 0.48315 0.0
C461 C 0.68956 0.06985 0.44998 0.0
C462 C 0.66064 0.02791 0.45213 0.0
C463 C 0.64723 0.00823 0.48718 0.0
C464 C 0.66361 0.03098 0.52037 0.0
H465 H 0.99528 0.69511 0.46566 0.0
H466 H 0.98693 0.58591 0.51445 0.0
H467 H 0.91763 0.5637 0.53681 0.0
H468 H 0.95243 0.71542 0.54219 0.0
H469 H 0.92618 0.73563 0.51547 0.0
H470 H 0.97146 0.73892 0.49727 0.0
H471 H 0.93187 0.70101 0.43733 0.0
H472 H 0.8863 0.69738 0.45554 0.0
H473 H 0.88596 0.6516 0.44122 0.0
H474 H 0.85164 0.55562 0.55738 0.0
H475 H 0.79807 0.56697 0.58272 0.0
H476 H 0.85204 0.68483 0.52658 0.0
C477 C 0.97829 0.66604 0.48023 0.0
C478 C 0.99573 0.64152 0.48761 0.0
C479 C 0.97352 0.60455 0.50803 0.0
C480 C 0.93419 0.59169 0.52066 0.0
C481 C 0.91783 0.61666 0.51327 0.0
C482 C 0.93942 0.65342 0.49408 0.0
C483 C 0.9173 0.67726 0.4945 0.0
C484 C 0.94339 0.71928 0.5135 0.0
C485 C 0.90461 0.68209 0.45478 0.0
C486 C 0.88051 0.6487 0.51775 0.0
C487 C 0.88079 0.61331 0.52726 0.0
C488 C 0.85083 0.58296 0.54977 0.0
C489 C 0.82045 0.58949 0.56386 0.0
C490 C 0.82077 0.6263 0.55587 0.0
C491 C 0.85079 0.65602 0.53219 0.0
H492 H 0.24157 0.37525 0.32072 0.0
H493 H 0.313 0.50718 0.33742 0.0
H494 H 0.28824 0.51814 0.27705 0.0
H495 H 0.25357 0.37639 0.21891 0.0
H496 H 0.20201 0.33536 0.21098 0.0
H497 H 0.22766 0.33758 0.25422 0.0
H498 H 0.16905 0.33622 0.2912 0.0
H499 H 0.14333 0.3342 0.2481 0.0
H500 H 0.15513 0.37434 0.28141 0.0
H501 H 0.25457 0.51538 0.21668 0.0
H502 H 0.21269 0.49926 0.15972 0.0
H503 H 0.16032 0.36881 0.18159 0.0
C504 C 0.25248 0.40641 0.3113 0.0
C505 C 0.27951 0.44043 0.33362 0.0
C506 C 0.29242 0.48071 0.32076 0.0
C507 C 0.27858 0.48726 0.28647 0.0
C508 C 0.25155 0.45319 0.26538 0.0
C509 C 0.2385 0.41353 0.27718 0.0
C510 C 0.20764 0.38244 0.24983 0.0
C511 C 0.22369 0.35641 0.23246 0.0
C512 C 0.16634 0.3552 0.26877 0.0
C513 C 0.20523 0.4109 0.22106 0.0
C514 C 0.23114 0.45155 0.23058 0.0
C515 C 0.23425 0.48368 0.20884 0.0
C516 C 0.21023 0.47414 0.17649 0.0
C517 C 0.18312 0.43276 0.1661 0.0
C518 C 0.18072 0.40073 0.18876 0.0
H519 H 0.535 0.70986 0.20924 0.0
H520 H 0.6651 0.75731 0.20357 0.0
H521 H 0.67532 0.79544 0.26179 0.0
H522 H 0.54193 0.80159 0.2439 0.0
H523 H 0.49913 0.77582 0.27484 0.0
H524 H 0.50109 0.75037 0.2333 0.0
H525 H 0.49269 0.68918 0.27329 0.0
H526 H 0.49069 0.71446 0.31499 0.0
H527 H 0.52771 0.69853 0.3113 0.0
H528 H 0.67297 0.83154 0.31774 0.0
H529 H 0.65787 0.86284 0.37043 0.0
H530 H 0.52902 0.7916 0.34325 0.0
C531 C 0.56555 0.72801 0.22048 0.0
C532 C 0.59926 0.73051 0.20175 0.0
C533 C 0.63877 0.75478 0.21729 0.0
C534 C 0.64494 0.77659 0.25044 0.0
C535 C 0.6113 0.77375 0.26804 0.0
C536 C 0.57232 0.75 0.25389 0.0
C537 C 0.54178 0.75329 0.27837 0.0
C538 C 0.51968 0.77135 0.25628 0.0
C539 C 0.51142 0.71136 0.2955 0.0
C540 C 0.56989 0.78304 0.30807 0.0
C541 C 0.60983 0.7943 0.30134 0.0
C542 C 0.6418 0.82271 0.32355 0.0
C543 C 0.63289 0.84043 0.35336 0.0
C544 C 0.59229 0.82955 0.36104 0.0
C545 C 0.56028 0.80006 0.33831 0.0
H546 H 0.27188 0.81471 0.18219 0.0
H547 H 0.20571 0.87657 0.15316 0.0
H548 H 0.15757 0.84007 0.20424 0.0
H549 H 0.18543 0.71718 0.20718 0.0
H550 H 0.2104 0.70837 0.24612 0.0
H551 H 0.23984 0.73905 0.20707 0.0
H552 H 0.28497 0.7994 0.25159 0.0
H553 H 0.25593 0.76875 0.29079 0.0
H554 H 0.26136 0.8184 0.28254 0.0
H555 H 0.11514 0.79536 0.25715 0.0
H556 H 0.08536 0.75072 0.31235 0.0
H557 H 0.18015 0.71954 0.3093 0.0
C558 C 0.24735 0.82068 0.1867 0.0
C559 C 0.24257 0.84851 0.16355 0.0
C560 C 0.21015 0.85556 0.17052 0.0
C561 C 0.18247 0.83479 0.19939 0.0
C562 C 0.18771 0.80725 0.22139 0.0
C563 C 0.21963 0.80053 0.21579 0.0
C564 C 0.21892 0.77018 0.24426 0.0
C565 C 0.21331 0.7314 0.22499 0.0
C566 C 0.25759 0.7904 0.26875 0.0
C567 C 0.18156 0.76082 0.26659 0.0
C568 C 0.16381 0.78224 0.25265 0.0
C569 C 0.12886 0.77853 0.26839 0.0
C570 C 0.11202 0.7529 0.29967 0.0
C571 C 0.1303 0.73152 0.3152 0.0
C572 C 0.16535 0.73535 0.29807 0.0
H573 H 0.86411 0.62358 0.82459 0.0
H574 H 0.79364 0.49205 0.8439 0.0
H575 H 0.75302 0.48375 0.78686 0.0
H576 H 0.7794 0.63299 0.79386 0.0
H577 H 0.80829 0.6723 0.75976 0.0
H578 H 0.8332 0.66749 0.80085 0.0
H579 H 0.88451 0.66059 0.75922 0.0
H580 H 0.85969 0.66527 0.71797 0.0
H581 H 0.86578 0.6213 0.72385 0.0
H582 H 0.72106 0.48979 0.72686 0.0
H583 H 0.69606 0.51034 0.67156 0.0
H584 H 0.78425 0.63836 0.69404 0.0
C585 C 0.84033 0.59302 0.81664 0.0
C586 C 0.8322 0.55836 0.8384 0.0
C587 C 0.80036 0.51896 0.82752 0.0
C588 C 0.77725 0.51395 0.79513 0.0
C589 C 0.78598 0.54874 0.77426 0.0
C590 C 0.81643 0.58757 0.78481 0.0
C591 C 0.81824 0.62012 0.7586 0.0
C592 C 0.80924 0.64998 0.77952 0.0
C593 C 0.85951 0.64317 0.73873 0.0
C594 C 0.78419 0.59353 0.73156 0.0
C595 C 0.76629 0.5524 0.74081 0.0
C596 C 0.73468 0.52193 0.71948 0.0
C597 C 0.72076 0.53386 0.68809 0.0
C598 C 0.73803 0.5759 0.67868 0.0
C599 C 0.77023 0.606 0.70072 0.0
H600 H 0.47886 0.28874 0.80918 0.0
H601 H 0.3531 0.22293 0.84531 0.0
H602 H 0.3362 0.171 0.79679 0.0
H603 H 0.45293 0.2712 0.70958 0.0
H604 H 0.4958 0.26589 0.69779 0.0
H605 H 0.49933 0.2976 0.73663 0.0
H606 H 0.51952 0.2557 0.78014 0.0
H607 H 0.51571 0.22365 0.74148 0.0
H608 H 0.48668 0.20072 0.7832 0.0
H609 H 0.33257 0.12477 0.74785 0.0
H610 H 0.33939 0.09015 0.69339 0.0
H611 H 0.46564 0.18732 0.68175 0.0
C612 C 0.44785 0.2634 0.8066 0.0
C613 C 0.4172 0.25976 0.83095 0.0
C614 C 0.37689 0.22647 0.82672 0.0
C615 C 0.36703 0.19662 0.79943 0.0
C616 C 0.39764 0.20083 0.7759 0.0
C617 C 0.43704 0.23366 0.77842 0.0
C618 C 0.46304 0.23143 0.74759 0.0
C619 C 0.47869 0.26875 0.72134 0.0
C620 C 0.49833 0.22765 0.7641 0.0
C621 C 0.43205 0.19201 0.72792 0.0
C622 C 0.39481 0.17484 0.74537 0.0
C623 C 0.3614 0.13811 0.73355 0.0
C624 C 0.36568 0.11866 0.70245 0.0
C625 C 0.40289 0.13619 0.68279 0.0
C626 C 0.43675 0.17325 0.69602 0.0
H627 H 0.73281 0.18712 0.82605 0.0
H628 H 0.75372 0.08457 0.82051 0.0
H629 H 0.79466 0.11408 0.76422 0.0
H630 H 0.72233 0.19442 0.7254 0.0
H631 H 0.74744 0.24972 0.72489 0.0
H632 H 0.72029 0.22144 0.76583 0.0
H633 H 0.78528 0.26386 0.806 0.0
H634 H 0.81267 0.29214 0.76515 0.0
H635 H 0.8317 0.26564 0.79323 0.0
H636 H 0.83513 0.15465 0.71009 0.0
H637 H 0.86841 0.20161 0.65722 0.0
H638 H 0.81922 0.27699 0.69313 0.0
C639 C 0.74602 0.17095 0.81293 0.0
C640 C 0.74026 0.13362 0.82815 0.0
C641 C 0.75778 0.11327 0.80984 0.0
C642 C 0.78122 0.12982 0.77771 0.0
C643 C 0.7866 0.16662 0.76359 0.0
C644 C 0.76918 0.18681 0.78016 0.0
C645 C 0.779 0.22534 0.75808 0.0
C646 C 0.73994 0.22255 0.74263 0.0
C647 C 0.80363 0.26404 0.78205 0.0
C648 C 0.80474 0.22352 0.7268 0.0
C649 C 0.80894 0.18951 0.73096 0.0
C650 C 0.8319 0.18129 0.70637 0.0
C651 C 0.85086 0.20831 0.67646 0.0
C652 C 0.84647 0.243 0.67091 0.0
C653 C 0.82303 0.25065 0.69653 0.0
H654 H 0.08107 0.48311 0.00695 0.0
H655 H 0.01391 0.42636 0.10836 0.0
H656 H 0.95913 0.43836 0.08684 0.0
H657 H 0.05501 0.56214 1.00071 0.0
H658 H 0.05123 0.56041 0.95049 0.0
H659 H 0.08488 0.54699 0.97387 0.0
H660 H 0.04896 0.47645 0.94031 0.0
H661 H 0.01487 0.48948 0.91714 0.0
H662 H 0.9947 0.44318 0.94473 0.0
H663 H 0.9125 0.45786 0.05514 0.0
H664 H 0.87857 0.48637 0.01658 0.0
H665 H 0.97508 0.52886 0.93503 0.0
C666 C 0.05489 0.4733 0.02468 0.0
C667 C 0.05173 0.45381 0.05935 0.0
C668 C 0.01702 0.44146 0.08174 0.0
C669 C 0.98566 0.44796 0.06969 0.0
C670 C 0.98947 0.4668 0.03517 0.0
C671 C 0.0233 0.47955 0.01307 0.0
C672 C 0.02025 0.49988 0.97752 0.0
C673 C 0.05489 0.54502 0.97555 0.0
C674 C 0.01965 0.4758 0.94288 0.0
C675 C 0.97944 0.49664 0.98312 0.0
C676 C 0.9622 0.47742 0.01655 0.0
C677 C 0.92551 0.47264 0.02876 0.0
C678 C 0.90643 0.48883 0.00664 0.0
C679 C 0.92392 0.50927 0.97263 0.0
C680 C 0.96051 0.51249 0.96046 0.0
H681 H 0.50761 0.57777 0.03464 0.0
H682 H 0.56722 0.5546 0.1277 0.0
H683 H 0.55766 0.4926 0.09613 0.0
H684 H 0.43252 0.46931 0.01569 0.0
H685 H 0.43447 0.47702 0.96588 0.0
H686 H 0.44407 0.51842 0.99681 0.0
H687 H 0.51358 0.56472 0.96474 0.0
H688 H 0.50456 0.52319 0.93423 0.0
H689 H 0.54996 0.5478 0.96279 0.0
H690 H 0.54411 0.43478 0.05409 0.0
H691 H 0.5217 0.38071 0.00625 0.0
H692 H 0.47177 0.44119 0.93948 0.0
C693 C 0.5181 0.55931 0.04863 0.0
C694 C 0.53823 0.57112 0.08368 0.0
C695 C 0.55162 0.54619 0.10094 0.0
C696 C 0.54654 0.51099 0.08313 0.0
C697 C 0.52781 0.50096 0.04812 0.0
C698 C 0.51321 0.52394 0.03123 0.0
C699 C 0.49429 0.50626 0.99339 0.0
C700 C 0.44864 0.4919 0.99293 0.0
C701 C 0.51696 0.53735 0.96193 0.0
C702 C 0.50101 0.47007 0.99155 0.0
C703 C 0.52039 0.46767 0.02348 0.0
C704 C 0.52899 0.43636 0.02892 0.0
C705 C 0.51638 0.40594 1.00152 0.0
C706 C 0.4956 0.40713 0.96898 0.0
C707 C 0.48851 0.44007 0.96364 0.0
H708 H 0.41058 0.91635 0.01115 0.0
H709 H 0.43063 0.99647 0.10516 0.0
H710 H 0.49875 0.04628 0.08108 0.0
H711 H 0.51349 0.93603 0.0057 0.0
H712 H 0.51343 0.93477 0.95539 0.0
H713 H 0.46647 0.9053 0.98039 0.0
H714 H 0.4351 0.94134 0.94261 0.0
H715 H 0.48216 0.97132 0.91782 0.0
H716 H 0.46026 0.99664 0.94263 0.0
H717 H 0.56493 0.08731 0.04717 0.0
H718 H 0.62574 0.1152 0.00732 0.0
H719 H 0.56259 0.00972 0.93411 0.0
C720 C 0.4294 0.94422 0.02684 0.0
C721 C 0.41521 0.95239 0.06018 0.0
C722 C 0.44079 0.98939 0.07967 0.0
C723 C 0.47951 0.018 0.06611 0.0
C724 C 0.49229 0.00934 0.03288 0.0
C725 C 0.46813 0.97328 0.01356 0.0
C726 C 0.48929 0.97148 0.97858 0.0
C727 C 0.49608 0.93472 0.98013 0.0
C728 C 0.46527 0.97012 0.94332 0.0
C729 C 0.52926 0.012 0.98143 0.0
C730 C 0.53025 0.03339 0.01293 0.0
C731 C 0.5644 0.07094 0.02232 0.0
C732 C 0.59879 0.08661 0.99943 0.0
C733 C 0.59886 0.06493 0.96737 0.0
C734 C 0.56326 0.02744 0.958 0.0
H735 H 0.48855 0.89926 0.50695 0.0
H736 H 0.53104 0.96275 0.40086 0.0
H737 H 0.5128 0.01362 0.42049 0.0
H738 H 0.40248 0.91689 0.51639 0.0
H739 H 0.40906 0.92378 0.56623 0.0
H740 H 0.42307 0.89079 0.54289 0.0
H741 H 0.49572 0.93278 0.57114 0.0
H742 H 0.48221 0.96635 0.5941 0.0
H743 H 0.52518 0.98745 0.56315 0.0
H744 H 0.49467 0.06032 0.45289 0.0
H745 H 0.47101 0.09613 0.49351 0.0
H746 H 0.43922 0.00253 0.5788 0.0
C747 C 0.49333 0.92342 0.48759 0.0
C748 C 0.51126 0.92694 0.45231 0.0
C749 C 0.51722 0.95922 0.42792 0.0
C750 C 0.50715 0.98844 0.4389 0.0
C751 C 0.4908 0.98487 0.47426 0.0
C752 C 0.48325 0.95285 0.49805 0.0
C753 C 0.4658 0.95657 0.53473 0.0
C754 C 0.42254 0.91983 0.54038 0.0
C755 C 0.49391 0.96106 0.56773 0.0
C756 C 0.46531 0.996 0.52801 0.0
C757 C 0.47996 0.01179 0.49294 0.0
C758 C 0.48288 0.04812 0.48032 0.0
C759 C 0.46956 0.06837 0.50374 0.0
C760 C 0.45338 0.05231 0.53945 0.0
C761 C 0.45173 0.01583 0.55182 0.0
H762 H 0.91235 0.41129 0.51685 0.0
H763 H 0.99928 0.42745 0.60394 0.0
H764 H 0.05186 0.49015 0.57221 0.0
H765 H 0.98407 0.44333 0.4409 0.0
H766 H 0.96144 0.46816 0.41547 0.0
H767 H 0.93054 0.42498 0.44544 0.0
H768 H 0.90721 0.46841 0.47938 0.0
H769 H 0.93962 0.51392 0.45259 0.0
H770 H 0.94363 0.51469 0.50288 0.0
H771 H 0.0953 0.54988 0.53035 0.0
H772 H 0.12535 0.60629 0.4843 0.0
H773 H 0.01063 0.55095 0.4235 0.0
C774 C 0.94233 0.42813 0.52948 0.0
C775 C 0.95163 0.41443 0.56301 0.0
C776 C 0.99131 0.43745 0.57847 0.0
C777 C 0.02148 0.47292 0.56046 0.0
C778 C 0.01157 0.48483 0.5269 0.0
C779 C 0.97293 0.46325 0.51162 0.0
C780 C 0.97025 0.4825 0.47516 0.0
C781 C 0.96103 0.45298 0.4423 0.0
C782 C 0.93835 0.49574 0.47761 0.0
C783 C 0.01321 0.5191 0.47285 0.0
C784 C 0.03665 0.51938 0.50272 0.0
C785 C 0.07726 0.54998 0.50687 0.0
C786 C 0.09411 0.58179 0.48043 0.0
C787 C 0.07045 0.58294 0.45019 0.0
C788 C 0.02966 0.55064 0.446 0.0
H789 H 0.4462 0.48341 0.43777 0.0
H790 H 0.37971 0.50214 0.52549 0.0
H791 H 0.44108 0.53259 0.56547 0.0
H792 H 0.50436 0.45581 0.49752 0.0
H793 H 0.55024 0.48233 0.47044 0.0
H794 H 0.5014 0.46278 0.44796 0.0
H795 H 0.5239 0.53539 0.42198 0.0
H796 H 0.57292 0.5551 0.44418 0.0
H797 H 0.54264 0.57813 0.45374 0.0
H798 H 0.50848 0.55909 0.59674 0.0
H799 H 0.57893 0.58266 0.6167 0.0
H800 H 0.60316 0.54811 0.50888 0.0
C801 C 0.44468 0.49421 0.46528 0.0
C802 C 0.40809 0.49038 0.4785 0.0
C803 C 0.40732 0.50473 0.51472 0.0
C804 C 0.44204 0.52206 0.53769 0.0
C805 C 0.47745 0.52502 0.52403 0.0
C806 C 0.47921 0.51177 0.48863 0.0
C807 C 0.52122 0.51848 0.48098 0.0
C808 C 0.51917 0.4774 0.47381 0.0
C809 C 0.54135 0.54857 0.44828 0.0
C810 C 0.54264 0.53733 0.51771 0.0
C811 C 0.5167 0.54071 0.5421 0.0
C812 C 0.52913 0.55674 0.57785 0.0
C813 C 0.56924 0.56995 0.58897 0.0
C814 C 0.59662 0.56722 0.56441 0.0
C815 C 0.58298 0.5506 0.5283 0.0
loop_
_geom_bond_atom_site_label_1
_geom_bond_atom_site_label_2
_geom_bond_distance
_geom_bond_site_symmetry_2
_ccdc_geom_bond_type
Co0 O1 2.216 . S
Co0 O2 2.091 . S
Co0 O4 2.004 . S
Co0 O10 2.021 . S
Co0 O12 2.137 . S
Co0 O13 2.244 . S
O1 Co0 2.216 . S
O1 C8 1.247 . S
O2 Co0 2.091 . S
O2 C8 1.261 . S
C3 O12 1.247 . S
C3 O13 1.272 . S
O4 Co0 2.004 . S
O4 C9 1.259 . S
Co5 O6 2.061 1_556 S
Co5 O11 2.052 1_556 S
Co5 O13 2.135 1_556 S
O6 Co5 2.061 1_554 S
O6 C9 1.235 . S
C7 O10 1.238 . S
C7 O11 1.241 . S
C8 O1 1.247 . S
C8 O2 1.261 . S
C9 O4 1.259 . S
C9 O6 1.235 . S
O10 Co0 2.021 . S
O10 C7 1.238 . S
O11 Co5 2.052 1_554 S
O11 C7 1.241 . S
O12 Co0 2.137 . S
O12 C3 1.247 . S
O13 Co0 2.244 . S
O13 C3 1.272 . S
O13 Co5 2.135 1_554 S
Co14 O15 2.216 . S
Co14 O16 2.091 . S
Co14 O18 2.004 . S
Co14 O24 2.021 . S
Co14 O26 2.137 . S
Co14 O27 2.244 . S
O15 Co14 2.216 . S
O15 C22 1.247 . S
O16 Co14 2.091 . S
O16 C22 1.261 . S
C17 O26 1.247 . S
C17 O27 1.272 . S
O18 Co14 2.004 . S
O18 C23 1.259 . S
Co19 O20 2.061 1_556 S
Co19 O25 2.052 1_556 S
Co19 O27 2.135 1_556 S
O20 Co19 2.061 1_554 S
O20 C23 1.235 . S
C21 O24 1.238 . S
C21 O25 1.241 . S
C22 O15 1.247 . S
C22 O16 1.261 . S
C23 O18 1.259 . S
C23 O20 1.235 . S
O24 Co14 2.021 . S
O24 C21 1.238 . S
O25 Co19 2.052 1_554 S
O25 C21 1.241 . S
O26 Co14 2.137 . S
O26 C17 1.247 . S
O27 Co14 2.244 . S
O27 C17 1.272 . S
O27 Co19 2.135 1_554 S
Co28 O29 2.216 . S
Co28 O30 2.091 . S
Co28 O32 2.004 . S
Co28 O38 2.021 . S
Co28 O40 2.137 . S
Co28 O41 2.244 . S
O29 Co28 2.216 . S
O29 C36 1.247 . S
O30 Co28 2.091 . S
O30 C36 1.261 . S
C31 O40 1.247 . S
C31 O41 1.272 . S
O32 Co28 2.004 . S
O32 C37 1.259 . S
Co33 O34 2.061 1_556 S
Co33 O39 2.052 1_556 S
Co33 O41 2.135 1_556 S
O34 Co33 2.061 1_554 S
O34 C37 1.235 . S
C35 O38 1.238 . S
C35 O39 1.241 . S
C36 O29 1.247 . S
C36 O30 1.261 . S
C37 O32 1.259 . S
C37 O34 1.235 . S
O38 Co28 2.021 . S
O38 C35 1.238 . S
O39 Co33 2.052 1_554 S
O39 C35 1.241 . S
O40 Co28 2.137 . S
O40 C31 1.247 . S
O41 Co28 2.244 . S
O41 C31 1.272 . S
O41 Co33 2.135 1_554 S
Co42 O43 2.216 . S
Co42 O44 2.091 . S
Co42 O46 2.004 . S
Co42 O52 2.021 . S
Co42 O54 2.137 . S
Co42 O55 2.244 . S
O43 Co42 2.216 . S
O43 C50 1.247 . S
O44 Co42 2.091 . S
O44 C50 1.261 . S
C45 O54 1.247 . S
C45 O55 1.272 . S
O46 Co42 2.004 . S
O46 C51 1.259 . S
Co47 O48 2.061 . S
Co47 O53 2.052 . S
Co47 O55 2.135 . S
O48 Co47 2.061 . S
O48 C51 1.235 . S
C49 O52 1.238 . S
C49 O53 1.241 . S
C50 O43 1.247 . S
C50 O44 1.261 . S
C51 O46 1.259 . S
C51 O48 1.235 . S
O52 Co42 2.021 . S
O52 C49 1.238 . S
O53 Co47 2.052 . S
O53 C49 1.241 . S
O54 Co42 2.137 . S
O54 C45 1.247 . S
O55 Co42 2.244 . S
O55 C45 1.272 . S
O55 Co47 2.135 . S
Co56 O57 2.216 . S
Co56 O58 2.091 . S
Co56 O60 2.004 . S
Co56 O66 2.021 . S
Co56 O68 2.137 . S
Co56 O69 2.244 . S
O57 Co56 2.216 . S
O57 C64 1.247 . S
O58 Co56 2.091 . S
O58 C64 1.261 . S
C59 O68 1.247 . S
C59 O69 1.272 . S
O60 Co56 2.004 . S
O60 C65 1.259 . S
Co61 O62 2.061 . S
Co61 O67 2.052 . S
Co61 O69 2.135 . S
O62 Co61 2.061 . S
O62 C65 1.235 . S
C63 O66 1.238 . S
C63 O67 1.241 . S
C64 O57 1.247 . S
C64 O58 1.261 . S
C65 O60 1.259 . S
C65 O62 1.235 . S
O66 Co56 2.021 . S
O66 C63 1.238 . S
O67 Co61 2.052 . S
O67 C63 1.241 . S
O68 Co56 2.137 . S
O68 C59 1.247 . S
O69 Co56 2.244 . S
O69 C59 1.272 . S
O69 Co61 2.135 . S
Co70 O71 2.216 . S
Co70 O72 2.091 . S
Co70 O74 2.004 . S
Co70 O80 2.021 . S
Co70 O82 2.137 . S
Co70 O83 2.244 . S
O71 Co70 2.216 . S
O71 C78 1.247 . S
O72 Co70 2.091 . S
O72 C78 1.261 . S
C73 O82 1.247 . S
C73 O83 1.272 . S
O74 Co70 2.004 . S
O74 C79 1.259 . S
Co75 O76 2.061 . S
Co75 O81 2.052 . S
Co75 O83 2.135 . S
O76 Co75 2.061 . S
O76 C79 1.235 . S
C77 O80 1.238 . S
C77 O81 1.241 . S
C78 O71 1.247 . S
C78 O72 1.261 . S
C79 O74 1.259 . S
C79 O76 1.235 . S
O80 Co70 2.021 . S
O80 C77 1.238 . S
O81 Co75 2.052 . S
O81 C77 1.241 . S
O82 Co70 2.137 . S
O82 C73 1.247 . S
O83 Co70 2.244 . S
O83 C73 1.272 . S
O83 Co75 2.135 . S
Co84 O85 2.216 . S
Co84 O86 2.091 . S
Co84 O88 2.004 . S
Co84 O94 2.021 . S
Co84 O96 2.137 . S
Co84 O97 2.244 . S
O85 Co84 2.216 . S
O85 C92 1.247 . S
O86 Co84 2.091 . S
O86 C92 1.261 . S
C87 O96 1.247 . S
C87 O97 1.272 . S
O88 Co84 2.004 . S
O88 C93 1.259 . S
Co89 O90 2.061 . S
Co89 O95 2.052 . S
Co89 O97 2.135 . S
O90 Co89 2.061 . S
O90 C93 1.235 . S
C91 O94 1.238 . S
C91 O95 1.241 . S
C92 O85 1.247 . S
C92 O86 1.261 . S
C93 O88 1.259 . S
C93 O90 1.235 . S
O94 Co84 2.021 . S
O94 C91 1.238 . S
O95 Co89 2.052 . S
O95 C91 1.241 . S
O96 Co84 2.137 . S
O96 C87 1.247 . S
O97 Co84 2.244 . S
O97 C87 1.272 . S
O97 Co89 2.135 . S
Co98 O99 2.216 . S
Co98 O100 2.091 . S
Co98 O102 2.004 . S
Co98 O108 2.021 . S
Co98 O110 2.137 . S
Co98 O111 2.244 . S
O99 Co98 2.216 . S
O99 C106 1.247 . S
O100 Co98 2.091 . S
O100 C106 1.261 . S
C101 O110 1.247 . S
C101 O111 1.272 . S
O102 Co98 2.004 . S
O102 C107 1.259 . S
Co103 O104 2.061 1_554 S
Co103 O109 2.052 1_554 S
Co103 O111 2.135 1_554 S
O104 Co103 2.061 1_556 S
O104 C107 1.235 . S
C105 O108 1.238 . S
C105 O109 1.241 . S
C106 O99 1.247 . S
C106 O100 1.261 . S
C107 O102 1.259 . S
C107 O104 1.235 . S
O108 Co98 2.021 . S
O108 C105 1.238 . S
O109 Co103 2.052 1_556 S
O109 C105 1.241 . S
O110 Co98 2.137 . S
O110 C101 1.247 . S
O111 Co98 2.244 . S
O111 C101 1.272 . S
O111 Co103 2.135 1_556 S
Co112 O113 2.216 . S
Co112 O114 2.091 . S
Co112 O116 2.004 . S
Co112 O122 2.021 . S
Co112 O124 2.137 . S
Co112 O125 2.244 . S
O113 Co112 2.216 . S
O113 C120 1.247 . S
O114 Co112 2.091 . S
O114 C120 1.261 . S
C115 O124 1.247 . S
C115 O125 1.272 . S
O116 Co112 2.004 . S
O116 C121 1.259 . S
Co117 O118 2.061 . S
Co117 O123 2.052 . S
Co117 O125 2.135 . S
O118 Co117 2.061 . S
O118 C121 1.235 . S
C119 O122 1.238 . S
C119 O123 1.241 . S
C120 O113 1.247 . S
C120 O114 1.261 . S
C121 O116 1.259 . S
C121 O118 1.235 . S
O122 Co112 2.021 . S
O122 C119 1.238 . S
O123 Co117 2.052 . S
O123 C119 1.241 . S
O124 Co112 2.137 . S
O124 C115 1.247 . S
O125 Co112 2.244 . S
O125 C115 1.272 . S
O125 Co117 2.135 . S
Co126 O127 2.216 . S
Co126 O128 2.091 . S
Co126 O130 2.004 . S
Co126 O136 2.021 . S
Co126 O138 2.137 . S
Co126 O139 2.244 . S
O127 Co126 2.216 . S
O127 C134 1.247 . S
O128 Co126 2.091 . S
O128 C134 1.261 . S
C129 O138 1.247 . S
C129 O139 1.272 . S
O130 Co126 2.004 . S
O130 C135 1.259 . S
Co131 O132 2.061 . S
Co131 O137 2.052 . S
Co131 O139 2.135 . S
O132 Co131 2.061 . S
O132 C135 1.235 . S
C133 O136 1.238 . S
C133 O137 1.241 . S
C134 O127 1.247 . S
C134 O128 1.261 . S
C135 O130 1.259 . S
C135 O132 1.235 . S
O136 Co126 2.021 . S
O136 C133 1.238 . S
O137 Co131 2.052 . S
O137 C133 1.241 . S
O138 Co126 2.137 . S
O138 C129 1.247 . S
O139 Co126 2.244 . S
O139 C129 1.272 . S
O139 Co131 2.135 . S
Co140 O141 2.216 . S
Co140 O142 2.091 . S
Co140 O144 2.004 . S
Co140 O150 2.021 . S
Co140 O152 2.137 . S
Co140 O153 2.244 . S
O141 Co140 2.216 . S
O141 C148 1.247 . S
O142 Co140 2.091 . S
O142 C148 1.261 . S
C143 O152 1.247 . S
C143 O153 1.272 . S
O144 Co140 2.004 . S
O144 C149 1.259 . S
Co145 O146 2.061 . S
Co145 O151 2.052 . S
Co145 O153 2.135 . S
O146 Co145 2.061 . S
O146 C149 1.235 . S
C147 O150 1.238 . S
C147 O151 1.241 . S
C148 O141 1.247 . S
C148 O142 1.261 . S
C149 O144 1.259 . S
C149 O146 1.235 . S
O150 Co140 2.021 . S
O150 C147 1.238 . S
O151 Co145 2.052 . S
O151 C147 1.241 . S
O152 Co140 2.137 . S
O152 C143 1.247 . S
O153 Co140 2.244 . S
O153 C143 1.272 . S
O153 Co145 2.135 . S
Co154 O155 2.216 . S
Co154 O156 2.091 . S
Co154 O158 2.004 . S
Co154 O164 2.021 . S
Co154 O166 2.137 . S
Co154 O167 2.244 . S
O155 Co154 2.216 . S
O155 C162 1.247 . S
O156 Co154 2.091 . S
O156 C162 1.261 . S
C157 O166 1.247 . S
C157 O167 1.272 . S
O158 Co154 2.004 . S
O158 C163 1.259 . S
Co159 O160 2.061 . S
Co159 O165 2.052 . S
Co159 O167 2.135 . S
O160 Co159 2.061 . S
O160 C163 1.235 . S
C161 O164 1.238 . S
C161 O165 1.241 . S
C162 O155 1.247 . S
C162 O156 1.261 . S
C163 O158 1.259 . S
C163 O160 1.235 . S
O164 Co154 2.021 . S
O164 C161 1.238 . S
O165 Co159 2.052 . S
O165 C161 1.241 . S
O166 Co154 2.137 . S
O166 C157 1.247 . S
O167 Co154 2.244 . S
O167 C157 1.272 . S
O167 Co159 2.135 . S
H168 C180 0.930 . S
H169 C182 0.930 . S
H170 C183 0.930 . S
H171 C187 0.959 . S
H172 C187 0.959 . S
H173 C187 0.961 . S
H174 C188 0.960 . S
H175 C188 0.961 . S
H176 C188 0.959 1_556 S
H177 C191 0.929 . S
H178 C192 0.931 . S
H179 C194 0.930 1_554 S
C180 H168 0.930 . S
C180 C181 1.399 . S
C180 C185 1.399 . S
C181 C180 1.399 . S
C181 C182 1.376 1_554 S
C182 H169 0.930 . S
C182 C181 1.376 1_556 S
C182 C183 1.388 . S
C183 H170 0.930 . S
C183 C182 1.388 . S
C183 C184 1.390 . S
C184 C183 1.390 . S
C184 C185 1.394 1_556 S
C184 C190 1.465 . S
C185 C180 1.399 . S
C185 C184 1.394 1_554 S
C185 C186 1.516 . S
C186 C185 1.516 . S
C186 C187 1.502 . S
C186 C188 1.561 . S
C186 C189 1.526 1_554 S
C187 H171 0.959 . S
C187 H172 0.959 . S
C187 H173 0.961 . S
C187 C186 1.502 . S
C188 H174 0.960 . S
C188 H175 0.961 . S
C188 H176 0.959 1_554 S
C188 C186 1.561 . S
C189 C186 1.526 1_556 S
C189 C190 1.396 . S
C189 C194 1.390 . S
C190 C184 1.465 . S
C190 C189 1.396 . S
C190 C191 1.399 . S
C191 H177 0.929 . S
C191 C190 1.399 . S
C191 C192 1.385 . S
C192 H178 0.931 . S
C192 C191 1.385 . S
C192 C193 1.389 . S
C193 C192 1.389 . S
C193 C194 1.387 . S
C194 H179 0.930 1_556 S
C194 C189 1.390 . S
C194 C193 1.387 . S
H195 C207 0.930 . S
H196 C209 0.930 . S
H197 C210 0.930 . S
H198 C214 0.959 . S
H199 C214 0.959 . S
H200 C214 0.961 . S
H201 C215 0.960 . S
H202 C215 0.961 . S
H203 C215 0.959 . S
H204 C218 0.929 . S
H205 C219 0.934 1_545 S
H206 C221 0.930 . S
C207 H195 0.930 . S
C207 C208 1.399 1_556 S
C207 C212 1.399 . S
C208 C207 1.399 1_554 S
C208 C209 1.376 . S
C209 H196 0.930 . S
C209 C208 1.376 . S
C209 C210 1.388 . S
C210 H197 0.930 . S
C210 C209 1.388 . S
C210 C211 1.390 . S
C211 C210 1.390 . S
C211 C212 1.394 1_554 S
C211 C217 1.465 . S
C212 C207 1.399 . S
C212 C211 1.394 1_556 S
C212 C213 1.516 . S
C213 C212 1.516 . S
C213 C214 1.502 . S
C213 C215 1.561 . S
C213 C216 1.526 . S
C214 H198 0.959 . S
C214 H199 0.959 . S
C214 H200 0.961 . S
C214 C213 1.502 . S
C215 H201 0.960 . S
C215 H202 0.961 . S
C215 H203 0.959 . S
C215 C213 1.561 . S
C216 C213 1.526 . S
C216 C217 1.396 1_556 S
C216 C221 1.390 . S
C217 C211 1.465 . S
C217 C216 1.396 1_554 S
C217 C218 1.399 . S
C218 H204 0.929 . S
C218 C217 1.399 . S
C218 C219 1.389 . S
C219 H205 0.934 1_565 S
C219 C218 1.389 . S
C219 C220 1.382 1_554 S
C220 C219 1.382 1_556 S
C220 C221 1.387 . S
C221 H206 0.930 . S
C221 C216 1.390 . S
C221 C220 1.387 . S
H222 C234 0.930 . S
H223 C236 0.930 . S
H224 C237 0.930 . S
H225 C241 0.959 . S
H226 C241 0.959 . S
H227 C241 0.961 . S
H228 C242 0.960 . S
H229 C242 0.961 . S
H230 C242 0.959 . S
H231 C245 0.929 . S
H232 C246 0.931 . S
H233 C248 0.930 . S
C234 H222 0.930 . S
C234 C235 1.399 . S
C234 C239 1.399 . S
C235 C234 1.399 . S
C235 C236 1.376 . S
C236 H223 0.930 . S
C236 C235 1.376 . S
C236 C237 1.388 1_554 S
C237 H224 0.930 . S
C237 C236 1.388 1_556 S
C237 C238 1.390 . S
C238 C237 1.390 . S
C238 C239 1.394 1_556 S
C238 C244 1.465 . S
C239 C234 1.399 . S
C239 C238 1.394 1_554 S
C239 C240 1.516 1_554 S
C240 C239 1.516 1_556 S
C240 C241 1.502 1_556 S
C240 C242 1.561 . S
C240 C243 1.526 . S
C241 H225 0.959 . S
C241 H226 0.959 . S
C241 H227 0.961 . S
C241 C240 1.502 1_554 S
C242 H228 0.960 . S
C242 H229 0.961 . S
C242 H230 0.959 . S
C242 C240 1.561 . S
C243 C240 1.526 . S
C243 C244 1.396 . S
C243 C248 1.390 . S
C244 C238 1.465 . S
C244 C243 1.396 . S
C244 C245 1.399 . S
C245 H231 0.929 . S
C245 C244 1.399 . S
C245 C246 1.385 . S
C246 H232 0.931 . S
C246 C245 1.385 . S
C246 C247 1.389 . S
C247 C246 1.389 . S
C247 C248 1.387 . S
C248 H233 0.930 . S
C248 C243 1.390 . S
C248 C247 1.387 . S
H249 C261 0.930 . S
H250 C263 0.930 . S
H251 C264 0.930 . S
H252 C268 0.959 . S
H253 C268 0.959 . S
H254 C268 0.961 . S
H255 C269 0.960 . S
H256 C269 0.961 . S
H257 C269 0.959 . S
H258 C272 0.929 . S
H259 C273 0.931 . S
H260 C275 0.930 . S
C261 H249 0.930 . S
C261 C262 1.399 . S
C261 C266 1.399 . S
C262 C261 1.399 . S
C262 C263 1.376 . S
C263 H250 0.930 . S
C263 C262 1.376 . S
C263 C264 1.388 . S
C264 H251 0.930 . S
C264 C263 1.388 . S
C264 C265 1.390 . S
C265 C264 1.390 . S
C265 C266 1.394 . S
C265 C271 1.465 . S
C266 C261 1.399 . S
C266 C265 1.394 . S
C266 C267 1.516 . S
C267 C266 1.516 . S
C267 C268 1.502 . S
C267 C269 1.561 . S
C267 C270 1.526 . S
C268 H252 0.959 . S
C268 H253 0.959 . S
C268 H254 0.961 . S
C268 C267 1.502 . S
C269 H255 0.960 . S
C269 H256 0.961 . S
C269 H257 0.959 . S
C269 C267 1.561 . S
C270 C267 1.526 . S
C270 C271 1.396 . S
C270 C275 1.390 . S
C271 C265 1.465 . S
C271 C270 1.396 . S
C271 C272 1.399 . S
C272 H258 0.929 . S
C272 C271 1.399 . S
C272 C273 1.385 . S
C273 H259 0.931 . S
C273 C272 1.385 . S
C273 C274 1.389 . S
C274 C273 1.389 . S
C274 C275 1.387 . S
C275 H260 0.930 . S
C275 C270 1.390 . S
C275 C274 1.387 . S
H276 C288 0.930 . S
H277 C290 0.930 . S
H278 C291 0.930 . S
H279 C295 0.959 . S
H280 C295 0.959 . S
H281 C295 0.961 . S
H282 C296 0.960 . S
H283 C296 0.961 . S
H284 C296 0.959 . S
H285 C299 0.929 . S
H286 C300 0.931 . S
H287 C302 0.930 . S
C288 H276 0.930 . S
C288 C289 1.399 . S
C288 C293 1.399 . S
C289 C288 1.399 . S
C289 C290 1.376 . S
C290 H277 0.930 . S
C290 C289 1.376 . S
C290 C291 1.388 . S
C291 H278 0.930 . S
C291 C290 1.388 . S
C291 C292 1.390 . S
C292 C291 1.390 . S
C292 C293 1.394 . S
C292 C298 1.465 . S
C293 C288 1.399 . S
C293 C292 1.394 . S
C293 C294 1.516 . S
C294 C293 1.516 . S
C294 C295 1.502 . S
C294 C296 1.561 . S
C294 C297 1.526 . S
C295 H279 0.959 . S
C295 H280 0.959 . S
C295 H281 0.961 . S
C295 C294 1.502 . S
C296 H282 0.960 . S
C296 H283 0.961 . S
C296 H284 0.959 . S
C296 C294 1.561 . S
C297 C294 1.526 . S
C297 C298 1.396 . S
C297 C302 1.390 . S
C298 C292 1.465 . S
C298 C297 1.396 . S
C298 C299 1.399 . S
C299 H285 0.929 . S
C299 C298 1.399 . S
C299 C300 1.385 . S
C300 H286 0.931 . S
C300 C299 1.385 . S
C300 C301 1.389 . S
C301 C300 1.389 . S
C301 C302 1.387 . S
C302 H287 0.930 . S
C302 C297 1.390 . S
C302 C301 1.387 . S
H303 C315 0.930 . S
H304 C317 0.930 1_655 S
H305 C318 0.930 . S
H306 C322 0.959 . S
H307 C322 0.959 . S
H308 C322 0.961 . S
H309 C323 0.960 . S
H310 C323 0.961 . S
H311 C323 0.959 . S
H312 C326 0.929 . S
H313 C327 0.931 . S
H314 C329 0.930 . S
C315 H303 0.930 . S
C315 C316 1.399 . S
C315 C320 1.399 . S
C316 C315 1.399 . S
C316 C317 1.376 . S
C317 H304 0.930 1_455 S
C317 C316 1.376 . S
C317 C318 1.388 . S
C318 H305 0.930 . S
C318 C317 1.388 . S
C318 C319 1.390 . S
C319 C318 1.390 . S
C319 C320 1.394 . S
C319 C325 1.465 . S
C320 C315 1.399 . S
C320 C319 1.394 . S
C320 C321 1.516 . S
C321 C320 1.516 . S
C321 C322 1.502 . S
C321 C323 1.561 . S
C321 C324 1.526 . S
C322 H306 0.959 . S
C322 H307 0.959 . S
C322 H308 0.961 . S
C322 C321 1.502 . S
C323 H309 0.960 . S
C323 H310 0.961 . S
C323 H311 0.959 . S
C323 C321 1.561 . S
C324 C321 1.526 . S
C324 C325 1.396 . S
C324 C329 1.390 . S
C325 C319 1.465 . S
C325 C324 1.396 . S
C325 C326 1.399 . S
C326 H312 0.929 . S
C326 C325 1.399 . S
C326 C327 1.385 . S
C327 H313 0.931 . S
C327 C326 1.385 . S
C327 C328 1.389 . S
C328 C327 1.389 . S
C328 C329 1.387 . S
C329 H314 0.930 . S
C329 C324 1.390 . S
C329 C328 1.387 . S
H330 C342 0.930 . S
H331 C344 0.930 . S
H332 C345 0.930 . S
H333 C349 0.959 . S
H334 C349 0.959 . S
H335 C349 0.961 . S
H336 C350 0.960 . S
H337 C350 0.961 . S
H338 C350 0.959 . S
H339 C353 0.929 . S
H340 C354 0.931 . S
H341 C356 0.930 . S
C342 H330 0.930 . S
C342 C343 1.399 . S
C342 C347 1.399 . S
C343 C342 1.399 . S
C343 C344 1.376 . S
C344 H331 0.930 . S
C344 C343 1.376 . S
C344 C345 1.388 . S
C345 H332 0.930 . S
C345 C344 1.388 . S
C345 C346 1.390 . S
C346 C345 1.390 . S
C346 C347 1.394 . S
C346 C352 1.465 1_554 S
C347 C342 1.399 . S
C347 C346 1.394 . S
C347 C348 1.516 1_554 S
C348 C347 1.516 1_556 S
C348 C349 1.502 . S
C348 C350 1.561 1_556 S
C348 C351 1.526 . S
C349 H333 0.959 . S
C349 H334 0.959 . S
C349 H335 0.961 . S
C349 C348 1.502 . S
C350 H336 0.960 . S
C350 H337 0.961 . S
C350 H338 0.959 . S
C350 C348 1.561 1_554 S
C351 C348 1.526 . S
C351 C352 1.396 . S
C351 C356 1.390 . S
C352 C346 1.465 1_556 S
C352 C351 1.396 . S
C352 C353 1.399 . S
C353 H339 0.929 . S
C353 C352 1.399 . S
C353 C354 1.385 . S
C354 H340 0.931 . S
C354 C353 1.385 . S
C354 C355 1.389 . S
C355 C354 1.389 . S
C355 C356 1.387 . S
C356 H341 0.930 . S
C356 C351 1.390 . S
C356 C355 1.387 . S
H357 C369 0.930 . S
H358 C371 0.930 . S
H359 C372 0.930 . S
H360 C376 0.959 . S
H361 C376 0.959 . S
H362 C376 0.961 . S
H363 C377 0.960 . S
H364 C377 0.961 . S
H365 C377 0.959 . S
H366 C380 0.929 . S
H367 C381 0.931 . S
H368 C383 0.930 . S
C369 H357 0.930 . S
C369 C370 1.399 . S
C369 C374 1.399 . S
C370 C369 1.399 . S
C370 C371 1.376 . S
C371 H358 0.930 . S
C371 C370 1.376 . S
C371 C372 1.388 . S
C372 H359 0.930 . S
C372 C371 1.388 . S
C372 C373 1.390 . S
C373 C372 1.390 . S
C373 C374 1.394 . S
C373 C379 1.465 . S
C374 C369 1.399 . S
C374 C373 1.394 . S
C374 C375 1.516 1_556 S
C375 C374 1.516 1_554 S
C375 C376 1.502 . S
C375 C377 1.561 1_554 S
C375 C378 1.526 . S
C376 H360 0.959 . S
C376 H361 0.959 . S
C376 H362 0.961 . S
C376 C375 1.502 . S
C377 H363 0.960 . S
C377 H364 0.961 . S
C377 H365 0.959 . S
C377 C375 1.561 1_556 S
C378 C375 1.526 . S
C378 C379 1.396 1_554 S
C378 C383 1.390 . S
C379 C373 1.465 . S
C379 C378 1.396 1_556 S
C379 C380 1.399 . S
C380 H366 0.929 . S
C380 C379 1.399 . S
C380 C381 1.385 1_556 S
C381 H367 0.931 . S
C381 C380 1.385 1_554 S
C381 C382 1.389 . S
C382 C381 1.389 . S
C382 C383 1.387 . S
C383 H368 0.930 . S
C383 C378 1.390 . S
C383 C382 1.387 . S
H384 C396 0.930 . S
H385 C398 0.930 . S
H386 C399 0.930 . S
H387 C403 0.959 . S
H388 C403 0.959 . S
H389 C403 0.961 . S
H390 C404 0.960 . S
H391 C404 0.961 . S
H392 C404 0.959 . S
H393 C407 0.929 . S
H394 C408 0.931 . S
H395 C410 0.930 . S
C396 H384 0.930 . S
C396 C397 1.399 1_556 S
C396 C401 1.399 . S
C397 C396 1.399 1_554 S
C397 C398 1.376 . S
C398 H385 0.930 . S
C398 C397 1.376 . S
C398 C399 1.388 . S
C399 H386 0.930 . S
C399 C398 1.388 . S
C399 C400 1.390 . S
C400 C399 1.390 . S
C400 C401 1.394 1_554 S
C400 C406 1.465 . S
C401 C396 1.399 . S
C401 C400 1.394 1_556 S
C401 C402 1.516 . S
C402 C401 1.516 . S
C402 C403 1.502 . S
C402 C404 1.561 . S
C402 C405 1.526 . S
C403 H387 0.959 . S
C403 H388 0.959 . S
C403 H389 0.961 . S
C403 C402 1.502 . S
C404 H390 0.960 . S
C404 H391 0.961 . S
C404 H392 0.959 . S
C404 C402 1.561 . S
C405 C402 1.526 . S
C405 C406 1.396 1_556 S
C405 C410 1.390 . S
C406 C400 1.465 . S
C406 C405 1.396 1_554 S
C406 C407 1.399 . S
C407 H393 0.929 . S
C407 C406 1.399 . S
C407 C408 1.385 . S
C408 H394 0.931 . S
C408 C407 1.385 . S
C408 C409 1.389 1_554 S
C409 C408 1.389 1_556 S
C409 C410 1.387 . S
C410 H395 0.930 . S
C410 C405 1.390 . S
C410 C409 1.387 . S
H411 C423 0.930 . S
H412 C425 0.930 . S
H413 C426 0.930 . S
H414 C430 0.959 . S
H415 C430 0.959 . S
H416 C430 0.961 . S
H417 C431 0.960 . S
H418 C431 0.961 . S
H419 C431 0.959 . S
H420 C434 0.929 . S
H421 C435 0.931 . S
H422 C437 0.930 . S
C423 H411 0.930 . S
C423 C424 1.399 . S
C423 C428 1.399 . S
C424 C423 1.399 . S
C424 C425 1.376 . S
C425 H412 0.930 . S
C425 C424 1.376 . S
C425 C426 1.388 . S
C426 H413 0.930 . S
C426 C425 1.388 . S
C426 C427 1.390 . S
C427 C426 1.390 . S
C427 C428 1.394 . S
C427 C433 1.465 . S
C428 C423 1.399 . S
C428 C427 1.394 . S
C428 C429 1.516 . S
C429 C428 1.516 . S
C429 C430 1.502 . S
C429 C431 1.561 . S
C429 C432 1.526 . S
C430 H414 0.959 . S
C430 H415 0.959 . S
C430 H416 0.961 . S
C430 C429 1.502 . S
C431 H417 0.960 . S
C431 H418 0.961 . S
C431 H419 0.959 . S
C431 C429 1.561 . S
C432 C429 1.526 . S
C432 C433 1.396 . S
C432 C437 1.390 . S
C433 C427 1.465 . S
C433 C432 1.396 . S
C433 C434 1.399 . S
C434 H420 0.929 . S
C434 C433 1.399 . S
C434 C435 1.385 . S
C435 H421 0.931 . S
C435 C434 1.385 . S
C435 C436 1.389 . S
C436 C435 1.389 . S
C436 C437 1.387 . S
C437 H422 0.930 . S
C437 C432 1.390 . S
C437 C436 1.387 . S
H438 C450 0.930 . S
H439 C452 0.930 . S
H440 C453 0.930 . S
H441 C457 0.959 . S
H442 C457 0.959 . S
H443 C457 0.961 . S
H444 C458 0.960 . S
H445 C458 0.961 . S
H446 C458 0.959 . S
H447 C461 0.929 . S
H448 C462 0.931 . S
H449 C464 0.930 . S
C450 H438 0.930 . S
C450 C451 1.399 . S
C450 C455 1.399 . S
C451 C450 1.399 . S
C451 C452 1.376 . S
C452 H439 0.930 . S
C452 C451 1.376 . S
C452 C453 1.388 . S
C453 H440 0.930 . S
C453 C452 1.388 . S
C453 C454 1.390 . S
C454 C453 1.390 . S
C454 C455 1.394 . S
C454 C460 1.465 . S
C455 C450 1.399 . S
C455 C454 1.394 . S
C455 C456 1.516 . S
C456 C455 1.516 . S
C456 C457 1.502 . S
C456 C458 1.561 . S
C456 C459 1.526 . S
C457 H441 0.959 . S
C457 H442 0.959 . S
C457 H443 0.961 . S
C457 C456 1.502 . S
C458 H444 0.960 . S
C458 H445 0.961 . S
C458 H446 0.959 . S
C458 C456 1.561 . S
C459 C456 1.526 . S
C459 C460 1.396 . S
C459 C464 1.390 . S
C460 C454 1.465 . S
C460 C459 1.396 . S
C460 C461 1.399 . S
C461 H447 0.929 . S
C461 C460 1.399 . S
C461 C462 1.385 . S
C462 H448 0.931 . S
C462 C461 1.385 . S
C462 C463 1.389 . S
C463 C462 1.389 . S
C463 C464 1.387 . S
C464 H449 0.930 . S
C464 C459 1.390 . S
C464 C463 1.387 . S
H465 C477 0.930 . S
H466 C479 0.930 1_455 S
H467 C480 0.930 . S
H468 C484 0.959 . S
H469 C484 0.959 . S
H470 C484 0.961 . S
H471 C485 0.960 . S
H472 C485 0.961 . S
H473 C485 0.959 . S
H474 C488 0.929 . S
H475 C489 0.931 . S
H476 C491 0.930 . S
C477 H465 0.930 . S
C477 C478 1.399 . S
C477 C482 1.399 . S
C478 C477 1.399 . S
C478 C479 1.376 . S
C479 H466 0.930 1_655 S
C479 C478 1.376 . S
C479 C480 1.388 . S
C480 H467 0.930 . S
C480 C479 1.388 . S
C480 C481 1.390 . S
C481 C480 1.390 . S
C481 C482 1.394 . S
C481 C487 1.465 . S
C482 C477 1.399 . S
C482 C481 1.394 . S
C482 C483 1.516 . S
C483 C482 1.516 . S
C483 C484 1.502 . S
C483 C485 1.561 . S
C483 C486 1.526 . S
C484 H468 0.959 . S
C484 H469 0.959 . S
C484 H470 0.961 . S
C484 C483 1.502 . S
C485 H471 0.960 . S
C485 H472 0.961 . S
C485 H473 0.959 . S
C485 C483 1.561 . S
C486 C483 1.526 . S
C486 C487 1.396 . S
C486 C491 1.390 . S
C487 C481 1.465 . S
C487 C486 1.396 . S
C487 C488 1.399 . S
C488 H474 0.929 . S
C488 C487 1.399 . S
C488 C489 1.385 . S
C489 H475 0.931 . S
C489 C488 1.385 . S
C489 C490 1.389 . S
C490 C489 1.389 . S
C490 C491 1.387 . S
C491 H476 0.930 . S
C491 C486 1.390 . S
C491 C490 1.387 . S
H492 C504 0.930 . S
H493 C506 0.930 . S
H494 C507 0.930 . S
H495 C511 0.959 . S
H496 C511 0.959 . S
H497 C511 0.961 . S
H498 C512 0.960 . S
H499 C512 0.961 . S
H500 C512 0.959 . S
H501 C515 0.929 . S
H502 C516 0.931 . S
H503 C518 0.930 . S
C504 H492 0.930 . S
C504 C505 1.399 . S
C504 C509 1.399 . S
C505 C504 1.399 . S
C505 C506 1.376 . S
C506 H493 0.930 . S
C506 C505 1.376 . S
C506 C507 1.388 . S
C507 H494 0.930 . S
C507 C506 1.388 . S
C507 C508 1.390 . S
C508 C507 1.390 . S
C508 C509 1.394 . S
C508 C514 1.465 . S
C509 C504 1.399 . S
C509 C508 1.394 . S
C509 C510 1.516 . S
C510 C509 1.516 . S
C510 C511 1.502 . S
C510 C512 1.561 . S
C510 C513 1.526 . S
C511 H495 0.959 . S
C511 H496 0.959 . S
C511 H497 0.961 . S
C511 C510 1.502 . S
C512 H498 0.960 . S
C512 H499 0.961 . S
C512 H500 0.959 . S
C512 C510 1.561 . S
C513 C510 1.526 . S
C513 C514 1.396 . S
C513 C518 1.390 . S
C514 C508 1.465 . S
C514 C513 1.396 . S
C514 C515 1.399 . S
C515 H501 0.929 . S
C515 C514 1.399 . S
C515 C516 1.385 . S
C516 H502 0.931 . S
C516 C515 1.385 . S
C516 C517 1.389 . S
C517 C516 1.389 . S
C517 C518 1.387 . S
C518 H503 0.930 . S
C518 C513 1.390 . S
C518 C517 1.387 . S
H519 C531 0.930 . S
H520 C533 0.930 . S
H521 C534 0.930 . S
H522 C538 0.959 . S
H523 C538 0.959 . S
H524 C538 0.961 . S
H525 C539 0.960 . S
H526 C539 0.961 . S
H527 C539 0.959 . S
H528 C542 0.929 . S
H529 C543 0.931 . S
H530 C545 0.930 . S
C531 H519 0.930 . S
C531 C532 1.399 . S
C531 C536 1.399 . S
C532 C531 1.399 . S
C532 C533 1.376 . S
C533 H520 0.930 . S
C533 C532 1.376 . S
C533 C534 1.388 . S
C534 H521 0.930 . S
C534 C533 1.388 . S
C534 C535 1.390 . S
C535 C534 1.390 . S
C535 C536 1.394 . S
C535 C541 1.465 . S
C536 C531 1.399 . S
C536 C535 1.394 . S
C536 C537 1.516 . S
C537 C536 1.516 . S
C537 C538 1.502 . S
C537 C539 1.561 . S
C537 C540 1.526 . S
C538 H522 0.959 . S
C538 H523 0.959 . S
C538 H524 0.961 . S
C538 C537 1.502 . S
C539 H525 0.960 . S
C539 H526 0.961 . S
C539 H527 0.959 . S
C539 C537 1.561 . S
C540 C537 1.526 . S
C540 C541 1.396 . S
C540 C545 1.390 . S
C541 C535 1.465 . S
C541 C540 1.396 . S
C541 C542 1.399 . S
C542 H528 0.929 . S
C542 C541 1.399 . S
C542 C543 1.385 . S
C543 H529 0.931 . S
C543 C542 1.385 . S
C543 C544 1.389 . S
C544 C543 1.389 . S
C544 C545 1.387 . S
C545 H530 0.930 . S
C545 C540 1.390 . S
C545 C544 1.387 . S
H546 C558 0.930 . S
H547 C560 0.930 . S
H548 C561 0.930 . S
H549 C565 0.959 . S
H550 C565 0.959 . S
H551 C565 0.961 . S
H552 C566 0.960 . S
H553 C566 0.961 . S
H554 C566 0.959 . S
H555 C569 0.929 . S
H556 C570 0.931 . S
H557 C572 0.930 . S
C558 H546 0.930 . S
C558 C559 1.399 . S
C558 C563 1.399 . S
C559 C558 1.399 . S
C559 C560 1.376 . S
C560 H547 0.930 . S
C560 C559 1.376 . S
C560 C561 1.388 . S
C561 H548 0.930 . S
C561 C560 1.388 . S
C561 C562 1.390 . S
C562 C561 1.390 . S
C562 C563 1.394 . S
C562 C568 1.465 . S
C563 C558 1.399 . S
C563 C562 1.394 . S
C563 C564 1.516 . S
C564 C563 1.516 . S
C564 C565 1.502 . S
C564 C566 1.561 . S
C564 C567 1.526 . S
C565 H549 0.959 . S
C565 H550 0.959 . S
C565 H551 0.961 . S
C565 C564 1.502 . S
C566 H552 0.960 . S
C566 H553 0.961 . S
C566 H554 0.959 . S
C566 C564 1.561 . S
C567 C564 1.526 . S
C567 C568 1.396 . S
C567 C572 1.390 . S
C568 C562 1.465 . S
C568 C567 1.396 . S
C568 C569 1.399 . S
C569 H555 0.929 . S
C569 C568 1.399 . S
C569 C570 1.385 . S
C570 H556 0.931 . S
C570 C569 1.385 . S
C570 C571 1.389 . S
C571 C570 1.389 . S
C571 C572 1.387 . S
C572 H557 0.930 . S
C572 C567 1.390 . S
C572 C571 1.387 . S
H573 C585 0.930 . S
H574 C587 0.930 . S
H575 C588 0.930 . S
H576 C592 0.959 . S
H577 C592 0.959 . S
H578 C592 0.961 . S
H579 C593 0.960 . S
H580 C593 0.961 . S
H581 C593 0.959 . S
H582 C596 0.929 . S
H583 C597 0.931 . S
H584 C599 0.930 . S
C585 H573 0.930 . S
C585 C586 1.399 . S
C585 C590 1.399 . S
C586 C585 1.399 . S
C586 C587 1.376 . S
C587 H574 0.930 . S
C587 C586 1.376 . S
C587 C588 1.388 . S
C588 H575 0.930 . S
C588 C587 1.388 . S
C588 C589 1.390 . S
C589 C588 1.390 . S
C589 C590 1.394 . S
C589 C595 1.465 . S
C590 C585 1.399 . S
C590 C589 1.394 . S
C590 C591 1.516 . S
C591 C590 1.516 . S
C591 C592 1.502 . S
C591 C593 1.561 . S
C591 C594 1.526 . S
C592 H576 0.959 . S
C592 H577 0.959 . S
C592 H578 0.961 . S
C592 C591 1.502 . S
C593 H579 0.960 . S
C593 H580 0.961 . S
C593 H581 0.959 . S
C593 C591 1.561 . S
C594 C591 1.526 . S
C594 C595 1.396 . S
C594 C599 1.390 . S
C595 C589 1.465 . S
C595 C594 1.396 . S
C595 C596 1.399 . S
C596 H582 0.929 . S
C596 C595 1.399 . S
C596 C597 1.385 . S
C597 H583 0.931 . S
C597 C596 1.385 . S
C597 C598 1.389 . S
C598 C597 1.389 . S
C598 C599 1.387 . S
C599 H584 0.930 . S
C599 C594 1.390 . S
C599 C598 1.387 . S
H600 C612 0.930 . S
H601 C614 0.930 . S
H602 C615 0.930 . S
H603 C619 0.959 . S
H604 C619 0.959 . S
H605 C619 0.961 . S
H606 C620 0.960 . S
H607 C620 0.961 . S
H608 C620 0.959 . S
H609 C623 0.929 . S
H610 C624 0.931 . S
H611 C626 0.930 . S
C612 H600 0.930 . S
C612 C613 1.399 . S
C612 C617 1.399 . S
C613 C612 1.399 . S
C613 C614 1.376 . S
C614 H601 0.930 . S
C614 C613 1.376 . S
C614 C615 1.388 . S
C615 H602 0.930 . S
C615 C614 1.388 . S
C615 C616 1.390 . S
C616 C615 1.390 . S
C616 C617 1.394 . S
C616 C622 1.465 . S
C617 C612 1.399 . S
C617 C616 1.394 . S
C617 C618 1.516 . S
C618 C617 1.516 . S
C618 C619 1.502 . S
C618 C620 1.561 . S
C618 C621 1.526 . S
C619 H603 0.959 . S
C619 H604 0.959 . S
C619 H605 0.961 . S
C619 C618 1.502 . S
C620 H606 0.960 . S
C620 H607 0.961 . S
C620 H608 0.959 . S
C620 C618 1.561 . S
C621 C618 1.526 . S
C621 C622 1.396 . S
C621 C626 1.390 . S
C622 C616 1.465 . S
C622 C621 1.396 . S
C622 C623 1.399 . S
C623 H609 0.929 . S
C623 C622 1.399 . S
C623 C624 1.385 . S
C624 H610 0.931 . S
C624 C623 1.385 . S
C624 C625 1.389 . S
C625 C624 1.389 . S
C625 C626 1.387 . S
C626 H611 0.930 . S
C626 C621 1.390 . S
C626 C625 1.387 . S
H627 C639 0.930 . S
H628 C641 0.930 . S
H629 C642 0.930 . S
H630 C646 0.959 . S
H631 C646 0.959 . S
H632 C646 0.961 . S
H633 C647 0.960 . S
H634 C647 0.961 . S
H635 C647 0.959 . S
H636 C650 0.929 . S
H637 C651 0.931 . S
H638 C653 0.930 . S
C639 H627 0.930 . S
C639 C640 1.399 . S
C639 C644 1.399 . S
C640 C639 1.399 . S
C640 C641 1.376 . S
C641 H628 0.930 . S
C641 C640 1.376 . S
C641 C642 1.388 . S
C642 H629 0.930 . S
C642 C641 1.388 . S
C642 C643 1.390 . S
C643 C642 1.390 . S
C643 C644 1.394 . S
C643 C649 1.465 . S
C644 C639 1.399 . S
C644 C643 1.394 . S
C644 C645 1.516 . S
C645 C644 1.516 . S
C645 C646 1.502 . S
C645 C647 1.561 . S
C645 C648 1.526 . S
C646 H630 0.959 . S
C646 H631 0.959 . S
C646 H632 0.961 . S
C646 C645 1.502 . S
C647 H633 0.960 . S
C647 H634 0.961 . S
C647 H635 0.959 . S
C647 C645 1.561 . S
C648 C645 1.526 . S
C648 C649 1.396 . S
C648 C653 1.390 . S
C649 C643 1.465 . S
C649 C648 1.396 . S
C649 C650 1.399 . S
C650 H636 0.929 . S
C650 C649 1.399 . S
C650 C651 1.385 . S
C651 H637 0.931 . S
C651 C650 1.385 . S
C651 C652 1.389 . S
C652 C651 1.389 . S
C652 C653 1.387 . S
C653 H638 0.930 . S
C653 C648 1.390 . S
C653 C652 1.387 . S
H654 C666 0.930 . S
H655 C668 0.930 . S
H656 C669 0.930 . S
H657 C673 0.959 1_455 S
H658 C673 0.959 . S
H659 C673 0.961 . S
H660 C674 0.960 . S
H661 C674 0.961 . S
H662 C674 0.959 1_554 S
H663 C677 0.929 . S
H664 C678 0.931 . S
H665 C680 0.930 . S
C666 H654 0.930 . S
C666 C667 1.399 . S
C666 C671 1.399 . S
C667 C666 1.399 . S
C667 C668 1.376 . S
C668 H655 0.930 . S
C668 C667 1.376 . S
C668 C669 1.388 . S
C669 H656 0.930 . S
C669 C668 1.388 . S
C669 C670 1.390 . S
C670 C669 1.390 . S
C670 C671 1.394 . S
C670 C676 1.465 1_554 S
C671 C666 1.399 . S
C671 C670 1.394 . S
C671 C672 1.516 1_454 S
C672 C671 1.516 1_656 S
C672 C673 1.502 . S
C672 C674 1.561 . S
C672 C675 1.526 . S
C673 H657 0.959 1_655 S
C673 H658 0.959 . S
C673 H659 0.961 . S
C673 C672 1.502 . S
C674 H660 0.960 . S
C674 H661 0.961 . S
C674 H662 0.959 1_556 S
C674 C672 1.561 . S
C675 C672 1.526 . S
C675 C676 1.396 1_655 S
C675 C680 1.390 . S
C676 C670 1.465 1_556 S
C676 C675 1.396 1_455 S
C676 C677 1.399 1_556 S
C677 H663 0.929 . S
C677 C676 1.399 1_554 S
C677 C678 1.385 1_454 S
C678 H664 0.931 . S
C678 C677 1.385 1_656 S
C678 C679 1.389 . S
C679 C678 1.389 . S
C679 C680 1.387 . S
C680 H665 0.930 . S
C680 C675 1.390 . S
C680 C679 1.387 . S
H681 C693 0.930 1_556 S
H682 C695 0.930 . S
H683 C696 0.930 . S
H684 C700 0.959 . S
H685 C700 0.959 . S
H686 C700 0.961 . S
H687 C701 0.960 . S
H688 C701 0.961 . S
H689 C701 0.959 . S
H690 C704 0.929 . S
H691 C705 0.931 . S
H692 C707 0.930 . S
C693 H681 0.930 1_554 S
C693 C694 1.399 . S
C693 C698 1.399 1_554 S
C694 C693 1.399 . S
C694 C695 1.376 . S
C695 H682 0.930 . S
C695 C694 1.376 . S
C695 C696 1.388 . S
C696 H683 0.930 . S
C696 C695 1.388 . S
C696 C697 1.390 . S
C697 C696 1.390 . S
C697 C698 1.394 1_554 S
C697 C703 1.480 . S
C698 C693 1.399 1_556 S
C698 C697 1.394 1_556 S
C698 C699 1.516 . S
C699 C698 1.516 . S
C699 C700 1.502 . S
C699 C701 1.561 . S
C699 C702 1.526 . S
C700 H684 0.959 . S
C700 H685 0.959 . S
C700 H686 0.961 . S
C700 C699 1.502 . S
C701 H687 0.960 . S
C701 H688 0.961 . S
C701 H689 0.959 . S
C701 C699 1.561 . S
C702 C699 1.526 . S
C702 C703 1.367 1_556 S
C702 C707 1.390 . S
C703 C697 1.480 . S
C703 C702 1.367 1_554 S
C703 C704 1.409 . S
C704 H690 0.929 . S
C704 C703 1.409 . S
C704 C705 1.385 1_554 S
C705 H691 0.931 . S
C705 C704 1.385 1_556 S
C705 C706 1.389 . S
C706 C705 1.389 . S
C706 C707 1.387 . S
C707 H692 0.930 . S
C707 C702 1.390 . S
C707 C706 1.387 . S
H708 C720 0.930 . S
H709 C722 0.930 . S
H710 C723 0.930 1_556 S
H711 C727 0.959 . S
H712 C727 0.959 . S
H713 C727 0.961 . S
H714 C728 0.960 . S
H715 C728 0.961 . S
H716 C728 0.959 . S
H717 C731 0.929 . S
H718 C732 0.931 . S
H719 C734 0.930 1_565 S
C720 H708 0.930 . S
C720 C721 1.399 . S
C720 C725 1.399 . S
C721 C720 1.399 . S
C721 C722 1.376 . S
C722 H709 0.930 . S
C722 C721 1.376 . S
C722 C723 1.388 1_565 S
C723 H710 0.930 1_554 S
C723 C722 1.388 1_545 S
C723 C724 1.390 1_554 S
C724 C723 1.390 1_556 S
C724 C725 1.394 1_546 S
C724 C730 1.465 . S
C725 C720 1.399 . S
C725 C724 1.394 1_564 S
C725 C726 1.516 . S
C726 C725 1.516 . S
C726 C727 1.502 . S
C726 C728 1.561 1_554 S
C726 C729 1.526 1_554 S
C727 H711 0.959 . S
C727 H712 0.959 . S
C727 H713 0.961 . S
C727 C726 1.502 . S
C728 H714 0.960 . S
C728 H715 0.961 . S
C728 H716 0.959 . S
C728 C726 1.561 1_556 S
C729 C726 1.526 1_556 S
C729 C730 1.396 1_565 S
C729 C734 1.390 1_565 S
C730 C724 1.465 . S
C730 C729 1.396 1_545 S
C730 C731 1.399 . S
C731 H717 0.929 . S
C731 C730 1.399 . S
C731 C732 1.385 . S
C732 H718 0.931 . S
C732 C731 1.385 . S
C732 C733 1.389 . S
C733 C732 1.389 . S
C733 C734 1.387 . S
C734 H719 0.930 1_545 S
C734 C729 1.390 1_545 S
C734 C733 1.387 . S
H735 C747 0.930 . S
H736 C749 0.930 1_545 S
H737 C750 0.930 . S
H738 C754 0.959 . S
H739 C754 0.959 . S
H740 C754 0.961 . S
H741 C755 0.960 . S
H742 C755 0.961 . S
H743 C755 0.959 . S
H744 C758 0.929 . S
H745 C759 0.931 . S
H746 C761 0.930 1_565 S
C747 H735 0.930 . S
C747 C748 1.399 . S
C747 C752 1.399 . S
C748 C747 1.399 . S
C748 C749 1.376 . S
C749 H736 0.930 1_565 S
C749 C748 1.376 . S
C749 C750 1.388 1_565 S
C750 H737 0.930 . S
C750 C749 1.388 1_545 S
C750 C751 1.390 . S
C751 C750 1.390 . S
C751 C752 1.394 1_545 S
C751 C757 1.465 . S
C752 C747 1.399 . S
C752 C751 1.394 1_565 S
C752 C753 1.516 . S
C753 C752 1.516 . S
C753 C754 1.502 . S
C753 C755 1.561 . S
C753 C756 1.526 . S
C754 H738 0.959 . S
C754 H739 0.959 . S
C754 H740 0.961 . S
C754 C753 1.502 . S
C755 H741 0.960 . S
C755 H742 0.961 . S
C755 H743 0.959 . S
C755 C753 1.561 . S
C756 C753 1.526 . S
C756 C757 1.396 1_565 S
C756 C761 1.390 1_565 S
C757 C751 1.465 . S
C757 C756 1.396 1_545 S
C757 C758 1.399 . S
C758 H744 0.929 . S
C758 C757 1.399 . S
C758 C759 1.385 . S
C759 H745 0.931 . S
C759 C758 1.385 . S
C759 C760 1.389 . S
C760 C759 1.389 . S
C760 C761 1.387 . S
C761 H746 0.930 1_545 S
C761 C756 1.390 1_545 S
C761 C760 1.387 . S
H762 C774 0.930 . S
H763 C776 0.924 1_455 S
H764 C777 0.930 . S
H765 C781 0.959 . S
H766 C781 0.959 . S
H767 C781 0.961 . S
H768 C782 0.960 . S
H769 C782 0.961 . S
H770 C782 0.959 . S
H771 C785 0.929 . S
H772 C786 0.931 . S
H773 C788 0.930 1_655 S
C774 H762 0.930 . S
C774 C775 1.399 . S
C774 C779 1.399 . S
C775 C774 1.399 . S
C775 C776 1.384 . S
C776 H763 0.924 1_655 S
C776 C775 1.384 . S
C776 C777 1.387 1_655 S
C777 H764 0.930 . S
C777 C776 1.387 1_455 S
C777 C778 1.390 . S
C778 C777 1.390 . S
C778 C779 1.394 1_455 S
C778 C784 1.465 . S
C779 C774 1.399 . S
C779 C778 1.394 1_655 S
C779 C780 1.516 . S
C780 C779 1.516 . S
C780 C781 1.502 . S
C780 C782 1.561 . S
C780 C783 1.518 1_655 S
C781 H765 0.959 . S
C781 H766 0.959 . S
C781 H767 0.961 . S
C781 C780 1.502 . S
C782 H768 0.960 . S
C782 H769 0.961 . S
C782 H770 0.959 . S
C782 C780 1.561 . S
C783 C780 1.518 1_455 S
C783 C784 1.408 . S
C783 C788 1.387 . S
C784 C778 1.465 . S
C784 C783 1.408 . S
C784 C785 1.399 . S
C785 H771 0.929 . S
C785 C784 1.399 . S
C785 C786 1.385 . S
C786 H772 0.931 . S
C786 C785 1.385 . S
C786 C787 1.389 . S
C787 C786 1.389 . S
C787 C788 1.387 . S
C788 H773 0.930 1_455 S
C788 C783 1.387 . S
C788 C787 1.387 . S
H789 C801 0.930 . S
H790 C803 0.930 . S
H791 C804 0.930 . S
H792 C808 0.959 . S
H793 C808 0.959 . S
H794 C808 0.961 . S
H795 C809 0.960 . S
H796 C809 0.961 . S
H797 C809 0.959 . S
H798 C812 0.929 . S
H799 C813 0.931 . S
H800 C815 0.930 . S
C801 H789 0.930 . S
C801 C802 1.399 . S
C801 C806 1.399 . S
C802 C801 1.399 . S
C802 C803 1.376 . S
C803 H790 0.930 . S
C803 C802 1.376 . S
C803 C804 1.388 . S
C804 H791 0.930 . S
C804 C803 1.388 . S
C804 C805 1.390 . S
C805 C804 1.390 . S
C805 C806 1.394 . S
C805 C811 1.465 . S
C806 C801 1.399 . S
C806 C805 1.394 . S
C806 C807 1.516 . S
C807 C806 1.516 . S
C807 C808 1.502 . S
C807 C809 1.561 . S
C807 C810 1.526 . S
C808 H792 0.959 . S
C808 H793 0.959 . S
C808 H794 0.961 . S
C808 C807 1.502 . S
C809 H795 0.960 . S
C809 H796 0.961 . S
C809 H797 0.959 . S
C809 C807 1.561 . S
C810 C807 1.526 . S
C810 C811 1.396 . S
C810 C815 1.390 . S
C811 C805 1.465 . S
C811 C810 1.396 . S
C811 C812 1.399 . S
C812 H798 0.929 . S
C812 C811 1.399 . S
C812 C813 1.385 . S
C813 H799 0.931 . S
C813 C812 1.385 . S
C813 C814 1.389 . S
C814 C813 1.389 . S
C814 C815 1.387 . S
C815 H800 0.930 . S
C815 C810 1.390 . S
C815 C814 1.387 . S
C181 C7 0.773 . S
C193 C107 0.824 . S
C208 C21 0.812 . S
C220 C119 0.819 1_565 S
C235 C35 0.758 . S
C247 C91 0.798 1_455 S
C262 C161 0.766 . S
C274 C49 0.739 . S
C289 C63 0.750 . S
C301 C133 0.760 1_565 S
C316 C149 0.800 1_455 S
C328 C77 0.837 . S
C343 C23 0.782 . S
C355 C93 0.825 . S
C370 C105 0.778 . S
C382 C37 0.706 1_545 S
C397 C9 0.809 1_655 S
C409 C121 0.818 . S
C424 C135 0.727 . S
C436 C79 0.738 . S
C451 C147 0.737 . S
C463 C51 0.751 1_545 S
C478 C65 0.757 1_655 S
C490 C163 0.746 . S
C505 C78 1.568 . S
C517 C8 1.588 . S
C532 C22 1.608 . S
C544 C50 1.600 . S
C559 C36 1.596 . S
C571 C64 1.616 . S
C586 C87 1.614 . S
C598 C157 1.568 . S
C613 C106 1.568 . S
C625 C129 1.582 . S
C640 C115 1.584 . S
C652 C148 1.568 . S
C667 C3 1.648 . S
C679 C92 1.598 . S
C694 C17 1.644 . S
C706 C101 1.651 . S
C721 C31 1.623 . S
C733 C120 1.672 . S
C748 C45 1.632 . S
C760 C134 1.648 . S
C775 C143 1.644 . S
C787 C59 1.666 . S
C802 C73 1.613 . S
C814 C162 1.653 . S
