# Generated by pormake.
# Topology uoz, (4)-cn, num edge types: 1
# Building blocks:
#     Node 0, Type 0, BuildingBlock: AZAVOO_clean_sbu_0, # of connection points: 4
#     Node 1, Type 0, BuildingBlock: AZAVOO_clean_sbu_0, # of connection points: 4
#     Node 2, Type 0, BuildingBlock: AZAVOO_clean_sbu_0, # of connection points: 4
#     Node 3, Type 0, BuildingBlock: AZAVOO_clean_sbu_0, # of connection points: 4
#     Node 4, Type 0, BuildingBlock: AZAVOO_clean_sbu_0, # of connection points: 4
#     Node 5, Type 0, BuildingBlock: AZAVOO_clean_sbu_0, # of connection points: 4
#     Node 6, Type 0, BuildingBlock: AZAVOO_clean_sbu_0, # of connection points: 4
#     Node 7, Type 0, BuildingBlock: AZAVOO_clean_sbu_0, # of connection points: 4
#     Node 8, Type 0, BuildingBlock: AZAVOO_clean_sbu_0, # of connection points: 4
#     Node 9, Type 0, BuildingBlock: AZAVOO_clean_sbu_0, # of connection points: 4
#     Node 10, Type 0, BuildingBlock: AZAVOO_clean_sbu_0, # of connection points: 4
#     Node 11, Type 0, BuildingBlock: AZAVOO_clean_sbu_0, # of connection points: 4
#     Node 12, Type 0, BuildingBlock: AZAVOO_clean_sbu_0, # of connection points: 4
#     Node 13, Type 0, BuildingBlock: AZAVOO_clean_sbu_0, # of connection points: 4
#     Node 14, Type 0, BuildingBlock: AZAVOO_clean_sbu_0, # of connection points: 4
#     Node 15, Type 0, BuildingBlock: AZAVOO_clean_sbu_0, # of connection points: 4
#     Edge 16, Type (0, 0), BuildingBlock: XUDNAN_clean_linker_2, # of connection points: 2
#     Edge 17, Type (0, 0), BuildingBlock: XUDNAN_clean_linker_2, # of connection points: 2
#     Edge 18, Type (0, 0), BuildingBlock: XUDNAN_clean_linker_2, # of connection points: 2
#     Edge 19, Type (0, 0), BuildingBlock: XUDNAN_clean_linker_2, # of connection points: 2
#     Edge 20, Type (0, 0), BuildingBlock: XUDNAN_clean_linker_2, # of connection points: 2
#     Edge 21, Type (0, 0), BuildingBlock: XUDNAN_clean_linker_2, # of connection points: 2
#     Edge 22, Type (0, 0), BuildingBlock: XUDNAN_clean_linker_2, # of connection points: 2
#     Edge 23, Type (0, 0), BuildingBlock: XUDNAN_clean_linker_2, # of connection points: 2
#     Edge 24, Type (0, 0), BuildingBlock: XUDNAN_clean_linker_2, # of connection points: 2
#     Edge 25, Type (0, 0), BuildingBlock: XUDNAN_clean_linker_2, # of connection points: 2
#     Edge 26, Type (0, 0), BuildingBlock: XUDNAN_clean_linker_2, # of connection points: 2
#     Edge 27, Type (0, 0), BuildingBlock: XUDNAN_clean_linker_2, # of connection points: 2
#     Edge 28, Type (0, 0), BuildingBlock: XUDNAN_clean_linker_2, # of connection points: 2
#     Edge 29, Type (0, 0), BuildingBlock: XUDNAN_clean_linker_2, # of connection points: 2
#     Edge 30, Type (0, 0), BuildingBlock: XUDNAN_clean_linker_2, # of connection points: 2
#     Edge 31, Type (0, 0), BuildingBlock: XUDNAN_clean_linker_2, # of connection points: 2
#     Edge 32, Type (0, 0), BuildingBlock: XUDNAN_clean_linker_2, # of connection points: 2
#     Edge 33, Type (0, 0), BuildingBlock: XUDNAN_clean_linker_2, # of connection points: 2
#     Edge 34, Type (0, 0), BuildingBlock: XUDNAN_clean_linker_2, # of connection points: 2
#     Edge 35, Type (0, 0), BuildingBlock: XUDNAN_clean_linker_2, # of connection points: 2
#     Edge 36, Type (0, 0), BuildingBlock: XUDNAN_clean_linker_2, # of connection points: 2
#     Edge 37, Type (0, 0), BuildingBlock: XUDNAN_clean_linker_2, # of connection points: 2
#     Edge 38, Type (0, 0), BuildingBlock: XUDNAN_clean_linker_2, # of connection points: 2
#     Edge 39, Type (0, 0), BuildingBlock: XUDNAN_clean_linker_2, # of connection points: 2
#     Edge 40, Type (0, 0), BuildingBlock: XUDNAN_clean_linker_2, # of connection points: 2
#     Edge 41, Type (0, 0), BuildingBlock: XUDNAN_clean_linker_2, # of connection points: 2
#     Edge 42, Type (0, 0), BuildingBlock: XUDNAN_clean_linker_2, # of connection points: 2
#     Edge 43, Type (0, 0), BuildingBlock: XUDNAN_clean_linker_2, # of connection points: 2
#     Edge 44, Type (0, 0), BuildingBlock: XUDNAN_clean_linker_2, # of connection points: 2
#     Edge 45, Type (0, 0), BuildingBlock: XUDNAN_clean_linker_2, # of connection points: 2
#     Edge 46, Type (0, 0), BuildingBlock: XUDNAN_clean_linker_2, # of connection points: 2
#     Edge 47, Type (0, 0), BuildingBlock: XUDNAN_clean_linker_2, # of connection points: 2
# Relax obj value: 0.114
# Max RMSD: 0.104
# Mean RMSD: 0.104
data_MOF--net-uoz--node1-AZAVOO_clean_sbu_0--edge1-XUDNAN_clean_linker_2
_symmetry_space_group_name_H-M    P1
_symmetry_Int_Tables_number       1
_symmetry_cell_setting            triclinic
loop_
_symmetry_equiv_pos_as_xyz
'x, y, z'
_cell_length_a     59.340996
_cell_length_b     59.366244
_cell_length_c     22.665367
_cell_angle_alpha  90.03039
_cell_angle_beta   90.001836
_cell_angle_gamma 90.037815
loop_
_atom_site_label
_atom_site_type_symbol
_atom_site_fract_x
_atom_site_fract_y
_atom_site_fract_z
_atom_type_partial_charge
Mg0 Mg 0.0204 0.59388 0.34192 0.0
O1 O 0.01312 0.56448 0.27833 0.0
O2 O 0.00628 0.57898 0.18895 0.0
Mg3 Mg 0.00993 0.61692 0.19409 0.0
C4 C 0.00813 0.5622 0.22377 0.0
C5 C 0.02053 0.55299 0.42607 0.0
O6 O 0.00189 0.54968 0.39601 0.0
O7 O 0.05567 0.59765 0.30242 0.0
O8 O 0.04737 0.6116 0.21334 0.0
O9 O 0.98373 0.59722 0.36133 0.0
O10 O 0.00103 0.6147 0.28809 0.0
C11 C 0.06158 0.60468 0.25148 0.0
C12 C 0.98249 0.60977 0.3148 0.0
O13 O 0.03289 0.56978 0.41324 0.0
Mg14 Mg 0.67567 0.74023 0.59443 0.0
O15 O 0.69344 0.73276 0.5064 0.0
O16 O 0.66714 0.72547 0.43815 0.0
Mg17 Mg 0.63283 0.73107 0.48022 0.0
C18 C 0.68772 0.72736 0.45382 0.0
C19 C 0.72397 0.73776 0.65027 0.0
O20 O 0.7222 0.71685 0.63184 0.0
O21 O 0.66844 0.77596 0.5613 0.0
O22 O 0.64334 0.76788 0.49063 0.0
O23 O 0.67359 0.70289 0.61111 0.0
O24 O 0.64747 0.72305 0.56587 0.0
C25 C 0.65558 0.78192 0.51889 0.0
C26 C 0.65481 0.7037 0.58216 0.0
O27 O 0.70833 0.75162 0.63819 0.0
Mg28 Mg 0.5184 0.40677 0.82606 0.0
O29 O 0.52444 0.42575 0.73898 0.0
O30 O 0.52979 0.40026 0.6675 0.0
Mg31 Mg 0.52421 0.36546 0.70649 0.0
C32 C 0.52872 0.42064 0.68527 0.0
C33 C 0.51914 0.44033 0.92522 0.0
O34 O 0.53279 0.42397 0.94085 0.0
O35 O 0.48176 0.40063 0.79762 0.0
O36 O 0.48787 0.37633 0.72356 0.0
O37 O 0.55597 0.40383 0.83673 0.0
O38 O 0.53436 0.37869 0.79216 0.0
C39 C 0.47473 0.38838 0.75502 0.0
C40 C 0.55418 0.38552 0.80613 0.0
O41 O 0.50941 0.43908 0.87533 0.0
Mg42 Mg 0.84975 0.24817 0.0357 0.0
O43 O 0.83046 0.25513 0.94941 0.0
O44 O 0.85585 0.2601 0.87755 0.0
Mg45 Mg 0.89073 0.25401 0.91535 0.0
C46 C 0.8355 0.25942 0.89568 0.0
C47 C 0.81646 0.24927 0.13536 0.0
O48 O 0.83309 0.26264 0.15088 0.0
O49 O 0.85525 0.21167 0.00585 0.0
O50 O 0.87967 0.21766 0.932 0.0
O51 O 0.8537 0.28544 0.04923 0.0
O52 O 0.87806 0.26388 0.00187 0.0
C53 C 0.86743 0.20458 0.96321 0.0
C54 C 0.87192 0.28366 0.01826 0.0
O55 O 0.81747 0.2395 0.08547 0.0
Mg56 Mg 0.01931 0.41065 0.84867 0.0
O57 O 0.01066 0.42969 0.93441 0.0
O58 O 0.00415 0.40402 0.00477 0.0
Mg59 Mg 0.01109 0.36934 0.96705 0.0
C60 C 0.00526 0.42443 0.98734 0.0
C61 C 0.02145 0.44264 0.74775 0.0
O62 O 0.00971 0.42507 0.73033 0.0
O63 O 0.05509 0.40534 0.88374 0.0
O64 O 0.04768 0.38091 0.95661 0.0
O65 O 0.98243 0.4071 0.8298 0.0
O66 O 0.00268 0.38244 0.87996 0.0
C67 C 0.0613 0.39332 0.92751 0.0
C68 C 0.9833 0.38895 0.86129 0.0
O69 O 0.02907 0.44285 0.80019 0.0
Mg70 Mg 0.85698 0.74092 0.09465 0.0
O71 O 0.82704 0.73495 0.15761 0.0
O72 O 0.84126 0.7305 0.24834 0.0
Mg73 Mg 0.87928 0.73376 0.24505 0.0
C74 C 0.82457 0.73138 0.2129 0.0
C75 C 0.83243 0.73934 0.97469 0.0
O76 O 0.84519 0.7213 0.97224 0.0
O77 O 0.86057 0.77706 0.12907 0.0
O78 O 0.8744 0.77072 0.21954 0.0
O79 O 0.86105 0.70354 0.08303 0.0
O80 O 0.87772 0.72375 0.15251 0.0
C81 C 0.86764 0.78408 0.1791 0.0
C82 C 0.87337 0.70438 0.13003 0.0
O83 O 0.83319 0.75168 0.02054 0.0
Mg84 Mg 0.51262 0.59126 0.33446 0.0
O85 O 0.5193 0.56194 0.39815 0.0
O86 O 0.52389 0.57607 0.48885 0.0
Mg87 Mg 0.51846 0.61387 0.48465 0.0
C88 C 0.52332 0.55946 0.45314 0.0
C89 C 0.51672 0.55083 0.2477 0.0
O90 O 0.53522 0.5483 0.27885 0.0
O91 O 0.47611 0.59343 0.36744 0.0
O92 O 0.48192 0.60688 0.45854 0.0
O93 O 0.55006 0.59641 0.32564 0.0
O94 O 0.52853 0.61321 0.39184 0.0
C95 C 0.46882 0.59975 0.4179 0.0
C96 C 0.54833 0.60941 0.3713 0.0
O97 O 0.50329 0.56675 0.26071 0.0
Mg98 Mg 0.6649 0.24583 0.54339 0.0
O99 O 0.69418 0.25207 0.60771 0.0
O100 O 0.67995 0.25637 0.69838 0.0
Mg101 Mg 0.64209 0.25116 0.69345 0.0
C102 C 0.69662 0.25584 0.66285 0.0
C103 C 0.70556 0.24974 0.45686 0.0
O104 O 0.70841 0.26818 0.48805 0.0
O105 O 0.66237 0.20923 0.57511 0.0
O106 O 0.6489 0.21475 0.66634 0.0
O107 O 0.65996 0.28335 0.53582 0.0
O108 O 0.64295 0.26149 0.60089 0.0
C109 C 0.65597 0.2018 0.62534 0.0
C110 C 0.64681 0.28138 0.58112 0.0
O111 O 0.68942 0.23656 0.46977 0.0
Mg112 Mg 0.35482 0.24206 0.57018 0.0
O113 O 0.32471 0.23904 0.63427 0.0
O114 O 0.33965 0.23374 0.724 0.0
Mg115 Mg 0.37777 0.23299 0.71905 0.0
C116 C 0.32266 0.23606 0.68998 0.0
C117 C 0.34278 0.25357 0.44481 0.0
O118 O 0.36423 0.24806 0.44407 0.0
O119 O 0.36145 0.2779 0.60423 0.0
O120 O 0.37622 0.2701 0.69269 0.0
O121 O 0.35542 0.2045 0.55798 0.0
O122 O 0.37399 0.22297 0.62741 0.0
C123 C 0.37008 0.2842 0.65327 0.0
C124 C 0.36778 0.20412 0.60494 0.0
O125 O 0.33264 0.25408 0.49423 0.0
Mg126 Mg 0.18224 0.75371 0.07261 0.0
O127 O 0.20158 0.76155 0.15837 0.0
O128 O 0.17615 0.76746 0.22973 0.0
Mg129 Mg 0.14111 0.76269 0.19154 0.0
C130 C 0.19651 0.76633 0.21183 0.0
C131 C 0.21574 0.74665 0.97191 0.0
O132 O 0.19871 0.75677 0.94605 0.0
O133 O 0.1752 0.71812 0.10674 0.0
O134 O 0.15026 0.72565 0.17806 0.0
O135 O 0.18001 0.79062 0.05222 0.0
O136 O 0.15515 0.77172 0.10556 0.0
C137 C 0.16224 0.71179 0.14855 0.0
C138 C 0.16243 0.79071 0.08596 0.0
O139 O 0.21442 0.74234 0.02672 0.0
Mg140 Mg 0.18098 0.24434 0.09409 0.0
O141 O 0.19695 0.24086 0.00148 0.0
O142 O 0.16927 0.23668 0.93515 0.0
Mg143 Mg 0.13599 0.2407 0.98309 0.0
C144 C 0.19014 0.23779 0.94844 0.0
C145 C 0.23374 0.24655 0.12239 0.0
O146 O 0.23563 0.23396 0.07503 0.0
O147 O 0.17359 0.2814 0.0733 0.0
O148 O 0.14733 0.2766 0.00351 0.0
O149 O 0.17899 0.20659 0.09977 0.0
O150 O 0.15233 0.22842 0.0631 0.0
C151 C 0.16017 0.28923 0.03434 0.0
C152 C 0.15995 0.20848 0.07235 0.0
O153 O 0.2144 0.25343 0.13834 0.0
Mg154 Mg 0.3625 0.75434 0.5746 0.0
O155 O 0.33507 0.76162 0.50649 0.0
O156 O 0.3509 0.76406 0.4172 0.0
Mg157 Mg 0.38848 0.75748 0.42782 0.0
C158 C 0.33369 0.76481 0.45091 0.0
C159 C 0.3412 0.737 0.69126 0.0
O160 O 0.3622 0.73052 0.69835 0.0
O161 O 0.36356 0.71747 0.5444 0.0
O162 O 0.37991 0.72154 0.45614 0.0
O163 O 0.36912 0.79156 0.58164 0.0
O164 O 0.38642 0.76858 0.51978 0.0
C165 C 0.37119 0.7092 0.49627 0.0
C166 C 0.38304 0.78874 0.53828 0.0
O167 O 0.33568 0.74696 0.64379 0.0
Mg168 Mg 0.50723 0.08798 0.81479 0.0
O169 O 0.50167 0.05819 0.75157 0.0
O170 O 0.49506 0.07269 0.662 0.0
Mg171 Mg 0.49597 0.1109 0.66727 0.0
C172 C 0.49748 0.05587 0.69653 0.0
C173 C 0.51102 0.06543 0.93604 0.0
O174 O 0.49381 0.0791 0.9428 0.0
O175 O 0.54231 0.09322 0.77515 0.0
O176 O 0.53359 0.10813 0.68759 0.0
O177 O 0.47023 0.0898 0.83361 0.0
O178 O 0.48712 0.10783 0.76075 0.0
C179 C 0.5481 0.10147 0.72533 0.0
C180 C 0.4687 0.10235 0.78716 0.0
O181 O 0.52101 0.06481 0.88643 0.0
Mg182 Mg 0.02063 0.90346 0.3155 0.0
O183 O 0.02375 0.93346 0.25216 0.0
O184 O 0.02625 0.91991 0.16026 0.0
Mg185 Mg 0.02496 0.88168 0.16382 0.0
C186 C 0.02568 0.93636 0.19653 0.0
C187 C 0.02347 0.94363 0.40248 0.0
O188 O 0.04116 0.94719 0.36887 0.0
O189 O 0.98394 0.89855 0.28706 0.0
O190 O 0.98855 0.88417 0.19666 0.0
O191 O 0.05831 0.90101 0.3213 0.0
O192 O 0.03741 0.88368 0.25436 0.0
C193 C 0.97589 0.89048 0.23916 0.0
C194 C 0.05704 0.88895 0.27387 0.0
O195 O 0.0108 0.92687 0.39135 0.0
Mg196 Mg 0.52017 0.90918 0.31103 0.0
O197 O 0.51258 0.92642 0.39974 0.0
O198 O 0.50562 0.89952 0.46654 0.0
Mg199 Mg 0.51124 0.86551 0.42298 0.0
C200 C 0.50724 0.92022 0.45197 0.0
C201 C 0.51801 0.95832 0.26108 0.0
O202 O 0.49768 0.95708 0.2838 0.0
O203 O 0.55591 0.90172 0.34343 0.0
O204 O 0.54817 0.87574 0.41226 0.0
O205 O 0.48291 0.90754 0.29435 0.0
O206 O 0.50279 0.8809 0.33842 0.0
C207 C 0.562 0.88832 0.38444 0.0
C208 C 0.48347 0.88869 0.32302 0.0
O209 O 0.53154 0.942 0.26864 0.0
Mg210 Mg 0.02378 0.08941 0.82146 0.0
O211 O 0.0273 0.07033 0.90943 0.0
O212 O 0.0305 0.09582 0.98183 0.0
Mg213 Mg 0.02636 0.13061 0.94213 0.0
C214 C 0.02994 0.07545 0.96387 0.0
C215 C 0.02548 0.05573 0.7214 0.0
O216 O 0.03924 0.07201 0.70574 0.0
O217 O 0.98654 0.09573 0.8429 0.0
O218 O 0.99054 0.12009 0.91754 0.0
O219 O 0.06152 0.09215 0.81696 0.0
O220 O 0.03922 0.11724 0.85895 0.0
C221 C 0.97823 0.10808 0.88364 0.0
C222 C 0.05931 0.11024 0.84831 0.0
O223 O 0.01553 0.05717 0.77094 0.0
H224 H 0.15284 0.69309 0.25442 0.0
H225 H 0.16316 0.67662 0.07039 0.0
H226 H 0.14685 0.63892 0.08738 0.0
H227 H 0.15838 0.63094 0.31391 0.0
H228 H 0.13679 0.63687 0.36765 0.0
H229 H 0.15652 0.65856 0.34659 0.0
H230 H 0.12322 0.68479 0.31968 0.0
H231 H 0.10357 0.66334 0.34007 0.0
H232 H 0.1025 0.67528 0.26698 0.0
H233 H 0.11866 0.61053 0.11447 0.0
H234 H 0.08331 0.5935 0.15022 0.0
H235 H 0.09223 0.62605 0.31922 0.0
C236 C 0.15265 0.68105 0.21852 0.0
C237 C 0.15914 0.68763 0.1612 0.0
C238 C 0.15849 0.67176 0.11479 0.0
C239 C 0.14927 0.65028 0.12419 0.0
C240 C 0.1414 0.64482 0.18053 0.0
C241 C 0.14363 0.65958 0.22748 0.0
C242 C 0.13046 0.65159 0.28077 0.0
C243 C 0.1465 0.64404 0.33015 0.0
C244 C 0.11396 0.66982 0.30303 0.0
C245 C 0.11823 0.63161 0.25437 0.0
C246 C 0.12539 0.62746 0.19712 0.0
C247 C 0.1136 0.61289 0.15992 0.0
C248 C 0.09351 0.60329 0.18048 0.0
C249 C 0.08553 0.60815 0.23783 0.0
C250 C 0.09864 0.62141 0.27616 0.0
H251 H 0.59281 0.86487 0.32362 0.0
H252 H 0.5827 0.90323 0.48318 0.0
H253 H 0.61668 0.88615 0.52685 0.0
H254 H 0.59963 0.81801 0.38514 0.0
H255 H 0.62099 0.80555 0.3389 0.0
H256 H 0.60342 0.82732 0.31001 0.0
H257 H 0.63844 0.85121 0.28329 0.0
H258 H 0.65637 0.82917 0.31146 0.0
H259 H 0.65919 0.85752 0.33901 0.0
H260 H 0.64233 0.857 0.56428 0.0
H261 H 0.65621 0.81908 0.59096 0.0
H262 H 0.64922 0.79802 0.40908 0.0
C263 C 0.59891 0.87078 0.36593 0.0
C264 C 0.58583 0.88576 0.39952 0.0
C265 C 0.5931 0.89229 0.4563 0.0
C266 C 0.61238 0.8826 0.48139 0.0
C267 C 0.62407 0.86636 0.4491 0.0
C268 C 0.61784 0.86078 0.39186 0.0
C269 C 0.62944 0.83942 0.37164 0.0
C270 C 0.61234 0.82155 0.35031 0.0
C271 C 0.6469 0.84465 0.32351 0.0
C272 C 0.6409 0.83246 0.42839 0.0
C273 C 0.63862 0.8487 0.47176 0.0
C274 C 0.64491 0.84449 0.53021 0.0
C275 C 0.65275 0.82291 0.54513 0.0
C276 C 0.65366 0.80579 0.50193 0.0
C277 C 0.64877 0.811 0.44264 0.0
H278 H 0.44318 0.36867 0.8231 0.0
H279 H 0.45378 0.40083 0.65456 0.0
H280 H 0.41847 0.38431 0.61705 0.0
H281 H 0.43221 0.32015 0.77269 0.0
H282 H 0.41063 0.31096 0.82326 0.0
H283 H 0.4302 0.33222 0.84559 0.0
H284 H 0.39749 0.35955 0.86937 0.0
H285 H 0.37756 0.33809 0.84797 0.0
H286 H 0.37651 0.36553 0.81404 0.0
H287 H 0.39064 0.3557 0.58828 0.0
H288 H 0.37295 0.31857 0.57215 0.0
H289 H 0.38007 0.30376 0.75848 0.0
C290 C 0.43703 0.37346 0.77991 0.0
C291 C 0.45061 0.38645 0.74215 0.0
C292 C 0.4431 0.39141 0.68448 0.0
C293 C 0.42307 0.38205 0.66286 0.0
C294 C 0.41079 0.36771 0.69952 0.0
C295 C 0.41725 0.36378 0.75748 0.0
C296 C 0.40432 0.34415 0.78351 0.0
C297 C 0.4203 0.32581 0.80755 0.0
C298 C 0.38799 0.35233 0.83156 0.0
C299 C 0.39157 0.33618 0.72952 0.0
C300 C 0.39473 0.35049 0.68216 0.0
C301 C 0.38739 0.34476 0.62549 0.0
C302 C 0.3774 0.32358 0.61661 0.0
C303 C 0.37524 0.30825 0.66402 0.0
C304 C 0.38141 0.31519 0.72144 0.0
H305 H 0.88567 0.17419 0.03666 0.0
H306 H 0.85791 0.18238 0.862 0.0
H307 H 0.87639 0.14732 0.82985 0.0
H308 H 0.9354 0.16574 0.99631 0.0
H309 H 0.94454 0.14495 0.0491 0.0
H310 H 0.92161 0.16318 0.06695 0.0
H311 H 0.89578 0.12888 0.08672 0.0
H312 H 0.91893 0.1103 0.06972 0.0
H313 H 0.89254 0.10741 0.03109 0.0
H314 H 0.90678 0.12078 0.80756 0.0
H315 H 0.94566 0.1064 0.79781 0.0
H316 H 0.95584 0.11585 0.98528 0.0
C317 C 0.88222 0.1675 0.99312 0.0
C318 C 0.86998 0.18039 0.95218 0.0
C319 C 0.86676 0.17223 0.89427 0.0
C320 C 0.87724 0.15232 0.87572 0.0
C321 C 0.89102 0.14088 0.91557 0.0
C322 C 0.89321 0.14797 0.9737 0.0
C323 C 0.91291 0.13642 0.00357 0.0
C324 C 0.92958 0.1536 0.0304 0.0
C325 C 0.90453 0.11976 0.05054 0.0
C326 C 0.92301 0.12404 0.95152 0.0
C327 C 0.90956 0.12579 0.9019 0.0
C328 C 0.9171 0.11862 0.84652 0.0
C329 C 0.93923 0.11049 0.84123 0.0
C330 C 0.95362 0.11014 0.89084 0.0
C331 C 0.94499 0.11586 0.94686 0.0
H332 H 0.09475 0.3759 0.86185 0.0
H333 H 0.07981 0.4046 0.03238 0.0
H334 H 0.11503 0.38887 0.07243 0.0
H335 H 0.1054 0.32724 0.90693 0.0
H336 H 0.12824 0.3192 0.85886 0.0
H337 H 0.10907 0.34067 0.83616 0.0
H338 H 0.14212 0.36856 0.82147 0.0
H339 H 0.16165 0.34689 0.84374 0.0
H340 H 0.16161 0.37372 0.88098 0.0
H341 H 0.14274 0.36064 0.10199 0.0
H342 H 0.15858 0.32262 0.11765 0.0
H343 H 0.15536 0.31008 0.9299 0.0
C344 C 0.09993 0.38012 0.90631 0.0
C345 C 0.08516 0.39184 0.94378 0.0
C346 C 0.09139 0.39612 0.00283 0.0
C347 C 0.1114 0.38724 0.02584 0.0
C348 C 0.12488 0.37398 0.98926 0.0
C349 C 0.11959 0.37073 0.93015 0.0
C350 C 0.13327 0.35165 0.90402 0.0
C351 C 0.11808 0.33365 0.87494 0.0
C352 C 0.1507 0.36076 0.85996 0.0
C353 C 0.14472 0.34287 0.95907 0.0
C354 C 0.14075 0.35668 0.00716 0.0
C355 C 0.14665 0.3501 0.06439 0.0
C356 C 0.15564 0.32848 0.07306 0.0
C357 C 0.15811 0.31365 0.02483 0.0
C358 C 0.1538 0.3214 0.96716 0.0
H359 H 0.95277 0.87829 0.14041 0.0
H360 H 0.94425 0.89027 0.32778 0.0
H361 H 0.90687 0.87228 0.32363 0.0
H362 H 0.88882 0.8801 0.0992 0.0
H363 H 0.89331 0.85777 0.04657 0.0
H364 H 0.91502 0.87852 0.05914 0.0
H365 H 0.94341 0.84662 0.08236 0.0
H366 H 0.92196 0.82596 0.07026 0.0
H367 H 0.93684 0.82658 0.13963 0.0
H368 H 0.87788 0.84354 0.3073 0.0
H369 H 0.8601 0.80748 0.28015 0.0
H370 H 0.8859 0.81395 0.10251 0.0
C371 C 0.94261 0.87802 0.18006 0.0
C372 C 0.95148 0.88556 0.23446 0.0
C373 C 0.93779 0.88473 0.2855 0.0
C374 C 0.91644 0.87459 0.28345 0.0
C375 C 0.90886 0.86578 0.22985 0.0
C376 C 0.92137 0.86784 0.17864 0.0
C377 C 0.91171 0.85349 0.12943 0.0
C378 C 0.90161 0.86836 0.08071 0.0
C379 C 0.92953 0.8372 0.10407 0.0
C380 C 0.89338 0.8411 0.16266 0.0
C381 C 0.89141 0.84907 0.21994 0.0
C382 C 0.87859 0.83773 0.26208 0.0
C383 C 0.86858 0.81722 0.24636 0.0
C384 C 0.87139 0.80829 0.18899 0.0
C385 C 0.88285 0.82096 0.14589 0.0
H386 H 0.37813 0.68664 0.39377 0.0
H387 H 0.36939 0.67634 0.58154 0.0
H388 H 0.38376 0.63764 0.57121 0.0
H389 H 0.37136 0.62278 0.34722 0.0
H390 H 0.39288 0.62685 0.29213 0.0
H391 H 0.37339 0.64928 0.30882 0.0
H392 H 0.40696 0.676 0.32961 0.0
H393 H 0.42634 0.65386 0.31342 0.0
H394 H 0.42775 0.668 0.38379 0.0
H395 H 0.41034 0.60752 0.54909 0.0
H396 H 0.44592 0.58984 0.51816 0.0
H397 H 0.43827 0.61809 0.34362 0.0
C398 C 0.37825 0.67582 0.4322 0.0
C399 C 0.37283 0.6845 0.48847 0.0
C400 C 0.37331 0.67002 0.5379 0.0
C401 C 0.38141 0.64792 0.5323 0.0
C402 C 0.38855 0.64046 0.47684 0.0
C403 C 0.38653 0.65387 0.4272 0.0
C404 C 0.39954 0.64417 0.37554 0.0
C405 C 0.38332 0.63523 0.32813 0.0
C406 C 0.41613 0.66153 0.34921 0.0
C407 C 0.41164 0.62495 0.40586 0.0
C408 C 0.40421 0.62238 0.46351 0.0
C409 C 0.41568 0.60873 0.50355 0.0
C410 C 0.43592 0.59874 0.48567 0.0
C411 C 0.44449 0.60243 0.42829 0.0
C412 C 0.43151 0.61442 0.38692 0.0
H413 H 0.63391 0.17257 0.55499 0.0
H414 H 0.66912 0.17796 0.72122 0.0
H415 H 0.65152 0.1427 0.75513 0.0
H416 H 0.58589 0.16348 0.60902 0.0
H417 H 0.57452 0.14349 0.55698 0.0
H418 H 0.59659 0.16211 0.53458 0.0
H419 H 0.62142 0.12831 0.50358 0.0
H420 H 0.59909 0.10936 0.52495 0.0
H421 H 0.62694 0.10597 0.55543 0.0
H422 H 0.62192 0.11611 0.78334 0.0
H423 H 0.58403 0.10063 0.80196 0.0
H424 H 0.56633 0.11248 0.619 0.0
C425 C 0.63907 0.1653 0.59667 0.0
C426 C 0.65312 0.17752 0.6351 0.0
C427 C 0.65871 0.16845 0.69083 0.0
C428 C 0.64876 0.14841 0.71038 0.0
C429 C 0.63323 0.1377 0.67368 0.0
C430 C 0.62872 0.14558 0.61725 0.0
C431 C 0.60788 0.13441 0.59192 0.0
C432 C 0.5902 0.15192 0.57209 0.0
C433 C 0.61422 0.11856 0.54096 0.0
C434 C 0.59999 0.12116 0.64511 0.0
C435 C 0.61533 0.1224 0.69092 0.0
C436 C 0.61013 0.11436 0.74722 0.0
C437 C 0.58848 0.10567 0.75755 0.0
C438 C 0.57219 0.10548 0.712 0.0
C439 C 0.57849 0.11231 0.65461 0.0
H440 H 0.98042 0.34552 0.89645 0.0
H441 H 0.94018 0.40562 0.87021 0.0
H442 H 0.90674 0.38566 0.9103 0.0
H443 H 0.93748 0.30587 0.85417 0.0
H444 H 0.94627 0.28526 0.90779 0.0
H445 H 0.96654 0.30455 0.87713 0.0
H446 H 0.97743 0.31754 0.98266 0.0
H447 H 0.95706 0.29842 0.01363 0.0
H448 H 0.95585 0.32799 0.0315 0.0
H449 H 0.87819 0.35891 0.9587 0.0
H450 H 0.85649 0.32687 1.00057 0.0
H451 H 0.91604 0.2848 0.98947 0.0
C452 C 0.96457 0.35449 0.89898 0.0
C453 C 0.96281 0.37709 0.88067 0.0
C454 C 0.94176 0.38823 0.88395 0.0
C455 C 0.92277 0.37708 0.90691 0.0
C456 C 0.9252 0.3548 0.92553 0.0
C457 C 0.94555 0.3436 0.92089 0.0
C458 C 0.94388 0.31963 0.9425 0.0
C459 C 0.94883 0.30284 0.8924 0.0
C460 C 0.95948 0.31568 0.99573 0.0
C461 C 0.91941 0.31901 0.96037 0.0
C462 C 0.90886 0.33945 0.95101 0.0
C463 C 0.88627 0.34279 0.96577 0.0
C464 C 0.87412 0.32461 0.98976 0.0
C465 C 0.88463 0.30344 0.99775 0.0
C466 C 0.90755 0.30077 0.98325 0.0
H467 H 0.45673 0.11194 0.67353 0.0
H468 H 0.43134 0.1117 0.85269 0.0
H469 H 0.39728 0.13204 0.81944 0.0
H470 H 0.44376 0.16527 0.64121 0.0
H471 H 0.43572 0.16085 0.56537 0.0
H472 H 0.45503 0.1418 0.6002 0.0
H473 H 0.42895 0.10817 0.57452 0.0
H474 H 0.40947 0.1272 0.53925 0.0
H475 H 0.39982 0.10872 0.59705 0.0
H476 H 0.37144 0.15966 0.77227 0.0
H477 H 0.35477 0.19058 0.71379 0.0
H478 H 0.39594 0.17192 0.5641 0.0
C479 C 0.44384 0.11576 0.70555 0.0
C480 C 0.44675 0.11055 0.76572 0.0
C481 C 0.42932 0.11548 0.80624 0.0
C482 C 0.40993 0.12698 0.7877 0.0
C483 C 0.40807 0.13288 0.7283 0.0
C484 C 0.42439 0.12703 0.68758 0.0
C485 C 0.41981 0.13751 0.62791 0.0
C486 C 0.43975 0.15223 0.60756 0.0
C487 C 0.41417 0.11931 0.58197 0.0
C488 C 0.3993 0.15156 0.64246 0.0
C489 C 0.3925 0.1483 0.70032 0.0
C490 C 0.37604 0.16176 0.7264 0.0
C491 C 0.36672 0.1793 0.69306 0.0
C492 C 0.37379 0.18304 0.63438 0.0
C493 C 0.38973 0.16866 0.60822 0.0
H494 H 0.54854 0.64448 0.44723 0.0
H495 H 0.59276 0.59567 0.36452 0.0
H496 H 0.62523 0.6118 0.41953 0.0
H497 H 0.58576 0.69015 0.43877 0.0
H498 H 0.57689 0.7022 0.50796 0.0
H499 H 0.55757 0.68535 0.46569 0.0
H500 H 0.55154 0.6593 0.55629 0.0
H501 H 0.5711 0.67598 0.59865 0.0
H502 H 0.57554 0.6461 0.59064 0.0
H503 H 0.65303 0.63487 0.48288 0.0
H504 H 0.67347 0.6648 0.53802 0.0
H505 H 0.61005 0.698 0.57471 0.0
C506 C 0.56498 0.63691 0.44116 0.0
C507 C 0.56815 0.61869 0.4022 0.0
C508 C 0.59002 0.60965 0.39438 0.0
C509 C 0.60847 0.61859 0.42574 0.0
C510 C 0.60465 0.63654 0.46435 0.0
C511 C 0.58339 0.64566 0.47148 0.0
C512 C 0.58364 0.6659 0.51171 0.0
C513 C 0.5755 0.68715 0.47906 0.0
C514 C 0.56963 0.66154 0.56764 0.0
C515 C 0.60844 0.66711 0.52562 0.0
C516 C 0.62037 0.64987 0.49899 0.0
C517 C 0.64379 0.6483 0.50427 0.0
C518 C 0.65524 0.6652 0.53596 0.0
C519 C 0.64319 0.68344 0.56076 0.0
C520 C 0.61956 0.68404 0.55656 0.0
H521 H 0.15172 0.80217 0.19828 0.0
H522 H 0.14956 0.82651 0.01838 0.0
H523 H 0.12654 0.85911 0.05099 0.0
H524 H 0.09727 0.81237 0.23337 0.0
H525 H 0.10211 0.82101 0.30857 0.0
H526 H 0.12166 0.80237 0.2729 0.0
H527 H 0.15437 0.83002 0.29528 0.0
H528 H 0.13488 0.8488 0.33141 0.0
H529 H 0.15228 0.85897 0.27191 0.0
H530 H 0.09773 0.88384 0.09965 0.0
H531 H 0.06763 0.90041 0.16142 0.0
H532 H 0.09026 0.86112 0.31081 0.0
C533 C 0.14672 0.81455 0.16598 0.0
C534 C 0.15207 0.81184 0.10587 0.0
C535 C 0.14561 0.8285 0.06475 0.0
C536 C 0.13259 0.847 0.08293 0.0
C537 C 0.12681 0.84873 0.14251 0.0
C538 C 0.13407 0.83316 0.18359 0.0
C539 C 0.12407 0.83759 0.24388 0.0
C540 C 0.11047 0.81713 0.26591 0.0
C541 C 0.1425 0.84425 0.28823 0.0
C542 C 0.10894 0.85733 0.22973 0.0
C543 C 0.11094 0.86369 0.17115 0.0
C544 C 0.09655 0.87954 0.14594 0.0
C545 C 0.07947 0.88878 0.18115 0.0
C546 C 0.07716 0.8823 0.24081 0.0
C547 C 0.09236 0.86686 0.26578 0.0
H548 H 0.97148 0.62193 0.20182 0.0
H549 H 0.94396 0.61632 0.37831 0.0
H550 H 0.90882 0.63452 0.34422 0.0
H551 H 0.95334 0.67477 0.17275 0.0
H552 H 0.94691 0.67025 0.09591 0.0
H553 H 0.9678 0.65316 0.13158 0.0
H554 H 0.94609 0.6171 0.10096 0.0
H555 H 0.92502 0.63416 0.06509 0.0
H556 H 0.91682 0.61407 0.12073 0.0
H557 H 0.88054 0.65975 0.29627 0.0
H558 H 0.86078 0.68867 0.23723 0.0
H559 H 0.90584 0.67628 0.09077 0.0
C560 C 0.95803 0.62417 0.23318 0.0
C561 C 0.96056 0.61794 0.29283 0.0
C562 C 0.94232 0.62093 0.33228 0.0
C563 C 0.9223 0.63118 0.31326 0.0
C564 C 0.92065 0.63781 0.25439 0.0
C565 C 0.93793 0.63409 0.21471 0.0
C566 C 0.93295 0.64461 0.15533 0.0
C567 C 0.95133 0.66171 0.13794 0.0
C568 C 0.93004 0.62639 0.10772 0.0
C569 C 0.9108 0.65607 0.16878 0.0
C570 C 0.90378 0.65165 0.22591 0.0
C571 C 0.88541 0.66273 0.25093 0.0
C572 C 0.87432 0.67912 0.21727 0.0
C573 C 0.88155 0.68404 0.15932 0.0
C574 C 0.89955 0.67201 0.13423 0.0
H575 H 0.05991 0.15182 0.89739 0.0
H576 H 0.10216 0.09344 0.86601 0.0
H577 H 0.13289 0.1114 0.92377 0.0
H578 H 0.10325 0.19359 0.88785 0.0
H579 H 0.09105 0.21073 0.94518 0.0
H580 H 0.07323 0.19323 0.90011 0.0
H581 H 0.05733 0.17415 0.99434 0.0
H582 H 0.07529 0.19143 0.03968 0.0
H583 H 0.07647 0.16119 0.04591 0.0
H584 H 0.15869 0.13636 0.98822 0.0
H585 H 0.1775 0.16661 0.04592 0.0
H586 H 0.11667 0.20685 0.0354 0.0
C587 C 0.07559 0.14271 0.90259 0.0
C588 C 0.07862 0.12118 0.87767 0.0
C589 C 0.09954 0.11003 0.88469 0.0
C590 C 0.117 0.12003 0.91769 0.0
C591 C 0.11315 0.14112 0.94303 0.0
C592 C 0.09296 0.15233 0.93528 0.0
C593 C 0.09272 0.17476 0.96651 0.0
C594 C 0.08991 0.19422 0.92227 0.0
C595 C 0.07437 0.1754 0.01445 0.0
C596 C 0.11598 0.17458 0.9932 0.0
C597 C 0.12762 0.15511 0.97957 0.0
C598 C 0.14968 0.15165 0.99911 0.0
C599 C 0.16017 0.16881 0.03213 0.0
C600 C 0.14854 0.18907 0.0448 0.0
C601 C 0.12607 0.19163 0.026 0.0
H602 H 0.61081 0.2811 0.65361 0.0
H603 H 0.66133 0.32567 0.57952 0.0
H604 H 0.64531 0.35748 0.63735 0.0
H605 H 0.56578 0.31969 0.64808 0.0
H606 H 0.55317 0.30964 0.71546 0.0
H607 H 0.56973 0.29086 0.67083 0.0
H608 H 0.59519 0.28221 0.76115 0.0
H609 H 0.57883 0.30121 0.8059 0.0
H610 H 0.60886 0.30507 0.79944 0.0
H611 H 0.62263 0.38443 0.7044 0.0
H612 H 0.5934 0.40421 0.76358 0.0
H613 H 0.55827 0.34096 0.78876 0.0
C614 C 0.61871 0.29749 0.64982 0.0
C615 C 0.63741 0.30095 0.61266 0.0
C616 C 0.64695 0.32274 0.60791 0.0
C617 C 0.63807 0.3408 0.64088 0.0
C618 C 0.61968 0.33666 0.67782 0.0
C619 C 0.61003 0.31552 0.6817 0.0
C620 C 0.58962 0.31537 0.72129 0.0
C621 C 0.56832 0.3085 0.68684 0.0
C622 C 0.59336 0.30006 0.77514 0.0
C623 C 0.58898 0.33983 0.73888 0.0
C624 C 0.60658 0.35192 0.7144 0.0
C625 C 0.60887 0.37506 0.72392 0.0
C626 C 0.59236 0.38612 0.75786 0.0
C627 C 0.57379 0.37397 0.78068 0.0
C628 C 0.57242 0.35056 0.77196 0.0
H629 H 0.42025 0.78674 0.46998 0.0
H630 H 0.37027 0.8335 0.53687 0.0
H631 H 0.38847 0.86441 0.48026 0.0
H632 H 0.46658 0.82376 0.48013 0.0
H633 H 0.48001 0.813 0.4146 0.0
H634 H 0.46198 0.795 0.45752 0.0
H635 H 0.43787 0.78687 0.36433 0.0
H636 H 0.45571 0.80511 0.32126 0.0
H637 H 0.42576 0.81004 0.3239 0.0
H638 H 0.41324 0.8902 0.41575 0.0
H639 H 0.4442 0.90876 0.36015 0.0
H640 H 0.47743 0.84425 0.34017 0.0
C641 C 0.41294 0.80343 0.47241 0.0
C642 C 0.39376 0.80775 0.50724 0.0
C643 C 0.385 0.8299 0.51029 0.0
C644 C 0.39511 0.84746 0.47798 0.0
C645 C 0.41395 0.84249 0.44339 0.0
C646 C 0.42285 0.82099 0.44117 0.0
C647 C 0.44394 0.81998 0.40413 0.0
C648 C 0.46433 0.8125 0.44133 0.0
C649 C 0.44061 0.80459 0.35021 0.0
C650 C 0.4458 0.84434 0.38612 0.0
C651 C 0.42824 0.85712 0.40818 0.0
C652 C 0.42698 0.8803 0.39808 0.0
C653 C 0.44449 0.89067 0.36616 0.0
C654 C 0.46301 0.87782 0.34586 0.0
C655 C 0.46334 0.85439 0.355 0.0
H656 H 0.00766 0.55014 0.10751 0.0
H657 H 0.00162 0.52265 0.28437 0.0
H658 H -0.00289 0.48451 0.24214 0.0
H659 H 0.96781 0.51237 0.0352 0.0
H660 H 0.98459 0.51034 0.96913 0.0
H661 H 0.98546 0.53561 0.01313 0.0
H662 H 0.02887 0.53202 0.02201 0.0
H663 H 0.02814 0.50679 0.97802 0.0
H664 H 0.04087 0.50629 0.05021 0.0
H665 H 0.99481 0.44939 0.18073 0.0
H666 H -0.00286 0.41951 0.10564 0.0
H667 H 0.00569 0.4702 0.96918 0.0
C668 C 0.00507 0.53618 0.13749 0.0
C669 C 0.00483 0.53938 0.19926 0.0
C670 C 0.00183 0.52058 0.2369 0.0
C671 C -0.00085 0.49889 0.21333 0.0
C672 C -0.00042 0.49636 0.15218 0.0
C673 C 0.00258 0.51448 0.11482 0.0
C674 C 0.0039 0.50712 0.051 0.0
C675 C 0.98426 0.51694 0.01501 0.0
C676 C 0.02681 0.51342 0.02374 0.0
C677 C 0.00152 0.48193 0.05828 0.0
C678 C -0.00124 0.47609 0.11688 0.0
C679 C -0.00315 0.45376 0.13469 0.0
C680 C -0.00181 0.43691 0.09157 0.0
C681 C 0.00163 0.44248 0.03135 0.0
C682 C 0.00297 0.46535 0.01468 0.0
H683 H 0.81274 0.73077 0.3293 0.0
H684 H 0.78464 0.7258 0.15279 0.0
H685 H 0.74653 0.72169 0.19573 0.0
H686 H 0.77513 0.6909 0.40024 0.0
H687 H 0.77347 0.70716 0.46729 0.0
H688 H 0.79855 0.70828 0.42259 0.0
H689 H 0.79509 0.75175 0.41617 0.0
H690 H 0.77006 0.75076 0.4609 0.0
H691 H 0.76928 0.76407 0.38946 0.0
H692 H 0.71146 0.71933 0.25837 0.0
H693 H 0.68199 0.72078 0.33493 0.0
H694 H 0.73355 0.72799 0.46976 0.0
C695 C 0.79865 0.72858 0.29945 0.0
C696 C 0.8017 0.72849 0.23761 0.0
C697 C 0.78272 0.7259 0.2003 0.0
C698 C 0.76104 0.72347 0.22428 0.0
C699 C 0.7587 0.7237 0.2855 0.0
C700 C 0.777 0.72627 0.3225 0.0
C701 C 0.76995 0.72712 0.38659 0.0
C702 C 0.77987 0.70717 0.4212 0.0
C703 C 0.77648 0.74977 0.41491 0.0
C704 C 0.74472 0.72491 0.37994 0.0
C705 C 0.73856 0.72271 0.3214 0.0
C706 C 0.7161 0.72094 0.30436 0.0
C707 C 0.69948 0.72176 0.34827 0.0
C708 C 0.70543 0.72453 0.40848 0.0
C709 C 0.72841 0.72582 0.42426 0.0
H710 H 0.52455 0.54686 0.56911 0.0
H711 H 0.52983 0.52022 0.39108 0.0
H712 H 0.53449 0.4819 0.43175 0.0
H713 H 0.56489 0.50883 0.63826 0.0
H714 H 0.54854 0.50646 0.705 0.0
H715 H 0.54737 0.53193 0.66192 0.0
H716 H 0.50391 0.52826 0.65493 0.0
H717 H 0.50495 0.50282 0.69793 0.0
H718 H 0.49174 0.50266 0.62632 0.0
H719 H 0.53688 0.44644 0.49178 0.0
H720 H 0.53533 0.41621 0.5661 0.0
H721 H 0.5278 0.46631 0.70455 0.0
C722 C 0.52698 0.53305 0.53853 0.0
C723 C 0.52694 0.53657 0.47688 0.0
C724 C 0.52983 0.51795 0.43849 0.0
C725 C 0.53258 0.49614 0.46116 0.0
C726 C 0.53237 0.4933 0.52219 0.0
C727 C 0.5296 0.51124 0.5603 0.0
C728 C 0.5287 0.50357 0.6239 0.0
C729 C 0.54856 0.51327 0.65934 0.0
C730 C 0.50597 0.50969 0.65241 0.0
C731 C 0.53105 0.47842 0.61561 0.0
C732 C 0.53339 0.47285 0.55671 0.0
C733 C 0.53518 0.45059 0.53807 0.0
C734 C 0.53428 0.43354 0.58072 0.0
C735 C 0.53142 0.43885 0.64131 0.0
C736 C 0.53007 0.46165 0.65874 0.0
H737 H 0.78977 0.25859 0.91503 0.0
H738 H 0.83989 0.26686 0.77691 0.0
H739 H 0.80966 0.26893 0.70269 0.0
H740 H 0.75355 0.22315 0.83568 0.0
H741 H 0.72789 0.23506 0.86459 0.0
H742 H 0.75333 0.23607 0.90768 0.0
H743 H 0.74979 0.27948 0.9162 0.0
H744 H 0.72423 0.27859 0.87333 0.0
H745 H 0.74735 0.29619 0.85012 0.0
H746 H 0.77425 0.26696 0.64247 0.0
H747 H 0.73594 0.26259 0.60138 0.0
H748 H 0.70915 0.25633 0.77902 0.0
C749 C 0.79442 0.26116 0.86932 0.0
C750 C 0.81724 0.26254 0.85196 0.0
C751 C 0.82254 0.26577 0.7915 0.0
C752 C 0.80549 0.26699 0.74889 0.0
C753 C 0.78322 0.26515 0.76742 0.0
C754 C 0.77763 0.2625 0.82622 0.0
C755 C 0.75244 0.26009 0.83422 0.0
C756 C 0.74646 0.23723 0.86218 0.0
C757 C 0.7429 0.27976 0.87061 0.0
C758 C 0.74481 0.26131 0.77063 0.0
C759 C 0.76279 0.26431 0.73275 0.0
C760 C 0.75999 0.26488 0.67171 0.0
C761 C 0.73818 0.26231 0.6488 0.0
C762 C 0.71951 0.25923 0.68694 0.0
C763 C 0.72299 0.2589 0.74863 0.0
H764 H 0.23627 0.2376 0.95766 0.0
H765 H 0.18189 0.23453 0.8296 0.0
H766 H 0.20974 0.23328 0.74896 0.0
H767 H 0.27248 0.27311 0.87496 0.0
H768 H 0.29793 0.25904 0.89776 0.0
H769 H 0.27367 0.25909 0.94543 0.0
H770 H 0.27439 0.21548 0.94918 0.0
H771 H 0.29872 0.21525 0.90168 0.0
H772 H 0.27383 0.19965 0.88129 0.0
H773 H 0.24379 0.23374 0.68179 0.0
H774 H 0.28137 0.23454 0.63437 0.0
H775 H 0.31274 0.23662 0.80751 0.0
C776 C 0.23014 0.23652 0.91281 0.0
C777 C 0.20686 0.23616 0.90019 0.0
C778 C 0.19965 0.2348 0.84058 0.0
C779 C 0.21533 0.23409 0.79436 0.0
C780 C 0.23815 0.23465 0.80845 0.0
C781 C 0.24552 0.23569 0.86626 0.0
C782 C 0.27093 0.23623 0.86974 0.0
C783 C 0.27923 0.25818 0.89867 0.0
C784 C 0.27999 0.21541 0.90239 0.0
C785 C 0.2767 0.23549 0.80482 0.0
C786 C 0.25762 0.23461 0.77004 0.0
C787 C 0.25888 0.23429 0.70858 0.0
C788 C 0.28027 0.2348 0.68205 0.0
C789 C 0.30001 0.23554 0.71712 0.0
C790 C 0.29803 0.23587 0.77926 0.0
H791 H 0.32218 0.76241 0.33405 0.0
H792 H 0.29451 0.77569 0.50806 0.0
H793 H 0.25674 0.78031 0.46418 0.0
H794 H 0.28583 0.80123 0.25183 0.0
H795 H 0.28325 0.78234 0.1899 0.0
H796 H 0.30846 0.78213 0.23424 0.0
H797 H 0.3033 0.73936 0.25295 0.0
H798 H 0.27809 0.73945 0.20885 0.0
H799 H 0.27716 0.72926 0.2837 0.0
H800 H 0.22189 0.78134 0.40271 0.0
H801 H 0.19192 0.77769 0.32828 0.0
H802 H 0.24226 0.76299 0.19439 0.0
C803 C 0.30827 0.76666 0.36288 0.0
C804 C 0.31131 0.7688 0.42446 0.0
C805 C 0.29258 0.77398 0.46075 0.0
C806 C 0.27108 0.77672 0.43624 0.0
C807 C 0.26865 0.77422 0.37547 0.0
C808 C 0.2867 0.76929 0.33926 0.0
C809 C 0.2793 0.76604 0.2759 0.0
C810 C 0.28983 0.78402 0.2356 0.0
C811 C 0.28478 0.74211 0.25411 0.0
C812 C 0.25417 0.76952 0.28237 0.0
C813 C 0.24843 0.77446 0.34003 0.0
C814 C 0.22617 0.77763 0.35732 0.0
C815 C 0.20927 0.77547 0.31463 0.0
C816 C 0.21471 0.77001 0.25536 0.0
C817 C 0.23753 0.76727 0.23915 0.0
H818 H 0.50439 0.96602 0.43716 0.0
H819 H 0.50152 0.91361 0.5707 0.0
H820 H 0.49683 0.94253 0.64777 0.0
H821 H 0.53619 0.00501 0.51998 0.0
H822 H 0.52146 0.02945 0.4929 0.0
H823 H 0.52334 0.00455 0.44789 0.0
H824 H 0.4798 0.00335 0.43917 0.0
H825 H 0.47777 0.0283 0.48416 0.0
H826 H 0.46288 0.00308 0.50523 0.0
H827 H 0.49498 0.9773 0.71105 0.0
H828 H 0.49495 0.01541 0.75512 0.0
H829 H 0.49809 0.04463 0.57962 0.0
C830 C 0.50261 0.96057 0.48251 0.0
C831 C 0.50336 0.93753 0.49779 0.0
C832 C 0.50095 0.93115 0.55778 0.0
C833 C 0.49828 0.94745 0.60196 0.0
C834 C 0.49784 0.97001 0.5854 0.0
C835 C 0.49978 0.97657 0.5271 0.0
C836 C 0.49933 0.00192 0.52113 0.0
C837 C 0.52139 0.01074 0.49388 0.0
C838 C 0.47871 0.00961 0.48531 0.0
C839 C 0.49724 0.0086 0.58528 0.0
C840 C 0.49636 0.98999 0.62172 0.0
C841 C 0.49541 0.99203 0.68295 0.0
C842 C 0.49546 0.01372 0.70756 0.0
C843 C 0.49638 0.03301 0.67087 0.0
C844 C 0.49708 0.03027 0.60896 0.0
H845 H 0.02887 0.02974 0.9449 0.0
H846 H 0.03426 0.08001 0.08368 0.0
H847 H 0.03466 0.04988 0.15832 0.0
H848 H 0.99187 0.99306 0.02057 0.0
H849 H 0.00464 0.9676 0.99297 0.0
H850 H 0.00591 0.99307 0.95002 0.0
H851 H 0.04948 0.99021 0.94613 0.0
H852 H 0.04834 0.96465 0.98884 0.0
H853 H 0.0652 0.98803 0.01395 0.0
H854 H 0.0326 0.01441 0.21832 0.0
H855 H 0.02952 0.97591 0.25881 0.0
H856 H 0.02584 0.94915 0.08055 0.0
C857 C 0.03034 0.03446 0.9909 0.0
C858 C 0.03151 0.05727 0.00828 0.0
C859 C 0.03335 0.06266 0.0691 0.0
C860 C 0.03359 0.04567 0.11195 0.0
C861 C 0.0321 0.0234 0.0933 0.0
C862 C 0.03066 0.01774 0.03425 0.0
C863 C 0.02879 0.99254 0.02597 0.0
C864 C 0.00647 0.98621 0.99561 0.0
C865 C 0.04917 0.98332 0.99171 0.0
C866 C 0.02914 0.98495 0.08963 0.0
C867 C 0.03108 0.00297 0.12783 0.0
C868 C 0.03122 0.00012 0.18886 0.0
C869 C 0.02939 0.9782 0.21141 0.0
C870 C 0.02749 0.95948 0.17291 0.0
C871 C 0.0274 0.96304 0.11127 0.0
H872 H 0.00137 0.44922 0.64121 0.0
H873 H 0.05049 0.47859 0.76048 0.0
H874 H 0.05716 0.50944 0.68884 0.0
H875 H 0.02994 0.46218 0.50546 0.0
H876 H 0.00423 0.46836 0.46635 0.0
H877 H 0.00403 0.44843 0.52622 0.0
H878 H 0.97275 0.47141 0.5787 0.0
H879 H 0.97277 0.49134 0.5189 0.0
H880 H 0.97724 0.50092 0.59347 0.0
H881 H 0.05823 0.5371 0.60266 0.0
H882 H 0.05176 0.56035 0.51363 0.0
H883 H 0.00119 0.51267 0.45393 0.0
C884 C 0.01363 0.46205 0.65235 0.0
C885 C 0.02551 0.46145 0.70631 0.0
C886 C 0.04121 0.47873 0.71934 0.0
C887 C 0.04516 0.49624 0.67885 0.0
C888 C 0.03318 0.49622 0.62584 0.0
C889 C 0.01762 0.47962 0.61287 0.0
C890 C 0.00631 0.48371 0.55409 0.0
C891 C 0.01144 0.46453 0.51046 0.0
C892 C 0.98076 0.48705 0.56178 0.0
C893 C 0.0178 0.50533 0.5359 0.0
C894 C 0.03342 0.51222 0.57742 0.0
C895 C 0.04603 0.53184 0.56994 0.0
C896 C 0.04229 0.54489 0.51916 0.0
C897 C 0.02592 0.53835 0.47693 0.0
C898 C 0.01377 0.51817 0.48542 0.0
H899 H 0.82115 0.71225 0.88168 0.0
H900 H 0.80877 0.77845 0.95624 0.0
H901 H 0.7824 0.78676 0.87459 0.0
H902 H 0.81746 0.72834 0.72579 0.0
H903 H 0.80325 0.70264 0.70539 0.0
H904 H 0.82274 0.70277 0.76639 0.0
H905 H 0.7917 0.6867 0.83501 0.0
H906 H 0.7722 0.68643 0.77427 0.0
H907 H 0.76516 0.70129 0.84115 0.0
H908 H 0.75589 0.78698 0.78769 0.0
H909 H 0.72941 0.77824 0.70692 0.0
H910 H 0.75868 0.7115 0.69086 0.0
C911 C 0.81316 0.72863 0.88047 0.0
C912 C 0.81712 0.74477 0.92515 0.0
C913 C 0.80601 0.76585 0.92242 0.0
C914 C 0.79111 0.77076 0.87606 0.0
C915 C 0.78749 0.7544 0.8329 0.0
C916 C 0.79813 0.73372 0.83488 0.0
C917 C 0.79014 0.71843 0.78564 0.0
C918 C 0.80956 0.71272 0.7433 0.0
C919 C 0.77914 0.69696 0.81052 0.0
C920 C 0.77295 0.73355 0.75631 0.0
C921 C 0.77192 0.75435 0.78362 0.0
C922 C 0.75666 0.77081 0.76573 0.0
C923 C 0.7417 0.76568 0.7197 0.0
C924 C 0.74194 0.74417 0.69249 0.0
C925 C 0.75814 0.72814 0.71041 0.0
H926 H 0.53959 0.51275 0.21583 0.0
H927 H 0.48426 0.55594 0.16227 0.0
H928 H 0.47868 0.53254 0.0731 0.0
H929 H 0.56238 0.50336 0.07294 0.0
H930 H 0.5696 0.47437 0.08692 0.0
H931 H 0.56881 0.49424 0.1469 0.0
H932 H 0.54038 0.46884 0.20277 0.0
H933 H 0.54118 0.44881 0.14311 0.0
H934 H 0.51462 0.46042 0.16676 0.0
H935 H 0.48029 0.50488 0.98723 0.0
H936 H 0.48759 0.47417 0.91565 0.0
H937 H 0.54133 0.44927 0.02795 0.0
C938 C 0.52622 0.51727 0.18556 0.0
C939 C 0.5124 0.53621 0.19597 0.0
C940 C 0.49504 0.54146 0.15528 0.0
C941 C 0.49177 0.52832 0.10442 0.0
C942 C 0.50591 0.5099 0.09516 0.0
C943 C 0.52265 0.5043 0.13495 0.0
C944 C 0.53554 0.48368 0.11515 0.0
C945 C 0.56056 0.48926 0.10486 0.0
C946 C 0.53275 0.46429 0.15959 0.0
C947 C 0.52359 0.47862 0.05774 0.0
C948 C 0.50658 0.49393 0.04669 0.0
C949 C 0.49349 0.49273 0.99563 0.0
C950 C 0.4978 0.47529 0.95516 0.0
C951 C 0.51497 0.45928 0.96626 0.0
C952 C 0.528 0.46115 0.0182 0.0
H953 H 0.80774 0.27209 0.23721 0.0
H954 H 0.78218 0.21814 0.1265 0.0
H955 H 0.75124 0.21164 0.19792 0.0
H956 H 0.79607 0.24637 0.3765 0.0
H957 H 0.78804 0.27243 0.41148 0.0
H958 H 0.80805 0.27264 0.35176 0.0
H959 H 0.78304 0.30094 0.29436 0.0
H960 H 0.76301 0.30091 0.35402 0.0
H961 H 0.75393 0.29408 0.28026 0.0
H962 H 0.72346 0.21082 0.28341 0.0
H963 H 0.70007 0.21707 0.3722 0.0
H964 H 0.74393 0.27212 0.42448 0.0
C965 C 0.79567 0.25888 0.22781 0.0
C966 C 0.79742 0.24555 0.17636 0.0
C967 C 0.78115 0.22856 0.16563 0.0
C968 C 0.76358 0.22471 0.20601 0.0
C969 C 0.76249 0.23809 0.25658 0.0
C970 C 0.77804 0.25493 0.26726 0.0
C971 C 0.77304 0.26726 0.32419 0.0
C972 C 0.79245 0.2645 0.3686 0.0
C973 C 0.76795 0.29227 0.31248 0.0
C974 C 0.75221 0.25474 0.34413 0.0
C975 C 0.74643 0.23788 0.30483 0.0
C976 C 0.72782 0.22402 0.31435 0.0
C977 C 0.71468 0.22766 0.365 0.0
C978 C 0.72013 0.24512 0.40524 0.0
C979 C 0.73925 0.25868 0.39455 0.0
H980 H 0.29751 0.26196 0.4286 0.0
H981 H 0.36004 0.25095 0.33337 0.0
H982 H 0.33924 0.25123 0.23937 0.0
H983 H 0.26407 0.22653 0.34332 0.0
H984 H 0.23926 0.24403 0.34464 0.0
H985 H 0.25926 0.24551 0.40416 0.0
H986 H 0.26356 0.2885 0.38783 0.0
H987 H 0.24345 0.28718 0.32831 0.0
H988 H 0.27105 0.29894 0.31577 0.0
H989 H 0.31133 0.24807 0.15693 0.0
H990 H 0.27824 0.24377 0.09155 0.0
H991 H 0.23401 0.25825 0.23926 0.0
C992 C 0.30689 0.26009 0.38791 0.0
C993 C 0.33043 0.25644 0.38848 0.0
C994 C 0.34202 0.25381 0.33422 0.0
C995 C 0.33036 0.25397 0.28046 0.0
C996 C 0.30712 0.25705 0.2815 0.0
C997 C 0.29551 0.26034 0.33371 0.0
C998 C 0.27039 0.2621 0.32275 0.0
C999 C 0.2575 0.24343 0.35566 0.0
C1000 C 0.2616 0.28558 0.33966 0.0
C1001 C 0.26966 0.25855 0.25655 0.0
C1002 C 0.29103 0.25578 0.23355 0.0
C1003 C 0.29452 0.25064 0.1742 0.0
C1004 C 0.27564 0.24814 0.13746 0.0
C1005 C 0.2536 0.25089 0.16017 0.0
C1006 C 0.25068 0.25648 0.22034 0.0
H1007 H 0.29687 0.75007 0.69222 0.0
H1008 H 0.34803 0.71766 0.79961 0.0
H1009 H 0.32095 0.71493 0.88204 0.0
H1010 H 0.27345 0.78345 0.80517 0.0
H1011 H 0.24479 0.78071 0.77978 0.0
H1012 H 0.26771 0.77871 0.72804 0.0
H1013 H 0.25328 0.73959 0.69394 0.0
H1014 H 0.23025 0.7415 0.74549 0.0
H1015 H 0.24901 0.71764 0.74775 0.0
H1016 H 0.28882 0.71773 0.95477 0.0
H1017 H 0.25402 0.72543 0.0113 0.0
H1018 H 0.22413 0.7558 0.85566 0.0
C1019 C 0.30234 0.74215 0.7328 0.0
C1020 C 0.32458 0.73406 0.73939 0.0
C1021 C 0.33107 0.72395 0.79343 0.0
C1022 C 0.3158 0.72231 0.84053 0.0
C1023 C 0.2941 0.73074 0.83279 0.0
C1024 C 0.28735 0.74036 0.78016 0.0
C1025 C 0.26334 0.74883 0.78376 0.0
C1026 C 0.26228 0.77444 0.77361 0.0
C1027 C 0.24807 0.73613 0.74015 0.0
C1028 C 0.25775 0.74283 0.84696 0.0
C1029 C 0.27565 0.7323 0.87447 0.0
C1030 C 0.27463 0.7258 0.93353 0.0
C1031 C 0.25481 0.73027 0.96529 0.0
C1032 C 0.23632 0.74117 0.93792 0.0
C1033 C 0.23789 0.74734 0.87786 0.0
H1034 H 0.49189 0.99429 0.2284 0.0
H1035 H 0.55665 0.96266 0.19578 0.0
H1036 H 0.56344 0.98895 0.11348 0.0
H1037 H 0.47642 0.0008 0.08325 0.0
H1038 H 0.46302 0.02785 0.09183 0.0
H1039 H 0.46453 0.00882 0.15339 0.0
H1040 H 0.48445 0.03943 0.21614 0.0
H1041 H 0.48276 0.05871 0.15489 0.0
H1042 H 0.50964 0.05271 0.1884 0.0
H1043 H 0.56077 0.01497 0.02625 0.0
H1044 H 0.55001 0.04084 0.9455 0.0
H1045 H 0.48755 0.05606 0.03678 0.0
C1046 C 0.50776 0.99326 0.205 0.0
C1047 C 0.52371 0.97638 0.21858 0.0
C1048 C 0.54418 0.97547 0.18638 0.0
C1049 C 0.5482 0.99034 0.13947 0.0
C1050 C 0.53174 0.00622 0.12582 0.0
C1051 C 0.51209 0.00803 0.15825 0.0
C1052 C 0.4965 0.02559 0.13231 0.0
C1053 C 0.47379 0.01513 0.11411 0.0
C1054 C 0.49315 0.04528 0.17551 0.0
C1055 C 0.51008 0.03278 0.07901 0.0
C1056 C 0.53042 0.02152 0.07617 0.0
C1057 C 0.54508 0.02421 0.02859 0.0
C1058 C 0.53878 0.03883 0.9828 0.0
C1059 C 0.51803 0.05057 0.98506 0.0
C1060 C 0.50367 0.04758 0.03416 0.0
H1061 H 0.04695 0.04704 0.61736 0.0
H1062 H 0.99488 0.02112 0.73349 0.0
H1063 H 0.98788 0.98985 0.66345 0.0
H1064 H 0.01934 0.03441 0.48074 0.0
H1065 H 0.04504 0.0267 0.44347 0.0
H1066 H 0.04573 0.04695 0.50263 0.0
H1067 H 0.0753 0.02271 0.55786 0.0
H1068 H 0.07479 0.00244 0.49877 0.0
H1069 H 0.06918 0.99356 0.57337 0.0
H1070 H 0.98651 0.96152 0.57901 0.0
H1071 H 0.99206 0.9378 0.49039 0.0
H1072 H 0.04541 0.98257 0.43178 0.0
C1073 C 0.03405 0.03483 0.62825 0.0
C1074 C 0.02142 0.03656 0.68088 0.0
C1075 C 0.00478 0.02012 0.69343 0.0
C1076 C 0.00065 0.00234 0.65385 0.0
C1077 C 0.01336 0.00124 0.60213 0.0
C1078 C 0.0298 0.01702 0.58953 0.0
C1079 C 0.0414 0.01199 0.53158 0.0
C1080 C 0.03764 0.03115 0.48698 0.0
C1081 C 0.06666 0.0074 0.54099 0.0
C1082 C 0.02897 0.99086 0.5134 0.0
C1083 C 0.01277 0.98495 0.55438 0.0
C1084 C -0.00082 0.966 0.54673 0.0
C1085 C 0.00242 0.95266 0.49619 0.0
C1086 C 0.0192 0.95828 0.45418 0.0
C1087 C 0.03248 0.97774 0.46304 0.0
loop_
_geom_bond_atom_site_label_1
_geom_bond_atom_site_label_2
_geom_bond_distance
_geom_bond_site_symmetry_2
_ccdc_geom_bond_type
Mg0 O1 2.028 . S
Mg0 O7 1.986 . S
Mg0 O9 2.114 1_455 S
Mg0 O10 2.251 1_455 S
Mg0 O13 2.010 . S
O1 Mg0 2.028 . S
O1 C4 1.250 . S
O2 Mg3 2.028 . S
O2 C4 1.248 . S
Mg3 O2 2.028 . S
Mg3 O8 2.032 . S
Mg3 O10 2.079 1_455 S
C4 O1 1.250 . S
C4 O2 1.248 . S
C5 O6 1.264 . S
C5 O13 1.249 . S
O6 C5 1.264 . S
O7 Mg0 1.986 . S
O7 C11 1.246 . S
O8 Mg3 2.032 . S
O8 C11 1.259 . S
O9 Mg0 2.114 1_655 S
O9 C12 1.252 . S
O10 Mg0 2.251 1_655 S
O10 Mg3 2.079 1_655 S
O10 C12 1.273 . S
C11 O7 1.246 . S
C11 O8 1.259 . S
C12 O9 1.252 . S
C12 O10 1.273 . S
O13 Mg0 2.010 . S
O13 C5 1.249 . S
Mg14 O15 2.028 . S
Mg14 O21 1.986 . S
Mg14 O23 2.114 . S
Mg14 O24 2.251 . S
Mg14 O27 2.010 . S
O15 Mg14 2.028 . S
O15 C18 1.250 . S
O16 Mg17 2.028 . S
O16 C18 1.248 . S
Mg17 O16 2.028 . S
Mg17 O22 2.032 . S
Mg17 O24 2.079 . S
C18 O15 1.250 . S
C18 O16 1.248 . S
C19 O20 1.264 . S
C19 O27 1.249 . S
O20 C19 1.264 . S
O21 Mg14 1.986 . S
O21 C25 1.246 . S
O22 Mg17 2.032 . S
O22 C25 1.259 . S
O23 Mg14 2.114 . S
O23 C26 1.252 . S
O24 Mg14 2.251 . S
O24 Mg17 2.079 . S
O24 C26 1.273 . S
C25 O21 1.246 . S
C25 O22 1.259 . S
C26 O23 1.252 . S
C26 O24 1.273 . S
O27 Mg14 2.010 . S
O27 C19 1.249 . S
Mg28 O29 2.028 . S
Mg28 O35 1.986 . S
Mg28 O37 2.114 . S
Mg28 O38 2.251 . S
Mg28 O41 2.010 . S
O29 Mg28 2.028 . S
O29 C32 1.250 . S
O30 Mg31 2.028 . S
O30 C32 1.248 . S
Mg31 O30 2.028 . S
Mg31 O36 2.032 . S
Mg31 O38 2.079 . S
C32 O29 1.250 . S
C32 O30 1.248 . S
C33 O34 1.264 . S
C33 O41 1.249 . S
O34 C33 1.264 . S
O35 Mg28 1.986 . S
O35 C39 1.246 . S
O36 Mg31 2.032 . S
O36 C39 1.259 . S
O37 Mg28 2.114 . S
O37 C40 1.252 . S
O38 Mg28 2.251 . S
O38 Mg31 2.079 . S
O38 C40 1.273 . S
C39 O35 1.246 . S
C39 O36 1.259 . S
C40 O37 1.252 . S
C40 O38 1.273 . S
O41 Mg28 2.010 . S
O41 C33 1.249 . S
Mg42 O43 2.028 1_554 S
Mg42 O49 1.986 . S
Mg42 O51 2.114 . S
Mg42 O52 2.251 1_554 S
Mg42 O55 2.010 . S
O43 Mg42 2.028 1_556 S
O43 C46 1.250 . S
O44 Mg45 2.028 . S
O44 C46 1.248 . S
Mg45 O44 2.028 . S
Mg45 O50 2.032 . S
Mg45 O52 2.079 . S
C46 O43 1.250 . S
C46 O44 1.248 . S
C47 O48 1.264 . S
C47 O55 1.249 . S
O48 C47 1.264 . S
O49 Mg42 1.986 . S
O49 C53 1.246 1_554 S
O50 Mg45 2.032 . S
O50 C53 1.259 . S
O51 Mg42 2.114 . S
O51 C54 1.252 1_554 S
O52 Mg42 2.251 1_556 S
O52 Mg45 2.079 . S
O52 C54 1.273 . S
C53 O49 1.246 1_556 S
C53 O50 1.259 . S
C54 O51 1.252 1_556 S
C54 O52 1.273 . S
O55 Mg42 2.010 . S
O55 C47 1.249 . S
Mg56 O57 2.028 . S
Mg56 O63 1.986 . S
Mg56 O65 2.114 1_455 S
Mg56 O66 2.251 1_455 S
Mg56 O69 2.010 . S
O57 Mg56 2.028 . S
O57 C60 1.250 . S
O58 Mg59 2.028 . S
O58 C60 1.248 . S
Mg59 O58 2.028 . S
Mg59 O64 2.032 . S
Mg59 O66 2.079 1_455 S
C60 O57 1.250 . S
C60 O58 1.248 . S
C61 O62 1.264 . S
C61 O69 1.249 . S
O62 C61 1.264 . S
O63 Mg56 1.986 . S
O63 C67 1.246 . S
O64 Mg59 2.032 . S
O64 C67 1.259 . S
O65 Mg56 2.114 1_655 S
O65 C68 1.252 . S
O66 Mg56 2.251 1_655 S
O66 Mg59 2.079 1_655 S
O66 C68 1.273 . S
C67 O63 1.246 . S
C67 O64 1.259 . S
C68 O65 1.252 . S
C68 O66 1.273 . S
O69 Mg56 2.010 . S
O69 C61 1.249 . S
Mg70 O71 2.028 . S
Mg70 O77 1.986 . S
Mg70 O79 2.114 . S
Mg70 O80 2.251 . S
Mg70 O83 2.010 . S
O71 Mg70 2.028 . S
O71 C74 1.250 . S
O72 Mg73 2.028 . S
O72 C74 1.248 . S
Mg73 O72 2.028 . S
Mg73 O78 2.032 . S
Mg73 O80 2.079 . S
C74 O71 1.250 . S
C74 O72 1.248 . S
C75 O76 1.264 . S
C75 O83 1.249 1_556 S
O76 C75 1.264 . S
O77 Mg70 1.986 . S
O77 C81 1.246 . S
O78 Mg73 2.032 . S
O78 C81 1.259 . S
O79 Mg70 2.114 . S
O79 C82 1.252 . S
O80 Mg70 2.251 . S
O80 Mg73 2.079 . S
O80 C82 1.273 . S
C81 O77 1.246 . S
C81 O78 1.259 . S
C82 O79 1.252 . S
C82 O80 1.273 . S
O83 Mg70 2.010 . S
O83 C75 1.249 1_554 S
Mg84 O85 2.028 . S
Mg84 O91 1.986 . S
Mg84 O93 2.114 . S
Mg84 O94 2.251 . S
Mg84 O97 2.010 . S
O85 Mg84 2.028 . S
O85 C88 1.250 . S
O86 Mg87 2.028 . S
O86 C88 1.248 . S
Mg87 O86 2.028 . S
Mg87 O92 2.032 . S
Mg87 O94 2.079 . S
C88 O85 1.250 . S
C88 O86 1.248 . S
C89 O90 1.264 . S
C89 O97 1.249 . S
O90 C89 1.264 . S
O91 Mg84 1.986 . S
O91 C95 1.246 . S
O92 Mg87 2.032 . S
O92 C95 1.259 . S
O93 Mg84 2.114 . S
O93 C96 1.252 . S
O94 Mg84 2.251 . S
O94 Mg87 2.079 . S
O94 C96 1.273 . S
C95 O91 1.246 . S
C95 O92 1.259 . S
C96 O93 1.252 . S
C96 O94 1.273 . S
O97 Mg84 2.010 . S
O97 C89 1.249 . S
Mg98 O99 2.028 . S
Mg98 O105 1.986 . S
Mg98 O107 2.114 . S
Mg98 O108 2.251 . S
Mg98 O111 2.010 . S
O99 Mg98 2.028 . S
O99 C102 1.250 . S
O100 Mg101 2.028 . S
O100 C102 1.248 . S
Mg101 O100 2.028 . S
Mg101 O106 2.032 . S
Mg101 O108 2.079 . S
C102 O99 1.250 . S
C102 O100 1.248 . S
C103 O104 1.264 . S
C103 O111 1.249 . S
O104 C103 1.264 . S
O105 Mg98 1.986 . S
O105 C109 1.246 . S
O106 Mg101 2.032 . S
O106 C109 1.259 . S
O107 Mg98 2.114 . S
O107 C110 1.252 . S
O108 Mg98 2.251 . S
O108 Mg101 2.079 . S
O108 C110 1.273 . S
C109 O105 1.246 . S
C109 O106 1.259 . S
C110 O107 1.252 . S
C110 O108 1.273 . S
O111 Mg98 2.010 . S
O111 C103 1.249 . S
Mg112 O113 2.028 . S
Mg112 O119 1.986 . S
Mg112 O121 2.114 . S
Mg112 O122 2.251 . S
Mg112 O125 2.010 . S
O113 Mg112 2.028 . S
O113 C116 1.250 . S
O114 Mg115 2.028 . S
O114 C116 1.248 . S
Mg115 O114 2.028 . S
Mg115 O120 2.032 . S
Mg115 O122 2.079 . S
C116 O113 1.250 . S
C116 O114 1.248 . S
C117 O118 1.264 . S
C117 O125 1.249 . S
O118 C117 1.264 . S
O119 Mg112 1.986 . S
O119 C123 1.246 . S
O120 Mg115 2.032 . S
O120 C123 1.259 . S
O121 Mg112 2.114 . S
O121 C124 1.252 . S
O122 Mg112 2.251 . S
O122 Mg115 2.079 . S
O122 C124 1.273 . S
C123 O119 1.246 . S
C123 O120 1.259 . S
C124 O121 1.252 . S
C124 O122 1.273 . S
O125 Mg112 2.010 . S
O125 C117 1.249 . S
Mg126 O127 2.028 . S
Mg126 O133 1.986 . S
Mg126 O135 2.114 . S
Mg126 O136 2.251 . S
Mg126 O139 2.010 . S
O127 Mg126 2.028 . S
O127 C130 1.250 . S
O128 Mg129 2.028 . S
O128 C130 1.248 . S
Mg129 O128 2.028 . S
Mg129 O134 2.032 . S
Mg129 O136 2.079 . S
C130 O127 1.250 . S
C130 O128 1.248 . S
C131 O132 1.264 . S
C131 O139 1.249 1_556 S
O132 C131 1.264 . S
O133 Mg126 1.986 . S
O133 C137 1.246 . S
O134 Mg129 2.032 . S
O134 C137 1.259 . S
O135 Mg126 2.114 . S
O135 C138 1.252 . S
O136 Mg126 2.251 . S
O136 Mg129 2.079 . S
O136 C138 1.273 . S
C137 O133 1.246 . S
C137 O134 1.259 . S
C138 O135 1.252 . S
C138 O136 1.273 . S
O139 Mg126 2.010 . S
O139 C131 1.249 1_554 S
Mg140 O141 2.028 1_554 S
Mg140 O147 1.986 . S
Mg140 O149 2.114 . S
Mg140 O150 2.251 1_554 S
Mg140 O153 2.010 . S
O141 Mg140 2.028 1_556 S
O141 C144 1.250 . S
O142 Mg143 2.028 . S
O142 C144 1.248 . S
Mg143 O142 2.028 . S
Mg143 O148 2.032 . S
Mg143 O150 2.079 . S
C144 O141 1.250 . S
C144 O142 1.248 . S
C145 O146 1.264 . S
C145 O153 1.249 . S
O146 C145 1.264 . S
O147 Mg140 1.986 . S
O147 C151 1.246 1_554 S
O148 Mg143 2.032 . S
O148 C151 1.259 . S
O149 Mg140 2.114 . S
O149 C152 1.252 1_554 S
O150 Mg140 2.251 1_556 S
O150 Mg143 2.079 . S
O150 C152 1.273 . S
C151 O147 1.246 1_556 S
C151 O148 1.259 . S
C152 O149 1.252 1_556 S
C152 O150 1.273 . S
O153 Mg140 2.010 . S
O153 C145 1.249 . S
Mg154 O155 2.028 . S
Mg154 O161 1.986 . S
Mg154 O163 2.114 . S
Mg154 O164 2.251 . S
Mg154 O167 2.010 . S
O155 Mg154 2.028 . S
O155 C158 1.250 . S
O156 Mg157 2.028 . S
O156 C158 1.248 . S
Mg157 O156 2.028 . S
Mg157 O162 2.032 . S
Mg157 O164 2.079 . S
C158 O155 1.250 . S
C158 O156 1.248 . S
C159 O160 1.264 . S
C159 O167 1.249 . S
O160 C159 1.264 . S
O161 Mg154 1.986 . S
O161 C165 1.246 . S
O162 Mg157 2.032 . S
O162 C165 1.259 . S
O163 Mg154 2.114 . S
O163 C166 1.252 . S
O164 Mg154 2.251 . S
O164 Mg157 2.079 . S
O164 C166 1.273 . S
C165 O161 1.246 . S
C165 O162 1.259 . S
C166 O163 1.252 . S
C166 O164 1.273 . S
O167 Mg154 2.010 . S
O167 C159 1.249 . S
Mg168 O169 2.028 . S
Mg168 O175 1.986 . S
Mg168 O177 2.114 . S
Mg168 O178 2.251 . S
Mg168 O181 2.010 . S
O169 Mg168 2.028 . S
O169 C172 1.250 . S
O170 Mg171 2.028 . S
O170 C172 1.248 . S
Mg171 O170 2.028 . S
Mg171 O176 2.032 . S
Mg171 O178 2.079 . S
C172 O169 1.250 . S
C172 O170 1.248 . S
C173 O174 1.264 . S
C173 O181 1.249 . S
O174 C173 1.264 . S
O175 Mg168 1.986 . S
O175 C179 1.246 . S
O176 Mg171 2.032 . S
O176 C179 1.259 . S
O177 Mg168 2.114 . S
O177 C180 1.252 . S
O178 Mg168 2.251 . S
O178 Mg171 2.079 . S
O178 C180 1.273 . S
C179 O175 1.246 . S
C179 O176 1.259 . S
C180 O177 1.252 . S
C180 O178 1.273 . S
O181 Mg168 2.010 . S
O181 C173 1.249 . S
Mg182 O183 2.028 . S
Mg182 O189 1.986 1_455 S
Mg182 O191 2.114 . S
Mg182 O192 2.251 . S
Mg182 O195 2.010 . S
O183 Mg182 2.028 . S
O183 C186 1.250 . S
O184 Mg185 2.028 . S
O184 C186 1.248 . S
Mg185 O184 2.028 . S
Mg185 O190 2.032 1_455 S
Mg185 O192 2.079 . S
C186 O183 1.250 . S
C186 O184 1.248 . S
C187 O188 1.264 . S
C187 O195 1.249 . S
O188 C187 1.264 . S
O189 Mg182 1.986 1_655 S
O189 C193 1.246 . S
O190 Mg185 2.032 1_655 S
O190 C193 1.259 . S
O191 Mg182 2.114 . S
O191 C194 1.252 . S
O192 Mg182 2.251 . S
O192 Mg185 2.079 . S
O192 C194 1.273 . S
C193 O189 1.246 . S
C193 O190 1.259 . S
C194 O191 1.252 . S
C194 O192 1.273 . S
O195 Mg182 2.010 . S
O195 C187 1.249 . S
Mg196 O197 2.028 . S
Mg196 O203 1.986 . S
Mg196 O205 2.114 . S
Mg196 O206 2.251 . S
Mg196 O209 2.010 . S
O197 Mg196 2.028 . S
O197 C200 1.250 . S
O198 Mg199 2.028 . S
O198 C200 1.248 . S
Mg199 O198 2.028 . S
Mg199 O204 2.032 . S
Mg199 O206 2.079 . S
C200 O197 1.250 . S
C200 O198 1.248 . S
C201 O202 1.264 . S
C201 O209 1.249 . S
O202 C201 1.264 . S
O203 Mg196 1.986 . S
O203 C207 1.246 . S
O204 Mg199 2.032 . S
O204 C207 1.259 . S
O205 Mg196 2.114 . S
O205 C208 1.252 . S
O206 Mg196 2.251 . S
O206 Mg199 2.079 . S
O206 C208 1.273 . S
C207 O203 1.246 . S
C207 O204 1.259 . S
C208 O205 1.252 . S
C208 O206 1.273 . S
O209 Mg196 2.010 . S
O209 C201 1.249 . S
Mg210 O211 2.028 . S
Mg210 O217 1.986 1_455 S
Mg210 O219 2.114 . S
Mg210 O220 2.251 . S
Mg210 O223 2.010 . S
O211 Mg210 2.028 . S
O211 C214 1.250 . S
O212 Mg213 2.028 . S
O212 C214 1.248 . S
Mg213 O212 2.028 . S
Mg213 O218 2.032 1_455 S
Mg213 O220 2.079 . S
C214 O211 1.250 . S
C214 O212 1.248 . S
C215 O216 1.264 . S
C215 O223 1.249 . S
O216 C215 1.264 . S
O217 Mg210 1.986 1_655 S
O217 C221 1.246 . S
O218 Mg213 2.032 1_655 S
O218 C221 1.259 . S
O219 Mg210 2.114 . S
O219 C222 1.252 . S
O220 Mg210 2.251 . S
O220 Mg213 2.079 . S
O220 C222 1.273 . S
C221 O217 1.246 . S
C221 O218 1.259 . S
C222 O219 1.252 . S
C222 O220 1.273 . S
O223 Mg210 2.010 . S
O223 C215 1.249 . S
H224 C236 0.930 . S
H225 C238 0.930 . S
H226 C239 0.930 . S
H227 C243 0.959 . S
H228 C243 0.959 . S
H229 C243 0.961 . S
H230 C244 0.960 . S
H231 C244 0.961 . S
H232 C244 0.959 . S
H233 C247 0.929 . S
H234 C248 0.931 . S
H235 C250 0.930 . S
C236 H224 0.930 . S
C236 C237 1.399 . S
C236 C241 1.399 . S
C237 C236 1.399 . S
C237 C238 1.376 . S
C238 H225 0.930 . S
C238 C237 1.376 . S
C238 C239 1.388 . S
C239 H226 0.930 . S
C239 C238 1.388 . S
C239 C240 1.390 . S
C240 C239 1.390 . S
C240 C241 1.394 . S
C240 C246 1.465 . S
C241 C236 1.399 . S
C241 C240 1.394 . S
C241 C242 1.516 . S
C242 C241 1.516 . S
C242 C243 1.502 . S
C242 C244 1.561 . S
C242 C245 1.526 . S
C243 H227 0.959 . S
C243 H228 0.959 . S
C243 H229 0.961 . S
C243 C242 1.502 . S
C244 H230 0.960 . S
C244 H231 0.961 . S
C244 H232 0.959 . S
C244 C242 1.561 . S
C245 C242 1.526 . S
C245 C246 1.396 . S
C245 C250 1.390 . S
C246 C240 1.465 . S
C246 C245 1.396 . S
C246 C247 1.399 . S
C247 H233 0.929 . S
C247 C246 1.399 . S
C247 C248 1.385 . S
C248 H234 0.931 . S
C248 C247 1.385 . S
C248 C249 1.389 . S
C249 C248 1.389 . S
C249 C250 1.387 . S
C250 H235 0.930 . S
C250 C245 1.390 . S
C250 C249 1.387 . S
H251 C263 0.930 . S
H252 C265 0.930 . S
H253 C266 0.930 . S
H254 C270 0.959 . S
H255 C270 0.959 . S
H256 C270 0.961 . S
H257 C271 0.960 . S
H258 C271 0.961 . S
H259 C271 0.959 . S
H260 C274 0.929 . S
H261 C275 0.931 . S
H262 C277 0.930 . S
C263 H251 0.930 . S
C263 C264 1.399 . S
C263 C268 1.399 . S
C264 C263 1.399 . S
C264 C265 1.376 . S
C265 H252 0.930 . S
C265 C264 1.376 . S
C265 C266 1.388 . S
C266 H253 0.930 . S
C266 C265 1.388 . S
C266 C267 1.390 . S
C267 C266 1.390 . S
C267 C268 1.394 . S
C267 C273 1.465 . S
C268 C263 1.399 . S
C268 C267 1.394 . S
C268 C269 1.516 . S
C269 C268 1.516 . S
C269 C270 1.502 . S
C269 C271 1.561 . S
C269 C272 1.526 . S
C270 H254 0.959 . S
C270 H255 0.959 . S
C270 H256 0.961 . S
C270 C269 1.502 . S
C271 H257 0.960 . S
C271 H258 0.961 . S
C271 H259 0.959 . S
C271 C269 1.561 . S
C272 C269 1.526 . S
C272 C273 1.396 . S
C272 C277 1.390 . S
C273 C267 1.465 . S
C273 C272 1.396 . S
C273 C274 1.399 . S
C274 H260 0.929 . S
C274 C273 1.399 . S
C274 C275 1.385 . S
C275 H261 0.931 . S
C275 C274 1.385 . S
C275 C276 1.389 . S
C276 C275 1.389 . S
C276 C277 1.387 . S
C277 H262 0.930 . S
C277 C272 1.390 . S
C277 C276 1.387 . S
H278 C290 0.930 . S
H279 C292 0.930 . S
H280 C293 0.930 . S
H281 C297 0.959 . S
H282 C297 0.959 . S
H283 C297 0.961 . S
H284 C298 0.960 . S
H285 C298 0.961 . S
H286 C298 0.959 . S
H287 C301 0.929 . S
H288 C302 0.931 . S
H289 C304 0.930 . S
C290 H278 0.930 . S
C290 C291 1.399 . S
C290 C295 1.399 . S
C291 C290 1.399 . S
C291 C292 1.376 . S
C292 H279 0.930 . S
C292 C291 1.376 . S
C292 C293 1.388 . S
C293 H280 0.930 . S
C293 C292 1.388 . S
C293 C294 1.390 . S
C294 C293 1.390 . S
C294 C295 1.394 . S
C294 C300 1.465 . S
C295 C290 1.399 . S
C295 C294 1.394 . S
C295 C296 1.516 . S
C296 C295 1.516 . S
C296 C297 1.502 . S
C296 C298 1.561 . S
C296 C299 1.526 . S
C297 H281 0.959 . S
C297 H282 0.959 . S
C297 H283 0.961 . S
C297 C296 1.502 . S
C298 H284 0.960 . S
C298 H285 0.961 . S
C298 H286 0.959 . S
C298 C296 1.561 . S
C299 C296 1.526 . S
C299 C300 1.396 . S
C299 C304 1.390 . S
C300 C294 1.465 . S
C300 C299 1.396 . S
C300 C301 1.399 . S
C301 H287 0.929 . S
C301 C300 1.399 . S
C301 C302 1.385 . S
C302 H288 0.931 . S
C302 C301 1.385 . S
C302 C303 1.389 . S
C303 C302 1.389 . S
C303 C304 1.387 . S
C304 H289 0.930 . S
C304 C299 1.390 . S
C304 C303 1.387 . S
H305 C317 0.930 . S
H306 C319 0.930 . S
H307 C320 0.930 . S
H308 C324 0.959 . S
H309 C324 0.959 . S
H310 C324 0.961 . S
H311 C325 0.960 . S
H312 C325 0.961 . S
H313 C325 0.959 . S
H314 C328 0.929 . S
H315 C329 0.931 . S
H316 C331 0.930 . S
C317 H305 0.930 . S
C317 C318 1.399 1_554 S
C317 C322 1.399 1_554 S
C318 C317 1.399 1_556 S
C318 C319 1.376 . S
C319 H306 0.930 . S
C319 C318 1.376 . S
C319 C320 1.388 . S
C320 H307 0.930 . S
C320 C319 1.388 . S
C320 C321 1.390 . S
C321 C320 1.390 . S
C321 C322 1.394 . S
C321 C327 1.465 . S
C322 C317 1.399 1_556 S
C322 C321 1.394 . S
C322 C323 1.516 1_556 S
C323 C322 1.516 1_554 S
C323 C324 1.502 . S
C323 C325 1.561 . S
C323 C326 1.526 1_554 S
C324 H308 0.959 . S
C324 H309 0.959 . S
C324 H310 0.961 . S
C324 C323 1.502 . S
C325 H311 0.960 . S
C325 H312 0.961 . S
C325 H313 0.959 . S
C325 C323 1.561 . S
C326 C323 1.526 1_556 S
C326 C327 1.396 . S
C326 C331 1.390 . S
C327 C321 1.465 . S
C327 C326 1.396 . S
C327 C328 1.399 . S
C328 H314 0.929 . S
C328 C327 1.399 . S
C328 C329 1.385 . S
C329 H315 0.931 . S
C329 C328 1.385 . S
C329 C330 1.389 . S
C330 C329 1.389 . S
C330 C331 1.387 . S
C331 H316 0.930 . S
C331 C326 1.390 . S
C331 C330 1.387 . S
H332 C344 0.930 . S
H333 C346 0.930 . S
H334 C347 0.930 . S
H335 C351 0.959 . S
H336 C351 0.959 . S
H337 C351 0.961 . S
H338 C352 0.960 . S
H339 C352 0.961 . S
H340 C352 0.959 1_554 S
H341 C355 0.929 . S
H342 C356 0.924 1_554 S
H343 C358 0.930 . S
C344 H332 0.930 . S
C344 C345 1.399 . S
C344 C349 1.399 . S
C345 C344 1.399 . S
C345 C346 1.376 . S
C346 H333 0.930 . S
C346 C345 1.376 . S
C346 C347 1.388 . S
C347 H334 0.930 . S
C347 C346 1.388 . S
C347 C348 1.390 . S
C348 C347 1.390 . S
C348 C349 1.394 . S
C348 C354 1.465 . S
C349 C344 1.399 . S
C349 C348 1.394 . S
C349 C350 1.516 . S
C350 C349 1.516 . S
C350 C351 1.502 . S
C350 C352 1.561 . S
C350 C353 1.526 . S
C351 H335 0.959 . S
C351 H336 0.959 . S
C351 H337 0.961 . S
C351 C350 1.502 . S
C352 H338 0.960 . S
C352 H339 0.961 . S
C352 H340 0.959 1_556 S
C352 C350 1.561 . S
C353 C350 1.526 . S
C353 C354 1.396 . S
C353 C358 1.390 . S
C354 C348 1.465 . S
C354 C353 1.396 . S
C354 C355 1.399 . S
C355 H341 0.929 . S
C355 C354 1.399 . S
C355 C356 1.388 . S
C356 H342 0.924 1_556 S
C356 C355 1.388 . S
C356 C357 1.393 . S
C357 C356 1.393 . S
C357 C358 1.387 . S
C358 H343 0.930 . S
C358 C353 1.390 . S
C358 C357 1.387 . S
H359 C371 0.930 . S
H360 C373 0.930 . S
H361 C374 0.930 . S
H362 C378 0.959 . S
H363 C378 0.959 . S
H364 C378 0.961 . S
H365 C379 0.960 . S
H366 C379 0.961 . S
H367 C379 0.959 . S
H368 C382 0.929 . S
H369 C383 0.931 . S
H370 C385 0.930 . S
C371 H359 0.930 . S
C371 C372 1.399 . S
C371 C376 1.399 . S
C372 C371 1.399 . S
C372 C373 1.376 . S
C373 H360 0.930 . S
C373 C372 1.376 . S
C373 C374 1.388 . S
C374 H361 0.930 . S
C374 C373 1.388 . S
C374 C375 1.390 . S
C375 C374 1.390 . S
C375 C376 1.394 . S
C375 C381 1.465 . S
C376 C371 1.399 . S
C376 C375 1.394 . S
C376 C377 1.516 . S
C377 C376 1.516 . S
C377 C378 1.502 . S
C377 C379 1.561 . S
C377 C380 1.526 . S
C378 H362 0.959 . S
C378 H363 0.959 . S
C378 H364 0.961 . S
C378 C377 1.502 . S
C379 H365 0.960 . S
C379 H366 0.961 . S
C379 H367 0.959 . S
C379 C377 1.561 . S
C380 C377 1.526 . S
C380 C381 1.396 . S
C380 C385 1.390 . S
C381 C375 1.465 . S
C381 C380 1.396 . S
C381 C382 1.399 . S
C382 H368 0.929 . S
C382 C381 1.399 . S
C382 C383 1.385 . S
C383 H369 0.931 . S
C383 C382 1.385 . S
C383 C384 1.389 . S
C384 C383 1.389 . S
C384 C385 1.387 . S
C385 H370 0.930 . S
C385 C380 1.390 . S
C385 C384 1.387 . S
H386 C398 0.930 . S
H387 C400 0.930 . S
H388 C401 0.930 . S
H389 C405 0.959 . S
H390 C405 0.959 . S
H391 C405 0.961 . S
H392 C406 0.960 . S
H393 C406 0.961 . S
H394 C406 0.959 . S
H395 C409 0.929 . S
H396 C410 0.931 . S
H397 C412 0.930 . S
C398 H386 0.930 . S
C398 C399 1.399 . S
C398 C403 1.399 . S
C399 C398 1.399 . S
C399 C400 1.376 . S
C400 H387 0.930 . S
C400 C399 1.376 . S
C400 C401 1.388 . S
C401 H388 0.930 . S
C401 C400 1.388 . S
C401 C402 1.390 . S
C402 C401 1.390 . S
C402 C403 1.394 . S
C402 C408 1.465 . S
C403 C398 1.399 . S
C403 C402 1.394 . S
C403 C404 1.516 . S
C404 C403 1.516 . S
C404 C405 1.502 . S
C404 C406 1.561 . S
C404 C407 1.526 . S
C405 H389 0.959 . S
C405 H390 0.959 . S
C405 H391 0.961 . S
C405 C404 1.502 . S
C406 H392 0.960 . S
C406 H393 0.961 . S
C406 H394 0.959 . S
C406 C404 1.561 . S
C407 C404 1.526 . S
C407 C408 1.396 . S
C407 C412 1.390 . S
C408 C402 1.465 . S
C408 C407 1.396 . S
C408 C409 1.399 . S
C409 H395 0.929 . S
C409 C408 1.399 . S
C409 C410 1.385 . S
C410 H396 0.931 . S
C410 C409 1.385 . S
C410 C411 1.389 . S
C411 C410 1.389 . S
C411 C412 1.387 . S
C412 H397 0.930 . S
C412 C407 1.390 . S
C412 C411 1.387 . S
H413 C425 0.930 . S
H414 C427 0.930 . S
H415 C428 0.930 . S
H416 C432 0.959 . S
H417 C432 0.959 . S
H418 C432 0.961 . S
H419 C433 0.960 . S
H420 C433 0.961 . S
H421 C433 0.959 . S
H422 C436 0.929 . S
H423 C437 0.931 . S
H424 C439 0.930 . S
C425 H413 0.930 . S
C425 C426 1.399 . S
C425 C430 1.399 . S
C426 C425 1.399 . S
C426 C427 1.376 . S
C427 H414 0.930 . S
C427 C426 1.376 . S
C427 C428 1.388 . S
C428 H415 0.930 . S
C428 C427 1.388 . S
C428 C429 1.390 . S
C429 C428 1.390 . S
C429 C430 1.394 . S
C429 C435 1.465 . S
C430 C425 1.399 . S
C430 C429 1.394 . S
C430 C431 1.516 . S
C431 C430 1.516 . S
C431 C432 1.502 . S
C431 C433 1.561 . S
C431 C434 1.526 . S
C432 H416 0.959 . S
C432 H417 0.959 . S
C432 H418 0.961 . S
C432 C431 1.502 . S
C433 H419 0.960 . S
C433 H420 0.961 . S
C433 H421 0.959 . S
C433 C431 1.561 . S
C434 C431 1.526 . S
C434 C435 1.396 . S
C434 C439 1.390 . S
C435 C429 1.465 . S
C435 C434 1.396 . S
C435 C436 1.399 . S
C436 H422 0.929 . S
C436 C435 1.399 . S
C436 C437 1.385 . S
C437 H423 0.931 . S
C437 C436 1.385 . S
C437 C438 1.389 . S
C438 C437 1.389 . S
C438 C439 1.387 . S
C439 H424 0.930 . S
C439 C434 1.390 . S
C439 C438 1.387 . S
H440 C452 0.930 . S
H441 C454 0.930 . S
H442 C455 0.930 . S
H443 C459 0.959 . S
H444 C459 0.959 . S
H445 C459 0.961 . S
H446 C460 0.960 . S
H447 C460 0.961 . S
H448 C460 0.959 . S
H449 C463 0.929 . S
H450 C464 0.931 . S
H451 C466 0.930 1_554 S
C452 H440 0.930 . S
C452 C453 1.399 . S
C452 C457 1.399 . S
C453 C452 1.399 . S
C453 C454 1.376 . S
C454 H441 0.930 . S
C454 C453 1.376 . S
C454 C455 1.388 . S
C455 H442 0.930 . S
C455 C454 1.388 . S
C455 C456 1.390 . S
C456 C455 1.390 . S
C456 C457 1.394 . S
C456 C462 1.465 . S
C457 C452 1.399 . S
C457 C456 1.394 . S
C457 C458 1.516 . S
C458 C457 1.516 . S
C458 C459 1.502 1_556 S
C458 C460 1.561 . S
C458 C461 1.526 . S
C459 H443 0.959 . S
C459 H444 0.959 . S
C459 H445 0.961 . S
C459 C458 1.502 1_554 S
C460 H446 0.960 . S
C460 H447 0.961 . S
C460 H448 0.959 . S
C460 C458 1.561 . S
C461 C458 1.526 . S
C461 C462 1.396 . S
C461 C466 1.390 . S
C462 C456 1.465 . S
C462 C461 1.396 . S
C462 C463 1.399 . S
C463 H449 0.929 . S
C463 C462 1.399 . S
C463 C464 1.385 . S
C464 H450 0.931 . S
C464 C463 1.385 . S
C464 C465 1.389 . S
C465 C464 1.389 . S
C465 C466 1.387 . S
C466 H451 0.930 1_556 S
C466 C461 1.390 . S
C466 C465 1.387 . S
H467 C479 0.930 . S
H468 C481 0.930 . S
H469 C482 0.930 . S
H470 C486 0.959 . S
H471 C486 0.959 . S
H472 C486 0.961 . S
H473 C487 0.960 . S
H474 C487 0.961 . S
H475 C487 0.959 . S
H476 C490 0.929 . S
H477 C491 0.931 . S
H478 C493 0.930 . S
C479 H467 0.930 . S
C479 C480 1.399 . S
C479 C484 1.399 . S
C480 C479 1.399 . S
C480 C481 1.376 . S
C481 H468 0.930 . S
C481 C480 1.376 . S
C481 C482 1.388 . S
C482 H469 0.930 . S
C482 C481 1.388 . S
C482 C483 1.390 . S
C483 C482 1.390 . S
C483 C484 1.394 . S
C483 C489 1.465 . S
C484 C479 1.399 . S
C484 C483 1.394 . S
C484 C485 1.516 . S
C485 C484 1.516 . S
C485 C486 1.502 . S
C485 C487 1.561 . S
C485 C488 1.526 . S
C486 H470 0.959 . S
C486 H471 0.959 . S
C486 H472 0.961 . S
C486 C485 1.502 . S
C487 H473 0.960 . S
C487 H474 0.961 . S
C487 H475 0.959 . S
C487 C485 1.561 . S
C488 C485 1.526 . S
C488 C489 1.396 . S
C488 C493 1.390 . S
C489 C483 1.465 . S
C489 C488 1.396 . S
C489 C490 1.399 . S
C490 H476 0.929 . S
C490 C489 1.399 . S
C490 C491 1.385 . S
C491 H477 0.931 . S
C491 C490 1.385 . S
C491 C492 1.389 . S
C492 C491 1.389 . S
C492 C493 1.387 . S
C493 H478 0.930 . S
C493 C488 1.390 . S
C493 C492 1.387 . S
H494 C506 0.930 . S
H495 C508 0.930 . S
H496 C509 0.930 . S
H497 C513 0.959 . S
H498 C513 0.959 . S
H499 C513 0.961 . S
H500 C514 0.960 . S
H501 C514 0.961 . S
H502 C514 0.959 . S
H503 C517 0.929 . S
H504 C518 0.931 . S
H505 C520 0.930 . S
C506 H494 0.930 . S
C506 C507 1.399 . S
C506 C511 1.399 . S
C507 C506 1.399 . S
C507 C508 1.376 . S
C508 H495 0.930 . S
C508 C507 1.376 . S
C508 C509 1.388 . S
C509 H496 0.930 . S
C509 C508 1.388 . S
C509 C510 1.390 . S
C510 C509 1.390 . S
C510 C511 1.394 . S
C510 C516 1.465 . S
C511 C506 1.399 . S
C511 C510 1.394 . S
C511 C512 1.516 . S
C512 C511 1.516 . S
C512 C513 1.502 . S
C512 C514 1.561 . S
C512 C515 1.526 . S
C513 H497 0.959 . S
C513 H498 0.959 . S
C513 H499 0.961 . S
C513 C512 1.502 . S
C514 H500 0.960 . S
C514 H501 0.961 . S
C514 H502 0.959 . S
C514 C512 1.561 . S
C515 C512 1.526 . S
C515 C516 1.396 . S
C515 C520 1.390 . S
C516 C510 1.465 . S
C516 C515 1.396 . S
C516 C517 1.399 . S
C517 H503 0.929 . S
C517 C516 1.399 . S
C517 C518 1.385 . S
C518 H504 0.931 . S
C518 C517 1.385 . S
C518 C519 1.389 . S
C519 C518 1.389 . S
C519 C520 1.387 . S
C520 H505 0.930 . S
C520 C515 1.390 . S
C520 C519 1.387 . S
H521 C533 0.930 . S
H522 C535 0.930 . S
H523 C536 0.930 . S
H524 C540 0.959 . S
H525 C540 0.959 . S
H526 C540 0.961 . S
H527 C541 0.960 . S
H528 C541 0.961 . S
H529 C541 0.959 . S
H530 C544 0.929 . S
H531 C545 0.931 . S
H532 C547 0.930 . S
C533 H521 0.930 . S
C533 C534 1.399 . S
C533 C538 1.399 . S
C534 C533 1.399 . S
C534 C535 1.376 . S
C535 H522 0.930 . S
C535 C534 1.376 . S
C535 C536 1.388 . S
C536 H523 0.930 . S
C536 C535 1.388 . S
C536 C537 1.390 . S
C537 C536 1.390 . S
C537 C538 1.394 . S
C537 C543 1.465 . S
C538 C533 1.399 . S
C538 C537 1.394 . S
C538 C539 1.516 . S
C539 C538 1.516 . S
C539 C540 1.502 . S
C539 C541 1.561 . S
C539 C542 1.526 . S
C540 H524 0.959 . S
C540 H525 0.959 . S
C540 H526 0.961 . S
C540 C539 1.502 . S
C541 H527 0.960 . S
C541 H528 0.961 . S
C541 H529 0.959 . S
C541 C539 1.561 . S
C542 C539 1.526 . S
C542 C543 1.396 . S
C542 C547 1.390 . S
C543 C537 1.465 . S
C543 C542 1.396 . S
C543 C544 1.399 . S
C544 H530 0.929 . S
C544 C543 1.399 . S
C544 C545 1.385 . S
C545 H531 0.931 . S
C545 C544 1.385 . S
C545 C546 1.389 . S
C546 C545 1.389 . S
C546 C547 1.387 . S
C547 H532 0.930 . S
C547 C542 1.390 . S
C547 C546 1.387 . S
H548 C560 0.930 . S
H549 C562 0.930 . S
H550 C563 0.930 . S
H551 C567 0.959 . S
H552 C567 0.959 . S
H553 C567 0.961 . S
H554 C568 0.960 . S
H555 C568 0.961 . S
H556 C568 0.959 . S
H557 C571 0.929 . S
H558 C572 0.931 . S
H559 C574 0.930 . S
C560 H548 0.930 . S
C560 C561 1.399 . S
C560 C565 1.399 . S
C561 C560 1.399 . S
C561 C562 1.376 . S
C562 H549 0.930 . S
C562 C561 1.376 . S
C562 C563 1.388 . S
C563 H550 0.930 . S
C563 C562 1.388 . S
C563 C564 1.390 . S
C564 C563 1.390 . S
C564 C565 1.394 . S
C564 C570 1.465 . S
C565 C560 1.399 . S
C565 C564 1.394 . S
C565 C566 1.516 . S
C566 C565 1.516 . S
C566 C567 1.502 . S
C566 C568 1.561 . S
C566 C569 1.526 . S
C567 H551 0.959 . S
C567 H552 0.959 . S
C567 H553 0.961 . S
C567 C566 1.502 . S
C568 H554 0.960 . S
C568 H555 0.961 . S
C568 H556 0.959 . S
C568 C566 1.561 . S
C569 C566 1.526 . S
C569 C570 1.396 . S
C569 C574 1.390 . S
C570 C564 1.465 . S
C570 C569 1.396 . S
C570 C571 1.399 . S
C571 H557 0.929 . S
C571 C570 1.399 . S
C571 C572 1.385 . S
C572 H558 0.931 . S
C572 C571 1.385 . S
C572 C573 1.389 . S
C573 C572 1.389 . S
C573 C574 1.387 . S
C574 H559 0.930 . S
C574 C569 1.390 . S
C574 C573 1.387 . S
H575 C587 0.930 . S
H576 C589 0.930 . S
H577 C590 0.928 1_554 S
H578 C594 0.959 . S
H579 C594 0.959 . S
H580 C594 0.961 . S
H581 C595 0.960 . S
H582 C595 0.961 . S
H583 C595 0.959 . S
H584 C598 0.929 . S
H585 C599 0.931 . S
H586 C601 0.930 . S
C587 H575 0.930 . S
C587 C588 1.399 . S
C587 C592 1.399 . S
C588 C587 1.399 . S
C588 C589 1.376 . S
C589 H576 0.930 . S
C589 C588 1.376 . S
C589 C590 1.388 . S
C590 H577 0.928 1_556 S
C590 C589 1.388 . S
C590 C591 1.390 . S
C591 C590 1.390 . S
C591 C592 1.394 . S
C591 C597 1.465 . S
C592 C587 1.399 . S
C592 C591 1.394 . S
C592 C593 1.516 . S
C593 C592 1.516 . S
C593 C594 1.502 . S
C593 C595 1.561 . S
C593 C596 1.526 . S
C594 H578 0.959 . S
C594 H579 0.959 . S
C594 H580 0.961 . S
C594 C593 1.502 . S
C595 H581 0.960 . S
C595 H582 0.961 . S
C595 H583 0.959 . S
C595 C593 1.561 . S
C596 C593 1.526 . S
C596 C597 1.396 . S
C596 C601 1.390 . S
C597 C591 1.465 . S
C597 C596 1.396 . S
C597 C598 1.399 1_556 S
C598 H584 0.929 . S
C598 C597 1.399 1_554 S
C598 C599 1.385 . S
C599 H585 0.931 . S
C599 C598 1.385 . S
C599 C600 1.389 1_554 S
C600 C599 1.389 1_556 S
C600 C601 1.387 . S
C601 H586 0.930 . S
C601 C596 1.390 . S
C601 C600 1.387 . S
H602 C614 0.930 . S
H603 C616 0.930 . S
H604 C617 0.930 . S
H605 C621 0.959 . S
H606 C621 0.959 . S
H607 C621 0.961 . S
H608 C622 0.960 . S
H609 C622 0.961 . S
H610 C622 0.959 . S
H611 C625 0.929 . S
H612 C626 0.931 . S
H613 C628 0.930 . S
C614 H602 0.930 . S
C614 C615 1.399 . S
C614 C619 1.399 . S
C615 C614 1.399 . S
C615 C616 1.376 . S
C616 H603 0.930 . S
C616 C615 1.376 . S
C616 C617 1.388 . S
C617 H604 0.930 . S
C617 C616 1.388 . S
C617 C618 1.390 . S
C618 C617 1.390 . S
C618 C619 1.394 . S
C618 C624 1.465 . S
C619 C614 1.399 . S
C619 C618 1.394 . S
C619 C620 1.516 . S
C620 C619 1.516 . S
C620 C621 1.502 . S
C620 C622 1.561 . S
C620 C623 1.526 . S
C621 H605 0.959 . S
C621 H606 0.959 . S
C621 H607 0.961 . S
C621 C620 1.502 . S
C622 H608 0.960 . S
C622 H609 0.961 . S
C622 H610 0.959 . S
C622 C620 1.561 . S
C623 C620 1.526 . S
C623 C624 1.396 . S
C623 C628 1.390 . S
C624 C618 1.465 . S
C624 C623 1.396 . S
C624 C625 1.399 . S
C625 H611 0.929 . S
C625 C624 1.399 . S
C625 C626 1.385 . S
C626 H612 0.931 . S
C626 C625 1.385 . S
C626 C627 1.389 . S
C627 C626 1.389 . S
C627 C628 1.387 . S
C628 H613 0.930 . S
C628 C623 1.390 . S
C628 C627 1.387 . S
H629 C641 0.930 . S
H630 C643 0.930 . S
H631 C644 0.930 . S
H632 C648 0.959 . S
H633 C648 0.959 . S
H634 C648 0.961 . S
H635 C649 0.960 . S
H636 C649 0.961 . S
H637 C649 0.959 . S
H638 C652 0.929 . S
H639 C653 0.931 . S
H640 C655 0.930 . S
C641 H629 0.930 . S
C641 C642 1.399 . S
C641 C646 1.399 . S
C642 C641 1.399 . S
C642 C643 1.376 . S
C643 H630 0.930 . S
C643 C642 1.376 . S
C643 C644 1.388 . S
C644 H631 0.930 . S
C644 C643 1.388 . S
C644 C645 1.390 . S
C645 C644 1.390 . S
C645 C646 1.394 . S
C645 C651 1.465 . S
C646 C641 1.399 . S
C646 C645 1.394 . S
C646 C647 1.516 . S
C647 C646 1.516 . S
C647 C648 1.502 . S
C647 C649 1.561 . S
C647 C650 1.526 . S
C648 H632 0.959 . S
C648 H633 0.959 . S
C648 H634 0.961 . S
C648 C647 1.502 . S
C649 H635 0.960 . S
C649 H636 0.961 . S
C649 H637 0.959 . S
C649 C647 1.561 . S
C650 C647 1.526 . S
C650 C651 1.396 . S
C650 C655 1.390 . S
C651 C645 1.465 . S
C651 C650 1.396 . S
C651 C652 1.399 . S
C652 H638 0.929 . S
C652 C651 1.399 . S
C652 C653 1.385 . S
C653 H639 0.931 . S
C653 C652 1.385 . S
C653 C654 1.389 . S
C654 C653 1.389 . S
C654 C655 1.387 . S
C655 H640 0.930 . S
C655 C650 1.390 . S
C655 C654 1.387 . S
H656 C668 0.930 . S
H657 C670 0.930 . S
H658 C671 0.930 . S
H659 C675 0.959 1_654 S
H660 C675 0.959 . S
H661 C675 0.961 1_554 S
H662 C676 0.960 . S
H663 C676 0.961 1_556 S
H664 C676 0.959 . S
H665 C679 0.929 . S
H666 C680 0.931 . S
H667 C682 0.930 . S
C668 H656 0.930 . S
C668 C669 1.399 . S
C668 C673 1.399 . S
C669 C668 1.399 . S
C669 C670 1.376 . S
C670 H657 0.930 . S
C670 C669 1.376 . S
C670 C671 1.388 . S
C671 H658 0.930 . S
C671 C670 1.388 . S
C671 C672 1.390 . S
C672 C671 1.390 . S
C672 C673 1.394 . S
C672 C678 1.465 . S
C673 C668 1.399 . S
C673 C672 1.394 . S
C673 C674 1.516 . S
C674 C673 1.516 . S
C674 C675 1.502 1_554 S
C674 C676 1.561 . S
C674 C677 1.526 . S
C675 H659 0.959 1_456 S
C675 H660 0.959 . S
C675 H661 0.961 1_556 S
C675 C674 1.502 1_556 S
C676 H662 0.960 . S
C676 H663 0.961 1_554 S
C676 H664 0.959 . S
C676 C674 1.561 . S
C677 C674 1.526 . S
C677 C678 1.396 . S
C677 C682 1.390 1_554 S
C678 C672 1.465 . S
C678 C677 1.396 . S
C678 C679 1.399 . S
C679 H665 0.929 . S
C679 C678 1.399 . S
C679 C680 1.385 . S
C680 H666 0.931 . S
C680 C679 1.385 . S
C680 C681 1.389 1_554 S
C681 C680 1.389 1_556 S
C681 C682 1.387 . S
C682 H667 0.930 . S
C682 C677 1.390 1_556 S
C682 C681 1.387 . S
H683 C695 0.930 . S
H684 C697 0.930 . S
H685 C698 0.930 . S
H686 C702 0.959 . S
H687 C702 0.959 . S
H688 C702 0.961 . S
H689 C703 0.960 . S
H690 C703 0.961 . S
H691 C703 0.959 . S
H692 C706 0.929 . S
H693 C707 0.931 . S
H694 C709 0.930 . S
C695 H683 0.930 . S
C695 C696 1.399 . S
C695 C700 1.399 . S
C696 C695 1.399 . S
C696 C697 1.376 . S
C697 H684 0.930 . S
C697 C696 1.376 . S
C697 C698 1.388 . S
C698 H685 0.930 . S
C698 C697 1.388 . S
C698 C699 1.390 . S
C699 C698 1.390 . S
C699 C700 1.394 . S
C699 C705 1.465 . S
C700 C695 1.399 . S
C700 C699 1.394 . S
C700 C701 1.516 . S
C701 C700 1.516 . S
C701 C702 1.502 . S
C701 C703 1.561 . S
C701 C704 1.526 . S
C702 H686 0.959 . S
C702 H687 0.959 . S
C702 H688 0.961 . S
C702 C701 1.502 . S
C703 H689 0.960 . S
C703 H690 0.961 . S
C703 H691 0.959 . S
C703 C701 1.561 . S
C704 C701 1.526 . S
C704 C705 1.396 . S
C704 C709 1.390 . S
C705 C699 1.465 . S
C705 C704 1.396 . S
C705 C706 1.399 . S
C706 H692 0.929 . S
C706 C705 1.399 . S
C706 C707 1.385 . S
C707 H693 0.931 . S
C707 C706 1.385 . S
C707 C708 1.389 . S
C708 C707 1.389 . S
C708 C709 1.387 . S
C709 H694 0.930 . S
C709 C704 1.390 . S
C709 C708 1.387 . S
H710 C722 0.930 . S
H711 C724 0.930 . S
H712 C725 0.930 . S
H713 C729 0.959 . S
H714 C729 0.959 . S
H715 C729 0.961 . S
H716 C730 0.960 . S
H717 C730 0.961 . S
H718 C730 0.959 . S
H719 C733 0.929 . S
H720 C734 0.931 . S
H721 C736 0.930 . S
C722 H710 0.930 . S
C722 C723 1.399 . S
C722 C727 1.399 . S
C723 C722 1.399 . S
C723 C724 1.376 . S
C724 H711 0.930 . S
C724 C723 1.376 . S
C724 C725 1.388 . S
C725 H712 0.930 . S
C725 C724 1.388 . S
C725 C726 1.390 . S
C726 C725 1.390 . S
C726 C727 1.394 . S
C726 C732 1.465 . S
C727 C722 1.399 . S
C727 C726 1.394 . S
C727 C728 1.516 . S
C728 C727 1.516 . S
C728 C729 1.502 . S
C728 C730 1.561 . S
C728 C731 1.526 . S
C729 H713 0.959 . S
C729 H714 0.959 . S
C729 H715 0.961 . S
C729 C728 1.502 . S
C730 H716 0.960 . S
C730 H717 0.961 . S
C730 H718 0.959 . S
C730 C728 1.561 . S
C731 C728 1.526 . S
C731 C732 1.396 . S
C731 C736 1.390 . S
C732 C726 1.465 . S
C732 C731 1.396 . S
C732 C733 1.399 . S
C733 H719 0.929 . S
C733 C732 1.399 . S
C733 C734 1.385 . S
C734 H720 0.931 . S
C734 C733 1.385 . S
C734 C735 1.389 . S
C735 C734 1.389 . S
C735 C736 1.387 . S
C736 H721 0.930 . S
C736 C731 1.390 . S
C736 C735 1.387 . S
H737 C749 0.930 . S
H738 C751 0.930 . S
H739 C752 0.930 . S
H740 C756 0.959 . S
H741 C756 0.959 . S
H742 C756 0.961 . S
H743 C757 0.960 . S
H744 C757 0.961 . S
H745 C757 0.959 . S
H746 C760 0.929 . S
H747 C761 0.931 . S
H748 C763 0.930 . S
C749 H737 0.930 . S
C749 C750 1.399 . S
C749 C754 1.399 . S
C750 C749 1.399 . S
C750 C751 1.376 . S
C751 H738 0.930 . S
C751 C750 1.376 . S
C751 C752 1.388 . S
C752 H739 0.930 . S
C752 C751 1.388 . S
C752 C753 1.390 . S
C753 C752 1.390 . S
C753 C754 1.394 . S
C753 C759 1.465 . S
C754 C749 1.399 . S
C754 C753 1.394 . S
C754 C755 1.516 . S
C755 C754 1.516 . S
C755 C756 1.502 . S
C755 C757 1.561 . S
C755 C758 1.526 . S
C756 H740 0.959 . S
C756 H741 0.959 . S
C756 H742 0.961 . S
C756 C755 1.502 . S
C757 H743 0.960 . S
C757 H744 0.961 . S
C757 H745 0.959 . S
C757 C755 1.561 . S
C758 C755 1.526 . S
C758 C759 1.396 . S
C758 C763 1.390 . S
C759 C753 1.465 . S
C759 C758 1.396 . S
C759 C760 1.399 . S
C760 H746 0.929 . S
C760 C759 1.399 . S
C760 C761 1.385 . S
C761 H747 0.931 . S
C761 C760 1.385 . S
C761 C762 1.389 . S
C762 C761 1.389 . S
C762 C763 1.387 . S
C763 H748 0.930 . S
C763 C758 1.390 . S
C763 C762 1.387 . S
H764 C776 0.930 . S
H765 C778 0.930 . S
H766 C779 0.930 . S
H767 C783 0.959 . S
H768 C783 0.959 . S
H769 C783 0.961 . S
H770 C784 0.960 . S
H771 C784 0.961 . S
H772 C784 0.959 . S
H773 C787 0.929 . S
H774 C788 0.931 . S
H775 C790 0.930 . S
C776 H764 0.930 . S
C776 C777 1.399 . S
C776 C781 1.399 . S
C777 C776 1.399 . S
C777 C778 1.376 . S
C778 H765 0.930 . S
C778 C777 1.376 . S
C778 C779 1.388 . S
C779 H766 0.930 . S
C779 C778 1.388 . S
C779 C780 1.390 . S
C780 C779 1.390 . S
C780 C781 1.394 . S
C780 C786 1.465 . S
C781 C776 1.399 . S
C781 C780 1.394 . S
C781 C782 1.516 . S
C782 C781 1.516 . S
C782 C783 1.502 . S
C782 C784 1.561 . S
C782 C785 1.526 . S
C783 H767 0.959 . S
C783 H768 0.959 . S
C783 H769 0.961 . S
C783 C782 1.502 . S
C784 H770 0.960 . S
C784 H771 0.961 . S
C784 H772 0.959 . S
C784 C782 1.561 . S
C785 C782 1.526 . S
C785 C786 1.396 . S
C785 C790 1.390 . S
C786 C780 1.465 . S
C786 C785 1.396 . S
C786 C787 1.399 . S
C787 H773 0.929 . S
C787 C786 1.399 . S
C787 C788 1.385 . S
C788 H774 0.931 . S
C788 C787 1.385 . S
C788 C789 1.389 . S
C789 C788 1.389 . S
C789 C790 1.387 . S
C790 H775 0.930 . S
C790 C785 1.390 . S
C790 C789 1.387 . S
H791 C803 0.930 . S
H792 C805 0.930 . S
H793 C806 0.930 . S
H794 C810 0.959 . S
H795 C810 0.959 . S
H796 C810 0.961 . S
H797 C811 0.960 . S
H798 C811 0.961 . S
H799 C811 0.959 . S
H800 C814 0.929 . S
H801 C815 0.931 . S
H802 C817 0.930 . S
C803 H791 0.930 . S
C803 C804 1.399 . S
C803 C808 1.399 . S
C804 C803 1.399 . S
C804 C805 1.376 . S
C805 H792 0.930 . S
C805 C804 1.376 . S
C805 C806 1.388 . S
C806 H793 0.930 . S
C806 C805 1.388 . S
C806 C807 1.390 . S
C807 C806 1.390 . S
C807 C808 1.394 . S
C807 C813 1.465 . S
C808 C803 1.399 . S
C808 C807 1.394 . S
C808 C809 1.516 . S
C809 C808 1.516 . S
C809 C810 1.502 . S
C809 C811 1.561 . S
C809 C812 1.526 . S
C810 H794 0.959 . S
C810 H795 0.959 . S
C810 H796 0.961 . S
C810 C809 1.502 . S
C811 H797 0.960 . S
C811 H798 0.961 . S
C811 H799 0.959 . S
C811 C809 1.561 . S
C812 C809 1.526 . S
C812 C813 1.396 . S
C812 C817 1.390 . S
C813 C807 1.465 . S
C813 C812 1.396 . S
C813 C814 1.399 . S
C814 H800 0.929 . S
C814 C813 1.399 . S
C814 C815 1.385 . S
C815 H801 0.931 . S
C815 C814 1.385 . S
C815 C816 1.389 . S
C816 C815 1.389 . S
C816 C817 1.387 . S
C817 H802 0.930 . S
C817 C812 1.390 . S
C817 C816 1.387 . S
H818 C830 0.930 . S
H819 C832 0.930 . S
H820 C833 0.930 . S
H821 C837 0.959 . S
H822 C837 0.959 . S
H823 C837 0.961 . S
H824 C838 0.960 . S
H825 C838 0.961 . S
H826 C838 0.959 . S
H827 C841 0.929 . S
H828 C842 0.931 . S
H829 C844 0.930 . S
C830 H818 0.930 . S
C830 C831 1.399 . S
C830 C835 1.399 . S
C831 C830 1.399 . S
C831 C832 1.376 . S
C832 H819 0.930 . S
C832 C831 1.376 . S
C832 C833 1.388 . S
C833 H820 0.930 . S
C833 C832 1.388 . S
C833 C834 1.390 . S
C834 C833 1.390 . S
C834 C835 1.394 . S
C834 C840 1.440 1_565 S
C835 C830 1.399 . S
C835 C834 1.394 . S
C835 C836 1.516 1_565 S
C836 C835 1.516 1_545 S
C836 C837 1.502 . S
C836 C838 1.561 . S
C836 C839 1.526 . S
C837 H821 0.959 . S
C837 H822 0.959 . S
C837 H823 0.961 . S
C837 C836 1.502 . S
C838 H824 0.960 . S
C838 H825 0.961 . S
C838 H826 0.959 . S
C838 C836 1.561 . S
C839 C836 1.526 . S
C839 C840 1.429 . S
C839 C844 1.390 . S
C840 C834 1.440 1_545 S
C840 C839 1.429 . S
C840 C841 1.396 1_545 S
C841 H827 0.929 . S
C841 C840 1.396 1_565 S
C841 C842 1.385 1_565 S
C842 H828 0.931 . S
C842 C841 1.385 1_545 S
C842 C843 1.389 . S
C843 C842 1.389 . S
C843 C844 1.387 . S
C844 H829 0.930 . S
C844 C839 1.390 . S
C844 C843 1.387 . S
H845 C857 0.930 . S
H846 C859 0.930 . S
H847 C860 0.930 . S
H848 C864 0.959 . S
H849 C864 0.959 . S
H850 C864 0.961 1_556 S
H851 C865 0.960 . S
H852 C865 0.961 . S
H853 C865 0.959 1_554 S
H854 C868 0.929 . S
H855 C869 0.931 . S
H856 C871 0.930 . S
C857 H845 0.930 . S
C857 C858 1.399 . S
C857 C862 1.399 1_556 S
C858 C857 1.399 . S
C858 C859 1.376 1_556 S
C859 H846 0.930 . S
C859 C858 1.376 1_554 S
C859 C860 1.388 . S
C860 H847 0.930 . S
C860 C859 1.388 . S
C860 C861 1.390 . S
C861 C860 1.390 . S
C861 C862 1.394 . S
C861 C867 1.446 1_545 S
C862 C857 1.399 1_554 S
C862 C861 1.394 . S
C862 C863 1.516 1_545 S
C863 C862 1.516 1_565 S
C863 C864 1.502 1_455 S
C863 C865 1.561 1_554 S
C863 C866 1.526 . S
C864 H848 0.959 . S
C864 H849 0.959 . S
C864 H850 0.961 1_554 S
C864 C863 1.502 1_655 S
C865 H851 0.960 . S
C865 H852 0.961 . S
C865 H853 0.959 1_556 S
C865 C863 1.561 1_556 S
C866 C863 1.526 . S
C866 C867 1.422 . S
C866 C871 1.390 . S
C867 C861 1.446 1_565 S
C867 C866 1.422 . S
C867 C868 1.396 1_565 S
C868 H854 0.929 . S
C868 C867 1.396 1_545 S
C868 C869 1.385 1_545 S
C869 H855 0.931 . S
C869 C868 1.385 1_565 S
C869 C870 1.389 . S
C870 C869 1.389 . S
C870 C871 1.387 . S
C871 H856 0.930 . S
C871 C866 1.390 . S
C871 C870 1.387 . S
H872 C884 0.930 . S
H873 C886 0.930 . S
H874 C887 0.930 . S
H875 C891 0.959 . S
H876 C891 0.959 . S
H877 C891 0.961 . S
H878 C892 0.960 . S
H879 C892 0.961 . S
H880 C892 0.959 . S
H881 C895 0.929 . S
H882 C896 0.931 . S
H883 C898 0.930 . S
C884 H872 0.930 . S
C884 C885 1.399 . S
C884 C889 1.399 . S
C885 C884 1.399 . S
C885 C886 1.376 . S
C886 H873 0.930 . S
C886 C885 1.376 . S
C886 C887 1.388 . S
C887 H874 0.930 . S
C887 C886 1.388 . S
C887 C888 1.390 . S
C888 C887 1.390 . S
C888 C889 1.394 . S
C888 C894 1.465 . S
C889 C884 1.399 . S
C889 C888 1.394 . S
C889 C890 1.516 . S
C890 C889 1.516 . S
C890 C891 1.502 . S
C890 C892 1.561 1_455 S
C890 C893 1.526 . S
C891 H875 0.959 . S
C891 H876 0.959 . S
C891 H877 0.961 . S
C891 C890 1.502 . S
C892 H878 0.960 . S
C892 H879 0.961 . S
C892 H880 0.959 . S
C892 C890 1.561 1_655 S
C893 C890 1.526 . S
C893 C894 1.396 . S
C893 C898 1.390 . S
C894 C888 1.465 . S
C894 C893 1.396 . S
C894 C895 1.399 . S
C895 H881 0.929 . S
C895 C894 1.399 . S
C895 C896 1.385 . S
C896 H882 0.931 . S
C896 C895 1.385 . S
C896 C897 1.389 . S
C897 C896 1.389 . S
C897 C898 1.387 . S
C898 H883 0.930 . S
C898 C893 1.390 . S
C898 C897 1.387 . S
H899 C911 0.930 . S
H900 C913 0.930 . S
H901 C914 0.930 . S
H902 C918 0.959 . S
H903 C918 0.959 . S
H904 C918 0.961 . S
H905 C919 0.960 . S
H906 C919 0.961 . S
H907 C919 0.959 . S
H908 C922 0.929 . S
H909 C923 0.931 . S
H910 C925 0.930 . S
C911 H899 0.930 . S
C911 C912 1.399 . S
C911 C916 1.399 . S
C912 C911 1.399 . S
C912 C913 1.376 . S
C913 H900 0.930 . S
C913 C912 1.376 . S
C913 C914 1.388 . S
C914 H901 0.930 . S
C914 C913 1.388 . S
C914 C915 1.390 . S
C915 C914 1.390 . S
C915 C916 1.394 . S
C915 C921 1.465 . S
C916 C911 1.399 . S
C916 C915 1.394 . S
C916 C917 1.516 . S
C917 C916 1.516 . S
C917 C918 1.502 . S
C917 C919 1.561 . S
C917 C920 1.526 . S
C918 H902 0.959 . S
C918 H903 0.959 . S
C918 H904 0.961 . S
C918 C917 1.502 . S
C919 H905 0.960 . S
C919 H906 0.961 . S
C919 H907 0.959 . S
C919 C917 1.561 . S
C920 C917 1.526 . S
C920 C921 1.396 . S
C920 C925 1.390 . S
C921 C915 1.465 . S
C921 C920 1.396 . S
C921 C922 1.399 . S
C922 H908 0.929 . S
C922 C921 1.399 . S
C922 C923 1.385 . S
C923 H909 0.931 . S
C923 C922 1.385 . S
C923 C924 1.389 . S
C924 C923 1.389 . S
C924 C925 1.387 . S
C925 H910 0.930 . S
C925 C920 1.390 . S
C925 C924 1.387 . S
H926 C938 0.930 . S
H927 C940 0.930 . S
H928 C941 0.930 . S
H929 C945 0.959 . S
H930 C945 0.959 . S
H931 C945 0.961 . S
H932 C946 0.960 . S
H933 C946 0.961 . S
H934 C946 0.959 . S
H935 C949 0.929 . S
H936 C950 0.931 . S
H937 C952 0.930 1_554 S
C938 H926 0.930 . S
C938 C939 1.399 . S
C938 C943 1.399 . S
C939 C938 1.399 . S
C939 C940 1.376 . S
C940 H927 0.930 . S
C940 C939 1.376 . S
C940 C941 1.388 . S
C941 H928 0.930 . S
C941 C940 1.388 . S
C941 C942 1.390 . S
C942 C941 1.390 . S
C942 C943 1.394 . S
C942 C948 1.465 . S
C943 C938 1.399 . S
C943 C942 1.394 . S
C943 C944 1.516 . S
C944 C943 1.516 . S
C944 C945 1.502 . S
C944 C946 1.561 . S
C944 C947 1.526 . S
C945 H929 0.959 . S
C945 H930 0.959 . S
C945 H931 0.961 . S
C945 C944 1.502 . S
C946 H932 0.960 . S
C946 H933 0.961 . S
C946 H934 0.959 . S
C946 C944 1.561 . S
C947 C944 1.526 . S
C947 C948 1.396 . S
C947 C952 1.390 1_554 S
C948 C942 1.465 . S
C948 C947 1.396 . S
C948 C949 1.399 1_554 S
C949 H935 0.929 . S
C949 C948 1.399 1_556 S
C949 C950 1.385 . S
C950 H936 0.931 . S
C950 C949 1.385 . S
C950 C951 1.389 . S
C951 C950 1.389 . S
C951 C952 1.387 . S
C952 H937 0.930 1_556 S
C952 C947 1.390 1_556 S
C952 C951 1.387 . S
H953 C965 0.930 . S
H954 C967 0.930 . S
H955 C968 0.930 . S
H956 C972 0.959 . S
H957 C972 0.959 . S
H958 C972 0.961 . S
H959 C973 0.960 . S
H960 C973 0.961 . S
H961 C973 0.959 . S
H962 C976 0.929 . S
H963 C977 0.931 . S
H964 C979 0.930 . S
C965 H953 0.930 . S
C965 C966 1.399 . S
C965 C970 1.399 . S
C966 C965 1.399 . S
C966 C967 1.376 . S
C967 H954 0.930 . S
C967 C966 1.376 . S
C967 C968 1.388 . S
C968 H955 0.930 . S
C968 C967 1.388 . S
C968 C969 1.390 . S
C969 C968 1.390 . S
C969 C970 1.394 . S
C969 C975 1.465 . S
C970 C965 1.399 . S
C970 C969 1.394 . S
C970 C971 1.516 . S
C971 C970 1.516 . S
C971 C972 1.502 . S
C971 C973 1.561 . S
C971 C974 1.526 . S
C972 H956 0.959 . S
C972 H957 0.959 . S
C972 H958 0.961 . S
C972 C971 1.502 . S
C973 H959 0.960 . S
C973 H960 0.961 . S
C973 H961 0.959 . S
C973 C971 1.561 . S
C974 C971 1.526 . S
C974 C975 1.396 . S
C974 C979 1.390 . S
C975 C969 1.465 . S
C975 C974 1.396 . S
C975 C976 1.399 . S
C976 H962 0.929 . S
C976 C975 1.399 . S
C976 C977 1.385 . S
C977 H963 0.931 . S
C977 C976 1.385 . S
C977 C978 1.389 . S
C978 C977 1.389 . S
C978 C979 1.387 . S
C979 H964 0.930 . S
C979 C974 1.390 . S
C979 C978 1.387 . S
H980 C992 0.930 . S
H981 C994 0.930 . S
H982 C995 0.930 . S
H983 C999 0.959 . S
H984 C999 0.959 . S
H985 C999 0.961 . S
H986 C1000 0.960 . S
H987 C1000 0.961 . S
H988 C1000 0.959 . S
H989 C1003 0.929 . S
H990 C1004 0.931 . S
H991 C1006 0.930 . S
C992 H980 0.930 . S
C992 C993 1.399 . S
C992 C997 1.399 . S
C993 C992 1.399 . S
C993 C994 1.376 . S
C994 H981 0.930 . S
C994 C993 1.376 . S
C994 C995 1.388 . S
C995 H982 0.930 . S
C995 C994 1.388 . S
C995 C996 1.390 . S
C996 C995 1.390 . S
C996 C997 1.394 . S
C996 C1002 1.465 . S
C997 C992 1.399 . S
C997 C996 1.394 . S
C997 C998 1.516 . S
C998 C997 1.516 . S
C998 C999 1.502 . S
C998 C1000 1.561 . S
C998 C1001 1.526 . S
C999 H983 0.959 . S
C999 H984 0.959 . S
C999 H985 0.961 . S
C999 C998 1.502 . S
C1000 H986 0.960 . S
C1000 H987 0.961 . S
C1000 H988 0.959 . S
C1000 C998 1.561 . S
C1001 C998 1.526 . S
C1001 C1002 1.396 . S
C1001 C1006 1.390 . S
C1002 C996 1.465 . S
C1002 C1001 1.396 . S
C1002 C1003 1.399 . S
C1003 H989 0.929 . S
C1003 C1002 1.399 . S
C1003 C1004 1.385 . S
C1004 H990 0.931 . S
C1004 C1003 1.385 . S
C1004 C1005 1.389 . S
C1005 C1004 1.389 . S
C1005 C1006 1.387 . S
C1006 H991 0.930 . S
C1006 C1001 1.390 . S
C1006 C1005 1.387 . S
H1007 C1019 0.930 . S
H1008 C1021 0.930 . S
H1009 C1022 0.930 . S
H1010 C1026 0.959 . S
H1011 C1026 0.959 . S
H1012 C1026 0.961 . S
H1013 C1027 0.960 . S
H1014 C1027 0.961 . S
H1015 C1027 0.959 . S
H1016 C1030 0.929 . S
H1017 C1031 0.931 . S
H1018 C1033 0.930 . S
C1019 H1007 0.930 . S
C1019 C1020 1.399 . S
C1019 C1024 1.399 . S
C1020 C1019 1.399 . S
C1020 C1021 1.376 . S
C1021 H1008 0.930 . S
C1021 C1020 1.376 . S
C1021 C1022 1.388 . S
C1022 H1009 0.930 . S
C1022 C1021 1.388 . S
C1022 C1023 1.390 . S
C1023 C1022 1.390 . S
C1023 C1024 1.394 . S
C1023 C1029 1.465 . S
C1024 C1019 1.399 . S
C1024 C1023 1.394 . S
C1024 C1025 1.516 . S
C1025 C1024 1.516 . S
C1025 C1026 1.502 . S
C1025 C1027 1.561 . S
C1025 C1028 1.526 . S
C1026 H1010 0.959 . S
C1026 H1011 0.959 . S
C1026 H1012 0.961 . S
C1026 C1025 1.502 . S
C1027 H1013 0.960 . S
C1027 H1014 0.961 . S
C1027 H1015 0.959 . S
C1027 C1025 1.561 . S
C1028 C1025 1.526 . S
C1028 C1029 1.396 . S
C1028 C1033 1.390 . S
C1029 C1023 1.465 . S
C1029 C1028 1.396 . S
C1029 C1030 1.399 . S
C1030 H1016 0.929 . S
C1030 C1029 1.399 . S
C1030 C1031 1.385 . S
C1031 H1017 0.931 . S
C1031 C1030 1.385 . S
C1031 C1032 1.389 . S
C1032 C1031 1.389 . S
C1032 C1033 1.387 . S
C1033 H1018 0.930 . S
C1033 C1028 1.390 . S
C1033 C1032 1.387 . S
H1034 C1046 0.940 . S
H1035 C1048 0.930 . S
H1036 C1049 0.930 . S
H1037 C1053 0.959 . S
H1038 C1053 0.959 . S
H1039 C1053 0.961 . S
H1040 C1054 0.960 . S
H1041 C1054 0.961 . S
H1042 C1054 0.959 . S
H1043 C1057 0.929 . S
H1044 C1058 0.931 . S
H1045 C1060 0.930 1_554 S
C1046 H1034 0.940 . S
C1046 C1047 1.399 . S
C1046 C1051 1.399 . S
C1047 C1046 1.399 . S
C1047 C1048 1.376 . S
C1048 H1035 0.930 . S
C1048 C1047 1.376 . S
C1048 C1049 1.388 . S
C1049 H1036 0.930 . S
C1049 C1048 1.388 . S
C1049 C1050 1.390 . S
C1050 C1049 1.390 . S
C1050 C1051 1.394 . S
C1050 C1056 1.465 . S
C1051 C1046 1.399 . S
C1051 C1050 1.394 . S
C1051 C1052 1.516 1_565 S
C1052 C1051 1.516 1_545 S
C1052 C1053 1.502 . S
C1052 C1054 1.561 . S
C1052 C1055 1.526 . S
C1053 H1037 0.959 . S
C1053 H1038 0.959 . S
C1053 H1039 0.961 . S
C1053 C1052 1.502 . S
C1054 H1040 0.960 . S
C1054 H1041 0.961 . S
C1054 H1042 0.959 . S
C1054 C1052 1.561 . S
C1055 C1052 1.526 . S
C1055 C1056 1.396 1_545 S
C1055 C1060 1.390 1_554 S
C1056 C1050 1.465 . S
C1056 C1055 1.396 1_565 S
C1056 C1057 1.399 1_554 S
C1057 H1043 0.929 . S
C1057 C1056 1.399 1_556 S
C1057 C1058 1.385 1_565 S
C1058 H1044 0.931 . S
C1058 C1057 1.385 1_545 S
C1058 C1059 1.389 . S
C1059 C1058 1.389 . S
C1059 C1060 1.387 . S
C1060 H1045 0.930 1_556 S
C1060 C1055 1.390 1_556 S
C1060 C1059 1.387 . S
H1061 C1073 0.930 . S
H1062 C1075 0.930 . S
H1063 C1076 0.930 . S
H1064 C1080 0.959 1_655 S
H1065 C1080 0.959 . S
H1066 C1080 0.961 . S
H1067 C1081 0.960 . S
H1068 C1081 0.961 . S
H1069 C1081 0.959 . S
H1070 C1084 0.929 . S
H1071 C1085 0.931 . S
H1072 C1087 0.955 . S
C1073 H1061 0.930 . S
C1073 C1074 1.399 . S
C1073 C1078 1.399 . S
C1074 C1073 1.399 . S
C1074 C1075 1.376 . S
C1075 H1062 0.930 . S
C1075 C1074 1.376 . S
C1075 C1076 1.388 1_545 S
C1076 H1063 0.930 . S
C1076 C1075 1.388 1_565 S
C1076 C1077 1.390 . S
C1077 C1076 1.390 . S
C1077 C1078 1.394 1_565 S
C1077 C1083 1.465 . S
C1078 C1073 1.399 . S
C1078 C1077 1.394 1_545 S
C1078 C1079 1.516 . S
C1079 C1078 1.516 . S
C1079 C1080 1.502 . S
C1079 C1081 1.561 . S
C1079 C1082 1.526 1_545 S
C1080 H1064 0.959 1_455 S
C1080 H1065 0.959 . S
C1080 H1066 0.961 . S
C1080 C1079 1.502 . S
C1081 H1067 0.960 . S
C1081 H1068 0.961 . S
C1081 H1069 0.959 . S
C1081 C1079 1.561 . S
C1082 C1079 1.526 1_565 S
C1082 C1083 1.396 . S
C1082 C1087 1.390 . S
C1083 C1077 1.465 . S
C1083 C1082 1.396 . S
C1083 C1084 1.399 . S
C1084 H1070 0.929 . S
C1084 C1083 1.399 . S
C1084 C1085 1.385 . S
C1085 H1071 0.931 . S
C1085 C1084 1.385 . S
C1085 C1086 1.389 . S
C1086 C1085 1.389 . S
C1086 C1087 1.387 . S
C1087 H1072 0.955 . S
C1087 C1082 1.390 . S
C1087 C1086 1.387 . S
C237 C137 1.451 . S
C249 C11 1.395 . S
C264 C207 1.421 . S
C276 C25 1.466 . S
C291 C39 1.433 . S
C303 C123 1.467 . S
C318 C53 1.416 . S
C330 C221 1.465 . S
C345 C67 1.389 . S
C357 C151 1.420 . S
C372 C193 1.415 . S
C384 C81 1.392 . S
C399 C165 1.459 . S
C411 C95 1.403 . S
C426 C109 1.440 . S
C438 C179 1.465 . S
C453 C68 1.431 . S
C465 C54 1.422 . S
C480 C180 1.448 . S
C492 C124 1.437 . S
C507 C96 1.444 . S
C519 C26 1.431 . S
C534 C138 1.450 . S
C546 C194 1.441 . S
C561 C12 1.446 . S
C573 C82 1.434 . S
C588 C222 1.420 . S
C600 C152 1.427 . S
C615 C110 1.448 . S
C627 C40 1.437 . S
C642 C166 1.434 . S
C654 C208 1.447 . S
C669 C4 0.654 . S
C681 C60 0.475 . S
C696 C74 0.638 . S
C708 C18 0.530 . S
C723 C88 0.649 . S
C735 C32 0.478 . S
C750 C46 0.503 . S
C762 C102 0.615 . S
C777 C144 0.494 . S
C789 C116 0.624 . S
C804 C158 0.643 . S
C816 C130 0.522 . S
C831 C200 0.507 . S
C843 C172 0.650 . S
C858 C214 0.504 . S
C870 C186 0.651 . S
C885 C61 1.453 . S
C897 C5 1.317 . S
C912 C75 1.438 . S
C924 C19 1.355 . S
C939 C89 1.322 . S
C951 C33 1.453 . S
C966 C47 1.442 . S
C978 C103 1.349 . S
C993 C117 1.353 . S
C1005 C145 1.393 . S
C1020 C159 1.330 . S
C1032 C131 1.420 . S
C1047 C201 1.322 . S
C1059 C173 1.453 . S
C1074 C215 1.445 . S
C1086 C187 1.317 . S
