# Generated by pormake.
# Topology bsn, (6)-cn, num edge types: 1
# Building blocks:
#     Node 0, Type 0, BuildingBlock: MIDCAF_clean_sbu_0, # of connection points: 6
#     Node 1, Type 0, BuildingBlock: MIDCAF_clean_sbu_0, # of connection points: 6
#     Node 2, Type 0, BuildingBlock: MIDCAF_clean_sbu_0, # of connection points: 6
#     Node 3, Type 0, BuildingBlock: MIDCAF_clean_sbu_0, # of connection points: 6
#     Edge 4, Type (0, 0), BuildingBlock: MIFKUJ_clean_linker_0, # of connection points: 2
#     Edge 5, Type (0, 0), BuildingBlock: MIFKUJ_clean_linker_0, # of connection points: 2
#     Edge 6, Type (0, 0), BuildingBlock: MIFKUJ_clean_linker_0, # of connection points: 2
#     Edge 7, Type (0, 0), BuildingBlock: MIFKUJ_clean_linker_0, # of connection points: 2
#     Edge 8, Type (0, 0), BuildingBlock: MIFKUJ_clean_linker_0, # of connection points: 2
#     Edge 9, Type (0, 0), BuildingBlock: MIFKUJ_clean_linker_0, # of connection points: 2
#     Edge 10, Type (0, 0), BuildingBlock: MIFKUJ_clean_linker_0, # of connection points: 2
#     Edge 11, Type (0, 0), BuildingBlock: MIFKUJ_clean_linker_0, # of connection points: 2
#     Edge 12, Type (0, 0), BuildingBlock: MIFKUJ_clean_linker_0, # of connection points: 2
#     Edge 13, Type (0, 0), BuildingBlock: MIFKUJ_clean_linker_0, # of connection points: 2
#     Edge 14, Type (0, 0), BuildingBlock: MIFKUJ_clean_linker_0, # of connection points: 2
#     Edge 15, Type (0, 0), BuildingBlock: MIFKUJ_clean_linker_0, # of connection points: 2
# Relax obj value: 0.105
# Max RMSD: 0.165
# Mean RMSD: 0.163
data_MOF--net-bsn--node1-MIDCAF_clean_sbu_0--edge1-MIFKUJ_clean_linker_0
_symmetry_space_group_name_H-M    P1
_symmetry_Int_Tables_number       1
_symmetry_cell_setting            triclinic
loop_
_symmetry_equiv_pos_as_xyz
'x, y, z'
_cell_length_a     38.562866
_cell_length_b     38.524377
_cell_length_c     19.329501
_cell_angle_alpha  90.051246
_cell_angle_beta   95.148966
_cell_angle_gamma 89.798799
loop_
_atom_site_label
_atom_site_type_symbol
_atom_site_fract_x
_atom_site_fract_y
_atom_site_fract_z
_atom_type_partial_charge
Zn0 Zn 0.99466 0.21211 0.34058 0.0
Zn1 Zn 0.09253 0.29451 0.44704 0.0
Zn2 Zn 0.04572 0.252 0.38675 0.0
C3 C 0.03275 0.33357 0.42045 0.0
C4 C 0.11907 0.26958 0.32643 0.0
O5 O 0.04365 0.20585 0.45592 0.0
O6 O 1.00156 0.17308 0.40649 0.0
C7 C 0.96306 0.27438 0.35243 0.0
O8 O 0.02217 0.30455 0.39292 0.0
O9 O 0.06292 0.33619 0.45097 0.0
O10 O 0.12516 0.2916 0.3743 0.0
O11 O 0.09063 0.25188 0.32198 0.0
O12 O 0.95426 0.24312 0.3434 0.0
O13 O 0.99544 0.28241 0.36667 0.0
O14 O 0.06201 0.23327 0.28784 0.0
O15 O 0.01338 0.20666 0.24873 0.0
C16 C 0.04372 0.21687 0.23946 0.0
O17 O 0.06284 0.23247 0.49208 0.0
O18 O 0.10454 0.26816 0.53365 0.0
C19 C 0.02622 0.17728 0.45322 0.0
C20 C 0.08599 0.24174 0.54088 0.0
Zn21 Zn 1.00082 0.79763 0.52691 0.0
Zn22 Zn 0.08853 0.71602 0.65099 0.0
Zn23 Zn 0.04563 0.75627 0.59329 0.0
C24 C 0.12898 0.76766 0.61312 0.0
C25 C 0.05194 0.67656 0.5534 0.0
O26 O 1.00048 0.76308 0.65663 0.0
O27 O 0.96843 0.80339 0.59964 0.0
C28 C 0.06392 0.83344 0.54487 0.0
O29 O 0.09836 0.78165 0.60896 0.0
O30 O 0.13208 0.73519 0.61972 0.0
O31 O 0.06908 0.67207 0.61133 0.0
O32 O 0.04471 0.70756 0.53164 0.0
O33 O 0.03395 0.83547 0.51298 0.0
O34 O 0.07318 0.80601 0.58002 0.0
O35 O 0.02801 0.73358 0.49027 0.0
O36 O 0.98556 0.76803 0.44617 0.0
C37 C 1.00415 0.74129 0.44149 0.0
O38 O 0.02727 0.74399 0.69458 0.0
O39 O 0.07749 0.72658 0.74721 0.0
C40 C 0.97345 0.78303 0.65065 0.0
C41 C 0.04599 0.73497 0.75016 0.0
Zn42 Zn 0.52717 0.71861 0.80855 0.0
Zn43 Zn 0.61204 0.84172 0.99394 0.0
Zn44 Zn 0.55339 0.76643 0.88354 0.0
C45 C 0.57758 0.7691 0.02747 0.0
C46 C 0.53958 0.83585 0.91386 0.0
O47 O 0.58823 0.76282 0.80087 0.0
O48 O 0.56388 0.71868 0.74242 0.0
C49 C 0.54069 0.68672 0.93497 0.0
O50 O 0.5609 0.74645 0.98982 0.0
O51 O 0.58595 0.79603 0.99554 0.0
O52 O 0.56661 0.82387 0.94742 0.0
O53 O 0.52015 0.81324 0.88172 0.0
O54 O 0.52656 0.67964 0.87525 0.0
O55 O 0.55185 0.71776 0.94864 0.0
O56 O 0.50123 0.78748 0.84317 0.0
O57 O 0.48275 0.74285 0.77836 0.0
C58 C 0.47766 0.773 0.80126 0.0
O59 O 0.60738 0.78533 0.85833 0.0
O60 O 0.64048 0.82748 0.91507 0.0
C61 C 0.58716 0.74174 0.74918 0.0
C62 C 0.63533 0.80448 0.86713 0.0
Zn63 Zn 0.58204 0.21447 0.17706 0.0
Zn64 Zn 0.49823 0.30886 0.06176 0.0
Zn65 Zn 0.54013 0.2618 0.1209 0.0
C66 C 0.50699 0.25838 0.96176 0.0
C67 C 0.55907 0.34393 0.10311 0.0
O68 O 0.51663 0.24241 0.21352 0.0
O69 O 0.55239 0.20004 0.25063 0.0
C70 C 0.56235 0.1886 0.04748 0.0
O71 O 0.52667 0.24527 0.01262 0.0
O72 O 0.49087 0.28647 0.96958 0.0
O73 O 0.52913 0.34922 0.07316 0.0
O74 O 0.56837 0.31314 0.12401 0.0
O75 O 0.58434 0.18226 0.09827 0.0
O76 O 0.54416 0.21687 0.04683 0.0
O77 O 0.59084 0.28766 0.15449 0.0
O78 O 0.62204 0.24488 0.20529 0.0
C79 C 0.61916 0.27637 0.18777 0.0
O80 O 0.49187 0.26402 0.1764 0.0
O81 O 0.46033 0.3057 0.12291 0.0
C82 C 0.52521 0.21772 0.25675 0.0
C83 C 0.46385 0.28254 0.16911 0.0
H84 H 1.0051 0.37139 0.51989 0.0
H85 H 0.9903 0.43323 0.51113 0.0
H86 H 1.0041 0.43088 0.29227 0.0
H87 H 0.01754 0.36856 0.30055 0.0
H88 H 0.05284 0.47314 0.38733 0.0
H89 H 0.93221 0.45631 0.32071 0.0
H90 H 0.87447 0.43038 0.32997 0.0
H91 H 0.87009 0.47683 0.53102 0.0
H92 H 0.92815 0.50243 0.52371 0.0
H93 H 0.05688 0.65657 0.41825 0.0
H94 H 0.03787 0.60086 0.36579 0.0
H95 H 0.99505 0.57179 0.55597 0.0
H96 H 0.01392 0.62711 0.60796 0.0
H97 H 0.95437 0.54764 0.44527 0.0
H98 H 0.07523 0.55258 0.52765 0.0
H99 H 0.13581 0.57323 0.53439 0.0
H100 H 0.14325 0.54284 0.32248 0.0
H101 H 0.08236 0.52254 0.31415 0.0
C102 C 1.00302 0.38371 0.46931 0.0
C103 C 0.012 0.36543 0.41074 0.0
C104 C 0.99473 0.419 0.46433 0.0
C105 C 0.99621 0.43654 0.40108 0.0
C106 C 1.00254 0.41766 0.34134 0.0
C107 C 0.00996 0.38212 0.346 0.0
C108 C 0.99817 0.47489 0.4014 0.0
C109 C 0.03108 0.48974 0.39764 0.0
C110 C 0.96999 0.49596 0.41761 0.0
C111 C 0.9347 0.48118 0.42177 0.0
C112 C 0.91908 0.46081 0.36715 0.0
C113 C 0.88626 0.44618 0.37202 0.0
C114 C 0.86863 0.45194 0.43106 0.0
C115 C 0.88377 0.4724 0.48529 0.0
C116 C 0.91663 0.48702 0.48077 0.0
C117 C 0.0424 0.63869 0.44766 0.0
C118 C 0.03673 0.64595 0.51682 0.0
C119 C 0.03167 0.60685 0.41789 0.0
C120 C 0.01504 0.58209 0.45693 0.0
C121 C 1.00758 0.59047 0.52463 0.0
C122 C 0.01862 0.62194 0.55447 0.0
C123 C 0.00924 0.54594 0.43175 0.0
C124 C 0.97583 0.53139 0.43202 0.0
C125 C 0.03726 0.52471 0.41435 0.0
C126 C 0.07382 0.53711 0.41946 0.0
C127 C 0.08952 0.55089 0.48204 0.0
C128 C 0.12399 0.56238 0.48629 0.0
C129 C 0.14327 0.55966 0.42869 0.0
C130 C 0.1282 0.5452 0.3669 0.0
C131 C 0.09368 0.53378 0.36234 0.0
H132 H 0.16997 0.56853 0.43209 0.0
H133 H 0.84324 0.44057 0.43475 0.0
H134 H 0.66059 0.74148 0.82911 0.0
H135 H 0.71832 0.73049 0.78919 0.0
H136 H 0.73586 0.84084 0.77855 0.0
H137 H 0.67836 0.85181 0.8174 0.0
H138 H 0.76338 0.80826 0.6745 0.0
H139 H 0.76327 0.79483 0.92253 0.0
H140 H 0.74496 0.76965 0.03066 0.0
H141 H 0.77914 0.66889 0.9695 0.0
H142 H 0.79719 0.69343 0.86042 0.0
H143 H 0.94075 0.83443 0.71507 0.0
H144 H 0.88263 0.8309 0.75622 0.0
H145 H 0.8821 0.72024 0.72273 0.0
H146 H 0.94003 0.72384 0.68029 0.0
H147 H 0.8455 0.74468 0.84223 0.0
H148 H 0.85 0.76197 0.5967 0.0
H149 H 0.87103 0.79037 0.4942 0.0
H150 H 0.83008 0.88803 0.55749 0.0
H151 H 0.80935 0.86029 0.66113 0.0
C152 C 0.67629 0.76331 0.81569 0.0
C153 C 0.66508 0.7975 0.82618 0.0
C154 C 0.70943 0.75702 0.79385 0.0
C155 C 0.73167 0.78486 0.78231 0.0
C156 C 0.71926 0.81896 0.78749 0.0
C157 C 0.68638 0.82521 0.80957 0.0
C158 C 0.7687 0.77912 0.76993 0.0
C159 C 0.78128 0.79447 0.71141 0.0
C160 C 0.79209 0.76069 0.81758 0.0
C161 C 0.78106 0.74585 0.88284 0.0
C162 C 0.76654 0.76724 0.9318 0.0
C163 C 0.75628 0.7531 0.99333 0.0
C164 C 0.76075 0.71767 0.00682 0.0
C165 C 0.77559 0.69632 0.95888 0.0
C166 C 0.78582 0.71032 0.89719 0.0
C167 C 0.92881 0.80919 0.71937 0.0
C168 C 0.94503 0.77929 0.69592 0.0
C169 C 0.89561 0.80721 0.74247 0.0
C170 C 0.878 0.77536 0.7416 0.0
C171 C 0.89538 0.74499 0.72412 0.0
C172 C 0.92861 0.74701 0.70066 0.0
C173 C 0.84007 0.77485 0.74841 0.0
C174 C 0.82741 0.75821 0.80535 0.0
C175 C 0.8166 0.79249 0.69995 0.0
C176 C 0.82839 0.80911 0.63695 0.0
C177 C 0.8457 0.78955 0.58902 0.0
C178 C 0.85755 0.80552 0.5307 0.0
C179 C 0.85195 0.841 0.51941 0.0
C180 C 0.83441 0.86055 0.56633 0.0
C181 C 0.82259 0.84471 0.62485 0.0
H182 H 0.86115 0.85332 0.47423 0.0
H183 H 0.75282 0.70678 0.05452 0.0
H184 H 0.557 0.38806 0.21065 0.0
H185 H 0.56854 0.45022 0.20346 0.0
H186 H 0.61901 0.43315 0.01608 0.0
H187 H 0.6065 0.37096 0.02242 0.0
H188 H 0.61565 0.50229 0.1858 0.0
H189 H 0.58025 0.48506 0.89283 0.0
H190 H 0.55323 0.44164 0.81095 0.0
H191 H 0.49334 0.40222 0.97034 0.0
H192 H 0.51963 0.44569 0.05272 0.0
H193 H 0.60166 0.66999 0.01107 0.0
H194 H 0.61667 0.61289 0.06188 0.0
H195 H 0.50969 0.58081 0.01979 0.0
H196 H 0.49537 0.63687 0.9658 0.0
H197 H 0.54725 0.53654 0.9668 0.0
H198 H 0.55435 0.5924 0.19 0.0
H199 H 0.57494 0.635 0.27967 0.0
H200 H 0.67985 0.59849 0.2722 0.0
H201 H 0.65998 0.55601 0.1817 0.0
C202 C 0.57241 0.39733 0.17028 0.0
C203 C 0.58104 0.37476 0.11729 0.0
C204 C 0.57884 0.43298 0.16595 0.0
C205 C 0.59386 0.44657 0.10827 0.0
C206 C 0.60696 0.42334 0.06061 0.0
C207 C 0.60019 0.38769 0.06462 0.0
C208 C 0.58868 0.48405 0.0904 0.0
C209 C 0.60103 0.50993 0.13764 0.0
C210 C 0.56869 0.49409 0.02856 0.0
C211 C 0.55224 0.4683 0.97903 0.0
C212 C 0.56124 0.46717 0.91024 0.0
C213 C 0.54605 0.44256 0.86378 0.0
C214 C 0.5217 0.41909 0.88552 0.0
C215 C 0.5123 0.42032 0.95363 0.0
C216 C 0.52733 0.44493 0.00021 0.0
C217 C 0.58122 0.65106 0.01497 0.0
C218 C 0.54736 0.65774 0.98454 0.0
C219 C 0.5898 0.61834 0.04387 0.0
C220 C 0.56443 0.59213 0.04421 0.0
C221 C 0.52994 0.60021 0.01937 0.0
C222 C 0.52162 0.63242 0.98913 0.0
C223 C 0.5739 0.55533 0.06239 0.0
C224 C 0.56231 0.52934 0.0148 0.0
C225 C 0.59369 0.54543 0.12473 0.0
C226 C 0.6057 0.5712 0.17863 0.0
C227 C 0.58185 0.59366 0.20701 0.0
C228 C 0.59338 0.61773 0.2581 0.0
C229 C 0.62866 0.61937 0.28171 0.0
C230 C 0.65252 0.59712 0.25396 0.0
C231 C 0.64114 0.57303 0.20279 0.0
H232 H 0.6375 0.63781 0.32169 0.0
H233 H 0.51003 0.40002 0.84952 0.0
H234 H 0.92586 0.30229 0.45162 0.0
H235 H 0.86646 0.32522 0.43036 0.0
H236 H 0.87637 0.32473 0.20995 0.0
H237 H 0.93581 0.3022 0.23142 0.0
H238 H 0.82726 0.37575 0.24969 0.0
H239 H 0.85362 0.25302 0.27622 0.0
H240 H 0.88075 0.20229 0.33745 0.0
H241 H 0.8237 0.22375 0.51359 0.0
H242 H 0.79669 0.27502 0.45373 0.0
H243 H 0.66186 0.30888 0.10308 0.0
H244 H 0.72117 0.32911 0.13844 0.0
H245 H 0.70329 0.3136 0.35349 0.0
H246 H 0.64485 0.29219 0.31777 0.0
H247 H 0.75644 0.27752 0.32379 0.0
H248 H 0.72083 0.3951 0.28341 0.0
H249 H 0.69295 0.44359 0.21611 0.0
H250 H 0.76524 0.4311 0.06139 0.0
H251 H 0.79314 0.38204 0.12702 0.0
C252 C 0.91602 0.30902 0.39906 0.0
C253 C 0.93534 0.30077 0.34315 0.0
C254 C 0.882 0.32192 0.38682 0.0
C255 C 0.86671 0.32612 0.31841 0.0
C256 C 0.88755 0.32181 0.26308 0.0
C257 C 0.92157 0.30898 0.27538 0.0
C258 C 0.8281 0.32696 0.30409 0.0
C259 C 0.81163 0.35439 0.26587 0.0
C260 C 0.80767 0.29911 0.32523 0.0
C261 C 0.8235 0.26806 0.36092 0.0
C262 C 0.84708 0.24706 0.32822 0.0
C263 C 0.86241 0.21821 0.36264 0.0
C264 C 0.85404 0.20986 0.42947 0.0
C265 C 0.83023 0.2303 0.4619 0.0
C266 C 0.81491 0.25926 0.42778 0.0
C267 C 0.67024 0.31124 0.15788 0.0
C268 C 0.64891 0.29923 0.20786 0.0
C269 C 0.70417 0.32274 0.1782 0.0
C270 C 0.71694 0.32277 0.24882 0.0
C271 C 0.69425 0.31369 0.29877 0.0
C272 C 0.66074 0.30174 0.27845 0.0
C273 C 0.75493 0.32664 0.27016 0.0
C274 C 0.77157 0.29955 0.30893 0.0
C275 C 0.7752 0.3547 0.24892 0.0
C276 C 0.75893 0.38466 0.20996 0.0
C277 C 0.73065 0.40251 0.2348 0.0
C278 C 0.71484 0.43012 0.19696 0.0
C279 C 0.72728 0.44038 0.13446 0.0
C280 C 0.75562 0.42311 0.1098 0.0
C281 C 0.77147 0.39541 0.14734 0.0
H282 H 0.71498 0.46174 0.10521 0.0
H283 H 0.86593 0.18751 0.45604 0.0
H284 H 0.44022 0.219 0.20703 0.0
H285 H 0.38125 0.2065 0.23897 0.0
H286 H 0.35939 0.31633 0.24487 0.0
H287 H 0.41786 0.32877 0.21337 0.0
H288 H 0.32818 0.28273 0.3439 0.0
H289 H 0.34037 0.27041 0.09766 0.0
H290 H 0.3655 0.24531 0.99579 0.0
H291 H 0.33152 0.14387 0.05144 0.0
H292 H 0.3066 0.16837 0.15428 0.0
H293 H 0.15466 0.31438 0.25215 0.0
H294 H 0.21454 0.306 0.22279 0.0
H295 H 0.21059 0.19863 0.28393 0.0
H296 H 0.15086 0.2072 0.31512 0.0
H297 H 0.25491 0.2209 0.15872 0.0
H298 H 0.23832 0.2372 0.4038 0.0
H299 H 0.21072 0.26651 0.49833 0.0
H300 H 0.25236 0.36417 0.43875 0.0
H301 H 0.27961 0.33549 0.3429 0.0
C302 C 0.4232 0.24039 0.21776 0.0
C303 C 0.43342 0.27484 0.20749 0.0
C304 C 0.38943 0.23324 0.2352 0.0
C305 C 0.3657 0.26049 0.24289 0.0
C306 C 0.37714 0.29489 0.23887 0.0
C307 C 0.41058 0.30199 0.22096 0.0
C308 C 0.32813 0.2539 0.24834 0.0
C309 C 0.3123 0.26895 0.30367 0.0
C310 C 0.30727 0.23582 0.19596 0.0
C311 C 0.32206 0.22112 0.13408 0.0
C312 C 0.33852 0.24271 0.08846 0.0
C313 C 0.35268 0.22861 0.03051 0.0
C314 C 0.35022 0.193 0.01728 0.0
C315 C 0.33349 0.17144 0.06186 0.0
C316 C 0.31934 0.18541 0.11997 0.0
C317 C 0.166 0.2886 0.25607 0.0
C318 C 0.14802 0.26127 0.28461 0.0
C319 C 0.2002 0.28386 0.23958 0.0
C320 C 0.21692 0.25176 0.25161 0.0
C321 C 0.19794 0.22348 0.27368 0.0
C322 C 0.16377 0.22834 0.29096 0.0
C323 C 0.25533 0.24996 0.25386 0.0
C324 C 0.27109 0.23367 0.1999 0.0
C325 C 0.27622 0.26713 0.30714 0.0
C326 C 0.26072 0.28426 0.36588 0.0
C327 C 0.24135 0.26497 0.41055 0.0
C328 C 0.2258 0.28145 0.46438 0.0
C329 C 0.22972 0.31719 0.47446 0.0
C330 C 0.24931 0.33649 0.43084 0.0
C331 C 0.26483 0.32013 0.37678 0.0
H332 H 0.21765 0.32992 0.51614 0.0
H333 H 0.36119 0.18213 0.97238 0.0
H334 H 0.43827 0.76302 0.68028 0.0
H335 H 0.3792 0.78277 0.64837 0.0
H336 H 0.38078 0.84138 0.83898 0.0
H337 H 0.44043 0.82051 0.87244 0.0
H338 H 0.32328 0.80316 0.82068 0.0
H339 H 0.37641 0.88325 0.67904 0.0
H340 H 0.41765 0.90316 0.59733 0.0
H341 H 0.36999 0.8358 0.43949 0.0
H342 H 0.32879 0.81504 0.52052 0.0
H343 H 0.14573 0.82409 0.69515 0.0
H344 H 0.20469 0.8468 0.72509 0.0
H345 H 0.24431 0.77837 0.57374 0.0
H346 H 0.18574 0.75582 0.54412 0.0
H347 H 0.2799 0.84125 0.58328 0.0
H348 H 0.24038 0.75125 0.7367 0.0
H349 H 0.20067 0.72839 0.81878 0.0
H350 H 0.22418 0.81503 0.95471 0.0
H351 H 0.26367 0.83865 0.87278 0.0
C352 C 0.42635 0.78058 0.71512 0.0
C353 C 0.44407 0.79024 0.77893 0.0
C354 C 0.39254 0.79216 0.69643 0.0
C355 C 0.37547 0.81404 0.74064 0.0
C356 C 0.39346 0.82474 0.80367 0.0
C357 C 0.42763 0.81309 0.8225 0.0
C358 C 0.33791 0.82247 0.72287 0.0
C359 C 0.31385 0.81263 0.76955 0.0
C360 C 0.32537 0.83447 0.65587 0.0
C361 C 0.34948 0.84754 0.60605 0.0
C362 C 0.37476 0.87258 0.62698 0.0
C363 C 0.39817 0.88401 0.58077 0.0
C364 C 0.39646 0.87073 0.51328 0.0
C365 C 0.37125 0.8461 0.49177 0.0
C366 C 0.3478 0.83455 0.53779 0.0
C367 C 0.16679 0.81517 0.66614 0.0
C368 C 0.16121 0.78846 0.6169 0.0
C369 C 0.20054 0.82784 0.6838 0.0
C370 C 0.22904 0.81401 0.65218 0.0
C371 C 0.22282 0.78952 0.59875 0.0
C372 C 0.18933 0.77663 0.5818 0.0
C373 C 0.26564 0.82082 0.68026 0.0
C374 C 0.28943 0.83324 0.63533 0.0
C375 C 0.278 0.81128 0.74888 0.0
C376 C 0.25457 0.79693 0.7983 0.0
C377 C 0.23687 0.76553 0.78387 0.0
C378 C 0.21443 0.75243 0.83036 0.0
C379 C 0.2098 0.77031 0.89181 0.0
C380 C 0.22771 0.80127 0.90699 0.0
C381 C 0.2501 0.81453 0.86056 0.0
H382 H 0.19243 0.76013 0.92775 0.0
H383 H 0.41467 0.87954 0.47764 0.0
H384 H 0.58854 0.88636 0.93144 0.0
H385 H 0.58056 0.94873 0.93033 0.0
H386 H 0.47073 0.93577 0.87375 0.0
H387 H 0.47854 0.87208 0.87626 0.0
H388 H 0.51185 0.99472 0.80127 0.0
H389 H 0.48242 0.95329 0.02395 0.0
H390 H 0.49125 0.91665 0.12865 0.0
H391 H 0.5914 0.96294 0.17996 0.0
H392 H 0.58341 0.99946 0.07494 0.0
H393 H 0.49943 0.17107 0.9777 0.0
H394 H 0.48494 0.1142 0.92476 0.0
H395 H 0.59309 0.08454 0.95347 0.0
H396 H 0.60772 0.14095 0.00513 0.0
H397 H 0.53759 0.048 0.03383 0.0
H398 H 0.56876 0.08769 0.81092 0.0
H399 H 0.56365 0.12125 0.7022 0.0
H400 H 0.46295 0.07711 0.64651 0.0
H401 H 0.46673 0.04441 0.75655 0.0
C402 C 0.56252 0.89638 0.9196 0.0
C403 C 0.53398 0.87397 0.90647 0.0
C404 C 0.55812 0.93227 0.91788 0.0
C405 C 0.52506 0.94695 0.90258 0.0
C406 C 0.49652 0.92493 0.88568 0.0
C407 C 0.50097 0.8886 0.88753 0.0
C408 C 0.52102 0.9851 0.91103 0.0
C409 C 0.51644 1.00659 0.85215 0.0
C410 C 0.52773 1.00041 0.97734 0.0
C411 C 0.53236 0.979 0.04137 0.0
C412 C 0.50641 0.95551 0.05734 0.0
C413 C 0.51126 0.93478 0.11677 0.0
C414 C 0.54188 0.93744 0.16089 0.0
C415 C 0.56769 0.96091 0.14576 0.0
C416 C 0.56298 0.98167 0.08634 0.0
C417 C 0.52028 0.15302 0.96964 0.0
C418 C 0.55472 0.1604 0.996 0.0
C419 C 0.51193 0.12048 0.93959 0.0
C420 C 0.53795 0.09512 0.93539 0.0
C421 C 0.57265 0.10376 0.95592 0.0
C422 C 0.58097 0.13606 0.9855 0.0
C423 C 0.52908 0.05792 0.924 0.0
C424 C 0.53163 0.03648 0.9829 0.0
C425 C 0.52062 0.04297 0.85763 0.0
C426 C 0.51774 0.06407 0.79301 0.0
C427 C 0.54511 0.08576 0.77655 0.0
C428 C 0.54256 0.10448 0.71433 0.0
C429 C 0.51304 0.10126 0.66737 0.0
C430 C 0.48588 0.07948 0.68279 0.0
C431 C 0.48812 0.06104 0.74534 0.0
H432 H 0.51113 0.11574 0.6192 0.0
H433 H 0.5456 0.92134 0.20684 0.0
H434 H 0.098 0.86409 0.65849 0.0
H435 H 0.11223 0.926 0.66729 0.0
H436 H 0.08883 0.93663 0.44583 0.0
H437 H 0.07538 0.87498 0.43702 0.0
H438 H 0.13394 0.98636 0.4931 0.0
H439 H 0.02419 0.93668 0.55262 0.0
H440 H 0.98849 0.89901 0.62092 0.0
H441 H 0.02691 0.9517 0.80806 0.0
H442 H 0.06331 0.9893 0.74083 0.0
H443 H 0.9881 0.12074 0.4815 0.0
H444 H 0.01039 0.06442 0.52095 0.0
H445 H 0.11321 0.10781 0.56231 0.0
H446 H 0.09129 0.164 0.51837 0.0
H447 H 0.03913 0.03282 0.62371 0.0
H448 H 0.1737 0.04804 0.51987 0.0
H449 H 0.20229 0.084 0.43598 0.0
H450 H 0.10403 0.09956 0.31682 0.0
H451 H 0.075 0.06333 0.39947 0.0
C452 C 0.09806 0.87922 0.61133 0.0
C453 C 0.08549 0.86494 0.54713 0.0
C454 C 0.10583 0.9147 0.61643 0.0
C455 C 0.10074 0.93613 0.55742 0.0
C456 C 0.09282 0.92075 0.49212 0.0
C457 C 0.08506 0.88547 0.48709 0.0
C458 C 0.09576 0.97421 0.56408 0.0
C459 C 0.11398 0.99682 0.52346 0.0
C460 C 0.0689 0.98776 0.60174 0.0
C461 C 0.04689 0.96533 0.64197 0.0
C462 C 0.02522 0.94001 0.60841 0.0
C463 C 1.00485 0.9187 0.64689 0.0
C464 C 1.00555 0.92285 0.71883 0.0
C465 C 0.02652 0.94841 0.75238 0.0
C466 C 0.04707 0.96968 0.71415 0.0
C467 C 0.01534 0.11856 0.50036 0.0
C468 C 0.03792 0.14688 0.49623 0.0
C469 C 0.02811 0.08624 0.52315 0.0
C470 C 0.06375 0.08147 0.54284 0.0
C471 C 0.08577 0.11056 0.54562 0.0
C472 C 0.07305 0.14293 0.52172 0.0
C473 C 0.07765 0.04554 0.55402 0.0
C474 C 0.0606 0.02311 0.59687 0.0
C475 C 0.10491 0.03215 0.51703 0.0
C476 C 0.12218 0.0534 0.46635 0.0
C477 C 0.15826 0.05908 0.47565 0.0
C478 C 0.17452 0.0795 0.42833 0.0
C479 C 0.15496 0.09419 0.37129 0.0
C480 C 0.11913 0.08829 0.36117 0.0
C481 C 0.10277 0.06782 0.40822 0.0
H482 H 0.16758 0.11006 0.33483 0.0
H483 H 0.98974 0.90635 0.74854 0.0
H484 H 0.11058 0.20539 0.20736 0.0
H485 H 0.13046 0.19651 0.09131 0.0
H486 H 0.02415 0.20514 0.00167 0.0
H487 H 1.0047 0.2143 0.11658 0.0
H488 H 0.0579 0.15088 0.94783 0.0
H489 H 0.08186 0.27488 0.00174 0.0
H490 H 0.1119 0.31968 0.07607 0.0
H491 H 0.21074 0.27356 0.04409 0.0
H492 H 0.1812 0.22841 0.96973 0.0
H493 H 0.03443 0.21416 0.61011 0.0
H494 H 0.03891 0.19577 0.73107 0.0
H495 H 0.15058 0.20854 0.74314 0.0
H496 H 0.14561 0.22939 0.62314 0.0
H497 H 0.13053 0.23941 0.84427 0.0
H498 H 0.10668 0.1242 0.76508 0.0
H499 H 0.07792 0.07593 0.6995 0.0
H500 H 0.98127 0.10081 0.78268 0.0
H501 H 0.00953 0.14918 0.84917 0.0
C502 C 0.09183 0.20607 0.16265 0.0
C503 C 0.05641 0.21127 0.17072 0.0
C504 C 0.10302 0.20057 0.09661 0.0
C505 C 0.07873 0.2003 0.03794 0.0
C506 C 0.0433 0.20501 0.0463 0.0
C507 C 0.03224 0.21036 0.11196 0.0
C508 C 0.08947 0.19635 0.96687 0.0
C509 C 0.07387 0.17009 0.92481 0.0
C510 C 0.11165 0.22042 0.93813 0.0
C511 C 0.12937 0.24827 0.98055 0.0
C512 C 0.11 0.27436 0.01056 0.0
C513 C 0.12692 0.29978 0.05266 0.0
C514 C 0.1632 0.29949 0.06469 0.0
C515 C 0.18265 0.2738 0.03454 0.0
C516 C 0.16585 0.24834 0.99232 0.0
C517 C 0.05997 0.21217 0.63817 0.0
C518 C 0.08962 0.22339 0.60785 0.0
C519 C 0.06265 0.20133 0.70735 0.0
C520 C 0.09521 0.20035 0.74667 0.0
C521 C 0.12516 0.2092 0.71434 0.0
C522 C 0.12234 0.221 0.64578 0.0
C523 C 0.09718 0.19488 0.82314 0.0
C524 C 0.11537 0.21934 0.86667 0.0
C525 C 0.07756 0.16885 0.8534 0.0
C526 C 0.06025 0.14035 0.81201 0.0
C527 C 0.07924 0.11953 0.76899 0.0
C528 C 0.06299 0.09209 0.73169 0.0
C529 C 0.02769 0.08537 0.73665 0.0
C530 C 0.00859 0.10605 0.77893 0.0
C531 C 0.02475 0.13336 0.81668 0.0
H532 H 0.01502 0.06409 0.70819 0.0
H533 H 0.17624 0.31918 0.09734 0.0
H534 H 0.98149 0.71222 0.77584 0.0
H535 H 0.96027 0.70132 0.89009 0.0
H536 H 0.05789 0.73832 0.98929 0.0
H537 H 0.07849 0.75007 0.87591 0.0
H538 H 0.03687 0.66915 0.02661 0.0
H539 H 0.98624 0.78603 0.98015 0.0
H540 H 0.9446 0.82456 0.91298 0.0
H541 H 0.85949 0.76207 0.96897 0.0
H542 H 0.9007 0.72239 0.03424 0.0
H543 H 0.05628 0.72027 0.36717 0.0
H544 H 0.05094 0.70311 0.24583 0.0
H545 H 0.93889 0.70089 0.24629 0.0
H546 H 0.94449 0.72063 0.36727 0.0
H547 H 0.95008 0.73607 0.14655 0.0
H548 H 0.99204 0.62294 0.19839 0.0
H549 H 0.02702 0.57357 0.24759 0.0
H550 H 0.11919 0.61806 0.17581 0.0
H551 H 0.08481 0.66738 0.12543 0.0
C552 C 0.99761 0.71938 0.82214 0.0
C553 C 0.03118 0.73266 0.81739 0.0
C554 C 0.98578 0.71264 0.88714 0.0
C555 C 1.00764 0.71895 0.94775 0.0
C556 C 0.04075 0.73318 0.94289 0.0
C557 C 0.05243 0.73997 0.8783 0.0
C558 C 0.99772 0.70909 0.01689 0.0
C559 C 0.01788 0.68364 0.0533 0.0
C560 C 0.97121 0.72633 0.04938 0.0
C561 C 0.94665 0.75088 0.01123 0.0
C562 C 0.9587 0.78021 0.9774 0.0
C563 C 0.93515 0.80227 0.93961 0.0
C564 C 0.89944 0.79565 0.93632 0.0
C565 C 0.88717 0.76705 0.97112 0.0
C566 C 0.91062 0.74472 0.00835 0.0
C567 C 0.03061 0.71489 0.34197 0.0
C568 C 1.00082 0.72165 0.37613 0.0
C569 C 0.02747 0.70474 0.27243 0.0
C570 C 0.99442 0.70027 0.23624 0.0
C571 C 0.96466 0.70427 0.27256 0.0
C572 C 0.96783 0.71535 0.34172 0.0
C573 C 0.99129 0.69763 0.15906 0.0
C574 C 0.96848 0.72057 0.12043 0.0
C575 C 0.01459 0.67716 0.12363 0.0
C576 C 0.0358 0.64885 0.15816 0.0
C577 C 0.01982 0.62235 0.1937 0.0
C578 C 0.03952 0.59428 0.2214 0.0
C579 C 0.07528 0.59275 0.21476 0.0
C580 C 0.09148 0.61929 0.18076 0.0
C581 C 0.07187 0.64717 0.15225 0.0
H582 H 0.09047 0.5709 0.23531 0.0
H583 H 0.88125 0.81273 0.90703 0.0
H584 H 0.62435 0.80635 0.11168 0.0
H585 H 0.63643 0.80165 0.23796 0.0
H586 H 0.56262 0.71799 0.2408 0.0
H587 H 0.551 0.72194 0.11406 0.0
H588 H 0.55427 0.77578 0.33861 0.0
H589 H 0.6383 0.6961 0.26273 0.0
H590 H 0.68688 0.67724 0.19706 0.0
H591 H 0.75347 0.75313 0.30314 0.0
H592 H 0.70509 0.77266 0.36912 0.0
H593 H 0.61569 0.69266 0.67091 0.0
H594 H 0.6274 0.69986 0.54961 0.0
H595 H 0.61355 0.81047 0.56791 0.0
H596 H 0.6024 0.80338 0.69003 0.0
H597 H 0.66773 0.73969 0.45942 0.0
H598 H 0.54853 0.82952 0.43544 0.0
H599 H 0.49887 0.84536 0.50149 0.0
H600 H 0.50071 0.74374 0.59282 0.0
H601 H 0.54981 0.72708 0.52615 0.0
C602 C 0.61092 0.78673 0.13909 0.0
C603 C 0.58664 0.76456 0.103 0.0
C604 C 0.61786 0.7841 0.21119 0.0
C605 C 0.60029 0.75961 0.24865 0.0
C606 C 0.57631 0.73717 0.21276 0.0
C607 C 0.56984 0.73935 0.14042 0.0
C608 C 0.6063 0.75809 0.32552 0.0
C609 C 0.57913 0.76807 0.36495 0.0
C610 C 0.6387 0.74785 0.3598 0.0
C611 C 0.66793 0.73605 0.32048 0.0
C612 C 0.66321 0.70894 0.27177 0.0
C613 C 0.69074 0.69808 0.23453 0.0
C614 C 0.72323 0.71406 0.24573 0.0
C615 C 0.72827 0.74081 0.29445 0.0
C616 C 0.70081 0.75174 0.33188 0.0
C617 C 0.61693 0.71868 0.65005 0.0
C618 C 0.60783 0.74743 0.68953 0.0
C619 C 0.62357 0.72276 0.58063 0.0
C620 C 0.62061 0.75559 0.54937 0.0
C621 C 0.6157 0.78486 0.59101 0.0
C622 C 0.60959 0.78082 0.66095 0.0
C623 C 0.61591 0.75803 0.47237 0.0
C624 C 0.64312 0.74801 0.43293 0.0
C625 C 0.58341 0.76792 0.43781 0.0
C626 C 0.55315 0.77725 0.47652 0.0
C627 C 0.53821 0.81053 0.46937 0.0
C628 C 0.51015 0.81963 0.50688 0.0
C629 C 0.49673 0.79562 0.55154 0.0
C630 C 0.51119 0.76236 0.55839 0.0
C631 C 0.53913 0.75307 0.52074 0.0
H632 H 0.47509 0.80276 0.58068 0.0
H633 H 0.74451 0.70567 0.21676 0.0
H634 H 0.49085 0.2661 0.32815 0.0
H635 H 0.47711 0.26087 0.44878 0.0
H636 H 0.50514 0.15246 0.44845 0.0
H637 H 0.51915 0.15752 0.32793 0.0
H638 H 0.44874 0.1745 0.54194 0.0
H639 H 0.56818 0.19456 0.48927 0.0
H640 H 0.61204 0.2246 0.42592 0.0
H641 H 0.58169 0.32231 0.50939 0.0
H642 H 0.53715 0.29287 0.57213 0.0
H643 H 0.55519 0.21912 0.90105 0.0
H644 H 0.55094 0.19761 0.7812 0.0
H645 H 0.44739 0.24068 0.74663 0.0
H646 H 0.45108 0.26115 0.86653 0.0
H647 H 0.54431 0.24027 0.67129 0.0
H648 H 0.40045 0.19077 0.61192 0.0
H649 H 0.35612 0.1604 0.67293 0.0
H650 H 0.43575 0.11917 0.81983 0.0
H651 H 0.4806 0.14877 0.75957 0.0
C652 C 0.49255 0.24081 0.35264 0.0
C653 C 0.50654 0.21234 0.31918 0.0
C654 C 0.48472 0.23785 0.42158 0.0
C655 C 0.49053 0.20636 0.45744 0.0
C656 C 0.50043 0.17691 0.42149 0.0
C657 C 0.50864 0.17993 0.35285 0.0
C658 C 0.49394 0.20626 0.53417 0.0
C659 C 0.4694 0.1889 0.57073 0.0
C660 C 0.52183 0.22395 0.57103 0.0
C661 C 0.54917 0.24157 0.53483 0.0
C662 C 0.57071 0.22248 0.49368 0.0
C663 C 0.59569 0.23939 0.45792 0.0
C664 C 0.59961 0.27535 0.46354 0.0
C665 C 0.5786 0.29446 0.50504 0.0
C666 C 0.5535 0.27768 0.54071 0.0
C667 C 0.53114 0.22295 0.86851 0.0
C668 C 0.50339 0.24158 0.89303 0.0
C669 C 0.52885 0.21095 0.8 0.0
C670 C 0.49879 0.21747 0.75523 0.0
C671 C 0.47061 0.23495 0.78055 0.0
C672 C 0.47287 0.24686 0.84886 0.0
C673 C 0.49819 0.2097 0.6802 0.0
C674 C 0.52355 0.22555 0.64342 0.0
C675 C 0.47103 0.19046 0.64382 0.0
C676 C 0.44411 0.17218 0.68077 0.0
C677 C 0.40865 0.17502 0.65687 0.0
C678 C 0.38334 0.15798 0.69155 0.0
C679 C 0.3931 0.1379 0.75027 0.0
C680 C 0.42818 0.13484 0.77449 0.0
C681 C 0.45357 0.15185 0.74009 0.0
H682 H 0.37346 0.12472 0.77699 0.0
H683 H 0.61898 0.28841 0.43591 0.0
loop_
_geom_bond_atom_site_label_1
_geom_bond_atom_site_label_2
_geom_bond_distance
_geom_bond_site_symmetry_2
_ccdc_geom_bond_type
Zn0 O6 1.920 1_655 S
Zn0 O12 1.898 . S
Zn0 O15 1.905 1_655 S
Zn1 O9 1.905 . S
Zn1 O10 1.898 . S
Zn1 O18 1.920 . S
Zn2 O5 2.080 . S
Zn2 O8 2.114 . S
Zn2 O11 2.120 . S
Zn2 O13 2.091 1_455 S
Zn2 O14 2.114 . S
Zn2 O17 2.080 . S
C3 O8 1.166 . S
C3 O9 1.182 . S
C4 O10 1.167 . S
C4 O11 1.299 . S
O5 Zn2 2.080 . S
O5 C19 1.305 . S
O6 Zn0 1.920 1_455 S
O6 C19 1.234 . S
C7 O12 1.167 . S
C7 O13 1.320 . S
O8 Zn2 2.114 . S
O8 C3 1.166 . S
O9 Zn1 1.905 . S
O9 C3 1.182 . S
O10 Zn1 1.898 . S
O10 C4 1.167 . S
O11 Zn2 2.120 . S
O11 C4 1.299 . S
O12 Zn0 1.898 . S
O12 C7 1.167 . S
O13 Zn2 2.091 1_655 S
O13 C7 1.320 . S
O14 Zn2 2.114 . S
O14 C16 1.166 . S
O15 Zn0 1.905 1_455 S
O15 C16 1.182 . S
C16 O14 1.166 . S
C16 O15 1.182 . S
O17 Zn2 2.080 . S
O17 C20 1.305 . S
O18 Zn1 1.920 . S
O18 C20 1.234 . S
C19 O5 1.305 . S
C19 O6 1.234 . S
C20 O17 1.305 . S
C20 O18 1.234 . S
Zn21 O27 1.920 . S
Zn21 O33 1.898 1_655 S
Zn21 O36 1.905 . S
Zn22 O30 1.905 . S
Zn22 O31 1.898 . S
Zn22 O39 1.920 . S
Zn23 O26 2.080 1_455 S
Zn23 O29 2.114 . S
Zn23 O32 2.120 . S
Zn23 O34 2.120 . S
Zn23 O35 2.114 . S
Zn23 O38 2.080 . S
C24 O29 1.166 . S
C24 O30 1.182 . S
C25 O31 1.167 . S
C25 O32 1.299 . S
O26 Zn23 2.080 1_655 S
O26 C40 1.305 . S
O27 Zn21 1.920 . S
O27 C40 1.234 . S
C28 O33 1.167 . S
C28 O34 1.299 . S
O29 Zn23 2.114 . S
O29 C24 1.166 . S
O30 Zn22 1.905 . S
O30 C24 1.182 . S
O31 Zn22 1.898 . S
O31 C25 1.167 . S
O32 Zn23 2.120 . S
O32 C25 1.299 . S
O33 Zn21 1.898 1_455 S
O33 C28 1.167 . S
O34 Zn23 2.120 . S
O34 C28 1.299 . S
O35 Zn23 2.114 . S
O35 C37 1.166 . S
O36 Zn21 1.905 . S
O36 C37 1.182 1_655 S
C37 O35 1.166 . S
C37 O36 1.182 1_455 S
O38 Zn23 2.080 . S
O38 C41 1.305 . S
O39 Zn22 1.920 . S
O39 C41 1.234 . S
C40 O26 1.305 . S
C40 O27 1.234 . S
C41 O38 1.305 . S
C41 O39 1.234 . S
Zn42 O48 1.920 . S
Zn42 O54 1.898 . S
Zn42 O57 1.905 . S
Zn43 O51 1.905 1_556 S
Zn43 O52 1.898 . S
Zn43 O60 1.920 . S
Zn44 O47 2.080 . S
Zn44 O50 2.114 . S
Zn44 O53 2.120 . S
Zn44 O55 2.120 . S
Zn44 O56 2.114 . S
Zn44 O59 2.080 . S
C45 O50 1.166 1_554 S
C45 O51 1.182 . S
C46 O52 1.167 . S
C46 O53 1.299 . S
O47 Zn44 2.080 . S
O47 C61 1.305 . S
O48 Zn42 1.920 . S
O48 C61 1.234 . S
C49 O54 1.167 . S
C49 O55 1.299 . S
O50 Zn44 2.114 . S
O50 C45 1.166 1_556 S
O51 Zn43 1.905 1_554 S
O51 C45 1.182 . S
O52 Zn43 1.898 . S
O52 C46 1.167 . S
O53 Zn44 2.120 . S
O53 C46 1.299 . S
O54 Zn42 1.898 . S
O54 C49 1.167 . S
O55 Zn44 2.120 . S
O55 C49 1.299 . S
O56 Zn44 2.114 . S
O56 C58 1.166 . S
O57 Zn42 1.905 . S
O57 C58 1.182 . S
C58 O56 1.166 . S
C58 O57 1.182 . S
O59 Zn44 2.080 . S
O59 C62 1.305 . S
O60 Zn43 1.920 . S
O60 C62 1.234 . S
C61 O47 1.305 . S
C61 O48 1.234 . S
C62 O59 1.305 . S
C62 O60 1.234 . S
Zn63 O69 1.920 . S
Zn63 O75 1.898 . S
Zn63 O78 1.905 . S
Zn64 O72 1.905 1_554 S
Zn64 O73 1.898 . S
Zn64 O81 1.920 . S
Zn65 O68 2.080 . S
Zn65 O71 2.114 . S
Zn65 O74 2.120 . S
Zn65 O76 2.120 . S
Zn65 O77 2.114 . S
Zn65 O80 2.080 . S
C66 O71 1.166 1_556 S
C66 O72 1.182 . S
C67 O73 1.167 . S
C67 O74 1.299 . S
O68 Zn65 2.080 . S
O68 C82 1.305 . S
O69 Zn63 1.920 . S
O69 C82 1.234 . S
C70 O75 1.167 . S
C70 O76 1.299 . S
O71 Zn65 2.114 . S
O71 C66 1.166 1_554 S
O72 Zn64 1.905 1_556 S
O72 C66 1.182 . S
O73 Zn64 1.898 . S
O73 C67 1.167 . S
O74 Zn65 2.120 . S
O74 C67 1.299 . S
O75 Zn63 1.898 . S
O75 C70 1.167 . S
O76 Zn65 2.120 . S
O76 C70 1.299 . S
O77 Zn65 2.114 . S
O77 C79 1.166 . S
O78 Zn63 1.905 . S
O78 C79 1.182 . S
C79 O77 1.166 . S
C79 O78 1.182 . S
O80 Zn65 2.080 . S
O80 C83 1.305 . S
O81 Zn64 1.920 . S
O81 C83 1.234 . S
C82 O68 1.305 . S
C82 O69 1.234 . S
C83 O80 1.305 . S
C83 O81 1.234 . S
H84 C102 0.951 1_655 S
H85 C104 0.951 1_655 S
H86 C106 0.950 . S
H87 C107 0.950 . S
H88 C109 0.950 . S
H89 C112 0.950 1_455 S
H90 C113 0.950 . S
H91 C115 0.950 . S
H92 C116 0.950 . S
H93 C117 0.951 . S
H94 C119 0.951 . S
H95 C121 0.950 1_655 S
H96 C122 0.950 1_655 S
H97 C124 0.950 1_655 S
H98 C127 0.950 . S
H99 C128 0.950 . S
H100 C130 0.950 . S
H101 C131 0.950 . S
C102 H84 0.951 1_455 S
C102 C103 1.366 . S
C102 C104 1.388 . S
C103 C102 1.366 . S
C103 C107 1.385 . S
C104 H85 0.951 1_455 S
C104 C102 1.388 . S
C104 C105 1.366 . S
C105 C104 1.366 . S
C105 C106 1.414 . S
C105 C108 1.499 . S
C106 H86 0.950 . S
C106 C105 1.414 . S
C106 C107 1.374 . S
C107 H87 0.950 . S
C107 C103 1.385 . S
C107 C106 1.374 . S
C108 C105 1.499 . S
C108 C109 1.373 . S
C108 C110 1.389 . S
C109 H88 0.950 . S
C109 C108 1.373 . S
C109 C125 1.377 . S
C110 C108 1.389 . S
C110 C111 1.524 1_455 S
C110 C124 1.377 . S
C111 C110 1.524 1_655 S
C111 C112 1.397 . S
C111 C116 1.363 . S
C112 H89 0.950 1_655 S
C112 C111 1.397 . S
C112 C113 1.334 . S
C113 H90 0.950 . S
C113 C112 1.334 . S
C113 C114 1.287 . S
C114 C113 1.287 . S
C114 C115 1.524 . S
C114 H133 0.913 . S
C115 H91 0.950 . S
C115 C114 1.524 . S
C115 C116 1.415 . S
C116 H92 0.950 . S
C116 C111 1.363 . S
C116 C115 1.415 . S
C117 H93 0.951 . S
C117 C118 1.366 . S
C117 C119 1.388 . S
C118 C117 1.366 . S
C118 C122 1.385 . S
C119 H94 0.951 . S
C119 C117 1.388 . S
C119 C120 1.366 . S
C120 C119 1.366 . S
C120 C121 1.414 . S
C120 C123 1.499 . S
C121 H95 0.950 1_455 S
C121 C120 1.414 . S
C121 C122 1.374 . S
C122 H96 0.950 1_455 S
C122 C118 1.385 . S
C122 C121 1.374 . S
C123 C120 1.499 . S
C123 C124 1.373 . S
C123 C125 1.389 . S
C124 H97 0.950 1_455 S
C124 C110 1.377 . S
C124 C123 1.373 . S
C125 C109 1.377 . S
C125 C123 1.389 . S
C125 C126 1.524 . S
C126 C125 1.524 . S
C126 C127 1.397 . S
C126 C131 1.363 . S
C127 H98 0.950 . S
C127 C126 1.397 . S
C127 C128 1.334 . S
C128 H99 0.950 . S
C128 C127 1.334 . S
C128 C129 1.287 . S
C129 C128 1.287 . S
C129 C130 1.524 . S
C129 H132 0.999 . S
C130 H100 0.950 . S
C130 C129 1.524 . S
C130 C131 1.415 . S
C131 H101 0.950 . S
C131 C126 1.363 . S
C131 C130 1.415 . S
H132 C129 0.999 . S
H133 C114 0.913 . S
H134 C152 0.951 . S
H135 C154 0.951 . S
H136 C156 0.950 . S
H137 C157 0.950 . S
H138 C159 0.950 . S
H139 C162 0.950 . S
H140 C163 0.950 1_554 S
H141 C165 0.950 . S
H142 C166 0.950 . S
H143 C167 0.951 . S
H144 C169 0.951 . S
H145 C171 0.950 . S
H146 C172 0.950 . S
H147 C174 0.950 . S
H148 C177 0.950 . S
H149 C178 0.950 . S
H150 C180 0.950 . S
H151 C181 0.950 . S
C152 H134 0.951 . S
C152 C153 1.366 . S
C152 C154 1.388 . S
C153 C152 1.366 . S
C153 C157 1.385 . S
C154 H135 0.951 . S
C154 C152 1.388 . S
C154 C155 1.366 . S
C155 C154 1.366 . S
C155 C156 1.414 . S
C155 C158 1.499 . S
C156 H136 0.950 . S
C156 C155 1.414 . S
C156 C157 1.374 . S
C157 H137 0.950 . S
C157 C153 1.385 . S
C157 C156 1.374 . S
C158 C155 1.499 . S
C158 C159 1.373 . S
C158 C160 1.389 . S
C159 H138 0.950 . S
C159 C158 1.373 . S
C159 C175 1.377 . S
C160 C158 1.389 . S
C160 C161 1.524 . S
C160 C174 1.377 . S
C161 C160 1.524 . S
C161 C162 1.397 . S
C161 C166 1.363 . S
C162 H139 0.950 . S
C162 C161 1.397 . S
C162 C163 1.334 . S
C163 H140 0.950 1_556 S
C163 C162 1.334 . S
C163 C164 1.287 . S
C164 C163 1.287 . S
C164 C165 1.524 . S
C164 H183 0.913 . S
C165 H141 0.950 . S
C165 C164 1.524 . S
C165 C166 1.415 . S
C166 H142 0.950 . S
C166 C161 1.363 . S
C166 C165 1.415 . S
C167 H143 0.951 . S
C167 C168 1.366 . S
C167 C169 1.388 . S
C168 C167 1.366 . S
C168 C172 1.385 . S
C169 H144 0.951 . S
C169 C167 1.388 . S
C169 C170 1.366 . S
C170 C169 1.366 . S
C170 C171 1.414 . S
C170 C173 1.499 . S
C171 H145 0.950 . S
C171 C170 1.414 . S
C171 C172 1.374 . S
C172 H146 0.950 . S
C172 C168 1.385 . S
C172 C171 1.374 . S
C173 C170 1.499 . S
C173 C174 1.373 . S
C173 C175 1.389 . S
C174 H147 0.950 . S
C174 C160 1.377 . S
C174 C173 1.373 . S
C175 C159 1.377 . S
C175 C173 1.389 . S
C175 C176 1.524 . S
C176 C175 1.524 . S
C176 C177 1.397 . S
C176 C181 1.363 . S
C177 H148 0.950 . S
C177 C176 1.397 . S
C177 C178 1.334 . S
C178 H149 0.950 . S
C178 C177 1.334 . S
C178 C179 1.287 . S
C179 C178 1.287 . S
C179 C180 1.524 . S
C179 H182 0.999 . S
C180 H150 0.950 . S
C180 C179 1.524 . S
C180 C181 1.415 . S
C181 H151 0.950 . S
C181 C176 1.363 . S
C181 C180 1.415 . S
H182 C179 0.999 . S
H183 C164 0.913 . S
H184 C202 0.951 . S
H185 C204 0.951 . S
H186 C206 0.950 . S
H187 C207 0.950 . S
H188 C209 0.950 . S
H189 C212 0.950 . S
H190 C213 0.950 . S
H191 C215 0.950 . S
H192 C216 0.950 . S
H193 C217 0.951 . S
H194 C219 0.951 . S
H195 C221 0.950 . S
H196 C222 0.950 . S
H197 C224 0.950 . S
H198 C227 0.950 . S
H199 C228 0.950 . S
H200 C230 0.950 . S
H201 C231 0.950 . S
C202 H184 0.951 . S
C202 C203 1.366 . S
C202 C204 1.388 . S
C203 C202 1.366 . S
C203 C207 1.385 . S
C204 H185 0.951 . S
C204 C202 1.388 . S
C204 C205 1.366 . S
C205 C204 1.366 . S
C205 C206 1.414 . S
C205 C208 1.499 . S
C206 H186 0.950 . S
C206 C205 1.414 . S
C206 C207 1.374 . S
C207 H187 0.950 . S
C207 C203 1.385 . S
C207 C206 1.374 . S
C208 C205 1.499 . S
C208 C209 1.373 . S
C208 C210 1.389 1_554 S
C209 H188 0.950 . S
C209 C208 1.373 . S
C209 C225 1.377 . S
C210 C208 1.389 1_556 S
C210 C211 1.524 . S
C210 C224 1.377 . S
C211 C210 1.524 . S
C211 C212 1.397 . S
C211 C216 1.363 . S
C212 H189 0.950 . S
C212 C211 1.397 . S
C212 C213 1.334 . S
C213 H190 0.950 . S
C213 C212 1.334 . S
C213 C214 1.287 . S
C214 C213 1.287 . S
C214 C215 1.524 . S
C214 H233 0.913 . S
C215 H191 0.950 . S
C215 C214 1.524 . S
C215 C216 1.415 . S
C216 H192 0.950 . S
C216 C211 1.363 . S
C216 C215 1.415 . S
C217 H193 0.951 . S
C217 C218 1.366 . S
C217 C219 1.388 . S
C218 C217 1.366 . S
C218 C222 1.385 . S
C219 H194 0.951 . S
C219 C217 1.388 . S
C219 C220 1.366 . S
C220 C219 1.366 . S
C220 C221 1.414 . S
C220 C223 1.499 . S
C221 H195 0.950 . S
C221 C220 1.414 . S
C221 C222 1.374 . S
C222 H196 0.950 . S
C222 C218 1.385 . S
C222 C221 1.374 . S
C223 C220 1.499 . S
C223 C224 1.373 . S
C223 C225 1.389 1_556 S
C224 H197 0.950 . S
C224 C210 1.377 . S
C224 C223 1.373 . S
C225 C209 1.377 . S
C225 C223 1.389 1_554 S
C225 C226 1.524 . S
C226 C225 1.524 . S
C226 C227 1.397 . S
C226 C231 1.363 . S
C227 H198 0.950 . S
C227 C226 1.397 . S
C227 C228 1.334 . S
C228 H199 0.950 . S
C228 C227 1.334 . S
C228 C229 1.287 . S
C229 C228 1.287 . S
C229 C230 1.524 . S
C229 H232 0.999 . S
C230 H200 0.950 . S
C230 C229 1.524 . S
C230 C231 1.415 . S
C231 H201 0.950 . S
C231 C226 1.363 . S
C231 C230 1.415 . S
H232 C229 0.999 . S
H233 C214 0.913 . S
H234 C252 0.951 . S
H235 C254 0.951 . S
H236 C256 0.950 . S
H237 C257 0.950 . S
H238 C259 0.950 . S
H239 C262 0.950 . S
H240 C263 0.950 . S
H241 C265 0.950 . S
H242 C266 0.950 . S
H243 C267 0.951 . S
H244 C269 0.951 . S
H245 C271 0.950 . S
H246 C272 0.950 . S
H247 C274 0.950 . S
H248 C277 0.950 . S
H249 C278 0.950 . S
H250 C280 0.950 . S
H251 C281 0.950 . S
C252 H234 0.951 . S
C252 C253 1.366 . S
C252 C254 1.388 . S
C253 C252 1.366 . S
C253 C257 1.385 . S
C254 H235 0.951 . S
C254 C252 1.388 . S
C254 C255 1.366 . S
C255 C254 1.366 . S
C255 C256 1.414 . S
C255 C258 1.499 . S
C256 H236 0.950 . S
C256 C255 1.414 . S
C256 C257 1.374 . S
C257 H237 0.950 . S
C257 C253 1.385 . S
C257 C256 1.374 . S
C258 C255 1.499 . S
C258 C259 1.373 . S
C258 C260 1.389 . S
C259 H238 0.950 . S
C259 C258 1.373 . S
C259 C275 1.377 . S
C260 C258 1.389 . S
C260 C261 1.524 . S
C260 C274 1.377 . S
C261 C260 1.524 . S
C261 C262 1.397 . S
C261 C266 1.363 . S
C262 H239 0.950 . S
C262 C261 1.397 . S
C262 C263 1.334 . S
C263 H240 0.950 . S
C263 C262 1.334 . S
C263 C264 1.287 . S
C264 C263 1.287 . S
C264 C265 1.524 . S
C264 H283 0.913 . S
C265 H241 0.950 . S
C265 C264 1.524 . S
C265 C266 1.415 . S
C266 H242 0.950 . S
C266 C261 1.363 . S
C266 C265 1.415 . S
C267 H243 0.951 . S
C267 C268 1.366 . S
C267 C269 1.388 . S
C268 C267 1.366 . S
C268 C272 1.385 . S
C269 H244 0.951 . S
C269 C267 1.388 . S
C269 C270 1.366 . S
C270 C269 1.366 . S
C270 C271 1.414 . S
C270 C273 1.499 . S
C271 H245 0.950 . S
C271 C270 1.414 . S
C271 C272 1.374 . S
C272 H246 0.950 . S
C272 C268 1.385 . S
C272 C271 1.374 . S
C273 C270 1.499 . S
C273 C274 1.373 . S
C273 C275 1.389 . S
C274 H247 0.950 . S
C274 C260 1.377 . S
C274 C273 1.373 . S
C275 C259 1.377 . S
C275 C273 1.389 . S
C275 C276 1.524 . S
C276 C275 1.524 . S
C276 C277 1.397 . S
C276 C281 1.363 . S
C277 H248 0.950 . S
C277 C276 1.397 . S
C277 C278 1.334 . S
C278 H249 0.950 . S
C278 C277 1.334 . S
C278 C279 1.287 . S
C279 C278 1.287 . S
C279 C280 1.524 . S
C279 H282 0.999 . S
C280 H250 0.950 . S
C280 C279 1.524 . S
C280 C281 1.415 . S
C281 H251 0.950 . S
C281 C276 1.363 . S
C281 C280 1.415 . S
H282 C279 0.999 . S
H283 C264 0.913 . S
H284 C302 0.951 . S
H285 C304 0.951 . S
H286 C306 0.950 . S
H287 C307 0.950 . S
H288 C309 0.950 . S
H289 C312 0.950 . S
H290 C313 0.950 1_556 S
H291 C315 0.950 . S
H292 C316 0.950 . S
H293 C317 0.951 . S
H294 C319 0.951 . S
H295 C321 0.950 . S
H296 C322 0.950 . S
H297 C324 0.950 . S
H298 C327 0.950 . S
H299 C328 0.950 . S
H300 C330 0.950 . S
H301 C331 0.950 . S
C302 H284 0.951 . S
C302 C303 1.366 . S
C302 C304 1.388 . S
C303 C302 1.366 . S
C303 C307 1.385 . S
C304 H285 0.951 . S
C304 C302 1.388 . S
C304 C305 1.366 . S
C305 C304 1.366 . S
C305 C306 1.414 . S
C305 C308 1.499 . S
C306 H286 0.950 . S
C306 C305 1.414 . S
C306 C307 1.374 . S
C307 H287 0.950 . S
C307 C303 1.385 . S
C307 C306 1.374 . S
C308 C305 1.499 . S
C308 C309 1.373 . S
C308 C310 1.389 . S
C309 H288 0.950 . S
C309 C308 1.373 . S
C309 C325 1.377 . S
C310 C308 1.389 . S
C310 C311 1.524 . S
C310 C324 1.377 . S
C311 C310 1.524 . S
C311 C312 1.397 . S
C311 C316 1.363 . S
C312 H289 0.950 . S
C312 C311 1.397 . S
C312 C313 1.334 . S
C313 H290 0.950 1_554 S
C313 C312 1.334 . S
C313 C314 1.287 1_554 S
C314 C313 1.287 1_556 S
C314 C315 1.524 . S
C314 H333 0.913 . S
C315 H291 0.950 . S
C315 C314 1.524 . S
C315 C316 1.415 1_556 S
C316 H292 0.950 . S
C316 C311 1.363 . S
C316 C315 1.415 1_554 S
C317 H293 0.951 . S
C317 C318 1.366 . S
C317 C319 1.388 . S
C318 C317 1.366 . S
C318 C322 1.385 . S
C319 H294 0.951 . S
C319 C317 1.388 . S
C319 C320 1.366 . S
C320 C319 1.366 . S
C320 C321 1.414 . S
C320 C323 1.499 . S
C321 H295 0.950 . S
C321 C320 1.414 . S
C321 C322 1.374 . S
C322 H296 0.950 . S
C322 C318 1.385 . S
C322 C321 1.374 . S
C323 C320 1.499 . S
C323 C324 1.373 . S
C323 C325 1.389 . S
C324 H297 0.950 . S
C324 C310 1.377 . S
C324 C323 1.373 . S
C325 C309 1.377 . S
C325 C323 1.389 . S
C325 C326 1.524 . S
C326 C325 1.524 . S
C326 C327 1.397 . S
C326 C331 1.363 . S
C327 H298 0.950 . S
C327 C326 1.397 . S
C327 C328 1.334 . S
C328 H299 0.950 . S
C328 C327 1.334 . S
C328 C329 1.287 . S
C329 C328 1.287 . S
C329 C330 1.524 . S
C329 H332 0.999 . S
C330 H300 0.950 . S
C330 C329 1.524 . S
C330 C331 1.415 . S
C331 H301 0.950 . S
C331 C326 1.363 . S
C331 C330 1.415 . S
H332 C329 0.999 . S
H333 C314 0.913 . S
H334 C352 0.951 . S
H335 C354 0.951 . S
H336 C356 0.950 . S
H337 C357 0.950 . S
H338 C359 0.950 . S
H339 C362 0.950 . S
H340 C363 0.950 . S
H341 C365 0.950 . S
H342 C366 0.950 . S
H343 C367 0.951 . S
H344 C369 0.951 . S
H345 C371 0.950 . S
H346 C372 0.950 . S
H347 C374 0.950 . S
H348 C377 0.950 . S
H349 C378 0.950 . S
H350 C380 0.950 . S
H351 C381 0.950 . S
C352 H334 0.951 . S
C352 C353 1.366 . S
C352 C354 1.388 . S
C353 C352 1.366 . S
C353 C357 1.385 . S
C354 H335 0.951 . S
C354 C352 1.388 . S
C354 C355 1.366 . S
C355 C354 1.366 . S
C355 C356 1.414 . S
C355 C358 1.499 . S
C356 H336 0.950 . S
C356 C355 1.414 . S
C356 C357 1.374 . S
C357 H337 0.950 . S
C357 C353 1.385 . S
C357 C356 1.374 . S
C358 C355 1.499 . S
C358 C359 1.373 . S
C358 C360 1.389 . S
C359 H338 0.950 . S
C359 C358 1.373 . S
C359 C375 1.377 . S
C360 C358 1.389 . S
C360 C361 1.524 . S
C360 C374 1.377 . S
C361 C360 1.524 . S
C361 C362 1.397 . S
C361 C366 1.363 . S
C362 H339 0.950 . S
C362 C361 1.397 . S
C362 C363 1.334 . S
C363 H340 0.950 . S
C363 C362 1.334 . S
C363 C364 1.287 . S
C364 C363 1.287 . S
C364 C365 1.524 . S
C364 H383 0.913 . S
C365 H341 0.950 . S
C365 C364 1.524 . S
C365 C366 1.415 . S
C366 H342 0.950 . S
C366 C361 1.363 . S
C366 C365 1.415 . S
C367 H343 0.951 . S
C367 C368 1.366 . S
C367 C369 1.388 . S
C368 C367 1.366 . S
C368 C372 1.385 . S
C369 H344 0.951 . S
C369 C367 1.388 . S
C369 C370 1.366 . S
C370 C369 1.366 . S
C370 C371 1.414 . S
C370 C373 1.499 . S
C371 H345 0.950 . S
C371 C370 1.414 . S
C371 C372 1.374 . S
C372 H346 0.950 . S
C372 C368 1.385 . S
C372 C371 1.374 . S
C373 C370 1.499 . S
C373 C374 1.373 . S
C373 C375 1.389 . S
C374 H347 0.950 . S
C374 C360 1.377 . S
C374 C373 1.373 . S
C375 C359 1.377 . S
C375 C373 1.389 . S
C375 C376 1.524 . S
C376 C375 1.524 . S
C376 C377 1.397 . S
C376 C381 1.363 . S
C377 H348 0.950 . S
C377 C376 1.397 . S
C377 C378 1.334 . S
C378 H349 0.950 . S
C378 C377 1.334 . S
C378 C379 1.287 . S
C379 C378 1.287 . S
C379 C380 1.524 . S
C379 H382 0.999 . S
C380 H350 0.950 . S
C380 C379 1.524 . S
C380 C381 1.415 . S
C381 H351 0.950 . S
C381 C376 1.363 . S
C381 C380 1.415 . S
H382 C379 0.999 . S
H383 C364 0.913 . S
H384 C402 0.951 . S
H385 C404 0.951 . S
H386 C406 0.950 . S
H387 C407 0.950 . S
H388 C409 0.950 . S
H389 C412 0.950 . S
H390 C413 0.950 . S
H391 C415 0.950 . S
H392 C416 0.950 . S
H393 C417 0.951 . S
H394 C419 0.951 . S
H395 C421 0.950 . S
H396 C422 0.950 . S
H397 C424 0.950 . S
H398 C427 0.950 . S
H399 C428 0.950 . S
H400 C430 0.950 . S
H401 C431 0.950 . S
C402 H384 0.951 . S
C402 C403 1.366 . S
C402 C404 1.388 . S
C403 C402 1.366 . S
C403 C407 1.385 . S
C404 H385 0.951 . S
C404 C402 1.388 . S
C404 C405 1.366 . S
C405 C404 1.366 . S
C405 C406 1.414 . S
C405 C408 1.499 . S
C406 H386 0.950 . S
C406 C405 1.414 . S
C406 C407 1.374 . S
C407 H387 0.950 . S
C407 C403 1.385 . S
C407 C406 1.374 . S
C408 C405 1.499 . S
C408 C409 1.373 . S
C408 C410 1.389 1_556 S
C409 H388 0.950 . S
C409 C408 1.373 . S
C409 C425 1.377 1_565 S
C410 C408 1.389 1_554 S
C410 C411 1.524 . S
C410 C424 1.377 1_565 S
C411 C410 1.524 . S
C411 C412 1.397 . S
C411 C416 1.363 . S
C412 H389 0.950 . S
C412 C411 1.397 . S
C412 C413 1.334 . S
C413 H390 0.950 . S
C413 C412 1.334 . S
C413 C414 1.287 . S
C414 C413 1.287 . S
C414 C415 1.524 . S
C414 H433 0.913 . S
C415 H391 0.950 . S
C415 C414 1.524 . S
C415 C416 1.415 . S
C416 H392 0.950 . S
C416 C411 1.363 . S
C416 C415 1.415 . S
C417 H393 0.951 . S
C417 C418 1.366 . S
C417 C419 1.388 . S
C418 C417 1.366 . S
C418 C422 1.385 . S
C419 H394 0.951 . S
C419 C417 1.388 . S
C419 C420 1.366 . S
C420 C419 1.366 . S
C420 C421 1.414 . S
C420 C423 1.499 . S
C421 H395 0.950 . S
C421 C420 1.414 . S
C421 C422 1.374 . S
C422 H396 0.950 . S
C422 C418 1.385 . S
C422 C421 1.374 . S
C423 C420 1.499 . S
C423 C424 1.373 . S
C423 C425 1.389 1_554 S
C424 H397 0.950 . S
C424 C410 1.377 1_545 S
C424 C423 1.373 . S
C425 C409 1.377 1_545 S
C425 C423 1.389 1_556 S
C425 C426 1.524 . S
C426 C425 1.524 . S
C426 C427 1.397 . S
C426 C431 1.363 . S
C427 H398 0.950 . S
C427 C426 1.397 . S
C427 C428 1.334 . S
C428 H399 0.950 . S
C428 C427 1.334 . S
C428 C429 1.287 . S
C429 C428 1.287 . S
C429 C430 1.524 . S
C429 H432 0.999 . S
C430 H400 0.950 . S
C430 C429 1.524 . S
C430 C431 1.415 . S
C431 H401 0.950 . S
C431 C426 1.363 . S
C431 C430 1.415 . S
H432 C429 0.999 . S
H433 C414 0.913 . S
H434 C452 0.951 . S
H435 C454 0.951 . S
H436 C456 0.950 1_655 S
H437 C457 0.950 1_655 S
H438 C459 0.950 . S
H439 C462 0.950 . S
H440 C463 0.950 . S
H441 C465 0.950 1_545 S
H442 C466 0.960 . S
H443 C467 0.951 1_655 S
H444 C469 0.951 1_655 S
H445 C471 0.950 . S
H446 C472 0.950 . S
H447 C474 0.950 . S
H448 C477 0.950 . S
H449 C478 0.950 . S
H450 C480 0.941 1_665 S
H451 C481 0.950 1_655 S
C452 H434 0.951 . S
C452 C453 1.366 . S
C452 C454 1.388 . S
C453 C452 1.366 . S
C453 C457 1.385 . S
C454 H435 0.951 . S
C454 C452 1.388 . S
C454 C455 1.366 . S
C455 C454 1.366 . S
C455 C456 1.414 . S
C455 C458 1.499 . S
C456 H436 0.950 1_455 S
C456 C455 1.414 . S
C456 C457 1.374 . S
C457 H437 0.950 1_455 S
C457 C453 1.385 . S
C457 C456 1.374 . S
C458 C455 1.499 . S
C458 C459 1.373 . S
C458 C460 1.389 . S
C459 H438 0.950 . S
C459 C458 1.373 . S
C459 C475 1.377 1_565 S
C460 C458 1.389 . S
C460 C461 1.524 . S
C460 C474 1.377 1_565 S
C461 C460 1.524 . S
C461 C462 1.397 . S
C461 C466 1.355 1_565 S
C462 H439 0.950 . S
C462 C461 1.397 . S
C462 C463 1.334 . S
C463 H440 0.950 . S
C463 C462 1.334 . S
C463 C464 1.287 . S
C464 C463 1.287 . S
C464 C465 1.524 . S
C464 H483 0.913 . S
C465 H441 0.950 1_565 S
C465 C464 1.524 . S
C465 C466 1.413 1_565 S
C466 H442 0.960 . S
C466 C461 1.355 1_545 S
C466 C465 1.413 1_545 S
C467 H443 0.951 1_455 S
C467 C468 1.366 . S
C467 C469 1.388 . S
C468 C467 1.366 . S
C468 C472 1.385 . S
C469 H444 0.951 1_455 S
C469 C467 1.388 . S
C469 C470 1.366 . S
C470 C469 1.366 . S
C470 C471 1.414 . S
C470 C473 1.499 . S
C471 H445 0.950 . S
C471 C470 1.414 . S
C471 C472 1.374 . S
C472 H446 0.950 . S
C472 C468 1.385 . S
C472 C471 1.374 . S
C473 C470 1.499 . S
C473 C474 1.373 . S
C473 C475 1.389 . S
C474 H447 0.950 . S
C474 C460 1.377 1_545 S
C474 C473 1.373 . S
C475 C459 1.377 1_545 S
C475 C473 1.389 . S
C475 C476 1.524 . S
C476 C475 1.524 . S
C476 C477 1.397 . S
C476 C481 1.363 1_545 S
C477 H448 0.950 . S
C477 C476 1.397 . S
C477 C478 1.334 . S
C478 H449 0.950 . S
C478 C477 1.334 . S
C478 C479 1.287 . S
C479 C478 1.287 . S
C479 C480 1.536 . S
C479 H482 0.999 . S
C480 H450 0.941 1_445 S
C480 C479 1.536 . S
C480 C481 1.413 1_545 S
C481 H451 0.950 1_455 S
C481 C476 1.363 1_565 S
C481 C480 1.413 1_565 S
H482 C479 0.999 . S
H483 C464 0.913 . S
H484 C502 0.951 . S
H485 C504 0.951 . S
H486 C506 0.950 . S
H487 C507 0.950 . S
H488 C509 0.950 . S
H489 C512 0.950 . S
H490 C513 0.950 . S
H491 C515 0.950 . S
H492 C516 0.950 . S
H493 C517 0.951 . S
H494 C519 0.951 . S
H495 C521 0.950 . S
H496 C522 0.950 . S
H497 C524 0.950 . S
H498 C527 0.950 . S
H499 C528 0.950 . S
H500 C530 0.950 1_655 S
H501 C531 0.950 1_655 S
C502 H484 0.951 . S
C502 C503 1.366 . S
C502 C504 1.388 . S
C503 C502 1.366 . S
C503 C507 1.385 . S
C504 H485 0.951 . S
C504 C502 1.388 . S
C504 C505 1.366 . S
C505 C504 1.366 . S
C505 C506 1.414 . S
C505 C508 1.499 1_554 S
C506 H486 0.950 . S
C506 C505 1.414 . S
C506 C507 1.374 . S
C507 H487 0.950 . S
C507 C503 1.385 . S
C507 C506 1.374 . S
C508 C505 1.499 1_556 S
C508 C509 1.373 . S
C508 C510 1.389 . S
C509 H488 0.950 . S
C509 C508 1.373 . S
C509 C525 1.377 . S
C510 C508 1.389 . S
C510 C511 1.524 . S
C510 C524 1.377 . S
C511 C510 1.524 . S
C511 C512 1.397 . S
C511 C516 1.363 . S
C512 H489 0.950 . S
C512 C511 1.397 . S
C512 C513 1.334 1_556 S
C513 H490 0.950 . S
C513 C512 1.334 1_554 S
C513 C514 1.287 . S
C514 C513 1.287 . S
C514 C515 1.524 1_554 S
C514 H533 0.913 . S
C515 H491 0.950 . S
C515 C514 1.524 1_556 S
C515 C516 1.415 . S
C516 H492 0.950 . S
C516 C511 1.363 . S
C516 C515 1.415 . S
C517 H493 0.951 . S
C517 C518 1.366 . S
C517 C519 1.388 . S
C518 C517 1.366 . S
C518 C522 1.385 . S
C519 H494 0.951 . S
C519 C517 1.388 . S
C519 C520 1.366 . S
C520 C519 1.366 . S
C520 C521 1.414 . S
C520 C523 1.499 . S
C521 H495 0.950 . S
C521 C520 1.414 . S
C521 C522 1.374 . S
C522 H496 0.950 . S
C522 C518 1.385 . S
C522 C521 1.374 . S
C523 C520 1.499 . S
C523 C524 1.373 . S
C523 C525 1.389 . S
C524 H497 0.950 . S
C524 C510 1.377 . S
C524 C523 1.373 . S
C525 C509 1.377 . S
C525 C523 1.389 . S
C525 C526 1.524 . S
C526 C525 1.524 . S
C526 C527 1.397 . S
C526 C531 1.363 . S
C527 H498 0.950 . S
C527 C526 1.397 . S
C527 C528 1.334 . S
C528 H499 0.950 . S
C528 C527 1.334 . S
C528 C529 1.287 . S
C529 C528 1.287 . S
C529 C530 1.524 . S
C529 H532 0.999 . S
C530 H500 0.950 1_455 S
C530 C529 1.524 . S
C530 C531 1.415 . S
C531 H501 0.950 1_455 S
C531 C526 1.363 . S
C531 C530 1.415 . S
H532 C529 0.999 . S
H533 C514 0.913 . S
H534 C552 0.951 . S
H535 C554 0.951 . S
H536 C556 0.950 . S
H537 C557 0.950 . S
H538 C559 0.950 . S
H539 C562 0.951 . S
H540 C563 0.950 . S
H541 C565 0.950 . S
H542 C566 0.950 . S
H543 C567 0.951 . S
H544 C569 0.951 . S
H545 C571 0.950 . S
H546 C572 0.950 . S
H547 C574 0.950 . S
H548 C577 0.950 . S
H549 C578 0.950 . S
H550 C580 0.950 . S
H551 C581 0.950 . S
C552 H534 0.951 . S
C552 C553 1.366 1_655 S
C552 C554 1.388 . S
C553 C552 1.366 1_455 S
C553 C557 1.385 . S
C554 H535 0.951 . S
C554 C552 1.388 . S
C554 C555 1.366 1_655 S
C555 C554 1.366 1_455 S
C555 C556 1.414 . S
C555 C558 1.499 1_556 S
C556 H536 0.950 . S
C556 C555 1.414 . S
C556 C557 1.374 . S
C557 H537 0.950 . S
C557 C553 1.385 . S
C557 C556 1.374 . S
C558 C555 1.499 1_554 S
C558 C559 1.373 . S
C558 C560 1.389 1_455 S
C559 H538 0.950 . S
C559 C558 1.373 . S
C559 C575 1.377 . S
C560 C558 1.389 1_655 S
C560 C561 1.524 . S
C560 C574 1.377 . S
C561 C560 1.524 . S
C561 C562 1.397 . S
C561 C566 1.363 . S
C562 H539 0.951 . S
C562 C561 1.397 . S
C562 C563 1.334 1_554 S
C563 H540 0.950 . S
C563 C562 1.334 1_556 S
C563 C564 1.287 . S
C564 C563 1.287 . S
C564 C565 1.524 1_556 S
C564 H583 0.913 . S
C565 H541 0.950 . S
C565 C564 1.524 1_554 S
C565 C566 1.415 . S
C566 H542 0.950 . S
C566 C561 1.363 . S
C566 C565 1.415 . S
C567 H543 0.951 . S
C567 C568 1.366 . S
C567 C569 1.388 . S
C568 C567 1.366 . S
C568 C572 1.385 1_455 S
C569 H544 0.951 . S
C569 C567 1.388 . S
C569 C570 1.366 . S
C570 C569 1.366 . S
C570 C571 1.414 1_455 S
C570 C573 1.499 . S
C571 H545 0.950 . S
C571 C570 1.414 1_655 S
C571 C572 1.374 . S
C572 H546 0.950 . S
C572 C568 1.385 1_655 S
C572 C571 1.374 . S
C573 C570 1.499 . S
C573 C574 1.373 1_455 S
C573 C575 1.389 . S
C574 H547 0.950 . S
C574 C560 1.377 . S
C574 C573 1.373 1_655 S
C575 C559 1.377 . S
C575 C573 1.389 . S
C575 C576 1.524 . S
C576 C575 1.524 . S
C576 C577 1.397 . S
C576 C581 1.363 . S
C577 H548 0.950 . S
C577 C576 1.397 . S
C577 C578 1.334 . S
C578 H549 0.950 . S
C578 C577 1.334 . S
C578 C579 1.287 . S
C579 C578 1.287 . S
C579 C580 1.524 . S
C579 H582 0.999 . S
C580 H550 0.950 . S
C580 C579 1.524 . S
C580 C581 1.415 . S
C581 H551 0.950 . S
C581 C576 1.363 . S
C581 C580 1.415 . S
H582 C579 0.999 . S
H583 C564 0.913 . S
H584 C602 0.951 . S
H585 C604 0.951 . S
H586 C606 0.950 . S
H587 C607 0.950 . S
H588 C609 0.950 . S
H589 C612 0.950 . S
H590 C613 0.950 . S
H591 C615 0.950 . S
H592 C616 0.950 . S
H593 C617 0.951 . S
H594 C619 0.951 . S
H595 C621 0.950 . S
H596 C622 0.950 . S
H597 C624 0.950 . S
H598 C627 0.950 . S
H599 C628 0.950 . S
H600 C630 0.950 . S
H601 C631 0.950 . S
C602 H584 0.951 . S
C602 C603 1.366 . S
C602 C604 1.388 . S
C603 C602 1.366 . S
C603 C607 1.385 . S
C604 H585 0.951 . S
C604 C602 1.388 . S
C604 C605 1.366 . S
C605 C604 1.366 . S
C605 C606 1.414 . S
C605 C608 1.499 . S
C606 H586 0.950 . S
C606 C605 1.414 . S
C606 C607 1.374 . S
C607 H587 0.950 . S
C607 C603 1.385 . S
C607 C606 1.374 . S
C608 C605 1.499 . S
C608 C609 1.373 . S
C608 C610 1.389 . S
C609 H588 0.950 . S
C609 C608 1.373 . S
C609 C625 1.377 . S
C610 C608 1.389 . S
C610 C611 1.524 . S
C610 C624 1.377 . S
C611 C610 1.524 . S
C611 C612 1.397 . S
C611 C616 1.363 . S
C612 H589 0.950 . S
C612 C611 1.397 . S
C612 C613 1.334 . S
C613 H590 0.950 . S
C613 C612 1.334 . S
C613 C614 1.287 . S
C614 C613 1.287 . S
C614 C615 1.524 . S
C614 H633 0.913 . S
C615 H591 0.950 . S
C615 C614 1.524 . S
C615 C616 1.415 . S
C616 H592 0.950 . S
C616 C611 1.363 . S
C616 C615 1.415 . S
C617 H593 0.951 . S
C617 C618 1.366 . S
C617 C619 1.388 . S
C618 C617 1.366 . S
C618 C622 1.385 . S
C619 H594 0.951 . S
C619 C617 1.388 . S
C619 C620 1.366 . S
C620 C619 1.366 . S
C620 C621 1.414 . S
C620 C623 1.499 . S
C621 H595 0.950 . S
C621 C620 1.414 . S
C621 C622 1.374 . S
C622 H596 0.950 . S
C622 C618 1.385 . S
C622 C621 1.374 . S
C623 C620 1.499 . S
C623 C624 1.373 . S
C623 C625 1.389 . S
C624 H597 0.950 . S
C624 C610 1.377 . S
C624 C623 1.373 . S
C625 C609 1.377 . S
C625 C623 1.389 . S
C625 C626 1.524 . S
C626 C625 1.524 . S
C626 C627 1.397 . S
C626 C631 1.363 . S
C627 H598 0.950 . S
C627 C626 1.397 . S
C627 C628 1.334 . S
C628 H599 0.950 . S
C628 C627 1.334 . S
C628 C629 1.287 . S
C629 C628 1.287 . S
C629 C630 1.524 . S
C629 H632 0.999 . S
C630 H600 0.950 . S
C630 C629 1.524 . S
C630 C631 1.415 . S
C631 H601 0.950 . S
C631 C626 1.363 . S
C631 C630 1.415 . S
H632 C629 0.999 . S
H633 C614 0.913 . S
H634 C652 0.951 . S
H635 C654 0.951 . S
H636 C656 0.950 . S
H637 C657 0.950 . S
H638 C659 0.950 . S
H639 C662 0.950 . S
H640 C663 0.950 . S
H641 C665 0.950 . S
H642 C666 0.950 . S
H643 C667 0.951 . S
H644 C669 0.951 . S
H645 C671 0.950 . S
H646 C672 0.950 . S
H647 C674 0.950 . S
H648 C677 0.950 . S
H649 C678 0.950 . S
H650 C680 0.950 . S
H651 C681 0.950 . S
C652 H634 0.951 . S
C652 C653 1.366 . S
C652 C654 1.388 . S
C653 C652 1.366 . S
C653 C657 1.385 . S
C654 H635 0.951 . S
C654 C652 1.388 . S
C654 C655 1.366 . S
C655 C654 1.366 . S
C655 C656 1.414 . S
C655 C658 1.499 . S
C656 H636 0.950 . S
C656 C655 1.414 . S
C656 C657 1.374 . S
C657 H637 0.950 . S
C657 C653 1.385 . S
C657 C656 1.374 . S
C658 C655 1.499 . S
C658 C659 1.373 . S
C658 C660 1.389 . S
C659 H638 0.950 . S
C659 C658 1.373 . S
C659 C675 1.377 . S
C660 C658 1.389 . S
C660 C661 1.524 . S
C660 C674 1.377 . S
C661 C660 1.524 . S
C661 C662 1.397 . S
C661 C666 1.363 . S
C662 H639 0.950 . S
C662 C661 1.397 . S
C662 C663 1.334 . S
C663 H640 0.950 . S
C663 C662 1.334 . S
C663 C664 1.287 . S
C664 C663 1.287 . S
C664 C665 1.524 . S
C664 H683 0.913 . S
C665 H641 0.950 . S
C665 C664 1.524 . S
C665 C666 1.415 . S
C666 H642 0.950 . S
C666 C661 1.363 . S
C666 C665 1.415 . S
C667 H643 0.951 . S
C667 C668 1.366 . S
C667 C669 1.388 . S
C668 C667 1.366 . S
C668 C672 1.385 . S
C669 H644 0.951 . S
C669 C667 1.388 . S
C669 C670 1.366 . S
C670 C669 1.366 . S
C670 C671 1.414 . S
C670 C673 1.499 . S
C671 H645 0.950 . S
C671 C670 1.414 . S
C671 C672 1.374 . S
C672 H646 0.950 . S
C672 C668 1.385 . S
C672 C671 1.374 . S
C673 C670 1.499 . S
C673 C674 1.373 . S
C673 C675 1.389 . S
C674 H647 0.950 . S
C674 C660 1.377 . S
C674 C673 1.373 . S
C675 C659 1.377 . S
C675 C673 1.389 . S
C675 C676 1.524 . S
C676 C675 1.524 . S
C676 C677 1.397 . S
C676 C681 1.363 . S
C677 H648 0.950 . S
C677 C676 1.397 . S
C677 C678 1.334 . S
C678 H649 0.950 . S
C678 C677 1.334 . S
C678 C679 1.287 . S
C679 C678 1.287 . S
C679 C680 1.524 . S
C679 H682 0.999 . S
C680 H650 0.950 . S
C680 C679 1.524 . S
C680 C681 1.415 . S
C681 H651 0.950 . S
C681 C676 1.363 . S
C681 C680 1.415 . S
H682 C679 0.999 . S
H683 C664 0.913 . S
C103 C3 1.406 . S
C118 C25 1.520 . S
C153 C62 1.180 . S
C168 C40 1.179 . S
C203 C67 1.376 . S
C218 C49 1.499 . S
C253 C7 1.751 . S
C268 C79 1.762 . S
C303 C83 1.184 . S
C318 C4 1.180 . S
C353 C58 1.763 . S
C368 C24 1.767 . S
C403 C46 1.396 . S
C418 C70 1.517 . S
C453 C28 1.372 . S
C468 C19 1.502 . S
C503 C16 1.047 . S
C518 C20 1.039 . S
C553 C41 1.043 . S
C568 C37 1.039 . S
C603 C45 1.041 . S
C618 C61 1.045 . S
C653 C82 1.045 . S
C668 C66 1.040 . S
