# Generated by pormake.
# Topology une, (4)-cn, num edge types: 1
# Building blocks:
#     Node 0, Type 0, BuildingBlock: UXUYUI_clean_sbu_0, # of connection points: 4
#     Node 1, Type 0, BuildingBlock: UXUYUI_clean_sbu_0, # of connection points: 4
#     Node 2, Type 0, BuildingBlock: UXUYUI_clean_sbu_0, # of connection points: 4
#     Node 3, Type 0, BuildingBlock: UXUYUI_clean_sbu_0, # of connection points: 4
#     Node 4, Type 0, BuildingBlock: UXUYUI_clean_sbu_0, # of connection points: 4
#     Node 5, Type 0, BuildingBlock: UXUYUI_clean_sbu_0, # of connection points: 4
#     Node 6, Type 0, BuildingBlock: UXUYUI_clean_sbu_0, # of connection points: 4
#     Node 7, Type 0, BuildingBlock: UXUYUI_clean_sbu_0, # of connection points: 4
#     Node 8, Type 0, BuildingBlock: UXUYUI_clean_sbu_0, # of connection points: 4
#     Node 9, Type 0, BuildingBlock: UXUYUI_clean_sbu_0, # of connection points: 4
#     Node 10, Type 0, BuildingBlock: UXUYUI_clean_sbu_0, # of connection points: 4
#     Node 11, Type 0, BuildingBlock: UXUYUI_clean_sbu_0, # of connection points: 4
#     Node 12, Type 0, BuildingBlock: UXUYUI_clean_sbu_0, # of connection points: 4
#     Node 13, Type 0, BuildingBlock: UXUYUI_clean_sbu_0, # of connection points: 4
#     Node 14, Type 0, BuildingBlock: UXUYUI_clean_sbu_0, # of connection points: 4
#     Node 15, Type 0, BuildingBlock: UXUYUI_clean_sbu_0, # of connection points: 4
#     Node 16, Type 0, BuildingBlock: UXUYUI_clean_sbu_0, # of connection points: 4
#     Node 17, Type 0, BuildingBlock: UXUYUI_clean_sbu_0, # of connection points: 4
#     Edge 18, Type (0, 0), BuildingBlock: EZIPEK_clean_linker_0, # of connection points: 2
#     Edge 19, Type (0, 0), BuildingBlock: EZIPEK_clean_linker_0, # of connection points: 2
#     Edge 20, Type (0, 0), BuildingBlock: EZIPEK_clean_linker_0, # of connection points: 2
#     Edge 21, Type (0, 0), BuildingBlock: EZIPEK_clean_linker_0, # of connection points: 2
#     Edge 22, Type (0, 0), BuildingBlock: EZIPEK_clean_linker_0, # of connection points: 2
#     Edge 23, Type (0, 0), BuildingBlock: EZIPEK_clean_linker_0, # of connection points: 2
#     Edge 24, Type (0, 0), BuildingBlock: EZIPEK_clean_linker_0, # of connection points: 2
#     Edge 25, Type (0, 0), BuildingBlock: EZIPEK_clean_linker_0, # of connection points: 2
#     Edge 26, Type (0, 0), BuildingBlock: EZIPEK_clean_linker_0, # of connection points: 2
#     Edge 27, Type (0, 0), BuildingBlock: EZIPEK_clean_linker_0, # of connection points: 2
#     Edge 28, Type (0, 0), BuildingBlock: EZIPEK_clean_linker_0, # of connection points: 2
#     Edge 29, Type (0, 0), BuildingBlock: EZIPEK_clean_linker_0, # of connection points: 2
#     Edge 30, Type (0, 0), BuildingBlock: EZIPEK_clean_linker_0, # of connection points: 2
#     Edge 31, Type (0, 0), BuildingBlock: EZIPEK_clean_linker_0, # of connection points: 2
#     Edge 32, Type (0, 0), BuildingBlock: EZIPEK_clean_linker_0, # of connection points: 2
#     Edge 33, Type (0, 0), BuildingBlock: EZIPEK_clean_linker_0, # of connection points: 2
#     Edge 34, Type (0, 0), BuildingBlock: EZIPEK_clean_linker_0, # of connection points: 2
#     Edge 35, Type (0, 0), BuildingBlock: EZIPEK_clean_linker_0, # of connection points: 2
#     Edge 36, Type (0, 0), BuildingBlock: EZIPEK_clean_linker_0, # of connection points: 2
#     Edge 37, Type (0, 0), BuildingBlock: EZIPEK_clean_linker_0, # of connection points: 2
#     Edge 38, Type (0, 0), BuildingBlock: EZIPEK_clean_linker_0, # of connection points: 2
#     Edge 39, Type (0, 0), BuildingBlock: EZIPEK_clean_linker_0, # of connection points: 2
#     Edge 40, Type (0, 0), BuildingBlock: EZIPEK_clean_linker_0, # of connection points: 2
#     Edge 41, Type (0, 0), BuildingBlock: EZIPEK_clean_linker_0, # of connection points: 2
#     Edge 42, Type (0, 0), BuildingBlock: EZIPEK_clean_linker_0, # of connection points: 2
#     Edge 43, Type (0, 0), BuildingBlock: EZIPEK_clean_linker_0, # of connection points: 2
#     Edge 44, Type (0, 0), BuildingBlock: EZIPEK_clean_linker_0, # of connection points: 2
#     Edge 45, Type (0, 0), BuildingBlock: EZIPEK_clean_linker_0, # of connection points: 2
#     Edge 46, Type (0, 0), BuildingBlock: EZIPEK_clean_linker_0, # of connection points: 2
#     Edge 47, Type (0, 0), BuildingBlock: EZIPEK_clean_linker_0, # of connection points: 2
#     Edge 48, Type (0, 0), BuildingBlock: EZIPEK_clean_linker_0, # of connection points: 2
#     Edge 49, Type (0, 0), BuildingBlock: EZIPEK_clean_linker_0, # of connection points: 2
#     Edge 50, Type (0, 0), BuildingBlock: EZIPEK_clean_linker_0, # of connection points: 2
#     Edge 51, Type (0, 0), BuildingBlock: EZIPEK_clean_linker_0, # of connection points: 2
#     Edge 52, Type (0, 0), BuildingBlock: EZIPEK_clean_linker_0, # of connection points: 2
#     Edge 53, Type (0, 0), BuildingBlock: EZIPEK_clean_linker_0, # of connection points: 2
# Relax obj value: 0.347
# Max RMSD: 0.226
# Mean RMSD: 0.222
data_MOF--net-une--node1-UXUYUI_clean_sbu_0--edge1-EZIPEK_clean_linker_0
_symmetry_space_group_name_H-M    P1
_symmetry_Int_Tables_number       1
_symmetry_cell_setting            triclinic
loop_
_symmetry_equiv_pos_as_xyz
'x, y, z'
_cell_length_a     45.354347
_cell_length_b     45.322819
_cell_length_c     64.66547
_cell_angle_alpha  89.963708
_cell_angle_beta   89.950225
_cell_angle_gamma 120.00719
loop_
_atom_site_label
_atom_site_type_symbol
_atom_site_fract_x
_atom_site_fract_y
_atom_site_fract_z
_atom_type_partial_charge
Li0 Li 0.35089 0.07132 0.04179 0.0
Li1 Li 0.36041 0.07486 0.0801 0.0
Li2 Li 0.3891 0.05268 0.0551 0.0
Li3 Li 0.32943 0.01989 0.06274 0.0
C4 C 0.40905 0.13087 0.04862 0.0
N5 N 0.43637 0.19444 0.03049 0.0
C6 C 0.40987 0.15791 0.0595 0.0
C7 C 0.4225 0.13626 0.02862 0.0
C8 C 0.42372 0.18984 0.05005 0.0
C9 C 0.43607 0.16855 0.01969 0.0
C10 C 0.28308 0.03774 0.06618 0.0
C11 C 0.23261 0.00379 0.08656 0.0
N12 N 0.21326 0.997 0.06925 0.0
C13 C 0.2627 0.03064 0.04861 0.0
C14 C 0.26797 0.02442 0.08534 0.0
C15 C 0.22744 0.00992 0.05048 0.0
C16 C 0.3314 0.07809 0.00084 0.0
N17 N 0.34041 0.09243 0.01995 0.0
C18 C 0.33327 0.13889 0.0094 0.0
C19 C 0.34059 0.12175 0.02459 0.0
C20 C 0.32496 0.12523 0.98943 0.0
C21 C 0.32359 0.09427 0.98516 0.0
H22 H 0.32978 0.05389 0.99784 0.0
H23 H 0.34625 0.13171 0.04015 0.0
C24 C 0.38462 0.11235 0.11885 0.0
N25 N 0.36127 0.10147 0.10332 0.0
C26 C 0.38252 0.13154 0.13522 0.0
C27 C 0.33258 0.12774 0.11923 0.0
C28 C 0.33582 0.10909 0.10319 0.0
C29 C 0.35604 0.13915 0.1355 0.0
H30 H 0.40471 0.10608 0.11855 0.0
H31 H 0.3179 0.10068 0.09054 0.0
C32 C 0.36055 0.01587 0.01978 0.0
N33 N 0.37876 0.98778 0.98776 0.0
C34 C 0.35078 0.9813 0.02014 0.0
C35 C 0.37982 0.03616 0.0032 0.0
C36 C 0.36037 0.96763 0.00385 0.0
C37 C 0.38846 0.02142 0.98707 0.0
C38 C 0.35687 0.01174 0.09894 0.0
C39 C 0.36186 0.98372 0.09812 0.0
C40 C 0.34142 0.01654 0.11634 0.0
C41 C 0.35102 0.96078 0.11465 0.0
C42 C 0.33101 0.99308 0.13258 0.0
N43 N 0.33596 0.9659 0.1314 0.0
C44 C 0.45639 0.07502 0.03937 0.0
C45 C 0.42166 0.01587 0.04591 0.0
C46 C 0.48003 0.06928 0.0288 0.0
N47 N 0.42742 0.04828 0.04714 0.0
C48 C 0.44405 0.00891 0.03503 0.0
C49 C 0.47307 0.03569 0.02582 0.0
H50 H 0.46028 0.10052 0.04041 0.0
H51 H 0.39833 0.99508 0.052 0.0
C52 C 0.27667 0.96493 0.04444 0.0
N53 N 0.29118 0.97471 0.06342 0.0
C54 C 0.24966 0.93222 0.04129 0.0
C55 C 0.25127 0.9203 0.0776 0.0
C56 C 0.27849 0.95351 0.08006 0.0
C57 C 0.23719 0.90945 0.05789 0.0
H58 H 0.28647 0.98254 0.0316 0.0
H59 H 0.28935 0.96205 0.09518 0.0
O60 O 0.39513 0.09932 0.05752 0.0
O61 O 0.31772 0.05693 0.06454 0.0
O62 O 0.35083 0.02959 0.03542 0.0
O63 O 0.36785 0.0348 0.08307 0.0
H64 H 0.39969 0.15423 0.07503 0.0
H65 H 0.42219 0.11566 0.02002 0.0
H66 H 0.42436 0.21095 0.05824 0.0
H67 H 0.44631 0.17301 0.00416 0.0
H68 H 0.22057 0.99307 0.10125 0.0
H69 H 0.27404 0.04064 0.03365 0.0
H70 H 0.28343 0.0296 0.09906 0.0
H71 H 0.21135 0.00399 0.03699 0.0
H72 H 0.33384 0.16245 0.0132 0.0
H73 H 0.31647 0.08284 0.96996 0.0
H74 H 0.40113 0.14018 0.14756 0.0
H75 H 0.312 0.13336 0.11893 0.0
H76 H 0.33636 0.96525 0.03299 0.0
H77 H 0.38781 0.06296 0.00268 0.0
H78 H 0.35314 0.94098 0.004 0.0
H79 H 0.40302 0.03678 0.97403 0.0
H80 H 0.37387 0.97963 0.08486 0.0
H81 H 0.33726 0.03797 0.11727 0.0
H82 H 0.3546 0.93892 0.11418 0.0
H83 H 0.31893 0.99644 0.14609 0.0
H84 H 0.50241 0.0905 0.02196 0.0
H85 H 0.43809 0.98275 0.03312 0.0
H86 H 0.23893 0.92451 0.02594 0.0
H87 H 0.2417 0.90318 0.09073 0.0
Li88 Li 0.95334 0.34065 0.05732 0.0
Li89 Li 0.98583 0.31144 0.06472 0.0
Li90 Li 0.93097 0.2821 0.04537 0.0
Li91 Li 0.93159 0.29004 0.08244 0.0
C92 C 0.99826 0.34549 0.02475 0.0
N93 N 0.04798 0.39199 0.9985 0.0
C94 C 0.02789 0.37292 0.03279 0.0
C95 C 0.99411 0.34152 0.00333 0.0
C96 C 0.0527 0.39617 0.01928 0.0
C97 C 0.01946 0.36538 0.99032 0.0
C98 C -0.00045 0.35782 0.09732 0.0
C99 C 0.02995 0.36736 0.12951 0.0
N100 N 0.05282 0.39949 0.12323 0.0
C101 C 0.0232 0.3911 0.09131 0.0
C102 C 0.00282 0.34599 0.11667 0.0
C103 C 0.05 0.4117 0.10456 0.0
C104 C 0.97096 0.41204 0.05775 0.0
N105 N 0.9579 0.38224 0.04708 0.0
C106 C 0.96033 0.41056 0.01539 0.0
C107 C 0.95146 0.38091 0.02646 0.0
C108 C 0.97571 0.44182 0.02572 0.0
C109 C 0.98023 0.44251 0.04723 0.0
H110 H 0.97556 0.41242 0.07417 0.0
H111 H 0.94096 0.35686 0.01839 0.0
C112 C 0.03312 0.3005 0.04685 0.0
N113 N 0.02998 0.31684 0.06357 0.0
C114 C 0.0648 0.3053 0.04122 0.0
C115 C 0.08941 0.34228 0.07083 0.0
C116 C 0.05706 0.33674 0.07592 0.0
C117 C 0.09336 0.32708 0.05297 0.0
H118 H 0.01109 0.28491 0.03735 0.0
H119 H 0.05406 0.34933 0.08919 0.0
C120 C 0.87544 0.2852 0.05119 0.0
N121 N 0.8142 0.253 0.03024 0.0
C122 C 0.85333 0.25024 0.05374 0.0
C123 C 0.86622 0.30386 0.03816 0.0
C124 C 0.82256 0.23439 0.04294 0.0
C125 C 0.83518 0.28709 0.02766 0.0
C126 C 0.94408 0.23655 0.07815 0.0
C127 C 0.91178 0.20767 0.08013 0.0
C128 C 0.9719 0.23742 0.08805 0.0
C129 C 0.90785 0.18025 0.0921 0.0
C130 C 0.9669 0.2095 0.0999 0.0
N131 N 0.93525 0.18174 0.10167 0.0
C132 C 0.89843 0.22033 0.02318 0.0
C133 C 0.90183 0.26799 0.00569 0.0
C134 C 0.87977 0.19894 0.00696 0.0
N135 N 0.90838 0.25398 0.02243 0.0
C136 C 0.88369 0.2476 0.98893 0.0
C137 C 0.87178 0.21252 0.9898 0.0
H138 H 0.90446 0.21002 0.0365 0.0
H139 H 0.91011 0.29489 0.00557 0.0
C140 C 0.87347 0.25762 0.10905 0.0
N141 N 0.90696 0.26712 0.10715 0.0
C142 C 0.85346 0.23457 0.1245 0.0
C143 C 0.90305 0.23269 0.13625 0.0
C144 C 0.92213 0.25603 0.12082 0.0
C145 C 0.86817 0.22111 0.13784 0.0
H146 H 0.8619 0.26666 0.09801 0.0
H147 H 0.94859 0.26349 0.11894 0.0
O148 O 0.97343 0.32257 0.03773 0.0
O149 O 0.97285 0.33731 0.08466 0.0
O150 O 0.906 0.30106 0.06133 0.0
O151 O 0.94856 0.2637 0.06647 0.0
H152 H 0.03184 0.37604 0.04925 0.0
H153 H 0.97152 0.32031 0.99679 0.0
H154 H 0.07573 0.41751 0.02533 0.0
H155 H 0.01646 0.36271 0.97371 0.0
H156 H 0.0328 0.35842 0.14448 0.0
H157 H 0.02106 0.40102 0.07656 0.0
H158 H 0.98462 0.32064 0.12179 0.0
H159 H 0.06854 0.4374 0.10002 0.0
H160 H 0.95644 0.40929 0.99882 0.0
H161 H 0.99196 0.46641 0.05558 0.0
H162 H 0.06726 0.29333 0.02733 0.0
H163 H 0.11121 0.35925 0.08013 0.0
H164 H 0.86004 0.23544 0.06378 0.0
H165 H 0.88279 0.33099 0.03619 0.0
H166 H 0.80535 0.2073 0.04463 0.0
H167 H 0.82778 0.30119 0.01747 0.0
H168 H 0.8899 0.20653 0.07272 0.0
H169 H 0.99706 0.25952 0.08677 0.0
H170 H 0.88301 0.1578 0.09381 0.0
H171 H 0.98818 0.20992 0.10772 0.0
H172 H 0.87103 0.17193 0.00794 0.0
H173 H 0.87793 0.25872 0.97581 0.0
H174 H 0.82654 0.22611 0.12542 0.0
H175 H 0.9151 0.22276 0.14635 0.0
Li176 Li 0.68726 0.66611 0.06244 0.0
Li177 Li 0.70814 0.63415 0.08122 0.0
Li178 Li 0.71523 0.64018 0.04359 0.0
Li179 Li 0.65692 0.60404 0.0574 0.0
C180 C 0.75827 0.70809 0.0575 0.0
N181 N 0.80484 0.77166 0.04218 0.0
C182 C 0.78513 0.73135 0.06989 0.0
C183 C 0.75545 0.71708 0.03723 0.0
C184 C 0.80831 0.76339 0.06189 0.0
C185 C 0.77913 0.74933 0.02978 0.0
C186 C 0.64667 0.64298 0.09552 0.0
C187 C 0.59601 0.64159 0.1083 0.0
N188 N 0.61572 0.6713 0.11855 0.0
C189 C 0.66642 0.6733 0.10637 0.0
C190 C 0.61118 0.62682 0.09662 0.0
C191 C 0.6503 0.6873 0.11784 0.0
C192 C 0.6445 0.69225 0.05665 0.0
N193 N 0.67719 0.70215 0.06189 0.0
C194 C 0.69329 0.76073 0.05835 0.0
C195 C 0.70112 0.73563 0.06383 0.0
C196 C 0.66044 0.75099 0.05132 0.0
C197 C 0.63536 0.71646 0.05154 0.0
H198 H 0.62608 0.66544 0.05518 0.0
H199 H 0.7267 0.74297 0.06848 0.0
C200 C 0.73717 0.60976 0.1128 0.0
N201 N 0.73264 0.63564 0.10594 0.0
C202 C 0.75976 0.61519 0.12904 0.0
C203 C 0.77246 0.67361 0.13096 0.0
C204 C 0.74935 0.66694 0.11493 0.0
C205 C 0.77818 0.64766 0.13799 0.0
H206 H 0.72433 0.58522 0.10536 0.0
H207 H 0.74569 0.68721 0.10912 0.0
C208 C 0.66439 0.64373 0.01715 0.0
N209 N 0.64725 0.65075 0.97713 0.0
C210 C 0.64721 0.61517 0.00442 0.0
C211 C 0.67221 0.67577 0.00961 0.0
C212 C 0.63901 0.61929 0.98419 0.0
C213 C 0.66347 0.67881 0.98933 0.0
C214 C 0.6883 0.56677 0.06924 0.0
C215 C 0.70482 0.54868 0.06423 0.0
C216 C 0.66207 0.55351 0.0839 0.0
C217 C 0.69495 0.51765 0.07407 0.0
C218 C 0.65293 0.52237 0.09337 0.0
N219 N 0.66943 0.50525 0.08831 0.0
C220 C 0.77879 0.66098 0.02589 0.0
C221 C 0.73304 0.63128 0.00246 0.0
C222 C 0.80229 0.66575 0.01051 0.0
N223 N 0.74494 0.64447 0.02155 0.0
C224 C 0.7557 0.63542 0.98658 0.0
C225 C 0.79068 0.65293 0.99066 0.0
H226 H 0.78754 0.67044 0.04132 0.0
H227 H 0.70608 0.61717 0.99957 0.0
C228 C 0.58958 0.57717 0.04591 0.0
N229 N 0.61345 0.56781 0.04892 0.0
C230 C 0.56006 0.55628 0.03472 0.0
C231 C 0.57952 0.51578 0.03047 0.0
C232 C 0.60882 0.53754 0.04174 0.0
C233 C 0.55531 0.52568 0.02642 0.0
H234 H 0.59461 0.602 0.05093 0.0
H235 H 0.62877 0.5313 0.04348 0.0
O236 O 0.73532 0.67657 0.06513 0.0
O237 O 0.66195 0.62914 0.08392 0.0
O238 O 0.67304 0.6403 0.03696 0.0
O239 O 0.69763 0.59705 0.05959 0.0
H240 H 0.78815 0.72481 0.08552 0.0
H241 H 0.73552 0.69918 0.02725 0.0
H242 H 0.82911 0.78166 0.07135 0.0
H243 H 0.77716 0.75653 0.01411 0.0
H244 H 0.56857 0.62941 0.10923 0.0
H245 H 0.69388 0.68626 0.10557 0.0
H246 H 0.5955 0.60304 0.08862 0.0
H247 H 0.66529 0.71095 0.12612 0.0
H248 H 0.7131 0.78727 0.05843 0.0
H249 H 0.60978 0.70825 0.04617 0.0
H250 H 0.76366 0.59463 0.13412 0.0
H251 H 0.78631 0.69897 0.13751 0.0
H252 H 0.64108 0.59019 0.00989 0.0
H253 H 0.68504 0.69815 0.01925 0.0
H254 H 0.62637 0.59755 0.97403 0.0
H255 H 0.66969 0.7035 0.98325 0.0
H256 H 0.72509 0.55857 0.05287 0.0
H257 H 0.64882 0.56698 0.08792 0.0
H258 H 0.70756 0.50341 0.07038 0.0
H259 H 0.6327 0.51181 0.10473 0.0
H260 H 0.82923 0.67898 0.0141 0.0
H261 H 0.74613 0.62481 0.97142 0.0
H262 H 0.54198 0.56475 0.03162 0.0
H263 H 0.57665 0.49243 0.02403 0.0
Li264 Li 0.62229 0.96106 0.94542 0.0
Li265 Li 0.68348 0.98676 0.94272 0.0
Li266 Li 0.64672 0.93592 0.92214 0.0
Li267 Li 0.65193 0.93253 0.95944 0.0
C268 C 0.63534 0.99523 0.90945 0.0
N269 N 0.60163 0.0226 0.8884 0.0
C270 C 0.64667 0.03006 0.91082 0.0
C271 C 0.60716 0.9744 0.89717 0.0
C272 C 0.62919 0.04339 0.90013 0.0
C273 C 0.59039 0.98869 0.88669 0.0
C274 C 0.6531 0.97134 0.98908 0.0
C275 C 0.67508 0.96486 0.02174 0.0
N276 N 0.64586 0.95898 0.03122 0.0
C277 C 0.62327 0.96514 0.99919 0.0
C278 C 0.67925 0.97122 1.00049 0.0
C279 C 0.62012 0.95903 0.02048 0.0
C280 C 0.55651 0.9499 0.95733 0.0
N281 N 0.58902 0.97343 0.95209 0.0
C282 C 0.58223 0.01838 0.96628 0.0
C283 C 0.6019 0.00714 0.95609 0.0
C284 C 0.54932 0.99455 0.9728 0.0
C285 C 0.53601 0.96004 0.96782 0.0
H286 H 0.54738 0.92313 0.95474 0.0
H287 H 0.62833 0.025 0.95273 0.0
C288 C 0.73658 0.04958 0.92603 0.0
N289 N 0.72362 0.02986 0.94323 0.0
C290 C 0.76384 0.08297 0.9278 0.0
C291 C 0.76429 0.07415 0.9647 0.0
C292 C 0.73711 0.04134 0.96224 0.0
C293 C 0.77741 0.09546 0.94744 0.0
H294 H 0.72501 0.03979 0.91112 0.0
H295 H 0.72609 0.02539 0.97561 0.0
C296 C 0.58564 0.88263 0.93476 0.0
N297 N 0.53815 0.82145 0.91736 0.0
C298 C 0.58628 0.8528 0.93931 0.0
C299 C 0.56054 0.88127 0.92164 0.0
C300 C 0.56214 0.82214 0.93027 0.0
C301 C 0.53684 0.85011 0.91292 0.0
C302 C 0.72134 0.96188 0.93315 0.0
C303 C 0.73089 0.96763 0.91233 0.0
C304 C 0.74645 0.97427 0.94846 0.0
C305 C 0.76543 0.98559 0.90717 0.0
C306 C 0.78072 0.9922 0.94267 0.0
N307 N 0.78942 0.99744 0.92232 0.0
C308 C 0.64672 0.92174 0.87827 0.0
C309 C 0.64751 0.88267 0.90235 0.0
C310 C 0.65179 0.90449 0.86188 0.0
N311 N 0.64494 0.91066 0.89805 0.0
C312 C 0.65207 0.86448 0.88651 0.0
C313 C 0.65492 0.87574 0.86605 0.0
H314 H 0.64591 0.9448 0.8753 0.0
H315 H 0.64765 0.87538 0.91825 0.0
C316 C 0.62304 0.88523 0.9923 0.0
N317 N 0.65101 0.9027 0.9801 0.0
C318 C 0.62151 0.86121 0.00644 0.0
C319 C 0.67786 0.87442 0.99542 0.0
C320 C 0.67824 0.89798 0.98149 0.0
C321 C 0.64905 0.85545 0.00779 0.0
H322 H 0.60162 0.88933 0.9906 0.0
H323 H 0.69979 0.91176 0.97133 0.0
O324 O 0.65192 0.98166 0.91996 0.0
O325 O 0.65649 0.97697 0.96814 0.0
O326 O 0.60913 0.9129 0.9434 0.0
O327 O 0.68762 0.94522 0.93854 0.0
H328 H 0.66856 0.04656 0.9202 0.0
H329 H 0.59841 0.9475 0.89571 0.0
H330 H 0.63753 0.07027 0.90116 0.0
H331 H 0.56846 0.97284 0.87719 0.0
H332 H 0.69498 0.96435 0.03067 0.0
H333 H 0.60263 0.96482 0.99077 0.0
H334 H 0.70216 0.97494 0.99296 0.0
H335 H 0.59714 0.9542 0.02845 0.0
H336 H 0.59325 0.0451 0.97014 0.0
H337 H 0.51073 0.94108 0.97286 0.0
H338 H 0.77345 0.09913 0.91426 0.0
H339 H 0.77423 0.0833 0.98005 0.0
H340 H 0.6054 0.85337 0.94957 0.0
H341 H 0.55927 0.90399 0.91831 0.0
H342 H 0.56249 0.7989 0.93353 0.0
H343 H 0.51734 0.8487 0.90266 0.0
H344 H 0.71191 0.95866 0.90026 0.0
H345 H 0.73958 0.97063 0.96467 0.0
H346 H 0.77317 0.99026 0.89111 0.0
H347 H 0.80039 0.00211 0.95436 0.0
H348 H 0.65425 0.91399 0.84623 0.0
H349 H 0.65473 0.84263 0.89025 0.0
H350 H 0.59875 0.84643 0.01562 0.0
H351 H 0.69922 0.87 0.99597 0.0
Li352 Li 0.07128 0.7162 0.92354 0.0
Li353 Li 0.07418 0.72416 0.96191 0.0
Li354 Li 0.04906 0.66632 0.94641 0.0
Li355 Li 0.0204 0.69881 0.94302 0.0
C356 C 0.11667 0.6938 0.93479 0.0
N357 N 0.15625 0.67155 0.91534 0.0
C358 C 0.14883 0.70286 0.94257 0.0
C359 C 0.10459 0.67339 0.91714 0.0
C360 C 0.16847 0.69136 0.93251 0.0
C361 C 0.125 0.66241 0.90753 0.0
C362 C 0.04411 0.7642 0.93944 0.0
C363 C 0.02231 0.79714 0.95587 0.0
N364 N 0.00941 0.79975 0.93742 0.0
C365 C 0.03078 0.76732 0.92062 0.0
C366 C 0.03997 0.77929 0.95721 0.0
C367 C 0.01326 0.78535 0.91993 0.0
C368 C 0.0783 0.73948 0.88207 0.0
N369 N 0.09549 0.7401 0.89944 0.0
C370 C 0.14732 0.78585 0.88587 0.0
C371 C 0.12942 0.76227 0.90148 0.0
C372 C 0.12993 0.78682 0.8682 0.0
C373 C 0.09517 0.76286 0.86612 0.0
H374 H 0.05115 0.7221 0.88111 0.0
H375 H 0.14221 0.76278 0.9157 0.0
C376 C 0.10178 0.73721 0.00223 0.0
N377 N 0.1002 0.7515 0.98405 0.0
C378 C 0.12136 0.7579 0.01855 0.0
C379 C 0.13773 0.80727 0.99681 0.0
C380 C 0.11766 0.78573 0.98104 0.0
C381 C 0.13973 0.79328 0.01572 0.0
H382 H 0.08784 0.70981 0.00401 0.0
H383 H 0.11608 0.7962 0.96631 0.0
C384 C 0.99903 0.64237 0.91564 0.0
N385 N 0.94166 0.58156 0.9054 0.0
C386 C 0.97335 0.62494 0.93027 0.0
C387 C 0.99552 0.62888 0.89578 0.0
C388 C 0.94453 0.59428 0.92481 0.0
C389 C 0.96634 0.59807 0.89091 0.0
C390 C 0.01218 0.67168 0.9859 0.0
C391 C 0.98964 0.63684 0.98873 0.0
C392 C 0.01519 0.69462 0.00134 0.0
C393 C 0.97007 0.62564 0.00675 0.0
C394 C 0.99517 0.68242 0.01914 0.0
N395 N 0.97319 0.64847 0.02145 0.0
C396 C 0.05642 0.62486 0.97379 0.0
C397 C 0.02361 0.59311 0.94495 0.0
C398 C 0.04786 0.59502 0.98462 0.0
N399 N 0.04342 0.62341 0.95463 0.0
C400 C 0.01423 0.56252 0.95531 0.0
C401 C 0.0257 0.56351 0.97558 0.0
H402 H 0.07173 0.64932 0.98118 0.0
H403 H 0.01363 0.59251 0.92971 0.0
C404 C 0.95541 0.68483 0.92698 0.0
N405 N 0.97695 0.69608 0.94347 0.0
C406 C 0.92193 0.67812 0.92916 0.0
C407 C 0.93462 0.69746 0.9646 0.0
C408 C 0.96766 0.70394 0.96168 0.0
C409 C 0.91116 0.68328 0.94846 0.0
H410 H 0.96375 0.67975 0.91242 0.0
H411 H 0.98569 0.71455 0.97413 0.0
O412 O 0.09719 0.70484 0.94454 0.0
O413 O 0.06054 0.74587 0.94053 0.0
O414 O 0.02756 0.67247 0.92055 0.0
O415 O 0.03207 0.68318 0.96849 0.0
H416 H 0.15848 0.71861 0.95625 0.0
H417 H 0.07977 0.66608 0.91089 0.0
H418 H 0.19342 0.69818 0.93835 0.0
H419 H 0.116 0.64662 0.89385 0.0
H420 H 0.01872 0.80878 0.96952 0.0
H421 H 0.03356 0.75557 0.90677 0.0
H422 H 0.04983 0.77681 0.97194 0.0
H423 H 0.00263 0.78781 0.9055 0.0
H424 H 0.1741 0.80414 0.88793 0.0
H425 H 0.08107 0.76314 0.85268 0.0
H426 H 0.12262 0.74654 0.03302 0.0
H427 H 0.1518 0.83456 0.99427 0.0
H428 H 0.9755 0.63515 0.9456 0.0
H429 H 0.0152 0.64206 0.88427 0.0
H430 H 0.92443 0.58061 0.93598 0.0
H431 H 0.96331 0.58731 0.87561 0.0
H432 H 0.98733 0.61854 0.97721 0.0
H433 H 0.03242 0.72168 0.99945 0.0
H434 H 0.95245 0.59878 0.00909 0.0
H435 H 0.99708 0.69996 0.03111 0.0
H436 H 0.05703 0.59651 1.00026 0.0
H437 H 0.99713 0.53843 0.94797 0.0
H438 H 0.90429 0.66759 0.91636 0.0
H439 H 0.92708 0.70235 0.97953 0.0
Li440 Li 0.28015 0.34995 0.95376 0.0
Li441 Li 0.30103 0.31983 0.93423 0.0
Li442 Li 0.33794 0.38082 0.94005 0.0
Li443 Li 0.28452 0.35598 0.91601 0.0
C444 C 0.31777 0.33326 0.97997 0.0
N445 N 0.31573 0.31086 0.01997 0.0
C446 C 0.29395 0.29983 0.9855 0.0
C447 C 0.34075 0.35524 0.99474 0.0
C448 C 0.29328 0.289 0.00581 0.0
C449 C 0.33924 0.34345 0.01489 0.0
C450 C 0.23033 0.28307 0.92932 0.0
C451 C 0.1926 0.23817 0.90625 0.0
N452 N 0.17815 0.21716 0.92277 0.0
C453 C 0.21481 0.26117 0.94608 0.0
C454 C 0.21895 0.2716 0.90924 0.0
C455 C 0.18862 0.22788 0.94244 0.0
C456 C 0.21827 0.33408 0.97145 0.0
N457 N 0.25179 0.34765 0.97608 0.0
C458 C 0.24204 0.35858 0.01084 0.0
C459 C 0.26404 0.35998 0.99528 0.0
C460 C 0.20741 0.34467 0.00635 0.0
C461 C 0.19545 0.33229 0.98648 0.0
H462 H 0.20938 0.32512 0.95595 0.0
H463 H 0.29092 0.37172 0.9984 0.0
C464 C 0.33007 0.28203 0.94609 0.0
N465 N 0.30431 0.27941 0.93406 0.0
C466 C 0.33233 0.25329 0.95074 0.0
C467 C 0.28381 0.22011 0.92861 0.0
C468 C 0.28225 0.2496 0.92456 0.0
C469 C 0.30818 0.22175 0.9426 0.0
H470 H 0.34797 0.30623 0.9529 0.0
H471 H 0.26283 0.2483 0.91441 0.0
C472 C 0.29171 0.41211 0.94944 0.0
N473 N 0.27049 0.44745 0.97438 0.0
C474 C 0.26293 0.41418 0.94413 0.0
C475 C 0.30977 0.42812 0.9674 0.0
C476 C 0.25257 0.4321 0.95697 0.0
C477 C 0.29863 0.44585 0.97981 0.0
C478 C 0.33777 0.33581 0.90145 0.0
C479 C 0.36926 0.33804 0.90481 0.0
C480 C 0.31521 0.31256 0.88701 0.0
C481 C 0.37752 0.31665 0.89379 0.0
C482 C 0.32444 0.29164 0.87629 0.0
N483 N 0.35512 0.29408 0.87989 0.0
C484 C 0.40137 0.39889 0.95468 0.0
C485 C 0.39436 0.44706 0.95056 0.0
C486 C 0.43124 0.41806 0.96591 0.0
N487 N 0.38318 0.41334 0.94777 0.0
C488 C 0.42431 0.46729 0.96172 0.0
C489 C 0.44237 0.45235 0.97 0.0
H490 H 0.39133 0.37183 0.95276 0.0
H491 H 0.37903 0.45772 0.94529 0.0
C492 C 0.22766 0.3505 0.89732 0.0
N493 N 0.26015 0.35861 0.89279 0.0
C494 C 0.20467 0.34545 0.88155 0.0
C495 C 0.24925 0.3583 0.85657 0.0
C496 C 0.27148 0.36301 0.87291 0.0
C497 C 0.21529 0.34878 0.86094 0.0
H498 H 0.21912 0.34624 0.91323 0.0
H499 H 0.29723 0.36874 0.86972 0.0
O500 O 0.31906 0.34433 0.96012 0.0
O501 O 0.25577 0.31587 0.9326 0.0
O502 O 0.30184 0.39404 0.93733 0.0
O503 O 0.32869 0.35566 0.91257 0.0
H504 H 0.27638 0.28235 0.9742 0.0
H505 H 0.35924 0.38125 0.99076 0.0
H506 H 0.27498 0.26318 0.0103 0.0
H507 H 0.35674 0.36024 0.02651 0.0
H508 H 0.18368 0.2289 0.89079 0.0
H509 H 0.22271 0.26984 0.96174 0.0
H510 H 0.23053 0.28814 0.89606 0.0
H511 H 0.1765 0.21061 0.95526 0.0
H512 H 0.2519 0.36873 0.02604 0.0
H513 H 0.1688 0.32171 0.98262 0.0
H514 H 0.35175 0.25536 0.96135 0.0
H515 H 0.26519 0.19606 0.92185 0.0
H516 H 0.24871 0.40202 0.93028 0.0
H517 H 0.33171 0.42624 0.97196 0.0
H518 H 0.23027 0.4338 0.95309 0.0
H519 H 0.3122 0.45813 0.99383 0.0
H520 H 0.38701 0.35592 0.91591 0.0
H521 H 0.29066 0.31037 0.88433 0.0
H522 H 0.40172 0.31796 0.89632 0.0
H523 H 0.30713 0.27337 0.86517 0.0
H524 H 0.44461 0.40587 0.97221 0.0
H525 H 0.43235 0.49375 0.96475 0.0
H526 H 0.17857 0.33792 0.88535 0.0
H527 H 0.25802 0.36084 0.84074 0.0
Li528 Li 0.01854 0.39514 0.37622 0.0
Li529 Li 0.02505 0.40209 0.41341 0.0
Li530 Li 0.05134 0.37226 0.39215 0.0
Li531 Li 0.99007 0.3462 0.39811 0.0
C532 C 0.07821 0.44974 0.37986 0.0
N533 N 0.10724 0.50648 0.35454 0.0
C534 C 0.07862 0.47953 0.38594 0.0
C535 C 0.09302 0.44896 0.36106 0.0
C536 C 0.09334 0.50792 0.37289 0.0
C537 C 0.10741 0.47786 0.34842 0.0
C538 C 0.95227 0.37812 0.38934 0.0
C539 C 0.89943 0.37854 0.39206 0.0
N540 N 0.88933 0.36203 0.37362 0.0
C541 C 0.94139 0.36128 0.3704 0.0
C542 C 0.93118 0.38692 0.40026 0.0
C543 C 0.90949 0.35332 0.36272 0.0
C544 C 0.0162 0.41005 0.33259 0.0
N545 N 0.01386 0.41791 0.35263 0.0
C546 C 0.00333 0.46219 0.34196 0.0
C547 C 0.00736 0.44327 0.3575 0.0
C548 C 0.00571 0.45465 0.32127 0.0
C549 C 0.01202 0.42819 0.3165 0.0
H550 H 0.02129 0.3899 0.32895 0.0
H551 H 0.00543 0.44883 0.37354 0.0
C552 C 0.03771 0.43059 0.45482 0.0
N553 N 0.02643 0.4308 0.43536 0.0
C554 C 0.03373 0.44967 0.47051 0.0
C555 C 0.00678 0.46866 0.44576 0.0
C556 C 0.01157 0.4496 0.43059 0.0
C557 C 0.01762 0.46857 0.46602 0.0
H558 H 0.04892 0.41496 0.45827 0.0
H559 H 0.00263 0.44908 0.41503 0.0
C560 C 0.01262 0.33711 0.35323 0.0
N561 N 0.00917 0.3094 0.31458 0.0
C562 C 0.98128 0.31244 0.34515 0.0
C563 C 0.04227 0.34749 0.34162 0.0
C564 C 0.98005 0.29876 0.32562 0.0
C565 C 0.03996 0.33328 0.3221 0.0
C566 C 0.00757 0.33361 0.43341 0.0
C567 C 0.01175 0.30515 0.43471 0.0
C568 C 0.98318 0.33542 0.44572 0.0
C569 C 0.99123 0.27876 0.4483 0.0
C570 C 0.96317 0.3085 0.45911 0.0
N571 N 0.96756 0.28096 0.4601 0.0
C572 C 0.11722 0.38176 0.38038 0.0
C573 C 0.07041 0.32553 0.38351 0.0
C574 C 0.13615 0.36959 0.36996 0.0
N575 N 0.08466 0.35966 0.38638 0.0
C576 C 0.08804 0.31245 0.37288 0.0
C577 C 0.12082 0.33467 0.36534 0.0
H578 H 0.12754 0.40888 0.38229 0.0
H579 H 0.04415 0.30876 0.38784 0.0
C580 C 0.91953 0.29769 0.40556 0.0
N581 N 0.95071 0.30248 0.4004 0.0
C582 C 0.89027 0.26703 0.40062 0.0
C583 C 0.92621 0.24575 0.38767 0.0
C584 C 0.95464 0.2767 0.39284 0.0
C585 C 0.89375 0.24159 0.39052 0.0
H586 H 0.91719 0.31843 0.41197 0.0
H587 H 0.97981 0.28131 0.389 0.0
O588 O 0.06286 0.42132 0.3921 0.0
O589 O 0.98332 0.38597 0.39728 0.0
O590 O 0.01423 0.3504 0.37252 0.0
O591 O 0.02668 0.3593 0.41982 0.0
H592 H 0.06738 0.48059 0.40048 0.0
H593 H 0.09293 0.42612 0.35614 0.0
H594 H 0.0936 0.53106 0.37732 0.0
H595 H 0.11862 0.47749 0.33372 0.0
H596 H 0.88281 0.38511 0.40037 0.0
H597 H 0.95745 0.35459 0.36167 0.0
H598 H 0.93915 0.39989 0.41498 0.0
H599 H 0.90078 0.34024 0.34808 0.0
H600 H 0.99835 0.48249 0.34602 0.0
H601 H 0.01389 0.42188 0.30058 0.0
H602 H 0.04233 0.4491 0.48604 0.0
H603 H 0.99427 0.48294 0.44181 0.0
H604 H 0.95807 0.30393 0.35383 0.0
H605 H 0.06675 0.36668 0.34743 0.0
H606 H 0.95591 0.27968 0.31924 0.0
H607 H 0.0626 0.34136 0.31285 0.0
H608 H 0.03054 0.3034 0.42529 0.0
H609 H 0.97946 0.35718 0.44474 0.0
H610 H 0.99409 0.25651 0.44944 0.0
H611 H 0.94406 0.30945 0.46865 0.0
H612 H 0.16141 0.38736 0.36427 0.0
H613 H 0.07547 0.28543 0.36952 0.0
H614 H 0.8654 0.26437 0.40295 0.0
H615 H 0.92952 0.22648 0.37983 0.0
Li616 Li 0.63082 0.67716 0.39485 0.0
Li617 Li 0.65789 0.64251 0.40022 0.0
Li618 Li 0.60222 0.61905 0.38091 0.0
Li619 Li 0.60492 0.62558 0.4189 0.0
C620 C 0.66312 0.67852 0.35771 0.0
N621 N 0.69558 0.72092 0.32449 0.0
C622 C 0.69778 0.70265 0.35882 0.0
C623 C 0.64501 0.67581 0.33966 0.0
C624 C 0.71376 0.72375 0.34184 0.0
C625 C 0.66182 0.69764 0.32309 0.0
C626 C 0.6786 0.68614 0.43276 0.0
C627 C 0.70914 0.69424 0.46469 0.0
N628 N 0.73801 0.71888 0.45548 0.0
C629 C 0.70848 0.71171 0.42366 0.0
C630 C 0.67883 0.67741 0.45346 0.0
C631 C 0.73829 0.72788 0.43538 0.0
C632 C 0.66472 0.75068 0.39534 0.0
N633 N 0.63984 0.72141 0.38668 0.0
C634 C 0.63399 0.75254 0.35867 0.0
C635 C 0.6238 0.72194 0.36904 0.0
C636 C 0.66072 0.78282 0.36666 0.0
C637 C 0.67559 0.78202 0.38552 0.0
H638 H 0.67721 0.74961 0.4093 0.0
H639 H 0.60449 0.69825 0.36233 0.0
C640 C 0.7077 0.6375 0.37969 0.0
N641 N 0.69938 0.64191 0.39917 0.0
C642 C 0.73827 0.63837 0.37591 0.0
C643 C 0.75061 0.64638 0.41254 0.0
C644 C 0.71954 0.64527 0.41564 0.0
C645 C 0.76025 0.64344 0.39239 0.0
H646 H 0.6907 0.63376 0.367 0.0
H647 H 0.71177 0.64737 0.43109 0.0
C648 C 0.54818 0.62747 0.39373 0.0
N649 N 0.48019 0.60022 0.38381 0.0
C650 C 0.52548 0.59266 0.39636 0.0
C651 C 0.53622 0.64849 0.38622 0.0
C652 C 0.49124 0.57934 0.39122 0.0
C653 C 0.50178 0.63421 0.38125 0.0
C654 C 0.60736 0.56565 0.40936 0.0
C655 C 0.57458 0.53845 0.40568 0.0
C656 C 0.63035 0.56022 0.4208 0.0
C657 C 0.56503 0.50647 0.41404 0.0
C658 C 0.61983 0.52785 0.4289 0.0
N659 N 0.58764 0.50189 0.42541 0.0
C660 C 0.58621 0.56692 0.3532 0.0
C661 C 0.55321 0.59368 0.34818 0.0
C662 C 0.5675 0.54264 0.33821 0.0
N663 N 0.57801 0.59099 0.35835 0.0
C664 C 0.53344 0.56956 0.33332 0.0
C665 C 0.54003 0.5432 0.32871 0.0
H666 H 0.60653 0.56589 0.3613 0.0
H667 H 0.54804 0.61383 0.35203 0.0
C668 C 0.5484 0.59591 0.44721 0.0
N669 N 0.58071 0.60255 0.44357 0.0
C670 C 0.52838 0.57218 0.46233 0.0
C671 C 0.57601 0.5644 0.47063 0.0
C672 C 0.59516 0.58848 0.45552 0.0
C673 C 0.54195 0.55538 0.47369 0.0
H674 H 0.53762 0.60785 0.43782 0.0
H675 H 0.62109 0.59467 0.4526 0.0
O676 O 0.64721 0.65694 0.37395 0.0
O677 O 0.64916 0.66992 0.42155 0.0
O678 O 0.58194 0.64093 0.39835 0.0
O679 O 0.61718 0.59728 0.40147 0.0
H680 H 0.7123 0.70483 0.37257 0.0
H681 H 0.61821 0.65718 0.3385 0.0
H682 H 0.74059 0.74249 0.34247 0.0
H683 H 0.64807 0.696 0.30908 0.0
H684 H 0.70973 0.68769 0.48072 0.0
H685 H 0.70873 0.71873 0.40766 0.0
H686 H 0.65584 0.65791 0.4608 0.0
H687 H 0.76166 0.74755 0.42849 0.0
H688 H 0.62212 0.75242 0.34411 0.0
H689 H 0.69634 0.80511 0.39202 0.0
H690 H 0.74504 0.63572 0.36022 0.0
H691 H 0.76709 0.64996 0.42556 0.0
H692 H 0.53422 0.57615 0.40236 0.0
H693 H 0.55332 0.67555 0.38429 0.0
H694 H 0.47345 0.55242 0.39313 0.0
H695 H 0.4922 0.65017 0.37537 0.0
H696 H 0.55676 0.54184 0.39635 0.0
H697 H 0.65591 0.58089 0.42365 0.0
H698 H 0.53967 0.48526 0.41142 0.0
H699 H 0.63726 0.52339 0.43797 0.0
H700 H 0.57311 0.52253 0.33489 0.0
H701 H 0.51242 0.5706 0.32613 0.0
H702 H 0.50219 0.56589 0.46452 0.0
H703 H 0.58724 0.55205 0.47932 0.0
Li704 Li 0.35987 0.00663 0.39404 0.0
Li705 Li 0.37519 0.9664 0.40989 0.0
Li706 Li 0.38308 0.97723 0.37241 0.0
Li707 Li 0.32552 0.94517 0.38856 0.0
C708 C 0.43255 0.0403 0.39907 0.0
N709 N 0.48873 0.10307 0.40748 0.0
C710 C 0.44312 0.04985 0.4195 0.0
C711 C 0.45068 0.06261 0.38293 0.0
C712 C 0.47158 0.0817 0.42342 0.0
C713 C 0.47895 0.09426 0.3875 0.0
C714 C 0.30232 0.95649 0.42335 0.0
C715 C 0.25359 0.90849 0.43892 0.0
N716 N 0.2366 0.92614 0.43855 0.0
C717 C 0.28455 0.97432 0.42336 0.0
C718 C 0.2869 0.92347 0.43141 0.0
C719 C 0.25129 0.95847 0.43103 0.0
C720 C 0.33138 0.04586 0.38424 0.0
N721 N 0.35765 0.04726 0.39515 0.0
C722 C 0.38187 0.10716 0.40027 0.0
C723 C 0.38193 0.0768 0.4039 0.0
C724 C 0.35665 0.10664 0.3875 0.0
C725 C 0.33047 0.07549 0.3801 0.0
H726 H 0.31208 0.0219 0.3778 0.0
H727 H 0.40211 0.07721 0.41289 0.0
C728 C 0.43147 0.9682 0.42816 0.0
N729 N 0.39998 0.96316 0.43271 0.0
C730 C 0.4545 0.97335 0.44394 0.0
C731 C 0.41217 0.96755 0.46891 0.0
C732 C 0.38975 0.96223 0.4526 0.0
C733 C 0.44514 0.97383 0.46451 0.0
H734 H 0.43939 0.9702 0.4122 0.0
H735 H 0.36494 0.95918 0.45572 0.0
C736 C 0.34262 0.99695 0.3496 0.0
N737 N 0.34247 0.02697 0.31245 0.0
C738 C 0.31695 0.9789 0.33512 0.0
C739 C 0.36821 0.03026 0.34521 0.0
C740 C 0.31734 0.99451 0.31641 0.0
C741 C 0.36766 0.04502 0.32636 0.0
C742 C 0.37155 0.91069 0.39441 0.0
C743 C 0.40097 0.91191 0.38675 0.0
C744 C 0.35289 0.88759 0.41009 0.0
C745 C 0.41164 0.89046 0.39523 0.0
C746 C 0.36441 0.86656 0.41818 0.0
N747 N 0.39332 0.86845 0.41067 0.0
C748 C 0.44424 0.99308 0.35416 0.0
C749 C 0.39949 0.97556 0.32976 0.0
C750 C 0.46709 0.9972 0.33853 0.0
N751 N 0.4112 0.98239 0.34955 0.0
C752 C 0.4217 0.9799 0.31353 0.0
C753 C 0.45579 0.99041 0.318 0.0
H754 H 0.45268 0.99803 0.37006 0.0
H755 H 0.37296 0.96655 0.32656 0.0
C756 C 0.25863 0.92452 0.37762 0.0
N757 N 0.28044 0.91251 0.3806 0.0
C758 C 0.22811 0.90499 0.36702 0.0
C759 C 0.24275 0.8608 0.36297 0.0
C760 C 0.27296 0.88112 0.37383 0.0
C761 C 0.22044 0.87318 0.35913 0.0
H762 H 0.26598 0.9502 0.38226 0.0
H763 H 0.29134 0.87275 0.37576 0.0
O764 O 0.40491 0.00911 0.39488 0.0
O765 O 0.33475 0.9714 0.41566 0.0
O766 O 0.34254 0.98197 0.36798 0.0
O767 O 0.36101 0.9319 0.38655 0.0
H768 H 0.42927 0.03308 0.43221 0.0
H769 H 0.44309 0.05555 0.36702 0.0
H770 H 0.47997 0.08948 0.43915 0.0
H771 H 0.49316 0.1118 0.37515 0.0
H772 H 0.24125 0.88286 0.44507 0.0
H773 H 0.29624 5e-05 0.41745 0.0
H774 H 0.30047 0.90955 0.43183 0.0
H775 H 0.23716 0.97189 0.431 0.0
H776 H 0.40223 0.13096 0.40631 0.0
H777 H 0.31055 0.07439 0.37033 0.0
H778 H 0.4799 0.9785 0.44011 0.0
H779 H 0.40442 0.96807 0.48469 0.0
H780 H 0.29705 0.95305 0.33827 0.0
H781 H 0.38811 0.04463 0.35632 0.0
H782 H 0.29767 0.98081 0.30503 0.0
H783 H 0.38724 0.07082 0.32279 0.0
H784 H 0.41552 0.92936 0.37446 0.0
H785 H 0.32982 0.88595 0.41596 0.0
H786 H 0.43449 0.89131 0.38955 0.0
H787 H 0.35033 0.84872 0.43043 0.0
H788 H 0.49332 0.00544 0.34241 0.0
H789 H 0.41238 0.97459 0.29778 0.0
H790 H 0.2115 0.91529 0.36408 0.0
H791 H 0.23749 0.83638 0.3569 0.0
Li792 Li 0.34427 0.32205 0.2752 0.0
Li793 Li 0.28431 0.28749 0.28123 0.0
Li794 Li 0.32493 0.27026 0.29339 0.0
Li795 Li 0.31529 0.26859 0.25629 0.0
C796 C 0.33192 0.33755 0.31405 0.0
N797 N 0.35463 0.3945 0.33889 0.0
C798 C 0.31226 0.35323 0.31649 0.0
C799 C 0.36327 0.35108 0.32416 0.0
C800 C 0.32422 0.38202 0.32906 0.0
C801 C 0.37418 0.37972 0.33675 0.0
C802 C 0.31954 0.33784 0.24341 0.0
C803 C 0.35647 0.37565 0.21685 0.0
N804 N 0.34718 0.39889 0.2222 0.0
C805 C 0.31025 0.36201 0.24861 0.0
C806 C 0.34272 0.3446 0.22736 0.0
C807 C 0.32454 0.39275 0.23772 0.0
C808 C 0.41257 0.37256 0.26873 0.0
N809 N 0.3813 0.36779 0.27364 0.0
C810 C 0.40564 0.42535 0.28492 0.0
C811 C 0.37726 0.394 0.28028 0.0
C812 C 0.43817 0.42963 0.28221 0.0
C813 C 0.44174 0.40371 0.27289 0.0
H814 H 0.41504 0.35148 0.26305 0.0
H815 H 0.35216 0.38986 0.2836 0.0
C816 C 0.2355 0.27335 0.31012 0.0
N817 N 0.24381 0.28587 0.29065 0.0
C818 C 0.20986 0.27506 0.32098 0.0
C819 C 0.20143 0.30244 0.29154 0.0
C820 C 0.2275 0.30036 0.28121 0.0
C821 C 0.19057 0.28812 0.31157 0.0
H822 H 0.25029 0.26375 0.3177 0.0
H823 H 0.2357 0.31169 0.26607 0.0
C824 C 0.38069 0.27815 0.27788 0.0
N825 N 0.42319 0.25583 0.29292 0.0
C826 C 0.37746 0.2475 0.27084 0.0
C827 C 0.40554 0.29743 0.29257 0.0
C828 C 0.3992 0.23666 0.27864 0.0
C829 C 0.42676 0.2857 0.29999 0.0
C830 C 0.25103 0.21819 0.27007 0.0
C831 C 0.23652 0.18369 0.27506 0.0
C832 C 0.23405 0.22874 0.25652 0.0
C833 C 0.20532 0.16021 0.2663 0.0
C834 C 0.20286 0.20447 0.24813 0.0
N835 N 0.18927 0.171 0.25314 0.0
C836 C 0.34548 0.26041 0.33345 0.0
C837 C 0.32419 0.21371 0.31021 0.0
C838 C 0.35191 0.242 0.34833 0.0
N839 N 0.33237 0.24618 0.31474 0.0
C840 C 0.33011 0.19441 0.32459 0.0
C841 C 0.34428 0.20872 0.34379 0.0
H842 H 0.35117 0.28602 0.33678 0.0
H843 H 0.31364 0.20308 0.29523 0.0
C844 C 0.34925 0.26089 0.223 0.0
N845 N 0.31758 0.24619 0.23155 0.0
C846 C 0.35642 0.24482 0.20697 0.0
C847 C 0.29784 0.19931 0.20801 0.0
C848 C 0.29186 0.2161 0.22424 0.0
C849 C 0.33063 0.21346 0.1995 0.0
H850 H 0.36945 0.28449 0.22928 0.0
H851 H 0.26701 0.20442 0.2313 0.0
O852 O 0.32019 0.30879 0.30218 0.0
O853 O 0.3062 0.3078 0.25408 0.0
O854 O 0.35917 0.28886 0.27077 0.0
O855 O 0.28135 0.24143 0.27876 0.0
H856 H 0.28822 0.34366 0.30862 0.0
H857 H 0.37921 0.33982 0.3222 0.0
H858 H 0.3093 0.39442 0.331 0.0
H859 H 0.39818 0.39021 0.34485 0.0
H860 H 0.37455 0.38129 0.20444 0.0
H861 H 0.29272 0.35739 0.26118 0.0
H862 H 0.35016 0.32618 0.22314 0.0
H863 H 0.31778 0.4118 0.24167 0.0
H864 H 0.40226 0.44507 0.29206 0.0
H865 H 0.46666 0.40645 0.27066 0.0
H866 H 0.20708 0.26771 0.33702 0.0
H867 H 0.19171 0.31697 0.28394 0.0
H868 H 0.358 0.2319 0.25977 0.0
H869 H 0.40824 0.32105 0.29832 0.0
H870 H 0.39686 0.21292 0.27342 0.0
H871 H 0.44601 0.3003 0.31142 0.0
H872 H 0.24925 0.17515 0.2856 0.0
H873 H 0.2448 0.25529 0.25245 0.0
H874 H 0.19383 0.13341 0.27 0.0
H875 H 0.18947 0.21225 0.23761 0.0
H876 H 0.36292 0.25358 0.36307 0.0
H877 H 0.32411 0.16875 0.32072 0.0
H878 H 0.38202 0.25634 0.20077 0.0
H879 H 0.2774 0.17507 0.20256 0.0
Li880 Li 0.73336 0.04228 0.25245 0.0
Li881 Li 0.73292 0.05177 0.28946 0.0
Li882 Li 0.71525 0.99386 0.27869 0.0
Li883 Li 0.6796 0.01986 0.27192 0.0
C884 C 0.79486 0.05737 0.27276 0.0
N885 N 0.86399 0.10132 0.26837 0.0
C886 C 0.80768 0.09249 0.27153 0.0
C887 C 0.81719 0.04459 0.27187 0.0
C888 C 0.8427 0.1143 0.26929 0.0
C889 C 0.85207 0.06723 0.26961 0.0
C890 C 0.71608 0.09776 0.2685 0.0
C891 C 0.6915 0.13195 0.27892 0.0
N892 N 0.71904 0.16008 0.27105 0.0
C893 C 0.74398 0.127 0.26033 0.0
C894 C 0.68947 0.10021 0.2777 0.0
C895 C 0.74506 0.15827 0.26185 0.0
C896 C 0.74012 0.08049 0.21742 0.0
N897 N 0.75552 0.0654 0.22742 0.0
C898 C 0.80484 0.09491 0.20592 0.0
C899 C 0.78686 0.07131 0.22158 0.0
C900 C 0.79005 0.11196 0.19611 0.0
C901 C 0.75693 0.10385 0.20154 0.0
H902 H 0.71536 0.07564 0.22252 0.0
H903 H 0.79862 0.059 0.22967 0.0
C904 C 0.78333 0.08257 0.32018 0.0
N905 N 0.75636 0.08317 0.31142 0.0
C906 C 0.80301 0.1066 0.33509 0.0
C907 C 0.76489 0.12934 0.33319 0.0
C908 C 0.74627 0.1052 0.31809 0.0
C909 C 0.79419 0.13077 0.34129 0.0
H910 H 0.79005 0.06392 0.31523 0.0
H911 H 0.72394 0.10426 0.31169 0.0
C912 C 0.66457 0.97982 0.23953 0.0
N913 N 0.6061 0.95162 0.21579 0.0
C914 C 0.63404 0.9533 0.24742 0.0
C915 C 0.66542 0.99167 0.21946 0.0
C916 C 0.60473 0.93951 0.23522 0.0
C917 C 0.63559 0.97713 0.20772 0.0
C918 C 0.69158 0.01527 0.31902 0.0
C919 C 0.70807 0.00549 0.3334 0.0
C920 C 0.67516 0.0327 0.32571 0.0
C921 C 0.70801 0.01348 0.35426 0.0
C922 C 0.67565 0.0402 0.34671 0.0
N923 N 0.69195 0.03054 0.36042 0.0
C924 C 0.73898 0.95663 0.3011 0.0
C925 C 0.68445 0.92335 0.28593 0.0
C926 C 0.73404 0.92907 0.31335 0.0
N927 N 0.71387 0.95352 0.28822 0.0
C928 C 0.67849 0.89516 0.29782 0.0
C929 C 0.70302 0.89832 0.31218 0.0
H930 H 0.76169 0.98121 0.30305 0.0
H931 H 0.66472 0.92174 0.2759 0.0
C932 C 0.62311 0.02501 0.25673 0.0
N933 N 0.63423 0.01095 0.27115 0.0
C934 C 0.5907 0.02131 0.2586 0.0
C935 C 0.5818 0.98767 0.28951 0.0
C936 C 0.61393 0.99155 0.28688 0.0
C937 C 0.57038 0.00353 0.27566 0.0
H938 H 0.63989 0.04015 0.24431 0.0
H939 H 0.62326 0.98013 0.29784 0.0
O940 O 0.76064 0.03548 0.27488 0.0
O941 O 0.71422 0.06674 0.2668 0.0
O942 O 0.69343 0.99424 0.2514 0.0
O943 O 0.69214 0.00848 0.29844 0.0
H944 H 0.79078 0.10275 0.27247 0.0
H945 H 0.80764 0.01744 0.27284 0.0
H946 H 0.85295 0.14154 0.26832 0.0
H947 H 0.86966 0.0577 0.26884 0.0
H948 H 0.6712 0.13421 0.28614 0.0
H949 H 0.76452 0.12565 0.25274 0.0
H950 H 0.6677 0.07797 0.28415 0.0
H951 H 0.76654 0.18107 0.25564 0.0
H952 H 0.83038 0.10064 0.20196 0.0
H953 H 0.74492 0.11665 0.19423 0.0
H954 H 0.82541 0.10701 0.34126 0.0
H955 H 0.75737 0.14757 0.33789 0.0
H956 H 0.6327 0.94411 0.26301 0.0
H957 H 0.68888 0.01177 0.21297 0.0
H958 H 0.58085 0.91931 0.24125 0.0
H959 H 0.63589 0.98615 0.19218 0.0
H960 H 0.72106 0.99218 0.32853 0.0
H961 H 0.66266 0.0409 0.31479 0.0
H962 H 0.72081 0.00619 0.36554 0.0
H963 H 0.66324 0.05387 0.35207 0.0
H964 H 0.75333 0.93223 0.32441 0.0
H965 H 0.65428 0.87172 0.29666 0.0
H966 H 0.58226 0.03349 0.24756 0.0
H967 H 0.56645 0.97345 0.30268 0.0
Li968 Li 0.94651 0.67131 0.29457 0.0
Li969 Li 0.97359 0.64764 0.27346 0.0
Li970 Li 0.00216 0.70795 0.2795 0.0
Li971 Li 0.94928 0.67833 0.25604 0.0
C972 C 0.01567 0.67992 0.31285 0.0
N973 N 0.06967 0.69608 0.33918 0.0
C974 C 0.03874 0.66875 0.30853 0.0
C975 C 0.02046 0.69978 0.33042 0.0
C976 C 0.06589 0.67725 0.32199 0.0
C977 C 0.04766 0.70732 0.34366 0.0
C978 C 0.90858 0.60221 0.27155 0.0
C979 C 0.88932 0.55085 0.25164 0.0
N980 N 0.87715 0.53208 0.26923 0.0
C981 C 0.89569 0.58245 0.28942 0.0
C982 C 0.90523 0.58635 0.25248 0.0
C983 C 0.87994 0.54701 0.28793 0.0
C984 C 0.8863 0.66008 0.31269 0.0
N985 N 0.91694 0.66311 0.31722 0.0
C986 C 0.90374 0.65617 0.3533 0.0
C987 C 0.92569 0.66041 0.33696 0.0
C988 C 0.87268 0.6545 0.34901 0.0
C989 C 0.86374 0.65604 0.32849 0.0
H990 H 0.87972 0.6614 0.29678 0.0
H991 H 0.94964 0.66162 0.34004 0.0
C992 C 0.98385 0.593 0.2565 0.0
N993 N 0.97822 0.60789 0.27319 0.0
C994 C 0.98789 0.56459 0.25917 0.0
C995 C 0.97804 0.56621 0.29581 0.0
C996 C 0.97427 0.59438 0.29245 0.0
C997 C 0.98555 0.55151 0.27912 0.0
H998 H 0.98515 0.6029 0.24118 0.0
H999 H 0.96856 0.60587 0.30535 0.0
C1000 C 0.94495 0.72819 0.28805 0.0
N1001 N 0.90979 0.75422 0.3089 0.0
C1002 C 0.91757 0.72878 0.27857 0.0
C1003 C 0.95464 0.74109 0.30807 0.0
C1004 C 0.9001 0.74202 0.28938 0.0
C1005 C 0.93647 0.75404 0.31837 0.0
C1006 C 0.00734 0.67161 0.23675 0.0
C1007 C 0.03885 0.67329 0.23859 0.0
C1008 C 0.98767 0.65736 0.21901 0.0
C1009 C 0.0501 0.6605 0.22266 0.0
C1010 C -0.00016 0.64492 0.20341 0.0
N1011 N 0.03053 0.64671 0.20555 0.0
C1012 C 0.07301 0.74339 0.2864 0.0
C1013 C 0.04654 0.77598 0.29362 0.0
C1014 C 0.10239 0.76683 0.29683 0.0
N1015 N 0.04525 0.74742 0.28591 0.0
C1016 C 0.07589 0.80067 0.30371 0.0
C1017 C 0.10351 0.79518 0.30626 0.0
H1018 H 0.07148 0.72064 0.28012 0.0
H1019 H 0.02423 0.77872 0.29301 0.0
C1020 C 0.88918 0.65341 0.23406 0.0
N1021 N 0.92239 0.67849 0.23327 0.0
C1022 C 0.86675 0.64985 0.21828 0.0
C1023 C 0.91263 0.69886 0.20128 0.0
C1024 C 0.93444 0.70126 0.21738 0.0
C1025 C 0.87839 0.67267 0.20163 0.0
H1026 H 0.87999 0.63601 0.247 0.0
H1027 H 0.96092 0.72108 0.21716 0.0
O1028 O 0.9883 0.67102 0.30017 0.0
O1029 O 0.92515 0.63696 0.2728 0.0
O1030 O 0.96184 0.7146 0.27789 0.0
O1031 O 0.99617 0.68462 0.25197 0.0
H1032 H 0.03616 0.6542 0.29473 0.0
H1033 H 0.00339 0.70933 0.33382 0.0
H1034 H 0.08396 0.66887 0.31877 0.0
H1035 H 0.05129 0.72215 0.35749 0.0
H1036 H 0.88679 0.53822 0.23701 0.0
H1037 H 0.89823 0.59438 0.30431 0.0
H1038 H 0.91528 0.60135 0.23853 0.0
H1039 H 0.87006 0.53138 0.30164 0.0
H1040 H 0.91097 0.65463 0.36905 0.0
H1041 H 0.8397 0.65448 0.32479 0.0
H1042 H 0.99316 0.55324 0.24598 0.0
H1043 H 0.97568 0.55628 0.31134 0.0
H1044 H 0.90974 0.71888 0.26309 0.0
H1045 H 0.97557 0.7405 0.3157 0.0
H1046 H 0.87875 0.7425 0.28228 0.0
H1047 H 0.94348 0.7638 0.33394 0.0
H1048 H 0.05435 0.68406 0.2522 0.0
H1049 H 0.96322 0.65577 0.21732 0.0
H1050 H 0.07436 0.66148 0.22392 0.0
H1051 H 0.98486 0.63376 0.18963 0.0
H1052 H 0.12346 0.7621 0.29834 0.0
H1053 H 0.0762 0.82257 0.31064 0.0
H1054 H 0.84047 0.62951 0.21907 0.0
H1055 H 0.92232 0.71698 0.18864 0.0
Li1056 Li 0.68509 0.73917 0.71218 0.0
Li1057 Li 0.69084 0.73634 0.74959 0.0
Li1058 Li 0.72207 0.71574 0.72506 0.0
Li1059 Li 0.66045 0.68425 0.73035 0.0
C1060 C 0.74844 0.79451 0.72063 0.0
N1061 N 0.78892 0.85829 0.70346 0.0
C1062 C 0.73817 0.8189 0.72133 0.0
C1063 C 0.77954 0.80276 0.71143 0.0
C1064 C 0.75891 0.85093 0.7125 0.0
C1065 C 0.79959 0.8351 0.70278 0.0
C1066 C 0.62896 0.73145 0.74222 0.0
C1067 C 0.58143 0.72138 0.76386 0.0
N1068 N 0.58785 0.75352 0.75986 0.0
C1069 C 0.63515 0.76443 0.73841 0.0
C1070 C 0.60182 0.7097 0.75502 0.0
C1071 C 0.61404 0.77508 0.74741 0.0
C1072 C 0.64579 0.75534 0.68665 0.0
N1073 N 0.67811 0.76168 0.68963 0.0
C1074 C 0.69895 0.80333 0.66272 0.0
C1075 C 0.70419 0.78371 0.67728 0.0
C1076 C 0.66634 0.79916 0.66053 0.0
C1077 C 0.63924 0.77388 0.67201 0.0
H1078 H 0.62531 0.73672 0.69617 0.0
H1079 H 0.72932 0.78706 0.67927 0.0
C1080 C 0.71365 0.79529 0.77499 0.0
N1081 N 0.69164 0.76109 0.77421 0.0
C1082 C 0.7101 0.81528 0.79019 0.0
C1083 C 0.66284 0.76429 0.80448 0.0
C1084 C 0.6671 0.74535 0.78891 0.0
C1085 C 0.68395 0.7998 0.80488 0.0
H1086 H 0.73319 0.80733 0.76337 0.0
H1087 H 0.64966 0.71832 0.78804 0.0
C1088 C 0.67604 0.67386 0.68964 0.0
N1089 N 0.65762 0.62551 0.6589 0.0
C1090 C 0.68501 0.64858 0.69119 0.0
C1091 C 0.65757 0.67447 0.67253 0.0
C1092 C 0.67532 0.62427 0.67553 0.0
C1093 C 0.64862 0.64988 0.6571 0.0
C1094 C 0.68083 0.6649 0.76293 0.0
C1095 C 0.69539 0.64414 0.76457 0.0
C1096 C 0.64967 0.65496 0.77261 0.0
C1097 C 0.67851 0.61379 0.77583 0.0
C1098 C 0.63353 0.62441 0.78369 0.0
N1099 N 0.64817 0.60463 0.78508 0.0
C1100 C 0.77382 0.69538 0.72519 0.0
C1101 C 0.7649 0.71832 0.69442 0.0
C1102 C 0.79398 0.68508 0.71441 0.0
N1103 N 0.75897 0.71077 0.71491 0.0
C1104 C 0.78495 0.70873 0.68314 0.0
C1105 C 0.79888 0.69101 0.69302 0.0
H1106 H 0.76882 0.6897 0.74145 0.0
H1107 H 0.75239 0.73014 0.68658 0.0
C1108 C 0.59226 0.63786 0.72255 0.0
N1109 N 0.62217 0.63964 0.7277 0.0
C1110 C 0.56444 0.60695 0.71653 0.0
C1111 C 0.59834 0.57997 0.72179 0.0
C1112 C 0.62557 0.61146 0.72771 0.0
C1113 C 0.56778 0.57791 0.71559 0.0
H1114 H 0.59064 0.66082 0.7219 0.0
H1115 H 0.64994 0.61374 0.73108 0.0
O1116 O 0.7284 0.76283 0.72903 0.0
O1117 O 0.64869 0.72015 0.733 0.0
O1118 O 0.68651 0.69877 0.70434 0.0
O1119 O 0.69694 0.69476 0.75196 0.0
H1120 H 0.71436 0.81312 0.72849 0.0
H1121 H 0.7882 0.78446 0.71103 0.0
H1122 H 0.75112 0.86992 0.7128 0.0
H1123 H 0.82365 0.84176 0.69555 0.0
H1124 H 0.5604 0.70484 0.77383 0.0
H1125 H 0.65574 0.78151 0.72841 0.0
H1126 H 0.59645 0.68402 0.75808 0.0
H1127 H 0.6185 0.8005 0.74453 0.0
H1128 H 0.72027 0.82248 0.65388 0.0
H1129 H 0.61374 0.76997 0.67047 0.0
H1130 H 0.72693 0.84264 0.79012 0.0
H1131 H 0.64243 0.75156 0.81562 0.0
H1132 H 0.69936 0.6478 0.70433 0.0
H1133 H 0.65058 0.69396 0.67106 0.0
H1134 H 0.682 0.60451 0.67653 0.0
H1135 H 0.63447 0.65013 0.64371 0.0
H1136 H 0.71933 0.65116 0.75715 0.0
H1137 H 0.63762 0.67018 0.77108 0.0
H1138 H 0.68948 0.59748 0.77717 0.0
H1139 H 0.60925 0.61633 0.79109 0.0
H1140 H 0.80452 0.67148 0.72246 0.0
H1141 H 0.78826 0.71366 0.66666 0.0
H1142 H 0.54131 0.60611 0.71139 0.0
H1143 H 0.60174 0.55801 0.72074 0.0
Li1144 Li 0.31423 0.98135 0.73303 0.0
Li1145 Li 0.28797 0.0167 0.72922 0.0
Li1146 Li 0.26443 0.96501 0.75325 0.0
Li1147 Li 0.26037 0.95799 0.71612 0.0
C1148 C 0.34032 0.02458 0.76322 0.0
N1149 N 0.40582 0.05439 0.77864 0.0
C1150 C 0.36384 0.05853 0.75857 0.0
C1151 C 0.34999 0.00592 0.77593 0.0
C1152 C 0.39685 0.07312 0.76647 0.0
C1153 C 0.38326 0.0214 0.78351 0.0
C1154 C 0.30982 0.99412 0.68747 0.0
C1155 C 0.30876 0.00719 0.65139 0.0
N1156 N 0.32216 0.98716 0.64639 0.0
C1157 C 0.32383 0.97388 0.68195 0.0
C1158 C 0.30246 0.01113 0.67206 0.0
C1159 C 0.32979 0.97061 0.66111 0.0
C1160 C 0.36174 0.95805 0.73606 0.0
N1161 N 0.35719 0.98463 0.73102 0.0
C1162 C 0.4121 0.01462 0.71545 0.0
C1163 C 0.3819 0.01301 0.7215 0.0
C1164 C 0.41662 0.98674 0.71927 0.0
C1165 C 0.39175 0.95866 0.73036 0.0
H1166 H 0.34139 0.93574 0.74347 0.0
H1167 H 0.3772 0.03346 0.7175 0.0
C1168 C 0.27978 0.07634 0.72384 0.0
N1169 N 0.29985 0.0621 0.72164 0.0
C1170 C 0.2877 0.10627 0.71305 0.0
C1171 C 0.33783 0.10729 0.69931 0.0
C1172 C 0.32894 0.0775 0.71022 0.0
C1173 C 0.31653 0.12131 0.70018 0.0
H1174 H 0.25659 0.06341 0.73284 0.0
H1175 H 0.34433 0.06556 0.70867 0.0
C1176 C 0.24982 0.90219 0.73874 0.0
N1177 N 0.19827 0.83524 0.74276 0.0
C1178 C 0.21573 0.89409 0.73852 0.0
C1179 C 0.25763 0.8762 0.74106 0.0
C1180 C 0.19006 0.86011 0.74053 0.0
C1181 C 0.23122 0.84252 0.7431 0.0
C1182 C 0.2148 0.9831 0.72342 0.0
C1183 C 0.18132 0.96678 0.73079 0.0
C1184 C 0.22313 0.00324 0.70562 0.0
C1185 C 0.15684 0.97118 0.72034 0.0
C1186 C 0.19798 0.00715 0.69566 0.0
N1187 N 0.16562 0.99116 0.70316 0.0
C1188 C 0.21128 0.93791 0.78398 0.0
C1189 C 0.25577 0.92527 0.788 0.0
C1190 C 0.19222 0.91441 0.79948 0.0
N1191 N 0.24211 0.94229 0.7783 0.0
C1192 C 0.23777 0.90182 0.80362 0.0
C1193 C 0.20527 0.89559 0.80912 0.0
H1194 H 0.20079 0.95134 0.77582 0.0
H1195 H 0.27975 0.92832 0.78271 0.0
C1196 C 0.24718 0.90741 0.68738 0.0
N1197 N 0.23487 0.92768 0.69402 0.0
C1198 C 0.22944 0.8821 0.67271 0.0
C1199 C 0.18671 0.89907 0.67171 0.0
C1200 C 0.20533 0.92412 0.68635 0.0
C1201 C 0.19856 0.87748 0.6651 0.0
H1202 H 0.27017 0.91001 0.69409 0.0
H1203 H 0.19524 0.93954 0.69201 0.0
O1204 O 0.30813 0.0096 0.75519 0.0
O1205 O 0.3038 0.99768 0.70782 0.0
O1206 O 0.27556 0.93521 0.73634 0.0
O1207 O 0.23908 0.97913 0.73356 0.0
H1208 H 0.35672 0.07345 0.74893 0.0
H1209 H 0.33218 0.97962 0.77964 0.0
H1210 H 0.41536 0.09932 0.76291 0.0
H1211 H 0.39117 0.00716 0.7932 0.0
H1212 H 0.30308 0.02014 0.63933 0.0
H1213 H 0.32965 0.96042 0.69359 0.0
H1214 H 0.29215 0.02737 0.67597 0.0
H1215 H 0.34042 0.95485 0.65665 0.0
H1216 H 0.43089 0.03652 0.70684 0.0
H1217 H 0.39468 0.93676 0.7334 0.0
H1218 H 0.27076 0.11659 0.71392 0.0
H1219 H 0.36019 0.11836 0.68949 0.0
H1220 H 0.20905 0.91371 0.7367 0.0
H1221 H 0.28384 0.88197 0.7412 0.0
H1222 H 0.16361 0.85351 0.74033 0.0
H1223 H 0.23692 0.82217 0.74489 0.0
H1224 H 0.1742 0.95066 0.74434 0.0
H1225 H 0.24858 0.01527 0.69938 0.0
H1226 H 0.13084 0.95868 0.72587 0.0
H1227 H 0.20415 0.02271 0.68188 0.0
H1228 H 0.16711 0.91003 0.80337 0.0
H1229 H 0.24839 0.88751 0.81068 0.0
H1230 H 0.23885 0.86534 0.66807 0.0
H1231 H 0.1626 0.89562 0.66625 0.0
Li1232 Li 0.03912 0.30746 0.74535 0.0
Li1233 Li 0.02011 0.34239 0.73017 0.0
Li1234 Li 0.98587 0.2815 0.72381 0.0
Li1235 Li 0.04481 0.31702 0.70767 0.0
C1236 C 0.98574 0.32346 0.76395 0.0
N1237 N 0.96845 0.36241 0.78849 0.0
C1238 C 0.01034 0.34937 0.7763 0.0
C1239 C 0.95225 0.31709 0.76427 0.0
C1240 C 0.00113 0.36885 0.78854 0.0
C1241 C 0.94403 0.33713 0.77674 0.0
C1242 C 0.09409 0.38085 0.73326 0.0
C1243 C 0.13909 0.4344 0.72011 0.0
N1244 N 0.15058 0.44427 0.73973 0.0
C1245 C 0.10656 0.3914 0.75328 0.0
C1246 C 0.11069 0.40237 0.71651 0.0
C1247 C 0.13508 0.42359 0.75624 0.0
C1248 C 0.09675 0.31034 0.76199 0.0
N1249 N 0.06529 0.30444 0.76748 0.0
C1250 C 0.07921 0.30697 0.80333 0.0
C1251 C 0.05589 0.30208 0.78766 0.0
C1252 C 0.11216 0.31416 0.79798 0.0
C1253 C 0.12065 0.31506 0.77709 0.0
H1254 H 0.10381 0.31307 0.74583 0.0
H1255 H 0.03094 0.298 0.79159 0.0
C1256 C 0.98576 0.37719 0.7229 0.0
N1257 N 0.01479 0.38147 0.73178 0.0
C1258 C 0.98253 0.40538 0.71812 0.0
C1259 C 0.03717 0.44153 0.73421 0.0
C1260 C 0.03956 0.41257 0.73844 0.0
C1261 C 0.00922 0.43798 0.72291 0.0
H1262 H 0.96625 0.35207 0.71809 0.0
H1263 H 0.06201 0.41532 0.7459 0.0
C1264 C 0.03116 0.24902 0.73144 0.0
N1265 N 0.04506 0.20339 0.75126 0.0
C1266 C 0.05994 0.24707 0.72597 0.0
C1267 C 0.0093 0.22767 0.74686 0.0
C1268 C 0.06656 0.22384 0.73621 0.0
C1269 C 0.01682 0.20479 0.75674 0.0
C1270 C -0.00021 0.33468 0.68652 0.0
C1271 C 0.97169 0.31738 0.67349 0.0
C1272 C 0.02498 0.36794 0.68167 0.0
C1273 C 0.96925 0.33365 0.65577 0.0
C1274 C 0.02169 0.3833 0.66375 0.0
N1275 N 0.99412 0.366 0.65129 0.0
C1276 C 0.91733 0.25543 0.71411 0.0
C1277 C 0.93812 0.21784 0.70665 0.0
C1278 C 0.88762 0.23506 0.70291 0.0
N1279 N 0.94196 0.24676 0.71551 0.0
C1280 C 0.90884 0.1968 0.69518 0.0
C1281 C 0.8837 0.20594 0.69286 0.0
H1282 H 0.92186 0.27947 0.72031 0.0
H1283 H 0.95869 0.2123 0.70733 0.0
C1284 C 0.10462 0.33032 0.68879 0.0
N1285 N 0.07225 0.32256 0.68445 0.0
C1286 C 0.1272 0.33512 0.67284 0.0
C1287 C 0.08281 0.32418 0.64812 0.0
C1288 C 0.06086 0.31914 0.66463 0.0
C1289 C 0.11626 0.33197 0.65228 0.0
H1290 H 0.11281 0.33276 0.70472 0.0
H1291 H 0.03483 0.31246 0.66162 0.0
O1292 O 0.99456 0.30476 0.75146 0.0
O1293 O 0.06649 0.34923 0.73 0.0
O1294 O 0.02471 0.27219 0.72202 0.0
O1295 O 0.00265 0.31886 0.7038 0.0
H1296 H 0.03636 0.35466 0.7762 0.0
H1297 H 0.9328 0.29691 0.75502 0.0
H1298 H 0.01999 0.38917 0.79804 0.0
H1299 H 0.91824 0.33258 0.77707 0.0
H1300 H 0.15209 0.45135 0.70729 0.0
H1301 H 0.09437 0.37503 0.76643 0.0
H1302 H 0.10192 0.39438 0.70087 0.0
H1303 H 0.1449 0.43212 0.77165 0.0
H1304 H 0.07207 0.30628 0.81938 0.0
H1305 H 0.14597 0.3208 0.77254 0.0
H1306 H 0.96063 0.40198 0.70943 0.0
H1307 H 0.05811 0.46652 0.7381 0.0
H1308 H 0.07711 0.26351 0.71407 0.0
H1309 H 0.98697 0.22902 0.75128 0.0
H1310 H 0.08883 0.22214 0.73223 0.0
H1311 H 0.00024 0.18821 0.76879 0.0
H1312 H 0.95207 0.29157 0.67697 0.0
H1313 H 0.04672 0.38177 0.69166 0.0
H1314 H 0.94764 0.32052 0.64554 0.0
H1315 H 0.04106 0.40897 0.65973 0.0
H1316 H 0.8688 0.24291 0.70113 0.0
H1317 H 0.90653 0.17457 0.68742 0.0
H1318 H 0.15297 0.34124 0.67646 0.0
H1319 H 0.0738 0.3217 0.63236 0.0
Li1320 Li 0.94777 0.6219 0.60872 0.0
Li1321 Li 0.01055 0.65609 0.60541 0.0
Li1322 Li 0.98087 0.6024 0.58627 0.0
Li1323 Li 0.98551 0.60265 0.62316 0.0
C1324 C 0.9937 0.67085 0.57 0.0
N1325 N 0.03338 0.72683 0.54529 0.0
C1326 C 0.99359 0.70135 0.57299 0.0
C1327 C 0.01403 0.66889 0.55441 0.0
C1328 C 0.01383 0.72935 0.56036 0.0
C1329 C 0.03387 0.69743 0.54208 0.0
C1330 C 0.98929 0.64953 0.65085 0.0
C1331 C 0.02865 0.67659 0.679 0.0
N1332 N 0.00233 0.66181 0.69264 0.0
C1333 C 0.96266 0.63461 0.66515 0.0
C1334 C 0.02258 0.67069 0.65782 0.0
C1335 C 0.96976 0.64112 0.68621 0.0
C1336 C 0.88691 0.60257 0.63019 0.0
N1337 N 0.90927 0.62578 0.61647 0.0
C1338 C 0.88883 0.66405 0.62403 0.0
C1339 C 0.9099 0.65562 0.61278 0.0
C1340 C 0.86727 0.64163 0.63929 0.0
C1341 C 0.86549 0.61005 0.64187 0.0
H1342 H 0.88774 0.57955 0.63331 0.0
H1343 H 0.92845 0.67397 0.60225 0.0
C1344 C 0.07855 0.70961 0.59967 0.0
N1345 N 0.04678 0.70136 0.60607 0.0
C1346 C 0.10645 0.74085 0.60535 0.0
C1347 C 0.0677 0.75534 0.62226 0.0
C1348 C 0.04068 0.72393 0.6163 0.0
C1349 C 0.10099 0.76325 0.61753 0.0
H1350 H 0.08244 0.69101 0.5915 0.0
H1351 H 0.01507 0.7164 0.62123 0.0
C1352 C 0.92025 0.54763 0.59669 0.0
N1353 N 0.87352 0.49051 0.57529 0.0
C1354 C 0.92537 0.51984 0.59441 0.0
C1355 C 0.89131 0.54633 0.58819 0.0
C1356 C 0.90149 0.49123 0.58347 0.0
C1357 C 0.86796 0.5172 0.57743 0.0
C1358 C 0.04346 0.60899 0.61006 0.0
C1359 C 0.03403 0.57476 0.60748 0.0
C1360 C 0.07399 0.63107 0.62008 0.0
C1361 C 0.05551 0.56327 0.61475 0.0
C1362 C 0.09463 0.61851 0.6273 0.0
N1363 N 0.08508 0.58518 0.62447 0.0
C1364 C 0.01478 0.58341 0.55786 0.0
C1365 C 0.95659 0.55972 0.54912 0.0
C1366 C 0.01964 0.56575 0.54183 0.0
N1367 N 0.98345 0.57939 0.56168 0.0
C1368 C 0.96038 0.54167 0.5327 0.0
C1369 C 0.99215 0.5442 0.52924 0.0
H1370 H 0.03619 0.60027 0.56736 0.0
H1371 H 0.93214 0.55763 0.55195 0.0
C1372 C 0.96471 0.54568 0.64884 0.0
N1373 N 0.98968 0.57862 0.64622 0.0
C1374 C 0.96798 0.52547 0.66389 0.0
C1375 C 0.0216 0.57401 0.67419 0.0
C1376 C 0.01741 0.59322 0.65882 0.0
C1377 C 0.99707 0.53954 0.67638 0.0
H1378 H 0.94278 0.53478 0.63879 0.0
H1379 H 0.03701 0.61935 0.65644 0.0
O1380 O 0.97485 0.6434 0.58261 0.0
O1381 O 0.98277 0.64376 0.63013 0.0
O1382 O 0.94333 0.57584 0.60734 0.0
O1383 O 0.02315 0.62089 0.60253 0.0
H1384 H 0.97861 0.7037 0.58516 0.0
H1385 H 0.01472 0.64571 0.55191 0.0
H1386 H 0.01412 0.75315 0.56262 0.0
H1387 H 0.04974 0.69622 0.52999 0.0
H1388 H 0.05431 0.69279 0.68459 0.0
H1389 H 0.93679 0.61806 0.66009 0.0
H1390 H 0.04364 0.68193 0.64706 0.0
H1391 H 0.94938 0.62971 0.69745 0.0
H1392 H 0.89082 0.68867 0.62176 0.0
H1393 H 0.84924 0.59233 0.65363 0.0
H1394 H 0.13202 0.74637 0.60164 0.0
H1395 H 0.06292 0.77218 0.63177 0.0
H1396 H 0.94764 0.52044 0.60091 0.0
H1397 H 0.88701 0.56765 0.58978 0.0
H1398 H 0.90522 0.46962 0.58148 0.0
H1399 H 0.84548 0.51585 0.57072 0.0
H1400 H 0.0104 0.55727 0.59988 0.0
H1401 H 0.08149 0.65751 0.6225 0.0
H1402 H 0.04858 0.53688 0.61277 0.0
H1403 H 0.11824 0.63527 0.63517 0.0
H1404 H 0.0446 0.56869 0.53936 0.0
H1405 H 0.93874 0.52555 0.52302 0.0
H1406 H 0.94874 0.49882 0.66524 0.0
H1407 H 0.04447 0.58537 0.68353 0.0
Li1408 Li 0.39162 0.38797 0.62067 0.0
Li1409 Li 0.39276 0.37675 0.58418 0.0
Li1410 Li 0.33671 0.35888 0.6028 0.0
Li1411 Li 0.37012 0.33125 0.60968 0.0
C1412 C 0.37544 0.43485 0.59965 0.0
N1413 N 0.37432 0.49507 0.60323 0.0
C1414 C 0.40066 0.46456 0.59015 0.0
C1415 C 0.34953 0.43579 0.61087 0.0
C1416 C 0.3997 0.49475 0.59219 0.0
C1417 C 0.34943 0.46646 0.61251 0.0
C1418 C 0.45156 0.3929 0.60539 0.0
C1419 C 0.51085 0.4087 0.60522 0.0
N1420 N 0.51964 0.44185 0.60239 0.0
C1421 C 0.46122 0.42715 0.60256 0.0
C1422 C 0.47657 0.38359 0.6068 0.0
C1423 C 0.49574 0.4515 0.60104 0.0
C1424 C 0.43851 0.41095 0.65295 0.0
N1425 N 0.41696 0.4185 0.64263 0.0
C1426 C 0.43784 0.47049 0.66141 0.0
C1427 C 0.41547 0.44705 0.64707 0.0
C1428 C 0.46159 0.46416 0.67125 0.0
C1429 C 0.46131 0.43366 0.66742 0.0
H1430 H 0.43886 0.38784 0.64934 0.0
H1431 H 0.39786 0.45238 0.63912 0.0
C1432 C 0.40369 0.41501 0.54854 0.0
N1433 N 0.41649 0.39801 0.55916 0.0
C1434 C 0.42292 0.43821 0.53306 0.0
C1435 C 0.4674 0.42452 0.53883 0.0
C1436 C 0.44712 0.40126 0.55408 0.0
C1437 C 0.4556 0.44394 0.52862 0.0
H1438 H 0.37938 0.4121 0.553 0.0
H1439 H 0.45671 0.38735 0.56265 0.0
C1440 C 0.34988 0.35176 0.65032 0.0
N1441 N 0.35336 0.36182 0.69258 0.0
C1442 C 0.36545 0.33837 0.66287 0.0
C1443 C 0.33594 0.37012 0.65927 0.0
C1444 C 0.36695 0.34374 0.68421 0.0
C1445 C 0.33802 0.37499 0.68066 0.0
C1446 C 0.3373 0.30026 0.57642 0.0
C1447 C 0.30278 0.27583 0.57786 0.0
C1448 C 0.36053 0.29095 0.56915 0.0
C1449 C 0.29207 0.24222 0.57218 0.0
C1450 C 0.3488 0.25707 0.56364 0.0
N1451 N 0.31511 0.23361 0.56526 0.0
C1452 C 0.28149 0.36723 0.58819 0.0
C1453 C 0.27194 0.33215 0.61761 0.0
C1454 C 0.24953 0.36446 0.59069 0.0
N1455 N 0.29217 0.35182 0.60194 0.0
C1456 C 0.24024 0.32905 0.6208 0.0
C1457 C 0.22923 0.34611 0.60763 0.0
H1458 H 0.2983 0.38277 0.5759 0.0
H1459 H 0.28106 0.31998 0.62814 0.0
C1460 C 0.38778 0.28221 0.62431 0.0
N1461 N 0.36216 0.28841 0.61957 0.0
C1462 C 0.381 0.2537 0.63625 0.0
C1463 C 0.32164 0.23821 0.63749 0.0
C1464 C 0.32954 0.26694 0.62566 0.0
C1465 C 0.34769 0.23189 0.6433 0.0
H1466 H 0.41364 0.30034 0.61985 0.0
H1467 H 0.30999 0.27328 0.62235 0.0
O1468 O 0.37555 0.40485 0.59744 0.0
O1469 O 0.4179 0.36848 0.60704 0.0
O1470 O 0.34879 0.34741 0.62935 0.0
O1471 O 0.34841 0.33307 0.58237 0.0
H1472 H 0.42078 0.46439 0.58125 0.0
H1473 H 0.32998 0.41326 0.6185 0.0
H1474 H 0.4191 0.51791 0.58495 0.0
H1475 H 0.32961 0.46754 0.62121 0.0
H1476 H 0.53047 0.40183 0.60625 0.0
H1477 H 0.44233 0.43489 0.6016 0.0
H1478 H 0.46955 0.3572 0.60907 0.0
H1479 H 0.50351 0.47808 0.59883 0.0
H1480 H 0.43768 0.494 0.6641 0.0
H1481 H 0.47958 0.42831 0.67478 0.0
H1482 H 0.4132 0.45288 0.52542 0.0
H1483 H 0.49254 0.42838 0.53563 0.0
H1484 H 0.37665 0.32436 0.65622 0.0
H1485 H 0.32384 0.38068 0.64978 0.0
H1486 H 0.37905 0.33364 0.69409 0.0
H1487 H 0.32748 0.38928 0.68779 0.0
H1488 H 0.28455 0.28272 0.5835 0.0
H1489 H 0.38736 0.30965 0.56802 0.0
H1490 H 0.26545 0.22296 0.57332 0.0
H1491 H 0.36649 0.24941 0.55811 0.0
H1492 H 0.24145 0.37771 0.58022 0.0
H1493 H 0.22494 0.3145 0.6339 0.0
H1494 H 0.40162 0.24947 0.64067 0.0
H1495 H 0.29579 0.22194 0.64286 0.0
Li1496 Li 0.63777 0.9928 0.60325 0.0
Li1497 Li 0.61005 0.01739 0.62183 0.0
Li1498 Li 0.61681 0.02397 0.58455 0.0
Li1499 Li 0.66676 0.05221 0.60815 0.0
C1500 C 0.56667 0.95153 0.60924 0.0
N1501 N 0.51873 0.89104 0.6273 0.0
C1502 C 0.57499 0.93916 0.62679 0.0
C1503 C 0.53393 0.93318 0.60093 0.0
C1504 C 0.55043 0.9085 0.63566 0.0
C1505 C 0.51005 0.90265 0.61028 0.0
C1506 C 0.66187 0.03128 0.64884 0.0
C1507 C 0.66764 0.07235 0.67457 0.0
N1508 N 0.68015 0.05838 0.68811 0.0
C1509 C 0.67495 0.01745 0.66297 0.0
C1510 C 0.65834 0.05909 0.65462 0.0
C1511 C 0.68409 0.03154 0.68275 0.0
C1512 C 0.67409 0.96163 0.61388 0.0
N1513 N 0.64559 0.9555 0.60348 0.0
C1514 C 0.62594 0.89588 0.60244 0.0
C1515 C 0.62242 0.92373 0.59682 0.0
C1516 C 0.65377 0.90137 0.61463 0.0
C1517 C 0.67886 0.93472 0.61955 0.0
H1518 H 0.69194 0.98721 0.61896 0.0
H1519 H 0.60003 0.91971 0.58851 0.0
C1520 C 0.55796 0.02388 0.63939 0.0
N1521 N 0.57921 0.01155 0.64324 0.0
C1522 C 0.53288 0.01887 0.65368 0.0
C1523 C 0.55232 0.98887 0.67576 0.0
C1524 C 0.57715 0.99456 0.66104 0.0
C1525 C 0.52981 0.00095 0.67197 0.0
H1526 H 0.56013 0.03703 0.62501 0.0
H1527 H 0.59427 0.98483 0.66363 0.0
C1528 C 0.67166 0.00926 0.56952 0.0
N1529 N 0.68927 0.96913 0.54643 0.0
C1530 C 0.70504 0.01531 0.56992 0.0
C1531 C 0.64728 0.98295 0.55729 0.0
C1532 C 0.71342 0.99469 0.55816 0.0
C1533 C 0.65668 0.96292 0.54575 0.0
C1534 C 0.63654 0.09078 0.59656 0.0
C1535 C 0.65619 0.10014 0.57851 0.0
C1536 C 0.62676 0.11289 0.6051 0.0
C1537 C 0.66577 0.13159 0.56934 0.0
C1538 C 0.63688 0.14413 0.59547 0.0
N1539 N 0.65601 0.15275 0.57793 0.0
C1540 C 0.55879 0.01436 0.56539 0.0
C1541 C 0.60332 0.02859 0.54119 0.0
C1542 C 0.53566 0.00809 0.54947 0.0
N1543 N 0.59168 0.02383 0.56101 0.0
C1544 C 0.58096 0.0227 0.52473 0.0
C1545 C 0.54661 0.01172 0.52891 0.0
H1546 H 0.55028 0.01046 0.5813 0.0
H1547 H 0.62952 0.03574 0.53817 0.0
C1548 C 0.73368 0.07839 0.61933 0.0
N1549 N 0.71065 0.08869 0.61577 0.0
C1550 C 0.76366 0.09929 0.6301 0.0
C1551 C 0.74652 0.14183 0.63265 0.0
C1552 C 0.71668 0.11999 0.62185 0.0
C1553 C 0.76983 0.13099 0.63732 0.0
H1554 H 0.72757 0.05288 0.61512 0.0
H1555 H 0.69746 0.12711 0.61962 0.0
O1556 O 0.59009 0.98171 0.60036 0.0
O1557 O 0.65146 0.01665 0.62976 0.0
O1558 O 0.66267 0.02854 0.58131 0.0
O1559 O 0.62679 0.06021 0.60596 0.0
H1560 H 0.60014 0.953 0.6335 0.0
H1561 H 0.52704 0.94246 0.58739 0.0
H1562 H 0.55658 0.89862 0.64921 0.0
H1563 H 0.48461 0.88819 0.60401 0.0
H1564 H 0.66487 0.09374 0.67928 0.0
H1565 H 0.67768 0.99582 0.65876 0.0
H1566 H 0.64817 0.0701 0.64397 0.0
H1567 H 0.69414 0.02102 0.69387 0.0
H1568 H 0.6061 0.8703 0.59859 0.0
H1569 H 0.70047 0.93958 0.62908 0.0
H1570 H 0.51558 0.02821 0.65036 0.0
H1571 H 0.55022 0.97469 0.68971 0.0
H1572 H 0.72424 0.03564 0.57924 0.0
H1573 H 0.62123 0.9777 0.557 0.0
H1574 H 0.73913 0.99899 0.55837 0.0
H1575 H 0.63802 0.94232 0.53632 0.0
H1576 H 0.66402 0.08345 0.57162 0.0
H1577 H 0.61157 0.106 0.61908 0.0
H1578 H 0.68097 0.13918 0.55537 0.0
H1579 H 0.62953 0.16152 0.60194 0.0
H1580 H 0.50929 -0.00039 0.55313 0.0
H1581 H 0.59004 0.02561 0.50895 0.0
H1582 H 0.781 0.09012 0.63371 0.0
H1583 H 0.75048 0.16604 0.6383 0.0
C1584 C 0.51692 0.01774 0.02113 0.0
C1585 C 0.49478 0.02787 0.01219 0.0
C1586 C 0.50706 0.01446 0.9775 0.0
C1587 C 0.53014 0.00559 0.98637 0.0
N1588 N 0.5606 0.00237 0.01604 0.0
N1589 N 0.47222 0.04076 0.9819 0.0
C1590 C 0.53609 0.00828 0.00805 0.0
C1591 C 0.49094 0.02774 0.99035 0.0
N1592 N 0.51912 0.01665 0.04219 0.0
N1593 N 0.49997 0.00937 0.95682 0.0
H1594 H 0.45939 0.04997 0.99075 0.0
H1595 H 0.47133 0.04488 0.96614 0.0
H1596 H 0.5121 0.00071 0.94684 0.0
H1597 H 0.48052 0.01143 0.94968 0.0
H1598 H 0.53126 0.00551 0.04986 0.0
H1599 H 0.50729 0.02557 0.05222 0.0
H1600 H 0.56911 0.00761 0.03125 0.0
H1601 H 0.57413 0.994 0.00712 0.0
C1602 C 0.96852 0.48905 0.01084 0.0
C1603 C 0.98894 0.47378 0.01356 0.0
C1604 C 0.03189 0.5153 0.98975 0.0
C1605 C 0.01254 0.53191 0.98811 0.0
N1606 N 0.96479 0.5378 0.99885 0.0
N1607 N 0.04176 0.47424 0.00806 0.0
C1608 C 0.98146 0.51966 0.99915 0.0
C1609 C 0.02116 0.48746 0.0037 0.0
N1610 N 0.93635 0.47369 0.01895 0.0
N1611 N 0.06008 0.5257 0.97758 0.0
H1612 H 0.03458 0.45362 0.01801 0.0
H1613 H 0.06691 0.48513 0.00312 0.0
H1614 H 0.0689 0.54634 0.96745 0.0
H1615 H 0.07332 0.51252 0.97632 0.0
H1616 H 0.91863 0.48119 0.01555 0.0
H1617 H 0.92642 0.45181 0.0281 0.0
H1618 H 0.94432 0.53261 0.00846 0.0
H1619 H 0.97278 0.55965 0.98991 0.0
C1620 C 0.46516 0.46974 0.006 0.0
C1621 C 0.47136 0.47157 0.98436 0.0
C1622 C 0.53245 0.50931 0.99027 0.0
C1623 C 0.52654 0.50582 0.01196 0.0
N1624 N 0.48857 0.47918 0.04072 0.0
N1625 N 0.51064 0.48895 0.95578 0.0
C1626 C 0.4932 0.48504 0.0199 0.0
C1627 C 0.50497 0.49019 0.97646 0.0
N1628 N 0.4324 0.45389 0.01319 0.0
N1629 N 0.56417 0.53179 0.98287 0.0
H1630 H 0.49102 0.47616 0.94513 0.0
H1631 H 0.53476 0.49856 0.94932 0.0
H1632 H 0.58513 0.54552 0.99245 0.0
H1633 H 0.56936 0.53865 0.96736 0.0
H1634 H 0.42596 0.45481 0.02853 0.0
H1635 H 0.41123 0.44169 0.00354 0.0
H1636 H 0.46554 0.46148 0.04742 0.0
H1637 H 0.50856 0.49015 0.05131 0.0
C1638 C 0.1371 0.32648 0.3294 0.0
C1639 C 0.13692 0.32101 0.35108 0.0
C1640 C 0.15483 0.27916 0.34434 0.0
C1641 C 0.16331 0.29121 0.32373 0.0
N1642 N 0.13511 0.30216 0.29588 0.0
N1643 N 0.14637 0.29184 0.37936 0.0
C1644 C 0.14695 0.30842 0.31569 0.0
C1645 C 0.14584 0.2971 0.35861 0.0
N1646 N 0.12758 0.34855 0.32172 0.0
N1647 N 0.14978 0.24772 0.34933 0.0
H1648 H 0.14046 0.30488 0.39039 0.0
H1649 H 0.15563 0.27675 0.38549 0.0
H1650 H 0.15046 0.23157 0.33806 0.0
H1651 H 0.14042 0.23622 0.36365 0.0
H1652 H 0.13087 0.35595 0.30624 0.0
H1653 H 0.11848 0.36109 0.33095 0.0
H1654 H 0.12006 0.31134 0.28964 0.0
H1655 H 0.13607 0.28349 0.28692 0.0
C1656 C 0.69932 0.82144 0.33886 0.0
C1657 C 0.67446 0.81469 0.35433 0.0
C1658 C 0.67317 0.8662 0.34432 0.0
C1659 C 0.69474 0.87048 0.32726 0.0
N1660 N 0.72624 0.85098 0.30698 0.0
N1661 N 0.6356 0.82866 0.37112 0.0
C1662 C 0.70745 0.84789 0.32423 0.0
C1663 C 0.66091 0.83664 0.35695 0.0
N1664 N 0.71548 0.80284 0.33841 0.0
N1665 N 0.6651 0.89085 0.3487 0.0
H1666 H 0.62691 0.8079 0.38114 0.0
H1667 H 0.62175 0.84125 0.37211 0.0
H1668 H 0.67357 0.91282 0.33977 0.0
H1669 H 0.65244 0.89103 0.36209 0.0
H1670 H 0.73615 0.80851 0.32887 0.0
H1671 H 0.71012 0.78335 0.34893 0.0
H1672 H 0.73297 0.83303 0.30261 0.0
H1673 H 0.73315 0.8704 0.29613 0.0
C1674 C 0.1292 0.81339 0.34169 0.0
C1675 C 0.1328 0.81753 0.31986 0.0
C1676 C 0.19322 0.86046 0.32399 0.0
C1677 C 0.19021 0.85402 0.34562 0.0
N1678 N 0.15687 0.82251 0.37511 0.0
N1679 N 0.16798 0.84338 0.28986 0.0
C1680 C 0.15857 0.83005 0.35449 0.0
C1681 C 0.16477 0.84071 0.31091 0.0
N1682 N 0.09762 0.79385 0.35022 0.0
N1683 N 0.22317 0.88597 0.31605 0.0
H1684 H 0.14728 0.83107 0.27985 0.0
H1685 H 0.19121 0.85642 0.28217 0.0
H1686 H 0.24492 0.90006 0.325 0.0
H1687 H 0.22609 0.89474 0.3009 0.0
H1688 H 0.09267 0.79286 0.366 0.0
H1689 H 0.07559 0.78032 0.34147 0.0
H1690 H 0.13572 0.80242 0.38216 0.0
H1691 H 0.17762 0.83494 0.38506 0.0
C1692 C 0.81366 0.63908 0.65231 0.0
C1693 C 0.84933 0.65275 0.65388 0.0
C1694 C 0.85223 0.69166 0.68127 0.0
C1695 C 0.81631 0.67667 0.68049 0.0
N1696 N 0.76205 0.6314 0.66854 0.0
N1697 N 0.90155 0.68653 0.67277 0.0
C1698 C 0.79677 0.64892 0.66696 0.0
C1699 C 0.86833 0.67742 0.66926 0.0
N1700 N 0.79609 0.61759 0.6364 0.0
N1701 N 0.87108 0.72026 0.69288 0.0
H1702 H 0.91419 0.67649 0.66442 0.0
H1703 H 0.91565 0.70163 0.68518 0.0
H1704 H 0.86018 0.73127 0.702 0.0
H1705 H 0.89754 0.73461 0.69222 0.0
H1706 H 0.77078 0.60979 0.63305 0.0
H1707 H 0.80757 0.60961 0.62548 0.0
H1708 H 0.74651 0.6089 0.66058 0.0
H1709 H 0.74886 0.63758 0.6793 0.0
C1710 C 0.32458 0.16975 0.65051 0.0
C1711 C 0.34013 0.20369 0.65792 0.0
C1712 C 0.34062 0.18384 0.6932 0.0
C1713 C 0.32307 0.14975 0.686 0.0
N1714 N 0.29337 0.10941 0.65869 0.0
N1715 N 0.35823 0.24309 0.68652 0.0
C1716 C 0.31359 0.14246 0.66488 0.0
C1717 C 0.34686 0.21078 0.67935 0.0
N1718 N 0.32118 0.16374 0.62969 0.0
N1719 N 0.35217 0.1905 0.71313 0.0
H1720 H 0.3636 0.2636 0.67684 0.0
H1721 H 0.35997 0.24918 0.70216 0.0
H1722 H 0.34729 0.17134 0.72382 0.0
H1723 H 0.36852 0.21491 0.71869 0.0
H1724 H 0.31349 0.14001 0.62314 0.0
H1725 H 0.32865 0.18312 0.61874 0.0
H1726 H 0.28258 0.10252 0.64404 0.0
H1727 H 0.28497 0.08872 0.66874 0.0
C1728 C 0.79476 0.14341 0.67303 0.0
C1729 C 0.79887 0.15099 0.65154 0.0
C1730 C 0.85802 0.19585 0.65734 0.0
C1731 C 0.85456 0.18666 0.67859 0.0
N1732 N 0.82156 0.14951 0.70648 0.0
N1733 N 0.8348 0.18125 0.62259 0.0
C1734 C 0.82342 0.15981 0.6864 0.0
C1735 C 0.83063 0.1764 0.64351 0.0
N1736 N 0.7632 0.121 0.68069 0.0
N1737 N 0.88728 0.22366 0.65049 0.0
H1738 H 0.815 0.16814 0.61209 0.0
H1739 H 0.85824 0.19652 0.61548 0.0
H1740 H 0.90834 0.23778 0.65997 0.0
H1741 H 0.89007 0.23419 0.63582 0.0
H1742 H 0.7575 0.11704 0.69639 0.0
H1743 H 0.74184 0.10795 0.67129 0.0
H1744 H 0.80091 0.12771 0.71259 0.0
H1745 H 0.84183 0.1615 0.71681 0.0
C1746 C 0.35723 0.1921 0.14818 0.0
C1747 C 0.35247 0.15929 0.15252 0.0
C1748 C 0.33806 0.16427 0.18844 0.0
C1749 C 0.33841 0.19493 0.18332 0.0
N1750 N 0.34336 0.23554 0.15744 0.0
N1751 N 0.33328 0.11167 0.17597 0.0
C1752 C 0.34675 0.20825 0.16294 0.0
C1753 C 0.34162 0.1447 0.17247 0.0
N1754 N 0.37251 0.20816 0.1301 0.0
N1755 N 0.33539 0.15435 0.20865 0.0
H1756 H 0.33539 0.09638 0.16469 0.0
H1757 H 0.32157 0.09852 0.1895 0.0
H1758 H 0.3332 0.16821 0.22084 0.0
H1759 H 0.33857 0.1342 0.2135 0.0
H1760 H 0.37976 0.23344 0.12696 0.0
H1761 H 0.38099 0.19729 0.11907 0.0
H1762 H 0.34555 0.24408 0.14225 0.0
H1763 H 0.3353 0.2478 0.16772 0.0
C1764 C 0.84628 0.20107 0.17384 0.0
C1765 C 0.84694 0.19333 0.15265 0.0
C1766 C 0.81183 0.13208 0.1601 0.0
C1767 C 0.80991 0.13993 0.18112 0.0
N1768 N 0.82219 0.18129 0.20805 0.0
N1769 N 0.82809 0.15243 0.12485 0.0
C1770 C 0.82627 0.1743 0.188 0.0
C1771 C 0.82901 0.15906 0.14556 0.0
N1772 N 0.86546 0.23402 0.18046 0.0
N1773 N 0.79777 0.09875 0.15418 0.0
H1774 H 0.84139 0.17131 0.11382 0.0
H1775 H 0.81261 0.12862 0.11828 0.0
H1776 H 0.78386 0.07838 0.16422 0.0
H1777 H 0.80141 0.09102 0.13973 0.0
H1778 H 0.86955 0.24116 0.19594 0.0
H1779 H 0.879 0.25446 0.1704 0.0
H1780 H 0.82986 0.20564 0.21355 0.0
H1781 H 0.80933 0.16243 0.21917 0.0
C1782 C 0.82633 0.67359 0.18924 0.0
C1783 C 0.85426 0.66871 0.18478 0.0
C1784 C 0.83459 0.65445 0.14892 0.0
C1785 C 0.80443 0.65499 0.15414 0.0
N1786 N 0.76899 0.65976 0.18023 0.0
N1787 N 0.88203 0.64896 0.16125 0.0
C1788 C 0.7996 0.66319 0.17458 0.0
C1789 C 0.85767 0.6577 0.16483 0.0
N1790 N 0.82579 0.689 0.20729 0.0
N1791 N 0.84181 0.65196 0.12868 0.0
H1792 H 0.89928 0.65067 0.1725 0.0
H1793 H 0.8832 0.63718 0.1477 0.0
H1794 H 0.82589 0.65012 0.11652 0.0
H1795 H 0.86508 0.65503 0.1238 0.0
H1796 H 0.80785 0.69633 0.21048 0.0
H1797 H 0.84523 0.6975 0.21824 0.0
H1798 H 0.76279 0.6619 0.19546 0.0
H1799 H 0.74857 0.65166 0.17005 0.0
C1800 C 0.69534 0.86003 0.84943 0.0
C1801 C 0.66319 0.85832 0.84937 0.0
C1802 C 0.64726 0.8229 0.8182 0.0
C1803 C 0.67739 0.82079 0.81995 0.0
N1804 N 0.72798 0.83344 0.8391 0.0
N1805 N 0.60643 0.83409 0.83547 0.0
C1806 C 0.70095 0.83839 0.83605 0.0
C1807 C 0.63856 0.83873 0.83419 0.0
N1808 N 0.72086 0.88303 0.86187 0.0
N1809 N 0.6275 0.81075 0.8009 0.0
H1810 H 0.599 0.84515 0.84697 0.0
H1811 H 0.58638 0.81699 0.82618 0.0
H1812 H 0.63353 0.79974 0.78868 0.0
H1813 H 0.60716 0.81462 0.79777 0.0
H1814 H 0.74582 0.88783 0.86107 0.0
H1815 H 0.71794 0.89976 0.87158 0.0
H1816 H 0.74388 0.84265 0.85195 0.0
H1817 H 0.73279 0.81756 0.82976 0.0
C1818 C 0.15681 0.84841 0.8578 0.0
C1819 C 0.14769 0.81442 0.85262 0.0
C1820 C 0.1714 0.83325 0.81786 0.0
C1821 C 0.18421 0.86767 0.82392 0.0
N1822 N 0.19319 0.90858 0.85053 0.0
N1823 N 0.15013 0.77484 0.82876 0.0
C1824 C 0.17794 0.87543 0.84412 0.0
C1825 C 0.15594 0.80689 0.8329 0.0
N1826 N 0.14442 0.85474 0.87551 0.0
N1827 N 0.17315 0.82568 0.7976 0.0
H1828 H 0.13879 0.75484 0.83936 0.0
H1829 H 0.15905 0.76874 0.81552 0.0
H1830 H 0.18394 0.84427 0.78611 0.0
H1831 H 0.16117 0.80093 0.79182 0.0
H1832 H 0.14722 0.87842 0.87903 0.0
H1833 H 0.12858 0.83559 0.88581 0.0
H1834 H 0.1927 0.91564 0.86579 0.0
H1835 H 0.20876 0.92908 0.84095 0.0
C1836 C 0.17006 0.30592 0.83751 0.0
C1837 C 0.19001 0.3403 0.84409 0.0
C1838 C 0.16018 0.35772 0.81963 0.0
C1839 C 0.13864 0.32302 0.81411 0.0
N1840 N 0.12021 0.26359 0.81891 0.0
N1841 N 0.20225 0.39848 0.84341 0.0
C1842 C 0.14281 0.29695 0.82336 0.0
C1843 C 0.18462 0.36612 0.83565 0.0
N1844 N 0.17766 0.28202 0.84454 0.0
N1845 N 0.15765 0.38267 0.80924 0.0
H1846 H 0.22115 0.40579 0.85463 0.0
H1847 H 0.19683 0.41763 0.83976 0.0
H1848 H 0.13921 0.37751 0.798 0.0
H1849 H 0.17505 0.40856 0.81074 0.0
H1850 H 0.16665 0.25733 0.83877 0.0
H1851 H 0.1969 0.28748 0.85525 0.0
H1852 H 0.11934 0.2431 0.82673 0.0
H1853 H 0.10057 0.25619 0.80819 0.0
C1854 C 0.02827 0.52391 0.48165 0.0
C1855 C 0.01124 0.48778 0.48245 0.0
C1856 C 0.98259 0.48856 0.51452 0.0
C1857 C 0.99714 0.5244 0.51258 0.0
N1858 N 0.02857 0.57538 0.49215 0.0
N1859 N 0.96708 0.43526 0.49734 0.0
C1860 C 0.01847 0.54185 0.49549 0.0
C1861 C 0.98693 0.46993 0.49825 0.0
N1862 N 0.05463 0.54117 0.46811 0.0
N1863 N 0.96572 0.47242 0.53223 0.0
H1864 H 0.96918 0.42066 0.4856 0.0
H1865 H 0.94646 0.42128 0.50716 0.0
H1866 H 0.96207 0.48508 0.54456 0.0
H1867 H 0.95792 0.44703 0.53544 0.0
H1868 H 0.0703 0.56755 0.46829 0.0
H1869 H 0.06293 0.52895 0.45795 0.0
H1870 H 0.04121 0.58852 0.47881 0.0
H1871 H 0.02146 0.58921 0.50179 0.0
C1872 C 0.51946 0.5331 0.50928 0.0
C1873 C 0.51998 0.52682 0.48784 0.0
C1874 C 0.48066 0.46565 0.49338 0.0
C1875 C 0.47841 0.47229 0.51459 0.0
N1876 N 0.49303 0.51198 0.54281 0.0
N1877 N 0.49973 0.48831 0.45881 0.0
C1878 C 0.49715 0.50595 0.52257 0.0
C1879 C 0.50021 0.49337 0.4797 0.0
N1880 N 0.54088 0.56494 0.51695 0.0
N1881 N 0.46456 0.43272 0.48647 0.0
H1882 H 0.51474 0.50767 0.44839 0.0
H1883 H 0.48314 0.46549 0.45151 0.0
H1884 H 0.44918 0.41196 0.49594 0.0
H1885 H 0.46796 0.42553 0.47179 0.0
H1886 H 0.5448 0.57057 0.53265 0.0
H1887 H 0.55658 0.58569 0.50757 0.0
H1888 H 0.50259 0.5362 0.54908 0.0
H1889 H 0.47831 0.49263 0.55331 0.0
C1890 C 0.51546 0.0275 0.50304 0.0
C1891 C 0.52145 0.00234 0.5119 0.0
C1892 C 0.47545 0.95803 0.49095 0.0
C1893 C 0.47087 0.98349 0.48119 0.0
N1894 N 0.48881 0.04277 0.47574 0.0
N1895 N 0.51071 0.94461 0.51279 0.0
C1896 C 0.49154 0.01835 0.48663 0.0
C1897 C 0.50243 0.96783 0.50541 0.0
N1898 N 0.53201 0.05995 0.51073 0.0
N1899 N 0.45346 0.92444 0.48669 0.0
H1900 H 0.52985 0.95071 0.5237 0.0
H1901 H 0.50046 0.91994 0.5071 0.0
H1902 H 0.43392 0.91644 0.47584 0.0
H1903 H 0.45289 0.90436 0.49485 0.0
H1904 H 0.52601 0.07856 0.5067 0.0
H1905 H 0.55047 0.06781 0.52228 0.0
H1906 H 0.50572 0.06878 0.47722 0.0
H1907 H 0.47082 0.03703 0.46412 0.0
C1908 C 0.21967 0.85076 0.04598 0.0
C1909 C 0.21022 0.87407 0.05376 0.0
C1910 C 0.15151 0.83667 0.04306 0.0
C1911 C 0.16199 0.81635 0.03214 0.0
N1912 N 0.20554 0.80272 0.0234 0.0
N1913 N 0.16656 0.88744 0.06254 0.0
C1914 C 0.19579 0.82246 0.03409 0.0
C1915 C 0.1759 0.86617 0.05344 0.0
N1916 N 0.25164 0.85617 0.0498 0.0
N1917 N 0.11845 0.82919 0.04312 0.0
H1918 H 0.18373 0.90929 0.07061 0.0
H1919 H 0.14156 0.88277 0.06221 0.0
H1920 H 0.09868 0.80769 0.03604 0.0
H1921 H 0.09868 0.80769 0.03604 0.0
H1922 H 0.25957 0.83888 0.0461 0.0
H1923 H 0.26956 0.87696 0.05833 0.0
H1924 H 0.23063 0.80816 0.0221 0.0
H1925 H 0.18855 0.78137 0.01491 0.0
C1926 C 0.14544 0.36511 0.03239 0.0
C1927 C 0.12744 0.33594 0.04516 0.0
C1928 C 0.16601 0.3153 0.03522 0.0
C1929 C 0.18339 0.34399 0.02204 0.0
N1930 N 0.19583 0.40014 0.01176 0.0
N1931 N 0.12444 0.2877 0.06269 0.0
C1932 C 0.17518 0.37031 0.02193 0.0
C1933 C 0.13916 0.31252 0.04793 0.0
N1934 N 0.13299 0.38673 0.02934 0.0
N1935 N 0.17423 0.2901 0.03484 0.0
H1936 H 0.10463 0.2852 0.07213 0.0
H1937 H 0.13353 0.27149 0.06679 0.0
H1938 H 0.19456 0.29196 0.02623 0.0
H1939 H 0.16005 0.26669 0.04221 0.0
H1940 H 0.1424 0.40592 0.01822 0.0
H1941 H 0.11178 0.38435 0.03716 0.0
H1942 H 0.19316 0.42161 0.01269 0.0
H1943 H 0.21762 0.40447 0.00375 0.0
C1944 C 0.64877 0.77408 0.01911 0.0
C1945 C 0.65381 0.77622 0.04086 0.0
C1946 C 0.65324 0.83001 0.04151 0.0
C1947 C 0.64654 0.82669 0.01997 0.0
N1948 N 0.6288 0.79152 0.98944 0.0
N1949 N 0.65425 0.80227 0.07343 0.0
C1950 C 0.64119 0.79728 0.00919 0.0
C1951 C 0.65397 0.80301 0.05231 0.0
N1952 N 0.65338 0.75134 0.00767 0.0
N1953 N 0.6601 0.85939 0.05142 0.0
H1954 H 0.65465 0.78271 0.08173 0.0
H1955 H 0.6512 0.81934 0.08269 0.0
H1956 H 0.65893 0.87925 0.04401 0.0
H1957 H 0.66892 0.86495 0.06657 0.0
H1958 H 0.6537 0.75136 0.99156 0.0
H1959 H 0.66034 0.73466 0.01411 0.0
H1960 H 0.62114 0.76874 0.9816 0.0
H1961 H 0.62295 0.80811 0.98163 0.0
C1962 C 0.8383 0.14135 0.95087 0.0
C1963 C 0.80336 0.13148 0.95101 0.0
C1964 C 0.81475 0.18029 0.97251 0.0
C1965 C 0.84951 0.18916 0.97344 0.0
N1966 N 0.89624 0.18506 0.95898 0.0
N1967 N 0.76002 0.14658 0.95572 0.0
C1968 C 0.86193 0.17203 0.96095 0.0
C1969 C 0.79232 0.15301 0.95957 0.0
N1970 N 0.84842 0.12039 0.94217 0.0
N1971 N 0.80262 0.19601 0.98513 0.0
H1972 H 0.74313 0.12641 0.94636 0.0
H1973 H 0.75121 0.16294 0.96005 0.0
H1974 H 0.81808 0.21608 0.99493 0.0
H1975 H 0.77682 0.18771 0.98696 0.0
H1976 H 0.87284 0.12396 0.94368 0.0
H1977 H 0.8317 0.09842 0.93403 0.0
H1978 H 0.90711 0.17532 0.94886 0.0
H1979 H 0.91393 0.20766 0.9662 0.0
C1980 C 0.82494 0.63147 0.97253 0.0
C1981 C 0.81566 0.65691 0.97462 0.0
C1982 C 0.86446 0.69659 0.95364 0.0
C1983 C 0.87507 0.67205 0.95285 0.0
N1984 N 0.86199 0.61382 0.95639 0.0
N1985 N 0.82046 0.70971 0.96331 0.0
C1986 C 0.85389 0.63854 0.96043 0.0
C1987 C 0.83337 0.68817 0.96374 0.0
N1988 N 0.80726 0.60144 0.98312 0.0
N1989 N 0.88506 0.72836 0.94561 0.0
H1990 H 0.79777 0.70403 0.97073 0.0
H1991 H 0.83056 0.73178 0.95441 0.0
H1992 H 0.90712 0.73451 0.93727 0.0
H1993 H 0.88107 0.74887 0.94769 0.0
H1994 H 0.81507 0.5835 0.98441 0.0
H1995 H 0.78523 0.59499 0.99156 0.0
H1996 H 0.84616 0.58817 0.95986 0.0
H1997 H 0.8835 0.61848 0.94795 0.0
C1998 C 0.28269 0.17004 0.96542 0.0
C1999 C 0.30738 0.19065 0.95042 0.0
C2000 C 0.34108 0.16354 0.95834 0.0
C2001 C 0.31659 0.14331 0.97349 0.0
N2002 N 0.25984 0.11973 0.98714 0.0
N2003 N 0.35461 0.20097 0.92863 0.0
C2004 C 0.28584 0.14395 0.97547 0.0
C2005 C 0.33472 0.18518 0.94549 0.0
N2006 N 0.25769 0.17688 0.97115 0.0
N2007 N 0.37118 0.16357 0.95706 0.0
H2008 H 0.35026 0.2169 0.91899 0.0
H2009 H 0.37317 0.19585 0.92312 0.0
H2010 H 0.37657 0.14774 0.96604 0.0
H2011 H 0.39164 0.18072 0.94802 0.0
H2012 H 0.24169 0.16541 0.98378 0.0
H2013 H 0.25435 0.19582 0.96431 0.0
H2014 H 0.23561 0.11693 0.98766 0.0
H2015 H 0.26157 0.10029 0.9947 0.0
C2016 C 0.86037 0.21961 0.35802 0.0
C2017 C 0.8648 0.2141 0.37913 0.0
C2018 C 0.81943 0.15445 0.37617 0.0
C2019 C 0.81747 0.15952 0.35465 0.0
N2020 N 0.83675 0.19675 0.32475 0.0
N2021 N 0.85058 0.17646 0.40835 0.0
C2022 C 0.83798 0.192 0.34556 0.0
C2023 C 0.84469 0.18156 0.3883 0.0
N2024 N 0.87789 0.25101 0.34907 0.0
N2025 N 0.79656 0.12403 0.38499 0.0
H2026 H 0.868 0.19617 0.41778 0.0
H2027 H 0.83962 0.15262 0.41538 0.0
H2028 H 0.77788 0.10375 0.37646 0.0
H2029 H 0.79437 0.11956 0.40085 0.0
H2030 H 0.89469 0.27329 0.35689 0.0
H2031 H 0.89469 0.27329 0.35689 0.0
H2032 H 0.85161 0.22037 0.31761 0.0
H2033 H 0.8218 0.17712 0.31451 0.0
C2034 C 0.8226 0.61926 0.37188 0.0
C2035 C 0.84924 0.65181 0.36573 0.0
C2036 C 0.82159 0.67955 0.38299 0.0
C2037 C 0.79375 0.64689 0.38778 0.0
N2038 N 0.77098 0.58669 0.39215 0.0
N2039 N 0.87931 0.71275 0.36977 0.0
C2040 C 0.79553 0.61704 0.38411 0.0
C2041 C 0.85054 0.68195 0.37292 0.0
N2042 N 0.82244 0.59063 0.36507 0.0
N2043 N 0.81933 0.70799 0.38695 0.0
H2044 H 0.90072 0.71511 0.36221 0.0
H2045 H 0.88318 0.73554 0.37606 0.0
H2046 H 0.79899 0.70714 0.39502 0.0
H2047 H 0.83675 0.73223 0.38158 0.0
H2048 H 0.80196 0.56605 0.36691 0.0
H2049 H 0.84261 0.59158 0.35674 0.0
H2050 H 0.77188 0.56422 0.39145 0.0
H2051 H 0.75093 0.5847 0.40113 0.0
C2052 C 0.32947 0.17075 0.37493 0.0
C2053 C 0.35225 0.18878 0.35855 0.0
C2054 C 0.38196 0.15688 0.36362 0.0
C2055 C 0.35895 0.13849 0.37989 0.0
N2056 N 0.31679 0.13322 0.40451 0.0
N2057 N 0.40557 0.20648 0.34127 0.0
C2058 C 0.33472 0.14735 0.38675 0.0
C2059 C 0.38043 0.18439 0.35431 0.0
N2060 N 0.30191 0.17469 0.37845 0.0
N2061 N 0.40366 0.1467 0.35612 0.0
H2062 H 0.40504 0.22696 0.33427 0.0
H2063 H 0.42835 0.20656 0.33903 0.0
H2064 H 0.40572 0.12663 0.36241 0.0
H2065 H 0.41793 0.15653 0.34267 0.0
H2066 H 0.28221 0.15937 0.38853 0.0
H2067 H 0.29772 0.19218 0.37036 0.0
H2068 H 0.30083 0.14075 0.41138 0.0
H2069 H 0.32033 0.11602 0.41342 0.0
C2070 C 0.51298 0.5176 0.29447 0.0
C2071 C 0.51565 0.51388 0.31607 0.0
C2072 C 0.47315 0.45341 0.31389 0.0
C2073 C 0.46727 0.45805 0.29293 0.0
N2074 N 0.47932 0.49448 0.26327 0.0
N2075 N 0.49368 0.47998 0.34713 0.0
C2076 C 0.48663 0.49015 0.28315 0.0
C2077 C 0.49462 0.4822 0.32601 0.0
N2078 N 0.53608 0.547 0.28477 0.0
N2079 N 0.45837 0.42141 0.32224 0.0
H2080 H 0.50826 0.50066 0.35679 0.0
H2081 H 0.47594 0.45842 0.35518 0.0
H2082 H 0.44174 0.39948 0.31409 0.0
H2083 H 0.46494 0.41631 0.33669 0.0
H2084 H 0.53753 0.55011 0.26878 0.0
H2085 H 0.55567 0.56749 0.29266 0.0
H2086 H 0.4899 0.51811 0.25599 0.0
H2087 H 0.46105 0.47446 0.25439 0.0
C2088 C 0.53824 0.03158 0.28876 0.0
C2089 C 0.53789 0.00253 0.28026 0.0
C2090 C 0.47964 0.9658 0.29253 0.0
C2091 C 0.4804 0.9947 0.30156 0.0
N2092 N 0.5051 0.0556 0.30261 0.0
N2093 N 0.50567 0.94471 0.26828 0.0
C2094 C 0.50793 0.02784 0.2976 0.0
C2095 C 0.50747 0.97055 0.28008 0.0
N2096 N 0.56796 0.06208 0.28987 0.0
N2097 N 0.45365 0.93376 0.29699 0.0
H2098 H 0.52593 0.94785 0.25903 0.0
H2099 H 0.4833 0.92158 0.2661 0.0
H2100 H 0.43275 0.92912 0.30605 0.0
H2101 H 0.45388 0.91168 0.29283 0.0
H2102 H 0.57044 0.08285 0.29821 0.0
H2103 H 0.59088 0.06611 0.28366 0.0
H2104 H 0.52316 0.08042 0.29848 0.0
H2105 H 0.48297 0.05336 0.30909 0.0
C2106 C 0.96363 0.49021 0.28672 0.0
C2107 C 0.9919 0.52312 0.28332 0.0
C2108 C 0.03027 0.50534 0.29803 0.0
C2109 C 0.0014 0.47488 0.30486 0.0
N2110 N 0.94082 0.43637 0.30505 0.0
N2111 N 0.05227 0.56252 0.28446 0.0
C2112 C 0.9681 0.46641 0.29864 0.0
C2113 C 0.02543 0.53059 0.28815 0.0
N2114 N 0.93261 0.48222 0.27874 0.0
N2115 N 0.06216 0.51017 0.30135 0.0
H2116 H 0.04967 0.58116 0.27656 0.0
H2117 H 0.07684 0.57114 0.28988 0.0
H2118 H 0.06636 0.49227 0.30892 0.0
H2119 H 0.08426 0.53044 0.29524 0.0
H2120 H 0.91126 0.45798 0.27929 0.0
H2121 H 0.92898 0.49952 0.27 0.0
H2122 H 0.91559 0.43016 0.30316 0.0
H2123 H 0.9435 0.41785 0.31307 0.0
C2124 C 0.51912 0.51567 0.67258 0.0
C2125 C 0.48956 0.4915 0.68328 0.0
C2126 C 0.51287 0.52196 0.71593 0.0
C2127 C 0.54143 0.5472 0.70487 0.0
N2128 N 0.57177 0.56774 0.67224 0.0
N2129 N 0.45639 0.47159 0.71452 0.0
C2130 C 0.54463 0.54393 0.68327 0.0
C2131 C 0.48595 0.49448 0.70487 0.0
N2132 N 0.52282 0.51218 0.65187 0.0
N2133 N 0.51196 0.5241 0.73699 0.0
H2134 H 0.43676 0.45074 0.70689 0.0
H2135 H 0.4504 0.47391 0.72974 0.0
H2136 H 0.53114 0.54418 0.74539 0.0
H2137 H 0.49352 0.50521 0.74636 0.0
H2138 H 0.54423 0.52962 0.64352 0.0
H2139 H 0.50487 0.4918 0.64308 0.0
H2140 H 0.59189 0.58981 0.67854 0.0
H2141 H 0.59189 0.58981 0.67854 0.0
C2142 C 0.46805 0.96801 0.68053 0.0
C2143 C 0.50142 0.99313 0.68632 0.0
C2144 C 0.47893 0.00687 0.71699 0.0
C2145 C 0.44551 0.98574 0.70935 0.0
N2146 N 0.4079 0.94881 0.68264 0.0
N2147 N 0.53941 0.03791 0.70934 0.0
C2148 C 0.43987 0.96663 0.69092 0.0
C2149 C 0.50719 0.01272 0.70452 0.0
N2150 N 0.46339 0.94538 0.66515 0.0
N2151 N 0.48347 0.0211 0.73619 0.0
H2152 H 0.56077 0.04248 0.70074 0.0
H2153 H 0.54483 0.05564 0.72105 0.0
H2154 H 0.46312 0.01719 0.7456 0.0
H2155 H 0.50702 0.03422 0.7435 0.0
H2156 H 0.43981 0.92435 0.66164 0.0
H2157 H 0.4836 0.94574 0.6572 0.0
H2158 H 0.40302 0.93789 0.66797 0.0
H2159 H 0.38638 0.94709 0.68963 0.0
C2160 C 0.02746 0.47937 0.69355 0.0
C2161 C 0.01029 0.46775 0.7128 0.0
C2162 C 0.98795 0.50675 0.70948 0.0
C2163 C 0.00365 0.51701 0.68977 0.0
N2164 N 0.03959 0.51397 0.66316 0.0
N2165 N 0.97567 0.47164 0.73982 0.0
C2166 C 0.02402 0.50387 0.68202 0.0
C2167 C 0.99119 0.48197 0.72099 0.0
N2168 N 0.04663 0.46679 0.68535 0.0
N2169 N 0.96942 0.52001 0.71768 0.0
H2170 H 0.9778 0.45385 0.749 0.0
H2171 H 0.9611 0.48131 0.74624 0.0
H2172 H 0.96591 0.53861 0.71042 0.0
H2173 H 0.96591 0.53861 0.71042 0.0
H2174 H 0.05072 0.44844 0.6924 0.0
H2175 H 0.05072 0.44844 0.6924 0.0
H2176 H 0.05461 0.50468 0.65693 0.0
H2177 H 0.03747 0.53146 0.65375 0.0
C2178 C 0.15725 0.81526 0.66165 0.0
C2179 C 0.17654 0.84764 0.65211 0.0
C2180 C 0.14803 0.82429 0.61904 0.0
C2181 C 0.12957 0.7918 0.62848 0.0
N2182 N 0.12174 0.75434 0.65711 0.0
N2183 N 0.1954 0.8823 0.62137 0.0
C2184 C 0.13593 0.78666 0.64927 0.0
C2185 C 0.17354 0.85195 0.63063 0.0
N2186 N 0.15799 0.81214 0.68267 0.0
N2187 N 0.14034 0.82884 0.59929 0.0
H2188 H 0.21422 0.90304 0.62953 0.0
H2189 H 0.19675 0.88617 0.60545 0.0
H2190 H 0.12251 0.8088 0.59023 0.0
H2191 H 0.15011 0.85259 0.59227 0.0
H2192 H 0.14137 0.79007 0.69072 0.0
H2193 H 0.17335 0.83242 0.69241 0.0
H2194 H 0.12825 0.74872 0.67142 0.0
H2195 H 0.10567 0.73265 0.64856 0.0
C2196 C 0.13874 0.30916 0.62476 0.0
C2197 C 0.14064 0.3374 0.63544 0.0
C2198 C 0.19867 0.37429 0.62291 0.0
C2199 C 0.19727 0.34576 0.61289 0.0
N2200 N 0.16366 0.2895 0.5988 0.0
N2201 N 0.16719 0.39818 0.63935 0.0
C2202 C 0.16628 0.31437 0.61186 0.0
C2203 C 0.16888 0.37052 0.63256 0.0
N2204 N 0.11183 0.27714 0.62803 0.0
N2205 N 0.2289 0.40418 0.62456 0.0
H2206 H 0.14548 0.39591 0.64647 0.0
H2207 H 0.18578 0.42322 0.63613 0.0
H2208 H 0.25136 0.40822 0.61762 0.0
H2209 H 0.23225 0.42433 0.63391 0.0
H2210 H 0.11104 0.25513 0.6226 0.0
H2211 H 0.09104 0.27227 0.63727 0.0
H2212 H 0.14092 0.267 0.59601 0.0
H2213 H 0.18371 0.29301 0.58922 0.0
C2214 C 0.66405 0.82452 0.62632 0.0
C2215 C 0.66138 0.82388 0.64821 0.0
C2216 C 0.64669 0.86886 0.64699 0.0
C2217 C 0.65386 0.8727 0.62551 0.0
N2218 N 0.67229 0.85669 0.59469 0.0
N2219 N 0.65685 0.85003 0.67975 0.0
C2220 C 0.66321 0.8511 0.61508 0.0
C2221 C 0.65441 0.84723 0.65868 0.0
N2222 N 0.66658 0.79933 0.61631 0.0
N2223 N 0.63192 0.88546 0.65618 0.0
H2224 H 0.66353 0.83544 0.68902 0.0
H2225 H 0.65561 0.8692 0.6879 0.0
H2226 H 0.62543 0.90131 0.64808 0.0
H2227 H 0.62298 0.88081 0.67136 0.0
H2228 H 0.66528 0.79651 0.6003 0.0
H2229 H 0.66715 0.77947 0.62412 0.0
H2230 H 0.6829 0.84421 0.5868 0.0
H2231 H 0.67134 0.87558 0.58598 0.0
loop_
_geom_bond_atom_site_label_1
_geom_bond_atom_site_label_2
_geom_bond_distance
_geom_bond_site_symmetry_2
_ccdc_geom_bond_type
Li0 N17 1.990 . S
Li0 O60 1.956 . S
Li0 O61 1.970 . S
Li0 O62 1.961 . S
Li1 N25 1.990 . S
Li1 O60 1.970 . S
Li1 O61 1.956 . S
Li1 O63 1.961 . S
Li2 N47 1.990 . S
Li2 O60 1.961 . S
Li2 O62 1.956 . S
Li2 O63 1.970 . S
Li3 N53 1.990 . S
Li3 O61 1.961 1_565 S
Li3 O62 1.970 1_565 S
Li3 O63 1.956 1_565 S
C4 C6 1.348 . S
C4 C7 1.356 . S
C4 O60 1.325 . S
N5 C8 1.314 . S
N5 C9 1.279 . S
C6 C4 1.348 . S
C6 C8 1.353 . S
C6 H64 0.929 . S
C7 C4 1.356 . S
C7 C9 1.358 . S
C7 H65 0.930 . S
C8 N5 1.314 . S
C8 C6 1.353 . S
C8 H66 0.930 . S
C9 N5 1.279 . S
C9 C7 1.358 . S
C9 H67 0.930 . S
C10 C13 1.348 . S
C10 C14 1.356 . S
C10 O61 1.325 . S
C11 N12 1.279 . S
C11 C14 1.358 . S
C11 H68 0.916 1_545 S
N12 C11 1.279 . S
N12 C15 1.314 . S
C13 C10 1.348 . S
C13 C15 1.353 . S
C13 H69 0.929 . S
C14 C10 1.356 . S
C14 C11 1.358 . S
C14 H70 0.930 1_545 S
C15 N12 1.314 . S
C15 C13 1.353 . S
C15 H71 0.930 . S
C16 N17 1.314 . S
C16 C21 1.353 1_554 S
C16 H22 0.930 . S
N17 Li0 1.990 . S
N17 C16 1.314 . S
N17 C19 1.279 . S
C18 C19 1.358 . S
C18 C20 1.356 1_554 S
C18 H72 0.930 . S
C19 N17 1.279 . S
C19 C18 1.358 . S
C19 H23 0.930 . S
C20 C18 1.356 1_556 S
C20 C21 1.348 . S
C21 C16 1.353 1_556 S
C21 C20 1.348 . S
C21 H73 0.929 . S
H22 C16 0.930 . S
H23 C19 0.930 . S
C24 N25 1.314 . S
C24 C26 1.353 . S
C24 H30 0.930 . S
N25 Li1 1.990 . S
N25 C24 1.314 . S
N25 C28 1.279 . S
C26 C24 1.353 . S
C26 C29 1.348 . S
C26 H74 0.929 . S
C27 C28 1.358 . S
C27 C29 1.356 . S
C27 H75 0.930 . S
C28 N25 1.279 . S
C28 C27 1.358 . S
C28 H31 0.930 . S
C29 C26 1.348 . S
C29 C27 1.356 . S
H30 C24 0.930 . S
H31 C28 0.930 . S
C32 C34 1.348 1_545 S
C32 C35 1.356 1_554 S
C32 O62 1.325 . S
N33 C36 1.326 . S
N33 C37 1.261 1_565 S
C34 C32 1.348 1_565 S
C34 C36 1.353 1_554 S
C34 H76 0.929 . S
C35 C32 1.356 1_556 S
C35 C37 1.358 . S
C35 H77 0.931 1_556 S
C36 N33 1.326 . S
C36 C34 1.353 1_556 S
C36 H78 0.930 . S
C37 N33 1.261 1_545 S
C37 C35 1.358 . S
C37 H79 0.930 . S
C38 C39 1.348 . S
C38 C40 1.356 . S
C38 O63 1.325 1_565 S
C39 C38 1.348 . S
C39 C41 1.353 . S
C39 H80 0.929 . S
C40 C38 1.356 . S
C40 C42 1.358 . S
C40 H81 0.930 . S
C41 C39 1.353 . S
C41 N43 1.314 . S
C41 H82 0.930 . S
C42 C40 1.358 . S
C42 N43 1.279 . S
C42 H83 0.930 . S
N43 C41 1.314 . S
N43 C42 1.279 . S
C44 C46 1.353 . S
C44 N47 1.314 . S
C44 H50 0.930 . S
C45 N47 1.279 . S
C45 C48 1.358 . S
C45 H51 0.930 . S
C46 C44 1.353 . S
C46 C49 1.348 . S
C46 H84 0.929 . S
N47 Li2 1.990 . S
N47 C44 1.314 . S
N47 C45 1.279 . S
C48 C45 1.358 . S
C48 C49 1.356 . S
C48 H85 0.930 . S
C49 C46 1.348 . S
C49 C48 1.356 . S
H50 C44 0.930 . S
H51 C45 0.930 . S
C52 N53 1.314 . S
C52 C54 1.353 . S
C52 H58 0.930 . S
N53 Li3 1.990 . S
N53 C52 1.314 . S
N53 C56 1.279 . S
C54 C52 1.353 . S
C54 C57 1.348 . S
C54 H86 0.929 . S
C55 C56 1.358 . S
C55 C57 1.356 . S
C55 H87 0.930 . S
C56 N53 1.279 . S
C56 C55 1.358 . S
C56 H59 0.930 . S
C57 C54 1.348 . S
C57 C55 1.356 . S
H58 C52 0.930 . S
H59 C56 0.930 . S
O60 Li0 1.956 . S
O60 Li1 1.970 . S
O60 Li2 1.961 . S
O60 C4 1.325 . S
O61 Li0 1.970 . S
O61 Li1 1.956 . S
O61 Li3 1.961 1_545 S
O61 C10 1.325 . S
O62 Li0 1.961 . S
O62 Li2 1.956 . S
O62 Li3 1.970 1_545 S
O62 C32 1.325 . S
O63 Li1 1.961 . S
O63 Li2 1.970 . S
O63 Li3 1.956 1_545 S
O63 C38 1.325 1_545 S
H64 C6 0.929 . S
H65 C7 0.930 . S
H66 C8 0.930 . S
H67 C9 0.930 . S
H68 C11 0.916 1_565 S
H69 C13 0.929 . S
H70 C14 0.930 1_565 S
H71 C15 0.930 . S
H72 C18 0.930 . S
H73 C21 0.929 . S
H74 C26 0.929 . S
H75 C27 0.930 . S
H76 C34 0.929 . S
H77 C35 0.931 1_554 S
H78 C36 0.930 . S
H79 C37 0.930 . S
H80 C39 0.929 . S
H81 C40 0.930 . S
H82 C41 0.930 . S
H83 C42 0.930 . S
H84 C46 0.929 . S
H85 C48 0.930 . S
H86 C54 0.929 . S
H87 C55 0.930 . S
Li88 N105 1.990 . S
Li88 O148 1.956 . S
Li88 O149 1.970 . S
Li88 O150 1.961 . S
Li89 N113 1.990 . S
Li89 O148 1.970 1_455 S
Li89 O149 1.956 1_455 S
Li89 O151 1.961 1_455 S
Li90 N135 1.990 . S
Li90 O148 1.961 . S
Li90 O150 1.956 . S
Li90 O151 1.970 . S
Li91 N141 1.990 . S
Li91 O149 1.961 . S
Li91 O150 1.970 . S
Li91 O151 1.956 . S
C92 C94 1.348 1_655 S
C92 C95 1.356 1_554 S
C92 O148 1.325 . S
N93 C96 1.320 . S
N93 C97 1.272 1_455 S
C94 C92 1.348 1_455 S
C94 C96 1.353 1_554 S
C94 H152 0.929 . S
C95 C92 1.356 1_556 S
C95 C97 1.358 . S
C95 H153 0.940 . S
C96 N93 1.320 . S
C96 C94 1.353 1_556 S
C96 H154 0.930 . S
C97 N93 1.272 1_655 S
C97 C95 1.358 . S
C97 H155 0.930 . S
C98 C101 1.348 . S
C98 C102 1.356 . S
C98 O149 1.325 1_455 S
C99 N100 1.279 . S
C99 C102 1.358 . S
C99 H156 0.930 . S
N100 C99 1.279 . S
N100 C103 1.314 . S
C101 C98 1.348 . S
C101 C103 1.353 . S
C101 H157 0.929 . S
C102 C98 1.356 . S
C102 C99 1.358 . S
C102 H158 0.930 . S
C103 N100 1.314 . S
C103 C101 1.353 . S
C103 H159 0.930 . S
C104 N105 1.314 . S
C104 C109 1.353 . S
C104 H110 0.930 . S
N105 Li88 1.990 . S
N105 C104 1.314 . S
N105 C107 1.279 . S
C106 C107 1.358 . S
C106 C108 1.356 . S
C106 H160 0.930 . S
C107 N105 1.279 . S
C107 C106 1.358 . S
C107 H111 0.930 . S
C108 C106 1.356 . S
C108 C109 1.348 . S
C109 C104 1.353 . S
C109 C108 1.348 . S
C109 H161 0.929 . S
H110 C104 0.930 . S
H111 C107 0.930 . S
C112 N113 1.314 . S
C112 C114 1.353 . S
C112 H118 0.930 . S
N113 Li89 1.990 . S
N113 C112 1.314 . S
N113 C116 1.279 . S
C114 C112 1.353 . S
C114 C117 1.348 . S
C114 H162 0.929 . S
C115 C116 1.358 . S
C115 C117 1.356 . S
C115 H163 0.930 . S
C116 N113 1.279 . S
C116 C115 1.358 . S
C116 H119 0.930 . S
C117 C114 1.348 . S
C117 C115 1.356 . S
H118 C112 0.930 . S
H119 C116 0.930 . S
C120 C122 1.348 . S
C120 C123 1.356 . S
C120 O150 1.325 . S
N121 C124 1.314 . S
N121 C125 1.279 . S
C122 C120 1.348 . S
C122 C124 1.353 . S
C122 H164 0.929 . S
C123 C120 1.356 . S
C123 C125 1.358 . S
C123 H165 0.930 . S
C124 N121 1.314 . S
C124 C122 1.353 . S
C124 H166 0.930 . S
C125 N121 1.279 . S
C125 C123 1.358 . S
C125 H167 0.930 . S
C126 C127 1.348 . S
C126 C128 1.356 . S
C126 O151 1.325 . S
C127 C126 1.348 . S
C127 C129 1.353 . S
C127 H168 0.929 . S
C128 C126 1.356 . S
C128 C130 1.358 . S
C128 H169 0.930 1_655 S
C129 C127 1.353 . S
C129 N131 1.314 . S
C129 H170 0.930 . S
C130 C128 1.358 . S
C130 N131 1.279 . S
C130 H171 0.930 1_655 S
N131 C129 1.314 . S
N131 C130 1.279 . S
C132 C134 1.353 1_554 S
C132 N135 1.314 . S
C132 H138 0.930 . S
C133 N135 1.279 . S
C133 C136 1.358 . S
C133 H139 0.930 . S
C134 C132 1.353 1_556 S
C134 C137 1.348 . S
C134 H172 0.929 . S
N135 Li90 1.990 . S
N135 C132 1.314 . S
N135 C133 1.279 . S
C136 C133 1.358 . S
C136 C137 1.356 1_554 S
C136 H173 0.930 . S
C137 C134 1.348 . S
C137 C136 1.356 1_556 S
H138 C132 0.930 . S
H139 C133 0.930 . S
C140 N141 1.314 . S
C140 C142 1.353 . S
C140 H146 0.930 . S
N141 Li91 1.990 . S
N141 C140 1.314 . S
N141 C144 1.279 . S
C142 C140 1.353 . S
C142 C145 1.348 . S
C142 H174 0.929 . S
C143 C144 1.358 . S
C143 C145 1.356 . S
C143 H175 0.930 . S
C144 N141 1.279 . S
C144 C143 1.358 . S
C144 H147 0.930 . S
C145 C142 1.348 . S
C145 C143 1.356 . S
H146 C140 0.930 . S
H147 C144 0.930 . S
O148 Li88 1.956 . S
O148 Li89 1.970 1_655 S
O148 Li90 1.961 . S
O148 C92 1.325 . S
O149 Li88 1.970 . S
O149 Li89 1.956 1_655 S
O149 Li91 1.961 . S
O149 C98 1.325 1_655 S
O150 Li88 1.961 . S
O150 Li90 1.956 . S
O150 Li91 1.970 . S
O150 C120 1.325 . S
O151 Li89 1.961 1_655 S
O151 Li90 1.970 . S
O151 Li91 1.956 . S
O151 C126 1.325 . S
H152 C94 0.929 . S
H153 C95 0.940 . S
H154 C96 0.930 . S
H155 C97 0.930 . S
H156 C99 0.930 . S
H157 C101 0.929 . S
H158 C102 0.930 . S
H159 C103 0.930 . S
H160 C106 0.930 . S
H161 C109 0.929 . S
H162 C114 0.929 . S
H163 C115 0.930 . S
H164 C122 0.929 . S
H165 C123 0.930 . S
H166 C124 0.930 . S
H167 C125 0.930 . S
H168 C127 0.929 . S
H169 C128 0.930 1_455 S
H170 C129 0.930 . S
H171 C130 0.930 1_455 S
H172 C134 0.929 . S
H173 C136 0.930 . S
H174 C142 0.929 . S
H175 C143 0.930 . S
Li176 N193 1.990 . S
Li176 O236 1.956 . S
Li176 O237 1.970 . S
Li176 O238 1.961 . S
Li177 N201 1.990 . S
Li177 O236 1.970 . S
Li177 O237 1.956 . S
Li177 O239 1.961 . S
Li178 N223 1.990 . S
Li178 O236 1.961 . S
Li178 O238 1.956 . S
Li178 O239 1.970 . S
Li179 N229 1.990 . S
Li179 O237 1.961 . S
Li179 O238 1.970 . S
Li179 O239 1.956 . S
C180 C182 1.348 . S
C180 C183 1.356 . S
C180 O236 1.325 . S
N181 C184 1.314 . S
N181 C185 1.279 . S
C182 C180 1.348 . S
C182 C184 1.353 . S
C182 H240 0.929 . S
C183 C180 1.356 . S
C183 C185 1.358 . S
C183 H241 0.930 . S
C184 N181 1.314 . S
C184 C182 1.353 . S
C184 H242 0.930 . S
C185 N181 1.279 . S
C185 C183 1.358 . S
C185 H243 0.930 . S
C186 C189 1.348 . S
C186 C190 1.356 . S
C186 O237 1.325 . S
C187 N188 1.279 . S
C187 C190 1.358 . S
C187 H244 0.930 . S
N188 C187 1.279 . S
N188 C191 1.314 . S
C189 C186 1.348 . S
C189 C191 1.353 . S
C189 H245 0.929 . S
C190 C186 1.356 . S
C190 C187 1.358 . S
C190 H246 0.930 . S
C191 N188 1.314 . S
C191 C189 1.353 . S
C191 H247 0.930 . S
C192 N193 1.314 . S
C192 C197 1.353 . S
C192 H198 0.930 . S
N193 Li176 1.990 . S
N193 C192 1.314 . S
N193 C195 1.279 . S
C194 C195 1.358 . S
C194 C196 1.356 . S
C194 H248 0.930 . S
C195 N193 1.279 . S
C195 C194 1.358 . S
C195 H199 0.930 . S
C196 C194 1.356 . S
C196 C197 1.348 . S
C197 C192 1.353 . S
C197 C196 1.348 . S
C197 H249 0.929 . S
H198 C192 0.930 . S
H199 C195 0.930 . S
C200 N201 1.314 . S
C200 C202 1.353 . S
C200 H206 0.930 . S
N201 Li177 1.990 . S
N201 C200 1.314 . S
N201 C204 1.279 . S
C202 C200 1.353 . S
C202 C205 1.348 . S
C202 H250 0.929 . S
C203 C204 1.358 . S
C203 C205 1.356 . S
C203 H251 0.930 . S
C204 N201 1.279 . S
C204 C203 1.358 . S
C204 H207 0.930 . S
C205 C202 1.348 . S
C205 C203 1.356 . S
H206 C200 0.930 . S
H207 C204 0.930 . S
C208 C210 1.339 1_554 S
C208 C211 1.356 1_554 S
C208 O238 1.325 . S
N209 C212 1.314 . S
N209 C213 1.279 . S
C210 C208 1.339 1_556 S
C210 C212 1.369 . S
C210 H252 0.922 1_556 S
C211 C208 1.356 1_556 S
C211 C213 1.358 . S
C211 H253 0.930 1_556 S
C212 N209 1.314 . S
C212 C210 1.369 . S
C212 H254 0.930 . S
C213 N209 1.279 . S
C213 C211 1.358 . S
C213 H255 0.930 . S
C214 C215 1.348 . S
C214 C216 1.356 . S
C214 O239 1.325 . S
C215 C214 1.348 . S
C215 C217 1.353 . S
C215 H256 0.929 . S
C216 C214 1.356 . S
C216 C218 1.358 . S
C216 H257 0.930 . S
C217 C215 1.353 . S
C217 N219 1.314 . S
C217 H258 0.930 . S
C218 C216 1.358 . S
C218 N219 1.279 . S
C218 H259 0.930 . S
N219 C217 1.314 . S
N219 C218 1.279 . S
C220 C222 1.353 . S
C220 N223 1.314 . S
C220 H226 0.930 . S
C221 N223 1.279 . S
C221 C224 1.358 1_554 S
C221 H227 0.930 1_554 S
C222 C220 1.353 . S
C222 C225 1.302 1_554 S
C222 H260 0.929 . S
N223 Li178 1.990 . S
N223 C220 1.314 . S
N223 C221 1.279 . S
C224 C221 1.358 1_556 S
C224 C225 1.375 . S
C224 H261 0.930 . S
C225 C222 1.302 1_556 S
C225 C224 1.375 . S
H226 C220 0.930 . S
H227 C221 0.930 1_556 S
C228 N229 1.314 . S
C228 C230 1.353 . S
C228 H234 0.930 . S
N229 Li179 1.990 . S
N229 C228 1.314 . S
N229 C232 1.279 . S
C230 C228 1.353 . S
C230 C233 1.348 . S
C230 H262 0.929 . S
C231 C232 1.358 . S
C231 C233 1.356 . S
C231 H263 0.930 . S
C232 N229 1.279 . S
C232 C231 1.358 . S
C232 H235 0.930 . S
C233 C230 1.348 . S
C233 C231 1.356 . S
H234 C228 0.930 . S
H235 C232 0.930 . S
O236 Li176 1.956 . S
O236 Li177 1.970 . S
O236 Li178 1.961 . S
O236 C180 1.325 . S
O237 Li176 1.970 . S
O237 Li177 1.956 . S
O237 Li179 1.961 . S
O237 C186 1.325 . S
O238 Li176 1.961 . S
O238 Li178 1.956 . S
O238 Li179 1.970 . S
O238 C208 1.325 . S
O239 Li177 1.961 . S
O239 Li178 1.970 . S
O239 Li179 1.956 . S
O239 C214 1.325 . S
H240 C182 0.929 . S
H241 C183 0.930 . S
H242 C184 0.930 . S
H243 C185 0.930 . S
H244 C187 0.930 . S
H245 C189 0.929 . S
H246 C190 0.930 . S
H247 C191 0.930 . S
H248 C194 0.930 . S
H249 C197 0.929 . S
H250 C202 0.929 . S
H251 C203 0.930 . S
H252 C210 0.922 1_554 S
H253 C211 0.930 1_554 S
H254 C212 0.930 . S
H255 C213 0.930 . S
H256 C215 0.929 . S
H257 C216 0.930 . S
H258 C217 0.930 . S
H259 C218 0.930 . S
H260 C222 0.929 . S
H261 C224 0.930 . S
H262 C230 0.929 . S
H263 C231 0.930 . S
Li264 N281 1.990 . S
Li264 O324 1.956 . S
Li264 O325 1.970 . S
Li264 O326 1.961 . S
Li265 N289 1.990 . S
Li265 O324 1.970 1_545 S
Li265 O325 1.956 1_545 S
Li265 O327 1.961 1_545 S
Li266 N311 1.990 . S
Li266 O324 1.961 . S
Li266 O326 1.956 . S
Li266 O327 1.970 . S
Li267 N317 1.990 . S
Li267 O325 1.961 . S
Li267 O326 1.970 . S
Li267 O327 1.956 . S
C268 C270 1.348 . S
C268 C271 1.356 . S
C268 O324 1.325 1_545 S
N269 C272 1.314 . S
N269 C273 1.279 . S
C270 C268 1.348 . S
C270 C272 1.353 . S
C270 H328 0.929 . S
C271 C268 1.356 . S
C271 C273 1.358 . S
C271 H329 0.930 1_545 S
C272 N269 1.314 . S
C272 C270 1.353 . S
C272 H330 0.930 . S
C273 N269 1.279 . S
C273 C271 1.358 . S
C273 H331 0.930 . S
C274 C277 1.348 . S
C274 C278 1.356 1_556 S
C274 O325 1.325 . S
C275 N276 1.279 1_565 S
C275 C278 1.358 . S
C275 H332 0.930 . S
N276 C275 1.279 1_545 S
N276 C279 1.314 . S
C277 C274 1.348 . S
C277 C279 1.353 1_566 S
C277 H333 0.929 1_565 S
C278 C274 1.356 1_554 S
C278 C275 1.358 . S
C278 H334 0.930 1_554 S
C279 N276 1.314 . S
C279 C277 1.353 1_544 S
C279 H335 0.930 . S
C280 N281 1.314 . S
C280 C285 1.353 . S
C280 H286 0.930 . S
N281 Li264 1.990 . S
N281 C280 1.314 . S
N281 C283 1.279 . S
C282 C283 1.358 . S
C282 C284 1.356 . S
C282 H336 0.930 1_565 S
C283 N281 1.279 . S
C283 C282 1.358 . S
C283 H287 0.930 1_565 S
C284 C282 1.356 . S
C284 C285 1.348 . S
C285 C280 1.353 . S
C285 C284 1.348 . S
C285 H337 0.929 . S
H286 C280 0.930 . S
H287 C283 0.930 1_545 S
C288 N289 1.314 . S
C288 C290 1.353 . S
C288 H294 0.930 . S
N289 Li265 1.990 . S
N289 C288 1.314 . S
N289 C292 1.279 . S
C290 C288 1.353 . S
C290 C293 1.348 . S
C290 H338 0.929 . S
C291 C292 1.358 . S
C291 C293 1.356 . S
C291 H339 0.930 . S
C292 N289 1.279 . S
C292 C291 1.358 . S
C292 H295 0.930 . S
C293 C290 1.348 . S
C293 C291 1.356 . S
H294 C288 0.930 . S
H295 C292 0.930 . S
C296 C298 1.348 . S
C296 C299 1.356 . S
C296 O326 1.325 . S
N297 C300 1.314 . S
N297 C301 1.279 . S
C298 C296 1.348 . S
C298 C300 1.353 . S
C298 H340 0.929 . S
C299 C296 1.356 . S
C299 C301 1.358 . S
C299 H341 0.930 . S
C300 N297 1.314 . S
C300 C298 1.353 . S
C300 H342 0.930 . S
C301 N297 1.279 . S
C301 C299 1.358 . S
C301 H343 0.930 . S
C302 C303 1.348 . S
C302 C304 1.356 . S
C302 O327 1.325 . S
C303 C302 1.348 . S
C303 C305 1.353 . S
C303 H344 0.929 . S
C304 C302 1.356 . S
C304 C306 1.358 . S
C304 H345 0.930 . S
C305 C303 1.353 . S
C305 N307 1.314 . S
C305 H346 0.930 . S
C306 C304 1.358 . S
C306 N307 1.279 . S
C306 H347 0.930 . S
N307 C305 1.314 . S
N307 C306 1.279 . S
C308 C310 1.353 . S
C308 N311 1.314 . S
C308 H314 0.930 . S
C309 N311 1.279 . S
C309 C312 1.358 . S
C309 H315 0.930 . S
C310 C308 1.353 . S
C310 C313 1.348 . S
C310 H348 0.929 . S
N311 Li266 1.990 . S
N311 C308 1.314 . S
N311 C309 1.279 . S
C312 C309 1.358 . S
C312 C313 1.356 . S
C312 H349 0.930 . S
C313 C310 1.348 . S
C313 C312 1.356 . S
H314 C308 0.930 . S
H315 C309 0.930 . S
C316 N317 1.314 . S
C316 C318 1.353 1_556 S
C316 H322 0.930 . S
N317 Li267 1.990 . S
N317 C316 1.314 . S
N317 C320 1.279 . S
C318 C316 1.353 1_554 S
C318 C321 1.348 . S
C318 H350 0.929 . S
C319 C320 1.358 . S
C319 C321 1.356 1_556 S
C319 H351 0.930 . S
C320 N317 1.279 . S
C320 C319 1.358 . S
C320 H323 0.930 . S
C321 C318 1.348 . S
C321 C319 1.356 1_554 S
H322 C316 0.930 . S
H323 C320 0.930 . S
O324 Li264 1.956 . S
O324 Li265 1.970 1_565 S
O324 Li266 1.961 . S
O324 C268 1.325 1_565 S
O325 Li264 1.970 . S
O325 Li265 1.956 1_565 S
O325 Li267 1.961 . S
O325 C274 1.325 . S
O326 Li264 1.961 . S
O326 Li266 1.956 . S
O326 Li267 1.970 . S
O326 C296 1.325 . S
O327 Li265 1.961 1_565 S
O327 Li266 1.970 . S
O327 Li267 1.956 . S
O327 C302 1.325 . S
H328 C270 0.929 . S
H329 C271 0.930 1_565 S
H330 C272 0.930 . S
H331 C273 0.930 . S
H332 C275 0.930 . S
H333 C277 0.929 1_545 S
H334 C278 0.930 1_556 S
H335 C279 0.930 . S
H336 C282 0.930 1_545 S
H337 C285 0.929 . S
H338 C290 0.929 . S
H339 C291 0.930 . S
H340 C298 0.929 . S
H341 C299 0.930 . S
H342 C300 0.930 . S
H343 C301 0.930 . S
H344 C303 0.929 . S
H345 C304 0.930 . S
H346 C305 0.930 . S
H347 C306 0.930 . S
H348 C310 0.929 . S
H349 C312 0.930 . S
H350 C318 0.929 . S
H351 C319 0.930 . S
Li352 N369 1.990 . S
Li352 O412 1.956 . S
Li352 O413 1.970 . S
Li352 O414 1.959 1_455 S
Li353 N377 1.990 . S
Li353 O412 1.970 . S
Li353 O413 1.956 . S
Li353 O415 1.961 . S
Li354 N399 1.990 . S
Li354 O412 1.961 . S
Li354 O414 1.954 1_455 S
Li354 O415 1.970 . S
Li355 N405 1.990 . S
Li355 O413 1.961 1_655 S
Li355 O414 1.972 . S
Li355 O415 1.956 1_655 S
C356 C358 1.348 . S
C356 C359 1.356 . S
C356 O412 1.325 . S
N357 C360 1.314 . S
N357 C361 1.279 . S
C358 C356 1.348 . S
C358 C360 1.353 . S
C358 H416 0.929 . S
C359 C356 1.356 . S
C359 C361 1.358 . S
C359 H417 0.930 . S
C360 N357 1.314 . S
C360 C358 1.353 . S
C360 H418 0.930 . S
C361 N357 1.279 . S
C361 C359 1.358 . S
C361 H419 0.930 . S
C362 C365 1.348 . S
C362 C366 1.356 . S
C362 O413 1.325 . S
C363 N364 1.279 . S
C363 C366 1.358 . S
C363 H420 0.930 . S
N364 C363 1.279 . S
N364 C367 1.314 . S
C365 C362 1.348 . S
C365 C367 1.353 . S
C365 H421 0.929 . S
C366 C362 1.356 . S
C366 C363 1.358 . S
C366 H422 0.930 . S
C367 N364 1.314 . S
C367 C365 1.353 . S
C367 H423 0.930 . S
C368 N369 1.314 . S
C368 C373 1.353 . S
C368 H374 0.930 . S
N369 Li352 1.990 . S
N369 C368 1.314 . S
N369 C371 1.279 . S
C370 C371 1.358 . S
C370 C372 1.356 . S
C370 H424 0.930 . S
C371 N369 1.279 . S
C371 C370 1.358 . S
C371 H375 0.930 . S
C372 C370 1.356 . S
C372 C373 1.348 . S
C373 C368 1.353 . S
C373 C372 1.348 . S
C373 H425 0.929 . S
H374 C368 0.930 . S
H375 C371 0.930 . S
C376 N377 1.314 . S
C376 C378 1.353 1_556 S
C376 H382 0.930 . S
N377 Li353 1.990 . S
N377 C376 1.314 . S
N377 C380 1.279 . S
C378 C376 1.353 1_554 S
C378 C381 1.348 . S
C378 H426 0.929 . S
C379 C380 1.358 . S
C379 C381 1.356 1_556 S
C379 H427 0.930 . S
C380 N377 1.279 . S
C380 C379 1.358 . S
C380 H383 0.930 . S
C381 C378 1.348 . S
C381 C379 1.356 1_554 S
H382 C376 0.930 . S
H383 C380 0.930 . S
C384 C386 1.348 . S
C384 C387 1.356 . S
C384 O414 1.326 . S
N385 C388 1.314 . S
N385 C389 1.279 . S
C386 C384 1.348 . S
C386 C388 1.353 . S
C386 H428 0.929 . S
C387 C384 1.356 . S
C387 C389 1.358 . S
C387 H429 0.930 1_655 S
C388 N385 1.314 . S
C388 C386 1.353 . S
C388 H430 0.930 . S
C389 N385 1.279 . S
C389 C387 1.358 . S
C389 H431 0.930 . S
C390 C391 1.347 1_455 S
C390 C392 1.356 1_556 S
C390 O415 1.325 . S
C391 C390 1.347 1_655 S
C391 C393 1.353 1_556 S
C391 H432 0.930 . S
C392 C390 1.356 1_554 S
C392 C394 1.358 . S
C392 H433 0.928 1_554 S
C393 C391 1.353 1_554 S
C393 N395 1.314 . S
C393 H434 0.930 . S
C394 C392 1.358 . S
C394 N395 1.279 1_455 S
C394 H435 0.930 . S
N395 C393 1.314 . S
N395 C394 1.279 1_655 S
C396 C398 1.353 . S
C396 N399 1.314 . S
C396 H402 0.930 . S
C397 N399 1.279 . S
C397 C400 1.366 1_455 S
C397 H403 0.930 1_455 S
C398 C396 1.353 . S
C398 C401 1.348 . S
C398 H436 0.929 . S
N399 Li354 1.990 . S
N399 C396 1.314 . S
N399 C397 1.279 . S
C400 C397 1.366 1_655 S
C400 C401 1.341 1_655 S
C400 H437 0.937 . S
C401 C398 1.348 . S
C401 C400 1.341 1_455 S
H402 C396 0.930 . S
H403 C397 0.930 1_655 S
C404 N405 1.314 . S
C404 C406 1.353 . S
C404 H410 0.930 . S
N405 Li355 1.990 . S
N405 C404 1.314 . S
N405 C408 1.279 . S
C406 C404 1.353 . S
C406 C409 1.348 . S
C406 H438 0.929 . S
C407 C408 1.358 . S
C407 C409 1.356 . S
C407 H439 0.930 . S
C408 N405 1.279 . S
C408 C407 1.358 . S
C408 H411 0.930 . S
C409 C406 1.348 . S
C409 C407 1.356 . S
H410 C404 0.930 . S
H411 C408 0.930 . S
O412 Li352 1.956 . S
O412 Li353 1.970 . S
O412 Li354 1.961 . S
O412 C356 1.325 . S
O413 Li352 1.970 . S
O413 Li353 1.956 . S
O413 Li355 1.961 1_455 S
O413 C362 1.325 . S
O414 Li352 1.959 1_655 S
O414 Li354 1.954 1_655 S
O414 Li355 1.972 . S
O414 C384 1.326 . S
O415 Li353 1.961 . S
O415 Li354 1.970 . S
O415 Li355 1.956 1_455 S
O415 C390 1.325 . S
H416 C358 0.929 . S
H417 C359 0.930 . S
H418 C360 0.930 . S
H419 C361 0.930 . S
H420 C363 0.930 . S
H421 C365 0.929 . S
H422 C366 0.930 . S
H423 C367 0.930 . S
H424 C370 0.930 . S
H425 C373 0.929 . S
H426 C378 0.929 . S
H427 C379 0.930 . S
H428 C386 0.929 . S
H429 C387 0.930 1_455 S
H430 C388 0.930 . S
H431 C389 0.930 . S
H432 C391 0.930 . S
H433 C392 0.928 1_556 S
H434 C393 0.930 . S
H435 C394 0.930 . S
H436 C398 0.929 . S
H437 C400 0.937 . S
H438 C406 0.929 . S
H439 C407 0.930 . S
Li440 N457 1.990 . S
Li440 O500 1.956 . S
Li440 O501 1.970 . S
Li440 O502 1.961 . S
Li441 N465 1.990 . S
Li441 O500 1.970 . S
Li441 O501 1.956 . S
Li441 O503 1.961 . S
Li442 N487 1.990 . S
Li442 O500 1.961 . S
Li442 O502 1.956 . S
Li442 O503 1.970 . S
Li443 N493 1.990 . S
Li443 O501 1.961 . S
Li443 O502 1.970 . S
Li443 O503 1.956 . S
C444 C446 1.348 . S
C444 C447 1.356 1_556 S
C444 O500 1.325 . S
N445 C448 1.314 . S
N445 C449 1.279 . S
C446 C444 1.348 . S
C446 C448 1.353 1_556 S
C446 H504 0.929 . S
C447 C444 1.356 1_554 S
C447 C449 1.358 . S
C447 H505 0.930 1_554 S
C448 N445 1.314 . S
C448 C446 1.353 1_554 S
C448 H506 0.930 . S
C449 N445 1.279 . S
C449 C447 1.358 . S
C449 H507 0.930 . S
C450 C453 1.348 . S
C450 C454 1.356 . S
C450 O501 1.325 . S
C451 N452 1.279 . S
C451 C454 1.358 . S
C451 H508 0.930 . S
N452 C451 1.279 . S
N452 C455 1.314 . S
C453 C450 1.348 . S
C453 C455 1.353 . S
C453 H509 0.929 . S
C454 C450 1.356 . S
C454 C451 1.358 . S
C454 H510 0.930 . S
C455 N452 1.314 . S
C455 C453 1.353 . S
C455 H511 0.930 . S
C456 N457 1.314 . S
C456 C461 1.353 . S
C456 H462 0.930 . S
N457 Li440 1.990 . S
N457 C456 1.314 . S
N457 C459 1.279 . S
C458 C459 1.358 1_554 S
C458 C460 1.353 1_554 S
C458 H512 0.930 . S
C459 N457 1.279 . S
C459 C458 1.358 1_556 S
C459 H463 0.930 1_556 S
C460 C458 1.353 1_556 S
C460 C461 1.356 . S
C461 C456 1.353 . S
C461 C460 1.356 . S
C461 H513 0.929 . S
H462 C456 0.930 . S
H463 C459 0.930 1_554 S
C464 N465 1.314 . S
C464 C466 1.353 . S
C464 H470 0.930 . S
N465 Li441 1.990 . S
N465 C464 1.314 . S
N465 C468 1.279 . S
C466 C464 1.353 . S
C466 C469 1.348 . S
C466 H514 0.929 . S
C467 C468 1.358 . S
C467 C469 1.356 . S
C467 H515 0.930 . S
C468 N465 1.279 . S
C468 C467 1.358 . S
C468 H471 0.930 . S
C469 C466 1.348 . S
C469 C467 1.356 . S
H470 C464 0.930 . S
H471 C468 0.930 . S
C472 C474 1.348 . S
C472 C475 1.356 . S
C472 O502 1.325 . S
N473 C476 1.314 . S
N473 C477 1.279 . S
C474 C472 1.348 . S
C474 C476 1.353 . S
C474 H516 0.929 . S
C475 C472 1.356 . S
C475 C477 1.358 . S
C475 H517 0.930 . S
C476 N473 1.314 . S
C476 C474 1.353 . S
C476 H518 0.930 . S
C477 N473 1.279 . S
C477 C475 1.358 . S
C477 H519 0.930 . S
C478 C479 1.348 . S
C478 C480 1.356 . S
C478 O503 1.325 . S
C479 C478 1.348 . S
C479 C481 1.353 . S
C479 H520 0.929 . S
C480 C478 1.356 . S
C480 C482 1.358 . S
C480 H521 0.930 . S
C481 C479 1.353 . S
C481 N483 1.314 . S
C481 H522 0.930 . S
C482 C480 1.358 . S
C482 N483 1.279 . S
C482 H523 0.930 . S
N483 C481 1.314 . S
N483 C482 1.279 . S
C484 C486 1.353 . S
C484 N487 1.314 . S
C484 H490 0.930 . S
C485 N487 1.279 . S
C485 C488 1.358 . S
C485 H491 0.930 . S
C486 C484 1.353 . S
C486 C489 1.348 . S
C486 H524 0.929 . S
N487 Li442 1.990 . S
N487 C484 1.314 . S
N487 C485 1.279 . S
C488 C485 1.358 . S
C488 C489 1.356 . S
C488 H525 0.930 . S
C489 C486 1.348 . S
C489 C488 1.356 . S
H490 C484 0.930 . S
H491 C485 0.930 . S
C492 N493 1.314 . S
C492 C494 1.353 . S
C492 H498 0.930 . S
N493 Li443 1.990 . S
N493 C492 1.314 . S
N493 C496 1.279 . S
C494 C492 1.353 . S
C494 C497 1.348 . S
C494 H526 0.929 . S
C495 C496 1.358 . S
C495 C497 1.356 . S
C495 H527 0.930 . S
C496 N493 1.279 . S
C496 C495 1.358 . S
C496 H499 0.930 . S
C497 C494 1.348 . S
C497 C495 1.356 . S
H498 C492 0.930 . S
H499 C496 0.930 . S
O500 Li440 1.956 . S
O500 Li441 1.970 . S
O500 Li442 1.961 . S
O500 C444 1.325 . S
O501 Li440 1.970 . S
O501 Li441 1.956 . S
O501 Li443 1.961 . S
O501 C450 1.325 . S
O502 Li440 1.961 . S
O502 Li442 1.956 . S
O502 Li443 1.970 . S
O502 C472 1.325 . S
O503 Li441 1.961 . S
O503 Li442 1.970 . S
O503 Li443 1.956 . S
O503 C478 1.325 . S
H504 C446 0.929 . S
H505 C447 0.930 1_556 S
H506 C448 0.930 . S
H507 C449 0.930 . S
H508 C451 0.930 . S
H509 C453 0.929 . S
H510 C454 0.930 . S
H511 C455 0.930 . S
H512 C458 0.930 . S
H513 C461 0.929 . S
H514 C466 0.929 . S
H515 C467 0.930 . S
H516 C474 0.929 . S
H517 C475 0.930 . S
H518 C476 0.930 . S
H519 C477 0.930 . S
H520 C479 0.929 . S
H521 C480 0.930 . S
H522 C481 0.930 . S
H523 C482 0.930 . S
H524 C486 0.929 . S
H525 C488 0.930 . S
H526 C494 0.929 . S
H527 C495 0.930 . S
Li528 N545 1.981 . S
Li528 O588 1.974 . S
Li528 O589 1.957 1_455 S
Li528 O590 1.971 1_455 S
Li529 N553 1.990 . S
Li529 O588 1.970 1_655 S
Li529 O589 1.956 . S
Li529 O591 1.961 1_655 S
Li530 N575 1.990 . S
Li530 O588 1.961 . S
Li530 O590 1.956 1_455 S
Li530 O591 1.970 . S
Li531 N581 1.990 . S
Li531 O589 1.961 . S
Li531 O590 1.970 . S
Li531 O591 1.956 1_655 S
C532 C534 1.348 . S
C532 C535 1.356 . S
C532 O588 1.325 . S
N533 C536 1.314 . S
N533 C537 1.279 . S
C534 C532 1.348 . S
C534 C536 1.353 . S
C534 H592 0.929 . S
C535 C532 1.356 . S
C535 C537 1.358 . S
C535 H593 0.930 . S
C536 N533 1.314 . S
C536 C534 1.353 . S
C536 H594 0.930 . S
C537 N533 1.279 . S
C537 C535 1.358 . S
C537 H595 0.930 . S
C538 C541 1.348 . S
C538 C542 1.356 . S
C538 O589 1.325 . S
C539 N540 1.279 . S
C539 C542 1.358 . S
C539 H596 0.930 . S
N540 C539 1.279 . S
N540 C543 1.314 . S
C541 C538 1.348 . S
C541 C543 1.353 . S
C541 H597 0.929 . S
C542 C538 1.356 . S
C542 C539 1.358 . S
C542 H598 0.930 . S
C543 N540 1.314 . S
C543 C541 1.353 . S
C543 H599 0.930 . S
C544 N545 1.314 1_655 S
C544 C549 1.353 . S
C544 H550 0.930 . S
N545 Li528 1.981 . S
N545 C544 1.314 1_455 S
N545 C547 1.279 . S
C546 C547 1.358 . S
C546 C548 1.356 1_455 S
C546 H600 0.930 . S
C547 N545 1.279 . S
C547 C546 1.358 . S
C547 H551 0.930 . S
C548 C546 1.356 1_655 S
C548 C549 1.348 . S
C549 C544 1.353 . S
C549 C548 1.348 . S
C549 H601 0.929 . S
H550 C544 0.930 . S
H551 C547 0.930 . S
C552 N553 1.314 1_455 S
C552 C554 1.353 . S
C552 H558 0.930 . S
N553 Li529 1.990 . S
N553 C552 1.314 1_655 S
N553 C556 1.279 . S
C554 C552 1.353 . S
C554 C557 1.348 . S
C554 H602 0.929 . S
C555 C556 1.358 . S
C555 C557 1.356 1_655 S
C555 H603 0.930 . S
C556 N553 1.279 . S
C556 C555 1.358 . S
C556 H559 0.930 . S
C557 C554 1.348 . S
C557 C555 1.356 1_455 S
H558 C552 0.930 . S
H559 C556 0.930 . S
C560 C562 1.349 . S
C560 C563 1.349 1_655 S
C560 O590 1.328 . S
N561 C564 1.314 1_455 S
N561 C565 1.279 . S
C562 C560 1.349 . S
C562 C564 1.353 . S
C562 H604 0.929 . S
C563 C560 1.349 1_455 S
C563 C565 1.358 . S
C563 H605 0.930 . S
C564 N561 1.314 1_655 S
C564 C562 1.353 . S
C564 H606 0.930 . S
C565 N561 1.279 . S
C565 C563 1.358 . S
C565 H607 0.930 . S
C566 C567 1.348 . S
C566 C568 1.356 1_455 S
C566 O591 1.325 . S
C567 C566 1.348 . S
C567 C569 1.353 . S
C567 H608 0.929 . S
C568 C566 1.356 1_655 S
C568 C570 1.358 . S
C568 H609 0.930 . S
C569 C567 1.353 . S
C569 N571 1.308 1_455 S
C569 H610 0.930 . S
C570 C568 1.358 . S
C570 N571 1.292 . S
C570 H611 0.930 . S
N571 C569 1.308 1_655 S
N571 C570 1.292 . S
C572 C574 1.353 . S
C572 N575 1.314 . S
C572 H578 0.930 . S
C573 N575 1.279 . S
C573 C576 1.358 . S
C573 H579 0.930 . S
C574 C572 1.353 . S
C574 C577 1.348 . S
C574 H612 0.929 . S
N575 Li530 1.990 . S
N575 C572 1.314 . S
N575 C573 1.279 . S
C576 C573 1.358 . S
C576 C577 1.356 . S
C576 H613 0.930 . S
C577 C574 1.348 . S
C577 C576 1.356 . S
H578 C572 0.930 . S
H579 C573 0.930 . S
C580 N581 1.314 . S
C580 C582 1.353 . S
C580 H586 0.930 . S
N581 Li531 1.990 . S
N581 C580 1.314 . S
N581 C584 1.279 . S
C582 C580 1.353 . S
C582 C585 1.348 . S
C582 H614 0.929 . S
C583 C584 1.358 . S
C583 C585 1.356 . S
C583 H615 0.930 . S
C584 N581 1.279 . S
C584 C583 1.358 . S
C584 H587 0.930 . S
C585 C582 1.348 . S
C585 C583 1.356 . S
H586 C580 0.930 . S
H587 C584 0.930 . S
O588 Li528 1.974 . S
O588 Li529 1.970 1_455 S
O588 Li530 1.961 . S
O588 C532 1.325 . S
O589 Li528 1.957 1_655 S
O589 Li529 1.956 . S
O589 Li531 1.961 . S
O589 C538 1.325 . S
O590 Li528 1.971 1_655 S
O590 Li530 1.956 1_655 S
O590 Li531 1.970 . S
O590 C560 1.328 . S
O591 Li529 1.961 1_455 S
O591 Li530 1.970 . S
O591 Li531 1.956 1_455 S
O591 C566 1.325 . S
H592 C534 0.929 . S
H593 C535 0.930 . S
H594 C536 0.930 . S
H595 C537 0.930 . S
H596 C539 0.930 . S
H597 C541 0.929 . S
H598 C542 0.930 . S
H599 C543 0.930 . S
H600 C546 0.930 . S
H601 C549 0.929 . S
H602 C554 0.929 . S
H603 C555 0.930 . S
H604 C562 0.929 . S
H605 C563 0.930 . S
H606 C564 0.930 . S
H607 C565 0.930 . S
H608 C567 0.929 . S
H609 C568 0.930 . S
H610 C569 0.930 . S
H611 C570 0.930 . S
H612 C574 0.929 . S
H613 C576 0.930 . S
H614 C582 0.929 . S
H615 C583 0.930 . S
Li616 N633 1.990 . S
Li616 O676 1.956 . S
Li616 O677 1.970 . S
Li616 O678 1.961 . S
Li617 N641 1.990 . S
Li617 O676 1.970 . S
Li617 O677 1.956 . S
Li617 O679 1.961 . S
Li618 N663 1.990 . S
Li618 O676 1.961 . S
Li618 O678 1.956 . S
Li618 O679 1.970 . S
Li619 N669 1.990 . S
Li619 O677 1.961 . S
Li619 O678 1.970 . S
Li619 O679 1.956 . S
C620 C622 1.348 . S
C620 C623 1.356 . S
C620 O676 1.325 . S
N621 C624 1.314 . S
N621 C625 1.279 . S
C622 C620 1.348 . S
C622 C624 1.353 . S
C622 H680 0.929 . S
C623 C620 1.356 . S
C623 C625 1.358 . S
C623 H681 0.930 . S
C624 N621 1.314 . S
C624 C622 1.353 . S
C624 H682 0.930 . S
C625 N621 1.279 . S
C625 C623 1.358 . S
C625 H683 0.930 . S
C626 C629 1.348 . S
C626 C630 1.356 . S
C626 O677 1.325 . S
C627 N628 1.279 . S
C627 C630 1.358 . S
C627 H684 0.930 . S
N628 C627 1.279 . S
N628 C631 1.314 . S
C629 C626 1.348 . S
C629 C631 1.353 . S
C629 H685 0.929 . S
C630 C626 1.356 . S
C630 C627 1.358 . S
C630 H686 0.930 . S
C631 N628 1.314 . S
C631 C629 1.353 . S
C631 H687 0.930 . S
C632 N633 1.314 . S
C632 C637 1.353 . S
C632 H638 0.930 . S
N633 Li616 1.990 . S
N633 C632 1.314 . S
N633 C635 1.279 . S
C634 C635 1.358 . S
C634 C636 1.356 . S
C634 H688 0.930 . S
C635 N633 1.279 . S
C635 C634 1.358 . S
C635 H639 0.930 . S
C636 C634 1.356 . S
C636 C637 1.348 . S
C637 C632 1.353 . S
C637 C636 1.348 . S
C637 H689 0.929 . S
H638 C632 0.930 . S
H639 C635 0.930 . S
C640 N641 1.314 . S
C640 C642 1.353 . S
C640 H646 0.930 . S
N641 Li617 1.990 . S
N641 C640 1.314 . S
N641 C644 1.279 . S
C642 C640 1.353 . S
C642 C645 1.348 . S
C642 H690 0.929 . S
C643 C644 1.358 . S
C643 C645 1.356 . S
C643 H691 0.930 . S
C644 N641 1.279 . S
C644 C643 1.358 . S
C644 H647 0.930 . S
C645 C642 1.348 . S
C645 C643 1.356 . S
H646 C640 0.930 . S
H647 C644 0.930 . S
C648 C650 1.348 . S
C648 C651 1.356 . S
C648 O678 1.325 . S
N649 C652 1.314 . S
N649 C653 1.279 . S
C650 C648 1.348 . S
C650 C652 1.353 . S
C650 H692 0.929 . S
C651 C648 1.356 . S
C651 C653 1.358 . S
C651 H693 0.930 . S
C652 N649 1.314 . S
C652 C650 1.353 . S
C652 H694 0.930 . S
C653 N649 1.279 . S
C653 C651 1.358 . S
C653 H695 0.930 . S
C654 C655 1.348 . S
C654 C656 1.356 . S
C654 O679 1.325 . S
C655 C654 1.348 . S
C655 C657 1.353 . S
C655 H696 0.929 . S
C656 C654 1.356 . S
C656 C658 1.358 . S
C656 H697 0.930 . S
C657 C655 1.353 . S
C657 N659 1.314 . S
C657 H698 0.930 . S
C658 C656 1.358 . S
C658 N659 1.279 . S
C658 H699 0.930 . S
N659 C657 1.314 . S
N659 C658 1.279 . S
C660 C662 1.353 . S
C660 N663 1.314 . S
C660 H666 0.930 . S
C661 N663 1.279 . S
C661 C664 1.358 . S
C661 H667 0.930 . S
C662 C660 1.353 . S
C662 C665 1.348 . S
C662 H700 0.929 . S
N663 Li618 1.990 . S
N663 C660 1.314 . S
N663 C661 1.279 . S
C664 C661 1.358 . S
C664 C665 1.356 . S
C664 H701 0.930 . S
C665 C662 1.348 . S
C665 C664 1.356 . S
H666 C660 0.930 . S
H667 C661 0.930 . S
C668 N669 1.314 . S
C668 C670 1.353 . S
C668 H674 0.930 . S
N669 Li619 1.990 . S
N669 C668 1.314 . S
N669 C672 1.279 . S
C670 C668 1.353 . S
C670 C673 1.348 . S
C670 H702 0.929 . S
C671 C672 1.358 . S
C671 C673 1.356 . S
C671 H703 0.930 . S
C672 N669 1.279 . S
C672 C671 1.358 . S
C672 H675 0.930 . S
C673 C670 1.348 . S
C673 C671 1.356 . S
H674 C668 0.930 . S
H675 C672 0.930 . S
O676 Li616 1.956 . S
O676 Li617 1.970 . S
O676 Li618 1.961 . S
O676 C620 1.325 . S
O677 Li616 1.970 . S
O677 Li617 1.956 . S
O677 Li619 1.961 . S
O677 C626 1.325 . S
O678 Li616 1.961 . S
O678 Li618 1.956 . S
O678 Li619 1.970 . S
O678 C648 1.325 . S
O679 Li617 1.961 . S
O679 Li618 1.970 . S
O679 Li619 1.956 . S
O679 C654 1.325 . S
H680 C622 0.929 . S
H681 C623 0.930 . S
H682 C624 0.930 . S
H683 C625 0.930 . S
H684 C627 0.930 . S
H685 C629 0.929 . S
H686 C630 0.930 . S
H687 C631 0.930 . S
H688 C634 0.930 . S
H689 C637 0.929 . S
H690 C642 0.929 . S
H691 C643 0.930 . S
H692 C650 0.929 . S
H693 C651 0.930 . S
H694 C652 0.930 . S
H695 C653 0.930 . S
H696 C655 0.929 . S
H697 C656 0.930 . S
H698 C657 0.930 . S
H699 C658 0.930 . S
H700 C662 0.929 . S
H701 C664 0.930 . S
H702 C670 0.929 . S
H703 C671 0.930 . S
Li704 N721 1.990 . S
Li704 O764 1.956 . S
Li704 O765 1.957 1_545 S
Li704 O766 1.959 . S
Li705 N729 1.990 . S
Li705 O764 1.970 1_565 S
Li705 O765 1.971 . S
Li705 O767 1.961 . S
Li706 N751 1.990 . S
Li706 O764 1.961 . S
Li706 O766 1.957 . S
Li706 O767 1.970 1_545 S
Li707 N757 1.990 . S
Li707 O765 1.984 . S
Li707 O766 1.972 1_565 S
Li707 O767 1.956 . S
C708 C710 1.348 . S
C708 C711 1.356 . S
C708 O764 1.325 . S
N709 C712 1.314 . S
N709 C713 1.279 . S
C710 C708 1.348 . S
C710 C712 1.353 . S
C710 H768 0.929 . S
C711 C708 1.356 . S
C711 C713 1.358 . S
C711 H769 0.930 . S
C712 N709 1.314 . S
C712 C710 1.353 . S
C712 H770 0.930 . S
C713 N709 1.279 . S
C713 C711 1.358 . S
C713 H771 0.930 . S
C714 C717 1.348 1_565 S
C714 C718 1.356 . S
C714 O765 1.314 . S
C715 N716 1.279 . S
C715 C718 1.358 . S
C715 H772 0.930 . S
N716 C715 1.279 . S
N716 C719 1.314 1_565 S
C717 C714 1.348 1_545 S
C717 C719 1.353 . S
C717 H773 0.929 . S
C718 C714 1.356 . S
C718 C715 1.358 . S
C718 H774 0.930 . S
C719 N716 1.314 1_545 S
C719 C717 1.353 . S
C719 H775 0.930 . S
C720 N721 1.314 . S
C720 C725 1.353 . S
C720 H726 0.930 . S
N721 Li704 1.990 . S
N721 C720 1.314 . S
N721 C723 1.279 . S
C722 C723 1.358 . S
C722 C724 1.356 . S
C722 H776 0.930 . S
C723 N721 1.279 . S
C723 C722 1.358 . S
C723 H727 0.930 . S
C724 C722 1.356 . S
C724 C725 1.348 . S
C725 C720 1.353 . S
C725 C724 1.348 . S
C725 H777 0.929 . S
H726 C720 0.930 . S
H727 C723 0.930 . S
C728 N729 1.314 . S
C728 C730 1.353 . S
C728 H734 0.930 . S
N729 Li705 1.990 . S
N729 C728 1.314 . S
N729 C732 1.279 1_565 S
C730 C728 1.353 . S
C730 C733 1.348 . S
C730 H778 0.929 . S
C731 C732 1.358 . S
C731 C733 1.356 1_545 S
C731 H779 0.930 . S
C732 N729 1.279 1_545 S
C732 C731 1.358 . S
C732 H735 0.930 . S
C733 C730 1.348 . S
C733 C731 1.356 1_565 S
H734 C728 0.930 . S
H735 C732 0.930 . S
C736 C738 1.325 1_545 S
C736 C739 1.383 . S
C736 O766 1.320 . S
N737 C740 1.314 1_545 S
N737 C741 1.279 . S
C738 C736 1.325 1_565 S
C738 C740 1.353 . S
C738 H780 0.929 . S
C739 C736 1.383 . S
C739 C741 1.358 . S
C739 H781 0.930 . S
C740 N737 1.314 1_565 S
C740 C738 1.353 . S
C740 H782 0.930 . S
C741 N737 1.279 . S
C741 C739 1.358 . S
C741 H783 0.930 . S
C742 C743 1.348 . S
C742 C744 1.356 . S
C742 O767 1.325 . S
C743 C742 1.348 . S
C743 C745 1.353 . S
C743 H784 0.929 . S
C744 C742 1.356 . S
C744 C746 1.358 . S
C744 H785 0.930 . S
C745 C743 1.353 . S
C745 N747 1.314 . S
C745 H786 0.930 . S
C746 C744 1.358 . S
C746 N747 1.279 . S
C746 H787 0.930 . S
N747 C745 1.314 . S
N747 C746 1.279 . S
C748 C750 1.353 . S
C748 N751 1.314 . S
C748 H754 0.930 . S
C749 N751 1.279 1_565 S
C749 C752 1.358 . S
C749 H755 0.930 . S
C750 C748 1.353 . S
C750 C753 1.348 . S
C750 H788 0.929 . S
N751 Li706 1.990 . S
N751 C748 1.314 . S
N751 C749 1.279 1_545 S
C752 C749 1.358 . S
C752 C753 1.356 1_565 S
C752 H789 0.930 . S
C753 C750 1.348 . S
C753 C752 1.356 1_545 S
H754 C748 0.930 . S
H755 C749 0.930 . S
C756 N757 1.314 . S
C756 C758 1.353 . S
C756 H762 0.930 . S
N757 Li707 1.990 . S
N757 C756 1.314 . S
N757 C760 1.279 . S
C758 C756 1.353 . S
C758 C761 1.348 . S
C758 H790 0.929 . S
C759 C760 1.358 . S
C759 C761 1.356 . S
C759 H791 0.930 . S
C760 N757 1.279 . S
C760 C759 1.358 . S
C760 H763 0.930 . S
C761 C758 1.348 . S
C761 C759 1.356 . S
H762 C756 0.930 . S
H763 C760 0.930 . S
O764 Li704 1.956 . S
O764 Li705 1.970 1_545 S
O764 Li706 1.961 . S
O764 C708 1.325 . S
O765 Li704 1.957 1_565 S
O765 Li705 1.971 . S
O765 Li707 1.984 . S
O765 C714 1.314 . S
O766 Li704 1.959 . S
O766 Li706 1.957 . S
O766 Li707 1.972 1_545 S
O766 C736 1.320 . S
O767 Li705 1.961 . S
O767 Li706 1.970 1_565 S
O767 Li707 1.956 . S
O767 C742 1.325 . S
H768 C710 0.929 . S
H769 C711 0.930 . S
H770 C712 0.930 . S
H771 C713 0.930 . S
H772 C715 0.930 . S
H773 C717 0.929 . S
H774 C718 0.930 . S
H775 C719 0.930 . S
H776 C722 0.930 . S
H777 C725 0.929 . S
H778 C730 0.929 . S
H779 C731 0.930 . S
H780 C738 0.929 . S
H781 C739 0.930 . S
H782 C740 0.930 . S
H783 C741 0.930 . S
H784 C743 0.929 . S
H785 C744 0.930 . S
H786 C745 0.930 . S
H787 C746 0.930 . S
H788 C750 0.929 . S
H789 C752 0.930 . S
H790 C758 0.929 . S
H791 C759 0.930 . S
Li792 N809 1.990 . S
Li792 O852 1.956 . S
Li792 O853 1.970 . S
Li792 O854 1.961 . S
Li793 N817 1.990 . S
Li793 O852 1.970 . S
Li793 O853 1.956 . S
Li793 O855 1.961 . S
Li794 N839 1.990 . S
Li794 O852 1.961 . S
Li794 O854 1.956 . S
Li794 O855 1.970 . S
Li795 N845 1.990 . S
Li795 O853 1.961 . S
Li795 O854 1.970 . S
Li795 O855 1.956 . S
C796 C798 1.348 . S
C796 C799 1.356 . S
C796 O852 1.325 . S
N797 C800 1.314 . S
N797 C801 1.279 . S
C798 C796 1.348 . S
C798 C800 1.353 . S
C798 H856 0.929 . S
C799 C796 1.356 . S
C799 C801 1.358 . S
C799 H857 0.930 . S
C800 N797 1.314 . S
C800 C798 1.353 . S
C800 H858 0.930 . S
C801 N797 1.279 . S
C801 C799 1.358 . S
C801 H859 0.930 . S
C802 C805 1.348 . S
C802 C806 1.356 . S
C802 O853 1.325 . S
C803 N804 1.279 . S
C803 C806 1.358 . S
C803 H860 0.930 . S
N804 C803 1.279 . S
N804 C807 1.314 . S
C805 C802 1.348 . S
C805 C807 1.353 . S
C805 H861 0.929 . S
C806 C802 1.356 . S
C806 C803 1.358 . S
C806 H862 0.930 . S
C807 N804 1.314 . S
C807 C805 1.353 . S
C807 H863 0.930 . S
C808 N809 1.314 . S
C808 C813 1.353 . S
C808 H814 0.930 . S
N809 Li792 1.990 . S
N809 C808 1.314 . S
N809 C811 1.279 . S
C810 C811 1.358 . S
C810 C812 1.356 . S
C810 H864 0.930 . S
C811 N809 1.279 . S
C811 C810 1.358 . S
C811 H815 0.930 . S
C812 C810 1.356 . S
C812 C813 1.348 . S
C813 C808 1.353 . S
C813 C812 1.348 . S
C813 H865 0.929 . S
H814 C808 0.930 . S
H815 C811 0.930 . S
C816 N817 1.314 . S
C816 C818 1.353 . S
C816 H822 0.930 . S
N817 Li793 1.990 . S
N817 C816 1.314 . S
N817 C820 1.279 . S
C818 C816 1.353 . S
C818 C821 1.348 . S
C818 H866 0.929 . S
C819 C820 1.358 . S
C819 C821 1.356 . S
C819 H867 0.930 . S
C820 N817 1.279 . S
C820 C819 1.358 . S
C820 H823 0.930 . S
C821 C818 1.348 . S
C821 C819 1.356 . S
H822 C816 0.930 . S
H823 C820 0.930 . S
C824 C826 1.348 . S
C824 C827 1.356 . S
C824 O854 1.325 . S
N825 C828 1.314 . S
N825 C829 1.279 . S
C826 C824 1.348 . S
C826 C828 1.353 . S
C826 H868 0.929 . S
C827 C824 1.356 . S
C827 C829 1.358 . S
C827 H869 0.930 . S
C828 N825 1.314 . S
C828 C826 1.353 . S
C828 H870 0.930 . S
C829 N825 1.279 . S
C829 C827 1.358 . S
C829 H871 0.930 . S
C830 C831 1.348 . S
C830 C832 1.356 . S
C830 O855 1.325 . S
C831 C830 1.348 . S
C831 C833 1.353 . S
C831 H872 0.929 . S
C832 C830 1.356 . S
C832 C834 1.358 . S
C832 H873 0.930 . S
C833 C831 1.353 . S
C833 N835 1.314 . S
C833 H874 0.930 . S
C834 C832 1.358 . S
C834 N835 1.279 . S
C834 H875 0.930 . S
N835 C833 1.314 . S
N835 C834 1.279 . S
C836 C838 1.353 . S
C836 N839 1.314 . S
C836 H842 0.930 . S
C837 N839 1.279 . S
C837 C840 1.358 . S
C837 H843 0.930 . S
C838 C836 1.353 . S
C838 C841 1.348 . S
C838 H876 0.929 . S
N839 Li794 1.990 . S
N839 C836 1.314 . S
N839 C837 1.279 . S
C840 C837 1.358 . S
C840 C841 1.356 . S
C840 H877 0.930 . S
C841 C838 1.348 . S
C841 C840 1.356 . S
H842 C836 0.930 . S
H843 C837 0.930 . S
C844 N845 1.314 . S
C844 C846 1.353 . S
C844 H850 0.930 . S
N845 Li795 1.990 . S
N845 C844 1.314 . S
N845 C848 1.279 . S
C846 C844 1.353 . S
C846 C849 1.348 . S
C846 H878 0.929 . S
C847 C848 1.358 . S
C847 C849 1.356 . S
C847 H879 0.930 . S
C848 N845 1.279 . S
C848 C847 1.358 . S
C848 H851 0.930 . S
C849 C846 1.348 . S
C849 C847 1.356 . S
H850 C844 0.930 . S
H851 C848 0.930 . S
O852 Li792 1.956 . S
O852 Li793 1.970 . S
O852 Li794 1.961 . S
O852 C796 1.325 . S
O853 Li792 1.970 . S
O853 Li793 1.956 . S
O853 Li795 1.961 . S
O853 C802 1.325 . S
O854 Li792 1.961 . S
O854 Li794 1.956 . S
O854 Li795 1.970 . S
O854 C824 1.325 . S
O855 Li793 1.961 . S
O855 Li794 1.970 . S
O855 Li795 1.956 . S
O855 C830 1.325 . S
H856 C798 0.929 . S
H857 C799 0.930 . S
H858 C800 0.930 . S
H859 C801 0.930 . S
H860 C803 0.930 . S
H861 C805 0.929 . S
H862 C806 0.930 . S
H863 C807 0.930 . S
H864 C810 0.930 . S
H865 C813 0.929 . S
H866 C818 0.929 . S
H867 C819 0.930 . S
H868 C826 0.929 . S
H869 C827 0.930 . S
H870 C828 0.930 . S
H871 C829 0.930 . S
H872 C831 0.929 . S
H873 C832 0.930 . S
H874 C833 0.930 . S
H875 C834 0.930 . S
H876 C838 0.929 . S
H877 C840 0.930 . S
H878 C846 0.929 . S
H879 C847 0.930 . S
Li880 N897 1.990 . S
Li880 O940 1.956 . S
Li880 O941 1.970 . S
Li880 O942 1.961 . S
Li881 N905 1.990 . S
Li881 O940 1.970 . S
Li881 O941 1.956 . S
Li881 O943 1.961 . S
Li882 N927 1.990 1_545 S
Li882 O940 1.961 . S
Li882 O942 1.956 . S
Li882 O943 1.970 . S
Li883 N933 1.990 . S
Li883 O941 1.961 . S
Li883 O942 1.970 . S
Li883 O943 1.956 . S
C884 C886 1.348 . S
C884 C887 1.356 . S
C884 O940 1.325 . S
N885 C888 1.314 . S
N885 C889 1.279 . S
C886 C884 1.348 . S
C886 C888 1.353 . S
C886 H944 0.929 . S
C887 C884 1.356 . S
C887 C889 1.358 . S
C887 H945 0.930 . S
C888 N885 1.314 . S
C888 C886 1.353 . S
C888 H946 0.930 . S
C889 N885 1.279 . S
C889 C887 1.358 . S
C889 H947 0.930 . S
C890 C893 1.348 . S
C890 C894 1.356 . S
C890 O941 1.325 . S
C891 N892 1.279 . S
C891 C894 1.358 . S
C891 H948 0.930 . S
N892 C891 1.279 . S
N892 C895 1.314 . S
C893 C890 1.348 . S
C893 C895 1.353 . S
C893 H949 0.929 . S
C894 C890 1.356 . S
C894 C891 1.358 . S
C894 H950 0.930 . S
C895 N892 1.314 . S
C895 C893 1.353 . S
C895 H951 0.930 . S
C896 N897 1.314 . S
C896 C901 1.353 . S
C896 H902 0.930 . S
N897 Li880 1.990 . S
N897 C896 1.314 . S
N897 C899 1.279 . S
C898 C899 1.358 . S
C898 C900 1.356 . S
C898 H952 0.930 . S
C899 N897 1.279 . S
C899 C898 1.358 . S
C899 H903 0.930 . S
C900 C898 1.356 . S
C900 C901 1.348 . S
C901 C896 1.353 . S
C901 C900 1.348 . S
C901 H953 0.929 . S
H902 C896 0.930 . S
H903 C899 0.930 . S
C904 N905 1.314 . S
C904 C906 1.353 . S
C904 H910 0.930 . S
N905 Li881 1.990 . S
N905 C904 1.314 . S
N905 C908 1.279 . S
C906 C904 1.353 . S
C906 C909 1.348 . S
C906 H954 0.929 . S
C907 C908 1.358 . S
C907 C909 1.356 . S
C907 H955 0.930 . S
C908 N905 1.279 . S
C908 C907 1.358 . S
C908 H911 0.930 . S
C909 C906 1.348 . S
C909 C907 1.356 . S
H910 C904 0.930 . S
H911 C908 0.930 . S
C912 C914 1.348 . S
C912 C915 1.356 . S
C912 O942 1.325 1_565 S
N913 C916 1.314 . S
N913 C917 1.279 . S
C914 C912 1.348 . S
C914 C916 1.353 . S
C914 H956 0.929 . S
C915 C912 1.356 . S
C915 C917 1.358 . S
C915 H957 0.930 . S
C916 N913 1.314 . S
C916 C914 1.353 . S
C916 H958 0.930 . S
C917 N913 1.279 . S
C917 C915 1.358 . S
C917 H959 0.930 . S
C918 C919 1.348 1_545 S
C918 C920 1.356 . S
C918 O943 1.325 . S
C919 C918 1.348 1_565 S
C919 C921 1.353 . S
C919 H960 0.929 . S
C920 C918 1.356 . S
C920 C922 1.358 . S
C920 H961 0.930 . S
C921 C919 1.353 . S
C921 N923 1.314 1_565 S
C921 H962 0.930 . S
C922 C920 1.358 . S
C922 N923 1.279 . S
C922 H963 0.930 . S
N923 C921 1.314 1_545 S
N923 C922 1.279 . S
C924 C926 1.353 . S
C924 N927 1.314 . S
C924 H930 0.930 . S
C925 N927 1.279 . S
C925 C928 1.358 . S
C925 H931 0.930 . S
C926 C924 1.353 . S
C926 C929 1.348 . S
C926 H964 0.929 . S
N927 Li882 1.990 1_565 S
N927 C924 1.314 . S
N927 C925 1.279 . S
C928 C925 1.358 . S
C928 C929 1.356 . S
C928 H965 0.930 . S
C929 C926 1.348 . S
C929 C928 1.356 . S
H930 C924 0.930 . S
H931 C925 0.930 . S
C932 N933 1.314 . S
C932 C934 1.353 . S
C932 H938 0.930 . S
N933 Li883 1.990 . S
N933 C932 1.314 . S
N933 C936 1.279 . S
C934 C932 1.353 . S
C934 C937 1.348 . S
C934 H966 0.929 . S
C935 C936 1.358 . S
C935 C937 1.356 . S
C935 H967 0.930 . S
C936 N933 1.279 . S
C936 C935 1.358 . S
C936 H939 0.930 . S
C937 C934 1.348 . S
C937 C935 1.356 . S
H938 C932 0.930 . S
H939 C936 0.930 . S
O940 Li880 1.956 . S
O940 Li881 1.970 . S
O940 Li882 1.961 . S
O940 C884 1.325 . S
O941 Li880 1.970 . S
O941 Li881 1.956 . S
O941 Li883 1.961 . S
O941 C890 1.325 . S
O942 Li880 1.961 . S
O942 Li882 1.956 . S
O942 Li883 1.970 . S
O942 C912 1.325 1_545 S
O943 Li881 1.961 . S
O943 Li882 1.970 . S
O943 Li883 1.956 . S
O943 C918 1.325 . S
H944 C886 0.929 . S
H945 C887 0.930 . S
H946 C888 0.930 . S
H947 C889 0.930 . S
H948 C891 0.930 . S
H949 C893 0.929 . S
H950 C894 0.930 . S
H951 C895 0.930 . S
H952 C898 0.930 . S
H953 C901 0.929 . S
H954 C906 0.929 . S
H955 C907 0.930 . S
H956 C914 0.929 . S
H957 C915 0.930 . S
H958 C916 0.930 . S
H959 C917 0.930 . S
H960 C919 0.929 . S
H961 C920 0.930 . S
H962 C921 0.930 . S
H963 C922 0.930 . S
H964 C926 0.929 . S
H965 C928 0.930 . S
H966 C934 0.929 . S
H967 C935 0.930 . S
Li968 N985 1.990 . S
Li968 O1028 1.956 . S
Li968 O1029 1.970 . S
Li968 O1030 1.961 . S
Li969 N993 1.990 . S
Li969 O1028 1.970 . S
Li969 O1029 1.956 . S
Li969 O1031 1.961 . S
Li970 N1015 1.990 1_655 S
Li970 O1028 1.961 . S
Li970 O1030 1.956 . S
Li970 O1031 1.970 . S
Li971 N1021 1.990 . S
Li971 O1029 1.961 . S
Li971 O1030 1.970 . S
Li971 O1031 1.956 . S
C972 C974 1.348 . S
C972 C975 1.356 . S
C972 O1028 1.325 . S
N973 C976 1.314 . S
N973 C977 1.279 . S
C974 C972 1.348 . S
C974 C976 1.353 . S
C974 H1032 0.929 . S
C975 C972 1.356 . S
C975 C977 1.358 . S
C975 H1033 0.930 . S
C976 N973 1.314 . S
C976 C974 1.353 . S
C976 H1034 0.930 . S
C977 N973 1.279 . S
C977 C975 1.358 . S
C977 H1035 0.930 1_655 S
C978 C981 1.348 . S
C978 C982 1.356 . S
C978 O1029 1.325 . S
C979 N980 1.279 . S
C979 C982 1.358 . S
C979 H1036 0.930 . S
N980 C979 1.279 . S
N980 C983 1.314 . S
C981 C978 1.348 . S
C981 C983 1.353 . S
C981 H1037 0.929 . S
C982 C978 1.356 . S
C982 C979 1.358 . S
C982 H1038 0.930 . S
C983 N980 1.314 . S
C983 C981 1.353 . S
C983 H1039 0.930 . S
C984 N985 1.314 . S
C984 C989 1.353 . S
C984 H990 0.930 . S
N985 Li968 1.990 . S
N985 C984 1.314 . S
N985 C987 1.279 . S
C986 C987 1.358 . S
C986 C988 1.356 . S
C986 H1040 0.930 . S
C987 N985 1.279 . S
C987 C986 1.358 . S
C987 H991 0.930 . S
C988 C986 1.356 . S
C988 C989 1.348 . S
C989 C984 1.353 . S
C989 C988 1.348 . S
C989 H1041 0.929 . S
H990 C984 0.930 . S
H991 C987 0.930 . S
C992 N993 1.314 . S
C992 C994 1.353 . S
C992 H998 0.930 1_655 S
N993 Li969 1.990 . S
N993 C992 1.314 . S
N993 C996 1.279 . S
C994 C992 1.353 . S
C994 C997 1.348 . S
C994 H1042 0.929 1_655 S
C995 C996 1.358 . S
C995 C997 1.356 . S
C995 H1043 0.930 . S
C996 N993 1.279 . S
C996 C995 1.358 . S
C996 H999 0.930 . S
C997 C994 1.348 . S
C997 C995 1.356 . S
H998 C992 0.930 1_455 S
H999 C996 0.930 . S
C1000 C1002 1.348 . S
C1000 C1003 1.356 . S
C1000 O1030 1.325 . S
N1001 C1004 1.314 . S
N1001 C1005 1.279 . S
C1002 C1000 1.348 . S
C1002 C1004 1.353 . S
C1002 H1044 0.929 . S
C1003 C1000 1.356 . S
C1003 C1005 1.358 . S
C1003 H1045 0.930 . S
C1004 N1001 1.314 . S
C1004 C1002 1.353 . S
C1004 H1046 0.930 . S
C1005 N1001 1.279 . S
C1005 C1003 1.358 . S
C1005 H1047 0.930 . S
C1006 C1007 1.348 . S
C1006 C1008 1.356 . S
C1006 O1031 1.325 1_455 S
C1007 C1006 1.348 . S
C1007 C1009 1.353 . S
C1007 H1048 0.929 . S
C1008 C1006 1.356 . S
C1008 C1010 1.358 . S
C1008 H1049 0.930 1_455 S
C1009 C1007 1.353 . S
C1009 N1011 1.314 . S
C1009 H1050 0.930 . S
C1010 C1008 1.358 . S
C1010 N1011 1.279 . S
C1010 H1051 0.930 . S
N1011 C1009 1.314 . S
N1011 C1010 1.279 . S
C1012 C1014 1.353 . S
C1012 N1015 1.314 . S
C1012 H1018 0.930 . S
C1013 N1015 1.279 . S
C1013 C1016 1.358 . S
C1013 H1019 0.930 . S
C1014 C1012 1.353 . S
C1014 C1017 1.348 . S
C1014 H1052 0.929 . S
N1015 Li970 1.990 1_455 S
N1015 C1012 1.314 . S
N1015 C1013 1.279 . S
C1016 C1013 1.358 . S
C1016 C1017 1.356 . S
C1016 H1053 0.930 . S
C1017 C1014 1.348 . S
C1017 C1016 1.356 . S
H1018 C1012 0.930 . S
H1019 C1013 0.930 . S
C1020 N1021 1.314 . S
C1020 C1022 1.353 . S
C1020 H1026 0.930 . S
N1021 Li971 1.990 . S
N1021 C1020 1.314 . S
N1021 C1024 1.279 . S
C1022 C1020 1.353 . S
C1022 C1025 1.348 . S
C1022 H1054 0.929 . S
C1023 C1024 1.358 . S
C1023 C1025 1.356 . S
C1023 H1055 0.930 . S
C1024 N1021 1.279 . S
C1024 C1023 1.358 . S
C1024 H1027 0.930 . S
C1025 C1022 1.348 . S
C1025 C1023 1.356 . S
H1026 C1020 0.930 . S
H1027 C1024 0.930 . S
O1028 Li968 1.956 . S
O1028 Li969 1.970 . S
O1028 Li970 1.961 . S
O1028 C972 1.325 . S
O1029 Li968 1.970 . S
O1029 Li969 1.956 . S
O1029 Li971 1.961 . S
O1029 C978 1.325 . S
O1030 Li968 1.961 . S
O1030 Li970 1.956 . S
O1030 Li971 1.970 . S
O1030 C1000 1.325 . S
O1031 Li969 1.961 . S
O1031 Li970 1.970 . S
O1031 Li971 1.956 . S
O1031 C1006 1.325 1_655 S
H1032 C974 0.929 . S
H1033 C975 0.930 . S
H1034 C976 0.930 . S
H1035 C977 0.930 1_455 S
H1036 C979 0.930 . S
H1037 C981 0.929 . S
H1038 C982 0.930 . S
H1039 C983 0.930 . S
H1040 C986 0.930 . S
H1041 C989 0.929 . S
H1042 C994 0.929 1_455 S
H1043 C995 0.930 . S
H1044 C1002 0.929 . S
H1045 C1003 0.930 . S
H1046 C1004 0.930 . S
H1047 C1005 0.930 . S
H1048 C1007 0.929 . S
H1049 C1008 0.930 1_655 S
H1050 C1009 0.930 . S
H1051 C1010 0.930 . S
H1052 C1014 0.929 . S
H1053 C1016 0.930 . S
H1054 C1022 0.929 . S
H1055 C1023 0.930 . S
Li1056 N1073 1.990 . S
Li1056 O1116 1.956 . S
Li1056 O1117 1.970 . S
Li1056 O1118 1.961 . S
Li1057 N1081 1.990 . S
Li1057 O1116 1.970 . S
Li1057 O1117 1.956 . S
Li1057 O1119 1.961 . S
Li1058 N1103 1.990 . S
Li1058 O1116 1.961 . S
Li1058 O1118 1.956 . S
Li1058 O1119 1.970 . S
Li1059 N1109 1.990 . S
Li1059 O1117 1.961 . S
Li1059 O1118 1.970 . S
Li1059 O1119 1.956 . S
C1060 C1062 1.348 . S
C1060 C1063 1.356 . S
C1060 O1116 1.325 . S
N1061 C1064 1.314 . S
N1061 C1065 1.279 . S
C1062 C1060 1.348 . S
C1062 C1064 1.353 . S
C1062 H1120 0.929 . S
C1063 C1060 1.356 . S
C1063 C1065 1.358 . S
C1063 H1121 0.930 . S
C1064 N1061 1.314 . S
C1064 C1062 1.353 . S
C1064 H1122 0.930 . S
C1065 N1061 1.279 . S
C1065 C1063 1.358 . S
C1065 H1123 0.930 . S
C1066 C1069 1.348 . S
C1066 C1070 1.356 . S
C1066 O1117 1.325 . S
C1067 N1068 1.279 . S
C1067 C1070 1.358 . S
C1067 H1124 0.930 . S
N1068 C1067 1.279 . S
N1068 C1071 1.314 . S
C1069 C1066 1.348 . S
C1069 C1071 1.353 . S
C1069 H1125 0.929 . S
C1070 C1066 1.356 . S
C1070 C1067 1.358 . S
C1070 H1126 0.930 . S
C1071 N1068 1.314 . S
C1071 C1069 1.353 . S
C1071 H1127 0.930 . S
C1072 N1073 1.314 . S
C1072 C1077 1.353 . S
C1072 H1078 0.930 . S
N1073 Li1056 1.990 . S
N1073 C1072 1.314 . S
N1073 C1075 1.279 . S
C1074 C1075 1.358 . S
C1074 C1076 1.356 . S
C1074 H1128 0.930 . S
C1075 N1073 1.279 . S
C1075 C1074 1.358 . S
C1075 H1079 0.930 . S
C1076 C1074 1.356 . S
C1076 C1077 1.348 . S
C1077 C1072 1.353 . S
C1077 C1076 1.348 . S
C1077 H1129 0.929 . S
H1078 C1072 0.930 . S
H1079 C1075 0.930 . S
C1080 N1081 1.314 . S
C1080 C1082 1.353 . S
C1080 H1086 0.930 . S
N1081 Li1057 1.990 . S
N1081 C1080 1.314 . S
N1081 C1084 1.279 . S
C1082 C1080 1.353 . S
C1082 C1085 1.348 . S
C1082 H1130 0.929 . S
C1083 C1084 1.358 . S
C1083 C1085 1.356 . S
C1083 H1131 0.930 . S
C1084 N1081 1.279 . S
C1084 C1083 1.358 . S
C1084 H1087 0.930 . S
C1085 C1082 1.348 . S
C1085 C1083 1.356 . S
H1086 C1080 0.930 . S
H1087 C1084 0.930 . S
C1088 C1090 1.348 . S
C1088 C1091 1.356 . S
C1088 O1118 1.325 . S
N1089 C1092 1.314 . S
N1089 C1093 1.279 . S
C1090 C1088 1.348 . S
C1090 C1092 1.353 . S
C1090 H1132 0.929 . S
C1091 C1088 1.356 . S
C1091 C1093 1.358 . S
C1091 H1133 0.930 . S
C1092 N1089 1.314 . S
C1092 C1090 1.353 . S
C1092 H1134 0.930 . S
C1093 N1089 1.279 . S
C1093 C1091 1.358 . S
C1093 H1135 0.930 . S
C1094 C1095 1.348 . S
C1094 C1096 1.356 . S
C1094 O1119 1.325 . S
C1095 C1094 1.348 . S
C1095 C1097 1.353 . S
C1095 H1136 0.929 . S
C1096 C1094 1.356 . S
C1096 C1098 1.358 . S
C1096 H1137 0.930 . S
C1097 C1095 1.353 . S
C1097 N1099 1.314 . S
C1097 H1138 0.930 . S
C1098 C1096 1.358 . S
C1098 N1099 1.279 . S
C1098 H1139 0.930 . S
N1099 C1097 1.314 . S
N1099 C1098 1.279 . S
C1100 C1102 1.353 . S
C1100 N1103 1.314 . S
C1100 H1106 0.930 . S
C1101 N1103 1.279 . S
C1101 C1104 1.358 . S
C1101 H1107 0.930 . S
C1102 C1100 1.353 . S
C1102 C1105 1.348 . S
C1102 H1140 0.929 . S
N1103 Li1058 1.990 . S
N1103 C1100 1.314 . S
N1103 C1101 1.279 . S
C1104 C1101 1.358 . S
C1104 C1105 1.356 . S
C1104 H1141 0.930 . S
C1105 C1102 1.348 . S
C1105 C1104 1.356 . S
H1106 C1100 0.930 . S
H1107 C1101 0.930 . S
C1108 N1109 1.314 . S
C1108 C1110 1.353 . S
C1108 H1114 0.930 . S
N1109 Li1059 1.990 . S
N1109 C1108 1.314 . S
N1109 C1112 1.279 . S
C1110 C1108 1.353 . S
C1110 C1113 1.348 . S
C1110 H1142 0.929 . S
C1111 C1112 1.358 . S
C1111 C1113 1.356 . S
C1111 H1143 0.930 . S
C1112 N1109 1.279 . S
C1112 C1111 1.358 . S
C1112 H1115 0.930 . S
C1113 C1110 1.348 . S
C1113 C1111 1.356 . S
H1114 C1108 0.930 . S
H1115 C1112 0.930 . S
O1116 Li1056 1.956 . S
O1116 Li1057 1.970 . S
O1116 Li1058 1.961 . S
O1116 C1060 1.325 . S
O1117 Li1056 1.970 . S
O1117 Li1057 1.956 . S
O1117 Li1059 1.961 . S
O1117 C1066 1.325 . S
O1118 Li1056 1.961 . S
O1118 Li1058 1.956 . S
O1118 Li1059 1.970 . S
O1118 C1088 1.325 . S
O1119 Li1057 1.961 . S
O1119 Li1058 1.970 . S
O1119 Li1059 1.956 . S
O1119 C1094 1.325 . S
H1120 C1062 0.929 . S
H1121 C1063 0.930 . S
H1122 C1064 0.930 . S
H1123 C1065 0.930 . S
H1124 C1067 0.930 . S
H1125 C1069 0.929 . S
H1126 C1070 0.930 . S
H1127 C1071 0.930 . S
H1128 C1074 0.930 . S
H1129 C1077 0.929 . S
H1130 C1082 0.929 . S
H1131 C1083 0.930 . S
H1132 C1090 0.929 . S
H1133 C1091 0.930 . S
H1134 C1092 0.930 . S
H1135 C1093 0.930 . S
H1136 C1095 0.929 . S
H1137 C1096 0.930 . S
H1138 C1097 0.930 . S
H1139 C1098 0.930 . S
H1140 C1102 0.929 . S
H1141 C1104 0.930 . S
H1142 C1110 0.929 . S
H1143 C1111 0.930 . S
Li1144 N1161 1.990 . S
Li1144 O1204 1.956 . S
Li1144 O1205 1.970 . S
Li1144 O1206 1.961 . S
Li1145 N1169 1.990 1_565 S
Li1145 O1204 1.970 . S
Li1145 O1205 1.956 . S
Li1145 O1207 1.961 . S
Li1146 N1191 1.990 . S
Li1146 O1204 1.961 . S
Li1146 O1206 1.956 . S
Li1146 O1207 1.970 . S
Li1147 N1197 1.990 . S
Li1147 O1205 1.961 . S
Li1147 O1206 1.970 . S
Li1147 O1207 1.956 . S
C1148 C1150 1.348 . S
C1148 C1151 1.356 . S
C1148 O1204 1.325 1_545 S
N1149 C1152 1.314 . S
N1149 C1153 1.279 . S
C1150 C1148 1.348 . S
C1150 C1152 1.353 . S
C1150 H1208 0.929 . S
C1151 C1148 1.356 . S
C1151 C1153 1.358 . S
C1151 H1209 0.930 1_545 S
C1152 N1149 1.314 . S
C1152 C1150 1.353 . S
C1152 H1210 0.930 . S
C1153 N1149 1.279 . S
C1153 C1151 1.358 . S
C1153 H1211 0.930 . S
C1154 C1157 1.348 . S
C1154 C1158 1.356 . S
C1154 O1205 1.325 . S
C1155 N1156 1.279 . S
C1155 C1158 1.358 . S
C1155 H1212 0.930 . S
N1156 C1155 1.279 . S
N1156 C1159 1.307 . S
C1157 C1154 1.348 . S
C1157 C1159 1.358 . S
C1157 H1213 0.929 . S
C1158 C1154 1.356 . S
C1158 C1155 1.358 . S
C1158 H1214 0.930 . S
C1159 N1156 1.307 . S
C1159 C1157 1.358 . S
C1159 H1215 0.934 1_565 S
C1160 N1161 1.314 . S
C1160 C1165 1.353 . S
C1160 H1166 0.930 . S
N1161 Li1144 1.990 . S
N1161 C1160 1.314 . S
N1161 C1163 1.279 . S
C1162 C1163 1.358 . S
C1162 C1164 1.356 . S
C1162 H1216 0.930 1_565 S
C1163 N1161 1.279 . S
C1163 C1162 1.358 . S
C1163 H1167 0.930 1_565 S
C1164 C1162 1.356 . S
C1164 C1165 1.348 . S
C1165 C1160 1.353 . S
C1165 C1164 1.348 . S
C1165 H1217 0.929 . S
H1166 C1160 0.930 . S
H1167 C1163 0.930 1_545 S
C1168 N1169 1.314 . S
C1168 C1170 1.353 . S
C1168 H1174 0.930 . S
N1169 Li1145 1.990 1_545 S
N1169 C1168 1.314 . S
N1169 C1172 1.279 . S
C1170 C1168 1.353 . S
C1170 C1173 1.348 . S
C1170 H1218 0.929 . S
C1171 C1172 1.358 . S
C1171 C1173 1.356 . S
C1171 H1219 0.930 . S
C1172 N1169 1.279 . S
C1172 C1171 1.358 . S
C1172 H1175 0.930 . S
C1173 C1170 1.348 . S
C1173 C1171 1.356 . S
H1174 C1168 0.930 . S
H1175 C1172 0.930 . S
C1176 C1178 1.348 . S
C1176 C1179 1.356 . S
C1176 O1206 1.325 . S
N1177 C1180 1.314 . S
N1177 C1181 1.279 . S
C1178 C1176 1.348 . S
C1178 C1180 1.353 . S
C1178 H1220 0.929 . S
C1179 C1176 1.356 . S
C1179 C1181 1.358 . S
C1179 H1221 0.930 . S
C1180 N1177 1.314 . S
C1180 C1178 1.353 . S
C1180 H1222 0.930 . S
C1181 N1177 1.279 . S
C1181 C1179 1.358 . S
C1181 H1223 0.930 . S
C1182 C1183 1.348 . S
C1182 C1184 1.356 . S
C1182 O1207 1.325 . S
C1183 C1182 1.348 . S
C1183 C1185 1.353 . S
C1183 H1224 0.929 . S
C1184 C1182 1.356 . S
C1184 C1186 1.358 . S
C1184 H1225 0.930 . S
C1185 C1183 1.353 . S
C1185 N1187 1.314 . S
C1185 H1226 0.930 . S
C1186 C1184 1.358 . S
C1186 N1187 1.279 . S
C1186 H1227 0.930 . S
N1187 C1185 1.314 . S
N1187 C1186 1.279 . S
C1188 C1190 1.353 . S
C1188 N1191 1.314 . S
C1188 H1194 0.930 . S
C1189 N1191 1.279 . S
C1189 C1192 1.358 . S
C1189 H1195 0.930 . S
C1190 C1188 1.353 . S
C1190 C1193 1.348 . S
C1190 H1228 0.929 . S
N1191 Li1146 1.990 . S
N1191 C1188 1.314 . S
N1191 C1189 1.279 . S
C1192 C1189 1.358 . S
C1192 C1193 1.356 . S
C1192 H1229 0.930 . S
C1193 C1190 1.348 . S
C1193 C1192 1.356 . S
H1194 C1188 0.930 . S
H1195 C1189 0.930 . S
C1196 N1197 1.314 . S
C1196 C1198 1.353 . S
C1196 H1202 0.930 . S
N1197 Li1147 1.990 . S
N1197 C1196 1.314 . S
N1197 C1200 1.279 . S
C1198 C1196 1.353 . S
C1198 C1201 1.348 . S
C1198 H1230 0.929 . S
C1199 C1200 1.358 . S
C1199 C1201 1.356 . S
C1199 H1231 0.930 . S
C1200 N1197 1.279 . S
C1200 C1199 1.358 . S
C1200 H1203 0.930 . S
C1201 C1198 1.348 . S
C1201 C1199 1.356 . S
H1202 C1196 0.930 . S
H1203 C1200 0.930 . S
O1204 Li1144 1.956 . S
O1204 Li1145 1.970 . S
O1204 Li1146 1.961 . S
O1204 C1148 1.325 1_565 S
O1205 Li1144 1.970 . S
O1205 Li1145 1.956 . S
O1205 Li1147 1.961 . S
O1205 C1154 1.325 . S
O1206 Li1144 1.961 . S
O1206 Li1146 1.956 . S
O1206 Li1147 1.970 . S
O1206 C1176 1.325 . S
O1207 Li1145 1.961 . S
O1207 Li1146 1.970 . S
O1207 Li1147 1.956 . S
O1207 C1182 1.325 . S
H1208 C1150 0.929 . S
H1209 C1151 0.930 1_565 S
H1210 C1152 0.930 . S
H1211 C1153 0.930 . S
H1212 C1155 0.930 . S
H1213 C1157 0.929 . S
H1214 C1158 0.930 . S
H1215 C1159 0.934 1_545 S
H1216 C1162 0.930 1_545 S
H1217 C1165 0.929 . S
H1218 C1170 0.929 . S
H1219 C1171 0.930 . S
H1220 C1178 0.929 . S
H1221 C1179 0.930 . S
H1222 C1180 0.930 . S
H1223 C1181 0.930 . S
H1224 C1183 0.929 . S
H1225 C1184 0.930 . S
H1226 C1185 0.930 . S
H1227 C1186 0.930 . S
H1228 C1190 0.929 . S
H1229 C1192 0.930 . S
H1230 C1198 0.929 . S
H1231 C1199 0.930 . S
Li1232 N1249 1.990 . S
Li1232 O1292 1.956 . S
Li1232 O1293 1.970 . S
Li1232 O1294 1.961 . S
Li1233 N1257 1.990 . S
Li1233 O1292 1.970 . S
Li1233 O1293 1.956 . S
Li1233 O1295 1.961 . S
Li1234 N1279 1.990 1_455 S
Li1234 O1292 1.961 . S
Li1234 O1294 1.956 . S
Li1234 O1295 1.970 . S
Li1235 N1285 1.990 . S
Li1235 O1293 1.961 . S
Li1235 O1294 1.970 . S
Li1235 O1295 1.956 . S
C1236 C1238 1.348 . S
C1236 C1239 1.356 . S
C1236 O1292 1.325 1_655 S
N1237 C1240 1.314 . S
N1237 C1241 1.279 . S
C1238 C1236 1.348 . S
C1238 C1240 1.353 . S
C1238 H1296 0.929 . S
C1239 C1236 1.356 . S
C1239 C1241 1.358 . S
C1239 H1297 0.930 . S
C1240 N1237 1.314 . S
C1240 C1238 1.353 . S
C1240 H1298 0.930 . S
C1241 N1237 1.279 . S
C1241 C1239 1.358 . S
C1241 H1299 0.930 . S
C1242 C1245 1.348 . S
C1242 C1246 1.356 . S
C1242 O1293 1.325 . S
C1243 N1244 1.279 . S
C1243 C1246 1.358 . S
C1243 H1300 0.930 . S
N1244 C1243 1.279 . S
N1244 C1247 1.314 . S
C1245 C1242 1.348 . S
C1245 C1247 1.353 . S
C1245 H1301 0.929 . S
C1246 C1242 1.356 . S
C1246 C1243 1.358 . S
C1246 H1302 0.930 . S
C1247 N1244 1.314 . S
C1247 C1245 1.353 . S
C1247 H1303 0.930 . S
C1248 N1249 1.314 . S
C1248 C1253 1.353 . S
C1248 H1254 0.930 . S
N1249 Li1232 1.990 . S
N1249 C1248 1.314 . S
N1249 C1251 1.279 . S
C1250 C1251 1.358 . S
C1250 C1252 1.356 . S
C1250 H1304 0.930 . S
C1251 N1249 1.279 . S
C1251 C1250 1.358 . S
C1251 H1255 0.930 . S
C1252 C1250 1.356 . S
C1252 C1253 1.348 . S
C1253 C1248 1.353 . S
C1253 C1252 1.348 . S
C1253 H1305 0.929 . S
H1254 C1248 0.930 . S
H1255 C1251 0.930 . S
C1256 N1257 1.314 . S
C1256 C1258 1.353 . S
C1256 H1262 0.930 1_455 S
N1257 Li1233 1.990 . S
N1257 C1256 1.314 . S
N1257 C1260 1.279 . S
C1258 C1256 1.353 . S
C1258 C1261 1.348 . S
C1258 H1306 0.929 1_455 S
C1259 C1260 1.358 . S
C1259 C1261 1.356 . S
C1259 H1307 0.930 . S
C1260 N1257 1.279 . S
C1260 C1259 1.358 . S
C1260 H1263 0.930 . S
C1261 C1258 1.348 . S
C1261 C1259 1.356 . S
H1262 C1256 0.930 1_655 S
H1263 C1260 0.930 . S
C1264 C1266 1.348 . S
C1264 C1267 1.356 . S
C1264 O1294 1.325 . S
N1265 C1268 1.314 . S
N1265 C1269 1.279 . S
C1266 C1264 1.348 . S
C1266 C1268 1.353 . S
C1266 H1308 0.929 . S
C1267 C1264 1.356 . S
C1267 C1269 1.358 . S
C1267 H1309 0.930 . S
C1268 N1265 1.314 . S
C1268 C1266 1.353 . S
C1268 H1310 0.930 . S
C1269 N1265 1.279 . S
C1269 C1267 1.358 . S
C1269 H1311 0.930 . S
C1270 C1271 1.342 1_455 S
C1270 C1272 1.356 . S
C1270 O1295 1.325 . S
C1271 C1270 1.342 1_655 S
C1271 C1273 1.358 . S
C1271 H1312 0.930 . S
C1272 C1270 1.356 . S
C1272 C1274 1.358 . S
C1272 H1313 0.930 . S
C1273 C1271 1.358 . S
C1273 N1275 1.314 1_655 S
C1273 H1314 0.930 . S
C1274 C1272 1.358 . S
C1274 N1275 1.279 . S
C1274 H1315 0.930 . S
N1275 C1273 1.314 1_455 S
N1275 C1274 1.279 . S
C1276 C1278 1.353 . S
C1276 N1279 1.314 . S
C1276 H1282 0.930 . S
C1277 N1279 1.279 . S
C1277 C1280 1.358 . S
C1277 H1283 0.930 . S
C1278 C1276 1.353 . S
C1278 C1281 1.348 . S
C1278 H1316 0.929 . S
N1279 Li1234 1.990 1_655 S
N1279 C1276 1.314 . S
N1279 C1277 1.279 . S
C1280 C1277 1.358 . S
C1280 C1281 1.356 . S
C1280 H1317 0.930 . S
C1281 C1278 1.348 . S
C1281 C1280 1.356 . S
H1282 C1276 0.930 . S
H1283 C1277 0.930 . S
C1284 N1285 1.314 . S
C1284 C1286 1.353 . S
C1284 H1290 0.930 . S
N1285 Li1235 1.990 . S
N1285 C1284 1.314 . S
N1285 C1288 1.279 . S
C1286 C1284 1.353 . S
C1286 C1289 1.348 . S
C1286 H1318 0.929 . S
C1287 C1288 1.358 . S
C1287 C1289 1.356 . S
C1287 H1319 0.930 . S
C1288 N1285 1.279 . S
C1288 C1287 1.358 . S
C1288 H1291 0.930 . S
C1289 C1286 1.348 . S
C1289 C1287 1.356 . S
H1290 C1284 0.930 . S
H1291 C1288 0.930 . S
O1292 Li1232 1.956 . S
O1292 Li1233 1.970 . S
O1292 Li1234 1.961 . S
O1292 C1236 1.325 1_455 S
O1293 Li1232 1.970 . S
O1293 Li1233 1.956 . S
O1293 Li1235 1.961 . S
O1293 C1242 1.325 . S
O1294 Li1232 1.961 . S
O1294 Li1234 1.956 . S
O1294 Li1235 1.970 . S
O1294 C1264 1.325 . S
O1295 Li1233 1.961 . S
O1295 Li1234 1.970 . S
O1295 Li1235 1.956 . S
O1295 C1270 1.325 . S
H1296 C1238 0.929 . S
H1297 C1239 0.930 . S
H1298 C1240 0.930 . S
H1299 C1241 0.930 . S
H1300 C1243 0.930 . S
H1301 C1245 0.929 . S
H1302 C1246 0.930 . S
H1303 C1247 0.930 . S
H1304 C1250 0.930 . S
H1305 C1253 0.929 . S
H1306 C1258 0.929 1_655 S
H1307 C1259 0.930 . S
H1308 C1266 0.929 . S
H1309 C1267 0.930 . S
H1310 C1268 0.930 . S
H1311 C1269 0.930 . S
H1312 C1271 0.930 . S
H1313 C1272 0.930 . S
H1314 C1273 0.930 . S
H1315 C1274 0.930 . S
H1316 C1278 0.929 . S
H1317 C1280 0.930 . S
H1318 C1286 0.929 . S
H1319 C1287 0.930 . S
Li1320 N1337 1.990 . S
Li1320 O1380 1.954 1_655 S
Li1320 O1381 1.970 . S
Li1320 O1382 1.961 . S
Li1321 N1345 1.990 . S
Li1321 O1380 1.974 . S
Li1321 O1381 1.956 1_455 S
Li1321 O1383 1.961 . S
Li1322 N1367 1.990 . S
Li1322 O1380 1.963 1_655 S
Li1322 O1382 1.956 . S
Li1322 O1383 1.970 1_655 S
Li1323 N1373 1.990 . S
Li1323 O1381 1.961 1_455 S
Li1323 O1382 1.970 1_455 S
Li1323 O1383 1.956 . S
C1324 C1326 1.348 1_655 S
C1324 C1327 1.356 . S
C1324 O1380 1.323 1_655 S
N1325 C1328 1.314 1_655 S
N1325 C1329 1.279 . S
C1326 C1324 1.348 1_455 S
C1326 C1328 1.353 . S
C1326 H1384 0.929 . S
C1327 C1324 1.356 . S
C1327 C1329 1.358 . S
C1327 H1385 0.930 . S
C1328 N1325 1.314 1_455 S
C1328 C1326 1.353 . S
C1328 H1386 0.930 . S
C1329 N1325 1.279 . S
C1329 C1327 1.358 . S
C1329 H1387 0.930 . S
C1330 C1333 1.332 1_455 S
C1330 C1334 1.370 . S
C1330 O1381 1.327 1_455 S
C1331 N1332 1.279 . S
C1331 C1334 1.358 . S
C1331 H1388 0.930 . S
N1332 C1331 1.279 . S
N1332 C1335 1.314 1_455 S
C1333 C1330 1.332 1_655 S
C1333 C1335 1.353 . S
C1333 H1389 0.929 . S
C1334 C1330 1.370 . S
C1334 C1331 1.358 . S
C1334 H1390 0.930 . S
C1335 N1332 1.314 1_655 S
C1335 C1333 1.353 . S
C1335 H1391 0.930 . S
C1336 N1337 1.314 . S
C1336 C1341 1.353 . S
C1336 H1342 0.930 . S
N1337 Li1320 1.990 . S
N1337 C1336 1.314 . S
N1337 C1339 1.279 . S
C1338 C1339 1.358 . S
C1338 C1340 1.356 . S
C1338 H1392 0.930 . S
C1339 N1337 1.279 . S
C1339 C1338 1.358 . S
C1339 H1343 0.930 . S
C1340 C1338 1.356 . S
C1340 C1341 1.348 . S
C1341 C1336 1.353 . S
C1341 C1340 1.348 . S
C1341 H1393 0.929 . S
H1342 C1336 0.930 . S
H1343 C1339 0.930 . S
C1344 N1345 1.314 . S
C1344 C1346 1.353 . S
C1344 H1350 0.930 . S
N1345 Li1321 1.990 . S
N1345 C1344 1.314 . S
N1345 C1348 1.279 . S
C1346 C1344 1.353 . S
C1346 C1349 1.348 . S
C1346 H1394 0.929 . S
C1347 C1348 1.358 . S
C1347 C1349 1.356 . S
C1347 H1395 0.930 . S
C1348 N1345 1.279 . S
C1348 C1347 1.358 . S
C1348 H1351 0.930 . S
C1349 C1346 1.348 . S
C1349 C1347 1.356 . S
H1350 C1344 0.930 . S
H1351 C1348 0.930 . S
C1352 C1354 1.348 . S
C1352 C1355 1.356 . S
C1352 O1382 1.325 . S
N1353 C1356 1.314 . S
N1353 C1357 1.279 . S
C1354 C1352 1.348 . S
C1354 C1356 1.353 . S
C1354 H1396 0.929 . S
C1355 C1352 1.356 . S
C1355 C1357 1.358 . S
C1355 H1397 0.930 . S
C1356 N1353 1.314 . S
C1356 C1354 1.353 . S
C1356 H1398 0.930 . S
C1357 N1353 1.279 . S
C1357 C1355 1.358 . S
C1357 H1399 0.930 . S
C1358 C1359 1.348 . S
C1358 C1360 1.356 . S
C1358 O1383 1.325 . S
C1359 C1358 1.348 . S
C1359 C1361 1.353 . S
C1359 H1400 0.929 . S
C1360 C1358 1.356 . S
C1360 C1362 1.358 . S
C1360 H1401 0.930 . S
C1361 C1359 1.353 . S
C1361 N1363 1.314 . S
C1361 H1402 0.930 . S
C1362 C1360 1.358 . S
C1362 N1363 1.279 . S
C1362 H1403 0.930 . S
N1363 C1361 1.314 . S
N1363 C1362 1.279 . S
C1364 C1366 1.353 . S
C1364 N1367 1.314 1_455 S
C1364 H1370 0.930 . S
C1365 N1367 1.279 . S
C1365 C1368 1.358 . S
C1365 H1371 0.930 . S
C1366 C1364 1.353 . S
C1366 C1369 1.348 1_455 S
C1366 H1404 0.929 . S
N1367 Li1322 1.990 . S
N1367 C1364 1.314 1_655 S
N1367 C1365 1.279 . S
C1368 C1365 1.358 . S
C1368 C1369 1.356 . S
C1368 H1405 0.930 . S
C1369 C1366 1.348 1_655 S
C1369 C1368 1.356 . S
H1370 C1364 0.930 . S
H1371 C1365 0.930 . S
C1372 N1373 1.314 1_655 S
C1372 C1374 1.353 . S
C1372 H1378 0.930 . S
N1373 Li1323 1.990 . S
N1373 C1372 1.314 1_455 S
N1373 C1376 1.279 . S
C1374 C1372 1.353 . S
C1374 C1377 1.348 1_655 S
C1374 H1406 0.929 . S
C1375 C1376 1.358 . S
C1375 C1377 1.356 . S
C1375 H1407 0.930 . S
C1376 N1373 1.279 . S
C1376 C1375 1.358 . S
C1376 H1379 0.930 . S
C1377 C1374 1.348 1_455 S
C1377 C1375 1.356 . S
H1378 C1372 0.930 . S
H1379 C1376 0.930 . S
O1380 Li1320 1.954 1_455 S
O1380 Li1321 1.974 . S
O1380 Li1322 1.963 1_455 S
O1380 C1324 1.323 1_455 S
O1381 Li1320 1.970 . S
O1381 Li1321 1.956 1_655 S
O1381 Li1323 1.961 1_655 S
O1381 C1330 1.327 1_655 S
O1382 Li1320 1.961 . S
O1382 Li1322 1.956 . S
O1382 Li1323 1.970 1_655 S
O1382 C1352 1.325 . S
O1383 Li1321 1.961 . S
O1383 Li1322 1.970 1_455 S
O1383 Li1323 1.956 . S
O1383 C1358 1.325 . S
H1384 C1326 0.929 . S
H1385 C1327 0.930 . S
H1386 C1328 0.930 . S
H1387 C1329 0.930 . S
H1388 C1331 0.930 . S
H1389 C1333 0.929 . S
H1390 C1334 0.930 . S
H1391 C1335 0.930 . S
H1392 C1338 0.930 . S
H1393 C1341 0.929 . S
H1394 C1346 0.929 . S
H1395 C1347 0.930 . S
H1396 C1354 0.929 . S
H1397 C1355 0.930 . S
H1398 C1356 0.930 . S
H1399 C1357 0.930 . S
H1400 C1359 0.929 . S
H1401 C1360 0.930 . S
H1402 C1361 0.930 . S
H1403 C1362 0.930 . S
H1404 C1366 0.929 . S
H1405 C1368 0.930 . S
H1406 C1374 0.929 . S
H1407 C1375 0.930 . S
Li1408 N1425 1.990 . S
Li1408 O1468 1.956 . S
Li1408 O1469 1.970 . S
Li1408 O1470 1.961 . S
Li1409 N1433 1.990 . S
Li1409 O1468 1.970 . S
Li1409 O1469 1.956 . S
Li1409 O1471 1.961 . S
Li1410 N1455 1.990 . S
Li1410 O1468 1.961 . S
Li1410 O1470 1.956 . S
Li1410 O1471 1.970 . S
Li1411 N1461 1.990 . S
Li1411 O1469 1.961 . S
Li1411 O1470 1.970 . S
Li1411 O1471 1.956 . S
C1412 C1414 1.348 . S
C1412 C1415 1.356 . S
C1412 O1468 1.325 . S
N1413 C1416 1.314 . S
N1413 C1417 1.279 . S
C1414 C1412 1.348 . S
C1414 C1416 1.353 . S
C1414 H1472 0.929 . S
C1415 C1412 1.356 . S
C1415 C1417 1.358 . S
C1415 H1473 0.930 . S
C1416 N1413 1.314 . S
C1416 C1414 1.353 . S
C1416 H1474 0.930 . S
C1417 N1413 1.279 . S
C1417 C1415 1.358 . S
C1417 H1475 0.930 . S
C1418 C1421 1.348 . S
C1418 C1422 1.356 . S
C1418 O1469 1.325 . S
C1419 N1420 1.279 . S
C1419 C1422 1.358 . S
C1419 H1476 0.930 . S
N1420 C1419 1.279 . S
N1420 C1423 1.314 . S
C1421 C1418 1.348 . S
C1421 C1423 1.353 . S
C1421 H1477 0.929 . S
C1422 C1418 1.356 . S
C1422 C1419 1.358 . S
C1422 H1478 0.930 . S
C1423 N1420 1.314 . S
C1423 C1421 1.353 . S
C1423 H1479 0.930 . S
C1424 N1425 1.314 . S
C1424 C1429 1.353 . S
C1424 H1430 0.930 . S
N1425 Li1408 1.990 . S
N1425 C1424 1.314 . S
N1425 C1427 1.279 . S
C1426 C1427 1.358 . S
C1426 C1428 1.356 . S
C1426 H1480 0.930 . S
C1427 N1425 1.279 . S
C1427 C1426 1.358 . S
C1427 H1431 0.930 . S
C1428 C1426 1.356 . S
C1428 C1429 1.348 . S
C1429 C1424 1.353 . S
C1429 C1428 1.348 . S
C1429 H1481 0.929 . S
H1430 C1424 0.930 . S
H1431 C1427 0.930 . S
C1432 N1433 1.314 . S
C1432 C1434 1.353 . S
C1432 H1438 0.930 . S
N1433 Li1409 1.990 . S
N1433 C1432 1.314 . S
N1433 C1436 1.279 . S
C1434 C1432 1.353 . S
C1434 C1437 1.348 . S
C1434 H1482 0.929 . S
C1435 C1436 1.358 . S
C1435 C1437 1.356 . S
C1435 H1483 0.930 . S
C1436 N1433 1.279 . S
C1436 C1435 1.358 . S
C1436 H1439 0.930 . S
C1437 C1434 1.348 . S
C1437 C1435 1.356 . S
H1438 C1432 0.930 . S
H1439 C1436 0.930 . S
C1440 C1442 1.348 . S
C1440 C1443 1.356 . S
C1440 O1470 1.325 . S
N1441 C1444 1.314 . S
N1441 C1445 1.279 . S
C1442 C1440 1.348 . S
C1442 C1444 1.353 . S
C1442 H1484 0.929 . S
C1443 C1440 1.356 . S
C1443 C1445 1.358 . S
C1443 H1485 0.930 . S
C1444 N1441 1.314 . S
C1444 C1442 1.353 . S
C1444 H1486 0.930 . S
C1445 N1441 1.279 . S
C1445 C1443 1.358 . S
C1445 H1487 0.930 . S
C1446 C1447 1.348 . S
C1446 C1448 1.356 . S
C1446 O1471 1.325 . S
C1447 C1446 1.348 . S
C1447 C1449 1.353 . S
C1447 H1488 0.929 . S
C1448 C1446 1.356 . S
C1448 C1450 1.358 . S
C1448 H1489 0.930 . S
C1449 C1447 1.353 . S
C1449 N1451 1.314 . S
C1449 H1490 0.930 . S
C1450 C1448 1.358 . S
C1450 N1451 1.279 . S
C1450 H1491 0.930 . S
N1451 C1449 1.314 . S
N1451 C1450 1.279 . S
C1452 C1454 1.353 . S
C1452 N1455 1.314 . S
C1452 H1458 0.930 . S
C1453 N1455 1.279 . S
C1453 C1456 1.358 . S
C1453 H1459 0.930 . S
C1454 C1452 1.353 . S
C1454 C1457 1.348 . S
C1454 H1492 0.929 . S
N1455 Li1410 1.990 . S
N1455 C1452 1.314 . S
N1455 C1453 1.279 . S
C1456 C1453 1.358 . S
C1456 C1457 1.356 . S
C1456 H1493 0.930 . S
C1457 C1454 1.348 . S
C1457 C1456 1.356 . S
H1458 C1452 0.930 . S
H1459 C1453 0.930 . S
C1460 N1461 1.314 . S
C1460 C1462 1.353 . S
C1460 H1466 0.930 . S
N1461 Li1411 1.990 . S
N1461 C1460 1.314 . S
N1461 C1464 1.279 . S
C1462 C1460 1.353 . S
C1462 C1465 1.348 . S
C1462 H1494 0.929 . S
C1463 C1464 1.358 . S
C1463 C1465 1.356 . S
C1463 H1495 0.930 . S
C1464 N1461 1.279 . S
C1464 C1463 1.358 . S
C1464 H1467 0.930 . S
C1465 C1462 1.348 . S
C1465 C1463 1.356 . S
H1466 C1460 0.930 . S
H1467 C1464 0.930 . S
O1468 Li1408 1.956 . S
O1468 Li1409 1.970 . S
O1468 Li1410 1.961 . S
O1468 C1412 1.325 . S
O1469 Li1408 1.970 . S
O1469 Li1409 1.956 . S
O1469 Li1411 1.961 . S
O1469 C1418 1.325 . S
O1470 Li1408 1.961 . S
O1470 Li1410 1.956 . S
O1470 Li1411 1.970 . S
O1470 C1440 1.325 . S
O1471 Li1409 1.961 . S
O1471 Li1410 1.970 . S
O1471 Li1411 1.956 . S
O1471 C1446 1.325 . S
H1472 C1414 0.929 . S
H1473 C1415 0.930 . S
H1474 C1416 0.930 . S
H1475 C1417 0.930 . S
H1476 C1419 0.930 . S
H1477 C1421 0.929 . S
H1478 C1422 0.930 . S
H1479 C1423 0.930 . S
H1480 C1426 0.930 . S
H1481 C1429 0.929 . S
H1482 C1434 0.929 . S
H1483 C1435 0.930 . S
H1484 C1442 0.929 . S
H1485 C1443 0.930 . S
H1486 C1444 0.930 . S
H1487 C1445 0.930 . S
H1488 C1447 0.929 . S
H1489 C1448 0.930 . S
H1490 C1449 0.930 . S
H1491 C1450 0.930 . S
H1492 C1454 0.929 . S
H1493 C1456 0.930 . S
H1494 C1462 0.929 . S
H1495 C1463 0.930 . S
Li1496 N1513 1.990 . S
Li1496 O1556 1.956 . S
Li1496 O1557 1.989 . S
Li1496 O1558 1.961 1_565 S
Li1497 N1521 1.978 1_565 S
Li1497 O1556 1.976 . S
Li1497 O1557 1.947 . S
Li1497 O1559 1.956 1_565 S
Li1498 N1543 1.991 . S
Li1498 O1556 1.959 . S
Li1498 O1558 1.954 1_565 S
Li1498 O1559 1.973 1_565 S
Li1499 N1549 1.990 . S
Li1499 O1557 1.946 1_545 S
Li1499 O1558 1.970 . S
Li1499 O1559 1.956 . S
C1500 C1502 1.348 . S
C1500 C1503 1.356 . S
C1500 O1556 1.325 . S
N1501 C1504 1.314 . S
N1501 C1505 1.279 . S
C1502 C1500 1.348 . S
C1502 C1504 1.353 . S
C1502 H1560 0.929 . S
C1503 C1500 1.356 . S
C1503 C1505 1.358 . S
C1503 H1561 0.930 . S
C1504 N1501 1.314 . S
C1504 C1502 1.353 . S
C1504 H1562 0.930 . S
C1505 N1501 1.279 . S
C1505 C1503 1.358 . S
C1505 H1563 0.930 . S
C1506 C1509 1.367 . S
C1506 C1510 1.339 1_565 S
C1506 O1557 1.325 . S
C1507 N1508 1.278 . S
C1507 C1510 1.358 . S
C1507 H1564 0.930 . S
N1508 C1507 1.278 . S
N1508 C1511 1.316 1_545 S
C1509 C1506 1.367 . S
C1509 C1511 1.353 . S
C1509 H1565 0.929 . S
C1510 C1506 1.339 1_545 S
C1510 C1507 1.358 . S
C1510 H1566 0.930 . S
C1511 N1508 1.316 1_565 S
C1511 C1509 1.353 . S
C1511 H1567 0.930 . S
C1512 N1513 1.314 . S
C1512 C1517 1.353 . S
C1512 H1518 0.930 . S
N1513 Li1496 1.990 . S
N1513 C1512 1.314 . S
N1513 C1515 1.279 . S
C1514 C1515 1.358 . S
C1514 C1516 1.356 . S
C1514 H1568 0.930 . S
C1515 N1513 1.279 . S
C1515 C1514 1.358 . S
C1515 H1519 0.930 . S
C1516 C1514 1.356 . S
C1516 C1517 1.348 . S
C1517 C1512 1.353 . S
C1517 C1516 1.348 . S
C1517 H1569 0.929 . S
H1518 C1512 0.930 . S
H1519 C1515 0.930 . S
C1520 N1521 1.327 . S
C1520 C1522 1.353 . S
C1520 H1526 0.930 . S
N1521 Li1497 1.978 1_545 S
N1521 C1520 1.327 . S
N1521 C1524 1.275 1_545 S
C1522 C1520 1.353 . S
C1522 C1525 1.348 1_545 S
C1522 H1570 0.929 . S
C1523 C1524 1.358 . S
C1523 C1525 1.356 . S
C1523 H1571 0.930 . S
C1524 N1521 1.275 1_565 S
C1524 C1523 1.358 . S
C1524 H1527 0.930 . S
C1525 C1522 1.348 1_565 S
C1525 C1523 1.356 . S
H1526 C1520 0.930 . S
H1527 C1524 0.930 . S
C1528 C1530 1.348 . S
C1528 C1531 1.356 1_545 S
C1528 O1558 1.325 . S
N1529 C1532 1.314 . S
N1529 C1533 1.279 1_545 S
C1530 C1528 1.348 . S
C1530 C1532 1.353 . S
C1530 H1572 0.929 . S
C1531 C1528 1.356 1_565 S
C1531 C1533 1.358 . S
C1531 H1573 0.930 . S
C1532 N1529 1.314 . S
C1532 C1530 1.353 . S
C1532 H1574 0.930 . S
C1533 N1529 1.279 1_565 S
C1533 C1531 1.358 . S
C1533 H1575 0.930 . S
C1534 C1535 1.348 . S
C1534 C1536 1.356 . S
C1534 O1559 1.325 . S
C1535 C1534 1.348 . S
C1535 C1537 1.353 . S
C1535 H1576 0.929 . S
C1536 C1534 1.356 . S
C1536 C1538 1.358 . S
C1536 H1577 0.930 . S
C1537 C1535 1.353 . S
C1537 N1539 1.314 . S
C1537 H1578 0.930 . S
C1538 C1536 1.358 . S
C1538 N1539 1.279 . S
C1538 H1579 0.930 . S
N1539 C1537 1.314 . S
N1539 C1538 1.279 . S
C1540 C1542 1.353 . S
C1540 N1543 1.314 . S
C1540 H1546 0.930 . S
C1541 N1543 1.279 1_545 S
C1541 C1544 1.358 . S
C1541 H1547 0.930 . S
C1542 C1540 1.353 . S
C1542 C1545 1.348 1_565 S
C1542 H1580 0.929 . S
N1543 Li1498 1.991 . S
N1543 C1540 1.314 . S
N1543 C1541 1.279 1_565 S
C1544 C1541 1.358 . S
C1544 C1545 1.356 . S
C1544 H1581 0.930 . S
C1545 C1542 1.348 1_545 S
C1545 C1544 1.356 . S
H1546 C1540 0.930 . S
H1547 C1541 0.930 . S
C1548 N1549 1.314 . S
C1548 C1550 1.353 . S
C1548 H1554 0.930 . S
N1549 Li1499 1.990 . S
N1549 C1548 1.314 . S
N1549 C1552 1.279 . S
C1550 C1548 1.353 . S
C1550 C1553 1.348 . S
C1550 H1582 0.929 . S
C1551 C1552 1.358 . S
C1551 C1553 1.356 . S
C1551 H1583 0.930 . S
C1552 N1549 1.279 . S
C1552 C1551 1.358 . S
C1552 H1555 0.930 . S
C1553 C1550 1.348 . S
C1553 C1551 1.356 . S
H1554 C1548 0.930 . S
H1555 C1552 0.930 . S
O1556 Li1496 1.956 . S
O1556 Li1497 1.976 . S
O1556 Li1498 1.959 . S
O1556 C1500 1.325 . S
O1557 Li1496 1.989 . S
O1557 Li1497 1.947 . S
O1557 Li1499 1.946 1_565 S
O1557 C1506 1.325 . S
O1558 Li1496 1.961 1_545 S
O1558 Li1498 1.954 1_545 S
O1558 Li1499 1.970 . S
O1558 C1528 1.325 . S
O1559 Li1497 1.956 1_545 S
O1559 Li1498 1.973 1_545 S
O1559 Li1499 1.956 . S
O1559 C1534 1.325 . S
H1560 C1502 0.929 . S
H1561 C1503 0.930 . S
H1562 C1504 0.930 . S
H1563 C1505 0.930 . S
H1564 C1507 0.930 . S
H1565 C1509 0.929 . S
H1566 C1510 0.930 . S
H1567 C1511 0.930 . S
H1568 C1514 0.930 . S
H1569 C1517 0.929 . S
H1570 C1522 0.929 . S
H1571 C1523 0.930 . S
H1572 C1530 0.929 . S
H1573 C1531 0.930 . S
H1574 C1532 0.930 . S
H1575 C1533 0.930 . S
H1576 C1535 0.929 . S
H1577 C1536 0.930 . S
H1578 C1537 0.930 . S
H1579 C1538 0.930 . S
H1580 C1542 0.929 . S
H1581 C1544 0.930 . S
H1582 C1550 0.929 . S
H1583 C1551 0.930 . S
C1584 C1585 1.363 1_565 S
C1584 C1590 1.379 . S
C1584 N1592 1.356 . S
C1585 C1584 1.363 1_545 S
C1585 C1591 1.363 1_554 S
C1586 C1587 1.363 1_545 S
C1586 C1591 1.379 . S
C1586 N1593 1.356 . S
C1587 C1586 1.363 1_565 S
C1587 C1590 1.363 1_556 S
N1588 C1590 1.356 . S
N1588 H1600 0.984 . S
N1588 H1601 0.985 1_554 S
N1589 C1591 1.363 . S
N1589 H1594 0.936 1_556 S
N1589 H1595 1.029 . S
C1590 C1584 1.379 . S
C1590 C1587 1.363 1_554 S
C1590 N1588 1.356 . S
C1591 C1585 1.363 1_556 S
C1591 C1586 1.379 . S
C1591 N1589 1.363 . S
N1592 C1584 1.356 . S
N1592 H1598 0.984 . S
N1592 H1599 0.984 . S
N1593 C1586 1.356 . S
N1593 H1596 0.984 . S
N1593 H1597 0.985 . S
H1594 N1589 0.936 1_554 S
H1595 N1589 1.029 . S
H1596 N1593 0.984 . S
H1597 N1593 0.985 . S
H1598 N1592 0.984 . S
H1599 N1592 0.984 . S
H1600 N1588 0.984 . S
H1601 N1588 0.985 1_556 S
C1602 C1603 1.363 . S
C1602 C1608 1.379 . S
C1602 N1610 1.356 . S
C1603 C1602 1.363 . S
C1603 C1609 1.363 1_654 S
C1604 C1605 1.363 . S
C1604 C1609 1.379 . S
C1604 N1611 1.356 . S
C1605 C1604 1.363 . S
C1605 C1608 1.363 1_456 S
N1606 C1608 1.356 1_556 S
N1606 H1618 0.984 1_556 S
N1606 H1619 0.985 1_655 S
N1607 C1609 1.339 1_554 S
N1607 H1612 0.978 1_455 S
N1607 H1613 1.010 1_554 S
C1608 C1602 1.379 . S
C1608 C1605 1.363 1_654 S
C1608 N1606 1.356 1_554 S
C1609 C1603 1.363 1_456 S
C1609 C1604 1.379 . S
C1609 N1607 1.339 1_556 S
N1610 C1602 1.356 . S
N1610 H1616 0.984 . S
N1610 H1617 0.984 . S
N1611 C1604 1.356 . S
N1611 H1614 0.984 . S
N1611 H1615 0.985 . S
H1612 N1607 0.978 1_655 S
H1613 N1607 1.010 1_556 S
H1614 N1611 0.984 . S
H1615 N1611 0.985 . S
H1616 N1610 0.984 . S
H1617 N1610 0.984 . S
H1618 N1606 0.984 1_554 S
H1619 N1606 0.985 1_455 S
C1620 C1621 1.363 1_554 S
C1620 C1626 1.379 . S
C1620 N1628 1.355 1_554 S
C1621 C1620 1.363 1_556 S
C1621 C1627 1.363 . S
C1622 C1623 1.363 1_556 S
C1622 C1627 1.379 . S
C1622 N1629 1.356 . S
C1623 C1622 1.363 1_554 S
C1623 C1626 1.363 . S
N1624 C1626 1.356 . S
N1624 H1636 0.984 . S
N1624 H1637 0.985 . S
N1625 C1627 1.356 . S
N1625 H1630 0.984 . S
N1625 H1631 0.985 . S
C1626 C1620 1.379 . S
C1626 C1623 1.363 . S
C1626 N1624 1.356 . S
C1627 C1621 1.363 . S
C1627 C1622 1.379 . S
C1627 N1625 1.356 . S
N1628 C1620 1.355 1_556 S
N1628 H1634 0.979 1_556 S
N1628 H1635 0.991 . S
N1629 C1622 1.356 . S
N1629 H1632 0.984 1_556 S
N1629 H1633 0.985 . S
H1630 N1625 0.984 . S
H1631 N1625 0.985 . S
H1632 N1629 0.984 1_554 S
H1633 N1629 0.985 . S
H1634 N1628 0.979 1_554 S
H1635 N1628 0.991 . S
H1636 N1624 0.984 . S
H1637 N1624 0.985 . S
C1638 C1639 1.363 . S
C1638 C1644 1.379 . S
C1638 N1646 1.356 . S
C1639 C1638 1.363 . S
C1639 C1645 1.363 . S
C1640 C1641 1.363 . S
C1640 C1645 1.379 . S
C1640 N1647 1.356 . S
C1641 C1640 1.363 . S
C1641 C1644 1.363 . S
N1642 C1644 1.356 . S
N1642 H1654 0.984 . S
N1642 H1655 0.985 . S
N1643 C1645 1.356 . S
N1643 H1648 0.984 . S
N1643 H1649 0.985 . S
C1644 C1638 1.379 . S
C1644 C1641 1.363 . S
C1644 N1642 1.356 . S
C1645 C1639 1.363 . S
C1645 C1640 1.379 . S
C1645 N1643 1.356 . S
N1646 C1638 1.356 . S
N1646 H1652 0.984 . S
N1646 H1653 0.984 . S
N1647 C1640 1.356 . S
N1647 H1650 0.984 . S
N1647 H1651 0.985 . S
H1648 N1643 0.984 . S
H1649 N1643 0.985 . S
H1650 N1647 0.984 . S
H1651 N1647 0.985 . S
H1652 N1646 0.984 . S
H1653 N1646 0.984 . S
H1654 N1642 0.984 . S
H1655 N1642 0.985 . S
C1656 C1657 1.363 . S
C1656 C1662 1.379 . S
C1656 N1664 1.356 . S
C1657 C1656 1.363 . S
C1657 C1663 1.363 . S
C1658 C1659 1.363 . S
C1658 C1663 1.379 . S
C1658 N1665 1.356 . S
C1659 C1658 1.363 . S
C1659 C1662 1.363 . S
N1660 C1662 1.356 . S
N1660 H1672 0.984 . S
N1660 H1673 0.985 . S
N1661 C1663 1.356 . S
N1661 H1666 0.984 . S
N1661 H1667 0.985 . S
C1662 C1656 1.379 . S
C1662 C1659 1.363 . S
C1662 N1660 1.356 . S
C1663 C1657 1.363 . S
C1663 C1658 1.379 . S
C1663 N1661 1.356 . S
N1664 C1656 1.356 . S
N1664 H1670 0.984 . S
N1664 H1671 0.984 . S
N1665 C1658 1.356 . S
N1665 H1668 0.984 . S
N1665 H1669 0.985 . S
H1666 N1661 0.984 . S
H1667 N1661 0.985 . S
H1668 N1665 0.984 . S
H1669 N1665 0.985 . S
H1670 N1664 0.984 . S
H1671 N1664 0.984 . S
H1672 N1660 0.984 . S
H1673 N1660 0.985 . S
C1674 C1675 1.363 . S
C1674 C1680 1.379 . S
C1674 N1682 1.356 . S
C1675 C1674 1.363 . S
C1675 C1681 1.363 . S
C1676 C1677 1.363 . S
C1676 C1681 1.379 . S
C1676 N1683 1.356 . S
C1677 C1676 1.363 . S
C1677 C1680 1.363 . S
N1678 C1680 1.356 . S
N1678 H1690 0.984 . S
N1678 H1691 0.985 . S
N1679 C1681 1.356 . S
N1679 H1684 0.984 . S
N1679 H1685 0.985 . S
C1680 C1674 1.379 . S
C1680 C1677 1.363 . S
C1680 N1678 1.356 . S
C1681 C1675 1.363 . S
C1681 C1676 1.379 . S
C1681 N1679 1.356 . S
N1682 C1674 1.356 . S
N1682 H1688 0.984 . S
N1682 H1689 0.984 . S
N1683 C1676 1.356 . S
N1683 H1686 0.984 . S
N1683 H1687 0.985 . S
H1684 N1679 0.984 . S
H1685 N1679 0.985 . S
H1686 N1683 0.984 . S
H1687 N1683 0.985 . S
H1688 N1682 0.984 . S
H1689 N1682 0.984 . S
H1690 N1678 0.984 . S
H1691 N1678 0.985 . S
C1692 C1693 1.363 . S
C1692 C1698 1.379 . S
C1692 N1700 1.356 . S
C1693 C1692 1.363 . S
C1693 C1699 1.363 . S
C1694 C1695 1.363 . S
C1694 C1699 1.379 . S
C1694 N1701 1.356 . S
C1695 C1694 1.363 . S
C1695 C1698 1.363 . S
N1696 C1698 1.356 . S
N1696 H1708 0.984 . S
N1696 H1709 0.985 . S
N1697 C1699 1.356 . S
N1697 H1702 0.984 . S
N1697 H1703 0.985 . S
C1698 C1692 1.379 . S
C1698 C1695 1.363 . S
C1698 N1696 1.356 . S
C1699 C1693 1.363 . S
C1699 C1694 1.379 . S
C1699 N1697 1.356 . S
N1700 C1692 1.356 . S
N1700 H1706 0.984 . S
N1700 H1707 0.984 . S
N1701 C1694 1.356 . S
N1701 H1704 0.984 . S
N1701 H1705 0.985 . S
H1702 N1697 0.984 . S
H1703 N1697 0.985 . S
H1704 N1701 0.984 . S
H1705 N1701 0.985 . S
H1706 N1700 0.984 . S
H1707 N1700 0.984 . S
H1708 N1696 0.984 . S
H1709 N1696 0.985 . S
C1710 C1711 1.363 . S
C1710 C1716 1.379 . S
C1710 N1718 1.356 . S
C1711 C1710 1.363 . S
C1711 C1717 1.363 . S
C1712 C1713 1.363 . S
C1712 C1717 1.379 . S
C1712 N1719 1.356 . S
C1713 C1712 1.363 . S
C1713 C1716 1.363 . S
N1714 C1716 1.356 . S
N1714 H1726 0.984 . S
N1714 H1727 0.985 . S
N1715 C1717 1.356 . S
N1715 H1720 0.984 . S
N1715 H1721 0.985 . S
C1716 C1710 1.379 . S
C1716 C1713 1.363 . S
C1716 N1714 1.356 . S
C1717 C1711 1.363 . S
C1717 C1712 1.379 . S
C1717 N1715 1.356 . S
N1718 C1710 1.356 . S
N1718 H1724 0.984 . S
N1718 H1725 0.984 . S
N1719 C1712 1.356 . S
N1719 H1722 0.984 . S
N1719 H1723 0.985 . S
H1720 N1715 0.984 . S
H1721 N1715 0.985 . S
H1722 N1719 0.984 . S
H1723 N1719 0.985 . S
H1724 N1718 0.984 . S
H1725 N1718 0.984 . S
H1726 N1714 0.984 . S
H1727 N1714 0.985 . S
C1728 C1729 1.363 . S
C1728 C1734 1.379 . S
C1728 N1736 1.356 . S
C1729 C1728 1.363 . S
C1729 C1735 1.363 . S
C1730 C1731 1.363 . S
C1730 C1735 1.379 . S
C1730 N1737 1.356 . S
C1731 C1730 1.363 . S
C1731 C1734 1.363 . S
N1732 C1734 1.356 . S
N1732 H1744 0.984 . S
N1732 H1745 0.985 . S
N1733 C1735 1.356 . S
N1733 H1738 0.984 . S
N1733 H1739 0.985 . S
C1734 C1728 1.379 . S
C1734 C1731 1.363 . S
C1734 N1732 1.356 . S
C1735 C1729 1.363 . S
C1735 C1730 1.379 . S
C1735 N1733 1.356 . S
N1736 C1728 1.356 . S
N1736 H1742 0.984 . S
N1736 H1743 0.984 . S
N1737 C1730 1.356 . S
N1737 H1740 0.984 . S
N1737 H1741 0.985 . S
H1738 N1733 0.984 . S
H1739 N1733 0.985 . S
H1740 N1737 0.984 . S
H1741 N1737 0.985 . S
H1742 N1736 0.984 . S
H1743 N1736 0.984 . S
H1744 N1732 0.984 . S
H1745 N1732 0.985 . S
C1746 C1747 1.363 . S
C1746 C1752 1.379 . S
C1746 N1754 1.356 . S
C1747 C1746 1.363 . S
C1747 C1753 1.363 . S
C1748 C1749 1.363 . S
C1748 C1753 1.379 . S
C1748 N1755 1.356 . S
C1749 C1748 1.363 . S
C1749 C1752 1.363 . S
N1750 C1752 1.356 . S
N1750 H1762 0.984 . S
N1750 H1763 0.985 . S
N1751 C1753 1.356 . S
N1751 H1756 0.984 . S
N1751 H1757 0.985 . S
C1752 C1746 1.379 . S
C1752 C1749 1.363 . S
C1752 N1750 1.356 . S
C1753 C1747 1.363 . S
C1753 C1748 1.379 . S
C1753 N1751 1.356 . S
N1754 C1746 1.356 . S
N1754 H1760 0.984 . S
N1754 H1761 0.984 . S
N1755 C1748 1.356 . S
N1755 H1758 0.984 . S
N1755 H1759 0.985 . S
H1756 N1751 0.984 . S
H1757 N1751 0.985 . S
H1758 N1755 0.984 . S
H1759 N1755 0.985 . S
H1760 N1754 0.984 . S
H1761 N1754 0.984 . S
H1762 N1750 0.984 . S
H1763 N1750 0.985 . S
C1764 C1765 1.363 . S
C1764 C1770 1.379 . S
C1764 N1772 1.356 . S
C1765 C1764 1.363 . S
C1765 C1771 1.363 . S
C1766 C1767 1.363 . S
C1766 C1771 1.379 . S
C1766 N1773 1.356 . S
C1767 C1766 1.363 . S
C1767 C1770 1.363 . S
N1768 C1770 1.356 . S
N1768 H1780 0.984 . S
N1768 H1781 0.985 . S
N1769 C1771 1.356 . S
N1769 H1774 0.984 . S
N1769 H1775 0.985 . S
C1770 C1764 1.379 . S
C1770 C1767 1.363 . S
C1770 N1768 1.356 . S
C1771 C1765 1.363 . S
C1771 C1766 1.379 . S
C1771 N1769 1.356 . S
N1772 C1764 1.356 . S
N1772 H1778 0.984 . S
N1772 H1779 0.984 . S
N1773 C1766 1.356 . S
N1773 H1776 0.984 . S
N1773 H1777 0.985 . S
H1774 N1769 0.984 . S
H1775 N1769 0.985 . S
H1776 N1773 0.984 . S
H1777 N1773 0.985 . S
H1778 N1772 0.984 . S
H1779 N1772 0.984 . S
H1780 N1768 0.984 . S
H1781 N1768 0.985 . S
C1782 C1783 1.363 . S
C1782 C1788 1.379 . S
C1782 N1790 1.356 . S
C1783 C1782 1.363 . S
C1783 C1789 1.363 . S
C1784 C1785 1.363 . S
C1784 C1789 1.379 . S
C1784 N1791 1.356 . S
C1785 C1784 1.363 . S
C1785 C1788 1.363 . S
N1786 C1788 1.356 . S
N1786 H1798 0.984 . S
N1786 H1799 0.985 . S
N1787 C1789 1.356 . S
N1787 H1792 0.984 . S
N1787 H1793 0.985 . S
C1788 C1782 1.379 . S
C1788 C1785 1.363 . S
C1788 N1786 1.356 . S
C1789 C1783 1.363 . S
C1789 C1784 1.379 . S
C1789 N1787 1.356 . S
N1790 C1782 1.356 . S
N1790 H1796 0.984 . S
N1790 H1797 0.984 . S
N1791 C1784 1.356 . S
N1791 H1794 0.984 . S
N1791 H1795 0.985 . S
H1792 N1787 0.984 . S
H1793 N1787 0.985 . S
H1794 N1791 0.984 . S
H1795 N1791 0.985 . S
H1796 N1790 0.984 . S
H1797 N1790 0.984 . S
H1798 N1786 0.984 . S
H1799 N1786 0.985 . S
C1800 C1801 1.363 . S
C1800 C1806 1.379 . S
C1800 N1808 1.356 . S
C1801 C1800 1.363 . S
C1801 C1807 1.363 . S
C1802 C1803 1.363 . S
C1802 C1807 1.379 . S
C1802 N1809 1.356 . S
C1803 C1802 1.363 . S
C1803 C1806 1.363 . S
N1804 C1806 1.356 . S
N1804 H1816 0.984 . S
N1804 H1817 0.985 . S
N1805 C1807 1.356 . S
N1805 H1810 0.984 . S
N1805 H1811 0.985 . S
C1806 C1800 1.379 . S
C1806 C1803 1.363 . S
C1806 N1804 1.356 . S
C1807 C1801 1.363 . S
C1807 C1802 1.379 . S
C1807 N1805 1.356 . S
N1808 C1800 1.356 . S
N1808 H1814 0.984 . S
N1808 H1815 0.984 . S
N1809 C1802 1.356 . S
N1809 H1812 0.984 . S
N1809 H1813 0.985 . S
H1810 N1805 0.984 . S
H1811 N1805 0.985 . S
H1812 N1809 0.984 . S
H1813 N1809 0.985 . S
H1814 N1808 0.984 . S
H1815 N1808 0.984 . S
H1816 N1804 0.984 . S
H1817 N1804 0.985 . S
C1818 C1819 1.363 . S
C1818 C1824 1.379 . S
C1818 N1826 1.356 . S
C1819 C1818 1.363 . S
C1819 C1825 1.363 . S
C1820 C1821 1.363 . S
C1820 C1825 1.379 . S
C1820 N1827 1.356 . S
C1821 C1820 1.363 . S
C1821 C1824 1.363 . S
N1822 C1824 1.356 . S
N1822 H1834 0.984 . S
N1822 H1835 0.985 . S
N1823 C1825 1.356 . S
N1823 H1828 0.984 . S
N1823 H1829 0.985 . S
C1824 C1818 1.379 . S
C1824 C1821 1.363 . S
C1824 N1822 1.356 . S
C1825 C1819 1.363 . S
C1825 C1820 1.379 . S
C1825 N1823 1.356 . S
N1826 C1818 1.356 . S
N1826 H1832 0.984 . S
N1826 H1833 0.984 . S
N1827 C1820 1.356 . S
N1827 H1830 0.984 . S
N1827 H1831 0.985 . S
H1828 N1823 0.984 . S
H1829 N1823 0.985 . S
H1830 N1827 0.984 . S
H1831 N1827 0.985 . S
H1832 N1826 0.984 . S
H1833 N1826 0.984 . S
H1834 N1822 0.984 . S
H1835 N1822 0.985 . S
C1836 C1837 1.363 . S
C1836 C1842 1.379 . S
C1836 N1844 1.356 . S
C1837 C1836 1.363 . S
C1837 C1843 1.363 . S
C1838 C1839 1.363 . S
C1838 C1843 1.379 . S
C1838 N1845 1.356 . S
C1839 C1838 1.363 . S
C1839 C1842 1.363 . S
N1840 C1842 1.356 . S
N1840 H1852 0.984 . S
N1840 H1853 0.985 . S
N1841 C1843 1.356 . S
N1841 H1846 0.984 . S
N1841 H1847 0.985 . S
C1842 C1836 1.379 . S
C1842 C1839 1.363 . S
C1842 N1840 1.356 . S
C1843 C1837 1.363 . S
C1843 C1838 1.379 . S
C1843 N1841 1.356 . S
N1844 C1836 1.356 . S
N1844 H1850 0.984 . S
N1844 H1851 0.984 . S
N1845 C1838 1.356 . S
N1845 H1848 0.984 . S
N1845 H1849 0.985 . S
H1846 N1841 0.984 . S
H1847 N1841 0.985 . S
H1848 N1845 0.984 . S
H1849 N1845 0.985 . S
H1850 N1844 0.984 . S
H1851 N1844 0.984 . S
H1852 N1840 0.984 . S
H1853 N1840 0.985 . S
C1854 C1855 1.363 . S
C1854 C1860 1.379 . S
C1854 N1862 1.356 . S
C1855 C1854 1.363 . S
C1855 C1861 1.363 1_455 S
C1856 C1857 1.361 1_655 S
C1856 C1861 1.379 . S
C1856 N1863 1.356 . S
C1857 C1856 1.361 1_455 S
C1857 C1860 1.371 . S
N1858 C1860 1.356 . S
N1858 H1870 0.984 . S
N1858 H1871 0.985 . S
N1859 C1861 1.356 . S
N1859 H1864 0.984 . S
N1859 H1865 0.985 . S
C1860 C1854 1.379 . S
C1860 C1857 1.371 . S
C1860 N1858 1.356 . S
C1861 C1855 1.363 1_655 S
C1861 C1856 1.379 . S
C1861 N1859 1.356 . S
N1862 C1854 1.356 . S
N1862 H1868 0.984 . S
N1862 H1869 0.984 . S
N1863 C1856 1.356 . S
N1863 H1866 0.984 . S
N1863 H1867 0.985 . S
H1864 N1859 0.984 . S
H1865 N1859 0.985 . S
H1866 N1863 0.984 . S
H1867 N1863 0.985 . S
H1868 N1862 0.984 . S
H1869 N1862 0.984 . S
H1870 N1858 0.984 . S
H1871 N1858 0.985 . S
C1872 C1873 1.363 . S
C1872 C1878 1.379 . S
C1872 N1880 1.356 . S
C1873 C1872 1.363 . S
C1873 C1879 1.363 . S
C1874 C1875 1.363 . S
C1874 C1879 1.379 . S
C1874 N1881 1.356 . S
C1875 C1874 1.363 . S
C1875 C1878 1.363 . S
N1876 C1878 1.356 . S
N1876 H1888 0.984 . S
N1876 H1889 0.985 . S
N1877 C1879 1.356 . S
N1877 H1882 0.984 . S
N1877 H1883 0.985 . S
C1878 C1872 1.379 . S
C1878 C1875 1.363 . S
C1878 N1876 1.356 . S
C1879 C1873 1.363 . S
C1879 C1874 1.379 . S
C1879 N1877 1.356 . S
N1880 C1872 1.356 . S
N1880 H1886 0.984 . S
N1880 H1887 0.984 . S
N1881 C1874 1.356 . S
N1881 H1884 0.984 . S
N1881 H1885 0.985 . S
H1882 N1877 0.984 . S
H1883 N1877 0.985 . S
H1884 N1881 0.984 . S
H1885 N1881 0.985 . S
H1886 N1880 0.984 . S
H1887 N1880 0.984 . S
H1888 N1876 0.984 . S
H1889 N1876 0.985 . S
C1890 C1891 1.363 . S
C1890 C1896 1.379 . S
C1890 N1898 1.356 . S
C1891 C1890 1.363 . S
C1891 C1897 1.363 1_545 S
C1892 C1893 1.370 . S
C1892 C1897 1.379 . S
C1892 N1899 1.356 . S
C1893 C1892 1.370 . S
C1893 C1896 1.361 1_565 S
N1894 C1896 1.356 . S
N1894 H1906 0.984 . S
N1894 H1907 0.985 . S
N1895 C1897 1.356 . S
N1895 H1900 0.984 . S
N1895 H1901 0.985 . S
C1896 C1890 1.379 . S
C1896 C1893 1.361 1_545 S
C1896 N1894 1.356 . S
C1897 C1891 1.363 1_565 S
C1897 C1892 1.379 . S
C1897 N1895 1.356 . S
N1898 C1890 1.356 . S
N1898 H1904 0.984 . S
N1898 H1905 0.984 . S
N1899 C1892 1.356 . S
N1899 H1902 0.984 . S
N1899 H1903 0.985 . S
H1900 N1895 0.984 . S
H1901 N1895 0.985 . S
H1902 N1899 0.984 . S
H1903 N1899 0.985 . S
H1904 N1898 0.984 . S
H1905 N1898 0.984 . S
H1906 N1894 0.984 . S
H1907 N1894 0.985 . S
C1908 C1909 1.363 . S
C1908 C1914 1.379 . S
C1908 N1916 1.356 . S
C1909 C1908 1.363 . S
C1909 C1915 1.363 . S
C1910 C1911 1.363 . S
C1910 C1915 1.379 . S
C1910 N1917 1.356 1_554 S
C1911 C1910 1.363 . S
C1911 C1914 1.363 . S
N1912 C1914 1.356 . S
N1912 H1924 0.984 . S
N1912 H1925 0.985 1_554 S
N1913 C1915 1.356 . S
N1913 H1918 0.984 . S
N1913 H1919 0.985 . S
C1914 C1908 1.379 . S
C1914 C1911 1.363 . S
C1914 N1912 1.356 . S
C1915 C1909 1.363 . S
C1915 C1910 1.379 . S
C1915 N1913 1.356 . S
N1916 C1908 1.356 . S
N1916 H1922 0.984 . S
N1916 H1923 0.984 . S
N1917 C1910 1.356 1_556 S
N1917 H1920 0.984 . S
N1917 H1921 0.985 . S
H1918 N1913 0.984 . S
H1919 N1913 0.985 . S
H1920 N1917 0.984 . S
H1921 N1917 0.985 . S
H1922 N1916 0.984 . S
H1923 N1916 0.984 . S
H1924 N1912 0.984 . S
H1925 N1912 0.985 1_556 S
C1926 C1927 1.363 . S
C1926 C1932 1.379 . S
C1926 N1934 1.356 . S
C1927 C1926 1.363 . S
C1927 C1933 1.363 . S
C1928 C1929 1.363 . S
C1928 C1933 1.379 . S
C1928 N1935 1.342 1_554 S
C1929 C1928 1.363 . S
C1929 C1932 1.363 . S
N1930 C1932 1.356 1_556 S
N1930 H1942 0.984 . S
N1930 H1943 0.985 . S
N1931 C1933 1.356 . S
N1931 H1936 0.984 . S
N1931 H1937 0.985 . S
C1932 C1926 1.379 . S
C1932 C1929 1.363 . S
C1932 N1930 1.356 1_554 S
C1933 C1927 1.363 . S
C1933 C1928 1.379 . S
C1933 N1931 1.356 . S
N1934 C1926 1.356 . S
N1934 H1940 0.984 . S
N1934 H1941 0.984 . S
N1935 C1928 1.342 1_556 S
N1935 H1938 1.005 . S
N1935 H1939 0.979 1_556 S
H1936 N1931 0.984 . S
H1937 N1931 0.985 . S
H1938 N1935 1.005 . S
H1939 N1935 0.979 1_554 S
H1940 N1934 0.984 . S
H1941 N1934 0.984 . S
H1942 N1930 0.984 . S
H1943 N1930 0.985 . S
C1944 C1945 1.363 . S
C1944 C1950 1.379 . S
C1944 N1952 1.356 . S
C1945 C1944 1.363 . S
C1945 C1951 1.363 . S
C1946 C1947 1.363 . S
C1946 C1951 1.379 . S
C1946 N1953 1.356 . S
C1947 C1946 1.363 . S
C1947 C1950 1.363 . S
N1948 C1950 1.356 1_556 S
N1948 H1960 0.984 . S
N1948 H1961 0.985 . S
N1949 C1951 1.356 . S
N1949 H1954 0.984 . S
N1949 H1955 0.985 . S
C1950 C1944 1.379 . S
C1950 C1947 1.363 . S
C1950 N1948 1.356 1_554 S
C1951 C1945 1.363 . S
C1951 C1946 1.379 . S
C1951 N1949 1.356 . S
N1952 C1944 1.356 . S
N1952 H1958 0.984 . S
N1952 H1959 0.984 . S
N1953 C1946 1.356 . S
N1953 H1956 1.035 . S
N1953 H1957 0.985 . S
H1954 N1949 0.984 . S
H1955 N1949 0.985 . S
H1956 N1953 1.035 . S
H1957 N1953 0.985 . S
H1958 N1952 0.984 . S
H1959 N1952 0.984 . S
H1960 N1948 0.984 . S
H1961 N1948 0.985 . S
C1962 C1963 1.363 . S
C1962 C1968 1.379 . S
C1962 N1970 1.356 . S
C1963 C1962 1.363 . S
C1963 C1969 1.363 . S
C1964 C1965 1.363 . S
C1964 C1969 1.379 . S
C1964 N1971 1.356 1_556 S
C1965 C1964 1.363 . S
C1965 C1968 1.363 . S
N1966 C1968 1.356 . S
N1966 H1978 0.984 . S
N1966 H1979 0.988 1_556 S
N1967 C1969 1.356 . S
N1967 H1972 0.984 . S
N1967 H1973 0.985 . S
C1968 C1962 1.379 . S
C1968 C1965 1.363 . S
C1968 N1966 1.356 . S
C1969 C1963 1.363 . S
C1969 C1964 1.379 . S
C1969 N1967 1.356 . S
N1970 C1962 1.356 . S
N1970 H1976 0.984 . S
N1970 H1977 0.984 . S
N1971 C1964 1.356 1_554 S
N1971 H1974 0.984 . S
N1971 H1975 0.985 . S
H1972 N1967 0.984 . S
H1973 N1967 0.985 . S
H1974 N1971 0.984 . S
H1975 N1971 0.985 . S
H1976 N1970 0.984 . S
H1977 N1970 0.984 . S
H1978 N1966 0.984 . S
H1979 N1966 0.988 1_554 S
C1980 C1981 1.363 . S
C1980 C1986 1.379 . S
C1980 N1988 1.356 1_556 S
C1981 C1980 1.363 . S
C1981 C1987 1.363 . S
C1982 C1983 1.363 . S
C1982 C1987 1.379 . S
C1982 N1989 1.356 . S
C1983 C1982 1.363 . S
C1983 C1986 1.363 . S
N1984 C1986 1.356 . S
N1984 H1996 0.984 . S
N1984 H1997 0.985 . S
N1985 C1987 1.354 1_554 S
N1985 H1990 0.988 . S
N1985 H1991 0.984 1_554 S
C1986 C1980 1.379 . S
C1986 C1983 1.363 . S
C1986 N1984 1.356 . S
C1987 C1981 1.363 . S
C1987 C1982 1.379 . S
C1987 N1985 1.354 1_556 S
N1988 C1980 1.356 1_554 S
N1988 H1994 0.984 1_554 S
N1988 H1995 0.984 . S
N1989 C1982 1.356 . S
N1989 H1992 0.984 . S
N1989 H1993 0.985 . S
H1990 N1985 0.988 . S
H1991 N1985 0.984 1_556 S
H1992 N1989 0.984 . S
H1993 N1989 0.985 . S
H1994 N1988 0.984 1_556 S
H1995 N1988 0.984 . S
H1996 N1984 0.984 . S
H1997 N1984 0.985 . S
C1998 C1999 1.363 . S
C1998 C2004 1.379 . S
C1998 N2006 1.356 . S
C1999 C1998 1.363 . S
C1999 C2005 1.363 . S
C2000 C2001 1.363 . S
C2000 C2005 1.379 . S
C2000 N2007 1.329 1_556 S
C2001 C2000 1.363 . S
C2001 C2004 1.363 . S
N2002 C2004 1.356 . S
N2002 H2014 0.984 . S
N2002 H2015 0.985 1_556 S
N2003 C2005 1.356 . S
N2003 H2008 0.984 . S
N2003 H2009 0.985 . S
C2004 C1998 1.379 . S
C2004 C2001 1.363 . S
C2004 N2002 1.356 . S
C2005 C1999 1.363 . S
C2005 C2000 1.379 . S
C2005 N2003 1.356 . S
N2006 C1998 1.356 . S
N2006 H2012 0.984 . S
N2006 H2013 0.984 . S
N2007 C2000 1.329 1_554 S
N2007 H2010 1.018 . S
N2007 H2011 0.979 1_554 S
H2008 N2003 0.984 . S
H2009 N2003 0.985 . S
H2010 N2007 1.018 . S
H2011 N2007 0.979 1_556 S
H2012 N2006 0.984 . S
H2013 N2006 0.984 . S
H2014 N2002 0.984 . S
H2015 N2002 0.985 1_554 S
C2016 C2017 1.363 . S
C2016 C2022 1.379 . S
C2016 N2024 1.356 . S
C2017 C2016 1.363 . S
C2017 C2023 1.363 . S
C2018 C2019 1.363 . S
C2018 C2023 1.379 . S
C2018 N2025 1.356 . S
C2019 C2018 1.363 . S
C2019 C2022 1.363 . S
N2020 C2022 1.356 . S
N2020 H2032 0.984 . S
N2020 H2033 0.985 . S
N2021 C2023 1.356 . S
N2021 H2026 0.984 . S
N2021 H2027 0.985 . S
C2022 C2016 1.379 . S
C2022 C2019 1.363 . S
C2022 N2020 1.356 . S
C2023 C2017 1.363 . S
C2023 C2018 1.379 . S
C2023 N2021 1.356 . S
N2024 C2016 1.356 . S
N2024 H2030 0.984 . S
N2024 H2031 0.984 . S
N2025 C2018 1.356 . S
N2025 H2028 0.984 . S
N2025 H2029 0.985 . S
H2026 N2021 0.984 . S
H2027 N2021 0.985 . S
H2028 N2025 0.984 . S
H2029 N2025 0.985 . S
H2030 N2024 0.984 . S
H2031 N2024 0.984 . S
H2032 N2020 0.984 . S
H2033 N2020 0.985 . S
C2034 C2035 1.363 . S
C2034 C2040 1.379 . S
C2034 N2042 1.356 . S
C2035 C2034 1.363 . S
C2035 C2041 1.363 . S
C2036 C2037 1.363 . S
C2036 C2041 1.379 . S
C2036 N2043 1.356 . S
C2037 C2036 1.363 . S
C2037 C2040 1.363 . S
N2038 C2040 1.356 . S
N2038 H2050 0.984 . S
N2038 H2051 0.985 . S
N2039 C2041 1.356 . S
N2039 H2044 0.984 . S
N2039 H2045 0.985 . S
C2040 C2034 1.379 . S
C2040 C2037 1.363 . S
C2040 N2038 1.356 . S
C2041 C2035 1.363 . S
C2041 C2036 1.379 . S
C2041 N2039 1.356 . S
N2042 C2034 1.356 . S
N2042 H2048 0.984 . S
N2042 H2049 0.984 . S
N2043 C2036 1.356 . S
N2043 H2046 0.984 . S
N2043 H2047 0.985 . S
H2044 N2039 0.984 . S
H2045 N2039 0.985 . S
H2046 N2043 0.984 . S
H2047 N2043 0.985 . S
H2048 N2042 0.984 . S
H2049 N2042 0.984 . S
H2050 N2038 0.984 . S
H2051 N2038 0.985 . S
C2052 C2053 1.363 . S
C2052 C2058 1.379 . S
C2052 N2060 1.356 . S
C2053 C2052 1.363 . S
C2053 C2059 1.363 . S
C2054 C2055 1.363 . S
C2054 C2059 1.379 . S
C2054 N2061 1.356 . S
C2055 C2054 1.363 . S
C2055 C2058 1.363 . S
N2056 C2058 1.356 . S
N2056 H2068 0.984 . S
N2056 H2069 0.985 . S
N2057 C2059 1.356 . S
N2057 H2062 0.984 . S
N2057 H2063 0.985 . S
C2058 C2052 1.379 . S
C2058 C2055 1.363 . S
C2058 N2056 1.356 . S
C2059 C2053 1.363 . S
C2059 C2054 1.379 . S
C2059 N2057 1.356 . S
N2060 C2052 1.356 . S
N2060 H2066 0.984 . S
N2060 H2067 0.984 . S
N2061 C2054 1.356 . S
N2061 H2064 0.984 . S
N2061 H2065 0.985 . S
H2062 N2057 0.984 . S
H2063 N2057 0.985 . S
H2064 N2061 0.984 . S
H2065 N2061 0.985 . S
H2066 N2060 0.984 . S
H2067 N2060 0.984 . S
H2068 N2056 0.984 . S
H2069 N2056 0.985 . S
C2070 C2071 1.363 . S
C2070 C2076 1.379 . S
C2070 N2078 1.356 . S
C2071 C2070 1.363 . S
C2071 C2077 1.363 . S
C2072 C2073 1.363 . S
C2072 C2077 1.379 . S
C2072 N2079 1.356 . S
C2073 C2072 1.363 . S
C2073 C2076 1.363 . S
N2074 C2076 1.356 . S
N2074 H2086 0.984 . S
N2074 H2087 0.985 . S
N2075 C2077 1.356 . S
N2075 H2080 0.984 . S
N2075 H2081 0.985 . S
C2076 C2070 1.379 . S
C2076 C2073 1.363 . S
C2076 N2074 1.356 . S
C2077 C2071 1.363 . S
C2077 C2072 1.379 . S
C2077 N2075 1.356 . S
N2078 C2070 1.356 . S
N2078 H2084 0.984 . S
N2078 H2085 0.984 . S
N2079 C2072 1.356 . S
N2079 H2082 0.984 . S
N2079 H2083 0.985 . S
H2080 N2075 0.984 . S
H2081 N2075 0.985 . S
H2082 N2079 0.984 . S
H2083 N2079 0.985 . S
H2084 N2078 0.984 . S
H2085 N2078 0.984 . S
H2086 N2074 0.984 . S
H2087 N2074 0.985 . S
C2088 C2089 1.363 . S
C2088 C2094 1.379 . S
C2088 N2096 1.356 . S
C2089 C2088 1.363 . S
C2089 C2095 1.353 1_545 S
C2090 C2091 1.350 1_565 S
C2090 C2095 1.381 . S
C2090 N2097 1.356 . S
C2091 C2090 1.350 1_545 S
C2091 C2094 1.380 . S
N2092 C2094 1.356 . S
N2092 H2104 0.984 . S
N2092 H2105 0.985 . S
N2093 C2095 1.362 . S
N2093 H2098 0.984 1_565 S
N2093 H2099 0.985 . S
C2094 C2088 1.379 . S
C2094 C2091 1.380 . S
C2094 N2092 1.356 . S
C2095 C2089 1.353 1_565 S
C2095 C2090 1.381 . S
C2095 N2093 1.362 . S
N2096 C2088 1.356 . S
N2096 H2102 0.984 . S
N2096 H2103 0.984 . S
N2097 C2090 1.356 . S
N2097 H2100 0.984 . S
N2097 H2101 0.985 . S
H2098 N2093 0.984 1_545 S
H2099 N2093 0.985 . S
H2100 N2097 0.984 . S
H2101 N2097 0.985 . S
H2102 N2096 0.984 . S
H2103 N2096 0.984 . S
H2104 N2092 0.984 . S
H2105 N2092 0.985 . S
C2106 C2107 1.363 . S
C2106 C2112 1.379 . S
C2106 N2114 1.356 . S
C2107 C2106 1.363 . S
C2107 C2113 1.363 1_655 S
C2108 C2109 1.363 1_455 S
C2108 C2113 1.379 . S
C2108 N2115 1.356 . S
C2109 C2108 1.363 1_655 S
C2109 C2112 1.363 . S
N2110 C2112 1.356 . S
N2110 H2122 0.984 . S
N2110 H2123 0.985 . S
N2111 C2113 1.356 . S
N2111 H2116 0.984 . S
N2111 H2117 0.985 . S
C2112 C2106 1.379 . S
C2112 C2109 1.363 . S
C2112 N2110 1.356 . S
C2113 C2107 1.363 1_455 S
C2113 C2108 1.379 . S
C2113 N2111 1.356 . S
N2114 C2106 1.356 . S
N2114 H2120 0.984 . S
N2114 H2121 0.984 . S
N2115 C2108 1.356 . S
N2115 H2118 0.984 . S
N2115 H2119 0.985 . S
H2116 N2111 0.984 . S
H2117 N2111 0.985 . S
H2118 N2115 0.984 . S
H2119 N2115 0.985 . S
H2120 N2114 0.984 . S
H2121 N2114 0.984 . S
H2122 N2110 0.984 . S
H2123 N2110 0.985 . S
C2124 C2125 1.363 . S
C2124 C2130 1.379 . S
C2124 N2132 1.356 . S
C2125 C2124 1.363 . S
C2125 C2131 1.363 . S
C2126 C2127 1.363 . S
C2126 C2131 1.379 . S
C2126 N2133 1.356 . S
C2127 C2126 1.363 . S
C2127 C2130 1.363 . S
N2128 C2130 1.356 . S
N2128 H2140 0.984 . S
N2128 H2141 0.985 . S
N2129 C2131 1.356 . S
N2129 H2134 0.984 . S
N2129 H2135 0.985 . S
C2130 C2124 1.379 . S
C2130 C2127 1.363 . S
C2130 N2128 1.356 . S
C2131 C2125 1.363 . S
C2131 C2126 1.379 . S
C2131 N2129 1.356 . S
N2132 C2124 1.356 . S
N2132 H2138 0.984 . S
N2132 H2139 0.984 . S
N2133 C2126 1.356 . S
N2133 H2136 0.984 . S
N2133 H2137 0.985 . S
H2134 N2129 0.984 . S
H2135 N2129 0.985 . S
H2136 N2133 0.984 . S
H2137 N2133 0.985 . S
H2138 N2132 0.984 . S
H2139 N2132 0.984 . S
H2140 N2128 0.984 . S
H2141 N2128 0.985 . S
C2142 C2143 1.363 . S
C2142 C2148 1.379 . S
C2142 N2150 1.356 . S
C2143 C2142 1.363 . S
C2143 C2149 1.363 1_565 S
C2144 C2145 1.357 1_545 S
C2144 C2149 1.380 . S
C2144 N2151 1.360 . S
C2145 C2144 1.357 1_565 S
C2145 C2148 1.363 . S
N2146 C2148 1.356 . S
N2146 H2158 0.984 . S
N2146 H2159 0.985 . S
N2147 C2149 1.356 . S
N2147 H2152 0.984 . S
N2147 H2153 0.985 . S
C2148 C2142 1.379 . S
C2148 C2145 1.363 . S
C2148 N2146 1.356 . S
C2149 C2143 1.363 1_545 S
C2149 C2144 1.380 . S
C2149 N2147 1.356 . S
N2150 C2142 1.356 . S
N2150 H2156 0.984 . S
N2150 H2157 0.984 . S
N2151 C2144 1.360 . S
N2151 H2154 0.984 1_545 S
N2151 H2155 0.985 . S
H2152 N2147 0.984 . S
H2153 N2147 0.985 . S
H2154 N2151 0.984 1_565 S
H2155 N2151 0.985 . S
H2156 N2150 0.984 . S
H2157 N2150 0.984 . S
H2158 N2146 0.984 . S
H2159 N2146 0.985 . S
C2160 C2161 1.363 . S
C2160 C2166 1.379 . S
C2160 N2168 1.356 . S
C2161 C2160 1.363 . S
C2161 C2167 1.363 . S
C2162 C2163 1.356 . S
C2162 C2167 1.379 . S
C2162 N2169 1.356 1_455 S
C2163 C2162 1.356 . S
C2163 C2166 1.390 . S
N2164 C2166 1.356 . S
N2164 H2176 0.984 . S
N2164 H2177 0.985 1_455 S
N2165 C2167 1.356 . S
N2165 H2170 0.984 . S
N2165 H2171 0.985 . S
C2166 C2160 1.379 . S
C2166 C2163 1.390 . S
C2166 N2164 1.356 . S
C2167 C2161 1.363 . S
C2167 C2162 1.379 . S
C2167 N2165 1.356 . S
N2168 C2160 1.356 . S
N2168 H2174 0.984 . S
N2168 H2175 0.984 . S
N2169 C2162 1.356 1_655 S
N2169 H2172 0.984 . S
N2169 H2173 0.985 . S
H2170 N2165 0.984 . S
H2171 N2165 0.985 . S
H2172 N2169 0.984 . S
H2173 N2169 0.985 . S
H2174 N2168 0.984 . S
H2175 N2168 0.984 . S
H2176 N2164 0.984 . S
H2177 N2164 0.985 1_655 S
C2178 C2179 1.363 . S
C2178 C2184 1.379 . S
C2178 N2186 1.356 . S
C2179 C2178 1.363 . S
C2179 C2185 1.363 . S
C2180 C2181 1.363 . S
C2180 C2185 1.379 . S
C2180 N2187 1.356 . S
C2181 C2180 1.363 . S
C2181 C2184 1.363 . S
N2182 C2184 1.356 . S
N2182 H2194 0.984 . S
N2182 H2195 0.985 . S
N2183 C2185 1.356 . S
N2183 H2188 0.984 . S
N2183 H2189 0.985 . S
C2184 C2178 1.379 . S
C2184 C2181 1.363 . S
C2184 N2182 1.356 . S
C2185 C2179 1.363 . S
C2185 C2180 1.379 . S
C2185 N2183 1.356 . S
N2186 C2178 1.356 . S
N2186 H2192 0.984 . S
N2186 H2193 0.984 . S
N2187 C2180 1.356 . S
N2187 H2190 0.984 . S
N2187 H2191 0.985 . S
H2188 N2183 0.984 . S
H2189 N2183 0.985 . S
H2190 N2187 0.984 . S
H2191 N2187 0.985 . S
H2192 N2186 0.984 . S
H2193 N2186 0.984 . S
H2194 N2182 0.984 . S
H2195 N2182 0.985 . S
C2196 C2197 1.363 . S
C2196 C2202 1.379 . S
C2196 N2204 1.356 . S
C2197 C2196 1.363 . S
C2197 C2203 1.363 . S
C2198 C2199 1.363 . S
C2198 C2203 1.379 . S
C2198 N2205 1.356 . S
C2199 C2198 1.363 . S
C2199 C2202 1.363 . S
N2200 C2202 1.356 . S
N2200 H2212 0.984 . S
N2200 H2213 0.985 . S
N2201 C2203 1.356 . S
N2201 H2206 0.984 . S
N2201 H2207 0.985 . S
C2202 C2196 1.379 . S
C2202 C2199 1.363 . S
C2202 N2200 1.356 . S
C2203 C2197 1.363 . S
C2203 C2198 1.379 . S
C2203 N2201 1.356 . S
N2204 C2196 1.356 . S
N2204 H2210 0.984 . S
N2204 H2211 0.984 . S
N2205 C2198 1.356 . S
N2205 H2208 0.984 . S
N2205 H2209 0.985 . S
H2206 N2201 0.984 . S
H2207 N2201 0.985 . S
H2208 N2205 0.984 . S
H2209 N2205 0.985 . S
H2210 N2204 0.984 . S
H2211 N2204 0.984 . S
H2212 N2200 0.984 . S
H2213 N2200 0.985 . S
C2214 C2215 1.363 . S
C2214 C2220 1.379 . S
C2214 N2222 1.356 . S
C2215 C2214 1.363 . S
C2215 C2221 1.363 . S
C2216 C2217 1.363 . S
C2216 C2221 1.379 . S
C2216 N2223 1.356 . S
C2217 C2216 1.363 . S
C2217 C2220 1.363 . S
N2218 C2220 1.356 . S
N2218 H2230 0.984 . S
N2218 H2231 0.985 . S
N2219 C2221 1.356 . S
N2219 H2224 0.984 . S
N2219 H2225 0.985 . S
C2220 C2214 1.379 . S
C2220 C2217 1.363 . S
C2220 N2218 1.356 . S
C2221 C2215 1.363 . S
C2221 C2216 1.379 . S
C2221 N2219 1.356 . S
N2222 C2214 1.356 . S
N2222 H2228 0.984 . S
N2222 H2229 0.984 . S
N2223 C2216 1.356 . S
N2223 H2226 0.984 . S
N2223 H2227 0.985 . S
H2224 N2219 0.984 . S
H2225 N2219 0.985 . S
H2226 N2223 0.984 . S
H2227 N2223 0.985 . S
H2228 N2222 0.984 . S
H2229 N2222 0.984 . S
H2230 N2218 0.984 . S
H2231 N2218 0.985 . S
C1585 C49 2.006 . S
C1587 C284 2.025 . S
C1603 C108 2.033 . S
C1605 C401 2.053 . S
C1621 C489 2.044 . S
C1623 C233 2.058 . S
C1639 C577 2.009 . S
C1641 C821 2.033 . S
C1657 C636 2.015 . S
C1659 C929 2.032 . S
C1675 C1017 2.006 . S
C1677 C761 2.020 . S
C1693 C1340 2.030 . S
C1695 C1105 2.012 . S
C1711 C1465 2.035 . S
C1713 C1173 2.012 . S
C1729 C1553 2.007 . S
C1731 C1281 2.020 . S
C1747 C29 2.853 . S
C1749 C849 2.844 . S
C1765 C145 2.848 . S
C1767 C900 2.848 . S
C1783 C1025 2.935 . S
C1785 C205 2.932 . S
C1801 C313 2.849 . S
C1803 C1085 2.848 . S
C1819 C372 2.846 . S
C1821 C1193 2.850 . S
C1837 C497 2.934 . S
C1839 C1252 2.933 . S
C1855 C557 2.894 . S
C1857 C1369 2.892 1_455 S
C1873 C673 2.919 . S
C1875 C1437 2.915 . S
C1891 C1545 2.814 . S
C1893 C733 2.806 . S
C1909 C57 0.588 . S
C1911 C381 0.502 . S
C1927 C117 0.584 . S
C1929 C460 0.488 1_554 S
C1945 C196 0.617 . S
C1947 C321 0.516 . S
C1963 C293 0.610 . S
C1965 C137 0.488 . S
C1981 C225 0.518 . S
C1983 C409 0.610 . S
C1999 C469 0.616 . S
C2001 C20 0.536 . S
C2017 C585 0.584 . S
C2019 C909 0.517 . S
C2035 C988 0.532 . S
C2037 C645 0.615 . S
C2053 C841 0.446 . S
C2055 C724 0.553 . S
C2071 C665 0.492 . S
C2073 C812 0.611 . S
C2089 C937 0.614 . S
C2091 C753 0.556 . S
C2107 C997 0.635 . S
C2109 C548 0.567 . S
C2125 C1428 0.505 . S
C2127 C1113 0.590 . S
C2143 C1525 0.519 . S
C2145 C1164 0.589 . S
C2161 C1261 0.637 . S
C2163 C1377 0.544 . S
C2179 C1201 0.501 . S
C2181 C1349 0.602 . S
C2197 C1289 0.539 . S
C2199 C1457 0.637 . S
C2215 C1076 0.471 . S
C2217 C1516 0.556 . S
