# Generated by pormake.
# Topology rhr, (4)-cn, num edge types: 1
# Building blocks:
#     Node 0, Type 0, BuildingBlock: ESEHIV_clean_sbu_0, # of connection points: 4
#     Node 1, Type 0, BuildingBlock: ESEHIV_clean_sbu_0, # of connection points: 4
#     Node 2, Type 0, BuildingBlock: ESEHIV_clean_sbu_0, # of connection points: 4
#     Node 3, Type 0, BuildingBlock: ESEHIV_clean_sbu_0, # of connection points: 4
#     Node 4, Type 0, BuildingBlock: ESEHIV_clean_sbu_0, # of connection points: 4
#     Node 5, Type 0, BuildingBlock: ESEHIV_clean_sbu_0, # of connection points: 4
#     Node 6, Type 0, BuildingBlock: ESEHIV_clean_sbu_0, # of connection points: 4
#     Node 7, Type 0, BuildingBlock: ESEHIV_clean_sbu_0, # of connection points: 4
#     Node 8, Type 0, BuildingBlock: ESEHIV_clean_sbu_0, # of connection points: 4
#     Node 9, Type 0, BuildingBlock: ESEHIV_clean_sbu_0, # of connection points: 4
#     Node 10, Type 0, BuildingBlock: ESEHIV_clean_sbu_0, # of connection points: 4
#     Node 11, Type 0, BuildingBlock: ESEHIV_clean_sbu_0, # of connection points: 4
#     Node 12, Type 0, BuildingBlock: ESEHIV_clean_sbu_0, # of connection points: 4
#     Node 13, Type 0, BuildingBlock: ESEHIV_clean_sbu_0, # of connection points: 4
#     Node 14, Type 0, BuildingBlock: ESEHIV_clean_sbu_0, # of connection points: 4
#     Node 15, Type 0, BuildingBlock: ESEHIV_clean_sbu_0, # of connection points: 4
#     Node 16, Type 0, BuildingBlock: ESEHIV_clean_sbu_0, # of connection points: 4
#     Node 17, Type 0, BuildingBlock: ESEHIV_clean_sbu_0, # of connection points: 4
#     Node 18, Type 0, BuildingBlock: ESEHIV_clean_sbu_0, # of connection points: 4
#     Node 19, Type 0, BuildingBlock: ESEHIV_clean_sbu_0, # of connection points: 4
#     Node 20, Type 0, BuildingBlock: ESEHIV_clean_sbu_0, # of connection points: 4
#     Node 21, Type 0, BuildingBlock: ESEHIV_clean_sbu_0, # of connection points: 4
#     Node 22, Type 0, BuildingBlock: ESEHIV_clean_sbu_0, # of connection points: 4
#     Node 23, Type 0, BuildingBlock: ESEHIV_clean_sbu_0, # of connection points: 4
#     Edge 24, Type (0, 0), BuildingBlock: XUDNAN_clean_linker_2, # of connection points: 2
#     Edge 25, Type (0, 0), BuildingBlock: XUDNAN_clean_linker_2, # of connection points: 2
#     Edge 26, Type (0, 0), BuildingBlock: XUDNAN_clean_linker_2, # of connection points: 2
#     Edge 27, Type (0, 0), BuildingBlock: XUDNAN_clean_linker_2, # of connection points: 2
#     Edge 28, Type (0, 0), BuildingBlock: XUDNAN_clean_linker_2, # of connection points: 2
#     Edge 29, Type (0, 0), BuildingBlock: XUDNAN_clean_linker_2, # of connection points: 2
#     Edge 30, Type (0, 0), BuildingBlock: XUDNAN_clean_linker_2, # of connection points: 2
#     Edge 31, Type (0, 0), BuildingBlock: XUDNAN_clean_linker_2, # of connection points: 2
#     Edge 32, Type (0, 0), BuildingBlock: XUDNAN_clean_linker_2, # of connection points: 2
#     Edge 33, Type (0, 0), BuildingBlock: XUDNAN_clean_linker_2, # of connection points: 2
#     Edge 34, Type (0, 0), BuildingBlock: XUDNAN_clean_linker_2, # of connection points: 2
#     Edge 35, Type (0, 0), BuildingBlock: XUDNAN_clean_linker_2, # of connection points: 2
#     Edge 36, Type (0, 0), BuildingBlock: XUDNAN_clean_linker_2, # of connection points: 2
#     Edge 37, Type (0, 0), BuildingBlock: XUDNAN_clean_linker_2, # of connection points: 2
#     Edge 38, Type (0, 0), BuildingBlock: XUDNAN_clean_linker_2, # of connection points: 2
#     Edge 39, Type (0, 0), BuildingBlock: XUDNAN_clean_linker_2, # of connection points: 2
#     Edge 40, Type (0, 0), BuildingBlock: XUDNAN_clean_linker_2, # of connection points: 2
#     Edge 41, Type (0, 0), BuildingBlock: XUDNAN_clean_linker_2, # of connection points: 2
#     Edge 42, Type (0, 0), BuildingBlock: XUDNAN_clean_linker_2, # of connection points: 2
#     Edge 43, Type (0, 0), BuildingBlock: XUDNAN_clean_linker_2, # of connection points: 2
#     Edge 44, Type (0, 0), BuildingBlock: XUDNAN_clean_linker_2, # of connection points: 2
#     Edge 45, Type (0, 0), BuildingBlock: XUDNAN_clean_linker_2, # of connection points: 2
#     Edge 46, Type (0, 0), BuildingBlock: XUDNAN_clean_linker_2, # of connection points: 2
#     Edge 47, Type (0, 0), BuildingBlock: XUDNAN_clean_linker_2, # of connection points: 2
#     Edge 48, Type (0, 0), BuildingBlock: XUDNAN_clean_linker_2, # of connection points: 2
#     Edge 49, Type (0, 0), BuildingBlock: XUDNAN_clean_linker_2, # of connection points: 2
#     Edge 50, Type (0, 0), BuildingBlock: XUDNAN_clean_linker_2, # of connection points: 2
#     Edge 51, Type (0, 0), BuildingBlock: XUDNAN_clean_linker_2, # of connection points: 2
#     Edge 52, Type (0, 0), BuildingBlock: XUDNAN_clean_linker_2, # of connection points: 2
#     Edge 53, Type (0, 0), BuildingBlock: XUDNAN_clean_linker_2, # of connection points: 2
#     Edge 54, Type (0, 0), BuildingBlock: XUDNAN_clean_linker_2, # of connection points: 2
#     Edge 55, Type (0, 0), BuildingBlock: XUDNAN_clean_linker_2, # of connection points: 2
#     Edge 56, Type (0, 0), BuildingBlock: XUDNAN_clean_linker_2, # of connection points: 2
#     Edge 57, Type (0, 0), BuildingBlock: XUDNAN_clean_linker_2, # of connection points: 2
#     Edge 58, Type (0, 0), BuildingBlock: XUDNAN_clean_linker_2, # of connection points: 2
#     Edge 59, Type (0, 0), BuildingBlock: XUDNAN_clean_linker_2, # of connection points: 2
#     Edge 60, Type (0, 0), BuildingBlock: XUDNAN_clean_linker_2, # of connection points: 2
#     Edge 61, Type (0, 0), BuildingBlock: XUDNAN_clean_linker_2, # of connection points: 2
#     Edge 62, Type (0, 0), BuildingBlock: XUDNAN_clean_linker_2, # of connection points: 2
#     Edge 63, Type (0, 0), BuildingBlock: XUDNAN_clean_linker_2, # of connection points: 2
#     Edge 64, Type (0, 0), BuildingBlock: XUDNAN_clean_linker_2, # of connection points: 2
#     Edge 65, Type (0, 0), BuildingBlock: XUDNAN_clean_linker_2, # of connection points: 2
#     Edge 66, Type (0, 0), BuildingBlock: XUDNAN_clean_linker_2, # of connection points: 2
#     Edge 67, Type (0, 0), BuildingBlock: XUDNAN_clean_linker_2, # of connection points: 2
#     Edge 68, Type (0, 0), BuildingBlock: XUDNAN_clean_linker_2, # of connection points: 2
#     Edge 69, Type (0, 0), BuildingBlock: XUDNAN_clean_linker_2, # of connection points: 2
#     Edge 70, Type (0, 0), BuildingBlock: XUDNAN_clean_linker_2, # of connection points: 2
#     Edge 71, Type (0, 0), BuildingBlock: XUDNAN_clean_linker_2, # of connection points: 2
# Relax obj value: 0.010
# Max RMSD: 0.137
# Mean RMSD: 0.095
data_MOF--net-rhr--node1-ESEHIV_clean_sbu_0--edge1-XUDNAN_clean_linker_2
_symmetry_space_group_name_H-M    P1
_symmetry_Int_Tables_number       1
_symmetry_cell_setting            triclinic
loop_
_symmetry_equiv_pos_as_xyz
'x, y, z'
_cell_length_a     54.430542
_cell_length_b     54.594693
_cell_length_c     54.35469
_cell_angle_alpha  90.203392
_cell_angle_beta   92.805102
_cell_angle_gamma 92.467171
loop_
_atom_site_label
_atom_site_type_symbol
_atom_site_fract_x
_atom_site_fract_y
_atom_site_fract_z
_atom_type_partial_charge
Cu0 Cu 0.35469 0.03846 0.34896 0.0
N1 N 0.36044 1.01516 0.32517 0.0
N2 N 0.38181 0.98775 0.30581 0.0
C3 C 0.38168 1.00368 0.32475 0.0
C4 C 0.35953 0.98905 0.29392 0.0
C5 C 0.34632 1.00614 0.30594 0.0
O6 O 0.37978 0.06568 0.34574 0.0
C7 C 0.33935 1.00129 0.37985 0.0
O8 O 0.32644 0.99605 0.35931 0.0
H9 H 0.39671 1.00696 0.3383 0.0
H10 H 0.32789 1.01167 0.301 0.0
N11 N 0.32341 0.05102 0.34427 0.0
N12 N 0.2858 0.0613 0.35397 0.0
C13 C 0.30518 0.04766 0.35991 0.0
C14 C 0.31531 0.06762 0.32784 0.0
C15 C 0.29207 0.07418 0.33393 0.0
C16 C 0.38744 0.07068 0.32429 0.0
O17 O 0.3785 0.05763 0.30532 0.0
H18 H 0.30671 0.03686 0.37648 0.0
H19 H 0.32603 0.07531 0.31327 0.0
O20 O 0.35448 1.01996 0.3802 0.0
H21 H 0.35341 0.97878 0.27752 0.0
H22 H 0.28105 0.08789 0.32494 0.0
Cu23 Cu 0.05953 0.34947 0.36034 0.0
N24 N 0.07878 0.32153 0.36052 0.0
N25 N 0.10567 0.295 0.37645 0.0
C26 C 0.09691 0.31775 0.3778 0.0
C27 C 0.09253 0.28405 0.3574 0.0
C28 C 0.076 0.30044 0.34761 0.0
O29 O 0.04358 0.34816 0.39175 0.0
C30 C 0.08933 0.37641 0.33168 0.0
O31 O 0.08549 0.35559 0.31959 0.0
H32 H 0.10257 0.33105 0.392 0.0
H33 H 0.06229 0.29685 0.33282 0.0
N34 N 0.03369 0.35169 0.33609 0.0
N35 N 1.00435 0.37165 0.31485 0.0
C36 C 1.02442 0.37359 0.33043 0.0
C37 C 1.01894 0.33509 0.32343 0.0
C38 C 1.00071 0.34738 0.31041 0.0
C39 C 0.02892 0.32934 0.39273 0.0
O40 O 1.0267 0.31425 0.37385 0.0
H41 H 0.03183 0.39069 0.33846 0.0
H42 H 1.02077 0.31546 0.32414 0.0
O43 O 0.08075 0.37805 0.35306 0.0
H44 H 0.09434 0.26536 0.35128 0.0
H45 H 0.98595 0.33913 0.29868 0.0
Cu46 Cu 0.6799 0.03752 0.36358 0.0
N47 N 0.65254 0.05336 0.37407 0.0
N48 N 0.62643 0.08325 0.37867 0.0
C49 C 0.64514 0.07515 0.36587 0.0
C50 C 0.62182 0.06576 0.39551 0.0
C51 C 0.63807 0.04741 0.39273 0.0
O52 O 0.67362 0.02534 0.32979 0.0
C53 C 0.71037 0.071 0.39007 0.0
O54 O 0.694 0.06515 0.40627 0.0
H55 H 0.65361 0.08494 0.351 0.0
H56 H 0.63977 0.03135 0.40414 0.0
N57 N 0.68533 1.01016 0.38294 0.0
N58 N 0.70557 0.98161 0.40393 0.0
C59 C 0.70737 1.00311 0.39177 0.0
C60 C 0.66894 0.99252 0.38943 0.0
C61 C 0.68134 0.97494 0.40252 0.0
C62 C 0.65243 1.01531 0.32422 0.0
O63 O 0.6355 1.01555 0.3406 0.0
H64 H 0.7244 1.01328 0.3886 0.0
H65 H 0.64942 0.99224 0.38465 0.0
O66 O 0.70838 0.06059 0.36893 0.0
H67 H 0.60829 0.06656 0.4094 0.0
H68 H 0.67304 0.95856 0.41031 0.0
Cu69 Cu 0.04236 0.71435 0.35131 0.0
N70 N 0.06276 0.71241 0.32427 0.0
N71 N 0.08994 0.69528 0.30021 0.0
C72 C 0.07997 0.69542 0.32254 0.0
C73 C 0.07845 0.71301 0.28737 0.0
C74 C 0.06172 0.72349 0.3022 0.0
O75 O 1.0202 0.68507 0.3466 0.0
C76 C 0.08161 0.73298 0.37979 0.0
O77 O 0.08523 0.7435 0.35851 0.0
H78 H 0.08417 0.68256 0.3371 0.0
H79 H 0.0491 0.73753 0.29693 0.0
N80 N 1.02352 0.74254 0.3546 0.0
N81 N 1.00235 0.77018 0.37482 0.0
C82 C 1.01725 0.75103 0.37677 0.0
C83 C 1.0124 0.75721 0.33798 0.0
C84 C 0.99914 0.77407 0.35039 0.0
C85 C 1.00383 0.68651 0.32903 0.0
O86 O 1.0016 0.70751 0.31768 0.0
H87 H 1.02296 0.74278 0.39409 0.0
H88 H 1.01341 0.75555 0.31823 0.0
O89 O 0.06399 0.71686 0.38113 0.0
H90 H 0.08158 0.71784 0.26845 0.0
H91 H 0.98807 0.78814 0.3421 0.0
Cu92 Cu 0.36727 1.02336 0.72427 0.0
N93 N 0.36841 0.04307 0.75246 0.0
N94 N 0.38637 0.06768 0.78163 0.0
C95 C 0.38825 0.05747 0.75921 0.0
C96 C 0.36435 0.05936 0.78935 0.0
C97 C 0.35324 0.04418 0.77123 0.0
O98 O 0.39649 1.00298 0.72952 0.0
C99 C 0.34493 0.05778 0.69522 0.0
O100 O 0.33104 0.05566 0.71427 0.0
H101 H 0.40433 0.05939 0.74831 0.0
H102 H 0.33575 0.03414 0.77207 0.0
N103 N 0.33857 1.00298 0.72083 0.0
N104 N 0.30647 0.98317 0.70122 0.0
C105 C 0.32674 0.99788 0.69893 0.0
C106 C 0.32516 0.99108 0.73764 0.0
C107 C 0.30546 0.97862 0.72552 0.0
C108 C 0.3961 0.98907 0.7485 0.0
O109 O 0.37635 0.98847 0.76142 0.0
H110 H 0.33307 1.00464 0.68154 0.0
H111 H 0.32922 0.99146 0.75729 0.0
O112 O 0.36455 0.04557 0.69549 0.0
H113 H 0.35696 0.06367 0.8069 0.0
H114 H 0.29134 0.96737 0.73392 0.0
Cu115 Cu 0.05709 0.37663 0.69978 0.0
N116 N 0.07648 0.37453 0.67256 0.0
N117 N 0.09761 0.3567 0.6437 0.0
C118 C 0.08191 0.35327 0.66196 0.0
C119 C 0.10198 0.38122 0.64262 0.0
C120 C 0.08895 0.39218 0.66053 0.0
O121 O 0.02812 0.35494 0.69305 0.0
C122 C 0.09978 0.36942 0.73073 0.0
O123 O 0.11091 0.36602 0.71019 0.0
H124 H 0.0747 0.3356 0.66788 0.0
H125 H 0.08912 0.41153 0.66492 0.0
N126 N 0.04674 0.40822 0.70514 0.0
N127 N 0.03385 0.43948 0.72719 0.0
C128 C 0.04168 0.41635 0.72763 0.0
C129 C 0.04221 0.42685 0.68971 0.0
C130 C 0.0342 0.44617 0.70326 0.0
C131 C 1.01512 0.36033 0.67383 0.0
O132 O 1.02183 0.37977 0.66122 0.0
H133 H 0.04375 0.40525 0.74396 0.0
H134 H 0.04421 0.42633 0.67002 0.0
O135 O 0.07638 0.37005 0.73004 0.0
H136 H 0.11438 0.39052 0.6304 0.0
H137 H 0.02851 0.46351 0.69584 0.0
Cu138 Cu 0.75138 0.03761 0.70247 0.0
N139 N 0.74938 1.01817 0.7304 0.0
N140 N 0.72956 0.99338 0.75618 0.0
C141 C 0.72799 1.01269 0.74087 0.0
C142 C 0.75305 0.9865 0.75545 0.0
C143 C 0.76522 1.00177 0.73939 0.0
O144 O 0.72203 0.05819 0.70388 0.0
C145 C 0.76704 1.0158 0.65647 0.0
O146 O 0.77399 0.03799 0.64975 0.0
H147 H 0.71096 1.02113 0.73535 0.0
H148 H 0.78357 0.99969 0.73315 0.0
N149 N 0.7803 0.05749 0.70377 0.0
N150 N 0.80963 0.08284 0.68952 0.0
C151 C 0.78568 0.07519 0.6875 0.0
C152 C 0.80139 0.05426 0.7171 0.0
C153 C 0.81953 0.06985 0.70833 0.0
C154 C 0.72331 0.07659 0.71878 0.0
O155 O 0.7447 0.08267 0.72987 0.0
H156 H 0.77272 0.0808 0.67309 0.0
H157 H 0.80382 0.04056 0.73121 0.0
O158 O 0.75461 1.01304 0.67578 0.0
H159 H 0.76052 0.97072 0.76465 0.0
H160 H 0.83873 0.07075 0.71461 0.0
Cu161 Cu 1.01262 0.68915 0.70272 0.0
N162 N 1.02295 0.69699 0.6711 0.0
N163 N 0.04385 0.71281 0.63989 0.0
C164 C 0.04247 0.71133 0.66467 0.0
C165 C 1.02455 0.69877 0.63056 0.0
C166 C 1.01183 0.68905 0.64974 0.0
O167 O 1.00294 0.71799 0.72047 0.0
C168 C 0.03506 0.66785 0.7436 0.0
O169 O 1.01299 0.67026 0.75179 0.0
H170 H 0.05512 0.72076 0.67785 0.0
H171 H 0.99545 0.67712 0.6482 0.0
N172 N 0.98778 0.66411 0.70169 0.0
N173 N 0.95875 0.63809 0.71541 0.0
C174 C 0.96915 0.66099 0.71704 0.0
C175 C 0.98893 0.64256 0.68981 0.0
C176 C 0.97113 0.62646 0.6983 0.0
C177 C 0.99078 0.73673 0.71451 0.0
O178 O 0.98914 0.75392 0.73126 0.0
H179 H 0.96497 0.67433 0.73085 0.0
H180 H 1.00307 0.63824 0.67738 0.0
O181 O 0.03966 0.67582 0.72224 0.0
H182 H 1.02003 0.69552 0.61118 0.0
H183 H 0.96859 0.60721 0.69354 0.0
Cu184 Cu 0.38344 0.38017 0.03281 0.0
N185 N 0.35617 0.3749 0.05251 0.0
N186 N 0.33033 0.38614 0.08118 0.0
C187 C 0.34502 0.39365 0.06308 0.0
C188 C 0.33217 0.36154 0.08192 0.0
C189 C 0.3481 0.35467 0.06427 0.0
O190 O 0.37583 0.41079 1.01659 0.0
C191 C 0.4168 0.36102 0.0653 0.0
O192 O 0.40464 0.34142 0.05633 0.0
H193 H 0.34926 0.41271 0.059 0.0
H194 H 0.35458 0.33647 0.06145 0.0
N195 N 0.38922 0.35557 1.00911 0.0
N196 N 0.40884 0.33498 0.98042 0.0
C197 C 0.40813 0.35594 0.99381 0.0
C198 C 0.37745 0.3336 1.00517 0.0
C199 C 0.38949 0.3209 0.98761 0.0
C200 C 0.36035 0.4091 0.99825 0.0
O201 O 0.35488 0.38737 0.98854 0.0
H202 H 0.42156 0.37109 0.99308 0.0
H203 H 0.36151 0.32706 1.01474 0.0
O204 O 0.41147 0.38185 0.05652 0.0
H205 H 0.32343 0.34948 0.09496 0.0
H206 H 0.38429 0.30273 0.98061 0.0
Cu207 Cu 0.71503 0.34619 0.05605 0.0
N208 N 0.74512 0.34444 0.04084 0.0
N209 N 0.77362 0.35852 1.01535 0.0
C210 C 0.74942 0.35638 1.01969 0.0
C211 C 0.78506 0.34734 0.03457 0.0
C212 C 0.76744 0.33873 0.0503 0.0
O213 O 0.71844 0.37869 0.07172 0.0
C214 C 0.69189 0.32235 1.01656 0.0
O215 O 0.7117 0.30969 1.02023 0.0
H216 H 0.73519 0.36533 1.00891 0.0
H217 H 0.77088 0.3307 0.06821 0.0
N218 N 0.70756 0.32156 0.0792 0.0
N219 N 0.68337 0.29663 0.10139 0.0
C220 C 0.68428 0.31393 0.08369 0.0
C221 C 0.72199 0.30833 0.09447 0.0
C222 C 0.7071 0.29312 0.10834 0.0
C223 C 0.73233 0.38026 0.09135 0.0
O224 O 0.73995 0.35998 0.10145 0.0
H225 H 0.66821 0.32125 0.07431 0.0
H226 H 0.74188 0.30972 0.09563 0.0
O227 O 0.68912 0.34109 0.03012 0.0
H228 H 0.8048 0.34655 0.0377 0.0
H229 H 0.71326 0.28024 0.12217 0.0
Cu230 Cu 0.68642 0.69857 0.03254 0.0
N231 N 0.65625 0.68566 0.0422 0.0
N232 N 0.62552 0.68399 0.06797 0.0
C233 C 0.65009 0.68558 0.06584 0.0
C234 C 0.61577 0.68274 0.04466 0.0
C235 C 0.63482 0.68372 0.02876 0.0
O236 O 0.67922 0.73196 1.02098 0.0
C237 C 0.71438 0.67365 0.06743 0.0
O238 O 0.70491 0.65558 0.05348 0.0
H239 H 0.66315 0.69012 0.081 0.0
H240 H 0.63305 0.68582 1.00898 0.0
N241 N 0.69883 0.67974 1.00749 0.0
N242 N 0.72652 0.66014 0.98655 0.0
C243 C 0.72289 0.67725 1.00387 0.0
C244 C 0.6867 0.66376 0.99187 0.0
C245 C 0.70372 0.6517 0.97886 0.0
C246 C 0.67166 0.73527 0.99861 0.0
O247 O 0.672 0.71691 0.98299 0.0
H248 H 0.73742 0.68683 1.01484 0.0
H249 H 0.66694 0.66053 0.99058 0.0
O250 O 0.70909 0.69561 0.06174 0.0
H251 H 0.59636 0.68352 0.03949 0.0
H252 H 0.69955 0.63751 0.96515 0.0
Cu253 Cu 0.3666 0.71518 1.01195 0.0
N254 N 0.33885 0.71732 0.99047 0.0
N255 N 0.31091 0.70439 0.96124 0.0
C256 C 0.33406 0.70252 0.97081 0.0
C257 C 0.30088 0.72152 0.97517 0.0
C258 C 0.31819 0.72949 0.99318 0.0
O259 O 0.35814 0.69066 0.03664 0.0
C260 C 0.39621 0.72223 0.9733 0.0
O261 O 0.37952 0.73856 0.96898 0.0
H262 H 0.34664 0.689 0.9651 0.0
H263 H 0.31531 0.74203 1.00809 0.0
N264 N 0.37498 0.74474 0.02841 0.0
N265 N 0.39911 0.77436 0.04684 0.0
C266 C 0.39808 0.75443 0.03194 0.0
C267 C 0.36081 0.75898 0.04154 0.0
C268 C 0.37563 0.7773 0.05288 0.0
C269 C 0.34528 0.67109 0.03135 0.0
O270 O 0.34106 0.66481 1.00816 0.0
H271 H 0.41398 0.7462 0.0247 0.0
H272 H 0.34128 0.75575 0.04352 0.0
O273 O 0.39445 0.70848 0.99211 0.0
H274 H 0.28198 0.72693 0.97337 0.0
H275 H 0.3696 0.79137 0.065 0.0
Cu276 Cu 0.88444 0.51685 0.88911 0.0
N277 N 0.91633 0.50555 0.88681 0.0
N278 N 0.95066 0.49605 0.86867 0.0
C279 C 0.92849 0.50594 0.86585 0.0
C280 C 0.9526 0.48866 0.89228 0.0
C281 C 0.93137 0.49472 0.90354 0.0
O282 O 0.87708 0.53311 0.85765 0.0
C283 C 0.86414 0.48103 0.91917 0.0
O284 O 0.88114 0.49118 0.93438 0.0
H285 H 0.92091 0.51259 0.84853 0.0
H286 H 0.92722 0.49129 0.92249 0.0
N287 N 0.88289 0.54062 0.91367 0.0
N288 N 0.86708 0.56986 0.93618 0.0
C289 C 0.86261 0.55273 0.91837 0.0
C290 C 0.90089 0.55029 0.92905 0.0
C291 C 0.89118 0.56841 0.94296 0.0
C292 C 0.89051 0.55236 0.85383 0.0
O293 O 0.90699 0.55982 0.87097 0.0
H294 H 0.84511 0.5495 0.90832 0.0
H295 H 0.91977 0.54482 0.92979 0.0
O296 O 0.86187 0.4894 0.8973 0.0
H297 H 0.96822 0.47971 0.90074 0.0
H298 H 0.90111 0.57961 0.95693 0.0
Cu299 Cu 0.5509 0.85461 0.85564 0.0
N300 N 0.53246 0.82501 0.8522 0.0
N301 N 0.51201 0.79081 0.86337 0.0
C302 C 0.52698 0.80995 0.87088 0.0
C303 C 0.50791 0.79383 0.8389 0.0
C304 C 0.52082 0.81485 0.83198 0.0
O305 O 0.57232 0.85132 0.88559 0.0
C306 C 0.50738 0.8819 0.84358 0.0
O307 O 0.49529 0.86066 0.84499 0.0
H308 H 0.53289 0.81353 0.88988 0.0
H309 H 0.52101 0.82266 0.81373 0.0
N310 N 0.57297 0.8581 0.83081 0.0
N311 N 0.60077 0.87809 0.8086 0.0
C312 C 0.58288 0.88003 0.82469 0.0
C313 C 0.58493 0.84144 0.81821 0.0
C314 C 0.60219 0.85379 0.80441 0.0
C315 C 0.56707 0.85039 0.90818 0.0
O316 O 0.545 0.85602 0.91448 0.0
H317 H 0.57793 0.89701 0.83309 0.0
H318 H 0.582 0.82179 0.81969 0.0
O319 O 0.5302 0.88344 0.85062 0.0
H320 H 0.49603 0.78201 0.82702 0.0
H321 H 0.61508 0.8455 0.7927 0.0
Cu322 Cu 0.1853 0.52497 0.88207 0.0
N323 N 0.1557 0.54078 0.87738 0.0
N324 N 0.12979 0.56609 0.85836 0.0
C325 C 0.15191 0.55589 0.85827 0.0
C326 C 0.11906 0.55672 0.87839 0.0
C327 C 0.13515 0.54109 0.89014 0.0
O328 O 0.18455 0.49853 0.85791 0.0
C329 C 0.20854 0.56833 0.89392 0.0
O330 O 0.18988 0.56714 0.90837 0.0
H331 H 0.1653 0.55909 0.84444 0.0
H332 H 0.13206 0.5308 0.90674 0.0
N333 N 0.19142 0.51179 0.91327 0.0
N334 N 0.216 0.49704 0.94338 0.0
C335 C 0.21208 0.49991 0.91889 0.0
C336 C 0.18171 0.51656 0.93499 0.0
C337 C 0.19685 0.50741 0.95364 0.0
C338 C 0.16552 0.48404 0.85786 0.0
O339 O 0.14893 0.48755 0.87413 0.0
H340 H 0.22507 0.49537 0.9053 0.0
H341 H 0.16586 0.52745 0.93729 0.0
O342 O 0.21099 0.5506 0.879 0.0
H343 H 0.10108 0.56107 0.88438 0.0
H344 H 0.19449 0.50922 0.97321 0.0
Cu345 Cu 0.5639 0.20635 0.85463 0.0
N346 N 0.54502 0.23454 0.85214 0.0
N347 N 0.5204 0.26383 0.86462 0.0
C348 C 0.53123 0.24259 0.87037 0.0
C349 C 0.52764 0.26924 0.84174 0.0
C350 C 0.5427 0.25117 0.83409 0.0
O351 O 0.58241 0.21178 0.886 0.0
C352 C 0.52723 0.17554 0.83497 0.0
O353 O 0.5321 0.18967 0.81614 0.0
H354 H 0.52979 0.23335 0.88786 0.0
H355 H 0.55149 0.2504 0.81671 0.0
N356 N 0.58529 0.20087 0.82839 0.0
N357 N 0.60933 0.18163 0.80228 0.0
C358 C 0.593 0.17901 0.82033 0.0
C359 C 0.59697 0.21776 0.81464 0.0
C360 C 0.61181 0.20606 0.79878 0.0
C361 C 0.60081 0.22707 0.88659 0.0
O362 O 0.60884 0.23553 0.86576 0.0
H363 H 0.58715 0.16154 0.82794 0.0
H364 H 0.59519 0.23734 0.81629 0.0
O365 O 0.53992 0.17898 0.85509 0.0
H366 H 0.52244 0.28513 0.83118 0.0
H367 H 0.62342 0.2149 0.78553 0.0
Cu368 Cu 0.85588 0.54048 0.21402 0.0
N369 N 0.82877 0.56074 0.21532 0.0
N370 N 0.80192 0.58819 0.20143 0.0
C371 C 0.82068 0.57406 0.19592 0.0
C372 C 0.79794 0.5835 0.22533 0.0
C373 C 0.8144 0.56641 0.23381 0.0
O374 O 0.84851 0.52071 0.18405 0.0
C375 C 0.8868 0.57657 0.23525 0.0
O376 O 0.86722 0.5779 0.24827 0.0
H377 H 0.8289 0.57382 0.17818 0.0
H378 H 0.81607 0.55902 0.25223 0.0
N379 N 0.86106 0.518 0.23978 0.0
N380 N 0.88301 0.4908 0.26142 0.0
C381 C 0.88328 0.50845 0.2441 0.0
C382 C 0.84603 0.50604 0.25513 0.0
C383 C 0.85953 0.48911 0.26842 0.0
C384 C 0.82903 0.50702 0.18592 0.0
O385 O 0.8174 0.50779 0.20648 0.0
H386 H 0.89925 0.51381 0.23395 0.0
H387 H 0.82657 0.50891 0.25616 0.0
O388 O 0.88611 0.56163 0.217 0.0
H389 H 0.78407 0.59173 0.2359 0.0
H390 H 0.85263 0.47656 0.28209 0.0
Cu391 Cu 0.54585 0.85926 0.19813 0.0
N392 N 0.56452 0.8315 0.20037 0.0
N393 N 0.57822 0.79467 0.19152 0.0
C394 C 0.56139 0.81147 0.18591 0.0
C395 C 0.59224 0.80442 0.2106 0.0
C396 C 0.58367 0.82714 0.21607 0.0
O397 O 0.52668 0.85863 0.16699 0.0
C398 C 0.58846 0.89324 0.20228 0.0
O399 O 0.60057 0.87684 0.19061 0.0
H400 H 0.54705 0.80933 0.17148 0.0
H401 H 0.59115 0.83979 0.23014 0.0
N402 N 0.52286 0.85748 0.22209 0.0
N403 N 0.49672 0.87136 0.24857 0.0
C404 C 0.51688 0.87658 0.23583 0.0
C405 C 0.50603 0.83939 0.22628 0.0
C406 C 0.48974 0.84797 0.24265 0.0
C407 C 0.53477 0.85351 0.14611 0.0
O408 O 0.55857 0.85164 0.14404 0.0
H409 H 0.52603 0.89454 0.23502 0.0
H410 H 0.5049 0.82177 0.21702 0.0
O411 O 0.56557 0.8894 0.20529 0.0
H412 H 0.6081 0.7962 0.21941 0.0
H413 H 0.47353 0.83815 0.24892 0.0
Cu414 Cu 0.20534 0.5394 0.18727 0.0
N415 N 0.17745 0.51859 0.19032 0.0
N416 N 0.152 0.49388 0.21114 0.0
C417 C 0.16934 0.5123 0.21256 0.0
C418 C 0.14897 0.48837 0.18689 0.0
C419 C 0.1647 0.50369 0.17406 0.0
O420 O 0.20263 0.56376 0.21397 0.0
C421 C 0.23467 0.50653 0.16515 0.0
O422 O 0.21762 0.51037 0.14784 0.0
H423 H 0.17735 0.51998 0.22966 0.0
H424 H 0.16753 0.50307 0.15452 0.0
N425 N 0.20691 0.5579 0.15832 0.0
N426 N 0.22576 0.58213 0.13124 0.0
C427 C 0.22674 0.57254 0.15408 0.0
C428 C 0.19258 0.55823 0.13743 0.0
C429 C 0.20425 0.57315 0.1206 0.0
C430 C 0.18387 0.57696 0.21022 0.0
O431 O 0.17025 0.57317 0.18982 0.0
H432 H 0.24222 0.57509 0.16724 0.0
H433 H 0.17539 0.54773 0.13435 0.0
O434 O 0.23347 0.51753 0.18595 0.0
H435 H 0.13687 0.47382 0.17906 0.0
H436 H 0.19758 0.57684 0.10196 0.0
Cu437 Cu 0.52786 0.23929 0.24316 0.0
N438 N 0.51463 0.2697 0.23645 0.0
N439 N 0.49947 0.30103 0.21501 0.0
C440 C 0.50685 0.27775 0.21418 0.0
C441 C 0.50282 0.30793 0.23886 0.0
C442 C 0.51218 0.28854 0.25204 0.0
O443 O 0.55103 0.23331 0.21744 0.0
C444 C 0.50212 0.19198 0.2512 0.0
O445 O 0.52217 0.18149 0.24491 0.0
H446 H 0.50713 0.26692 0.19757 0.0
H447 H 0.51708 0.28828 0.27156 0.0
N448 N 0.54676 0.2418 0.27248 0.0
N449 N 0.56399 0.22955 0.30813 0.0
C450 C 0.54495 0.22631 0.2915 0.0
C451 C 0.5675 0.25563 0.27732 0.0
C452 C 0.57829 0.248 0.29933 0.0
C453 C 0.54567 0.22983 0.19459 0.0
O454 O 0.52256 0.2253 0.18725 0.0
H455 H 0.53119 0.21145 0.29203 0.0
H456 H 0.57509 0.26908 0.26489 0.0
O457 O 0.50085 0.2152 0.24932 0.0
H458 H 0.49866 0.3256 0.24631 0.0
H459 H 0.59597 0.25443 0.30742 0.0
Cu460 Cu 0.8706 0.85368 0.53658 0.0
N461 N 0.87236 0.8237 0.55279 0.0
N462 N 0.88774 0.79386 0.57626 0.0
C463 C 0.88997 0.81769 0.56969 0.0
C464 C 0.86787 0.78461 0.56289 0.0
C465 C 0.85855 0.80299 0.54836 0.0
O466 O 0.89885 0.85464 0.51485 0.0
C467 C 0.85829 0.90044 0.55721 0.0
O468 O 0.85618 0.90768 0.53423 0.0
H469 H 0.90467 0.8304 0.57624 0.0
H470 H 0.84325 0.80112 0.53495 0.0
N471 N 0.8415 0.8543 0.5172 0.0
N472 N 0.81381 0.87074 0.4913 0.0
C473 C 0.83792 0.86907 0.49777 0.0
C474 C 0.81893 0.84595 0.52307 0.0
C475 C 0.8018 0.85591 0.50698 0.0
C476 C 0.89683 0.84054 0.49586 0.0
O477 O 0.87594 0.82802 0.49132 0.0
H478 H 0.85267 0.8799 0.48991 0.0
H479 H 0.81506 0.83527 0.53925 0.0
O480 O 0.86718 0.8795 0.56187 0.0
H481 H 0.86063 0.76586 0.56334 0.0
H482 H 0.78202 0.85426 0.50829 0.0
Cu483 Cu 0.21371 0.85634 0.52993 0.0
N484 N 0.2445 0.86053 0.51566 0.0
N485 N 0.27512 0.88039 0.49654 0.0
C486 C 0.25087 0.87954 0.50106 0.0
C487 C 0.28433 0.86103 0.50872 0.0
C488 C 0.26546 0.84886 0.52047 0.0
O489 O 0.21232 0.88386 0.5528 0.0
C490 C 0.19052 0.8377 0.48749 0.0
O491 O 0.21236 0.82862 0.48599 0.0
H492 H 0.23818 0.89327 0.49498 0.0
H493 H 0.26719 0.83323 0.53246 0.0
N494 N 0.20762 0.82729 0.54763 0.0
N495 N 0.18305 0.79897 0.56509 0.0
C496 C 0.18431 0.81939 0.55125 0.0
C497 C 0.22186 0.81115 0.55968 0.0
C498 C 0.20668 0.79372 0.57063 0.0
C499 C 0.2253 0.88181 0.57282 0.0
O500 O 0.23715 0.86164 0.57665 0.0
H501 H 0.16844 0.82892 0.54421 0.0
H502 H 0.24175 0.81215 0.56087 0.0
O503 O 0.18744 0.85353 0.50426 0.0
H504 H 0.30344 0.85624 0.50949 0.0
H505 H 0.21256 0.77832 0.58158 0.0
Cu506 Cu 0.21371 0.17066 0.53795 0.0
N507 N 0.19123 0.18267 0.55954 0.0
N508 N 0.16884 0.21091 0.57684 0.0
C509 C 0.1867 0.20664 0.56123 0.0
C510 C 0.16197 0.18867 0.5856 0.0
C511 C 0.17575 0.17125 0.57482 0.0
O512 O 0.21407 0.19532 0.51134 0.0
C513 C 0.24235 0.14665 0.5732 0.0
O514 O 0.22016 0.13725 0.57651 0.0
H515 H 0.19638 0.22068 0.551 0.0
H516 H 0.17423 0.15169 0.5777 0.0
N517 N 0.20243 0.14164 0.52208 0.0
N518 N 0.19933 0.11404 0.49154 0.0
C519 C 0.21074 0.13489 0.50032 0.0
C520 C 0.18513 0.12439 0.52748 0.0
C521 C 0.18329 0.10718 0.50867 0.0
C522 C 0.19338 0.19588 0.49902 0.0
O523 O 0.17543 0.18058 0.50512 0.0
H524 H 0.22507 0.14517 0.4912 0.0
H525 H 0.17445 0.12436 0.54371 0.0
O526 O 0.24476 0.16304 0.55657 0.0
H527 H 0.14758 0.18513 0.59833 0.0
H528 H 0.17088 0.09114 0.50752 0.0
Cu529 Cu 0.87558 0.22099 0.5203 0.0
N530 N 0.84781 0.21563 0.49861 0.0
N531 N 0.82025 0.19601 0.47268 0.0
C532 C 0.84341 0.19646 0.48297 0.0
C533 C 0.80978 0.2157 0.48211 0.0
C534 C 0.82676 0.22773 0.49804 0.0
O535 O 0.87695 0.19337 0.54269 0.0
C536 C 0.90423 0.24396 0.48597 0.0
O537 O 0.88273 0.25272 0.47966 0.0
H538 H 0.85645 0.18239 0.4803 0.0
H539 H 0.82354 0.2435 0.50932 0.0
N540 N 0.87377 0.24851 0.54055 0.0
N541 N 0.88702 0.27434 0.5709 0.0
C542 C 0.88678 0.25116 0.56218 0.0
C543 C 0.86537 0.27081 0.53532 0.0
C544 C 0.87345 0.28678 0.55407 0.0
C545 C 0.85787 0.19053 0.55524 0.0
O546 O 0.83972 0.20531 0.55112 0.0
H547 H 0.89765 0.23681 0.57022 0.0
H548 H 0.85563 0.27558 0.51831 0.0
O549 O 0.90533 0.22758 0.50259 0.0
H550 H 0.79096 0.22072 0.47824 0.0
H551 H 0.87061 0.30627 0.55461 0.0
H552 H 0.21571 0.13505 0.44993 0.0
H553 H 0.19472 0.06512 0.48206 0.0
H554 H 0.20843 0.04381 0.44529 0.0
H555 H 0.20122 0.11737 0.38384 0.0
H556 H 0.22762 0.13504 0.37387 0.0
H557 H 0.21181 0.14483 0.40035 0.0
H558 H 0.25278 0.14514 0.42676 0.0
H559 H 0.26865 0.13541 0.40047 0.0
H560 H 0.27015 0.11775 0.42843 0.0
H561 H 0.231 0.03012 0.40911 0.0
H562 H 0.26028 0.02515 0.37627 0.0
H563 H 0.26645 0.10388 0.36737 0.0
C564 C 0.2136 0.11527 0.44907 0.0
C565 C 0.20421 0.10172 0.46892 0.0
C566 C 0.20159 0.07587 0.46698 0.0
C567 C 0.20934 0.06363 0.44616 0.0
C568 C 0.21931 0.07755 0.42729 0.0
C569 C 0.22121 0.10284 0.42846 0.0
C570 C 0.23491 0.11346 0.40708 0.0
C571 C 0.21787 0.12856 0.39029 0.0
C572 C 0.25798 0.12882 0.41624 0.0
C573 C 0.24163 0.09013 0.39437 0.0
C574 C 0.23206 0.06961 0.40607 0.0
C575 C 0.23803 0.04601 0.39941 0.0
C576 C 0.25467 0.04335 0.38082 0.0
C577 C 0.26519 0.06413 0.36912 0.0
C578 C 0.25799 0.08773 0.37548 0.0
H579 H 0.97959 0.32521 0.39213 0.0
H580 H 0.04496 0.31742 0.4395 0.0
H581 H 1.0199 0.29507 0.46993 0.0
H582 H 0.93544 0.33197 0.44243 0.0
H583 H 0.91148 0.31497 0.42478 0.0
H584 H 0.93419 0.33332 0.40925 0.0
H585 H 0.94457 0.29507 0.38406 0.0
H586 H 0.92251 0.2764 0.4 0.0
H587 H 0.95415 0.26793 0.40002 0.0
H588 H 0.98808 0.26793 0.49179 0.0
H589 H 0.95169 0.24416 0.50612 0.0
H590 H 0.90755 0.27105 0.44419 0.0
C591 C 0.98836 0.31979 0.40947 0.0
C592 C 1.01397 0.32353 0.41392 0.0
C593 C 1.02518 0.31539 0.43625 0.0
C594 C 1.01112 0.30243 0.45343 0.0
C595 C 0.98594 0.29807 0.44796 0.0
C596 C 0.9746 0.30712 0.42676 0.0
C597 C 0.94767 0.29897 0.42431 0.0
C598 C 0.93122 0.32112 0.42526 0.0
C599 C 0.94191 0.28369 0.4007 0.0
C600 C 0.94564 0.28333 0.44707 0.0
C601 C 0.96785 0.28289 0.4605 0.0
C602 C 0.97054 0.26852 0.48159 0.0
C603 C 0.94985 0.25486 0.48945 0.0
C604 C 0.92678 0.25579 0.4763 0.0
C605 C 0.92488 0.27008 0.45475 0.0
H606 H 0.76874 0.86782 0.46746 0.0
H607 H 0.83396 0.91561 0.48044 0.0
H608 H 0.81391 0.94838 0.45727 0.0
H609 H 0.75205 0.89031 0.40521 0.0
H610 H 0.71953 0.88806 0.41015 0.0
H611 H 0.73996 0.86739 0.4257 0.0
H612 H 0.72415 0.88073 0.4677 0.0
H613 H 0.70386 0.90159 0.45233 0.0
H614 H 0.72582 0.91276 0.4761 0.0
H615 H 0.78565 0.97728 0.43657 0.0
H616 H 0.75169 0.99981 0.41746 0.0
H617 H 0.70483 0.93325 0.41689 0.0
C618 C 0.77889 0.88507 0.46513 0.0
C619 C 0.80301 0.88898 0.4756 0.0
C620 C 0.8157 0.91186 0.47219 0.0
C621 C 0.80439 0.93073 0.45919 0.0
C622 C 0.78044 0.92642 0.44958 0.0
C623 C 0.76789 0.90411 0.45214 0.0
C624 C 0.74192 0.90467 0.44089 0.0
C625 C 0.73816 0.88653 0.41919 0.0
C626 C 0.72282 0.89964 0.46042 0.0
C627 C 0.74171 0.93096 0.43217 0.0
C628 C 0.76414 0.94313 0.43729 0.0
C629 C 0.7681 0.96785 0.43203 0.0
C630 C 0.74864 0.98049 0.42105 0.0
C631 C 0.72546 0.96838 0.41532 0.0
C632 C 0.72214 0.94322 0.42101 0.0
H633 H 0.19101 0.8143 0.44328 0.0
H634 H 0.14276 0.83124 0.50156 0.0
H635 H 0.11019 0.80325 0.48226 0.0
H636 H 0.1434 0.81118 0.3938 0.0
H637 H 0.15773 0.78676 0.37821 0.0
H638 H 0.17632 0.80857 0.3967 0.0
H639 H 0.19444 0.77268 0.42178 0.0
H640 H 0.17535 0.75081 0.40382 0.0
H641 H 0.17396 0.75139 0.43688 0.0
H642 H 0.08358 0.77093 0.45696 0.0
H643 H 0.06349 0.74329 0.42486 0.0
H644 H 0.12933 0.74912 0.38325 0.0
C645 C 0.17343 0.81247 0.45176 0.0
C646 C 0.16936 0.82505 0.47384 0.0
C647 C 0.14615 0.82207 0.48443 0.0
C648 C 0.12766 0.80597 0.47375 0.0
C649 C 0.1326 0.79322 0.45234 0.0
C650 C 0.15478 0.79679 0.44121 0.0
C651 C 0.15552 0.7815 0.41802 0.0
C652 C 0.1584 0.79799 0.39535 0.0
C653 C 0.17604 0.763 0.42028 0.0
C654 C 0.13033 0.76865 0.41774 0.0
C655 C 0.11741 0.77528 0.43782 0.0
C656 C 0.09359 0.76567 0.44119 0.0
C657 C 0.08242 0.74972 0.42307 0.0
C658 C 0.09501 0.74384 0.40179 0.0
C659 C 0.11942 0.75306 0.3995 0.0
H660 H 0.23744 0.8781 0.62155 0.0
H661 H 0.22491 0.93143 0.56391 0.0
H662 H 0.24095 0.96461 0.59242 0.0
H663 H 0.22255 0.91826 0.67425 0.0
H664 H 0.24616 0.90538 0.69402 0.0
H665 H 0.2304 0.8868 0.67019 0.0
H666 H 0.27236 0.87718 0.65267 0.0
H667 H 0.28823 0.89592 0.67616 0.0
H668 H 0.29299 0.90212 0.64415 0.0
H669 H 0.26483 0.99059 0.62525 0.0
H670 H 0.29069 1.00761 0.66058 0.0
H671 H 0.28586 0.93729 0.697 0.0
C672 C 0.2374 0.89687 0.61513 0.0
C673 C 0.22986 0.90227 0.59059 0.0
C674 C 0.23028 0.92697 0.58275 0.0
C675 C 0.23948 0.94588 0.5988 0.0
C676 C 0.24767 0.93975 0.62267 0.0
C677 C 0.2462 0.91585 0.63093 0.0
C678 C 0.25756 0.91367 0.65678 0.0
C679 C 0.238 0.90555 0.67488 0.0
C680 C 0.27906 0.8962 0.65746 0.0
C681 C 0.26657 0.93992 0.66155 0.0
C682 C 0.26067 0.95475 0.64172 0.0
C683 C 0.26905 0.97924 0.64105 0.0
C684 C 0.28384 0.98871 0.66108 0.0
C685 C 0.28998 0.97378 0.68155 0.0
C686 C 0.2809 0.94921 0.68185 0.0
H687 H 0.10556 0.30974 0.65772 0.0
H688 H 0.1147 0.361 0.59768 0.0
H689 H 0.13369 0.3289 0.5737 0.0
H690 H 0.16214 0.28002 0.65208 0.0
H691 H 0.14945 0.25004 0.65939 0.0
H692 H 0.13636 0.27698 0.67162 0.0
H693 H 0.09347 0.26284 0.6526 0.0
H694 H 0.10643 0.23584 0.64031 0.0
H695 H 0.08993 0.2562 0.62007 0.0
H696 H 0.15163 0.29109 0.55635 0.0
H697 H 0.16771 0.25077 0.54702 0.0
H698 H 0.14695 0.22427 0.61861 0.0
C699 C 0.11123 0.3142 0.63942 0.0
C700 C 0.10851 0.33794 0.62955 0.0
C701 C 0.11676 0.34306 0.60571 0.0
C702 C 0.12745 0.32489 0.59191 0.0
C703 C 0.12979 0.30171 0.60222 0.0
C704 C 0.12194 0.29633 0.62544 0.0
C705 C 0.12691 0.2701 0.63246 0.0
C706 C 0.14478 0.26925 0.65523 0.0
C707 C 0.10274 0.25538 0.6366 0.0
C708 C 0.13878 0.26151 0.60953 0.0
C709 C 0.14025 0.28001 0.59231 0.0
C710 C 0.15065 0.2765 0.56974 0.0
C711 C 0.15991 0.25354 0.56469 0.0
C712 C 0.15879 0.2343 0.58214 0.0
C713 C 0.14791 0.23845 0.60479 0.0
H714 H 0.81796 0.17953 0.58198 0.0
H715 H 0.89371 0.16036 0.57387 0.0
H716 H 0.8903 0.13146 0.60879 0.0
H717 H 0.81907 0.17827 0.64769 0.0
H718 H 0.78806 0.16546 0.64877 0.0
H719 H 0.79664 0.18433 0.6232 0.0
H720 H 0.78206 0.14944 0.5927 0.0
H721 H 0.77326 0.13054 0.61815 0.0
H722 H 0.79433 0.11946 0.59653 0.0
H723 H 0.87802 0.1047 0.64514 0.0
H724 H 0.85764 0.08104 0.67764 0.0
H725 H 0.79039 0.11903 0.66156 0.0
C726 C 0.8339 0.16928 0.58743 0.0
C727 C 0.85614 0.17223 0.57519 0.0
C728 C 0.87647 0.15834 0.58294 0.0
C729 C 0.87472 0.14198 0.6028 0.0
C730 C 0.85252 0.13977 0.61462 0.0
C731 C 0.83246 0.15299 0.60707 0.0
C732 C 0.81056 0.14726 0.62245 0.0
C733 C 0.80316 0.1702 0.63635 0.0
C734 C 0.78877 0.136 0.60651 0.0
C735 C 0.82131 0.12864 0.63992 0.0
C736 C 0.84555 0.12459 0.63526 0.0
C737 C 0.85908 0.10783 0.64895 0.0
C738 C 0.84738 0.09461 0.66755 0.0
C739 C 0.82236 0.09816 0.67222 0.0
C740 C 0.80943 0.11571 0.65835 0.0
H741 H 0.9802 0.77987 0.69239 0.0
H742 H 0.97119 0.70133 0.68213 0.0
H743 H 0.94667 0.70741 0.64354 0.0
H744 H 0.91981 0.79256 0.67439 0.0
H745 H 0.92734 0.82105 0.65926 0.0
H746 H 0.94718 0.8105 0.68409 0.0
H747 H 0.98425 0.81278 0.65589 0.0
H748 H 0.96453 0.82352 0.63097 0.0
H749 H 0.98211 0.79671 0.62678 0.0
H750 H 0.91996 0.72234 0.60791 0.0
H751 H 0.89369 0.74453 0.57814 0.0
H752 H 0.91823 0.81349 0.61321 0.0
C753 C 0.97352 0.76392 0.68175 0.0
C754 C 0.97833 0.73997 0.68995 0.0
C755 C 0.96872 0.71969 0.6758 0.0
C756 C 0.95449 0.72306 0.65392 0.0
C757 C 0.94986 0.74692 0.64656 0.0
C758 C 0.95916 0.76702 0.66004 0.0
C759 C 0.95001 0.79068 0.64923 0.0
C760 C 0.9352 0.8045 0.66785 0.0
C761 C 0.97151 0.80688 0.64017 0.0
C762 C 0.93362 0.78072 0.62788 0.0
C763 C 0.93397 0.75547 0.62649 0.0
C764 C 0.91965 0.74214 0.60876 0.0
C765 C 0.90457 0.75494 0.59203 0.0
C766 C 0.90372 0.78086 0.59322 0.0
C767 C 0.91863 0.79378 0.61142 0.0
H768 H 0.43243 0.31839 0.08458 0.0
H769 H 0.43881 0.39715 0.09595 0.0
H770 H 0.46266 0.39075 0.13537 0.0
H771 H 0.42153 0.30313 0.14531 0.0
H772 H 0.43835 0.27542 0.14515 0.0
H773 H 0.42435 0.28654 0.11693 0.0
H774 H 0.46654 0.28704 0.09668 0.0
H775 H 0.48067 0.2757 0.12481 0.0
H776 H 0.49262 0.30364 0.11141 0.0
H777 H 0.48329 0.37464 0.17551 0.0
H778 H 0.49966 0.35094 0.21097 0.0
H779 H 0.47741 0.28327 0.17237 0.0
C780 C 0.43914 0.33442 0.09506 0.0
C781 C 0.4338 0.3583 0.08714 0.0
C782 C 0.44286 0.37869 0.10157 0.0
C783 C 0.45633 0.3752 0.124 0.0
C784 C 0.4606 0.35125 0.13157 0.0
C785 C 0.45236 0.33127 0.11732 0.0
C786 C 0.45796 0.30734 0.12981 0.0
C787 C 0.43413 0.29223 0.13458 0.0
C788 C 0.4755 0.29257 0.11478 0.0
C789 C 0.47048 0.31683 0.15354 0.0
C790 C 0.47199 0.34216 0.15433 0.0
C791 C 0.4823 0.35481 0.17494 0.0
C792 C 0.49138 0.34117 0.19509 0.0
C793 C 0.49002 0.31516 0.1945 0.0
C794 C 0.47931 0.30305 0.17337 0.0
H795 H 0.80788 0.4621 0.192 0.0
H796 H 0.82508 0.51505 0.13556 0.0
H797 H 0.80016 0.48947 0.10466 0.0
H798 H 0.81009 0.40763 0.15334 0.0
H799 H 0.78548 0.39205 0.16887 0.0
H800 H 0.80553 0.41427 0.18526 0.0
H801 H 0.76741 0.43795 0.19681 0.0
H802 H 0.74729 0.41616 0.17992 0.0
H803 H 0.74645 0.44833 0.17273 0.0
H804 H 0.76998 0.45816 0.08071 0.0
H805 H 0.74369 0.42239 0.06543 0.0
H806 H 0.74803 0.39078 0.13843 0.0
C807 C 0.80678 0.46814 0.17302 0.0
C808 C 0.81849 0.49045 0.16609 0.0
C809 C 0.81656 0.49779 0.14114 0.0
C810 C 0.80221 0.4835 0.12358 0.0
C811 C 0.79019 0.46187 0.13131 0.0
C812 C 0.79288 0.45408 0.15542 0.0
C813 C 0.77853 0.43021 0.15943 0.0
C814 C 0.79595 0.40984 0.16717 0.0
C815 C 0.75875 0.43337 0.17834 0.0
C816 C 0.76702 0.42569 0.13388 0.0
C817 C 0.77364 0.44415 0.11782 0.0
C818 C 0.76484 0.44364 0.0932 0.0
C819 C 0.74966 0.4234 0.08472 0.0
C820 C 0.74366 0.40389 0.10079 0.0
C821 C 0.75218 0.40546 0.12572 0.0
H822 H 0.59075 0.71759 0.07053 0.0
H823 H 0.63532 0.6687 0.11432 0.0
H824 H 0.62247 0.68842 0.15242 0.0
H825 H 0.60759 0.76864 0.10275 0.0
H826 H 0.57838 0.78306 0.1006 0.0
H827 H 0.58584 0.7615 0.07738 0.0
H828 H 0.5462 0.73527 0.08522 0.0
H829 H 0.53843 0.75704 0.10832 0.0
H830 H 0.54045 0.72507 0.11601 0.0
H831 H 0.61089 0.71793 0.18476 0.0
H832 H 0.60078 0.75424 0.20889 0.0
H833 H 0.56501 0.78472 0.14352 0.0
C834 C 0.59671 0.71024 0.08818 0.0
C835 C 0.61356 0.69131 0.08964 0.0
C836 C 0.62206 0.68293 0.113 0.0
C837 C 0.61486 0.69402 0.13465 0.0
C838 C 0.5991 0.71345 0.13259 0.0
C839 C 0.5899 0.72134 0.10992 0.0
C840 C 0.57612 0.74467 0.11244 0.0
C841 C 0.58769 0.76569 0.09742 0.0
C842 C 0.54867 0.74024 0.10507 0.0
C843 C 0.58 0.74928 0.13985 0.0
C844 C 0.59287 0.73086 0.15124 0.0
C845 C 0.60039 0.73223 0.17612 0.0
C846 C 0.59478 0.75304 0.18963 0.0
C847 C 0.58199 0.77235 0.1782 0.0
C848 C 0.57423 0.7701 0.15305 0.0
H849 H 0.23682 0.58493 0.08274 0.0
H850 H 0.258 0.61401 0.15546 0.0
H851 H 0.29219 0.63827 0.13814 0.0
H852 H 0.29815 0.57993 0.06203 0.0
H853 H 0.29045 0.58919 0.0309 0.0
H854 H 0.26741 0.57403 0.04885 0.0
H855 H 0.23873 0.61025 0.04156 0.0
H856 H 0.26156 0.62536 1.02336 0.0
H857 H 0.25 0.64096 0.04939 0.0
H858 H 0.32404 0.65971 0.11302 0.0
H859 H 0.35015 0.6781 0.08144 0.0
H860 H 0.30866 0.63505 0.02496 0.0
C861 C 0.24848 0.59659 0.09496 0.0
C862 C 0.24475 0.5974 0.12054 0.0
C863 C 0.26066 0.61275 0.1359 0.0
C864 C 0.28012 0.62668 0.12622 0.0
C865 C 0.28355 0.62515 0.10106 0.0
C866 C 0.26812 0.61061 0.08558 0.0
C867 C 0.27585 0.61242 0.05918 0.0
C868 C 0.28342 0.5874 0.04969 0.0
C869 C 0.25532 0.62287 0.04239 0.0
C870 C 0.2979 0.63034 0.06227 0.0
C871 C 0.30206 0.6374 0.08659 0.0
C872 C 0.32102 0.65426 0.09392 0.0
C873 C 0.33582 0.66456 0.07584 0.0
C874 C 0.33164 0.65796 0.05071 0.0
C875 C 0.3126 0.64032 0.04402 0.0
H876 H 0.39621 0.73307 0.92487 0.0
H877 H 0.44434 0.71353 0.98687 0.0
H878 H 0.48065 0.72357 0.96236 0.0
H879 H 0.43672 0.71194 0.87486 0.0
H880 H 0.42808 0.73721 0.8555 0.0
H881 H 0.40642 0.72383 0.87622 0.0
H882 H 0.40134 0.76664 0.89558 0.0
H883 H 0.4231 0.78008 0.87525 0.0
H884 H 0.42817 0.78378 0.9081 0.0
H885 H 0.51094 0.74383 0.93412 0.0
H886 H 0.5326 0.76929 0.90364 0.0
H887 H 0.46454 0.77401 0.85961 0.0
C888 C 0.41441 0.73005 0.93296 0.0
C889 C 0.41759 0.72239 0.95763 0.0
C890 C 0.44158 0.71897 0.96783 0.0
C891 C 0.46226 0.72473 0.95405 0.0
C892 C 0.45849 0.73331 0.93002 0.0
C893 C 0.43508 0.73541 0.9194 0.0
C894 C 0.43574 0.74718 0.89424 0.0
C895 C 0.42618 0.72895 0.87401 0.0
C896 C 0.42124 0.77082 0.89326 0.0
C897 C 0.46309 0.75266 0.89282 0.0
C898 C 0.47598 0.74432 0.9135 0.0
C899 C 0.50112 0.7498 0.91757 0.0
C900 C 0.51324 0.76436 0.90027 0.0
C901 C 0.50027 0.77323 0.87914 0.0
C902 C 0.47502 0.76679 0.87518 0.0
H903 H 0.33156 0.41385 0.95637 0.0
H904 H 0.35042 0.44877 0.02697 0.0
H905 H 0.31584 0.47635 1.02023 0.0
H906 H 0.31121 0.46964 0.92375 0.0
H907 H 0.28697 0.45255 0.90659 0.0
H908 H 0.31496 0.43794 0.91595 0.0
H909 H 0.28927 0.404 0.93752 0.0
H910 H 0.26127 0.41872 0.9287 0.0
H911 H 0.26857 0.41245 0.9607 0.0
H912 H 0.27582 0.49675 1.00754 0.0
H913 H 0.23696 0.51107 0.98811 0.0
H914 H 0.2449 0.46232 0.92612 0.0
C915 C 0.32889 0.42779 0.9701 0.0
C916 C 0.34378 0.42926 0.99211 0.0
C917 C 0.33949 0.44754 1.00979 0.0
C918 C 0.31976 0.46317 1.00619 0.0
C919 C 0.30477 0.46049 0.98467 0.0
C920 C 0.30947 0.44355 0.96672 0.0
C921 C 0.29009 0.4434 0.94578 0.0
C922 C 0.30149 0.45137 0.92159 0.0
C923 C 0.27651 0.41815 0.94303 0.0
C924 C 0.27338 0.46251 0.95495 0.0
C925 C 0.28208 0.47221 0.97739 0.0
C926 C 0.26905 0.48947 0.98982 0.0
C927 C 0.24684 0.4973 0.97877 0.0
C928 C 0.23791 0.4879 0.95552 0.0
C929 C 0.25141 0.47015 0.94369 0.0
H930 H 0.64698 0.24671 0.89674 0.0
H931 H 0.57586 0.23528 0.92838 0.0
H932 H 0.59028 0.26128 0.9642 0.0
H933 H 0.68316 0.24459 0.95466 0.0
H934 H 0.70554 0.2674 0.94497 0.0
H935 H 0.68921 0.24773 0.92249 0.0
H936 H 0.67482 0.28612 0.89883 0.0
H937 H 0.69059 0.30591 0.9216 0.0
H938 H 0.65814 0.30875 0.91459 0.0
H939 H 0.61242 0.29122 0.99554 0.0
H940 H 0.64226 0.31592 1.02259 0.0
H941 H 0.6989 0.30544 0.97077 0.0
C942 C 0.63455 0.24938 0.91139 0.0
C943 C 0.61035 0.23893 0.90987 0.0
C944 C 0.5946 0.24285 0.92937 0.0
C945 C 0.60255 0.25783 0.94962 0.0
C946 C 0.62638 0.26846 0.95019 0.0
C947 C 0.6423 0.2639 0.93181 0.0
C948 C 0.66721 0.27671 0.93697 0.0
C949 C 0.68747 0.25799 0.93996 0.0
C950 C 0.67302 0.29548 0.91679 0.0
C951 C 0.66292 0.28931 0.96111 0.0
C952 C 0.63916 0.28477 0.96833 0.0
C953 C 0.63108 0.2948 0.99005 0.0
C954 C 0.648 0.30905 1.00515 0.0
C955 C 0.6727 0.31273 0.99854 0.0
C956 C 0.68002 0.30306 0.97608 0.0
H957 H 0.73514 0.61544 0.96671 0.0
H958 H 0.77123 0.68453 0.99062 0.0
H959 H 0.81136 0.6687 0.98078 0.0
H960 H 0.78171 0.57658 0.98984 0.0
H961 H 0.77851 0.55552 0.96416 0.0
H962 H 0.75253 0.57234 0.97288 0.0
H963 H 0.74753 0.58955 0.92863 0.0
H964 H 0.77342 0.57268 0.91973 0.0
H965 H 0.77336 0.60538 0.91526 0.0
H966 H 0.84785 0.64493 0.96905 0.0
H967 H 0.87752 0.61564 0.95473 0.0
H968 H 0.81744 0.56249 0.93791 0.0
C969 C 0.75136 0.62744 0.9696 0.0
C970 C 0.74987 0.65128 0.97958 0.0
C971 C 0.77179 0.6661 0.98337 0.0
C972 C 0.79472 0.65731 0.97771 0.0
C973 C 0.79549 0.63366 0.96816 0.0
C974 C 0.77437 0.61899 0.964 0.0
C975 C 0.78023 0.59423 0.95363 0.0
C976 C 0.77281 0.57345 0.97118 0.0
C977 C 0.7679 0.59024 0.92778 0.0
C978 C 0.80795 0.59728 0.95261 0.0
C979 C 0.81642 0.62011 0.96117 0.0
C980 C 0.84141 0.62701 0.96227 0.0
C981 C 0.85815 0.61019 0.95425 0.0
C982 C 0.84985 0.58677 0.94513 0.0
C983 C 0.82437 0.58034 0.94444 0.0
H984 H 0.10481 0.37722 0.28477 0.0
H985 H 0.09758 0.42427 0.3483 0.0
H986 H 0.11255 0.45996 0.32415 0.0
H987 H 0.1597 0.40681 0.26232 0.0
H988 H 0.14959 0.40251 0.23046 0.0
H989 H 0.13941 0.38103 0.25328 0.0
H990 H 0.09403 0.38835 0.23966 0.0
H991 H 0.10404 0.41007 0.21698 0.0
H992 H 0.08318 0.41909 0.23979 0.0
H993 H 0.12799 0.4906 0.29204 0.0
H994 H 0.14279 0.51304 0.25576 0.0
H995 H 0.13842 0.44537 0.21351 0.0
C996 C 0.10655 0.39494 0.29384 0.0
C997 C 0.10013 0.39787 0.31858 0.0
C998 C 0.10255 0.42151 0.32947 0.0
C999 C 0.11095 0.44188 0.31584 0.0
C1000 C 0.11672 0.43829 0.29133 0.0
C1001 C 0.11465 0.41533 0.28052 0.0
C1002 C 0.12143 0.41617 0.25382 0.0
C1003 C 0.14387 0.40072 0.24974 0.0
C1004 C 0.09935 0.40793 0.23655 0.0
C1005 C 0.12772 0.44325 0.25112 0.0
C1006 C 0.12499 0.45575 0.27295 0.0
C1007 C 0.13017 0.48093 0.27492 0.0
C1008 C 0.13862 0.49352 0.25422 0.0
C1009 C 0.14171 0.48101 0.23172 0.0
C1010 C 0.1359 0.45556 0.23025 0.0
H1011 H 0.08158 0.57622 0.84822 0.0
H1012 H 0.15619 0.59576 0.82824 0.0
H1013 H 0.14007 0.6235 0.7965 0.0
H1014 H 0.05336 0.5772 0.7876 0.0
H1015 H 1.02564 0.59076 0.79687 0.0
H1016 H 0.04285 0.57211 0.81818 0.0
H1017 H 0.0462 0.60779 0.8499 0.0
H1018 H 0.02878 0.62645 0.82874 0.0
H1019 H 0.05868 0.63737 0.84092 0.0
H1020 H 0.11593 0.64809 0.76562 0.0
H1021 H 0.08518 0.66983 0.7398 0.0
H1022 H 1.02667 0.63627 0.78139 0.0
C1023 C 0.09458 0.58648 0.83739 0.0
C1024 C 0.1202 0.58337 0.84065 0.0
C1025 C 0.13647 0.59718 0.82585 0.0
C1026 C 0.12751 0.6132 0.8078 0.0
C1027 C 0.10221 0.61551 0.80485 0.0
C1028 C 0.08596 0.60274 0.81937 0.0
C1029 C 0.0596 0.60879 0.81254 0.0
C1030 C 0.04449 0.58585 0.80324 0.0
C1031 C 0.04762 0.62082 0.83433 0.0
C1032 C 0.06365 0.62691 0.79192 0.0
C1033 C 0.08834 0.63039 0.78762 0.0
C1034 C 0.09653 0.6457 0.76894 0.0
C1035 C 0.07898 0.65791 0.75434 0.0
C1036 C 0.05363 0.65493 0.75876 0.0
C1037 C 0.04597 0.6392 0.7778 0.0
H1038 H 0.41943 0.09924 0.76171 0.0
H1039 H 0.39587 0.07027 0.83128 0.0
H1040 H 0.42993 0.09433 0.85322 0.0
H1041 H 0.484 0.09805 0.77559 0.0
H1042 H 0.491 0.12617 0.75961 0.0
H1043 H 0.46445 0.10715 0.74979 0.0
H1044 H 0.43639 0.14389 0.75462 0.0
H1045 H 0.46287 0.16307 0.76427 0.0
H1046 H 0.43697 0.16006 0.78363 0.0
H1047 H 0.46825 0.12089 0.86715 0.0
H1048 H 0.50492 0.14943 0.87181 0.0
H1049 H 0.50223 0.16033 0.7927 0.0
C1050 C 0.42144 0.09789 0.78156 0.0
C1051 C 0.40507 0.08279 0.79478 0.0
C1052 C 0.40808 0.08188 0.8208 0.0
C1053 C 0.42747 0.09534 0.83338 0.0
C1054 C 0.44356 0.10973 0.81966 0.0
C1055 C 0.44052 0.11121 0.79432 0.0
C1056 C 0.46001 0.12804 0.78369 0.0
C1057 C 0.4758 0.11401 0.76614 0.0
C1058 C 0.44836 0.15007 0.7708 0.0
C1059 C 0.47464 0.13579 0.80697 0.0
C1060 C 0.46505 0.12502 0.82758 0.0
C1061 C 0.47582 0.12947 0.85111 0.0
C1062 C 0.4967 0.14561 0.85358 0.0
C1063 C 0.50641 0.15716 0.83264 0.0
C1064 C 0.49524 0.15191 0.80911 0.0
H1065 H 0.97414 0.45523 0.8565 0.0
H1066 H 0.96511 0.53126 0.83762 0.0
H1067 H 0.98944 0.52616 0.80071 0.0
H1068 H 0.03785 0.45066 0.83266 0.0
H1069 H 0.03109 0.41992 0.82139 0.0
H1070 H 1.01658 0.43064 0.8483 0.0
H1071 H 0.97366 0.41936 0.82742 0.0
H1072 H 0.98804 0.40878 0.8005 0.0
H1073 H 0.96554 0.43202 0.79767 0.0
H1074 H 1.01052 0.51155 0.76371 0.0
H1075 H 1.0272 0.48876 0.72952 0.0
H1076 H 1.02119 0.42173 0.77211 0.0
C1077 C 0.97805 0.4709 0.84496 0.0
C1078 C 0.96789 0.49368 0.84969 0.0
C1079 C 0.97268 0.51371 0.83395 0.0
C1080 C 0.98657 0.51099 0.81315 0.0
C1081 C 0.99563 0.48806 0.80841 0.0
C1082 C 0.99178 0.46839 0.82398 0.0
C1083 C 1.00159 0.44521 0.81347 0.0
C1084 C 1.02305 0.43607 0.82994 0.0
C1085 C 0.98098 0.42517 0.80953 0.0
C1086 C 1.01056 0.45471 0.78919 0.0
C1087 C 1.00741 0.47954 0.78681 0.0
C1088 C 1.01332 0.49211 0.76547 0.0
C1089 C 1.02259 0.47891 0.746 0.0
C1090 C 1.02559 0.45329 0.7478 0.0
C1091 C 1.01964 0.44127 0.76994 0.0
H1092 H 0.72473 0.94432 0.76577 0.0
H1093 H 0.68745 1.01281 0.77004 0.0
H1094 H 0.65011 0.99029 0.78303 0.0
H1095 H 0.67384 0.90783 0.74193 0.0
H1096 H 0.68084 0.88095 0.75965 0.0
H1097 H 0.70525 0.90234 0.75168 0.0
H1098 H 0.71914 0.90756 0.79774 0.0
H1099 H 0.69502 0.88587 0.80583 0.0
H1100 H 0.69708 0.91603 0.81959 0.0
H1101 H 0.61624 0.9605 0.79299 0.0
H1102 H 0.58877 0.92549 0.80338 0.0
H1103 H 0.64821 0.87613 0.79452 0.0
C1104 C 0.70892 0.95467 0.76994 0.0
C1105 C 0.70901 0.98039 0.76672 0.0
C1106 C 0.68772 0.99311 0.77203 0.0
C1107 C 0.66644 0.98048 0.77947 0.0
C1108 C 0.66675 0.95512 0.78173 0.0
C1109 C 0.68749 0.94233 0.77748 0.0
C1110 C 0.68276 0.91503 0.78116 0.0
C1111 C 0.68586 0.9007 0.75717 0.0
C1112 C 0.69949 0.90557 0.80235 0.0
C1113 C 0.65605 0.91451 0.78792 0.0
C1114 C 0.64721 0.93785 0.78802 0.0
C1115 C 0.62303 0.94215 0.79331 0.0
C1116 C 0.60758 0.92212 0.79927 0.0
C1117 C 0.61635 0.89804 0.8001 0.0
C1118 C 0.64086 0.89423 0.79394 0.0
H1119 H 0.95669 0.68551 0.31046 0.0
H1120 H 1.01887 0.63939 0.32255 0.0
H1121 H 0.99695 0.60652 0.29714 0.0
H1122 H 0.90912 0.63622 0.31317 0.0
H1123 H 0.88954 0.65041 0.29016 0.0
H1124 H 0.91018 0.6691 0.31 0.0
H1125 H 0.929 0.68876 0.27146 0.0
H1126 H 0.90892 0.66961 0.25151 0.0
H1127 H 0.94179 0.66941 0.24884 0.0
H1128 H 0.96832 0.57981 0.26693 0.0
H1129 H 0.93361 0.55967 0.24188 0.0
H1130 H 0.89043 0.62342 0.25177 0.0
C1131 C 0.9655 0.66828 0.3082 0.0
C1132 C 0.98939 0.66489 0.31863 0.0
C1133 C 1.00039 0.64218 0.3151 0.0
C1134 C 0.98818 0.62356 0.30042 0.0
C1135 C 0.96488 0.62787 0.28969 0.0
C1136 C 0.95348 0.64952 0.29401 0.0
C1137 C 0.92828 0.64975 0.28098 0.0
C1138 C 0.90809 0.65146 0.29969 0.0
C1139 C 0.92694 0.67062 0.26208 0.0
C1140 C 0.9272 0.62497 0.26835 0.0
C1141 C 0.94855 0.61262 0.2732 0.0
C1142 C 0.95155 0.58937 0.26315 0.0
C1143 C 0.93191 0.57818 0.24864 0.0
C1144 C 0.90952 0.59017 0.2446 0.0
C1145 C 0.90747 0.61398 0.25428 0.0
H1146 H 0.37924 0.94335 0.28252 0.0
H1147 H 0.43028 0.99903 0.31509 0.0
H1148 H 0.46502 0.97341 0.3067 0.0
H1149 H 0.41192 0.8907 0.30438 0.0
H1150 H 0.40556 0.87316 0.27646 0.0
H1151 H 0.38428 0.89545 0.28567 0.0
H1152 H 0.38743 0.91727 0.24359 0.0
H1153 H 0.40846 0.89488 0.23416 0.0
H1154 H 0.41728 0.92706 0.23337 0.0
H1155 H 0.49424 0.94268 0.29415 0.0
H1156 H 0.51656 0.90929 0.2758 0.0
H1157 H 0.44707 0.87351 0.25079 0.0
C1158 C 0.39773 0.95016 0.28777 0.0
C1159 C 0.402 0.97305 0.29976 0.0
C1160 C 0.42649 0.98132 0.3064 0.0
C1161 C 0.44637 0.96694 0.30165 0.0
C1162 C 0.44151 0.94432 0.29021 0.0
C1163 C 0.41786 0.93599 0.28318 0.0
C1164 C 0.41792 0.91126 0.27044 0.0
C1165 C 0.4041 0.89148 0.28512 0.0
C1166 C 0.40714 0.91272 0.24381 0.0
C1167 C 0.44531 0.90722 0.27118 0.0
C1168 C 0.45852 0.92647 0.28283 0.0
C1169 C 0.48413 0.92743 0.28506 0.0
C1170 C 0.49663 0.90845 0.27457 0.0
C1171 C 0.48353 0.88884 0.26199 0.0
C1172 C 0.45752 0.88802 0.26072 0.0
H1173 H 0.64574 0.12533 0.35953 0.0
H1174 H 0.5797 0.09289 0.38985 0.0
H1175 H 0.5582 0.13104 0.38124 0.0
H1176 H 0.63724 0.18958 0.37943 0.0
H1177 H 0.64874 0.2018 0.35125 0.0
H1178 H 0.66011 0.17359 0.36355 0.0
H1179 H 0.64791 0.15143 0.32219 0.0
H1180 H 0.63672 0.17952 0.30977 0.0
H1181 H 0.61664 0.15239 0.30976 0.0
H1182 H 0.54224 0.16987 0.36382 0.0
H1183 H 0.53292 0.2059 0.33811 0.0
H1184 H 0.60925 0.21293 0.31918 0.0
C1185 C 0.62684 0.12629 0.36461 0.0
C1186 C 0.61441 0.10608 0.37536 0.0
C1187 C 0.58972 0.10822 0.3819 0.0
C1188 C 0.57735 0.12984 0.37709 0.0
C1189 C 0.59004 0.14922 0.36601 0.0
C1190 C 0.61429 0.14768 0.35996 0.0
C1191 C 0.62305 0.17006 0.346 0.0
C1192 C 0.64349 0.18462 0.36096 0.0
C1193 C 0.63156 0.16292 0.32042 0.0
C1194 C 0.59958 0.18395 0.34409 0.0
C1195 C 0.58087 0.17184 0.35614 0.0
C1196 C 0.55686 0.17981 0.3548 0.0
C1197 C 0.55172 0.2002 0.34016 0.0
C1198 C 0.57044 0.2123 0.32701 0.0
C1199 C 0.59479 0.2045 0.32968 0.0
H1200 H 0.78816 1.01409 0.61134 0.0
H1201 H 0.77094 0.96881 0.67414 0.0
H1202 H 0.79349 0.935 0.65654 0.0
H1203 H 0.78175 0.96442 0.56558 0.0
H1204 H 0.80649 0.97687 0.54792 0.0
H1205 H 0.78846 0.99704 0.56531 0.0
H1206 H 0.82836 1.01482 0.58782 0.0
H1207 H 0.84647 0.99445 0.57077 0.0
H1208 H 0.84867 0.99443 0.60397 0.0
H1209 H 0.82077 0.90671 0.63294 0.0
H1210 H 0.84529 0.88498 0.60323 0.0
H1211 H 0.84317 0.94806 0.55498 0.0
C1212 C 0.7888 0.99695 0.62127 0.0
C1213 C 0.77759 0.99423 0.6442 0.0
C1214 C 0.77906 0.97142 0.65649 0.0
C1215 C 0.79204 0.95212 0.64669 0.0
C1216 C 0.80334 0.95564 0.62436 0.0
C1217 C 0.80141 0.97737 0.61158 0.0
C1218 C 0.81487 0.97641 0.58774 0.0
C1219 C 0.79681 0.97882 0.56531 0.0
C1220 C 0.83584 0.99621 0.58758 0.0
C1221 C 0.82492 0.95087 0.58918 0.0
C1222 C 0.81829 0.93924 0.61055 0.0
C1223 C 0.82587 0.91566 0.61608 0.0
C1224 C 0.84001 0.90349 0.59914 0.0
C1225 C 0.84634 0.91469 0.57667 0.0
C1226 C 0.83878 0.93887 0.57193 0.0
H1227 H 0.17506 0.77407 0.60789 0.0
H1228 H 0.14024 0.79447 0.53787 0.0
H1229 H 0.10104 0.775 0.54995 0.0
H1230 H 0.14204 0.71462 0.61282 0.0
H1231 H 0.13925 0.71708 0.64563 0.0
H1232 H 0.16498 0.73209 0.63135 0.0
H1233 H 0.15381 0.77349 0.65031 0.0
H1234 H 0.12794 0.75865 0.66449 0.0
H1235 H 0.12333 0.7845 0.6445 0.0
H1236 H 0.06548 0.75443 0.56945 0.0
H1237 H 0.03552 0.73266 0.59489 0.0
H1238 H 0.0923 0.72468 0.65285 0.0
C1239 C 0.15924 0.77414 0.59504 0.0
C1240 C 0.16072 0.78597 0.57195 0.0
C1241 C 0.1395 0.78589 0.55576 0.0
C1242 C 0.11714 0.77478 0.56242 0.0
C1243 C 0.11614 0.76373 0.58541 0.0
C1244 C 0.13657 0.76317 0.6015 0.0
C1245 C 0.13012 0.75026 0.62525 0.0
C1246 C 0.14498 0.72714 0.62897 0.0
C1247 C 0.13403 0.76777 0.64745 0.0
C1248 C 0.10291 0.74374 0.61994 0.0
C1249 C 0.09536 0.75171 0.5968 0.0
C1250 C 0.0712 0.74795 0.58754 0.0
C1251 C 0.05431 0.73543 0.60213 0.0
C1252 C 0.06149 0.72671 0.62583 0.0
C1253 C 0.08616 0.73121 0.63491 0.0
H1254 H 0.23953 0.1228 0.61676 0.0
H1255 H 0.29264 0.1484 0.56478 0.0
H1256 H 0.32576 0.12848 0.58975 0.0
H1257 H 0.27883 0.13131 0.6717 0.0
H1258 H 0.26583 0.10442 0.6862 0.0
H1259 H 0.24735 0.12121 0.66429 0.0
H1260 H 0.23831 0.08145 0.63857 0.0
H1261 H 0.25693 0.06459 0.66029 0.0
H1262 H 0.26362 0.06456 0.62815 0.0
H1263 H 0.35295 0.1023 0.62113 0.0
H1264 H 0.37023 0.07715 0.65554 0.0
H1265 H 0.298 0.07106 0.68574 0.0
C1266 C 0.25814 0.12444 0.61056 0.0
C1267 C 0.26338 0.13719 0.58868 0.0
C1268 C 0.28811 0.13889 0.58151 0.0
C1269 C 0.30701 0.12748 0.59557 0.0
C1270 C 0.30097 0.11461 0.61688 0.0
C1271 C 0.27702 0.11343 0.62434 0.0
C1272 C 0.27472 0.09879 0.64775 0.0
C1273 C 0.26619 0.1149 0.66872 0.0
C1274 C 0.25737 0.07601 0.64341 0.0
C1275 C 0.30107 0.0917 0.6525 0.0
C1276 C 0.31614 0.10068 0.63457 0.0
C1277 C 0.34118 0.09547 0.63528 0.0
C1278 C 0.35089 0.08108 0.65485 0.0
C1279 C 0.33564 0.07227 0.67361 0.0
C1280 C 0.31042 0.07771 0.67204 0.0
H1281 H 0.90876 0.32008 0.57477 0.0
H1282 H 0.90112 0.2507 0.61278 0.0
H1283 H 0.93116 0.26604 0.64549 0.0
H1284 H 0.97213 0.32843 0.58542 0.0
H1285 H 0.97204 0.3612 0.58952 0.0
H1286 H 0.94808 0.34568 0.57069 0.0
H1287 H 0.915 0.36397 0.59724 0.0
H1288 H 0.93889 0.3797 0.6161 0.0
H1289 H 0.9166 0.35951 0.63012 0.0
H1290 H 0.96471 0.28831 0.67257 0.0
H1291 H 0.99859 0.31529 0.69103 0.0
H1292 H 0.9836 0.36964 0.63481 0.0
C1293 C 0.91284 0.30833 0.59029 0.0
C1294 C 0.90244 0.28422 0.59126 0.0
C1295 C 0.90892 0.26921 0.6116 0.0
C1296 C 0.92588 0.27781 0.63032 0.0
C1297 C 0.93619 0.30152 0.62851 0.0
C1298 C 0.92979 0.31658 0.60903 0.0
C1299 C 0.9446 0.34068 0.61042 0.0
C1300 C 0.96013 0.34419 0.58767 0.0
C1301 C 0.92777 0.36224 0.61367 0.0
C1302 C 0.96066 0.33669 0.63346 0.0
C1303 C 0.95546 0.31411 0.64383 0.0
C1304 C 0.96875 0.30614 0.66472 0.0
C1305 C 0.98796 0.32157 0.67509 0.0
C1306 C 0.99376 0.3446 0.66444 0.0
C1307 C 0.97964 0.35221 0.64353 0.0
H1308 H 0.70915 0.10666 0.42489 0.0
H1309 H 0.75658 0.07719 0.37132 0.0
H1310 H 0.79034 0.10648 0.38623 0.0
H1311 H 0.73088 0.17015 0.4197 0.0
H1312 H 0.72798 0.17632 0.452 0.0
H1313 H 0.70792 0.15345 0.43652 0.0
H1314 H 0.72155 0.12121 0.46872 0.0
H1315 H 0.74175 0.14392 0.48421 0.0
H1316 H 0.75383 0.1157 0.47373 0.0
H1317 H 0.8199 0.13769 0.4099 0.0
H1318 H 0.84076 0.1698 0.43693 0.0
H1319 H 0.77263 0.17925 0.47312 0.0
C1320 C 0.72659 0.1064 0.41615 0.0
C1321 C 0.73029 0.08955 0.39701 0.0
C1322 C 0.75332 0.09001 0.38594 0.0
C1323 C 0.7726 0.10651 0.39438 0.0
C1324 C 0.76839 0.12265 0.41362 0.0
C1325 C 0.74575 0.12289 0.42406 0.0
C1326 C 0.74559 0.14197 0.44432 0.0
C1327 C 0.72699 0.16164 0.43773 0.0
C1328 C 0.74038 0.12997 0.46921 0.0
C1329 C 0.77179 0.15234 0.44403 0.0
C1330 C 0.7848 0.14092 0.42635 0.0
C1331 C 0.80972 0.14688 0.42356 0.0
C1332 C 0.82148 0.16503 0.43906 0.0
C1333 C 0.80827 0.17722 0.45693 0.0
C1334 C 0.78311 0.17066 0.45931 0.0
H1335 H 0.95543 0.78536 0.37652 0.0
H1336 H 1.02495 0.78382 0.4186 0.0
H1337 H 1.00674 0.80532 0.45316 0.0
H1338 H 0.93595 0.84455 0.39825 0.0
H1339 H 0.90416 0.83424 0.39974 0.0
H1340 H 0.92329 0.82075 0.37768 0.0
H1341 H 0.91287 0.77757 0.39496 0.0
H1342 H 0.8936 0.79092 0.41692 0.0
H1343 H 0.91824 0.77192 0.4274 0.0
H1344 H 0.98007 0.82714 0.48371 0.0
H1345 H 0.94667 0.84214 0.50862 0.0
H1346 H 0.89416 0.82672 0.44743 0.0
C1347 C 0.96688 0.78991 0.39288 0.0
C1348 C 0.99173 0.7832 0.39474 0.0
C1349 C 1.00592 0.78885 0.41675 0.0
C1350 C 0.99574 0.80118 0.43642 0.0
C1351 C 0.97114 0.80751 0.43405 0.0
C1352 C 0.95683 0.80173 0.4129 0.0
C1353 C 0.9304 0.8087 0.41567 0.0
C1354 C 0.92302 0.82822 0.39671 0.0
C1355 C 0.91274 0.78592 0.41362 0.0
C1356 C 0.93199 0.81921 0.44164 0.0
C1357 C 0.95571 0.81881 0.45186 0.0
C1358 C 0.96145 0.82751 0.4758 0.0
C1359 C 0.9424 0.8362 0.4898 0.0
C1360 C 0.91779 0.83573 0.48002 0.0
C1361 C 0.91279 0.82742 0.45547 0.0
H1362 H 0.29634 0.97692 0.38944 0.0
H1363 H 0.37062 0.99133 0.42003 0.0
H1364 H 0.36207 0.96244 0.45418 0.0
H1365 H 0.26687 0.97227 0.44841 0.0
H1366 H 0.24499 0.9486 0.43723 0.0
H1367 H 0.257 0.9711 0.41627 0.0
H1368 H 0.27143 0.93628 0.38864 0.0
H1369 H 0.2597 0.91369 0.40959 0.0
H1370 H 0.29152 0.91385 0.40179 0.0
H1371 H 0.34573 0.92879 0.48306 0.0
H1372 H 0.32256 0.89697 0.50585 0.0
H1373 H 0.25852 0.90625 0.45674 0.0
C1374 C 0.31082 0.97419 0.40342 0.0
C1375 C 0.33425 0.98629 0.402 0.0
C1376 C 0.35253 0.98237 0.42081 0.0
C1377 C 0.34783 0.9659 0.44018 0.0
C1378 C 0.32461 0.95386 0.44068 0.0
C1379 C 0.30631 0.9582 0.42294 0.0
C1380 C 0.28291 0.94308 0.42738 0.0
C1381 C 0.26169 0.95976 0.43264 0.0
C1382 C 0.276 0.9257 0.40555 0.0
C1383 C 0.29094 0.929 0.45014 0.0
C1384 C 0.31508 0.93537 0.45753 0.0
C1385 C 0.32678 0.92393 0.47751 0.0
C1386 C 0.3135 0.90571 0.49026 0.0
C1387 C 0.28865 0.89909 0.48319 0.0
C1388 C 0.27733 0.91109 0.46286 0.0
H1389 H 0.15953 0.18965 0.46099 0.0
H1390 H 0.21381 0.24273 0.49243 0.0
H1391 H 0.19878 0.27382 0.46258 0.0
H1392 H 0.16199 0.21021 0.3966 0.0
H1393 H 0.1294 0.20419 0.39077 0.0
H1394 H 0.14621 0.18607 0.41295 0.0
H1395 H 0.11592 0.19722 0.44614 0.0
H1396 H 0.09918 0.21555 0.42419 0.0
H1397 H 0.11133 0.22902 0.45282 0.0
H1398 H 0.17395 0.30026 0.4317 0.0
H1399 H 0.14449 0.31833 0.40146 0.0
H1400 H 0.10729 0.2471 0.39031 0.0
C1401 C 0.16865 0.20769 0.46134 0.0
C1402 C 0.18795 0.21373 0.47902 0.0
C1403 C 0.19925 0.23757 0.47887 0.0
C1404 C 0.19069 0.25536 0.46206 0.0
C1405 C 0.17105 0.24891 0.44533 0.0
C1406 C 0.16049 0.22544 0.44467 0.0
C1407 C 0.13911 0.22309 0.42572 0.0
C1408 C 0.14451 0.20481 0.4053 0.0
C1409 C 0.11497 0.2158 0.43796 0.0
C1410 C 0.13876 0.24905 0.41604 0.0
C1411 C 0.1573 0.26374 0.42752 0.0
C1412 C 0.15964 0.28876 0.42245 0.0
C1413 C 0.1427 0.29892 0.40532 0.0
C1414 C 0.12361 0.28416 0.39328 0.0
C1415 C 0.1219 0.25884 0.39872 0.0
H1416 H 0.66342 0.75128 0.9514 0.0
H1417 H 0.65068 0.76994 0.02718 0.0
H1418 H 0.62458 0.80364 1.01262 0.0
H1419 H 0.66531 0.81467 0.92767 0.0
H1420 H 0.65005 0.80547 0.89871 0.0
H1421 H 0.66925 0.78445 0.91538 0.0
H1422 H 0.63283 0.75224 0.91487 0.0
H1423 H 0.61352 0.77318 0.89835 0.0
H1424 H 0.60406 0.76038 0.92709 0.0
H1425 H 0.5954 0.83224 0.98888 0.0
H1426 H 0.56916 0.85469 0.95879 0.0
H1427 H 0.6031 0.81844 0.89888 0.0
C1428 C 0.65559 0.76277 0.96501 0.0
C1429 C 0.65926 0.75797 0.9905 0.0
C1430 C 0.64845 0.77338 1.00761 0.0
C1431 C 0.63346 0.79251 0.99946 0.0
C1432 C 0.62973 0.7963 0.97414 0.0
C1433 C 0.64088 0.78205 0.95721 0.0
C1434 C 0.63342 0.78916 0.93102 0.0
C1435 C 0.65584 0.79903 0.9174 0.0
C1436 C 0.62017 0.76745 0.91702 0.0
C1437 C 0.61589 0.80932 0.93572 0.0
C1438 C 0.61387 0.81318 0.96068 0.0
C1439 C 0.59728 0.82965 0.96932 0.0
C1440 C 0.5824 0.84233 0.95209 0.0
C1441 C 0.58433 0.83876 0.92642 0.0
C1442 C 0.60157 0.82216 0.91831 0.0
H1443 H 0.26293 0.68876 0.96086 0.0
H1444 H 0.33069 0.68032 0.92362 0.0
H1445 H 0.31073 0.64631 0.89869 0.0
H1446 H 0.24846 0.62739 0.96706 0.0
H1447 H 0.21563 0.6297 0.96231 0.0
H1448 H 0.2341 0.65546 0.97443 0.0
H1449 H 0.21736 0.68281 0.93902 0.0
H1450 H 0.19858 0.65714 0.92688 0.0
H1451 H 0.21979 0.67319 0.9075 0.0
H1452 H 0.28418 0.6099 0.88116 0.0
H1453 H 0.25358 0.57543 0.87276 0.0
H1454 H 0.20397 0.60906 0.92169 0.0
C1455 C 0.27335 0.68041 0.94687 0.0
C1456 C 0.29833 0.68734 0.94409 0.0
C1457 C 0.31152 0.67527 0.92609 0.0
C1458 C 0.30032 0.656 0.91179 0.0
C1459 C 0.27584 0.64912 0.91558 0.0
C1460 C 0.2625 0.66117 0.93258 0.0
C1461 C 0.23722 0.64912 0.93481 0.0
C1462 C 0.23367 0.63987 0.9612 0.0
C1463 C 0.21705 0.66661 0.92655 0.0
C1464 C 0.23855 0.62808 0.91685 0.0
C1465 C 0.26081 0.62837 0.90571 0.0
C1466 C 0.26654 0.60972 0.88952 0.0
C1467 C 0.2491 0.59022 0.88485 0.0
C1468 C 0.22638 0.58954 0.89651 0.0
C1469 C 0.22109 0.60899 0.91235 0.0
H1470 H 0.42382 0.28937 0.96788 0.0
H1471 H 0.43409 0.36673 0.95153 0.0
H1472 H 0.46372 0.35683 0.92036 0.0
H1473 H 0.48737 0.27416 0.96161 0.0
H1474 H 0.47979 0.24458 0.94775 0.0
H1475 H 0.45922 0.25764 0.9687 0.0
H1476 H 0.42356 0.25333 0.93547 0.0
H1477 H 0.44401 0.24025 0.91442 0.0
H1478 H 0.42729 0.26689 0.90561 0.0
H1479 H 0.49157 0.33844 0.88991 0.0
H1480 H 0.51685 0.3133 0.86407 0.0
H1481 H 0.48972 0.24762 0.90037 0.0
C1482 C 0.43219 0.30424 0.95767 0.0
C1483 C 0.42646 0.32894 0.96229 0.0
C1484 C 0.43823 0.34776 0.94864 0.0
C1485 C 0.45504 0.34227 0.93075 0.0
C1486 C 0.46022 0.31781 0.92667 0.0
C1487 C 0.44928 0.29908 0.93986 0.0
C1488 C 0.45842 0.27436 0.93211 0.0
C1489 C 0.47201 0.26196 0.95384 0.0
C1490 C 0.43705 0.25773 0.92126 0.0
C1491 C 0.47608 0.2821 0.91241 0.0
C1492 C 0.4767 0.30725 0.9095 0.0
C1493 C 0.49123 0.31874 0.89211 0.0
C1494 C 0.50547 0.30424 0.87736 0.0
C1495 C 0.50541 0.27839 0.88002 0.0
C1496 C 0.49047 0.2673 0.89796 0.0
H1497 H 0.81695 0.38551 1.01918 0.0
H1498 H 0.75485 0.36599 0.96895 0.0
H1499 H 0.77188 0.39395 0.93767 0.0
H1500 H 0.82043 0.44845 1.00444 0.0
H1501 H 0.85356 0.45137 1.00717 0.0
H1502 H 0.8374 0.42848 0.0247 0.0
H1503 H 0.8629 0.39462 1.00605 0.0
H1504 H 0.87924 0.41744 0.98853 0.0
H1505 H 0.86355 0.39158 0.97305 0.0
H1506 H 0.79546 0.4257 0.91224 0.0
H1507 H 0.82283 0.45856 0.89572 0.0
H1508 H 0.86872 0.45731 0.96325 0.0
C1509 C 0.8072 0.38669 1.00143 0.0
C1510 C 0.78463 0.37337 0.99647 0.0
C1511 C 0.77213 0.37603 0.97318 0.0
C1512 C 0.78172 0.39182 0.95527 0.0
C1513 C 0.80383 0.40495 0.9609 0.0
C1514 C 0.81639 0.40252 0.98345 0.0
C1515 C 0.83912 0.41955 0.98547 0.0
C1516 C 0.83752 0.43806 1.0067 0.0
C1517 C 0.86259 0.40492 0.98844 0.0
C1518 C 0.83735 0.43207 0.96065 0.0
C1519 C 0.817 0.42335 0.94659 0.0
C1520 C 0.8115 0.43257 0.92309 0.0
C1521 C 0.82715 0.45123 0.91383 0.0
C1522 C 0.84795 0.4606 0.92812 0.0
C1523 C 0.85301 0.45066 0.95177 0.0
H1524 H 0.67577 0.282 0.14853 0.0
H1525 H 0.64123 0.28388 0.07505 0.0
H1526 H 0.60331 0.26409 0.09043 0.0
H1527 H 0.64744 0.22336 0.16742 0.0
H1528 H 0.64343 0.23357 0.19849 0.0
H1529 H 0.66848 0.24633 0.18145 0.0
H1530 H 0.6536 0.29006 0.18884 0.0
H1531 H 0.62859 0.27744 0.20595 0.0
H1532 H 0.62232 0.29697 0.17992 0.0
H1533 H 0.56867 0.24494 0.114 0.0
H1534 H 0.53896 0.23077 0.14428 0.0
H1535 H 0.59522 0.24234 0.20309 0.0
C1536 C 0.66033 0.2779 0.13566 0.0
C1537 C 0.66153 0.28439 0.11051 0.0
C1538 C 0.64071 0.27921 0.09436 0.0
C1539 C 0.61914 0.26782 0.10292 0.0
C1540 C 0.61848 0.2618 0.12781 0.0
C1541 C 0.63846 0.26681 0.144 0.0
C1542 C 0.63235 0.25982 0.17013 0.0
C1543 C 0.64891 0.23956 0.17995 0.0
C1544 C 0.63433 0.28242 0.18721 0.0
C1545 C 0.6058 0.25028 0.16612 0.0
C1546 C 0.59828 0.25131 0.14151 0.0
C1547 C 0.57441 0.24398 0.1333 0.0
C1548 C 0.55764 0.23585 0.1507 0.0
C1549 C 0.56463 0.23527 0.17617 0.0
C1550 C 0.58923 0.24232 0.18379 0.0
H1551 H 0.79181 0.58287 0.15217 0.0
H1552 H 0.78325 0.63174 0.21382 0.0
H1553 H 0.76226 0.66087 0.18586 0.0
H1554 H 0.80249 0.62938 0.10595 0.0
H1555 H 0.78497 0.61254 0.08197 0.0
H1556 H 0.80035 0.59635 0.10667 0.0
H1557 H 0.75905 0.57417 0.11683 0.0
H1558 H 0.74361 0.59014 0.09207 0.0
H1559 H 0.73289 0.59206 0.12284 0.0
H1560 H 0.74201 0.685 0.15011 0.0
H1561 H 0.72096 0.69921 0.11145 0.0
H1562 H 0.74164 0.6334 0.07423 0.0
C1563 C 0.78575 0.59982 0.15974 0.0
C1564 C 0.78935 0.60509 0.1852 0.0
C1565 C 0.78062 0.62725 0.19444 0.0
C1566 C 0.76883 0.64399 0.17863 0.0
C1567 C 0.76566 0.63825 0.15359 0.0
C1568 C 0.77367 0.61652 0.1443 0.0
C1569 C 0.76687 0.61391 0.11702 0.0
C1570 C 0.79005 0.613 0.10202 0.0
C1571 C 0.74958 0.59123 0.1119 0.0
C1572 C 0.75368 0.63747 0.11236 0.0
C1573 C 0.75343 0.65153 0.13352 0.0
C1574 C 0.74213 0.67408 0.13347 0.0
C1575 C 0.73035 0.68212 0.11141 0.0
C1576 C 0.72964 0.66745 0.08983 0.0
C1577 C 0.74181 0.64504 0.09042 0.0
H1578 H 0.40559 0.7997 0.09019 0.0
H1579 H 0.44273 0.77977 0.02466 0.0
H1580 H 0.48103 0.80067 0.04159 0.0
H1581 H 0.43681 0.86028 0.09946 0.0
H1582 H 0.43827 0.85744 0.13253 0.0
H1583 H 0.41337 0.84234 0.11446 0.0
H1584 H 0.42417 0.80076 0.13417 0.0
H1585 H 0.44905 0.81572 0.15226 0.0
H1586 H 0.455 0.79023 0.13256 0.0
H1587 H 0.51619 0.82139 0.06709 0.0
H1588 H 0.5451 0.83993 0.09911 0.0
H1589 H 0.48455 0.84716 0.14737 0.0
C1590 C 0.42157 0.80015 0.07912 0.0
C1591 C 0.42103 0.78803 0.05603 0.0
C1592 C 0.44267 0.78865 0.04248 0.0
C1593 C 0.4645 0.80065 0.05187 0.0
C1594 C 0.46445 0.81211 0.07482 0.0
C1595 C 0.44351 0.81203 0.08822 0.0
C1596 C 0.44862 0.82462 0.11295 0.0
C1597 C 0.43336 0.84754 0.11495 0.0
C1598 C 0.44393 0.80676 0.13423 0.0
C1599 C 0.47578 0.83148 0.11153 0.0
C1600 C 0.48458 0.82422 0.08935 0.0
C1601 C 0.50942 0.82744 0.08439 0.0
C1602 C 0.52571 0.83803 0.1027 0.0
C1603 C 0.51714 0.84527 0.12571 0.0
C1604 C 0.49172 0.84223 0.12988 0.0
H1605 H 0.30893 0.42939 0.07105 0.0
H1606 H 0.32421 0.37817 0.12997 0.0
H1607 H 0.3046 0.40519 0.15925 0.0
H1608 H 0.31839 0.48543 0.10706 0.0
H1609 H 0.2933 0.50044 0.0914 0.0
H1610 H 0.30965 0.47769 0.07547 0.0
H1611 H 0.26878 0.45297 0.06531 0.0
H1612 H 0.25225 0.47572 0.08095 0.0
H1613 H 0.2493 0.44402 0.08993 0.0
H1614 H 0.28287 0.43878 0.18247 0.0
H1615 H 0.257 0.47251 0.19557 0.0
H1616 H 0.25477 0.50033 0.12098 0.0
C1617 C 0.3083 0.42395 0.09016 0.0
C1618 C 0.31822 0.40163 0.09818 0.0
C1619 C 0.31661 0.39503 0.12329 0.0
C1620 C 0.30568 0.41041 0.14013 0.0
C1621 C 0.29617 0.43235 0.13164 0.0
C1622 C 0.29712 0.43891 0.10712 0.0
C1623 C 0.28429 0.46265 0.10224 0.0
C1624 C 0.3025 0.48274 0.09353 0.0
C1625 C 0.26235 0.45858 0.08351 0.0
C1626 C 0.2758 0.46836 0.12775 0.0
C1627 C 0.28314 0.45097 0.14464 0.0
C1628 C 0.27709 0.45249 0.16934 0.0
C1629 C 0.26257 0.47182 0.17673 0.0
C1630 C 0.25396 0.48912 0.15938 0.0
C1631 C 0.26115 0.48745 0.13474 0.0
H1632 H 0.92653 0.54654 0.82229 0.0
H1633 H 0.85958 0.58473 0.83144 0.0
H1634 H 0.86819 0.60983 0.79448 0.0
H1635 H 0.96276 0.59764 0.80587 0.0
H1636 H 0.98018 0.58119 0.78434 0.0
H1637 H 0.96702 0.56537 0.80979 0.0
H1638 H 0.94424 0.53434 0.77891 0.0
H1639 H 0.95763 0.55058 0.75369 0.0
H1640 H 0.92468 0.54581 0.75422 0.0
H1641 H 0.88819 0.63484 0.76023 0.0
H1642 H 0.91497 0.65397 0.72913 0.0
H1643 H 0.96717 0.59726 0.74156 0.0
C1644 C 0.91322 0.55951 0.81595 0.0
C1645 C 0.89206 0.5633 0.82919 0.0
C1646 C 0.8755 0.58114 0.82101 0.0
C1647 C 0.8804 0.59556 0.80021 0.0
C1648 C 0.90185 0.59172 0.78783 0.0
C1649 C 0.91777 0.5738 0.79525 0.0
C1650 C 0.94026 0.57408 0.77993 0.0
C1651 C 0.96393 0.57991 0.79594 0.0
C1652 C 0.94178 0.54976 0.76584 0.0
C1653 C 0.93469 0.59501 0.76271 0.0
C1654 C 0.91265 0.60528 0.7677 0.0
C1655 C 0.90512 0.62652 0.75578 0.0
C1656 C 0.9204 0.63734 0.73829 0.0
C1657 C 0.9427 0.62668 0.73267 0.0
C1658 C 0.94978 0.60523 0.745 0.0
H1659 H 0.88252 0.44265 0.27572 0.0
H1660 H 0.93062 0.50693 0.26597 0.0
H1661 H 0.96666 0.48302 0.278 0.0
H1662 H 0.91662 0.41816 0.32888 0.0
H1663 H 0.91161 0.38665 0.31921 0.0
H1664 H 0.88936 0.40891 0.31042 0.0
H1665 H 0.89323 0.39742 0.26455 0.0
H1666 H 0.91562 0.37525 0.27319 0.0
H1667 H 0.9231 0.39906 0.25156 0.0
H1668 H 0.99756 0.45257 0.2909 0.0
H1669 H 1.02161 0.41727 0.30413 0.0
H1670 H 0.95442 0.37168 0.30511 0.0
C1671 C 0.90062 0.4517 0.2764 0.0
C1672 C 0.90372 0.47673 0.26984 0.0
C1673 C 0.92778 0.48779 0.27064 0.0
C1674 C 0.94838 0.47436 0.27754 0.0
C1675 C 0.94478 0.44972 0.28352 0.0
C1676 C 0.92155 0.43842 0.28306 0.0
C1677 C 0.92306 0.41151 0.28996 0.0
C1678 C 0.90935 0.40599 0.31352 0.0
C1679 C 0.91316 0.39483 0.26854 0.0
C1680 C 0.95072 0.40954 0.29442 0.0
C1681 C 0.96281 0.43189 0.29065 0.0
C1682 C 0.98829 0.43499 0.29394 0.0
C1683 C 1.00181 0.41483 0.30154 0.0
C1684 C 0.98997 0.39169 0.30571 0.0
C1685 C 0.96404 0.38903 0.30182 0.0
H1686 H 0.60802 0.99558 0.3066 0.0
H1687 H 0.68514 1.00192 0.2898 0.0
H1688 H 0.67659 0.9739 0.25414 0.0
H1689 H 0.59919 0.93317 0.29439 0.0
H1690 H 0.56832 0.93504 0.28113 0.0
H1691 H 0.58012 0.95751 0.30345 0.0
H1692 H 0.57046 0.9923 0.2726 0.0
H1693 H 0.55855 0.96986 0.2502 0.0
H1694 H 0.58272 0.99165 0.2424 0.0
H1695 H 0.65996 0.94149 0.22279 0.0
H1696 H 0.63685 0.90898 0.19834 0.0
H1697 H 0.57067 0.92492 0.23572 0.0
C1698 C 0.6231 0.99149 0.2952 0.0
C1699 C 0.64728 1.00105 0.30101 0.0
C1700 C 0.66644 0.99501 0.28564 0.0
C1701 C 0.66175 0.97906 0.26536 0.0
C1702 C 0.63776 0.96951 0.26053 0.0
C1703 C 0.61872 0.97575 0.27493 0.0
C1704 C 0.59483 0.96213 0.26681 0.0
C1705 C 0.58506 0.94601 0.28768 0.0
C1706 C 0.5755 0.98006 0.25744 0.0
C1707 C 0.60345 0.94671 0.24596 0.0
C1708 C 0.62821 0.95128 0.24246 0.0
C1709 C 0.64049 0.93807 0.22517 0.0
C1710 C 0.6272 0.9196 0.21136 0.0
C1711 C 0.60186 0.91446 0.21488 0.0
C1712 C 0.5899 0.92857 0.23221 0.0
H1713 H 0.15065 0.61213 0.20127 0.0
H1714 H 0.1978 0.5833 0.25991 0.0
H1715 H 0.17998 0.61166 0.28952 0.0
H1716 H 0.15309 0.67555 0.22245 0.0
H1717 H 0.1214 0.67985 0.21289 0.0
H1718 H 0.13905 0.65841 0.19665 0.0
H1719 H 0.10613 0.62394 0.20428 0.0
H1720 H 0.08844 0.64521 0.22064 0.0
H1721 H 0.09782 0.61735 0.23535 0.0
H1722 H 0.15406 0.64202 0.31313 0.0
H1723 H 0.12486 0.67175 0.32771 0.0
H1724 H 0.09524 0.68007 0.25286 0.0
C1725 C 0.15754 0.61185 0.22029 0.0
C1726 C 0.17575 0.59539 0.22821 0.0
C1727 C 0.18407 0.59581 0.25331 0.0
C1728 C 0.17394 0.61182 0.27026 0.0
C1729 C 0.15563 0.62745 0.26179 0.0
C1730 C 0.14775 0.62765 0.23727 0.0
C1731 C 0.1275 0.64557 0.23261 0.0
C1732 C 0.13576 0.66606 0.21511 0.0
C1733 C 0.10356 0.63222 0.22264 0.0
C1734 C 0.12484 0.65537 0.2584 0.0
C1735 C 0.14117 0.64475 0.27505 0.0
C1736 C 0.14138 0.65047 0.30012 0.0
C1737 C 0.12457 0.66733 0.30828 0.0
C1738 C 0.10767 0.67847 0.29151 0.0
C1739 C 0.10808 0.67234 0.2662 0.0
H1740 H 0.48823 0.14286 0.24621 0.0
H1741 H 0.47334 0.20845 0.28713 0.0
H1742 H 0.44449 0.1843 0.31228 0.0
H1743 H 0.42512 0.1182 0.24403 0.0
H1744 H 0.43392 0.08682 0.24655 0.0
H1745 H 0.45394 0.10926 0.23252 0.0
H1746 H 0.48946 0.09815 0.26339 0.0
H1747 H 0.46943 0.07592 0.27773 0.0
H1748 H 0.4851 0.09996 0.296 0.0
H1749 H 0.41824 0.15193 0.33458 0.0
H1750 H 0.39253 0.11589 0.34734 0.0
H1751 H 0.42215 0.07247 0.28976 0.0
C1752 C 0.4788 0.15215 0.26038 0.0
C1753 C 0.4831 0.17761 0.26465 0.0
C1754 C 0.47023 0.18905 0.28331 0.0
C1755 C 0.45393 0.17542 0.29787 0.0
C1756 C 0.45028 0.15031 0.29338 0.0
C1757 C 0.46199 0.1389 0.27472 0.0
C1758 C 0.45387 0.11199 0.27275 0.0
C1759 C 0.44094 0.10624 0.24746 0.0
C1760 C 0.47577 0.09554 0.27777 0.0
C1761 C 0.4359 0.10999 0.29325 0.0
C1762 C 0.43436 0.13216 0.30527 0.0
C1763 C 0.41922 0.13453 0.32515 0.0
C1764 C 0.40482 0.11393 0.33244 0.0
C1765 C 0.40531 0.09138 0.31959 0.0
C1766 C 0.42133 0.08948 0.29995 0.0
H1767 H 0.08285 0.39219 0.77142 0.0
H1768 H 0.14988 0.37123 0.73833 0.0
H1769 H 0.17447 0.39639 0.7691 0.0
H1770 H 0.10028 0.45274 0.78132 0.0
H1771 H 0.08621 0.45591 0.81044 0.0
H1772 H 0.07394 0.43337 0.78844 0.0
H1773 H 0.07893 0.39911 0.82079 0.0
H1774 H 0.09082 0.42162 0.84312 0.0
H1775 H 0.10848 0.3954 0.8365 0.0
H1776 H 0.19138 0.42867 0.79941 0.0
H1777 H 0.19941 0.46216 0.83004 0.0
H1778 H 0.12151 0.4612 0.84377 0.0
C1779 C 0.10272 0.39216 0.77114 0.0
C1780 C 0.11441 0.37962 0.75244 0.0
C1781 C 0.14048 0.38056 0.7525 0.0
C1782 C 0.15463 0.39488 0.76988 0.0
C1783 C 0.14248 0.40798 0.78728 0.0
C1784 C 0.11712 0.40639 0.78834 0.0
C1785 C 0.10845 0.42353 0.80779 0.0
C1786 C 0.09122 0.44251 0.7963 0.0
C1787 C 0.09594 0.40904 0.82827 0.0
C1788 C 0.13286 0.43544 0.81705 0.0
C1789 C 0.15228 0.42625 0.80501 0.0
C1790 C 0.17638 0.43566 0.80932 0.0
C1791 C 0.18077 0.45476 0.8266 0.0
C1792 C 0.16117 0.46408 0.83945 0.0
C1793 C 0.13697 0.45417 0.83456 0.0
H1794 H 0.65607 0.1843 0.78606 0.0
H1795 H 0.59115 0.13589 0.78903 0.0
H1796 H 0.61188 0.1044 0.76543 0.0
H1797 H 0.67339 0.16807 0.72501 0.0
H1798 H 0.70594 0.16949 0.73307 0.0
H1799 H 0.68562 0.18829 0.74934 0.0
H1800 H 0.70116 0.16996 0.79084 0.0
H1801 H 0.72169 0.1513 0.77473 0.0
H1802 H 0.69987 0.13716 0.79478 0.0
H1803 H 0.64051 0.07811 0.73997 0.0
H1804 H 0.67509 0.05849 0.72046 0.0
H1805 H 0.72162 0.12358 0.73631 0.0
C1806 C 0.64612 0.16714 0.78162 0.0
C1807 C 0.62179 0.16273 0.78931 0.0
C1808 C 0.60974 0.13974 0.78349 0.0
C1809 C 0.62137 0.12179 0.7699 0.0
C1810 C 0.64529 0.12683 0.76242 0.0
C1811 C 0.65762 0.14889 0.76846 0.0
C1812 C 0.68363 0.14947 0.75947 0.0
C1813 C 0.68736 0.17005 0.7406 0.0
C1814 C 0.70271 0.15212 0.78125 0.0
C1815 C 0.68414 0.12437 0.74736 0.0
C1816 C 0.66177 0.11162 0.74888 0.0
C1817 C 0.65805 0.08803 0.73878 0.0
C1818 C 0.67776 0.07705 0.72749 0.0
C1819 C 0.70113 0.08945 0.72662 0.0
C1820 C 0.70402 0.11356 0.73651 0.0
H1821 H 0.45802 0.88714 0.83313 0.0
H1822 H 0.52944 0.92251 0.82204 0.0
H1823 H 0.50951 0.95294 0.79473 0.0
H1824 H 0.43257 0.89396 0.77228 0.0
H1825 H 0.40209 0.89992 0.78168 0.0
H1826 H 0.42196 0.88152 0.80075 0.0
H1827 H 0.41726 0.91059 0.83786 0.0
H1828 H 0.39703 0.92882 0.81903 0.0
H1829 H 0.42405 0.94299 0.83456 0.0
H1830 H 0.48067 0.97871 0.76605 0.0
H1831 H 0.44615 0.99937 0.74412 0.0
H1832 H 0.39437 0.94724 0.77553 0.0
C1833 C 0.46952 0.90145 0.82524 0.0
C1834 C 0.49538 0.90237 0.82992 0.0
C1835 C 0.5096 0.92147 0.81905 0.0
C1836 C 0.49842 0.93875 0.80329 0.0
C1837 C 0.4729 0.93692 0.79863 0.0
C1838 C 0.45866 0.91892 0.80971 0.0
C1839 C 0.43162 0.92092 0.8022 0.0
C1840 C 0.42148 0.8977 0.78841 0.0
C1841 C 0.41661 0.92615 0.82475 0.0
C1842 C 0.43273 0.94279 0.7851 0.0
C1843 C 0.45665 0.95173 0.78294 0.0
C1844 C 0.4619 0.97181 0.76778 0.0
C1845 C 0.4422 0.98334 0.75516 0.0
C1846 C 0.4175 0.97495 0.75797 0.0
C1847 C 0.413 0.95417 0.77292 0.0
loop_
_geom_bond_atom_site_label_1
_geom_bond_atom_site_label_2
_geom_bond_distance
_geom_bond_site_symmetry_2
_ccdc_geom_bond_type
Cu0 N1 1.999 1_545 S
Cu0 O6 1.974 . S
Cu0 N11 1.985 . S
Cu0 O20 1.959 1_545 S
N1 Cu0 1.999 1_565 S
N1 C3 1.263 . S
N1 C5 1.389 . S
N2 C3 1.358 . S
N2 C4 1.400 . S
C3 N1 1.263 . S
C3 N2 1.358 . S
C3 H9 0.930 1_565 S
C4 N2 1.400 . S
C4 C5 1.351 . S
C4 H21 0.930 . S
C5 N1 1.389 . S
C5 C4 1.351 . S
C5 H10 0.930 . S
O6 Cu0 1.974 . S
O6 C16 1.282 . S
C7 O8 1.261 . S
C7 O20 1.251 . S
O8 C7 1.261 . S
H9 C3 0.930 1_545 S
H10 C5 0.930 . S
N11 Cu0 1.985 . S
N11 C13 1.335 . S
N11 C14 1.390 . S
N12 C13 1.345 . S
N12 C15 1.336 . S
C13 N11 1.335 . S
C13 N12 1.345 . S
C13 H18 0.930 . S
C14 N11 1.390 . S
C14 C15 1.346 . S
C14 H19 0.930 . S
C15 N12 1.336 . S
C15 C14 1.346 . S
C15 H22 0.929 . S
C16 O6 1.282 . S
C16 O17 1.216 . S
O17 C16 1.216 . S
H18 C13 0.930 . S
H19 C14 0.930 . S
O20 Cu0 1.959 1_565 S
O20 C7 1.251 . S
H21 C4 0.930 . S
H22 C15 0.929 . S
Cu23 N24 1.999 . S
Cu23 O29 1.974 1_455 S
Cu23 N34 1.985 1_455 S
Cu23 O43 1.959 . S
N24 Cu23 1.999 . S
N24 C26 1.263 . S
N24 C28 1.389 . S
N25 C26 1.358 . S
N25 C27 1.400 . S
C26 N24 1.263 . S
C26 N25 1.358 . S
C26 H32 0.930 . S
C27 N25 1.400 . S
C27 C28 1.351 . S
C27 H44 0.930 . S
C28 N24 1.389 . S
C28 C27 1.351 . S
C28 H33 0.930 . S
O29 Cu23 1.974 1_655 S
O29 C39 1.282 . S
C30 O31 1.261 . S
C30 O43 1.251 . S
O31 C30 1.261 . S
H32 C26 0.930 . S
H33 C28 0.930 . S
N34 Cu23 1.985 1_655 S
N34 C36 1.335 . S
N34 C37 1.390 . S
N35 C36 1.345 . S
N35 C38 1.336 . S
C36 N34 1.335 . S
C36 N35 1.345 . S
C36 H41 0.898 1_655 S
C37 N34 1.390 . S
C37 C38 1.346 . S
C37 H42 0.930 . S
C38 N35 1.336 . S
C38 C37 1.346 . S
C38 H45 0.929 . S
C39 O29 1.282 . S
C39 O40 1.216 . S
O40 C39 1.216 . S
H41 C36 0.898 1_455 S
H42 C37 0.930 . S
O43 Cu23 1.959 . S
O43 C30 1.251 . S
H44 C27 0.930 . S
H45 C38 0.929 . S
Cu46 N47 1.999 . S
Cu46 O52 1.974 1_545 S
Cu46 N57 1.985 1_545 S
Cu46 O66 1.959 . S
N47 Cu46 1.999 . S
N47 C49 1.263 . S
N47 C51 1.389 . S
N48 C49 1.358 . S
N48 C50 1.400 . S
C49 N47 1.263 . S
C49 N48 1.358 . S
C49 H55 0.930 . S
C50 N48 1.400 . S
C50 C51 1.351 . S
C50 H67 0.930 . S
C51 N47 1.389 . S
C51 C50 1.351 . S
C51 H56 0.930 . S
O52 Cu46 1.974 1_565 S
O52 C62 1.282 . S
C53 O54 1.261 . S
C53 O66 1.251 . S
O54 C53 1.261 . S
H55 C49 0.930 . S
H56 C51 0.930 . S
N57 Cu46 1.985 1_565 S
N57 C59 1.335 . S
N57 C60 1.390 . S
N58 C59 1.345 . S
N58 C61 1.336 . S
C59 N57 1.335 . S
C59 N58 1.345 . S
C59 H64 0.930 . S
C60 N57 1.390 . S
C60 C61 1.346 . S
C60 H65 0.930 . S
C61 N58 1.336 . S
C61 C60 1.346 . S
C61 H68 0.929 . S
C62 O52 1.282 . S
C62 O63 1.216 . S
O63 C62 1.216 . S
H64 C59 0.930 . S
H65 C60 0.930 . S
O66 Cu46 1.959 . S
O66 C53 1.251 . S
H67 C50 0.930 . S
H68 C61 0.929 . S
Cu69 N70 1.999 . S
Cu69 O75 1.974 1_455 S
Cu69 N80 1.985 1_455 S
Cu69 O89 1.959 . S
N70 Cu69 1.999 . S
N70 C72 1.263 . S
N70 C74 1.389 . S
N71 C72 1.358 . S
N71 C73 1.400 . S
C72 N70 1.263 . S
C72 N71 1.358 . S
C72 H78 0.930 . S
C73 N71 1.400 . S
C73 C74 1.351 . S
C73 H90 0.930 . S
C74 N70 1.389 . S
C74 C73 1.351 . S
C74 H79 0.930 . S
O75 Cu69 1.974 1_655 S
O75 C85 1.282 . S
C76 O77 1.261 . S
C76 O89 1.251 . S
O77 C76 1.261 . S
H78 C72 0.930 . S
H79 C74 0.930 . S
N80 Cu69 1.985 1_655 S
N80 C82 1.335 . S
N80 C83 1.390 . S
N81 C82 1.345 . S
N81 C84 1.336 . S
C82 N80 1.335 . S
C82 N81 1.345 . S
C82 H87 0.930 . S
C83 N80 1.390 . S
C83 C84 1.346 . S
C83 H88 0.930 . S
C84 N81 1.336 . S
C84 C83 1.346 . S
C84 H91 0.929 . S
C85 O75 1.282 . S
C85 O86 1.216 . S
O86 C85 1.216 . S
H87 C82 0.930 . S
H88 C83 0.930 . S
O89 Cu69 1.959 . S
O89 C76 1.251 . S
H90 C73 0.930 . S
H91 C84 0.929 . S
Cu92 N93 1.999 . S
Cu92 O98 1.974 1_545 S
Cu92 N103 1.985 1_545 S
Cu92 O112 1.959 . S
N93 Cu92 1.999 . S
N93 C95 1.263 . S
N93 C97 1.389 . S
N94 C95 1.358 . S
N94 C96 1.400 . S
C95 N93 1.263 . S
C95 N94 1.358 . S
C95 H101 0.930 . S
C96 N94 1.400 . S
C96 C97 1.351 . S
C96 H113 0.930 . S
C97 N93 1.389 . S
C97 C96 1.351 . S
C97 H102 0.930 . S
O98 Cu92 1.974 1_565 S
O98 C108 1.282 . S
C99 O100 1.261 . S
C99 O112 1.251 . S
O100 C99 1.261 . S
H101 C95 0.930 . S
H102 C97 0.930 . S
N103 Cu92 1.985 1_565 S
N103 C105 1.335 . S
N103 C106 1.390 . S
N104 C105 1.345 . S
N104 C107 1.336 . S
C105 N103 1.335 . S
C105 N104 1.345 . S
C105 H110 0.930 . S
C106 N103 1.390 . S
C106 C107 1.346 . S
C106 H111 0.930 . S
C107 N104 1.336 . S
C107 C106 1.346 . S
C107 H114 0.929 . S
C108 O98 1.282 . S
C108 O109 1.216 . S
O109 C108 1.216 . S
H110 C105 0.930 . S
H111 C106 0.930 . S
O112 Cu92 1.959 . S
O112 C99 1.251 . S
H113 C96 0.930 . S
H114 C107 0.929 . S
Cu115 N116 1.999 . S
Cu115 O121 1.974 1_455 S
Cu115 N126 1.985 1_455 S
Cu115 O135 1.959 . S
N116 Cu115 1.999 . S
N116 C118 1.263 . S
N116 C120 1.389 . S
N117 C118 1.358 . S
N117 C119 1.400 . S
C118 N116 1.263 . S
C118 N117 1.358 . S
C118 H124 0.930 . S
C119 N117 1.400 . S
C119 C120 1.351 . S
C119 H136 0.930 . S
C120 N116 1.389 . S
C120 C119 1.351 . S
C120 H125 0.930 . S
O121 Cu115 1.974 1_655 S
O121 C131 1.282 . S
C122 O123 1.261 . S
C122 O135 1.251 . S
O123 C122 1.261 . S
H124 C118 0.930 . S
H125 C120 0.930 . S
N126 Cu115 1.985 1_655 S
N126 C128 1.335 . S
N126 C129 1.390 . S
N127 C128 1.345 . S
N127 C130 1.336 . S
C128 N126 1.335 . S
C128 N127 1.345 . S
C128 H133 0.930 1_655 S
C129 N126 1.390 . S
C129 C130 1.346 . S
C129 H134 0.930 . S
C130 N127 1.336 . S
C130 C129 1.346 . S
C130 H137 0.929 . S
C131 O121 1.282 . S
C131 O132 1.216 . S
O132 C131 1.216 . S
H133 C128 0.930 1_455 S
H134 C129 0.930 . S
O135 Cu115 1.959 . S
O135 C122 1.251 . S
H136 C119 0.930 . S
H137 C130 0.929 . S
Cu138 N139 1.999 1_545 S
Cu138 O144 1.974 . S
Cu138 N149 1.985 . S
Cu138 O158 1.959 1_545 S
N139 Cu138 1.999 1_565 S
N139 C141 1.263 . S
N139 C143 1.389 . S
N140 C141 1.358 . S
N140 C142 1.400 . S
C141 N139 1.263 . S
C141 N140 1.358 . S
C141 H147 0.930 . S
C142 N140 1.400 . S
C142 C143 1.351 . S
C142 H159 0.930 . S
C143 N139 1.389 . S
C143 C142 1.351 . S
C143 H148 0.930 . S
O144 Cu138 1.974 . S
O144 C154 1.282 . S
C145 O146 1.261 . S
C145 O158 1.251 . S
O146 C145 1.261 . S
H147 C141 0.930 . S
H148 C143 0.930 . S
N149 Cu138 1.985 . S
N149 C151 1.335 . S
N149 C152 1.390 . S
N150 C151 1.345 . S
N150 C153 1.336 . S
C151 N149 1.335 . S
C151 N150 1.345 . S
C151 H156 0.930 . S
C152 N149 1.390 . S
C152 C153 1.346 . S
C152 H157 0.930 . S
C153 N150 1.336 . S
C153 C152 1.346 . S
C153 H160 0.929 . S
C154 O144 1.282 . S
C154 O155 1.216 . S
O155 C154 1.216 . S
H156 C151 0.930 . S
H157 C152 0.930 . S
O158 Cu138 1.959 1_565 S
O158 C145 1.251 . S
H159 C142 0.930 . S
H160 C153 0.929 . S
Cu161 N162 2.001 . S
Cu161 O167 1.972 1_455 S
Cu161 N172 1.983 1_455 S
Cu161 O181 1.961 . S
N162 Cu161 2.001 . S
N162 C164 1.263 . S
N162 C166 1.389 . S
N163 C164 1.358 . S
N163 C165 1.400 . S
C164 N162 1.263 . S
C164 N163 1.358 . S
C164 H170 0.930 . S
C165 N163 1.400 . S
C165 C166 1.351 . S
C165 H182 0.930 . S
C166 N162 1.389 . S
C166 C165 1.351 . S
C166 H171 0.930 . S
O167 Cu161 1.972 1_655 S
O167 C177 1.282 . S
C168 O169 1.261 . S
C168 O181 1.251 . S
O169 C168 1.261 . S
H170 C164 0.930 . S
H171 C166 0.930 . S
N172 Cu161 1.983 1_655 S
N172 C174 1.335 . S
N172 C175 1.390 . S
N173 C174 1.345 . S
N173 C176 1.336 . S
C174 N172 1.335 . S
C174 N173 1.345 . S
C174 H179 0.930 . S
C175 N172 1.390 . S
C175 C176 1.346 . S
C175 H180 0.930 . S
C176 N173 1.336 . S
C176 C175 1.346 . S
C176 H183 0.929 . S
C177 O167 1.282 . S
C177 O178 1.216 . S
O178 C177 1.216 . S
H179 C174 0.930 . S
H180 C175 0.930 . S
O181 Cu161 1.961 . S
O181 C168 1.251 . S
H182 C165 0.930 . S
H183 C176 0.929 . S
Cu184 N185 1.999 . S
Cu184 O190 1.974 1_554 S
Cu184 N195 1.985 1_554 S
Cu184 O204 1.959 . S
N185 Cu184 1.999 . S
N185 C187 1.263 . S
N185 C189 1.389 . S
N186 C187 1.358 . S
N186 C188 1.400 . S
C187 N185 1.263 . S
C187 N186 1.358 . S
C187 H193 0.930 . S
C188 N186 1.400 . S
C188 C189 1.351 . S
C188 H205 0.930 . S
C189 N185 1.389 . S
C189 C188 1.351 . S
C189 H194 0.930 . S
O190 Cu184 1.974 1_556 S
O190 C200 1.282 . S
C191 O192 1.261 . S
C191 O204 1.251 . S
O192 C191 1.261 . S
H193 C187 0.930 . S
H194 C189 0.930 . S
N195 Cu184 1.985 1_556 S
N195 C197 1.335 . S
N195 C198 1.390 . S
N196 C197 1.345 . S
N196 C199 1.336 . S
C197 N195 1.335 . S
C197 N196 1.345 . S
C197 H202 0.918 1_556 S
C198 N195 1.390 . S
C198 C199 1.346 . S
C198 H203 0.930 . S
C199 N196 1.336 . S
C199 C198 1.346 . S
C199 H206 0.929 . S
C200 O190 1.282 . S
C200 O201 1.216 . S
O201 C200 1.216 . S
H202 C197 0.918 1_554 S
H203 C198 0.930 . S
O204 Cu184 1.959 . S
O204 C191 1.251 . S
H205 C188 0.930 . S
H206 C199 0.929 . S
Cu207 N208 1.999 1_554 S
Cu207 O213 1.974 . S
Cu207 N218 1.985 . S
Cu207 O227 1.959 1_554 S
N208 Cu207 1.999 1_556 S
N208 C210 1.263 . S
N208 C212 1.389 . S
N209 C210 1.358 . S
N209 C211 1.400 . S
C210 N208 1.263 . S
C210 N209 1.358 . S
C210 H216 0.930 . S
C211 N209 1.400 . S
C211 C212 1.351 . S
C211 H228 0.930 . S
C212 N208 1.389 . S
C212 C211 1.351 . S
C212 H217 0.930 . S
O213 Cu207 1.974 . S
O213 C223 1.282 . S
C214 O215 1.261 . S
C214 O227 1.251 . S
O215 C214 1.261 . S
H216 C210 0.930 . S
H217 C212 0.930 . S
N218 Cu207 1.985 . S
N218 C220 1.335 . S
N218 C221 1.390 . S
N219 C220 1.345 . S
N219 C222 1.336 . S
C220 N218 1.335 . S
C220 N219 1.345 . S
C220 H225 0.930 . S
C221 N218 1.390 . S
C221 C222 1.346 . S
C221 H226 0.930 . S
C222 N219 1.336 . S
C222 C221 1.346 . S
C222 H229 0.929 . S
C223 O213 1.282 . S
C223 O224 1.216 . S
O224 C223 1.216 . S
H225 C220 0.930 . S
H226 C221 0.930 . S
O227 Cu207 1.959 1_556 S
O227 C214 1.251 . S
H228 C211 0.930 . S
H229 C222 0.929 . S
Cu230 N231 1.989 1_556 S
Cu230 O236 1.982 . S
Cu230 N241 1.995 . S
Cu230 O250 1.951 1_556 S
N231 Cu230 1.989 1_554 S
N231 C233 1.263 . S
N231 C235 1.389 . S
N232 C233 1.358 . S
N232 C234 1.400 . S
C233 N231 1.263 . S
C233 N232 1.358 . S
C233 H239 0.930 . S
C234 N232 1.400 . S
C234 C235 1.351 . S
C234 H251 0.930 . S
C235 N231 1.389 . S
C235 C234 1.351 . S
C235 H240 0.930 . S
O236 Cu230 1.982 . S
O236 C246 1.282 . S
C237 O238 1.261 . S
C237 O250 1.251 . S
O238 C237 1.261 . S
H239 C233 0.930 . S
H240 C235 0.930 . S
N241 Cu230 1.995 . S
N241 C243 1.335 . S
N241 C244 1.390 . S
N242 C243 1.345 . S
N242 C245 1.336 . S
C243 N241 1.335 . S
C243 N242 1.345 . S
C243 H248 0.930 . S
C244 N241 1.390 . S
C244 C245 1.346 . S
C244 H249 0.930 . S
C245 N242 1.336 . S
C245 C244 1.346 . S
C245 H252 0.929 . S
C246 O236 1.282 . S
C246 O247 1.216 . S
O247 C246 1.216 . S
H248 C243 0.930 . S
H249 C244 0.930 . S
O250 Cu230 1.951 1_554 S
O250 C237 1.251 . S
H251 C234 0.930 . S
H252 C245 0.929 . S
Cu253 N254 1.999 1_554 S
Cu253 O259 1.974 . S
Cu253 N264 1.985 . S
Cu253 O273 1.959 1_554 S
N254 Cu253 1.999 1_556 S
N254 C256 1.263 . S
N254 C258 1.389 . S
N255 C256 1.358 . S
N255 C257 1.400 . S
C256 N254 1.263 . S
C256 N255 1.358 . S
C256 H262 0.930 . S
C257 N255 1.400 . S
C257 C258 1.351 . S
C257 H274 0.930 . S
C258 N254 1.389 . S
C258 C257 1.351 . S
C258 H263 0.930 . S
O259 Cu253 1.974 . S
O259 C269 1.282 . S
C260 O261 1.261 . S
C260 O273 1.251 . S
O261 C260 1.261 . S
H262 C256 0.930 . S
H263 C258 0.930 . S
N264 Cu253 1.985 . S
N264 C266 1.335 . S
N264 C267 1.390 . S
N265 C266 1.345 . S
N265 C268 1.336 . S
C266 N264 1.335 . S
C266 N265 1.345 . S
C266 H271 0.930 . S
C267 N264 1.390 . S
C267 C268 1.346 . S
C267 H272 0.930 . S
C268 N265 1.336 . S
C268 C267 1.346 . S
C268 H275 0.929 . S
C269 O259 1.282 . S
C269 O270 1.216 . S
O270 C269 1.216 . S
H271 C266 0.930 . S
H272 C267 0.930 . S
O273 Cu253 1.959 1_556 S
O273 C260 1.251 . S
H274 C257 0.930 . S
H275 C268 0.929 . S
Cu276 N277 1.999 . S
Cu276 O282 1.974 . S
Cu276 N287 1.985 . S
Cu276 O296 1.959 . S
N277 Cu276 1.999 . S
N277 C279 1.263 . S
N277 C281 1.389 . S
N278 C279 1.358 . S
N278 C280 1.400 . S
C279 N277 1.263 . S
C279 N278 1.358 . S
C279 H285 0.930 . S
C280 N278 1.400 . S
C280 C281 1.351 . S
C280 H297 0.930 . S
C281 N277 1.389 . S
C281 C280 1.351 . S
C281 H286 0.930 . S
O282 Cu276 1.974 . S
O282 C292 1.282 . S
C283 O284 1.261 . S
C283 O296 1.251 . S
O284 C283 1.261 . S
H285 C279 0.930 . S
H286 C281 0.930 . S
N287 Cu276 1.985 . S
N287 C289 1.335 . S
N287 C290 1.390 . S
N288 C289 1.345 . S
N288 C291 1.336 . S
C289 N287 1.335 . S
C289 N288 1.345 . S
C289 H294 0.930 . S
C290 N287 1.390 . S
C290 C291 1.346 . S
C290 H295 0.930 . S
C291 N288 1.336 . S
C291 C290 1.346 . S
C291 H298 0.929 . S
C292 O282 1.282 . S
C292 O293 1.216 . S
O293 C292 1.216 . S
H294 C289 0.930 . S
H295 C290 0.930 . S
O296 Cu276 1.959 . S
O296 C283 1.251 . S
H297 C280 0.930 . S
H298 C291 0.929 . S
Cu299 N300 1.999 . S
Cu299 O305 1.974 . S
Cu299 N310 1.985 . S
Cu299 O319 1.959 . S
N300 Cu299 1.999 . S
N300 C302 1.263 . S
N300 C304 1.389 . S
N301 C302 1.358 . S
N301 C303 1.400 . S
C302 N300 1.263 . S
C302 N301 1.358 . S
C302 H308 0.930 . S
C303 N301 1.400 . S
C303 C304 1.351 . S
C303 H320 0.930 . S
C304 N300 1.389 . S
C304 C303 1.351 . S
C304 H309 0.930 . S
O305 Cu299 1.974 . S
O305 C315 1.282 . S
C306 O307 1.261 . S
C306 O319 1.251 . S
O307 C306 1.261 . S
H308 C302 0.930 . S
H309 C304 0.930 . S
N310 Cu299 1.985 . S
N310 C312 1.335 . S
N310 C313 1.390 . S
N311 C312 1.345 . S
N311 C314 1.336 . S
C312 N310 1.335 . S
C312 N311 1.345 . S
C312 H317 0.930 . S
C313 N310 1.390 . S
C313 C314 1.346 . S
C313 H318 0.930 . S
C314 N311 1.336 . S
C314 C313 1.346 . S
C314 H321 0.929 . S
C315 O305 1.282 . S
C315 O316 1.216 . S
O316 C315 1.216 . S
H317 C312 0.930 . S
H318 C313 0.930 . S
O319 Cu299 1.959 . S
O319 C306 1.251 . S
H320 C303 0.930 . S
H321 C314 0.929 . S
Cu322 N323 1.999 . S
Cu322 O328 1.974 . S
Cu322 N333 1.985 . S
Cu322 O342 1.959 . S
N323 Cu322 1.999 . S
N323 C325 1.263 . S
N323 C327 1.389 . S
N324 C325 1.358 . S
N324 C326 1.400 . S
C325 N323 1.263 . S
C325 N324 1.358 . S
C325 H331 0.930 . S
C326 N324 1.400 . S
C326 C327 1.351 . S
C326 H343 0.930 . S
C327 N323 1.389 . S
C327 C326 1.351 . S
C327 H332 0.930 . S
O328 Cu322 1.974 . S
O328 C338 1.282 . S
C329 O330 1.261 . S
C329 O342 1.251 . S
O330 C329 1.261 . S
H331 C325 0.930 . S
H332 C327 0.930 . S
N333 Cu322 1.985 . S
N333 C335 1.335 . S
N333 C336 1.390 . S
N334 C335 1.345 . S
N334 C337 1.336 . S
C335 N333 1.335 . S
C335 N334 1.345 . S
C335 H340 0.930 . S
C336 N333 1.390 . S
C336 C337 1.346 . S
C336 H341 0.930 . S
C337 N334 1.336 . S
C337 C336 1.346 . S
C337 H344 0.929 . S
C338 O328 1.282 . S
C338 O339 1.216 . S
O339 C338 1.216 . S
H340 C335 0.930 . S
H341 C336 0.930 . S
O342 Cu322 1.959 . S
O342 C329 1.251 . S
H343 C326 0.930 . S
H344 C337 0.929 . S
Cu345 N346 1.999 . S
Cu345 O351 1.974 . S
Cu345 N356 1.985 . S
Cu345 O365 1.959 . S
N346 Cu345 1.999 . S
N346 C348 1.263 . S
N346 C350 1.389 . S
N347 C348 1.358 . S
N347 C349 1.400 . S
C348 N346 1.263 . S
C348 N347 1.358 . S
C348 H354 0.930 . S
C349 N347 1.400 . S
C349 C350 1.351 . S
C349 H366 0.930 . S
C350 N346 1.389 . S
C350 C349 1.351 . S
C350 H355 0.930 . S
O351 Cu345 1.974 . S
O351 C361 1.282 . S
C352 O353 1.261 . S
C352 O365 1.251 . S
O353 C352 1.261 . S
H354 C348 0.930 . S
H355 C350 0.930 . S
N356 Cu345 1.985 . S
N356 C358 1.335 . S
N356 C359 1.390 . S
N357 C358 1.345 . S
N357 C360 1.336 . S
C358 N356 1.335 . S
C358 N357 1.345 . S
C358 H363 0.930 . S
C359 N356 1.390 . S
C359 C360 1.346 . S
C359 H364 0.930 . S
C360 N357 1.336 . S
C360 C359 1.346 . S
C360 H367 0.929 . S
C361 O351 1.282 . S
C361 O362 1.216 . S
O362 C361 1.216 . S
H363 C358 0.930 . S
H364 C359 0.930 . S
O365 Cu345 1.959 . S
O365 C352 1.251 . S
H366 C349 0.930 . S
H367 C360 0.929 . S
Cu368 N369 1.999 . S
Cu368 O374 1.974 . S
Cu368 N379 1.985 . S
Cu368 O388 1.959 . S
N369 Cu368 1.999 . S
N369 C371 1.263 . S
N369 C373 1.389 . S
N370 C371 1.358 . S
N370 C372 1.400 . S
C371 N369 1.263 . S
C371 N370 1.358 . S
C371 H377 0.930 . S
C372 N370 1.400 . S
C372 C373 1.351 . S
C372 H389 0.930 . S
C373 N369 1.389 . S
C373 C372 1.351 . S
C373 H378 0.930 . S
O374 Cu368 1.974 . S
O374 C384 1.282 . S
C375 O376 1.261 . S
C375 O388 1.251 . S
O376 C375 1.261 . S
H377 C371 0.930 . S
H378 C373 0.930 . S
N379 Cu368 1.985 . S
N379 C381 1.335 . S
N379 C382 1.390 . S
N380 C381 1.345 . S
N380 C383 1.336 . S
C381 N379 1.335 . S
C381 N380 1.345 . S
C381 H386 0.930 . S
C382 N379 1.390 . S
C382 C383 1.346 . S
C382 H387 0.930 . S
C383 N380 1.336 . S
C383 C382 1.346 . S
C383 H390 0.929 . S
C384 O374 1.282 . S
C384 O385 1.216 . S
O385 C384 1.216 . S
H386 C381 0.930 . S
H387 C382 0.930 . S
O388 Cu368 1.959 . S
O388 C375 1.251 . S
H389 C372 0.930 . S
H390 C383 0.929 . S
Cu391 N392 1.999 . S
Cu391 O397 1.974 . S
Cu391 N402 1.985 . S
Cu391 O411 1.959 . S
N392 Cu391 1.999 . S
N392 C394 1.263 . S
N392 C396 1.389 . S
N393 C394 1.358 . S
N393 C395 1.400 . S
C394 N392 1.263 . S
C394 N393 1.358 . S
C394 H400 0.930 . S
C395 N393 1.400 . S
C395 C396 1.351 . S
C395 H412 0.930 . S
C396 N392 1.389 . S
C396 C395 1.351 . S
C396 H401 0.930 . S
O397 Cu391 1.974 . S
O397 C407 1.282 . S
C398 O399 1.261 . S
C398 O411 1.251 . S
O399 C398 1.261 . S
H400 C394 0.930 . S
H401 C396 0.930 . S
N402 Cu391 1.985 . S
N402 C404 1.335 . S
N402 C405 1.390 . S
N403 C404 1.345 . S
N403 C406 1.336 . S
C404 N402 1.335 . S
C404 N403 1.345 . S
C404 H409 0.930 . S
C405 N402 1.390 . S
C405 C406 1.346 . S
C405 H410 0.930 . S
C406 N403 1.336 . S
C406 C405 1.346 . S
C406 H413 0.929 . S
C407 O397 1.282 . S
C407 O408 1.216 . S
O408 C407 1.216 . S
H409 C404 0.930 . S
H410 C405 0.930 . S
O411 Cu391 1.959 . S
O411 C398 1.251 . S
H412 C395 0.930 . S
H413 C406 0.929 . S
Cu414 N415 1.999 . S
Cu414 O420 1.974 . S
Cu414 N425 1.985 . S
Cu414 O434 1.959 . S
N415 Cu414 1.999 . S
N415 C417 1.263 . S
N415 C419 1.389 . S
N416 C417 1.358 . S
N416 C418 1.400 . S
C417 N415 1.263 . S
C417 N416 1.358 . S
C417 H423 0.930 . S
C418 N416 1.400 . S
C418 C419 1.351 . S
C418 H435 0.930 . S
C419 N415 1.389 . S
C419 C418 1.351 . S
C419 H424 0.930 . S
O420 Cu414 1.974 . S
O420 C430 1.282 . S
C421 O422 1.261 . S
C421 O434 1.251 . S
O422 C421 1.261 . S
H423 C417 0.930 . S
H424 C419 0.930 . S
N425 Cu414 1.985 . S
N425 C427 1.335 . S
N425 C428 1.390 . S
N426 C427 1.345 . S
N426 C429 1.336 . S
C427 N425 1.335 . S
C427 N426 1.345 . S
C427 H432 0.930 . S
C428 N425 1.390 . S
C428 C429 1.346 . S
C428 H433 0.930 . S
C429 N426 1.336 . S
C429 C428 1.346 . S
C429 H436 0.929 . S
C430 O420 1.282 . S
C430 O431 1.216 . S
O431 C430 1.216 . S
H432 C427 0.930 . S
H433 C428 0.930 . S
O434 Cu414 1.959 . S
O434 C421 1.251 . S
H435 C418 0.930 . S
H436 C429 0.929 . S
Cu437 N438 1.999 . S
Cu437 O443 1.974 . S
Cu437 N448 1.985 . S
Cu437 O457 1.959 . S
N438 Cu437 1.999 . S
N438 C440 1.263 . S
N438 C442 1.389 . S
N439 C440 1.358 . S
N439 C441 1.400 . S
C440 N438 1.263 . S
C440 N439 1.358 . S
C440 H446 0.930 . S
C441 N439 1.400 . S
C441 C442 1.351 . S
C441 H458 0.930 . S
C442 N438 1.389 . S
C442 C441 1.351 . S
C442 H447 0.930 . S
O443 Cu437 1.974 . S
O443 C453 1.282 . S
C444 O445 1.261 . S
C444 O457 1.251 . S
O445 C444 1.261 . S
H446 C440 0.930 . S
H447 C442 0.930 . S
N448 Cu437 1.985 . S
N448 C450 1.335 . S
N448 C451 1.390 . S
N449 C450 1.345 . S
N449 C452 1.336 . S
C450 N448 1.335 . S
C450 N449 1.345 . S
C450 H455 0.930 . S
C451 N448 1.390 . S
C451 C452 1.346 . S
C451 H456 0.930 . S
C452 N449 1.336 . S
C452 C451 1.346 . S
C452 H459 0.929 . S
C453 O443 1.282 . S
C453 O454 1.216 . S
O454 C453 1.216 . S
H455 C450 0.930 . S
H456 C451 0.930 . S
O457 Cu437 1.959 . S
O457 C444 1.251 . S
H458 C441 0.930 . S
H459 C452 0.929 . S
Cu460 N461 1.999 . S
Cu460 O466 1.974 . S
Cu460 N471 1.985 . S
Cu460 O480 1.959 . S
N461 Cu460 1.999 . S
N461 C463 1.263 . S
N461 C465 1.389 . S
N462 C463 1.358 . S
N462 C464 1.400 . S
C463 N461 1.263 . S
C463 N462 1.358 . S
C463 H469 0.930 . S
C464 N462 1.400 . S
C464 C465 1.351 . S
C464 H481 0.930 . S
C465 N461 1.389 . S
C465 C464 1.351 . S
C465 H470 0.930 . S
O466 Cu460 1.974 . S
O466 C476 1.282 . S
C467 O468 1.261 . S
C467 O480 1.251 . S
O468 C467 1.261 . S
H469 C463 0.930 . S
H470 C465 0.930 . S
N471 Cu460 1.985 . S
N471 C473 1.335 . S
N471 C474 1.390 . S
N472 C473 1.345 . S
N472 C475 1.336 . S
C473 N471 1.335 . S
C473 N472 1.345 . S
C473 H478 0.930 . S
C474 N471 1.390 . S
C474 C475 1.346 . S
C474 H479 0.930 . S
C475 N472 1.336 . S
C475 C474 1.346 . S
C475 H482 0.929 . S
C476 O466 1.282 . S
C476 O477 1.216 . S
O477 C476 1.216 . S
H478 C473 0.930 . S
H479 C474 0.930 . S
O480 Cu460 1.959 . S
O480 C467 1.251 . S
H481 C464 0.930 . S
H482 C475 0.929 . S
Cu483 N484 1.999 . S
Cu483 O489 1.974 . S
Cu483 N494 1.985 . S
Cu483 O503 1.959 . S
N484 Cu483 1.999 . S
N484 C486 1.263 . S
N484 C488 1.389 . S
N485 C486 1.358 . S
N485 C487 1.400 . S
C486 N484 1.263 . S
C486 N485 1.358 . S
C486 H492 0.930 . S
C487 N485 1.400 . S
C487 C488 1.351 . S
C487 H504 0.930 . S
C488 N484 1.389 . S
C488 C487 1.351 . S
C488 H493 0.930 . S
O489 Cu483 1.974 . S
O489 C499 1.282 . S
C490 O491 1.261 . S
C490 O503 1.251 . S
O491 C490 1.261 . S
H492 C486 0.930 . S
H493 C488 0.930 . S
N494 Cu483 1.985 . S
N494 C496 1.335 . S
N494 C497 1.390 . S
N495 C496 1.345 . S
N495 C498 1.336 . S
C496 N494 1.335 . S
C496 N495 1.345 . S
C496 H501 0.930 . S
C497 N494 1.390 . S
C497 C498 1.346 . S
C497 H502 0.930 . S
C498 N495 1.336 . S
C498 C497 1.346 . S
C498 H505 0.929 . S
C499 O489 1.282 . S
C499 O500 1.216 . S
O500 C499 1.216 . S
H501 C496 0.930 . S
H502 C497 0.930 . S
O503 Cu483 1.959 . S
O503 C490 1.251 . S
H504 C487 0.930 . S
H505 C498 0.929 . S
Cu506 N507 1.999 . S
Cu506 O512 1.974 . S
Cu506 N517 1.985 . S
Cu506 O526 1.959 . S
N507 Cu506 1.999 . S
N507 C509 1.263 . S
N507 C511 1.389 . S
N508 C509 1.358 . S
N508 C510 1.400 . S
C509 N507 1.263 . S
C509 N508 1.358 . S
C509 H515 0.930 . S
C510 N508 1.400 . S
C510 C511 1.351 . S
C510 H527 0.930 . S
C511 N507 1.389 . S
C511 C510 1.351 . S
C511 H516 0.930 . S
O512 Cu506 1.974 . S
O512 C522 1.282 . S
C513 O514 1.261 . S
C513 O526 1.251 . S
O514 C513 1.261 . S
H515 C509 0.930 . S
H516 C511 0.930 . S
N517 Cu506 1.985 . S
N517 C519 1.335 . S
N517 C520 1.390 . S
N518 C519 1.345 . S
N518 C521 1.336 . S
C519 N517 1.335 . S
C519 N518 1.345 . S
C519 H524 0.930 . S
C520 N517 1.390 . S
C520 C521 1.346 . S
C520 H525 0.930 . S
C521 N518 1.336 . S
C521 C520 1.346 . S
C521 H528 0.929 . S
C522 O512 1.282 . S
C522 O523 1.216 . S
O523 C522 1.216 . S
H524 C519 0.930 . S
H525 C520 0.930 . S
O526 Cu506 1.959 . S
O526 C513 1.251 . S
H527 C510 0.930 . S
H528 C521 0.929 . S
Cu529 N530 1.999 . S
Cu529 O535 1.974 . S
Cu529 N540 1.985 . S
Cu529 O549 1.959 . S
N530 Cu529 1.999 . S
N530 C532 1.263 . S
N530 C534 1.389 . S
N531 C532 1.358 . S
N531 C533 1.400 . S
C532 N530 1.263 . S
C532 N531 1.358 . S
C532 H538 0.930 . S
C533 N531 1.400 . S
C533 C534 1.351 . S
C533 H550 0.930 . S
C534 N530 1.389 . S
C534 C533 1.351 . S
C534 H539 0.930 . S
O535 Cu529 1.974 . S
O535 C545 1.282 . S
C536 O537 1.261 . S
C536 O549 1.251 . S
O537 C536 1.261 . S
H538 C532 0.930 . S
H539 C534 0.930 . S
N540 Cu529 1.985 . S
N540 C542 1.335 . S
N540 C543 1.390 . S
N541 C542 1.345 . S
N541 C544 1.336 . S
C542 N540 1.335 . S
C542 N541 1.345 . S
C542 H547 0.930 . S
C543 N540 1.390 . S
C543 C544 1.346 . S
C543 H548 0.930 . S
C544 N541 1.336 . S
C544 C543 1.346 . S
C544 H551 0.929 . S
C545 O535 1.282 . S
C545 O546 1.216 . S
O546 C545 1.216 . S
H547 C542 0.930 . S
H548 C543 0.930 . S
O549 Cu529 1.959 . S
O549 C536 1.251 . S
H550 C533 0.930 . S
H551 C544 0.929 . S
H552 C564 0.930 . S
H553 C566 0.930 . S
H554 C567 0.930 . S
H555 C571 0.959 . S
H556 C571 0.959 . S
H557 C571 0.961 . S
H558 C572 0.960 . S
H559 C572 0.961 . S
H560 C572 0.959 . S
H561 C575 0.929 . S
H562 C576 0.931 . S
H563 C578 0.930 . S
C564 H552 0.930 . S
C564 C565 1.399 . S
C564 C569 1.399 . S
C565 C564 1.399 . S
C565 C566 1.376 . S
C566 H553 0.930 . S
C566 C565 1.376 . S
C566 C567 1.388 . S
C567 H554 0.930 . S
C567 C566 1.388 . S
C567 C568 1.390 . S
C568 C567 1.390 . S
C568 C569 1.394 . S
C568 C574 1.465 . S
C569 C564 1.399 . S
C569 C568 1.394 . S
C569 C570 1.516 . S
C570 C569 1.516 . S
C570 C571 1.502 . S
C570 C572 1.561 . S
C570 C573 1.526 . S
C571 H555 0.959 . S
C571 H556 0.959 . S
C571 H557 0.961 . S
C571 C570 1.502 . S
C572 H558 0.960 . S
C572 H559 0.961 . S
C572 H560 0.959 . S
C572 C570 1.561 . S
C573 C570 1.526 . S
C573 C574 1.396 . S
C573 C578 1.390 . S
C574 C568 1.465 . S
C574 C573 1.396 . S
C574 C575 1.399 . S
C575 H561 0.929 . S
C575 C574 1.399 . S
C575 C576 1.385 . S
C576 H562 0.931 . S
C576 C575 1.385 . S
C576 C577 1.389 . S
C577 C576 1.389 . S
C577 C578 1.387 . S
C578 H563 0.930 . S
C578 C573 1.390 . S
C578 C577 1.387 . S
H579 C591 0.930 . S
H580 C593 0.930 . S
H581 C594 0.930 . S
H582 C598 0.959 . S
H583 C598 0.959 . S
H584 C598 0.961 . S
H585 C599 0.960 . S
H586 C599 0.961 . S
H587 C599 0.959 . S
H588 C602 0.929 . S
H589 C603 0.931 . S
H590 C605 0.930 . S
C591 H579 0.930 . S
C591 C592 1.399 . S
C591 C596 1.399 . S
C592 C591 1.399 . S
C592 C593 1.376 . S
C593 H580 0.930 . S
C593 C592 1.376 . S
C593 C594 1.388 . S
C594 H581 0.930 . S
C594 C593 1.388 . S
C594 C595 1.390 . S
C595 C594 1.390 . S
C595 C596 1.394 . S
C595 C601 1.465 . S
C596 C591 1.399 . S
C596 C595 1.394 . S
C596 C597 1.516 . S
C597 C596 1.516 . S
C597 C598 1.502 . S
C597 C599 1.561 . S
C597 C600 1.526 . S
C598 H582 0.959 . S
C598 H583 0.959 . S
C598 H584 0.961 . S
C598 C597 1.502 . S
C599 H585 0.960 . S
C599 H586 0.961 . S
C599 H587 0.959 . S
C599 C597 1.561 . S
C600 C597 1.526 . S
C600 C601 1.396 . S
C600 C605 1.390 . S
C601 C595 1.465 . S
C601 C600 1.396 . S
C601 C602 1.399 . S
C602 H588 0.929 . S
C602 C601 1.399 . S
C602 C603 1.385 . S
C603 H589 0.931 . S
C603 C602 1.385 . S
C603 C604 1.389 . S
C604 C603 1.389 . S
C604 C605 1.387 . S
C605 H590 0.930 . S
C605 C600 1.390 . S
C605 C604 1.387 . S
H606 C618 0.930 . S
H607 C620 0.930 . S
H608 C621 0.930 . S
H609 C625 0.959 . S
H610 C625 0.959 . S
H611 C625 0.961 . S
H612 C626 0.960 . S
H613 C626 0.961 . S
H614 C626 0.959 . S
H615 C629 0.929 . S
H616 C630 0.931 . S
H617 C632 0.930 . S
C618 H606 0.930 . S
C618 C619 1.399 . S
C618 C623 1.399 . S
C619 C618 1.399 . S
C619 C620 1.376 . S
C620 H607 0.930 . S
C620 C619 1.376 . S
C620 C621 1.388 . S
C621 H608 0.930 . S
C621 C620 1.388 . S
C621 C622 1.390 . S
C622 C621 1.390 . S
C622 C623 1.394 . S
C622 C628 1.465 . S
C623 C618 1.399 . S
C623 C622 1.394 . S
C623 C624 1.516 . S
C624 C623 1.516 . S
C624 C625 1.502 . S
C624 C626 1.561 . S
C624 C627 1.526 . S
C625 H609 0.959 . S
C625 H610 0.959 . S
C625 H611 0.961 . S
C625 C624 1.502 . S
C626 H612 0.960 . S
C626 H613 0.961 . S
C626 H614 0.959 . S
C626 C624 1.561 . S
C627 C624 1.526 . S
C627 C628 1.396 . S
C627 C632 1.390 . S
C628 C622 1.465 . S
C628 C627 1.396 . S
C628 C629 1.399 . S
C629 H615 0.929 . S
C629 C628 1.399 . S
C629 C630 1.385 . S
C630 H616 0.931 . S
C630 C629 1.385 . S
C630 C631 1.389 . S
C631 C630 1.389 . S
C631 C632 1.387 . S
C632 H617 0.930 . S
C632 C627 1.390 . S
C632 C631 1.387 . S
H633 C645 0.930 . S
H634 C647 0.930 . S
H635 C648 0.930 . S
H636 C652 0.959 . S
H637 C652 0.959 . S
H638 C652 0.961 . S
H639 C653 0.960 . S
H640 C653 0.961 . S
H641 C653 0.959 . S
H642 C656 0.929 . S
H643 C657 0.931 . S
H644 C659 0.930 . S
C645 H633 0.930 . S
C645 C646 1.399 . S
C645 C650 1.399 . S
C646 C645 1.399 . S
C646 C647 1.376 . S
C647 H634 0.930 . S
C647 C646 1.376 . S
C647 C648 1.388 . S
C648 H635 0.930 . S
C648 C647 1.388 . S
C648 C649 1.390 . S
C649 C648 1.390 . S
C649 C650 1.394 . S
C649 C655 1.465 . S
C650 C645 1.399 . S
C650 C649 1.394 . S
C650 C651 1.516 . S
C651 C650 1.516 . S
C651 C652 1.502 . S
C651 C653 1.561 . S
C651 C654 1.526 . S
C652 H636 0.959 . S
C652 H637 0.959 . S
C652 H638 0.961 . S
C652 C651 1.502 . S
C653 H639 0.960 . S
C653 H640 0.961 . S
C653 H641 0.959 . S
C653 C651 1.561 . S
C654 C651 1.526 . S
C654 C655 1.396 . S
C654 C659 1.390 . S
C655 C649 1.465 . S
C655 C654 1.396 . S
C655 C656 1.399 . S
C656 H642 0.929 . S
C656 C655 1.399 . S
C656 C657 1.385 . S
C657 H643 0.931 . S
C657 C656 1.385 . S
C657 C658 1.389 . S
C658 C657 1.389 . S
C658 C659 1.387 . S
C659 H644 0.930 . S
C659 C654 1.390 . S
C659 C658 1.387 . S
H660 C672 0.930 . S
H661 C674 0.930 . S
H662 C675 0.930 . S
H663 C679 0.959 . S
H664 C679 0.959 . S
H665 C679 0.961 . S
H666 C680 0.960 . S
H667 C680 0.961 . S
H668 C680 0.959 . S
H669 C683 0.929 . S
H670 C684 0.931 . S
H671 C686 0.930 . S
C672 H660 0.930 . S
C672 C673 1.399 . S
C672 C677 1.399 . S
C673 C672 1.399 . S
C673 C674 1.376 . S
C674 H661 0.930 . S
C674 C673 1.376 . S
C674 C675 1.388 . S
C675 H662 0.930 . S
C675 C674 1.388 . S
C675 C676 1.390 . S
C676 C675 1.390 . S
C676 C677 1.394 . S
C676 C682 1.465 . S
C677 C672 1.399 . S
C677 C676 1.394 . S
C677 C678 1.516 . S
C678 C677 1.516 . S
C678 C679 1.502 . S
C678 C680 1.561 . S
C678 C681 1.526 . S
C679 H663 0.959 . S
C679 H664 0.959 . S
C679 H665 0.961 . S
C679 C678 1.502 . S
C680 H666 0.960 . S
C680 H667 0.961 . S
C680 H668 0.959 . S
C680 C678 1.561 . S
C681 C678 1.526 . S
C681 C682 1.396 . S
C681 C686 1.390 . S
C682 C676 1.465 . S
C682 C681 1.396 . S
C682 C683 1.399 . S
C683 H669 0.929 . S
C683 C682 1.399 . S
C683 C684 1.385 . S
C684 H670 0.931 . S
C684 C683 1.385 . S
C684 C685 1.389 . S
C685 C684 1.389 . S
C685 C686 1.387 . S
C686 H671 0.930 . S
C686 C681 1.390 . S
C686 C685 1.387 . S
H687 C699 0.930 . S
H688 C701 0.930 . S
H689 C702 0.930 . S
H690 C706 0.959 . S
H691 C706 0.959 . S
H692 C706 0.961 . S
H693 C707 0.960 . S
H694 C707 0.961 . S
H695 C707 0.959 . S
H696 C710 0.929 . S
H697 C711 0.931 . S
H698 C713 0.930 . S
C699 H687 0.930 . S
C699 C700 1.399 . S
C699 C704 1.399 . S
C700 C699 1.399 . S
C700 C701 1.376 . S
C701 H688 0.930 . S
C701 C700 1.376 . S
C701 C702 1.388 . S
C702 H689 0.930 . S
C702 C701 1.388 . S
C702 C703 1.390 . S
C703 C702 1.390 . S
C703 C704 1.394 . S
C703 C709 1.465 . S
C704 C699 1.399 . S
C704 C703 1.394 . S
C704 C705 1.516 . S
C705 C704 1.516 . S
C705 C706 1.502 . S
C705 C707 1.561 . S
C705 C708 1.526 . S
C706 H690 0.959 . S
C706 H691 0.959 . S
C706 H692 0.961 . S
C706 C705 1.502 . S
C707 H693 0.960 . S
C707 H694 0.961 . S
C707 H695 0.959 . S
C707 C705 1.561 . S
C708 C705 1.526 . S
C708 C709 1.396 . S
C708 C713 1.390 . S
C709 C703 1.465 . S
C709 C708 1.396 . S
C709 C710 1.399 . S
C710 H696 0.929 . S
C710 C709 1.399 . S
C710 C711 1.385 . S
C711 H697 0.931 . S
C711 C710 1.385 . S
C711 C712 1.389 . S
C712 C711 1.389 . S
C712 C713 1.387 . S
C713 H698 0.930 . S
C713 C708 1.390 . S
C713 C712 1.387 . S
H714 C726 0.930 . S
H715 C728 0.930 . S
H716 C729 0.930 . S
H717 C733 0.959 . S
H718 C733 0.959 . S
H719 C733 0.961 . S
H720 C734 0.960 . S
H721 C734 0.961 . S
H722 C734 0.959 . S
H723 C737 0.929 . S
H724 C738 0.931 . S
H725 C740 0.930 . S
C726 H714 0.930 . S
C726 C727 1.399 . S
C726 C731 1.399 . S
C727 C726 1.399 . S
C727 C728 1.376 . S
C728 H715 0.930 . S
C728 C727 1.376 . S
C728 C729 1.388 . S
C729 H716 0.930 . S
C729 C728 1.388 . S
C729 C730 1.390 . S
C730 C729 1.390 . S
C730 C731 1.394 . S
C730 C736 1.465 . S
C731 C726 1.399 . S
C731 C730 1.394 . S
C731 C732 1.516 . S
C732 C731 1.516 . S
C732 C733 1.502 . S
C732 C734 1.561 . S
C732 C735 1.526 . S
C733 H717 0.959 . S
C733 H718 0.959 . S
C733 H719 0.961 . S
C733 C732 1.502 . S
C734 H720 0.960 . S
C734 H721 0.961 . S
C734 H722 0.959 . S
C734 C732 1.561 . S
C735 C732 1.526 . S
C735 C736 1.396 . S
C735 C740 1.390 . S
C736 C730 1.465 . S
C736 C735 1.396 . S
C736 C737 1.399 . S
C737 H723 0.929 . S
C737 C736 1.399 . S
C737 C738 1.385 . S
C738 H724 0.931 . S
C738 C737 1.385 . S
C738 C739 1.389 . S
C739 C738 1.389 . S
C739 C740 1.387 . S
C740 H725 0.930 . S
C740 C735 1.390 . S
C740 C739 1.387 . S
H741 C753 0.930 . S
H742 C755 0.930 . S
H743 C756 0.930 . S
H744 C760 0.959 . S
H745 C760 0.959 . S
H746 C760 0.961 . S
H747 C761 0.960 . S
H748 C761 0.961 . S
H749 C761 0.959 . S
H750 C764 0.929 . S
H751 C765 0.931 . S
H752 C767 0.930 . S
C753 H741 0.930 . S
C753 C754 1.399 . S
C753 C758 1.399 . S
C754 C753 1.399 . S
C754 C755 1.376 . S
C755 H742 0.930 . S
C755 C754 1.376 . S
C755 C756 1.388 . S
C756 H743 0.930 . S
C756 C755 1.388 . S
C756 C757 1.390 . S
C757 C756 1.390 . S
C757 C758 1.394 . S
C757 C763 1.465 . S
C758 C753 1.399 . S
C758 C757 1.394 . S
C758 C759 1.516 . S
C759 C758 1.516 . S
C759 C760 1.502 . S
C759 C761 1.561 . S
C759 C762 1.526 . S
C760 H744 0.959 . S
C760 H745 0.959 . S
C760 H746 0.961 . S
C760 C759 1.502 . S
C761 H747 0.960 . S
C761 H748 0.961 . S
C761 H749 0.959 . S
C761 C759 1.561 . S
C762 C759 1.526 . S
C762 C763 1.396 . S
C762 C767 1.390 . S
C763 C757 1.465 . S
C763 C762 1.396 . S
C763 C764 1.399 . S
C764 H750 0.929 . S
C764 C763 1.399 . S
C764 C765 1.385 . S
C765 H751 0.931 . S
C765 C764 1.385 . S
C765 C766 1.389 . S
C766 C765 1.389 . S
C766 C767 1.387 . S
C767 H752 0.930 . S
C767 C762 1.390 . S
C767 C766 1.387 . S
H768 C780 0.930 . S
H769 C782 0.930 . S
H770 C783 0.930 . S
H771 C787 0.959 . S
H772 C787 0.959 . S
H773 C787 0.961 . S
H774 C788 0.960 . S
H775 C788 0.961 . S
H776 C788 0.959 . S
H777 C791 0.929 . S
H778 C792 0.931 . S
H779 C794 0.930 . S
C780 H768 0.930 . S
C780 C781 1.399 . S
C780 C785 1.399 . S
C781 C780 1.399 . S
C781 C782 1.376 . S
C782 H769 0.930 . S
C782 C781 1.376 . S
C782 C783 1.388 . S
C783 H770 0.930 . S
C783 C782 1.388 . S
C783 C784 1.390 . S
C784 C783 1.390 . S
C784 C785 1.394 . S
C784 C790 1.465 . S
C785 C780 1.399 . S
C785 C784 1.394 . S
C785 C786 1.516 . S
C786 C785 1.516 . S
C786 C787 1.502 . S
C786 C788 1.561 . S
C786 C789 1.526 . S
C787 H771 0.959 . S
C787 H772 0.959 . S
C787 H773 0.961 . S
C787 C786 1.502 . S
C788 H774 0.960 . S
C788 H775 0.961 . S
C788 H776 0.959 . S
C788 C786 1.561 . S
C789 C786 1.526 . S
C789 C790 1.396 . S
C789 C794 1.390 . S
C790 C784 1.465 . S
C790 C789 1.396 . S
C790 C791 1.399 . S
C791 H777 0.929 . S
C791 C790 1.399 . S
C791 C792 1.385 . S
C792 H778 0.931 . S
C792 C791 1.385 . S
C792 C793 1.389 . S
C793 C792 1.389 . S
C793 C794 1.387 . S
C794 H779 0.930 . S
C794 C789 1.390 . S
C794 C793 1.387 . S
H795 C807 0.930 . S
H796 C809 0.930 . S
H797 C810 0.930 . S
H798 C814 0.959 . S
H799 C814 0.959 . S
H800 C814 0.961 . S
H801 C815 0.960 . S
H802 C815 0.961 . S
H803 C815 0.959 . S
H804 C818 0.929 . S
H805 C819 0.931 . S
H806 C821 0.930 . S
C807 H795 0.930 . S
C807 C808 1.399 . S
C807 C812 1.399 . S
C808 C807 1.399 . S
C808 C809 1.376 . S
C809 H796 0.930 . S
C809 C808 1.376 . S
C809 C810 1.388 . S
C810 H797 0.930 . S
C810 C809 1.388 . S
C810 C811 1.390 . S
C811 C810 1.390 . S
C811 C812 1.394 . S
C811 C817 1.465 . S
C812 C807 1.399 . S
C812 C811 1.394 . S
C812 C813 1.516 . S
C813 C812 1.516 . S
C813 C814 1.502 . S
C813 C815 1.561 . S
C813 C816 1.526 . S
C814 H798 0.959 . S
C814 H799 0.959 . S
C814 H800 0.961 . S
C814 C813 1.502 . S
C815 H801 0.960 . S
C815 H802 0.961 . S
C815 H803 0.959 . S
C815 C813 1.561 . S
C816 C813 1.526 . S
C816 C817 1.396 . S
C816 C821 1.390 . S
C817 C811 1.465 . S
C817 C816 1.396 . S
C817 C818 1.399 . S
C818 H804 0.929 . S
C818 C817 1.399 . S
C818 C819 1.385 . S
C819 H805 0.931 . S
C819 C818 1.385 . S
C819 C820 1.389 . S
C820 C819 1.389 . S
C820 C821 1.387 . S
C821 H806 0.930 . S
C821 C816 1.390 . S
C821 C820 1.387 . S
H822 C834 0.930 . S
H823 C836 0.930 . S
H824 C837 0.930 . S
H825 C841 0.959 . S
H826 C841 0.959 . S
H827 C841 0.961 . S
H828 C842 0.960 . S
H829 C842 0.961 . S
H830 C842 0.959 . S
H831 C845 0.929 . S
H832 C846 0.931 . S
H833 C848 0.930 . S
C834 H822 0.930 . S
C834 C835 1.399 . S
C834 C839 1.399 . S
C835 C834 1.399 . S
C835 C836 1.376 . S
C836 H823 0.930 . S
C836 C835 1.376 . S
C836 C837 1.388 . S
C837 H824 0.930 . S
C837 C836 1.388 . S
C837 C838 1.390 . S
C838 C837 1.390 . S
C838 C839 1.394 . S
C838 C844 1.465 . S
C839 C834 1.399 . S
C839 C838 1.394 . S
C839 C840 1.516 . S
C840 C839 1.516 . S
C840 C841 1.502 . S
C840 C842 1.561 . S
C840 C843 1.526 . S
C841 H825 0.959 . S
C841 H826 0.959 . S
C841 H827 0.961 . S
C841 C840 1.502 . S
C842 H828 0.960 . S
C842 H829 0.961 . S
C842 H830 0.959 . S
C842 C840 1.561 . S
C843 C840 1.526 . S
C843 C844 1.396 . S
C843 C848 1.390 . S
C844 C838 1.465 . S
C844 C843 1.396 . S
C844 C845 1.399 . S
C845 H831 0.929 . S
C845 C844 1.399 . S
C845 C846 1.385 . S
C846 H832 0.931 . S
C846 C845 1.385 . S
C846 C847 1.389 . S
C847 C846 1.389 . S
C847 C848 1.387 . S
C848 H833 0.930 . S
C848 C843 1.390 . S
C848 C847 1.387 . S
H849 C861 0.930 . S
H850 C863 0.930 . S
H851 C864 0.930 . S
H852 C868 0.959 . S
H853 C868 0.959 . S
H854 C868 0.961 . S
H855 C869 0.960 . S
H856 C869 0.961 . S
H857 C869 0.959 . S
H858 C872 0.929 . S
H859 C873 0.931 . S
H860 C875 0.930 . S
C861 H849 0.930 . S
C861 C862 1.399 . S
C861 C866 1.399 . S
C862 C861 1.399 . S
C862 C863 1.376 . S
C863 H850 0.930 . S
C863 C862 1.376 . S
C863 C864 1.388 . S
C864 H851 0.930 . S
C864 C863 1.388 . S
C864 C865 1.390 . S
C865 C864 1.390 . S
C865 C866 1.394 . S
C865 C871 1.465 . S
C866 C861 1.399 . S
C866 C865 1.394 . S
C866 C867 1.516 . S
C867 C866 1.516 . S
C867 C868 1.502 . S
C867 C869 1.561 . S
C867 C870 1.526 . S
C868 H852 0.959 . S
C868 H853 0.959 . S
C868 H854 0.961 . S
C868 C867 1.502 . S
C869 H855 0.960 . S
C869 H856 0.961 . S
C869 H857 0.959 . S
C869 C867 1.561 . S
C870 C867 1.526 . S
C870 C871 1.396 . S
C870 C875 1.390 . S
C871 C865 1.465 . S
C871 C870 1.396 . S
C871 C872 1.399 . S
C872 H858 0.929 . S
C872 C871 1.399 . S
C872 C873 1.385 . S
C873 H859 0.931 . S
C873 C872 1.385 . S
C873 C874 1.389 . S
C874 C873 1.389 . S
C874 C875 1.387 . S
C875 H860 0.930 . S
C875 C870 1.390 . S
C875 C874 1.387 . S
H876 C888 0.930 . S
H877 C890 0.930 . S
H878 C891 0.930 . S
H879 C895 0.959 . S
H880 C895 0.959 . S
H881 C895 0.961 . S
H882 C896 0.960 . S
H883 C896 0.961 . S
H884 C896 0.959 . S
H885 C899 0.929 . S
H886 C900 0.931 . S
H887 C902 0.930 . S
C888 H876 0.930 . S
C888 C889 1.399 . S
C888 C893 1.399 . S
C889 C888 1.399 . S
C889 C890 1.376 . S
C890 H877 0.930 . S
C890 C889 1.376 . S
C890 C891 1.388 . S
C891 H878 0.930 . S
C891 C890 1.388 . S
C891 C892 1.390 . S
C892 C891 1.390 . S
C892 C893 1.394 . S
C892 C898 1.465 . S
C893 C888 1.399 . S
C893 C892 1.394 . S
C893 C894 1.516 . S
C894 C893 1.516 . S
C894 C895 1.502 . S
C894 C896 1.561 . S
C894 C897 1.526 . S
C895 H879 0.959 . S
C895 H880 0.959 . S
C895 H881 0.961 . S
C895 C894 1.502 . S
C896 H882 0.960 . S
C896 H883 0.961 . S
C896 H884 0.959 . S
C896 C894 1.561 . S
C897 C894 1.526 . S
C897 C898 1.396 . S
C897 C902 1.390 . S
C898 C892 1.465 . S
C898 C897 1.396 . S
C898 C899 1.399 . S
C899 H885 0.929 . S
C899 C898 1.399 . S
C899 C900 1.385 . S
C900 H886 0.931 . S
C900 C899 1.385 . S
C900 C901 1.389 . S
C901 C900 1.389 . S
C901 C902 1.387 . S
C902 H887 0.930 . S
C902 C897 1.390 . S
C902 C901 1.387 . S
H903 C915 0.930 . S
H904 C917 0.930 . S
H905 C918 0.930 . S
H906 C922 0.959 . S
H907 C922 0.959 . S
H908 C922 0.961 . S
H909 C923 0.960 . S
H910 C923 0.961 . S
H911 C923 0.959 . S
H912 C926 0.929 . S
H913 C927 0.931 . S
H914 C929 0.930 . S
C915 H903 0.930 . S
C915 C916 1.399 . S
C915 C920 1.399 . S
C916 C915 1.399 . S
C916 C917 1.376 . S
C917 H904 0.930 . S
C917 C916 1.376 . S
C917 C918 1.388 . S
C918 H905 0.930 . S
C918 C917 1.388 . S
C918 C919 1.390 . S
C919 C918 1.390 . S
C919 C920 1.394 . S
C919 C925 1.465 . S
C920 C915 1.399 . S
C920 C919 1.394 . S
C920 C921 1.516 . S
C921 C920 1.516 . S
C921 C922 1.502 . S
C921 C923 1.561 . S
C921 C924 1.526 . S
C922 H906 0.959 . S
C922 H907 0.959 . S
C922 H908 0.961 . S
C922 C921 1.502 . S
C923 H909 0.960 . S
C923 H910 0.961 . S
C923 H911 0.959 . S
C923 C921 1.561 . S
C924 C921 1.526 . S
C924 C925 1.396 . S
C924 C929 1.390 . S
C925 C919 1.465 . S
C925 C924 1.396 . S
C925 C926 1.399 . S
C926 H912 0.929 . S
C926 C925 1.399 . S
C926 C927 1.385 . S
C927 H913 0.931 . S
C927 C926 1.385 . S
C927 C928 1.389 . S
C928 C927 1.389 . S
C928 C929 1.387 . S
C929 H914 0.930 . S
C929 C924 1.390 . S
C929 C928 1.387 . S
H930 C942 0.930 . S
H931 C944 0.930 . S
H932 C945 0.930 . S
H933 C949 0.959 . S
H934 C949 0.959 . S
H935 C949 0.961 . S
H936 C950 0.960 . S
H937 C950 0.961 . S
H938 C950 0.959 . S
H939 C953 0.929 . S
H940 C954 0.931 . S
H941 C956 0.930 . S
C942 H930 0.930 . S
C942 C943 1.399 . S
C942 C947 1.399 . S
C943 C942 1.399 . S
C943 C944 1.376 . S
C944 H931 0.930 . S
C944 C943 1.376 . S
C944 C945 1.388 . S
C945 H932 0.930 . S
C945 C944 1.388 . S
C945 C946 1.390 . S
C946 C945 1.390 . S
C946 C947 1.394 . S
C946 C952 1.465 . S
C947 C942 1.399 . S
C947 C946 1.394 . S
C947 C948 1.516 . S
C948 C947 1.516 . S
C948 C949 1.502 . S
C948 C950 1.561 . S
C948 C951 1.526 . S
C949 H933 0.959 . S
C949 H934 0.959 . S
C949 H935 0.961 . S
C949 C948 1.502 . S
C950 H936 0.960 . S
C950 H937 0.961 . S
C950 H938 0.959 . S
C950 C948 1.561 . S
C951 C948 1.526 . S
C951 C952 1.396 . S
C951 C956 1.390 . S
C952 C946 1.465 . S
C952 C951 1.396 . S
C952 C953 1.399 . S
C953 H939 0.929 . S
C953 C952 1.399 . S
C953 C954 1.385 . S
C954 H940 0.931 . S
C954 C953 1.385 . S
C954 C955 1.389 . S
C955 C954 1.389 . S
C955 C956 1.387 . S
C956 H941 0.930 . S
C956 C951 1.390 . S
C956 C955 1.387 . S
H957 C969 0.930 . S
H958 C971 0.930 . S
H959 C972 0.930 . S
H960 C976 0.959 . S
H961 C976 0.959 . S
H962 C976 0.961 . S
H963 C977 0.960 . S
H964 C977 0.961 . S
H965 C977 0.959 . S
H966 C980 0.929 . S
H967 C981 0.931 . S
H968 C983 0.930 . S
C969 H957 0.930 . S
C969 C970 1.399 . S
C969 C974 1.399 . S
C970 C969 1.399 . S
C970 C971 1.376 . S
C971 H958 0.930 . S
C971 C970 1.376 . S
C971 C972 1.388 . S
C972 H959 0.930 . S
C972 C971 1.388 . S
C972 C973 1.390 . S
C973 C972 1.390 . S
C973 C974 1.394 . S
C973 C979 1.465 . S
C974 C969 1.399 . S
C974 C973 1.394 . S
C974 C975 1.516 . S
C975 C974 1.516 . S
C975 C976 1.502 . S
C975 C977 1.561 . S
C975 C978 1.526 . S
C976 H960 0.959 . S
C976 H961 0.959 . S
C976 H962 0.961 . S
C976 C975 1.502 . S
C977 H963 0.960 . S
C977 H964 0.961 . S
C977 H965 0.959 . S
C977 C975 1.561 . S
C978 C975 1.526 . S
C978 C979 1.396 . S
C978 C983 1.390 . S
C979 C973 1.465 . S
C979 C978 1.396 . S
C979 C980 1.399 . S
C980 H966 0.929 . S
C980 C979 1.399 . S
C980 C981 1.385 . S
C981 H967 0.931 . S
C981 C980 1.385 . S
C981 C982 1.389 . S
C982 C981 1.389 . S
C982 C983 1.387 . S
C983 H968 0.930 . S
C983 C978 1.390 . S
C983 C982 1.387 . S
H984 C996 0.930 . S
H985 C998 0.930 . S
H986 C999 0.930 . S
H987 C1003 0.959 . S
H988 C1003 0.959 . S
H989 C1003 0.961 . S
H990 C1004 0.960 . S
H991 C1004 0.961 . S
H992 C1004 0.959 . S
H993 C1007 0.929 . S
H994 C1008 0.931 . S
H995 C1010 0.930 . S
C996 H984 0.930 . S
C996 C997 1.399 . S
C996 C1001 1.399 . S
C997 C996 1.399 . S
C997 C998 1.376 . S
C998 H985 0.930 . S
C998 C997 1.376 . S
C998 C999 1.388 . S
C999 H986 0.930 . S
C999 C998 1.388 . S
C999 C1000 1.390 . S
C1000 C999 1.390 . S
C1000 C1001 1.394 . S
C1000 C1006 1.465 . S
C1001 C996 1.399 . S
C1001 C1000 1.394 . S
C1001 C1002 1.516 . S
C1002 C1001 1.516 . S
C1002 C1003 1.502 . S
C1002 C1004 1.561 . S
C1002 C1005 1.526 . S
C1003 H987 0.959 . S
C1003 H988 0.959 . S
C1003 H989 0.961 . S
C1003 C1002 1.502 . S
C1004 H990 0.960 . S
C1004 H991 0.961 . S
C1004 H992 0.959 . S
C1004 C1002 1.561 . S
C1005 C1002 1.526 . S
C1005 C1006 1.396 . S
C1005 C1010 1.390 . S
C1006 C1000 1.465 . S
C1006 C1005 1.396 . S
C1006 C1007 1.399 . S
C1007 H993 0.929 . S
C1007 C1006 1.399 . S
C1007 C1008 1.385 . S
C1008 H994 0.931 . S
C1008 C1007 1.385 . S
C1008 C1009 1.389 . S
C1009 C1008 1.389 . S
C1009 C1010 1.387 . S
C1010 H995 0.930 . S
C1010 C1005 1.390 . S
C1010 C1009 1.387 . S
H1011 C1023 0.930 . S
H1012 C1025 0.930 . S
H1013 C1026 0.930 . S
H1014 C1030 0.959 . S
H1015 C1030 0.959 . S
H1016 C1030 0.961 . S
H1017 C1031 0.960 . S
H1018 C1031 0.961 . S
H1019 C1031 0.959 . S
H1020 C1034 0.929 . S
H1021 C1035 0.931 . S
H1022 C1037 0.930 . S
C1023 H1011 0.930 . S
C1023 C1024 1.399 . S
C1023 C1028 1.399 . S
C1024 C1023 1.399 . S
C1024 C1025 1.376 . S
C1025 H1012 0.930 . S
C1025 C1024 1.376 . S
C1025 C1026 1.388 . S
C1026 H1013 0.930 . S
C1026 C1025 1.388 . S
C1026 C1027 1.390 . S
C1027 C1026 1.390 . S
C1027 C1028 1.394 . S
C1027 C1033 1.465 . S
C1028 C1023 1.399 . S
C1028 C1027 1.394 . S
C1028 C1029 1.516 . S
C1029 C1028 1.516 . S
C1029 C1030 1.502 . S
C1029 C1031 1.561 . S
C1029 C1032 1.526 . S
C1030 H1014 0.959 . S
C1030 H1015 0.959 . S
C1030 H1016 0.961 . S
C1030 C1029 1.502 . S
C1031 H1017 0.960 . S
C1031 H1018 0.961 . S
C1031 H1019 0.959 . S
C1031 C1029 1.561 . S
C1032 C1029 1.526 . S
C1032 C1033 1.396 . S
C1032 C1037 1.390 . S
C1033 C1027 1.465 . S
C1033 C1032 1.396 . S
C1033 C1034 1.399 . S
C1034 H1020 0.929 . S
C1034 C1033 1.399 . S
C1034 C1035 1.385 . S
C1035 H1021 0.931 . S
C1035 C1034 1.385 . S
C1035 C1036 1.389 . S
C1036 C1035 1.389 . S
C1036 C1037 1.387 . S
C1037 H1022 0.930 . S
C1037 C1032 1.390 . S
C1037 C1036 1.387 . S
H1038 C1050 0.930 . S
H1039 C1052 0.930 . S
H1040 C1053 0.930 . S
H1041 C1057 0.959 . S
H1042 C1057 0.959 . S
H1043 C1057 0.961 . S
H1044 C1058 0.960 . S
H1045 C1058 0.961 . S
H1046 C1058 0.959 . S
H1047 C1061 0.929 . S
H1048 C1062 0.931 . S
H1049 C1064 0.930 . S
C1050 H1038 0.930 . S
C1050 C1051 1.399 . S
C1050 C1055 1.399 . S
C1051 C1050 1.399 . S
C1051 C1052 1.376 . S
C1052 H1039 0.930 . S
C1052 C1051 1.376 . S
C1052 C1053 1.388 . S
C1053 H1040 0.930 . S
C1053 C1052 1.388 . S
C1053 C1054 1.390 . S
C1054 C1053 1.390 . S
C1054 C1055 1.394 . S
C1054 C1060 1.465 . S
C1055 C1050 1.399 . S
C1055 C1054 1.394 . S
C1055 C1056 1.516 . S
C1056 C1055 1.516 . S
C1056 C1057 1.502 . S
C1056 C1058 1.561 . S
C1056 C1059 1.526 . S
C1057 H1041 0.959 . S
C1057 H1042 0.959 . S
C1057 H1043 0.961 . S
C1057 C1056 1.502 . S
C1058 H1044 0.960 . S
C1058 H1045 0.961 . S
C1058 H1046 0.959 . S
C1058 C1056 1.561 . S
C1059 C1056 1.526 . S
C1059 C1060 1.396 . S
C1059 C1064 1.390 . S
C1060 C1054 1.465 . S
C1060 C1059 1.396 . S
C1060 C1061 1.399 . S
C1061 H1047 0.929 . S
C1061 C1060 1.399 . S
C1061 C1062 1.385 . S
C1062 H1048 0.931 . S
C1062 C1061 1.385 . S
C1062 C1063 1.389 . S
C1063 C1062 1.389 . S
C1063 C1064 1.387 . S
C1064 H1049 0.930 . S
C1064 C1059 1.390 . S
C1064 C1063 1.387 . S
H1065 C1077 0.930 . S
H1066 C1079 0.930 . S
H1067 C1080 0.930 . S
H1068 C1084 0.959 . S
H1069 C1084 0.959 . S
H1070 C1084 0.961 . S
H1071 C1085 0.960 . S
H1072 C1085 0.961 . S
H1073 C1085 0.959 . S
H1074 C1088 0.929 . S
H1075 C1089 0.931 . S
H1076 C1091 0.930 . S
C1077 H1065 0.930 . S
C1077 C1078 1.399 . S
C1077 C1082 1.399 . S
C1078 C1077 1.399 . S
C1078 C1079 1.376 . S
C1079 H1066 0.930 . S
C1079 C1078 1.376 . S
C1079 C1080 1.388 . S
C1080 H1067 0.930 . S
C1080 C1079 1.388 . S
C1080 C1081 1.390 . S
C1081 C1080 1.390 . S
C1081 C1082 1.394 . S
C1081 C1087 1.465 . S
C1082 C1077 1.399 . S
C1082 C1081 1.394 . S
C1082 C1083 1.516 . S
C1083 C1082 1.516 . S
C1083 C1084 1.502 . S
C1083 C1085 1.561 . S
C1083 C1086 1.526 . S
C1084 H1068 0.959 . S
C1084 H1069 0.959 . S
C1084 H1070 0.961 . S
C1084 C1083 1.502 . S
C1085 H1071 0.960 . S
C1085 H1072 0.961 . S
C1085 H1073 0.959 . S
C1085 C1083 1.561 . S
C1086 C1083 1.526 . S
C1086 C1087 1.396 . S
C1086 C1091 1.390 . S
C1087 C1081 1.465 . S
C1087 C1086 1.396 . S
C1087 C1088 1.399 . S
C1088 H1074 0.929 . S
C1088 C1087 1.399 . S
C1088 C1089 1.385 . S
C1089 H1075 0.931 . S
C1089 C1088 1.385 . S
C1089 C1090 1.389 . S
C1090 C1089 1.389 . S
C1090 C1091 1.387 . S
C1091 H1076 0.930 . S
C1091 C1086 1.390 . S
C1091 C1090 1.387 . S
H1092 C1104 0.930 . S
H1093 C1106 0.930 . S
H1094 C1107 0.930 . S
H1095 C1111 0.959 . S
H1096 C1111 0.959 . S
H1097 C1111 0.961 . S
H1098 C1112 0.960 . S
H1099 C1112 0.961 . S
H1100 C1112 0.959 . S
H1101 C1115 0.929 . S
H1102 C1116 0.931 . S
H1103 C1118 0.930 . S
C1104 H1092 0.930 . S
C1104 C1105 1.399 . S
C1104 C1109 1.399 . S
C1105 C1104 1.399 . S
C1105 C1106 1.376 . S
C1106 H1093 0.930 . S
C1106 C1105 1.376 . S
C1106 C1107 1.388 . S
C1107 H1094 0.930 . S
C1107 C1106 1.388 . S
C1107 C1108 1.390 . S
C1108 C1107 1.390 . S
C1108 C1109 1.394 . S
C1108 C1114 1.465 . S
C1109 C1104 1.399 . S
C1109 C1108 1.394 . S
C1109 C1110 1.516 . S
C1110 C1109 1.516 . S
C1110 C1111 1.502 . S
C1110 C1112 1.561 . S
C1110 C1113 1.526 . S
C1111 H1095 0.959 . S
C1111 H1096 0.959 . S
C1111 H1097 0.961 . S
C1111 C1110 1.502 . S
C1112 H1098 0.960 . S
C1112 H1099 0.961 . S
C1112 H1100 0.959 . S
C1112 C1110 1.561 . S
C1113 C1110 1.526 . S
C1113 C1114 1.396 . S
C1113 C1118 1.390 . S
C1114 C1108 1.465 . S
C1114 C1113 1.396 . S
C1114 C1115 1.399 . S
C1115 H1101 0.929 . S
C1115 C1114 1.399 . S
C1115 C1116 1.385 . S
C1116 H1102 0.931 . S
C1116 C1115 1.385 . S
C1116 C1117 1.389 . S
C1117 C1116 1.389 . S
C1117 C1118 1.387 . S
C1118 H1103 0.930 . S
C1118 C1113 1.390 . S
C1118 C1117 1.387 . S
H1119 C1131 0.930 . S
H1120 C1133 0.930 . S
H1121 C1134 0.930 . S
H1122 C1138 0.959 . S
H1123 C1138 0.959 . S
H1124 C1138 0.961 . S
H1125 C1139 0.960 . S
H1126 C1139 0.961 . S
H1127 C1139 0.959 . S
H1128 C1142 0.929 . S
H1129 C1143 0.931 . S
H1130 C1145 0.930 . S
C1131 H1119 0.930 . S
C1131 C1132 1.399 . S
C1131 C1136 1.399 . S
C1132 C1131 1.399 . S
C1132 C1133 1.376 . S
C1133 H1120 0.930 . S
C1133 C1132 1.376 . S
C1133 C1134 1.388 . S
C1134 H1121 0.930 . S
C1134 C1133 1.388 . S
C1134 C1135 1.390 . S
C1135 C1134 1.390 . S
C1135 C1136 1.394 . S
C1135 C1141 1.465 . S
C1136 C1131 1.399 . S
C1136 C1135 1.394 . S
C1136 C1137 1.516 . S
C1137 C1136 1.516 . S
C1137 C1138 1.502 . S
C1137 C1139 1.561 . S
C1137 C1140 1.526 . S
C1138 H1122 0.959 . S
C1138 H1123 0.959 . S
C1138 H1124 0.961 . S
C1138 C1137 1.502 . S
C1139 H1125 0.960 . S
C1139 H1126 0.961 . S
C1139 H1127 0.959 . S
C1139 C1137 1.561 . S
C1140 C1137 1.526 . S
C1140 C1141 1.396 . S
C1140 C1145 1.390 . S
C1141 C1135 1.465 . S
C1141 C1140 1.396 . S
C1141 C1142 1.399 . S
C1142 H1128 0.929 . S
C1142 C1141 1.399 . S
C1142 C1143 1.385 . S
C1143 H1129 0.931 . S
C1143 C1142 1.385 . S
C1143 C1144 1.389 . S
C1144 C1143 1.389 . S
C1144 C1145 1.387 . S
C1145 H1130 0.930 . S
C1145 C1140 1.390 . S
C1145 C1144 1.387 . S
H1146 C1158 0.930 . S
H1147 C1160 0.930 . S
H1148 C1161 0.930 . S
H1149 C1165 0.959 . S
H1150 C1165 0.959 . S
H1151 C1165 0.961 . S
H1152 C1166 0.960 . S
H1153 C1166 0.961 . S
H1154 C1166 0.959 . S
H1155 C1169 0.929 . S
H1156 C1170 0.931 . S
H1157 C1172 0.930 . S
C1158 H1146 0.930 . S
C1158 C1159 1.399 . S
C1158 C1163 1.399 . S
C1159 C1158 1.399 . S
C1159 C1160 1.376 . S
C1160 H1147 0.930 . S
C1160 C1159 1.376 . S
C1160 C1161 1.388 . S
C1161 H1148 0.930 . S
C1161 C1160 1.388 . S
C1161 C1162 1.390 . S
C1162 C1161 1.390 . S
C1162 C1163 1.394 . S
C1162 C1168 1.465 . S
C1163 C1158 1.399 . S
C1163 C1162 1.394 . S
C1163 C1164 1.516 . S
C1164 C1163 1.516 . S
C1164 C1165 1.502 . S
C1164 C1166 1.561 . S
C1164 C1167 1.526 . S
C1165 H1149 0.959 . S
C1165 H1150 0.959 . S
C1165 H1151 0.961 . S
C1165 C1164 1.502 . S
C1166 H1152 0.960 . S
C1166 H1153 0.961 . S
C1166 H1154 0.959 . S
C1166 C1164 1.561 . S
C1167 C1164 1.526 . S
C1167 C1168 1.396 . S
C1167 C1172 1.390 . S
C1168 C1162 1.465 . S
C1168 C1167 1.396 . S
C1168 C1169 1.399 . S
C1169 H1155 0.929 . S
C1169 C1168 1.399 . S
C1169 C1170 1.385 . S
C1170 H1156 0.931 . S
C1170 C1169 1.385 . S
C1170 C1171 1.389 . S
C1171 C1170 1.389 . S
C1171 C1172 1.387 . S
C1172 H1157 0.930 . S
C1172 C1167 1.390 . S
C1172 C1171 1.387 . S
H1173 C1185 0.930 . S
H1174 C1187 0.930 . S
H1175 C1188 0.930 . S
H1176 C1192 0.959 . S
H1177 C1192 0.959 . S
H1178 C1192 0.961 . S
H1179 C1193 0.960 . S
H1180 C1193 0.961 . S
H1181 C1193 0.959 . S
H1182 C1196 0.929 . S
H1183 C1197 0.931 . S
H1184 C1199 0.930 . S
C1185 H1173 0.930 . S
C1185 C1186 1.399 . S
C1185 C1190 1.399 . S
C1186 C1185 1.399 . S
C1186 C1187 1.376 . S
C1187 H1174 0.930 . S
C1187 C1186 1.376 . S
C1187 C1188 1.388 . S
C1188 H1175 0.930 . S
C1188 C1187 1.388 . S
C1188 C1189 1.390 . S
C1189 C1188 1.390 . S
C1189 C1190 1.394 . S
C1189 C1195 1.465 . S
C1190 C1185 1.399 . S
C1190 C1189 1.394 . S
C1190 C1191 1.516 . S
C1191 C1190 1.516 . S
C1191 C1192 1.502 . S
C1191 C1193 1.561 . S
C1191 C1194 1.526 . S
C1192 H1176 0.959 . S
C1192 H1177 0.959 . S
C1192 H1178 0.961 . S
C1192 C1191 1.502 . S
C1193 H1179 0.960 . S
C1193 H1180 0.961 . S
C1193 H1181 0.959 . S
C1193 C1191 1.561 . S
C1194 C1191 1.526 . S
C1194 C1195 1.396 . S
C1194 C1199 1.390 . S
C1195 C1189 1.465 . S
C1195 C1194 1.396 . S
C1195 C1196 1.399 . S
C1196 H1182 0.929 . S
C1196 C1195 1.399 . S
C1196 C1197 1.385 . S
C1197 H1183 0.931 . S
C1197 C1196 1.385 . S
C1197 C1198 1.389 . S
C1198 C1197 1.389 . S
C1198 C1199 1.387 . S
C1199 H1184 0.930 . S
C1199 C1194 1.390 . S
C1199 C1198 1.387 . S
H1200 C1212 0.930 . S
H1201 C1214 0.930 . S
H1202 C1215 0.930 . S
H1203 C1219 0.959 . S
H1204 C1219 0.959 . S
H1205 C1219 0.961 . S
H1206 C1220 0.960 . S
H1207 C1220 0.961 . S
H1208 C1220 0.959 . S
H1209 C1223 0.929 . S
H1210 C1224 0.931 . S
H1211 C1226 0.930 . S
C1212 H1200 0.930 . S
C1212 C1213 1.399 . S
C1212 C1217 1.399 . S
C1213 C1212 1.399 . S
C1213 C1214 1.376 . S
C1214 H1201 0.930 . S
C1214 C1213 1.376 . S
C1214 C1215 1.388 . S
C1215 H1202 0.930 . S
C1215 C1214 1.388 . S
C1215 C1216 1.390 . S
C1216 C1215 1.390 . S
C1216 C1217 1.394 . S
C1216 C1222 1.465 . S
C1217 C1212 1.399 . S
C1217 C1216 1.394 . S
C1217 C1218 1.516 . S
C1218 C1217 1.516 . S
C1218 C1219 1.502 . S
C1218 C1220 1.561 . S
C1218 C1221 1.526 . S
C1219 H1203 0.959 . S
C1219 H1204 0.959 . S
C1219 H1205 0.961 . S
C1219 C1218 1.502 . S
C1220 H1206 0.960 . S
C1220 H1207 0.961 . S
C1220 H1208 0.959 . S
C1220 C1218 1.561 . S
C1221 C1218 1.526 . S
C1221 C1222 1.396 . S
C1221 C1226 1.390 . S
C1222 C1216 1.465 . S
C1222 C1221 1.396 . S
C1222 C1223 1.399 . S
C1223 H1209 0.929 . S
C1223 C1222 1.399 . S
C1223 C1224 1.385 . S
C1224 H1210 0.931 . S
C1224 C1223 1.385 . S
C1224 C1225 1.389 . S
C1225 C1224 1.389 . S
C1225 C1226 1.387 . S
C1226 H1211 0.930 . S
C1226 C1221 1.390 . S
C1226 C1225 1.387 . S
H1227 C1239 0.930 . S
H1228 C1241 0.930 . S
H1229 C1242 0.930 . S
H1230 C1246 0.959 . S
H1231 C1246 0.959 . S
H1232 C1246 0.961 . S
H1233 C1247 0.960 . S
H1234 C1247 0.961 . S
H1235 C1247 0.959 . S
H1236 C1250 0.929 . S
H1237 C1251 0.931 . S
H1238 C1253 0.930 . S
C1239 H1227 0.930 . S
C1239 C1240 1.399 . S
C1239 C1244 1.399 . S
C1240 C1239 1.399 . S
C1240 C1241 1.376 . S
C1241 H1228 0.930 . S
C1241 C1240 1.376 . S
C1241 C1242 1.388 . S
C1242 H1229 0.930 . S
C1242 C1241 1.388 . S
C1242 C1243 1.390 . S
C1243 C1242 1.390 . S
C1243 C1244 1.394 . S
C1243 C1249 1.465 . S
C1244 C1239 1.399 . S
C1244 C1243 1.394 . S
C1244 C1245 1.516 . S
C1245 C1244 1.516 . S
C1245 C1246 1.502 . S
C1245 C1247 1.561 . S
C1245 C1248 1.526 . S
C1246 H1230 0.959 . S
C1246 H1231 0.959 . S
C1246 H1232 0.961 . S
C1246 C1245 1.502 . S
C1247 H1233 0.960 . S
C1247 H1234 0.961 . S
C1247 H1235 0.959 . S
C1247 C1245 1.561 . S
C1248 C1245 1.526 . S
C1248 C1249 1.396 . S
C1248 C1253 1.390 . S
C1249 C1243 1.465 . S
C1249 C1248 1.396 . S
C1249 C1250 1.399 . S
C1250 H1236 0.929 . S
C1250 C1249 1.399 . S
C1250 C1251 1.385 . S
C1251 H1237 0.931 . S
C1251 C1250 1.385 . S
C1251 C1252 1.389 . S
C1252 C1251 1.389 . S
C1252 C1253 1.387 . S
C1253 H1238 0.930 . S
C1253 C1248 1.390 . S
C1253 C1252 1.387 . S
H1254 C1266 0.930 . S
H1255 C1268 0.930 . S
H1256 C1269 0.930 . S
H1257 C1273 0.959 . S
H1258 C1273 0.959 . S
H1259 C1273 0.961 . S
H1260 C1274 0.960 . S
H1261 C1274 0.961 . S
H1262 C1274 0.959 . S
H1263 C1277 0.929 . S
H1264 C1278 0.931 . S
H1265 C1280 0.930 . S
C1266 H1254 0.930 . S
C1266 C1267 1.399 . S
C1266 C1271 1.399 . S
C1267 C1266 1.399 . S
C1267 C1268 1.376 . S
C1268 H1255 0.930 . S
C1268 C1267 1.376 . S
C1268 C1269 1.388 . S
C1269 H1256 0.930 . S
C1269 C1268 1.388 . S
C1269 C1270 1.390 . S
C1270 C1269 1.390 . S
C1270 C1271 1.394 . S
C1270 C1276 1.465 . S
C1271 C1266 1.399 . S
C1271 C1270 1.394 . S
C1271 C1272 1.516 . S
C1272 C1271 1.516 . S
C1272 C1273 1.502 . S
C1272 C1274 1.561 . S
C1272 C1275 1.526 . S
C1273 H1257 0.959 . S
C1273 H1258 0.959 . S
C1273 H1259 0.961 . S
C1273 C1272 1.502 . S
C1274 H1260 0.960 . S
C1274 H1261 0.961 . S
C1274 H1262 0.959 . S
C1274 C1272 1.561 . S
C1275 C1272 1.526 . S
C1275 C1276 1.396 . S
C1275 C1280 1.390 . S
C1276 C1270 1.465 . S
C1276 C1275 1.396 . S
C1276 C1277 1.399 . S
C1277 H1263 0.929 . S
C1277 C1276 1.399 . S
C1277 C1278 1.385 . S
C1278 H1264 0.931 . S
C1278 C1277 1.385 . S
C1278 C1279 1.389 . S
C1279 C1278 1.389 . S
C1279 C1280 1.387 . S
C1280 H1265 0.930 . S
C1280 C1275 1.390 . S
C1280 C1279 1.387 . S
H1281 C1293 0.930 . S
H1282 C1295 0.930 . S
H1283 C1296 0.930 . S
H1284 C1300 0.959 . S
H1285 C1300 0.959 . S
H1286 C1300 0.961 . S
H1287 C1301 0.960 . S
H1288 C1301 0.961 . S
H1289 C1301 0.959 . S
H1290 C1304 0.929 . S
H1291 C1305 0.931 1_455 S
H1292 C1307 0.930 . S
C1293 H1281 0.930 . S
C1293 C1294 1.399 . S
C1293 C1298 1.399 . S
C1294 C1293 1.399 . S
C1294 C1295 1.376 . S
C1295 H1282 0.930 . S
C1295 C1294 1.376 . S
C1295 C1296 1.388 . S
C1296 H1283 0.930 . S
C1296 C1295 1.388 . S
C1296 C1297 1.390 . S
C1297 C1296 1.390 . S
C1297 C1298 1.394 . S
C1297 C1303 1.465 . S
C1298 C1293 1.399 . S
C1298 C1297 1.394 . S
C1298 C1299 1.516 . S
C1299 C1298 1.516 . S
C1299 C1300 1.502 . S
C1299 C1301 1.561 . S
C1299 C1302 1.526 . S
C1300 H1284 0.959 . S
C1300 H1285 0.959 . S
C1300 H1286 0.961 . S
C1300 C1299 1.502 . S
C1301 H1287 0.960 . S
C1301 H1288 0.961 . S
C1301 H1289 0.959 . S
C1301 C1299 1.561 . S
C1302 C1299 1.526 . S
C1302 C1303 1.396 . S
C1302 C1307 1.390 . S
C1303 C1297 1.465 . S
C1303 C1302 1.396 . S
C1303 C1304 1.399 . S
C1304 H1290 0.929 . S
C1304 C1303 1.399 . S
C1304 C1305 1.385 . S
C1305 H1291 0.931 1_655 S
C1305 C1304 1.385 . S
C1305 C1306 1.389 . S
C1306 C1305 1.389 . S
C1306 C1307 1.387 . S
C1307 H1292 0.930 . S
C1307 C1302 1.390 . S
C1307 C1306 1.387 . S
H1308 C1320 0.930 . S
H1309 C1322 0.930 . S
H1310 C1323 0.930 . S
H1311 C1327 0.959 . S
H1312 C1327 0.959 . S
H1313 C1327 0.961 . S
H1314 C1328 0.960 . S
H1315 C1328 0.961 . S
H1316 C1328 0.959 . S
H1317 C1331 0.929 . S
H1318 C1332 0.931 . S
H1319 C1334 0.930 . S
C1320 H1308 0.930 . S
C1320 C1321 1.399 . S
C1320 C1325 1.399 . S
C1321 C1320 1.399 . S
C1321 C1322 1.376 . S
C1322 H1309 0.930 . S
C1322 C1321 1.376 . S
C1322 C1323 1.388 . S
C1323 H1310 0.930 . S
C1323 C1322 1.388 . S
C1323 C1324 1.390 . S
C1324 C1323 1.390 . S
C1324 C1325 1.394 . S
C1324 C1330 1.465 . S
C1325 C1320 1.399 . S
C1325 C1324 1.394 . S
C1325 C1326 1.516 . S
C1326 C1325 1.516 . S
C1326 C1327 1.502 . S
C1326 C1328 1.561 . S
C1326 C1329 1.526 . S
C1327 H1311 0.959 . S
C1327 H1312 0.959 . S
C1327 H1313 0.961 . S
C1327 C1326 1.502 . S
C1328 H1314 0.960 . S
C1328 H1315 0.961 . S
C1328 H1316 0.959 . S
C1328 C1326 1.561 . S
C1329 C1326 1.526 . S
C1329 C1330 1.396 . S
C1329 C1334 1.390 . S
C1330 C1324 1.465 . S
C1330 C1329 1.396 . S
C1330 C1331 1.399 . S
C1331 H1317 0.929 . S
C1331 C1330 1.399 . S
C1331 C1332 1.385 . S
C1332 H1318 0.931 . S
C1332 C1331 1.385 . S
C1332 C1333 1.389 . S
C1333 C1332 1.389 . S
C1333 C1334 1.387 . S
C1334 H1319 0.930 . S
C1334 C1329 1.390 . S
C1334 C1333 1.387 . S
H1335 C1347 0.930 . S
H1336 C1349 0.930 . S
H1337 C1350 0.930 . S
H1338 C1354 0.959 . S
H1339 C1354 0.959 . S
H1340 C1354 0.961 . S
H1341 C1355 0.960 . S
H1342 C1355 0.961 . S
H1343 C1355 0.959 . S
H1344 C1358 0.929 . S
H1345 C1359 0.931 . S
H1346 C1361 0.930 . S
C1347 H1335 0.930 . S
C1347 C1348 1.399 . S
C1347 C1352 1.399 . S
C1348 C1347 1.399 . S
C1348 C1349 1.376 . S
C1349 H1336 0.930 . S
C1349 C1348 1.376 . S
C1349 C1350 1.388 . S
C1350 H1337 0.930 . S
C1350 C1349 1.388 . S
C1350 C1351 1.390 . S
C1351 C1350 1.390 . S
C1351 C1352 1.394 . S
C1351 C1357 1.465 . S
C1352 C1347 1.399 . S
C1352 C1351 1.394 . S
C1352 C1353 1.516 . S
C1353 C1352 1.516 . S
C1353 C1354 1.502 . S
C1353 C1355 1.561 . S
C1353 C1356 1.526 . S
C1354 H1338 0.959 . S
C1354 H1339 0.959 . S
C1354 H1340 0.961 . S
C1354 C1353 1.502 . S
C1355 H1341 0.960 . S
C1355 H1342 0.961 . S
C1355 H1343 0.959 . S
C1355 C1353 1.561 . S
C1356 C1353 1.526 . S
C1356 C1357 1.396 . S
C1356 C1361 1.390 . S
C1357 C1351 1.465 . S
C1357 C1356 1.396 . S
C1357 C1358 1.399 . S
C1358 H1344 0.929 . S
C1358 C1357 1.399 . S
C1358 C1359 1.385 . S
C1359 H1345 0.931 . S
C1359 C1358 1.385 . S
C1359 C1360 1.389 . S
C1360 C1359 1.389 . S
C1360 C1361 1.387 . S
C1361 H1346 0.930 . S
C1361 C1356 1.390 . S
C1361 C1360 1.387 . S
H1362 C1374 0.930 . S
H1363 C1376 0.930 . S
H1364 C1377 0.930 . S
H1365 C1381 0.959 . S
H1366 C1381 0.959 . S
H1367 C1381 0.961 . S
H1368 C1382 0.960 . S
H1369 C1382 0.961 . S
H1370 C1382 0.959 . S
H1371 C1385 0.929 . S
H1372 C1386 0.931 . S
H1373 C1388 0.930 . S
C1374 H1362 0.930 . S
C1374 C1375 1.399 . S
C1374 C1379 1.399 . S
C1375 C1374 1.399 . S
C1375 C1376 1.376 . S
C1376 H1363 0.930 . S
C1376 C1375 1.376 . S
C1376 C1377 1.388 . S
C1377 H1364 0.930 . S
C1377 C1376 1.388 . S
C1377 C1378 1.390 . S
C1378 C1377 1.390 . S
C1378 C1379 1.394 . S
C1378 C1384 1.465 . S
C1379 C1374 1.399 . S
C1379 C1378 1.394 . S
C1379 C1380 1.516 . S
C1380 C1379 1.516 . S
C1380 C1381 1.502 . S
C1380 C1382 1.561 . S
C1380 C1383 1.526 . S
C1381 H1365 0.959 . S
C1381 H1366 0.959 . S
C1381 H1367 0.961 . S
C1381 C1380 1.502 . S
C1382 H1368 0.960 . S
C1382 H1369 0.961 . S
C1382 H1370 0.959 . S
C1382 C1380 1.561 . S
C1383 C1380 1.526 . S
C1383 C1384 1.396 . S
C1383 C1388 1.390 . S
C1384 C1378 1.465 . S
C1384 C1383 1.396 . S
C1384 C1385 1.399 . S
C1385 H1371 0.929 . S
C1385 C1384 1.399 . S
C1385 C1386 1.385 . S
C1386 H1372 0.931 . S
C1386 C1385 1.385 . S
C1386 C1387 1.389 . S
C1387 C1386 1.389 . S
C1387 C1388 1.387 . S
C1388 H1373 0.930 . S
C1388 C1383 1.390 . S
C1388 C1387 1.387 . S
H1389 C1401 0.930 . S
H1390 C1403 0.930 . S
H1391 C1404 0.930 . S
H1392 C1408 0.959 . S
H1393 C1408 0.959 . S
H1394 C1408 0.961 . S
H1395 C1409 0.960 . S
H1396 C1409 0.961 . S
H1397 C1409 0.959 . S
H1398 C1412 0.929 . S
H1399 C1413 0.931 . S
H1400 C1415 0.930 . S
C1401 H1389 0.930 . S
C1401 C1402 1.399 . S
C1401 C1406 1.399 . S
C1402 C1401 1.399 . S
C1402 C1403 1.376 . S
C1403 H1390 0.930 . S
C1403 C1402 1.376 . S
C1403 C1404 1.388 . S
C1404 H1391 0.930 . S
C1404 C1403 1.388 . S
C1404 C1405 1.390 . S
C1405 C1404 1.390 . S
C1405 C1406 1.394 . S
C1405 C1411 1.465 . S
C1406 C1401 1.399 . S
C1406 C1405 1.394 . S
C1406 C1407 1.516 . S
C1407 C1406 1.516 . S
C1407 C1408 1.502 . S
C1407 C1409 1.561 . S
C1407 C1410 1.526 . S
C1408 H1392 0.959 . S
C1408 H1393 0.959 . S
C1408 H1394 0.961 . S
C1408 C1407 1.502 . S
C1409 H1395 0.960 . S
C1409 H1396 0.961 . S
C1409 H1397 0.959 . S
C1409 C1407 1.561 . S
C1410 C1407 1.526 . S
C1410 C1411 1.396 . S
C1410 C1415 1.390 . S
C1411 C1405 1.465 . S
C1411 C1410 1.396 . S
C1411 C1412 1.399 . S
C1412 H1398 0.929 . S
C1412 C1411 1.399 . S
C1412 C1413 1.385 . S
C1413 H1399 0.931 . S
C1413 C1412 1.385 . S
C1413 C1414 1.389 . S
C1414 C1413 1.389 . S
C1414 C1415 1.387 . S
C1415 H1400 0.930 . S
C1415 C1410 1.390 . S
C1415 C1414 1.387 . S
H1416 C1428 0.930 . S
H1417 C1430 0.930 . S
H1418 C1431 0.930 . S
H1419 C1435 0.959 . S
H1420 C1435 0.959 . S
H1421 C1435 0.961 . S
H1422 C1436 0.960 . S
H1423 C1436 0.961 . S
H1424 C1436 0.959 . S
H1425 C1439 0.929 . S
H1426 C1440 0.931 . S
H1427 C1442 0.930 . S
C1428 H1416 0.930 . S
C1428 C1429 1.399 . S
C1428 C1433 1.399 . S
C1429 C1428 1.399 . S
C1429 C1430 1.376 . S
C1430 H1417 0.930 . S
C1430 C1429 1.376 . S
C1430 C1431 1.388 . S
C1431 H1418 0.930 . S
C1431 C1430 1.388 . S
C1431 C1432 1.390 . S
C1432 C1431 1.390 . S
C1432 C1433 1.394 . S
C1432 C1438 1.465 . S
C1433 C1428 1.399 . S
C1433 C1432 1.394 . S
C1433 C1434 1.516 . S
C1434 C1433 1.516 . S
C1434 C1435 1.502 . S
C1434 C1436 1.561 . S
C1434 C1437 1.526 . S
C1435 H1419 0.959 . S
C1435 H1420 0.959 . S
C1435 H1421 0.961 . S
C1435 C1434 1.502 . S
C1436 H1422 0.960 . S
C1436 H1423 0.961 . S
C1436 H1424 0.959 . S
C1436 C1434 1.561 . S
C1437 C1434 1.526 . S
C1437 C1438 1.396 . S
C1437 C1442 1.390 . S
C1438 C1432 1.465 . S
C1438 C1437 1.396 . S
C1438 C1439 1.399 . S
C1439 H1425 0.929 . S
C1439 C1438 1.399 . S
C1439 C1440 1.385 . S
C1440 H1426 0.931 . S
C1440 C1439 1.385 . S
C1440 C1441 1.389 . S
C1441 C1440 1.389 . S
C1441 C1442 1.387 . S
C1442 H1427 0.930 . S
C1442 C1437 1.390 . S
C1442 C1441 1.387 . S
H1443 C1455 0.930 . S
H1444 C1457 0.930 . S
H1445 C1458 0.930 . S
H1446 C1462 0.959 . S
H1447 C1462 0.959 . S
H1448 C1462 0.961 . S
H1449 C1463 0.960 . S
H1450 C1463 0.961 . S
H1451 C1463 0.959 . S
H1452 C1466 0.929 . S
H1453 C1467 0.931 . S
H1454 C1469 0.930 . S
C1455 H1443 0.930 . S
C1455 C1456 1.399 . S
C1455 C1460 1.399 . S
C1456 C1455 1.399 . S
C1456 C1457 1.376 . S
C1457 H1444 0.930 . S
C1457 C1456 1.376 . S
C1457 C1458 1.388 . S
C1458 H1445 0.930 . S
C1458 C1457 1.388 . S
C1458 C1459 1.390 . S
C1459 C1458 1.390 . S
C1459 C1460 1.394 . S
C1459 C1465 1.465 . S
C1460 C1455 1.399 . S
C1460 C1459 1.394 . S
C1460 C1461 1.516 . S
C1461 C1460 1.516 . S
C1461 C1462 1.502 . S
C1461 C1463 1.561 . S
C1461 C1464 1.526 . S
C1462 H1446 0.959 . S
C1462 H1447 0.959 . S
C1462 H1448 0.961 . S
C1462 C1461 1.502 . S
C1463 H1449 0.960 . S
C1463 H1450 0.961 . S
C1463 H1451 0.959 . S
C1463 C1461 1.561 . S
C1464 C1461 1.526 . S
C1464 C1465 1.396 . S
C1464 C1469 1.390 . S
C1465 C1459 1.465 . S
C1465 C1464 1.396 . S
C1465 C1466 1.399 . S
C1466 H1452 0.929 . S
C1466 C1465 1.399 . S
C1466 C1467 1.385 . S
C1467 H1453 0.931 . S
C1467 C1466 1.385 . S
C1467 C1468 1.389 . S
C1468 C1467 1.389 . S
C1468 C1469 1.387 . S
C1469 H1454 0.930 . S
C1469 C1464 1.390 . S
C1469 C1468 1.387 . S
H1470 C1482 0.930 . S
H1471 C1484 0.930 . S
H1472 C1485 0.930 . S
H1473 C1489 0.959 . S
H1474 C1489 0.959 . S
H1475 C1489 0.961 . S
H1476 C1490 0.960 . S
H1477 C1490 0.961 . S
H1478 C1490 0.959 . S
H1479 C1493 0.929 . S
H1480 C1494 0.931 . S
H1481 C1496 0.930 . S
C1482 H1470 0.930 . S
C1482 C1483 1.399 . S
C1482 C1487 1.399 . S
C1483 C1482 1.399 . S
C1483 C1484 1.376 . S
C1484 H1471 0.930 . S
C1484 C1483 1.376 . S
C1484 C1485 1.388 . S
C1485 H1472 0.930 . S
C1485 C1484 1.388 . S
C1485 C1486 1.390 . S
C1486 C1485 1.390 . S
C1486 C1487 1.394 . S
C1486 C1492 1.465 . S
C1487 C1482 1.399 . S
C1487 C1486 1.394 . S
C1487 C1488 1.516 . S
C1488 C1487 1.516 . S
C1488 C1489 1.502 . S
C1488 C1490 1.561 . S
C1488 C1491 1.526 . S
C1489 H1473 0.959 . S
C1489 H1474 0.959 . S
C1489 H1475 0.961 . S
C1489 C1488 1.502 . S
C1490 H1476 0.960 . S
C1490 H1477 0.961 . S
C1490 H1478 0.959 . S
C1490 C1488 1.561 . S
C1491 C1488 1.526 . S
C1491 C1492 1.396 . S
C1491 C1496 1.390 . S
C1492 C1486 1.465 . S
C1492 C1491 1.396 . S
C1492 C1493 1.399 . S
C1493 H1479 0.929 . S
C1493 C1492 1.399 . S
C1493 C1494 1.385 . S
C1494 H1480 0.931 . S
C1494 C1493 1.385 . S
C1494 C1495 1.389 . S
C1495 C1494 1.389 . S
C1495 C1496 1.387 . S
C1496 H1481 0.930 . S
C1496 C1491 1.390 . S
C1496 C1495 1.387 . S
H1497 C1509 0.930 . S
H1498 C1511 0.930 . S
H1499 C1512 0.930 . S
H1500 C1516 0.959 . S
H1501 C1516 0.959 . S
H1502 C1516 0.961 . S
H1503 C1517 0.960 . S
H1504 C1517 0.961 . S
H1505 C1517 0.959 . S
H1506 C1520 0.929 . S
H1507 C1521 0.931 . S
H1508 C1523 0.930 . S
C1509 H1497 0.930 . S
C1509 C1510 1.399 . S
C1509 C1514 1.399 . S
C1510 C1509 1.399 . S
C1510 C1511 1.376 . S
C1511 H1498 0.930 . S
C1511 C1510 1.376 . S
C1511 C1512 1.388 . S
C1512 H1499 0.930 . S
C1512 C1511 1.388 . S
C1512 C1513 1.390 . S
C1513 C1512 1.390 . S
C1513 C1514 1.394 . S
C1513 C1519 1.465 . S
C1514 C1509 1.399 . S
C1514 C1513 1.394 . S
C1514 C1515 1.516 . S
C1515 C1514 1.516 . S
C1515 C1516 1.502 . S
C1515 C1517 1.561 . S
C1515 C1518 1.526 . S
C1516 H1500 0.959 . S
C1516 H1501 0.959 . S
C1516 H1502 0.961 . S
C1516 C1515 1.502 . S
C1517 H1503 0.960 . S
C1517 H1504 0.961 . S
C1517 H1505 0.959 . S
C1517 C1515 1.561 . S
C1518 C1515 1.526 . S
C1518 C1519 1.396 . S
C1518 C1523 1.390 . S
C1519 C1513 1.465 . S
C1519 C1518 1.396 . S
C1519 C1520 1.399 . S
C1520 H1506 0.929 . S
C1520 C1519 1.399 . S
C1520 C1521 1.385 . S
C1521 H1507 0.931 . S
C1521 C1520 1.385 . S
C1521 C1522 1.389 . S
C1522 C1521 1.389 . S
C1522 C1523 1.387 . S
C1523 H1508 0.930 . S
C1523 C1518 1.390 . S
C1523 C1522 1.387 . S
H1524 C1536 0.930 . S
H1525 C1538 0.930 . S
H1526 C1539 0.930 . S
H1527 C1543 0.959 . S
H1528 C1543 0.959 . S
H1529 C1543 0.961 . S
H1530 C1544 0.960 . S
H1531 C1544 0.961 . S
H1532 C1544 0.959 . S
H1533 C1547 0.929 . S
H1534 C1548 0.931 . S
H1535 C1550 0.930 . S
C1536 H1524 0.930 . S
C1536 C1537 1.399 . S
C1536 C1541 1.399 . S
C1537 C1536 1.399 . S
C1537 C1538 1.376 . S
C1538 H1525 0.930 . S
C1538 C1537 1.376 . S
C1538 C1539 1.388 . S
C1539 H1526 0.930 . S
C1539 C1538 1.388 . S
C1539 C1540 1.390 . S
C1540 C1539 1.390 . S
C1540 C1541 1.394 . S
C1540 C1546 1.465 . S
C1541 C1536 1.399 . S
C1541 C1540 1.394 . S
C1541 C1542 1.516 . S
C1542 C1541 1.516 . S
C1542 C1543 1.502 . S
C1542 C1544 1.561 . S
C1542 C1545 1.526 . S
C1543 H1527 0.959 . S
C1543 H1528 0.959 . S
C1543 H1529 0.961 . S
C1543 C1542 1.502 . S
C1544 H1530 0.960 . S
C1544 H1531 0.961 . S
C1544 H1532 0.959 . S
C1544 C1542 1.561 . S
C1545 C1542 1.526 . S
C1545 C1546 1.396 . S
C1545 C1550 1.390 . S
C1546 C1540 1.465 . S
C1546 C1545 1.396 . S
C1546 C1547 1.399 . S
C1547 H1533 0.929 . S
C1547 C1546 1.399 . S
C1547 C1548 1.385 . S
C1548 H1534 0.931 . S
C1548 C1547 1.385 . S
C1548 C1549 1.389 . S
C1549 C1548 1.389 . S
C1549 C1550 1.387 . S
C1550 H1535 0.930 . S
C1550 C1545 1.390 . S
C1550 C1549 1.387 . S
H1551 C1563 0.930 . S
H1552 C1565 0.930 . S
H1553 C1566 0.930 . S
H1554 C1570 0.959 . S
H1555 C1570 0.959 . S
H1556 C1570 0.961 . S
H1557 C1571 0.960 . S
H1558 C1571 0.961 . S
H1559 C1571 0.959 . S
H1560 C1574 0.929 . S
H1561 C1575 0.931 . S
H1562 C1577 0.930 . S
C1563 H1551 0.930 . S
C1563 C1564 1.399 . S
C1563 C1568 1.399 . S
C1564 C1563 1.399 . S
C1564 C1565 1.376 . S
C1565 H1552 0.930 . S
C1565 C1564 1.376 . S
C1565 C1566 1.388 . S
C1566 H1553 0.930 . S
C1566 C1565 1.388 . S
C1566 C1567 1.390 . S
C1567 C1566 1.390 . S
C1567 C1568 1.394 . S
C1567 C1573 1.465 . S
C1568 C1563 1.399 . S
C1568 C1567 1.394 . S
C1568 C1569 1.516 . S
C1569 C1568 1.516 . S
C1569 C1570 1.502 . S
C1569 C1571 1.561 . S
C1569 C1572 1.526 . S
C1570 H1554 0.959 . S
C1570 H1555 0.959 . S
C1570 H1556 0.961 . S
C1570 C1569 1.502 . S
C1571 H1557 0.960 . S
C1571 H1558 0.961 . S
C1571 H1559 0.959 . S
C1571 C1569 1.561 . S
C1572 C1569 1.526 . S
C1572 C1573 1.396 . S
C1572 C1577 1.390 . S
C1573 C1567 1.465 . S
C1573 C1572 1.396 . S
C1573 C1574 1.399 . S
C1574 H1560 0.929 . S
C1574 C1573 1.399 . S
C1574 C1575 1.385 . S
C1575 H1561 0.931 . S
C1575 C1574 1.385 . S
C1575 C1576 1.389 . S
C1576 C1575 1.389 . S
C1576 C1577 1.387 . S
C1577 H1562 0.930 . S
C1577 C1572 1.390 . S
C1577 C1576 1.387 . S
H1578 C1590 0.930 . S
H1579 C1592 0.930 . S
H1580 C1593 0.930 . S
H1581 C1597 0.959 . S
H1582 C1597 0.959 . S
H1583 C1597 0.961 . S
H1584 C1598 0.960 . S
H1585 C1598 0.961 . S
H1586 C1598 0.959 . S
H1587 C1601 0.929 . S
H1588 C1602 0.931 . S
H1589 C1604 0.930 . S
C1590 H1578 0.930 . S
C1590 C1591 1.399 . S
C1590 C1595 1.399 . S
C1591 C1590 1.399 . S
C1591 C1592 1.376 . S
C1592 H1579 0.930 . S
C1592 C1591 1.376 . S
C1592 C1593 1.388 . S
C1593 H1580 0.930 . S
C1593 C1592 1.388 . S
C1593 C1594 1.390 . S
C1594 C1593 1.390 . S
C1594 C1595 1.394 . S
C1594 C1600 1.465 . S
C1595 C1590 1.399 . S
C1595 C1594 1.394 . S
C1595 C1596 1.516 . S
C1596 C1595 1.516 . S
C1596 C1597 1.502 . S
C1596 C1598 1.561 . S
C1596 C1599 1.526 . S
C1597 H1581 0.959 . S
C1597 H1582 0.959 . S
C1597 H1583 0.961 . S
C1597 C1596 1.502 . S
C1598 H1584 0.960 . S
C1598 H1585 0.961 . S
C1598 H1586 0.959 . S
C1598 C1596 1.561 . S
C1599 C1596 1.526 . S
C1599 C1600 1.396 . S
C1599 C1604 1.390 . S
C1600 C1594 1.465 . S
C1600 C1599 1.396 . S
C1600 C1601 1.399 . S
C1601 H1587 0.929 . S
C1601 C1600 1.399 . S
C1601 C1602 1.385 . S
C1602 H1588 0.931 . S
C1602 C1601 1.385 . S
C1602 C1603 1.389 . S
C1603 C1602 1.389 . S
C1603 C1604 1.387 . S
C1604 H1589 0.930 . S
C1604 C1599 1.390 . S
C1604 C1603 1.387 . S
H1605 C1617 0.930 . S
H1606 C1619 0.930 . S
H1607 C1620 0.930 . S
H1608 C1624 0.959 . S
H1609 C1624 0.959 . S
H1610 C1624 0.961 . S
H1611 C1625 0.960 . S
H1612 C1625 0.961 . S
H1613 C1625 0.959 . S
H1614 C1628 0.929 . S
H1615 C1629 0.931 . S
H1616 C1631 0.930 . S
C1617 H1605 0.930 . S
C1617 C1618 1.399 . S
C1617 C1622 1.399 . S
C1618 C1617 1.399 . S
C1618 C1619 1.376 . S
C1619 H1606 0.930 . S
C1619 C1618 1.376 . S
C1619 C1620 1.388 . S
C1620 H1607 0.930 . S
C1620 C1619 1.388 . S
C1620 C1621 1.390 . S
C1621 C1620 1.390 . S
C1621 C1622 1.394 . S
C1621 C1627 1.465 . S
C1622 C1617 1.399 . S
C1622 C1621 1.394 . S
C1622 C1623 1.516 . S
C1623 C1622 1.516 . S
C1623 C1624 1.502 . S
C1623 C1625 1.561 . S
C1623 C1626 1.526 . S
C1624 H1608 0.959 . S
C1624 H1609 0.959 . S
C1624 H1610 0.961 . S
C1624 C1623 1.502 . S
C1625 H1611 0.960 . S
C1625 H1612 0.961 . S
C1625 H1613 0.959 . S
C1625 C1623 1.561 . S
C1626 C1623 1.526 . S
C1626 C1627 1.396 . S
C1626 C1631 1.390 . S
C1627 C1621 1.465 . S
C1627 C1626 1.396 . S
C1627 C1628 1.399 . S
C1628 H1614 0.929 . S
C1628 C1627 1.399 . S
C1628 C1629 1.385 . S
C1629 H1615 0.931 . S
C1629 C1628 1.385 . S
C1629 C1630 1.389 . S
C1630 C1629 1.389 . S
C1630 C1631 1.387 . S
C1631 H1616 0.930 . S
C1631 C1626 1.390 . S
C1631 C1630 1.387 . S
H1632 C1644 0.930 . S
H1633 C1646 0.930 . S
H1634 C1647 0.930 . S
H1635 C1651 0.959 . S
H1636 C1651 0.959 . S
H1637 C1651 0.961 . S
H1638 C1652 0.960 . S
H1639 C1652 0.961 . S
H1640 C1652 0.959 . S
H1641 C1655 0.929 . S
H1642 C1656 0.931 . S
H1643 C1658 0.930 . S
C1644 H1632 0.930 . S
C1644 C1645 1.399 . S
C1644 C1649 1.399 . S
C1645 C1644 1.399 . S
C1645 C1646 1.376 . S
C1646 H1633 0.930 . S
C1646 C1645 1.376 . S
C1646 C1647 1.388 . S
C1647 H1634 0.930 . S
C1647 C1646 1.388 . S
C1647 C1648 1.390 . S
C1648 C1647 1.390 . S
C1648 C1649 1.394 . S
C1648 C1654 1.465 . S
C1649 C1644 1.399 . S
C1649 C1648 1.394 . S
C1649 C1650 1.516 . S
C1650 C1649 1.516 . S
C1650 C1651 1.502 . S
C1650 C1652 1.561 . S
C1650 C1653 1.526 . S
C1651 H1635 0.959 . S
C1651 H1636 0.959 . S
C1651 H1637 0.961 . S
C1651 C1650 1.502 . S
C1652 H1638 0.960 . S
C1652 H1639 0.961 . S
C1652 H1640 0.959 . S
C1652 C1650 1.561 . S
C1653 C1650 1.526 . S
C1653 C1654 1.396 . S
C1653 C1658 1.390 . S
C1654 C1648 1.465 . S
C1654 C1653 1.396 . S
C1654 C1655 1.399 . S
C1655 H1641 0.929 . S
C1655 C1654 1.399 . S
C1655 C1656 1.385 . S
C1656 H1642 0.931 . S
C1656 C1655 1.385 . S
C1656 C1657 1.389 . S
C1657 C1656 1.389 . S
C1657 C1658 1.387 . S
C1658 H1643 0.930 . S
C1658 C1653 1.390 . S
C1658 C1657 1.387 . S
H1659 C1671 0.930 . S
H1660 C1673 0.930 . S
H1661 C1674 0.930 . S
H1662 C1678 0.959 . S
H1663 C1678 0.959 . S
H1664 C1678 0.961 . S
H1665 C1679 0.960 . S
H1666 C1679 0.961 . S
H1667 C1679 0.959 . S
H1668 C1682 0.929 . S
H1669 C1683 0.931 . S
H1670 C1685 0.930 . S
C1671 H1659 0.930 . S
C1671 C1672 1.399 . S
C1671 C1676 1.399 . S
C1672 C1671 1.399 . S
C1672 C1673 1.376 . S
C1673 H1660 0.930 . S
C1673 C1672 1.376 . S
C1673 C1674 1.388 . S
C1674 H1661 0.930 . S
C1674 C1673 1.388 . S
C1674 C1675 1.390 . S
C1675 C1674 1.390 . S
C1675 C1676 1.394 . S
C1675 C1681 1.465 . S
C1676 C1671 1.399 . S
C1676 C1675 1.394 . S
C1676 C1677 1.516 . S
C1677 C1676 1.516 . S
C1677 C1678 1.502 . S
C1677 C1679 1.561 . S
C1677 C1680 1.526 . S
C1678 H1662 0.959 . S
C1678 H1663 0.959 . S
C1678 H1664 0.961 . S
C1678 C1677 1.502 . S
C1679 H1665 0.960 . S
C1679 H1666 0.961 . S
C1679 H1667 0.959 . S
C1679 C1677 1.561 . S
C1680 C1677 1.526 . S
C1680 C1681 1.396 . S
C1680 C1685 1.390 . S
C1681 C1675 1.465 . S
C1681 C1680 1.396 . S
C1681 C1682 1.399 . S
C1682 H1668 0.929 . S
C1682 C1681 1.399 . S
C1682 C1683 1.385 . S
C1683 H1669 0.931 . S
C1683 C1682 1.385 . S
C1683 C1684 1.389 . S
C1684 C1683 1.389 . S
C1684 C1685 1.387 . S
C1685 H1670 0.930 . S
C1685 C1680 1.390 . S
C1685 C1684 1.387 . S
H1686 C1698 0.930 . S
H1687 C1700 0.930 . S
H1688 C1701 0.930 . S
H1689 C1705 0.959 . S
H1690 C1705 0.959 . S
H1691 C1705 0.961 . S
H1692 C1706 0.960 . S
H1693 C1706 0.961 . S
H1694 C1706 0.959 . S
H1695 C1709 0.929 . S
H1696 C1710 0.931 . S
H1697 C1712 0.930 . S
C1698 H1686 0.930 . S
C1698 C1699 1.399 . S
C1698 C1703 1.399 . S
C1699 C1698 1.399 . S
C1699 C1700 1.376 . S
C1700 H1687 0.930 . S
C1700 C1699 1.376 . S
C1700 C1701 1.388 . S
C1701 H1688 0.930 . S
C1701 C1700 1.388 . S
C1701 C1702 1.390 . S
C1702 C1701 1.390 . S
C1702 C1703 1.394 . S
C1702 C1708 1.465 . S
C1703 C1698 1.399 . S
C1703 C1702 1.394 . S
C1703 C1704 1.516 . S
C1704 C1703 1.516 . S
C1704 C1705 1.502 . S
C1704 C1706 1.561 . S
C1704 C1707 1.526 . S
C1705 H1689 0.959 . S
C1705 H1690 0.959 . S
C1705 H1691 0.961 . S
C1705 C1704 1.502 . S
C1706 H1692 0.960 . S
C1706 H1693 0.961 . S
C1706 H1694 0.959 . S
C1706 C1704 1.561 . S
C1707 C1704 1.526 . S
C1707 C1708 1.396 . S
C1707 C1712 1.390 . S
C1708 C1702 1.465 . S
C1708 C1707 1.396 . S
C1708 C1709 1.399 . S
C1709 H1695 0.929 . S
C1709 C1708 1.399 . S
C1709 C1710 1.385 . S
C1710 H1696 0.931 . S
C1710 C1709 1.385 . S
C1710 C1711 1.389 . S
C1711 C1710 1.389 . S
C1711 C1712 1.387 . S
C1712 H1697 0.930 . S
C1712 C1707 1.390 . S
C1712 C1711 1.387 . S
H1713 C1725 0.930 . S
H1714 C1727 0.930 . S
H1715 C1728 0.930 . S
H1716 C1732 0.959 . S
H1717 C1732 0.959 . S
H1718 C1732 0.961 . S
H1719 C1733 0.960 . S
H1720 C1733 0.961 . S
H1721 C1733 0.959 . S
H1722 C1736 0.929 . S
H1723 C1737 0.931 . S
H1724 C1739 0.930 . S
C1725 H1713 0.930 . S
C1725 C1726 1.399 . S
C1725 C1730 1.399 . S
C1726 C1725 1.399 . S
C1726 C1727 1.376 . S
C1727 H1714 0.930 . S
C1727 C1726 1.376 . S
C1727 C1728 1.388 . S
C1728 H1715 0.930 . S
C1728 C1727 1.388 . S
C1728 C1729 1.390 . S
C1729 C1728 1.390 . S
C1729 C1730 1.394 . S
C1729 C1735 1.465 . S
C1730 C1725 1.399 . S
C1730 C1729 1.394 . S
C1730 C1731 1.516 . S
C1731 C1730 1.516 . S
C1731 C1732 1.502 . S
C1731 C1733 1.561 . S
C1731 C1734 1.526 . S
C1732 H1716 0.959 . S
C1732 H1717 0.959 . S
C1732 H1718 0.961 . S
C1732 C1731 1.502 . S
C1733 H1719 0.960 . S
C1733 H1720 0.961 . S
C1733 H1721 0.959 . S
C1733 C1731 1.561 . S
C1734 C1731 1.526 . S
C1734 C1735 1.396 . S
C1734 C1739 1.390 . S
C1735 C1729 1.465 . S
C1735 C1734 1.396 . S
C1735 C1736 1.399 . S
C1736 H1722 0.929 . S
C1736 C1735 1.399 . S
C1736 C1737 1.385 . S
C1737 H1723 0.931 . S
C1737 C1736 1.385 . S
C1737 C1738 1.389 . S
C1738 C1737 1.389 . S
C1738 C1739 1.387 . S
C1739 H1724 0.930 . S
C1739 C1734 1.390 . S
C1739 C1738 1.387 . S
H1740 C1752 0.930 . S
H1741 C1754 0.930 . S
H1742 C1755 0.930 . S
H1743 C1759 0.959 . S
H1744 C1759 0.959 . S
H1745 C1759 0.961 . S
H1746 C1760 0.960 . S
H1747 C1760 0.961 . S
H1748 C1760 0.959 . S
H1749 C1763 0.929 . S
H1750 C1764 0.931 . S
H1751 C1766 0.930 . S
C1752 H1740 0.930 . S
C1752 C1753 1.399 . S
C1752 C1757 1.399 . S
C1753 C1752 1.399 . S
C1753 C1754 1.376 . S
C1754 H1741 0.930 . S
C1754 C1753 1.376 . S
C1754 C1755 1.388 . S
C1755 H1742 0.930 . S
C1755 C1754 1.388 . S
C1755 C1756 1.390 . S
C1756 C1755 1.390 . S
C1756 C1757 1.394 . S
C1756 C1762 1.465 . S
C1757 C1752 1.399 . S
C1757 C1756 1.394 . S
C1757 C1758 1.516 . S
C1758 C1757 1.516 . S
C1758 C1759 1.502 . S
C1758 C1760 1.561 . S
C1758 C1761 1.526 . S
C1759 H1743 0.959 . S
C1759 H1744 0.959 . S
C1759 H1745 0.961 . S
C1759 C1758 1.502 . S
C1760 H1746 0.960 . S
C1760 H1747 0.961 . S
C1760 H1748 0.959 . S
C1760 C1758 1.561 . S
C1761 C1758 1.526 . S
C1761 C1762 1.396 . S
C1761 C1766 1.390 . S
C1762 C1756 1.465 . S
C1762 C1761 1.396 . S
C1762 C1763 1.399 . S
C1763 H1749 0.929 . S
C1763 C1762 1.399 . S
C1763 C1764 1.385 . S
C1764 H1750 0.931 . S
C1764 C1763 1.385 . S
C1764 C1765 1.389 . S
C1765 C1764 1.389 . S
C1765 C1766 1.387 . S
C1766 H1751 0.930 . S
C1766 C1761 1.390 . S
C1766 C1765 1.387 . S
H1767 C1779 0.930 . S
H1768 C1781 0.930 . S
H1769 C1782 0.930 . S
H1770 C1786 0.959 . S
H1771 C1786 0.959 . S
H1772 C1786 0.961 . S
H1773 C1787 0.960 . S
H1774 C1787 0.961 . S
H1775 C1787 0.959 . S
H1776 C1790 0.929 . S
H1777 C1791 0.931 . S
H1778 C1793 0.930 . S
C1779 H1767 0.930 . S
C1779 C1780 1.399 . S
C1779 C1784 1.399 . S
C1780 C1779 1.399 . S
C1780 C1781 1.376 . S
C1781 H1768 0.930 . S
C1781 C1780 1.376 . S
C1781 C1782 1.388 . S
C1782 H1769 0.930 . S
C1782 C1781 1.388 . S
C1782 C1783 1.390 . S
C1783 C1782 1.390 . S
C1783 C1784 1.394 . S
C1783 C1789 1.465 . S
C1784 C1779 1.399 . S
C1784 C1783 1.394 . S
C1784 C1785 1.516 . S
C1785 C1784 1.516 . S
C1785 C1786 1.502 . S
C1785 C1787 1.561 . S
C1785 C1788 1.526 . S
C1786 H1770 0.959 . S
C1786 H1771 0.959 . S
C1786 H1772 0.961 . S
C1786 C1785 1.502 . S
C1787 H1773 0.960 . S
C1787 H1774 0.961 . S
C1787 H1775 0.959 . S
C1787 C1785 1.561 . S
C1788 C1785 1.526 . S
C1788 C1789 1.396 . S
C1788 C1793 1.390 . S
C1789 C1783 1.465 . S
C1789 C1788 1.396 . S
C1789 C1790 1.399 . S
C1790 H1776 0.929 . S
C1790 C1789 1.399 . S
C1790 C1791 1.385 . S
C1791 H1777 0.931 . S
C1791 C1790 1.385 . S
C1791 C1792 1.389 . S
C1792 C1791 1.389 . S
C1792 C1793 1.387 . S
C1793 H1778 0.930 . S
C1793 C1788 1.390 . S
C1793 C1792 1.387 . S
H1794 C1806 0.930 . S
H1795 C1808 0.930 . S
H1796 C1809 0.930 . S
H1797 C1813 0.959 . S
H1798 C1813 0.959 . S
H1799 C1813 0.961 . S
H1800 C1814 0.960 . S
H1801 C1814 0.961 . S
H1802 C1814 0.959 . S
H1803 C1817 0.929 . S
H1804 C1818 0.931 . S
H1805 C1820 0.930 . S
C1806 H1794 0.930 . S
C1806 C1807 1.399 . S
C1806 C1811 1.399 . S
C1807 C1806 1.399 . S
C1807 C1808 1.376 . S
C1808 H1795 0.930 . S
C1808 C1807 1.376 . S
C1808 C1809 1.388 . S
C1809 H1796 0.930 . S
C1809 C1808 1.388 . S
C1809 C1810 1.390 . S
C1810 C1809 1.390 . S
C1810 C1811 1.394 . S
C1810 C1816 1.465 . S
C1811 C1806 1.399 . S
C1811 C1810 1.394 . S
C1811 C1812 1.516 . S
C1812 C1811 1.516 . S
C1812 C1813 1.502 . S
C1812 C1814 1.561 . S
C1812 C1815 1.526 . S
C1813 H1797 0.959 . S
C1813 H1798 0.959 . S
C1813 H1799 0.961 . S
C1813 C1812 1.502 . S
C1814 H1800 0.960 . S
C1814 H1801 0.961 . S
C1814 H1802 0.959 . S
C1814 C1812 1.561 . S
C1815 C1812 1.526 . S
C1815 C1816 1.396 . S
C1815 C1820 1.390 . S
C1816 C1810 1.465 . S
C1816 C1815 1.396 . S
C1816 C1817 1.399 . S
C1817 H1803 0.929 . S
C1817 C1816 1.399 . S
C1817 C1818 1.385 . S
C1818 H1804 0.931 . S
C1818 C1817 1.385 . S
C1818 C1819 1.389 . S
C1819 C1818 1.389 . S
C1819 C1820 1.387 . S
C1820 H1805 0.930 . S
C1820 C1815 1.390 . S
C1820 C1819 1.387 . S
H1821 C1833 0.930 . S
H1822 C1835 0.930 . S
H1823 C1836 0.930 . S
H1824 C1840 0.959 . S
H1825 C1840 0.959 . S
H1826 C1840 0.961 . S
H1827 C1841 0.960 . S
H1828 C1841 0.961 . S
H1829 C1841 0.959 . S
H1830 C1844 0.929 . S
H1831 C1845 0.931 . S
H1832 C1847 0.930 . S
C1833 H1821 0.930 . S
C1833 C1834 1.399 . S
C1833 C1838 1.399 . S
C1834 C1833 1.399 . S
C1834 C1835 1.376 . S
C1835 H1822 0.930 . S
C1835 C1834 1.376 . S
C1835 C1836 1.388 . S
C1836 H1823 0.930 . S
C1836 C1835 1.388 . S
C1836 C1837 1.390 . S
C1837 C1836 1.390 . S
C1837 C1838 1.394 . S
C1837 C1843 1.465 . S
C1838 C1833 1.399 . S
C1838 C1837 1.394 . S
C1838 C1839 1.516 . S
C1839 C1838 1.516 . S
C1839 C1840 1.502 . S
C1839 C1841 1.561 . S
C1839 C1842 1.526 . S
C1840 H1824 0.959 . S
C1840 H1825 0.959 . S
C1840 H1826 0.961 . S
C1840 C1839 1.502 . S
C1841 H1827 0.960 . S
C1841 H1828 0.961 . S
C1841 H1829 0.959 . S
C1841 C1839 1.561 . S
C1842 C1839 1.526 . S
C1842 C1843 1.396 . S
C1842 C1847 1.390 . S
C1843 C1837 1.465 . S
C1843 C1842 1.396 . S
C1843 C1844 1.399 . S
C1844 H1830 0.929 . S
C1844 C1843 1.399 . S
C1844 C1845 1.385 . S
C1845 H1831 0.931 . S
C1845 C1844 1.385 . S
C1845 C1846 1.389 . S
C1846 C1845 1.389 . S
C1846 C1847 1.387 . S
C1847 H1832 0.930 . S
C1847 C1842 1.390 . S
C1847 C1846 1.387 . S
C565 N518 1.234 . S
C577 N12 1.162 . S
C592 C39 1.661 . S
C604 C536 1.670 . S
C619 N472 1.180 . S
C631 N58 1.242 . S
C646 C490 1.737 . S
C658 C76 1.753 . S
C673 C499 1.615 . S
C685 N104 1.578 . S
C700 N117 1.304 . S
C712 N508 1.311 . S
C727 C545 1.525 . S
C739 N150 1.449 . S
C754 C177 1.308 . S
C766 N462 1.298 . S
C781 C191 1.282 . S
C793 N439 1.297 . S
C808 C384 1.822 . S
C820 C223 1.826 . S
C835 N232 1.112 . S
C847 N393 1.134 . S
C862 N426 1.526 . S
C874 C269 1.621 . S
C889 C260 1.617 . S
C901 N301 1.631 . S
C916 C200 1.437 . S
C928 N334 1.357 . S
C943 C361 1.658 . S
C955 C214 1.658 . S
C970 N242 1.162 . S
C982 N288 1.139 . S
C997 C30 1.602 . S
C1009 N416 1.599 . S
C1024 N324 1.454 . S
C1036 C168 1.492 . S
C1051 N94 1.536 . S
C1063 C352 1.543 . S
C1078 N278 1.355 . S
C1090 N127 1.275 . S
C1105 N140 1.431 . S
C1117 N311 1.338 . S
C1132 C85 1.832 . S
C1144 C375 1.840 . S
C1159 N2 1.202 . S
C1171 N403 1.106 . S
C1186 N48 1.302 . S
C1198 N449 1.302 . S
C1213 C145 1.993 . S
C1225 C467 1.997 . S
C1240 N495 1.419 . S
C1252 N163 1.378 . S
C1267 C513 1.887 . S
C1279 C99 1.890 . S
C1294 N541 1.353 . S
C1306 C131 1.328 . S
C1321 C53 1.493 . S
C1333 N531 1.487 . S
C1348 N81 1.799 . S
C1360 C476 1.785 . S
C1375 C7 1.597 . S
C1387 N485 1.547 . S
C1402 C522 1.598 . S
C1414 N25 1.578 . S
C1429 C246 1.743 . S
C1441 C315 1.719 . S
C1456 N255 1.301 . S
C1468 C329 1.389 . S
C1483 N196 1.695 . S
C1495 N347 1.678 . S
C1510 N209 1.322 . S
C1522 C283 1.410 . S
C1537 N219 1.583 . S
C1549 C453 1.567 . S
C1564 N370 1.608 . S
C1576 C237 1.626 . S
C1591 N265 1.381 . S
C1603 C407 1.377 . S
C1618 N186 1.701 . S
C1630 C421 1.719 . S
C1645 C292 1.269 . S
C1657 N173 1.227 . S
C1672 N380 1.523 . S
C1684 N35 1.536 . S
C1699 C62 1.492 . S
C1711 C398 1.497 . S
C1726 C430 1.750 . S
C1738 N71 1.690 . S
C1753 C444 1.643 . S
C1765 C16 1.617 . S
C1780 C122 1.346 . S
C1792 C338 1.340 . S
C1807 N357 1.897 . S
C1819 C154 1.887 . S
C1834 C306 1.959 . S
C1846 C108 1.965 . S
