# Generated by pormake.
# Topology unw, (4)-cn, num edge types: 1
# Building blocks:
#     Node 0, Type 0, BuildingBlock: ESEHIV_clean_sbu_0, # of connection points: 4
#     Node 1, Type 0, BuildingBlock: ESEHIV_clean_sbu_0, # of connection points: 4
#     Node 2, Type 0, BuildingBlock: ESEHIV_clean_sbu_0, # of connection points: 4
#     Node 3, Type 0, BuildingBlock: ESEHIV_clean_sbu_0, # of connection points: 4
#     Node 4, Type 0, BuildingBlock: ESEHIV_clean_sbu_0, # of connection points: 4
#     Node 5, Type 0, BuildingBlock: ESEHIV_clean_sbu_0, # of connection points: 4
#     Node 6, Type 0, BuildingBlock: ESEHIV_clean_sbu_0, # of connection points: 4
#     Node 7, Type 0, BuildingBlock: ESEHIV_clean_sbu_0, # of connection points: 4
#     Node 8, Type 0, BuildingBlock: ESEHIV_clean_sbu_0, # of connection points: 4
#     Node 9, Type 0, BuildingBlock: ESEHIV_clean_sbu_0, # of connection points: 4
#     Node 10, Type 0, BuildingBlock: ESEHIV_clean_sbu_0, # of connection points: 4
#     Node 11, Type 0, BuildingBlock: ESEHIV_clean_sbu_0, # of connection points: 4
#     Node 12, Type 0, BuildingBlock: ESEHIV_clean_sbu_0, # of connection points: 4
#     Node 13, Type 0, BuildingBlock: ESEHIV_clean_sbu_0, # of connection points: 4
#     Node 14, Type 0, BuildingBlock: ESEHIV_clean_sbu_0, # of connection points: 4
#     Node 15, Type 0, BuildingBlock: ESEHIV_clean_sbu_0, # of connection points: 4
#     Node 16, Type 0, BuildingBlock: ESEHIV_clean_sbu_0, # of connection points: 4
#     Node 17, Type 0, BuildingBlock: ESEHIV_clean_sbu_0, # of connection points: 4
#     Node 18, Type 0, BuildingBlock: ESEHIV_clean_sbu_0, # of connection points: 4
#     Node 19, Type 0, BuildingBlock: ESEHIV_clean_sbu_0, # of connection points: 4
#     Node 20, Type 0, BuildingBlock: ESEHIV_clean_sbu_0, # of connection points: 4
#     Node 21, Type 0, BuildingBlock: ESEHIV_clean_sbu_0, # of connection points: 4
#     Node 22, Type 0, BuildingBlock: ESEHIV_clean_sbu_0, # of connection points: 4
#     Node 23, Type 0, BuildingBlock: ESEHIV_clean_sbu_0, # of connection points: 4
#     Edge 24, Type (0, 0), BuildingBlock: UVAHIK_clean_linker_0, # of connection points: 2
#     Edge 25, Type (0, 0), BuildingBlock: UVAHIK_clean_linker_0, # of connection points: 2
#     Edge 26, Type (0, 0), BuildingBlock: UVAHIK_clean_linker_0, # of connection points: 2
#     Edge 27, Type (0, 0), BuildingBlock: UVAHIK_clean_linker_0, # of connection points: 2
#     Edge 28, Type (0, 0), BuildingBlock: UVAHIK_clean_linker_0, # of connection points: 2
#     Edge 29, Type (0, 0), BuildingBlock: UVAHIK_clean_linker_0, # of connection points: 2
#     Edge 30, Type (0, 0), BuildingBlock: UVAHIK_clean_linker_0, # of connection points: 2
#     Edge 31, Type (0, 0), BuildingBlock: UVAHIK_clean_linker_0, # of connection points: 2
#     Edge 32, Type (0, 0), BuildingBlock: UVAHIK_clean_linker_0, # of connection points: 2
#     Edge 33, Type (0, 0), BuildingBlock: UVAHIK_clean_linker_0, # of connection points: 2
#     Edge 34, Type (0, 0), BuildingBlock: UVAHIK_clean_linker_0, # of connection points: 2
#     Edge 35, Type (0, 0), BuildingBlock: UVAHIK_clean_linker_0, # of connection points: 2
#     Edge 36, Type (0, 0), BuildingBlock: UVAHIK_clean_linker_0, # of connection points: 2
#     Edge 37, Type (0, 0), BuildingBlock: UVAHIK_clean_linker_0, # of connection points: 2
#     Edge 38, Type (0, 0), BuildingBlock: UVAHIK_clean_linker_0, # of connection points: 2
#     Edge 39, Type (0, 0), BuildingBlock: UVAHIK_clean_linker_0, # of connection points: 2
#     Edge 40, Type (0, 0), BuildingBlock: UVAHIK_clean_linker_0, # of connection points: 2
#     Edge 41, Type (0, 0), BuildingBlock: UVAHIK_clean_linker_0, # of connection points: 2
#     Edge 42, Type (0, 0), BuildingBlock: UVAHIK_clean_linker_0, # of connection points: 2
#     Edge 43, Type (0, 0), BuildingBlock: UVAHIK_clean_linker_0, # of connection points: 2
#     Edge 44, Type (0, 0), BuildingBlock: UVAHIK_clean_linker_0, # of connection points: 2
#     Edge 45, Type (0, 0), BuildingBlock: UVAHIK_clean_linker_0, # of connection points: 2
#     Edge 46, Type (0, 0), BuildingBlock: UVAHIK_clean_linker_0, # of connection points: 2
#     Edge 47, Type (0, 0), BuildingBlock: UVAHIK_clean_linker_0, # of connection points: 2
#     Edge 48, Type (0, 0), BuildingBlock: UVAHIK_clean_linker_0, # of connection points: 2
#     Edge 49, Type (0, 0), BuildingBlock: UVAHIK_clean_linker_0, # of connection points: 2
#     Edge 50, Type (0, 0), BuildingBlock: UVAHIK_clean_linker_0, # of connection points: 2
#     Edge 51, Type (0, 0), BuildingBlock: UVAHIK_clean_linker_0, # of connection points: 2
#     Edge 52, Type (0, 0), BuildingBlock: UVAHIK_clean_linker_0, # of connection points: 2
#     Edge 53, Type (0, 0), BuildingBlock: UVAHIK_clean_linker_0, # of connection points: 2
#     Edge 54, Type (0, 0), BuildingBlock: UVAHIK_clean_linker_0, # of connection points: 2
#     Edge 55, Type (0, 0), BuildingBlock: UVAHIK_clean_linker_0, # of connection points: 2
#     Edge 56, Type (0, 0), BuildingBlock: UVAHIK_clean_linker_0, # of connection points: 2
#     Edge 57, Type (0, 0), BuildingBlock: UVAHIK_clean_linker_0, # of connection points: 2
#     Edge 58, Type (0, 0), BuildingBlock: UVAHIK_clean_linker_0, # of connection points: 2
#     Edge 59, Type (0, 0), BuildingBlock: UVAHIK_clean_linker_0, # of connection points: 2
#     Edge 60, Type (0, 0), BuildingBlock: UVAHIK_clean_linker_0, # of connection points: 2
#     Edge 61, Type (0, 0), BuildingBlock: UVAHIK_clean_linker_0, # of connection points: 2
#     Edge 62, Type (0, 0), BuildingBlock: UVAHIK_clean_linker_0, # of connection points: 2
#     Edge 63, Type (0, 0), BuildingBlock: UVAHIK_clean_linker_0, # of connection points: 2
#     Edge 64, Type (0, 0), BuildingBlock: UVAHIK_clean_linker_0, # of connection points: 2
#     Edge 65, Type (0, 0), BuildingBlock: UVAHIK_clean_linker_0, # of connection points: 2
#     Edge 66, Type (0, 0), BuildingBlock: UVAHIK_clean_linker_0, # of connection points: 2
#     Edge 67, Type (0, 0), BuildingBlock: UVAHIK_clean_linker_0, # of connection points: 2
#     Edge 68, Type (0, 0), BuildingBlock: UVAHIK_clean_linker_0, # of connection points: 2
#     Edge 69, Type (0, 0), BuildingBlock: UVAHIK_clean_linker_0, # of connection points: 2
#     Edge 70, Type (0, 0), BuildingBlock: UVAHIK_clean_linker_0, # of connection points: 2
#     Edge 71, Type (0, 0), BuildingBlock: UVAHIK_clean_linker_0, # of connection points: 2
# Relax obj value: 0.329
# Max RMSD: 0.209
# Mean RMSD: 0.204
data_MOF--net-unw--node1-ESEHIV_clean_sbu_0--edge1-UVAHIK_clean_linker_0
_symmetry_space_group_name_H-M    P1
_symmetry_Int_Tables_number       1
_symmetry_cell_setting            triclinic
loop_
_symmetry_equiv_pos_as_xyz
'x, y, z'
_cell_length_a     63.945451
_cell_length_b     65.168901
_cell_length_c     64.575862
_cell_angle_alpha  90.596069
_cell_angle_beta   90.217935
_cell_angle_gamma 91.830574
loop_
_atom_site_label
_atom_site_type_symbol
_atom_site_fract_x
_atom_site_fract_y
_atom_site_fract_z
_atom_type_partial_charge
Cu0 Cu 0.12059 0.39632 0.29006 0.0
N1 N 0.13245 0.38523 0.31356 0.0
N2 N 0.14392 0.3606 0.33407 0.0
C3 C 0.13134 0.36515 0.31808 0.0
C4 C 0.15331 0.37861 0.3399 0.0
C5 C 0.14614 0.39384 0.3272 0.0
O6 O 0.09152 0.38696 0.28931 0.0
C7 C 0.13634 0.39205 0.24847 0.0
O8 O 0.12357 0.40647 0.24303 0.0
H9 H 0.12257 0.35387 0.30886 0.0
H10 H 0.15131 0.40981 0.32722 0.0
N11 N 0.12279 0.42489 0.2909 0.0
N12 N 0.13201 0.45705 0.28234 0.0
C13 C 0.13558 0.43692 0.27941 0.0
C14 C 0.11091 0.43779 0.30176 0.0
C15 C 0.11658 0.45767 0.29653 0.0
C16 C 0.08619 0.36961 0.28142 0.0
O17 O 0.10037 0.35887 0.27189 0.0
H18 H 0.14708 0.431 0.26887 0.0
H19 H 0.09855 0.43303 0.31222 0.0
O20 O 0.13648 0.3858 0.26705 0.0
H21 H 0.16503 0.38053 0.35197 0.0
H22 H 0.10926 0.47142 0.30207 0.0
Cu23 Cu 0.61894 0.12797 0.23286 0.0
N24 N 0.63443 0.1324 0.20893 0.0
N25 N 0.65103 0.15095 0.18483 0.0
C26 C 0.6353 0.15022 0.19867 0.0
C27 C 0.66003 0.13254 0.18597 0.0
C28 C 0.64977 0.12112 0.20096 0.0
O29 O 0.59159 0.13917 0.22805 0.0
C30 C 0.64018 0.16035 0.25506 0.0
O31 O 0.63312 0.17211 0.24038 0.0
H32 H 0.62539 0.16293 0.20222 0.0
H33 H 0.65415 0.10631 0.20669 0.0
N34 N 0.61713 0.09997 0.23832 0.0
N35 N 0.62562 0.06929 0.25043 0.0
C36 C 0.63116 0.08942 0.24915 0.0
C37 C 0.60217 0.08614 0.23245 0.0
C38 C 0.60736 0.06717 0.23988 0.0
C39 C 0.58275 0.15208 0.23974 0.0
O40 O 0.59149 0.15743 0.25751 0.0
H41 H 0.64529 0.09643 0.25571 0.0
H42 H 0.58845 0.08963 0.22345 0.0
O43 O 0.63455 0.14144 0.25531 0.0
H44 H 0.67407 0.12831 0.17788 0.0
H45 H 0.59821 0.05303 0.23792 0.0
Cu46 Cu 0.89184 0.59924 0.29217 0.0
N47 N 0.8812 0.60779 0.31742 0.0
N48 N 0.87038 0.63057 0.34076 0.0
C49 C 0.88297 0.62725 0.32446 0.0
C50 C 0.86033 0.61239 0.3442 0.0
C51 C 0.8671 0.5983 0.32975 0.0
O52 O 0.92058 0.60956 0.29081 0.0
C53 C 0.8733 0.60642 0.25236 0.0
O54 O 0.88637 0.59316 0.24478 0.0
H55 H 0.89194 0.63917 0.31662 0.0
H56 H 0.86115 0.58271 0.32751 0.0
N57 N 0.89016 0.57073 0.28941 0.0
N58 N 0.88047 0.53976 0.27683 0.0
C59 C 0.87603 0.55986 0.27793 0.0
C60 C 0.90385 0.55705 0.29617 0.0
C61 C 0.89789 0.5379 0.28846 0.0
C62 C 0.92498 0.62736 0.28387 0.0
O63 O 0.90999 0.63808 0.27578 0.0
H64 H 0.86307 0.56672 0.27007 0.0
H65 H 0.91768 0.56089 0.30529 0.0
O66 O 0.87413 0.61121 0.27148 0.0
H67 H 0.84823 0.60974 0.35563 0.0
H68 H 0.90638 0.52394 0.29039 0.0
Cu69 Cu 0.37819 0.87642 0.22255 0.0
N70 N 0.3561 0.88201 0.20497 0.0
N71 N 0.32165 0.8814 0.19919 0.0
C72 C 0.33722 0.88613 0.21269 0.0
C73 C 0.33117 0.87431 0.18205 0.0
C74 C 0.3525 0.87478 0.18563 0.0
O75 O 0.37626 0.89521 0.24597 0.0
C76 C 0.37604 0.83404 0.2169 0.0
O77 O 0.38496 0.83906 0.19931 0.0
H78 H 0.33474 0.88947 0.22894 0.0
H79 H 0.36417 0.86795 0.17589 0.0
N80 N 0.40406 0.87905 0.20935 0.0
N81 N 0.43519 0.86981 0.1975 0.0
C82 C 0.41993 0.86616 0.21147 0.0
C83 C 0.40965 0.89163 0.19379 0.0
C84 C 0.42894 0.88602 0.18649 0.0
C85 C 0.37734 0.91436 0.24229 0.0
O86 O 0.38159 0.92036 0.22336 0.0
H87 H 0.41969 0.85356 0.22227 0.0
H88 H 0.39985 0.90324 0.18739 0.0
O89 O 0.37254 0.84802 0.23026 0.0
H90 H 0.3232 0.86738 0.16878 0.0
H91 H 0.43699 0.89238 0.17318 0.0
Cu92 Cu 0.12695 0.64641 0.74511 0.0
N93 N 0.13827 0.6506 0.71894 0.0
N94 N 0.15365 0.66833 0.69348 0.0
C95 C 0.14355 0.66929 0.7117 0.0
C96 C 0.1549 0.64811 0.68904 0.0
C97 C 0.14529 0.63716 0.70482 0.0
O98 O 0.09993 0.65927 0.74528 0.0
C99 C 0.14434 0.66665 0.78192 0.0
O100 O 0.12588 0.66483 0.79069 0.0
H101 H 0.14118 0.68333 0.7203 0.0
H102 H 0.14424 0.62064 0.7063 0.0
N103 N 0.12407 0.61842 0.75061 0.0
N104 N 0.12959 0.58713 0.76309 0.0
C105 C 0.13624 0.60706 0.7628 0.0
C106 C 0.10923 0.60536 0.74296 0.0
C107 C 0.11257 0.58608 0.7506 0.0
C108 C 0.09868 0.6787 0.74646 0.0
O109 O 0.11575 0.68994 0.75002 0.0
H110 H 0.14983 0.61327 0.77102 0.0
H111 H 0.09683 0.60962 0.73257 0.0
O112 O 0.14704 0.65953 0.76378 0.0
H113 H 0.16261 0.64171 0.67567 0.0
H114 H 0.10298 0.57243 0.74741 0.0
Cu115 Cu 0.352 0.08943 0.79922 0.0
N116 N 0.32932 0.0765 0.81214 0.0
N117 N 0.29494 0.06937 0.81294 0.0
C118 C 0.31221 0.07087 0.80112 0.0
C119 C 0.30153 0.07391 0.83239 0.0
C120 C 0.32285 0.07818 0.83188 0.0
O121 O 0.35535 0.07494 0.77302 0.0
C122 C 0.34213 0.12844 0.81206 0.0
O123 O 0.34828 0.12072 0.82969 0.0
H124 H 0.31187 0.071 0.78435 0.0
H125 H 0.33231 0.08447 0.84448 0.0
N126 N 0.37651 0.08924 0.81514 0.0
N127 N 0.40637 0.10056 0.83002 0.0
C128 C 0.39081 0.1048 0.81671 0.0
C129 C 0.38327 0.0746 0.82786 0.0
C130 C 0.4018 0.0815 0.83698 0.0
C131 C 0.35877 0.05584 0.77403 0.0
O132 O 0.3617 0.04775 0.79232 0.0
H133 H 0.38966 0.11908 0.80843 0.0
H134 H 0.37508 0.06012 0.83066 0.0
O135 O 0.34342 0.11756 0.79563 0.0
H136 H 0.29138 0.07608 0.84556 0.0
H137 H 0.41079 0.07345 0.84838 0.0
Cu138 Cu 0.87999 0.36363 0.75376 0.0
N139 N 0.87307 0.34426 0.7737 0.0
N140 N 0.852 0.32545 0.794 0.0
C141 C 0.85493 0.34345 0.78415 0.0
C142 C 0.86901 0.31449 0.78962 0.0
C143 C 0.88204 0.3262 0.7771 0.0
O144 O 0.86814 0.38941 0.76247 0.0
C145 C 0.84785 0.35483 0.72488 0.0
O146 O 0.83681 0.36642 0.73719 0.0
H147 H 0.84329 0.35511 0.78305 0.0
H148 H 0.8963 0.32135 0.76982 0.0
N149 N 0.90894 0.36545 0.75055 0.0
N150 N 0.94107 0.35779 0.74007 0.0
C151 C 0.92033 0.35366 0.73793 0.0
C152 C 0.92286 0.37751 0.76103 0.0
C153 C 0.94272 0.37281 0.75461 0.0
C154 C 0.87265 0.40711 0.7553 0.0
O155 O 0.88673 0.40904 0.74063 0.0
H156 H 0.91352 0.3418 0.72791 0.0
H157 H 0.91884 0.38869 0.77274 0.0
O158 O 0.86724 0.35301 0.72851 0.0
H159 H 0.87135 0.29882 0.79428 0.0
H160 H 0.95722 0.37987 0.76025 0.0
Cu161 Cu 0.6284 0.90605 0.7976 0.0
N162 N 0.63937 0.89671 0.82242 0.0
N163 N 0.65146 0.8732 0.84396 0.0
C164 C 0.63792 0.87706 0.82855 0.0
C165 C 0.66177 0.89124 0.84785 0.0
C166 C 0.65422 0.90576 0.83453 0.0
O167 O 0.60013 0.89457 0.79485 0.0
C168 C 0.64449 0.89484 0.75721 0.0
O169 O 0.62597 0.89809 0.74925 0.0
H170 H 0.62862 0.86532 0.82053 0.0
H171 H 0.66029 0.92131 0.83268 0.0
N172 N 0.62863 0.93462 0.79709 0.0
N173 N 0.63507 0.96662 0.78611 0.0
C174 C 0.6368 0.94639 0.78196 0.0
C175 C 0.62146 0.94776 0.81139 0.0
C176 C 0.62543 0.96755 0.80467 0.0
C177 C 0.59687 0.87586 0.78968 0.0
O178 O 0.61273 0.865 0.78361 0.0
H179 H 0.64424 0.94017 0.76836 0.0
H180 H 0.61397 0.94325 0.8257 0.0
O181 O 0.6475 0.89692 0.77659 0.0
H182 H 0.67468 0.89347 0.85861 0.0
H183 H 0.62135 0.98148 0.81274 0.0
Cu184 Cu 0.26307 0.12665 0.37562 0.0
N185 N 0.23848 0.13509 0.36342 0.0
N186 N 0.21349 0.15678 0.35528 0.0
C187 C 0.2285 0.1521 0.36901 0.0
C188 C 0.21393 0.14193 0.34054 0.0
C189 C 0.22939 0.12853 0.34564 0.0
O190 O 0.26081 0.13396 0.40473 0.0
C191 C 0.28649 0.15953 0.35817 0.0
O192 O 0.27441 0.17094 0.36961 0.0
H193 H 0.23331 0.16174 0.38204 0.0
H194 H 0.23446 0.11564 0.33645 0.0
N195 N 0.26514 0.09832 0.37261 0.0
N196 N 0.27653 0.06765 0.36273 0.0
C197 C 0.27957 0.08825 0.36169 0.0
C198 C 0.25251 0.0837 0.38083 0.0
C199 C 0.25949 0.06477 0.37479 0.0
C200 C 0.27327 0.14464 0.4162 0.0
O201 O 0.29131 0.15135 0.40881 0.0
H202 H 0.29214 0.09594 0.35335 0.0
H203 H 0.2391 0.08665 0.39046 0.0
O204 O 0.28553 0.14014 0.36029 0.0
H205 H 0.20438 0.14127 0.32667 0.0
H206 H 0.25231 0.05007 0.37869 0.0
Cu207 Cu 0.88175 0.21921 0.34794 0.0
N208 N 0.89414 0.20459 0.32658 0.0
N209 N 0.90629 0.20065 0.29448 0.0
C210 C 0.90326 0.21384 0.31029 0.0
C211 C 0.89889 0.18225 0.3011 0.0
C212 C 0.89154 0.18469 0.32106 0.0
O213 O 0.89599 0.24595 0.34844 0.0
C214 C 0.84105 0.20436 0.34354 0.0
O215 O 0.85008 0.18779 0.3501 0.0
H216 H 0.90551 0.23034 0.30921 0.0
H217 H 0.88335 0.17317 0.33014 0.0
N218 N 0.8839 0.20615 0.37342 0.0
N219 N 0.87299 0.19409 0.40392 0.0
C220 C 0.86982 0.2077 0.38871 0.0
C221 C 0.89671 0.19124 0.37921 0.0
C222 C 0.89007 0.18384 0.39813 0.0
C223 C 0.91431 0.24731 0.35619 0.0
O224 O 0.92162 0.23136 0.36578 0.0
H225 H 0.85685 0.21794 0.38809 0.0
H226 H 0.90923 0.18543 0.36983 0.0
O227 O 0.85215 0.22075 0.34124 0.0
H228 H 0.89756 0.16842 0.2917 0.0
H229 H 0.89649 0.17104 0.40629 0.0
Cu230 Cu 0.74445 0.85816 0.3819 0.0
N231 N 0.77132 0.85198 0.37358 0.0
N232 N 0.79866 0.83215 0.36837 0.0
C233 C 0.78111 0.83502 0.37937 0.0
C234 C 0.80001 0.84804 0.35512 0.0
C235 C 0.78308 0.86031 0.35841 0.0
O236 O 0.74282 0.85035 0.41075 0.0
C237 C 0.70849 0.84719 0.35649 0.0
O238 O 0.69986 0.86391 0.36347 0.0
H239 H 0.77461 0.82413 0.39032 0.0
H240 H 0.77898 0.87363 0.34959 0.0
N241 N 0.74011 0.88621 0.37921 0.0
N242 N 0.73043 0.91625 0.36641 0.0
C243 C 0.73387 0.89626 0.36224 0.0
C244 C 0.74098 0.90032 0.39454 0.0
C245 C 0.73505 0.91885 0.38672 0.0
C246 C 0.73822 0.8322 0.41663 0.0
O247 O 0.73139 0.81848 0.40295 0.0
H248 H 0.73146 0.88891 0.34729 0.0
H249 H 0.74499 0.89716 0.41045 0.0
O250 O 0.72605 0.84197 0.36371 0.0
H251 H 0.81185 0.85015 0.34334 0.0
H252 H 0.73336 0.93289 0.39556 0.0
Cu253 Cu 0.10998 0.80155 0.33495 0.0
N254 N 0.09072 0.81265 0.31692 0.0
N255 N 0.07554 0.81284 0.28572 0.0
C256 C 0.08213 0.80126 0.30146 0.0
C257 C 0.07982 0.83244 0.29168 0.0
C258 C 0.0891 0.83229 0.31105 0.0
O259 O 0.10202 0.77273 0.33703 0.0
C260 C 0.14519 0.82335 0.32152 0.0
O261 O 0.13603 0.83806 0.33177 0.0
H262 H 0.0837 0.78479 0.30036 0.0
H263 H 0.09641 0.84534 0.31899 0.0
N264 N 0.11068 0.81458 0.36079 0.0
N265 N 0.12389 0.82667 0.39073 0.0
C266 C 0.12621 0.81338 0.3748 0.0
C267 C 0.09798 0.829 0.36812 0.0
C268 C 0.10613 0.83655 0.38661 0.0
C269 C 0.08529 0.76779 0.34659 0.0
O270 O 0.07565 0.78203 0.35709 0.0
H271 H 0.1396 0.80382 0.3727 0.0
H272 H 0.08426 0.83424 0.36016 0.0
O273 O 0.13692 0.80533 0.32162 0.0
H274 H 0.07847 0.8457 0.28185 0.0
H275 H 0.09977 0.84867 0.39602 0.0
Cu276 Cu 0.30421 0.8629 0.60214 0.0
N277 N 0.32603 0.84475 0.6037 0.0
N278 N 0.34754 0.82324 0.61923 0.0
C279 C 0.33598 0.84013 0.62133 0.0
C280 C 0.34506 0.81731 0.59923 0.0
C281 C 0.33169 0.83057 0.58971 0.0
O282 O 0.31175 0.88736 0.61824 0.0
C283 C 0.2783 0.84238 0.6313 0.0
O284 O 0.29281 0.84833 0.64471 0.0
H285 H 0.33381 0.84847 0.63567 0.0
H286 H 0.32539 0.8291 0.57418 0.0
N287 N 0.29863 0.86983 0.57486 0.0
N288 N 0.28182 0.87079 0.54454 0.0
C289 C 0.28416 0.86059 0.56244 0.0
C290 C 0.3058 0.88638 0.56448 0.0
C291 C 0.29542 0.88704 0.54574 0.0
C292 C 0.29852 0.8988 0.62687 0.0
O293 O 0.27846 0.89408 0.6251 0.0
H294 H 0.27475 0.84728 0.56694 0.0
H295 H 0.31717 0.89759 0.57049 0.0
O296 O 0.27974 0.84827 0.61265 0.0
H297 H 0.3512 0.80357 0.59231 0.0
H298 H 0.2974 0.89878 0.53411 0.0
Cu299 Cu 0.15669 0.2131 0.64183 0.0
N300 N 0.15304 0.18838 0.65579 0.0
N301 N 0.15922 0.16215 0.67672 0.0
C302 C 0.16714 0.17946 0.66799 0.0
C303 C 0.13936 0.16012 0.66962 0.0
C304 C 0.13561 0.17632 0.6567 0.0
O305 O 0.17 0.20758 0.61542 0.0
C306 C 0.16912 0.23405 0.67796 0.0
O307 O 0.15285 0.22378 0.68538 0.0
H308 H 0.18269 0.18595 0.67087 0.0
H309 H 0.12112 0.17924 0.64873 0.0
N310 N 0.13046 0.22419 0.6374 0.0
N311 N 0.10128 0.24173 0.64234 0.0
C312 C 0.12114 0.23877 0.64871 0.0
C313 C 0.11616 0.21779 0.62326 0.0
C314 C 0.09818 0.22853 0.62625 0.0
C315 C 0.18976 0.20866 0.61305 0.0
O316 O 0.20174 0.21432 0.62881 0.0
H317 H 0.12875 0.24684 0.6615 0.0
H318 H 0.11843 0.20565 0.61203 0.0
O319 O 0.17377 0.23179 0.65895 0.0
H320 H 0.12833 0.1478 0.67343 0.0
H321 H 0.08373 0.22616 0.61767 0.0
Cu322 Cu 0.70105 0.15923 0.62207 0.0
N323 N 0.67467 0.17057 0.6228 0.0
N324 N 0.64717 0.18665 0.63564 0.0
C325 C 0.66618 0.17916 0.63965 0.0
C326 C 0.64361 0.18268 0.61535 0.0
C327 C 0.66063 0.1727 0.60746 0.0
O328 O 0.70013 0.13513 0.63947 0.0
C329 C 0.71991 0.19823 0.62645 0.0
O330 O 0.70475 0.20294 0.61373 0.0
H331 H 0.67412 0.18037 0.65445 0.0
H332 H 0.66269 0.16754 0.59165 0.0
N333 N 0.70803 0.15182 0.59514 0.0
N334 N 0.72572 0.14993 0.56545 0.0
C335 C 0.72494 0.15852 0.58455 0.0
C336 C 0.69771 0.13851 0.58242 0.0
C337 C 0.70857 0.13732 0.56407 0.0
C338 C 0.70089 0.13672 0.65911 0.0
O339 O 0.70376 0.15498 0.66766 0.0
H340 H 0.7366 0.16923 0.59092 0.0
H341 H 0.6833 0.13029 0.58626 0.0
O342 O 0.72144 0.1797 0.63215 0.0
H343 H 0.62969 0.18656 0.60685 0.0
H344 H 0.70402 0.12805 0.55069 0.0
Cu345 Cu 0.86048 0.77775 0.63994 0.0
N346 N 0.85179 0.80263 0.65056 0.0
N347 N 0.8302 0.82652 0.6618 0.0
C348 C 0.83176 0.80794 0.65263 0.0
C349 C 0.85009 0.83314 0.66562 0.0
C350 C 0.8634 0.81835 0.6586 0.0
O351 O 0.85002 0.77577 0.61175 0.0
C352 C 0.85472 0.73826 0.65855 0.0
O353 O 0.86837 0.73176 0.64502 0.0
H354 H 0.8186 0.79801 0.64814 0.0
H355 H 0.8803 0.81885 0.65961 0.0
N356 N 0.88963 0.77726 0.64072 0.0
N357 N 0.92206 0.77037 0.6509 0.0
C358 C 0.90142 0.76735 0.65448 0.0
C359 C 0.90324 0.78704 0.62809 0.0
C360 C 0.9233 0.78284 0.63436 0.0
C361 C 0.83174 0.76868 0.60739 0.0
O362 O 0.82023 0.76038 0.62209 0.0
H363 H 0.89502 0.75836 0.66709 0.0
H364 H 0.89885 0.79654 0.61526 0.0
O365 O 0.84891 0.75672 0.65788 0.0
H366 H 0.85469 0.84755 0.67306 0.0
H367 H 0.93765 0.78826 0.62711 0.0
Cu368 Cu 0.35819 0.27959 0.13842 0.0
N369 N 0.34859 0.30355 0.15057 0.0
N370 N 0.32539 0.32659 0.16055 0.0
C371 C 0.33022 0.31212 0.14638 0.0
C372 C 0.34179 0.32749 0.17384 0.0
C373 C 0.35604 0.31323 0.16766 0.0
O374 O 0.34959 0.27937 0.10941 0.0
C375 C 0.33048 0.25623 0.16449 0.0
O376 O 0.31713 0.2707 0.16106 0.0
H377 H 0.32003 0.3068 0.13393 0.0
H378 H 0.37008 0.30918 0.17585 0.0
N379 N 0.38722 0.27942 0.14052 0.0
N380 N 0.41889 0.26953 0.15039 0.0
C381 C 0.39808 0.26524 0.15058 0.0
C382 C 0.40154 0.29325 0.13364 0.0
C383 C 0.42113 0.28717 0.13966 0.0
C384 C 0.33102 0.27456 0.1036 0.0
O385 O 0.31767 0.26717 0.11723 0.0
H386 H 0.39075 0.25199 0.15787 0.0
H387 H 0.39796 0.30693 0.12515 0.0
O388 O 0.34782 0.25648 0.15484 0.0
H389 H 0.34274 0.33658 0.18794 0.0
H390 H 0.43578 0.29538 0.13676 0.0
Cu391 Cu 0.38587 0.73095 0.85657 0.0
N392 N 0.39351 0.71761 0.83221 0.0
N393 N 0.4004 0.71551 0.7984 0.0
C394 C 0.39902 0.72795 0.81509 0.0
C395 C 0.3956 0.69645 0.80528 0.0
C396 C 0.3915 0.69778 0.82628 0.0
O397 O 0.40395 0.75547 0.85831 0.0
C398 C 0.34419 0.72055 0.8541 0.0
O399 O 0.35255 0.70247 0.85567 0.0
H400 H 0.40038 0.74454 0.81457 0.0
H401 H 0.38627 0.68537 0.83619 0.0
N402 N 0.38887 0.71479 0.88012 0.0
N403 N 0.37967 0.70004 0.90994 0.0
C404 C 0.37525 0.71448 0.89594 0.0
C405 C 0.40258 0.7001 0.88433 0.0
C406 C 0.39699 0.69105 0.90287 0.0
C407 C 0.42343 0.75204 0.85899 0.0
O408 O 0.42921 0.73294 0.86039 0.0
H409 H 0.36185 0.72419 0.89678 0.0
H410 H 0.41517 0.6957 0.87424 0.0
O411 O 0.35625 0.73649 0.85394 0.0
H412 H 0.3943 0.68275 0.79569 0.0
H413 H 0.40437 0.67815 0.90999 0.0
Cu414 Cu 0.23419 0.35981 0.8743 0.0
N415 N 0.22014 0.33491 0.86898 0.0
N416 N 0.2207 0.30241 0.85765 0.0
C417 C 0.23034 0.31722 0.86927 0.0
C418 C 0.2035 0.3111 0.84989 0.0
C419 C 0.20322 0.33121 0.85688 0.0
O420 O 0.2505 0.35638 0.89952 0.0
C421 C 0.24203 0.36721 0.8328 0.0
O422 O 0.2236 0.37542 0.83395 0.0
H423 H 0.24596 0.31613 0.87561 0.0
H424 H 0.19281 0.34285 0.85162 0.0
N425 N 0.21553 0.3813 0.87702 0.0
N426 N 0.20033 0.41129 0.87156 0.0
C427 C 0.2181 0.40065 0.87005 0.0
C428 C 0.19566 0.37978 0.88369 0.0
C429 C 0.18626 0.39821 0.88038 0.0
C430 C 0.24054 0.34983 0.9153 0.0
O431 O 0.22012 0.34717 0.9139 0.0
H432 H 0.23243 0.40636 0.86299 0.0
H433 H 0.18819 0.36588 0.88949 0.0
O434 O 0.25115 0.36223 0.8495 0.0
H435 H 0.19283 0.30398 0.8387 0.0
H436 H 0.16994 0.40122 0.88302 0.0
Cu437 Cu 0.60015 0.27778 0.86182 0.0
N438 N 0.5864 0.28952 0.83956 0.0
N439 N 0.57476 0.29128 0.80708 0.0
C440 C 0.58089 0.27891 0.82236 0.0
C441 C 0.57641 0.31052 0.81494 0.0
C442 C 0.58332 0.30937 0.8352 0.0
O443 O 0.58394 0.25304 0.86868 0.0
C444 C 0.63822 0.28539 0.84249 0.0
O445 O 0.62861 0.30214 0.83751 0.0
H446 H 0.5831 0.26259 0.8205 0.0
H447 H 0.58737 0.32215 0.84544 0.0
N448 N 0.60273 0.29579 0.88437 0.0
N449 N 0.61822 0.31337 0.91039 0.0
C450 C 0.62069 0.29974 0.89479 0.0
C451 C 0.58834 0.30737 0.8936 0.0
C452 C 0.59785 0.31817 0.90978 0.0
C453 C 0.56436 0.25496 0.87124 0.0
O454 O 0.55682 0.27347 0.87092 0.0
H455 H 0.63523 0.29249 0.89117 0.0
H456 H 0.57215 0.30803 0.88886 0.0
O457 O 0.62854 0.27182 0.85318 0.0
H458 H 0.57394 0.3244 0.8063 0.0
H459 H 0.59043 0.32891 0.92009 0.0
Cu460 Cu 0.76373 0.63405 0.87351 0.0
N461 N 0.73817 0.64316 0.86416 0.0
N462 N 0.71388 0.66625 0.85814 0.0
C463 C 0.7301 0.66106 0.87018 0.0
C464 C 0.71158 0.65092 0.844 0.0
C465 C 0.72661 0.63664 0.84779 0.0
O466 O 0.76492 0.64142 0.90265 0.0
C467 C 0.80195 0.64263 0.85076 0.0
O468 O 0.80924 0.62543 0.85785 0.0
H469 H 0.73714 0.67092 0.88205 0.0
H470 H 0.72977 0.62321 0.83847 0.0
N471 N 0.76535 0.60564 0.86996 0.0
N472 N 0.77317 0.57478 0.85715 0.0
C473 C 0.77264 0.59517 0.85352 0.0
C474 C 0.76084 0.59144 0.88434 0.0
C475 C 0.76562 0.57242 0.87652 0.0
C476 C 0.77312 0.65814 0.90966 0.0
O477 O 0.78382 0.67025 0.89716 0.0
H478 H 0.77779 0.60242 0.83935 0.0
H479 H 0.75509 0.5948 0.8997 0.0
O480 O 0.78428 0.64869 0.85685 0.0
H481 H 0.7005 0.65055 0.83128 0.0
H482 H 0.76444 0.5581 0.88484 0.0
Cu483 Cu 0.65885 0.72081 0.13302 0.0
N484 N 0.66607 0.69444 0.14029 0.0
N485 N 0.68612 0.67011 0.15303 0.0
C486 C 0.68175 0.69022 0.15333 0.0
C487 C 0.67258 0.6613 0.13925 0.0
C488 C 0.66022 0.67639 0.13139 0.0
O489 O 0.67063 0.72554 0.10588 0.0
C490 C 0.66938 0.75838 0.15512 0.0
O491 O 0.66103 0.76811 0.13957 0.0
H492 H 0.69076 0.70195 0.16174 0.0
H493 H 0.64864 0.6745 0.11922 0.0
N494 N 0.62981 0.72306 0.1323 0.0
N495 N 0.59809 0.73556 0.13738 0.0
C496 C 0.61877 0.73796 0.14126 0.0
C497 C 0.61561 0.71073 0.12247 0.0
C498 C 0.59598 0.71836 0.12566 0.0
C499 C 0.69031 0.72737 0.10333 0.0
O500 O 0.70262 0.72856 0.11967 0.0
H501 H 0.62567 0.75027 0.15059 0.0
H502 H 0.61929 0.69731 0.11337 0.0
O503 O 0.67047 0.73895 0.15436 0.0
H504 H 0.67213 0.64527 0.13466 0.0
H505 H 0.58138 0.71208 0.11939 0.0
Cu506 Cu 0.21017 0.65512 0.12925 0.0
N507 N 0.1853 0.66907 0.12697 0.0
N508 N 0.15851 0.68856 0.13568 0.0
C509 C 0.17697 0.68099 0.14171 0.0
C510 C 0.15522 0.68118 0.11628 0.0
C511 C 0.17177 0.66913 0.11097 0.0
O512 O 0.20494 0.63051 0.14522 0.0
C513 C 0.24881 0.66726 0.14777 0.0
O514 O 0.25472 0.64907 0.14161 0.0
H515 H 0.18443 0.68411 0.15652 0.0
H516 H 0.17368 0.66082 0.09655 0.0
N517 N 0.21969 0.64813 0.10294 0.0
N518 N 0.23779 0.64783 0.07344 0.0
C519 C 0.23643 0.65593 0.09272 0.0
C520 C 0.21028 0.6346 0.08978 0.0
C521 C 0.22135 0.63443 0.07154 0.0
C522 C 0.2017 0.6319 0.1646 0.0
O523 O 0.20239 0.65013 0.17351 0.0
H524 H 0.24705 0.66766 0.09906 0.0
H525 H 0.19616 0.62571 0.09317 0.0
O526 O 0.2304 0.67281 0.14363 0.0
H527 H 0.14163 0.68388 0.10678 0.0
H528 H 0.21764 0.62514 0.05794 0.0
Cu529 Cu 0.80829 0.34727 0.1116 0.0
N530 N 0.83382 0.33443 0.11128 0.0
N531 N 0.86 0.31624 0.12371 0.0
C532 C 0.84245 0.32632 0.12818 0.0
C533 C 0.86249 0.31809 0.10304 0.0
C534 C 0.84628 0.32939 0.09539 0.0
O535 O 0.8105 0.36921 0.13211 0.0
C536 C 0.76876 0.32953 0.12352 0.0
O537 O 0.76138 0.34795 0.12114 0.0
H538 H 0.83534 0.32703 0.14335 0.0
H539 H 0.84345 0.33312 0.07937 0.0
N540 N 0.80105 0.35628 0.08522 0.0
N541 N 0.7825 0.36005 0.05619 0.0
C542 C 0.78295 0.35177 0.07523 0.0
C543 C 0.81257 0.36772 0.07199 0.0
C544 C 0.80116 0.37004 0.05399 0.0
C545 C 0.80561 0.38779 0.12965 0.0
O546 O 0.79749 0.39344 0.11197 0.0
H547 H 0.77054 0.34212 0.08154 0.0
H548 H 0.82819 0.37383 0.07518 0.0
O549 O 0.78805 0.3266 0.12044 0.0
H550 H 0.87493 0.31155 0.09406 0.0
H551 H 0.80614 0.3785 0.04045 0.0
C552 C 0.1963 0.59373 0.16772 0.0
C553 C 0.19652 0.61339 0.17691 0.0
C554 C 0.19078 0.57637 0.17928 0.0
C555 C 0.18478 0.55799 0.23327 0.0
H556 H 0.14878 0.51589 0.20768 0.0
C557 C 0.14204 0.49395 0.27985 0.0
C558 C 0.14117 0.47409 0.2711 0.0
C559 C 0.15008 0.5106 0.26856 0.0
C560 C 0.15904 0.52739 0.21498 0.0
H561 H 0.19125 0.63017 0.20551 0.0
H562 H 0.18133 0.59999 0.22553 0.0
H563 H 0.16048 0.54546 0.18754 0.0
H564 H 0.14814 0.45625 0.24355 0.0
H565 H 0.16236 0.48519 0.22404 0.0
H566 H 0.18304 0.53999 0.26082 0.0
C567 C 0.18574 0.59792 0.20949 0.0
C568 C 0.16579 0.54434 0.20342 0.0
C569 C 0.19132 0.61526 0.19796 0.0
C570 C 0.14877 0.47126 0.25089 0.0
C571 C 0.15671 0.4879 0.23959 0.0
C572 C 0.17797 0.54106 0.24485 0.0
C573 C 0.1853 0.57826 0.20028 0.0
C574 C 0.17868 0.5599 0.21244 0.0
C575 C 0.15732 0.50779 0.24822 0.0
C576 C 0.16497 0.5256 0.23585 0.0
H577 H 0.20032 0.59174 0.15156 0.0
H578 H 0.1909 0.56144 0.17177 0.0
H579 H 0.19496 0.56953 0.24061 0.0
H580 H 0.13649 0.49663 0.29542 0.0
H581 H 0.15019 0.52576 0.2756 0.0
C582 C 0.55655 0.17983 0.24283 0.0
C583 C 0.56406 0.16267 0.23216 0.0
C584 C 0.54021 0.19101 0.23457 0.0
C585 C 0.5141 0.20128 0.1846 0.0
H586 H 0.472 0.2253 0.21952 0.0
C587 C 0.45592 0.2596 0.1531 0.0
C588 C 0.4351 0.25788 0.15998 0.0
C589 C 0.47152 0.24809 0.16224 0.0
C590 C 0.48353 0.21858 0.20951 0.0
H591 H 0.55971 0.14335 0.20482 0.0
H592 H 0.53099 0.16253 0.19069 0.0
H593 H 0.49853 0.20413 0.23496 0.0
H594 H 0.41461 0.24285 0.18231 0.0
H595 H 0.44157 0.22247 0.19775 0.0
H596 H 0.49883 0.21528 0.15909 0.0
C597 C 0.53803 0.16767 0.20519 0.0
C598 C 0.49891 0.20662 0.21841 0.0
C599 C 0.55441 0.15656 0.21339 0.0
C600 C 0.43035 0.24443 0.17635 0.0
C601 C 0.44593 0.2329 0.18544 0.0
C602 C 0.49871 0.21319 0.1757 0.0
C603 C 0.53094 0.18524 0.21549 0.0
C604 C 0.51438 0.1978 0.20607 0.0
C605 C 0.46671 0.23453 0.17849 0.0
C606 C 0.48322 0.222 0.18803 0.0
H607 H 0.56368 0.18501 0.25727 0.0
H608 H 0.5353 0.20455 0.24285 0.0
H609 H 0.52593 0.195 0.17464 0.0
H610 H 0.46018 0.26965 0.14047 0.0
H611 H 0.48741 0.24994 0.15665 0.0
C612 C 0.81902 0.39689 0.1652 0.0
C613 C 0.81037 0.40311 0.1463 0.0
C614 C 0.8248 0.41133 0.18047 0.0
C615 C 0.81771 0.46511 0.19768 0.0
H616 H 0.87104 0.45812 0.22509 0.0
C617 C 0.85949 0.52961 0.24583 0.0
C618 C 0.87035 0.52418 0.26386 0.0
C619 C 0.85072 0.51452 0.23262 0.0
C620 C 0.85596 0.46016 0.21784 0.0
H621 H 0.80057 0.42943 0.12889 0.0
H622 H 0.81086 0.45469 0.15551 0.0
H623 H 0.85833 0.43254 0.19995 0.0
H624 H 0.87984 0.49853 0.2824 0.0
H625 H 0.8645 0.47217 0.25936 0.0
H626 H 0.8155 0.49289 0.21545 0.0
C627 C 0.81298 0.43859 0.15857 0.0
C628 C 0.84866 0.44548 0.20339 0.0
C629 C 0.80716 0.4241 0.14327 0.0
C630 C 0.87185 0.50325 0.26852 0.0
C631 C 0.86307 0.48814 0.25529 0.0
C632 C 0.82502 0.47981 0.21215 0.0
C633 C 0.82212 0.43239 0.17726 0.0
C634 C 0.82949 0.44781 0.19305 0.0
C635 C 0.85258 0.49359 0.23706 0.0
C636 C 0.84429 0.47756 0.22233 0.0
H637 H 0.82159 0.38083 0.16815 0.0
H638 H 0.83145 0.40599 0.19481 0.0
H639 H 0.80275 0.46723 0.19022 0.0
H640 H 0.8583 0.54552 0.2415 0.0
H641 H 0.84305 0.51928 0.21856 0.0
C642 C 0.56163 0.74138 0.14798 0.0
C643 C 0.58189 0.74911 0.14374 0.0
C644 C 0.54598 0.75458 0.15426 0.0
C645 C 0.53814 0.80737 0.17516 0.0
H646 H 0.48099 0.79635 0.15697 0.0
C647 C 0.47119 0.86499 0.18487 0.0
C648 C 0.4523 0.85674 0.19271 0.0
C649 C 0.48741 0.85209 0.17939 0.0
C650 C 0.49687 0.79954 0.16227 0.0
H651 H 0.60151 0.77676 0.14224 0.0
H652 H 0.57419 0.79986 0.15258 0.0
H653 H 0.50836 0.77345 0.14613 0.0
H654 H 0.43549 0.82849 0.20067 0.0
H655 H 0.46371 0.80604 0.19102 0.0
H656 H 0.52652 0.83382 0.19087 0.0
C657 C 0.57044 0.78356 0.15174 0.0
C658 C 0.51257 0.78636 0.15616 0.0
C659 C 0.58613 0.77032 0.14573 0.0
C660 C 0.44997 0.83535 0.19498 0.0
C661 C 0.46603 0.82247 0.18924 0.0
C662 C 0.52245 0.8207 0.18105 0.0
C663 C 0.55015 0.77588 0.15615 0.0
C664 C 0.53342 0.79002 0.16259 0.0
C665 C 0.48488 0.83068 0.18131 0.0
C666 C 0.50165 0.81685 0.17476 0.0
H667 H 0.558 0.72507 0.1468 0.0
H668 H 0.53068 0.74801 0.15788 0.0
H669 H 0.55391 0.81054 0.18075 0.0
H670 H 0.47337 0.88141 0.183 0.0
H671 H 0.50176 0.85881 0.17321 0.0
C672 C 0.20789 0.43846 0.84574 0.0
C673 C 0.19609 0.43098 0.86257 0.0
C674 C 0.20254 0.45655 0.83582 0.0
C675 C 0.17094 0.5033 0.8413 0.0
H676 H 0.17264 0.5025 0.78129 0.0
C677 C 0.15075 0.57422 0.79225 0.0
C678 C 0.13859 0.57044 0.77432 0.0
C679 C 0.15906 0.55796 0.80329 0.0
C680 C 0.17195 0.50297 0.79804 0.0
H681 H 0.16993 0.43735 0.88265 0.0
H682 H 0.16035 0.46862 0.86511 0.0
H683 H 0.18461 0.47311 0.80042 0.0
H684 H 0.12612 0.54645 0.75379 0.0
H685 H 0.14016 0.51823 0.77318 0.0
H686 H 0.15761 0.53293 0.83883 0.0
C687 C 0.17386 0.46057 0.85966 0.0
C688 C 0.1791 0.48619 0.80905 0.0
C689 C 0.17922 0.44248 0.86961 0.0
C690 C 0.13516 0.54999 0.76764 0.0
C691 C 0.14346 0.53377 0.77864 0.0
C692 C 0.16378 0.52011 0.83027 0.0
C693 C 0.18524 0.46767 0.84242 0.0
C694 C 0.17855 0.48605 0.83083 0.0
C695 C 0.15549 0.53751 0.79665 0.0
C696 C 0.16401 0.52007 0.80848 0.0
H697 H 0.22086 0.43002 0.83971 0.0
H698 H 0.21187 0.46171 0.8228 0.0
H699 H 0.17048 0.50383 0.85806 0.0
H700 H 0.15359 0.58972 0.79798 0.0
H701 H 0.16841 0.56143 0.81698 0.0
C702 C 0.55687 0.21673 0.86972 0.0
C703 C 0.54975 0.23683 0.87184 0.0
C704 C 0.54257 0.19999 0.86821 0.0
C705 C 0.48607 0.1854 0.87593 0.0
H706 H 0.49646 0.14364 0.83435 0.0
C707 C 0.42041 0.13541 0.83826 0.0
C708 C 0.42338 0.11419 0.83653 0.0
C709 C 0.43675 0.1487 0.84475 0.0
C710 C 0.49347 0.15506 0.8462 0.0
H711 H 0.52201 0.255 0.87463 0.0
H712 H 0.49735 0.22619 0.8716 0.0
H713 H 0.52359 0.16981 0.84237 0.0
H714 H 0.44584 0.09029 0.84003 0.0
H715 H 0.47471 0.11371 0.85104 0.0
H716 H 0.4556 0.17115 0.87902 0.0
C717 C 0.51389 0.22312 0.87147 0.0
C718 C 0.50904 0.17002 0.85088 0.0
C719 C 0.5281 0.23974 0.87306 0.0
C720 C 0.44311 0.10656 0.84134 0.0
C721 C 0.45962 0.11994 0.84752 0.0
C722 C 0.47046 0.17063 0.87106 0.0
C723 C 0.52086 0.20302 0.86877 0.0
C724 C 0.50537 0.18566 0.86551 0.0
C725 C 0.45654 0.14114 0.84939 0.0
C726 C 0.47386 0.15554 0.85588 0.0
H727 H 0.57345 0.21396 0.86875 0.0
H728 H 0.54853 0.18472 0.86642 0.0
H729 H 0.48283 0.19686 0.88766 0.0
H730 H 0.40532 0.14169 0.83488 0.0
H731 H 0.43398 0.16499 0.84588 0.0
C732 C 0.77541 0.5383 0.84654 0.0
C733 C 0.78171 0.55899 0.84407 0.0
C734 C 0.78456 0.52282 0.83486 0.0
C735 C 0.8324 0.51173 0.80529 0.0
H736 H 0.79951 0.46399 0.78669 0.0
C737 C 0.86783 0.44529 0.75745 0.0
C738 C 0.86192 0.4253 0.76361 0.0
C739 C 0.85774 0.46235 0.76561 0.0
C740 C 0.80895 0.47716 0.79189 0.0
H741 H 0.80252 0.57955 0.82701 0.0
H742 H 0.81818 0.55258 0.80633 0.0
H743 H 0.78222 0.49245 0.8035 0.0
H744 H 0.84061 0.40763 0.78311 0.0
H745 H 0.82316 0.43723 0.79729 0.0
H746 H 0.85915 0.4963 0.79377 0.0
C747 C 0.8063 0.54832 0.81754 0.0
C748 C 0.79903 0.49349 0.80156 0.0
C749 C 0.79712 0.56383 0.82923 0.0
C750 C 0.84559 0.42278 0.77798 0.0
C751 C 0.83545 0.43977 0.78603 0.0
C752 C 0.84231 0.49541 0.79555 0.0
C753 C 0.80026 0.52758 0.82033 0.0
C754 C 0.81065 0.51087 0.80867 0.0
C755 C 0.8414 0.45977 0.77999 0.0
C756 C 0.83074 0.47778 0.78902 0.0
H757 H 0.76344 0.53399 0.85761 0.0
H758 H 0.77965 0.50703 0.83763 0.0
H759 H 0.8419 0.52474 0.81078 0.0
H760 H 0.88033 0.4478 0.7464 0.0
H761 H 0.86259 0.47754 0.76052 0.0
C762 C 0.55876 0.87684 0.79907 0.0
C763 C 0.57654 0.86546 0.79447 0.0
C764 C 0.54044 0.86699 0.8063 0.0
C765 C 0.52448 0.82367 0.83714 0.0
H766 H 0.46964 0.82468 0.81141 0.0
C767 C 0.46078 0.76359 0.85608 0.0
C768 C 0.43955 0.76845 0.85535 0.0
C769 C 0.47627 0.77792 0.85037 0.0
C770 C 0.48473 0.82459 0.81908 0.0
H771 H 0.58876 0.83478 0.79321 0.0
H772 H 0.55701 0.81779 0.80623 0.0
H773 H 0.49879 0.84512 0.79687 0.0
H774 H 0.41798 0.79253 0.84869 0.0
H775 H 0.44526 0.81793 0.8391 0.0
H776 H 0.51074 0.80351 0.85948 0.0
C777 C 0.55725 0.83427 0.80411 0.0
C778 C 0.5014 0.83619 0.81065 0.0
C779 C 0.57536 0.84401 0.79654 0.0
C780 C 0.43421 0.78833 0.84945 0.0
C781 C 0.44983 0.8028 0.84378 0.0
C782 C 0.50782 0.8124 0.84575 0.0
C783 C 0.53978 0.84569 0.80942 0.0
C784 C 0.52152 0.83532 0.8193 0.0
C785 C 0.47107 0.79765 0.84392 0.0
C786 C 0.48786 0.81216 0.83648 0.0
H787 H 0.55919 0.89339 0.79762 0.0
H788 H 0.52713 0.87608 0.8103 0.0
H789 H 0.5398 0.82308 0.8443 0.0
H790 H 0.46551 0.74843 0.86049 0.0
H791 H 0.49234 0.77315 0.85032 0.0
C792 C 0.18694 0.19322 0.57733 0.0
C793 C 0.19923 0.20276 0.59299 0.0
C794 C 0.19602 0.18686 0.55877 0.0
C795 C 0.24153 0.19548 0.52485 0.0
H796 H 0.22612 0.14134 0.50329 0.0
C797 C 0.27984 0.16166 0.451 0.0
C798 C 0.26647 0.15048 0.43737 0.0
C799 C 0.27281 0.16768 0.47064 0.0
C800 C 0.23045 0.1566 0.50892 0.0
H801 H 0.23069 0.21345 0.6012 0.0
H802 H 0.24648 0.20252 0.56865 0.0
H803 H 0.21125 0.15303 0.53582 0.0
H804 H 0.23518 0.13695 0.43376 0.0
H805 H 0.22293 0.14771 0.46749 0.0
H806 H 0.26038 0.19926 0.49772 0.0
C807 C 0.22981 0.19995 0.5708 0.0
C808 C 0.22192 0.16328 0.52762 0.0
C809 C 0.22077 0.20612 0.58948 0.0
C810 C 0.24601 0.14539 0.44387 0.0
C811 C 0.23898 0.15148 0.46336 0.0
C812 C 0.24994 0.18887 0.50602 0.0
C813 C 0.21757 0.19006 0.55532 0.0
C814 C 0.22721 0.18285 0.53572 0.0
C815 C 0.25225 0.16271 0.47704 0.0
C816 C 0.24434 0.1694 0.49769 0.0
H817 H 0.17031 0.19039 0.57951 0.0
H818 H 0.18612 0.17952 0.54703 0.0
H819 H 0.2458 0.21071 0.53063 0.0
H820 H 0.2957 0.16582 0.4465 0.0
H821 H 0.28355 0.17612 0.48084 0.0
C822 C 0.75379 0.17178 0.54991 0.0
C823 C 0.74154 0.15346 0.54987 0.0
C824 C 0.76897 0.1753 0.53472 0.0
C825 C 0.78299 0.15967 0.48176 0.0
H826 H 0.83669 0.18586 0.49536 0.0
C827 C 0.8376 0.19284 0.41918 0.0
C828 C 0.85914 0.18942 0.42093 0.0
C829 C 0.82399 0.18782 0.43531 0.0
C830 C 0.82184 0.17838 0.49134 0.0
H831 H 0.73611 0.12427 0.53399 0.0
H832 H 0.76246 0.13046 0.50745 0.0
H833 H 0.81178 0.17783 0.52296 0.0
H834 H 0.88325 0.17817 0.44112 0.0
H835 H 0.85935 0.16923 0.46941 0.0
H836 H 0.79302 0.1601 0.4502 0.0
C837 C 0.76012 0.14222 0.51911 0.0
C838 C 0.80748 0.17398 0.50712 0.0
C839 C 0.74497 0.13869 0.53432 0.0
C840 C 0.86674 0.18091 0.43929 0.0
C841 C 0.85309 0.17594 0.45553 0.0
C842 C 0.79728 0.16413 0.46601 0.0
C843 C 0.77224 0.1606 0.51908 0.0
C844 C 0.78784 0.16468 0.50248 0.0
C845 C 0.83153 0.17923 0.45364 0.0
C846 C 0.8168 0.1737 0.47059 0.0
H847 H 0.75141 0.18364 0.56143 0.0
H848 H 0.77781 0.18976 0.53495 0.0
H849 H 0.76794 0.15267 0.47762 0.0
H850 H 0.83111 0.19904 0.40516 0.0
H851 H 0.80752 0.19077 0.43345 0.0
C852 C 0.75901 0.83783 0.44921 0.0
C853 C 0.74456 0.82567 0.4376 0.0
C854 C 0.76746 0.83052 0.46758 0.0
C855 C 0.75996 0.79553 0.5104 0.0
H856 H 0.82057 0.79507 0.51226 0.0
C857 C 0.80377 0.76221 0.5805 0.0
C858 C 0.82251 0.77235 0.58673 0.0
C859 C 0.79413 0.76707 0.56174 0.0
C860 C 0.80365 0.79534 0.51223 0.0
H861 H 0.72686 0.79673 0.43679 0.0
H862 H 0.74123 0.78423 0.46943 0.0
H863 H 0.80305 0.80775 0.48164 0.0
H864 H 0.84589 0.79548 0.57807 0.0
H865 H 0.82886 0.80449 0.54596 0.0
H866 H 0.76043 0.78399 0.54128 0.0
C867 C 0.74615 0.79929 0.46402 0.0
C868 C 0.79364 0.80251 0.49459 0.0
C869 C 0.73796 0.80645 0.44537 0.0
C870 C 0.83158 0.7872 0.57364 0.0
C871 C 0.8218 0.7923 0.55509 0.0
C872 C 0.76999 0.7887 0.52826 0.0
C873 C 0.76137 0.81106 0.47499 0.0
C874 C 0.77173 0.80282 0.49356 0.0
C875 C 0.80284 0.78244 0.54891 0.0
C876 C 0.79202 0.78865 0.5295 0.0
H877 H 0.76452 0.85267 0.44367 0.0
H878 H 0.77904 0.83995 0.47588 0.0
H879 H 0.74303 0.79569 0.50999 0.0
H880 H 0.79643 0.75062 0.59021 0.0
H881 H 0.7798 0.75882 0.55739 0.0
C882 C 0.14187 0.851 0.41502 0.0
C883 C 0.13864 0.83091 0.40727 0.0
C884 C 0.15716 0.8553 0.43013 0.0
C885 C 0.18789 0.83205 0.47126 0.0
H886 H 0.22727 0.8775 0.46212 0.0
C887 C 0.26017 0.84591 0.52401 0.0
C888 C 0.2665 0.8663 0.52857 0.0
C889 C 0.24474 0.84154 0.50906 0.0
C890 C 0.21625 0.86495 0.46513 0.0
H891 H 0.1484 0.79951 0.4097 0.0
H892 H 0.17496 0.80698 0.43634 0.0
H893 H 0.19936 0.87021 0.43705 0.0
H894 H 0.26146 0.8981 0.52121 0.0
H895 H 0.23421 0.89062 0.49554 0.0
H896 H 0.20435 0.82699 0.49953 0.0
C897 C 0.16575 0.81939 0.43062 0.0
C898 C 0.20028 0.86075 0.4507 0.0
C899 C 0.15066 0.81514 0.4153 0.0
C900 C 0.25714 0.88223 0.5178 0.0
C901 C 0.24152 0.8779 0.50303 0.0
C902 C 0.20369 0.8364 0.48584 0.0
C903 C 0.16932 0.83956 0.43801 0.0
C904 C 0.18599 0.84422 0.45358 0.0
C905 C 0.23505 0.85748 0.49848 0.0
C906 C 0.21815 0.85287 0.48295 0.0
H907 H 0.13299 0.86348 0.40899 0.0
H908 H 0.15948 0.87096 0.43566 0.0
H909 H 0.17695 0.81934 0.47398 0.0
H910 H 0.2673 0.83332 0.53191 0.0
H911 H 0.24054 0.82562 0.50571 0.0
C912 C 0.64452 0.98091 0.75189 0.0
C913 C 0.64224 0.98353 0.7734 0.0
C914 C 0.65166 0.99717 0.73957 0.0
C915 C 0.68068 0.04716 0.74199 0.0
H916 H 0.65434 0.05571 0.68873 0.0
C917 C 0.6957 0.12058 0.69389 0.0
C918 C 0.69667 0.11851 0.67222 0.0
C919 C 0.69017 0.10375 0.7062 0.0
C920 C 0.66209 0.05338 0.70342 0.0
H921 H 0.64587 0.00542 0.79879 0.0
H922 H 0.658 0.03389 0.77725 0.0
H923 H 0.64221 0.02732 0.71027 0.0
H924 H 0.69318 0.0969 0.64656 0.0
H925 H 0.68381 0.06749 0.66805 0.0
H926 H 0.70052 0.07329 0.73515 0.0
C927 C 0.65445 0.01915 0.76994 0.0
C928 C 0.65509 0.0371 0.7158 0.0
C929 C 0.64725 0.00288 0.78227 0.0
C930 C 0.6925 0.09907 0.66319 0.0
C931 C 0.68698 0.08223 0.67551 0.0
C932 C 0.6877 0.06344 0.72959 0.0
C933 C 0.65673 0.0165 0.74844 0.0
C934 C 0.66427 0.0338 0.73526 0.0
C935 C 0.68549 0.08442 0.69715 0.0
C936 C 0.67845 0.06678 0.71016 0.0
H937 H 0.64059 0.96633 0.74446 0.0
H938 H 0.65342 0.99453 0.72309 0.0
H939 H 0.68832 0.04487 0.75675 0.0
H940 H 0.69877 0.13533 0.70136 0.0
H941 H 0.68897 0.10605 0.72278 0.0
C942 C 0.93686 0.74215 0.67097 0.0
C943 C 0.93913 0.7617 0.66212 0.0
C944 C 0.95356 0.7335 0.68145 0.0
C945 C 0.01146 0.73845 0.68725 0.0
H946 H 0.00169 0.70361 0.73481 0.0
C947 C 0.07914 0.70996 0.7371 0.0
C948 C 0.07903 0.68871 0.74066 0.0
C949 C 0.06146 0.71917 0.72908 0.0
C950 C 0.00461 0.71324 0.72149 0.0
H951 H 0.96045 0.78775 0.65782 0.0
H952 H 0.98943 0.77302 0.67656 0.0
H953 H 0.97215 0.7194 0.71778 0.0
H954 H 0.05988 0.66063 0.7395 0.0
H955 H 0.02884 0.67686 0.72576 0.0
H956 H 0.04395 0.73253 0.69123 0.0
C957 C 0.97498 0.76402 0.67492 0.0
C958 C 0.98769 0.72223 0.71165 0.0
C959 C 0.95836 0.77254 0.66422 0.0
C960 C 0.06049 0.67704 0.73692 0.0
C961 C 0.0427 0.68632 0.7291 0.0
C962 C 0.02834 0.72968 0.69724 0.0
C963 C 0.97289 0.7443 0.68354 0.0
C964 C 0.99088 0.73493 0.69434 0.0
C965 C 0.04318 0.7074 0.72465 0.0
C966 C 0.02512 0.71695 0.71444 0.0
H967 H 0.92231 0.73332 0.66936 0.0
H968 H 0.95141 0.71816 0.68751 0.0
H969 H 0.01456 0.74772 0.67372 0.0
H970 H 0.09312 0.71944 0.73982 0.0
H971 H 0.06219 0.7355 0.72606 0.0
C972 C 0.36107 0.02128 0.75731 0.0
C973 C 0.3566 0.04217 0.75559 0.0
C974 C 0.35674 0.00758 0.74098 0.0
C975 C 0.35413 0.98235 0.70157 0.0
H976 H 0.30087 0.98699 0.67343 0.0
C977 C 0.32697 0.92357 0.63887 0.0
C978 C 0.30581 0.91704 0.63915 0.0
C979 C 0.33403 0.94039 0.65089 0.0
C980 C 0.31575 0.9854 0.6812 0.0
H981 H 0.34477 0.0652 0.73499 0.0
H982 H 0.33745 0.04123 0.70623 0.0
H983 H 0.3124 0.01344 0.69829 0.0
H984 H 0.27541 0.92325 0.65214 0.0
H985 H 0.28779 0.95224 0.6735 0.0
H986 H 0.35709 0.95388 0.68531 0.0
C987 C 0.34404 0.03543 0.7204 0.0
C988 C 0.32252 1.00075 0.69525 0.0
C989 C 0.34841 0.0492 0.7368 0.0
C990 C 0.29181 0.92791 0.65152 0.0
C991 C 0.2989 0.94465 0.66367 0.0
C992 C 0.34734 0.96699 0.68762 0.0
C993 C 0.34785 0.01438 0.72243 0.0
C994 C 0.34164 0.99924 0.70588 0.0
C995 C 0.32015 0.95103 0.66364 0.0
C996 C 0.32792 0.96814 0.67745 0.0
H997 H 0.36737 0.01531 0.77154 0.0
H998 H 0.35963 0.99148 0.74327 0.0
H999 H 0.36909 0.98081 0.70924 0.0
H1000 H 0.33816 0.91567 0.62937 0.0
H1001 H 0.35042 0.94505 0.65016 0.0
C1002 C 0.06786 0.26007 0.64079 0.0
C1003 C 0.08609 0.255 0.65164 0.0
C1004 C 0.05272 0.27214 0.65008 0.0
C1005 C 0.03436 0.28934 0.70176 0.0
H1006 H 0.0034 0.32822 0.66967 0.0
C1007 C 0.97739 0.34571 0.73951 0.0
C1008 C 0.95786 0.34755 0.72974 0.0
C1009 C 0.99342 0.33517 0.72979 0.0
C1010 C 0.01181 0.31732 0.6788 0.0
H1011 H 0.10255 0.25914 0.68096 0.0
H1012 H 0.07666 0.28063 0.69677 0.0
H1013 H 0.03084 0.30881 0.6531 0.0
H1014 H 0.94009 0.34019 0.70185 0.0
H1015 H 0.96807 0.32176 0.68489 0.0
H1016 H 0.01541 0.29803 0.72749 0.0
C1017 C 0.07383 0.2749 0.68117 0.0
C1018 C 0.02753 0.30613 0.6693 0.0
C1019 C 0.0889 0.26273 0.67194 0.0
C1020 C 0.95487 0.33887 0.70988 0.0
C1021 C 0.97096 0.32849 0.70008 0.0
C1022 C 0.01876 0.30063 0.71128 0.0
C1023 C 0.05543 0.27961 0.67046 0.0
C1024 C 0.03897 0.29192 0.68063 0.0
C1025 C 0.99038 0.32637 0.71 0.0
C1026 C 0.00725 0.3147 0.6999 0.0
H1027 H 0.06515 0.25471 0.62507 0.0
H1028 H 0.03869 0.27524 0.64138 0.0
H1029 H 0.04251 0.27827 0.71093 0.0
H1030 H 0.98017 0.35205 0.75486 0.0
H1031 H 0.00826 0.33397 0.73777 0.0
C1032 C 0.72503 0.95233 0.3566 0.0
C1033 C 0.72164 0.9312 0.35278 0.0
C1034 C 0.7155 0.96686 0.34423 0.0
C1035 C 0.67042 0.97282 0.30908 0.0
H1036 H 0.69965 0.02366 0.29455 0.0
C1037 C 0.63394 0.03271 0.25521 0.0
C1038 C 0.63679 0.05349 0.26096 0.0
C1039 C 0.64476 0.01745 0.26546 0.0
C1040 C 0.6912 0.00962 0.29863 0.0
H1041 H 0.70564 0.90887 0.33267 0.0
H1042 H 0.68938 0.93419 0.31085 0.0
H1043 H 0.71797 0.99765 0.31376 0.0
H1044 H 0.65311 0.07436 0.28238 0.0
H1045 H 0.67193 0.04785 0.30015 0.0
H1046 H 0.6436 0.98486 0.29405 0.0
C1047 C 0.69924 0.93952 0.3236 0.0
C1048 C 0.70171 0.99469 0.30965 0.0
C1049 C 0.70879 0.92498 0.33598 0.0
C1050 C 0.65076 0.0586 0.27724 0.0
C1051 C 0.66159 0.04336 0.28746 0.0
C1052 C 0.65991 0.98774 0.29804 0.0
C1053 C 0.70232 0.96065 0.32769 0.0
C1054 C 0.69141 0.97616 0.31515 0.0
C1055 C 0.65873 0.02259 0.28171 0.0
C1056 C 0.67012 0.0064 0.29281 0.0
H1057 H 0.73499 0.95769 0.36925 0.0
H1058 H 0.71809 0.98298 0.34797 0.0
H1059 H 0.6619 0.95887 0.31332 0.0
H1060 H 0.62357 0.0282 0.24257 0.0
H1061 H 0.64239 0.00163 0.26045 0.0
C1062 C 0.95085 0.65663 0.27957 0.0
C1063 C 0.94595 0.6371 0.28755 0.0
C1064 C 0.96954 0.66701 0.28506 0.0
C1065 C 0.00748 0.67067 0.32756 0.0
H1066 H 0.03828 0.70601 0.28966 0.0
C1067 C 0.08067 0.73513 0.32592 0.0
C1068 C 0.07448 0.74771 0.34248 0.0
C1069 C 0.0682 0.71811 0.31971 0.0
C1070 C 0.0301 0.69598 0.30042 0.0
H1071 H 0.9573 0.61276 0.30689 0.0
H1072 H 0.98997 0.63094 0.31647 0.0
H1073 H 0.01074 0.68263 0.27637 0.0
H1074 H 0.05111 0.75149 0.36636 0.0
H1075 H 0.02947 0.72185 0.35559 0.0
H1076 H 0.02654 0.68436 0.35167 0.0
C1077 C 0.97923 0.63827 0.30609 0.0
C1078 C 0.01416 0.68274 0.29282 0.0
C1079 C 0.96057 0.62781 0.30049 0.0
C1080 C 0.0563 0.74215 0.35351 0.0
C1081 C 0.04393 0.72508 0.34739 0.0
C1082 C 0.02336 0.68398 0.33518 0.0
C1083 C 0.98375 0.65814 0.29874 0.0
C1084 C 0.00237 0.67026 0.30636 0.0
C1085 C 0.0494 0.71322 0.33004 0.0
C1086 C 0.03454 0.69711 0.32175 0.0
H1087 H 0.93995 0.66422 0.26956 0.0
H1088 H 0.97242 0.68239 0.27928 0.0
H1089 H 0.9986 0.66137 0.33844 0.0
H1090 H 0.09458 0.73898 0.31709 0.0
H1091 H 0.07296 0.70911 0.30645 0.0
C1092 C 0.37255 0.95072 0.25361 0.0
C1093 C 0.37109 0.92966 0.25808 0.0
C1094 C 0.36451 0.96521 0.26726 0.0
C1095 C 0.32484 0.97003 0.30802 0.0
H1096 H 0.35103 0.02405 0.3159 0.0
C1097 C 0.28872 0.03194 0.36062 0.0
C1098 C 0.28869 0.05203 0.35282 0.0
C1099 C 0.30014 0.01671 0.35078 0.0
C1100 C 0.34344 0.00908 0.31374 0.0
H1101 H 0.36071 0.90738 0.28086 0.0
H1102 H 0.34683 0.93276 0.30486 0.0
H1103 H 0.36918 0.99789 0.29629 0.0
H1104 H 0.3007 0.07167 0.32839 0.0
H1105 H 0.32058 0.04519 0.31132 0.0
H1106 H 0.29898 0.98132 0.32521 0.0
C1107 C 0.35397 0.93802 0.29061 0.0
C1108 C 0.35386 0.99407 0.30252 0.0
C1109 C 0.36208 0.92348 0.27693 0.0
C1110 C 0.30057 0.05651 0.33504 0.0
C1111 C 0.312 0.04129 0.32524 0.0
C1112 C 0.31444 0.98504 0.31926 0.0
C1113 C 0.35478 0.95904 0.28577 0.0
C1114 C 0.34457 0.97444 0.29926 0.0
C1115 C 0.31186 0.02117 0.33292 0.0
C1116 C 0.32348 0.00484 0.32203 0.0
H1117 H 0.37938 0.95604 0.23923 0.0
H1118 H 0.36521 0.98122 0.26289 0.0
H1119 H 0.31707 0.95519 0.30556 0.0
H1120 H 0.28007 0.02797 0.37445 0.0
H1121 H 0.29992 1.00145 0.35729 0.0
C1122 C 0.05115 0.37013 0.29884 0.0
C1123 C 0.0653 0.36017 0.28582 0.0
C1124 C 0.03277 0.35993 0.30538 0.0
C1125 C 0.01306 0.30748 0.31468 0.0
H1126 H 0.95922 0.33232 0.32198 0.0
C1127 C 0.94855 0.26631 0.36056 0.0
C1128 C 0.92878 0.26468 0.35102 0.0
C1129 C 0.96383 0.28016 0.35328 0.0
C1130 C 0.97416 0.32519 0.31997 0.0
H1131 H 0.07056 0.33218 0.26838 0.0
H1132 H 0.03851 0.31454 0.27962 0.0
H1133 H 0.98807 0.35202 0.30593 0.0
H1134 H 0.9091 0.27725 0.32716 0.0
H1135 H 0.93593 0.30147 0.31437 0.0
H1136 H 0.99933 0.28067 0.32848 0.0
C1137 C 0.04179 0.33008 0.2851 0.0
C1138 C 0.99068 0.33649 0.3109 0.0
C1139 C 0.06012 0.34025 0.27856 0.0
C1140 C 0.92417 0.27817 0.33488 0.0
C1141 C 0.93954 0.29205 0.32755 0.0
C1142 C 0.99666 0.29629 0.32381 0.0
C1143 C 0.02821 0.33957 0.29904 0.0
C1144 C 0.01031 0.32771 0.30812 0.0
C1145 C 0.95975 0.29268 0.33624 0.0
C1146 C 0.97704 0.30501 0.32666 0.0
H1147 H 0.05464 0.3855 0.30469 0.0
H1148 H 0.02268 0.36765 0.31618 0.0
H1149 H 0.02804 0.30035 0.31305 0.0
H1150 H 0.95253 0.25631 0.37318 0.0
H1151 H 0.97911 0.28062 0.36062 0.0
C1152 C 0.74928 0.65742 0.94024 0.0
C1153 C 0.76738 0.66551 0.93059 0.0
C1154 C 0.74221 0.66593 0.95876 0.0
C1155 C 0.75683 0.69319 0.00554 0.0
H1156 H 0.70038 0.71322 0.00475 0.0
C1157 C 0.72063 0.7293 0.07878 0.0
C1158 C 0.69936 0.72467 0.08243 0.0
C1159 C 0.72965 0.72455 0.05966 0.0
C1160 C 0.71606 0.70748 0.00542 0.0
H1161 H 0.7927 0.68831 0.93327 0.0
H1162 H 0.78064 0.70271 0.96628 0.0
H1163 H 0.7152 0.69886 0.97329 0.0
H1164 H 0.6708 0.71172 0.06876 0.0
H1165 H 0.68652 0.70275 0.03594 0.0
H1166 H 0.75747 0.70068 0.03785 0.0
C1167 C 0.77186 0.68999 0.95919 0.0
C1168 C 0.72457 0.69939 0.98731 0.0
C1169 C 0.77872 0.68176 0.94035 0.0
C1170 C 0.68719 0.71569 0.0664 0.0
C1171 C 0.69625 0.71063 0.04745 0.0
C1172 C 0.74818 0.7009 0.02382 0.0
C1173 C 0.75329 0.68241 0.96828 0.0
C1174 C 0.74493 0.692 0.98726 0.0
C1175 C 0.71769 0.71474 0.04385 0.0
C1176 C 0.72755 0.70795 0.02408 0.0
H1177 H 0.74008 0.64501 0.93308 0.0
H1178 H 0.72792 0.65975 0.96559 0.0
H1179 H 0.77256 0.68749 0.00586 0.0
H1180 H 0.7304 0.73631 0.0908 0.0
H1181 H 0.74607 0.72839 0.0574 0.0
C1182 C 0.24731 0.65281 0.03684 0.0
C1183 C 0.2531 0.6528 0.05782 0.0
C1184 C 0.26211 0.65731 0.02156 0.0
C1185 C 0.31554 0.68043 0.01354 0.0
H1186 H 0.3092 0.65327 0.96005 0.0
C1187 C 0.37575 0.68789 0.94593 0.0
C1188 C 0.36677 0.69382 0.92712 0.0
C1189 C 0.363 0.68218 0.96266 0.0
C1190 C 0.31114 0.66096 0.97492 0.0
H1191 H 0.27892 0.65736 0.07931 0.0
H1192 H 0.30505 0.66459 0.0526 0.0
H1193 H 0.28511 0.64438 0.9879 0.0
H1194 H 0.33756 0.69786 0.9108 0.0
H1195 H 0.31534 0.68752 0.93979 0.0
H1196 H 0.34197 0.69666 1.00038 0.0
C1197 C 0.28895 0.66165 0.04791 0.0
C1198 C 0.29725 0.65601 0.99088 0.0
C1199 C 0.27402 0.65745 0.06324 0.0
C1200 C 0.34487 0.6936 0.92521 0.0
C1201 C 0.33218 0.68753 0.94172 0.0
C1202 C 0.32967 0.68512 0.99763 0.0
C1203 C 0.2832 0.66157 0.02682 0.0
C1204 C 0.29897 0.66596 0.0103 0.0
C1205 C 0.3411 0.68185 0.96063 0.0
C1206 C 0.32736 0.67569 0.97808 0.0
H1207 H 0.23122 0.64964 0.03225 0.0
H1208 H 0.25687 0.65765 0.00561 0.0
H1209 H 0.31728 0.6886 0.02815 0.0
H1210 H 0.3926 0.68799 0.94775 0.0
H1211 H 0.37023 0.67779 0.97708 0.0
C1212 C 0.23984 0.33566 0.95111 0.0
C1213 C 0.2515 0.34372 0.93449 0.0
C1214 C 0.24977 0.32882 0.96891 0.0
C1215 C 0.30051 0.31109 0.98865 0.0
H1216 H 0.27392 0.3193 0.04184 0.0
C1217 C 0.3373 0.2894 0.06819 0.0
C1218 C 0.32357 0.28027 0.08267 0.0
C1219 C 0.32967 0.29693 0.04945 0.0
C1220 C 0.28146 0.31671 0.02709 0.0
H1221 H 0.28289 0.35108 0.92372 0.0
H1222 H 0.30034 0.3394 0.95512 0.0
H1223 H 0.25889 0.33405 0.01094 0.0
H1224 H 0.29116 0.27122 0.08833 0.0
H1225 H 0.27797 0.28428 0.05578 0.0
H1226 H 0.32321 0.29384 0.00508 0.0
C1227 C 0.28343 0.33814 0.95418 0.0
C1228 C 0.27283 0.32517 0.00933 0.0
C1229 C 0.27344 0.34498 0.93625 0.0
C1230 C 0.3022 0.27821 0.07763 0.0
C1231 C 0.29459 0.28584 0.05901 0.0
C1232 C 0.30924 0.30271 0.00652 0.0
C1233 C 0.2717 0.32992 0.97074 0.0
C1234 C 0.28201 0.3222 0.9898 0.0
C1235 C 0.30815 0.29564 0.04487 0.0
C1236 C 0.2996 0.30516 0.02589 0.0
H1237 H 0.22292 0.33431 0.9503 0.0
H1238 H 0.24019 0.32225 0.9811 0.0
H1239 H 0.30791 0.30832 0.97387 0.0
H1240 H 0.35386 0.29125 0.07157 0.0
H1241 H 0.34052 0.30443 0.0389 0.0
C1242 C 0.76969 0.35742 0.02 0.0
C1243 C 0.76563 0.35805 0.04136 0.0
C1244 C 0.75332 0.35429 0.00575 0.0
C1245 C 0.69842 0.33397 0.00258 0.0
H1246 H 0.69936 0.35971 0.94872 0.0
C1247 C 0.6289 0.32596 0.94526 0.0
C1248 C 0.6341 0.32076 0.92479 0.0
C1249 C 0.64453 0.332 0.9595 0.0
C1250 C 0.69894 0.35235 0.96368 0.0
H1251 H 0.74116 0.35691 0.06446 0.0
H1252 H 0.7126 0.35191 0.03972 0.0
H1253 H 0.7274 0.36771 0.97356 0.0
H1254 H 0.65965 0.31864 0.90298 0.0
H1255 H 0.68689 0.32917 0.92779 0.0
H1256 H 0.66989 0.31872 0.99271 0.0
C1257 C 0.72845 0.35317 0.03391 0.0
C1258 C 0.71505 0.35686 0.9779 0.0
C1259 C 0.74482 0.35609 0.04812 0.0
C1260 C 0.65518 0.32229 0.91871 0.0
C1261 C 0.67076 0.32853 0.93287 0.0
C1262 C 0.68225 0.32961 0.98844 0.0
C1263 C 0.73248 0.35192 0.01254 0.0
C1264 C 0.71507 0.34764 0.99751 0.0
C1265 C 0.66565 0.33321 0.95348 0.0
C1266 C 0.68239 0.33864 0.96879 0.0
H1267 H 0.78559 0.35869 0.01435 0.0
H1268 H 0.75708 0.35315 0.98946 0.0
H1269 H 0.69807 0.32624 0.01734 0.0
H1270 H 0.61283 0.32482 0.95043 0.0
H1271 H 0.6401 0.33569 0.97524 0.0
C1272 C 0.13306 0.32445 0.33968 0.0
C1273 C 0.14849 0.34025 0.3409 0.0
C1274 C 0.13799 0.30417 0.34381 0.0
C1275 C 0.15594 0.2622 0.33771 0.0
H1276 H 0.19673 0.24751 0.37909 0.0
C1277 C 0.19727 0.18477 0.33597 0.0
C1278 C 0.20231 0.17563 0.35487 0.0
C1279 C 0.18862 0.2042 0.33562 0.0
C1280 C 0.18509 0.25127 0.36763 0.0
H1281 H 0.18107 0.34727 0.34806 0.0
H1282 H 0.18983 0.31186 0.35505 0.0
H1283 H 0.1854 0.28279 0.37734 0.0
H1284 H 0.20118 0.17921 0.38824 0.0
H1285 H 0.18579 0.21298 0.38768 0.0
H1286 H 0.15545 0.23066 0.32815 0.0
C1287 C 0.17379 0.31514 0.3512 0.0
C1288 C 0.1788 0.27158 0.36646 0.0
C1289 C 0.16879 0.33547 0.3472 0.0
C1290 C 0.19774 0.186 0.37343 0.0
C1291 C 0.189 0.20538 0.3731 0.0
C1292 C 0.16217 0.24189 0.33893 0.0
C1293 C 0.15855 0.29918 0.34913 0.0
C1294 C 0.1643 0.27735 0.35134 0.0
C1295 C 0.18469 0.21489 0.35418 0.0
C1296 C 0.17701 0.23621 0.35374 0.0
H1297 H 0.1172 0.32774 0.33518 0.0
H1298 H 0.12575 0.29235 0.34253 0.0
H1299 H 0.14494 0.2661 0.3257 0.0
H1300 H 0.20086 0.17734 0.32141 0.0
H1301 H 0.18577 0.21116 0.32076 0.0
C1302 C 0.80927 0.218 0.32586 0.0
C1303 C 0.81849 0.20325 0.33839 0.0
C1304 C 0.78836 0.21538 0.31947 0.0
C1305 C 0.74899 0.17372 0.31087 0.0
H1306 H 0.70964 0.21743 0.30566 0.0
C1307 C 0.66492 0.15555 0.28463 0.0
C1308 C 0.65712 0.16812 0.26903 0.0
C1309 C 0.68298 0.16152 0.29566 0.0
C1310 C 0.7205 0.20509 0.30696 0.0
H1311 H 0.81268 0.17499 0.35521 0.0
H1312 H 0.7764 0.17066 0.34442 0.0
H1313 H 0.74463 0.22504 0.31991 0.0
H1314 H 0.66149 0.19738 0.25362 0.0
H1315 H 0.69315 0.20763 0.27267 0.0
H1316 H 0.72526 0.15382 0.29766 0.0
C1317 C 0.78535 0.18392 0.339 0.0
C1318 C 0.74053 0.20946 0.31507 0.0
C1319 C 0.80616 0.18646 0.34525 0.0
C1320 C 0.66708 0.18732 0.26554 0.0
C1321 C 0.68522 0.19325 0.27652 0.0
C1322 C 0.72908 0.16937 0.3028 0.0
C1323 C 0.77635 0.19803 0.3256 0.0
C1324 C 0.75497 0.19377 0.31716 0.0
C1325 C 0.69372 0.18013 0.29126 0.0
C1326 C 0.71456 0.18496 0.30075 0.0
H1327 H 0.8184 0.23112 0.32037 0.0
H1328 H 0.78189 0.22649 0.30908 0.0
H1329 H 0.75987 0.16136 0.31179 0.0
H1330 H 0.65752 0.14075 0.28784 0.0
H1331 H 0.68886 0.15126 0.30725 0.0
C1332 C 0.88162 0.66585 0.35069 0.0
C1333 C 0.86584 0.65039 0.3494 0.0
C1334 C 0.87679 0.68593 0.35621 0.0
C1335 C 0.83452 0.71811 0.37754 0.0
H1336 H 0.86183 0.76053 0.34468 0.0
C1337 C 0.81315 0.80286 0.38688 0.0
C1338 C 0.81079 0.81391 0.3685 0.0
C1339 C 0.82255 0.7838 0.38666 0.0
C1340 C 0.85398 0.74889 0.35394 0.0
H1341 H 0.83275 0.64367 0.35354 0.0
H1342 H 0.82417 0.67873 0.36281 0.0
H1343 H 0.87239 0.72519 0.34103 0.0
H1344 H 0.81694 0.81389 0.33555 0.0
H1345 H 0.83303 0.78052 0.33499 0.0
H1346 H 0.81532 0.74163 0.38959 0.0
C1347 C 0.84039 0.67535 0.35997 0.0
C1348 C 0.86026 0.72861 0.35208 0.0
C1349 C 0.84527 0.65521 0.35465 0.0
C1350 C 0.81878 0.80587 0.35 0.0
C1351 C 0.82802 0.78671 0.34972 0.0
C1352 C 0.82814 0.73837 0.37929 0.0
C1353 C 0.85602 0.69108 0.36035 0.0
C1354 C 0.85043 0.71289 0.36366 0.0
C1355 C 0.82965 0.77523 0.36799 0.0
C1356 C 0.8376 0.75399 0.36731 0.0
H1357 H 0.89765 0.66246 0.34697 0.0
H1358 H 0.88932 0.69751 0.35682 0.0
H1359 H 0.82678 0.70648 0.38691 0.0
H1360 H 0.80737 0.80884 0.40141 0.0
H1361 H 0.82395 0.77564 0.4011 0.0
C1362 C 0.29089 0.89186 0.21875 0.0
C1363 C 0.30027 0.87784 0.20533 0.0
C1364 C 0.27246 0.88642 0.22911 0.0
C1365 C 0.22894 0.84748 0.23283 0.0
H1366 H 0.23239 0.8619 0.29121 0.0
C1367 C 0.1712 0.81416 0.2941 0.0
C1368 C 0.1636 0.8284 0.30851 0.0
C1369 C 0.18758 0.81976 0.28076 0.0
C1370 C 0.23106 0.8579 0.27492 0.0
H1371 H 0.29712 0.84761 0.19122 0.0
H1372 H 0.26488 0.83799 0.20937 0.0
H1373 H 0.25997 0.87354 0.26796 0.0
H1374 H 0.1675 0.85954 0.32045 0.0
H1375 H 0.1959 0.86924 0.29732 0.0
H1376 H 0.19997 0.83167 0.24001 0.0
C1377 C 0.27163 0.85329 0.21175 0.0
C1378 C 0.24684 0.86466 0.26154 0.0
C1379 C 0.29004 0.85882 0.20125 0.0
C1380 C 0.17299 0.84817 0.30957 0.0
C1381 C 0.18935 0.85372 0.29635 0.0
C1382 C 0.21309 0.84069 0.24627 0.0
C1383 C 0.26312 0.86674 0.22642 0.0
C1384 C 0.24591 0.85969 0.24031 0.0
C1385 C 0.19676 0.83966 0.28169 0.0
C1386 C 0.21393 0.84596 0.26744 0.0
H1387 H 0.29851 0.90662 0.22206 0.0
H1388 H 0.26602 0.89733 0.23992 0.0
H1389 H 0.22775 0.84343 0.21655 0.0
H1390 H 0.16424 0.79882 0.29285 0.0
H1391 H 0.19311 0.80852 0.26977 0.0
C1392 C 0.15439 0.70501 0.68454 0.0
C1393 C 0.16319 0.68557 0.6829 0.0
C1394 C 0.16495 0.7224 0.67696 0.0
C1395 C 0.20801 0.74051 0.64302 0.0
H1396 H 0.21027 0.78712 0.68096 0.0
C1397 C 0.24873 0.81784 0.62183 0.0
C1398 C 0.26218 0.82664 0.63701 0.0
C1399 C 0.23515 0.80136 0.62664 0.0
C1400 C 0.20982 0.77423 0.67022 0.0
H1401 H 0.18951 0.66901 0.67105 0.0
H1402 H 0.20805 0.69948 0.65771 0.0
H1403 H 0.18957 0.75644 0.6898 0.0
H1404 H 0.27135 0.82545 0.66934 0.0
H1405 H 0.2476 0.79676 0.67775 0.0
H1406 H 0.22871 0.75821 0.62366 0.0
C1407 C 0.1929 0.70121 0.66483 0.0
C1408 C 0.19778 0.75672 0.67517 0.0
C1409 C 0.18228 0.68375 0.67244 0.0
C1410 C 0.26118 0.81907 0.65729 0.0
C1411 C 0.24752 0.80265 0.66212 0.0
C1412 C 0.21998 0.7581 0.63801 0.0
C1413 C 0.18459 0.7208 0.66752 0.0
C1414 C 0.19681 0.73962 0.66169 0.0
C1415 C 0.23461 0.79339 0.64677 0.0
C1416 C 0.22114 0.77509 0.65163 0.0
H1417 H 0.13949 0.70683 0.69213 0.0
H1418 H 0.15789 0.73719 0.67884 0.0
H1419 H 0.20748 0.72764 0.63227 0.0
H1420 H 0.24906 0.82331 0.60604 0.0
H1421 H 0.22517 0.79475 0.61456 0.0
C1422 C 0.26174 0.08731 0.81054 0.0
C1423 C 0.27416 0.07086 0.80466 0.0
C1424 C 0.24475 0.0927 0.79825 0.0
C1425 C 0.23063 0.08972 0.74324 0.0
H1426 H 0.1822 0.11941 0.76108 0.0
C1427 C 0.19155 0.14799 0.69103 0.0
C1428 C 0.16964 0.14901 0.69105 0.0
C1429 C 0.20175 0.13562 0.70513 0.0
C1430 C 0.19549 0.11092 0.75582 0.0
H1431 H 0.27742 0.04589 0.78278 0.0
H1432 H 0.24724 0.05469 0.7617 0.0
H1433 H 0.2027 0.10104 0.78652 0.0
H1434 H 0.14127 0.1378 0.70606 0.0
H1435 H 0.15911 0.11596 0.73054 0.0
H1436 H 0.2236 0.09966 0.71263 0.0
C1437 C 0.25094 0.06387 0.77538 0.0
C1438 C 0.20734 0.10054 0.77042 0.0
C1439 C 0.26804 0.05865 0.78754 0.0
C1440 C 0.15815 0.13722 0.70547 0.0
C1441 C 0.16838 0.12486 0.71965 0.0
C1442 C 0.21881 0.10005 0.72869 0.0
C1443 C 0.2398 0.08162 0.77995 0.0
C1444 C 0.22532 0.09016 0.76436 0.0
C1445 C 0.1903 0.12393 0.71963 0.0
C1446 C 0.20141 0.11118 0.73486 0.0
H1447 H 0.26631 0.09714 0.8235 0.0
H1448 H 0.23664 0.10652 0.80222 0.0
H1449 H 0.24452 0.08218 0.73797 0.0
H1450 H 0.20088 0.15667 0.68002 0.0
H1451 H 0.21868 0.13549 0.70487 0.0
C1452 C 0.72904 0.23514 0.63369 0.0
C1453 C 0.73461 0.21448 0.63428 0.0
C1454 C 0.74264 0.25062 0.64135 0.0
C1455 C 0.78939 0.25878 0.67535 0.0
H1456 H 0.78962 0.31322 0.65158 0.0
C1457 C 0.84701 0.32334 0.70237 0.0
C1458 C 0.83714 0.341 0.70962 0.0
C1459 C 0.83584 0.30846 0.69073 0.0
C1460 C 0.7897 0.29807 0.65832 0.0
H1461 H 0.75899 0.19384 0.64287 0.0
H1462 H 0.78317 0.22089 0.65546 0.0
H1463 H 0.76799 0.28565 0.6359 0.0
H1464 H 0.80824 0.35751 0.70922 0.0
H1465 H 0.78887 0.33167 0.68836 0.0
H1466 H 0.81148 0.27127 0.69749 0.0
C1467 C 0.76801 0.22517 0.64972 0.0
C1468 C 0.7772 0.28227 0.64947 0.0
C1469 C 0.75421 0.20963 0.6424 0.0
C1470 C 0.81625 0.34405 0.7039 0.0
C1471 C 0.80518 0.32931 0.69194 0.0
C1472 C 0.80215 0.27448 0.68393 0.0
C1473 C 0.76235 0.24589 0.64945 0.0
C1474 C 0.77664 0.26246 0.65805 0.0
C1475 C 0.81472 0.31112 0.68578 0.0
C1476 C 0.80224 0.29431 0.67565 0.0
H1477 H 0.71394 0.23934 0.62768 0.0
H1478 H 0.73744 0.26627 0.64127 0.0
H1479 H 0.78914 0.24393 0.6827 0.0
H1480 H 0.86308 0.32049 0.70653 0.0
H1481 H 0.84357 0.29463 0.68601 0.0
C1482 C 0.81065 0.84907 0.68526 0.0
C1483 C 0.81118 0.83631 0.66763 0.0
C1484 C 0.79187 0.85739 0.69175 0.0
C1485 C 0.73463 0.84857 0.68769 0.0
H1486 H 0.73386 0.90197 0.71467 0.0
C1487 C 0.65957 0.88283 0.72336 0.0
C1488 C 0.66242 0.88973 0.74391 0.0
C1489 C 0.67687 0.87779 0.71125 0.0
C1490 C 0.73384 0.88705 0.70712 0.0
H1491 H 0.7926 0.82304 0.64244 0.0
H1492 H 0.75984 0.83775 0.65359 0.0
H1493 H 0.76591 0.89081 0.69828 0.0
H1494 H 0.68565 0.89716 0.76769 0.0
H1495 H 0.71554 0.88861 0.74661 0.0
H1496 H 0.70253 0.84483 0.69681 0.0
C1497 C 0.77385 0.84096 0.66269 0.0
C1498 C 0.75221 0.8806 0.69782 0.0
C1499 C 0.79262 0.83254 0.65628 0.0
C1500 C 0.68285 0.8918 0.75195 0.0
C1501 C 0.70004 0.88707 0.73982 0.0
C1502 C 0.71618 0.85511 0.69687 0.0
C1503 C 0.77318 0.85328 0.68067 0.0
C1504 C 0.75301 0.86106 0.68845 0.0
C1505 C 0.69727 0.87995 0.71939 0.0
C1506 C 0.71578 0.87419 0.70714 0.0
H1507 H 0.8246 0.85205 0.69449 0.0
H1508 H 0.79192 0.8665 0.70587 0.0
H1509 H 0.73471 0.83335 0.68081 0.0
H1510 H 0.64402 0.88108 0.71675 0.0
H1511 H 0.67433 0.87234 0.69551 0.0
C1512 C 0.30294 0.15606 0.32317 0.0
C1513 C 0.29719 0.16859 0.33994 0.0
C1514 C 0.30916 0.16476 0.30436 0.0
C1515 C 0.30265 0.21269 0.27507 0.0
H1516 H 0.34066 0.18761 0.23641 0.0
C1517 C 0.30711 0.2401 0.19112 0.0
C1518 C 0.32702 0.24221 0.18214 0.0
C1519 C 0.30435 0.22957 0.2097 0.0
C1520 C 0.33012 0.19492 0.24706 0.0
H1521 H 0.29512 0.20008 0.35063 0.0
H1522 H 0.30675 0.21527 0.31818 0.0
H1523 H 0.33658 0.17356 0.27108 0.0
H1524 H 0.35953 0.23414 0.1852 0.0
H1525 H 0.35482 0.21617 0.21785 0.0
H1526 H 0.29666 0.23442 0.25147 0.0
C1527 C 0.30571 0.1987 0.31924 0.0
C1528 C 0.32761 0.18672 0.26691 0.0
C1529 C 0.29924 0.19 0.33795 0.0
C1530 C 0.34394 0.23269 0.19165 0.0
C1531 C 0.34123 0.22235 0.2104 0.0
C1532 C 0.30527 0.22095 0.25536 0.0
C1533 C 0.31001 0.1862 0.30194 0.0
C1534 C 0.31376 0.19545 0.28117 0.0
C1535 C 0.32148 0.22111 0.21995 0.0
C1536 C 0.31888 0.21209 0.24098 0.0
H1537 H 0.30147 0.13949 0.32413 0.0
H1538 H 0.31221 0.1546 0.29143 0.0
H1539 H 0.29156 0.21966 0.28539 0.0
H1540 H 0.29372 0.24709 0.18408 0.0
H1541 H 0.28879 0.22843 0.21624 0.0
C1542 C 0.8969 0.20047 0.25748 0.0
C1543 C 0.91052 0.20677 0.27357 0.0
C1544 C 0.89785 0.2102 0.23829 0.0
C1545 C 0.91471 0.26074 0.21766 0.0
H1546 H 0.89132 0.23746 0.16686 0.0
C1547 C 0.87219 0.30971 0.15925 0.0
C1548 C 0.87215 0.30461 0.13806 0.0
C1549 C 0.88202 0.29739 0.1736 0.0
C1550 C 0.89828 0.24421 0.18075 0.0
H1551 H 0.93697 0.22666 0.28182 0.0
H1552 H 0.93953 0.24294 0.24799 0.0
H1553 H 0.9006 0.21486 0.195 0.0
H1554 H 0.88328 0.28293 0.11526 0.0
H1555 H 0.90096 0.26156 0.14036 0.0
H1556 H 0.91262 0.29003 0.20339 0.0
C1557 C 0.92751 0.23113 0.25031 0.0
C1558 C 0.90333 0.23123 0.19705 0.0
C1559 C 0.92625 0.22168 0.26961 0.0
C1560 C 0.88305 0.28733 0.13145 0.0
C1561 C 0.893 0.27496 0.14587 0.0
C1562 C 0.90994 0.27364 0.20131 0.0
C1563 C 0.91267 0.22624 0.23471 0.0
C1564 C 0.91091 0.23939 0.21601 0.0
C1565 C 0.89229 0.27966 0.16718 0.0
C1566 C 0.90088 0.26564 0.18295 0.0
H1567 H 0.88446 0.18919 0.26027 0.0
H1568 H 0.88598 0.20608 0.22686 0.0
H1569 H 0.92032 0.26777 0.23198 0.0
H1570 H 0.86427 0.32309 0.16485 0.0
H1571 H 0.88084 0.30141 0.18985 0.0
C1572 C 0.68603 0.75926 0.1902 0.0
C1573 C 0.6748 0.76928 0.17474 0.0
C1574 C 0.68932 0.76844 0.2096 0.0
C1575 C 0.66712 0.806 0.24534 0.0
H1576 H 0.72056 0.80238 0.27339 0.0
C1577 C 0.6869 0.84668 0.32396 0.0
C1578 C 0.70032 0.83667 0.33757 0.0
C1579 C 0.68239 0.83834 0.30431 0.0
C1580 C 0.70542 0.80326 0.26593 0.0
H1581 H 0.6586 0.79705 0.16743 0.0
H1582 H 0.66442 0.81316 0.20147 0.0
H1583 H 0.71654 0.78916 0.23819 0.0
H1584 H 0.71824 0.80934 0.34187 0.0
H1585 H 0.7099 0.79453 0.30798 0.0
H1586 H 0.65595 0.81993 0.27322 0.0
C1587 C 0.67055 0.79811 0.19851 0.0
C1588 C 0.70317 0.79577 0.24569 0.0
C1589 C 0.6674 0.78897 0.17897 0.0
C1590 C 0.70802 0.81754 0.33166 0.0
C1591 C 0.7034 0.80914 0.31214 0.0
C1592 C 0.66934 0.81343 0.26568 0.0
C1593 C 0.68136 0.78783 0.2141 0.0
C1594 C 0.68397 0.79691 0.2352 0.0
C1595 C 0.69111 0.81976 0.29795 0.0
C1596 C 0.68849 0.81199 0.27629 0.0
H1597 H 0.69193 0.74407 0.18746 0.0
H1598 H 0.69755 0.76004 0.22132 0.0
H1599 H 0.65205 0.80687 0.23774 0.0
H1600 H 0.68081 0.86151 0.32801 0.0
H1601 H 0.67292 0.84696 0.29377 0.0
C1602 C 0.1458 0.70096 0.16949 0.0
C1603 C 0.14498 0.70129 0.14775 0.0
C1604 C 0.13298 0.71341 0.18129 0.0
C1605 C 0.10317 0.76072 0.17922 0.0
H1606 H 0.08211 0.74027 0.23154 0.0
C1607 C 0.0866 0.81244 0.24931 0.0
C1608 C 0.07322 0.80505 0.26492 0.0
C1609 C 0.08944 0.8009 0.23123 0.0
C1610 C 0.08737 0.74624 0.2168 0.0
H1611 H 0.12989 0.71504 0.1214 0.0
H1612 H 0.10721 0.73663 0.14209 0.0
H1613 H 0.09854 0.717 0.2076 0.0
H1614 H 0.05063 0.78118 0.27305 0.0
H1615 H 0.05467 0.76143 0.24102 0.0
H1616 H 0.09201 0.79005 0.18854 0.0
C1617 C 0.11795 0.72679 0.14995 0.0
C1618 C 0.09716 0.73289 0.20319 0.0
C1619 C 0.13082 0.71428 0.1381 0.0
C1620 C 0.06104 0.78711 0.26118 0.0
C1621 C 0.0636 0.77571 0.24297 0.0
C1622 C 0.09322 0.77411 0.19283 0.0
C1623 C 0.11889 0.72649 0.1717 0.0
C1624 C 0.10582 0.74009 0.18457 0.0
C1625 C 0.07876 0.78184 0.22833 0.0
C1626 C 0.08577 0.76717 0.21209 0.0
H1627 H 0.15626 0.69098 0.17749 0.0
H1628 H 0.1344 0.71301 0.198 0.0
H1629 H 0.10966 0.76678 0.16499 0.0
H1630 H 0.09639 0.82609 0.25196 0.0
H1631 H 0.10134 0.80611 0.22045 0.0
C1632 C 0.38959 0.71378 0.76162 0.0
C1633 C 0.40242 0.72236 0.77736 0.0
C1634 C 0.38848 0.72322 0.74228 0.0
C1635 C 0.39511 0.77505 0.72102 0.0
H1636 H 0.38216 0.7478 0.66865 0.0
C1637 C 0.35115 0.81484 0.65635 0.0
C1638 C 0.35739 0.81207 0.63566 0.0
C1639 C 0.35998 0.80359 0.67221 0.0
C1640 C 0.38604 0.75564 0.6831 0.0
H1641 H 0.42559 0.74627 0.7847 0.0
H1642 H 0.42413 0.76248 0.75086 0.0
H1643 H 0.39298 0.72754 0.69833 0.0
H1644 H 0.37809 0.79522 0.61564 0.0
H1645 H 0.39341 0.77533 0.64351 0.0
H1646 H 0.38797 0.80305 0.70599 0.0
C1647 C 0.4144 0.74887 0.75356 0.0
C1648 C 0.39204 0.74403 0.70014 0.0
C1649 C 0.41534 0.73955 0.77289 0.0
C1650 C 0.37278 0.79767 0.63133 0.0
C1651 C 0.38157 0.78627 0.64728 0.0
C1652 C 0.38911 0.78659 0.70406 0.0
C1653 C 0.40032 0.74134 0.7383 0.0
C1654 C 0.39629 0.75357 0.71942 0.0
C1655 C 0.37526 0.78916 0.66791 0.0
C1656 C 0.38404 0.777 0.68504 0.0
H1657 H 0.37935 0.70062 0.76471 0.0
H1658 H 0.37736 0.71706 0.73096 0.0
H1659 H 0.39797 0.78294 0.73564 0.0
H1660 H 0.33901 0.82531 0.66041 0.0
H1661 H 0.35444 0.80588 0.68788 0.0
C1662 C 0.2531 0.33655 0.81275 0.0
C1663 C 0.24734 0.3572 0.81302 0.0
C1664 C 0.25046 0.32464 0.7947 0.0
C1665 C 0.21347 0.32302 0.75203 0.0
H1666 H 0.24369 0.27585 0.73282 0.0
C1667 C 0.17276 0.25492 0.71043 0.0
C1668 C 0.18127 0.24851 0.69151 0.0
C1669 C 0.18376 0.26891 0.7232 0.0
C1670 C 0.23522 0.28911 0.73792 0.0
H1671 H 0.23674 0.38218 0.79426 0.0
H1672 H 0.23287 0.36163 0.76261 0.0
H1673 H 0.26021 0.29995 0.75797 0.0
H1674 H 0.20824 0.25133 0.67136 0.0
H1675 H 0.22774 0.27569 0.69408 0.0
H1676 H 0.18825 0.3119 0.73271 0.0
C1677 C 0.23886 0.35448 0.77639 0.0
C1678 C 0.24461 0.30282 0.75233 0.0
C1679 C 0.24128 0.3663 0.79443 0.0
C1680 C 0.20125 0.2561 0.68582 0.0
C1681 C 0.21244 0.26991 0.69882 0.0
C1682 C 0.20406 0.30926 0.73792 0.0
C1683 C 0.24219 0.33326 0.77667 0.0
C1684 C 0.23372 0.31982 0.75968 0.0
C1685 C 0.20364 0.27661 0.7175 0.0
C1686 C 0.21468 0.29201 0.73097 0.0
H1687 H 0.2575 0.32905 0.82694 0.0
H1688 H 0.25307 0.30832 0.79545 0.0
H1689 H 0.20447 0.33573 0.75763 0.0
H1690 H 0.15741 0.24938 0.71529 0.0
H1691 H 0.17671 0.2737 0.73762 0.0
C1692 C 0.61967 0.21155 0.6435 0.0
C1693 C 0.63391 0.19696 0.65016 0.0
C1694 C 0.60771 0.22228 0.6579 0.0
C1695 C 0.59035 0.2209 0.7128 0.0
H1696 H 0.58704 0.2799 0.70748 0.0
C1697 C 0.56022 0.26754 0.78066 0.0
C1698 C 0.57253 0.28504 0.7858 0.0
C1699 C 0.56171 0.25841 0.76109 0.0
C1700 C 0.58781 0.26343 0.70922 0.0
H1701 H 0.64608 0.18166 0.67711 0.0
H1702 H 0.62586 0.20057 0.70205 0.0
H1703 H 0.60186 0.25976 0.67939 0.0
H1704 H 0.59513 0.3075 0.77442 0.0
H1705 H 0.5985 0.29126 0.74046 0.0
H1706 H 0.57783 0.22449 0.74306 0.0
C1707 C 0.62365 0.20366 0.68575 0.0
C1708 C 0.59608 0.25185 0.69298 0.0
C1709 C 0.63553 0.193 0.67143 0.0
C1710 C 0.58531 0.29413 0.77063 0.0
C1711 C 0.58717 0.28477 0.75116 0.0
C1712 C 0.5823 0.23244 0.72905 0.0
C1713 C 0.60968 0.21853 0.67922 0.0
C1714 C 0.59803 0.23051 0.69488 0.0
C1715 C 0.57603 0.26629 0.74644 0.0
C1716 C 0.58142 0.25395 0.72774 0.0
H1717 H 0.61813 0.21505 0.62723 0.0
H1718 H 0.59699 0.23354 0.65235 0.0
H1719 H 0.59121 0.20444 0.71461 0.0
H1720 H 0.55022 0.26038 0.7922 0.0
H1721 H 0.55241 0.24457 0.75785 0.0
C1722 C 0.83339 0.73247 0.6904 0.0
C1723 C 0.84844 0.72546 0.67643 0.0
C1724 C 0.82904 0.72181 0.70857 0.0
C1725 C 0.85229 0.68603 0.7452 0.0
H1726 H 0.79576 0.68295 0.76669 0.0
C1727 C 0.82659 0.64304 0.82051 0.0
C1728 C 0.81183 0.653 0.83283 0.0
C1729 C 0.83276 0.65129 0.80144 0.0
C1730 C 0.81167 0.68384 0.76097 0.0
H1731 H 0.8703 0.70136 0.67034 0.0
H1732 H 0.86244 0.68253 0.70211 0.0
H1733 H 0.80206 0.69694 0.73242 0.0
H1734 H 0.79329 0.68021 0.83559 0.0
H1735 H 0.80418 0.69458 0.80261 0.0
H1736 H 0.86178 0.67284 0.77395 0.0
C1737 C 0.85423 0.69646 0.69904 0.0
C1738 C 0.81528 0.69183 0.74132 0.0
C1739 C 0.85858 0.70714 0.68076 0.0
C1740 C 0.80448 0.672 0.82636 0.0
C1741 C 0.8106 0.68019 0.80739 0.0
C1742 C 0.84864 0.6779 0.7649 0.0
C1743 C 0.83958 0.70383 0.71328 0.0
C1744 C 0.83566 0.69341 0.73333 0.0
C1745 C 0.82423 0.66959 0.7944 0.0
C1746 C 0.82833 0.67712 0.77314 0.0
H1747 H 0.82531 0.74654 0.68758 0.0
H1748 H 0.81787 0.7281 0.71929 0.0
H1749 H 0.86821 0.68719 0.73957 0.0
H1750 H 0.83251 0.62835 0.82504 0.0
H1751 H 0.84333 0.64281 0.79175 0.0
C1752 C 0.16368 0.36723 0.23895 0.0
C1753 C 0.15242 0.3847 0.23401 0.0
C1754 C 0.18051 0.3614 0.2268 0.0
C1755 C 0.22062 0.38285 0.19236 0.0
H1756 H 0.23208 0.32546 0.18288 0.0
C1757 C 0.30335 0.35314 0.17635 0.0
C1758 C 0.30531 0.33581 0.16342 0.0
C1759 C 0.28361 0.36051 0.18117 0.0
C1760 C 0.22904 0.34159 0.18506 0.0
H1761 H 0.1496 0.40942 0.21206 0.0
H1762 H 0.17917 0.39915 0.19071 0.0
H1763 H 0.1987 0.3348 0.19754 0.0
H1764 H 0.2877 0.31332 0.14463 0.0
H1765 H 0.25366 0.32648 0.15255 0.0
H1766 H 0.25113 0.38959 0.18004 0.0
C1767 C 0.17495 0.39007 0.2041 0.0
C1768 C 0.20996 0.34692 0.19369 0.0
C1769 C 0.15793 0.39584 0.21621 0.0
C1770 C 0.28705 0.32673 0.15457 0.0
C1771 C 0.26738 0.33413 0.15931 0.0
C1772 C 0.23977 0.37751 0.18373 0.0
C1773 C 0.18658 0.37293 0.20945 0.0
C1774 C 0.2057 0.36757 0.19785 0.0
C1775 C 0.26536 0.35075 0.17311 0.0
C1776 C 0.24434 0.35678 0.18033 0.0
H1777 H 0.15983 0.35829 0.25254 0.0
H1778 H 0.18927 0.34827 0.23151 0.0
H1779 H 0.21787 0.39889 0.19551 0.0
H1780 H 0.31702 0.36075 0.18319 0.0
H1781 H 0.28265 0.37329 0.19193 0.0
C1782 C 0.31158 0.73915 0.84471 0.0
C1783 C 0.3212 0.72165 0.85231 0.0
C1784 C 0.28993 0.73881 0.84105 0.0
C1785 C 0.24057 0.7079 0.85047 0.0
H1786 H 0.22558 0.72539 0.79537 0.0
C1787 C 0.16044 0.6853 0.81279 0.0
C1788 C 0.1621 0.67766 0.79244 0.0
C1789 C 0.17759 0.69549 0.8224 0.0
C1790 C 0.22947 0.72051 0.81086 0.0
H1791 H 0.31556 0.69061 0.86329 0.0
H1792 H 0.27829 0.68992 0.85673 0.0
H1793 H 0.26002 0.73472 0.80935 0.0
H1794 H 0.18299 0.67503 0.76615 0.0
H1795 H 0.21262 0.69233 0.78286 0.0
H1796 H 0.21056 0.69244 0.85135 0.0
C1797 C 0.28718 0.70398 0.85368 0.0
C1798 C 0.24914 0.72609 0.81899 0.0
C1799 C 0.30868 0.70429 0.85721 0.0
C1800 C 0.1811 0.68068 0.78185 0.0
C1801 C 0.1981 0.69085 0.79137 0.0
C1802 C 0.22093 0.70223 0.84229 0.0
C1803 C 0.27756 0.72104 0.84513 0.0
C1804 C 0.25525 0.71913 0.83855 0.0
C1805 C 0.19663 0.69834 0.81177 0.0
C1806 C 0.2155 0.70776 0.82205 0.0
H1807 H 0.32084 0.75278 0.84088 0.0
H1808 H 0.28295 0.75226 0.83459 0.0
H1809 H 0.24465 0.70262 0.86577 0.0
H1810 H 0.146 0.68329 0.82134 0.0
H1811 H 0.17596 0.70113 0.83813 0.0
C1812 C 0.22761 0.27599 0.83079 0.0
C1813 C 0.2301 0.28359 0.85117 0.0
C1814 C 0.23937 0.25952 0.82379 0.0
C1815 C 0.28938 0.23582 0.83418 0.0
H1816 H 0.26663 0.18769 0.80515 0.0
C1817 C 0.33331 0.16101 0.82996 0.0
C1818 C 0.33173 0.1484 0.81222 0.0
C1819 C 0.32167 0.17866 0.83166 0.0
C1820 C 0.27331 0.20122 0.81287 0.0
H1821 H 0.24582 0.27911 0.88045 0.0
H1822 H 0.26632 0.25052 0.86828 0.0
H1823 H 0.24363 0.21573 0.8143 0.0
H1824 H 0.3171 0.14477 0.78201 0.0
H1825 H 0.29673 0.17594 0.78491 0.0
H1826 H 0.31895 0.22151 0.83296 0.0
C1827 C 0.25558 0.25747 0.85761 0.0
C1828 C 0.2601 0.2172 0.81818 0.0
C1829 C 0.2438 0.27378 0.86461 0.0
C1830 C 0.31872 0.15424 0.79584 0.0
C1831 C 0.30692 0.17197 0.79758 0.0
C1832 C 0.30256 0.22 0.82876 0.0
C1833 C 0.25388 0.25048 0.83701 0.0
C1834 C 0.26794 0.23438 0.82941 0.0
C1835 C 0.30809 0.18423 0.81565 0.0
C1836 C 0.2946 0.20223 0.81858 0.0
H1837 H 0.2174 0.28339 0.81997 0.0
H1838 H 0.23778 0.25444 0.80782 0.0
H1839 H 0.29594 0.24911 0.8424 0.0
H1840 H 0.34318 0.15697 0.84287 0.0
H1841 H 0.32276 0.18751 0.84593 0.0
C1842 C 0.66822 0.29434 0.81976 0.0
C1843 C 0.66051 0.28379 0.83709 0.0
C1844 C 0.68965 0.29605 0.8161 0.0
C1845 C 0.73364 0.312 0.82163 0.0
H1846 H 0.77423 0.26998 0.83025 0.0
C1847 C 0.82082 0.33215 0.8149 0.0
C1848 C 0.83284 0.31839 0.80356 0.0
C1849 C 0.80086 0.32631 0.82175 0.0
C1850 C 0.76307 0.28185 0.82771 0.0
H1851 H 0.66902 0.26582 0.86368 0.0
H1852 H 0.70683 0.26917 0.85753 0.0
H1853 H 0.73694 0.26179 0.83515 0.0
H1854 H 0.83379 0.28743 0.79117 0.0
H1855 H 0.79865 0.27727 0.80266 0.0
H1856 H 0.75932 0.33188 0.81348 0.0
C1857 C 0.69621 0.2759 0.8466 0.0
C1858 C 0.74173 0.2772 0.83069 0.0
C1859 C 0.6746 0.27396 0.85013 0.0
C1860 C 0.82492 0.29829 0.80006 0.0
C1861 C 0.80478 0.29248 0.80668 0.0
C1862 C 0.75482 0.31661 0.81859 0.0
C1863 C 0.70397 0.28755 0.82989 0.0
C1864 C 0.72676 0.29219 0.82743 0.0
C1865 C 0.79227 0.30663 0.8171 0.0
C1866 C 0.76984 0.30162 0.8215 0.0
H1867 H 0.65767 0.30183 0.80929 0.0
H1868 H 0.69502 0.30458 0.80272 0.0
H1869 H 0.72262 0.32407 0.81939 0.0
H1870 H 0.82673 0.34764 0.81802 0.0
H1871 H 0.79191 0.33743 0.83022 0.0
C1872 C 0.69895 0.69541 0.83961 0.0
C1873 C 0.70413 0.68588 0.85828 0.0
C1874 C 0.69199 0.71554 0.83966 0.0
C1875 C 0.66868 0.75563 0.87176 0.0
H1876 H 0.69741 0.79315 0.83438 0.0
C1877 C 0.64133 0.83736 0.85213 0.0
C1878 C 0.65685 0.85304 0.85073 0.0
C1879 C 0.64676 0.81706 0.85554 0.0
C1880 C 0.68935 0.78289 0.84501 0.0
H1881 H 0.70512 0.68952 0.89163 0.0
H1882 H 0.69262 0.72465 0.89177 0.0
H1883 H 0.70646 0.75704 0.83462 0.0
H1884 H 0.6902 0.85985 0.85251 0.0
H1885 H 0.69973 0.82433 0.8584 0.0
H1886 H 0.65139 0.78154 0.88196 0.0
C1887 C 0.69409 0.71659 0.87711 0.0
C1888 C 0.69436 0.76219 0.84497 0.0
C1889 C 0.70133 0.69657 0.87703 0.0
C1890 C 0.67788 0.84814 0.85372 0.0
C1891 C 0.68335 0.82779 0.85686 0.0
C1892 C 0.66344 0.77633 0.87158 0.0
C1893 C 0.6898 0.72644 0.85839 0.0
C1894 C 0.68408 0.74833 0.85833 0.0
C1895 C 0.66787 0.81199 0.85736 0.0
C1896 C 0.67378 0.79017 0.85824 0.0
H1897 H 0.70114 0.68764 0.82492 0.0
H1898 H 0.68861 0.72271 0.82502 0.0
H1899 H 0.66049 0.74526 0.88219 0.0
H1900 H 0.625 0.84076 0.84995 0.0
H1901 H 0.6345 0.8052 0.85578 0.0
C1902 C 0.71108 0.66909 0.18214 0.0
C1903 C 0.70351 0.66094 0.16324 0.0
C1904 C 0.72903 0.66151 0.19127 0.0
C1905 C 0.77728 0.6352 0.17849 0.0
H1906 H 0.78111 0.62911 0.23802 0.0
C1907 C 0.85009 0.6039 0.2209 0.0
C1908 C 0.85562 0.61356 0.23979 0.0
C1909 C 0.8317 0.60899 0.21056 0.0
C1910 C 0.78037 0.63093 0.22138 0.0
H1911 H 0.70866 0.63815 0.13925 0.0
H1912 H 0.74001 0.62471 0.15535 0.0
H1913 H 0.74799 0.63812 0.22239 0.0
H1914 H 0.84685 0.63692 0.26204 0.0
H1915 H 0.81514 0.64597 0.24389 0.0
H1916 H 0.80981 0.6282 0.17758 0.0
C1917 C 0.73208 0.6371 0.163 0.0
C1918 C 0.76137 0.63604 0.21243 0.0
C1919 C 0.714 0.64463 0.15391 0.0
C1920 C 0.84293 0.62903 0.24762 0.0
C1921 C 0.82466 0.63412 0.2373 0.0
C1922 C 0.79635 0.63008 0.18747 0.0
C1923 C 0.7399 0.64561 0.18168 0.0
C1924 C 0.75967 0.63853 0.19092 0.0
C1925 C 0.81855 0.62383 0.21893 0.0
C1926 C 0.79817 0.62822 0.20906 0.0
H1927 H 0.70323 0.68153 0.18978 0.0
H1928 H 0.73474 0.66854 0.20557 0.0
H1929 H 0.77652 0.63721 0.16187 0.0
H1930 H 0.8595 0.59186 0.21451 0.0
H1931 H 0.82739 0.60076 0.19644 0.0
C1932 C 0.3767 0.79656 0.20989 0.0
C1933 C 0.36659 0.81326 0.21876 0.0
C1934 C 0.366 0.77773 0.20701 0.0
C1935 C 0.31516 0.74917 0.21691 0.0
H1936 H 0.32656 0.72562 0.16286 0.0
C1937 C 0.25589 0.69868 0.16961 0.0
C1938 C 0.2634 0.68131 0.15928 0.0
C1939 C 0.26967 0.71234 0.17999 0.0
C1940 C 0.32338 0.7318 0.17813 0.0
H1941 H 0.33781 0.82328 0.23255 0.0
H1942 H 0.31876 0.79071 0.22683 0.0
H1943 H 0.34881 0.7536 0.17618 0.0
H1944 H 0.29119 0.66447 0.15206 0.0
H1945 H 0.31534 0.68862 0.1699 0.0
H1946 H 0.28889 0.72788 0.21808 0.0
C1947 C 0.33512 0.79178 0.22261 0.0
C1948 C 0.33623 0.74782 0.18589 0.0
C1949 C 0.34602 0.8105 0.22593 0.0
C1950 C 0.28494 0.67773 0.15984 0.0
C1951 C 0.29876 0.69155 0.17001 0.0
C1952 C 0.30212 0.73329 0.20898 0.0
C1953 C 0.34475 0.77539 0.21237 0.0
C1954 C 0.33218 0.75692 0.20529 0.0
C1955 C 0.29127 0.70907 0.18006 0.0
C1956 C 0.30598 0.72462 0.18941 0.0
H1957 H 0.39262 0.79833 0.20433 0.0
H1958 H 0.37416 0.7653 0.1997 0.0
H1959 H 0.31171 0.75554 0.23202 0.0
H1960 H 0.23935 0.70181 0.16957 0.0
H1961 H 0.26349 0.72583 0.18742 0.0
C1962 C 0.73304 0.31253 0.12474 0.0
C1963 C 0.75468 0.31181 0.1283 0.0
C1964 C 0.72008 0.29518 0.1281 0.0
C1965 C 0.72225 0.23853 0.13531 0.0
H1966 H 0.66726 0.24476 0.15908 0.0
C1967 C 0.67005 0.16784 0.15605 0.0
C1968 C 0.65949 0.16911 0.17502 0.0
C1969 C 0.67953 0.1854 0.1474 0.0
C1970 C 0.68262 0.24272 0.15252 0.0
H1971 H 0.77966 0.29262 0.13871 0.0
H1972 H 0.75709 0.26279 0.14536 0.0
H1973 H 0.68845 0.27512 0.15064 0.0
H1974 H 0.65077 0.18974 0.19988 0.0
H1975 H 0.66752 0.22002 0.1852 0.0
H1976 H 0.71699 0.20618 0.13841 0.0
C1977 C 0.7501 0.2764 0.13927 0.0
C1978 C 0.69469 0.26018 0.14741 0.0
C1979 C 0.76305 0.2936 0.13566 0.0
C1980 C 0.65835 0.1883 0.185 0.0
C1981 C 0.66797 0.20574 0.17652 0.0
C1982 C 0.7103 0.22109 0.14067 0.0
C1983 C 0.72847 0.27685 0.13532 0.0
C1984 C 0.71485 0.25832 0.13912 0.0
C1985 C 0.67885 0.20454 0.1577 0.0
C1986 C 0.6905 0.22296 0.14974 0.0
H1987 H 0.72619 0.32632 0.11889 0.0
H1988 H 0.70354 0.29605 0.12468 0.0
H1989 H 0.73749 0.23646 0.12849 0.0
H1990 H 0.67106 0.15325 0.14801 0.0
H1991 H 0.68753 0.18394 0.13273 0.0
loop_
_geom_bond_atom_site_label_1
_geom_bond_atom_site_label_2
_geom_bond_distance
_geom_bond_site_symmetry_2
_ccdc_geom_bond_type
Cu0 N1 1.999 . S
Cu0 O6 1.974 . S
Cu0 N11 1.985 . S
Cu0 O20 1.959 . S
N1 Cu0 1.999 . S
N1 C3 1.263 . S
N1 C5 1.389 . S
N2 C3 1.358 . S
N2 C4 1.400 . S
C3 N1 1.263 . S
C3 N2 1.358 . S
C3 H9 0.930 . S
C4 N2 1.400 . S
C4 C5 1.351 . S
C4 H21 0.930 . S
C5 N1 1.389 . S
C5 C4 1.351 . S
C5 H10 0.930 . S
O6 Cu0 1.974 . S
O6 C16 1.282 . S
C7 O8 1.261 . S
C7 O20 1.251 . S
O8 C7 1.261 . S
H9 C3 0.930 . S
H10 C5 0.930 . S
N11 Cu0 1.985 . S
N11 C13 1.335 . S
N11 C14 1.390 . S
N12 C13 1.345 . S
N12 C15 1.336 . S
C13 N11 1.335 . S
C13 N12 1.345 . S
C13 H18 0.930 . S
C14 N11 1.390 . S
C14 C15 1.346 . S
C14 H19 0.930 . S
C15 N12 1.336 . S
C15 C14 1.346 . S
C15 H22 0.929 . S
C16 O6 1.282 . S
C16 O17 1.216 . S
O17 C16 1.216 . S
H18 C13 0.930 . S
H19 C14 0.930 . S
O20 Cu0 1.959 . S
O20 C7 1.251 . S
H21 C4 0.930 . S
H22 C15 0.929 . S
Cu23 N24 1.999 . S
Cu23 O29 1.974 . S
Cu23 N34 1.985 . S
Cu23 O43 1.959 . S
N24 Cu23 1.999 . S
N24 C26 1.263 . S
N24 C28 1.389 . S
N25 C26 1.358 . S
N25 C27 1.400 . S
C26 N24 1.263 . S
C26 N25 1.358 . S
C26 H32 0.930 . S
C27 N25 1.400 . S
C27 C28 1.351 . S
C27 H44 0.930 . S
C28 N24 1.389 . S
C28 C27 1.351 . S
C28 H33 0.930 . S
O29 Cu23 1.974 . S
O29 C39 1.282 . S
C30 O31 1.261 . S
C30 O43 1.251 . S
O31 C30 1.261 . S
H32 C26 0.930 . S
H33 C28 0.930 . S
N34 Cu23 1.985 . S
N34 C36 1.335 . S
N34 C37 1.390 . S
N35 C36 1.345 . S
N35 C38 1.336 . S
C36 N34 1.335 . S
C36 N35 1.345 . S
C36 H41 0.930 . S
C37 N34 1.390 . S
C37 C38 1.346 . S
C37 H42 0.930 . S
C38 N35 1.336 . S
C38 C37 1.346 . S
C38 H45 0.929 . S
C39 O29 1.282 . S
C39 O40 1.216 . S
O40 C39 1.216 . S
H41 C36 0.930 . S
H42 C37 0.930 . S
O43 Cu23 1.959 . S
O43 C30 1.251 . S
H44 C27 0.930 . S
H45 C38 0.929 . S
Cu46 N47 1.999 . S
Cu46 O52 1.974 . S
Cu46 N57 1.985 . S
Cu46 O66 1.959 . S
N47 Cu46 1.999 . S
N47 C49 1.263 . S
N47 C51 1.389 . S
N48 C49 1.358 . S
N48 C50 1.400 . S
C49 N47 1.263 . S
C49 N48 1.358 . S
C49 H55 0.930 . S
C50 N48 1.400 . S
C50 C51 1.351 . S
C50 H67 0.930 . S
C51 N47 1.389 . S
C51 C50 1.351 . S
C51 H56 0.930 . S
O52 Cu46 1.974 . S
O52 C62 1.282 . S
C53 O54 1.261 . S
C53 O66 1.251 . S
O54 C53 1.261 . S
H55 C49 0.930 . S
H56 C51 0.930 . S
N57 Cu46 1.985 . S
N57 C59 1.335 . S
N57 C60 1.390 . S
N58 C59 1.345 . S
N58 C61 1.336 . S
C59 N57 1.335 . S
C59 N58 1.345 . S
C59 H64 0.930 . S
C60 N57 1.390 . S
C60 C61 1.346 . S
C60 H65 0.930 . S
C61 N58 1.336 . S
C61 C60 1.346 . S
C61 H68 0.929 . S
C62 O52 1.282 . S
C62 O63 1.216 . S
O63 C62 1.216 . S
H64 C59 0.930 . S
H65 C60 0.930 . S
O66 Cu46 1.959 . S
O66 C53 1.251 . S
H67 C50 0.930 . S
H68 C61 0.929 . S
Cu69 N70 1.999 . S
Cu69 O75 1.974 . S
Cu69 N80 1.985 . S
Cu69 O89 1.959 . S
N70 Cu69 1.999 . S
N70 C72 1.263 . S
N70 C74 1.389 . S
N71 C72 1.358 . S
N71 C73 1.400 . S
C72 N70 1.263 . S
C72 N71 1.358 . S
C72 H78 0.930 . S
C73 N71 1.400 . S
C73 C74 1.351 . S
C73 H90 0.930 . S
C74 N70 1.389 . S
C74 C73 1.351 . S
C74 H79 0.930 . S
O75 Cu69 1.974 . S
O75 C85 1.282 . S
C76 O77 1.261 . S
C76 O89 1.251 . S
O77 C76 1.261 . S
H78 C72 0.930 . S
H79 C74 0.930 . S
N80 Cu69 1.985 . S
N80 C82 1.335 . S
N80 C83 1.390 . S
N81 C82 1.345 . S
N81 C84 1.336 . S
C82 N80 1.335 . S
C82 N81 1.345 . S
C82 H87 0.930 . S
C83 N80 1.390 . S
C83 C84 1.346 . S
C83 H88 0.930 . S
C84 N81 1.336 . S
C84 C83 1.346 . S
C84 H91 0.929 . S
C85 O75 1.282 . S
C85 O86 1.216 . S
O86 C85 1.216 . S
H87 C82 0.930 . S
H88 C83 0.930 . S
O89 Cu69 1.959 . S
O89 C76 1.251 . S
H90 C73 0.930 . S
H91 C84 0.929 . S
Cu92 N93 1.999 . S
Cu92 O98 1.974 . S
Cu92 N103 1.985 . S
Cu92 O112 1.959 . S
N93 Cu92 1.999 . S
N93 C95 1.263 . S
N93 C97 1.389 . S
N94 C95 1.358 . S
N94 C96 1.400 . S
C95 N93 1.263 . S
C95 N94 1.358 . S
C95 H101 0.930 . S
C96 N94 1.400 . S
C96 C97 1.351 . S
C96 H113 0.930 . S
C97 N93 1.389 . S
C97 C96 1.351 . S
C97 H102 0.930 . S
O98 Cu92 1.974 . S
O98 C108 1.282 . S
C99 O100 1.261 . S
C99 O112 1.251 . S
O100 C99 1.261 . S
H101 C95 0.930 . S
H102 C97 0.930 . S
N103 Cu92 1.985 . S
N103 C105 1.335 . S
N103 C106 1.390 . S
N104 C105 1.345 . S
N104 C107 1.336 . S
C105 N103 1.335 . S
C105 N104 1.345 . S
C105 H110 0.930 . S
C106 N103 1.390 . S
C106 C107 1.346 . S
C106 H111 0.930 . S
C107 N104 1.336 . S
C107 C106 1.346 . S
C107 H114 0.929 . S
C108 O98 1.282 . S
C108 O109 1.216 . S
O109 C108 1.216 . S
H110 C105 0.930 . S
H111 C106 0.930 . S
O112 Cu92 1.959 . S
O112 C99 1.251 . S
H113 C96 0.930 . S
H114 C107 0.929 . S
Cu115 N116 1.999 . S
Cu115 O121 1.974 . S
Cu115 N126 1.985 . S
Cu115 O135 1.959 . S
N116 Cu115 1.999 . S
N116 C118 1.263 . S
N116 C120 1.389 . S
N117 C118 1.358 . S
N117 C119 1.400 . S
C118 N116 1.263 . S
C118 N117 1.358 . S
C118 H124 0.930 . S
C119 N117 1.400 . S
C119 C120 1.351 . S
C119 H136 0.930 . S
C120 N116 1.389 . S
C120 C119 1.351 . S
C120 H125 0.930 . S
O121 Cu115 1.974 . S
O121 C131 1.282 . S
C122 O123 1.261 . S
C122 O135 1.251 . S
O123 C122 1.261 . S
H124 C118 0.930 . S
H125 C120 0.930 . S
N126 Cu115 1.985 . S
N126 C128 1.335 . S
N126 C129 1.390 . S
N127 C128 1.345 . S
N127 C130 1.336 . S
C128 N126 1.335 . S
C128 N127 1.345 . S
C128 H133 0.930 . S
C129 N126 1.390 . S
C129 C130 1.346 . S
C129 H134 0.930 . S
C130 N127 1.336 . S
C130 C129 1.346 . S
C130 H137 0.929 . S
C131 O121 1.282 . S
C131 O132 1.216 . S
O132 C131 1.216 . S
H133 C128 0.930 . S
H134 C129 0.930 . S
O135 Cu115 1.959 . S
O135 C122 1.251 . S
H136 C119 0.930 . S
H137 C130 0.929 . S
Cu138 N139 1.999 . S
Cu138 O144 1.974 . S
Cu138 N149 1.985 . S
Cu138 O158 1.959 . S
N139 Cu138 1.999 . S
N139 C141 1.263 . S
N139 C143 1.389 . S
N140 C141 1.358 . S
N140 C142 1.400 . S
C141 N139 1.263 . S
C141 N140 1.358 . S
C141 H147 0.930 . S
C142 N140 1.400 . S
C142 C143 1.351 . S
C142 H159 0.930 . S
C143 N139 1.389 . S
C143 C142 1.351 . S
C143 H148 0.930 . S
O144 Cu138 1.974 . S
O144 C154 1.282 . S
C145 O146 1.261 . S
C145 O158 1.251 . S
O146 C145 1.261 . S
H147 C141 0.930 . S
H148 C143 0.930 . S
N149 Cu138 1.985 . S
N149 C151 1.335 . S
N149 C152 1.390 . S
N150 C151 1.345 . S
N150 C153 1.336 . S
C151 N149 1.335 . S
C151 N150 1.345 . S
C151 H156 0.930 . S
C152 N149 1.390 . S
C152 C153 1.346 . S
C152 H157 0.930 . S
C153 N150 1.336 . S
C153 C152 1.346 . S
C153 H160 0.929 . S
C154 O144 1.282 . S
C154 O155 1.216 . S
O155 C154 1.216 . S
H156 C151 0.930 . S
H157 C152 0.930 . S
O158 Cu138 1.959 . S
O158 C145 1.251 . S
H159 C142 0.930 . S
H160 C153 0.929 . S
Cu161 N162 1.999 . S
Cu161 O167 1.974 . S
Cu161 N172 1.985 . S
Cu161 O181 1.959 . S
N162 Cu161 1.999 . S
N162 C164 1.263 . S
N162 C166 1.389 . S
N163 C164 1.358 . S
N163 C165 1.400 . S
C164 N162 1.263 . S
C164 N163 1.358 . S
C164 H170 0.930 . S
C165 N163 1.400 . S
C165 C166 1.351 . S
C165 H182 0.930 . S
C166 N162 1.389 . S
C166 C165 1.351 . S
C166 H171 0.930 . S
O167 Cu161 1.974 . S
O167 C177 1.282 . S
C168 O169 1.261 . S
C168 O181 1.251 . S
O169 C168 1.261 . S
H170 C164 0.930 . S
H171 C166 0.930 . S
N172 Cu161 1.985 . S
N172 C174 1.335 . S
N172 C175 1.390 . S
N173 C174 1.345 . S
N173 C176 1.336 . S
C174 N172 1.335 . S
C174 N173 1.345 . S
C174 H179 0.930 . S
C175 N172 1.390 . S
C175 C176 1.346 . S
C175 H180 0.930 . S
C176 N173 1.336 . S
C176 C175 1.346 . S
C176 H183 0.929 . S
C177 O167 1.282 . S
C177 O178 1.216 . S
O178 C177 1.216 . S
H179 C174 0.930 . S
H180 C175 0.930 . S
O181 Cu161 1.959 . S
O181 C168 1.251 . S
H182 C165 0.930 . S
H183 C176 0.929 . S
Cu184 N185 1.999 . S
Cu184 O190 1.974 . S
Cu184 N195 1.985 . S
Cu184 O204 1.959 . S
N185 Cu184 1.999 . S
N185 C187 1.263 . S
N185 C189 1.389 . S
N186 C187 1.358 . S
N186 C188 1.400 . S
C187 N185 1.263 . S
C187 N186 1.358 . S
C187 H193 0.930 . S
C188 N186 1.400 . S
C188 C189 1.351 . S
C188 H205 0.930 . S
C189 N185 1.389 . S
C189 C188 1.351 . S
C189 H194 0.930 . S
O190 Cu184 1.974 . S
O190 C200 1.282 . S
C191 O192 1.261 . S
C191 O204 1.251 . S
O192 C191 1.261 . S
H193 C187 0.930 . S
H194 C189 0.930 . S
N195 Cu184 1.985 . S
N195 C197 1.335 . S
N195 C198 1.390 . S
N196 C197 1.345 . S
N196 C199 1.336 . S
C197 N195 1.335 . S
C197 N196 1.345 . S
C197 H202 0.930 . S
C198 N195 1.390 . S
C198 C199 1.346 . S
C198 H203 0.930 . S
C199 N196 1.336 . S
C199 C198 1.346 . S
C199 H206 0.929 . S
C200 O190 1.282 . S
C200 O201 1.216 . S
O201 C200 1.216 . S
H202 C197 0.930 . S
H203 C198 0.930 . S
O204 Cu184 1.959 . S
O204 C191 1.251 . S
H205 C188 0.930 . S
H206 C199 0.929 . S
Cu207 N208 1.999 . S
Cu207 O213 1.974 . S
Cu207 N218 1.985 . S
Cu207 O227 1.959 . S
N208 Cu207 1.999 . S
N208 C210 1.263 . S
N208 C212 1.389 . S
N209 C210 1.358 . S
N209 C211 1.400 . S
C210 N208 1.263 . S
C210 N209 1.358 . S
C210 H216 0.930 . S
C211 N209 1.400 . S
C211 C212 1.351 . S
C211 H228 0.930 . S
C212 N208 1.389 . S
C212 C211 1.351 . S
C212 H217 0.930 . S
O213 Cu207 1.974 . S
O213 C223 1.282 . S
C214 O215 1.261 . S
C214 O227 1.251 . S
O215 C214 1.261 . S
H216 C210 0.930 . S
H217 C212 0.930 . S
N218 Cu207 1.985 . S
N218 C220 1.335 . S
N218 C221 1.390 . S
N219 C220 1.345 . S
N219 C222 1.336 . S
C220 N218 1.335 . S
C220 N219 1.345 . S
C220 H225 0.930 . S
C221 N218 1.390 . S
C221 C222 1.346 . S
C221 H226 0.930 . S
C222 N219 1.336 . S
C222 C221 1.346 . S
C222 H229 0.929 . S
C223 O213 1.282 . S
C223 O224 1.216 . S
O224 C223 1.216 . S
H225 C220 0.930 . S
H226 C221 0.930 . S
O227 Cu207 1.959 . S
O227 C214 1.251 . S
H228 C211 0.930 . S
H229 C222 0.929 . S
Cu230 N231 1.999 . S
Cu230 O236 1.974 . S
Cu230 N241 1.985 . S
Cu230 O250 1.959 . S
N231 Cu230 1.999 . S
N231 C233 1.263 . S
N231 C235 1.389 . S
N232 C233 1.358 . S
N232 C234 1.400 . S
C233 N231 1.263 . S
C233 N232 1.358 . S
C233 H239 0.930 . S
C234 N232 1.400 . S
C234 C235 1.351 . S
C234 H251 0.930 . S
C235 N231 1.389 . S
C235 C234 1.351 . S
C235 H240 0.930 . S
O236 Cu230 1.974 . S
O236 C246 1.282 . S
C237 O238 1.261 . S
C237 O250 1.251 . S
O238 C237 1.261 . S
H239 C233 0.930 . S
H240 C235 0.930 . S
N241 Cu230 1.985 . S
N241 C243 1.335 . S
N241 C244 1.390 . S
N242 C243 1.345 . S
N242 C245 1.336 . S
C243 N241 1.335 . S
C243 N242 1.345 . S
C243 H248 0.930 . S
C244 N241 1.390 . S
C244 C245 1.346 . S
C244 H249 0.930 . S
C245 N242 1.336 . S
C245 C244 1.346 . S
C245 H252 0.929 . S
C246 O236 1.282 . S
C246 O247 1.216 . S
O247 C246 1.216 . S
H248 C243 0.930 . S
H249 C244 0.930 . S
O250 Cu230 1.959 . S
O250 C237 1.251 . S
H251 C234 0.930 . S
H252 C245 0.929 . S
Cu253 N254 1.999 . S
Cu253 O259 1.974 . S
Cu253 N264 1.985 . S
Cu253 O273 1.959 . S
N254 Cu253 1.999 . S
N254 C256 1.263 . S
N254 C258 1.389 . S
N255 C256 1.358 . S
N255 C257 1.400 . S
C256 N254 1.263 . S
C256 N255 1.358 . S
C256 H262 0.930 . S
C257 N255 1.400 . S
C257 C258 1.351 . S
C257 H274 0.930 . S
C258 N254 1.389 . S
C258 C257 1.351 . S
C258 H263 0.930 . S
O259 Cu253 1.974 . S
O259 C269 1.282 . S
C260 O261 1.261 . S
C260 O273 1.251 . S
O261 C260 1.261 . S
H262 C256 0.930 . S
H263 C258 0.930 . S
N264 Cu253 1.985 . S
N264 C266 1.335 . S
N264 C267 1.390 . S
N265 C266 1.345 . S
N265 C268 1.336 . S
C266 N264 1.335 . S
C266 N265 1.345 . S
C266 H271 0.930 . S
C267 N264 1.390 . S
C267 C268 1.346 . S
C267 H272 0.930 . S
C268 N265 1.336 . S
C268 C267 1.346 . S
C268 H275 0.929 . S
C269 O259 1.282 . S
C269 O270 1.216 . S
O270 C269 1.216 . S
H271 C266 0.930 . S
H272 C267 0.930 . S
O273 Cu253 1.959 . S
O273 C260 1.251 . S
H274 C257 0.930 . S
H275 C268 0.929 . S
Cu276 N277 1.999 . S
Cu276 O282 1.974 . S
Cu276 N287 1.985 . S
Cu276 O296 1.959 . S
N277 Cu276 1.999 . S
N277 C279 1.263 . S
N277 C281 1.389 . S
N278 C279 1.358 . S
N278 C280 1.400 . S
C279 N277 1.263 . S
C279 N278 1.358 . S
C279 H285 0.930 . S
C280 N278 1.400 . S
C280 C281 1.351 . S
C280 H297 0.930 . S
C281 N277 1.389 . S
C281 C280 1.351 . S
C281 H286 0.930 . S
O282 Cu276 1.974 . S
O282 C292 1.282 . S
C283 O284 1.261 . S
C283 O296 1.251 . S
O284 C283 1.261 . S
H285 C279 0.930 . S
H286 C281 0.930 . S
N287 Cu276 1.985 . S
N287 C289 1.335 . S
N287 C290 1.390 . S
N288 C289 1.345 . S
N288 C291 1.336 . S
C289 N287 1.335 . S
C289 N288 1.345 . S
C289 H294 0.930 . S
C290 N287 1.390 . S
C290 C291 1.346 . S
C290 H295 0.930 . S
C291 N288 1.336 . S
C291 C290 1.346 . S
C291 H298 0.929 . S
C292 O282 1.282 . S
C292 O293 1.216 . S
O293 C292 1.216 . S
H294 C289 0.930 . S
H295 C290 0.930 . S
O296 Cu276 1.959 . S
O296 C283 1.251 . S
H297 C280 0.930 . S
H298 C291 0.929 . S
Cu299 N300 1.999 . S
Cu299 O305 1.974 . S
Cu299 N310 1.985 . S
Cu299 O319 1.959 . S
N300 Cu299 1.999 . S
N300 C302 1.263 . S
N300 C304 1.389 . S
N301 C302 1.358 . S
N301 C303 1.400 . S
C302 N300 1.263 . S
C302 N301 1.358 . S
C302 H308 0.930 . S
C303 N301 1.400 . S
C303 C304 1.351 . S
C303 H320 0.930 . S
C304 N300 1.389 . S
C304 C303 1.351 . S
C304 H309 0.930 . S
O305 Cu299 1.974 . S
O305 C315 1.282 . S
C306 O307 1.261 . S
C306 O319 1.251 . S
O307 C306 1.261 . S
H308 C302 0.930 . S
H309 C304 0.930 . S
N310 Cu299 1.985 . S
N310 C312 1.335 . S
N310 C313 1.390 . S
N311 C312 1.345 . S
N311 C314 1.336 . S
C312 N310 1.335 . S
C312 N311 1.345 . S
C312 H317 0.930 . S
C313 N310 1.390 . S
C313 C314 1.346 . S
C313 H318 0.930 . S
C314 N311 1.336 . S
C314 C313 1.346 . S
C314 H321 0.929 . S
C315 O305 1.282 . S
C315 O316 1.216 . S
O316 C315 1.216 . S
H317 C312 0.930 . S
H318 C313 0.930 . S
O319 Cu299 1.959 . S
O319 C306 1.251 . S
H320 C303 0.930 . S
H321 C314 0.929 . S
Cu322 N323 1.999 . S
Cu322 O328 1.974 . S
Cu322 N333 1.985 . S
Cu322 O342 1.959 . S
N323 Cu322 1.999 . S
N323 C325 1.263 . S
N323 C327 1.389 . S
N324 C325 1.358 . S
N324 C326 1.400 . S
C325 N323 1.263 . S
C325 N324 1.358 . S
C325 H331 0.930 . S
C326 N324 1.400 . S
C326 C327 1.351 . S
C326 H343 0.930 . S
C327 N323 1.389 . S
C327 C326 1.351 . S
C327 H332 0.930 . S
O328 Cu322 1.974 . S
O328 C338 1.282 . S
C329 O330 1.261 . S
C329 O342 1.251 . S
O330 C329 1.261 . S
H331 C325 0.930 . S
H332 C327 0.930 . S
N333 Cu322 1.985 . S
N333 C335 1.335 . S
N333 C336 1.390 . S
N334 C335 1.345 . S
N334 C337 1.336 . S
C335 N333 1.335 . S
C335 N334 1.345 . S
C335 H340 0.930 . S
C336 N333 1.390 . S
C336 C337 1.346 . S
C336 H341 0.930 . S
C337 N334 1.336 . S
C337 C336 1.346 . S
C337 H344 0.929 . S
C338 O328 1.282 . S
C338 O339 1.216 . S
O339 C338 1.216 . S
H340 C335 0.930 . S
H341 C336 0.930 . S
O342 Cu322 1.959 . S
O342 C329 1.251 . S
H343 C326 0.930 . S
H344 C337 0.929 . S
Cu345 N346 1.999 . S
Cu345 O351 1.974 . S
Cu345 N356 1.985 . S
Cu345 O365 1.959 . S
N346 Cu345 1.999 . S
N346 C348 1.263 . S
N346 C350 1.389 . S
N347 C348 1.358 . S
N347 C349 1.400 . S
C348 N346 1.263 . S
C348 N347 1.358 . S
C348 H354 0.930 . S
C349 N347 1.400 . S
C349 C350 1.351 . S
C349 H366 0.930 . S
C350 N346 1.389 . S
C350 C349 1.351 . S
C350 H355 0.930 . S
O351 Cu345 1.974 . S
O351 C361 1.282 . S
C352 O353 1.261 . S
C352 O365 1.251 . S
O353 C352 1.261 . S
H354 C348 0.930 . S
H355 C350 0.930 . S
N356 Cu345 1.985 . S
N356 C358 1.335 . S
N356 C359 1.390 . S
N357 C358 1.345 . S
N357 C360 1.336 . S
C358 N356 1.335 . S
C358 N357 1.345 . S
C358 H363 0.930 . S
C359 N356 1.390 . S
C359 C360 1.346 . S
C359 H364 0.930 . S
C360 N357 1.336 . S
C360 C359 1.346 . S
C360 H367 0.929 . S
C361 O351 1.282 . S
C361 O362 1.216 . S
O362 C361 1.216 . S
H363 C358 0.930 . S
H364 C359 0.930 . S
O365 Cu345 1.959 . S
O365 C352 1.251 . S
H366 C349 0.930 . S
H367 C360 0.929 . S
Cu368 N369 1.999 . S
Cu368 O374 1.974 . S
Cu368 N379 1.985 . S
Cu368 O388 1.959 . S
N369 Cu368 1.999 . S
N369 C371 1.263 . S
N369 C373 1.389 . S
N370 C371 1.358 . S
N370 C372 1.400 . S
C371 N369 1.263 . S
C371 N370 1.358 . S
C371 H377 0.930 . S
C372 N370 1.400 . S
C372 C373 1.351 . S
C372 H389 0.930 . S
C373 N369 1.389 . S
C373 C372 1.351 . S
C373 H378 0.930 . S
O374 Cu368 1.974 . S
O374 C384 1.282 . S
C375 O376 1.261 . S
C375 O388 1.251 . S
O376 C375 1.261 . S
H377 C371 0.930 . S
H378 C373 0.930 . S
N379 Cu368 1.985 . S
N379 C381 1.335 . S
N379 C382 1.390 . S
N380 C381 1.345 . S
N380 C383 1.336 . S
C381 N379 1.335 . S
C381 N380 1.345 . S
C381 H386 0.930 . S
C382 N379 1.390 . S
C382 C383 1.346 . S
C382 H387 0.930 . S
C383 N380 1.336 . S
C383 C382 1.346 . S
C383 H390 0.929 . S
C384 O374 1.282 . S
C384 O385 1.216 . S
O385 C384 1.216 . S
H386 C381 0.930 . S
H387 C382 0.930 . S
O388 Cu368 1.959 . S
O388 C375 1.251 . S
H389 C372 0.930 . S
H390 C383 0.929 . S
Cu391 N392 1.999 . S
Cu391 O397 1.974 . S
Cu391 N402 1.985 . S
Cu391 O411 1.959 . S
N392 Cu391 1.999 . S
N392 C394 1.263 . S
N392 C396 1.389 . S
N393 C394 1.358 . S
N393 C395 1.400 . S
C394 N392 1.263 . S
C394 N393 1.358 . S
C394 H400 0.930 . S
C395 N393 1.400 . S
C395 C396 1.351 . S
C395 H412 0.930 . S
C396 N392 1.389 . S
C396 C395 1.351 . S
C396 H401 0.930 . S
O397 Cu391 1.974 . S
O397 C407 1.282 . S
C398 O399 1.261 . S
C398 O411 1.251 . S
O399 C398 1.261 . S
H400 C394 0.930 . S
H401 C396 0.930 . S
N402 Cu391 1.985 . S
N402 C404 1.335 . S
N402 C405 1.390 . S
N403 C404 1.345 . S
N403 C406 1.336 . S
C404 N402 1.335 . S
C404 N403 1.345 . S
C404 H409 0.930 . S
C405 N402 1.390 . S
C405 C406 1.346 . S
C405 H410 0.930 . S
C406 N403 1.336 . S
C406 C405 1.346 . S
C406 H413 0.929 . S
C407 O397 1.282 . S
C407 O408 1.216 . S
O408 C407 1.216 . S
H409 C404 0.930 . S
H410 C405 0.930 . S
O411 Cu391 1.959 . S
O411 C398 1.251 . S
H412 C395 0.930 . S
H413 C406 0.929 . S
Cu414 N415 1.999 . S
Cu414 O420 1.974 . S
Cu414 N425 1.985 . S
Cu414 O434 1.959 . S
N415 Cu414 1.999 . S
N415 C417 1.263 . S
N415 C419 1.389 . S
N416 C417 1.358 . S
N416 C418 1.400 . S
C417 N415 1.263 . S
C417 N416 1.358 . S
C417 H423 0.930 . S
C418 N416 1.400 . S
C418 C419 1.351 . S
C418 H435 0.930 . S
C419 N415 1.389 . S
C419 C418 1.351 . S
C419 H424 0.930 . S
O420 Cu414 1.974 . S
O420 C430 1.282 . S
C421 O422 1.261 . S
C421 O434 1.251 . S
O422 C421 1.261 . S
H423 C417 0.930 . S
H424 C419 0.930 . S
N425 Cu414 1.985 . S
N425 C427 1.335 . S
N425 C428 1.390 . S
N426 C427 1.345 . S
N426 C429 1.336 . S
C427 N425 1.335 . S
C427 N426 1.345 . S
C427 H432 0.930 . S
C428 N425 1.390 . S
C428 C429 1.346 . S
C428 H433 0.930 . S
C429 N426 1.336 . S
C429 C428 1.346 . S
C429 H436 0.929 . S
C430 O420 1.282 . S
C430 O431 1.216 . S
O431 C430 1.216 . S
H432 C427 0.930 . S
H433 C428 0.930 . S
O434 Cu414 1.959 . S
O434 C421 1.251 . S
H435 C418 0.930 . S
H436 C429 0.929 . S
Cu437 N438 1.999 . S
Cu437 O443 1.974 . S
Cu437 N448 1.985 . S
Cu437 O457 1.959 . S
N438 Cu437 1.999 . S
N438 C440 1.263 . S
N438 C442 1.389 . S
N439 C440 1.358 . S
N439 C441 1.400 . S
C440 N438 1.263 . S
C440 N439 1.358 . S
C440 H446 0.930 . S
C441 N439 1.400 . S
C441 C442 1.351 . S
C441 H458 0.930 . S
C442 N438 1.389 . S
C442 C441 1.351 . S
C442 H447 0.930 . S
O443 Cu437 1.974 . S
O443 C453 1.282 . S
C444 O445 1.261 . S
C444 O457 1.251 . S
O445 C444 1.261 . S
H446 C440 0.930 . S
H447 C442 0.930 . S
N448 Cu437 1.985 . S
N448 C450 1.335 . S
N448 C451 1.390 . S
N449 C450 1.345 . S
N449 C452 1.336 . S
C450 N448 1.335 . S
C450 N449 1.345 . S
C450 H455 0.930 . S
C451 N448 1.390 . S
C451 C452 1.346 . S
C451 H456 0.930 . S
C452 N449 1.336 . S
C452 C451 1.346 . S
C452 H459 0.929 . S
C453 O443 1.282 . S
C453 O454 1.216 . S
O454 C453 1.216 . S
H455 C450 0.930 . S
H456 C451 0.930 . S
O457 Cu437 1.959 . S
O457 C444 1.251 . S
H458 C441 0.930 . S
H459 C452 0.929 . S
Cu460 N461 1.999 . S
Cu460 O466 1.974 . S
Cu460 N471 1.985 . S
Cu460 O480 1.959 . S
N461 Cu460 1.999 . S
N461 C463 1.263 . S
N461 C465 1.389 . S
N462 C463 1.358 . S
N462 C464 1.400 . S
C463 N461 1.263 . S
C463 N462 1.358 . S
C463 H469 0.930 . S
C464 N462 1.400 . S
C464 C465 1.351 . S
C464 H481 0.930 . S
C465 N461 1.389 . S
C465 C464 1.351 . S
C465 H470 0.930 . S
O466 Cu460 1.974 . S
O466 C476 1.282 . S
C467 O468 1.261 . S
C467 O480 1.251 . S
O468 C467 1.261 . S
H469 C463 0.930 . S
H470 C465 0.930 . S
N471 Cu460 1.985 . S
N471 C473 1.335 . S
N471 C474 1.390 . S
N472 C473 1.345 . S
N472 C475 1.336 . S
C473 N471 1.335 . S
C473 N472 1.345 . S
C473 H478 0.930 . S
C474 N471 1.390 . S
C474 C475 1.346 . S
C474 H479 0.930 . S
C475 N472 1.336 . S
C475 C474 1.346 . S
C475 H482 0.929 . S
C476 O466 1.282 . S
C476 O477 1.216 . S
O477 C476 1.216 . S
H478 C473 0.930 . S
H479 C474 0.930 . S
O480 Cu460 1.959 . S
O480 C467 1.251 . S
H481 C464 0.930 . S
H482 C475 0.929 . S
Cu483 N484 1.999 . S
Cu483 O489 1.974 . S
Cu483 N494 1.985 . S
Cu483 O503 1.959 . S
N484 Cu483 1.999 . S
N484 C486 1.263 . S
N484 C488 1.389 . S
N485 C486 1.358 . S
N485 C487 1.400 . S
C486 N484 1.263 . S
C486 N485 1.358 . S
C486 H492 0.930 . S
C487 N485 1.400 . S
C487 C488 1.351 . S
C487 H504 0.930 . S
C488 N484 1.389 . S
C488 C487 1.351 . S
C488 H493 0.930 . S
O489 Cu483 1.974 . S
O489 C499 1.282 . S
C490 O491 1.261 . S
C490 O503 1.251 . S
O491 C490 1.261 . S
H492 C486 0.930 . S
H493 C488 0.930 . S
N494 Cu483 1.985 . S
N494 C496 1.335 . S
N494 C497 1.390 . S
N495 C496 1.345 . S
N495 C498 1.336 . S
C496 N494 1.335 . S
C496 N495 1.345 . S
C496 H501 0.930 . S
C497 N494 1.390 . S
C497 C498 1.346 . S
C497 H502 0.930 . S
C498 N495 1.336 . S
C498 C497 1.346 . S
C498 H505 0.929 . S
C499 O489 1.282 . S
C499 O500 1.216 . S
O500 C499 1.216 . S
H501 C496 0.930 . S
H502 C497 0.930 . S
O503 Cu483 1.959 . S
O503 C490 1.251 . S
H504 C487 0.930 . S
H505 C498 0.929 . S
Cu506 N507 1.999 . S
Cu506 O512 1.974 . S
Cu506 N517 1.985 . S
Cu506 O526 1.959 . S
N507 Cu506 1.999 . S
N507 C509 1.263 . S
N507 C511 1.389 . S
N508 C509 1.358 . S
N508 C510 1.400 . S
C509 N507 1.263 . S
C509 N508 1.358 . S
C509 H515 0.930 . S
C510 N508 1.400 . S
C510 C511 1.351 . S
C510 H527 0.930 . S
C511 N507 1.389 . S
C511 C510 1.351 . S
C511 H516 0.930 . S
O512 Cu506 1.974 . S
O512 C522 1.282 . S
C513 O514 1.261 . S
C513 O526 1.251 . S
O514 C513 1.261 . S
H515 C509 0.930 . S
H516 C511 0.930 . S
N517 Cu506 1.985 . S
N517 C519 1.335 . S
N517 C520 1.390 . S
N518 C519 1.345 . S
N518 C521 1.336 . S
C519 N517 1.335 . S
C519 N518 1.345 . S
C519 H524 0.930 . S
C520 N517 1.390 . S
C520 C521 1.346 . S
C520 H525 0.930 . S
C521 N518 1.336 . S
C521 C520 1.346 . S
C521 H528 0.929 . S
C522 O512 1.282 . S
C522 O523 1.216 . S
O523 C522 1.216 . S
H524 C519 0.930 . S
H525 C520 0.930 . S
O526 Cu506 1.959 . S
O526 C513 1.251 . S
H527 C510 0.930 . S
H528 C521 0.929 . S
Cu529 N530 1.999 . S
Cu529 O535 1.974 . S
Cu529 N540 1.985 . S
Cu529 O549 1.959 . S
N530 Cu529 1.999 . S
N530 C532 1.263 . S
N530 C534 1.389 . S
N531 C532 1.358 . S
N531 C533 1.400 . S
C532 N530 1.263 . S
C532 N531 1.358 . S
C532 H538 0.930 . S
C533 N531 1.400 . S
C533 C534 1.351 . S
C533 H550 0.930 . S
C534 N530 1.389 . S
C534 C533 1.351 . S
C534 H539 0.930 . S
O535 Cu529 1.974 . S
O535 C545 1.282 . S
C536 O537 1.261 . S
C536 O549 1.251 . S
O537 C536 1.261 . S
H538 C532 0.930 . S
H539 C534 0.930 . S
N540 Cu529 1.985 . S
N540 C542 1.335 . S
N540 C543 1.390 . S
N541 C542 1.345 . S
N541 C544 1.336 . S
C542 N540 1.335 . S
C542 N541 1.345 . S
C542 H547 0.930 . S
C543 N540 1.390 . S
C543 C544 1.346 . S
C543 H548 0.930 . S
C544 N541 1.336 . S
C544 C543 1.346 . S
C544 H551 0.929 . S
C545 O535 1.282 . S
C545 O546 1.216 . S
O546 C545 1.216 . S
H547 C542 0.930 . S
H548 C543 0.930 . S
O549 Cu529 1.959 . S
O549 C536 1.251 . S
H550 C533 0.930 . S
H551 C544 0.929 . S
C552 C553 1.349 . S
C552 C554 1.327 . S
C552 H577 0.950 . S
C553 C552 1.349 . S
C553 C569 1.349 . S
C554 C552 1.327 . S
C554 C573 1.429 . S
C554 H578 0.950 . S
C555 C572 1.574 . S
C555 C574 1.368 . S
C555 H579 0.949 . S
H556 C560 0.949 . S
C557 C558 1.349 . S
C557 C559 1.327 . S
C557 H580 0.950 . S
C558 C557 1.349 . S
C558 C570 1.349 . S
C559 C557 1.327 . S
C559 C575 1.429 . S
C559 H581 0.950 . S
C560 H556 0.949 . S
C560 C568 1.574 . S
C560 C576 1.368 . S
H561 C569 0.950 . S
H562 C567 0.950 . S
H563 C568 0.949 . S
H564 C570 0.950 . S
H565 C571 0.950 . S
H566 C572 0.949 . S
C567 H562 0.950 . S
C567 C569 1.327 . S
C567 C573 1.429 . S
C568 C560 1.574 . S
C568 H563 0.949 . S
C568 C574 1.368 . S
C569 C553 1.349 . S
C569 H561 0.950 . S
C569 C567 1.327 . S
C570 C558 1.349 . S
C570 H564 0.950 . S
C570 C571 1.327 . S
C571 H565 0.950 . S
C571 C570 1.327 . S
C571 C575 1.429 . S
C572 C555 1.574 . S
C572 H566 0.949 . S
C572 C576 1.368 . S
C573 C554 1.429 . S
C573 C567 1.429 . S
C573 C574 1.523 . S
C574 C555 1.368 . S
C574 C568 1.368 . S
C574 C573 1.523 . S
C575 C559 1.429 . S
C575 C571 1.429 . S
C575 C576 1.523 . S
C576 C560 1.368 . S
C576 C572 1.368 . S
C576 C575 1.523 . S
H577 C552 0.950 . S
H578 C554 0.950 . S
H579 C555 0.949 . S
H580 C557 0.950 . S
H581 C559 0.950 . S
C582 C583 1.349 . S
C582 C584 1.327 . S
C582 H607 0.950 . S
C583 C582 1.349 . S
C583 C599 1.349 . S
C584 C582 1.327 . S
C584 C603 1.429 . S
C584 H608 0.950 . S
C585 C602 1.574 . S
C585 C604 1.368 . S
C585 H609 0.949 . S
H586 C590 0.949 . S
C587 C588 1.349 . S
C587 C589 1.327 . S
C587 H610 0.950 . S
C588 C587 1.349 . S
C588 C600 1.349 . S
C589 C587 1.327 . S
C589 C605 1.429 . S
C589 H611 0.950 . S
C590 H586 0.949 . S
C590 C598 1.574 . S
C590 C606 1.368 . S
H591 C599 0.950 . S
H592 C597 0.950 . S
H593 C598 0.949 . S
H594 C600 0.950 . S
H595 C601 0.950 . S
H596 C602 0.949 . S
C597 H592 0.950 . S
C597 C599 1.327 . S
C597 C603 1.429 . S
C598 C590 1.574 . S
C598 H593 0.949 . S
C598 C604 1.368 . S
C599 C583 1.349 . S
C599 H591 0.950 . S
C599 C597 1.327 . S
C600 C588 1.349 . S
C600 H594 0.950 . S
C600 C601 1.327 . S
C601 H595 0.950 . S
C601 C600 1.327 . S
C601 C605 1.429 . S
C602 C585 1.574 . S
C602 H596 0.949 . S
C602 C606 1.368 . S
C603 C584 1.429 . S
C603 C597 1.429 . S
C603 C604 1.523 . S
C604 C585 1.368 . S
C604 C598 1.368 . S
C604 C603 1.523 . S
C605 C589 1.429 . S
C605 C601 1.429 . S
C605 C606 1.523 . S
C606 C590 1.368 . S
C606 C602 1.368 . S
C606 C605 1.523 . S
H607 C582 0.950 . S
H608 C584 0.950 . S
H609 C585 0.949 . S
H610 C587 0.950 . S
H611 C589 0.950 . S
C612 C613 1.349 . S
C612 C614 1.327 . S
C612 H637 0.950 . S
C613 C612 1.349 . S
C613 C629 1.349 . S
C614 C612 1.327 . S
C614 C633 1.429 . S
C614 H638 0.950 . S
C615 C632 1.574 . S
C615 C634 1.368 . S
C615 H639 0.949 . S
H616 C620 0.949 . S
C617 C618 1.349 . S
C617 C619 1.327 . S
C617 H640 0.950 . S
C618 C617 1.349 . S
C618 C630 1.349 . S
C619 C617 1.327 . S
C619 C635 1.429 . S
C619 H641 0.950 . S
C620 H616 0.949 . S
C620 C628 1.574 . S
C620 C636 1.368 . S
H621 C629 0.950 . S
H622 C627 0.950 . S
H623 C628 0.949 . S
H624 C630 0.950 . S
H625 C631 0.950 . S
H626 C632 0.949 . S
C627 H622 0.950 . S
C627 C629 1.327 . S
C627 C633 1.429 . S
C628 C620 1.574 . S
C628 H623 0.949 . S
C628 C634 1.368 . S
C629 C613 1.349 . S
C629 H621 0.950 . S
C629 C627 1.327 . S
C630 C618 1.349 . S
C630 H624 0.950 . S
C630 C631 1.327 . S
C631 H625 0.950 . S
C631 C630 1.327 . S
C631 C635 1.429 . S
C632 C615 1.574 . S
C632 H626 0.949 . S
C632 C636 1.368 . S
C633 C614 1.429 . S
C633 C627 1.429 . S
C633 C634 1.523 . S
C634 C615 1.368 . S
C634 C628 1.368 . S
C634 C633 1.523 . S
C635 C619 1.429 . S
C635 C631 1.429 . S
C635 C636 1.523 . S
C636 C620 1.368 . S
C636 C632 1.368 . S
C636 C635 1.523 . S
H637 C612 0.950 . S
H638 C614 0.950 . S
H639 C615 0.949 . S
H640 C617 0.950 . S
H641 C619 0.950 . S
C642 C643 1.349 . S
C642 C644 1.327 . S
C642 H667 0.950 . S
C643 C642 1.349 . S
C643 C659 1.349 . S
C644 C642 1.327 . S
C644 C663 1.429 . S
C644 H668 0.950 . S
C645 C662 1.574 . S
C645 C664 1.368 . S
C645 H669 0.949 . S
H646 C650 0.949 . S
C647 C648 1.349 . S
C647 C649 1.327 . S
C647 H670 0.950 . S
C648 C647 1.349 . S
C648 C660 1.349 . S
C649 C647 1.327 . S
C649 C665 1.429 . S
C649 H671 0.950 . S
C650 H646 0.949 . S
C650 C658 1.574 . S
C650 C666 1.368 . S
H651 C659 0.950 . S
H652 C657 0.950 . S
H653 C658 0.949 . S
H654 C660 0.950 . S
H655 C661 0.950 . S
H656 C662 0.949 . S
C657 H652 0.950 . S
C657 C659 1.327 . S
C657 C663 1.429 . S
C658 C650 1.574 . S
C658 H653 0.949 . S
C658 C664 1.368 . S
C659 C643 1.349 . S
C659 H651 0.950 . S
C659 C657 1.327 . S
C660 C648 1.349 . S
C660 H654 0.950 . S
C660 C661 1.327 . S
C661 H655 0.950 . S
C661 C660 1.327 . S
C661 C665 1.429 . S
C662 C645 1.574 . S
C662 H656 0.949 . S
C662 C666 1.368 . S
C663 C644 1.429 . S
C663 C657 1.429 . S
C663 C664 1.523 . S
C664 C645 1.368 . S
C664 C658 1.368 . S
C664 C663 1.523 . S
C665 C649 1.429 . S
C665 C661 1.429 . S
C665 C666 1.523 . S
C666 C650 1.368 . S
C666 C662 1.368 . S
C666 C665 1.523 . S
H667 C642 0.950 . S
H668 C644 0.950 . S
H669 C645 0.949 . S
H670 C647 0.950 . S
H671 C649 0.950 . S
C672 C673 1.349 . S
C672 C674 1.327 . S
C672 H697 0.950 . S
C673 C672 1.349 . S
C673 C689 1.349 . S
C674 C672 1.327 . S
C674 C693 1.429 . S
C674 H698 0.950 . S
C675 C692 1.574 . S
C675 C694 1.368 . S
C675 H699 0.949 . S
H676 C680 0.949 . S
C677 C678 1.349 . S
C677 C679 1.327 . S
C677 H700 0.950 . S
C678 C677 1.349 . S
C678 C690 1.349 . S
C679 C677 1.327 . S
C679 C695 1.429 . S
C679 H701 0.950 . S
C680 H676 0.949 . S
C680 C688 1.574 . S
C680 C696 1.368 . S
H681 C689 0.950 . S
H682 C687 0.950 . S
H683 C688 0.949 . S
H684 C690 0.950 . S
H685 C691 0.950 . S
H686 C692 0.949 . S
C687 H682 0.950 . S
C687 C689 1.327 . S
C687 C693 1.429 . S
C688 C680 1.574 . S
C688 H683 0.949 . S
C688 C694 1.368 . S
C689 C673 1.349 . S
C689 H681 0.950 . S
C689 C687 1.327 . S
C690 C678 1.349 . S
C690 H684 0.950 . S
C690 C691 1.327 . S
C691 H685 0.950 . S
C691 C690 1.327 . S
C691 C695 1.429 . S
C692 C675 1.574 . S
C692 H686 0.949 . S
C692 C696 1.368 . S
C693 C674 1.429 . S
C693 C687 1.429 . S
C693 C694 1.523 . S
C694 C675 1.368 . S
C694 C688 1.368 . S
C694 C693 1.523 . S
C695 C679 1.429 . S
C695 C691 1.429 . S
C695 C696 1.523 . S
C696 C680 1.368 . S
C696 C692 1.368 . S
C696 C695 1.523 . S
H697 C672 0.950 . S
H698 C674 0.950 . S
H699 C675 0.949 . S
H700 C677 0.950 . S
H701 C679 0.950 . S
C702 C703 1.349 . S
C702 C704 1.327 . S
C702 H727 0.950 . S
C703 C702 1.349 . S
C703 C719 1.349 . S
C704 C702 1.327 . S
C704 C723 1.429 . S
C704 H728 0.950 . S
C705 C722 1.574 . S
C705 C724 1.368 . S
C705 H729 0.949 . S
H706 C710 0.949 . S
C707 C708 1.349 . S
C707 C709 1.327 . S
C707 H730 0.950 . S
C708 C707 1.349 . S
C708 C720 1.349 . S
C709 C707 1.327 . S
C709 C725 1.429 . S
C709 H731 0.950 . S
C710 H706 0.949 . S
C710 C718 1.574 . S
C710 C726 1.368 . S
H711 C719 0.950 . S
H712 C717 0.950 . S
H713 C718 0.949 . S
H714 C720 0.950 . S
H715 C721 0.950 . S
H716 C722 0.949 . S
C717 H712 0.950 . S
C717 C719 1.327 . S
C717 C723 1.429 . S
C718 C710 1.574 . S
C718 H713 0.949 . S
C718 C724 1.368 . S
C719 C703 1.349 . S
C719 H711 0.950 . S
C719 C717 1.327 . S
C720 C708 1.349 . S
C720 H714 0.950 . S
C720 C721 1.327 . S
C721 H715 0.950 . S
C721 C720 1.327 . S
C721 C725 1.429 . S
C722 C705 1.574 . S
C722 H716 0.949 . S
C722 C726 1.368 . S
C723 C704 1.429 . S
C723 C717 1.429 . S
C723 C724 1.523 . S
C724 C705 1.368 . S
C724 C718 1.368 . S
C724 C723 1.523 . S
C725 C709 1.429 . S
C725 C721 1.429 . S
C725 C726 1.523 . S
C726 C710 1.368 . S
C726 C722 1.368 . S
C726 C725 1.523 . S
H727 C702 0.950 . S
H728 C704 0.950 . S
H729 C705 0.949 . S
H730 C707 0.950 . S
H731 C709 0.950 . S
C732 C733 1.349 . S
C732 C734 1.327 . S
C732 H757 0.950 . S
C733 C732 1.349 . S
C733 C749 1.349 . S
C734 C732 1.327 . S
C734 C753 1.429 . S
C734 H758 0.950 . S
C735 C752 1.574 . S
C735 C754 1.368 . S
C735 H759 0.949 . S
H736 C740 0.949 . S
C737 C738 1.349 . S
C737 C739 1.327 . S
C737 H760 0.950 . S
C738 C737 1.349 . S
C738 C750 1.349 . S
C739 C737 1.327 . S
C739 C755 1.429 . S
C739 H761 0.950 . S
C740 H736 0.949 . S
C740 C748 1.574 . S
C740 C756 1.368 . S
H741 C749 0.950 . S
H742 C747 0.950 . S
H743 C748 0.949 . S
H744 C750 0.950 . S
H745 C751 0.950 . S
H746 C752 0.949 . S
C747 H742 0.950 . S
C747 C749 1.327 . S
C747 C753 1.429 . S
C748 C740 1.574 . S
C748 H743 0.949 . S
C748 C754 1.368 . S
C749 C733 1.349 . S
C749 H741 0.950 . S
C749 C747 1.327 . S
C750 C738 1.349 . S
C750 H744 0.950 . S
C750 C751 1.327 . S
C751 H745 0.950 . S
C751 C750 1.327 . S
C751 C755 1.429 . S
C752 C735 1.574 . S
C752 H746 0.949 . S
C752 C756 1.368 . S
C753 C734 1.429 . S
C753 C747 1.429 . S
C753 C754 1.523 . S
C754 C735 1.368 . S
C754 C748 1.368 . S
C754 C753 1.523 . S
C755 C739 1.429 . S
C755 C751 1.429 . S
C755 C756 1.523 . S
C756 C740 1.368 . S
C756 C752 1.368 . S
C756 C755 1.523 . S
H757 C732 0.950 . S
H758 C734 0.950 . S
H759 C735 0.949 . S
H760 C737 0.950 . S
H761 C739 0.950 . S
C762 C763 1.349 . S
C762 C764 1.327 . S
C762 H787 0.950 . S
C763 C762 1.349 . S
C763 C779 1.349 . S
C764 C762 1.327 . S
C764 C783 1.429 . S
C764 H788 0.950 . S
C765 C782 1.574 . S
C765 C784 1.368 . S
C765 H789 0.949 . S
H766 C770 0.949 . S
C767 C768 1.349 . S
C767 C769 1.327 . S
C767 H790 0.950 . S
C768 C767 1.349 . S
C768 C780 1.349 . S
C769 C767 1.327 . S
C769 C785 1.429 . S
C769 H791 0.950 . S
C770 H766 0.949 . S
C770 C778 1.574 . S
C770 C786 1.368 . S
H771 C779 0.950 . S
H772 C777 0.950 . S
H773 C778 0.949 . S
H774 C780 0.950 . S
H775 C781 0.950 . S
H776 C782 0.949 . S
C777 H772 0.950 . S
C777 C779 1.327 . S
C777 C783 1.429 . S
C778 C770 1.574 . S
C778 H773 0.949 . S
C778 C784 1.368 . S
C779 C763 1.349 . S
C779 H771 0.950 . S
C779 C777 1.327 . S
C780 C768 1.349 . S
C780 H774 0.950 . S
C780 C781 1.327 . S
C781 H775 0.950 . S
C781 C780 1.327 . S
C781 C785 1.429 . S
C782 C765 1.574 . S
C782 H776 0.949 . S
C782 C786 1.368 . S
C783 C764 1.429 . S
C783 C777 1.429 . S
C783 C784 1.523 . S
C784 C765 1.368 . S
C784 C778 1.368 . S
C784 C783 1.523 . S
C785 C769 1.429 . S
C785 C781 1.429 . S
C785 C786 1.523 . S
C786 C770 1.368 . S
C786 C782 1.368 . S
C786 C785 1.523 . S
H787 C762 0.950 . S
H788 C764 0.950 . S
H789 C765 0.949 . S
H790 C767 0.950 . S
H791 C769 0.950 . S
C792 C793 1.349 . S
C792 C794 1.327 . S
C792 H817 0.950 . S
C793 C792 1.349 . S
C793 C809 1.349 . S
C794 C792 1.327 . S
C794 C813 1.429 . S
C794 H818 0.950 . S
C795 C812 1.574 . S
C795 C814 1.368 . S
C795 H819 0.949 . S
H796 C800 0.949 . S
C797 C798 1.349 . S
C797 C799 1.327 . S
C797 H820 0.950 . S
C798 C797 1.349 . S
C798 C810 1.349 . S
C799 C797 1.327 . S
C799 C815 1.429 . S
C799 H821 0.950 . S
C800 H796 0.949 . S
C800 C808 1.574 . S
C800 C816 1.368 . S
H801 C809 0.950 . S
H802 C807 0.950 . S
H803 C808 0.949 . S
H804 C810 0.950 . S
H805 C811 0.950 . S
H806 C812 0.949 . S
C807 H802 0.950 . S
C807 C809 1.327 . S
C807 C813 1.429 . S
C808 C800 1.574 . S
C808 H803 0.949 . S
C808 C814 1.368 . S
C809 C793 1.349 . S
C809 H801 0.950 . S
C809 C807 1.327 . S
C810 C798 1.349 . S
C810 H804 0.950 . S
C810 C811 1.327 . S
C811 H805 0.950 . S
C811 C810 1.327 . S
C811 C815 1.429 . S
C812 C795 1.574 . S
C812 H806 0.949 . S
C812 C816 1.368 . S
C813 C794 1.429 . S
C813 C807 1.429 . S
C813 C814 1.523 . S
C814 C795 1.368 . S
C814 C808 1.368 . S
C814 C813 1.523 . S
C815 C799 1.429 . S
C815 C811 1.429 . S
C815 C816 1.523 . S
C816 C800 1.368 . S
C816 C812 1.368 . S
C816 C815 1.523 . S
H817 C792 0.950 . S
H818 C794 0.950 . S
H819 C795 0.949 . S
H820 C797 0.950 . S
H821 C799 0.950 . S
C822 C823 1.349 . S
C822 C824 1.327 . S
C822 H847 0.950 . S
C823 C822 1.349 . S
C823 C839 1.349 . S
C824 C822 1.327 . S
C824 C843 1.429 . S
C824 H848 0.950 . S
C825 C842 1.574 . S
C825 C844 1.368 . S
C825 H849 0.949 . S
H826 C830 0.949 . S
C827 C828 1.349 . S
C827 C829 1.327 . S
C827 H850 0.950 . S
C828 C827 1.349 . S
C828 C840 1.349 . S
C829 C827 1.327 . S
C829 C845 1.429 . S
C829 H851 0.950 . S
C830 H826 0.949 . S
C830 C838 1.574 . S
C830 C846 1.368 . S
H831 C839 0.950 . S
H832 C837 0.950 . S
H833 C838 0.949 . S
H834 C840 0.950 . S
H835 C841 0.950 . S
H836 C842 0.949 . S
C837 H832 0.950 . S
C837 C839 1.327 . S
C837 C843 1.429 . S
C838 C830 1.574 . S
C838 H833 0.949 . S
C838 C844 1.368 . S
C839 C823 1.349 . S
C839 H831 0.950 . S
C839 C837 1.327 . S
C840 C828 1.349 . S
C840 H834 0.950 . S
C840 C841 1.327 . S
C841 H835 0.950 . S
C841 C840 1.327 . S
C841 C845 1.429 . S
C842 C825 1.574 . S
C842 H836 0.949 . S
C842 C846 1.368 . S
C843 C824 1.429 . S
C843 C837 1.429 . S
C843 C844 1.523 . S
C844 C825 1.368 . S
C844 C838 1.368 . S
C844 C843 1.523 . S
C845 C829 1.429 . S
C845 C841 1.429 . S
C845 C846 1.523 . S
C846 C830 1.368 . S
C846 C842 1.368 . S
C846 C845 1.523 . S
H847 C822 0.950 . S
H848 C824 0.950 . S
H849 C825 0.949 . S
H850 C827 0.950 . S
H851 C829 0.950 . S
C852 C853 1.349 . S
C852 C854 1.327 . S
C852 H877 0.950 . S
C853 C852 1.349 . S
C853 C869 1.349 . S
C854 C852 1.327 . S
C854 C873 1.429 . S
C854 H878 0.950 . S
C855 C872 1.574 . S
C855 C874 1.368 . S
C855 H879 0.949 . S
H856 C860 0.949 . S
C857 C858 1.349 . S
C857 C859 1.327 . S
C857 H880 0.950 . S
C858 C857 1.349 . S
C858 C870 1.349 . S
C859 C857 1.327 . S
C859 C875 1.429 . S
C859 H881 0.950 . S
C860 H856 0.949 . S
C860 C868 1.574 . S
C860 C876 1.368 . S
H861 C869 0.950 . S
H862 C867 0.950 . S
H863 C868 0.949 . S
H864 C870 0.950 . S
H865 C871 0.950 . S
H866 C872 0.949 . S
C867 H862 0.950 . S
C867 C869 1.327 . S
C867 C873 1.429 . S
C868 C860 1.574 . S
C868 H863 0.949 . S
C868 C874 1.368 . S
C869 C853 1.349 . S
C869 H861 0.950 . S
C869 C867 1.327 . S
C870 C858 1.349 . S
C870 H864 0.950 . S
C870 C871 1.327 . S
C871 H865 0.950 . S
C871 C870 1.327 . S
C871 C875 1.429 . S
C872 C855 1.574 . S
C872 H866 0.949 . S
C872 C876 1.368 . S
C873 C854 1.429 . S
C873 C867 1.429 . S
C873 C874 1.523 . S
C874 C855 1.368 . S
C874 C868 1.368 . S
C874 C873 1.523 . S
C875 C859 1.429 . S
C875 C871 1.429 . S
C875 C876 1.523 . S
C876 C860 1.368 . S
C876 C872 1.368 . S
C876 C875 1.523 . S
H877 C852 0.950 . S
H878 C854 0.950 . S
H879 C855 0.949 . S
H880 C857 0.950 . S
H881 C859 0.950 . S
C882 C883 1.349 . S
C882 C884 1.327 . S
C882 H907 0.950 . S
C883 C882 1.349 . S
C883 C899 1.349 . S
C884 C882 1.327 . S
C884 C903 1.429 . S
C884 H908 0.950 . S
C885 C902 1.574 . S
C885 C904 1.368 . S
C885 H909 0.949 . S
H886 C890 0.949 . S
C887 C888 1.349 . S
C887 C889 1.327 . S
C887 H910 0.950 . S
C888 C887 1.349 . S
C888 C900 1.349 . S
C889 C887 1.327 . S
C889 C905 1.429 . S
C889 H911 0.950 . S
C890 H886 0.949 . S
C890 C898 1.574 . S
C890 C906 1.368 . S
H891 C899 0.950 . S
H892 C897 0.950 . S
H893 C898 0.949 . S
H894 C900 0.950 . S
H895 C901 0.950 . S
H896 C902 0.949 . S
C897 H892 0.950 . S
C897 C899 1.327 . S
C897 C903 1.429 . S
C898 C890 1.574 . S
C898 H893 0.949 . S
C898 C904 1.368 . S
C899 C883 1.349 . S
C899 H891 0.950 . S
C899 C897 1.327 . S
C900 C888 1.349 . S
C900 H894 0.950 . S
C900 C901 1.327 . S
C901 H895 0.950 . S
C901 C900 1.327 . S
C901 C905 1.429 . S
C902 C885 1.574 . S
C902 H896 0.949 . S
C902 C906 1.368 . S
C903 C884 1.429 . S
C903 C897 1.429 . S
C903 C904 1.523 . S
C904 C885 1.368 . S
C904 C898 1.368 . S
C904 C903 1.523 . S
C905 C889 1.429 . S
C905 C901 1.429 . S
C905 C906 1.523 . S
C906 C890 1.368 . S
C906 C902 1.368 . S
C906 C905 1.523 . S
H907 C882 0.950 . S
H908 C884 0.950 . S
H909 C885 0.949 . S
H910 C887 0.950 . S
H911 C889 0.950 . S
C912 C913 1.349 . S
C912 C914 1.327 . S
C912 H937 0.950 . S
C913 C912 1.349 . S
C913 C929 1.349 . S
C914 C912 1.327 . S
C914 C933 1.429 1_565 S
C914 H938 0.950 . S
C915 C932 1.574 . S
C915 C934 1.368 . S
C915 H939 0.949 . S
H916 C920 0.949 . S
C917 C918 1.349 . S
C917 C919 1.327 . S
C917 H940 0.950 . S
C918 C917 1.349 . S
C918 C930 1.349 . S
C919 C917 1.327 . S
C919 C935 1.429 . S
C919 H941 0.950 . S
C920 H916 0.949 . S
C920 C928 1.574 . S
C920 C936 1.368 . S
H921 C929 0.949 1_545 S
H922 C927 0.950 . S
H923 C928 0.949 1_565 S
H924 C930 0.950 . S
H925 C931 0.950 . S
H926 C932 0.949 . S
C927 H922 0.950 . S
C927 C929 1.327 1_545 S
C927 C933 1.429 . S
C928 C920 1.574 . S
C928 H923 0.949 1_545 S
C928 C934 1.368 . S
C929 C913 1.349 . S
C929 H921 0.949 1_565 S
C929 C927 1.327 1_565 S
C930 C918 1.349 . S
C930 H924 0.950 . S
C930 C931 1.327 . S
C931 H925 0.950 . S
C931 C930 1.327 . S
C931 C935 1.429 . S
C932 C915 1.574 . S
C932 H926 0.949 . S
C932 C936 1.368 . S
C933 C914 1.429 1_545 S
C933 C927 1.429 . S
C933 C934 1.523 . S
C934 C915 1.368 . S
C934 C928 1.368 . S
C934 C933 1.523 . S
C935 C919 1.429 . S
C935 C931 1.429 . S
C935 C936 1.523 . S
C936 C920 1.368 . S
C936 C932 1.368 . S
C936 C935 1.523 . S
H937 C912 0.950 . S
H938 C914 0.950 . S
H939 C915 0.949 . S
H940 C917 0.950 . S
H941 C919 0.950 . S
C942 C943 1.349 . S
C942 C944 1.327 . S
C942 H967 0.950 . S
C943 C942 1.349 . S
C943 C959 1.349 . S
C944 C942 1.327 . S
C944 C963 1.458 . S
C944 H968 0.950 . S
C945 C962 1.574 . S
C945 C964 1.368 . S
C945 H969 0.949 . S
H946 C950 0.949 . S
C947 C948 1.349 . S
C947 C949 1.327 . S
C947 H970 0.950 . S
C948 C947 1.349 . S
C948 C960 1.349 . S
C949 C947 1.327 . S
C949 C965 1.429 . S
C949 H971 0.950 . S
C950 H946 0.949 . S
C950 C958 1.574 . S
C950 C966 1.368 . S
H951 C959 0.950 . S
H952 C957 0.950 1_455 S
H953 C958 0.949 . S
H954 C960 0.950 . S
H955 C961 0.950 . S
H956 C962 0.949 . S
C957 H952 0.950 1_655 S
C957 C959 1.327 . S
C957 C963 1.433 . S
C958 C950 1.574 . S
C958 H953 0.949 . S
C958 C964 1.368 . S
C959 C943 1.349 . S
C959 H951 0.950 . S
C959 C957 1.327 . S
C960 C948 1.349 . S
C960 H954 0.950 . S
C960 C961 1.327 . S
C961 H955 0.950 . S
C961 C960 1.327 . S
C961 C965 1.429 . S
C962 C945 1.574 . S
C962 H956 0.949 . S
C962 C966 1.368 . S
C963 C944 1.458 . S
C963 C957 1.433 . S
C963 C964 1.493 1_655 S
C964 C945 1.368 . S
C964 C958 1.368 . S
C964 C963 1.493 1_455 S
C965 C949 1.429 . S
C965 C961 1.429 . S
C965 C966 1.523 . S
C966 C950 1.368 . S
C966 C962 1.368 . S
C966 C965 1.523 . S
H967 C942 0.950 . S
H968 C944 0.950 . S
H969 C945 0.949 . S
H970 C947 0.950 . S
H971 C949 0.950 . S
C972 C973 1.349 . S
C972 C974 1.327 . S
C972 H997 0.950 . S
C973 C972 1.349 . S
C973 C989 1.349 . S
C974 C972 1.327 . S
C974 C993 1.429 . S
C974 H998 0.950 1_545 S
C975 C992 1.574 1_545 S
C975 C994 1.368 1_545 S
C975 H999 0.949 . S
H976 C980 0.949 . S
C977 C978 1.349 . S
C977 C979 1.327 . S
C977 H1000 0.950 . S
C978 C977 1.349 . S
C978 C990 1.349 . S
C979 C977 1.327 . S
C979 C995 1.429 . S
C979 H1001 0.950 . S
C980 H976 0.949 . S
C980 C988 1.574 . S
C980 C996 1.368 . S
H981 C989 0.950 . S
H982 C987 0.950 . S
H983 C988 0.949 . S
H984 C990 0.950 . S
H985 C991 0.950 . S
H986 C992 0.949 . S
C987 H982 0.950 . S
C987 C989 1.327 . S
C987 C993 1.429 . S
C988 C980 1.574 . S
C988 H983 0.949 . S
C988 C994 1.368 . S
C989 C973 1.349 . S
C989 H981 0.950 . S
C989 C987 1.327 . S
C990 C978 1.349 . S
C990 H984 0.950 . S
C990 C991 1.327 . S
C991 H985 0.950 . S
C991 C990 1.327 . S
C991 C995 1.429 . S
C992 C975 1.574 1_565 S
C992 H986 0.949 . S
C992 C996 1.368 . S
C993 C974 1.429 . S
C993 C987 1.429 . S
C993 C994 1.523 1_545 S
C994 C975 1.368 1_565 S
C994 C988 1.368 . S
C994 C993 1.523 1_565 S
C995 C979 1.429 . S
C995 C991 1.429 . S
C995 C996 1.523 . S
C996 C980 1.368 . S
C996 C992 1.368 . S
C996 C995 1.523 . S
H997 C972 0.950 . S
H998 C974 0.950 1_565 S
H999 C975 0.949 . S
H1000 C977 0.950 . S
H1001 C979 0.950 . S
C1002 C1003 1.349 . S
C1002 C1004 1.327 . S
C1002 H1027 0.950 . S
C1003 C1002 1.349 . S
C1003 C1019 1.349 . S
C1004 C1002 1.327 . S
C1004 C1023 1.429 . S
C1004 H1028 0.950 1_455 S
C1005 C1022 1.574 . S
C1005 C1024 1.368 . S
C1005 H1029 0.926 1_655 S
H1006 C1010 0.949 . S
C1007 C1008 1.349 . S
C1007 C1009 1.327 . S
C1007 H1030 0.950 . S
C1008 C1007 1.349 . S
C1008 C1020 1.349 . S
C1009 C1007 1.327 . S
C1009 C1025 1.429 . S
C1009 H1031 0.950 . S
C1010 H1006 0.949 . S
C1010 C1018 1.574 . S
C1010 C1026 1.368 . S
H1011 C1019 0.950 . S
H1012 C1017 0.950 . S
H1013 C1018 0.949 . S
H1014 C1020 0.950 . S
H1015 C1021 0.950 . S
H1016 C1022 0.949 . S
C1017 H1012 0.950 . S
C1017 C1019 1.327 . S
C1017 C1023 1.429 . S
C1018 C1010 1.574 . S
C1018 H1013 0.949 . S
C1018 C1024 1.368 . S
C1019 C1003 1.349 . S
C1019 H1011 0.950 . S
C1019 C1017 1.327 . S
C1020 C1008 1.349 . S
C1020 H1014 0.950 . S
C1020 C1021 1.327 . S
C1021 H1015 0.950 . S
C1021 C1020 1.327 . S
C1021 C1025 1.429 . S
C1022 C1005 1.574 . S
C1022 H1016 0.949 . S
C1022 C1026 1.368 . S
C1023 C1004 1.429 . S
C1023 C1017 1.429 . S
C1023 C1024 1.523 1_455 S
C1024 C1005 1.368 . S
C1024 C1018 1.368 . S
C1024 C1023 1.523 1_655 S
C1025 C1009 1.429 . S
C1025 C1021 1.429 . S
C1025 C1026 1.523 . S
C1026 C1010 1.368 . S
C1026 C1022 1.368 . S
C1026 C1025 1.523 . S
H1027 C1002 0.950 . S
H1028 C1004 0.950 1_655 S
H1029 C1005 0.926 1_455 S
H1030 C1007 0.950 . S
H1031 C1009 0.950 . S
C1032 C1033 1.349 . S
C1032 C1034 1.327 . S
C1032 H1057 0.950 . S
C1033 C1032 1.349 . S
C1033 C1049 1.349 . S
C1034 C1032 1.327 . S
C1034 C1053 1.429 . S
C1034 H1058 0.950 . S
C1035 C1052 1.574 . S
C1035 C1054 1.368 . S
C1035 H1059 0.949 . S
H1036 C1040 0.949 . S
C1037 C1038 1.349 . S
C1037 C1039 1.327 . S
C1037 H1060 0.950 . S
C1038 C1037 1.349 . S
C1038 C1050 1.349 . S
C1039 C1037 1.327 . S
C1039 C1055 1.429 . S
C1039 H1061 0.950 1_545 S
C1040 H1036 0.949 . S
C1040 C1048 1.574 1_545 S
C1040 C1056 1.368 1_545 S
H1041 C1049 0.950 . S
H1042 C1047 0.950 . S
H1043 C1048 0.949 . S
H1044 C1050 0.950 . S
H1045 C1051 0.950 . S
H1046 C1052 0.949 . S
C1047 H1042 0.950 . S
C1047 C1049 1.327 . S
C1047 C1053 1.429 . S
C1048 C1040 1.574 1_565 S
C1048 H1043 0.949 . S
C1048 C1054 1.368 . S
C1049 C1033 1.349 . S
C1049 H1041 0.950 . S
C1049 C1047 1.327 . S
C1050 C1038 1.349 . S
C1050 H1044 0.950 . S
C1050 C1051 1.327 . S
C1051 H1045 0.950 . S
C1051 C1050 1.327 . S
C1051 C1055 1.429 . S
C1052 C1035 1.574 . S
C1052 H1046 0.949 . S
C1052 C1056 1.368 . S
C1053 C1034 1.429 . S
C1053 C1047 1.429 . S
C1053 C1054 1.523 . S
C1054 C1035 1.368 . S
C1054 C1048 1.368 . S
C1054 C1053 1.523 . S
C1055 C1039 1.429 . S
C1055 C1051 1.429 . S
C1055 C1056 1.523 1_545 S
C1056 C1040 1.368 1_565 S
C1056 C1052 1.368 . S
C1056 C1055 1.523 1_565 S
H1057 C1032 0.950 . S
H1058 C1034 0.950 . S
H1059 C1035 0.949 . S
H1060 C1037 0.950 . S
H1061 C1039 0.950 1_565 S
C1062 C1063 1.349 . S
C1062 C1064 1.327 . S
C1062 H1087 0.950 . S
C1063 C1062 1.349 . S
C1063 C1079 1.349 . S
C1064 C1062 1.327 . S
C1064 C1083 1.429 . S
C1064 H1088 0.950 . S
C1065 C1082 1.574 . S
C1065 C1084 1.368 . S
C1065 H1089 0.949 . S
H1066 C1070 0.949 . S
C1067 C1068 1.349 . S
C1067 C1069 1.327 . S
C1067 H1090 0.950 . S
C1068 C1067 1.349 . S
C1068 C1080 1.349 . S
C1069 C1067 1.327 . S
C1069 C1085 1.429 . S
C1069 H1091 0.950 . S
C1070 H1066 0.949 . S
C1070 C1078 1.574 . S
C1070 C1086 1.368 . S
H1071 C1079 0.950 . S
H1072 C1077 0.950 . S
H1073 C1078 0.949 . S
H1074 C1080 0.950 . S
H1075 C1081 0.950 1_655 S
H1076 C1082 0.949 1_455 S
C1077 H1072 0.950 . S
C1077 C1079 1.327 . S
C1077 C1083 1.429 . S
C1078 C1070 1.574 . S
C1078 H1073 0.949 . S
C1078 C1084 1.368 . S
C1079 C1063 1.349 . S
C1079 H1071 0.950 . S
C1079 C1077 1.327 . S
C1080 C1068 1.349 . S
C1080 H1074 0.950 . S
C1080 C1081 1.327 . S
C1081 H1075 0.950 1_455 S
C1081 C1080 1.327 . S
C1081 C1085 1.429 . S
C1082 C1065 1.574 . S
C1082 H1076 0.949 1_655 S
C1082 C1086 1.368 . S
C1083 C1064 1.429 . S
C1083 C1077 1.429 . S
C1083 C1084 1.523 . S
C1084 C1065 1.368 . S
C1084 C1078 1.368 . S
C1084 C1083 1.523 . S
C1085 C1069 1.429 . S
C1085 C1081 1.429 . S
C1085 C1086 1.523 1_455 S
C1086 C1070 1.368 . S
C1086 C1082 1.368 . S
C1086 C1085 1.523 1_655 S
H1087 C1062 0.950 . S
H1088 C1064 0.950 . S
H1089 C1065 0.949 . S
H1090 C1067 0.950 . S
H1091 C1069 0.950 . S
C1092 C1093 1.349 . S
C1092 C1094 1.327 . S
C1092 H1117 0.950 . S
C1093 C1092 1.349 . S
C1093 C1109 1.349 . S
C1094 C1092 1.327 . S
C1094 C1113 1.429 . S
C1094 H1118 0.950 . S
C1095 C1112 1.574 1_565 S
C1095 C1114 1.368 . S
C1095 H1119 0.949 . S
H1096 C1100 0.949 . S
C1097 C1098 1.349 . S
C1097 C1099 1.327 . S
C1097 H1120 0.950 . S
C1098 C1097 1.349 . S
C1098 C1110 1.349 . S
C1099 C1097 1.327 . S
C1099 C1115 1.429 . S
C1099 H1121 0.950 . S
C1100 H1096 0.949 . S
C1100 C1108 1.574 . S
C1100 C1116 1.368 . S
H1101 C1109 0.950 . S
H1102 C1107 0.950 . S
H1103 C1108 0.949 . S
H1104 C1110 0.950 . S
H1105 C1111 0.950 . S
H1106 C1112 0.945 1_565 S
C1107 H1102 0.950 . S
C1107 C1109 1.327 . S
C1107 C1113 1.429 . S
C1108 C1100 1.574 . S
C1108 H1103 0.949 . S
C1108 C1114 1.368 1_545 S
C1109 C1093 1.349 . S
C1109 H1101 0.950 . S
C1109 C1107 1.327 . S
C1110 C1098 1.349 . S
C1110 H1104 0.950 . S
C1110 C1111 1.327 . S
C1111 H1105 0.950 . S
C1111 C1110 1.327 . S
C1111 C1115 1.429 . S
C1112 C1095 1.574 1_545 S
C1112 H1106 0.945 1_545 S
C1112 C1116 1.368 . S
C1113 C1094 1.429 . S
C1113 C1107 1.429 . S
C1113 C1114 1.523 . S
C1114 C1095 1.368 . S
C1114 C1108 1.368 1_565 S
C1114 C1113 1.523 . S
C1115 C1099 1.429 . S
C1115 C1111 1.429 . S
C1115 C1116 1.523 . S
C1116 C1100 1.368 . S
C1116 C1112 1.368 . S
C1116 C1115 1.523 . S
H1117 C1092 0.950 . S
H1118 C1094 0.950 . S
H1119 C1095 0.949 . S
H1120 C1097 0.950 . S
H1121 C1099 0.950 . S
C1122 C1123 1.349 . S
C1122 C1124 1.327 . S
C1122 H1147 0.950 . S
C1123 C1122 1.349 . S
C1123 C1139 1.349 . S
C1124 C1122 1.327 . S
C1124 C1143 1.429 . S
C1124 H1148 0.950 . S
C1125 C1142 1.574 . S
C1125 C1144 1.368 . S
C1125 H1149 0.949 . S
H1126 C1130 0.947 1_655 S
C1127 C1128 1.349 . S
C1127 C1129 1.327 . S
C1127 H1150 0.950 . S
C1128 C1127 1.349 . S
C1128 C1140 1.349 . S
C1129 C1127 1.327 . S
C1129 C1145 1.429 . S
C1129 H1151 0.950 . S
C1130 H1126 0.947 1_455 S
C1130 C1138 1.574 . S
C1130 C1146 1.368 . S
H1131 C1139 0.950 . S
H1132 C1137 0.950 . S
H1133 C1138 0.949 . S
H1134 C1140 0.950 . S
H1135 C1141 0.950 . S
H1136 C1142 0.949 . S
C1137 H1132 0.950 . S
C1137 C1139 1.327 . S
C1137 C1143 1.429 . S
C1138 C1130 1.574 . S
C1138 H1133 0.949 . S
C1138 C1144 1.368 . S
C1139 C1123 1.349 . S
C1139 H1131 0.950 . S
C1139 C1137 1.327 . S
C1140 C1128 1.349 . S
C1140 H1134 0.950 . S
C1140 C1141 1.327 . S
C1141 H1135 0.950 . S
C1141 C1140 1.327 . S
C1141 C1145 1.429 . S
C1142 C1125 1.574 . S
C1142 H1136 0.949 . S
C1142 C1146 1.368 . S
C1143 C1124 1.429 . S
C1143 C1137 1.429 . S
C1143 C1144 1.523 . S
C1144 C1125 1.368 . S
C1144 C1138 1.368 . S
C1144 C1143 1.523 . S
C1145 C1129 1.429 . S
C1145 C1141 1.429 . S
C1145 C1146 1.523 1_655 S
C1146 C1130 1.368 . S
C1146 C1142 1.368 . S
C1146 C1145 1.523 1_455 S
H1147 C1122 0.950 . S
H1148 C1124 0.950 . S
H1149 C1125 0.949 . S
H1150 C1127 0.950 . S
H1151 C1129 0.950 . S
C1152 C1153 1.349 . S
C1152 C1154 1.327 . S
C1152 H1177 0.950 . S
C1153 C1152 1.349 . S
C1153 C1169 1.349 . S
C1154 C1152 1.327 . S
C1154 C1173 1.429 . S
C1154 H1178 0.950 . S
C1155 C1172 1.574 . S
C1155 C1174 1.368 . S
C1155 H1179 0.949 . S
H1156 C1160 0.949 . S
C1157 C1158 1.349 . S
C1157 C1159 1.327 . S
C1157 H1180 0.950 . S
C1158 C1157 1.349 . S
C1158 C1170 1.349 . S
C1159 C1157 1.327 . S
C1159 C1175 1.429 . S
C1159 H1181 0.950 . S
C1160 H1156 0.949 . S
C1160 C1168 1.574 . S
C1160 C1176 1.368 . S
H1161 C1169 0.950 . S
H1162 C1167 0.950 1_554 S
H1163 C1168 0.949 1_556 S
H1164 C1170 0.950 . S
H1165 C1171 0.950 . S
H1166 C1172 0.949 . S
C1167 H1162 0.950 1_556 S
C1167 C1169 1.327 . S
C1167 C1173 1.429 . S
C1168 C1160 1.574 . S
C1168 H1163 0.949 1_554 S
C1168 C1174 1.368 . S
C1169 C1153 1.349 . S
C1169 H1161 0.950 . S
C1169 C1167 1.327 . S
C1170 C1158 1.349 . S
C1170 H1164 0.950 . S
C1170 C1171 1.327 . S
C1171 H1165 0.950 . S
C1171 C1170 1.327 . S
C1171 C1175 1.429 . S
C1172 C1155 1.574 . S
C1172 H1166 0.949 . S
C1172 C1176 1.368 . S
C1173 C1154 1.429 . S
C1173 C1167 1.429 . S
C1173 C1174 1.523 1_556 S
C1174 C1155 1.368 . S
C1174 C1168 1.368 . S
C1174 C1173 1.523 1_554 S
C1175 C1159 1.429 . S
C1175 C1171 1.429 . S
C1175 C1176 1.523 . S
C1176 C1160 1.368 . S
C1176 C1172 1.368 . S
C1176 C1175 1.523 . S
H1177 C1152 0.950 . S
H1178 C1154 0.950 . S
H1179 C1155 0.949 . S
H1180 C1157 0.950 . S
H1181 C1159 0.950 . S
C1182 C1183 1.349 . S
C1182 C1184 1.327 . S
C1182 H1207 0.950 . S
C1183 C1182 1.349 . S
C1183 C1199 1.349 . S
C1184 C1182 1.327 . S
C1184 C1203 1.429 . S
C1184 H1208 0.950 1_554 S
C1185 C1202 1.574 . S
C1185 C1204 1.368 . S
C1185 H1209 0.949 1_556 S
H1186 C1190 0.949 . S
C1187 C1188 1.349 . S
C1187 C1189 1.327 . S
C1187 H1210 0.950 . S
C1188 C1187 1.349 . S
C1188 C1200 1.349 . S
C1189 C1187 1.327 . S
C1189 C1205 1.429 . S
C1189 H1211 0.950 . S
C1190 H1186 0.949 . S
C1190 C1198 1.574 . S
C1190 C1206 1.368 . S
H1191 C1199 0.950 . S
H1192 C1197 0.950 . S
H1193 C1198 0.949 . S
H1194 C1200 0.950 . S
H1195 C1201 0.950 . S
H1196 C1202 0.949 . S
C1197 H1192 0.950 . S
C1197 C1199 1.327 . S
C1197 C1203 1.429 . S
C1198 C1190 1.574 . S
C1198 H1193 0.949 . S
C1198 C1204 1.368 . S
C1199 C1183 1.349 . S
C1199 H1191 0.950 . S
C1199 C1197 1.327 . S
C1200 C1188 1.349 . S
C1200 H1194 0.950 . S
C1200 C1201 1.327 . S
C1201 H1195 0.950 . S
C1201 C1200 1.327 . S
C1201 C1205 1.429 . S
C1202 C1185 1.574 . S
C1202 H1196 0.949 . S
C1202 C1206 1.368 . S
C1203 C1184 1.429 . S
C1203 C1197 1.429 . S
C1203 C1204 1.523 1_554 S
C1204 C1185 1.368 . S
C1204 C1198 1.368 . S
C1204 C1203 1.523 1_556 S
C1205 C1189 1.429 . S
C1205 C1201 1.429 . S
C1205 C1206 1.523 . S
C1206 C1190 1.368 . S
C1206 C1202 1.368 . S
C1206 C1205 1.523 . S
H1207 C1182 0.950 . S
H1208 C1184 0.950 1_556 S
H1209 C1185 0.949 1_554 S
H1210 C1187 0.950 . S
H1211 C1189 0.950 . S
C1212 C1213 1.349 . S
C1212 C1214 1.327 . S
C1212 H1237 0.950 . S
C1213 C1212 1.349 . S
C1213 C1229 1.349 . S
C1214 C1212 1.327 . S
C1214 C1233 1.429 . S
C1214 H1238 0.950 1_556 S
C1215 C1232 1.574 1_556 S
C1215 C1234 1.368 1_556 S
C1215 H1239 0.949 . S
H1216 C1220 0.949 . S
C1217 C1218 1.349 . S
C1217 C1219 1.327 . S
C1217 H1240 0.950 . S
C1218 C1217 1.349 . S
C1218 C1230 1.349 . S
C1219 C1217 1.327 . S
C1219 C1235 1.429 . S
C1219 H1241 0.950 . S
C1220 H1216 0.949 . S
C1220 C1228 1.574 . S
C1220 C1236 1.368 . S
H1221 C1229 0.950 . S
H1222 C1227 0.950 . S
H1223 C1228 0.949 . S
H1224 C1230 0.950 . S
H1225 C1231 0.950 . S
H1226 C1232 0.949 . S
C1227 H1222 0.950 . S
C1227 C1229 1.327 . S
C1227 C1233 1.429 . S
C1228 C1220 1.574 . S
C1228 H1223 0.949 . S
C1228 C1234 1.368 . S
C1229 C1213 1.349 . S
C1229 H1221 0.950 . S
C1229 C1227 1.327 . S
C1230 C1218 1.349 . S
C1230 H1224 0.950 . S
C1230 C1231 1.327 . S
C1231 H1225 0.950 . S
C1231 C1230 1.327 . S
C1231 C1235 1.429 . S
C1232 C1215 1.574 1_554 S
C1232 H1226 0.949 . S
C1232 C1236 1.368 . S
C1233 C1214 1.429 . S
C1233 C1227 1.429 . S
C1233 C1234 1.523 1_556 S
C1234 C1215 1.368 1_554 S
C1234 C1228 1.368 . S
C1234 C1233 1.523 1_554 S
C1235 C1219 1.429 . S
C1235 C1231 1.429 . S
C1235 C1236 1.523 . S
C1236 C1220 1.368 . S
C1236 C1232 1.368 . S
C1236 C1235 1.523 . S
H1237 C1212 0.950 . S
H1238 C1214 0.950 1_554 S
H1239 C1215 0.949 . S
H1240 C1217 0.950 . S
H1241 C1219 0.950 . S
C1242 C1243 1.349 . S
C1242 C1244 1.327 . S
C1242 H1267 0.950 . S
C1243 C1242 1.349 . S
C1243 C1259 1.349 . S
C1244 C1242 1.327 . S
C1244 C1263 1.429 . S
C1244 H1268 0.950 1_554 S
C1245 C1262 1.574 . S
C1245 C1264 1.368 . S
C1245 H1269 0.949 1_556 S
H1246 C1250 0.949 . S
C1247 C1248 1.349 . S
C1247 C1249 1.327 . S
C1247 H1270 0.950 . S
C1248 C1247 1.349 . S
C1248 C1260 1.349 . S
C1249 C1247 1.327 . S
C1249 C1265 1.429 . S
C1249 H1271 0.950 . S
C1250 H1246 0.949 . S
C1250 C1258 1.574 . S
C1250 C1266 1.368 . S
H1251 C1259 0.950 . S
H1252 C1257 0.950 . S
H1253 C1258 0.949 . S
H1254 C1260 0.950 . S
H1255 C1261 0.950 . S
H1256 C1262 0.949 . S
C1257 H1252 0.950 . S
C1257 C1259 1.327 . S
C1257 C1263 1.429 . S
C1258 C1250 1.574 . S
C1258 H1253 0.949 . S
C1258 C1264 1.368 . S
C1259 C1243 1.349 . S
C1259 H1251 0.950 . S
C1259 C1257 1.327 . S
C1260 C1248 1.349 . S
C1260 H1254 0.950 . S
C1260 C1261 1.327 . S
C1261 H1255 0.950 . S
C1261 C1260 1.327 . S
C1261 C1265 1.429 . S
C1262 C1245 1.574 . S
C1262 H1256 0.949 . S
C1262 C1266 1.368 . S
C1263 C1244 1.429 . S
C1263 C1257 1.429 . S
C1263 C1264 1.523 1_554 S
C1264 C1245 1.368 . S
C1264 C1258 1.368 . S
C1264 C1263 1.523 1_556 S
C1265 C1249 1.429 . S
C1265 C1261 1.429 . S
C1265 C1266 1.523 . S
C1266 C1250 1.368 . S
C1266 C1262 1.368 . S
C1266 C1265 1.523 . S
H1267 C1242 0.950 . S
H1268 C1244 0.950 1_556 S
H1269 C1245 0.949 1_554 S
H1270 C1247 0.950 . S
H1271 C1249 0.950 . S
C1272 C1273 1.349 . S
C1272 C1274 1.327 . S
C1272 H1297 0.950 . S
C1273 C1272 1.349 . S
C1273 C1289 1.349 . S
C1274 C1272 1.327 . S
C1274 C1293 1.429 . S
C1274 H1298 0.950 . S
C1275 C1292 1.574 . S
C1275 C1294 1.368 . S
C1275 H1299 0.949 . S
H1276 C1280 0.949 . S
C1277 C1278 1.349 . S
C1277 C1279 1.327 . S
C1277 H1300 0.950 . S
C1278 C1277 1.349 . S
C1278 C1290 1.349 . S
C1279 C1277 1.327 . S
C1279 C1295 1.429 . S
C1279 H1301 0.950 . S
C1280 H1276 0.949 . S
C1280 C1288 1.574 . S
C1280 C1296 1.368 . S
H1281 C1289 0.950 . S
H1282 C1287 0.950 . S
H1283 C1288 0.949 . S
H1284 C1290 0.950 . S
H1285 C1291 0.950 . S
H1286 C1292 0.949 . S
C1287 H1282 0.950 . S
C1287 C1289 1.327 . S
C1287 C1293 1.429 . S
C1288 C1280 1.574 . S
C1288 H1283 0.949 . S
C1288 C1294 1.368 . S
C1289 C1273 1.349 . S
C1289 H1281 0.950 . S
C1289 C1287 1.327 . S
C1290 C1278 1.349 . S
C1290 H1284 0.950 . S
C1290 C1291 1.327 . S
C1291 H1285 0.950 . S
C1291 C1290 1.327 . S
C1291 C1295 1.429 . S
C1292 C1275 1.574 . S
C1292 H1286 0.949 . S
C1292 C1296 1.368 . S
C1293 C1274 1.429 . S
C1293 C1287 1.429 . S
C1293 C1294 1.523 . S
C1294 C1275 1.368 . S
C1294 C1288 1.368 . S
C1294 C1293 1.523 . S
C1295 C1279 1.429 . S
C1295 C1291 1.429 . S
C1295 C1296 1.523 . S
C1296 C1280 1.368 . S
C1296 C1292 1.368 . S
C1296 C1295 1.523 . S
H1297 C1272 0.950 . S
H1298 C1274 0.950 . S
H1299 C1275 0.949 . S
H1300 C1277 0.950 . S
H1301 C1279 0.950 . S
C1302 C1303 1.349 . S
C1302 C1304 1.327 . S
C1302 H1327 0.950 . S
C1303 C1302 1.349 . S
C1303 C1319 1.349 . S
C1304 C1302 1.327 . S
C1304 C1323 1.429 . S
C1304 H1328 0.950 . S
C1305 C1322 1.574 . S
C1305 C1324 1.368 . S
C1305 H1329 0.949 . S
H1306 C1310 0.949 . S
C1307 C1308 1.349 . S
C1307 C1309 1.327 . S
C1307 H1330 0.950 . S
C1308 C1307 1.349 . S
C1308 C1320 1.349 . S
C1309 C1307 1.327 . S
C1309 C1325 1.429 . S
C1309 H1331 0.950 . S
C1310 H1306 0.949 . S
C1310 C1318 1.574 . S
C1310 C1326 1.368 . S
H1311 C1319 0.950 . S
H1312 C1317 0.950 . S
H1313 C1318 0.949 . S
H1314 C1320 0.950 . S
H1315 C1321 0.950 . S
H1316 C1322 0.949 . S
C1317 H1312 0.950 . S
C1317 C1319 1.327 . S
C1317 C1323 1.429 . S
C1318 C1310 1.574 . S
C1318 H1313 0.949 . S
C1318 C1324 1.368 . S
C1319 C1303 1.349 . S
C1319 H1311 0.950 . S
C1319 C1317 1.327 . S
C1320 C1308 1.349 . S
C1320 H1314 0.950 . S
C1320 C1321 1.327 . S
C1321 H1315 0.950 . S
C1321 C1320 1.327 . S
C1321 C1325 1.429 . S
C1322 C1305 1.574 . S
C1322 H1316 0.949 . S
C1322 C1326 1.368 . S
C1323 C1304 1.429 . S
C1323 C1317 1.429 . S
C1323 C1324 1.523 . S
C1324 C1305 1.368 . S
C1324 C1318 1.368 . S
C1324 C1323 1.523 . S
C1325 C1309 1.429 . S
C1325 C1321 1.429 . S
C1325 C1326 1.523 . S
C1326 C1310 1.368 . S
C1326 C1322 1.368 . S
C1326 C1325 1.523 . S
H1327 C1302 0.950 . S
H1328 C1304 0.950 . S
H1329 C1305 0.949 . S
H1330 C1307 0.950 . S
H1331 C1309 0.950 . S
C1332 C1333 1.349 . S
C1332 C1334 1.327 . S
C1332 H1357 0.950 . S
C1333 C1332 1.349 . S
C1333 C1349 1.349 . S
C1334 C1332 1.327 . S
C1334 C1353 1.429 . S
C1334 H1358 0.950 . S
C1335 C1352 1.574 . S
C1335 C1354 1.368 . S
C1335 H1359 0.949 . S
H1336 C1340 0.949 . S
C1337 C1338 1.349 . S
C1337 C1339 1.327 . S
C1337 H1360 0.950 . S
C1338 C1337 1.349 . S
C1338 C1350 1.349 . S
C1339 C1337 1.327 . S
C1339 C1355 1.429 . S
C1339 H1361 0.950 . S
C1340 H1336 0.949 . S
C1340 C1348 1.574 . S
C1340 C1356 1.368 . S
H1341 C1349 0.950 . S
H1342 C1347 0.950 . S
H1343 C1348 0.949 . S
H1344 C1350 0.950 . S
H1345 C1351 0.950 . S
H1346 C1352 0.949 . S
C1347 H1342 0.950 . S
C1347 C1349 1.327 . S
C1347 C1353 1.429 . S
C1348 C1340 1.574 . S
C1348 H1343 0.949 . S
C1348 C1354 1.368 . S
C1349 C1333 1.349 . S
C1349 H1341 0.950 . S
C1349 C1347 1.327 . S
C1350 C1338 1.349 . S
C1350 H1344 0.950 . S
C1350 C1351 1.327 . S
C1351 H1345 0.950 . S
C1351 C1350 1.327 . S
C1351 C1355 1.429 . S
C1352 C1335 1.574 . S
C1352 H1346 0.949 . S
C1352 C1356 1.368 . S
C1353 C1334 1.429 . S
C1353 C1347 1.429 . S
C1353 C1354 1.523 . S
C1354 C1335 1.368 . S
C1354 C1348 1.368 . S
C1354 C1353 1.523 . S
C1355 C1339 1.429 . S
C1355 C1351 1.429 . S
C1355 C1356 1.523 . S
C1356 C1340 1.368 . S
C1356 C1352 1.368 . S
C1356 C1355 1.523 . S
H1357 C1332 0.950 . S
H1358 C1334 0.950 . S
H1359 C1335 0.949 . S
H1360 C1337 0.950 . S
H1361 C1339 0.950 . S
C1362 C1363 1.349 . S
C1362 C1364 1.327 . S
C1362 H1387 0.950 . S
C1363 C1362 1.349 . S
C1363 C1379 1.349 . S
C1364 C1362 1.327 . S
C1364 C1383 1.429 . S
C1364 H1388 0.950 . S
C1365 C1382 1.574 . S
C1365 C1384 1.368 . S
C1365 H1389 0.949 . S
H1366 C1370 0.949 . S
C1367 C1368 1.349 . S
C1367 C1369 1.327 . S
C1367 H1390 0.950 . S
C1368 C1367 1.349 . S
C1368 C1380 1.349 . S
C1369 C1367 1.327 . S
C1369 C1385 1.429 . S
C1369 H1391 0.950 . S
C1370 H1366 0.949 . S
C1370 C1378 1.574 . S
C1370 C1386 1.368 . S
H1371 C1379 0.950 . S
H1372 C1377 0.950 . S
H1373 C1378 0.949 . S
H1374 C1380 0.950 . S
H1375 C1381 0.950 . S
H1376 C1382 0.949 . S
C1377 H1372 0.950 . S
C1377 C1379 1.327 . S
C1377 C1383 1.429 . S
C1378 C1370 1.574 . S
C1378 H1373 0.949 . S
C1378 C1384 1.368 . S
C1379 C1363 1.349 . S
C1379 H1371 0.950 . S
C1379 C1377 1.327 . S
C1380 C1368 1.349 . S
C1380 H1374 0.950 . S
C1380 C1381 1.327 . S
C1381 H1375 0.950 . S
C1381 C1380 1.327 . S
C1381 C1385 1.429 . S
C1382 C1365 1.574 . S
C1382 H1376 0.949 . S
C1382 C1386 1.368 . S
C1383 C1364 1.429 . S
C1383 C1377 1.429 . S
C1383 C1384 1.523 . S
C1384 C1365 1.368 . S
C1384 C1378 1.368 . S
C1384 C1383 1.523 . S
C1385 C1369 1.429 . S
C1385 C1381 1.429 . S
C1385 C1386 1.523 . S
C1386 C1370 1.368 . S
C1386 C1382 1.368 . S
C1386 C1385 1.523 . S
H1387 C1362 0.950 . S
H1388 C1364 0.950 . S
H1389 C1365 0.949 . S
H1390 C1367 0.950 . S
H1391 C1369 0.950 . S
C1392 C1393 1.349 . S
C1392 C1394 1.327 . S
C1392 H1417 0.950 . S
C1393 C1392 1.349 . S
C1393 C1409 1.349 . S
C1394 C1392 1.327 . S
C1394 C1413 1.429 . S
C1394 H1418 0.950 . S
C1395 C1412 1.574 . S
C1395 C1414 1.368 . S
C1395 H1419 0.949 . S
H1396 C1400 0.949 . S
C1397 C1398 1.349 . S
C1397 C1399 1.327 . S
C1397 H1420 0.950 . S
C1398 C1397 1.349 . S
C1398 C1410 1.349 . S
C1399 C1397 1.327 . S
C1399 C1415 1.429 . S
C1399 H1421 0.950 . S
C1400 H1396 0.949 . S
C1400 C1408 1.574 . S
C1400 C1416 1.368 . S
H1401 C1409 0.950 . S
H1402 C1407 0.950 . S
H1403 C1408 0.949 . S
H1404 C1410 0.950 . S
H1405 C1411 0.950 . S
H1406 C1412 0.949 . S
C1407 H1402 0.950 . S
C1407 C1409 1.327 . S
C1407 C1413 1.429 . S
C1408 C1400 1.574 . S
C1408 H1403 0.949 . S
C1408 C1414 1.368 . S
C1409 C1393 1.349 . S
C1409 H1401 0.950 . S
C1409 C1407 1.327 . S
C1410 C1398 1.349 . S
C1410 H1404 0.950 . S
C1410 C1411 1.327 . S
C1411 H1405 0.950 . S
C1411 C1410 1.327 . S
C1411 C1415 1.429 . S
C1412 C1395 1.574 . S
C1412 H1406 0.949 . S
C1412 C1416 1.368 . S
C1413 C1394 1.429 . S
C1413 C1407 1.429 . S
C1413 C1414 1.523 . S
C1414 C1395 1.368 . S
C1414 C1408 1.368 . S
C1414 C1413 1.523 . S
C1415 C1399 1.429 . S
C1415 C1411 1.429 . S
C1415 C1416 1.523 . S
C1416 C1400 1.368 . S
C1416 C1412 1.368 . S
C1416 C1415 1.523 . S
H1417 C1392 0.950 . S
H1418 C1394 0.950 . S
H1419 C1395 0.949 . S
H1420 C1397 0.950 . S
H1421 C1399 0.950 . S
C1422 C1423 1.349 . S
C1422 C1424 1.327 . S
C1422 H1447 0.950 . S
C1423 C1422 1.349 . S
C1423 C1439 1.349 . S
C1424 C1422 1.327 . S
C1424 C1443 1.429 . S
C1424 H1448 0.950 . S
C1425 C1442 1.574 . S
C1425 C1444 1.368 . S
C1425 H1449 0.949 . S
H1426 C1430 0.949 . S
C1427 C1428 1.349 . S
C1427 C1429 1.327 . S
C1427 H1450 0.950 . S
C1428 C1427 1.349 . S
C1428 C1440 1.349 . S
C1429 C1427 1.327 . S
C1429 C1445 1.429 . S
C1429 H1451 0.950 . S
C1430 H1426 0.949 . S
C1430 C1438 1.574 . S
C1430 C1446 1.368 . S
H1431 C1439 0.950 . S
H1432 C1437 0.950 . S
H1433 C1438 0.949 . S
H1434 C1440 0.950 . S
H1435 C1441 0.950 . S
H1436 C1442 0.949 . S
C1437 H1432 0.950 . S
C1437 C1439 1.327 . S
C1437 C1443 1.429 . S
C1438 C1430 1.574 . S
C1438 H1433 0.949 . S
C1438 C1444 1.368 . S
C1439 C1423 1.349 . S
C1439 H1431 0.950 . S
C1439 C1437 1.327 . S
C1440 C1428 1.349 . S
C1440 H1434 0.950 . S
C1440 C1441 1.327 . S
C1441 H1435 0.950 . S
C1441 C1440 1.327 . S
C1441 C1445 1.429 . S
C1442 C1425 1.574 . S
C1442 H1436 0.949 . S
C1442 C1446 1.368 . S
C1443 C1424 1.429 . S
C1443 C1437 1.429 . S
C1443 C1444 1.523 . S
C1444 C1425 1.368 . S
C1444 C1438 1.368 . S
C1444 C1443 1.523 . S
C1445 C1429 1.429 . S
C1445 C1441 1.429 . S
C1445 C1446 1.523 . S
C1446 C1430 1.368 . S
C1446 C1442 1.368 . S
C1446 C1445 1.523 . S
H1447 C1422 0.950 . S
H1448 C1424 0.950 . S
H1449 C1425 0.949 . S
H1450 C1427 0.950 . S
H1451 C1429 0.950 . S
C1452 C1453 1.349 . S
C1452 C1454 1.327 . S
C1452 H1477 0.950 . S
C1453 C1452 1.349 . S
C1453 C1469 1.349 . S
C1454 C1452 1.327 . S
C1454 C1473 1.429 . S
C1454 H1478 0.950 . S
C1455 C1472 1.574 . S
C1455 C1474 1.368 . S
C1455 H1479 0.949 . S
H1456 C1460 0.949 . S
C1457 C1458 1.349 . S
C1457 C1459 1.327 . S
C1457 H1480 0.950 . S
C1458 C1457 1.349 . S
C1458 C1470 1.349 . S
C1459 C1457 1.327 . S
C1459 C1475 1.429 . S
C1459 H1481 0.950 . S
C1460 H1456 0.949 . S
C1460 C1468 1.574 . S
C1460 C1476 1.368 . S
H1461 C1469 0.950 . S
H1462 C1467 0.950 . S
H1463 C1468 0.949 . S
H1464 C1470 0.950 . S
H1465 C1471 0.950 . S
H1466 C1472 0.949 . S
C1467 H1462 0.950 . S
C1467 C1469 1.327 . S
C1467 C1473 1.429 . S
C1468 C1460 1.574 . S
C1468 H1463 0.949 . S
C1468 C1474 1.368 . S
C1469 C1453 1.349 . S
C1469 H1461 0.950 . S
C1469 C1467 1.327 . S
C1470 C1458 1.349 . S
C1470 H1464 0.950 . S
C1470 C1471 1.327 . S
C1471 H1465 0.950 . S
C1471 C1470 1.327 . S
C1471 C1475 1.429 . S
C1472 C1455 1.574 . S
C1472 H1466 0.949 . S
C1472 C1476 1.368 . S
C1473 C1454 1.429 . S
C1473 C1467 1.429 . S
C1473 C1474 1.523 . S
C1474 C1455 1.368 . S
C1474 C1468 1.368 . S
C1474 C1473 1.523 . S
C1475 C1459 1.429 . S
C1475 C1471 1.429 . S
C1475 C1476 1.523 . S
C1476 C1460 1.368 . S
C1476 C1472 1.368 . S
C1476 C1475 1.523 . S
H1477 C1452 0.950 . S
H1478 C1454 0.950 . S
H1479 C1455 0.949 . S
H1480 C1457 0.950 . S
H1481 C1459 0.950 . S
C1482 C1483 1.349 . S
C1482 C1484 1.327 . S
C1482 H1507 0.950 . S
C1483 C1482 1.349 . S
C1483 C1499 1.349 . S
C1484 C1482 1.327 . S
C1484 C1503 1.429 . S
C1484 H1508 0.950 . S
C1485 C1502 1.574 . S
C1485 C1504 1.368 . S
C1485 H1509 0.949 . S
H1486 C1490 0.949 . S
C1487 C1488 1.349 . S
C1487 C1489 1.327 . S
C1487 H1510 0.950 . S
C1488 C1487 1.349 . S
C1488 C1500 1.349 . S
C1489 C1487 1.327 . S
C1489 C1505 1.429 . S
C1489 H1511 0.950 . S
C1490 H1486 0.949 . S
C1490 C1498 1.574 . S
C1490 C1506 1.368 . S
H1491 C1499 0.950 . S
H1492 C1497 0.950 . S
H1493 C1498 0.949 . S
H1494 C1500 0.950 . S
H1495 C1501 0.950 . S
H1496 C1502 0.949 . S
C1497 H1492 0.950 . S
C1497 C1499 1.327 . S
C1497 C1503 1.429 . S
C1498 C1490 1.574 . S
C1498 H1493 0.949 . S
C1498 C1504 1.368 . S
C1499 C1483 1.349 . S
C1499 H1491 0.950 . S
C1499 C1497 1.327 . S
C1500 C1488 1.349 . S
C1500 H1494 0.950 . S
C1500 C1501 1.327 . S
C1501 H1495 0.950 . S
C1501 C1500 1.327 . S
C1501 C1505 1.429 . S
C1502 C1485 1.574 . S
C1502 H1496 0.949 . S
C1502 C1506 1.368 . S
C1503 C1484 1.429 . S
C1503 C1497 1.429 . S
C1503 C1504 1.523 . S
C1504 C1485 1.368 . S
C1504 C1498 1.368 . S
C1504 C1503 1.523 . S
C1505 C1489 1.429 . S
C1505 C1501 1.429 . S
C1505 C1506 1.523 . S
C1506 C1490 1.368 . S
C1506 C1502 1.368 . S
C1506 C1505 1.523 . S
H1507 C1482 0.950 . S
H1508 C1484 0.950 . S
H1509 C1485 0.949 . S
H1510 C1487 0.950 . S
H1511 C1489 0.950 . S
C1512 C1513 1.349 . S
C1512 C1514 1.327 . S
C1512 H1537 0.950 . S
C1513 C1512 1.349 . S
C1513 C1529 1.349 . S
C1514 C1512 1.327 . S
C1514 C1533 1.429 . S
C1514 H1538 0.950 . S
C1515 C1532 1.574 . S
C1515 C1534 1.368 . S
C1515 H1539 0.949 . S
H1516 C1520 0.949 . S
C1517 C1518 1.349 . S
C1517 C1519 1.327 . S
C1517 H1540 0.950 . S
C1518 C1517 1.349 . S
C1518 C1530 1.349 . S
C1519 C1517 1.327 . S
C1519 C1535 1.429 . S
C1519 H1541 0.950 . S
C1520 H1516 0.949 . S
C1520 C1528 1.574 . S
C1520 C1536 1.368 . S
H1521 C1529 0.950 . S
H1522 C1527 0.950 . S
H1523 C1528 0.949 . S
H1524 C1530 0.950 . S
H1525 C1531 0.950 . S
H1526 C1532 0.949 . S
C1527 H1522 0.950 . S
C1527 C1529 1.327 . S
C1527 C1533 1.429 . S
C1528 C1520 1.574 . S
C1528 H1523 0.949 . S
C1528 C1534 1.368 . S
C1529 C1513 1.349 . S
C1529 H1521 0.950 . S
C1529 C1527 1.327 . S
C1530 C1518 1.349 . S
C1530 H1524 0.950 . S
C1530 C1531 1.327 . S
C1531 H1525 0.950 . S
C1531 C1530 1.327 . S
C1531 C1535 1.429 . S
C1532 C1515 1.574 . S
C1532 H1526 0.949 . S
C1532 C1536 1.368 . S
C1533 C1514 1.429 . S
C1533 C1527 1.429 . S
C1533 C1534 1.523 . S
C1534 C1515 1.368 . S
C1534 C1528 1.368 . S
C1534 C1533 1.523 . S
C1535 C1519 1.429 . S
C1535 C1531 1.429 . S
C1535 C1536 1.523 . S
C1536 C1520 1.368 . S
C1536 C1532 1.368 . S
C1536 C1535 1.523 . S
H1537 C1512 0.950 . S
H1538 C1514 0.950 . S
H1539 C1515 0.949 . S
H1540 C1517 0.950 . S
H1541 C1519 0.950 . S
C1542 C1543 1.349 . S
C1542 C1544 1.327 . S
C1542 H1567 0.950 . S
C1543 C1542 1.349 . S
C1543 C1559 1.349 . S
C1544 C1542 1.327 . S
C1544 C1563 1.429 . S
C1544 H1568 0.950 . S
C1545 C1562 1.574 . S
C1545 C1564 1.368 . S
C1545 H1569 0.949 . S
H1546 C1550 0.949 . S
C1547 C1548 1.349 . S
C1547 C1549 1.327 . S
C1547 H1570 0.950 . S
C1548 C1547 1.349 . S
C1548 C1560 1.349 . S
C1549 C1547 1.327 . S
C1549 C1565 1.429 . S
C1549 H1571 0.950 . S
C1550 H1546 0.949 . S
C1550 C1558 1.574 . S
C1550 C1566 1.368 . S
H1551 C1559 0.950 . S
H1552 C1557 0.950 . S
H1553 C1558 0.949 . S
H1554 C1560 0.950 . S
H1555 C1561 0.950 . S
H1556 C1562 0.949 . S
C1557 H1552 0.950 . S
C1557 C1559 1.327 . S
C1557 C1563 1.429 . S
C1558 C1550 1.574 . S
C1558 H1553 0.949 . S
C1558 C1564 1.368 . S
C1559 C1543 1.349 . S
C1559 H1551 0.950 . S
C1559 C1557 1.327 . S
C1560 C1548 1.349 . S
C1560 H1554 0.950 . S
C1560 C1561 1.327 . S
C1561 H1555 0.950 . S
C1561 C1560 1.327 . S
C1561 C1565 1.429 . S
C1562 C1545 1.574 . S
C1562 H1556 0.949 . S
C1562 C1566 1.368 . S
C1563 C1544 1.429 . S
C1563 C1557 1.429 . S
C1563 C1564 1.523 . S
C1564 C1545 1.368 . S
C1564 C1558 1.368 . S
C1564 C1563 1.523 . S
C1565 C1549 1.429 . S
C1565 C1561 1.429 . S
C1565 C1566 1.523 . S
C1566 C1550 1.368 . S
C1566 C1562 1.368 . S
C1566 C1565 1.523 . S
H1567 C1542 0.950 . S
H1568 C1544 0.950 . S
H1569 C1545 0.949 . S
H1570 C1547 0.950 . S
H1571 C1549 0.950 . S
C1572 C1573 1.349 . S
C1572 C1574 1.327 . S
C1572 H1597 0.950 . S
C1573 C1572 1.349 . S
C1573 C1589 1.349 . S
C1574 C1572 1.327 . S
C1574 C1593 1.429 . S
C1574 H1598 0.950 . S
C1575 C1592 1.574 . S
C1575 C1594 1.368 . S
C1575 H1599 0.949 . S
H1576 C1580 0.949 . S
C1577 C1578 1.349 . S
C1577 C1579 1.327 . S
C1577 H1600 0.950 . S
C1578 C1577 1.349 . S
C1578 C1590 1.349 . S
C1579 C1577 1.327 . S
C1579 C1595 1.429 . S
C1579 H1601 0.950 . S
C1580 H1576 0.949 . S
C1580 C1588 1.574 . S
C1580 C1596 1.368 . S
H1581 C1589 0.950 . S
H1582 C1587 0.950 . S
H1583 C1588 0.949 . S
H1584 C1590 0.950 . S
H1585 C1591 0.950 . S
H1586 C1592 0.949 . S
C1587 H1582 0.950 . S
C1587 C1589 1.327 . S
C1587 C1593 1.429 . S
C1588 C1580 1.574 . S
C1588 H1583 0.949 . S
C1588 C1594 1.368 . S
C1589 C1573 1.349 . S
C1589 H1581 0.950 . S
C1589 C1587 1.327 . S
C1590 C1578 1.349 . S
C1590 H1584 0.950 . S
C1590 C1591 1.327 . S
C1591 H1585 0.950 . S
C1591 C1590 1.327 . S
C1591 C1595 1.429 . S
C1592 C1575 1.574 . S
C1592 H1586 0.949 . S
C1592 C1596 1.368 . S
C1593 C1574 1.429 . S
C1593 C1587 1.429 . S
C1593 C1594 1.523 . S
C1594 C1575 1.368 . S
C1594 C1588 1.368 . S
C1594 C1593 1.523 . S
C1595 C1579 1.429 . S
C1595 C1591 1.429 . S
C1595 C1596 1.523 . S
C1596 C1580 1.368 . S
C1596 C1592 1.368 . S
C1596 C1595 1.523 . S
H1597 C1572 0.950 . S
H1598 C1574 0.950 . S
H1599 C1575 0.949 . S
H1600 C1577 0.950 . S
H1601 C1579 0.950 . S
C1602 C1603 1.349 . S
C1602 C1604 1.327 . S
C1602 H1627 0.950 . S
C1603 C1602 1.349 . S
C1603 C1619 1.349 . S
C1604 C1602 1.327 . S
C1604 C1623 1.429 . S
C1604 H1628 0.950 . S
C1605 C1622 1.574 . S
C1605 C1624 1.368 . S
C1605 H1629 0.949 . S
H1606 C1610 0.949 . S
C1607 C1608 1.349 . S
C1607 C1609 1.327 . S
C1607 H1630 0.950 . S
C1608 C1607 1.349 . S
C1608 C1620 1.349 . S
C1609 C1607 1.327 . S
C1609 C1625 1.429 . S
C1609 H1631 0.950 . S
C1610 H1606 0.949 . S
C1610 C1618 1.574 . S
C1610 C1626 1.368 . S
H1611 C1619 0.950 . S
H1612 C1617 0.950 . S
H1613 C1618 0.949 . S
H1614 C1620 0.950 . S
H1615 C1621 0.950 . S
H1616 C1622 0.949 . S
C1617 H1612 0.950 . S
C1617 C1619 1.327 . S
C1617 C1623 1.429 . S
C1618 C1610 1.574 . S
C1618 H1613 0.949 . S
C1618 C1624 1.368 . S
C1619 C1603 1.349 . S
C1619 H1611 0.950 . S
C1619 C1617 1.327 . S
C1620 C1608 1.349 . S
C1620 H1614 0.950 . S
C1620 C1621 1.327 . S
C1621 H1615 0.950 . S
C1621 C1620 1.327 . S
C1621 C1625 1.429 . S
C1622 C1605 1.574 . S
C1622 H1616 0.949 . S
C1622 C1626 1.368 . S
C1623 C1604 1.429 . S
C1623 C1617 1.429 . S
C1623 C1624 1.523 . S
C1624 C1605 1.368 . S
C1624 C1618 1.368 . S
C1624 C1623 1.523 . S
C1625 C1609 1.429 . S
C1625 C1621 1.429 . S
C1625 C1626 1.523 . S
C1626 C1610 1.368 . S
C1626 C1622 1.368 . S
C1626 C1625 1.523 . S
H1627 C1602 0.950 . S
H1628 C1604 0.950 . S
H1629 C1605 0.949 . S
H1630 C1607 0.950 . S
H1631 C1609 0.950 . S
C1632 C1633 1.349 . S
C1632 C1634 1.327 . S
C1632 H1657 0.950 . S
C1633 C1632 1.349 . S
C1633 C1649 1.349 . S
C1634 C1632 1.327 . S
C1634 C1653 1.429 . S
C1634 H1658 0.950 . S
C1635 C1652 1.574 . S
C1635 C1654 1.368 . S
C1635 H1659 0.949 . S
H1636 C1640 0.949 . S
C1637 C1638 1.349 . S
C1637 C1639 1.327 . S
C1637 H1660 0.950 . S
C1638 C1637 1.349 . S
C1638 C1650 1.349 . S
C1639 C1637 1.327 . S
C1639 C1655 1.429 . S
C1639 H1661 0.950 . S
C1640 H1636 0.949 . S
C1640 C1648 1.574 . S
C1640 C1656 1.368 . S
H1641 C1649 0.950 . S
H1642 C1647 0.950 . S
H1643 C1648 0.949 . S
H1644 C1650 0.950 . S
H1645 C1651 0.950 . S
H1646 C1652 0.949 . S
C1647 H1642 0.950 . S
C1647 C1649 1.327 . S
C1647 C1653 1.429 . S
C1648 C1640 1.574 . S
C1648 H1643 0.949 . S
C1648 C1654 1.368 . S
C1649 C1633 1.349 . S
C1649 H1641 0.950 . S
C1649 C1647 1.327 . S
C1650 C1638 1.349 . S
C1650 H1644 0.950 . S
C1650 C1651 1.327 . S
C1651 H1645 0.950 . S
C1651 C1650 1.327 . S
C1651 C1655 1.429 . S
C1652 C1635 1.574 . S
C1652 H1646 0.949 . S
C1652 C1656 1.368 . S
C1653 C1634 1.429 . S
C1653 C1647 1.429 . S
C1653 C1654 1.523 . S
C1654 C1635 1.368 . S
C1654 C1648 1.368 . S
C1654 C1653 1.523 . S
C1655 C1639 1.429 . S
C1655 C1651 1.429 . S
C1655 C1656 1.523 . S
C1656 C1640 1.368 . S
C1656 C1652 1.368 . S
C1656 C1655 1.523 . S
H1657 C1632 0.950 . S
H1658 C1634 0.950 . S
H1659 C1635 0.949 . S
H1660 C1637 0.950 . S
H1661 C1639 0.950 . S
C1662 C1663 1.349 . S
C1662 C1664 1.327 . S
C1662 H1687 0.950 . S
C1663 C1662 1.349 . S
C1663 C1679 1.349 . S
C1664 C1662 1.327 . S
C1664 C1683 1.429 . S
C1664 H1688 0.950 . S
C1665 C1682 1.574 . S
C1665 C1684 1.368 . S
C1665 H1689 0.949 . S
H1666 C1670 0.949 . S
C1667 C1668 1.349 . S
C1667 C1669 1.327 . S
C1667 H1690 0.950 . S
C1668 C1667 1.349 . S
C1668 C1680 1.349 . S
C1669 C1667 1.327 . S
C1669 C1685 1.429 . S
C1669 H1691 0.950 . S
C1670 H1666 0.949 . S
C1670 C1678 1.574 . S
C1670 C1686 1.368 . S
H1671 C1679 0.950 . S
H1672 C1677 0.950 . S
H1673 C1678 0.949 . S
H1674 C1680 0.950 . S
H1675 C1681 0.950 . S
H1676 C1682 0.949 . S
C1677 H1672 0.950 . S
C1677 C1679 1.327 . S
C1677 C1683 1.429 . S
C1678 C1670 1.574 . S
C1678 H1673 0.949 . S
C1678 C1684 1.368 . S
C1679 C1663 1.349 . S
C1679 H1671 0.950 . S
C1679 C1677 1.327 . S
C1680 C1668 1.349 . S
C1680 H1674 0.950 . S
C1680 C1681 1.327 . S
C1681 H1675 0.950 . S
C1681 C1680 1.327 . S
C1681 C1685 1.429 . S
C1682 C1665 1.574 . S
C1682 H1676 0.949 . S
C1682 C1686 1.368 . S
C1683 C1664 1.429 . S
C1683 C1677 1.429 . S
C1683 C1684 1.523 . S
C1684 C1665 1.368 . S
C1684 C1678 1.368 . S
C1684 C1683 1.523 . S
C1685 C1669 1.429 . S
C1685 C1681 1.429 . S
C1685 C1686 1.523 . S
C1686 C1670 1.368 . S
C1686 C1682 1.368 . S
C1686 C1685 1.523 . S
H1687 C1662 0.950 . S
H1688 C1664 0.950 . S
H1689 C1665 0.949 . S
H1690 C1667 0.950 . S
H1691 C1669 0.950 . S
C1692 C1693 1.349 . S
C1692 C1694 1.327 . S
C1692 H1717 0.950 . S
C1693 C1692 1.349 . S
C1693 C1709 1.349 . S
C1694 C1692 1.327 . S
C1694 C1713 1.429 . S
C1694 H1718 0.950 . S
C1695 C1712 1.574 . S
C1695 C1714 1.368 . S
C1695 H1719 0.949 . S
H1696 C1700 0.949 . S
C1697 C1698 1.349 . S
C1697 C1699 1.327 . S
C1697 H1720 0.950 . S
C1698 C1697 1.349 . S
C1698 C1710 1.349 . S
C1699 C1697 1.327 . S
C1699 C1715 1.429 . S
C1699 H1721 0.950 . S
C1700 H1696 0.949 . S
C1700 C1708 1.574 . S
C1700 C1716 1.368 . S
H1701 C1709 0.950 . S
H1702 C1707 0.950 . S
H1703 C1708 0.949 . S
H1704 C1710 0.950 . S
H1705 C1711 0.950 . S
H1706 C1712 0.949 . S
C1707 H1702 0.950 . S
C1707 C1709 1.327 . S
C1707 C1713 1.429 . S
C1708 C1700 1.574 . S
C1708 H1703 0.949 . S
C1708 C1714 1.368 . S
C1709 C1693 1.349 . S
C1709 H1701 0.950 . S
C1709 C1707 1.327 . S
C1710 C1698 1.349 . S
C1710 H1704 0.950 . S
C1710 C1711 1.327 . S
C1711 H1705 0.950 . S
C1711 C1710 1.327 . S
C1711 C1715 1.429 . S
C1712 C1695 1.574 . S
C1712 H1706 0.949 . S
C1712 C1716 1.368 . S
C1713 C1694 1.429 . S
C1713 C1707 1.429 . S
C1713 C1714 1.523 . S
C1714 C1695 1.368 . S
C1714 C1708 1.368 . S
C1714 C1713 1.523 . S
C1715 C1699 1.429 . S
C1715 C1711 1.429 . S
C1715 C1716 1.523 . S
C1716 C1700 1.368 . S
C1716 C1712 1.368 . S
C1716 C1715 1.523 . S
H1717 C1692 0.950 . S
H1718 C1694 0.950 . S
H1719 C1695 0.949 . S
H1720 C1697 0.950 . S
H1721 C1699 0.950 . S
C1722 C1723 1.349 . S
C1722 C1724 1.327 . S
C1722 H1747 0.950 . S
C1723 C1722 1.349 . S
C1723 C1739 1.349 . S
C1724 C1722 1.327 . S
C1724 C1743 1.429 . S
C1724 H1748 0.950 . S
C1725 C1742 1.574 . S
C1725 C1744 1.368 . S
C1725 H1749 0.949 . S
H1726 C1730 0.949 . S
C1727 C1728 1.349 . S
C1727 C1729 1.327 . S
C1727 H1750 0.950 . S
C1728 C1727 1.349 . S
C1728 C1740 1.349 . S
C1729 C1727 1.327 . S
C1729 C1745 1.429 . S
C1729 H1751 0.950 . S
C1730 H1726 0.949 . S
C1730 C1738 1.574 . S
C1730 C1746 1.368 . S
H1731 C1739 0.950 . S
H1732 C1737 0.950 . S
H1733 C1738 0.949 . S
H1734 C1740 0.950 . S
H1735 C1741 0.950 . S
H1736 C1742 0.949 . S
C1737 H1732 0.950 . S
C1737 C1739 1.327 . S
C1737 C1743 1.429 . S
C1738 C1730 1.574 . S
C1738 H1733 0.949 . S
C1738 C1744 1.368 . S
C1739 C1723 1.349 . S
C1739 H1731 0.950 . S
C1739 C1737 1.327 . S
C1740 C1728 1.349 . S
C1740 H1734 0.950 . S
C1740 C1741 1.327 . S
C1741 H1735 0.950 . S
C1741 C1740 1.327 . S
C1741 C1745 1.429 . S
C1742 C1725 1.574 . S
C1742 H1736 0.949 . S
C1742 C1746 1.368 . S
C1743 C1724 1.429 . S
C1743 C1737 1.429 . S
C1743 C1744 1.523 . S
C1744 C1725 1.368 . S
C1744 C1738 1.368 . S
C1744 C1743 1.523 . S
C1745 C1729 1.429 . S
C1745 C1741 1.429 . S
C1745 C1746 1.523 . S
C1746 C1730 1.368 . S
C1746 C1742 1.368 . S
C1746 C1745 1.523 . S
H1747 C1722 0.950 . S
H1748 C1724 0.950 . S
H1749 C1725 0.949 . S
H1750 C1727 0.950 . S
H1751 C1729 0.950 . S
C1752 C1753 1.349 . S
C1752 C1754 1.327 . S
C1752 H1777 0.950 . S
C1753 C1752 1.349 . S
C1753 C1769 1.349 . S
C1754 C1752 1.327 . S
C1754 C1773 1.429 . S
C1754 H1778 0.950 . S
C1755 C1772 1.574 . S
C1755 C1774 1.368 . S
C1755 H1779 0.949 . S
H1756 C1760 0.949 . S
C1757 C1758 1.349 . S
C1757 C1759 1.327 . S
C1757 H1780 0.950 . S
C1758 C1757 1.349 . S
C1758 C1770 1.349 . S
C1759 C1757 1.327 . S
C1759 C1775 1.429 . S
C1759 H1781 0.950 . S
C1760 H1756 0.949 . S
C1760 C1768 1.574 . S
C1760 C1776 1.368 . S
H1761 C1769 0.950 . S
H1762 C1767 0.950 . S
H1763 C1768 0.949 . S
H1764 C1770 0.950 . S
H1765 C1771 0.950 . S
H1766 C1772 0.949 . S
C1767 H1762 0.950 . S
C1767 C1769 1.327 . S
C1767 C1773 1.429 . S
C1768 C1760 1.574 . S
C1768 H1763 0.949 . S
C1768 C1774 1.368 . S
C1769 C1753 1.349 . S
C1769 H1761 0.950 . S
C1769 C1767 1.327 . S
C1770 C1758 1.349 . S
C1770 H1764 0.950 . S
C1770 C1771 1.327 . S
C1771 H1765 0.950 . S
C1771 C1770 1.327 . S
C1771 C1775 1.429 . S
C1772 C1755 1.574 . S
C1772 H1766 0.949 . S
C1772 C1776 1.368 . S
C1773 C1754 1.429 . S
C1773 C1767 1.429 . S
C1773 C1774 1.523 . S
C1774 C1755 1.368 . S
C1774 C1768 1.368 . S
C1774 C1773 1.523 . S
C1775 C1759 1.429 . S
C1775 C1771 1.429 . S
C1775 C1776 1.523 . S
C1776 C1760 1.368 . S
C1776 C1772 1.368 . S
C1776 C1775 1.523 . S
H1777 C1752 0.950 . S
H1778 C1754 0.950 . S
H1779 C1755 0.949 . S
H1780 C1757 0.950 . S
H1781 C1759 0.950 . S
C1782 C1783 1.349 . S
C1782 C1784 1.327 . S
C1782 H1807 0.950 . S
C1783 C1782 1.349 . S
C1783 C1799 1.349 . S
C1784 C1782 1.327 . S
C1784 C1803 1.429 . S
C1784 H1808 0.950 . S
C1785 C1802 1.574 . S
C1785 C1804 1.368 . S
C1785 H1809 0.949 . S
H1786 C1790 0.949 . S
C1787 C1788 1.349 . S
C1787 C1789 1.327 . S
C1787 H1810 0.950 . S
C1788 C1787 1.349 . S
C1788 C1800 1.349 . S
C1789 C1787 1.327 . S
C1789 C1805 1.429 . S
C1789 H1811 0.950 . S
C1790 H1786 0.949 . S
C1790 C1798 1.574 . S
C1790 C1806 1.368 . S
H1791 C1799 0.950 . S
H1792 C1797 0.950 . S
H1793 C1798 0.949 . S
H1794 C1800 0.950 . S
H1795 C1801 0.950 . S
H1796 C1802 0.949 . S
C1797 H1792 0.950 . S
C1797 C1799 1.327 . S
C1797 C1803 1.429 . S
C1798 C1790 1.574 . S
C1798 H1793 0.949 . S
C1798 C1804 1.368 . S
C1799 C1783 1.349 . S
C1799 H1791 0.950 . S
C1799 C1797 1.327 . S
C1800 C1788 1.349 . S
C1800 H1794 0.950 . S
C1800 C1801 1.327 . S
C1801 H1795 0.950 . S
C1801 C1800 1.327 . S
C1801 C1805 1.429 . S
C1802 C1785 1.574 . S
C1802 H1796 0.949 . S
C1802 C1806 1.368 . S
C1803 C1784 1.429 . S
C1803 C1797 1.429 . S
C1803 C1804 1.523 . S
C1804 C1785 1.368 . S
C1804 C1798 1.368 . S
C1804 C1803 1.523 . S
C1805 C1789 1.429 . S
C1805 C1801 1.429 . S
C1805 C1806 1.523 . S
C1806 C1790 1.368 . S
C1806 C1802 1.368 . S
C1806 C1805 1.523 . S
H1807 C1782 0.950 . S
H1808 C1784 0.950 . S
H1809 C1785 0.949 . S
H1810 C1787 0.950 . S
H1811 C1789 0.950 . S
C1812 C1813 1.349 . S
C1812 C1814 1.327 . S
C1812 H1837 0.950 . S
C1813 C1812 1.349 . S
C1813 C1829 1.349 . S
C1814 C1812 1.327 . S
C1814 C1833 1.429 . S
C1814 H1838 0.950 . S
C1815 C1832 1.574 . S
C1815 C1834 1.368 . S
C1815 H1839 0.949 . S
H1816 C1820 0.949 . S
C1817 C1818 1.349 . S
C1817 C1819 1.327 . S
C1817 H1840 0.950 . S
C1818 C1817 1.349 . S
C1818 C1830 1.349 . S
C1819 C1817 1.327 . S
C1819 C1835 1.429 . S
C1819 H1841 0.950 . S
C1820 H1816 0.949 . S
C1820 C1828 1.574 . S
C1820 C1836 1.368 . S
H1821 C1829 0.950 . S
H1822 C1827 0.950 . S
H1823 C1828 0.949 . S
H1824 C1830 0.950 . S
H1825 C1831 0.950 . S
H1826 C1832 0.949 . S
C1827 H1822 0.950 . S
C1827 C1829 1.327 . S
C1827 C1833 1.429 . S
C1828 C1820 1.574 . S
C1828 H1823 0.949 . S
C1828 C1834 1.368 . S
C1829 C1813 1.349 . S
C1829 H1821 0.950 . S
C1829 C1827 1.327 . S
C1830 C1818 1.349 . S
C1830 H1824 0.950 . S
C1830 C1831 1.327 . S
C1831 H1825 0.950 . S
C1831 C1830 1.327 . S
C1831 C1835 1.429 . S
C1832 C1815 1.574 . S
C1832 H1826 0.949 . S
C1832 C1836 1.368 . S
C1833 C1814 1.429 . S
C1833 C1827 1.429 . S
C1833 C1834 1.523 . S
C1834 C1815 1.368 . S
C1834 C1828 1.368 . S
C1834 C1833 1.523 . S
C1835 C1819 1.429 . S
C1835 C1831 1.429 . S
C1835 C1836 1.523 . S
C1836 C1820 1.368 . S
C1836 C1832 1.368 . S
C1836 C1835 1.523 . S
H1837 C1812 0.950 . S
H1838 C1814 0.950 . S
H1839 C1815 0.949 . S
H1840 C1817 0.950 . S
H1841 C1819 0.950 . S
C1842 C1843 1.349 . S
C1842 C1844 1.327 . S
C1842 H1867 0.950 . S
C1843 C1842 1.349 . S
C1843 C1859 1.349 . S
C1844 C1842 1.327 . S
C1844 C1863 1.429 . S
C1844 H1868 0.950 . S
C1845 C1862 1.574 . S
C1845 C1864 1.368 . S
C1845 H1869 0.949 . S
H1846 C1850 0.949 . S
C1847 C1848 1.349 . S
C1847 C1849 1.327 . S
C1847 H1870 0.950 . S
C1848 C1847 1.349 . S
C1848 C1860 1.349 . S
C1849 C1847 1.327 . S
C1849 C1865 1.429 . S
C1849 H1871 0.950 . S
C1850 H1846 0.949 . S
C1850 C1858 1.574 . S
C1850 C1866 1.368 . S
H1851 C1859 0.950 . S
H1852 C1857 0.950 . S
H1853 C1858 0.949 . S
H1854 C1860 0.950 . S
H1855 C1861 0.950 . S
H1856 C1862 0.949 . S
C1857 H1852 0.950 . S
C1857 C1859 1.327 . S
C1857 C1863 1.429 . S
C1858 C1850 1.574 . S
C1858 H1853 0.949 . S
C1858 C1864 1.368 . S
C1859 C1843 1.349 . S
C1859 H1851 0.950 . S
C1859 C1857 1.327 . S
C1860 C1848 1.349 . S
C1860 H1854 0.950 . S
C1860 C1861 1.327 . S
C1861 H1855 0.950 . S
C1861 C1860 1.327 . S
C1861 C1865 1.429 . S
C1862 C1845 1.574 . S
C1862 H1856 0.949 . S
C1862 C1866 1.368 . S
C1863 C1844 1.429 . S
C1863 C1857 1.429 . S
C1863 C1864 1.523 . S
C1864 C1845 1.368 . S
C1864 C1858 1.368 . S
C1864 C1863 1.523 . S
C1865 C1849 1.429 . S
C1865 C1861 1.429 . S
C1865 C1866 1.523 . S
C1866 C1850 1.368 . S
C1866 C1862 1.368 . S
C1866 C1865 1.523 . S
H1867 C1842 0.950 . S
H1868 C1844 0.950 . S
H1869 C1845 0.949 . S
H1870 C1847 0.950 . S
H1871 C1849 0.950 . S
C1872 C1873 1.349 . S
C1872 C1874 1.327 . S
C1872 H1897 0.950 . S
C1873 C1872 1.349 . S
C1873 C1889 1.349 . S
C1874 C1872 1.327 . S
C1874 C1893 1.429 . S
C1874 H1898 0.950 . S
C1875 C1892 1.574 . S
C1875 C1894 1.368 . S
C1875 H1899 0.949 . S
H1876 C1880 0.949 . S
C1877 C1878 1.349 . S
C1877 C1879 1.327 . S
C1877 H1900 0.950 . S
C1878 C1877 1.349 . S
C1878 C1890 1.349 . S
C1879 C1877 1.327 . S
C1879 C1895 1.429 . S
C1879 H1901 0.950 . S
C1880 H1876 0.949 . S
C1880 C1888 1.574 . S
C1880 C1896 1.368 . S
H1881 C1889 0.950 . S
H1882 C1887 0.950 . S
H1883 C1888 0.949 . S
H1884 C1890 0.950 . S
H1885 C1891 0.950 . S
H1886 C1892 0.949 . S
C1887 H1882 0.950 . S
C1887 C1889 1.327 . S
C1887 C1893 1.429 . S
C1888 C1880 1.574 . S
C1888 H1883 0.949 . S
C1888 C1894 1.368 . S
C1889 C1873 1.349 . S
C1889 H1881 0.950 . S
C1889 C1887 1.327 . S
C1890 C1878 1.349 . S
C1890 H1884 0.950 . S
C1890 C1891 1.327 . S
C1891 H1885 0.950 . S
C1891 C1890 1.327 . S
C1891 C1895 1.429 . S
C1892 C1875 1.574 . S
C1892 H1886 0.949 . S
C1892 C1896 1.368 . S
C1893 C1874 1.429 . S
C1893 C1887 1.429 . S
C1893 C1894 1.523 . S
C1894 C1875 1.368 . S
C1894 C1888 1.368 . S
C1894 C1893 1.523 . S
C1895 C1879 1.429 . S
C1895 C1891 1.429 . S
C1895 C1896 1.523 . S
C1896 C1880 1.368 . S
C1896 C1892 1.368 . S
C1896 C1895 1.523 . S
H1897 C1872 0.950 . S
H1898 C1874 0.950 . S
H1899 C1875 0.949 . S
H1900 C1877 0.950 . S
H1901 C1879 0.950 . S
C1902 C1903 1.349 . S
C1902 C1904 1.327 . S
C1902 H1927 0.950 . S
C1903 C1902 1.349 . S
C1903 C1919 1.349 . S
C1904 C1902 1.327 . S
C1904 C1923 1.429 . S
C1904 H1928 0.950 . S
C1905 C1922 1.574 . S
C1905 C1924 1.368 . S
C1905 H1929 0.949 . S
H1906 C1910 0.949 . S
C1907 C1908 1.349 . S
C1907 C1909 1.327 . S
C1907 H1930 0.950 . S
C1908 C1907 1.349 . S
C1908 C1920 1.349 . S
C1909 C1907 1.327 . S
C1909 C1925 1.429 . S
C1909 H1931 0.950 . S
C1910 H1906 0.949 . S
C1910 C1918 1.574 . S
C1910 C1926 1.368 . S
H1911 C1919 0.950 . S
H1912 C1917 0.950 . S
H1913 C1918 0.949 . S
H1914 C1920 0.950 . S
H1915 C1921 0.950 . S
H1916 C1922 0.949 . S
C1917 H1912 0.950 . S
C1917 C1919 1.327 . S
C1917 C1923 1.429 . S
C1918 C1910 1.574 . S
C1918 H1913 0.949 . S
C1918 C1924 1.368 . S
C1919 C1903 1.349 . S
C1919 H1911 0.950 . S
C1919 C1917 1.327 . S
C1920 C1908 1.349 . S
C1920 H1914 0.950 . S
C1920 C1921 1.327 . S
C1921 H1915 0.950 . S
C1921 C1920 1.327 . S
C1921 C1925 1.429 . S
C1922 C1905 1.574 . S
C1922 H1916 0.949 . S
C1922 C1926 1.368 . S
C1923 C1904 1.429 . S
C1923 C1917 1.429 . S
C1923 C1924 1.523 . S
C1924 C1905 1.368 . S
C1924 C1918 1.368 . S
C1924 C1923 1.523 . S
C1925 C1909 1.429 . S
C1925 C1921 1.429 . S
C1925 C1926 1.523 . S
C1926 C1910 1.368 . S
C1926 C1922 1.368 . S
C1926 C1925 1.523 . S
H1927 C1902 0.950 . S
H1928 C1904 0.950 . S
H1929 C1905 0.949 . S
H1930 C1907 0.950 . S
H1931 C1909 0.950 . S
C1932 C1933 1.349 . S
C1932 C1934 1.327 . S
C1932 H1957 0.950 . S
C1933 C1932 1.349 . S
C1933 C1949 1.349 . S
C1934 C1932 1.327 . S
C1934 C1953 1.429 . S
C1934 H1958 0.950 . S
C1935 C1952 1.574 . S
C1935 C1954 1.368 . S
C1935 H1959 0.949 . S
H1936 C1940 0.949 . S
C1937 C1938 1.349 . S
C1937 C1939 1.327 . S
C1937 H1960 0.950 . S
C1938 C1937 1.349 . S
C1938 C1950 1.349 . S
C1939 C1937 1.327 . S
C1939 C1955 1.429 . S
C1939 H1961 0.950 . S
C1940 H1936 0.949 . S
C1940 C1948 1.574 . S
C1940 C1956 1.368 . S
H1941 C1949 0.950 . S
H1942 C1947 0.950 . S
H1943 C1948 0.949 . S
H1944 C1950 0.950 . S
H1945 C1951 0.950 . S
H1946 C1952 0.949 . S
C1947 H1942 0.950 . S
C1947 C1949 1.327 . S
C1947 C1953 1.429 . S
C1948 C1940 1.574 . S
C1948 H1943 0.949 . S
C1948 C1954 1.368 . S
C1949 C1933 1.349 . S
C1949 H1941 0.950 . S
C1949 C1947 1.327 . S
C1950 C1938 1.349 . S
C1950 H1944 0.950 . S
C1950 C1951 1.327 . S
C1951 H1945 0.950 . S
C1951 C1950 1.327 . S
C1951 C1955 1.429 . S
C1952 C1935 1.574 . S
C1952 H1946 0.949 . S
C1952 C1956 1.368 . S
C1953 C1934 1.429 . S
C1953 C1947 1.429 . S
C1953 C1954 1.523 . S
C1954 C1935 1.368 . S
C1954 C1948 1.368 . S
C1954 C1953 1.523 . S
C1955 C1939 1.429 . S
C1955 C1951 1.429 . S
C1955 C1956 1.523 . S
C1956 C1940 1.368 . S
C1956 C1952 1.368 . S
C1956 C1955 1.523 . S
H1957 C1932 0.950 . S
H1958 C1934 0.950 . S
H1959 C1935 0.949 . S
H1960 C1937 0.950 . S
H1961 C1939 0.950 . S
C1962 C1963 1.349 . S
C1962 C1964 1.327 . S
C1962 H1987 0.950 . S
C1963 C1962 1.349 . S
C1963 C1979 1.349 . S
C1964 C1962 1.327 . S
C1964 C1983 1.429 . S
C1964 H1988 0.950 . S
C1965 C1982 1.574 . S
C1965 C1984 1.368 . S
C1965 H1989 0.949 . S
H1966 C1970 0.949 . S
C1967 C1968 1.349 . S
C1967 C1969 1.327 . S
C1967 H1990 0.950 . S
C1968 C1967 1.349 . S
C1968 C1980 1.349 . S
C1969 C1967 1.327 . S
C1969 C1985 1.429 . S
C1969 H1991 0.950 . S
C1970 H1966 0.949 . S
C1970 C1978 1.574 . S
C1970 C1986 1.368 . S
H1971 C1979 0.950 . S
H1972 C1977 0.950 . S
H1973 C1978 0.949 . S
H1974 C1980 0.950 . S
H1975 C1981 0.950 . S
H1976 C1982 0.949 . S
C1977 H1972 0.950 . S
C1977 C1979 1.327 . S
C1977 C1983 1.429 . S
C1978 C1970 1.574 . S
C1978 H1973 0.949 . S
C1978 C1984 1.368 . S
C1979 C1963 1.349 . S
C1979 H1971 0.950 . S
C1979 C1977 1.327 . S
C1980 C1968 1.349 . S
C1980 H1974 0.950 . S
C1980 C1981 1.327 . S
C1981 H1975 0.950 . S
C1981 C1980 1.327 . S
C1981 C1985 1.429 . S
C1982 C1965 1.574 . S
C1982 H1976 0.949 . S
C1982 C1986 1.368 . S
C1983 C1964 1.429 . S
C1983 C1977 1.429 . S
C1983 C1984 1.523 . S
C1984 C1965 1.368 . S
C1984 C1978 1.368 . S
C1984 C1983 1.523 . S
C1985 C1969 1.429 . S
C1985 C1981 1.429 . S
C1985 C1986 1.523 . S
C1986 C1970 1.368 . S
C1986 C1982 1.368 . S
C1986 C1985 1.523 . S
H1987 C1962 0.950 . S
H1988 C1964 0.950 . S
H1989 C1965 0.949 . S
H1990 C1967 0.950 . S
H1991 C1969 0.950 . S
C553 C522 2.008 . S
C558 N12 2.112 . S
C583 C39 2.160 . S
C588 N380 2.252 . S
C613 C545 1.882 . S
C618 N58 1.990 . S
C643 N495 2.183 . S
C648 N81 2.171 . S
C673 N426 2.258 . S
C678 N104 2.267 . S
C703 C453 2.106 . S
C708 N127 2.070 . S
C733 N472 2.277 . S
C738 C154 2.310 . S
C763 C177 2.067 . S
C768 C407 2.195 . S
C793 C315 2.332 . S
C798 C200 2.444 . S
C823 N334 1.997 . S
C828 N219 1.996 . S
C853 C246 2.440 . S
C858 C361 2.331 . S
C883 N265 2.024 . S
C888 N288 2.029 . S
C913 N173 2.218 . S
C918 C338 2.114 . S
C943 N357 2.276 . S
C948 C108 2.185 . S
C973 C131 2.108 . S
C978 C292 1.979 . S
C1003 N311 2.142 . S
C1008 N150 2.132 . S
C1033 N242 2.169 . S
C1038 N35 2.178 . S
C1063 C62 1.947 . S
C1068 C269 2.088 . S
C1093 C85 2.256 . S
C1098 N196 2.226 . S
C1123 C16 2.047 . S
C1128 C223 2.171 . S
C1153 C476 2.414 . S
C1158 C499 2.316 . S
C1183 N518 1.970 . S
C1188 N403 1.962 . S
C1213 C430 2.481 . S
C1218 C384 2.365 . S
C1243 N541 1.922 . S
C1248 N449 1.918 . S
C1273 N2 0.931 . S
C1278 N186 0.915 . S
C1303 C214 1.462 . S
C1308 C30 1.472 . S
C1333 N48 0.889 . S
C1338 N232 0.874 . S
C1363 N71 1.084 . S
C1368 C260 1.170 . S
C1393 N94 1.174 . S
C1398 C283 1.240 . S
C1423 N117 0.932 . S
C1428 N301 0.961 . S
C1453 C329 1.506 . S
C1458 C145 1.515 . S
C1483 N347 1.223 . S
C1488 C168 1.286 . S
C1513 C191 1.629 . S
C1518 C375 1.637 . S
C1543 N209 0.843 . S
C1548 N531 0.853 . S
C1573 C490 1.615 . S
C1578 C237 1.600 . S
C1603 N508 0.917 . S
C1608 N255 0.892 . S
C1633 N393 0.901 . S
C1638 N278 0.913 . S
C1663 C421 1.633 . S
C1668 C306 1.627 . S
C1693 N324 0.892 . S
C1698 N439 0.871 . S
C1723 C352 1.590 . S
C1728 C467 1.582 . S
C1753 C7 1.297 . S
C1758 N370 1.228 . S
C1783 C398 1.465 . S
C1788 C99 1.472 . S
C1813 N416 1.085 . S
C1818 C122 1.186 . S
C1843 C444 1.149 . S
C1848 N140 1.062 . S
C1873 N462 0.970 . S
C1878 N163 0.992 . S
C1903 N485 1.201 . S
C1908 C53 1.273 . S
C1933 C76 1.483 . S
C1938 C513 1.478 . S
C1963 C536 1.273 . S
C1968 N25 1.200 . S
