# Generated by pormake.
# Topology snk, (6)-cn, num edge types: 1
# Building blocks:
#     Node 0, Type 0, BuildingBlock: BETGAK_clean_sbu_0, # of connection points: 6
#     Node 1, Type 0, BuildingBlock: BETGAK_clean_sbu_0, # of connection points: 6
#     Node 2, Type 0, BuildingBlock: BETGAK_clean_sbu_0, # of connection points: 6
#     Node 3, Type 0, BuildingBlock: BETGAK_clean_sbu_0, # of connection points: 6
#     Node 4, Type 0, BuildingBlock: BETGAK_clean_sbu_0, # of connection points: 6
#     Node 5, Type 0, BuildingBlock: BETGAK_clean_sbu_0, # of connection points: 6
#     Node 6, Type 0, BuildingBlock: BETGAK_clean_sbu_0, # of connection points: 6
#     Node 7, Type 0, BuildingBlock: BETGAK_clean_sbu_0, # of connection points: 6
#     Edge 8, Type (0, 0), BuildingBlock: CIFDUS_clean_linker_0, # of connection points: 2
#     Edge 9, Type (0, 0), BuildingBlock: CIFDUS_clean_linker_0, # of connection points: 2
#     Edge 10, Type (0, 0), BuildingBlock: CIFDUS_clean_linker_0, # of connection points: 2
#     Edge 11, Type (0, 0), BuildingBlock: CIFDUS_clean_linker_0, # of connection points: 2
#     Edge 12, Type (0, 0), BuildingBlock: CIFDUS_clean_linker_0, # of connection points: 2
#     Edge 13, Type (0, 0), BuildingBlock: CIFDUS_clean_linker_0, # of connection points: 2
#     Edge 14, Type (0, 0), BuildingBlock: CIFDUS_clean_linker_0, # of connection points: 2
#     Edge 15, Type (0, 0), BuildingBlock: CIFDUS_clean_linker_0, # of connection points: 2
#     Edge 16, Type (0, 0), BuildingBlock: CIFDUS_clean_linker_0, # of connection points: 2
#     Edge 17, Type (0, 0), BuildingBlock: CIFDUS_clean_linker_0, # of connection points: 2
#     Edge 18, Type (0, 0), BuildingBlock: CIFDUS_clean_linker_0, # of connection points: 2
#     Edge 19, Type (0, 0), BuildingBlock: CIFDUS_clean_linker_0, # of connection points: 2
#     Edge 20, Type (0, 0), BuildingBlock: CIFDUS_clean_linker_0, # of connection points: 2
#     Edge 21, Type (0, 0), BuildingBlock: CIFDUS_clean_linker_0, # of connection points: 2
#     Edge 22, Type (0, 0), BuildingBlock: CIFDUS_clean_linker_0, # of connection points: 2
#     Edge 23, Type (0, 0), BuildingBlock: CIFDUS_clean_linker_0, # of connection points: 2
#     Edge 24, Type (0, 0), BuildingBlock: CIFDUS_clean_linker_0, # of connection points: 2
#     Edge 25, Type (0, 0), BuildingBlock: CIFDUS_clean_linker_0, # of connection points: 2
#     Edge 26, Type (0, 0), BuildingBlock: CIFDUS_clean_linker_0, # of connection points: 2
#     Edge 27, Type (0, 0), BuildingBlock: CIFDUS_clean_linker_0, # of connection points: 2
#     Edge 28, Type (0, 0), BuildingBlock: CIFDUS_clean_linker_0, # of connection points: 2
#     Edge 29, Type (0, 0), BuildingBlock: CIFDUS_clean_linker_0, # of connection points: 2
#     Edge 30, Type (0, 0), BuildingBlock: CIFDUS_clean_linker_0, # of connection points: 2
#     Edge 31, Type (0, 0), BuildingBlock: CIFDUS_clean_linker_0, # of connection points: 2
# Relax obj value: 0.103
# Max RMSD: 0.169
# Mean RMSD: 0.133
data_MOF--net-snk--node1-BETGAK_clean_sbu_0--edge1-CIFDUS_clean_linker_0
_symmetry_space_group_name_H-M    P1
_symmetry_Int_Tables_number       1
_symmetry_cell_setting            triclinic
loop_
_symmetry_equiv_pos_as_xyz
'x, y, z'
_cell_length_a     32.362589
_cell_length_b     32.079083
_cell_length_c     23.297355
_cell_angle_alpha  84.400565
_cell_angle_beta   95.61788
_cell_angle_gamma 89.392504
loop_
_atom_site_label
_atom_site_type_symbol
_atom_site_fract_x
_atom_site_fract_y
_atom_site_fract_z
_atom_type_partial_charge
La0 La 0.99763 1.00602 0.47073 0.0
La1 La 0.03843 0.02756 0.58555 0.0
C2 C 0.96437 1.00678 0.36797 0.0
C3 C 0.9766 1.01423 0.3089 0.0
C4 C 0.01848 1.01774 0.29867 0.0
C5 C 0.02953 0.0224 0.24184 0.0
C6 C 0.99885 0.02359 0.19442 0.0
C7 C 0.95689 0.02096 0.20519 0.0
C8 C 0.94591 1.01629 0.26194 0.0
C9 C 0.04739 0.94761 0.52909 0.0
C10 C 0.0823 0.05733 0.47712 0.0
C11 C 0.07184 0.02606 0.68832 0.0
C12 C 0.05905 0.02044 0.74723 0.0
C13 C 0.01701 1.01762 0.75684 0.0
C14 C 1.00547 1.01397 0.81343 0.0
C15 C 0.03582 1.01317 0.86121 0.0
C16 C 0.07793 1.01534 0.85106 0.0
C17 C 0.08939 0.01896 0.79456 0.0
C18 C 0.98852 0.08589 0.52764 0.0
C19 C 0.95279 0.97715 0.57876 0.0
O20 O 0.98062 0.9733 0.39879 0.0
O21 O 0.96453 0.0392 0.39798 0.0
O22 O 1.01369 0.93989 0.49756 0.0
O23 O 0.05326 0.98639 0.52444 0.0
O24 O 0.04751 0.04849 0.44596 0.0
O25 O 0.08873 0.04503 0.53316 0.0
O26 O 0.05803 0.0602 0.65671 0.0
O27 O 0.06924 0.99323 0.65908 0.0
O28 O 0.02203 0.09372 0.55954 0.0
O29 O 0.98283 0.04711 0.53206 0.0
O30 O 0.98719 0.98664 0.61045 0.0
O31 O 0.94725 0.98826 0.52236 0.0
H32 H 0.04259 1.01613 0.33456 0.0
H33 H 0.06213 0.024 0.23508 0.0
H34 H 0.93247 0.02251 0.16972 0.0
H35 H 0.91342 1.01379 0.26917 0.0
H36 H 0.99317 0.0188 0.72065 0.0
H37 H 0.97278 1.0127 0.81971 0.0
H38 H 0.10209 1.01407 0.88684 0.0
H39 H 0.12199 0.02093 0.78779 0.0
La40 La 0.25545 0.75177 0.81961 0.0
La41 La 0.2902 0.78805 0.71065 0.0
C42 C 0.24356 0.72194 0.92089 0.0
C43 C 0.25153 0.73335 0.98065 0.0
C44 C 0.22218 0.72308 1.01986 0.0
C45 C 0.22836 0.73391 0.07666 0.0
C46 C 0.26417 0.75522 0.09555 0.0
C47 C 0.29363 0.76549 0.05599 0.0
C48 C 0.28734 0.7547 0.999 0.0
C49 C 0.2076 0.8071 0.75162 0.0
C50 C 0.31648 0.82989 0.82248 0.0
C51 C 0.30115 0.81874 0.60943 0.0
C52 C 0.29312 0.80756 0.54957 0.0
C53 C 0.3224 0.81799 0.51032 0.0
C54 C 0.3162 0.80726 0.45346 0.0
C55 C 0.28042 0.7859 0.43456 0.0
C56 C 0.25101 0.77551 0.47414 0.0
C57 C 0.25733 0.78619 0.53117 0.0
C58 C 0.3395 0.7347 0.77889 0.0
C59 C 0.23015 0.70874 0.70897 0.0
O60 O 0.21648 0.74562 0.8868 0.0
O61 O 0.27582 0.71234 0.8946 0.0
O62 O 0.19372 0.77433 0.78 0.0
O63 O 0.24616 0.80866 0.76358 0.0
O64 O 0.30148 0.79657 0.85122 0.0
O65 O 0.30977 0.83695 0.76537 0.0
O66 O 0.32874 0.79533 0.64303 0.0
O67 O 0.26888 0.82759 0.6362 0.0
O68 O 0.35213 0.7673 0.74874 0.0
O69 O 0.30084 0.7316 0.76777 0.0
O70 O 0.24498 0.74199 0.67973 0.0
O71 O 0.23645 0.70242 0.76606 0.0
H72 H 0.19422 0.70685 1.00637 0.0
H73 H 0.20469 0.72616 0.10551 0.0
H74 H 0.32175 0.78151 0.06919 0.0
H75 H 0.31042 0.76303 0.96943 0.0
H76 H 0.35034 0.83424 0.52382 0.0
H77 H 0.33984 0.81511 0.42459 0.0
H78 H 0.22291 0.75946 0.46094 0.0
H79 H 0.2343 0.77775 0.56077 0.0
La80 La 0.5302 0.99339 0.09035 0.0
La81 La 0.50483 0.03775 0.97447 0.0
C82 C 0.55171 0.97064 0.19614 0.0
C83 C 0.54283 0.98144 0.25369 0.0
C84 C 0.50342 0.99615 0.26358 0.0
C85 C 0.495 1.00359 0.31949 0.0
C86 C 0.52578 0.99614 0.36659 0.0
C87 C 0.56545 0.98211 0.35608 0.0
C88 C 0.57385 0.97491 0.30014 0.0
C89 C 0.4819 0.94963 1.02165 0.0
C90 C 0.45574 0.06096 0.07438 0.0
C91 C 0.48341 0.06038 0.86862 0.0
C92 C 0.4926 0.04973 0.81114 0.0
C93 C 0.53207 0.03497 0.80154 0.0
C94 C 0.54072 0.0276 0.74569 0.0
C95 C 0.5101 0.03512 0.69839 0.0
C96 C 0.4704 0.04925 0.7086 0.0
C97 C 0.46178 0.05641 0.76446 0.0
C98 C 0.55299 0.08164 0.04327 0.0
C99 C 0.57918 0.97004 0.99047 0.0
O100 O 0.5215 0.95403 0.16523 0.0
O101 O 0.57154 0.99827 0.1649 0.0
O102 O 0.5121 0.9342 0.05821 0.0
O103 O 0.47808 0.98844 1.02603 0.0
O104 O 0.4856 0.04085 0.10967 0.0
O105 O 0.45362 0.05957 1.01773 0.0
O106 O 0.51335 0.07728 0.89967 0.0
O107 O 0.46377 0.0325 0.89975 0.0
O108 O 0.52277 0.09696 1.00665 0.0
O109 O 0.55693 0.04284 0.03875 0.0
O110 O 0.54934 0.99025 0.9553 0.0
O111 O 0.58138 0.97136 0.04712 0.0
H112 H 0.47896 1.0011 0.22832 0.0
H113 H 0.4643 1.01495 0.32585 0.0
H114 H 0.58972 0.9755 0.39134 0.0
H115 H 0.6044 0.96333 0.29335 0.0
H116 H 0.55637 0.02989 0.83699 0.0
H117 H 0.57143 1.01618 0.73954 0.0
H118 H 0.44627 0.05594 0.67318 0.0
H119 H 0.4312 0.06804 0.77101 0.0
La120 La 0.25847 0.27988 0.24324 0.0
La121 La 0.30264 0.24973 0.35922 0.0
C122 C 0.23772 0.30336 0.13742 0.0
C123 C 0.25079 0.29477 0.08056 0.0
C124 C 0.26172 0.25401 0.06957 0.0
C125 C 0.26972 0.24555 1.01387 0.0
C126 C 0.26679 0.27762 0.96777 0.0
C127 C 0.25741 0.31872 0.97948 0.0
C128 C 0.24946 0.32715 0.03533 0.0
C129 C 0.21415 0.23061 0.3094 0.0
C130 C 0.32302 0.2024 0.25632 0.0
C131 C 0.32199 0.22338 0.46461 0.0
C132 C 0.31565 0.235 0.52292 0.0
C133 C 0.30965 0.27686 0.53349 0.0
C134 C 0.30467 0.287 0.58963 0.0
C135 C 0.30594 0.25548 0.63644 0.0
C136 C 0.31192 0.21358 0.62531 0.0
C137 C 0.31659 0.20351 0.56917 0.0
C138 C 0.34614 0.29956 0.29186 0.0
C139 C 0.23875 0.32761 0.34772 0.0
O140 O 0.22079 0.27236 0.16677 0.0
O141 O 0.26331 0.32391 0.17078 0.0
O142 O 0.19972 0.2624 0.2745 0.0
O143 O 0.25262 0.22594 0.305 0.0
O144 O 0.30479 0.23431 0.22244 0.0
O145 O 0.321 0.19856 0.31288 0.0
O146 O 0.34506 0.24801 0.43367 0.0
O147 O 0.28926 0.21143 0.43349 0.0
O148 O 0.36209 0.26986 0.32934 0.0
O149 O 0.30788 0.30306 0.2971 0.0
O150 O 0.25995 0.2975 0.3813 0.0
O151 O 0.23707 0.33 0.29046 0.0
H152 H 0.26293 0.22843 0.10366 0.0
H153 H 0.27759 0.21369 1.00672 0.0
H154 H 0.2546 0.34412 0.94504 0.0
H155 H 0.24099 0.3588 0.04278 0.0
H156 H 0.30916 0.30168 0.49845 0.0
H157 H 0.29963 0.31954 0.59623 0.0
H158 H 0.31384 0.18849 0.66016 0.0
H159 H 0.32145 0.17102 0.56199 0.0
La160 La 0.7383 0.24908 0.35197 0.0
La161 La 0.77724 0.28266 0.24467 0.0
C162 C 0.72362 0.22063 0.45275 0.0
C163 C 0.73123 0.23214 0.51261 0.0
C164 C 0.70025 0.22496 0.55026 0.0
C165 C 0.70621 0.23586 0.60711 0.0
C166 C 0.74341 0.25417 0.62763 0.0
C167 C 0.77448 0.26134 0.58963 0.0
C168 C 0.76844 0.25045 0.53266 0.0
C169 C 0.69068 0.30027 0.27792 0.0
C170 C 0.80173 0.3258 0.3564 0.0
C171 C 0.79218 0.3106 0.14382 0.0
C172 C 0.78072 0.3023 0.08329 0.0
C173 C 0.80977 0.31025 0.04299 0.0
C174 C 0.80084 0.30129 0.98566 0.0
C175 C 0.7625 0.28421 0.96726 0.0
C176 C 0.73322 0.27649 1.00786 0.0
C177 C 0.74227 0.28543 0.06543 0.0
C178 C 0.82328 0.22918 0.31776 0.0
C179 C 0.71579 0.20489 0.24135 0.0
O180 O 0.69798 0.24525 0.41763 0.0
O181 O 0.75588 0.20928 0.42767 0.0
O182 O 0.67743 0.26856 0.30923 0.0
O183 O 0.72916 0.30408 0.29117 0.0
O184 O 0.78209 0.29532 0.38459 0.0
O185 O 0.80001 0.33042 0.29915 0.0
O186 O 0.81443 0.28126 0.17597 0.0
O187 O 0.76329 0.3262 0.17165 0.0
O188 O 0.83796 0.26082 0.2879 0.0
O189 O 0.78492 0.22719 0.30378 0.0
O190 O 0.73136 0.23783 0.21248 0.0
O191 O 0.72081 0.19892 0.29862 0.0
H192 H 0.67122 0.21106 0.53554 0.0
H193 H 0.68135 0.2305 0.6347 0.0
H194 H 0.80369 0.27495 0.60406 0.0
H195 H 0.79285 0.25629 0.5044 0.0
H196 H 0.83974 0.32295 0.05609 0.0
H197 H 0.82444 0.30692 0.95608 0.0
H198 H 0.70324 0.26372 0.99513 0.0
H199 H 0.7194 0.27896 0.09594 0.0
La200 La 0.73283 0.78399 0.70193 0.0
La201 La 0.77994 0.75526 0.81692 0.0
C202 C 0.71034 0.80709 0.59624 0.0
C203 C 0.72168 0.79785 0.53854 0.0
C204 C 0.72651 0.7565 0.52471 0.0
C205 C 0.73634 0.74853 0.46948 0.0
C206 C 0.74115 0.78169 0.4265 0.0
C207 C 0.73619 0.82304 0.44048 0.0
C208 C 0.72668 0.83098 0.4959 0.0
C209 C 0.69678 0.72649 0.76856 0.0
C210 C 0.8041 0.71393 0.70895 0.0
C211 C 0.79832 0.7293 0.92268 0.0
C212 C 0.78764 0.74009 0.97987 0.0
C213 C 0.77999 0.78171 0.99049 0.0
C214 C 0.77078 0.79109 0.04548 0.0
C215 C 0.76897 0.75905 0.0911 0.0
C216 C 0.77619 0.71738 0.07981 0.0
C217 C 0.78544 0.70808 1.02489 0.0
C218 C 0.81994 0.80984 0.7528 0.0
C219 C 0.71042 0.82944 0.8054 0.0
O220 O 0.69272 0.7773 0.62701 0.0
O221 O 0.73776 0.82664 0.62821 0.0
O222 O 0.67683 0.75686 0.73627 0.0
O223 O 0.73462 0.72846 0.76106 0.0
O224 O 0.78184 0.7443 0.67768 0.0
O225 O 0.80486 0.70845 0.7663 0.0
O226 O 0.82012 0.75633 0.8933 0.0
O227 O 0.76853 0.71403 0.88944 0.0
O228 O 0.83716 0.77964 0.78845 0.0
O229 O 0.78106 0.8107 0.75672 0.0
O230 O 0.73289 0.79997 0.83893 0.0
O231 O 0.70944 0.83244 0.74843 0.0
H232 H 0.72236 0.73027 0.5564 0.0
H233 H 0.73943 0.71629 0.46014 0.0
H234 H 0.74012 0.84934 0.40877 0.0
H235 H 0.72303 0.86314 0.50541 0.0
H236 H 0.78145 0.80702 0.95644 0.0
H237 H 0.76579 0.82357 0.05243 0.0
H238 H 0.7743 0.69175 0.11326 0.0
H239 H 0.79096 0.67573 1.0176 0.0
La240 La 0.49925 0.49218 0.96485 0.0
La241 La 0.53158 0.53042 0.07323 0.0
C242 C 0.47099 0.47619 0.86449 0.0
C243 C 0.47969 0.48671 0.8039 0.0
C244 C 0.4732 0.45631 0.76483 0.0
C245 C 0.48255 0.46445 0.70756 0.0
C246 C 0.49855 0.50333 0.68799 0.0
C247 C 0.50474 0.53394 0.72732 0.0
C248 C 0.49547 0.52568 0.7848 0.0
C249 C 0.56102 0.45098 0.0296 0.0
C250 C 0.56383 0.5666 0.95798 0.0
C251 C 0.56237 0.54306 0.17382 0.0
C252 C 0.55167 0.53463 0.23397 0.0
C253 C 0.55665 0.56637 0.27124 0.0
C254 C 0.54615 0.55971 0.32817 0.0
C255 C 0.5304 0.52106 0.34913 0.0
C256 C 0.52556 0.48917 0.31162 0.0
C257 C 0.53615 0.49587 0.25463 0.0
C258 C 0.47034 0.57261 1.00988 0.0
C259 C 0.46183 0.45925 0.07786 0.0
O260 O 0.49944 0.4534 0.8973 0.0
O261 O 0.45629 0.50615 0.89153 0.0
O262 O 0.53029 0.43344 1.00213 0.0
O263 O 0.55733 0.49013 1.01859 0.0
O264 O 0.53318 0.54661 0.9314 0.0
O265 O 0.57411 0.55967 1.0146 0.0
O266 O 0.5382 0.57001 0.14017 0.0
O267 O 0.57221 0.51084 0.1471 0.0
O268 O 0.50021 0.58957 0.04 0.0
O269 O 0.4738 0.53328 1.01919 0.0
O270 O 0.4917 0.47959 0.1062 0.0
O271 O 0.45505 0.46438 1.02065 0.0
H272 H 0.46133 0.42593 0.77887 0.0
H273 H 0.47806 0.43986 0.67899 0.0
H274 H 0.51658 0.56437 0.71364 0.0
H275 H 0.50083 0.54962 0.81426 0.0
H276 H 0.56845 0.59654 0.25613 0.0
H277 H 0.54971 0.58516 0.35547 0.0
H278 H 0.51399 0.45886 0.32647 0.0
H279 H 0.53224 0.47078 0.22681 0.0
La280 La 0.03428 0.50027 0.57304 0.0
La281 La 1.00257 0.54892 0.45894 0.0
C282 C 0.05685 0.47772 0.67908 0.0
C283 C 0.04759 0.4902 0.73643 0.0
C284 C 1.00711 0.50145 0.74702 0.0
C285 C 0.99867 0.51143 0.8021 0.0
C286 C 0.03043 0.51024 0.84829 0.0
C287 C 0.07098 0.49921 0.8373 0.0
C288 C 0.07941 0.48938 0.78209 0.0
C289 C 0.9789 0.4624 0.50658 0.0
C290 C 0.96392 0.5714 0.56887 0.0
C291 C 0.97618 0.56835 0.35344 0.0
C292 C 0.98571 0.55626 0.29605 0.0
C293 C 0.02637 0.54575 0.28547 0.0
C294 C 0.03505 0.53602 0.23036 0.0
C295 C 1.00333 0.53677 0.18417 0.0
C296 C 0.9626 0.54712 0.19515 0.0
C297 C 0.95393 0.55665 0.25039 0.0
C298 C 0.05723 0.58917 0.52298 0.0
C299 C 0.07638 0.47966 0.46584 0.0
O300 O 0.02678 0.46064 0.64843 0.0
O301 O 0.07719 0.50422 0.64667 0.0
O302 O 1.00895 0.44307 0.53979 0.0
O303 O 0.97891 0.50067 0.51428 0.0
O304 O 0.99536 0.54977 0.59829 0.0
O305 O 0.95658 0.57179 0.51175 0.0
O306 O 1.00489 0.58863 0.38218 0.0
O307 O 0.9591 0.54012 0.38754 0.0
O308 O 0.02666 0.60664 0.48856 0.0
O309 O 0.05829 0.55014 0.51791 0.0
O310 O 0.04565 0.50171 0.43479 0.0
O311 O 0.08169 0.47825 0.52307 0.0
H312 H 0.98182 0.50215 0.71283 0.0
H313 H 0.96697 0.51928 0.80871 0.0
H314 H 0.09641 0.49851 0.87126 0.0
H315 H 0.11088 0.4808 0.77516 0.0
H316 H 0.0516 0.54552 0.31967 0.0
H317 H 0.06686 0.5287 0.22372 0.0
H318 H 0.93723 0.54749 0.16115 0.0
H319 H 0.92233 0.56467 0.25735 0.0
H320 H 0.06864 0.1148 0.3844 0.0
H321 H 0.16617 0.05907 0.50825 0.0
H322 H 0.21685 0.10565 0.46501 0.0
H323 H 0.23274 0.16442 0.39331 0.0
H324 H 0.13231 0.22395 0.27764 0.0
H325 H 0.08389 0.17348 0.31546 0.0
C326 C 0.10108 0.11248 0.40152 0.0
C327 C 0.1137 0.08331 0.44908 0.0
C328 C 0.12962 0.14027 0.37788 0.0
C329 C 0.15571 0.08126 0.47151 0.0
C330 C 0.18468 0.10791 0.44682 0.0
C331 C 0.20029 0.16643 0.37676 0.0
C332 C 0.18627 0.19824 0.33304 0.0
C333 C 0.17192 0.13797 0.40032 0.0
C334 C 0.14404 0.20006 0.31158 0.0
C335 C 0.11618 0.17113 0.33312 0.0
H336 H 0.12488 0.95675 0.58144 0.0
H337 H 0.02591 0.86845 0.56589 0.0
H338 H 0.06633 0.81712 0.63426 0.0
H339 H 0.12991 0.79755 0.69933 0.0
H340 H 0.2297 0.8852 0.71191 0.0
H341 H 0.18903 0.93656 0.64417 0.0
C342 C 0.11226 0.92624 0.59308 0.0
C343 C 0.07249 0.91637 0.56897 0.0
C344 C 0.13581 0.89683 0.63204 0.0
C345 C 0.05653 0.87667 0.5839 0.0
C346 C 0.07957 0.84738 0.6231 0.0
C347 C 0.14258 0.82797 0.68727 0.0
C348 C 0.18257 0.83774 0.71067 0.0
C349 C 0.1192 0.85715 0.64762 0.0
C350 C 0.19894 0.87702 0.69436 0.0
C351 C 0.17571 0.90639 0.65567 0.0
H352 H 0.37046 0.80958 0.91708 0.0
H353 H 0.32191 0.91487 0.80001 0.0
H354 H 0.36666 0.96222 0.8536 0.0
H355 H 0.42051 0.97318 0.93376 0.0
H356 H 0.47441 0.86583 0.04216 0.0
H357 H 0.42619 0.81999 0.99309 0.0
C358 C 0.36946 0.84296 0.90362 0.0
C359 C 0.34267 0.85885 0.85515 0.0
C360 C 0.39627 0.86962 0.93326 0.0
C361 C 0.34228 0.90199 0.83734 0.0
C362 C 0.36781 0.92903 0.868 0.0
C363 C 0.42202 0.9398 0.94609 0.0
C364 C 0.45136 0.92307 0.99125 0.0
C365 C 0.39518 0.91317 0.91592 0.0
C366 C 0.45233 0.87963 1.00737 0.0
C367 C 0.42474 0.85329 0.97932 0.0
H368 H 0.44527 0.06522 0.18806 0.0
H369 H 0.39883 0.1176 1.01586 0.0
H370 H 0.35307 0.16542 0.05679 0.0
H371 H 0.32849 0.19431 0.14167 0.0
H372 H 0.37388 0.14017 0.31356 0.0
H373 H 0.41777 0.09103 0.27237 0.0
C374 C 0.42493 0.08676 0.15934 0.0
C375 C 0.42566 0.08774 0.09895 0.0
C376 C 0.3986 0.11404 0.18312 0.0
C377 C 0.39894 0.11601 0.06252 0.0
C378 C 0.37282 0.14351 0.08589 0.0
C379 C 0.34767 0.17158 0.17016 0.0
C380 C 0.34781 0.17113 0.23068 0.0
C381 C 0.37272 0.14309 0.14617 0.0
C382 C 0.373 0.14133 0.26684 0.0
C383 C 0.39823 0.11319 0.24334 0.0
H384 H 0.95798 0.93748 0.6879 0.0
H385 H 0.87445 0.96075 0.53158 0.0
H386 H 0.82366 0.91424 0.5736 0.0
H387 H 0.80531 0.86228 0.65226 0.0
H388 H 0.89134 0.83653 0.80527 0.0
H389 H 0.93828 0.88887 0.76755 0.0
C390 C 0.92847 0.93286 0.66321 0.0
C391 C 0.92026 0.95249 0.60655 0.0
C392 C 0.89973 0.90538 0.68709 0.0
C393 C 0.88181 0.9459 0.57523 0.0
C394 C 0.85266 0.91925 0.59921 0.0
C395 C 0.83393 0.86866 0.67757 0.0
C396 C 0.84476 0.84547 0.73134 0.0
C397 C 0.86158 0.89813 0.65474 0.0
C398 C 0.88234 0.85377 0.76349 0.0
C399 C 0.9093 0.8837 0.74197 0.0
H400 H 0.90936 0.0774 0.48057 0.0
H401 H 1.00942 0.1649 0.49028 0.0
H402 H 0.96713 0.21711 0.42593 0.0
H403 H 0.90184 0.23764 0.36601 0.0
H404 H 0.8006 0.1514 0.35953 0.0
H405 H 0.84296 0.099 0.42363 0.0
C406 C 0.92178 0.10795 0.46852 0.0
C407 C 0.96239 0.11738 0.4898 0.0
C408 C 0.89706 0.13798 0.43217 0.0
C409 C 0.97815 0.15707 0.47444 0.0
C410 C 0.95403 0.18687 0.43759 0.0
C411 C 0.88913 0.20735 0.37873 0.0
C412 C 0.84835 0.19819 0.35797 0.0
C413 C 0.91349 0.17764 0.41609 0.0
C414 C 0.83198 0.15908 0.3751 0.0
C415 C 0.85619 0.12912 0.4116 0.0
H416 H 0.66517 0.22307 0.14261 0.0
H417 H 0.70877 0.12053 0.26807 0.0
H418 H 0.66476 0.07215 0.21543 0.0
H419 H 0.61242 0.05962 0.13429 0.0
H420 H 0.56318 0.16455 1.01693 0.0
H421 H 0.61134 0.21111 0.06472 0.0
C422 C 0.66531 0.19004 0.15807 0.0
C423 C 0.69045 0.17525 0.20872 0.0
C424 C 0.63886 0.16282 0.12888 0.0
C425 C 0.6897 0.13258 0.22904 0.0
C426 C 0.66457 0.10494 0.19894 0.0
C427 C 0.61199 0.09261 0.11959 0.0
C428 C 0.5839 0.10847 0.07241 0.0
C429 C 0.63871 0.11976 0.14898 0.0
C430 C 0.58426 0.15144 0.05336 0.0
C431 C 0.61182 0.17819 0.08067 0.0
H432 H 0.70858 0.83932 0.92063 0.0
H433 H 0.65476 0.88773 0.74974 0.0
H434 H 0.61084 0.936 0.79196 0.0
H435 H 0.58588 0.96293 0.87668 0.0
H436 H 0.63952 0.91634 0.04813 0.0
H437 H 0.6854 0.86903 1.00626 0.0
C438 C 0.6874 0.86053 0.89261 0.0
C439 C 0.68504 0.85966 0.83202 0.0
C440 C 0.66213 0.88855 0.91719 0.0
C441 C 0.65739 0.88755 0.79646 0.0
C442 C 0.63213 0.91524 0.82055 0.0
C443 C 0.60781 0.94281 0.90507 0.0
C444 C 0.60913 0.94334 0.96549 0.0
C445 C 0.63403 0.9158 0.88078 0.0
C446 C 0.6378 0.91675 1.00142 0.0
C447 C 0.66401 0.88956 0.97751 0.0
H448 H 0.64601 0.5752 0.94227 0.0
H449 H 0.52509 0.63259 0.89415 0.0
H450 H 0.55522 0.6882 0.83295 0.0
H451 H 0.61603 0.72003 0.79138 0.0
H452 H 0.73554 0.65755 0.82902 0.0
H453 H 0.70636 0.60479 0.8956 0.0
C454 C 0.62653 0.60017 0.9187 0.0
C455 C 0.58359 0.6004 0.92336 0.0
C456 C 0.6439 0.63114 0.88152 0.0
C457 C 0.55833 0.63219 0.8916 0.0
C458 C 0.57552 0.66389 0.85645 0.0
C459 C 0.63564 0.69487 0.81421 0.0
C460 C 0.67818 0.69352 0.80667 0.0
C461 C 0.61825 0.66361 0.85076 0.0
C462 C 0.70299 0.66017 0.83558 0.0
C463 C 0.68625 0.62974 0.87338 0.0
H464 H 0.70189 0.37872 0.22362 0.0
H465 H 0.62174 0.27217 0.22111 0.0
H466 H 0.57588 0.30862 0.14263 0.0
H467 H 0.55653 0.3715 0.0774 0.0
H468 H 0.63387 0.47991 0.08025 0.0
H469 H 0.68265 0.44237 0.15568 0.0
C470 C 0.67452 0.36357 0.20545 0.0
C471 C 0.6651 0.32291 0.22825 0.0
C472 C 0.6476 0.38516 0.16067 0.0
C473 C 0.62946 0.3036 0.20466 0.0
C474 C 0.6032 0.32438 0.15968 0.0
C475 C 0.5842 0.38685 0.09427 0.0
C476 C 0.59154 0.42843 0.0736 0.0
C477 C 0.61165 0.36529 0.13784 0.0
C478 C 0.62745 0.44796 0.09591 0.0
C479 C 0.65534 0.42648 0.13894 0.0
H480 H 0.9132 0.41883 0.54119 0.0
H481 H 0.97489 0.45868 0.3903 0.0
H482 H 0.9235 0.42289 0.32918 0.0
H483 H 0.86273 0.37736 0.31957 0.0
H484 H 0.80248 0.33557 0.47168 0.0
H485 H 0.85119 0.37484 0.53113 0.0
C486 C 0.91503 0.4198 0.49483 0.0
C487 C 0.94716 0.44182 0.46988 0.0
C488 C 0.88566 0.39863 0.46022 0.0
C489 C 0.94978 0.44263 0.41005 0.0
C490 C 0.92057 0.42194 0.37523 0.0
C491 C 0.85986 0.37728 0.36556 0.0
C492 C 0.82884 0.35341 0.39092 0.0
C493 C 0.88847 0.39959 0.39987 0.0
C494 C 0.82603 0.35344 0.45083 0.0
C495 C 0.85397 0.3759 0.48502 0.0
H496 H 0.87252 0.66478 0.7492 0.0
H497 H 0.78981 0.70119 0.59544 0.0
H498 H 0.83103 0.66052 0.53837 0.0
H499 H 0.89204 0.61589 0.5308 0.0
H500 H 0.97632 0.58161 0.68398 0.0
H501 H 0.93333 0.61957 0.74176 0.0
C502 C 0.86334 0.66338 0.7034 0.0
C503 C 0.82814 0.68607 0.67681 0.0
C504 C 0.8877 0.64032 0.67025 0.0
C505 C 0.81689 0.68425 0.61714 0.0
C506 C 0.84049 0.66096 0.58425 0.0
C507 C 0.90098 0.61673 0.57676 0.0
C508 C 0.93726 0.59554 0.60269 0.0
C509 C 0.87626 0.63919 0.61012 0.0
C510 C 0.94833 0.59713 0.66254 0.0
C511 C 0.92379 0.61902 0.69592 0.0
H512 H 0.33857 0.32483 0.17687 0.0
H513 H 0.41124 0.34282 0.33683 0.0
H514 H 0.45309 0.39485 0.28553 0.0
H515 H 0.46886 0.43496 0.19463 0.0
H516 H 0.39502 0.41657 0.03474 0.0
H517 H 0.35287 0.36608 0.08665 0.0
C518 C 0.3625 0.34124 0.20067 0.0
C519 C 0.37086 0.33119 0.26068 0.0
C520 C 0.38631 0.37099 0.1708 0.0
C521 C 0.404 0.35051 0.29059 0.0
C522 C 0.42784 0.38025 0.26129 0.0
C523 C 0.44343 0.42016 0.17113 0.0
C524 C 0.43529 0.42982 0.11069 0.0
C525 C 0.41927 0.39078 0.20129 0.0
C526 C 0.4022 0.40995 0.08114 0.0
C527 C 0.378 0.38093 0.1108 0.0
H528 H 0.47487 0.6535 0.97 0.0
H529 H 0.39805 0.54547 0.95474 0.0
H530 H 0.34897 0.58669 0.88339 0.0
H531 H 0.32898 0.65389 0.82371 0.0
H532 H 0.40954 0.75954 0.83679 0.0
H533 H 0.45599 0.71901 0.91086 0.0
C534 C 0.44732 0.63896 0.95118 0.0
C535 C 0.44003 0.59658 0.96735 0.0
C536 C 0.41995 0.66253 0.9098 0.0
C537 C 0.40435 0.57806 0.94253 0.0
C538 C 0.37632 0.60164 0.90191 0.0
C539 C 0.35664 0.66787 0.84314 0.0
C540 C 0.36597 0.70953 0.82494 0.0
C541 C 0.3839 0.64394 0.88498 0.0
C542 C 0.40194 0.72742 0.84991 0.0
C543 C 0.42847 0.70431 0.89231 0.0
H544 H 0.1825 0.72524 0.60681 0.0
H545 H 0.21805 0.62589 0.74145 0.0
H546 H 0.17049 0.57842 0.69314 0.0
H547 H 0.11594 0.56639 0.61462 0.0
H548 H 0.07583 0.66867 0.48675 0.0
H549 H 0.12845 0.71328 0.5293 0.0
C550 C 0.18031 0.69302 0.62512 0.0
C551 C 0.20398 0.67905 0.67739 0.0
C552 C 0.1519 0.66637 0.59822 0.0
C553 C 0.20015 0.63742 0.70118 0.0
C554 C 0.17295 0.61025 0.67359 0.0
C555 C 0.11873 0.59831 0.59621 0.0
C556 C 0.09167 0.6141 0.54792 0.0
C557 C 0.14816 0.62454 0.62245 0.0
C558 C 0.09599 0.6557 0.52425 0.0
C559 C 0.12612 0.68134 0.54854 0.0
H560 H 0.17493 0.38011 0.29938 0.0
H561 H 0.24855 0.34269 0.46116 0.0
H562 H 0.20599 0.38712 0.51158 0.0
H563 H 0.14582 0.43425 0.51109 0.0
H564 H 0.07049 0.46999 0.35008 0.0
H565 H 0.11567 0.42905 0.29845 0.0
C566 C 0.18197 0.38211 0.3455 0.0
C567 C 0.21494 0.35798 0.3763 0.0
C568 C 0.15683 0.40736 0.37467 0.0
C569 C 0.22334 0.36071 0.43624 0.0
C570 C 0.19893 0.38613 0.46528 0.0
C571 C 0.13933 0.43324 0.4647 0.0
C572 C 0.10481 0.45541 0.43472 0.0
C573 C 0.16522 0.40914 0.43514 0.0
C574 C 0.09699 0.45362 0.37446 0.0
C575 C 0.12278 0.43003 0.34474 0.0
H576 H 0.06799 0.05622 0.94975 0.0
H577 H 0.97631 0.9643 0.90789 0.0
H578 H 0.95651 0.95993 1.0068 0.0
H579 H 0.96619 0.98111 0.10559 0.0
H580 H 0.05791 0.07299 0.1475 0.0
H581 H 0.0775 0.0776 0.04847 0.0
C582 C 0.04394 0.03492 0.96238 0.0
C583 C 0.02373 1.01058 0.92141 0.0
C584 C 0.0329 0.03235 1.01941 0.0
C585 C 0.99208 0.98373 0.9383 0.0
C586 C 0.9809 0.98103 0.99496 0.0
C587 C 0.99016 1.0025 0.09293 0.0
C588 C 1.0105 0.02671 0.13398 0.0
C589 C 1.00111 1.00517 0.03586 0.0
C590 C 0.04205 0.05365 0.11703 0.0
C591 C 0.05312 0.05649 0.06031 0.0
H592 H 0.29715 0.83236 0.33531 0.0
H593 H 0.24989 0.71276 0.39756 0.0
H594 H 0.24072 0.69289 0.29867 0.0
H595 H 0.24744 0.70878 0.19479 0.0
H596 H 0.29473 0.82836 0.13253 0.0
H597 H 0.30389 0.84825 0.23142 0.0
C598 C 0.28519 0.80178 0.3274 0.0
C599 C 0.27424 0.77414 0.37402 0.0
C600 C 0.28039 0.79034 0.27044 0.0
C601 C 0.25807 0.73493 0.36259 0.0
C602 C 0.2531 0.72339 0.30604 0.0
C603 C 0.2594 0.73937 0.2027 0.0
C604 C 0.27036 0.76699 0.15607 0.0
C605 C 0.26421 0.75081 0.25965 0.0
C606 C 0.28655 0.8062 0.1675 0.0
C607 C 0.29151 0.81775 0.22405 0.0
H608 H 0.46087 1.00205 0.61308 0.0
H609 H 0.58107 0.05629 0.6485 0.0
H610 H 0.59641 0.04919 0.54939 0.0
H611 H 0.57517 0.02905 0.45198 0.0
H612 H 0.45497 0.97478 0.41666 0.0
H613 H 0.43968 0.98184 0.51577 0.0
C614 C 0.49031 1.01263 0.59905 0.0
C615 C 0.51975 0.02962 0.63838 0.0
C616 C 0.49878 1.00892 0.54175 0.0
C617 C 0.55804 0.04251 0.61955 0.0
C618 C 0.56673 0.03878 0.56268 0.0
C619 C 0.54574 0.01846 0.46604 0.0
C620 C 0.51626 1.00151 0.4267 0.0
C621 C 0.5373 0.02213 0.52337 0.0
C622 C 0.47802 0.98857 0.44559 0.0
C623 C 0.46935 0.99226 0.50247 0.0
H624 H 0.30682 0.32243 0.88422 0.0
H625 H 0.23592 0.21064 0.91486 0.0
H626 H 0.24148 0.19427 0.81589 0.0
H627 H 0.26527 0.21201 0.72001 0.0
H628 H 0.33732 0.323 0.6891 0.0
H629 H 0.33133 0.33989 0.78791 0.0
C630 C 0.29241 0.2946 0.86916 0.0
C631 C 0.27119 0.26773 0.90732 0.0
C632 C 0.29553 0.28537 0.81181 0.0
C633 C 0.25308 0.23156 0.88701 0.0
C634 C 0.25595 0.22229 0.83015 0.0
C635 C 0.28009 0.23969 0.7349 0.0
C636 C 0.30171 0.26612 0.69672 0.0
C637 C 0.27709 0.24894 0.79216 0.0
C638 C 0.31993 0.30231 0.71691 0.0
C639 C 0.31681 0.31187 0.77371 0.0
H640 H 0.78225 0.32908 0.86827 0.0
H641 H 0.7234 0.21523 0.92899 0.0
H642 H 0.71181 0.19633 0.82976 0.0
H643 H 0.72067 0.21075 0.72612 0.0
H644 H 0.77985 0.32448 0.66564 0.0
H645 H 0.79022 0.34398 0.76462 0.0
C646 C 0.76714 0.29996 0.85995 0.0
C647 C 0.75382 0.27363 0.90632 0.0
C648 C 0.76105 0.28897 0.80282 0.0
C649 C 0.73354 0.23642 0.89429 0.0
C650 C 0.72719 0.22539 0.83752 0.0
C651 C 0.73545 0.24004 0.7344 0.0
C652 C 0.74955 0.26599 0.68823 0.0
C653 C 0.74104 0.25129 0.79148 0.0
C654 C 0.76925 0.30351 0.70022 0.0
C655 C 0.77493 0.31487 0.75684 0.0
H656 H 0.70879 0.82007 0.32125 0.0
H657 H 0.79666 0.72374 0.39882 0.0
H658 H 0.81297 0.70847 0.30281 0.0
H659 H 0.80279 0.72259 0.19675 0.0
H660 H 0.71386 0.81791 0.11876 0.0
H661 H 0.6984 0.83404 0.21475 0.0
C662 C 0.73178 0.79598 0.31721 0.0
C663 C 0.75136 0.77306 0.36748 0.0
C664 C 0.74105 0.78726 0.26164 0.0
C665 C 0.78066 0.74154 0.3611 0.0
C666 C 0.7902 0.73291 0.30611 0.0
C667 C 0.77968 0.74661 0.20055 0.0
C668 C 0.7596 0.76892 0.1501 0.0
C669 C 0.77049 0.75545 0.25604 0.0
C670 C 0.73033 0.80052 0.15645 0.0
C671 C 0.72122 0.80962 0.21149 0.0
H672 H 0.45619 0.47993 0.58931 0.0
H673 H 0.56593 0.54455 0.64971 0.0
H674 H 0.58508 0.55606 0.55073 0.0
H675 H 0.57182 0.54611 0.44732 0.0
H676 H 0.46248 0.48084 0.38711 0.0
H677 H 0.44285 0.4701 0.48595 0.0
C678 C 0.4845 0.49624 0.581 0.0
C679 C 0.50952 0.51133 0.62719 0.0
C680 C 0.49567 0.50228 0.524 0.0
C681 C 0.54569 0.53308 0.61514 0.0
C682 C 0.55689 0.5394 0.55851 0.0
C683 C 0.54348 0.52987 0.45567 0.0
C684 C 0.51873 0.5143 0.40964 0.0
C685 C 0.53219 0.52401 0.51264 0.0
C686 C 0.48247 0.49269 0.42164 0.0
C687 C 0.47104 0.48678 0.47816 0.0
H688 H 0.06241 0.47266 0.95479 0.0
H689 H 0.97749 0.57118 0.87558 0.0
H690 H 0.96122 0.58743 0.97113 0.0
H691 H 0.9715 0.5745 0.07774 0.0
H692 H 0.0566 0.47617 0.15694 0.0
H693 H 0.0729 0.45993 0.06137 0.0
C694 C 0.04064 0.49799 0.95827 0.0
C695 C 0.0212 0.52047 0.90743 0.0
C696 C 0.0315 0.50745 1.0137 0.0
C697 C 0.99257 0.55277 0.91344 0.0
C698 C 0.98338 0.56232 0.9683 0.0
C699 C 0.99334 0.54924 0.07423 0.0
C700 C 1.01276 0.52674 0.12506 0.0
C701 C 1.00255 0.53984 1.0188 0.0
C702 C 0.0415 0.49454 0.11907 0.0
C703 C 0.05071 0.485 0.06421 0.0
loop_
_geom_bond_atom_site_label_1
_geom_bond_atom_site_label_2
_geom_bond_distance
_geom_bond_site_symmetry_2
_ccdc_geom_bond_type
La0 C2 2.928 1_655 S
La0 O20 2.521 1_655 S
La0 O21 2.628 1_565 S
La0 O22 2.554 1_655 S
La0 O23 2.757 1_655 S
La0 O24 2.470 1_665 S
La0 O29 2.482 1_565 S
La0 O31 2.503 . S
La1 C11 2.928 1_455 S
La1 O23 2.482 1_545 S
La1 O25 2.503 . S
La1 O26 2.521 1_455 S
La1 O27 2.628 1_545 S
La1 O28 2.554 1_455 S
La1 O29 2.757 1_455 S
La1 O30 2.470 1_445 S
C2 La0 2.928 1_455 S
C2 C3 1.503 . S
C2 O20 1.261 . S
C2 O21 1.243 1_465 S
C3 C2 1.503 . S
C3 C4 1.394 . S
C3 C8 1.373 1_565 S
C4 C3 1.394 . S
C4 C5 1.380 . S
C4 H32 0.930 . S
C5 C4 1.380 . S
C5 C6 1.376 . S
C5 H33 0.930 . S
C6 C5 1.376 . S
C6 C7 1.370 1_565 S
C7 C6 1.370 1_545 S
C7 C8 1.396 . S
C7 H34 0.929 . S
C8 C3 1.373 1_545 S
C8 C7 1.396 . S
C8 H35 0.929 1_455 S
C9 O22 1.240 . S
C9 O23 1.289 . S
C10 O24 1.258 . S
C10 O25 1.256 . S
C11 La1 2.928 1_655 S
C11 C12 1.503 . S
C11 O26 1.261 . S
C11 O27 1.243 1_645 S
C12 C11 1.503 . S
C12 C13 1.394 . S
C12 C17 1.373 1_545 S
C13 C12 1.394 . S
C13 C14 1.380 . S
C13 H36 0.930 . S
C14 C13 1.380 . S
C14 C15 1.376 . S
C14 H37 0.930 . S
C15 C14 1.376 . S
C15 C16 1.370 1_545 S
C16 C15 1.370 1_565 S
C16 C17 1.396 . S
C16 H38 0.929 . S
C17 C12 1.373 1_565 S
C17 C16 1.396 . S
C17 H39 0.929 1_655 S
C18 O28 1.240 . S
C18 O29 1.289 . S
C19 O30 1.258 . S
C19 O31 1.256 . S
O20 La0 2.521 1_455 S
O20 C2 1.261 . S
O21 La0 2.628 1_545 S
O21 C2 1.243 1_645 S
O22 La0 2.554 1_455 S
O22 C9 1.240 . S
O23 La0 2.757 1_455 S
O23 La1 2.482 1_565 S
O23 C9 1.289 . S
O24 La0 2.470 1_445 S
O24 C10 1.258 . S
O25 La1 2.503 . S
O25 C10 1.256 . S
O26 La1 2.521 1_655 S
O26 C11 1.261 . S
O27 La1 2.628 1_565 S
O27 C11 1.243 1_465 S
O28 La1 2.554 1_655 S
O28 C18 1.240 . S
O29 La0 2.482 1_545 S
O29 La1 2.757 1_655 S
O29 C18 1.289 . S
O30 La1 2.470 1_665 S
O30 C19 1.258 . S
O31 La0 2.503 . S
O31 C19 1.256 . S
H32 C4 0.930 . S
H33 C5 0.930 . S
H34 C7 0.929 . S
H35 C8 0.929 1_655 S
H36 C13 0.930 . S
H37 C14 0.930 . S
H38 C16 0.929 . S
H39 C17 0.929 1_455 S
La40 C42 2.928 . S
La40 O60 2.521 . S
La40 O61 2.628 . S
La40 O62 2.554 . S
La40 O63 2.757 . S
La40 O64 2.470 . S
La40 O69 2.482 . S
La40 O71 2.503 . S
La41 C51 2.928 . S
La41 O63 2.482 . S
La41 O65 2.503 . S
La41 O66 2.521 . S
La41 O67 2.628 . S
La41 O68 2.554 . S
La41 O69 2.757 . S
La41 O70 2.470 . S
C42 La40 2.928 . S
C42 C43 1.503 . S
C42 O60 1.261 . S
C42 O61 1.243 . S
C43 C42 1.503 . S
C43 C44 1.394 1_556 S
C43 C48 1.373 1_556 S
C44 C43 1.394 1_554 S
C44 C45 1.380 . S
C44 H72 0.930 1_554 S
C45 C44 1.380 . S
C45 C46 1.376 . S
C45 H73 0.930 . S
C46 C45 1.376 . S
C46 C47 1.370 . S
C47 C46 1.370 . S
C47 C48 1.396 . S
C47 H74 0.929 . S
C48 C43 1.373 1_554 S
C48 C47 1.396 . S
C48 H75 0.929 . S
C49 O62 1.240 . S
C49 O63 1.289 . S
C50 O64 1.258 . S
C50 O65 1.256 . S
C51 La41 2.928 . S
C51 C52 1.503 . S
C51 O66 1.261 . S
C51 O67 1.243 . S
C52 C51 1.503 . S
C52 C53 1.394 . S
C52 C57 1.373 . S
C53 C52 1.394 . S
C53 C54 1.380 . S
C53 H76 0.930 . S
C54 C53 1.380 . S
C54 C55 1.376 . S
C54 H77 0.930 . S
C55 C54 1.376 . S
C55 C56 1.370 . S
C56 C55 1.370 . S
C56 C57 1.396 . S
C56 H78 0.929 . S
C57 C52 1.373 . S
C57 C56 1.396 . S
C57 H79 0.929 . S
C58 O68 1.240 . S
C58 O69 1.289 . S
C59 O70 1.258 . S
C59 O71 1.256 . S
O60 La40 2.521 . S
O60 C42 1.261 . S
O61 La40 2.628 . S
O61 C42 1.243 . S
O62 La40 2.554 . S
O62 C49 1.240 . S
O63 La40 2.757 . S
O63 La41 2.482 . S
O63 C49 1.289 . S
O64 La40 2.470 . S
O64 C50 1.258 . S
O65 La41 2.503 . S
O65 C50 1.256 . S
O66 La41 2.521 . S
O66 C51 1.261 . S
O67 La41 2.628 . S
O67 C51 1.243 . S
O68 La41 2.554 . S
O68 C58 1.240 . S
O69 La40 2.482 . S
O69 La41 2.757 . S
O69 C58 1.289 . S
O70 La41 2.470 . S
O70 C59 1.258 . S
O71 La40 2.503 . S
O71 C59 1.256 . S
H72 C44 0.930 1_556 S
H73 C45 0.930 . S
H74 C47 0.929 . S
H75 C48 0.929 . S
H76 C53 0.930 . S
H77 C54 0.930 . S
H78 C56 0.929 . S
H79 C57 0.929 . S
La80 C82 2.928 . S
La80 O100 2.521 . S
La80 O101 2.628 . S
La80 O102 2.554 . S
La80 O103 2.757 1_554 S
La80 O104 2.470 1_565 S
La80 O109 2.482 1_565 S
La80 O111 2.503 . S
La81 C91 2.928 . S
La81 O103 2.482 1_545 S
La81 O105 2.503 . S
La81 O106 2.521 . S
La81 O107 2.628 . S
La81 O108 2.554 . S
La81 O109 2.757 1_556 S
La81 O110 2.470 1_545 S
C82 La80 2.928 . S
C82 C83 1.503 . S
C82 O100 1.261 . S
C82 O101 1.243 . S
C83 C82 1.503 . S
C83 C84 1.394 . S
C83 C88 1.373 . S
C84 C83 1.394 . S
C84 C85 1.380 . S
C84 H112 0.930 . S
C85 C84 1.380 . S
C85 C86 1.376 . S
C85 H113 0.930 . S
C86 C85 1.376 . S
C86 C87 1.370 . S
C87 C86 1.370 . S
C87 C88 1.396 . S
C87 H114 0.929 1_565 S
C88 C83 1.373 . S
C88 C87 1.396 . S
C88 H115 0.929 1_565 S
C89 O102 1.240 1_556 S
C89 O103 1.289 . S
C90 O104 1.258 . S
C90 O105 1.256 1_554 S
C91 La81 2.928 . S
C91 C92 1.503 . S
C91 O106 1.261 . S
C91 O107 1.243 . S
C92 C91 1.503 . S
C92 C93 1.394 . S
C92 C97 1.373 . S
C93 C92 1.394 . S
C93 C94 1.380 . S
C93 H116 0.930 . S
C94 C93 1.380 . S
C94 C95 1.376 . S
C94 H117 0.930 . S
C95 C94 1.376 . S
C95 C96 1.370 . S
C96 C95 1.370 . S
C96 C97 1.396 . S
C96 H118 0.929 1_545 S
C97 C92 1.373 . S
C97 C96 1.396 . S
C97 H119 0.929 1_545 S
C98 O108 1.240 1_554 S
C98 O109 1.289 . S
C99 O110 1.258 . S
C99 O111 1.256 1_556 S
O100 La80 2.521 . S
O100 C82 1.261 . S
O101 La80 2.628 . S
O101 C82 1.243 . S
O102 La80 2.554 . S
O102 C89 1.240 1_554 S
O103 La80 2.757 1_556 S
O103 La81 2.482 1_565 S
O103 C89 1.289 . S
O104 La80 2.470 1_545 S
O104 C90 1.258 . S
O105 La81 2.503 . S
O105 C90 1.256 1_556 S
O106 La81 2.521 . S
O106 C91 1.261 . S
O107 La81 2.628 . S
O107 C91 1.243 . S
O108 La81 2.554 . S
O108 C98 1.240 1_556 S
O109 La80 2.482 1_545 S
O109 La81 2.757 1_554 S
O109 C98 1.289 . S
O110 La81 2.470 1_565 S
O110 C99 1.258 . S
O111 La80 2.503 . S
O111 C99 1.256 1_554 S
H112 C84 0.930 . S
H113 C85 0.930 . S
H114 C87 0.929 1_545 S
H115 C88 0.929 1_545 S
H116 C93 0.930 . S
H117 C94 0.930 . S
H118 C96 0.929 1_565 S
H119 C97 0.929 1_565 S
La120 C122 2.928 . S
La120 O140 2.521 . S
La120 O141 2.628 . S
La120 O142 2.554 . S
La120 O143 2.757 . S
La120 O144 2.470 . S
La120 O149 2.482 . S
La120 O151 2.503 . S
La121 C131 2.928 . S
La121 O143 2.482 . S
La121 O145 2.503 . S
La121 O146 2.521 . S
La121 O147 2.628 . S
La121 O148 2.554 . S
La121 O149 2.757 . S
La121 O150 2.470 . S
C122 La120 2.928 . S
C122 C123 1.503 . S
C122 O140 1.261 . S
C122 O141 1.243 . S
C123 C122 1.503 . S
C123 C124 1.394 1_554 S
C123 C128 1.373 1_554 S
C124 C123 1.394 1_556 S
C124 C125 1.380 . S
C124 H152 0.930 . S
C125 C124 1.380 . S
C125 C126 1.376 . S
C125 H153 0.930 . S
C126 C125 1.376 . S
C126 C127 1.370 . S
C127 C126 1.370 . S
C127 C128 1.396 . S
C127 H154 0.929 . S
C128 C123 1.373 1_556 S
C128 C127 1.396 . S
C128 H155 0.929 . S
C129 O142 1.240 . S
C129 O143 1.289 . S
C130 O144 1.258 . S
C130 O145 1.256 . S
C131 La121 2.928 . S
C131 C132 1.503 . S
C131 O146 1.261 . S
C131 O147 1.243 . S
C132 C131 1.503 . S
C132 C133 1.394 . S
C132 C137 1.373 . S
C133 C132 1.394 . S
C133 C134 1.380 . S
C133 H156 0.930 . S
C134 C133 1.380 . S
C134 C135 1.376 . S
C134 H157 0.930 . S
C135 C134 1.376 . S
C135 C136 1.370 . S
C136 C135 1.370 . S
C136 C137 1.396 . S
C136 H158 0.929 . S
C137 C132 1.373 . S
C137 C136 1.396 . S
C137 H159 0.929 . S
C138 O148 1.240 . S
C138 O149 1.289 . S
C139 O150 1.258 . S
C139 O151 1.256 . S
O140 La120 2.521 . S
O140 C122 1.261 . S
O141 La120 2.628 . S
O141 C122 1.243 . S
O142 La120 2.554 . S
O142 C129 1.240 . S
O143 La120 2.757 . S
O143 La121 2.482 . S
O143 C129 1.289 . S
O144 La120 2.470 . S
O144 C130 1.258 . S
O145 La121 2.503 . S
O145 C130 1.256 . S
O146 La121 2.521 . S
O146 C131 1.261 . S
O147 La121 2.628 . S
O147 C131 1.243 . S
O148 La121 2.554 . S
O148 C138 1.240 . S
O149 La120 2.482 . S
O149 La121 2.757 . S
O149 C138 1.289 . S
O150 La121 2.470 . S
O150 C139 1.258 . S
O151 La120 2.503 . S
O151 C139 1.256 . S
H152 C124 0.930 . S
H153 C125 0.930 . S
H154 C127 0.929 . S
H155 C128 0.929 . S
H156 C133 0.930 . S
H157 C134 0.930 . S
H158 C136 0.929 . S
H159 C137 0.929 . S
La160 C162 2.928 . S
La160 O180 2.521 . S
La160 O181 2.628 . S
La160 O182 2.554 . S
La160 O183 2.757 . S
La160 O184 2.470 . S
La160 O189 2.482 . S
La160 O191 2.503 . S
La161 C171 2.928 . S
La161 O183 2.482 . S
La161 O185 2.503 . S
La161 O186 2.521 . S
La161 O187 2.628 . S
La161 O188 2.554 . S
La161 O189 2.757 . S
La161 O190 2.470 . S
C162 La160 2.928 . S
C162 C163 1.503 . S
C162 O180 1.261 . S
C162 O181 1.243 . S
C163 C162 1.503 . S
C163 C164 1.394 . S
C163 C168 1.373 . S
C164 C163 1.394 . S
C164 C165 1.380 . S
C164 H192 0.930 . S
C165 C164 1.380 . S
C165 C166 1.376 . S
C165 H193 0.930 . S
C166 C165 1.376 . S
C166 C167 1.370 . S
C167 C166 1.370 . S
C167 C168 1.396 . S
C167 H194 0.929 . S
C168 C163 1.373 . S
C168 C167 1.396 . S
C168 H195 0.929 . S
C169 O182 1.240 . S
C169 O183 1.289 . S
C170 O184 1.258 . S
C170 O185 1.256 . S
C171 La161 2.928 . S
C171 C172 1.503 . S
C171 O186 1.261 . S
C171 O187 1.243 . S
C172 C171 1.503 . S
C172 C173 1.394 1_554 S
C172 C177 1.373 1_554 S
C173 C172 1.394 1_556 S
C173 C174 1.380 . S
C173 H196 0.930 1_556 S
C174 C173 1.380 . S
C174 C175 1.376 . S
C174 H197 0.930 . S
C175 C174 1.376 . S
C175 C176 1.370 . S
C176 C175 1.370 . S
C176 C177 1.396 . S
C176 H198 0.929 . S
C177 C172 1.373 1_556 S
C177 C176 1.396 . S
C177 H199 0.929 . S
C178 O188 1.240 . S
C178 O189 1.289 . S
C179 O190 1.258 . S
C179 O191 1.256 . S
O180 La160 2.521 . S
O180 C162 1.261 . S
O181 La160 2.628 . S
O181 C162 1.243 . S
O182 La160 2.554 . S
O182 C169 1.240 . S
O183 La160 2.757 . S
O183 La161 2.482 . S
O183 C169 1.289 . S
O184 La160 2.470 . S
O184 C170 1.258 . S
O185 La161 2.503 . S
O185 C170 1.256 . S
O186 La161 2.521 . S
O186 C171 1.261 . S
O187 La161 2.628 . S
O187 C171 1.243 . S
O188 La161 2.554 . S
O188 C178 1.240 . S
O189 La160 2.482 . S
O189 La161 2.757 . S
O189 C178 1.289 . S
O190 La161 2.470 . S
O190 C179 1.258 . S
O191 La160 2.503 . S
O191 C179 1.256 . S
H192 C164 0.930 . S
H193 C165 0.930 . S
H194 C167 0.929 . S
H195 C168 0.929 . S
H196 C173 0.930 1_554 S
H197 C174 0.930 . S
H198 C176 0.929 . S
H199 C177 0.929 . S
La200 C202 2.928 . S
La200 O220 2.521 . S
La200 O221 2.628 . S
La200 O222 2.554 . S
La200 O223 2.757 . S
La200 O224 2.470 . S
La200 O229 2.482 . S
La200 O231 2.503 . S
La201 C211 2.928 . S
La201 O223 2.482 . S
La201 O225 2.503 . S
La201 O226 2.521 . S
La201 O227 2.628 . S
La201 O228 2.554 . S
La201 O229 2.757 . S
La201 O230 2.470 . S
C202 La200 2.928 . S
C202 C203 1.503 . S
C202 O220 1.261 . S
C202 O221 1.243 . S
C203 C202 1.503 . S
C203 C204 1.394 . S
C203 C208 1.373 . S
C204 C203 1.394 . S
C204 C205 1.380 . S
C204 H232 0.930 . S
C205 C204 1.380 . S
C205 C206 1.376 . S
C205 H233 0.930 . S
C206 C205 1.376 . S
C206 C207 1.370 . S
C207 C206 1.370 . S
C207 C208 1.396 . S
C207 H234 0.929 . S
C208 C203 1.373 . S
C208 C207 1.396 . S
C208 H235 0.929 . S
C209 O222 1.240 . S
C209 O223 1.289 . S
C210 O224 1.258 . S
C210 O225 1.256 . S
C211 La201 2.928 . S
C211 C212 1.503 . S
C211 O226 1.261 . S
C211 O227 1.243 . S
C212 C211 1.503 . S
C212 C213 1.394 1_556 S
C212 C217 1.373 1_556 S
C213 C212 1.394 1_554 S
C213 C214 1.380 . S
C213 H236 0.930 . S
C214 C213 1.380 . S
C214 C215 1.376 . S
C214 H237 0.930 . S
C215 C214 1.376 . S
C215 C216 1.370 . S
C216 C215 1.370 . S
C216 C217 1.396 . S
C216 H238 0.929 . S
C217 C212 1.373 1_554 S
C217 C216 1.396 . S
C217 H239 0.929 . S
C218 O228 1.240 . S
C218 O229 1.289 . S
C219 O230 1.258 . S
C219 O231 1.256 . S
O220 La200 2.521 . S
O220 C202 1.261 . S
O221 La200 2.628 . S
O221 C202 1.243 . S
O222 La200 2.554 . S
O222 C209 1.240 . S
O223 La200 2.757 . S
O223 La201 2.482 . S
O223 C209 1.289 . S
O224 La200 2.470 . S
O224 C210 1.258 . S
O225 La201 2.503 . S
O225 C210 1.256 . S
O226 La201 2.521 . S
O226 C211 1.261 . S
O227 La201 2.628 . S
O227 C211 1.243 . S
O228 La201 2.554 . S
O228 C218 1.240 . S
O229 La200 2.482 . S
O229 La201 2.757 . S
O229 C218 1.289 . S
O230 La201 2.470 . S
O230 C219 1.258 . S
O231 La200 2.503 . S
O231 C219 1.256 . S
H232 C204 0.930 . S
H233 C205 0.930 . S
H234 C207 0.929 . S
H235 C208 0.929 . S
H236 C213 0.930 . S
H237 C214 0.930 . S
H238 C216 0.929 . S
H239 C217 0.929 . S
La240 C242 2.928 . S
La240 O260 2.521 . S
La240 O261 2.628 . S
La240 O262 2.554 . S
La240 O263 2.757 1_556 S
La240 O264 2.470 . S
La240 O269 2.482 . S
La240 O271 2.503 1_556 S
La241 C251 2.928 . S
La241 O263 2.482 . S
La241 O265 2.503 1_554 S
La241 O266 2.521 . S
La241 O267 2.628 . S
La241 O268 2.554 . S
La241 O269 2.757 1_554 S
La241 O270 2.470 . S
C242 La240 2.928 . S
C242 C243 1.503 . S
C242 O260 1.261 . S
C242 O261 1.243 . S
C243 C242 1.503 . S
C243 C244 1.394 . S
C243 C248 1.373 . S
C244 C243 1.394 . S
C244 C245 1.380 . S
C244 H272 0.930 . S
C245 C244 1.380 . S
C245 C246 1.376 . S
C245 H273 0.930 . S
C246 C245 1.376 . S
C246 C247 1.370 . S
C247 C246 1.370 . S
C247 C248 1.396 . S
C247 H274 0.929 . S
C248 C243 1.373 . S
C248 C247 1.396 . S
C248 H275 0.929 . S
C249 O262 1.240 1_554 S
C249 O263 1.289 . S
C250 O264 1.258 . S
C250 O265 1.256 . S
C251 La241 2.928 . S
C251 C252 1.503 . S
C251 O266 1.261 . S
C251 O267 1.243 . S
C252 C251 1.503 . S
C252 C253 1.394 . S
C252 C257 1.373 . S
C253 C252 1.394 . S
C253 C254 1.380 . S
C253 H276 0.930 . S
C254 C253 1.380 . S
C254 C255 1.376 . S
C254 H277 0.930 . S
C255 C254 1.376 . S
C255 C256 1.370 . S
C256 C255 1.370 . S
C256 C257 1.396 . S
C256 H278 0.929 . S
C257 C252 1.373 . S
C257 C256 1.396 . S
C257 H279 0.929 . S
C258 O268 1.240 1_556 S
C258 O269 1.289 . S
C259 O270 1.258 . S
C259 O271 1.256 . S
O260 La240 2.521 . S
O260 C242 1.261 . S
O261 La240 2.628 . S
O261 C242 1.243 . S
O262 La240 2.554 . S
O262 C249 1.240 1_556 S
O263 La240 2.757 1_554 S
O263 La241 2.482 . S
O263 C249 1.289 . S
O264 La240 2.470 . S
O264 C250 1.258 . S
O265 La241 2.503 1_556 S
O265 C250 1.256 . S
O266 La241 2.521 . S
O266 C251 1.261 . S
O267 La241 2.628 . S
O267 C251 1.243 . S
O268 La241 2.554 . S
O268 C258 1.240 1_554 S
O269 La240 2.482 . S
O269 La241 2.757 1_556 S
O269 C258 1.289 . S
O270 La241 2.470 . S
O270 C259 1.258 . S
O271 La240 2.503 1_554 S
O271 C259 1.256 . S
H272 C244 0.930 . S
H273 C245 0.930 . S
H274 C247 0.929 . S
H275 C248 0.929 . S
H276 C253 0.930 . S
H277 C254 0.930 . S
H278 C256 0.929 . S
H279 C257 0.929 . S
La280 C282 2.928 1_455 S
La280 O300 2.521 1_455 S
La280 O301 2.628 . S
La280 O302 2.554 1_455 S
La280 O303 2.757 1_455 S
La280 O304 2.470 1_455 S
La280 O309 2.482 . S
La280 O311 2.503 . S
La281 C291 2.928 1_655 S
La281 O303 2.482 . S
La281 O305 2.503 . S
La281 O306 2.521 1_655 S
La281 O307 2.628 . S
La281 O308 2.554 1_655 S
La281 O309 2.757 1_655 S
La281 O310 2.470 1_655 S
C282 La280 2.928 1_655 S
C282 C283 1.503 . S
C282 O300 1.261 . S
C282 O301 1.243 1_655 S
C283 C282 1.503 . S
C283 C284 1.394 . S
C283 C288 1.373 . S
C284 C283 1.394 . S
C284 C285 1.380 . S
C284 H312 0.930 . S
C285 C284 1.380 . S
C285 C286 1.376 . S
C285 H313 0.930 . S
C286 C285 1.376 . S
C286 C287 1.370 . S
C287 C286 1.370 . S
C287 C288 1.396 . S
C287 H314 0.929 . S
C288 C283 1.373 . S
C288 C287 1.396 . S
C288 H315 0.929 1_655 S
C289 O302 1.240 . S
C289 O303 1.289 . S
C290 O304 1.258 . S
C290 O305 1.256 . S
C291 La281 2.928 1_455 S
C291 C292 1.503 . S
C291 O306 1.261 . S
C291 O307 1.243 1_455 S
C292 C291 1.503 . S
C292 C293 1.394 . S
C292 C297 1.373 . S
C293 C292 1.394 . S
C293 C294 1.380 . S
C293 H316 0.930 . S
C294 C293 1.380 . S
C294 C295 1.376 . S
C294 H317 0.930 . S
C295 C294 1.376 . S
C295 C296 1.370 . S
C296 C295 1.370 . S
C296 C297 1.396 . S
C296 H318 0.929 . S
C297 C292 1.373 . S
C297 C296 1.396 . S
C297 H319 0.929 1_455 S
C298 O308 1.240 . S
C298 O309 1.289 . S
C299 O310 1.258 . S
C299 O311 1.256 . S
O300 La280 2.521 1_655 S
O300 C282 1.261 . S
O301 La280 2.628 . S
O301 C282 1.243 1_455 S
O302 La280 2.554 1_655 S
O302 C289 1.240 . S
O303 La280 2.757 1_655 S
O303 La281 2.482 . S
O303 C289 1.289 . S
O304 La280 2.470 1_655 S
O304 C290 1.258 . S
O305 La281 2.503 . S
O305 C290 1.256 . S
O306 La281 2.521 1_455 S
O306 C291 1.261 . S
O307 La281 2.628 . S
O307 C291 1.243 1_655 S
O308 La281 2.554 1_455 S
O308 C298 1.240 . S
O309 La280 2.482 . S
O309 La281 2.757 1_455 S
O309 C298 1.289 . S
O310 La281 2.470 1_455 S
O310 C299 1.258 . S
O311 La280 2.503 . S
O311 C299 1.256 . S
H312 C284 0.930 . S
H313 C285 0.930 . S
H314 C287 0.929 . S
H315 C288 0.929 1_455 S
H316 C293 0.930 . S
H317 C294 0.930 . S
H318 C296 0.929 . S
H319 C297 0.929 1_655 S
H320 C326 0.930 . S
H321 C329 0.930 . S
H322 C330 0.930 . S
H323 C331 0.930 . S
H324 C334 0.930 . S
H325 C335 0.930 . S
C326 H320 0.930 . S
C326 C327 1.355 . S
C326 C328 1.415 . S
C327 C326 1.355 . S
C327 C329 1.419 . S
C328 C326 1.415 . S
C328 C333 1.425 . S
C328 C335 1.409 . S
C329 H321 0.930 . S
C329 C327 1.419 . S
C329 C330 1.362 . S
C330 H322 0.930 . S
C330 C329 1.362 . S
C330 C333 1.409 . S
C331 H323 0.930 . S
C331 C332 1.355 . S
C331 C333 1.415 . S
C332 C331 1.355 . S
C332 C334 1.419 . S
C333 C328 1.425 . S
C333 C330 1.409 . S
C333 C331 1.415 . S
C334 H324 0.930 . S
C334 C332 1.419 . S
C334 C335 1.362 . S
C335 H325 0.930 . S
C335 C328 1.409 . S
C335 C334 1.362 . S
H336 C342 0.930 . S
H337 C345 0.930 . S
H338 C346 0.930 . S
H339 C347 0.930 . S
H340 C350 0.930 . S
H341 C351 0.930 . S
C342 H336 0.930 . S
C342 C343 1.355 . S
C342 C344 1.415 . S
C343 C342 1.355 . S
C343 C345 1.419 . S
C344 C342 1.415 . S
C344 C349 1.425 . S
C344 C351 1.409 . S
C345 H337 0.930 . S
C345 C343 1.419 . S
C345 C346 1.362 . S
C346 H338 0.930 . S
C346 C345 1.362 . S
C346 C349 1.409 . S
C347 H339 0.930 . S
C347 C348 1.355 . S
C347 C349 1.415 . S
C348 C347 1.355 . S
C348 C350 1.419 . S
C349 C344 1.425 . S
C349 C346 1.409 . S
C349 C347 1.415 . S
C350 H340 0.930 . S
C350 C348 1.419 . S
C350 C351 1.362 . S
C351 H341 0.930 . S
C351 C344 1.409 . S
C351 C350 1.362 . S
H352 C358 0.930 . S
H353 C361 0.930 . S
H354 C362 0.930 . S
H355 C363 0.930 . S
H356 C366 0.930 . S
H357 C367 0.930 . S
C358 H352 0.930 . S
C358 C359 1.355 . S
C358 C360 1.415 . S
C359 C358 1.355 . S
C359 C361 1.419 . S
C360 C358 1.415 . S
C360 C365 1.425 . S
C360 C367 1.409 . S
C361 H353 0.930 . S
C361 C359 1.419 . S
C361 C362 1.362 . S
C362 H354 0.930 . S
C362 C361 1.362 . S
C362 C365 1.409 . S
C363 H355 0.930 . S
C363 C364 1.355 . S
C363 C365 1.415 . S
C364 C363 1.355 . S
C364 C366 1.419 . S
C365 C360 1.425 . S
C365 C362 1.409 . S
C365 C363 1.415 . S
C366 H356 0.930 . S
C366 C364 1.419 . S
C366 C367 1.362 . S
C367 H357 0.930 . S
C367 C360 1.409 . S
C367 C366 1.362 . S
H368 C374 0.930 . S
H369 C377 0.930 . S
H370 C378 0.930 . S
H371 C379 0.930 . S
H372 C382 0.930 . S
H373 C383 0.930 . S
C374 H368 0.930 . S
C374 C375 1.355 . S
C374 C376 1.415 . S
C375 C374 1.355 . S
C375 C377 1.419 . S
C376 C374 1.415 . S
C376 C381 1.425 . S
C376 C383 1.409 . S
C377 H369 0.930 . S
C377 C375 1.419 . S
C377 C378 1.362 . S
C378 H370 0.930 . S
C378 C377 1.362 . S
C378 C381 1.409 . S
C379 H371 0.930 . S
C379 C380 1.355 . S
C379 C381 1.415 . S
C380 C379 1.355 . S
C380 C382 1.419 . S
C381 C376 1.425 . S
C381 C378 1.409 . S
C381 C379 1.415 . S
C382 H372 0.930 . S
C382 C380 1.419 . S
C382 C383 1.362 . S
C383 H373 0.930 . S
C383 C376 1.409 . S
C383 C382 1.362 . S
H384 C390 0.930 . S
H385 C393 0.930 . S
H386 C394 0.930 . S
H387 C395 0.930 . S
H388 C398 0.930 . S
H389 C399 0.930 . S
C390 H384 0.930 . S
C390 C391 1.355 . S
C390 C392 1.415 . S
C391 C390 1.355 . S
C391 C393 1.419 . S
C392 C390 1.415 . S
C392 C397 1.425 . S
C392 C399 1.409 . S
C393 H385 0.930 . S
C393 C391 1.419 . S
C393 C394 1.362 . S
C394 H386 0.930 . S
C394 C393 1.362 . S
C394 C397 1.409 . S
C395 H387 0.930 . S
C395 C396 1.355 . S
C395 C397 1.415 . S
C396 C395 1.355 . S
C396 C398 1.419 . S
C397 C392 1.425 . S
C397 C394 1.409 . S
C397 C395 1.415 . S
C398 H388 0.930 . S
C398 C396 1.419 . S
C398 C399 1.362 . S
C399 H389 0.930 . S
C399 C392 1.409 . S
C399 C398 1.362 . S
H400 C406 0.930 . S
H401 C409 0.930 . S
H402 C410 0.930 . S
H403 C411 0.930 . S
H404 C414 0.930 . S
H405 C415 0.930 . S
C406 H400 0.930 . S
C406 C407 1.355 . S
C406 C408 1.415 . S
C407 C406 1.355 . S
C407 C409 1.419 . S
C408 C406 1.415 . S
C408 C413 1.425 . S
C408 C415 1.409 . S
C409 H401 0.930 . S
C409 C407 1.419 . S
C409 C410 1.362 . S
C410 H402 0.930 . S
C410 C409 1.362 . S
C410 C413 1.409 . S
C411 H403 0.930 . S
C411 C412 1.355 . S
C411 C413 1.415 . S
C412 C411 1.355 . S
C412 C414 1.419 . S
C413 C408 1.425 . S
C413 C410 1.409 . S
C413 C411 1.415 . S
C414 H404 0.930 . S
C414 C412 1.419 . S
C414 C415 1.362 . S
C415 H405 0.930 . S
C415 C408 1.409 . S
C415 C414 1.362 . S
H416 C422 0.930 . S
H417 C425 0.930 . S
H418 C426 0.930 . S
H419 C427 0.930 . S
H420 C430 0.930 1_556 S
H421 C431 0.930 . S
C422 H416 0.930 . S
C422 C423 1.355 . S
C422 C424 1.415 . S
C423 C422 1.355 . S
C423 C425 1.419 . S
C424 C422 1.415 . S
C424 C429 1.425 . S
C424 C431 1.409 . S
C425 H417 0.930 . S
C425 C423 1.419 . S
C425 C426 1.362 . S
C426 H418 0.930 . S
C426 C425 1.362 . S
C426 C429 1.409 . S
C427 H419 0.930 . S
C427 C428 1.355 . S
C427 C429 1.415 . S
C428 C427 1.355 . S
C428 C430 1.419 . S
C429 C424 1.425 . S
C429 C426 1.409 . S
C429 C427 1.415 . S
C430 H420 0.930 1_554 S
C430 C428 1.419 . S
C430 C431 1.362 . S
C431 H421 0.930 . S
C431 C424 1.409 . S
C431 C430 1.362 . S
H432 C438 0.930 . S
H433 C441 0.930 . S
H434 C442 0.930 . S
H435 C443 0.930 . S
H436 C446 0.930 . S
H437 C447 0.930 . S
C438 H432 0.930 . S
C438 C439 1.355 . S
C438 C440 1.415 . S
C439 C438 1.355 . S
C439 C441 1.419 . S
C440 C438 1.415 . S
C440 C445 1.425 . S
C440 C447 1.409 . S
C441 H433 0.930 . S
C441 C439 1.419 . S
C441 C442 1.362 . S
C442 H434 0.930 . S
C442 C441 1.362 . S
C442 C445 1.409 . S
C443 H435 0.930 . S
C443 C444 1.355 . S
C443 C445 1.415 . S
C444 C443 1.355 . S
C444 C446 1.419 . S
C445 C440 1.425 . S
C445 C442 1.409 . S
C445 C443 1.415 . S
C446 H436 0.930 . S
C446 C444 1.419 . S
C446 C447 1.362 . S
C447 H437 0.930 . S
C447 C440 1.409 . S
C447 C446 1.362 . S
H448 C454 0.930 . S
H449 C457 0.930 . S
H450 C458 0.930 . S
H451 C459 0.930 . S
H452 C462 0.930 . S
H453 C463 0.930 . S
C454 H448 0.930 . S
C454 C455 1.355 . S
C454 C456 1.415 . S
C455 C454 1.355 . S
C455 C457 1.419 . S
C456 C454 1.415 . S
C456 C461 1.425 . S
C456 C463 1.409 . S
C457 H449 0.930 . S
C457 C455 1.419 . S
C457 C458 1.362 . S
C458 H450 0.930 . S
C458 C457 1.362 . S
C458 C461 1.409 . S
C459 H451 0.930 . S
C459 C460 1.355 . S
C459 C461 1.415 . S
C460 C459 1.355 . S
C460 C462 1.419 . S
C461 C456 1.425 . S
C461 C458 1.409 . S
C461 C459 1.415 . S
C462 H452 0.930 . S
C462 C460 1.419 . S
C462 C463 1.362 . S
C463 H453 0.930 . S
C463 C456 1.409 . S
C463 C462 1.362 . S
H464 C470 0.930 . S
H465 C473 0.930 . S
H466 C474 0.930 . S
H467 C475 0.930 . S
H468 C478 0.930 . S
H469 C479 0.930 . S
C470 H464 0.930 . S
C470 C471 1.355 . S
C470 C472 1.415 . S
C471 C470 1.355 . S
C471 C473 1.419 . S
C472 C470 1.415 . S
C472 C477 1.425 . S
C472 C479 1.409 . S
C473 H465 0.930 . S
C473 C471 1.419 . S
C473 C474 1.362 . S
C474 H466 0.930 . S
C474 C473 1.362 . S
C474 C477 1.409 . S
C475 H467 0.930 . S
C475 C476 1.355 . S
C475 C477 1.415 . S
C476 C475 1.355 . S
C476 C478 1.419 . S
C477 C472 1.425 . S
C477 C474 1.409 . S
C477 C475 1.415 . S
C478 H468 0.930 . S
C478 C476 1.419 . S
C478 C479 1.362 . S
C479 H469 0.930 . S
C479 C472 1.409 . S
C479 C478 1.362 . S
H480 C486 0.930 . S
H481 C489 0.930 . S
H482 C490 0.930 . S
H483 C491 0.930 . S
H484 C494 0.930 . S
H485 C495 0.930 . S
C486 H480 0.930 . S
C486 C487 1.355 . S
C486 C488 1.415 . S
C487 C486 1.355 . S
C487 C489 1.419 . S
C488 C486 1.415 . S
C488 C493 1.425 . S
C488 C495 1.409 . S
C489 H481 0.930 . S
C489 C487 1.419 . S
C489 C490 1.362 . S
C490 H482 0.930 . S
C490 C489 1.362 . S
C490 C493 1.409 . S
C491 H483 0.930 . S
C491 C492 1.355 . S
C491 C493 1.415 . S
C492 C491 1.355 . S
C492 C494 1.419 . S
C493 C488 1.425 . S
C493 C490 1.409 . S
C493 C491 1.415 . S
C494 H484 0.930 . S
C494 C492 1.419 . S
C494 C495 1.362 . S
C495 H485 0.930 . S
C495 C488 1.409 . S
C495 C494 1.362 . S
H496 C502 0.930 . S
H497 C505 0.930 . S
H498 C506 0.930 . S
H499 C507 0.930 . S
H500 C510 0.930 . S
H501 C511 0.930 . S
C502 H496 0.930 . S
C502 C503 1.355 . S
C502 C504 1.415 . S
C503 C502 1.355 . S
C503 C505 1.419 . S
C504 C502 1.415 . S
C504 C509 1.425 . S
C504 C511 1.409 . S
C505 H497 0.930 . S
C505 C503 1.419 . S
C505 C506 1.362 . S
C506 H498 0.930 . S
C506 C505 1.362 . S
C506 C509 1.409 . S
C507 H499 0.930 . S
C507 C508 1.355 . S
C507 C509 1.415 . S
C508 C507 1.355 . S
C508 C510 1.419 . S
C509 C504 1.425 . S
C509 C506 1.409 . S
C509 C507 1.415 . S
C510 H500 0.930 . S
C510 C508 1.419 . S
C510 C511 1.362 . S
C511 H501 0.930 . S
C511 C504 1.409 . S
C511 C510 1.362 . S
H512 C518 0.930 . S
H513 C521 0.930 . S
H514 C522 0.930 . S
H515 C523 0.930 . S
H516 C526 0.930 . S
H517 C527 0.930 . S
C518 H512 0.930 . S
C518 C519 1.355 . S
C518 C520 1.415 . S
C519 C518 1.355 . S
C519 C521 1.419 . S
C520 C518 1.415 . S
C520 C525 1.425 . S
C520 C527 1.409 . S
C521 H513 0.930 . S
C521 C519 1.419 . S
C521 C522 1.362 . S
C522 H514 0.930 . S
C522 C521 1.362 . S
C522 C525 1.409 . S
C523 H515 0.930 . S
C523 C524 1.355 . S
C523 C525 1.415 . S
C524 C523 1.355 . S
C524 C526 1.419 . S
C525 C520 1.425 . S
C525 C522 1.409 . S
C525 C523 1.415 . S
C526 H516 0.930 . S
C526 C524 1.419 . S
C526 C527 1.362 . S
C527 H517 0.930 . S
C527 C520 1.409 . S
C527 C526 1.362 . S
H528 C534 0.930 . S
H529 C537 0.930 1_554 S
H530 C538 0.930 . S
H531 C539 0.930 . S
H532 C542 0.930 . S
H533 C543 0.930 . S
C534 H528 0.930 . S
C534 C535 1.355 . S
C534 C536 1.415 . S
C535 C534 1.355 . S
C535 C537 1.419 . S
C536 C534 1.415 . S
C536 C541 1.425 . S
C536 C543 1.409 . S
C537 H529 0.930 1_556 S
C537 C535 1.419 . S
C537 C538 1.362 . S
C538 H530 0.930 . S
C538 C537 1.362 . S
C538 C541 1.409 . S
C539 H531 0.930 . S
C539 C540 1.355 . S
C539 C541 1.415 . S
C540 C539 1.355 . S
C540 C542 1.419 . S
C541 C536 1.425 . S
C541 C538 1.409 . S
C541 C539 1.415 . S
C542 H532 0.930 . S
C542 C540 1.419 . S
C542 C543 1.362 . S
C543 H533 0.930 . S
C543 C536 1.409 . S
C543 C542 1.362 . S
H544 C550 0.930 . S
H545 C553 0.930 . S
H546 C554 0.930 . S
H547 C555 0.930 . S
H548 C558 0.930 . S
H549 C559 0.930 . S
C550 H544 0.930 . S
C550 C551 1.355 . S
C550 C552 1.415 . S
C551 C550 1.355 . S
C551 C553 1.419 . S
C552 C550 1.415 . S
C552 C557 1.425 . S
C552 C559 1.409 . S
C553 H545 0.930 . S
C553 C551 1.419 . S
C553 C554 1.362 . S
C554 H546 0.930 . S
C554 C553 1.362 . S
C554 C557 1.409 . S
C555 H547 0.930 . S
C555 C556 1.355 . S
C555 C557 1.415 . S
C556 C555 1.355 . S
C556 C558 1.419 . S
C557 C552 1.425 . S
C557 C554 1.409 . S
C557 C555 1.415 . S
C558 H548 0.930 . S
C558 C556 1.419 . S
C558 C559 1.362 . S
C559 H549 0.930 . S
C559 C552 1.409 . S
C559 C558 1.362 . S
H560 C566 0.930 . S
H561 C569 0.930 . S
H562 C570 0.930 . S
H563 C571 0.930 . S
H564 C574 0.930 . S
H565 C575 0.930 . S
C566 H560 0.930 . S
C566 C567 1.355 . S
C566 C568 1.415 . S
C567 C566 1.355 . S
C567 C569 1.419 . S
C568 C566 1.415 . S
C568 C573 1.425 . S
C568 C575 1.409 . S
C569 H561 0.930 . S
C569 C567 1.419 . S
C569 C570 1.362 . S
C570 H562 0.930 . S
C570 C569 1.362 . S
C570 C573 1.409 . S
C571 H563 0.930 . S
C571 C572 1.355 . S
C571 C573 1.415 . S
C572 C571 1.355 . S
C572 C574 1.419 . S
C573 C568 1.425 . S
C573 C570 1.409 . S
C573 C571 1.415 . S
C574 H564 0.930 . S
C574 C572 1.419 . S
C574 C575 1.362 . S
C575 H565 0.930 . S
C575 C568 1.409 . S
C575 C574 1.362 . S
H576 C582 0.930 . S
H577 C585 0.930 . S
H578 C586 0.930 1_554 S
H579 C587 0.930 . S
H580 C590 0.930 . S
H581 C591 0.930 1_556 S
C582 H576 0.930 . S
C582 C583 1.355 1_455 S
C582 C584 1.415 . S
C583 C582 1.355 1_655 S
C583 C585 1.419 1_545 S
C584 C582 1.415 . S
C584 C589 1.425 1_446 S
C584 C591 1.409 1_556 S
C585 H577 0.930 . S
C585 C583 1.419 1_565 S
C585 C586 1.362 . S
C586 H578 0.930 1_556 S
C586 C585 1.362 . S
C586 C589 1.409 1_556 S
C587 H579 0.930 . S
C587 C588 1.355 1_655 S
C587 C589 1.415 . S
C588 C587 1.355 1_455 S
C588 C590 1.419 1_565 S
C589 C584 1.425 1_664 S
C589 C586 1.409 1_554 S
C589 C587 1.415 . S
C590 H580 0.930 . S
C590 C588 1.419 1_545 S
C590 C591 1.362 . S
C591 H581 0.930 1_554 S
C591 C584 1.409 1_554 S
C591 C590 1.362 . S
H592 C598 0.930 . S
H593 C601 0.930 . S
H594 C602 0.930 . S
H595 C603 0.930 . S
H596 C606 0.930 . S
H597 C607 0.930 . S
C598 H592 0.930 . S
C598 C599 1.355 . S
C598 C600 1.415 . S
C599 C598 1.355 . S
C599 C601 1.419 . S
C600 C598 1.415 . S
C600 C605 1.425 . S
C600 C607 1.409 . S
C601 H593 0.930 . S
C601 C599 1.419 . S
C601 C602 1.362 . S
C602 H594 0.930 . S
C602 C601 1.362 . S
C602 C605 1.409 . S
C603 H595 0.930 . S
C603 C604 1.355 . S
C603 C605 1.415 . S
C604 C603 1.355 . S
C604 C606 1.419 . S
C605 C600 1.425 . S
C605 C602 1.409 . S
C605 C603 1.415 . S
C606 H596 0.930 . S
C606 C604 1.419 . S
C606 C607 1.362 . S
C607 H597 0.930 . S
C607 C600 1.409 . S
C607 C606 1.362 . S
H608 C614 0.930 . S
H609 C617 0.930 . S
H610 C618 0.930 . S
H611 C619 0.930 . S
H612 C622 0.930 . S
H613 C623 0.930 . S
C614 H608 0.930 . S
C614 C615 1.355 1_565 S
C614 C616 1.415 . S
C615 C614 1.355 1_545 S
C615 C617 1.419 . S
C616 C614 1.415 . S
C616 C621 1.425 1_565 S
C616 C623 1.409 . S
C617 H609 0.930 . S
C617 C615 1.419 . S
C617 C618 1.362 . S
C618 H610 0.930 . S
C618 C617 1.362 . S
C618 C621 1.409 . S
C619 H611 0.930 . S
C619 C620 1.355 1_545 S
C619 C621 1.415 . S
C620 C619 1.355 1_565 S
C620 C622 1.419 . S
C621 C616 1.425 1_545 S
C621 C618 1.409 . S
C621 C619 1.415 . S
C622 H612 0.930 . S
C622 C620 1.419 . S
C622 C623 1.362 . S
C623 H613 0.930 . S
C623 C616 1.409 . S
C623 C622 1.362 . S
H624 C630 0.930 . S
H625 C633 0.930 . S
H626 C634 0.930 . S
H627 C635 0.930 . S
H628 C638 0.930 . S
H629 C639 0.930 . S
C630 H624 0.930 . S
C630 C631 1.355 . S
C630 C632 1.415 . S
C631 C630 1.355 . S
C631 C633 1.419 . S
C632 C630 1.415 . S
C632 C637 1.425 . S
C632 C639 1.409 . S
C633 H625 0.930 . S
C633 C631 1.419 . S
C633 C634 1.362 . S
C634 H626 0.930 . S
C634 C633 1.362 . S
C634 C637 1.409 . S
C635 H627 0.930 . S
C635 C636 1.355 . S
C635 C637 1.415 . S
C636 C635 1.355 . S
C636 C638 1.419 . S
C637 C632 1.425 . S
C637 C634 1.409 . S
C637 C635 1.415 . S
C638 H628 0.930 . S
C638 C636 1.419 . S
C638 C639 1.362 . S
C639 H629 0.930 . S
C639 C632 1.409 . S
C639 C638 1.362 . S
H640 C646 0.930 . S
H641 C649 0.930 . S
H642 C650 0.930 . S
H643 C651 0.930 . S
H644 C654 0.930 . S
H645 C655 0.930 . S
C646 H640 0.930 . S
C646 C647 1.355 . S
C646 C648 1.415 . S
C647 C646 1.355 . S
C647 C649 1.419 . S
C648 C646 1.415 . S
C648 C653 1.425 . S
C648 C655 1.409 . S
C649 H641 0.930 . S
C649 C647 1.419 . S
C649 C650 1.362 . S
C650 H642 0.930 . S
C650 C649 1.362 . S
C650 C653 1.409 . S
C651 H643 0.930 . S
C651 C652 1.355 . S
C651 C653 1.415 . S
C652 C651 1.355 . S
C652 C654 1.419 . S
C653 C648 1.425 . S
C653 C650 1.409 . S
C653 C651 1.415 . S
C654 H644 0.930 . S
C654 C652 1.419 . S
C654 C655 1.362 . S
C655 H645 0.930 . S
C655 C648 1.409 . S
C655 C654 1.362 . S
H656 C662 0.930 . S
H657 C665 0.930 . S
H658 C666 0.930 . S
H659 C667 0.930 . S
H660 C670 0.930 . S
H661 C671 0.930 . S
C662 H656 0.930 . S
C662 C663 1.355 . S
C662 C664 1.415 . S
C663 C662 1.355 . S
C663 C665 1.419 . S
C664 C662 1.415 . S
C664 C669 1.425 . S
C664 C671 1.409 . S
C665 H657 0.930 . S
C665 C663 1.419 . S
C665 C666 1.362 . S
C666 H658 0.930 . S
C666 C665 1.362 . S
C666 C669 1.409 . S
C667 H659 0.930 . S
C667 C668 1.355 . S
C667 C669 1.415 . S
C668 C667 1.355 . S
C668 C670 1.419 . S
C669 C664 1.425 . S
C669 C666 1.409 . S
C669 C667 1.415 . S
C670 H660 0.930 . S
C670 C668 1.419 . S
C670 C671 1.362 . S
C671 H661 0.930 . S
C671 C664 1.409 . S
C671 C670 1.362 . S
H672 C678 0.930 . S
H673 C681 0.930 . S
H674 C682 0.930 . S
H675 C683 0.930 . S
H676 C686 0.930 . S
H677 C687 0.930 . S
C678 H672 0.930 . S
C678 C679 1.355 . S
C678 C680 1.415 . S
C679 C678 1.355 . S
C679 C681 1.419 . S
C680 C678 1.415 . S
C680 C685 1.425 . S
C680 C687 1.409 . S
C681 H673 0.930 . S
C681 C679 1.419 . S
C681 C682 1.362 . S
C682 H674 0.930 . S
C682 C681 1.362 . S
C682 C685 1.409 . S
C683 H675 0.930 . S
C683 C684 1.355 . S
C683 C685 1.415 . S
C684 C683 1.355 . S
C684 C686 1.419 . S
C685 C680 1.425 . S
C685 C682 1.409 . S
C685 C683 1.415 . S
C686 H676 0.930 . S
C686 C684 1.419 . S
C686 C687 1.362 . S
C687 H677 0.930 . S
C687 C680 1.409 . S
C687 C686 1.362 . S
H688 C694 0.930 . S
H689 C697 0.930 . S
H690 C698 0.930 . S
H691 C699 0.930 . S
H692 C702 0.930 . S
H693 C703 0.930 . S
C694 H688 0.930 . S
C694 C695 1.355 1_455 S
C694 C696 1.415 . S
C695 C694 1.355 1_655 S
C695 C697 1.419 . S
C696 C694 1.415 . S
C696 C701 1.425 1_456 S
C696 C703 1.409 . S
C697 H689 0.930 . S
C697 C695 1.419 . S
C697 C698 1.362 1_556 S
C698 H690 0.930 . S
C698 C697 1.362 1_554 S
C698 C701 1.409 . S
C699 H691 0.930 . S
C699 C700 1.355 1_655 S
C699 C701 1.415 . S
C700 C699 1.355 1_455 S
C700 C702 1.419 . S
C701 C696 1.425 1_654 S
C701 C698 1.409 . S
C701 C699 1.415 . S
C702 H692 0.930 . S
C702 C700 1.419 . S
C702 C703 1.362 1_554 S
C703 H693 0.930 . S
C703 C696 1.409 . S
C703 C702 1.362 1_556 S
C327 C10 1.551 . S
C332 C129 1.541 . S
C343 C9 0.930 . S
C348 C49 0.987 . S
C359 C50 1.519 . S
C364 C89 1.502 . S
C375 C90 1.998 . S
C380 C130 2.013 . S
C391 C19 1.549 . S
C396 C218 1.547 . S
C407 C18 0.977 . S
C412 C178 0.969 . S
C423 C179 1.533 . S
C428 C98 1.521 . S
C439 C219 1.997 . S
C444 C99 2.018 . S
C455 C250 1.548 . S
C460 C209 1.544 . S
C471 C169 0.913 . S
C476 C249 0.960 . S
C487 C289 1.510 . S
C492 C170 1.530 . S
C503 C210 2.006 . S
C508 C290 2.017 . S
C519 C138 1.504 . S
C524 C259 1.522 . S
C535 C258 0.929 . S
C540 C58 0.927 . S
C551 C59 1.518 . S
C556 C298 1.500 . S
C567 C139 2.010 . S
C572 C299 2.012 . S
C583 C15 1.450 . S
C588 C6 1.450 . S
C599 C55 1.399 . S
C604 C46 1.399 . S
C615 C95 1.728 . S
C620 C86 1.728 . S
C631 C126 1.685 . S
C636 C135 1.685 . S
C647 C175 1.434 . S
C652 C166 1.434 . S
C663 C206 1.733 . S
C668 C215 1.733 . S
C679 C246 1.452 . S
C684 C255 1.452 . S
C695 C286 1.734 . S
C700 C295 1.734 . S
