# Generated by pormake.
# Topology vby, (6)-cn, num edge types: 1
# Building blocks:
#     Node 0, Type 0, BuildingBlock: MIDCAF_clean_sbu_0, # of connection points: 6
#     Node 1, Type 0, BuildingBlock: MIDCAF_clean_sbu_0, # of connection points: 6
#     Node 2, Type 0, BuildingBlock: MIDCAF_clean_sbu_0, # of connection points: 6
#     Node 3, Type 0, BuildingBlock: MIDCAF_clean_sbu_0, # of connection points: 6
#     Node 4, Type 0, BuildingBlock: MIDCAF_clean_sbu_0, # of connection points: 6
#     Node 5, Type 0, BuildingBlock: MIDCAF_clean_sbu_0, # of connection points: 6
#     Node 6, Type 0, BuildingBlock: MIDCAF_clean_sbu_0, # of connection points: 6
#     Node 7, Type 0, BuildingBlock: MIDCAF_clean_sbu_0, # of connection points: 6
#     Edge 8, Type (0, 0), BuildingBlock: CIFDUS_clean_linker_0, # of connection points: 2
#     Edge 9, Type (0, 0), BuildingBlock: CIFDUS_clean_linker_0, # of connection points: 2
#     Edge 10, Type (0, 0), BuildingBlock: CIFDUS_clean_linker_0, # of connection points: 2
#     Edge 11, Type (0, 0), BuildingBlock: CIFDUS_clean_linker_0, # of connection points: 2
#     Edge 12, Type (0, 0), BuildingBlock: CIFDUS_clean_linker_0, # of connection points: 2
#     Edge 13, Type (0, 0), BuildingBlock: CIFDUS_clean_linker_0, # of connection points: 2
#     Edge 14, Type (0, 0), BuildingBlock: CIFDUS_clean_linker_0, # of connection points: 2
#     Edge 15, Type (0, 0), BuildingBlock: CIFDUS_clean_linker_0, # of connection points: 2
#     Edge 16, Type (0, 0), BuildingBlock: CIFDUS_clean_linker_0, # of connection points: 2
#     Edge 17, Type (0, 0), BuildingBlock: CIFDUS_clean_linker_0, # of connection points: 2
#     Edge 18, Type (0, 0), BuildingBlock: CIFDUS_clean_linker_0, # of connection points: 2
#     Edge 19, Type (0, 0), BuildingBlock: CIFDUS_clean_linker_0, # of connection points: 2
#     Edge 20, Type (0, 0), BuildingBlock: CIFDUS_clean_linker_0, # of connection points: 2
#     Edge 21, Type (0, 0), BuildingBlock: CIFDUS_clean_linker_0, # of connection points: 2
#     Edge 22, Type (0, 0), BuildingBlock: CIFDUS_clean_linker_0, # of connection points: 2
#     Edge 23, Type (0, 0), BuildingBlock: CIFDUS_clean_linker_0, # of connection points: 2
#     Edge 24, Type (0, 0), BuildingBlock: CIFDUS_clean_linker_0, # of connection points: 2
#     Edge 25, Type (0, 0), BuildingBlock: CIFDUS_clean_linker_0, # of connection points: 2
#     Edge 26, Type (0, 0), BuildingBlock: CIFDUS_clean_linker_0, # of connection points: 2
#     Edge 27, Type (0, 0), BuildingBlock: CIFDUS_clean_linker_0, # of connection points: 2
#     Edge 28, Type (0, 0), BuildingBlock: CIFDUS_clean_linker_0, # of connection points: 2
#     Edge 29, Type (0, 0), BuildingBlock: CIFDUS_clean_linker_0, # of connection points: 2
#     Edge 30, Type (0, 0), BuildingBlock: CIFDUS_clean_linker_0, # of connection points: 2
#     Edge 31, Type (0, 0), BuildingBlock: CIFDUS_clean_linker_0, # of connection points: 2
# Relax obj value: 0.139
# Max RMSD: 0.180
# Mean RMSD: 0.180
data_MOF--net-vby--node1-MIDCAF_clean_sbu_0--edge1-CIFDUS_clean_linker_0
_symmetry_space_group_name_H-M    P1
_symmetry_Int_Tables_number       1
_symmetry_cell_setting            triclinic
loop_
_symmetry_equiv_pos_as_xyz
'x, y, z'
_cell_length_a     13.495403
_cell_length_b     52.508105
_cell_length_c     27.07314
_cell_angle_alpha  89.85104
_cell_angle_beta   89.778725
_cell_angle_gamma 89.935161
loop_
_atom_site_label
_atom_site_type_symbol
_atom_site_fract_x
_atom_site_fract_y
_atom_site_fract_z
_atom_type_partial_charge
Zn0 Zn -0.00078 0.34413 0.06616 0.0
Zn1 Zn 0.13601 0.40893 0.9621 0.0
Zn2 Zn 0.06372 0.37152 0.00169 0.0
C3 C 0.08459 0.43271 0.03974 0.0
C4 C -0.00334 0.38856 0.89641 0.0
O5 O 0.16226 0.33716 -0.00073 0.0
O6 O 0.07471 0.31405 0.05151 0.0
C7 C 0.02937 0.38207 0.12254 0.0
O8 O 0.05929 0.40901 0.04484 0.0
O9 O 0.12811 0.43986 0.00097 0.0
O10 O 0.05672 0.40662 0.90267 0.0
O11 O 0.97635 0.37345 0.93264 0.0
O12 O 0.00988 0.3591 0.13152 0.0
O13 O 0.04681 0.3894 0.07768 0.0
O14 O 0.91685 0.35968 0.97077 0.0
O15 O 0.86626 0.34171 0.04014 0.0
C16 C 0.84899 0.34821 0.99618 0.0
O17 O 0.2176 0.35891 0.97909 0.0
O18 O 0.26813 0.39621 0.95109 0.0
C19 C 0.14212 0.31543 0.01939 0.0
C20 C 0.28564 0.37306 0.95947 0.0
Zn21 Zn 0.83856 0.58545 0.97156 0.0
Zn22 Zn 0.0337 0.65606 0.04491 0.0
Zn23 Zn 0.93283 0.62269 0.00185 0.0
C24 C 0.13782 0.647 0.96045 0.0
C25 C 0.04136 0.61656 0.10931 0.0
O26 O 0.77722 0.63648 0.98693 0.0
O27 O 0.70724 0.59987 0.96785 0.0
C28 C 0.96049 0.60179 0.89358 0.0
O29 O 0.06702 0.63068 0.95536 0.0
O30 O 0.13505 0.66256 0.99574 0.0
O31 O 0.07907 0.6384 0.10507 0.0
O32 O 0.98411 0.60795 0.07511 0.0
O33 O 0.89923 0.58465 0.90534 0.0
O34 O -0.00809 0.61735 0.92669 0.0
O35 O 0.94602 0.58728 0.04947 0.0
O36 O 0.85576 0.55677 0.0165 0.0
C37 C 0.91375 0.56409 0.04988 0.0
O38 O 0.83357 0.65601 0.01248 0.0
O39 O 0.93428 0.68243 0.05153 0.0
C40 C 0.7007 0.62365 0.9728 0.0
C41 C 0.8512 0.67771 0.03277 0.0
Zn42 Zn 0.14814 0.58849 0.53995 0.0
Zn43 Zn 0.96425 0.64986 0.43601 0.0
Zn44 Zn 0.04917 0.62189 0.49535 0.0
C45 C 0.83721 0.64501 0.51673 0.0
C46 C 0.98366 0.60894 0.38055 0.0
O47 O 0.19678 0.63913 0.50992 0.0
O48 O 0.27155 0.6067 0.54626 0.0
C49 C -0.00364 0.60309 0.60374 0.0
O50 O 0.90854 0.63129 0.53384 0.0
O51 O 0.84458 0.65468 0.47428 0.0
O52 O 0.94845 0.63095 0.37504 0.0
O53 O 0.02331 0.60243 0.42209 0.0
O54 O 0.0695 0.58825 0.60074 0.0
O55 O 0.97123 0.61712 0.56675 0.0
O56 O 0.05515 0.58384 0.45514 0.0
O57 O 0.14912 0.55792 0.49915 0.0
C58 C 0.09504 0.56166 0.46205 0.0
O59 O 0.13414 0.65885 0.4897 0.0
O60 O 0.04531 0.68018 0.43528 0.0
C61 C 0.27365 0.62935 0.53093 0.0
C62 C 0.11519 0.6797 0.46593 0.0
Zn63 Zn 0.97918 0.34947 0.43807 0.0
Zn64 Zn 0.7801 0.40501 0.54389 0.0
Zn65 Zn 0.88437 0.3742 0.49635 0.0
C66 C 0.83794 0.43522 0.47077 0.0
C67 C 0.92616 0.38674 0.60798 0.0
O68 O 0.79838 0.33917 0.47942 0.0
O69 O 0.87986 0.32565 0.41358 0.0
C70 C 0.97959 0.39316 0.39062 0.0
O71 O 0.87673 0.4133 0.46066 0.0
O72 O 0.7858 0.43775 0.50913 0.0
O73 O 0.85008 0.40064 0.60652 0.0
O74 O 0.95939 0.37594 0.56859 0.0
O75 O 0.0335 0.3736 0.38967 0.0
O76 O 0.91684 0.39611 0.42635 0.0
O77 O 0.02612 0.36287 0.53402 0.0
O78 O 0.07726 0.33393 0.48101 0.0
C79 C 0.09014 0.34583 0.52075 0.0
O80 O 0.73538 0.35568 0.509 0.0
O81 O 0.65489 0.38745 0.5443 0.0
C82 C 0.80974 0.32306 0.44396 0.0
C83 C 0.65583 0.36484 0.52892 0.0
Zn84 Zn 0.45491 0.84251 0.05815 0.0
Zn85 Zn 0.64847 0.90791 0.9718 0.0
Zn86 Zn 0.54918 0.87204 0.00619 0.0
C87 C 0.58735 0.93055 0.05189 0.0
C88 C 0.50873 0.89506 0.89972 0.0
O89 O 0.6382 0.83611 0.01182 0.0
O90 O 0.54593 0.81435 0.06445 0.0
C91 C 0.45724 0.88124 0.11885 0.0
O92 O 0.54785 0.90808 0.05244 0.0
O93 O 0.64694 0.93643 0.01786 0.0
O94 O 0.57491 0.91117 0.90976 0.0
O95 O 0.48177 0.87873 0.93277 0.0
O96 O 0.41494 0.85992 0.11855 0.0
O97 O 0.51025 0.88829 0.08134 0.0
O98 O 0.41213 0.86419 0.96274 0.0
O99 O 0.34805 0.83557 0.01303 0.0
C100 C 0.3422 0.84842 0.97385 0.0
O101 O 0.70061 0.8561 0.99104 0.0
O102 O 0.77395 0.89079 0.96272 0.0
C103 C 0.62024 0.81545 0.03629 0.0
C104 C 0.77764 0.86741 0.97292 0.0
Zn105 Zn 0.38962 0.08319 0.94905 0.0
Zn106 Zn 0.51591 0.15731 0.04479 0.0
Zn107 Zn 0.44406 0.12261 0.9926 0.0
C108 C 0.65987 0.14975 0.97617 0.0
C109 C 0.49317 0.1192 0.11028 0.0
O110 O 0.28493 0.13053 0.96957 0.0
O111 O 0.25275 0.09278 0.93802 0.0
C112 C 0.52881 0.1053 0.88798 0.0
O113 O 0.59038 0.13529 0.95907 0.0
O114 O 0.64701 0.16132 0.01637 0.0
O115 O 0.50926 0.14281 0.1119 0.0
O116 O 0.47233 0.10837 0.06893 0.0
O117 O 0.47337 0.08605 0.89021 0.0
O118 O 0.53367 0.12096 0.92442 0.0
O119 O 0.45625 0.08724 0.04038 0.0
O120 O 0.40865 0.0548 0.99449 0.0
C121 C 0.44022 0.06313 0.03502 0.0
O122 O 0.32987 0.15316 0.99103 0.0
O123 O 0.42255 0.18331 0.02429 0.0
C124 C 0.22368 0.11485 0.94904 0.0
C125 C 0.34468 0.17669 0.00237 0.0
Zn126 Zn 0.66656 0.08935 0.51894 0.0
Zn127 Zn 0.46484 0.15489 0.44653 0.0
Zn128 Zn 0.56367 0.12497 0.49078 0.0
C129 C 0.36311 0.15075 0.53159 0.0
C130 C 0.44796 0.11594 0.38615 0.0
O131 O 0.71801 0.14016 0.50307 0.0
O132 O 0.79763 0.10378 0.5133 0.0
C133 C 0.54985 0.10702 0.59945 0.0
O134 O 0.42835 0.1329 0.53668 0.0
O135 O 0.37407 0.16684 0.49748 0.0
O136 O 0.40058 0.1363 0.39274 0.0
O137 O 0.51441 0.10908 0.41777 0.0
O138 O 0.61833 0.09183 0.58747 0.0
O139 O 0.50591 0.12015 0.56586 0.0
O140 O 0.55116 0.08852 0.44551 0.0
O141 O 0.64067 0.05857 0.48121 0.0
C142 C 0.5813 0.06513 0.44775 0.0
O143 O 0.65513 0.16014 0.48079 0.0
O144 O 0.56199 0.17997 0.42623 0.0
C145 C 0.79901 0.12775 0.51151 0.0
C146 C 0.63848 0.17955 0.45267 0.0
Zn147 Zn 0.50588 0.84174 0.46453 0.0
Zn148 Zn 0.31398 0.91458 0.5371 0.0
Zn149 Zn 0.40442 0.87593 0.50561 0.0
C150 C 0.37968 0.93357 0.45331 0.0
C151 C 0.45143 0.90221 0.60908 0.0
O152 O 0.30493 0.84199 0.49869 0.0
O153 O 0.40989 0.81442 0.46531 0.0
C154 C 0.50386 0.87946 0.39551 0.0
O155 O 0.41539 0.91069 0.45558 0.0
O156 O 0.31924 0.94089 0.48588 0.0
O157 O 0.39221 0.91983 0.59762 0.0
O158 O 0.46892 0.88385 0.57878 0.0
O159 O 0.54132 0.85764 0.40085 0.0
O160 O 0.45048 0.88919 0.43034 0.0
O161 O 0.54002 0.8686 0.55144 0.0
O162 O 0.61316 0.83749 0.5107 0.0
C163 C 0.61314 0.85293 0.54617 0.0
O164 O 0.25029 0.86241 0.52323 0.0
O165 O 0.18696 0.8986 0.55017 0.0
C166 C 0.32555 0.81943 0.4827 0.0
C167 C 0.17735 0.87512 0.54213 0.0
H168 H 0.39346 0.33428 0.00193 0.0
H169 H 0.4084 0.39317 0.89075 0.0
H170 H 0.58732 0.38883 0.88609 0.0
H171 H 0.74168 0.37396 0.92553 0.0
H172 H 0.72562 0.31133 0.02869 0.0
H173 H 0.54619 0.3109 0.02299 0.0
C174 C 0.43508 0.34525 0.97498 0.0
C175 C 0.38744 0.3643 0.94761 0.0
C176 C 0.53868 0.34234 0.97143 0.0
C177 C 0.44342 0.37868 0.91331 0.0
C178 C 0.54612 0.37627 0.91046 0.0
C179 C 0.69938 0.3595 0.94496 0.0
C180 C 0.74705 0.34328 0.97847 0.0
C181 C 0.59522 0.35901 0.94113 0.0
C182 C 0.69056 0.32462 0.00353 0.0
C183 C 0.58757 0.32433 0.0005 0.0
H184 H 0.29148 0.6801 0.96143 0.0
H185 H 0.2051 0.6063 0.90628 0.0
H186 H 0.37921 0.59433 0.89834 0.0
H187 H 0.54942 0.60122 0.92474 0.0
H188 H 0.6341 0.6726 0.99063 0.0
H189 H 0.46644 0.68904 0.97792 0.0
C190 C 0.3106 0.6616 0.94635 0.0
C191 C 0.23502 0.64386 0.93563 0.0
C192 C 0.41027 0.65411 0.94589 0.0
C193 C 0.26124 0.62029 0.91503 0.0
C194 C 0.36095 0.61327 0.91141 0.0
C195 C 0.53192 0.62048 0.93625 0.0
C196 C 0.60393 0.63545 0.96037 0.0
C197 C 0.43509 0.6294 0.92986 0.0
C198 C 0.58011 0.66056 0.97321 0.0
C199 C 0.48414 0.66993 0.96569 0.0
H200 H 0.68761 0.67586 0.48966 0.0
H201 H 0.76655 0.61914 0.59837 0.0
H202 H 0.59167 0.61445 0.62089 0.0
H203 H 0.41835 0.61947 0.59624 0.0
H204 H 0.34429 0.66841 0.47339 0.0
H205 H 0.51506 0.68364 0.4701 0.0
C206 C 0.66713 0.66269 0.51892 0.0
C207 C 0.73981 0.64725 0.5414 0.0
C208 C 0.56676 0.65861 0.52847 0.0
C209 C 0.71215 0.63098 0.58018 0.0
C210 C 0.61205 0.62814 0.59259 0.0
C211 C 0.43922 0.63382 0.56924 0.0
C212 C 0.36872 0.64292 0.53511 0.0
C213 C 0.53885 0.64072 0.56483 0.0
C214 C 0.39642 0.66157 0.50065 0.0
C215 C 0.49442 0.66996 0.49836 0.0
H216 H 0.5102 0.37353 0.59466 0.0
H217 H 0.58848 0.32467 0.47275 0.0
H218 H 0.41779 0.3091 0.4694 0.0
H219 H 0.24332 0.31632 0.48967 0.0
H220 H 0.16292 0.37083 0.60179 0.0
H221 H 0.33779 0.3769 0.6216 0.0
C222 C 0.49045 0.35915 0.56775 0.0
C223 C 0.56176 0.35053 0.53332 0.0
C224 C 0.39138 0.35158 0.56421 0.0
C225 C 0.53555 0.33151 0.49963 0.0
C226 C 0.43751 0.32287 0.49744 0.0
C227 C 0.26342 0.32917 0.51928 0.0
C228 C 0.1896 0.34368 0.54363 0.0
C229 C 0.36414 0.33378 0.52787 0.0
C230 C 0.2177 0.35974 0.58232 0.0
C231 C 0.3179 0.36334 0.59321 0.0
H232 H 0.92264 0.88248 0.91075 0.0
H233 H 0.85155 0.82488 0.01914 0.0
H234 H 0.02034 0.8083 0.01354 0.0
H235 H 0.19212 0.8158 0.99127 0.0
H236 H 0.2708 0.88111 0.90208 0.0
H237 H 0.09521 0.88864 0.88493 0.0
C238 C 0.94359 0.86603 0.9327 0.0
C239 C 0.87375 0.85452 0.96473 0.0
C240 C 0.04283 0.85824 0.93272 0.0
C241 C 0.90221 0.83335 0.99283 0.0
C242 C -0.00061 0.82422 0.99024 0.0
C243 C 0.17146 0.8315 0.96727 0.0
C244 C 0.24478 0.84825 0.94883 0.0
C245 C 0.07096 0.83726 0.96205 0.0
C246 C 0.2164 0.86798 0.91683 0.0
C247 C 0.11579 0.87251 0.90776 0.0
H248 H 0.11944 0.1598 0.96212 0.0
H249 H 0.08574 0.08216 0.91332 0.0
H250 H 0.90849 0.08764 0.90744 0.0
H251 H 0.75935 0.11199 0.92842 0.0
H252 H 0.7892 0.18924 0.97941 0.0
H253 H 0.9691 0.18657 0.97138 0.0
C254 C 0.07337 0.14421 0.95021 0.0
C255 C 0.11683 0.12049 0.94001 0.0
C256 C 0.96955 0.14733 0.94715 0.0
C257 C 0.05544 0.10065 0.92266 0.0
C258 C 0.9532 0.10367 0.91907 0.0
C259 C 0.80496 0.12852 0.93589 0.0
C260 C 0.76101 0.15063 0.95484 0.0
C261 C 0.90889 0.12661 0.93282 0.0
C262 C 0.82145 0.17187 0.96495 0.0
C263 C 0.92458 0.17031 0.96087 0.0
H264 H 0.20957 0.18329 0.51772 0.0
H265 H 0.28703 0.1129 0.59118 0.0
H266 H 0.11157 0.10225 0.59867 0.0
H267 H 0.94277 0.1085 0.56878 0.0
H268 H 0.87102 0.17425 0.48006 0.0
H269 H 0.03792 0.19119 0.4935 0.0
C270 C 0.18842 0.16584 0.5365 0.0
C271 C 0.26217 0.14871 0.55323 0.0
C272 C 0.08833 0.15874 0.53645 0.0
C273 C 0.23263 0.12649 0.57812 0.0
C274 C 0.13215 0.12017 0.58155 0.0
C275 C 0.96319 0.12669 0.55259 0.0
C276 C 0.89441 0.14018 0.52328 0.0
C277 C 0.06045 0.13541 0.55817 0.0
C278 C 0.92158 0.16382 0.50343 0.0
C279 C 0.01744 0.17329 0.51073 0.0
H280 H 0.76633 0.81975 0.54835 0.0
H281 H 0.67676 0.89405 0.60004 0.0
H282 H 0.85034 0.90579 0.61072 0.0
H283 H 0.02279 0.89836 0.58747 0.0
H284 H 0.11141 0.82611 0.52604 0.0
H285 H 0.94229 0.81022 0.53589 0.0
C286 C 0.78456 0.83832 0.56325 0.0
C287 C 0.70853 0.85627 0.57214 0.0
C288 C 0.88425 0.84559 0.56555 0.0
C289 C 0.73333 0.87993 0.59263 0.0
C290 C 0.83284 0.8868 0.59785 0.0
C291 C 0.00593 0.879 0.57649 0.0
C292 C 0.07958 0.86366 0.55414 0.0
C293 C 0.90827 0.87036 0.58132 0.0
C294 C 0.05616 0.83849 0.5418 0.0
C295 C 0.95938 0.82941 0.54778 0.0
H296 H 0.8262 0.52261 0.09043 0.0
H297 H 0.10744 0.56074 0.07599 0.0
H298 H 0.19398 0.52032 0.08647 0.0
H299 H 0.1843 0.47414 0.07131 0.0
H300 H 0.90289 0.4359 0.08267 0.0
H301 H 0.82182 0.47613 0.10338 0.0
C302 C 0.90651 0.52217 0.09216 0.0
C303 C 0.96051 0.54435 0.08084 0.0
C304 C 0.95556 0.49869 0.09634 0.0
C305 C 0.06428 0.54384 0.08408 0.0
C306 C 0.11386 0.52061 0.08932 0.0
C307 C 0.10608 0.47449 0.08074 0.0
C308 C 0.04876 0.45245 0.074 0.0
C309 C 0.05978 0.49781 0.09115 0.0
C310 C 0.94807 0.45278 0.08708 0.0
C311 C 0.90152 0.47586 0.09833 0.0
H312 H 0.01827 0.44803 0.4337 0.0
H313 H 0.71829 0.47514 0.44857 0.0
H314 H 0.77241 0.51862 0.43117 0.0
H315 H 0.90904 0.54943 0.43442 0.0
H316 H 0.21036 0.52244 0.43067 0.0
H317 H 0.15271 0.47878 0.41904 0.0
C318 C 0.96437 0.4633 0.4309 0.0
C319 C 0.86472 0.4585 0.44292 0.0
C320 C -0.00301 0.48852 0.42364 0.0
C321 C 0.79561 0.47848 0.4398 0.0
C322 C 0.82667 0.50339 0.43021 0.0
C323 C 0.96189 0.53412 0.42862 0.0
C324 C 0.06361 0.53903 0.43388 0.0
C325 C 0.92792 0.50884 0.42536 0.0
C326 C 0.13157 0.51903 0.4269 0.0
C327 C 0.09854 0.49401 0.4209 0.0
H328 H 0.68524 0.97174 0.0871 0.0
H329 H 0.39663 0.93679 0.08214 0.0
H330 H 0.31827 0.97833 0.09173 0.0
H331 H 0.33479 0.02409 0.07296 0.0
H332 H 0.62285 0.05918 0.07548 0.0
H333 H 0.69868 0.01832 0.09687 0.0
C334 C 0.60531 0.97314 0.09068 0.0
C335 C 0.54664 0.95144 0.08227 0.0
C336 C 0.56076 0.99725 0.09451 0.0
C337 C 0.4434 0.95326 0.08793 0.0
C338 C 0.39842 0.97713 0.09269 0.0
C339 C 0.41342 0.02299 0.08097 0.0
C340 C 0.47381 0.04426 0.07156 0.0
C341 C 0.45648 -0.00071 0.09176 0.0
C342 C 0.57527 0.04292 0.08228 0.0
C343 C 0.61874 0.01945 0.09379 0.0
H344 H 0.66365 0.02113 0.41535 0.0
H345 H 0.38827 0.06275 0.419 0.0
H346 H 0.29636 0.02337 0.40603 0.0
H347 H 0.29465 0.97691 0.41867 0.0
H348 H 0.5703 0.93532 0.41966 0.0
H349 H 0.66138 0.97459 0.40393 0.0
C350 C 0.58375 0.02167 0.41113 0.0
C351 C 0.53266 0.0447 0.4192 0.0
C352 C 0.53123 -0.00122 0.40545 0.0
C353 C 0.42941 0.0453 0.41301 0.0
C354 C 0.37662 0.02266 0.4063 0.0
C355 C 0.37431 0.97631 0.41322 0.0
C356 C 0.42584 0.95336 0.42169 0.0
C357 C 0.42655 -0.00082 0.40616 0.0
C358 C 0.52873 0.95271 0.41367 0.0
C359 C 0.58115 0.9753 0.40542 0.0
H360 H 0.07867 0.26865 0.04491 0.0
H361 H 0.29723 0.30638 0.95377 0.0
H362 H 0.36909 0.26483 0.93246 0.0
H363 H 0.37888 0.21831 0.94787 0.0
H364 H 0.1594 0.18196 0.03998 0.0
H365 H 0.07389 0.22268 0.05049 0.0
C366 C 0.14235 0.26807 0.02038 0.0
C367 C 0.18623 0.29089 0.00318 0.0
C368 C 0.18052 0.24429 0.00733 0.0
C369 C 0.26562 0.28934 0.96974 0.0
C370 C 0.30539 0.26554 0.95691 0.0
C371 C 0.30986 0.21925 0.9685 0.0
C372 C 0.27377 0.19719 0.99231 0.0
C373 C 0.26462 0.24296 0.97646 0.0
C374 C 0.18628 0.19851 0.02008 0.0
C375 C 0.13898 0.22189 0.02696 0.0
H376 H 0.613 0.7734 0.09319 0.0
H377 H 0.74121 0.80248 0.95807 0.0
H378 H 0.81567 0.76071 0.9418 0.0
H379 H 0.84659 0.71612 0.96776 0.0
H380 H 0.70777 0.68714 0.09987 0.0
H381 H 0.62912 0.72854 0.11423 0.0
C382 C 0.65753 0.77076 0.06014 0.0
C383 C 0.67486 0.79139 0.02785 0.0
C384 C 0.69467 0.7465 0.0497 0.0
C385 C 0.73075 0.7873 0.98473 0.0
C386 C 0.77146 0.76329 0.97492 0.0
C387 C 0.79608 0.71877 0.99861 0.0
C388 C 0.78039 0.69871 0.0322 0.0
C389 C 0.7536 0.74276 0.00714 0.0
C390 C 0.71799 0.70225 0.073 0.0
C391 C 0.67478 0.72598 0.08159 0.0
H392 H 0.0847 0.72482 0.42004 0.0
H393 H 0.24499 0.69101 0.5414 0.0
H394 H 0.31583 0.73264 0.5613 0.0
H395 H 0.33716 0.77837 0.54121 0.0
H396 H 0.16654 0.81203 0.42382 0.0
H397 H 0.08927 0.77074 0.40703 0.0
C398 C 0.13543 0.72635 0.45086 0.0
C399 C 0.16344 0.70438 0.47765 0.0
C400 C 0.17088 0.75048 0.46376 0.0
C401 C 0.22663 0.70718 0.51837 0.0
C402 C 0.26534 0.73112 0.53042 0.0
C403 C 0.28018 0.77674 0.51323 0.0
C404 C 0.25555 0.79814 0.48435 0.0
C405 C 0.2383 0.75285 0.50316 0.0
C406 C 0.18416 0.7959 0.44723 0.0
C407 C 0.14164 0.77223 0.43713 0.0
H408 H 0.80292 0.28694 0.51489 0.0
H409 H 0.7072 0.30449 0.36701 0.0
H410 H 0.65839 0.26015 0.3546 0.0
H411 H 0.6495 0.21648 0.38431 0.0
H412 H 0.74007 0.19804 0.53276 0.0
H413 H 0.79051 0.24242 0.54565 0.0
C414 C 0.76831 0.28108 0.48065 0.0
C415 C 0.75569 0.2989 0.44229 0.0
C416 C 0.74428 0.25531 0.47317 0.0
C417 C 0.71478 0.29111 0.39731 0.0
C418 C 0.68869 0.26574 0.38997 0.0
C419 C 0.6817 0.22204 0.41933 0.0
C420 C 0.69263 0.20388 0.45723 0.0
C421 C 0.70514 0.24764 0.42723 0.0
C422 C 0.73352 0.21147 0.5025 0.0
C423 C 0.76028 0.23695 0.51021 0.0
H424 H 0.8799 0.40252 0.17547 0.0
H425 H 0.1978 0.39874 0.16469 0.0
H426 H 0.21262 0.41051 0.2517 0.0
H427 H 0.13277 0.40851 0.3334 0.0
H428 H 0.81452 0.41073 0.34473 0.0
H429 H 0.80146 0.4142 0.25499 0.0
C430 C 0.95223 0.40559 0.19176 0.0
C431 C 0.03773 0.39954 0.16449 0.0
C432 C 0.95974 0.41169 0.24209 0.0
C433 C 0.13131 0.40339 0.18537 0.0
C434 C 0.13962 0.40984 0.23521 0.0
C435 C 0.0609 0.41113 0.31626 0.0
C436 C 0.97467 0.40856 0.34513 0.0
C437 C 0.05414 0.41213 0.26459 0.0
C438 C 0.88188 0.41238 0.32305 0.0
C439 C 0.87439 0.41394 0.27161 0.0
H440 H 0.90436 0.59131 0.16408 0.0
H441 H 0.21352 0.61151 0.15926 0.0
H442 H 0.23009 0.60156 0.24695 0.0
H443 H 0.14609 0.59928 0.32718 0.0
H444 H 0.83216 0.58569 0.33341 0.0
H445 H 0.82774 0.57977 0.24385 0.0
C446 C 0.97601 0.59249 0.18196 0.0
C447 C 0.05723 0.6025 0.15581 0.0
C448 C 0.98348 0.58816 0.23314 0.0
C449 C 0.14979 0.60413 0.1791 0.0
C450 C 0.15914 0.59855 0.22927 0.0
C451 C 0.07805 0.59359 0.30904 0.0
C452 C -0.01032 0.59289 0.33638 0.0
C453 C 0.07504 0.59227 0.25725 0.0
C454 C 0.90116 0.58608 0.31281 0.0
C455 C 0.89844 0.58316 0.26151 0.0
H456 H 0.86285 0.58019 0.81771 0.0
H457 H 0.09502 0.63427 0.84912 0.0
H458 H 0.11407 0.64274 0.76057 0.0
H459 H 0.07021 0.63276 0.67416 0.0
H460 H 0.83925 0.5785 0.64423 0.0
H461 H 0.81025 0.57299 0.73303 0.0
C462 C 0.91847 0.59374 0.80549 0.0
C463 C 0.97967 0.60603 0.84021 0.0
C464 C 0.92656 0.59905 0.75496 0.0
C465 C 0.04903 0.624 0.82334 0.0
C466 C 0.05891 0.62909 0.77273 0.0
C467 C 0.01088 0.62054 0.68734 0.0
C468 C 0.95455 0.6066 0.65315 0.0
C469 C -0.00178 0.61665 0.73828 0.0
C470 C 0.88072 0.59001 0.67009 0.0
C471 C 0.86579 0.58651 0.72073 0.0
H472 H 0.84435 0.3602 0.68234 0.0
H473 H 0.09561 0.40684 0.6437 0.0
H474 H 0.1399 0.41033 0.73085 0.0
H475 H 0.0966 0.40432 0.81654 0.0
H476 H 0.84426 0.35858 0.85876 0.0
H477 H 0.80897 0.35078 0.77092 0.0
C478 C 0.91081 0.37033 0.69321 0.0
C479 C 0.96927 0.38248 0.65686 0.0
C480 C 0.93286 0.37315 0.74359 0.0
C481 C 0.05274 0.3964 0.67092 0.0
C482 C 0.07652 0.39883 0.72074 0.0
C483 C 0.03294 0.39276 0.80702 0.0
C484 C 0.97047 0.38288 0.8444 0.0
C485 C 0.01514 0.38802 0.75719 0.0
C486 C 0.89139 0.36708 0.83087 0.0
C487 C 0.87203 0.36246 0.7807 0.0
H488 H 0.61244 0.89327 0.17589 0.0
H489 H 0.29508 0.89916 0.16667 0.0
H490 H 0.28402 0.90632 0.25577 0.0
H491 H 0.36093 0.89933 0.33711 0.0
H492 H 0.67564 0.88665 0.34577 0.0
H493 H 0.6927 0.89426 0.25707 0.0
C494 C 0.54161 0.89737 0.19326 0.0
C495 C 0.45473 0.89575 0.16521 0.0
C496 C 0.53551 0.8996 0.24494 0.0
C497 C 0.36283 0.90049 0.18786 0.0
C498 C 0.3565 0.90425 0.23886 0.0
C499 C 0.43347 0.89929 0.31969 0.0
C500 C 0.51682 0.89227 0.34745 0.0
C501 C 0.44168 0.90212 0.26812 0.0
C502 C 0.61053 0.89191 0.32476 0.0
C503 C 0.62016 0.89609 0.27402 0.0
H504 H 0.33968 0.10598 0.16801 0.0
H505 H 0.65736 0.10219 0.15664 0.0
H506 H 0.6697 0.0929 0.24508 0.0
H507 H 0.59232 0.09734 0.32706 0.0
H508 H 0.27591 0.10665 0.33829 0.0
H509 H 0.25954 0.10129 0.24914 0.0
C510 C 0.41096 0.10195 0.18476 0.0
C511 C 0.49749 0.10471 0.15653 0.0
C512 C 0.41741 0.098 0.23595 0.0
C513 C 0.58998 0.09999 0.17812 0.0
C514 C 0.59696 0.09492 0.22869 0.0
C515 C 0.51962 0.09702 0.31009 0.0
C516 C 0.43558 0.10275 0.33869 0.0
C517 C 0.5116 0.09552 0.25842 0.0
C518 C 0.3416 0.10249 0.31661 0.0
C519 C 0.33236 0.09967 0.26562 0.0
H520 H 0.43784 0.13362 0.82034 0.0
H521 H 0.69933 0.0885 0.84612 0.0
H522 H 0.72868 0.08561 0.75697 0.0
H523 H 0.6673 0.09096 0.67344 0.0
H524 H 0.40312 0.13517 0.64575 0.0
H525 H 0.38527 0.14289 0.73466 0.0
C526 C 0.5035 0.12412 0.8062 0.0
C527 C 0.56802 0.11178 0.83924 0.0
C528 C 0.51644 0.12145 0.75502 0.0
C529 C 0.65079 0.09869 0.82112 0.0
C530 C 0.66616 0.09664 0.77027 0.0
C531 C 0.60514 0.10222 0.68651 0.0
C532 C 0.53435 0.11172 0.65289 0.0
C533 C 0.59703 0.10701 0.73711 0.0
C534 C 0.45662 0.12694 0.67079 0.0
C535 C 0.44727 0.13161 0.72155 0.0
H536 H 0.41673 0.8659 0.67788 0.0
H537 H 0.5555 0.93885 0.65482 0.0
H538 H 0.57569 0.94402 0.7439 0.0
H539 H 0.54636 0.92903 0.8274 0.0
H540 H 0.40947 0.8559 0.85318 0.0
H541 H 0.39102 0.85007 0.76376 0.0
C542 C 0.45426 0.88248 0.69257 0.0
C543 C 0.48727 0.90172 0.66016 0.0
C544 C 0.46191 0.88573 0.74405 0.0
C545 C 0.53208 0.92361 0.67927 0.0
C546 C 0.54203 0.92672 0.73009 0.0
C547 C 0.51166 0.91181 0.81377 0.0
C548 C 0.4786 0.89302 0.84721 0.0
C549 C 0.50525 0.90818 0.76272 0.0
C550 C 0.43389 0.87091 0.82848 0.0
C551 C 0.42494 0.86738 0.7773 0.0
loop_
_geom_bond_atom_site_label_1
_geom_bond_atom_site_label_2
_geom_bond_distance
_geom_bond_site_symmetry_2
_ccdc_geom_bond_type
Zn0 O6 1.920 1_655 S
Zn0 O12 1.898 . S
Zn0 O15 1.905 . S
Zn1 O9 1.905 . S
Zn1 O10 1.898 . S
Zn1 O18 1.920 . S
Zn2 O5 2.080 1_554 S
Zn2 O8 2.114 1_554 S
Zn2 O11 2.120 1_554 S
Zn2 O13 2.120 . S
Zn2 O14 2.114 1_455 S
Zn2 O17 2.080 . S
C3 O8 1.167 . S
C3 O9 1.194 . S
C4 O10 1.167 . S
C4 O11 1.299 . S
O5 Zn2 2.080 1_556 S
O5 C19 1.305 1_556 S
O6 Zn0 1.920 1_455 S
O6 C19 1.234 . S
C7 O12 1.167 1_455 S
C7 O13 1.299 . S
O8 Zn2 2.114 1_556 S
O8 C3 1.167 . S
O9 Zn1 1.905 . S
O9 C3 1.194 . S
O10 Zn1 1.898 . S
O10 C4 1.167 . S
O11 Zn2 2.120 1_556 S
O11 C4 1.299 . S
O12 Zn0 1.898 . S
O12 C7 1.167 1_655 S
O13 Zn2 2.120 . S
O13 C7 1.299 . S
O14 Zn2 2.114 1_655 S
O14 C16 1.166 . S
O15 Zn0 1.905 . S
O15 C16 1.182 . S
C16 O14 1.166 . S
C16 O15 1.182 . S
O17 Zn2 2.080 . S
O17 C20 1.305 1_554 S
O18 Zn1 1.920 . S
O18 C20 1.234 . S
C19 O5 1.305 1_554 S
C19 O6 1.234 . S
C20 O17 1.305 1_556 S
C20 O18 1.234 . S
Zn21 O27 1.920 . S
Zn21 O33 1.898 . S
Zn21 O36 1.905 . S
Zn22 O30 1.905 . S
Zn22 O31 1.898 . S
Zn22 O39 1.920 1_455 S
Zn23 O26 2.080 . S
Zn23 O29 2.114 1_655 S
Zn23 O32 2.120 . S
Zn23 O34 2.120 1_554 S
Zn23 O35 2.114 1_554 S
Zn23 O38 2.080 1_554 S
C24 O29 1.166 . S
C24 O30 1.182 . S
C25 O31 1.167 1_655 S
C25 O32 1.299 . S
O26 Zn23 2.080 . S
O26 C40 1.305 1_554 S
O27 Zn21 1.920 . S
O27 C40 1.234 . S
C28 O33 1.167 . S
C28 O34 1.299 . S
O29 Zn23 2.114 1_455 S
O29 C24 1.166 . S
O30 Zn22 1.905 . S
O30 C24 1.182 . S
O31 Zn22 1.898 . S
O31 C25 1.167 1_455 S
O32 Zn23 2.120 . S
O32 C25 1.299 . S
O33 Zn21 1.898 . S
O33 C28 1.167 . S
O34 Zn23 2.120 1_556 S
O34 C28 1.299 . S
O35 Zn23 2.114 1_556 S
O35 C37 1.167 . S
O36 Zn21 1.905 . S
O36 C37 1.194 . S
C37 O35 1.167 . S
C37 O36 1.194 . S
O38 Zn23 2.080 1_556 S
O38 C41 1.305 1_556 S
O39 Zn22 1.920 1_655 S
O39 C41 1.234 . S
C40 O26 1.305 1_556 S
C40 O27 1.234 . S
C41 O38 1.305 1_554 S
C41 O39 1.234 . S
Zn42 O48 1.920 . S
Zn42 O54 1.898 . S
Zn42 O57 1.905 . S
Zn43 O51 1.905 . S
Zn43 O52 1.898 . S
Zn43 O60 1.920 1_655 S
Zn44 O47 2.080 . S
Zn44 O50 2.114 1_455 S
Zn44 O53 2.120 . S
Zn44 O55 2.120 . S
Zn44 O56 2.114 . S
Zn44 O59 2.080 . S
C45 O50 1.166 . S
C45 O51 1.182 . S
C46 O52 1.167 1_455 S
C46 O53 1.299 . S
O47 Zn44 2.080 . S
O47 C61 1.305 . S
O48 Zn42 1.920 . S
O48 C61 1.234 . S
C49 O54 1.167 . S
C49 O55 1.299 . S
O50 Zn44 2.114 1_655 S
O50 C45 1.166 . S
O51 Zn43 1.905 . S
O51 C45 1.182 . S
O52 Zn43 1.898 . S
O52 C46 1.167 1_655 S
O53 Zn44 2.120 . S
O53 C46 1.299 . S
O54 Zn42 1.898 . S
O54 C49 1.167 . S
O55 Zn44 2.120 . S
O55 C49 1.299 . S
O56 Zn44 2.114 . S
O56 C58 1.166 . S
O57 Zn42 1.905 . S
O57 C58 1.182 . S
C58 O56 1.166 . S
C58 O57 1.182 . S
O59 Zn44 2.080 . S
O59 C62 1.305 . S
O60 Zn43 1.920 1_455 S
O60 C62 1.234 . S
C61 O47 1.305 . S
C61 O48 1.234 . S
C62 O59 1.305 . S
C62 O60 1.234 . S
Zn63 O69 1.920 1_455 S
Zn63 O75 1.898 . S
Zn63 O78 1.905 . S
Zn64 O72 1.905 . S
Zn64 O73 1.898 . S
Zn64 O81 1.920 . S
Zn65 O68 2.080 . S
Zn65 O71 2.114 . S
Zn65 O74 2.120 . S
Zn65 O76 2.120 . S
Zn65 O77 2.114 1_655 S
Zn65 O80 2.080 . S
C66 O71 1.166 . S
C66 O72 1.182 . S
C67 O73 1.167 . S
C67 O74 1.299 . S
O68 Zn65 2.080 . S
O68 C82 1.305 . S
O69 Zn63 1.920 1_655 S
O69 C82 1.234 . S
C70 O75 1.167 1_655 S
C70 O76 1.299 . S
O71 Zn65 2.114 . S
O71 C66 1.166 . S
O72 Zn64 1.905 . S
O72 C66 1.182 . S
O73 Zn64 1.898 . S
O73 C67 1.167 . S
O74 Zn65 2.120 . S
O74 C67 1.299 . S
O75 Zn63 1.898 . S
O75 C70 1.167 1_455 S
O76 Zn65 2.120 . S
O76 C70 1.299 . S
O77 Zn65 2.114 1_455 S
O77 C79 1.166 . S
O78 Zn63 1.905 . S
O78 C79 1.182 . S
C79 O77 1.166 . S
C79 O78 1.182 . S
O80 Zn65 2.080 . S
O80 C83 1.305 . S
O81 Zn64 1.920 . S
O81 C83 1.234 . S
C82 O68 1.305 . S
C82 O69 1.234 . S
C83 O80 1.305 . S
C83 O81 1.234 . S
Zn84 O90 1.920 . S
Zn84 O96 1.898 . S
Zn84 O99 1.905 . S
Zn85 O93 1.905 . S
Zn85 O94 1.898 . S
Zn85 O102 1.920 . S
Zn86 O89 2.080 1_554 S
Zn86 O92 2.114 1_554 S
Zn86 O95 2.120 1_554 S
Zn86 O97 2.120 . S
Zn86 O98 2.114 . S
Zn86 O101 2.080 . S
C87 O92 1.167 . S
C87 O93 1.194 . S
C88 O94 1.167 . S
C88 O95 1.299 . S
O89 Zn86 2.080 1_556 S
O89 C103 1.305 1_556 S
O90 Zn84 1.920 . S
O90 C103 1.234 . S
C91 O96 1.167 . S
C91 O97 1.299 . S
O92 Zn86 2.114 1_556 S
O92 C87 1.167 . S
O93 Zn85 1.905 . S
O93 C87 1.194 . S
O94 Zn85 1.898 . S
O94 C88 1.167 . S
O95 Zn86 2.120 1_556 S
O95 C88 1.299 . S
O96 Zn84 1.898 . S
O96 C91 1.167 . S
O97 Zn86 2.120 . S
O97 C91 1.299 . S
O98 Zn86 2.114 . S
O98 C100 1.166 . S
O99 Zn84 1.905 . S
O99 C100 1.182 . S
C100 O98 1.166 . S
C100 O99 1.182 . S
O101 Zn86 2.080 . S
O101 C104 1.305 1_554 S
O102 Zn85 1.920 . S
O102 C104 1.234 . S
C103 O89 1.305 1_554 S
C103 O90 1.234 . S
C104 O101 1.305 1_556 S
C104 O102 1.234 . S
Zn105 O111 1.920 . S
Zn105 O117 1.898 . S
Zn105 O120 1.905 . S
Zn106 O114 1.905 . S
Zn106 O115 1.898 . S
Zn106 O123 1.920 . S
Zn107 O110 2.080 . S
Zn107 O113 2.114 . S
Zn107 O116 2.120 . S
Zn107 O118 2.120 1_554 S
Zn107 O119 2.114 1_554 S
Zn107 O122 2.080 1_554 S
C108 O113 1.166 . S
C108 O114 1.182 . S
C109 O115 1.167 . S
C109 O116 1.299 . S
O110 Zn107 2.080 . S
O110 C124 1.305 1_554 S
O111 Zn105 1.920 . S
O111 C124 1.234 . S
C112 O117 1.167 . S
C112 O118 1.299 . S
O113 Zn107 2.114 . S
O113 C108 1.166 . S
O114 Zn106 1.905 . S
O114 C108 1.182 . S
O115 Zn106 1.898 . S
O115 C109 1.167 . S
O116 Zn107 2.120 . S
O116 C109 1.299 . S
O117 Zn105 1.898 . S
O117 C112 1.167 . S
O118 Zn107 2.120 1_556 S
O118 C112 1.299 . S
O119 Zn107 2.114 1_556 S
O119 C121 1.167 . S
O120 Zn105 1.905 . S
O120 C121 1.194 . S
C121 O119 1.167 . S
C121 O120 1.194 . S
O122 Zn107 2.080 1_556 S
O122 C125 1.305 1_556 S
O123 Zn106 1.920 . S
O123 C125 1.234 . S
C124 O110 1.305 1_556 S
C124 O111 1.234 . S
C125 O122 1.305 1_554 S
C125 O123 1.234 . S
Zn126 O132 1.920 . S
Zn126 O138 1.898 . S
Zn126 O141 1.905 . S
Zn127 O135 1.905 . S
Zn127 O136 1.898 . S
Zn127 O144 1.920 . S
Zn128 O131 2.080 . S
Zn128 O134 2.114 . S
Zn128 O137 2.120 . S
Zn128 O139 2.120 . S
Zn128 O140 2.114 . S
Zn128 O143 2.080 . S
C129 O134 1.166 . S
C129 O135 1.182 . S
C130 O136 1.167 . S
C130 O137 1.299 . S
O131 Zn128 2.080 . S
O131 C145 1.305 . S
O132 Zn126 1.920 . S
O132 C145 1.234 . S
C133 O138 1.167 . S
C133 O139 1.299 . S
O134 Zn128 2.114 . S
O134 C129 1.166 . S
O135 Zn127 1.905 . S
O135 C129 1.182 . S
O136 Zn127 1.898 . S
O136 C130 1.167 . S
O137 Zn128 2.120 . S
O137 C130 1.299 . S
O138 Zn126 1.898 . S
O138 C133 1.167 . S
O139 Zn128 2.120 . S
O139 C133 1.299 . S
O140 Zn128 2.114 . S
O140 C142 1.166 . S
O141 Zn126 1.905 . S
O141 C142 1.182 . S
C142 O140 1.166 . S
C142 O141 1.182 . S
O143 Zn128 2.080 . S
O143 C146 1.305 . S
O144 Zn127 1.920 . S
O144 C146 1.234 . S
C145 O131 1.305 . S
C145 O132 1.234 . S
C146 O143 1.305 . S
C146 O144 1.234 . S
Zn147 O153 1.920 . S
Zn147 O159 1.898 . S
Zn147 O162 1.905 . S
Zn148 O156 1.905 . S
Zn148 O157 1.898 . S
Zn148 O165 1.920 . S
Zn149 O152 2.080 . S
Zn149 O155 2.114 . S
Zn149 O158 2.120 . S
Zn149 O160 2.120 . S
Zn149 O161 2.114 . S
Zn149 O164 2.080 . S
C150 O155 1.166 . S
C150 O156 1.182 . S
C151 O157 1.167 . S
C151 O158 1.299 . S
O152 Zn149 2.080 . S
O152 C166 1.305 . S
O153 Zn147 1.920 . S
O153 C166 1.234 . S
C154 O159 1.167 . S
C154 O160 1.299 . S
O155 Zn149 2.114 . S
O155 C150 1.166 . S
O156 Zn148 1.905 . S
O156 C150 1.182 . S
O157 Zn148 1.898 . S
O157 C151 1.167 . S
O158 Zn149 2.120 . S
O158 C151 1.299 . S
O159 Zn147 1.898 . S
O159 C154 1.167 . S
O160 Zn149 2.120 . S
O160 C154 1.299 . S
O161 Zn149 2.114 . S
O161 C163 1.166 . S
O162 Zn147 1.905 . S
O162 C163 1.182 . S
C163 O161 1.166 . S
C163 O162 1.182 . S
O164 Zn149 2.080 . S
O164 C167 1.305 . S
O165 Zn148 1.920 . S
O165 C167 1.234 . S
C166 O152 1.305 . S
C166 O153 1.234 . S
C167 O164 1.305 . S
C167 O165 1.234 . S
H168 C174 0.930 . S
H169 C177 0.930 . S
H170 C178 0.930 . S
H171 C179 0.930 . S
H172 C182 0.930 . S
H173 C183 0.930 . S
C174 H168 0.930 . S
C174 C175 1.355 1_554 S
C174 C176 1.415 . S
C175 C174 1.355 1_556 S
C175 C177 1.419 . S
C176 C174 1.415 . S
C176 C181 1.425 1_554 S
C176 C183 1.409 . S
C177 H169 0.930 . S
C177 C175 1.419 . S
C177 C178 1.362 . S
C178 H170 0.930 . S
C178 C177 1.362 . S
C178 C181 1.409 . S
C179 H171 0.930 . S
C179 C180 1.355 . S
C179 C181 1.415 . S
C180 C179 1.355 . S
C180 C182 1.419 1_556 S
C181 C176 1.425 1_556 S
C181 C178 1.409 . S
C181 C179 1.415 . S
C182 H172 0.930 . S
C182 C180 1.419 1_554 S
C182 C183 1.362 . S
C183 H173 0.930 . S
C183 C176 1.409 . S
C183 C182 1.362 . S
H184 C190 0.930 . S
H185 C193 0.930 . S
H186 C194 0.930 . S
H187 C195 0.930 . S
H188 C198 0.930 . S
H189 C199 0.930 . S
C190 H184 0.930 . S
C190 C191 1.355 1_554 S
C190 C192 1.415 . S
C191 C190 1.355 1_556 S
C191 C193 1.419 . S
C192 C190 1.415 . S
C192 C197 1.420 1_554 S
C192 C199 1.413 . S
C193 H185 0.930 . S
C193 C191 1.419 . S
C193 C194 1.362 . S
C194 H186 0.930 . S
C194 C193 1.362 . S
C194 C197 1.409 . S
C195 H187 0.930 . S
C195 C196 1.355 . S
C195 C197 1.415 . S
C196 C195 1.355 . S
C196 C198 1.419 1_556 S
C197 C192 1.420 1_556 S
C197 C194 1.409 . S
C197 C195 1.415 . S
C198 H188 0.930 . S
C198 C196 1.419 1_554 S
C198 C199 1.362 . S
C199 H189 0.930 . S
C199 C192 1.413 . S
C199 C198 1.362 . S
H200 C206 0.930 . S
H201 C209 0.930 . S
H202 C210 0.930 . S
H203 C211 0.930 . S
H204 C214 0.930 . S
H205 C215 0.930 . S
C206 H200 0.930 . S
C206 C207 1.355 . S
C206 C208 1.415 . S
C207 C206 1.355 . S
C207 C209 1.419 . S
C208 C206 1.415 . S
C208 C213 1.425 . S
C208 C215 1.409 . S
C209 H201 0.930 . S
C209 C207 1.419 . S
C209 C210 1.362 . S
C210 H202 0.930 . S
C210 C209 1.362 . S
C210 C213 1.409 . S
C211 H203 0.930 . S
C211 C212 1.355 . S
C211 C213 1.415 . S
C212 C211 1.355 . S
C212 C214 1.419 . S
C213 C208 1.425 . S
C213 C210 1.409 . S
C213 C211 1.415 . S
C214 H204 0.930 . S
C214 C212 1.419 . S
C214 C215 1.362 . S
C215 H205 0.930 . S
C215 C208 1.409 . S
C215 C214 1.362 . S
H216 C222 0.930 . S
H217 C225 0.930 . S
H218 C226 0.930 . S
H219 C227 0.930 . S
H220 C230 0.930 . S
H221 C231 0.930 . S
C222 H216 0.930 . S
C222 C223 1.355 . S
C222 C224 1.415 . S
C223 C222 1.355 . S
C223 C225 1.419 . S
C224 C222 1.415 . S
C224 C229 1.425 . S
C224 C231 1.409 . S
C225 H217 0.930 . S
C225 C223 1.419 . S
C225 C226 1.362 . S
C226 H218 0.930 . S
C226 C225 1.362 . S
C226 C229 1.409 . S
C227 H219 0.930 . S
C227 C228 1.355 . S
C227 C229 1.415 . S
C228 C227 1.355 . S
C228 C230 1.419 . S
C229 C224 1.425 . S
C229 C226 1.409 . S
C229 C227 1.415 . S
C230 H220 0.930 . S
C230 C228 1.419 . S
C230 C231 1.362 . S
C231 H221 0.930 . S
C231 C224 1.409 . S
C231 C230 1.362 . S
H232 C238 0.930 . S
H233 C241 0.929 1_554 S
H234 C242 0.930 1_554 S
H235 C243 0.928 1_554 S
H236 C246 0.930 . S
H237 C247 0.930 . S
C238 H232 0.930 . S
C238 C239 1.355 . S
C238 C240 1.415 1_655 S
C239 C238 1.355 . S
C239 C241 1.419 . S
C240 C238 1.415 1_455 S
C240 C245 1.425 . S
C240 C247 1.409 . S
C241 H233 0.929 1_556 S
C241 C239 1.419 . S
C241 C242 1.362 1_655 S
C242 H234 0.930 1_556 S
C242 C241 1.362 1_455 S
C242 C245 1.409 . S
C243 H235 0.928 1_556 S
C243 C244 1.355 . S
C243 C245 1.415 . S
C244 C243 1.355 . S
C244 C246 1.419 . S
C245 C240 1.425 . S
C245 C242 1.409 . S
C245 C243 1.415 . S
C246 H236 0.930 . S
C246 C244 1.419 . S
C246 C247 1.362 . S
C247 H237 0.930 . S
C247 C240 1.409 . S
C247 C246 1.362 . S
H248 C254 0.919 1_554 S
H249 C257 0.930 . S
H250 C258 0.930 . S
H251 C259 0.930 . S
H252 C262 0.930 . S
H253 C263 0.930 . S
C254 H248 0.919 1_556 S
C254 C255 1.363 . S
C254 C256 1.417 1_455 S
C255 C254 1.363 . S
C255 C257 1.419 . S
C256 C254 1.417 1_655 S
C256 C261 1.425 . S
C256 C263 1.409 1_556 S
C257 H249 0.930 . S
C257 C255 1.419 . S
C257 C258 1.362 1_455 S
C258 H250 0.930 . S
C258 C257 1.362 1_655 S
C258 C261 1.409 . S
C259 H251 0.930 . S
C259 C260 1.355 . S
C259 C261 1.415 . S
C260 C259 1.355 . S
C260 C262 1.419 1_556 S
C261 C256 1.425 . S
C261 C258 1.409 . S
C261 C259 1.415 . S
C262 H252 0.930 . S
C262 C260 1.419 1_554 S
C262 C263 1.362 . S
C263 H253 0.930 . S
C263 C256 1.409 1_554 S
C263 C262 1.362 . S
H264 C270 0.930 . S
H265 C273 0.930 . S
H266 C274 0.930 . S
H267 C275 0.930 . S
H268 C278 0.930 . S
H269 C279 0.930 . S
C270 H264 0.930 . S
C270 C271 1.355 . S
C270 C272 1.415 . S
C271 C270 1.355 . S
C271 C273 1.419 . S
C272 C270 1.415 . S
C272 C277 1.425 . S
C272 C279 1.409 . S
C273 H265 0.930 . S
C273 C271 1.419 . S
C273 C274 1.362 . S
C274 H266 0.930 . S
C274 C273 1.362 . S
C274 C277 1.409 . S
C275 H267 0.930 . S
C275 C276 1.355 . S
C275 C277 1.415 1_655 S
C276 C275 1.355 . S
C276 C278 1.419 . S
C277 C272 1.425 . S
C277 C274 1.409 . S
C277 C275 1.415 1_455 S
C278 H268 0.930 . S
C278 C276 1.419 . S
C278 C279 1.362 1_655 S
C279 H269 0.930 . S
C279 C272 1.409 . S
C279 C278 1.362 1_455 S
H280 C286 0.930 . S
H281 C289 0.930 . S
H282 C290 0.930 . S
H283 C291 0.930 . S
H284 C294 0.930 . S
H285 C295 0.930 . S
C286 H280 0.930 . S
C286 C287 1.355 . S
C286 C288 1.415 . S
C287 C286 1.355 . S
C287 C289 1.419 . S
C288 C286 1.415 . S
C288 C293 1.425 . S
C288 C295 1.409 . S
C289 H281 0.930 . S
C289 C287 1.419 . S
C289 C290 1.362 . S
C290 H282 0.930 . S
C290 C289 1.362 . S
C290 C293 1.409 . S
C291 H283 0.930 . S
C291 C292 1.355 . S
C291 C293 1.415 1_455 S
C292 C291 1.355 . S
C292 C294 1.419 . S
C293 C288 1.425 . S
C293 C290 1.409 . S
C293 C291 1.415 1_655 S
C294 H284 0.930 . S
C294 C292 1.419 . S
C294 C295 1.362 1_455 S
C295 H285 0.930 . S
C295 C288 1.409 . S
C295 C294 1.362 1_655 S
H296 C302 0.930 . S
H297 C305 0.930 . S
H298 C306 0.930 . S
H299 C307 0.930 1_556 S
H300 C310 0.930 . S
H301 C311 0.930 . S
C302 H296 0.930 . S
C302 C303 1.355 . S
C302 C304 1.415 . S
C303 C302 1.355 . S
C303 C305 1.419 1_654 S
C304 C302 1.415 . S
C304 C309 1.425 1_655 S
C304 C311 1.409 . S
C305 H297 0.930 . S
C305 C303 1.419 1_456 S
C305 C306 1.362 . S
C306 H298 0.930 . S
C306 C305 1.362 . S
C306 C309 1.409 1_556 S
C307 H299 0.930 1_554 S
C307 C308 1.355 . S
C307 C309 1.415 . S
C308 C307 1.355 . S
C308 C310 1.419 1_455 S
C309 C304 1.425 1_455 S
C309 C306 1.409 1_554 S
C309 C307 1.415 . S
C310 H300 0.930 . S
C310 C308 1.419 1_655 S
C310 C311 1.362 . S
C311 H301 0.930 . S
C311 C304 1.409 . S
C311 C310 1.362 . S
H312 C318 0.930 . S
H313 C321 0.930 . S
H314 C322 0.930 . S
H315 C323 0.930 . S
H316 C326 0.930 . S
H317 C327 0.930 . S
C318 H312 0.930 . S
C318 C319 1.355 1_455 S
C318 C320 1.415 . S
C319 C318 1.355 1_655 S
C319 C321 1.419 . S
C320 C318 1.415 . S
C320 C325 1.425 1_455 S
C320 C327 1.409 . S
C321 H313 0.930 . S
C321 C319 1.419 . S
C321 C322 1.362 . S
C322 H314 0.930 . S
C322 C321 1.362 . S
C322 C325 1.409 . S
C323 H315 0.930 . S
C323 C324 1.355 1_655 S
C323 C325 1.415 . S
C324 C323 1.355 1_455 S
C324 C326 1.419 . S
C325 C320 1.425 1_655 S
C325 C322 1.409 . S
C325 C323 1.415 . S
C326 H316 0.930 . S
C326 C324 1.419 . S
C326 C327 1.362 . S
C327 H317 0.930 . S
C327 C320 1.409 . S
C327 C326 1.362 . S
H328 C334 0.930 . S
H329 C337 0.930 . S
H330 C338 0.930 . S
H331 C339 0.930 . S
H332 C342 0.930 . S
H333 C343 0.930 . S
C334 H328 0.930 . S
C334 C335 1.355 1_556 S
C334 C336 1.415 . S
C335 C334 1.355 1_554 S
C335 C337 1.419 . S
C336 C334 1.415 . S
C336 C341 1.425 1_566 S
C336 C343 1.409 1_565 S
C337 H329 0.930 . S
C337 C335 1.419 . S
C337 C338 1.362 . S
C338 H330 0.930 . S
C338 C337 1.362 . S
C338 C341 1.409 1_565 S
C339 H331 0.930 . S
C339 C340 1.355 . S
C339 C341 1.415 . S
C340 C339 1.355 . S
C340 C342 1.419 1_554 S
C341 C336 1.425 1_544 S
C341 C338 1.409 1_545 S
C341 C339 1.415 . S
C342 H332 0.930 . S
C342 C340 1.419 1_556 S
C342 C343 1.362 . S
C343 H333 0.930 . S
C343 C336 1.409 1_545 S
C343 C342 1.362 . S
H344 C350 0.930 . S
H345 C353 0.930 . S
H346 C354 0.930 . S
H347 C355 0.930 . S
H348 C358 0.930 . S
H349 C359 0.930 . S
C350 H344 0.930 . S
C350 C351 1.355 . S
C350 C352 1.415 . S
C351 C350 1.355 . S
C351 C353 1.419 . S
C352 C350 1.415 . S
C352 C357 1.425 1_545 S
C352 C359 1.409 1_545 S
C353 H345 0.930 . S
C353 C351 1.419 . S
C353 C354 1.362 . S
C354 H346 0.930 . S
C354 C353 1.362 . S
C354 C357 1.409 1_545 S
C355 H347 0.930 . S
C355 C356 1.355 . S
C355 C357 1.415 . S
C356 C355 1.355 . S
C356 C358 1.419 . S
C357 C352 1.425 1_565 S
C357 C354 1.409 1_565 S
C357 C355 1.415 . S
C358 H348 0.930 . S
C358 C356 1.419 . S
C358 C359 1.362 . S
C359 H349 0.930 . S
C359 C352 1.409 1_565 S
C359 C358 1.362 . S
H360 C366 0.930 . S
H361 C369 0.930 . S
H362 C370 0.930 . S
H363 C371 0.930 . S
H364 C374 0.930 . S
H365 C375 0.930 . S
C366 H360 0.930 . S
C366 C367 1.355 . S
C366 C368 1.415 . S
C367 C366 1.355 . S
C367 C369 1.419 1_554 S
C368 C366 1.415 . S
C368 C373 1.425 1_554 S
C368 C375 1.409 . S
C369 H361 0.930 . S
C369 C367 1.419 1_556 S
C369 C370 1.362 . S
C370 H362 0.930 . S
C370 C369 1.362 . S
C370 C373 1.409 . S
C371 H363 0.930 . S
C371 C372 1.355 1_556 S
C371 C373 1.415 . S
C372 C371 1.355 1_554 S
C372 C374 1.419 . S
C373 C368 1.425 1_556 S
C373 C370 1.409 . S
C373 C371 1.415 . S
C374 H364 0.930 . S
C374 C372 1.419 . S
C374 C375 1.362 . S
C375 H365 0.930 . S
C375 C368 1.409 . S
C375 C374 1.362 . S
H376 C382 0.930 . S
H377 C385 0.930 . S
H378 C386 0.930 . S
H379 C387 0.930 . S
H380 C390 0.930 . S
H381 C391 0.930 . S
C382 H376 0.930 . S
C382 C383 1.355 . S
C382 C384 1.415 . S
C383 C382 1.355 . S
C383 C385 1.419 1_554 S
C384 C382 1.415 . S
C384 C389 1.425 1_554 S
C384 C391 1.409 . S
C385 H377 0.930 . S
C385 C383 1.419 1_556 S
C385 C386 1.362 . S
C386 H378 0.930 . S
C386 C385 1.362 . S
C386 C389 1.409 . S
C387 H379 0.930 . S
C387 C388 1.355 1_556 S
C387 C389 1.415 . S
C388 C387 1.355 1_554 S
C388 C390 1.419 . S
C389 C384 1.425 1_556 S
C389 C386 1.409 . S
C389 C387 1.415 . S
C390 H380 0.930 . S
C390 C388 1.419 . S
C390 C391 1.362 . S
C391 H381 0.930 . S
C391 C384 1.409 . S
C391 C390 1.362 . S
H392 C398 0.930 . S
H393 C401 0.930 . S
H394 C402 0.930 . S
H395 C403 0.930 . S
H396 C406 0.930 . S
H397 C407 0.930 . S
C398 H392 0.930 . S
C398 C399 1.355 . S
C398 C400 1.415 . S
C399 C398 1.355 . S
C399 C401 1.419 . S
C400 C398 1.415 . S
C400 C405 1.425 . S
C400 C407 1.409 . S
C401 H393 0.930 . S
C401 C399 1.419 . S
C401 C402 1.362 . S
C402 H394 0.930 . S
C402 C401 1.362 . S
C402 C405 1.409 . S
C403 H395 0.930 . S
C403 C404 1.355 . S
C403 C405 1.415 . S
C404 C403 1.355 . S
C404 C406 1.419 . S
C405 C400 1.425 . S
C405 C402 1.409 . S
C405 C403 1.415 . S
C406 H396 0.930 . S
C406 C404 1.419 . S
C406 C407 1.362 . S
C407 H397 0.930 . S
C407 C400 1.409 . S
C407 C406 1.362 . S
H408 C414 0.930 . S
H409 C417 0.930 . S
H410 C418 0.930 . S
H411 C419 0.930 . S
H412 C422 0.930 . S
H413 C423 0.930 . S
C414 H408 0.930 . S
C414 C415 1.355 . S
C414 C416 1.415 . S
C415 C414 1.355 . S
C415 C417 1.419 . S
C416 C414 1.415 . S
C416 C421 1.425 . S
C416 C423 1.409 . S
C417 H409 0.930 . S
C417 C415 1.419 . S
C417 C418 1.362 . S
C418 H410 0.930 . S
C418 C417 1.362 . S
C418 C421 1.409 . S
C419 H411 0.930 . S
C419 C420 1.355 . S
C419 C421 1.415 . S
C420 C419 1.355 . S
C420 C422 1.419 . S
C421 C416 1.425 . S
C421 C418 1.409 . S
C421 C419 1.415 . S
C422 H412 0.930 . S
C422 C420 1.419 . S
C422 C423 1.362 . S
C423 H413 0.930 . S
C423 C416 1.409 . S
C423 C422 1.362 . S
H424 C430 0.928 1_655 S
H425 C433 0.930 . S
H426 C434 0.930 . S
H427 C435 0.928 1_455 S
H428 C438 0.930 . S
H429 C439 0.930 . S
C430 H424 0.928 1_455 S
C430 C431 1.357 . S
C430 C432 1.414 1_455 S
C431 C430 1.357 . S
C431 C433 1.419 . S
C432 C430 1.414 1_655 S
C432 C437 1.425 1_655 S
C432 C439 1.409 . S
C433 H425 0.930 . S
C433 C431 1.419 . S
C433 C434 1.362 . S
C434 H426 0.930 . S
C434 C433 1.362 . S
C434 C437 1.409 . S
C435 H427 0.928 1_655 S
C435 C436 1.357 . S
C435 C437 1.414 1_655 S
C436 C435 1.357 . S
C436 C438 1.419 . S
C437 C432 1.425 1_455 S
C437 C434 1.409 . S
C437 C435 1.414 1_455 S
C438 H428 0.930 . S
C438 C436 1.419 . S
C438 C439 1.362 . S
C439 H429 0.930 . S
C439 C432 1.409 . S
C439 C438 1.362 . S
H440 C446 0.930 . S
H441 C449 0.930 . S
H442 C450 0.930 . S
H443 C451 0.930 . S
H444 C454 0.930 . S
H445 C455 0.930 . S
C446 H440 0.930 . S
C446 C447 1.355 . S
C446 C448 1.415 . S
C447 C446 1.355 . S
C447 C449 1.419 1_655 S
C448 C446 1.415 . S
C448 C453 1.425 1_655 S
C448 C455 1.409 . S
C449 H441 0.930 . S
C449 C447 1.419 1_455 S
C449 C450 1.362 . S
C450 H442 0.930 . S
C450 C449 1.362 . S
C450 C453 1.409 . S
C451 H443 0.930 . S
C451 C452 1.355 . S
C451 C453 1.415 . S
C452 C451 1.355 . S
C452 C454 1.419 1_455 S
C453 C448 1.425 1_455 S
C453 C450 1.409 . S
C453 C451 1.415 . S
C454 H444 0.930 . S
C454 C452 1.419 1_655 S
C454 C455 1.362 . S
C455 H445 0.930 . S
C455 C448 1.409 . S
C455 C454 1.362 . S
H456 C462 0.929 1_455 S
H457 C465 0.930 . S
H458 C466 0.930 . S
H459 C467 0.929 1_655 S
H460 C470 0.930 . S
H461 C471 0.930 . S
C462 H456 0.929 1_655 S
C462 C463 1.355 . S
C462 C464 1.415 1_655 S
C463 C462 1.355 . S
C463 C465 1.419 . S
C464 C462 1.415 1_455 S
C464 C469 1.425 1_455 S
C464 C471 1.409 . S
C465 H457 0.930 . S
C465 C463 1.419 . S
C465 C466 1.362 . S
C466 H458 0.930 . S
C466 C465 1.362 . S
C466 C469 1.409 . S
C467 H459 0.929 1_455 S
C467 C468 1.355 . S
C467 C469 1.415 1_455 S
C468 C467 1.355 . S
C468 C470 1.419 . S
C469 C464 1.425 1_655 S
C469 C466 1.409 . S
C469 C467 1.415 1_655 S
C470 H460 0.930 . S
C470 C468 1.419 . S
C470 C471 1.362 . S
C471 H461 0.930 . S
C471 C464 1.409 . S
C471 C470 1.362 . S
H472 C478 0.930 . S
H473 C481 0.930 . S
H474 C482 0.930 . S
H475 C483 0.930 . S
H476 C486 0.930 . S
H477 C487 0.930 . S
C478 H472 0.930 . S
C478 C479 1.355 . S
C478 C480 1.415 . S
C479 C478 1.355 . S
C479 C481 1.419 1_655 S
C480 C478 1.415 . S
C480 C485 1.425 1_655 S
C480 C487 1.409 . S
C481 H473 0.930 . S
C481 C479 1.419 1_455 S
C481 C482 1.362 . S
C482 H474 0.930 . S
C482 C481 1.362 . S
C482 C485 1.409 . S
C483 H475 0.930 . S
C483 C484 1.355 . S
C483 C485 1.415 . S
C484 C483 1.355 . S
C484 C486 1.419 1_455 S
C485 C480 1.425 1_455 S
C485 C482 1.409 . S
C485 C483 1.415 . S
C486 H476 0.930 . S
C486 C484 1.419 1_655 S
C486 C487 1.362 . S
C487 H477 0.930 . S
C487 C480 1.409 . S
C487 C486 1.362 . S
H488 C494 0.930 . S
H489 C497 0.930 . S
H490 C498 0.930 . S
H491 C499 0.930 . S
H492 C502 0.930 . S
H493 C503 0.930 . S
C494 H488 0.930 . S
C494 C495 1.355 . S
C494 C496 1.415 . S
C495 C494 1.355 . S
C495 C497 1.419 . S
C496 C494 1.415 . S
C496 C501 1.425 . S
C496 C503 1.409 . S
C497 H489 0.930 . S
C497 C495 1.419 . S
C497 C498 1.362 . S
C498 H490 0.930 . S
C498 C497 1.362 . S
C498 C501 1.409 . S
C499 H491 0.930 . S
C499 C500 1.355 . S
C499 C501 1.415 . S
C500 C499 1.355 . S
C500 C502 1.419 . S
C501 C496 1.425 . S
C501 C498 1.409 . S
C501 C499 1.415 . S
C502 H492 0.930 . S
C502 C500 1.419 . S
C502 C503 1.362 . S
C503 H493 0.930 . S
C503 C496 1.409 . S
C503 C502 1.362 . S
H504 C510 0.930 . S
H505 C513 0.930 . S
H506 C514 0.930 . S
H507 C515 0.930 . S
H508 C518 0.930 . S
H509 C519 0.930 . S
C510 H504 0.930 . S
C510 C511 1.355 . S
C510 C512 1.415 . S
C511 C510 1.355 . S
C511 C513 1.419 . S
C512 C510 1.415 . S
C512 C517 1.425 . S
C512 C519 1.409 . S
C513 H505 0.930 . S
C513 C511 1.419 . S
C513 C514 1.362 . S
C514 H506 0.930 . S
C514 C513 1.362 . S
C514 C517 1.409 . S
C515 H507 0.930 . S
C515 C516 1.355 . S
C515 C517 1.415 . S
C516 C515 1.355 . S
C516 C518 1.419 . S
C517 C512 1.425 . S
C517 C514 1.409 . S
C517 C515 1.415 . S
C518 H508 0.930 . S
C518 C516 1.419 . S
C518 C519 1.362 . S
C519 H509 0.930 . S
C519 C512 1.409 . S
C519 C518 1.362 . S
H520 C526 0.930 . S
H521 C529 0.930 . S
H522 C530 0.930 . S
H523 C531 0.930 . S
H524 C534 0.930 . S
H525 C535 0.930 . S
C526 H520 0.930 . S
C526 C527 1.355 . S
C526 C528 1.415 . S
C527 C526 1.355 . S
C527 C529 1.419 . S
C528 C526 1.415 . S
C528 C533 1.425 . S
C528 C535 1.409 . S
C529 H521 0.930 . S
C529 C527 1.419 . S
C529 C530 1.362 . S
C530 H522 0.930 . S
C530 C529 1.362 . S
C530 C533 1.409 . S
C531 H523 0.930 . S
C531 C532 1.355 . S
C531 C533 1.415 . S
C532 C531 1.355 . S
C532 C534 1.419 . S
C533 C528 1.425 . S
C533 C530 1.409 . S
C533 C531 1.415 . S
C534 H524 0.930 . S
C534 C532 1.419 . S
C534 C535 1.362 . S
C535 H525 0.930 . S
C535 C528 1.409 . S
C535 C534 1.362 . S
H536 C542 0.930 . S
H537 C545 0.930 . S
H538 C546 0.930 . S
H539 C547 0.930 . S
H540 C550 0.930 . S
H541 C551 0.930 . S
C542 H536 0.930 . S
C542 C543 1.355 . S
C542 C544 1.415 . S
C543 C542 1.355 . S
C543 C545 1.419 . S
C544 C542 1.415 . S
C544 C549 1.425 . S
C544 C551 1.409 . S
C545 H537 0.930 . S
C545 C543 1.419 . S
C545 C546 1.362 . S
C546 H538 0.930 . S
C546 C545 1.362 . S
C546 C549 1.409 . S
C547 H539 0.930 . S
C547 C548 1.355 . S
C547 C549 1.415 . S
C548 C547 1.355 . S
C548 C550 1.419 . S
C549 C544 1.425 . S
C549 C546 1.409 . S
C549 C547 1.415 . S
C550 H540 0.930 . S
C550 C548 1.419 . S
C550 C551 1.362 . S
C551 H541 0.930 . S
C551 C544 1.409 . S
C551 C550 1.362 . S
C175 C20 1.231 . S
C180 C16 1.179 1_556 S
C191 C24 1.296 1_556 S
C196 C40 1.313 . S
C207 C45 1.273 . S
C212 C61 1.320 . S
C223 C83 1.282 . S
C228 C79 1.289 . S
C239 C104 1.311 . S
C244 C100 1.245 1_556 S
C255 C124 1.226 . S
C260 C108 1.220 1_556 S
C271 C129 1.285 . S
C276 C145 1.277 . S
C287 C163 1.198 . S
C292 C167 1.275 . S
C303 C37 1.411 1_554 S
C308 C3 1.418 1_554 S
C319 C66 1.385 . S
C324 C58 1.398 . S
C335 C87 1.450 1_554 S
C340 C121 1.351 1_554 S
C351 C142 1.392 . S
C356 C150 1.446 . S
C367 C19 1.415 . S
C372 C125 1.366 . S
C383 C103 1.425 . S
C388 C41 1.379 . S
C399 C62 1.378 . S
C404 C166 1.345 . S
C415 C82 1.358 . S
C420 C146 1.348 . S
C431 C7 1.269 . S
C436 C70 1.364 . S
C447 C25 1.330 . S
C452 C46 1.242 . S
C463 C28 1.380 . S
C468 C49 1.321 . S
C479 C67 1.358 . S
C484 C4 1.395 . S
C495 C91 1.305 . S
C500 C154 1.257 . S
C511 C109 1.301 . S
C516 C130 1.261 . S
C527 C112 1.325 . S
C532 C133 1.386 . S
C543 C151 1.295 . S
C548 C88 1.285 . S
