# Generated by pormake.
# Topology una, (4)-cn, num edge types: 1
# Building blocks:
#     Node 0, Type 0, BuildingBlock: CEKHIL_clean_sbu_0, # of connection points: 4
#     Node 1, Type 0, BuildingBlock: CEKHIL_clean_sbu_0, # of connection points: 4
#     Node 2, Type 0, BuildingBlock: CEKHIL_clean_sbu_0, # of connection points: 4
#     Node 3, Type 0, BuildingBlock: CEKHIL_clean_sbu_0, # of connection points: 4
#     Node 4, Type 0, BuildingBlock: CEKHIL_clean_sbu_0, # of connection points: 4
#     Node 5, Type 0, BuildingBlock: CEKHIL_clean_sbu_0, # of connection points: 4
#     Node 6, Type 0, BuildingBlock: CEKHIL_clean_sbu_0, # of connection points: 4
#     Node 7, Type 0, BuildingBlock: CEKHIL_clean_sbu_0, # of connection points: 4
#     Node 8, Type 0, BuildingBlock: CEKHIL_clean_sbu_0, # of connection points: 4
#     Node 9, Type 0, BuildingBlock: CEKHIL_clean_sbu_0, # of connection points: 4
#     Node 10, Type 0, BuildingBlock: CEKHIL_clean_sbu_0, # of connection points: 4
#     Node 11, Type 0, BuildingBlock: CEKHIL_clean_sbu_0, # of connection points: 4
#     Edge 12, Type (0, 0), BuildingBlock: ZUJKAS_clean_linker_0, # of connection points: 2
#     Edge 13, Type (0, 0), BuildingBlock: ZUJKAS_clean_linker_0, # of connection points: 2
#     Edge 14, Type (0, 0), BuildingBlock: ZUJKAS_clean_linker_0, # of connection points: 2
#     Edge 15, Type (0, 0), BuildingBlock: ZUJKAS_clean_linker_0, # of connection points: 2
#     Edge 16, Type (0, 0), BuildingBlock: ZUJKAS_clean_linker_0, # of connection points: 2
#     Edge 17, Type (0, 0), BuildingBlock: ZUJKAS_clean_linker_0, # of connection points: 2
#     Edge 18, Type (0, 0), BuildingBlock: ZUJKAS_clean_linker_0, # of connection points: 2
#     Edge 19, Type (0, 0), BuildingBlock: ZUJKAS_clean_linker_0, # of connection points: 2
#     Edge 20, Type (0, 0), BuildingBlock: ZUJKAS_clean_linker_0, # of connection points: 2
#     Edge 21, Type (0, 0), BuildingBlock: ZUJKAS_clean_linker_0, # of connection points: 2
#     Edge 22, Type (0, 0), BuildingBlock: ZUJKAS_clean_linker_0, # of connection points: 2
#     Edge 23, Type (0, 0), BuildingBlock: ZUJKAS_clean_linker_0, # of connection points: 2
#     Edge 24, Type (0, 0), BuildingBlock: ZUJKAS_clean_linker_0, # of connection points: 2
#     Edge 25, Type (0, 0), BuildingBlock: ZUJKAS_clean_linker_0, # of connection points: 2
#     Edge 26, Type (0, 0), BuildingBlock: ZUJKAS_clean_linker_0, # of connection points: 2
#     Edge 27, Type (0, 0), BuildingBlock: ZUJKAS_clean_linker_0, # of connection points: 2
#     Edge 28, Type (0, 0), BuildingBlock: ZUJKAS_clean_linker_0, # of connection points: 2
#     Edge 29, Type (0, 0), BuildingBlock: ZUJKAS_clean_linker_0, # of connection points: 2
#     Edge 30, Type (0, 0), BuildingBlock: ZUJKAS_clean_linker_0, # of connection points: 2
#     Edge 31, Type (0, 0), BuildingBlock: ZUJKAS_clean_linker_0, # of connection points: 2
#     Edge 32, Type (0, 0), BuildingBlock: ZUJKAS_clean_linker_0, # of connection points: 2
#     Edge 33, Type (0, 0), BuildingBlock: ZUJKAS_clean_linker_0, # of connection points: 2
#     Edge 34, Type (0, 0), BuildingBlock: ZUJKAS_clean_linker_0, # of connection points: 2
#     Edge 35, Type (0, 0), BuildingBlock: ZUJKAS_clean_linker_0, # of connection points: 2
# Relax obj value: 0.022
# Max RMSD: 0.037
# Mean RMSD: 0.037
data_MOF--net-una--node1-CEKHIL_clean_sbu_0--edge1-ZUJKAS_clean_linker_0
_symmetry_space_group_name_H-M    P1
_symmetry_Int_Tables_number       1
_symmetry_cell_setting            triclinic
loop_
_symmetry_equiv_pos_as_xyz
'x, y, z'
_cell_length_a     74.689104
_cell_length_b     74.658476
_cell_length_c     28.484462
_cell_angle_alpha  89.989691
_cell_angle_beta   90.003909
_cell_angle_gamma 120.03265
loop_
_atom_site_label
_atom_site_type_symbol
_atom_site_fract_x
_atom_site_fract_y
_atom_site_fract_z
_atom_type_partial_charge
Co0 Co 0.13309 0.4381 0.02771 0.0
O1 O 0.11603 0.43687 0.97606 0.0
O2 O 0.10379 0.4194 0.04191 0.0
C3 C 0.15566 0.43416 0.98228 0.0
O4 O 0.14718 0.43546 0.08759 0.0
Co5 Co 0.17851 0.47451 0.02897 0.0
O6 O 0.18107 0.45971 0.08386 0.0
C7 C 0.14433 0.48231 0.04839 0.0
C8 C 0.10011 0.42375 0.99991 0.0
C9 C 0.16588 0.44431 0.10379 0.0
O10 O 0.13191 0.46275 0.05388 0.0
O11 O 0.16288 0.48982 0.03339 0.0
O12 O 0.13869 0.4181 0.99647 0.0
O13 O 0.15755 0.45179 0.99305 0.0
Co14 Co 0.69428 0.13264 0.193 0.0
O15 O 0.67716 0.11484 0.14363 0.0
O16 O 0.68363 0.10354 0.20941 0.0
C17 C 0.71985 0.154 0.14408 0.0
O18 O 0.7125 0.14757 0.25067 0.0
Co19 Co 0.70494 0.17851 0.19258 0.0
O20 O 0.72705 0.18172 0.23602 0.0
C21 C 0.66295 0.14559 0.21917 0.0
C22 C 0.67474 0.09926 0.1683 0.0
C23 C 0.72598 0.1667 0.25961 0.0
O24 O 0.66928 0.1324 0.22132 0.0
O25 O 0.67442 0.16423 0.20495 0.0
O26 O 0.71896 0.13717 0.15923 0.0
O27 O 0.70465 0.15655 0.15634 0.0
Co28 Co 0.56456 0.69501 0.35773 0.0
O29 O 0.56455 0.67783 0.30773 0.0
O30 O 0.58326 0.68444 0.37203 0.0
C31 C 0.56804 0.72047 0.30933 0.0
O32 O 0.5687 0.7134 0.41562 0.0
Co33 Co 0.52925 0.70549 0.36064 0.0
O34 O 0.54879 0.72773 0.40291 0.0
C35 C 0.52074 0.66378 0.38827 0.0
C36 C 0.5781 0.67552 0.33098 0.0
C37 C 0.56311 0.72685 0.42531 0.0
O38 O 0.54026 0.67004 0.38761 0.0
O39 O 0.51329 0.67517 0.37536 0.0
O40 O 0.5842 0.71965 0.32294 0.0
O41 O 0.55048 0.70525 0.32264 0.0
Co42 Co 0.87058 0.56333 0.52632 0.0
O43 O 0.88758 0.56381 0.47538 0.0
O44 O 0.89989 0.5821 0.54018 0.0
C45 C 0.84834 0.56701 0.47937 0.0
O46 O 0.85654 0.567 0.58514 0.0
Co47 Co 0.82477 0.52798 0.52979 0.0
O48 O 0.82224 0.54765 0.57203 0.0
C49 C 0.85817 0.51928 0.5542 0.0
C50 C 0.90351 0.57736 0.49852 0.0
C51 C 0.83756 0.5617 0.59464 0.0
O52 O 0.87143 0.53883 0.55457 0.0
O53 O 0.83928 0.51196 0.54185 0.0
O54 O 0.86534 0.58313 0.4931 0.0
O55 O 0.8461 0.54938 0.49173 0.0
Co56 Co 0.30913 0.87216 0.70025 0.0
O57 O 0.32594 0.88925 0.64947 0.0
O58 O 0.31948 0.90136 0.71409 0.0
C59 C 0.28332 0.84972 0.65311 0.0
O60 O 0.29145 0.85845 0.75924 0.0
Co61 Co 0.29862 0.82638 0.70518 0.0
O62 O 0.27923 0.82404 0.75518 0.0
C63 C 0.34078 0.85997 0.72844 0.0
C64 C 0.32826 0.9051 0.67292 0.0
C65 C 0.27989 0.83975 0.77439 0.0
O66 O 0.33444 0.87317 0.72902 0.0
O67 O 0.32924 0.8411 0.71589 0.0
O68 O 0.28417 0.86675 0.66651 0.0
O69 O 0.29865 0.84751 0.66606 0.0
Co70 Co 0.43997 0.30752 0.86034 0.0
O71 O 0.43886 0.32309 0.80793 0.0
O72 O 0.42187 0.31886 0.87407 0.0
C73 C 0.43504 0.28028 0.81626 0.0
O74 O 0.43718 0.29114 0.92106 0.0
Co75 Co 0.47533 0.29688 0.8619 0.0
O76 O 0.45981 0.27949 0.91595 0.0
C77 C 0.48465 0.33937 0.88377 0.0
C78 C 0.42605 0.32641 0.8316 0.0
C79 C 0.44517 0.28039 0.93672 0.0
O80 O 0.46516 0.33331 0.88521 0.0
O81 O 0.49162 0.32754 0.8712 0.0
O82 O 0.41934 0.28181 0.8304 0.0
O83 O 0.45293 0.29583 0.82617 0.0
Co84 Co 0.56434 0.87144 0.89221 0.0
O85 O 0.56484 0.88806 0.94408 0.0
O86 O 0.58334 0.90084 0.87971 0.0
C87 C 0.56757 0.84847 0.93778 0.0
O88 O 0.56797 0.85791 0.83241 0.0
Co89 Co 0.52826 0.82593 0.88725 0.0
O90 O 0.54467 0.82372 0.83563 0.0
C91 C 0.52068 0.85991 0.86197 0.0
C92 C 0.57843 0.90417 0.92146 0.0
C93 C 0.56 0.83922 0.81642 0.0
O94 O 0.54022 0.87301 0.86404 0.0
O95 O 0.51284 0.84086 0.87346 0.0
O96 O 0.58381 0.86554 0.92478 0.0
O97 O 0.55006 0.8466 0.92574 0.0
Co98 Co 0.69453 0.56364 0.05996 0.0
O99 O 0.67672 0.56342 0.10866 0.0
O100 O 0.68388 0.58212 0.04416 0.0
C101 C 0.71959 0.56752 0.1101 0.0
O102 O 0.71351 0.56791 0.00321 0.0
Co103 Co 0.70578 0.52887 0.05899 0.0
O104 O 0.72842 0.54867 0.01786 0.0
C105 C 0.66429 0.51975 0.02762 0.0
C106 C 0.67453 0.5769 0.08473 0.0
C107 C 0.72733 0.56269 0.99466 0.0
O108 O 0.67008 0.53917 0.02918 0.0
O109 O 0.67581 0.51255 0.04114 0.0
O110 O 0.71866 0.58352 0.09565 0.0
O111 O 0.70468 0.54982 0.09642 0.0
Co112 Co 0.1335 0.69415 0.23411 0.0
O113 O 0.11495 0.6781 0.28338 0.0
O114 O 0.10473 0.68457 0.21606 0.0
C115 C 0.15541 0.71988 0.28217 0.0
O116 O 0.14973 0.71143 0.17641 0.0
Co117 Co 0.17814 0.70112 0.24057 0.0
O118 O 0.18317 0.72118 0.18971 0.0
C119 C 0.14341 0.66008 0.2167 0.0
C120 C 0.09982 0.676 0.25753 0.0
C121 C 0.1692 0.72205 0.16568 0.0
O122 O 0.13203 0.66816 0.20813 0.0
O123 O 0.16147 0.67023 0.23487 0.0
O124 O 0.13912 0.71972 0.26574 0.0
O125 O 0.15683 0.7038 0.27219 0.0
Co126 Co 0.43869 0.1307 0.39554 0.0
O127 O 0.43775 0.11162 0.44197 0.0
O128 O 0.42003 0.10217 0.37569 0.0
C129 C 0.4345 0.151 0.4478 0.0
O130 O 0.43571 0.14705 0.34045 0.0
Co131 Co 0.47424 0.17637 0.40119 0.0
O132 O 0.45638 0.18084 0.35711 0.0
C133 C 0.48302 0.14384 0.36974 0.0
C134 C 0.42455 0.0968 0.41557 0.0
C135 C 0.44215 0.16644 0.33269 0.0
O136 O 0.46348 0.13096 0.36576 0.0
O137 O 0.49023 0.16203 0.38688 0.0
O138 O 0.41855 0.1346 0.43114 0.0
O139 O 0.45224 0.15367 0.43503 0.0
Co140 Co 0.31017 0.43986 0.56302 0.0
O141 O 0.32598 0.43765 0.61337 0.0
O142 O 0.32025 0.42094 0.54628 0.0
C143 C 0.28397 0.43576 0.60977 0.0
O144 O 0.29328 0.43843 0.50415 0.0
Co145 Co 0.30226 0.47699 0.56715 0.0
O146 O 0.28343 0.46225 0.51432 0.0
C147 C 0.34369 0.48419 0.54305 0.0
C148 C 0.32847 0.42471 0.58812 0.0
C149 C 0.28303 0.4474 0.4913 0.0
O150 O 0.33621 0.46456 0.53761 0.0
O151 O 0.33302 0.49194 0.55906 0.0
O152 O 0.28448 0.41973 0.59393 0.0
O153 O 0.29994 0.45338 0.59996 0.0
Co154 Co 0.87151 0.30889 0.72792 0.0
O155 O 0.88901 0.32556 0.77813 0.0
O156 O 0.90069 0.31931 0.71271 0.0
C157 C 0.84955 0.28309 0.77561 0.0
O158 O 0.8568 0.29104 0.66963 0.0
Co159 Co 0.82584 0.29895 0.7271 0.0
O160 O 0.82264 0.27674 0.68393 0.0
C161 C 0.85937 0.34088 0.70208 0.0
C162 C 0.90472 0.32789 0.75416 0.0
C163 C 0.83765 0.27767 0.66063 0.0
O164 O 0.87231 0.33424 0.69989 0.0
O165 O 0.84064 0.32959 0.71588 0.0
O166 O 0.8664 0.28388 0.76114 0.0
O167 O 0.84737 0.29856 0.76363 0.0
H168 H 0.15711 0.4051 0.12939 0.0
H169 H 0.17179 0.39611 0.19716 0.0
H170 H 0.20118 0.45942 0.24438 0.0
H171 H 0.18697 0.46839 0.1771 0.0
H172 H 0.2176 0.41759 0.21728 0.0
H173 H 0.17217 0.42366 0.3637 0.0
H174 H 0.16286 0.41866 0.30384 0.0
H175 H 0.18112 0.44455 0.32228 0.0
C176 C 0.16623 0.41688 0.15507 0.0
C177 C 0.17073 0.43739 0.14837 0.0
C178 C 0.17476 0.4118 0.19344 0.0
C179 C 0.1875 0.42708 0.22603 0.0
C180 C 0.19123 0.44732 0.22012 0.0
H181 H 0.27358 0.47151 0.438 0.0
H182 H 0.24909 0.46147 0.37376 0.0
C183 C 0.18306 0.45242 0.18168 0.0
C184 C 0.19824 0.42278 0.26476 0.0
H185 H 0.20576 0.4288 0.38329 0.0
C186 C 0.21467 0.4194 0.25376 0.0
C187 C 0.19444 0.42518 0.31232 0.0
C188 C 0.17656 0.42802 0.32642 0.0
C189 C 0.22835 0.42002 0.28877 0.0
C190 C 0.22539 0.42394 0.33589 0.0
C191 C 0.20809 0.42583 0.34716 0.0
C192 C 0.24158 0.42952 0.37258 0.0
C193 C 0.24674 0.41802 0.27487 0.0
C194 C 0.24602 0.41496 0.39287 0.0
C195 C 0.2603 0.42072 0.4302 0.0
C196 C 0.27015 0.44107 0.44786 0.0
C197 C 0.26615 0.45562 0.42591 0.0
C198 C 0.25209 0.44992 0.389 0.0
H199 H 0.24739 0.41592 0.23641 0.0
H200 H 0.26125 0.43203 0.28596 0.0
H201 H 0.24603 0.40454 0.2931 0.0
H202 H 0.23801 0.39906 0.38088 0.0
H203 H 0.26294 0.40913 0.44642 0.0
H204 H 0.85227 0.28515 0.56963 0.0
H205 H 0.83582 0.26223 0.50166 0.0
H206 H 0.7931 0.21419 0.59455 0.0
H207 H 0.809 0.23706 0.66178 0.0
H208 H 0.82608 0.22169 0.47331 0.0
H209 H 0.75492 0.22489 0.51191 0.0
H210 H 0.77935 0.24189 0.53977 0.0
H211 H 0.76358 0.21572 0.56017 0.0
C212 C 0.83974 0.26951 0.57548 0.0
C213 C 0.83182 0.26293 0.62092 0.0
C214 C 0.83026 0.25646 0.53666 0.0
C215 C 0.81283 0.23665 0.54286 0.0
C216 C 0.80613 0.22955 0.58866 0.0
H217 H 0.71931 0.14813 0.34668 0.0
H218 H 0.74138 0.16253 0.41668 0.0
C219 C 0.81536 0.24259 0.62712 0.0
C220 C 0.8006 0.22395 0.50185 0.0
H221 H 0.75251 0.20194 0.45199 0.0
C222 C 0.81 0.21737 0.46864 0.0
C223 C 0.77957 0.21826 0.49563 0.0
C224 C 0.76878 0.22569 0.52847 0.0
C225 C 0.7989 0.20517 0.42973 0.0
C226 C 0.7779 0.19956 0.42352 0.0
C227 C 0.76849 0.20596 0.45701 0.0
C228 C 0.76593 0.18889 0.38042 0.0
C229 C 0.80972 0.19827 0.39571 0.0
C230 C 0.77247 0.19868 0.33671 0.0
C231 C 0.75991 0.19058 0.29709 0.0
C232 C 0.74044 0.17244 0.29999 0.0
C233 C 0.7343 0.16198 0.3432 0.0
C234 C 0.74686 0.17027 0.38322 0.0
H235 H 0.8231 0.19815 0.4124 0.0
H236 H 0.79896 0.18258 0.38179 0.0
H237 H 0.81564 0.20922 0.36572 0.0
H238 H 0.78686 0.21322 0.33363 0.0
H239 H 0.76511 0.19903 0.26433 0.0
H240 H 0.57915 0.72197 0.50901 0.0
H241 H 0.58775 0.74414 0.57914 0.0
H242 H 0.57551 0.78654 0.50185 0.0
H243 H 0.56745 0.76497 0.43233 0.0
H244 H 0.60806 0.8072 0.56233 0.0
H245 H 0.54057 0.74282 0.65356 0.0
H246 H 0.5605 0.73764 0.63481 0.0
H247 H 0.54533 0.74179 0.59186 0.0
C248 C 0.57883 0.73629 0.5068 0.0
C249 C 0.57232 0.74153 0.46528 0.0
C250 C 0.58354 0.74886 0.547 0.0
C251 C 0.58184 0.76683 0.54618 0.0
C252 C 0.57685 0.77276 0.50368 0.0
H253 H 0.53756 0.82084 0.73933 0.0
H254 H 0.54648 0.80516 0.67499 0.0
C255 C 0.57213 0.7603 0.46389 0.0
C256 C 0.58319 0.77865 0.58966 0.0
H257 H 0.55689 0.77501 0.69071 0.0
C258 C 0.59711 0.80012 0.59087 0.0
C259 C 0.56874 0.76948 0.62668 0.0
C260 C 0.55281 0.74672 0.62682 0.0
C261 C 0.59641 0.81271 0.62691 0.0
C262 C 0.58152 0.80358 0.66303 0.0
C263 C 0.56828 0.78202 0.66297 0.0
C264 C 0.57779 0.81603 0.69866 0.0
C265 C 0.6108 0.83578 0.62472 0.0
C266 C 0.59268 0.82813 0.73266 0.0
C267 C 0.58764 0.83749 0.76933 0.0
C268 C 0.56762 0.83471 0.77259 0.0
C269 C 0.55318 0.82344 0.73732 0.0
C270 C 0.55822 0.81432 0.70076 0.0
H271 H 0.61899 0.84075 0.59051 0.0
H272 H 0.60213 0.84409 0.63054 0.0
H273 H 0.62255 0.84047 0.65292 0.0
H274 H 0.60779 0.82946 0.73227 0.0
H275 H 0.59888 0.84567 0.79673 0.0
H276 H 0.852 0.56821 0.68565 0.0
H277 H 0.83609 0.57544 0.75349 0.0
H278 H 0.79499 0.58316 0.66021 0.0
H279 H 0.81033 0.57543 0.59307 0.0
H280 H 0.82781 0.6073 0.78212 0.0
H281 H 0.75527 0.53438 0.74154 0.0
H282 H 0.77961 0.5411 0.71414 0.0
H283 H 0.76472 0.55246 0.69375 0.0
C284 C 0.83998 0.57203 0.67969 0.0
C285 C 0.83231 0.57115 0.63418 0.0
C286 C 0.8308 0.57604 0.71843 0.0
C287 C 0.81395 0.5793 0.71206 0.0
C288 C 0.80758 0.58017 0.6662 0.0
H289 H 0.72106 0.57533 0.90816 0.0
H290 H 0.74324 0.58323 0.83835 0.0
C291 C 0.81649 0.57592 0.62781 0.0
C292 C 0.80186 0.5801 0.75293 0.0
H293 H 0.7536 0.555 0.80217 0.0
C294 C 0.81159 0.59588 0.7865 0.0
C295 C 0.78064 0.56521 0.75875 0.0
C296 C 0.76945 0.54721 0.72543 0.0
C297 C 0.80065 0.59721 0.82544 0.0
C298 C 0.77948 0.58224 0.83133 0.0
C299 C 0.76973 0.56665 0.79742 0.0
C300 C 0.7676 0.58105 0.87448 0.0
C301 C 0.81185 0.61473 0.85981 0.0
C302 C 0.77402 0.57759 0.91812 0.0
C303 C 0.76141 0.57303 0.95766 0.0
C304 C 0.74199 0.5718 0.95473 0.0
C305 C 0.736 0.57639 0.91168 0.0
C306 C 0.74862 0.58078 0.87175 0.0
H307 H 0.82531 0.62819 0.84315 0.0
H308 H 0.80138 0.61988 0.87444 0.0
H309 H 0.81773 0.6094 0.88929 0.0
H310 H 0.78831 0.57726 0.92115 0.0
H311 H 0.76649 0.56956 0.99031 0.0
H312 H 0.28905 0.8311 0.85988 0.0
H313 H 0.2653 0.81532 0.92608 0.0
H314 H 0.2183 0.82122 0.85126 0.0
H315 H 0.24222 0.83702 0.78461 0.0
H316 H 0.24203 0.82766 0.9837 0.0
H317 H 0.19143 0.7583 0.87526 0.0
H318 H 0.21717 0.77735 0.85678 0.0
H319 H 0.19654 0.78305 0.8536 0.0
C320 C 0.27389 0.82967 0.85829 0.0
C321 C 0.26757 0.83563 0.81767 0.0
C322 C 0.26026 0.82051 0.89594 0.0
C323 C 0.23989 0.81678 0.89347 0.0
C324 C 0.23385 0.82369 0.85378 0.0
H325 H 0.14691 0.73255 0.10387 0.0
H326 H 0.16082 0.75694 0.03722 0.0
C327 C 0.24758 0.83298 0.81604 0.0
C328 C 0.22496 0.80451 0.93138 0.0
H329 H 0.18435 0.75624 0.9559 0.0
C330 C 0.22918 0.8122 0.97744 0.0
C331 C 0.20808 0.78432 0.92333 0.0
C332 C 0.20298 0.7751 0.8747 0.0
C333 C 0.21763 0.79999 0.01574 0.0
C334 C 0.20166 0.77934 0.00806 0.0
C335 C 0.19657 0.77205 0.96179 0.0
C336 C 0.19252 0.76437 0.04769 0.0
C337 C 0.22313 0.80911 0.06442 0.0
C338 C 0.20553 0.76005 0.07478 0.0
C339 C 0.19773 0.74626 0.11226 0.0
C340 C 0.17654 0.73613 0.12399 0.0
C341 C 0.16329 0.74007 0.09612 0.0
C342 C 0.17122 0.75402 0.05808 0.0
H343 H 0.23035 0.82622 0.06349 0.0
H344 H 0.20929 0.80265 0.08746 0.0
H345 H 0.23449 0.8054 0.08016 0.0
H346 H 0.22189 0.76738 0.06682 0.0
H347 H 0.20856 0.74361 0.13216 0.0
H348 H 0.42059 0.14445 0.25357 0.0
H349 H 0.41164 0.15824 0.18446 0.0
H350 H 0.43684 0.21759 0.25257 0.0
H351 H 0.44517 0.20399 0.32125 0.0
H352 H 0.40226 0.20876 0.2035 0.0
H353 H 0.45609 0.19576 0.09246 0.0
H354 H 0.43507 0.17317 0.11892 0.0
H355 H 0.45499 0.19257 0.15531 0.0
C356 C 0.42388 0.16032 0.25402 0.0
C357 C 0.43393 0.17315 0.29278 0.0
C358 C 0.41891 0.16825 0.21434 0.0
C359 C 0.42396 0.18914 0.21278 0.0
C360 C 0.43284 0.20149 0.25258 0.0
H361 H 0.46966 0.28136 0.00692 0.0
H362 H 0.46045 0.25749 0.07276 0.0
C363 C 0.43775 0.19365 0.2919 0.0
C364 C 0.42168 0.19903 0.16927 0.0
H365 H 0.4423 0.21491 0.05971 0.0
C366 C 0.41071 0.20981 0.17169 0.0
C367 C 0.43284 0.20057 0.12781 0.0
C368 C 0.44555 0.19006 0.12326 0.0
C369 C 0.41143 0.22281 0.13492 0.0
C370 C 0.42324 0.22493 0.09435 0.0
C371 C 0.43326 0.21329 0.09087 0.0
C372 C 0.42767 0.24089 0.05763 0.0
C373 C 0.40061 0.23514 0.14087 0.0
C374 C 0.4122 0.24011 0.02795 0.0
C375 C 0.41747 0.25411 0.99026 0.0
C376 C 0.43829 0.26888 0.98164 0.0
C377 C 0.45348 0.27018 0.0128 0.0
C378 C 0.44825 0.25644 0.0503 0.0
H379 H 0.39451 0.23392 0.17701 0.0
H380 H 0.41133 0.2517 0.13274 0.0
H381 H 0.38746 0.22935 0.11594 0.0
H382 H 0.39623 0.22811 0.03253 0.0
H383 H 0.40551 0.25253 0.96627 0.0
H384 H 0.15843 0.52086 0.01308 0.0
H385 H 0.15164 0.54759 0.04225 0.0
H386 H 0.10893 0.50486 0.14415 0.0
H387 H 0.1153 0.47764 0.11416 0.0
H388 H 0.09664 0.53275 0.10444 0.0
H389 H 0.17742 0.5736 0.16947 0.0
H390 H 0.17558 0.56805 0.1078 0.0
H391 H 0.16479 0.54713 0.14949 0.0
C392 C 0.14737 0.51701 0.0413 0.0
C393 C 0.13767 0.49724 0.06191 0.0
C394 C 0.14351 0.53232 0.05791 0.0
C395 C 0.13016 0.52835 0.09605 0.0
C396 C 0.11939 0.50826 0.11484 0.0
H397 H 0.14903 0.63227 0.26579 0.0
H398 H 0.14168 0.59803 0.24049 0.0
C399 C 0.12305 0.49275 0.09773 0.0
C400 C 0.12913 0.54573 0.11852 0.0
H401 H 0.15983 0.59265 0.1697 0.0
C402 C 0.11036 0.5458 0.11916 0.0
C403 C 0.14697 0.56255 0.13846 0.0
C404 C 0.16728 0.56279 0.14178 0.0
C405 C 0.10917 0.56263 0.13799 0.0
C406 C 0.12731 0.57993 0.15573 0.0
C407 C 0.1459 0.5795 0.15597 0.0
C408 C 0.12784 0.59883 0.17429 0.0
C409 C 0.08848 0.56158 0.13917 0.0
C410 C 0.12183 0.61048 0.14635 0.0
C411 C 0.12564 0.62998 0.16137 0.0
C412 C 0.13601 0.6383 0.20393 0.0
C413 C 0.14118 0.62627 0.23263 0.0
C414 C 0.13697 0.6067 0.21818 0.0
H415 H 0.07554 0.54531 0.13873 0.0
H416 H 0.08694 0.56939 0.1708 0.0
H417 H 0.08695 0.56942 0.10759 0.0
H418 H 0.11522 0.60504 0.11189 0.0
H419 H 0.12166 0.63904 0.13846 0.0
H420 H 0.63389 0.10915 0.26112 0.0
H421 H 0.59846 0.09942 0.28429 0.0
H422 H 0.608 0.15778 0.23221 0.0
H423 H 0.64302 0.16758 0.20903 0.0
H424 H 0.58644 0.12071 0.34742 0.0
H425 H 0.55282 0.11577 0.17185 0.0
H426 H 0.57635 0.1149 0.18049 0.0
H427 H 0.57701 0.13934 0.17912 0.0
C428 C 0.62838 0.11984 0.25435 0.0
C429 C 0.64138 0.13917 0.2332 0.0
C430 C 0.60813 0.11424 0.26754 0.0
C431 C 0.60047 0.12771 0.2591 0.0
C432 C 0.6134 0.14693 0.23804 0.0
H433 H 0.5247 0.16481 0.38408 0.0
H434 H 0.55002 0.15552 0.3588 0.0
C435 C 0.63356 0.15258 0.22519 0.0
C436 C 0.57953 0.12269 0.27484 0.0
H437 H 0.5365 0.12331 0.2366 0.0
C438 C 0.57527 0.12076 0.32313 0.0
C439 C 0.56477 0.12236 0.24313 0.0
C440 C 0.56786 0.12298 0.19071 0.0
C441 C 0.55749 0.12032 0.34074 0.0
C442 C 0.54381 0.12211 0.30926 0.0
C443 C 0.54714 0.12221 0.26078 0.0
C444 C 0.52775 0.12673 0.32607 0.0
C445 C 0.55393 0.11876 0.39306 0.0
C446 C 0.50674 0.11384 0.31512 0.0
C447 C 0.49202 0.11915 0.32953 0.0
C448 C 0.49818 0.13764 0.35444 0.0
C449 C 0.51929 0.15047 0.36497 0.0
C450 C 0.53385 0.14509 0.35092 0.0
H451 H 0.56127 0.11069 0.41028 0.0
H452 H 0.561 0.13457 0.40811 0.0
H453 H 0.53717 0.11041 0.40151 0.0
H454 H 0.50176 0.0997 0.29545 0.0
H455 H 0.47592 0.10893 0.32075 0.0
H456 H 0.36636 0.52524 0.56384 0.0
H457 H 0.40087 0.55023 0.53686 0.0
H458 H 0.40536 0.50192 0.46446 0.0
H459 H 0.37037 0.47649 0.4912 0.0
H460 H 0.43985 0.55202 0.54757 0.0
H461 H 0.41451 0.54506 0.36104 0.0
H462 H 0.39617 0.53498 0.40873 0.0
H463 H 0.40973 0.5219 0.39126 0.0
C464 C 0.3746 0.51977 0.54233 0.0
C465 C 0.36541 0.49883 0.52921 0.0
C466 C 0.39445 0.53413 0.52717 0.0
C467 C 0.40561 0.52799 0.49835 0.0
C468 C 0.39689 0.507 0.48633 0.0
H469 H 0.52875 0.63312 0.41705 0.0
H470 H 0.50346 0.59778 0.44193 0.0
C471 C 0.37694 0.4925 0.50175 0.0
C472 C 0.42577 0.54412 0.47917 0.0
H473 H 0.44721 0.57266 0.38009 0.0
C474 C 0.44174 0.55629 0.51075 0.0
C475 C 0.42807 0.54966 0.43115 0.0
C476 C 0.41124 0.53736 0.39588 0.0
C477 C 0.45942 0.57456 0.4961 0.0
C478 C 0.46116 0.5807 0.44859 0.0
C479 C 0.44581 0.56784 0.41648 0.0
C480 C 0.47689 0.60176 0.43305 0.0
C481 C 0.47538 0.58794 0.53205 0.0
C482 C 0.47031 0.61558 0.41949 0.0
C483 C 0.48459 0.63563 0.40537 0.0
C484 C 0.50589 0.64241 0.40426 0.0
C485 C 0.5125 0.62848 0.41771 0.0
C486 C 0.49809 0.60829 0.43199 0.0
H487 H 0.47067 0.58195 0.56834 0.0
H488 H 0.49024 0.58859 0.52412 0.0
H489 H 0.47812 0.60399 0.53052 0.0
H490 H 0.45404 0.61088 0.42021 0.0
H491 H 0.47881 0.64579 0.39528 0.0
H492 H 0.89545 0.52702 0.59218 0.0
H493 H 0.90537 0.50142 0.61519 0.0
H494 H 0.84571 0.45215 0.57084 0.0
H495 H 0.8357 0.47722 0.54788 0.0
H496 H 0.88499 0.46866 0.68152 0.0
H497 H 0.88622 0.43801 0.50571 0.0
H498 H 0.88765 0.46269 0.51417 0.0
H499 H 0.86304 0.43909 0.51531 0.0
C500 C 0.8845 0.51074 0.58709 0.0
C501 C 0.86476 0.50425 0.56813 0.0
C502 C 0.89021 0.49615 0.6002 0.0
C503 C 0.87642 0.47491 0.59384 0.0
C504 C 0.85678 0.46847 0.57504 0.0
H505 H 0.83972 0.36254 0.7204 0.0
H506 H 0.84952 0.39745 0.69596 0.0
C507 C 0.85103 0.4829 0.56229 0.0
C508 C 0.88162 0.45907 0.60921 0.0
H509 H 0.87969 0.41476 0.57123 0.0
C510 C 0.88437 0.45715 0.6573 0.0
C511 C 0.88117 0.44424 0.57756 0.0
C512 C 0.87958 0.44621 0.52524 0.0
C513 C 0.88486 0.43982 0.67492 0.0
C514 C 0.88229 0.42396 0.6437 0.0
C515 C 0.88139 0.42679 0.59524 0.0
C516 C 0.87763 0.40331 0.66089 0.0
C517 C 0.88728 0.43823 0.72706 0.0
C518 C 0.89002 0.39478 0.64862 0.0
C519 C 0.88443 0.37461 0.66262 0.0
C520 C 0.86612 0.36254 0.68831 0.0
C521 C 0.85387 0.37127 0.70051 0.0
C522 C 0.85955 0.39137 0.68697 0.0
H523 H 0.89578 0.45379 0.74354 0.0
H524 H 0.87174 0.42975 0.74351 0.0
H525 H 0.8956 0.42972 0.73475 0.0
H526 H 0.90392 0.40368 0.62801 0.0
H527 H 0.89419 0.36836 0.65254 0.0
H528 H 0.35883 0.83605 0.73243 0.0
H529 H 0.39423 0.84632 0.75279 0.0
H530 H 0.40784 0.90896 0.77584 0.0
H531 H 0.37197 0.89879 0.75541 0.0
H532 H 0.4313 0.87865 0.7065 0.0
H533 H 0.42756 0.8918 0.89819 0.0
H534 H 0.40438 0.87639 0.86424 0.0
H535 H 0.41873 0.90391 0.85663 0.0
C536 C 0.36919 0.85204 0.74191 0.0
C537 C 0.36242 0.86657 0.74228 0.0
C538 C 0.38951 0.85788 0.75346 0.0
C539 C 0.40363 0.87835 0.7659 0.0
C540 C 0.39709 0.89302 0.76665 0.0
H541 H 0.52687 0.89955 0.85671 0.0
H542 H 0.50174 0.90978 0.83099 0.0
C543 C 0.37661 0.88718 0.75492 0.0
C544 C 0.42511 0.88379 0.77756 0.0
H545 H 0.45608 0.88951 0.87126 0.0
C546 C 0.43701 0.88161 0.74231 0.0
C547 C 0.43253 0.88771 0.82427 0.0
C548 C 0.42022 0.89006 0.86329 0.0
C549 C 0.45541 0.88176 0.75311 0.0
C550 C 0.46196 0.884 0.80031 0.0
C551 C 0.45098 0.88784 0.83507 0.0
C552 C 0.47766 0.87857 0.81498 0.0
C553 C 0.46708 0.87824 0.71441 0.0
C554 C 0.47232 0.85773 0.81459 0.0
C555 C 0.4864 0.85186 0.82946 0.0
C556 C 0.50627 0.86673 0.84493 0.0
C557 C 0.51173 0.88774 0.84481 0.0
C558 C 0.49742 0.8936 0.8303 0.0
H559 H 0.46325 0.88197 0.67939 0.0
H560 H 0.48404 0.88776 0.72013 0.0
H561 H 0.46288 0.86172 0.71437 0.0
H562 H 0.45708 0.84591 0.80313 0.0
H563 H 0.48166 0.83557 0.82879 0.0
H564 H 0.47861 0.37242 0.90168 0.0
H565 H 0.50526 0.40818 0.92088 0.0
H566 H 0.55198 0.39043 0.9162 0.0
H567 H 0.52595 0.3552 0.89706 0.0
H568 H 0.53506 0.42337 0.99796 0.0
H569 H 0.57365 0.43986 0.82491 0.0
H570 H 0.54752 0.41891 0.83403 0.0
H571 H 0.56921 0.41575 0.84891 0.0
C572 C 0.49457 0.37617 0.9048 0.0
C573 C 0.50011 0.36092 0.89725 0.0
C574 C 0.50975 0.39659 0.9157 0.0
C575 C 0.53064 0.40201 0.9189 0.0
C576 C 0.53603 0.3867 0.91272 0.0
H577 H 0.64879 0.47873 0.00943 0.0
H578 H 0.61451 0.45367 0.98112 0.0
C579 C 0.52103 0.36648 0.90189 0.0
C580 C 0.54719 0.42345 0.92937 0.0
H581 H 0.59494 0.45996 0.89039 0.0
C582 C 0.54789 0.43176 0.97401 0.0
C583 C 0.56386 0.43442 0.89791 0.0
C584 C 0.56346 0.42688 0.84857 0.0
C585 C 0.56567 0.44982 0.98937 0.0
C586 C 0.58299 0.45969 0.95927 0.0
C587 C 0.58164 0.45228 0.91346 0.0
C588 C 0.60357 0.47549 0.97684 0.0
C589 C 0.5665 0.45745 0.03876 0.0
C590 C 0.6088 0.49617 0.98356 0.0
C591 C 0.62859 0.51074 0.99972 0.0
C592 C 0.64337 0.50477 0.00949 0.0
C593 C 0.6379 0.48398 1.00247 0.0
C594 C 0.61827 0.46956 0.98622 0.0
H595 H 0.5516 0.44823 0.05764 0.0
H596 H 0.57889 0.45671 0.0587 0.0
H597 H 0.5704 0.47388 0.03796 0.0
H598 H 0.59762 0.50102 0.9762 0.0
H599 H 0.63225 0.5266 0.00482 0.0
H600 H 0.25085 0.40043 0.64342 0.0
H601 H 0.22663 0.39777 0.70477 0.0
H602 H 0.25703 0.46434 0.71223 0.0
H603 H 0.28101 0.46712 0.65065 0.0
H604 H 0.23791 0.4131 0.79519 0.0
H605 H 0.19625 0.44785 0.70773 0.0
H606 H 0.21133 0.43916 0.67555 0.0
H607 H 0.22383 0.46393 0.70438 0.0
C608 C 0.2521 0.41448 0.65753 0.0
C609 C 0.26781 0.43399 0.64231 0.0
C610 C 0.23831 0.41293 0.69262 0.0
C611 C 0.23993 0.43085 0.71267 0.0
C612 C 0.25525 0.45032 0.69657 0.0
H613 H 0.19071 0.46566 0.94405 0.0
H614 H 0.21139 0.46338 0.88033 0.0
C615 C 0.26901 0.45188 0.66152 0.0
C616 C 0.2267 0.42934 0.75284 0.0
H617 H 0.19358 0.44511 0.79145 0.0
C618 C 0.22799 0.41985 0.79427 0.0
C619 C 0.21383 0.43819 0.75143 0.0
C620 C 0.21104 0.44768 0.70723 0.0
C621 C 0.21733 0.41967 0.83499 0.0
C622 C 0.20494 0.42904 0.83389 0.0
C623 C 0.20327 0.4381 0.79217 0.0
C624 C 0.19378 0.42999 0.87576 0.0
C625 C 0.21991 0.4101 0.87927 0.0
C626 C 0.17731 0.41191 0.8948 0.0
C627 C 0.16547 0.41315 0.93131 0.0
C628 C 0.16989 0.43252 0.94901 0.0
C629 C 0.18692 0.45053 0.9311 0.0
C630 C 0.19871 0.44927 0.89464 0.0
H631 H 0.23316 0.40731 0.87689 0.0
H632 H 0.22225 0.42018 0.91003 0.0
H633 H 0.20566 0.39503 0.88552 0.0
H634 H 0.17313 0.39691 0.88025 0.0
H635 H 0.15239 0.39903 0.94432 0.0
H636 H 0.75139 0.15019 0.10626 0.0
H637 H 0.77458 0.17079 0.04244 0.0
H638 H 0.74669 0.20929 0.04069 0.0
H639 H 0.72342 0.18877 0.1042 0.0
H640 H 0.74802 0.19152 0.9517 0.0
H641 H 0.82435 0.23106 0.04204 0.0
H642 H 0.80892 0.20353 0.05023 0.0
H643 H 0.80016 0.22013 0.07363 0.0
C644 C 0.75045 0.16326 0.0928 0.0
C645 C 0.73557 0.16785 0.11006 0.0
C646 C 0.76372 0.17501 0.05646 0.0
C647 C 0.76234 0.19155 0.0371 0.0
C648 C 0.74795 0.19656 0.05528 0.0
H649 H 0.81465 0.27969 0.81421 0.0
H650 H 0.79282 0.25538 0.87469 0.0
C651 C 0.73472 0.18486 0.0916 0.0
C652 C 0.77492 0.20287 0.99591 0.0
H653 H 0.82425 0.23633 0.9604 0.0
C654 C 0.7647 0.2013 0.95348 0.0
C655 C 0.79665 0.21538 0.99844 0.0
C656 C 0.80825 0.21783 0.04354 0.0
C657 C 0.77565 0.21211 0.91338 0.0
C658 C 0.79733 0.22513 0.91622 0.0
C659 C 0.80761 0.22631 0.95839 0.0
C660 C 0.80952 0.23861 0.8768 0.0
C661 C 0.76392 0.20941 0.86835 0.0
C662 C 0.82622 0.23732 0.85814 0.0
C663 C 0.83883 0.25131 0.82375 0.0
C664 C 0.83498 0.26689 0.80781 0.0
C665 C 0.81793 0.26779 0.82567 0.0
C666 C 0.80537 0.25384 0.86006 0.0
H667 H 0.74905 0.19451 0.8679 0.0
H668 H 0.76031 0.22208 0.86515 0.0
H669 H 0.77319 0.20999 0.8373 0.0
H670 H 0.8297 0.22572 0.87081 0.0
H671 H 0.8519 0.25028 0.81065 0.0
H672 H 0.60289 0.7524 0.27068 0.0
H673 H 0.60469 0.77608 0.20887 0.0
H674 H 0.53818 0.74723 0.21001 0.0
H675 H 0.53626 0.72381 0.27214 0.0
H676 H 0.58714 0.7641 0.1207 0.0
H677 H 0.55632 0.80844 0.21239 0.0
H678 H 0.56511 0.79318 0.24342 0.0
H679 H 0.53976 0.78096 0.21743 0.0
C680 C 0.58869 0.75137 0.25833 0.0
C681 C 0.56943 0.73627 0.27617 0.0
C682 C 0.58974 0.76485 0.22298 0.0
C683 C 0.57159 0.76352 0.20523 0.0
C684 C 0.5524 0.74879 0.22387 0.0
H685 H 0.53566 0.81396 0.977 0.0
H686 H 0.53769 0.79278 0.03998 0.0
C687 C 0.55133 0.73535 0.25921 0.0
C688 C 0.57251 0.77645 0.16496 0.0
H689 H 0.55758 0.81053 0.1286 0.0
C690 C 0.5809 0.77444 0.12249 0.0
C691 C 0.56432 0.78987 0.16751 0.0
C692 C 0.55605 0.79343 0.21277 0.0
C693 C 0.58071 0.78504 0.08199 0.0
C694 C 0.57207 0.79806 0.08434 0.0
C695 C 0.56402 0.80036 0.12696 0.0
C696 C 0.57112 0.80948 0.04298 0.0
C697 C 0.58918 0.78181 0.0367 0.0
C698 C 0.58928 0.82561 0.02342 0.0
C699 C 0.58818 0.83774 0.98744 0.0
C700 C 0.56888 0.83394 0.97073 0.0
C701 C 0.55074 0.81725 0.98917 0.0
C702 C 0.55187 0.80518 0.02519 0.0
H703 H 0.59143 0.7682 0.0385 0.0
H704 H 0.57867 0.77967 0.00697 0.0
H705 H 0.60438 0.79571 0.02922 0.0
H706 H 0.60427 0.82929 0.03714 0.0
H707 H 0.60241 0.85054 0.97396 0.0
H708 H 0.84975 0.60211 0.44685 0.0
H709 H 0.82745 0.60446 0.38701 0.0
H710 H 0.79231 0.53785 0.37844 0.0
H711 H 0.81415 0.53538 0.43876 0.0
H712 H 0.82318 0.59028 0.29695 0.0
H713 H 0.74695 0.55229 0.3855 0.0
H714 H 0.77087 0.56102 0.41706 0.0
H715 H 0.75895 0.53665 0.38646 0.0
C716 C 0.83702 0.58798 0.4328 0.0
C717 C 0.83367 0.56856 0.44741 0.0
C718 C 0.82434 0.58935 0.3986 0.0
C719 C 0.8081 0.57134 0.37871 0.0
C720 C 0.80445 0.55194 0.39409 0.0
H721 H 0.72371 0.53622 0.14765 0.0
H722 H 0.74665 0.53862 0.21161 0.0
C723 C 0.81703 0.55056 0.42839 0.0
C724 C 0.79594 0.57271 0.33931 0.0
H725 H 0.7466 0.55549 0.30181 0.0
C726 C 0.80645 0.58292 0.29816 0.0
C727 C 0.77414 0.56307 0.34107 0.0
C728 C 0.76209 0.55283 0.38508 0.0
C729 C 0.79565 0.58307 0.25801 0.0
C730 C 0.77383 0.5729 0.2594 0.0
C731 C 0.76335 0.56311 0.30086 0.0
C732 C 0.76144 0.5719 0.21806 0.0
C733 C 0.80757 0.5935 0.214 0.0
C734 C 0.76244 0.58988 0.20021 0.0
C735 C 0.74939 0.58857 0.1636 0.0
C736 C 0.73507 0.56923 0.1446 0.0
C737 C 0.73457 0.55133 0.16162 0.0
C738 C 0.74761 0.55266 0.19819 0.0
H739 H 0.8238 0.5968 0.21572 0.0
H740 H 0.8 0.58375 0.18268 0.0
H741 H 0.80786 0.6084 0.20925 0.0
H742 H 0.77283 0.60484 0.21558 0.0
H743 H 0.75005 0.60262 0.15128 0.0
H744 H 0.18879 0.72174 0.32553 0.0
H745 H 0.20992 0.7456 0.38756 0.0
H746 H 0.17574 0.77789 0.37547 0.0
H747 H 0.15425 0.75383 0.31379 0.0
H748 H 0.23482 0.78871 0.38954 0.0
H749 H 0.16893 0.76102 0.51436 0.0
H750 H 0.16753 0.74728 0.46111 0.0
H751 H 0.16521 0.77008 0.45878 0.0
C752 C 0.18588 0.73403 0.33577 0.0
C753 C 0.16974 0.73581 0.31522 0.0
C754 C 0.19795 0.74763 0.3712 0.0
C755 C 0.19408 0.7632 0.3867 0.0
C756 C 0.17864 0.76566 0.36468 0.0
H757 H 0.25205 0.85317 0.61236 0.0
H758 H 0.22965 0.83226 0.54775 0.0
C759 C 0.1665 0.75201 0.32926 0.0
C760 C 0.20594 0.77645 0.42671 0.0
H761 H 0.2012 0.78822 0.54024 0.0
C762 C 0.22748 0.78865 0.42246 0.0
C763 C 0.19627 0.7763 0.46956 0.0
C764 C 0.17324 0.76286 0.4766 0.0
C765 C 0.23967 0.80072 0.46003 0.0
C766 C 0.23004 0.80028 0.50309 0.0
C767 C 0.20847 0.78842 0.50712 0.0
C768 C 0.24225 0.81176 0.54458 0.0
C769 C 0.26274 0.81392 0.45329 0.0
C770 C 0.25613 0.8066 0.56513 0.0
C771 C 0.26886 0.81842 0.602 0.0
C772 C 0.26786 0.83557 0.61896 0.0
C773 C 0.2532 0.84007 0.59989 0.0
C774 C 0.24044 0.8282 0.56299 0.0
H775 H 0.26702 0.81648 0.41553 0.0
H776 H 0.26876 0.82919 0.47067 0.0
H777 H 0.27048 0.80603 0.46936 0.0
H778 H 0.25742 0.79368 0.55194 0.0
H779 H 0.27992 0.8145 0.6162 0.0
H780 H 0.39931 0.24818 0.78105 0.0
H781 H 0.39618 0.22294 0.72185 0.0
H782 H 0.46248 0.24975 0.72125 0.0
H783 H 0.46571 0.27474 0.78065 0.0
H784 H 0.41342 0.2333 0.63292 0.0
H785 H 0.44237 0.18813 0.7279 0.0
H786 H 0.4344 0.20432 0.75779 0.0
H787 H 0.45969 0.21552 0.7317 0.0
C788 C 0.41317 0.2484 0.76897 0.0
C789 C 0.43276 0.26342 0.78539 0.0
C790 C 0.41135 0.23403 0.73511 0.0
C791 C 0.42907 0.23437 0.71757 0.0
C792 C 0.44858 0.24895 0.73502 0.0
H793 H 0.46571 0.18446 0.49174 0.0
H794 H 0.46272 0.20439 0.55627 0.0
C795 C 0.45041 0.2633 0.76879 0.0
C796 C 0.42748 0.22071 0.67825 0.0
H797 H 0.44168 0.18582 0.64387 0.0
C798 C 0.41929 0.22267 0.63543 0.0
C799 C 0.43521 0.20692 0.68172 0.0
C800 C 0.44322 0.20342 0.7274 0.0
C801 C 0.41942 0.21181 0.59536 0.0
C802 C 0.42777 0.19855 0.59853 0.0
C803 C 0.43543 0.19616 0.64162 0.0
C804 C 0.42927 0.18741 0.55727 0.0
C805 C 0.41137 0.21515 0.54955 0.0
C806 C 0.41141 0.17146 0.53625 0.0
C807 C 0.41306 0.16003 0.49935 0.0
C808 C 0.43261 0.16438 0.48314 0.0
C809 C 0.45044 0.18076 0.50347 0.0
C810 C 0.44877 0.19211 0.54038 0.0
H811 H 0.40897 0.22867 0.55105 0.0
H812 H 0.42225 0.21752 0.52048 0.0
H813 H 0.39634 0.2012 0.54122 0.0
H814 H 0.39623 0.16748 0.54923 0.0
H815 H 0.39906 0.14745 0.48442 0.0
H816 H 0.08997 0.43414 0.91696 0.0
H817 H 0.05687 0.41749 0.87661 0.0
H818 H 0.02954 0.3744 0.99114 0.0
H819 H 0.06314 0.39104 0.03213 0.0
H820 H 0.01954 0.3557 0.89983 0.0
H821 H 0.00612 0.42217 0.90963 0.0
H822 H 0.03097 0.42889 0.88594 0.0
H823 H 0.02495 0.42032 0.94586 0.0
C824 C 0.07695 0.42122 0.93401 0.0
C825 C 0.07923 0.414 0.97805 0.0
C826 C 0.05796 0.41174 0.91079 0.0
C827 C 0.04062 0.39486 0.93098 0.0
C828 C 0.04272 0.3875 0.97498 0.0
H829 H 0.91522 0.34794 0.83767 0.0
H830 H 0.94817 0.3633 0.87833 0.0
C831 C 0.06186 0.39707 0.99849 0.0
C832 C 0.02056 0.38494 0.90527 0.0
H833 H 0.98507 0.39539 0.85595 0.0
C834 C 0.01189 0.3643 0.89049 0.0
C835 C 0.01055 0.39615 0.89317 0.0
C836 C 0.01849 0.41804 0.90982 0.0
C837 C 0.99365 0.35467 0.86343 0.0
C838 C 0.984 0.3661 0.85011 0.0
C839 C 0.99259 0.38667 0.86546 0.0
C840 C 0.9641 0.35669 0.8236 0.0
C841 C 0.98464 0.33222 0.85021 0.0
C842 C 0.96199 0.34807 0.77853 0.0
C843 C 0.94289 0.33909 0.75485 0.0
C844 C 0.92566 0.33872 0.77581 0.0
C845 C 0.92809 0.34786 0.82033 0.0
C846 C 0.94699 0.3567 0.84381 0.0
H847 H 0.99106 0.32443 0.87208 0.0
H848 H 0.96755 0.32372 0.85398 0.0
H849 H 0.98839 0.33118 0.81298 0.0
H850 H 0.97509 0.34828 0.76168 0.0
H851 H 0.94154 0.3322 0.72064 0.0
H852 H 0.61015 0.94181 0.88926 0.0
H853 H 0.6268 0.97498 0.93185 0.0
H854 H 0.58578 0.9458 0.04906 0.0
H855 H 0.56897 0.91317 0.0069 0.0
H856 H 0.5888 0.98216 0.02891 0.0
H857 H 0.66733 0.99177 0.04096 0.0
H858 H 0.65759 0.98906 0.98216 0.0
H859 H 0.64504 0.96784 0.02264 0.0
C860 C 0.60466 0.94256 0.92399 0.0
C861 C 0.58825 0.9248 0.9446 0.0
C862 C 0.61431 0.96146 0.94852 0.0
C863 C 0.60779 0.96284 0.99412 0.0
C864 C 0.59119 0.94518 0.01412 0.0
H865 H 0.67228 0.06309 0.20051 0.0
H866 H 0.65553 0.0292 0.16073 0.0
C867 C 0.58157 0.92646 0.98979 0.0
C868 C 0.6177 0.98259 0.02127 0.0
H869 H 0.66339 0.01949 0.0695 0.0
C870 C 0.60512 0.99029 0.03775 0.0
C871 C 0.63891 0.99303 0.03374 0.0
C872 C 0.65301 0.98495 0.0194 0.0
C873 C 0.61315 0.00819 0.06563 0.0
C874 C 0.63449 0.01904 0.07671 0.0
C875 C 0.64705 0.01121 0.06094 0.0
C876 C 0.64416 0.03917 0.10218 0.0
C877 C 0.59858 0.01515 0.08348 0.0
C878 C 0.64336 0.05597 0.0826 0.0
C879 C 0.65273 0.07512 0.10518 0.0
C880 C 0.66335 0.0781 0.1479 0.0
C881 C 0.66406 0.06125 0.16791 0.0
C882 C 0.65463 0.04194 0.14506 0.0
H883 H 0.58235 0.00215 0.08447 0.0
H884 H 0.60301 0.02189 0.11923 0.0
H885 H 0.59916 0.02716 0.05957 0.0
H886 H 0.63575 0.05439 0.04922 0.0
H887 H 0.65193 0.08774 0.08851 0.0
H888 H 0.6722 0.6109 0.05412 0.0
H889 H 0.65576 0.62794 0.09532 0.0
H890 H 0.63554 0.58195 0.2048 0.0
H891 H 0.65129 0.56479 0.16382 0.0
H892 H 0.60534 0.58936 0.18069 0.0
H893 H 0.6777 0.66373 0.21254 0.0
H894 H 0.67249 0.65646 0.15181 0.0
H895 H 0.67773 0.64093 0.19154 0.0
C896 C 0.66404 0.60435 0.08669 0.0
C897 C 0.66315 0.58653 0.10569 0.0
C898 C 0.65486 0.61422 0.11052 0.0
C899 C 0.64475 0.60648 0.15377 0.0
C900 C 0.64334 0.58834 0.17175 0.0
H901 H 0.60977 0.66985 0.36444 0.0
H902 H 0.62612 0.65261 0.3235 0.0
C903 C 0.6524 0.57852 0.14812 0.0
C904 C 0.63537 0.61686 0.18074 0.0
H905 H 0.64639 0.66182 0.23663 0.0
C906 C 0.61435 0.60521 0.19286 0.0
C907 C 0.64718 0.63741 0.1976 0.0
C908 C 0.67007 0.65035 0.18817 0.0
C909 C 0.60478 0.61354 0.22074 0.0
C910 C 0.61638 0.63432 0.23618 0.0
C911 C 0.63747 0.64592 0.22469 0.0
C912 C 0.60653 0.64451 0.26201 0.0
C913 C 0.58236 0.59982 0.23399 0.0
C914 C 0.59024 0.6458 0.24106 0.0
C915 C 0.58087 0.65539 0.26434 0.0
C916 C 0.58766 0.66423 0.3091 0.0
C917 C 0.60406 0.66305 0.33022 0.0
C918 C 0.61347 0.65331 0.30675 0.0
H919 H 0.57777 0.58319 0.23262 0.0
H920 H 0.57919 0.60342 0.26981 0.0
H921 H 0.57249 0.60229 0.20873 0.0
H922 H 0.58491 0.6396 0.20622 0.0
H923 H 0.56841 0.65612 0.24666 0.0
H924 H 0.08717 0.6526 0.33617 0.0
H925 H 0.05348 0.63647 0.37365 0.0
H926 H 0.03003 0.65808 0.26215 0.0
H927 H 0.06433 0.67477 0.22403 0.0
H928 H 0.01969 0.66485 0.356 0.0
H929 H 1.0013 0.58383 0.33104 0.0
H930 H 0.02629 0.59997 0.35674 0.0
H931 H 0.02124 0.60508 0.29794 0.0
C932 C 0.07489 0.65387 0.31913 0.0
C933 C 0.07847 0.66494 0.27685 0.0
C934 C 0.05555 0.64453 0.34069 0.0
C935 C 0.03914 0.64583 0.32056 0.0
C936 C 0.04249 0.6568 0.2782 0.0
H937 H 0.91274 0.56935 0.41185 0.0
H938 H 0.94539 0.58696 0.37005 0.0
C939 C 0.06201 0.6662 0.2563 0.0
C940 C 0.01875 0.63589 0.34485 0.0
H941 H 0.98128 0.58943 0.38809 0.0
C942 C 0.01113 0.64833 0.36264 0.0
C943 C 0.00758 0.61433 0.35345 0.0
C944 C 0.01439 0.59998 0.33342 0.0
C945 C 0.99285 0.63983 0.38957 0.0
C946 C 0.98211 0.61835 0.39967 0.0
C947 C 0.98961 0.60592 0.38106 0.0
C948 C 0.96231 0.60806 0.42656 0.0
C949 C 0.98504 0.65386 0.40624 0.0
C950 C 0.96083 0.61378 0.47292 0.0
C951 C 0.94189 0.60368 0.49724 0.0
C952 C 0.9242 0.58756 0.4757 0.0
C953 C 0.92597 0.58167 0.42975 0.0
C954 C 0.94471 0.59177 0.40559 0.0
H955 H 0.99199 0.66855 0.38602 0.0
H956 H 0.96795 0.64612 0.40322 0.0
H957 H 0.98925 0.65776 0.44371 0.0
H958 H 0.9743 0.62599 0.49036 0.0
H959 H 0.94105 0.60858 0.53256 0.0
H960 H 0.44149 0.08033 0.47245 0.0
H961 H 0.42403 0.04722 0.51344 0.0
H962 H 0.36692 0.03218 0.44356 0.0
H963 H 0.38474 0.06518 0.40076 0.0
H964 H 0.39445 0.03546 0.57543 0.0
H965 H 0.3657 0.97831 0.43027 0.0
H966 H 0.38419 0.00529 0.42086 0.0
H967 H 0.3571 0.9968 0.42651 0.0
C968 C 0.42532 0.06973 0.46489 0.0
C969 C 0.4145 0.07526 0.43314 0.0
C970 C 0.4153 0.05084 0.48863 0.0
C971 C 0.39412 0.03706 0.48174 0.0
C972 C 0.38335 0.04227 0.4489 0.0
H973 H 0.32399 0.93897 0.69155 0.0
H974 H 0.33897 0.97143 0.64671 0.0
C975 C 0.39353 0.06114 0.42438 0.0
C976 C 0.38338 0.018 0.51128 0.0
H977 H 0.35416 0.96527 0.50687 0.0
C978 C 0.38566 0.0201 0.56036 0.0
C979 C 0.37196 0.99791 0.49183 0.0
C980 C 0.36972 0.99436 0.43949 0.0
C981 C 0.37725 0.00279 0.59032 0.0
C982 C 0.3656 0.98272 0.57093 0.0
C983 C 0.36299 0.98063 0.5219 0.0
C984 C 0.35699 0.96358 0.60022 0.0
C985 C 0.38166 0.00623 0.64225 0.0
C986 C 0.36191 0.94823 0.58906 0.0
C987 C 0.35314 0.92965 0.61408 0.0
C988 C 0.33933 0.92596 0.65126 0.0
C989 C 0.33482 0.94151 0.66356 0.0
C990 C 0.34341 0.96008 0.63792 0.0
H991 H 0.3953 0.02166 0.64961 0.0
H992 H 0.36812 0.00545 0.66027 0.0
H993 H 0.38451 0.9942 0.65756 0.0
H994 H 0.37239 0.9505 0.56041 0.0
H995 H 0.35693 0.91799 0.6037 0.0
H996 H 0.35037 0.43494 0.66909 0.0
H997 H 0.36661 0.41766 0.70745 0.0
H998 H 0.34805 0.37404 0.59331 0.0
H999 H 0.33128 0.39135 0.5543 0.0
H1000 H 0.34005 0.3557 0.68545 0.0
H1001 H 0.42074 0.42028 0.66988 0.0
H1002 H 0.40357 0.428 0.69478 0.0
H1003 H 0.39989 0.41893 0.63512 0.0
C1004 C 0.3498 0.42177 0.65167 0.0
C1005 C 0.33956 0.4146 0.60836 0.0
C1006 C 0.35921 0.41194 0.67374 0.0
C1007 C 0.35881 0.39471 0.65312 0.0
C1008 C 0.34864 0.3874 0.60978 0.0
H1009 H 0.43515 0.3448 0.74605 0.0
H1010 H 0.41802 0.3604 0.70427 0.0
C1011 C 0.33918 0.39735 0.58738 0.0
C1012 C 0.36875 0.38437 0.6779 0.0
H1013 H 0.41478 0.39375 0.72474 0.0
C1014 C 0.35642 0.36392 0.69372 0.0
C1015 C 0.39013 0.39508 0.68862 0.0
C1016 C 0.40441 0.41672 0.67086 0.0
C1017 C 0.36483 0.35407 0.72067 0.0
C1018 C 0.38609 0.36507 0.73278 0.0
C1019 C 0.39844 0.38538 0.71617 0.0
C1020 C 0.39626 0.35546 0.75975 0.0
C1021 C 0.35097 0.33186 0.73523 0.0
C1022 C 0.39002 0.3477 0.80558 0.0
C1023 C 0.39989 0.33862 0.82992 0.0
C1024 C 0.4162 0.33727 0.80887 0.0
C1025 C 0.42262 0.3455 0.76349 0.0
C1026 C 0.41281 0.35446 0.73936 0.0
H1027 H 0.33655 0.3242 0.71404 0.0
H1028 H 0.35908 0.32288 0.73165 0.0
H1029 H 0.34657 0.33137 0.7726 0.0
H1030 H 0.37757 0.34868 0.82254 0.0
H1031 H 0.39458 0.33245 0.86479 0.0
loop_
_geom_bond_atom_site_label_1
_geom_bond_atom_site_label_2
_geom_bond_distance
_geom_bond_site_symmetry_2
_ccdc_geom_bond_type
Co0 O1 2.216 1_554 S
Co0 O2 2.091 . S
Co0 O4 2.004 . S
Co0 O10 2.021 . S
Co0 O12 2.137 1_554 S
Co0 O13 2.244 1_554 S
O1 Co0 2.216 1_556 S
O1 C8 1.247 . S
O2 Co0 2.091 . S
O2 C8 1.261 1_554 S
C3 O12 1.247 . S
C3 O13 1.272 . S
O4 Co0 2.004 . S
O4 C9 1.259 . S
Co5 O6 2.061 . S
Co5 O11 2.052 . S
Co5 O13 2.135 1_554 S
O6 Co5 2.061 . S
O6 C9 1.235 . S
C7 O10 1.238 . S
C7 O11 1.241 . S
C8 O1 1.247 . S
C8 O2 1.261 1_556 S
C9 O4 1.259 . S
C9 O6 1.235 . S
O10 Co0 2.021 . S
O10 C7 1.238 . S
O11 Co5 2.052 . S
O11 C7 1.241 . S
O12 Co0 2.137 1_556 S
O12 C3 1.247 . S
O13 Co0 2.244 1_556 S
O13 C3 1.272 . S
O13 Co5 2.135 1_556 S
Co14 O15 2.216 . S
Co14 O16 2.091 . S
Co14 O18 2.004 . S
Co14 O24 2.021 . S
Co14 O26 2.137 . S
Co14 O27 2.244 . S
O15 Co14 2.216 . S
O15 C22 1.247 . S
O16 Co14 2.091 . S
O16 C22 1.261 . S
C17 O26 1.247 . S
C17 O27 1.272 . S
O18 Co14 2.004 . S
O18 C23 1.259 . S
Co19 O20 2.061 . S
Co19 O25 2.052 . S
Co19 O27 2.135 . S
O20 Co19 2.061 . S
O20 C23 1.235 . S
C21 O24 1.238 . S
C21 O25 1.241 . S
C22 O15 1.247 . S
C22 O16 1.261 . S
C23 O18 1.259 . S
C23 O20 1.235 . S
O24 Co14 2.021 . S
O24 C21 1.238 . S
O25 Co19 2.052 . S
O25 C21 1.241 . S
O26 Co14 2.137 . S
O26 C17 1.247 . S
O27 Co14 2.244 . S
O27 C17 1.272 . S
O27 Co19 2.135 . S
Co28 O29 2.216 . S
Co28 O30 2.091 . S
Co28 O32 2.004 . S
Co28 O38 2.021 . S
Co28 O40 2.137 . S
Co28 O41 2.244 . S
O29 Co28 2.216 . S
O29 C36 1.247 . S
O30 Co28 2.091 . S
O30 C36 1.261 . S
C31 O40 1.247 . S
C31 O41 1.272 . S
O32 Co28 2.004 . S
O32 C37 1.259 . S
Co33 O34 2.061 . S
Co33 O39 2.052 . S
Co33 O41 2.135 . S
O34 Co33 2.061 . S
O34 C37 1.235 . S
C35 O38 1.238 . S
C35 O39 1.241 . S
C36 O29 1.247 . S
C36 O30 1.261 . S
C37 O32 1.259 . S
C37 O34 1.235 . S
O38 Co28 2.021 . S
O38 C35 1.238 . S
O39 Co33 2.052 . S
O39 C35 1.241 . S
O40 Co28 2.137 . S
O40 C31 1.247 . S
O41 Co28 2.244 . S
O41 C31 1.272 . S
O41 Co33 2.135 . S
Co42 O43 2.216 . S
Co42 O44 2.091 . S
Co42 O46 2.004 . S
Co42 O52 2.021 . S
Co42 O54 2.137 . S
Co42 O55 2.244 . S
O43 Co42 2.216 . S
O43 C50 1.247 . S
O44 Co42 2.091 . S
O44 C50 1.261 . S
C45 O54 1.247 . S
C45 O55 1.272 . S
O46 Co42 2.004 . S
O46 C51 1.259 . S
Co47 O48 2.061 . S
Co47 O53 2.052 . S
Co47 O55 2.135 . S
O48 Co47 2.061 . S
O48 C51 1.235 . S
C49 O52 1.238 . S
C49 O53 1.241 . S
C50 O43 1.247 . S
C50 O44 1.261 . S
C51 O46 1.259 . S
C51 O48 1.235 . S
O52 Co42 2.021 . S
O52 C49 1.238 . S
O53 Co47 2.052 . S
O53 C49 1.241 . S
O54 Co42 2.137 . S
O54 C45 1.247 . S
O55 Co42 2.244 . S
O55 C45 1.272 . S
O55 Co47 2.135 . S
Co56 O57 2.216 . S
Co56 O58 2.091 . S
Co56 O60 2.004 . S
Co56 O66 2.021 . S
Co56 O68 2.137 . S
Co56 O69 2.244 . S
O57 Co56 2.216 . S
O57 C64 1.247 . S
O58 Co56 2.091 . S
O58 C64 1.261 . S
C59 O68 1.247 . S
C59 O69 1.272 . S
O60 Co56 2.004 . S
O60 C65 1.259 . S
Co61 O62 2.061 . S
Co61 O67 2.052 . S
Co61 O69 2.135 . S
O62 Co61 2.061 . S
O62 C65 1.235 . S
C63 O66 1.238 . S
C63 O67 1.241 . S
C64 O57 1.247 . S
C64 O58 1.261 . S
C65 O60 1.259 . S
C65 O62 1.235 . S
O66 Co56 2.021 . S
O66 C63 1.238 . S
O67 Co61 2.052 . S
O67 C63 1.241 . S
O68 Co56 2.137 . S
O68 C59 1.247 . S
O69 Co56 2.244 . S
O69 C59 1.272 . S
O69 Co61 2.135 . S
Co70 O71 2.216 . S
Co70 O72 2.091 . S
Co70 O74 2.004 . S
Co70 O80 2.021 . S
Co70 O82 2.137 . S
Co70 O83 2.244 . S
O71 Co70 2.216 . S
O71 C78 1.247 . S
O72 Co70 2.091 . S
O72 C78 1.261 . S
C73 O82 1.247 . S
C73 O83 1.272 . S
O74 Co70 2.004 . S
O74 C79 1.259 . S
Co75 O76 2.061 . S
Co75 O81 2.052 . S
Co75 O83 2.135 . S
O76 Co75 2.061 . S
O76 C79 1.235 . S
C77 O80 1.238 . S
C77 O81 1.241 . S
C78 O71 1.247 . S
C78 O72 1.261 . S
C79 O74 1.259 . S
C79 O76 1.235 . S
O80 Co70 2.021 . S
O80 C77 1.238 . S
O81 Co75 2.052 . S
O81 C77 1.241 . S
O82 Co70 2.137 . S
O82 C73 1.247 . S
O83 Co70 2.244 . S
O83 C73 1.272 . S
O83 Co75 2.135 . S
Co84 O85 2.216 . S
Co84 O86 2.091 . S
Co84 O88 2.004 . S
Co84 O94 2.021 . S
Co84 O96 2.137 . S
Co84 O97 2.244 . S
O85 Co84 2.216 . S
O85 C92 1.247 . S
O86 Co84 2.091 . S
O86 C92 1.261 . S
C87 O96 1.247 . S
C87 O97 1.272 . S
O88 Co84 2.004 . S
O88 C93 1.259 . S
Co89 O90 2.061 . S
Co89 O95 2.052 . S
Co89 O97 2.135 . S
O90 Co89 2.061 . S
O90 C93 1.235 . S
C91 O94 1.238 . S
C91 O95 1.241 . S
C92 O85 1.247 . S
C92 O86 1.261 . S
C93 O88 1.259 . S
C93 O90 1.235 . S
O94 Co84 2.021 . S
O94 C91 1.238 . S
O95 Co89 2.052 . S
O95 C91 1.241 . S
O96 Co84 2.137 . S
O96 C87 1.247 . S
O97 Co84 2.244 . S
O97 C87 1.272 . S
O97 Co89 2.135 . S
Co98 O99 2.216 . S
Co98 O100 2.091 . S
Co98 O102 2.004 1_554 S
Co98 O108 2.021 . S
Co98 O110 2.137 . S
Co98 O111 2.244 . S
O99 Co98 2.216 . S
O99 C106 1.247 . S
O100 Co98 2.091 . S
O100 C106 1.261 . S
C101 O110 1.247 . S
C101 O111 1.272 . S
O102 Co98 2.004 1_556 S
O102 C107 1.259 . S
Co103 O104 2.061 1_554 S
Co103 O109 2.052 . S
Co103 O111 2.135 . S
O104 Co103 2.061 1_556 S
O104 C107 1.235 . S
C105 O108 1.238 . S
C105 O109 1.241 . S
C106 O99 1.247 . S
C106 O100 1.261 . S
C107 O102 1.259 . S
C107 O104 1.235 . S
O108 Co98 2.021 . S
O108 C105 1.238 . S
O109 Co103 2.052 . S
O109 C105 1.241 . S
O110 Co98 2.137 . S
O110 C101 1.247 . S
O111 Co98 2.244 . S
O111 C101 1.272 . S
O111 Co103 2.135 . S
Co112 O113 2.216 . S
Co112 O114 2.091 . S
Co112 O116 2.004 . S
Co112 O122 2.021 . S
Co112 O124 2.137 . S
Co112 O125 2.244 . S
O113 Co112 2.216 . S
O113 C120 1.247 . S
O114 Co112 2.091 . S
O114 C120 1.261 . S
C115 O124 1.247 . S
C115 O125 1.272 . S
O116 Co112 2.004 . S
O116 C121 1.259 . S
Co117 O118 2.061 . S
Co117 O123 2.052 . S
Co117 O125 2.135 . S
O118 Co117 2.061 . S
O118 C121 1.235 . S
C119 O122 1.238 . S
C119 O123 1.241 . S
C120 O113 1.247 . S
C120 O114 1.261 . S
C121 O116 1.259 . S
C121 O118 1.235 . S
O122 Co112 2.021 . S
O122 C119 1.238 . S
O123 Co117 2.052 . S
O123 C119 1.241 . S
O124 Co112 2.137 . S
O124 C115 1.247 . S
O125 Co112 2.244 . S
O125 C115 1.272 . S
O125 Co117 2.135 . S
Co126 O127 2.216 . S
Co126 O128 2.091 . S
Co126 O130 2.004 . S
Co126 O136 2.021 . S
Co126 O138 2.137 . S
Co126 O139 2.244 . S
O127 Co126 2.216 . S
O127 C134 1.247 . S
O128 Co126 2.091 . S
O128 C134 1.261 . S
C129 O138 1.247 . S
C129 O139 1.272 . S
O130 Co126 2.004 . S
O130 C135 1.259 . S
Co131 O132 2.061 . S
Co131 O137 2.052 . S
Co131 O139 2.135 . S
O132 Co131 2.061 . S
O132 C135 1.235 . S
C133 O136 1.238 . S
C133 O137 1.241 . S
C134 O127 1.247 . S
C134 O128 1.261 . S
C135 O130 1.259 . S
C135 O132 1.235 . S
O136 Co126 2.021 . S
O136 C133 1.238 . S
O137 Co131 2.052 . S
O137 C133 1.241 . S
O138 Co126 2.137 . S
O138 C129 1.247 . S
O139 Co126 2.244 . S
O139 C129 1.272 . S
O139 Co131 2.135 . S
Co140 O141 2.216 . S
Co140 O142 2.091 . S
Co140 O144 2.004 . S
Co140 O150 2.021 . S
Co140 O152 2.137 . S
Co140 O153 2.244 . S
O141 Co140 2.216 . S
O141 C148 1.247 . S
O142 Co140 2.091 . S
O142 C148 1.261 . S
C143 O152 1.247 . S
C143 O153 1.272 . S
O144 Co140 2.004 . S
O144 C149 1.259 . S
Co145 O146 2.061 . S
Co145 O151 2.052 . S
Co145 O153 2.135 . S
O146 Co145 2.061 . S
O146 C149 1.235 . S
C147 O150 1.238 . S
C147 O151 1.241 . S
C148 O141 1.247 . S
C148 O142 1.261 . S
C149 O144 1.259 . S
C149 O146 1.235 . S
O150 Co140 2.021 . S
O150 C147 1.238 . S
O151 Co145 2.052 . S
O151 C147 1.241 . S
O152 Co140 2.137 . S
O152 C143 1.247 . S
O153 Co140 2.244 . S
O153 C143 1.272 . S
O153 Co145 2.135 . S
Co154 O155 2.216 . S
Co154 O156 2.091 . S
Co154 O158 2.004 . S
Co154 O164 2.021 . S
Co154 O166 2.137 . S
Co154 O167 2.244 . S
O155 Co154 2.216 . S
O155 C162 1.247 . S
O156 Co154 2.091 . S
O156 C162 1.261 . S
C157 O166 1.247 . S
C157 O167 1.272 . S
O158 Co154 2.004 . S
O158 C163 1.259 . S
Co159 O160 2.061 . S
Co159 O165 2.052 . S
Co159 O167 2.135 . S
O160 Co159 2.061 . S
O160 C163 1.235 . S
C161 O164 1.238 . S
C161 O165 1.241 . S
C162 O155 1.247 . S
C162 O156 1.261 . S
C163 O158 1.259 . S
C163 O160 1.235 . S
O164 Co154 2.021 . S
O164 C161 1.238 . S
O165 Co159 2.052 . S
O165 C161 1.241 . S
O166 Co154 2.137 . S
O166 C157 1.247 . S
O167 Co154 2.244 . S
O167 C157 1.272 . S
O167 Co159 2.135 . S
H168 C176 0.929 . S
H169 C178 0.930 . S
H170 C180 0.930 . S
H171 C183 0.929 . S
H172 C186 0.930 . S
H173 C188 0.960 . S
H174 C188 0.960 . S
H175 C188 0.960 . S
C176 H168 0.929 . S
C176 C177 1.377 . S
C176 C178 1.384 . S
C177 C176 1.377 . S
C177 C183 1.390 . S
C178 H169 0.930 . S
C178 C176 1.384 . S
C178 C179 1.372 . S
C179 C178 1.372 . S
C179 C180 1.400 . S
C179 C184 1.490 . S
C180 H170 0.930 . S
C180 C179 1.400 . S
C180 C183 1.386 . S
H181 C197 0.930 . S
H182 C198 0.931 . S
C183 H171 0.929 . S
C183 C177 1.390 . S
C183 C180 1.386 . S
C184 C179 1.490 . S
C184 C186 1.395 . S
C184 C187 1.403 . S
H185 C191 0.930 . S
C186 H172 0.930 . S
C186 C184 1.395 . S
C186 C189 1.403 . S
C187 C184 1.403 . S
C187 C188 1.524 . S
C187 C191 1.400 . S
C188 H173 0.960 . S
C188 H174 0.960 . S
C188 H175 0.960 . S
C188 C187 1.524 . S
C189 C186 1.403 . S
C189 C190 1.392 . S
C189 C193 1.495 . S
C190 C189 1.392 . S
C190 C191 1.385 . S
C190 C192 1.478 . S
C191 H185 0.930 . S
C191 C187 1.400 . S
C191 C190 1.385 . S
C192 C190 1.478 . S
C192 C194 1.381 . S
C192 C198 1.383 . S
C193 C189 1.495 . S
C193 H199 0.959 . S
C193 H200 0.961 . S
C193 H201 0.960 . S
C194 C192 1.381 . S
C194 C195 1.394 . S
C194 H202 0.930 . S
C195 C194 1.394 . S
C195 C196 1.383 . S
C195 H203 0.929 . S
C196 C195 1.383 . S
C196 C197 1.377 . S
C197 H181 0.930 . S
C197 C196 1.377 . S
C197 C198 1.379 . S
C198 H182 0.931 . S
C198 C192 1.383 . S
C198 C197 1.379 . S
H199 C193 0.959 . S
H200 C193 0.961 . S
H201 C193 0.960 . S
H202 C194 0.930 . S
H203 C195 0.929 . S
H204 C212 0.929 . S
H205 C214 0.930 . S
H206 C216 0.930 . S
H207 C219 0.929 . S
H208 C222 0.930 . S
H209 C224 0.960 . S
H210 C224 0.960 . S
H211 C224 0.960 . S
C212 H204 0.929 . S
C212 C213 1.377 . S
C212 C214 1.384 . S
C213 C212 1.377 . S
C213 C219 1.390 . S
C214 H205 0.930 . S
C214 C212 1.384 . S
C214 C215 1.372 . S
C215 C214 1.372 . S
C215 C216 1.400 . S
C215 C220 1.490 . S
C216 H206 0.930 . S
C216 C215 1.400 . S
C216 C219 1.386 . S
H217 C233 0.930 . S
H218 C234 0.931 . S
C219 H207 0.929 . S
C219 C213 1.390 . S
C219 C216 1.386 . S
C220 C215 1.490 . S
C220 C222 1.395 . S
C220 C223 1.403 . S
H221 C227 0.930 . S
C222 H208 0.930 . S
C222 C220 1.395 . S
C222 C225 1.403 . S
C223 C220 1.403 . S
C223 C224 1.524 . S
C223 C227 1.400 . S
C224 H209 0.960 . S
C224 H210 0.960 . S
C224 H211 0.960 . S
C224 C223 1.524 . S
C225 C222 1.403 . S
C225 C226 1.392 . S
C225 C229 1.495 . S
C226 C225 1.392 . S
C226 C227 1.385 . S
C226 C228 1.478 . S
C227 H221 0.930 . S
C227 C223 1.400 . S
C227 C226 1.385 . S
C228 C226 1.478 . S
C228 C230 1.381 . S
C228 C234 1.383 . S
C229 C225 1.495 . S
C229 H235 0.959 . S
C229 H236 0.961 . S
C229 H237 0.960 . S
C230 C228 1.381 . S
C230 C231 1.394 . S
C230 H238 0.930 . S
C231 C230 1.394 . S
C231 C232 1.383 . S
C231 H239 0.929 . S
C232 C231 1.383 . S
C232 C233 1.377 . S
C233 H217 0.930 . S
C233 C232 1.377 . S
C233 C234 1.379 . S
C234 H218 0.931 . S
C234 C228 1.383 . S
C234 C233 1.379 . S
H235 C229 0.959 . S
H236 C229 0.961 . S
H237 C229 0.960 . S
H238 C230 0.930 . S
H239 C231 0.929 . S
H240 C248 0.929 . S
H241 C250 0.930 . S
H242 C252 0.930 . S
H243 C255 0.929 . S
H244 C258 0.930 . S
H245 C260 0.960 . S
H246 C260 0.960 . S
H247 C260 0.960 . S
C248 H240 0.929 . S
C248 C249 1.377 . S
C248 C250 1.384 . S
C249 C248 1.377 . S
C249 C255 1.390 . S
C250 H241 0.930 . S
C250 C248 1.384 . S
C250 C251 1.372 . S
C251 C250 1.372 . S
C251 C252 1.400 . S
C251 C256 1.490 . S
C252 H242 0.930 . S
C252 C251 1.400 . S
C252 C255 1.386 . S
H253 C269 0.930 . S
H254 C270 0.931 . S
C255 H243 0.929 . S
C255 C249 1.390 . S
C255 C252 1.386 . S
C256 C251 1.490 . S
C256 C258 1.395 . S
C256 C259 1.403 . S
H257 C263 0.930 . S
C258 H244 0.930 . S
C258 C256 1.395 . S
C258 C261 1.403 . S
C259 C256 1.403 . S
C259 C260 1.524 . S
C259 C263 1.400 . S
C260 H245 0.960 . S
C260 H246 0.960 . S
C260 H247 0.960 . S
C260 C259 1.524 . S
C261 C258 1.403 . S
C261 C262 1.392 . S
C261 C265 1.495 . S
C262 C261 1.392 . S
C262 C263 1.385 . S
C262 C264 1.478 . S
C263 H257 0.930 . S
C263 C259 1.400 . S
C263 C262 1.385 . S
C264 C262 1.478 . S
C264 C266 1.381 . S
C264 C270 1.383 . S
C265 C261 1.495 . S
C265 H271 0.959 . S
C265 H272 0.961 . S
C265 H273 0.960 . S
C266 C264 1.381 . S
C266 C267 1.394 . S
C266 H274 0.930 . S
C267 C266 1.394 . S
C267 C268 1.383 . S
C267 H275 0.929 . S
C268 C267 1.383 . S
C268 C269 1.377 . S
C269 H253 0.930 . S
C269 C268 1.377 . S
C269 C270 1.379 . S
C270 H254 0.931 . S
C270 C264 1.383 . S
C270 C269 1.379 . S
H271 C265 0.959 . S
H272 C265 0.961 . S
H273 C265 0.960 . S
H274 C266 0.930 . S
H275 C267 0.929 . S
H276 C284 0.929 . S
H277 C286 0.930 . S
H278 C288 0.930 . S
H279 C291 0.929 . S
H280 C294 0.930 . S
H281 C296 0.960 . S
H282 C296 0.960 . S
H283 C296 0.960 . S
C284 H276 0.929 . S
C284 C285 1.377 . S
C284 C286 1.384 . S
C285 C284 1.377 . S
C285 C291 1.390 . S
C286 H277 0.930 . S
C286 C284 1.384 . S
C286 C287 1.372 . S
C287 C286 1.372 . S
C287 C288 1.400 . S
C287 C292 1.490 . S
C288 H278 0.930 . S
C288 C287 1.400 . S
C288 C291 1.386 . S
H289 C305 0.930 . S
H290 C306 0.931 . S
C291 H279 0.929 . S
C291 C285 1.390 . S
C291 C288 1.386 . S
C292 C287 1.490 . S
C292 C294 1.395 . S
C292 C295 1.403 . S
H293 C299 0.930 . S
C294 H280 0.930 . S
C294 C292 1.395 . S
C294 C297 1.403 . S
C295 C292 1.403 . S
C295 C296 1.524 . S
C295 C299 1.400 . S
C296 H281 0.960 . S
C296 H282 0.960 . S
C296 H283 0.960 . S
C296 C295 1.524 . S
C297 C294 1.403 . S
C297 C298 1.392 . S
C297 C301 1.495 . S
C298 C297 1.392 . S
C298 C299 1.385 . S
C298 C300 1.478 . S
C299 H293 0.930 . S
C299 C295 1.400 . S
C299 C298 1.385 . S
C300 C298 1.478 . S
C300 C302 1.381 . S
C300 C306 1.383 . S
C301 C297 1.495 . S
C301 H307 0.959 . S
C301 H308 0.961 . S
C301 H309 0.960 . S
C302 C300 1.381 . S
C302 C303 1.394 . S
C302 H310 0.930 . S
C303 C302 1.394 . S
C303 C304 1.383 . S
C303 H311 0.929 . S
C304 C303 1.383 . S
C304 C305 1.377 . S
C305 H289 0.930 . S
C305 C304 1.377 . S
C305 C306 1.379 . S
C306 H290 0.931 . S
C306 C300 1.383 . S
C306 C305 1.379 . S
H307 C301 0.959 . S
H308 C301 0.961 . S
H309 C301 0.960 . S
H310 C302 0.930 . S
H311 C303 0.929 . S
H312 C320 0.929 . S
H313 C322 0.930 . S
H314 C324 0.930 . S
H315 C327 0.929 . S
H316 C330 0.930 . S
H317 C332 0.960 . S
H318 C332 0.960 . S
H319 C332 0.960 . S
C320 H312 0.929 . S
C320 C321 1.377 . S
C320 C322 1.384 . S
C321 C320 1.377 . S
C321 C327 1.390 . S
C322 H313 0.930 . S
C322 C320 1.384 . S
C322 C323 1.372 . S
C323 C322 1.372 . S
C323 C324 1.400 . S
C323 C328 1.490 . S
C324 H314 0.930 . S
C324 C323 1.400 . S
C324 C327 1.386 . S
H325 C341 0.930 . S
H326 C342 0.931 . S
C327 H315 0.929 . S
C327 C321 1.390 . S
C327 C324 1.386 . S
C328 C323 1.490 . S
C328 C330 1.395 . S
C328 C331 1.403 . S
H329 C335 0.930 . S
C330 H316 0.930 . S
C330 C328 1.395 . S
C330 C333 1.403 1_556 S
C331 C328 1.403 . S
C331 C332 1.524 . S
C331 C335 1.400 . S
C332 H317 0.960 . S
C332 H318 0.960 . S
C332 H319 0.960 . S
C332 C331 1.524 . S
C333 C330 1.403 1_554 S
C333 C334 1.392 . S
C333 C337 1.495 . S
C334 C333 1.392 . S
C334 C335 1.385 1_554 S
C334 C336 1.478 . S
C335 H329 0.930 . S
C335 C331 1.400 . S
C335 C334 1.385 1_556 S
C336 C334 1.478 . S
C336 C338 1.381 . S
C336 C342 1.383 . S
C337 C333 1.495 . S
C337 H343 0.959 . S
C337 H344 0.961 . S
C337 H345 0.960 . S
C338 C336 1.381 . S
C338 C339 1.394 . S
C338 H346 0.930 . S
C339 C338 1.394 . S
C339 C340 1.383 . S
C339 H347 0.929 . S
C340 C339 1.383 . S
C340 C341 1.377 . S
C341 H325 0.930 . S
C341 C340 1.377 . S
C341 C342 1.379 . S
C342 H326 0.931 . S
C342 C336 1.383 . S
C342 C341 1.379 . S
H343 C337 0.959 . S
H344 C337 0.961 . S
H345 C337 0.960 . S
H346 C338 0.930 . S
H347 C339 0.929 . S
H348 C356 0.929 . S
H349 C358 0.930 . S
H350 C360 0.930 . S
H351 C363 0.929 . S
H352 C366 0.930 . S
H353 C368 0.960 . S
H354 C368 0.960 . S
H355 C368 0.960 . S
C356 H348 0.929 . S
C356 C357 1.377 . S
C356 C358 1.384 . S
C357 C356 1.377 . S
C357 C363 1.390 . S
C358 H349 0.930 . S
C358 C356 1.384 . S
C358 C359 1.372 . S
C359 C358 1.372 . S
C359 C360 1.400 . S
C359 C364 1.490 . S
C360 H350 0.930 . S
C360 C359 1.400 . S
C360 C363 1.386 . S
H361 C377 0.930 . S
H362 C378 0.931 . S
C363 H351 0.929 . S
C363 C357 1.390 . S
C363 C360 1.386 . S
C364 C359 1.490 . S
C364 C366 1.395 . S
C364 C367 1.403 . S
H365 C371 0.930 . S
C366 H352 0.930 . S
C366 C364 1.395 . S
C366 C369 1.403 . S
C367 C364 1.403 . S
C367 C368 1.524 . S
C367 C371 1.400 . S
C368 H353 0.960 . S
C368 H354 0.960 . S
C368 H355 0.960 . S
C368 C367 1.524 . S
C369 C366 1.403 . S
C369 C370 1.392 . S
C369 C373 1.495 . S
C370 C369 1.392 . S
C370 C371 1.385 . S
C370 C372 1.478 . S
C371 H365 0.930 . S
C371 C367 1.400 . S
C371 C370 1.385 . S
C372 C370 1.478 . S
C372 C374 1.381 . S
C372 C378 1.383 . S
C373 C369 1.495 . S
C373 H379 0.959 . S
C373 H380 0.961 . S
C373 H381 0.960 . S
C374 C372 1.381 . S
C374 C375 1.394 1_554 S
C374 H382 0.930 . S
C375 C374 1.394 1_556 S
C375 C376 1.383 . S
C375 H383 0.929 . S
C376 C375 1.383 . S
C376 C377 1.377 1_556 S
C377 H361 0.930 . S
C377 C376 1.377 1_554 S
C377 C378 1.379 . S
C378 H362 0.931 . S
C378 C372 1.383 . S
C378 C377 1.379 . S
H379 C373 0.959 . S
H380 C373 0.961 . S
H381 C373 0.960 . S
H382 C374 0.930 . S
H383 C375 0.929 . S
H384 C392 0.929 . S
H385 C394 0.930 . S
H386 C396 0.930 . S
H387 C399 0.929 . S
H388 C402 0.930 . S
H389 C404 0.960 . S
H390 C404 0.960 . S
H391 C404 0.960 . S
C392 H384 0.929 . S
C392 C393 1.377 . S
C392 C394 1.384 . S
C393 C392 1.377 . S
C393 C399 1.390 . S
C394 H385 0.930 . S
C394 C392 1.384 . S
C394 C395 1.372 . S
C395 C394 1.372 . S
C395 C396 1.400 . S
C395 C400 1.490 . S
C396 H386 0.930 . S
C396 C395 1.400 . S
C396 C399 1.386 . S
H397 C413 0.930 . S
H398 C414 0.931 . S
C399 H387 0.929 . S
C399 C393 1.390 . S
C399 C396 1.386 . S
C400 C395 1.490 . S
C400 C402 1.395 . S
C400 C403 1.403 . S
H401 C407 0.930 . S
C402 H388 0.930 . S
C402 C400 1.395 . S
C402 C405 1.403 . S
C403 C400 1.403 . S
C403 C404 1.524 . S
C403 C407 1.400 . S
C404 H389 0.960 . S
C404 H390 0.960 . S
C404 H391 0.960 . S
C404 C403 1.524 . S
C405 C402 1.403 . S
C405 C406 1.392 . S
C405 C409 1.495 . S
C406 C405 1.392 . S
C406 C407 1.385 . S
C406 C408 1.478 . S
C407 H401 0.930 . S
C407 C403 1.400 . S
C407 C406 1.385 . S
C408 C406 1.478 . S
C408 C410 1.381 . S
C408 C414 1.383 . S
C409 C405 1.495 . S
C409 H415 0.959 . S
C409 H416 0.961 . S
C409 H417 0.960 . S
C410 C408 1.381 . S
C410 C411 1.394 . S
C410 H418 0.930 . S
C411 C410 1.394 . S
C411 C412 1.383 . S
C411 H419 0.929 . S
C412 C411 1.383 . S
C412 C413 1.377 . S
C413 H397 0.930 . S
C413 C412 1.377 . S
C413 C414 1.379 . S
C414 H398 0.931 . S
C414 C408 1.383 . S
C414 C413 1.379 . S
H415 C409 0.959 . S
H416 C409 0.961 . S
H417 C409 0.960 . S
H418 C410 0.930 . S
H419 C411 0.929 . S
H420 C428 0.929 . S
H421 C430 0.930 . S
H422 C432 0.930 . S
H423 C435 0.929 . S
H424 C438 0.930 . S
H425 C440 0.960 . S
H426 C440 0.960 . S
H427 C440 0.960 . S
C428 H420 0.929 . S
C428 C429 1.377 . S
C428 C430 1.384 . S
C429 C428 1.377 . S
C429 C435 1.390 . S
C430 H421 0.930 . S
C430 C428 1.384 . S
C430 C431 1.372 . S
C431 C430 1.372 . S
C431 C432 1.400 . S
C431 C436 1.490 . S
C432 H422 0.930 . S
C432 C431 1.400 . S
C432 C435 1.386 . S
H433 C449 0.930 . S
H434 C450 0.931 . S
C435 H423 0.929 . S
C435 C429 1.390 . S
C435 C432 1.386 . S
C436 C431 1.490 . S
C436 C438 1.395 . S
C436 C439 1.403 . S
H437 C443 0.930 . S
C438 H424 0.930 . S
C438 C436 1.395 . S
C438 C441 1.403 . S
C439 C436 1.403 . S
C439 C440 1.524 . S
C439 C443 1.400 . S
C440 H425 0.960 . S
C440 H426 0.960 . S
C440 H427 0.960 . S
C440 C439 1.524 . S
C441 C438 1.403 . S
C441 C442 1.392 . S
C441 C445 1.495 . S
C442 C441 1.392 . S
C442 C443 1.385 . S
C442 C444 1.478 . S
C443 H437 0.930 . S
C443 C439 1.400 . S
C443 C442 1.385 . S
C444 C442 1.478 . S
C444 C446 1.381 . S
C444 C450 1.383 . S
C445 C441 1.495 . S
C445 H451 0.959 . S
C445 H452 0.961 . S
C445 H453 0.960 . S
C446 C444 1.381 . S
C446 C447 1.394 . S
C446 H454 0.930 . S
C447 C446 1.394 . S
C447 C448 1.383 . S
C447 H455 0.929 . S
C448 C447 1.383 . S
C448 C449 1.377 . S
C449 H433 0.930 . S
C449 C448 1.377 . S
C449 C450 1.379 . S
C450 H434 0.931 . S
C450 C444 1.383 . S
C450 C449 1.379 . S
H451 C445 0.959 . S
H452 C445 0.961 . S
H453 C445 0.960 . S
H454 C446 0.930 . S
H455 C447 0.929 . S
H456 C464 0.929 . S
H457 C466 0.930 . S
H458 C468 0.930 . S
H459 C471 0.929 . S
H460 C474 0.930 . S
H461 C476 0.960 . S
H462 C476 0.960 . S
H463 C476 0.960 . S
C464 H456 0.929 . S
C464 C465 1.377 . S
C464 C466 1.384 . S
C465 C464 1.377 . S
C465 C471 1.390 . S
C466 H457 0.930 . S
C466 C464 1.384 . S
C466 C467 1.372 . S
C467 C466 1.372 . S
C467 C468 1.400 . S
C467 C472 1.490 . S
C468 H458 0.930 . S
C468 C467 1.400 . S
C468 C471 1.386 . S
H469 C485 0.930 . S
H470 C486 0.931 . S
C471 H459 0.929 . S
C471 C465 1.390 . S
C471 C468 1.386 . S
C472 C467 1.490 . S
C472 C474 1.395 . S
C472 C475 1.403 . S
H473 C479 0.930 . S
C474 H460 0.930 . S
C474 C472 1.395 . S
C474 C477 1.403 . S
C475 C472 1.403 . S
C475 C476 1.524 . S
C475 C479 1.400 . S
C476 H461 0.960 . S
C476 H462 0.960 . S
C476 H463 0.960 . S
C476 C475 1.524 . S
C477 C474 1.403 . S
C477 C478 1.392 . S
C477 C481 1.495 . S
C478 C477 1.392 . S
C478 C479 1.385 . S
C478 C480 1.478 . S
C479 H473 0.930 . S
C479 C475 1.400 . S
C479 C478 1.385 . S
C480 C478 1.478 . S
C480 C482 1.381 . S
C480 C486 1.383 . S
C481 C477 1.495 . S
C481 H487 0.959 . S
C481 H488 0.961 . S
C481 H489 0.960 . S
C482 C480 1.381 . S
C482 C483 1.394 . S
C482 H490 0.930 . S
C483 C482 1.394 . S
C483 C484 1.383 . S
C483 H491 0.929 . S
C484 C483 1.383 . S
C484 C485 1.377 . S
C485 H469 0.930 . S
C485 C484 1.377 . S
C485 C486 1.379 . S
C486 H470 0.931 . S
C486 C480 1.383 . S
C486 C485 1.379 . S
H487 C481 0.959 . S
H488 C481 0.961 . S
H489 C481 0.960 . S
H490 C482 0.930 . S
H491 C483 0.929 . S
H492 C500 0.929 . S
H493 C502 0.930 . S
H494 C504 0.930 . S
H495 C507 0.929 . S
H496 C510 0.930 . S
H497 C512 0.960 . S
H498 C512 0.960 . S
H499 C512 0.960 . S
C500 H492 0.929 . S
C500 C501 1.377 . S
C500 C502 1.384 . S
C501 C500 1.377 . S
C501 C507 1.390 . S
C502 H493 0.930 . S
C502 C500 1.384 . S
C502 C503 1.372 . S
C503 C502 1.372 . S
C503 C504 1.400 . S
C503 C508 1.490 . S
C504 H494 0.930 . S
C504 C503 1.400 . S
C504 C507 1.386 . S
H505 C521 0.930 . S
H506 C522 0.931 . S
C507 H495 0.929 . S
C507 C501 1.390 . S
C507 C504 1.386 . S
C508 C503 1.490 . S
C508 C510 1.395 . S
C508 C511 1.403 . S
H509 C515 0.930 . S
C510 H496 0.930 . S
C510 C508 1.395 . S
C510 C513 1.403 . S
C511 C508 1.403 . S
C511 C512 1.524 . S
C511 C515 1.400 . S
C512 H497 0.960 . S
C512 H498 0.960 . S
C512 H499 0.960 . S
C512 C511 1.524 . S
C513 C510 1.403 . S
C513 C514 1.392 . S
C513 C517 1.495 . S
C514 C513 1.392 . S
C514 C515 1.385 . S
C514 C516 1.478 . S
C515 H509 0.930 . S
C515 C511 1.400 . S
C515 C514 1.385 . S
C516 C514 1.478 . S
C516 C518 1.381 . S
C516 C522 1.383 . S
C517 C513 1.495 . S
C517 H523 0.959 . S
C517 H524 0.961 . S
C517 H525 0.960 . S
C518 C516 1.381 . S
C518 C519 1.394 . S
C518 H526 0.930 . S
C519 C518 1.394 . S
C519 C520 1.383 . S
C519 H527 0.929 . S
C520 C519 1.383 . S
C520 C521 1.377 . S
C521 H505 0.930 . S
C521 C520 1.377 . S
C521 C522 1.379 . S
C522 H506 0.931 . S
C522 C516 1.383 . S
C522 C521 1.379 . S
H523 C517 0.959 . S
H524 C517 0.961 . S
H525 C517 0.960 . S
H526 C518 0.930 . S
H527 C519 0.929 . S
H528 C536 0.929 . S
H529 C538 0.930 . S
H530 C540 0.930 . S
H531 C543 0.929 . S
H532 C546 0.930 . S
H533 C548 0.960 . S
H534 C548 0.960 . S
H535 C548 0.960 . S
C536 H528 0.929 . S
C536 C537 1.377 . S
C536 C538 1.384 . S
C537 C536 1.377 . S
C537 C543 1.390 . S
C538 H529 0.930 . S
C538 C536 1.384 . S
C538 C539 1.372 . S
C539 C538 1.372 . S
C539 C540 1.400 . S
C539 C544 1.490 . S
C540 H530 0.930 . S
C540 C539 1.400 . S
C540 C543 1.386 . S
H541 C557 0.930 . S
H542 C558 0.931 . S
C543 H531 0.929 . S
C543 C537 1.390 . S
C543 C540 1.386 . S
C544 C539 1.490 . S
C544 C546 1.395 . S
C544 C547 1.403 . S
H545 C551 0.930 . S
C546 H532 0.930 . S
C546 C544 1.395 . S
C546 C549 1.403 . S
C547 C544 1.403 . S
C547 C548 1.524 . S
C547 C551 1.400 . S
C548 H533 0.960 . S
C548 H534 0.960 . S
C548 H535 0.960 . S
C548 C547 1.524 . S
C549 C546 1.403 . S
C549 C550 1.392 . S
C549 C553 1.495 . S
C550 C549 1.392 . S
C550 C551 1.385 . S
C550 C552 1.478 . S
C551 H545 0.930 . S
C551 C547 1.400 . S
C551 C550 1.385 . S
C552 C550 1.478 . S
C552 C554 1.381 . S
C552 C558 1.383 . S
C553 C549 1.495 . S
C553 H559 0.959 . S
C553 H560 0.961 . S
C553 H561 0.960 . S
C554 C552 1.381 . S
C554 C555 1.394 . S
C554 H562 0.930 . S
C555 C554 1.394 . S
C555 C556 1.383 . S
C555 H563 0.929 . S
C556 C555 1.383 . S
C556 C557 1.377 . S
C557 H541 0.930 . S
C557 C556 1.377 . S
C557 C558 1.379 . S
C558 H542 0.931 . S
C558 C552 1.383 . S
C558 C557 1.379 . S
H559 C553 0.959 . S
H560 C553 0.961 . S
H561 C553 0.960 . S
H562 C554 0.930 . S
H563 C555 0.929 . S
H564 C572 0.929 . S
H565 C574 0.930 . S
H566 C576 0.930 . S
H567 C579 0.929 . S
H568 C582 0.930 . S
H569 C584 0.960 . S
H570 C584 0.960 . S
H571 C584 0.960 . S
C572 H564 0.929 . S
C572 C573 1.377 . S
C572 C574 1.384 . S
C573 C572 1.377 . S
C573 C579 1.390 . S
C574 H565 0.930 . S
C574 C572 1.384 . S
C574 C575 1.372 . S
C575 C574 1.372 . S
C575 C576 1.400 . S
C575 C580 1.490 . S
C576 H566 0.930 . S
C576 C575 1.400 . S
C576 C579 1.386 . S
H577 C593 0.930 . S
H578 C594 0.931 . S
C579 H567 0.929 . S
C579 C573 1.390 . S
C579 C576 1.386 . S
C580 C575 1.490 . S
C580 C582 1.395 . S
C580 C583 1.403 . S
H581 C587 0.930 . S
C582 H568 0.930 . S
C582 C580 1.395 . S
C582 C585 1.403 . S
C583 C580 1.403 . S
C583 C584 1.524 . S
C583 C587 1.400 . S
C584 H569 0.960 . S
C584 H570 0.960 . S
C584 H571 0.960 . S
C584 C583 1.524 . S
C585 C582 1.403 . S
C585 C586 1.392 . S
C585 C589 1.495 . S
C586 C585 1.392 . S
C586 C587 1.385 . S
C586 C588 1.478 . S
C587 H581 0.930 . S
C587 C583 1.400 . S
C587 C586 1.385 . S
C588 C586 1.478 . S
C588 C590 1.381 . S
C588 C594 1.383 1_556 S
C589 C585 1.495 . S
C589 H595 0.959 . S
C589 H596 0.961 1_556 S
C589 H597 0.960 . S
C590 C588 1.381 . S
C590 C591 1.394 . S
C590 H598 0.930 . S
C591 C590 1.394 . S
C591 C592 1.383 1_556 S
C591 H599 0.929 . S
C592 C591 1.383 1_554 S
C592 C593 1.377 . S
C593 H577 0.930 . S
C593 C592 1.377 . S
C593 C594 1.379 . S
C594 H578 0.931 . S
C594 C588 1.383 1_554 S
C594 C593 1.379 . S
H595 C589 0.959 . S
H596 C589 0.961 1_554 S
H597 C589 0.960 . S
H598 C590 0.930 . S
H599 C591 0.929 . S
H600 C608 0.929 . S
H601 C610 0.930 . S
H602 C612 0.930 . S
H603 C615 0.929 . S
H604 C618 0.930 . S
H605 C620 0.960 . S
H606 C620 0.960 . S
H607 C620 0.960 . S
C608 H600 0.929 . S
C608 C609 1.377 . S
C608 C610 1.384 . S
C609 C608 1.377 . S
C609 C615 1.390 . S
C610 H601 0.930 . S
C610 C608 1.384 . S
C610 C611 1.372 . S
C611 C610 1.372 . S
C611 C612 1.400 . S
C611 C616 1.490 . S
C612 H602 0.930 . S
C612 C611 1.400 . S
C612 C615 1.386 . S
H613 C629 0.930 . S
H614 C630 0.931 . S
C615 H603 0.929 . S
C615 C609 1.390 . S
C615 C612 1.386 . S
C616 C611 1.490 . S
C616 C618 1.395 . S
C616 C619 1.403 . S
H617 C623 0.930 . S
C618 H604 0.930 . S
C618 C616 1.395 . S
C618 C621 1.403 . S
C619 C616 1.403 . S
C619 C620 1.524 . S
C619 C623 1.400 . S
C620 H605 0.960 . S
C620 H606 0.960 . S
C620 H607 0.960 . S
C620 C619 1.524 . S
C621 C618 1.403 . S
C621 C622 1.392 . S
C621 C625 1.495 . S
C622 C621 1.392 . S
C622 C623 1.385 . S
C622 C624 1.478 . S
C623 H617 0.930 . S
C623 C619 1.400 . S
C623 C622 1.385 . S
C624 C622 1.478 . S
C624 C626 1.381 . S
C624 C630 1.383 . S
C625 C621 1.495 . S
C625 H631 0.959 . S
C625 H632 0.961 . S
C625 H633 0.960 . S
C626 C624 1.381 . S
C626 C627 1.394 . S
C626 H634 0.930 . S
C627 C626 1.394 . S
C627 C628 1.383 . S
C627 H635 0.929 . S
C628 C627 1.383 . S
C628 C629 1.377 . S
C629 H613 0.930 . S
C629 C628 1.377 . S
C629 C630 1.379 . S
C630 H614 0.931 . S
C630 C624 1.383 . S
C630 C629 1.379 . S
H631 C625 0.959 . S
H632 C625 0.961 . S
H633 C625 0.960 . S
H634 C626 0.930 . S
H635 C627 0.929 . S
H636 C644 0.929 . S
H637 C646 0.930 1_556 S
H638 C648 0.930 . S
H639 C651 0.929 . S
H640 C654 0.930 . S
H641 C656 0.960 . S
H642 C656 0.960 . S
H643 C656 0.960 . S
C644 H636 0.929 . S
C644 C645 1.377 . S
C644 C646 1.384 . S
C645 C644 1.377 . S
C645 C651 1.390 . S
C646 H637 0.930 1_554 S
C646 C644 1.384 . S
C646 C647 1.372 . S
C647 C646 1.372 . S
C647 C648 1.400 . S
C647 C652 1.490 1_554 S
C648 H638 0.930 . S
C648 C647 1.400 . S
C648 C651 1.386 . S
H649 C665 0.930 . S
H650 C666 0.931 . S
C651 H639 0.929 . S
C651 C645 1.390 . S
C651 C648 1.386 . S
C652 C647 1.490 1_556 S
C652 C654 1.395 . S
C652 C655 1.403 . S
H653 C659 0.930 . S
C654 H640 0.930 . S
C654 C652 1.395 . S
C654 C657 1.403 . S
C655 C652 1.403 . S
C655 C656 1.524 1_556 S
C655 C659 1.400 . S
C656 H641 0.960 . S
C656 H642 0.960 . S
C656 H643 0.960 . S
C656 C655 1.524 1_554 S
C657 C654 1.403 . S
C657 C658 1.392 . S
C657 C661 1.495 . S
C658 C657 1.392 . S
C658 C659 1.385 . S
C658 C660 1.478 . S
C659 H653 0.930 . S
C659 C655 1.400 . S
C659 C658 1.385 . S
C660 C658 1.478 . S
C660 C662 1.381 . S
C660 C666 1.383 . S
C661 C657 1.495 . S
C661 H667 0.959 . S
C661 H668 0.961 . S
C661 H669 0.960 . S
C662 C660 1.381 . S
C662 C663 1.394 . S
C662 H670 0.930 . S
C663 C662 1.394 . S
C663 C664 1.383 . S
C663 H671 0.929 . S
C664 C663 1.383 . S
C664 C665 1.377 . S
C665 H649 0.930 . S
C665 C664 1.377 . S
C665 C666 1.379 . S
C666 H650 0.931 . S
C666 C660 1.383 . S
C666 C665 1.379 . S
H667 C661 0.959 . S
H668 C661 0.961 . S
H669 C661 0.960 . S
H670 C662 0.930 . S
H671 C663 0.929 . S
H672 C680 0.929 . S
H673 C682 0.930 . S
H674 C684 0.930 . S
H675 C687 0.929 . S
H676 C690 0.930 . S
H677 C692 0.960 . S
H678 C692 0.960 . S
H679 C692 0.960 . S
C680 H672 0.929 . S
C680 C681 1.377 . S
C680 C682 1.384 . S
C681 C680 1.377 . S
C681 C687 1.390 . S
C682 H673 0.930 . S
C682 C680 1.384 . S
C682 C683 1.372 . S
C683 C682 1.372 . S
C683 C684 1.400 . S
C683 C688 1.490 . S
C684 H674 0.930 . S
C684 C683 1.400 . S
C684 C687 1.386 . S
H685 C701 0.930 1_556 S
H686 C702 0.931 . S
C687 H675 0.929 . S
C687 C681 1.390 . S
C687 C684 1.386 . S
C688 C683 1.490 . S
C688 C690 1.395 . S
C688 C691 1.403 . S
H689 C695 0.930 . S
C690 H676 0.930 . S
C690 C688 1.395 . S
C690 C693 1.403 . S
C691 C688 1.403 . S
C691 C692 1.524 . S
C691 C695 1.400 . S
C692 H677 0.960 . S
C692 H678 0.960 . S
C692 H679 0.960 . S
C692 C691 1.524 . S
C693 C690 1.403 . S
C693 C694 1.392 . S
C693 C697 1.495 . S
C694 C693 1.392 . S
C694 C695 1.385 . S
C694 C696 1.478 . S
C695 H689 0.930 . S
C695 C691 1.400 . S
C695 C694 1.385 . S
C696 C694 1.478 . S
C696 C698 1.381 . S
C696 C702 1.383 . S
C697 C693 1.495 . S
C697 H703 0.959 . S
C697 H704 0.961 . S
C697 H705 0.960 . S
C698 C696 1.381 . S
C698 C699 1.394 1_554 S
C698 H706 0.930 . S
C699 C698 1.394 1_556 S
C699 C700 1.383 . S
C699 H707 0.929 . S
C700 C699 1.383 . S
C700 C701 1.377 1_556 S
C701 H685 0.930 1_554 S
C701 C700 1.377 1_554 S
C701 C702 1.379 . S
C702 H686 0.931 . S
C702 C696 1.383 . S
C702 C701 1.379 . S
H703 C697 0.959 . S
H704 C697 0.961 . S
H705 C697 0.960 . S
H706 C698 0.930 . S
H707 C699 0.929 . S
H708 C716 0.929 . S
H709 C718 0.930 . S
H710 C720 0.930 . S
H711 C723 0.929 . S
H712 C726 0.930 . S
H713 C728 0.960 . S
H714 C728 0.960 . S
H715 C728 0.960 . S
C716 H708 0.929 . S
C716 C717 1.377 . S
C716 C718 1.384 . S
C717 C716 1.377 . S
C717 C723 1.390 . S
C718 H709 0.930 . S
C718 C716 1.384 . S
C718 C719 1.372 . S
C719 C718 1.372 . S
C719 C720 1.400 . S
C719 C724 1.490 . S
C720 H710 0.930 . S
C720 C719 1.400 . S
C720 C723 1.386 . S
H721 C737 0.930 . S
H722 C738 0.931 . S
C723 H711 0.929 . S
C723 C717 1.390 . S
C723 C720 1.386 . S
C724 C719 1.490 . S
C724 C726 1.395 . S
C724 C727 1.403 . S
H725 C731 0.930 . S
C726 H712 0.930 . S
C726 C724 1.395 . S
C726 C729 1.403 . S
C727 C724 1.403 . S
C727 C728 1.524 . S
C727 C731 1.400 . S
C728 H713 0.960 . S
C728 H714 0.960 . S
C728 H715 0.960 . S
C728 C727 1.524 . S
C729 C726 1.403 . S
C729 C730 1.392 . S
C729 C733 1.495 . S
C730 C729 1.392 . S
C730 C731 1.385 . S
C730 C732 1.478 . S
C731 H725 0.930 . S
C731 C727 1.400 . S
C731 C730 1.385 . S
C732 C730 1.478 . S
C732 C734 1.381 . S
C732 C738 1.383 . S
C733 C729 1.495 . S
C733 H739 0.959 . S
C733 H740 0.961 . S
C733 H741 0.960 . S
C734 C732 1.381 . S
C734 C735 1.394 . S
C734 H742 0.930 . S
C735 C734 1.394 . S
C735 C736 1.383 . S
C735 H743 0.929 . S
C736 C735 1.383 . S
C736 C737 1.377 . S
C737 H721 0.930 . S
C737 C736 1.377 . S
C737 C738 1.379 . S
C738 H722 0.931 . S
C738 C732 1.383 . S
C738 C737 1.379 . S
H739 C733 0.959 . S
H740 C733 0.961 . S
H741 C733 0.960 . S
H742 C734 0.930 . S
H743 C735 0.929 . S
H744 C752 0.929 . S
H745 C754 0.930 . S
H746 C756 0.930 . S
H747 C759 0.929 . S
H748 C762 0.930 . S
H749 C764 0.960 . S
H750 C764 0.960 . S
H751 C764 0.960 . S
C752 H744 0.929 . S
C752 C753 1.377 . S
C752 C754 1.384 . S
C753 C752 1.377 . S
C753 C759 1.390 . S
C754 H745 0.930 . S
C754 C752 1.384 . S
C754 C755 1.372 . S
C755 C754 1.372 . S
C755 C756 1.400 . S
C755 C760 1.490 . S
C756 H746 0.930 . S
C756 C755 1.400 . S
C756 C759 1.386 . S
H757 C773 0.930 . S
H758 C774 0.931 . S
C759 H747 0.929 . S
C759 C753 1.390 . S
C759 C756 1.386 . S
C760 C755 1.490 . S
C760 C762 1.395 . S
C760 C763 1.403 . S
H761 C767 0.930 . S
C762 H748 0.930 . S
C762 C760 1.395 . S
C762 C765 1.403 . S
C763 C760 1.403 . S
C763 C764 1.524 . S
C763 C767 1.400 . S
C764 H749 0.960 . S
C764 H750 0.960 . S
C764 H751 0.960 . S
C764 C763 1.524 . S
C765 C762 1.403 . S
C765 C766 1.392 . S
C765 C769 1.495 . S
C766 C765 1.392 . S
C766 C767 1.385 . S
C766 C768 1.478 . S
C767 H761 0.930 . S
C767 C763 1.400 . S
C767 C766 1.385 . S
C768 C766 1.478 . S
C768 C770 1.381 . S
C768 C774 1.383 . S
C769 C765 1.495 . S
C769 H775 0.959 . S
C769 H776 0.961 . S
C769 H777 0.960 . S
C770 C768 1.381 . S
C770 C771 1.394 . S
C770 H778 0.930 . S
C771 C770 1.394 . S
C771 C772 1.383 . S
C771 H779 0.929 . S
C772 C771 1.383 . S
C772 C773 1.377 . S
C773 H757 0.930 . S
C773 C772 1.377 . S
C773 C774 1.379 . S
C774 H758 0.931 . S
C774 C768 1.383 . S
C774 C773 1.379 . S
H775 C769 0.959 . S
H776 C769 0.961 . S
H777 C769 0.960 . S
H778 C770 0.930 . S
H779 C771 0.929 . S
H780 C788 0.929 . S
H781 C790 0.930 . S
H782 C792 0.930 . S
H783 C795 0.929 . S
H784 C798 0.930 . S
H785 C800 0.960 . S
H786 C800 0.960 . S
H787 C800 0.960 . S
C788 H780 0.929 . S
C788 C789 1.377 . S
C788 C790 1.384 . S
C789 C788 1.377 . S
C789 C795 1.390 . S
C790 H781 0.930 . S
C790 C788 1.384 . S
C790 C791 1.372 . S
C791 C790 1.372 . S
C791 C792 1.400 . S
C791 C796 1.490 . S
C792 H782 0.930 . S
C792 C791 1.400 . S
C792 C795 1.386 . S
H793 C809 0.930 . S
H794 C810 0.931 . S
C795 H783 0.929 . S
C795 C789 1.390 . S
C795 C792 1.386 . S
C796 C791 1.490 . S
C796 C798 1.395 . S
C796 C799 1.403 . S
H797 C803 0.930 . S
C798 H784 0.930 . S
C798 C796 1.395 . S
C798 C801 1.403 . S
C799 C796 1.403 . S
C799 C800 1.524 . S
C799 C803 1.400 . S
C800 H785 0.960 . S
C800 H786 0.960 . S
C800 H787 0.960 . S
C800 C799 1.524 . S
C801 C798 1.403 . S
C801 C802 1.392 . S
C801 C805 1.495 . S
C802 C801 1.392 . S
C802 C803 1.385 . S
C802 C804 1.478 . S
C803 H797 0.930 . S
C803 C799 1.400 . S
C803 C802 1.385 . S
C804 C802 1.478 . S
C804 C806 1.381 . S
C804 C810 1.383 . S
C805 C801 1.495 . S
C805 H811 0.959 . S
C805 H812 0.961 . S
C805 H813 0.960 . S
C806 C804 1.381 . S
C806 C807 1.394 . S
C806 H814 0.930 . S
C807 C806 1.394 . S
C807 C808 1.383 . S
C807 H815 0.929 . S
C808 C807 1.383 . S
C808 C809 1.377 . S
C809 H793 0.930 . S
C809 C808 1.377 . S
C809 C810 1.379 . S
C810 H794 0.931 . S
C810 C804 1.383 . S
C810 C809 1.379 . S
H811 C805 0.959 . S
H812 C805 0.961 . S
H813 C805 0.960 . S
H814 C806 0.930 . S
H815 C807 0.929 . S
H816 C824 0.929 . S
H817 C826 0.930 . S
H818 C828 0.930 . S
H819 C831 0.929 1_554 S
H820 C834 0.930 . S
H821 C836 0.960 1_655 S
H822 C836 0.960 . S
H823 C836 0.960 . S
C824 H816 0.929 . S
C824 C825 1.377 . S
C824 C826 1.384 . S
C825 C824 1.377 . S
C825 C831 1.390 . S
C826 H817 0.930 . S
C826 C824 1.384 . S
C826 C827 1.372 . S
C827 C826 1.372 . S
C827 C828 1.400 . S
C827 C832 1.490 . S
C828 H818 0.930 . S
C828 C827 1.400 . S
C828 C831 1.386 . S
H829 C845 0.930 . S
H830 C846 0.931 . S
C831 H819 0.929 1_556 S
C831 C825 1.390 . S
C831 C828 1.386 . S
C832 C827 1.490 . S
C832 C834 1.395 . S
C832 C835 1.403 . S
H833 C839 0.930 . S
C834 H820 0.930 . S
C834 C832 1.395 . S
C834 C837 1.403 1_455 S
C835 C832 1.403 . S
C835 C836 1.524 . S
C835 C839 1.400 1_455 S
C836 H821 0.960 1_455 S
C836 H822 0.960 . S
C836 H823 0.960 . S
C836 C835 1.524 . S
C837 C834 1.403 1_655 S
C837 C838 1.392 . S
C837 C841 1.495 . S
C838 C837 1.392 . S
C838 C839 1.385 . S
C838 C840 1.478 . S
C839 H833 0.930 . S
C839 C835 1.400 1_655 S
C839 C838 1.385 . S
C840 C838 1.478 . S
C840 C842 1.381 . S
C840 C846 1.383 . S
C841 C837 1.495 . S
C841 H847 0.959 1_655 S
C841 H848 0.961 . S
C841 H849 0.960 . S
C842 C840 1.381 . S
C842 C843 1.394 . S
C842 H850 0.930 . S
C843 C842 1.394 . S
C843 C844 1.383 . S
C843 H851 0.929 . S
C844 C843 1.383 . S
C844 C845 1.377 . S
C845 H829 0.930 . S
C845 C844 1.377 . S
C845 C846 1.379 . S
C846 H830 0.931 . S
C846 C840 1.383 . S
C846 C845 1.379 . S
H847 C841 0.959 1_455 S
H848 C841 0.961 . S
H849 C841 0.960 . S
H850 C842 0.930 . S
H851 C843 0.929 . S
H852 C860 0.929 . S
H853 C862 0.930 . S
H854 C864 0.930 . S
H855 C867 0.929 . S
H856 C870 0.930 . S
H857 C872 0.960 . S
H858 C872 0.960 1_556 S
H859 C872 0.960 . S
C860 H852 0.929 . S
C860 C861 1.377 . S
C860 C862 1.384 . S
C861 C860 1.377 . S
C861 C867 1.390 . S
C862 H853 0.930 . S
C862 C860 1.384 . S
C862 C863 1.372 . S
C863 C862 1.372 . S
C863 C864 1.400 1_556 S
C863 C868 1.490 1_556 S
C864 H854 0.930 . S
C864 C863 1.400 1_554 S
C864 C867 1.386 1_554 S
H865 C881 0.930 . S
H866 C882 0.931 . S
C867 H855 0.929 . S
C867 C861 1.390 . S
C867 C864 1.386 1_556 S
C868 C863 1.490 1_554 S
C868 C870 1.395 . S
C868 C871 1.403 . S
H869 C875 0.930 . S
C870 H856 0.930 . S
C870 C868 1.395 . S
C870 C873 1.403 1_565 S
C871 C868 1.403 . S
C871 C872 1.524 . S
C871 C875 1.400 1_565 S
C872 H857 0.960 . S
C872 H858 0.960 1_554 S
C872 H859 0.960 . S
C872 C871 1.524 . S
C873 C870 1.403 1_545 S
C873 C874 1.392 . S
C873 C877 1.495 . S
C874 C873 1.392 . S
C874 C875 1.385 . S
C874 C876 1.478 . S
C875 H869 0.930 . S
C875 C871 1.400 1_545 S
C875 C874 1.385 . S
C876 C874 1.478 . S
C876 C878 1.381 . S
C876 C882 1.383 . S
C877 C873 1.495 . S
C877 H883 0.959 . S
C877 H884 0.961 . S
C877 H885 0.960 . S
C878 C876 1.381 . S
C878 C879 1.394 . S
C878 H886 0.930 . S
C879 C878 1.394 . S
C879 C880 1.383 . S
C879 H887 0.929 . S
C880 C879 1.383 . S
C880 C881 1.377 . S
C881 H865 0.930 . S
C881 C880 1.377 . S
C881 C882 1.379 . S
C882 H866 0.931 . S
C882 C876 1.383 . S
C882 C881 1.379 . S
H883 C877 0.959 . S
H884 C877 0.961 . S
H885 C877 0.960 . S
H886 C878 0.930 . S
H887 C879 0.929 . S
H888 C896 0.929 . S
H889 C898 0.930 . S
H890 C900 0.930 . S
H891 C903 0.929 . S
H892 C906 0.930 . S
H893 C908 0.960 . S
H894 C908 0.960 . S
H895 C908 0.960 . S
C896 H888 0.929 . S
C896 C897 1.377 . S
C896 C898 1.384 . S
C897 C896 1.377 . S
C897 C903 1.390 . S
C898 H889 0.930 . S
C898 C896 1.384 . S
C898 C899 1.372 . S
C899 C898 1.372 . S
C899 C900 1.400 . S
C899 C904 1.490 . S
C900 H890 0.930 . S
C900 C899 1.400 . S
C900 C903 1.386 . S
H901 C917 0.930 . S
H902 C918 0.931 . S
C903 H891 0.929 . S
C903 C897 1.390 . S
C903 C900 1.386 . S
C904 C899 1.490 . S
C904 C906 1.395 . S
C904 C907 1.403 . S
H905 C911 0.930 . S
C906 H892 0.930 . S
C906 C904 1.395 . S
C906 C909 1.403 . S
C907 C904 1.403 . S
C907 C908 1.524 . S
C907 C911 1.400 . S
C908 H893 0.960 . S
C908 H894 0.960 . S
C908 H895 0.960 . S
C908 C907 1.524 . S
C909 C906 1.403 . S
C909 C910 1.392 . S
C909 C913 1.495 . S
C910 C909 1.392 . S
C910 C911 1.385 . S
C910 C912 1.478 . S
C911 H905 0.930 . S
C911 C907 1.400 . S
C911 C910 1.385 . S
C912 C910 1.478 . S
C912 C914 1.381 . S
C912 C918 1.383 . S
C913 C909 1.495 . S
C913 H919 0.959 . S
C913 H920 0.961 . S
C913 H921 0.960 . S
C914 C912 1.381 . S
C914 C915 1.394 . S
C914 H922 0.930 . S
C915 C914 1.394 . S
C915 C916 1.383 . S
C915 H923 0.929 . S
C916 C915 1.383 . S
C916 C917 1.377 . S
C917 H901 0.930 . S
C917 C916 1.377 . S
C917 C918 1.379 . S
C918 H902 0.931 . S
C918 C912 1.383 . S
C918 C917 1.379 . S
H919 C913 0.959 . S
H920 C913 0.961 . S
H921 C913 0.960 . S
H922 C914 0.930 . S
H923 C915 0.929 . S
H924 C932 0.929 . S
H925 C934 0.930 . S
H926 C936 0.930 . S
H927 C939 0.929 . S
H928 C942 0.930 . S
H929 C944 0.960 1_655 S
H930 C944 0.960 . S
H931 C944 0.960 . S
C932 H924 0.929 . S
C932 C933 1.377 . S
C932 C934 1.384 . S
C933 C932 1.377 . S
C933 C939 1.390 . S
C934 H925 0.930 . S
C934 C932 1.384 . S
C934 C935 1.372 . S
C935 C934 1.372 . S
C935 C936 1.400 . S
C935 C940 1.490 . S
C936 H926 0.930 . S
C936 C935 1.400 . S
C936 C939 1.386 . S
H937 C953 0.930 . S
H938 C954 0.931 . S
C939 H927 0.929 . S
C939 C933 1.390 . S
C939 C936 1.386 . S
C940 C935 1.490 . S
C940 C942 1.395 . S
C940 C943 1.403 . S
H941 C947 0.930 . S
C942 H928 0.930 . S
C942 C940 1.395 . S
C942 C945 1.403 1_455 S
C943 C940 1.403 . S
C943 C944 1.524 . S
C943 C947 1.400 1_455 S
C944 H929 0.960 1_455 S
C944 H930 0.960 . S
C944 H931 0.960 . S
C944 C943 1.524 . S
C945 C942 1.403 1_655 S
C945 C946 1.392 . S
C945 C949 1.495 . S
C946 C945 1.392 . S
C946 C947 1.385 . S
C946 C948 1.478 . S
C947 H941 0.930 . S
C947 C943 1.400 1_655 S
C947 C946 1.385 . S
C948 C946 1.478 . S
C948 C950 1.381 . S
C948 C954 1.383 . S
C949 C945 1.495 . S
C949 H955 0.959 1_655 S
C949 H956 0.961 . S
C949 H957 0.960 . S
C950 C948 1.381 . S
C950 C951 1.394 . S
C950 H958 0.930 . S
C951 C950 1.394 . S
C951 C952 1.383 . S
C951 H959 0.929 . S
C952 C951 1.383 . S
C952 C953 1.377 . S
C953 H937 0.930 . S
C953 C952 1.377 . S
C953 C954 1.379 . S
C954 H938 0.931 . S
C954 C948 1.383 . S
C954 C953 1.379 . S
H955 C949 0.959 1_455 S
H956 C949 0.961 . S
H957 C949 0.960 . S
H958 C950 0.930 . S
H959 C951 0.929 . S
H960 C968 0.929 . S
H961 C970 0.930 . S
H962 C972 0.930 . S
H963 C975 0.929 . S
H964 C978 0.930 . S
H965 C980 0.928 1_565 S
H966 C980 0.951 . S
H967 C980 1.024 . S
C968 H960 0.929 . S
C968 C969 1.377 . S
C968 C970 1.384 . S
C969 C968 1.377 . S
C969 C975 1.390 . S
C970 H961 0.930 . S
C970 C968 1.384 . S
C970 C971 1.372 . S
C971 C970 1.372 . S
C971 C972 1.400 . S
C971 C976 1.490 . S
C972 H962 0.930 . S
C972 C971 1.400 . S
C972 C975 1.386 . S
H973 C989 0.930 . S
H974 C990 0.931 . S
C975 H963 0.929 . S
C975 C969 1.390 . S
C975 C972 1.386 . S
C976 C971 1.490 . S
C976 C978 1.395 . S
C976 C979 1.403 . S
H977 C983 0.930 . S
C978 H964 0.930 . S
C978 C976 1.395 . S
C978 C981 1.375 1_545 S
C979 C976 1.403 . S
C979 C980 1.507 . S
C979 C983 1.400 1_545 S
C980 H965 0.928 1_545 S
C980 H966 0.951 . S
C980 H967 1.024 . S
C980 C979 1.507 . S
C981 C978 1.375 1_565 S
C981 C982 1.408 . S
C981 C985 1.490 . S
C982 C981 1.408 . S
C982 C983 1.385 . S
C982 C984 1.478 . S
C983 H977 0.930 . S
C983 C979 1.400 1_565 S
C983 C982 1.385 . S
C984 C982 1.478 . S
C984 C986 1.381 . S
C984 C990 1.383 . S
C985 C981 1.490 . S
C985 H991 0.931 1_565 S
C985 H992 0.954 . S
C985 H993 1.016 . S
C986 C984 1.381 . S
C986 C987 1.394 . S
C986 H994 0.930 . S
C987 C986 1.394 . S
C987 C988 1.383 . S
C987 H995 0.929 . S
C988 C987 1.383 . S
C988 C989 1.377 . S
C989 H973 0.930 . S
C989 C988 1.377 . S
C989 C990 1.379 . S
C990 H974 0.931 . S
C990 C984 1.383 . S
C990 C989 1.379 . S
H991 C985 0.931 1_545 S
H992 C985 0.954 . S
H993 C985 1.016 . S
H994 C986 0.930 . S
H995 C987 0.929 . S
H996 C1004 0.929 . S
H997 C1006 0.930 . S
H998 C1008 0.930 . S
H999 C1011 0.929 . S
H1000 C1014 0.930 . S
H1001 C1016 0.960 . S
H1002 C1016 0.960 . S
H1003 C1016 0.960 . S
C1004 H996 0.929 . S
C1004 C1005 1.377 . S
C1004 C1006 1.384 . S
C1005 C1004 1.377 . S
C1005 C1011 1.390 . S
C1006 H997 0.930 . S
C1006 C1004 1.384 . S
C1006 C1007 1.372 . S
C1007 C1006 1.372 . S
C1007 C1008 1.400 . S
C1007 C1012 1.490 . S
C1008 H998 0.930 . S
C1008 C1007 1.400 . S
C1008 C1011 1.386 . S
H1009 C1025 0.930 . S
H1010 C1026 0.931 . S
C1011 H999 0.929 . S
C1011 C1005 1.390 . S
C1011 C1008 1.386 . S
C1012 C1007 1.490 . S
C1012 C1014 1.395 . S
C1012 C1015 1.403 . S
H1013 C1019 0.930 . S
C1014 H1000 0.930 . S
C1014 C1012 1.395 . S
C1014 C1017 1.403 . S
C1015 C1012 1.403 . S
C1015 C1016 1.524 . S
C1015 C1019 1.400 . S
C1016 H1001 0.960 . S
C1016 H1002 0.960 . S
C1016 H1003 0.960 . S
C1016 C1015 1.524 . S
C1017 C1014 1.403 . S
C1017 C1018 1.392 . S
C1017 C1021 1.495 . S
C1018 C1017 1.392 . S
C1018 C1019 1.385 . S
C1018 C1020 1.478 . S
C1019 H1013 0.930 . S
C1019 C1015 1.400 . S
C1019 C1018 1.385 . S
C1020 C1018 1.478 . S
C1020 C1022 1.381 . S
C1020 C1026 1.383 . S
C1021 C1017 1.495 . S
C1021 H1027 0.959 . S
C1021 H1028 0.961 . S
C1021 H1029 0.960 . S
C1022 C1020 1.381 . S
C1022 C1023 1.394 . S
C1022 H1030 0.930 . S
C1023 C1022 1.394 . S
C1023 C1024 1.383 . S
C1023 H1031 0.929 . S
C1024 C1023 1.383 . S
C1024 C1025 1.377 . S
C1025 H1009 0.930 . S
C1025 C1024 1.377 . S
C1025 C1026 1.379 . S
C1026 H1010 0.931 . S
C1026 C1020 1.383 . S
C1026 C1025 1.379 . S
H1027 C1021 0.959 . S
H1028 C1021 0.961 . S
H1029 C1021 0.960 . S
H1030 C1022 0.930 . S
H1031 C1023 0.929 . S
C177 C9 1.433 . S
C196 C149 1.439 . S
C213 C163 1.428 . S
C232 C23 1.437 . S
C249 C37 1.432 . S
C268 C93 1.448 . S
C285 C51 1.426 . S
C304 C107 1.425 . S
C321 C65 1.424 . S
C340 C121 1.414 . S
C357 C135 1.433 . S
C376 C79 1.448 . S
C393 C7 1.603 . S
C412 C119 1.622 . S
C429 C21 1.610 . S
C448 C133 1.602 . S
C465 C147 1.603 . S
C484 C35 1.618 . S
C501 C49 1.608 . S
C520 C161 1.616 . S
C537 C63 1.603 . S
C556 C91 1.601 . S
C573 C77 1.605 . S
C592 C105 1.622 . S
C609 C143 1.338 . S
C628 C3 1.333 . S
C645 C17 1.337 . S
C664 C157 1.338 . S
C681 C31 1.337 . S
C700 C87 1.336 . S
C717 C45 1.338 . S
C736 C101 1.332 . S
C753 C115 1.337 . S
C772 C59 1.337 . S
C789 C73 1.337 . S
C808 C129 1.336 . S
C825 C8 1.351 . S
C844 C162 1.353 . S
C861 C92 1.354 . S
C880 C22 1.351 . S
C897 C106 1.354 . S
C916 C36 1.345 . S
C933 C120 1.351 . S
C952 C50 1.354 . S
C969 C134 1.354 . S
C988 C64 1.355 . S
C1005 C148 1.351 . S
C1024 C78 1.351 . S
