# Generated by pormake.
# Topology umx, (4)-cn, num edge types: 1
# Building blocks:
#     Node 0, Type 0, BuildingBlock: QUQFOY_clean_sbu_3, # of connection points: 4
#     Node 1, Type 0, BuildingBlock: QUQFOY_clean_sbu_3, # of connection points: 4
#     Node 2, Type 0, BuildingBlock: QUQFOY_clean_sbu_3, # of connection points: 4
#     Node 3, Type 0, BuildingBlock: QUQFOY_clean_sbu_3, # of connection points: 4
#     Node 4, Type 0, BuildingBlock: QUQFOY_clean_sbu_3, # of connection points: 4
#     Node 5, Type 0, BuildingBlock: QUQFOY_clean_sbu_3, # of connection points: 4
#     Node 6, Type 0, BuildingBlock: QUQFOY_clean_sbu_3, # of connection points: 4
#     Node 7, Type 0, BuildingBlock: QUQFOY_clean_sbu_3, # of connection points: 4
#     Edge 8, Type (0, 0), BuildingBlock: FUNLAD_clean_linker_0, # of connection points: 2
#     Edge 9, Type (0, 0), BuildingBlock: FUNLAD_clean_linker_0, # of connection points: 2
#     Edge 10, Type (0, 0), BuildingBlock: FUNLAD_clean_linker_0, # of connection points: 2
#     Edge 11, Type (0, 0), BuildingBlock: FUNLAD_clean_linker_0, # of connection points: 2
#     Edge 12, Type (0, 0), BuildingBlock: FUNLAD_clean_linker_0, # of connection points: 2
#     Edge 13, Type (0, 0), BuildingBlock: FUNLAD_clean_linker_0, # of connection points: 2
#     Edge 14, Type (0, 0), BuildingBlock: FUNLAD_clean_linker_0, # of connection points: 2
#     Edge 15, Type (0, 0), BuildingBlock: FUNLAD_clean_linker_0, # of connection points: 2
#     Edge 16, Type (0, 0), BuildingBlock: FUNLAD_clean_linker_0, # of connection points: 2
#     Edge 17, Type (0, 0), BuildingBlock: FUNLAD_clean_linker_0, # of connection points: 2
#     Edge 18, Type (0, 0), BuildingBlock: FUNLAD_clean_linker_0, # of connection points: 2
#     Edge 19, Type (0, 0), BuildingBlock: FUNLAD_clean_linker_0, # of connection points: 2
#     Edge 20, Type (0, 0), BuildingBlock: FUNLAD_clean_linker_0, # of connection points: 2
#     Edge 21, Type (0, 0), BuildingBlock: FUNLAD_clean_linker_0, # of connection points: 2
#     Edge 22, Type (0, 0), BuildingBlock: FUNLAD_clean_linker_0, # of connection points: 2
#     Edge 23, Type (0, 0), BuildingBlock: FUNLAD_clean_linker_0, # of connection points: 2
# Relax obj value: 0.078
# Max RMSD: 0.191
# Mean RMSD: 0.191
data_MOF--net-umx--node1-QUQFOY_clean_sbu_3--edge1-FUNLAD_clean_linker_0
_symmetry_space_group_name_H-M    P1
_symmetry_Int_Tables_number       1
_symmetry_cell_setting            triclinic
loop_
_symmetry_equiv_pos_as_xyz
'x, y, z'
_cell_length_a     47.538166
_cell_length_b     47.50957
_cell_length_c     34.224035
_cell_angle_alpha  90.9557
_cell_angle_beta   90.184452
_cell_angle_gamma 89.614204
loop_
_atom_site_label
_atom_site_type_symbol
_atom_site_fract_x
_atom_site_fract_y
_atom_site_fract_z
_atom_type_partial_charge
C0 C 0.18363 0.477 0.91424 0.0
O1 O 0.18268 0.49779 0.93802 0.0
Cd2 Cd 0.17119 0.49128 0.00636 0.0
O3 O 0.17949 0.45223 0.92636 0.0
Cd4 Cd 0.17011 0.42672 -0.01306 0.0
C5 C 0.10709 0.45909 -0.00313 0.0
O6 O 0.19849 0.4541 0.03479 0.0
O7 O 0.16947 0.42347 0.05724 0.0
O8 O 0.20666 0.39685 0.96062 0.0
C9 C 0.18875 0.4412 0.06404 0.0
O10 O 0.12143 0.47993 0.00935 0.0
C11 C 0.19444 0.37355 0.96557 0.0
O12 O 0.11906 0.43699 -0.01702 0.0
O13 O 0.16988 0.37455 -0.01975 0.0
C14 C 0.49022 0.1961 0.40355 0.0
O15 O 0.46858 0.19403 0.42489 0.0
Cd16 Cd 0.47258 0.16921 0.48572 0.0
O17 O 0.51401 0.18768 0.41597 0.0
Cd18 Cd 0.53792 0.16886 0.47387 0.0
C19 C 0.50548 0.10775 0.4537 0.0
O20 O 0.5089 0.1876 0.52802 0.0
O21 O 0.53767 0.1533 0.54033 0.0
O22 O 0.56592 0.21001 0.46674 0.0
C23 C 0.52005 0.17137 0.55302 0.0
O24 O 0.48373 0.12088 0.4661 0.0
C25 C 0.58987 0.19813 0.46737 0.0
O26 O 0.52912 0.1202 0.45133 0.0
O27 O 0.59024 0.17147 0.47078 0.0
C28 C 0.77017 0.49223 0.91666 0.0
O29 O 0.77061 0.47052 0.93782 0.0
Cd30 Cd 0.78565 0.47348 0.0053 0.0
O31 O 0.77651 0.51619 0.93118 0.0
Cd32 Cd 0.78983 0.54096 -0.00793 0.0
C33 C 0.85101 0.50372 -0.00832 0.0
O34 O 0.7619 0.51245 0.03605 0.0
O35 O 0.7905 0.54218 0.06307 0.0
O36 O 0.75422 0.57211 0.96765 0.0
C37 C 0.77184 0.52351 0.06714 0.0
O38 O 0.83589 0.48301 0.00168 0.0
C39 C 0.76706 0.59502 0.97415 0.0
O40 O 0.83987 0.5275 -0.01628 0.0
O41 O 0.79151 0.59324 -0.01075 0.0
C42 C 0.47208 0.7647 0.3945 0.0
O43 O 0.49411 0.76659 0.41539 0.0
Cd44 Cd 0.49268 0.7894 0.47878 0.0
O45 O 0.44846 0.77282 0.40815 0.0
Cd46 Cd 0.42751 0.7914 0.4694 0.0
C47 C 0.46116 0.85259 0.45554 0.0
O48 O 0.45727 0.76966 0.51991 0.0
O49 O 0.4308 0.80483 0.53758 0.0
O50 O 0.39515 0.75289 0.46465 0.0
C51 C 0.44746 0.78519 0.54733 0.0
O52 O 0.48292 0.83887 0.46614 0.0
C53 C 0.37262 0.76731 0.46607 0.0
O54 O 0.43744 0.84038 0.45196 0.0
O55 O 0.37525 0.79395 0.46804 0.0
C56 C 0.18988 0.48921 0.55252 0.0
O57 O 0.19324 0.46843 0.52916 0.0
Cd58 Cd 0.18015 0.4723 0.46111 0.0
O59 O 0.18227 0.51301 0.53951 0.0
Cd60 Cd 0.17255 0.53702 0.47734 0.0
C61 C 0.11293 0.49939 0.47229 0.0
O62 O 0.20274 0.51098 0.42992 0.0
O63 O 0.17042 0.53864 0.4072 0.0
O64 O 0.20648 0.56907 0.50469 0.0
C65 C 0.19117 0.5224 0.4005 0.0
O66 O 0.1294 0.47921 0.46261 0.0
C67 C 0.19347 0.59165 0.49671 0.0
O68 O 0.12269 0.52357 0.48158 0.0
O69 O 0.1696 0.58921 0.48009 0.0
C70 C 0.46209 0.20766 0.05301 0.0
O71 O 0.48508 0.20753 0.03427 0.0
Cd72 Cd 0.48932 0.18318 0.97224 0.0
O73 O 0.44022 0.19672 0.03775 0.0
Cd74 Cd 0.42497 0.17379 -0.02397 0.0
C75 C 0.46564 0.11711 -0.00495 0.0
O76 O 0.45363 0.19688 0.92635 0.0
O77 O 0.43368 0.15749 0.91 0.0
O78 O 0.38732 0.20653 0.96364 0.0
C79 C 0.44734 0.17899 0.8997 0.0
O80 O 0.48594 0.13319 -0.01364 0.0
C81 C 0.3672 0.19006 0.97067 0.0
O82 O 0.4404 0.12643 -0.0045 0.0
O83 O 0.3735 0.16525 -0.01882 0.0
C84 C 0.77466 0.46664 0.55886 0.0
O85 O 0.7719 0.48917 0.53973 0.0
Cd86 Cd 0.78677 0.49123 0.47256 0.0
O87 O 0.78322 0.44414 0.54192 0.0
Cd88 Cd 0.79639 0.42409 0.47759 0.0
C89 C 0.85451 0.46455 0.4828 0.0
O90 O 0.76594 0.45315 0.43625 0.0
O91 O 0.79724 0.42709 0.40721 0.0
O92 O 0.7637 0.38928 0.49874 0.0
C93 C 0.77695 0.44439 0.40447 0.0
O94 O 0.83762 0.48496 0.47672 0.0
C95 C 0.77776 0.36775 0.48804 0.0
O96 O 0.84544 0.43946 0.48601 0.0
O97 O 0.80161 0.37205 0.47251 0.0
C98 C 0.50276 0.76912 0.04286 0.0
O99 O 0.48033 0.76972 0.02269 0.0
Cd100 Cd 0.47829 0.79382 0.96127 0.0
O101 O 0.52527 0.77961 0.02955 0.0
Cd102 Cd 0.54336 0.80259 0.97067 0.0
C103 C 0.50249 0.85971 -0.01145 0.0
O104 O 0.51572 0.78088 0.91754 0.0
O105 O 0.53706 0.81998 0.90553 0.0
O106 O 0.5808 0.76947 0.95762 0.0
C107 C 0.52278 0.79926 0.89282 0.0
O108 O 0.48245 0.84365 -0.02219 0.0
C109 C 0.60091 0.78495 0.96899 0.0
O110 O 0.52767 0.8503 -0.00928 0.0
O111 O 0.59469 0.80944 -0.01801 0.0
C112 C 0.21354 0.47166 0.11392 0.0
C113 C 0.19798 0.4474 0.1046 0.0
C114 C 0.21995 0.47844 0.15295 0.0
C115 C 0.21099 0.46094 0.18329 0.0
C116 C 0.19676 0.43601 0.17362 0.0
C117 C 0.19012 0.42942 0.13481 0.0
C118 C 0.21484 0.46842 0.22533 0.0
C119 C 0.21494 0.49522 0.23878 0.0
C120 C 0.21187 0.50274 0.28089 0.0
C121 C 0.19737 0.52761 0.29088 0.0
C122 C 0.19132 0.5342 0.32983 0.0
C123 C 0.20012 0.51632 0.35986 0.0
H124 H 0.2337 0.46638 0.3044 0.0
C125 C 0.21604 0.49218 0.35021 0.0
C126 C 0.22178 0.48535 0.31101 0.0
H127 H 0.22325 0.47812 0.3728 0.0
H128 H 0.2201 0.48579 0.09122 0.0
H129 H 0.23167 0.49743 0.15923 0.0
H130 H 0.18982 0.42204 0.19631 0.0
H131 H 0.17838 0.4104 0.12855 0.0
H132 H 0.21372 0.45138 0.24604 0.0
H133 H 0.21332 0.51227 0.21813 0.0
H134 H 0.1897 0.5415 0.26835 0.0
H135 H 0.17929 0.55314 0.33636 0.0
C136 C 0.49457 0.19357 0.61014 0.0
C137 C 0.51214 0.17222 0.59477 0.0
C138 C 0.48691 0.1936 0.64966 0.0
C139 C 0.49663 0.17217 0.67435 0.0
C140 C 0.51413 0.15094 0.65884 0.0
C141 C 0.52198 0.15106 0.61965 0.0
C142 C 0.48777 0.17009 0.7157 0.0
C143 C 0.47999 0.19225 0.73829 0.0
C144 C 0.47129 0.18883 0.77958 0.0
C145 C 0.4768 0.2103 0.80718 0.0
C146 C 0.46924 0.20717 0.84638 0.0
C147 C 0.45566 0.18262 0.8585 0.0
H148 H 0.45179 0.14794 0.77099 0.0
C149 C 0.4496 0.16145 0.83065 0.0
C150 C 0.45725 0.16452 0.79167 0.0
H151 H 0.43887 0.14241 0.83891 0.0
H152 H 0.4866 0.21009 0.59162 0.0
H153 H 0.47283 0.20994 0.66042 0.0
H154 H 0.52175 0.13409 0.67712 0.0
H155 H 0.53548 0.13425 0.60876 0.0
H156 H 0.48897 0.14934 0.72855 0.0
H157 H 0.48142 0.21345 0.72712 0.0
H158 H 0.48733 0.22935 0.79852 0.0
H159 H 0.47398 0.22395 0.86712 0.0
C160 C 0.77753 0.44151 0.33171 0.0
C161 C 0.76826 0.45521 0.36603 0.0
C162 C 0.77152 0.45269 0.29518 0.0
C163 C 0.75611 0.47794 0.29213 0.0
C164 C 0.7464 0.4914 0.32642 0.0
C165 C 0.75216 0.48 0.36307 0.0
C166 C 0.75254 0.49201 0.254 0.0
C167 C 0.75216 0.47775 0.21964 0.0
C168 C 0.75427 0.49157 0.18118 0.0
C169 C 0.7447 0.47721 0.14754 0.0
C170 C 0.74942 0.48809 0.11042 0.0
C171 C 0.76427 0.51332 0.10625 0.0
H172 H 0.77675 0.52862 0.20206 0.0
C173 C 0.77329 0.52802 0.13992 0.0
C174 C 0.76834 0.5173 0.17699 0.0
H175 H 0.78482 0.54751 0.13763 0.0
H176 H 0.79003 0.42239 0.33306 0.0
H177 H 0.78011 0.44211 0.26959 0.0
H178 H 0.73476 0.51104 0.32488 0.0
H179 H 0.74487 0.49109 0.38907 0.0
H180 H 0.75085 0.51482 0.25438 0.0
H181 H 0.75098 0.45492 0.2195 0.0
H182 H 0.73407 0.45721 0.14994 0.0
H183 H 0.7423 0.47624 0.08499 0.0
C184 C 0.50038 0.77366 0.83599 0.0
C185 C 0.51352 0.7978 0.85156 0.0
C186 C 0.49152 0.7728 0.7969 0.0
C187 C 0.49556 0.79618 0.77284 0.0
C188 C 0.50855 0.82025 0.78859 0.0
C189 C 0.51763 0.82099 0.82736 0.0
C190 C 0.4853 0.79704 0.73191 0.0
C191 C 0.48214 0.77414 0.70862 0.0
C192 C 0.47235 0.77643 0.66753 0.0
C193 C 0.48234 0.75731 0.639 0.0
C194 C 0.47425 0.75994 0.59982 0.0
C195 C 0.45571 0.78156 0.58866 0.0
H196 H 0.44421 0.812 0.67784 0.0
C197 C 0.44501 0.80007 0.61749 0.0
C198 C 0.45315 0.79751 0.65645 0.0
H199 H 0.43039 0.81673 0.60999 0.0
H200 H 0.49685 0.7555 0.85401 0.0
H201 H 0.48097 0.75415 0.78598 0.0
H202 H 0.51172 0.83861 0.7708 0.0
H203 H 0.52759 0.83996 0.83845 0.0
H204 H 0.48161 0.81777 0.71986 0.0
H205 H 0.48848 0.75355 0.71892 0.0
H206 H 0.4969 0.74069 0.64688 0.0
H207 H 0.48266 0.74521 0.5783 0.0
C208 C 0.76253 0.49152 0.62197 0.0
C209 C 0.76898 0.46647 0.60141 0.0
C210 C 0.75929 0.49152 0.66259 0.0
C211 C 0.7622 0.46634 0.68351 0.0
C212 C 0.76805 0.44128 0.66274 0.0
C213 C 0.77132 0.44129 0.62222 0.0
C214 C 0.76155 0.46551 0.72695 0.0
C215 C 0.75045 0.48603 0.74989 0.0
C216 C 0.75347 0.48656 0.79311 0.0
C217 C 0.75399 0.51276 0.81257 0.0
C218 C 0.7589 0.51449 0.85274 0.0
C219 C 0.76302 0.48998 0.87458 0.0
H220 H 0.75522 0.44128 0.80138 0.0
C221 C 0.76119 0.46363 0.85547 0.0
C222 C 0.75647 0.46191 0.81512 0.0
H223 H 0.76397 0.44435 0.87152 0.0
H224 H 0.76075 0.51131 0.60687 0.0
H225 H 0.75556 0.51149 0.67729 0.0
H226 H 0.77055 0.42161 0.67799 0.0
H227 H 0.77622 0.42157 0.60734 0.0
H228 H 0.77166 0.44754 0.74041 0.0
H229 H 0.74043 0.50416 0.73678 0.0
H230 H 0.75145 0.53205 0.79644 0.0
H231 H 0.75984 0.53514 0.86657 0.0
C232 C 0.47676 0.75232 0.1017 0.0
C233 C 0.50231 0.75883 0.08351 0.0
C234 C 0.47592 0.74667 0.14167 0.0
C235 C 0.50076 0.74719 0.16433 0.0
C236 C 0.52641 0.75227 0.14556 0.0
C237 C 0.52722 0.75799 0.1057 0.0
C238 C 0.50078 0.74551 0.20779 0.0
C239 C 0.47855 0.73774 0.22939 0.0
C240 C 0.47755 0.74151 0.27261 0.0
C241 C 0.4513 0.74593 0.2904 0.0
C242 C 0.44947 0.75257 0.33022 0.0
C243 C 0.47391 0.75469 0.35332 0.0
H244 H 0.52247 0.73771 0.28388 0.0
C245 C 0.5001 0.74866 0.33603 0.0
C246 C 0.50192 0.74207 0.29612 0.0
H247 H 0.51931 0.74971 0.35309 0.0
H248 H 0.45716 0.75283 0.08548 0.0
H249 H 0.45556 0.74328 0.15461 0.0
H250 H 0.54589 0.75279 0.16209 0.0
H251 H 0.54732 0.76274 0.09262 0.0
H252 H 0.51965 0.75289 0.22256 0.0
H253 H 0.45943 0.73063 0.21514 0.0
H254 H 0.43215 0.74532 0.27314 0.0
H255 H 0.42891 0.75678 0.34262 0.0
C256 C 0.19341 0.45794 0.84692 0.0
C257 C 0.18897 0.48127 0.87205 0.0
C258 C 0.19726 0.46152 0.80686 0.0
C259 C 0.19642 0.48859 0.79071 0.0
C260 C 0.19278 0.51194 0.81604 0.0
C261 C 0.18908 0.50836 0.85623 0.0
C262 C 0.19912 0.49349 0.7479 0.0
C263 C 0.19537 0.47334 0.72007 0.0
C264 C 0.19609 0.47855 0.67725 0.0
C265 C 0.20014 0.45555 0.65146 0.0
C266 C 0.19896 0.45906 0.61097 0.0
C267 C 0.19343 0.48568 0.59528 0.0
H268 H 0.18701 0.52351 0.68008 0.0
C269 C 0.18981 0.50881 0.62105 0.0
C270 C 0.19104 0.50531 0.66151 0.0
H271 H 0.18537 0.52961 0.61002 0.0
H272 H 0.19388 0.43677 0.85817 0.0
H273 H 0.20103 0.44291 0.78903 0.0
H274 H 0.1923 0.53308 0.80462 0.0
H275 H 0.18583 0.5268 0.87474 0.0
H276 H 0.2036 0.51485 0.73924 0.0
H277 H 0.19108 0.4519 0.72848 0.0
H278 H 0.20388 0.43466 0.66268 0.0
H279 H 0.20176 0.44077 0.59204 0.0
C280 C 0.46168 0.21073 0.34522 0.0
C281 C 0.48799 0.2069 0.36329 0.0
C282 C 0.45996 0.2178 0.30571 0.0
C283 C 0.48461 0.22142 0.28355 0.0
C284 C 0.51078 0.21879 0.30227 0.0
C285 C 0.51249 0.21164 0.34157 0.0
C286 C 0.48442 0.22514 0.24041 0.0
C287 C 0.46141 0.23115 0.21889 0.0
C288 C 0.46138 0.22933 0.17544 0.0
C289 C 0.43642 0.22172 0.15614 0.0
C290 C 0.43633 0.21598 0.11597 0.0
C291 C 0.46124 0.21795 0.09413 0.0
H292 H 0.50523 0.24036 0.1666 0.0
C293 C 0.48577 0.22758 0.11292 0.0
C294 C 0.48584 0.23333 0.15312 0.0
H295 H 0.50521 0.22978 0.09687 0.0
H296 H 0.44241 0.20718 0.36114 0.0
H297 H 0.4393 0.21917 0.29264 0.0
H298 H 0.53013 0.22144 0.28612 0.0
H299 H 0.53312 0.2091 0.35461 0.0
H300 H 0.50419 0.2209 0.22559 0.0
H301 H 0.44136 0.23496 0.23306 0.0
H302 H 0.41718 0.21888 0.17248 0.0
H303 H 0.41695 0.20893 0.10239 0.0
C304 C 0.89455 0.47653 0.0078 0.0
C305 C 0.88183 0.49935 -0.01126 0.0
C306 C 0.92335 0.47133 0.00424 0.0
C307 C 0.94016 0.48872 -0.01873 0.0
C308 C 0.9275 0.51135 0.96183 0.0
C309 C 0.89863 0.51686 0.9659 0.0
C310 C 0.97078 0.48316 -0.02326 0.0
C311 C -0.01332 0.47354 0.00633 0.0
C312 C 0.01744 0.46911 0.00308 0.0
C313 C 0.03465 0.47736 0.03449 0.0
C314 C 0.06377 0.47384 0.03234 0.0
C315 C 0.07617 0.46105 -0.00069 0.0
H316 H 0.01679 0.44911 0.94566 0.0
C317 C 0.05892 0.45179 0.96835 0.0
C318 C 0.02973 0.45613 0.96998 0.0
H319 H 0.06806 0.44197 0.94252 0.0
H320 H 0.88221 0.46255 0.02552 0.0
H321 H 0.93231 0.45332 0.0189 0.0
H322 H 0.94001 0.52494 0.94375 0.0
H323 H 0.8894 0.53443 0.95056 0.0
H324 H 0.98072 0.48867 0.94937 0.0
H325 H 0.9773 0.47096 0.03496 0.0
H326 H 0.0256 0.48714 0.06041 0.0
H327 H 0.07664 0.48105 0.05666 0.0
C328 C 0.49033 0.89604 0.45017 0.0
C329 C 0.46376 0.88318 0.44842 0.0
C330 C 0.49299 0.92506 0.44578 0.0
C331 C 0.46911 0.94202 0.43933 0.0
C332 C 0.4426 0.92913 0.43711 0.0
C333 C 0.43993 0.90002 0.44138 0.0
C334 C 0.47074 0.97326 0.43791 0.0
C335 C 0.49432 -0.01253 0.42892 0.0
C336 C 0.4967 0.01871 0.43179 0.0
C337 C 0.52358 0.03077 0.435 0.0
C338 C 0.52668 0.05984 0.44079 0.0
C339 C 0.5029 0.07745 0.4435 0.0
H340 H 0.45197 0.02862 0.42824 0.0
C341 C 0.4761 0.06556 0.4384 0.0
C342 C 0.47301 0.03663 0.43232 0.0
H343 H 0.45733 0.07861 0.43951 0.0
H344 H 0.50916 0.88376 0.45569 0.0
H345 H 0.51372 0.93408 0.44894 0.0
H346 H 0.42381 0.94169 0.43251 0.0
H347 H 0.41915 0.89084 0.43998 0.0
H348 H 0.45172 -0.0153 0.44576 0.0
H349 H 0.51321 0.97585 0.42084 0.0
H350 H 0.54225 0.01756 0.43421 0.0
H351 H 0.54763 0.06835 0.44442 0.0
C352 C 0.06292 0.51525 0.48386 0.0
C353 C 0.08225 0.49401 0.47317 0.0
C354 C 0.03403 0.50963 0.48483 0.0
C355 C 0.02391 0.4825 0.47529 0.0
C356 C 0.04329 0.46148 0.4643 0.0
C357 C 0.07203 0.46708 0.46333 0.0
C358 C -0.0065 0.47514 0.4752 0.0
C359 C 0.9732 0.49074 0.49255 0.0
C360 C 0.94296 0.48309 0.49076 0.0
C361 C 0.9228 0.50474 0.49213 0.0
C362 C 0.89419 0.49861 0.48961 0.0
C363 C 0.88497 0.47058 0.48629 0.0
H364 H 0.94874 0.43765 0.48837 0.0
C365 C 0.9051 0.44878 0.48606 0.0
C366 C 0.93384 0.45496 0.48823 0.0
H367 H 0.8987 0.42697 0.48387 0.0
H368 H 0.07006 0.53627 0.49136 0.0
H369 H 0.01992 0.52676 0.49246 0.0
H370 H 0.03621 0.44047 0.45654 0.0
H371 H 0.08623 0.45015 0.45484 0.0
H372 H -0.01231 0.45581 0.45991 0.0
H373 H 0.97841 0.51037 0.50737 0.0
H374 H 0.92922 0.52654 0.49449 0.0
H375 H 0.87928 0.51595 0.49029 0.0
C376 C 0.51767 0.90962 0.00227 0.0
C377 C 0.49612 0.88984 -0.00325 0.0
C378 C 0.51128 0.93835 0.00655 0.0
C379 C 0.48309 0.94784 0.00568 0.0
C380 C 0.46165 0.9279 0.0012 0.0
C381 C 0.46802 0.89932 -0.00311 0.0
C382 C 0.47497 0.97819 0.00641 0.0
C383 C 0.49197 -0.00074 0.0183 0.0
C384 C 0.48427 0.02954 0.01481 0.0
C385 C 0.50595 0.0492 0.01137 0.0
C386 C 0.49983 0.07761 0.00561 0.0
C387 C 0.47179 0.08718 0.00357 0.0
H388 H 0.43882 0.02492 0.01822 0.0
C389 C 0.45002 0.06772 0.00862 0.0
C390 C 0.45616 0.0392 0.01425 0.0
H391 H 0.42821 0.07441 0.00766 0.0
H392 H 0.53953 0.90305 0.00209 0.0
H393 H 0.52858 0.95291 0.00905 0.0
H394 H 0.43979 0.93449 0.00034 0.0
H395 H 0.45081 0.88472 -0.00711 0.0
H396 H 0.45413 0.98324 -0.00455 0.0
H397 H 0.51295 -0.0055 0.02895 0.0
H398 H 0.52776 0.04246 0.01211 0.0
H399 H 0.51719 0.09202 0.00225 0.0
C400 C 0.20076 0.32111 0.97194 0.0
C401 C 0.20919 0.3468 0.95605 0.0
C402 C 0.2171 0.29668 0.96608 0.0
C403 C 0.24205 0.29763 0.94399 0.0
C404 C 0.24945 0.32307 0.92659 0.0
C405 C 0.23339 0.34734 0.93271 0.0
C406 C 0.26179 0.27339 0.93907 0.0
C407 C 0.263 0.25084 0.96253 0.0
C408 C 0.28714 0.23055 0.96152 0.0
C409 C 0.29413 0.21571 -0.00449 0.0
C410 C 0.31941 0.20042 -0.00223 0.0
C411 C 0.33807 0.19999 0.96613 0.0
H412 H 0.29953 0.23711 0.90107 0.0
C413 C 0.33017 0.21289 0.93124 0.0
C414 C 0.30471 0.22749 0.9286 0.0
H415 H 0.34418 0.21244 0.90631 0.0
H416 H 0.18209 0.32008 -0.01008 0.0
H417 H 0.21023 0.27735 -0.02084 0.0
H418 H 0.26836 0.32448 0.90912 0.0
H419 H 0.24032 0.36673 0.91971 0.0
H420 H 0.27813 0.27611 0.91746 0.0
H421 H 0.24801 0.24898 -0.01384 0.0
H422 H 0.28085 0.21727 0.02112 0.0
H423 H 0.32521 0.19062 0.02502 0.0
C424 C 0.74268 0.33563 0.51663 0.0
C425 C 0.76532 0.33946 0.49109 0.0
C426 C 0.72692 0.31105 0.51481 0.0
C427 C 0.73319 0.28986 0.487 0.0
C428 C 0.75735 0.29247 0.46384 0.0
C429 C 0.77335 0.31719 0.46582 0.0
C430 C 0.71308 0.26653 0.4797 0.0
C431 C 0.68526 0.2721 0.47865 0.0
C432 C 0.66266 0.25128 0.47132 0.0
C433 C 0.63626 0.26173 0.46006 0.0
C434 C 0.61312 0.24406 0.45727 0.0
C435 C 0.61565 0.21536 0.4659 0.0
H436 H 0.6857 0.21357 0.48758 0.0
C437 C 0.64231 0.20442 0.47558 0.0
C438 C 0.66571 0.22228 0.47835 0.0
H439 H 0.64485 0.18238 0.48247 0.0
H440 H 0.73633 0.35219 0.53697 0.0
H441 H 0.70898 0.30919 0.53403 0.0
H442 H 0.76278 0.27623 0.44254 0.0
H443 H 0.79082 0.31956 0.44593 0.0
H444 H 0.72111 0.24567 0.47235 0.0
H445 H 0.67839 0.29387 0.48236 0.0
H446 H 0.63329 0.28392 0.45435 0.0
H447 H 0.59299 0.25318 0.44937 0.0
C448 C 0.76217 0.64771 -0.0177 0.0
C449 C 0.75328 0.62217 0.96514 0.0
C450 C 0.74687 0.67265 -0.0239 0.0
C451 C 0.72256 0.67235 0.95238 0.0
C452 C 0.71467 0.64698 0.93398 0.0
C453 C 0.72966 0.62223 0.94044 0.0
C454 C 0.70405 0.6973 0.94639 0.0
C455 C 0.70296 0.72034 0.97001 0.0
C456 C 0.6798 0.74161 0.96711 0.0
C457 C 0.67163 0.75701 0.00073 0.0
C458 C 0.64688 0.77325 0.00076 0.0
C459 C 0.6299 0.77406 0.9672 0.0
H460 H 0.6704 0.73499 0.90526 0.0
C461 C 0.63915 0.7606 0.93281 0.0
C462 C 0.66414 0.74506 0.93246 0.0
H463 H 0.62651 0.76134 0.90643 0.0
H464 H 0.78041 0.64826 0.00134 0.0
H465 H 0.75406 0.69189 -0.00993 0.0
H466 H 0.69624 0.64606 0.91528 0.0
H467 H 0.72242 0.60298 0.92643 0.0
H468 H 0.68838 0.6949 0.9235 0.0
H469 H 0.71709 0.72198 -0.0051 0.0
H470 H 0.68348 0.75515 0.02767 0.0
H471 H 0.64004 0.78347 0.02765 0.0
C472 C 0.34421 0.72365 0.46928 0.0
C473 C 0.345 0.75315 0.46746 0.0
C474 C 0.31878 0.70972 0.47339 0.0
C475 C 0.29335 0.72487 0.47579 0.0
C476 C 0.29381 0.75428 0.47227 0.0
C477 C 0.31952 0.76839 0.46855 0.0
C478 C 0.26649 0.70966 0.48127 0.0
C479 C 0.26531 0.68778 0.50577 0.0
C480 C 0.24238 0.66666 0.50744 0.0
C481 C 0.24555 0.64479 0.53423 0.0
C482 C 0.22831 0.62122 0.53224 0.0
C483 C 0.20716 0.61907 0.50372 0.0
H484 H 0.21656 0.6818 0.45938 0.0
C485 C 0.20224 0.64189 0.47895 0.0
C486 C 0.21985 0.66548 0.48056 0.0
H487 H 0.18609 0.64068 0.4566 0.0
H488 H 0.36337 0.71118 0.46815 0.0
H489 H 0.31905 0.68695 0.47465 0.0
H490 H 0.27441 0.76635 0.47344 0.0
H491 H 0.31946 0.79114 0.46698 0.0
H492 H 0.2483 0.71611 0.46436 0.0
H493 H 0.28359 0.68379 0.52415 0.0
H494 H 0.26253 0.64511 0.55544 0.0
H495 H 0.23241 0.60404 0.55195 0.0
loop_
_geom_bond_atom_site_label_1
_geom_bond_atom_site_label_2
_geom_bond_distance
_geom_bond_site_symmetry_2
_ccdc_geom_bond_type
C0 O1 1.306 . S
C0 O3 1.160 . S
O1 C0 1.306 . S
O1 Cd2 2.228 1_556 S
Cd2 O1 2.228 1_554 S
Cd2 O6 2.273 . S
Cd2 O10 2.277 . S
O3 C0 1.160 . S
O3 Cd4 2.203 1_556 S
Cd4 O3 2.203 1_554 S
Cd4 O6 2.411 . S
Cd4 O7 2.333 . S
Cd4 O8 2.352 . S
Cd4 O12 2.277 . S
Cd4 O13 2.356 . S
C5 O10 1.209 . S
C5 O12 1.226 . S
O6 Cd2 2.273 . S
O6 Cd4 2.411 . S
O6 C9 1.320 . S
O7 Cd4 2.333 . S
O7 C9 1.214 . S
O8 Cd4 2.352 . S
O8 C11 1.258 . S
C9 O6 1.320 . S
C9 O7 1.214 . S
O10 Cd2 2.277 . S
O10 C5 1.209 . S
C11 O8 1.258 . S
C11 O13 1.282 . S
O12 Cd4 2.277 . S
O12 C5 1.226 . S
O13 Cd4 2.356 . S
O13 C11 1.282 . S
C14 O15 1.306 . S
C14 O17 1.160 . S
O15 C14 1.306 . S
O15 Cd16 2.228 . S
Cd16 O15 2.228 . S
Cd16 O20 2.273 . S
Cd16 O24 2.277 . S
O17 C14 1.160 . S
O17 Cd18 2.203 . S
Cd18 O17 2.203 . S
Cd18 O20 2.411 . S
Cd18 O21 2.333 . S
Cd18 O22 2.352 . S
Cd18 O26 2.277 . S
Cd18 O27 2.356 . S
C19 O24 1.209 . S
C19 O26 1.226 . S
O20 Cd16 2.273 . S
O20 Cd18 2.411 . S
O20 C23 1.320 . S
O21 Cd18 2.333 . S
O21 C23 1.214 . S
O22 Cd18 2.352 . S
O22 C25 1.258 . S
C23 O20 1.320 . S
C23 O21 1.214 . S
O24 Cd16 2.277 . S
O24 C19 1.209 . S
C25 O22 1.258 . S
C25 O27 1.282 . S
O26 Cd18 2.277 . S
O26 C19 1.226 . S
O27 Cd18 2.356 . S
O27 C25 1.282 . S
C28 O29 1.306 . S
C28 O31 1.160 . S
O29 C28 1.306 . S
O29 Cd30 2.228 1_556 S
Cd30 O29 2.228 1_554 S
Cd30 O34 2.273 . S
Cd30 O38 2.277 . S
O31 C28 1.160 . S
O31 Cd32 2.203 1_556 S
Cd32 O31 2.203 1_554 S
Cd32 O34 2.411 . S
Cd32 O35 2.333 . S
Cd32 O36 2.352 . S
Cd32 O40 2.277 . S
Cd32 O41 2.356 . S
C33 O38 1.209 . S
C33 O40 1.226 . S
O34 Cd30 2.273 . S
O34 Cd32 2.411 . S
O34 C37 1.320 . S
O35 Cd32 2.333 . S
O35 C37 1.214 . S
O36 Cd32 2.352 . S
O36 C39 1.258 . S
C37 O34 1.320 . S
C37 O35 1.214 . S
O38 Cd30 2.277 . S
O38 C33 1.209 . S
C39 O36 1.258 . S
C39 O41 1.282 . S
O40 Cd32 2.277 . S
O40 C33 1.226 . S
O41 Cd32 2.356 . S
O41 C39 1.282 . S
C42 O43 1.306 . S
C42 O45 1.160 . S
O43 C42 1.306 . S
O43 Cd44 2.228 . S
Cd44 O43 2.228 . S
Cd44 O48 2.273 . S
Cd44 O52 2.277 . S
O45 C42 1.160 . S
O45 Cd46 2.203 . S
Cd46 O45 2.203 . S
Cd46 O48 2.411 . S
Cd46 O49 2.333 . S
Cd46 O50 2.352 . S
Cd46 O54 2.277 . S
Cd46 O55 2.356 . S
C47 O52 1.209 . S
C47 O54 1.226 . S
O48 Cd44 2.273 . S
O48 Cd46 2.411 . S
O48 C51 1.320 . S
O49 Cd46 2.333 . S
O49 C51 1.214 . S
O50 Cd46 2.352 . S
O50 C53 1.258 . S
C51 O48 1.320 . S
C51 O49 1.214 . S
O52 Cd44 2.277 . S
O52 C47 1.209 . S
C53 O50 1.258 . S
C53 O55 1.282 . S
O54 Cd46 2.277 . S
O54 C47 1.226 . S
O55 Cd46 2.356 . S
O55 C53 1.282 . S
C56 O57 1.306 . S
C56 O59 1.160 . S
O57 C56 1.306 . S
O57 Cd58 2.228 . S
Cd58 O57 2.228 . S
Cd58 O62 2.273 . S
Cd58 O66 2.277 . S
O59 C56 1.160 . S
O59 Cd60 2.203 . S
Cd60 O59 2.203 . S
Cd60 O62 2.411 . S
Cd60 O63 2.333 . S
Cd60 O64 2.352 . S
Cd60 O68 2.277 . S
Cd60 O69 2.356 . S
C61 O66 1.209 . S
C61 O68 1.226 . S
O62 Cd58 2.273 . S
O62 Cd60 2.411 . S
O62 C65 1.320 . S
O63 Cd60 2.333 . S
O63 C65 1.214 . S
O64 Cd60 2.352 . S
O64 C67 1.258 . S
C65 O62 1.320 . S
C65 O63 1.214 . S
O66 Cd58 2.277 . S
O66 C61 1.209 . S
C67 O64 1.258 . S
C67 O69 1.282 . S
O68 Cd60 2.277 . S
O68 C61 1.226 . S
O69 Cd60 2.356 . S
O69 C67 1.282 . S
C70 O71 1.306 . S
C70 O73 1.160 . S
O71 C70 1.306 . S
O71 Cd72 2.228 1_554 S
Cd72 O71 2.228 1_556 S
Cd72 O76 2.273 . S
Cd72 O80 2.277 1_556 S
O73 C70 1.160 . S
O73 Cd74 2.203 . S
Cd74 O73 2.203 . S
Cd74 O76 2.411 1_554 S
Cd74 O77 2.333 1_554 S
Cd74 O78 2.352 . S
Cd74 O82 2.277 . S
Cd74 O83 2.356 1_554 S
C75 O80 1.209 . S
C75 O82 1.226 . S
O76 Cd72 2.273 . S
O76 Cd74 2.411 1_556 S
O76 C79 1.320 . S
O77 Cd74 2.333 1_556 S
O77 C79 1.214 . S
O78 Cd74 2.352 . S
O78 C81 1.258 . S
C79 O76 1.320 . S
C79 O77 1.214 . S
O80 Cd72 2.277 1_554 S
O80 C75 1.209 . S
C81 O78 1.258 . S
C81 O83 1.282 1_554 S
O82 Cd74 2.277 . S
O82 C75 1.226 . S
O83 Cd74 2.356 1_556 S
O83 C81 1.282 1_556 S
C84 O85 1.306 . S
C84 O87 1.160 . S
O85 C84 1.306 . S
O85 Cd86 2.228 . S
Cd86 O85 2.228 . S
Cd86 O90 2.273 . S
Cd86 O94 2.277 . S
O87 C84 1.160 . S
O87 Cd88 2.203 . S
Cd88 O87 2.203 . S
Cd88 O90 2.411 . S
Cd88 O91 2.333 . S
Cd88 O92 2.352 . S
Cd88 O96 2.277 . S
Cd88 O97 2.356 . S
C89 O94 1.209 . S
C89 O96 1.226 . S
O90 Cd86 2.273 . S
O90 Cd88 2.411 . S
O90 C93 1.320 . S
O91 Cd88 2.333 . S
O91 C93 1.214 . S
O92 Cd88 2.352 . S
O92 C95 1.258 . S
C93 O90 1.320 . S
C93 O91 1.214 . S
O94 Cd86 2.277 . S
O94 C89 1.209 . S
C95 O92 1.258 . S
C95 O97 1.282 . S
O96 Cd88 2.277 . S
O96 C89 1.226 . S
O97 Cd88 2.356 . S
O97 C95 1.282 . S
C98 O99 1.306 . S
C98 O101 1.160 . S
O99 C98 1.306 . S
O99 Cd100 2.228 1_554 S
Cd100 O99 2.228 1_556 S
Cd100 O104 2.273 . S
Cd100 O108 2.277 1_556 S
O101 C98 1.160 . S
O101 Cd102 2.203 . S
Cd102 O101 2.203 . S
Cd102 O104 2.411 1_554 S
Cd102 O105 2.333 1_554 S
Cd102 O106 2.352 . S
Cd102 O110 2.277 . S
Cd102 O111 2.356 1_554 S
C103 O108 1.209 . S
C103 O110 1.226 . S
O104 Cd100 2.273 . S
O104 Cd102 2.411 1_556 S
O104 C107 1.320 . S
O105 Cd102 2.333 1_556 S
O105 C107 1.214 . S
O106 Cd102 2.352 . S
O106 C109 1.258 . S
C107 O104 1.320 . S
C107 O105 1.214 . S
O108 Cd100 2.277 1_554 S
O108 C103 1.209 . S
C109 O106 1.258 . S
C109 O111 1.282 1_554 S
O110 Cd102 2.277 . S
O110 C103 1.226 . S
O111 Cd102 2.356 1_556 S
O111 C109 1.282 1_556 S
C112 C113 1.386 . S
C112 C114 1.383 . S
C112 H128 0.951 . S
C113 C112 1.386 . S
C113 C117 1.383 . S
C114 C112 1.383 . S
C114 C115 1.402 . S
C114 H129 0.951 . S
C115 C114 1.402 . S
C115 C116 1.375 . S
C115 C118 1.481 . S
C116 C115 1.375 . S
C116 C117 1.367 . S
C116 H130 0.951 . S
C117 C113 1.383 . S
C117 C116 1.367 . S
C117 H131 0.950 . S
C118 C115 1.481 . S
C118 C119 1.297 . S
C118 H132 0.950 . S
C119 C118 1.297 . S
C119 C120 1.479 . S
C119 H133 0.950 . S
C120 C119 1.479 . S
C120 C121 1.375 . S
C120 C126 1.404 . S
C121 C120 1.375 . S
C121 C122 1.369 . S
C121 H134 0.950 . S
C122 C121 1.369 . S
C122 C123 1.392 . S
C122 H135 0.951 . S
C123 C122 1.392 . S
C123 C125 1.384 . S
H124 C126 0.949 . S
C125 C123 1.384 . S
C125 C126 1.385 . S
C125 H127 0.950 . S
C126 C120 1.404 . S
C126 H124 0.949 . S
C126 C125 1.385 . S
H127 C125 0.950 . S
H128 C112 0.951 . S
H129 C114 0.951 . S
H130 C116 0.951 . S
H131 C117 0.950 . S
H132 C118 0.950 . S
H133 C119 0.950 . S
H134 C121 0.950 . S
H135 C122 0.951 . S
C136 C137 1.386 . S
C136 C138 1.383 . S
C136 H152 0.951 . S
C137 C136 1.386 . S
C137 C141 1.383 . S
C138 C136 1.383 . S
C138 C139 1.402 . S
C138 H153 0.951 . S
C139 C138 1.402 . S
C139 C140 1.375 . S
C139 C142 1.481 . S
C140 C139 1.375 . S
C140 C141 1.367 . S
C140 H154 0.951 . S
C141 C137 1.383 . S
C141 C140 1.367 . S
C141 H155 0.950 . S
C142 C139 1.481 . S
C142 C143 1.297 . S
C142 H156 0.950 . S
C143 C142 1.297 . S
C143 C144 1.479 . S
C143 H157 0.950 . S
C144 C143 1.479 . S
C144 C145 1.375 . S
C144 C150 1.404 . S
C145 C144 1.375 . S
C145 C146 1.369 . S
C145 H158 0.950 . S
C146 C145 1.369 . S
C146 C147 1.392 . S
C146 H159 0.951 . S
C147 C146 1.392 . S
C147 C149 1.384 . S
H148 C150 0.949 . S
C149 C147 1.384 . S
C149 C150 1.385 . S
C149 H151 0.950 . S
C150 C144 1.404 . S
C150 H148 0.949 . S
C150 C149 1.385 . S
H151 C149 0.950 . S
H152 C136 0.951 . S
H153 C138 0.951 . S
H154 C140 0.951 . S
H155 C141 0.950 . S
H156 C142 0.950 . S
H157 C143 0.950 . S
H158 C145 0.950 . S
H159 C146 0.951 . S
C160 C161 1.386 . S
C160 C162 1.383 . S
C160 H176 0.951 . S
C161 C160 1.386 . S
C161 C165 1.383 . S
C162 C160 1.383 . S
C162 C163 1.402 . S
C162 H177 0.951 . S
C163 C162 1.402 . S
C163 C164 1.375 . S
C163 C166 1.481 . S
C164 C163 1.375 . S
C164 C165 1.367 . S
C164 H178 0.951 . S
C165 C161 1.383 . S
C165 C164 1.367 . S
C165 H179 0.950 . S
C166 C163 1.481 . S
C166 C167 1.297 . S
C166 H180 0.950 . S
C167 C166 1.297 . S
C167 C168 1.479 . S
C167 H181 0.950 . S
C168 C167 1.479 . S
C168 C169 1.375 . S
C168 C174 1.404 . S
C169 C168 1.375 . S
C169 C170 1.369 . S
C169 H182 0.950 . S
C170 C169 1.369 . S
C170 C171 1.392 . S
C170 H183 0.951 . S
C171 C170 1.392 . S
C171 C173 1.384 . S
H172 C174 0.949 . S
C173 C171 1.384 . S
C173 C174 1.385 . S
C173 H175 0.950 . S
C174 C168 1.404 . S
C174 H172 0.949 . S
C174 C173 1.385 . S
H175 C173 0.950 . S
H176 C160 0.951 . S
H177 C162 0.951 . S
H178 C164 0.951 . S
H179 C165 0.950 . S
H180 C166 0.950 . S
H181 C167 0.950 . S
H182 C169 0.950 . S
H183 C170 0.951 . S
C184 C185 1.386 . S
C184 C186 1.383 . S
C184 H200 0.951 . S
C185 C184 1.386 . S
C185 C189 1.383 . S
C186 C184 1.383 . S
C186 C187 1.402 . S
C186 H201 0.951 . S
C187 C186 1.402 . S
C187 C188 1.375 . S
C187 C190 1.481 . S
C188 C187 1.375 . S
C188 C189 1.367 . S
C188 H202 0.951 . S
C189 C185 1.383 . S
C189 C188 1.367 . S
C189 H203 0.950 . S
C190 C187 1.481 . S
C190 C191 1.297 . S
C190 H204 0.950 . S
C191 C190 1.297 . S
C191 C192 1.479 . S
C191 H205 0.950 . S
C192 C191 1.479 . S
C192 C193 1.375 . S
C192 C198 1.404 . S
C193 C192 1.375 . S
C193 C194 1.369 . S
C193 H206 0.950 . S
C194 C193 1.369 . S
C194 C195 1.392 . S
C194 H207 0.951 . S
C195 C194 1.392 . S
C195 C197 1.384 . S
H196 C198 0.949 . S
C197 C195 1.384 . S
C197 C198 1.385 . S
C197 H199 0.950 . S
C198 C192 1.404 . S
C198 H196 0.949 . S
C198 C197 1.385 . S
H199 C197 0.950 . S
H200 C184 0.951 . S
H201 C186 0.951 . S
H202 C188 0.951 . S
H203 C189 0.950 . S
H204 C190 0.950 . S
H205 C191 0.950 . S
H206 C193 0.950 . S
H207 C194 0.951 . S
C208 C209 1.386 . S
C208 C210 1.383 . S
C208 H224 0.951 . S
C209 C208 1.386 . S
C209 C213 1.383 . S
C210 C208 1.383 . S
C210 C211 1.402 . S
C210 H225 0.951 . S
C211 C210 1.402 . S
C211 C212 1.375 . S
C211 C214 1.481 . S
C212 C211 1.375 . S
C212 C213 1.367 . S
C212 H226 0.951 . S
C213 C209 1.383 . S
C213 C212 1.367 . S
C213 H227 0.950 . S
C214 C211 1.481 . S
C214 C215 1.297 . S
C214 H228 0.950 . S
C215 C214 1.297 . S
C215 C216 1.479 . S
C215 H229 0.950 . S
C216 C215 1.479 . S
C216 C217 1.375 . S
C216 C222 1.404 . S
C217 C216 1.375 . S
C217 C218 1.369 . S
C217 H230 0.950 . S
C218 C217 1.369 . S
C218 C219 1.392 . S
C218 H231 0.951 . S
C219 C218 1.392 . S
C219 C221 1.384 . S
H220 C222 0.949 . S
C221 C219 1.384 . S
C221 C222 1.385 . S
C221 H223 0.950 . S
C222 C216 1.404 . S
C222 H220 0.949 . S
C222 C221 1.385 . S
H223 C221 0.950 . S
H224 C208 0.951 . S
H225 C210 0.951 . S
H226 C212 0.951 . S
H227 C213 0.950 . S
H228 C214 0.950 . S
H229 C215 0.950 . S
H230 C217 0.950 . S
H231 C218 0.951 . S
C232 C233 1.386 . S
C232 C234 1.383 . S
C232 H248 0.951 . S
C233 C232 1.386 . S
C233 C237 1.383 . S
C234 C232 1.383 . S
C234 C235 1.402 . S
C234 H249 0.951 . S
C235 C234 1.402 . S
C235 C236 1.375 . S
C235 C238 1.481 . S
C236 C235 1.375 . S
C236 C237 1.367 . S
C236 H250 0.951 . S
C237 C233 1.383 . S
C237 C236 1.367 . S
C237 H251 0.950 . S
C238 C235 1.481 . S
C238 C239 1.297 . S
C238 H252 0.950 . S
C239 C238 1.297 . S
C239 C240 1.479 . S
C239 H253 0.950 . S
C240 C239 1.479 . S
C240 C241 1.375 . S
C240 C246 1.404 . S
C241 C240 1.375 . S
C241 C242 1.369 . S
C241 H254 0.950 . S
C242 C241 1.369 . S
C242 C243 1.392 . S
C242 H255 0.951 . S
C243 C242 1.392 . S
C243 C245 1.384 . S
H244 C246 0.949 . S
C245 C243 1.384 . S
C245 C246 1.385 . S
C245 H247 0.950 . S
C246 C240 1.404 . S
C246 H244 0.949 . S
C246 C245 1.385 . S
H247 C245 0.950 . S
H248 C232 0.951 . S
H249 C234 0.951 . S
H250 C236 0.951 . S
H251 C237 0.950 . S
H252 C238 0.950 . S
H253 C239 0.950 . S
H254 C241 0.950 . S
H255 C242 0.951 . S
C256 C257 1.386 . S
C256 C258 1.383 . S
C256 H272 0.951 . S
C257 C256 1.386 . S
C257 C261 1.383 . S
C258 C256 1.383 . S
C258 C259 1.402 . S
C258 H273 0.951 . S
C259 C258 1.402 . S
C259 C260 1.375 . S
C259 C262 1.481 . S
C260 C259 1.375 . S
C260 C261 1.367 . S
C260 H274 0.951 . S
C261 C257 1.383 . S
C261 C260 1.367 . S
C261 H275 0.950 . S
C262 C259 1.481 . S
C262 C263 1.297 . S
C262 H276 0.950 . S
C263 C262 1.297 . S
C263 C264 1.479 . S
C263 H277 0.950 . S
C264 C263 1.479 . S
C264 C265 1.375 . S
C264 C270 1.404 . S
C265 C264 1.375 . S
C265 C266 1.369 . S
C265 H278 0.950 . S
C266 C265 1.369 . S
C266 C267 1.392 . S
C266 H279 0.951 . S
C267 C266 1.392 . S
C267 C269 1.384 . S
H268 C270 0.949 . S
C269 C267 1.384 . S
C269 C270 1.385 . S
C269 H271 0.950 . S
C270 C264 1.404 . S
C270 H268 0.949 . S
C270 C269 1.385 . S
H271 C269 0.950 . S
H272 C256 0.951 . S
H273 C258 0.951 . S
H274 C260 0.951 . S
H275 C261 0.950 . S
H276 C262 0.950 . S
H277 C263 0.950 . S
H278 C265 0.950 . S
H279 C266 0.951 . S
C280 C281 1.386 . S
C280 C282 1.383 . S
C280 H296 0.951 . S
C281 C280 1.386 . S
C281 C285 1.383 . S
C282 C280 1.383 . S
C282 C283 1.402 . S
C282 H297 0.951 . S
C283 C282 1.402 . S
C283 C284 1.375 . S
C283 C286 1.481 . S
C284 C283 1.375 . S
C284 C285 1.367 . S
C284 H298 0.951 . S
C285 C281 1.383 . S
C285 C284 1.367 . S
C285 H299 0.950 . S
C286 C283 1.481 . S
C286 C287 1.297 . S
C286 H300 0.950 . S
C287 C286 1.297 . S
C287 C288 1.479 . S
C287 H301 0.950 . S
C288 C287 1.479 . S
C288 C289 1.375 . S
C288 C294 1.404 . S
C289 C288 1.375 . S
C289 C290 1.369 . S
C289 H302 0.950 . S
C290 C289 1.369 . S
C290 C291 1.392 . S
C290 H303 0.951 . S
C291 C290 1.392 . S
C291 C293 1.384 . S
H292 C294 0.949 . S
C293 C291 1.384 . S
C293 C294 1.385 . S
C293 H295 0.950 . S
C294 C288 1.404 . S
C294 H292 0.949 . S
C294 C293 1.385 . S
H295 C293 0.950 . S
H296 C280 0.951 . S
H297 C282 0.951 . S
H298 C284 0.951 . S
H299 C285 0.950 . S
H300 C286 0.950 . S
H301 C287 0.950 . S
H302 C289 0.950 . S
H303 C290 0.951 . S
C304 C305 1.386 . S
C304 C306 1.383 . S
C304 H320 0.951 . S
C305 C304 1.386 . S
C305 C309 1.383 1_554 S
C306 C304 1.383 . S
C306 C307 1.402 1_554 S
C306 H321 0.951 . S
C307 C306 1.402 1_556 S
C307 C308 1.375 . S
C307 C310 1.481 . S
C308 C307 1.375 . S
C308 C309 1.367 . S
C308 H322 0.951 . S
C309 C305 1.383 1_556 S
C309 C308 1.367 . S
C309 H323 0.950 . S
C310 C307 1.481 . S
C310 C311 1.297 1_656 S
C310 H324 0.950 . S
C311 C310 1.297 1_454 S
C311 C312 1.479 . S
C311 H325 0.950 . S
C312 C311 1.479 . S
C312 C313 1.375 . S
C312 C318 1.404 1_554 S
C313 C312 1.375 . S
C313 C314 1.369 . S
C313 H326 0.950 . S
C314 C313 1.369 . S
C314 C315 1.392 . S
C314 H327 0.951 . S
C315 C314 1.392 . S
C315 C317 1.384 1_554 S
H316 C318 0.949 . S
C317 C315 1.384 1_556 S
C317 C318 1.385 . S
C317 H319 0.950 . S
C318 C312 1.404 1_556 S
C318 H316 0.949 . S
C318 C317 1.385 . S
H319 C317 0.950 . S
H320 C304 0.951 . S
H321 C306 0.951 . S
H322 C308 0.951 . S
H323 C309 0.950 . S
H324 C310 0.950 . S
H325 C311 0.950 . S
H326 C313 0.950 . S
H327 C314 0.951 . S
C328 C329 1.386 . S
C328 C330 1.383 . S
C328 H344 0.951 . S
C329 C328 1.386 . S
C329 C333 1.383 . S
C330 C328 1.383 . S
C330 C331 1.402 . S
C330 H345 0.951 . S
C331 C330 1.402 . S
C331 C332 1.375 . S
C331 C334 1.481 . S
C332 C331 1.375 . S
C332 C333 1.367 . S
C332 H346 0.951 . S
C333 C329 1.383 . S
C333 C332 1.367 . S
C333 H347 0.950 . S
C334 C331 1.481 . S
C334 C335 1.297 1_565 S
C334 H348 0.950 1_565 S
C335 C334 1.297 1_545 S
C335 C336 1.479 . S
C335 H349 0.950 1_545 S
C336 C335 1.479 . S
C336 C337 1.375 . S
C336 C342 1.404 . S
C337 C336 1.375 . S
C337 C338 1.369 . S
C337 H350 0.950 . S
C338 C337 1.369 . S
C338 C339 1.392 . S
C338 H351 0.951 . S
C339 C338 1.392 . S
C339 C341 1.384 . S
H340 C342 0.949 . S
C341 C339 1.384 . S
C341 C342 1.385 . S
C341 H343 0.950 . S
C342 C336 1.404 . S
C342 H340 0.949 . S
C342 C341 1.385 . S
H343 C341 0.950 . S
H344 C328 0.951 . S
H345 C330 0.951 . S
H346 C332 0.951 . S
H347 C333 0.950 . S
H348 C334 0.950 1_545 S
H349 C335 0.950 1_565 S
H350 C337 0.950 . S
H351 C338 0.951 . S
C352 C353 1.386 . S
C352 C354 1.383 . S
C352 H368 0.951 . S
C353 C352 1.386 . S
C353 C357 1.383 . S
C354 C352 1.383 . S
C354 C355 1.402 . S
C354 H369 0.951 . S
C355 C354 1.402 . S
C355 C356 1.375 . S
C355 C358 1.481 . S
C356 C355 1.375 . S
C356 C357 1.367 . S
C356 H370 0.951 . S
C357 C353 1.383 . S
C357 C356 1.367 . S
C357 H371 0.950 . S
C358 C355 1.481 . S
C358 C359 1.297 1_455 S
C358 H372 0.950 . S
C359 C358 1.297 1_655 S
C359 C360 1.479 . S
C359 H373 0.950 . S
C360 C359 1.479 . S
C360 C361 1.375 . S
C360 C366 1.404 . S
C361 C360 1.375 . S
C361 C362 1.369 . S
C361 H374 0.950 . S
C362 C361 1.369 . S
C362 C363 1.392 . S
C362 H375 0.951 . S
C363 C362 1.392 . S
C363 C365 1.384 . S
H364 C366 0.949 . S
C365 C363 1.384 . S
C365 C366 1.385 . S
C365 H367 0.950 . S
C366 C360 1.404 . S
C366 H364 0.949 . S
C366 C365 1.385 . S
H367 C365 0.950 . S
H368 C352 0.951 . S
H369 C354 0.951 . S
H370 C356 0.951 . S
H371 C357 0.950 . S
H372 C358 0.950 . S
H373 C359 0.950 . S
H374 C361 0.950 . S
H375 C362 0.951 . S
C376 C377 1.386 . S
C376 C378 1.383 . S
C376 H392 0.951 . S
C377 C376 1.386 . S
C377 C381 1.383 1_554 S
C378 C376 1.383 . S
C378 C379 1.402 1_554 S
C378 H393 0.951 . S
C379 C378 1.402 1_556 S
C379 C380 1.375 . S
C379 C382 1.481 . S
C380 C379 1.375 . S
C380 C381 1.367 . S
C380 H394 0.951 . S
C381 C377 1.383 1_556 S
C381 C380 1.367 . S
C381 H395 0.950 . S
C382 C379 1.481 . S
C382 C383 1.297 1_566 S
C382 H396 0.950 . S
C383 C382 1.297 1_544 S
C383 C384 1.479 1_554 S
C383 H397 0.950 . S
C384 C383 1.479 1_556 S
C384 C385 1.375 1_556 S
C384 C390 1.404 . S
C385 C384 1.375 1_554 S
C385 C386 1.369 . S
C385 H398 0.950 . S
C386 C385 1.369 . S
C386 C387 1.392 . S
C386 H399 0.951 . S
C387 C386 1.392 . S
C387 C389 1.384 1_554 S
H388 C390 0.949 . S
C389 C387 1.384 1_556 S
C389 C390 1.385 . S
C389 H391 0.950 . S
C390 C384 1.404 . S
C390 H388 0.949 . S
C390 C389 1.385 . S
H391 C389 0.950 . S
H392 C376 0.951 . S
H393 C378 0.951 . S
H394 C380 0.951 . S
H395 C381 0.950 . S
H396 C382 0.950 . S
H397 C383 0.950 . S
H398 C385 0.950 . S
H399 C386 0.951 . S
C400 C401 1.386 . S
C400 C402 1.383 1_554 S
C400 H416 0.951 . S
C401 C400 1.386 . S
C401 C405 1.382 1_554 S
C402 C400 1.383 1_556 S
C402 C403 1.402 . S
C402 H417 0.951 . S
C403 C402 1.402 . S
C403 C404 1.375 . S
C403 C406 1.481 . S
C404 C403 1.375 . S
C404 C405 1.368 . S
C404 H418 0.951 . S
C405 C401 1.382 1_556 S
C405 C404 1.368 . S
C405 H419 0.950 . S
C406 C403 1.481 . S
C406 C407 1.297 . S
C406 H420 0.950 . S
C407 C406 1.297 . S
C407 C408 1.479 . S
C407 H421 0.950 . S
C408 C407 1.479 . S
C408 C409 1.375 . S
C408 C414 1.404 . S
C409 C408 1.375 . S
C409 C410 1.369 . S
C409 H422 0.950 . S
C410 C409 1.369 . S
C410 C411 1.392 . S
C410 H423 0.951 1_556 S
C411 C410 1.392 . S
C411 C413 1.384 . S
H412 C414 0.949 . S
C413 C411 1.384 . S
C413 C414 1.385 . S
C413 H415 0.950 . S
C414 C408 1.404 . S
C414 H412 0.949 . S
C414 C413 1.385 . S
H415 C413 0.950 . S
H416 C400 0.951 . S
H417 C402 0.951 . S
H418 C404 0.951 . S
H419 C405 0.950 . S
H420 C406 0.950 . S
H421 C407 0.950 . S
H422 C409 0.950 . S
H423 C410 0.951 1_554 S
C424 C425 1.386 . S
C424 C426 1.383 . S
C424 H440 0.951 . S
C425 C424 1.386 . S
C425 C429 1.383 . S
C426 C424 1.383 . S
C426 C427 1.402 . S
C426 H441 0.951 . S
C427 C426 1.402 . S
C427 C428 1.375 . S
C427 C430 1.481 . S
C428 C427 1.375 . S
C428 C429 1.367 . S
C428 H442 0.951 . S
C429 C425 1.383 . S
C429 C428 1.367 . S
C429 H443 0.950 . S
C430 C427 1.481 . S
C430 C431 1.297 . S
C430 H444 0.950 . S
C431 C430 1.297 . S
C431 C432 1.479 . S
C431 H445 0.950 . S
C432 C431 1.479 . S
C432 C433 1.375 . S
C432 C438 1.404 . S
C433 C432 1.375 . S
C433 C434 1.369 . S
C433 H446 0.950 . S
C434 C433 1.369 . S
C434 C435 1.392 . S
C434 H447 0.951 . S
C435 C434 1.392 . S
C435 C437 1.384 . S
H436 C438 0.949 . S
C437 C435 1.384 . S
C437 C438 1.385 . S
C437 H439 0.950 . S
C438 C432 1.404 . S
C438 H436 0.949 . S
C438 C437 1.385 . S
H439 C437 0.950 . S
H440 C424 0.951 . S
H441 C426 0.951 . S
H442 C428 0.951 . S
H443 C429 0.950 . S
H444 C430 0.950 . S
H445 C431 0.950 . S
H446 C433 0.950 . S
H447 C434 0.951 . S
C448 C449 1.386 . S
C448 C450 1.383 . S
C448 H464 0.951 . S
C449 C448 1.386 . S
C449 C453 1.383 1_554 S
C450 C448 1.383 . S
C450 C451 1.402 1_554 S
C450 H465 0.951 . S
C451 C450 1.402 1_556 S
C451 C452 1.375 . S
C451 C454 1.481 . S
C452 C451 1.375 . S
C452 C453 1.367 . S
C452 H466 0.951 . S
C453 C449 1.383 1_556 S
C453 C452 1.367 . S
C453 H467 0.950 . S
C454 C451 1.481 . S
C454 C455 1.299 . S
C454 H468 0.950 . S
C455 C454 1.299 . S
C455 C456 1.480 . S
C455 H469 0.948 1_556 S
C456 C455 1.480 . S
C456 C457 1.375 1_556 S
C456 C462 1.404 . S
C457 C456 1.375 1_554 S
C457 C458 1.369 . S
C457 H470 0.950 . S
C458 C457 1.369 . S
C458 C459 1.391 . S
C458 H471 0.951 . S
C459 C458 1.391 . S
C459 C461 1.386 1_554 S
H460 C462 0.949 . S
C461 C459 1.386 1_556 S
C461 C462 1.385 . S
C461 H463 0.950 . S
C462 C456 1.404 . S
C462 H460 0.949 . S
C462 C461 1.385 . S
H463 C461 0.950 . S
H464 C448 0.951 . S
H465 C450 0.951 . S
H466 C452 0.951 . S
H467 C453 0.950 . S
H468 C454 0.950 . S
H469 C455 0.948 1_554 S
H470 C457 0.950 . S
H471 C458 0.951 . S
C472 C473 1.386 . S
C472 C474 1.383 . S
C472 H488 0.951 . S
C473 C472 1.386 . S
C473 C477 1.383 . S
C474 C472 1.383 . S
C474 C475 1.402 . S
C474 H489 0.951 . S
C475 C474 1.402 . S
C475 C476 1.375 . S
C475 C478 1.481 . S
C476 C475 1.375 . S
C476 C477 1.367 . S
C476 H490 0.951 . S
C477 C473 1.383 . S
C477 C476 1.367 . S
C477 H491 0.950 . S
C478 C475 1.481 . S
C478 C479 1.297 . S
C478 H492 0.950 . S
C479 C478 1.297 . S
C479 C480 1.479 . S
C479 H493 0.950 . S
C480 C479 1.479 . S
C480 C481 1.375 . S
C480 C486 1.404 . S
C481 C480 1.375 . S
C481 C482 1.369 . S
C481 H494 0.950 . S
C482 C481 1.369 . S
C482 C483 1.392 . S
C482 H495 0.951 . S
C483 C482 1.392 . S
C483 C485 1.384 . S
H484 C486 0.949 . S
C485 C483 1.384 . S
C485 C486 1.385 . S
C485 H487 0.950 . S
C486 C480 1.404 . S
C486 H484 0.949 . S
C486 C485 1.385 . S
H487 C485 0.950 . S
H488 C472 0.951 . S
H489 C474 0.951 . S
H490 C476 0.951 . S
H491 C477 0.950 . S
H492 C478 0.950 . S
H493 C479 0.950 . S
H494 C481 0.950 . S
H495 C482 0.951 . S
C113 C9 1.206 . S
C123 C65 1.235 . S
C137 C23 1.236 . S
C147 C79 1.178 . S
C161 C93 1.267 . S
C171 C37 1.238 . S
C185 C107 1.227 . S
C195 C51 1.180 . S
C209 C84 1.137 . S
C219 C28 1.181 . S
C233 C98 1.166 . S
C243 C42 1.152 . S
C257 C0 1.128 . S
C267 C56 1.158 . S
C281 C14 1.166 . S
C291 C70 1.153 . S
C305 C33 1.306 . S
C315 C5 1.344 . S
C329 C47 1.339 . S
C339 C19 1.320 . S
C353 C61 1.326 . S
C363 C89 1.286 . S
C377 C103 1.324 . S
C387 C75 1.287 . S
C401 C11 1.309 . S
C411 C81 1.299 1_556 S
C425 C95 1.307 . S
C435 C25 1.304 . S
C449 C39 1.311 . S
C459 C109 1.302 . S
C473 C53 1.307 . S
C483 C67 1.303 . S
