# Generated by pormake.
# Topology uow, (4)-cn, num edge types: 1
# Building blocks:
#     Node 0, Type 0, BuildingBlock: ESEHIV_clean_sbu_0, # of connection points: 4
#     Node 1, Type 0, BuildingBlock: ESEHIV_clean_sbu_0, # of connection points: 4
#     Node 2, Type 0, BuildingBlock: ESEHIV_clean_sbu_0, # of connection points: 4
#     Node 3, Type 0, BuildingBlock: ESEHIV_clean_sbu_0, # of connection points: 4
#     Node 4, Type 0, BuildingBlock: ESEHIV_clean_sbu_0, # of connection points: 4
#     Node 5, Type 0, BuildingBlock: ESEHIV_clean_sbu_0, # of connection points: 4
#     Node 6, Type 0, BuildingBlock: ESEHIV_clean_sbu_0, # of connection points: 4
#     Node 7, Type 0, BuildingBlock: ESEHIV_clean_sbu_0, # of connection points: 4
#     Node 8, Type 0, BuildingBlock: ESEHIV_clean_sbu_0, # of connection points: 4
#     Node 9, Type 0, BuildingBlock: ESEHIV_clean_sbu_0, # of connection points: 4
#     Node 10, Type 0, BuildingBlock: ESEHIV_clean_sbu_0, # of connection points: 4
#     Node 11, Type 0, BuildingBlock: ESEHIV_clean_sbu_0, # of connection points: 4
#     Node 12, Type 0, BuildingBlock: ESEHIV_clean_sbu_0, # of connection points: 4
#     Node 13, Type 0, BuildingBlock: ESEHIV_clean_sbu_0, # of connection points: 4
#     Node 14, Type 0, BuildingBlock: ESEHIV_clean_sbu_0, # of connection points: 4
#     Node 15, Type 0, BuildingBlock: ESEHIV_clean_sbu_0, # of connection points: 4
#     Node 16, Type 0, BuildingBlock: ESEHIV_clean_sbu_0, # of connection points: 4
#     Node 17, Type 0, BuildingBlock: ESEHIV_clean_sbu_0, # of connection points: 4
#     Node 18, Type 0, BuildingBlock: ESEHIV_clean_sbu_0, # of connection points: 4
#     Node 19, Type 0, BuildingBlock: ESEHIV_clean_sbu_0, # of connection points: 4
#     Node 20, Type 0, BuildingBlock: ESEHIV_clean_sbu_0, # of connection points: 4
#     Node 21, Type 0, BuildingBlock: ESEHIV_clean_sbu_0, # of connection points: 4
#     Node 22, Type 0, BuildingBlock: ESEHIV_clean_sbu_0, # of connection points: 4
#     Node 23, Type 0, BuildingBlock: ESEHIV_clean_sbu_0, # of connection points: 4
#     Node 24, Type 0, BuildingBlock: ESEHIV_clean_sbu_0, # of connection points: 4
#     Node 25, Type 0, BuildingBlock: ESEHIV_clean_sbu_0, # of connection points: 4
#     Node 26, Type 0, BuildingBlock: ESEHIV_clean_sbu_0, # of connection points: 4
#     Node 27, Type 0, BuildingBlock: ESEHIV_clean_sbu_0, # of connection points: 4
#     Node 28, Type 0, BuildingBlock: ESEHIV_clean_sbu_0, # of connection points: 4
#     Node 29, Type 0, BuildingBlock: ESEHIV_clean_sbu_0, # of connection points: 4
#     Node 30, Type 0, BuildingBlock: ESEHIV_clean_sbu_0, # of connection points: 4
#     Node 31, Type 0, BuildingBlock: ESEHIV_clean_sbu_0, # of connection points: 4
#     Edge 32, Type (0, 0), BuildingBlock: TEMPAE_clean_linker_10, # of connection points: 2
#     Edge 33, Type (0, 0), BuildingBlock: TEMPAE_clean_linker_10, # of connection points: 2
#     Edge 34, Type (0, 0), BuildingBlock: TEMPAE_clean_linker_10, # of connection points: 2
#     Edge 35, Type (0, 0), BuildingBlock: TEMPAE_clean_linker_10, # of connection points: 2
#     Edge 36, Type (0, 0), BuildingBlock: TEMPAE_clean_linker_10, # of connection points: 2
#     Edge 37, Type (0, 0), BuildingBlock: TEMPAE_clean_linker_10, # of connection points: 2
#     Edge 38, Type (0, 0), BuildingBlock: TEMPAE_clean_linker_10, # of connection points: 2
#     Edge 39, Type (0, 0), BuildingBlock: TEMPAE_clean_linker_10, # of connection points: 2
#     Edge 40, Type (0, 0), BuildingBlock: TEMPAE_clean_linker_10, # of connection points: 2
#     Edge 41, Type (0, 0), BuildingBlock: TEMPAE_clean_linker_10, # of connection points: 2
#     Edge 42, Type (0, 0), BuildingBlock: TEMPAE_clean_linker_10, # of connection points: 2
#     Edge 43, Type (0, 0), BuildingBlock: TEMPAE_clean_linker_10, # of connection points: 2
#     Edge 44, Type (0, 0), BuildingBlock: TEMPAE_clean_linker_10, # of connection points: 2
#     Edge 45, Type (0, 0), BuildingBlock: TEMPAE_clean_linker_10, # of connection points: 2
#     Edge 46, Type (0, 0), BuildingBlock: TEMPAE_clean_linker_10, # of connection points: 2
#     Edge 47, Type (0, 0), BuildingBlock: TEMPAE_clean_linker_10, # of connection points: 2
#     Edge 48, Type (0, 0), BuildingBlock: TEMPAE_clean_linker_10, # of connection points: 2
#     Edge 49, Type (0, 0), BuildingBlock: TEMPAE_clean_linker_10, # of connection points: 2
#     Edge 50, Type (0, 0), BuildingBlock: TEMPAE_clean_linker_10, # of connection points: 2
#     Edge 51, Type (0, 0), BuildingBlock: TEMPAE_clean_linker_10, # of connection points: 2
#     Edge 52, Type (0, 0), BuildingBlock: TEMPAE_clean_linker_10, # of connection points: 2
#     Edge 53, Type (0, 0), BuildingBlock: TEMPAE_clean_linker_10, # of connection points: 2
#     Edge 54, Type (0, 0), BuildingBlock: TEMPAE_clean_linker_10, # of connection points: 2
#     Edge 55, Type (0, 0), BuildingBlock: TEMPAE_clean_linker_10, # of connection points: 2
#     Edge 56, Type (0, 0), BuildingBlock: TEMPAE_clean_linker_10, # of connection points: 2
#     Edge 57, Type (0, 0), BuildingBlock: TEMPAE_clean_linker_10, # of connection points: 2
#     Edge 58, Type (0, 0), BuildingBlock: TEMPAE_clean_linker_10, # of connection points: 2
#     Edge 59, Type (0, 0), BuildingBlock: TEMPAE_clean_linker_10, # of connection points: 2
#     Edge 60, Type (0, 0), BuildingBlock: TEMPAE_clean_linker_10, # of connection points: 2
#     Edge 61, Type (0, 0), BuildingBlock: TEMPAE_clean_linker_10, # of connection points: 2
#     Edge 62, Type (0, 0), BuildingBlock: TEMPAE_clean_linker_10, # of connection points: 2
#     Edge 63, Type (0, 0), BuildingBlock: TEMPAE_clean_linker_10, # of connection points: 2
#     Edge 64, Type (0, 0), BuildingBlock: TEMPAE_clean_linker_10, # of connection points: 2
#     Edge 65, Type (0, 0), BuildingBlock: TEMPAE_clean_linker_10, # of connection points: 2
#     Edge 66, Type (0, 0), BuildingBlock: TEMPAE_clean_linker_10, # of connection points: 2
#     Edge 67, Type (0, 0), BuildingBlock: TEMPAE_clean_linker_10, # of connection points: 2
#     Edge 68, Type (0, 0), BuildingBlock: TEMPAE_clean_linker_10, # of connection points: 2
#     Edge 69, Type (0, 0), BuildingBlock: TEMPAE_clean_linker_10, # of connection points: 2
#     Edge 70, Type (0, 0), BuildingBlock: TEMPAE_clean_linker_10, # of connection points: 2
#     Edge 71, Type (0, 0), BuildingBlock: TEMPAE_clean_linker_10, # of connection points: 2
#     Edge 72, Type (0, 0), BuildingBlock: TEMPAE_clean_linker_10, # of connection points: 2
#     Edge 73, Type (0, 0), BuildingBlock: TEMPAE_clean_linker_10, # of connection points: 2
#     Edge 74, Type (0, 0), BuildingBlock: TEMPAE_clean_linker_10, # of connection points: 2
#     Edge 75, Type (0, 0), BuildingBlock: TEMPAE_clean_linker_10, # of connection points: 2
#     Edge 76, Type (0, 0), BuildingBlock: TEMPAE_clean_linker_10, # of connection points: 2
#     Edge 77, Type (0, 0), BuildingBlock: TEMPAE_clean_linker_10, # of connection points: 2
#     Edge 78, Type (0, 0), BuildingBlock: TEMPAE_clean_linker_10, # of connection points: 2
#     Edge 79, Type (0, 0), BuildingBlock: TEMPAE_clean_linker_10, # of connection points: 2
#     Edge 80, Type (0, 0), BuildingBlock: TEMPAE_clean_linker_10, # of connection points: 2
#     Edge 81, Type (0, 0), BuildingBlock: TEMPAE_clean_linker_10, # of connection points: 2
#     Edge 82, Type (0, 0), BuildingBlock: TEMPAE_clean_linker_10, # of connection points: 2
#     Edge 83, Type (0, 0), BuildingBlock: TEMPAE_clean_linker_10, # of connection points: 2
#     Edge 84, Type (0, 0), BuildingBlock: TEMPAE_clean_linker_10, # of connection points: 2
#     Edge 85, Type (0, 0), BuildingBlock: TEMPAE_clean_linker_10, # of connection points: 2
#     Edge 86, Type (0, 0), BuildingBlock: TEMPAE_clean_linker_10, # of connection points: 2
#     Edge 87, Type (0, 0), BuildingBlock: TEMPAE_clean_linker_10, # of connection points: 2
#     Edge 88, Type (0, 0), BuildingBlock: TEMPAE_clean_linker_10, # of connection points: 2
#     Edge 89, Type (0, 0), BuildingBlock: TEMPAE_clean_linker_10, # of connection points: 2
#     Edge 90, Type (0, 0), BuildingBlock: TEMPAE_clean_linker_10, # of connection points: 2
#     Edge 91, Type (0, 0), BuildingBlock: TEMPAE_clean_linker_10, # of connection points: 2
#     Edge 92, Type (0, 0), BuildingBlock: TEMPAE_clean_linker_10, # of connection points: 2
#     Edge 93, Type (0, 0), BuildingBlock: TEMPAE_clean_linker_10, # of connection points: 2
#     Edge 94, Type (0, 0), BuildingBlock: TEMPAE_clean_linker_10, # of connection points: 2
#     Edge 95, Type (0, 0), BuildingBlock: TEMPAE_clean_linker_10, # of connection points: 2
# Relax obj value: 0.062
# Max RMSD: 0.244
# Mean RMSD: 0.222
data_MOF--net-uow--node1-ESEHIV_clean_sbu_0--edge1-TEMPAE_clean_linker_10
_symmetry_space_group_name_H-M    P1
_symmetry_Int_Tables_number       1
_symmetry_cell_setting            triclinic
loop_
_symmetry_equiv_pos_as_xyz
'x, y, z'
_cell_length_a     64.43107
_cell_length_b     69.948994
_cell_length_c     49.233604
_cell_angle_alpha  89.995161
_cell_angle_beta   89.983922
_cell_angle_gamma 90.011806
loop_
_atom_site_label
_atom_site_type_symbol
_atom_site_fract_x
_atom_site_fract_y
_atom_site_fract_z
_atom_type_partial_charge
Cu0 Cu 0.08787 0.3881 0.30729 0.0
N1 N 0.10452 0.37392 0.33109 0.0
N2 N 0.11384 0.35165 0.36144 0.0
C3 C 0.09927 0.3574 0.34345 0.0
C4 C 0.12887 0.36509 0.36025 0.0
C5 C 0.12308 0.37878 0.34152 0.0
O6 O 0.0596 0.38344 0.319 0.0
C7 C 0.08217 0.38507 0.24991 0.0
O8 O 0.06593 0.39603 0.25418 0.0
H9 H 0.08469 0.35011 0.34008 0.0
H10 H 0.13156 0.39162 0.33633 0.0
N11 N 0.09285 0.41431 0.31218 0.0
N12 N 0.09469 0.44596 0.30579 0.0
C13 C 0.09417 0.42858 0.29372 0.0
C14 C 0.09271 0.42301 0.33654 0.0
C15 C 0.09379 0.44248 0.3327 0.0
C16 C 0.04894 0.36853 0.31407 0.0
O17 O 0.0561 0.35568 0.29701 0.0
H18 H 0.09367 0.42636 0.27197 0.0
H19 H 0.09108 0.41568 0.35577 0.0
O20 O 0.09333 0.38009 0.27003 0.0
H21 H 0.14299 0.36509 0.37215 0.0
H22 H 0.0935 0.45329 0.34843 0.0
Cu23 Cu 0.87586 0.82709 0.53812 0.0
N24 N 0.8919 0.8284 0.5064 0.0
N25 N 0.90415 0.83391 0.46448 0.0
C26 C 0.88836 0.83695 0.4822 0.0
C27 C 0.91805 0.82319 0.47823 0.0
C28 C 0.91048 0.81985 0.50389 0.0
O29 O 0.84727 0.83572 0.53123 0.0
C30 C 0.88776 0.83916 0.59169 0.0
O31 O 0.87279 0.8278 0.59988 0.0
H32 H 0.87443 0.84496 0.47759 0.0
H33 H 0.918 0.81172 0.51978 0.0
N34 N 0.87543 0.80138 0.54862 0.0
N35 N 0.88335 0.77381 0.56919 0.0
C36 C 0.88782 0.79262 0.56684 0.0
C37 C 0.86286 0.78765 0.5389 0.0
C38 C 0.86767 0.77065 0.55157 0.0
C39 C 0.83239 0.83081 0.54688 0.0
O40 O 0.83667 0.82076 0.5687 0.0
H41 H 0.90002 0.79985 0.57791 0.0
H42 H 0.85094 0.78991 0.52376 0.0
O43 O 0.89053 0.84163 0.56627 0.0
H44 H 0.93285 0.81832 0.47047 0.0
H45 H 0.85992 0.75709 0.54843 0.0
Cu46 Cu 0.43549 0.63225 0.79198 0.0
N47 N 0.41988 0.64774 0.81531 0.0
N48 N 0.41129 0.66942 0.84686 0.0
C49 C 0.42688 0.65944 0.83511 0.0
C50 C 0.39387 0.66366 0.83397 0.0
C51 C 0.39922 0.65036 0.81456 0.0
O52 O 0.46443 0.63654 0.80169 0.0
C53 C 0.43975 0.63616 0.7341 0.0
O54 O 0.45678 0.62603 0.73696 0.0
H55 H 0.44313 0.66101 0.84021 0.0
H56 H 0.38882 0.64321 0.80062 0.0
N57 N 0.42759 0.6066 0.79689 0.0
N58 N 0.42413 0.57477 0.79273 0.0
C59 C 0.43384 0.59074 0.7835 0.0
C60 C 0.41351 0.6005 0.81507 0.0
C61 C 0.41131 0.58104 0.81255 0.0
C62 C 0.47213 0.6277 0.82193 0.0
O63 O 0.46108 0.61427 0.8337 0.0
H64 H 0.44529 0.59097 0.76745 0.0
H65 H 0.40523 0.60964 0.82908 0.0
O66 O 0.42904 0.64026 0.75502 0.0
H67 H 0.37832 0.66867 0.83825 0.0
H68 H 0.40062 0.57233 0.82412 0.0
Cu69 Cu 0.64725 0.19551 0.04325 0.0
N70 N 0.63622 0.19881 1.00832 0.0
N71 N 0.6234 0.19386 0.96658 0.0
C72 C 0.63003 0.18564 0.98994 0.0
C73 C 0.6255 0.21286 0.97057 0.0
C74 C 0.63337 0.21583 0.99619 0.0
O75 O 0.67617 0.18704 0.04112 0.0
C76 C 0.63091 0.17946 0.09125 0.0
O77 O 0.64648 0.18881 0.10223 0.0
H78 H 0.63034 0.1704 0.99365 0.0
H79 H 0.63705 0.22949 1.00528 0.0
N80 N 0.64849 0.21946 0.05994 0.0
N81 N 0.64093 0.24518 0.08491 0.0
C82 C 0.63346 0.22912 0.0732 0.0
C83 C 0.66588 0.22985 0.06315 0.0
C84 C 0.6613 0.24569 0.07857 0.0
C85 C 0.68401 0.1756 0.02379 0.0
O86 O 0.67173 0.16646 1.00693 0.0
H87 H 0.61763 0.2241 0.07512 0.0
H88 H 0.68098 0.2259 0.05533 0.0
O89 O 0.62913 0.17941 0.06545 0.0
H90 H 0.62212 0.22386 0.95577 0.0
H91 H 0.67212 0.25669 0.08479 0.0
Cu92 Cu 0.08798 0.63472 0.22005 0.0
N93 N 0.1054 0.64887 0.19715 0.0
N94 N 0.11651 0.6711 0.16769 0.0
C95 C 0.1 0.66365 0.18102 0.0
C96 C 0.13288 0.66045 0.17579 0.0
C97 C 0.12598 0.64679 0.1939 0.0
O98 O 0.05979 0.63922 0.2076 0.0
C99 C 0.08143 0.63885 0.27756 0.0
O100 O 0.06436 0.62899 0.27344 0.0
H101 H 0.08426 0.66881 0.17909 0.0
H102 H 0.13535 0.63626 0.2043 0.0
N103 N 0.09324 0.60855 0.21535 0.0
N104 N 0.09519 0.57691 0.22177 0.0
C105 C 0.09392 0.59427 0.23384 0.0
C106 C 0.09426 0.5999 0.19098 0.0
C107 C 0.0954 0.58044 0.19485 0.0
C108 C 0.04973 0.65478 0.21013 0.0
O109 O 0.0576 0.66871 0.22477 0.0
H110 H 0.0925 0.59645 0.25553 0.0
H111 H 0.09343 0.60726 0.17169 0.0
O112 O 0.09314 0.64269 0.25745 0.0
H113 H 0.14884 0.66265 0.16972 0.0
H114 H 0.09597 0.56966 0.17908 0.0
Cu115 Cu 0.64017 0.82284 0.49051 0.0
N116 N 0.62463 0.82674 0.52223 0.0
N117 N 0.61305 0.83384 0.56397 0.0
C118 C 0.62933 0.83468 0.54652 0.0
C119 C 0.59767 0.82519 0.54999 0.0
C120 C 0.60484 0.82087 0.52446 0.0
O121 O 0.66991 0.82769 0.4952 0.0
C122 C 0.62974 0.83335 0.43611 0.0
O123 O 0.64406 0.82083 0.42941 0.0
H124 H 0.64437 0.84062 0.55147 0.0
H125 H 0.59622 0.81385 0.50845 0.0
N126 N 0.63791 0.79691 0.48201 0.0
N127 N 0.62841 0.76933 0.46265 0.0
C128 C 0.62471 0.78832 0.46462 0.0
C129 C 0.65022 0.78294 0.49155 0.0
C130 C 0.64444 0.76594 0.47967 0.0
C131 C 0.67896 0.84271 0.50383 0.0
O132 O 0.66781 0.8578 0.51011 0.0
H133 H 0.6128 0.79588 0.45348 0.0
H134 H 0.66286 0.78508 0.50569 0.0
O135 O 0.62696 0.83724 0.46115 0.0
H136 H 0.58219 0.82241 0.55756 0.0
H137 H 0.65199 0.75228 0.48261 0.0
Cu138 Cu 0.42689 0.38218 0.72299 0.0
N139 N 0.40994 0.36777 0.69988 0.0
N140 N 0.40016 0.34546 0.66978 0.0
C141 C 0.41621 0.35357 0.68326 0.0
C142 C 0.38316 0.35506 0.67835 0.0
C143 C 0.38924 0.36876 0.69689 0.0
O144 O 0.45496 0.37455 0.71346 0.0
C145 C 0.43083 0.37976 0.78078 0.0
O146 O 0.44818 0.3893 0.77713 0.0
H147 H 0.43226 0.3493 0.6812 0.0
H148 H 0.37926 0.37858 0.70772 0.0
N149 N 0.42236 0.40835 0.71662 0.0
N150 N 0.42057 0.4402 0.72114 0.0
C151 C 0.42696 0.42357 0.73246 0.0
C152 C 0.41288 0.41567 0.69461 0.0
C153 C 0.41169 0.43523 0.69736 0.0
C154 C 0.47027 0.38563 0.70927 0.0
O155 O 0.46843 0.40396 0.71456 0.0
H156 H 0.43448 0.42246 0.75204 0.0
H157 H 0.4071 0.4073 0.67775 0.0
O158 O 0.41981 0.37543 0.76024 0.0
H159 H 0.36734 0.35208 0.6723 0.0
H160 H 0.40494 0.44507 0.68287 0.0
Cu161 Cu 0.87904 0.19549 0.9874 0.0
N162 N 0.89299 0.19636 0.02067 0.0
N163 N 0.90403 0.19067 0.06306 0.0
C164 C 0.89071 0.18543 0.04309 0.0
C165 C 0.91506 0.20535 0.05258 0.0
C166 C 0.90823 0.20879 0.02659 0.0
O167 O 0.85108 0.18498 0.99274 0.0
C168 C 0.89372 0.18067 0.93645 0.0
O169 O 0.87717 0.1888 0.92601 0.0
H170 H 0.87944 0.17402 0.04474 0.0
H171 H 0.91408 0.21955 0.01277 0.0
N172 N 0.87691 0.2207 0.97509 0.0
N173 N 0.88298 0.24812 0.95303 0.0
C174 C 0.88864 0.22963 0.95627 0.0
C175 C 0.86352 0.23396 0.9842 0.0
C176 C 0.86714 0.25083 0.9706 0.0
C177 C 0.83602 0.1897 0.97731 0.0
O178 O 0.83983 0.20047 0.95603 0.0
H179 H 0.90127 0.22277 0.94557 0.0
H180 H 0.85187 0.23146 0.99964 0.0
O181 O 0.89645 0.18115 0.96208 0.0
H182 H 0.92753 0.21285 0.06272 0.0
H183 H 0.85853 0.26398 0.97322 0.0
Cu184 Cu 0.97088 0.63788 0.7401 0.0
N185 N 0.94967 0.65029 0.72099 0.0
N186 N 0.932 0.67142 0.6959 0.0
C187 C 0.95028 0.66732 0.70811 0.0
C188 C 0.91956 0.65635 0.70117 0.0
C189 C 0.9305 0.64335 0.71647 0.0
O190 O 0.99715 0.64721 0.72477 0.0
C191 C 0.94963 0.64043 0.79004 0.0
O192 O 0.93546 0.63148 0.7757 0.0
H193 H 0.96383 0.67647 0.70769 0.0
H194 H 0.92498 0.62959 0.72341 0.0
N195 N 0.96818 0.61166 0.73236 0.0
N196 N 0.96596 0.57968 0.73367 0.0
C197 C 0.96908 0.5959 0.74825 0.0
C198 C 0.96458 0.60513 0.70711 0.0
C199 C 0.96317 0.58556 0.70783 0.0
C200 C 0.01265 0.6364 0.71984 0.0
O201 O 0.01208 0.61852 0.72797 0.0
H202 H 0.97168 0.59632 0.76996 0.0
H203 H 0.9631 0.61411 0.68933 0.0
O204 O 0.96717 0.64385 0.77897 0.0
H205 H 0.90384 0.65458 0.69383 0.0
H206 H 0.96059 0.57632 0.69052 0.0
Cu207 Cu 0.12481 0.19878 0.50085 0.0
N208 N 0.10673 0.18236 0.4827 0.0
N209 N 0.08402 0.16936 0.45379 0.0
C210 C 0.09643 0.18454 0.45904 0.0
C211 C 0.08681 0.15726 0.47484 0.0
C212 C 0.10074 0.16532 0.49257 0.0
O213 O 0.12459 0.22374 0.48321 0.0
C214 C 0.12435 0.19171 0.55857 0.0
O215 O 0.14364 0.18609 0.5554 0.0
H216 H 0.09759 0.19714 0.44637 0.0
H217 H 0.1061 0.15926 0.51153 0.0
N218 N 0.15162 0.18858 0.49756 0.0
N219 N 0.18616 0.18534 0.49567 0.0
C220 C 0.17015 0.19646 0.50392 0.0
C221 C 0.15616 0.17199 0.48505 0.0
C222 C 0.17736 0.16996 0.48386 0.0
C223 C 0.10891 0.23477 0.48186 0.0
O224 O 0.09167 0.22985 0.49429 0.0
H225 H 0.17188 0.21027 0.51359 0.0
H226 H 0.1448 0.16223 0.47674 0.0
O227 O 0.11464 0.19887 0.53842 0.0
H228 H 0.07937 0.14348 0.47723 0.0
H229 H 0.1857 0.15807 0.47495 0.0
Cu230 Cu 0.53707 0.37999 0.24008 0.0
N231 N 0.55952 0.3696 0.22128 0.0
N232 N 0.57871 0.35048 0.19505 0.0
C233 C 0.56062 0.35254 0.20863 0.0
C234 C 0.58938 0.36678 0.19948 0.0
C235 C 0.57752 0.37852 0.21571 0.0
O236 O 0.5121 0.36986 0.2227 0.0
C237 C 0.55495 0.3781 0.29264 0.0
O238 O 0.56791 0.39065 0.28232 0.0
H239 H 0.54816 0.34216 0.20862 0.0
H240 H 0.58154 0.39275 0.22253 0.0
N241 N 0.5379 0.40652 0.23414 0.0
N242 N 0.5402 0.4384 0.23716 0.0
C243 C 0.53845 0.42174 0.25108 0.0
C244 C 0.53907 0.41388 0.20896 0.0
C245 C 0.54052 0.43342 0.21072 0.0
C246 C 0.49517 0.3792 0.22095 0.0
O247 O 0.4935 0.3956 0.23378 0.0
H248 H 0.53811 0.42063 0.273 0.0
H249 H 0.53912 0.40548 0.19052 0.0
O250 O 0.53976 0.3723 0.2782 0.0
H251 H 0.60465 0.36999 0.19152 0.0
H252 H 0.54168 0.44324 0.19379 0.0
Cu253 Cu 0.40133 0.81214 0.9974 0.0
N254 N 0.41197 0.8313 0.97491 0.0
N255 N 0.4313 0.84599 0.94349 0.0
C256 C 0.42882 0.83011 0.95879 0.0
C257 C 0.41536 0.85757 0.95027 0.0
C258 C 0.40347 0.84847 0.96966 0.0
O259 O 0.41383 0.78832 0.98491 0.0
C260 C 0.42472 0.82612 0.04175 0.0
O261 O 0.43824 0.82925 0.02227 0.0
H262 H 0.43872 0.81763 0.95777 0.0
H263 H 0.38941 0.85381 0.97895 0.0
N264 N 0.37288 0.81026 0.98961 0.0
N265 N 0.33816 0.81205 0.98852 0.0
C266 C 0.35556 0.81541 1.00332 0.0
C267 C 0.36614 0.80338 0.96569 0.0
C268 C 0.34488 0.80443 0.96495 0.0
C269 C 0.40532 0.77212 0.98885 0.0
O270 O 0.38933 0.77104 1.00536 0.0
H271 H 0.35571 0.82189 0.02328 0.0
H272 H 0.37614 0.7981 0.94973 0.0
O273 O 0.40747 0.81819 0.03567 0.0
H274 H 0.41252 0.87163 0.94187 0.0
H275 H 0.33511 0.79982 0.94831 0.0
Cu276 Cu 0.97007 0.38339 0.78123 0.0
N277 N 0.94827 0.37041 0.79805 0.0
N278 N 0.93008 0.34939 0.8227 0.0
C279 C 0.94918 0.35503 0.81451 0.0
C280 C 0.91677 0.36181 0.81094 0.0
C281 C 0.92802 0.3747 0.79578 0.0
O282 O 0.99585 0.37377 0.79727 0.0
C283 C 0.96555 0.36113 0.73425 0.0
O284 O 0.96739 0.34741 0.75233 0.0
H285 H 0.96354 0.34801 0.82001 0.0
H286 H 0.92191 0.38646 0.78397 0.0
N287 N 0.96689 0.40936 0.79006 0.0
N288 N 0.96482 0.44136 0.78993 0.0
C289 C 0.96883 0.42546 0.77504 0.0
C290 C 0.96165 0.41532 0.81509 0.0
C291 C 0.96035 0.43493 0.8151 0.0
C292 C 0.01158 0.38433 0.80197 0.0
O293 O 0.01148 0.4021 0.79333 0.0
H294 H 0.97282 0.4255 0.75369 0.0
H295 H 0.95898 0.40596 0.83222 0.0
O296 O 0.96744 0.37842 0.74216 0.0
H297 H 0.90008 0.36183 0.81344 0.0
H298 H 0.95666 0.44378 0.83247 0.0
Cu299 Cu 0.40116 0.19688 0.51791 0.0
N300 N 0.41985 0.18058 0.53539 0.0
N301 N 0.44221 0.16764 0.56482 0.0
C302 C 0.42943 0.18253 0.5596 0.0
C303 C 0.44049 0.15593 0.54316 0.0
C304 C 0.42671 0.16392 0.52513 0.0
O305 O 0.40292 0.22229 0.53445 0.0
C306 C 0.40271 0.18374 0.46323 0.0
O307 O 0.38852 0.17166 0.47175 0.0
H308 H 0.42742 0.19473 0.57284 0.0
H309 H 0.42201 0.15801 0.5058 0.0
N310 N 0.37437 0.18704 0.52324 0.0
N311 N 0.33983 0.1829 0.52409 0.0
C312 C 0.35584 0.19339 0.51411 0.0
C313 C 0.36998 0.17217 0.53951 0.0
C314 C 0.34885 0.1696 0.54014 0.0
C315 C 0.39564 0.22452 0.55835 0.0
O316 O 0.38713 0.20976 0.57053 0.0
H317 H 0.35422 0.20546 0.50053 0.0
H318 H 0.38138 0.16402 0.55073 0.0
O319 O 0.4093 0.1966 0.47948 0.0
H320 H 0.44849 0.14243 0.54064 0.0
H321 H 0.34084 0.159 0.55221 0.0
Cu322 Cu 0.54511 0.6333 0.28851 0.0
N323 N 0.56567 0.64644 0.3075 0.0
N324 N 0.58259 0.66783 0.33297 0.0
C325 C 0.564 0.66236 0.32278 0.0
C326 C 0.59632 0.65476 0.32374 0.0
C327 C 0.58585 0.64166 0.30805 0.0
O328 O 0.51823 0.64307 0.30088 0.0
C329 C 0.54475 0.65144 0.23613 0.0
O330 O 0.53077 0.6629 0.24671 0.0
H331 H 0.54953 0.66987 0.32602 0.0
H332 H 0.59245 0.62942 0.29777 0.0
N333 N 0.54769 0.60741 0.298 0.0
N334 N 0.5486 0.57538 0.29786 0.0
C335 C 0.54482 0.59138 0.28313 0.0
C336 C 0.55332 0.6013 0.32282 0.0
C337 C 0.55394 0.58165 0.32281 0.0
C338 C 0.50242 0.63239 0.30443 0.0
O339 O 0.50331 0.61444 0.2967 0.0
H340 H 0.54031 0.59145 0.26195 0.0
H341 H 0.55674 0.61059 0.33981 0.0
O342 O 0.55147 0.6374 0.25009 0.0
H343 H 0.61274 0.65446 0.32832 0.0
H344 H 0.55777 0.57266 0.33999 0.0
Cu345 Cu 0.12466 0.82362 0.02482 0.0
N346 N 0.10751 0.83952 0.04565 0.0
N347 N 0.08529 0.85016 0.07703 0.0
C348 C 0.09406 0.83461 0.06549 0.0
C349 C 0.0933 0.86534 0.06382 0.0
C350 C 0.10685 0.85872 0.04434 0.0
O351 O 0.12194 0.79752 0.03865 0.0
C352 C 0.09712 0.8272 0.98021 0.0
O353 O 0.08317 0.82481 0.99939 0.0
H354 H 0.09106 0.82003 0.0717 0.0
H355 H 0.11589 0.86732 0.03042 0.0
N356 N 0.15227 0.83182 0.02973 0.0
N357 N 0.18701 0.83418 0.02889 0.0
C358 C 0.17012 0.82479 0.01924 0.0
C359 C 0.15818 0.84588 0.04672 0.0
C360 C 0.17943 0.84741 0.04618 0.0
C361 C 0.12852 0.79432 0.06265 0.0
O362 O 0.13694 0.80851 0.07624 0.0
H363 H 0.17068 0.81306 1.00493 0.0
H364 H 0.14782 0.85417 0.0593 0.0
O365 O 0.1163 0.82634 0.98662 0.0
H366 H 0.08947 0.88014 0.06784 0.0
H367 H 0.18862 0.85717 0.05826 0.0
Cu368 Cu 0.58945 0.89016 0.80891 0.0
N369 N 0.60486 0.87521 0.83333 0.0
N370 N 0.61286 0.85323 0.86472 0.0
C371 C 0.59792 0.86038 0.84835 0.0
C372 C 0.62987 0.86393 0.85974 0.0
C373 C 0.62492 0.87738 0.84029 0.0
O374 O 0.56061 0.88769 0.81979 0.0
C375 C 0.58449 0.88574 0.75132 0.0
O376 O 0.56838 0.89706 0.75436 0.0
H377 H 0.58212 0.85517 0.84775 0.0
H378 H 0.63519 0.88812 0.83195 0.0
N379 N 0.59707 0.91598 0.8125 0.0
N380 N 0.60051 0.94754 0.80556 0.0
C381 C 0.59357 0.93072 0.79533 0.0
C382 C 0.60632 0.92379 0.83433 0.0
C383 C 0.60855 0.94314 0.8301 0.0
C384 C 0.54977 0.87273 0.81591 0.0
O385 O 0.55742 0.8588 0.80107 0.0
H386 H 0.58608 0.92915 0.77581 0.0
H387 H 0.61076 0.91601 0.85239 0.0
O388 O 0.59505 0.88105 0.77214 0.0
H389 H 0.64486 0.86203 0.86928 0.0
H390 H 0.61504 0.95325 0.84439 0.0
Cu391 Cu 0.36954 0.31959 0.04018 0.0
N392 N 0.38623 0.32295 1.00936 0.0
N393 N 0.39895 0.33005 0.96824 0.0
C394 C 0.38264 0.33186 0.98545 0.0
C395 C 0.41322 0.31975 0.98196 0.0
C396 C 0.40534 0.31541 1.00714 0.0
O397 O 0.34024 0.32515 0.03343 0.0
C398 C 0.39546 0.34566 0.06966 0.0
O399 O 0.4006 0.35214 0.04553 0.0
H400 H 0.36829 0.33912 0.98056 0.0
H401 H 0.41299 0.30723 0.02287 0.0
N402 N 0.37066 0.29366 0.04868 0.0
N403 N 0.37962 0.26587 0.06784 0.0
C404 C 0.38319 0.28492 0.06672 0.0
C405 C 0.35877 0.2798 0.038 0.0
C406 C 0.36422 0.26266 0.04976 0.0
C407 C 0.33194 0.34084 0.02605 0.0
O408 O 0.34367 0.35601 0.0226 0.0
H409 H 0.39476 0.2924 0.07859 0.0
H410 H 0.34683 0.28206 0.0229 0.0
O411 O 0.38141 0.3329 0.07153 0.0
H412 H 0.4284 0.31577 0.97444 0.0
H413 H 0.35702 0.24897 0.04572 0.0
Cu414 Cu 0.93627 0.13235 0.30417 0.0
N415 N 0.91901 0.14398 0.32985 0.0
N416 N 0.90903 0.16476 0.36193 0.0
C417 C 0.92276 0.16094 0.3419 0.0
C418 C 0.89608 0.14956 0.3624 0.0
C419 C 0.90228 0.13677 0.34259 0.0
O420 O 0.96345 0.14302 0.31201 0.0
C421 C 0.93866 0.13638 0.24701 0.0
O422 O 0.95707 0.12867 0.25041 0.0
H423 H 0.93592 0.16989 0.33686 0.0
H424 H 0.89549 0.12294 0.33836 0.0
N425 N 0.9366 0.10578 0.30961 0.0
N426 N 0.93593 0.07408 0.30321 0.0
C427 C 0.93224 0.09146 0.29207 0.0
C428 C 0.94299 0.09713 0.33253 0.0
C429 C 0.94269 0.07764 0.32863 0.0
C430 C 0.98057 0.13398 0.31208 0.0
O431 O 0.98112 0.1163 0.30308 0.0
H432 H 0.92715 0.09373 0.27137 0.0
H433 H 0.948 0.10457 0.35065 0.0
O434 O 0.92713 0.13899 0.26767 0.0
H435 H 0.88318 0.1477 0.37623 0.0
H436 H 0.94716 0.0669 0.34333 0.0
Cu437 Cu 0.13894 0.69515 0.53976 0.0
N438 N 0.12395 0.69591 0.5071 0.0
N439 N 0.11202 0.69054 0.46496 0.0
C440 C 0.12654 0.68594 0.48382 0.0
C441 C 0.09992 0.70382 0.47705 0.0
C442 C 0.10728 0.70706 0.50285 0.0
O443 O 0.16809 0.6885 0.53334 0.0
C444 C 0.12615 0.68111 0.59141 0.0
O445 O 0.14095 0.69238 0.60042 0.0
H446 H 0.13884 0.67564 0.48074 0.0
H447 H 0.10079 0.71677 0.51769 0.0
N448 N 0.13981 0.71986 0.5542 0.0
N449 N 0.13277 0.74586 0.57885 0.0
C450 C 0.12524 0.72933 0.5686 0.0
C451 C 0.15691 0.73088 0.55517 0.0
C452 C 0.15264 0.74688 0.57042 0.0
C453 C 0.17626 0.67308 0.52467 0.0
O454 O 0.16441 0.65818 0.5198 0.0
H455 H 0.10987 0.72378 0.57268 0.0
H456 H 0.17171 0.72716 0.54625 0.0
O457 O 0.12392 0.67911 0.56581 0.0
H458 H 0.08637 0.71047 0.46814 0.0
H459 H 0.16341 0.75824 0.57537 0.0
Cu460 Cu 0.58492 0.13785 0.72668 0.0
N461 N 0.60156 0.1515 0.70226 0.0
N462 N 0.61035 0.17304 0.67059 0.0
C463 C 0.59607 0.16769 0.68921 0.0
C464 C 0.62546 0.15969 0.67208 0.0
C465 C 0.62 0.14645 0.69164 0.0
O466 O 0.55692 0.14587 0.71761 0.0
C467 C 0.58163 0.14043 0.78437 0.0
O468 O 0.56445 0.13061 0.78091 0.0
H469 H 0.58145 0.17495 0.69252 0.0
H470 H 0.62856 0.13373 0.69717 0.0
N471 N 0.58833 0.11154 0.72045 0.0
N472 N 0.5915 0.07981 0.72557 0.0
C473 C 0.58905 0.09686 0.73828 0.0
C474 C 0.59029 0.10351 0.69578 0.0
C475 C 0.59227 0.08404 0.69883 0.0
C476 C 0.54168 0.13478 0.71296 0.0
O477 O 0.54351 0.11645 0.71821 0.0
H478 H 0.58798 0.09866 0.76006 0.0
H479 H 0.59012 0.11133 0.67682 0.0
O480 O 0.5925 0.14484 0.76368 0.0
H481 H 0.63937 0.15942 0.65976 0.0
H482 H 0.59375 0.07377 0.68251 0.0
Cu483 Cu 0.1362 0.32883 0.98655 0.0
N484 N 0.12021 0.33013 0.01824 0.0
N485 N 0.10837 0.33598 0.06024 0.0
C486 C 0.12406 0.33874 0.04229 0.0
C487 C 0.09422 0.32534 0.04678 0.0
C488 C 0.10155 0.32179 0.02104 0.0
O489 O 0.16448 0.33809 0.9936 0.0
C490 C 0.12297 0.33927 0.9328 0.0
O491 O 0.13708 0.327 0.92469 0.0
H492 H 0.13813 0.34662 0.04662 0.0
H493 H 0.09379 0.31369 1.00532 0.0
N494 N 0.13763 0.30308 0.97657 0.0
N495 N 0.13055 0.27501 0.9568 0.0
C496 C 0.12432 0.29327 0.9607 0.0
C497 C 0.15261 0.29059 0.98331 0.0
C498 C 0.14835 0.27331 0.97111 0.0
C499 C 0.17928 0.33478 0.97702 0.0
O500 O 0.17501 0.32632 0.95388 0.0
H501 H 0.11045 0.29951 0.95206 0.0
H502 H 0.16594 0.29395 0.99578 0.0
O503 O 0.12121 0.34283 0.95812 0.0
H504 H 0.07941 0.32069 0.05479 0.0
H505 H 0.15804 0.2607 0.97202 0.0
Cu506 Cu 0.92887 0.88562 0.21756 0.0
N507 N 0.91263 0.87122 0.19344 0.0
N508 N 0.90368 0.84925 0.16243 0.0
C509 C 0.91849 0.85535 0.17986 0.0
C510 C 0.88788 0.86177 0.16527 0.0
C511 C 0.89342 0.87525 0.18441 0.0
O512 O 0.9573 0.88221 0.20556 0.0
C513 C 0.93456 0.88167 0.27507 0.0
O514 O 0.95104 0.89243 0.27128 0.0
H515 H 0.93357 0.84873 0.18209 0.0
H516 H 0.88425 0.88737 0.19093 0.0
N517 N 0.92276 0.91172 0.21352 0.0
N518 N 0.92166 0.94342 0.22002 0.0
C519 C 0.92436 0.92609 0.23178 0.0
C520 C 0.91882 0.92029 0.18961 0.0
C521 C 0.91814 0.93977 0.19352 0.0
C522 C 0.96865 0.86761 0.20963 0.0
O523 O 0.96218 0.85406 0.22605 0.0
H524 H 0.92847 0.924 0.25288 0.0
H525 H 0.91739 0.91289 0.17041 0.0
O526 O 0.9235 0.87706 0.25467 0.0
H527 H 0.87332 0.86122 0.15432 0.0
H528 H 0.91568 0.95048 0.17797 0.0
Cu529 Cu 0.37023 0.69095 0.47684 0.0
N530 N 0.38625 0.69277 0.50849 0.0
N531 N 0.40009 0.68782 0.54969 0.0
C532 C 0.38518 0.68255 0.53174 0.0
C533 C 0.41087 0.70179 0.53703 0.0
C534 C 0.40234 0.70477 0.51178 0.0
O535 O 0.34256 0.68086 0.48579 0.0
C536 C 0.38481 0.678 0.42506 0.0
O537 O 0.37059 0.68957 0.4153 0.0
H538 H 0.37371 0.67155 0.53536 0.0
H539 H 0.40771 0.71482 0.49664 0.0
N540 N 0.36734 0.71563 0.46253 0.0
N541 N 0.37383 0.74244 0.4393 0.0
C542 C 0.38156 0.72565 0.44831 0.0
C543 C 0.35019 0.72661 0.46289 0.0
C544 C 0.35411 0.74309 0.44845 0.0
C545 C 0.3276 0.68105 0.4688 0.0
O546 O 0.3313 0.68666 0.4438 0.0
H547 H 0.39701 0.72043 0.44385 0.0
H548 H 0.33573 0.72274 0.47261 0.0
O549 O 0.38604 0.67563 0.4507 0.0
H550 H 0.42436 0.70906 0.54508 0.0
H551 H 0.34329 0.75468 0.44494 0.0
Cu552 Cu 0.47374 0.1308 0.23378 0.0
N553 N 0.45167 0.14278 0.21605 0.0
N554 N 0.4326 0.16325 0.19166 0.0
C555 C 0.45187 0.15857 0.20035 0.0
C556 C 0.41995 0.14975 0.20223 0.0
C557 C 0.43173 0.13722 0.21725 0.0
O558 O 0.49952 0.14067 0.21791 0.0
C559 C 0.46613 0.15374 0.27938 0.0
O560 O 0.46632 0.16701 0.2605 0.0
H561 H 0.4658 0.16664 0.19592 0.0
H562 H 0.42619 0.12488 0.22834 0.0
N563 N 0.47106 0.10459 0.22612 0.0
N564 N 0.46951 0.07259 0.22764 0.0
C565 C 0.47381 0.08883 0.24163 0.0
C566 C 0.46502 0.09804 0.20169 0.0
C567 C 0.46401 0.07843 0.20255 0.0
C568 C 0.51493 0.13001 0.21198 0.0
O569 O 0.51442 0.11189 0.21894 0.0
H570 H 0.47852 0.08925 0.26273 0.0
H571 H 0.46152 0.10701 0.18439 0.0
O572 O 0.47044 0.13657 0.27258 0.0
H573 H 0.40336 0.14881 0.19912 0.0
H574 H 0.45976 0.06915 0.18586 0.0
Cu575 Cu 0.61639 0.70145 1.00477 0.0
N576 N 0.59307 0.69025 0.98839 0.0
N577 N 0.56894 0.68009 0.959 0.0
C578 C 0.58866 0.68652 0.96206 0.0
C579 C 0.56088 0.67967 0.98427 0.0
C580 C 0.57562 0.68602 1.00216 0.0
O581 O 0.61874 0.72749 0.99103 0.0
C582 C 0.60978 0.6825 0.05348 0.0
O583 O 0.61306 0.66806 0.03695 0.0
H584 H 0.59936 0.68908 0.94551 0.0
H585 H 0.57351 0.68793 0.02376 0.0
N586 N 0.64103 0.68875 0.99549 0.0
N587 N 0.67503 0.68251 0.99108 0.0
C588 C 0.66051 0.69443 1.00154 0.0
C589 C 0.64322 0.67271 0.98074 0.0
C590 C 0.66411 0.66882 0.978 0.0
C591 C 0.60361 0.73915 0.98954 0.0
O592 O 0.58568 0.73441 1.00032 0.0
H593 H 0.66392 0.70725 0.01299 0.0
H594 H 0.6305 0.66444 0.9725 0.0
O595 O 0.61171 0.69944 0.04411 0.0
H596 H 0.54531 0.67516 0.98952 0.0
H597 H 0.6707 0.65666 0.96748 0.0
Cu598 Cu 0.04049 0.88302 0.74288 0.0
N599 N 0.06165 0.87076 0.72363 0.0
N600 N 0.07865 0.85077 0.69614 0.0
C601 C 0.06065 0.85437 0.70926 0.0
C602 C 0.09142 0.86536 0.70259 0.0
C603 C 0.08093 0.87761 0.71963 0.0
O604 O 0.01423 0.87334 0.72825 0.0
C605 C 0.04827 0.86057 0.78943 0.0
O606 O 0.04716 0.84676 0.7714 0.0
H607 H 0.04687 0.84557 0.70781 0.0
H608 H 0.08676 0.89084 0.72808 0.0
N609 N 0.04296 0.9092 0.7349 0.0
N610 N 0.045 0.94114 0.73646 0.0
C611 C 0.04087 0.92495 0.75061 0.0
C612 C 0.04831 0.91575 0.71017 0.0
C613 C 0.04969 0.93534 0.71109 0.0
C614 C 0.99863 0.88401 0.72332 0.0
O615 O 0.9991 0.90196 0.73112 0.0
H616 H 0.0369 0.92456 0.77196 0.0
H617 H 0.05125 0.90679 0.69269 0.0
O618 O 0.04479 0.87768 0.78165 0.0
H619 H 0.10721 0.86703 0.69545 0.0
H620 H 0.0538 0.94466 0.69437 0.0
Cu621 Cu 0.89426 0.31819 0.49813 0.0
N622 N 0.91128 0.33394 0.47692 0.0
N623 N 0.93276 0.34501 0.44498 0.0
C624 C 0.92467 0.32928 0.4569 0.0
C625 C 0.92428 0.36004 0.45802 0.0
C626 C 0.91114 0.35317 0.47777 0.0
O627 O 0.89539 0.29208 0.4842 0.0
C628 C 0.92123 0.32434 0.54292 0.0
O629 O 0.93539 0.32411 0.52372 0.0
H630 H 0.928 0.31476 0.4507 0.0
H631 H 0.90175 0.36159 0.4915 0.0
N632 N 0.86701 0.32673 0.49238 0.0
N633 N 0.83258 0.33126 0.49387 0.0
C634 C 0.84927 0.32323 0.5062 0.0
C635 C 0.86126 0.33705 0.4706 0.0
C636 C 0.8402 0.33991 0.47149 0.0
C637 C 0.91139 0.28145 0.48269 0.0
O638 O 0.929 0.28745 0.4931 0.0
H639 H 0.84862 0.3149 0.52471 0.0
H640 H 0.87163 0.34175 0.45467 0.0
O641 O 0.90234 0.32116 0.53646 0.0
H642 H 0.92747 0.37492 0.45364 0.0
H643 H 0.83113 0.34727 0.45624 0.0
Cu644 Cu 0.47789 0.87685 0.28287 0.0
N645 N 0.4554 0.86668 0.30201 0.0
N646 N 0.43594 0.84781 0.32835 0.0
C647 C 0.45372 0.84937 0.31391 0.0
C648 C 0.42609 0.86468 0.32525 0.0
C649 C 0.43809 0.87624 0.30897 0.0
O650 O 0.50304 0.86613 0.29925 0.0
C651 C 0.4587 0.87537 0.23104 0.0
O652 O 0.4453 0.88685 0.24282 0.0
H653 H 0.46559 0.83845 0.31288 0.0
H654 H 0.43469 0.89082 0.30313 0.0
N655 N 0.47775 0.90332 0.28957 0.0
N656 N 0.47615 0.93529 0.2875 0.0
C657 C 0.47699 0.91878 0.27307 0.0
C658 C 0.47761 0.91037 0.31497 0.0
C659 C 0.47659 0.92995 0.3138 0.0
C660 C 0.52001 0.87544 0.30099 0.0
O661 O 0.52142 0.89216 0.28895 0.0
H662 H 0.47657 0.91796 0.25112 0.0
H663 H 0.47801 0.90172 0.33318 0.0
O664 O 0.47461 0.86997 0.24444 0.0
H665 H 0.41131 0.86841 0.33428 0.0
H666 H 0.47631 0.93956 0.33104 0.0
Cu667 Cu 0.89003 0.6952 0.02779 0.0
N668 N 0.90672 0.68007 0.05065 0.0
N669 N 0.92934 0.67092 0.08262 0.0
C670 C 0.92255 0.68551 0.06693 0.0
C671 C 0.9175 0.65577 0.07586 0.0
C672 C 0.90366 0.66142 0.05619 0.0
O673 O 0.89075 0.72128 0.04193 0.0
C674 C 0.90258 0.67588 0.98021 0.0
O675 O 0.8976 0.6611 0.99529 0.0
H676 H 0.92846 0.69997 0.06802 0.0
H677 H 0.89171 0.65264 0.04715 0.0
N678 N 0.86245 0.68674 0.03194 0.0
N679 N 0.82819 0.6816 0.02785 0.0
C680 C 0.8455 0.68883 0.01593 0.0
C681 C 0.85543 0.67829 0.05471 0.0
C682 C 0.83453 0.675 0.05221 0.0
C683 C 0.90608 0.73276 0.0411 0.0
O684 O 0.92288 0.72784 0.02768 0.0
H685 H 0.8458 0.69568 0.99622 0.0
H686 H 0.86478 0.6753 0.07243 0.0
O687 O 0.89986 0.69262 0.98997 0.0
H688 H 0.9187 0.64163 0.08464 0.0
H689 H 0.82459 0.66889 0.06767 0.0
Cu690 Cu 0.04774 0.13744 0.78426 0.0
N691 N 0.06845 0.1519 0.80102 0.0
N692 N 0.08528 0.17374 0.82588 0.0
C693 C 0.06663 0.16599 0.81957 0.0
C694 C 0.09922 0.16404 0.81071 0.0
C695 C 0.08881 0.15073 0.79536 0.0
O696 O 0.02117 0.14441 0.80112 0.0
C697 C 0.06157 0.1368 0.72928 0.0
O698 O 0.0717 0.12146 0.73706 0.0
H699 H 0.05189 0.17071 0.82772 0.0
H700 H 0.09558 0.14084 0.78098 0.0
N701 N 0.05423 0.11144 0.78983 0.0
N702 N 0.05495 0.0793 0.78953 0.0
C703 C 0.04579 0.09529 0.77943 0.0
C704 C 0.06914 0.10543 0.80689 0.0
C705 C 0.06972 0.08583 0.80666 0.0
C706 C 0.01126 0.13343 0.81727 0.0
O707 O 0.01836 0.11615 0.82193 0.0
H708 H 0.03303 0.09534 0.76515 0.0
H709 H 0.07894 0.1147 0.81888 0.0
O710 O 0.04924 0.14493 0.74594 0.0
H711 H 0.11585 0.16623 0.81079 0.0
H712 H 0.08053 0.07716 0.81807 0.0
Cu713 Cu 0.6184 0.32268 0.52401 0.0
N714 N 0.60046 0.33944 0.54206 0.0
N715 N 0.57735 0.35242 0.57041 0.0
C716 C 0.58937 0.33702 0.56507 0.0
C717 C 0.58117 0.36495 0.5502 0.0
C718 C 0.59544 0.35694 0.53285 0.0
O719 O 0.61806 0.29764 0.5416 0.0
C720 C 0.59147 0.32511 0.47849 0.0
O721 O 0.57713 0.32467 0.49744 0.0
H722 H 0.58966 0.3241 0.57717 0.0
H723 H 0.60155 0.36329 0.51448 0.0
N724 N 0.64531 0.33251 0.52791 0.0
N725 N 0.67991 0.33525 0.53004 0.0
C726 C 0.66373 0.32426 0.52201 0.0
C727 C 0.65006 0.34923 0.53988 0.0
C728 C 0.67129 0.35098 0.54119 0.0
C729 C 0.6023 0.28686 0.54466 0.0
O730 O 0.58448 0.2919 0.53388 0.0
H731 H 0.66522 0.31028 0.51277 0.0
H732 H 0.63885 0.35936 0.54762 0.0
O733 O 0.61044 0.32288 0.48538 0.0
H734 H 0.57415 0.37893 0.54812 0.0
H735 H 0.67973 0.36297 0.54961 0.0
C736 C 0.10477 0.36686 0.21725 0.0
C737 C 0.08736 0.37848 0.22196 0.0
C738 C 0.10958 0.36023 0.191 0.0
C739 C 0.09668 0.36529 0.16885 0.0
C740 C 0.07927 0.37724 0.1734 0.0
C741 C 0.07483 0.38368 0.19983 0.0
C742 C 0.12829 0.34753 0.18706 0.0
C743 C 0.06507 0.38294 0.15038 0.0
C744 C 0.11615 0.36 0.09592 0.0
C745 C 0.10658 0.3429 0.08785 0.0
C746 C 0.11335 0.36735 0.12233 0.0
C747 C 0.10073 0.35734 0.14115 0.0
C748 C 0.09146 0.33984 0.1333 0.0
C749 C 0.0945 0.33286 0.10686 0.0
C750 C 0.12354 0.38603 0.12989 0.0
C751 C 0.078 0.32861 0.15272 0.0
H752 H 0.11461 0.36279 0.23414 0.0
H753 H 0.06138 0.39268 0.20317 0.0
H754 H 0.12327 0.33327 0.17972 0.0
H755 H 0.13868 0.35367 0.17134 0.0
H756 H 0.13729 0.34561 0.2061 0.0
H757 H 0.05267 0.39293 0.15705 0.0
H758 H 0.07415 0.38986 0.13394 0.0
H759 H 0.05767 0.37003 0.1416 0.0
H760 H 0.12537 0.36793 0.08138 0.0
H761 H 0.08738 0.31945 0.10106 0.0
H762 H 0.13305 0.3842 0.14849 0.0
H763 H 0.11146 0.39686 0.13454 0.0
H764 H 0.13361 0.39164 0.1134 0.0
H765 H 0.08682 0.32525 0.17147 0.0
H766 H 0.07234 0.31501 0.14371 0.0
H767 H 0.06438 0.33732 0.1588 0.0
C768 C 0.94113 0.88002 0.32534 0.0
C769 C 0.92879 0.87514 0.30288 0.0
C770 C 0.93602 0.87381 0.35169 0.0
C771 C 0.9181 0.86241 0.35583 0.0
C772 C 0.90542 0.85766 0.33332 0.0
C773 C 0.91091 0.86405 0.30717 0.0
C774 C 0.95002 0.87917 0.37507 0.0
C775 C 0.88619 0.84556 0.3368 0.0
C776 C 0.91826 0.83014 0.41808 0.0
C777 C 0.90632 0.8406 0.43678 0.0
C778 C 0.92187 0.83692 0.39166 0.0
C779 C 0.91332 0.85465 0.38347 0.0
C780 C 0.90078 0.86508 0.40195 0.0
C781 C 0.8974 0.85791 0.42836 0.0
C782 C 0.93519 0.82524 0.37263 0.0
C783 C 0.89136 0.88402 0.39403 0.0
H784 H 0.95493 0.88862 0.32235 0.0
H785 H 0.9012 0.86024 0.29003 0.0
H786 H 0.94093 0.88642 0.3912 0.0
H787 H 0.9568 0.86606 0.38416 0.0
H788 H 0.96288 0.88875 0.3687 0.0
H789 H 0.87745 0.84384 0.31751 0.0
H790 H 0.89057 0.83118 0.34439 0.0
H791 H 0.87577 0.85206 0.35217 0.0
H792 H 0.92486 0.81657 0.42415 0.0
H793 H 0.88828 0.86615 0.44266 0.0
H794 H 0.94923 0.8335 0.36691 0.0
H795 H 0.92656 0.82213 0.35365 0.0
H796 H 0.94019 0.81149 0.38183 0.0
H797 H 0.90387 0.8945 0.38974 0.0
H798 H 0.88118 0.88992 0.4102 0.0
H799 H 0.88213 0.88243 0.37515 0.0
C800 C 0.44577 0.64021 0.68396 0.0
C801 C 0.43302 0.64286 0.70677 0.0
C802 C 0.43979 0.64689 0.65816 0.0
C803 C 0.4205 0.65636 0.65497 0.0
C804 C 0.40739 0.65878 0.6778 0.0
C805 C 0.41382 0.65207 0.70339 0.0
C806 C 0.4543 0.64413 0.63441 0.0
C807 C 0.38666 0.66869 0.67529 0.0
C808 C 0.41501 0.69104 0.59581 0.0
C809 C 0.40431 0.68006 0.57643 0.0
C810 C 0.42025 0.68353 0.62136 0.0
C811 C 0.41452 0.66457 0.62802 0.0
C812 C 0.40333 0.6535 0.60887 0.0
C813 C 0.39839 0.66135 0.58331 0.0
C814 C 0.43214 0.69587 0.64115 0.0
C815 C 0.39682 0.63326 0.61523 0.0
H816 H 0.46062 0.63311 0.68629 0.0
H817 H 0.40377 0.65412 0.72081 0.0
H818 H 0.4462 0.63652 0.61772 0.0
H819 H 0.45918 0.65826 0.62638 0.0
H820 H 0.4684 0.6359 0.64002 0.0
H821 H 0.37784 0.66862 0.69468 0.0
H822 H 0.38901 0.68374 0.66888 0.0
H823 H 0.37713 0.66164 0.65942 0.0
H824 H 0.41931 0.70562 0.59106 0.0
H825 H 0.39029 0.65267 0.56853 0.0
H826 H 0.44712 0.68895 0.64632 0.0
H827 H 0.42324 0.69741 0.66032 0.0
H828 H 0.43538 0.71036 0.63292 0.0
H829 H 0.41075 0.62429 0.61881 0.0
H830 H 0.38758 0.62676 0.59857 0.0
H831 H 0.38745 0.63296 0.63414 0.0
C832 C 0.60602 0.1578 0.81564 0.0
C833 C 0.58805 0.14673 0.81201 0.0
C834 C 0.61187 0.16442 0.8415 0.0
C835 C 0.59949 0.15989 0.8644 0.0
C836 C 0.58157 0.14841 0.86098 0.0
C837 C 0.57606 0.14199 0.83487 0.0
C838 C 0.63109 0.17663 0.84421 0.0
C839 C 0.56797 0.14322 0.88485 0.0
C840 C 0.62379 0.16649 0.93452 0.0
C841 C 0.61641 0.18465 0.9419 0.0
C842 C 0.61815 0.15807 0.9096 0.0
C843 C 0.60476 0.16801 0.89164 0.0
C844 C 0.59684 0.1861 0.89932 0.0
C845 C 0.60274 0.19415 0.92428 0.0
C846 C 0.62692 0.13876 0.90219 0.0
C847 C 0.58241 0.19714 0.88093 0.0
H848 H 0.61544 0.16152 0.79818 0.0
H849 H 0.56219 0.1334 0.83237 0.0
H850 H 0.62675 0.19108 0.85157 0.0
H851 H 0.64177 0.17033 0.85945 0.0
H852 H 0.63955 0.17817 0.82466 0.0
H853 H 0.55516 0.1334 0.87905 0.0
H854 H 0.57737 0.13633 0.90098 0.0
H855 H 0.56112 0.15637 0.89371 0.0
H856 H 0.63449 0.15911 0.94784 0.0
H857 H 0.59664 0.208 0.93 0.0
H858 H 0.63692 0.14011 0.88394 0.0
H859 H 0.61418 0.12874 0.89699 0.0
H860 H 0.63626 0.13246 0.9189 0.0
H861 H 0.59039 0.20047 0.86152 0.0
H862 H 0.57711 0.21076 0.89024 0.0
H863 H 0.56859 0.18836 0.87594 0.0
C864 C 0.07345 0.64261 0.32729 0.0
C865 C 0.087 0.64556 0.30535 0.0
C866 C 0.0783 0.64928 0.3535 0.0
C867 C 0.09722 0.6591 0.35805 0.0
C868 C 0.11114 0.66183 0.33611 0.0
C869 C 0.10586 0.65509 0.31008 0.0
C870 C 0.06295 0.64613 0.37626 0.0
C871 C 0.1315 0.67215 0.34005 0.0
C872 C 0.09919 0.69365 0.41778 0.0
C873 C 0.10936 0.68286 0.43785 0.0
C874 C 0.09535 0.68615 0.39179 0.0
C875 C 0.10192 0.66737 0.38541 0.0
C876 C 0.11261 0.65651 0.40531 0.0
C877 C 0.1162 0.66437 0.43125 0.0
C878 C 0.08401 0.6983 0.37123 0.0
C879 C 0.11994 0.63646 0.39932 0.0
H880 H 0.05886 0.63526 0.32395 0.0
H881 H 0.11652 0.65739 0.29336 0.0
H882 H 0.07059 0.63867 0.39344 0.0
H883 H 0.05739 0.66012 0.38399 0.0
H884 H 0.04931 0.63759 0.36969 0.0
H885 H 0.14107 0.6723 0.32127 0.0
H886 H 0.12854 0.68714 0.34633 0.0
H887 H 0.14056 0.66527 0.35653 0.0
H888 H 0.09421 0.70807 0.42236 0.0
H889 H 0.12391 0.65584 0.44657 0.0
H890 H 0.06938 0.69112 0.36508 0.0
H891 H 0.0936 0.7 0.35267 0.0
H892 H 0.08016 0.71272 0.37923 0.0
H893 H 0.10641 0.62716 0.39484 0.0
H894 H 0.12872 0.63015 0.41655 0.0
H895 H 0.13 0.63643 0.38103 0.0
C896 C 0.62237 0.85718 0.59992 0.0
C897 C 0.61165 0.84074 0.59161 0.0
C898 C 0.61946 0.86488 0.62611 0.0
C899 C 0.6056 0.85585 0.64448 0.0
C900 C 0.59533 0.83887 0.63646 0.0
C901 C 0.59848 0.83157 0.61023 0.0
C902 C 0.63071 0.883 0.63385 0.0
C903 C 0.5806 0.82863 0.65539 0.0
C904 C 0.60728 0.86608 0.72057 0.0
C905 C 0.59037 0.87856 0.72388 0.0
C906 C 0.61275 0.85896 0.6948 0.0
C907 C 0.60108 0.86443 0.67169 0.0
C908 C 0.58423 0.87726 0.67483 0.0
C909 C 0.57909 0.88414 0.70082 0.0
C910 C 0.63077 0.84528 0.69239 0.0
C911 C 0.57136 0.88346 0.65076 0.0
H912 H 0.63247 0.8644 0.58562 0.0
H913 H 0.59045 0.81865 0.60418 0.0
H914 H 0.61929 0.89464 0.63721 0.0
H915 H 0.63924 0.88094 0.6532 0.0
H916 H 0.64187 0.88765 0.61796 0.0
H917 H 0.57453 0.81515 0.64649 0.0
H918 H 0.58851 0.82522 0.6748 0.0
H919 H 0.56727 0.83807 0.66026 0.0
H920 H 0.61616 0.8617 0.73819 0.0
H921 H 0.56607 0.89382 0.70306 0.0
H922 H 0.64207 0.85061 0.67715 0.0
H923 H 0.62515 0.83118 0.68517 0.0
H924 H 0.63896 0.84321 0.71203 0.0
H925 H 0.58151 0.88961 0.63479 0.0
H926 H 0.55944 0.89423 0.65636 0.0
H927 H 0.56342 0.87087 0.64181 0.0
C928 C 0.4134 0.32737 0.92197 0.0
C929 C 0.40115 0.33728 0.94088 0.0
C930 C 0.41702 0.33469 0.89586 0.0
C931 C 0.40823 0.35245 0.88831 0.0
C932 C 0.39541 0.36235 0.90703 0.0
C933 C 0.39196 0.35461 0.93308 0.0
C934 C 0.4306 0.32353 0.87651 0.0
C935 C 0.38577 0.38134 0.89978 0.0
C936 C 0.43641 0.37852 0.83125 0.0
C937 C 0.42439 0.37367 0.80851 0.0
C938 C 0.43095 0.37223 0.85743 0.0
C939 C 0.41303 0.36076 0.86105 0.0
C940 C 0.40055 0.35619 0.83828 0.0
C941 C 0.40636 0.36269 0.81233 0.0
C942 C 0.44467 0.37746 0.88115 0.0
C943 C 0.38136 0.34397 0.84121 0.0
H944 H 0.42022 0.3138 0.92764 0.0
H945 H 0.3826 0.3624 0.94762 0.0
H946 H 0.42211 0.32071 0.85732 0.0
H947 H 0.44457 0.33205 0.87127 0.0
H948 H 0.43573 0.30966 0.8852 0.0
H949 H 0.37542 0.3868 0.91607 0.0
H950 H 0.39817 0.39204 0.89605 0.0
H951 H 0.37668 0.38003 0.88074 0.0
H952 H 0.4503 0.38706 0.8286 0.0
H953 H 0.39689 0.35891 0.79495 0.0
H954 H 0.45177 0.36434 0.88976 0.0
H955 H 0.43532 0.38418 0.89748 0.0
H956 H 0.45731 0.38745 0.87526 0.0
H957 H 0.38581 0.32942 0.84804 0.0
H958 H 0.3726 0.3427 0.82186 0.0
H959 H 0.37093 0.35005 0.85693 0.0
C960 C 0.91491 0.19327 0.11106 0.0
C961 C 0.90662 0.18233 0.08975 0.0
C962 C 0.91892 0.1852 0.13663 0.0
C963 C 0.91441 0.16567 0.14126 0.0
C964 C 0.90544 0.15464 0.12016 0.0
C965 C 0.90167 0.16309 0.09466 0.0
C966 C 0.92843 0.19753 0.15854 0.0
C967 C 0.9003 0.13379 0.12431 0.0
C968 C 0.94562 0.14187 0.19749 0.0
C969 C 0.93188 0.14277 0.21959 0.0
C970 C 0.93992 0.1488 0.17176 0.0
C971 C 0.91992 0.15675 0.16787 0.0
C972 C 0.90575 0.1572 0.18987 0.0
C973 C 0.91191 0.15027 0.21546 0.0
C974 C 0.95555 0.14813 0.14892 0.0
C975 C 0.88424 0.16542 0.18653 0.0
H976 H 0.91837 0.20824 0.10776 0.0
H977 H 0.89539 0.15446 0.07835 0.0
H978 H 0.91853 0.19732 0.17698 0.0
H979 H 0.94382 0.19172 0.16437 0.0
H980 H 0.93046 0.2126 0.15195 0.0
H981 H 0.89218 0.12751 0.10653 0.0
H982 H 0.91478 0.1256 0.12794 0.0
H983 H 0.89037 0.132 0.14255 0.0
H984 H 0.96107 0.13609 0.2004 0.0
H985 H 0.90113 0.15095 0.23233 0.0
H986 H 0.95954 0.1629 0.14253 0.0
H987 H 0.94882 0.14077 0.13102 0.0
H988 H 0.97007 0.14065 0.15486 0.0
H989 H 0.88532 0.18092 0.18197 0.0
H990 H 0.87459 0.16352 0.20503 0.0
H991 H 0.87624 0.15854 0.16913 0.0
C992 C 0.9594 0.65454 0.83576 0.0
C993 C 0.94431 0.64727 0.81796 0.0
C994 C 0.95405 0.6607 0.8622 0.0
C995 C 0.93307 0.6598 0.87099 0.0
C996 C 0.91777 0.6529 0.85282 0.0
C997 C 0.92356 0.64666 0.82677 0.0
C998 C 0.97089 0.66777 0.88095 0.0
C999 C 0.89522 0.65177 0.86108 0.0
C1000 C 0.91858 0.65418 0.94559 0.0
C1001 C 0.91158 0.67256 0.95263 0.0
C1002 C 0.9264 0.65013 0.91956 0.0
C1003 C 0.92711 0.66472 0.89965 0.0
C1004 C 0.92054 0.68345 0.90674 0.0
C1005 C 0.91297 0.68718 0.93318 0.0
C1006 C 0.93336 0.63 0.91317 0.0
C1007 C 0.92085 0.6994 0.88612 0.0
H1008 H 0.97544 0.65514 0.82919 0.0
H1009 H 0.91167 0.64128 0.81321 0.0
H1010 H 0.96686 0.68213 0.88892 0.0
H1011 H 0.97223 0.65804 0.89866 0.0
H1012 H 0.98623 0.66859 0.8707 0.0
H1013 H 0.88503 0.64721 0.84407 0.0
H1014 H 0.89339 0.64143 0.87801 0.0
H1015 H 0.88981 0.66588 0.86854 0.0
H1016 H 0.91784 0.64278 0.96047 0.0
H1017 H 0.90766 0.70142 0.93837 0.0
H1018 H 0.94923 0.63015 0.9044 0.0
H1019 H 0.92289 0.62362 0.89777 0.0
H1020 H 0.93337 0.62066 0.93142 0.0
H1021 H 0.93644 0.70053 0.87669 0.0
H1022 H 0.91673 0.71342 0.89523 0.0
H1023 H 0.90966 0.69618 0.86961 0.0
C1024 C 0.12427 0.18364 0.6082 0.0
C1025 C 0.11316 0.18697 0.58416 0.0
C1026 C 0.1143 0.17693 0.63178 0.0
C1027 C 0.09272 0.17297 0.63123 0.0
C1028 C 0.0813 0.1768 0.60723 0.0
C1029 C 0.09161 0.18393 0.5841 0.0
C1030 C 0.12703 0.17349 0.65705 0.0
C1031 C 0.05839 0.17249 0.60554 0.0
C1032 C 0.07558 0.13491 0.68191 0.0
C1033 C 0.06693 0.1459 0.70287 0.0
C1034 C 0.08314 0.14349 0.65802 0.0
C1035 C 0.08253 0.16365 0.65519 0.0
C1036 C 0.07329 0.1748 0.67599 0.0
C1037 C 0.0654 0.16578 0.69943 0.0
C1038 C 0.09238 0.13097 0.63616 0.0
C1039 C 0.07262 0.19632 0.67407 0.0
H1040 H 0.1409 0.18601 0.60846 0.0
H1041 H 0.08292 0.18626 0.56554 0.0
H1042 H 0.11966 0.18052 0.67481 0.0
H1043 H 0.12768 0.15794 0.66141 0.0
H1044 H 0.14316 0.17892 0.65499 0.0
H1045 H 0.05144 0.17753 0.58617 0.0
H1046 H 0.05592 0.15683 0.6072 0.0
H1047 H 0.05 0.17927 0.62269 0.0
H1048 H 0.07675 0.11955 0.68435 0.0
H1049 H 0.05895 0.17441 0.71565 0.0
H1050 H 0.10929 0.13373 0.63456 0.0
H1051 H 0.08538 0.13442 0.61616 0.0
H1052 H 0.09002 0.11551 0.64033 0.0
H1053 H 0.08867 0.20207 0.67457 0.0
H1054 H 0.06366 0.20285 0.69097 0.0
H1055 H 0.06561 0.20082 0.65452 0.0
C1056 C 0.56649 0.34001 0.4458 0.0
C1057 C 0.58564 0.33094 0.45038 0.0
C1058 C 0.56108 0.34713 0.42006 0.0
C1059 C 0.57491 0.3448 0.39795 0.0
C1060 C 0.594 0.33511 0.40218 0.0
C1061 C 0.59925 0.32852 0.42839 0.0
C1062 C 0.5408 0.35771 0.41675 0.0
C1063 C 0.60899 0.33194 0.37907 0.0
C1064 C 0.55225 0.35137 0.32673 0.0
C1065 C 0.55916 0.3698 0.31994 0.0
C1066 C 0.5576 0.3429 0.35176 0.0
C1067 C 0.5697 0.35325 0.3708 0.0
C1068 C 0.57635 0.37201 0.36421 0.0
C1069 C 0.57124 0.37992 0.3388 0.0
C1070 C 0.55052 0.32275 0.35769 0.0
C1071 C 0.58878 0.3838 0.3841 0.0
H1072 H 0.5559 0.34215 0.46263 0.0
H1073 H 0.61404 0.3215 0.43168 0.0
H1074 H 0.54389 0.37264 0.41026 0.0
H1075 H 0.53129 0.35092 0.40066 0.0
H1076 H 0.53161 0.35806 0.43584 0.0
H1077 H 0.62242 0.32295 0.38517 0.0
H1078 H 0.60094 0.32494 0.3618 0.0
H1079 H 0.61492 0.34589 0.37167 0.0
H1080 H 0.54314 0.34335 0.31215 0.0
H1081 H 0.57661 0.39418 0.33375 0.0
H1082 H 0.54046 0.3226 0.37596 0.0
H1083 H 0.56415 0.31358 0.36217 0.0
H1084 H 0.54179 0.31639 0.34047 0.0
H1085 H 0.58005 0.38535 0.40341 0.0
H1086 H 0.5924 0.39828 0.37613 0.0
H1087 H 0.60357 0.37644 0.38893 0.0
C1088 C 0.43943 0.87695 0.18677 0.0
C1089 C 0.45439 0.86798 0.20317 0.0
C1090 C 0.43441 0.86983 0.16084 0.0
C1091 C 0.44428 0.85309 0.15104 0.0
C1092 C 0.45934 0.84391 0.16754 0.0
C1093 C 0.46433 0.85154 0.19325 0.0
C1094 C 0.41859 0.88034 0.14383 0.0
C1095 C 0.47008 0.82594 0.15808 0.0
C1096 C 0.41787 0.8265 0.09238 0.0
C1097 C 0.42956 0.83261 0.06995 0.0
C1098 C 0.42268 0.83273 0.11893 0.0
C1099 C 0.43937 0.84566 0.12316 0.0
C1100 C 0.45112 0.85192 0.10054 0.0
C1101 C 0.4462 0.84523 0.07439 0.0
C1102 C 0.40991 0.82549 0.14248 0.0
C1103 C 0.46878 0.86593 0.1039 0.0
H1104 H 0.43167 0.88967 0.19415 0.0
H1105 H 0.47576 0.8444 0.20581 0.0
H1106 H 0.42572 0.8849 0.12436 0.0
H1107 H 0.40548 0.8707 0.13879 0.0
H1108 H 0.41234 0.89317 0.15431 0.0
H1109 H 0.4809 0.82014 0.17359 0.0
H1110 H 0.45839 0.81482 0.15314 0.0
H1111 H 0.47896 0.82887 0.13923 0.0
H1112 H 0.40505 0.81671 0.08924 0.0
H1113 H 0.45531 0.85018 0.05726 0.0
H1114 H 0.40202 0.83763 0.15265 0.0
H1115 H 0.42017 0.81867 0.15777 0.0
H1116 H 0.39798 0.81497 0.13602 0.0
H1117 H 0.46294 0.87938 0.11309 0.0
H1118 H 0.47642 0.86942 0.08428 0.0
H1119 H 0.48061 0.86 0.11791 0.0
C1120 C 0.95812 0.33698 0.69782 0.0
C1121 C 0.95966 0.35624 0.70574 0.0
C1122 C 0.95156 0.33181 0.67159 0.0
C1123 C 0.9463 0.34619 0.65256 0.0
C1124 C 0.94792 0.36568 0.66031 0.0
C1125 C 0.9546 0.37047 0.68675 0.0
C1126 C 0.95022 0.31088 0.66426 0.0
C1127 C 0.94251 0.38147 0.64067 0.0
C1128 C 0.94836 0.33283 0.57747 0.0
C1129 C 0.92737 0.32948 0.57126 0.0
C1130 C 0.95464 0.33841 0.60366 0.0
C1131 C 0.93963 0.34076 0.6244 0.0
C1132 C 0.91841 0.33736 0.61835 0.0
C1133 C 0.91254 0.33176 0.59191 0.0
C1134 C 0.97742 0.34176 0.60912 0.0
C1135 C 0.9019 0.33965 0.63985 0.0
H1136 H 0.96196 0.32582 0.71223 0.0
H1137 H 0.95561 0.38537 0.69262 0.0
H1138 H 0.93416 0.30725 0.65798 0.0
H1139 H 0.96052 0.30778 0.64674 0.0
H1140 H 0.95471 0.30142 0.6814 0.0
H1141 H 0.9444 0.39589 0.6498 0.0
H1142 H 0.95253 0.3805 0.62239 0.0
H1143 H 0.92621 0.37985 0.63377 0.0
H1144 H 0.96001 0.33116 0.56178 0.0
H1145 H 0.8963 0.3293 0.58738 0.0
H1146 H 0.98289 0.33188 0.62523 0.0
H1147 H 0.97986 0.35654 0.61664 0.0
H1148 H 0.98713 0.33959 0.59073 0.0
H1149 H 0.90498 0.32973 0.65696 0.0
H1150 H 0.88608 0.33679 0.63188 0.0
H1151 H 0.90232 0.35439 0.64818 0.0
C1152 C 0.44865 0.17622 0.31172 0.0
C1153 C 0.45869 0.15866 0.30721 0.0
C1154 C 0.44013 0.18087 0.33716 0.0
C1155 C 0.44194 0.16783 0.35902 0.0
C1156 C 0.45257 0.1503 0.35488 0.0
C1157 C 0.46063 0.14583 0.32899 0.0
C1158 C 0.42863 0.19955 0.34039 0.0
C1159 C 0.45517 0.13613 0.37775 0.0
C1160 C 0.43262 0.18725 0.43065 0.0
C1161 C 0.4124 0.18083 0.43607 0.0
C1162 C 0.44255 0.18292 0.40587 0.0
C1163 C 0.43187 0.17224 0.38576 0.0
C1164 C 0.41127 0.16613 0.39093 0.0
C1165 C 0.40191 0.17031 0.41606 0.0
C1166 C 0.4646 0.18948 0.4014 0.0
C1167 C 0.39909 0.15513 0.3699 0.0
H1168 H 0.44691 0.18623 0.29507 0.0
H1169 H 0.46838 0.13227 0.32578 0.0
H1170 H 0.4122 0.19669 0.34579 0.0
H1171 H 0.43547 0.20801 0.3572 0.0
H1172 H 0.42898 0.20833 0.32159 0.0
H1173 H 0.465 0.12377 0.37181 0.0
H1174 H 0.46229 0.14324 0.39561 0.0
H1175 H 0.43976 0.1307 0.38418 0.0
H1176 H 0.44095 0.19518 0.44611 0.0
H1177 H 0.38627 0.16531 0.42004 0.0
H1178 H 0.46542 0.19891 0.38332 0.0
H1179 H 0.4747 0.17696 0.3973 0.0
H1180 H 0.4709 0.19736 0.41917 0.0
H1181 H 0.39813 0.16351 0.35081 0.0
H1182 H 0.38309 0.15177 0.37681 0.0
H1183 H 0.40714 0.14153 0.36506 0.0
C1184 C 0.54312 0.66643 0.18979 0.0
C1185 C 0.55422 0.65604 0.20934 0.0
C1186 C 0.55218 0.67137 0.1647 0.0
C1187 C 0.5731 0.66634 0.1593 0.0
C1188 C 0.58449 0.65615 0.17922 0.0
C1189 C 0.57484 0.65089 0.20378 0.0
C1190 C 0.53924 0.6817 0.14377 0.0
C1191 C 0.60694 0.65086 0.17465 0.0
C1192 C 0.5912 0.66107 0.08602 0.0
C1193 C 0.6009 0.6787 0.08091 0.0
C1194 C 0.58193 0.65704 0.1112 0.0
C1195 C 0.58271 0.67077 0.13228 0.0
C1196 C 0.5927 0.68855 0.12744 0.0
C1197 C 0.60143 0.69241 0.1017 0.0
C1198 C 0.57107 0.63809 0.1151 0.0
C1199 C 0.59429 0.70342 0.14953 0.0
H1200 H 0.52719 0.67047 0.19395 0.0
H1201 H 0.58365 0.64311 0.21895 0.0
H1202 H 0.54666 0.69548 0.1383 0.0
H1203 H 0.53831 0.67301 0.12494 0.0
H1204 H 0.52323 0.6846 0.15106 0.0
H1205 H 0.61403 0.64403 0.19279 0.0
H1206 H 0.6082 0.64082 0.15729 0.0
H1207 H 0.61606 0.66379 0.16937 0.0
H1208 H 0.59045 0.65043 0.07004 0.0
H1209 H 0.60889 0.70605 0.09795 0.0
H1210 H 0.5547 0.64051 0.12122 0.0
H1211 H 0.57864 0.62992 0.13167 0.0
H1212 H 0.57124 0.6292 0.0964 0.0
H1213 H 0.57855 0.70791 0.15605 0.0
H1214 H 0.60302 0.71628 0.14285 0.0
H1215 H 0.60215 0.69724 0.16757 0.0
C1216 C 0.05835 0.87066 0.83696 0.0
C1217 C 0.05493 0.85612 0.8178 0.0
C1218 C 0.06554 0.8664 0.86336 0.0
C1219 C 0.0694 0.84714 0.87089 0.0
C1220 C 0.06586 0.83244 0.85168 0.0
C1221 C 0.0587 0.83708 0.8255 0.0
C1222 C 0.06905 0.88253 0.88319 0.0
C1223 C 0.06966 0.81172 0.85876 0.0
C1224 C 0.10474 0.8359 0.93136 0.0
C1225 C 0.09031 0.83197 0.952 0.0
C1226 C 0.0982 0.84102 0.90499 0.0
C1227 C 0.0767 0.84225 0.899 0.0
C1228 C 0.0621 0.83827 0.91974 0.0
C1229 C 0.06905 0.8332 0.94586 0.0
C1230 C 0.11431 0.84508 0.88349 0.0
C1231 C 0.03905 0.83932 0.91434 0.0
H1232 H 0.05558 0.8854 0.83127 0.0
H1233 H 0.05617 0.82569 0.81097 0.0
H1234 H 0.05919 0.88045 0.90143 0.0
H1235 H 0.08544 0.8825 0.89011 0.0
H1236 H 0.06548 0.89672 0.87422 0.0
H1237 H 0.06632 0.80197 0.84149 0.0
H1238 H 0.08605 0.80969 0.86504 0.0
H1239 H 0.05977 0.8075 0.87621 0.0
H1240 H 0.12119 0.83508 0.93583 0.0
H1241 H 0.05769 0.83025 0.96156 0.0
H1242 H 0.11213 0.85973 0.87532 0.0
H1243 H 0.11241 0.835 0.86628 0.0
H1244 H 0.13039 0.8438 0.89142 0.0
H1245 H 0.03486 0.8538 0.90697 0.0
H1246 H 0.02968 0.83609 0.93272 0.0
H1247 H 0.03476 0.82903 0.89814 0.0
C1248 C 0.12246 0.33548 0.40473 0.0
C1249 C 0.11303 0.3351 0.37904 0.0
C1250 C 0.12166 0.31955 0.42214 0.0
C1251 C 0.11139 0.30268 0.41358 0.0
C1252 C 0.10186 0.30219 0.38765 0.0
C1253 C 0.10269 0.31842 0.37079 0.0
C1254 C 0.13177 0.32078 0.44974 0.0
C1255 C 0.09097 0.28445 0.37758 0.0
C1256 C 0.12644 0.25557 0.44718 0.0
C1257 C 0.1098 0.25245 0.46507 0.0
C1258 C 0.12712 0.2718 0.43033 0.0
C1259 C 0.1109 0.28544 0.43157 0.0
C1260 C 0.0942 0.28253 0.44985 0.0
C1261 C 0.09378 0.26604 0.46623 0.0
C1262 C 0.14509 0.27421 0.41094 0.0
C1263 C 0.07673 0.29683 0.45204 0.0
H1264 H 0.13019 0.34839 0.41144 0.0
H1265 H 0.09556 0.31794 0.35089 0.0
H1266 H 0.12016 0.31779 0.46583 0.0
H1267 H 0.14411 0.3098 0.45152 0.0
H1268 H 0.13875 0.33505 0.4536 0.0
H1269 H 0.0843 0.28638 0.35695 0.0
H1270 H 0.10203 0.2723 0.37704 0.0
H1271 H 0.07828 0.28047 0.39172 0.0
H1272 H 0.13884 0.24514 0.44598 0.0
H1273 H 0.08088 0.26381 0.48 0.0
H1274 H 0.1533 0.28783 0.41518 0.0
H1275 H 0.13925 0.27499 0.38977 0.0
H1276 H 0.15643 0.26229 0.41236 0.0
H1277 H 0.08304 0.31116 0.4571 0.0
H1278 H 0.06517 0.29276 0.46776 0.0
H1279 H 0.06866 0.29812 0.43223 0.0
C1280 C 0.90026 0.84334 0.63965 0.0
C1281 C 0.90284 0.84698 0.61179 0.0
C1282 C 0.91515 0.84927 0.65878 0.0
C1283 C 0.93314 0.8591 0.64995 0.0
C1284 C 0.93568 0.86312 0.62192 0.0
C1285 C 0.92052 0.85704 0.60321 0.0
C1286 C 0.91176 0.84475 0.68845 0.0
C1287 C 0.95462 0.87357 0.61161 0.0
C1288 C 0.96426 0.88901 0.70032 0.0
C1289 C 0.98111 0.87697 0.70625 0.0
C1290 C 0.94843 0.88328 0.6824 0.0
C1291 C 0.9494 0.86505 0.66996 0.0
C1292 C 0.96611 0.85264 0.67631 0.0
C1293 C 0.98173 0.85873 0.69436 0.0
C1294 C 0.93086 0.89692 0.67636 0.0
C1295 C 0.96773 0.83307 0.66357 0.0
H1296 H 0.88671 0.83556 0.64657 0.0
H1297 H 0.92275 0.85989 0.58177 0.0
H1298 H 0.92443 0.83541 0.69594 0.0
H1299 H 0.91221 0.85809 0.70063 0.0
H1300 H 0.89669 0.83747 0.69214 0.0
H1301 H 0.95413 0.87589 0.5893 0.0
H1302 H 0.95599 0.88765 0.62181 0.0
H1303 H 0.9688 0.8653 0.61661 0.0
H1304 H 0.96357 0.90312 0.70936 0.0
H1305 H 0.99467 0.84931 0.69869 0.0
H1306 H 0.91575 0.88999 0.6808 0.0
H1307 H 0.93091 0.90065 0.65446 0.0
H1308 H 0.93197 0.91032 0.68838 0.0
H1309 H 0.95346 0.8247 0.66779 0.0
H1310 H 0.98133 0.82492 0.67117 0.0
H1311 H 0.96906 0.83447 0.64118 0.0
C1312 C 0.40097 0.73781 0.97509 0.0
C1313 C 0.41064 0.75558 0.97113 0.0
C1314 C 0.4032 0.72292 0.95611 0.0
C1315 C 0.4153 0.72585 0.93244 0.0
C1316 C 0.42607 0.74336 0.9291 0.0
C1317 C 0.42366 0.75798 0.94849 0.0
C1318 C 0.39174 0.70438 0.96073 0.0
C1319 C 0.43917 0.74709 0.90424 0.0
C1320 C 0.4286 0.68293 0.88761 0.0
C1321 C 0.4128 0.68374 0.86799 0.0
C1322 C 0.42971 0.6965 0.90872 0.0
C1323 C 0.41487 0.71144 0.91 0.0
C1324 C 0.39914 0.71249 0.88996 0.0
C1325 C 0.39827 0.69865 0.86934 0.0
C1326 C 0.44673 0.6948 0.92963 0.0
C1327 C 0.38309 0.72823 0.89036 0.0
H1328 H 0.391 0.73572 0.99258 0.0
H1329 H 0.43125 0.77162 0.9452 0.0
H1330 H 0.37914 0.70294 0.9455 0.0
H1331 H 0.40237 0.69205 0.95799 0.0
H1332 H 0.38477 0.70359 0.98134 0.0
H1333 H 0.44812 0.76062 0.90588 0.0
H1334 H 0.45018 0.73513 0.90087 0.0
H1335 H 0.42902 0.74796 0.88607 0.0
H1336 H 0.43984 0.67143 0.88681 0.0
H1337 H 0.38626 0.69963 0.85403 0.0
H1338 H 0.44028 0.69602 0.95045 0.0
H1339 H 0.45798 0.70665 0.92689 0.0
H1340 H 0.45522 0.68103 0.92795 0.0
H1341 H 0.37402 0.72754 0.9095 0.0
H1342 H 0.37214 0.72728 0.87298 0.0
H1343 H 0.39084 0.74239 0.88977 0.0
C1344 C 0.59669 0.16258 0.0978 0.0
C1345 C 0.61453 0.17101 0.10896 0.0
C1346 C 0.58053 0.15581 0.11453 0.0
C1347 C 0.5822 0.15749 0.14315 0.0
C1348 C 0.60029 0.16574 0.15453 0.0
C1349 C 0.61618 0.17236 0.13735 0.0
C1350 C 0.56156 0.14704 0.10156 0.0
C1351 C 0.60275 0.16779 0.18489 0.0
C1352 C 0.53269 0.15634 0.18585 0.0
C1353 C 0.53254 0.13742 0.19538 0.0
C1354 C 0.54873 0.16307 0.16891 0.0
C1355 C 0.56507 0.15061 0.16124 0.0
C1356 C 0.56511 0.13157 0.17102 0.0
C1357 C 0.54891 0.12523 0.18793 0.0
C1358 C 0.54812 0.1835 0.15904 0.0
C1359 C 0.58221 0.1178 0.16342 0.0
H1360 H 0.59518 0.16151 0.07592 0.0
H1361 H 0.62984 0.17886 0.14627 0.0
H1362 H 0.55923 0.1323 0.1093 0.0
H1363 H 0.54757 0.15541 0.10712 0.0
H1364 H 0.56275 0.14651 0.07906 0.0
H1365 H 0.61786 0.17433 0.19056 0.0
H1366 H 0.59007 0.17681 0.19315 0.0
H1367 H 0.60154 0.15359 0.19479 0.0
H1368 H 0.52012 0.16588 0.19137 0.0
H1369 H 0.549 0.11058 0.19509 0.0
H1370 H 0.54766 0.18379 0.13652 0.0
H1371 H 0.56243 0.19111 0.16541 0.0
H1372 H 0.53446 0.19142 0.16696 0.0
H1373 H 0.5828 0.11609 0.14103 0.0
H1374 H 0.58005 0.10349 0.17279 0.0
H1375 H 0.59745 0.12359 0.16992 0.0
C1376 C 0.13306 0.69008 0.13104 0.0
C1377 C 0.11686 0.68757 0.14982 0.0
C1378 C 0.13437 0.7066 0.11483 0.0
C1379 C 0.11906 0.72103 0.11727 0.0
C1380 C 0.10226 0.7183 0.13542 0.0
C1381 C 0.10138 0.70168 0.15147 0.0
C1382 C 0.15253 0.70888 0.09571 0.0
C1383 C 0.08558 0.73329 0.13866 0.0
C1384 C 0.13484 0.77228 0.10178 0.0
C1385 C 0.12631 0.77528 0.07587 0.0
C1386 C 0.13265 0.75471 0.11526 0.0
C1387 C 0.1216 0.73964 0.10267 0.0
C1388 C 0.11303 0.74247 0.07645 0.0
C1389 C 0.11551 0.76025 0.06333 0.0
C1390 C 0.14211 0.75235 0.14314 0.0
C1391 C 0.1011 0.72677 0.06238 0.0
H1392 H 0.14488 0.67918 0.12911 0.0
H1393 H 0.08888 0.70009 0.16597 0.0
H1394 H 0.14696 0.71234 0.07496 0.0
H1395 H 0.16238 0.72098 0.10252 0.0
H1396 H 0.16228 0.69581 0.0947 0.0
H1397 H 0.07259 0.72829 0.15171 0.0
H1398 H 0.09235 0.74634 0.14791 0.0
H1399 H 0.07924 0.7374 0.11854 0.0
H1400 H 0.14325 0.78373 0.1117 0.0
H1401 H 0.10883 0.76242 0.04337 0.0
H1402 H 0.15323 0.74024 0.14307 0.0
H1403 H 0.12982 0.74891 0.15815 0.0
H1404 H 0.1504 0.7654 0.15003 0.0
H1405 H 0.11099 0.71387 0.06029 0.0
H1406 H 0.09564 0.73111 0.04189 0.0
H1407 H 0.08745 0.72266 0.07481 0.0
C1408 C 0.53523 0.85168 0.33391 0.0
C1409 C 0.53724 0.86857 0.31871 0.0
C1410 C 0.55077 0.84592 0.3523 0.0
C1411 C 0.56881 0.8573 0.35564 0.0
C1412 C 0.57113 0.87412 0.33992 0.0
C1413 C 0.55537 0.87953 0.32169 0.0
C1414 C 0.5477 0.82784 0.36855 0.0
C1415 C 0.59011 0.88664 0.34273 0.0
C1416 C 0.59863 0.85285 0.42235 0.0
C1417 C 0.61507 0.84068 0.41514 0.0
C1418 C 0.58363 0.8585 0.40317 0.0
C1419 C 0.58502 0.85185 0.37603 0.0
C1420 C 0.60178 0.83986 0.36849 0.0
C1421 C 0.61656 0.83445 0.38808 0.0
C1422 C 0.56607 0.87134 0.41208 0.0
C1423 C 0.60388 0.83246 0.33982 0.0
H1424 H 0.52131 0.8431 0.33184 0.0
H1425 H 0.55715 0.8926 0.31009 0.0
H1426 H 0.561 0.81802 0.3654 0.0
H1427 H 0.54715 0.83131 0.39053 0.0
H1428 H 0.53316 0.82025 0.36298 0.0
H1429 H 0.58992 0.8989 0.3284 0.0
H1430 H 0.59109 0.89227 0.36376 0.0
H1431 H 0.60435 0.87812 0.33904 0.0
H1432 H 0.59725 0.85772 0.44317 0.0
H1433 H 0.62911 0.82499 0.38223 0.0
H1434 H 0.55102 0.86391 0.40918 0.0
H1435 H 0.56573 0.88444 0.39937 0.0
H1436 H 0.56743 0.87563 0.43373 0.0
H1437 H 0.5902 0.82355 0.33459 0.0
H1438 H 0.61813 0.82373 0.33699 0.0
H1439 H 0.60427 0.84457 0.32528 0.0
C1440 C 0.40685 0.25907 0.56126 0.0
C1441 C 0.39696 0.24316 0.57287 0.0
C1442 C 0.40826 0.27656 0.57541 0.0
C1443 C 0.39954 0.27818 0.60176 0.0
C1444 C 0.38949 0.26218 0.61348 0.0
C1445 C 0.38834 0.24495 0.59896 0.0
C1446 C 0.41913 0.29327 0.56224 0.0
C1447 C 0.37995 0.26324 0.64148 0.0
C1448 C 0.41721 0.31609 0.65232 0.0
C1449 C 0.40082 0.32933 0.6513 0.0
C1450 C 0.41741 0.2998 0.63556 0.0
C1451 C 0.40079 0.29652 0.61732 0.0
C1452 C 0.38453 0.31009 0.61556 0.0
C1453 C 0.38476 0.32629 0.63248 0.0
C1454 C 0.43508 0.28573 0.63812 0.0
C1455 C 0.36654 0.30721 0.59635 0.0
H1456 H 0.41359 0.25786 0.54116 0.0
H1457 H 0.38064 0.2328 0.60819 0.0
H1458 H 0.40834 0.30558 0.56063 0.0
H1459 H 0.43238 0.29791 0.57502 0.0
H1460 H 0.42502 0.28975 0.54163 0.0
H1461 H 0.37264 0.24954 0.64769 0.0
H1462 H 0.392 0.26704 0.65664 0.0
H1463 H 0.36798 0.27463 0.64205 0.0
H1464 H 0.42963 0.31809 0.66684 0.0
H1465 H 0.37223 0.33654 0.63104 0.0
H1466 H 0.44164 0.28244 0.61782 0.0
H1467 H 0.42921 0.27212 0.64678 0.0
H1468 H 0.44772 0.29117 0.65137 0.0
H1469 H 0.3723 0.30465 0.57543 0.0
H1470 H 0.35586 0.31967 0.59603 0.0
H1471 H 0.35759 0.29436 0.60251 0.0
C1472 C 0.97967 0.12721 0.84562 0.0
C1473 C 0.99268 0.14032 0.83234 0.0
C1474 C 0.96286 0.13338 0.86158 0.0
C1475 C 0.95906 0.1532 0.86472 0.0
C1476 C 0.97191 0.16652 0.85099 0.0
C1477 C 0.98847 0.15993 0.83481 0.0
C1478 C 0.94938 0.11867 0.87548 0.0
C1479 C 0.96854 0.18777 0.85401 0.0
C1480 C 0.90621 0.16988 0.89057 0.0
C1481 C 0.91011 0.17278 0.91832 0.0
C1482 C 0.9219 0.16338 0.87294 0.0
C1483 C 0.94211 0.15994 0.88317 0.0
C1484 C 0.94613 0.16279 0.91118 0.0
C1485 C 0.93008 0.16903 0.92841 0.0
C1486 C 0.91686 0.16024 0.84333 0.0
C1487 C 0.96748 0.15949 0.92291 0.0
H1488 H 0.9827 0.11202 0.84373 0.0
H1489 H 0.9985 0.17017 0.82477 0.0
H1490 H 0.95083 0.12014 0.89784 0.0
H1491 H 0.93283 0.12107 0.87026 0.0
H1492 H 0.95364 0.10382 0.86975 0.0
H1493 H 0.97946 0.19625 0.84136 0.0
H1494 H 0.95243 0.19156 0.8482 0.0
H1495 H 0.97061 0.19195 0.87558 0.0
H1496 H 0.89085 0.17272 0.88256 0.0
H1497 H 0.93333 0.17136 0.94975 0.0
H1498 H 0.92042 0.14526 0.83754 0.0
H1499 H 0.92667 0.16965 0.83051 0.0
H1500 H 0.9003 0.16318 0.83865 0.0
H1501 H 0.97225 0.14444 0.91959 0.0
H1502 H 0.96815 0.16259 0.94502 0.0
H1503 H 0.97897 0.16869 0.91235 0.0
C1504 C 0.90625 0.69454 0.67883 0.0
C1505 C 0.92676 0.68786 0.67957 0.0
C1506 C 0.9004 0.70955 0.66155 0.0
C1507 C 0.9154 0.71807 0.64436 0.0
C1508 C 0.93629 0.7118 0.64557 0.0
C1509 C 0.94175 0.69681 0.66325 0.0
C1510 C 0.878 0.71593 0.66117 0.0
C1511 C 0.95272 0.72046 0.6275 0.0
C1512 C 0.89346 0.74067 0.58031 0.0
C1513 C 0.89273 0.76009 0.58734 0.0
C1514 C 0.90145 0.72696 0.59833 0.0
C1515 C 0.90882 0.73276 0.62415 0.0
C1516 C 0.90864 0.75241 0.63112 0.0
C1517 C 0.90065 0.76584 0.61261 0.0
C1518 C 0.90153 0.70619 0.58997 0.0
C1519 C 0.91624 0.75918 0.65849 0.0
H1520 H 0.89469 0.68791 0.69174 0.0
H1521 H 0.95758 0.69162 0.66359 0.0
H1522 H 0.87702 0.73159 0.66452 0.0
H1523 H 0.87111 0.71291 0.64097 0.0
H1524 H 0.86853 0.70861 0.67691 0.0
H1525 H 0.96848 0.71492 0.63219 0.0
H1526 H 0.94912 0.71722 0.60595 0.0
H1527 H 0.95283 0.73624 0.62968 0.0
H1528 H 0.8877 0.73616 0.56066 0.0
H1529 H 0.89998 0.78078 0.61831 0.0
H1530 H 0.89101 0.69792 0.6034 0.0
H1531 H 0.91732 0.70009 0.5923 0.0
H1532 H 0.89644 0.70417 0.5686 0.0
H1533 H 0.90598 0.75346 0.67468 0.0
H1534 H 0.91649 0.77502 0.66003 0.0
H1535 H 0.93209 0.75367 0.66246 0.0
C1536 C 0.01667 0.13131 0.33076 0.0
C1537 C 0.99858 0.14214 0.32691 0.0
C1538 C 0.03224 0.13741 0.34878 0.0
C1539 C 0.02964 0.15472 0.36332 0.0
C1540 C 0.01214 0.16637 0.35802 0.0
C1541 C 0.99685 0.15996 0.33986 0.0
C1542 C 0.05076 0.12465 0.35366 0.0
C1543 C 0.00877 0.18495 0.373 0.0
C1544 C 0.05199 0.15574 0.43455 0.0
C1545 C 0.07013 0.16656 0.43115 0.0
C1546 C 0.03868 0.15201 0.41269 0.0
C1547 C 0.04357 0.15925 0.38661 0.0
C1548 C 0.06166 0.1705 0.38304 0.0
C1549 C 0.07472 0.17407 0.40541 0.0
C1550 C 0.01943 0.14013 0.41752 0.0
C1551 C 0.06737 0.17846 0.35556 0.0
H1552 H 0.01825 0.1176 0.32072 0.0
H1553 H 0.98303 0.16855 0.33689 0.0
H1554 H 0.06532 0.1331 0.35339 0.0
H1555 H 0.04943 0.11797 0.37403 0.0
H1556 H 0.05194 0.11309 0.33826 0.0
H1557 H 0.99604 0.19355 0.36393 0.0
H1558 H 1.00473 0.18187 0.39448 0.0
H1559 H 0.02317 0.19364 0.37307 0.0
H1560 H 0.0481 0.15023 0.45447 0.0
H1561 H 0.08878 0.18233 0.40263 0.0
H1562 H 0.01995 0.12704 0.4048 0.0
H1563 H 1.00542 0.14831 0.41147 0.0
H1564 H 0.01773 0.13579 0.43911 0.0
H1565 H 0.07018 0.16656 0.34112 0.0
H1566 H 0.08149 0.18757 0.35637 0.0
H1567 H 0.05435 0.18706 0.3473 0.0
C1568 C 0.60955 0.26404 0.09557 0.0
C1569 C 0.62997 0.25868 0.10173 0.0
C1570 C 0.59937 0.27829 0.11072 0.0
C1571 C 0.60977 0.2871 0.13278 0.0
C1572 C 0.63009 0.28113 0.1397 0.0
C1573 C 0.63998 0.26712 0.12397 0.0
C1574 C 0.57781 0.28442 0.10248 0.0
C1575 C 0.64161 0.28989 0.16334 0.0
C1576 C 0.59698 0.3377 0.15503 0.0
C1577 C 0.5852 0.33455 0.17854 0.0
C1578 C 0.60434 0.32237 0.13937 0.0
C1579 C 0.6001 0.30338 0.14766 0.0
C1580 C 0.58782 0.3001 0.17108 0.0
C1581 C 0.58037 0.31575 0.18614 0.0
C1582 C 0.61707 0.32652 0.11429 0.0
C1583 C 0.58321 0.28008 0.1808 0.0
H1584 H 0.60186 0.25758 0.0783 0.0
H1585 H 0.65564 0.26275 0.12903 0.0
H1586 H 0.56717 0.28382 0.12017 0.0
H1587 H 0.57819 0.29948 0.09539 0.0
H1588 H 0.57137 0.27536 0.08598 0.0
H1589 H 0.65669 0.28269 0.16725 0.0
H1590 H 0.64464 0.30523 0.15922 0.0
H1591 H 0.63203 0.28908 0.18204 0.0
H1592 H 0.60044 0.35222 0.14887 0.0
H1593 H 0.57137 0.3133 0.2044 0.0
H1594 H 0.61055 0.31881 0.09654 0.0
H1595 H 0.63318 0.32131 0.11726 0.0
H1596 H 0.61766 0.34203 0.1095 0.0
H1597 H 0.5764 0.27146 0.16413 0.0
H1598 H 0.57236 0.27993 0.19835 0.0
H1599 H 0.59787 0.27298 0.18697 0.0
C1600 C 0.44325 0.86078 0.90063 0.0
C1601 C 0.44738 0.84966 0.92373 0.0
C1602 C 0.45882 0.86463 0.88139 0.0
C1603 C 0.4791 0.85741 0.8855 0.0
C1604 C 0.48334 0.84609 0.90873 0.0
C1605 C 0.4674 0.84227 0.92745 0.0
C1606 C 0.45359 0.87651 0.85671 0.0
C1607 C 0.50482 0.8383 0.91407 0.0
C1608 C 0.51794 0.85363 0.82738 0.0
C1609 C 0.53037 0.86982 0.83171 0.0
C1610 C 0.50079 0.84971 0.84419 0.0
C1611 C 0.49611 0.86215 0.86605 0.0
C1612 C 0.50825 0.87879 0.87004 0.0
C1613 C 0.52511 0.88248 0.85275 0.0
C1614 C 0.48804 0.83198 0.839 0.0
C1615 C 0.50389 0.89235 0.89322 0.0
H1616 H 0.42773 0.8663 0.89745 0.0
H1617 H 0.47073 0.83384 0.94538 0.0
H1618 H 0.46297 0.88981 0.85671 0.0
H1619 H 0.45757 0.86853 0.83794 0.0
H1620 H 0.4369 0.88045 0.85597 0.0
H1621 H 0.5055 0.82955 0.93287 0.0
H1622 H 0.50997 0.82937 0.89672 0.0
H1623 H 0.51602 0.85028 0.91599 0.0
H1624 H 0.52182 0.84379 0.81115 0.0
H1625 H 0.53463 0.895 0.85636 0.0
H1626 H 0.47133 0.83571 0.83761 0.0
H1627 H 0.48981 0.82189 0.85623 0.0
H1628 H 0.49272 0.82455 0.82001 0.0
H1629 H 0.48757 0.89736 0.89236 0.0
H1630 H 0.5143 0.90502 0.89296 0.0
H1631 H 0.50594 0.88479 0.91285 0.0
C1632 C 0.88998 0.28167 0.94012 0.0
C1633 C 0.8917 0.26205 0.93457 0.0
C1634 C 0.89743 0.29545 0.92182 0.0
C1635 C 0.90697 0.28953 0.89732 0.0
C1636 C 0.90928 0.26977 0.89186 0.0
C1637 C 0.90159 0.25627 0.9105 0.0
C1638 C 0.89469 0.31638 0.92848 0.0
C1639 C 0.91941 0.26287 0.866 0.0
C1640 C 0.90509 0.32517 0.83913 0.0
C1641 C 0.92481 0.33367 0.84049 0.0
C1642 C 0.89929 0.31055 0.85711 0.0
C1643 C 0.91356 0.30409 0.87694 0.0
C1644 C 0.93369 0.3122 0.878 0.0
C1645 C 0.93907 0.3269 0.8598 0.0
C1646 C 0.87768 0.30226 0.85522 0.0
C1647 C 0.94938 0.30567 0.89878 0.0
H1648 H 0.88278 0.28632 0.95885 0.0
H1649 H 0.90285 0.24119 0.90585 0.0
H1650 H 0.90991 0.32379 0.9279 0.0
H1651 H 0.88463 0.32323 0.91299 0.0
H1652 H 0.88761 0.31863 0.9488 0.0
H1653 H 0.92124 0.24708 0.86559 0.0
H1654 H 0.90992 0.26725 0.84827 0.0
H1655 H 0.93493 0.26955 0.86359 0.0
H1656 H 0.89411 0.32997 0.82397 0.0
H1657 H 0.95426 0.33342 0.86121 0.0
H1658 H 0.86911 0.3051 0.87435 0.0
H1659 H 0.87849 0.28653 0.85267 0.0
H1660 H 0.86868 0.30837 0.83804 0.0
H1661 H 0.94373 0.30915 0.91949 0.0
H1662 H 0.96478 0.31251 0.89583 0.0
H1663 H 0.95133 0.28993 0.89776 0.0
C1664 C 0.52458 0.16019 0.68497 0.0
C1665 C 0.52385 0.14191 0.69676 0.0
C1666 C 0.50983 0.16591 0.66563 0.0
C1667 C 0.4938 0.15313 0.65807 0.0
C1668 C 0.49209 0.13523 0.67134 0.0
C1669 C 0.50719 0.12979 0.69044 0.0
C1670 C 0.51229 0.18509 0.65192 0.0
C1671 C 0.47506 0.1213 0.66415 0.0
C1672 C 0.44913 0.17102 0.61405 0.0
C1673 C 0.4553 0.16473 0.58822 0.0
C1674 C 0.46146 0.16741 0.63708 0.0
C1675 C 0.48049 0.15747 0.63409 0.0
C1676 C 0.48694 0.15144 0.60796 0.0
C1677 C 0.47425 0.15508 0.58543 0.0
C1678 C 0.45401 0.17394 0.66462 0.0
C1679 C 0.50724 0.14105 0.60377 0.0
H1680 H 0.53734 0.16972 0.68974 0.0
H1681 H 0.50639 0.11571 0.69958 0.0
H1682 H 0.51733 0.18292 0.63058 0.0
H1683 H 0.49727 0.19282 0.65138 0.0
H1684 H 0.52397 0.19423 0.66228 0.0
H1685 H 0.47426 0.10915 0.67865 0.0
H1686 H 0.45979 0.12862 0.6638 0.0
H1687 H 0.47787 0.11549 0.6435 0.0
H1688 H 0.43442 0.17834 0.61631 0.0
H1689 H 0.47925 0.15049 0.56547 0.0
H1690 H 0.46584 0.18324 0.67427 0.0
H1691 H 0.45182 0.16138 0.67808 0.0
H1692 H 0.43913 0.18192 0.66342 0.0
H1693 H 0.52029 0.14987 0.61148 0.0
H1694 H 0.51018 0.13768 0.58206 0.0
H1695 H 0.50723 0.12749 0.61546 0.0
C1696 C 0.61874 0.73616 0.45102 0.0
C1697 C 0.61866 0.75571 0.44464 0.0
C1698 C 0.61104 0.72251 0.43273 0.0
C1699 C 0.60291 0.72851 0.40742 0.0
C1700 C 0.60196 0.74827 0.40127 0.0
C1701 C 0.60988 0.76163 0.41993 0.0
C1702 C 0.6123 0.70158 0.44013 0.0
C1703 C 0.59332 0.75527 0.37456 0.0
C1704 C 0.60703 0.69203 0.3506 0.0
C1705 C 0.58708 0.68396 0.35035 0.0
C1706 C 0.61217 0.70686 0.36855 0.0
C1707 C 0.59697 0.71396 0.3867 0.0
C1708 C 0.57659 0.70637 0.38596 0.0
C1709 C 0.57189 0.69144 0.36782 0.0
C1710 C 0.63407 0.71458 0.36857 0.0
C1711 C 0.55993 0.71363 0.40488 0.0
H1712 H 0.62509 0.73147 0.47025 0.0
H1713 H 0.60987 0.77666 0.41467 0.0
H1714 H 0.59686 0.69474 0.43797 0.0
H1715 H 0.62305 0.69416 0.42602 0.0
H1716 H 0.61788 0.69934 0.46124 0.0
H1717 H 0.59178 0.77108 0.37399 0.0
H1718 H 0.60372 0.75077 0.35776 0.0
H1719 H 0.57788 0.74879 0.3707 0.0
H1720 H 0.61874 0.68668 0.33679 0.0
H1721 H 0.55649 0.68526 0.36792 0.0
H1722 H 0.64146 0.71172 0.38852 0.0
H1723 H 0.63389 0.73031 0.36567 0.0
H1724 H 0.64381 0.70808 0.35241 0.0
H1725 H 0.56406 0.71006 0.42616 0.0
H1726 H 0.54448 0.70735 0.40029 0.0
H1727 H 0.55878 0.72943 0.40355 0.0
C1728 C 0.07207 0.86451 0.11926 0.0
C1729 C 0.07035 0.85072 0.09875 0.0
C1730 C 0.05684 0.86625 0.13951 0.0
C1731 C 0.03915 0.85423 0.13878 0.0
C1732 C 0.03762 0.83992 0.11848 0.0
C1733 C 0.0534 0.83818 0.0989 0.0
C1734 C 0.05936 0.88136 0.16116 0.0
C1735 C 0.01882 0.8271 0.11659 0.0
C1736 C 1.00259 0.85129 0.19966 0.0
C1737 C 0.98739 0.86475 0.19258 0.0
C1738 C 0.01976 0.8479 0.18261 0.0
C1739 C 0.02144 0.85785 0.15762 0.0
C1740 C 1.0061 0.87142 0.15043 0.0
C1741 C 0.98944 0.87485 0.1681 0.0
C1742 C 0.03607 0.83367 0.19127 0.0
C1743 C 1.00705 0.8821 0.12377 0.0
H1744 H 0.08534 0.87403 0.11929 0.0
H1745 H 0.05205 0.82761 0.08291 0.0
H1746 H 0.04759 0.89274 0.1582 0.0
H1747 H 0.05674 0.87509 0.18158 0.0
H1748 H 0.07501 0.88802 0.1607 0.0
H1749 H 0.02059 0.81593 0.10072 0.0
H1750 H 0.01587 0.82002 0.13637 0.0
H1751 H 1.00492 0.83583 0.11174 0.0
H1752 H 1.0011 0.84345 0.21855 0.0
H1753 H 0.97765 0.88511 0.16228 0.0
H1754 H 0.05157 0.84058 0.19142 0.0
H1755 H 0.03678 0.82171 0.1765 0.0
H1756 H 0.03294 0.82769 0.21178 0.0
H1757 H 0.02151 0.89067 0.12271 0.0
H1758 H 0.99361 0.89183 0.12093 0.0
H1759 H 1.00742 0.8718 0.10663 0.0
C1760 C 0.62158 0.7588 0.95399 0.0
C1761 C 0.60554 0.75691 0.97311 0.0
C1762 C 0.62267 0.77476 0.93667 0.0
C1763 C 0.60761 0.78943 0.93881 0.0
C1764 C 0.5917 0.78786 0.95857 0.0
C1765 C 0.59073 0.77154 0.97527 0.0
C1766 C 0.63968 0.77567 0.91559 0.0
C1767 C 0.57557 0.80335 0.9619 0.0
C1768 C 0.62195 0.83776 0.90826 0.0
C1769 C 0.61106 0.8375 0.88359 0.0
C1770 C 0.62058 0.82244 0.92669 0.0
C1771 C 0.60837 0.80625 0.92007 0.0
C1772 C 0.59731 0.80594 0.89518 0.0
C1773 C 0.59862 0.82164 0.8774 0.0
C1774 C 0.63226 0.82356 0.95322 0.0
C1775 C 0.58441 0.78884 0.88707 0.0
H1776 H 0.63299 0.74751 0.95197 0.0
H1777 H 0.57831 0.77023 0.99001 0.0
H1778 H 0.63275 0.77639 0.89498 0.0
H1779 H 0.64906 0.78882 0.91843 0.0
H1780 H 0.65019 0.7631 0.91652 0.0
H1781 H 0.56485 0.80044 0.97909 0.0
H1782 H 0.58326 0.81733 0.96538 0.0
H1783 H 0.56629 0.80467 0.94302 0.0
H1784 H 0.63135 0.8501 0.91329 0.0
H1785 H 0.59035 0.82131 0.85825 0.0
H1786 H 0.64397 0.81197 0.95424 0.0
H1787 H 0.62141 0.82144 0.97047 0.0
H1788 H 0.64029 0.83749 0.95587 0.0
H1789 H 0.59439 0.77594 0.88598 0.0
H1790 H 0.5767 0.79086 0.8671 0.0
H1791 H 0.57233 0.78604 0.90262 0.0
C1792 C 0.48147 0.35703 0.18492 0.0
C1793 C 0.47851 0.3729 0.20195 0.0
C1794 C 0.46683 0.35221 0.16485 0.0
C1795 C 0.44869 0.36345 0.1617 0.0
C1796 C 0.44522 0.37902 0.17952 0.0
C1797 C 0.46015 0.38357 0.19936 0.0
C1798 C 0.47117 0.33548 0.14631 0.0
C1799 C 0.42605 0.39131 0.17703 0.0
C1800 C 0.42422 0.36446 0.09128 0.0
C1801 C 0.40782 0.35136 0.09393 0.0
C1802 C 0.43737 0.36869 0.11324 0.0
C1803 C 0.4341 0.35969 0.13866 0.0
C1804 C 0.41725 0.34684 0.14173 0.0
C1805 C 0.40434 0.34281 0.11935 0.0
C1806 C 0.45512 0.38248 0.10903 0.0
C1807 C 0.41314 0.33702 0.16849 0.0
H1808 H 0.49557 0.34867 0.18669 0.0
H1809 H 0.45762 0.39582 0.21243 0.0
H1810 H 0.45777 0.32552 0.14618 0.0
H1811 H 0.47333 0.34067 0.1252 0.0
H1812 H 0.48528 0.32744 0.15245 0.0
H1813 H 0.42483 0.40194 0.19373 0.0
H1814 H 0.42636 0.39909 0.1574 0.0
H1815 H 0.41191 0.38226 0.17711 0.0
H1816 H 0.4271 0.37116 0.07179 0.0
H1817 H 0.39178 0.33264 0.12167 0.0
H1818 H 0.4701 0.37505 0.11251 0.0
H1819 H 0.45414 0.39434 0.12394 0.0
H1820 H 0.45526 0.38866 0.08824 0.0
H1821 H 0.42644 0.32766 0.17376 0.0
H1822 H 0.39882 0.32817 0.16798 0.0
H1823 H 0.41163 0.34776 0.18495 0.0
C1824 C 0.92772 0.25096 0.46596 0.0
C1825 C 0.91054 0.26329 0.46693 0.0
C1826 C 0.92751 0.23438 0.44975 0.0
C1827 C 0.90977 0.23006 0.43387 0.0
C1828 C 0.89227 0.24229 0.43508 0.0
C1829 C 0.89283 0.25866 0.45165 0.0
C1830 C 0.94641 0.22163 0.44927 0.0
C1831 C 0.8731 0.23832 0.41837 0.0
C1832 C 0.91666 0.19884 0.37103 0.0
C1833 C 0.90905 0.18111 0.37994 0.0
C1834 C 0.91698 0.21483 0.38834 0.0
C1835 C 0.90969 0.21309 0.41538 0.0
C1836 C 0.90209 0.19521 0.42456 0.0
C1837 C 0.90177 0.17949 0.40672 0.0
C1838 C 0.92501 0.23365 0.37759 0.0
C1839 C 0.89439 0.19266 0.4533 0.0
H1840 H 0.94147 0.25435 0.47769 0.0
H1841 H 0.87948 0.26807 0.45213 0.0
H1842 H 0.94197 0.20673 0.45439 0.0
H1843 H 0.95315 0.2214 0.42853 0.0
H1844 H 0.95856 0.22645 0.46373 0.0
H1845 H 0.86061 0.24896 0.42205 0.0
H1846 H 0.8771 0.23851 0.39645 0.0
H1847 H 0.86699 0.22387 0.42307 0.0
H1848 H 0.92209 0.20028 0.35032 0.0
H1849 H 0.89616 0.1658 0.41392 0.0
H1850 H 0.93829 0.2386 0.39008 0.0
H1851 H 0.91271 0.24471 0.37911 0.0
H1852 H 0.93012 0.23266 0.35609 0.0
H1853 H 0.90688 0.19641 0.46788 0.0
H1854 H 0.88923 0.17779 0.45742 0.0
H1855 H 0.88122 0.20249 0.45722 0.0
C1856 C 0.09299 0.66327 0.60137 0.0
C1857 C 0.11063 0.67304 0.61078 0.0
C1858 C 0.07736 0.65715 0.61941 0.0
C1859 C 0.07934 0.66082 0.64762 0.0
C1860 C 0.0973 0.67031 0.65729 0.0
C1861 C 0.11266 0.67629 0.63882 0.0
C1862 C 0.05852 0.64703 0.60821 0.0
C1863 C 0.10012 0.67447 0.68716 0.0
C1864 C 0.03005 0.66148 0.69089 0.0
C1865 C 0.0303 0.64321 0.70274 0.0
C1866 C 0.04594 0.66744 0.67312 0.0
C1867 C 0.06257 0.65487 0.66698 0.0
C1868 C 0.06309 0.63656 0.67924 0.0
C1869 C 0.04701 0.63097 0.69689 0.0
C1870 C 0.04478 0.6871 0.66058 0.0
C1871 C 0.08052 0.62272 0.6734 0.0
H1872 H 0.09117 0.66073 0.57979 0.0
H1873 H 0.12617 0.68383 0.6464 0.0
H1874 H 0.05668 0.63289 0.61814 0.0
H1875 H 0.04435 0.65545 0.61279 0.0
H1876 H 0.05949 0.64487 0.58589 0.0
H1877 H 0.1152 0.68153 0.69154 0.0
H1878 H 0.08742 0.68387 0.69442 0.0
H1879 H 0.09925 0.66101 0.69902 0.0
H1880 H 0.01722 0.67105 0.69513 0.0
H1881 H 0.04743 0.61682 0.70586 0.0
H1882 H 0.04401 0.68587 0.63814 0.0
H1883 H 0.059 0.69534 0.66554 0.0
H1884 H 0.03105 0.69529 0.66773 0.0
H1885 H 0.08088 0.61932 0.6514 0.0
H1886 H 0.07891 0.60917 0.68496 0.0
H1887 H 0.09566 0.62934 0.67859 0.0
C1888 C 0.62105 0.26656 0.57884 0.0
C1889 C 0.60377 0.26943 0.56195 0.0
C1890 C 0.62221 0.25072 0.59638 0.0
C1891 C 0.60584 0.2372 0.59686 0.0
C1892 C 0.58852 0.23982 0.5795 0.0
C1893 C 0.58762 0.25595 0.56243 0.0
C1894 C 0.64083 0.24863 0.61477 0.0
C1895 C 0.57088 0.22561 0.57906 0.0
C1896 C 0.61779 0.18786 0.62596 0.0
C1897 C 0.60916 0.18906 0.65209 0.0
C1898 C 0.61657 0.20328 0.60768 0.0
C1899 C 0.60674 0.22048 0.61579 0.0
C1900 C 0.59804 0.22179 0.64217 0.0
C1901 C 0.59922 0.20604 0.65989 0.0
C1902 C 0.62574 0.20114 0.57962 0.0
C1903 C 0.58768 0.23992 0.65181 0.0
H1904 H 0.63356 0.27692 0.57879 0.0
H1905 H 0.57424 0.25799 0.54943 0.0
H1906 H 0.63574 0.24854 0.6363 0.0
H1907 H 0.64869 0.2348 0.61084 0.0
H1908 H 0.65226 0.26035 0.61195 0.0
H1909 H 0.55888 0.22933 0.56374 0.0
H1910 H 0.5769 0.2111 0.57453 0.0
H1911 H 0.56341 0.22498 0.59935 0.0
H1912 H 0.62521 0.1747 0.61964 0.0
H1913 H 0.5927 0.20713 0.6801 0.0
H1914 H 0.63814 0.21192 0.5765 0.0
H1915 H 0.61364 0.2038 0.56405 0.0
H1916 H 0.63241 0.18669 0.57621 0.0
H1917 H 0.59887 0.25197 0.65094 0.0
H1918 H 0.58174 0.23866 0.67291 0.0
H1919 H 0.57454 0.24359 0.63822 0.0
C1920 C 0.04626 0.38904 0.82432 0.0
C1921 C 0.02896 0.37733 0.81931 0.0
C1922 C 0.06212 0.3833 0.84218 0.0
C1923 C 0.06072 0.3654 0.85552 0.0
C1924 C 0.04349 0.35336 0.85021 0.0
C1925 C 0.02786 0.35944 0.83217 0.0
C1926 C 0.08026 0.39653 0.84707 0.0
C1927 C 0.04137 0.33417 0.86397 0.0
C1928 C 0.10959 0.34276 0.88515 0.0
C1929 C 0.10775 0.34711 0.9129 0.0
C1930 C 0.09456 0.34877 0.86626 0.0
C1931 C 0.07715 0.35938 0.87525 0.0
C1932 C 0.07535 0.36409 0.90316 0.0
C1933 C 0.09066 0.35795 0.92161 0.0
C1934 C 0.09717 0.34351 0.83671 0.0
C1935 C 0.05704 0.37537 0.91363 0.0
H1936 H 0.04732 0.40288 0.81453 0.0
H1937 H 0.01457 0.35029 0.82856 0.0
H1938 H 0.08081 0.40067 0.86881 0.0
H1939 H 0.09503 0.38908 0.84238 0.0
H1940 H 0.07937 0.40972 0.83457 0.0
H1941 H 0.02725 0.32634 0.85733 0.0
H1942 H 0.05517 0.3252 0.85957 0.0
H1943 H 0.04066 0.33613 0.88631 0.0
H1944 H 0.12269 0.33439 0.87813 0.0
H1945 H 0.089 0.36134 0.94298 0.0
H1946 H 0.09698 0.35659 0.82396 0.0
H1947 H 0.084 0.33443 0.83007 0.0
H1948 H 0.11187 0.33567 0.83285 0.0
H1949 H 0.05598 0.38926 0.90284 0.0
H1950 H 0.05807 0.37816 0.9358 0.0
H1951 H 0.04245 0.36746 0.90948 0.0
C1952 C 0.88977 0.75379 0.0765 0.0
C1953 C 0.90559 0.75073 0.05736 0.0
C1954 C 0.8897 0.77006 0.09328 0.0
C1955 C 0.9057 0.78384 0.09072 0.0
C1956 C 0.92151 0.78104 0.0711 0.0
C1957 C 0.92135 0.76448 0.0548 0.0
C1958 C 0.87266 0.77234 0.11409 0.0
C1959 C 0.9387 0.79549 0.06744 0.0
C1960 C 0.89432 0.8335 0.1191 0.0
C1961 C 0.90469 0.83307 0.14416 0.0
C1962 C 0.8949 0.81778 0.10128 0.0
C1963 C 0.9059 0.80106 0.10879 0.0
C1964 C 0.91653 0.80059 0.13399 0.0
C1965 C 0.91591 0.81662 0.15125 0.0
C1966 C 0.88364 0.81904 0.07445 0.0
C1967 C 0.92822 0.78299 0.14298 0.0
H1968 H 0.87757 0.74324 0.07882 0.0
H1969 H 0.93364 0.76229 0.04009 0.0
H1970 H 0.87948 0.77313 0.13475 0.0
H1971 H 0.86417 0.78591 0.11056 0.0
H1972 H 0.86135 0.76036 0.11355 0.0
H1973 H 0.94943 0.79157 0.05069 0.0
H1974 H 0.93202 0.80979 0.0631 0.0
H1975 H 0.94778 0.79675 0.08649 0.0
H1976 H 0.8859 0.84625 0.11326 0.0
H1977 H 0.9238 0.81611 0.17066 0.0
H1978 H 0.87121 0.80807 0.07361 0.0
H1979 H 0.89453 0.81602 0.05752 0.0
H1980 H 0.87653 0.83332 0.07112 0.0
H1981 H 0.91738 0.77071 0.14457 0.0
H1982 H 0.93598 0.78501 0.16292 0.0
H1983 H 0.94014 0.77916 0.12766 0.0
C1984 C 0.41795 0.65978 0.41691 0.0
C1985 C 0.40084 0.66984 0.40655 0.0
C1986 C 0.43408 0.65353 0.39976 0.0
C1987 C 0.43311 0.65736 0.3715 0.0
C1988 C 0.41567 0.66713 0.36085 0.0
C1989 C 0.3998 0.67324 0.37845 0.0
C1990 C 0.45237 0.64313 0.41196 0.0
C1991 C 0.41394 0.67144 0.33089 0.0
C1992 C 0.484 0.65768 0.33172 0.0
C1993 C 0.48404 0.63942 0.31989 0.0
C1994 C 0.46745 0.66377 0.34829 0.0
C1995 C 0.45046 0.65135 0.35316 0.0
C1996 C 0.4502 0.63308 0.34079 0.0
C1997 C 0.46695 0.62734 0.32436 0.0
C1998 C 0.46834 0.68339 0.36102 0.0
C1999 C 0.43238 0.61942 0.34529 0.0
H2000 H 0.41899 0.65712 0.43855 0.0
H2001 H 0.38669 0.68099 0.37016 0.0
H2002 H 0.45435 0.62903 0.402 0.0
H2003 H 0.46679 0.65142 0.40834 0.0
H2004 H 0.45058 0.64086 0.43417 0.0
H2005 H 0.39911 0.67865 0.32567 0.0
H2006 H 0.42698 0.68078 0.3245 0.0
H2007 H 0.41511 0.65803 0.31895 0.0
H2008 H 0.49711 0.66712 0.32851 0.0
H2009 H 0.46676 0.61321 0.31535 0.0
H2010 H 0.46835 0.68208 0.38347 0.0
H2011 H 0.45437 0.69175 0.35531 0.0
H2012 H 0.48236 0.69152 0.35473 0.0
H2013 H 0.4312 0.61581 0.36718 0.0
H2014 H 0.43419 0.60595 0.33357 0.0
H2015 H 0.41753 0.62627 0.33934 0.0
C2016 C 0.40624 0.1864 0.17596 0.0
C2017 C 0.42656 0.17921 0.17477 0.0
C2018 C 0.39973 0.20125 0.15882 0.0
C2019 C 0.4139 0.20929 0.14006 0.0
C2020 C 0.43461 0.20252 0.13922 0.0
C2021 C 0.44068 0.18754 0.15654 0.0
C2022 C 0.37751 0.20807 0.16042 0.0
C2023 C 0.45021 0.2108 0.1196 0.0
C2024 C 0.38965 0.23251 0.07797 0.0
C2025 C 0.3895 0.25191 0.08522 0.0
C2026 C 0.39803 0.21858 0.09531 0.0
C2027 C 0.40665 0.22415 0.12054 0.0
C2028 C 0.40719 0.24376 0.12766 0.0
C2029 C 0.39857 0.25739 0.10997 0.0
C2030 C 0.39716 0.19783 0.08692 0.0
C2031 C 0.41634 0.25029 0.15433 0.0
H2032 H 0.39532 0.18041 0.19034 0.0
H2033 H 0.45635 0.18204 0.15529 0.0
H2034 H 0.37708 0.22369 0.16424 0.0
H2035 H 0.36961 0.20548 0.14073 0.0
H2036 H 0.36861 0.20074 0.1767 0.0
H2037 H 0.46602 0.20485 0.12268 0.0
H2038 H 0.44529 0.20776 0.09844 0.0
H2039 H 0.45093 0.22657 0.12185 0.0
H2040 H 0.38311 0.22813 0.0587 0.0
H2041 H 0.39841 0.27228 0.11594 0.0
H2042 H 0.3873 0.18972 0.10137 0.0
H2043 H 0.4129 0.19143 0.08763 0.0
H2044 H 0.39078 0.19593 0.06613 0.0
H2045 H 0.40681 0.24475 0.17137 0.0
H2046 H 0.41706 0.26612 0.1559 0.0
H2047 H 0.43222 0.24443 0.15686 0.0
C2048 C 0.49988 0.62425 0.85697 0.0
C2049 C 0.4913 0.63471 0.83542 0.0
C2050 C 0.5154 0.6321 0.87355 0.0
C2051 C 0.52259 0.6509 0.8685 0.0
C2052 C 0.51518 0.66096 0.84548 0.0
C2053 C 0.4996 0.65274 0.82919 0.0
C2054 C 0.52291 0.62079 0.89777 0.0
C2055 C 0.52261 0.68093 0.83915 0.0
C2056 C 0.53642 0.6774 0.93305 0.0
C2057 C 0.55802 0.67502 0.93442 0.0
C2058 C 0.52491 0.67038 0.91109 0.0
C2059 C 0.53522 0.66084 0.88962 0.0
C2060 C 0.55718 0.65945 0.88994 0.0
C2061 C 0.56835 0.66654 0.91242 0.0
C2062 C 0.50155 0.67236 0.91161 0.0
C2063 C 0.56877 0.64971 0.8672 0.0
H2064 H 0.49376 0.61021 0.86176 0.0
H2065 H 0.49313 0.66093 0.81252 0.0
H2066 H 0.5401 0.62103 0.89887 0.0
H2067 H 0.51691 0.62741 0.91669 0.0
H2068 H 0.51766 0.60567 0.8971 0.0
H2069 H 0.51845 0.68533 0.81816 0.0
H2070 H 0.51536 0.69115 0.85354 0.0
H2071 H 0.53968 0.68203 0.84167 0.0
H2072 H 0.52839 0.68443 0.94958 0.0
H2073 H 0.58503 0.6647 0.91331 0.0
H2074 H 0.4943 0.658 0.9131 0.0
H2075 H 0.49595 0.67902 0.89252 0.0
H2076 H 0.49608 0.68114 0.929 0.0
H2077 H 0.56606 0.63407 0.86826 0.0
H2078 H 0.58575 0.65236 0.86836 0.0
H2079 H 0.56299 0.65469 0.84718 0.0
C2080 C 0.095 0.83805 0.65477 0.0
C2081 C 0.08337 0.83499 0.67842 0.0
C2082 C 0.10094 0.82275 0.63808 0.0
C2083 C 0.09554 0.80383 0.64555 0.0
C2084 C 0.08336 0.80069 0.66912 0.0
C2085 C 0.07721 0.81637 0.68513 0.0
C2086 C 0.11352 0.8268 0.61283 0.0
C2087 C 0.07763 0.78074 0.67809 0.0
C2088 C 0.10227 0.76524 0.59158 0.0
C2089 C 0.12256 0.75908 0.59681 0.0
C2090 C 0.09297 0.77951 0.60765 0.0
C2091 C 0.10411 0.78741 0.62981 0.0
C2092 C 0.12424 0.7805 0.63588 0.0
C2093 C 0.13329 0.7666 0.61912 0.0
C2094 C 0.07165 0.78673 0.6002 0.0
C2095 C 0.13649 0.78817 0.65966 0.0
H2096 H 0.0995 0.85249 0.64941 0.0
H2097 H 0.06833 0.81403 0.70352 0.0
H2098 H 0.12941 0.82093 0.61526 0.0
H2099 H 0.10642 0.81964 0.59499 0.0
H2100 H 0.11476 0.84235 0.60854 0.0
H2101 H 0.06684 0.7808 0.69569 0.0
H2102 H 0.0703 0.77277 0.66115 0.0
H2103 H 0.09189 0.77285 0.6839 0.0
H2104 H 0.09406 0.75945 0.57422 0.0
H2105 H 0.14888 0.76161 0.62335 0.0
H2106 H 0.07275 0.80185 0.59349 0.0
H2107 H 0.06126 0.78639 0.61815 0.0
H2108 H 0.06448 0.77821 0.58364 0.0
H2109 H 0.14047 0.80339 0.65604 0.0
H2110 H 0.15111 0.78009 0.66305 0.0
H2111 H 0.12703 0.78755 0.67847 0.0
C2112 C 0.96504 0.33409 0.42304 0.0
C2113 C 0.94752 0.34593 0.42309 0.0
C2114 C 0.98081 0.33652 0.40357 0.0
C2115 C 0.97868 0.35082 0.38334 0.0
C2116 C 0.96039 0.36202 0.38243 0.0
C2117 C 0.94517 0.35961 0.40253 0.0
C2118 C 1.00022 0.32453 0.4056 0.0
C2119 C 0.95725 0.37709 0.36086 0.0
C2120 C 0.0274 0.37418 0.35543 0.0
C2121 C 0.03027 0.3645 0.33074 0.0
C2122 C 0.01081 0.36969 0.37273 0.0
C2123 C 0.99638 0.35544 0.36497 0.0
C2124 C 0.99889 0.34588 0.3398 0.0
C2125 C 0.01596 0.35037 0.32311 0.0
C2126 C 0.00894 0.38003 0.39957 0.0
C2127 C 0.98356 0.33092 0.33057 0.0
H2128 H 0.96687 0.32361 0.43907 0.0
H2129 H 0.93146 0.36858 0.40244 0.0
H2130 H 1.00388 0.3179 0.38571 0.0
H2131 H 0.01355 0.3338 0.41114 0.0
H2132 H 0.99879 0.31305 0.42109 0.0
H2133 H 0.94122 0.38293 0.36101 0.0
H2134 H 0.96825 0.38906 0.36424 0.0
H2135 H 0.96054 0.37111 0.34044 0.0
H2136 H 0.03849 0.38497 0.36167 0.0
H2137 H 0.01808 0.34284 0.30406 0.0
H2138 H 0.00894 0.36956 0.41649 0.0
H2139 H 0.99402 0.38791 0.40047 0.0
H2140 H 0.02179 0.39036 0.4029 0.0
H2141 H 0.98332 0.31886 0.34519 0.0
H2142 H 0.98733 0.32523 0.31008 0.0
H2143 H 0.96769 0.33707 0.3301 0.0
C2144 C 0.43179 0.81308 0.33568 0.0
C2145 C 0.42911 0.83192 0.34469 0.0
C2146 C 0.42388 0.79758 0.35068 0.0
C2147 C 0.41344 0.80103 0.37556 0.0
C2148 C 0.41139 0.82002 0.38518 0.0
C2149 C 0.41906 0.83522 0.3695 0.0
C2150 C 0.42607 0.7776 0.33949 0.0
C2151 C 0.40077 0.82433 0.41184 0.0
C2152 C 0.37298 0.76633 0.40252 0.0
C2153 C 0.3841 0.75645 0.42256 0.0
C2154 C 0.38255 0.7804 0.38649 0.0
C2155 C 0.40369 0.78499 0.39094 0.0
C2156 C 0.41508 0.77491 0.41096 0.0
C2157 C 0.40519 0.76061 0.42635 0.0
C2158 C 0.36993 0.79052 0.36502 0.0
C2159 C 0.43752 0.77961 0.41668 0.0
H2160 H 0.43945 0.81056 0.31641 0.0
H2161 H 0.41725 0.84977 0.37668 0.0
H2162 H 0.43355 0.76815 0.3547 0.0
H2163 H 0.41046 0.77159 0.33522 0.0
H2164 H 0.43535 0.77724 0.32048 0.0
H2165 H 0.40173 0.83971 0.41732 0.0
H2166 H 0.38417 0.82022 0.41062 0.0
H2167 H 0.40787 0.81578 0.42839 0.0
H2168 H 0.35677 0.76292 0.39927 0.0
H2169 H 0.41376 0.75308 0.44196 0.0
H2170 H 0.37791 0.78964 0.34508 0.0
H2171 H 0.36848 0.8059 0.37022 0.0
H2172 H 0.3541 0.78441 0.3629 0.0
H2173 H 0.44681 0.77859 0.39777 0.0
H2174 H 0.44442 0.76997 0.43217 0.0
H2175 H 0.43877 0.79457 0.42403 0.0
C2176 C 0.01801 0.67389 0.19785 0.0
C2177 C 0.03082 0.65796 0.19346 0.0
C2178 C 1.00076 0.67748 0.18104 0.0
C2179 C 0.99645 0.66504 0.15903 0.0
C2180 C 0.00934 0.64895 0.15455 0.0
C2181 C 0.0262 0.64553 0.17191 0.0
C2182 C 0.98716 0.69458 0.18679 0.0
C2183 C 1.00546 0.63543 0.13116 0.0
C2184 C 0.94305 0.66063 0.12697 0.0
C2185 C 0.94542 0.67119 0.10296 0.0
C2186 C 0.95917 0.65933 0.14606 0.0
C2187 C 0.97833 0.66851 0.14078 0.0
C2188 C 0.9806 0.67972 0.11695 0.0
C2189 C 0.96402 0.68108 0.09844 0.0
C2190 C 0.95591 0.64758 0.17144 0.0
C2191 C 1.00086 0.68951 0.11036 0.0
H2192 H 0.02145 0.68357 0.21443 0.0
H2193 H 0.03609 0.63328 0.16815 0.0
H2194 H 0.98724 0.70439 0.1691 0.0
H2195 H 0.97088 0.68989 0.18991 0.0
H2196 H 0.99232 0.70263 0.20503 0.0
H2197 H 0.01723 0.62385 0.13006 0.0
H2198 H 0.98989 0.62882 0.13321 0.0
H2199 H 1.00564 0.64344 0.1117 0.0
H2200 H 0.92855 0.65323 0.1307 0.0
H2201 H 0.96589 0.68916 0.07982 0.0
H2202 H 0.96049 0.6559 0.18966 0.0
H2203 H 0.96589 0.63467 0.17073 0.0
H2204 H 0.93951 0.64294 0.17381 0.0
H2205 H 1.00602 0.69841 0.12774 0.0
H2206 H 0.99968 0.69873 0.09204 0.0
H2207 H 0.01305 0.6786 0.10677 0.0
C2208 C 0.12527 0.24122 0.94369 0.0
C2209 C 0.12119 0.26071 0.93947 0.0
C2210 C 0.11773 0.22723 0.92578 0.0
C2211 C 0.1056 0.23279 0.90315 0.0
C2212 C 0.10067 0.25233 0.89935 0.0
C2213 C 0.10858 0.26605 0.91746 0.0
C2214 C 0.12338 0.20655 0.93056 0.0
C2215 C 0.08766 0.25884 0.87558 0.0
C2216 C 0.10789 0.20003 0.84176 0.0
C2217 C 0.08966 0.18919 0.84457 0.0
C2218 C 0.11303 0.21441 0.86042 0.0
C2219 C 0.09953 0.2183 0.8824 0.0
C2220 C 0.08079 0.20787 0.88499 0.0
C2221 C 0.07611 0.19339 0.86611 0.0
C2222 C 0.13317 0.22519 0.85688 0.0
C2223 C 0.0659 0.21173 0.90802 0.0
H2224 H 0.1346 0.23685 0.96088 0.0
H2225 H 0.10543 0.28103 0.91378 0.0
H2226 H 0.1092 0.19757 0.93094 0.0
H2227 H 0.13323 0.20133 0.91361 0.0
H2228 H 0.13195 0.20445 0.94991 0.0
H2229 H 0.08354 0.27424 0.87694 0.0
H2230 H 0.09631 0.25646 0.85639 0.0
H2231 H 0.07315 0.25034 0.87439 0.0
H2232 H 0.11824 0.19728 0.8249 0.0
H2233 H 0.06207 0.18508 0.86863 0.0
H2234 H 0.14329 0.22282 0.8748 0.0
H2235 H 0.13011 0.24077 0.85559 0.0
H2236 H 0.14175 0.22072 0.83836 0.0
H2237 H 0.0734 0.20815 0.92766 0.0
H2238 H 0.05137 0.20328 0.90617 0.0
H2239 H 0.06187 0.22714 0.90868 0.0
C2240 C 0.54429 0.36506 0.58775 0.0
C2241 C 0.56278 0.35502 0.59231 0.0
C2242 C 0.53028 0.36865 0.60892 0.0
C2243 C 0.53496 0.36223 0.6355 0.0
C2244 C 0.55348 0.35183 0.64023 0.0
C2245 C 0.56713 0.34821 0.61848 0.0
C2246 C 0.51053 0.37948 0.60283 0.0
C2247 C 0.55909 0.34492 0.66832 0.0
C2248 C 0.5058 0.39023 0.68943 0.0
C2249 C 0.4886 0.37839 0.69413 0.0
C2250 C 0.52178 0.38457 0.67172 0.0
C2251 C 0.52039 0.36676 0.65814 0.0
C2252 C 0.50366 0.3543 0.66398 0.0
C2253 C 0.48805 0.36021 0.68202 0.0
C2254 C 0.53953 0.39815 0.66637 0.0
C2255 C 0.50148 0.33526 0.64981 0.0
H2256 H 0.54073 0.37005 0.56745 0.0
H2257 H 0.58149 0.34056 0.62206 0.0
H2258 H 0.49686 0.37095 0.60926 0.0
H2259 H 0.51025 0.39303 0.61451 0.0
H2260 H 0.50891 0.38291 0.5809 0.0
H2261 H 0.57369 0.33647 0.66845 0.0
H2262 H 0.56098 0.35735 0.68211 0.0
H2263 H 0.5464 0.33597 0.67671 0.0
H2264 H 0.50646 0.40422 0.69886 0.0
H2265 H 0.47486 0.35091 0.68553 0.0
H2266 H 0.53812 0.40405 0.64553 0.0
H2267 H 0.55458 0.39049 0.66754 0.0
H2268 H 0.53977 0.41024 0.68098 0.0
H2269 H 0.49792 0.33766 0.62802 0.0
H2270 H 0.4889 0.32639 0.65873 0.0
H2271 H 0.51623 0.32713 0.65081 0.0
C2272 C 0.08142 0.47896 0.30316 0.0
C2273 C 0.09442 0.46454 0.29307 0.0
C2274 C 0.08126 0.49734 0.29161 0.0
C2275 C 0.09487 0.50162 0.26985 0.0
C2276 C 0.10814 0.4871 0.25964 0.0
C2277 C 0.10753 0.46865 0.27112 0.0
C2278 C 0.06639 0.51213 0.30259 0.0
C2279 C 0.1232 0.49114 0.23687 0.0
C2280 C 0.08253 0.54366 0.22331 0.0
C2281 C 0.09475 0.5583 0.23441 0.0
C2282 C 0.08225 0.52526 0.2348 0.0
C2283 C 0.09496 0.5212 0.25756 0.0
C2284 C 0.10744 0.53594 0.26877 0.0
C2285 C 0.10694 0.55439 0.25729 0.0
C2286 C 0.06821 0.51022 0.22269 0.0
C2287 C 0.12154 0.53213 0.29263 0.0
H2288 H 0.07112 0.47572 0.31995 0.0
H2289 H 0.1177 0.45754 0.26349 0.0
H2290 H 0.07514 0.52454 0.31066 0.0
H2291 H 0.0563 0.5175 0.28599 0.0
H2292 H 0.05638 0.50635 0.31904 0.0
H2293 H 0.13289 0.4785 0.2318 0.0
H2294 H 0.11464 0.4956 0.21839 0.0
H2295 H 0.13357 0.50315 0.24263 0.0
H2296 H 0.07293 0.54673 0.20579 0.0
H2297 H 0.11652 0.56567 0.2657 0.0
H2298 H 0.05748 0.50467 0.23848 0.0
H2299 H 0.07756 0.49796 0.21534 0.0
H2300 H 0.05887 0.51583 0.20549 0.0
H2301 H 0.11225 0.52753 0.31044 0.0
H2302 H 0.13075 0.54493 0.29842 0.0
H2303 H 0.13237 0.5203 0.28768 0.0
C2304 C 0.80469 0.84294 0.51483 0.0
C2305 C 0.81028 0.83498 0.53997 0.0
C2306 C 0.78366 0.84555 0.50771 0.0
C2307 C 0.7678 0.84011 0.52616 0.0
C2308 C 0.7734 0.83253 0.5518 0.0
C2309 C 0.79447 0.83005 0.55835 0.0
C2310 C 0.77839 0.85369 0.48018 0.0
C2311 C 0.75709 0.82658 0.57217 0.0
C2312 C 0.71211 0.85846 0.51948 0.0
C2313 C 0.70193 0.84266 0.50796 0.0
C2314 C 0.73362 0.85808 0.52478 0.0
C2315 C 0.74532 0.84151 0.51843 0.0
C2316 C 0.73522 0.82571 0.50617 0.0
C2317 C 0.71374 0.82647 0.50112 0.0
C2318 C 0.74371 0.87523 0.53787 0.0
C2319 C 0.74703 0.80775 0.49902 0.0
H2320 H 0.81673 0.84678 0.50045 0.0
H2321 H 0.79852 0.82396 0.57788 0.0
H2322 H 0.76995 0.84283 0.46802 0.0
H2323 H 0.76795 0.8662 0.48243 0.0
H2324 H 0.79244 0.85818 0.46874 0.0
H2325 H 0.76397 0.82168 0.59166 0.0
H2326 H 0.74647 0.83869 0.57642 0.0
H2327 H 0.74758 0.8148 0.56366 0.0
H2328 H 0.70322 0.87106 0.52482 0.0
H2329 H 0.70614 0.81418 0.49214 0.0
H2330 H 0.75732 0.87991 0.52576 0.0
H2331 H 0.74949 0.87131 0.55836 0.0
H2332 H 0.73282 0.88745 0.53995 0.0
H2333 H 0.76056 0.81129 0.48601 0.0
H2334 H 0.7372 0.79715 0.48821 0.0
H2335 H 0.75312 0.80102 0.5178 0.0
C2336 C 0.43991 0.46493 0.74681 0.0
C2337 C 0.42232 0.45932 0.73204 0.0
C2338 C 0.44195 0.48375 0.75667 0.0
C2339 C 0.42584 0.49719 0.75211 0.0
C2340 C 0.40796 0.49149 0.73744 0.0
C2341 C 0.40652 0.47272 0.72743 0.0
C2342 C 0.4614 0.48931 0.7718 0.0
C2343 C 0.39021 0.50515 0.73258 0.0
C2344 C 0.41924 0.53988 0.79931 0.0
C2345 C 0.42614 0.55521 0.78315 0.0
C2346 C 0.41949 0.52096 0.78969 0.0
C2347 C 0.42719 0.51703 0.76336 0.0
C2348 C 0.43501 0.53225 0.74732 0.0
C2349 C 0.43428 0.55113 0.7573 0.0
C2350 C 0.41087 0.50524 0.80746 0.0
C2351 C 0.44365 0.52865 0.71929 0.0
H2352 H 0.45225 0.45468 0.75015 0.0
H2353 H 0.39279 0.4684 0.71631 0.0
H2354 H 0.46891 0.50168 0.76166 0.0
H2355 H 0.45743 0.49385 0.79275 0.0
H2356 H 0.47276 0.47739 0.77296 0.0
H2357 H 0.3774 0.49851 0.72079 0.0
H2358 H 0.38391 0.51019 0.75231 0.0
H2359 H 0.3958 0.51792 0.7214 0.0
H2360 H 0.41342 0.54259 0.81954 0.0
H2361 H 0.43961 0.5627 0.74449 0.0
H2362 H 0.4226 0.49381 0.81025 0.0
H2363 H 0.3972 0.49865 0.79745 0.0
H2364 H 0.40606 0.51054 0.82778 0.0
H2365 H 0.45549 0.51714 0.72 0.0
H2366 H 0.45081 0.54167 0.71035 0.0
H2367 H 0.43105 0.52373 0.70563 0.0
C2368 C 0.80941 0.1729 1.00651 0.0
C2369 C 0.81414 0.18494 0.98452 0.0
C2370 C 0.78866 0.16943 0.01424 0.0
C2371 C 0.77224 0.17838 0.99989 0.0
C2372 C 0.77695 0.1903 0.97745 0.0
C2373 C 0.79774 0.19331 0.96998 0.0
C2374 C 0.78431 0.15642 0.03802 0.0
C2375 C 0.76002 0.20029 0.96169 0.0
C2376 C 0.71599 0.1614 1.00239 0.0
C2377 C 0.70698 0.17467 0.02027 0.0
C2378 C 0.7374 0.16181 0.99661 0.0
C2379 C 0.75013 0.17598 1.00868 0.0
C2380 C 0.74126 0.18895 0.0275 0.0
C2381 C 0.71988 0.18806 0.03319 0.0
C2382 C 0.74624 0.14752 0.97676 0.0
C2383 C 0.75416 0.20442 0.04066 0.0
H2384 H 0.82192 0.16633 0.01787 0.0
H2385 H 0.80114 0.20268 0.95302 0.0
H2386 H 0.77691 0.16467 0.05464 0.0
H2387 H 0.77325 0.14503 0.03196 0.0
H2388 H 0.79865 0.14962 0.04601 0.0
H2389 H 0.76622 0.20885 0.9445 0.0
H2390 H 0.74887 0.18966 0.95353 0.0
H2391 H 0.75123 0.20995 0.97538 0.0
H2392 H 0.70622 0.15093 0.9924 0.0
H2393 H 0.71314 0.19841 0.047 0.0
H2394 H 0.76033 0.1407 0.98533 0.0
H2395 H 0.75094 0.15498 0.95785 0.0
H2396 H 0.73487 0.13618 0.97143 0.0
H2397 H 0.76809 0.19814 0.05042 0.0
H2398 H 0.7453 0.21254 0.0562 0.0
H2399 H 0.75966 0.21457 0.02491 0.0
C2400 C 0.97872 0.46759 0.76124 0.0
C2401 C 0.96503 0.46117 0.78143 0.0
C2402 C 0.97955 0.48705 0.75385 0.0
C2403 C 0.96622 0.5004 0.76675 0.0
C2404 C 0.95224 0.49394 0.78694 0.0
C2405 C 0.95185 0.47449 0.79404 0.0
C2406 C 0.99474 0.49335 0.73229 0.0
C2407 C 0.93752 0.50756 0.80094 0.0
C2408 C 0.97834 0.55391 0.76428 0.0
C2409 C 0.96559 0.56005 0.74292 0.0
C2410 C 0.9789 0.53452 0.77211 0.0
C2411 C 0.96623 0.52099 0.75845 0.0
C2412 C 0.95308 0.52722 0.7372 0.0
C2413 C 0.95297 0.54659 0.72969 0.0
C2414 C 0.9932 0.52846 0.79481 0.0
C2415 C 0.93907 0.51341 0.72236 0.0
H2416 H 0.98908 0.45745 0.75162 0.0
H2417 H 0.94098 0.46964 0.80934 0.0
H2418 H 0.98625 0.49971 0.7149 0.0
H2419 H 1.00513 0.50459 0.74054 0.0
H2420 H 1.0044 0.48133 0.72469 0.0
H2421 H 0.92783 0.50032 0.81652 0.0
H2422 H 0.94637 0.51922 0.81088 0.0
H2423 H 0.92711 0.51428 0.78575 0.0
H2424 H 0.98826 0.56418 0.77441 0.0
H2425 H 0.94281 0.55125 0.71347 0.0
H2426 H 1.0042 0.51745 0.78733 0.0
H2427 H 0.98407 0.52188 0.81148 0.0
H2428 H 1.00222 0.54064 0.80319 0.0
H2429 H 0.94844 0.5019 0.71289 0.0
H2430 H 0.92978 0.52053 0.70626 0.0
H2431 H 0.92827 0.5065 0.73692 0.0
C2432 C 0.30391 0.17025 0.52514 0.0
C2433 C 0.31775 0.18526 0.51935 0.0
C2434 C 0.28244 0.17226 0.52139 0.0
C2435 C 0.27437 0.1896 0.51103 0.0
C2436 C 0.28813 0.2048 0.50487 0.0
C2437 C 0.30961 0.2025 0.50923 0.0
C2438 C 0.26837 0.15566 0.52831 0.0
C2439 C 0.28016 0.22343 0.49347 0.0
C2440 C 0.22174 0.18325 0.4776 0.0
C2441 C 0.20813 0.18882 0.49838 0.0
C2442 C 0.24333 0.18453 0.48086 0.0
C2443 C 0.25161 0.19127 0.50572 0.0
C2444 C 0.23793 0.1977 0.52637 0.0
C2445 C 0.21632 0.19654 0.52235 0.0
C2446 C 0.25728 0.17786 0.4581 0.0
C2447 C 0.24608 0.20478 0.55328 0.0
H2448 H 0.3098 0.15671 0.53238 0.0
H2449 H 0.31995 0.21429 0.50487 0.0
H2450 H 0.25616 0.16033 0.54274 0.0
H2451 H 0.26045 0.15051 0.5097 0.0
H2452 H 0.27696 0.1435 0.53749 0.0
H2453 H 0.2928 0.23395 0.48999 0.0
H2454 H 0.27209 0.22079 0.47391 0.0
H2455 H 0.26863 0.2298 0.50755 0.0
H2456 H 0.21542 0.17757 0.45887 0.0
H2457 H 0.20582 0.20076 0.53847 0.0
H2458 H 0.26528 0.16449 0.46424 0.0
H2459 H 0.26944 0.18869 0.45385 0.0
H2460 H 0.24852 0.17504 0.43909 0.0
H2461 H 0.25326 0.19271 0.56449 0.0
H2462 H 0.23363 0.21103 0.56611 0.0
H2463 H 0.25832 0.2157 0.55011 0.0
C2464 C 0.56064 0.54191 0.30074 0.0
C2465 C 0.54737 0.55564 0.2893 0.0
C2466 C 0.55943 0.52255 0.29327 0.0
C2467 C 0.54444 0.51664 0.274 0.0
C2468 C 0.53091 0.53041 0.26244 0.0
C2469 C 0.53263 0.54975 0.27008 0.0
C2470 C 0.57442 0.50847 0.30574 0.0
C2471 C 0.51461 0.52469 0.24198 0.0
C2472 C 0.55438 0.47106 0.2339 0.0
C2473 C 0.54197 0.45765 0.24755 0.0
C2474 C 0.55542 0.49018 0.24243 0.0
C2475 C 0.54359 0.49622 0.26508 0.0
C2476 C 0.53119 0.4827 0.2792 0.0
C2477 C 0.53066 0.46353 0.27039 0.0
C2478 C 0.56916 0.50395 0.22708 0.0
C2479 C 0.51823 0.48859 0.30332 0.0
H2480 H 0.57226 0.54637 0.31531 0.0
H2481 H 0.52218 0.56023 0.26141 0.0
H2482 H 0.56577 0.49679 0.31596 0.0
H2483 H 0.58402 0.50182 0.28959 0.0
H2484 H 0.58491 0.51529 0.32079 0.0
H2485 H 0.50478 0.53696 0.23564 0.0
H2486 H 0.52214 0.51857 0.22368 0.0
H2487 H 0.50446 0.51342 0.25067 0.0
H2488 H 0.5634 0.46652 0.21649 0.0
H2489 H 0.52093 0.45326 0.28084 0.0
H2490 H 0.58062 0.5105 0.24109 0.0
H2491 H 0.55967 0.51573 0.21851 0.0
H2492 H 0.57769 0.49691 0.21021 0.0
H2493 H 0.52829 0.49478 0.31934 0.0
H2494 H 0.50944 0.4764 0.31212 0.0
H2495 H 0.50705 0.49985 0.29717 0.0
C2496 C 0.22308 0.8459 0.02486 0.0
C2497 C 0.20872 0.83083 0.02301 0.0
C2498 C 0.24435 0.84295 0.02025 0.0
C2499 C 0.25162 0.82445 0.01358 0.0
C2500 C 0.23724 0.80915 1.0116 0.0
C2501 C 0.21597 0.81253 0.01624 0.0
C2502 C 0.25903 0.85973 0.02224 0.0
C2503 C 0.24435 0.7892 1.00456 0.0
C2504 C 0.30255 0.82075 0.97483 0.0
C2505 C 0.31675 0.81595 0.99537 0.0
C2506 C 0.28141 0.82351 0.9805 0.0
C2507 C 0.27411 0.82137 1.00744 0.0
C2508 C 0.28837 0.81675 0.0284 0.0
C2509 C 0.30955 0.81419 0.02213 0.0
C2510 C 0.26688 0.82871 0.95758 0.0
C2511 C 0.2812 0.81431 0.05737 0.0
H2512 H 0.21763 0.86015 0.02964 0.0
H2513 H 0.20507 0.80078 0.01505 0.0
H2514 H 0.27142 0.85666 0.03726 0.0
H2515 H 0.26671 0.86213 1.00235 0.0
H2516 H 0.251 0.87312 0.02832 0.0
H2517 H 0.23136 0.77875 1.00457 0.0
H2518 H 0.25169 0.78916 0.98417 0.0
H2519 H 0.25627 0.78437 0.0193 0.0
H2520 H 0.30803 0.82246 0.95418 0.0
H2521 H 0.32039 0.81034 0.03803 0.0
H2522 H 0.25924 0.84258 0.96196 0.0
H2523 H 0.25446 0.8178 0.95578 0.0
H2524 H 0.27503 0.82983 0.93775 0.0
H2525 H 0.27379 0.82767 0.06464 0.0
H2526 H 0.29416 0.81062 0.07129 0.0
H2527 H 0.26931 0.80285 0.05847 0.0
C2528 C 0.6138 0.98054 0.80034 0.0
C2529 C 0.59917 0.96642 0.7936 0.0
C2530 C 0.61248 0.99913 0.78963 0.0
C2531 C 0.59609 1.00387 0.77171 0.0
C2532 C 0.58129 0.98969 0.76471 0.0
C2533 C 0.58304 0.97115 0.77566 0.0
C2534 C 0.62873 0.01369 0.79742 0.0
C2535 C 0.56354 0.99415 0.74575 0.0
C2536 C 0.583 0.05674 0.76225 0.0
C2537 C 0.59287 0.06093 0.73753 0.0
C2538 C 0.58376 0.03823 0.77351 0.0
C2539 C 0.59476 0.02353 0.75984 0.0
C2540 C 0.60487 0.02773 0.73501 0.0
C2541 C 0.60379 0.0463 0.7242 0.0
C2542 C 0.5727 0.03436 0.79997 0.0
C2543 C 0.61694 0.01259 0.71988 0.0
H2544 H 0.6265 0.97699 0.81383 0.0
H2545 H 0.57153 0.96045 0.77056 0.0
H2546 H 0.63692 0.01883 0.77899 0.0
H2547 H 0.62124 0.02628 0.80698 0.0
H2548 H 0.64039 1.0078 0.81177 0.0
H2549 H 0.5532 0.98164 0.74253 0.0
H2550 H 0.55417 1.00611 0.75404 0.0
H2551 H 0.56965 0.99884 0.72576 0.0
H2552 H 0.57435 0.06785 0.77256 0.0
H2553 H 0.61175 0.04941 0.70535 0.0
H2554 H 0.58396 0.02932 0.81543 0.0
H2555 H 0.56109 0.02282 0.79714 0.0
H2556 H 0.56467 0.04724 0.80796 0.0
H2557 H 0.62964 1.00704 0.73289 0.0
H2558 H 0.6238 0.0181 0.70071 0.0
H2559 H 0.60667 1.00035 0.71495 0.0
C2560 C 0.29974 0.35838 1.01085 0.0
C2561 C 0.30917 0.3416 0.02052 0.0
C2562 C 0.2784 0.35891 1.00458 0.0
C2563 C 0.2661 0.34227 1.00803 0.0
C2564 C 0.27545 0.32542 0.01828 0.0
C2565 C 0.29678 0.32529 0.02436 0.0
C2566 C 0.26909 0.37717 0.99371 0.0
C2567 C 0.263 0.30734 0.02229 0.0
C2568 C 0.20682 0.3446 1.01075 0.0
C2569 C 0.20135 0.33849 0.98454 0.0
C2570 C 0.2278 0.34643 0.0185 0.0
C2571 C 0.24374 0.34206 0.99962 0.0
C2572 C 0.23828 0.33647 0.97292 0.0
C2573 C 0.21725 0.33476 0.96574 0.0
C2574 C 0.23291 0.35247 0.04715 0.0
C2575 C 0.2547 0.33171 0.95207 0.0
H2576 H 0.30909 0.37108 1.00782 0.0
H2577 H 0.3038 0.31224 0.03188 0.0
H2578 H 0.26346 0.37485 0.97267 0.0
H2579 H 0.25548 0.3814 1.00615 0.0
H2580 H 0.28041 0.38914 0.99356 0.0
H2581 H 0.27234 0.29568 0.03154 0.0
H2582 H 0.24942 0.31022 0.03552 0.0
H2583 H 0.25695 0.3023 1.00244 0.0
H2584 H 0.19471 0.34751 0.02547 0.0
H2585 H 0.21328 0.3301 0.9454 0.0
H2586 H 0.24384 0.36473 0.04692 0.0
H2587 H 0.24075 0.34056 0.05793 0.0
H2588 H 0.21886 0.3566 0.05883 0.0
H2589 H 0.26578 0.34376 0.95 0.0
H2590 H 0.24795 0.32857 0.93179 0.0
H2591 H 0.26369 0.31906 0.95887 0.0
C2592 C 0.91716 0.05134 0.27354 0.0
C2593 C 0.93394 0.0555 0.29066 0.0
C2594 C 0.91462 0.03295 0.26232 0.0
C2595 C 0.92951 0.01851 0.2678 0.0
C2596 C 0.9467 0.02281 0.28467 0.0
C2597 C 0.94856 0.04115 0.2961 0.0
C2598 C 0.89588 0.0289 0.24486 0.0
C2599 C 0.96324 1.00807 0.29049 0.0
C2600 C 0.91593 0.96573 0.25832 0.0
C2601 C 0.92384 0.96206 0.23231 0.0
C2602 C 0.91734 0.98409 0.26995 0.0
C2603 C 0.92738 0.99903 0.25552 0.0
C2604 C 0.93572 0.99525 0.22945 0.0
C2605 C 0.93365 0.97691 0.21808 0.0
C2606 C 0.9079 0.98757 0.29757 0.0
C2607 C 0.94705 0.01053 0.21363 0.0
H2608 H 0.90574 0.06235 0.26952 0.0
H2609 H 0.96168 0.04439 0.30907 0.0
H2610 H 0.90088 0.02465 0.22416 0.0
H2611 H 0.88697 0.01676 0.25349 0.0
H2612 H 0.88543 0.04148 0.24316 0.0
H2613 H 0.97583 0.01379 0.30359 0.0
H2614 H 0.95626 0.99548 0.30069 0.0
H2615 H 0.97016 1.00299 0.27116 0.0
H2616 H 0.90822 0.95431 0.26925 0.0
H2617 H 0.94003 0.97406 0.19813 0.0
H2618 H 0.89638 0.99934 0.29633 0.0
H2619 H 0.92009 0.99213 0.31209 0.0
H2620 H 0.9001 0.97465 0.3058 0.0
H2621 H 0.93656 0.0228 0.20976 0.0
H2622 H 0.95297 1.0052 0.19384 0.0
H2623 H 0.96034 0.01598 0.22569 0.0
C2624 C 0.30118 0.67185 0.50445 0.0
C2625 C 0.30581 0.67718 0.47761 0.0
C2626 C 0.28047 0.66968 0.51325 0.0
C2627 C 0.26391 0.67306 0.49488 0.0
C2628 C 0.26853 0.67798 0.46762 0.0
C2629 C 0.28933 0.6799 0.45934 0.0
C2630 C 0.27629 0.66425 0.5424 0.0
C2631 C 0.25146 0.68183 0.44733 0.0
C2632 C 0.2086 0.6558 0.50914 0.0
C2633 C 0.19898 0.67256 0.51859 0.0
C2634 C 0.22982 0.65558 0.50209 0.0
C2635 C 0.24178 0.67253 0.50432 0.0
C2636 C 0.23224 0.68937 0.51433 0.0
C2637 C 0.21108 0.68917 0.5214 0.0
C2638 C 0.23936 0.63728 0.49172 0.0
C2639 C 0.24428 0.70781 0.51693 0.0
H2640 H 0.31374 0.66967 0.51876 0.0
H2641 H 0.29262 0.68402 0.43856 0.0
H2642 H 0.26839 0.67623 0.55294 0.0
H2643 H 0.26573 0.65173 0.54328 0.0
H2644 H 0.29076 0.66076 0.55362 0.0
H2645 H 0.25758 0.68471 0.42663 0.0
H2646 H 0.24074 0.66944 0.44628 0.0
H2647 H 0.24221 0.69437 0.45398 0.0
H2648 H 0.19949 0.64287 0.50695 0.0
H2649 H 0.20392 0.70222 0.52867 0.0
H2650 H 0.25345 0.63373 0.50364 0.0
H2651 H 0.24428 0.63916 0.47029 0.0
H2652 H 0.22841 0.62503 0.4928 0.0
H2653 H 0.25825 0.70558 0.52971 0.0
H2654 H 0.23485 0.71948 0.526 0.0
H2655 H 0.24971 0.71249 0.4966 0.0
C2656 C 0.45619 0.03951 0.22656 0.0
C2657 C 0.47028 0.05299 0.23689 0.0
C2658 C 0.45714 0.02019 0.2342 0.0
C2659 C 0.47271 0.01402 0.25249 0.0
C2660 C 0.48698 0.02756 0.26309 0.0
C2661 C 0.48549 0.04691 0.25532 0.0
C2662 C 0.44136 1.00638 0.22281 0.0
C2663 C 0.5039 0.02156 0.28248 0.0
C2664 C 0.46321 0.96829 0.2925 0.0
C2665 C 0.47465 0.95472 0.27773 0.0
C2666 C 0.46243 0.98753 0.28447 0.0
C2667 C 0.47354 0.99354 0.26118 0.0
C2668 C 0.485 0.9799 0.246 0.0
C2669 C 0.48528 0.96061 0.25434 0.0
C2670 C 0.44968 1.00145 0.30096 0.0
C2671 C 0.49718 0.98573 0.22116 0.0
H2672 H 0.44421 0.04416 0.21261 0.0
H2673 H 0.49653 0.05721 0.26314 0.0
H2674 H 0.44933 0.99468 0.21175 0.0
H2675 H 0.43244 0.99973 0.23962 0.0
H2676 H 0.43028 0.01344 0.20873 0.0
H2677 H 0.51408 0.0337 0.28837 0.0
H2678 H 0.49695 0.01538 0.30113 0.0
H2679 H 0.5136 0.01027 0.27303 0.0
H2680 H 0.45471 0.96377 0.31037 0.0
H2681 H 0.49427 0.95023 0.24303 0.0
H2682 H 0.43774 1.00823 0.28789 0.0
H2683 H 0.45975 0.01304 0.30886 0.0
H2684 H 0.44179 0.99446 0.3184 0.0
H2685 H 0.48662 0.99208 0.20582 0.0
H2686 H 0.50548 0.97349 0.21176 0.0
H2687 H 0.5087 0.99686 0.22668 0.0
C2688 C 0.79326 0.66717 0.02657 0.0
C2689 C 0.80694 0.68167 0.0183 0.0
C2690 C 0.77203 0.66785 0.02024 0.0
C2691 C 0.7641 0.68342 1.0051 0.0
C2692 C 0.77792 0.69779 0.99577 0.0
C2693 C 0.7992 0.69673 1.00243 0.0
C2694 C 0.758 0.6521 0.03043 0.0
C2695 C 0.77012 0.7146 0.97951 0.0
C2696 C 0.7105 0.67547 0.97417 0.0
C2697 C 0.6974 0.68387 0.99363 0.0
C2698 C 0.73224 0.67585 0.97707 0.0
C2699 C 0.74122 0.6848 1.00003 0.0
C2700 C 0.72814 0.69378 0.01935 0.0
C2701 C 0.70646 0.69322 0.01592 0.0
C2702 C 0.74557 0.66619 0.95591 0.0
C2703 C 0.73701 0.70343 0.0442 0.0
H2704 H 0.79917 0.6553 0.03839 0.0
H2705 H 0.80961 0.70804 0.99611 0.0
H2706 H 0.74632 0.65812 0.04463 0.0
H2707 H 0.7494 0.6456 0.01324 0.0
H2708 H 0.7667 0.64065 0.04113 0.0
H2709 H 0.78297 0.72384 0.97214 0.0
H2710 H 0.76102 0.70955 0.96178 0.0
H2711 H 0.75957 0.72337 0.99224 0.0
H2712 H 0.70377 0.66853 0.95661 0.0
H2713 H 0.69658 0.69961 0.03121 0.0
H2714 H 0.75363 0.65375 0.96508 0.0
H2715 H 0.75771 0.67617 0.94851 0.0
H2716 H 0.73635 0.66111 0.93826 0.0
H2717 H 0.74462 0.69262 0.05735 0.0
H2718 H 0.72493 0.71092 0.05628 0.0
H2719 H 0.74907 0.71395 0.0382 0.0
C2720 C 0.03995 0.05405 0.75973 0.0
C2721 C 0.05058 0.05938 0.78347 0.0
C2722 C 0.03708 0.03465 0.7529 0.0
C2723 C 0.04529 0.02017 0.76996 0.0
C2724 C 0.05539 0.02542 0.79434 0.0
C2725 C 0.05766 0.04484 0.80092 0.0
C2726 C 0.02585 0.02966 0.72696 0.0
C2727 C 0.0646 0.01053 0.81302 0.0
C2728 C 0.02934 0.96776 0.7625 0.0
C2729 C 0.04526 0.96064 0.74594 0.0
C2730 C 0.02883 0.9872 0.77005 0.0
C2731 C 0.04491 0.99966 0.76137 0.0
C2732 C 0.06122 0.99236 0.74509 0.0
C2733 C 0.06105 0.97304 0.73737 0.0
C2734 C 0.01097 0.99448 0.78695 0.0
C2735 C 0.07897 1.00492 0.73597 0.0
H2736 H 0.03435 0.06499 0.74603 0.0
H2737 H 0.06532 0.04855 0.81974 0.0
H2738 H 0.03697 0.02347 0.71218 0.0
H2739 H 0.01378 0.01869 0.73094 0.0
H2740 H 0.01838 0.04234 0.71752 0.0
H2741 H 0.07117 0.01689 0.83183 0.0
H2742 H 0.05266 0.99987 0.81882 0.0
H2743 H 0.07715 1.00272 0.80228 0.0
H2744 H 0.017 0.95822 0.76883 0.0
H2745 H 0.07345 0.9675 0.72475 0.0
H2746 H 1.00298 1.00627 0.77607 0.0
H2747 H 0.01682 1.00043 0.80637 0.0
H2748 H 0.99947 0.9831 0.79154 0.0
H2749 H 0.07298 0.01701 0.72368 0.0
H2750 H 0.09057 0.99698 0.72366 0.0
H2751 H 0.08693 0.01111 0.75392 0.0
C2752 C 0.71585 0.33867 0.54676 0.0
C2753 C 0.70187 0.33142 0.52747 0.0
C2754 C 0.73739 0.33685 0.54331 0.0
C2755 C 0.74525 0.32763 0.51987 0.0
C2756 C 0.73122 0.31948 0.50094 0.0
C2757 C 0.70969 0.3214 0.50503 0.0
C2758 C 0.75173 0.34557 0.56416 0.0
C2759 C 0.73894 0.30959 0.47564 0.0
C2760 C 0.79734 0.34509 0.49354 0.0
C2761 C 0.81094 0.33051 0.50171 0.0
C2762 C 0.77604 0.34422 0.49924 0.0
C2763 C 0.76796 0.32842 0.51376 0.0
C2764 C 0.78159 0.31378 0.5226 0.0
C2765 C 0.80293 0.31499 0.51647 0.0
C2766 C 0.76214 0.36024 0.48956 0.0
C2767 C 0.77359 0.29677 0.53828 0.0
H2768 H 0.70991 0.34607 0.56446 0.0
H2769 H 0.69899 0.31582 0.49003 0.0
H2770 H 0.76376 0.33511 0.57038 0.0
H2771 H 0.75987 0.35803 0.55515 0.0
H2772 H 0.74326 0.35045 0.58256 0.0
H2773 H 0.72622 0.30234 0.4644 0.0
H2774 H 0.74626 0.32024 0.46196 0.0
H2775 H 0.75097 0.29886 0.48087 0.0
H2776 H 0.80338 0.35734 0.48265 0.0
H2777 H 0.81325 0.30359 0.52269 0.0
H2778 H 0.75437 0.36708 0.50717 0.0
H2779 H 0.7498 0.35444 0.47618 0.0
H2780 H 0.77082 0.37139 0.47819 0.0
H2781 H 0.76543 0.30163 0.55688 0.0
H2782 H 0.78623 0.28682 0.54425 0.0
H2783 H 0.76214 0.28883 0.5258 0.0
loop_
_geom_bond_atom_site_label_1
_geom_bond_atom_site_label_2
_geom_bond_distance
_geom_bond_site_symmetry_2
_ccdc_geom_bond_type
Cu0 N1 1.999 . S
Cu0 O6 1.974 . S
Cu0 N11 1.985 . S
Cu0 O20 1.959 . S
N1 Cu0 1.999 . S
N1 C3 1.263 . S
N1 C5 1.389 . S
N2 C3 1.358 . S
N2 C4 1.400 . S
C3 N1 1.263 . S
C3 N2 1.358 . S
C3 H9 0.930 . S
C4 N2 1.400 . S
C4 C5 1.351 . S
C4 H21 0.930 . S
C5 N1 1.389 . S
C5 C4 1.351 . S
C5 H10 0.930 . S
O6 Cu0 1.974 . S
O6 C16 1.282 . S
C7 O8 1.261 . S
C7 O20 1.251 . S
O8 C7 1.261 . S
H9 C3 0.930 . S
H10 C5 0.930 . S
N11 Cu0 1.985 . S
N11 C13 1.335 . S
N11 C14 1.390 . S
N12 C13 1.345 . S
N12 C15 1.336 . S
C13 N11 1.335 . S
C13 N12 1.345 . S
C13 H18 0.930 . S
C14 N11 1.390 . S
C14 C15 1.346 . S
C14 H19 0.930 . S
C15 N12 1.336 . S
C15 C14 1.346 . S
C15 H22 0.929 . S
C16 O6 1.282 . S
C16 O17 1.216 . S
O17 C16 1.216 . S
H18 C13 0.930 . S
H19 C14 0.930 . S
O20 Cu0 1.959 . S
O20 C7 1.251 . S
H21 C4 0.930 . S
H22 C15 0.929 . S
Cu23 N24 1.999 . S
Cu23 O29 1.974 . S
Cu23 N34 1.985 . S
Cu23 O43 1.959 . S
N24 Cu23 1.999 . S
N24 C26 1.263 . S
N24 C28 1.389 . S
N25 C26 1.358 . S
N25 C27 1.400 . S
C26 N24 1.263 . S
C26 N25 1.358 . S
C26 H32 0.930 . S
C27 N25 1.400 . S
C27 C28 1.351 . S
C27 H44 0.930 . S
C28 N24 1.389 . S
C28 C27 1.351 . S
C28 H33 0.930 . S
O29 Cu23 1.974 . S
O29 C39 1.282 . S
C30 O31 1.261 . S
C30 O43 1.251 . S
O31 C30 1.261 . S
H32 C26 0.930 . S
H33 C28 0.930 . S
N34 Cu23 1.985 . S
N34 C36 1.335 . S
N34 C37 1.390 . S
N35 C36 1.345 . S
N35 C38 1.336 . S
C36 N34 1.335 . S
C36 N35 1.345 . S
C36 H41 0.930 . S
C37 N34 1.390 . S
C37 C38 1.346 . S
C37 H42 0.930 . S
C38 N35 1.336 . S
C38 C37 1.346 . S
C38 H45 0.929 . S
C39 O29 1.282 . S
C39 O40 1.216 . S
O40 C39 1.216 . S
H41 C36 0.930 . S
H42 C37 0.930 . S
O43 Cu23 1.959 . S
O43 C30 1.251 . S
H44 C27 0.930 . S
H45 C38 0.929 . S
Cu46 N47 1.999 . S
Cu46 O52 1.974 . S
Cu46 N57 1.985 . S
Cu46 O66 1.959 . S
N47 Cu46 1.999 . S
N47 C49 1.263 . S
N47 C51 1.389 . S
N48 C49 1.358 . S
N48 C50 1.400 . S
C49 N47 1.263 . S
C49 N48 1.358 . S
C49 H55 0.930 . S
C50 N48 1.400 . S
C50 C51 1.351 . S
C50 H67 0.930 . S
C51 N47 1.389 . S
C51 C50 1.351 . S
C51 H56 0.930 . S
O52 Cu46 1.974 . S
O52 C62 1.282 . S
C53 O54 1.261 . S
C53 O66 1.251 . S
O54 C53 1.261 . S
H55 C49 0.930 . S
H56 C51 0.930 . S
N57 Cu46 1.985 . S
N57 C59 1.335 . S
N57 C60 1.390 . S
N58 C59 1.345 . S
N58 C61 1.336 . S
C59 N57 1.335 . S
C59 N58 1.345 . S
C59 H64 0.930 . S
C60 N57 1.390 . S
C60 C61 1.346 . S
C60 H65 0.930 . S
C61 N58 1.336 . S
C61 C60 1.346 . S
C61 H68 0.929 . S
C62 O52 1.282 . S
C62 O63 1.216 . S
O63 C62 1.216 . S
H64 C59 0.930 . S
H65 C60 0.930 . S
O66 Cu46 1.959 . S
O66 C53 1.251 . S
H67 C50 0.930 . S
H68 C61 0.929 . S
Cu69 N70 1.999 . S
Cu69 O75 1.974 . S
Cu69 N80 1.985 . S
Cu69 O89 1.959 . S
N70 Cu69 1.999 . S
N70 C72 1.263 1_554 S
N70 C74 1.389 1_554 S
N71 C72 1.358 . S
N71 C73 1.400 . S
C72 N70 1.263 1_556 S
C72 N71 1.358 . S
C72 H78 0.930 . S
C73 N71 1.400 . S
C73 C74 1.351 . S
C73 H90 0.930 . S
C74 N70 1.389 1_556 S
C74 C73 1.351 . S
C74 H79 0.930 . S
O75 Cu69 1.974 . S
O75 C85 1.282 . S
C76 O77 1.261 . S
C76 O89 1.251 . S
O77 C76 1.261 . S
H78 C72 0.930 . S
H79 C74 0.930 . S
N80 Cu69 1.985 . S
N80 C82 1.335 . S
N80 C83 1.390 . S
N81 C82 1.345 . S
N81 C84 1.336 . S
C82 N80 1.335 . S
C82 N81 1.345 . S
C82 H87 0.930 . S
C83 N80 1.390 . S
C83 C84 1.346 . S
C83 H88 0.930 . S
C84 N81 1.336 . S
C84 C83 1.346 . S
C84 H91 0.929 . S
C85 O75 1.282 . S
C85 O86 1.216 . S
O86 C85 1.216 . S
H87 C82 0.930 . S
H88 C83 0.930 . S
O89 Cu69 1.959 . S
O89 C76 1.251 . S
H90 C73 0.930 . S
H91 C84 0.929 . S
Cu92 N93 1.999 . S
Cu92 O98 1.974 . S
Cu92 N103 1.985 . S
Cu92 O112 1.959 . S
N93 Cu92 1.999 . S
N93 C95 1.263 . S
N93 C97 1.389 . S
N94 C95 1.358 . S
N94 C96 1.400 . S
C95 N93 1.263 . S
C95 N94 1.358 . S
C95 H101 0.930 . S
C96 N94 1.400 . S
C96 C97 1.351 . S
C96 H113 0.930 . S
C97 N93 1.389 . S
C97 C96 1.351 . S
C97 H102 0.930 . S
O98 Cu92 1.974 . S
O98 C108 1.282 . S
C99 O100 1.261 . S
C99 O112 1.251 . S
O100 C99 1.261 . S
H101 C95 0.930 . S
H102 C97 0.930 . S
N103 Cu92 1.985 . S
N103 C105 1.335 . S
N103 C106 1.390 . S
N104 C105 1.345 . S
N104 C107 1.336 . S
C105 N103 1.335 . S
C105 N104 1.345 . S
C105 H110 0.930 . S
C106 N103 1.390 . S
C106 C107 1.346 . S
C106 H111 0.930 . S
C107 N104 1.336 . S
C107 C106 1.346 . S
C107 H114 0.929 . S
C108 O98 1.282 . S
C108 O109 1.216 . S
O109 C108 1.216 . S
H110 C105 0.930 . S
H111 C106 0.930 . S
O112 Cu92 1.959 . S
O112 C99 1.251 . S
H113 C96 0.930 . S
H114 C107 0.929 . S
Cu115 N116 1.999 . S
Cu115 O121 1.974 . S
Cu115 N126 1.985 . S
Cu115 O135 1.959 . S
N116 Cu115 1.999 . S
N116 C118 1.263 . S
N116 C120 1.389 . S
N117 C118 1.358 . S
N117 C119 1.400 . S
C118 N116 1.263 . S
C118 N117 1.358 . S
C118 H124 0.930 . S
C119 N117 1.400 . S
C119 C120 1.351 . S
C119 H136 0.930 . S
C120 N116 1.389 . S
C120 C119 1.351 . S
C120 H125 0.930 . S
O121 Cu115 1.974 . S
O121 C131 1.282 . S
C122 O123 1.261 . S
C122 O135 1.251 . S
O123 C122 1.261 . S
H124 C118 0.930 . S
H125 C120 0.930 . S
N126 Cu115 1.985 . S
N126 C128 1.335 . S
N126 C129 1.390 . S
N127 C128 1.345 . S
N127 C130 1.336 . S
C128 N126 1.335 . S
C128 N127 1.345 . S
C128 H133 0.930 . S
C129 N126 1.390 . S
C129 C130 1.346 . S
C129 H134 0.930 . S
C130 N127 1.336 . S
C130 C129 1.346 . S
C130 H137 0.929 . S
C131 O121 1.282 . S
C131 O132 1.216 . S
O132 C131 1.216 . S
H133 C128 0.930 . S
H134 C129 0.930 . S
O135 Cu115 1.959 . S
O135 C122 1.251 . S
H136 C119 0.930 . S
H137 C130 0.929 . S
Cu138 N139 1.999 . S
Cu138 O144 1.974 . S
Cu138 N149 1.985 . S
Cu138 O158 1.959 . S
N139 Cu138 1.999 . S
N139 C141 1.263 . S
N139 C143 1.389 . S
N140 C141 1.358 . S
N140 C142 1.400 . S
C141 N139 1.263 . S
C141 N140 1.358 . S
C141 H147 0.930 . S
C142 N140 1.400 . S
C142 C143 1.351 . S
C142 H159 0.930 . S
C143 N139 1.389 . S
C143 C142 1.351 . S
C143 H148 0.930 . S
O144 Cu138 1.974 . S
O144 C154 1.282 . S
C145 O146 1.261 . S
C145 O158 1.251 . S
O146 C145 1.261 . S
H147 C141 0.930 . S
H148 C143 0.930 . S
N149 Cu138 1.985 . S
N149 C151 1.335 . S
N149 C152 1.390 . S
N150 C151 1.345 . S
N150 C153 1.336 . S
C151 N149 1.335 . S
C151 N150 1.345 . S
C151 H156 0.930 . S
C152 N149 1.390 . S
C152 C153 1.346 . S
C152 H157 0.930 . S
C153 N150 1.336 . S
C153 C152 1.346 . S
C153 H160 0.929 . S
C154 O144 1.282 . S
C154 O155 1.216 . S
O155 C154 1.216 . S
H156 C151 0.930 . S
H157 C152 0.930 . S
O158 Cu138 1.959 . S
O158 C145 1.251 . S
H159 C142 0.930 . S
H160 C153 0.929 . S
Cu161 N162 1.999 . S
Cu161 O167 1.974 . S
Cu161 N172 1.985 . S
Cu161 O181 1.959 . S
N162 Cu161 1.999 . S
N162 C164 1.263 1_556 S
N162 C166 1.389 1_556 S
N163 C164 1.358 . S
N163 C165 1.400 . S
C164 N162 1.263 1_554 S
C164 N163 1.358 . S
C164 H170 0.930 . S
C165 N163 1.400 . S
C165 C166 1.351 . S
C165 H182 0.930 . S
C166 N162 1.389 1_554 S
C166 C165 1.351 . S
C166 H171 0.930 . S
O167 Cu161 1.974 . S
O167 C177 1.282 . S
C168 O169 1.261 . S
C168 O181 1.251 . S
O169 C168 1.261 . S
H170 C164 0.930 . S
H171 C166 0.930 . S
N172 Cu161 1.985 . S
N172 C174 1.335 . S
N172 C175 1.390 . S
N173 C174 1.345 . S
N173 C176 1.336 . S
C174 N172 1.335 . S
C174 N173 1.345 . S
C174 H179 0.930 . S
C175 N172 1.390 . S
C175 C176 1.346 . S
C175 H180 0.930 . S
C176 N173 1.336 . S
C176 C175 1.346 . S
C176 H183 0.929 . S
C177 O167 1.282 . S
C177 O178 1.216 . S
O178 C177 1.216 . S
H179 C174 0.930 . S
H180 C175 0.930 . S
O181 Cu161 1.959 . S
O181 C168 1.251 . S
H182 C165 0.930 . S
H183 C176 0.929 . S
Cu184 N185 1.999 . S
Cu184 O190 1.974 . S
Cu184 N195 1.985 . S
Cu184 O204 1.959 . S
N185 Cu184 1.999 . S
N185 C187 1.263 . S
N185 C189 1.389 . S
N186 C187 1.358 . S
N186 C188 1.400 . S
C187 N185 1.263 . S
C187 N186 1.358 . S
C187 H193 0.930 . S
C188 N186 1.400 . S
C188 C189 1.351 . S
C188 H205 0.930 . S
C189 N185 1.389 . S
C189 C188 1.351 . S
C189 H194 0.930 . S
O190 Cu184 1.974 . S
O190 C200 1.282 . S
C191 O192 1.261 . S
C191 O204 1.251 . S
O192 C191 1.261 . S
H193 C187 0.930 . S
H194 C189 0.930 . S
N195 Cu184 1.985 . S
N195 C197 1.335 . S
N195 C198 1.390 . S
N196 C197 1.345 . S
N196 C199 1.336 . S
C197 N195 1.335 . S
C197 N196 1.345 . S
C197 H202 0.930 . S
C198 N195 1.390 . S
C198 C199 1.346 . S
C198 H203 0.930 . S
C199 N196 1.336 . S
C199 C198 1.346 . S
C199 H206 0.929 . S
C200 O190 1.282 . S
C200 O201 1.216 . S
O201 C200 1.216 . S
H202 C197 0.930 . S
H203 C198 0.930 . S
O204 Cu184 1.959 . S
O204 C191 1.251 . S
H205 C188 0.930 . S
H206 C199 0.929 . S
Cu207 N208 1.999 . S
Cu207 O213 1.974 . S
Cu207 N218 1.985 . S
Cu207 O227 1.959 . S
N208 Cu207 1.999 . S
N208 C210 1.263 . S
N208 C212 1.389 . S
N209 C210 1.358 . S
N209 C211 1.400 . S
C210 N208 1.263 . S
C210 N209 1.358 . S
C210 H216 0.930 . S
C211 N209 1.400 . S
C211 C212 1.351 . S
C211 H228 0.930 . S
C212 N208 1.389 . S
C212 C211 1.351 . S
C212 H217 0.930 . S
O213 Cu207 1.974 . S
O213 C223 1.282 . S
C214 O215 1.261 . S
C214 O227 1.251 . S
O215 C214 1.261 . S
H216 C210 0.930 . S
H217 C212 0.930 . S
N218 Cu207 1.985 . S
N218 C220 1.335 . S
N218 C221 1.390 . S
N219 C220 1.345 . S
N219 C222 1.336 . S
C220 N218 1.335 . S
C220 N219 1.345 . S
C220 H225 0.930 . S
C221 N218 1.390 . S
C221 C222 1.346 . S
C221 H226 0.930 . S
C222 N219 1.336 . S
C222 C221 1.346 . S
C222 H229 0.929 . S
C223 O213 1.282 . S
C223 O224 1.216 . S
O224 C223 1.216 . S
H225 C220 0.930 . S
H226 C221 0.930 . S
O227 Cu207 1.959 . S
O227 C214 1.251 . S
H228 C211 0.930 . S
H229 C222 0.929 . S
Cu230 N231 1.999 . S
Cu230 O236 1.974 . S
Cu230 N241 1.985 . S
Cu230 O250 1.959 . S
N231 Cu230 1.999 . S
N231 C233 1.263 . S
N231 C235 1.389 . S
N232 C233 1.358 . S
N232 C234 1.400 . S
C233 N231 1.263 . S
C233 N232 1.358 . S
C233 H239 0.930 . S
C234 N232 1.400 . S
C234 C235 1.351 . S
C234 H251 0.930 . S
C235 N231 1.389 . S
C235 C234 1.351 . S
C235 H240 0.930 . S
O236 Cu230 1.974 . S
O236 C246 1.282 . S
C237 O238 1.261 . S
C237 O250 1.251 . S
O238 C237 1.261 . S
H239 C233 0.930 . S
H240 C235 0.930 . S
N241 Cu230 1.985 . S
N241 C243 1.335 . S
N241 C244 1.390 . S
N242 C243 1.345 . S
N242 C245 1.336 . S
C243 N241 1.335 . S
C243 N242 1.345 . S
C243 H248 0.930 . S
C244 N241 1.390 . S
C244 C245 1.346 . S
C244 H249 0.930 . S
C245 N242 1.336 . S
C245 C244 1.346 . S
C245 H252 0.929 . S
C246 O236 1.282 . S
C246 O247 1.216 . S
O247 C246 1.216 . S
H248 C243 0.930 . S
H249 C244 0.930 . S
O250 Cu230 1.959 . S
O250 C237 1.251 . S
H251 C234 0.930 . S
H252 C245 0.929 . S
Cu253 N254 1.999 . S
Cu253 O259 1.974 . S
Cu253 N264 1.985 . S
Cu253 O273 1.959 . S
N254 Cu253 1.999 . S
N254 C256 1.263 . S
N254 C258 1.389 . S
N255 C256 1.358 . S
N255 C257 1.400 . S
C256 N254 1.263 . S
C256 N255 1.358 . S
C256 H262 0.930 . S
C257 N255 1.400 . S
C257 C258 1.351 . S
C257 H274 0.930 . S
C258 N254 1.389 . S
C258 C257 1.351 . S
C258 H263 0.930 . S
O259 Cu253 1.974 . S
O259 C269 1.282 . S
C260 O261 1.261 . S
C260 O273 1.251 1_554 S
O261 C260 1.261 . S
H262 C256 0.930 . S
H263 C258 0.930 . S
N264 Cu253 1.985 . S
N264 C266 1.335 . S
N264 C267 1.390 . S
N265 C266 1.345 . S
N265 C268 1.336 . S
C266 N264 1.335 . S
C266 N265 1.345 . S
C266 H271 0.930 . S
C267 N264 1.390 . S
C267 C268 1.346 . S
C267 H272 0.930 . S
C268 N265 1.336 . S
C268 C267 1.346 . S
C268 H275 0.929 . S
C269 O259 1.282 . S
C269 O270 1.216 . S
O270 C269 1.216 . S
H271 C266 0.930 . S
H272 C267 0.930 . S
O273 Cu253 1.959 . S
O273 C260 1.251 1_556 S
H274 C257 0.930 . S
H275 C268 0.929 . S
Cu276 N277 1.999 . S
Cu276 O282 1.974 . S
Cu276 N287 1.985 . S
Cu276 O296 1.959 . S
N277 Cu276 1.999 . S
N277 C279 1.263 . S
N277 C281 1.389 . S
N278 C279 1.358 . S
N278 C280 1.400 . S
C279 N277 1.263 . S
C279 N278 1.358 . S
C279 H285 0.930 . S
C280 N278 1.400 . S
C280 C281 1.351 . S
C280 H297 0.930 . S
C281 N277 1.389 . S
C281 C280 1.351 . S
C281 H286 0.930 . S
O282 Cu276 1.974 . S
O282 C292 1.282 . S
C283 O284 1.261 . S
C283 O296 1.251 . S
O284 C283 1.261 . S
H285 C279 0.930 . S
H286 C281 0.930 . S
N287 Cu276 1.985 . S
N287 C289 1.335 . S
N287 C290 1.390 . S
N288 C289 1.345 . S
N288 C291 1.336 . S
C289 N287 1.335 . S
C289 N288 1.345 . S
C289 H294 0.930 . S
C290 N287 1.390 . S
C290 C291 1.346 . S
C290 H295 0.930 . S
C291 N288 1.336 . S
C291 C290 1.346 . S
C291 H298 0.929 . S
C292 O282 1.282 . S
C292 O293 1.216 . S
O293 C292 1.216 . S
H294 C289 0.930 . S
H295 C290 0.930 . S
O296 Cu276 1.959 . S
O296 C283 1.251 . S
H297 C280 0.930 . S
H298 C291 0.929 . S
Cu299 N300 1.999 . S
Cu299 O305 1.974 . S
Cu299 N310 1.985 . S
Cu299 O319 1.959 . S
N300 Cu299 1.999 . S
N300 C302 1.263 . S
N300 C304 1.389 . S
N301 C302 1.358 . S
N301 C303 1.400 . S
C302 N300 1.263 . S
C302 N301 1.358 . S
C302 H308 0.930 . S
C303 N301 1.400 . S
C303 C304 1.351 . S
C303 H320 0.930 . S
C304 N300 1.389 . S
C304 C303 1.351 . S
C304 H309 0.930 . S
O305 Cu299 1.974 . S
O305 C315 1.282 . S
C306 O307 1.261 . S
C306 O319 1.251 . S
O307 C306 1.261 . S
H308 C302 0.930 . S
H309 C304 0.930 . S
N310 Cu299 1.985 . S
N310 C312 1.335 . S
N310 C313 1.390 . S
N311 C312 1.345 . S
N311 C314 1.336 . S
C312 N310 1.335 . S
C312 N311 1.345 . S
C312 H317 0.930 . S
C313 N310 1.390 . S
C313 C314 1.346 . S
C313 H318 0.930 . S
C314 N311 1.336 . S
C314 C313 1.346 . S
C314 H321 0.929 . S
C315 O305 1.282 . S
C315 O316 1.216 . S
O316 C315 1.216 . S
H317 C312 0.930 . S
H318 C313 0.930 . S
O319 Cu299 1.959 . S
O319 C306 1.251 . S
H320 C303 0.930 . S
H321 C314 0.929 . S
Cu322 N323 1.999 . S
Cu322 O328 1.974 . S
Cu322 N333 1.985 . S
Cu322 O342 1.959 . S
N323 Cu322 1.999 . S
N323 C325 1.263 . S
N323 C327 1.389 . S
N324 C325 1.358 . S
N324 C326 1.400 . S
C325 N323 1.263 . S
C325 N324 1.358 . S
C325 H331 0.930 . S
C326 N324 1.400 . S
C326 C327 1.351 . S
C326 H343 0.930 . S
C327 N323 1.389 . S
C327 C326 1.351 . S
C327 H332 0.930 . S
O328 Cu322 1.974 . S
O328 C338 1.282 . S
C329 O330 1.261 . S
C329 O342 1.251 . S
O330 C329 1.261 . S
H331 C325 0.930 . S
H332 C327 0.930 . S
N333 Cu322 1.985 . S
N333 C335 1.335 . S
N333 C336 1.390 . S
N334 C335 1.345 . S
N334 C337 1.336 . S
C335 N333 1.335 . S
C335 N334 1.345 . S
C335 H340 0.930 . S
C336 N333 1.390 . S
C336 C337 1.346 . S
C336 H341 0.930 . S
C337 N334 1.336 . S
C337 C336 1.346 . S
C337 H344 0.929 . S
C338 O328 1.282 . S
C338 O339 1.216 . S
O339 C338 1.216 . S
H340 C335 0.930 . S
H341 C336 0.930 . S
O342 Cu322 1.959 . S
O342 C329 1.251 . S
H343 C326 0.930 . S
H344 C337 0.929 . S
Cu345 N346 1.999 . S
Cu345 O351 1.974 . S
Cu345 N356 1.985 . S
Cu345 O365 1.959 . S
N346 Cu345 1.999 . S
N346 C348 1.263 . S
N346 C350 1.389 . S
N347 C348 1.358 . S
N347 C349 1.400 . S
C348 N346 1.263 . S
C348 N347 1.358 . S
C348 H354 0.930 . S
C349 N347 1.400 . S
C349 C350 1.351 . S
C349 H366 0.930 . S
C350 N346 1.389 . S
C350 C349 1.351 . S
C350 H355 0.930 . S
O351 Cu345 1.974 . S
O351 C361 1.282 . S
C352 O353 1.261 . S
C352 O365 1.251 1_556 S
O353 C352 1.261 . S
H354 C348 0.930 . S
H355 C350 0.930 . S
N356 Cu345 1.985 . S
N356 C358 1.335 . S
N356 C359 1.390 . S
N357 C358 1.345 . S
N357 C360 1.336 . S
C358 N356 1.335 . S
C358 N357 1.345 . S
C358 H363 0.930 . S
C359 N356 1.390 . S
C359 C360 1.346 . S
C359 H364 0.930 . S
C360 N357 1.336 . S
C360 C359 1.346 . S
C360 H367 0.929 . S
C361 O351 1.282 . S
C361 O362 1.216 . S
O362 C361 1.216 . S
H363 C358 0.930 . S
H364 C359 0.930 . S
O365 Cu345 1.959 . S
O365 C352 1.251 1_554 S
H366 C349 0.930 . S
H367 C360 0.929 . S
Cu368 N369 1.999 . S
Cu368 O374 1.974 . S
Cu368 N379 1.985 . S
Cu368 O388 1.959 . S
N369 Cu368 1.999 . S
N369 C371 1.263 . S
N369 C373 1.389 . S
N370 C371 1.358 . S
N370 C372 1.400 . S
C371 N369 1.263 . S
C371 N370 1.358 . S
C371 H377 0.930 . S
C372 N370 1.400 . S
C372 C373 1.351 . S
C372 H389 0.930 . S
C373 N369 1.389 . S
C373 C372 1.351 . S
C373 H378 0.930 . S
O374 Cu368 1.974 . S
O374 C384 1.282 . S
C375 O376 1.261 . S
C375 O388 1.251 . S
O376 C375 1.261 . S
H377 C371 0.930 . S
H378 C373 0.930 . S
N379 Cu368 1.985 . S
N379 C381 1.335 . S
N379 C382 1.390 . S
N380 C381 1.345 . S
N380 C383 1.336 . S
C381 N379 1.335 . S
C381 N380 1.345 . S
C381 H386 0.930 . S
C382 N379 1.390 . S
C382 C383 1.346 . S
C382 H387 0.930 . S
C383 N380 1.336 . S
C383 C382 1.346 . S
C383 H390 0.929 . S
C384 O374 1.282 . S
C384 O385 1.216 . S
O385 C384 1.216 . S
H386 C381 0.930 . S
H387 C382 0.930 . S
O388 Cu368 1.959 . S
O388 C375 1.251 . S
H389 C372 0.930 . S
H390 C383 0.929 . S
Cu391 N392 1.999 . S
Cu391 O397 1.974 . S
Cu391 N402 1.985 . S
Cu391 O411 1.959 . S
N392 Cu391 1.999 . S
N392 C394 1.263 1_554 S
N392 C396 1.389 1_554 S
N393 C394 1.358 . S
N393 C395 1.400 . S
C394 N392 1.263 1_556 S
C394 N393 1.358 . S
C394 H400 0.930 . S
C395 N393 1.400 . S
C395 C396 1.351 . S
C395 H412 0.930 . S
C396 N392 1.389 1_556 S
C396 C395 1.351 . S
C396 H401 0.930 . S
O397 Cu391 1.974 . S
O397 C407 1.282 . S
C398 O399 1.261 . S
C398 O411 1.251 . S
O399 C398 1.261 . S
H400 C394 0.930 . S
H401 C396 0.930 . S
N402 Cu391 1.985 . S
N402 C404 1.335 . S
N402 C405 1.390 . S
N403 C404 1.345 . S
N403 C406 1.336 . S
C404 N402 1.335 . S
C404 N403 1.345 . S
C404 H409 0.930 . S
C405 N402 1.390 . S
C405 C406 1.346 . S
C405 H410 0.930 . S
C406 N403 1.336 . S
C406 C405 1.346 . S
C406 H413 0.929 . S
C407 O397 1.282 . S
C407 O408 1.216 . S
O408 C407 1.216 . S
H409 C404 0.930 . S
H410 C405 0.930 . S
O411 Cu391 1.959 . S
O411 C398 1.251 . S
H412 C395 0.930 . S
H413 C406 0.929 . S
Cu414 N415 1.999 . S
Cu414 O420 1.974 . S
Cu414 N425 1.985 . S
Cu414 O434 1.959 . S
N415 Cu414 1.999 . S
N415 C417 1.263 . S
N415 C419 1.389 . S
N416 C417 1.358 . S
N416 C418 1.400 . S
C417 N415 1.263 . S
C417 N416 1.358 . S
C417 H423 0.930 . S
C418 N416 1.400 . S
C418 C419 1.351 . S
C418 H435 0.930 . S
C419 N415 1.389 . S
C419 C418 1.351 . S
C419 H424 0.930 . S
O420 Cu414 1.974 . S
O420 C430 1.282 . S
C421 O422 1.261 . S
C421 O434 1.251 . S
O422 C421 1.261 . S
H423 C417 0.930 . S
H424 C419 0.930 . S
N425 Cu414 1.985 . S
N425 C427 1.335 . S
N425 C428 1.390 . S
N426 C427 1.345 . S
N426 C429 1.336 . S
C427 N425 1.335 . S
C427 N426 1.345 . S
C427 H432 0.930 . S
C428 N425 1.390 . S
C428 C429 1.346 . S
C428 H433 0.930 . S
C429 N426 1.336 . S
C429 C428 1.346 . S
C429 H436 0.929 . S
C430 O420 1.282 . S
C430 O431 1.216 . S
O431 C430 1.216 . S
H432 C427 0.930 . S
H433 C428 0.930 . S
O434 Cu414 1.959 . S
O434 C421 1.251 . S
H435 C418 0.930 . S
H436 C429 0.929 . S
Cu437 N438 1.999 . S
Cu437 O443 1.974 . S
Cu437 N448 1.985 . S
Cu437 O457 1.959 . S
N438 Cu437 1.999 . S
N438 C440 1.263 . S
N438 C442 1.389 . S
N439 C440 1.358 . S
N439 C441 1.400 . S
C440 N438 1.263 . S
C440 N439 1.358 . S
C440 H446 0.930 . S
C441 N439 1.400 . S
C441 C442 1.351 . S
C441 H458 0.930 . S
C442 N438 1.389 . S
C442 C441 1.351 . S
C442 H447 0.930 . S
O443 Cu437 1.974 . S
O443 C453 1.282 . S
C444 O445 1.261 . S
C444 O457 1.251 . S
O445 C444 1.261 . S
H446 C440 0.930 . S
H447 C442 0.930 . S
N448 Cu437 1.985 . S
N448 C450 1.335 . S
N448 C451 1.390 . S
N449 C450 1.345 . S
N449 C452 1.336 . S
C450 N448 1.335 . S
C450 N449 1.345 . S
C450 H455 0.930 . S
C451 N448 1.390 . S
C451 C452 1.346 . S
C451 H456 0.930 . S
C452 N449 1.336 . S
C452 C451 1.346 . S
C452 H459 0.929 . S
C453 O443 1.282 . S
C453 O454 1.216 . S
O454 C453 1.216 . S
H455 C450 0.930 . S
H456 C451 0.930 . S
O457 Cu437 1.959 . S
O457 C444 1.251 . S
H458 C441 0.930 . S
H459 C452 0.929 . S
Cu460 N461 1.999 . S
Cu460 O466 1.974 . S
Cu460 N471 1.985 . S
Cu460 O480 1.959 . S
N461 Cu460 1.999 . S
N461 C463 1.263 . S
N461 C465 1.389 . S
N462 C463 1.358 . S
N462 C464 1.400 . S
C463 N461 1.263 . S
C463 N462 1.358 . S
C463 H469 0.930 . S
C464 N462 1.400 . S
C464 C465 1.351 . S
C464 H481 0.930 . S
C465 N461 1.389 . S
C465 C464 1.351 . S
C465 H470 0.930 . S
O466 Cu460 1.974 . S
O466 C476 1.282 . S
C467 O468 1.261 . S
C467 O480 1.251 . S
O468 C467 1.261 . S
H469 C463 0.930 . S
H470 C465 0.930 . S
N471 Cu460 1.985 . S
N471 C473 1.335 . S
N471 C474 1.390 . S
N472 C473 1.345 . S
N472 C475 1.336 . S
C473 N471 1.335 . S
C473 N472 1.345 . S
C473 H478 0.930 . S
C474 N471 1.390 . S
C474 C475 1.346 . S
C474 H479 0.930 . S
C475 N472 1.336 . S
C475 C474 1.346 . S
C475 H482 0.929 . S
C476 O466 1.282 . S
C476 O477 1.216 . S
O477 C476 1.216 . S
H478 C473 0.930 . S
H479 C474 0.930 . S
O480 Cu460 1.959 . S
O480 C467 1.251 . S
H481 C464 0.930 . S
H482 C475 0.929 . S
Cu483 N484 1.999 . S
Cu483 O489 1.974 . S
Cu483 N494 1.985 . S
Cu483 O503 1.959 . S
N484 Cu483 1.999 . S
N484 C486 1.263 1_556 S
N484 C488 1.389 1_556 S
N485 C486 1.358 . S
N485 C487 1.400 . S
C486 N484 1.263 1_554 S
C486 N485 1.358 . S
C486 H492 0.930 . S
C487 N485 1.400 . S
C487 C488 1.351 . S
C487 H504 0.930 . S
C488 N484 1.389 1_554 S
C488 C487 1.351 . S
C488 H493 0.930 . S
O489 Cu483 1.974 . S
O489 C499 1.282 . S
C490 O491 1.261 . S
C490 O503 1.251 . S
O491 C490 1.261 . S
H492 C486 0.930 . S
H493 C488 0.930 . S
N494 Cu483 1.985 . S
N494 C496 1.335 . S
N494 C497 1.390 . S
N495 C496 1.345 . S
N495 C498 1.336 . S
C496 N494 1.335 . S
C496 N495 1.345 . S
C496 H501 0.930 . S
C497 N494 1.390 . S
C497 C498 1.346 . S
C497 H502 0.930 . S
C498 N495 1.336 . S
C498 C497 1.346 . S
C498 H505 0.929 . S
C499 O489 1.282 . S
C499 O500 1.216 . S
O500 C499 1.216 . S
H501 C496 0.930 . S
H502 C497 0.930 . S
O503 Cu483 1.959 . S
O503 C490 1.251 . S
H504 C487 0.930 . S
H505 C498 0.929 . S
Cu506 N507 1.999 . S
Cu506 O512 1.974 . S
Cu506 N517 1.985 . S
Cu506 O526 1.959 . S
N507 Cu506 1.999 . S
N507 C509 1.263 . S
N507 C511 1.389 . S
N508 C509 1.358 . S
N508 C510 1.400 . S
C509 N507 1.263 . S
C509 N508 1.358 . S
C509 H515 0.930 . S
C510 N508 1.400 . S
C510 C511 1.351 . S
C510 H527 0.930 . S
C511 N507 1.389 . S
C511 C510 1.351 . S
C511 H516 0.930 . S
O512 Cu506 1.974 . S
O512 C522 1.282 . S
C513 O514 1.261 . S
C513 O526 1.251 . S
O514 C513 1.261 . S
H515 C509 0.930 . S
H516 C511 0.930 . S
N517 Cu506 1.985 . S
N517 C519 1.335 . S
N517 C520 1.390 . S
N518 C519 1.345 . S
N518 C521 1.336 . S
C519 N517 1.335 . S
C519 N518 1.345 . S
C519 H524 0.930 . S
C520 N517 1.390 . S
C520 C521 1.346 . S
C520 H525 0.930 . S
C521 N518 1.336 . S
C521 C520 1.346 . S
C521 H528 0.929 . S
C522 O512 1.282 . S
C522 O523 1.216 . S
O523 C522 1.216 . S
H524 C519 0.930 . S
H525 C520 0.930 . S
O526 Cu506 1.959 . S
O526 C513 1.251 . S
H527 C510 0.930 . S
H528 C521 0.929 . S
Cu529 N530 1.999 . S
Cu529 O535 1.974 . S
Cu529 N540 1.985 . S
Cu529 O549 1.959 . S
N530 Cu529 1.999 . S
N530 C532 1.263 . S
N530 C534 1.389 . S
N531 C532 1.358 . S
N531 C533 1.400 . S
C532 N530 1.263 . S
C532 N531 1.358 . S
C532 H538 0.930 . S
C533 N531 1.400 . S
C533 C534 1.351 . S
C533 H550 0.930 . S
C534 N530 1.389 . S
C534 C533 1.351 . S
C534 H539 0.930 . S
O535 Cu529 1.974 . S
O535 C545 1.282 . S
C536 O537 1.261 . S
C536 O549 1.251 . S
O537 C536 1.261 . S
H538 C532 0.930 . S
H539 C534 0.930 . S
N540 Cu529 1.985 . S
N540 C542 1.335 . S
N540 C543 1.390 . S
N541 C542 1.345 . S
N541 C544 1.336 . S
C542 N540 1.335 . S
C542 N541 1.345 . S
C542 H547 0.930 . S
C543 N540 1.390 . S
C543 C544 1.346 . S
C543 H548 0.930 . S
C544 N541 1.336 . S
C544 C543 1.346 . S
C544 H551 0.929 . S
C545 O535 1.282 . S
C545 O546 1.216 . S
O546 C545 1.216 . S
H547 C542 0.930 . S
H548 C543 0.930 . S
O549 Cu529 1.959 . S
O549 C536 1.251 . S
H550 C533 0.930 . S
H551 C544 0.929 . S
Cu552 N553 1.999 . S
Cu552 O558 1.974 . S
Cu552 N563 1.985 . S
Cu552 O572 1.959 . S
N553 Cu552 1.999 . S
N553 C555 1.263 . S
N553 C557 1.389 . S
N554 C555 1.358 . S
N554 C556 1.400 . S
C555 N553 1.263 . S
C555 N554 1.358 . S
C555 H561 0.930 . S
C556 N554 1.400 . S
C556 C557 1.351 . S
C556 H573 0.930 . S
C557 N553 1.389 . S
C557 C556 1.351 . S
C557 H562 0.930 . S
O558 Cu552 1.974 . S
O558 C568 1.282 . S
C559 O560 1.261 . S
C559 O572 1.251 . S
O560 C559 1.261 . S
H561 C555 0.930 . S
H562 C557 0.930 . S
N563 Cu552 1.985 . S
N563 C565 1.335 . S
N563 C566 1.390 . S
N564 C565 1.345 . S
N564 C567 1.336 . S
C565 N563 1.335 . S
C565 N564 1.345 . S
C565 H570 0.930 . S
C566 N563 1.390 . S
C566 C567 1.346 . S
C566 H571 0.930 . S
C567 N564 1.336 . S
C567 C566 1.346 . S
C567 H574 0.929 . S
C568 O558 1.282 . S
C568 O569 1.216 . S
O569 C568 1.216 . S
H570 C565 0.930 . S
H571 C566 0.930 . S
O572 Cu552 1.959 . S
O572 C559 1.251 . S
H573 C556 0.930 . S
H574 C567 0.929 . S
Cu575 N576 1.999 . S
Cu575 O581 1.974 . S
Cu575 N586 1.985 . S
Cu575 O595 1.959 . S
N576 Cu575 1.999 . S
N576 C578 1.263 . S
N576 C580 1.389 . S
N577 C578 1.358 . S
N577 C579 1.400 . S
C578 N576 1.263 . S
C578 N577 1.358 . S
C578 H584 0.930 . S
C579 N577 1.400 . S
C579 C580 1.351 . S
C579 H596 0.930 . S
C580 N576 1.389 . S
C580 C579 1.351 . S
C580 H585 0.930 . S
O581 Cu575 1.974 . S
O581 C591 1.282 . S
C582 O583 1.261 . S
C582 O595 1.251 1_554 S
O583 C582 1.261 . S
H584 C578 0.930 . S
H585 C580 0.930 . S
N586 Cu575 1.985 . S
N586 C588 1.335 . S
N586 C589 1.390 . S
N587 C588 1.345 . S
N587 C590 1.336 . S
C588 N586 1.335 . S
C588 N587 1.345 . S
C588 H593 0.930 . S
C589 N586 1.390 . S
C589 C590 1.346 . S
C589 H594 0.930 . S
C590 N587 1.336 . S
C590 C589 1.346 . S
C590 H597 0.929 . S
C591 O581 1.282 . S
C591 O592 1.216 . S
O592 C591 1.216 . S
H593 C588 0.930 . S
H594 C589 0.930 . S
O595 Cu575 1.959 . S
O595 C582 1.251 1_556 S
H596 C579 0.930 . S
H597 C590 0.929 . S
Cu598 N599 1.999 . S
Cu598 O604 1.974 . S
Cu598 N609 1.985 . S
Cu598 O618 1.959 . S
N599 Cu598 1.999 . S
N599 C601 1.263 . S
N599 C603 1.389 . S
N600 C601 1.358 . S
N600 C602 1.400 . S
C601 N599 1.263 . S
C601 N600 1.358 . S
C601 H607 0.930 . S
C602 N600 1.400 . S
C602 C603 1.351 . S
C602 H619 0.930 . S
C603 N599 1.389 . S
C603 C602 1.351 . S
C603 H608 0.930 . S
O604 Cu598 1.974 . S
O604 C614 1.282 . S
C605 O606 1.261 . S
C605 O618 1.251 . S
O606 C605 1.261 . S
H607 C601 0.930 . S
H608 C603 0.930 . S
N609 Cu598 1.985 . S
N609 C611 1.335 . S
N609 C612 1.390 . S
N610 C611 1.345 . S
N610 C613 1.336 . S
C611 N609 1.335 . S
C611 N610 1.345 . S
C611 H616 0.930 . S
C612 N609 1.390 . S
C612 C613 1.346 . S
C612 H617 0.930 . S
C613 N610 1.336 . S
C613 C612 1.346 . S
C613 H620 0.929 . S
C614 O604 1.282 . S
C614 O615 1.216 . S
O615 C614 1.216 . S
H616 C611 0.930 . S
H617 C612 0.930 . S
O618 Cu598 1.959 . S
O618 C605 1.251 . S
H619 C602 0.930 . S
H620 C613 0.929 . S
Cu621 N622 1.999 . S
Cu621 O627 1.974 . S
Cu621 N632 1.985 . S
Cu621 O641 1.959 . S
N622 Cu621 1.999 . S
N622 C624 1.263 . S
N622 C626 1.389 . S
N623 C624 1.358 . S
N623 C625 1.400 . S
C624 N622 1.263 . S
C624 N623 1.358 . S
C624 H630 0.930 . S
C625 N623 1.400 . S
C625 C626 1.351 . S
C625 H642 0.930 . S
C626 N622 1.389 . S
C626 C625 1.351 . S
C626 H631 0.930 . S
O627 Cu621 1.974 . S
O627 C637 1.282 . S
C628 O629 1.261 . S
C628 O641 1.251 . S
O629 C628 1.261 . S
H630 C624 0.930 . S
H631 C626 0.930 . S
N632 Cu621 1.985 . S
N632 C634 1.335 . S
N632 C635 1.390 . S
N633 C634 1.345 . S
N633 C636 1.336 . S
C634 N632 1.335 . S
C634 N633 1.345 . S
C634 H639 0.930 . S
C635 N632 1.390 . S
C635 C636 1.346 . S
C635 H640 0.930 . S
C636 N633 1.336 . S
C636 C635 1.346 . S
C636 H643 0.929 . S
C637 O627 1.282 . S
C637 O638 1.216 . S
O638 C637 1.216 . S
H639 C634 0.930 . S
H640 C635 0.930 . S
O641 Cu621 1.959 . S
O641 C628 1.251 . S
H642 C625 0.930 . S
H643 C636 0.929 . S
Cu644 N645 1.999 . S
Cu644 O650 1.974 . S
Cu644 N655 1.985 . S
Cu644 O664 1.959 . S
N645 Cu644 1.999 . S
N645 C647 1.263 . S
N645 C649 1.389 . S
N646 C647 1.358 . S
N646 C648 1.400 . S
C647 N645 1.263 . S
C647 N646 1.358 . S
C647 H653 0.930 . S
C648 N646 1.400 . S
C648 C649 1.351 . S
C648 H665 0.930 . S
C649 N645 1.389 . S
C649 C648 1.351 . S
C649 H654 0.930 . S
O650 Cu644 1.974 . S
O650 C660 1.282 . S
C651 O652 1.261 . S
C651 O664 1.251 . S
O652 C651 1.261 . S
H653 C647 0.930 . S
H654 C649 0.930 . S
N655 Cu644 1.985 . S
N655 C657 1.335 . S
N655 C658 1.390 . S
N656 C657 1.345 . S
N656 C659 1.336 . S
C657 N655 1.335 . S
C657 N656 1.345 . S
C657 H662 0.930 . S
C658 N655 1.390 . S
C658 C659 1.346 . S
C658 H663 0.930 . S
C659 N656 1.336 . S
C659 C658 1.346 . S
C659 H666 0.929 . S
C660 O650 1.282 . S
C660 O661 1.216 . S
O661 C660 1.216 . S
H662 C657 0.930 . S
H663 C658 0.930 . S
O664 Cu644 1.959 . S
O664 C651 1.251 . S
H665 C648 0.930 . S
H666 C659 0.929 . S
Cu667 N668 1.999 . S
Cu667 O673 1.974 . S
Cu667 N678 1.985 . S
Cu667 O687 1.959 . S
N668 Cu667 1.999 . S
N668 C670 1.263 . S
N668 C672 1.389 . S
N669 C670 1.358 . S
N669 C671 1.400 . S
C670 N668 1.263 . S
C670 N669 1.358 . S
C670 H676 0.930 . S
C671 N669 1.400 . S
C671 C672 1.351 . S
C671 H688 0.930 . S
C672 N668 1.389 . S
C672 C671 1.351 . S
C672 H677 0.930 . S
O673 Cu667 1.974 . S
O673 C683 1.282 . S
C674 O675 1.261 . S
C674 O687 1.251 1_556 S
O675 C674 1.261 . S
H676 C670 0.930 . S
H677 C672 0.930 . S
N678 Cu667 1.985 . S
N678 C680 1.335 . S
N678 C681 1.390 . S
N679 C680 1.345 . S
N679 C682 1.336 . S
C680 N678 1.335 . S
C680 N679 1.345 . S
C680 H685 0.930 . S
C681 N678 1.390 . S
C681 C682 1.346 . S
C681 H686 0.930 . S
C682 N679 1.336 . S
C682 C681 1.346 . S
C682 H689 0.929 . S
C683 O673 1.282 . S
C683 O684 1.216 . S
O684 C683 1.216 . S
H685 C680 0.930 . S
H686 C681 0.930 . S
O687 Cu667 1.959 . S
O687 C674 1.251 1_554 S
H688 C671 0.930 . S
H689 C682 0.929 . S
Cu690 N691 1.999 . S
Cu690 O696 1.974 . S
Cu690 N701 1.985 . S
Cu690 O710 1.959 . S
N691 Cu690 1.999 . S
N691 C693 1.263 . S
N691 C695 1.389 . S
N692 C693 1.358 . S
N692 C694 1.400 . S
C693 N691 1.263 . S
C693 N692 1.358 . S
C693 H699 0.930 . S
C694 N692 1.400 . S
C694 C695 1.351 . S
C694 H711 0.930 . S
C695 N691 1.389 . S
C695 C694 1.351 . S
C695 H700 0.930 . S
O696 Cu690 1.974 . S
O696 C706 1.282 . S
C697 O698 1.261 . S
C697 O710 1.251 . S
O698 C697 1.261 . S
H699 C693 0.930 . S
H700 C695 0.930 . S
N701 Cu690 1.985 . S
N701 C703 1.335 . S
N701 C704 1.390 . S
N702 C703 1.345 . S
N702 C705 1.336 . S
C703 N701 1.335 . S
C703 N702 1.345 . S
C703 H708 0.930 . S
C704 N701 1.390 . S
C704 C705 1.346 . S
C704 H709 0.930 . S
C705 N702 1.336 . S
C705 C704 1.346 . S
C705 H712 0.929 . S
C706 O696 1.282 . S
C706 O707 1.216 . S
O707 C706 1.216 . S
H708 C703 0.930 . S
H709 C704 0.930 . S
O710 Cu690 1.959 . S
O710 C697 1.251 . S
H711 C694 0.930 . S
H712 C705 0.929 . S
Cu713 N714 1.999 . S
Cu713 O719 1.974 . S
Cu713 N724 1.985 . S
Cu713 O733 1.959 . S
N714 Cu713 1.999 . S
N714 C716 1.263 . S
N714 C718 1.389 . S
N715 C716 1.358 . S
N715 C717 1.400 . S
C716 N714 1.263 . S
C716 N715 1.358 . S
C716 H722 0.930 . S
C717 N715 1.400 . S
C717 C718 1.351 . S
C717 H734 0.930 . S
C718 N714 1.389 . S
C718 C717 1.351 . S
C718 H723 0.930 . S
O719 Cu713 1.974 . S
O719 C729 1.282 . S
C720 O721 1.261 . S
C720 O733 1.251 . S
O721 C720 1.261 . S
H722 C716 0.930 . S
H723 C718 0.930 . S
N724 Cu713 1.985 . S
N724 C726 1.335 . S
N724 C727 1.390 . S
N725 C726 1.345 . S
N725 C728 1.336 . S
C726 N724 1.335 . S
C726 N725 1.345 . S
C726 H731 0.930 . S
C727 N724 1.390 . S
C727 C728 1.346 . S
C727 H732 0.930 . S
C728 N725 1.336 . S
C728 C727 1.346 . S
C728 H735 0.929 . S
C729 O719 1.282 . S
C729 O730 1.216 . S
O730 C729 1.216 . S
H731 C726 0.930 . S
H732 C727 0.930 . S
O733 Cu713 1.959 . S
O733 C720 1.251 . S
H734 C717 0.930 . S
H735 C728 0.929 . S
C736 C737 1.391 . S
C736 C738 1.394 . S
C736 H752 0.931 . S
C737 C736 1.391 . S
C737 C741 1.376 . S
C738 C736 1.394 . S
C738 C739 1.369 . S
C738 C742 1.531 . S
C739 C738 1.369 . S
C739 C740 1.410 . S
C739 C747 1.503 . S
C740 C739 1.410 . S
C740 C741 1.392 . S
C740 C743 1.511 . S
C741 C737 1.376 . S
C741 C740 1.392 . S
C741 H753 0.929 . S
C742 C738 1.531 . S
C742 H754 0.960 . S
C742 H755 0.962 . S
C742 H756 0.960 . S
C743 C740 1.511 . S
C743 H757 0.961 . S
C743 H758 0.961 . S
C743 H759 0.961 . S
C744 C745 1.370 . S
C744 C746 1.363 . S
C744 H760 0.931 . S
C745 C744 1.370 . S
C745 C749 1.408 . S
C746 C744 1.363 . S
C746 C747 1.370 . S
C746 C750 1.524 . S
C747 C739 1.503 . S
C747 C746 1.370 . S
C747 C748 1.403 . S
C748 C747 1.403 . S
C748 C749 1.404 . S
C748 C751 1.539 . S
C749 C745 1.408 . S
C749 C748 1.404 . S
C749 H761 0.930 . S
C750 C746 1.524 . S
C750 H762 0.956 . S
C750 H763 0.961 . S
C750 H764 0.961 . S
C751 C748 1.539 . S
C751 H765 0.958 . S
C751 H766 0.961 . S
C751 H767 0.960 . S
H752 C736 0.931 . S
H753 C741 0.929 . S
H754 C742 0.960 . S
H755 C742 0.962 . S
H756 C742 0.960 . S
H757 C743 0.961 . S
H758 C743 0.961 . S
H759 C743 0.961 . S
H760 C744 0.931 . S
H761 C749 0.930 . S
H762 C750 0.956 . S
H763 C750 0.961 . S
H764 C750 0.961 . S
H765 C751 0.958 . S
H766 C751 0.961 . S
H767 C751 0.960 . S
C768 C769 1.391 . S
C768 C770 1.394 . S
C768 H784 0.931 . S
C769 C768 1.391 . S
C769 C773 1.376 . S
C770 C768 1.394 . S
C770 C771 1.369 . S
C770 C774 1.531 . S
C771 C770 1.369 . S
C771 C772 1.410 . S
C771 C779 1.503 . S
C772 C771 1.410 . S
C772 C773 1.392 . S
C772 C775 1.511 . S
C773 C769 1.376 . S
C773 C772 1.392 . S
C773 H785 0.929 . S
C774 C770 1.531 . S
C774 H786 0.960 . S
C774 H787 0.962 . S
C774 H788 0.960 . S
C775 C772 1.511 . S
C775 H789 0.961 . S
C775 H790 0.961 . S
C775 H791 0.961 . S
C776 C777 1.370 . S
C776 C778 1.363 . S
C776 H792 0.931 . S
C777 C776 1.370 . S
C777 C781 1.408 . S
C778 C776 1.363 . S
C778 C779 1.370 . S
C778 C782 1.524 . S
C779 C771 1.503 . S
C779 C778 1.370 . S
C779 C780 1.403 . S
C780 C779 1.403 . S
C780 C781 1.404 . S
C780 C783 1.539 . S
C781 C777 1.408 . S
C781 C780 1.404 . S
C781 H793 0.930 . S
C782 C778 1.524 . S
C782 H794 0.956 . S
C782 H795 0.961 . S
C782 H796 0.961 . S
C783 C780 1.539 . S
C783 H797 0.958 . S
C783 H798 0.961 . S
C783 H799 0.960 . S
H784 C768 0.931 . S
H785 C773 0.929 . S
H786 C774 0.960 . S
H787 C774 0.962 . S
H788 C774 0.960 . S
H789 C775 0.961 . S
H790 C775 0.961 . S
H791 C775 0.961 . S
H792 C776 0.931 . S
H793 C781 0.930 . S
H794 C782 0.956 . S
H795 C782 0.961 . S
H796 C782 0.961 . S
H797 C783 0.958 . S
H798 C783 0.961 . S
H799 C783 0.960 . S
C800 C801 1.391 . S
C800 C802 1.394 . S
C800 H816 0.931 . S
C801 C800 1.391 . S
C801 C805 1.376 . S
C802 C800 1.394 . S
C802 C803 1.369 . S
C802 C806 1.531 . S
C803 C802 1.369 . S
C803 C804 1.410 . S
C803 C811 1.503 . S
C804 C803 1.410 . S
C804 C805 1.392 . S
C804 C807 1.511 . S
C805 C801 1.376 . S
C805 C804 1.392 . S
C805 H817 0.929 . S
C806 C802 1.531 . S
C806 H818 0.960 . S
C806 H819 0.962 . S
C806 H820 0.960 . S
C807 C804 1.511 . S
C807 H821 0.961 . S
C807 H822 0.961 . S
C807 H823 0.961 . S
C808 C809 1.370 . S
C808 C810 1.363 . S
C808 H824 0.931 . S
C809 C808 1.370 . S
C809 C813 1.408 . S
C810 C808 1.363 . S
C810 C811 1.370 . S
C810 C814 1.524 . S
C811 C803 1.503 . S
C811 C810 1.370 . S
C811 C812 1.403 . S
C812 C811 1.403 . S
C812 C813 1.404 . S
C812 C815 1.539 . S
C813 C809 1.408 . S
C813 C812 1.404 . S
C813 H825 0.930 . S
C814 C810 1.524 . S
C814 H826 0.956 . S
C814 H827 0.961 . S
C814 H828 0.961 . S
C815 C812 1.539 . S
C815 H829 0.958 . S
C815 H830 0.961 . S
C815 H831 0.960 . S
H816 C800 0.931 . S
H817 C805 0.929 . S
H818 C806 0.960 . S
H819 C806 0.962 . S
H820 C806 0.960 . S
H821 C807 0.961 . S
H822 C807 0.961 . S
H823 C807 0.961 . S
H824 C808 0.931 . S
H825 C813 0.930 . S
H826 C814 0.956 . S
H827 C814 0.961 . S
H828 C814 0.961 . S
H829 C815 0.958 . S
H830 C815 0.961 . S
H831 C815 0.960 . S
C832 C833 1.391 . S
C832 C834 1.394 . S
C832 H848 0.931 . S
C833 C832 1.391 . S
C833 C837 1.376 . S
C834 C832 1.394 . S
C834 C835 1.369 . S
C834 C838 1.531 . S
C835 C834 1.369 . S
C835 C836 1.410 . S
C835 C843 1.503 . S
C836 C835 1.410 . S
C836 C837 1.392 . S
C836 C839 1.511 . S
C837 C833 1.376 . S
C837 C836 1.392 . S
C837 H849 0.929 . S
C838 C834 1.531 . S
C838 H850 0.960 . S
C838 H851 0.962 . S
C838 H852 0.960 . S
C839 C836 1.511 . S
C839 H853 0.961 . S
C839 H854 0.961 . S
C839 H855 0.961 . S
C840 C841 1.370 . S
C840 C842 1.363 . S
C840 H856 0.931 . S
C841 C840 1.370 . S
C841 C845 1.408 . S
C842 C840 1.363 . S
C842 C843 1.370 . S
C842 C846 1.524 . S
C843 C835 1.503 . S
C843 C842 1.370 . S
C843 C844 1.403 . S
C844 C843 1.403 . S
C844 C845 1.404 . S
C844 C847 1.539 . S
C845 C841 1.408 . S
C845 C844 1.404 . S
C845 H857 0.930 . S
C846 C842 1.524 . S
C846 H858 0.956 . S
C846 H859 0.961 . S
C846 H860 0.961 . S
C847 C844 1.539 . S
C847 H861 0.958 . S
C847 H862 0.961 . S
C847 H863 0.960 . S
H848 C832 0.931 . S
H849 C837 0.929 . S
H850 C838 0.960 . S
H851 C838 0.962 . S
H852 C838 0.960 . S
H853 C839 0.961 . S
H854 C839 0.961 . S
H855 C839 0.961 . S
H856 C840 0.931 . S
H857 C845 0.930 . S
H858 C846 0.956 . S
H859 C846 0.961 . S
H860 C846 0.961 . S
H861 C847 0.958 . S
H862 C847 0.961 . S
H863 C847 0.960 . S
C864 C865 1.391 . S
C864 C866 1.394 . S
C864 H880 0.931 . S
C865 C864 1.391 . S
C865 C869 1.376 . S
C866 C864 1.394 . S
C866 C867 1.369 . S
C866 C870 1.531 . S
C867 C866 1.369 . S
C867 C868 1.410 . S
C867 C875 1.503 . S
C868 C867 1.410 . S
C868 C869 1.392 . S
C868 C871 1.511 . S
C869 C865 1.376 . S
C869 C868 1.392 . S
C869 H881 0.929 . S
C870 C866 1.531 . S
C870 H882 0.960 . S
C870 H883 0.962 . S
C870 H884 0.960 . S
C871 C868 1.511 . S
C871 H885 0.961 . S
C871 H886 0.961 . S
C871 H887 0.961 . S
C872 C873 1.370 . S
C872 C874 1.363 . S
C872 H888 0.931 . S
C873 C872 1.370 . S
C873 C877 1.408 . S
C874 C872 1.363 . S
C874 C875 1.370 . S
C874 C878 1.524 . S
C875 C867 1.503 . S
C875 C874 1.370 . S
C875 C876 1.403 . S
C876 C875 1.403 . S
C876 C877 1.404 . S
C876 C879 1.539 . S
C877 C873 1.408 . S
C877 C876 1.404 . S
C877 H889 0.930 . S
C878 C874 1.524 . S
C878 H890 0.956 . S
C878 H891 0.961 . S
C878 H892 0.961 . S
C879 C876 1.539 . S
C879 H893 0.958 . S
C879 H894 0.961 . S
C879 H895 0.960 . S
H880 C864 0.931 . S
H881 C869 0.929 . S
H882 C870 0.960 . S
H883 C870 0.962 . S
H884 C870 0.960 . S
H885 C871 0.961 . S
H886 C871 0.961 . S
H887 C871 0.961 . S
H888 C872 0.931 . S
H889 C877 0.930 . S
H890 C878 0.956 . S
H891 C878 0.961 . S
H892 C878 0.961 . S
H893 C879 0.958 . S
H894 C879 0.961 . S
H895 C879 0.960 . S
C896 C897 1.391 . S
C896 C898 1.394 . S
C896 H912 0.931 . S
C897 C896 1.391 . S
C897 C901 1.376 . S
C898 C896 1.394 . S
C898 C899 1.369 . S
C898 C902 1.531 . S
C899 C898 1.369 . S
C899 C900 1.410 . S
C899 C907 1.503 . S
C900 C899 1.410 . S
C900 C901 1.392 . S
C900 C903 1.511 . S
C901 C897 1.376 . S
C901 C900 1.392 . S
C901 H913 0.929 . S
C902 C898 1.531 . S
C902 H914 0.960 . S
C902 H915 0.962 . S
C902 H916 0.960 . S
C903 C900 1.511 . S
C903 H917 0.961 . S
C903 H918 0.961 . S
C903 H919 0.961 . S
C904 C905 1.370 . S
C904 C906 1.363 . S
C904 H920 0.931 . S
C905 C904 1.370 . S
C905 C909 1.408 . S
C906 C904 1.363 . S
C906 C907 1.370 . S
C906 C910 1.524 . S
C907 C899 1.503 . S
C907 C906 1.370 . S
C907 C908 1.403 . S
C908 C907 1.403 . S
C908 C909 1.404 . S
C908 C911 1.539 . S
C909 C905 1.408 . S
C909 C908 1.404 . S
C909 H921 0.930 . S
C910 C906 1.524 . S
C910 H922 0.956 . S
C910 H923 0.961 . S
C910 H924 0.961 . S
C911 C908 1.539 . S
C911 H925 0.958 . S
C911 H926 0.961 . S
C911 H927 0.960 . S
H912 C896 0.931 . S
H913 C901 0.929 . S
H914 C902 0.960 . S
H915 C902 0.962 . S
H916 C902 0.960 . S
H917 C903 0.961 . S
H918 C903 0.961 . S
H919 C903 0.961 . S
H920 C904 0.931 . S
H921 C909 0.930 . S
H922 C910 0.956 . S
H923 C910 0.961 . S
H924 C910 0.961 . S
H925 C911 0.958 . S
H926 C911 0.961 . S
H927 C911 0.960 . S
C928 C929 1.391 . S
C928 C930 1.394 . S
C928 H944 0.931 . S
C929 C928 1.391 . S
C929 C933 1.376 . S
C930 C928 1.394 . S
C930 C931 1.369 . S
C930 C934 1.531 . S
C931 C930 1.369 . S
C931 C932 1.410 . S
C931 C939 1.503 . S
C932 C931 1.410 . S
C932 C933 1.392 . S
C932 C935 1.511 . S
C933 C929 1.376 . S
C933 C932 1.392 . S
C933 H945 0.929 . S
C934 C930 1.531 . S
C934 H946 0.960 . S
C934 H947 0.962 . S
C934 H948 0.960 . S
C935 C932 1.511 . S
C935 H949 0.961 . S
C935 H950 0.961 . S
C935 H951 0.961 . S
C936 C937 1.370 . S
C936 C938 1.363 . S
C936 H952 0.931 . S
C937 C936 1.370 . S
C937 C941 1.408 . S
C938 C936 1.363 . S
C938 C939 1.370 . S
C938 C942 1.524 . S
C939 C931 1.503 . S
C939 C938 1.370 . S
C939 C940 1.403 . S
C940 C939 1.403 . S
C940 C941 1.404 . S
C940 C943 1.539 . S
C941 C937 1.408 . S
C941 C940 1.404 . S
C941 H953 0.930 . S
C942 C938 1.524 . S
C942 H954 0.956 . S
C942 H955 0.961 . S
C942 H956 0.961 . S
C943 C940 1.539 . S
C943 H957 0.958 . S
C943 H958 0.961 . S
C943 H959 0.960 . S
H944 C928 0.931 . S
H945 C933 0.929 . S
H946 C934 0.960 . S
H947 C934 0.962 . S
H948 C934 0.960 . S
H949 C935 0.961 . S
H950 C935 0.961 . S
H951 C935 0.961 . S
H952 C936 0.931 . S
H953 C941 0.930 . S
H954 C942 0.956 . S
H955 C942 0.961 . S
H956 C942 0.961 . S
H957 C943 0.958 . S
H958 C943 0.961 . S
H959 C943 0.960 . S
C960 C961 1.391 . S
C960 C962 1.394 . S
C960 H976 0.931 . S
C961 C960 1.391 . S
C961 C965 1.376 . S
C962 C960 1.394 . S
C962 C963 1.369 . S
C962 C966 1.531 . S
C963 C962 1.369 . S
C963 C964 1.410 . S
C963 C971 1.503 . S
C964 C963 1.410 . S
C964 C965 1.392 . S
C964 C967 1.511 . S
C965 C961 1.376 . S
C965 C964 1.392 . S
C965 H977 0.929 . S
C966 C962 1.531 . S
C966 H978 0.960 . S
C966 H979 0.962 . S
C966 H980 0.960 . S
C967 C964 1.511 . S
C967 H981 0.961 . S
C967 H982 0.961 . S
C967 H983 0.961 . S
C968 C969 1.370 . S
C968 C970 1.363 . S
C968 H984 0.931 . S
C969 C968 1.370 . S
C969 C973 1.408 . S
C970 C968 1.363 . S
C970 C971 1.370 . S
C970 C974 1.524 . S
C971 C963 1.503 . S
C971 C970 1.370 . S
C971 C972 1.403 . S
C972 C971 1.403 . S
C972 C973 1.404 . S
C972 C975 1.539 . S
C973 C969 1.408 . S
C973 C972 1.404 . S
C973 H985 0.930 . S
C974 C970 1.524 . S
C974 H986 0.956 . S
C974 H987 0.961 . S
C974 H988 0.961 . S
C975 C972 1.539 . S
C975 H989 0.958 . S
C975 H990 0.961 . S
C975 H991 0.960 . S
H976 C960 0.931 . S
H977 C965 0.929 . S
H978 C966 0.960 . S
H979 C966 0.962 . S
H980 C966 0.960 . S
H981 C967 0.961 . S
H982 C967 0.961 . S
H983 C967 0.961 . S
H984 C968 0.931 . S
H985 C973 0.930 . S
H986 C974 0.956 . S
H987 C974 0.961 . S
H988 C974 0.961 . S
H989 C975 0.958 . S
H990 C975 0.961 . S
H991 C975 0.960 . S
C992 C993 1.391 . S
C992 C994 1.394 . S
C992 H1008 0.931 . S
C993 C992 1.391 . S
C993 C997 1.376 . S
C994 C992 1.394 . S
C994 C995 1.369 . S
C994 C998 1.531 . S
C995 C994 1.369 . S
C995 C996 1.410 . S
C995 C1003 1.503 . S
C996 C995 1.410 . S
C996 C997 1.392 . S
C996 C999 1.511 . S
C997 C993 1.376 . S
C997 C996 1.392 . S
C997 H1009 0.929 . S
C998 C994 1.531 . S
C998 H1010 0.960 . S
C998 H1011 0.962 . S
C998 H1012 0.960 . S
C999 C996 1.511 . S
C999 H1013 0.961 . S
C999 H1014 0.961 . S
C999 H1015 0.961 . S
C1000 C1001 1.370 . S
C1000 C1002 1.363 . S
C1000 H1016 0.931 . S
C1001 C1000 1.370 . S
C1001 C1005 1.408 . S
C1002 C1000 1.363 . S
C1002 C1003 1.370 . S
C1002 C1006 1.524 . S
C1003 C995 1.503 . S
C1003 C1002 1.370 . S
C1003 C1004 1.403 . S
C1004 C1003 1.403 . S
C1004 C1005 1.404 . S
C1004 C1007 1.539 . S
C1005 C1001 1.408 . S
C1005 C1004 1.404 . S
C1005 H1017 0.930 . S
C1006 C1002 1.524 . S
C1006 H1018 0.956 . S
C1006 H1019 0.961 . S
C1006 H1020 0.961 . S
C1007 C1004 1.539 . S
C1007 H1021 0.958 . S
C1007 H1022 0.961 . S
C1007 H1023 0.960 . S
H1008 C992 0.931 . S
H1009 C997 0.929 . S
H1010 C998 0.960 . S
H1011 C998 0.962 . S
H1012 C998 0.960 . S
H1013 C999 0.961 . S
H1014 C999 0.961 . S
H1015 C999 0.961 . S
H1016 C1000 0.931 . S
H1017 C1005 0.930 . S
H1018 C1006 0.956 . S
H1019 C1006 0.961 . S
H1020 C1006 0.961 . S
H1021 C1007 0.958 . S
H1022 C1007 0.961 . S
H1023 C1007 0.960 . S
C1024 C1025 1.391 . S
C1024 C1026 1.394 . S
C1024 H1040 0.931 . S
C1025 C1024 1.391 . S
C1025 C1029 1.376 . S
C1026 C1024 1.394 . S
C1026 C1027 1.369 . S
C1026 C1030 1.531 . S
C1027 C1026 1.369 . S
C1027 C1028 1.410 . S
C1027 C1035 1.503 . S
C1028 C1027 1.410 . S
C1028 C1029 1.392 . S
C1028 C1031 1.511 . S
C1029 C1025 1.376 . S
C1029 C1028 1.392 . S
C1029 H1041 0.929 . S
C1030 C1026 1.531 . S
C1030 H1042 0.960 . S
C1030 H1043 0.962 . S
C1030 H1044 0.960 . S
C1031 C1028 1.511 . S
C1031 H1045 0.961 . S
C1031 H1046 0.961 . S
C1031 H1047 0.961 . S
C1032 C1033 1.370 . S
C1032 C1034 1.363 . S
C1032 H1048 0.931 . S
C1033 C1032 1.370 . S
C1033 C1037 1.408 . S
C1034 C1032 1.363 . S
C1034 C1035 1.370 . S
C1034 C1038 1.524 . S
C1035 C1027 1.503 . S
C1035 C1034 1.370 . S
C1035 C1036 1.403 . S
C1036 C1035 1.403 . S
C1036 C1037 1.404 . S
C1036 C1039 1.539 . S
C1037 C1033 1.408 . S
C1037 C1036 1.404 . S
C1037 H1049 0.930 . S
C1038 C1034 1.524 . S
C1038 H1050 0.956 . S
C1038 H1051 0.961 . S
C1038 H1052 0.961 . S
C1039 C1036 1.539 . S
C1039 H1053 0.958 . S
C1039 H1054 0.961 . S
C1039 H1055 0.960 . S
H1040 C1024 0.931 . S
H1041 C1029 0.929 . S
H1042 C1030 0.960 . S
H1043 C1030 0.962 . S
H1044 C1030 0.960 . S
H1045 C1031 0.961 . S
H1046 C1031 0.961 . S
H1047 C1031 0.961 . S
H1048 C1032 0.931 . S
H1049 C1037 0.930 . S
H1050 C1038 0.956 . S
H1051 C1038 0.961 . S
H1052 C1038 0.961 . S
H1053 C1039 0.958 . S
H1054 C1039 0.961 . S
H1055 C1039 0.960 . S
C1056 C1057 1.391 . S
C1056 C1058 1.394 . S
C1056 H1072 0.931 . S
C1057 C1056 1.391 . S
C1057 C1061 1.376 . S
C1058 C1056 1.394 . S
C1058 C1059 1.369 . S
C1058 C1062 1.531 . S
C1059 C1058 1.369 . S
C1059 C1060 1.410 . S
C1059 C1067 1.503 . S
C1060 C1059 1.410 . S
C1060 C1061 1.392 . S
C1060 C1063 1.511 . S
C1061 C1057 1.376 . S
C1061 C1060 1.392 . S
C1061 H1073 0.929 . S
C1062 C1058 1.531 . S
C1062 H1074 0.960 . S
C1062 H1075 0.962 . S
C1062 H1076 0.960 . S
C1063 C1060 1.511 . S
C1063 H1077 0.961 . S
C1063 H1078 0.961 . S
C1063 H1079 0.961 . S
C1064 C1065 1.370 . S
C1064 C1066 1.363 . S
C1064 H1080 0.931 . S
C1065 C1064 1.370 . S
C1065 C1069 1.408 . S
C1066 C1064 1.363 . S
C1066 C1067 1.370 . S
C1066 C1070 1.524 . S
C1067 C1059 1.503 . S
C1067 C1066 1.370 . S
C1067 C1068 1.403 . S
C1068 C1067 1.403 . S
C1068 C1069 1.404 . S
C1068 C1071 1.539 . S
C1069 C1065 1.408 . S
C1069 C1068 1.404 . S
C1069 H1081 0.930 . S
C1070 C1066 1.524 . S
C1070 H1082 0.956 . S
C1070 H1083 0.961 . S
C1070 H1084 0.961 . S
C1071 C1068 1.539 . S
C1071 H1085 0.958 . S
C1071 H1086 0.961 . S
C1071 H1087 0.960 . S
H1072 C1056 0.931 . S
H1073 C1061 0.929 . S
H1074 C1062 0.960 . S
H1075 C1062 0.962 . S
H1076 C1062 0.960 . S
H1077 C1063 0.961 . S
H1078 C1063 0.961 . S
H1079 C1063 0.961 . S
H1080 C1064 0.931 . S
H1081 C1069 0.930 . S
H1082 C1070 0.956 . S
H1083 C1070 0.961 . S
H1084 C1070 0.961 . S
H1085 C1071 0.958 . S
H1086 C1071 0.961 . S
H1087 C1071 0.960 . S
C1088 C1089 1.391 . S
C1088 C1090 1.394 . S
C1088 H1104 0.931 . S
C1089 C1088 1.391 . S
C1089 C1093 1.376 . S
C1090 C1088 1.394 . S
C1090 C1091 1.369 . S
C1090 C1094 1.531 . S
C1091 C1090 1.369 . S
C1091 C1092 1.410 . S
C1091 C1099 1.503 . S
C1092 C1091 1.410 . S
C1092 C1093 1.392 . S
C1092 C1095 1.511 . S
C1093 C1089 1.376 . S
C1093 C1092 1.392 . S
C1093 H1105 0.929 . S
C1094 C1090 1.531 . S
C1094 H1106 0.960 . S
C1094 H1107 0.962 . S
C1094 H1108 0.960 . S
C1095 C1092 1.511 . S
C1095 H1109 0.961 . S
C1095 H1110 0.961 . S
C1095 H1111 0.961 . S
C1096 C1097 1.370 . S
C1096 C1098 1.363 . S
C1096 H1112 0.931 . S
C1097 C1096 1.370 . S
C1097 C1101 1.408 . S
C1098 C1096 1.363 . S
C1098 C1099 1.370 . S
C1098 C1102 1.524 . S
C1099 C1091 1.503 . S
C1099 C1098 1.370 . S
C1099 C1100 1.403 . S
C1100 C1099 1.403 . S
C1100 C1101 1.404 . S
C1100 C1103 1.539 . S
C1101 C1097 1.408 . S
C1101 C1100 1.404 . S
C1101 H1113 0.930 . S
C1102 C1098 1.524 . S
C1102 H1114 0.956 . S
C1102 H1115 0.961 . S
C1102 H1116 0.961 . S
C1103 C1100 1.539 . S
C1103 H1117 0.958 . S
C1103 H1118 0.961 . S
C1103 H1119 0.960 . S
H1104 C1088 0.931 . S
H1105 C1093 0.929 . S
H1106 C1094 0.960 . S
H1107 C1094 0.962 . S
H1108 C1094 0.960 . S
H1109 C1095 0.961 . S
H1110 C1095 0.961 . S
H1111 C1095 0.961 . S
H1112 C1096 0.931 . S
H1113 C1101 0.930 . S
H1114 C1102 0.956 . S
H1115 C1102 0.961 . S
H1116 C1102 0.961 . S
H1117 C1103 0.958 . S
H1118 C1103 0.961 . S
H1119 C1103 0.960 . S
C1120 C1121 1.391 . S
C1120 C1122 1.394 . S
C1120 H1136 0.931 . S
C1121 C1120 1.391 . S
C1121 C1125 1.376 . S
C1122 C1120 1.394 . S
C1122 C1123 1.369 . S
C1122 C1126 1.531 . S
C1123 C1122 1.369 . S
C1123 C1124 1.410 . S
C1123 C1131 1.503 . S
C1124 C1123 1.410 . S
C1124 C1125 1.392 . S
C1124 C1127 1.511 . S
C1125 C1121 1.376 . S
C1125 C1124 1.392 . S
C1125 H1137 0.929 . S
C1126 C1122 1.531 . S
C1126 H1138 0.960 . S
C1126 H1139 0.962 . S
C1126 H1140 0.960 . S
C1127 C1124 1.511 . S
C1127 H1141 0.961 . S
C1127 H1142 0.961 . S
C1127 H1143 0.961 . S
C1128 C1129 1.370 . S
C1128 C1130 1.363 . S
C1128 H1144 0.931 . S
C1129 C1128 1.370 . S
C1129 C1133 1.408 . S
C1130 C1128 1.363 . S
C1130 C1131 1.370 . S
C1130 C1134 1.524 . S
C1131 C1123 1.503 . S
C1131 C1130 1.370 . S
C1131 C1132 1.403 . S
C1132 C1131 1.403 . S
C1132 C1133 1.404 . S
C1132 C1135 1.539 . S
C1133 C1129 1.408 . S
C1133 C1132 1.404 . S
C1133 H1145 0.930 . S
C1134 C1130 1.524 . S
C1134 H1146 0.956 . S
C1134 H1147 0.961 . S
C1134 H1148 0.961 . S
C1135 C1132 1.539 . S
C1135 H1149 0.958 . S
C1135 H1150 0.961 . S
C1135 H1151 0.960 . S
H1136 C1120 0.931 . S
H1137 C1125 0.929 . S
H1138 C1126 0.960 . S
H1139 C1126 0.962 . S
H1140 C1126 0.960 . S
H1141 C1127 0.961 . S
H1142 C1127 0.961 . S
H1143 C1127 0.961 . S
H1144 C1128 0.931 . S
H1145 C1133 0.930 . S
H1146 C1134 0.956 . S
H1147 C1134 0.961 . S
H1148 C1134 0.961 . S
H1149 C1135 0.958 . S
H1150 C1135 0.961 . S
H1151 C1135 0.960 . S
C1152 C1153 1.391 . S
C1152 C1154 1.394 . S
C1152 H1168 0.931 . S
C1153 C1152 1.391 . S
C1153 C1157 1.376 . S
C1154 C1152 1.394 . S
C1154 C1155 1.369 . S
C1154 C1158 1.531 . S
C1155 C1154 1.369 . S
C1155 C1156 1.410 . S
C1155 C1163 1.503 . S
C1156 C1155 1.410 . S
C1156 C1157 1.392 . S
C1156 C1159 1.511 . S
C1157 C1153 1.376 . S
C1157 C1156 1.392 . S
C1157 H1169 0.929 . S
C1158 C1154 1.531 . S
C1158 H1170 0.960 . S
C1158 H1171 0.962 . S
C1158 H1172 0.960 . S
C1159 C1156 1.511 . S
C1159 H1173 0.961 . S
C1159 H1174 0.961 . S
C1159 H1175 0.961 . S
C1160 C1161 1.370 . S
C1160 C1162 1.363 . S
C1160 H1176 0.931 . S
C1161 C1160 1.370 . S
C1161 C1165 1.408 . S
C1162 C1160 1.363 . S
C1162 C1163 1.370 . S
C1162 C1166 1.524 . S
C1163 C1155 1.503 . S
C1163 C1162 1.370 . S
C1163 C1164 1.403 . S
C1164 C1163 1.403 . S
C1164 C1165 1.404 . S
C1164 C1167 1.539 . S
C1165 C1161 1.408 . S
C1165 C1164 1.404 . S
C1165 H1177 0.930 . S
C1166 C1162 1.524 . S
C1166 H1178 0.956 . S
C1166 H1179 0.961 . S
C1166 H1180 0.961 . S
C1167 C1164 1.539 . S
C1167 H1181 0.958 . S
C1167 H1182 0.961 . S
C1167 H1183 0.960 . S
H1168 C1152 0.931 . S
H1169 C1157 0.929 . S
H1170 C1158 0.960 . S
H1171 C1158 0.962 . S
H1172 C1158 0.960 . S
H1173 C1159 0.961 . S
H1174 C1159 0.961 . S
H1175 C1159 0.961 . S
H1176 C1160 0.931 . S
H1177 C1165 0.930 . S
H1178 C1166 0.956 . S
H1179 C1166 0.961 . S
H1180 C1166 0.961 . S
H1181 C1167 0.958 . S
H1182 C1167 0.961 . S
H1183 C1167 0.960 . S
C1184 C1185 1.391 . S
C1184 C1186 1.394 . S
C1184 H1200 0.931 . S
C1185 C1184 1.391 . S
C1185 C1189 1.376 . S
C1186 C1184 1.394 . S
C1186 C1187 1.369 . S
C1186 C1190 1.531 . S
C1187 C1186 1.369 . S
C1187 C1188 1.410 . S
C1187 C1195 1.503 . S
C1188 C1187 1.410 . S
C1188 C1189 1.392 . S
C1188 C1191 1.511 . S
C1189 C1185 1.376 . S
C1189 C1188 1.392 . S
C1189 H1201 0.929 . S
C1190 C1186 1.531 . S
C1190 H1202 0.960 . S
C1190 H1203 0.962 . S
C1190 H1204 0.960 . S
C1191 C1188 1.511 . S
C1191 H1205 0.961 . S
C1191 H1206 0.961 . S
C1191 H1207 0.961 . S
C1192 C1193 1.370 . S
C1192 C1194 1.363 . S
C1192 H1208 0.931 . S
C1193 C1192 1.370 . S
C1193 C1197 1.408 . S
C1194 C1192 1.363 . S
C1194 C1195 1.370 . S
C1194 C1198 1.524 . S
C1195 C1187 1.503 . S
C1195 C1194 1.370 . S
C1195 C1196 1.403 . S
C1196 C1195 1.403 . S
C1196 C1197 1.404 . S
C1196 C1199 1.539 . S
C1197 C1193 1.408 . S
C1197 C1196 1.404 . S
C1197 H1209 0.930 . S
C1198 C1194 1.524 . S
C1198 H1210 0.956 . S
C1198 H1211 0.961 . S
C1198 H1212 0.961 . S
C1199 C1196 1.539 . S
C1199 H1213 0.958 . S
C1199 H1214 0.961 . S
C1199 H1215 0.960 . S
H1200 C1184 0.931 . S
H1201 C1189 0.929 . S
H1202 C1190 0.960 . S
H1203 C1190 0.962 . S
H1204 C1190 0.960 . S
H1205 C1191 0.961 . S
H1206 C1191 0.961 . S
H1207 C1191 0.961 . S
H1208 C1192 0.931 . S
H1209 C1197 0.930 . S
H1210 C1198 0.956 . S
H1211 C1198 0.961 . S
H1212 C1198 0.961 . S
H1213 C1199 0.958 . S
H1214 C1199 0.961 . S
H1215 C1199 0.960 . S
C1216 C1217 1.391 . S
C1216 C1218 1.394 . S
C1216 H1232 0.931 . S
C1217 C1216 1.391 . S
C1217 C1221 1.376 . S
C1218 C1216 1.394 . S
C1218 C1219 1.369 . S
C1218 C1222 1.531 . S
C1219 C1218 1.369 . S
C1219 C1220 1.410 . S
C1219 C1227 1.503 . S
C1220 C1219 1.410 . S
C1220 C1221 1.392 . S
C1220 C1223 1.511 . S
C1221 C1217 1.376 . S
C1221 C1220 1.392 . S
C1221 H1233 0.929 . S
C1222 C1218 1.531 . S
C1222 H1234 0.960 . S
C1222 H1235 0.962 . S
C1222 H1236 0.960 . S
C1223 C1220 1.511 . S
C1223 H1237 0.961 . S
C1223 H1238 0.961 . S
C1223 H1239 0.961 . S
C1224 C1225 1.370 . S
C1224 C1226 1.363 . S
C1224 H1240 0.931 . S
C1225 C1224 1.370 . S
C1225 C1229 1.408 . S
C1226 C1224 1.363 . S
C1226 C1227 1.370 . S
C1226 C1230 1.524 . S
C1227 C1219 1.503 . S
C1227 C1226 1.370 . S
C1227 C1228 1.403 . S
C1228 C1227 1.403 . S
C1228 C1229 1.404 . S
C1228 C1231 1.539 . S
C1229 C1225 1.408 . S
C1229 C1228 1.404 . S
C1229 H1241 0.930 . S
C1230 C1226 1.524 . S
C1230 H1242 0.956 . S
C1230 H1243 0.961 . S
C1230 H1244 0.961 . S
C1231 C1228 1.539 . S
C1231 H1245 0.958 . S
C1231 H1246 0.961 . S
C1231 H1247 0.960 . S
H1232 C1216 0.931 . S
H1233 C1221 0.929 . S
H1234 C1222 0.960 . S
H1235 C1222 0.962 . S
H1236 C1222 0.960 . S
H1237 C1223 0.961 . S
H1238 C1223 0.961 . S
H1239 C1223 0.961 . S
H1240 C1224 0.931 . S
H1241 C1229 0.930 . S
H1242 C1230 0.956 . S
H1243 C1230 0.961 . S
H1244 C1230 0.961 . S
H1245 C1231 0.958 . S
H1246 C1231 0.961 . S
H1247 C1231 0.960 . S
C1248 C1249 1.391 . S
C1248 C1250 1.394 . S
C1248 H1264 0.931 . S
C1249 C1248 1.391 . S
C1249 C1253 1.376 . S
C1250 C1248 1.394 . S
C1250 C1251 1.369 . S
C1250 C1254 1.531 . S
C1251 C1250 1.369 . S
C1251 C1252 1.410 . S
C1251 C1259 1.503 . S
C1252 C1251 1.410 . S
C1252 C1253 1.392 . S
C1252 C1255 1.511 . S
C1253 C1249 1.376 . S
C1253 C1252 1.392 . S
C1253 H1265 0.929 . S
C1254 C1250 1.531 . S
C1254 H1266 0.960 . S
C1254 H1267 0.962 . S
C1254 H1268 0.960 . S
C1255 C1252 1.511 . S
C1255 H1269 0.961 . S
C1255 H1270 0.961 . S
C1255 H1271 0.961 . S
C1256 C1257 1.370 . S
C1256 C1258 1.363 . S
C1256 H1272 0.931 . S
C1257 C1256 1.370 . S
C1257 C1261 1.408 . S
C1258 C1256 1.363 . S
C1258 C1259 1.370 . S
C1258 C1262 1.524 . S
C1259 C1251 1.503 . S
C1259 C1258 1.370 . S
C1259 C1260 1.403 . S
C1260 C1259 1.403 . S
C1260 C1261 1.404 . S
C1260 C1263 1.539 . S
C1261 C1257 1.408 . S
C1261 C1260 1.404 . S
C1261 H1273 0.930 . S
C1262 C1258 1.524 . S
C1262 H1274 0.956 . S
C1262 H1275 0.961 . S
C1262 H1276 0.961 . S
C1263 C1260 1.539 . S
C1263 H1277 0.958 . S
C1263 H1278 0.961 . S
C1263 H1279 0.960 . S
H1264 C1248 0.931 . S
H1265 C1253 0.929 . S
H1266 C1254 0.960 . S
H1267 C1254 0.962 . S
H1268 C1254 0.960 . S
H1269 C1255 0.961 . S
H1270 C1255 0.961 . S
H1271 C1255 0.961 . S
H1272 C1256 0.931 . S
H1273 C1261 0.930 . S
H1274 C1262 0.956 . S
H1275 C1262 0.961 . S
H1276 C1262 0.961 . S
H1277 C1263 0.958 . S
H1278 C1263 0.961 . S
H1279 C1263 0.960 . S
C1280 C1281 1.391 . S
C1280 C1282 1.394 . S
C1280 H1296 0.931 . S
C1281 C1280 1.391 . S
C1281 C1285 1.376 . S
C1282 C1280 1.394 . S
C1282 C1283 1.369 . S
C1282 C1286 1.531 . S
C1283 C1282 1.369 . S
C1283 C1284 1.410 . S
C1283 C1291 1.503 . S
C1284 C1283 1.410 . S
C1284 C1285 1.392 . S
C1284 C1287 1.511 . S
C1285 C1281 1.376 . S
C1285 C1284 1.392 . S
C1285 H1297 0.929 . S
C1286 C1282 1.531 . S
C1286 H1298 0.960 . S
C1286 H1299 0.962 . S
C1286 H1300 0.960 . S
C1287 C1284 1.511 . S
C1287 H1301 0.961 . S
C1287 H1302 0.961 . S
C1287 H1303 0.961 . S
C1288 C1289 1.370 . S
C1288 C1290 1.363 1_455 S
C1288 H1304 0.931 . S
C1289 C1288 1.370 . S
C1289 C1293 1.408 . S
C1290 C1288 1.363 1_655 S
C1290 C1291 1.370 . S
C1290 C1294 1.524 . S
C1291 C1283 1.503 . S
C1291 C1290 1.370 . S
C1291 C1292 1.403 . S
C1292 C1291 1.403 . S
C1292 C1293 1.404 1_655 S
C1292 C1295 1.539 . S
C1293 C1289 1.408 . S
C1293 C1292 1.404 1_455 S
C1293 H1305 0.930 . S
C1294 C1290 1.524 . S
C1294 H1306 0.956 . S
C1294 H1307 0.961 . S
C1294 H1308 0.961 . S
C1295 C1292 1.539 . S
C1295 H1309 0.958 . S
C1295 H1310 0.961 . S
C1295 H1311 0.960 . S
H1296 C1280 0.931 . S
H1297 C1285 0.929 . S
H1298 C1286 0.960 . S
H1299 C1286 0.962 . S
H1300 C1286 0.960 . S
H1301 C1287 0.961 . S
H1302 C1287 0.961 . S
H1303 C1287 0.961 . S
H1304 C1288 0.931 . S
H1305 C1293 0.930 . S
H1306 C1294 0.956 . S
H1307 C1294 0.961 . S
H1308 C1294 0.961 . S
H1309 C1295 0.958 . S
H1310 C1295 0.961 . S
H1311 C1295 0.960 . S
C1312 C1313 1.391 . S
C1312 C1314 1.394 . S
C1312 H1328 0.931 . S
C1313 C1312 1.391 . S
C1313 C1317 1.376 . S
C1314 C1312 1.394 . S
C1314 C1315 1.369 . S
C1314 C1318 1.531 . S
C1315 C1314 1.369 . S
C1315 C1316 1.410 . S
C1315 C1323 1.503 . S
C1316 C1315 1.410 . S
C1316 C1317 1.392 . S
C1316 C1319 1.511 . S
C1317 C1313 1.376 . S
C1317 C1316 1.392 . S
C1317 H1329 0.929 . S
C1318 C1314 1.531 . S
C1318 H1330 0.960 . S
C1318 H1331 0.962 . S
C1318 H1332 0.960 . S
C1319 C1316 1.511 . S
C1319 H1333 0.961 . S
C1319 H1334 0.961 . S
C1319 H1335 0.961 . S
C1320 C1321 1.370 . S
C1320 C1322 1.363 . S
C1320 H1336 0.931 . S
C1321 C1320 1.370 . S
C1321 C1325 1.408 . S
C1322 C1320 1.363 . S
C1322 C1323 1.370 . S
C1322 C1326 1.524 . S
C1323 C1315 1.503 . S
C1323 C1322 1.370 . S
C1323 C1324 1.403 . S
C1324 C1323 1.403 . S
C1324 C1325 1.404 . S
C1324 C1327 1.539 . S
C1325 C1321 1.408 . S
C1325 C1324 1.404 . S
C1325 H1337 0.930 . S
C1326 C1322 1.524 . S
C1326 H1338 0.956 . S
C1326 H1339 0.961 . S
C1326 H1340 0.961 . S
C1327 C1324 1.539 . S
C1327 H1341 0.958 . S
C1327 H1342 0.961 . S
C1327 H1343 0.960 . S
H1328 C1312 0.931 . S
H1329 C1317 0.929 . S
H1330 C1318 0.960 . S
H1331 C1318 0.962 . S
H1332 C1318 0.960 . S
H1333 C1319 0.961 . S
H1334 C1319 0.961 . S
H1335 C1319 0.961 . S
H1336 C1320 0.931 . S
H1337 C1325 0.930 . S
H1338 C1326 0.956 . S
H1339 C1326 0.961 . S
H1340 C1326 0.961 . S
H1341 C1327 0.958 . S
H1342 C1327 0.961 . S
H1343 C1327 0.960 . S
C1344 C1345 1.391 . S
C1344 C1346 1.394 . S
C1344 H1360 0.931 . S
C1345 C1344 1.391 . S
C1345 C1349 1.376 . S
C1346 C1344 1.394 . S
C1346 C1347 1.369 . S
C1346 C1350 1.531 . S
C1347 C1346 1.369 . S
C1347 C1348 1.410 . S
C1347 C1355 1.503 . S
C1348 C1347 1.410 . S
C1348 C1349 1.392 . S
C1348 C1351 1.511 . S
C1349 C1345 1.376 . S
C1349 C1348 1.392 . S
C1349 H1361 0.929 . S
C1350 C1346 1.531 . S
C1350 H1362 0.960 . S
C1350 H1363 0.962 . S
C1350 H1364 0.960 . S
C1351 C1348 1.511 . S
C1351 H1365 0.961 . S
C1351 H1366 0.961 . S
C1351 H1367 0.961 . S
C1352 C1353 1.370 . S
C1352 C1354 1.363 . S
C1352 H1368 0.931 . S
C1353 C1352 1.370 . S
C1353 C1357 1.408 . S
C1354 C1352 1.363 . S
C1354 C1355 1.370 . S
C1354 C1358 1.524 . S
C1355 C1347 1.503 . S
C1355 C1354 1.370 . S
C1355 C1356 1.403 . S
C1356 C1355 1.403 . S
C1356 C1357 1.404 . S
C1356 C1359 1.539 . S
C1357 C1353 1.408 . S
C1357 C1356 1.404 . S
C1357 H1369 0.930 . S
C1358 C1354 1.524 . S
C1358 H1370 0.956 . S
C1358 H1371 0.961 . S
C1358 H1372 0.961 . S
C1359 C1356 1.539 . S
C1359 H1373 0.958 . S
C1359 H1374 0.961 . S
C1359 H1375 0.960 . S
H1360 C1344 0.931 . S
H1361 C1349 0.929 . S
H1362 C1350 0.960 . S
H1363 C1350 0.962 . S
H1364 C1350 0.960 . S
H1365 C1351 0.961 . S
H1366 C1351 0.961 . S
H1367 C1351 0.961 . S
H1368 C1352 0.931 . S
H1369 C1357 0.930 . S
H1370 C1358 0.956 . S
H1371 C1358 0.961 . S
H1372 C1358 0.961 . S
H1373 C1359 0.958 . S
H1374 C1359 0.961 . S
H1375 C1359 0.960 . S
C1376 C1377 1.391 . S
C1376 C1378 1.394 . S
C1376 H1392 0.931 . S
C1377 C1376 1.391 . S
C1377 C1381 1.376 . S
C1378 C1376 1.394 . S
C1378 C1379 1.369 . S
C1378 C1382 1.531 . S
C1379 C1378 1.369 . S
C1379 C1380 1.410 . S
C1379 C1387 1.503 . S
C1380 C1379 1.410 . S
C1380 C1381 1.392 . S
C1380 C1383 1.511 . S
C1381 C1377 1.376 . S
C1381 C1380 1.392 . S
C1381 H1393 0.929 . S
C1382 C1378 1.531 . S
C1382 H1394 0.960 . S
C1382 H1395 0.962 . S
C1382 H1396 0.960 . S
C1383 C1380 1.511 . S
C1383 H1397 0.961 . S
C1383 H1398 0.961 . S
C1383 H1399 0.961 . S
C1384 C1385 1.370 . S
C1384 C1386 1.363 . S
C1384 H1400 0.931 . S
C1385 C1384 1.370 . S
C1385 C1389 1.408 . S
C1386 C1384 1.363 . S
C1386 C1387 1.370 . S
C1386 C1390 1.524 . S
C1387 C1379 1.503 . S
C1387 C1386 1.370 . S
C1387 C1388 1.403 . S
C1388 C1387 1.403 . S
C1388 C1389 1.404 . S
C1388 C1391 1.539 . S
C1389 C1385 1.408 . S
C1389 C1388 1.404 . S
C1389 H1401 0.930 . S
C1390 C1386 1.524 . S
C1390 H1402 0.956 . S
C1390 H1403 0.961 . S
C1390 H1404 0.961 . S
C1391 C1388 1.539 . S
C1391 H1405 0.958 . S
C1391 H1406 0.961 . S
C1391 H1407 0.960 . S
H1392 C1376 0.931 . S
H1393 C1381 0.929 . S
H1394 C1382 0.960 . S
H1395 C1382 0.962 . S
H1396 C1382 0.960 . S
H1397 C1383 0.961 . S
H1398 C1383 0.961 . S
H1399 C1383 0.961 . S
H1400 C1384 0.931 . S
H1401 C1389 0.930 . S
H1402 C1390 0.956 . S
H1403 C1390 0.961 . S
H1404 C1390 0.961 . S
H1405 C1391 0.958 . S
H1406 C1391 0.961 . S
H1407 C1391 0.960 . S
C1408 C1409 1.391 . S
C1408 C1410 1.394 . S
C1408 H1424 0.931 . S
C1409 C1408 1.391 . S
C1409 C1413 1.376 . S
C1410 C1408 1.394 . S
C1410 C1411 1.369 . S
C1410 C1414 1.531 . S
C1411 C1410 1.369 . S
C1411 C1412 1.410 . S
C1411 C1419 1.503 . S
C1412 C1411 1.410 . S
C1412 C1413 1.392 . S
C1412 C1415 1.511 . S
C1413 C1409 1.376 . S
C1413 C1412 1.392 . S
C1413 H1425 0.929 . S
C1414 C1410 1.531 . S
C1414 H1426 0.960 . S
C1414 H1427 0.962 . S
C1414 H1428 0.960 . S
C1415 C1412 1.511 . S
C1415 H1429 0.961 . S
C1415 H1430 0.961 . S
C1415 H1431 0.961 . S
C1416 C1417 1.370 . S
C1416 C1418 1.363 . S
C1416 H1432 0.931 . S
C1417 C1416 1.370 . S
C1417 C1421 1.408 . S
C1418 C1416 1.363 . S
C1418 C1419 1.370 . S
C1418 C1422 1.524 . S
C1419 C1411 1.503 . S
C1419 C1418 1.370 . S
C1419 C1420 1.403 . S
C1420 C1419 1.403 . S
C1420 C1421 1.404 . S
C1420 C1423 1.539 . S
C1421 C1417 1.408 . S
C1421 C1420 1.404 . S
C1421 H1433 0.930 . S
C1422 C1418 1.524 . S
C1422 H1434 0.956 . S
C1422 H1435 0.961 . S
C1422 H1436 0.961 . S
C1423 C1420 1.539 . S
C1423 H1437 0.958 . S
C1423 H1438 0.961 . S
C1423 H1439 0.960 . S
H1424 C1408 0.931 . S
H1425 C1413 0.929 . S
H1426 C1414 0.960 . S
H1427 C1414 0.962 . S
H1428 C1414 0.960 . S
H1429 C1415 0.961 . S
H1430 C1415 0.961 . S
H1431 C1415 0.961 . S
H1432 C1416 0.931 . S
H1433 C1421 0.930 . S
H1434 C1422 0.956 . S
H1435 C1422 0.961 . S
H1436 C1422 0.961 . S
H1437 C1423 0.958 . S
H1438 C1423 0.961 . S
H1439 C1423 0.960 . S
C1440 C1441 1.391 . S
C1440 C1442 1.394 . S
C1440 H1456 0.931 . S
C1441 C1440 1.391 . S
C1441 C1445 1.376 . S
C1442 C1440 1.394 . S
C1442 C1443 1.369 . S
C1442 C1446 1.531 . S
C1443 C1442 1.369 . S
C1443 C1444 1.410 . S
C1443 C1451 1.503 . S
C1444 C1443 1.410 . S
C1444 C1445 1.392 . S
C1444 C1447 1.511 . S
C1445 C1441 1.376 . S
C1445 C1444 1.392 . S
C1445 H1457 0.929 . S
C1446 C1442 1.531 . S
C1446 H1458 0.960 . S
C1446 H1459 0.962 . S
C1446 H1460 0.960 . S
C1447 C1444 1.511 . S
C1447 H1461 0.961 . S
C1447 H1462 0.961 . S
C1447 H1463 0.961 . S
C1448 C1449 1.370 . S
C1448 C1450 1.363 . S
C1448 H1464 0.931 . S
C1449 C1448 1.370 . S
C1449 C1453 1.408 . S
C1450 C1448 1.363 . S
C1450 C1451 1.370 . S
C1450 C1454 1.524 . S
C1451 C1443 1.503 . S
C1451 C1450 1.370 . S
C1451 C1452 1.403 . S
C1452 C1451 1.403 . S
C1452 C1453 1.404 . S
C1452 C1455 1.539 . S
C1453 C1449 1.408 . S
C1453 C1452 1.404 . S
C1453 H1465 0.930 . S
C1454 C1450 1.524 . S
C1454 H1466 0.956 . S
C1454 H1467 0.961 . S
C1454 H1468 0.961 . S
C1455 C1452 1.539 . S
C1455 H1469 0.958 . S
C1455 H1470 0.961 . S
C1455 H1471 0.960 . S
H1456 C1440 0.931 . S
H1457 C1445 0.929 . S
H1458 C1446 0.960 . S
H1459 C1446 0.962 . S
H1460 C1446 0.960 . S
H1461 C1447 0.961 . S
H1462 C1447 0.961 . S
H1463 C1447 0.961 . S
H1464 C1448 0.931 . S
H1465 C1453 0.930 . S
H1466 C1454 0.956 . S
H1467 C1454 0.961 . S
H1468 C1454 0.961 . S
H1469 C1455 0.958 . S
H1470 C1455 0.961 . S
H1471 C1455 0.960 . S
C1472 C1473 1.391 . S
C1472 C1474 1.369 1_455 S
C1472 H1488 0.931 . S
C1473 C1472 1.391 . S
C1473 C1477 1.376 . S
C1474 C1472 1.369 1_655 S
C1474 C1475 1.387 . S
C1474 C1478 1.537 . S
C1475 C1474 1.387 . S
C1475 C1476 1.410 . S
C1475 C1483 1.503 . S
C1476 C1475 1.410 . S
C1476 C1477 1.392 1_655 S
C1476 C1479 1.511 . S
C1477 C1473 1.376 . S
C1477 C1476 1.392 1_455 S
C1477 H1489 0.929 . S
C1478 C1474 1.537 . S
C1478 H1490 0.960 . S
C1478 H1491 0.962 . S
C1478 H1492 0.960 1_655 S
C1479 C1476 1.511 . S
C1479 H1493 0.961 . S
C1479 H1494 0.961 . S
C1479 H1495 0.961 . S
C1480 C1481 1.370 . S
C1480 C1482 1.363 . S
C1480 H1496 0.931 . S
C1481 C1480 1.370 . S
C1481 C1485 1.408 . S
C1482 C1480 1.363 . S
C1482 C1483 1.370 . S
C1482 C1486 1.524 . S
C1483 C1475 1.503 . S
C1483 C1482 1.370 . S
C1483 C1484 1.403 . S
C1484 C1483 1.403 . S
C1484 C1485 1.404 . S
C1484 C1487 1.539 . S
C1485 C1481 1.408 . S
C1485 C1484 1.404 . S
C1485 H1497 0.930 . S
C1486 C1482 1.524 . S
C1486 H1498 0.956 . S
C1486 H1499 0.961 . S
C1486 H1500 0.961 . S
C1487 C1484 1.539 . S
C1487 H1501 0.958 . S
C1487 H1502 0.961 . S
C1487 H1503 0.960 . S
H1488 C1472 0.931 . S
H1489 C1477 0.929 . S
H1490 C1478 0.960 . S
H1491 C1478 0.962 . S
H1492 C1478 0.960 1_455 S
H1493 C1479 0.961 . S
H1494 C1479 0.961 . S
H1495 C1479 0.961 . S
H1496 C1480 0.931 . S
H1497 C1485 0.930 . S
H1498 C1486 0.956 . S
H1499 C1486 0.961 . S
H1500 C1486 0.961 . S
H1501 C1487 0.958 . S
H1502 C1487 0.961 . S
H1503 C1487 0.960 . S
C1504 C1505 1.391 . S
C1504 C1506 1.394 . S
C1504 H1520 0.931 . S
C1505 C1504 1.391 . S
C1505 C1509 1.376 . S
C1506 C1504 1.394 . S
C1506 C1507 1.369 . S
C1506 C1510 1.531 . S
C1507 C1506 1.369 . S
C1507 C1508 1.410 . S
C1507 C1515 1.503 . S
C1508 C1507 1.410 . S
C1508 C1509 1.392 . S
C1508 C1511 1.511 . S
C1509 C1505 1.376 . S
C1509 C1508 1.392 . S
C1509 H1521 0.929 . S
C1510 C1506 1.531 . S
C1510 H1522 0.960 . S
C1510 H1523 0.962 . S
C1510 H1524 0.960 . S
C1511 C1508 1.511 . S
C1511 H1525 0.961 . S
C1511 H1526 0.961 . S
C1511 H1527 0.961 . S
C1512 C1513 1.370 . S
C1512 C1514 1.363 . S
C1512 H1528 0.931 . S
C1513 C1512 1.370 . S
C1513 C1517 1.408 . S
C1514 C1512 1.363 . S
C1514 C1515 1.370 . S
C1514 C1518 1.524 . S
C1515 C1507 1.503 . S
C1515 C1514 1.370 . S
C1515 C1516 1.403 . S
C1516 C1515 1.403 . S
C1516 C1517 1.404 . S
C1516 C1519 1.539 . S
C1517 C1513 1.408 . S
C1517 C1516 1.404 . S
C1517 H1529 0.930 . S
C1518 C1514 1.524 . S
C1518 H1530 0.956 . S
C1518 H1531 0.961 . S
C1518 H1532 0.961 . S
C1519 C1516 1.539 . S
C1519 H1533 0.958 . S
C1519 H1534 0.961 . S
C1519 H1535 0.960 . S
H1520 C1504 0.931 . S
H1521 C1509 0.929 . S
H1522 C1510 0.960 . S
H1523 C1510 0.962 . S
H1524 C1510 0.960 . S
H1525 C1511 0.961 . S
H1526 C1511 0.961 . S
H1527 C1511 0.961 . S
H1528 C1512 0.931 . S
H1529 C1517 0.930 . S
H1530 C1518 0.956 . S
H1531 C1518 0.961 . S
H1532 C1518 0.961 . S
H1533 C1519 0.958 . S
H1534 C1519 0.961 . S
H1535 C1519 0.960 . S
C1536 C1537 1.391 . S
C1536 C1538 1.394 . S
C1536 H1552 0.931 . S
C1537 C1536 1.391 . S
C1537 C1541 1.376 . S
C1538 C1536 1.394 . S
C1538 C1539 1.369 . S
C1538 C1542 1.531 1_655 S
C1539 C1538 1.369 . S
C1539 C1540 1.410 . S
C1539 C1547 1.503 1_655 S
C1540 C1539 1.410 . S
C1540 C1541 1.392 . S
C1540 C1543 1.511 . S
C1541 C1537 1.376 . S
C1541 C1540 1.392 . S
C1541 H1553 0.929 . S
C1542 C1538 1.531 1_455 S
C1542 H1554 0.960 . S
C1542 H1555 0.962 . S
C1542 H1556 0.960 . S
C1543 C1540 1.511 . S
C1543 H1557 0.961 . S
C1543 H1558 0.961 . S
C1543 H1559 0.961 . S
C1544 C1545 1.370 . S
C1544 C1546 1.363 . S
C1544 H1560 0.931 . S
C1545 C1544 1.370 . S
C1545 C1549 1.408 . S
C1546 C1544 1.363 . S
C1546 C1547 1.370 . S
C1546 C1550 1.524 . S
C1547 C1539 1.503 1_455 S
C1547 C1546 1.370 . S
C1547 C1548 1.403 . S
C1548 C1547 1.403 . S
C1548 C1549 1.404 . S
C1548 C1551 1.539 . S
C1549 C1545 1.408 . S
C1549 C1548 1.404 . S
C1549 H1561 0.930 . S
C1550 C1546 1.524 . S
C1550 H1562 0.956 . S
C1550 H1563 0.961 1_455 S
C1550 H1564 0.961 . S
C1551 C1548 1.539 . S
C1551 H1565 0.958 . S
C1551 H1566 0.961 . S
C1551 H1567 0.960 1_455 S
H1552 C1536 0.931 . S
H1553 C1541 0.929 . S
H1554 C1542 0.960 . S
H1555 C1542 0.962 . S
H1556 C1542 0.960 . S
H1557 C1543 0.961 . S
H1558 C1543 0.961 . S
H1559 C1543 0.961 . S
H1560 C1544 0.931 . S
H1561 C1549 0.930 . S
H1562 C1550 0.956 . S
H1563 C1550 0.961 1_655 S
H1564 C1550 0.961 . S
H1565 C1551 0.958 . S
H1566 C1551 0.961 . S
H1567 C1551 0.960 1_655 S
C1568 C1569 1.391 . S
C1568 C1570 1.394 . S
C1568 H1584 0.931 . S
C1569 C1568 1.391 . S
C1569 C1573 1.376 . S
C1570 C1568 1.394 . S
C1570 C1571 1.369 . S
C1570 C1574 1.531 . S
C1571 C1570 1.369 . S
C1571 C1572 1.410 . S
C1571 C1579 1.503 . S
C1572 C1571 1.410 . S
C1572 C1573 1.392 . S
C1572 C1575 1.511 . S
C1573 C1569 1.376 . S
C1573 C1572 1.392 . S
C1573 H1585 0.929 . S
C1574 C1570 1.531 . S
C1574 H1586 0.960 . S
C1574 H1587 0.962 . S
C1574 H1588 0.960 . S
C1575 C1572 1.511 . S
C1575 H1589 0.961 . S
C1575 H1590 0.961 . S
C1575 H1591 0.961 . S
C1576 C1577 1.370 . S
C1576 C1578 1.363 . S
C1576 H1592 0.931 . S
C1577 C1576 1.370 . S
C1577 C1581 1.408 . S
C1578 C1576 1.363 . S
C1578 C1579 1.370 . S
C1578 C1582 1.524 . S
C1579 C1571 1.503 . S
C1579 C1578 1.370 . S
C1579 C1580 1.403 . S
C1580 C1579 1.403 . S
C1580 C1581 1.404 . S
C1580 C1583 1.539 . S
C1581 C1577 1.408 . S
C1581 C1580 1.404 . S
C1581 H1593 0.930 . S
C1582 C1578 1.524 . S
C1582 H1594 0.956 . S
C1582 H1595 0.961 . S
C1582 H1596 0.961 . S
C1583 C1580 1.539 . S
C1583 H1597 0.958 . S
C1583 H1598 0.961 . S
C1583 H1599 0.960 . S
H1584 C1568 0.931 . S
H1585 C1573 0.929 . S
H1586 C1574 0.960 . S
H1587 C1574 0.962 . S
H1588 C1574 0.960 . S
H1589 C1575 0.961 . S
H1590 C1575 0.961 . S
H1591 C1575 0.961 . S
H1592 C1576 0.931 . S
H1593 C1581 0.930 . S
H1594 C1582 0.956 . S
H1595 C1582 0.961 . S
H1596 C1582 0.961 . S
H1597 C1583 0.958 . S
H1598 C1583 0.961 . S
H1599 C1583 0.960 . S
C1600 C1601 1.391 . S
C1600 C1602 1.394 . S
C1600 H1616 0.931 . S
C1601 C1600 1.391 . S
C1601 C1605 1.376 . S
C1602 C1600 1.394 . S
C1602 C1603 1.369 . S
C1602 C1606 1.531 . S
C1603 C1602 1.369 . S
C1603 C1604 1.410 . S
C1603 C1611 1.503 . S
C1604 C1603 1.410 . S
C1604 C1605 1.392 . S
C1604 C1607 1.511 . S
C1605 C1601 1.376 . S
C1605 C1604 1.392 . S
C1605 H1617 0.929 . S
C1606 C1602 1.531 . S
C1606 H1618 0.960 . S
C1606 H1619 0.962 . S
C1606 H1620 0.960 . S
C1607 C1604 1.511 . S
C1607 H1621 0.961 . S
C1607 H1622 0.961 . S
C1607 H1623 0.961 . S
C1608 C1609 1.370 . S
C1608 C1610 1.363 . S
C1608 H1624 0.931 . S
C1609 C1608 1.370 . S
C1609 C1613 1.408 . S
C1610 C1608 1.363 . S
C1610 C1611 1.370 . S
C1610 C1614 1.524 . S
C1611 C1603 1.503 . S
C1611 C1610 1.370 . S
C1611 C1612 1.403 . S
C1612 C1611 1.403 . S
C1612 C1613 1.404 . S
C1612 C1615 1.539 . S
C1613 C1609 1.408 . S
C1613 C1612 1.404 . S
C1613 H1625 0.930 . S
C1614 C1610 1.524 . S
C1614 H1626 0.956 . S
C1614 H1627 0.961 . S
C1614 H1628 0.961 . S
C1615 C1612 1.539 . S
C1615 H1629 0.958 . S
C1615 H1630 0.961 . S
C1615 H1631 0.960 . S
H1616 C1600 0.931 . S
H1617 C1605 0.929 . S
H1618 C1606 0.960 . S
H1619 C1606 0.962 . S
H1620 C1606 0.960 . S
H1621 C1607 0.961 . S
H1622 C1607 0.961 . S
H1623 C1607 0.961 . S
H1624 C1608 0.931 . S
H1625 C1613 0.930 . S
H1626 C1614 0.956 . S
H1627 C1614 0.961 . S
H1628 C1614 0.961 . S
H1629 C1615 0.958 . S
H1630 C1615 0.961 . S
H1631 C1615 0.960 . S
C1632 C1633 1.391 . S
C1632 C1634 1.394 . S
C1632 H1648 0.931 . S
C1633 C1632 1.391 . S
C1633 C1637 1.376 . S
C1634 C1632 1.394 . S
C1634 C1635 1.369 . S
C1634 C1638 1.531 . S
C1635 C1634 1.369 . S
C1635 C1636 1.410 . S
C1635 C1643 1.503 . S
C1636 C1635 1.410 . S
C1636 C1637 1.392 . S
C1636 C1639 1.511 . S
C1637 C1633 1.376 . S
C1637 C1636 1.392 . S
C1637 H1649 0.929 . S
C1638 C1634 1.531 . S
C1638 H1650 0.960 . S
C1638 H1651 0.962 . S
C1638 H1652 0.960 . S
C1639 C1636 1.511 . S
C1639 H1653 0.961 . S
C1639 H1654 0.961 . S
C1639 H1655 0.961 . S
C1640 C1641 1.370 . S
C1640 C1642 1.363 . S
C1640 H1656 0.931 . S
C1641 C1640 1.370 . S
C1641 C1645 1.408 . S
C1642 C1640 1.363 . S
C1642 C1643 1.370 . S
C1642 C1646 1.524 . S
C1643 C1635 1.503 . S
C1643 C1642 1.370 . S
C1643 C1644 1.403 . S
C1644 C1643 1.403 . S
C1644 C1645 1.404 . S
C1644 C1647 1.539 . S
C1645 C1641 1.408 . S
C1645 C1644 1.404 . S
C1645 H1657 0.930 . S
C1646 C1642 1.524 . S
C1646 H1658 0.956 . S
C1646 H1659 0.961 . S
C1646 H1660 0.961 . S
C1647 C1644 1.539 . S
C1647 H1661 0.958 . S
C1647 H1662 0.961 . S
C1647 H1663 0.960 . S
H1648 C1632 0.931 . S
H1649 C1637 0.929 . S
H1650 C1638 0.960 . S
H1651 C1638 0.962 . S
H1652 C1638 0.960 . S
H1653 C1639 0.961 . S
H1654 C1639 0.961 . S
H1655 C1639 0.961 . S
H1656 C1640 0.931 . S
H1657 C1645 0.930 . S
H1658 C1646 0.956 . S
H1659 C1646 0.961 . S
H1660 C1646 0.961 . S
H1661 C1647 0.958 . S
H1662 C1647 0.961 . S
H1663 C1647 0.960 . S
C1664 C1665 1.391 . S
C1664 C1666 1.394 . S
C1664 H1680 0.931 . S
C1665 C1664 1.391 . S
C1665 C1669 1.376 . S
C1666 C1664 1.394 . S
C1666 C1667 1.369 . S
C1666 C1670 1.531 . S
C1667 C1666 1.369 . S
C1667 C1668 1.410 . S
C1667 C1675 1.503 . S
C1668 C1667 1.410 . S
C1668 C1669 1.392 . S
C1668 C1671 1.511 . S
C1669 C1665 1.376 . S
C1669 C1668 1.392 . S
C1669 H1681 0.929 . S
C1670 C1666 1.531 . S
C1670 H1682 0.960 . S
C1670 H1683 0.962 . S
C1670 H1684 0.960 . S
C1671 C1668 1.511 . S
C1671 H1685 0.961 . S
C1671 H1686 0.961 . S
C1671 H1687 0.961 . S
C1672 C1673 1.370 . S
C1672 C1674 1.363 . S
C1672 H1688 0.931 . S
C1673 C1672 1.370 . S
C1673 C1677 1.408 . S
C1674 C1672 1.363 . S
C1674 C1675 1.370 . S
C1674 C1678 1.524 . S
C1675 C1667 1.503 . S
C1675 C1674 1.370 . S
C1675 C1676 1.403 . S
C1676 C1675 1.403 . S
C1676 C1677 1.404 . S
C1676 C1679 1.539 . S
C1677 C1673 1.408 . S
C1677 C1676 1.404 . S
C1677 H1689 0.930 . S
C1678 C1674 1.524 . S
C1678 H1690 0.956 . S
C1678 H1691 0.961 . S
C1678 H1692 0.961 . S
C1679 C1676 1.539 . S
C1679 H1693 0.958 . S
C1679 H1694 0.961 . S
C1679 H1695 0.960 . S
H1680 C1664 0.931 . S
H1681 C1669 0.929 . S
H1682 C1670 0.960 . S
H1683 C1670 0.962 . S
H1684 C1670 0.960 . S
H1685 C1671 0.961 . S
H1686 C1671 0.961 . S
H1687 C1671 0.961 . S
H1688 C1672 0.931 . S
H1689 C1677 0.930 . S
H1690 C1678 0.956 . S
H1691 C1678 0.961 . S
H1692 C1678 0.961 . S
H1693 C1679 0.958 . S
H1694 C1679 0.961 . S
H1695 C1679 0.960 . S
C1696 C1697 1.391 . S
C1696 C1698 1.394 . S
C1696 H1712 0.931 . S
C1697 C1696 1.391 . S
C1697 C1701 1.376 . S
C1698 C1696 1.394 . S
C1698 C1699 1.369 . S
C1698 C1702 1.531 . S
C1699 C1698 1.369 . S
C1699 C1700 1.410 . S
C1699 C1707 1.503 . S
C1700 C1699 1.410 . S
C1700 C1701 1.392 . S
C1700 C1703 1.511 . S
C1701 C1697 1.376 . S
C1701 C1700 1.392 . S
C1701 H1713 0.929 . S
C1702 C1698 1.531 . S
C1702 H1714 0.960 . S
C1702 H1715 0.962 . S
C1702 H1716 0.960 . S
C1703 C1700 1.511 . S
C1703 H1717 0.961 . S
C1703 H1718 0.961 . S
C1703 H1719 0.961 . S
C1704 C1705 1.370 . S
C1704 C1706 1.363 . S
C1704 H1720 0.931 . S
C1705 C1704 1.370 . S
C1705 C1709 1.408 . S
C1706 C1704 1.363 . S
C1706 C1707 1.370 . S
C1706 C1710 1.524 . S
C1707 C1699 1.503 . S
C1707 C1706 1.370 . S
C1707 C1708 1.403 . S
C1708 C1707 1.403 . S
C1708 C1709 1.404 . S
C1708 C1711 1.539 . S
C1709 C1705 1.408 . S
C1709 C1708 1.404 . S
C1709 H1721 0.930 . S
C1710 C1706 1.524 . S
C1710 H1722 0.956 . S
C1710 H1723 0.961 . S
C1710 H1724 0.961 . S
C1711 C1708 1.539 . S
C1711 H1725 0.958 . S
C1711 H1726 0.961 . S
C1711 H1727 0.960 . S
H1712 C1696 0.931 . S
H1713 C1701 0.929 . S
H1714 C1702 0.960 . S
H1715 C1702 0.962 . S
H1716 C1702 0.960 . S
H1717 C1703 0.961 . S
H1718 C1703 0.961 . S
H1719 C1703 0.961 . S
H1720 C1704 0.931 . S
H1721 C1709 0.930 . S
H1722 C1710 0.956 . S
H1723 C1710 0.961 . S
H1724 C1710 0.961 . S
H1725 C1711 0.958 . S
H1726 C1711 0.961 . S
H1727 C1711 0.960 . S
C1728 C1729 1.391 . S
C1728 C1730 1.394 . S
C1728 H1744 0.931 . S
C1729 C1728 1.391 . S
C1729 C1733 1.376 . S
C1730 C1728 1.394 . S
C1730 C1731 1.369 . S
C1730 C1734 1.531 . S
C1731 C1730 1.369 . S
C1731 C1732 1.410 . S
C1731 C1739 1.503 1_455 S
C1732 C1731 1.410 . S
C1732 C1733 1.392 . S
C1732 C1735 1.511 1_455 S
C1733 C1729 1.376 . S
C1733 C1732 1.392 . S
C1733 H1745 0.929 . S
C1734 C1730 1.531 . S
C1734 H1746 0.960 . S
C1734 H1747 0.962 . S
C1734 H1748 0.960 . S
C1735 C1732 1.511 1_655 S
C1735 H1749 0.961 . S
C1735 H1750 0.961 . S
C1735 H1751 0.961 . S
C1736 C1737 1.370 . S
C1736 C1738 1.363 . S
C1736 H1752 0.931 . S
C1737 C1736 1.370 . S
C1737 C1741 1.408 . S
C1738 C1736 1.363 . S
C1738 C1739 1.370 . S
C1738 C1742 1.524 . S
C1739 C1731 1.503 1_655 S
C1739 C1738 1.370 . S
C1739 C1740 1.403 . S
C1740 C1739 1.403 . S
C1740 C1741 1.404 . S
C1740 C1743 1.539 . S
C1741 C1737 1.408 . S
C1741 C1740 1.404 . S
C1741 H1753 0.930 . S
C1742 C1738 1.524 . S
C1742 H1754 0.956 1_655 S
C1742 H1755 0.961 . S
C1742 H1756 0.961 . S
C1743 C1740 1.539 . S
C1743 H1757 0.958 . S
C1743 H1758 0.961 . S
C1743 H1759 0.960 . S
H1744 C1728 0.931 . S
H1745 C1733 0.929 . S
H1746 C1734 0.960 . S
H1747 C1734 0.962 . S
H1748 C1734 0.960 . S
H1749 C1735 0.961 . S
H1750 C1735 0.961 . S
H1751 C1735 0.961 . S
H1752 C1736 0.931 . S
H1753 C1741 0.930 . S
H1754 C1742 0.956 1_455 S
H1755 C1742 0.961 . S
H1756 C1742 0.961 . S
H1757 C1743 0.958 . S
H1758 C1743 0.961 . S
H1759 C1743 0.960 . S
C1760 C1761 1.391 . S
C1760 C1762 1.394 . S
C1760 H1776 0.931 . S
C1761 C1760 1.391 . S
C1761 C1765 1.376 . S
C1762 C1760 1.394 . S
C1762 C1763 1.369 . S
C1762 C1766 1.531 . S
C1763 C1762 1.369 . S
C1763 C1764 1.410 . S
C1763 C1771 1.503 . S
C1764 C1763 1.410 . S
C1764 C1765 1.392 . S
C1764 C1767 1.511 . S
C1765 C1761 1.376 . S
C1765 C1764 1.392 . S
C1765 H1777 0.929 . S
C1766 C1762 1.531 . S
C1766 H1778 0.960 . S
C1766 H1779 0.962 . S
C1766 H1780 0.960 . S
C1767 C1764 1.511 . S
C1767 H1781 0.961 . S
C1767 H1782 0.961 . S
C1767 H1783 0.961 . S
C1768 C1769 1.370 . S
C1768 C1770 1.363 . S
C1768 H1784 0.931 . S
C1769 C1768 1.370 . S
C1769 C1773 1.408 . S
C1770 C1768 1.363 . S
C1770 C1771 1.370 . S
C1770 C1774 1.524 . S
C1771 C1763 1.503 . S
C1771 C1770 1.370 . S
C1771 C1772 1.403 . S
C1772 C1771 1.403 . S
C1772 C1773 1.404 . S
C1772 C1775 1.539 . S
C1773 C1769 1.408 . S
C1773 C1772 1.404 . S
C1773 H1785 0.930 . S
C1774 C1770 1.524 . S
C1774 H1786 0.956 . S
C1774 H1787 0.961 . S
C1774 H1788 0.961 . S
C1775 C1772 1.539 . S
C1775 H1789 0.958 . S
C1775 H1790 0.961 . S
C1775 H1791 0.960 . S
H1776 C1760 0.931 . S
H1777 C1765 0.929 . S
H1778 C1766 0.960 . S
H1779 C1766 0.962 . S
H1780 C1766 0.960 . S
H1781 C1767 0.961 . S
H1782 C1767 0.961 . S
H1783 C1767 0.961 . S
H1784 C1768 0.931 . S
H1785 C1773 0.930 . S
H1786 C1774 0.956 . S
H1787 C1774 0.961 . S
H1788 C1774 0.961 . S
H1789 C1775 0.958 . S
H1790 C1775 0.961 . S
H1791 C1775 0.960 . S
C1792 C1793 1.391 . S
C1792 C1794 1.394 . S
C1792 H1808 0.931 . S
C1793 C1792 1.391 . S
C1793 C1797 1.376 . S
C1794 C1792 1.394 . S
C1794 C1795 1.369 . S
C1794 C1798 1.531 . S
C1795 C1794 1.369 . S
C1795 C1796 1.410 . S
C1795 C1803 1.503 . S
C1796 C1795 1.410 . S
C1796 C1797 1.392 . S
C1796 C1799 1.511 . S
C1797 C1793 1.376 . S
C1797 C1796 1.392 . S
C1797 H1809 0.929 . S
C1798 C1794 1.531 . S
C1798 H1810 0.960 . S
C1798 H1811 0.962 . S
C1798 H1812 0.960 . S
C1799 C1796 1.511 . S
C1799 H1813 0.961 . S
C1799 H1814 0.961 . S
C1799 H1815 0.961 . S
C1800 C1801 1.370 . S
C1800 C1802 1.363 . S
C1800 H1816 0.931 . S
C1801 C1800 1.370 . S
C1801 C1805 1.408 . S
C1802 C1800 1.363 . S
C1802 C1803 1.370 . S
C1802 C1806 1.524 . S
C1803 C1795 1.503 . S
C1803 C1802 1.370 . S
C1803 C1804 1.403 . S
C1804 C1803 1.403 . S
C1804 C1805 1.404 . S
C1804 C1807 1.539 . S
C1805 C1801 1.408 . S
C1805 C1804 1.404 . S
C1805 H1817 0.930 . S
C1806 C1802 1.524 . S
C1806 H1818 0.956 . S
C1806 H1819 0.961 . S
C1806 H1820 0.961 . S
C1807 C1804 1.539 . S
C1807 H1821 0.958 . S
C1807 H1822 0.961 . S
C1807 H1823 0.960 . S
H1808 C1792 0.931 . S
H1809 C1797 0.929 . S
H1810 C1798 0.960 . S
H1811 C1798 0.962 . S
H1812 C1798 0.960 . S
H1813 C1799 0.961 . S
H1814 C1799 0.961 . S
H1815 C1799 0.961 . S
H1816 C1800 0.931 . S
H1817 C1805 0.930 . S
H1818 C1806 0.956 . S
H1819 C1806 0.961 . S
H1820 C1806 0.961 . S
H1821 C1807 0.958 . S
H1822 C1807 0.961 . S
H1823 C1807 0.960 . S
C1824 C1825 1.391 . S
C1824 C1826 1.394 . S
C1824 H1840 0.931 . S
C1825 C1824 1.391 . S
C1825 C1829 1.376 . S
C1826 C1824 1.394 . S
C1826 C1827 1.369 . S
C1826 C1830 1.531 . S
C1827 C1826 1.369 . S
C1827 C1828 1.410 . S
C1827 C1835 1.503 . S
C1828 C1827 1.410 . S
C1828 C1829 1.392 . S
C1828 C1831 1.511 . S
C1829 C1825 1.376 . S
C1829 C1828 1.392 . S
C1829 H1841 0.929 . S
C1830 C1826 1.531 . S
C1830 H1842 0.960 . S
C1830 H1843 0.962 . S
C1830 H1844 0.960 . S
C1831 C1828 1.511 . S
C1831 H1845 0.961 . S
C1831 H1846 0.961 . S
C1831 H1847 0.961 . S
C1832 C1833 1.370 . S
C1832 C1834 1.363 . S
C1832 H1848 0.931 . S
C1833 C1832 1.370 . S
C1833 C1837 1.408 . S
C1834 C1832 1.363 . S
C1834 C1835 1.370 . S
C1834 C1838 1.524 . S
C1835 C1827 1.503 . S
C1835 C1834 1.370 . S
C1835 C1836 1.403 . S
C1836 C1835 1.403 . S
C1836 C1837 1.404 . S
C1836 C1839 1.539 . S
C1837 C1833 1.408 . S
C1837 C1836 1.404 . S
C1837 H1849 0.930 . S
C1838 C1834 1.524 . S
C1838 H1850 0.956 . S
C1838 H1851 0.961 . S
C1838 H1852 0.961 . S
C1839 C1836 1.539 . S
C1839 H1853 0.958 . S
C1839 H1854 0.961 . S
C1839 H1855 0.960 . S
H1840 C1824 0.931 . S
H1841 C1829 0.929 . S
H1842 C1830 0.960 . S
H1843 C1830 0.962 . S
H1844 C1830 0.960 . S
H1845 C1831 0.961 . S
H1846 C1831 0.961 . S
H1847 C1831 0.961 . S
H1848 C1832 0.931 . S
H1849 C1837 0.930 . S
H1850 C1838 0.956 . S
H1851 C1838 0.961 . S
H1852 C1838 0.961 . S
H1853 C1839 0.958 . S
H1854 C1839 0.961 . S
H1855 C1839 0.960 . S
C1856 C1857 1.391 . S
C1856 C1858 1.394 . S
C1856 H1872 0.931 . S
C1857 C1856 1.391 . S
C1857 C1861 1.376 . S
C1858 C1856 1.394 . S
C1858 C1859 1.369 . S
C1858 C1862 1.531 . S
C1859 C1858 1.369 . S
C1859 C1860 1.410 . S
C1859 C1867 1.503 . S
C1860 C1859 1.410 . S
C1860 C1861 1.392 . S
C1860 C1863 1.511 . S
C1861 C1857 1.376 . S
C1861 C1860 1.392 . S
C1861 H1873 0.929 . S
C1862 C1858 1.531 . S
C1862 H1874 0.960 . S
C1862 H1875 0.962 . S
C1862 H1876 0.960 . S
C1863 C1860 1.511 . S
C1863 H1877 0.961 . S
C1863 H1878 0.961 . S
C1863 H1879 0.961 . S
C1864 C1865 1.370 . S
C1864 C1866 1.363 1_655 S
C1864 H1880 0.931 . S
C1865 C1864 1.370 . S
C1865 C1869 1.408 . S
C1866 C1864 1.363 1_455 S
C1866 C1867 1.370 . S
C1866 C1870 1.524 . S
C1867 C1859 1.503 . S
C1867 C1866 1.370 . S
C1867 C1868 1.403 . S
C1868 C1867 1.403 . S
C1868 C1869 1.404 1_455 S
C1868 C1871 1.539 . S
C1869 C1865 1.408 . S
C1869 C1868 1.404 1_655 S
C1869 H1881 0.930 . S
C1870 C1866 1.524 . S
C1870 H1882 0.956 . S
C1870 H1883 0.961 . S
C1870 H1884 0.961 . S
C1871 C1868 1.539 . S
C1871 H1885 0.958 . S
C1871 H1886 0.961 . S
C1871 H1887 0.960 . S
H1872 C1856 0.931 . S
H1873 C1861 0.929 . S
H1874 C1862 0.960 . S
H1875 C1862 0.962 . S
H1876 C1862 0.960 . S
H1877 C1863 0.961 . S
H1878 C1863 0.961 . S
H1879 C1863 0.961 . S
H1880 C1864 0.931 . S
H1881 C1869 0.930 . S
H1882 C1870 0.956 . S
H1883 C1870 0.961 . S
H1884 C1870 0.961 . S
H1885 C1871 0.958 . S
H1886 C1871 0.961 . S
H1887 C1871 0.960 . S
C1888 C1889 1.391 . S
C1888 C1890 1.394 . S
C1888 H1904 0.931 . S
C1889 C1888 1.391 . S
C1889 C1893 1.376 . S
C1890 C1888 1.394 . S
C1890 C1891 1.369 . S
C1890 C1894 1.531 . S
C1891 C1890 1.369 . S
C1891 C1892 1.410 . S
C1891 C1899 1.503 . S
C1892 C1891 1.410 . S
C1892 C1893 1.392 . S
C1892 C1895 1.511 . S
C1893 C1889 1.376 . S
C1893 C1892 1.392 . S
C1893 H1905 0.929 . S
C1894 C1890 1.531 . S
C1894 H1906 0.960 . S
C1894 H1907 0.962 . S
C1894 H1908 0.960 . S
C1895 C1892 1.511 . S
C1895 H1909 0.961 . S
C1895 H1910 0.961 . S
C1895 H1911 0.961 . S
C1896 C1897 1.370 . S
C1896 C1898 1.363 . S
C1896 H1912 0.931 . S
C1897 C1896 1.370 . S
C1897 C1901 1.408 . S
C1898 C1896 1.363 . S
C1898 C1899 1.370 . S
C1898 C1902 1.524 . S
C1899 C1891 1.503 . S
C1899 C1898 1.370 . S
C1899 C1900 1.403 . S
C1900 C1899 1.403 . S
C1900 C1901 1.404 . S
C1900 C1903 1.539 . S
C1901 C1897 1.408 . S
C1901 C1900 1.404 . S
C1901 H1913 0.930 . S
C1902 C1898 1.524 . S
C1902 H1914 0.956 . S
C1902 H1915 0.961 . S
C1902 H1916 0.961 . S
C1903 C1900 1.539 . S
C1903 H1917 0.958 . S
C1903 H1918 0.961 . S
C1903 H1919 0.960 . S
H1904 C1888 0.931 . S
H1905 C1893 0.929 . S
H1906 C1894 0.960 . S
H1907 C1894 0.962 . S
H1908 C1894 0.960 . S
H1909 C1895 0.961 . S
H1910 C1895 0.961 . S
H1911 C1895 0.961 . S
H1912 C1896 0.931 . S
H1913 C1901 0.930 . S
H1914 C1902 0.956 . S
H1915 C1902 0.961 . S
H1916 C1902 0.961 . S
H1917 C1903 0.958 . S
H1918 C1903 0.961 . S
H1919 C1903 0.960 . S
C1920 C1921 1.391 . S
C1920 C1922 1.394 1_655 S
C1920 H1936 0.931 . S
C1921 C1920 1.391 . S
C1921 C1925 1.376 . S
C1922 C1920 1.394 1_455 S
C1922 C1923 1.369 . S
C1922 C1926 1.531 . S
C1923 C1922 1.369 . S
C1923 C1924 1.410 1_455 S
C1923 C1931 1.503 . S
C1924 C1923 1.410 1_655 S
C1924 C1925 1.392 . S
C1924 C1927 1.508 1_655 S
C1925 C1921 1.376 . S
C1925 C1924 1.392 . S
C1925 H1937 0.929 . S
C1926 C1922 1.531 . S
C1926 H1938 0.960 . S
C1926 H1939 0.962 . S
C1926 H1940 0.960 . S
C1927 C1924 1.508 1_455 S
C1927 H1941 0.938 1_455 S
C1927 H1942 1.006 . S
C1927 H1943 0.945 1_455 S
C1928 C1929 1.370 . S
C1928 C1930 1.363 . S
C1928 H1944 0.931 . S
C1929 C1928 1.370 . S
C1929 C1933 1.408 . S
C1930 C1928 1.363 . S
C1930 C1931 1.370 . S
C1930 C1934 1.524 . S
C1931 C1923 1.503 . S
C1931 C1930 1.370 . S
C1931 C1932 1.403 . S
C1932 C1931 1.403 . S
C1932 C1933 1.404 . S
C1932 C1935 1.539 . S
C1933 C1929 1.408 . S
C1933 C1932 1.404 . S
C1933 H1945 0.930 . S
C1934 C1930 1.524 . S
C1934 H1946 0.956 . S
C1934 H1947 0.961 . S
C1934 H1948 0.961 . S
C1935 C1932 1.539 . S
C1935 H1949 0.958 . S
C1935 H1950 0.961 . S
C1935 H1951 0.960 . S
H1936 C1920 0.931 . S
H1937 C1925 0.929 . S
H1938 C1926 0.960 . S
H1939 C1926 0.962 . S
H1940 C1926 0.960 . S
H1941 C1927 0.938 1_655 S
H1942 C1927 1.006 . S
H1943 C1927 0.945 1_655 S
H1944 C1928 0.931 . S
H1945 C1933 0.930 . S
H1946 C1934 0.956 . S
H1947 C1934 0.961 . S
H1948 C1934 0.961 . S
H1949 C1935 0.958 . S
H1950 C1935 0.961 . S
H1951 C1935 0.960 . S
C1952 C1953 1.391 . S
C1952 C1954 1.394 . S
C1952 H1968 0.931 . S
C1953 C1952 1.391 . S
C1953 C1957 1.376 . S
C1954 C1952 1.394 . S
C1954 C1955 1.369 . S
C1954 C1958 1.531 . S
C1955 C1954 1.369 . S
C1955 C1956 1.410 . S
C1955 C1963 1.503 . S
C1956 C1955 1.410 . S
C1956 C1957 1.392 . S
C1956 C1959 1.511 . S
C1957 C1953 1.376 . S
C1957 C1956 1.392 . S
C1957 H1969 0.929 . S
C1958 C1954 1.531 . S
C1958 H1970 0.960 . S
C1958 H1971 0.962 . S
C1958 H1972 0.960 . S
C1959 C1956 1.511 . S
C1959 H1973 0.961 . S
C1959 H1974 0.961 . S
C1959 H1975 0.961 . S
C1960 C1961 1.370 . S
C1960 C1962 1.363 . S
C1960 H1976 0.931 . S
C1961 C1960 1.370 . S
C1961 C1965 1.408 . S
C1962 C1960 1.363 . S
C1962 C1963 1.370 . S
C1962 C1966 1.524 . S
C1963 C1955 1.503 . S
C1963 C1962 1.370 . S
C1963 C1964 1.403 . S
C1964 C1963 1.403 . S
C1964 C1965 1.404 . S
C1964 C1967 1.539 . S
C1965 C1961 1.408 . S
C1965 C1964 1.404 . S
C1965 H1977 0.930 . S
C1966 C1962 1.524 . S
C1966 H1978 0.956 . S
C1966 H1979 0.961 . S
C1966 H1980 0.961 . S
C1967 C1964 1.539 . S
C1967 H1981 0.958 . S
C1967 H1982 0.961 . S
C1967 H1983 0.960 . S
H1968 C1952 0.931 . S
H1969 C1957 0.929 . S
H1970 C1958 0.960 . S
H1971 C1958 0.962 . S
H1972 C1958 0.960 . S
H1973 C1959 0.961 . S
H1974 C1959 0.961 . S
H1975 C1959 0.961 . S
H1976 C1960 0.931 . S
H1977 C1965 0.930 . S
H1978 C1966 0.956 . S
H1979 C1966 0.961 . S
H1980 C1966 0.961 . S
H1981 C1967 0.958 . S
H1982 C1967 0.961 . S
H1983 C1967 0.960 . S
C1984 C1985 1.391 . S
C1984 C1986 1.394 . S
C1984 H2000 0.931 . S
C1985 C1984 1.391 . S
C1985 C1989 1.376 . S
C1986 C1984 1.394 . S
C1986 C1987 1.369 . S
C1986 C1990 1.531 . S
C1987 C1986 1.369 . S
C1987 C1988 1.410 . S
C1987 C1995 1.503 . S
C1988 C1987 1.410 . S
C1988 C1989 1.392 . S
C1988 C1991 1.511 . S
C1989 C1985 1.376 . S
C1989 C1988 1.392 . S
C1989 H2001 0.929 . S
C1990 C1986 1.531 . S
C1990 H2002 0.960 . S
C1990 H2003 0.962 . S
C1990 H2004 0.960 . S
C1991 C1988 1.511 . S
C1991 H2005 0.961 . S
C1991 H2006 0.961 . S
C1991 H2007 0.961 . S
C1992 C1993 1.370 . S
C1992 C1994 1.363 . S
C1992 H2008 0.931 . S
C1993 C1992 1.370 . S
C1993 C1997 1.408 . S
C1994 C1992 1.363 . S
C1994 C1995 1.370 . S
C1994 C1998 1.524 . S
C1995 C1987 1.503 . S
C1995 C1994 1.370 . S
C1995 C1996 1.403 . S
C1996 C1995 1.403 . S
C1996 C1997 1.404 . S
C1996 C1999 1.539 . S
C1997 C1993 1.408 . S
C1997 C1996 1.404 . S
C1997 H2009 0.930 . S
C1998 C1994 1.524 . S
C1998 H2010 0.956 . S
C1998 H2011 0.961 . S
C1998 H2012 0.961 . S
C1999 C1996 1.539 . S
C1999 H2013 0.958 . S
C1999 H2014 0.961 . S
C1999 H2015 0.960 . S
H2000 C1984 0.931 . S
H2001 C1989 0.929 . S
H2002 C1990 0.960 . S
H2003 C1990 0.962 . S
H2004 C1990 0.960 . S
H2005 C1991 0.961 . S
H2006 C1991 0.961 . S
H2007 C1991 0.961 . S
H2008 C1992 0.931 . S
H2009 C1997 0.930 . S
H2010 C1998 0.956 . S
H2011 C1998 0.961 . S
H2012 C1998 0.961 . S
H2013 C1999 0.958 . S
H2014 C1999 0.961 . S
H2015 C1999 0.960 . S
C2016 C2017 1.391 . S
C2016 C2018 1.394 . S
C2016 H2032 0.931 . S
C2017 C2016 1.391 . S
C2017 C2021 1.376 . S
C2018 C2016 1.394 . S
C2018 C2019 1.369 . S
C2018 C2022 1.531 . S
C2019 C2018 1.369 . S
C2019 C2020 1.410 . S
C2019 C2027 1.503 . S
C2020 C2019 1.410 . S
C2020 C2021 1.392 . S
C2020 C2023 1.511 . S
C2021 C2017 1.376 . S
C2021 C2020 1.392 . S
C2021 H2033 0.929 . S
C2022 C2018 1.531 . S
C2022 H2034 0.960 . S
C2022 H2035 0.962 . S
C2022 H2036 0.960 . S
C2023 C2020 1.511 . S
C2023 H2037 0.961 . S
C2023 H2038 0.961 . S
C2023 H2039 0.961 . S
C2024 C2025 1.370 . S
C2024 C2026 1.363 . S
C2024 H2040 0.931 . S
C2025 C2024 1.370 . S
C2025 C2029 1.408 . S
C2026 C2024 1.363 . S
C2026 C2027 1.370 . S
C2026 C2030 1.524 . S
C2027 C2019 1.503 . S
C2027 C2026 1.370 . S
C2027 C2028 1.403 . S
C2028 C2027 1.403 . S
C2028 C2029 1.404 . S
C2028 C2031 1.539 . S
C2029 C2025 1.408 . S
C2029 C2028 1.404 . S
C2029 H2041 0.930 . S
C2030 C2026 1.524 . S
C2030 H2042 0.956 . S
C2030 H2043 0.961 . S
C2030 H2044 0.961 . S
C2031 C2028 1.539 . S
C2031 H2045 0.958 . S
C2031 H2046 0.961 . S
C2031 H2047 0.960 . S
H2032 C2016 0.931 . S
H2033 C2021 0.929 . S
H2034 C2022 0.960 . S
H2035 C2022 0.962 . S
H2036 C2022 0.960 . S
H2037 C2023 0.961 . S
H2038 C2023 0.961 . S
H2039 C2023 0.961 . S
H2040 C2024 0.931 . S
H2041 C2029 0.930 . S
H2042 C2030 0.956 . S
H2043 C2030 0.961 . S
H2044 C2030 0.961 . S
H2045 C2031 0.958 . S
H2046 C2031 0.961 . S
H2047 C2031 0.960 . S
C2048 C2049 1.391 . S
C2048 C2050 1.394 . S
C2048 H2064 0.931 . S
C2049 C2048 1.391 . S
C2049 C2053 1.376 . S
C2050 C2048 1.394 . S
C2050 C2051 1.369 . S
C2050 C2054 1.531 . S
C2051 C2050 1.369 . S
C2051 C2052 1.410 . S
C2051 C2059 1.503 . S
C2052 C2051 1.410 . S
C2052 C2053 1.392 . S
C2052 C2055 1.511 . S
C2053 C2049 1.376 . S
C2053 C2052 1.392 . S
C2053 H2065 0.929 . S
C2054 C2050 1.531 . S
C2054 H2066 0.960 . S
C2054 H2067 0.962 . S
C2054 H2068 0.960 . S
C2055 C2052 1.511 . S
C2055 H2069 0.961 . S
C2055 H2070 0.961 . S
C2055 H2071 0.961 . S
C2056 C2057 1.370 . S
C2056 C2058 1.363 . S
C2056 H2072 0.931 . S
C2057 C2056 1.370 . S
C2057 C2061 1.408 . S
C2058 C2056 1.363 . S
C2058 C2059 1.370 . S
C2058 C2062 1.524 . S
C2059 C2051 1.503 . S
C2059 C2058 1.370 . S
C2059 C2060 1.403 . S
C2060 C2059 1.403 . S
C2060 C2061 1.404 . S
C2060 C2063 1.539 . S
C2061 C2057 1.408 . S
C2061 C2060 1.404 . S
C2061 H2073 0.930 . S
C2062 C2058 1.524 . S
C2062 H2074 0.956 . S
C2062 H2075 0.961 . S
C2062 H2076 0.961 . S
C2063 C2060 1.539 . S
C2063 H2077 0.958 . S
C2063 H2078 0.961 . S
C2063 H2079 0.960 . S
H2064 C2048 0.931 . S
H2065 C2053 0.929 . S
H2066 C2054 0.960 . S
H2067 C2054 0.962 . S
H2068 C2054 0.960 . S
H2069 C2055 0.961 . S
H2070 C2055 0.961 . S
H2071 C2055 0.961 . S
H2072 C2056 0.931 . S
H2073 C2061 0.930 . S
H2074 C2062 0.956 . S
H2075 C2062 0.961 . S
H2076 C2062 0.961 . S
H2077 C2063 0.958 . S
H2078 C2063 0.961 . S
H2079 C2063 0.960 . S
C2080 C2081 1.391 . S
C2080 C2082 1.394 . S
C2080 H2096 0.931 . S
C2081 C2080 1.391 . S
C2081 C2085 1.376 . S
C2082 C2080 1.394 . S
C2082 C2083 1.369 . S
C2082 C2086 1.531 . S
C2083 C2082 1.369 . S
C2083 C2084 1.410 . S
C2083 C2091 1.503 . S
C2084 C2083 1.410 . S
C2084 C2085 1.392 . S
C2084 C2087 1.511 . S
C2085 C2081 1.376 . S
C2085 C2084 1.392 . S
C2085 H2097 0.929 . S
C2086 C2082 1.531 . S
C2086 H2098 0.960 . S
C2086 H2099 0.962 . S
C2086 H2100 0.960 . S
C2087 C2084 1.511 . S
C2087 H2101 0.961 . S
C2087 H2102 0.961 . S
C2087 H2103 0.961 . S
C2088 C2089 1.370 . S
C2088 C2090 1.363 . S
C2088 H2104 0.931 . S
C2089 C2088 1.370 . S
C2089 C2093 1.408 . S
C2090 C2088 1.363 . S
C2090 C2091 1.370 . S
C2090 C2094 1.524 . S
C2091 C2083 1.503 . S
C2091 C2090 1.370 . S
C2091 C2092 1.403 . S
C2092 C2091 1.403 . S
C2092 C2093 1.404 . S
C2092 C2095 1.539 . S
C2093 C2089 1.408 . S
C2093 C2092 1.404 . S
C2093 H2105 0.930 . S
C2094 C2090 1.524 . S
C2094 H2106 0.956 . S
C2094 H2107 0.961 . S
C2094 H2108 0.961 . S
C2095 C2092 1.539 . S
C2095 H2109 0.958 . S
C2095 H2110 0.961 . S
C2095 H2111 0.960 . S
H2096 C2080 0.931 . S
H2097 C2085 0.929 . S
H2098 C2086 0.960 . S
H2099 C2086 0.962 . S
H2100 C2086 0.960 . S
H2101 C2087 0.961 . S
H2102 C2087 0.961 . S
H2103 C2087 0.961 . S
H2104 C2088 0.931 . S
H2105 C2093 0.930 . S
H2106 C2094 0.956 . S
H2107 C2094 0.961 . S
H2108 C2094 0.961 . S
H2109 C2095 0.958 . S
H2110 C2095 0.961 . S
H2111 C2095 0.960 . S
C2112 C2113 1.391 . S
C2112 C2114 1.394 . S
C2112 H2128 0.931 . S
C2113 C2112 1.391 . S
C2113 C2117 1.376 . S
C2114 C2112 1.394 . S
C2114 C2115 1.369 . S
C2114 C2118 1.531 1_655 S
C2115 C2114 1.369 . S
C2115 C2116 1.410 . S
C2115 C2123 1.503 1_655 S
C2116 C2115 1.410 . S
C2116 C2117 1.392 . S
C2116 C2119 1.511 . S
C2117 C2113 1.376 . S
C2117 C2116 1.392 . S
C2117 H2129 0.929 . S
C2118 C2114 1.531 1_455 S
C2118 H2130 0.960 . S
C2118 H2131 0.962 . S
C2118 H2132 0.960 . S
C2119 C2116 1.511 . S
C2119 H2133 0.961 . S
C2119 H2134 0.961 . S
C2119 H2135 0.961 . S
C2120 C2121 1.370 . S
C2120 C2122 1.363 . S
C2120 H2136 0.931 . S
C2121 C2120 1.370 . S
C2121 C2125 1.408 . S
C2122 C2120 1.363 . S
C2122 C2123 1.370 . S
C2122 C2126 1.524 . S
C2123 C2115 1.503 1_455 S
C2123 C2122 1.370 . S
C2123 C2124 1.403 . S
C2124 C2123 1.403 . S
C2124 C2125 1.404 . S
C2124 C2127 1.539 . S
C2125 C2121 1.408 . S
C2125 C2124 1.404 . S
C2125 H2137 0.930 . S
C2126 C2122 1.524 . S
C2126 H2138 0.956 . S
C2126 H2139 0.961 . S
C2126 H2140 0.961 . S
C2127 C2124 1.539 . S
C2127 H2141 0.958 . S
C2127 H2142 0.961 . S
C2127 H2143 0.960 1_455 S
H2128 C2112 0.931 . S
H2129 C2117 0.929 . S
H2130 C2118 0.960 . S
H2131 C2118 0.962 . S
H2132 C2118 0.960 . S
H2133 C2119 0.961 . S
H2134 C2119 0.961 . S
H2135 C2119 0.961 . S
H2136 C2120 0.931 . S
H2137 C2125 0.930 . S
H2138 C2126 0.956 . S
H2139 C2126 0.961 . S
H2140 C2126 0.961 . S
H2141 C2127 0.958 . S
H2142 C2127 0.961 . S
H2143 C2127 0.960 1_655 S
C2144 C2145 1.391 . S
C2144 C2146 1.394 . S
C2144 H2160 0.931 . S
C2145 C2144 1.391 . S
C2145 C2149 1.376 . S
C2146 C2144 1.394 . S
C2146 C2147 1.369 . S
C2146 C2150 1.531 . S
C2147 C2146 1.369 . S
C2147 C2148 1.410 . S
C2147 C2155 1.503 . S
C2148 C2147 1.410 . S
C2148 C2149 1.392 . S
C2148 C2151 1.511 . S
C2149 C2145 1.376 . S
C2149 C2148 1.392 . S
C2149 H2161 0.929 . S
C2150 C2146 1.531 . S
C2150 H2162 0.960 . S
C2150 H2163 0.962 . S
C2150 H2164 0.960 . S
C2151 C2148 1.511 . S
C2151 H2165 0.961 . S
C2151 H2166 0.961 . S
C2151 H2167 0.961 . S
C2152 C2153 1.370 . S
C2152 C2154 1.363 . S
C2152 H2168 0.931 . S
C2153 C2152 1.370 . S
C2153 C2157 1.408 . S
C2154 C2152 1.363 . S
C2154 C2155 1.370 . S
C2154 C2158 1.524 . S
C2155 C2147 1.503 . S
C2155 C2154 1.370 . S
C2155 C2156 1.403 . S
C2156 C2155 1.403 . S
C2156 C2157 1.404 . S
C2156 C2159 1.539 . S
C2157 C2153 1.408 . S
C2157 C2156 1.404 . S
C2157 H2169 0.930 . S
C2158 C2154 1.524 . S
C2158 H2170 0.956 . S
C2158 H2171 0.961 . S
C2158 H2172 0.961 . S
C2159 C2156 1.539 . S
C2159 H2173 0.958 . S
C2159 H2174 0.961 . S
C2159 H2175 0.960 . S
H2160 C2144 0.931 . S
H2161 C2149 0.929 . S
H2162 C2150 0.960 . S
H2163 C2150 0.962 . S
H2164 C2150 0.960 . S
H2165 C2151 0.961 . S
H2166 C2151 0.961 . S
H2167 C2151 0.961 . S
H2168 C2152 0.931 . S
H2169 C2157 0.930 . S
H2170 C2158 0.956 . S
H2171 C2158 0.961 . S
H2172 C2158 0.961 . S
H2173 C2159 0.958 . S
H2174 C2159 0.961 . S
H2175 C2159 0.960 . S
C2176 C2177 1.391 . S
C2176 C2178 1.394 . S
C2176 H2192 0.931 . S
C2177 C2176 1.391 . S
C2177 C2181 1.376 . S
C2178 C2176 1.394 . S
C2178 C2179 1.369 . S
C2178 C2182 1.531 . S
C2179 C2178 1.369 . S
C2179 C2180 1.410 . S
C2179 C2187 1.503 1_455 S
C2180 C2179 1.410 . S
C2180 C2181 1.392 . S
C2180 C2183 1.511 . S
C2181 C2177 1.376 . S
C2181 C2180 1.392 . S
C2181 H2193 0.929 . S
C2182 C2178 1.531 . S
C2182 H2194 0.960 1_455 S
C2182 H2195 0.962 1_455 S
C2182 H2196 0.960 . S
C2183 C2180 1.511 . S
C2183 H2197 0.961 . S
C2183 H2198 0.961 . S
C2183 H2199 0.961 . S
C2184 C2185 1.370 . S
C2184 C2186 1.363 . S
C2184 H2200 0.931 . S
C2185 C2184 1.370 . S
C2185 C2189 1.408 . S
C2186 C2184 1.363 . S
C2186 C2187 1.370 . S
C2186 C2190 1.524 . S
C2187 C2179 1.503 1_655 S
C2187 C2186 1.370 . S
C2187 C2188 1.403 . S
C2188 C2187 1.403 . S
C2188 C2189 1.404 . S
C2188 C2191 1.539 1_655 S
C2189 C2185 1.408 . S
C2189 C2188 1.404 . S
C2189 H2201 0.930 . S
C2190 C2186 1.524 . S
C2190 H2202 0.956 . S
C2190 H2203 0.961 . S
C2190 H2204 0.961 . S
C2191 C2188 1.539 1_455 S
C2191 H2205 0.958 . S
C2191 H2206 0.961 . S
C2191 H2207 0.960 . S
H2192 C2176 0.931 . S
H2193 C2181 0.929 . S
H2194 C2182 0.960 1_655 S
H2195 C2182 0.962 1_655 S
H2196 C2182 0.960 . S
H2197 C2183 0.961 . S
H2198 C2183 0.961 . S
H2199 C2183 0.961 . S
H2200 C2184 0.931 . S
H2201 C2189 0.930 . S
H2202 C2190 0.956 . S
H2203 C2190 0.961 . S
H2204 C2190 0.961 . S
H2205 C2191 0.958 . S
H2206 C2191 0.961 . S
H2207 C2191 0.960 . S
C2208 C2209 1.391 . S
C2208 C2210 1.394 . S
C2208 H2224 0.931 . S
C2209 C2208 1.391 . S
C2209 C2213 1.376 . S
C2210 C2208 1.394 . S
C2210 C2211 1.369 . S
C2210 C2214 1.531 . S
C2211 C2210 1.369 . S
C2211 C2212 1.410 . S
C2211 C2219 1.503 . S
C2212 C2211 1.410 . S
C2212 C2213 1.392 . S
C2212 C2215 1.511 . S
C2213 C2209 1.376 . S
C2213 C2212 1.392 . S
C2213 H2225 0.929 . S
C2214 C2210 1.531 . S
C2214 H2226 0.960 . S
C2214 H2227 0.962 . S
C2214 H2228 0.960 . S
C2215 C2212 1.511 . S
C2215 H2229 0.961 . S
C2215 H2230 0.961 . S
C2215 H2231 0.961 . S
C2216 C2217 1.370 . S
C2216 C2218 1.363 . S
C2216 H2232 0.931 . S
C2217 C2216 1.370 . S
C2217 C2221 1.408 . S
C2218 C2216 1.363 . S
C2218 C2219 1.370 . S
C2218 C2222 1.524 . S
C2219 C2211 1.503 . S
C2219 C2218 1.370 . S
C2219 C2220 1.403 . S
C2220 C2219 1.403 . S
C2220 C2221 1.404 . S
C2220 C2223 1.539 . S
C2221 C2217 1.408 . S
C2221 C2220 1.404 . S
C2221 H2233 0.930 . S
C2222 C2218 1.524 . S
C2222 H2234 0.956 . S
C2222 H2235 0.961 . S
C2222 H2236 0.961 . S
C2223 C2220 1.539 . S
C2223 H2237 0.958 . S
C2223 H2238 0.961 . S
C2223 H2239 0.960 . S
H2224 C2208 0.931 . S
H2225 C2213 0.929 . S
H2226 C2214 0.960 . S
H2227 C2214 0.962 . S
H2228 C2214 0.960 . S
H2229 C2215 0.961 . S
H2230 C2215 0.961 . S
H2231 C2215 0.961 . S
H2232 C2216 0.931 . S
H2233 C2221 0.930 . S
H2234 C2222 0.956 . S
H2235 C2222 0.961 . S
H2236 C2222 0.961 . S
H2237 C2223 0.958 . S
H2238 C2223 0.961 . S
H2239 C2223 0.960 . S
C2240 C2241 1.391 . S
C2240 C2242 1.394 . S
C2240 H2256 0.931 . S
C2241 C2240 1.391 . S
C2241 C2245 1.376 . S
C2242 C2240 1.394 . S
C2242 C2243 1.369 . S
C2242 C2246 1.531 . S
C2243 C2242 1.369 . S
C2243 C2244 1.410 . S
C2243 C2251 1.503 . S
C2244 C2243 1.410 . S
C2244 C2245 1.392 . S
C2244 C2247 1.511 . S
C2245 C2241 1.376 . S
C2245 C2244 1.392 . S
C2245 H2257 0.929 . S
C2246 C2242 1.531 . S
C2246 H2258 0.960 . S
C2246 H2259 0.962 . S
C2246 H2260 0.960 . S
C2247 C2244 1.511 . S
C2247 H2261 0.961 . S
C2247 H2262 0.961 . S
C2247 H2263 0.961 . S
C2248 C2249 1.370 . S
C2248 C2250 1.363 . S
C2248 H2264 0.931 . S
C2249 C2248 1.370 . S
C2249 C2253 1.408 . S
C2250 C2248 1.363 . S
C2250 C2251 1.370 . S
C2250 C2254 1.524 . S
C2251 C2243 1.503 . S
C2251 C2250 1.370 . S
C2251 C2252 1.403 . S
C2252 C2251 1.403 . S
C2252 C2253 1.404 . S
C2252 C2255 1.539 . S
C2253 C2249 1.408 . S
C2253 C2252 1.404 . S
C2253 H2265 0.930 . S
C2254 C2250 1.524 . S
C2254 H2266 0.956 . S
C2254 H2267 0.961 . S
C2254 H2268 0.961 . S
C2255 C2252 1.539 . S
C2255 H2269 0.958 . S
C2255 H2270 0.961 . S
C2255 H2271 0.960 . S
H2256 C2240 0.931 . S
H2257 C2245 0.929 . S
H2258 C2246 0.960 . S
H2259 C2246 0.962 . S
H2260 C2246 0.960 . S
H2261 C2247 0.961 . S
H2262 C2247 0.961 . S
H2263 C2247 0.961 . S
H2264 C2248 0.931 . S
H2265 C2253 0.930 . S
H2266 C2254 0.956 . S
H2267 C2254 0.961 . S
H2268 C2254 0.961 . S
H2269 C2255 0.958 . S
H2270 C2255 0.961 . S
H2271 C2255 0.960 . S
C2272 C2273 1.391 . S
C2272 C2274 1.394 . S
C2272 H2288 0.931 . S
C2273 C2272 1.391 . S
C2273 C2277 1.376 . S
C2274 C2272 1.394 . S
C2274 C2275 1.369 . S
C2274 C2278 1.531 . S
C2275 C2274 1.369 . S
C2275 C2276 1.410 . S
C2275 C2283 1.503 . S
C2276 C2275 1.410 . S
C2276 C2277 1.392 . S
C2276 C2279 1.511 . S
C2277 C2273 1.376 . S
C2277 C2276 1.392 . S
C2277 H2289 0.929 . S
C2278 C2274 1.531 . S
C2278 H2290 0.960 . S
C2278 H2291 0.962 . S
C2278 H2292 0.960 . S
C2279 C2276 1.511 . S
C2279 H2293 0.961 . S
C2279 H2294 0.961 . S
C2279 H2295 0.961 . S
C2280 C2281 1.370 . S
C2280 C2282 1.363 . S
C2280 H2296 0.931 . S
C2281 C2280 1.370 . S
C2281 C2285 1.408 . S
C2282 C2280 1.363 . S
C2282 C2283 1.370 . S
C2282 C2286 1.524 . S
C2283 C2275 1.503 . S
C2283 C2282 1.370 . S
C2283 C2284 1.403 . S
C2284 C2283 1.403 . S
C2284 C2285 1.404 . S
C2284 C2287 1.539 . S
C2285 C2281 1.408 . S
C2285 C2284 1.404 . S
C2285 H2297 0.930 . S
C2286 C2282 1.524 . S
C2286 H2298 0.956 . S
C2286 H2299 0.961 . S
C2286 H2300 0.961 . S
C2287 C2284 1.539 . S
C2287 H2301 0.958 . S
C2287 H2302 0.961 . S
C2287 H2303 0.960 . S
H2288 C2272 0.931 . S
H2289 C2277 0.929 . S
H2290 C2278 0.960 . S
H2291 C2278 0.962 . S
H2292 C2278 0.960 . S
H2293 C2279 0.961 . S
H2294 C2279 0.961 . S
H2295 C2279 0.961 . S
H2296 C2280 0.931 . S
H2297 C2285 0.930 . S
H2298 C2286 0.956 . S
H2299 C2286 0.961 . S
H2300 C2286 0.961 . S
H2301 C2287 0.958 . S
H2302 C2287 0.961 . S
H2303 C2287 0.960 . S
C2304 C2305 1.391 . S
C2304 C2306 1.394 . S
C2304 H2320 0.931 . S
C2305 C2304 1.391 . S
C2305 C2309 1.376 . S
C2306 C2304 1.394 . S
C2306 C2307 1.369 . S
C2306 C2310 1.531 . S
C2307 C2306 1.369 . S
C2307 C2308 1.410 . S
C2307 C2315 1.503 . S
C2308 C2307 1.410 . S
C2308 C2309 1.392 . S
C2308 C2311 1.511 . S
C2309 C2305 1.376 . S
C2309 C2308 1.392 . S
C2309 H2321 0.929 . S
C2310 C2306 1.531 . S
C2310 H2322 0.960 . S
C2310 H2323 0.962 . S
C2310 H2324 0.960 . S
C2311 C2308 1.511 . S
C2311 H2325 0.961 . S
C2311 H2326 0.961 . S
C2311 H2327 0.961 . S
C2312 C2313 1.370 . S
C2312 C2314 1.363 . S
C2312 H2328 0.931 . S
C2313 C2312 1.370 . S
C2313 C2317 1.408 . S
C2314 C2312 1.363 . S
C2314 C2315 1.370 . S
C2314 C2318 1.524 . S
C2315 C2307 1.503 . S
C2315 C2314 1.370 . S
C2315 C2316 1.403 . S
C2316 C2315 1.403 . S
C2316 C2317 1.404 . S
C2316 C2319 1.539 . S
C2317 C2313 1.408 . S
C2317 C2316 1.404 . S
C2317 H2329 0.930 . S
C2318 C2314 1.524 . S
C2318 H2330 0.956 . S
C2318 H2331 0.961 . S
C2318 H2332 0.961 . S
C2319 C2316 1.539 . S
C2319 H2333 0.958 . S
C2319 H2334 0.961 . S
C2319 H2335 0.960 . S
H2320 C2304 0.931 . S
H2321 C2309 0.929 . S
H2322 C2310 0.960 . S
H2323 C2310 0.962 . S
H2324 C2310 0.960 . S
H2325 C2311 0.961 . S
H2326 C2311 0.961 . S
H2327 C2311 0.961 . S
H2328 C2312 0.931 . S
H2329 C2317 0.930 . S
H2330 C2318 0.956 . S
H2331 C2318 0.961 . S
H2332 C2318 0.961 . S
H2333 C2319 0.958 . S
H2334 C2319 0.961 . S
H2335 C2319 0.960 . S
C2336 C2337 1.391 . S
C2336 C2338 1.394 . S
C2336 H2352 0.931 . S
C2337 C2336 1.391 . S
C2337 C2341 1.376 . S
C2338 C2336 1.394 . S
C2338 C2339 1.369 . S
C2338 C2342 1.531 . S
C2339 C2338 1.369 . S
C2339 C2340 1.410 . S
C2339 C2347 1.503 . S
C2340 C2339 1.410 . S
C2340 C2341 1.392 . S
C2340 C2343 1.511 . S
C2341 C2337 1.376 . S
C2341 C2340 1.392 . S
C2341 H2353 0.929 . S
C2342 C2338 1.531 . S
C2342 H2354 0.960 . S
C2342 H2355 0.962 . S
C2342 H2356 0.960 . S
C2343 C2340 1.511 . S
C2343 H2357 0.961 . S
C2343 H2358 0.961 . S
C2343 H2359 0.961 . S
C2344 C2345 1.370 . S
C2344 C2346 1.363 . S
C2344 H2360 0.931 . S
C2345 C2344 1.370 . S
C2345 C2349 1.408 . S
C2346 C2344 1.363 . S
C2346 C2347 1.370 . S
C2346 C2350 1.524 . S
C2347 C2339 1.503 . S
C2347 C2346 1.370 . S
C2347 C2348 1.403 . S
C2348 C2347 1.403 . S
C2348 C2349 1.404 . S
C2348 C2351 1.539 . S
C2349 C2345 1.408 . S
C2349 C2348 1.404 . S
C2349 H2361 0.930 . S
C2350 C2346 1.524 . S
C2350 H2362 0.956 . S
C2350 H2363 0.961 . S
C2350 H2364 0.961 . S
C2351 C2348 1.539 . S
C2351 H2365 0.958 . S
C2351 H2366 0.961 . S
C2351 H2367 0.960 . S
H2352 C2336 0.931 . S
H2353 C2341 0.929 . S
H2354 C2342 0.960 . S
H2355 C2342 0.962 . S
H2356 C2342 0.960 . S
H2357 C2343 0.961 . S
H2358 C2343 0.961 . S
H2359 C2343 0.961 . S
H2360 C2344 0.931 . S
H2361 C2349 0.930 . S
H2362 C2350 0.956 . S
H2363 C2350 0.961 . S
H2364 C2350 0.961 . S
H2365 C2351 0.958 . S
H2366 C2351 0.961 . S
H2367 C2351 0.960 . S
C2368 C2369 1.391 1_554 S
C2368 C2370 1.394 . S
C2368 H2384 0.931 . S
C2369 C2368 1.391 1_556 S
C2369 C2373 1.376 . S
C2370 C2368 1.394 . S
C2370 C2371 1.369 1_554 S
C2370 C2374 1.531 . S
C2371 C2370 1.369 1_556 S
C2371 C2372 1.410 . S
C2371 C2379 1.503 1_556 S
C2372 C2371 1.410 . S
C2372 C2373 1.392 . S
C2372 C2375 1.511 . S
C2373 C2369 1.376 . S
C2373 C2372 1.392 . S
C2373 H2385 0.929 . S
C2374 C2370 1.531 . S
C2374 H2386 0.960 . S
C2374 H2387 0.962 . S
C2374 H2388 0.960 . S
C2375 C2372 1.511 . S
C2375 H2389 0.961 . S
C2375 H2390 0.961 . S
C2375 H2391 0.961 . S
C2376 C2377 1.370 . S
C2376 C2378 1.363 . S
C2376 H2392 0.931 . S
C2377 C2376 1.370 . S
C2377 C2381 1.408 . S
C2378 C2376 1.363 . S
C2378 C2379 1.370 . S
C2378 C2382 1.524 . S
C2379 C2371 1.503 1_554 S
C2379 C2378 1.370 . S
C2379 C2380 1.403 . S
C2380 C2379 1.403 . S
C2380 C2381 1.404 . S
C2380 C2383 1.543 . S
C2381 C2377 1.408 . S
C2381 C2380 1.404 . S
C2381 H2393 0.930 . S
C2382 C2378 1.524 . S
C2382 H2394 0.956 . S
C2382 H2395 0.961 1_554 S
C2382 H2396 0.961 . S
C2383 C2380 1.543 . S
C2383 H2397 0.978 . S
C2383 H2398 0.952 1_554 S
C2383 H2399 0.946 1_554 S
H2384 C2368 0.931 . S
H2385 C2373 0.929 . S
H2386 C2374 0.960 . S
H2387 C2374 0.962 . S
H2388 C2374 0.960 . S
H2389 C2375 0.961 . S
H2390 C2375 0.961 . S
H2391 C2375 0.961 . S
H2392 C2376 0.931 . S
H2393 C2381 0.930 . S
H2394 C2382 0.956 . S
H2395 C2382 0.961 1_556 S
H2396 C2382 0.961 . S
H2397 C2383 0.978 . S
H2398 C2383 0.952 1_556 S
H2399 C2383 0.946 1_556 S
C2400 C2401 1.391 . S
C2400 C2402 1.394 . S
C2400 H2416 0.931 . S
C2401 C2400 1.391 . S
C2401 C2405 1.376 . S
C2402 C2400 1.394 . S
C2402 C2403 1.369 . S
C2402 C2406 1.531 . S
C2403 C2402 1.369 . S
C2403 C2404 1.410 . S
C2403 C2411 1.503 . S
C2404 C2403 1.410 . S
C2404 C2405 1.392 . S
C2404 C2407 1.511 . S
C2405 C2401 1.376 . S
C2405 C2404 1.392 . S
C2405 H2417 0.929 . S
C2406 C2402 1.531 . S
C2406 H2418 0.960 . S
C2406 H2419 0.962 . S
C2406 H2420 0.960 . S
C2407 C2404 1.511 . S
C2407 H2421 0.961 . S
C2407 H2422 0.961 . S
C2407 H2423 0.961 . S
C2408 C2409 1.370 . S
C2408 C2410 1.363 . S
C2408 H2424 0.931 . S
C2409 C2408 1.370 . S
C2409 C2413 1.408 . S
C2410 C2408 1.363 . S
C2410 C2411 1.370 . S
C2410 C2414 1.524 . S
C2411 C2403 1.503 . S
C2411 C2410 1.370 . S
C2411 C2412 1.403 . S
C2412 C2411 1.403 . S
C2412 C2413 1.404 . S
C2412 C2415 1.539 . S
C2413 C2409 1.408 . S
C2413 C2412 1.404 . S
C2413 H2425 0.930 . S
C2414 C2410 1.524 . S
C2414 H2426 0.956 . S
C2414 H2427 0.961 . S
C2414 H2428 0.961 . S
C2415 C2412 1.539 . S
C2415 H2429 0.958 . S
C2415 H2430 0.961 . S
C2415 H2431 0.960 . S
H2416 C2400 0.931 . S
H2417 C2405 0.929 . S
H2418 C2406 0.960 . S
H2419 C2406 0.962 . S
H2420 C2406 0.960 . S
H2421 C2407 0.961 . S
H2422 C2407 0.961 . S
H2423 C2407 0.961 . S
H2424 C2408 0.931 . S
H2425 C2413 0.930 . S
H2426 C2414 0.956 . S
H2427 C2414 0.961 . S
H2428 C2414 0.961 . S
H2429 C2415 0.958 . S
H2430 C2415 0.961 . S
H2431 C2415 0.960 . S
C2432 C2433 1.391 . S
C2432 C2434 1.394 . S
C2432 H2448 0.931 . S
C2433 C2432 1.391 . S
C2433 C2437 1.376 . S
C2434 C2432 1.394 . S
C2434 C2435 1.369 . S
C2434 C2438 1.531 . S
C2435 C2434 1.369 . S
C2435 C2436 1.410 . S
C2435 C2443 1.503 . S
C2436 C2435 1.410 . S
C2436 C2437 1.392 . S
C2436 C2439 1.511 . S
C2437 C2433 1.376 . S
C2437 C2436 1.392 . S
C2437 H2449 0.929 . S
C2438 C2434 1.531 . S
C2438 H2450 0.960 . S
C2438 H2451 0.962 . S
C2438 H2452 0.960 . S
C2439 C2436 1.511 . S
C2439 H2453 0.961 . S
C2439 H2454 0.961 . S
C2439 H2455 0.961 . S
C2440 C2441 1.370 . S
C2440 C2442 1.363 . S
C2440 H2456 0.931 . S
C2441 C2440 1.370 . S
C2441 C2445 1.408 . S
C2442 C2440 1.363 . S
C2442 C2443 1.370 . S
C2442 C2446 1.524 . S
C2443 C2435 1.503 . S
C2443 C2442 1.370 . S
C2443 C2444 1.403 . S
C2444 C2443 1.403 . S
C2444 C2445 1.404 . S
C2444 C2447 1.539 . S
C2445 C2441 1.408 . S
C2445 C2444 1.404 . S
C2445 H2457 0.930 . S
C2446 C2442 1.524 . S
C2446 H2458 0.956 . S
C2446 H2459 0.961 . S
C2446 H2460 0.961 . S
C2447 C2444 1.539 . S
C2447 H2461 0.958 . S
C2447 H2462 0.961 . S
C2447 H2463 0.960 . S
H2448 C2432 0.931 . S
H2449 C2437 0.929 . S
H2450 C2438 0.960 . S
H2451 C2438 0.962 . S
H2452 C2438 0.960 . S
H2453 C2439 0.961 . S
H2454 C2439 0.961 . S
H2455 C2439 0.961 . S
H2456 C2440 0.931 . S
H2457 C2445 0.930 . S
H2458 C2446 0.956 . S
H2459 C2446 0.961 . S
H2460 C2446 0.961 . S
H2461 C2447 0.958 . S
H2462 C2447 0.961 . S
H2463 C2447 0.960 . S
C2464 C2465 1.391 . S
C2464 C2466 1.394 . S
C2464 H2480 0.931 . S
C2465 C2464 1.391 . S
C2465 C2469 1.376 . S
C2466 C2464 1.394 . S
C2466 C2467 1.369 . S
C2466 C2470 1.531 . S
C2467 C2466 1.369 . S
C2467 C2468 1.410 . S
C2467 C2475 1.503 . S
C2468 C2467 1.410 . S
C2468 C2469 1.392 . S
C2468 C2471 1.511 . S
C2469 C2465 1.376 . S
C2469 C2468 1.392 . S
C2469 H2481 0.929 . S
C2470 C2466 1.531 . S
C2470 H2482 0.960 . S
C2470 H2483 0.962 . S
C2470 H2484 0.960 . S
C2471 C2468 1.511 . S
C2471 H2485 0.961 . S
C2471 H2486 0.961 . S
C2471 H2487 0.961 . S
C2472 C2473 1.370 . S
C2472 C2474 1.363 . S
C2472 H2488 0.931 . S
C2473 C2472 1.370 . S
C2473 C2477 1.408 . S
C2474 C2472 1.363 . S
C2474 C2475 1.370 . S
C2474 C2478 1.524 . S
C2475 C2467 1.503 . S
C2475 C2474 1.370 . S
C2475 C2476 1.403 . S
C2476 C2475 1.403 . S
C2476 C2477 1.404 . S
C2476 C2479 1.539 . S
C2477 C2473 1.408 . S
C2477 C2476 1.404 . S
C2477 H2489 0.930 . S
C2478 C2474 1.524 . S
C2478 H2490 0.956 . S
C2478 H2491 0.961 . S
C2478 H2492 0.961 . S
C2479 C2476 1.539 . S
C2479 H2493 0.958 . S
C2479 H2494 0.961 . S
C2479 H2495 0.960 . S
H2480 C2464 0.931 . S
H2481 C2469 0.929 . S
H2482 C2470 0.960 . S
H2483 C2470 0.962 . S
H2484 C2470 0.960 . S
H2485 C2471 0.961 . S
H2486 C2471 0.961 . S
H2487 C2471 0.961 . S
H2488 C2472 0.931 . S
H2489 C2477 0.930 . S
H2490 C2478 0.956 . S
H2491 C2478 0.961 . S
H2492 C2478 0.961 . S
H2493 C2479 0.958 . S
H2494 C2479 0.961 . S
H2495 C2479 0.960 . S
C2496 C2497 1.391 . S
C2496 C2498 1.394 . S
C2496 H2512 0.931 . S
C2497 C2496 1.391 . S
C2497 C2501 1.376 1_554 S
C2498 C2496 1.394 . S
C2498 C2499 1.369 . S
C2498 C2502 1.531 . S
C2499 C2498 1.369 . S
C2499 C2500 1.410 1_554 S
C2499 C2507 1.503 . S
C2500 C2499 1.410 1_556 S
C2500 C2501 1.392 . S
C2500 C2503 1.511 . S
C2501 C2497 1.376 1_556 S
C2501 C2500 1.392 . S
C2501 H2513 0.929 . S
C2502 C2498 1.531 . S
C2502 H2514 0.960 . S
C2502 H2515 0.962 . S
C2502 H2516 0.960 . S
C2503 C2500 1.511 . S
C2503 H2517 0.961 . S
C2503 H2518 0.961 . S
C2503 H2519 0.961 . S
C2504 C2505 1.375 . S
C2504 C2506 1.363 . S
C2504 H2520 0.931 . S
C2505 C2504 1.375 . S
C2505 C2509 1.403 1_556 S
C2506 C2504 1.363 . S
C2506 C2507 1.370 1_556 S
C2506 C2510 1.524 . S
C2507 C2499 1.503 . S
C2507 C2506 1.370 1_554 S
C2507 C2508 1.403 . S
C2508 C2507 1.403 . S
C2508 C2509 1.404 . S
C2508 C2511 1.539 . S
C2509 C2505 1.403 1_554 S
C2509 C2508 1.404 . S
C2509 H2521 0.930 . S
C2510 C2506 1.524 . S
C2510 H2522 0.956 . S
C2510 H2523 0.961 . S
C2510 H2524 0.961 . S
C2511 C2508 1.539 . S
C2511 H2525 0.958 . S
C2511 H2526 0.961 . S
C2511 H2527 0.960 . S
H2512 C2496 0.931 . S
H2513 C2501 0.929 . S
H2514 C2502 0.960 . S
H2515 C2502 0.962 . S
H2516 C2502 0.960 . S
H2517 C2503 0.961 . S
H2518 C2503 0.961 . S
H2519 C2503 0.961 . S
H2520 C2504 0.931 . S
H2521 C2509 0.930 . S
H2522 C2510 0.956 . S
H2523 C2510 0.961 . S
H2524 C2510 0.961 . S
H2525 C2511 0.958 . S
H2526 C2511 0.961 . S
H2527 C2511 0.960 . S
C2528 C2529 1.391 . S
C2528 C2530 1.394 . S
C2528 H2544 0.931 . S
C2529 C2528 1.391 . S
C2529 C2533 1.376 . S
C2530 C2528 1.394 . S
C2530 C2531 1.369 . S
C2530 C2534 1.531 . S
C2531 C2530 1.369 . S
C2531 C2532 1.410 . S
C2531 C2539 1.503 1_565 S
C2532 C2531 1.410 . S
C2532 C2533 1.392 . S
C2532 C2535 1.511 . S
C2533 C2529 1.376 . S
C2533 C2532 1.392 . S
C2533 H2545 0.929 . S
C2534 C2530 1.531 . S
C2534 H2546 0.960 1_565 S
C2534 H2547 0.962 . S
C2534 H2548 0.960 . S
C2535 C2532 1.511 . S
C2535 H2549 0.961 . S
C2535 H2550 1.009 . S
C2535 H2551 0.961 . S
C2536 C2537 1.370 . S
C2536 C2538 1.363 . S
C2536 H2552 0.931 . S
C2537 C2536 1.370 . S
C2537 C2541 1.408 . S
C2538 C2536 1.363 . S
C2538 C2539 1.370 . S
C2538 C2542 1.524 . S
C2539 C2531 1.503 1_545 S
C2539 C2538 1.370 . S
C2539 C2540 1.403 . S
C2540 C2539 1.403 . S
C2540 C2541 1.404 . S
C2540 C2543 1.539 . S
C2541 C2537 1.408 . S
C2541 C2540 1.404 . S
C2541 H2553 0.930 . S
C2542 C2538 1.524 . S
C2542 H2554 0.956 . S
C2542 H2555 0.961 . S
C2542 H2556 0.961 . S
C2543 C2540 1.539 . S
C2543 H2557 0.958 . S
C2543 H2558 0.961 . S
C2543 H2559 0.960 1_545 S
H2544 C2528 0.931 . S
H2545 C2533 0.929 . S
H2546 C2534 0.960 1_545 S
H2547 C2534 0.962 . S
H2548 C2534 0.960 . S
H2549 C2535 0.961 . S
H2550 C2535 1.009 . S
H2551 C2535 0.961 . S
H2552 C2536 0.931 . S
H2553 C2541 0.930 . S
H2554 C2542 0.956 . S
H2555 C2542 0.961 . S
H2556 C2542 0.961 . S
H2557 C2543 0.958 . S
H2558 C2543 0.961 . S
H2559 C2543 0.960 1_565 S
C2560 C2561 1.391 . S
C2560 C2562 1.394 . S
C2560 H2576 0.931 . S
C2561 C2560 1.391 . S
C2561 C2565 1.376 . S
C2562 C2560 1.394 . S
C2562 C2563 1.369 1_554 S
C2562 C2566 1.528 1_554 S
C2563 C2562 1.369 1_556 S
C2563 C2564 1.410 . S
C2563 C2571 1.503 . S
C2564 C2563 1.410 . S
C2564 C2565 1.392 1_556 S
C2564 C2567 1.511 . S
C2565 C2561 1.376 . S
C2565 C2564 1.392 1_554 S
C2565 H2577 0.929 . S
C2566 C2562 1.528 1_556 S
C2566 H2578 0.982 . S
C2566 H2579 0.933 1_556 S
C2566 H2580 0.970 . S
C2567 C2564 1.511 . S
C2567 H2581 0.961 1_556 S
C2567 H2582 0.961 . S
C2567 H2583 0.961 . S
C2568 C2569 1.370 1_554 S
C2568 C2570 1.363 . S
C2568 H2584 0.931 . S
C2569 C2568 1.370 1_556 S
C2569 C2573 1.408 . S
C2570 C2568 1.363 . S
C2570 C2571 1.370 1_554 S
C2570 C2574 1.524 . S
C2571 C2563 1.503 . S
C2571 C2570 1.370 1_556 S
C2571 C2572 1.403 . S
C2572 C2571 1.403 . S
C2572 C2573 1.404 . S
C2572 C2575 1.539 . S
C2573 C2569 1.408 . S
C2573 C2572 1.404 . S
C2573 H2585 0.930 . S
C2574 C2570 1.524 . S
C2574 H2586 0.956 . S
C2574 H2587 0.961 . S
C2574 H2588 0.961 . S
C2575 C2572 1.539 . S
C2575 H2589 0.958 . S
C2575 H2590 0.961 . S
C2575 H2591 0.960 . S
H2576 C2560 0.931 . S
H2577 C2565 0.929 . S
H2578 C2566 0.982 . S
H2579 C2566 0.933 1_554 S
H2580 C2566 0.970 . S
H2581 C2567 0.961 1_554 S
H2582 C2567 0.961 . S
H2583 C2567 0.961 . S
H2584 C2568 0.931 . S
H2585 C2573 0.930 . S
H2586 C2574 0.956 . S
H2587 C2574 0.961 . S
H2588 C2574 0.961 . S
H2589 C2575 0.958 . S
H2590 C2575 0.961 . S
H2591 C2575 0.960 . S
C2592 C2593 1.391 . S
C2592 C2594 1.394 . S
C2592 H2608 0.931 . S
C2593 C2592 1.391 . S
C2593 C2597 1.376 . S
C2594 C2592 1.394 . S
C2594 C2595 1.369 . S
C2594 C2598 1.531 . S
C2595 C2594 1.369 . S
C2595 C2596 1.410 . S
C2595 C2603 1.503 1_545 S
C2596 C2595 1.410 . S
C2596 C2597 1.392 . S
C2596 C2599 1.511 . S
C2597 C2593 1.376 . S
C2597 C2596 1.392 . S
C2597 H2609 0.929 . S
C2598 C2594 1.531 . S
C2598 H2610 0.960 . S
C2598 H2611 0.962 . S
C2598 H2612 0.960 . S
C2599 C2596 1.511 . S
C2599 H2613 0.961 . S
C2599 H2614 0.961 1_545 S
C2599 H2615 0.961 . S
C2600 C2601 1.370 . S
C2600 C2602 1.363 . S
C2600 H2616 0.931 . S
C2601 C2600 1.370 . S
C2601 C2605 1.408 . S
C2602 C2600 1.363 . S
C2602 C2603 1.370 . S
C2602 C2606 1.524 . S
C2603 C2595 1.503 1_565 S
C2603 C2602 1.370 . S
C2603 C2604 1.403 . S
C2604 C2603 1.403 . S
C2604 C2605 1.404 . S
C2604 C2607 1.539 . S
C2605 C2601 1.408 . S
C2605 C2604 1.404 . S
C2605 H2617 0.930 . S
C2606 C2602 1.524 . S
C2606 H2618 0.956 . S
C2606 H2619 0.961 . S
C2606 H2620 0.961 . S
C2607 C2604 1.539 . S
C2607 H2621 0.958 . S
C2607 H2622 0.961 . S
C2607 H2623 0.960 1_565 S
H2608 C2592 0.931 . S
H2609 C2597 0.929 . S
H2610 C2598 0.960 . S
H2611 C2598 0.962 . S
H2612 C2598 0.960 . S
H2613 C2599 0.961 . S
H2614 C2599 0.961 1_565 S
H2615 C2599 0.961 . S
H2616 C2600 0.931 . S
H2617 C2605 0.930 . S
H2618 C2606 0.956 . S
H2619 C2606 0.961 . S
H2620 C2606 0.961 . S
H2621 C2607 0.958 . S
H2622 C2607 0.961 . S
H2623 C2607 0.960 1_545 S
C2624 C2625 1.391 . S
C2624 C2626 1.394 . S
C2624 H2640 0.931 . S
C2625 C2624 1.391 . S
C2625 C2629 1.376 . S
C2626 C2624 1.394 . S
C2626 C2627 1.369 . S
C2626 C2630 1.531 . S
C2627 C2626 1.369 . S
C2627 C2628 1.410 . S
C2627 C2635 1.503 . S
C2628 C2627 1.410 . S
C2628 C2629 1.392 . S
C2628 C2631 1.511 . S
C2629 C2625 1.376 . S
C2629 C2628 1.392 . S
C2629 H2641 0.929 . S
C2630 C2626 1.531 . S
C2630 H2642 0.960 . S
C2630 H2643 0.962 . S
C2630 H2644 0.960 . S
C2631 C2628 1.511 . S
C2631 H2645 0.961 . S
C2631 H2646 0.961 . S
C2631 H2647 0.961 . S
C2632 C2633 1.370 . S
C2632 C2634 1.363 . S
C2632 H2648 0.931 . S
C2633 C2632 1.370 . S
C2633 C2637 1.408 . S
C2634 C2632 1.363 . S
C2634 C2635 1.370 . S
C2634 C2638 1.524 . S
C2635 C2627 1.503 . S
C2635 C2634 1.370 . S
C2635 C2636 1.403 . S
C2636 C2635 1.403 . S
C2636 C2637 1.404 . S
C2636 C2639 1.539 . S
C2637 C2633 1.408 . S
C2637 C2636 1.404 . S
C2637 H2649 0.930 . S
C2638 C2634 1.524 . S
C2638 H2650 0.956 . S
C2638 H2651 0.961 . S
C2638 H2652 0.961 . S
C2639 C2636 1.539 . S
C2639 H2653 0.958 . S
C2639 H2654 0.961 . S
C2639 H2655 0.960 . S
H2640 C2624 0.931 . S
H2641 C2629 0.929 . S
H2642 C2630 0.960 . S
H2643 C2630 0.962 . S
H2644 C2630 0.960 . S
H2645 C2631 0.961 . S
H2646 C2631 0.961 . S
H2647 C2631 0.961 . S
H2648 C2632 0.931 . S
H2649 C2637 0.930 . S
H2650 C2638 0.956 . S
H2651 C2638 0.961 . S
H2652 C2638 0.961 . S
H2653 C2639 0.958 . S
H2654 C2639 0.961 . S
H2655 C2639 0.960 . S
C2656 C2657 1.391 . S
C2656 C2658 1.394 . S
C2656 H2672 0.931 . S
C2657 C2656 1.391 . S
C2657 C2661 1.376 . S
C2658 C2656 1.394 . S
C2658 C2659 1.369 . S
C2658 C2662 1.531 . S
C2659 C2658 1.369 . S
C2659 C2660 1.410 . S
C2659 C2667 1.503 1_545 S
C2660 C2659 1.410 . S
C2660 C2661 1.392 . S
C2660 C2663 1.511 . S
C2661 C2657 1.376 . S
C2661 C2660 1.392 . S
C2661 H2673 0.929 . S
C2662 C2658 1.531 . S
C2662 H2674 0.960 1_545 S
C2662 H2675 0.962 . S
C2662 H2676 0.960 . S
C2663 C2660 1.511 . S
C2663 H2677 0.961 . S
C2663 H2678 0.961 1_545 S
C2663 H2679 0.961 . S
C2664 C2665 1.370 . S
C2664 C2666 1.363 . S
C2664 H2680 0.931 . S
C2665 C2664 1.370 . S
C2665 C2669 1.408 . S
C2666 C2664 1.363 . S
C2666 C2667 1.370 . S
C2666 C2670 1.524 . S
C2667 C2659 1.503 1_565 S
C2667 C2666 1.370 . S
C2667 C2668 1.403 . S
C2668 C2667 1.403 . S
C2668 C2669 1.404 . S
C2668 C2671 1.539 . S
C2669 C2665 1.408 . S
C2669 C2668 1.404 . S
C2669 H2681 0.930 . S
C2670 C2666 1.524 . S
C2670 H2682 0.949 1_565 S
C2670 H2683 0.961 1_565 S
C2670 H2684 0.961 . S
C2671 C2668 1.539 . S
C2671 H2685 0.958 . S
C2671 H2686 0.961 . S
C2671 H2687 0.960 . S
H2672 C2656 0.931 . S
H2673 C2661 0.929 . S
H2674 C2662 0.960 1_565 S
H2675 C2662 0.962 . S
H2676 C2662 0.960 . S
H2677 C2663 0.961 . S
H2678 C2663 0.961 1_565 S
H2679 C2663 0.961 . S
H2680 C2664 0.931 . S
H2681 C2669 0.930 . S
H2682 C2670 0.949 1_545 S
H2683 C2670 0.961 1_545 S
H2684 C2670 0.961 . S
H2685 C2671 0.958 . S
H2686 C2671 0.961 . S
H2687 C2671 0.960 . S
C2688 C2689 1.391 . S
C2688 C2690 1.394 . S
C2688 H2704 0.931 . S
C2689 C2688 1.391 . S
C2689 C2693 1.376 . S
C2690 C2688 1.394 . S
C2690 C2691 1.369 . S
C2690 C2694 1.531 . S
C2691 C2690 1.369 . S
C2691 C2692 1.410 . S
C2691 C2699 1.503 . S
C2692 C2691 1.410 . S
C2692 C2693 1.392 . S
C2692 C2695 1.511 1_554 S
C2693 C2689 1.376 . S
C2693 C2692 1.392 . S
C2693 H2705 0.929 1_554 S
C2694 C2690 1.531 . S
C2694 H2706 0.960 . S
C2694 H2707 0.937 1_554 S
C2694 H2708 0.960 . S
C2695 C2692 1.511 1_556 S
C2695 H2709 0.961 . S
C2695 H2710 0.961 . S
C2695 H2711 0.961 1_556 S
C2696 C2697 1.365 1_556 S
C2696 C2698 1.363 . S
C2696 H2712 0.931 . S
C2697 C2696 1.365 1_554 S
C2697 C2701 1.415 . S
C2698 C2696 1.363 . S
C2698 C2699 1.370 1_556 S
C2698 C2702 1.524 . S
C2699 C2691 1.503 . S
C2699 C2698 1.370 1_554 S
C2699 C2700 1.403 . S
C2700 C2699 1.403 . S
C2700 C2701 1.404 . S
C2700 C2703 1.539 . S
C2701 C2697 1.415 . S
C2701 C2700 1.404 . S
C2701 H2713 0.930 . S
C2702 C2698 1.524 . S
C2702 H2714 0.956 . S
C2702 H2715 0.961 . S
C2702 H2716 0.961 . S
C2703 C2700 1.539 . S
C2703 H2717 0.958 . S
C2703 H2718 0.961 . S
C2703 H2719 0.960 . S
H2704 C2688 0.931 . S
H2705 C2693 0.929 1_556 S
H2706 C2694 0.960 . S
H2707 C2694 0.937 1_556 S
H2708 C2694 0.960 . S
H2709 C2695 0.961 . S
H2710 C2695 0.961 . S
H2711 C2695 0.961 1_554 S
H2712 C2696 0.931 . S
H2713 C2701 0.930 . S
H2714 C2702 0.956 . S
H2715 C2702 0.961 . S
H2716 C2702 0.961 . S
H2717 C2703 0.958 . S
H2718 C2703 0.961 . S
H2719 C2703 0.960 . S
C2720 C2721 1.391 . S
C2720 C2722 1.394 . S
C2720 H2736 0.931 . S
C2721 C2720 1.391 . S
C2721 C2725 1.376 . S
C2722 C2720 1.394 . S
C2722 C2723 1.369 . S
C2722 C2726 1.531 . S
C2723 C2722 1.369 . S
C2723 C2724 1.410 . S
C2723 C2731 1.503 1_545 S
C2724 C2723 1.410 . S
C2724 C2725 1.392 . S
C2724 C2727 1.511 . S
C2725 C2721 1.376 . S
C2725 C2724 1.392 . S
C2725 H2737 0.929 . S
C2726 C2722 1.531 . S
C2726 H2738 0.960 1_545 S
C2726 H2739 0.962 . S
C2726 H2740 0.960 . S
C2727 C2724 1.511 . S
C2727 H2741 0.961 . S
C2727 H2742 0.961 1_545 S
C2727 H2743 0.961 . S
C2728 C2729 1.370 . S
C2728 C2730 1.363 . S
C2728 H2744 0.931 . S
C2729 C2728 1.370 . S
C2729 C2733 1.408 . S
C2730 C2728 1.363 . S
C2730 C2731 1.370 . S
C2730 C2734 1.524 . S
C2731 C2723 1.503 1_565 S
C2731 C2730 1.370 . S
C2731 C2732 1.403 . S
C2732 C2731 1.403 . S
C2732 C2733 1.404 . S
C2732 C2735 1.539 . S
C2733 C2729 1.408 . S
C2733 C2732 1.404 . S
C2733 H2745 0.930 . S
C2734 C2730 1.524 . S
C2734 H2746 0.956 . S
C2734 H2747 0.963 . S
C2734 H2748 0.961 . S
C2735 C2732 1.539 . S
C2735 H2749 0.958 . S
C2735 H2750 0.961 . S
C2735 H2751 0.933 1_565 S
H2736 C2720 0.931 . S
H2737 C2725 0.929 . S
H2738 C2726 0.960 1_565 S
H2739 C2726 0.962 . S
H2740 C2726 0.960 . S
H2741 C2727 0.961 . S
H2742 C2727 0.961 1_565 S
H2743 C2727 0.961 . S
H2744 C2728 0.931 . S
H2745 C2733 0.930 . S
H2746 C2734 0.956 . S
H2747 C2734 0.963 . S
H2748 C2734 0.961 . S
H2749 C2735 0.958 . S
H2750 C2735 0.961 . S
H2751 C2735 0.933 1_545 S
C2752 C2753 1.391 . S
C2752 C2754 1.394 . S
C2752 H2768 0.931 . S
C2753 C2752 1.391 . S
C2753 C2757 1.376 . S
C2754 C2752 1.394 . S
C2754 C2755 1.369 . S
C2754 C2758 1.531 . S
C2755 C2754 1.369 . S
C2755 C2756 1.410 . S
C2755 C2763 1.503 . S
C2756 C2755 1.410 . S
C2756 C2757 1.392 . S
C2756 C2759 1.511 . S
C2757 C2753 1.376 . S
C2757 C2756 1.392 . S
C2757 H2769 0.929 . S
C2758 C2754 1.531 . S
C2758 H2770 0.960 . S
C2758 H2771 0.962 . S
C2758 H2772 0.960 . S
C2759 C2756 1.511 . S
C2759 H2773 0.961 . S
C2759 H2774 0.961 . S
C2759 H2775 0.961 . S
C2760 C2761 1.370 . S
C2760 C2762 1.363 . S
C2760 H2776 0.931 . S
C2761 C2760 1.370 . S
C2761 C2765 1.408 . S
C2762 C2760 1.363 . S
C2762 C2763 1.370 . S
C2762 C2766 1.524 . S
C2763 C2755 1.503 . S
C2763 C2762 1.370 . S
C2763 C2764 1.403 . S
C2764 C2763 1.403 . S
C2764 C2765 1.404 . S
C2764 C2767 1.539 . S
C2765 C2761 1.408 . S
C2765 C2764 1.404 . S
C2765 H2777 0.930 . S
C2766 C2762 1.524 . S
C2766 H2778 0.956 . S
C2766 H2779 0.961 . S
C2766 H2780 0.961 . S
C2767 C2764 1.539 . S
C2767 H2781 0.958 . S
C2767 H2782 0.961 . S
C2767 H2783 0.960 . S
H2768 C2752 0.931 . S
H2769 C2757 0.929 . S
H2770 C2758 0.960 . S
H2771 C2758 0.962 . S
H2772 C2758 0.960 . S
H2773 C2759 0.961 . S
H2774 C2759 0.961 . S
H2775 C2759 0.961 . S
H2776 C2760 0.931 . S
H2777 C2765 0.930 . S
H2778 C2766 0.956 . S
H2779 C2766 0.961 . S
H2780 C2766 0.961 . S
H2781 C2767 0.958 . S
H2782 C2767 0.961 . S
H2783 C2767 0.960 . S
C737 C7 2.138 . S
C745 N485 1.965 . S
C769 C513 2.159 . S
C777 N25 1.996 . S
C801 C53 2.164 . S
C809 N531 1.993 . S
C833 C467 2.133 . S
C841 N71 1.984 . S
C865 C99 2.155 . S
C873 N439 1.996 . S
C897 N117 1.994 . S
C905 C375 2.148 . S
C929 N393 1.967 . S
C937 C145 2.157 . S
C961 N163 2.005 . S
C969 C421 2.159 . S
C993 C191 2.406 . S
C1001 C674 2.394 . S
C1025 C214 2.374 . S
C1033 C697 2.404 . S
C1057 C720 2.410 . S
C1065 C237 2.416 . S
C1089 C651 2.398 . S
C1097 C260 2.401 . S
C1121 C283 2.401 . S
C1129 C628 2.392 . S
C1153 C559 2.420 . S
C1161 C306 2.405 . S
C1185 C329 2.398 . S
C1193 C582 2.392 . S
C1217 C605 2.402 . S
C1225 C352 2.403 . S
C1249 N2 1.865 . S
C1257 C223 1.797 . S
C1281 C30 2.050 . S
C1289 C614 1.948 . S
C1313 C269 1.807 . S
C1321 N48 1.854 . S
C1345 C76 2.041 . S
C1353 C568 1.952 . S
C1377 N94 1.873 . S
C1385 C361 1.800 . S
C1409 C660 1.919 . S
C1417 C122 2.050 . S
C1441 C315 1.780 . S
C1449 N140 1.856 . S
C1473 C706 1.964 . S
C1481 C168 2.053 . S
C1505 N186 1.614 . S
C1513 N35 1.659 . S
C1537 C430 1.368 . S
C1545 N209 1.430 . S
C1569 N81 1.664 . S
C1577 N232 1.621 . S
C1601 N255 1.400 . S
C1609 C384 1.416 . S
C1633 N173 1.634 . S
C1641 N278 1.623 . S
C1665 C476 1.431 . S
C1673 N301 1.405 . S
C1697 N127 1.627 . S
C1705 N324 1.620 . S
C1729 N347 1.382 . S
C1737 C522 1.412 . S
C1761 C591 1.825 . S
C1769 N370 1.870 . S
C1793 C246 1.923 . S
C1801 C398 2.051 . S
C1825 C637 1.780 . S
C1833 N416 1.856 . S
C1857 C444 2.041 . S
C1865 C200 1.953 . S
C1889 C729 1.815 . S
C1897 N462 1.872 . S
C1921 C292 1.974 . S
C1929 C490 2.052 . S
C1953 C683 1.807 . S
C1961 N508 1.872 . S
C1985 C536 2.040 . S
C1993 C338 1.949 . S
C2017 N554 1.615 . S
C2025 N403 1.659 . S
C2049 C62 1.356 . S
C2057 N577 1.419 . S
C2081 N600 1.571 . S
C2089 N449 1.647 . S
C2113 N623 1.433 . S
C2121 C16 1.383 . S
C2145 N646 1.639 . S
C2153 N541 1.646 . S
C2177 C108 1.409 . S
C2185 N669 1.429 . S
C2209 N495 1.630 . S
C2217 N692 1.621 . S
C2241 N715 1.449 . S
C2249 C154 1.396 . S
C2273 N12 1.535 . S
C2281 N104 1.565 . S
C2305 C39 1.725 . S
C2313 C131 1.740 . S
C2337 N150 1.526 . S
C2345 N58 1.564 . S
C2369 C177 1.736 . S
C2377 C85 1.737 . S
C2401 N288 1.489 . S
C2409 N196 1.450 . S
C2433 N311 1.302 . S
C2441 N219 1.355 . S
C2465 N334 1.420 . S
C2473 N242 1.459 . S
C2497 N357 1.308 . S
C2505 N265 1.350 . S
C2529 N380 1.578 . S
C2537 N472 1.545 . S
C2561 C407 1.747 . S
C2569 C499 1.724 . S
C2593 N426 1.546 . S
C2601 N518 1.542 . S
C2625 C545 1.745 . S
C2633 C453 1.733 . S
C2657 N564 1.417 . S
C2665 N656 1.464 . S
C2689 N679 1.304 . S
C2697 N587 1.357 1_554 S
C2721 N702 1.484 . S
C2729 N610 1.456 . S
C2753 N725 1.302 . S
C2761 N633 1.355 . S
